# Generated by pormake.
# Topology umq, (4)-cn, num edge types: 1
# Building blocks:
#     Node 0, Type 0, BuildingBlock: TATPOV_clean_sbu_0, # of connection points: 4
#     Node 1, Type 0, BuildingBlock: TATPOV_clean_sbu_0, # of connection points: 4
#     Node 2, Type 0, BuildingBlock: TATPOV_clean_sbu_0, # of connection points: 4
#     Node 3, Type 0, BuildingBlock: TATPOV_clean_sbu_0, # of connection points: 4
#     Node 4, Type 0, BuildingBlock: TATPOV_clean_sbu_0, # of connection points: 4
#     Node 5, Type 0, BuildingBlock: TATPOV_clean_sbu_0, # of connection points: 4
#     Node 6, Type 0, BuildingBlock: TATPOV_clean_sbu_0, # of connection points: 4
#     Node 7, Type 0, BuildingBlock: TATPOV_clean_sbu_0, # of connection points: 4
#     Node 8, Type 0, BuildingBlock: TATPOV_clean_sbu_0, # of connection points: 4
#     Node 9, Type 0, BuildingBlock: TATPOV_clean_sbu_0, # of connection points: 4
#     Node 10, Type 0, BuildingBlock: TATPOV_clean_sbu_0, # of connection points: 4
#     Node 11, Type 0, BuildingBlock: TATPOV_clean_sbu_0, # of connection points: 4
#     Node 12, Type 0, BuildingBlock: TATPOV_clean_sbu_0, # of connection points: 4
#     Node 13, Type 0, BuildingBlock: TATPOV_clean_sbu_0, # of connection points: 4
#     Node 14, Type 0, BuildingBlock: TATPOV_clean_sbu_0, # of connection points: 4
#     Node 15, Type 0, BuildingBlock: TATPOV_clean_sbu_0, # of connection points: 4
#     Node 16, Type 0, BuildingBlock: TATPOV_clean_sbu_0, # of connection points: 4
#     Node 17, Type 0, BuildingBlock: TATPOV_clean_sbu_0, # of connection points: 4
#     Node 18, Type 0, BuildingBlock: TATPOV_clean_sbu_0, # of connection points: 4
#     Node 19, Type 0, BuildingBlock: TATPOV_clean_sbu_0, # of connection points: 4
#     Node 20, Type 0, BuildingBlock: TATPOV_clean_sbu_0, # of connection points: 4
#     Node 21, Type 0, BuildingBlock: TATPOV_clean_sbu_0, # of connection points: 4
#     Node 22, Type 0, BuildingBlock: TATPOV_clean_sbu_0, # of connection points: 4
#     Node 23, Type 0, BuildingBlock: TATPOV_clean_sbu_0, # of connection points: 4
#     Node 24, Type 0, BuildingBlock: TATPOV_clean_sbu_0, # of connection points: 4
#     Node 25, Type 0, BuildingBlock: TATPOV_clean_sbu_0, # of connection points: 4
#     Node 26, Type 0, BuildingBlock: TATPOV_clean_sbu_0, # of connection points: 4
#     Node 27, Type 0, BuildingBlock: TATPOV_clean_sbu_0, # of connection points: 4
#     Node 28, Type 0, BuildingBlock: TATPOV_clean_sbu_0, # of connection points: 4
#     Node 29, Type 0, BuildingBlock: TATPOV_clean_sbu_0, # of connection points: 4
#     Node 30, Type 0, BuildingBlock: TATPOV_clean_sbu_0, # of connection points: 4
#     Node 31, Type 0, BuildingBlock: TATPOV_clean_sbu_0, # of connection points: 4
#     Edge 32, Type (0, 0), BuildingBlock: XUDNAN_clean_linker_2, # of connection points: 2
#     Edge 33, Type (0, 0), BuildingBlock: XUDNAN_clean_linker_2, # of connection points: 2
#     Edge 34, Type (0, 0), BuildingBlock: XUDNAN_clean_linker_2, # of connection points: 2
#     Edge 35, Type (0, 0), BuildingBlock: XUDNAN_clean_linker_2, # of connection points: 2
#     Edge 36, Type (0, 0), BuildingBlock: XUDNAN_clean_linker_2, # of connection points: 2
#     Edge 37, Type (0, 0), BuildingBlock: XUDNAN_clean_linker_2, # of connection points: 2
#     Edge 38, Type (0, 0), BuildingBlock: XUDNAN_clean_linker_2, # of connection points: 2
#     Edge 39, Type (0, 0), BuildingBlock: XUDNAN_clean_linker_2, # of connection points: 2
#     Edge 40, Type (0, 0), BuildingBlock: XUDNAN_clean_linker_2, # of connection points: 2
#     Edge 41, Type (0, 0), BuildingBlock: XUDNAN_clean_linker_2, # of connection points: 2
#     Edge 42, Type (0, 0), BuildingBlock: XUDNAN_clean_linker_2, # of connection points: 2
#     Edge 43, Type (0, 0), BuildingBlock: XUDNAN_clean_linker_2, # of connection points: 2
#     Edge 44, Type (0, 0), BuildingBlock: XUDNAN_clean_linker_2, # of connection points: 2
#     Edge 45, Type (0, 0), BuildingBlock: XUDNAN_clean_linker_2, # of connection points: 2
#     Edge 46, Type (0, 0), BuildingBlock: XUDNAN_clean_linker_2, # of connection points: 2
#     Edge 47, Type (0, 0), BuildingBlock: XUDNAN_clean_linker_2, # of connection points: 2
#     Edge 48, Type (0, 0), BuildingBlock: XUDNAN_clean_linker_2, # of connection points: 2
#     Edge 49, Type (0, 0), BuildingBlock: XUDNAN_clean_linker_2, # of connection points: 2
#     Edge 50, Type (0, 0), BuildingBlock: XUDNAN_clean_linker_2, # of connection points: 2
#     Edge 51, Type (0, 0), BuildingBlock: XUDNAN_clean_linker_2, # of connection points: 2
#     Edge 52, Type (0, 0), BuildingBlock: XUDNAN_clean_linker_2, # of connection points: 2
#     Edge 53, Type (0, 0), BuildingBlock: XUDNAN_clean_linker_2, # of connection points: 2
#     Edge 54, Type (0, 0), BuildingBlock: XUDNAN_clean_linker_2, # of connection points: 2
#     Edge 55, Type (0, 0), BuildingBlock: XUDNAN_clean_linker_2, # of connection points: 2
#     Edge 56, Type (0, 0), BuildingBlock: XUDNAN_clean_linker_2, # of connection points: 2
#     Edge 57, Type (0, 0), BuildingBlock: XUDNAN_clean_linker_2, # of connection points: 2
#     Edge 58, Type (0, 0), BuildingBlock: XUDNAN_clean_linker_2, # of connection points: 2
#     Edge 59, Type (0, 0), BuildingBlock: XUDNAN_clean_linker_2, # of connection points: 2
#     Edge 60, Type (0, 0), BuildingBlock: XUDNAN_clean_linker_2, # of connection points: 2
#     Edge 61, Type (0, 0), BuildingBlock: XUDNAN_clean_linker_2, # of connection points: 2
#     Edge 62, Type (0, 0), BuildingBlock: XUDNAN_clean_linker_2, # of connection points: 2
#     Edge 63, Type (0, 0), BuildingBlock: XUDNAN_clean_linker_2, # of connection points: 2
#     Edge 64, Type (0, 0), BuildingBlock: XUDNAN_clean_linker_2, # of connection points: 2
#     Edge 65, Type (0, 0), BuildingBlock: XUDNAN_clean_linker_2, # of connection points: 2
#     Edge 66, Type (0, 0), BuildingBlock: XUDNAN_clean_linker_2, # of connection points: 2
#     Edge 67, Type (0, 0), BuildingBlock: XUDNAN_clean_linker_2, # of connection points: 2
#     Edge 68, Type (0, 0), BuildingBlock: XUDNAN_clean_linker_2, # of connection points: 2
#     Edge 69, Type (0, 0), BuildingBlock: XUDNAN_clean_linker_2, # of connection points: 2
#     Edge 70, Type (0, 0), BuildingBlock: XUDNAN_clean_linker_2, # of connection points: 2
#     Edge 71, Type (0, 0), BuildingBlock: XUDNAN_clean_linker_2, # of connection points: 2
#     Edge 72, Type (0, 0), BuildingBlock: XUDNAN_clean_linker_2, # of connection points: 2
#     Edge 73, Type (0, 0), BuildingBlock: XUDNAN_clean_linker_2, # of connection points: 2
#     Edge 74, Type (0, 0), BuildingBlock: XUDNAN_clean_linker_2, # of connection points: 2
#     Edge 75, Type (0, 0), BuildingBlock: XUDNAN_clean_linker_2, # of connection points: 2
#     Edge 76, Type (0, 0), BuildingBlock: XUDNAN_clean_linker_2, # of connection points: 2
#     Edge 77, Type (0, 0), BuildingBlock: XUDNAN_clean_linker_2, # of connection points: 2
#     Edge 78, Type (0, 0), BuildingBlock: XUDNAN_clean_linker_2, # of connection points: 2
#     Edge 79, Type (0, 0), BuildingBlock: XUDNAN_clean_linker_2, # of connection points: 2
#     Edge 80, Type (0, 0), BuildingBlock: XUDNAN_clean_linker_2, # of connection points: 2
#     Edge 81, Type (0, 0), BuildingBlock: XUDNAN_clean_linker_2, # of connection points: 2
#     Edge 82, Type (0, 0), BuildingBlock: XUDNAN_clean_linker_2, # of connection points: 2
#     Edge 83, Type (0, 0), BuildingBlock: XUDNAN_clean_linker_2, # of connection points: 2
#     Edge 84, Type (0, 0), BuildingBlock: XUDNAN_clean_linker_2, # of connection points: 2
#     Edge 85, Type (0, 0), BuildingBlock: XUDNAN_clean_linker_2, # of connection points: 2
#     Edge 86, Type (0, 0), BuildingBlock: XUDNAN_clean_linker_2, # of connection points: 2
#     Edge 87, Type (0, 0), BuildingBlock: XUDNAN_clean_linker_2, # of connection points: 2
#     Edge 88, Type (0, 0), BuildingBlock: XUDNAN_clean_linker_2, # of connection points: 2
#     Edge 89, Type (0, 0), BuildingBlock: XUDNAN_clean_linker_2, # of connection points: 2
#     Edge 90, Type (0, 0), BuildingBlock: XUDNAN_clean_linker_2, # of connection points: 2
#     Edge 91, Type (0, 0), BuildingBlock: XUDNAN_clean_linker_2, # of connection points: 2
#     Edge 92, Type (0, 0), BuildingBlock: XUDNAN_clean_linker_2, # of connection points: 2
#     Edge 93, Type (0, 0), BuildingBlock: XUDNAN_clean_linker_2, # of connection points: 2
#     Edge 94, Type (0, 0), BuildingBlock: XUDNAN_clean_linker_2, # of connection points: 2
#     Edge 95, Type (0, 0), BuildingBlock: XUDNAN_clean_linker_2, # of connection points: 2
# Relax obj value: 0.062
# Max RMSD: 0.083
# Mean RMSD: 0.083
data_MOF--net-umq--node1-TATPOV_clean_sbu_0--edge1-XUDNAN_clean_linker_2
_symmetry_space_group_name_H-M    P1
_symmetry_Int_Tables_number       1
_symmetry_cell_setting            triclinic
loop_
_symmetry_equiv_pos_as_xyz
'x, y, z'
_cell_length_a     66.301033
_cell_length_b     66.243501
_cell_length_c     44.517648
_cell_angle_alpha  90.008748
_cell_angle_beta   89.994852
_cell_angle_gamma 89.983014
loop_
_atom_site_label
_atom_site_type_symbol
_atom_site_fract_x
_atom_site_fract_y
_atom_site_fract_z
_atom_type_partial_charge
Zn0 Zn 0.22958 0.12061 0.13614 0.0
Zn1 Zn 0.2456 0.09091 0.16753 0.0
O2 O 0.23939 0.07785 0.12619 0.0
O3 O 0.22279 0.10184 0.10257 0.0
O4 O 0.25486 0.06669 0.19133 0.0
O5 O 0.2087 0.12656 0.16706 0.0
O6 O 0.22129 0.10122 0.1929 0.0
C7 C 0.22959 0.08401 0.10336 0.0
C8 C 0.27139 0.12756 0.15243 0.0
O9 O 0.26966 0.11077 0.16622 0.0
O10 O 0.25663 0.13454 0.13762 0.0
C11 C 0.27043 0.06541 0.20789 0.0
O12 O 0.28242 0.08109 0.21063 0.0
C13 C 0.20834 0.11537 0.19005 0.0
Zn14 Zn 0.87698 0.22308 0.12983 0.0
Zn15 Zn 0.90805 0.23829 0.15892 0.0
O16 O 0.91878 0.23265 0.11617 0.0
O17 O 0.89381 0.21676 0.09388 0.0
O18 O 0.93389 0.247 0.17857 0.0
O19 O 0.87269 0.20162 0.16044 0.0
O20 O 0.89907 0.21361 0.18452 0.0
C21 C 0.91168 0.22341 0.09346 0.0
C22 C 0.87133 0.26476 0.14892 0.0
O23 O 0.88865 0.26267 0.16101 0.0
O24 O 0.86361 0.25031 0.13421 0.0
C25 C 0.93721 0.24812 0.20662 0.0
O26 O 0.92241 0.24465 0.22555 0.0
C27 C 0.88484 0.20071 0.18228 0.0
Zn28 Zn 0.76224 0.85708 0.16638 0.0
Zn29 Zn 0.75605 0.89363 0.17914 0.0
O30 O 0.7516 0.89424 0.13323 0.0
O31 O 0.74839 0.86146 0.12677 0.0
O32 O 0.74998 0.92208 0.1926 0.0
O33 O 0.79222 0.85981 0.16944 0.0
O34 O 0.78555 0.8881 0.19326 0.0
C35 C 0.74694 0.87925 0.1167 0.0
C36 C 0.73254 0.85935 0.20961 0.0
O37 O 0.73346 0.87757 0.20059 0.0
O38 O 0.74585 0.84684 0.20138 0.0
C39 C 0.76294 0.93609 0.19544 0.0
O40 O 0.7819 0.93244 0.18885 0.0
C41 C 0.79813 0.87458 0.18508 0.0
Zn42 Zn 0.12617 0.77367 0.11899 0.0
Zn43 Zn 0.09871 0.76406 0.15976 0.0
O44 O 0.08236 0.76525 0.12012 0.0
O45 O 0.1057 0.77197 0.08629 0.0
O46 O 0.07666 0.75854 0.18986 0.0
O47 O 0.13201 0.80014 0.13893 0.0
O48 O 0.1114 0.79082 0.17514 0.0
C49 C 0.08755 0.76829 0.09296 0.0
C50 C 0.13466 0.73601 0.1492 0.0
O51 O 0.11796 0.7395 0.16244 0.0
O52 O 0.14157 0.74862 0.13044 0.0
C53 C 0.07003 0.74088 0.19509 0.0
O54 O 0.07835 0.72538 0.18147 0.0
C55 C 0.12389 0.80348 0.16415 0.0
Zn56 Zn 0.22344 0.87315 0.36114 0.0
Zn57 Zn 0.24028 0.90196 0.32776 0.0
O58 O 0.23452 0.91587 0.36855 0.0
O59 O 0.21877 0.89254 0.39493 0.0
O60 O 0.25098 0.9253 0.30353 0.0
O61 O 0.20171 0.86871 0.33057 0.0
O62 O 0.2155 0.89258 0.30302 0.0
C63 C 0.22553 0.91029 0.39241 0.0
C64 C 0.26443 0.86402 0.34225 0.0
O65 O 0.2633 0.88093 0.32866 0.0
O66 O 0.24968 0.8578 0.35783 0.0
C67 C 0.26658 0.93494 0.31187 0.0
O68 O 0.27651 0.92872 0.33567 0.0
C69 C 0.20179 0.87931 0.30693 0.0
Zn70 Zn 0.12881 0.21707 0.38235 0.0
Zn71 Zn 0.10202 0.22731 0.33983 0.0
O72 O 0.08504 0.22379 0.37852 0.0
O73 O 0.10724 0.21625 0.41361 0.0
O74 O 0.08078 0.23424 0.30885 0.0
O75 O 0.13578 0.19181 0.35978 0.0
O76 O 0.11554 0.20137 0.32317 0.0
C77 C 0.08925 0.21956 0.40567 0.0
C78 C 0.13704 0.25571 0.35447 0.0
O79 O 0.12099 0.25198 0.33972 0.0
O80 O 0.14348 0.24312 0.37363 0.0
C81 C 0.06488 0.24374 0.31643 0.0
O82 O 0.06269 0.24968 0.34439 0.0
C83 C 0.12826 0.18886 0.33404 0.0
Zn84 Zn 0.78484 0.12264 0.37207 0.0
Zn85 Zn 0.77342 0.09618 0.33142 0.0
O86 O 0.77346 0.07983 0.37128 0.0
O87 O 0.78555 0.10165 0.40394 0.0
O88 O 0.76775 0.07422 0.30128 0.0
O89 O 0.81041 0.12943 0.35102 0.0
O90 O 0.80058 0.10816 0.31596 0.0
C91 C 0.77927 0.08412 0.3978 0.0
C92 C 0.74649 0.13231 0.34337 0.0
O93 O 0.74962 0.11619 0.32841 0.0
O94 O 0.75914 0.13793 0.36302 0.0
C95 C 0.75045 0.06617 0.29861 0.0
O96 O 0.73541 0.07313 0.3148 0.0
C97 C 0.81342 0.12082 0.32611 0.0
Zn98 Zn 0.88312 0.79132 0.36528 0.0
Zn99 Zn 0.91369 0.77666 0.33446 0.0
O100 O 0.92557 0.78097 0.37715 0.0
O101 O 0.90047 0.79548 0.40125 0.0
O102 O 0.93812 0.7675 0.3112 0.0
O103 O 0.87904 0.81418 0.33693 0.0
O104 O 0.90419 0.80192 0.31036 0.0
C105 C 0.91844 0.78911 0.40082 0.0
C106 C 0.87613 0.75075 0.34335 0.0
O107 O 0.89366 0.75283 0.33201 0.0
O108 O 0.86848 0.76492 0.35873 0.0
C109 C 0.94492 0.74958 0.31268 0.0
O110 O 0.93546 0.73623 0.32934 0.0
C111 C 0.89042 0.81516 0.3142 0.0
Zn112 Zn 0.7573 0.85335 0.85019 0.0
Zn113 Zn 0.75331 0.89164 0.83854 0.0
O114 O 0.74899 0.89173 0.88436 0.0
O115 O 0.74653 0.85892 0.89172 0.0
O116 O 0.75067 0.92078 0.82628 0.0
O117 O 0.78694 0.85352 0.84147 0.0
O118 O 0.78203 0.8841 0.82381 0.0
C119 C 0.74524 0.87681 0.90151 0.0
C120 C 0.72661 0.86016 0.80759 0.0
O121 O 0.72961 0.87833 0.81575 0.0
O122 O 0.73788 0.84616 0.81714 0.0
C123 C 0.74964 0.92449 0.79831 0.0
O124 O 0.75067 0.90939 0.77922 0.0
C125 C 0.79354 0.86888 0.82776 0.0
Zn126 Zn 0.12367 0.77399 0.86585 0.0
Zn127 Zn 0.09598 0.76313 0.82648 0.0
O128 O 0.08051 0.76404 0.86695 0.0
O129 O 0.10428 0.77129 0.89982 0.0
O130 O 0.07324 0.75642 0.79809 0.0
O131 O 0.12757 0.80078 0.84585 0.0
O132 O 0.10703 0.7904 0.81019 0.0
C133 C 0.08611 0.76715 0.8939 0.0
C134 C 0.13354 0.73693 0.83504 0.0
O135 O 0.11631 0.73943 0.82281 0.0
O136 O 0.14018 0.74994 0.8534 0.0
C137 C 0.06692 0.7385 0.79406 0.0
O138 O 0.07626 0.72346 0.80735 0.0
C139 C 0.11896 0.80371 0.82089 0.0
Zn140 Zn 0.22247 0.12921 0.87422 0.0
Zn141 Zn 0.23275 0.10128 0.83497 0.0
O142 O 0.23042 0.08555 0.87531 0.0
O143 O 0.21987 0.10891 0.90681 0.0
O144 O 0.23818 0.07855 0.80589 0.0
O145 O 0.19764 0.13671 0.85183 0.0
O146 O 0.20633 0.11404 0.81801 0.0
C147 C 0.22458 0.09078 0.90144 0.0
C148 C 0.26154 0.1363 0.84683 0.0
O149 O 0.25763 0.12014 0.83234 0.0
O150 O 0.24901 0.14298 0.8659 0.0
C151 C 0.25296 0.0666 0.80981 0.0
O152 O 0.26551 0.07 0.83209 0.0
C153 C 0.19417 0.12759 0.82744 0.0
Zn154 Zn 0.86369 0.2227 0.86306 0.0
Zn155 Zn 0.89201 0.23459 0.82516 0.0
O156 O 0.90743 0.23118 0.8653 0.0
O157 O 0.88382 0.21997 0.89585 0.0
O158 O 0.91485 0.2418 0.79743 0.0
O159 O 0.85782 0.1981 0.83904 0.0
O160 O 0.8807 0.20814 0.8064 0.0
C161 C 0.90199 0.22473 0.89099 0.0
C162 C 0.85603 0.2622 0.83784 0.0
O163 O 0.87255 0.25903 0.8239 0.0
O164 O 0.84919 0.24897 0.85569 0.0
C165 C 0.92611 0.25685 0.80311 0.0
O166 O 0.92169 0.26853 0.82605 0.0
C167 C 0.86756 0.19531 0.815 0.0
Zn168 Zn 0.76741 0.12051 0.62781 0.0
Zn169 Zn 0.75329 0.09122 0.66329 0.0
O170 O 0.75637 0.0771 0.62188 0.0
O171 O 0.76959 0.10107 0.59376 0.0
O172 O 0.746 0.06869 0.6921 0.0
O173 O 0.79158 0.1255 0.65317 0.0
O174 O 0.77968 0.10179 0.68286 0.0
C175 C 0.76358 0.08308 0.59692 0.0
C176 C 0.72812 0.12913 0.65405 0.0
O177 O 0.72977 0.1117 0.66599 0.0
O178 O 0.74188 0.13576 0.63694 0.0
C179 C 0.74191 0.05074 0.68399 0.0
O180 O 0.74091 0.04643 0.65524 0.0
C181 C 0.79308 0.11501 0.67676 0.0
Zn182 Zn 0.87544 0.78791 0.64021 0.0
Zn183 Zn 0.9042 0.77058 0.67212 0.0
O184 O 0.91739 0.77574 0.63046 0.0
O185 O 0.89353 0.7912 0.60492 0.0
O186 O 0.92809 0.76027 0.69546 0.0
O187 O 0.87311 0.81102 0.66871 0.0
O188 O 0.89537 0.79554 0.69734 0.0
C189 C 0.9113 0.78437 0.60654 0.0
C190 C 0.86545 0.74726 0.66058 0.0
O191 O 0.88302 0.74768 0.67227 0.0
O192 O 0.85899 0.76243 0.64611 0.0
C193 C 0.93541 0.74264 0.69264 0.0
O194 O 0.92642 0.72959 0.67491 0.0
C195 C 0.88341 0.81029 0.69257 0.0
Zn196 Zn 0.21627 0.87687 0.62594 0.0
Zn197 Zn 0.23252 0.9057 0.66001 0.0
O198 O 0.22808 0.91973 0.61895 0.0
O199 O 0.21226 0.89655 0.59234 0.0
O200 O 0.24332 0.92835 0.68578 0.0
O201 O 0.19406 0.87215 0.6555 0.0
O202 O 0.20718 0.89616 0.68351 0.0
C203 C 0.21934 0.91418 0.59486 0.0
C204 C 0.25691 0.86774 0.64585 0.0
O205 O 0.25542 0.88463 0.65941 0.0
O206 O 0.24244 0.86137 0.62984 0.0
C207 C 0.23315 0.94456 0.68804 0.0
O208 O 0.21589 0.94599 0.67367 0.0
C209 C 0.19365 0.88277 0.6791 0.0
Zn210 Zn 0.12023 0.2253 0.63104 0.0
Zn211 Zn 0.09179 0.24166 0.66582 0.0
O212 O 0.07697 0.2358 0.62595 0.0
O213 O 0.09981 0.21985 0.5989 0.0
O214 O 0.06914 0.25222 0.69162 0.0
O215 O 0.1261 0.2039 0.66148 0.0
O216 O 0.10225 0.21697 0.68984 0.0
C217 C 0.08206 0.22646 0.60216 0.0
C218 C 0.12868 0.26666 0.64871 0.0
O219 O 0.11221 0.26509 0.66332 0.0
O220 O 0.13494 0.25201 0.63294 0.0
C221 C 0.05334 0.24141 0.69322 0.0
O222 O 0.05291 0.22409 0.67884 0.0
C223 C 0.11585 0.20365 0.68543 0.0
Zn224 Zn 0.71772 0.63886 0.62563 0.0
Zn225 Zn 0.73086 0.60869 0.65947 0.0
O226 O 0.7291 0.59602 0.61691 0.0
O227 O 0.7171 0.62101 0.58962 0.0
O228 O 0.73799 0.58456 0.68487 0.0
O229 O 0.69227 0.64172 0.64915 0.0
O230 O 0.70386 0.61791 0.67907 0.0
C231 C 0.72298 0.60291 0.5918 0.0
C232 C 0.75671 0.64653 0.65352 0.0
O233 O 0.75447 0.62883 0.66432 0.0
O234 O 0.74312 0.65406 0.63691 0.0
C235 C 0.75122 0.57171 0.677 0.0
O236 O 0.7617 0.57487 0.6524 0.0
C237 C 0.69019 0.63062 0.67201 0.0
Zn238 Zn 0.36716 0.71999 0.62426 0.0
Zn239 Zn 0.39623 0.73462 0.6597 0.0
O240 O 0.41118 0.73049 0.61955 0.0
O241 O 0.38793 0.71547 0.59217 0.0
O242 O 0.41878 0.7436 0.68692 0.0
O243 O 0.36119 0.69745 0.65279 0.0
O244 O 0.38612 0.70867 0.68083 0.0
C245 C 0.40578 0.72187 0.5953 0.0
C246 C 0.35921 0.76055 0.6452 0.0
O247 O 0.37574 0.75807 0.65935 0.0
O248 O 0.35259 0.74669 0.62823 0.0
C249 C 0.42245 0.76175 0.69443 0.0
O250 O 0.4107 0.77629 0.68462 0.0
C251 C 0.37222 0.69578 0.67584 0.0
Zn252 Zn 0.27789 0.3731 0.62422 0.0
Zn253 Zn 0.26399 0.40393 0.65577 0.0
O254 O 0.26974 0.41654 0.61406 0.0
O255 O 0.28423 0.39141 0.58993 0.0
O256 O 0.25531 0.42828 0.67975 0.0
O257 O 0.29946 0.36712 0.65406 0.0
O258 O 0.28874 0.39337 0.67981 0.0
C259 C 0.27854 0.40962 0.59079 0.0
C260 C 0.23665 0.36767 0.64349 0.0
O261 O 0.23948 0.38463 0.6564 0.0
O262 O 0.25061 0.35987 0.62788 0.0
C263 C 0.2375 0.43538 0.67911 0.0
O264 O 0.2237 0.42626 0.66287 0.0
C265 C 0.30105 0.3787 0.6765 0.0
Zn266 Zn 0.63019 0.28284 0.64314 0.0
Zn267 Zn 0.59723 0.27014 0.66888 0.0
O268 O 0.58817 0.27538 0.62491 0.0
O269 O 0.61593 0.28742 0.60456 0.0
O270 O 0.57106 0.262 0.68864 0.0
O271 O 0.63349 0.30598 0.67071 0.0
O272 O 0.60601 0.29555 0.69363 0.0
C273 C 0.59751 0.2827 0.60239 0.0
C274 C 0.63411 0.24238 0.66542 0.0
O275 O 0.61586 0.24508 0.67358 0.0
O276 O 0.64351 0.25638 0.65206 0.0
C277 C 0.56327 0.24467 0.68467 0.0
O278 O 0.57276 0.2314 0.66789 0.0
C279 C 0.62053 0.30813 0.69127 0.0
Zn280 Zn 0.7223 0.38744 0.87349 0.0
Zn281 Zn 0.73499 0.41247 0.83127 0.0
O282 O 0.73564 0.42993 0.87005 0.0
O283 O 0.72316 0.4093 0.90408 0.0
O284 O 0.74328 0.43279 0.79988 0.0
O285 O 0.69627 0.38235 0.85263 0.0
O286 O 0.70694 0.40228 0.81636 0.0
C287 C 0.72987 0.42647 0.89683 0.0
C288 C 0.75936 0.37446 0.84482 0.0
O289 O 0.75713 0.39059 0.82955 0.0
O290 O 0.74663 0.36993 0.86496 0.0
C291 C 0.73389 0.44952 0.79916 0.0
O292 O 0.71892 0.45247 0.818 0.0
C293 C 0.69345 0.39069 0.82745 0.0
Zn294 Zn 0.6236 0.73945 0.84081 0.0
Zn295 Zn 0.58763 0.7451 0.81818 0.0
O296 O 0.58224 0.74677 0.86396 0.0
O297 O 0.6132 0.74586 0.8818 0.0
O298 O 0.56 0.74895 0.80048 0.0
O299 O 0.62496 0.71105 0.82558 0.0
O300 O 0.5968 0.7174 0.80128 0.0
C301 C 0.59443 0.74779 0.88602 0.0
C302 C 0.62246 0.77295 0.80083 0.0
O303 O 0.60361 0.76925 0.8007 0.0
O304 O 0.63452 0.76182 0.81529 0.0
C305 C 0.5512 0.76591 0.80314 0.0
O306 O 0.56037 0.78055 0.81764 0.0
C307 C 0.6116 0.70567 0.80695 0.0
Zn308 Zn 0.27324 0.61855 0.86315 0.0
Zn309 Zn 0.25977 0.59102 0.82558 0.0
O310 O 0.2615 0.57585 0.86645 0.0
O311 O 0.27395 0.59896 0.8968 0.0
O312 O 0.2521 0.56834 0.79761 0.0
O313 O 0.29853 0.62295 0.84021 0.0
O314 O 0.28666 0.60145 0.80685 0.0
C315 C 0.26786 0.58114 0.89229 0.0
C316 C 0.2348 0.62895 0.83605 0.0
O317 O 0.23662 0.61192 0.82297 0.0
O318 O 0.24835 0.63494 0.85404 0.0
C319 C 0.23412 0.56232 0.79333 0.0
O320 O 0.21917 0.57176 0.80669 0.0
C321 C 0.30038 0.61364 0.81559 0.0
Zn322 Zn 0.37985 0.27667 0.86642 0.0
Zn323 Zn 0.40537 0.26404 0.825 0.0
O324 O 0.42275 0.26595 0.86375 0.0
O325 O 0.40168 0.27879 0.89685 0.0
O326 O 0.4269 0.25712 0.79468 0.0
O327 O 0.37262 0.3014 0.84351 0.0
O328 O 0.39324 0.29077 0.80806 0.0
C329 C 0.41914 0.27271 0.88998 0.0
C330 C 0.36947 0.23752 0.84118 0.0
O331 O 0.38509 0.24028 0.82496 0.0
O332 O 0.36443 0.25067 0.86045 0.0
C333 C 0.43264 0.23927 0.78853 0.0
O334 O 0.42333 0.22389 0.80096 0.0
C335 C 0.38075 0.30383 0.81809 0.0
Zn336 Zn 0.2823 0.36869 0.35572 0.0
Zn337 Zn 0.26584 0.39751 0.32285 0.0
O338 O 0.2718 0.41161 0.36338 0.0
O339 O 0.28847 0.38837 0.38846 0.0
O340 O 0.25515 0.42068 0.29827 0.0
O341 O 0.3033 0.36283 0.32488 0.0
O342 O 0.29044 0.38751 0.29792 0.0
C343 C 0.28151 0.4061 0.38666 0.0
C344 C 0.24084 0.36053 0.33942 0.0
O345 O 0.2424 0.37707 0.32495 0.0
O346 O 0.25559 0.35407 0.35474 0.0
C347 C 0.23774 0.42818 0.30266 0.0
O348 O 0.22588 0.42003 0.32294 0.0
C349 C 0.3036 0.37363 0.30148 0.0
Zn350 Zn 0.63933 0.28118 0.3554 0.0
Zn351 Zn 0.60786 0.26625 0.32723 0.0
O352 O 0.59778 0.27277 0.37021 0.0
O353 O 0.62346 0.28773 0.39209 0.0
O354 O 0.58162 0.25734 0.30873 0.0
O355 O 0.64329 0.3025 0.32451 0.0
O356 O 0.61682 0.29051 0.30061 0.0
C357 C 0.60538 0.2817 0.39287 0.0
C358 C 0.64458 0.2395 0.33666 0.0
O359 O 0.62709 0.24162 0.32509 0.0
O360 O 0.65258 0.25399 0.35091 0.0
C361 C 0.57804 0.25406 0.28113 0.0
O362 O 0.59276 0.25557 0.2615 0.0
C363 C 0.63114 0.30333 0.30265 0.0
Zn364 Zn 0.73187 0.63555 0.34961 0.0
Zn365 Zn 0.74977 0.60552 0.32138 0.0
O366 O 0.74333 0.59351 0.36341 0.0
O367 O 0.7265 0.61814 0.38516 0.0
O368 O 0.7615 0.58153 0.29973 0.0
O369 O 0.71047 0.638 0.31848 0.0
O370 O 0.72542 0.61327 0.29411 0.0
C371 C 0.7335 0.60039 0.38577 0.0
C372 C 0.77319 0.64439 0.33318 0.0
O373 O 0.77266 0.62669 0.32191 0.0
O374 O 0.75776 0.65146 0.3463 0.0
C375 C 0.75059 0.56579 0.29813 0.0
O376 O 0.73258 0.56607 0.31044 0.0
C377 C 0.71123 0.62623 0.29615 0.0
Zn378 Zn 0.36791 0.71278 0.37087 0.0
Zn379 Zn 0.39552 0.72269 0.33069 0.0
O380 O 0.41205 0.7204 0.37013 0.0
O381 O 0.38905 0.70999 0.40229 0.0
O382 O 0.41735 0.72707 0.29993 0.0
O383 O 0.3595 0.68799 0.34901 0.0
O384 O 0.382 0.69638 0.31485 0.0
C385 C 0.40713 0.71456 0.39637 0.0
C386 C 0.36145 0.75223 0.34389 0.0
O387 O 0.37735 0.74805 0.32896 0.0
O388 O 0.35465 0.73969 0.36285 0.0
C389 C 0.43195 0.73918 0.30416 0.0
O390 O 0.43223 0.75032 0.32857 0.0
C391 C 0.36839 0.68438 0.32449 0.0
Zn392 Zn 0.27161 0.61378 0.12802 0.0
Zn393 Zn 0.25467 0.5852 0.1607 0.0
O394 O 0.25818 0.57197 0.11883 0.0
O395 O 0.27533 0.59481 0.09362 0.0
O396 O 0.2457 0.56139 0.18541 0.0
O397 O 0.29427 0.61811 0.15667 0.0
O398 O 0.28029 0.59424 0.18392 0.0
C399 C 0.26734 0.57751 0.09508 0.0
C400 C 0.2311 0.62359 0.14937 0.0
O401 O 0.23191 0.60643 0.16232 0.0
O402 O 0.24574 0.62954 0.13332 0.0
C403 C 0.22809 0.55699 0.19456 0.0
O404 O 0.21296 0.56913 0.18846 0.0
C405 C 0.29426 0.60723 0.17998 0.0
Zn406 Zn 0.38294 0.27115 0.1113 0.0
Zn407 Zn 0.41039 0.26081 0.15197 0.0
O408 O 0.42661 0.26387 0.11222 0.0
O409 O 0.40377 0.27375 0.07945 0.0
O410 O 0.43234 0.25494 0.18245 0.0
O411 O 0.37515 0.29588 0.13389 0.0
O412 O 0.3969 0.28692 0.16886 0.0
C413 C 0.42184 0.26946 0.0858 0.0
C414 C 0.37561 0.23201 0.13849 0.0
O415 O 0.39163 0.23589 0.15328 0.0
O416 O 0.36908 0.24458 0.11935 0.0
C417 C 0.44889 0.24659 0.17496 0.0
O418 O 0.45146 0.24062 0.14709 0.0
C419 C 0.38354 0.29912 0.15892 0.0
Zn420 Zn 0.73224 0.38334 0.113 0.0
Zn421 Zn 0.74343 0.40877 0.1558 0.0
O422 O 0.7422 0.42664 0.11762 0.0
O423 O 0.73126 0.40561 0.08294 0.0
O424 O 0.74987 0.42978 0.18699 0.0
O425 O 0.70687 0.376 0.13448 0.0
O426 O 0.71653 0.3962 0.17105 0.0
C427 C 0.73664 0.42313 0.09077 0.0
C428 C 0.77059 0.37311 0.14088 0.0
O429 O 0.76734 0.38883 0.1567 0.0
O430 O 0.758 0.36788 0.12092 0.0
C431 C 0.76602 0.44001 0.18486 0.0
O432 O 0.77896 0.43557 0.1635 0.0
C433 C 0.70381 0.38374 0.16003 0.0
Zn434 Zn 0.63468 0.74221 0.13915 0.0
Zn435 Zn 0.5997 0.739 0.16708 0.0
O436 O 0.59218 0.74435 0.12239 0.0
O437 O 0.6215 0.75003 0.10086 0.0
O438 O 0.57206 0.73546 0.1856 0.0
O439 O 0.64122 0.71313 0.14758 0.0
O440 O 0.61405 0.71186 0.17599 0.0
C441 C 0.60248 0.74912 0.09928 0.0
C442 C 0.63053 0.77046 0.18747 0.0
O443 O 0.61293 0.76291 0.18983 0.0
O444 O 0.64284 0.76388 0.16809 0.0
C445 C 0.564 0.74715 0.20483 0.0
O446 O 0.57419 0.76274 0.21492 0.0
C447 C 0.63002 0.70362 0.16571 0.0
H448 H 0.34094 0.2205 0.11058 0.0
H449 H 0.38354 0.20124 0.17884 0.0
H450 H 0.36247 0.17099 0.18866 0.0
H451 H 0.297 0.20675 0.14947 0.0
H452 H 0.28363 0.19883 0.11624 0.0
H453 H 0.30284 0.21791 0.11357 0.0
H454 H 0.32163 0.19661 0.07345 0.0
H455 H 0.30244 0.17746 0.07596 0.0
H456 H 0.32852 0.1709 0.08187 0.0
H457 H 0.3352 0.14325 0.19194 0.0
H458 H 0.30466 0.12168 0.1889 0.0
H459 H 0.28088 0.16048 0.11878 0.0
C460 C 0.34605 0.20988 0.12744 0.0
C461 C 0.36395 0.21325 0.1439 0.0
C462 C 0.36991 0.19896 0.16587 0.0
C463 C 0.35805 0.18174 0.17158 0.0
C464 C 0.34034 0.17905 0.15506 0.0
C465 C 0.33447 0.1928 0.13341 0.0
C466 C 0.31451 0.18716 0.11942 0.0
C467 C 0.29856 0.20364 0.12503 0.0
C468 C 0.31693 0.18277 0.08568 0.0
C469 C 0.30982 0.16818 0.13679 0.0
C470 C 0.32487 0.16354 0.15712 0.0
C471 C 0.3234 0.14675 0.17597 0.0
C472 C 0.30602 0.13457 0.17408 0.0
C473 C 0.29034 0.1394 0.15366 0.0
C474 C 0.29252 0.15634 0.13471 0.0
H475 H 0.83727 0.27502 0.11851 0.0
H476 H 0.87921 0.2977 0.18532 0.0
H477 H 0.8586 0.32884 0.19014 0.0
H478 H 0.82736 0.32256 0.08224 0.0
H479 H 0.80122 0.31658 0.0756 0.0
H480 H 0.81969 0.29667 0.07726 0.0
H481 H 0.799 0.27895 0.1191 0.0
H482 H 0.7805 0.29879 0.11759 0.0
H483 H 0.7926 0.29273 0.1527 0.0
H484 H 0.8318 0.35715 0.18852 0.0
H485 H 0.80243 0.37963 0.17985 0.0
H486 H 0.77947 0.33742 0.11358 0.0
C487 C 0.84226 0.2865 0.13415 0.0
C488 C 0.85984 0.28388 0.15162 0.0
C489 C 0.8658 0.2994 0.17167 0.0
C490 C 0.85418 0.31711 0.17456 0.0
C491 C 0.83679 0.31906 0.15708 0.0
C492 C 0.831 0.30414 0.13716 0.0
C493 C 0.81169 0.3095 0.12107 0.0
C494 C 0.81521 0.31145 0.08703 0.0
C495 C 0.79497 0.29408 0.12805 0.0
C496 C 0.80728 0.32973 0.13518 0.0
C497 C 0.82183 0.33512 0.1559 0.0
C498 C 0.82042 0.35308 0.17219 0.0
C499 C 0.80368 0.36574 0.16715 0.0
C500 C 0.78865 0.36035 0.14596 0.0
C501 C 0.79069 0.34213 0.1298 0.0
H502 H 0.63189 0.81015 0.1748 0.0
H503 H 0.64727 0.766 0.24237 0.0
H504 H 0.67063 0.79028 0.26596 0.0
H505 H 0.67634 0.82474 0.15922 0.0
H506 H 0.6723 0.85142 0.1539 0.0
H507 H 0.65172 0.83426 0.14932 0.0
H508 H 0.63091 0.85371 0.1891 0.0
H509 H 0.65147 0.87129 0.19359 0.0
H510 H 0.64143 0.85824 0.22582 0.0
H511 H 0.69967 0.81301 0.27002 0.0
H512 H 0.72946 0.83369 0.25727 0.0
H513 H 0.69463 0.86542 0.19013 0.0
C514 C 0.63916 0.80628 0.19581 0.0
C515 C 0.63749 0.78659 0.20743 0.0
C516 C 0.64794 0.78131 0.23388 0.0
C517 C 0.66129 0.79502 0.24731 0.0
C518 C 0.66373 0.81401 0.23418 0.0
C519 C 0.65245 0.81992 0.20948 0.0
C520 C 0.66031 0.83953 0.19642 0.0
C521 C 0.66549 0.83732 0.16277 0.0
C522 C 0.64512 0.85671 0.20156 0.0
C523 C 0.67902 0.84253 0.21541 0.0
C524 C 0.68048 0.82794 0.2376 0.0
C525 C 0.69829 0.8251 0.25381 0.0
C526 C 0.71517 0.83687 0.24644 0.0
C527 C 0.714 0.8515 0.22344 0.0
C528 C 0.69549 0.85497 0.20879 0.0
H529 H 0.22576 0.66057 0.12402 0.0
H530 H 0.1969 0.61776 0.18401 0.0
H531 H 0.16863 0.64185 0.19135 0.0
H532 H 0.21317 0.70487 0.16477 0.0
H533 H 0.20941 0.71988 0.13148 0.0
H534 H 0.2268 0.69902 0.13082 0.0
H535 H 0.20768 0.68346 0.08556 0.0
H536 H 0.19028 0.70433 0.08598 0.0
H537 H 0.18096 0.67883 0.08853 0.0
H538 H 0.14351 0.67177 0.19206 0.0
H539 H 0.12427 0.70359 0.18524 0.0
H540 H 0.17091 0.72555 0.12513 0.0
C541 C 0.21351 0.65609 0.13866 0.0
C542 C 0.21357 0.63723 0.15343 0.0
C543 C 0.19717 0.63212 0.1724 0.0
C544 C 0.18108 0.64572 0.17673 0.0
C545 C 0.18167 0.6643 0.16193 0.0
C546 C 0.19752 0.66937 0.14323 0.0
C547 C 0.19494 0.69016 0.12992 0.0
C548 C 0.2121 0.70431 0.13986 0.0
C549 C 0.19336 0.68912 0.09546 0.0
C550 C 0.17513 0.69614 0.14398 0.0
C551 C 0.16759 0.68115 0.16241 0.0
C552 C 0.14933 0.68356 0.17765 0.0
C553 C 0.13852 0.70169 0.17369 0.0
C554 C 0.14605 0.7171 0.15466 0.0
C555 C 0.16465 0.71415 0.13985 0.0
H556 H 0.27221 0.82937 0.37301 0.0
H557 H 0.29736 0.86878 0.30474 0.0
H558 H 0.32603 0.84508 0.29829 0.0
H559 H 0.31961 0.81385 0.40626 0.0
H560 H 0.31078 0.78852 0.41302 0.0
H561 H 0.29319 0.80924 0.41298 0.0
H562 H 0.27189 0.79108 0.37226 0.0
H563 H 0.28945 0.77037 0.37205 0.0
H564 H 0.28373 0.78346 0.3376 0.0
H565 H 0.35125 0.81534 0.29802 0.0
H566 H 0.37041 0.78347 0.3048 0.0
H567 H 0.32767 0.76478 0.37323 0.0
C568 C 0.28379 0.83321 0.35683 0.0
C569 C 0.2825 0.85095 0.33935 0.0
C570 C 0.29805 0.8553 0.31847 0.0
C571 C 0.31436 0.84192 0.31463 0.0
C572 C 0.31493 0.82436 0.33198 0.0
C573 C 0.30004 0.82015 0.35279 0.0
C574 C 0.30359 0.80017 0.36823 0.0
C575 C 0.307 0.80313 0.40213 0.0
C576 C 0.28613 0.78541 0.36216 0.0
C577 C 0.32269 0.79355 0.35264 0.0
C578 C 0.32915 0.80763 0.33186 0.0
C579 C 0.34634 0.80431 0.31439 0.0
C580 C 0.35711 0.78616 0.31835 0.0
C581 C 0.35058 0.77159 0.33954 0.0
C582 C 0.33317 0.77554 0.35685 0.0
H583 H 0.23194 0.32732 0.37291 0.0
H584 H 0.20733 0.3662 0.30351 0.0
H585 H 0.17691 0.34447 0.30087 0.0
H586 H 0.21589 0.28119 0.34218 0.0
H587 H 0.2104 0.26981 0.37803 0.0
H588 H 0.22941 0.28909 0.37529 0.0
H589 H 0.21088 0.3102 0.41588 0.0
H590 H 0.1918 0.29094 0.4188 0.0
H591 H 0.18469 0.31662 0.41058 0.0
H592 H 0.14982 0.3168 0.3045 0.0
H593 H 0.12885 0.28656 0.3145 0.0
H594 H 0.17204 0.26702 0.38179 0.0
C595 C 0.22014 0.33143 0.35723 0.0
C596 C 0.22205 0.34845 0.33835 0.0
C597 C 0.20618 0.35324 0.31824 0.0
C598 C 0.18887 0.34099 0.31659 0.0
C599 C 0.18764 0.32415 0.33536 0.0
C600 C 0.20287 0.31951 0.3554 0.0
C601 C 0.19837 0.30043 0.37269 0.0
C602 C 0.21447 0.28418 0.36667 0.0
C603 C 0.19631 0.30482 0.40649 0.0
C604 C 0.17834 0.29478 0.35898 0.0
C605 C 0.17225 0.3086 0.33757 0.0
C606 C 0.15441 0.30599 0.32139 0.0
C607 C 0.1426 0.28877 0.32721 0.0
C608 C 0.14876 0.2744 0.34897 0.0
C609 C 0.1668 0.27769 0.36509 0.0
H610 H 0.73673 0.1674 0.37159 0.0
H611 H 0.71519 0.12594 0.30324 0.0
H612 H 0.68549 0.14806 0.29478 0.0
H613 H 0.68829 0.18053 0.40242 0.0
H614 H 0.69547 0.20641 0.4089 0.0
H615 H 0.71427 0.18679 0.40992 0.0
H616 H 0.73512 0.20573 0.36945 0.0
H617 H 0.71641 0.22539 0.36832 0.0
H618 H 0.72337 0.21238 0.3343 0.0
H619 H 0.65817 0.17609 0.29366 0.0
H620 H 0.63718 0.20697 0.29911 0.0
H621 H 0.67808 0.22883 0.3679 0.0
C622 C 0.72578 0.16279 0.3549 0.0
C623 C 0.72831 0.14489 0.3381 0.0
C624 C 0.71357 0.13959 0.31643 0.0
C625 C 0.69664 0.15204 0.31151 0.0
C626 C 0.69473 0.16968 0.32849 0.0
C627 C 0.70899 0.17494 0.34973 0.0
C628 C 0.70406 0.1948 0.36462 0.0
C629 C 0.7003 0.19195 0.39846 0.0
C630 C 0.72073 0.21049 0.3588 0.0
C631 C 0.68486 0.20013 0.34829 0.0
C632 C 0.6795 0.18551 0.32765 0.0
C633 C 0.66227 0.18758 0.30983 0.0
C634 C 0.65042 0.20513 0.31309 0.0
C635 C 0.65601 0.22037 0.33383 0.0
C636 C 0.67337 0.21758 0.3517 0.0
H637 H 0.77884 0.68173 0.35745 0.0
H638 H 0.80922 0.63577 0.30465 0.0
H639 H 0.8395 0.65766 0.30163 0.0
H640 H 0.79796 0.7243 0.31808 0.0
H641 H 0.80015 0.73961 0.35139 0.0
H642 H 0.78132 0.72009 0.34949 0.0
H643 H 0.79552 0.7041 0.3983 0.0
H644 H 0.8144 0.72358 0.40035 0.0
H645 H 0.82184 0.69741 0.40022 0.0
H646 H 0.86648 0.6856 0.30419 0.0
H647 H 0.88713 0.71634 0.31226 0.0
H648 H 0.83812 0.74286 0.36352 0.0
C649 C 0.79182 0.67615 0.34524 0.0
C650 C 0.79162 0.65701 0.33125 0.0
C651 C 0.80901 0.65038 0.31556 0.0
C652 C 0.82627 0.66271 0.31373 0.0
C653 C 0.82587 0.68156 0.32778 0.0
C654 C 0.80904 0.68815 0.34326 0.0
C655 C 0.81213 0.70895 0.35634 0.0
C656 C 0.797 0.72413 0.34302 0.0
C657 C 0.81091 0.70847 0.39084 0.0
C658 C 0.83334 0.71319 0.34575 0.0
C659 C 0.84112 0.69729 0.32932 0.0
C660 C 0.8605 0.6981 0.31709 0.0
C661 C 0.87212 0.71561 0.32177 0.0
C662 C 0.86429 0.73204 0.33854 0.0
C663 C 0.84465 0.73062 0.35064 0.0
H664 H 0.68816 0.8653 0.82537 0.0
H665 H 0.72494 0.8402 0.75449 0.0
H666 H 0.69543 0.82187 0.73463 0.0
H667 H 0.66801 0.82319 0.8449 0.0
H668 H 0.64298 0.83173 0.85443 0.0
H669 H 0.66362 0.8491 0.85554 0.0
H670 H 0.64492 0.87284 0.81865 0.0
H671 H 0.62401 0.85544 0.81753 0.0
H672 H 0.63608 0.8632 0.78314 0.0
H673 H 0.66669 0.79917 0.73188 0.0
H674 H 0.64238 0.77317 0.74799 0.0
H675 H 0.62356 0.81109 0.8218 0.0
C676 C 0.6895 0.85695 0.80454 0.0
C677 C 0.70846 0.85455 0.79076 0.0
C678 C 0.7103 0.84257 0.76471 0.0
C679 C 0.69358 0.83218 0.75329 0.0
C680 C 0.67521 0.83374 0.76846 0.0
C681 C 0.67301 0.84599 0.7935 0.0
C682 C 0.65346 0.84148 0.80987 0.0
C683 C 0.65727 0.83603 0.8431 0.0
C684 C 0.63874 0.8593 0.80712 0.0
C685 C 0.64605 0.82349 0.79198 0.0
C686 C 0.65831 0.81987 0.76735 0.0
C687 C 0.65652 0.80227 0.75032 0.0
C688 C 0.64265 0.78757 0.75953 0.0
C689 C 0.6308 0.7906 0.78546 0.0
C690 C 0.63188 0.80904 0.80109 0.0
H691 H 0.1715 0.72945 0.85525 0.0
H692 H 0.12369 0.70317 0.80136 0.0
H693 H 0.14458 0.67242 0.79408 0.0
H694 H 0.21332 0.70979 0.81257 0.0
H695 H 0.22855 0.70588 0.8456 0.0
H696 H 0.21003 0.72576 0.84499 0.0
H697 H 0.19354 0.71106 0.8931 0.0
H698 H 0.21194 0.6911 0.89379 0.0
H699 H 0.18543 0.68509 0.89343 0.0
H700 H 0.17124 0.64379 0.79463 0.0
H701 H 0.20044 0.62093 0.80273 0.0
H702 H 0.22936 0.66721 0.85665 0.0
C703 C 0.16534 0.71734 0.84172 0.0
C704 C 0.14592 0.71875 0.82888 0.0
C705 C 0.13857 0.70246 0.81135 0.0
C706 C 0.15031 0.68495 0.80714 0.0
C707 C 0.16936 0.68405 0.82051 0.0
C708 C 0.17675 0.69994 0.83735 0.0
C709 C 0.19735 0.69539 0.85006 0.0
C710 C 0.21325 0.71007 0.83755 0.0
C711 C 0.19703 0.69567 0.88464 0.0
C712 C 0.20044 0.67431 0.83811 0.0
C713 C 0.18428 0.66792 0.82097 0.0
C714 C 0.18397 0.64873 0.80796 0.0
C715 C 0.2006 0.63584 0.81268 0.0
C716 C 0.21719 0.64222 0.83039 0.0
C717 C 0.21695 0.66175 0.84306 0.0
H718 H 0.33659 0.22739 0.87453 0.0
H719 H 0.37311 0.2065 0.79981 0.0
H720 H 0.35027 0.17709 0.79367 0.0
H721 H 0.32495 0.1784 0.90549 0.0
H722 H 0.29974 0.18578 0.91593 0.0
H723 H 0.31957 0.20433 0.91481 0.0
H724 H 0.29836 0.2261 0.87809 0.0
H725 H 0.2785 0.20762 0.87905 0.0
H726 H 0.28934 0.21505 0.8436 0.0
H727 H 0.32182 0.15033 0.79521 0.0
H728 H 0.2912 0.1296 0.80415 0.0
H729 H 0.27457 0.16925 0.87773 0.0
C730 C 0.33998 0.21662 0.85693 0.0
C731 C 0.35668 0.21929 0.83764 0.0
C732 C 0.36043 0.20476 0.81491 0.0
C733 C 0.34754 0.18802 0.81127 0.0
C734 C 0.33106 0.18603 0.83062 0.0
C735 C 0.32739 0.19998 0.85304 0.0
C736 C 0.30853 0.195 0.87053 0.0
C737 C 0.31351 0.19061 0.90365 0.0
C738 C 0.29276 0.21194 0.86762 0.0
C739 C 0.30191 0.17613 0.85431 0.0
C740 C 0.31504 0.17101 0.83143 0.0
C741 C 0.31153 0.15422 0.81317 0.0
C742 C 0.29411 0.14252 0.81841 0.0
C743 C 0.28043 0.14778 0.84161 0.0
C744 C 0.28463 0.16474 0.85977 0.0
H745 H 0.8217 0.27339 0.86702 0.0
H746 H 0.86435 0.29416 0.7998 0.0
H747 H 0.84453 0.3257 0.79397 0.0
H748 H 0.77728 0.29248 0.8321 0.0
H749 H 0.76551 0.29915 0.86723 0.0
H750 H 0.78321 0.27857 0.86577 0.0
H751 H 0.80463 0.29559 0.90741 0.0
H752 H 0.78701 0.31624 0.90898 0.0
H753 H 0.81336 0.32113 0.90217 0.0
H754 H 0.81905 0.35513 0.79569 0.0
H755 H 0.79104 0.37916 0.80504 0.0
H756 H 0.76631 0.33809 0.87148 0.0
C757 C 0.82698 0.2845 0.851 0.0
C758 C 0.84459 0.28125 0.83382 0.0
C759 C 0.85089 0.2963 0.81321 0.0
C760 C 0.83973 0.31425 0.80976 0.0
C761 C 0.82238 0.31689 0.82714 0.0
C762 C 0.81614 0.30236 0.84737 0.0
C763 C 0.79709 0.30857 0.86352 0.0
C764 C 0.77975 0.29382 0.85673 0.0
C765 C 0.80076 0.3105 0.89753 0.0
C766 C 0.79346 0.32891 0.84925 0.0
C767 C 0.80811 0.33355 0.82829 0.0
C768 C 0.80755 0.35161 0.81213 0.0
C769 C 0.79159 0.36516 0.81758 0.0
C770 C 0.77648 0.36057 0.83905 0.0
C771 C 0.77761 0.34218 0.855 0.0
H772 H 0.6741 0.23516 0.65874 0.0
H773 H 0.61801 0.20553 0.68266 0.0
H774 H 0.63618 0.17278 0.6859 0.0
H775 H 0.69214 0.19813 0.61105 0.0
H776 H 0.71818 0.20117 0.62177 0.0
H777 H 0.70108 0.22213 0.62476 0.0
H778 H 0.70992 0.22603 0.68124 0.0
H779 H 0.72721 0.20513 0.67838 0.0
H780 H 0.70733 0.20465 0.70599 0.0
H781 H 0.66124 0.1426 0.68305 0.0
H782 H 0.68978 0.11899 0.67382 0.0
H783 H 0.72786 0.16984 0.65051 0.0
C784 C 0.66556 0.22189 0.66502 0.0
C785 C 0.64462 0.22291 0.67038 0.0
C786 C 0.63411 0.20511 0.67859 0.0
C787 C 0.64431 0.18646 0.68045 0.0
C788 C 0.66498 0.18599 0.67429 0.0
C789 C 0.67541 0.20338 0.66694 0.0
C790 C 0.69722 0.19912 0.65976 0.0
C791 C 0.70244 0.2055 0.62742 0.0
C792 C 0.71124 0.20934 0.68271 0.0
C793 C 0.69745 0.17649 0.66324 0.0
C794 C 0.67891 0.16905 0.6721 0.0
C795 C 0.67581 0.14836 0.67623 0.0
C796 C 0.69206 0.13506 0.67094 0.0
C797 C 0.71095 0.14258 0.66114 0.0
C798 C 0.71355 0.16356 0.65762 0.0
H799 H 0.76479 0.68482 0.63457 0.0
H800 H 0.79062 0.63538 0.68571 0.0
H801 H 0.82162 0.65563 0.69378 0.0
H802 H 0.80977 0.69962 0.59725 0.0
H803 H 0.80387 0.72616 0.59866 0.0
H804 H 0.78385 0.70783 0.59778 0.0
H805 H 0.7689 0.72292 0.64672 0.0
H806 H 0.78885 0.74134 0.64771 0.0
H807 H 0.78465 0.7251 0.67958 0.0
H808 H 0.85033 0.68194 0.69517 0.0
H809 H 0.87321 0.71139 0.69025 0.0
H810 H 0.8275 0.74255 0.63805 0.0
C811 C 0.77688 0.67817 0.64759 0.0
C812 C 0.77523 0.65847 0.65951 0.0
C813 C 0.7915 0.65045 0.67638 0.0
C814 C 0.80918 0.66184 0.68105 0.0
C815 C 0.81029 0.6812 0.66873 0.0
C816 C 0.79448 0.68924 0.65242 0.0
C817 C 0.79922 0.71023 0.64124 0.0
C818 C 0.79918 0.71099 0.60668 0.0
C819 C 0.78454 0.72581 0.65462 0.0
C820 C 0.82024 0.71285 0.65368 0.0
C821 C 0.82648 0.69603 0.66951 0.0
C822 C 0.84553 0.69518 0.68285 0.0
C823 C 0.85843 0.71196 0.67992 0.0
C824 C 0.85219 0.72933 0.66378 0.0
C825 C 0.83282 0.72959 0.65057 0.0
H826 H 0.2646 0.83177 0.61824 0.0
H827 H 0.29064 0.87488 0.68062 0.0
H828 H 0.32047 0.85267 0.68655 0.0
H829 H 0.28005 0.7876 0.65647 0.0
H830 H 0.28496 0.77354 0.62258 0.0
H831 H 0.26629 0.79327 0.62257 0.0
H832 H 0.28471 0.81088 0.57836 0.0
H833 H 0.30342 0.79118 0.57819 0.0
H834 H 0.31105 0.81717 0.582 0.0
H835 H 0.34712 0.82461 0.68654 0.0
H836 H 0.36785 0.79375 0.68037 0.0
H837 H 0.32353 0.76992 0.61795 0.0
C838 C 0.27658 0.83669 0.63306 0.0
C839 C 0.27525 0.8551 0.64897 0.0
C840 C 0.29132 0.86086 0.66815 0.0
C841 C 0.30832 0.84834 0.67166 0.0
C842 C 0.30901 0.83019 0.65575 0.0
C843 C 0.29353 0.82447 0.63678 0.0
C844 C 0.29754 0.80414 0.62261 0.0
C845 C 0.28125 0.78874 0.63161 0.0
C846 C 0.29929 0.80596 0.58826 0.0
C847 C 0.31763 0.79913 0.63673 0.0
C848 C 0.32411 0.8143 0.65573 0.0
C849 C 0.3422 0.8127 0.6716 0.0
C850 C 0.35387 0.79512 0.66797 0.0
C851 C 0.34736 0.77939 0.64866 0.0
C852 C 0.32902 0.78162 0.63284 0.0
H853 H 0.16371 0.27439 0.6188 0.0
H854 H 0.12205 0.30084 0.68293 0.0
H855 H 0.14429 0.33079 0.68721 0.0
H856 H 0.20832 0.28963 0.65477 0.0
H857 H 0.22184 0.29431 0.62034 0.0
H858 H 0.20195 0.27586 0.62115 0.0
H859 H 0.18379 0.2944 0.57754 0.0
H860 H 0.20367 0.31291 0.57655 0.0
H861 H 0.17786 0.32085 0.5813 0.0
H862 H 0.17259 0.35733 0.68579 0.0
H863 H 0.20383 0.3774 0.67895 0.0
H864 H 0.22597 0.33254 0.61595 0.0
C865 C 0.15907 0.28651 0.6336 0.0
C866 C 0.1411 0.28524 0.65052 0.0
C867 C 0.13573 0.30148 0.66966 0.0
C868 C 0.14826 0.31855 0.67223 0.0
C869 C 0.16602 0.31914 0.6554 0.0
C870 C 0.17131 0.30352 0.6364 0.0
C871 C 0.19141 0.30725 0.62146 0.0
C872 C 0.20678 0.29079 0.62996 0.0
C873 C 0.18903 0.30896 0.58718 0.0
C874 C 0.19685 0.32733 0.63529 0.0
C875 C 0.18205 0.33411 0.65469 0.0
C876 C 0.1842 0.35218 0.67051 0.0
C877 C 0.20198 0.36348 0.66649 0.0
C878 C 0.21738 0.35656 0.64694 0.0
C879 C 0.21454 0.33832 0.63106 0.0
H880 H 0.19789 0.08306 0.06575 0.0
H881 H 0.25771 0.0586 0.07877 0.0
H882 H 0.25843 0.04761 0.0257 0.0
H883 H 0.18148 0.04565 0.00149 0.0
H884 H 0.1682 0.0661 0.98353 0.0
H885 H 0.16918 0.06465 0.02397 0.0
H886 H 0.18368 0.10093 0.02582 0.0
H887 H 0.18291 0.10243 0.9858 0.0
H888 H 0.20641 0.10663 0.00521 0.0
H889 H 0.25711 0.0495 0.96978 0.0
H890 H 0.25381 0.06398 0.91874 0.0
H891 H 0.19486 0.08712 0.94178 0.0
C892 C 0.21064 0.07439 0.0577 0.0
C893 C 0.22768 0.07157 0.07608 0.0
C894 C 0.24437 0.06058 0.06503 0.0
C895 C 0.24487 0.05429 0.03488 0.0
C896 C 0.22837 0.05872 0.01646 0.0
C897 C 0.21129 0.0681 0.02779 0.0
C898 C 0.19724 0.07476 0.00294 0.0
C899 C 0.17788 0.06202 0.00299 0.0
C900 C 0.19233 0.09752 0.00508 0.0
C901 C 0.21011 0.06992 0.97586 0.0
C902 C 0.22761 0.05984 0.98385 0.0
C903 C 0.24316 0.0567 0.96311 0.0
C904 C 0.24119 0.06492 0.93413 0.0
C905 C 0.224 0.07644 0.9266 0.0
C906 C 0.20793 0.07799 0.94711 0.0
H907 H 0.90466 0.19388 0.92946 0.0
H908 H 0.92991 0.25252 0.90968 0.0
H909 H 0.9451 0.25367 0.96046 0.0
H910 H 0.88628 0.20439 0.99306 0.0
H911 H 0.89106 0.18109 0.01276 0.0
H912 H 0.88949 0.18104 0.97273 0.0
H913 H 0.92508 0.16511 0.96903 0.0
H914 H 0.92671 0.16488 0.00948 0.0
H915 H 0.94612 0.177 0.9876 0.0
H916 H 0.9478 0.2532 0.01623 0.0
H917 H 0.93756 0.25133 0.06956 0.0
H918 H 0.91023 0.19306 0.05334 0.0
C919 C 0.91434 0.20642 0.93543 0.0
C920 C 0.91629 0.22304 0.91601 0.0
C921 C 0.92861 0.2395 0.92428 0.0
C922 C 0.93727 0.24023 0.95307 0.0
C923 C 0.93377 0.22417 0.97281 0.0
C924 C 0.92296 0.20728 0.96396 0.0
C925 C 0.91772 0.19394 0.99037 0.0
C926 C 0.8948 0.18993 0.99233 0.0
C927 C 0.92963 0.17406 0.98904 0.0
C928 C 0.92508 0.20707 0.01583 0.0
C929 C 0.93516 0.22399 0.00538 0.0
C930 C 0.94058 0.23971 0.0247 0.0
C931 C 0.9347 0.23855 0.05497 0.0
C932 C 0.92315 0.22201 0.06525 0.0
C933 C 0.91927 0.20571 0.04586 0.0
H934 H 0.76152 0.90215 0.94389 0.0
H935 H 0.71482 0.85744 0.92934 0.0
H936 H 0.70608 0.85849 0.98309 0.0
H937 H 0.77955 0.8812 0.00844 0.0
H938 H 0.78536 0.90434 0.02793 0.0
H939 H 0.78501 0.90388 0.98757 0.0
H940 H 0.75888 0.93296 0.98708 0.0
H941 H 0.75919 0.93355 0.02758 0.0
H942 H 0.73568 0.93031 0.00784 0.0
H943 H 0.70621 0.85947 0.03774 0.0
H944 H 0.71565 0.85984 0.09124 0.0
H945 H 0.76242 0.90381 0.07265 0.0
C946 C 0.74898 0.89322 0.95201 0.0
C947 C 0.73861 0.87992 0.93266 0.0
C948 C 0.7228 0.8678 0.94396 0.0
C949 C 0.71765 0.86841 0.97437 0.0
C950 C 0.72853 0.88116 0.99321 0.0
C951 C 0.74386 0.8934 0.9826 0.0
C952 C 0.755 0.90344 0.00839 0.0
C953 C 0.77756 0.89787 0.00805 0.0
C954 C 0.752 0.92643 0.00767 0.0
C955 C 0.74421 0.89408 0.03503 0.0
C956 C 0.72871 0.88163 0.0256 0.0
C957 C 0.71794 0.86954 0.04552 0.0
C958 C 0.72345 0.86978 0.07579 0.0
C959 C 0.73952 0.88205 0.08589 0.0
C960 C 0.74968 0.89478 0.06546 0.0
H961 H 0.08443 0.73598 0.93177 0.0
H962 H 0.05895 0.79473 0.91407 0.0
H963 H 0.04587 0.79623 0.966 0.0
H964 H 0.04537 0.71984 0.99497 0.0
H965 H 0.06571 0.70777 0.01496 0.0
H966 H 0.06531 0.70749 0.97444 0.0
H967 H 0.1011 0.72306 0.97367 0.0
H968 H 0.10157 0.72357 0.01376 0.0
H969 H 0.10556 0.7466 0.99298 0.0
H970 H 0.04642 0.79669 0.02124 0.0
H971 H 0.06028 0.79586 0.07278 0.0
H972 H 0.08515 0.73669 0.05604 0.0
C973 C 0.07486 0.74845 0.93848 0.0
C974 C 0.07213 0.76497 0.91912 0.0
C975 C 0.06055 0.78168 0.92853 0.0
C976 C 0.05312 0.78261 0.95802 0.0
C977 C 0.0573 0.76663 0.97756 0.0
C978 C 0.06754 0.74956 0.96789 0.0
C979 C 0.07397 0.73649 0.99409 0.0
C980 C 0.06186 0.71673 0.99465 0.0
C981 C 0.09689 0.73224 0.99358 0.0
C982 C 0.06803 0.75 0.02001 0.0
C983 C 0.0576 0.7669 0.0102 0.0
C984 C 0.05376 0.78317 0.02939 0.0
C985 C 0.06162 0.78261 0.05867 0.0
C986 C 0.0732 0.76594 0.06824 0.0
C987 C 0.07559 0.74915 0.04927 0.0
H988 H 0.25453 0.91864 0.43288 0.0
H989 H 0.19194 0.92955 0.41146 0.0
H990 H 0.18619 0.94272 0.4626 0.0
H991 H 0.24673 0.89672 0.4961 0.0
H992 H 0.26784 0.90621 0.51737 0.0
H993 H 0.26918 0.90546 0.47726 0.0
H994 H 0.27684 0.94377 0.47578 0.0
H995 H 0.27564 0.94463 0.51625 0.0
H996 H 0.26004 0.96125 0.49416 0.0
H997 H 0.18447 0.9438 0.51721 0.0
H998 H 0.18702 0.93274 0.57 0.0
H999 H 0.25074 0.92161 0.55834 0.0
C1000 C 0.24002 0.92509 0.43862 0.0
C1001 C 0.2238 0.92379 0.41833 0.0
C1002 C 0.20462 0.93109 0.42665 0.0
C1003 C 0.20127 0.9386 0.45564 0.0
C1004 C 0.21728 0.93861 0.476 0.0
C1005 C 0.23644 0.93232 0.46772 0.0
C1006 C 0.2499 0.92974 0.49499 0.0
C1007 C 0.2589 0.90826 0.4965 0.0
C1008 C 0.26659 0.94581 0.49531 0.0
C1009 C 0.2348 0.93345 0.51995 0.0
C1010 C 0.21627 0.93933 0.50853 0.0
C1011 C 0.19906 0.9401 0.52658 0.0
C1012 C 0.2006 0.93383 0.55655 0.0
C1013 C 0.21921 0.92707 0.56815 0.0
C1014 C 0.23663 0.92771 0.5501 0.0
H1015 H 0.07331 0.25577 0.56289 0.0
H1016 H 0.06282 0.19289 0.58274 0.0
H1017 H 0.05089 0.18732 0.53097 0.0
H1018 H 0.03311 0.26051 0.49638 0.0
H1019 H 0.05062 0.27646 0.4765 0.0
H1020 H 0.04887 0.27787 0.5169 0.0
H1021 H 0.08726 0.27134 0.52081 0.0
H1022 H 0.0891 0.26975 0.48088 0.0
H1023 H 0.09778 0.24899 0.50369 0.0
H1024 H 0.05251 0.18553 0.47673 0.0
H1025 H 0.06805 0.18759 0.42649 0.0
H1026 H 0.07831 0.25139 0.43898 0.0
C1027 C 0.06707 0.24126 0.55662 0.0
C1028 C 0.06829 0.22488 0.57661 0.0
C1029 C 0.06132 0.20569 0.56775 0.0
C1030 C 0.05452 0.20245 0.53836 0.0
C1031 C 0.05498 0.21856 0.51813 0.0
C1032 C 0.06077 0.23778 0.52704 0.0
C1033 C 0.06477 0.25121 0.50012 0.0
C1034 C 0.04836 0.26747 0.49731 0.0
C1035 C 0.08598 0.26083 0.50147 0.0
C1036 C 0.06301 0.2359 0.47499 0.0
C1037 C 0.05626 0.21743 0.48563 0.0
C1038 C 0.05695 0.20006 0.46784 0.0
C1039 C 0.06577 0.20131 0.4393 0.0
C1040 C 0.07372 0.21978 0.42896 0.0
C1041 C 0.07144 0.23738 0.44626 0.0
H1042 H 0.7966 0.07687 0.56383 0.0
H1043 H 0.73365 0.06079 0.57061 0.0
H1044 H 0.73434 0.04812 0.51829 0.0
H1045 H 0.79473 0.0992 0.50137 0.0
H1046 H 0.81843 0.09134 0.48526 0.0
H1047 H 0.81531 0.09118 0.52507 0.0
H1048 H 0.82486 0.05328 0.52686 0.0
H1049 H 0.82817 0.05336 0.48664 0.0
H1050 H 0.81136 0.0354 0.50391 0.0
H1051 H 0.73887 0.04806 0.46281 0.0
H1052 H 0.74645 0.06104 0.41196 0.0
H1053 H 0.80661 0.07692 0.44079 0.0
C1054 C 0.78334 0.06956 0.55467 0.0
C1055 C 0.76517 0.06954 0.57093 0.0
C1056 C 0.74781 0.06049 0.55849 0.0
C1057 C 0.74813 0.05327 0.52879 0.0
C1058 C 0.76603 0.05485 0.51232 0.0
C1059 C 0.78353 0.06234 0.52522 0.0
C1060 C 0.79961 0.06635 0.50189 0.0
C1061 C 0.80742 0.0883 0.50349 0.0
C1062 C 0.81702 0.05119 0.50501 0.0
C1063 C 0.78769 0.06242 0.47356 0.0
C1064 C 0.76867 0.05485 0.47987 0.0
C1065 C 0.75394 0.05324 0.45752 0.0
C1066 C 0.75835 0.06058 0.42863 0.0
C1067 C 0.77717 0.06975 0.42274 0.0
C1068 C 0.79229 0.06955 0.44488 0.0
H1069 H 0.91226 0.8151 0.56718 0.0
H1070 H 0.93801 0.75627 0.58471 0.0
H1071 H 0.95168 0.75535 0.53293 0.0
H1072 H 0.89277 0.80502 0.50266 0.0
H1073 H 0.89734 0.82879 0.48413 0.0
H1074 H 0.8959 0.82788 0.5242 0.0
H1075 H 0.93139 0.84402 0.5283 0.0
H1076 H 0.93292 0.8451 0.48788 0.0
H1077 H 0.95244 0.83262 0.50907 0.0
H1078 H 0.95389 0.75681 0.47663 0.0
H1079 H 0.94407 0.7603 0.42322 0.0
H1080 H 0.9171 0.8183 0.44274 0.0
C1081 C 0.9216 0.80246 0.56045 0.0
C1082 C 0.92418 0.7858 0.57967 0.0
C1083 C 0.93616 0.76931 0.5703 0.0
C1084 C 0.94398 0.76871 0.54094 0.0
C1085 C 0.94005 0.78493 0.5217 0.0
C1086 C 0.92948 0.80175 0.53143 0.0
C1087 C 0.92414 0.81561 0.50568 0.0
C1088 C 0.9012 0.81951 0.50408 0.0
C1089 C 0.93594 0.83551 0.50787 0.0
C1090 C 0.93147 0.80305 0.47955 0.0
C1091 C 0.94134 0.78577 0.4891 0.0
C1092 C 0.94681 0.77057 0.46888 0.0
C1093 C 0.94122 0.77267 0.43856 0.0
C1094 C 0.92994 0.78962 0.4291 0.0
C1095 C 0.92598 0.80535 0.44952 0.0
H1096 H 0.69544 0.60305 0.54762 0.0
H1097 H 0.75242 0.57648 0.57357 0.0
H1098 H 0.75736 0.56423 0.52148 0.0
H1099 H 0.68248 0.56458 0.48448 0.0
H1100 H 0.67178 0.58478 0.46251 0.0
H1101 H 0.66973 0.58518 0.50291 0.0
H1102 H 0.68612 0.62068 0.50375 0.0
H1103 H 0.68838 0.62034 0.46374 0.0
H1104 H 0.7105 0.62423 0.48656 0.0
H1105 H 0.76028 0.56359 0.46514 0.0
H1106 H 0.76075 0.57457 0.41194 0.0
H1107 H 0.70169 0.60133 0.42321 0.0
C1108 C 0.70847 0.59379 0.54255 0.0
C1109 C 0.72351 0.59059 0.56432 0.0
C1110 C 0.74059 0.57877 0.55713 0.0
C1111 C 0.74348 0.57177 0.52761 0.0
C1112 C 0.72889 0.57634 0.50596 0.0
C1113 C 0.71144 0.58672 0.51338 0.0
C1114 C 0.69969 0.59286 0.48578 0.0
C1115 C 0.67974 0.58114 0.48381 0.0
C1116 C 0.696 0.61587 0.48493 0.0
C1117 C 0.71417 0.58616 0.46157 0.0
C1118 C 0.73059 0.57598 0.47339 0.0
C1119 C 0.7472 0.57094 0.45555 0.0
C1120 C 0.74737 0.5772 0.42535 0.0
C1121 C 0.73121 0.58872 0.41371 0.0
C1122 C 0.7141 0.59233 0.43165 0.0
H1123 H 0.41215 0.68469 0.43595 0.0
H1124 H 0.43267 0.74471 0.4138 0.0
H1125 H 0.44562 0.74892 0.46548 0.0
H1126 H 0.38981 0.69523 0.49524 0.0
H1127 H 0.39563 0.67354 0.51813 0.0
H1128 H 0.39667 0.67147 0.47822 0.0
H1129 H 0.43375 0.65941 0.48094 0.0
H1130 H 0.43276 0.66113 0.52136 0.0
H1131 H 0.45218 0.67427 0.50085 0.0
H1132 H 0.44488 0.75112 0.52103 0.0
H1133 H 0.43089 0.75086 0.57255 0.0
H1134 H 0.41014 0.68966 0.55936 0.0
C1135 C 0.42058 0.69815 0.44168 0.0
C1136 C 0.42165 0.71429 0.42124 0.0
C1137 C 0.43215 0.73204 0.42916 0.0
C1138 C 0.4395 0.73452 0.45853 0.0
C1139 C 0.43653 0.71895 0.47929 0.0
C1140 C 0.42778 0.70079 0.47088 0.0
C1141 C 0.42218 0.68816 0.49793 0.0
C1142 C 0.39976 0.68179 0.49732 0.0
C1143 C 0.43605 0.66965 0.50042 0.0
C1144 C 0.42654 0.70308 0.52275 0.0
C1145 C 0.4358 0.72034 0.51188 0.0
C1146 C 0.43833 0.73742 0.52997 0.0
C1147 C 0.43034 0.73719 0.55921 0.0
C1148 C 0.41958 0.72017 0.56959 0.0
C1149 C 0.41862 0.70267 0.55178 0.0
H1150 H 0.31143 0.40619 0.42756 0.0
H1151 H 0.25421 0.43421 0.40655 0.0
H1152 H 0.25218 0.44755 0.45832 0.0
H1153 H 0.29849 0.38612 0.48965 0.0
H1154 H 0.32149 0.38946 0.51069 0.0
H1155 H 0.32234 0.38898 0.47058 0.0
H1156 H 0.33966 0.42402 0.4699 0.0
H1157 H 0.33904 0.42456 0.51041 0.0
H1158 H 0.32814 0.445 0.48918 0.0
H1159 H 0.25138 0.44857 0.51436 0.0
H1160 H 0.2519 0.43703 0.56722 0.0
H1161 H 0.30955 0.40823 0.55194 0.0
C1162 C 0.299 0.41601 0.43354 0.0
C1163 C 0.28301 0.41922 0.4133 0.0
C1164 C 0.26676 0.43183 0.42171 0.0
C1165 C 0.26552 0.43948 0.45111 0.0
C1166 C 0.28088 0.43472 0.47142 0.0
C1167 C 0.29761 0.42364 0.46268 0.0
C1168 C 0.31014 0.4172 0.48939 0.0
C1169 C 0.31325 0.39409 0.4901 0.0
C1170 C 0.33044 0.42837 0.48974 0.0
C1171 C 0.29673 0.42436 0.51466 0.0
C1172 C 0.28036 0.43523 0.50406 0.0
C1173 C 0.26445 0.44071 0.52301 0.0
C1174 C 0.26485 0.43412 0.55303 0.0
C1175 C 0.28082 0.42183 0.56339 0.0
C1176 C 0.29734 0.41786 0.54444 0.0
H1177 H 0.60602 0.3108 0.56074 0.0
H1178 H 0.56829 0.25863 0.57706 0.0
H1179 H 0.55944 0.25752 0.52298 0.0
H1180 H 0.57589 0.33268 0.49454 0.0
H1181 H 0.59909 0.34005 0.47651 0.0
H1182 H 0.59719 0.3404 0.51692 0.0
H1183 H 0.62866 0.3173 0.5204 0.0
H1184 H 0.63054 0.31666 0.4803 0.0
H1185 H 0.62861 0.29337 0.50105 0.0
H1186 H 0.56171 0.25721 0.46634 0.0
H1187 H 0.57472 0.25772 0.41418 0.0
H1188 H 0.6113 0.3099 0.43579 0.0
C1189 C 0.5952 0.29968 0.55309 0.0
C1190 C 0.58778 0.28483 0.57283 0.0
C1191 C 0.57389 0.27031 0.56222 0.0
C1192 C 0.56882 0.26959 0.53155 0.0
C1193 C 0.57746 0.28378 0.51218 0.0
C1194 C 0.59009 0.29881 0.52278 0.0
C1195 C 0.60012 0.3102 0.49748 0.0
C1196 C 0.59261 0.33213 0.49629 0.0
C1197 C 0.62333 0.30929 0.49997 0.0
C1198 C 0.59249 0.29826 0.47097 0.0
C1199 C 0.57893 0.28347 0.47961 0.0
C1200 C 0.57184 0.26909 0.45923 0.0
C1201 C 0.57931 0.26946 0.42967 0.0
C1202 C 0.594 0.28386 0.42114 0.0
C1203 C 0.59997 0.29883 0.44175 0.0
H1204 H 0.70098 0.43782 0.93503 0.0
H1205 H 0.76378 0.44692 0.91352 0.0
H1206 H 0.76982 0.4601 0.9646 0.0
H1207 H 0.69795 0.48053 -0.00091 0.0
H1208 H 0.68126 0.46417 0.01979 0.0
H1209 H 0.67984 0.46518 0.97934 0.0
H1210 H 0.68444 0.42644 0.97717 0.0
H1211 H 0.68607 0.42532 0.01708 0.0
H1212 H 0.70631 0.41517 0.99458 0.0
H1213 H 0.77174 0.45906 0.01968 0.0
H1214 H 0.76922 0.44407 0.07035 0.0
H1215 H 0.70529 0.43529 0.05774 0.0
C1216 C 0.71564 0.44394 0.94072 0.0
C1217 C 0.73187 0.44163 0.92069 0.0
C1218 C 0.75109 0.44904 0.92853 0.0
C1219 C 0.75461 0.45652 0.95758 0.0
C1220 C 0.73863 0.45679 0.97812 0.0
C1221 C 0.71927 0.45124 0.96965 0.0
C1222 C 0.70574 0.44836 -0.00329 0.0
C1223 C 0.69029 0.4656 -0.00114 0.0
C1224 C 0.69509 0.42759 0.99634 0.0
C1225 C 0.72116 0.44995 0.02161 0.0
C1226 C 0.73979 0.45605 0.01074 0.0
C1227 C 0.7571 0.4551 0.02866 0.0
C1228 C 0.75558 0.4466 0.05748 0.0
C1229 C 0.73697 0.43889 0.06767 0.0
C1230 C 0.71948 0.44168 0.05035 0.0
H1231 H 0.6177 0.77116 0.05368 0.0
H1232 H 0.56624 0.73437 0.07816 0.0
H1233 H 0.55448 0.73521 0.02525 0.0
H1234 H 0.59242 0.80109 0.99185 0.0
H1235 H 0.6153 0.80065 0.96999 0.0
H1236 H 0.61657 0.80115 0.01044 0.0
H1237 H 0.63874 0.7689 0.0096 0.0
H1238 H 0.63741 0.76818 0.9694 0.0
H1239 H 0.62947 0.74657 0.99097 0.0
H1240 H 0.5522 0.73501 0.96788 0.0
H1241 H 0.55997 0.73347 0.91331 0.0
H1242 H 0.61338 0.76972 0.92823 0.0
C1243 C 0.60359 0.7638 0.04813 0.0
C1244 C 0.59287 0.75269 0.06986 0.0
C1245 C 0.57456 0.74315 0.0618 0.0
C1246 C 0.56779 0.74356 0.03182 0.0
C1247 C 0.57934 0.7539 0.01054 0.0
C1248 C 0.59673 0.7641 0.01859 0.0
C1249 C 0.60802 0.77187 0.99153 0.0
C1250 C 0.60807 0.79507 0.99092 0.0
C1251 C 0.62966 0.76335 0.99032 0.0
C1252 C 0.59503 0.76338 0.96678 0.0
C1253 C 0.57822 0.75353 0.97792 0.0
C1254 C 0.56507 0.74305 0.95895 0.0
C1255 C 0.56956 0.74224 0.92805 0.0
C1256 C 0.58727 0.75145 0.91683 0.0
C1257 C 0.59971 0.7626 0.93634 0.0
H1258 H 0.29771 0.5738 0.05548 0.0
H1259 H 0.23651 0.55449 0.07266 0.0
H1260 H 0.23347 0.54302 0.01997 0.0
H1261 H 0.28959 0.59716 0.9944 0.0
H1262 H 0.3122 0.5907 0.97401 0.0
H1263 H 0.31225 0.58994 0.01411 0.0
H1264 H 0.3237 0.55255 0.01299 0.0
H1265 H 0.32383 0.55324 0.97248 0.0
H1266 H 0.30936 0.53427 0.99193 0.0
H1267 H 0.23353 0.54404 0.96391 0.0
H1268 H 0.23684 0.55731 0.91213 0.0
H1269 H 0.29806 0.57561 0.93124 0.0
C1270 C 0.28408 0.56615 0.04841 0.0
C1271 C 0.26739 0.56491 0.06784 0.0
C1272 C 0.24957 0.55523 0.05808 0.0
C1273 C 0.24776 0.54868 0.02817 0.0
C1274 C 0.26407 0.5515 0.00871 0.0
C1275 C 0.28214 0.55956 0.01877 0.0
C1276 C 0.29607 0.56461 0.99297 0.0
C1277 C 0.30287 0.58691 0.99394 0.0
C1278 C 0.31432 0.55031 0.99258 0.0
C1279 C 0.28221 0.56042 0.96678 0.0
C1280 C 0.26412 0.55202 0.97605 0.0
C1281 C 0.24788 0.54988 0.95624 0.0
C1282 C 0.24985 0.5574 0.92684 0.0
C1283 C 0.26778 0.56723 0.91797 0.0
C1284 C 0.28439 0.56775 0.9376 0.0
H1285 H 0.42783 0.3031 0.9273 0.0
H1286 H 0.44298 0.24116 0.90733 0.0
H1287 H 0.45775 0.23737 0.95797 0.0
H1288 H 0.47141 0.31185 0.98811 0.0
H1289 H 0.45399 0.32712 0.00934 0.0
H1290 H 0.45356 0.32776 0.96883 0.0
H1291 H 0.41556 0.31889 0.96972 0.0
H1292 H 0.4159 0.31806 0.00973 0.0
H1293 H 0.40737 0.29632 0.98889 0.0
H1294 H 0.45861 0.2365 0.01331 0.0
H1295 H 0.44532 0.23868 0.06507 0.0
H1296 H 0.4295 0.30111 0.05044 0.0
C1297 C 0.43547 0.2892 0.93317 0.0
C1298 C 0.4345 0.27249 0.91374 0.0
C1299 C 0.44401 0.25423 0.92186 0.0
C1300 C 0.45242 0.252 0.95064 0.0
C1301 C 0.45151 0.2683 0.97059 0.0
C1302 C 0.44376 0.28684 0.96179 0.0
C1303 C 0.44029 0.30056 0.98847 0.0
C1304 C 0.45574 0.31784 0.9887 0.0
C1305 C 0.4185 0.30887 0.98923 0.0
C1306 C 0.44435 0.28594 0.01382 0.0
C1307 C 0.45194 0.26777 0.00326 0.0
C1308 C 0.45347 0.25087 0.02197 0.0
C1309 C 0.44594 0.2522 0.05141 0.0
C1310 C 0.4367 0.27017 0.06143 0.0
C1311 C 0.43703 0.28746 0.04314 0.0
H1312 H 0.24804 0.03067 0.20755 0.0
H1313 H 0.30213 0.05723 0.24575 0.0
H1314 H 0.30828 0.02582 0.27435 0.0
H1315 H 0.23178 0.00572 0.27331 0.0
H1316 H 0.22229 0.98383 0.25384 0.0
H1317 H 0.22293 0.00791 0.23515 0.0
H1318 H 0.24404 0.9923 0.19198 0.0
H1319 H 0.2435 0.96815 0.21058 0.0
H1320 H 0.26731 0.97945 0.20061 0.0
H1321 H 0.30746 0.99199 0.30073 0.0
H1322 H 0.29957 0.95877 0.32308 0.0
H1323 H 0.24614 0.95461 0.26703 0.0
C1324 C 0.26129 0.02988 0.22171 0.0
C1325 C 0.27462 0.04644 0.22436 0.0
C1326 C 0.29171 0.04475 0.24331 0.0
C1327 C 0.29535 0.02695 0.2596 0.0
C1328 C 0.28181 0.01098 0.25659 0.0
C1329 C 0.26514 0.01229 0.23806 0.0
C1330 C 0.25248 0.99331 0.23954 0.0
C1331 C 0.23111 0.99798 0.25116 0.0
C1332 C 0.2518 0.98267 0.20885 0.0
C1333 C 0.26445 0.98119 0.26216 0.0
C1334 C 0.28138 0.99157 0.27162 0.0
C1335 C 0.29433 0.98367 0.2933 0.0
C1336 C 0.28972 0.96478 0.30587 0.0
C1337 C 0.27228 0.95403 0.29675 0.0
C1338 C 0.25969 0.96232 0.27432 0.0
H1339 H 0.95025 0.25219 0.26497 0.0
H1340 H 0.97161 0.24972 0.17281 0.0
H1341 H 0.00673 0.25054 0.1908 0.0
H1342 H 0.99049 0.28601 0.29299 0.0
H1343 H 0.99184 0.27327 0.32871 0.0
H1344 H 0.96832 0.27418 0.30847 0.0
H1345 H 0.96611 0.23515 0.31036 0.0
H1346 H 0.98965 0.2341 0.33041 0.0
H1347 H 0.9867 0.22028 0.29582 0.0
H1348 H 0.0394 0.24768 0.21877 0.0
H1349 H 0.06742 0.24395 0.25505 0.0
H1350 H 0.02501 0.24997 0.32875 0.0
C1351 C 0.9623 0.25218 0.24855 0.0
C1352 C 0.95814 0.25087 0.21749 0.0
C1353 C 0.97437 0.25077 0.19674 0.0
C1354 C 0.99441 0.25122 0.20671 0.0
C1355 C 0.99799 0.25205 0.23749 0.0
C1356 C 0.98242 0.25282 0.25811 0.0
C1357 C 0.9904 0.25296 0.28998 0.0
C1358 C 0.98494 0.27279 0.30597 0.0
C1359 C 0.98276 0.23452 0.30767 0.0
C1360 C 0.01285 0.25159 0.28403 0.0
C1361 C 0.01693 0.25108 0.25361 0.0
C1362 C 0.03645 0.24843 0.24265 0.0
C1363 C 0.05225 0.24624 0.26338 0.0
C1364 C 0.0484 0.2469 0.29464 0.0
C1365 C 0.02846 0.2498 0.30497 0.0
H1366 H 0.77983 0.04414 0.27014 0.0
H1367 H 0.71516 0.0467 0.28502 0.0
H1368 H 0.71109 0.01475 0.25708 0.0
H1369 H 0.77803 0.02173 0.19459 0.0
H1370 H 0.79987 0.00616 0.20133 0.0
H1371 H 0.79743 0.03017 0.22002 0.0
H1372 H 0.80164 0.01248 0.27156 0.0
H1373 H 0.80399 0.98844 0.25308 0.0
H1374 H 0.78496 0.99206 0.28149 0.0
H1375 H 0.71435 0.98134 0.23084 0.0
H1376 H 0.72461 0.94898 0.2081 0.0
H1377 H 0.78723 0.96812 0.21061 0.0
C1378 C 0.76475 0.0382 0.26708 0.0
C1379 C 0.74778 0.04799 0.27967 0.0
C1380 C 0.72837 0.03951 0.27552 0.0
C1381 C 0.72591 0.02138 0.25964 0.0
C1382 C 0.74299 0.01194 0.248 0.0
C1383 C 0.76204 0.02009 0.25142 0.0
C1384 C 0.77805 0.00637 0.23824 0.0
C1385 C 0.78899 0.01673 0.21198 0.0
C1386 C 0.79303 0.99943 0.26255 0.0
C1387 C 0.76507 0.98905 0.22737 0.0
C1388 C 0.74489 0.99263 0.233 0.0
C1389 C 0.73009 0.97846 0.22606 0.0
C1390 C 0.73609 0.96009 0.2132 0.0
C1391 C 0.75673 0.956 0.20748 0.0
C1392 C 0.77133 0.97082 0.21445 0.0
H1393 H 0.04461 0.76995 0.21714 0.0
H1394 H 0.05499 0.70524 0.21693 0.0
H1395 H 0.02438 0.70037 0.24779 0.0
H1396 H 0.02535 0.77371 0.2931 0.0
H1397 H 0.00686 0.79256 0.28341 0.0
H1398 H 0.03007 0.79092 0.26253 0.0
H1399 H 0.00976 0.78724 0.21308 0.0
H1400 H 0.98649 0.78878 0.23381 0.0
H1401 H 0.99127 0.76741 0.20977 0.0
H1402 H 0.99225 0.70261 0.27816 0.0
H1403 H 0.96091 0.71176 0.305 0.0
H1404 H 0.97127 0.77489 0.28382 0.0
C1405 C 0.04059 0.75476 0.22382 0.0
C1406 C 0.05225 0.73797 0.21474 0.0
C1407 C 0.0463 0.71833 0.22366 0.0
C1408 C 0.02895 0.71541 0.2412 0.0
C1409 C 0.01768 0.73228 0.2495 0.0
C1410 C 0.02326 0.75156 0.24107 0.0
C1411 C 0.00823 0.7671 0.25209 0.0
C1412 C 0.01823 0.78194 0.27409 0.0
C1413 C 0.99836 0.77828 0.2256 0.0
C1414 C 0.99327 0.75355 0.26795 0.0
C1415 C 0.99903 0.73353 0.26638 0.0
C1416 C 0.9876 0.71825 0.27953 0.0
C1417 C 0.96982 0.72359 0.29472 0.0
C1418 C 0.9636 0.74402 0.29644 0.0
C1419 C 0.97554 0.75912 0.28279 0.0
H1420 H 0.74538 0.93681 0.74002 0.0
H1421 H 0.74844 0.95948 0.83142 0.0
H1422 H 0.74483 0.99436 0.81238 0.0
H1423 H 0.77405 0.97582 0.70633 0.0
H1424 H 0.75921 0.97658 0.67244 0.0
H1425 H 0.76113 0.95348 0.69352 0.0
H1426 H 0.72215 0.95172 0.69726 0.0
H1427 H 0.7201 0.97488 0.67625 0.0
H1428 H 0.70844 0.97282 0.7127 0.0
H1429 H 0.74239 0.02691 0.7829 0.0
H1430 H 0.74167 0.05443 0.74543 0.0
H1431 H 0.73968 0.01006 0.67369 0.0
C1432 C 0.74519 0.94907 0.75611 0.0
C1433 C 0.74719 0.94541 0.78722 0.0
C1434 C 0.74691 0.96192 0.80747 0.0
C1435 C 0.74482 0.98178 0.79688 0.0
C1436 C 0.74293 0.98483 0.76602 0.0
C1437 C 0.74306 0.96892 0.74596 0.0
C1438 C 0.74134 0.97622 0.71386 0.0
C1439 C 0.76005 0.97017 0.69547 0.0
C1440 C 0.72184 0.96845 0.69916 0.0
C1441 C 0.7405 0.99878 0.71893 0.0
C1442 C 0.74135 0.00347 0.74915 0.0
C1443 C 0.74155 0.0234 0.75918 0.0
C1444 C 0.74114 0.03893 0.73773 0.0
C1445 C 0.74053 0.03442 0.70661 0.0
C1446 C 0.73994 0.01405 0.69728 0.0
H1447 H 0.96193 0.76858 0.7196 0.0
H1448 H 0.95289 0.70526 0.69844 0.0
H1449 H 0.98589 0.69717 0.72147 0.0
H1450 H 0.01474 0.76966 0.70316 0.0
H1451 H 0.02067 0.78698 0.73312 0.0
H1452 H 0.99614 0.78762 0.71578 0.0
H1453 H 0.97923 0.78273 0.76778 0.0
H1454 H 0.0037 0.78221 0.7853 0.0
H1455 H 0.98642 0.76154 0.79082 0.0
H1456 H 0.01989 0.69613 0.74755 0.0
H1457 H 0.05215 0.70227 0.77394 0.0
H1458 H 0.03907 0.76646 0.77585 0.0
C1459 C 0.96678 0.75297 0.71998 0.0
C1460 C 0.95477 0.73752 0.70737 0.0
C1461 C 0.96182 0.71733 0.70802 0.0
C1462 C 0.98054 0.7126 0.72103 0.0
C1463 C 0.99207 0.72825 0.73303 0.0
C1464 C 0.98545 0.74803 0.73253 0.0
C1465 C 0.00078 0.76214 0.74642 0.0
C1466 C 0.00854 0.7775 0.72323 0.0
C1467 C 0.99201 0.77277 0.77423 0.0
C1468 C 0.01705 0.74721 0.75501 0.0
C1469 C 0.01175 0.72773 0.74721 0.0
C1470 C 0.02423 0.71134 0.75362 0.0
C1471 C 0.04252 0.71497 0.7686 0.0
C1472 C 0.0482 0.73485 0.77679 0.0
C1473 C 0.0353 0.75112 0.76961 0.0
H1474 H 0.21469 0.98105 0.69753 0.0
H1475 H 0.26816 0.94659 0.72084 0.0
H1476 H 0.27998 0.97484 0.75255 0.0
H1477 H 0.23893 0.03016 0.69428 0.0
H1478 H 0.21761 0.04313 0.71039 0.0
H1479 H 0.21379 0.02052 0.68862 0.0
H1480 H 0.19471 0.00422 0.73327 0.0
H1481 H 0.19843 0.02677 0.75512 0.0
H1482 H 0.20681 0.00275 0.76948 0.0
H1483 H 0.28528 0.00643 0.7833 0.0
H1484 H 0.28341 0.03862 0.81118 0.0
H1485 H 0.22657 0.05237 0.76726 0.0
C1486 C 0.22895 0.97945 0.70914 0.0
C1487 C 0.24051 0.96159 0.70666 0.0
C1488 C 0.25905 0.96013 0.72236 0.0
C1489 C 0.26591 0.97611 0.74038 0.0
C1490 C 0.2541 0.99347 0.74238 0.0
C1491 C 0.23602 0.99523 0.72716 0.0
C1492 C 0.22589 0.01524 0.73374 0.0
C1493 C 0.22395 0.02802 0.70505 0.0
C1494 C 0.20524 0.01205 0.7488 0.0
C1495 C 0.24096 0.02438 0.75536 0.0
C1496 C 0.25718 0.01164 0.75995 0.0
C1497 C 0.27271 0.01658 0.77972 0.0
C1498 C 0.27151 0.0349 0.79546 0.0
C1499 C 0.25489 0.04808 0.79137 0.0
C1500 C 0.23957 0.04275 0.77074 0.0
H1501 H 0.9425 0.23191 0.7605 0.0
H1502 H 0.95315 0.28797 0.80847 0.0
H1503 H 0.98645 0.291 0.78394 0.0
H1504 H 0.99165 0.21286 0.76734 0.0
H1505 H 0.99226 0.20139 0.73063 0.0
H1506 H 0.96858 0.20456 0.74982 0.0
H1507 H 0.95436 0.22446 0.70439 0.0
H1508 H 0.97796 0.22121 0.68492 0.0
H1509 H 0.96785 0.24619 0.69056 0.0
H1510 H 0.01954 0.28675 0.75632 0.0
H1511 H 0.04941 0.2758 0.72727 0.0
H1512 H 0.01691 0.22234 0.6983 0.0
C1513 C 0.95165 0.24502 0.7655 0.0
C1514 C 0.94517 0.25975 0.78633 0.0
C1515 C 0.95777 0.27652 0.79251 0.0
C1516 C 0.97671 0.27838 0.7787 0.0
C1517 C 0.98281 0.26336 0.75874 0.0
C1518 C 0.9706 0.24706 0.75205 0.0
C1519 C 0.981 0.23249 0.73094 0.0
C1520 C 0.98352 0.2116 0.74557 0.0
C1521 C 0.96962 0.23101 0.70092 0.0
C1522 C 0.0011 0.24298 0.72712 0.0
C1523 C 0.00184 0.26082 0.74315 0.0
C1524 C 0.01908 0.27287 0.74352 0.0
C1525 C 0.03598 0.26651 0.72701 0.0
C1526 C 0.03552 0.24822 0.71052 0.0
C1527 C 0.01778 0.2364 0.71063 0.0
H1528 H 0.72871 0.55882 0.72492 0.0
H1529 H 0.77798 0.54089 0.66647 0.0
H1530 H 0.7795 0.50778 0.69199 0.0
H1531 H 0.74676 0.53358 0.79238 0.0
H1532 H 0.72174 0.52647 0.80415 0.0
H1533 H 0.72543 0.54907 0.78233 0.0
H1534 H 0.69984 0.536 0.74286 0.0
H1535 H 0.69618 0.51331 0.76441 0.0
H1536 H 0.70381 0.51169 0.72562 0.0
H1537 H 0.77456 0.476 0.72273 0.0
H1538 H 0.76406 0.44848 0.75685 0.0
H1539 H 0.71781 0.48745 0.79441 0.0
C1540 C 0.74001 0.54806 0.71769 0.0
C1541 C 0.75327 0.55249 0.69373 0.0
C1542 C 0.7677 0.53787 0.68482 0.0
C1543 C 0.76866 0.51901 0.69916 0.0
C1544 C 0.75512 0.51503 0.72237 0.0
C1545 C 0.74113 0.52919 0.73165 0.0
C1546 C 0.72787 0.52102 0.75649 0.0
C1547 C 0.73063 0.53326 0.78556 0.0
C1548 C 0.70561 0.52047 0.74675 0.0
C1549 C 0.73645 0.49996 0.7596 0.0
C1550 C 0.7522 0.49679 0.73982 0.0
C1551 C 0.7623 0.47835 0.7384 0.0
C1552 C 0.7562 0.4628 0.75782 0.0
C1553 C 0.74011 0.46578 0.7783 0.0
C1554 C 0.73016 0.48464 0.77904 0.0
H1555 H 0.5272 0.73813 0.77474 0.0
H1556 H 0.5298 0.80127 0.80068 0.0
H1557 H 0.49665 0.80701 0.77685 0.0
H1558 H 0.5047 0.74563 0.70309 0.0
H1559 H 0.48909 0.72341 0.70515 0.0
H1560 H 0.51272 0.7242 0.72502 0.0
H1561 H 0.49424 0.71591 0.77483 0.0
H1562 H 0.47054 0.71507 0.7551 0.0
H1563 H 0.47358 0.73163 0.78691 0.0
H1564 H 0.46369 0.80606 0.74848 0.0
H1565 H 0.43324 0.7983 0.71857 0.0
H1566 H 0.45223 0.7357 0.71218 0.0
C1567 C 0.52079 0.75316 0.77554 0.0
C1568 C 0.53111 0.76926 0.78956 0.0
C1569 C 0.52217 0.78869 0.79011 0.0
C1570 C 0.50334 0.79211 0.77663 0.0
C1571 C 0.49362 0.77592 0.76287 0.0
C1572 C 0.50201 0.75681 0.76235 0.0
C1573 C 0.48861 0.74203 0.74583 0.0
C1574 C 0.49943 0.73331 0.71813 0.0
C1575 C 0.48131 0.72517 0.76693 0.0
C1576 C 0.47147 0.75584 0.73685 0.0
C1577 C 0.47461 0.77533 0.74689 0.0
C1578 C 0.46101 0.79083 0.74066 0.0
C1579 C 0.44378 0.78628 0.72362 0.0
C1580 C 0.44031 0.7664 0.71311 0.0
C1581 C 0.45435 0.75103 0.72003 0.0
H1582 H 0.26384 0.46121 0.70689 0.0
H1583 H 0.2002 0.4522 0.68833 0.0
H1584 H 0.19227 0.48393 0.71511 0.0
H1585 H 0.25811 0.48198 0.78089 0.0
H1586 H 0.27837 0.49986 0.7764 0.0
H1587 H 0.27886 0.47636 0.75609 0.0
H1588 H 0.28231 0.49596 0.70596 0.0
H1589 H 0.28175 0.51953 0.72611 0.0
H1590 H 0.26385 0.5149 0.69642 0.0
H1591 H 0.19137 0.5166 0.74466 0.0
H1592 H 0.19764 0.54771 0.77392 0.0
H1593 H 0.26196 0.53549 0.77154 0.0
C1594 C 0.24821 0.46583 0.70854 0.0
C1595 C 0.23262 0.45418 0.69559 0.0
C1596 C 0.21239 0.46088 0.69807 0.0
C1597 C 0.20774 0.47888 0.71324 0.0
C1598 C 0.2235 0.49005 0.72562 0.0
C1599 C 0.24333 0.4838 0.72335 0.0
C1600 C 0.25751 0.49861 0.73828 0.0
C1601 C 0.26888 0.4886 0.76447 0.0
C1602 C 0.27222 0.50779 0.71532 0.0
C1603 C 0.24257 0.51416 0.74944 0.0
C1604 C 0.22302 0.50896 0.74202 0.0
C1605 C 0.20663 0.52086 0.75049 0.0
C1606 C 0.21034 0.5385 0.7671 0.0
C1607 C 0.23029 0.5441 0.77491 0.0
C1608 C 0.24655 0.53175 0.76574 0.0
H1609 H 0.46038 0.26753 0.77101 0.0
H1610 H 0.44637 0.20367 0.76456 0.0
H1611 H 0.47793 0.19812 0.7361 0.0
H1612 H 0.48343 0.27301 0.69743 0.0
H1613 H 0.50243 0.29028 0.71078 0.0
H1614 H 0.47817 0.28928 0.72895 0.0
H1615 H 0.49571 0.28247 0.77999 0.0
H1616 H 0.52 0.28333 0.76197 0.0
H1617 H 0.51279 0.26142 0.78344 0.0
H1618 H 0.51157 0.19954 0.70931 0.0
H1619 H 0.54472 0.20771 0.68698 0.0
H1620 H 0.53693 0.27045 0.71273 0.0
C1621 C 0.46378 0.2524 0.76329 0.0
C1622 C 0.45083 0.23604 0.76985 0.0
C1623 C 0.45603 0.21644 0.75972 0.0
C1624 C 0.47392 0.21315 0.74354 0.0
C1625 C 0.48647 0.22959 0.73782 0.0
C1626 C 0.48162 0.24883 0.74741 0.0
C1627 C 0.49802 0.26379 0.73947 0.0
C1628 C 0.49003 0.28005 0.71786 0.0
C1629 C 0.50717 0.27331 0.76791 0.0
C1630 C 0.51294 0.24997 0.72402 0.0
C1631 C 0.50596 0.23032 0.72309 0.0
C1632 C 0.51717 0.21488 0.70989 0.0
C1633 C 0.53598 0.21967 0.69728 0.0
C1634 C 0.54346 0.2397 0.69818 0.0
C1635 C 0.53171 0.25498 0.71179 0.0
H1636 H 0.25566 0.52719 0.20526 0.0
H1637 H 0.19331 0.54376 0.22198 0.0
H1638 H 0.18847 0.51197 0.25033 0.0
H1639 H 0.247 0.47396 0.19475 0.0
H1640 H 0.27018 0.46674 0.21298 0.0
H1641 H 0.26849 0.49062 0.1938 0.0
H1642 H 0.27942 0.50918 0.24243 0.0
H1643 H 0.2812 0.48537 0.26173 0.0
H1644 H 0.26543 0.50515 0.27663 0.0
H1645 H 0.19102 0.47858 0.2783 0.0
H1646 H 0.2006 0.44655 0.30304 0.0
H1647 H 0.26106 0.45211 0.26653 0.0
C1648 C 0.24095 0.52419 0.21481 0.0
C1649 C 0.22486 0.538 0.21144 0.0
C1650 C 0.20585 0.5334 0.22426 0.0
C1651 C 0.20296 0.51538 0.24038 0.0
C1652 C 0.21919 0.50212 0.24327 0.0
C1653 C 0.23779 0.50632 0.23074 0.0
C1654 C 0.25288 0.48975 0.23718 0.0
C1655 C 0.26005 0.47968 0.20793 0.0
C1656 C 0.27078 0.49785 0.25559 0.0
C1657 C 0.23996 0.47559 0.25556 0.0
C1658 C 0.22057 0.48294 0.25886 0.0
C1659 C 0.20612 0.47265 0.2757 0.0
C1660 C 0.21171 0.45447 0.28967 0.0
C1661 C 0.23156 0.44676 0.28663 0.0
C1662 C 0.24573 0.45747 0.2691 0.0
H1663 H 0.56442 0.24586 0.22398 0.0
H1664 H 0.544 0.25427 0.31584 0.0
H1665 H 0.50874 0.25096 0.29913 0.0
H1666 H 0.52627 0.27416 0.18931 0.0
H1667 H 0.52356 0.2578 0.15721 0.0
H1668 H 0.54732 0.25918 0.17662 0.0
H1669 H 0.54677 0.22044 0.1847 0.0
H1670 H 0.523 0.21893 0.1652 0.0
H1671 H 0.52531 0.20891 0.20269 0.0
H1672 H 0.47563 0.25004 0.27196 0.0
H1673 H 0.44707 0.24998 0.23625 0.0
H1674 H 0.4889 0.2409 0.16246 0.0
C1675 C 0.55256 0.24671 0.24065 0.0
C1676 C 0.55703 0.25034 0.27122 0.0
C1677 C 0.54101 0.25146 0.29229 0.0
C1678 C 0.5209 0.24959 0.28304 0.0
C1679 C 0.517 0.24637 0.2527 0.0
C1680 C 0.53237 0.24473 0.23184 0.0
C1681 C 0.52403 0.24197 0.20043 0.0
C1682 C 0.53069 0.25931 0.17968 0.0
C1683 C 0.53014 0.22133 0.1875 0.0
C1684 C 0.5016 0.24284 0.20682 0.0
C1685 C 0.49786 0.24534 0.23711 0.0
C1686 C 0.47835 0.24778 0.24822 0.0
C1687 C 0.46223 0.24778 0.22778 0.0
C1688 C 0.46574 0.24525 0.19664 0.0
C1689 C 0.48569 0.24252 0.18619 0.0
H1690 H 0.73006 0.53045 0.28935 0.0
H1691 H 0.78721 0.55985 0.27063 0.0
H1692 H 0.7985 0.52964 0.24269 0.0
H1693 H 0.74998 0.47942 0.29857 0.0
H1694 H 0.72853 0.46789 0.28056 0.0
H1695 H 0.72555 0.49129 0.30074 0.0
H1696 H 0.71031 0.50798 0.25321 0.0
H1697 H 0.71319 0.48466 0.23295 0.0
H1698 H 0.72435 0.5075 0.21853 0.0
H1699 H 0.80268 0.49692 0.21427 0.0
H1700 H 0.79917 0.46469 0.18686 0.0
H1701 H 0.73933 0.45685 0.2247 0.0
C1702 C 0.74504 0.5305 0.27967 0.0
C1703 C 0.75777 0.54752 0.28224 0.0
C1704 C 0.7772 0.54699 0.269 0.0
C1705 C 0.78377 0.52987 0.25316 0.0
C1706 C 0.77076 0.51341 0.25089 0.0
C1707 C 0.75182 0.51359 0.26382 0.0
C1708 C 0.74036 0.49437 0.25699 0.0
C1709 C 0.73585 0.48255 0.28594 0.0
C1710 C 0.72091 0.49891 0.23937 0.0
C1711 C 0.75568 0.48346 0.23771 0.0
C1712 C 0.77318 0.49461 0.23463 0.0
C1713 C 0.78912 0.48799 0.21675 0.0
C1714 C 0.78698 0.46966 0.20126 0.0
C1715 C 0.76901 0.45819 0.2037 0.0
C1716 C 0.75334 0.46512 0.22259 0.0
H1717 H 0.46618 0.7625 0.3071 0.0
H1718 H 0.43751 0.71521 0.25471 0.0
H1719 H 0.46784 0.71276 0.22287 0.0
H1720 H 0.49251 0.78647 0.24409 0.0
H1721 H 0.51454 0.79215 0.26627 0.0
H1722 H 0.49009 0.79098 0.28386 0.0
H1723 H 0.50364 0.76439 0.3215 0.0
H1724 H 0.52806 0.76535 0.30389 0.0
H1725 H 0.51508 0.74157 0.30744 0.0
H1726 H 0.50203 0.71378 0.19891 0.0
H1727 H 0.53712 0.71957 0.1826 0.0
H1728 H 0.5434 0.76658 0.24996 0.0
C1729 C 0.46615 0.7518 0.2887 0.0
C1730 C 0.44943 0.73905 0.28344 0.0
C1731 C 0.45009 0.72519 0.25918 0.0
C1732 C 0.46727 0.72366 0.24097 0.0
C1733 C 0.48362 0.73618 0.24714 0.0
C1734 C 0.48316 0.75013 0.27021 0.0
C1735 C 0.50294 0.76148 0.27245 0.0
C1736 C 0.49983 0.78411 0.26629 0.0
C1737 C 0.51302 0.75798 0.30314 0.0
C1738 C 0.51471 0.75148 0.24737 0.0
C1739 C 0.50328 0.73694 0.23305 0.0
C1740 C 0.51108 0.72526 0.20977 0.0
C1741 C 0.53106 0.72861 0.20075 0.0
C1742 C 0.54302 0.74356 0.21493 0.0
C1743 C 0.53464 0.75512 0.23854 0.0
H1744 H 0.17789 0.14312 0.18868 0.0
H1745 H 0.2058 0.09815 0.24617 0.0
H1746 H 0.18378 0.10891 0.28804 0.0
H1747 H 0.17644 0.18101 0.24031 0.0
H1748 H 0.15254 0.19145 0.22884 0.0
H1749 H 0.16773 0.17786 0.20223 0.0
H1750 H 0.13791 0.15362 0.19149 0.0
H1751 H 0.12255 0.16721 0.21812 0.0
H1752 H 0.12609 0.14036 0.22217 0.0
H1753 H 0.16293 0.12807 0.32521 0.0
H1754 H 0.14481 0.15385 0.35474 0.0
H1755 H 0.12997 0.18595 0.27276 0.0
C1756 C 0.17907 0.13515 0.20984 0.0
C1757 C 0.19357 0.11976 0.21413 0.0
C1758 C 0.19473 0.10989 0.24229 0.0
C1759 C 0.18224 0.11587 0.26617 0.0
C1760 C 0.16851 0.13152 0.26137 0.0
C1761 C 0.16672 0.14088 0.23378 0.0
C1762 C 0.1523 0.15859 0.23513 0.0
C1763 C 0.16289 0.17838 0.22611 0.0
C1764 C 0.1336 0.1547 0.21557 0.0
C1765 C 0.14698 0.15839 0.26816 0.0
C1766 C 0.15623 0.14245 0.28281 0.0
C1767 C 0.15524 0.14031 0.31389 0.0
C1768 C 0.14497 0.15507 0.33047 0.0
C1769 C 0.13583 0.17177 0.31596 0.0
C1770 C 0.13637 0.17308 0.28435 0.0
H1771 H 0.85815 0.16945 0.1806 0.0
H1772 H 0.90321 0.19764 0.23753 0.0
H1773 H 0.89357 0.17479 0.27903 0.0
H1774 H 0.82119 0.16712 0.23243 0.0
H1775 H 0.81085 0.14316 0.22098 0.0
H1776 H 0.8241 0.15849 0.19425 0.0
H1777 H 0.84848 0.12885 0.18299 0.0
H1778 H 0.83521 0.11333 0.20976 0.0
H1779 H 0.86204 0.11704 0.21338 0.0
H1780 H 0.87492 0.15375 0.31631 0.0
H1781 H 0.84897 0.13632 0.34633 0.0
H1782 H 0.81641 0.12128 0.26491 0.0
C1783 C 0.86642 0.17047 0.20151 0.0
C1784 C 0.88145 0.18533 0.20583 0.0
C1785 C 0.89174 0.18629 0.23365 0.0
C1786 C 0.88641 0.17333 0.2573 0.0
C1787 C 0.87101 0.15931 0.25257 0.0
C1788 C 0.86132 0.15766 0.2252 0.0
C1789 C 0.84373 0.14312 0.22677 0.0
C1790 C 0.82381 0.15361 0.21812 0.0
C1791 C 0.84761 0.12447 0.20705 0.0
C1792 C 0.84425 0.13772 0.25976 0.0
C1793 C 0.86034 0.14689 0.27413 0.0
C1794 C 0.8626 0.14608 0.3052 0.0
C1795 C 0.84774 0.1362 0.32207 0.0
C1796 C 0.83083 0.12729 0.30785 0.0
C1797 C 0.82947 0.12747 0.27625 0.0
H1798 H 0.86573 0.84779 0.31935 0.0
H1799 H 0.90351 0.81584 0.25563 0.0
H1800 H 0.88871 0.83579 0.21434 0.0
H1801 H 0.82383 0.84499 0.28137 0.0
H1802 H 0.81355 0.86946 0.29035 0.0
H1803 H 0.83129 0.85787 0.31529 0.0
H1804 H 0.85452 0.8892 0.31157 0.0
H1805 H 0.83666 0.90105 0.28659 0.0
H1806 H 0.8626 0.8981 0.27524 0.0
H1807 H 0.86382 0.85127 0.18013 0.0
H1808 H 0.83182 0.86146 0.15631 0.0
H1809 H 0.81029 0.88446 0.24148 0.0
C1810 C 0.87152 0.8456 0.29684 0.0
C1811 C 0.88574 0.83025 0.29068 0.0
C1812 C 0.89275 0.82762 0.26093 0.0
C1813 C 0.88444 0.83895 0.23732 0.0
C1814 C 0.86946 0.8531 0.24395 0.0
C1815 C 0.86335 0.85675 0.27314 0.0
C1816 C 0.84483 0.87017 0.27408 0.0
C1817 C 0.82736 0.86 0.29125 0.0
C1818 C 0.84997 0.89086 0.28767 0.0
C1819 C 0.84034 0.87198 0.24086 0.0
C1820 C 0.85508 0.86254 0.2238 0.0
C1821 C 0.8526 0.85935 0.19307 0.0
C1822 C 0.83435 0.86513 0.17973 0.0
C1823 C 0.81884 0.87405 0.19706 0.0
C1824 C 0.82226 0.87836 0.22762 0.0
H1825 H 0.17092 0.85203 0.30901 0.0
H1826 H 0.19939 0.89601 0.25049 0.0
H1827 H 0.17757 0.88482 0.20871 0.0
H1828 H 0.16999 0.81355 0.25897 0.0
H1829 H 0.146 0.80319 0.27012 0.0
H1830 H 0.16074 0.81728 0.29666 0.0
H1831 H 0.13068 0.84157 0.3056 0.0
H1832 H 0.11575 0.82745 0.27906 0.0
H1833 H 0.1192 0.85423 0.27411 0.0
H1834 H 0.1573 0.86502 0.17175 0.0
H1835 H 0.14008 0.83844 0.14261 0.0
H1836 H 0.1243 0.80766 0.22529 0.0
C1837 C 0.1722 0.85975 0.28766 0.0
C1838 C 0.18686 0.87494 0.28305 0.0
C1839 C 0.18821 0.88443 0.25463 0.0
C1840 C 0.17582 0.87821 0.23078 0.0
C1841 C 0.162 0.86269 0.23586 0.0
C1842 C 0.15998 0.85374 0.26372 0.0
C1843 C 0.14567 0.83593 0.2626 0.0
C1844 C 0.15624 0.81634 0.27266 0.0
C1845 C 0.1267 0.84005 0.28146 0.0
C1846 C 0.14077 0.83556 0.22941 0.0
C1847 C 0.15006 0.85134 0.21447 0.0
C1848 C 0.14957 0.8529 0.18328 0.0
C1849 C 0.13981 0.8377 0.16692 0.0
C1850 C 0.13069 0.82112 0.18175 0.0
C1851 C 0.13067 0.82042 0.21342 0.0
H1852 H 0.87642 0.8036 0.75175 0.0
H1853 H 0.87924 0.85065 0.68451 0.0
H1854 H 0.86318 0.87451 0.71969 0.0
H1855 H 0.82959 0.81188 0.77068 0.0
H1856 H 0.83129 0.80684 0.8104 0.0
H1857 H 0.8492 0.79572 0.78521 0.0
H1858 H 0.87865 0.81153 0.8153 0.0
H1859 H 0.86074 0.82261 0.84098 0.0
H1860 H 0.87898 0.83835 0.82219 0.0
H1861 H 0.83974 0.89024 0.75572 0.0
H1862 H 0.81038 0.89609 0.78859 0.0
H1863 H 0.82133 0.83861 0.83235 0.0
C1864 C 0.87471 0.81927 0.74527 0.0
C1865 C 0.87942 0.82552 0.71585 0.0
C1866 C 0.87604 0.84578 0.70725 0.0
C1867 C 0.86698 0.85943 0.72714 0.0
C1868 C 0.8613 0.85254 0.75549 0.0
C1869 C 0.86522 0.83293 0.76471 0.0
C1870 C 0.8541 0.82807 0.79354 0.0
C1871 C 0.84022 0.80956 0.78968 0.0
C1872 C 0.86901 0.82496 0.81955 0.0
C1873 C 0.8421 0.84733 0.7977 0.0
C1874 C 0.84701 0.86154 0.77619 0.0
C1875 C 0.83614 0.87948 0.7732 0.0
C1876 C 0.81943 0.88266 0.79194 0.0
C1877 C 0.81354 0.86781 0.81304 0.0
C1878 C 0.82558 0.85036 0.81668 0.0
H1879 H 0.16375 0.85446 0.67643 0.0
H1880 H 0.18984 0.89974 0.73522 0.0
H1881 H 0.16811 0.88778 0.77663 0.0
H1882 H 0.11161 0.85426 0.7107 0.0
H1883 H 0.10954 0.82733 0.70576 0.0
H1884 H 0.12386 0.84217 0.67934 0.0
H1885 H 0.15505 0.81943 0.6886 0.0
H1886 H 0.14093 0.80464 0.71504 0.0
H1887 H 0.16433 0.81622 0.72638 0.0
H1888 H 0.14863 0.8671 0.81335 0.0
H1889 H 0.13291 0.8396 0.84242 0.0
H1890 H 0.11906 0.80791 0.75974 0.0
C1891 C 0.16448 0.86232 0.69773 0.0
C1892 C 0.17849 0.87809 0.70255 0.0
C1893 C 0.17916 0.88772 0.73092 0.0
C1894 C 0.16681 0.88106 0.75455 0.0
C1895 C 0.15371 0.86495 0.74931 0.0
C1896 C 0.15231 0.85585 0.72147 0.0
C1897 C 0.13892 0.83733 0.72249 0.0
C1898 C 0.11984 0.84047 0.70344 0.0
C1899 C 0.15051 0.8183 0.71256 0.0
C1900 C 0.13389 0.83674 0.75563 0.0
C1901 C 0.14225 0.85303 0.77061 0.0
C1902 C 0.1416 0.85457 0.80179 0.0
C1903 C 0.1327 0.83884 0.81812 0.0
C1904 C 0.12459 0.82175 0.80326 0.0
C1905 C 0.12464 0.82105 0.77159 0.0
H1906 H 0.14466 0.17418 0.68291 0.0
H1907 H 0.09909 0.19988 0.74162 0.0
H1908 H 0.11105 0.17807 0.78294 0.0
H1909 H 0.14469 0.12194 0.71637 0.0
H1910 H 0.17161 0.11978 0.71174 0.0
H1911 H 0.157 0.13439 0.68538 0.0
H1912 H 0.17978 0.16543 0.69551 0.0
H1913 H 0.19436 0.15101 0.72187 0.0
H1914 H 0.18283 0.17439 0.73349 0.0
H1915 H 0.13147 0.15839 0.8195 0.0
H1916 H 0.15859 0.14208 0.84863 0.0
H1917 H 0.19064 0.12851 0.76618 0.0
C1918 C 0.13678 0.17484 0.70419 0.0
C1919 C 0.12089 0.18873 0.70901 0.0
C1920 C 0.11122 0.1893 0.73735 0.0
C1921 C 0.11786 0.17691 0.76091 0.0
C1922 C 0.13401 0.16387 0.75564 0.0
C1923 C 0.14322 0.1626 0.72787 0.0
C1924 C 0.16166 0.1491 0.72887 0.0
C1925 C 0.15854 0.13018 0.70944 0.0
C1926 C 0.18077 0.16068 0.71939 0.0
C1927 C 0.16204 0.14381 0.76193 0.0
C1928 C 0.14575 0.1522 0.77685 0.0
C1929 C 0.144 0.15132 0.80798 0.0
C1930 C 0.15951 0.1421 0.82433 0.0
C1931 C 0.17654 0.13386 0.80955 0.0
C1932 C 0.1775 0.1342 0.77791 0.0
H1933 H 0.86629 0.1923 0.75378 0.0
H1934 H 0.8568 0.15841 0.8358 0.0
H1935 H 0.84255 0.13022 0.80659 0.0
H1936 H 0.82129 0.1818 0.72356 0.0
H1937 H 0.82916 0.17972 0.68492 0.0
H1938 H 0.84357 0.19477 0.71066 0.0
H1939 H 0.87567 0.17406 0.69815 0.0
H1940 H 0.86131 0.15896 0.67211 0.0
H1941 H 0.87526 0.14697 0.70192 0.0
H1942 H 0.82343 0.10908 0.77083 0.0
H1943 H 0.80041 0.09694 0.73121 0.0
H1944 H 0.82166 0.14452 0.6721 0.0
C1945 C 0.86203 0.17855 0.76531 0.0
C1946 C 0.86281 0.17734 0.79688 0.0
C1947 C 0.8564 0.1595 0.81153 0.0
C1948 C 0.84841 0.14337 0.79512 0.0
C1949 C 0.84694 0.14531 0.76406 0.0
C1950 C 0.85371 0.16239 0.74921 0.0
C1951 C 0.84749 0.16207 0.7165 0.0
C1952 C 0.83461 0.18068 0.70847 0.0
C1953 C 0.86604 0.16041 0.69596 0.0
C1954 C 0.83515 0.14283 0.71581 0.0
C1955 C 0.83547 0.1331 0.74324 0.0
C1956 C 0.82344 0.11626 0.749 0.0
C1957 C 0.81034 0.10951 0.72639 0.0
C1958 C 0.80925 0.11974 0.69854 0.0
C1959 C 0.82232 0.13619 0.69299 0.0
H1960 H 0.68892 0.63271 0.73308 0.0
H1961 H 0.6518 0.63702 0.65337 0.0
H1962 H 0.62335 0.64937 0.68399 0.0
H1963 H 0.64606 0.62223 0.78981 0.0
H1964 H 0.65809 0.63823 0.81721 0.0
H1965 H 0.67319 0.62377 0.79126 0.0
H1966 H 0.69112 0.65655 0.77408 0.0
H1967 H 0.67613 0.67102 0.79976 0.0
H1968 H 0.6762 0.67736 0.76038 0.0
H1969 H 0.60201 0.66797 0.71999 0.0
H1970 H 0.59054 0.69294 0.75733 0.0
H1971 H 0.6416 0.67782 0.814 0.0
C1972 C 0.67444 0.63528 0.72249 0.0
C1973 C 0.67231 0.63359 0.6911 0.0
C1974 C 0.65354 0.638 0.67752 0.0
C1975 C 0.63728 0.6449 0.69477 0.0
C1976 C 0.64006 0.6474 0.72557 0.0
C1977 C 0.65818 0.64263 0.73939 0.0
C1978 C 0.65862 0.65026 0.77146 0.0
C1979 C 0.659 0.63256 0.79375 0.0
C1980 C 0.67656 0.66465 0.77668 0.0
C1981 C 0.63863 0.66132 0.77274 0.0
C1982 C 0.62782 0.65888 0.74645 0.0
C1983 C 0.61007 0.6696 0.74099 0.0
C1984 C 0.60366 0.6838 0.76235 0.0
C1985 C 0.61517 0.68737 0.78859 0.0
C1986 C 0.63234 0.67529 0.79433 0.0
H1987 H 0.30045 0.61721 0.75457 0.0
H1988 H 0.33824 0.62362 0.83337 0.0
H1989 H 0.36429 0.64048 0.80282 0.0
H1990 H 0.34316 0.61287 0.69666 0.0
H1991 H 0.32903 0.62783 0.67018 0.0
H1992 H 0.31601 0.61143 0.69605 0.0
H1993 H 0.29485 0.64183 0.71468 0.0
H1994 H 0.30794 0.65834 0.68935 0.0
H1995 H 0.30758 0.66389 0.72899 0.0
H1996 H 0.38265 0.66255 0.7671 0.0
H1997 H 0.39227 0.68746 0.72842 0.0
H1998 H 0.34231 0.66745 0.67285 0.0
C1999 C 0.31466 0.62125 0.76495 0.0
C2000 C 0.31754 0.6189 0.79612 0.0
C2001 C 0.33591 0.62514 0.80939 0.0
C2002 C 0.3508 0.63467 0.7922 0.0
C2003 C 0.34709 0.63783 0.76178 0.0
C2004 C 0.32956 0.63108 0.74813 0.0
C2005 C 0.32785 0.63908 0.71636 0.0
C2006 C 0.32909 0.62176 0.69346 0.0
C2007 C 0.30842 0.65152 0.71214 0.0
C2008 C 0.34646 0.65228 0.71499 0.0
C2009 C 0.35762 0.65099 0.74111 0.0
C2010 C 0.37433 0.66333 0.74621 0.0
C2011 C 0.37962 0.67752 0.72419 0.0
C2012 C 0.36809 0.67939 0.69757 0.0
C2013 C 0.3516 0.66625 0.69278 0.0
H2014 H 0.37805 0.30571 0.75686 0.0
H2015 H 0.36749 0.3403 0.83802 0.0
H2016 H 0.35041 0.36669 0.80837 0.0
H2017 H 0.38313 0.35027 0.70352 0.0
H2018 H 0.36971 0.33691 0.67446 0.0
H2019 H 0.38519 0.32319 0.70077 0.0
H2020 H 0.35455 0.30079 0.71468 0.0
H2021 H 0.33897 0.3145 0.68876 0.0
H2022 H 0.33162 0.31258 0.72764 0.0
H2023 H 0.32957 0.3862 0.77188 0.0
H2024 H 0.30655 0.39708 0.73133 0.0
H2025 H 0.33007 0.3495 0.6741 0.0
C2026 C 0.3729 0.31926 0.76812 0.0
C2027 C 0.37426 0.32112 0.7996 0.0
C2028 C 0.36668 0.33868 0.81383 0.0
C2029 C 0.35704 0.3538 0.79717 0.0
C2030 C 0.35511 0.35114 0.76628 0.0
C2031 C 0.36297 0.33438 0.75182 0.0
C2032 C 0.35647 0.33375 0.71925 0.0
C2033 C 0.37471 0.33618 0.69826 0.0
C2034 C 0.3447 0.31426 0.7122 0.0
C2035 C 0.34294 0.35215 0.71812 0.0
C2036 C 0.34269 0.36225 0.74524 0.0
C2037 C 0.32995 0.37868 0.75031 0.0
C2038 C 0.31688 0.38472 0.72719 0.0
C2039 C 0.3165 0.37418 0.69953 0.0
C2040 C 0.33008 0.358 0.69488 0.0
H2041 H 0.64637 0.3398 0.68635 0.0
H2042 H 0.60197 0.31335 0.74612 0.0
H2043 H 0.61163 0.33784 0.78555 0.0
H2044 H 0.68352 0.3436 0.73655 0.0
H2045 H 0.69392 0.36715 0.72344 0.0
H2046 H 0.68022 0.35126 0.69799 0.0
H2047 H 0.65592 0.38079 0.6857 0.0
H2048 H 0.66966 0.39688 0.71119 0.0
H2049 H 0.64285 0.39351 0.71575 0.0
H2050 H 0.63073 0.35989 0.82094 0.0
H2051 H 0.65754 0.37719 0.84936 0.0
H2052 H 0.68943 0.38958 0.7664 0.0
C2053 C 0.6382 0.33953 0.70741 0.0
C2054 C 0.62342 0.32466 0.71321 0.0
C2055 C 0.61324 0.3247 0.74113 0.0
C2056 C 0.61859 0.3386 0.76359 0.0
C2057 C 0.63388 0.35253 0.75752 0.0
C2058 C 0.64336 0.35324 0.72991 0.0
C2059 C 0.6611 0.36764 0.73014 0.0
C2060 C 0.68084 0.35675 0.72155 0.0
C2061 C 0.65714 0.38578 0.70947 0.0
C2062 C 0.66104 0.37392 0.76278 0.0
C2063 C 0.64491 0.36546 0.77803 0.0
C2064 C 0.64308 0.36702 0.80911 0.0
C2065 C 0.65843 0.37683 0.82507 0.0
C2066 C 0.67545 0.38486 0.80998 0.0
C2067 C 0.67632 0.38407 0.77837 0.0
H2068 H 0.3817 0.30194 0.22021 0.0
H2069 H 0.36809 0.33449 0.13821 0.0
H2070 H 0.35029 0.36059 0.16751 0.0
H2071 H 0.33543 0.30742 0.25135 0.0
H2072 H 0.3435 0.3104 0.28975 0.0
H2073 H 0.35908 0.29682 0.26365 0.0
H2074 H 0.38906 0.32069 0.27515 0.0
H2075 H 0.37358 0.33429 0.30161 0.0
H2076 H 0.38583 0.3476 0.27136 0.0
H2077 H 0.32937 0.37993 0.20416 0.0
H2078 H 0.30698 0.39086 0.24547 0.0
H2079 H 0.33366 0.34545 0.30349 0.0
C2080 C 0.37569 0.31501 0.20864 0.0
C2081 C 0.37644 0.31636 0.17705 0.0
C2082 C 0.36776 0.33327 0.16247 0.0
C2083 C 0.35769 0.34821 0.17892 0.0
C2084 C 0.35644 0.34604 0.20997 0.0
C2085 C 0.36534 0.32995 0.22475 0.0
C2086 C 0.35955 0.32972 0.25764 0.0
C2087 C 0.34875 0.30992 0.26606 0.0
C2088 C 0.37811 0.33329 0.27762 0.0
C2089 C 0.3453 0.34757 0.25866 0.0
C2090 C 0.34402 0.35707 0.23112 0.0
C2091 C 0.33055 0.37289 0.22602 0.0
C2092 C 0.31784 0.37897 0.24958 0.0
C2093 C 0.31856 0.36906 0.27774 0.0
C2094 C 0.33283 0.35348 0.28235 0.0
H2095 H 0.65735 0.33495 0.3047 0.0
H2096 H 0.61369 0.30565 0.24662 0.0
H2097 H 0.62389 0.32815 0.20496 0.0
H2098 H 0.65349 0.38691 0.27066 0.0
H2099 H 0.68018 0.39099 0.27531 0.0
H2100 H 0.66661 0.37555 0.30184 0.0
H2101 H 0.69157 0.34613 0.29218 0.0
H2102 H 0.70512 0.36138 0.26566 0.0
H2103 H 0.69529 0.33719 0.25432 0.0
H2104 H 0.64296 0.34923 0.16797 0.0
H2105 H 0.66901 0.36712 0.13875 0.0
H2106 H 0.69996 0.38306 0.22121 0.0
C2107 C 0.64949 0.3336 0.28347 0.0
C2108 C 0.63471 0.31854 0.27889 0.0
C2109 C 0.62496 0.31716 0.25069 0.0
C2110 C 0.63062 0.32992 0.22694 0.0
C2111 C 0.6458 0.34414 0.23197 0.0
C2112 C 0.65493 0.34619 0.25969 0.0
C2113 C 0.67236 0.36094 0.25856 0.0
C2114 C 0.66788 0.37971 0.27773 0.0
C2115 C 0.69225 0.35079 0.26823 0.0
C2116 C 0.6724 0.36605 0.22546 0.0
C2117 C 0.65672 0.35651 0.21061 0.0
C2118 C 0.65498 0.35715 0.17945 0.0
C2119 C 0.66989 0.36729 0.16304 0.0
C2120 C 0.68639 0.37661 0.17778 0.0
C2121 C 0.68725 0.37651 0.20943 0.0
H2122 H 0.67452 0.64422 0.3003 0.0
H2123 H 0.71487 0.61533 0.23685 0.0
H2124 H 0.69299 0.62651 0.19504 0.0
H2125 H 0.62594 0.63594 0.25554 0.0
H2126 H 0.61656 0.66026 0.26718 0.0
H2127 H 0.63243 0.64577 0.29204 0.0
H2128 H 0.65698 0.67607 0.29625 0.0
H2129 H 0.64134 0.69054 0.27145 0.0
H2130 H 0.66759 0.68675 0.26251 0.0
H2131 H 0.67197 0.64758 0.16072 0.0
H2132 H 0.65294 0.67538 0.13701 0.0
H2133 H 0.62513 0.68941 0.22253 0.0
C2134 C 0.67837 0.63963 0.27767 0.0
C2135 C 0.69637 0.62895 0.27175 0.0
C2136 C 0.70104 0.62336 0.24188 0.0
C2137 C 0.68867 0.62963 0.21801 0.0
C2138 C 0.67148 0.64103 0.22454 0.0
C2139 C 0.66612 0.64562 0.25376 0.0
C2140 C 0.6485 0.66015 0.25481 0.0
C2141 C 0.62975 0.64991 0.26818 0.0
C2142 C 0.65395 0.67951 0.27225 0.0
C2143 C 0.64573 0.66427 0.22165 0.0
C2144 C 0.65885 0.65278 0.20449 0.0
C2145 C 0.66117 0.65613 0.17377 0.0
C2146 C 0.65035 0.67198 0.1605 0.0
C2147 C 0.63733 0.68425 0.1779 0.0
C2148 C 0.63443 0.67979 0.20855 0.0
H2149 H 0.32537 0.63422 0.17818 0.0
H2150 H 0.2964 0.59025 0.23618 0.0
H2151 H 0.31747 0.60179 0.27854 0.0
H2152 H 0.37671 0.63305 0.21578 0.0
H2153 H 0.37972 0.65985 0.21042 0.0
H2154 H 0.36578 0.64516 0.18337 0.0
H2155 H 0.33508 0.66895 0.19006 0.0
H2156 H 0.34877 0.68356 0.21722 0.0
H2157 H 0.32471 0.67276 0.22709 0.0
H2158 H 0.33615 0.62233 0.31601 0.0
H2159 H 0.3519 0.64956 0.34559 0.0
H2160 H 0.36934 0.67999 0.26337 0.0
C2161 C 0.32391 0.62652 0.19953 0.0
C2162 C 0.30924 0.6113 0.20386 0.0
C2163 C 0.30761 0.60185 0.23227 0.0
C2164 C 0.31956 0.60828 0.25645 0.0
C2165 C 0.33325 0.62394 0.2517 0.0
C2166 C 0.3357 0.63275 0.22382 0.0
C2167 C 0.34958 0.65089 0.22536 0.0
C2168 C 0.36911 0.647 0.20769 0.0
C2169 C 0.33889 0.67016 0.2143 0.0
C2170 C 0.35361 0.65166 0.25879 0.0
C2171 C 0.34435 0.63576 0.27349 0.0
C2172 C 0.34392 0.63452 0.30471 0.0
C2173 C 0.3528 0.65012 0.32131 0.0
C2174 C 0.36198 0.66673 0.30669 0.0
C2175 C 0.36288 0.66719 0.27505 0.0
loop_
_geom_bond_atom_site_label_1
_geom_bond_atom_site_label_2
_geom_bond_distance
_geom_bond_site_symmetry_2
_ccdc_geom_bond_type
Zn0 O3 2.031 . S
Zn0 O5 2.049 . S
Zn0 O10 2.067 . S
Zn1 O2 1.962 . S
Zn1 O4 1.986 . S
Zn1 O6 1.996 . S
Zn1 O9 1.943 . S
O2 Zn1 1.962 . S
O2 C7 1.254 . S
O3 Zn0 2.031 . S
O3 C7 1.269 . S
O4 Zn1 1.986 . S
O4 C11 1.262 . S
O5 Zn0 2.049 . S
O5 C13 1.260 . S
O6 Zn1 1.996 . S
O6 C13 1.257 . S
C7 O2 1.254 . S
C7 O3 1.269 . S
C8 O9 1.249 . S
C8 O10 1.270 . S
O9 Zn1 1.943 . S
O9 C8 1.249 . S
O10 Zn0 2.067 . S
O10 C8 1.270 . S
C11 O4 1.262 . S
C11 O12 1.232 . S
O12 C11 1.232 . S
C13 O5 1.260 . S
C13 O6 1.257 . S
Zn14 O17 2.031 . S
Zn14 O19 2.049 . S
Zn14 O24 2.067 . S
Zn15 O16 1.962 . S
Zn15 O18 1.986 . S
Zn15 O20 1.996 . S
Zn15 O23 1.943 . S
O16 Zn15 1.962 . S
O16 C21 1.254 . S
O17 Zn14 2.031 . S
O17 C21 1.269 . S
O18 Zn15 1.986 . S
O18 C25 1.262 . S
O19 Zn14 2.049 . S
O19 C27 1.260 . S
O20 Zn15 1.996 . S
O20 C27 1.257 . S
C21 O16 1.254 . S
C21 O17 1.269 . S
C22 O23 1.249 . S
C22 O24 1.270 . S
O23 Zn15 1.943 . S
O23 C22 1.249 . S
O24 Zn14 2.067 . S
O24 C22 1.270 . S
C25 O18 1.262 . S
C25 O26 1.232 . S
O26 C25 1.232 . S
C27 O19 1.260 . S
C27 O20 1.257 . S
Zn28 O31 2.031 . S
Zn28 O33 2.049 . S
Zn28 O38 2.067 . S
Zn29 O30 1.962 . S
Zn29 O32 1.986 . S
Zn29 O34 1.996 . S
Zn29 O37 1.943 . S
O30 Zn29 1.962 . S
O30 C35 1.254 . S
O31 Zn28 2.031 . S
O31 C35 1.269 . S
O32 Zn29 1.986 . S
O32 C39 1.262 . S
O33 Zn28 2.049 . S
O33 C41 1.260 . S
O34 Zn29 1.996 . S
O34 C41 1.257 . S
C35 O30 1.254 . S
C35 O31 1.269 . S
C36 O37 1.249 . S
C36 O38 1.270 . S
O37 Zn29 1.943 . S
O37 C36 1.249 . S
O38 Zn28 2.067 . S
O38 C36 1.270 . S
C39 O32 1.262 . S
C39 O40 1.232 . S
O40 C39 1.232 . S
C41 O33 1.260 . S
C41 O34 1.257 . S
Zn42 O45 2.031 . S
Zn42 O47 2.049 . S
Zn42 O52 2.067 . S
Zn43 O44 1.962 . S
Zn43 O46 1.986 . S
Zn43 O48 1.996 . S
Zn43 O51 1.943 . S
O44 Zn43 1.962 . S
O44 C49 1.254 . S
O45 Zn42 2.031 . S
O45 C49 1.269 . S
O46 Zn43 1.986 . S
O46 C53 1.262 . S
O47 Zn42 2.049 . S
O47 C55 1.260 . S
O48 Zn43 1.996 . S
O48 C55 1.257 . S
C49 O44 1.254 . S
C49 O45 1.269 . S
C50 O51 1.249 . S
C50 O52 1.270 . S
O51 Zn43 1.943 . S
O51 C50 1.249 . S
O52 Zn42 2.067 . S
O52 C50 1.270 . S
C53 O46 1.262 . S
C53 O54 1.232 . S
O54 C53 1.232 . S
C55 O47 1.260 . S
C55 O48 1.257 . S
Zn56 O59 2.031 . S
Zn56 O61 2.049 . S
Zn56 O66 2.067 . S
Zn57 O58 1.962 . S
Zn57 O60 1.986 . S
Zn57 O62 1.996 . S
Zn57 O65 1.943 . S
O58 Zn57 1.962 . S
O58 C63 1.254 . S
O59 Zn56 2.031 . S
O59 C63 1.269 . S
O60 Zn57 1.986 . S
O60 C67 1.262 . S
O61 Zn56 2.049 . S
O61 C69 1.260 . S
O62 Zn57 1.996 . S
O62 C69 1.257 . S
C63 O58 1.254 . S
C63 O59 1.269 . S
C64 O65 1.249 . S
C64 O66 1.270 . S
O65 Zn57 1.943 . S
O65 C64 1.249 . S
O66 Zn56 2.067 . S
O66 C64 1.270 . S
C67 O60 1.262 . S
C67 O68 1.232 . S
O68 C67 1.232 . S
C69 O61 1.260 . S
C69 O62 1.257 . S
Zn70 O73 2.031 . S
Zn70 O75 2.049 . S
Zn70 O80 2.067 . S
Zn71 O72 1.962 . S
Zn71 O74 1.986 . S
Zn71 O76 1.996 . S
Zn71 O79 1.943 . S
O72 Zn71 1.962 . S
O72 C77 1.254 . S
O73 Zn70 2.031 . S
O73 C77 1.269 . S
O74 Zn71 1.986 . S
O74 C81 1.262 . S
O75 Zn70 2.049 . S
O75 C83 1.260 . S
O76 Zn71 1.996 . S
O76 C83 1.257 . S
C77 O72 1.254 . S
C77 O73 1.269 . S
C78 O79 1.249 . S
C78 O80 1.270 . S
O79 Zn71 1.943 . S
O79 C78 1.249 . S
O80 Zn70 2.067 . S
O80 C78 1.270 . S
C81 O74 1.262 . S
C81 O82 1.232 . S
O82 C81 1.232 . S
C83 O75 1.260 . S
C83 O76 1.257 . S
Zn84 O87 2.031 . S
Zn84 O89 2.049 . S
Zn84 O94 2.067 . S
Zn85 O86 1.962 . S
Zn85 O88 1.986 . S
Zn85 O90 1.996 . S
Zn85 O93 1.943 . S
O86 Zn85 1.962 . S
O86 C91 1.254 . S
O87 Zn84 2.031 . S
O87 C91 1.269 . S
O88 Zn85 1.986 . S
O88 C95 1.262 . S
O89 Zn84 2.049 . S
O89 C97 1.260 . S
O90 Zn85 1.996 . S
O90 C97 1.257 . S
C91 O86 1.254 . S
C91 O87 1.269 . S
C92 O93 1.249 . S
C92 O94 1.270 . S
O93 Zn85 1.943 . S
O93 C92 1.249 . S
O94 Zn84 2.067 . S
O94 C92 1.270 . S
C95 O88 1.262 . S
C95 O96 1.232 . S
O96 C95 1.232 . S
C97 O89 1.260 . S
C97 O90 1.257 . S
Zn98 O101 2.031 . S
Zn98 O103 2.049 . S
Zn98 O108 2.067 . S
Zn99 O100 1.962 . S
Zn99 O102 1.986 . S
Zn99 O104 1.996 . S
Zn99 O107 1.943 . S
O100 Zn99 1.962 . S
O100 C105 1.254 . S
O101 Zn98 2.031 . S
O101 C105 1.269 . S
O102 Zn99 1.986 . S
O102 C109 1.262 . S
O103 Zn98 2.049 . S
O103 C111 1.260 . S
O104 Zn99 1.996 . S
O104 C111 1.257 . S
C105 O100 1.254 . S
C105 O101 1.269 . S
C106 O107 1.249 . S
C106 O108 1.270 . S
O107 Zn99 1.943 . S
O107 C106 1.249 . S
O108 Zn98 2.067 . S
O108 C106 1.270 . S
C109 O102 1.262 . S
C109 O110 1.232 . S
O110 C109 1.232 . S
C111 O103 1.260 . S
C111 O104 1.257 . S
Zn112 O115 2.031 . S
Zn112 O117 2.049 . S
Zn112 O122 2.067 . S
Zn113 O114 1.962 . S
Zn113 O116 1.986 . S
Zn113 O118 1.996 . S
Zn113 O121 1.943 . S
O114 Zn113 1.962 . S
O114 C119 1.254 . S
O115 Zn112 2.031 . S
O115 C119 1.269 . S
O116 Zn113 1.986 . S
O116 C123 1.262 . S
O117 Zn112 2.049 . S
O117 C125 1.260 . S
O118 Zn113 1.996 . S
O118 C125 1.257 . S
C119 O114 1.254 . S
C119 O115 1.269 . S
C120 O121 1.249 . S
C120 O122 1.270 . S
O121 Zn113 1.943 . S
O121 C120 1.249 . S
O122 Zn112 2.067 . S
O122 C120 1.270 . S
C123 O116 1.262 . S
C123 O124 1.232 . S
O124 C123 1.232 . S
C125 O117 1.260 . S
C125 O118 1.257 . S
Zn126 O129 2.031 . S
Zn126 O131 2.049 . S
Zn126 O136 2.067 . S
Zn127 O128 1.962 . S
Zn127 O130 1.986 . S
Zn127 O132 1.996 . S
Zn127 O135 1.943 . S
O128 Zn127 1.962 . S
O128 C133 1.254 . S
O129 Zn126 2.031 . S
O129 C133 1.269 . S
O130 Zn127 1.986 . S
O130 C137 1.262 . S
O131 Zn126 2.049 . S
O131 C139 1.260 . S
O132 Zn127 1.996 . S
O132 C139 1.257 . S
C133 O128 1.254 . S
C133 O129 1.269 . S
C134 O135 1.249 . S
C134 O136 1.270 . S
O135 Zn127 1.943 . S
O135 C134 1.249 . S
O136 Zn126 2.067 . S
O136 C134 1.270 . S
C137 O130 1.262 . S
C137 O138 1.232 . S
O138 C137 1.232 . S
C139 O131 1.260 . S
C139 O132 1.257 . S
Zn140 O143 2.031 . S
Zn140 O145 2.049 . S
Zn140 O150 2.067 . S
Zn141 O142 1.962 . S
Zn141 O144 1.986 . S
Zn141 O146 1.996 . S
Zn141 O149 1.943 . S
O142 Zn141 1.962 . S
O142 C147 1.254 . S
O143 Zn140 2.031 . S
O143 C147 1.269 . S
O144 Zn141 1.986 . S
O144 C151 1.262 . S
O145 Zn140 2.049 . S
O145 C153 1.260 . S
O146 Zn141 1.996 . S
O146 C153 1.257 . S
C147 O142 1.254 . S
C147 O143 1.269 . S
C148 O149 1.249 . S
C148 O150 1.270 . S
O149 Zn141 1.943 . S
O149 C148 1.249 . S
O150 Zn140 2.067 . S
O150 C148 1.270 . S
C151 O144 1.262 . S
C151 O152 1.232 . S
O152 C151 1.232 . S
C153 O145 1.260 . S
C153 O146 1.257 . S
Zn154 O157 2.031 . S
Zn154 O159 2.049 . S
Zn154 O164 2.067 . S
Zn155 O156 1.962 . S
Zn155 O158 1.986 . S
Zn155 O160 1.996 . S
Zn155 O163 1.943 . S
O156 Zn155 1.962 . S
O156 C161 1.254 . S
O157 Zn154 2.031 . S
O157 C161 1.269 . S
O158 Zn155 1.986 . S
O158 C165 1.262 . S
O159 Zn154 2.049 . S
O159 C167 1.260 . S
O160 Zn155 1.996 . S
O160 C167 1.257 . S
C161 O156 1.254 . S
C161 O157 1.269 . S
C162 O163 1.249 . S
C162 O164 1.270 . S
O163 Zn155 1.943 . S
O163 C162 1.249 . S
O164 Zn154 2.067 . S
O164 C162 1.270 . S
C165 O158 1.262 . S
C165 O166 1.232 . S
O166 C165 1.232 . S
C167 O159 1.260 . S
C167 O160 1.257 . S
Zn168 O171 2.031 . S
Zn168 O173 2.049 . S
Zn168 O178 2.067 . S
Zn169 O170 1.962 . S
Zn169 O172 1.986 . S
Zn169 O174 1.996 . S
Zn169 O177 1.943 . S
O170 Zn169 1.962 . S
O170 C175 1.254 . S
O171 Zn168 2.031 . S
O171 C175 1.269 . S
O172 Zn169 1.986 . S
O172 C179 1.262 . S
O173 Zn168 2.049 . S
O173 C181 1.260 . S
O174 Zn169 1.996 . S
O174 C181 1.257 . S
C175 O170 1.254 . S
C175 O171 1.269 . S
C176 O177 1.249 . S
C176 O178 1.270 . S
O177 Zn169 1.943 . S
O177 C176 1.249 . S
O178 Zn168 2.067 . S
O178 C176 1.270 . S
C179 O172 1.262 . S
C179 O180 1.232 . S
O180 C179 1.232 . S
C181 O173 1.260 . S
C181 O174 1.257 . S
Zn182 O185 2.031 . S
Zn182 O187 2.049 . S
Zn182 O192 2.067 . S
Zn183 O184 1.962 . S
Zn183 O186 1.986 . S
Zn183 O188 1.996 . S
Zn183 O191 1.943 . S
O184 Zn183 1.962 . S
O184 C189 1.254 . S
O185 Zn182 2.031 . S
O185 C189 1.269 . S
O186 Zn183 1.986 . S
O186 C193 1.262 . S
O187 Zn182 2.049 . S
O187 C195 1.260 . S
O188 Zn183 1.996 . S
O188 C195 1.257 . S
C189 O184 1.254 . S
C189 O185 1.269 . S
C190 O191 1.249 . S
C190 O192 1.270 . S
O191 Zn183 1.943 . S
O191 C190 1.249 . S
O192 Zn182 2.067 . S
O192 C190 1.270 . S
C193 O186 1.262 . S
C193 O194 1.232 . S
O194 C193 1.232 . S
C195 O187 1.260 . S
C195 O188 1.257 . S
Zn196 O199 2.031 . S
Zn196 O201 2.049 . S
Zn196 O206 2.067 . S
Zn197 O198 1.962 . S
Zn197 O200 1.986 . S
Zn197 O202 1.996 . S
Zn197 O205 1.943 . S
O198 Zn197 1.962 . S
O198 C203 1.254 . S
O199 Zn196 2.031 . S
O199 C203 1.269 . S
O200 Zn197 1.986 . S
O200 C207 1.262 . S
O201 Zn196 2.049 . S
O201 C209 1.260 . S
O202 Zn197 1.996 . S
O202 C209 1.257 . S
C203 O198 1.254 . S
C203 O199 1.269 . S
C204 O205 1.249 . S
C204 O206 1.270 . S
O205 Zn197 1.943 . S
O205 C204 1.249 . S
O206 Zn196 2.067 . S
O206 C204 1.270 . S
C207 O200 1.262 . S
C207 O208 1.232 . S
O208 C207 1.232 . S
C209 O201 1.260 . S
C209 O202 1.257 . S
Zn210 O213 2.031 . S
Zn210 O215 2.049 . S
Zn210 O220 2.067 . S
Zn211 O212 1.962 . S
Zn211 O214 1.986 . S
Zn211 O216 1.996 . S
Zn211 O219 1.943 . S
O212 Zn211 1.962 . S
O212 C217 1.254 . S
O213 Zn210 2.031 . S
O213 C217 1.269 . S
O214 Zn211 1.986 . S
O214 C221 1.262 . S
O215 Zn210 2.049 . S
O215 C223 1.260 . S
O216 Zn211 1.996 . S
O216 C223 1.257 . S
C217 O212 1.254 . S
C217 O213 1.269 . S
C218 O219 1.249 . S
C218 O220 1.270 . S
O219 Zn211 1.943 . S
O219 C218 1.249 . S
O220 Zn210 2.067 . S
O220 C218 1.270 . S
C221 O214 1.262 . S
C221 O222 1.232 . S
O222 C221 1.232 . S
C223 O215 1.260 . S
C223 O216 1.257 . S
Zn224 O227 2.031 . S
Zn224 O229 2.049 . S
Zn224 O234 2.067 . S
Zn225 O226 1.962 . S
Zn225 O228 1.986 . S
Zn225 O230 1.996 . S
Zn225 O233 1.943 . S
O226 Zn225 1.962 . S
O226 C231 1.254 . S
O227 Zn224 2.031 . S
O227 C231 1.269 . S
O228 Zn225 1.986 . S
O228 C235 1.262 . S
O229 Zn224 2.049 . S
O229 C237 1.260 . S
O230 Zn225 1.996 . S
O230 C237 1.257 . S
C231 O226 1.254 . S
C231 O227 1.269 . S
C232 O233 1.249 . S
C232 O234 1.270 . S
O233 Zn225 1.943 . S
O233 C232 1.249 . S
O234 Zn224 2.067 . S
O234 C232 1.270 . S
C235 O228 1.262 . S
C235 O236 1.232 . S
O236 C235 1.232 . S
C237 O229 1.260 . S
C237 O230 1.257 . S
Zn238 O241 2.031 . S
Zn238 O243 2.049 . S
Zn238 O248 2.067 . S
Zn239 O240 1.962 . S
Zn239 O242 1.986 . S
Zn239 O244 1.996 . S
Zn239 O247 1.943 . S
O240 Zn239 1.962 . S
O240 C245 1.254 . S
O241 Zn238 2.031 . S
O241 C245 1.269 . S
O242 Zn239 1.986 . S
O242 C249 1.262 . S
O243 Zn238 2.049 . S
O243 C251 1.260 . S
O244 Zn239 1.996 . S
O244 C251 1.257 . S
C245 O240 1.254 . S
C245 O241 1.269 . S
C246 O247 1.249 . S
C246 O248 1.270 . S
O247 Zn239 1.943 . S
O247 C246 1.249 . S
O248 Zn238 2.067 . S
O248 C246 1.270 . S
C249 O242 1.262 . S
C249 O250 1.232 . S
O250 C249 1.232 . S
C251 O243 1.260 . S
C251 O244 1.257 . S
Zn252 O255 2.031 . S
Zn252 O257 2.049 . S
Zn252 O262 2.067 . S
Zn253 O254 1.962 . S
Zn253 O256 1.986 . S
Zn253 O258 1.996 . S
Zn253 O261 1.943 . S
O254 Zn253 1.962 . S
O254 C259 1.254 . S
O255 Zn252 2.031 . S
O255 C259 1.269 . S
O256 Zn253 1.986 . S
O256 C263 1.262 . S
O257 Zn252 2.049 . S
O257 C265 1.260 . S
O258 Zn253 1.996 . S
O258 C265 1.257 . S
C259 O254 1.254 . S
C259 O255 1.269 . S
C260 O261 1.249 . S
C260 O262 1.270 . S
O261 Zn253 1.943 . S
O261 C260 1.249 . S
O262 Zn252 2.067 . S
O262 C260 1.270 . S
C263 O256 1.262 . S
C263 O264 1.232 . S
O264 C263 1.232 . S
C265 O257 1.260 . S
C265 O258 1.257 . S
Zn266 O269 2.031 . S
Zn266 O271 2.049 . S
Zn266 O276 2.067 . S
Zn267 O268 1.962 . S
Zn267 O270 1.986 . S
Zn267 O272 1.996 . S
Zn267 O275 1.943 . S
O268 Zn267 1.962 . S
O268 C273 1.254 . S
O269 Zn266 2.031 . S
O269 C273 1.269 . S
O270 Zn267 1.986 . S
O270 C277 1.262 . S
O271 Zn266 2.049 . S
O271 C279 1.260 . S
O272 Zn267 1.996 . S
O272 C279 1.257 . S
C273 O268 1.254 . S
C273 O269 1.269 . S
C274 O275 1.249 . S
C274 O276 1.270 . S
O275 Zn267 1.943 . S
O275 C274 1.249 . S
O276 Zn266 2.067 . S
O276 C274 1.270 . S
C277 O270 1.262 . S
C277 O278 1.232 . S
O278 C277 1.232 . S
C279 O271 1.260 . S
C279 O272 1.257 . S
Zn280 O283 2.031 . S
Zn280 O285 2.049 . S
Zn280 O290 2.067 . S
Zn281 O282 1.962 . S
Zn281 O284 1.986 . S
Zn281 O286 1.996 . S
Zn281 O289 1.943 . S
O282 Zn281 1.962 . S
O282 C287 1.254 . S
O283 Zn280 2.031 . S
O283 C287 1.269 . S
O284 Zn281 1.986 . S
O284 C291 1.262 . S
O285 Zn280 2.049 . S
O285 C293 1.260 . S
O286 Zn281 1.996 . S
O286 C293 1.257 . S
C287 O282 1.254 . S
C287 O283 1.269 . S
C288 O289 1.249 . S
C288 O290 1.270 . S
O289 Zn281 1.943 . S
O289 C288 1.249 . S
O290 Zn280 2.067 . S
O290 C288 1.270 . S
C291 O284 1.262 . S
C291 O292 1.232 . S
O292 C291 1.232 . S
C293 O285 1.260 . S
C293 O286 1.257 . S
Zn294 O297 2.031 . S
Zn294 O299 2.049 . S
Zn294 O304 2.067 . S
Zn295 O296 1.962 . S
Zn295 O298 1.986 . S
Zn295 O300 1.996 . S
Zn295 O303 1.943 . S
O296 Zn295 1.962 . S
O296 C301 1.254 . S
O297 Zn294 2.031 . S
O297 C301 1.269 . S
O298 Zn295 1.986 . S
O298 C305 1.262 . S
O299 Zn294 2.049 . S
O299 C307 1.260 . S
O300 Zn295 1.996 . S
O300 C307 1.257 . S
C301 O296 1.254 . S
C301 O297 1.269 . S
C302 O303 1.249 . S
C302 O304 1.270 . S
O303 Zn295 1.943 . S
O303 C302 1.249 . S
O304 Zn294 2.067 . S
O304 C302 1.270 . S
C305 O298 1.262 . S
C305 O306 1.232 . S
O306 C305 1.232 . S
C307 O299 1.260 . S
C307 O300 1.257 . S
Zn308 O311 2.031 . S
Zn308 O313 2.049 . S
Zn308 O318 2.067 . S
Zn309 O310 1.962 . S
Zn309 O312 1.986 . S
Zn309 O314 1.996 . S
Zn309 O317 1.943 . S
O310 Zn309 1.962 . S
O310 C315 1.254 . S
O311 Zn308 2.031 . S
O311 C315 1.269 . S
O312 Zn309 1.986 . S
O312 C319 1.262 . S
O313 Zn308 2.049 . S
O313 C321 1.260 . S
O314 Zn309 1.996 . S
O314 C321 1.257 . S
C315 O310 1.254 . S
C315 O311 1.269 . S
C316 O317 1.249 . S
C316 O318 1.270 . S
O317 Zn309 1.943 . S
O317 C316 1.249 . S
O318 Zn308 2.067 . S
O318 C316 1.270 . S
C319 O312 1.262 . S
C319 O320 1.232 . S
O320 C319 1.232 . S
C321 O313 1.260 . S
C321 O314 1.257 . S
Zn322 O325 2.031 . S
Zn322 O327 2.049 . S
Zn322 O332 2.067 . S
Zn323 O324 1.962 . S
Zn323 O326 1.986 . S
Zn323 O328 1.996 . S
Zn323 O331 1.943 . S
O324 Zn323 1.962 . S
O324 C329 1.254 . S
O325 Zn322 2.031 . S
O325 C329 1.269 . S
O326 Zn323 1.986 . S
O326 C333 1.262 . S
O327 Zn322 2.049 . S
O327 C335 1.260 . S
O328 Zn323 1.996 . S
O328 C335 1.257 . S
C329 O324 1.254 . S
C329 O325 1.269 . S
C330 O331 1.249 . S
C330 O332 1.270 . S
O331 Zn323 1.943 . S
O331 C330 1.249 . S
O332 Zn322 2.067 . S
O332 C330 1.270 . S
C333 O326 1.262 . S
C333 O334 1.232 . S
O334 C333 1.232 . S
C335 O327 1.260 . S
C335 O328 1.257 . S
Zn336 O339 2.031 . S
Zn336 O341 2.049 . S
Zn336 O346 2.067 . S
Zn337 O338 1.962 . S
Zn337 O340 1.986 . S
Zn337 O342 1.996 . S
Zn337 O345 1.943 . S
O338 Zn337 1.962 . S
O338 C343 1.254 . S
O339 Zn336 2.031 . S
O339 C343 1.269 . S
O340 Zn337 1.986 . S
O340 C347 1.262 . S
O341 Zn336 2.049 . S
O341 C349 1.260 . S
O342 Zn337 1.996 . S
O342 C349 1.257 . S
C343 O338 1.254 . S
C343 O339 1.269 . S
C344 O345 1.249 . S
C344 O346 1.270 . S
O345 Zn337 1.943 . S
O345 C344 1.249 . S
O346 Zn336 2.067 . S
O346 C344 1.270 . S
C347 O340 1.262 . S
C347 O348 1.232 . S
O348 C347 1.232 . S
C349 O341 1.260 . S
C349 O342 1.257 . S
Zn350 O353 2.031 . S
Zn350 O355 2.049 . S
Zn350 O360 2.067 . S
Zn351 O352 1.962 . S
Zn351 O354 1.986 . S
Zn351 O356 1.996 . S
Zn351 O359 1.943 . S
O352 Zn351 1.962 . S
O352 C357 1.254 . S
O353 Zn350 2.031 . S
O353 C357 1.269 . S
O354 Zn351 1.986 . S
O354 C361 1.262 . S
O355 Zn350 2.049 . S
O355 C363 1.260 . S
O356 Zn351 1.996 . S
O356 C363 1.257 . S
C357 O352 1.254 . S
C357 O353 1.269 . S
C358 O359 1.249 . S
C358 O360 1.270 . S
O359 Zn351 1.943 . S
O359 C358 1.249 . S
O360 Zn350 2.067 . S
O360 C358 1.270 . S
C361 O354 1.262 . S
C361 O362 1.232 . S
O362 C361 1.232 . S
C363 O355 1.260 . S
C363 O356 1.257 . S
Zn364 O367 2.031 . S
Zn364 O369 2.049 . S
Zn364 O374 2.067 . S
Zn365 O366 1.962 . S
Zn365 O368 1.986 . S
Zn365 O370 1.996 . S
Zn365 O373 1.943 . S
O366 Zn365 1.962 . S
O366 C371 1.254 . S
O367 Zn364 2.031 . S
O367 C371 1.269 . S
O368 Zn365 1.986 . S
O368 C375 1.262 . S
O369 Zn364 2.049 . S
O369 C377 1.260 . S
O370 Zn365 1.996 . S
O370 C377 1.257 . S
C371 O366 1.254 . S
C371 O367 1.269 . S
C372 O373 1.249 . S
C372 O374 1.270 . S
O373 Zn365 1.943 . S
O373 C372 1.249 . S
O374 Zn364 2.067 . S
O374 C372 1.270 . S
C375 O368 1.262 . S
C375 O376 1.232 . S
O376 C375 1.232 . S
C377 O369 1.260 . S
C377 O370 1.257 . S
Zn378 O381 2.031 . S
Zn378 O383 2.049 . S
Zn378 O388 2.067 . S
Zn379 O380 1.962 . S
Zn379 O382 1.986 . S
Zn379 O384 1.996 . S
Zn379 O387 1.943 . S
O380 Zn379 1.962 . S
O380 C385 1.254 . S
O381 Zn378 2.031 . S
O381 C385 1.269 . S
O382 Zn379 1.986 . S
O382 C389 1.262 . S
O383 Zn378 2.049 . S
O383 C391 1.260 . S
O384 Zn379 1.996 . S
O384 C391 1.257 . S
C385 O380 1.254 . S
C385 O381 1.269 . S
C386 O387 1.249 . S
C386 O388 1.270 . S
O387 Zn379 1.943 . S
O387 C386 1.249 . S
O388 Zn378 2.067 . S
O388 C386 1.270 . S
C389 O382 1.262 . S
C389 O390 1.232 . S
O390 C389 1.232 . S
C391 O383 1.260 . S
C391 O384 1.257 . S
Zn392 O395 2.031 . S
Zn392 O397 2.049 . S
Zn392 O402 2.067 . S
Zn393 O394 1.962 . S
Zn393 O396 1.986 . S
Zn393 O398 1.996 . S
Zn393 O401 1.943 . S
O394 Zn393 1.962 . S
O394 C399 1.254 . S
O395 Zn392 2.031 . S
O395 C399 1.269 . S
O396 Zn393 1.986 . S
O396 C403 1.262 . S
O397 Zn392 2.049 . S
O397 C405 1.260 . S
O398 Zn393 1.996 . S
O398 C405 1.257 . S
C399 O394 1.254 . S
C399 O395 1.269 . S
C400 O401 1.249 . S
C400 O402 1.270 . S
O401 Zn393 1.943 . S
O401 C400 1.249 . S
O402 Zn392 2.067 . S
O402 C400 1.270 . S
C403 O396 1.262 . S
C403 O404 1.232 . S
O404 C403 1.232 . S
C405 O397 1.260 . S
C405 O398 1.257 . S
Zn406 O409 2.031 . S
Zn406 O411 2.049 . S
Zn406 O416 2.067 . S
Zn407 O408 1.962 . S
Zn407 O410 1.986 . S
Zn407 O412 1.996 . S
Zn407 O415 1.943 . S
O408 Zn407 1.962 . S
O408 C413 1.254 . S
O409 Zn406 2.031 . S
O409 C413 1.269 . S
O410 Zn407 1.986 . S
O410 C417 1.262 . S
O411 Zn406 2.049 . S
O411 C419 1.260 . S
O412 Zn407 1.996 . S
O412 C419 1.257 . S
C413 O408 1.254 . S
C413 O409 1.269 . S
C414 O415 1.249 . S
C414 O416 1.270 . S
O415 Zn407 1.943 . S
O415 C414 1.249 . S
O416 Zn406 2.067 . S
O416 C414 1.270 . S
C417 O410 1.262 . S
C417 O418 1.232 . S
O418 C417 1.232 . S
C419 O411 1.260 . S
C419 O412 1.257 . S
Zn420 O423 2.031 . S
Zn420 O425 2.049 . S
Zn420 O430 2.067 . S
Zn421 O422 1.962 . S
Zn421 O424 1.986 . S
Zn421 O426 1.996 . S
Zn421 O429 1.943 . S
O422 Zn421 1.962 . S
O422 C427 1.254 . S
O423 Zn420 2.031 . S
O423 C427 1.269 . S
O424 Zn421 1.986 . S
O424 C431 1.262 . S
O425 Zn420 2.049 . S
O425 C433 1.260 . S
O426 Zn421 1.996 . S
O426 C433 1.257 . S
C427 O422 1.254 . S
C427 O423 1.269 . S
C428 O429 1.249 . S
C428 O430 1.270 . S
O429 Zn421 1.943 . S
O429 C428 1.249 . S
O430 Zn420 2.067 . S
O430 C428 1.270 . S
C431 O424 1.262 . S
C431 O432 1.232 . S
O432 C431 1.232 . S
C433 O425 1.260 . S
C433 O426 1.257 . S
Zn434 O437 2.031 . S
Zn434 O439 2.049 . S
Zn434 O444 2.067 . S
Zn435 O436 1.962 . S
Zn435 O438 1.986 . S
Zn435 O440 1.996 . S
Zn435 O443 1.943 . S
O436 Zn435 1.962 . S
O436 C441 1.254 . S
O437 Zn434 2.031 . S
O437 C441 1.269 . S
O438 Zn435 1.986 . S
O438 C445 1.262 . S
O439 Zn434 2.049 . S
O439 C447 1.260 . S
O440 Zn435 1.996 . S
O440 C447 1.257 . S
C441 O436 1.254 . S
C441 O437 1.269 . S
C442 O443 1.249 . S
C442 O444 1.270 . S
O443 Zn435 1.943 . S
O443 C442 1.249 . S
O444 Zn434 2.067 . S
O444 C442 1.270 . S
C445 O438 1.262 . S
C445 O446 1.232 . S
O446 C445 1.232 . S
C447 O439 1.260 . S
C447 O440 1.257 . S
H448 C460 0.930 . S
H449 C462 0.930 . S
H450 C463 0.930 . S
H451 C467 0.959 . S
H452 C467 0.959 . S
H453 C467 0.961 . S
H454 C468 0.960 . S
H455 C468 0.961 . S
H456 C468 0.959 . S
H457 C471 0.929 . S
H458 C472 0.931 . S
H459 C474 0.930 . S
C460 H448 0.930 . S
C460 C461 1.399 . S
C460 C465 1.399 . S
C461 C460 1.399 . S
C461 C462 1.376 . S
C462 H449 0.930 . S
C462 C461 1.376 . S
C462 C463 1.388 . S
C463 H450 0.930 . S
C463 C462 1.388 . S
C463 C464 1.390 . S
C464 C463 1.390 . S
C464 C465 1.394 . S
C464 C470 1.465 . S
C465 C460 1.399 . S
C465 C464 1.394 . S
C465 C466 1.516 . S
C466 C465 1.516 . S
C466 C467 1.502 . S
C466 C468 1.561 . S
C466 C469 1.526 . S
C467 H451 0.959 . S
C467 H452 0.959 . S
C467 H453 0.961 . S
C467 C466 1.502 . S
C468 H454 0.960 . S
C468 H455 0.961 . S
C468 H456 0.959 . S
C468 C466 1.561 . S
C469 C466 1.526 . S
C469 C470 1.396 . S
C469 C474 1.390 . S
C470 C464 1.465 . S
C470 C469 1.396 . S
C470 C471 1.399 . S
C471 H457 0.929 . S
C471 C470 1.399 . S
C471 C472 1.385 . S
C472 H458 0.931 . S
C472 C471 1.385 . S
C472 C473 1.389 . S
C473 C472 1.389 . S
C473 C474 1.387 . S
C474 H459 0.930 . S
C474 C469 1.390 . S
C474 C473 1.387 . S
H475 C487 0.930 . S
H476 C489 0.930 . S
H477 C490 0.930 . S
H478 C494 0.959 . S
H479 C494 0.959 . S
H480 C494 0.961 . S
H481 C495 0.960 . S
H482 C495 0.961 . S
H483 C495 0.959 . S
H484 C498 0.929 . S
H485 C499 0.931 . S
H486 C501 0.930 . S
C487 H475 0.930 . S
C487 C488 1.399 . S
C487 C492 1.399 . S
C488 C487 1.399 . S
C488 C489 1.376 . S
C489 H476 0.930 . S
C489 C488 1.376 . S
C489 C490 1.388 . S
C490 H477 0.930 . S
C490 C489 1.388 . S
C490 C491 1.390 . S
C491 C490 1.390 . S
C491 C492 1.394 . S
C491 C497 1.465 . S
C492 C487 1.399 . S
C492 C491 1.394 . S
C492 C493 1.516 . S
C493 C492 1.516 . S
C493 C494 1.502 . S
C493 C495 1.561 . S
C493 C496 1.526 . S
C494 H478 0.959 . S
C494 H479 0.959 . S
C494 H480 0.961 . S
C494 C493 1.502 . S
C495 H481 0.960 . S
C495 H482 0.961 . S
C495 H483 0.959 . S
C495 C493 1.561 . S
C496 C493 1.526 . S
C496 C497 1.396 . S
C496 C501 1.390 . S
C497 C491 1.465 . S
C497 C496 1.396 . S
C497 C498 1.399 . S
C498 H484 0.929 . S
C498 C497 1.399 . S
C498 C499 1.385 . S
C499 H485 0.931 . S
C499 C498 1.385 . S
C499 C500 1.389 . S
C500 C499 1.389 . S
C500 C501 1.387 . S
C501 H486 0.930 . S
C501 C496 1.390 . S
C501 C500 1.387 . S
H502 C514 0.930 . S
H503 C516 0.930 . S
H504 C517 0.930 . S
H505 C521 0.959 . S
H506 C521 0.959 . S
H507 C521 0.961 . S
H508 C522 0.960 . S
H509 C522 0.961 . S
H510 C522 0.959 . S
H511 C525 0.929 . S
H512 C526 0.931 . S
H513 C528 0.930 . S
C514 H502 0.930 . S
C514 C515 1.399 . S
C514 C519 1.399 . S
C515 C514 1.399 . S
C515 C516 1.376 . S
C516 H503 0.930 . S
C516 C515 1.376 . S
C516 C517 1.388 . S
C517 H504 0.930 . S
C517 C516 1.388 . S
C517 C518 1.390 . S
C518 C517 1.390 . S
C518 C519 1.394 . S
C518 C524 1.465 . S
C519 C514 1.399 . S
C519 C518 1.394 . S
C519 C520 1.516 . S
C520 C519 1.516 . S
C520 C521 1.502 . S
C520 C522 1.561 . S
C520 C523 1.526 . S
C521 H505 0.959 . S
C521 H506 0.959 . S
C521 H507 0.961 . S
C521 C520 1.502 . S
C522 H508 0.960 . S
C522 H509 0.961 . S
C522 H510 0.959 . S
C522 C520 1.561 . S
C523 C520 1.526 . S
C523 C524 1.396 . S
C523 C528 1.390 . S
C524 C518 1.465 . S
C524 C523 1.396 . S
C524 C525 1.399 . S
C525 H511 0.929 . S
C525 C524 1.399 . S
C525 C526 1.385 . S
C526 H512 0.931 . S
C526 C525 1.385 . S
C526 C527 1.389 . S
C527 C526 1.389 . S
C527 C528 1.387 . S
C528 H513 0.930 . S
C528 C523 1.390 . S
C528 C527 1.387 . S
H529 C541 0.930 . S
H530 C543 0.930 . S
H531 C544 0.930 . S
H532 C548 0.959 . S
H533 C548 0.959 . S
H534 C548 0.961 . S
H535 C549 0.960 . S
H536 C549 0.961 . S
H537 C549 0.959 . S
H538 C552 0.929 . S
H539 C553 0.931 . S
H540 C555 0.930 . S
C541 H529 0.930 . S
C541 C542 1.399 . S
C541 C546 1.399 . S
C542 C541 1.399 . S
C542 C543 1.376 . S
C543 H530 0.930 . S
C543 C542 1.376 . S
C543 C544 1.388 . S
C544 H531 0.930 . S
C544 C543 1.388 . S
C544 C545 1.390 . S
C545 C544 1.390 . S
C545 C546 1.394 . S
C545 C551 1.465 . S
C546 C541 1.399 . S
C546 C545 1.394 . S
C546 C547 1.516 . S
C547 C546 1.516 . S
C547 C548 1.502 . S
C547 C549 1.561 . S
C547 C550 1.526 . S
C548 H532 0.959 . S
C548 H533 0.959 . S
C548 H534 0.961 . S
C548 C547 1.502 . S
C549 H535 0.960 . S
C549 H536 0.961 . S
C549 H537 0.959 . S
C549 C547 1.561 . S
C550 C547 1.526 . S
C550 C551 1.396 . S
C550 C555 1.390 . S
C551 C545 1.465 . S
C551 C550 1.396 . S
C551 C552 1.399 . S
C552 H538 0.929 . S
C552 C551 1.399 . S
C552 C553 1.385 . S
C553 H539 0.931 . S
C553 C552 1.385 . S
C553 C554 1.389 . S
C554 C553 1.389 . S
C554 C555 1.387 . S
C555 H540 0.930 . S
C555 C550 1.390 . S
C555 C554 1.387 . S
H556 C568 0.930 . S
H557 C570 0.930 . S
H558 C571 0.930 . S
H559 C575 0.959 . S
H560 C575 0.959 . S
H561 C575 0.961 . S
H562 C576 0.960 . S
H563 C576 0.961 . S
H564 C576 0.959 . S
H565 C579 0.929 . S
H566 C580 0.931 . S
H567 C582 0.930 . S
C568 H556 0.930 . S
C568 C569 1.399 . S
C568 C573 1.399 . S
C569 C568 1.399 . S
C569 C570 1.376 . S
C570 H557 0.930 . S
C570 C569 1.376 . S
C570 C571 1.388 . S
C571 H558 0.930 . S
C571 C570 1.388 . S
C571 C572 1.390 . S
C572 C571 1.390 . S
C572 C573 1.394 . S
C572 C578 1.465 . S
C573 C568 1.399 . S
C573 C572 1.394 . S
C573 C574 1.516 . S
C574 C573 1.516 . S
C574 C575 1.502 . S
C574 C576 1.561 . S
C574 C577 1.526 . S
C575 H559 0.959 . S
C575 H560 0.959 . S
C575 H561 0.961 . S
C575 C574 1.502 . S
C576 H562 0.960 . S
C576 H563 0.961 . S
C576 H564 0.959 . S
C576 C574 1.561 . S
C577 C574 1.526 . S
C577 C578 1.396 . S
C577 C582 1.390 . S
C578 C572 1.465 . S
C578 C577 1.396 . S
C578 C579 1.399 . S
C579 H565 0.929 . S
C579 C578 1.399 . S
C579 C580 1.385 . S
C580 H566 0.931 . S
C580 C579 1.385 . S
C580 C581 1.389 . S
C581 C580 1.389 . S
C581 C582 1.387 . S
C582 H567 0.930 . S
C582 C577 1.390 . S
C582 C581 1.387 . S
H583 C595 0.930 . S
H584 C597 0.930 . S
H585 C598 0.930 . S
H586 C602 0.959 . S
H587 C602 0.959 . S
H588 C602 0.961 . S
H589 C603 0.960 . S
H590 C603 0.961 . S
H591 C603 0.959 . S
H592 C606 0.929 . S
H593 C607 0.931 . S
H594 C609 0.930 . S
C595 H583 0.930 . S
C595 C596 1.399 . S
C595 C600 1.399 . S
C596 C595 1.399 . S
C596 C597 1.376 . S
C597 H584 0.930 . S
C597 C596 1.376 . S
C597 C598 1.388 . S
C598 H585 0.930 . S
C598 C597 1.388 . S
C598 C599 1.390 . S
C599 C598 1.390 . S
C599 C600 1.394 . S
C599 C605 1.465 . S
C600 C595 1.399 . S
C600 C599 1.394 . S
C600 C601 1.516 . S
C601 C600 1.516 . S
C601 C602 1.502 . S
C601 C603 1.561 . S
C601 C604 1.526 . S
C602 H586 0.959 . S
C602 H587 0.959 . S
C602 H588 0.961 . S
C602 C601 1.502 . S
C603 H589 0.960 . S
C603 H590 0.961 . S
C603 H591 0.959 . S
C603 C601 1.561 . S
C604 C601 1.526 . S
C604 C605 1.396 . S
C604 C609 1.390 . S
C605 C599 1.465 . S
C605 C604 1.396 . S
C605 C606 1.399 . S
C606 H592 0.929 . S
C606 C605 1.399 . S
C606 C607 1.385 . S
C607 H593 0.931 . S
C607 C606 1.385 . S
C607 C608 1.389 . S
C608 C607 1.389 . S
C608 C609 1.387 . S
C609 H594 0.930 . S
C609 C604 1.390 . S
C609 C608 1.387 . S
H610 C622 0.930 . S
H611 C624 0.930 . S
H612 C625 0.930 . S
H613 C629 0.959 . S
H614 C629 0.959 . S
H615 C629 0.961 . S
H616 C630 0.960 . S
H617 C630 0.961 . S
H618 C630 0.959 . S
H619 C633 0.929 . S
H620 C634 0.931 . S
H621 C636 0.930 . S
C622 H610 0.930 . S
C622 C623 1.399 . S
C622 C627 1.399 . S
C623 C622 1.399 . S
C623 C624 1.376 . S
C624 H611 0.930 . S
C624 C623 1.376 . S
C624 C625 1.388 . S
C625 H612 0.930 . S
C625 C624 1.388 . S
C625 C626 1.390 . S
C626 C625 1.390 . S
C626 C627 1.394 . S
C626 C632 1.465 . S
C627 C622 1.399 . S
C627 C626 1.394 . S
C627 C628 1.516 . S
C628 C627 1.516 . S
C628 C629 1.502 . S
C628 C630 1.561 . S
C628 C631 1.526 . S
C629 H613 0.959 . S
C629 H614 0.959 . S
C629 H615 0.961 . S
C629 C628 1.502 . S
C630 H616 0.960 . S
C630 H617 0.961 . S
C630 H618 0.959 . S
C630 C628 1.561 . S
C631 C628 1.526 . S
C631 C632 1.396 . S
C631 C636 1.390 . S
C632 C626 1.465 . S
C632 C631 1.396 . S
C632 C633 1.399 . S
C633 H619 0.929 . S
C633 C632 1.399 . S
C633 C634 1.385 . S
C634 H620 0.931 . S
C634 C633 1.385 . S
C634 C635 1.389 . S
C635 C634 1.389 . S
C635 C636 1.387 . S
C636 H621 0.930 . S
C636 C631 1.390 . S
C636 C635 1.387 . S
H637 C649 0.930 . S
H638 C651 0.930 . S
H639 C652 0.930 . S
H640 C656 0.959 . S
H641 C656 0.959 . S
H642 C656 0.961 . S
H643 C657 0.960 . S
H644 C657 0.961 . S
H645 C657 0.959 . S
H646 C660 0.929 . S
H647 C661 0.931 . S
H648 C663 0.930 . S
C649 H637 0.930 . S
C649 C650 1.399 . S
C649 C654 1.399 . S
C650 C649 1.399 . S
C650 C651 1.376 . S
C651 H638 0.930 . S
C651 C650 1.376 . S
C651 C652 1.388 . S
C652 H639 0.930 . S
C652 C651 1.388 . S
C652 C653 1.390 . S
C653 C652 1.390 . S
C653 C654 1.394 . S
C653 C659 1.465 . S
C654 C649 1.399 . S
C654 C653 1.394 . S
C654 C655 1.516 . S
C655 C654 1.516 . S
C655 C656 1.502 . S
C655 C657 1.561 . S
C655 C658 1.526 . S
C656 H640 0.959 . S
C656 H641 0.959 . S
C656 H642 0.961 . S
C656 C655 1.502 . S
C657 H643 0.960 . S
C657 H644 0.961 . S
C657 H645 0.959 . S
C657 C655 1.561 . S
C658 C655 1.526 . S
C658 C659 1.396 . S
C658 C663 1.390 . S
C659 C653 1.465 . S
C659 C658 1.396 . S
C659 C660 1.399 . S
C660 H646 0.929 . S
C660 C659 1.399 . S
C660 C661 1.385 . S
C661 H647 0.931 . S
C661 C660 1.385 . S
C661 C662 1.389 . S
C662 C661 1.389 . S
C662 C663 1.387 . S
C663 H648 0.930 . S
C663 C658 1.390 . S
C663 C662 1.387 . S
H664 C676 0.930 . S
H665 C678 0.930 . S
H666 C679 0.930 . S
H667 C683 0.959 . S
H668 C683 0.959 . S
H669 C683 0.961 . S
H670 C684 0.960 . S
H671 C684 0.961 . S
H672 C684 0.959 . S
H673 C687 0.929 . S
H674 C688 0.931 . S
H675 C690 0.930 . S
C676 H664 0.930 . S
C676 C677 1.399 . S
C676 C681 1.399 . S
C677 C676 1.399 . S
C677 C678 1.376 . S
C678 H665 0.930 . S
C678 C677 1.376 . S
C678 C679 1.388 . S
C679 H666 0.930 . S
C679 C678 1.388 . S
C679 C680 1.390 . S
C680 C679 1.390 . S
C680 C681 1.394 . S
C680 C686 1.465 . S
C681 C676 1.399 . S
C681 C680 1.394 . S
C681 C682 1.516 . S
C682 C681 1.516 . S
C682 C683 1.502 . S
C682 C684 1.561 . S
C682 C685 1.526 . S
C683 H667 0.959 . S
C683 H668 0.959 . S
C683 H669 0.961 . S
C683 C682 1.502 . S
C684 H670 0.960 . S
C684 H671 0.961 . S
C684 H672 0.959 . S
C684 C682 1.561 . S
C685 C682 1.526 . S
C685 C686 1.396 . S
C685 C690 1.390 . S
C686 C680 1.465 . S
C686 C685 1.396 . S
C686 C687 1.399 . S
C687 H673 0.929 . S
C687 C686 1.399 . S
C687 C688 1.385 . S
C688 H674 0.931 . S
C688 C687 1.385 . S
C688 C689 1.389 . S
C689 C688 1.389 . S
C689 C690 1.387 . S
C690 H675 0.930 . S
C690 C685 1.390 . S
C690 C689 1.387 . S
H691 C703 0.930 . S
H692 C705 0.930 . S
H693 C706 0.930 . S
H694 C710 0.959 . S
H695 C710 0.959 . S
H696 C710 0.961 . S
H697 C711 0.960 . S
H698 C711 0.961 . S
H699 C711 0.959 . S
H700 C714 0.929 . S
H701 C715 0.931 . S
H702 C717 0.930 . S
C703 H691 0.930 . S
C703 C704 1.399 . S
C703 C708 1.399 . S
C704 C703 1.399 . S
C704 C705 1.376 . S
C705 H692 0.930 . S
C705 C704 1.376 . S
C705 C706 1.388 . S
C706 H693 0.930 . S
C706 C705 1.388 . S
C706 C707 1.390 . S
C707 C706 1.390 . S
C707 C708 1.394 . S
C707 C713 1.465 . S
C708 C703 1.399 . S
C708 C707 1.394 . S
C708 C709 1.516 . S
C709 C708 1.516 . S
C709 C710 1.502 . S
C709 C711 1.561 . S
C709 C712 1.526 . S
C710 H694 0.959 . S
C710 H695 0.959 . S
C710 H696 0.961 . S
C710 C709 1.502 . S
C711 H697 0.960 . S
C711 H698 0.961 . S
C711 H699 0.959 . S
C711 C709 1.561 . S
C712 C709 1.526 . S
C712 C713 1.396 . S
C712 C717 1.390 . S
C713 C707 1.465 . S
C713 C712 1.396 . S
C713 C714 1.399 . S
C714 H700 0.929 . S
C714 C713 1.399 . S
C714 C715 1.385 . S
C715 H701 0.931 . S
C715 C714 1.385 . S
C715 C716 1.389 . S
C716 C715 1.389 . S
C716 C717 1.387 . S
C717 H702 0.930 . S
C717 C712 1.390 . S
C717 C716 1.387 . S
H718 C730 0.930 . S
H719 C732 0.930 . S
H720 C733 0.930 . S
H721 C737 0.959 . S
H722 C737 0.959 . S
H723 C737 0.961 . S
H724 C738 0.960 . S
H725 C738 0.961 . S
H726 C738 0.959 . S
H727 C741 0.929 . S
H728 C742 0.931 . S
H729 C744 0.930 . S
C730 H718 0.930 . S
C730 C731 1.399 . S
C730 C735 1.399 . S
C731 C730 1.399 . S
C731 C732 1.376 . S
C732 H719 0.930 . S
C732 C731 1.376 . S
C732 C733 1.388 . S
C733 H720 0.930 . S
C733 C732 1.388 . S
C733 C734 1.390 . S
C734 C733 1.390 . S
C734 C735 1.394 . S
C734 C740 1.465 . S
C735 C730 1.399 . S
C735 C734 1.394 . S
C735 C736 1.516 . S
C736 C735 1.516 . S
C736 C737 1.502 . S
C736 C738 1.561 . S
C736 C739 1.526 . S
C737 H721 0.959 . S
C737 H722 0.959 . S
C737 H723 0.961 . S
C737 C736 1.502 . S
C738 H724 0.960 . S
C738 H725 0.961 . S
C738 H726 0.959 . S
C738 C736 1.561 . S
C739 C736 1.526 . S
C739 C740 1.396 . S
C739 C744 1.390 . S
C740 C734 1.465 . S
C740 C739 1.396 . S
C740 C741 1.399 . S
C741 H727 0.929 . S
C741 C740 1.399 . S
C741 C742 1.385 . S
C742 H728 0.931 . S
C742 C741 1.385 . S
C742 C743 1.389 . S
C743 C742 1.389 . S
C743 C744 1.387 . S
C744 H729 0.930 . S
C744 C739 1.390 . S
C744 C743 1.387 . S
H745 C757 0.930 . S
H746 C759 0.930 . S
H747 C760 0.930 . S
H748 C764 0.959 . S
H749 C764 0.959 . S
H750 C764 0.961 . S
H751 C765 0.960 . S
H752 C765 0.961 . S
H753 C765 0.959 . S
H754 C768 0.929 . S
H755 C769 0.931 . S
H756 C771 0.930 . S
C757 H745 0.930 . S
C757 C758 1.399 . S
C757 C762 1.399 . S
C758 C757 1.399 . S
C758 C759 1.376 . S
C759 H746 0.930 . S
C759 C758 1.376 . S
C759 C760 1.388 . S
C760 H747 0.930 . S
C760 C759 1.388 . S
C760 C761 1.390 . S
C761 C760 1.390 . S
C761 C762 1.394 . S
C761 C767 1.465 . S
C762 C757 1.399 . S
C762 C761 1.394 . S
C762 C763 1.516 . S
C763 C762 1.516 . S
C763 C764 1.502 . S
C763 C765 1.561 . S
C763 C766 1.526 . S
C764 H748 0.959 . S
C764 H749 0.959 . S
C764 H750 0.961 . S
C764 C763 1.502 . S
C765 H751 0.960 . S
C765 H752 0.961 . S
C765 H753 0.959 . S
C765 C763 1.561 . S
C766 C763 1.526 . S
C766 C767 1.396 . S
C766 C771 1.390 . S
C767 C761 1.465 . S
C767 C766 1.396 . S
C767 C768 1.399 . S
C768 H754 0.929 . S
C768 C767 1.399 . S
C768 C769 1.385 . S
C769 H755 0.931 . S
C769 C768 1.385 . S
C769 C770 1.389 . S
C770 C769 1.389 . S
C770 C771 1.387 . S
C771 H756 0.930 . S
C771 C766 1.390 . S
C771 C770 1.387 . S
H772 C784 0.930 . S
H773 C786 0.930 . S
H774 C787 0.930 . S
H775 C791 0.959 . S
H776 C791 0.959 . S
H777 C791 0.961 . S
H778 C792 0.960 . S
H779 C792 0.961 . S
H780 C792 0.959 . S
H781 C795 0.929 . S
H782 C796 0.931 . S
H783 C798 0.930 . S
C784 H772 0.930 . S
C784 C785 1.399 . S
C784 C789 1.399 . S
C785 C784 1.399 . S
C785 C786 1.376 . S
C786 H773 0.930 . S
C786 C785 1.376 . S
C786 C787 1.388 . S
C787 H774 0.930 . S
C787 C786 1.388 . S
C787 C788 1.390 . S
C788 C787 1.390 . S
C788 C789 1.394 . S
C788 C794 1.465 . S
C789 C784 1.399 . S
C789 C788 1.394 . S
C789 C790 1.516 . S
C790 C789 1.516 . S
C790 C791 1.502 . S
C790 C792 1.561 . S
C790 C793 1.526 . S
C791 H775 0.959 . S
C791 H776 0.959 . S
C791 H777 0.961 . S
C791 C790 1.502 . S
C792 H778 0.960 . S
C792 H779 0.961 . S
C792 H780 0.959 . S
C792 C790 1.561 . S
C793 C790 1.526 . S
C793 C794 1.396 . S
C793 C798 1.390 . S
C794 C788 1.465 . S
C794 C793 1.396 . S
C794 C795 1.399 . S
C795 H781 0.929 . S
C795 C794 1.399 . S
C795 C796 1.385 . S
C796 H782 0.931 . S
C796 C795 1.385 . S
C796 C797 1.389 . S
C797 C796 1.389 . S
C797 C798 1.387 . S
C798 H783 0.930 . S
C798 C793 1.390 . S
C798 C797 1.387 . S
H799 C811 0.930 . S
H800 C813 0.930 . S
H801 C814 0.930 . S
H802 C818 0.959 . S
H803 C818 0.959 . S
H804 C818 0.961 . S
H805 C819 0.960 . S
H806 C819 0.961 . S
H807 C819 0.959 . S
H808 C822 0.929 . S
H809 C823 0.931 . S
H810 C825 0.930 . S
C811 H799 0.930 . S
C811 C812 1.399 . S
C811 C816 1.399 . S
C812 C811 1.399 . S
C812 C813 1.376 . S
C813 H800 0.930 . S
C813 C812 1.376 . S
C813 C814 1.388 . S
C814 H801 0.930 . S
C814 C813 1.388 . S
C814 C815 1.390 . S
C815 C814 1.390 . S
C815 C816 1.394 . S
C815 C821 1.465 . S
C816 C811 1.399 . S
C816 C815 1.394 . S
C816 C817 1.516 . S
C817 C816 1.516 . S
C817 C818 1.502 . S
C817 C819 1.561 . S
C817 C820 1.526 . S
C818 H802 0.959 . S
C818 H803 0.959 . S
C818 H804 0.961 . S
C818 C817 1.502 . S
C819 H805 0.960 . S
C819 H806 0.961 . S
C819 H807 0.959 . S
C819 C817 1.561 . S
C820 C817 1.526 . S
C820 C821 1.396 . S
C820 C825 1.390 . S
C821 C815 1.465 . S
C821 C820 1.396 . S
C821 C822 1.399 . S
C822 H808 0.929 . S
C822 C821 1.399 . S
C822 C823 1.385 . S
C823 H809 0.931 . S
C823 C822 1.385 . S
C823 C824 1.389 . S
C824 C823 1.389 . S
C824 C825 1.387 . S
C825 H810 0.930 . S
C825 C820 1.390 . S
C825 C824 1.387 . S
H826 C838 0.930 . S
H827 C840 0.930 . S
H828 C841 0.930 . S
H829 C845 0.959 . S
H830 C845 0.959 . S
H831 C845 0.961 . S
H832 C846 0.960 . S
H833 C846 0.961 . S
H834 C846 0.959 . S
H835 C849 0.929 . S
H836 C850 0.931 . S
H837 C852 0.930 . S
C838 H826 0.930 . S
C838 C839 1.399 . S
C838 C843 1.399 . S
C839 C838 1.399 . S
C839 C840 1.376 . S
C840 H827 0.930 . S
C840 C839 1.376 . S
C840 C841 1.388 . S
C841 H828 0.930 . S
C841 C840 1.388 . S
C841 C842 1.390 . S
C842 C841 1.390 . S
C842 C843 1.394 . S
C842 C848 1.465 . S
C843 C838 1.399 . S
C843 C842 1.394 . S
C843 C844 1.516 . S
C844 C843 1.516 . S
C844 C845 1.502 . S
C844 C846 1.561 . S
C844 C847 1.526 . S
C845 H829 0.959 . S
C845 H830 0.959 . S
C845 H831 0.961 . S
C845 C844 1.502 . S
C846 H832 0.960 . S
C846 H833 0.961 . S
C846 H834 0.959 . S
C846 C844 1.561 . S
C847 C844 1.526 . S
C847 C848 1.396 . S
C847 C852 1.390 . S
C848 C842 1.465 . S
C848 C847 1.396 . S
C848 C849 1.399 . S
C849 H835 0.929 . S
C849 C848 1.399 . S
C849 C850 1.385 . S
C850 H836 0.931 . S
C850 C849 1.385 . S
C850 C851 1.389 . S
C851 C850 1.389 . S
C851 C852 1.387 . S
C852 H837 0.930 . S
C852 C847 1.390 . S
C852 C851 1.387 . S
H853 C865 0.930 . S
H854 C867 0.930 . S
H855 C868 0.930 . S
H856 C872 0.959 . S
H857 C872 0.959 . S
H858 C872 0.961 . S
H859 C873 0.960 . S
H860 C873 0.961 . S
H861 C873 0.959 . S
H862 C876 0.929 . S
H863 C877 0.931 . S
H864 C879 0.930 . S
C865 H853 0.930 . S
C865 C866 1.399 . S
C865 C870 1.399 . S
C866 C865 1.399 . S
C866 C867 1.376 . S
C867 H854 0.930 . S
C867 C866 1.376 . S
C867 C868 1.388 . S
C868 H855 0.930 . S
C868 C867 1.388 . S
C868 C869 1.390 . S
C869 C868 1.390 . S
C869 C870 1.394 . S
C869 C875 1.465 . S
C870 C865 1.399 . S
C870 C869 1.394 . S
C870 C871 1.516 . S
C871 C870 1.516 . S
C871 C872 1.502 . S
C871 C873 1.561 . S
C871 C874 1.526 . S
C872 H856 0.959 . S
C872 H857 0.959 . S
C872 H858 0.961 . S
C872 C871 1.502 . S
C873 H859 0.960 . S
C873 H860 0.961 . S
C873 H861 0.959 . S
C873 C871 1.561 . S
C874 C871 1.526 . S
C874 C875 1.396 . S
C874 C879 1.390 . S
C875 C869 1.465 . S
C875 C874 1.396 . S
C875 C876 1.399 . S
C876 H862 0.929 . S
C876 C875 1.399 . S
C876 C877 1.385 . S
C877 H863 0.931 . S
C877 C876 1.385 . S
C877 C878 1.389 . S
C878 C877 1.389 . S
C878 C879 1.387 . S
C879 H864 0.930 . S
C879 C874 1.390 . S
C879 C878 1.387 . S
H880 C892 0.930 . S
H881 C894 0.930 . S
H882 C895 0.930 . S
H883 C899 0.962 . S
H884 C899 0.980 . S
H885 C899 0.938 1_554 S
H886 C900 0.956 1_554 S
H887 C900 0.964 . S
H888 C900 0.959 . S
H889 C903 0.929 . S
H890 C904 0.931 . S
H891 C906 0.930 . S
C892 H880 0.930 . S
C892 C893 1.399 . S
C892 C897 1.399 . S
C893 C892 1.399 . S
C893 C894 1.376 . S
C894 H881 0.930 . S
C894 C893 1.376 . S
C894 C895 1.388 . S
C895 H882 0.930 . S
C895 C894 1.388 . S
C895 C896 1.390 . S
C896 C895 1.390 . S
C896 C897 1.394 . S
C896 C902 1.465 1_554 S
C897 C892 1.399 . S
C897 C896 1.394 . S
C897 C898 1.516 1_554 S
C898 C897 1.516 1_556 S
C898 C899 1.502 . S
C898 C900 1.561 . S
C898 C901 1.526 . S
C899 H883 0.962 . S
C899 H884 0.980 . S
C899 H885 0.938 1_556 S
C899 C898 1.502 . S
C900 H886 0.956 1_556 S
C900 H887 0.964 . S
C900 H888 0.959 . S
C900 C898 1.561 . S
C901 C898 1.526 . S
C901 C902 1.396 . S
C901 C906 1.390 . S
C902 C896 1.465 1_556 S
C902 C901 1.396 . S
C902 C903 1.399 . S
C903 H889 0.929 . S
C903 C902 1.399 . S
C903 C904 1.385 . S
C904 H890 0.931 . S
C904 C903 1.385 . S
C904 C905 1.389 . S
C905 C904 1.389 . S
C905 C906 1.387 . S
C906 H891 0.930 . S
C906 C901 1.390 . S
C906 C905 1.387 . S
H907 C919 0.930 . S
H908 C921 0.930 . S
H909 C922 0.930 . S
H910 C926 0.962 . S
H911 C926 0.980 . S
H912 C926 0.938 1_556 S
H913 C927 0.956 1_556 S
H914 C927 0.964 . S
H915 C927 0.959 . S
H916 C930 0.929 . S
H917 C931 0.931 . S
H918 C933 0.930 . S
C919 H907 0.930 . S
C919 C920 1.399 . S
C919 C924 1.399 . S
C920 C919 1.399 . S
C920 C921 1.376 . S
C921 H908 0.930 . S
C921 C920 1.376 . S
C921 C922 1.388 . S
C922 H909 0.930 . S
C922 C921 1.388 . S
C922 C923 1.390 . S
C923 C922 1.390 . S
C923 C924 1.394 . S
C923 C929 1.465 1_556 S
C924 C919 1.399 . S
C924 C923 1.394 . S
C924 C925 1.516 1_556 S
C925 C924 1.516 1_554 S
C925 C926 1.502 . S
C925 C927 1.561 . S
C925 C928 1.526 . S
C926 H910 0.962 . S
C926 H911 0.980 . S
C926 H912 0.938 1_554 S
C926 C925 1.502 . S
C927 H913 0.956 1_554 S
C927 H914 0.964 . S
C927 H915 0.959 . S
C927 C925 1.561 . S
C928 C925 1.526 . S
C928 C929 1.396 . S
C928 C933 1.390 . S
C929 C923 1.465 1_554 S
C929 C928 1.396 . S
C929 C930 1.399 . S
C930 H916 0.929 . S
C930 C929 1.399 . S
C930 C931 1.385 . S
C931 H917 0.931 . S
C931 C930 1.385 . S
C931 C932 1.389 . S
C932 C931 1.389 . S
C932 C933 1.387 . S
C933 H918 0.930 . S
C933 C928 1.390 . S
C933 C932 1.387 . S
H934 C946 0.930 . S
H935 C948 0.930 . S
H936 C949 0.930 . S
H937 C953 0.962 . S
H938 C953 0.980 . S
H939 C953 0.938 1_556 S
H940 C954 0.957 1_556 S
H941 C954 0.964 . S
H942 C954 0.959 . S
H943 C957 0.929 . S
H944 C958 0.931 . S
H945 C960 0.930 . S
C946 H934 0.930 . S
C946 C947 1.399 . S
C946 C951 1.399 . S
C947 C946 1.399 . S
C947 C948 1.376 . S
C948 H935 0.930 . S
C948 C947 1.376 . S
C948 C949 1.388 . S
C949 H936 0.930 . S
C949 C948 1.388 . S
C949 C950 1.390 . S
C950 C949 1.390 . S
C950 C951 1.394 . S
C950 C956 1.465 1_556 S
C951 C946 1.399 . S
C951 C950 1.394 . S
C951 C952 1.516 1_556 S
C952 C951 1.516 1_554 S
C952 C953 1.502 . S
C952 C954 1.561 . S
C952 C955 1.526 . S
C953 H937 0.962 . S
C953 H938 0.980 . S
C953 H939 0.938 1_554 S
C953 C952 1.502 . S
C954 H940 0.957 1_554 S
C954 H941 0.964 . S
C954 H942 0.959 . S
C954 C952 1.561 . S
C955 C952 1.526 . S
C955 C956 1.396 . S
C955 C960 1.390 . S
C956 C950 1.465 1_554 S
C956 C955 1.396 . S
C956 C957 1.399 . S
C957 H943 0.929 . S
C957 C956 1.399 . S
C957 C958 1.385 . S
C958 H944 0.931 . S
C958 C957 1.385 . S
C958 C959 1.389 . S
C959 C958 1.389 . S
C959 C960 1.387 . S
C960 H945 0.930 . S
C960 C955 1.390 . S
C960 C959 1.387 . S
H961 C973 0.930 . S
H962 C975 0.930 . S
H963 C976 0.930 . S
H964 C980 0.962 . S
H965 C980 0.980 . S
H966 C980 0.938 1_556 S
H967 C981 0.956 1_556 S
H968 C981 0.964 . S
H969 C981 0.959 . S
H970 C984 0.929 . S
H971 C985 0.931 . S
H972 C987 0.930 . S
C973 H961 0.930 . S
C973 C974 1.399 . S
C973 C978 1.399 . S
C974 C973 1.399 . S
C974 C975 1.376 . S
C975 H962 0.930 . S
C975 C974 1.376 . S
C975 C976 1.388 . S
C976 H963 0.930 . S
C976 C975 1.388 . S
C976 C977 1.390 . S
C977 C976 1.390 . S
C977 C978 1.394 . S
C977 C983 1.465 1_556 S
C978 C973 1.399 . S
C978 C977 1.394 . S
C978 C979 1.516 1_556 S
C979 C978 1.516 1_554 S
C979 C980 1.502 . S
C979 C981 1.561 . S
C979 C982 1.526 . S
C980 H964 0.962 . S
C980 H965 0.980 . S
C980 H966 0.938 1_554 S
C980 C979 1.502 . S
C981 H967 0.956 1_554 S
C981 H968 0.964 . S
C981 H969 0.959 . S
C981 C979 1.561 . S
C982 C979 1.526 . S
C982 C983 1.396 . S
C982 C987 1.390 . S
C983 C977 1.465 1_554 S
C983 C982 1.396 . S
C983 C984 1.399 . S
C984 H970 0.929 . S
C984 C983 1.399 . S
C984 C985 1.385 . S
C985 H971 0.931 . S
C985 C984 1.385 . S
C985 C986 1.389 . S
C986 C985 1.389 . S
C986 C987 1.387 . S
C987 H972 0.930 . S
C987 C982 1.390 . S
C987 C986 1.387 . S
H988 C1000 0.930 . S
H989 C1002 0.930 . S
H990 C1003 0.930 . S
H991 C1007 0.959 . S
H992 C1007 0.959 . S
H993 C1007 0.961 . S
H994 C1008 0.960 . S
H995 C1008 0.961 . S
H996 C1008 0.959 . S
H997 C1011 0.929 . S
H998 C1012 0.931 . S
H999 C1014 0.930 . S
C1000 H988 0.930 . S
C1000 C1001 1.399 . S
C1000 C1005 1.399 . S
C1001 C1000 1.399 . S
C1001 C1002 1.376 . S
C1002 H989 0.930 . S
C1002 C1001 1.376 . S
C1002 C1003 1.388 . S
C1003 H990 0.930 . S
C1003 C1002 1.388 . S
C1003 C1004 1.390 . S
C1004 C1003 1.390 . S
C1004 C1005 1.394 . S
C1004 C1010 1.465 . S
C1005 C1000 1.399 . S
C1005 C1004 1.394 . S
C1005 C1006 1.516 . S
C1006 C1005 1.516 . S
C1006 C1007 1.502 . S
C1006 C1008 1.561 . S
C1006 C1009 1.526 . S
C1007 H991 0.959 . S
C1007 H992 0.959 . S
C1007 H993 0.961 . S
C1007 C1006 1.502 . S
C1008 H994 0.960 . S
C1008 H995 0.961 . S
C1008 H996 0.959 . S
C1008 C1006 1.561 . S
C1009 C1006 1.526 . S
C1009 C1010 1.396 . S
C1009 C1014 1.390 . S
C1010 C1004 1.465 . S
C1010 C1009 1.396 . S
C1010 C1011 1.399 . S
C1011 H997 0.929 . S
C1011 C1010 1.399 . S
C1011 C1012 1.385 . S
C1012 H998 0.931 . S
C1012 C1011 1.385 . S
C1012 C1013 1.389 . S
C1013 C1012 1.389 . S
C1013 C1014 1.387 . S
C1014 H999 0.930 . S
C1014 C1009 1.390 . S
C1014 C1013 1.387 . S
H1015 C1027 0.930 . S
H1016 C1029 0.930 . S
H1017 C1030 0.930 . S
H1018 C1034 0.959 . S
H1019 C1034 0.959 . S
H1020 C1034 0.961 . S
H1021 C1035 0.960 . S
H1022 C1035 0.961 . S
H1023 C1035 0.959 . S
H1024 C1038 0.929 . S
H1025 C1039 0.931 . S
H1026 C1041 0.930 . S
C1027 H1015 0.930 . S
C1027 C1028 1.399 . S
C1027 C1032 1.399 . S
C1028 C1027 1.399 . S
C1028 C1029 1.376 . S
C1029 H1016 0.930 . S
C1029 C1028 1.376 . S
C1029 C1030 1.388 . S
C1030 H1017 0.930 . S
C1030 C1029 1.388 . S
C1030 C1031 1.390 . S
C1031 C1030 1.390 . S
C1031 C1032 1.394 . S
C1031 C1037 1.465 . S
C1032 C1027 1.399 . S
C1032 C1031 1.394 . S
C1032 C1033 1.516 . S
C1033 C1032 1.516 . S
C1033 C1034 1.502 . S
C1033 C1035 1.561 . S
C1033 C1036 1.526 . S
C1034 H1018 0.959 . S
C1034 H1019 0.959 . S
C1034 H1020 0.961 . S
C1034 C1033 1.502 . S
C1035 H1021 0.960 . S
C1035 H1022 0.961 . S
C1035 H1023 0.959 . S
C1035 C1033 1.561 . S
C1036 C1033 1.526 . S
C1036 C1037 1.396 . S
C1036 C1041 1.390 . S
C1037 C1031 1.465 . S
C1037 C1036 1.396 . S
C1037 C1038 1.399 . S
C1038 H1024 0.929 . S
C1038 C1037 1.399 . S
C1038 C1039 1.385 . S
C1039 H1025 0.931 . S
C1039 C1038 1.385 . S
C1039 C1040 1.389 . S
C1040 C1039 1.389 . S
C1040 C1041 1.387 . S
C1041 H1026 0.930 . S
C1041 C1036 1.390 . S
C1041 C1040 1.387 . S
H1042 C1054 0.930 . S
H1043 C1056 0.930 . S
H1044 C1057 0.930 . S
H1045 C1061 0.959 . S
H1046 C1061 0.959 . S
H1047 C1061 0.961 . S
H1048 C1062 0.960 . S
H1049 C1062 0.961 . S
H1050 C1062 0.959 . S
H1051 C1065 0.929 . S
H1052 C1066 0.931 . S
H1053 C1068 0.930 . S
C1054 H1042 0.930 . S
C1054 C1055 1.399 . S
C1054 C1059 1.399 . S
C1055 C1054 1.399 . S
C1055 C1056 1.376 . S
C1056 H1043 0.930 . S
C1056 C1055 1.376 . S
C1056 C1057 1.388 . S
C1057 H1044 0.930 . S
C1057 C1056 1.388 . S
C1057 C1058 1.390 . S
C1058 C1057 1.390 . S
C1058 C1059 1.394 . S
C1058 C1064 1.465 . S
C1059 C1054 1.399 . S
C1059 C1058 1.394 . S
C1059 C1060 1.516 . S
C1060 C1059 1.516 . S
C1060 C1061 1.502 . S
C1060 C1062 1.561 . S
C1060 C1063 1.526 . S
C1061 H1045 0.959 . S
C1061 H1046 0.959 . S
C1061 H1047 0.961 . S
C1061 C1060 1.502 . S
C1062 H1048 0.960 . S
C1062 H1049 0.961 . S
C1062 H1050 0.959 . S
C1062 C1060 1.561 . S
C1063 C1060 1.526 . S
C1063 C1064 1.396 . S
C1063 C1068 1.390 . S
C1064 C1058 1.465 . S
C1064 C1063 1.396 . S
C1064 C1065 1.399 . S
C1065 H1051 0.929 . S
C1065 C1064 1.399 . S
C1065 C1066 1.385 . S
C1066 H1052 0.931 . S
C1066 C1065 1.385 . S
C1066 C1067 1.389 . S
C1067 C1066 1.389 . S
C1067 C1068 1.387 . S
C1068 H1053 0.930 . S
C1068 C1063 1.390 . S
C1068 C1067 1.387 . S
H1069 C1081 0.930 . S
H1070 C1083 0.930 . S
H1071 C1084 0.930 . S
H1072 C1088 0.959 . S
H1073 C1088 0.959 . S
H1074 C1088 0.961 . S
H1075 C1089 0.960 . S
H1076 C1089 0.961 . S
H1077 C1089 0.959 . S
H1078 C1092 0.929 . S
H1079 C1093 0.931 . S
H1080 C1095 0.930 . S
C1081 H1069 0.930 . S
C1081 C1082 1.399 . S
C1081 C1086 1.399 . S
C1082 C1081 1.399 . S
C1082 C1083 1.376 . S
C1083 H1070 0.930 . S
C1083 C1082 1.376 . S
C1083 C1084 1.388 . S
C1084 H1071 0.930 . S
C1084 C1083 1.388 . S
C1084 C1085 1.390 . S
C1085 C1084 1.390 . S
C1085 C1086 1.394 . S
C1085 C1091 1.465 . S
C1086 C1081 1.399 . S
C1086 C1085 1.394 . S
C1086 C1087 1.516 . S
C1087 C1086 1.516 . S
C1087 C1088 1.502 . S
C1087 C1089 1.561 . S
C1087 C1090 1.526 . S
C1088 H1072 0.959 . S
C1088 H1073 0.959 . S
C1088 H1074 0.961 . S
C1088 C1087 1.502 . S
C1089 H1075 0.960 . S
C1089 H1076 0.961 . S
C1089 H1077 0.959 . S
C1089 C1087 1.561 . S
C1090 C1087 1.526 . S
C1090 C1091 1.396 . S
C1090 C1095 1.390 . S
C1091 C1085 1.465 . S
C1091 C1090 1.396 . S
C1091 C1092 1.399 . S
C1092 H1078 0.929 . S
C1092 C1091 1.399 . S
C1092 C1093 1.385 . S
C1093 H1079 0.931 . S
C1093 C1092 1.385 . S
C1093 C1094 1.389 . S
C1094 C1093 1.389 . S
C1094 C1095 1.387 . S
C1095 H1080 0.930 . S
C1095 C1090 1.390 . S
C1095 C1094 1.387 . S
H1096 C1108 0.930 . S
H1097 C1110 0.930 . S
H1098 C1111 0.930 . S
H1099 C1115 0.959 . S
H1100 C1115 0.959 . S
H1101 C1115 0.961 . S
H1102 C1116 0.960 . S
H1103 C1116 0.961 . S
H1104 C1116 0.959 . S
H1105 C1119 0.929 . S
H1106 C1120 0.931 . S
H1107 C1122 0.930 . S
C1108 H1096 0.930 . S
C1108 C1109 1.399 . S
C1108 C1113 1.399 . S
C1109 C1108 1.399 . S
C1109 C1110 1.376 . S
C1110 H1097 0.930 . S
C1110 C1109 1.376 . S
C1110 C1111 1.388 . S
C1111 H1098 0.930 . S
C1111 C1110 1.388 . S
C1111 C1112 1.390 . S
C1112 C1111 1.390 . S
C1112 C1113 1.394 . S
C1112 C1118 1.465 . S
C1113 C1108 1.399 . S
C1113 C1112 1.394 . S
C1113 C1114 1.516 . S
C1114 C1113 1.516 . S
C1114 C1115 1.502 . S
C1114 C1116 1.561 . S
C1114 C1117 1.526 . S
C1115 H1099 0.959 . S
C1115 H1100 0.959 . S
C1115 H1101 0.961 . S
C1115 C1114 1.502 . S
C1116 H1102 0.960 . S
C1116 H1103 0.961 . S
C1116 H1104 0.959 . S
C1116 C1114 1.561 . S
C1117 C1114 1.526 . S
C1117 C1118 1.396 . S
C1117 C1122 1.390 . S
C1118 C1112 1.465 . S
C1118 C1117 1.396 . S
C1118 C1119 1.399 . S
C1119 H1105 0.929 . S
C1119 C1118 1.399 . S
C1119 C1120 1.385 . S
C1120 H1106 0.931 . S
C1120 C1119 1.385 . S
C1120 C1121 1.389 . S
C1121 C1120 1.389 . S
C1121 C1122 1.387 . S
C1122 H1107 0.930 . S
C1122 C1117 1.390 . S
C1122 C1121 1.387 . S
H1123 C1135 0.930 . S
H1124 C1137 0.930 . S
H1125 C1138 0.930 . S
H1126 C1142 0.959 . S
H1127 C1142 0.959 . S
H1128 C1142 0.961 . S
H1129 C1143 0.960 . S
H1130 C1143 0.961 . S
H1131 C1143 0.959 . S
H1132 C1146 0.929 . S
H1133 C1147 0.931 . S
H1134 C1149 0.930 . S
C1135 H1123 0.930 . S
C1135 C1136 1.399 . S
C1135 C1140 1.399 . S
C1136 C1135 1.399 . S
C1136 C1137 1.376 . S
C1137 H1124 0.930 . S
C1137 C1136 1.376 . S
C1137 C1138 1.388 . S
C1138 H1125 0.930 . S
C1138 C1137 1.388 . S
C1138 C1139 1.390 . S
C1139 C1138 1.390 . S
C1139 C1140 1.394 . S
C1139 C1145 1.465 . S
C1140 C1135 1.399 . S
C1140 C1139 1.394 . S
C1140 C1141 1.516 . S
C1141 C1140 1.516 . S
C1141 C1142 1.502 . S
C1141 C1143 1.561 . S
C1141 C1144 1.526 . S
C1142 H1126 0.959 . S
C1142 H1127 0.959 . S
C1142 H1128 0.961 . S
C1142 C1141 1.502 . S
C1143 H1129 0.960 . S
C1143 H1130 0.961 . S
C1143 H1131 0.959 . S
C1143 C1141 1.561 . S
C1144 C1141 1.526 . S
C1144 C1145 1.396 . S
C1144 C1149 1.390 . S
C1145 C1139 1.465 . S
C1145 C1144 1.396 . S
C1145 C1146 1.399 . S
C1146 H1132 0.929 . S
C1146 C1145 1.399 . S
C1146 C1147 1.385 . S
C1147 H1133 0.931 . S
C1147 C1146 1.385 . S
C1147 C1148 1.389 . S
C1148 C1147 1.389 . S
C1148 C1149 1.387 . S
C1149 H1134 0.930 . S
C1149 C1144 1.390 . S
C1149 C1148 1.387 . S
H1150 C1162 0.930 . S
H1151 C1164 0.930 . S
H1152 C1165 0.930 . S
H1153 C1169 0.959 . S
H1154 C1169 0.959 . S
H1155 C1169 0.961 . S
H1156 C1170 0.960 . S
H1157 C1170 0.961 . S
H1158 C1170 0.959 . S
H1159 C1173 0.929 . S
H1160 C1174 0.931 . S
H1161 C1176 0.930 . S
C1162 H1150 0.930 . S
C1162 C1163 1.399 . S
C1162 C1167 1.399 . S
C1163 C1162 1.399 . S
C1163 C1164 1.376 . S
C1164 H1151 0.930 . S
C1164 C1163 1.376 . S
C1164 C1165 1.388 . S
C1165 H1152 0.930 . S
C1165 C1164 1.388 . S
C1165 C1166 1.390 . S
C1166 C1165 1.390 . S
C1166 C1167 1.394 . S
C1166 C1172 1.465 . S
C1167 C1162 1.399 . S
C1167 C1166 1.394 . S
C1167 C1168 1.516 . S
C1168 C1167 1.516 . S
C1168 C1169 1.502 . S
C1168 C1170 1.561 . S
C1168 C1171 1.526 . S
C1169 H1153 0.959 . S
C1169 H1154 0.959 . S
C1169 H1155 0.961 . S
C1169 C1168 1.502 . S
C1170 H1156 0.960 . S
C1170 H1157 0.961 . S
C1170 H1158 0.959 . S
C1170 C1168 1.561 . S
C1171 C1168 1.526 . S
C1171 C1172 1.396 . S
C1171 C1176 1.390 . S
C1172 C1166 1.465 . S
C1172 C1171 1.396 . S
C1172 C1173 1.399 . S
C1173 H1159 0.929 . S
C1173 C1172 1.399 . S
C1173 C1174 1.385 . S
C1174 H1160 0.931 . S
C1174 C1173 1.385 . S
C1174 C1175 1.389 . S
C1175 C1174 1.389 . S
C1175 C1176 1.387 . S
C1176 H1161 0.930 . S
C1176 C1171 1.390 . S
C1176 C1175 1.387 . S
H1177 C1189 0.930 . S
H1178 C1191 0.930 . S
H1179 C1192 0.930 . S
H1180 C1196 0.959 . S
H1181 C1196 0.959 . S
H1182 C1196 0.961 . S
H1183 C1197 0.960 . S
H1184 C1197 0.961 . S
H1185 C1197 0.959 . S
H1186 C1200 0.929 . S
H1187 C1201 0.931 . S
H1188 C1203 0.930 . S
C1189 H1177 0.930 . S
C1189 C1190 1.399 . S
C1189 C1194 1.399 . S
C1190 C1189 1.399 . S
C1190 C1191 1.376 . S
C1191 H1178 0.930 . S
C1191 C1190 1.376 . S
C1191 C1192 1.388 . S
C1192 H1179 0.930 . S
C1192 C1191 1.388 . S
C1192 C1193 1.390 . S
C1193 C1192 1.390 . S
C1193 C1194 1.394 . S
C1193 C1199 1.465 . S
C1194 C1189 1.399 . S
C1194 C1193 1.394 . S
C1194 C1195 1.516 . S
C1195 C1194 1.516 . S
C1195 C1196 1.502 . S
C1195 C1197 1.561 . S
C1195 C1198 1.526 . S
C1196 H1180 0.959 . S
C1196 H1181 0.959 . S
C1196 H1182 0.961 . S
C1196 C1195 1.502 . S
C1197 H1183 0.960 . S
C1197 H1184 0.961 . S
C1197 H1185 0.959 . S
C1197 C1195 1.561 . S
C1198 C1195 1.526 . S
C1198 C1199 1.396 . S
C1198 C1203 1.390 . S
C1199 C1193 1.465 . S
C1199 C1198 1.396 . S
C1199 C1200 1.399 . S
C1200 H1186 0.929 . S
C1200 C1199 1.399 . S
C1200 C1201 1.385 . S
C1201 H1187 0.931 . S
C1201 C1200 1.385 . S
C1201 C1202 1.389 . S
C1202 C1201 1.389 . S
C1202 C1203 1.387 . S
C1203 H1188 0.930 . S
C1203 C1198 1.390 . S
C1203 C1202 1.387 . S
H1204 C1216 0.930 . S
H1205 C1218 0.930 . S
H1206 C1219 0.930 . S
H1207 C1223 0.962 . S
H1208 C1223 0.980 . S
H1209 C1223 0.938 1_556 S
H1210 C1224 0.956 1_556 S
H1211 C1224 0.964 . S
H1212 C1224 0.959 . S
H1213 C1227 0.929 . S
H1214 C1228 0.931 . S
H1215 C1230 0.930 . S
C1216 H1204 0.930 . S
C1216 C1217 1.399 . S
C1216 C1221 1.399 . S
C1217 C1216 1.399 . S
C1217 C1218 1.376 . S
C1218 H1205 0.930 . S
C1218 C1217 1.376 . S
C1218 C1219 1.388 . S
C1219 H1206 0.930 . S
C1219 C1218 1.388 . S
C1219 C1220 1.390 . S
C1220 C1219 1.390 . S
C1220 C1221 1.394 . S
C1220 C1226 1.465 1_556 S
C1221 C1216 1.399 . S
C1221 C1220 1.394 . S
C1221 C1222 1.516 1_556 S
C1222 C1221 1.516 1_554 S
C1222 C1223 1.502 . S
C1222 C1224 1.561 . S
C1222 C1225 1.526 . S
C1223 H1207 0.962 . S
C1223 H1208 0.980 . S
C1223 H1209 0.938 1_554 S
C1223 C1222 1.502 . S
C1224 H1210 0.956 1_554 S
C1224 H1211 0.964 . S
C1224 H1212 0.959 . S
C1224 C1222 1.561 . S
C1225 C1222 1.526 . S
C1225 C1226 1.396 . S
C1225 C1230 1.390 . S
C1226 C1220 1.465 1_554 S
C1226 C1225 1.396 . S
C1226 C1227 1.399 . S
C1227 H1213 0.929 . S
C1227 C1226 1.399 . S
C1227 C1228 1.385 . S
C1228 H1214 0.931 . S
C1228 C1227 1.385 . S
C1228 C1229 1.389 . S
C1229 C1228 1.389 . S
C1229 C1230 1.387 . S
C1230 H1215 0.930 . S
C1230 C1225 1.390 . S
C1230 C1229 1.387 . S
H1231 C1243 0.930 . S
H1232 C1245 0.930 . S
H1233 C1246 0.930 . S
H1234 C1250 0.962 . S
H1235 C1250 0.980 . S
H1236 C1250 0.938 1_554 S
H1237 C1251 0.956 1_554 S
H1238 C1251 0.964 . S
H1239 C1251 0.959 . S
H1240 C1254 0.929 . S
H1241 C1255 0.931 . S
H1242 C1257 0.930 . S
C1243 H1231 0.930 . S
C1243 C1244 1.399 . S
C1243 C1248 1.399 . S
C1244 C1243 1.399 . S
C1244 C1245 1.376 . S
C1245 H1232 0.930 . S
C1245 C1244 1.376 . S
C1245 C1246 1.388 . S
C1246 H1233 0.930 . S
C1246 C1245 1.388 . S
C1246 C1247 1.390 . S
C1247 C1246 1.390 . S
C1247 C1248 1.394 . S
C1247 C1253 1.465 1_554 S
C1248 C1243 1.399 . S
C1248 C1247 1.394 . S
C1248 C1249 1.516 1_554 S
C1249 C1248 1.516 1_556 S
C1249 C1250 1.502 . S
C1249 C1251 1.561 . S
C1249 C1252 1.526 . S
C1250 H1234 0.962 . S
C1250 H1235 0.980 . S
C1250 H1236 0.938 1_556 S
C1250 C1249 1.502 . S
C1251 H1237 0.956 1_556 S
C1251 H1238 0.964 . S
C1251 H1239 0.959 . S
C1251 C1249 1.561 . S
C1252 C1249 1.526 . S
C1252 C1253 1.396 . S
C1252 C1257 1.390 . S
C1253 C1247 1.465 1_556 S
C1253 C1252 1.396 . S
C1253 C1254 1.399 . S
C1254 H1240 0.929 . S
C1254 C1253 1.399 . S
C1254 C1255 1.385 . S
C1255 H1241 0.931 . S
C1255 C1254 1.385 . S
C1255 C1256 1.389 . S
C1256 C1255 1.389 . S
C1256 C1257 1.387 . S
C1257 H1242 0.930 . S
C1257 C1252 1.390 . S
C1257 C1256 1.387 . S
H1258 C1270 0.930 . S
H1259 C1272 0.930 . S
H1260 C1273 0.930 . S
H1261 C1277 0.962 . S
H1262 C1277 0.980 . S
H1263 C1277 0.938 1_554 S
H1264 C1278 0.957 1_554 S
H1265 C1278 0.964 . S
H1266 C1278 0.959 . S
H1267 C1281 0.929 . S
H1268 C1282 0.931 . S
H1269 C1284 0.930 . S
C1270 H1258 0.930 . S
C1270 C1271 1.399 . S
C1270 C1275 1.399 . S
C1271 C1270 1.399 . S
C1271 C1272 1.376 . S
C1272 H1259 0.930 . S
C1272 C1271 1.376 . S
C1272 C1273 1.388 . S
C1273 H1260 0.930 . S
C1273 C1272 1.388 . S
C1273 C1274 1.390 . S
C1274 C1273 1.390 . S
C1274 C1275 1.394 . S
C1274 C1280 1.465 1_554 S
C1275 C1270 1.399 . S
C1275 C1274 1.394 . S
C1275 C1276 1.516 1_554 S
C1276 C1275 1.516 1_556 S
C1276 C1277 1.502 . S
C1276 C1278 1.561 . S
C1276 C1279 1.526 . S
C1277 H1261 0.962 . S
C1277 H1262 0.980 . S
C1277 H1263 0.938 1_556 S
C1277 C1276 1.502 . S
C1278 H1264 0.957 1_556 S
C1278 H1265 0.964 . S
C1278 H1266 0.959 . S
C1278 C1276 1.561 . S
C1279 C1276 1.526 . S
C1279 C1280 1.396 . S
C1279 C1284 1.390 . S
C1280 C1274 1.465 1_556 S
C1280 C1279 1.396 . S
C1280 C1281 1.399 . S
C1281 H1267 0.929 . S
C1281 C1280 1.399 . S
C1281 C1282 1.385 . S
C1282 H1268 0.931 . S
C1282 C1281 1.385 . S
C1282 C1283 1.389 . S
C1283 C1282 1.389 . S
C1283 C1284 1.387 . S
C1284 H1269 0.930 . S
C1284 C1279 1.390 . S
C1284 C1283 1.387 . S
H1285 C1297 0.930 . S
H1286 C1299 0.930 . S
H1287 C1300 0.930 . S
H1288 C1304 0.962 . S
H1289 C1304 0.980 . S
H1290 C1304 0.938 1_556 S
H1291 C1305 0.956 1_556 S
H1292 C1305 0.964 . S
H1293 C1305 0.959 . S
H1294 C1308 0.929 . S
H1295 C1309 0.931 . S
H1296 C1311 0.930 . S
C1297 H1285 0.930 . S
C1297 C1298 1.399 . S
C1297 C1302 1.399 . S
C1298 C1297 1.399 . S
C1298 C1299 1.376 . S
C1299 H1286 0.930 . S
C1299 C1298 1.376 . S
C1299 C1300 1.388 . S
C1300 H1287 0.930 . S
C1300 C1299 1.388 . S
C1300 C1301 1.390 . S
C1301 C1300 1.390 . S
C1301 C1302 1.394 . S
C1301 C1307 1.465 1_556 S
C1302 C1297 1.399 . S
C1302 C1301 1.394 . S
C1302 C1303 1.516 1_556 S
C1303 C1302 1.516 1_554 S
C1303 C1304 1.502 . S
C1303 C1305 1.561 . S
C1303 C1306 1.526 . S
C1304 H1288 0.962 . S
C1304 H1289 0.980 . S
C1304 H1290 0.938 1_554 S
C1304 C1303 1.502 . S
C1305 H1291 0.956 1_554 S
C1305 H1292 0.964 . S
C1305 H1293 0.959 . S
C1305 C1303 1.561 . S
C1306 C1303 1.526 . S
C1306 C1307 1.396 . S
C1306 C1311 1.390 . S
C1307 C1301 1.465 1_554 S
C1307 C1306 1.396 . S
C1307 C1308 1.399 . S
C1308 H1294 0.929 . S
C1308 C1307 1.399 . S
C1308 C1309 1.385 . S
C1309 H1295 0.931 . S
C1309 C1308 1.385 . S
C1309 C1310 1.389 . S
C1310 C1309 1.389 . S
C1310 C1311 1.387 . S
C1311 H1296 0.930 . S
C1311 C1306 1.390 . S
C1311 C1310 1.387 . S
H1312 C1324 0.930 . S
H1313 C1326 0.930 . S
H1314 C1327 0.930 . S
H1315 C1331 0.959 . S
H1316 C1331 0.959 . S
H1317 C1331 0.961 . S
H1318 C1332 0.960 . S
H1319 C1332 0.961 . S
H1320 C1332 0.959 . S
H1321 C1335 0.929 . S
H1322 C1336 0.931 . S
H1323 C1338 0.930 . S
C1324 H1312 0.930 . S
C1324 C1325 1.399 . S
C1324 C1329 1.399 . S
C1325 C1324 1.399 . S
C1325 C1326 1.376 . S
C1326 H1313 0.930 . S
C1326 C1325 1.376 . S
C1326 C1327 1.388 . S
C1327 H1314 0.930 . S
C1327 C1326 1.388 . S
C1327 C1328 1.390 . S
C1328 C1327 1.390 . S
C1328 C1329 1.394 . S
C1328 C1334 1.465 1_545 S
C1329 C1324 1.399 . S
C1329 C1328 1.394 . S
C1329 C1330 1.516 1_545 S
C1330 C1329 1.516 1_565 S
C1330 C1331 1.502 . S
C1330 C1332 1.561 . S
C1330 C1333 1.526 . S
C1331 H1315 0.959 . S
C1331 H1316 0.959 . S
C1331 H1317 0.961 . S
C1331 C1330 1.502 . S
C1332 H1318 0.960 . S
C1332 H1319 0.961 . S
C1332 H1320 0.959 . S
C1332 C1330 1.561 . S
C1333 C1330 1.526 . S
C1333 C1334 1.396 . S
C1333 C1338 1.390 . S
C1334 C1328 1.465 1_565 S
C1334 C1333 1.396 . S
C1334 C1335 1.399 . S
C1335 H1321 0.929 . S
C1335 C1334 1.399 . S
C1335 C1336 1.385 . S
C1336 H1322 0.931 . S
C1336 C1335 1.385 . S
C1336 C1337 1.389 . S
C1337 C1336 1.389 . S
C1337 C1338 1.387 . S
C1338 H1323 0.930 . S
C1338 C1333 1.390 . S
C1338 C1337 1.387 . S
H1339 C1351 0.930 . S
H1340 C1353 0.930 . S
H1341 C1354 0.930 . S
H1342 C1358 0.959 . S
H1343 C1358 0.959 . S
H1344 C1358 0.961 . S
H1345 C1359 0.960 . S
H1346 C1359 0.961 1_455 S
H1347 C1359 0.959 . S
H1348 C1362 0.929 . S
H1349 C1363 0.931 . S
H1350 C1365 0.930 . S
C1351 H1339 0.930 . S
C1351 C1352 1.399 . S
C1351 C1356 1.399 . S
C1352 C1351 1.399 . S
C1352 C1353 1.376 . S
C1353 H1340 0.930 . S
C1353 C1352 1.376 . S
C1353 C1354 1.388 . S
C1354 H1341 0.930 . S
C1354 C1353 1.388 . S
C1354 C1355 1.390 . S
C1355 C1354 1.390 . S
C1355 C1356 1.394 . S
C1355 C1361 1.465 1_655 S
C1356 C1351 1.399 . S
C1356 C1355 1.394 . S
C1356 C1357 1.516 1_655 S
C1357 C1356 1.516 1_455 S
C1357 C1358 1.502 . S
C1357 C1359 1.561 1_455 S
C1357 C1360 1.526 . S
C1358 H1342 0.959 . S
C1358 H1343 0.959 . S
C1358 H1344 0.961 . S
C1358 C1357 1.502 . S
C1359 H1345 0.960 . S
C1359 H1346 0.961 1_655 S
C1359 H1347 0.959 . S
C1359 C1357 1.561 1_655 S
C1360 C1357 1.526 . S
C1360 C1361 1.396 . S
C1360 C1365 1.390 . S
C1361 C1355 1.465 1_455 S
C1361 C1360 1.396 . S
C1361 C1362 1.399 . S
C1362 H1348 0.929 . S
C1362 C1361 1.399 . S
C1362 C1363 1.385 . S
C1363 H1349 0.931 . S
C1363 C1362 1.385 . S
C1363 C1364 1.389 . S
C1364 C1363 1.389 . S
C1364 C1365 1.387 . S
C1365 H1350 0.930 . S
C1365 C1360 1.390 . S
C1365 C1364 1.387 . S
H1366 C1378 0.930 . S
H1367 C1380 0.930 . S
H1368 C1381 0.930 . S
H1369 C1385 0.959 . S
H1370 C1385 0.959 . S
H1371 C1385 0.961 . S
H1372 C1386 0.960 . S
H1373 C1386 0.961 . S
H1374 C1386 0.959 . S
H1375 C1389 0.929 . S
H1376 C1390 0.931 . S
H1377 C1392 0.930 . S
C1378 H1366 0.930 . S
C1378 C1379 1.399 . S
C1378 C1383 1.399 . S
C1379 C1378 1.399 . S
C1379 C1380 1.376 . S
C1380 H1367 0.930 . S
C1380 C1379 1.376 . S
C1380 C1381 1.388 . S
C1381 H1368 0.930 . S
C1381 C1380 1.388 . S
C1381 C1382 1.390 . S
C1382 C1381 1.390 . S
C1382 C1383 1.394 . S
C1382 C1388 1.465 1_545 S
C1383 C1378 1.399 . S
C1383 C1382 1.394 . S
C1383 C1384 1.516 . S
C1384 C1383 1.516 . S
C1384 C1385 1.502 . S
C1384 C1386 1.561 . S
C1384 C1387 1.526 1_545 S
C1385 H1369 0.959 . S
C1385 H1370 0.959 . S
C1385 H1371 0.961 . S
C1385 C1384 1.502 . S
C1386 H1372 0.960 . S
C1386 H1373 0.961 . S
C1386 H1374 0.959 . S
C1386 C1384 1.561 . S
C1387 C1384 1.526 1_565 S
C1387 C1388 1.396 . S
C1387 C1392 1.390 . S
C1388 C1382 1.465 1_565 S
C1388 C1387 1.396 . S
C1388 C1389 1.399 . S
C1389 H1375 0.929 . S
C1389 C1388 1.399 . S
C1389 C1390 1.385 . S
C1390 H1376 0.931 . S
C1390 C1389 1.385 . S
C1390 C1391 1.389 . S
C1391 C1390 1.389 . S
C1391 C1392 1.387 . S
C1392 H1377 0.930 . S
C1392 C1387 1.390 . S
C1392 C1391 1.387 . S
H1393 C1405 0.930 . S
H1394 C1407 0.930 . S
H1395 C1408 0.930 . S
H1396 C1412 0.959 . S
H1397 C1412 0.959 . S
H1398 C1412 0.937 1_455 S
H1399 C1413 0.960 . S
H1400 C1413 0.961 . S
H1401 C1413 0.959 . S
H1402 C1416 0.929 . S
H1403 C1417 0.931 . S
H1404 C1419 0.930 . S
C1405 H1393 0.930 . S
C1405 C1406 1.399 . S
C1405 C1410 1.399 . S
C1406 C1405 1.399 . S
C1406 C1407 1.376 . S
C1407 H1394 0.930 . S
C1407 C1406 1.376 . S
C1407 C1408 1.388 . S
C1408 H1395 0.930 . S
C1408 C1407 1.388 . S
C1408 C1409 1.390 . S
C1409 C1408 1.390 . S
C1409 C1410 1.394 . S
C1409 C1415 1.465 1_455 S
C1410 C1405 1.399 . S
C1410 C1409 1.394 . S
C1410 C1411 1.516 1_455 S
C1411 C1410 1.516 1_655 S
C1411 C1412 1.502 . S
C1411 C1413 1.561 . S
C1411 C1414 1.526 . S
C1412 H1396 0.959 . S
C1412 H1397 0.959 . S
C1412 H1398 0.937 1_655 S
C1412 C1411 1.502 . S
C1413 H1399 0.960 . S
C1413 H1400 0.961 . S
C1413 H1401 0.959 . S
C1413 C1411 1.561 . S
C1414 C1411 1.526 . S
C1414 C1415 1.396 . S
C1414 C1419 1.390 . S
C1415 C1409 1.465 1_655 S
C1415 C1414 1.396 . S
C1415 C1416 1.399 . S
C1416 H1402 0.929 . S
C1416 C1415 1.399 . S
C1416 C1417 1.385 . S
C1417 H1403 0.931 . S
C1417 C1416 1.385 . S
C1417 C1418 1.389 . S
C1418 C1417 1.389 . S
C1418 C1419 1.387 . S
C1419 H1404 0.930 . S
C1419 C1414 1.390 . S
C1419 C1418 1.387 . S
H1420 C1432 0.930 . S
H1421 C1434 0.930 . S
H1422 C1435 0.930 . S
H1423 C1439 0.959 1_565 S
H1424 C1439 0.959 . S
H1425 C1439 0.961 1_565 S
H1426 C1440 0.960 . S
H1427 C1440 0.961 . S
H1428 C1440 0.959 . S
H1429 C1443 0.929 . S
H1430 C1444 0.931 . S
H1431 C1446 0.930 . S
C1432 H1420 0.930 . S
C1432 C1433 1.399 . S
C1432 C1437 1.399 . S
C1433 C1432 1.399 . S
C1433 C1434 1.376 . S
C1434 H1421 0.930 . S
C1434 C1433 1.376 . S
C1434 C1435 1.388 . S
C1435 H1422 0.930 . S
C1435 C1434 1.388 . S
C1435 C1436 1.390 . S
C1436 C1435 1.390 . S
C1436 C1437 1.394 . S
C1436 C1442 1.465 1_565 S
C1437 C1432 1.399 . S
C1437 C1436 1.394 . S
C1437 C1438 1.516 1_565 S
C1438 C1437 1.516 1_545 S
C1438 C1439 1.502 . S
C1438 C1440 1.561 . S
C1438 C1441 1.526 . S
C1439 H1423 0.959 1_545 S
C1439 H1424 0.959 . S
C1439 H1425 0.961 1_545 S
C1439 C1438 1.502 . S
C1440 H1426 0.960 . S
C1440 H1427 0.961 . S
C1440 H1428 0.959 . S
C1440 C1438 1.561 . S
C1441 C1438 1.526 . S
C1441 C1442 1.396 . S
C1441 C1446 1.390 . S
C1442 C1436 1.465 1_545 S
C1442 C1441 1.396 . S
C1442 C1443 1.399 . S
C1443 H1429 0.929 . S
C1443 C1442 1.399 . S
C1443 C1444 1.385 . S
C1444 H1430 0.931 . S
C1444 C1443 1.385 . S
C1444 C1445 1.389 . S
C1445 C1444 1.389 . S
C1445 C1446 1.387 . S
C1446 H1431 0.930 . S
C1446 C1441 1.390 . S
C1446 C1445 1.387 . S
H1447 C1459 0.930 . S
H1448 C1461 0.930 . S
H1449 C1462 0.930 . S
H1450 C1466 0.959 . S
H1451 C1466 0.959 . S
H1452 C1466 0.961 1_655 S
H1453 C1467 0.960 . S
H1454 C1467 0.983 . S
H1455 C1467 0.959 . S
H1456 C1470 0.929 . S
H1457 C1471 0.931 . S
H1458 C1473 0.930 . S
C1459 H1447 0.930 . S
C1459 C1460 1.399 . S
C1459 C1464 1.399 . S
C1460 C1459 1.399 . S
C1460 C1461 1.376 . S
C1461 H1448 0.930 . S
C1461 C1460 1.376 . S
C1461 C1462 1.388 . S
C1462 H1449 0.930 . S
C1462 C1461 1.388 . S
C1462 C1463 1.390 . S
C1463 C1462 1.390 . S
C1463 C1464 1.394 . S
C1463 C1469 1.465 1_655 S
C1464 C1459 1.399 . S
C1464 C1463 1.394 . S
C1464 C1465 1.546 . S
C1465 C1464 1.546 . S
C1465 C1466 1.486 1_655 S
C1465 C1467 1.580 . S
C1465 C1468 1.496 1_655 S
C1466 H1450 0.959 . S
C1466 H1451 0.959 . S
C1466 H1452 0.961 1_455 S
C1466 C1465 1.486 1_455 S
C1467 H1453 0.960 . S
C1467 H1454 0.983 . S
C1467 H1455 0.959 . S
C1467 C1465 1.580 . S
C1468 C1465 1.496 1_455 S
C1468 C1469 1.396 . S
C1468 C1473 1.390 . S
C1469 C1463 1.465 1_455 S
C1469 C1468 1.396 . S
C1469 C1470 1.399 . S
C1470 H1456 0.929 . S
C1470 C1469 1.399 . S
C1470 C1471 1.385 . S
C1471 H1457 0.931 . S
C1471 C1470 1.385 . S
C1471 C1472 1.389 . S
C1472 C1471 1.389 . S
C1472 C1473 1.387 . S
C1473 H1458 0.930 . S
C1473 C1468 1.390 . S
C1473 C1472 1.387 . S
H1474 C1486 0.930 . S
H1475 C1488 0.930 . S
H1476 C1489 0.930 . S
H1477 C1493 0.959 . S
H1478 C1493 0.959 . S
H1479 C1493 0.961 . S
H1480 C1494 0.960 . S
H1481 C1494 0.961 . S
H1482 C1494 0.959 . S
H1483 C1497 0.961 . S
H1484 C1498 0.931 . S
H1485 C1500 0.930 . S
C1486 H1474 0.930 . S
C1486 C1487 1.399 . S
C1486 C1491 1.399 . S
C1487 C1486 1.399 . S
C1487 C1488 1.376 . S
C1488 H1475 0.930 . S
C1488 C1487 1.376 . S
C1488 C1489 1.388 . S
C1489 H1476 0.930 . S
C1489 C1488 1.388 . S
C1489 C1490 1.390 . S
C1490 C1489 1.390 . S
C1490 C1491 1.394 . S
C1490 C1496 1.465 1_565 S
C1491 C1486 1.399 . S
C1491 C1490 1.394 . S
C1491 C1492 1.516 1_565 S
C1492 C1491 1.516 1_545 S
C1492 C1493 1.502 . S
C1492 C1494 1.561 . S
C1492 C1495 1.526 . S
C1493 H1477 0.959 . S
C1493 H1478 0.959 . S
C1493 H1479 0.961 . S
C1493 C1492 1.502 . S
C1494 H1480 0.960 . S
C1494 H1481 0.961 . S
C1494 H1482 0.959 . S
C1494 C1492 1.561 . S
C1495 C1492 1.526 . S
C1495 C1496 1.396 . S
C1495 C1500 1.390 . S
C1496 C1490 1.465 1_545 S
C1496 C1495 1.396 . S
C1496 C1497 1.399 . S
C1497 H1483 0.961 . S
C1497 C1496 1.399 . S
C1497 C1498 1.385 . S
C1498 H1484 0.931 . S
C1498 C1497 1.385 . S
C1498 C1499 1.389 . S
C1499 C1498 1.389 . S
C1499 C1500 1.387 . S
C1500 H1485 0.930 . S
C1500 C1495 1.390 . S
C1500 C1499 1.387 . S
H1501 C1513 0.930 . S
H1502 C1515 0.930 . S
H1503 C1516 0.950 . S
H1504 C1520 0.959 . S
H1505 C1520 0.959 . S
H1506 C1520 0.961 . S
H1507 C1521 0.960 . S
H1508 C1521 0.961 . S
H1509 C1521 0.959 . S
H1510 C1524 0.929 . S
H1511 C1525 0.931 . S
H1512 C1527 0.930 . S
C1513 H1501 0.930 . S
C1513 C1514 1.399 . S
C1513 C1518 1.399 . S
C1514 C1513 1.399 . S
C1514 C1515 1.376 . S
C1515 H1502 0.930 . S
C1515 C1514 1.376 . S
C1515 C1516 1.388 . S
C1516 H1503 0.950 . S
C1516 C1515 1.388 . S
C1516 C1517 1.390 . S
C1517 C1516 1.390 . S
C1517 C1518 1.394 . S
C1517 C1523 1.465 1_655 S
C1518 C1513 1.399 . S
C1518 C1517 1.394 . S
C1518 C1519 1.516 . S
C1519 C1518 1.516 . S
C1519 C1520 1.502 . S
C1519 C1521 1.561 . S
C1519 C1522 1.526 1_655 S
C1520 H1504 0.959 . S
C1520 H1505 0.959 . S
C1520 H1506 0.961 . S
C1520 C1519 1.502 . S
C1521 H1507 0.960 . S
C1521 H1508 0.961 . S
C1521 H1509 0.959 . S
C1521 C1519 1.561 . S
C1522 C1519 1.526 1_455 S
C1522 C1523 1.396 . S
C1522 C1527 1.390 . S
C1523 C1517 1.465 1_455 S
C1523 C1522 1.396 . S
C1523 C1524 1.399 . S
C1524 H1510 0.929 . S
C1524 C1523 1.399 . S
C1524 C1525 1.385 . S
C1525 H1511 0.931 . S
C1525 C1524 1.385 . S
C1525 C1526 1.389 . S
C1526 C1525 1.389 . S
C1526 C1527 1.387 . S
C1527 H1512 0.930 . S
C1527 C1522 1.390 . S
C1527 C1526 1.387 . S
H1528 C1540 0.930 . S
H1529 C1542 0.930 . S
H1530 C1543 0.930 . S
H1531 C1547 0.959 . S
H1532 C1547 0.959 . S
H1533 C1547 0.961 . S
H1534 C1548 0.960 . S
H1535 C1548 0.961 . S
H1536 C1548 0.959 . S
H1537 C1551 0.929 . S
H1538 C1552 0.931 . S
H1539 C1554 0.930 . S
C1540 H1528 0.930 . S
C1540 C1541 1.399 . S
C1540 C1545 1.399 . S
C1541 C1540 1.399 . S
C1541 C1542 1.376 . S
C1542 H1529 0.930 . S
C1542 C1541 1.376 . S
C1542 C1543 1.388 . S
C1543 H1530 0.930 . S
C1543 C1542 1.388 . S
C1543 C1544 1.390 . S
C1544 C1543 1.390 . S
C1544 C1545 1.394 . S
C1544 C1550 1.465 . S
C1545 C1540 1.399 . S
C1545 C1544 1.394 . S
C1545 C1546 1.516 . S
C1546 C1545 1.516 . S
C1546 C1547 1.502 . S
C1546 C1548 1.561 . S
C1546 C1549 1.526 . S
C1547 H1531 0.959 . S
C1547 H1532 0.959 . S
C1547 H1533 0.961 . S
C1547 C1546 1.502 . S
C1548 H1534 0.960 . S
C1548 H1535 0.961 . S
C1548 H1536 0.959 . S
C1548 C1546 1.561 . S
C1549 C1546 1.526 . S
C1549 C1550 1.396 . S
C1549 C1554 1.390 . S
C1550 C1544 1.465 . S
C1550 C1549 1.396 . S
C1550 C1551 1.399 . S
C1551 H1537 0.929 . S
C1551 C1550 1.399 . S
C1551 C1552 1.385 . S
C1552 H1538 0.931 . S
C1552 C1551 1.385 . S
C1552 C1553 1.389 . S
C1553 C1552 1.389 . S
C1553 C1554 1.387 . S
C1554 H1539 0.930 . S
C1554 C1549 1.390 . S
C1554 C1553 1.387 . S
H1555 C1567 0.930 . S
H1556 C1569 0.930 . S
H1557 C1570 0.930 . S
H1558 C1574 0.959 . S
H1559 C1574 0.959 . S
H1560 C1574 0.961 . S
H1561 C1575 0.960 . S
H1562 C1575 0.961 . S
H1563 C1575 0.959 . S
H1564 C1578 0.929 . S
H1565 C1579 0.931 . S
H1566 C1581 0.930 . S
C1567 H1555 0.930 . S
C1567 C1568 1.399 . S
C1567 C1572 1.399 . S
C1568 C1567 1.399 . S
C1568 C1569 1.376 . S
C1569 H1556 0.930 . S
C1569 C1568 1.376 . S
C1569 C1570 1.388 . S
C1570 H1557 0.930 . S
C1570 C1569 1.388 . S
C1570 C1571 1.390 . S
C1571 C1570 1.390 . S
C1571 C1572 1.394 . S
C1571 C1577 1.465 . S
C1572 C1567 1.399 . S
C1572 C1571 1.394 . S
C1572 C1573 1.516 . S
C1573 C1572 1.516 . S
C1573 C1574 1.502 . S
C1573 C1575 1.561 . S
C1573 C1576 1.526 . S
C1574 H1558 0.959 . S
C1574 H1559 0.959 . S
C1574 H1560 0.961 . S
C1574 C1573 1.502 . S
C1575 H1561 0.960 . S
C1575 H1562 0.961 . S
C1575 H1563 0.959 . S
C1575 C1573 1.561 . S
C1576 C1573 1.526 . S
C1576 C1577 1.396 . S
C1576 C1581 1.390 . S
C1577 C1571 1.465 . S
C1577 C1576 1.396 . S
C1577 C1578 1.399 . S
C1578 H1564 0.929 . S
C1578 C1577 1.399 . S
C1578 C1579 1.385 . S
C1579 H1565 0.931 . S
C1579 C1578 1.385 . S
C1579 C1580 1.389 . S
C1580 C1579 1.389 . S
C1580 C1581 1.387 . S
C1581 H1566 0.930 . S
C1581 C1576 1.390 . S
C1581 C1580 1.387 . S
H1582 C1594 0.930 . S
H1583 C1596 0.930 . S
H1584 C1597 0.930 . S
H1585 C1601 0.959 . S
H1586 C1601 0.959 . S
H1587 C1601 0.961 . S
H1588 C1602 0.960 . S
H1589 C1602 0.961 . S
H1590 C1602 0.959 . S
H1591 C1605 0.929 . S
H1592 C1606 0.931 . S
H1593 C1608 0.930 . S
C1594 H1582 0.930 . S
C1594 C1595 1.399 . S
C1594 C1599 1.399 . S
C1595 C1594 1.399 . S
C1595 C1596 1.376 . S
C1596 H1583 0.930 . S
C1596 C1595 1.376 . S
C1596 C1597 1.388 . S
C1597 H1584 0.930 . S
C1597 C1596 1.388 . S
C1597 C1598 1.390 . S
C1598 C1597 1.390 . S
C1598 C1599 1.394 . S
C1598 C1604 1.465 . S
C1599 C1594 1.399 . S
C1599 C1598 1.394 . S
C1599 C1600 1.516 . S
C1600 C1599 1.516 . S
C1600 C1601 1.502 . S
C1600 C1602 1.561 . S
C1600 C1603 1.526 . S
C1601 H1585 0.959 . S
C1601 H1586 0.959 . S
C1601 H1587 0.961 . S
C1601 C1600 1.502 . S
C1602 H1588 0.960 . S
C1602 H1589 0.961 . S
C1602 H1590 0.959 . S
C1602 C1600 1.561 . S
C1603 C1600 1.526 . S
C1603 C1604 1.396 . S
C1603 C1608 1.390 . S
C1604 C1598 1.465 . S
C1604 C1603 1.396 . S
C1604 C1605 1.399 . S
C1605 H1591 0.929 . S
C1605 C1604 1.399 . S
C1605 C1606 1.385 . S
C1606 H1592 0.931 . S
C1606 C1605 1.385 . S
C1606 C1607 1.389 . S
C1607 C1606 1.389 . S
C1607 C1608 1.387 . S
C1608 H1593 0.930 . S
C1608 C1603 1.390 . S
C1608 C1607 1.387 . S
H1609 C1621 0.930 . S
H1610 C1623 0.930 . S
H1611 C1624 0.930 . S
H1612 C1628 0.959 . S
H1613 C1628 0.959 . S
H1614 C1628 0.961 . S
H1615 C1629 0.960 . S
H1616 C1629 0.961 . S
H1617 C1629 0.959 . S
H1618 C1632 0.929 . S
H1619 C1633 0.931 . S
H1620 C1635 0.930 . S
C1621 H1609 0.930 . S
C1621 C1622 1.399 . S
C1621 C1626 1.399 . S
C1622 C1621 1.399 . S
C1622 C1623 1.376 . S
C1623 H1610 0.930 . S
C1623 C1622 1.376 . S
C1623 C1624 1.388 . S
C1624 H1611 0.930 . S
C1624 C1623 1.388 . S
C1624 C1625 1.390 . S
C1625 C1624 1.390 . S
C1625 C1626 1.394 . S
C1625 C1631 1.465 . S
C1626 C1621 1.399 . S
C1626 C1625 1.394 . S
C1626 C1627 1.516 . S
C1627 C1626 1.516 . S
C1627 C1628 1.502 . S
C1627 C1629 1.561 . S
C1627 C1630 1.526 . S
C1628 H1612 0.959 . S
C1628 H1613 0.959 . S
C1628 H1614 0.961 . S
C1628 C1627 1.502 . S
C1629 H1615 0.960 . S
C1629 H1616 0.961 . S
C1629 H1617 0.959 . S
C1629 C1627 1.561 . S
C1630 C1627 1.526 . S
C1630 C1631 1.396 . S
C1630 C1635 1.390 . S
C1631 C1625 1.465 . S
C1631 C1630 1.396 . S
C1631 C1632 1.399 . S
C1632 H1618 0.929 . S
C1632 C1631 1.399 . S
C1632 C1633 1.385 . S
C1633 H1619 0.931 . S
C1633 C1632 1.385 . S
C1633 C1634 1.389 . S
C1634 C1633 1.389 . S
C1634 C1635 1.387 . S
C1635 H1620 0.930 . S
C1635 C1630 1.390 . S
C1635 C1634 1.387 . S
H1636 C1648 0.930 . S
H1637 C1650 0.930 . S
H1638 C1651 0.930 . S
H1639 C1655 0.959 . S
H1640 C1655 0.959 . S
H1641 C1655 0.961 . S
H1642 C1656 0.960 . S
H1643 C1656 0.961 . S
H1644 C1656 0.959 . S
H1645 C1659 0.929 . S
H1646 C1660 0.931 . S
H1647 C1662 0.930 . S
C1648 H1636 0.930 . S
C1648 C1649 1.399 . S
C1648 C1653 1.399 . S
C1649 C1648 1.399 . S
C1649 C1650 1.376 . S
C1650 H1637 0.930 . S
C1650 C1649 1.376 . S
C1650 C1651 1.388 . S
C1651 H1638 0.930 . S
C1651 C1650 1.388 . S
C1651 C1652 1.390 . S
C1652 C1651 1.390 . S
C1652 C1653 1.394 . S
C1652 C1658 1.465 . S
C1653 C1648 1.399 . S
C1653 C1652 1.394 . S
C1653 C1654 1.516 . S
C1654 C1653 1.516 . S
C1654 C1655 1.502 . S
C1654 C1656 1.561 . S
C1654 C1657 1.526 . S
C1655 H1639 0.959 . S
C1655 H1640 0.959 . S
C1655 H1641 0.961 . S
C1655 C1654 1.502 . S
C1656 H1642 0.960 . S
C1656 H1643 0.961 . S
C1656 H1644 0.959 . S
C1656 C1654 1.561 . S
C1657 C1654 1.526 . S
C1657 C1658 1.396 . S
C1657 C1662 1.390 . S
C1658 C1652 1.465 . S
C1658 C1657 1.396 . S
C1658 C1659 1.399 . S
C1659 H1645 0.929 . S
C1659 C1658 1.399 . S
C1659 C1660 1.385 . S
C1660 H1646 0.931 . S
C1660 C1659 1.385 . S
C1660 C1661 1.389 . S
C1661 C1660 1.389 . S
C1661 C1662 1.387 . S
C1662 H1647 0.930 . S
C1662 C1657 1.390 . S
C1662 C1661 1.387 . S
H1663 C1675 0.930 . S
H1664 C1677 0.930 . S
H1665 C1678 0.930 . S
H1666 C1682 0.959 . S
H1667 C1682 0.959 . S
H1668 C1682 0.961 . S
H1669 C1683 0.960 . S
H1670 C1683 0.961 . S
H1671 C1683 0.959 . S
H1672 C1686 0.929 . S
H1673 C1687 0.931 . S
H1674 C1689 0.930 . S
C1675 H1663 0.930 . S
C1675 C1676 1.399 . S
C1675 C1680 1.399 . S
C1676 C1675 1.399 . S
C1676 C1677 1.376 . S
C1677 H1664 0.930 . S
C1677 C1676 1.376 . S
C1677 C1678 1.388 . S
C1678 H1665 0.930 . S
C1678 C1677 1.388 . S
C1678 C1679 1.390 . S
C1679 C1678 1.390 . S
C1679 C1680 1.394 . S
C1679 C1685 1.465 . S
C1680 C1675 1.399 . S
C1680 C1679 1.394 . S
C1680 C1681 1.516 . S
C1681 C1680 1.516 . S
C1681 C1682 1.502 . S
C1681 C1683 1.561 . S
C1681 C1684 1.526 . S
C1682 H1666 0.959 . S
C1682 H1667 0.959 . S
C1682 H1668 0.961 . S
C1682 C1681 1.502 . S
C1683 H1669 0.960 . S
C1683 H1670 0.961 . S
C1683 H1671 0.959 . S
C1683 C1681 1.561 . S
C1684 C1681 1.526 . S
C1684 C1685 1.396 . S
C1684 C1689 1.390 . S
C1685 C1679 1.465 . S
C1685 C1684 1.396 . S
C1685 C1686 1.399 . S
C1686 H1672 0.929 . S
C1686 C1685 1.399 . S
C1686 C1687 1.385 . S
C1687 H1673 0.931 . S
C1687 C1686 1.385 . S
C1687 C1688 1.389 . S
C1688 C1687 1.389 . S
C1688 C1689 1.387 . S
C1689 H1674 0.930 . S
C1689 C1684 1.390 . S
C1689 C1688 1.387 . S
H1690 C1702 0.930 . S
H1691 C1704 0.930 . S
H1692 C1705 0.930 . S
H1693 C1709 0.959 . S
H1694 C1709 0.959 . S
H1695 C1709 0.961 . S
H1696 C1710 0.960 . S
H1697 C1710 0.961 . S
H1698 C1710 0.959 . S
H1699 C1713 0.929 . S
H1700 C1714 0.931 . S
H1701 C1716 0.930 . S
C1702 H1690 0.930 . S
C1702 C1703 1.399 . S
C1702 C1707 1.399 . S
C1703 C1702 1.399 . S
C1703 C1704 1.376 . S
C1704 H1691 0.930 . S
C1704 C1703 1.376 . S
C1704 C1705 1.388 . S
C1705 H1692 0.930 . S
C1705 C1704 1.388 . S
C1705 C1706 1.390 . S
C1706 C1705 1.390 . S
C1706 C1707 1.394 . S
C1706 C1712 1.465 . S
C1707 C1702 1.399 . S
C1707 C1706 1.394 . S
C1707 C1708 1.516 . S
C1708 C1707 1.516 . S
C1708 C1709 1.502 . S
C1708 C1710 1.561 . S
C1708 C1711 1.526 . S
C1709 H1693 0.959 . S
C1709 H1694 0.959 . S
C1709 H1695 0.961 . S
C1709 C1708 1.502 . S
C1710 H1696 0.960 . S
C1710 H1697 0.961 . S
C1710 H1698 0.959 . S
C1710 C1708 1.561 . S
C1711 C1708 1.526 . S
C1711 C1712 1.396 . S
C1711 C1716 1.390 . S
C1712 C1706 1.465 . S
C1712 C1711 1.396 . S
C1712 C1713 1.399 . S
C1713 H1699 0.929 . S
C1713 C1712 1.399 . S
C1713 C1714 1.385 . S
C1714 H1700 0.931 . S
C1714 C1713 1.385 . S
C1714 C1715 1.389 . S
C1715 C1714 1.389 . S
C1715 C1716 1.387 . S
C1716 H1701 0.930 . S
C1716 C1711 1.390 . S
C1716 C1715 1.387 . S
H1717 C1729 0.930 . S
H1718 C1731 0.930 . S
H1719 C1732 0.930 . S
H1720 C1736 0.959 . S
H1721 C1736 0.959 . S
H1722 C1736 0.961 . S
H1723 C1737 0.960 . S
H1724 C1737 0.961 . S
H1725 C1737 0.959 . S
H1726 C1740 0.929 . S
H1727 C1741 0.931 . S
H1728 C1743 0.930 . S
C1729 H1717 0.930 . S
C1729 C1730 1.399 . S
C1729 C1734 1.399 . S
C1730 C1729 1.399 . S
C1730 C1731 1.376 . S
C1731 H1718 0.930 . S
C1731 C1730 1.376 . S
C1731 C1732 1.388 . S
C1732 H1719 0.930 . S
C1732 C1731 1.388 . S
C1732 C1733 1.390 . S
C1733 C1732 1.390 . S
C1733 C1734 1.394 . S
C1733 C1739 1.465 . S
C1734 C1729 1.399 . S
C1734 C1733 1.394 . S
C1734 C1735 1.516 . S
C1735 C1734 1.516 . S
C1735 C1736 1.502 . S
C1735 C1737 1.561 . S
C1735 C1738 1.526 . S
C1736 H1720 0.959 . S
C1736 H1721 0.959 . S
C1736 H1722 0.961 . S
C1736 C1735 1.502 . S
C1737 H1723 0.960 . S
C1737 H1724 0.961 . S
C1737 H1725 0.959 . S
C1737 C1735 1.561 . S
C1738 C1735 1.526 . S
C1738 C1739 1.396 . S
C1738 C1743 1.390 . S
C1739 C1733 1.465 . S
C1739 C1738 1.396 . S
C1739 C1740 1.399 . S
C1740 H1726 0.929 . S
C1740 C1739 1.399 . S
C1740 C1741 1.385 . S
C1741 H1727 0.931 . S
C1741 C1740 1.385 . S
C1741 C1742 1.389 . S
C1742 C1741 1.389 . S
C1742 C1743 1.387 . S
C1743 H1728 0.930 . S
C1743 C1738 1.390 . S
C1743 C1742 1.387 . S
H1744 C1756 0.930 . S
H1745 C1758 0.930 . S
H1746 C1759 0.930 . S
H1747 C1763 0.959 . S
H1748 C1763 0.959 . S
H1749 C1763 0.961 . S
H1750 C1764 0.960 . S
H1751 C1764 0.961 . S
H1752 C1764 0.959 . S
H1753 C1767 0.929 . S
H1754 C1768 0.931 . S
H1755 C1770 0.930 . S
C1756 H1744 0.930 . S
C1756 C1757 1.399 . S
C1756 C1761 1.399 . S
C1757 C1756 1.399 . S
C1757 C1758 1.376 . S
C1758 H1745 0.930 . S
C1758 C1757 1.376 . S
C1758 C1759 1.388 . S
C1759 H1746 0.930 . S
C1759 C1758 1.388 . S
C1759 C1760 1.390 . S
C1760 C1759 1.390 . S
C1760 C1761 1.394 . S
C1760 C1766 1.465 . S
C1761 C1756 1.399 . S
C1761 C1760 1.394 . S
C1761 C1762 1.516 . S
C1762 C1761 1.516 . S
C1762 C1763 1.502 . S
C1762 C1764 1.561 . S
C1762 C1765 1.526 . S
C1763 H1747 0.959 . S
C1763 H1748 0.959 . S
C1763 H1749 0.961 . S
C1763 C1762 1.502 . S
C1764 H1750 0.960 . S
C1764 H1751 0.961 . S
C1764 H1752 0.959 . S
C1764 C1762 1.561 . S
C1765 C1762 1.526 . S
C1765 C1766 1.396 . S
C1765 C1770 1.390 . S
C1766 C1760 1.465 . S
C1766 C1765 1.396 . S
C1766 C1767 1.399 . S
C1767 H1753 0.929 . S
C1767 C1766 1.399 . S
C1767 C1768 1.385 . S
C1768 H1754 0.931 . S
C1768 C1767 1.385 . S
C1768 C1769 1.389 . S
C1769 C1768 1.389 . S
C1769 C1770 1.387 . S
C1770 H1755 0.930 . S
C1770 C1765 1.390 . S
C1770 C1769 1.387 . S
H1771 C1783 0.930 . S
H1772 C1785 0.930 . S
H1773 C1786 0.930 . S
H1774 C1790 0.959 . S
H1775 C1790 0.959 . S
H1776 C1790 0.961 . S
H1777 C1791 0.960 . S
H1778 C1791 0.961 . S
H1779 C1791 0.959 . S
H1780 C1794 0.929 . S
H1781 C1795 0.931 . S
H1782 C1797 0.930 . S
C1783 H1771 0.930 . S
C1783 C1784 1.399 . S
C1783 C1788 1.399 . S
C1784 C1783 1.399 . S
C1784 C1785 1.376 . S
C1785 H1772 0.930 . S
C1785 C1784 1.376 . S
C1785 C1786 1.388 . S
C1786 H1773 0.930 . S
C1786 C1785 1.388 . S
C1786 C1787 1.390 . S
C1787 C1786 1.390 . S
C1787 C1788 1.394 . S
C1787 C1793 1.465 . S
C1788 C1783 1.399 . S
C1788 C1787 1.394 . S
C1788 C1789 1.516 . S
C1789 C1788 1.516 . S
C1789 C1790 1.502 . S
C1789 C1791 1.561 . S
C1789 C1792 1.526 . S
C1790 H1774 0.959 . S
C1790 H1775 0.959 . S
C1790 H1776 0.961 . S
C1790 C1789 1.502 . S
C1791 H1777 0.960 . S
C1791 H1778 0.961 . S
C1791 H1779 0.959 . S
C1791 C1789 1.561 . S
C1792 C1789 1.526 . S
C1792 C1793 1.396 . S
C1792 C1797 1.390 . S
C1793 C1787 1.465 . S
C1793 C1792 1.396 . S
C1793 C1794 1.399 . S
C1794 H1780 0.929 . S
C1794 C1793 1.399 . S
C1794 C1795 1.385 . S
C1795 H1781 0.931 . S
C1795 C1794 1.385 . S
C1795 C1796 1.389 . S
C1796 C1795 1.389 . S
C1796 C1797 1.387 . S
C1797 H1782 0.930 . S
C1797 C1792 1.390 . S
C1797 C1796 1.387 . S
H1798 C1810 0.930 . S
H1799 C1812 0.930 . S
H1800 C1813 0.930 . S
H1801 C1817 0.959 . S
H1802 C1817 0.959 . S
H1803 C1817 0.961 . S
H1804 C1818 0.960 . S
H1805 C1818 0.961 . S
H1806 C1818 0.959 . S
H1807 C1821 0.929 . S
H1808 C1822 0.931 . S
H1809 C1824 0.930 . S
C1810 H1798 0.930 . S
C1810 C1811 1.399 . S
C1810 C1815 1.399 . S
C1811 C1810 1.399 . S
C1811 C1812 1.376 . S
C1812 H1799 0.930 . S
C1812 C1811 1.376 . S
C1812 C1813 1.388 . S
C1813 H1800 0.930 . S
C1813 C1812 1.388 . S
C1813 C1814 1.390 . S
C1814 C1813 1.390 . S
C1814 C1815 1.394 . S
C1814 C1820 1.465 . S
C1815 C1810 1.399 . S
C1815 C1814 1.394 . S
C1815 C1816 1.516 . S
C1816 C1815 1.516 . S
C1816 C1817 1.502 . S
C1816 C1818 1.561 . S
C1816 C1819 1.526 . S
C1817 H1801 0.959 . S
C1817 H1802 0.959 . S
C1817 H1803 0.961 . S
C1817 C1816 1.502 . S
C1818 H1804 0.960 . S
C1818 H1805 0.961 . S
C1818 H1806 0.959 . S
C1818 C1816 1.561 . S
C1819 C1816 1.526 . S
C1819 C1820 1.396 . S
C1819 C1824 1.390 . S
C1820 C1814 1.465 . S
C1820 C1819 1.396 . S
C1820 C1821 1.399 . S
C1821 H1807 0.929 . S
C1821 C1820 1.399 . S
C1821 C1822 1.385 . S
C1822 H1808 0.931 . S
C1822 C1821 1.385 . S
C1822 C1823 1.389 . S
C1823 C1822 1.389 . S
C1823 C1824 1.387 . S
C1824 H1809 0.930 . S
C1824 C1819 1.390 . S
C1824 C1823 1.387 . S
H1825 C1837 0.930 . S
H1826 C1839 0.930 . S
H1827 C1840 0.930 . S
H1828 C1844 0.959 . S
H1829 C1844 0.959 . S
H1830 C1844 0.961 . S
H1831 C1845 0.960 . S
H1832 C1845 0.961 . S
H1833 C1845 0.959 . S
H1834 C1848 0.929 . S
H1835 C1849 0.931 . S
H1836 C1851 0.930 . S
C1837 H1825 0.930 . S
C1837 C1838 1.399 . S
C1837 C1842 1.399 . S
C1838 C1837 1.399 . S
C1838 C1839 1.376 . S
C1839 H1826 0.930 . S
C1839 C1838 1.376 . S
C1839 C1840 1.388 . S
C1840 H1827 0.930 . S
C1840 C1839 1.388 . S
C1840 C1841 1.390 . S
C1841 C1840 1.390 . S
C1841 C1842 1.394 . S
C1841 C1847 1.465 . S
C1842 C1837 1.399 . S
C1842 C1841 1.394 . S
C1842 C1843 1.516 . S
C1843 C1842 1.516 . S
C1843 C1844 1.502 . S
C1843 C1845 1.561 . S
C1843 C1846 1.526 . S
C1844 H1828 0.959 . S
C1844 H1829 0.959 . S
C1844 H1830 0.961 . S
C1844 C1843 1.502 . S
C1845 H1831 0.960 . S
C1845 H1832 0.961 . S
C1845 H1833 0.959 . S
C1845 C1843 1.561 . S
C1846 C1843 1.526 . S
C1846 C1847 1.396 . S
C1846 C1851 1.390 . S
C1847 C1841 1.465 . S
C1847 C1846 1.396 . S
C1847 C1848 1.399 . S
C1848 H1834 0.929 . S
C1848 C1847 1.399 . S
C1848 C1849 1.385 . S
C1849 H1835 0.931 . S
C1849 C1848 1.385 . S
C1849 C1850 1.389 . S
C1850 C1849 1.389 . S
C1850 C1851 1.387 . S
C1851 H1836 0.930 . S
C1851 C1846 1.390 . S
C1851 C1850 1.387 . S
H1852 C1864 0.930 . S
H1853 C1866 0.930 . S
H1854 C1867 0.930 . S
H1855 C1871 0.959 . S
H1856 C1871 0.959 . S
H1857 C1871 0.961 . S
H1858 C1872 0.960 . S
H1859 C1872 0.961 . S
H1860 C1872 0.959 . S
H1861 C1875 0.929 . S
H1862 C1876 0.931 . S
H1863 C1878 0.930 . S
C1864 H1852 0.930 . S
C1864 C1865 1.399 . S
C1864 C1869 1.399 . S
C1865 C1864 1.399 . S
C1865 C1866 1.376 . S
C1866 H1853 0.930 . S
C1866 C1865 1.376 . S
C1866 C1867 1.388 . S
C1867 H1854 0.930 . S
C1867 C1866 1.388 . S
C1867 C1868 1.390 . S
C1868 C1867 1.390 . S
C1868 C1869 1.394 . S
C1868 C1874 1.465 . S
C1869 C1864 1.399 . S
C1869 C1868 1.394 . S
C1869 C1870 1.516 . S
C1870 C1869 1.516 . S
C1870 C1871 1.502 . S
C1870 C1872 1.561 . S
C1870 C1873 1.526 . S
C1871 H1855 0.959 . S
C1871 H1856 0.959 . S
C1871 H1857 0.961 . S
C1871 C1870 1.502 . S
C1872 H1858 0.960 . S
C1872 H1859 0.961 . S
C1872 H1860 0.959 . S
C1872 C1870 1.561 . S
C1873 C1870 1.526 . S
C1873 C1874 1.396 . S
C1873 C1878 1.390 . S
C1874 C1868 1.465 . S
C1874 C1873 1.396 . S
C1874 C1875 1.399 . S
C1875 H1861 0.929 . S
C1875 C1874 1.399 . S
C1875 C1876 1.385 . S
C1876 H1862 0.931 . S
C1876 C1875 1.385 . S
C1876 C1877 1.389 . S
C1877 C1876 1.389 . S
C1877 C1878 1.387 . S
C1878 H1863 0.930 . S
C1878 C1873 1.390 . S
C1878 C1877 1.387 . S
H1879 C1891 0.930 . S
H1880 C1893 0.930 . S
H1881 C1894 0.930 . S
H1882 C1898 0.959 . S
H1883 C1898 0.959 . S
H1884 C1898 0.961 . S
H1885 C1899 0.960 . S
H1886 C1899 0.961 . S
H1887 C1899 0.959 . S
H1888 C1902 0.929 . S
H1889 C1903 0.931 . S
H1890 C1905 0.930 . S
C1891 H1879 0.930 . S
C1891 C1892 1.399 . S
C1891 C1896 1.399 . S
C1892 C1891 1.399 . S
C1892 C1893 1.376 . S
C1893 H1880 0.930 . S
C1893 C1892 1.376 . S
C1893 C1894 1.388 . S
C1894 H1881 0.930 . S
C1894 C1893 1.388 . S
C1894 C1895 1.390 . S
C1895 C1894 1.390 . S
C1895 C1896 1.394 . S
C1895 C1901 1.465 . S
C1896 C1891 1.399 . S
C1896 C1895 1.394 . S
C1896 C1897 1.516 . S
C1897 C1896 1.516 . S
C1897 C1898 1.502 . S
C1897 C1899 1.561 . S
C1897 C1900 1.526 . S
C1898 H1882 0.959 . S
C1898 H1883 0.959 . S
C1898 H1884 0.961 . S
C1898 C1897 1.502 . S
C1899 H1885 0.960 . S
C1899 H1886 0.961 . S
C1899 H1887 0.959 . S
C1899 C1897 1.561 . S
C1900 C1897 1.526 . S
C1900 C1901 1.396 . S
C1900 C1905 1.390 . S
C1901 C1895 1.465 . S
C1901 C1900 1.396 . S
C1901 C1902 1.399 . S
C1902 H1888 0.929 . S
C1902 C1901 1.399 . S
C1902 C1903 1.385 . S
C1903 H1889 0.931 . S
C1903 C1902 1.385 . S
C1903 C1904 1.389 . S
C1904 C1903 1.389 . S
C1904 C1905 1.387 . S
C1905 H1890 0.930 . S
C1905 C1900 1.390 . S
C1905 C1904 1.387 . S
H1906 C1918 0.930 . S
H1907 C1920 0.930 . S
H1908 C1921 0.930 . S
H1909 C1925 0.959 . S
H1910 C1925 0.959 . S
H1911 C1925 0.961 . S
H1912 C1926 0.960 . S
H1913 C1926 0.961 . S
H1914 C1926 0.959 . S
H1915 C1929 0.929 . S
H1916 C1930 0.931 . S
H1917 C1932 0.930 . S
C1918 H1906 0.930 . S
C1918 C1919 1.399 . S
C1918 C1923 1.399 . S
C1919 C1918 1.399 . S
C1919 C1920 1.376 . S
C1920 H1907 0.930 . S
C1920 C1919 1.376 . S
C1920 C1921 1.388 . S
C1921 H1908 0.930 . S
C1921 C1920 1.388 . S
C1921 C1922 1.390 . S
C1922 C1921 1.390 . S
C1922 C1923 1.394 . S
C1922 C1928 1.465 . S
C1923 C1918 1.399 . S
C1923 C1922 1.394 . S
C1923 C1924 1.516 . S
C1924 C1923 1.516 . S
C1924 C1925 1.502 . S
C1924 C1926 1.561 . S
C1924 C1927 1.526 . S
C1925 H1909 0.959 . S
C1925 H1910 0.959 . S
C1925 H1911 0.961 . S
C1925 C1924 1.502 . S
C1926 H1912 0.960 . S
C1926 H1913 0.961 . S
C1926 H1914 0.959 . S
C1926 C1924 1.561 . S
C1927 C1924 1.526 . S
C1927 C1928 1.396 . S
C1927 C1932 1.390 . S
C1928 C1922 1.465 . S
C1928 C1927 1.396 . S
C1928 C1929 1.399 . S
C1929 H1915 0.929 . S
C1929 C1928 1.399 . S
C1929 C1930 1.385 . S
C1930 H1916 0.931 . S
C1930 C1929 1.385 . S
C1930 C1931 1.389 . S
C1931 C1930 1.389 . S
C1931 C1932 1.387 . S
C1932 H1917 0.930 . S
C1932 C1927 1.390 . S
C1932 C1931 1.387 . S
H1933 C1945 0.930 . S
H1934 C1947 0.930 . S
H1935 C1948 0.930 . S
H1936 C1952 0.959 . S
H1937 C1952 0.959 . S
H1938 C1952 0.961 . S
H1939 C1953 0.960 . S
H1940 C1953 0.961 . S
H1941 C1953 0.959 . S
H1942 C1956 0.929 . S
H1943 C1957 0.931 . S
H1944 C1959 0.930 . S
C1945 H1933 0.930 . S
C1945 C1946 1.399 . S
C1945 C1950 1.399 . S
C1946 C1945 1.399 . S
C1946 C1947 1.376 . S
C1947 H1934 0.930 . S
C1947 C1946 1.376 . S
C1947 C1948 1.388 . S
C1948 H1935 0.930 . S
C1948 C1947 1.388 . S
C1948 C1949 1.390 . S
C1949 C1948 1.390 . S
C1949 C1950 1.394 . S
C1949 C1955 1.465 . S
C1950 C1945 1.399 . S
C1950 C1949 1.394 . S
C1950 C1951 1.516 . S
C1951 C1950 1.516 . S
C1951 C1952 1.502 . S
C1951 C1953 1.561 . S
C1951 C1954 1.526 . S
C1952 H1936 0.959 . S
C1952 H1937 0.959 . S
C1952 H1938 0.961 . S
C1952 C1951 1.502 . S
C1953 H1939 0.960 . S
C1953 H1940 0.961 . S
C1953 H1941 0.959 . S
C1953 C1951 1.561 . S
C1954 C1951 1.526 . S
C1954 C1955 1.396 . S
C1954 C1959 1.390 . S
C1955 C1949 1.465 . S
C1955 C1954 1.396 . S
C1955 C1956 1.399 . S
C1956 H1942 0.929 . S
C1956 C1955 1.399 . S
C1956 C1957 1.385 . S
C1957 H1943 0.931 . S
C1957 C1956 1.385 . S
C1957 C1958 1.389 . S
C1958 C1957 1.389 . S
C1958 C1959 1.387 . S
C1959 H1944 0.930 . S
C1959 C1954 1.390 . S
C1959 C1958 1.387 . S
H1960 C1972 0.930 . S
H1961 C1974 0.930 . S
H1962 C1975 0.930 . S
H1963 C1979 0.959 . S
H1964 C1979 0.959 . S
H1965 C1979 0.961 . S
H1966 C1980 0.960 . S
H1967 C1980 0.961 . S
H1968 C1980 0.959 . S
H1969 C1983 0.929 . S
H1970 C1984 0.931 . S
H1971 C1986 0.930 . S
C1972 H1960 0.930 . S
C1972 C1973 1.399 . S
C1972 C1977 1.399 . S
C1973 C1972 1.399 . S
C1973 C1974 1.376 . S
C1974 H1961 0.930 . S
C1974 C1973 1.376 . S
C1974 C1975 1.388 . S
C1975 H1962 0.930 . S
C1975 C1974 1.388 . S
C1975 C1976 1.390 . S
C1976 C1975 1.390 . S
C1976 C1977 1.394 . S
C1976 C1982 1.465 . S
C1977 C1972 1.399 . S
C1977 C1976 1.394 . S
C1977 C1978 1.516 . S
C1978 C1977 1.516 . S
C1978 C1979 1.502 . S
C1978 C1980 1.561 . S
C1978 C1981 1.526 . S
C1979 H1963 0.959 . S
C1979 H1964 0.959 . S
C1979 H1965 0.961 . S
C1979 C1978 1.502 . S
C1980 H1966 0.960 . S
C1980 H1967 0.961 . S
C1980 H1968 0.959 . S
C1980 C1978 1.561 . S
C1981 C1978 1.526 . S
C1981 C1982 1.396 . S
C1981 C1986 1.390 . S
C1982 C1976 1.465 . S
C1982 C1981 1.396 . S
C1982 C1983 1.399 . S
C1983 H1969 0.929 . S
C1983 C1982 1.399 . S
C1983 C1984 1.385 . S
C1984 H1970 0.931 . S
C1984 C1983 1.385 . S
C1984 C1985 1.389 . S
C1985 C1984 1.389 . S
C1985 C1986 1.387 . S
C1986 H1971 0.930 . S
C1986 C1981 1.390 . S
C1986 C1985 1.387 . S
H1987 C1999 0.930 . S
H1988 C2001 0.930 . S
H1989 C2002 0.930 . S
H1990 C2006 0.959 . S
H1991 C2006 0.959 . S
H1992 C2006 0.961 . S
H1993 C2007 0.960 . S
H1994 C2007 0.961 . S
H1995 C2007 0.959 . S
H1996 C2010 0.929 . S
H1997 C2011 0.931 . S
H1998 C2013 0.930 . S
C1999 H1987 0.930 . S
C1999 C2000 1.399 . S
C1999 C2004 1.399 . S
C2000 C1999 1.399 . S
C2000 C2001 1.376 . S
C2001 H1988 0.930 . S
C2001 C2000 1.376 . S
C2001 C2002 1.388 . S
C2002 H1989 0.930 . S
C2002 C2001 1.388 . S
C2002 C2003 1.390 . S
C2003 C2002 1.390 . S
C2003 C2004 1.394 . S
C2003 C2009 1.465 . S
C2004 C1999 1.399 . S
C2004 C2003 1.394 . S
C2004 C2005 1.516 . S
C2005 C2004 1.516 . S
C2005 C2006 1.502 . S
C2005 C2007 1.561 . S
C2005 C2008 1.526 . S
C2006 H1990 0.959 . S
C2006 H1991 0.959 . S
C2006 H1992 0.961 . S
C2006 C2005 1.502 . S
C2007 H1993 0.960 . S
C2007 H1994 0.961 . S
C2007 H1995 0.959 . S
C2007 C2005 1.561 . S
C2008 C2005 1.526 . S
C2008 C2009 1.396 . S
C2008 C2013 1.390 . S
C2009 C2003 1.465 . S
C2009 C2008 1.396 . S
C2009 C2010 1.399 . S
C2010 H1996 0.929 . S
C2010 C2009 1.399 . S
C2010 C2011 1.385 . S
C2011 H1997 0.931 . S
C2011 C2010 1.385 . S
C2011 C2012 1.389 . S
C2012 C2011 1.389 . S
C2012 C2013 1.387 . S
C2013 H1998 0.930 . S
C2013 C2008 1.390 . S
C2013 C2012 1.387 . S
H2014 C2026 0.930 . S
H2015 C2028 0.930 . S
H2016 C2029 0.930 . S
H2017 C2033 0.959 . S
H2018 C2033 0.959 . S
H2019 C2033 0.961 . S
H2020 C2034 0.960 . S
H2021 C2034 0.961 . S
H2022 C2034 0.959 . S
H2023 C2037 0.929 . S
H2024 C2038 0.931 . S
H2025 C2040 0.930 . S
C2026 H2014 0.930 . S
C2026 C2027 1.399 . S
C2026 C2031 1.399 . S
C2027 C2026 1.399 . S
C2027 C2028 1.376 . S
C2028 H2015 0.930 . S
C2028 C2027 1.376 . S
C2028 C2029 1.388 . S
C2029 H2016 0.930 . S
C2029 C2028 1.388 . S
C2029 C2030 1.390 . S
C2030 C2029 1.390 . S
C2030 C2031 1.394 . S
C2030 C2036 1.465 . S
C2031 C2026 1.399 . S
C2031 C2030 1.394 . S
C2031 C2032 1.516 . S
C2032 C2031 1.516 . S
C2032 C2033 1.502 . S
C2032 C2034 1.561 . S
C2032 C2035 1.526 . S
C2033 H2017 0.959 . S
C2033 H2018 0.959 . S
C2033 H2019 0.961 . S
C2033 C2032 1.502 . S
C2034 H2020 0.960 . S
C2034 H2021 0.961 . S
C2034 H2022 0.959 . S
C2034 C2032 1.561 . S
C2035 C2032 1.526 . S
C2035 C2036 1.396 . S
C2035 C2040 1.390 . S
C2036 C2030 1.465 . S
C2036 C2035 1.396 . S
C2036 C2037 1.399 . S
C2037 H2023 0.929 . S
C2037 C2036 1.399 . S
C2037 C2038 1.385 . S
C2038 H2024 0.931 . S
C2038 C2037 1.385 . S
C2038 C2039 1.389 . S
C2039 C2038 1.389 . S
C2039 C2040 1.387 . S
C2040 H2025 0.930 . S
C2040 C2035 1.390 . S
C2040 C2039 1.387 . S
H2041 C2053 0.930 . S
H2042 C2055 0.930 . S
H2043 C2056 0.930 . S
H2044 C2060 0.959 . S
H2045 C2060 0.959 . S
H2046 C2060 0.961 . S
H2047 C2061 0.960 . S
H2048 C2061 0.961 . S
H2049 C2061 0.959 . S
H2050 C2064 0.929 . S
H2051 C2065 0.931 . S
H2052 C2067 0.930 . S
C2053 H2041 0.930 . S
C2053 C2054 1.399 . S
C2053 C2058 1.399 . S
C2054 C2053 1.399 . S
C2054 C2055 1.376 . S
C2055 H2042 0.930 . S
C2055 C2054 1.376 . S
C2055 C2056 1.388 . S
C2056 H2043 0.930 . S
C2056 C2055 1.388 . S
C2056 C2057 1.390 . S
C2057 C2056 1.390 . S
C2057 C2058 1.394 . S
C2057 C2063 1.465 . S
C2058 C2053 1.399 . S
C2058 C2057 1.394 . S
C2058 C2059 1.516 . S
C2059 C2058 1.516 . S
C2059 C2060 1.502 . S
C2059 C2061 1.561 . S
C2059 C2062 1.526 . S
C2060 H2044 0.959 . S
C2060 H2045 0.959 . S
C2060 H2046 0.961 . S
C2060 C2059 1.502 . S
C2061 H2047 0.960 . S
C2061 H2048 0.961 . S
C2061 H2049 0.959 . S
C2061 C2059 1.561 . S
C2062 C2059 1.526 . S
C2062 C2063 1.396 . S
C2062 C2067 1.390 . S
C2063 C2057 1.465 . S
C2063 C2062 1.396 . S
C2063 C2064 1.399 . S
C2064 H2050 0.929 . S
C2064 C2063 1.399 . S
C2064 C2065 1.385 . S
C2065 H2051 0.931 . S
C2065 C2064 1.385 . S
C2065 C2066 1.389 . S
C2066 C2065 1.389 . S
C2066 C2067 1.387 . S
C2067 H2052 0.930 . S
C2067 C2062 1.390 . S
C2067 C2066 1.387 . S
H2068 C2080 0.930 . S
H2069 C2082 0.930 . S
H2070 C2083 0.930 . S
H2071 C2087 0.959 . S
H2072 C2087 0.959 . S
H2073 C2087 0.961 . S
H2074 C2088 0.960 . S
H2075 C2088 0.961 . S
H2076 C2088 0.959 . S
H2077 C2091 0.929 . S
H2078 C2092 0.931 . S
H2079 C2094 0.930 . S
C2080 H2068 0.930 . S
C2080 C2081 1.399 . S
C2080 C2085 1.399 . S
C2081 C2080 1.399 . S
C2081 C2082 1.376 . S
C2082 H2069 0.930 . S
C2082 C2081 1.376 . S
C2082 C2083 1.388 . S
C2083 H2070 0.930 . S
C2083 C2082 1.388 . S
C2083 C2084 1.390 . S
C2084 C2083 1.390 . S
C2084 C2085 1.394 . S
C2084 C2090 1.465 . S
C2085 C2080 1.399 . S
C2085 C2084 1.394 . S
C2085 C2086 1.516 . S
C2086 C2085 1.516 . S
C2086 C2087 1.502 . S
C2086 C2088 1.561 . S
C2086 C2089 1.526 . S
C2087 H2071 0.959 . S
C2087 H2072 0.959 . S
C2087 H2073 0.961 . S
C2087 C2086 1.502 . S
C2088 H2074 0.960 . S
C2088 H2075 0.961 . S
C2088 H2076 0.959 . S
C2088 C2086 1.561 . S
C2089 C2086 1.526 . S
C2089 C2090 1.396 . S
C2089 C2094 1.390 . S
C2090 C2084 1.465 . S
C2090 C2089 1.396 . S
C2090 C2091 1.399 . S
C2091 H2077 0.929 . S
C2091 C2090 1.399 . S
C2091 C2092 1.385 . S
C2092 H2078 0.931 . S
C2092 C2091 1.385 . S
C2092 C2093 1.389 . S
C2093 C2092 1.389 . S
C2093 C2094 1.387 . S
C2094 H2079 0.930 . S
C2094 C2089 1.390 . S
C2094 C2093 1.387 . S
H2095 C2107 0.930 . S
H2096 C2109 0.930 . S
H2097 C2110 0.930 . S
H2098 C2114 0.959 . S
H2099 C2114 0.959 . S
H2100 C2114 0.961 . S
H2101 C2115 0.960 . S
H2102 C2115 0.961 . S
H2103 C2115 0.959 . S
H2104 C2118 0.929 . S
H2105 C2119 0.931 . S
H2106 C2121 0.930 . S
C2107 H2095 0.930 . S
C2107 C2108 1.399 . S
C2107 C2112 1.399 . S
C2108 C2107 1.399 . S
C2108 C2109 1.376 . S
C2109 H2096 0.930 . S
C2109 C2108 1.376 . S
C2109 C2110 1.388 . S
C2110 H2097 0.930 . S
C2110 C2109 1.388 . S
C2110 C2111 1.390 . S
C2111 C2110 1.390 . S
C2111 C2112 1.394 . S
C2111 C2117 1.465 . S
C2112 C2107 1.399 . S
C2112 C2111 1.394 . S
C2112 C2113 1.516 . S
C2113 C2112 1.516 . S
C2113 C2114 1.502 . S
C2113 C2115 1.561 . S
C2113 C2116 1.526 . S
C2114 H2098 0.959 . S
C2114 H2099 0.959 . S
C2114 H2100 0.961 . S
C2114 C2113 1.502 . S
C2115 H2101 0.960 . S
C2115 H2102 0.961 . S
C2115 H2103 0.959 . S
C2115 C2113 1.561 . S
C2116 C2113 1.526 . S
C2116 C2117 1.396 . S
C2116 C2121 1.390 . S
C2117 C2111 1.465 . S
C2117 C2116 1.396 . S
C2117 C2118 1.399 . S
C2118 H2104 0.929 . S
C2118 C2117 1.399 . S
C2118 C2119 1.385 . S
C2119 H2105 0.931 . S
C2119 C2118 1.385 . S
C2119 C2120 1.389 . S
C2120 C2119 1.389 . S
C2120 C2121 1.387 . S
C2121 H2106 0.930 . S
C2121 C2116 1.390 . S
C2121 C2120 1.387 . S
H2122 C2134 0.930 . S
H2123 C2136 0.930 . S
H2124 C2137 0.930 . S
H2125 C2141 0.959 . S
H2126 C2141 0.959 . S
H2127 C2141 0.961 . S
H2128 C2142 0.960 . S
H2129 C2142 0.961 . S
H2130 C2142 0.959 . S
H2131 C2145 0.929 . S
H2132 C2146 0.931 . S
H2133 C2148 0.930 . S
C2134 H2122 0.930 . S
C2134 C2135 1.399 . S
C2134 C2139 1.399 . S
C2135 C2134 1.399 . S
C2135 C2136 1.376 . S
C2136 H2123 0.930 . S
C2136 C2135 1.376 . S
C2136 C2137 1.388 . S
C2137 H2124 0.930 . S
C2137 C2136 1.388 . S
C2137 C2138 1.390 . S
C2138 C2137 1.390 . S
C2138 C2139 1.394 . S
C2138 C2144 1.465 . S
C2139 C2134 1.399 . S
C2139 C2138 1.394 . S
C2139 C2140 1.516 . S
C2140 C2139 1.516 . S
C2140 C2141 1.502 . S
C2140 C2142 1.561 . S
C2140 C2143 1.526 . S
C2141 H2125 0.959 . S
C2141 H2126 0.959 . S
C2141 H2127 0.961 . S
C2141 C2140 1.502 . S
C2142 H2128 0.960 . S
C2142 H2129 0.961 . S
C2142 H2130 0.959 . S
C2142 C2140 1.561 . S
C2143 C2140 1.526 . S
C2143 C2144 1.396 . S
C2143 C2148 1.390 . S
C2144 C2138 1.465 . S
C2144 C2143 1.396 . S
C2144 C2145 1.399 . S
C2145 H2131 0.929 . S
C2145 C2144 1.399 . S
C2145 C2146 1.385 . S
C2146 H2132 0.931 . S
C2146 C2145 1.385 . S
C2146 C2147 1.389 . S
C2147 C2146 1.389 . S
C2147 C2148 1.387 . S
C2148 H2133 0.930 . S
C2148 C2143 1.390 . S
C2148 C2147 1.387 . S
H2149 C2161 0.930 . S
H2150 C2163 0.930 . S
H2151 C2164 0.930 . S
H2152 C2168 0.959 . S
H2153 C2168 0.959 . S
H2154 C2168 0.961 . S
H2155 C2169 0.960 . S
H2156 C2169 0.961 . S
H2157 C2169 0.959 . S
H2158 C2172 0.929 . S
H2159 C2173 0.931 . S
H2160 C2175 0.930 . S
C2161 H2149 0.930 . S
C2161 C2162 1.399 . S
C2161 C2166 1.399 . S
C2162 C2161 1.399 . S
C2162 C2163 1.376 . S
C2163 H2150 0.930 . S
C2163 C2162 1.376 . S
C2163 C2164 1.388 . S
C2164 H2151 0.930 . S
C2164 C2163 1.388 . S
C2164 C2165 1.390 . S
C2165 C2164 1.390 . S
C2165 C2166 1.394 . S
C2165 C2171 1.465 . S
C2166 C2161 1.399 . S
C2166 C2165 1.394 . S
C2166 C2167 1.516 . S
C2167 C2166 1.516 . S
C2167 C2168 1.502 . S
C2167 C2169 1.561 . S
C2167 C2170 1.526 . S
C2168 H2152 0.959 . S
C2168 H2153 0.959 . S
C2168 H2154 0.961 . S
C2168 C2167 1.502 . S
C2169 H2155 0.960 . S
C2169 H2156 0.961 . S
C2169 H2157 0.959 . S
C2169 C2167 1.561 . S
C2170 C2167 1.526 . S
C2170 C2171 1.396 . S
C2170 C2175 1.390 . S
C2171 C2165 1.465 . S
C2171 C2170 1.396 . S
C2171 C2172 1.399 . S
C2172 H2158 0.929 . S
C2172 C2171 1.399 . S
C2172 C2173 1.385 . S
C2173 H2159 0.931 . S
C2173 C2172 1.385 . S
C2173 C2174 1.389 . S
C2174 C2173 1.389 . S
C2174 C2175 1.387 . S
C2175 H2160 0.930 . S
C2175 C2170 1.390 . S
C2175 C2174 1.387 . S
C461 C414 1.306 . S
C473 C8 1.293 . S
C488 C22 1.296 . S
C500 C428 1.308 . S
C515 C442 1.310 . S
C527 C36 1.297 . S
C542 C400 1.243 . S
C554 C50 1.258 . S
C569 C64 1.310 . S
C581 C386 1.317 . S
C596 C344 1.311 . S
C608 C78 1.300 . S
C623 C92 1.253 . S
C635 C358 1.269 . S
C650 C372 1.246 . S
C662 C106 1.261 . S
C677 C120 1.303 . S
C689 C302 1.290 . S
C704 C134 1.238 . S
C716 C316 1.251 . S
C731 C330 1.314 . S
C743 C148 1.303 . S
C758 C162 1.235 . S
C770 C288 1.247 . S
C785 C274 1.310 . S
C797 C176 1.298 . S
C812 C232 1.309 . S
C824 C190 1.297 . S
C839 C204 1.281 . S
C851 C246 1.266 . S
C866 C218 1.238 . S
C878 C260 1.251 . S
C893 C7 1.438 . S
C905 C147 1.441 . S
C920 C161 1.442 . S
C932 C21 1.442 . S
C947 C119 1.408 . S
C959 C35 1.404 . S
C974 C133 1.401 . S
C986 C49 1.406 . S
C1001 C63 1.440 . S
C1013 C203 1.436 . S
C1028 C217 1.404 . S
C1040 C77 1.409 . S
C1055 C175 1.442 . S
C1067 C91 1.442 . S
C1082 C189 1.440 . S
C1094 C105 1.435 . S
C1109 C231 1.436 . S
C1121 C371 1.440 . S
C1136 C385 1.439 . S
C1148 C245 1.435 . S
C1163 C343 1.408 . S
C1175 C259 1.404 . S
C1190 C273 1.436 . S
C1202 C357 1.431 . S
C1217 C287 1.438 . S
C1229 C427 1.441 . S
C1244 C441 1.404 . S
C1256 C301 1.409 . S
C1271 C399 1.408 . S
C1283 C315 1.404 . S
C1298 C329 1.407 . S
C1310 C413 1.413 . S
C1325 C11 1.275 . S
C1337 C67 1.259 . S
C1352 C25 1.272 . S
C1364 C81 1.254 . S
C1379 C95 1.253 . S
C1391 C39 1.273 . S
C1406 C53 1.273 . S
C1418 C109 1.262 . S
C1433 C123 1.261 . S
C1445 C179 1.255 . S
C1460 C193 1.275 . S
C1472 C137 1.267 . S
C1487 C207 1.270 . S
C1499 C151 1.251 . S
C1514 C165 1.251 . S
C1526 C221 1.276 . S
C1541 C235 1.252 . S
C1553 C291 1.274 . S
C1568 C305 1.261 . S
C1580 C249 1.273 . S
C1595 C263 1.278 . S
C1607 C319 1.254 . S
C1622 C333 1.254 . S
C1634 C277 1.277 . S
C1649 C403 1.272 . S
C1661 C347 1.270 . S
C1676 C361 1.250 . S
C1688 C417 1.272 . S
C1703 C375 1.271 . S
C1715 C431 1.251 . S
C1730 C389 1.251 . S
C1742 C445 1.269 . S
C1757 C13 1.418 . S
C1769 C83 1.336 . S
C1784 C27 1.428 . S
C1796 C97 1.337 . S
C1811 C111 1.441 . S
C1823 C41 1.383 . S
C1838 C69 1.397 . S
C1850 C55 1.341 . S
C1865 C195 1.344 . S
C1877 C125 1.418 . S
C1892 C209 1.436 . S
C1904 C139 1.363 . S
C1919 C223 1.388 . S
C1931 C153 1.336 . S
C1946 C167 1.408 . S
C1958 C181 1.443 . S
C1973 C237 1.334 . S
C1985 C307 1.416 . S
C2000 C321 1.358 . S
C2012 C251 1.370 . S
C2027 C335 1.335 . S
C2039 C265 1.411 . S
C2054 C279 1.445 . S
C2066 C293 1.358 . S
C2081 C419 1.374 . S
C2093 C349 1.441 . S
C2108 C363 1.438 . S
C2120 C433 1.366 . S
C2135 C377 1.407 . S
C2147 C447 1.340 . S
C2162 C405 1.418 . S
C2174 C391 1.345 . S
