# Generated by pormake.
# Topology wiv, (6)-cn, num edge types: 1
# Building blocks:
#     Node 0, Type 0, BuildingBlock: NUHQIS_clean_sbu_0, # of connection points: 6
#     Node 1, Type 0, BuildingBlock: NUHQIS_clean_sbu_0, # of connection points: 6
#     Node 2, Type 0, BuildingBlock: NUHQIS_clean_sbu_0, # of connection points: 6
#     Node 3, Type 0, BuildingBlock: NUHQIS_clean_sbu_0, # of connection points: 6
#     Node 4, Type 0, BuildingBlock: NUHQIS_clean_sbu_0, # of connection points: 6
#     Node 5, Type 0, BuildingBlock: NUHQIS_clean_sbu_0, # of connection points: 6
#     Node 6, Type 0, BuildingBlock: NUHQIS_clean_sbu_0, # of connection points: 6
#     Node 7, Type 0, BuildingBlock: NUHQIS_clean_sbu_0, # of connection points: 6
#     Node 8, Type 0, BuildingBlock: NUHQIS_clean_sbu_0, # of connection points: 6
#     Node 9, Type 0, BuildingBlock: NUHQIS_clean_sbu_0, # of connection points: 6
#     Node 10, Type 0, BuildingBlock: NUHQIS_clean_sbu_0, # of connection points: 6
#     Node 11, Type 0, BuildingBlock: NUHQIS_clean_sbu_0, # of connection points: 6
#     Node 12, Type 0, BuildingBlock: NUHQIS_clean_sbu_0, # of connection points: 6
#     Node 13, Type 0, BuildingBlock: NUHQIS_clean_sbu_0, # of connection points: 6
#     Node 14, Type 0, BuildingBlock: NUHQIS_clean_sbu_0, # of connection points: 6
#     Node 15, Type 0, BuildingBlock: NUHQIS_clean_sbu_0, # of connection points: 6
#     Edge 16, Type (0, 0), BuildingBlock: OJICUG_clean_linker_0, # of connection points: 2
#     Edge 17, Type (0, 0), BuildingBlock: OJICUG_clean_linker_0, # of connection points: 2
#     Edge 18, Type (0, 0), BuildingBlock: OJICUG_clean_linker_0, # of connection points: 2
#     Edge 19, Type (0, 0), BuildingBlock: OJICUG_clean_linker_0, # of connection points: 2
#     Edge 20, Type (0, 0), BuildingBlock: OJICUG_clean_linker_0, # of connection points: 2
#     Edge 21, Type (0, 0), BuildingBlock: OJICUG_clean_linker_0, # of connection points: 2
#     Edge 22, Type (0, 0), BuildingBlock: OJICUG_clean_linker_0, # of connection points: 2
#     Edge 23, Type (0, 0), BuildingBlock: OJICUG_clean_linker_0, # of connection points: 2
#     Edge 24, Type (0, 0), BuildingBlock: OJICUG_clean_linker_0, # of connection points: 2
#     Edge 25, Type (0, 0), BuildingBlock: OJICUG_clean_linker_0, # of connection points: 2
#     Edge 26, Type (0, 0), BuildingBlock: OJICUG_clean_linker_0, # of connection points: 2
#     Edge 27, Type (0, 0), BuildingBlock: OJICUG_clean_linker_0, # of connection points: 2
#     Edge 28, Type (0, 0), BuildingBlock: OJICUG_clean_linker_0, # of connection points: 2
#     Edge 29, Type (0, 0), BuildingBlock: OJICUG_clean_linker_0, # of connection points: 2
#     Edge 30, Type (0, 0), BuildingBlock: OJICUG_clean_linker_0, # of connection points: 2
#     Edge 31, Type (0, 0), BuildingBlock: OJICUG_clean_linker_0, # of connection points: 2
#     Edge 32, Type (0, 0), BuildingBlock: OJICUG_clean_linker_0, # of connection points: 2
#     Edge 33, Type (0, 0), BuildingBlock: OJICUG_clean_linker_0, # of connection points: 2
#     Edge 34, Type (0, 0), BuildingBlock: OJICUG_clean_linker_0, # of connection points: 2
#     Edge 35, Type (0, 0), BuildingBlock: OJICUG_clean_linker_0, # of connection points: 2
#     Edge 36, Type (0, 0), BuildingBlock: OJICUG_clean_linker_0, # of connection points: 2
#     Edge 37, Type (0, 0), BuildingBlock: OJICUG_clean_linker_0, # of connection points: 2
#     Edge 38, Type (0, 0), BuildingBlock: OJICUG_clean_linker_0, # of connection points: 2
#     Edge 39, Type (0, 0), BuildingBlock: OJICUG_clean_linker_0, # of connection points: 2
#     Edge 40, Type (0, 0), BuildingBlock: OJICUG_clean_linker_0, # of connection points: 2
#     Edge 41, Type (0, 0), BuildingBlock: OJICUG_clean_linker_0, # of connection points: 2
#     Edge 42, Type (0, 0), BuildingBlock: OJICUG_clean_linker_0, # of connection points: 2
#     Edge 43, Type (0, 0), BuildingBlock: OJICUG_clean_linker_0, # of connection points: 2
#     Edge 44, Type (0, 0), BuildingBlock: OJICUG_clean_linker_0, # of connection points: 2
#     Edge 45, Type (0, 0), BuildingBlock: OJICUG_clean_linker_0, # of connection points: 2
#     Edge 46, Type (0, 0), BuildingBlock: OJICUG_clean_linker_0, # of connection points: 2
#     Edge 47, Type (0, 0), BuildingBlock: OJICUG_clean_linker_0, # of connection points: 2
#     Edge 48, Type (0, 0), BuildingBlock: OJICUG_clean_linker_0, # of connection points: 2
#     Edge 49, Type (0, 0), BuildingBlock: OJICUG_clean_linker_0, # of connection points: 2
#     Edge 50, Type (0, 0), BuildingBlock: OJICUG_clean_linker_0, # of connection points: 2
#     Edge 51, Type (0, 0), BuildingBlock: OJICUG_clean_linker_0, # of connection points: 2
#     Edge 52, Type (0, 0), BuildingBlock: OJICUG_clean_linker_0, # of connection points: 2
#     Edge 53, Type (0, 0), BuildingBlock: OJICUG_clean_linker_0, # of connection points: 2
#     Edge 54, Type (0, 0), BuildingBlock: OJICUG_clean_linker_0, # of connection points: 2
#     Edge 55, Type (0, 0), BuildingBlock: OJICUG_clean_linker_0, # of connection points: 2
#     Edge 56, Type (0, 0), BuildingBlock: OJICUG_clean_linker_0, # of connection points: 2
#     Edge 57, Type (0, 0), BuildingBlock: OJICUG_clean_linker_0, # of connection points: 2
#     Edge 58, Type (0, 0), BuildingBlock: OJICUG_clean_linker_0, # of connection points: 2
#     Edge 59, Type (0, 0), BuildingBlock: OJICUG_clean_linker_0, # of connection points: 2
#     Edge 60, Type (0, 0), BuildingBlock: OJICUG_clean_linker_0, # of connection points: 2
#     Edge 61, Type (0, 0), BuildingBlock: OJICUG_clean_linker_0, # of connection points: 2
#     Edge 62, Type (0, 0), BuildingBlock: OJICUG_clean_linker_0, # of connection points: 2
#     Edge 63, Type (0, 0), BuildingBlock: OJICUG_clean_linker_0, # of connection points: 2
# Relax obj value: 0.173
# Max RMSD: 0.223
# Mean RMSD: 0.223
data_MOF--net-wiv--node1-NUHQIS_clean_sbu_0--edge1-OJICUG_clean_linker_0
_symmetry_space_group_name_H-M    P1
_symmetry_Int_Tables_number       1
_symmetry_cell_setting            triclinic
loop_
_symmetry_equiv_pos_as_xyz
'x, y, z'
_cell_length_a     35.897188
_cell_length_b     35.902316
_cell_length_c     19.776333
_cell_angle_alpha  90.003238
_cell_angle_beta   90.055325
_cell_angle_gamma 89.950215
loop_
_atom_site_label
_atom_site_type_symbol
_atom_site_fract_x
_atom_site_fract_y
_atom_site_fract_z
_atom_type_partial_charge
Tb0 Tb 0.31072 0.09533 0.20475 0.0
Eu1 Eu 0.37807 0.08933 0.09167 0.0
C2 C 0.34464 0.167 0.14562 0.0
C3 C 0.28797 0.08553 1.05121 0.0
C4 C 0.2833 0.09859 0.38015 0.0
C5 C 0.32421 0.12276 0.46828 0.0
C6 C 0.30881 0.12544 0.40354 0.0
C7 C 0.27312 0.06937 0.42357 0.0
C8 C 0.28836 0.06684 0.4887 0.0
C9 C 0.31452 0.09324 0.51148 0.0
C10 C 0.27057 0.09872 0.30873 0.0
O11 O 0.3198 0.03665 0.18487 0.0
O12 O 0.38043 0.03551 0.15088 0.0
O13 O 0.41181 0.09022 0.1864 0.0
O14 O 0.36345 0.10344 0.26 0.0
C15 C 0.35224 0.02005 0.18229 0.0
O16 O 0.41352 0.05737 1.02339 0.0
O17 O 0.41151 0.11742 1.01446 0.0
O18 O 0.37532 0.14897 0.13003 0.0
O19 O 0.31339 0.1491 0.15546 0.0
O20 O 0.27623 0.09099 0.11373 0.0
O21 O 0.32349 0.08266 1.03621 0.0
C22 C 0.39909 0.09795 0.24703 0.0
O23 O 0.2794 0.12776 0.27266 0.0
O24 O 0.27634 0.068 0.27538 0.0
C25 C 0.41019 0.08286 0.91281 0.0
C26 C 0.38247 0.08289 0.77846 0.0
C27 C 0.37053 0.056 0.82541 0.0
C28 C 0.38402 0.05611 0.89173 0.0
C29 C 0.42335 0.10882 0.86548 0.0
C30 C 0.40964 0.10889 0.79903 0.0
C31 C 0.42066 0.08614 0.98514 0.0
H32 H 0.34387 0.14385 0.48443 0.0
H33 H 0.3177 0.14814 0.37132 0.0
H34 H 0.25382 0.04812 0.40666 0.0
H35 H 0.28044 0.04361 0.52049 0.0
H36 H 0.35028 0.03505 0.8113 0.0
H37 H 0.37304 0.03579 0.92694 0.0
H38 H 0.44331 0.12988 0.88052 0.0
H39 H 0.41931 0.13024 0.76464 0.0
Tb40 Tb 0.08679 0.60502 1.02314 0.0
Eu41 Eu 0.07278 0.66893 0.90608 0.0
C42 C 0.01213 0.61481 0.94809 0.0
C43 C 0.09894 0.5832 0.87014 0.0
C44 C 0.08208 0.5741 0.19864 0.0
C45 C 0.04403 0.60584 0.28308 0.0
C46 C 0.04884 0.59221 0.21733 0.0
C47 C 0.10982 0.56887 0.24778 0.0
C48 C 0.1051 0.58265 0.31349 0.0
C49 C 0.07241 0.60194 0.33171 0.0
C50 C 0.08974 0.56438 0.12705 0.0
O51 O 0.14302 0.62555 1.00061 0.0
O52 O 0.13406 0.65839 0.90109 0.0
O53 O 0.08376 0.70196 1.00217 0.0
O54 O 0.06575 0.65491 0.07278 0.0
C55 C 0.15581 0.64255 0.94606 0.0
O56 O 0.08438 0.71577 0.83854 0.0
O57 O 0.03105 0.68781 0.83349 0.0
O58 O 0.02033 0.64985 0.95635 0.0
O59 O 0.03797 0.59038 0.96261 0.0
O60 O 0.10633 0.57566 0.93408 0.0
O61 O 0.08197 0.61403 0.85066 0.0
C62 C 0.07586 0.6896 0.06329 0.0
O63 O 0.06149 0.5649 0.08555 0.0
O64 O 0.11878 0.58049 0.10058 0.0
C65 C 0.05961 0.701 0.73024 0.0
C66 C 0.06382 0.67173 0.59742 0.0
C67 C 0.09338 0.66682 0.6434 0.0
C68 C 0.09115 0.68094 0.70911 0.0
C69 C 0.03068 0.70732 0.68387 0.0
C70 C 0.03275 0.69288 0.61808 0.0
C71 C 0.05436 0.70979 0.80259 0.0
H72 H 0.01824 0.61992 0.29548 0.0
H73 H 0.02692 0.59695 0.18066 0.0
H74 H 0.13579 0.55528 0.23463 0.0
H75 H 0.12773 0.5794 0.34924 0.0
H76 H 0.1181 0.65143 0.62907 0.0
H77 H 0.11369 0.67516 0.74405 0.0
H78 H 0.00581 0.72213 0.6994 0.0
H79 H 0.00931 0.69704 0.58441 0.0
Tb80 Tb 0.66876 0.89675 0.2034 0.0
Eu81 Eu 0.6044 0.89522 0.08586 0.0
C82 C 0.63654 0.82096 0.15652 0.0
C83 C 0.68963 0.9005 1.04803 0.0
C84 C 0.7028 0.89729 0.37483 0.0
C85 C 0.66783 0.8655 0.4632 0.0
C86 C 0.68254 0.86625 0.39771 0.0
C87 C 0.70881 0.9271 0.41944 0.0
C88 C 0.69386 0.92649 0.48479 0.0
C89 C 0.67252 0.89597 0.50718 0.0
C90 C 0.71243 0.90153 0.30244 0.0
O91 O 0.65809 0.95274 0.16724 0.0
O92 O 0.59635 0.94771 0.14826 0.0
O93 O 0.57236 0.88054 0.1795 0.0
O94 O 0.61585 0.89866 0.25949 0.0
C95 C 0.62464 0.96708 0.17125 0.0
O96 O 0.56824 0.92496 1.01537 0.0
O97 O 0.57232 0.86501 1.00917 0.0
O98 O 0.62799 0.83642 0.09803 0.0
O99 O 0.64549 0.84147 0.20863 0.0
O100 O 0.69839 0.88566 0.10724 0.0
O101 O 0.65713 0.91613 1.03928 0.0
C102 C 0.58194 0.88768 0.24258 0.0
O103 O 0.7103 0.87196 0.26415 0.0
O104 O 0.69713 0.93021 0.27345 0.0
C105 C 0.57254 0.89824 0.90564 0.0
C106 C 0.60104 0.89909 0.77188 0.0
C107 C 0.60562 0.93001 0.8148 0.0
C108 C 0.5917 0.92956 0.88078 0.0
C109 C 0.56637 0.86801 0.86192 0.0
C110 C 0.58051 0.86838 0.79583 0.0
C111 C 0.56225 0.89551 0.97823 0.0
H112 H 0.65226 0.84119 0.47891 0.0
H113 H 0.67699 0.84295 0.36439 0.0
H114 H 0.72387 0.95157 0.40277 0.0
H115 H 0.69785 0.95066 0.5167 0.0
H116 H 0.62047 0.95452 0.7978 0.0
H117 H 0.59697 0.95345 0.9128 0.0
H118 H 0.55173 0.84352 0.87966 0.0
H119 H 0.57657 0.84397 0.7645 0.0
Tb120 Tb 0.89473 0.37774 1.02157 0.0
Eu121 Eu 0.89003 0.30986 0.90894 0.0
C122 C 0.96517 0.35576 0.93088 0.0
C123 C 0.88601 0.40014 0.86966 0.0
C124 C 0.89366 0.40755 0.19742 0.0
C125 C 0.92159 0.39878 0.30876 0.0
C126 C 0.9229 0.41375 0.24333 0.0
C127 C 0.86247 0.38707 0.21917 0.0
C128 C 0.86102 0.3724 0.28472 0.0
C129 C 0.89085 0.37747 0.32996 0.0
C130 C 0.89816 0.41823 0.12534 0.0
O131 O 0.83682 0.37483 0.98622 0.0
O132 O 0.83672 0.31261 0.96648 0.0
O133 O 0.89765 0.27585 1.00409 0.0
O134 O 0.89638 0.32538 0.0782 0.0
C135 C 0.81865 0.34401 0.97241 0.0
O136 O 0.85418 0.28331 0.8338 0.0
O137 O 0.91257 0.26856 0.83863 0.0
O138 O 0.95067 0.3231 0.91811 0.0
O139 O 0.94712 0.3816 0.96496 0.0
O140 O 0.89455 0.41158 0.93094 0.0
O141 O 0.88066 0.36483 0.85446 0.0
C142 C 0.89815 0.28941 0.06604 0.0
O143 O 0.92738 0.40411 0.09571 0.0
O144 O 0.86868 0.41615 0.0867 0.0
C145 C 0.88575 0.2791 0.72986 0.0
C146 C 0.88829 0.30792 0.5963 0.0
C147 C 0.85643 0.28922 0.62017 0.0
C148 C 0.85516 0.2751 0.68617 0.0
C149 C 0.91793 0.29706 0.70571 0.0
C150 C 0.91922 0.31115 0.63973 0.0
C151 C 0.88223 0.26832 0.80202 0.0
H152 H 0.94484 0.40362 0.34259 0.0
H153 H 0.94738 0.42918 0.22781 0.0
H154 H 0.8397 0.38118 0.18485 0.0
H155 H 0.83711 0.35581 0.29906 0.0
H156 H 0.83232 0.28558 0.58791 0.0
H157 H 0.82997 0.26156 0.70354 0.0
H158 H 0.94184 0.30119 0.7383 0.0
H159 H 0.94405 0.32576 0.62366 0.0
Tb160 Tb 0.31474 0.40452 0.16491 0.0
Eu161 Eu 0.37967 0.39703 0.28253 0.0
C162 C 0.34303 0.32455 0.20793 0.0
C163 C 0.2935 0.40564 0.31988 0.0
C164 C 0.28041 0.41204 0.99333 0.0
C165 C 0.31302 0.37766 0.90522 0.0
C166 C 0.29921 0.37993 0.97121 0.0
C167 C 0.27469 0.44132 0.94749 0.0
C168 C 0.28879 0.43921 0.88156 0.0
C169 C 0.30897 0.40769 0.85999 0.0
C170 C 0.27257 0.41782 0.06598 0.0
O171 O 0.33029 0.45797 0.2079 0.0
O172 O 0.39152 0.44757 0.21752 0.0
O173 O 0.41016 0.37821 0.19009 0.0
O174 O 0.3673 0.39714 0.10906 0.0
C175 C 0.36438 0.46999 0.2004 0.0
O176 O 0.41815 0.42501 0.35155 0.0
O177 O 0.40876 0.3658 0.36156 0.0
O178 O 0.35921 0.33809 0.26264 0.0
O179 O 0.32771 0.34575 0.16152 0.0
O180 O 0.28343 0.39423 0.259 0.0
O181 O 0.3272 0.41799 0.33086 0.0
C182 C 0.40015 0.38364 0.12679 0.0
O183 O 0.26933 0.38823 0.10394 0.0
O184 O 0.29361 0.44281 0.09442 0.0
C185 C 0.41066 0.40066 0.46283 0.0
C186 C 0.38099 0.40495 0.59561 0.0
C187 C 0.37766 0.43515 0.55061 0.0
C188 C 0.39216 0.433 0.48506 0.0
C189 C 0.4154 0.37108 0.50852 0.0
C190 C 0.40069 0.37314 0.57404 0.0
C191 C 0.42127 0.39589 0.39074 0.0
H192 H 0.3276 0.35259 0.89016 0.0
H193 H 0.30446 0.35703 1.0056 0.0
H194 H 0.26079 0.46659 0.96367 0.0
H195 H 0.2853 0.46305 0.84864 0.0
H196 H 0.3634 0.46041 0.56567 0.0
H197 H 0.38785 0.45634 0.45127 0.0
H198 H 0.42931 0.34575 0.4927 0.0
H199 H 0.40357 0.34917 0.60685 0.0
Tb200 Tb 0.39135 0.60777 0.84397 0.0
Eu201 Eu 0.38358 0.67506 0.95652 0.0
C202 C 0.4603 0.63356 0.93438 0.0
C203 C 0.38231 0.58407 0.99534 0.0
C204 C 0.39263 0.57731 0.6682 0.0
C205 C 0.42001 0.58582 0.55649 0.0
C206 C 0.42199 0.57164 0.62245 0.0
C207 C 0.36068 0.59641 0.64587 0.0
C208 C 0.35859 0.61039 0.57993 0.0
C209 C 0.38852 0.60598 0.53468 0.0
C210 C 0.3974 0.56727 0.7405 0.0
O211 O 0.33242 0.61111 0.87347 0.0
O212 O 0.33017 0.67299 0.89883 0.0
O213 O 0.39059 0.70947 0.86165 0.0
O214 O 0.39251 0.65998 0.78748 0.0
C215 C 0.3133 0.64164 0.88572 0.0
O216 O 0.34764 0.70012 1.03307 0.0
O217 O 0.40534 0.71714 1.02603 0.0
O218 O 0.44437 0.66605 0.94132 0.0
O219 O 0.44337 0.606 0.90294 0.0
O220 O 0.38756 0.57305 0.93266 0.0
O221 O 0.37978 0.61953 1.01222 0.0
C222 C 0.39285 0.69595 0.7998 0.0
O223 O 0.42569 0.58292 0.77054 0.0
O224 O 0.36765 0.56814 0.77843 0.0
C225 C 0.38036 0.70542 0.13551 0.0
C226 C 0.38454 0.6754 0.26798 0.0
C227 C 0.35321 0.69611 0.24705 0.0
C228 C 0.35118 0.71091 0.18161 0.0
C229 C 0.41205 0.68549 0.15669 0.0
C230 C 0.41422 0.67092 0.2222 0.0
C231 C 0.37546 0.71623 0.06374 0.0
H232 H 0.44378 0.58217 0.52348 0.0
H233 H 0.4471 0.55738 0.63854 0.0
H234 H 0.33762 0.6016 0.67988 0.0
H235 H 0.33361 0.62511 0.56476 0.0
H236 H 0.32962 0.69988 0.28043 0.0
H237 H 0.32627 0.72574 0.16629 0.0
H238 H 0.4349 0.68037 0.1222 0.0
H239 H 0.43908 0.65579 0.23667 0.0
Tb240 Tb 0.66621 0.58085 0.15459 0.0
Eu241 Eu 0.60367 0.58992 0.27346 0.0
C242 C 0.64035 0.66069 0.19883 0.0
C243 C 0.68976 0.57855 0.30886 0.0
C244 C 0.69955 0.575 0.98308 0.0
C245 C 0.66354 0.60811 0.89788 0.0
C246 C 0.67759 0.60559 0.9636 0.0
C247 C 0.70815 0.54755 0.93513 0.0
C248 C 0.69398 0.54999 0.86929 0.0
C249 C 0.67076 0.57988 0.85034 0.0
C250 C 0.70797 0.56854 1.05508 0.0
O251 O 0.65151 0.5273 0.19794 0.0
O252 O 0.59056 0.53892 0.21058 0.0
O253 O 0.5735 0.6101 0.18117 0.0
O254 O 0.6125 0.58431 0.10063 0.0
C255 C 0.61706 0.51597 0.19251 0.0
O256 O 0.5639 0.56339 0.3415 0.0
O257 O 0.57533 0.62224 0.35194 0.0
O258 O 0.63005 0.64671 0.25755 0.0
O259 O 0.65002 0.63906 0.14832 0.0
O260 O 0.69899 0.59013 0.24767 0.0
O261 O 0.65572 0.5676 0.32178 0.0
C262 C 0.58111 0.60098 0.1182 0.0
O263 O 0.71116 0.59794 0.09363 0.0
O264 O 0.68716 0.54318 0.08299 0.0
C265 C 0.57149 0.5872 0.45247 0.0
C266 C 0.6 0.58251 0.58569 0.0
C267 C 0.60743 0.5543 0.53824 0.0
C268 C 0.59351 0.55669 0.47242 0.0
C269 C 0.56266 0.61462 0.50043 0.0
C270 C 0.57676 0.61233 0.56641 0.0
C271 C 0.56144 0.59261 0.38054 0.0
H272 H 0.64633 0.63182 0.88476 0.0
H273 H 0.67001 0.6269 0.99988 0.0
H274 H 0.72456 0.52345 0.94938 0.0
H275 H 0.69993 0.52761 0.8342 0.0
H276 H 0.62459 0.53058 0.55157 0.0
H277 H 0.6011 0.53515 0.43662 0.0
H278 H 0.54601 0.63855 0.48615 0.0
H279 H 0.57067 0.6347 0.60142 0.0
Tb280 Tb 0.58564 0.37519 0.84488 0.0
Eu281 Eu 0.59746 0.30815 0.95689 0.0
C282 C 0.51864 0.34874 0.94055 0.0
C283 C 0.59561 0.39891 0.99522 0.0
C284 C 0.5853 0.40412 0.66894 0.0
C285 C 0.55948 0.39504 0.55601 0.0
C286 C 0.55687 0.4101 0.6213 0.0
C287 C 0.61688 0.38355 0.6493 0.0
C288 C 0.6196 0.36873 0.58399 0.0
C289 C 0.59069 0.37375 0.53675 0.0
C290 C 0.5796 0.41502 0.74065 0.0
O291 O 0.64456 0.37388 0.87636 0.0
O292 O 0.64763 0.31155 0.89159 0.0
O293 O 0.58897 0.27353 0.86231 0.0
O294 O 0.58479 0.32298 0.78844 0.0
C295 C 0.66444 0.34347 0.88503 0.0
O296 O 0.63604 0.28599 1.03241 0.0
O297 O 0.57987 0.26431 1.0266 0.0
O298 O 0.53635 0.31772 0.95344 0.0
O299 O 0.5332 0.37519 0.90254 0.0
O300 O 0.58397 0.40925 0.93502 0.0
O301 O 0.60502 0.36425 1.0094 0.0
C302 C 0.58551 0.28702 0.80054 0.0
O303 O 0.55137 0.39902 0.77017 0.0
O304 O 0.60896 0.41529 0.77978 0.0
C305 C 0.60472 0.27755 0.13563 0.0
C306 C 0.59914 0.30526 0.26964 0.0
C307 C 0.63087 0.28528 0.24851 0.0
C308 C 0.63363 0.27166 0.18225 0.0
C309 C 0.57271 0.29691 0.15691 0.0
C310 C 0.56987 0.31039 0.22313 0.0
C311 C 0.60993 0.26749 0.06354 0.0
H312 H 0.53689 0.39987 0.52074 0.0
H313 H 0.53206 0.42548 0.63526 0.0
H314 H 0.63898 0.37772 0.6851 0.0
H315 H 0.6438 0.35208 0.57139 0.0
H316 H 0.65372 0.28029 0.28314 0.0
H317 H 0.6587 0.25711 0.16698 0.0
H318 H 0.55022 0.30258 0.12186 0.0
H319 H 0.54525 0.32603 0.23707 0.0
Tb320 Tb 0.81752 0.58765 0.68981 0.0
Eu321 Eu 0.88558 0.58473 0.57611 0.0
C322 C 0.85103 0.66017 0.63338 0.0
C323 C 0.79505 0.58173 0.53556 0.0
C324 C 0.78835 0.58769 0.86455 0.0
C325 C 0.79064 0.61166 0.97964 0.0
C326 C 0.77593 0.61279 0.91396 0.0
C327 C 0.81554 0.56116 0.88215 0.0
C328 C 0.83031 0.56007 0.94763 0.0
C329 C 0.81845 0.58563 0.99713 0.0
C330 C 0.77688 0.59246 0.79317 0.0
O331 O 0.82997 0.52901 0.67534 0.0
O332 O 0.89025 0.53197 0.638 0.0
O333 O 0.91916 0.58609 0.67148 0.0
O334 O 0.86999 0.59525 0.74549 0.0
C335 C 0.86331 0.51457 0.66978 0.0
O336 O 0.91373 0.55201 0.49824 0.0
O337 O 0.92531 0.61105 0.50742 0.0
O338 O 0.88203 0.6439 0.61455 0.0
O339 O 0.82022 0.64087 0.63865 0.0
O340 O 0.7832 0.58247 0.59876 0.0
O341 O 0.83063 0.58269 0.52019 0.0
C342 C 0.9059 0.5923 0.73244 0.0
O343 O 0.79149 0.62119 0.76312 0.0
O344 O 0.7782 0.56293 0.75479 0.0
C345 C 0.91698 0.58621 0.39711 0.0
C346 C 0.88825 0.58778 0.26354 0.0
C347 C 0.91715 0.56303 0.28129 0.0
C348 C 0.93137 0.56229 0.34742 0.0
C349 C 0.8888 0.61156 0.37905 0.0
C350 C 0.87474 0.61244 0.31309 0.0
C351 C 0.92765 0.58148 0.46897 0.0
H352 H 0.78038 0.63142 1.01658 0.0
H353 H 0.75536 0.63378 0.90138 0.0
H354 H 0.82641 0.54203 0.84463 0.0
H355 H 0.85209 0.54008 0.9586 0.0
H356 H 0.92851 0.54394 0.24423 0.0
H357 H 0.95282 0.54225 0.36026 0.0
H358 H 0.87658 0.62983 0.41658 0.0
H359 H 0.85215 0.63145 0.30171 0.0
Tb360 Tb 0.58892 0.10688 0.52002 0.0
Eu361 Eu 0.57664 0.17048 0.40384 0.0
C362 C 0.51282 0.12031 0.44901 0.0
C363 C 0.59656 0.08385 0.36701 0.0
C364 C 0.58729 0.0763 0.69563 0.0
C365 C 0.55014 0.10518 0.78469 0.0
C366 C 0.55329 0.0911 0.71898 0.0
C367 C 0.6176 0.07472 0.7405 0.0
C368 C 0.61446 0.08888 0.8063 0.0
C369 C 0.58086 0.10492 0.82885 0.0
C370 C 0.59225 0.06592 0.62341 0.0
O371 O 0.64311 0.13433 0.50635 0.0
O372 O 0.63669 0.15395 0.39675 0.0
O373 O 0.58792 0.20274 0.50103 0.0
O374 O 0.56757 0.15624 0.57067 0.0
C375 C 0.65778 0.14483 0.44824 0.0
O376 O 0.59245 0.21646 0.3372 0.0
O377 O 0.53719 0.19256 0.33008 0.0
O378 O 0.52261 0.15519 0.45305 0.0
O379 O 0.53796 0.0949 0.46292 0.0
O380 O 0.60753 0.07727 0.42966 0.0
O381 O 0.57896 0.11466 0.34973 0.0
C382 C 0.57855 0.19071 0.56175 0.0
O383 O 0.56291 0.06856 0.58487 0.0
O384 O 0.62161 0.07948 0.59349 0.0
C385 C 0.56784 0.20369 0.22772 0.0
C386 C 0.57295 0.17465 0.09474 0.0
C387 C 0.60322 0.17199 0.13982 0.0
C388 C 0.60056 0.18594 0.20564 0.0
C389 C 0.53812 0.20779 0.18219 0.0
C390 C 0.54058 0.1934 0.11647 0.0
C391 C 0.56249 0.21265 0.30008 0.0
H392 H 0.52364 0.11663 0.80063 0.0
H393 H 0.52925 0.09283 0.68601 0.0
H394 H 0.64414 0.0636 0.72394 0.0
H395 H 0.63879 0.08843 0.8387 0.0
H396 H 0.62893 0.1586 0.1247 0.0
H397 H 0.62384 0.18192 0.23976 0.0
H398 H 0.51239 0.22084 0.19834 0.0
H399 H 0.51652 0.19575 0.08372 0.0
Tb400 Tb 0.17332 0.38054 0.70685 0.0
Eu401 Eu 0.10803 0.39515 0.59187 0.0
C402 C 0.13444 0.31482 0.64048 0.0
C403 C 0.19441 0.39207 0.55342 0.0
C404 C 0.20768 0.37326 0.87841 0.0
C405 C 0.20162 0.34789 0.9923 0.0
C406 C 0.21429 0.34469 0.92539 0.0
C407 C 0.18896 0.40553 0.90023 0.0
C408 C 0.17644 0.40882 0.96698 0.0
C409 C 0.18194 0.37977 1.01373 0.0
C410 C 0.21567 0.36731 0.80552 0.0
O411 O 0.15129 0.4341 0.73345 0.0
O412 O 0.12047 0.45232 0.63693 0.0
O413 O 0.0752 0.39885 0.688 0.0
O414 O 0.11924 0.36994 0.75587 0.0
C415 C 0.13457 0.45954 0.69712 0.0
O416 O 0.08745 0.43151 0.51154 0.0
O417 O 0.0651 0.37584 0.52124 0.0
O418 O 0.10472 0.33511 0.62796 0.0
O419 O 0.16696 0.33093 0.64627 0.0
O420 O 0.20405 0.40005 0.61636 0.0
O421 O 0.16106 0.37979 0.54 0.0
C422 C 0.08538 0.38334 0.74546 0.0
O423 O 0.19524 0.34193 0.77644 0.0
O424 O 0.21853 0.39705 0.76776 0.0
C425 C 0.0801 0.39789 0.41047 0.0
C426 C 0.11187 0.39054 0.27953 0.0
C427 C 0.0911 0.42242 0.29718 0.0
C428 C 0.07541 0.42601 0.36182 0.0
C429 C 0.09995 0.36558 0.3924 0.0
C430 C 0.11547 0.36189 0.32771 0.0
C431 C 0.0691 0.4048 0.48179 0.0
H432 H 0.20689 0.32519 1.02706 0.0
H433 H 0.22837 0.31941 0.90983 0.0
H434 H 0.18283 0.42784 0.86514 0.0
H435 H 0.16106 0.43358 0.9811 0.0
H436 H 0.08725 0.44484 0.2612 0.0
H437 H 0.06062 0.45138 0.37458 0.0
H438 H 0.10479 0.34371 0.4291 0.0
H439 H 0.13163 0.33717 0.31646 0.0
Tb440 Tb 0.39438 0.8774 0.52169 0.0
Eu441 Eu 0.40526 0.81288 0.40484 0.0
C442 C 0.46902 0.86436 0.44724 0.0
C443 C 0.38239 0.90014 0.36962 0.0
C444 C 0.3995 0.90615 0.69782 0.0
C445 C 0.43627 0.87321 0.7828 0.0
C446 C 0.43282 0.88862 0.71807 0.0
C447 C 0.37032 0.90913 0.74472 0.0
C448 C 0.3737 0.89357 0.80937 0.0
C449 C 0.40645 0.87476 0.82879 0.0
C450 C 0.39336 0.91739 0.6264 0.0
O451 O 0.33739 0.85774 0.50139 0.0
O452 O 0.34444 0.82493 0.40147 0.0
O453 O 0.39345 0.78047 0.50114 0.0
O454 O 0.41373 0.8268 0.57127 0.0
C455 C 0.32357 0.84089 0.44745 0.0
O456 O 0.3907 0.76699 0.337 0.0
O457 O 0.44587 0.79099 0.33296 0.0
O458 O 0.45907 0.82965 0.45342 0.0
O459 O 0.44403 0.88979 0.46125 0.0
O460 O 0.37603 0.90836 0.43356 0.0
O461 O 0.39684 0.86808 0.35003 0.0
C462 C 0.40224 0.79253 0.56205 0.0
O463 O 0.42191 0.91515 0.58588 0.0
O464 O 0.36342 0.90405 0.5981 0.0
C465 C 0.41718 0.77908 0.22895 0.0
C466 C 0.41403 0.80522 0.09405 0.0
C467 C 0.38376 0.81046 0.13815 0.0
C468 C 0.38542 0.79781 0.20492 0.0
C469 C 0.44712 0.77299 0.18468 0.0
C470 C 0.44561 0.78597 0.11789 0.0
C471 C 0.42126 0.77065 0.30174 0.0
H472 H 0.46179 0.85875 0.79577 0.0
H473 H 0.45583 0.88547 0.68314 0.0
H474 H 0.34436 0.92247 0.73059 0.0
H475 H 0.35045 0.89593 0.84396 0.0
H476 H 0.35925 0.8256 0.12182 0.0
H477 H 0.36221 0.80367 0.23825 0.0
H478 H 0.47209 0.75907 0.20233 0.0
H479 H 0.46924 0.78117 0.08503 0.0
Tb480 Tb 0.80925 0.87765 0.65879 0.0
Eu481 Eu 0.8743 0.89363 0.77298 0.0
C482 C 0.84742 0.81279 0.72784 0.0
C483 C 0.78765 0.88901 0.8123 0.0
C484 C 0.77717 0.86822 0.48678 0.0
C485 C 0.78406 0.84275 0.3731 0.0
C486 C 0.77099 0.83957 0.43979 0.0
C487 C 0.79628 0.90032 0.46545 0.0
C488 C 0.80921 0.90357 0.39899 0.0
C489 C 0.80374 0.87466 0.35194 0.0
C490 C 0.76818 0.86269 0.55936 0.0
O491 O 0.82968 0.93179 0.63175 0.0
O492 O 0.86148 0.95059 0.7268 0.0
O493 O 0.90694 0.89753 0.6768 0.0
O494 O 0.86362 0.86645 0.61107 0.0
C495 C 0.84655 0.95752 0.66708 0.0
O496 O 0.89422 0.92999 0.85377 0.0
O497 O 0.9182 0.87505 0.84231 0.0
O498 O 0.87732 0.83309 0.73865 0.0
O499 O 0.81505 0.82913 0.72203 0.0
O500 O 0.77767 0.89632 0.74917 0.0
O501 O 0.82161 0.87858 0.82622 0.0
C502 C 0.89711 0.88087 0.62032 0.0
O503 O 0.78868 0.8379 0.59001 0.0
O504 O 0.76426 0.89269 0.59614 0.0
C505 C 0.90304 0.89581 0.95372 0.0
C506 C 0.8722 0.88721 0.08504 0.0
C507 C 0.89397 0.91859 0.06873 0.0
C508 C 0.90921 0.92281 1.00386 0.0
C509 C 0.88212 0.86399 0.97036 0.0
C510 C 0.86707 0.85965 1.03527 0.0
C511 C 0.91356 0.90361 0.88251 0.0
H512 H 0.77883 0.82012 0.33818 0.0
H513 H 0.75671 0.81437 0.45505 0.0
H514 H 0.80221 0.92262 0.50064 0.0
H515 H 0.82471 0.9283 0.38528 0.0
H516 H 0.89892 0.94016 0.10596 0.0
H517 H 0.9248 0.94782 0.99217 0.0
H518 H 0.87612 0.84306 0.93243 0.0
H519 H 0.85011 0.83538 1.04558 0.0
Tb520 Tb 0.88742 0.10747 0.34304 0.0
Eu521 Eu 0.90001 0.17003 0.46019 0.0
C522 C 0.96207 0.11686 0.41913 0.0
C523 C 0.87575 0.08424 0.49555 0.0
C524 C 0.88933 0.07626 0.16754 0.0
C525 C 0.92735 0.10254 0.07725 0.0
C526 C 0.92398 0.08873 0.14304 0.0
C527 C 0.85855 0.07652 0.12365 0.0
C528 C 0.86192 0.09039 0.05775 0.0
C529 C 0.89622 0.10424 1.0342 0.0
C530 C 0.88441 0.06635 0.23988 0.0
O531 O 0.8334 0.13555 0.35537 0.0
O532 O 0.83931 0.15587 0.46481 0.0
O533 O 0.89055 0.20315 0.36341 0.0
O534 O 0.91055 0.15652 0.29374 0.0
C535 C 0.8185 0.14651 0.41306 0.0
O536 O 0.88575 0.21633 0.52732 0.0
O537 O 0.94038 0.19077 0.53337 0.0
O538 O 0.95385 0.15204 0.41322 0.0
O539 O 0.93611 0.09263 0.40416 0.0
O540 O 0.8668 0.07812 0.43173 0.0
O541 O 0.89343 0.11461 0.5151 0.0
C542 C 0.90055 0.19131 0.30292 0.0
O543 O 0.91377 0.06936 0.27829 0.0
O544 O 0.85496 0.07996 0.26954 0.0
C545 C 0.91073 0.2027 0.63617 0.0
C546 C 0.9054 0.17367 0.76888 0.0
C547 C 0.87449 0.17306 0.72507 0.0
C548 C 0.87723 0.18701 0.65932 0.0
C549 C 0.94122 0.20468 0.68046 0.0
C550 C 0.93864 0.19029 0.74609 0.0
C551 C 0.91581 0.21158 0.56383 0.0
H552 H 0.95433 0.11228 0.06034 0.0
H553 H 0.94842 0.08886 0.17518 0.0
H554 H 0.83153 0.06713 0.14104 0.0
H555 H 0.83731 0.09148 1.02611 0.0
H556 H 0.8482 0.16128 0.74116 0.0
H557 H 0.85333 0.18462 0.62613 0.0
H558 H 0.96752 0.21609 0.6634 0.0
H559 H 0.96317 0.19096 0.77795 0.0
Tb560 Tb 0.1605 0.09049 0.66991 0.0
Eu561 Eu 0.09286 0.0854 0.78344 0.0
C562 C 0.12747 0.16148 0.73066 0.0
C563 C 0.18324 0.08278 0.82384 0.0
C564 C 0.18901 0.09435 0.49536 0.0
C565 C 0.18413 0.12002 0.38173 0.0
C566 C 0.1991 0.12118 0.44719 0.0
C567 C 0.16371 0.06624 0.47683 0.0
C568 C 0.14859 0.06519 0.41163 0.0
C569 C 0.15829 0.09229 0.36341 0.0
C570 C 0.20055 0.0988 0.56673 0.0
O571 O 0.1493 0.03133 0.67898 0.0
O572 O 0.09012 0.03183 0.72331 0.0
O573 O 0.05919 0.08441 0.68838 0.0
O574 O 0.10758 0.09812 0.61526 0.0
C575 C 0.11698 0.01545 0.6893 0.0
O576 O 0.06566 0.05283 0.86253 0.0
O577 O 0.05223 0.11136 0.85094 0.0
O578 O 0.09608 0.1449 0.74589 0.0
O579 O 0.15813 0.14198 0.72628 0.0
O580 O 0.19499 0.08426 0.76061 0.0
O581 O 0.14769 0.08335 0.83939 0.0
C582 C 0.07193 0.09246 0.62785 0.0
O583 O 0.18442 0.12632 0.59802 0.0
O584 O 0.20113 0.06876 0.60394 0.0
C585 C 0.06123 0.08812 0.96224 0.0
C586 C 0.08996 0.09197 0.09576 0.0
C587 C 0.062 0.06601 0.07872 0.0
C588 C 0.04783 0.06413 1.01265 0.0
C589 C 0.0883 0.11474 0.97952 0.0
C590 C 0.10228 0.11681 1.04545 0.0
C591 C 0.0508 0.08222 0.89057 0.0
H592 H 0.19193 0.14155 0.34611 0.0
H593 H 0.21798 0.14352 0.46067 0.0
H594 H 0.15469 0.04564 0.51334 0.0
H595 H 0.12905 0.04328 0.39914 0.0
H596 H 0.05205 0.04612 0.11566 0.0
H597 H 0.02738 0.04301 1.00034 0.0
H598 H 0.09959 0.1333 0.94153 0.0
H599 H 0.1232 0.13762 1.05662 0.0
Tb600 Tb 0.08827 0.87395 0.34562 0.0
Eu601 Eu 0.09579 0.80641 0.45864 0.0
C602 C 0.01904 0.85174 0.43945 0.0
C603 C 0.09719 0.89692 0.49686 0.0
C604 C 0.09001 0.90285 0.16974 0.0
C605 C 0.06438 0.8964 1.05611 0.0
C606 C 0.06276 0.91169 0.12133 0.0
C607 C 0.11952 0.87919 0.15098 0.0
C608 C 0.12128 0.86412 0.08575 0.0
C609 C 0.0934 0.87199 1.03775 0.0
C610 C 0.0847 0.91405 0.24134 0.0
O611 O 0.14656 0.87091 0.37895 0.0
O612 O 0.14847 0.80856 0.39859 0.0
O613 O 0.08615 0.77243 0.36371 0.0
O614 O 0.08582 0.82182 0.28941 0.0
C615 C 0.16564 0.84016 0.38906 0.0
O616 O 0.13244 0.78189 0.53486 0.0
O617 O 0.07525 0.7634 0.5275 0.0
O618 O 0.03503 0.82034 0.45662 0.0
O619 O 0.03551 0.87684 0.40117 0.0
O620 O 0.08687 0.90767 0.43611 0.0
O621 O 0.10513 0.862 0.51172 0.0
C622 C 0.08429 0.78594 0.30178 0.0
O623 O 0.05559 0.89951 0.27049 0.0
O624 O 0.11392 0.91273 0.28075 0.0
C625 C 0.10025 0.77443 0.63724 0.0
C626 C 0.09651 0.80229 0.77132 0.0
C627 C 0.12642 0.77956 0.75056 0.0
C628 C 0.12827 0.76586 0.68426 0.0
C629 C 0.06992 0.79639 0.65818 0.0
C630 C 0.06798 0.80998 0.72444 0.0
C631 C 0.10521 0.7646 0.56504 0.0
H632 H 0.04269 0.90346 1.02021 0.0
H633 H 0.03951 0.9295 0.13464 0.0
H634 H 0.14056 0.87113 0.18746 0.0
H635 H 0.14374 0.84507 0.07382 0.0
H636 H 0.14859 0.77253 0.78547 0.0
H637 H 0.15207 0.74925 0.66923 0.0
H638 H 0.04821 0.80413 0.62276 0.0
H639 H 0.04479 0.82776 0.73807 0.0
C640 C 0.3959 0.93337 0.26029 0.0
C641 C 0.37337 0.92851 0.31782 0.0
H642 H 0.40728 0.9666 0.17216 0.0
C643 C 0.34246 0.95187 0.32687 0.0
H644 H 0.41996 0.9157 0.25215 0.0
C645 C 0.33458 0.98004 0.28031 0.0
C646 C 0.35798 0.98624 0.22433 0.0
H647 H 0.32444 0.94853 0.37038 0.0
H648 H 0.31096 -0.00198 0.29009 0.0
C649 C 0.38862 0.96241 0.21448 0.0
C650 C 0.92366 0.62006 0.84418 0.0
C651 C 0.93217 0.59623 0.78984 0.0
H652 H 0.94267 0.64496 0.93678 0.0
C653 C 0.96579 0.57622 0.79122 0.0
H654 H 0.8979 0.6358 0.84455 0.0
C655 C -0.00945 0.58021 0.8455 0.0
C656 C 0.98285 0.60538 0.89821 0.0
H657 H 0.97295 0.55743 0.75037 0.0
H658 H 0.01651 0.56486 0.84457 0.0
C659 C 0.94909 0.62514 0.89716 0.0
C660 C 0.58445 0.0194 0.2158 0.0
C661 C 0.61847 -6e-05 0.21584 0.0
H662 H 0.55128 0.06217 0.26237 0.0
C663 C 0.64566 0.00985 0.264 0.0
H664 H 0.56295 0.01259 0.1794 0.0
C665 C 0.6383 0.03677 0.3133 0.0
C666 C 0.60416 0.05569 0.31402 0.0
H667 H 0.67238 -0.00399 0.26527 0.0
H668 H 0.65949 0.04298 0.3507 0.0
C669 C 0.57768 0.04758 0.26358 0.0
C670 C 0.002 0.39961 0.85939 0.0
C671 C -0.00033 0.36549 0.89401 0.0
H672 H 0.03045 0.43162 0.78357 0.0
C673 C 0.02728 0.33842 0.8828 0.0
H674 H 0.98077 0.4207 0.8662 0.0
C675 C 0.05612 0.34498 0.83665 0.0
C676 C 0.05709 0.37816 0.79901 0.0
H677 H 0.02588 0.31171 0.90815 0.0
H678 H 0.07658 0.3233 0.82793 0.0
C679 C 0.03011 0.40567 0.81152 0.0
C680 C 0.37316 0.49003 0.08122 0.0
C681 C 0.37118 0.49959 0.14989 0.0
H682 H 0.37818 0.50868 0.97916 0.0
C683 C 0.37327 0.53729 0.16826 0.0
H684 H 0.37083 0.46139 0.06537 0.0
C685 C 0.37723 0.56492 0.11834 0.0
C686 C 0.37903 0.55524 1.04921 0.0
H687 H 0.37147 0.54537 0.22093 0.0
H688 H 0.37866 0.59382 0.13392 0.0
C689 C 0.37717 0.51736 1.03159 0.0
C690 C 0.53294 0.64347 0.07156 0.0
C691 C 0.55326 0.6103 0.0657 0.0
H692 H 0.48903 0.67736 1.03356 0.0
C693 C 0.54544 0.58607 1.01158 0.0
H694 H 0.5387 0.66288 0.11222 0.0
C695 C 0.51606 0.59394 0.96662 0.0
C696 C 0.49491 0.62674 0.97397 0.0
H697 H 0.56089 0.56033 1.00586 0.0
H698 H 0.50936 0.57402 0.92734 0.0
C699 C 0.50455 0.65182 1.02589 0.0
C700 C 0.579 0.48535 0.10194 0.0
C701 C 0.60885 0.48374 0.14801 0.0
H702 H 0.55199 0.46026 1.01636 0.0
C703 C 0.63328 0.45319 0.14525 0.0
H704 H 0.55999 0.5088 0.10222 0.0
C705 C 0.62821 0.425 0.09703 0.0
C706 C 0.59937 0.42747 1.04904 0.0
H707 H 0.65668 0.4514 0.17974 0.0
H708 H 0.64772 0.40197 0.0957 0.0
C709 C 0.57464 0.45778 1.05233 0.0
C710 C 0.44768 0.34056 0.08058 0.0
C711 C 0.42706 0.37342 0.07347 0.0
H712 H 0.4912 0.30626 1.04292 0.0
C713 C 0.43368 0.39651 1.01725 0.0
H714 H 0.44273 0.322 0.12286 0.0
C715 C 0.4624 0.38798 0.97142 0.0
C716 C 0.48409 0.35565 0.98017 0.0
H717 H 0.41795 0.42198 1.01052 0.0
H718 H 0.46835 0.4072 0.93064 0.0
C719 C 0.47539 0.33151 1.03414 0.0
C720 C 0.85378 0.42396 0.76585 0.0
C721 C 0.88183 0.42798 0.81504 0.0
H722 H 0.82544 0.4488 0.68122 0.0
C723 C 0.90561 0.45893 0.81179 0.0
H724 H 0.835 0.40037 0.76737 0.0
C725 C 0.90128 0.4855 0.76063 0.0
C726 C 0.87222 0.4824 0.71334 0.0
H727 H 0.92742 0.46273 0.849 0.0
H728 H 0.91941 0.50955 0.76033 0.0
C729 C 0.84846 0.45141 0.71635 0.0
C730 C 0.44927 0.13433 0.4025 0.0
C731 C 0.48063 0.11088 0.40523 0.0
H732 H 0.39832 0.14803 0.35104 0.0
C733 C 0.48347 0.08153 0.35843 0.0
H734 H 0.44645 0.15727 0.43772 0.0
C735 C 0.45684 0.07722 0.30727 0.0
C736 C 0.42609 0.10134 0.30333 0.0
H737 H 0.50734 0.06307 0.35906 0.0
H738 H 0.46047 0.05522 0.27035 0.0
C739 C 0.42188 0.12917 0.35275 0.0
C740 C 0.14192 0.53357 0.831 0.0
C741 C 0.11033 0.55548 0.81873 0.0
H742 H 0.17533 0.48771 0.80009 0.0
C743 C 0.08954 0.54927 0.7593 0.0
H744 H 0.15908 0.53831 0.87529 0.0
C745 C 0.09854 0.51943 0.71603 0.0
C746 C 0.12882 0.49597 0.73122 0.0
H747 H 0.06526 0.56614 0.7482 0.0
H748 H 0.0807 0.51356 0.67314 0.0
C749 C 0.15126 0.50457 0.78753 0.0
C750 C 0.56204 0.88753 0.36551 0.0
C751 C 0.55325 0.88349 0.29628 0.0
H752 H 0.54203 0.88474 0.46825 0.0
C753 C 0.51644 0.87466 0.27832 0.0
H754 H 0.59015 0.89425 0.38126 0.0
C755 C 0.48933 0.86946 0.32779 0.0
C756 C 0.49804 0.87291 0.39665 0.0
H757 H 0.50842 0.87135 0.22584 0.0
H758 H 0.46159 0.86204 0.31171 0.0
C759 C 0.5346 0.88219 0.41535 0.0
C760 C 0.82805 0.00198 0.57646 0.0
C761 C 0.85096 -0.00587 0.63258 0.0
H762 H 0.81813 0.03597 0.48968 0.0
C763 C 0.88013 0.01892 0.64781 0.0
H764 H 0.8048 0.98409 0.56371 0.0
C765 C 0.88744 0.0495 0.60512 0.0
C766 C 0.86605 0.0553 0.54617 0.0
H767 H 0.89833 0.0137 0.69048 0.0
H768 H 0.91088 0.06745 0.61641 0.0
C769 C 0.8357 0.0318 0.53364 0.0
C770 C 0.01204 0.07547 0.56987 0.0
C771 C 0.0452 0.09623 0.57102 0.0
H772 H 0.96056 0.0644 0.51874 0.0
C773 C 0.0524 0.12115 0.51771 0.0
H774 H 0.00588 0.05582 0.60988 0.0
C775 C 0.02602 0.12675 0.46642 0.0
C776 C -0.00745 0.10654 0.46604 0.0
H777 H 0.07777 0.13748 0.51711 0.0
H778 H 0.0314 0.14748 0.42786 0.0
C779 C 0.98627 0.08012 0.51729 0.0
C780 C 0.12906 0.92329 0.59919 0.0
C781 C 0.10037 0.92531 0.55083 0.0
H782 H 0.15725 0.95088 0.68112 0.0
C783 C 0.07522 0.95525 0.55347 0.0
H784 H 0.14893 0.90056 0.5981 0.0
C785 C 0.07893 0.9829 0.60286 0.0
C786 C 0.10866 0.98189 0.649 0.0
H787 H 0.05294 0.9576 0.51678 0.0
H788 H 0.05983 0.00626 0.60233 0.0
C789 C 0.13368 0.95182 0.64691 0.0
C790 C 0.95783 0.8333 0.48984 0.0
C791 C 0.98395 0.86123 0.47476 0.0
H792 H 0.90927 0.81804 0.54669 0.0
C793 C 0.97958 0.89661 0.50415 0.0
H794 H 0.96079 0.80566 0.46852 0.0
C795 C 0.95105 0.90324 0.551 0.0
C796 C 0.92562 0.87496 0.56745 0.0
H797 H -0.00044 0.91847 0.49416 0.0
H798 H 0.9492 0.93027 0.57514 0.0
C799 C 0.92852 0.84032 0.53479 0.0
C800 C 0.31356 0.22931 0.14563 0.0
C801 C 0.34532 0.20762 0.15881 0.0
H802 H 0.28816 0.28329 0.15047 0.0
C803 C 0.37618 0.22445 0.1903 0.0
H804 H 0.28928 0.21703 0.12191 0.0
C805 C 0.37502 0.26219 0.20896 0.0
C806 C 0.34335 0.28391 0.1949 0.0
H807 H 0.40081 0.20823 0.20204 0.0
H808 H 0.39918 0.27459 0.2329 0.0
C809 C 0.31282 0.26714 0.16244 0.0
C810 C 0.25582 0.60955 0.92801 0.0
C811 C 0.27251 0.64025 0.89597 0.0
H812 H 0.20587 0.58673 0.97123 0.0
C813 C 0.25061 0.67167 0.88129 0.0
H814 H 0.27222 0.58521 0.9409 0.0
C815 C 0.21277 0.67239 0.89795 0.0
C816 C 0.19626 0.64218 0.93165 0.0
H817 H 0.26284 0.69584 0.85717 0.0
H818 H 0.19651 0.69687 0.88535 0.0
C819 C 0.2181 0.61068 0.94644 0.0
C820 C 0.63797 0.75521 0.11088 0.0
C821 C 0.63633 0.77983 0.16596 0.0
H822 H 0.64109 0.69835 0.07803 0.0
C823 C 0.63572 0.76484 0.23186 0.0
H824 H 0.63856 0.76577 0.05959 0.0
C825 C 0.63689 0.72633 0.24253 0.0
C826 C 0.63925 0.70168 0.18766 0.0
H827 H 0.63425 0.78292 0.27564 0.0
H828 H 0.63632 0.71592 0.29393 0.0
C829 C 0.63969 0.71657 0.12162 0.0
C830 C 0.76096 0.31147 0.9343 0.0
C831 C 0.7788 0.34489 0.95212 0.0
H832 H 0.71188 0.28506 0.89736 0.0
C833 C 0.75916 0.37861 0.94433 0.0
H834 H 0.77517 0.28496 0.9388 0.0
C835 C 0.72236 0.37868 0.91988 0.0
C836 C 0.70462 0.34503 0.90268 0.0
H837 H 0.77225 0.40492 0.95671 0.0
H838 H 0.70761 0.40492 0.91578 0.0
C839 C 0.72457 0.31156 0.90982 0.0
C840 C 0.88414 0.72025 0.66179 0.0
C841 C 0.85093 0.69961 0.65589 0.0
H842 H 0.90939 0.77223 0.69042 0.0
C843 C 0.81742 0.71597 0.67744 0.0
H844 H 0.91054 0.70828 0.64653 0.0
C845 C 0.81691 0.75203 0.70345 0.0
C846 C 0.84985 0.77295 0.70867 0.0
H847 H 0.79135 0.70089 0.67454 0.0
H848 H 0.79037 0.7637 0.71868 0.0
C849 C 0.88361 0.75664 0.68796 0.0
C850 C 0.76157 0.14717 0.48682 0.0
C851 C 0.77733 0.14701 0.42156 0.0
H852 H 0.71171 0.14616 0.54656 0.0
C853 C 0.75339 0.14636 0.36538 0.0
H854 H 0.77918 0.14734 0.53133 0.0
C855 C 0.71465 0.14616 0.37425 0.0
C856 C 0.69891 0.14593 0.43952 0.0
H857 H 0.76455 0.14616 0.31452 0.0
H858 H 0.69702 0.14562 0.32977 0.0
C859 C 0.72285 0.14632 0.49569 0.0
C860 C 0.097 0.25857 0.67562 0.0
C861 C 0.13146 0.275 0.65962 0.0
H862 H 0.06855 0.20986 0.71194 0.0
C863 C 0.16415 0.25403 0.66871 0.0
H864 H 0.07133 0.27416 0.67006 0.0
C865 C 0.16263 0.21774 0.6935 0.0
C866 C 0.12836 0.20119 0.70993 0.0
H867 H 0.19122 0.26576 0.65727 0.0
H868 H 0.18855 0.2026 0.69936 0.0
C869 C 0.09546 0.22195 0.70057 0.0
C870 C 0.26637 0.81001 0.40273 0.0
C871 C 0.28287 0.84064 0.43536 0.0
H872 H 0.2164 0.78589 0.36278 0.0
C873 C 0.26074 0.87184 0.45054 0.0
H874 H 0.28281 0.78568 0.39 0.0
C875 C 0.22286 0.87244 0.43281 0.0
C876 C 0.20633 0.8415 0.40106 0.0
H877 H 0.2729 0.89605 0.47467 0.0
H878 H 0.20632 0.8967 0.4455 0.0
C879 C 0.22844 0.81022 0.38669 0.0
C880 C 0.24898 0.08317 0.87097 0.0
C881 C 0.21034 0.08196 0.88168 0.0
H882 H 0.30339 0.08518 0.91505 0.0
C883 C 0.19743 0.08111 0.94923 0.0
H884 H 0.26003 0.08407 0.82014 0.0
C885 C 0.22232 0.08194 1.00414 0.0
C886 C 0.26093 0.08349 0.99341 0.0
H887 H 0.16789 0.08009 0.96009 0.0
H888 H 0.21127 0.08138 1.055 0.0
C889 C 0.27387 0.08382 0.92587 0.0
C890 C 0.07793 0.69916 0.18973 0.0
C891 C 0.07723 0.71456 0.12392 0.0
H892 H 0.08133 0.709 0.29682 0.0
C893 C 0.07867 0.75345 0.11761 0.0
H894 H 0.07741 0.66928 0.19681 0.0
C895 C 0.08041 0.77621 0.17531 0.0
C896 C 0.08139 0.76085 0.24124 0.0
H897 H 0.07825 0.76639 0.06812 0.0
H898 H 0.08114 0.80605 0.16787 0.0
C899 C 0.0802 0.72193 0.24745 0.0
C900 C 0.70354 0.9119 0.92414 0.0
C901 C 0.71502 0.89814 0.98801 0.0
H902 H 0.71694 0.9199 0.81896 0.0
C903 C 0.74996 0.88086 0.99243 0.0
H904 H 0.67669 0.92528 0.91828 0.0
C905 C 0.77272 0.87754 0.93508 0.0
C906 C 0.76141 0.89138 0.8712 0.0
H907 H 0.75977 0.86972 1.04014 0.0
H908 H 0.79942 0.86395 0.94118 0.0
C909 C 0.72641 0.90857 0.86663 0.0
C910 C 0.89708 0.27882 0.19264 0.0
C911 C 0.89958 0.26405 0.12645 0.0
H912 H 0.89519 0.26805 0.29956 0.0
C913 C 0.90286 0.22526 0.11953 0.0
H914 H 0.8945 0.30854 0.20059 0.0
C915 C 0.90373 0.20202 0.17676 0.0
C916 C 0.90091 0.21679 0.24284 0.0
H917 H 0.90457 0.21277 0.06985 0.0
H918 H 0.90603 0.17226 0.16896 0.0
C919 C 0.89748 0.25557 0.24986 0.0
C920 C 0.27999 0.41357 0.4447 0.0
C921 C 0.26762 0.40358 0.37914 0.0
H922 H 0.26713 0.41774 0.55077 0.0
C923 C 0.23123 0.38996 0.37219 0.0
H924 H 0.30794 0.42404 0.45249 0.0
C925 C 0.20807 0.38622 0.42886 0.0
C926 C 0.22042 0.39594 0.49454 0.0
H927 H 0.22064 0.38185 0.32304 0.0
H928 H 0.18028 0.37549 0.42083 0.0
C929 C 0.25672 0.40981 0.50152 0.0
C930 C 0.39483 0.70598 0.67342 0.0
C931 C 0.39539 0.72115 0.73948 0.0
H932 H 0.39676 0.71612 0.5664 0.0
C933 C 0.39851 0.75998 0.74611 0.0
H934 H 0.39252 0.67622 0.66566 0.0
C935 C 0.40104 0.78281 0.68852 0.0
C936 C 0.40036 0.76758 0.6226 0.0
H937 H 0.39903 0.7728 0.79569 0.0
H938 H 0.40305 0.81261 0.69579 0.0
C939 C 0.39715 0.72884 0.61598 0.0
C940 C 0.70479 0.57363 0.43341 0.0
C941 C 0.71717 0.57868 0.36619 0.0
H942 H 0.71909 0.57092 0.53884 0.0
C943 C 0.75538 0.58464 0.35556 0.0
H944 H 0.67555 0.56924 0.44408 0.0
C945 C 0.78038 0.5853 0.41037 0.0
C946 C 0.76796 0.58052 0.47767 0.0
H947 H 0.76606 0.5887 0.30489 0.0
H948 H 0.80957 0.58987 0.39978 0.0
C949 C 0.72974 0.57472 0.4882 0.0
C950 C 0.58154 0.25451 0.61621 0.0
C951 C 0.5799 0.21562 0.62246 0.0
H952 H 0.58382 0.30711 0.66654 0.0
C953 C 0.58023 0.2002 0.68826 0.0
H954 H 0.58142 0.26745 0.56671 0.0
C955 C 0.58225 0.22297 0.74604 0.0
C956 C 0.58342 0.26191 0.7399 0.0
H957 H 0.57953 0.17031 0.69528 0.0
H958 H 0.58303 0.21005 0.79542 0.0
C959 C 0.58294 0.27726 0.67395 0.0
C960 C 0.31083 0.07971 0.63618 0.0
C961 C 0.33211 0.08987 0.57955 0.0
H962 H 0.3097 0.07013 0.74273 0.0
C963 C 0.37035 0.09707 0.58852 0.0
H964 H 0.28125 0.07443 0.63131 0.0
C965 C 0.38679 0.0945 0.65262 0.0
C966 C 0.36542 0.08469 0.7095 0.0
H967 H 0.38774 0.10434 0.54578 0.0
H968 H 0.41636 0.09983 0.6574 0.0
C969 C 0.32723 0.07722 0.70022 0.0
C970 C 0.08062 0.61785 0.52156 0.0
C971 C 0.065 0.65359 0.5294 0.0
H972 H 0.09464 0.57339 0.45407 0.0
C973 C 0.05047 0.67153 0.47187 0.0
H974 H 0.09115 0.60263 0.56483 0.0
C975 C 0.05217 0.6545 0.40821 0.0
C976 C 0.06865 0.61915 0.40019 0.0
H977 H 0.03841 0.6991 0.47565 0.0
H978 H 0.04129 0.66948 0.36501 0.0
C979 C 0.08252 0.60094 0.4579 0.0
C980 C 0.61852 0.88102 0.58442 0.0
C981 C 0.65423 0.89646 0.57509 0.0
H982 H 0.57353 0.87019 0.65281 0.0
C983 C 0.67191 0.91304 0.63096 0.0
H984 H 0.60354 0.86879 0.54238 0.0
C985 C 0.65458 0.91398 0.69422 0.0
C986 C 0.619 0.89841 0.70371 0.0
H987 H 0.69941 0.92506 0.62624 0.0
H988 H 0.66941 0.92655 0.73598 0.0
C989 C 0.60118 0.88191 0.64786 0.0
C990 C 0.85764 0.35989 0.43753 0.0
C991 C 0.89025 0.35971 0.39821 0.0
H992 H 0.83159 0.34448 0.53071 0.0
C993 C 0.92212 0.34185 0.42412 0.0
H994 H 0.83272 0.37372 0.41947 0.0
C995 C 0.9214 0.3247 0.48776 0.0
C996 C 0.88884 0.32511 0.52741 0.0
H997 H 0.94752 0.3406 0.39467 0.0
H998 H 0.94631 0.31076 0.50558 0.0
C999 C 0.85697 0.34293 0.5013 0.0
C1000 C 0.38 0.38978 0.72035 0.0
C1001 C 0.36284 0.40611 0.66365 0.0
H1002 H 0.37708 0.37807 0.82624 0.0
C1003 C 0.32778 0.42306 0.67225 0.0
H1004 H 0.40729 0.37711 0.71619 0.0
C1005 C 0.31021 0.42334 0.73542 0.0
C1006 C 0.32725 0.40682 0.79206 0.0
H1007 H 0.31352 0.43572 0.6299 0.0
H1008 H 0.28303 0.43622 0.73953 0.0
C1009 C 0.36252 0.39021 0.78362 0.0
C1010 C 0.37046 0.67575 0.39305 0.0
C1011 C 0.38582 0.6577 0.33641 0.0
H1012 H 0.35933 0.67392 0.49913 0.0
C1013 C 0.40188 0.62222 0.34556 0.0
H1014 H 0.35819 0.70318 0.38844 0.0
C1015 C 0.40272 0.60543 0.4095 0.0
C1016 C 0.38735 0.62353 0.4661 0.0
H1017 H 0.41324 0.607 0.30302 0.0
H1018 H 0.41487 0.57794 0.41429 0.0
C1019 C 0.37114 0.65889 0.45683 0.0
C1020 C 0.61548 0.59258 0.77527 0.0
C1021 C 0.65271 0.58081 0.78247 0.0
H1022 H 0.5695 0.60185 0.7082 0.0
C1023 C 0.6722 0.56929 0.72455 0.0
H1024 H 0.59931 0.60087 0.81898 0.0
C1025 C 0.65498 0.56963 0.66115 0.0
C1026 C 0.61784 0.58158 0.65379 0.0
H1027 H 0.70096 0.56041 0.72798 0.0
H1028 H 0.67102 0.56099 0.61766 0.0
C1029 C 0.5983 0.59305 0.71173 0.0
C1030 C 0.56129 0.33919 0.43914 0.0
C1031 C 0.59281 0.35607 0.46839 0.0
H1032 H 0.53868 0.30926 0.35478 0.0
C1033 C 0.62653 0.35542 0.43219 0.0
H1034 H 0.53503 0.33853 0.46603 0.0
C1035 C 0.62863 0.33864 0.36835 0.0
C1036 C 0.59709 0.32193 0.33887 0.0
H1037 H 0.65125 0.36851 0.45269 0.0
H1038 H 0.65487 0.33951 0.34145 0.0
C1039 C 0.56341 0.32232 0.37531 0.0
C1040 C 0.84388 0.61996 0.09843 0.0
C1041 C 0.83613 0.58604 0.06566 0.0
H1042 H 0.86689 0.64718 0.18531 0.0
C1043 C 0.84631 0.55265 0.09823 0.0
H1044 H 0.83722 0.64626 0.07449 0.0
C1045 C 0.86365 0.55321 0.16177 0.0
C1046 C 0.87118 0.58716 0.19461 0.0
H1047 H 0.84041 0.52596 0.07508 0.0
H1048 H 0.87043 0.52696 0.18581 0.0
C1049 C 0.86109 0.62051 0.162 0.0
C1050 C 0.55869 0.15601 0.90656 0.0
C1051 C 0.5782 0.12237 0.89722 0.0
H1052 H 0.54263 0.19939 0.97475 0.0
C1053 C 0.59558 0.10592 0.95352 0.0
H1054 H 0.54506 0.16959 0.8644 0.0
C1055 C 0.59372 0.12276 1.01727 0.0
C1056 C 0.57477 0.15678 1.02648 0.0
H1057 H 0.6102 0.07967 0.9486 0.0
H1058 H 0.60676 0.10871 0.05956 0.0
C1059 C 0.55719 0.17309 0.97014 0.0
C1060 C 0.13134 0.35356 0.17661 0.0
C1061 C 0.1305 0.38758 0.21198 0.0
H1062 H 0.14771 0.32447 0.08679 0.0
C1063 C 0.14795 0.41871 0.18248 0.0
H1064 H 0.11792 0.32908 0.19726 0.0
C1065 C 0.16524 0.41602 0.1191 0.0
C1066 C 0.16557 0.38213 0.08325 0.0
H1067 H 0.1486 0.44518 0.20872 0.0
H1068 H 0.17854 0.44053 0.0983 0.0
C1069 C 0.14859 0.35088 0.11319 0.0
C1070 C 0.44397 0.84004 0.99781 0.0
C1071 C 0.41296 0.82114 1.02448 0.0
H1072 H 0.46612 0.8723 0.91602 0.0
C1073 C 0.38029 0.81908 0.98539 0.0
H1074 H 0.46944 0.84251 1.02689 0.0
C1075 C 0.37836 0.8362 0.92194 0.0
C1076 C 0.40902 0.8559 0.89588 0.0
H1077 H 0.35614 0.80417 1.00389 0.0
H1078 H 0.35282 0.83378 0.89306 0.0
C1079 C 0.44203 0.85722 0.93429 0.0
C1080 C 0.82044 0.91172 0.24755 0.0
C1081 C 0.81979 0.87745 0.28218 0.0
H1082 H 0.83706 0.94163 0.15878 0.0
C1083 C 0.83597 0.84622 0.25061 0.0
H1084 H 0.80766 0.93625 0.26945 0.0
C1085 C 0.85277 0.84931 0.18683 0.0
C1086 C 0.85402 0.88374 0.15286 0.0
H1087 H 0.83657 0.81949 0.27592 0.0
H1088 H 0.86554 0.82483 0.16477 0.0
C1089 C 0.83738 0.91484 0.18396 0.0
C1090 C 0.92015 0.15424 0.95637 0.0
C1091 C 0.89922 0.12154 0.96594 0.0
H1092 H 0.93768 0.19688 0.8879 0.0
C1093 C 0.88069 0.10598 0.91009 0.0
H1094 H 0.93464 0.16711 0.9983 0.0
C1095 C 0.88284 0.12279 0.84641 0.0
C1096 C 0.90327 0.15586 0.83697 0.0
H1097 H 0.86489 0.08045 0.91534 0.0
H1098 H 0.86884 0.10947 0.80436 0.0
C1099 C 0.92198 0.17129 0.89285 0.0
C1100 C 0.08593 0.085 0.22287 0.0
C1101 C 0.10726 0.09229 0.16468 0.0
H1102 H 0.08506 0.07975 0.33083 0.0
C1103 C 0.14559 0.09952 0.17276 0.0
H1104 H 0.05628 0.07991 0.21903 0.0
C1105 C 0.16208 0.09953 0.23693 0.0
C1106 C 0.14076 0.09215 0.29495 0.0
H1107 H 0.16313 0.10468 0.12934 0.0
H1108 H 0.19171 0.10476 0.24095 0.0
C1109 C 0.10246 0.0849 0.28711 0.0
C1110 C 0.0621 0.82298 0.8763 0.0
C1111 C 0.09576 0.8192 0.84046 0.0
H1112 H 0.03496 0.84219 0.96633 0.0
C1113 C 0.12864 0.83282 0.8704 0.0
H1114 H 0.03631 0.81234 0.85545 0.0
C1115 C 0.12786 0.84991 0.93408 0.0
C1116 C 0.09416 0.85399 0.9696 0.0
H1117 H 0.15499 0.83106 0.84398 0.0
H1118 H 0.15364 0.86055 0.95496 0.0
C1119 C 0.0613 0.84019 0.93993 0.0
loop_
_geom_bond_atom_site_label_1
_geom_bond_atom_site_label_2
_geom_bond_distance
_geom_bond_site_symmetry_2
_ccdc_geom_bond_type
Tb0 C10 2.825 . S
Tb0 O11 2.347 . S
Tb0 O14 2.366 . S
Tb0 O19 2.418 . S
Tb0 O20 2.384 . S
Tb0 O23 2.479 . S
Tb0 O24 2.471 . S
Eu1 O12 2.418 . S
Eu1 O13 2.384 . S
Eu1 O16 2.479 1_554 S
Eu1 O17 2.471 1_554 S
Eu1 O18 2.347 . S
Eu1 O21 2.366 . S
Eu1 C31 2.825 1_554 S
C2 O18 1.259 . S
C2 O19 1.265 . S
C3 O20 1.255 . S
C3 O21 1.265 . S
C4 C6 1.380 . S
C4 C7 1.374 . S
C4 C10 1.507 . S
C5 C6 1.384 . S
C5 C9 1.387 . S
C5 H32 0.930 . S
C6 C4 1.380 . S
C6 C5 1.384 . S
C6 H33 0.931 . S
C7 C4 1.374 . S
C7 C8 1.390 . S
C7 H34 0.930 . S
C8 C7 1.390 . S
C8 C9 1.391 . S
C8 H35 0.930 . S
C9 C5 1.387 . S
C9 C8 1.391 . S
C10 Tb0 2.825 . S
C10 C4 1.507 . S
C10 O23 1.238 . S
C10 O24 1.247 . S
O11 Tb0 2.347 . S
O11 C15 1.259 . S
O12 Eu1 2.418 . S
O12 C15 1.265 . S
O13 Eu1 2.384 . S
O13 C22 1.255 . S
O14 Tb0 2.366 . S
O14 C22 1.265 . S
C15 O11 1.259 . S
C15 O12 1.265 . S
O16 Eu1 2.479 1_556 S
O16 C31 1.238 . S
O17 Eu1 2.471 1_556 S
O17 C31 1.247 . S
O18 Eu1 2.347 . S
O18 C2 1.259 . S
O19 Tb0 2.418 . S
O19 C2 1.265 . S
O20 Tb0 2.384 . S
O20 C3 1.255 . S
O21 Eu1 2.366 . S
O21 C3 1.265 . S
C22 O13 1.255 . S
C22 O14 1.265 . S
O23 Tb0 2.479 . S
O23 C10 1.238 . S
O24 Tb0 2.471 . S
O24 C10 1.247 . S
C25 C28 1.380 . S
C25 C29 1.374 . S
C25 C31 1.507 . S
C26 C27 1.387 . S
C26 C30 1.391 . S
C27 C26 1.387 . S
C27 C28 1.384 . S
C27 H36 0.930 . S
C28 C25 1.380 . S
C28 C27 1.384 . S
C28 H37 0.931 . S
C29 C25 1.374 . S
C29 C30 1.390 . S
C29 H38 0.930 . S
C30 C26 1.391 . S
C30 C29 1.390 . S
C30 H39 0.930 . S
C31 Eu1 2.825 1_556 S
C31 O16 1.238 . S
C31 O17 1.247 . S
C31 C25 1.507 . S
H32 C5 0.930 . S
H33 C6 0.931 . S
H34 C7 0.930 . S
H35 C8 0.930 . S
H36 C27 0.930 . S
H37 C28 0.931 . S
H38 C29 0.930 . S
H39 C30 0.930 . S
Tb40 C50 2.825 1_556 S
Tb40 O51 2.347 . S
Tb40 O54 2.366 . S
Tb40 O59 2.418 . S
Tb40 O60 2.384 . S
Tb40 O63 2.479 1_556 S
Tb40 O64 2.471 1_556 S
Eu41 O52 2.418 . S
Eu41 O53 2.384 . S
Eu41 O56 2.479 . S
Eu41 O57 2.471 . S
Eu41 O58 2.347 . S
Eu41 O61 2.366 . S
Eu41 C71 2.825 . S
C42 O58 1.259 . S
C42 O59 1.265 . S
C43 O60 1.255 . S
C43 O61 1.265 . S
C44 C46 1.380 . S
C44 C47 1.374 . S
C44 C50 1.507 . S
C45 C46 1.384 . S
C45 C49 1.387 . S
C45 H72 0.930 . S
C46 C44 1.380 . S
C46 C45 1.384 . S
C46 H73 0.931 . S
C47 C44 1.374 . S
C47 C48 1.390 . S
C47 H74 0.930 . S
C48 C47 1.390 . S
C48 C49 1.391 . S
C48 H75 0.930 . S
C49 C45 1.387 . S
C49 C48 1.391 . S
C50 Tb40 2.825 1_554 S
C50 C44 1.507 . S
C50 O63 1.238 . S
C50 O64 1.247 . S
O51 Tb40 2.347 . S
O51 C55 1.259 . S
O52 Eu41 2.418 . S
O52 C55 1.265 . S
O53 Eu41 2.384 . S
O53 C62 1.255 . S
O54 Tb40 2.366 . S
O54 C62 1.265 . S
C55 O51 1.259 . S
C55 O52 1.265 . S
O56 Eu41 2.479 . S
O56 C71 1.238 . S
O57 Eu41 2.471 . S
O57 C71 1.247 . S
O58 Eu41 2.347 . S
O58 C42 1.259 . S
O59 Tb40 2.418 . S
O59 C42 1.265 . S
O60 Tb40 2.384 . S
O60 C43 1.255 . S
O61 Eu41 2.366 . S
O61 C43 1.265 . S
C62 O53 1.255 . S
C62 O54 1.265 . S
O63 Tb40 2.479 1_554 S
O63 C50 1.238 . S
O64 Tb40 2.471 1_554 S
O64 C50 1.247 . S
C65 C68 1.380 . S
C65 C69 1.374 . S
C65 C71 1.507 . S
C66 C67 1.387 . S
C66 C70 1.391 . S
C67 C66 1.387 . S
C67 C68 1.384 . S
C67 H76 0.930 . S
C68 C65 1.380 . S
C68 C67 1.384 . S
C68 H77 0.931 . S
C69 C65 1.374 . S
C69 C70 1.390 . S
C69 H78 0.930 . S
C70 C66 1.391 . S
C70 C69 1.390 . S
C70 H79 0.930 . S
C71 Eu41 2.825 . S
C71 O56 1.238 . S
C71 O57 1.247 . S
C71 C65 1.507 . S
H72 C45 0.930 . S
H73 C46 0.931 . S
H74 C47 0.930 . S
H75 C48 0.930 . S
H76 C67 0.930 . S
H77 C68 0.931 . S
H78 C69 0.930 . S
H79 C70 0.930 . S
Tb80 C90 2.825 . S
Tb80 O91 2.347 . S
Tb80 O94 2.366 . S
Tb80 O99 2.418 . S
Tb80 O100 2.384 . S
Tb80 O103 2.479 . S
Tb80 O104 2.471 . S
Eu81 O92 2.418 . S
Eu81 O93 2.384 . S
Eu81 O96 2.479 1_554 S
Eu81 O97 2.471 1_554 S
Eu81 O98 2.347 . S
Eu81 O101 2.366 . S
Eu81 C111 2.825 1_554 S
C82 O98 1.259 . S
C82 O99 1.265 . S
C83 O100 1.255 . S
C83 O101 1.265 . S
C84 C86 1.380 . S
C84 C87 1.374 . S
C84 C90 1.507 . S
C85 C86 1.384 . S
C85 C89 1.387 . S
C85 H112 0.930 . S
C86 C84 1.380 . S
C86 C85 1.384 . S
C86 H113 0.931 . S
C87 C84 1.374 . S
C87 C88 1.390 . S
C87 H114 0.930 . S
C88 C87 1.390 . S
C88 C89 1.391 . S
C88 H115 0.930 . S
C89 C85 1.387 . S
C89 C88 1.391 . S
C90 Tb80 2.825 . S
C90 C84 1.507 . S
C90 O103 1.238 . S
C90 O104 1.247 . S
O91 Tb80 2.347 . S
O91 C95 1.259 . S
O92 Eu81 2.418 . S
O92 C95 1.265 . S
O93 Eu81 2.384 . S
O93 C102 1.255 . S
O94 Tb80 2.366 . S
O94 C102 1.265 . S
C95 O91 1.259 . S
C95 O92 1.265 . S
O96 Eu81 2.479 1_556 S
O96 C111 1.238 . S
O97 Eu81 2.471 1_556 S
O97 C111 1.247 . S
O98 Eu81 2.347 . S
O98 C82 1.259 . S
O99 Tb80 2.418 . S
O99 C82 1.265 . S
O100 Tb80 2.384 . S
O100 C83 1.255 . S
O101 Eu81 2.366 . S
O101 C83 1.265 . S
C102 O93 1.255 . S
C102 O94 1.265 . S
O103 Tb80 2.479 . S
O103 C90 1.238 . S
O104 Tb80 2.471 . S
O104 C90 1.247 . S
C105 C108 1.380 . S
C105 C109 1.374 . S
C105 C111 1.507 . S
C106 C107 1.387 . S
C106 C110 1.391 . S
C107 C106 1.387 . S
C107 C108 1.384 . S
C107 H116 0.930 . S
C108 C105 1.380 . S
C108 C107 1.384 . S
C108 H117 0.931 . S
C109 C105 1.374 . S
C109 C110 1.390 . S
C109 H118 0.930 . S
C110 C106 1.391 . S
C110 C109 1.390 . S
C110 H119 0.930 . S
C111 Eu81 2.825 1_556 S
C111 O96 1.238 . S
C111 O97 1.247 . S
C111 C105 1.507 . S
H112 C85 0.930 . S
H113 C86 0.931 . S
H114 C87 0.930 . S
H115 C88 0.930 . S
H116 C107 0.930 . S
H117 C108 0.931 . S
H118 C109 0.930 . S
H119 C110 0.930 . S
Tb120 C130 2.825 1_556 S
Tb120 O131 2.347 . S
Tb120 O134 2.366 . S
Tb120 O139 2.418 . S
Tb120 O140 2.384 . S
Tb120 O143 2.479 1_556 S
Tb120 O144 2.471 1_556 S
Eu121 O132 2.418 . S
Eu121 O133 2.384 . S
Eu121 O136 2.479 . S
Eu121 O137 2.471 . S
Eu121 O138 2.347 . S
Eu121 O141 2.366 . S
Eu121 C151 2.825 . S
C122 O138 1.259 . S
C122 O139 1.265 . S
C123 O140 1.255 . S
C123 O141 1.265 . S
C124 C126 1.380 . S
C124 C127 1.374 . S
C124 C130 1.507 . S
C125 C126 1.384 . S
C125 C129 1.387 . S
C125 H152 0.930 . S
C126 C124 1.380 . S
C126 C125 1.384 . S
C126 H153 0.931 . S
C127 C124 1.374 . S
C127 C128 1.390 . S
C127 H154 0.930 . S
C128 C127 1.390 . S
C128 C129 1.391 . S
C128 H155 0.930 . S
C129 C125 1.387 . S
C129 C128 1.391 . S
C130 Tb120 2.825 1_554 S
C130 C124 1.507 . S
C130 O143 1.238 . S
C130 O144 1.247 . S
O131 Tb120 2.347 . S
O131 C135 1.259 . S
O132 Eu121 2.418 . S
O132 C135 1.265 . S
O133 Eu121 2.384 . S
O133 C142 1.255 . S
O134 Tb120 2.366 . S
O134 C142 1.265 . S
C135 O131 1.259 . S
C135 O132 1.265 . S
O136 Eu121 2.479 . S
O136 C151 1.238 . S
O137 Eu121 2.471 . S
O137 C151 1.247 . S
O138 Eu121 2.347 . S
O138 C122 1.259 . S
O139 Tb120 2.418 . S
O139 C122 1.265 . S
O140 Tb120 2.384 . S
O140 C123 1.255 . S
O141 Eu121 2.366 . S
O141 C123 1.265 . S
C142 O133 1.255 . S
C142 O134 1.265 . S
O143 Tb120 2.479 1_554 S
O143 C130 1.238 . S
O144 Tb120 2.471 1_554 S
O144 C130 1.247 . S
C145 C148 1.380 . S
C145 C149 1.374 . S
C145 C151 1.507 . S
C146 C147 1.387 . S
C146 C150 1.391 . S
C147 C146 1.387 . S
C147 C148 1.384 . S
C147 H156 0.930 . S
C148 C145 1.380 . S
C148 C147 1.384 . S
C148 H157 0.931 . S
C149 C145 1.374 . S
C149 C150 1.390 . S
C149 H158 0.930 . S
C150 C146 1.391 . S
C150 C149 1.390 . S
C150 H159 0.930 . S
C151 Eu121 2.825 . S
C151 O136 1.238 . S
C151 O137 1.247 . S
C151 C145 1.507 . S
H152 C125 0.930 . S
H153 C126 0.931 . S
H154 C127 0.930 . S
H155 C128 0.930 . S
H156 C147 0.930 . S
H157 C148 0.931 . S
H158 C149 0.930 . S
H159 C150 0.930 . S
Tb160 C170 2.825 1_554 S
Tb160 O171 2.347 . S
Tb160 O174 2.366 . S
Tb160 O179 2.418 . S
Tb160 O180 2.384 . S
Tb160 O183 2.479 1_554 S
Tb160 O184 2.471 1_554 S
Eu161 O172 2.418 . S
Eu161 O173 2.384 . S
Eu161 O176 2.479 . S
Eu161 O177 2.471 . S
Eu161 O178 2.347 . S
Eu161 O181 2.366 . S
Eu161 C191 2.825 . S
C162 O178 1.259 . S
C162 O179 1.265 . S
C163 O180 1.255 . S
C163 O181 1.265 . S
C164 C166 1.380 . S
C164 C167 1.374 . S
C164 C170 1.507 . S
C165 C166 1.384 . S
C165 C169 1.387 . S
C165 H192 0.930 . S
C166 C164 1.380 . S
C166 C165 1.384 . S
C166 H193 0.931 . S
C167 C164 1.374 . S
C167 C168 1.390 . S
C167 H194 0.930 . S
C168 C167 1.390 . S
C168 C169 1.391 . S
C168 H195 0.930 . S
C169 C165 1.387 . S
C169 C168 1.391 . S
C170 Tb160 2.825 1_556 S
C170 C164 1.507 . S
C170 O183 1.238 . S
C170 O184 1.247 . S
O171 Tb160 2.347 . S
O171 C175 1.259 . S
O172 Eu161 2.418 . S
O172 C175 1.265 . S
O173 Eu161 2.384 . S
O173 C182 1.255 . S
O174 Tb160 2.366 . S
O174 C182 1.265 . S
C175 O171 1.259 . S
C175 O172 1.265 . S
O176 Eu161 2.479 . S
O176 C191 1.238 . S
O177 Eu161 2.471 . S
O177 C191 1.247 . S
O178 Eu161 2.347 . S
O178 C162 1.259 . S
O179 Tb160 2.418 . S
O179 C162 1.265 . S
O180 Tb160 2.384 . S
O180 C163 1.255 . S
O181 Eu161 2.366 . S
O181 C163 1.265 . S
C182 O173 1.255 . S
C182 O174 1.265 . S
O183 Tb160 2.479 1_556 S
O183 C170 1.238 . S
O184 Tb160 2.471 1_556 S
O184 C170 1.247 . S
C185 C188 1.380 . S
C185 C189 1.374 . S
C185 C191 1.507 . S
C186 C187 1.387 . S
C186 C190 1.391 . S
C187 C186 1.387 . S
C187 C188 1.384 . S
C187 H196 0.930 . S
C188 C185 1.380 . S
C188 C187 1.384 . S
C188 H197 0.931 . S
C189 C185 1.374 . S
C189 C190 1.390 . S
C189 H198 0.930 . S
C190 C186 1.391 . S
C190 C189 1.390 . S
C190 H199 0.930 . S
C191 Eu161 2.825 . S
C191 O176 1.238 . S
C191 O177 1.247 . S
C191 C185 1.507 . S
H192 C165 0.930 . S
H193 C166 0.931 . S
H194 C167 0.930 . S
H195 C168 0.930 . S
H196 C187 0.930 . S
H197 C188 0.931 . S
H198 C189 0.930 . S
H199 C190 0.930 . S
Tb200 C210 2.825 . S
Tb200 O211 2.347 . S
Tb200 O214 2.366 . S
Tb200 O219 2.418 . S
Tb200 O220 2.384 . S
Tb200 O223 2.479 . S
Tb200 O224 2.471 . S
Eu201 O212 2.418 . S
Eu201 O213 2.384 . S
Eu201 O216 2.479 1_556 S
Eu201 O217 2.471 1_556 S
Eu201 O218 2.347 . S
Eu201 O221 2.366 . S
Eu201 C231 2.825 1_556 S
C202 O218 1.259 . S
C202 O219 1.265 . S
C203 O220 1.255 . S
C203 O221 1.265 . S
C204 C206 1.380 . S
C204 C207 1.374 . S
C204 C210 1.507 . S
C205 C206 1.384 . S
C205 C209 1.387 . S
C205 H232 0.930 . S
C206 C204 1.380 . S
C206 C205 1.384 . S
C206 H233 0.931 . S
C207 C204 1.374 . S
C207 C208 1.390 . S
C207 H234 0.930 . S
C208 C207 1.390 . S
C208 C209 1.391 . S
C208 H235 0.930 . S
C209 C205 1.387 . S
C209 C208 1.391 . S
C210 Tb200 2.825 . S
C210 C204 1.507 . S
C210 O223 1.238 . S
C210 O224 1.247 . S
O211 Tb200 2.347 . S
O211 C215 1.259 . S
O212 Eu201 2.418 . S
O212 C215 1.265 . S
O213 Eu201 2.384 . S
O213 C222 1.255 . S
O214 Tb200 2.366 . S
O214 C222 1.265 . S
C215 O211 1.259 . S
C215 O212 1.265 . S
O216 Eu201 2.479 1_554 S
O216 C231 1.238 . S
O217 Eu201 2.471 1_554 S
O217 C231 1.247 . S
O218 Eu201 2.347 . S
O218 C202 1.259 . S
O219 Tb200 2.418 . S
O219 C202 1.265 . S
O220 Tb200 2.384 . S
O220 C203 1.255 . S
O221 Eu201 2.366 . S
O221 C203 1.265 . S
C222 O213 1.255 . S
C222 O214 1.265 . S
O223 Tb200 2.479 . S
O223 C210 1.238 . S
O224 Tb200 2.471 . S
O224 C210 1.247 . S
C225 C228 1.380 . S
C225 C229 1.374 . S
C225 C231 1.507 . S
C226 C227 1.387 . S
C226 C230 1.391 . S
C227 C226 1.387 . S
C227 C228 1.384 . S
C227 H236 0.930 . S
C228 C225 1.380 . S
C228 C227 1.384 . S
C228 H237 0.931 . S
C229 C225 1.374 . S
C229 C230 1.390 . S
C229 H238 0.930 . S
C230 C226 1.391 . S
C230 C229 1.390 . S
C230 H239 0.930 . S
C231 Eu201 2.825 1_554 S
C231 O216 1.238 . S
C231 O217 1.247 . S
C231 C225 1.507 . S
H232 C205 0.930 . S
H233 C206 0.931 . S
H234 C207 0.930 . S
H235 C208 0.930 . S
H236 C227 0.930 . S
H237 C228 0.931 . S
H238 C229 0.930 . S
H239 C230 0.930 . S
Tb240 C250 2.825 1_554 S
Tb240 O251 2.347 . S
Tb240 O254 2.366 . S
Tb240 O259 2.418 . S
Tb240 O260 2.384 . S
Tb240 O263 2.479 1_554 S
Tb240 O264 2.471 1_554 S
Eu241 O252 2.418 . S
Eu241 O253 2.384 . S
Eu241 O256 2.479 . S
Eu241 O257 2.471 . S
Eu241 O258 2.347 . S
Eu241 O261 2.366 . S
Eu241 C271 2.825 . S
C242 O258 1.259 . S
C242 O259 1.265 . S
C243 O260 1.255 . S
C243 O261 1.265 . S
C244 C246 1.380 . S
C244 C247 1.374 . S
C244 C250 1.507 . S
C245 C246 1.384 . S
C245 C249 1.387 . S
C245 H272 0.930 . S
C246 C244 1.380 . S
C246 C245 1.384 . S
C246 H273 0.931 . S
C247 C244 1.374 . S
C247 C248 1.390 . S
C247 H274 0.930 . S
C248 C247 1.390 . S
C248 C249 1.391 . S
C248 H275 0.930 . S
C249 C245 1.387 . S
C249 C248 1.391 . S
C250 Tb240 2.825 1_556 S
C250 C244 1.507 . S
C250 O263 1.238 . S
C250 O264 1.247 . S
O251 Tb240 2.347 . S
O251 C255 1.259 . S
O252 Eu241 2.418 . S
O252 C255 1.265 . S
O253 Eu241 2.384 . S
O253 C262 1.255 . S
O254 Tb240 2.366 . S
O254 C262 1.265 . S
C255 O251 1.259 . S
C255 O252 1.265 . S
O256 Eu241 2.479 . S
O256 C271 1.238 . S
O257 Eu241 2.471 . S
O257 C271 1.247 . S
O258 Eu241 2.347 . S
O258 C242 1.259 . S
O259 Tb240 2.418 . S
O259 C242 1.265 . S
O260 Tb240 2.384 . S
O260 C243 1.255 . S
O261 Eu241 2.366 . S
O261 C243 1.265 . S
C262 O253 1.255 . S
C262 O254 1.265 . S
O263 Tb240 2.479 1_556 S
O263 C250 1.238 . S
O264 Tb240 2.471 1_556 S
O264 C250 1.247 . S
C265 C268 1.380 . S
C265 C269 1.374 . S
C265 C271 1.507 . S
C266 C267 1.387 . S
C266 C270 1.391 . S
C267 C266 1.387 . S
C267 C268 1.384 . S
C267 H276 0.930 . S
C268 C265 1.380 . S
C268 C267 1.384 . S
C268 H277 0.931 . S
C269 C265 1.374 . S
C269 C270 1.390 . S
C269 H278 0.930 . S
C270 C266 1.391 . S
C270 C269 1.390 . S
C270 H279 0.930 . S
C271 Eu241 2.825 . S
C271 O256 1.238 . S
C271 O257 1.247 . S
C271 C265 1.507 . S
H272 C245 0.930 . S
H273 C246 0.931 . S
H274 C247 0.930 . S
H275 C248 0.930 . S
H276 C267 0.930 . S
H277 C268 0.931 . S
H278 C269 0.930 . S
H279 C270 0.930 . S
Tb280 C290 2.825 . S
Tb280 O291 2.347 . S
Tb280 O294 2.366 . S
Tb280 O299 2.418 . S
Tb280 O300 2.384 . S
Tb280 O303 2.479 . S
Tb280 O304 2.471 . S
Eu281 O292 2.418 . S
Eu281 O293 2.384 . S
Eu281 O296 2.479 1_556 S
Eu281 O297 2.471 1_556 S
Eu281 O298 2.347 . S
Eu281 O301 2.366 . S
Eu281 C311 2.825 1_556 S
C282 O298 1.259 . S
C282 O299 1.265 . S
C283 O300 1.255 . S
C283 O301 1.265 . S
C284 C286 1.380 . S
C284 C287 1.374 . S
C284 C290 1.507 . S
C285 C286 1.384 . S
C285 C289 1.387 . S
C285 H312 0.930 . S
C286 C284 1.380 . S
C286 C285 1.384 . S
C286 H313 0.931 . S
C287 C284 1.374 . S
C287 C288 1.390 . S
C287 H314 0.930 . S
C288 C287 1.390 . S
C288 C289 1.391 . S
C288 H315 0.930 . S
C289 C285 1.387 . S
C289 C288 1.391 . S
C290 Tb280 2.825 . S
C290 C284 1.507 . S
C290 O303 1.238 . S
C290 O304 1.247 . S
O291 Tb280 2.347 . S
O291 C295 1.259 . S
O292 Eu281 2.418 . S
O292 C295 1.265 . S
O293 Eu281 2.384 . S
O293 C302 1.255 . S
O294 Tb280 2.366 . S
O294 C302 1.265 . S
C295 O291 1.259 . S
C295 O292 1.265 . S
O296 Eu281 2.479 1_554 S
O296 C311 1.238 . S
O297 Eu281 2.471 1_554 S
O297 C311 1.247 . S
O298 Eu281 2.347 . S
O298 C282 1.259 . S
O299 Tb280 2.418 . S
O299 C282 1.265 . S
O300 Tb280 2.384 . S
O300 C283 1.255 . S
O301 Eu281 2.366 . S
O301 C283 1.265 . S
C302 O293 1.255 . S
C302 O294 1.265 . S
O303 Tb280 2.479 . S
O303 C290 1.238 . S
O304 Tb280 2.471 . S
O304 C290 1.247 . S
C305 C308 1.380 . S
C305 C309 1.374 . S
C305 C311 1.507 . S
C306 C307 1.387 . S
C306 C310 1.391 . S
C307 C306 1.387 . S
C307 C308 1.384 . S
C307 H316 0.930 . S
C308 C305 1.380 . S
C308 C307 1.384 . S
C308 H317 0.931 . S
C309 C305 1.374 . S
C309 C310 1.390 . S
C309 H318 0.930 . S
C310 C306 1.391 . S
C310 C309 1.390 . S
C310 H319 0.930 . S
C311 Eu281 2.825 1_554 S
C311 O296 1.238 . S
C311 O297 1.247 . S
C311 C305 1.507 . S
H312 C285 0.930 . S
H313 C286 0.931 . S
H314 C287 0.930 . S
H315 C288 0.930 . S
H316 C307 0.930 . S
H317 C308 0.931 . S
H318 C309 0.930 . S
H319 C310 0.930 . S
Tb320 C330 2.825 . S
Tb320 O331 2.347 . S
Tb320 O334 2.366 . S
Tb320 O339 2.418 . S
Tb320 O340 2.384 . S
Tb320 O343 2.479 . S
Tb320 O344 2.471 . S
Eu321 O332 2.418 . S
Eu321 O333 2.384 . S
Eu321 O336 2.479 . S
Eu321 O337 2.471 . S
Eu321 O338 2.347 . S
Eu321 O341 2.366 . S
Eu321 C351 2.825 . S
C322 O338 1.259 . S
C322 O339 1.265 . S
C323 O340 1.255 . S
C323 O341 1.265 . S
C324 C326 1.380 . S
C324 C327 1.374 . S
C324 C330 1.507 . S
C325 C326 1.384 . S
C325 C329 1.387 1_556 S
C325 H352 0.930 1_556 S
C326 C324 1.380 . S
C326 C325 1.384 . S
C326 H353 0.931 . S
C327 C324 1.374 . S
C327 C328 1.390 . S
C327 H354 0.930 . S
C328 C327 1.390 . S
C328 C329 1.391 1_556 S
C328 H355 0.930 1_556 S
C329 C325 1.387 1_554 S
C329 C328 1.391 1_554 S
C330 Tb320 2.825 . S
C330 C324 1.507 . S
C330 O343 1.238 . S
C330 O344 1.247 . S
O331 Tb320 2.347 . S
O331 C335 1.259 . S
O332 Eu321 2.418 . S
O332 C335 1.265 . S
O333 Eu321 2.384 . S
O333 C342 1.255 . S
O334 Tb320 2.366 . S
O334 C342 1.265 . S
C335 O331 1.259 . S
C335 O332 1.265 . S
O336 Eu321 2.479 . S
O336 C351 1.238 . S
O337 Eu321 2.471 . S
O337 C351 1.247 . S
O338 Eu321 2.347 . S
O338 C322 1.259 . S
O339 Tb320 2.418 . S
O339 C322 1.265 . S
O340 Tb320 2.384 . S
O340 C323 1.255 . S
O341 Eu321 2.366 . S
O341 C323 1.265 . S
C342 O333 1.255 . S
C342 O334 1.265 . S
O343 Tb320 2.479 . S
O343 C330 1.238 . S
O344 Tb320 2.471 . S
O344 C330 1.247 . S
C345 C348 1.380 . S
C345 C349 1.374 . S
C345 C351 1.507 . S
C346 C347 1.387 . S
C346 C350 1.391 . S
C347 C346 1.387 . S
C347 C348 1.384 . S
C347 H356 0.930 . S
C348 C345 1.380 . S
C348 C347 1.384 . S
C348 H357 0.931 . S
C349 C345 1.374 . S
C349 C350 1.390 . S
C349 H358 0.930 . S
C350 C346 1.391 . S
C350 C349 1.390 . S
C350 H359 0.930 . S
C351 Eu321 2.825 . S
C351 O336 1.238 . S
C351 O337 1.247 . S
C351 C345 1.507 . S
H352 C325 0.930 1_554 S
H353 C326 0.931 . S
H354 C327 0.930 . S
H355 C328 0.930 1_554 S
H356 C347 0.930 . S
H357 C348 0.931 . S
H358 C349 0.930 . S
H359 C350 0.930 . S
Tb360 C370 2.825 . S
Tb360 O371 2.347 . S
Tb360 O374 2.366 . S
Tb360 O379 2.418 . S
Tb360 O380 2.384 . S
Tb360 O383 2.479 . S
Tb360 O384 2.471 . S
Eu361 O372 2.418 . S
Eu361 O373 2.384 . S
Eu361 O376 2.479 . S
Eu361 O377 2.471 . S
Eu361 O378 2.347 . S
Eu361 O381 2.366 . S
Eu361 C391 2.825 . S
C362 O378 1.259 . S
C362 O379 1.265 . S
C363 O380 1.255 . S
C363 O381 1.265 . S
C364 C366 1.380 . S
C364 C367 1.374 . S
C364 C370 1.507 . S
C365 C366 1.384 . S
C365 C369 1.387 . S
C365 H392 0.930 . S
C366 C364 1.380 . S
C366 C365 1.384 . S
C366 H393 0.931 . S
C367 C364 1.374 . S
C367 C368 1.390 . S
C367 H394 0.930 . S
C368 C367 1.390 . S
C368 C369 1.391 . S
C368 H395 0.930 . S
C369 C365 1.387 . S
C369 C368 1.391 . S
C370 Tb360 2.825 . S
C370 C364 1.507 . S
C370 O383 1.238 . S
C370 O384 1.247 . S
O371 Tb360 2.347 . S
O371 C375 1.259 . S
O372 Eu361 2.418 . S
O372 C375 1.265 . S
O373 Eu361 2.384 . S
O373 C382 1.255 . S
O374 Tb360 2.366 . S
O374 C382 1.265 . S
C375 O371 1.259 . S
C375 O372 1.265 . S
O376 Eu361 2.479 . S
O376 C391 1.238 . S
O377 Eu361 2.471 . S
O377 C391 1.247 . S
O378 Eu361 2.347 . S
O378 C362 1.259 . S
O379 Tb360 2.418 . S
O379 C362 1.265 . S
O380 Tb360 2.384 . S
O380 C363 1.255 . S
O381 Eu361 2.366 . S
O381 C363 1.265 . S
C382 O373 1.255 . S
C382 O374 1.265 . S
O383 Tb360 2.479 . S
O383 C370 1.238 . S
O384 Tb360 2.471 . S
O384 C370 1.247 . S
C385 C388 1.380 . S
C385 C389 1.374 . S
C385 C391 1.507 . S
C386 C387 1.387 1_556 S
C386 C390 1.391 1_556 S
C387 C386 1.387 1_554 S
C387 C388 1.384 . S
C387 H396 0.930 1_554 S
C388 C385 1.380 . S
C388 C387 1.384 . S
C388 H397 0.931 . S
C389 C385 1.374 . S
C389 C390 1.390 . S
C389 H398 0.930 . S
C390 C386 1.391 1_554 S
C390 C389 1.390 . S
C390 H399 0.930 1_554 S
C391 Eu361 2.825 . S
C391 O376 1.238 . S
C391 O377 1.247 . S
C391 C385 1.507 . S
H392 C365 0.930 . S
H393 C366 0.931 . S
H394 C367 0.930 . S
H395 C368 0.930 . S
H396 C387 0.930 1_556 S
H397 C388 0.931 . S
H398 C389 0.930 . S
H399 C390 0.930 1_556 S
Tb400 C410 2.825 . S
Tb400 O411 2.347 . S
Tb400 O414 2.366 . S
Tb400 O419 2.418 . S
Tb400 O420 2.384 . S
Tb400 O423 2.479 . S
Tb400 O424 2.471 . S
Eu401 O412 2.418 . S
Eu401 O413 2.384 . S
Eu401 O416 2.479 . S
Eu401 O417 2.471 . S
Eu401 O418 2.347 . S
Eu401 O421 2.366 . S
Eu401 C431 2.825 . S
C402 O418 1.259 . S
C402 O419 1.265 . S
C403 O420 1.255 . S
C403 O421 1.265 . S
C404 C406 1.380 . S
C404 C407 1.374 . S
C404 C410 1.507 . S
C405 C406 1.384 . S
C405 C409 1.387 1_556 S
C405 H432 0.930 1_556 S
C406 C404 1.380 . S
C406 C405 1.384 . S
C406 H433 0.931 . S
C407 C404 1.374 . S
C407 C408 1.390 . S
C407 H434 0.930 . S
C408 C407 1.390 . S
C408 C409 1.391 1_556 S
C408 H435 0.930 1_556 S
C409 C405 1.387 1_554 S
C409 C408 1.391 1_554 S
C410 Tb400 2.825 . S
C410 C404 1.507 . S
C410 O423 1.238 . S
C410 O424 1.247 . S
O411 Tb400 2.347 . S
O411 C415 1.259 . S
O412 Eu401 2.418 . S
O412 C415 1.265 . S
O413 Eu401 2.384 . S
O413 C422 1.255 . S
O414 Tb400 2.366 . S
O414 C422 1.265 . S
C415 O411 1.259 . S
C415 O412 1.265 . S
O416 Eu401 2.479 . S
O416 C431 1.238 . S
O417 Eu401 2.471 . S
O417 C431 1.247 . S
O418 Eu401 2.347 . S
O418 C402 1.259 . S
O419 Tb400 2.418 . S
O419 C402 1.265 . S
O420 Tb400 2.384 . S
O420 C403 1.255 . S
O421 Eu401 2.366 . S
O421 C403 1.265 . S
C422 O413 1.255 . S
C422 O414 1.265 . S
O423 Tb400 2.479 . S
O423 C410 1.238 . S
O424 Tb400 2.471 . S
O424 C410 1.247 . S
C425 C428 1.380 . S
C425 C429 1.374 . S
C425 C431 1.507 . S
C426 C427 1.387 . S
C426 C430 1.391 . S
C427 C426 1.387 . S
C427 C428 1.384 . S
C427 H436 0.930 . S
C428 C425 1.380 . S
C428 C427 1.384 . S
C428 H437 0.931 . S
C429 C425 1.374 . S
C429 C430 1.390 . S
C429 H438 0.930 . S
C430 C426 1.391 . S
C430 C429 1.390 . S
C430 H439 0.930 . S
C431 Eu401 2.825 . S
C431 O416 1.238 . S
C431 O417 1.247 . S
C431 C425 1.507 . S
H432 C405 0.930 1_554 S
H433 C406 0.931 . S
H434 C407 0.930 . S
H435 C408 0.930 1_554 S
H436 C427 0.930 . S
H437 C428 0.931 . S
H438 C429 0.930 . S
H439 C430 0.930 . S
Tb440 C450 2.825 . S
Tb440 O451 2.347 . S
Tb440 O454 2.366 . S
Tb440 O459 2.418 . S
Tb440 O460 2.384 . S
Tb440 O463 2.479 . S
Tb440 O464 2.471 . S
Eu441 O452 2.418 . S
Eu441 O453 2.384 . S
Eu441 O456 2.479 . S
Eu441 O457 2.471 . S
Eu441 O458 2.347 . S
Eu441 O461 2.366 . S
Eu441 C471 2.825 . S
C442 O458 1.259 . S
C442 O459 1.265 . S
C443 O460 1.255 . S
C443 O461 1.265 . S
C444 C446 1.380 . S
C444 C447 1.374 . S
C444 C450 1.507 . S
C445 C446 1.384 . S
C445 C449 1.387 . S
C445 H472 0.930 . S
C446 C444 1.380 . S
C446 C445 1.384 . S
C446 H473 0.931 . S
C447 C444 1.374 . S
C447 C448 1.390 . S
C447 H474 0.930 . S
C448 C447 1.390 . S
C448 C449 1.391 . S
C448 H475 0.930 . S
C449 C445 1.387 . S
C449 C448 1.391 . S
C450 Tb440 2.825 . S
C450 C444 1.507 . S
C450 O463 1.238 . S
C450 O464 1.247 . S
O451 Tb440 2.347 . S
O451 C455 1.259 . S
O452 Eu441 2.418 . S
O452 C455 1.265 . S
O453 Eu441 2.384 . S
O453 C462 1.255 . S
O454 Tb440 2.366 . S
O454 C462 1.265 . S
C455 O451 1.259 . S
C455 O452 1.265 . S
O456 Eu441 2.479 . S
O456 C471 1.238 . S
O457 Eu441 2.471 . S
O457 C471 1.247 . S
O458 Eu441 2.347 . S
O458 C442 1.259 . S
O459 Tb440 2.418 . S
O459 C442 1.265 . S
O460 Tb440 2.384 . S
O460 C443 1.255 . S
O461 Eu441 2.366 . S
O461 C443 1.265 . S
C462 O453 1.255 . S
C462 O454 1.265 . S
O463 Tb440 2.479 . S
O463 C450 1.238 . S
O464 Tb440 2.471 . S
O464 C450 1.247 . S
C465 C468 1.380 . S
C465 C469 1.374 . S
C465 C471 1.507 . S
C466 C467 1.387 1_556 S
C466 C470 1.391 1_556 S
C467 C466 1.387 1_554 S
C467 C468 1.384 . S
C467 H476 0.930 1_554 S
C468 C465 1.380 . S
C468 C467 1.384 . S
C468 H477 0.931 . S
C469 C465 1.374 . S
C469 C470 1.390 . S
C469 H478 0.930 . S
C470 C466 1.391 1_554 S
C470 C469 1.390 . S
C470 H479 0.930 1_554 S
C471 Eu441 2.825 . S
C471 O456 1.238 . S
C471 O457 1.247 . S
C471 C465 1.507 . S
H472 C445 0.930 . S
H473 C446 0.931 . S
H474 C447 0.930 . S
H475 C448 0.930 . S
H476 C467 0.930 1_556 S
H477 C468 0.931 . S
H478 C469 0.930 . S
H479 C470 0.930 1_556 S
Tb480 C490 2.825 . S
Tb480 O491 2.347 . S
Tb480 O494 2.366 . S
Tb480 O499 2.418 . S
Tb480 O500 2.384 . S
Tb480 O503 2.479 . S
Tb480 O504 2.471 . S
Eu481 O492 2.418 . S
Eu481 O493 2.384 . S
Eu481 O496 2.479 . S
Eu481 O497 2.471 . S
Eu481 O498 2.347 . S
Eu481 O501 2.366 . S
Eu481 C511 2.825 . S
C482 O498 1.259 . S
C482 O499 1.265 . S
C483 O500 1.255 . S
C483 O501 1.265 . S
C484 C486 1.380 . S
C484 C487 1.374 . S
C484 C490 1.507 . S
C485 C486 1.384 . S
C485 C489 1.387 . S
C485 H512 0.930 . S
C486 C484 1.380 . S
C486 C485 1.384 . S
C486 H513 0.931 . S
C487 C484 1.374 . S
C487 C488 1.390 . S
C487 H514 0.930 . S
C488 C487 1.390 . S
C488 C489 1.391 . S
C488 H515 0.930 . S
C489 C485 1.387 . S
C489 C488 1.391 . S
C490 Tb480 2.825 . S
C490 C484 1.507 . S
C490 O503 1.238 . S
C490 O504 1.247 . S
O491 Tb480 2.347 . S
O491 C495 1.259 . S
O492 Eu481 2.418 . S
O492 C495 1.265 . S
O493 Eu481 2.384 . S
O493 C502 1.255 . S
O494 Tb480 2.366 . S
O494 C502 1.265 . S
C495 O491 1.259 . S
C495 O492 1.265 . S
O496 Eu481 2.479 . S
O496 C511 1.238 . S
O497 Eu481 2.471 . S
O497 C511 1.247 . S
O498 Eu481 2.347 . S
O498 C482 1.259 . S
O499 Tb480 2.418 . S
O499 C482 1.265 . S
O500 Tb480 2.384 . S
O500 C483 1.255 . S
O501 Eu481 2.366 . S
O501 C483 1.265 . S
C502 O493 1.255 . S
C502 O494 1.265 . S
O503 Tb480 2.479 . S
O503 C490 1.238 . S
O504 Tb480 2.471 . S
O504 C490 1.247 . S
C505 C508 1.380 . S
C505 C509 1.374 . S
C505 C511 1.507 . S
C506 C507 1.387 1_554 S
C506 C510 1.391 1_554 S
C507 C506 1.387 1_556 S
C507 C508 1.384 . S
C507 H516 0.930 1_556 S
C508 C505 1.380 . S
C508 C507 1.384 . S
C508 H517 0.931 . S
C509 C505 1.374 . S
C509 C510 1.390 . S
C509 H518 0.930 . S
C510 C506 1.391 1_556 S
C510 C509 1.390 . S
C510 H519 0.930 . S
C511 Eu481 2.825 . S
C511 O496 1.238 . S
C511 O497 1.247 . S
C511 C505 1.507 . S
H512 C485 0.930 . S
H513 C486 0.931 . S
H514 C487 0.930 . S
H515 C488 0.930 . S
H516 C507 0.930 1_554 S
H517 C508 0.931 . S
H518 C509 0.930 . S
H519 C510 0.930 . S
Tb520 C530 2.825 . S
Tb520 O531 2.347 . S
Tb520 O534 2.366 . S
Tb520 O539 2.418 . S
Tb520 O540 2.384 . S
Tb520 O543 2.479 . S
Tb520 O544 2.471 . S
Eu521 O532 2.418 . S
Eu521 O533 2.384 . S
Eu521 O536 2.479 . S
Eu521 O537 2.471 . S
Eu521 O538 2.347 . S
Eu521 O541 2.366 . S
Eu521 C551 2.825 . S
C522 O538 1.259 . S
C522 O539 1.265 . S
C523 O540 1.255 . S
C523 O541 1.265 . S
C524 C526 1.380 . S
C524 C527 1.374 . S
C524 C530 1.507 . S
C525 C526 1.384 . S
C525 C529 1.387 1_554 S
C525 H552 0.930 1_554 S
C526 C524 1.380 . S
C526 C525 1.384 . S
C526 H553 0.931 . S
C527 C524 1.374 . S
C527 C528 1.390 . S
C527 H554 0.930 . S
C528 C527 1.390 . S
C528 C529 1.391 1_554 S
C528 H555 0.930 . S
C529 C525 1.387 1_556 S
C529 C528 1.391 1_556 S
C530 Tb520 2.825 . S
C530 C524 1.507 . S
C530 O543 1.238 . S
C530 O544 1.247 . S
O531 Tb520 2.347 . S
O531 C535 1.259 . S
O532 Eu521 2.418 . S
O532 C535 1.265 . S
O533 Eu521 2.384 . S
O533 C542 1.255 . S
O534 Tb520 2.366 . S
O534 C542 1.265 . S
C535 O531 1.259 . S
C535 O532 1.265 . S
O536 Eu521 2.479 . S
O536 C551 1.238 . S
O537 Eu521 2.471 . S
O537 C551 1.247 . S
O538 Eu521 2.347 . S
O538 C522 1.259 . S
O539 Tb520 2.418 . S
O539 C522 1.265 . S
O540 Tb520 2.384 . S
O540 C523 1.255 . S
O541 Eu521 2.366 . S
O541 C523 1.265 . S
C542 O533 1.255 . S
C542 O534 1.265 . S
O543 Tb520 2.479 . S
O543 C530 1.238 . S
O544 Tb520 2.471 . S
O544 C530 1.247 . S
C545 C548 1.380 . S
C545 C549 1.374 . S
C545 C551 1.507 . S
C546 C547 1.387 . S
C546 C550 1.391 . S
C547 C546 1.387 . S
C547 C548 1.384 . S
C547 H556 0.930 . S
C548 C545 1.380 . S
C548 C547 1.384 . S
C548 H557 0.931 . S
C549 C545 1.374 . S
C549 C550 1.390 . S
C549 H558 0.930 . S
C550 C546 1.391 . S
C550 C549 1.390 . S
C550 H559 0.930 . S
C551 Eu521 2.825 . S
C551 O536 1.238 . S
C551 O537 1.247 . S
C551 C545 1.507 . S
H552 C525 0.930 1_556 S
H553 C526 0.931 . S
H554 C527 0.930 . S
H555 C528 0.930 . S
H556 C547 0.930 . S
H557 C548 0.931 . S
H558 C549 0.930 . S
H559 C550 0.930 . S
Tb560 C570 2.825 . S
Tb560 O571 2.347 . S
Tb560 O574 2.366 . S
Tb560 O579 2.418 . S
Tb560 O580 2.384 . S
Tb560 O583 2.479 . S
Tb560 O584 2.471 . S
Eu561 O572 2.418 . S
Eu561 O573 2.384 . S
Eu561 O576 2.479 . S
Eu561 O577 2.471 . S
Eu561 O578 2.347 . S
Eu561 O581 2.366 . S
Eu561 C591 2.825 . S
C562 O578 1.259 . S
C562 O579 1.265 . S
C563 O580 1.255 . S
C563 O581 1.265 . S
C564 C566 1.380 . S
C564 C567 1.374 . S
C564 C570 1.507 . S
C565 C566 1.384 . S
C565 C569 1.387 . S
C565 H592 0.930 . S
C566 C564 1.380 . S
C566 C565 1.384 . S
C566 H593 0.931 . S
C567 C564 1.374 . S
C567 C568 1.390 . S
C567 H594 0.930 . S
C568 C567 1.390 . S
C568 C569 1.391 . S
C568 H595 0.930 . S
C569 C565 1.387 . S
C569 C568 1.391 . S
C570 Tb560 2.825 . S
C570 C564 1.507 . S
C570 O583 1.238 . S
C570 O584 1.247 . S
O571 Tb560 2.347 . S
O571 C575 1.259 . S
O572 Eu561 2.418 . S
O572 C575 1.265 . S
O573 Eu561 2.384 . S
O573 C582 1.255 . S
O574 Tb560 2.366 . S
O574 C582 1.265 . S
C575 O571 1.259 . S
C575 O572 1.265 . S
O576 Eu561 2.479 . S
O576 C591 1.238 . S
O577 Eu561 2.471 . S
O577 C591 1.247 . S
O578 Eu561 2.347 . S
O578 C562 1.259 . S
O579 Tb560 2.418 . S
O579 C562 1.265 . S
O580 Tb560 2.384 . S
O580 C563 1.255 . S
O581 Eu561 2.366 . S
O581 C563 1.265 . S
C582 O573 1.255 . S
C582 O574 1.265 . S
O583 Tb560 2.479 . S
O583 C570 1.238 . S
O584 Tb560 2.471 . S
O584 C570 1.247 . S
C585 C588 1.380 . S
C585 C589 1.374 . S
C585 C591 1.507 . S
C586 C587 1.387 1_554 S
C586 C590 1.391 1_554 S
C587 C586 1.387 1_556 S
C587 C588 1.384 . S
C587 H596 0.930 1_556 S
C588 C585 1.380 . S
C588 C587 1.384 . S
C588 H597 0.931 . S
C589 C585 1.374 . S
C589 C590 1.390 . S
C589 H598 0.930 . S
C590 C586 1.391 1_556 S
C590 C589 1.390 . S
C590 H599 0.930 . S
C591 Eu561 2.825 . S
C591 O576 1.238 . S
C591 O577 1.247 . S
C591 C585 1.507 . S
H592 C565 0.930 . S
H593 C566 0.931 . S
H594 C567 0.930 . S
H595 C568 0.930 . S
H596 C587 0.930 1_554 S
H597 C588 0.931 . S
H598 C589 0.930 . S
H599 C590 0.930 . S
Tb600 C610 2.825 . S
Tb600 O611 2.347 . S
Tb600 O614 2.366 . S
Tb600 O619 2.418 . S
Tb600 O620 2.384 . S
Tb600 O623 2.479 . S
Tb600 O624 2.471 . S
Eu601 O612 2.418 . S
Eu601 O613 2.384 . S
Eu601 O616 2.479 . S
Eu601 O617 2.471 . S
Eu601 O618 2.347 . S
Eu601 O621 2.366 . S
Eu601 C631 2.825 . S
C602 O618 1.259 . S
C602 O619 1.265 . S
C603 O620 1.255 . S
C603 O621 1.265 . S
C604 C606 1.380 . S
C604 C607 1.374 . S
C604 C610 1.507 . S
C605 C606 1.384 . S
C605 C609 1.387 1_554 S
C605 H632 0.930 1_554 S
C606 C604 1.380 . S
C606 C605 1.384 . S
C606 H633 0.931 . S
C607 C604 1.374 . S
C607 C608 1.390 . S
C607 H634 0.930 . S
C608 C607 1.390 . S
C608 C609 1.391 1_554 S
C608 H635 0.930 . S
C609 C605 1.387 1_556 S
C609 C608 1.391 1_556 S
C610 Tb600 2.825 . S
C610 C604 1.507 . S
C610 O623 1.238 . S
C610 O624 1.247 . S
O611 Tb600 2.347 . S
O611 C615 1.259 . S
O612 Eu601 2.418 . S
O612 C615 1.265 . S
O613 Eu601 2.384 . S
O613 C622 1.255 . S
O614 Tb600 2.366 . S
O614 C622 1.265 . S
C615 O611 1.259 . S
C615 O612 1.265 . S
O616 Eu601 2.479 . S
O616 C631 1.238 . S
O617 Eu601 2.471 . S
O617 C631 1.247 . S
O618 Eu601 2.347 . S
O618 C602 1.259 . S
O619 Tb600 2.418 . S
O619 C602 1.265 . S
O620 Tb600 2.384 . S
O620 C603 1.255 . S
O621 Eu601 2.366 . S
O621 C603 1.265 . S
C622 O613 1.255 . S
C622 O614 1.265 . S
O623 Tb600 2.479 . S
O623 C610 1.238 . S
O624 Tb600 2.471 . S
O624 C610 1.247 . S
C625 C628 1.380 . S
C625 C629 1.374 . S
C625 C631 1.507 . S
C626 C627 1.387 . S
C626 C630 1.391 . S
C627 C626 1.387 . S
C627 C628 1.384 . S
C627 H636 0.930 . S
C628 C625 1.380 . S
C628 C627 1.384 . S
C628 H637 0.931 . S
C629 C625 1.374 . S
C629 C630 1.390 . S
C629 H638 0.930 . S
C630 C626 1.391 . S
C630 C629 1.390 . S
C630 H639 0.930 . S
C631 Eu601 2.825 . S
C631 O616 1.238 . S
C631 O617 1.247 . S
C631 C625 1.507 . S
H632 C605 0.930 1_556 S
H633 C606 0.931 . S
H634 C607 0.930 . S
H635 C608 0.930 . S
H636 C627 0.930 . S
H637 C628 0.931 . S
H638 C629 0.930 . S
H639 C630 0.930 . S
C640 C641 1.387 . S
C640 H644 0.950 . S
C640 C649 1.390 . S
C641 C640 1.387 . S
C641 C643 1.387 . S
H642 C649 0.950 . S
C643 C641 1.387 . S
C643 C645 1.390 . S
C643 H647 0.950 . S
H644 C640 0.950 . S
C645 C643 1.390 . S
C645 C646 1.387 . S
C645 H648 0.950 . S
C646 C645 1.387 . S
C646 C649 1.387 . S
H647 C643 0.950 . S
H648 C645 0.950 . S
C649 C640 1.390 . S
C649 H642 0.950 . S
C649 C646 1.387 . S
C650 C651 1.387 . S
C650 H654 0.950 . S
C650 C659 1.390 . S
C651 C650 1.387 . S
C651 C653 1.387 . S
H652 C659 0.950 . S
C653 C651 1.387 . S
C653 C655 1.390 . S
C653 H657 0.950 . S
H654 C650 0.950 . S
C655 C653 1.390 . S
C655 C656 1.387 . S
C655 H658 0.950 . S
C656 C655 1.387 . S
C656 C659 1.387 . S
H657 C653 0.950 . S
H658 C655 0.950 . S
C659 C650 1.390 . S
C659 H652 0.950 . S
C659 C656 1.387 . S
C660 C661 1.387 . S
C660 H664 0.950 . S
C660 C669 1.390 . S
C661 C660 1.387 . S
C661 C663 1.387 . S
H662 C669 0.950 . S
C663 C661 1.387 . S
C663 C665 1.390 . S
C663 H667 0.950 . S
H664 C660 0.950 . S
C665 C663 1.390 . S
C665 C666 1.387 . S
C665 H668 0.950 . S
C666 C665 1.387 . S
C666 C669 1.387 . S
H667 C663 0.950 . S
H668 C665 0.950 . S
C669 C660 1.390 . S
C669 H662 0.950 . S
C669 C666 1.387 . S
C670 C671 1.387 . S
C670 H674 0.950 1_455 S
C670 C679 1.390 . S
C671 C670 1.387 . S
C671 C673 1.387 . S
H672 C679 0.950 . S
C673 C671 1.387 . S
C673 C675 1.390 . S
C673 H677 0.950 . S
H674 C670 0.950 1_655 S
C675 C673 1.390 . S
C675 C676 1.387 . S
C675 H678 0.950 . S
C676 C675 1.387 . S
C676 C679 1.387 . S
H677 C673 0.950 . S
H678 C675 0.950 . S
C679 C670 1.390 . S
C679 H672 0.950 . S
C679 C676 1.387 . S
C680 C681 1.387 . S
C680 H684 0.950 1_554 S
C680 C689 1.390 1_554 S
C681 C680 1.387 . S
C681 C683 1.387 . S
H682 C689 0.950 . S
C683 C681 1.387 . S
C683 C685 1.390 . S
C683 H687 0.950 . S
H684 C680 0.950 1_556 S
C685 C683 1.390 . S
C685 C686 1.387 . S
C685 H688 0.950 . S
C686 C685 1.387 . S
C686 C689 1.387 1_554 S
H687 C683 0.950 . S
H688 C685 0.950 . S
C689 C680 1.390 1_556 S
C689 H682 0.950 . S
C689 C686 1.387 1_556 S
C690 C691 1.387 1_554 S
C690 H694 0.950 . S
C690 C699 1.390 1_554 S
C691 C690 1.387 1_556 S
C691 C693 1.387 . S
H692 C699 0.950 . S
C693 C691 1.387 . S
C693 C695 1.390 . S
C693 H697 0.950 . S
H694 C690 0.950 . S
C695 C693 1.390 . S
C695 C696 1.387 . S
C695 H698 0.950 . S
C696 C695 1.387 . S
C696 C699 1.387 . S
H697 C693 0.950 . S
H698 C695 0.950 . S
C699 C690 1.390 1_556 S
C699 H692 0.950 . S
C699 C696 1.387 . S
C700 C701 1.387 . S
C700 H704 0.950 . S
C700 C709 1.390 . S
C701 C700 1.387 . S
C701 C703 1.387 . S
H702 C709 0.950 1_556 S
C703 C701 1.387 . S
C703 C705 1.390 . S
C703 H707 0.950 . S
H704 C700 0.950 . S
C705 C703 1.390 . S
C705 C706 1.387 . S
C705 H708 0.950 . S
C706 C705 1.387 . S
C706 C709 1.387 . S
H707 C703 0.950 . S
H708 C705 0.950 . S
C709 C700 1.390 . S
C709 H702 0.950 1_554 S
C709 C706 1.387 . S
C710 C711 1.387 1_554 S
C710 H714 0.950 . S
C710 C719 1.390 1_554 S
C711 C710 1.387 1_556 S
C711 C713 1.387 . S
H712 C719 0.950 . S
C713 C711 1.387 . S
C713 C715 1.390 . S
C713 H717 0.950 . S
H714 C710 0.950 . S
C715 C713 1.390 . S
C715 C716 1.387 . S
C715 H718 0.950 . S
C716 C715 1.387 . S
C716 C719 1.387 . S
H717 C713 0.950 . S
H718 C715 0.950 . S
C719 C710 1.390 1_556 S
C719 H712 0.950 . S
C719 C716 1.387 . S
C720 C721 1.387 . S
C720 H724 0.950 . S
C720 C729 1.390 . S
C721 C720 1.387 . S
C721 C723 1.387 . S
H722 C729 0.950 . S
C723 C721 1.387 . S
C723 C725 1.390 . S
C723 H727 0.950 . S
H724 C720 0.950 . S
C725 C723 1.390 . S
C725 C726 1.387 . S
C725 H728 0.950 . S
C726 C725 1.387 . S
C726 C729 1.387 . S
H727 C723 0.950 . S
H728 C725 0.950 . S
C729 C720 1.390 . S
C729 H722 0.950 . S
C729 C726 1.387 . S
C730 C731 1.387 . S
C730 H734 0.950 . S
C730 C739 1.390 . S
C731 C730 1.387 . S
C731 C733 1.387 . S
H732 C739 0.950 . S
C733 C731 1.387 . S
C733 C735 1.390 . S
C733 H737 0.950 . S
H734 C730 0.950 . S
C735 C733 1.390 . S
C735 C736 1.387 . S
C735 H738 0.950 . S
C736 C735 1.387 . S
C736 C739 1.387 . S
H737 C733 0.950 . S
H738 C735 0.950 . S
C739 C730 1.390 . S
C739 H732 0.950 . S
C739 C736 1.387 . S
C740 C741 1.387 . S
C740 H744 0.950 . S
C740 C749 1.390 . S
C741 C740 1.387 . S
C741 C743 1.387 . S
H742 C749 0.950 . S
C743 C741 1.387 . S
C743 C745 1.390 . S
C743 H747 0.950 . S
H744 C740 0.950 . S
C745 C743 1.390 . S
C745 C746 1.387 . S
C745 H748 0.950 . S
C746 C745 1.387 . S
C746 C749 1.387 . S
H747 C743 0.950 . S
H748 C745 0.950 . S
C749 C740 1.390 . S
C749 H742 0.950 . S
C749 C746 1.387 . S
C750 C751 1.387 . S
C750 H754 0.950 . S
C750 C759 1.390 . S
C751 C750 1.387 . S
C751 C753 1.387 . S
H752 C759 0.950 . S
C753 C751 1.387 . S
C753 C755 1.390 . S
C753 H757 0.950 . S
H754 C750 0.950 . S
C755 C753 1.390 . S
C755 C756 1.387 . S
C755 H758 0.950 . S
C756 C755 1.387 . S
C756 C759 1.387 . S
H757 C753 0.950 . S
H758 C755 0.950 . S
C759 C750 1.390 . S
C759 H752 0.950 . S
C759 C756 1.387 . S
C760 C761 1.387 . S
C760 H764 0.950 1_545 S
C760 C769 1.390 . S
C761 C760 1.387 . S
C761 C763 1.387 . S
H762 C769 0.950 . S
C763 C761 1.387 . S
C763 C765 1.390 . S
C763 H767 0.950 . S
H764 C760 0.950 1_565 S
C765 C763 1.390 . S
C765 C766 1.387 . S
C765 H768 0.950 . S
C766 C765 1.387 . S
C766 C769 1.387 . S
H767 C763 0.950 . S
H768 C765 0.950 . S
C769 C760 1.390 . S
C769 H762 0.950 . S
C769 C766 1.387 . S
C770 C771 1.387 . S
C770 H774 0.950 . S
C770 C779 1.390 . S
C771 C770 1.387 . S
C771 C773 1.387 . S
H772 C779 0.950 1_655 S
C773 C771 1.387 . S
C773 C775 1.390 . S
C773 H777 0.950 . S
H774 C770 0.950 . S
C775 C773 1.390 . S
C775 C776 1.387 . S
C775 H778 0.950 . S
C776 C775 1.387 . S
C776 C779 1.387 . S
H777 C773 0.950 . S
H778 C775 0.950 . S
C779 C770 1.390 . S
C779 H772 0.950 1_455 S
C779 C776 1.387 . S
C780 C781 1.387 . S
C780 H784 0.950 . S
C780 C789 1.390 . S
C781 C780 1.387 . S
C781 C783 1.387 . S
H782 C789 0.950 . S
C783 C781 1.387 . S
C783 C785 1.390 . S
C783 H787 0.950 . S
H784 C780 0.950 . S
C785 C783 1.390 . S
C785 C786 1.387 . S
C785 H788 0.950 1_565 S
C786 C785 1.387 . S
C786 C789 1.387 . S
H787 C783 0.950 . S
H788 C785 0.950 1_545 S
C789 C780 1.390 . S
C789 H782 0.950 . S
C789 C786 1.387 . S
C790 C791 1.387 . S
C790 H794 0.950 . S
C790 C799 1.390 . S
C791 C790 1.387 . S
C791 C793 1.387 . S
H792 C799 0.950 . S
C793 C791 1.387 . S
C793 C795 1.390 . S
C793 H797 0.950 . S
H794 C790 0.950 . S
C795 C793 1.390 . S
C795 C796 1.387 . S
C795 H798 0.950 . S
C796 C795 1.387 . S
C796 C799 1.387 . S
H797 C793 0.950 . S
H798 C795 0.950 . S
C799 C790 1.390 . S
C799 H792 0.950 . S
C799 C796 1.387 . S
C800 C801 1.387 . S
C800 H804 0.950 . S
C800 C809 1.390 . S
C801 C800 1.387 . S
C801 C803 1.387 . S
H802 C809 0.950 . S
C803 C801 1.387 . S
C803 C805 1.390 . S
C803 H807 0.950 . S
H804 C800 0.950 . S
C805 C803 1.390 . S
C805 C806 1.387 . S
C805 H808 0.950 . S
C806 C805 1.387 . S
C806 C809 1.387 . S
H807 C803 0.950 . S
H808 C805 0.950 . S
C809 C800 1.390 . S
C809 H802 0.950 . S
C809 C806 1.387 . S
C810 C811 1.387 . S
C810 H814 0.950 . S
C810 C819 1.390 . S
C811 C810 1.387 . S
C811 C813 1.387 . S
H812 C819 0.950 . S
C813 C811 1.387 . S
C813 C815 1.390 . S
C813 H817 0.950 . S
H814 C810 0.950 . S
C815 C813 1.390 . S
C815 C816 1.387 . S
C815 H818 0.950 . S
C816 C815 1.387 . S
C816 C819 1.387 . S
H817 C813 0.950 . S
H818 C815 0.950 . S
C819 C810 1.390 . S
C819 H812 0.950 . S
C819 C816 1.387 . S
C820 C821 1.387 . S
C820 H824 0.950 . S
C820 C829 1.390 . S
C821 C820 1.387 . S
C821 C823 1.387 . S
H822 C829 0.950 . S
C823 C821 1.387 . S
C823 C825 1.390 . S
C823 H827 0.950 . S
H824 C820 0.950 . S
C825 C823 1.390 . S
C825 C826 1.387 . S
C825 H828 0.950 . S
C826 C825 1.387 . S
C826 C829 1.387 . S
H827 C823 0.950 . S
H828 C825 0.950 . S
C829 C820 1.390 . S
C829 H822 0.950 . S
C829 C826 1.387 . S
C830 C831 1.387 . S
C830 H834 0.950 . S
C830 C839 1.390 . S
C831 C830 1.387 . S
C831 C833 1.387 . S
H832 C839 0.950 . S
C833 C831 1.387 . S
C833 C835 1.390 . S
C833 H837 0.950 . S
H834 C830 0.950 . S
C835 C833 1.390 . S
C835 C836 1.387 . S
C835 H838 0.950 . S
C836 C835 1.387 . S
C836 C839 1.387 . S
H837 C833 0.950 . S
H838 C835 0.950 . S
C839 C830 1.390 . S
C839 H832 0.950 . S
C839 C836 1.387 . S
C840 C841 1.387 . S
C840 H844 0.950 . S
C840 C849 1.390 . S
C841 C840 1.387 . S
C841 C843 1.387 . S
H842 C849 0.950 . S
C843 C841 1.387 . S
C843 C845 1.390 . S
C843 H847 0.950 . S
H844 C840 0.950 . S
C845 C843 1.390 . S
C845 C846 1.387 . S
C845 H848 0.950 . S
C846 C845 1.387 . S
C846 C849 1.387 . S
H847 C843 0.950 . S
H848 C845 0.950 . S
C849 C840 1.390 . S
C849 H842 0.950 . S
C849 C846 1.387 . S
C850 C851 1.387 . S
C850 H854 0.950 . S
C850 C859 1.390 . S
C851 C850 1.387 . S
C851 C853 1.387 . S
H852 C859 0.950 . S
C853 C851 1.387 . S
C853 C855 1.390 . S
C853 H857 0.950 . S
H854 C850 0.950 . S
C855 C853 1.390 . S
C855 C856 1.387 . S
C855 H858 0.950 . S
C856 C855 1.387 . S
C856 C859 1.387 . S
H857 C853 0.950 . S
H858 C855 0.950 . S
C859 C850 1.390 . S
C859 H852 0.950 . S
C859 C856 1.387 . S
C860 C861 1.387 . S
C860 H864 0.950 . S
C860 C869 1.390 . S
C861 C860 1.387 . S
C861 C863 1.387 . S
H862 C869 0.950 . S
C863 C861 1.387 . S
C863 C865 1.390 . S
C863 H867 0.950 . S
H864 C860 0.950 . S
C865 C863 1.390 . S
C865 C866 1.387 . S
C865 H868 0.950 . S
C866 C865 1.387 . S
C866 C869 1.387 . S
H867 C863 0.950 . S
H868 C865 0.950 . S
C869 C860 1.390 . S
C869 H862 0.950 . S
C869 C866 1.387 . S
C870 C871 1.387 . S
C870 H874 0.950 . S
C870 C879 1.390 . S
C871 C870 1.387 . S
C871 C873 1.387 . S
H872 C879 0.950 . S
C873 C871 1.387 . S
C873 C875 1.390 . S
C873 H877 0.950 . S
H874 C870 0.950 . S
C875 C873 1.390 . S
C875 C876 1.387 . S
C875 H878 0.950 . S
C876 C875 1.387 . S
C876 C879 1.387 . S
H877 C873 0.950 . S
H878 C875 0.950 . S
C879 C870 1.390 . S
C879 H872 0.950 . S
C879 C876 1.387 . S
C880 C881 1.387 . S
C880 H884 0.950 . S
C880 C889 1.390 . S
C881 C880 1.387 . S
C881 C883 1.387 . S
H882 C889 0.950 . S
C883 C881 1.387 . S
C883 C885 1.390 . S
C883 H887 0.950 . S
H884 C880 0.950 . S
C885 C883 1.390 . S
C885 C886 1.387 . S
C885 H888 0.950 . S
C886 C885 1.387 . S
C886 C889 1.387 . S
H887 C883 0.950 . S
H888 C885 0.950 . S
C889 C880 1.390 . S
C889 H882 0.950 . S
C889 C886 1.387 . S
C890 C891 1.387 . S
C890 H894 0.950 . S
C890 C899 1.390 . S
C891 C890 1.387 . S
C891 C893 1.387 . S
H892 C899 0.950 . S
C893 C891 1.387 . S
C893 C895 1.390 . S
C893 H897 0.950 . S
H894 C890 0.950 . S
C895 C893 1.390 . S
C895 C896 1.387 . S
C895 H898 0.950 . S
C896 C895 1.387 . S
C896 C899 1.387 . S
H897 C893 0.950 . S
H898 C895 0.950 . S
C899 C890 1.390 . S
C899 H892 0.950 . S
C899 C896 1.387 . S
C900 C901 1.387 . S
C900 H904 0.950 . S
C900 C909 1.390 . S
C901 C900 1.387 . S
C901 C903 1.387 . S
H902 C909 0.950 . S
C903 C901 1.387 . S
C903 C905 1.390 . S
C903 H907 0.950 . S
H904 C900 0.950 . S
C905 C903 1.390 . S
C905 C906 1.387 . S
C905 H908 0.950 . S
C906 C905 1.387 . S
C906 C909 1.387 . S
H907 C903 0.950 . S
H908 C905 0.950 . S
C909 C900 1.390 . S
C909 H902 0.950 . S
C909 C906 1.387 . S
C910 C911 1.387 . S
C910 H914 0.950 . S
C910 C919 1.390 . S
C911 C910 1.387 . S
C911 C913 1.387 . S
H912 C919 0.950 . S
C913 C911 1.387 . S
C913 C915 1.390 . S
C913 H917 0.950 . S
H914 C910 0.950 . S
C915 C913 1.390 . S
C915 C916 1.387 . S
C915 H918 0.950 . S
C916 C915 1.387 . S
C916 C919 1.387 . S
H917 C913 0.950 . S
H918 C915 0.950 . S
C919 C910 1.390 . S
C919 H912 0.950 . S
C919 C916 1.387 . S
C920 C921 1.387 . S
C920 H924 0.950 . S
C920 C929 1.390 . S
C921 C920 1.387 . S
C921 C923 1.387 . S
H922 C929 0.950 . S
C923 C921 1.387 . S
C923 C925 1.390 . S
C923 H927 0.950 . S
H924 C920 0.950 . S
C925 C923 1.390 . S
C925 C926 1.387 . S
C925 H928 0.950 . S
C926 C925 1.387 . S
C926 C929 1.387 . S
H927 C923 0.950 . S
H928 C925 0.950 . S
C929 C920 1.390 . S
C929 H922 0.950 . S
C929 C926 1.387 . S
C930 C931 1.387 . S
C930 H934 0.950 . S
C930 C939 1.390 . S
C931 C930 1.387 . S
C931 C933 1.387 . S
H932 C939 0.950 . S
C933 C931 1.387 . S
C933 C935 1.390 . S
C933 H937 0.950 . S
H934 C930 0.950 . S
C935 C933 1.390 . S
C935 C936 1.387 . S
C935 H938 0.950 . S
C936 C935 1.387 . S
C936 C939 1.387 . S
H937 C933 0.950 . S
H938 C935 0.950 . S
C939 C930 1.390 . S
C939 H932 0.950 . S
C939 C936 1.387 . S
C940 C941 1.387 . S
C940 H944 0.950 . S
C940 C949 1.390 . S
C941 C940 1.387 . S
C941 C943 1.387 . S
H942 C949 0.950 . S
C943 C941 1.387 . S
C943 C945 1.390 . S
C943 H947 0.950 . S
H944 C940 0.950 . S
C945 C943 1.390 . S
C945 C946 1.387 . S
C945 H948 0.950 . S
C946 C945 1.387 . S
C946 C949 1.387 . S
H947 C943 0.950 . S
H948 C945 0.950 . S
C949 C940 1.390 . S
C949 H942 0.950 . S
C949 C946 1.387 . S
C950 C951 1.387 . S
C950 H954 0.950 . S
C950 C959 1.390 . S
C951 C950 1.387 . S
C951 C953 1.387 . S
H952 C959 0.950 . S
C953 C951 1.387 . S
C953 C955 1.390 . S
C953 H957 0.950 . S
H954 C950 0.950 . S
C955 C953 1.390 . S
C955 C956 1.387 . S
C955 H958 0.950 . S
C956 C955 1.387 . S
C956 C959 1.387 . S
H957 C953 0.950 . S
H958 C955 0.950 . S
C959 C950 1.390 . S
C959 H952 0.950 . S
C959 C956 1.387 . S
C960 C961 1.387 . S
C960 H964 0.950 . S
C960 C969 1.390 . S
C961 C960 1.387 . S
C961 C963 1.387 . S
H962 C969 0.950 . S
C963 C961 1.387 . S
C963 C965 1.390 . S
C963 H967 0.950 . S
H964 C960 0.950 . S
C965 C963 1.390 . S
C965 C966 1.387 . S
C965 H968 0.950 . S
C966 C965 1.387 . S
C966 C969 1.387 . S
H967 C963 0.950 . S
H968 C965 0.950 . S
C969 C960 1.390 . S
C969 H962 0.950 . S
C969 C966 1.387 . S
C970 C971 1.387 . S
C970 H974 0.950 . S
C970 C979 1.390 . S
C971 C970 1.387 . S
C971 C973 1.387 . S
H972 C979 0.950 . S
C973 C971 1.387 . S
C973 C975 1.390 . S
C973 H977 0.950 . S
H974 C970 0.950 . S
C975 C973 1.390 . S
C975 C976 1.387 . S
C975 H978 0.950 . S
C976 C975 1.387 . S
C976 C979 1.387 . S
H977 C973 0.950 . S
H978 C975 0.950 . S
C979 C970 1.390 . S
C979 H972 0.950 . S
C979 C976 1.387 . S
C980 C981 1.387 . S
C980 H984 0.950 . S
C980 C989 1.390 . S
C981 C980 1.387 . S
C981 C983 1.387 . S
H982 C989 0.950 . S
C983 C981 1.387 . S
C983 C985 1.390 . S
C983 H987 0.950 . S
H984 C980 0.950 . S
C985 C983 1.390 . S
C985 C986 1.387 . S
C985 H988 0.950 . S
C986 C985 1.387 . S
C986 C989 1.387 . S
H987 C983 0.950 . S
H988 C985 0.950 . S
C989 C980 1.390 . S
C989 H982 0.950 . S
C989 C986 1.387 . S
C990 C991 1.387 . S
C990 H994 0.950 . S
C990 C999 1.390 . S
C991 C990 1.387 . S
C991 C993 1.387 . S
H992 C999 0.950 . S
C993 C991 1.387 . S
C993 C995 1.390 . S
C993 H997 0.950 . S
H994 C990 0.950 . S
C995 C993 1.390 . S
C995 C996 1.387 . S
C995 H998 0.950 . S
C996 C995 1.387 . S
C996 C999 1.387 . S
H997 C993 0.950 . S
H998 C995 0.950 . S
C999 C990 1.390 . S
C999 H992 0.950 . S
C999 C996 1.387 . S
C1000 C1001 1.387 . S
C1000 H1004 0.950 . S
C1000 C1009 1.390 . S
C1001 C1000 1.387 . S
C1001 C1003 1.387 . S
H1002 C1009 0.950 . S
C1003 C1001 1.387 . S
C1003 C1005 1.390 . S
C1003 H1007 0.950 . S
H1004 C1000 0.950 . S
C1005 C1003 1.390 . S
C1005 C1006 1.387 . S
C1005 H1008 0.950 . S
C1006 C1005 1.387 . S
C1006 C1009 1.387 . S
H1007 C1003 0.950 . S
H1008 C1005 0.950 . S
C1009 C1000 1.390 . S
C1009 H1002 0.950 . S
C1009 C1006 1.387 . S
C1010 C1011 1.387 . S
C1010 H1014 0.950 . S
C1010 C1019 1.390 . S
C1011 C1010 1.387 . S
C1011 C1013 1.387 . S
H1012 C1019 0.950 . S
C1013 C1011 1.387 . S
C1013 C1015 1.390 . S
C1013 H1017 0.950 . S
H1014 C1010 0.950 . S
C1015 C1013 1.390 . S
C1015 C1016 1.387 . S
C1015 H1018 0.950 . S
C1016 C1015 1.387 . S
C1016 C1019 1.387 . S
H1017 C1013 0.950 . S
H1018 C1015 0.950 . S
C1019 C1010 1.390 . S
C1019 H1012 0.950 . S
C1019 C1016 1.387 . S
C1020 C1021 1.387 . S
C1020 H1024 0.950 . S
C1020 C1029 1.390 . S
C1021 C1020 1.387 . S
C1021 C1023 1.387 . S
H1022 C1029 0.950 . S
C1023 C1021 1.387 . S
C1023 C1025 1.390 . S
C1023 H1027 0.950 . S
H1024 C1020 0.950 . S
C1025 C1023 1.390 . S
C1025 C1026 1.387 . S
C1025 H1028 0.950 . S
C1026 C1025 1.387 . S
C1026 C1029 1.387 . S
H1027 C1023 0.950 . S
H1028 C1025 0.950 . S
C1029 C1020 1.390 . S
C1029 H1022 0.950 . S
C1029 C1026 1.387 . S
C1030 C1031 1.387 . S
C1030 H1034 0.950 . S
C1030 C1039 1.390 . S
C1031 C1030 1.387 . S
C1031 C1033 1.387 . S
H1032 C1039 0.950 . S
C1033 C1031 1.387 . S
C1033 C1035 1.390 . S
C1033 H1037 0.950 . S
H1034 C1030 0.950 . S
C1035 C1033 1.390 . S
C1035 C1036 1.387 . S
C1035 H1038 0.950 . S
C1036 C1035 1.387 . S
C1036 C1039 1.387 . S
H1037 C1033 0.950 . S
H1038 C1035 0.950 . S
C1039 C1030 1.390 . S
C1039 H1032 0.950 . S
C1039 C1036 1.387 . S
C1040 C1041 1.387 . S
C1040 H1044 0.950 . S
C1040 C1049 1.390 . S
C1041 C1040 1.387 . S
C1041 C1043 1.387 . S
H1042 C1049 0.950 . S
C1043 C1041 1.387 . S
C1043 C1045 1.390 . S
C1043 H1047 0.950 . S
H1044 C1040 0.950 . S
C1045 C1043 1.390 . S
C1045 C1046 1.387 . S
C1045 H1048 0.950 . S
C1046 C1045 1.387 . S
C1046 C1049 1.387 . S
H1047 C1043 0.950 . S
H1048 C1045 0.950 . S
C1049 C1040 1.390 . S
C1049 H1042 0.950 . S
C1049 C1046 1.387 . S
C1050 C1051 1.387 . S
C1050 H1054 0.950 . S
C1050 C1059 1.390 . S
C1051 C1050 1.387 . S
C1051 C1053 1.387 . S
H1052 C1059 0.950 . S
C1053 C1051 1.387 . S
C1053 C1055 1.390 . S
C1053 H1057 0.950 . S
H1054 C1050 0.950 . S
C1055 C1053 1.390 . S
C1055 C1056 1.387 . S
C1055 H1058 0.950 . S
C1056 C1055 1.387 . S
C1056 C1059 1.387 . S
H1057 C1053 0.950 . S
H1058 C1055 0.950 . S
C1059 C1050 1.390 . S
C1059 H1052 0.950 . S
C1059 C1056 1.387 . S
C1060 C1061 1.387 . S
C1060 H1064 0.950 . S
C1060 C1069 1.390 . S
C1061 C1060 1.387 . S
C1061 C1063 1.387 . S
H1062 C1069 0.950 . S
C1063 C1061 1.387 . S
C1063 C1065 1.390 . S
C1063 H1067 0.950 . S
H1064 C1060 0.950 . S
C1065 C1063 1.390 . S
C1065 C1066 1.387 . S
C1065 H1068 0.950 . S
C1066 C1065 1.387 . S
C1066 C1069 1.387 . S
H1067 C1063 0.950 . S
H1068 C1065 0.950 . S
C1069 C1060 1.390 . S
C1069 H1062 0.950 . S
C1069 C1066 1.387 . S
C1070 C1071 1.387 . S
C1070 H1074 0.950 . S
C1070 C1079 1.390 . S
C1071 C1070 1.387 . S
C1071 C1073 1.387 . S
H1072 C1079 0.950 . S
C1073 C1071 1.387 . S
C1073 C1075 1.390 . S
C1073 H1077 0.950 . S
H1074 C1070 0.950 . S
C1075 C1073 1.390 . S
C1075 C1076 1.387 . S
C1075 H1078 0.950 . S
C1076 C1075 1.387 . S
C1076 C1079 1.387 . S
H1077 C1073 0.950 . S
H1078 C1075 0.950 . S
C1079 C1070 1.390 . S
C1079 H1072 0.950 . S
C1079 C1076 1.387 . S
C1080 C1081 1.387 . S
C1080 H1084 0.950 . S
C1080 C1089 1.390 . S
C1081 C1080 1.387 . S
C1081 C1083 1.387 . S
H1082 C1089 0.950 . S
C1083 C1081 1.387 . S
C1083 C1085 1.390 . S
C1083 H1087 0.950 . S
H1084 C1080 0.950 . S
C1085 C1083 1.390 . S
C1085 C1086 1.387 . S
C1085 H1088 0.950 . S
C1086 C1085 1.387 . S
C1086 C1089 1.387 . S
H1087 C1083 0.950 . S
H1088 C1085 0.950 . S
C1089 C1080 1.390 . S
C1089 H1082 0.950 . S
C1089 C1086 1.387 . S
C1090 C1091 1.387 . S
C1090 H1094 0.950 . S
C1090 C1099 1.390 . S
C1091 C1090 1.387 . S
C1091 C1093 1.387 . S
H1092 C1099 0.950 . S
C1093 C1091 1.387 . S
C1093 C1095 1.390 . S
C1093 H1097 0.950 . S
H1094 C1090 0.950 . S
C1095 C1093 1.390 . S
C1095 C1096 1.387 . S
C1095 H1098 0.950 . S
C1096 C1095 1.387 . S
C1096 C1099 1.387 . S
H1097 C1093 0.950 . S
H1098 C1095 0.950 . S
C1099 C1090 1.390 . S
C1099 H1092 0.950 . S
C1099 C1096 1.387 . S
C1100 C1101 1.387 . S
C1100 H1104 0.950 . S
C1100 C1109 1.390 . S
C1101 C1100 1.387 . S
C1101 C1103 1.387 . S
H1102 C1109 0.950 . S
C1103 C1101 1.387 . S
C1103 C1105 1.390 . S
C1103 H1107 0.950 . S
H1104 C1100 0.950 . S
C1105 C1103 1.390 . S
C1105 C1106 1.387 . S
C1105 H1108 0.950 . S
C1106 C1105 1.387 . S
C1106 C1109 1.387 . S
H1107 C1103 0.950 . S
H1108 C1105 0.950 . S
C1109 C1100 1.390 . S
C1109 H1102 0.950 . S
C1109 C1106 1.387 . S
C1110 C1111 1.387 . S
C1110 H1114 0.950 . S
C1110 C1119 1.390 . S
C1111 C1110 1.387 . S
C1111 C1113 1.387 . S
H1112 C1119 0.950 . S
C1113 C1111 1.387 . S
C1113 C1115 1.390 . S
C1113 H1117 0.950 . S
H1114 C1110 0.950 . S
C1115 C1113 1.390 . S
C1115 C1116 1.387 . S
C1115 H1118 0.950 . S
C1116 C1115 1.387 . S
C1116 C1119 1.387 . S
H1117 C1113 0.950 . S
H1118 C1115 0.950 . S
C1119 C1110 1.390 . S
C1119 H1112 0.950 . S
C1119 C1116 1.387 . S
C641 C443 1.804 . S
C646 C15 1.762 1_565 S
C651 C342 1.804 . S
C656 C42 1.762 1_655 S
C661 C95 1.762 1_545 S
C666 C363 1.804 . S
C671 C122 1.761 1_455 S
C676 C422 1.805 . S
C681 C175 1.760 . S
C686 C203 1.804 1_554 S
C691 C262 1.804 1_556 S
C696 C202 1.762 . S
C701 C255 1.761 . S
C706 C283 1.804 1_554 S
C711 C182 1.805 1_556 S
C716 C282 1.762 . S
C721 C123 1.805 . S
C726 C335 1.761 . S
C731 C362 1.762 . S
C736 C22 1.804 . S
C741 C43 1.805 . S
C746 C415 1.760 . S
C751 C102 1.805 . S
C756 C442 1.760 . S
C761 C495 1.760 1_545 S
C766 C523 1.804 . S
C771 C582 1.805 . S
C776 C522 1.761 1_455 S
C781 C603 1.805 . S
C786 C575 1.762 1_565 S
C791 C602 1.762 1_655 S
C796 C502 1.804 . S
C801 C2 1.266 . S
C806 C162 1.266 . S
C811 C215 1.266 . S
C816 C55 1.266 . S
C821 C82 1.266 . S
C826 C242 1.266 . S
C831 C135 1.261 . S
C836 C295 1.261 . S
C841 C322 1.261 . S
C846 C482 1.261 . S
C851 C535 1.266 . S
C856 C375 1.266 . S
C861 C402 1.261 . S
C866 C562 1.261 . S
C871 C455 1.261 . S
C876 C615 1.261 . S
C881 C563 2.522 . S
C886 C3 2.522 1_556 S
C891 C62 2.522 1_554 S
C896 C622 2.522 . S
C901 C83 2.522 1_556 S
C906 C483 2.522 . S
C911 C142 2.524 1_554 S
C916 C542 2.524 . S
C921 C163 2.524 . S
C926 C403 2.524 . S
C931 C222 2.522 . S
C936 C462 2.522 . S
C941 C243 2.523 . S
C946 C323 2.524 . S
C951 C382 2.524 . S
C956 C302 2.524 . S
C961 C9 1.201 . S
C966 C26 1.201 . S
C971 C66 1.201 . S
C976 C49 1.201 . S
C981 C89 1.199 . S
C986 C106 1.199 . S
C991 C129 1.201 . S
C996 C146 1.201 . S
C1001 C186 1.199 . S
C1006 C169 1.199 . S
C1011 C226 1.200 . S
C1016 C209 1.200 . S
C1021 C249 1.199 . S
C1026 C266 1.199 . S
C1031 C289 1.199 . S
C1036 C306 1.199 . S
C1041 C329 1.199 . S
C1046 C346 1.199 . S
C1051 C369 1.199 . S
C1056 C386 1.199 . S
C1061 C426 1.199 . S
C1066 C409 1.199 . S
C1071 C466 1.200 . S
C1076 C449 1.200 . S
C1081 C489 1.201 . S
C1086 C506 1.201 . S
C1091 C529 1.199 . S
C1096 C546 1.199 . S
C1101 C586 1.200 . S
C1106 C569 1.200 . S
C1111 C626 1.199 . S
C1116 C609 1.199 . S
