# Generated by pormake.
# Topology reo-e, (6)-cn, num edge types: 1
# Building blocks:
#     Node 0, Type 0, BuildingBlock: OJICUG_clean_sbu_0, # of connection points: 6
#     Node 1, Type 0, BuildingBlock: OJICUG_clean_sbu_0, # of connection points: 6
#     Node 2, Type 0, BuildingBlock: OJICUG_clean_sbu_0, # of connection points: 6
#     Node 3, Type 0, BuildingBlock: OJICUG_clean_sbu_0, # of connection points: 6
#     Node 4, Type 0, BuildingBlock: OJICUG_clean_sbu_0, # of connection points: 6
#     Node 5, Type 0, BuildingBlock: OJICUG_clean_sbu_0, # of connection points: 6
#     Node 6, Type 0, BuildingBlock: OJICUG_clean_sbu_0, # of connection points: 6
#     Node 7, Type 0, BuildingBlock: OJICUG_clean_sbu_0, # of connection points: 6
#     Node 8, Type 0, BuildingBlock: OJICUG_clean_sbu_0, # of connection points: 6
#     Node 9, Type 0, BuildingBlock: OJICUG_clean_sbu_0, # of connection points: 6
#     Node 10, Type 0, BuildingBlock: OJICUG_clean_sbu_0, # of connection points: 6
#     Node 11, Type 0, BuildingBlock: OJICUG_clean_sbu_0, # of connection points: 6
#     Edge 12, Type (0, 0), BuildingBlock: ZUJKAS_clean_linker_0, # of connection points: 2
#     Edge 13, Type (0, 0), BuildingBlock: ZUJKAS_clean_linker_0, # of connection points: 2
#     Edge 14, Type (0, 0), BuildingBlock: ZUJKAS_clean_linker_0, # of connection points: 2
#     Edge 15, Type (0, 0), BuildingBlock: ZUJKAS_clean_linker_0, # of connection points: 2
#     Edge 16, Type (0, 0), BuildingBlock: ZUJKAS_clean_linker_0, # of connection points: 2
#     Edge 17, Type (0, 0), BuildingBlock: ZUJKAS_clean_linker_0, # of connection points: 2
#     Edge 18, Type (0, 0), BuildingBlock: ZUJKAS_clean_linker_0, # of connection points: 2
#     Edge 19, Type (0, 0), BuildingBlock: ZUJKAS_clean_linker_0, # of connection points: 2
#     Edge 20, Type (0, 0), BuildingBlock: ZUJKAS_clean_linker_0, # of connection points: 2
#     Edge 21, Type (0, 0), BuildingBlock: ZUJKAS_clean_linker_0, # of connection points: 2
#     Edge 22, Type (0, 0), BuildingBlock: ZUJKAS_clean_linker_0, # of connection points: 2
#     Edge 23, Type (0, 0), BuildingBlock: ZUJKAS_clean_linker_0, # of connection points: 2
#     Edge 24, Type (0, 0), BuildingBlock: ZUJKAS_clean_linker_0, # of connection points: 2
#     Edge 25, Type (0, 0), BuildingBlock: ZUJKAS_clean_linker_0, # of connection points: 2
#     Edge 26, Type (0, 0), BuildingBlock: ZUJKAS_clean_linker_0, # of connection points: 2
#     Edge 27, Type (0, 0), BuildingBlock: ZUJKAS_clean_linker_0, # of connection points: 2
#     Edge 28, Type (0, 0), BuildingBlock: ZUJKAS_clean_linker_0, # of connection points: 2
#     Edge 29, Type (0, 0), BuildingBlock: ZUJKAS_clean_linker_0, # of connection points: 2
#     Edge 30, Type (0, 0), BuildingBlock: ZUJKAS_clean_linker_0, # of connection points: 2
#     Edge 31, Type (0, 0), BuildingBlock: ZUJKAS_clean_linker_0, # of connection points: 2
#     Edge 32, Type (0, 0), BuildingBlock: ZUJKAS_clean_linker_0, # of connection points: 2
#     Edge 33, Type (0, 0), BuildingBlock: ZUJKAS_clean_linker_0, # of connection points: 2
#     Edge 34, Type (0, 0), BuildingBlock: ZUJKAS_clean_linker_0, # of connection points: 2
#     Edge 35, Type (0, 0), BuildingBlock: ZUJKAS_clean_linker_0, # of connection points: 2
#     Edge 36, Type (0, 0), BuildingBlock: ZUJKAS_clean_linker_0, # of connection points: 2
#     Edge 37, Type (0, 0), BuildingBlock: ZUJKAS_clean_linker_0, # of connection points: 2
#     Edge 38, Type (0, 0), BuildingBlock: ZUJKAS_clean_linker_0, # of connection points: 2
#     Edge 39, Type (0, 0), BuildingBlock: ZUJKAS_clean_linker_0, # of connection points: 2
#     Edge 40, Type (0, 0), BuildingBlock: ZUJKAS_clean_linker_0, # of connection points: 2
#     Edge 41, Type (0, 0), BuildingBlock: ZUJKAS_clean_linker_0, # of connection points: 2
#     Edge 42, Type (0, 0), BuildingBlock: ZUJKAS_clean_linker_0, # of connection points: 2
#     Edge 43, Type (0, 0), BuildingBlock: ZUJKAS_clean_linker_0, # of connection points: 2
#     Edge 44, Type (0, 0), BuildingBlock: ZUJKAS_clean_linker_0, # of connection points: 2
#     Edge 45, Type (0, 0), BuildingBlock: ZUJKAS_clean_linker_0, # of connection points: 2
#     Edge 46, Type (0, 0), BuildingBlock: ZUJKAS_clean_linker_0, # of connection points: 2
#     Edge 47, Type (0, 0), BuildingBlock: ZUJKAS_clean_linker_0, # of connection points: 2
# Relax obj value: 0.131
# Max RMSD: 0.142
# Mean RMSD: 0.142
data_MOF--net-reo-e--node1-OJICUG_clean_sbu_0--edge1-ZUJKAS_clean_linker_0
_symmetry_space_group_name_H-M    P1
_symmetry_Int_Tables_number       1
_symmetry_cell_setting            triclinic
loop_
_symmetry_equiv_pos_as_xyz
'x, y, z'
_cell_length_a     50.69278
_cell_length_b     50.665534
_cell_length_c     50.744147
_cell_angle_alpha  90.022743
_cell_angle_beta   90.025131
_cell_angle_gamma 89.986807
loop_
_atom_site_label
_atom_site_type_symbol
_atom_site_fract_x
_atom_site_fract_y
_atom_site_fract_z
_atom_type_partial_charge
Sc0 Sc 0.18743 0.18981 0.46081 0.0
Sc1 Sc 0.23043 0.23134 0.49602 0.0
Sc2 Sc 0.18684 0.18989 0.53056 0.0
O3 O 0.20154 0.20366 0.49579 0.0
C4 C 0.13487 0.19399 0.49525 0.0
C5 C 0.19443 0.25102 0.44818 0.0
C6 C 0.19326 0.25135 0.54264 0.0
C7 C 0.24914 0.19418 0.44894 0.0
C8 C 0.19012 0.13746 0.49574 0.0
C9 C 0.24811 0.19452 0.54394 0.0
O10 O 0.14697 0.19295 0.47333 0.0
O11 O 0.21152 0.25468 0.46613 0.0
O12 O 0.18301 0.22891 0.54725 0.0
O13 O 0.22628 0.18507 0.44404 0.0
O14 O 0.18914 0.14943 0.51776 0.0
O15 O 0.25278 0.21127 0.52592 0.0
O16 O 0.18965 0.14944 0.47373 0.0
O17 O 0.25355 0.2107 0.46724 0.0
O18 O 0.22528 0.18502 0.54804 0.0
O19 O 0.18376 0.22871 0.44393 0.0
O20 O 0.14668 0.19315 0.51733 0.0
O21 O 0.21043 0.25504 0.5248 0.0
Sc22 Sc 0.79893 0.18725 0.52945 0.0
Sc23 Sc 0.75829 0.23176 0.49526 0.0
Sc24 Sc 0.79984 0.18898 0.45993 0.0
O25 O 0.78569 0.20261 0.49485 0.0
C26 C 0.85172 0.19178 0.49577 0.0
C27 C 0.79474 0.24892 0.54268 0.0
C28 C 0.79481 0.25012 0.4473 0.0
C29 C 0.73852 0.19455 0.54239 0.0
C30 C 0.79603 0.13583 0.49304 0.0
C31 C 0.73809 0.19552 0.44822 0.0
O32 O 0.83952 0.19178 0.51769 0.0
O33 O 0.78069 0.25481 0.52281 0.0
O34 O 0.80582 0.22788 0.44383 0.0
O35 O 0.75964 0.18119 0.54437 0.0
O36 O 0.7956 0.14838 0.47139 0.0
O37 O 0.73367 0.21129 0.46727 0.0
O38 O 0.79798 0.14725 0.51524 0.0
O39 O 0.73599 0.21394 0.5267 0.0
O40 O 0.76098 0.18667 0.44286 0.0
O41 O 0.80126 0.22538 0.54846 0.0
O42 O 0.84002 0.19005 0.47364 0.0
O43 O 0.77696 0.25384 0.46443 0.0
Sc44 Sc 0.80192 0.80054 0.52734 0.0
Sc45 Sc 0.75952 0.75742 0.49315 0.0
Sc46 Sc 0.80151 0.79998 0.45778 0.0
O47 O 0.78767 0.78597 0.49276 0.0
C48 C 0.79768 0.85259 0.49205 0.0
C49 C 0.74071 0.79465 0.54038 0.0
C50 C 0.74002 0.79367 0.44562 0.0
C51 C 0.79653 0.73911 0.54057 0.0
C52 C 0.85407 0.79724 0.49245 0.0
C53 C 0.79627 0.73848 0.44556 0.0
O54 O 0.79914 0.84082 0.51413 0.0
O55 O 0.73654 0.7772 0.52286 0.0
O56 O 0.76262 0.80344 0.44085 0.0
O57 O 0.80619 0.76191 0.54469 0.0
O58 O 0.84201 0.79812 0.4705 0.0
O59 O 0.77915 0.7343 0.46338 0.0
O60 O 0.8422 0.79772 0.51449 0.0
O61 O 0.7798 0.73453 0.52249 0.0
O62 O 0.80634 0.76108 0.44145 0.0
O63 O 0.76322 0.80502 0.54414 0.0
O64 O 0.79812 0.84042 0.47015 0.0
O65 O 0.73599 0.77714 0.464 0.0
Sc66 Sc 0.18945 0.80236 0.45909 0.0
Sc67 Sc 0.23034 0.75769 0.49307 0.0
Sc68 Sc 0.18992 0.80168 0.52864 0.0
O69 O 0.20323 0.78725 0.49361 0.0
C70 C 0.1948 0.85425 0.49449 0.0
C71 C 0.25044 0.79466 0.44615 0.0
C72 C 0.25121 0.79335 0.54057 0.0
C73 C 0.19278 0.74082 0.44558 0.0
C74 C 0.13726 0.80006 0.49401 0.0
C75 C 0.1932 0.73999 0.54075 0.0
O76 O 0.19312 0.84252 0.47241 0.0
O77 O 0.25394 0.77682 0.46342 0.0
O78 O 0.22902 0.80407 0.54533 0.0
O79 O 0.18411 0.76401 0.44147 0.0
O80 O 0.14934 0.8007 0.51598 0.0
O81 O 0.20994 0.73515 0.52274 0.0
O82 O 0.14915 0.80039 0.47197 0.0
O83 O 0.20923 0.73553 0.46372 0.0
O84 O 0.18414 0.76298 0.54504 0.0
O85 O 0.22832 0.80589 0.44249 0.0
O86 O 0.19416 0.84208 0.51637 0.0
O87 O 0.25454 0.77652 0.5223 0.0
Sc88 Sc 0.45809 0.18846 0.19003 0.0
Sc89 Sc 0.4936 0.23159 0.23137 0.0
Sc90 Sc 0.52772 0.18867 0.18876 0.0
O91 O 0.49314 0.2029 0.20338 0.0
C92 C 0.49314 0.13624 0.19352 0.0
C93 C 0.44665 0.19476 0.25152 0.0
C94 C 0.54148 0.19506 0.24982 0.0
C95 C 0.44543 0.24996 0.19519 0.0
C96 C 0.49191 0.19163 0.13708 0.0
C97 C 0.54032 0.2502 0.19356 0.0
O98 O 0.47104 0.14809 0.19304 0.0
O99 O 0.4647 0.21177 0.25525 0.0
O100 O 0.54527 0.18476 0.22728 0.0
O101 O 0.44112 0.2272 0.18554 0.0
O102 O 0.51418 0.19104 0.14861 0.0
O103 O 0.52264 0.25464 0.21076 0.0
O104 O 0.47015 0.19073 0.14947 0.0
O105 O 0.46362 0.2544 0.21185 0.0
O106 O 0.5444 0.22744 0.18384 0.0
O107 O 0.4419 0.18466 0.22908 0.0
O108 O 0.51507 0.1483 0.19207 0.0
O109 O 0.52362 0.21213 0.25411 0.0
Sc110 Sc 0.79977 0.52847 0.18602 0.0
Sc111 Sc 0.75639 0.49494 0.22867 0.0
Sc112 Sc 0.79929 0.45883 0.18771 0.0
O113 O 0.78515 0.49408 0.20079 0.0
C114 C 0.79669 0.49241 0.13457 0.0
C115 C 0.73837 0.54179 0.19064 0.0
C116 C 0.73769 0.44686 0.1925 0.0
C117 C 0.79355 0.54242 0.24704 0.0
C118 C 0.85181 0.49329 0.19112 0.0
C119 C 0.79256 0.44761 0.24918 0.0
O120 O 0.79727 0.51476 0.14594 0.0
O121 O 0.73373 0.52416 0.20784 0.0
O122 O 0.76045 0.44232 0.18303 0.0
O123 O 0.80387 0.54603 0.22449 0.0
O124 O 0.83969 0.47134 0.19092 0.0
O125 O 0.77573 0.46586 0.25278 0.0
O126 O 0.84003 0.51537 0.18935 0.0
O127 O 0.77622 0.52482 0.25138 0.0
O128 O 0.80272 0.44274 0.22681 0.0
O129 O 0.76119 0.54564 0.18101 0.0
O130 O 0.79744 0.47072 0.1471 0.0
O131 O 0.7333 0.46512 0.20912 0.0
Sc132 Sc 0.45933 0.80106 0.18709 0.0
Sc133 Sc 0.49387 0.75693 0.22812 0.0
Sc134 Sc 0.52894 0.8004 0.18679 0.0
O135 O 0.49405 0.78613 0.20066 0.0
C136 C 0.49374 0.79857 0.13461 0.0
C137 C 0.44613 0.73951 0.19108 0.0
C138 C 0.54127 0.7388 0.19071 0.0
C139 C 0.44683 0.7938 0.24819 0.0
C140 C 0.49471 0.85299 0.19183 0.0
C141 C 0.54157 0.79289 0.24797 0.0
O142 O 0.47179 0.79895 0.14669 0.0
O143 O 0.46438 0.73443 0.2075 0.0
O144 O 0.54531 0.76161 0.18109 0.0
O145 O 0.44297 0.80482 0.22603 0.0
O146 O 0.51663 0.84084 0.19095 0.0
O147 O 0.52323 0.77624 0.25185 0.0
O148 O 0.4726 0.84124 0.19046 0.0
O149 O 0.46426 0.77612 0.25173 0.0
O150 O 0.54614 0.80311 0.22555 0.0
O151 O 0.44191 0.76258 0.18217 0.0
O152 O 0.51583 0.79921 0.14645 0.0
O153 O 0.52354 0.73427 0.20783 0.0
Sc154 Sc 0.1876 0.46054 0.18858 0.0
Sc155 Sc 0.23009 0.49697 0.22978 0.0
Sc156 Sc 0.18672 0.53016 0.18684 0.0
O157 O 0.20147 0.49588 0.20174 0.0
C158 C 0.19026 0.49415 0.13541 0.0
C159 C 0.24911 0.44866 0.19395 0.0
C160 C 0.24812 0.5436 0.19158 0.0
C161 C 0.19419 0.44951 0.25023 0.0
C162 C 0.13487 0.49469 0.19184 0.0
C163 C 0.19278 0.5446 0.24768 0.0
O164 O 0.18939 0.47243 0.14789 0.0
O165 O 0.25325 0.4668 0.21077 0.0
O166 O 0.22523 0.54751 0.18208 0.0
O167 O 0.18441 0.44433 0.22774 0.0
O168 O 0.14653 0.51682 0.18994 0.0
O169 O 0.21031 0.52721 0.25214 0.0
O170 O 0.14712 0.4728 0.19181 0.0
O171 O 0.21056 0.46815 0.25398 0.0
O172 O 0.18228 0.54781 0.22516 0.0
O173 O 0.22653 0.4443 0.18397 0.0
O174 O 0.18961 0.51646 0.14684 0.0
O175 O 0.25285 0.52591 0.2087 0.0
Sc176 Sc 0.46215 0.80111 0.79873 0.0
Sc177 Sc 0.49797 0.75703 0.75862 0.0
Sc178 Sc 0.53171 0.80114 0.80035 0.0
O179 O 0.49726 0.78644 0.78589 0.0
C180 C 0.49698 0.85337 0.79459 0.0
C181 C 0.45093 0.79319 0.73734 0.0
C182 C 0.54564 0.79355 0.73955 0.0
C183 C 0.44961 0.73948 0.79491 0.0
C184 C 0.4958 0.79906 0.85187 0.0
C185 C 0.54465 0.73956 0.79706 0.0
O186 O 0.47492 0.84146 0.795 0.0
O187 O 0.46904 0.77613 0.73413 0.0
O188 O 0.54918 0.80446 0.76184 0.0
O189 O 0.44528 0.76247 0.80398 0.0
O190 O 0.51808 0.79939 0.84041 0.0
O191 O 0.52699 0.73454 0.77998 0.0
O192 O 0.47405 0.79977 0.83942 0.0
O193 O 0.4679 0.73459 0.77848 0.0
O194 O 0.54863 0.76262 0.80609 0.0
O195 O 0.44615 0.80393 0.75949 0.0
O196 O 0.51892 0.84138 0.79639 0.0
O197 O 0.52806 0.77611 0.73558 0.0
Sc198 Sc 0.1893 0.46192 0.79933 0.0
Sc199 Sc 0.23184 0.49787 0.75785 0.0
Sc200 Sc 0.18954 0.53157 0.80142 0.0
O201 O 0.20357 0.49712 0.78622 0.0
C202 C 0.13708 0.49704 0.7967 0.0
C203 C 0.19469 0.45127 0.73757 0.0
C204 C 0.19518 0.54612 0.74053 0.0
C205 C 0.25058 0.44902 0.79298 0.0
C206 C 0.19291 0.49517 0.85264 0.0
C207 C 0.25108 0.54398 0.79617 0.0
O208 O 0.14895 0.47493 0.7968 0.0
O209 O 0.21151 0.46947 0.73375 0.0
O210 O 0.18509 0.54957 0.7632 0.0
O211 O 0.22806 0.44483 0.80318 0.0
O212 O 0.19231 0.51757 0.84137 0.0
O213 O 0.25529 0.52641 0.77878 0.0
O214 O 0.19191 0.47353 0.84001 0.0
O215 O 0.25474 0.46735 0.7764 0.0
O216 O 0.22841 0.54814 0.80605 0.0
O217 O 0.18511 0.44616 0.76014 0.0
O218 O 0.14914 0.51897 0.79837 0.0
O219 O 0.21227 0.52838 0.73585 0.0
Sc220 Sc 0.45977 0.18796 0.80133 0.0
Sc221 Sc 0.49492 0.22783 0.75683 0.0
Sc222 Sc 0.52933 0.18995 0.80344 0.0
O223 O 0.49463 0.20191 0.78725 0.0
C224 C 0.49256 0.19441 0.8544 0.0
C225 C 0.44752 0.24927 0.79193 0.0
C226 C 0.54151 0.25008 0.79342 0.0
C227 C 0.44719 0.1901 0.74007 0.0
C228 C 0.49639 0.1365 0.80079 0.0
C229 C 0.54303 0.19136 0.74185 0.0
O230 O 0.47096 0.19399 0.84175 0.0
O231 O 0.46655 0.25309 0.77599 0.0
O232 O 0.5435 0.22973 0.80791 0.0
O233 O 0.44376 0.18015 0.76277 0.0
O234 O 0.51815 0.14905 0.8005 0.0
O235 O 0.52285 0.20458 0.73506 0.0
O236 O 0.47404 0.14791 0.80191 0.0
O237 O 0.46428 0.20782 0.73555 0.0
O238 O 0.54877 0.18629 0.76571 0.0
O239 O 0.44235 0.22679 0.80188 0.0
O240 O 0.51486 0.19236 0.8432 0.0
O241 O 0.52611 0.25136 0.77368 0.0
Sc242 Sc 0.80132 0.5298 0.80145 0.0
Sc243 Sc 0.75642 0.49628 0.76066 0.0
Sc244 Sc 0.80249 0.46036 0.79783 0.0
O245 O 0.78679 0.49552 0.78666 0.0
C246 C 0.85401 0.49664 0.79446 0.0
C247 C 0.79218 0.54366 0.74052 0.0
C248 C 0.79267 0.44981 0.73755 0.0
C249 C 0.74021 0.54315 0.79969 0.0
C250 C 0.80027 0.4919 0.85192 0.0
C251 C 0.74061 0.44744 0.79558 0.0
O252 O 0.84158 0.51839 0.79485 0.0
O253 O 0.77623 0.52475 0.73611 0.0
O254 O 0.80723 0.44741 0.75777 0.0
O255 O 0.76289 0.54569 0.80999 0.0
O256 O 0.79922 0.47043 0.83893 0.0
O257 O 0.7341 0.46821 0.78318 0.0
O258 O 0.8021 0.51445 0.84102 0.0
O259 O 0.73553 0.52695 0.78118 0.0
O260 O 0.76444 0.44122 0.80043 0.0
O261 O 0.80186 0.54836 0.76321 0.0
O262 O 0.84253 0.47444 0.79639 0.0
O263 O 0.77287 0.46521 0.73663 0.0
H264 H 0.20883 0.30268 0.45401 0.0
H265 H 0.20228 0.33869 0.42281 0.0
H266 H 0.15937 0.28644 0.37119 0.0
H267 H 0.1655 0.25024 0.40244 0.0
H268 H 0.22196 0.33677 0.37201 0.0
H269 H 0.11366 0.35328 0.37086 0.0
H270 H 0.13012 0.33557 0.39702 0.0
H271 H 0.12358 0.31957 0.3661 0.0
C272 C 0.19764 0.29886 0.43622 0.0
C273 C 0.18786 0.27347 0.43066 0.0
C274 C 0.19387 0.31952 0.41845 0.0
C275 C 0.18017 0.31528 0.39482 0.0
C276 C 0.16956 0.29025 0.38956 0.0
H277 H 0.16685 0.40281 0.24929 0.0
H278 H 0.16144 0.37141 0.28547 0.0
C279 C 0.17324 0.26954 0.40739 0.0
C280 C 0.17956 0.33626 0.37456 0.0
H281 H 0.13865 0.37475 0.33735 0.0
C282 C 0.20375 0.34525 0.3646 0.0
C283 C 0.15576 0.34703 0.36479 0.0
C284 C 0.12928 0.33857 0.37536 0.0
C285 C 0.20483 0.36448 0.34483 0.0
C286 C 0.18106 0.3754 0.33513 0.0
C287 C 0.15681 0.3664 0.34499 0.0
C288 C 0.18127 0.3958 0.31431 0.0
C289 C 0.23141 0.37247 0.33403 0.0
C290 C 0.19337 0.42026 0.31886 0.0
C291 C 0.19667 0.43818 0.29825 0.0
C292 C 0.18771 0.43203 0.27272 0.0
C293 C 0.17413 0.40814 0.26865 0.0
C294 C 0.17096 0.39017 0.28929 0.0
H295 H 0.24699 0.35786 0.33902 0.0
H296 H 0.23065 0.37471 0.31228 0.0
H297 H 0.23722 0.39174 0.34266 0.0
H298 H 0.20102 0.42513 0.3382 0.0
H299 H 0.20689 0.45653 0.3022 0.0
H300 H 0.54159 0.21486 0.3 0.0
H301 H 0.57391 0.20673 0.33465 0.0
H302 H 0.61418 0.15099 0.28459 0.0
H303 H 0.58217 0.15927 0.24948 0.0
H304 H 0.59076 0.16053 0.36113 0.0
H305 H 0.67089 0.20633 0.30172 0.0
H306 H 0.63653 0.2094 0.29297 0.0
H307 H 0.65395 0.17923 0.28638 0.0
C308 C 0.55717 0.2007 0.29633 0.0
C309 C 0.55948 0.18802 0.27175 0.0
C310 C 0.57558 0.19602 0.31623 0.0
C311 C 0.59663 0.17861 0.31199 0.0
C312 C 0.59831 0.16489 0.28803 0.0
H313 H 0.73889 0.16089 0.40677 0.0
H314 H 0.70371 0.15231 0.37505 0.0
C315 C 0.57994 0.1696 0.26803 0.0
C316 C 0.61756 0.17617 0.33215 0.0
H317 H 0.68215 0.19094 0.34386 0.0
C318 C 0.61082 0.16697 0.35735 0.0
C319 C 0.64366 0.18464 0.3271 0.0
C320 C 0.65177 0.19566 0.30067 0.0
C321 C 0.62949 0.16627 0.37778 0.0
C322 C 0.65538 0.17539 0.37288 0.0
C323 C 0.66228 0.18389 0.3475 0.0
C324 C 0.67533 0.1779 0.39403 0.0
C325 C 0.62134 0.15583 0.40439 0.0
C326 C 0.67091 0.19495 0.41537 0.0
C327 C 0.69098 0.19994 0.43358 0.0
C328 C 0.71594 0.18816 0.43061 0.0
C329 C 0.71998 0.17043 0.40963 0.0
C330 C 0.69989 0.16543 0.39148 0.0
H331 H 0.604 0.1425 0.40282 0.0
H332 H 0.63776 0.14496 0.414 0.0
H333 H 0.61575 0.17263 0.41727 0.0
H334 H 0.65229 0.20523 0.41737 0.0
H335 H 0.68716 0.21374 0.44943 0.0
H336 H 0.83319 0.73856 0.40606 0.0
H337 H 0.84144 0.70382 0.37366 0.0
H338 H 0.78394 0.65414 0.41178 0.0
H339 H 0.77576 0.68848 0.44451 0.0
H340 H 0.83028 0.62708 0.39489 0.0
H341 H 0.78627 0.68934 0.31588 0.0
H342 H 0.81331 0.7038 0.33364 0.0
H343 H 0.78281 0.69718 0.35038 0.0
C344 C 0.82247 0.72016 0.40777 0.0
C345 C 0.80352 0.71649 0.42771 0.0
C346 C 0.82718 0.70037 0.38917 0.0
C347 C 0.81293 0.67667 0.39009 0.0
C348 C 0.79504 0.67238 0.41071 0.0
H349 H 0.77543 0.54176 0.29784 0.0
H350 H 0.7848 0.57345 0.33273 0.0
C351 C 0.79036 0.69209 0.42936 0.0
C352 C 0.81527 0.65698 0.36872 0.0
H353 H 0.80082 0.64708 0.3038 0.0
C354 C 0.82407 0.63146 0.3749 0.0
C355 C 0.80715 0.66283 0.34269 0.0
C356 C 0.79665 0.68968 0.33516 0.0
C357 C 0.82461 0.61146 0.35575 0.0
C358 C 0.81571 0.61712 0.32995 0.0
C359 C 0.80772 0.64285 0.3236 0.0
C360 C 0.81248 0.59635 0.3097 0.0
C361 C 0.83459 0.58446 0.36333 0.0
C362 C 0.82475 0.59884 0.28506 0.0
C363 C 0.81925 0.58087 0.2649 0.0
C364 C 0.80117 0.56018 0.26898 0.0
C365 C 0.78946 0.5574 0.29396 0.0
C366 C 0.79497 0.57538 0.31406 0.0
H367 H 0.84816 0.5855 0.38051 0.0
H368 H 0.81761 0.57185 0.36895 0.0
H369 H 0.84506 0.57487 0.34666 0.0
H370 H 0.83818 0.61504 0.28126 0.0
H371 H 0.82868 0.58361 0.24595 0.0
H372 H 0.3002 0.7736 0.44585 0.0
H373 H 0.33539 0.78209 0.41425 0.0
H374 H 0.28683 0.84012 0.37535 0.0
H375 H 0.25125 0.83155 0.40665 0.0
H376 H 0.30641 0.80239 0.34184 0.0
H377 H 0.38696 0.84279 0.40357 0.0
H378 H 0.37363 0.81257 0.41631 0.0
H379 H 0.35311 0.8415 0.41461 0.0
C380 C 0.29707 0.78847 0.43084 0.0
C381 C 0.27278 0.80175 0.42871 0.0
C382 C 0.31734 0.79346 0.41292 0.0
C383 C 0.31383 0.81199 0.39269 0.0
C384 C 0.28996 0.82587 0.39095 0.0
H385 H 0.40882 0.8323 0.24982 0.0
H386 H 0.37732 0.84087 0.28526 0.0
C387 C 0.26964 0.82089 0.40885 0.0
C388 C 0.33394 0.81465 0.37175 0.0
H389 H 0.39947 0.82581 0.36112 0.0
C390 C 0.32667 0.80796 0.34593 0.0
C391 C 0.36032 0.82182 0.37724 0.0
C392 C 0.36895 0.83033 0.4044 0.0
C393 C 0.34535 0.80702 0.32562 0.0
C394 C 0.37192 0.81344 0.33125 0.0
C395 C 0.37906 0.82092 0.35691 0.0
C396 C 0.39278 0.81065 0.31111 0.0
C397 C 0.33674 0.79792 0.29861 0.0
C398 C 0.41255 0.7916 0.31444 0.0
C399 C 0.43069 0.78673 0.29434 0.0
C400 C 0.42935 0.80085 0.27049 0.0
C401 C 0.41023 0.82083 0.26776 0.0
C402 C 0.39217 0.82574 0.28796 0.0
H403 H 0.31694 0.78853 0.29899 0.0
H404 H 0.33579 0.81516 0.28517 0.0
H405 H 0.35108 0.78359 0.2903 0.0
H406 H 0.41337 0.77982 0.33224 0.0
H407 H 0.44522 0.77133 0.29722 0.0
H408 H 0.21045 0.68875 0.54053 0.0
H409 H 0.20123 0.65466 0.57314 0.0
H410 H 0.14866 0.70761 0.614 0.0
H411 H 0.15798 0.74207 0.58168 0.0
H412 H 0.1868 0.6865 0.64588 0.0
H413 H 0.13843 0.60709 0.5886 0.0
H414 H 0.16857 0.61822 0.57378 0.0
H415 H 0.1411 0.64055 0.57659 0.0
C416 C 0.19656 0.69307 0.55616 0.0
C417 C 0.18513 0.71827 0.55856 0.0
C418 C 0.19114 0.67344 0.57468 0.0
C419 C 0.17402 0.67851 0.59579 0.0
C420 C 0.16182 0.70328 0.59774 0.0
H421 H 0.15878 0.58625 0.74163 0.0
H422 H 0.14915 0.61807 0.70668 0.0
C423 C 0.16723 0.72295 0.57925 0.0
C424 C 0.17136 0.65906 0.61737 0.0
H425 H 0.15758 0.59439 0.63014 0.0
C426 C 0.17994 0.66648 0.6426 0.0
C427 C 0.16248 0.63299 0.61295 0.0
C428 C 0.15188 0.62428 0.58656 0.0
C429 C 0.1812 0.64815 0.66324 0.0
C430 C 0.17319 0.62182 0.65858 0.0
C431 C 0.16371 0.61461 0.6336 0.0
C432 C 0.17662 0.6011 0.6788 0.0
C433 C 0.1924 0.6568 0.68944 0.0
C434 C 0.19448 0.58048 0.67427 0.0
C435 C 0.19994 0.56219 0.69408 0.0
C436 C 0.18761 0.56419 0.71885 0.0
C437 C 0.16885 0.58428 0.72292 0.0
C438 C 0.16335 0.60253 0.703 0.0
H439 H 0.20246 0.67623 0.68812 0.0
H440 H 0.17615 0.65857 0.70397 0.0
H441 H 0.2067 0.64202 0.69701 0.0
H442 H 0.20486 0.57902 0.65566 0.0
H443 H 0.21436 0.54691 0.69015 0.0
H444 H 0.24511 0.16745 0.59067 0.0
H445 H 0.28068 0.16015 0.62249 0.0
H446 H 0.33602 0.19684 0.56944 0.0
H447 H 0.3007 0.20457 0.53767 0.0
H448 H 0.3319 0.13476 0.61968 0.0
H449 H 0.33779 0.24294 0.63669 0.0
H450 H 0.31048 0.22769 0.61969 0.0
H451 H 0.34116 0.23324 0.60282 0.0
C452 C 0.2649 0.17368 0.5856 0.0
C453 C 0.26997 0.18702 0.5618 0.0
C454 C 0.28519 0.16943 0.6038 0.0
C455 C 0.31079 0.17838 0.59844 0.0
C456 C 0.31624 0.19022 0.57408 0.0
H457 H 0.45287 0.20106 0.68772 0.0
H458 H 0.42062 0.19409 0.65276 0.0
C459 C 0.29601 0.19461 0.55596 0.0
C460 C 0.3314 0.17725 0.61901 0.0
H461 H 0.37046 0.21666 0.65701 0.0
C462 C 0.34035 0.15261 0.62794 0.0
C463 C 0.34212 0.20062 0.62984 0.0
C464 C 0.33227 0.22764 0.62199 0.0
C465 C 0.36039 0.15076 0.64701 0.0
C466 C 0.37138 0.17418 0.65746 0.0
C467 C 0.36214 0.19875 0.64872 0.0
C468 C 0.3924 0.17407 0.67767 0.0
C469 C 0.37003 0.12391 0.65546 0.0
C470 C 0.38742 0.16454 0.70314 0.0
C471 C 0.40586 0.16848 0.72327 0.0
C472 C 0.42942 0.18229 0.71826 0.0
C473 C 0.43483 0.1906 0.69237 0.0
C474 C 0.41647 0.18656 0.67231 0.0
H475 H 0.36396 0.10825 0.64137 0.0
H476 H 0.39186 0.12371 0.65731 0.0
H477 H 0.36157 0.11908 0.67503 0.0
H478 H 0.36875 0.15525 0.70777 0.0
H479 H 0.40106 0.16187 0.74299 0.0
H480 H 0.75617 0.42711 0.70591 0.0
H481 H 0.76355 0.39519 0.67075 0.0
H482 H 0.84774 0.4026 0.68154 0.0
H483 H 0.84023 0.43327 0.71819 0.0
H484 H 0.78516 0.3968 0.62572 0.0
H485 H 0.8422 0.32518 0.68573 0.0
H486 H 0.82635 0.35354 0.70008 0.0
H487 H 0.85762 0.35693 0.68356 0.0
C488 C 0.77625 0.42195 0.70073 0.0
C489 C 0.79763 0.43244 0.71482 0.0
C490 C 0.78049 0.40371 0.68062 0.0
C491 C 0.80621 0.39599 0.67377 0.0
C492 C 0.8277 0.40748 0.68702 0.0
H493 H 0.81224 0.29818 0.53022 0.0
H494 H 0.82042 0.33485 0.56065 0.0
C495 C 0.82342 0.42518 0.70776 0.0
C496 C 0.81003 0.37572 0.65294 0.0
H497 H 0.8368 0.31509 0.64075 0.0
C498 C 0.79647 0.37892 0.62902 0.0
C499 C 0.82469 0.35231 0.65728 0.0
C500 C 0.83832 0.34661 0.68313 0.0
C501 C 0.79603 0.35896 0.60988 0.0
C502 C 0.81094 0.33567 0.61406 0.0
C503 C 0.8255 0.33298 0.63748 0.0
C504 C 0.80973 0.31286 0.59568 0.0
C505 C 0.77825 0.36255 0.58625 0.0
C506 C 0.80298 0.28776 0.60537 0.0
C507 C 0.79946 0.26658 0.58814 0.0
C508 C 0.80206 0.27027 0.56088 0.0
C509 C 0.80979 0.29503 0.55119 0.0
C510 C 0.81419 0.31602 0.56853 0.0
H511 H 0.76283 0.37771 0.58989 0.0
H512 H 0.79018 0.36928 0.56921 0.0
H513 H 0.76828 0.3438 0.58087 0.0
H514 H 0.79952 0.28473 0.62622 0.0
H515 H 0.79341 0.24765 0.59603 0.0
H516 H 0.6902 0.7755 0.54041 0.0
H517 H 0.65564 0.78423 0.57262 0.0
H518 H 0.70651 0.83935 0.61278 0.0
H519 H 0.74147 0.83053 0.58084 0.0
H520 H 0.68613 0.80125 0.6453 0.0
H521 H 0.60616 0.84611 0.586 0.0
H522 H 0.61834 0.81594 0.57204 0.0
H523 H 0.63981 0.84412 0.57447 0.0
C524 C 0.69397 0.78981 0.55581 0.0
C525 C 0.71873 0.80216 0.55811 0.0
C526 C 0.67406 0.79495 0.5741 0.0
C527 C 0.6784 0.8127 0.59487 0.0
C528 C 0.70274 0.82572 0.59676 0.0
H529 H 0.58487 0.83084 0.73917 0.0
H530 H 0.61658 0.83962 0.70397 0.0
C531 C 0.7227 0.82059 0.5785 0.0
C532 C 0.65865 0.8153 0.61615 0.0
H533 H 0.59356 0.82786 0.62791 0.0
C534 C 0.666 0.80752 0.64165 0.0
C535 C 0.63242 0.8234 0.61122 0.0
C536 C 0.62375 0.83312 0.58449 0.0
C537 C 0.6475 0.80637 0.66212 0.0
C538 C 0.62106 0.81367 0.657 0.0
C539 C 0.61387 0.82227 0.63171 0.0
C540 C 0.60031 0.81063 0.67721 0.0
C541 C 0.65613 0.79612 0.6887 0.0
C542 C 0.58009 0.79217 0.67335 0.0
C543 C 0.56185 0.78717 0.69333 0.0
C544 C 0.56351 0.80058 0.71756 0.0
C545 C 0.58317 0.81993 0.72089 0.0
C546 C 0.60136 0.82496 0.70084 0.0
H547 H 0.67574 0.78637 0.68782 0.0
H548 H 0.6575 0.81283 0.70277 0.0
H549 H 0.64156 0.78178 0.69658 0.0
H550 H 0.57894 0.78098 0.65519 0.0
H551 H 0.54691 0.77226 0.68997 0.0
H552 H 0.45309 0.20806 0.30338 0.0
H553 H 0.42225 0.20059 0.33951 0.0
H554 H 0.37027 0.15854 0.28691 0.0
H555 H 0.40115 0.16552 0.25066 0.0
H556 H 0.37184 0.22039 0.33838 0.0
H557 H 0.36952 0.11179 0.35253 0.0
H558 H 0.39569 0.12829 0.33486 0.0
H559 H 0.36453 0.1222 0.31907 0.0
C560 C 0.43532 0.19683 0.29952 0.0
C561 C 0.42951 0.18759 0.27403 0.0
C562 C 0.41776 0.19252 0.32024 0.0
C563 C 0.39411 0.17882 0.31593 0.0
C564 C 0.38867 0.16869 0.29078 0.0
H565 H 0.24718 0.16825 0.40148 0.0
H566 H 0.28349 0.16188 0.37032 0.0
C567 C 0.40628 0.17289 0.27003 0.0
C568 C 0.37387 0.17796 0.33688 0.0
H569 H 0.33566 0.13665 0.37391 0.0
C570 C 0.36413 0.20208 0.34634 0.0
C571 C 0.36368 0.15402 0.34697 0.0
C572 C 0.37403 0.12759 0.33803 0.0
C573 C 0.34417 0.20297 0.36536 0.0
C574 C 0.334 0.17907 0.37552 0.0
C575 C 0.34365 0.15489 0.36609 0.0
C576 C 0.31306 0.17918 0.39573 0.0
C577 C 0.33369 0.22951 0.37398 0.0
C578 C 0.31798 0.19011 0.42062 0.0
C579 C 0.29735 0.19394 0.43837 0.0
C580 C 0.27141 0.18673 0.43159 0.0
C581 C 0.26688 0.17416 0.40727 0.0
C582 C 0.28758 0.17045 0.38945 0.0
H583 H 0.33929 0.24547 0.36005 0.0
H584 H 0.31185 0.22909 0.37571 0.0
H585 H 0.34196 0.2345 0.39361 0.0
H586 H 0.33765 0.19658 0.42592 0.0
H587 H 0.30163 0.20331 0.45708 0.0
H588 H 0.77732 0.45297 0.30065 0.0
H589 H 0.78463 0.42193 0.33667 0.0
H590 H 0.83001 0.37192 0.28496 0.0
H591 H 0.82315 0.40297 0.24881 0.0
H592 H 0.76676 0.37037 0.33412 0.0
H593 H 0.87476 0.37278 0.3523 0.0
H594 H 0.85768 0.39855 0.33455 0.0
H595 H 0.86557 0.36796 0.31845 0.0
C596 C 0.78923 0.4356 0.29697 0.0
C597 C 0.79947 0.43038 0.27173 0.0
C598 C 0.79344 0.41793 0.31763 0.0
C599 C 0.80804 0.39478 0.31352 0.0
C600 C 0.81912 0.38994 0.28867 0.0
H601 H 0.8226 0.24863 0.40091 0.0
H602 H 0.82826 0.28472 0.36928 0.0
C603 C 0.81499 0.40764 0.26797 0.0
C604 C 0.80904 0.37439 0.33433 0.0
H605 H 0.85062 0.3381 0.37298 0.0
C606 C 0.78508 0.36348 0.34278 0.0
C607 C 0.83302 0.36527 0.34531 0.0
C608 C 0.85924 0.37687 0.33739 0.0
C609 C 0.7844 0.34346 0.36174 0.0
C610 C 0.80832 0.33444 0.3729 0.0
C611 C 0.83235 0.3452 0.3644 0.0
C612 C 0.8084 0.31377 0.3934 0.0
C613 C 0.75808 0.33173 0.36931 0.0
C614 C 0.79624 0.31853 0.41773 0.0
C615 C 0.79282 0.29803 0.43571 0.0
C616 C 0.80169 0.27239 0.42975 0.0
C617 C 0.81543 0.2681 0.40604 0.0
C618 C 0.81872 0.28867 0.38797 0.0
H619 H 0.74252 0.33635 0.35459 0.0
H620 H 0.75952 0.30995 0.37137 0.0
H621 H 0.7518 0.33998 0.38857 0.0
H622 H 0.78854 0.33793 0.4224 0.0
H623 H 0.78252 0.30214 0.45396 0.0
H624 H 0.58851 0.81973 0.24644 0.0
H625 H 0.62005 0.82553 0.28248 0.0
H626 H 0.56627 0.7871 0.3359 0.0
H627 H 0.53476 0.78082 0.30005 0.0
H628 H 0.61704 0.84925 0.33379 0.0
H629 H 0.63309 0.7408 0.33761 0.0
H630 H 0.61623 0.75671 0.31062 0.0
H631 H 0.59929 0.75081 0.34117 0.0
C632 C 0.58323 0.81277 0.26591 0.0
C633 C 0.55928 0.7994 0.27025 0.0
C634 C 0.60126 0.81617 0.28647 0.0
C635 C 0.59563 0.8063 0.31165 0.0
C636 C 0.57114 0.79439 0.31643 0.0
H637 H 0.68805 0.78083 0.45206 0.0
H638 H 0.65211 0.7875 0.42082 0.0
C639 C 0.55317 0.79084 0.29591 0.0
C640 C 0.61602 0.80678 0.33245 0.0
H641 H 0.65414 0.76634 0.37032 0.0
C642 C 0.62521 0.83118 0.34183 0.0
C643 C 0.6267 0.78312 0.34267 0.0
C644 C 0.61855 0.75636 0.33238 0.0
C645 C 0.64452 0.83249 0.36166 0.0
C646 C 0.65501 0.80879 0.37198 0.0
C647 C 0.64586 0.78446 0.36249 0.0
C648 C 0.67592 0.80842 0.39229 0.0
C649 C 0.65326 0.85911 0.37169 0.0
C650 C 0.70113 0.81837 0.38675 0.0
C651 C 0.72181 0.8146 0.40459 0.0
C652 C 0.71764 0.80055 0.42815 0.0
C653 C 0.69205 0.79155 0.43404 0.0
C654 C 0.67143 0.7954 0.41625 0.0
H655 H 0.63882 0.87483 0.36667 0.0
H656 H 0.65605 0.85875 0.39339 0.0
H657 H 0.67242 0.86432 0.3625 0.0
H658 H 0.7051 0.82803 0.36813 0.0
H659 H 0.74125 0.82176 0.3994 0.0
H660 H 0.15914 0.74385 0.40329 0.0
H661 H 0.14948 0.70932 0.37105 0.0
H662 H 0.19868 0.65494 0.41419 0.0
H663 H 0.20814 0.68904 0.44669 0.0
H664 H 0.18709 0.68606 0.34043 0.0
H665 H 0.13475 0.60957 0.39796 0.0
H666 H 0.13858 0.64306 0.40958 0.0
H667 H 0.16501 0.61961 0.41332 0.0
C668 C 0.16755 0.72442 0.40622 0.0
C669 C 0.18456 0.7193 0.42755 0.0
C670 C 0.16196 0.70471 0.38777 0.0
C671 C 0.17308 0.67949 0.39041 0.0
C672 C 0.18938 0.67408 0.41209 0.0
H673 H 0.21187 0.54557 0.29818 0.0
H674 H 0.2028 0.57828 0.33231 0.0
C675 C 0.19496 0.69372 0.43055 0.0
C676 C 0.17019 0.65973 0.36911 0.0
H677 H 0.15474 0.59522 0.35729 0.0
C678 C 0.17954 0.66635 0.34395 0.0
C679 C 0.16041 0.63402 0.37383 0.0
C680 C 0.14887 0.6262 0.40008 0.0
C681 C 0.18066 0.64755 0.32371 0.0
C682 C 0.17179 0.62157 0.32871 0.0
C683 C 0.16157 0.61516 0.35359 0.0
C684 C 0.17484 0.6004 0.30888 0.0
C685 C 0.19256 0.65529 0.29755 0.0
C686 C 0.16154 0.60165 0.28469 0.0
C687 C 0.16674 0.58305 0.26503 0.0
C688 C 0.18529 0.5628 0.2693 0.0
C689 C 0.19762 0.56096 0.29409 0.0
C690 C 0.19241 0.57959 0.31369 0.0
H691 H 0.20299 0.67455 0.2986 0.0
H692 H 0.2067 0.64002 0.29067 0.0
H693 H 0.17665 0.65699 0.28262 0.0
H694 H 0.14758 0.61737 0.2808 0.0
H695 H 0.15668 0.58495 0.2463 0.0
H696 H 0.30279 0.77923 0.53354 0.0
H697 H 0.33922 0.78483 0.56446 0.0
H698 H 0.28786 0.82646 0.61791 0.0
H699 H 0.25118 0.82126 0.58695 0.0
H700 H 0.34063 0.84822 0.61293 0.0
H701 H 0.33975 0.74033 0.63287 0.0
H702 H 0.34285 0.74913 0.59873 0.0
H703 H 0.31303 0.75694 0.61621 0.0
C704 C 0.29921 0.78981 0.55174 0.0
C705 C 0.27391 0.79945 0.55793 0.0
C706 C 0.32008 0.79296 0.56938 0.0
C707 C 0.31604 0.80562 0.5936 0.0
C708 C 0.29127 0.81652 0.59931 0.0
H709 H 0.40623 0.8237 0.73705 0.0
H710 H 0.37507 0.82953 0.70081 0.0
C711 C 0.27034 0.81347 0.58161 0.0
C712 C 0.33719 0.80587 0.61365 0.0
H713 H 0.37375 0.76512 0.65272 0.0
C714 C 0.34793 0.8301 0.62168 0.0
C715 C 0.3465 0.78216 0.62504 0.0
C716 C 0.33483 0.75565 0.618 0.0
C717 C 0.36817 0.83118 0.64058 0.0
C718 C 0.37749 0.80744 0.65189 0.0
C719 C 0.36669 0.78327 0.64383 0.0
C720 C 0.39791 0.80694 0.67272 0.0
C721 C 0.37968 0.85762 0.64797 0.0
C722 C 0.42109 0.79232 0.66893 0.0
C723 C 0.43884 0.78871 0.68965 0.0
C724 C 0.43367 0.79957 0.71465 0.0
C725 C 0.41089 0.81509 0.71807 0.0
C726 C 0.3931 0.81862 0.69732 0.0
H727 H 0.37559 0.8728 0.63271 0.0
H728 H 0.37069 0.86437 0.66673 0.0
H729 H 0.40134 0.8562 0.65092 0.0
H730 H 0.42508 0.78306 0.65009 0.0
H731 H 0.45623 0.77677 0.68622 0.0
H732 H 0.20367 0.30348 0.53391 0.0
H733 H 0.19712 0.34019 0.56433 0.0
H734 H 0.16067 0.28762 0.62029 0.0
H735 H 0.16682 0.25062 0.58982 0.0
H736 H 0.1363 0.33976 0.61559 0.0
H737 H 0.24492 0.34288 0.63065 0.0
H738 H 0.23442 0.34517 0.59692 0.0
H739 H 0.22854 0.31534 0.61513 0.0
C740 C 0.19399 0.29969 0.55255 0.0
C741 C 0.18617 0.27401 0.55963 0.0
C742 C 0.19025 0.32072 0.56988 0.0
C743 C 0.17886 0.31644 0.59466 0.0
C744 C 0.1696 0.29121 0.60123 0.0
H745 H 0.1649 0.40613 0.73839 0.0
H746 H 0.15773 0.3752 0.7022 0.0
C747 C 0.17319 0.27012 0.58382 0.0
C748 C 0.17871 0.33779 0.61446 0.0
H749 H 0.21986 0.37608 0.65137 0.0
C750 C 0.15451 0.34778 0.62345 0.0
C751 C 0.20255 0.34802 0.62469 0.0
C752 C 0.2291 0.3372 0.61658 0.0
C753 C 0.15357 0.36815 0.64223 0.0
C754 C 0.17746 0.37838 0.65239 0.0
C755 C 0.2016 0.36834 0.64334 0.0
C756 C 0.17825 0.3988 0.67318 0.0
C757 C 0.12714 0.3788 0.65075 0.0
C758 C 0.1921 0.42236 0.66884 0.0
C759 C 0.19651 0.43996 0.68953 0.0
C760 C 0.18724 0.43426 0.71502 0.0
C761 C 0.17232 0.41117 0.71902 0.0
C762 C 0.168 0.39353 0.6983 0.0
H763 H 0.11147 0.3742 0.63613 0.0
H764 H 0.12151 0.36959 0.66977 0.0
H765 H 0.12795 0.40051 0.65366 0.0
H766 H 0.20025 0.42671 0.64959 0.0
H767 H 0.20791 0.45762 0.68567 0.0
H768 H 0.59629 0.195 0.7434 0.0
H769 H 0.62707 0.18795 0.70705 0.0
H770 H 0.56285 0.16107 0.65793 0.0
H771 H 0.53173 0.17022 0.69376 0.0
H772 H 0.64371 0.14983 0.67887 0.0
H773 H 0.58943 0.21754 0.61214 0.0
H774 H 0.58048 0.21353 0.6462 0.0
H775 H 0.5702 0.18959 0.62199 0.0
C776 C 0.58883 0.18743 0.72486 0.0
C777 C 0.56171 0.18346 0.72114 0.0
C778 C 0.6064 0.18336 0.70409 0.0
C779 C 0.59724 0.17467 0.67942 0.0
C780 C 0.5703 0.1688 0.67638 0.0
H781 H 0.72273 0.1464 0.56118 0.0
H782 H 0.68666 0.13762 0.59221 0.0
C783 C 0.55258 0.17375 0.69689 0.0
C784 C 0.61585 0.17313 0.65684 0.0
H785 H 0.6268 0.19654 0.59475 0.0
C786 C 0.64002 0.16004 0.66045 0.0
C787 C 0.6111 0.18659 0.63282 0.0
C788 C 0.58653 0.20281 0.6281 0.0
C789 C 0.66002 0.16105 0.64133 0.0
C790 C 0.65518 0.17438 0.61728 0.0
C791 C 0.6305 0.18629 0.61315 0.0
C792 C 0.67611 0.17878 0.59725 0.0
C793 C 0.68653 0.14915 0.64789 0.0
C794 C 0.68135 0.20462 0.58869 0.0
C795 C 0.70115 0.20949 0.5703 0.0
C796 C 0.71655 0.1887 0.56046 0.0
C797 C 0.71126 0.16278 0.56874 0.0
C798 C 0.69084 0.1578 0.58663 0.0
H799 H 0.68901 0.14616 0.66944 0.0
H800 H 0.68826 0.12958 0.63824 0.0
H801 H 0.70288 0.16187 0.6408 0.0
H802 H 0.67036 0.22118 0.59656 0.0
H803 H 0.70494 0.22969 0.5644 0.0
H804 H 0.77438 0.54203 0.68951 0.0
H805 H 0.78314 0.57377 0.65443 0.0
H806 H 0.83433 0.61763 0.7063 0.0
H807 H 0.82552 0.58621 0.74169 0.0
H808 H 0.79592 0.64813 0.68254 0.0
H809 H 0.84776 0.58715 0.60811 0.0
H810 H 0.81739 0.57284 0.61935 0.0
H811 H 0.84429 0.57707 0.64208 0.0
C812 C 0.78778 0.55821 0.69343 0.0
C813 C 0.79913 0.5616 0.71852 0.0
C814 C 0.79293 0.57623 0.67325 0.0
C815 C 0.80966 0.59782 0.67768 0.0
C816 C 0.82149 0.60096 0.70246 0.0
H817 H 0.83122 0.74029 0.58213 0.0
H818 H 0.83857 0.70577 0.615 0.0
C819 C 0.81637 0.58298 0.72267 0.0
C820 C 0.81276 0.61844 0.65728 0.0
H821 H 0.83034 0.62851 0.59314 0.0
C822 C 0.80383 0.64399 0.66311 0.0
C823 C 0.823 0.61287 0.63197 0.0
C824 C 0.83389 0.58605 0.62502 0.0
C825 C 0.80378 0.66389 0.64395 0.0
C826 C 0.81343 0.65817 0.61842 0.0
C827 C 0.82301 0.6328 0.61276 0.0
C828 C 0.81188 0.67779 0.59691 0.0
C829 C 0.79226 0.6905 0.65084 0.0
C830 C 0.79542 0.67297 0.57525 0.0
C831 C 0.79129 0.69253 0.55634 0.0
C832 C 0.80357 0.71733 0.55876 0.0
C833 C 0.8212 0.72155 0.57979 0.0
C834 C 0.82538 0.7019 0.59865 0.0
H835 H 0.78072 0.68989 0.66944 0.0
H836 H 0.80849 0.70496 0.65342 0.0
H837 H 0.77922 0.69773 0.6348 0.0
H838 H 0.78493 0.65442 0.57351 0.0
H839 H 0.77774 0.68847 0.54034 0.0
H840 H 0.40369 0.24896 0.16076 0.0
H841 H 0.37228 0.28445 0.15176 0.0
H842 H 0.41517 0.33601 0.20409 0.0
H843 H 0.44685 0.30097 0.21294 0.0
H844 H 0.34114 0.30704 0.18957 0.0
H845 H 0.40179 0.38391 0.14127 0.0
H846 H 0.41253 0.35004 0.14422 0.0
H847 H 0.41596 0.37241 0.17157 0.0
C848 C 0.40672 0.26798 0.17005 0.0
C849 C 0.42776 0.27203 0.1877 0.0
C850 C 0.38876 0.28824 0.16482 0.0
C851 C 0.3916 0.31295 0.17697 0.0
C852 C 0.41295 0.3173 0.19401 0.0
H853 H 0.29911 0.44794 0.21446 0.0
H854 H 0.33361 0.41529 0.20637 0.0
C855 C 0.43093 0.2971 0.19922 0.0
C856 C 0.3708 0.33325 0.17419 0.0
H857 H 0.3605 0.39825 0.15974 0.0
C858 C 0.34523 0.32687 0.18261 0.0
C859 C 0.37628 0.3591 0.16522 0.0
C860 C 0.40308 0.36673 0.15481 0.0
C861 C 0.32524 0.34595 0.18345 0.0
C862 C 0.33091 0.372 0.17519 0.0
C863 C 0.35627 0.37824 0.16605 0.0
C864 C 0.31112 0.3933 0.17755 0.0
C865 C 0.29858 0.33837 0.19433 0.0
C866 C 0.2874 0.39216 0.16338 0.0
C867 C 0.26754 0.41069 0.16804 0.0
C868 C 0.27115 0.4308 0.18686 0.0
C869 C 0.29556 0.43265 0.19996 0.0
C870 C 0.31535 0.41405 0.19533 0.0
H871 H 0.29913 0.31912 0.2048 0.0
H872 H 0.29122 0.35368 0.20817 0.0
H873 H 0.28425 0.3367 0.17788 0.0
H874 H 0.28399 0.37652 0.14923 0.0
H875 H 0.24913 0.40882 0.15736 0.0
H876 H 0.30223 0.54227 0.77895 0.0
H877 H 0.33727 0.57388 0.78809 0.0
H878 H 0.28558 0.61668 0.84033 0.0
H879 H 0.25014 0.58533 0.83108 0.0
H880 H 0.30792 0.64771 0.80203 0.0
H881 H 0.3851 0.58797 0.85105 0.0
H882 H 0.37354 0.57338 0.82096 0.0
H883 H 0.35127 0.5771 0.84832 0.0
C884 C 0.29835 0.55812 0.79273 0.0
C885 C 0.27324 0.56133 0.80411 0.0
C886 C 0.31854 0.57607 0.79811 0.0
C887 C 0.31413 0.59742 0.81515 0.0
C888 C 0.28942 0.6002 0.82726 0.0
H889 H 0.40966 0.74081 0.83133 0.0
H890 H 0.37735 0.70625 0.84061 0.0
C891 C 0.26918 0.58227 0.8219 0.0
C892 C 0.33428 0.61837 0.81781 0.0
H893 H 0.39921 0.62912 0.83206 0.0
C894 C 0.32776 0.64381 0.80906 0.0
C895 C 0.36013 0.61312 0.82685 0.0
C896 C 0.36789 0.58646 0.83757 0.0
C897 C 0.34675 0.66386 0.80788 0.0
C898 C 0.37284 0.65841 0.81617 0.0
C899 C 0.37918 0.6332 0.82573 0.0
C900 C 0.39412 0.67814 0.81323 0.0
C901 C 0.33905 0.69032 0.79652 0.0
C902 C 0.41488 0.6733 0.79564 0.0
C903 C 0.43348 0.69291 0.79038 0.0
C904 C 0.43164 0.71777 0.80265 0.0
C905 C 0.41151 0.72205 0.82128 0.0
C906 C 0.39297 0.70235 0.82658 0.0
H907 H 0.3198 0.68949 0.78608 0.0
H908 H 0.33732 0.70493 0.81272 0.0
H909 H 0.35428 0.6975 0.78254 0.0
H910 H 0.41612 0.65468 0.78521 0.0
H911 H 0.44878 0.68883 0.77606 0.0
H912 H 0.30064 0.44921 0.77275 0.0
H913 H 0.33517 0.41638 0.77958 0.0
H914 H 0.28542 0.37499 0.83467 0.0
H915 H 0.25044 0.4075 0.82772 0.0
H916 H 0.36209 0.39806 0.82489 0.0
H917 H 0.30148 0.31958 0.77776 0.0
H918 H 0.29301 0.3541 0.77568 0.0
H919 H 0.28638 0.3359 0.80533 0.0
C920 C 0.29703 0.43328 0.78651 0.0
C921 C 0.27256 0.43081 0.79939 0.0
C922 C 0.31686 0.41457 0.79042 0.0
C923 C 0.31264 0.39306 0.80725 0.0
C924 C 0.28882 0.39122 0.8212 0.0
H925 H 0.40524 0.24953 0.82553 0.0
H926 H 0.3738 0.28527 0.83293 0.0
C927 C 0.26891 0.40988 0.81725 0.0
C928 C 0.33265 0.37189 0.80896 0.0
H929 H 0.34334 0.30724 0.79345 0.0
C930 C 0.358 0.37815 0.81817 0.0
C931 C 0.32721 0.34598 0.80009 0.0
C932 C 0.30064 0.33842 0.78894 0.0
C933 C 0.37814 0.35913 0.81869 0.0
C934 C 0.3728 0.33337 0.80937 0.0
C935 C 0.34731 0.327 0.80067 0.0
C936 C 0.39354 0.31294 0.80718 0.0
C937 C 0.40491 0.36672 0.82924 0.0
C938 C 0.41516 0.31675 0.79036 0.0
C939 C 0.4332 0.29636 0.78603 0.0
C940 C 0.42981 0.27168 0.79829 0.0
C941 C 0.40846 0.26821 0.81568 0.0
C942 C 0.39046 0.28862 0.81999 0.0
H943 H 0.40372 0.38424 0.84237 0.0
H944 H 0.414 0.35015 0.84032 0.0
H945 H 0.41806 0.37176 0.81251 0.0
H946 H 0.41757 0.33519 0.77984 0.0
H947 H 0.44935 0.29974 0.77248 0.0
H948 H 0.74246 0.39407 0.79239 0.0
H949 H 0.70604 0.36315 0.79853 0.0
H950 H 0.65559 0.42742 0.82275 0.0
H951 H 0.69158 0.45866 0.81463 0.0
H952 H 0.67698 0.3471 0.83626 0.0
H953 H 0.6116 0.39903 0.76554 0.0
H954 H 0.64549 0.40842 0.7703 0.0
H955 H 0.6205 0.41912 0.7932 0.0
C956 C 0.72362 0.40153 0.79917 0.0
C957 C 0.71964 0.4287 0.80274 0.0
C958 C 0.7028 0.38387 0.80271 0.0
C959 C 0.67778 0.39299 0.81043 0.0
C960 C 0.67435 0.41999 0.81579 0.0
H961 H 0.55953 0.26826 0.84095 0.0
H962 H 0.59031 0.30484 0.84851 0.0
C963 C 0.69496 0.43779 0.81141 0.0
C964 C 0.65531 0.37418 0.81174 0.0
H965 H 0.59372 0.36223 0.7873 0.0
C966 C 0.65875 0.3504 0.82555 0.0
C967 C 0.63157 0.37839 0.79759 0.0
C968 C 0.62712 0.40248 0.78062 0.0
C969 C 0.6397 0.3303 0.82475 0.0
C970 C 0.61585 0.33466 0.81085 0.0
C971 C 0.61194 0.35891 0.79803 0.0
C972 C 0.59577 0.31362 0.80706 0.0
C973 C 0.64611 0.30418 0.83756 0.0
C974 C 0.58746 0.30727 0.78142 0.0
C975 C 0.5692 0.28716 0.77719 0.0
C976 C 0.55924 0.27257 0.79847 0.0
C977 C 0.56718 0.27906 0.82419 0.0
C978 C 0.58494 0.29978 0.82849 0.0
H979 H 0.66766 0.30178 0.84081 0.0
H980 H 0.63631 0.30313 0.85707 0.0
H981 H 0.6391 0.2874 0.82534 0.0
H982 H 0.59548 0.31758 0.76452 0.0
H983 H 0.56354 0.28244 0.75714 0.0
H984 H 0.74262 0.58359 0.83566 0.0
H985 H 0.70789 0.61537 0.84632 0.0
H986 H 0.65452 0.57477 0.79398 0.0
H987 H 0.68876 0.54279 0.78348 0.0
H988 H 0.68567 0.64772 0.80938 0.0
H989 H 0.60766 0.58856 0.85737 0.0
H990 H 0.6412 0.57695 0.85407 0.0
H991 H 0.61845 0.57409 0.82696 0.0
C992 C 0.72335 0.5811 0.82679 0.0
C993 C 0.71857 0.56071 0.80855 0.0
C994 C 0.70352 0.59927 0.83295 0.0
C995 C 0.67854 0.59721 0.82121 0.0
C996 C 0.67345 0.57637 0.80375 0.0
H997 H 0.54634 0.68876 0.77869 0.0
H998 H 0.57862 0.65472 0.78957 0.0
C999 C 0.6932 0.55823 0.79757 0.0
C1000 C 0.65882 0.61849 0.82448 0.0
H1001 H 0.59373 0.62968 0.8376 0.0
C1002 C 0.66571 0.64396 0.8161 0.0
C1003 C 0.6328 0.61345 0.83316 0.0
C1004 C 0.62465 0.58682 0.84365 0.0
C1005 C 0.64687 0.66416 0.81465 0.0
C1006 C 0.62057 0.65881 0.82226 0.0
C1007 C 0.61392 0.63366 0.83173 0.0
C1008 C 0.59937 0.67846 0.81833 0.0
C1009 C 0.65496 0.69061 0.80357 0.0
C1010 C 0.59991 0.70278 0.83151 0.0
C1011 C 0.5816 0.7224 0.82522 0.0
C1012 C 0.5623 0.71793 0.80575 0.0
C1013 C 0.561 0.69297 0.79364 0.0
C1014 C 0.57939 0.67344 0.79989 0.0
H1015 H 0.67464 0.68985 0.79396 0.0
H1016 H 0.64029 0.69768 0.78893 0.0
H1017 H 0.65592 0.70528 0.81978 0.0
H1018 H 0.61493 0.70682 0.84615 0.0
H1019 H 0.58298 0.74125 0.83518 0.0
H1020 H 0.54189 0.68818 0.20962 0.0
H1021 H 0.57441 0.65386 0.2005 0.0
H1022 H 0.61323 0.70504 0.14485 0.0
H1023 H 0.58103 0.73976 0.15405 0.0
H1024 H 0.59132 0.62813 0.15341 0.0
H1025 H 0.67068 0.68832 0.19976 0.0
H1026 H 0.63619 0.69633 0.20331 0.0
H1027 H 0.65313 0.70374 0.17313 0.0
C1028 C 0.55716 0.69214 0.19523 0.0
C1029 C 0.55905 0.71693 0.18288 0.0
C1030 C 0.57568 0.67243 0.19 0.0
C1031 C 0.59643 0.67712 0.17236 0.0
C1032 C 0.59761 0.70126 0.1589 0.0
H1033 H 0.74019 0.58337 0.15605 0.0
H1034 H 0.70515 0.6151 0.14646 0.0
C1035 C 0.57913 0.72104 0.16416 0.0
C1036 C 0.61767 0.65732 0.1695 0.0
H1037 H 0.68242 0.64636 0.18419 0.0
C1038 C 0.61132 0.63213 0.1599 0.0
C1039 C 0.64371 0.66268 0.17797 0.0
C1040 C 0.65143 0.68914 0.18932 0.0
C1041 C 0.63029 0.61197 0.15893 0.0
C1042 C 0.65609 0.6171 0.16823 0.0
C1043 C 0.66264 0.64253 0.17699 0.0
C1044 C 0.67609 0.59602 0.17117 0.0
C1045 C 0.62252 0.58535 0.14812 0.0
C1046 C 0.67128 0.57466 0.18807 0.0
C1047 C 0.69123 0.55651 0.19364 0.0
C1048 C 0.71651 0.55948 0.18258 0.0
C1049 C 0.72101 0.58047 0.16497 0.0
C1050 C 0.701 0.59862 0.15942 0.0
H1051 H 0.60554 0.58697 0.13437 0.0
H1052 H 0.63924 0.57583 0.13764 0.0
H1053 H 0.6165 0.57235 0.16465 0.0
H1054 H 0.65239 0.57261 0.19784 0.0
H1055 H 0.68701 0.54063 0.20728 0.0
H1056 H 0.40563 0.7414 0.15523 0.0
H1057 H 0.37307 0.70703 0.14599 0.0
H1058 H 0.41263 0.65465 0.20004 0.0
H1059 H 0.44552 0.68859 0.20915 0.0
H1060 H 0.39487 0.62973 0.15318 0.0
H1061 H 0.31638 0.68974 0.2012 0.0
H1062 H 0.3335 0.70538 0.17444 0.0
H1063 H 0.35094 0.69764 0.20428 0.0
C1064 C 0.4076 0.72249 0.16498 0.0
C1065 C 0.42802 0.71792 0.18324 0.0
C1066 C 0.38892 0.70291 0.1597 0.0
C1067 C 0.39022 0.67853 0.17271 0.0
C1068 C 0.41126 0.67341 0.18989 0.0
H1069 H 0.29963 0.54225 0.20778 0.0
H1070 H 0.33422 0.57419 0.19814 0.0
C1071 C 0.43 0.6929 0.19512 0.0
C1072 C 0.36884 0.65888 0.16987 0.0
H1073 H 0.30426 0.648 0.1853 0.0
C1074 C 0.37497 0.63375 0.15996 0.0
C1075 C 0.34293 0.66425 0.17874 0.0
C1076 C 0.33546 0.69061 0.19046 0.0
C1077 C 0.35593 0.61366 0.15907 0.0
C1078 C 0.33029 0.6188 0.16876 0.0
C1079 C 0.32394 0.64418 0.17781 0.0
C1080 C 0.31028 0.59776 0.17179 0.0
C1081 C 0.36347 0.58709 0.14797 0.0
C1082 C 0.28527 0.60048 0.16029 0.0
C1083 C 0.26529 0.58235 0.16594 0.0
C1084 C 0.26993 0.56128 0.18342 0.0
C1085 C 0.29531 0.5582 0.19424 0.0
C1086 C 0.31523 0.57633 0.18857 0.0
H1087 H 0.38032 0.58874 0.13407 0.0
H1088 H 0.3696 0.57392 0.16433 0.0
H1089 H 0.3466 0.57775 0.13757 0.0
H1090 H 0.28102 0.61702 0.14743 0.0
H1091 H 0.24603 0.58533 0.1572 0.0
H1092 H 0.57966 0.24961 0.15646 0.0
H1093 H 0.61167 0.28448 0.14722 0.0
H1094 H 0.57334 0.3351 0.20379 0.0
H1095 H 0.54101 0.30065 0.21293 0.0
H1096 H 0.58976 0.36133 0.15693 0.0
H1097 H 0.66959 0.3006 0.20175 0.0
H1098 H 0.65184 0.28547 0.17508 0.0
H1099 H 0.63513 0.29253 0.20549 0.0
C1100 C 0.57783 0.26825 0.16676 0.0
C1101 C 0.55796 0.27216 0.18575 0.0
C1102 C 0.59618 0.28811 0.16148 0.0
C1103 C 0.5951 0.31212 0.17518 0.0
C1104 C 0.57454 0.31662 0.19309 0.0
H1105 H 0.68669 0.44817 0.21023 0.0
H1106 H 0.65172 0.41643 0.20117 0.0
C1107 C 0.55612 0.29684 0.19834 0.0
C1108 C 0.61629 0.33194 0.17235 0.0
H1109 H 0.6812 0.34268 0.18644 0.0
C1110 C 0.60983 0.35725 0.16314 0.0
C1111 C 0.64242 0.32647 0.1805 0.0
C1112 C 0.65025 0.29989 0.19146 0.0
C1113 C 0.62879 0.37741 0.1622 0.0
C1114 C 0.6547 0.37213 0.17112 0.0
C1115 C 0.66133 0.34661 0.17953 0.0
C1116 C 0.67481 0.3931 0.17388 0.0
C1117 C 0.62092 0.40416 0.15181 0.0
C1118 C 0.69948 0.39043 0.16166 0.0
C1119 C 0.71967 0.40842 0.167 0.0
C1120 C 0.7156 0.42931 0.18484 0.0
C1121 C 0.69055 0.43236 0.19638 0.0
C1122 C 0.67041 0.41435 0.19105 0.0
H1123 H 0.60368 0.40274 0.13836 0.0
H1124 H 0.61526 0.41702 0.16859 0.0
H1125 H 0.63748 0.41371 0.14113 0.0
H1126 H 0.7033 0.37404 0.14849 0.0
H1127 H 0.73866 0.40548 0.15767 0.0
H1128 H 0.19612 0.8877 0.45213 0.0
H1129 H 0.19768 0.93587 0.4527 0.0
H1130 H 0.19925 0.93513 0.53765 0.0
H1131 H 0.198 0.88696 0.53741 0.0
H1132 H 0.16022 0.96908 0.47654 0.0
H1133 H 0.26032 0.98485 0.51828 0.0
H1134 H 0.24993 0.95362 0.50461 0.0
H1135 H 0.23963 0.96314 0.53714 0.0
C1136 C 0.19704 0.89771 0.47097 0.0
C1137 C 0.19692 0.8834 0.49473 0.0
C1138 C 0.19792 0.92524 0.47122 0.0
C1139 C 0.19889 0.93897 0.49519 0.0
C1140 C 0.19901 0.92484 0.51894 0.0
H1141 H 0.19217 0.10423 0.53833 0.0
H1142 H 0.19421 0.05603 0.53799 0.0
C1143 C 0.19813 0.8973 0.51873 0.0
C1144 C 0.1983 0.96812 0.49534 0.0
H1145 H 0.23291 0.02268 0.51432 0.0
C1146 C 0.17616 0.98083 0.48465 0.0
C1147 C 0.21909 0.98329 0.50608 0.0
C1148 C 0.24371 0.9706 0.51699 0.0
C1149 C 0.17407 0.00841 0.48475 0.0
C1150 C 0.19489 0.02359 0.49543 0.0
C1151 C 0.21701 0.0109 0.50617 0.0
C1152 C 0.19406 0.05272 0.4955 0.0
C1153 C 0.14938 0.02106 0.47392 0.0
C1154 C 0.19369 0.06672 0.47169 0.0
C1155 C 0.19248 0.09424 0.47176 0.0
C1156 C 0.19176 0.10827 0.49569 0.0
C1157 C 0.19257 0.0941 0.51954 0.0
C1158 C 0.19379 0.06657 0.51942 0.0
H1159 H 0.13284 0.00675 0.47251 0.0
H1160 H 0.14308 0.03791 0.48643 0.0
H1161 H 0.15343 0.0287 0.45384 0.0
H1162 H 0.19436 0.05635 0.45303 0.0
H1163 H 0.19207 0.10446 0.45302 0.0
H1164 H 0.10167 0.19684 0.53774 0.0
H1165 H 0.05351 0.19784 0.53742 0.0
H1166 H 0.05371 0.19647 0.45247 0.0
H1167 H 0.10189 0.19519 0.45244 0.0
H1168 H 0.01873 0.23483 0.51329 0.0
H1169 H 0.00654 0.13342 0.47326 0.0
H1170 H 0.03733 0.14511 0.48681 0.0
H1171 H 0.0275 0.15464 0.45416 0.0
C1172 C 0.09154 0.19675 0.51894 0.0
C1173 C 0.10571 0.1957 0.4951 0.0
C1174 C 0.06402 0.19738 0.51884 0.0
C1175 C 0.05015 0.19683 0.49495 0.0
C1176 C 0.06413 0.19642 0.47112 0.0
H1177 H 0.88496 0.19236 0.45328 0.0
H1178 H 0.93302 0.19495 0.45352 0.0
C1179 C 0.09166 0.1958 0.47117 0.0
C1180 C 0.02103 0.19654 0.495 0.0
H1181 H 0.96783 0.15917 0.47763 0.0
C1182 C 0.00755 0.21829 0.50557 0.0
C1183 C 0.00662 0.17488 0.48494 0.0
C1184 C 0.02017 0.15056 0.47435 0.0
C1185 C 0.97989 0.21915 0.50593 0.0
C1186 C 0.9655 0.19749 0.49583 0.0
C1187 C 0.97899 0.17575 0.48529 0.0
C1188 C 0.93636 0.1969 0.49596 0.0
C1189 C 0.9663 0.2434 0.5166 0.0
C1190 C 0.9224 0.19698 0.51981 0.0
C1191 C 0.89488 0.1955 0.5198 0.0
C1192 C 0.88087 0.19375 0.49591 0.0
C1193 C 0.89504 0.19369 0.47206 0.0
C1194 C 0.92252 0.19517 0.47211 0.0
H1195 H 0.97986 0.2606 0.51752 0.0
H1196 H 0.94898 0.24872 0.50428 0.0
H1197 H 0.95919 0.2393 0.53686 0.0
H1198 H 0.9328 0.1978 0.53844 0.0
H1199 H 0.88465 0.19551 0.53853 0.0
H1200 H 0.79676 0.10168 0.53487 0.0
H1201 H 0.79555 0.05351 0.53357 0.0
H1202 H 0.79023 0.0556 0.4488 0.0
H1203 H 0.7917 0.10378 0.44973 0.0
H1204 H 0.75639 0.0198 0.51177 0.0
H1205 H 0.85394 0.00709 0.46334 0.0
H1206 H 0.84385 0.03779 0.47836 0.0
H1207 H 0.83142 0.02865 0.44647 0.0
C1208 C 0.79535 0.09196 0.5159 0.0
C1209 C 0.79454 0.10665 0.49238 0.0
C1210 C 0.79463 0.06443 0.51524 0.0
C1211 C 0.79319 0.05109 0.49109 0.0
C1212 C 0.79184 0.06559 0.4676 0.0
H1213 H 0.79387 0.88517 0.44915 0.0
H1214 H 0.7912 0.9333 0.44887 0.0
C1215 C 0.79257 0.09313 0.46822 0.0
C1216 C 0.79308 0.02195 0.49052 0.0
H1217 H 0.82839 0.96857 0.46966 0.0
C1218 C 0.77212 0.00855 0.50261 0.0
C1219 C 0.81366 0.00745 0.47852 0.0
C1220 C 0.83713 0.0209 0.46611 0.0
C1221 C 0.77103 0.98089 0.50276 0.0
C1222 C 0.7917 0.9664 0.4909 0.0
C1223 C 0.81257 0.97981 0.47868 0.0
C1224 C 0.79232 0.93725 0.49129 0.0
C1225 C 0.74761 0.96743 0.51524 0.0
C1226 C 0.79402 0.92362 0.51527 0.0
C1227 C 0.79554 0.89611 0.51556 0.0
C1228 C 0.79558 0.88174 0.49181 0.0
C1229 C 0.79388 0.89556 0.46781 0.0
C1230 C 0.79235 0.92306 0.46758 0.0
H1231 H 0.73052 0.98103 0.51717 0.0
H1232 H 0.74144 0.94995 0.50357 0.0
H1233 H 0.75311 0.96061 0.53529 0.0
H1234 H 0.79456 0.93429 0.53377 0.0
H1235 H 0.79693 0.88616 0.5344 0.0
H1236 H 0.10409 0.7987 0.53666 0.0
H1237 H 0.05592 0.79693 0.53636 0.0
H1238 H 0.05613 0.79659 0.45139 0.0
H1239 H 0.10422 0.79864 0.45135 0.0
H1240 H 0.02105 0.8333 0.4742 0.0
H1241 H 0.00927 0.73314 0.51721 0.0
H1242 H 0.02984 0.75513 0.53591 0.0
H1243 H 0.04012 0.74468 0.50367 0.0
C1244 C 0.09394 0.79816 0.51788 0.0
C1245 C 0.10808 0.79877 0.49403 0.0
C1246 C 0.06642 0.79699 0.51778 0.0
C1247 C 0.05258 0.79625 0.49386 0.0
C1248 C 0.06654 0.797 0.47005 0.0
H1249 H 0.88714 0.79582 0.44975 0.0
H1250 H 0.93532 0.79523 0.44991 0.0
C1251 C 0.09403 0.79817 0.4701 0.0
C1252 C 0.02346 0.79559 0.4936 0.0
H1253 H 0.97033 0.75859 0.51197 0.0
C1254 C 0.00992 0.81693 0.48233 0.0
C1255 C 0.00913 0.7742 0.5043 0.0
C1256 C 0.02277 0.75035 0.51577 0.0
C1257 C 0.98229 0.81768 0.48186 0.0
C1258 C 0.96794 0.79628 0.49253 0.0
C1259 C 0.98147 0.77493 0.5038 0.0
C1260 C 0.93882 0.79584 0.4924 0.0
C1261 C 0.96869 0.8416 0.47047 0.0
C1262 C 0.92492 0.79561 0.51626 0.0
C1263 C 0.89739 0.79581 0.51629 0.0
C1264 C 0.88326 0.79613 0.4924 0.0
C1265 C 0.89734 0.79578 0.4685 0.0
C1266 C 0.92488 0.79557 0.46853 0.0
H1267 H 0.98223 0.85878 0.46904 0.0
H1268 H 0.96155 0.8369 0.45034 0.0
H1269 H 0.95139 0.84731 0.48263 0.0
H1270 H 0.9354 0.79566 0.53487 0.0
H1271 H 0.88724 0.79595 0.53506 0.0
H1272 H 0.44897 0.19695 0.88626 0.0
H1273 H 0.44789 0.19929 0.93436 0.0
H1274 H 0.53292 0.19924 0.93654 0.0
H1275 H 0.53433 0.19717 0.88853 0.0
H1276 H 0.47005 0.16202 0.96912 0.0
H1277 H 0.51292 0.26169 0.9843 0.0
H1278 H 0.49998 0.25092 0.95293 0.0
H1279 H 0.5322 0.24051 0.96345 0.0
C1280 C 0.46747 0.19767 0.89691 0.0
C1281 C 0.49175 0.19687 0.88348 0.0
C1282 C 0.46679 0.199 0.92439 0.0
C1283 C 0.49031 0.19977 0.93891 0.0
C1284 C 0.51455 0.19917 0.92563 0.0
H1285 H 0.53384 0.19343 0.10304 0.0
H1286 H 0.53252 0.19561 0.05495 0.0
C1287 C 0.51528 0.19781 0.89817 0.0
C1288 C 0.48956 0.19974 0.96801 0.0
H1289 H 0.50882 0.23449 0.02232 0.0
C1290 C 0.47831 0.17795 0.98079 0.0
C1291 C 0.50046 0.22054 0.98306 0.0
C1292 C 0.51187 0.24487 0.97029 0.0
C1293 C 0.47824 0.17606 0.00835 0.0
C1294 C 0.48934 0.19675 0.02342 0.0
C1295 C 0.50039 0.21866 0.01064 0.0
C1296 C 0.48992 0.19585 0.0525 0.0
C1297 C 0.46699 0.15161 0.02109 0.0
C1298 C 0.46638 0.19563 0.06697 0.0
C1299 C 0.46701 0.19432 0.09444 0.0
C1300 C 0.49125 0.19335 0.10795 0.0
C1301 C 0.51482 0.19403 0.09332 0.0
C1302 C 0.51414 0.19532 0.06584 0.0
H1303 H 0.46507 0.13508 0.00683 0.0
H1304 H 0.47953 0.14504 0.03779 0.0
H1305 H 0.44706 0.15613 0.02892 0.0
H1306 H 0.4475 0.19651 0.057 0.0
H1307 H 0.44847 0.19404 0.10503 0.0
H1308 H 0.80117 0.53321 0.88666 0.0
H1309 H 0.79942 0.53127 0.93466 0.0
H1310 H 0.79464 0.44637 0.93139 0.0
H1311 H 0.79663 0.44795 0.88328 0.0
H1312 H 0.75913 0.50867 0.96656 0.0
H1313 H 0.85676 0.46096 0.98214 0.0
H1314 H 0.84766 0.47635 0.95136 0.0
H1315 H 0.83498 0.44431 0.95965 0.0
C1316 C 0.79985 0.51407 0.89606 0.0
C1317 C 0.79919 0.49071 0.88105 0.0
C1318 C 0.7988 0.51304 0.92351 0.0
C1319 C 0.79721 0.48869 0.93647 0.0
C1320 C 0.7963 0.46533 0.92167 0.0
H1321 H 0.79439 0.44871 0.10286 0.0
H1322 H 0.79288 0.44735 0.05478 0.0
C1323 C 0.79734 0.46631 0.89419 0.0
C1324 C 0.79618 0.48789 0.96553 0.0
H1325 H 0.83037 0.46789 0.01987 0.0
C1326 C 0.77467 0.49976 0.97826 0.0
C1327 C 0.81648 0.47616 0.9806 0.0
C1328 C 0.84041 0.46388 0.96784 0.0
C1329 C 0.77288 0.50014 0.00582 0.0
C1330 C 0.79338 0.48876 0.02091 0.0
C1331 C 0.81471 0.47659 0.00816 0.0
C1332 C 0.7934 0.48976 0.05 0.0
C1333 C 0.74894 0.51243 0.01854 0.0
C1334 C 0.79438 0.51409 0.06313 0.0
C1335 C 0.79523 0.515 0.09061 0.0
C1336 C 0.7953 0.49153 0.10544 0.0
C1337 C 0.79435 0.46717 0.09211 0.0
C1338 C 0.79349 0.46632 0.06464 0.0
H1339 H 0.7321 0.51373 0.00458 0.0
H1340 H 0.74263 0.50097 0.03609 0.0
H1341 H 0.75387 0.53275 0.02506 0.0
H1342 H 0.79487 0.53239 0.05211 0.0
H1343 H 0.79607 0.53409 0.10018 0.0
H1344 H 0.53618 0.79756 0.1012 0.0
H1345 H 0.53558 0.79683 0.05306 0.0
H1346 H 0.45054 0.79614 0.0538 0.0
H1347 H 0.45078 0.79712 0.10189 0.0
H1348 H 0.51193 0.7588 0.01907 0.0
H1349 H 0.46941 0.85907 0.00574 0.0
H1350 H 0.48351 0.84818 0.03655 0.0
H1351 H 0.451 0.83766 0.02713 0.0
C1352 C 0.51731 0.7973 0.09118 0.0
C1353 C 0.49352 0.79759 0.10546 0.0
C1354 C 0.51705 0.79685 0.06368 0.0
C1355 C 0.49303 0.79682 0.04999 0.0
C1356 C 0.46926 0.79665 0.06408 0.0
H1357 H 0.45242 0.79827 0.88406 0.0
H1358 H 0.45164 0.79641 0.93217 0.0
C1359 C 0.46948 0.7971 0.09157 0.0
C1360 C 0.49287 0.79674 0.02092 0.0
H1361 H 0.47441 0.83298 0.96737 0.0
C1362 C 0.5038 0.77501 0.00771 0.0
C1363 C 0.48217 0.81794 0.0063 0.0
C1364 C 0.47104 0.84216 0.01958 0.0
C1365 C 0.50405 0.77379 0.98011 0.0
C1366 C 0.49348 0.79506 0.9655 0.0
C1367 C 0.48243 0.81671 0.97872 0.0
C1368 C 0.49409 0.79548 0.93642 0.0
C1369 C 0.51521 0.74958 0.96683 0.0
C1370 C 0.51825 0.79582 0.92301 0.0
C1371 C 0.51882 0.79688 0.89555 0.0
C1372 C 0.49519 0.79779 0.881 0.0
C1373 C 0.471 0.79756 0.8946 0.0
C1374 C 0.47048 0.7965 0.92208 0.0
H1375 H 0.51616 0.73249 0.98051 0.0
H1376 H 0.5032 0.74397 0.9494 0.0
H1377 H 0.53555 0.75388 0.96 0.0
H1378 H 0.53668 0.79557 0.93382 0.0
H1379 H 0.5378 0.79713 0.88577 0.0
H1380 H 0.19491 0.45141 0.88428 0.0
H1381 H 0.1962 0.45001 0.93237 0.0
H1382 H 0.19548 0.53505 0.9352 0.0
H1383 H 0.19448 0.5368 0.8871 0.0
H1384 H 0.23324 0.51084 0.96884 0.0
H1385 H 0.13317 0.4675 0.98061 0.0
H1386 H 0.15489 0.44961 0.95908 0.0
H1387 H 0.14419 0.48221 0.95015 0.0
C1388 C 0.19503 0.46986 0.89506 0.0
C1389 C 0.1944 0.49424 0.88177 0.0
C1390 C 0.19565 0.46898 0.92255 0.0
C1391 C 0.19552 0.49242 0.93724 0.0
C1392 C 0.19545 0.51676 0.92413 0.0
H1393 H 0.19287 0.5361 0.1015 0.0
H1394 H 0.19539 0.53491 0.0535 0.0
C1395 C 0.19484 0.51769 0.89664 0.0
C1396 C 0.19546 0.4916 0.96633 0.0
H1397 H 0.15874 0.47238 0.01928 0.0
C1398 C 0.21697 0.50247 0.97992 0.0
C1399 C 0.17419 0.48059 0.9806 0.0
C1400 C 0.15017 0.46949 0.96694 0.0
C1401 C 0.21788 0.50245 0.00754 0.0
C1402 C 0.19649 0.49167 0.02181 0.0
C1403 C 0.1751 0.48058 0.00821 0.0
C1404 C 0.19558 0.49229 0.0509 0.0
C1405 C 0.24184 0.51364 0.02121 0.0
C1406 C 0.19427 0.46869 0.06525 0.0
C1407 C 0.19266 0.46925 0.09271 0.0
C1408 C 0.19213 0.49348 0.10629 0.0
C1409 C 0.19333 0.51709 0.09174 0.0
C1410 C 0.19495 0.51648 0.0643 0.0
H1411 H 0.25914 0.51457 0.0078 0.0
H1412 H 0.23743 0.534 0.02795 0.0
H1413 H 0.24718 0.50165 0.03873 0.0
H1414 H 0.19456 0.44983 0.05517 0.0
H1415 H 0.19174 0.45069 0.10325 0.0
H1416 H 0.10118 0.53699 0.19204 0.0
H1417 H 0.05308 0.53622 0.19418 0.0
H1418 H 0.05433 0.45125 0.1986 0.0
H1419 H 0.10244 0.45166 0.19617 0.0
H1420 H 0.0194 0.47158 0.16077 0.0
H1421 H 0.0058 0.52018 0.25793 0.0
H1422 H 0.0264 0.53808 0.23537 0.0
H1423 H 0.037 0.50649 0.24752 0.0
C1424 C 0.0913 0.51811 0.19362 0.0
C1425 C 0.10574 0.49438 0.19393 0.0
C1426 C 0.0638 0.51775 0.19502 0.0
C1427 C 0.05025 0.49371 0.19692 0.0
C1428 C 0.06451 0.47001 0.19728 0.0
H1429 H 0.88443 0.45046 0.19614 0.0
H1430 H 0.93255 0.45024 0.19818 0.0
C1431 C 0.09201 0.47031 0.19589 0.0
C1432 C 0.02112 0.49321 0.19726 0.0
H1433 H 0.96731 0.5141 0.23185 0.0
C1434 C 0.00797 0.4807 0.17638 0.0
C1435 C 0.00638 0.50523 0.21764 0.0
C1436 C 0.01957 0.51806 0.24103 0.0
C1437 C 0.98036 0.48035 0.17504 0.0
C1438 C 0.96561 0.49245 0.19537 0.0
C1439 C 0.97875 0.50487 0.21631 0.0
C1440 C 0.93648 0.49264 0.19507 0.0
C1441 C 0.96721 0.46762 0.15156 0.0
C1442 C 0.92282 0.51663 0.19341 0.0
C1443 C 0.8953 0.51689 0.19236 0.0
C1444 C 0.88096 0.49312 0.19307 0.0
C1445 C 0.8948 0.46913 0.19533 0.0
C1446 C 0.92231 0.46892 0.19639 0.0
H1447 H 0.98115 0.46498 0.13487 0.0
H1448 H 0.95974 0.44786 0.15729 0.0
H1449 H 0.9502 0.4796 0.14469 0.0
H1450 H 0.93348 0.53514 0.19251 0.0
H1451 H 0.88533 0.53573 0.19075 0.0
H1452 H 0.88791 0.45454 0.79286 0.0
H1453 H 0.93606 0.45563 0.79142 0.0
H1454 H 0.93436 0.54068 0.7894 0.0
H1455 H 0.88621 0.53995 0.79109 0.0
H1456 H 0.97027 0.47918 0.75326 0.0
H1457 H 0.98209 0.52296 0.85307 0.0
H1458 H 0.95154 0.50836 0.84203 0.0
H1459 H 0.96068 0.54084 0.8312 0.0
C1460 C 0.89771 0.47352 0.79208 0.0
C1461 C 0.88314 0.49717 0.79233 0.0
C1462 C 0.92523 0.47407 0.79121 0.0
C1463 C 0.93867 0.49823 0.7907 0.0
C1464 C 0.92428 0.52185 0.79026 0.0
H1465 H 0.10436 0.54004 0.79511 0.0
H1466 H 0.05629 0.54035 0.79209 0.0
C1467 C 0.89676 0.52135 0.79112 0.0
C1468 C 0.9678 0.49867 0.79089 0.0
H1469 H 0.02082 0.51768 0.82768 0.0
C1470 C 0.98138 0.48755 0.76951 0.0
C1471 C 0.9821 0.50963 0.81216 0.0
C1472 C 0.96844 0.52095 0.83605 0.0
C1473 C 0.00904 0.48739 0.7687 0.0
C1474 C 0.02334 0.49822 0.79004 0.0
C1475 C 0.00974 0.50945 0.81135 0.0
C1476 C 0.05247 0.49785 0.7909 0.0
C1477 C 0.0227 0.47604 0.74483 0.0
C1478 C 0.06617 0.47381 0.79144 0.0
C1479 C 0.09366 0.47351 0.79316 0.0
C1480 C 0.10794 0.49729 0.79457 0.0
C1481 C 0.09405 0.52135 0.79407 0.0
C1482 C 0.06658 0.5216 0.79233 0.0
H1483 H 0.00927 0.47497 0.72756 0.0
H1484 H 0.04023 0.48801 0.73942 0.0
H1485 H 0.02947 0.45572 0.74938 0.0
H1486 H 0.05557 0.45525 0.79091 0.0
H1487 H 0.10366 0.45462 0.7936 0.0
H1488 H 0.45443 0.10248 0.79996 0.0
H1489 H 0.45557 0.05436 0.79775 0.0
H1490 H 0.54058 0.05613 0.79599 0.0
H1491 H 0.5398 0.10428 0.79846 0.0
H1492 H 0.4789 0.02224 0.75808 0.0
H1493 H 0.52311 0.00504 0.85688 0.0
H1494 H 0.50858 0.03621 0.84755 0.0
H1495 H 0.54097 0.02752 0.83612 0.0
C1496 C 0.47342 0.09271 0.79922 0.0
C1497 C 0.49704 0.10731 0.79954 0.0
C1498 C 0.47399 0.0652 0.7979 0.0
C1499 C 0.49814 0.05178 0.79703 0.0
C1500 C 0.52175 0.06618 0.7971 0.0
H1501 H 0.53994 0.88608 0.79285 0.0
H1502 H 0.54022 0.93423 0.79161 0.0
C1503 C 0.52123 0.09371 0.79841 0.0
C1504 C 0.49856 0.02267 0.7957 0.0
H1505 H 0.51778 0.9677 0.8294 0.0
C1506 C 0.48734 0.01026 0.77366 0.0
C1507 C 0.50964 0.00723 0.81609 0.0
C1508 C 0.52108 0.01959 0.84063 0.0
C1509 C 0.48717 0.98268 0.77132 0.0
C1510 C 0.49812 0.96724 0.79177 0.0
C1511 C 0.50945 0.97967 0.81374 0.0
C1512 C 0.49774 0.9381 0.79104 0.0
C1513 C 0.47568 0.97032 0.74681 0.0
C1514 C 0.47371 0.9244 0.79115 0.0
C1515 C 0.47342 0.89685 0.79183 0.0
C1516 C 0.4972 0.88253 0.79262 0.0
C1517 C 0.52124 0.89642 0.79227 0.0
C1518 C 0.52148 0.92395 0.79157 0.0
H1519 H 0.47446 0.98469 0.73031 0.0
H1520 H 0.48764 0.95313 0.74034 0.0
H1521 H 0.45542 0.96326 0.75111 0.0
H1522 H 0.45516 0.93503 0.79125 0.0
H1523 H 0.45455 0.88684 0.79218 0.0
H1524 H 0.45226 0.88643 0.19348 0.0
H1525 H 0.45277 0.93459 0.19548 0.0
H1526 H 0.53779 0.93385 0.19769 0.0
H1527 H 0.53763 0.8857 0.1954 0.0
H1528 H 0.47536 0.96842 0.23405 0.0
H1529 H 0.52015 0.98257 0.13509 0.0
H1530 H 0.50604 0.95155 0.14546 0.0
H1531 H 0.53825 0.96113 0.15673 0.0
C1532 C 0.47111 0.89644 0.19439 0.0
C1533 C 0.49492 0.88214 0.19404 0.0
C1534 C 0.47133 0.92397 0.19558 0.0
C1535 C 0.49531 0.93769 0.19633 0.0
C1536 C 0.51909 0.92356 0.19662 0.0
H1537 H 0.53615 0.1036 0.19583 0.0
H1538 H 0.53652 0.05548 0.19817 0.0
C1539 C 0.51892 0.89603 0.19542 0.0
C1540 C 0.49541 0.96684 0.19669 0.0
H1541 H 0.51451 0.02077 0.16129 0.0
C1542 C 0.48386 0.97992 0.21815 0.0
C1543 C 0.50653 0.98167 0.17587 0.0
C1544 C 0.51826 0.96859 0.15185 0.0
C1545 C 0.48346 0.00757 0.21953 0.0
C1546 C 0.49451 0.02238 0.19868 0.0
C1547 C 0.50612 0.00929 0.17726 0.0
C1548 C 0.49405 0.05154 0.19847 0.0
C1549 C 0.47162 0.02068 0.24347 0.0
C1550 C 0.46999 0.06519 0.19773 0.0
C1551 C 0.46965 0.09272 0.1964 0.0
C1552 C 0.49341 0.10708 0.19559 0.0
C1553 C 0.51748 0.09324 0.19641 0.0
C1554 C 0.51776 0.06573 0.19775 0.0
H1555 H 0.47026 0.00687 0.26042 0.0
H1556 H 0.48344 0.03813 0.24952 0.0
H1557 H 0.45139 0.02752 0.23868 0.0
H1558 H 0.45147 0.05453 0.19773 0.0
H1559 H 0.45077 0.10269 0.19571 0.0
loop_
_geom_bond_atom_site_label_1
_geom_bond_atom_site_label_2
_geom_bond_distance
_geom_bond_site_symmetry_2
_ccdc_geom_bond_type
Sc0 O3 2.025 . S
Sc0 O10 2.105 . S
Sc0 O13 2.105 . S
Sc0 O16 2.105 . S
Sc0 O19 2.105 . S
Sc1 O3 2.025 . S
Sc1 O11 2.105 . S
Sc1 O15 2.105 . S
Sc1 O17 2.105 . S
Sc1 O21 2.105 . S
Sc2 O3 2.025 . S
Sc2 O12 2.105 . S
Sc2 O14 2.105 . S
Sc2 O18 2.105 . S
Sc2 O20 2.105 . S
O3 Sc0 2.025 . S
O3 Sc1 2.025 . S
O3 Sc2 2.025 . S
C4 O10 1.268 . S
C4 O20 1.268 . S
C5 O11 1.268 . S
C5 O19 1.268 . S
C6 O12 1.268 . S
C6 O21 1.268 . S
C7 O13 1.268 . S
C7 O17 1.268 . S
C8 O14 1.268 . S
C8 O16 1.268 . S
C9 O15 1.268 . S
C9 O18 1.268 . S
O10 Sc0 2.105 . S
O10 C4 1.268 . S
O11 Sc1 2.105 . S
O11 C5 1.268 . S
O12 Sc2 2.105 . S
O12 C6 1.268 . S
O13 Sc0 2.105 . S
O13 C7 1.268 . S
O14 Sc2 2.105 . S
O14 C8 1.268 . S
O15 Sc1 2.105 . S
O15 C9 1.268 . S
O16 Sc0 2.105 . S
O16 C8 1.268 . S
O17 Sc1 2.105 . S
O17 C7 1.268 . S
O18 Sc2 2.105 . S
O18 C9 1.268 . S
O19 Sc0 2.105 . S
O19 C5 1.268 . S
O20 Sc2 2.105 . S
O20 C4 1.268 . S
O21 Sc1 2.105 . S
O21 C6 1.268 . S
Sc22 O25 2.025 . S
Sc22 O32 2.105 . S
Sc22 O35 2.105 . S
Sc22 O38 2.105 . S
Sc22 O41 2.105 . S
Sc23 O25 2.025 . S
Sc23 O33 2.105 . S
Sc23 O37 2.105 . S
Sc23 O39 2.105 . S
Sc23 O43 2.105 . S
Sc24 O25 2.025 . S
Sc24 O34 2.105 . S
Sc24 O36 2.105 . S
Sc24 O40 2.105 . S
Sc24 O42 2.105 . S
O25 Sc22 2.025 . S
O25 Sc23 2.025 . S
O25 Sc24 2.025 . S
C26 O32 1.268 . S
C26 O42 1.268 . S
C27 O33 1.268 . S
C27 O41 1.268 . S
C28 O34 1.268 . S
C28 O43 1.268 . S
C29 O35 1.268 . S
C29 O39 1.268 . S
C30 O36 1.268 . S
C30 O38 1.268 . S
C31 O37 1.268 . S
C31 O40 1.268 . S
O32 Sc22 2.105 . S
O32 C26 1.268 . S
O33 Sc23 2.105 . S
O33 C27 1.268 . S
O34 Sc24 2.105 . S
O34 C28 1.268 . S
O35 Sc22 2.105 . S
O35 C29 1.268 . S
O36 Sc24 2.105 . S
O36 C30 1.268 . S
O37 Sc23 2.105 . S
O37 C31 1.268 . S
O38 Sc22 2.105 . S
O38 C30 1.268 . S
O39 Sc23 2.105 . S
O39 C29 1.268 . S
O40 Sc24 2.105 . S
O40 C31 1.268 . S
O41 Sc22 2.105 . S
O41 C27 1.268 . S
O42 Sc24 2.105 . S
O42 C26 1.268 . S
O43 Sc23 2.105 . S
O43 C28 1.268 . S
Sc44 O47 2.025 . S
Sc44 O54 2.105 . S
Sc44 O57 2.105 . S
Sc44 O60 2.105 . S
Sc44 O63 2.105 . S
Sc45 O47 2.025 . S
Sc45 O55 2.105 . S
Sc45 O59 2.105 . S
Sc45 O61 2.105 . S
Sc45 O65 2.105 . S
Sc46 O47 2.025 . S
Sc46 O56 2.105 . S
Sc46 O58 2.105 . S
Sc46 O62 2.105 . S
Sc46 O64 2.105 . S
O47 Sc44 2.025 . S
O47 Sc45 2.025 . S
O47 Sc46 2.025 . S
C48 O54 1.268 . S
C48 O64 1.268 . S
C49 O55 1.268 . S
C49 O63 1.268 . S
C50 O56 1.268 . S
C50 O65 1.268 . S
C51 O57 1.268 . S
C51 O61 1.268 . S
C52 O58 1.268 . S
C52 O60 1.268 . S
C53 O59 1.268 . S
C53 O62 1.268 . S
O54 Sc44 2.105 . S
O54 C48 1.268 . S
O55 Sc45 2.105 . S
O55 C49 1.268 . S
O56 Sc46 2.105 . S
O56 C50 1.268 . S
O57 Sc44 2.105 . S
O57 C51 1.268 . S
O58 Sc46 2.105 . S
O58 C52 1.268 . S
O59 Sc45 2.105 . S
O59 C53 1.268 . S
O60 Sc44 2.105 . S
O60 C52 1.268 . S
O61 Sc45 2.105 . S
O61 C51 1.268 . S
O62 Sc46 2.105 . S
O62 C53 1.268 . S
O63 Sc44 2.105 . S
O63 C49 1.268 . S
O64 Sc46 2.105 . S
O64 C48 1.268 . S
O65 Sc45 2.105 . S
O65 C50 1.268 . S
Sc66 O69 2.025 . S
Sc66 O76 2.105 . S
Sc66 O79 2.105 . S
Sc66 O82 2.105 . S
Sc66 O85 2.105 . S
Sc67 O69 2.025 . S
Sc67 O77 2.105 . S
Sc67 O81 2.105 . S
Sc67 O83 2.105 . S
Sc67 O87 2.105 . S
Sc68 O69 2.025 . S
Sc68 O78 2.105 . S
Sc68 O80 2.105 . S
Sc68 O84 2.105 . S
Sc68 O86 2.105 . S
O69 Sc66 2.025 . S
O69 Sc67 2.025 . S
O69 Sc68 2.025 . S
C70 O76 1.268 . S
C70 O86 1.268 . S
C71 O77 1.268 . S
C71 O85 1.268 . S
C72 O78 1.268 . S
C72 O87 1.268 . S
C73 O79 1.268 . S
C73 O83 1.268 . S
C74 O80 1.268 . S
C74 O82 1.268 . S
C75 O81 1.268 . S
C75 O84 1.268 . S
O76 Sc66 2.105 . S
O76 C70 1.268 . S
O77 Sc67 2.105 . S
O77 C71 1.268 . S
O78 Sc68 2.105 . S
O78 C72 1.268 . S
O79 Sc66 2.105 . S
O79 C73 1.268 . S
O80 Sc68 2.105 . S
O80 C74 1.268 . S
O81 Sc67 2.105 . S
O81 C75 1.268 . S
O82 Sc66 2.105 . S
O82 C74 1.268 . S
O83 Sc67 2.105 . S
O83 C73 1.268 . S
O84 Sc68 2.105 . S
O84 C75 1.268 . S
O85 Sc66 2.105 . S
O85 C71 1.268 . S
O86 Sc68 2.105 . S
O86 C70 1.268 . S
O87 Sc67 2.105 . S
O87 C72 1.268 . S
Sc88 O91 2.025 . S
Sc88 O98 2.105 . S
Sc88 O101 2.105 . S
Sc88 O104 2.105 . S
Sc88 O107 2.105 . S
Sc89 O91 2.025 . S
Sc89 O99 2.105 . S
Sc89 O103 2.105 . S
Sc89 O105 2.105 . S
Sc89 O109 2.105 . S
Sc90 O91 2.025 . S
Sc90 O100 2.105 . S
Sc90 O102 2.105 . S
Sc90 O106 2.105 . S
Sc90 O108 2.105 . S
O91 Sc88 2.025 . S
O91 Sc89 2.025 . S
O91 Sc90 2.025 . S
C92 O98 1.268 . S
C92 O108 1.268 . S
C93 O99 1.268 . S
C93 O107 1.268 . S
C94 O100 1.268 . S
C94 O109 1.268 . S
C95 O101 1.268 . S
C95 O105 1.268 . S
C96 O102 1.268 . S
C96 O104 1.268 . S
C97 O103 1.268 . S
C97 O106 1.268 . S
O98 Sc88 2.105 . S
O98 C92 1.268 . S
O99 Sc89 2.105 . S
O99 C93 1.268 . S
O100 Sc90 2.105 . S
O100 C94 1.268 . S
O101 Sc88 2.105 . S
O101 C95 1.268 . S
O102 Sc90 2.105 . S
O102 C96 1.268 . S
O103 Sc89 2.105 . S
O103 C97 1.268 . S
O104 Sc88 2.105 . S
O104 C96 1.268 . S
O105 Sc89 2.105 . S
O105 C95 1.268 . S
O106 Sc90 2.105 . S
O106 C97 1.268 . S
O107 Sc88 2.105 . S
O107 C93 1.268 . S
O108 Sc90 2.105 . S
O108 C92 1.268 . S
O109 Sc89 2.105 . S
O109 C94 1.268 . S
Sc110 O113 2.025 . S
Sc110 O120 2.105 . S
Sc110 O123 2.105 . S
Sc110 O126 2.105 . S
Sc110 O129 2.105 . S
Sc111 O113 2.025 . S
Sc111 O121 2.105 . S
Sc111 O125 2.105 . S
Sc111 O127 2.105 . S
Sc111 O131 2.105 . S
Sc112 O113 2.025 . S
Sc112 O122 2.105 . S
Sc112 O124 2.105 . S
Sc112 O128 2.105 . S
Sc112 O130 2.105 . S
O113 Sc110 2.025 . S
O113 Sc111 2.025 . S
O113 Sc112 2.025 . S
C114 O120 1.268 . S
C114 O130 1.268 . S
C115 O121 1.268 . S
C115 O129 1.268 . S
C116 O122 1.268 . S
C116 O131 1.268 . S
C117 O123 1.268 . S
C117 O127 1.268 . S
C118 O124 1.268 . S
C118 O126 1.268 . S
C119 O125 1.268 . S
C119 O128 1.268 . S
O120 Sc110 2.105 . S
O120 C114 1.268 . S
O121 Sc111 2.105 . S
O121 C115 1.268 . S
O122 Sc112 2.105 . S
O122 C116 1.268 . S
O123 Sc110 2.105 . S
O123 C117 1.268 . S
O124 Sc112 2.105 . S
O124 C118 1.268 . S
O125 Sc111 2.105 . S
O125 C119 1.268 . S
O126 Sc110 2.105 . S
O126 C118 1.268 . S
O127 Sc111 2.105 . S
O127 C117 1.268 . S
O128 Sc112 2.105 . S
O128 C119 1.268 . S
O129 Sc110 2.105 . S
O129 C115 1.268 . S
O130 Sc112 2.105 . S
O130 C114 1.268 . S
O131 Sc111 2.105 . S
O131 C116 1.268 . S
Sc132 O135 2.025 . S
Sc132 O142 2.105 . S
Sc132 O145 2.105 . S
Sc132 O148 2.105 . S
Sc132 O151 2.105 . S
Sc133 O135 2.025 . S
Sc133 O143 2.105 . S
Sc133 O147 2.105 . S
Sc133 O149 2.105 . S
Sc133 O153 2.105 . S
Sc134 O135 2.025 . S
Sc134 O144 2.105 . S
Sc134 O146 2.105 . S
Sc134 O150 2.105 . S
Sc134 O152 2.105 . S
O135 Sc132 2.025 . S
O135 Sc133 2.025 . S
O135 Sc134 2.025 . S
C136 O142 1.268 . S
C136 O152 1.268 . S
C137 O143 1.268 . S
C137 O151 1.268 . S
C138 O144 1.268 . S
C138 O153 1.268 . S
C139 O145 1.268 . S
C139 O149 1.268 . S
C140 O146 1.268 . S
C140 O148 1.268 . S
C141 O147 1.268 . S
C141 O150 1.268 . S
O142 Sc132 2.105 . S
O142 C136 1.268 . S
O143 Sc133 2.105 . S
O143 C137 1.268 . S
O144 Sc134 2.105 . S
O144 C138 1.268 . S
O145 Sc132 2.105 . S
O145 C139 1.268 . S
O146 Sc134 2.105 . S
O146 C140 1.268 . S
O147 Sc133 2.105 . S
O147 C141 1.268 . S
O148 Sc132 2.105 . S
O148 C140 1.268 . S
O149 Sc133 2.105 . S
O149 C139 1.268 . S
O150 Sc134 2.105 . S
O150 C141 1.268 . S
O151 Sc132 2.105 . S
O151 C137 1.268 . S
O152 Sc134 2.105 . S
O152 C136 1.268 . S
O153 Sc133 2.105 . S
O153 C138 1.268 . S
Sc154 O157 2.025 . S
Sc154 O164 2.105 . S
Sc154 O167 2.105 . S
Sc154 O170 2.105 . S
Sc154 O173 2.105 . S
Sc155 O157 2.025 . S
Sc155 O165 2.105 . S
Sc155 O169 2.105 . S
Sc155 O171 2.105 . S
Sc155 O175 2.105 . S
Sc156 O157 2.025 . S
Sc156 O166 2.105 . S
Sc156 O168 2.105 . S
Sc156 O172 2.105 . S
Sc156 O174 2.105 . S
O157 Sc154 2.025 . S
O157 Sc155 2.025 . S
O157 Sc156 2.025 . S
C158 O164 1.268 . S
C158 O174 1.268 . S
C159 O165 1.268 . S
C159 O173 1.268 . S
C160 O166 1.268 . S
C160 O175 1.268 . S
C161 O167 1.268 . S
C161 O171 1.268 . S
C162 O168 1.268 . S
C162 O170 1.268 . S
C163 O169 1.268 . S
C163 O172 1.268 . S
O164 Sc154 2.105 . S
O164 C158 1.268 . S
O165 Sc155 2.105 . S
O165 C159 1.268 . S
O166 Sc156 2.105 . S
O166 C160 1.268 . S
O167 Sc154 2.105 . S
O167 C161 1.268 . S
O168 Sc156 2.105 . S
O168 C162 1.268 . S
O169 Sc155 2.105 . S
O169 C163 1.268 . S
O170 Sc154 2.105 . S
O170 C162 1.268 . S
O171 Sc155 2.105 . S
O171 C161 1.268 . S
O172 Sc156 2.105 . S
O172 C163 1.268 . S
O173 Sc154 2.105 . S
O173 C159 1.268 . S
O174 Sc156 2.105 . S
O174 C158 1.268 . S
O175 Sc155 2.105 . S
O175 C160 1.268 . S
Sc176 O179 2.025 . S
Sc176 O186 2.105 . S
Sc176 O189 2.105 . S
Sc176 O192 2.105 . S
Sc176 O195 2.105 . S
Sc177 O179 2.025 . S
Sc177 O187 2.105 . S
Sc177 O191 2.105 . S
Sc177 O193 2.105 . S
Sc177 O197 2.105 . S
Sc178 O179 2.025 . S
Sc178 O188 2.105 . S
Sc178 O190 2.105 . S
Sc178 O194 2.105 . S
Sc178 O196 2.105 . S
O179 Sc176 2.025 . S
O179 Sc177 2.025 . S
O179 Sc178 2.025 . S
C180 O186 1.268 . S
C180 O196 1.268 . S
C181 O187 1.268 . S
C181 O195 1.268 . S
C182 O188 1.268 . S
C182 O197 1.268 . S
C183 O189 1.268 . S
C183 O193 1.268 . S
C184 O190 1.268 . S
C184 O192 1.268 . S
C185 O191 1.268 . S
C185 O194 1.268 . S
O186 Sc176 2.105 . S
O186 C180 1.268 . S
O187 Sc177 2.105 . S
O187 C181 1.268 . S
O188 Sc178 2.105 . S
O188 C182 1.268 . S
O189 Sc176 2.105 . S
O189 C183 1.268 . S
O190 Sc178 2.105 . S
O190 C184 1.268 . S
O191 Sc177 2.105 . S
O191 C185 1.268 . S
O192 Sc176 2.105 . S
O192 C184 1.268 . S
O193 Sc177 2.105 . S
O193 C183 1.268 . S
O194 Sc178 2.105 . S
O194 C185 1.268 . S
O195 Sc176 2.105 . S
O195 C181 1.268 . S
O196 Sc178 2.105 . S
O196 C180 1.268 . S
O197 Sc177 2.105 . S
O197 C182 1.268 . S
Sc198 O201 2.025 . S
Sc198 O208 2.105 . S
Sc198 O211 2.105 . S
Sc198 O214 2.105 . S
Sc198 O217 2.105 . S
Sc199 O201 2.025 . S
Sc199 O209 2.105 . S
Sc199 O213 2.105 . S
Sc199 O215 2.105 . S
Sc199 O219 2.105 . S
Sc200 O201 2.025 . S
Sc200 O210 2.105 . S
Sc200 O212 2.105 . S
Sc200 O216 2.105 . S
Sc200 O218 2.105 . S
O201 Sc198 2.025 . S
O201 Sc199 2.025 . S
O201 Sc200 2.025 . S
C202 O208 1.268 . S
C202 O218 1.268 . S
C203 O209 1.268 . S
C203 O217 1.268 . S
C204 O210 1.268 . S
C204 O219 1.268 . S
C205 O211 1.268 . S
C205 O215 1.268 . S
C206 O212 1.268 . S
C206 O214 1.268 . S
C207 O213 1.268 . S
C207 O216 1.268 . S
O208 Sc198 2.105 . S
O208 C202 1.268 . S
O209 Sc199 2.105 . S
O209 C203 1.268 . S
O210 Sc200 2.105 . S
O210 C204 1.268 . S
O211 Sc198 2.105 . S
O211 C205 1.268 . S
O212 Sc200 2.105 . S
O212 C206 1.268 . S
O213 Sc199 2.105 . S
O213 C207 1.268 . S
O214 Sc198 2.105 . S
O214 C206 1.268 . S
O215 Sc199 2.105 . S
O215 C205 1.268 . S
O216 Sc200 2.105 . S
O216 C207 1.268 . S
O217 Sc198 2.105 . S
O217 C203 1.268 . S
O218 Sc200 2.105 . S
O218 C202 1.268 . S
O219 Sc199 2.105 . S
O219 C204 1.268 . S
Sc220 O223 2.025 . S
Sc220 O230 2.105 . S
Sc220 O233 2.105 . S
Sc220 O236 2.105 . S
Sc220 O239 2.105 . S
Sc221 O223 2.025 . S
Sc221 O231 2.105 . S
Sc221 O235 2.105 . S
Sc221 O237 2.105 . S
Sc221 O241 2.105 . S
Sc222 O223 2.025 . S
Sc222 O232 2.105 . S
Sc222 O234 2.105 . S
Sc222 O238 2.105 . S
Sc222 O240 2.105 . S
O223 Sc220 2.025 . S
O223 Sc221 2.025 . S
O223 Sc222 2.025 . S
C224 O230 1.268 . S
C224 O240 1.268 . S
C225 O231 1.268 . S
C225 O239 1.268 . S
C226 O232 1.268 . S
C226 O241 1.268 . S
C227 O233 1.268 . S
C227 O237 1.268 . S
C228 O234 1.268 . S
C228 O236 1.268 . S
C229 O235 1.268 . S
C229 O238 1.268 . S
O230 Sc220 2.105 . S
O230 C224 1.268 . S
O231 Sc221 2.105 . S
O231 C225 1.268 . S
O232 Sc222 2.105 . S
O232 C226 1.268 . S
O233 Sc220 2.105 . S
O233 C227 1.268 . S
O234 Sc222 2.105 . S
O234 C228 1.268 . S
O235 Sc221 2.105 . S
O235 C229 1.268 . S
O236 Sc220 2.105 . S
O236 C228 1.268 . S
O237 Sc221 2.105 . S
O237 C227 1.268 . S
O238 Sc222 2.105 . S
O238 C229 1.268 . S
O239 Sc220 2.105 . S
O239 C225 1.268 . S
O240 Sc222 2.105 . S
O240 C224 1.268 . S
O241 Sc221 2.105 . S
O241 C226 1.268 . S
Sc242 O245 2.025 . S
Sc242 O252 2.105 . S
Sc242 O255 2.105 . S
Sc242 O258 2.105 . S
Sc242 O261 2.105 . S
Sc243 O245 2.025 . S
Sc243 O253 2.105 . S
Sc243 O257 2.105 . S
Sc243 O259 2.105 . S
Sc243 O263 2.105 . S
Sc244 O245 2.025 . S
Sc244 O254 2.105 . S
Sc244 O256 2.105 . S
Sc244 O260 2.105 . S
Sc244 O262 2.105 . S
O245 Sc242 2.025 . S
O245 Sc243 2.025 . S
O245 Sc244 2.025 . S
C246 O252 1.268 . S
C246 O262 1.268 . S
C247 O253 1.268 . S
C247 O261 1.268 . S
C248 O254 1.268 . S
C248 O263 1.268 . S
C249 O255 1.268 . S
C249 O259 1.268 . S
C250 O256 1.268 . S
C250 O258 1.268 . S
C251 O257 1.268 . S
C251 O260 1.268 . S
O252 Sc242 2.105 . S
O252 C246 1.268 . S
O253 Sc243 2.105 . S
O253 C247 1.268 . S
O254 Sc244 2.105 . S
O254 C248 1.268 . S
O255 Sc242 2.105 . S
O255 C249 1.268 . S
O256 Sc244 2.105 . S
O256 C250 1.268 . S
O257 Sc243 2.105 . S
O257 C251 1.268 . S
O258 Sc242 2.105 . S
O258 C250 1.268 . S
O259 Sc243 2.105 . S
O259 C249 1.268 . S
O260 Sc244 2.105 . S
O260 C251 1.268 . S
O261 Sc242 2.105 . S
O261 C247 1.268 . S
O262 Sc244 2.105 . S
O262 C246 1.268 . S
O263 Sc243 2.105 . S
O263 C248 1.268 . S
H264 C272 0.929 . S
H265 C274 0.930 . S
H266 C276 0.930 . S
H267 C279 0.929 . S
H268 C282 0.930 . S
H269 C284 0.960 . S
H270 C284 0.960 . S
H271 C284 0.960 . S
C272 H264 0.929 . S
C272 C273 1.377 . S
C272 C274 1.384 . S
C273 C272 1.377 . S
C273 C279 1.390 . S
C274 H265 0.930 . S
C274 C272 1.384 . S
C274 C275 1.372 . S
C275 C274 1.372 . S
C275 C276 1.400 . S
C275 C280 1.490 . S
C276 H266 0.930 . S
C276 C275 1.400 . S
C276 C279 1.386 . S
H277 C293 0.930 . S
H278 C294 0.931 . S
C279 H267 0.929 . S
C279 C273 1.390 . S
C279 C276 1.386 . S
C280 C275 1.490 . S
C280 C282 1.395 . S
C280 C283 1.403 . S
H281 C287 0.930 . S
C282 H268 0.930 . S
C282 C280 1.395 . S
C282 C285 1.403 . S
C283 C280 1.403 . S
C283 C284 1.524 . S
C283 C287 1.400 . S
C284 H269 0.960 . S
C284 H270 0.960 . S
C284 H271 0.960 . S
C284 C283 1.524 . S
C285 C282 1.403 . S
C285 C286 1.392 . S
C285 C289 1.495 . S
C286 C285 1.392 . S
C286 C287 1.385 . S
C286 C288 1.478 . S
C287 H281 0.930 . S
C287 C283 1.400 . S
C287 C286 1.385 . S
C288 C286 1.478 . S
C288 C290 1.381 . S
C288 C294 1.383 . S
C289 C285 1.495 . S
C289 H295 0.959 . S
C289 H296 0.961 . S
C289 H297 0.960 . S
C290 C288 1.381 . S
C290 C291 1.394 . S
C290 H298 0.930 . S
C291 C290 1.394 . S
C291 C292 1.383 . S
C291 H299 0.929 . S
C292 C291 1.383 . S
C292 C293 1.377 . S
C293 H277 0.930 . S
C293 C292 1.377 . S
C293 C294 1.379 . S
C294 H278 0.931 . S
C294 C288 1.383 . S
C294 C293 1.379 . S
H295 C289 0.959 . S
H296 C289 0.961 . S
H297 C289 0.960 . S
H298 C290 0.930 . S
H299 C291 0.929 . S
H300 C308 0.929 . S
H301 C310 0.930 . S
H302 C312 0.930 . S
H303 C315 0.929 . S
H304 C318 0.930 . S
H305 C320 0.960 . S
H306 C320 0.960 . S
H307 C320 0.960 . S
C308 H300 0.929 . S
C308 C309 1.377 . S
C308 C310 1.384 . S
C309 C308 1.377 . S
C309 C315 1.390 . S
C310 H301 0.930 . S
C310 C308 1.384 . S
C310 C311 1.372 . S
C311 C310 1.372 . S
C311 C312 1.400 . S
C311 C316 1.490 . S
C312 H302 0.930 . S
C312 C311 1.400 . S
C312 C315 1.386 . S
H313 C329 0.930 . S
H314 C330 0.931 . S
C315 H303 0.929 . S
C315 C309 1.390 . S
C315 C312 1.386 . S
C316 C311 1.490 . S
C316 C318 1.395 . S
C316 C319 1.403 . S
H317 C323 0.930 . S
C318 H304 0.930 . S
C318 C316 1.395 . S
C318 C321 1.403 . S
C319 C316 1.403 . S
C319 C320 1.524 . S
C319 C323 1.400 . S
C320 H305 0.960 . S
C320 H306 0.960 . S
C320 H307 0.960 . S
C320 C319 1.524 . S
C321 C318 1.403 . S
C321 C322 1.392 . S
C321 C325 1.495 . S
C322 C321 1.392 . S
C322 C323 1.385 . S
C322 C324 1.478 . S
C323 H317 0.930 . S
C323 C319 1.400 . S
C323 C322 1.385 . S
C324 C322 1.478 . S
C324 C326 1.381 . S
C324 C330 1.383 . S
C325 C321 1.495 . S
C325 H331 0.959 . S
C325 H332 0.961 . S
C325 H333 0.960 . S
C326 C324 1.381 . S
C326 C327 1.394 . S
C326 H334 0.930 . S
C327 C326 1.394 . S
C327 C328 1.383 . S
C327 H335 0.929 . S
C328 C327 1.383 . S
C328 C329 1.377 . S
C329 H313 0.930 . S
C329 C328 1.377 . S
C329 C330 1.379 . S
C330 H314 0.931 . S
C330 C324 1.383 . S
C330 C329 1.379 . S
H331 C325 0.959 . S
H332 C325 0.961 . S
H333 C325 0.960 . S
H334 C326 0.930 . S
H335 C327 0.929 . S
H336 C344 0.929 . S
H337 C346 0.930 . S
H338 C348 0.930 . S
H339 C351 0.929 . S
H340 C354 0.930 . S
H341 C356 0.960 . S
H342 C356 0.960 . S
H343 C356 0.960 . S
C344 H336 0.929 . S
C344 C345 1.377 . S
C344 C346 1.384 . S
C345 C344 1.377 . S
C345 C351 1.390 . S
C346 H337 0.930 . S
C346 C344 1.384 . S
C346 C347 1.372 . S
C347 C346 1.372 . S
C347 C348 1.400 . S
C347 C352 1.490 . S
C348 H338 0.930 . S
C348 C347 1.400 . S
C348 C351 1.386 . S
H349 C365 0.930 . S
H350 C366 0.931 . S
C351 H339 0.929 . S
C351 C345 1.390 . S
C351 C348 1.386 . S
C352 C347 1.490 . S
C352 C354 1.395 . S
C352 C355 1.403 . S
H353 C359 0.930 . S
C354 H340 0.930 . S
C354 C352 1.395 . S
C354 C357 1.403 . S
C355 C352 1.403 . S
C355 C356 1.524 . S
C355 C359 1.400 . S
C356 H341 0.960 . S
C356 H342 0.960 . S
C356 H343 0.960 . S
C356 C355 1.524 . S
C357 C354 1.403 . S
C357 C358 1.392 . S
C357 C361 1.495 . S
C358 C357 1.392 . S
C358 C359 1.385 . S
C358 C360 1.478 . S
C359 H353 0.930 . S
C359 C355 1.400 . S
C359 C358 1.385 . S
C360 C358 1.478 . S
C360 C362 1.381 . S
C360 C366 1.383 . S
C361 C357 1.495 . S
C361 H367 0.959 . S
C361 H368 0.961 . S
C361 H369 0.960 . S
C362 C360 1.381 . S
C362 C363 1.394 . S
C362 H370 0.930 . S
C363 C362 1.394 . S
C363 C364 1.383 . S
C363 H371 0.929 . S
C364 C363 1.383 . S
C364 C365 1.377 . S
C365 H349 0.930 . S
C365 C364 1.377 . S
C365 C366 1.379 . S
C366 H350 0.931 . S
C366 C360 1.383 . S
C366 C365 1.379 . S
H367 C361 0.959 . S
H368 C361 0.961 . S
H369 C361 0.960 . S
H370 C362 0.930 . S
H371 C363 0.929 . S
H372 C380 0.929 . S
H373 C382 0.930 . S
H374 C384 0.930 . S
H375 C387 0.929 . S
H376 C390 0.930 . S
H377 C392 0.960 . S
H378 C392 0.960 . S
H379 C392 0.960 . S
C380 H372 0.929 . S
C380 C381 1.377 . S
C380 C382 1.384 . S
C381 C380 1.377 . S
C381 C387 1.390 . S
C382 H373 0.930 . S
C382 C380 1.384 . S
C382 C383 1.372 . S
C383 C382 1.372 . S
C383 C384 1.400 . S
C383 C388 1.490 . S
C384 H374 0.930 . S
C384 C383 1.400 . S
C384 C387 1.386 . S
H385 C401 0.930 . S
H386 C402 0.931 . S
C387 H375 0.929 . S
C387 C381 1.390 . S
C387 C384 1.386 . S
C388 C383 1.490 . S
C388 C390 1.395 . S
C388 C391 1.403 . S
H389 C395 0.930 . S
C390 H376 0.930 . S
C390 C388 1.395 . S
C390 C393 1.403 . S
C391 C388 1.403 . S
C391 C392 1.524 . S
C391 C395 1.400 . S
C392 H377 0.960 . S
C392 H378 0.960 . S
C392 H379 0.960 . S
C392 C391 1.524 . S
C393 C390 1.403 . S
C393 C394 1.392 . S
C393 C397 1.495 . S
C394 C393 1.392 . S
C394 C395 1.385 . S
C394 C396 1.478 . S
C395 H389 0.930 . S
C395 C391 1.400 . S
C395 C394 1.385 . S
C396 C394 1.478 . S
C396 C398 1.381 . S
C396 C402 1.383 . S
C397 C393 1.495 . S
C397 H403 0.959 . S
C397 H404 0.961 . S
C397 H405 0.960 . S
C398 C396 1.381 . S
C398 C399 1.394 . S
C398 H406 0.930 . S
C399 C398 1.394 . S
C399 C400 1.383 . S
C399 H407 0.929 . S
C400 C399 1.383 . S
C400 C401 1.377 . S
C401 H385 0.930 . S
C401 C400 1.377 . S
C401 C402 1.379 . S
C402 H386 0.931 . S
C402 C396 1.383 . S
C402 C401 1.379 . S
H403 C397 0.959 . S
H404 C397 0.961 . S
H405 C397 0.960 . S
H406 C398 0.930 . S
H407 C399 0.929 . S
H408 C416 0.929 . S
H409 C418 0.930 . S
H410 C420 0.930 . S
H411 C423 0.929 . S
H412 C426 0.930 . S
H413 C428 0.960 . S
H414 C428 0.960 . S
H415 C428 0.960 . S
C416 H408 0.929 . S
C416 C417 1.377 . S
C416 C418 1.384 . S
C417 C416 1.377 . S
C417 C423 1.390 . S
C418 H409 0.930 . S
C418 C416 1.384 . S
C418 C419 1.372 . S
C419 C418 1.372 . S
C419 C420 1.400 . S
C419 C424 1.490 . S
C420 H410 0.930 . S
C420 C419 1.400 . S
C420 C423 1.386 . S
H421 C437 0.930 . S
H422 C438 0.931 . S
C423 H411 0.929 . S
C423 C417 1.390 . S
C423 C420 1.386 . S
C424 C419 1.490 . S
C424 C426 1.395 . S
C424 C427 1.403 . S
H425 C431 0.930 . S
C426 H412 0.930 . S
C426 C424 1.395 . S
C426 C429 1.403 . S
C427 C424 1.403 . S
C427 C428 1.524 . S
C427 C431 1.400 . S
C428 H413 0.960 . S
C428 H414 0.960 . S
C428 H415 0.960 . S
C428 C427 1.524 . S
C429 C426 1.403 . S
C429 C430 1.392 . S
C429 C433 1.495 . S
C430 C429 1.392 . S
C430 C431 1.385 . S
C430 C432 1.478 . S
C431 H425 0.930 . S
C431 C427 1.400 . S
C431 C430 1.385 . S
C432 C430 1.478 . S
C432 C434 1.381 . S
C432 C438 1.383 . S
C433 C429 1.495 . S
C433 H439 0.959 . S
C433 H440 0.961 . S
C433 H441 0.960 . S
C434 C432 1.381 . S
C434 C435 1.394 . S
C434 H442 0.930 . S
C435 C434 1.394 . S
C435 C436 1.383 . S
C435 H443 0.929 . S
C436 C435 1.383 . S
C436 C437 1.377 . S
C437 H421 0.930 . S
C437 C436 1.377 . S
C437 C438 1.379 . S
C438 H422 0.931 . S
C438 C432 1.383 . S
C438 C437 1.379 . S
H439 C433 0.959 . S
H440 C433 0.961 . S
H441 C433 0.960 . S
H442 C434 0.930 . S
H443 C435 0.929 . S
H444 C452 0.929 . S
H445 C454 0.930 . S
H446 C456 0.930 . S
H447 C459 0.929 . S
H448 C462 0.930 . S
H449 C464 0.960 . S
H450 C464 0.960 . S
H451 C464 0.960 . S
C452 H444 0.929 . S
C452 C453 1.377 . S
C452 C454 1.384 . S
C453 C452 1.377 . S
C453 C459 1.390 . S
C454 H445 0.930 . S
C454 C452 1.384 . S
C454 C455 1.372 . S
C455 C454 1.372 . S
C455 C456 1.400 . S
C455 C460 1.490 . S
C456 H446 0.930 . S
C456 C455 1.400 . S
C456 C459 1.386 . S
H457 C473 0.930 . S
H458 C474 0.931 . S
C459 H447 0.929 . S
C459 C453 1.390 . S
C459 C456 1.386 . S
C460 C455 1.490 . S
C460 C462 1.395 . S
C460 C463 1.403 . S
H461 C467 0.930 . S
C462 H448 0.930 . S
C462 C460 1.395 . S
C462 C465 1.403 . S
C463 C460 1.403 . S
C463 C464 1.524 . S
C463 C467 1.400 . S
C464 H449 0.960 . S
C464 H450 0.960 . S
C464 H451 0.960 . S
C464 C463 1.524 . S
C465 C462 1.403 . S
C465 C466 1.392 . S
C465 C469 1.495 . S
C466 C465 1.392 . S
C466 C467 1.385 . S
C466 C468 1.478 . S
C467 H461 0.930 . S
C467 C463 1.400 . S
C467 C466 1.385 . S
C468 C466 1.478 . S
C468 C470 1.381 . S
C468 C474 1.383 . S
C469 C465 1.495 . S
C469 H475 0.959 . S
C469 H476 0.961 . S
C469 H477 0.960 . S
C470 C468 1.381 . S
C470 C471 1.394 . S
C470 H478 0.930 . S
C471 C470 1.394 . S
C471 C472 1.383 . S
C471 H479 0.929 . S
C472 C471 1.383 . S
C472 C473 1.377 . S
C473 H457 0.930 . S
C473 C472 1.377 . S
C473 C474 1.379 . S
C474 H458 0.931 . S
C474 C468 1.383 . S
C474 C473 1.379 . S
H475 C469 0.959 . S
H476 C469 0.961 . S
H477 C469 0.960 . S
H478 C470 0.930 . S
H479 C471 0.929 . S
H480 C488 0.929 . S
H481 C490 0.930 . S
H482 C492 0.930 . S
H483 C495 0.929 . S
H484 C498 0.930 . S
H485 C500 0.960 . S
H486 C500 0.960 . S
H487 C500 0.960 . S
C488 H480 0.929 . S
C488 C489 1.377 . S
C488 C490 1.384 . S
C489 C488 1.377 . S
C489 C495 1.390 . S
C490 H481 0.930 . S
C490 C488 1.384 . S
C490 C491 1.372 . S
C491 C490 1.372 . S
C491 C492 1.400 . S
C491 C496 1.490 . S
C492 H482 0.930 . S
C492 C491 1.400 . S
C492 C495 1.386 . S
H493 C509 0.930 . S
H494 C510 0.931 . S
C495 H483 0.929 . S
C495 C489 1.390 . S
C495 C492 1.386 . S
C496 C491 1.490 . S
C496 C498 1.395 . S
C496 C499 1.403 . S
H497 C503 0.930 . S
C498 H484 0.930 . S
C498 C496 1.395 . S
C498 C501 1.403 . S
C499 C496 1.403 . S
C499 C500 1.524 . S
C499 C503 1.400 . S
C500 H485 0.960 . S
C500 H486 0.960 . S
C500 H487 0.960 . S
C500 C499 1.524 . S
C501 C498 1.403 . S
C501 C502 1.392 . S
C501 C505 1.495 . S
C502 C501 1.392 . S
C502 C503 1.385 . S
C502 C504 1.478 . S
C503 H497 0.930 . S
C503 C499 1.400 . S
C503 C502 1.385 . S
C504 C502 1.478 . S
C504 C506 1.381 . S
C504 C510 1.383 . S
C505 C501 1.495 . S
C505 H511 0.959 . S
C505 H512 0.961 . S
C505 H513 0.960 . S
C506 C504 1.381 . S
C506 C507 1.394 . S
C506 H514 0.930 . S
C507 C506 1.394 . S
C507 C508 1.383 . S
C507 H515 0.929 . S
C508 C507 1.383 . S
C508 C509 1.377 . S
C509 H493 0.930 . S
C509 C508 1.377 . S
C509 C510 1.379 . S
C510 H494 0.931 . S
C510 C504 1.383 . S
C510 C509 1.379 . S
H511 C505 0.959 . S
H512 C505 0.961 . S
H513 C505 0.960 . S
H514 C506 0.930 . S
H515 C507 0.929 . S
H516 C524 0.929 . S
H517 C526 0.930 . S
H518 C528 0.930 . S
H519 C531 0.929 . S
H520 C534 0.930 . S
H521 C536 0.960 . S
H522 C536 0.960 . S
H523 C536 0.960 . S
C524 H516 0.929 . S
C524 C525 1.377 . S
C524 C526 1.384 . S
C525 C524 1.377 . S
C525 C531 1.390 . S
C526 H517 0.930 . S
C526 C524 1.384 . S
C526 C527 1.372 . S
C527 C526 1.372 . S
C527 C528 1.400 . S
C527 C532 1.490 . S
C528 H518 0.930 . S
C528 C527 1.400 . S
C528 C531 1.386 . S
H529 C545 0.930 . S
H530 C546 0.931 . S
C531 H519 0.929 . S
C531 C525 1.390 . S
C531 C528 1.386 . S
C532 C527 1.490 . S
C532 C534 1.395 . S
C532 C535 1.403 . S
H533 C539 0.930 . S
C534 H520 0.930 . S
C534 C532 1.395 . S
C534 C537 1.403 . S
C535 C532 1.403 . S
C535 C536 1.524 . S
C535 C539 1.400 . S
C536 H521 0.960 . S
C536 H522 0.960 . S
C536 H523 0.960 . S
C536 C535 1.524 . S
C537 C534 1.403 . S
C537 C538 1.392 . S
C537 C541 1.495 . S
C538 C537 1.392 . S
C538 C539 1.385 . S
C538 C540 1.478 . S
C539 H533 0.930 . S
C539 C535 1.400 . S
C539 C538 1.385 . S
C540 C538 1.478 . S
C540 C542 1.381 . S
C540 C546 1.383 . S
C541 C537 1.495 . S
C541 H547 0.959 . S
C541 H548 0.961 . S
C541 H549 0.960 . S
C542 C540 1.381 . S
C542 C543 1.394 . S
C542 H550 0.930 . S
C543 C542 1.394 . S
C543 C544 1.383 . S
C543 H551 0.929 . S
C544 C543 1.383 . S
C544 C545 1.377 . S
C545 H529 0.930 . S
C545 C544 1.377 . S
C545 C546 1.379 . S
C546 H530 0.931 . S
C546 C540 1.383 . S
C546 C545 1.379 . S
H547 C541 0.959 . S
H548 C541 0.961 . S
H549 C541 0.960 . S
H550 C542 0.930 . S
H551 C543 0.929 . S
H552 C560 0.929 . S
H553 C562 0.930 . S
H554 C564 0.930 . S
H555 C567 0.929 . S
H556 C570 0.930 . S
H557 C572 0.960 . S
H558 C572 0.960 . S
H559 C572 0.960 . S
C560 H552 0.929 . S
C560 C561 1.377 . S
C560 C562 1.384 . S
C561 C560 1.377 . S
C561 C567 1.390 . S
C562 H553 0.930 . S
C562 C560 1.384 . S
C562 C563 1.372 . S
C563 C562 1.372 . S
C563 C564 1.400 . S
C563 C568 1.490 . S
C564 H554 0.930 . S
C564 C563 1.400 . S
C564 C567 1.386 . S
H565 C581 0.930 . S
H566 C582 0.931 . S
C567 H555 0.929 . S
C567 C561 1.390 . S
C567 C564 1.386 . S
C568 C563 1.490 . S
C568 C570 1.395 . S
C568 C571 1.403 . S
H569 C575 0.930 . S
C570 H556 0.930 . S
C570 C568 1.395 . S
C570 C573 1.403 . S
C571 C568 1.403 . S
C571 C572 1.524 . S
C571 C575 1.400 . S
C572 H557 0.960 . S
C572 H558 0.960 . S
C572 H559 0.960 . S
C572 C571 1.524 . S
C573 C570 1.403 . S
C573 C574 1.392 . S
C573 C577 1.495 . S
C574 C573 1.392 . S
C574 C575 1.385 . S
C574 C576 1.478 . S
C575 H569 0.930 . S
C575 C571 1.400 . S
C575 C574 1.385 . S
C576 C574 1.478 . S
C576 C578 1.381 . S
C576 C582 1.383 . S
C577 C573 1.495 . S
C577 H583 0.959 . S
C577 H584 0.961 . S
C577 H585 0.960 . S
C578 C576 1.381 . S
C578 C579 1.394 . S
C578 H586 0.930 . S
C579 C578 1.394 . S
C579 C580 1.383 . S
C579 H587 0.929 . S
C580 C579 1.383 . S
C580 C581 1.377 . S
C581 H565 0.930 . S
C581 C580 1.377 . S
C581 C582 1.379 . S
C582 H566 0.931 . S
C582 C576 1.383 . S
C582 C581 1.379 . S
H583 C577 0.959 . S
H584 C577 0.961 . S
H585 C577 0.960 . S
H586 C578 0.930 . S
H587 C579 0.929 . S
H588 C596 0.929 . S
H589 C598 0.930 . S
H590 C600 0.930 . S
H591 C603 0.929 . S
H592 C606 0.930 . S
H593 C608 0.960 . S
H594 C608 0.960 . S
H595 C608 0.960 . S
C596 H588 0.929 . S
C596 C597 1.377 . S
C596 C598 1.384 . S
C597 C596 1.377 . S
C597 C603 1.390 . S
C598 H589 0.930 . S
C598 C596 1.384 . S
C598 C599 1.372 . S
C599 C598 1.372 . S
C599 C600 1.400 . S
C599 C604 1.490 . S
C600 H590 0.930 . S
C600 C599 1.400 . S
C600 C603 1.386 . S
H601 C617 0.930 . S
H602 C618 0.931 . S
C603 H591 0.929 . S
C603 C597 1.390 . S
C603 C600 1.386 . S
C604 C599 1.490 . S
C604 C606 1.395 . S
C604 C607 1.403 . S
H605 C611 0.930 . S
C606 H592 0.930 . S
C606 C604 1.395 . S
C606 C609 1.403 . S
C607 C604 1.403 . S
C607 C608 1.524 . S
C607 C611 1.400 . S
C608 H593 0.960 . S
C608 H594 0.960 . S
C608 H595 0.960 . S
C608 C607 1.524 . S
C609 C606 1.403 . S
C609 C610 1.392 . S
C609 C613 1.495 . S
C610 C609 1.392 . S
C610 C611 1.385 . S
C610 C612 1.478 . S
C611 H605 0.930 . S
C611 C607 1.400 . S
C611 C610 1.385 . S
C612 C610 1.478 . S
C612 C614 1.381 . S
C612 C618 1.383 . S
C613 C609 1.495 . S
C613 H619 0.959 . S
C613 H620 0.961 . S
C613 H621 0.960 . S
C614 C612 1.381 . S
C614 C615 1.394 . S
C614 H622 0.930 . S
C615 C614 1.394 . S
C615 C616 1.383 . S
C615 H623 0.929 . S
C616 C615 1.383 . S
C616 C617 1.377 . S
C617 H601 0.930 . S
C617 C616 1.377 . S
C617 C618 1.379 . S
C618 H602 0.931 . S
C618 C612 1.383 . S
C618 C617 1.379 . S
H619 C613 0.959 . S
H620 C613 0.961 . S
H621 C613 0.960 . S
H622 C614 0.930 . S
H623 C615 0.929 . S
H624 C632 0.929 . S
H625 C634 0.930 . S
H626 C636 0.930 . S
H627 C639 0.929 . S
H628 C642 0.930 . S
H629 C644 0.960 . S
H630 C644 0.960 . S
H631 C644 0.960 . S
C632 H624 0.929 . S
C632 C633 1.377 . S
C632 C634 1.384 . S
C633 C632 1.377 . S
C633 C639 1.390 . S
C634 H625 0.930 . S
C634 C632 1.384 . S
C634 C635 1.372 . S
C635 C634 1.372 . S
C635 C636 1.400 . S
C635 C640 1.490 . S
C636 H626 0.930 . S
C636 C635 1.400 . S
C636 C639 1.386 . S
H637 C653 0.930 . S
H638 C654 0.931 . S
C639 H627 0.929 . S
C639 C633 1.390 . S
C639 C636 1.386 . S
C640 C635 1.490 . S
C640 C642 1.395 . S
C640 C643 1.403 . S
H641 C647 0.930 . S
C642 H628 0.930 . S
C642 C640 1.395 . S
C642 C645 1.403 . S
C643 C640 1.403 . S
C643 C644 1.524 . S
C643 C647 1.400 . S
C644 H629 0.960 . S
C644 H630 0.960 . S
C644 H631 0.960 . S
C644 C643 1.524 . S
C645 C642 1.403 . S
C645 C646 1.392 . S
C645 C649 1.495 . S
C646 C645 1.392 . S
C646 C647 1.385 . S
C646 C648 1.478 . S
C647 H641 0.930 . S
C647 C643 1.400 . S
C647 C646 1.385 . S
C648 C646 1.478 . S
C648 C650 1.381 . S
C648 C654 1.383 . S
C649 C645 1.495 . S
C649 H655 0.959 . S
C649 H656 0.961 . S
C649 H657 0.960 . S
C650 C648 1.381 . S
C650 C651 1.394 . S
C650 H658 0.930 . S
C651 C650 1.394 . S
C651 C652 1.383 . S
C651 H659 0.929 . S
C652 C651 1.383 . S
C652 C653 1.377 . S
C653 H637 0.930 . S
C653 C652 1.377 . S
C653 C654 1.379 . S
C654 H638 0.931 . S
C654 C648 1.383 . S
C654 C653 1.379 . S
H655 C649 0.959 . S
H656 C649 0.961 . S
H657 C649 0.960 . S
H658 C650 0.930 . S
H659 C651 0.929 . S
H660 C668 0.929 . S
H661 C670 0.930 . S
H662 C672 0.930 . S
H663 C675 0.929 . S
H664 C678 0.930 . S
H665 C680 0.960 . S
H666 C680 0.960 . S
H667 C680 0.960 . S
C668 H660 0.929 . S
C668 C669 1.377 . S
C668 C670 1.384 . S
C669 C668 1.377 . S
C669 C675 1.390 . S
C670 H661 0.930 . S
C670 C668 1.384 . S
C670 C671 1.372 . S
C671 C670 1.372 . S
C671 C672 1.400 . S
C671 C676 1.490 . S
C672 H662 0.930 . S
C672 C671 1.400 . S
C672 C675 1.386 . S
H673 C689 0.930 . S
H674 C690 0.931 . S
C675 H663 0.929 . S
C675 C669 1.390 . S
C675 C672 1.386 . S
C676 C671 1.490 . S
C676 C678 1.395 . S
C676 C679 1.403 . S
H677 C683 0.930 . S
C678 H664 0.930 . S
C678 C676 1.395 . S
C678 C681 1.403 . S
C679 C676 1.403 . S
C679 C680 1.524 . S
C679 C683 1.400 . S
C680 H665 0.960 . S
C680 H666 0.960 . S
C680 H667 0.960 . S
C680 C679 1.524 . S
C681 C678 1.403 . S
C681 C682 1.392 . S
C681 C685 1.495 . S
C682 C681 1.392 . S
C682 C683 1.385 . S
C682 C684 1.478 . S
C683 H677 0.930 . S
C683 C679 1.400 . S
C683 C682 1.385 . S
C684 C682 1.478 . S
C684 C686 1.381 . S
C684 C690 1.383 . S
C685 C681 1.495 . S
C685 H691 0.959 . S
C685 H692 0.961 . S
C685 H693 0.960 . S
C686 C684 1.381 . S
C686 C687 1.394 . S
C686 H694 0.930 . S
C687 C686 1.394 . S
C687 C688 1.383 . S
C687 H695 0.929 . S
C688 C687 1.383 . S
C688 C689 1.377 . S
C689 H673 0.930 . S
C689 C688 1.377 . S
C689 C690 1.379 . S
C690 H674 0.931 . S
C690 C684 1.383 . S
C690 C689 1.379 . S
H691 C685 0.959 . S
H692 C685 0.961 . S
H693 C685 0.960 . S
H694 C686 0.930 . S
H695 C687 0.929 . S
H696 C704 0.929 . S
H697 C706 0.930 . S
H698 C708 0.930 . S
H699 C711 0.929 . S
H700 C714 0.930 . S
H701 C716 0.960 . S
H702 C716 0.960 . S
H703 C716 0.960 . S
C704 H696 0.929 . S
C704 C705 1.377 . S
C704 C706 1.384 . S
C705 C704 1.377 . S
C705 C711 1.390 . S
C706 H697 0.930 . S
C706 C704 1.384 . S
C706 C707 1.372 . S
C707 C706 1.372 . S
C707 C708 1.400 . S
C707 C712 1.490 . S
C708 H698 0.930 . S
C708 C707 1.400 . S
C708 C711 1.386 . S
H709 C725 0.930 . S
H710 C726 0.931 . S
C711 H699 0.929 . S
C711 C705 1.390 . S
C711 C708 1.386 . S
C712 C707 1.490 . S
C712 C714 1.395 . S
C712 C715 1.403 . S
H713 C719 0.930 . S
C714 H700 0.930 . S
C714 C712 1.395 . S
C714 C717 1.403 . S
C715 C712 1.403 . S
C715 C716 1.524 . S
C715 C719 1.400 . S
C716 H701 0.960 . S
C716 H702 0.960 . S
C716 H703 0.960 . S
C716 C715 1.524 . S
C717 C714 1.403 . S
C717 C718 1.392 . S
C717 C721 1.495 . S
C718 C717 1.392 . S
C718 C719 1.385 . S
C718 C720 1.478 . S
C719 H713 0.930 . S
C719 C715 1.400 . S
C719 C718 1.385 . S
C720 C718 1.478 . S
C720 C722 1.381 . S
C720 C726 1.383 . S
C721 C717 1.495 . S
C721 H727 0.959 . S
C721 H728 0.961 . S
C721 H729 0.960 . S
C722 C720 1.381 . S
C722 C723 1.394 . S
C722 H730 0.930 . S
C723 C722 1.394 . S
C723 C724 1.383 . S
C723 H731 0.929 . S
C724 C723 1.383 . S
C724 C725 1.377 . S
C725 H709 0.930 . S
C725 C724 1.377 . S
C725 C726 1.379 . S
C726 H710 0.931 . S
C726 C720 1.383 . S
C726 C725 1.379 . S
H727 C721 0.959 . S
H728 C721 0.961 . S
H729 C721 0.960 . S
H730 C722 0.930 . S
H731 C723 0.929 . S
H732 C740 0.929 . S
H733 C742 0.930 . S
H734 C744 0.930 . S
H735 C747 0.929 . S
H736 C750 0.930 . S
H737 C752 0.960 . S
H738 C752 0.960 . S
H739 C752 0.960 . S
C740 H732 0.929 . S
C740 C741 1.377 . S
C740 C742 1.384 . S
C741 C740 1.377 . S
C741 C747 1.390 . S
C742 H733 0.930 . S
C742 C740 1.384 . S
C742 C743 1.372 . S
C743 C742 1.372 . S
C743 C744 1.400 . S
C743 C748 1.490 . S
C744 H734 0.930 . S
C744 C743 1.400 . S
C744 C747 1.386 . S
H745 C761 0.930 . S
H746 C762 0.931 . S
C747 H735 0.929 . S
C747 C741 1.390 . S
C747 C744 1.386 . S
C748 C743 1.490 . S
C748 C750 1.395 . S
C748 C751 1.403 . S
H749 C755 0.930 . S
C750 H736 0.930 . S
C750 C748 1.395 . S
C750 C753 1.403 . S
C751 C748 1.403 . S
C751 C752 1.524 . S
C751 C755 1.400 . S
C752 H737 0.960 . S
C752 H738 0.960 . S
C752 H739 0.960 . S
C752 C751 1.524 . S
C753 C750 1.403 . S
C753 C754 1.392 . S
C753 C757 1.495 . S
C754 C753 1.392 . S
C754 C755 1.385 . S
C754 C756 1.478 . S
C755 H749 0.930 . S
C755 C751 1.400 . S
C755 C754 1.385 . S
C756 C754 1.478 . S
C756 C758 1.381 . S
C756 C762 1.383 . S
C757 C753 1.495 . S
C757 H763 0.959 . S
C757 H764 0.961 . S
C757 H765 0.960 . S
C758 C756 1.381 . S
C758 C759 1.394 . S
C758 H766 0.930 . S
C759 C758 1.394 . S
C759 C760 1.383 . S
C759 H767 0.929 . S
C760 C759 1.383 . S
C760 C761 1.377 . S
C761 H745 0.930 . S
C761 C760 1.377 . S
C761 C762 1.379 . S
C762 H746 0.931 . S
C762 C756 1.383 . S
C762 C761 1.379 . S
H763 C757 0.959 . S
H764 C757 0.961 . S
H765 C757 0.960 . S
H766 C758 0.930 . S
H767 C759 0.929 . S
H768 C776 0.929 . S
H769 C778 0.930 . S
H770 C780 0.930 . S
H771 C783 0.929 . S
H772 C786 0.930 . S
H773 C788 0.960 . S
H774 C788 0.960 . S
H775 C788 0.960 . S
C776 H768 0.929 . S
C776 C777 1.377 . S
C776 C778 1.384 . S
C777 C776 1.377 . S
C777 C783 1.390 . S
C778 H769 0.930 . S
C778 C776 1.384 . S
C778 C779 1.372 . S
C779 C778 1.372 . S
C779 C780 1.400 . S
C779 C784 1.490 . S
C780 H770 0.930 . S
C780 C779 1.400 . S
C780 C783 1.386 . S
H781 C797 0.930 . S
H782 C798 0.931 . S
C783 H771 0.929 . S
C783 C777 1.390 . S
C783 C780 1.386 . S
C784 C779 1.490 . S
C784 C786 1.395 . S
C784 C787 1.403 . S
H785 C791 0.930 . S
C786 H772 0.930 . S
C786 C784 1.395 . S
C786 C789 1.403 . S
C787 C784 1.403 . S
C787 C788 1.524 . S
C787 C791 1.400 . S
C788 H773 0.960 . S
C788 H774 0.960 . S
C788 H775 0.960 . S
C788 C787 1.524 . S
C789 C786 1.403 . S
C789 C790 1.392 . S
C789 C793 1.495 . S
C790 C789 1.392 . S
C790 C791 1.385 . S
C790 C792 1.478 . S
C791 H785 0.930 . S
C791 C787 1.400 . S
C791 C790 1.385 . S
C792 C790 1.478 . S
C792 C794 1.381 . S
C792 C798 1.383 . S
C793 C789 1.495 . S
C793 H799 0.959 . S
C793 H800 0.961 . S
C793 H801 0.960 . S
C794 C792 1.381 . S
C794 C795 1.394 . S
C794 H802 0.930 . S
C795 C794 1.394 . S
C795 C796 1.383 . S
C795 H803 0.929 . S
C796 C795 1.383 . S
C796 C797 1.377 . S
C797 H781 0.930 . S
C797 C796 1.377 . S
C797 C798 1.379 . S
C798 H782 0.931 . S
C798 C792 1.383 . S
C798 C797 1.379 . S
H799 C793 0.959 . S
H800 C793 0.961 . S
H801 C793 0.960 . S
H802 C794 0.930 . S
H803 C795 0.929 . S
H804 C812 0.929 . S
H805 C814 0.930 . S
H806 C816 0.930 . S
H807 C819 0.929 . S
H808 C822 0.930 . S
H809 C824 0.960 . S
H810 C824 0.960 . S
H811 C824 0.960 . S
C812 H804 0.929 . S
C812 C813 1.377 . S
C812 C814 1.384 . S
C813 C812 1.377 . S
C813 C819 1.390 . S
C814 H805 0.930 . S
C814 C812 1.384 . S
C814 C815 1.372 . S
C815 C814 1.372 . S
C815 C816 1.400 . S
C815 C820 1.490 . S
C816 H806 0.930 . S
C816 C815 1.400 . S
C816 C819 1.386 . S
H817 C833 0.930 . S
H818 C834 0.931 . S
C819 H807 0.929 . S
C819 C813 1.390 . S
C819 C816 1.386 . S
C820 C815 1.490 . S
C820 C822 1.395 . S
C820 C823 1.403 . S
H821 C827 0.930 . S
C822 H808 0.930 . S
C822 C820 1.395 . S
C822 C825 1.403 . S
C823 C820 1.403 . S
C823 C824 1.524 . S
C823 C827 1.400 . S
C824 H809 0.960 . S
C824 H810 0.960 . S
C824 H811 0.960 . S
C824 C823 1.524 . S
C825 C822 1.403 . S
C825 C826 1.392 . S
C825 C829 1.495 . S
C826 C825 1.392 . S
C826 C827 1.385 . S
C826 C828 1.478 . S
C827 H821 0.930 . S
C827 C823 1.400 . S
C827 C826 1.385 . S
C828 C826 1.478 . S
C828 C830 1.381 . S
C828 C834 1.383 . S
C829 C825 1.495 . S
C829 H835 0.959 . S
C829 H836 0.961 . S
C829 H837 0.960 . S
C830 C828 1.381 . S
C830 C831 1.394 . S
C830 H838 0.930 . S
C831 C830 1.394 . S
C831 C832 1.383 . S
C831 H839 0.929 . S
C832 C831 1.383 . S
C832 C833 1.377 . S
C833 H817 0.930 . S
C833 C832 1.377 . S
C833 C834 1.379 . S
C834 H818 0.931 . S
C834 C828 1.383 . S
C834 C833 1.379 . S
H835 C829 0.959 . S
H836 C829 0.961 . S
H837 C829 0.960 . S
H838 C830 0.930 . S
H839 C831 0.929 . S
H840 C848 0.929 . S
H841 C850 0.930 . S
H842 C852 0.930 . S
H843 C855 0.929 . S
H844 C858 0.930 . S
H845 C860 0.960 . S
H846 C860 0.960 . S
H847 C860 0.960 . S
C848 H840 0.929 . S
C848 C849 1.377 . S
C848 C850 1.384 . S
C849 C848 1.377 . S
C849 C855 1.390 . S
C850 H841 0.930 . S
C850 C848 1.384 . S
C850 C851 1.372 . S
C851 C850 1.372 . S
C851 C852 1.400 . S
C851 C856 1.490 . S
C852 H842 0.930 . S
C852 C851 1.400 . S
C852 C855 1.386 . S
H853 C869 0.930 . S
H854 C870 0.931 . S
C855 H843 0.929 . S
C855 C849 1.390 . S
C855 C852 1.386 . S
C856 C851 1.490 . S
C856 C858 1.395 . S
C856 C859 1.403 . S
H857 C863 0.930 . S
C858 H844 0.930 . S
C858 C856 1.395 . S
C858 C861 1.403 . S
C859 C856 1.403 . S
C859 C860 1.524 . S
C859 C863 1.400 . S
C860 H845 0.960 . S
C860 H846 0.960 . S
C860 H847 0.960 . S
C860 C859 1.524 . S
C861 C858 1.403 . S
C861 C862 1.392 . S
C861 C865 1.495 . S
C862 C861 1.392 . S
C862 C863 1.385 . S
C862 C864 1.478 . S
C863 H857 0.930 . S
C863 C859 1.400 . S
C863 C862 1.385 . S
C864 C862 1.478 . S
C864 C866 1.381 . S
C864 C870 1.383 . S
C865 C861 1.495 . S
C865 H871 0.959 . S
C865 H872 0.961 . S
C865 H873 0.960 . S
C866 C864 1.381 . S
C866 C867 1.394 . S
C866 H874 0.930 . S
C867 C866 1.394 . S
C867 C868 1.383 . S
C867 H875 0.929 . S
C868 C867 1.383 . S
C868 C869 1.377 . S
C869 H853 0.930 . S
C869 C868 1.377 . S
C869 C870 1.379 . S
C870 H854 0.931 . S
C870 C864 1.383 . S
C870 C869 1.379 . S
H871 C865 0.959 . S
H872 C865 0.961 . S
H873 C865 0.960 . S
H874 C866 0.930 . S
H875 C867 0.929 . S
H876 C884 0.929 . S
H877 C886 0.930 . S
H878 C888 0.930 . S
H879 C891 0.929 . S
H880 C894 0.930 . S
H881 C896 0.960 . S
H882 C896 0.960 . S
H883 C896 0.960 . S
C884 H876 0.929 . S
C884 C885 1.377 . S
C884 C886 1.384 . S
C885 C884 1.377 . S
C885 C891 1.390 . S
C886 H877 0.930 . S
C886 C884 1.384 . S
C886 C887 1.372 . S
C887 C886 1.372 . S
C887 C888 1.400 . S
C887 C892 1.490 . S
C888 H878 0.930 . S
C888 C887 1.400 . S
C888 C891 1.386 . S
H889 C905 0.930 . S
H890 C906 0.931 . S
C891 H879 0.929 . S
C891 C885 1.390 . S
C891 C888 1.386 . S
C892 C887 1.490 . S
C892 C894 1.395 . S
C892 C895 1.403 . S
H893 C899 0.930 . S
C894 H880 0.930 . S
C894 C892 1.395 . S
C894 C897 1.403 . S
C895 C892 1.403 . S
C895 C896 1.524 . S
C895 C899 1.400 . S
C896 H881 0.960 . S
C896 H882 0.960 . S
C896 H883 0.960 . S
C896 C895 1.524 . S
C897 C894 1.403 . S
C897 C898 1.392 . S
C897 C901 1.495 . S
C898 C897 1.392 . S
C898 C899 1.385 . S
C898 C900 1.478 . S
C899 H893 0.930 . S
C899 C895 1.400 . S
C899 C898 1.385 . S
C900 C898 1.478 . S
C900 C902 1.381 . S
C900 C906 1.383 . S
C901 C897 1.495 . S
C901 H907 0.959 . S
C901 H908 0.961 . S
C901 H909 0.960 . S
C902 C900 1.381 . S
C902 C903 1.394 . S
C902 H910 0.930 . S
C903 C902 1.394 . S
C903 C904 1.383 . S
C903 H911 0.929 . S
C904 C903 1.383 . S
C904 C905 1.377 . S
C905 H889 0.930 . S
C905 C904 1.377 . S
C905 C906 1.379 . S
C906 H890 0.931 . S
C906 C900 1.383 . S
C906 C905 1.379 . S
H907 C901 0.959 . S
H908 C901 0.961 . S
H909 C901 0.960 . S
H910 C902 0.930 . S
H911 C903 0.929 . S
H912 C920 0.929 . S
H913 C922 0.930 . S
H914 C924 0.930 . S
H915 C927 0.929 . S
H916 C930 0.930 . S
H917 C932 0.960 . S
H918 C932 0.960 . S
H919 C932 0.960 . S
C920 H912 0.929 . S
C920 C921 1.377 . S
C920 C922 1.384 . S
C921 C920 1.377 . S
C921 C927 1.390 . S
C922 H913 0.930 . S
C922 C920 1.384 . S
C922 C923 1.372 . S
C923 C922 1.372 . S
C923 C924 1.400 . S
C923 C928 1.490 . S
C924 H914 0.930 . S
C924 C923 1.400 . S
C924 C927 1.386 . S
H925 C941 0.930 . S
H926 C942 0.931 . S
C927 H915 0.929 . S
C927 C921 1.390 . S
C927 C924 1.386 . S
C928 C923 1.490 . S
C928 C930 1.395 . S
C928 C931 1.403 . S
H929 C935 0.930 . S
C930 H916 0.930 . S
C930 C928 1.395 . S
C930 C933 1.403 . S
C931 C928 1.403 . S
C931 C932 1.524 . S
C931 C935 1.400 . S
C932 H917 0.960 . S
C932 H918 0.960 . S
C932 H919 0.960 . S
C932 C931 1.524 . S
C933 C930 1.403 . S
C933 C934 1.392 . S
C933 C937 1.495 . S
C934 C933 1.392 . S
C934 C935 1.385 . S
C934 C936 1.478 . S
C935 H929 0.930 . S
C935 C931 1.400 . S
C935 C934 1.385 . S
C936 C934 1.478 . S
C936 C938 1.381 . S
C936 C942 1.383 . S
C937 C933 1.495 . S
C937 H943 0.959 . S
C937 H944 0.961 . S
C937 H945 0.960 . S
C938 C936 1.381 . S
C938 C939 1.394 . S
C938 H946 0.930 . S
C939 C938 1.394 . S
C939 C940 1.383 . S
C939 H947 0.929 . S
C940 C939 1.383 . S
C940 C941 1.377 . S
C941 H925 0.930 . S
C941 C940 1.377 . S
C941 C942 1.379 . S
C942 H926 0.931 . S
C942 C936 1.383 . S
C942 C941 1.379 . S
H943 C937 0.959 . S
H944 C937 0.961 . S
H945 C937 0.960 . S
H946 C938 0.930 . S
H947 C939 0.929 . S
H948 C956 0.929 . S
H949 C958 0.930 . S
H950 C960 0.930 . S
H951 C963 0.929 . S
H952 C966 0.930 . S
H953 C968 0.960 . S
H954 C968 0.960 . S
H955 C968 0.960 . S
C956 H948 0.929 . S
C956 C957 1.377 . S
C956 C958 1.384 . S
C957 C956 1.377 . S
C957 C963 1.390 . S
C958 H949 0.930 . S
C958 C956 1.384 . S
C958 C959 1.372 . S
C959 C958 1.372 . S
C959 C960 1.400 . S
C959 C964 1.490 . S
C960 H950 0.930 . S
C960 C959 1.400 . S
C960 C963 1.386 . S
H961 C977 0.930 . S
H962 C978 0.931 . S
C963 H951 0.929 . S
C963 C957 1.390 . S
C963 C960 1.386 . S
C964 C959 1.490 . S
C964 C966 1.395 . S
C964 C967 1.403 . S
H965 C971 0.930 . S
C966 H952 0.930 . S
C966 C964 1.395 . S
C966 C969 1.403 . S
C967 C964 1.403 . S
C967 C968 1.524 . S
C967 C971 1.400 . S
C968 H953 0.960 . S
C968 H954 0.960 . S
C968 H955 0.960 . S
C968 C967 1.524 . S
C969 C966 1.403 . S
C969 C970 1.392 . S
C969 C973 1.495 . S
C970 C969 1.392 . S
C970 C971 1.385 . S
C970 C972 1.478 . S
C971 H965 0.930 . S
C971 C967 1.400 . S
C971 C970 1.385 . S
C972 C970 1.478 . S
C972 C974 1.381 . S
C972 C978 1.383 . S
C973 C969 1.495 . S
C973 H979 0.959 . S
C973 H980 0.961 . S
C973 H981 0.960 . S
C974 C972 1.381 . S
C974 C975 1.394 . S
C974 H982 0.930 . S
C975 C974 1.394 . S
C975 C976 1.383 . S
C975 H983 0.929 . S
C976 C975 1.383 . S
C976 C977 1.377 . S
C977 H961 0.930 . S
C977 C976 1.377 . S
C977 C978 1.379 . S
C978 H962 0.931 . S
C978 C972 1.383 . S
C978 C977 1.379 . S
H979 C973 0.959 . S
H980 C973 0.961 . S
H981 C973 0.960 . S
H982 C974 0.930 . S
H983 C975 0.929 . S
H984 C992 0.929 . S
H985 C994 0.930 . S
H986 C996 0.930 . S
H987 C999 0.929 . S
H988 C1002 0.930 . S
H989 C1004 0.960 . S
H990 C1004 0.960 . S
H991 C1004 0.960 . S
C992 H984 0.929 . S
C992 C993 1.377 . S
C992 C994 1.384 . S
C993 C992 1.377 . S
C993 C999 1.390 . S
C994 H985 0.930 . S
C994 C992 1.384 . S
C994 C995 1.372 . S
C995 C994 1.372 . S
C995 C996 1.400 . S
C995 C1000 1.490 . S
C996 H986 0.930 . S
C996 C995 1.400 . S
C996 C999 1.386 . S
H997 C1013 0.930 . S
H998 C1014 0.931 . S
C999 H987 0.929 . S
C999 C993 1.390 . S
C999 C996 1.386 . S
C1000 C995 1.490 . S
C1000 C1002 1.395 . S
C1000 C1003 1.403 . S
H1001 C1007 0.930 . S
C1002 H988 0.930 . S
C1002 C1000 1.395 . S
C1002 C1005 1.403 . S
C1003 C1000 1.403 . S
C1003 C1004 1.524 . S
C1003 C1007 1.400 . S
C1004 H989 0.960 . S
C1004 H990 0.960 . S
C1004 H991 0.960 . S
C1004 C1003 1.524 . S
C1005 C1002 1.403 . S
C1005 C1006 1.392 . S
C1005 C1009 1.495 . S
C1006 C1005 1.392 . S
C1006 C1007 1.385 . S
C1006 C1008 1.478 . S
C1007 H1001 0.930 . S
C1007 C1003 1.400 . S
C1007 C1006 1.385 . S
C1008 C1006 1.478 . S
C1008 C1010 1.381 . S
C1008 C1014 1.383 . S
C1009 C1005 1.495 . S
C1009 H1015 0.959 . S
C1009 H1016 0.961 . S
C1009 H1017 0.960 . S
C1010 C1008 1.381 . S
C1010 C1011 1.394 . S
C1010 H1018 0.930 . S
C1011 C1010 1.394 . S
C1011 C1012 1.383 . S
C1011 H1019 0.929 . S
C1012 C1011 1.383 . S
C1012 C1013 1.377 . S
C1013 H997 0.930 . S
C1013 C1012 1.377 . S
C1013 C1014 1.379 . S
C1014 H998 0.931 . S
C1014 C1008 1.383 . S
C1014 C1013 1.379 . S
H1015 C1009 0.959 . S
H1016 C1009 0.961 . S
H1017 C1009 0.960 . S
H1018 C1010 0.930 . S
H1019 C1011 0.929 . S
H1020 C1028 0.929 . S
H1021 C1030 0.930 . S
H1022 C1032 0.930 . S
H1023 C1035 0.929 . S
H1024 C1038 0.930 . S
H1025 C1040 0.960 . S
H1026 C1040 0.960 . S
H1027 C1040 0.960 . S
C1028 H1020 0.929 . S
C1028 C1029 1.377 . S
C1028 C1030 1.384 . S
C1029 C1028 1.377 . S
C1029 C1035 1.390 . S
C1030 H1021 0.930 . S
C1030 C1028 1.384 . S
C1030 C1031 1.372 . S
C1031 C1030 1.372 . S
C1031 C1032 1.400 . S
C1031 C1036 1.490 . S
C1032 H1022 0.930 . S
C1032 C1031 1.400 . S
C1032 C1035 1.386 . S
H1033 C1049 0.930 . S
H1034 C1050 0.931 . S
C1035 H1023 0.929 . S
C1035 C1029 1.390 . S
C1035 C1032 1.386 . S
C1036 C1031 1.490 . S
C1036 C1038 1.395 . S
C1036 C1039 1.403 . S
H1037 C1043 0.930 . S
C1038 H1024 0.930 . S
C1038 C1036 1.395 . S
C1038 C1041 1.403 . S
C1039 C1036 1.403 . S
C1039 C1040 1.524 . S
C1039 C1043 1.400 . S
C1040 H1025 0.960 . S
C1040 H1026 0.960 . S
C1040 H1027 0.960 . S
C1040 C1039 1.524 . S
C1041 C1038 1.403 . S
C1041 C1042 1.392 . S
C1041 C1045 1.495 . S
C1042 C1041 1.392 . S
C1042 C1043 1.385 . S
C1042 C1044 1.478 . S
C1043 H1037 0.930 . S
C1043 C1039 1.400 . S
C1043 C1042 1.385 . S
C1044 C1042 1.478 . S
C1044 C1046 1.381 . S
C1044 C1050 1.383 . S
C1045 C1041 1.495 . S
C1045 H1051 0.959 . S
C1045 H1052 0.961 . S
C1045 H1053 0.960 . S
C1046 C1044 1.381 . S
C1046 C1047 1.394 . S
C1046 H1054 0.930 . S
C1047 C1046 1.394 . S
C1047 C1048 1.383 . S
C1047 H1055 0.929 . S
C1048 C1047 1.383 . S
C1048 C1049 1.377 . S
C1049 H1033 0.930 . S
C1049 C1048 1.377 . S
C1049 C1050 1.379 . S
C1050 H1034 0.931 . S
C1050 C1044 1.383 . S
C1050 C1049 1.379 . S
H1051 C1045 0.959 . S
H1052 C1045 0.961 . S
H1053 C1045 0.960 . S
H1054 C1046 0.930 . S
H1055 C1047 0.929 . S
H1056 C1064 0.929 . S
H1057 C1066 0.930 . S
H1058 C1068 0.930 . S
H1059 C1071 0.929 . S
H1060 C1074 0.930 . S
H1061 C1076 0.960 . S
H1062 C1076 0.960 . S
H1063 C1076 0.960 . S
C1064 H1056 0.929 . S
C1064 C1065 1.377 . S
C1064 C1066 1.384 . S
C1065 C1064 1.377 . S
C1065 C1071 1.390 . S
C1066 H1057 0.930 . S
C1066 C1064 1.384 . S
C1066 C1067 1.372 . S
C1067 C1066 1.372 . S
C1067 C1068 1.400 . S
C1067 C1072 1.490 . S
C1068 H1058 0.930 . S
C1068 C1067 1.400 . S
C1068 C1071 1.386 . S
H1069 C1085 0.930 . S
H1070 C1086 0.931 . S
C1071 H1059 0.929 . S
C1071 C1065 1.390 . S
C1071 C1068 1.386 . S
C1072 C1067 1.490 . S
C1072 C1074 1.395 . S
C1072 C1075 1.403 . S
H1073 C1079 0.930 . S
C1074 H1060 0.930 . S
C1074 C1072 1.395 . S
C1074 C1077 1.403 . S
C1075 C1072 1.403 . S
C1075 C1076 1.524 . S
C1075 C1079 1.400 . S
C1076 H1061 0.960 . S
C1076 H1062 0.960 . S
C1076 H1063 0.960 . S
C1076 C1075 1.524 . S
C1077 C1074 1.403 . S
C1077 C1078 1.392 . S
C1077 C1081 1.495 . S
C1078 C1077 1.392 . S
C1078 C1079 1.385 . S
C1078 C1080 1.478 . S
C1079 H1073 0.930 . S
C1079 C1075 1.400 . S
C1079 C1078 1.385 . S
C1080 C1078 1.478 . S
C1080 C1082 1.381 . S
C1080 C1086 1.383 . S
C1081 C1077 1.495 . S
C1081 H1087 0.959 . S
C1081 H1088 0.961 . S
C1081 H1089 0.960 . S
C1082 C1080 1.381 . S
C1082 C1083 1.394 . S
C1082 H1090 0.930 . S
C1083 C1082 1.394 . S
C1083 C1084 1.383 . S
C1083 H1091 0.929 . S
C1084 C1083 1.383 . S
C1084 C1085 1.377 . S
C1085 H1069 0.930 . S
C1085 C1084 1.377 . S
C1085 C1086 1.379 . S
C1086 H1070 0.931 . S
C1086 C1080 1.383 . S
C1086 C1085 1.379 . S
H1087 C1081 0.959 . S
H1088 C1081 0.961 . S
H1089 C1081 0.960 . S
H1090 C1082 0.930 . S
H1091 C1083 0.929 . S
H1092 C1100 0.929 . S
H1093 C1102 0.930 . S
H1094 C1104 0.930 . S
H1095 C1107 0.929 . S
H1096 C1110 0.930 . S
H1097 C1112 0.960 . S
H1098 C1112 0.960 . S
H1099 C1112 0.960 . S
C1100 H1092 0.929 . S
C1100 C1101 1.377 . S
C1100 C1102 1.384 . S
C1101 C1100 1.377 . S
C1101 C1107 1.390 . S
C1102 H1093 0.930 . S
C1102 C1100 1.384 . S
C1102 C1103 1.372 . S
C1103 C1102 1.372 . S
C1103 C1104 1.400 . S
C1103 C1108 1.490 . S
C1104 H1094 0.930 . S
C1104 C1103 1.400 . S
C1104 C1107 1.386 . S
H1105 C1121 0.930 . S
H1106 C1122 0.931 . S
C1107 H1095 0.929 . S
C1107 C1101 1.390 . S
C1107 C1104 1.386 . S
C1108 C1103 1.490 . S
C1108 C1110 1.395 . S
C1108 C1111 1.403 . S
H1109 C1115 0.930 . S
C1110 H1096 0.930 . S
C1110 C1108 1.395 . S
C1110 C1113 1.403 . S
C1111 C1108 1.403 . S
C1111 C1112 1.524 . S
C1111 C1115 1.400 . S
C1112 H1097 0.960 . S
C1112 H1098 0.960 . S
C1112 H1099 0.960 . S
C1112 C1111 1.524 . S
C1113 C1110 1.403 . S
C1113 C1114 1.392 . S
C1113 C1117 1.495 . S
C1114 C1113 1.392 . S
C1114 C1115 1.385 . S
C1114 C1116 1.478 . S
C1115 H1109 0.930 . S
C1115 C1111 1.400 . S
C1115 C1114 1.385 . S
C1116 C1114 1.478 . S
C1116 C1118 1.381 . S
C1116 C1122 1.383 . S
C1117 C1113 1.495 . S
C1117 H1123 0.959 . S
C1117 H1124 0.961 . S
C1117 H1125 0.960 . S
C1118 C1116 1.381 . S
C1118 C1119 1.394 . S
C1118 H1126 0.930 . S
C1119 C1118 1.394 . S
C1119 C1120 1.383 . S
C1119 H1127 0.929 . S
C1120 C1119 1.383 . S
C1120 C1121 1.377 . S
C1121 H1105 0.930 . S
C1121 C1120 1.377 . S
C1121 C1122 1.379 . S
C1122 H1106 0.931 . S
C1122 C1116 1.383 . S
C1122 C1121 1.379 . S
H1123 C1117 0.959 . S
H1124 C1117 0.961 . S
H1125 C1117 0.960 . S
H1126 C1118 0.930 . S
H1127 C1119 0.929 . S
H1128 C1136 0.929 . S
H1129 C1138 0.930 . S
H1130 C1140 0.930 . S
H1131 C1143 0.929 . S
H1132 C1146 0.930 . S
H1133 C1148 0.960 . S
H1134 C1148 0.960 . S
H1135 C1148 0.960 . S
C1136 H1128 0.929 . S
C1136 C1137 1.377 . S
C1136 C1138 1.384 . S
C1137 C1136 1.377 . S
C1137 C1143 1.390 . S
C1138 H1129 0.930 . S
C1138 C1136 1.384 . S
C1138 C1139 1.372 . S
C1139 C1138 1.372 . S
C1139 C1140 1.400 . S
C1139 C1144 1.490 . S
C1140 H1130 0.930 . S
C1140 C1139 1.400 . S
C1140 C1143 1.386 . S
H1141 C1157 0.930 . S
H1142 C1158 0.931 . S
C1143 H1131 0.929 . S
C1143 C1137 1.390 . S
C1143 C1140 1.386 . S
C1144 C1139 1.490 . S
C1144 C1146 1.395 . S
C1144 C1147 1.403 . S
H1145 C1151 0.930 . S
C1146 H1132 0.930 . S
C1146 C1144 1.395 . S
C1146 C1149 1.403 1_565 S
C1147 C1144 1.403 . S
C1147 C1148 1.524 . S
C1147 C1151 1.400 1_565 S
C1148 H1133 0.960 . S
C1148 H1134 0.960 . S
C1148 H1135 0.960 . S
C1148 C1147 1.524 . S
C1149 C1146 1.403 1_545 S
C1149 C1150 1.392 . S
C1149 C1153 1.495 . S
C1150 C1149 1.392 . S
C1150 C1151 1.385 . S
C1150 C1152 1.478 . S
C1151 H1145 0.930 . S
C1151 C1147 1.400 1_545 S
C1151 C1150 1.385 . S
C1152 C1150 1.478 . S
C1152 C1154 1.381 . S
C1152 C1158 1.383 . S
C1153 C1149 1.495 . S
C1153 H1159 0.959 . S
C1153 H1160 0.961 . S
C1153 H1161 0.960 . S
C1154 C1152 1.381 . S
C1154 C1155 1.394 . S
C1154 H1162 0.930 . S
C1155 C1154 1.394 . S
C1155 C1156 1.383 . S
C1155 H1163 0.929 . S
C1156 C1155 1.383 . S
C1156 C1157 1.377 . S
C1157 H1141 0.930 . S
C1157 C1156 1.377 . S
C1157 C1158 1.379 . S
C1158 H1142 0.931 . S
C1158 C1152 1.383 . S
C1158 C1157 1.379 . S
H1159 C1153 0.959 . S
H1160 C1153 0.961 . S
H1161 C1153 0.960 . S
H1162 C1154 0.930 . S
H1163 C1155 0.929 . S
H1164 C1172 0.929 . S
H1165 C1174 0.930 . S
H1166 C1176 0.930 . S
H1167 C1179 0.929 . S
H1168 C1182 0.930 . S
H1169 C1184 0.960 . S
H1170 C1184 0.960 . S
H1171 C1184 0.960 . S
C1172 H1164 0.929 . S
C1172 C1173 1.377 . S
C1172 C1174 1.384 . S
C1173 C1172 1.377 . S
C1173 C1179 1.390 . S
C1174 H1165 0.930 . S
C1174 C1172 1.384 . S
C1174 C1175 1.372 . S
C1175 C1174 1.372 . S
C1175 C1176 1.400 . S
C1175 C1180 1.490 . S
C1176 H1166 0.930 . S
C1176 C1175 1.400 . S
C1176 C1179 1.386 . S
H1177 C1193 0.930 . S
H1178 C1194 0.931 . S
C1179 H1167 0.929 . S
C1179 C1173 1.390 . S
C1179 C1176 1.386 . S
C1180 C1175 1.490 . S
C1180 C1182 1.395 . S
C1180 C1183 1.403 . S
H1181 C1187 0.930 . S
C1182 H1168 0.930 . S
C1182 C1180 1.395 . S
C1182 C1185 1.403 1_455 S
C1183 C1180 1.403 . S
C1183 C1184 1.524 . S
C1183 C1187 1.400 1_455 S
C1184 H1169 0.960 . S
C1184 H1170 0.960 . S
C1184 H1171 0.960 . S
C1184 C1183 1.524 . S
C1185 C1182 1.403 1_655 S
C1185 C1186 1.392 . S
C1185 C1189 1.495 . S
C1186 C1185 1.392 . S
C1186 C1187 1.385 . S
C1186 C1188 1.478 . S
C1187 H1181 0.930 . S
C1187 C1183 1.400 1_655 S
C1187 C1186 1.385 . S
C1188 C1186 1.478 . S
C1188 C1190 1.381 . S
C1188 C1194 1.383 . S
C1189 C1185 1.495 . S
C1189 H1195 0.959 . S
C1189 H1196 0.961 . S
C1189 H1197 0.960 . S
C1190 C1188 1.381 . S
C1190 C1191 1.394 . S
C1190 H1198 0.930 . S
C1191 C1190 1.394 . S
C1191 C1192 1.383 . S
C1191 H1199 0.929 . S
C1192 C1191 1.383 . S
C1192 C1193 1.377 . S
C1193 H1177 0.930 . S
C1193 C1192 1.377 . S
C1193 C1194 1.379 . S
C1194 H1178 0.931 . S
C1194 C1188 1.383 . S
C1194 C1193 1.379 . S
H1195 C1189 0.959 . S
H1196 C1189 0.961 . S
H1197 C1189 0.960 . S
H1198 C1190 0.930 . S
H1199 C1191 0.929 . S
H1200 C1208 0.929 . S
H1201 C1210 0.930 . S
H1202 C1212 0.930 . S
H1203 C1215 0.929 . S
H1204 C1218 0.930 . S
H1205 C1220 0.960 . S
H1206 C1220 0.960 . S
H1207 C1220 0.960 . S
C1208 H1200 0.929 . S
C1208 C1209 1.377 . S
C1208 C1210 1.384 . S
C1209 C1208 1.377 . S
C1209 C1215 1.390 . S
C1210 H1201 0.930 . S
C1210 C1208 1.384 . S
C1210 C1211 1.372 . S
C1211 C1210 1.372 . S
C1211 C1212 1.400 . S
C1211 C1216 1.490 . S
C1212 H1202 0.930 . S
C1212 C1211 1.400 . S
C1212 C1215 1.386 . S
H1213 C1229 0.930 . S
H1214 C1230 0.931 . S
C1215 H1203 0.929 . S
C1215 C1209 1.390 . S
C1215 C1212 1.386 . S
C1216 C1211 1.490 . S
C1216 C1218 1.395 . S
C1216 C1219 1.403 . S
H1217 C1223 0.930 . S
C1218 H1204 0.930 . S
C1218 C1216 1.395 . S
C1218 C1221 1.403 1_545 S
C1219 C1216 1.403 . S
C1219 C1220 1.524 . S
C1219 C1223 1.400 1_545 S
C1220 H1205 0.960 . S
C1220 H1206 0.960 . S
C1220 H1207 0.960 . S
C1220 C1219 1.524 . S
C1221 C1218 1.403 1_565 S
C1221 C1222 1.392 . S
C1221 C1225 1.495 . S
C1222 C1221 1.392 . S
C1222 C1223 1.385 . S
C1222 C1224 1.478 . S
C1223 H1217 0.930 . S
C1223 C1219 1.400 1_565 S
C1223 C1222 1.385 . S
C1224 C1222 1.478 . S
C1224 C1226 1.381 . S
C1224 C1230 1.383 . S
C1225 C1221 1.495 . S
C1225 H1231 0.959 . S
C1225 H1232 0.961 . S
C1225 H1233 0.960 . S
C1226 C1224 1.381 . S
C1226 C1227 1.394 . S
C1226 H1234 0.930 . S
C1227 C1226 1.394 . S
C1227 C1228 1.383 . S
C1227 H1235 0.929 . S
C1228 C1227 1.383 . S
C1228 C1229 1.377 . S
C1229 H1213 0.930 . S
C1229 C1228 1.377 . S
C1229 C1230 1.379 . S
C1230 H1214 0.931 . S
C1230 C1224 1.383 . S
C1230 C1229 1.379 . S
H1231 C1225 0.959 . S
H1232 C1225 0.961 . S
H1233 C1225 0.960 . S
H1234 C1226 0.930 . S
H1235 C1227 0.929 . S
H1236 C1244 0.929 . S
H1237 C1246 0.930 . S
H1238 C1248 0.930 . S
H1239 C1251 0.929 . S
H1240 C1254 0.930 . S
H1241 C1256 0.960 . S
H1242 C1256 0.960 . S
H1243 C1256 0.960 . S
C1244 H1236 0.929 . S
C1244 C1245 1.377 . S
C1244 C1246 1.384 . S
C1245 C1244 1.377 . S
C1245 C1251 1.390 . S
C1246 H1237 0.930 . S
C1246 C1244 1.384 . S
C1246 C1247 1.372 . S
C1247 C1246 1.372 . S
C1247 C1248 1.400 . S
C1247 C1252 1.490 . S
C1248 H1238 0.930 . S
C1248 C1247 1.400 . S
C1248 C1251 1.386 . S
H1249 C1265 0.930 . S
H1250 C1266 0.931 . S
C1251 H1239 0.929 . S
C1251 C1245 1.390 . S
C1251 C1248 1.386 . S
C1252 C1247 1.490 . S
C1252 C1254 1.395 . S
C1252 C1255 1.403 . S
H1253 C1259 0.930 . S
C1254 H1240 0.930 . S
C1254 C1252 1.395 . S
C1254 C1257 1.403 1_455 S
C1255 C1252 1.403 . S
C1255 C1256 1.524 . S
C1255 C1259 1.400 1_455 S
C1256 H1241 0.960 . S
C1256 H1242 0.960 . S
C1256 H1243 0.960 . S
C1256 C1255 1.524 . S
C1257 C1254 1.403 1_655 S
C1257 C1258 1.392 . S
C1257 C1261 1.495 . S
C1258 C1257 1.392 . S
C1258 C1259 1.385 . S
C1258 C1260 1.478 . S
C1259 H1253 0.930 . S
C1259 C1255 1.400 1_655 S
C1259 C1258 1.385 . S
C1260 C1258 1.478 . S
C1260 C1262 1.381 . S
C1260 C1266 1.383 . S
C1261 C1257 1.495 . S
C1261 H1267 0.959 . S
C1261 H1268 0.961 . S
C1261 H1269 0.960 . S
C1262 C1260 1.381 . S
C1262 C1263 1.394 . S
C1262 H1270 0.930 . S
C1263 C1262 1.394 . S
C1263 C1264 1.383 . S
C1263 H1271 0.929 . S
C1264 C1263 1.383 . S
C1264 C1265 1.377 . S
C1265 H1249 0.930 . S
C1265 C1264 1.377 . S
C1265 C1266 1.379 . S
C1266 H1250 0.931 . S
C1266 C1260 1.383 . S
C1266 C1265 1.379 . S
H1267 C1261 0.959 . S
H1268 C1261 0.961 . S
H1269 C1261 0.960 . S
H1270 C1262 0.930 . S
H1271 C1263 0.929 . S
H1272 C1280 0.929 . S
H1273 C1282 0.930 . S
H1274 C1284 0.930 . S
H1275 C1287 0.929 . S
H1276 C1290 0.930 . S
H1277 C1292 0.960 . S
H1278 C1292 0.960 . S
H1279 C1292 0.960 . S
C1280 H1272 0.929 . S
C1280 C1281 1.377 . S
C1280 C1282 1.384 . S
C1281 C1280 1.377 . S
C1281 C1287 1.390 . S
C1282 H1273 0.930 . S
C1282 C1280 1.384 . S
C1282 C1283 1.372 . S
C1283 C1282 1.372 . S
C1283 C1284 1.400 . S
C1283 C1288 1.490 . S
C1284 H1274 0.930 . S
C1284 C1283 1.400 . S
C1284 C1287 1.386 . S
H1285 C1301 0.930 . S
H1286 C1302 0.931 . S
C1287 H1275 0.929 . S
C1287 C1281 1.390 . S
C1287 C1284 1.386 . S
C1288 C1283 1.490 . S
C1288 C1290 1.395 . S
C1288 C1291 1.403 . S
H1289 C1295 0.930 . S
C1290 H1276 0.930 . S
C1290 C1288 1.395 . S
C1290 C1293 1.403 1_556 S
C1291 C1288 1.403 . S
C1291 C1292 1.524 . S
C1291 C1295 1.400 1_556 S
C1292 H1277 0.960 . S
C1292 H1278 0.960 . S
C1292 H1279 0.960 . S
C1292 C1291 1.524 . S
C1293 C1290 1.403 1_554 S
C1293 C1294 1.392 . S
C1293 C1297 1.495 . S
C1294 C1293 1.392 . S
C1294 C1295 1.385 . S
C1294 C1296 1.478 . S
C1295 H1289 0.930 . S
C1295 C1291 1.400 1_554 S
C1295 C1294 1.385 . S
C1296 C1294 1.478 . S
C1296 C1298 1.381 . S
C1296 C1302 1.383 . S
C1297 C1293 1.495 . S
C1297 H1303 0.959 . S
C1297 H1304 0.961 . S
C1297 H1305 0.960 . S
C1298 C1296 1.381 . S
C1298 C1299 1.394 . S
C1298 H1306 0.930 . S
C1299 C1298 1.394 . S
C1299 C1300 1.383 . S
C1299 H1307 0.929 . S
C1300 C1299 1.383 . S
C1300 C1301 1.377 . S
C1301 H1285 0.930 . S
C1301 C1300 1.377 . S
C1301 C1302 1.379 . S
C1302 H1286 0.931 . S
C1302 C1296 1.383 . S
C1302 C1301 1.379 . S
H1303 C1297 0.959 . S
H1304 C1297 0.961 . S
H1305 C1297 0.960 . S
H1306 C1298 0.930 . S
H1307 C1299 0.929 . S
H1308 C1316 0.929 . S
H1309 C1318 0.930 . S
H1310 C1320 0.930 . S
H1311 C1323 0.929 . S
H1312 C1326 0.930 . S
H1313 C1328 0.960 . S
H1314 C1328 0.960 . S
H1315 C1328 0.960 . S
C1316 H1308 0.929 . S
C1316 C1317 1.377 . S
C1316 C1318 1.384 . S
C1317 C1316 1.377 . S
C1317 C1323 1.390 . S
C1318 H1309 0.930 . S
C1318 C1316 1.384 . S
C1318 C1319 1.372 . S
C1319 C1318 1.372 . S
C1319 C1320 1.400 . S
C1319 C1324 1.490 . S
C1320 H1310 0.930 . S
C1320 C1319 1.400 . S
C1320 C1323 1.386 . S
H1321 C1337 0.930 . S
H1322 C1338 0.931 . S
C1323 H1311 0.929 . S
C1323 C1317 1.390 . S
C1323 C1320 1.386 . S
C1324 C1319 1.490 . S
C1324 C1326 1.395 . S
C1324 C1327 1.403 . S
H1325 C1331 0.930 . S
C1326 H1312 0.930 . S
C1326 C1324 1.395 . S
C1326 C1329 1.403 1_556 S
C1327 C1324 1.403 . S
C1327 C1328 1.524 . S
C1327 C1331 1.400 1_556 S
C1328 H1313 0.960 . S
C1328 H1314 0.960 . S
C1328 H1315 0.960 . S
C1328 C1327 1.524 . S
C1329 C1326 1.403 1_554 S
C1329 C1330 1.392 . S
C1329 C1333 1.495 . S
C1330 C1329 1.392 . S
C1330 C1331 1.385 . S
C1330 C1332 1.478 . S
C1331 H1325 0.930 . S
C1331 C1327 1.400 1_554 S
C1331 C1330 1.385 . S
C1332 C1330 1.478 . S
C1332 C1334 1.381 . S
C1332 C1338 1.383 . S
C1333 C1329 1.495 . S
C1333 H1339 0.959 . S
C1333 H1340 0.961 . S
C1333 H1341 0.960 . S
C1334 C1332 1.381 . S
C1334 C1335 1.394 . S
C1334 H1342 0.930 . S
C1335 C1334 1.394 . S
C1335 C1336 1.383 . S
C1335 H1343 0.929 . S
C1336 C1335 1.383 . S
C1336 C1337 1.377 . S
C1337 H1321 0.930 . S
C1337 C1336 1.377 . S
C1337 C1338 1.379 . S
C1338 H1322 0.931 . S
C1338 C1332 1.383 . S
C1338 C1337 1.379 . S
H1339 C1333 0.959 . S
H1340 C1333 0.961 . S
H1341 C1333 0.960 . S
H1342 C1334 0.930 . S
H1343 C1335 0.929 . S
H1344 C1352 0.929 . S
H1345 C1354 0.930 . S
H1346 C1356 0.930 . S
H1347 C1359 0.929 . S
H1348 C1362 0.930 . S
H1349 C1364 0.960 . S
H1350 C1364 0.960 . S
H1351 C1364 0.960 . S
C1352 H1344 0.929 . S
C1352 C1353 1.377 . S
C1352 C1354 1.384 . S
C1353 C1352 1.377 . S
C1353 C1359 1.390 . S
C1354 H1345 0.930 . S
C1354 C1352 1.384 . S
C1354 C1355 1.372 . S
C1355 C1354 1.372 . S
C1355 C1356 1.400 . S
C1355 C1360 1.490 . S
C1356 H1346 0.930 . S
C1356 C1355 1.400 . S
C1356 C1359 1.386 . S
H1357 C1373 0.930 . S
H1358 C1374 0.931 . S
C1359 H1347 0.929 . S
C1359 C1353 1.390 . S
C1359 C1356 1.386 . S
C1360 C1355 1.490 . S
C1360 C1362 1.395 . S
C1360 C1363 1.403 . S
H1361 C1367 0.930 . S
C1362 H1348 0.930 . S
C1362 C1360 1.395 . S
C1362 C1365 1.403 1_554 S
C1363 C1360 1.403 . S
C1363 C1364 1.524 . S
C1363 C1367 1.400 1_554 S
C1364 H1349 0.960 . S
C1364 H1350 0.960 . S
C1364 H1351 0.960 . S
C1364 C1363 1.524 . S
C1365 C1362 1.403 1_556 S
C1365 C1366 1.392 . S
C1365 C1369 1.495 . S
C1366 C1365 1.392 . S
C1366 C1367 1.385 . S
C1366 C1368 1.478 . S
C1367 H1361 0.930 . S
C1367 C1363 1.400 1_556 S
C1367 C1366 1.385 . S
C1368 C1366 1.478 . S
C1368 C1370 1.381 . S
C1368 C1374 1.383 . S
C1369 C1365 1.495 . S
C1369 H1375 0.959 . S
C1369 H1376 0.961 . S
C1369 H1377 0.960 . S
C1370 C1368 1.381 . S
C1370 C1371 1.394 . S
C1370 H1378 0.930 . S
C1371 C1370 1.394 . S
C1371 C1372 1.383 . S
C1371 H1379 0.929 . S
C1372 C1371 1.383 . S
C1372 C1373 1.377 . S
C1373 H1357 0.930 . S
C1373 C1372 1.377 . S
C1373 C1374 1.379 . S
C1374 H1358 0.931 . S
C1374 C1368 1.383 . S
C1374 C1373 1.379 . S
H1375 C1369 0.959 . S
H1376 C1369 0.961 . S
H1377 C1369 0.960 . S
H1378 C1370 0.930 . S
H1379 C1371 0.929 . S
H1380 C1388 0.929 . S
H1381 C1390 0.930 . S
H1382 C1392 0.930 . S
H1383 C1395 0.929 . S
H1384 C1398 0.930 . S
H1385 C1400 0.960 . S
H1386 C1400 0.960 . S
H1387 C1400 0.960 . S
C1388 H1380 0.929 . S
C1388 C1389 1.377 . S
C1388 C1390 1.384 . S
C1389 C1388 1.377 . S
C1389 C1395 1.390 . S
C1390 H1381 0.930 . S
C1390 C1388 1.384 . S
C1390 C1391 1.372 . S
C1391 C1390 1.372 . S
C1391 C1392 1.400 . S
C1391 C1396 1.490 . S
C1392 H1382 0.930 . S
C1392 C1391 1.400 . S
C1392 C1395 1.386 . S
H1393 C1409 0.930 . S
H1394 C1410 0.931 . S
C1395 H1383 0.929 . S
C1395 C1389 1.390 . S
C1395 C1392 1.386 . S
C1396 C1391 1.490 . S
C1396 C1398 1.395 . S
C1396 C1399 1.403 . S
H1397 C1403 0.930 . S
C1398 H1384 0.930 . S
C1398 C1396 1.395 . S
C1398 C1401 1.403 1_556 S
C1399 C1396 1.403 . S
C1399 C1400 1.524 . S
C1399 C1403 1.400 1_556 S
C1400 H1385 0.960 . S
C1400 H1386 0.960 . S
C1400 H1387 0.960 . S
C1400 C1399 1.524 . S
C1401 C1398 1.403 1_554 S
C1401 C1402 1.392 . S
C1401 C1405 1.495 . S
C1402 C1401 1.392 . S
C1402 C1403 1.385 . S
C1402 C1404 1.478 . S
C1403 H1397 0.930 . S
C1403 C1399 1.400 1_554 S
C1403 C1402 1.385 . S
C1404 C1402 1.478 . S
C1404 C1406 1.381 . S
C1404 C1410 1.383 . S
C1405 C1401 1.495 . S
C1405 H1411 0.959 . S
C1405 H1412 0.961 . S
C1405 H1413 0.960 . S
C1406 C1404 1.381 . S
C1406 C1407 1.394 . S
C1406 H1414 0.930 . S
C1407 C1406 1.394 . S
C1407 C1408 1.383 . S
C1407 H1415 0.929 . S
C1408 C1407 1.383 . S
C1408 C1409 1.377 . S
C1409 H1393 0.930 . S
C1409 C1408 1.377 . S
C1409 C1410 1.379 . S
C1410 H1394 0.931 . S
C1410 C1404 1.383 . S
C1410 C1409 1.379 . S
H1411 C1405 0.959 . S
H1412 C1405 0.961 . S
H1413 C1405 0.960 . S
H1414 C1406 0.930 . S
H1415 C1407 0.929 . S
H1416 C1424 0.929 . S
H1417 C1426 0.930 . S
H1418 C1428 0.930 . S
H1419 C1431 0.929 . S
H1420 C1434 0.930 . S
H1421 C1436 0.960 . S
H1422 C1436 0.960 . S
H1423 C1436 0.960 . S
C1424 H1416 0.929 . S
C1424 C1425 1.377 . S
C1424 C1426 1.384 . S
C1425 C1424 1.377 . S
C1425 C1431 1.390 . S
C1426 H1417 0.930 . S
C1426 C1424 1.384 . S
C1426 C1427 1.372 . S
C1427 C1426 1.372 . S
C1427 C1428 1.400 . S
C1427 C1432 1.490 . S
C1428 H1418 0.930 . S
C1428 C1427 1.400 . S
C1428 C1431 1.386 . S
H1429 C1445 0.930 . S
H1430 C1446 0.931 . S
C1431 H1419 0.929 . S
C1431 C1425 1.390 . S
C1431 C1428 1.386 . S
C1432 C1427 1.490 . S
C1432 C1434 1.395 . S
C1432 C1435 1.403 . S
H1433 C1439 0.930 . S
C1434 H1420 0.930 . S
C1434 C1432 1.395 . S
C1434 C1437 1.403 1_455 S
C1435 C1432 1.403 . S
C1435 C1436 1.524 . S
C1435 C1439 1.400 1_455 S
C1436 H1421 0.960 . S
C1436 H1422 0.960 . S
C1436 H1423 0.960 . S
C1436 C1435 1.524 . S
C1437 C1434 1.403 1_655 S
C1437 C1438 1.392 . S
C1437 C1441 1.495 . S
C1438 C1437 1.392 . S
C1438 C1439 1.385 . S
C1438 C1440 1.478 . S
C1439 H1433 0.930 . S
C1439 C1435 1.400 1_655 S
C1439 C1438 1.385 . S
C1440 C1438 1.478 . S
C1440 C1442 1.381 . S
C1440 C1446 1.383 . S
C1441 C1437 1.495 . S
C1441 H1447 0.959 . S
C1441 H1448 0.961 . S
C1441 H1449 0.960 . S
C1442 C1440 1.381 . S
C1442 C1443 1.394 . S
C1442 H1450 0.930 . S
C1443 C1442 1.394 . S
C1443 C1444 1.383 . S
C1443 H1451 0.929 . S
C1444 C1443 1.383 . S
C1444 C1445 1.377 . S
C1445 H1429 0.930 . S
C1445 C1444 1.377 . S
C1445 C1446 1.379 . S
C1446 H1430 0.931 . S
C1446 C1440 1.383 . S
C1446 C1445 1.379 . S
H1447 C1441 0.959 . S
H1448 C1441 0.961 . S
H1449 C1441 0.960 . S
H1450 C1442 0.930 . S
H1451 C1443 0.929 . S
H1452 C1460 0.929 . S
H1453 C1462 0.930 . S
H1454 C1464 0.930 . S
H1455 C1467 0.929 . S
H1456 C1470 0.930 . S
H1457 C1472 0.960 . S
H1458 C1472 0.960 . S
H1459 C1472 0.960 . S
C1460 H1452 0.929 . S
C1460 C1461 1.377 . S
C1460 C1462 1.384 . S
C1461 C1460 1.377 . S
C1461 C1467 1.390 . S
C1462 H1453 0.930 . S
C1462 C1460 1.384 . S
C1462 C1463 1.372 . S
C1463 C1462 1.372 . S
C1463 C1464 1.400 . S
C1463 C1468 1.490 . S
C1464 H1454 0.930 . S
C1464 C1463 1.400 . S
C1464 C1467 1.386 . S
H1465 C1481 0.930 . S
H1466 C1482 0.931 . S
C1467 H1455 0.929 . S
C1467 C1461 1.390 . S
C1467 C1464 1.386 . S
C1468 C1463 1.490 . S
C1468 C1470 1.395 . S
C1468 C1471 1.403 . S
H1469 C1475 0.930 . S
C1470 H1456 0.930 . S
C1470 C1468 1.395 . S
C1470 C1473 1.403 1_655 S
C1471 C1468 1.403 . S
C1471 C1472 1.524 . S
C1471 C1475 1.400 1_655 S
C1472 H1457 0.960 . S
C1472 H1458 0.960 . S
C1472 H1459 0.960 . S
C1472 C1471 1.524 . S
C1473 C1470 1.403 1_455 S
C1473 C1474 1.392 . S
C1473 C1477 1.495 . S
C1474 C1473 1.392 . S
C1474 C1475 1.385 . S
C1474 C1476 1.478 . S
C1475 H1469 0.930 . S
C1475 C1471 1.400 1_455 S
C1475 C1474 1.385 . S
C1476 C1474 1.478 . S
C1476 C1478 1.381 . S
C1476 C1482 1.383 . S
C1477 C1473 1.495 . S
C1477 H1483 0.959 . S
C1477 H1484 0.961 . S
C1477 H1485 0.960 . S
C1478 C1476 1.381 . S
C1478 C1479 1.394 . S
C1478 H1486 0.930 . S
C1479 C1478 1.394 . S
C1479 C1480 1.383 . S
C1479 H1487 0.929 . S
C1480 C1479 1.383 . S
C1480 C1481 1.377 . S
C1481 H1465 0.930 . S
C1481 C1480 1.377 . S
C1481 C1482 1.379 . S
C1482 H1466 0.931 . S
C1482 C1476 1.383 . S
C1482 C1481 1.379 . S
H1483 C1477 0.959 . S
H1484 C1477 0.961 . S
H1485 C1477 0.960 . S
H1486 C1478 0.930 . S
H1487 C1479 0.929 . S
H1488 C1496 0.929 . S
H1489 C1498 0.930 . S
H1490 C1500 0.930 . S
H1491 C1503 0.929 . S
H1492 C1506 0.930 . S
H1493 C1508 0.960 . S
H1494 C1508 0.960 . S
H1495 C1508 0.960 . S
C1496 H1488 0.929 . S
C1496 C1497 1.377 . S
C1496 C1498 1.384 . S
C1497 C1496 1.377 . S
C1497 C1503 1.390 . S
C1498 H1489 0.930 . S
C1498 C1496 1.384 . S
C1498 C1499 1.372 . S
C1499 C1498 1.372 . S
C1499 C1500 1.400 . S
C1499 C1504 1.490 . S
C1500 H1490 0.930 . S
C1500 C1499 1.400 . S
C1500 C1503 1.386 . S
H1501 C1517 0.930 . S
H1502 C1518 0.931 . S
C1503 H1491 0.929 . S
C1503 C1497 1.390 . S
C1503 C1500 1.386 . S
C1504 C1499 1.490 . S
C1504 C1506 1.395 . S
C1504 C1507 1.403 . S
H1505 C1511 0.930 . S
C1506 H1492 0.930 . S
C1506 C1504 1.395 . S
C1506 C1509 1.403 1_545 S
C1507 C1504 1.403 . S
C1507 C1508 1.524 . S
C1507 C1511 1.400 1_545 S
C1508 H1493 0.960 . S
C1508 H1494 0.960 . S
C1508 H1495 0.960 . S
C1508 C1507 1.524 . S
C1509 C1506 1.403 1_565 S
C1509 C1510 1.392 . S
C1509 C1513 1.495 . S
C1510 C1509 1.392 . S
C1510 C1511 1.385 . S
C1510 C1512 1.478 . S
C1511 H1505 0.930 . S
C1511 C1507 1.400 1_565 S
C1511 C1510 1.385 . S
C1512 C1510 1.478 . S
C1512 C1514 1.381 . S
C1512 C1518 1.383 . S
C1513 C1509 1.495 . S
C1513 H1519 0.959 . S
C1513 H1520 0.961 . S
C1513 H1521 0.960 . S
C1514 C1512 1.381 . S
C1514 C1515 1.394 . S
C1514 H1522 0.930 . S
C1515 C1514 1.394 . S
C1515 C1516 1.383 . S
C1515 H1523 0.929 . S
C1516 C1515 1.383 . S
C1516 C1517 1.377 . S
C1517 H1501 0.930 . S
C1517 C1516 1.377 . S
C1517 C1518 1.379 . S
C1518 H1502 0.931 . S
C1518 C1512 1.383 . S
C1518 C1517 1.379 . S
H1519 C1513 0.959 . S
H1520 C1513 0.961 . S
H1521 C1513 0.960 . S
H1522 C1514 0.930 . S
H1523 C1515 0.929 . S
H1524 C1532 0.929 . S
H1525 C1534 0.930 . S
H1526 C1536 0.930 . S
H1527 C1539 0.929 . S
H1528 C1542 0.930 . S
H1529 C1544 0.960 . S
H1530 C1544 0.960 . S
H1531 C1544 0.960 . S
C1532 H1524 0.929 . S
C1532 C1533 1.377 . S
C1532 C1534 1.384 . S
C1533 C1532 1.377 . S
C1533 C1539 1.390 . S
C1534 H1525 0.930 . S
C1534 C1532 1.384 . S
C1534 C1535 1.372 . S
C1535 C1534 1.372 . S
C1535 C1536 1.400 . S
C1535 C1540 1.490 . S
C1536 H1526 0.930 . S
C1536 C1535 1.400 . S
C1536 C1539 1.386 . S
H1537 C1553 0.930 . S
H1538 C1554 0.931 . S
C1539 H1527 0.929 . S
C1539 C1533 1.390 . S
C1539 C1536 1.386 . S
C1540 C1535 1.490 . S
C1540 C1542 1.395 . S
C1540 C1543 1.403 . S
H1541 C1547 0.930 . S
C1542 H1528 0.930 . S
C1542 C1540 1.395 . S
C1542 C1545 1.403 1_565 S
C1543 C1540 1.403 . S
C1543 C1544 1.524 . S
C1543 C1547 1.400 1_565 S
C1544 H1529 0.960 . S
C1544 H1530 0.960 . S
C1544 H1531 0.960 . S
C1544 C1543 1.524 . S
C1545 C1542 1.403 1_545 S
C1545 C1546 1.392 . S
C1545 C1549 1.495 . S
C1546 C1545 1.392 . S
C1546 C1547 1.385 . S
C1546 C1548 1.478 . S
C1547 H1541 0.930 . S
C1547 C1543 1.400 1_545 S
C1547 C1546 1.385 . S
C1548 C1546 1.478 . S
C1548 C1550 1.381 . S
C1548 C1554 1.383 . S
C1549 C1545 1.495 . S
C1549 H1555 0.959 . S
C1549 H1556 0.961 . S
C1549 H1557 0.960 . S
C1550 C1548 1.381 . S
C1550 C1551 1.394 . S
C1550 H1558 0.930 . S
C1551 C1550 1.394 . S
C1551 C1552 1.383 . S
C1551 H1559 0.929 . S
C1552 C1551 1.383 . S
C1552 C1553 1.377 . S
C1553 H1537 0.930 . S
C1553 C1552 1.377 . S
C1553 C1554 1.379 . S
C1554 H1538 0.931 . S
C1554 C1548 1.383 . S
C1554 C1553 1.379 . S
H1555 C1549 0.959 . S
H1556 C1549 0.961 . S
H1557 C1549 0.960 . S
H1558 C1550 0.930 . S
H1559 C1551 0.929 . S
C273 C5 1.406 . S
C292 C161 1.401 . S
C309 C94 1.395 . S
C328 C31 1.415 . S
C345 C53 1.402 . S
C364 C117 1.417 . S
C381 C71 1.397 . S
C400 C139 1.390 . S
C417 C75 1.398 . S
C436 C204 1.385 . S
C453 C9 1.395 . S
C472 C227 1.411 . S
C489 C248 1.397 . S
C508 C27 1.387 . S
C525 C49 1.401 . S
C544 C182 1.373 . S
C561 C93 1.406 . S
C580 C7 1.380 . S
C597 C119 1.406 . S
C616 C28 1.374 . S
C633 C141 1.396 . S
C652 C50 1.399 . S
C669 C73 1.405 . S
C688 C163 1.371 . S
C705 C72 1.400 . S
C724 C181 1.423 . S
C741 C6 1.402 . S
C760 C203 1.419 . S
C777 C229 1.397 . S
C796 C29 1.392 . S
C813 C247 1.402 . S
C832 C51 1.371 . S
C849 C95 1.406 . S
C868 C159 1.395 . S
C885 C207 1.399 . S
C904 C183 1.380 . S
C921 C205 1.395 . S
C940 C225 1.419 . S
C957 C251 1.397 . S
C976 C226 1.390 . S
C993 C249 1.406 . S
C1012 C185 1.390 . S
C1029 C138 1.397 . S
C1048 C115 1.425 . S
C1065 C137 1.403 . S
C1084 C160 1.415 . S
C1101 C97 1.401 . S
C1120 C116 1.421 . S
C1137 C70 1.557 . S
C1156 C8 1.541 . S
C1173 C4 1.556 . S
C1192 C26 1.565 . S
C1209 C30 1.554 . S
C1228 C48 1.564 . S
C1245 C74 1.556 . S
C1264 C52 1.543 . S
C1281 C224 1.557 . S
C1300 C96 1.541 . S
C1317 C250 1.554 . S
C1336 C114 1.564 . S
C1353 C136 1.555 . S
C1372 C184 1.566 . S
C1389 C206 1.557 . S
C1408 C158 1.563 . S
C1425 C162 1.556 . S
C1444 C118 1.545 . S
C1461 C246 1.556 . S
C1480 C202 1.566 . S
C1497 C228 1.555 . S
C1516 C180 1.566 . S
C1533 C140 1.554 . S
C1552 C92 1.554 . S
