# Generated by pormake.
# Topology wjg, (4)-cn, num edge types: 1
# Building blocks:
#     Node 0, Type 0, BuildingBlock: NAHDIM_clean_sbu_0, # of connection points: 4
#     Node 1, Type 0, BuildingBlock: NAHDIM_clean_sbu_0, # of connection points: 4
#     Node 2, Type 0, BuildingBlock: NAHDIM_clean_sbu_0, # of connection points: 4
#     Node 3, Type 0, BuildingBlock: NAHDIM_clean_sbu_0, # of connection points: 4
#     Node 4, Type 0, BuildingBlock: NAHDIM_clean_sbu_0, # of connection points: 4
#     Node 5, Type 0, BuildingBlock: NAHDIM_clean_sbu_0, # of connection points: 4
#     Node 6, Type 0, BuildingBlock: NAHDIM_clean_sbu_0, # of connection points: 4
#     Node 7, Type 0, BuildingBlock: NAHDIM_clean_sbu_0, # of connection points: 4
#     Node 8, Type 0, BuildingBlock: NAHDIM_clean_sbu_0, # of connection points: 4
#     Node 9, Type 0, BuildingBlock: NAHDIM_clean_sbu_0, # of connection points: 4
#     Node 10, Type 0, BuildingBlock: NAHDIM_clean_sbu_0, # of connection points: 4
#     Node 11, Type 0, BuildingBlock: NAHDIM_clean_sbu_0, # of connection points: 4
#     Edge 12, Type (0, 0), BuildingBlock: TEMPAE_clean_linker_10, # of connection points: 2
#     Edge 13, Type (0, 0), BuildingBlock: TEMPAE_clean_linker_10, # of connection points: 2
#     Edge 14, Type (0, 0), BuildingBlock: TEMPAE_clean_linker_10, # of connection points: 2
#     Edge 15, Type (0, 0), BuildingBlock: TEMPAE_clean_linker_10, # of connection points: 2
#     Edge 16, Type (0, 0), BuildingBlock: TEMPAE_clean_linker_10, # of connection points: 2
#     Edge 17, Type (0, 0), BuildingBlock: TEMPAE_clean_linker_10, # of connection points: 2
#     Edge 18, Type (0, 0), BuildingBlock: TEMPAE_clean_linker_10, # of connection points: 2
#     Edge 19, Type (0, 0), BuildingBlock: TEMPAE_clean_linker_10, # of connection points: 2
#     Edge 20, Type (0, 0), BuildingBlock: TEMPAE_clean_linker_10, # of connection points: 2
#     Edge 21, Type (0, 0), BuildingBlock: TEMPAE_clean_linker_10, # of connection points: 2
#     Edge 22, Type (0, 0), BuildingBlock: TEMPAE_clean_linker_10, # of connection points: 2
#     Edge 23, Type (0, 0), BuildingBlock: TEMPAE_clean_linker_10, # of connection points: 2
#     Edge 24, Type (0, 0), BuildingBlock: TEMPAE_clean_linker_10, # of connection points: 2
#     Edge 25, Type (0, 0), BuildingBlock: TEMPAE_clean_linker_10, # of connection points: 2
#     Edge 26, Type (0, 0), BuildingBlock: TEMPAE_clean_linker_10, # of connection points: 2
#     Edge 27, Type (0, 0), BuildingBlock: TEMPAE_clean_linker_10, # of connection points: 2
#     Edge 28, Type (0, 0), BuildingBlock: TEMPAE_clean_linker_10, # of connection points: 2
#     Edge 29, Type (0, 0), BuildingBlock: TEMPAE_clean_linker_10, # of connection points: 2
#     Edge 30, Type (0, 0), BuildingBlock: TEMPAE_clean_linker_10, # of connection points: 2
#     Edge 31, Type (0, 0), BuildingBlock: TEMPAE_clean_linker_10, # of connection points: 2
#     Edge 32, Type (0, 0), BuildingBlock: TEMPAE_clean_linker_10, # of connection points: 2
#     Edge 33, Type (0, 0), BuildingBlock: TEMPAE_clean_linker_10, # of connection points: 2
#     Edge 34, Type (0, 0), BuildingBlock: TEMPAE_clean_linker_10, # of connection points: 2
#     Edge 35, Type (0, 0), BuildingBlock: TEMPAE_clean_linker_10, # of connection points: 2
# Relax obj value: 0.294
# Max RMSD: 0.131
# Mean RMSD: 0.129
data_MOF--net-wjg--node1-NAHDIM_clean_sbu_0--edge1-TEMPAE_clean_linker_10
_symmetry_space_group_name_H-M    P1
_symmetry_Int_Tables_number       1
_symmetry_cell_setting            triclinic
loop_
_symmetry_equiv_pos_as_xyz
'x, y, z'
_cell_length_a     34.36441
_cell_length_b     34.308746
_cell_length_c     38.609802
_cell_angle_alpha  89.971905
_cell_angle_beta   89.962246
_cell_angle_gamma 120.09797
loop_
_atom_site_label
_atom_site_type_symbol
_atom_site_fract_x
_atom_site_fract_y
_atom_site_fract_z
_atom_type_partial_charge
C0 C 0.10006 0.40063 0.27425 0.0
O1 O 0.13901 0.40244 0.27717 0.0
O2 O 0.15579 0.46397 0.36065 0.0
Zn3 Zn 0.10669 0.40089 0.34795 0.0
O4 O 0.13449 0.36152 0.34321 0.0
C5 C 0.05806 0.37341 0.41803 0.0
O6 O 0.01904 0.35506 0.43401 0.0
O7 O 0.0795 0.40085 0.3016 0.0
C8 C 0.11485 0.31885 0.34367 0.0
O9 O 0.07082 0.29518 0.34621 0.0
C10 C 0.1957 0.47605 0.35113 0.0
O11 O 0.20266 0.44859 0.33187 0.0
O12 O 0.05813 0.37574 0.38502 0.0
C13 C 0.74295 0.0726 0.61876 0.0
O14 O 0.76333 0.05445 0.63538 0.0
O15 O 0.76627 0.17742 0.69753 0.0
Zn16 Zn 0.78058 0.13278 0.67509 0.0
O17 O 0.84682 0.16391 0.66406 0.0
C18 C 0.76941 0.07958 0.73956 0.0
O19 O 0.75133 0.04089 0.75605 0.0
O20 O 0.74566 0.10838 0.63071 0.0
C21 C 0.86714 0.20221 0.64937 0.0
O22 O 0.84394 0.22108 0.63927 0.0
C23 C 0.7542 0.20003 0.67888 0.0
O24 O 0.74945 0.19257 0.64536 0.0
O25 O 0.76287 0.07969 0.70715 0.0
C26 C 0.61988 0.7674 0.9083 0.0
O27 O 0.61604 0.79983 0.89356 0.0
O28 O 0.51771 0.76431 0.95118 0.0
Zn29 Zn 0.58302 0.79207 0.96457 0.0
O30 O 0.61933 0.85858 0.95278 0.0
C31 C 0.55265 0.78459 0.03478 0.0
O32 O 0.51803 0.78226 0.01847 0.0
O33 O 0.60848 0.7579 0.93989 0.0
C34 C 0.61292 0.8865 0.96997 0.0
O35 O 0.58096 0.87114 0.99346 0.0
C36 C 0.49886 0.78463 0.93811 0.0
O37 O 0.52369 0.82689 0.92853 0.0
O38 O 0.58521 0.78719 0.0171 0.0
C39 C 0.8828 0.6257 0.28224 0.0
O40 O 0.84823 0.63196 0.27933 0.0
O41 O 0.78199 0.5263 0.32897 0.0
Zn42 Zn 0.83551 0.58462 0.34404 0.0
O43 O 0.81319 0.62855 0.34881 0.0
C44 C 0.83263 0.53399 0.40344 0.0
O45 O 0.81501 0.50085 0.38096 0.0
O46 O 0.88585 0.60586 0.30907 0.0
C47 C 0.78688 0.62188 0.37415 0.0
O48 O 0.77789 0.58895 0.3959 0.0
C49 C 0.74837 0.52321 0.31283 0.0
O50 O 0.74988 0.55994 0.30121 0.0
O51 O 0.85108 0.57436 0.39247 0.0
C52 C 0.31074 0.92436 0.606 0.0
O53 O 0.33298 0.90397 0.61479 0.0
O54 O 0.28134 0.83262 0.66372 0.0
Zn55 Zn 0.25086 0.86963 0.66111 0.0
O56 O 0.18525 0.82568 0.65316 0.0
C57 C 0.26878 0.88711 0.73375 0.0
O58 O 0.30001 0.87658 0.72771 0.0
O59 O 0.27558 0.91597 0.62289 0.0
C60 C 0.16803 0.795 0.67614 0.0
O61 O 0.19421 0.7938 0.70039 0.0
C62 C 0.27076 0.80134 0.64178 0.0
O63 O 0.24388 0.79723 0.6161 0.0
O64 O 0.24999 0.8943 0.70816 0.0
C65 C 0.42342 0.25993 0.87893 0.0
O66 O 0.45575 0.251 0.87284 0.0
O67 O 0.49132 0.2508 0.94623 0.0
Zn68 Zn 0.42365 0.21897 0.94294 0.0
O69 O 0.39883 0.15366 0.93125 0.0
C70 C 0.42238 0.23831 0.01606 0.0
O71 O 0.46293 0.27243 0.01025 0.0
O72 O 0.40366 0.24924 0.90816 0.0
C73 C 0.40847 0.13211 0.95318 0.0
O74 O 0.43664 0.1546 0.97832 0.0
C75 C 0.5145 0.23672 0.9307 0.0
O76 O 0.49418 0.20144 0.91031 0.0
O77 O 0.39861 0.21505 0.99068 0.0
C78 C 0.56566 0.89073 0.41499 0.0
O79 O 0.52238 0.86225 0.41831 0.0
O80 O 0.49627 0.78309 0.37645 0.0
Zn81 Zn 0.56179 0.82501 0.36523 0.0
O82 O 0.59848 0.7957 0.37696 0.0
C83 C 0.545 0.79938 0.29532 0.0
O84 O 0.51803 0.76151 0.31139 0.0
O85 O 0.58803 0.88284 0.39263 0.0
C86 C 0.58377 0.75361 0.37475 0.0
O87 O 0.54157 0.72647 0.36626 0.0
C88 C 0.48154 0.75825 0.40321 0.0
O89 O 0.51005 0.76111 0.42712 0.0
O90 O 0.56774 0.83489 0.31325 0.0
C91 C 0.73317 0.59641 0.7673 0.0
O92 O 0.7715 0.59929 0.77594 0.0
O93 O 0.72929 0.48605 0.73547 0.0
Zn94 Zn 0.74283 0.54531 0.71411 0.0
O95 O 0.80995 0.5882 0.71363 0.0
C96 C 0.72179 0.49938 0.64886 0.0
O97 O 0.71834 0.46671 0.6687 0.0
O98 O 0.71256 0.57369 0.74061 0.0
C99 C 0.83456 0.5787 0.69494 0.0
O100 O 0.81592 0.54029 0.67811 0.0
C101 C 0.75864 0.48069 0.75135 0.0
O102 O 0.79731 0.51626 0.75935 0.0
O103 O 0.72669 0.53514 0.66295 0.0
C104 C 0.0993 0.72264 0.08092 0.0
O105 O 0.1387 0.75968 0.08235 0.0
O106 O 0.16038 0.68853 0.00263 0.0
Zn107 Zn 0.12722 0.72214 0.01048 0.0
O108 O 0.1757 0.78739 0.01379 0.0
C109 C 0.10262 0.7087 0.93906 0.0
O110 O 0.11366 0.67723 0.94071 0.0
O111 O 0.08695 0.70068 0.05266 0.0
C112 C 0.20419 0.80024 0.98915 0.0
O113 O 0.20116 0.77046 0.96634 0.0
C114 C 0.19373 0.69882 0.02233 0.0
O115 O 0.19793 0.72196 0.05058 0.0
O116 O 0.09584 0.72373 0.96711 0.0
C117 C 0.38666 0.12351 0.39551 0.0
O118 O 0.40792 0.16738 0.39985 0.0
O119 O 0.43577 0.20666 0.32848 0.0
Zn120 Zn 0.37369 0.15198 0.32995 0.0
O121 O 0.32877 0.1714 0.34076 0.0
C122 C 0.39168 0.13316 0.26131 0.0
O123 O 0.43142 0.14557 0.27458 0.0
O124 O 0.36917 0.10745 0.36616 0.0
C125 C 0.32045 0.19155 0.31679 0.0
O126 O 0.34227 0.19959 0.2873 0.0
C127 C 0.44582 0.24413 0.34236 0.0
O128 O 0.41532 0.24756 0.36049 0.0
O129 O 0.36004 0.12777 0.28137 0.0
C130 C 0.31506 0.38703 0.69103 0.0
O131 O 0.28174 0.35864 0.67128 0.0
O132 O 0.31204 0.51408 0.67003 0.0
Zn133 Zn 0.29552 0.45049 0.65811 0.0
O134 O 0.22807 0.41016 0.66412 0.0
C135 C 0.30959 0.47896 0.58693 0.0
O136 O 0.32099 0.51836 0.60049 0.0
O137 O 0.32826 0.42882 0.6889 0.0
C138 C 0.20613 0.37861 0.64249 0.0
O139 O 0.22806 0.37074 0.61822 0.0
C140 C 0.28599 0.52276 0.68752 0.0
O141 O 0.24965 0.48936 0.70147 0.0
O142 O 0.30591 0.44768 0.60682 0.0
C143 C 0.93315 0.30639 0.04794 0.0
O144 O 0.90136 0.26393 0.04614 0.0
O145 O 0.85597 0.33178 0.97824 0.0
Zn146 Zn 0.89817 0.30745 0.98077 0.0
O147 O 0.85763 0.24 0.98397 0.0
C148 C 0.91734 0.32741 0.90879 0.0
O149 O 0.89563 0.34949 0.91318 0.0
O150 O 0.93922 0.33222 0.02235 0.0
C151 C 0.82708 0.22175 0.96105 0.0
O152 O 0.82346 0.24739 0.93748 0.0
C153 C 0.82491 0.31714 0.00082 0.0
O154 O 0.82649 0.29311 0.02673 0.0
O155 O 0.92999 0.31498 0.93544 0.0
C156 C 0.22905 0.5454 0.38832 0.0
C157 C 0.23437 0.51896 0.36312 0.0
C158 C 0.26614 0.58574 0.40004 0.0
C159 C 0.3093 0.59993 0.38602 0.0
C160 C 0.31483 0.57299 0.36096 0.0
C161 C 0.27737 0.53289 0.34988 0.0
C162 C 0.2591 0.61338 0.42707 0.0
C163 C 0.36035 0.58678 0.34545 0.0
C164 C 0.40346 0.72065 0.37966 0.0
C165 C 0.4341 0.72137 0.404 0.0
C166 C 0.36092 0.68234 0.3755 0.0
C167 C 0.34885 0.64374 0.39604 0.0
C168 C 0.37813 0.64552 0.42257 0.0
C169 C 0.42048 0.68445 0.4263 0.0
C170 C 0.33042 0.68202 0.34723 0.0
C171 C 0.36635 0.60513 0.44515 0.0
H172 H 0.19598 0.53449 0.39901 0.0
H173 H 0.28185 0.51254 0.33057 0.0
H174 H 0.2831 0.62151 0.44877 0.0
H175 H 0.26579 0.64579 0.41554 0.0
H176 H 0.22433 0.5957 0.43764 0.0
H177 H 0.3591 0.56133 0.327 0.0
H178 H 0.37342 0.61929 0.33153 0.0
H179 H 0.3847 0.59186 0.36626 0.0
H180 H 0.41349 0.74931 0.36267 0.0
H181 H 0.44385 0.68482 0.44532 0.0
H182 H 0.29547 0.66758 0.35692 0.0
H183 H 0.32976 0.66044 0.32557 0.0
H184 H 0.34184 0.71633 0.33691 0.0
H185 H 0.33077 0.58869 0.4537 0.0
H186 H 0.38828 0.61438 0.46838 0.0
H187 H 0.3705 0.57997 0.43 0.0
C188 C 0.74422 0.23962 0.72983 0.0
C189 C 0.74971 0.2372 0.69402 0.0
C190 C 0.74186 0.27601 0.74427 0.0
C191 C 0.74632 0.31121 0.72245 0.0
C192 C 0.75141 0.30863 0.68627 0.0
C193 C 0.75256 0.27145 0.67249 0.0
C194 C 0.73524 0.27723 0.78282 0.0
C195 C 0.75684 0.34575 0.66214 0.0
C196 C 0.71187 0.39698 0.74547 0.0
C197 C 0.7538 0.43533 0.75193 0.0
C198 C 0.70839 0.35522 0.73838 0.0
C199 C 0.74786 0.352 0.73721 0.0
C200 C 0.7898 0.38986 0.74611 0.0
C201 C 0.79219 0.43098 0.75366 0.0
C202 C 0.66292 0.31547 0.72966 0.0
C203 C 0.83295 0.3884 0.74453 0.0
H204 H 0.74176 0.21308 0.74657 0.0
H205 H 0.75706 0.26992 0.64484 0.0
H206 H 0.76492 0.30684 0.79431 0.0
H207 H 0.70563 0.28113 0.78805 0.0
H208 H 0.73021 0.24626 0.79605 0.0
H209 H 0.75971 0.33821 0.63459 0.0
H210 H 0.72772 0.35113 0.66473 0.0
H211 H 0.78743 0.37783 0.66922 0.0
H212 H 0.682 0.40005 0.74433 0.0
H213 H 0.82478 0.46044 0.75848 0.0
H214 H 0.65812 0.28447 0.74258 0.0
H215 H 0.66076 0.30943 0.70131 0.0
H216 H 0.63505 0.32122 0.73738 0.0
H217 H 0.8279 0.35562 0.75373 0.0
H218 H 0.85998 0.41575 0.76016 0.0
H219 H 0.84453 0.39271 0.71723 0.0
C220 C 0.42914 0.79043 0.93836 0.0
C221 C 0.44944 0.76388 0.94133 0.0
C222 C 0.38422 0.77358 0.94836 0.0
C223 C 0.35902 0.72904 0.96135 0.0
C224 C 0.37819 0.70096 0.96174 0.0
C225 C 0.42324 0.71876 0.95182 0.0
C226 C 0.36479 0.80451 0.94732 0.0
C227 C 0.35213 0.65305 0.97479 0.0
C228 C 0.27247 0.71439 0.02859 0.0
C229 C 0.23325 0.6974 0.00861 0.0
C230 C 0.31325 0.72291 0.01377 0.0
C231 C 0.31478 0.71394 0.97815 0.0
C232 C 0.2747 0.69374 0.95843 0.0
C233 C 0.23434 0.68569 0.97391 0.0
C234 C 0.35524 0.74412 0.03579 0.0
C235 C 0.27489 0.68319 0.9205 0.0
H236 H 0.44903 0.82524 0.93015 0.0
H237 H 0.43851 0.69782 0.95382 0.0
H238 H 0.33147 0.78768 0.93443 0.0
H239 H 0.35967 0.81267 0.97415 0.0
H240 H 0.38711 0.83655 0.93349 0.0
H241 H 0.36925 0.63374 0.96856 0.0
H242 H 0.34837 0.65319 0.00332 0.0
H243 H 0.31784 0.63532 0.96349 0.0
H244 H 0.27189 0.72327 0.05545 0.0
H245 H 0.2042 0.67247 0.95823 0.0
H246 H 0.37867 0.77871 0.0263 0.0
H247 H 0.37289 0.7246 0.03373 0.0
H248 H 0.34783 0.74614 0.06353 0.0
H249 H 0.291 0.71503 0.90543 0.0
H250 H 0.24033 0.66137 0.91032 0.0
H251 H 0.29477 0.66627 0.91603 0.0
C252 C 0.50519 0.32291 0.3567 0.0
C253 C 0.49088 0.28391 0.3368 0.0
C254 C 0.54757 0.36112 0.35127 0.0
C255 C 0.57601 0.36045 0.325 0.0
C256 C 0.56166 0.32128 0.30469 0.0
C257 C 0.51936 0.28335 0.31098 0.0
C258 C 0.56201 0.40214 0.37376 0.0
C259 C 0.59092 0.31951 0.27625 0.0
C260 C 0.66847 0.47476 0.29382 0.0
C261 C 0.70554 0.47975 0.31268 0.0
C262 C 0.62632 0.4354 0.2967 0.0
C263 C 0.62113 0.40058 0.3193 0.0
C264 C 0.65871 0.40491 0.33765 0.0
C265 C 0.70052 0.44429 0.33391 0.0
C266 C 0.58706 0.43165 0.27637 0.0
C267 C 0.65442 0.36874 0.36229 0.0
H268 H 0.48338 0.3235 0.37674 0.0
H269 H 0.50836 0.25342 0.29531 0.0
H270 H 0.5935 0.41045 0.38764 0.0
H271 H 0.56924 0.43163 0.35742 0.0
H272 H 0.536 0.39712 0.39316 0.0
H273 H 0.57439 0.2868 0.26229 0.0
H274 H 0.59934 0.34694 0.25728 0.0
H275 H 0.62308 0.32498 0.28727 0.0
H276 H 0.67214 0.50198 0.27731 0.0
H277 H 0.72889 0.44789 0.34874 0.0
H278 H 0.56157 0.43089 0.29443 0.0
H279 H 0.5706 0.39971 0.26148 0.0
H280 H 0.59738 0.46021 0.2581 0.0
H281 H 0.63126 0.36487 0.38376 0.0
H282 H 0.68729 0.37655 0.37357 0.0
H283 H 0.63972 0.33585 0.34876 0.0
C284 C 0.26669 0.72889 0.62581 0.0
C285 C 0.28266 0.76603 0.64808 0.0
C286 C 0.2724 0.69221 0.63377 0.0
C287 C 0.29483 0.69278 0.66468 0.0
C288 C 0.31298 0.73109 0.68644 0.0
C289 C 0.30662 0.76729 0.6779 0.0
C290 C 0.25266 0.65197 0.60983 0.0
C291 C 0.33746 0.73306 0.71943 0.0
C292 C 0.25888 0.5766 0.70014 0.0
C293 C 0.29218 0.56868 0.68663 0.0
C294 C 0.26048 0.61776 0.69452 0.0
C295 C 0.29641 0.65191 0.67513 0.0
C296 C 0.33158 0.64521 0.66329 0.0
C297 C 0.32901 0.6036 0.66912 0.0
C298 C 0.22235 0.62369 0.70765 0.0
C299 C 0.3707 0.68104 0.64288 0.0
H300 H 0.24831 0.7277 0.60266 0.0
H301 H 0.31921 0.79594 0.69522 0.0
H302 H 0.27871 0.64346 0.60241 0.0
H303 H 0.22548 0.62224 0.62343 0.0
H304 H 0.23849 0.6579 0.58587 0.0
H305 H 0.3535 0.76694 0.7316 0.0
H306 H 0.31344 0.70811 0.73823 0.0
H307 H 0.36374 0.72405 0.71424 0.0
H308 H 0.23041 0.54992 0.71383 0.0
H309 H 0.35507 0.5979 0.65877 0.0
H310 H 0.20308 0.62576 0.68536 0.0
H311 H 0.23568 0.65563 0.72234 0.0
H312 H 0.19887 0.59543 0.72461 0.0
H313 H 0.35887 0.68459 0.61697 0.0
H314 H 0.39786 0.67282 0.63927 0.0
H315 H 0.38494 0.71416 0.65601 0.0
C316 C 0.77913 0.33901 0.9638 0.0
C317 C 0.78294 0.31773 0.99361 0.0
C318 C 0.73723 0.33253 0.95319 0.0
C319 C 0.69834 0.30383 0.97272 0.0
C320 C 0.70245 0.28468 0.00401 0.0
C321 C 0.74477 0.29211 0.01419 0.0
C322 C 0.73426 0.35417 0.92 0.0
C323 C 0.66174 0.25378 0.02554 0.0
C324 C 0.5854 0.29608 0.95855 0.0
C325 C 0.56298 0.25686 0.93841 0.0
C326 C 0.63026 0.31304 0.96873 0.0
C327 C 0.65291 0.2899 0.95887 0.0
C328 C 0.63096 0.25122 0.93755 0.0
C329 C 0.58634 0.23533 0.92741 0.0
C330 C 0.65286 0.35478 0.99099 0.0
C331 C 0.65397 0.22547 0.92662 0.0
H332 H 0.80853 0.35913 0.94786 0.0
H333 H 0.7474 0.27571 0.03735 0.0
H334 H 0.71859 0.3281 0.89956 0.0
H335 H 0.71268 0.3694 0.92358 0.0
H336 H 0.76789 0.3806 0.91072 0.0
H337 H 0.67106 0.24478 0.05061 0.0
H338 H 0.6412 0.26977 0.03088 0.0
H339 H 0.64026 0.22228 0.01093 0.0
H340 H 0.56765 0.31308 0.96695 0.0
H341 H 0.56929 0.20505 0.91183 0.0
H342 H 0.68622 0.3793 0.98008 0.0
H343 H 0.65865 0.34573 0.01731 0.0
H344 H 0.63236 0.37142 0.99338 0.0
H345 H 0.68632 0.24833 0.91355 0.0
H346 H 0.63292 0.19721 0.9088 0.0
H347 H 0.66178 0.21154 0.94983 0.0
C348 C 0.12235 0.25032 0.33605 0.0
C349 C 0.14226 0.29674 0.34194 0.0
C350 C 0.14886 0.22988 0.33315 0.0
C351 C 0.19618 0.25654 0.33654 0.0
C352 C 0.21625 0.30317 0.34341 0.0
C353 C 0.18909 0.32271 0.34587 0.0
C354 C 0.12642 0.18006 0.32568 0.0
C355 C 0.26656 0.33269 0.34749 0.0
C356 C 0.26855 0.20409 0.35464 0.0
C357 C 0.28694 0.20602 0.32181 0.0
C358 C 0.2379 0.2193 0.35971 0.0
C359 C 0.22524 0.23648 0.33123 0.0
C360 C 0.24278 0.23736 0.29789 0.0
C361 C 0.27355 0.22227 0.29361 0.0
C362 C 0.22011 0.2182 0.39569 0.0
C363 C 0.22991 0.2553 0.26686 0.0
H364 H 0.08619 0.2301 0.33304 0.0
H365 H 0.20474 0.35856 0.35075 0.0
H366 H 0.13776 0.17467 0.30012 0.0
H367 H 0.13635 0.16312 0.34536 0.0
H368 H 0.08915 0.16369 0.32543 0.0
H369 H 0.27653 0.36785 0.35467 0.0
H370 H 0.27906 0.31868 0.36769 0.0
H371 H 0.28357 0.33343 0.32287 0.0
H372 H 0.27873 0.19151 0.37652 0.0
H373 H 0.28732 0.2235 0.2681 0.0
H374 H 0.18282 0.20042 0.39542 0.0
H375 H 0.23203 0.2531 0.40469 0.0
H376 H 0.2311 0.2013 0.41464 0.0
H377 H 0.19277 0.23788 0.26429 0.0
H378 H 0.2443 0.25099 0.24236 0.0
H379 H 0.24199 0.29169 0.27048 0.0
C380 C 0.94185 0.20826 0.65967 0.0
C381 C 0.91676 0.22681 0.64619 0.0
C382 C 0.98902 0.23245 0.6589 0.0
C383 C 0.01162 0.27606 0.64408 0.0
C384 C 0.98654 0.29461 0.62978 0.0
C385 C 0.93939 0.26978 0.63108 0.0
C386 C 0.01467 0.21158 0.6744 0.0
C387 C 0.00954 0.34094 0.61355 0.0
C388 C 0.13238 0.35598 0.67124 0.0
C389 C 0.15643 0.35217 0.64337 0.0
C390 C 0.08516 0.33131 0.67183 0.0
C391 C 0.06158 0.30245 0.64379 0.0
C392 C 0.08569 0.29872 0.61551 0.0
C393 C 0.1328 0.32352 0.61568 0.0
C394 C 0.0605 0.33614 0.70242 0.0
C395 C 0.06173 0.2686 0.585 0.0
H396 H 0.92468 0.17514 0.67145 0.0
H397 H 0.92027 0.28436 0.62056 0.0
H398 H 0.03733 0.21 0.65467 0.0
H399 H 0.03609 0.23283 0.69597 0.0
H400 H 0.99202 0.17704 0.68443 0.0
H401 H 0.98516 0.35003 0.60279 0.0
H402 H 0.03061 0.36651 0.63315 0.0
H403 H 0.03228 0.3427 0.59243 0.0
H404 H 0.15043 0.37814 0.69265 0.0
H405 H 0.15112 0.32074 0.59385 0.0
H406 H 0.03904 0.30282 0.71477 0.0
H407 H 0.03791 0.34854 0.69358 0.0
H408 H 0.08381 0.35978 0.72223 0.0
H409 H 0.04057 0.23328 0.59389 0.0
H410 H 0.08548 0.26972 0.56496 0.0
H411 H 0.03898 0.27887 0.57289 0.0
C412 C 0.8023 0.14416 0.98324 0.0
C413 C 0.7958 0.17249 0.96076 0.0
C414 C 0.77267 0.09743 0.98317 0.0
C415 C 0.73556 0.07865 0.96019 0.0
C416 C 0.72892 0.10706 0.93736 0.0
C417 C 0.75918 0.15363 0.93787 0.0
C418 C 0.78081 0.06818 0.00794 0.0
C419 C 0.6897 0.08834 0.91255 0.0
C420 C 0.67918 0.9529 0.94239 0.0
C421 C 0.64277 0.93572 0.96553 0.0
C422 C 0.70928 -0.00051 0.93988 0.0
C423 C 0.70279 0.02946 0.96104 0.0
C424 C 0.66553 0.01238 0.98382 0.0
C425 C 0.63599 0.96577 0.98576 0.0
C426 C 0.74854 0.01657 0.91515 0.0
C427 C 0.6573 0.04331 0.00662 0.0
H428 H 0.83058 0.15848 0.00093 0.0
H429 H 0.75386 0.1753 0.92044 0.0
H430 H 0.75187 0.05077 0.02593 0.0
H431 H 0.78355 0.04176 0.9934 0.0
H432 H 0.81191 0.08786 0.02345 0.0
H433 H 0.68793 0.11525 0.89784 0.0
H434 H 0.69262 0.06541 0.89383 0.0
H435 H 0.65762 0.06823 0.92682 0.0
H436 H 0.68463 0.92995 0.92663 0.0
H437 H 0.60789 0.95286 0.00365 0.0
H438 H 0.78055 0.03362 0.92987 0.0
H439 H 0.7485 0.0419 0.8973 0.0
H440 H 0.74787 0.98906 0.89953 0.0
H441 H 0.68599 0.06165 0.02465 0.0
H442 H 0.62595 0.02477 0.0221 0.0
H443 H 0.65501 0.06892 0.99058 0.0
C444 C 0.65905 0.76385 0.39034 0.0
C445 C 0.6149 0.73591 0.37859 0.0
C446 C 0.68972 0.7482 0.39186 0.0
C447 C 0.67597 0.70374 0.38104 0.0
C448 C 0.63124 0.67514 0.36975 0.0
C449 C 0.60118 0.6915 0.36884 0.0
C450 C 0.73699 0.7794 0.40449 0.0
C451 C 0.6154 0.62755 0.35785 0.0
C452 C 0.76123 0.67251 0.34928 0.0
C453 C 0.76273 0.64722 0.37724 0.0
C454 C 0.73415 0.69236 0.35059 0.0
C455 C 0.70841 0.68714 0.38071 0.0
C456 C 0.71147 0.66345 0.40961 0.0
C457 C 0.73843 0.64356 0.40745 0.0
C458 C 0.73154 0.71721 0.31919 0.0
C459 C 0.685 0.6577 0.44234 0.0
H460 H 0.66984 0.79816 0.39807 0.0
H461 H 0.56717 0.66972 0.35965 0.0
H462 H 0.74526 0.76341 0.42605 0.0
H463 H 0.76134 0.78584 0.38332 0.0
H464 H 0.7417 0.81222 0.41357 0.0
H465 H 0.57935 0.60946 0.35029 0.0
H466 H 0.63571 0.62807 0.33532 0.0
H467 H 0.62028 0.60824 0.37876 0.0
H468 H 0.77987 0.67537 0.32584 0.0
H469 H 0.73974 0.62434 0.42927 0.0
H470 H 0.7384 0.75132 0.32659 0.0
H471 H 0.69705 0.69889 0.30826 0.0
H472 H 0.75573 0.72065 0.29865 0.0
H473 H 0.69059 0.69079 0.45142 0.0
H474 H 0.69422 0.64189 0.46351 0.0
H475 H 0.64853 0.6362 0.43699 0.0
C476 C 0.10137 0.72938 0.70299 0.0
C477 C 0.11914 0.76262 0.67715 0.0
C478 C 0.05501 0.69939 0.70547 0.0
C479 C 0.02563 0.70276 0.68159 0.0
C480 C 0.04329 0.73601 0.65528 0.0
C481 C 0.08993 0.76555 0.65332 0.0
C482 C 0.03747 0.66426 0.73382 0.0
C483 C 0.01288 0.74067 0.62946 0.0
C484 C 0.90988 0.59995 0.67032 0.0
C485 C 0.88338 0.61063 0.69155 0.0
C486 C 0.95614 0.62988 0.66652 0.0
C487 C 0.97638 0.67148 0.68435 0.0
C488 C 0.94982 0.68264 0.70563 0.0
C489 C 0.9036 0.65203 0.70901 0.0
C490 C 0.98343 0.61678 0.64367 0.0
C491 C 0.97029 0.7268 0.72498 0.0
H492 H 0.12368 0.72689 0.72155 0.0
H493 H 0.10343 0.79125 0.63336 0.0
H494 H 0.01389 0.66876 0.75071 0.0
H495 H 0.01842 0.63009 0.72233 0.0
H496 H 0.06489 0.66599 0.75018 0.0
H497 H 0.03196 0.76804 0.61041 0.0
H498 H 0.9928 0.70857 0.61521 0.0
H499 H 0.98881 0.74782 0.64325 0.0
H500 H 0.89451 0.5681 0.65663 0.0
H501 H 0.88332 0.66059 0.72536 0.0
H502 H 0.00972 0.61522 0.65928 0.0
H503 H 0.0009 0.64264 0.6233 0.0
H504 H 0.96238 0.58361 0.63096 0.0
H505 H 0.99624 0.72909 0.74327 0.0
H506 H 0.94481 0.73083 0.7398 0.0
H507 H 0.98732 0.75533 0.70654 0.0
C508 C 0.34511 0.05772 0.93345 0.0
C509 C 0.38369 0.08231 0.9538 0.0
C510 C 0.31772 0.01097 0.93767 0.0
C511 C 0.32958 0.98836 0.96252 0.0
C512 C 0.36979 0.01262 0.98173 0.0
C513 C 0.39626 0.05935 0.97725 0.0
C514 C 0.27531 0.98603 0.91642 0.0
C515 C 0.38396 0.98949 0.00796 0.0
C516 C 0.23539 0.88179 0.00291 0.0
C517 C 0.23787 0.84827 0.98401 0.0
C518 C 0.26521 0.92755 0.99617 0.0
C519 C 0.29846 0.93996 0.97013 0.0
C520 C 0.30175 0.90624 0.9515 0.0
C521 C 0.27128 0.86079 0.95858 0.0
C522 C 0.26058 0.96264 0.01647 0.0
C523 C 0.33683 0.91799 0.92368 0.0
H524 H 0.33528 0.07522 0.9152 0.0
H525 H 0.42625 0.07807 0.99286 0.0
H526 H 0.277 0.96021 0.90027 0.0
H527 H 0.24565 0.96817 0.9337 0.0
H528 H 0.27002 0.00884 0.89912 0.0
H529 H 0.41794 0.01247 0.0187 0.0
H530 H 0.35949 0.97658 0.02968 0.0
H531 H 0.38401 0.96011 0.996 0.0
H532 H 0.2095 0.87231 0.02244 0.0
H533 H 0.27347 0.83502 0.94392 0.0
H534 H 0.25363 0.98371 0.99853 0.0
H535 H 0.29254 0.98538 0.03003 0.0
H536 H 0.23311 0.94741 0.03596 0.0
H537 H 0.32817 0.93163 0.90077 0.0
H538 H 0.33911 0.88821 0.91532 0.0
H539 H 0.37041 0.9444 0.93288 0.0
C540 C 0.9559 0.29395 0.10641 0.0
C541 C 0.96011 0.32389 0.07998 0.0
C542 C 0.98005 0.30963 0.1374 0.0
C543 C 0.00897 0.35646 0.14223 0.0
C544 C 0.01352 0.38694 0.11567 0.0
C545 C 0.98913 0.37027 0.08475 0.0
C546 C 0.97457 0.27599 0.165 0.0
C547 C 0.04389 0.43711 0.12002 0.0
C548 C 0.03716 0.39207 0.23618 0.0
C549 C 0.07874 0.39408 0.23979 0.0
C550 C 0.01492 0.38182 0.20412 0.0
C551 C 0.03461 0.37309 0.1751 0.0
C552 C 0.07734 0.37675 0.17828 0.0
C553 C 0.09895 0.38735 0.21055 0.0
C554 C 0.96957 0.37864 0.20163 0.0
C555 C 0.09936 0.36752 0.14798 0.0
H556 H 0.93367 0.25807 0.10293 0.0
H557 H 0.99242 0.39363 0.0645 0.0
H558 H 0.00765 0.27924 0.17097 0.0
H559 H 0.96185 0.28301 0.18925 0.0
H560 H 0.95096 0.24069 0.15707 0.0
H561 H 0.04363 0.45633 0.09694 0.0
H562 H 0.03322 0.44893 0.14294 0.0
H563 H 0.07893 0.44498 0.12478 0.0
H564 H 0.02146 0.39751 0.25859 0.0
H565 H 0.13114 0.38898 0.21303 0.0
H566 H 0.94321 0.34316 0.19683 0.0
H567 H 0.96899 0.39895 0.17947 0.0
H568 H 0.96079 0.39039 0.22563 0.0
H569 H 0.07911 0.33153 0.1405 0.0
H570 H 0.13408 0.37514 0.15403 0.0
H571 H 0.10064 0.38784 0.1252 0.0
C572 C 0.70672 0.00715 0.57845 0.0
C573 C 0.71638 0.05074 0.58724 0.0
C574 C 0.6812 0.98533 0.54904 0.0
C575 C 0.6653 0.00782 0.52755 0.0
C576 C 0.67511 0.05197 0.53608 0.0
C577 C 0.70036 0.07286 0.56599 0.0
C578 C 0.67109 0.93804 0.54106 0.0
C579 C 0.65912 0.07712 0.51356 0.0
C580 C 0.6359 0.95704 0.43769 0.0
C581 C 0.58961 0.92674 0.44103 0.0
C582 C 0.66055 0.98611 0.46489 0.0
C583 C 0.63844 0.98455 0.49624 0.0
C584 C 0.59124 0.9563 0.49888 0.0
C585 C 0.56733 0.92786 0.47116 0.0
C586 C 0.71074 0.01631 0.46085 0.0
C587 C 0.56638 0.95361 0.53187 0.0
H588 H 0.71875 0.98972 0.5948 0.0
H589 H 0.70783 0.10662 0.57258 0.0
H590 H 0.63418 0.91491 0.53989 0.0
H591 H 0.68505 0.93722 0.51533 0.0
H592 H 0.68537 0.92504 0.5607 0.0
H593 H 0.6698 0.11134 0.52368 0.0
H594 H 0.6725 0.08035 0.4869 0.0
H595 H 0.6219 0.05799 0.5117 0.0
H596 H 0.65331 0.95679 0.41434 0.0
H597 H 0.53154 0.90477 0.47393 0.0
H598 H 0.72838 0.00308 0.47685 0.0
H599 H 0.72142 0.05082 0.47016 0.0
H600 H 0.72174 0.01832 0.43352 0.0
H601 H 0.57525 0.9365 0.55218 0.0
H602 H 0.52931 0.93458 0.52828 0.0
H603 H 0.57643 0.98781 0.54154 0.0
C604 C 0.63123 0.70115 0.90076 0.0
C605 C 0.636 0.7416 0.88796 0.0
C606 C 0.64546 0.676 0.88125 0.0
C607 C 0.66545 0.69198 0.84835 0.0
C608 C 0.67054 0.73289 0.83538 0.0
C609 C 0.65551 0.75704 0.85524 0.0
C610 C 0.63908 0.63231 0.8958 0.0
C611 C 0.69225 0.75138 0.80064 0.0
C612 C 0.74264 0.65209 0.81292 0.0
C613 C 0.71524 0.62021 0.78812 0.0
C614 C 0.72682 0.67559 0.83268 0.0
C615 C 0.68226 0.66665 0.82787 0.0
C616 C 0.65419 0.63415 0.80315 0.0
C617 C 0.67112 0.61151 0.78339 0.0
C618 C 0.75799 0.71037 0.85845 0.0
C619 C 0.60632 0.62336 0.79758 0.0
H620 H 0.61592 0.68884 0.92593 0.0
H621 H 0.65943 0.78831 0.84519 0.0
H622 H 0.61908 0.60432 0.87754 0.0
H623 H 0.6722 0.63448 0.89889 0.0
H624 H 0.62178 0.62389 0.92132 0.0
H625 H 0.69357 0.78359 0.79422 0.0
H626 H 0.72704 0.75715 0.8005 0.0
H627 H 0.67339 0.72658 0.77995 0.0
H628 H 0.77685 0.65919 0.81666 0.0
H629 H 0.64969 0.58679 0.76439 0.0
H630 H 0.74319 0.70153 0.8848 0.0
H631 H 0.76227 0.74379 0.85188 0.0
H632 H 0.7917 0.71334 0.85907 0.0
H633 H 0.58743 0.61253 0.82236 0.0
H634 H 0.58848 0.59635 0.77806 0.0
H635 H 0.60594 0.65396 0.78884 0.0
C636 C 0.02896 0.66586 0.1113 0.0
C637 C 0.06933 0.7073 0.11164 0.0
C638 C -0.00023 0.65161 0.13991 0.0
C639 C 0.01105 0.67962 0.16948 0.0
C640 C 0.05205 0.72116 0.1702 0.0
C641 C 0.08076 0.73443 0.14133 0.0
C642 C 0.95646 0.60693 0.13826 0.0
C643 C 0.06514 0.75206 0.20118 0.0
C644 C 0.91476 0.66581 0.22632 0.0
C645 C 0.91663 0.64041 0.25408 0.0
C646 C 0.94554 0.67909 0.19884 0.0
C647 C 0.97892 0.66646 0.19896 0.0
C648 C 0.98127 0.64108 0.227 0.0
C649 C 0.95016 0.62847 0.25431 0.0
C650 C 0.94214 0.70644 0.16954 0.0
C651 C 0.0163 0.62684 0.22793 0.0
H652 H 0.01998 0.64455 0.08855 0.0
H653 H 0.11188 0.76648 0.14186 0.0
H654 H 0.95402 0.58572 0.16078 0.0
H655 H 0.92735 0.61249 0.13964 0.0
H656 H 0.9537 0.58811 0.11411 0.0
H657 H 0.09898 0.78238 0.19822 0.0
H658 H 0.04018 0.76318 0.20502 0.0
H659 H 0.06494 0.73382 0.22497 0.0
H660 H 0.88909 0.67535 0.22595 0.0
H661 H 0.95178 0.60876 0.27563 0.0
H662 H 0.93581 0.68778 0.1448 0.0
H663 H 0.97438 0.73859 0.16666 0.0
H664 H 0.91477 0.71424 0.17369 0.0
H665 H 0.01236 0.60558 0.20507 0.0
H666 H 0.01394 0.60761 0.25176 0.0
H667 H 0.05048 0.6569 0.22651 0.0
C668 C 0.40038 0.11218 0.45726 0.0
C669 C 0.38011 0.09359 0.42531 0.0
C670 C 0.39173 0.08494 0.48662 0.0
C671 C 0.362 0.03795 0.48402 0.0
C672 C 0.34256 0.01874 0.45162 0.0
C673 C 0.3519 0.0468 0.42261 0.0
C674 C 0.41333 0.10666 0.52067 0.0
C675 C 0.31077 0.96872 0.44785 0.0
C676 C 0.36207 0.96179 0.55554 0.0
C677 C 0.32485 0.95462 0.57546 0.0
C678 C 0.37465 0.98888 0.52572 0.0
C679 C 0.34943 0.00929 0.5156 0.0
C680 C 0.31211 0.00255 0.53577 0.0
C681 C 0.30029 0.97532 0.56544 0.0
C682 C 0.41473 0.99543 0.50491 0.0
C683 C 0.28448 0.02389 0.52587 0.0
H684 H 0.42245 0.14827 0.45957 0.0
H685 H 0.33616 0.03215 0.39802 0.0
H686 H 0.387 0.10233 0.53945 0.0
H687 H 0.43101 0.09001 0.53187 0.0
H688 H 0.43777 0.14323 0.51788 0.0
H689 H 0.30055 0.95875 0.42052 0.0
H690 H 0.32669 0.94971 0.45779 0.0
H691 H 0.28009 0.95854 0.46357 0.0
H692 H 0.38123 0.94592 0.56305 0.0
H693 H 0.27148 0.96998 0.58065 0.0
H694 H 0.44001 0.03183 0.50307 0.0
H695 H 0.40414 0.98295 0.47811 0.0
H696 H 0.43105 0.97754 0.51644 0.0
H697 H 0.30623 0.06107 0.52486 0.0
H698 H 0.25655 0.0154 0.54437 0.0
H699 H 0.27004 0.01254 0.49964 0.0
C700 C 0.37359 0.28851 0.85715 0.0
C701 C 0.40975 0.28113 0.85173 0.0
C702 C 0.35959 0.30727 0.83105 0.0
C703 C 0.38234 0.31897 0.7988 0.0
C704 C 0.41931 0.3123 0.79338 0.0
C705 C 0.43253 0.29343 0.81988 0.0
C706 C 0.32001 0.31392 0.83778 0.0
C707 C 0.44447 0.32446 0.75937 0.0
C708 C 0.31793 0.32367 0.7206 0.0
C709 C 0.33428 0.37007 0.71739 0.0
C710 C 0.33362 0.30668 0.74678 0.0
C711 C 0.3665 0.3368 0.77034 0.0
C712 C 0.38378 0.38374 0.76689 0.0
C713 C 0.36747 0.39983 0.74044 0.0
C714 C 0.31448 0.25639 0.74956 0.0
C715 C 0.419 0.41689 0.79146 0.0
H716 H 0.35585 0.27918 0.88169 0.0
H717 H 0.46062 0.28801 0.81548 0.0
H718 H 0.32982 0.34965 0.83339 0.0
H719 H 0.29247 0.29329 0.81937 0.0
H720 H 0.30685 0.3044 0.8646 0.0
H721 H 0.47349 0.31864 0.75973 0.0
H722 H 0.42143 0.30412 0.73818 0.0
H723 H 0.45699 0.3604 0.75315 0.0
H724 H 0.29233 0.3004 0.70291 0.0
H725 H 0.38029 0.43573 0.73817 0.0
H726 H 0.29764 0.24419 0.775 0.0
H727 H 0.34195 0.24837 0.74815 0.0
H728 H 0.28975 0.23759 0.72877 0.0
H729 H 0.40556 0.41027 0.81828 0.0
H730 H 0.42985 0.45238 0.78471 0.0
H731 H 0.44893 0.41261 0.7913 0.0
C732 C 0.09828 0.39538 0.47495 0.0
C733 C 0.09994 0.39077 0.43893 0.0
C734 C 0.13695 0.41071 0.49548 0.0
C735 C 0.17847 0.42192 0.47963 0.0
C736 C 0.18044 0.41715 0.44346 0.0
C737 C 0.14112 0.40151 0.42374 0.0
C738 C 0.13327 0.41467 0.53418 0.0
C739 C 0.22397 0.42847 0.42553 0.0
C740 C 0.27911 0.4982 0.53501 0.0
C741 C 0.28578 0.46657 0.5532 0.0
C742 C 0.2462 0.48447 0.50909 0.0
C743 C 0.21946 0.43809 0.50127 0.0
C744 C 0.22917 0.40666 0.517 0.0
C745 C 0.26259 0.42138 0.54254 0.0
C746 C 0.23768 0.51915 0.49209 0.0
C747 C 0.20189 0.35697 0.50893 0.0
H748 H 0.06667 0.387 0.48725 0.0
H749 H 0.14277 0.39718 0.39655 0.0
H750 H 0.14342 0.39272 0.54787 0.0
H751 H 0.15649 0.44982 0.54258 0.0
H752 H 0.0986 0.40501 0.54243 0.0
H753 H 0.21874 0.41773 0.39799 0.0
H754 H 0.24733 0.46539 0.42647 0.0
H755 H 0.24066 0.41218 0.43893 0.0
H756 H 0.29743 0.53335 0.54257 0.0
H757 H 0.26826 0.39684 0.55581 0.0
H758 H 0.2044 0.51375 0.50036 0.0
H759 H 0.23675 0.51544 0.46353 0.0
H760 H 0.26375 0.55413 0.49887 0.0
H761 H 0.16776 0.3429 0.52027 0.0
H762 H 0.21751 0.33798 0.51965 0.0
H763 H 0.19785 0.35137 0.48054 0.0
C764 C 0.88838 0.30855 0.84817 0.0
C765 C 0.91122 0.30262 0.87594 0.0
C766 C 0.87033 0.27672 0.82136 0.0
C767 C 0.87535 0.23828 0.82242 0.0
C768 C 0.90239 0.23462 0.84836 0.0
C769 C 0.92026 0.267 0.87473 0.0
C770 C 0.84293 0.28237 0.79341 0.0
C771 C 0.90907 0.19439 0.85011 0.0
C772 C 0.77869 0.12721 0.79073 0.0
C773 C 0.79529 0.12176 0.75914 0.0
C774 C 0.80415 0.16556 0.81114 0.0
C775 C 0.84734 0.19914 0.79964 0.0
C776 C 0.86397 0.19403 0.76744 0.0
C777 C 0.83792 0.15491 0.74785 0.0
C778 C 0.78521 0.16962 0.84539 0.0
C779 C 0.90992 0.22868 0.75434 0.0
H780 H 0.88186 0.33636 0.84855 0.0
H781 H 0.93837 0.26234 0.89581 0.0
H782 H 0.85599 0.2807 0.76749 0.0
H783 H 0.80761 0.25439 0.7949 0.0
H784 H 0.84335 0.31479 0.7958 0.0
H785 H 0.93564 0.19946 0.86894 0.0
H786 H 0.87711 0.16424 0.85812 0.0
H787 H 0.91822 0.18725 0.82429 0.0
H788 H 0.74589 0.10117 0.79964 0.0
H789 H 0.85183 0.14921 0.72462 0.0
H790 H 0.78458 0.20162 0.84636 0.0
H791 H 0.80708 0.17041 0.86684 0.0
H792 H 0.75059 0.14122 0.84999 0.0
H793 H 0.91694 0.26341 0.7596 0.0
H794 H 0.91334 0.22515 0.72611 0.0
H795 H 0.93589 0.22424 0.76788 0.0
C796 C 0.57403 0.83958 0.23851 0.0
C797 C 0.54984 0.79932 0.2572 0.0
C798 C 0.57787 0.83908 0.20225 0.0
C799 C 0.55737 0.79734 0.18445 0.0
C800 C 0.53384 0.75665 0.20332 0.0
C801 C 0.5302 0.75815 0.23936 0.0
C802 C 0.60294 0.88316 0.18292 0.0
C803 C 0.51168 0.71144 0.18536 0.0
C804 C 0.52082 0.79103 0.0911 0.0
C805 C 0.55463 0.7879 0.07307 0.0
C806 C 0.52201 0.79523 0.12721 0.0
C807 C 0.55772 0.79596 0.14595 0.0
C808 C 0.59213 0.793 0.12801 0.0
C809 C 0.59027 0.78915 0.0917 0.0
C810 C 0.48469 0.79837 0.14534 0.0
C811 C 0.6305 0.79326 0.14721 0.0
H812 H 0.58939 0.87149 0.25212 0.0
H813 H 0.51181 0.7268 0.25358 0.0
H814 H 0.62937 0.88333 0.16631 0.0
H815 H 0.57941 0.88715 0.16559 0.0
H816 H 0.61891 0.91257 0.20065 0.0
H817 H 0.49695 0.68288 0.20397 0.0
H818 H 0.48451 0.70847 0.16812 0.0
H819 H 0.53647 0.70839 0.16887 0.0
H820 H 0.49325 0.79038 0.07698 0.0
H821 H 0.61656 0.78688 0.07795 0.0
H822 H 0.49899 0.82912 0.16163 0.0
H823 H 0.4661 0.76902 0.16281 0.0
H824 H 0.46039 0.79927 0.12686 0.0
H825 H 0.648 0.82386 0.16357 0.0
H826 H 0.65539 0.79227 0.1294 0.0
H827 H 0.61725 0.76372 0.16479 0.0
C828 C 0.77477 0.48903 0.44765 0.0
C829 C 0.81794 0.52475 0.43991 0.0
C830 C 0.75683 0.48331 0.4811 0.0
C831 C 0.78329 0.51317 0.50773 0.0
C832 C 0.82761 0.54829 0.50037 0.0
C833 C 0.84412 0.5542 0.46631 0.0
C834 C 0.70902 0.44628 0.48763 0.0
C835 C 0.85733 0.57991 0.52836 0.0
C836 C 0.72843 0.52842 0.58824 0.0
C837 C 0.7326 0.49962 0.61176 0.0
C838 C 0.74356 0.53215 0.55389 0.0
C839 C 0.76459 0.50759 0.5433 0.0
C840 C 0.76833 0.47807 0.56686 0.0
C841 C 0.7517 0.47395 0.60061 0.0
C842 C 0.73769 0.56288 0.52911 0.0
C843 C 0.79143 0.4521 0.55685 0.0
H844 H 0.75401 0.46676 0.42711 0.0
H845 H 0.87736 0.58198 0.46025 0.0
H846 H 0.70822 0.42331 0.5082 0.0
H847 H 0.68871 0.4611 0.49697 0.0
H848 H 0.69286 0.42611 0.46402 0.0
H849 H 0.89184 0.6036 0.51884 0.0
H850 H 0.84243 0.59981 0.53845 0.0
H851 H 0.85965 0.56039 0.5504 0.0
H852 H 0.71373 0.5483 0.59678 0.0
H853 H 0.75564 0.45206 0.61877 0.0
H854 H 0.72072 0.54433 0.50512 0.0
H855 H 0.77108 0.59125 0.52147 0.0
H856 H 0.71769 0.57694 0.5406 0.0
H857 H 0.77488 0.43077 0.53388 0.0
H858 H 0.79114 0.43018 0.57816 0.0
H859 H 0.82689 0.47596 0.54961 0.0
C860 C 0.13212 0.78428 0.91157 0.0
C861 C 0.11609 0.7379 0.90799 0.0
C862 C 0.15548 0.81444 0.88455 0.0
C863 C 0.16209 0.79768 0.85297 0.0
C864 C 0.14296 0.75059 0.8483 0.0
C865 C 0.12054 0.7213 0.876 0.0
C866 C 0.17588 0.86436 0.89085 0.0
C867 C 0.14848 0.73133 0.81469 0.0
C868 C 0.2003 0.86516 0.76972 0.0
C869 C 0.24507 0.87472 0.76752 0.0
C870 C 0.17336 0.84222 0.79839 0.0
C871 C 0.19182 0.82911 0.82566 0.0
C872 C 0.23805 0.84232 0.82505 0.0
C873 C 0.26408 0.8648 0.79588 0.0
C874 C 0.12436 0.82915 0.79825 0.0
C875 C 0.25926 0.82994 0.8541 0.0
H876 H 0.12933 0.79759 0.93632 0.0
H877 H 0.1082 0.68554 0.87311 0.0
H878 H 0.21246 0.87938 0.89563 0.0
H879 H 0.17177 0.88143 0.86791 0.0
H880 H 0.16078 0.87139 0.91375 0.0
H881 H 0.12854 0.69393 0.81427 0.0
H882 H 0.13795 0.74445 0.7925 0.0
H883 H 0.18446 0.74196 0.81081 0.0
H884 H 0.1852 0.87269 0.74799 0.0
H885 H 0.29872 0.87242 0.79451 0.0
H886 H 0.1144 0.83629 0.82376 0.0
H887 H 0.10333 0.7924 0.79351 0.0
H888 H 0.1168 0.8472 0.77782 0.0
H889 H 0.25082 0.83887 0.8795 0.0
H890 H 0.29645 0.84709 0.85163 0.0
H891 H 0.24569 0.79299 0.85404 0.0
C892 C 0.35333 0.14505 0.21082 0.0
C893 C 0.38733 0.13761 0.22357 0.0
C894 C 0.35406 0.15871 0.17645 0.0
C895 C 0.38903 0.16401 0.1541 0.0
C896 C 0.42157 0.15341 0.16612 0.0
C897 C 0.42059 0.14076 0.20083 0.0
C898 C 0.31907 0.17019 0.16476 0.0
C899 C 0.45874 0.15754 0.14278 0.0
C900 C 0.37962 0.1743 0.05693 0.0
C901 C 0.40897 0.22057 0.05164 0.0
C902 C 0.37206 0.15542 0.09021 0.0
C903 C 0.39359 0.18367 0.11896 0.0
C904 C 0.42141 0.23073 0.11396 0.0
C905 C 0.42921 0.24855 0.08028 0.0
C906 C 0.34288 0.10503 0.09437 0.0
C907 C 0.44417 0.26209 0.14408 0.0
H908 H 0.32752 0.14282 0.22822 0.0
H909 H 0.4468 0.13482 0.21046 0.0
H910 H 0.30352 0.15289 0.14007 0.0
H911 H 0.29207 0.16077 0.18434 0.0
H912 H 0.33538 0.20697 0.1599 0.0
H913 H 0.47843 0.14355 0.15493 0.0
H914 H 0.44463 0.13977 0.11794 0.0
H915 H 0.482 0.19354 0.1366 0.0
H916 H 0.36429 0.15233 0.03484 0.0
H917 H 0.45185 0.28428 0.07629 0.0
H918 H 0.31648 0.09695 0.11415 0.0
H919 H 0.36371 0.09075 0.10362 0.0
H920 H 0.32643 0.08811 0.06972 0.0
H921 H 0.41911 0.25676 0.16441 0.0
H922 H 0.4617 0.29808 0.13616 0.0
H923 H 0.46918 0.25467 0.15587 0.0
loop_
_geom_bond_atom_site_label_1
_geom_bond_atom_site_label_2
_geom_bond_distance
_geom_bond_site_symmetry_2
_ccdc_geom_bond_type
C0 O1 1.160 . S
C0 O7 1.185 . S
O1 C0 1.160 . S
O2 Zn3 1.899 . S
O2 C10 1.284 . S
Zn3 O2 1.899 . S
Zn3 O4 2.032 . S
Zn3 O7 2.086 . S
Zn3 O12 1.977 . S
O4 Zn3 2.032 . S
O4 C8 1.278 . S
C5 O6 1.203 . S
C5 O12 1.267 . S
O6 C5 1.203 . S
O7 C0 1.185 . S
O7 Zn3 2.086 . S
C8 O4 1.278 . S
C8 O9 1.211 . S
O9 C8 1.211 . S
C10 O2 1.284 . S
C10 O11 1.273 . S
O11 C10 1.273 . S
O12 Zn3 1.977 . S
O12 C5 1.267 . S
C13 O14 1.160 . S
C13 O20 1.185 . S
O14 C13 1.160 . S
O15 Zn16 1.899 . S
O15 C23 1.284 . S
Zn16 O15 1.899 . S
Zn16 O17 2.032 . S
Zn16 O20 2.086 . S
Zn16 O25 1.977 . S
O17 Zn16 2.032 . S
O17 C21 1.278 . S
C18 O19 1.203 . S
C18 O25 1.267 . S
O19 C18 1.203 . S
O20 C13 1.185 . S
O20 Zn16 2.086 . S
C21 O17 1.278 . S
C21 O22 1.211 . S
O22 C21 1.211 . S
C23 O15 1.284 . S
C23 O24 1.273 . S
O24 C23 1.273 . S
O25 Zn16 1.977 . S
O25 C18 1.267 . S
C26 O27 1.160 . S
C26 O33 1.185 . S
O27 C26 1.160 . S
O28 Zn29 1.904 . S
O28 C36 1.284 . S
Zn29 O28 1.904 . S
Zn29 O30 2.045 . S
Zn29 O33 2.103 . S
Zn29 O38 1.946 1_556 S
O30 Zn29 2.045 . S
O30 C34 1.278 . S
C31 O32 1.203 . S
C31 O38 1.267 . S
O32 C31 1.203 . S
O33 C26 1.185 . S
O33 Zn29 2.103 . S
C34 O30 1.278 . S
C34 O35 1.211 1_556 S
O35 C34 1.211 1_554 S
C36 O28 1.284 . S
C36 O37 1.273 . S
O37 C36 1.273 . S
O38 Zn29 1.946 1_554 S
O38 C31 1.267 . S
C39 O40 1.160 . S
C39 O46 1.185 . S
O40 C39 1.160 . S
O41 Zn42 1.899 . S
O41 C49 1.284 . S
Zn42 O41 1.899 . S
Zn42 O43 2.032 . S
Zn42 O46 2.086 . S
Zn42 O51 1.977 . S
O43 Zn42 2.032 . S
O43 C47 1.278 . S
C44 O45 1.203 . S
C44 O51 1.267 . S
O45 C44 1.203 . S
O46 C39 1.185 . S
O46 Zn42 2.086 . S
C47 O43 1.278 . S
C47 O48 1.211 . S
O48 C47 1.211 . S
C49 O41 1.284 . S
C49 O50 1.273 . S
O50 C49 1.273 . S
O51 Zn42 1.977 . S
O51 C44 1.267 . S
C52 O53 1.160 . S
C52 O59 1.185 . S
O53 C52 1.160 . S
O54 Zn55 1.899 . S
O54 C62 1.284 . S
Zn55 O54 1.899 . S
Zn55 O56 2.032 . S
Zn55 O59 2.086 . S
Zn55 O64 1.977 . S
O56 Zn55 2.032 . S
O56 C60 1.278 . S
C57 O58 1.203 . S
C57 O64 1.267 . S
O58 C57 1.203 . S
O59 C52 1.185 . S
O59 Zn55 2.086 . S
C60 O56 1.278 . S
C60 O61 1.211 . S
O61 C60 1.211 . S
C62 O54 1.284 . S
C62 O63 1.273 . S
O63 C62 1.273 . S
O64 Zn55 1.977 . S
O64 C57 1.267 . S
C65 O66 1.160 . S
C65 O72 1.185 . S
O66 C65 1.160 . S
O67 Zn68 1.904 . S
O67 C75 1.284 . S
Zn68 O67 1.904 . S
Zn68 O69 2.045 . S
Zn68 O72 2.103 . S
Zn68 O77 1.946 1_556 S
O69 Zn68 2.045 . S
O69 C73 1.278 . S
C70 O71 1.203 . S
C70 O77 1.267 . S
O71 C70 1.203 . S
O72 C65 1.185 . S
O72 Zn68 2.103 . S
C73 O69 1.278 . S
C73 O74 1.211 1_556 S
O74 C73 1.211 1_554 S
C75 O67 1.284 . S
C75 O76 1.273 . S
O76 C75 1.273 . S
O77 Zn68 1.946 1_554 S
O77 C70 1.267 . S
C78 O79 1.160 . S
C78 O85 1.185 . S
O79 C78 1.160 . S
O80 Zn81 1.899 . S
O80 C88 1.284 . S
Zn81 O80 1.899 . S
Zn81 O82 2.032 . S
Zn81 O85 2.086 . S
Zn81 O90 1.977 . S
O82 Zn81 2.032 . S
O82 C86 1.278 . S
C83 O84 1.203 . S
C83 O90 1.267 . S
O84 C83 1.203 . S
O85 C78 1.185 . S
O85 Zn81 2.086 . S
C86 O82 1.278 . S
C86 O87 1.211 . S
O87 C86 1.211 . S
C88 O80 1.284 . S
C88 O89 1.273 . S
O89 C88 1.273 . S
O90 Zn81 1.977 . S
O90 C83 1.267 . S
C91 O92 1.160 . S
C91 O98 1.185 . S
O92 C91 1.160 . S
O93 Zn94 1.899 . S
O93 C101 1.284 . S
Zn94 O93 1.899 . S
Zn94 O95 2.032 . S
Zn94 O98 2.086 . S
Zn94 O103 1.977 . S
O95 Zn94 2.032 . S
O95 C99 1.278 . S
C96 O97 1.203 . S
C96 O103 1.267 . S
O97 C96 1.203 . S
O98 C91 1.185 . S
O98 Zn94 2.086 . S
C99 O95 1.278 . S
C99 O100 1.211 . S
O100 C99 1.211 . S
C101 O93 1.284 . S
C101 O102 1.273 . S
O102 C101 1.273 . S
O103 Zn94 1.977 . S
O103 C96 1.267 . S
C104 O105 1.160 . S
C104 O111 1.185 . S
O105 C104 1.160 . S
O106 Zn107 1.904 . S
O106 C114 1.284 . S
Zn107 O106 1.904 . S
Zn107 O108 2.045 . S
Zn107 O111 2.103 . S
Zn107 O116 1.946 1_554 S
O108 Zn107 2.045 . S
O108 C112 1.278 . S
C109 O110 1.203 . S
C109 O116 1.267 . S
O110 C109 1.203 . S
O111 C104 1.185 . S
O111 Zn107 2.103 . S
C112 O108 1.278 . S
C112 O113 1.211 1_554 S
O113 C112 1.211 1_556 S
C114 O106 1.284 . S
C114 O115 1.273 . S
O115 C114 1.273 . S
O116 Zn107 1.946 1_556 S
O116 C109 1.267 . S
C117 O118 1.160 . S
C117 O124 1.185 . S
O118 C117 1.160 . S
O119 Zn120 1.899 . S
O119 C127 1.284 . S
Zn120 O119 1.899 . S
Zn120 O121 2.032 . S
Zn120 O124 2.086 . S
Zn120 O129 1.977 . S
O121 Zn120 2.032 . S
O121 C125 1.278 . S
C122 O123 1.203 . S
C122 O129 1.267 . S
O123 C122 1.203 . S
O124 C117 1.185 . S
O124 Zn120 2.086 . S
C125 O121 1.278 . S
C125 O126 1.211 . S
O126 C125 1.211 . S
C127 O119 1.284 . S
C127 O128 1.273 . S
O128 C127 1.273 . S
O129 Zn120 1.977 . S
O129 C122 1.267 . S
C130 O131 1.160 . S
C130 O137 1.185 . S
O131 C130 1.160 . S
O132 Zn133 1.899 . S
O132 C140 1.284 . S
Zn133 O132 1.899 . S
Zn133 O134 2.032 . S
Zn133 O137 2.086 . S
Zn133 O142 1.977 . S
O134 Zn133 2.032 . S
O134 C138 1.278 . S
C135 O136 1.203 . S
C135 O142 1.267 . S
O136 C135 1.203 . S
O137 C130 1.185 . S
O137 Zn133 2.086 . S
C138 O134 1.278 . S
C138 O139 1.211 . S
O139 C138 1.211 . S
C140 O132 1.284 . S
C140 O141 1.273 . S
O141 C140 1.273 . S
O142 Zn133 1.977 . S
O142 C135 1.267 . S
C143 O144 1.160 . S
C143 O150 1.185 . S
O144 C143 1.160 . S
O145 Zn146 1.904 . S
O145 C153 1.284 . S
Zn146 O145 1.904 . S
Zn146 O147 2.045 . S
Zn146 O150 2.103 . S
Zn146 O155 1.946 1_554 S
O147 Zn146 2.045 . S
O147 C151 1.278 . S
C148 O149 1.203 . S
C148 O155 1.267 . S
O149 C148 1.203 . S
O150 C143 1.185 . S
O150 Zn146 2.103 . S
C151 O147 1.278 . S
C151 O152 1.211 1_554 S
O152 C151 1.211 1_556 S
C153 O145 1.284 . S
C153 O154 1.273 . S
O154 C153 1.273 . S
O155 Zn146 1.946 1_556 S
O155 C148 1.267 . S
C156 C157 1.391 . S
C156 C158 1.394 . S
C156 H172 0.931 . S
C157 C156 1.391 . S
C157 C161 1.376 . S
C158 C156 1.394 . S
C158 C159 1.369 . S
C158 C162 1.531 . S
C159 C158 1.369 . S
C159 C160 1.410 . S
C159 C167 1.503 . S
C160 C159 1.410 . S
C160 C161 1.392 . S
C160 C163 1.511 . S
C161 C157 1.376 . S
C161 C160 1.392 . S
C161 H173 0.929 . S
C162 C158 1.531 . S
C162 H174 0.960 . S
C162 H175 0.962 . S
C162 H176 0.960 . S
C163 C160 1.511 . S
C163 H177 0.961 . S
C163 H178 0.961 . S
C163 H179 0.961 . S
C164 C165 1.370 . S
C164 C166 1.363 . S
C164 H180 0.931 . S
C165 C164 1.370 . S
C165 C169 1.408 . S
C166 C164 1.363 . S
C166 C167 1.370 . S
C166 C170 1.524 . S
C167 C159 1.503 . S
C167 C166 1.370 . S
C167 C168 1.403 . S
C168 C167 1.403 . S
C168 C169 1.404 . S
C168 C171 1.539 . S
C169 C165 1.408 . S
C169 C168 1.404 . S
C169 H181 0.930 . S
C170 C166 1.524 . S
C170 H182 0.956 . S
C170 H183 0.961 . S
C170 H184 0.961 . S
C171 C168 1.539 . S
C171 H185 0.958 . S
C171 H186 0.961 . S
C171 H187 0.960 . S
H172 C156 0.931 . S
H173 C161 0.929 . S
H174 C162 0.960 . S
H175 C162 0.962 . S
H176 C162 0.960 . S
H177 C163 0.961 . S
H178 C163 0.961 . S
H179 C163 0.961 . S
H180 C164 0.931 . S
H181 C169 0.930 . S
H182 C170 0.956 . S
H183 C170 0.961 . S
H184 C170 0.961 . S
H185 C171 0.958 . S
H186 C171 0.961 . S
H187 C171 0.960 . S
C188 C189 1.391 . S
C188 C190 1.394 . S
C188 H204 0.931 . S
C189 C188 1.391 . S
C189 C193 1.376 . S
C190 C188 1.394 . S
C190 C191 1.369 . S
C190 C194 1.531 . S
C191 C190 1.369 . S
C191 C192 1.410 . S
C191 C199 1.503 . S
C192 C191 1.410 . S
C192 C193 1.392 . S
C192 C195 1.511 . S
C193 C189 1.376 . S
C193 C192 1.392 . S
C193 H205 0.929 . S
C194 C190 1.531 . S
C194 H206 0.960 . S
C194 H207 0.962 . S
C194 H208 0.960 . S
C195 C192 1.511 . S
C195 H209 0.961 . S
C195 H210 0.961 . S
C195 H211 0.961 . S
C196 C197 1.370 . S
C196 C198 1.363 . S
C196 H212 0.931 . S
C197 C196 1.370 . S
C197 C201 1.408 . S
C198 C196 1.363 . S
C198 C199 1.370 . S
C198 C202 1.524 . S
C199 C191 1.503 . S
C199 C198 1.370 . S
C199 C200 1.403 . S
C200 C199 1.403 . S
C200 C201 1.404 . S
C200 C203 1.539 . S
C201 C197 1.408 . S
C201 C200 1.404 . S
C201 H213 0.930 . S
C202 C198 1.524 . S
C202 H214 0.956 . S
C202 H215 0.961 . S
C202 H216 0.961 . S
C203 C200 1.539 . S
C203 H217 0.958 . S
C203 H218 0.961 . S
C203 H219 0.960 . S
H204 C188 0.931 . S
H205 C193 0.929 . S
H206 C194 0.960 . S
H207 C194 0.962 . S
H208 C194 0.960 . S
H209 C195 0.961 . S
H210 C195 0.961 . S
H211 C195 0.961 . S
H212 C196 0.931 . S
H213 C201 0.930 . S
H214 C202 0.956 . S
H215 C202 0.961 . S
H216 C202 0.961 . S
H217 C203 0.958 . S
H218 C203 0.961 . S
H219 C203 0.960 . S
C220 C221 1.391 . S
C220 C222 1.394 . S
C220 H236 0.931 . S
C221 C220 1.391 . S
C221 C225 1.376 . S
C222 C220 1.394 . S
C222 C223 1.369 . S
C222 C226 1.531 . S
C223 C222 1.369 . S
C223 C224 1.410 . S
C223 C231 1.503 . S
C224 C223 1.410 . S
C224 C225 1.392 . S
C224 C227 1.512 . S
C225 C221 1.376 . S
C225 C224 1.392 . S
C225 H237 0.929 . S
C226 C222 1.531 . S
C226 H238 0.960 . S
C226 H239 0.956 1_556 S
C226 H240 0.960 . S
C227 C224 1.512 . S
C227 H241 0.958 1_556 S
C227 H242 0.959 1_556 S
C227 H243 0.965 . S
C228 C229 1.370 . S
C228 C230 1.363 . S
C228 H244 0.931 . S
C229 C228 1.370 . S
C229 C233 1.408 1_554 S
C230 C228 1.363 . S
C230 C231 1.370 1_554 S
C230 C234 1.524 . S
C231 C223 1.503 . S
C231 C230 1.370 1_556 S
C231 C232 1.403 . S
C232 C231 1.403 . S
C232 C233 1.404 . S
C232 C235 1.539 . S
C233 C229 1.408 1_556 S
C233 C232 1.404 . S
C233 H245 0.930 . S
C234 C230 1.524 . S
C234 H246 0.956 . S
C234 H247 0.961 . S
C234 H248 0.961 . S
C235 C232 1.539 . S
C235 H249 0.958 . S
C235 H250 0.961 . S
C235 H251 0.960 . S
H236 C220 0.931 . S
H237 C225 0.929 . S
H238 C226 0.960 . S
H239 C226 0.956 1_554 S
H240 C226 0.960 . S
H241 C227 0.958 1_554 S
H242 C227 0.959 1_554 S
H243 C227 0.965 . S
H244 C228 0.931 . S
H245 C233 0.930 . S
H246 C234 0.956 . S
H247 C234 0.961 . S
H248 C234 0.961 . S
H249 C235 0.958 . S
H250 C235 0.961 . S
H251 C235 0.960 . S
C252 C253 1.391 . S
C252 C254 1.394 . S
C252 H268 0.931 . S
C253 C252 1.391 . S
C253 C257 1.376 . S
C254 C252 1.394 . S
C254 C255 1.369 . S
C254 C258 1.531 . S
C255 C254 1.369 . S
C255 C256 1.410 . S
C255 C263 1.503 . S
C256 C255 1.410 . S
C256 C257 1.392 . S
C256 C259 1.511 . S
C257 C253 1.376 . S
C257 C256 1.392 . S
C257 H269 0.929 . S
C258 C254 1.531 . S
C258 H270 0.960 . S
C258 H271 0.962 . S
C258 H272 0.960 . S
C259 C256 1.511 . S
C259 H273 0.961 . S
C259 H274 0.961 . S
C259 H275 0.961 . S
C260 C261 1.370 . S
C260 C262 1.363 . S
C260 H276 0.931 . S
C261 C260 1.370 . S
C261 C265 1.408 . S
C262 C260 1.363 . S
C262 C263 1.370 . S
C262 C266 1.524 . S
C263 C255 1.503 . S
C263 C262 1.370 . S
C263 C264 1.403 . S
C264 C263 1.403 . S
C264 C265 1.404 . S
C264 C267 1.539 . S
C265 C261 1.408 . S
C265 C264 1.404 . S
C265 H277 0.930 . S
C266 C262 1.524 . S
C266 H278 0.956 . S
C266 H279 0.961 . S
C266 H280 0.961 . S
C267 C264 1.539 . S
C267 H281 0.958 . S
C267 H282 0.961 . S
C267 H283 0.960 . S
H268 C252 0.931 . S
H269 C257 0.929 . S
H270 C258 0.960 . S
H271 C258 0.962 . S
H272 C258 0.960 . S
H273 C259 0.961 . S
H274 C259 0.961 . S
H275 C259 0.961 . S
H276 C260 0.931 . S
H277 C265 0.930 . S
H278 C266 0.956 . S
H279 C266 0.961 . S
H280 C266 0.961 . S
H281 C267 0.958 . S
H282 C267 0.961 . S
H283 C267 0.960 . S
C284 C285 1.391 . S
C284 C286 1.394 . S
C284 H300 0.931 . S
C285 C284 1.391 . S
C285 C289 1.376 . S
C286 C284 1.394 . S
C286 C287 1.369 . S
C286 C290 1.531 . S
C287 C286 1.369 . S
C287 C288 1.410 . S
C287 C295 1.503 . S
C288 C287 1.410 . S
C288 C289 1.392 . S
C288 C291 1.511 . S
C289 C285 1.376 . S
C289 C288 1.392 . S
C289 H301 0.929 . S
C290 C286 1.531 . S
C290 H302 0.960 . S
C290 H303 0.962 . S
C290 H304 0.960 . S
C291 C288 1.511 . S
C291 H305 0.961 . S
C291 H306 0.961 . S
C291 H307 0.961 . S
C292 C293 1.370 . S
C292 C294 1.363 . S
C292 H308 0.931 . S
C293 C292 1.370 . S
C293 C297 1.408 . S
C294 C292 1.363 . S
C294 C295 1.370 . S
C294 C298 1.524 . S
C295 C287 1.503 . S
C295 C294 1.370 . S
C295 C296 1.403 . S
C296 C295 1.403 . S
C296 C297 1.404 . S
C296 C299 1.539 . S
C297 C293 1.408 . S
C297 C296 1.404 . S
C297 H309 0.930 . S
C298 C294 1.524 . S
C298 H310 0.956 . S
C298 H311 0.961 . S
C298 H312 0.961 . S
C299 C296 1.539 . S
C299 H313 0.958 . S
C299 H314 0.961 . S
C299 H315 0.960 . S
H300 C284 0.931 . S
H301 C289 0.929 . S
H302 C290 0.960 . S
H303 C290 0.962 . S
H304 C290 0.960 . S
H305 C291 0.961 . S
H306 C291 0.961 . S
H307 C291 0.961 . S
H308 C292 0.931 . S
H309 C297 0.930 . S
H310 C298 0.956 . S
H311 C298 0.961 . S
H312 C298 0.961 . S
H313 C299 0.958 . S
H314 C299 0.961 . S
H315 C299 0.960 . S
C316 C317 1.389 1_556 S
C316 C318 1.395 . S
C316 H332 0.931 . S
C317 C316 1.389 1_554 S
C317 C321 1.376 . S
C318 C316 1.395 . S
C318 C319 1.369 . S
C318 C322 1.531 . S
C319 C318 1.369 . S
C319 C320 1.410 . S
C319 C327 1.503 . S
C320 C319 1.410 . S
C320 C321 1.392 1_556 S
C320 C323 1.511 . S
C321 C317 1.376 . S
C321 C320 1.392 1_554 S
C321 H333 0.929 . S
C322 C318 1.531 . S
C322 H334 0.960 . S
C322 H335 0.962 1_556 S
C322 H336 0.960 . S
C323 C320 1.511 . S
C323 H337 0.961 1_556 S
C323 H338 0.961 1_556 S
C323 H339 0.961 . S
C324 C325 1.370 1_554 S
C324 C326 1.363 . S
C324 H340 0.931 . S
C325 C324 1.370 1_556 S
C325 C329 1.408 . S
C326 C324 1.363 . S
C326 C327 1.370 1_554 S
C326 C330 1.524 . S
C327 C319 1.503 . S
C327 C326 1.370 1_556 S
C327 C328 1.403 . S
C328 C327 1.403 . S
C328 C329 1.404 . S
C328 C331 1.539 . S
C329 C325 1.408 . S
C329 C328 1.404 . S
C329 H341 0.930 . S
C330 C326 1.524 . S
C330 H342 0.956 . S
C330 H343 0.961 . S
C330 H344 0.961 . S
C331 C328 1.539 . S
C331 H345 0.958 . S
C331 H346 0.961 . S
C331 H347 0.960 . S
H332 C316 0.931 . S
H333 C321 0.929 . S
H334 C322 0.960 . S
H335 C322 0.962 1_554 S
H336 C322 0.960 . S
H337 C323 0.961 1_554 S
H338 C323 0.961 1_554 S
H339 C323 0.961 . S
H340 C324 0.931 . S
H341 C329 0.930 . S
H342 C330 0.956 . S
H343 C330 0.961 . S
H344 C330 0.961 . S
H345 C331 0.958 . S
H346 C331 0.961 . S
H347 C331 0.960 . S
C348 C349 1.391 . S
C348 C350 1.394 . S
C348 H364 0.931 . S
C349 C348 1.391 . S
C349 C353 1.376 . S
C350 C348 1.394 . S
C350 C351 1.369 . S
C350 C354 1.531 . S
C351 C350 1.369 . S
C351 C352 1.410 . S
C351 C359 1.503 . S
C352 C351 1.410 . S
C352 C353 1.392 . S
C352 C355 1.511 . S
C353 C349 1.376 . S
C353 C352 1.392 . S
C353 H365 0.929 . S
C354 C350 1.531 . S
C354 H366 0.960 . S
C354 H367 0.962 . S
C354 H368 0.960 . S
C355 C352 1.511 . S
C355 H369 0.961 . S
C355 H370 0.961 . S
C355 H371 0.961 . S
C356 C357 1.370 . S
C356 C358 1.363 . S
C356 H372 0.931 . S
C357 C356 1.370 . S
C357 C361 1.408 . S
C358 C356 1.363 . S
C358 C359 1.370 . S
C358 C362 1.524 . S
C359 C351 1.503 . S
C359 C358 1.370 . S
C359 C360 1.403 . S
C360 C359 1.403 . S
C360 C361 1.404 . S
C360 C363 1.539 . S
C361 C357 1.408 . S
C361 C360 1.404 . S
C361 H373 0.930 . S
C362 C358 1.524 . S
C362 H374 0.956 . S
C362 H375 0.961 . S
C362 H376 0.961 . S
C363 C360 1.539 . S
C363 H377 0.958 . S
C363 H378 0.961 . S
C363 H379 0.960 . S
H364 C348 0.931 . S
H365 C353 0.929 . S
H366 C354 0.960 . S
H367 C354 0.962 . S
H368 C354 0.960 . S
H369 C355 0.961 . S
H370 C355 0.961 . S
H371 C355 0.961 . S
H372 C356 0.931 . S
H373 C361 0.930 . S
H374 C362 0.956 . S
H375 C362 0.961 . S
H376 C362 0.961 . S
H377 C363 0.958 . S
H378 C363 0.961 . S
H379 C363 0.960 . S
C380 C381 1.391 . S
C380 C382 1.394 . S
C380 H396 0.931 . S
C381 C380 1.391 . S
C381 C385 1.376 . S
C382 C380 1.394 . S
C382 C383 1.369 . S
C382 C386 1.531 . S
C383 C382 1.369 . S
C383 C384 1.410 . S
C383 C391 1.503 1_655 S
C384 C383 1.410 . S
C384 C385 1.392 . S
C384 C387 1.511 . S
C385 C381 1.376 . S
C385 C384 1.392 . S
C385 H397 0.929 . S
C386 C382 1.531 . S
C386 H398 0.960 1_655 S
C386 H399 0.962 . S
C386 H400 0.960 . S
C387 C384 1.511 . S
C387 H401 0.961 . S
C387 H402 0.961 1_655 S
C387 H403 0.961 . S
C388 C389 1.370 . S
C388 C390 1.363 . S
C388 H404 0.931 . S
C389 C388 1.370 . S
C389 C393 1.408 . S
C390 C388 1.363 . S
C390 C391 1.370 . S
C390 C394 1.524 . S
C391 C383 1.503 1_455 S
C391 C390 1.370 . S
C391 C392 1.403 . S
C392 C391 1.403 . S
C392 C393 1.404 . S
C392 C395 1.539 . S
C393 C389 1.408 . S
C393 C392 1.404 . S
C393 H405 0.930 . S
C394 C390 1.524 . S
C394 H406 0.956 1_455 S
C394 H407 0.961 1_455 S
C394 H408 0.961 . S
C395 C392 1.539 . S
C395 H409 0.958 . S
C395 H410 0.961 . S
C395 H411 0.960 . S
H396 C380 0.931 . S
H397 C385 0.929 . S
H398 C386 0.960 1_455 S
H399 C386 0.962 . S
H400 C386 0.960 . S
H401 C387 0.961 . S
H402 C387 0.961 1_455 S
H403 C387 0.961 . S
H404 C388 0.931 . S
H405 C393 0.930 . S
H406 C394 0.956 1_655 S
H407 C394 0.961 1_655 S
H408 C394 0.961 . S
H409 C395 0.958 . S
H410 C395 0.961 . S
H411 C395 0.960 . S
C412 C413 1.391 . S
C412 C414 1.394 . S
C412 H428 0.931 . S
C413 C412 1.391 . S
C413 C417 1.380 . S
C414 C412 1.394 . S
C414 C415 1.369 . S
C414 C418 1.531 . S
C415 C414 1.369 . S
C415 C416 1.410 1_554 S
C415 C423 1.503 1_545 S
C416 C415 1.410 1_556 S
C416 C417 1.392 1_556 S
C416 C419 1.511 . S
C417 C413 1.380 . S
C417 C416 1.392 1_554 S
C417 H429 0.925 1_554 S
C418 C414 1.531 . S
C418 H430 0.960 1_545 S
C418 H431 0.962 . S
C418 H432 0.960 . S
C419 C416 1.511 . S
C419 H433 0.961 . S
C419 H434 0.955 1_545 S
C419 H435 0.961 1_556 S
C420 C421 1.370 . S
C420 C422 1.363 . S
C420 H436 0.931 . S
C421 C420 1.370 . S
C421 C425 1.408 1_556 S
C422 C420 1.363 . S
C422 C423 1.370 1_556 S
C422 C426 1.524 . S
C423 C415 1.503 1_565 S
C423 C422 1.370 1_554 S
C423 C424 1.403 . S
C424 C423 1.403 . S
C424 C425 1.404 . S
C424 C427 1.539 . S
C425 C421 1.408 1_554 S
C425 C424 1.404 . S
C425 H437 0.930 . S
C426 C422 1.524 . S
C426 H438 0.956 1_565 S
C426 H439 0.961 1_565 S
C426 H440 0.961 . S
C427 C424 1.539 . S
C427 H441 0.958 . S
C427 H442 0.961 . S
C427 H443 0.960 . S
H428 C412 0.931 . S
H429 C417 0.925 1_556 S
H430 C418 0.960 1_565 S
H431 C418 0.962 . S
H432 C418 0.960 . S
H433 C419 0.961 . S
H434 C419 0.955 1_565 S
H435 C419 0.961 1_554 S
H436 C420 0.931 . S
H437 C425 0.930 . S
H438 C426 0.956 1_545 S
H439 C426 0.961 1_545 S
H440 C426 0.961 . S
H441 C427 0.958 . S
H442 C427 0.961 . S
H443 C427 0.960 . S
C444 C445 1.391 . S
C444 C446 1.394 . S
C444 H460 0.931 . S
C445 C444 1.391 . S
C445 C449 1.376 . S
C446 C444 1.394 . S
C446 C447 1.369 . S
C446 C450 1.531 . S
C447 C446 1.369 . S
C447 C448 1.410 . S
C447 C455 1.503 . S
C448 C447 1.410 . S
C448 C449 1.392 . S
C448 C451 1.511 . S
C449 C445 1.376 . S
C449 C448 1.392 . S
C449 H461 0.929 . S
C450 C446 1.531 . S
C450 H462 0.960 . S
C450 H463 0.962 . S
C450 H464 0.960 . S
C451 C448 1.511 . S
C451 H465 0.961 . S
C451 H466 0.961 . S
C451 H467 0.961 . S
C452 C453 1.370 . S
C452 C454 1.363 . S
C452 H468 0.931 . S
C453 C452 1.370 . S
C453 C457 1.408 . S
C454 C452 1.363 . S
C454 C455 1.370 . S
C454 C458 1.524 . S
C455 C447 1.503 . S
C455 C454 1.370 . S
C455 C456 1.403 . S
C456 C455 1.403 . S
C456 C457 1.404 . S
C456 C459 1.539 . S
C457 C453 1.408 . S
C457 C456 1.404 . S
C457 H469 0.930 . S
C458 C454 1.524 . S
C458 H470 0.956 . S
C458 H471 0.961 . S
C458 H472 0.961 . S
C459 C456 1.539 . S
C459 H473 0.958 . S
C459 H474 0.961 . S
C459 H475 0.960 . S
H460 C444 0.931 . S
H461 C449 0.929 . S
H462 C450 0.960 . S
H463 C450 0.962 . S
H464 C450 0.960 . S
H465 C451 0.961 . S
H466 C451 0.961 . S
H467 C451 0.961 . S
H468 C452 0.931 . S
H469 C457 0.930 . S
H470 C458 0.956 . S
H471 C458 0.961 . S
H472 C458 0.961 . S
H473 C459 0.958 . S
H474 C459 0.961 . S
H475 C459 0.960 . S
C476 C477 1.391 . S
C476 C478 1.394 . S
C476 H492 0.931 . S
C477 C476 1.391 . S
C477 C481 1.376 . S
C478 C476 1.394 . S
C478 C479 1.369 . S
C478 C482 1.531 . S
C479 C478 1.369 . S
C479 C480 1.410 . S
C479 C487 1.503 1_455 S
C480 C479 1.410 . S
C480 C481 1.392 . S
C480 C483 1.511 . S
C481 C477 1.376 . S
C481 C480 1.392 . S
C481 H493 0.929 . S
C482 C478 1.531 . S
C482 H494 0.961 . S
C482 H495 0.962 . S
C482 H496 0.960 . S
C483 C480 1.511 . S
C483 H497 0.961 . S
C483 H498 0.961 1_455 S
C483 H499 0.961 . S
C484 C485 1.370 . S
C484 C486 1.363 . S
C484 H500 0.931 . S
C485 C484 1.370 . S
C485 C489 1.408 . S
C486 C484 1.363 . S
C486 C487 1.370 . S
C486 C490 1.524 . S
C487 C479 1.503 1_655 S
C487 C486 1.370 . S
C487 C488 1.403 . S
C488 C487 1.403 . S
C488 C489 1.404 . S
C488 C491 1.539 . S
C489 C485 1.408 . S
C489 C488 1.404 . S
C489 H501 0.930 . S
C490 C486 1.524 . S
C490 H502 0.956 . S
C490 H503 0.961 . S
C490 H504 0.961 . S
C491 C488 1.539 . S
C491 H505 0.958 . S
C491 H506 0.961 . S
C491 H507 0.960 1_655 S
H492 C476 0.931 . S
H493 C481 0.929 . S
H494 C482 0.961 . S
H495 C482 0.962 . S
H496 C482 0.960 . S
H497 C483 0.961 . S
H498 C483 0.961 1_655 S
H499 C483 0.961 . S
H500 C484 0.931 . S
H501 C489 0.930 . S
H502 C490 0.956 . S
H503 C490 0.961 . S
H504 C490 0.961 . S
H505 C491 0.958 . S
H506 C491 0.961 . S
H507 C491 0.960 1_455 S
C508 C509 1.391 . S
C508 C510 1.394 . S
C508 H524 0.931 . S
C509 C508 1.391 . S
C509 C513 1.376 . S
C510 C508 1.394 . S
C510 C511 1.369 . S
C510 C514 1.531 . S
C511 C510 1.369 . S
C511 C512 1.410 . S
C511 C519 1.503 1_545 S
C512 C511 1.410 . S
C512 C513 1.392 . S
C512 C515 1.511 1_556 S
C513 C509 1.376 . S
C513 C512 1.392 . S
C513 H525 0.929 . S
C514 C510 1.531 . S
C514 H526 0.960 1_545 S
C514 H527 0.962 . S
C514 H528 0.960 . S
C515 C512 1.511 1_554 S
C515 H529 0.961 . S
C515 H530 0.961 1_545 S
C515 H531 0.961 1_554 S
C516 C517 1.370 . S
C516 C518 1.363 . S
C516 H532 0.931 . S
C517 C516 1.370 . S
C517 C521 1.408 1_554 S
C518 C516 1.363 . S
C518 C519 1.370 1_554 S
C518 C522 1.524 . S
C519 C511 1.503 1_565 S
C519 C518 1.370 1_556 S
C519 C520 1.403 . S
C520 C519 1.403 . S
C520 C521 1.404 . S
C520 C523 1.539 . S
C521 C517 1.408 1_556 S
C521 C520 1.404 . S
C521 H533 0.930 . S
C522 C518 1.524 . S
C522 H534 0.956 1_565 S
C522 H535 0.961 1_565 S
C522 H536 0.961 . S
C523 C520 1.539 . S
C523 H537 0.958 . S
C523 H538 0.961 . S
C523 H539 0.960 . S
H524 C508 0.931 . S
H525 C513 0.929 . S
H526 C514 0.960 1_565 S
H527 C514 0.962 . S
H528 C514 0.960 . S
H529 C515 0.961 . S
H530 C515 0.961 1_565 S
H531 C515 0.961 1_556 S
H532 C516 0.931 . S
H533 C521 0.930 . S
H534 C522 0.956 1_545 S
H535 C522 0.961 1_545 S
H536 C522 0.961 . S
H537 C523 0.958 . S
H538 C523 0.961 . S
H539 C523 0.960 . S
C540 C541 1.391 . S
C540 C542 1.394 . S
C540 H556 0.931 . S
C541 C540 1.391 . S
C541 C545 1.376 . S
C542 C540 1.394 . S
C542 C543 1.369 . S
C542 C546 1.531 . S
C543 C542 1.369 . S
C543 C544 1.410 1_655 S
C543 C551 1.503 1_655 S
C544 C543 1.410 1_455 S
C544 C545 1.392 1_455 S
C544 C547 1.511 . S
C545 C541 1.376 . S
C545 C544 1.392 1_655 S
C545 H557 0.929 . S
C546 C542 1.531 . S
C546 H558 0.960 . S
C546 H559 0.962 . S
C546 H560 0.960 . S
C547 C544 1.511 . S
C547 H561 0.961 . S
C547 H562 0.961 . S
C547 H563 0.961 . S
C548 C549 1.370 . S
C548 C550 1.363 . S
C548 H564 0.931 . S
C549 C548 1.370 . S
C549 C553 1.408 . S
C550 C548 1.363 . S
C550 C551 1.370 . S
C550 C554 1.524 . S
C551 C543 1.503 1_455 S
C551 C550 1.370 . S
C551 C552 1.403 . S
C552 C551 1.403 . S
C552 C553 1.404 . S
C552 C555 1.539 . S
C553 C549 1.408 . S
C553 C552 1.404 . S
C553 H565 0.930 . S
C554 C550 1.524 . S
C554 H566 0.956 1_455 S
C554 H567 0.961 . S
C554 H568 0.961 . S
C555 C552 1.539 . S
C555 H569 0.958 1_455 S
C555 H570 0.961 . S
C555 H571 0.960 . S
H556 C540 0.931 . S
H557 C545 0.929 . S
H558 C546 0.960 . S
H559 C546 0.962 . S
H560 C546 0.960 . S
H561 C547 0.961 . S
H562 C547 0.961 . S
H563 C547 0.961 . S
H564 C548 0.931 . S
H565 C553 0.930 . S
H566 C554 0.956 1_655 S
H567 C554 0.961 . S
H568 C554 0.961 . S
H569 C555 0.958 1_655 S
H570 C555 0.961 . S
H571 C555 0.960 . S
C572 C573 1.391 . S
C572 C574 1.394 . S
C572 H588 0.931 . S
C573 C572 1.391 . S
C573 C577 1.376 . S
C574 C572 1.394 . S
C574 C575 1.369 . S
C574 C578 1.531 1_545 S
C575 C574 1.369 . S
C575 C576 1.410 . S
C575 C583 1.503 1_545 S
C576 C575 1.410 . S
C576 C577 1.392 . S
C576 C579 1.511 . S
C577 C573 1.376 . S
C577 C576 1.392 . S
C577 H589 0.929 . S
C578 C574 1.531 1_565 S
C578 H590 0.960 . S
C578 H591 0.962 . S
C578 H592 0.960 . S
C579 C576 1.511 . S
C579 H593 0.961 . S
C579 H594 0.961 . S
C579 H595 0.961 . S
C580 C581 1.370 . S
C580 C582 1.359 1_565 S
C580 H596 0.931 . S
C581 C580 1.370 . S
C581 C585 1.408 . S
C582 C580 1.359 1_545 S
C582 C583 1.369 1_545 S
C582 C586 1.530 . S
C583 C575 1.503 1_565 S
C583 C582 1.369 1_565 S
C583 C584 1.403 . S
C584 C583 1.403 . S
C584 C585 1.404 . S
C584 C587 1.539 . S
C585 C581 1.408 . S
C585 C584 1.404 . S
C585 H597 0.930 . S
C586 C582 1.530 . S
C586 H598 0.956 . S
C586 H599 0.961 . S
C586 H600 0.961 . S
C587 C584 1.539 . S
C587 H601 0.958 . S
C587 H602 0.961 . S
C587 H603 0.960 . S
H588 C572 0.931 . S
H589 C577 0.929 . S
H590 C578 0.960 . S
H591 C578 0.962 . S
H592 C578 0.960 . S
H593 C579 0.961 . S
H594 C579 0.961 . S
H595 C579 0.961 . S
H596 C580 0.931 . S
H597 C585 0.930 . S
H598 C586 0.956 . S
H599 C586 0.961 . S
H600 C586 0.961 . S
H601 C587 0.958 . S
H602 C587 0.961 . S
H603 C587 0.960 . S
C604 C605 1.391 . S
C604 C606 1.394 . S
C604 H620 0.931 . S
C605 C604 1.391 . S
C605 C609 1.376 . S
C606 C604 1.394 . S
C606 C607 1.369 . S
C606 C610 1.531 . S
C607 C606 1.369 . S
C607 C608 1.410 . S
C607 C615 1.503 . S
C608 C607 1.410 . S
C608 C609 1.392 . S
C608 C611 1.511 . S
C609 C605 1.376 . S
C609 C608 1.392 . S
C609 H621 0.929 . S
C610 C606 1.531 . S
C610 H622 0.960 . S
C610 H623 0.962 . S
C610 H624 0.960 . S
C611 C608 1.511 . S
C611 H625 0.961 . S
C611 H626 0.961 . S
C611 H627 0.961 . S
C612 C613 1.370 . S
C612 C614 1.363 . S
C612 H628 0.931 . S
C613 C612 1.370 . S
C613 C617 1.408 . S
C614 C612 1.363 . S
C614 C615 1.370 . S
C614 C618 1.524 . S
C615 C607 1.503 . S
C615 C614 1.370 . S
C615 C616 1.403 . S
C616 C615 1.403 . S
C616 C617 1.404 . S
C616 C619 1.539 . S
C617 C613 1.408 . S
C617 C616 1.404 . S
C617 H629 0.930 . S
C618 C614 1.524 . S
C618 H630 0.956 . S
C618 H631 0.961 . S
C618 H632 0.961 . S
C619 C616 1.539 . S
C619 H633 0.958 . S
C619 H634 0.961 . S
C619 H635 0.960 . S
H620 C604 0.931 . S
H621 C609 0.929 . S
H622 C610 0.960 . S
H623 C610 0.962 . S
H624 C610 0.960 . S
H625 C611 0.961 . S
H626 C611 0.961 . S
H627 C611 0.961 . S
H628 C612 0.931 . S
H629 C617 0.930 . S
H630 C618 0.956 . S
H631 C618 0.961 . S
H632 C618 0.961 . S
H633 C619 0.958 . S
H634 C619 0.961 . S
H635 C619 0.960 . S
C636 C637 1.391 . S
C636 C638 1.394 1_455 S
C636 H652 0.931 . S
C637 C636 1.391 . S
C637 C641 1.376 . S
C638 C636 1.394 1_655 S
C638 C639 1.369 1_655 S
C638 C642 1.531 . S
C639 C638 1.369 1_455 S
C639 C640 1.410 . S
C639 C647 1.503 1_455 S
C640 C639 1.410 . S
C640 C641 1.392 . S
C640 C643 1.511 . S
C641 C637 1.376 . S
C641 C640 1.392 . S
C641 H653 0.929 . S
C642 C638 1.531 . S
C642 H654 0.960 . S
C642 H655 0.962 . S
C642 H656 0.960 . S
C643 C640 1.511 . S
C643 H657 0.961 . S
C643 H658 0.961 . S
C643 H659 0.961 . S
C644 C645 1.370 . S
C644 C646 1.363 . S
C644 H660 0.931 . S
C645 C644 1.370 . S
C645 C649 1.408 . S
C646 C644 1.363 . S
C646 C647 1.370 . S
C646 C650 1.524 . S
C647 C639 1.503 1_655 S
C647 C646 1.370 . S
C647 C648 1.403 . S
C648 C647 1.403 . S
C648 C649 1.404 . S
C648 C651 1.539 . S
C649 C645 1.408 . S
C649 C648 1.404 . S
C649 H661 0.930 . S
C650 C646 1.524 . S
C650 H662 0.956 . S
C650 H663 0.961 1_655 S
C650 H664 0.961 . S
C651 C648 1.539 . S
C651 H665 0.958 . S
C651 H666 0.961 . S
C651 H667 0.960 1_655 S
H652 C636 0.931 . S
H653 C641 0.929 . S
H654 C642 0.960 . S
H655 C642 0.962 . S
H656 C642 0.960 . S
H657 C643 0.961 . S
H658 C643 0.961 . S
H659 C643 0.961 . S
H660 C644 0.931 . S
H661 C649 0.930 . S
H662 C650 0.956 . S
H663 C650 0.961 1_455 S
H664 C650 0.961 . S
H665 C651 0.958 . S
H666 C651 0.961 . S
H667 C651 0.960 1_455 S
C668 C669 1.391 . S
C668 C670 1.394 . S
C668 H684 0.931 . S
C669 C668 1.391 . S
C669 C673 1.376 . S
C670 C668 1.394 . S
C670 C671 1.369 . S
C670 C674 1.531 . S
C671 C670 1.369 . S
C671 C672 1.410 . S
C671 C679 1.503 1_545 S
C672 C671 1.410 . S
C672 C673 1.392 . S
C672 C675 1.511 1_545 S
C673 C669 1.376 . S
C673 C672 1.392 . S
C673 H685 0.929 . S
C674 C670 1.531 . S
C674 H686 0.960 . S
C674 H687 0.962 . S
C674 H688 0.960 . S
C675 C672 1.511 1_565 S
C675 H689 0.961 . S
C675 H690 0.961 . S
C675 H691 0.961 . S
C676 C677 1.370 . S
C676 C678 1.363 . S
C676 H692 0.931 . S
C677 C676 1.370 . S
C677 C681 1.408 . S
C678 C676 1.363 . S
C678 C679 1.370 . S
C678 C682 1.524 . S
C679 C671 1.503 1_565 S
C679 C678 1.370 . S
C679 C680 1.403 1_565 S
C680 C679 1.403 1_545 S
C680 C681 1.404 1_545 S
C680 C683 1.539 . S
C681 C677 1.408 . S
C681 C680 1.404 1_565 S
C681 H693 0.930 . S
C682 C678 1.524 . S
C682 H694 0.956 . S
C682 H695 0.961 . S
C682 H696 0.961 . S
C683 C680 1.539 . S
C683 H697 0.958 . S
C683 H698 0.961 . S
C683 H699 0.960 . S
H684 C668 0.931 . S
H685 C673 0.929 . S
H686 C674 0.960 . S
H687 C674 0.962 . S
H688 C674 0.960 . S
H689 C675 0.961 . S
H690 C675 0.961 . S
H691 C675 0.961 . S
H692 C676 0.931 . S
H693 C681 0.930 . S
H694 C682 0.956 . S
H695 C682 0.961 . S
H696 C682 0.961 . S
H697 C683 0.958 . S
H698 C683 0.961 . S
H699 C683 0.960 . S
C700 C701 1.391 . S
C700 C702 1.394 . S
C700 H716 0.931 . S
C701 C700 1.391 . S
C701 C705 1.376 . S
C702 C700 1.394 . S
C702 C703 1.369 . S
C702 C706 1.531 . S
C703 C702 1.369 . S
C703 C704 1.410 . S
C703 C711 1.503 . S
C704 C703 1.410 . S
C704 C705 1.392 . S
C704 C707 1.511 . S
C705 C701 1.376 . S
C705 C704 1.392 . S
C705 H717 0.929 . S
C706 C702 1.531 . S
C706 H718 0.960 . S
C706 H719 0.962 . S
C706 H720 0.960 . S
C707 C704 1.511 . S
C707 H721 0.961 . S
C707 H722 0.961 . S
C707 H723 0.961 . S
C708 C709 1.370 . S
C708 C710 1.363 . S
C708 H724 0.931 . S
C709 C708 1.370 . S
C709 C713 1.408 . S
C710 C708 1.363 . S
C710 C711 1.370 . S
C710 C714 1.524 . S
C711 C703 1.503 . S
C711 C710 1.370 . S
C711 C712 1.403 . S
C712 C711 1.403 . S
C712 C713 1.404 . S
C712 C715 1.539 . S
C713 C709 1.408 . S
C713 C712 1.404 . S
C713 H725 0.930 . S
C714 C710 1.524 . S
C714 H726 0.956 . S
C714 H727 0.961 . S
C714 H728 0.961 . S
C715 C712 1.539 . S
C715 H729 0.958 . S
C715 H730 0.961 . S
C715 H731 0.960 . S
H716 C700 0.931 . S
H717 C705 0.929 . S
H718 C706 0.960 . S
H719 C706 0.962 . S
H720 C706 0.960 . S
H721 C707 0.961 . S
H722 C707 0.961 . S
H723 C707 0.961 . S
H724 C708 0.931 . S
H725 C713 0.930 . S
H726 C714 0.956 . S
H727 C714 0.961 . S
H728 C714 0.961 . S
H729 C715 0.958 . S
H730 C715 0.961 . S
H731 C715 0.960 . S
C732 C733 1.391 . S
C732 C734 1.394 . S
C732 H748 0.931 . S
C733 C732 1.391 . S
C733 C737 1.376 . S
C734 C732 1.394 . S
C734 C735 1.369 . S
C734 C738 1.531 . S
C735 C734 1.369 . S
C735 C736 1.410 . S
C735 C743 1.503 . S
C736 C735 1.410 . S
C736 C737 1.392 . S
C736 C739 1.511 . S
C737 C733 1.376 . S
C737 C736 1.392 . S
C737 H749 0.929 . S
C738 C734 1.531 . S
C738 H750 0.960 . S
C738 H751 0.962 . S
C738 H752 0.960 . S
C739 C736 1.511 . S
C739 H753 0.961 . S
C739 H754 0.961 . S
C739 H755 0.961 . S
C740 C741 1.370 . S
C740 C742 1.363 . S
C740 H756 0.931 . S
C741 C740 1.370 . S
C741 C745 1.408 . S
C742 C740 1.363 . S
C742 C743 1.370 . S
C742 C746 1.524 . S
C743 C735 1.503 . S
C743 C742 1.370 . S
C743 C744 1.403 . S
C744 C743 1.403 . S
C744 C745 1.404 . S
C744 C747 1.539 . S
C745 C741 1.408 . S
C745 C744 1.404 . S
C745 H757 0.930 . S
C746 C742 1.524 . S
C746 H758 0.956 . S
C746 H759 0.961 . S
C746 H760 0.961 . S
C747 C744 1.539 . S
C747 H761 0.958 . S
C747 H762 0.961 . S
C747 H763 0.960 . S
H748 C732 0.931 . S
H749 C737 0.929 . S
H750 C738 0.960 . S
H751 C738 0.962 . S
H752 C738 0.960 . S
H753 C739 0.961 . S
H754 C739 0.961 . S
H755 C739 0.961 . S
H756 C740 0.931 . S
H757 C745 0.930 . S
H758 C746 0.956 . S
H759 C746 0.961 . S
H760 C746 0.961 . S
H761 C747 0.958 . S
H762 C747 0.961 . S
H763 C747 0.960 . S
C764 C765 1.391 . S
C764 C766 1.394 . S
C764 H780 0.931 . S
C765 C764 1.391 . S
C765 C769 1.376 . S
C766 C764 1.394 . S
C766 C767 1.369 . S
C766 C770 1.531 . S
C767 C766 1.369 . S
C767 C768 1.410 . S
C767 C775 1.503 . S
C768 C767 1.410 . S
C768 C769 1.392 . S
C768 C771 1.511 . S
C769 C765 1.376 . S
C769 C768 1.392 . S
C769 H781 0.929 . S
C770 C766 1.531 . S
C770 H782 0.960 . S
C770 H783 0.962 . S
C770 H784 0.960 . S
C771 C768 1.511 . S
C771 H785 0.961 . S
C771 H786 0.961 . S
C771 H787 0.961 . S
C772 C773 1.370 . S
C772 C774 1.363 . S
C772 H788 0.931 . S
C773 C772 1.370 . S
C773 C777 1.408 . S
C774 C772 1.363 . S
C774 C775 1.370 . S
C774 C778 1.524 . S
C775 C767 1.503 . S
C775 C774 1.370 . S
C775 C776 1.403 . S
C776 C775 1.403 . S
C776 C777 1.404 . S
C776 C779 1.539 . S
C777 C773 1.408 . S
C777 C776 1.404 . S
C777 H789 0.930 . S
C778 C774 1.524 . S
C778 H790 0.956 . S
C778 H791 0.961 . S
C778 H792 0.961 . S
C779 C776 1.539 . S
C779 H793 0.958 . S
C779 H794 0.961 . S
C779 H795 0.960 . S
H780 C764 0.931 . S
H781 C769 0.929 . S
H782 C770 0.960 . S
H783 C770 0.962 . S
H784 C770 0.960 . S
H785 C771 0.961 . S
H786 C771 0.961 . S
H787 C771 0.961 . S
H788 C772 0.931 . S
H789 C777 0.930 . S
H790 C778 0.956 . S
H791 C778 0.961 . S
H792 C778 0.961 . S
H793 C779 0.958 . S
H794 C779 0.961 . S
H795 C779 0.960 . S
C796 C797 1.391 . S
C796 C798 1.394 . S
C796 H812 0.931 . S
C797 C796 1.391 . S
C797 C801 1.376 . S
C798 C796 1.394 . S
C798 C799 1.369 . S
C798 C802 1.531 . S
C799 C798 1.369 . S
C799 C800 1.410 . S
C799 C807 1.503 . S
C800 C799 1.410 . S
C800 C801 1.392 . S
C800 C803 1.511 . S
C801 C797 1.376 . S
C801 C800 1.392 . S
C801 H813 0.929 . S
C802 C798 1.531 . S
C802 H814 0.960 . S
C802 H815 0.962 . S
C802 H816 0.960 . S
C803 C800 1.511 . S
C803 H817 0.961 . S
C803 H818 0.961 . S
C803 H819 0.961 . S
C804 C805 1.370 . S
C804 C806 1.363 . S
C804 H820 0.931 . S
C805 C804 1.370 . S
C805 C809 1.408 . S
C806 C804 1.363 . S
C806 C807 1.370 . S
C806 C810 1.524 . S
C807 C799 1.503 . S
C807 C806 1.370 . S
C807 C808 1.403 . S
C808 C807 1.403 . S
C808 C809 1.404 . S
C808 C811 1.539 . S
C809 C805 1.408 . S
C809 C808 1.404 . S
C809 H821 0.930 . S
C810 C806 1.524 . S
C810 H822 0.956 . S
C810 H823 0.961 . S
C810 H824 0.961 . S
C811 C808 1.539 . S
C811 H825 0.958 . S
C811 H826 0.961 . S
C811 H827 0.960 . S
H812 C796 0.931 . S
H813 C801 0.929 . S
H814 C802 0.960 . S
H815 C802 0.962 . S
H816 C802 0.960 . S
H817 C803 0.961 . S
H818 C803 0.961 . S
H819 C803 0.961 . S
H820 C804 0.931 . S
H821 C809 0.930 . S
H822 C810 0.956 . S
H823 C810 0.961 . S
H824 C810 0.961 . S
H825 C811 0.958 . S
H826 C811 0.961 . S
H827 C811 0.960 . S
C828 C829 1.391 . S
C828 C830 1.394 . S
C828 H844 0.931 . S
C829 C828 1.391 . S
C829 C833 1.376 . S
C830 C828 1.394 . S
C830 C831 1.369 . S
C830 C834 1.531 . S
C831 C830 1.369 . S
C831 C832 1.410 . S
C831 C839 1.503 . S
C832 C831 1.410 . S
C832 C833 1.392 . S
C832 C835 1.511 . S
C833 C829 1.376 . S
C833 C832 1.392 . S
C833 H845 0.929 . S
C834 C830 1.531 . S
C834 H846 0.960 . S
C834 H847 0.962 . S
C834 H848 0.960 . S
C835 C832 1.511 . S
C835 H849 0.961 . S
C835 H850 0.961 . S
C835 H851 0.961 . S
C836 C837 1.370 . S
C836 C838 1.363 . S
C836 H852 0.931 . S
C837 C836 1.370 . S
C837 C841 1.408 . S
C838 C836 1.363 . S
C838 C839 1.370 . S
C838 C842 1.524 . S
C839 C831 1.503 . S
C839 C838 1.370 . S
C839 C840 1.403 . S
C840 C839 1.403 . S
C840 C841 1.404 . S
C840 C843 1.539 . S
C841 C837 1.408 . S
C841 C840 1.404 . S
C841 H853 0.930 . S
C842 C838 1.524 . S
C842 H854 0.956 . S
C842 H855 0.961 . S
C842 H856 0.961 . S
C843 C840 1.539 . S
C843 H857 0.958 . S
C843 H858 0.961 . S
C843 H859 0.960 . S
H844 C828 0.931 . S
H845 C833 0.929 . S
H846 C834 0.960 . S
H847 C834 0.962 . S
H848 C834 0.960 . S
H849 C835 0.961 . S
H850 C835 0.961 . S
H851 C835 0.961 . S
H852 C836 0.931 . S
H853 C841 0.930 . S
H854 C842 0.956 . S
H855 C842 0.961 . S
H856 C842 0.961 . S
H857 C843 0.958 . S
H858 C843 0.961 . S
H859 C843 0.960 . S
C860 C861 1.391 . S
C860 C862 1.394 . S
C860 H876 0.931 . S
C861 C860 1.391 . S
C861 C865 1.376 . S
C862 C860 1.394 . S
C862 C863 1.369 . S
C862 C866 1.531 . S
C863 C862 1.369 . S
C863 C864 1.410 . S
C863 C871 1.503 . S
C864 C863 1.410 . S
C864 C865 1.392 . S
C864 C867 1.511 . S
C865 C861 1.376 . S
C865 C864 1.392 . S
C865 H877 0.929 . S
C866 C862 1.531 . S
C866 H878 0.960 . S
C866 H879 0.962 . S
C866 H880 0.960 . S
C867 C864 1.511 . S
C867 H881 0.961 . S
C867 H882 0.961 . S
C867 H883 0.961 . S
C868 C869 1.370 . S
C868 C870 1.363 . S
C868 H884 0.931 . S
C869 C868 1.370 . S
C869 C873 1.408 . S
C870 C868 1.363 . S
C870 C871 1.370 . S
C870 C874 1.524 . S
C871 C863 1.503 . S
C871 C870 1.370 . S
C871 C872 1.403 . S
C872 C871 1.403 . S
C872 C873 1.404 . S
C872 C875 1.539 . S
C873 C869 1.408 . S
C873 C872 1.404 . S
C873 H885 0.930 . S
C874 C870 1.524 . S
C874 H886 0.956 . S
C874 H887 0.961 . S
C874 H888 0.961 . S
C875 C872 1.539 . S
C875 H889 0.958 . S
C875 H890 0.961 . S
C875 H891 0.960 . S
H876 C860 0.931 . S
H877 C865 0.929 . S
H878 C866 0.960 . S
H879 C866 0.962 . S
H880 C866 0.960 . S
H881 C867 0.961 . S
H882 C867 0.961 . S
H883 C867 0.961 . S
H884 C868 0.931 . S
H885 C873 0.930 . S
H886 C874 0.956 . S
H887 C874 0.961 . S
H888 C874 0.961 . S
H889 C875 0.958 . S
H890 C875 0.961 . S
H891 C875 0.960 . S
C892 C893 1.391 . S
C892 C894 1.394 . S
C892 H908 0.931 . S
C893 C892 1.391 . S
C893 C897 1.376 . S
C894 C892 1.394 . S
C894 C895 1.369 . S
C894 C898 1.531 . S
C895 C894 1.369 . S
C895 C896 1.410 . S
C895 C903 1.503 . S
C896 C895 1.410 . S
C896 C897 1.392 . S
C896 C899 1.511 . S
C897 C893 1.376 . S
C897 C896 1.392 . S
C897 H909 0.929 . S
C898 C894 1.531 . S
C898 H910 0.960 . S
C898 H911 0.962 . S
C898 H912 0.960 . S
C899 C896 1.511 . S
C899 H913 0.961 . S
C899 H914 0.961 . S
C899 H915 0.961 . S
C900 C901 1.370 . S
C900 C902 1.363 . S
C900 H916 0.931 . S
C901 C900 1.370 . S
C901 C905 1.408 . S
C902 C900 1.363 . S
C902 C903 1.370 . S
C902 C906 1.524 . S
C903 C895 1.503 . S
C903 C902 1.370 . S
C903 C904 1.403 . S
C904 C903 1.403 . S
C904 C905 1.404 . S
C904 C907 1.539 . S
C905 C901 1.408 . S
C905 C904 1.404 . S
C905 H917 0.930 . S
C906 C902 1.524 . S
C906 H918 0.956 . S
C906 H919 0.961 . S
C906 H920 0.961 . S
C907 C904 1.539 . S
C907 H921 0.958 . S
C907 H922 0.961 . S
C907 H923 0.960 . S
H908 C892 0.931 . S
H909 C897 0.929 . S
H910 C898 0.960 . S
H911 C898 0.962 . S
H912 C898 0.960 . S
H913 C899 0.961 . S
H914 C899 0.961 . S
H915 C899 0.961 . S
H916 C900 0.931 . S
H917 C905 0.930 . S
H918 C906 0.956 . S
H919 C906 0.961 . S
H920 C906 0.961 . S
H921 C907 0.958 . S
H922 C907 0.961 . S
H923 C907 0.960 . S
C157 C10 1.304 . S
C165 C88 1.331 . S
C189 C23 1.306 . S
C197 C101 1.325 . S
C221 C36 1.336 . S
C229 C114 1.322 . S
C253 C127 1.348 . S
C261 C49 1.337 . S
C285 C62 1.356 . S
C293 C140 1.341 . S
C317 C153 1.304 . S
C325 C75 1.323 . S
C349 C8 0.853 . S
C357 C125 0.781 . S
C381 C21 0.860 . S
C389 C138 0.776 . S
C413 C151 0.844 . S
C421 C34 0.760 . S
C445 C86 0.834 . S
C453 C47 0.778 . S
C477 C60 0.743 . S
C485 C99 0.825 . S
C509 C73 0.850 . S
C517 C112 0.759 . S
C541 C143 1.802 . S
C549 C0 1.793 . S
C573 C13 1.839 . S
C581 C78 1.819 . S
C605 C26 1.778 . S
C613 C91 1.790 . S
C637 C104 1.781 . S
C645 C39 1.789 . S
C669 C117 1.814 . S
C677 C52 1.838 . S
C701 C65 1.787 . S
C709 C130 1.786 . S
C733 C5 0.738 . S
C741 C135 0.746 . S
C765 C148 0.834 . S
C773 C18 0.695 . S
C797 C83 0.658 . S
C805 C31 0.778 . S
C829 C44 0.737 . S
C837 C96 0.678 . S
C861 C109 0.632 . S
C869 C57 0.747 . S
C893 C122 0.668 . S
C901 C70 0.726 . S
