# Generated by pormake.
# Topology una, (4)-cn, num edge types: 1
# Building blocks:
#     Node 0, Type 0, BuildingBlock: ICAMEG_clean_sbu_1, # of connection points: 4
#     Node 1, Type 0, BuildingBlock: ICAMEG_clean_sbu_1, # of connection points: 4
#     Node 2, Type 0, BuildingBlock: ICAMEG_clean_sbu_1, # of connection points: 4
#     Node 3, Type 0, BuildingBlock: ICAMEG_clean_sbu_1, # of connection points: 4
#     Node 4, Type 0, BuildingBlock: ICAMEG_clean_sbu_1, # of connection points: 4
#     Node 5, Type 0, BuildingBlock: ICAMEG_clean_sbu_1, # of connection points: 4
#     Node 6, Type 0, BuildingBlock: ICAMEG_clean_sbu_1, # of connection points: 4
#     Node 7, Type 0, BuildingBlock: ICAMEG_clean_sbu_1, # of connection points: 4
#     Node 8, Type 0, BuildingBlock: ICAMEG_clean_sbu_1, # of connection points: 4
#     Node 9, Type 0, BuildingBlock: ICAMEG_clean_sbu_1, # of connection points: 4
#     Node 10, Type 0, BuildingBlock: ICAMEG_clean_sbu_1, # of connection points: 4
#     Node 11, Type 0, BuildingBlock: ICAMEG_clean_sbu_1, # of connection points: 4
#     Edge 12, Type (0, 0), BuildingBlock: XUDNAN_clean_linker_2, # of connection points: 2
#     Edge 13, Type (0, 0), BuildingBlock: XUDNAN_clean_linker_2, # of connection points: 2
#     Edge 14, Type (0, 0), BuildingBlock: XUDNAN_clean_linker_2, # of connection points: 2
#     Edge 15, Type (0, 0), BuildingBlock: XUDNAN_clean_linker_2, # of connection points: 2
#     Edge 16, Type (0, 0), BuildingBlock: XUDNAN_clean_linker_2, # of connection points: 2
#     Edge 17, Type (0, 0), BuildingBlock: XUDNAN_clean_linker_2, # of connection points: 2
#     Edge 18, Type (0, 0), BuildingBlock: XUDNAN_clean_linker_2, # of connection points: 2
#     Edge 19, Type (0, 0), BuildingBlock: XUDNAN_clean_linker_2, # of connection points: 2
#     Edge 20, Type (0, 0), BuildingBlock: XUDNAN_clean_linker_2, # of connection points: 2
#     Edge 21, Type (0, 0), BuildingBlock: XUDNAN_clean_linker_2, # of connection points: 2
#     Edge 22, Type (0, 0), BuildingBlock: XUDNAN_clean_linker_2, # of connection points: 2
#     Edge 23, Type (0, 0), BuildingBlock: XUDNAN_clean_linker_2, # of connection points: 2
#     Edge 24, Type (0, 0), BuildingBlock: XUDNAN_clean_linker_2, # of connection points: 2
#     Edge 25, Type (0, 0), BuildingBlock: XUDNAN_clean_linker_2, # of connection points: 2
#     Edge 26, Type (0, 0), BuildingBlock: XUDNAN_clean_linker_2, # of connection points: 2
#     Edge 27, Type (0, 0), BuildingBlock: XUDNAN_clean_linker_2, # of connection points: 2
#     Edge 28, Type (0, 0), BuildingBlock: XUDNAN_clean_linker_2, # of connection points: 2
#     Edge 29, Type (0, 0), BuildingBlock: XUDNAN_clean_linker_2, # of connection points: 2
#     Edge 30, Type (0, 0), BuildingBlock: XUDNAN_clean_linker_2, # of connection points: 2
#     Edge 31, Type (0, 0), BuildingBlock: XUDNAN_clean_linker_2, # of connection points: 2
#     Edge 32, Type (0, 0), BuildingBlock: XUDNAN_clean_linker_2, # of connection points: 2
#     Edge 33, Type (0, 0), BuildingBlock: XUDNAN_clean_linker_2, # of connection points: 2
#     Edge 34, Type (0, 0), BuildingBlock: XUDNAN_clean_linker_2, # of connection points: 2
#     Edge 35, Type (0, 0), BuildingBlock: XUDNAN_clean_linker_2, # of connection points: 2
# Relax obj value: 0.054
# Max RMSD: 0.083
# Mean RMSD: 0.083
data_MOF--net-una--node1-ICAMEG_clean_sbu_1--edge1-XUDNAN_clean_linker_2
_symmetry_space_group_name_H-M    P1
_symmetry_Int_Tables_number       1
_symmetry_cell_setting            triclinic
loop_
_symmetry_equiv_pos_as_xyz
'x, y, z'
_cell_length_a     62.880159
_cell_length_b     62.959253
_cell_length_c     21.870507
_cell_angle_alpha  90.064597
_cell_angle_beta   90.093707
_cell_angle_gamma 119.91606
loop_
_atom_site_label
_atom_site_type_symbol
_atom_site_fract_x
_atom_site_fract_y
_atom_site_fract_z
_atom_type_partial_charge
Co0 Co 0.17251 0.47471 0.01851 0.0
Co1 Co 0.13571 0.41535 0.06994 0.0
O2 O 0.14054 0.44764 0.04439 0.0
C3 C 0.1507 0.50093 0.09168 0.0
O4 O 0.13014 0.48096 0.10543 0.0
C5 C 0.09652 0.40395 0.97681 0.0
O6 O 0.11213 0.42332 0.94587 0.0
O7 O 0.15213 0.41236 0.99447 0.0
O8 O 0.18002 0.45143 0.97604 0.0
H9 H 0.16166 0.35297 0.10974 0.0
H10 H 0.12673 0.47587 0.98888 0.0
O11 O 0.16714 0.50001 0.05983 0.0
H12 H 0.16688 0.48305 0.79075 0.0
H13 H 0.23165 0.55897 0.93813 0.0
H14 H 0.22254 0.48128 0.01509 0.0
H15 H 0.18577 0.47975 0.88622 0.0
H16 H 0.1911 0.52529 0.96933 0.0
O17 O 0.10313 0.39817 0.02627 0.0
H18 H 0.16753 0.39312 0.07789 0.0
H19 H 0.09271 0.36931 0.1157 0.0
H20 H 0.26335 0.51436 0.98345 0.0
H21 H 0.10746 0.47968 0.89479 0.0
H22 H 0.2681 0.55356 0.94469 0.0
H23 H 0.12747 0.48319 0.79458 0.0
O24 O 0.18772 0.47165 0.09513 0.0
H25 H 0.07612 0.43124 0.18609 0.0
H26 H 0.14039 0.40845 0.20341 0.0
H27 H 0.12053 0.41214 0.29672 0.0
H28 H 0.08809 0.42354 0.28842 0.0
H29 H 0.09664 0.4276 0.09396 0.0
H30 H 0.08598 0.32882 0.14732 0.0
H31 H 0.12064 0.32048 0.14471 0.0
O32 O 0.16788 0.43136 0.11563 0.0
C33 C 0.17086 0.42863 0.96601 0.0
C34 C 0.14643 0.3564 0.11122 0.0
C35 C 0.10395 0.34284 0.13224 0.0
N36 N 0.13053 0.3836 0.09531 0.0
C37 C 0.14966 0.37912 0.09341 0.0
C38 C 0.10786 0.36578 0.11412 0.0
C39 C 0.1234 0.33818 0.13079 0.0
C40 C 0.13587 0.47789 0.9459 0.0
N41 N 0.15756 0.47785 0.94355 0.0
C42 C 0.12472 0.47982 0.89252 0.0
C43 C 0.13591 0.4817 0.83631 0.0
C44 C 0.15799 0.48159 0.83413 0.0
C45 C 0.16857 0.47959 0.88844 0.0
C46 C 0.2298 0.54196 0.95483 0.0
C47 C 0.22442 0.49822 0.99789 0.0
C48 C 0.2069 0.52284 0.97276 0.0
N49 N 0.2044 0.50123 0.99356 0.0
C50 C 0.24759 0.51691 0.98021 0.0
C51 C 0.25025 0.53891 0.95851 0.0
C52 C 0.18513 0.45326 0.12567 0.0
C53 C 0.0902 0.42622 0.1903 0.0
C54 C 0.12641 0.41358 0.19937 0.0
C55 C 0.11516 0.41555 0.2524 0.0
C56 C 0.09695 0.42193 0.24771 0.0
N57 N 0.11967 0.41779 0.14321 0.0
C58 C 0.10183 0.42405 0.13827 0.0
Co59 Co 0.7025 0.1708 0.20756 0.0
Co60 Co 0.71435 0.12323 0.22563 0.0
O61 O 0.69171 0.13579 0.21414 0.0
C62 C 0.66032 0.15016 0.29461 0.0
O63 O 0.66724 0.13509 0.3159 0.0
C64 C 0.6975 0.08481 0.1281 0.0
O65 O 0.72003 0.09565 0.10691 0.0
O66 O 0.73347 0.14168 0.1525 0.0
O67 O 0.73165 0.17646 0.15761 0.0
H68 H 0.79721 0.12972 0.23639 0.0
H69 H 0.653 0.13182 0.16854 0.0
O70 O 0.67311 0.16605 0.25459 0.0
H71 H 0.68724 0.18616 0.98995 0.0
H72 H 0.69076 0.24392 0.18269 0.0
H73 H 0.75067 0.21627 0.21708 0.0
H74 H 0.71069 0.19545 0.08613 0.0
H75 H 0.6772 0.19986 0.18753 0.0
O76 O 0.6921 0.09417 0.1731 0.0
H77 H 0.76838 0.14522 0.22342 0.0
H78 H 0.70794 0.07368 0.25121 0.0
H79 H 0.76505 0.26053 0.21179 0.0
H80 H 0.62864 0.12205 0.07373 0.0
H81 H 0.73499 0.27461 0.1945 0.0
H82 H 0.64579 0.14923 0.98338 0.0
O83 O 0.72189 0.17784 0.28494 0.0
H84 H 0.63746 0.06676 0.341 0.0
H85 H 0.72739 0.11874 0.35458 0.0
H86 H 0.70402 0.09654 0.44591 0.0
H87 H 0.65873 0.0702 0.43942 0.0
H88 H 0.66146 0.08974 0.25112 0.0
H89 H 0.73611 0.0574 0.2644 0.0
H90 H 0.7811 0.08551 0.25702 0.0
O91 O 0.73643 0.15179 0.27894 0.0
C92 C 0.74034 0.16354 0.13545 0.0
C93 C 0.77765 0.11729 0.23969 0.0
C94 C 0.74335 0.0767 0.2554 0.0
N95 N 0.73651 0.11039 0.23643 0.0
C96 C 0.76123 0.12596 0.23236 0.0
C97 C 0.72749 0.08603 0.24785 0.0
C98 C 0.7686 0.09248 0.25126 0.0
C99 C 0.66065 0.14374 0.12947 0.0
N100 N 0.68354 0.16395 0.13255 0.0
C101 C 0.64673 0.13811 0.07588 0.0
C102 C 0.65637 0.15336 0.0252 0.0
C103 C 0.67963 0.17404 0.02881 0.0
C104 C 0.69298 0.17909 0.08319 0.0
C105 C 0.70404 0.23802 0.19011 0.0
C106 C 0.7375 0.22225 0.20904 0.0
C107 C 0.69647 0.21308 0.19314 0.0
N108 N 0.71317 0.20548 0.20209 0.0
C109 C 0.74574 0.24734 0.20631 0.0
C110 C 0.72886 0.25522 0.19671 0.0
C111 C 0.7363 0.17027 0.30278 0.0
C112 C 0.6572 0.07811 0.34435 0.0
C113 C 0.70767 0.10756 0.35146 0.0
C114 C 0.69454 0.09491 0.40329 0.0
C115 C 0.66913 0.08009 0.39959 0.0
N116 N 0.69584 0.10553 0.29739 0.0
C117 C 0.67092 0.09102 0.29345 0.0
Co118 Co 0.60589 0.72858 0.39668 0.0
Co119 Co 0.54557 0.69978 0.35088 0.0
O120 O 0.57512 0.69909 0.37467 0.0
C121 C 0.61912 0.70256 0.30408 0.0
O122 O 0.59991 0.69912 0.27252 0.0
C123 C 0.50794 0.66099 0.42946 0.0
O124 O 0.50314 0.67758 0.4514 0.0
O125 O 0.54729 0.71726 0.42823 0.0
O126 O 0.58771 0.74282 0.44128 0.0
H127 H 0.49348 0.73905 0.3251 0.0
H128 H 0.59842 0.67941 0.42685 0.0
O129 O 0.62474 0.71477 0.35388 0.0
H130 H 0.61469 0.7229 0.62411 0.0
H131 H 0.69408 0.77445 0.4655 0.0
H132 H 0.62312 0.7818 0.3983 0.0
H133 H 0.61451 0.74333 0.52818 0.0
H134 H 0.6548 0.73761 0.43933 0.0
O135 O 0.52549 0.66722 0.39176 0.0
H136 H 0.5307 0.73758 0.3534 0.0
H137 H 0.4966 0.6628 0.2999 0.0
H138 H 0.66198 0.81911 0.42464 0.0
H139 H 0.59867 0.65835 0.52168 0.0
H140 H 0.69781 0.81555 0.45849 0.0
H141 H 0.60681 0.68012 0.62123 0.0
O142 O 0.6052 0.74508 0.31943 0.0
H143 H 0.54833 0.63412 0.22586 0.0
H144 H 0.53927 0.70747 0.21858 0.0
H145 H 0.5386 0.68663 0.12262 0.0
H146 H 0.54305 0.64959 0.12585 0.0
H147 H 0.54938 0.65582 0.3207 0.0
H148 H 0.45895 0.66342 0.27138 0.0
H149 H 0.45724 0.70177 0.28382 0.0
O150 O 0.56505 0.73188 0.30833 0.0
C151 C 0.56529 0.73544 0.45476 0.0
C152 C 0.494 0.72223 0.31943 0.0
C153 C 0.47462 0.67979 0.28928 0.0
N154 N 0.51586 0.70016 0.32819 0.0
C155 C 0.51503 0.7213 0.33533 0.0
C156 C 0.49598 0.67955 0.30554 0.0
C157 C 0.47368 0.70131 0.29627 0.0
C158 C 0.60214 0.68905 0.46994 0.0
N159 N 0.60656 0.71261 0.4719 0.0
C160 C 0.60218 0.67702 0.52351 0.0
C161 C 0.60673 0.68923 0.57936 0.0
C162 C 0.61114 0.71322 0.58101 0.0
C163 C 0.61095 0.72468 0.52654 0.0
C164 C 0.67859 0.77623 0.4509 0.0
C165 C 0.63859 0.78011 0.41337 0.0
C166 C 0.65632 0.75545 0.43587 0.0
N167 N 0.63665 0.75757 0.41775 0.0
C168 C 0.66056 0.8013 0.42805 0.0
C169 C 0.68067 0.79929 0.44699 0.0
C170 C 0.58744 0.74609 0.29402 0.0
C171 C 0.54629 0.65019 0.22387 0.0
C172 C 0.54149 0.69155 0.22043 0.0
C173 C 0.54095 0.67972 0.1659 0.0
C174 C 0.5434 0.65892 0.16776 0.0
N175 N 0.54438 0.68292 0.27534 0.0
C176 C 0.54672 0.66248 0.27748 0.0
Co177 Co 0.84692 0.53604 0.53735 0.0
Co178 Co 0.89331 0.59593 0.55905 0.0
O179 O 0.88176 0.56073 0.54814 0.0
C180 C 0.86813 0.51037 0.61363 0.0
O181 O 0.89006 0.52985 0.61641 0.0
C182 C 0.92552 0.59443 0.46143 0.0
O183 O 0.9063 0.57527 0.43806 0.0
O184 O 0.87558 0.59646 0.484 0.0
O185 O 0.8417 0.55927 0.48532 0.0
H186 H 0.88356 0.67037 0.56828 0.0
H187 H 0.88761 0.52678 0.50135 0.0
O188 O 0.85042 0.51122 0.58754 0.0
H189 H 0.83474 0.50613 0.31925 0.0
H190 H 0.77474 0.45119 0.50439 0.0
H191 H 0.80096 0.5382 0.54021 0.0
H192 H 0.82425 0.52 0.41378 0.0
H193 H 0.81862 0.48186 0.51477 0.0
O194 O 0.92342 0.60489 0.509 0.0
H195 H 0.86947 0.62637 0.55588 0.0
H196 H 0.94209 0.64005 0.58412 0.0
H197 H 0.7569 0.50817 0.5292 0.0
H198 H 0.89836 0.51224 0.40869 0.0
H199 H 0.74354 0.4643 0.51121 0.0
H200 H 0.87198 0.50196 0.31632 0.0
O201 O 0.83812 0.54781 0.61306 0.0
H202 H 0.94957 0.57686 0.68074 0.0
H203 H 0.8962 0.61348 0.68737 0.0
H204 H 0.91765 0.61266 0.78101 0.0
H205 H 0.94463 0.59432 0.77805 0.0
H206 H 0.92754 0.5778 0.58831 0.0
H207 H 0.957 0.68422 0.5963 0.0
H208 H 0.92762 0.69963 0.58863 0.0
O209 O 0.86393 0.58836 0.60988 0.0
C210 C 0.85422 0.58104 0.46447 0.0
C211 C 0.89653 0.66387 0.57189 0.0
C212 C 0.93775 0.67165 0.58755 0.0
N213 N 0.9049 0.63062 0.56965 0.0
C214 C 0.88865 0.63897 0.56506 0.0
C215 C 0.9292 0.64662 0.58047 0.0
C216 C 0.92125 0.68028 0.58325 0.0
C217 C 0.87567 0.52192 0.46223 0.0
N218 N 0.85521 0.52427 0.4636 0.0
C219 C 0.88202 0.51387 0.40942 0.0
C220 C 0.86727 0.50818 0.35757 0.0
C221 C 0.84642 0.51058 0.35914 0.0
C222 C 0.84068 0.51867 0.41277 0.0
C223 C 0.78034 0.47026 0.51215 0.0
C224 C 0.79531 0.51918 0.53192 0.0
C225 C 0.80516 0.48771 0.51835 0.0
N226 N 0.81239 0.51186 0.52772 0.0
C227 C 0.77032 0.50224 0.52594 0.0
C228 C 0.76284 0.47763 0.51593 0.0
C229 C 0.84521 0.56955 0.63173 0.0
C230 C 0.93789 0.58492 0.68262 0.0
C231 C 0.90773 0.60526 0.68578 0.0
C232 C 0.91992 0.60496 0.73892 0.0
C233 C 0.93508 0.59469 0.73721 0.0
N234 N 0.91056 0.59562 0.63241 0.0
C235 C 0.92542 0.58557 0.63037 0.0
Co236 Co 0.31531 0.84567 0.71752 0.0
Co237 Co 0.29835 0.88986 0.7335 0.0
O238 O 0.32326 0.88006 0.72291 0.0
C239 C 0.35849 0.87022 0.80244 0.0
O240 O 0.35118 0.88536 0.82073 0.0
C241 C 0.3278 0.91987 0.62798 0.0
O242 O 0.32673 0.90008 0.60507 0.0
O243 O 0.27933 0.86943 0.66222 0.0
O244 O 0.28523 0.83708 0.6677 0.0
H245 H 0.21232 0.87515 0.74831 0.0
H246 H 0.36371 0.88663 0.67878 0.0
O247 O 0.34563 0.8531 0.76486 0.0
H248 H 0.3314 0.83227 0.49904 0.0
H249 H 0.33458 0.77743 0.69242 0.0
H250 H 0.26947 0.79791 0.72856 0.0
H251 H 0.30812 0.8216 0.5954 0.0
H252 H 0.34446 0.82053 0.69707 0.0
O253 O 0.31716 0.91877 0.67831 0.0
H254 H 0.24398 0.86325 0.73646 0.0
H255 H 0.30014 0.93775 0.75127 0.0
H256 H 0.25875 0.75454 0.72349 0.0
H257 H 0.38791 0.89783 0.58382 0.0
H258 H 0.29144 0.74408 0.70532 0.0
H259 H 0.3717 0.87065 0.49286 0.0
O260 O 0.29586 0.83749 0.79501 0.0
H261 H 0.37435 0.95314 0.84178 0.0
H262 H 0.28571 0.89511 0.86212 0.0
H263 H 0.30898 0.92011 0.95089 0.0
H264 H 0.35362 0.94946 0.94099 0.0
H265 H 0.35047 0.92744 0.75448 0.0
H266 H 0.26908 0.95047 0.76275 0.0
H267 H 0.22481 0.91905 0.76155 0.0
O268 O 0.27902 0.86157 0.78948 0.0
C269 C 0.27439 0.848 0.64575 0.0
C270 C 0.23155 0.88901 0.74908 0.0
C271 C 0.26341 0.93128 0.75711 0.0
N272 N 0.27388 0.89976 0.74354 0.0
C273 C 0.24956 0.88238 0.74253 0.0
C274 C 0.28091 0.92397 0.75044 0.0
C275 C 0.23857 0.91364 0.75645 0.0
C276 C 0.35656 0.87461 0.63961 0.0
N277 N 0.33428 0.8536 0.64247 0.0
C278 C 0.37035 0.88109 0.58586 0.0
C279 C 0.36123 0.86585 0.53483 0.0
C280 C 0.3386 0.84436 0.53821 0.0
C281 C 0.32535 0.8385 0.59273 0.0
C282 C 0.32017 0.78176 0.70025 0.0
C283 C 0.28377 0.7935 0.7202 0.0
C284 C 0.32566 0.80614 0.70316 0.0
N285 N 0.30752 0.81174 0.71267 0.0
C286 C 0.2776 0.76891 0.71758 0.0
C287 C 0.29595 0.76305 0.70746 0.0
C288 C 0.28063 0.84393 0.8134 0.0
C289 C 0.3549 0.94045 0.84664 0.0
C290 C 0.30517 0.90762 0.85758 0.0
C291 C 0.31823 0.92184 0.90794 0.0
C292 C 0.34327 0.93834 0.90232 0.0
N293 N 0.31672 0.90974 0.80314 0.0
C294 C 0.34124 0.92594 0.79725 0.0
Co295 Co 0.41913 0.29659 0.88574 0.0
Co296 Co 0.47973 0.31207 0.8636 0.0
O297 O 0.45399 0.32095 0.87278 0.0
C298 C 0.4165 0.32461 0.77937 0.0
O299 O 0.43414 0.32231 0.75389 0.0
C300 C 0.50473 0.36024 0.93573 0.0
O301 O 0.48519 0.36269 0.93592 0.0
O302 O 0.46886 0.29216 0.94049 0.0
O303 O 0.42812 0.27675 0.9398 0.0
H304 H 0.51106 0.25263 0.86134 0.0
H305 H 0.43566 0.34902 0.90764 0.0
O306 O 0.40876 0.31577 0.8323 0.0
H307 H 0.40337 0.30823 0.10561 0.0
H308 H 0.33027 0.26979 0.92357 0.0
H309 H 0.39028 0.2423 0.88917 0.0
H310 H 0.40276 0.28439 0.01545 0.0
H311 H 0.37408 0.29988 0.90883 0.0
O312 O 0.50402 0.3413 0.91252 0.0
H313 H 0.47969 0.26508 0.86969 0.0
H314 H 0.53401 0.3395 0.84137 0.0
H315 H 0.34667 0.21159 0.90428 0.0
H316 H 0.43637 0.37354 0.99651 0.0
H317 H 0.31632 0.22529 0.9216 0.0
H318 H 0.4202 0.35313 0.09643 0.0
O319 O 0.41885 0.27702 0.81348 0.0
H320 H 0.49757 0.38377 0.72741 0.0
H321 H 0.49734 0.30562 0.74208 0.0
H322 H 0.50956 0.32864 0.64565 0.0
H323 H 0.5099 0.36817 0.63782 0.0
H324 H 0.48494 0.35991 0.82228 0.0
H325 H 0.56598 0.32788 0.83365 0.0
H326 H 0.55457 0.28415 0.84326 0.0
O327 O 0.45718 0.28291 0.81281 0.0
C328 C 0.44742 0.27755 0.96097 0.0
C329 C 0.51625 0.27174 0.85685 0.0
C330 C 0.54708 0.31397 0.84146 0.0
N331 N 0.50494 0.30296 0.8556 0.0
C332 C 0.49855 0.27889 0.86131 0.0
C333 C 0.5289 0.32045 0.84619 0.0
C334 C 0.54066 0.28943 0.8468 0.0
C335 C 0.42846 0.34 0.95088 0.0
N336 N 0.41923 0.31533 0.95634 0.0
C337 C 0.42897 0.35398 1.00108 0.0
C338 C 0.41992 0.34253 0.05715 0.0
C339 C 0.4105 0.31734 0.06234 0.0
C340 C 0.41031 0.30395 0.01117 0.0
C341 C 0.34332 0.26359 0.91614 0.0
C342 C 0.3772 0.2484 0.89699 0.0
C343 C 0.36815 0.28054 0.9076 0.0
N344 N 0.38475 0.27285 0.89843 0.0
C345 C 0.35253 0.23093 0.90538 0.0
C346 C 0.33551 0.23863 0.91505 0.0
C347 C 0.43506 0.27225 0.79346 0.0
C348 C 0.49764 0.36664 0.73032 0.0
C349 C 0.49721 0.32264 0.73919 0.0
C350 C 0.50428 0.3357 0.68439 0.0
C351 C 0.50449 0.35786 0.68004 0.0
N352 N 0.49054 0.33134 0.78859 0.0
C353 C 0.49066 0.35306 0.78439 0.0
Co354 Co 0.53562 0.84578 0.90236 0.0
Co355 Co 0.59596 0.88398 0.85979 0.0
O356 O 0.56343 0.87827 0.88403 0.0
C357 C 0.51482 0.87142 0.8276 0.0
O358 O 0.53656 0.88655 0.80541 0.0
C359 C 0.60479 0.91635 0.96573 0.0
O360 O 0.58735 0.89681 0.99271 0.0
O361 O 0.59713 0.86468 0.93053 0.0
O362 O 0.55778 0.8358 0.94305 0.0
H363 H 0.65935 0.8598 0.81481 0.0
H364 H 0.53481 0.89058 0.94145 0.0
O365 O 0.51177 0.85433 0.86389 0.0
H366 H 0.52442 0.844 0.13078 0.0
H367 H 0.44927 0.78585 0.96825 0.0
H368 H 0.52755 0.79532 0.89401 0.0
H369 H 0.52829 0.82787 0.03132 0.0
H370 H 0.48437 0.82687 0.94704 0.0
O371 O 0.61157 0.91457 0.91193 0.0
H372 H 0.61841 0.85264 0.84406 0.0
H373 H 0.643 0.9286 0.82665 0.0
H374 H 0.49301 0.75396 0.91551 0.0
H375 H 0.53056 0.9072 0.03977 0.0
H376 H 0.45351 0.74904 0.95287 0.0
H377 H 0.52545 0.88393 0.13546 0.0
O378 O 0.53989 0.83331 0.82244 0.0
H379 H 0.5853 0.9497 0.75816 0.0
H380 H 0.60477 0.88373 0.72588 0.0
H381 H 0.60392 0.9076 0.63764 0.0
H382 H 0.59423 0.94094 0.6535 0.0
H383 H 0.58587 0.92506 0.84501 0.0
H384 H 0.68428 0.93663 0.79784 0.0
H385 H 0.69263 0.90206 0.79152 0.0
O386 O 0.58071 0.85352 0.80696 0.0
C387 C 0.58054 0.84505 0.95517 0.0
C388 C 0.65592 0.875 0.81721 0.0
C389 C 0.66992 0.91813 0.80776 0.0
N390 N 0.62828 0.89014 0.83654 0.0
C391 C 0.63276 0.87105 0.83355 0.0
C392 C 0.64653 0.91348 0.82423 0.0
C393 C 0.67459 0.89872 0.80421 0.0
C394 C 0.53222 0.88014 0.98264 0.0
N395 N 0.53166 0.85817 0.98041 0.0
C396 C 0.52997 0.88973 0.03831 0.0
C397 C 0.52716 0.8767 0.09199 0.0
C398 C 0.52662 0.85431 0.08941 0.0
C399 C 0.52892 0.8453 0.03293 0.0
C400 C 0.4664 0.78776 0.95211 0.0
C401 C 0.51047 0.79333 0.91065 0.0
C402 C 0.48633 0.81095 0.93982 0.0
N403 N 0.50806 0.81351 0.9197 0.0
C404 C 0.49096 0.76987 0.92257 0.0
C405 C 0.46879 0.76711 0.94348 0.0
C406 C 0.55892 0.83661 0.79338 0.0
C407 C 0.58957 0.93524 0.75067 0.0
C408 C 0.60023 0.89799 0.73314 0.0
C409 C 0.59993 0.91156 0.683 0.0
C410 C 0.59454 0.93029 0.69195 0.0
N411 N 0.59527 0.90291 0.7906 0.0
C412 C 0.59005 0.9213 0.79974 0.0
Co413 Co 0.70921 0.54163 0.06861 0.0
Co414 Co 0.72521 0.60213 0.04865 0.0
O415 O 0.70014 0.56745 0.06191 0.0
C416 C 0.65905 0.51554 1.00397 0.0
O417 O 0.65656 0.53503 1.00207 0.0
C418 C 0.68794 0.60477 0.13405 0.0
O419 O 0.673 0.581 0.13376 0.0
O420 O 0.74409 0.6016 0.12134 0.0
O421 O 0.7404 0.56454 0.11196 0.0
H422 H 0.81176 0.67198 0.03056 0.0
H423 H 0.66144 0.5338 0.11759 0.0
O424 O 0.67834 0.51669 0.0263 0.0
H425 H 0.70188 0.51853 0.29134 0.0
H426 H 0.69405 0.45617 0.10627 0.0
H427 H 0.75545 0.54075 0.04974 0.0
H428 H 0.72168 0.5294 0.1905 0.0
H429 H 0.68253 0.48822 0.09969 0.0
O430 O 0.70785 0.61443 0.10352 0.0
H431 H 0.77959 0.62894 0.0456 0.0
H432 H 0.7243 0.64847 0.02563 0.0
H433 H 0.7678 0.50931 0.05654 0.0
H434 H 0.64073 0.5225 0.21717 0.0
H435 H 0.73698 0.46666 0.08496 0.0
H436 H 0.66097 0.51484 0.30524 0.0
O437 O 0.72627 0.55125 0.98777 0.0
H438 H 0.64926 0.58532 0.93094 0.0
H439 H 0.73891 0.6205 0.92127 0.0
H440 H 0.71653 0.62121 0.8296 0.0
H441 H 0.67136 0.60365 0.83406 0.0
H442 H 0.67229 0.58469 0.02103 0.0
H443 H 0.75589 0.69176 0.01092 0.0
H444 H 0.79998 0.70374 0.01307 0.0
O445 O 0.74421 0.59211 0.99394 0.0
C446 C 0.75038 0.58589 0.13554 0.0
C447 C 0.79261 0.66698 0.02933 0.0
C448 C 0.76126 0.67808 0.0184 0.0
N449 N 0.75008 0.63615 0.03601 0.0
C450 C 0.7743 0.64262 0.03766 0.0
C451 C 0.74345 0.65355 0.02691 0.0
C452 C 0.78599 0.68479 0.01958 0.0
C453 C 0.67032 0.53025 0.15508 0.0
N454 N 0.6928 0.53222 0.14762 0.0
C455 C 0.65852 0.52396 0.21169 0.0
C456 C 0.66989 0.51971 0.2611 0.0
C457 C 0.69284 0.52181 0.25336 0.0
C458 C 0.70406 0.52813 0.19608 0.0
C459 C 0.70765 0.47469 0.0939 0.0
C460 C 0.74195 0.52226 0.06243 0.0
C461 C 0.70122 0.49292 0.08986 0.0
N462 N 0.71833 0.5164 0.0746 0.0
C463 C 0.74904 0.50452 0.06608 0.0
C464 C 0.73174 0.48059 0.08197 0.0
C465 C 0.74182 0.57267 0.96915 0.0
C466 C 0.66897 0.59321 0.92852 0.0
C467 C 0.71927 0.61278 0.92379 0.0
C468 C 0.70669 0.61328 0.87162 0.0
C469 C 0.68136 0.60344 0.87415 0.0
N470 N 0.70705 0.60293 0.97727 0.0
C471 C 0.68218 0.59306 0.97978 0.0
Co472 Co 0.12884 0.71706 0.22455 0.0
Co473 Co 0.1749 0.70301 0.24146 0.0
O474 O 0.14002 0.69302 0.23308 0.0
C475 C 0.09637 0.68226 0.31971 0.0
O476 O 0.11551 0.6818 0.34195 0.0
C477 C 0.15252 0.6559 0.16636 0.0
O478 O 0.13072 0.65387 0.16511 0.0
O479 O 0.1826 0.72261 0.16482 0.0
O480 O 0.15841 0.73917 0.1742 0.0
H481 H 0.2651 0.76443 0.24181 0.0
H482 H 0.09427 0.66526 0.19173 0.0
O483 O 0.09859 0.69562 0.27382 0.0
H484 H 0.10473 0.71223 1.00301 0.0
H485 H 0.06594 0.74325 0.19187 0.0
H486 H 0.15318 0.77121 0.23224 0.0
H487 H 0.12614 0.73326 0.09785 0.0
H488 H 0.08035 0.71343 0.2009 0.0
O489 O 0.17059 0.67416 0.19222 0.0
H490 H 0.22101 0.75074 0.23344 0.0
H491 H 0.20313 0.67703 0.26397 0.0
H492 H 0.13959 0.80167 0.22306 0.0
H493 H 0.07227 0.64351 0.09806 0.0
H494 H 0.09568 0.78773 0.20273 0.0
H495 H 0.0775 0.66703 1.00273 0.0
O496 O 0.14664 0.73423 0.30059 0.0
H497 H 0.12626 0.62879 0.37456 0.0
H498 H 0.19807 0.71188 0.36486 0.0
H499 H 0.18896 0.68857 0.46068 0.0
H500 H 0.1529 0.64656 0.46595 0.0
H501 H 0.13563 0.65302 0.28046 0.0
H502 H 0.24705 0.68991 0.2719 0.0
H503 H 0.27838 0.73391 0.26115 0.0
O504 O 0.18108 0.73215 0.29179 0.0
C505 C 0.17619 0.73811 0.14903 0.0
C506 C 0.25162 0.74522 0.24678 0.0
C507 C 0.24149 0.70339 0.26356 0.0
N508 N 0.20948 0.71315 0.24867 0.0
C509 C 0.22662 0.73736 0.24227 0.0
C510 C 0.21664 0.6962 0.25881 0.0
C511 C 0.25906 0.72808 0.25756 0.0
C512 C 0.09654 0.67564 0.15055 0.0
N513 N 0.11155 0.70048 0.15029 0.0
C514 C 0.08408 0.66321 0.09759 0.0
C515 C 0.08704 0.67641 0.04411 0.0
C516 C 0.10234 0.70177 0.04422 0.0
C517 C 0.11451 0.71357 0.09802 0.0
C518 C 0.08513 0.74955 0.20063 0.0
C519 C 0.13407 0.76501 0.22306 0.0
C520 C 0.09339 0.73275 0.20591 0.0
N521 N 0.11762 0.74059 0.21667 0.0
C522 C 0.12647 0.78234 0.21806 0.0
C523 C 0.10182 0.77451 0.20671 0.0
C524 C 0.16861 0.74082 0.31639 0.0
C525 C 0.14212 0.64701 0.37276 0.0
C526 C 0.1822 0.6938 0.36677 0.0
C527 C 0.17721 0.68058 0.42117 0.0
C528 C 0.15702 0.65701 0.42407 0.0
N529 N 0.16757 0.6839 0.31642 0.0
C530 C 0.1477 0.66079 0.31913 0.0
Co531 Co 0.48413 0.1757 0.39489 0.0
Co532 Co 0.42562 0.12808 0.37657 0.0
O533 O 0.46063 0.14055 0.38931 0.0
C534 C 0.50711 0.1549 0.3139 0.0
O535 O 0.48566 0.1412 0.28806 0.0
C536 C 0.40373 0.0887 0.47099 0.0
O537 O 0.39186 0.09929 0.49281 0.0
O538 O 0.42488 0.14591 0.45127 0.0
O539 O 0.45944 0.18184 0.43747 0.0
H540 H 0.34929 0.13468 0.36834 0.0
H541 H 0.49657 0.1392 0.44314 0.0
O542 O 0.50982 0.17049 0.35462 0.0
H543 H 0.50687 0.1932 0.61771 0.0
H544 H 0.56759 0.24972 0.42845 0.0
H545 H 0.48117 0.22069 0.3748 0.0
H546 H 0.49435 0.2005 0.51672 0.0
H547 H 0.53764 0.20549 0.4236 0.0
O548 O 0.41872 0.09854 0.4268 0.0
H549 H 0.39355 0.15 0.38189 0.0
H550 H 0.38264 0.07886 0.34708 0.0
H551 H 0.51046 0.26509 0.37973 0.0
H552 H 0.50946 0.1314 0.5432 0.0
H553 H 0.55403 0.27987 0.40674 0.0
H554 H 0.51463 0.15847 0.63142 0.0
O555 O 0.47297 0.1811 0.31388 0.0
H556 H 0.44721 0.07326 0.25672 0.0
H557 H 0.4082 0.12442 0.24766 0.0
H558 H 0.40991 0.10319 0.15469 0.0
H559 H 0.4294 0.07727 0.15889 0.0
H560 H 0.44559 0.09525 0.3483 0.0
H561 H 0.33825 0.06275 0.33328 0.0
H562 H 0.32131 0.09075 0.34387 0.0
O563 O 0.43228 0.15719 0.32483 0.0
C564 C 0.43884 0.16856 0.4639 0.0
C565 C 0.35645 0.1223 0.36357 0.0
C566 C 0.35026 0.08193 0.34389 0.0
N567 N 0.39068 0.11537 0.36518 0.0
C568 C 0.3815 0.13087 0.37116 0.0
C569 C 0.3754 0.09116 0.35176 0.0
C570 C 0.34076 0.09765 0.34985 0.0
C571 C 0.4989 0.15115 0.4812 0.0
N572 N 0.4947 0.1703 0.47399 0.0
C573 C 0.50616 0.1466 0.5378 0.0
C574 C 0.50903 0.16178 0.58729 0.0
C575 C 0.50467 0.18125 0.57965 0.0
C576 C 0.49746 0.18524 0.52238 0.0
C577 C 0.54865 0.24351 0.41673 0.0
C578 C 0.50006 0.22698 0.3869 0.0
C579 C 0.53162 0.21848 0.41372 0.0
N580 N 0.50763 0.21051 0.39932 0.0
C581 C 0.51658 0.25214 0.38947 0.0
C582 C 0.54102 0.26042 0.40457 0.0
C583 C 0.45098 0.1744 0.2978 0.0
C584 C 0.43858 0.08443 0.25435 0.0
C585 C 0.41697 0.11341 0.2498 0.0
C586 C 0.41775 0.10131 0.19703 0.0
C587 C 0.42865 0.08673 0.19945 0.0
N588 N 0.42676 0.11108 0.30353 0.0
C589 C 0.43746 0.09679 0.3062 0.0
Co590 Co 0.31983 0.47685 0.58098 0.0
Co591 Co 0.29929 0.41828 0.531 0.0
O592 O 0.32573 0.45059 0.55597 0.0
C593 C 0.36091 0.50111 0.49265 0.0
O594 O 0.34946 0.48215 0.45604 0.0
C595 C 0.31394 0.38937 0.61407 0.0
O596 O 0.29286 0.38006 0.64282 0.0
O597 O 0.28131 0.41492 0.60926 0.0
O598 O 0.28821 0.45319 0.62006 0.0
H599 H 0.21178 0.35175 0.50193 0.0
H600 H 0.36631 0.47854 0.61395 0.0
O601 O 0.35155 0.50164 0.54368 0.0
H602 H 0.33051 0.48376 0.80996 0.0
H603 H 0.34374 0.56088 0.6615 0.0
H604 H 0.27632 0.48342 0.57932 0.0
H605 H 0.30955 0.48111 0.71261 0.0
H606 H 0.35099 0.52719 0.63218 0.0
O607 O 0.31871 0.40439 0.57018 0.0
H608 H 0.24501 0.39305 0.5305 0.0
H609 H 0.29848 0.37361 0.48221 0.0
H610 H 0.26817 0.51648 0.60904 0.0
H611 H 0.38809 0.48145 0.71028 0.0
H612 H 0.30203 0.55557 0.65041 0.0
H613 H 0.37016 0.48404 0.80921 0.0
O614 O 0.30265 0.47358 0.50256 0.0
H615 H 0.37346 0.43911 0.40258 0.0
H616 H 0.28466 0.40985 0.39943 0.0
H617 H 0.30645 0.41478 0.30231 0.0
H618 H 0.35117 0.42942 0.30347 0.0
H619 H 0.35104 0.43428 0.4986 0.0
H620 H 0.26585 0.33203 0.45357 0.0
H621 H 0.22214 0.32091 0.4632 0.0
O622 O 0.28059 0.43274 0.48904 0.0
C623 C 0.27677 0.43056 0.63421 0.0
C624 C 0.23076 0.35639 0.4974 0.0
C625 C 0.2611 0.34531 0.47032 0.0
N626 N 0.27362 0.38574 0.5077 0.0
C627 C 0.24964 0.37975 0.51337 0.0
C628 C 0.27949 0.36885 0.48671 0.0
C629 C 0.23658 0.33909 0.47572 0.0
C630 C 0.35844 0.47976 0.65682 0.0
N631 N 0.33666 0.47963 0.65762 0.0
C632 C 0.37084 0.48136 0.71121 0.0
C633 C 0.36075 0.48279 0.76671 0.0
C634 C 0.33851 0.48261 0.76717 0.0
C635 C 0.32664 0.48099 0.71188 0.0
C636 C 0.32882 0.54392 0.64364 0.0
C637 C 0.29112 0.50031 0.59767 0.0
C638 C 0.33284 0.52481 0.62674 0.0
N639 N 0.31405 0.50328 0.60447 0.0
C640 C 0.2864 0.519 0.61425 0.0
C641 C 0.30542 0.54093 0.63742 0.0
C642 C 0.2859 0.45464 0.47524 0.0
C643 C 0.35396 0.43262 0.40149 0.0
C644 C 0.30414 0.41636 0.40038 0.0
C645 C 0.31637 0.41904 0.34521 0.0
C646 C 0.34145 0.42723 0.34589 0.0
N647 N 0.31652 0.42165 0.45479 0.0
C648 C 0.34112 0.42972 0.45577 0.0
Co649 Co 0.88996 0.29034 0.71923 0.0
Co650 Co 0.84526 0.30614 0.73849 0.0
O651 O 0.88015 0.31534 0.73162 0.0
C652 C 0.92983 0.32861 0.80278 0.0
O653 O 0.92039 0.34306 0.80191 0.0
C654 C 0.86897 0.35582 0.67325 0.0
O655 O 0.89093 0.35823 0.67149 0.0
O656 O 0.83791 0.28886 0.65799 0.0
O657 O 0.86065 0.27068 0.66547 0.0
H658 H 0.75452 0.24721 0.72691 0.0
H659 H 0.92505 0.34296 0.6891 0.0
O660 O 0.91989 0.30844 0.77313 0.0
H661 H 0.91637 0.29703 0.49958 0.0
H662 H 0.94935 0.25991 0.6826 0.0
H663 H 0.86285 0.23601 0.71862 0.0
H664 H 0.89392 0.27551 0.5924 0.0
H665 H 0.9373 0.29139 0.69601 0.0
O666 O 0.85086 0.3367 0.69579 0.0
H667 H 0.79836 0.25973 0.72019 0.0
H668 H 0.81821 0.33269 0.76883 0.0
H669 H 0.87407 0.20395 0.70492 0.0
H670 H 0.94805 0.36513 0.59782 0.0
H671 H 0.9176 0.21583 0.68675 0.0
H672 H 0.9438 0.34219 0.5019 0.0
O673 O 0.87105 0.27212 0.79284 0.0
H674 H 0.89418 0.37528 0.8863 0.0
H675 H 0.82077 0.294 0.86044 0.0
H676 H 0.82962 0.31414 0.96103 0.0
H677 H 0.86654 0.35522 0.97453 0.0
H678 H 0.88485 0.35423 0.78698 0.0
H679 H 0.77458 0.32099 0.77533 0.0
H680 H 0.74237 0.27795 0.75464 0.0
O681 O 0.83735 0.27521 0.78216 0.0
C682 C 0.84364 0.27306 0.6402 0.0
C683 C 0.76838 0.26601 0.73619 0.0
C684 C 0.77964 0.30742 0.76328 0.0
N685 N 0.81087 0.29688 0.74444 0.0
C686 C 0.79325 0.2732 0.7326 0.0
C687 C 0.80433 0.31395 0.75929 0.0
C688 C 0.76158 0.28327 0.75169 0.0
C689 C 0.92331 0.33271 0.64827 0.0
N690 N 0.9084 0.30785 0.64693 0.0
C691 C 0.93629 0.34543 0.59633 0.0
C692 C 0.93387 0.33256 0.5425 0.0
C693 C 0.91848 0.30724 0.54117 0.0
C694 C 0.90577 0.29515 0.59398 0.0
C695 C 0.93031 0.2545 0.69037 0.0
C696 C 0.88181 0.24133 0.71038 0.0
C697 C 0.92339 0.27224 0.69815 0.0
N698 N 0.89936 0.26554 0.70763 0.0
C699 C 0.88806 0.2231 0.70281 0.0
C700 C 0.91249 0.22978 0.69269 0.0
C701 C 0.84898 0.26566 0.80663 0.0
C702 C 0.87801 0.35742 0.88101 0.0
C703 C 0.83699 0.31168 0.86585 0.0
C704 C 0.84185 0.3231 0.92299 0.0
C705 C 0.86252 0.34614 0.93051 0.0
N706 N 0.85223 0.32282 0.81732 0.0
C707 C 0.87254 0.34541 0.82455 0.0
H708 H 0.18894 0.41934 0.19909 0.0
H709 H 0.22132 0.49762 0.16802 0.0
H710 H 0.24962 0.50587 0.25405 0.0
H711 H 0.19223 0.42214 0.36343 0.0
H712 H 0.2002 0.39845 0.37112 0.0
H713 H 0.18226 0.39827 0.30657 0.0
H714 H 0.21413 0.39773 0.2327 0.0
H715 H 0.23213 0.39784 0.29701 0.0
H716 H 0.24593 0.42117 0.23915 0.0
H717 H 0.27377 0.50617 0.34412 0.0
H718 H 0.2941 0.49857 0.43032 0.0
H719 H 0.2474 0.42003 0.4041 0.0
C720 C 0.20201 0.43822 0.21023 0.0
C721 C 0.20274 0.45782 0.17647 0.0
C722 C 0.22026 0.48224 0.19277 0.0
C723 C 0.23645 0.48716 0.24179 0.0
C724 C 0.23511 0.46752 0.27423 0.0
C725 C 0.21852 0.44352 0.25904 0.0
C726 C 0.22128 0.42589 0.30141 0.0
C727 C 0.19758 0.41027 0.33779 0.0
C728 C 0.22882 0.40971 0.26541 0.0
C729 C 0.24195 0.4438 0.34281 0.0
C730 C 0.24949 0.46768 0.32623 0.0
C731 C 0.2681 0.48755 0.35744 0.0
C732 C 0.27953 0.48297 0.4066 0.0
C733 C 0.27249 0.45866 0.42437 0.0
C734 C 0.25329 0.43882 0.39189 0.0
H735 H 0.80509 0.27017 0.57038 0.0
H736 H 0.85065 0.23674 0.59405 0.0
H737 H 0.82821 0.20768 0.51168 0.0
H738 H 0.7487 0.21395 0.53825 0.0
H739 H 0.73818 0.2272 0.48103 0.0
H740 H 0.75788 0.246 0.54209 0.0
H741 H 0.78874 0.27599 0.46273 0.0
H742 H 0.76914 0.25726 0.40142 0.0
H743 H 0.80069 0.26445 0.40464 0.0
H744 H 0.80122 0.18179 0.42872 0.0
H745 H 0.77121 0.1606 0.34705 0.0
H746 H 0.74226 0.20995 0.37267 0.0
C747 C 0.81039 0.2568 0.55808 0.0
C748 C 0.82981 0.25596 0.5891 0.0
C749 C 0.836 0.23802 0.57141 0.0
C750 C 0.82332 0.2213 0.52448 0.0
C751 C 0.80437 0.22258 0.4951 0.0
C752 C 0.79787 0.23983 0.5108 0.0
C753 C 0.77664 0.23691 0.47118 0.0
C754 C 0.75401 0.23064 0.51049 0.0
C755 C 0.78426 0.26003 0.43271 0.0
C756 C 0.77233 0.21533 0.4311 0.0
C757 C 0.78859 0.20744 0.44609 0.0
C758 C 0.78839 0.1878 0.41639 0.0
C759 C 0.77115 0.17584 0.3699 0.0
C760 C 0.7542 0.18347 0.35298 0.0
C761 C 0.7549 0.20359 0.38427 0.0
H762 H 0.59794 0.77471 0.52646 0.0
H763 H 0.52005 0.72605 0.49413 0.0
H764 H 0.51042 0.74678 0.57582 0.0
H765 H 0.59419 0.77753 0.69022 0.0
H766 H 0.61721 0.80948 0.69569 0.0
H767 H 0.61826 0.79103 0.634 0.0
H768 H 0.61809 0.82168 0.55542 0.0
H769 H 0.61702 0.84021 0.61689 0.0
H770 H 0.5939 0.82915 0.55782 0.0
H771 H 0.50884 0.77199 0.66197 0.0
H772 H 0.51537 0.80059 0.74609 0.0
H773 H 0.59427 0.83382 0.72341 0.0
C774 C 0.57885 0.76841 0.53641 0.0
C775 C 0.55978 0.74855 0.50362 0.0
C776 C 0.53506 0.74104 0.51839 0.0
C777 C 0.52935 0.75275 0.56483 0.0
C778 C 0.54851 0.77208 0.59632 0.0
C779 C 0.57277 0.77995 0.58275 0.0
C780 C 0.5898 0.8012 0.62396 0.0
C781 C 0.60581 0.7944 0.6633 0.0
C782 C 0.60564 0.82443 0.58626 0.0
C783 C 0.57128 0.80394 0.66282 0.0
C784 C 0.54759 0.7869 0.64599 0.0
C785 C 0.52731 0.78548 0.67542 0.0
C786 C 0.53125 0.80188 0.72334 0.0
C787 C 0.55535 0.81965 0.74168 0.0
C788 C 0.57561 0.82061 0.71059 0.0
H789 H 0.80598 0.53532 0.70198 0.0
H790 H 0.85291 0.61366 0.67343 0.0
H791 H 0.83113 0.62196 0.7542 0.0
H792 H 0.75013 0.53717 0.73371 0.0
H793 H 0.73965 0.51414 0.79261 0.0
H794 H 0.75857 0.5137 0.73134 0.0
H795 H 0.78971 0.51462 0.81038 0.0
H796 H 0.77093 0.51512 0.87188 0.0
H797 H 0.80266 0.53877 0.86671 0.0
H798 H 0.80539 0.62269 0.8371 0.0
H799 H 0.77684 0.61589 0.92038 0.0
H800 H 0.74541 0.53708 0.90039 0.0
C801 C 0.81162 0.5542 0.71265 0.0
C802 C 0.83129 0.57379 0.68085 0.0
C803 C 0.83804 0.59823 0.69665 0.0
C804 C 0.82573 0.60322 0.74264 0.0
C805 C 0.80662 0.58364 0.77302 0.0
C806 C 0.7995 0.55961 0.75909 0.0
C807 C 0.77842 0.5422 0.80018 0.0
C808 C 0.75532 0.52583 0.76219 0.0
C809 C 0.78588 0.52677 0.83963 0.0
C810 C 0.77496 0.56032 0.83914 0.0
C811 C 0.79149 0.58407 0.82217 0.0
C812 C 0.7923 0.60417 0.85083 0.0
C813 C 0.77586 0.60003 0.89833 0.0
C814 C 0.75861 0.5759 0.91736 0.0
C815 C 0.75822 0.55574 0.88703 0.0
H816 H 0.2759 0.80417 0.8808 0.0
H817 H 0.24599 0.85299 0.862 0.0
H818 H 0.21701 0.8314 0.94469 0.0
H819 H 0.21812 0.7495 0.91254 0.0
H820 H 0.23066 0.73763 0.96822 0.0
H821 H 0.24973 0.757 0.90735 0.0
H822 H 0.28115 0.78651 0.98694 0.0
H823 H 0.26215 0.76725 0.04805 0.0
H824 H 0.27105 0.79925 0.0465 0.0
H825 H 0.19089 0.80502 0.02774 0.0
H826 H 0.16892 0.77502 0.10852 0.0
H827 H 0.21473 0.74231 0.07756 0.0
C828 C 0.26332 0.81036 0.89423 0.0
C829 C 0.26347 0.83047 0.8645 0.0
C830 C 0.24652 0.83781 0.88363 0.0
C831 C 0.22985 0.82561 0.93078 0.0
C832 C 0.23016 0.80599 0.95891 0.0
C833 C 0.24639 0.79833 0.94171 0.0
C834 C 0.24249 0.77651 0.98007 0.0
C835 C 0.23479 0.75381 0.93962 0.0
C836 C 0.26559 0.78276 0.01762 0.0
C837 C 0.22155 0.77323 0.02116 0.0
C838 C 0.21483 0.79051 1.00781 0.0
C839 C 0.19597 0.79138 0.03876 0.0
C840 C 0.18356 0.77415 0.08472 0.0
C841 C 0.18995 0.75613 0.0998 0.0
C842 C 0.20932 0.75578 0.06737 0.0
H843 H 0.48488 0.21275 0.22546 0.0
H844 H 0.40655 0.16579 0.25513 0.0
H845 H 0.39799 0.18707 0.17333 0.0
H846 H 0.48285 0.26799 0.19362 0.0
H847 H 0.50587 0.27856 0.13465 0.0
H848 H 0.50638 0.2596 0.19567 0.0
H849 H 0.50543 0.22859 0.11629 0.0
H850 H 0.5049 0.24744 0.05502 0.0
H851 H 0.48123 0.21574 0.05998 0.0
H852 H 0.39719 0.21309 0.09065 0.0
H853 H 0.40404 0.24225 0.00874 0.0
H854 H 0.48291 0.27317 0.02789 0.0
C855 C 0.46594 0.2069 0.21461 0.0
C856 C 0.44642 0.18745 0.24712 0.0
C857 C 0.4219 0.1805 0.2313 0.0
C858 C 0.41679 0.19252 0.18474 0.0
C859 C 0.43632 0.21153 0.15389 0.0
C860 C 0.46041 0.21872 0.16776 0.0
C861 C 0.47781 0.23983 0.12683 0.0
C862 C 0.4942 0.26286 0.16498 0.0
C863 C 0.49325 0.23245 0.08718 0.0
C864 C 0.45963 0.24329 0.08811 0.0
C865 C 0.43584 0.22671 0.10494 0.0
C866 C 0.41572 0.22615 0.07689 0.0
C867 C 0.4199 0.24293 0.0302 0.0
C868 C 0.44407 0.2602 0.01134 0.0
C869 C 0.46422 0.26028 0.04094 0.0
H870 H 0.11644 0.51525 0.11832 0.0
H871 H 0.19464 0.54266 0.09882 0.0
H872 H 0.20281 0.5848 0.11148 0.0
H873 H 0.11515 0.56356 0.03581 0.0
H874 H 0.09325 0.5656 0.08495 0.0
H875 H 0.09293 0.53694 0.07716 0.0
H876 H 0.0974 0.53496 0.19447 0.0
H877 H 0.09733 0.5634 0.20268 0.0
H878 H 0.12235 0.56048 0.23353 0.0
H879 H 0.2031 0.62374 0.1221 0.0
H880 H 0.19568 0.65809 0.13945 0.0
H881 H 0.11739 0.60698 0.15253 0.0
C882 C 0.13527 0.53012 0.11783 0.0
C883 C 0.15489 0.52561 0.10746 0.0
C884 C 0.17927 0.54561 0.10636 0.0
C885 C 0.18415 0.56967 0.1134 0.0
C886 C 0.16448 0.57359 0.12165 0.0
C887 C 0.14054 0.5545 0.12468 0.0
C888 C 0.12296 0.56422 0.13377 0.0
C889 C 0.10501 0.55715 0.07969 0.0
C890 C 0.1092 0.55524 0.19475 0.0
C891 C 0.14084 0.59166 0.13514 0.0
C892 C 0.16465 0.5965 0.12781 0.0
C893 C 0.18455 0.62025 0.12806 0.0
C894 C 0.18012 0.63965 0.13777 0.0
C895 C 0.15597 0.63527 0.14714 0.0
C896 C 0.13602 0.61093 0.14468 0.0
H897 H 0.64611 0.18451 0.30425 0.0
H898 H 0.61839 0.10618 0.30889 0.0
H899 H 0.57581 0.09873 0.31038 0.0
H900 H 0.59947 0.18317 0.40857 0.0
H901 H 0.59825 0.20756 0.36859 0.0
H902 H 0.62628 0.20636 0.36961 0.0
H903 H 0.62698 0.20726 0.25113 0.0
H904 H 0.59871 0.20797 0.24971 0.0
H905 H 0.60096 0.18424 0.2091 0.0
H906 H 0.5363 0.10005 0.30002 0.0
H907 H 0.50277 0.10991 0.29926 0.0
H908 H 0.55639 0.18733 0.31128 0.0
C909 C 0.63104 0.16582 0.30685 0.0
C910 C 0.63542 0.14589 0.30671 0.0
C911 C 0.61535 0.12167 0.30981 0.0
C912 C 0.59115 0.11729 0.31003 0.0
C913 C 0.58742 0.13734 0.30843 0.0
C914 C 0.60683 0.16114 0.30872 0.0
C915 C 0.5979 0.17948 0.30867 0.0
C916 C 0.60595 0.19506 0.36736 0.0
C917 C 0.60666 0.19569 0.25123 0.0
C918 C 0.57041 0.1623 0.30729 0.0
C919 C 0.56473 0.13807 0.30604 0.0
C920 C 0.54053 0.11894 0.30184 0.0
C921 C 0.52164 0.1247 0.30078 0.0
C922 C 0.52709 0.14934 0.30513 0.0
C923 C 0.55179 0.16833 0.30797 0.0
H924 H 0.38215 0.54732 0.53979 0.0
H925 H 0.39374 0.50273 0.4073 0.0
H926 H 0.4344 0.53828 0.38225 0.0
H927 H 0.40859 0.60174 0.45067 0.0
H928 H 0.4217 0.62186 0.51556 0.0
H929 H 0.39435 0.59255 0.52474 0.0
H930 H 0.41578 0.58141 0.6099 0.0
H931 H 0.44331 0.61063 0.60065 0.0
H932 H 0.44453 0.58271 0.59394 0.0
H933 H 0.47371 0.57892 0.37206 0.0
H934 H 0.50662 0.62213 0.36934 0.0
H935 H 0.46825 0.64016 0.50654 0.0
C936 C 0.39328 0.54492 0.50578 0.0
C937 C 0.38491 0.52222 0.47576 0.0
C938 C 0.39984 0.51998 0.43079 0.0
C939 C 0.42298 0.54001 0.4166 0.0
C940 C 0.43073 0.5621 0.4475 0.0
C941 C 0.41618 0.5647 0.49066 0.0
C942 C 0.42807 0.59065 0.51502 0.0
C943 C 0.41224 0.60239 0.50061 0.0
C944 C 0.43323 0.59138 0.58397 0.0
C945 C 0.45161 0.6024 0.47856 0.0
C946 C 0.45296 0.58556 0.44048 0.0
C947 C 0.47284 0.59223 0.40174 0.0
C948 C 0.49152 0.61686 0.40077 0.0
C949 C 0.49007 0.63461 0.43781 0.0
C950 C 0.46999 0.62708 0.4779 0.0
H951 H 0.90297 0.4963 0.63272 0.0
H952 H 0.82437 0.4687 0.63001 0.0
H953 H 0.81677 0.42666 0.64122 0.0
H954 H 0.90185 0.44794 0.54668 0.0
H955 H 0.92533 0.44624 0.5902 0.0
H956 H 0.92527 0.47478 0.58535 0.0
H957 H 0.92453 0.47727 0.70347 0.0
H958 H 0.92504 0.44896 0.70871 0.0
H959 H 0.901 0.45184 0.74571 0.0
H960 H 0.81708 0.38778 0.64547 0.0
H961 H 0.82516 0.35363 0.65547 0.0
H962 H 0.90361 0.40509 0.65858 0.0
C963 C 0.88419 0.48145 0.63583 0.0
C964 C 0.86426 0.48587 0.63036 0.0
C965 C 0.83995 0.46586 0.63383 0.0
C966 C 0.83541 0.44185 0.64003 0.0
C967 C 0.85535 0.43803 0.64313 0.0
C968 C 0.87926 0.45719 0.64221 0.0
C969 C 0.8972 0.44766 0.64608 0.0
C970 C 0.91336 0.45457 0.58865 0.0
C971 C 0.91287 0.45699 0.70448 0.0
C972 C 0.87954 0.4202 0.64888 0.0
C973 C 0.85552 0.41522 0.64666 0.0
C974 C 0.8358 0.39141 0.64787 0.0
C975 C 0.84063 0.37211 0.65344 0.0
C976 C 0.86504 0.37659 0.6582 0.0
C977 C 0.88478 0.40102 0.65471 0.0
H978 H 0.37447 0.83717 0.81118 0.0
H979 H 0.39948 0.91495 0.81979 0.0
H980 H 0.44254 0.92393 0.82401 0.0
H981 H 0.42087 0.83927 0.91749 0.0
H982 H 0.42355 0.81588 0.87641 0.0
H983 H 0.3949 0.81589 0.876 0.0
H984 H 0.39538 0.81626 0.75752 0.0
H985 H 0.42422 0.81667 0.75753 0.0
H986 H 0.42141 0.84026 0.71799 0.0
H987 H 0.48303 0.92431 0.81665 0.0
H988 H 0.51758 0.91596 0.81695 0.0
H989 H 0.46586 0.83789 0.82166 0.0
C990 C 0.38902 0.85607 0.8151 0.0
C991 C 0.38371 0.87539 0.81535 0.0
C992 C 0.40317 0.89988 0.82031 0.0
C993 C 0.42767 0.90515 0.82213 0.0
C994 C 0.43231 0.88568 0.82013 0.0
C995 C 0.41349 0.8616 0.81837 0.0
C996 C 0.42333 0.844 0.8179 0.0
C997 C 0.41518 0.82781 0.87538 0.0
C998 C 0.41562 0.82838 0.75924 0.0
C999 C 0.45066 0.86192 0.81878 0.0
C1000 C 0.4555 0.88589 0.81907 0.0
C1001 C 0.47945 0.90562 0.81724 0.0
C1002 C 0.49894 0.90071 0.81682 0.0
C1003 C 0.49433 0.87631 0.81934 0.0
C1004 C 0.46987 0.85673 0.8199 0.0
H1005 H 0.51867 0.40921 0.95355 0.0
H1006 H 0.54641 0.35831 0.95601 0.0
H1007 H 0.58831 0.39266 0.97013 0.0
H1008 H 0.56827 0.45666 0.87101 0.0
H1009 H 0.56938 0.48166 0.91387 0.0
H1010 H 0.54089 0.45315 0.90681 0.0
H1011 H 0.53687 0.44964 0.02468 0.0
H1012 H 0.56514 0.47835 0.03209 0.0
H1013 H 0.56175 0.45136 0.06962 0.0
H1014 H 0.62717 0.43175 0.977 0.0
H1015 H 0.66124 0.47383 0.98873 0.0
H1016 H 0.60977 0.50092 0.98563 0.0
C1017 C 0.53351 0.40528 0.95827 0.0
C1018 C 0.52915 0.38096 0.95342 0.0
C1019 C 0.54917 0.37669 0.95919 0.0
C1020 C 0.57312 0.39612 0.96711 0.0
C1021 C 0.5769 0.41983 0.96969 0.0
C1022 C 0.55773 0.42459 0.96649 0.0
C1023 C 0.56725 0.45202 0.97051 0.0
C1024 C 0.56107 0.46142 0.91206 0.0
C1025 C 0.55715 0.4582 0.02763 0.0
C1026 C 0.59471 0.46179 0.97601 0.0
C1027 C 0.5997 0.44277 0.97498 0.0
C1028 C 0.62351 0.44681 0.97853 0.0
C1029 C 0.64278 0.47088 0.9851 0.0
C1030 C 0.63829 0.49082 0.9886 0.0
C1031 C 0.61387 0.48616 0.98289 0.0
H1032 H 0.2667 0.46076 0.70117 0.0
H1033 H 0.24362 0.38379 0.67751 0.0
H1034 H 0.21273 0.37346 0.76005 0.0
H1035 H 0.26346 0.45955 0.86334 0.0
H1036 H 0.25376 0.48208 0.86577 0.0
H1037 H 0.27271 0.48228 0.80394 0.0
H1038 H 0.24039 0.47964 0.72577 0.0
H1039 H 0.22125 0.47926 0.78735 0.0
H1040 H 0.2091 0.45497 0.7314 0.0
H1041 H 0.18328 0.37285 0.84778 0.0
H1042 H 0.16147 0.38218 0.92928 0.0
H1043 H 0.20852 0.45979 0.89341 0.0
C1044 C 0.25542 0.44163 0.713 0.0
C1045 C 0.2578 0.42312 0.68272 0.0
C1046 C 0.24222 0.39836 0.70007 0.0
C1047 C 0.22462 0.39235 0.74688 0.0
C1048 C 0.22309 0.41134 0.77607 0.0
C1049 C 0.23838 0.43549 0.75961 0.0
C1050 C 0.23426 0.45299 0.79789 0.0
C1051 C 0.25741 0.47023 0.83493 0.0
C1052 C 0.22574 0.46756 0.75822 0.0
C1053 C 0.214 0.43505 0.83864 0.0
C1054 C 0.20741 0.41105 0.82579 0.0
C1055 C 0.18848 0.39164 0.85806 0.0
C1056 C 0.17617 0.39709 0.90424 0.0
C1057 C 0.18304 0.42173 0.91786 0.0
C1058 C 0.20237 0.4407 0.88445 0.0
H1059 H 0.74427 0.19688 0.05094 0.0
H1060 H 0.77873 0.15546 0.10911 0.0
H1061 H 0.81081 0.17636 0.02978 0.0
H1062 H 0.75382 0.19359 0.88966 0.0
H1063 H 0.75831 0.22376 0.87552 0.0
H1064 H 0.73884 0.20558 0.93726 0.0
H1065 H 0.76474 0.24084 0.01338 0.0
H1066 H 0.78437 0.25905 0.95196 0.0
H1067 H 0.79739 0.25277 0.01822 0.0
H1068 H 0.84113 0.20535 0.9466 0.0
H1069 H 0.86338 0.23554 0.86424 0.0
H1070 H 0.80453 0.25262 0.857 0.0
C1071 C 0.75839 0.19203 0.04724 0.0
C1072 C 0.75905 0.17471 0.08669 0.0
C1073 C 0.77788 0.16876 0.0794 0.0
C1074 C 0.79618 0.18058 0.03457 0.0
C1075 C 0.79498 0.1978 0.99665 0.0
C1076 C 0.77619 0.20306 1.00212 0.0
C1077 C 0.77819 0.22158 0.95545 0.0
C1078 C 0.75597 0.21045 0.91189 0.0
C1079 C 0.78137 0.24493 0.98663 0.0
C1080 C 0.80132 0.22635 0.92311 0.0
C1081 C 0.81109 0.21285 0.94759 0.0
C1082 C 0.83338 0.21574 0.92671 0.0
C1083 C 0.84592 0.23295 0.88 0.0
C1084 C 0.8359 0.24673 0.85424 0.0
C1085 C 0.81306 0.24281 0.87573 0.0
H1086 H 0.55379 0.751 0.22526 0.0
H1087 H 0.63234 0.78201 0.24988 0.0
H1088 H 0.63971 0.81084 0.16474 0.0
H1089 H 0.55453 0.75275 0.06229 0.0
H1090 H 0.53022 0.75998 0.05743 0.0
H1091 H 0.53155 0.74265 0.1213 0.0
H1092 H 0.53141 0.77451 0.19624 0.0
H1093 H 0.53009 0.79196 0.13263 0.0
H1094 H 0.55431 0.8064 0.18847 0.0
H1095 H 0.63786 0.83679 0.07598 0.0
H1096 H 0.62706 0.85649 0.99292 0.0
H1097 H 0.5498 0.80568 0.02561 0.0
C1098 C 0.57263 0.76373 0.21302 0.0
C1099 C 0.59249 0.76408 0.24436 0.0
C1100 C 0.61679 0.78131 0.22659 0.0
C1101 C 0.62114 0.79775 0.17826 0.0
C1102 C 0.60103 0.79661 0.14796 0.0
C1103 C 0.57726 0.77992 0.16478 0.0
C1104 C 0.55867 0.78186 0.12485 0.0
C1105 C 0.54282 0.75789 0.08936 0.0
C1106 C 0.54269 0.78912 0.16282 0.0
C1107 C 0.57562 0.80232 0.08274 0.0
C1108 C 0.59999 0.8108 0.09675 0.0
C1109 C 0.61882 0.83018 0.06458 0.0
C1110 C 0.6125 0.84125 0.01742 0.0
C1111 C 0.58756 0.83277 1.00261 0.0
C1112 C 0.56905 0.81281 0.03554 0.0
H1113 H 0.82026 0.55112 0.38107 0.0
H1114 H 0.86258 0.62734 0.43548 0.0
H1115 H 0.84143 0.63806 0.35547 0.0
H1116 H 0.82244 0.56242 0.21879 0.0
H1117 H 0.792 0.53688 0.20641 0.0
H1118 H 0.81062 0.53597 0.26789 0.0
H1119 H 0.77605 0.52776 0.345 0.0
H1120 H 0.75742 0.52883 0.28385 0.0
H1121 H 0.76446 0.54877 0.34908 0.0
H1122 H 0.81215 0.639 0.27221 0.0
H1123 H 0.78139 0.63068 0.19064 0.0
H1124 H 0.76323 0.55452 0.1875 0.0
C1125 C 0.82535 0.5701 0.37623 0.0
C1126 C 0.84303 0.58831 0.41485 0.0
C1127 C 0.84909 0.61303 0.40633 0.0
C1128 C 0.83713 0.61926 0.36112 0.0
C1129 C 0.81958 0.60062 0.32409 0.0
C1130 C 0.81414 0.5766 0.33079 0.0
C1131 C 0.7951 0.5598 0.2852 0.0
C1132 C 0.80568 0.54809 0.24201 0.0
C1133 C 0.77189 0.54014 0.31774 0.0
C1134 C 0.79027 0.57797 0.25204 0.0
C1135 C 0.80421 0.60141 0.27518 0.0
C1136 C 0.80142 0.62074 0.25337 0.0
C1137 C 0.78388 0.61585 0.20711 0.0
C1138 C 0.76964 0.59188 0.1827 0.0
C1139 C 0.77343 0.573 0.20514 0.0
H1140 H 0.21124 0.75248 0.37604 0.0
H1141 H 0.15369 0.77138 0.36842 0.0
H1142 H 0.17475 0.80206 0.45081 0.0
H1143 H 0.21651 0.75476 0.53893 0.0
H1144 H 0.24913 0.76632 0.53736 0.0
H1145 H 0.23004 0.74725 0.47591 0.0
H1146 H 0.257 0.78099 0.39787 0.0
H1147 H 0.27607 0.80024 0.45912 0.0
H1148 H 0.26168 0.81149 0.40718 0.0
H1149 H 0.2041 0.83209 0.53356 0.0
H1150 H 0.23582 0.8549 0.61275 0.0
H1151 H 0.26991 0.81145 0.57028 0.0
C1152 C 0.20275 0.76277 0.3917 0.0
C1153 C 0.18064 0.75929 0.36579 0.0
C1154 C 0.17057 0.7736 0.38766 0.0
C1155 C 0.18244 0.79111 0.43433 0.0
C1156 C 0.20413 0.79379 0.45918 0.0
C1157 C 0.2139 0.77967 0.4389 0.0
C1158 C 0.23665 0.7849 0.47428 0.0
C1159 C 0.23284 0.76194 0.50867 0.0
C1160 C 0.25917 0.79501 0.43209 0.0
C1161 C 0.23836 0.80431 0.5178 0.0
C1162 C 0.21979 0.80962 0.50807 0.0
C1163 C 0.21854 0.82783 0.54177 0.0
C1164 C 0.23666 0.84074 0.58654 0.0
C1165 C 0.25543 0.83499 0.59796 0.0
C1166 C 0.25598 0.81641 0.56308 0.0
H1167 H 0.46431 0.27378 0.70065 0.0
H1168 H 0.39121 0.22931 0.77401 0.0
H1169 H 0.38273 0.19764 0.69478 0.0
H1170 H 0.44796 0.25968 0.54124 0.0
H1171 H 0.47617 0.26017 0.52329 0.0
H1172 H 0.47544 0.27903 0.58432 0.0
H1173 H 0.49255 0.25931 0.65937 0.0
H1174 H 0.4932 0.2403 0.59872 0.0
H1175 H 0.4766 0.22646 0.66803 0.0
H1176 H 0.38447 0.1693 0.61043 0.0
H1177 H 0.39498 0.14921 0.52747 0.0
H1178 H 0.46614 0.21496 0.50928 0.0
C1179 C 0.44651 0.25749 0.7003 0.0
C1180 C 0.42857 0.25393 0.74396 0.0
C1181 C 0.40525 0.23242 0.74088 0.0
C1182 C 0.40033 0.21434 0.69618 0.0
C1183 C 0.41879 0.21836 0.65443 0.0
C1184 C 0.44129 0.23968 0.65587 0.0
C1185 C 0.45829 0.24 0.60679 0.0
C1186 C 0.46484 0.26096 0.56121 0.0
C1187 C 0.48152 0.24161 0.63493 0.0
C1188 C 0.4421 0.21531 0.5777 0.0
C1189 C 0.41941 0.20288 0.60564 0.0
C1190 C 0.40209 0.17907 0.58791 0.0
C1191 C 0.40823 0.16778 0.54081 0.0
C1192 C 0.43144 0.18039 0.51175 0.0
C1193 C 0.44827 0.2046 0.53029 0.0
H1194 H 0.06844 0.41855 0.91201 0.0
H1195 H 0.06668 0.35496 0.99389 0.0
H1196 H 0.02381 0.32907 0.95931 0.0
H1197 H 1.00633 0.40164 0.95551 0.0
H1198 H 1.00019 0.41336 0.88661 0.0
H1199 H 0.03109 0.42689 0.91564 0.0
H1200 H 0.0457 0.41909 0.8117 0.0
H1201 H 0.01488 0.40564 0.78227 0.0
H1202 H 0.03084 0.38852 0.78027 0.0
H1203 H 0.98203 0.30972 0.91162 0.0
H1204 H 0.94272 0.29855 0.86062 0.0
H1205 H 0.96967 0.375 0.81741 0.0
C1206 C 0.05903 0.39914 0.92221 0.0
C1207 C 0.07093 0.38866 0.95504 0.0
C1208 C 0.05791 0.36331 0.96866 0.0
C1209 C 0.03358 0.34847 0.94916 0.0
C1210 C 0.02231 0.35932 0.91712 0.0
C1211 C 0.03445 0.38411 0.90435 0.0
C1212 C 0.01769 0.39123 0.87117 0.0
C1213 C 0.01358 0.40935 0.90954 0.0
C1214 C 0.02789 0.40174 0.80758 0.0
C1215 C 0.99437 0.3665 0.86648 0.0
C1216 C 0.99757 0.34834 0.89284 0.0
C1217 C 0.97918 0.32382 0.89158 0.0
C1218 C 0.95694 0.31765 0.86249 0.0
C1219 C 0.95304 0.33593 0.83595 0.0
C1220 C 0.97197 0.36072 0.83849 0.0
H1221 H 0.64773 0.95921 0.93933 0.0
H1222 H 0.58491 0.92834 0.06103 0.0
H1223 H 0.60073 0.96855 0.11096 0.0
H1224 H 0.69165 0.9975 0.05324 0.0
H1225 H 0.70936 0.02239 1.0014 0.0
H1226 H 0.69257 0.99143 0.97298 0.0
H1227 H 0.67009 1.00445 0.89528 0.0
H1228 H 0.68671 0.03545 0.92374 0.0
H1229 H 0.65364 0.01925 0.92241 0.0
H1230 H 0.62292 0.01184 0.14768 0.0
H1231 H 0.65186 0.05469 0.1752 0.0
H1232 H 0.7017 0.05789 0.03344 0.0
C1233 C 0.6373 0.96097 0.97636 0.0
C1234 C 0.61502 0.94059 0.99612 0.0
C1235 C 0.60203 0.9436 0.04514 0.0
C1236 C 0.61081 0.96643 0.07365 0.0
C1237 C 0.63275 0.98612 0.0531 0.0
C1238 C 0.646 0.98363 1.00608 0.0
C1239 C 0.66965 0.00757 0.99499 0.0
C1240 C 0.69213 1.00454 1.00635 0.0
C1241 C 0.67003 0.01725 0.93026 0.0
C1242 C 0.6676 0.02383 0.04326 0.0
C1243 C 0.646 0.01109 0.07567 0.0
C1244 C 0.63991 0.02201 0.12268 0.0
C1245 C 0.65651 0.04646 0.13786 0.0
C1246 C 0.67916 0.05981 0.10661 0.0
C1247 C 0.68456 0.0483 0.05816 0.0
H1248 H 0.6424 0.60054 0.14785 0.0
H1249 H 0.71933 0.64684 0.19339 0.0
H1250 H 0.70992 0.67626 0.24413 0.0
H1251 H 0.63219 0.64994 0.10967 0.0
H1252 H 0.60147 0.63564 0.13987 0.0
H1253 H 0.61369 0.61699 0.11184 0.0
H1254 H 0.60461 0.59464 0.21603 0.0
H1255 H 0.59222 0.61313 0.24421 0.0
H1256 H 0.61669 0.61229 0.28518 0.0
H1257 H 0.69221 0.70049 0.2909 0.0
H1258 H 0.66785 0.71949 0.32368 0.0
H1259 H 0.60299 0.6597 0.23973 0.0
C1260 C 0.65713 0.61667 0.16951 0.0
C1261 C 0.68155 0.62126 0.16767 0.0
C1262 C 0.70049 0.64291 0.19482 0.0
C1263 C 0.69531 0.6597 0.22376 0.0
C1264 C 0.67114 0.65485 0.22427 0.0
C1265 C 0.65236 0.63399 0.19739 0.0
C1266 C 0.62826 0.63405 0.201 0.0
C1267 C 0.61833 0.63417 0.13677 0.0
C1268 C 0.60933 0.61223 0.23887 0.0
C1269 C 0.63647 0.65816 0.23398 0.0
C1270 C 0.6612 0.66966 0.24781 0.0
C1271 C 0.67287 0.69176 0.27992 0.0
C1272 C 0.6589 0.70241 0.29836 0.0
C1273 C 0.63366 0.69125 0.28357 0.0
C1274 C 0.62237 0.66886 0.25076 0.0
H1275 H 0.0611 0.69305 0.35469 0.0
H1276 H 0.07596 0.63315 0.33617 0.0
H1277 H 0.03316 0.60372 0.36653 0.0
H1278 H 0.02361 0.66866 0.49173 0.0
H1279 H 1.00324 0.67991 0.47108 0.0
H1280 H 0.03467 0.69591 0.44584 0.0
H1281 H 0.01995 0.69218 0.33358 0.0
H1282 H 0.98847 0.67597 0.35843 0.0
H1283 H 0.99907 0.66234 0.30247 0.0
H1284 H 0.98766 0.58068 0.39116 0.0
H1285 H 0.94506 0.56633 0.42557 0.0
H1286 H 0.96148 0.64167 0.4406 0.0
C1287 C 0.05529 0.67373 0.35749 0.0
C1288 C 0.07161 0.6652 0.343 0.0
C1289 C 0.06363 0.63991 0.34748 0.0
C1290 C 0.03936 0.62311 0.36425 0.0
C1291 C 0.02356 0.63203 0.3778 0.0
C1292 C 0.03138 0.65682 0.37617 0.0
C1293 C 0.01119 0.66176 0.39626 0.0
C1294 C 0.01862 0.67749 0.4547 0.0
C1295 C 1.00427 0.67377 0.34459 0.0
C1296 C 0.99067 0.63589 0.40862 0.0
C1297 C 0.99801 0.61895 0.39651 0.0
C1298 C 0.98183 0.5938 0.40161 0.0
C1299 C 0.95767 0.58581 0.42075 0.0
C1300 C 0.95018 0.60293 0.43594 0.0
C1301 C 0.96689 0.62825 0.42968 0.0
H1302 H 0.37177 0.06084 0.56241 0.0
H1303 H 0.42018 0.05924 0.42337 0.0
H1304 H 0.40642 0.0162 0.44887 0.0
H1305 H 0.38043 0.02206 0.6727 0.0
H1306 H 0.34893 0.00701 0.69751 0.0
H1307 H 0.36338 0.03809 0.67004 0.0
H1308 H 0.32868 0.02532 0.58989 0.0
H1309 H 0.31424 0.99418 0.6168 0.0
H1310 H 0.32222 1.00076 0.53722 0.0
H1311 H 0.38545 0.97231 0.48504 0.0
H1312 H 0.36091 0.93188 0.53444 0.0
H1313 H 0.327 0.96231 0.65148 0.0
C1314 C 0.37972 0.05156 0.53783 0.0
C1315 C 0.39711 0.06356 0.49086 0.0
C1316 C 0.40693 0.0506 0.45968 0.0
C1317 C 0.39917 0.02606 0.47371 0.0
C1318 C 0.3817 0.01467 0.51941 0.0
C1319 C 0.3723 0.02706 0.55151 0.0
C1320 C 0.35353 0.01046 0.59812 0.0
C1321 C 0.36209 0.01998 0.66346 0.0
C1322 C 0.32817 0.00751 0.58467 0.0
C1323 C 0.35365 0.98677 0.58664 0.0
C1324 C 0.36996 0.98954 0.54094 0.0
C1325 C 0.37275 0.96998 0.52124 0.0
C1326 C 0.35865 0.94705 0.54936 0.0
C1327 C 0.34207 0.94388 0.59693 0.0
C1328 C 0.33962 0.96411 0.61554 0.0
H1329 H 0.3141 0.36223 0.71353 0.0
H1330 H 0.35559 0.39978 0.55139 0.0
H1331 H 0.3863 0.3878 0.57654 0.0
H1332 H 0.36684 0.37873 0.81073 0.0
H1333 H 0.35293 0.34968 0.84978 0.0
H1334 H 0.33397 0.36117 0.81933 0.0
H1335 H 0.30911 0.32113 0.75697 0.0
H1336 H 0.32799 0.30954 0.78728 0.0
H1337 H 0.32497 0.31131 0.70574 0.0
H1338 H 0.41231 0.37104 0.61759 0.0
H1339 H 0.43206 0.35133 0.67346 0.0
H1340 H 0.37448 0.32537 0.81011 0.0
C1341 C 0.32963 0.36792 0.68331 0.0
C1342 C 0.33233 0.38199 0.63042 0.0
C1343 C 0.35304 0.38911 0.5923 0.0
C1344 C 0.37064 0.38235 0.60611 0.0
C1345 C 0.36746 0.36853 0.65845 0.0
C1346 C 0.34754 0.36145 0.69664 0.0
C1347 C 0.34864 0.34672 0.75022 0.0
C1348 C 0.35072 0.35987 0.81112 0.0
C1349 C 0.32635 0.32063 0.75001 0.0
C1350 C 0.37215 0.34653 0.73584 0.0
C1351 C 0.38269 0.35917 0.68264 0.0
C1352 C 0.40427 0.36115 0.65947 0.0
C1353 C 0.41535 0.34986 0.69148 0.0
C1354 C 0.40492 0.33685 0.74626 0.0
C1355 C 0.38305 0.33531 0.76861 0.0
loop_
_geom_bond_atom_site_label_1
_geom_bond_atom_site_label_2
_geom_bond_distance
_geom_bond_site_symmetry_2
_ccdc_geom_bond_type
Co0 O2 2.143 . S
Co0 O8 2.074 1_554 S
Co0 O11 2.093 . S
Co0 O24 2.097 . S
Co0 N41 2.151 1_554 S
Co0 N49 2.214 . S
Co1 O2 2.160 . S
Co1 O7 2.058 1_554 S
Co1 O17 2.057 . S
Co1 O32 2.037 . S
Co1 N36 2.145 . S
Co1 N57 2.257 . S
O2 Co0 2.143 . S
O2 Co1 2.160 . S
C3 O4 1.278 . S
C3 O11 1.224 . S
O4 C3 1.278 . S
C5 O6 1.245 . S
C5 O17 1.232 1_556 S
O6 C5 1.245 . S
O7 Co1 2.058 1_556 S
O7 C33 1.269 . S
O8 Co0 2.074 1_556 S
O8 C33 1.257 . S
H9 C34 0.930 . S
H10 C40 0.930 . S
O11 Co0 2.093 . S
O11 C3 1.224 . S
H12 C44 0.929 . S
H13 C46 0.930 . S
H14 C47 0.930 . S
H15 C45 0.929 . S
H16 C48 0.928 . S
O17 Co1 2.057 . S
O17 C5 1.232 1_554 S
H18 C37 0.929 . S
H19 C38 0.929 . S
H20 C50 0.931 . S
H21 C42 0.929 . S
H22 C51 0.930 . S
H23 C43 0.931 . S
O24 Co0 2.097 . S
O24 C52 1.214 . S
H25 C53 0.929 . S
H26 C54 0.929 . S
H27 C55 0.930 . S
H28 C56 0.929 . S
H29 C58 0.930 . S
H30 C35 0.930 . S
H31 C39 0.930 . S
O32 Co1 2.037 . S
O32 C52 1.234 . S
C33 O7 1.269 . S
C33 O8 1.257 . S
C34 H9 0.930 . S
C34 C37 1.388 . S
C34 C39 1.418 . S
C35 H30 0.930 . S
C35 C38 1.404 . S
C35 C39 1.353 . S
N36 Co1 2.145 . S
N36 C37 1.397 . S
N36 C38 1.334 . S
C37 H18 0.929 . S
C37 C34 1.388 . S
C37 N36 1.397 . S
C38 H19 0.929 . S
C38 C35 1.404 . S
C38 N36 1.334 . S
C39 H31 0.930 . S
C39 C34 1.418 . S
C39 C35 1.353 . S
C40 H10 0.930 . S
C40 N41 1.330 . S
C40 C42 1.446 . S
N41 Co0 2.151 1_556 S
N41 C40 1.330 . S
N41 C45 1.418 . S
C42 H21 0.929 . S
C42 C40 1.446 . S
C42 C43 1.332 . S
C43 H23 0.931 . S
C43 C42 1.332 . S
C43 C44 1.267 . S
C44 H12 0.929 . S
C44 C43 1.267 . S
C44 C45 1.251 . S
C45 H15 0.929 . S
C45 N41 1.418 . S
C45 C44 1.251 . S
C46 H13 0.930 . S
C46 C48 1.406 . S
C46 C51 1.261 . S
C47 H14 0.930 . S
C47 N49 1.325 . S
C47 C50 1.357 . S
C48 H16 0.928 . S
C48 C46 1.406 . S
C48 N49 1.261 . S
N49 Co0 2.214 . S
N49 C47 1.325 . S
N49 C48 1.261 . S
C50 H20 0.931 . S
C50 C47 1.357 . S
C50 C51 1.312 . S
C51 H22 0.930 . S
C51 C46 1.261 . S
C51 C50 1.312 . S
C52 O24 1.214 . S
C52 O32 1.234 . S
C53 H25 0.929 . S
C53 C56 1.391 . S
C53 C58 1.391 . S
C54 H26 0.929 . S
C54 C55 1.390 . S
C54 N57 1.391 . S
C55 H27 0.930 . S
C55 C54 1.390 . S
C55 C56 1.392 . S
C56 H28 0.929 . S
C56 C53 1.391 . S
C56 C55 1.392 . S
N57 Co1 2.257 . S
N57 C54 1.391 . S
N57 C58 1.388 . S
C58 H29 0.930 . S
C58 C53 1.391 . S
C58 N57 1.388 . S
Co59 O61 2.143 . S
Co59 O67 2.074 . S
Co59 O70 2.093 . S
Co59 O83 2.097 . S
Co59 N100 2.151 . S
Co59 N108 2.214 . S
Co60 O61 2.160 . S
Co60 O66 2.058 . S
Co60 O76 2.057 . S
Co60 O91 2.037 . S
Co60 N95 2.145 . S
Co60 N116 2.257 . S
O61 Co59 2.143 . S
O61 Co60 2.160 . S
C62 O63 1.278 . S
C62 O70 1.224 . S
O63 C62 1.278 . S
C64 O65 1.245 . S
C64 O76 1.232 . S
O65 C64 1.245 . S
O66 Co60 2.058 . S
O66 C92 1.269 . S
O67 Co59 2.074 . S
O67 C92 1.257 . S
H68 C93 0.930 . S
H69 C99 0.930 . S
O70 Co59 2.093 . S
O70 C62 1.224 . S
H71 C103 0.929 . S
H72 C105 0.930 . S
H73 C106 0.930 . S
H74 C104 0.929 . S
H75 C107 0.928 . S
O76 Co60 2.057 . S
O76 C64 1.232 . S
H77 C96 0.929 . S
H78 C97 0.929 . S
H79 C109 0.931 . S
H80 C101 0.929 . S
H81 C110 0.930 . S
H82 C102 0.931 1_556 S
O83 Co59 2.097 . S
O83 C111 1.214 . S
H84 C112 0.929 . S
H85 C113 0.929 . S
H86 C114 0.930 . S
H87 C115 0.929 . S
H88 C117 0.930 . S
H89 C94 0.930 . S
H90 C98 0.930 . S
O91 Co60 2.037 . S
O91 C111 1.234 . S
C92 O66 1.269 . S
C92 O67 1.257 . S
C93 H68 0.930 . S
C93 C96 1.388 . S
C93 C98 1.418 . S
C94 H89 0.930 . S
C94 C97 1.404 . S
C94 C98 1.353 . S
N95 Co60 2.145 . S
N95 C96 1.397 . S
N95 C97 1.334 . S
C96 H77 0.929 . S
C96 C93 1.388 . S
C96 N95 1.397 . S
C97 H78 0.929 . S
C97 C94 1.404 . S
C97 N95 1.334 . S
C98 H90 0.930 . S
C98 C93 1.418 . S
C98 C94 1.353 . S
C99 H69 0.930 . S
C99 N100 1.330 . S
C99 C101 1.446 . S
N100 Co59 2.151 . S
N100 C99 1.330 . S
N100 C104 1.418 . S
C101 H80 0.929 . S
C101 C99 1.446 . S
C101 C102 1.332 . S
C102 H82 0.931 1_554 S
C102 C101 1.332 . S
C102 C103 1.267 . S
C103 H71 0.929 . S
C103 C102 1.267 . S
C103 C104 1.251 . S
C104 H74 0.929 . S
C104 N100 1.418 . S
C104 C103 1.251 . S
C105 H72 0.930 . S
C105 C107 1.406 . S
C105 C110 1.261 . S
C106 H73 0.930 . S
C106 N108 1.325 . S
C106 C109 1.357 . S
C107 H75 0.928 . S
C107 C105 1.406 . S
C107 N108 1.261 . S
N108 Co59 2.214 . S
N108 C106 1.325 . S
N108 C107 1.261 . S
C109 H79 0.931 . S
C109 C106 1.357 . S
C109 C110 1.312 . S
C110 H81 0.930 . S
C110 C105 1.261 . S
C110 C109 1.312 . S
C111 O83 1.214 . S
C111 O91 1.234 . S
C112 H84 0.929 . S
C112 C115 1.391 . S
C112 C117 1.391 . S
C113 H85 0.929 . S
C113 C114 1.390 . S
C113 N116 1.391 . S
C114 H86 0.930 . S
C114 C113 1.390 . S
C114 C115 1.392 . S
C115 H87 0.929 . S
C115 C112 1.391 . S
C115 C114 1.392 . S
N116 Co60 2.257 . S
N116 C113 1.391 . S
N116 C117 1.388 . S
C117 H88 0.930 . S
C117 C112 1.391 . S
C117 N116 1.388 . S
Co118 O120 2.143 . S
Co118 O126 2.074 . S
Co118 O129 2.093 . S
Co118 O142 2.097 . S
Co118 N159 2.151 . S
Co118 N167 2.214 . S
Co119 O120 2.160 . S
Co119 O125 2.058 . S
Co119 O135 2.057 . S
Co119 O150 2.037 . S
Co119 N154 2.145 . S
Co119 N175 2.257 . S
O120 Co118 2.143 . S
O120 Co119 2.160 . S
C121 O122 1.278 . S
C121 O129 1.224 . S
O122 C121 1.278 . S
C123 O124 1.245 . S
C123 O135 1.232 . S
O124 C123 1.245 . S
O125 Co119 2.058 . S
O125 C151 1.269 . S
O126 Co118 2.074 . S
O126 C151 1.257 . S
H127 C152 0.930 . S
H128 C158 0.930 . S
O129 Co118 2.093 . S
O129 C121 1.224 . S
H130 C162 0.929 . S
H131 C164 0.930 . S
H132 C165 0.930 . S
H133 C163 0.929 . S
H134 C166 0.928 . S
O135 Co119 2.057 . S
O135 C123 1.232 . S
H136 C155 0.929 . S
H137 C156 0.929 . S
H138 C168 0.931 . S
H139 C160 0.929 . S
H140 C169 0.930 . S
H141 C161 0.931 . S
O142 Co118 2.097 . S
O142 C170 1.214 . S
H143 C171 0.929 . S
H144 C172 0.929 . S
H145 C173 0.930 . S
H146 C174 0.929 . S
H147 C176 0.930 . S
H148 C153 0.930 . S
H149 C157 0.930 . S
O150 Co119 2.037 . S
O150 C170 1.234 . S
C151 O125 1.269 . S
C151 O126 1.257 . S
C152 H127 0.930 . S
C152 C155 1.388 . S
C152 C157 1.418 . S
C153 H148 0.930 . S
C153 C156 1.404 . S
C153 C157 1.353 . S
N154 Co119 2.145 . S
N154 C155 1.397 . S
N154 C156 1.334 . S
C155 H136 0.929 . S
C155 C152 1.388 . S
C155 N154 1.397 . S
C156 H137 0.929 . S
C156 C153 1.404 . S
C156 N154 1.334 . S
C157 H149 0.930 . S
C157 C152 1.418 . S
C157 C153 1.353 . S
C158 H128 0.930 . S
C158 N159 1.330 . S
C158 C160 1.446 . S
N159 Co118 2.151 . S
N159 C158 1.330 . S
N159 C163 1.418 . S
C160 H139 0.929 . S
C160 C158 1.446 . S
C160 C161 1.332 . S
C161 H141 0.931 . S
C161 C160 1.332 . S
C161 C162 1.267 . S
C162 H130 0.929 . S
C162 C161 1.267 . S
C162 C163 1.251 . S
C163 H133 0.929 . S
C163 N159 1.418 . S
C163 C162 1.251 . S
C164 H131 0.930 . S
C164 C166 1.406 . S
C164 C169 1.261 . S
C165 H132 0.930 . S
C165 N167 1.325 . S
C165 C168 1.357 . S
C166 H134 0.928 . S
C166 C164 1.406 . S
C166 N167 1.261 . S
N167 Co118 2.214 . S
N167 C165 1.325 . S
N167 C166 1.261 . S
C168 H138 0.931 . S
C168 C165 1.357 . S
C168 C169 1.312 . S
C169 H140 0.930 . S
C169 C164 1.261 . S
C169 C168 1.312 . S
C170 O142 1.214 . S
C170 O150 1.234 . S
C171 H143 0.929 . S
C171 C174 1.391 . S
C171 C176 1.391 . S
C172 H144 0.929 . S
C172 C173 1.390 . S
C172 N175 1.391 . S
C173 H145 0.930 . S
C173 C172 1.390 . S
C173 C174 1.392 . S
C174 H146 0.929 . S
C174 C171 1.391 . S
C174 C173 1.392 . S
N175 Co119 2.257 . S
N175 C172 1.391 . S
N175 C176 1.388 . S
C176 H147 0.930 . S
C176 C171 1.391 . S
C176 N175 1.388 . S
Co177 O179 2.143 . S
Co177 O185 2.074 . S
Co177 O188 2.093 . S
Co177 O201 2.097 . S
Co177 N218 2.151 . S
Co177 N226 2.214 . S
Co178 O179 2.160 . S
Co178 O184 2.058 . S
Co178 O194 2.057 . S
Co178 O209 2.037 . S
Co178 N213 2.145 . S
Co178 N234 2.257 . S
O179 Co177 2.143 . S
O179 Co178 2.160 . S
C180 O181 1.278 . S
C180 O188 1.224 . S
O181 C180 1.278 . S
C182 O183 1.245 . S
C182 O194 1.232 . S
O183 C182 1.245 . S
O184 Co178 2.058 . S
O184 C210 1.269 . S
O185 Co177 2.074 . S
O185 C210 1.257 . S
H186 C211 0.930 . S
H187 C217 0.930 . S
O188 Co177 2.093 . S
O188 C180 1.224 . S
H189 C221 0.929 . S
H190 C223 0.930 . S
H191 C224 0.930 . S
H192 C222 0.929 . S
H193 C225 0.928 . S
O194 Co178 2.057 . S
O194 C182 1.232 . S
H195 C214 0.929 . S
H196 C215 0.929 . S
H197 C227 0.931 . S
H198 C219 0.929 . S
H199 C228 0.930 . S
H200 C220 0.931 . S
O201 Co177 2.097 . S
O201 C229 1.214 . S
H202 C230 0.929 . S
H203 C231 0.929 . S
H204 C232 0.930 . S
H205 C233 0.929 . S
H206 C235 0.930 . S
H207 C212 0.930 . S
H208 C216 0.930 . S
O209 Co178 2.037 . S
O209 C229 1.234 . S
C210 O184 1.269 . S
C210 O185 1.257 . S
C211 H186 0.930 . S
C211 C214 1.388 . S
C211 C216 1.418 . S
C212 H207 0.930 . S
C212 C215 1.404 . S
C212 C216 1.353 . S
N213 Co178 2.145 . S
N213 C214 1.397 . S
N213 C215 1.334 . S
C214 H195 0.929 . S
C214 C211 1.388 . S
C214 N213 1.397 . S
C215 H196 0.929 . S
C215 C212 1.404 . S
C215 N213 1.334 . S
C216 H208 0.930 . S
C216 C211 1.418 . S
C216 C212 1.353 . S
C217 H187 0.930 . S
C217 N218 1.330 . S
C217 C219 1.446 . S
N218 Co177 2.151 . S
N218 C217 1.330 . S
N218 C222 1.418 . S
C219 H198 0.929 . S
C219 C217 1.446 . S
C219 C220 1.332 . S
C220 H200 0.931 . S
C220 C219 1.332 . S
C220 C221 1.267 . S
C221 H189 0.929 . S
C221 C220 1.267 . S
C221 C222 1.251 . S
C222 H192 0.929 . S
C222 N218 1.418 . S
C222 C221 1.251 . S
C223 H190 0.930 . S
C223 C225 1.406 . S
C223 C228 1.261 . S
C224 H191 0.930 . S
C224 N226 1.325 . S
C224 C227 1.357 . S
C225 H193 0.928 . S
C225 C223 1.406 . S
C225 N226 1.261 . S
N226 Co177 2.214 . S
N226 C224 1.325 . S
N226 C225 1.261 . S
C227 H197 0.931 . S
C227 C224 1.357 . S
C227 C228 1.312 . S
C228 H199 0.930 . S
C228 C223 1.261 . S
C228 C227 1.312 . S
C229 O201 1.214 . S
C229 O209 1.234 . S
C230 H202 0.929 . S
C230 C233 1.391 . S
C230 C235 1.391 . S
C231 H203 0.929 . S
C231 C232 1.390 . S
C231 N234 1.391 . S
C232 H204 0.930 . S
C232 C231 1.390 . S
C232 C233 1.392 . S
C233 H205 0.929 . S
C233 C230 1.391 . S
C233 C232 1.392 . S
N234 Co178 2.257 . S
N234 C231 1.391 . S
N234 C235 1.388 . S
C235 H206 0.930 . S
C235 C230 1.391 . S
C235 N234 1.388 . S
Co236 O238 2.143 . S
Co236 O244 2.074 . S
Co236 O247 2.093 . S
Co236 O260 2.097 . S
Co236 N277 2.151 . S
Co236 N285 2.214 . S
Co237 O238 2.160 . S
Co237 O243 2.058 . S
Co237 O253 2.057 . S
Co237 O268 2.037 . S
Co237 N272 2.145 . S
Co237 N293 2.257 . S
O238 Co236 2.143 . S
O238 Co237 2.160 . S
C239 O240 1.278 . S
C239 O247 1.224 . S
O240 C239 1.278 . S
C241 O242 1.245 . S
C241 O253 1.232 . S
O242 C241 1.245 . S
O243 Co237 2.058 . S
O243 C269 1.269 . S
O244 Co236 2.074 . S
O244 C269 1.257 . S
H245 C270 0.930 . S
H246 C276 0.930 . S
O247 Co236 2.093 . S
O247 C239 1.224 . S
H248 C280 0.929 . S
H249 C282 0.930 . S
H250 C283 0.930 . S
H251 C281 0.929 . S
H252 C284 0.928 . S
O253 Co237 2.057 . S
O253 C241 1.232 . S
H254 C273 0.929 . S
H255 C274 0.929 . S
H256 C286 0.931 . S
H257 C278 0.929 . S
H258 C287 0.930 . S
H259 C279 0.931 . S
O260 Co236 2.097 . S
O260 C288 1.214 . S
H261 C289 0.929 . S
H262 C290 0.929 . S
H263 C291 0.930 . S
H264 C292 0.929 . S
H265 C294 0.930 . S
H266 C271 0.930 . S
H267 C275 0.930 . S
O268 Co237 2.037 . S
O268 C288 1.234 . S
C269 O243 1.269 . S
C269 O244 1.257 . S
C270 H245 0.930 . S
C270 C273 1.388 . S
C270 C275 1.418 . S
C271 H266 0.930 . S
C271 C274 1.404 . S
C271 C275 1.353 . S
N272 Co237 2.145 . S
N272 C273 1.397 . S
N272 C274 1.334 . S
C273 H254 0.929 . S
C273 C270 1.388 . S
C273 N272 1.397 . S
C274 H255 0.929 . S
C274 C271 1.404 . S
C274 N272 1.334 . S
C275 H267 0.930 . S
C275 C270 1.418 . S
C275 C271 1.353 . S
C276 H246 0.930 . S
C276 N277 1.330 . S
C276 C278 1.446 . S
N277 Co236 2.151 . S
N277 C276 1.330 . S
N277 C281 1.418 . S
C278 H257 0.929 . S
C278 C276 1.446 . S
C278 C279 1.332 . S
C279 H259 0.931 . S
C279 C278 1.332 . S
C279 C280 1.267 . S
C280 H248 0.929 . S
C280 C279 1.267 . S
C280 C281 1.251 . S
C281 H251 0.929 . S
C281 N277 1.418 . S
C281 C280 1.251 . S
C282 H249 0.930 . S
C282 C284 1.406 . S
C282 C287 1.261 . S
C283 H250 0.930 . S
C283 N285 1.325 . S
C283 C286 1.357 . S
C284 H252 0.928 . S
C284 C282 1.406 . S
C284 N285 1.261 . S
N285 Co236 2.214 . S
N285 C283 1.325 . S
N285 C284 1.261 . S
C286 H256 0.931 . S
C286 C283 1.357 . S
C286 C287 1.312 . S
C287 H258 0.930 . S
C287 C282 1.261 . S
C287 C286 1.312 . S
C288 O260 1.214 . S
C288 O268 1.234 . S
C289 H261 0.929 . S
C289 C292 1.391 . S
C289 C294 1.391 . S
C290 H262 0.929 . S
C290 C291 1.390 . S
C290 N293 1.391 . S
C291 H263 0.930 . S
C291 C290 1.390 . S
C291 C292 1.392 . S
C292 H264 0.929 . S
C292 C289 1.391 . S
C292 C291 1.392 . S
N293 Co237 2.257 . S
N293 C290 1.391 . S
N293 C294 1.388 . S
C294 H265 0.930 . S
C294 C289 1.391 . S
C294 N293 1.388 . S
Co295 O297 2.143 . S
Co295 O303 2.074 . S
Co295 O306 2.093 . S
Co295 O319 2.097 . S
Co295 N336 2.151 . S
Co295 N344 2.214 . S
Co296 O297 2.160 . S
Co296 O302 2.058 . S
Co296 O312 2.057 . S
Co296 O327 2.037 . S
Co296 N331 2.145 . S
Co296 N352 2.257 . S
O297 Co295 2.143 . S
O297 Co296 2.160 . S
C298 O299 1.278 . S
C298 O306 1.224 . S
O299 C298 1.278 . S
C300 O301 1.245 . S
C300 O312 1.232 . S
O301 C300 1.245 . S
O302 Co296 2.058 . S
O302 C328 1.269 . S
O303 Co295 2.074 . S
O303 C328 1.257 . S
H304 C329 0.930 . S
H305 C335 0.930 . S
O306 Co295 2.093 . S
O306 C298 1.224 . S
H307 C339 0.929 . S
H308 C341 0.930 . S
H309 C342 0.930 . S
H310 C340 0.929 . S
H311 C343 0.928 . S
O312 Co296 2.057 . S
O312 C300 1.232 . S
H313 C332 0.929 . S
H314 C333 0.929 . S
H315 C345 0.931 . S
H316 C337 0.929 . S
H317 C346 0.930 . S
H318 C338 0.931 . S
O319 Co295 2.097 . S
O319 C347 1.214 . S
H320 C348 0.929 . S
H321 C349 0.929 . S
H322 C350 0.930 . S
H323 C351 0.929 . S
H324 C353 0.930 . S
H325 C330 0.930 . S
H326 C334 0.930 . S
O327 Co296 2.037 . S
O327 C347 1.234 . S
C328 O302 1.269 . S
C328 O303 1.257 . S
C329 H304 0.930 . S
C329 C332 1.388 . S
C329 C334 1.418 . S
C330 H325 0.930 . S
C330 C333 1.404 . S
C330 C334 1.353 . S
N331 Co296 2.145 . S
N331 C332 1.397 . S
N331 C333 1.334 . S
C332 H313 0.929 . S
C332 C329 1.388 . S
C332 N331 1.397 . S
C333 H314 0.929 . S
C333 C330 1.404 . S
C333 N331 1.334 . S
C334 H326 0.930 . S
C334 C329 1.418 . S
C334 C330 1.353 . S
C335 H305 0.930 . S
C335 N336 1.330 . S
C335 C337 1.446 1_556 S
N336 Co295 2.151 . S
N336 C335 1.330 . S
N336 C340 1.418 1_556 S
C337 H316 0.929 . S
C337 C335 1.446 1_554 S
C337 C338 1.332 . S
C338 H318 0.931 . S
C338 C337 1.332 . S
C338 C339 1.267 . S
C339 H307 0.929 . S
C339 C338 1.267 . S
C339 C340 1.251 . S
C340 H310 0.929 . S
C340 N336 1.418 1_554 S
C340 C339 1.251 . S
C341 H308 0.930 . S
C341 C343 1.406 . S
C341 C346 1.261 . S
C342 H309 0.930 . S
C342 N344 1.325 . S
C342 C345 1.357 . S
C343 H311 0.928 . S
C343 C341 1.406 . S
C343 N344 1.261 . S
N344 Co295 2.214 . S
N344 C342 1.325 . S
N344 C343 1.261 . S
C345 H315 0.931 . S
C345 C342 1.357 . S
C345 C346 1.312 . S
C346 H317 0.930 . S
C346 C341 1.261 . S
C346 C345 1.312 . S
C347 O319 1.214 . S
C347 O327 1.234 . S
C348 H320 0.929 . S
C348 C351 1.391 . S
C348 C353 1.391 . S
C349 H321 0.929 . S
C349 C350 1.390 . S
C349 N352 1.391 . S
C350 H322 0.930 . S
C350 C349 1.390 . S
C350 C351 1.392 . S
C351 H323 0.929 . S
C351 C348 1.391 . S
C351 C350 1.392 . S
N352 Co296 2.257 . S
N352 C349 1.391 . S
N352 C353 1.388 . S
C353 H324 0.930 . S
C353 C348 1.391 . S
C353 N352 1.388 . S
Co354 O356 2.143 . S
Co354 O362 2.074 . S
Co354 O365 2.093 . S
Co354 O378 2.097 . S
Co354 N395 2.151 . S
Co354 N403 2.214 . S
Co355 O356 2.160 . S
Co355 O361 2.058 . S
Co355 O371 2.057 . S
Co355 O386 2.037 . S
Co355 N390 2.145 . S
Co355 N411 2.257 . S
O356 Co354 2.143 . S
O356 Co355 2.160 . S
C357 O358 1.278 . S
C357 O365 1.224 . S
O358 C357 1.278 . S
C359 O360 1.245 . S
C359 O371 1.232 . S
O360 C359 1.245 . S
O361 Co355 2.058 . S
O361 C387 1.269 . S
O362 Co354 2.074 . S
O362 C387 1.257 . S
H363 C388 0.930 . S
H364 C394 0.930 . S
O365 Co354 2.093 . S
O365 C357 1.224 . S
H366 C398 0.929 . S
H367 C400 0.930 . S
H368 C401 0.930 . S
H369 C399 0.929 . S
H370 C402 0.928 . S
O371 Co355 2.057 . S
O371 C359 1.232 . S
H372 C391 0.929 . S
H373 C392 0.929 . S
H374 C404 0.931 . S
H375 C396 0.929 . S
H376 C405 0.930 . S
H377 C397 0.931 . S
O378 Co354 2.097 . S
O378 C406 1.214 . S
H379 C407 0.929 . S
H380 C408 0.929 . S
H381 C409 0.930 . S
H382 C410 0.929 . S
H383 C412 0.930 . S
H384 C389 0.930 . S
H385 C393 0.930 . S
O386 Co355 2.037 . S
O386 C406 1.234 . S
C387 O361 1.269 . S
C387 O362 1.257 . S
C388 H363 0.930 . S
C388 C391 1.388 . S
C388 C393 1.418 . S
C389 H384 0.930 . S
C389 C392 1.404 . S
C389 C393 1.353 . S
N390 Co355 2.145 . S
N390 C391 1.397 . S
N390 C392 1.334 . S
C391 H372 0.929 . S
C391 C388 1.388 . S
C391 N390 1.397 . S
C392 H373 0.929 . S
C392 C389 1.404 . S
C392 N390 1.334 . S
C393 H385 0.930 . S
C393 C388 1.418 . S
C393 C389 1.353 . S
C394 H364 0.930 . S
C394 N395 1.330 . S
C394 C396 1.446 1_556 S
N395 Co354 2.151 . S
N395 C394 1.330 . S
N395 C399 1.418 1_556 S
C396 H375 0.929 . S
C396 C394 1.446 1_554 S
C396 C397 1.332 . S
C397 H377 0.931 . S
C397 C396 1.332 . S
C397 C398 1.267 . S
C398 H366 0.929 . S
C398 C397 1.267 . S
C398 C399 1.251 . S
C399 H369 0.929 . S
C399 N395 1.418 1_554 S
C399 C398 1.251 . S
C400 H367 0.930 . S
C400 C402 1.406 . S
C400 C405 1.261 . S
C401 H368 0.930 . S
C401 N403 1.325 . S
C401 C404 1.357 . S
C402 H370 0.928 . S
C402 C400 1.406 . S
C402 N403 1.261 . S
N403 Co354 2.214 . S
N403 C401 1.325 . S
N403 C402 1.261 . S
C404 H374 0.931 . S
C404 C401 1.357 . S
C404 C405 1.312 . S
C405 H376 0.930 . S
C405 C400 1.261 . S
C405 C404 1.312 . S
C406 O378 1.214 . S
C406 O386 1.234 . S
C407 H379 0.929 . S
C407 C410 1.391 . S
C407 C412 1.391 . S
C408 H380 0.929 . S
C408 C409 1.390 . S
C408 N411 1.391 . S
C409 H381 0.930 . S
C409 C408 1.390 . S
C409 C410 1.392 . S
C410 H382 0.929 . S
C410 C407 1.391 . S
C410 C409 1.392 . S
N411 Co355 2.257 . S
N411 C408 1.391 . S
N411 C412 1.388 . S
C412 H383 0.930 . S
C412 C407 1.391 . S
C412 N411 1.388 . S
Co413 O415 2.143 . S
Co413 O421 2.074 . S
Co413 O424 2.093 . S
Co413 O437 2.097 1_554 S
Co413 N454 2.151 . S
Co413 N462 2.214 . S
Co414 O415 2.160 . S
Co414 O420 2.058 . S
Co414 O430 2.057 . S
Co414 O445 2.037 1_554 S
Co414 N449 2.145 . S
Co414 N470 2.257 1_554 S
O415 Co413 2.143 . S
O415 Co414 2.160 . S
C416 O417 1.278 . S
C416 O424 1.224 1_556 S
O417 C416 1.278 . S
C418 O419 1.245 . S
C418 O430 1.232 . S
O419 C418 1.245 . S
O420 Co414 2.058 . S
O420 C446 1.269 . S
O421 Co413 2.074 . S
O421 C446 1.257 . S
H422 C447 0.930 1_556 S
H423 C453 0.930 . S
O424 Co413 2.093 . S
O424 C416 1.224 1_554 S
H425 C457 0.929 . S
H426 C459 0.930 . S
H427 C460 0.930 . S
H428 C458 0.929 . S
H429 C461 0.928 . S
O430 Co414 2.057 . S
O430 C418 1.232 . S
H431 C450 0.929 . S
H432 C451 0.929 . S
H433 C463 0.931 . S
H434 C455 0.929 . S
H435 C464 0.930 . S
H436 C456 0.931 . S
O437 Co413 2.097 1_556 S
O437 C465 1.214 . S
H438 C466 0.929 . S
H439 C467 0.929 . S
H440 C468 0.930 . S
H441 C469 0.929 . S
H442 C471 0.930 . S
H443 C448 0.930 . S
H444 C452 0.930 1_556 S
O445 Co414 2.037 1_556 S
O445 C465 1.234 . S
C446 O420 1.269 . S
C446 O421 1.257 . S
C447 H422 0.930 1_554 S
C447 C450 1.388 . S
C447 C452 1.418 . S
C448 H443 0.930 . S
C448 C451 1.404 . S
C448 C452 1.353 . S
N449 Co414 2.145 . S
N449 C450 1.397 . S
N449 C451 1.334 . S
C450 H431 0.929 . S
C450 C447 1.388 . S
C450 N449 1.397 . S
C451 H432 0.929 . S
C451 C448 1.404 . S
C451 N449 1.334 . S
C452 H444 0.930 1_554 S
C452 C447 1.418 . S
C452 C448 1.353 . S
C453 H423 0.930 . S
C453 N454 1.330 . S
C453 C455 1.446 . S
N454 Co413 2.151 . S
N454 C453 1.330 . S
N454 C458 1.418 . S
C455 H434 0.929 . S
C455 C453 1.446 . S
C455 C456 1.332 . S
C456 H436 0.931 . S
C456 C455 1.332 . S
C456 C457 1.267 . S
C457 H425 0.929 . S
C457 C456 1.267 . S
C457 C458 1.251 . S
C458 H428 0.929 . S
C458 N454 1.418 . S
C458 C457 1.251 . S
C459 H426 0.930 . S
C459 C461 1.406 . S
C459 C464 1.261 . S
C460 H427 0.930 . S
C460 N462 1.325 . S
C460 C463 1.357 . S
C461 H429 0.928 . S
C461 C459 1.406 . S
C461 N462 1.261 . S
N462 Co413 2.214 . S
N462 C460 1.325 . S
N462 C461 1.261 . S
C463 H433 0.931 . S
C463 C460 1.357 . S
C463 C464 1.312 . S
C464 H435 0.930 . S
C464 C459 1.261 . S
C464 C463 1.312 . S
C465 O437 1.214 . S
C465 O445 1.234 . S
C466 H438 0.929 . S
C466 C469 1.391 . S
C466 C471 1.391 . S
C467 H439 0.929 . S
C467 C468 1.390 . S
C467 N470 1.391 . S
C468 H440 0.930 . S
C468 C467 1.390 . S
C468 C469 1.392 . S
C469 H441 0.929 . S
C469 C466 1.391 . S
C469 C468 1.392 . S
N470 Co414 2.257 1_556 S
N470 C467 1.391 . S
N470 C471 1.388 . S
C471 H442 0.930 . S
C471 C466 1.391 . S
C471 N470 1.388 . S
Co472 O474 2.143 . S
Co472 O480 2.074 . S
Co472 O483 2.093 . S
Co472 O496 2.097 . S
Co472 N513 2.151 . S
Co472 N521 2.214 . S
Co473 O474 2.160 . S
Co473 O479 2.058 . S
Co473 O489 2.057 . S
Co473 O504 2.037 . S
Co473 N508 2.145 . S
Co473 N529 2.257 . S
O474 Co472 2.143 . S
O474 Co473 2.160 . S
C475 O476 1.278 . S
C475 O483 1.224 . S
O476 C475 1.278 . S
C477 O478 1.245 . S
C477 O489 1.232 . S
O478 C477 1.245 . S
O479 Co473 2.058 . S
O479 C505 1.269 . S
O480 Co472 2.074 . S
O480 C505 1.257 . S
H481 C506 0.930 . S
H482 C512 0.930 . S
O483 Co472 2.093 . S
O483 C475 1.224 . S
H484 C516 0.929 . S
H485 C518 0.930 . S
H486 C519 0.930 . S
H487 C517 0.929 . S
H488 C520 0.928 . S
O489 Co473 2.057 . S
O489 C477 1.232 . S
H490 C509 0.929 . S
H491 C510 0.929 . S
H492 C522 0.931 . S
H493 C514 0.929 . S
H494 C523 0.930 . S
H495 C515 0.931 . S
O496 Co472 2.097 . S
O496 C524 1.214 . S
H497 C525 0.929 . S
H498 C526 0.929 . S
H499 C527 0.930 . S
H500 C528 0.929 . S
H501 C530 0.930 . S
H502 C507 0.930 . S
H503 C511 0.930 . S
O504 Co473 2.037 . S
O504 C524 1.234 . S
C505 O479 1.269 . S
C505 O480 1.257 . S
C506 H481 0.930 . S
C506 C509 1.388 . S
C506 C511 1.418 . S
C507 H502 0.930 . S
C507 C510 1.404 . S
C507 C511 1.353 . S
N508 Co473 2.145 . S
N508 C509 1.397 . S
N508 C510 1.334 . S
C509 H490 0.929 . S
C509 C506 1.388 . S
C509 N508 1.397 . S
C510 H491 0.929 . S
C510 C507 1.404 . S
C510 N508 1.334 . S
C511 H503 0.930 . S
C511 C506 1.418 . S
C511 C507 1.353 . S
C512 H482 0.930 . S
C512 N513 1.330 . S
C512 C514 1.446 . S
N513 Co472 2.151 . S
N513 C512 1.330 . S
N513 C517 1.418 . S
C514 H493 0.929 . S
C514 C512 1.446 . S
C514 C515 1.332 . S
C515 H495 0.931 . S
C515 C514 1.332 . S
C515 C516 1.267 . S
C516 H484 0.929 . S
C516 C515 1.267 . S
C516 C517 1.251 . S
C517 H487 0.929 . S
C517 N513 1.418 . S
C517 C516 1.251 . S
C518 H485 0.930 . S
C518 C520 1.406 . S
C518 C523 1.261 . S
C519 H486 0.930 . S
C519 N521 1.325 . S
C519 C522 1.357 . S
C520 H488 0.928 . S
C520 C518 1.406 . S
C520 N521 1.261 . S
N521 Co472 2.214 . S
N521 C519 1.325 . S
N521 C520 1.261 . S
C522 H492 0.931 . S
C522 C519 1.357 . S
C522 C523 1.312 . S
C523 H494 0.930 . S
C523 C518 1.261 . S
C523 C522 1.312 . S
C524 O496 1.214 . S
C524 O504 1.234 . S
C525 H497 0.929 . S
C525 C528 1.391 . S
C525 C530 1.391 . S
C526 H498 0.929 . S
C526 C527 1.390 . S
C526 N529 1.391 . S
C527 H499 0.930 . S
C527 C526 1.390 . S
C527 C528 1.392 . S
C528 H500 0.929 . S
C528 C525 1.391 . S
C528 C527 1.392 . S
N529 Co473 2.257 . S
N529 C526 1.391 . S
N529 C530 1.388 . S
C530 H501 0.930 . S
C530 C525 1.391 . S
C530 N529 1.388 . S
Co531 O533 2.143 . S
Co531 O539 2.074 . S
Co531 O542 2.093 . S
Co531 O555 2.097 . S
Co531 N572 2.151 . S
Co531 N580 2.214 . S
Co532 O533 2.160 . S
Co532 O538 2.058 . S
Co532 O548 2.057 . S
Co532 O563 2.037 . S
Co532 N567 2.145 . S
Co532 N588 2.257 . S
O533 Co531 2.143 . S
O533 Co532 2.160 . S
C534 O535 1.278 . S
C534 O542 1.224 . S
O535 C534 1.278 . S
C536 O537 1.245 . S
C536 O548 1.232 . S
O537 C536 1.245 . S
O538 Co532 2.058 . S
O538 C564 1.269 . S
O539 Co531 2.074 . S
O539 C564 1.257 . S
H540 C565 0.930 . S
H541 C571 0.930 . S
O542 Co531 2.093 . S
O542 C534 1.224 . S
H543 C575 0.929 . S
H544 C577 0.930 . S
H545 C578 0.930 . S
H546 C576 0.929 . S
H547 C579 0.928 . S
O548 Co532 2.057 . S
O548 C536 1.232 . S
H549 C568 0.929 . S
H550 C569 0.929 . S
H551 C581 0.931 . S
H552 C573 0.929 . S
H553 C582 0.930 . S
H554 C574 0.931 . S
O555 Co531 2.097 . S
O555 C583 1.214 . S
H556 C584 0.929 . S
H557 C585 0.929 . S
H558 C586 0.930 . S
H559 C587 0.929 . S
H560 C589 0.930 . S
H561 C566 0.930 . S
H562 C570 0.930 . S
O563 Co532 2.037 . S
O563 C583 1.234 . S
C564 O538 1.269 . S
C564 O539 1.257 . S
C565 H540 0.930 . S
C565 C568 1.388 . S
C565 C570 1.418 . S
C566 H561 0.930 . S
C566 C569 1.404 . S
C566 C570 1.353 . S
N567 Co532 2.145 . S
N567 C568 1.397 . S
N567 C569 1.334 . S
C568 H549 0.929 . S
C568 C565 1.388 . S
C568 N567 1.397 . S
C569 H550 0.929 . S
C569 C566 1.404 . S
C569 N567 1.334 . S
C570 H562 0.930 . S
C570 C565 1.418 . S
C570 C566 1.353 . S
C571 H541 0.930 . S
C571 N572 1.330 . S
C571 C573 1.446 . S
N572 Co531 2.151 . S
N572 C571 1.330 . S
N572 C576 1.418 . S
C573 H552 0.929 . S
C573 C571 1.446 . S
C573 C574 1.332 . S
C574 H554 0.931 . S
C574 C573 1.332 . S
C574 C575 1.267 . S
C575 H543 0.929 . S
C575 C574 1.267 . S
C575 C576 1.251 . S
C576 H546 0.929 . S
C576 N572 1.418 . S
C576 C575 1.251 . S
C577 H544 0.930 . S
C577 C579 1.406 . S
C577 C582 1.261 . S
C578 H545 0.930 . S
C578 N580 1.325 . S
C578 C581 1.357 . S
C579 H547 0.928 . S
C579 C577 1.406 . S
C579 N580 1.261 . S
N580 Co531 2.214 . S
N580 C578 1.325 . S
N580 C579 1.261 . S
C581 H551 0.931 . S
C581 C578 1.357 . S
C581 C582 1.312 . S
C582 H553 0.930 . S
C582 C577 1.261 . S
C582 C581 1.312 . S
C583 O555 1.214 . S
C583 O563 1.234 . S
C584 H556 0.929 . S
C584 C587 1.391 . S
C584 C589 1.391 . S
C585 H557 0.929 . S
C585 C586 1.390 . S
C585 N588 1.391 . S
C586 H558 0.930 . S
C586 C585 1.390 . S
C586 C587 1.392 . S
C587 H559 0.929 . S
C587 C584 1.391 . S
C587 C586 1.392 . S
N588 Co532 2.257 . S
N588 C585 1.391 . S
N588 C589 1.388 . S
C589 H560 0.930 . S
C589 C584 1.391 . S
C589 N588 1.388 . S
Co590 O592 2.143 . S
Co590 O598 2.074 . S
Co590 O601 2.093 . S
Co590 O614 2.097 . S
Co590 N631 2.151 . S
Co590 N639 2.214 . S
Co591 O592 2.160 . S
Co591 O597 2.058 . S
Co591 O607 2.057 . S
Co591 O622 2.037 . S
Co591 N626 2.145 . S
Co591 N647 2.257 . S
O592 Co590 2.143 . S
O592 Co591 2.160 . S
C593 O594 1.278 . S
C593 O601 1.224 . S
O594 C593 1.278 . S
C595 O596 1.245 . S
C595 O607 1.232 . S
O596 C595 1.245 . S
O597 Co591 2.058 . S
O597 C623 1.269 . S
O598 Co590 2.074 . S
O598 C623 1.257 . S
H599 C624 0.930 . S
H600 C630 0.930 . S
O601 Co590 2.093 . S
O601 C593 1.224 . S
H602 C634 0.929 . S
H603 C636 0.930 . S
H604 C637 0.930 . S
H605 C635 0.929 . S
H606 C638 0.928 . S
O607 Co591 2.057 . S
O607 C595 1.232 . S
H608 C627 0.929 . S
H609 C628 0.929 . S
H610 C640 0.931 . S
H611 C632 0.929 . S
H612 C641 0.930 . S
H613 C633 0.931 . S
O614 Co590 2.097 . S
O614 C642 1.214 . S
H615 C643 0.929 . S
H616 C644 0.929 . S
H617 C645 0.930 . S
H618 C646 0.929 . S
H619 C648 0.930 . S
H620 C625 0.930 . S
H621 C629 0.930 . S
O622 Co591 2.037 . S
O622 C642 1.234 . S
C623 O597 1.269 . S
C623 O598 1.257 . S
C624 H599 0.930 . S
C624 C627 1.388 . S
C624 C629 1.418 . S
C625 H620 0.930 . S
C625 C628 1.404 . S
C625 C629 1.353 . S
N626 Co591 2.145 . S
N626 C627 1.397 . S
N626 C628 1.334 . S
C627 H608 0.929 . S
C627 C624 1.388 . S
C627 N626 1.397 . S
C628 H609 0.929 . S
C628 C625 1.404 . S
C628 N626 1.334 . S
C629 H621 0.930 . S
C629 C624 1.418 . S
C629 C625 1.353 . S
C630 H600 0.930 . S
C630 N631 1.330 . S
C630 C632 1.446 . S
N631 Co590 2.151 . S
N631 C630 1.330 . S
N631 C635 1.418 . S
C632 H611 0.929 . S
C632 C630 1.446 . S
C632 C633 1.332 . S
C633 H613 0.931 . S
C633 C632 1.332 . S
C633 C634 1.267 . S
C634 H602 0.929 . S
C634 C633 1.267 . S
C634 C635 1.251 . S
C635 H605 0.929 . S
C635 N631 1.418 . S
C635 C634 1.251 . S
C636 H603 0.930 . S
C636 C638 1.406 . S
C636 C641 1.261 . S
C637 H604 0.930 . S
C637 N639 1.325 . S
C637 C640 1.357 . S
C638 H606 0.928 . S
C638 C636 1.406 . S
C638 N639 1.261 . S
N639 Co590 2.214 . S
N639 C637 1.325 . S
N639 C638 1.261 . S
C640 H610 0.931 . S
C640 C637 1.357 . S
C640 C641 1.312 . S
C641 H612 0.930 . S
C641 C636 1.261 . S
C641 C640 1.312 . S
C642 O614 1.214 . S
C642 O622 1.234 . S
C643 H615 0.929 . S
C643 C646 1.391 . S
C643 C648 1.391 . S
C644 H616 0.929 . S
C644 C645 1.390 . S
C644 N647 1.391 . S
C645 H617 0.930 . S
C645 C644 1.390 . S
C645 C646 1.392 . S
C646 H618 0.929 . S
C646 C643 1.391 . S
C646 C645 1.392 . S
N647 Co591 2.257 . S
N647 C644 1.391 . S
N647 C648 1.388 . S
C648 H619 0.930 . S
C648 C643 1.391 . S
C648 N647 1.388 . S
Co649 O651 2.143 . S
Co649 O657 2.074 . S
Co649 O660 2.093 . S
Co649 O673 2.097 . S
Co649 N690 2.151 . S
Co649 N698 2.214 . S
Co650 O651 2.160 . S
Co650 O656 2.058 . S
Co650 O666 2.057 . S
Co650 O681 2.037 . S
Co650 N685 2.145 . S
Co650 N706 2.257 . S
O651 Co649 2.143 . S
O651 Co650 2.160 . S
C652 O653 1.278 . S
C652 O660 1.224 . S
O653 C652 1.278 . S
C654 O655 1.245 . S
C654 O666 1.232 . S
O655 C654 1.245 . S
O656 Co650 2.058 . S
O656 C682 1.269 . S
O657 Co649 2.074 . S
O657 C682 1.257 . S
H658 C683 0.930 . S
H659 C689 0.930 . S
O660 Co649 2.093 . S
O660 C652 1.224 . S
H661 C693 0.929 . S
H662 C695 0.930 . S
H663 C696 0.930 . S
H664 C694 0.929 . S
H665 C697 0.928 . S
O666 Co650 2.057 . S
O666 C654 1.232 . S
H667 C686 0.929 . S
H668 C687 0.929 . S
H669 C699 0.931 . S
H670 C691 0.929 . S
H671 C700 0.930 . S
H672 C692 0.931 . S
O673 Co649 2.097 . S
O673 C701 1.214 . S
H674 C702 0.929 . S
H675 C703 0.929 . S
H676 C704 0.930 . S
H677 C705 0.929 . S
H678 C707 0.930 . S
H679 C684 0.930 . S
H680 C688 0.930 . S
O681 Co650 2.037 . S
O681 C701 1.234 . S
C682 O656 1.269 . S
C682 O657 1.257 . S
C683 H658 0.930 . S
C683 C686 1.388 . S
C683 C688 1.418 . S
C684 H679 0.930 . S
C684 C687 1.404 . S
C684 C688 1.353 . S
N685 Co650 2.145 . S
N685 C686 1.397 . S
N685 C687 1.334 . S
C686 H667 0.929 . S
C686 C683 1.388 . S
C686 N685 1.397 . S
C687 H668 0.929 . S
C687 C684 1.404 . S
C687 N685 1.334 . S
C688 H680 0.930 . S
C688 C683 1.418 . S
C688 C684 1.353 . S
C689 H659 0.930 . S
C689 N690 1.330 . S
C689 C691 1.446 . S
N690 Co649 2.151 . S
N690 C689 1.330 . S
N690 C694 1.418 . S
C691 H670 0.929 . S
C691 C689 1.446 . S
C691 C692 1.332 . S
C692 H672 0.931 . S
C692 C691 1.332 . S
C692 C693 1.267 . S
C693 H661 0.929 . S
C693 C692 1.267 . S
C693 C694 1.251 . S
C694 H664 0.929 . S
C694 N690 1.418 . S
C694 C693 1.251 . S
C695 H662 0.930 . S
C695 C697 1.406 . S
C695 C700 1.261 . S
C696 H663 0.930 . S
C696 N698 1.325 . S
C696 C699 1.357 . S
C697 H665 0.928 . S
C697 C695 1.406 . S
C697 N698 1.261 . S
N698 Co649 2.214 . S
N698 C696 1.325 . S
N698 C697 1.261 . S
C699 H669 0.931 . S
C699 C696 1.357 . S
C699 C700 1.312 . S
C700 H671 0.930 . S
C700 C695 1.261 . S
C700 C699 1.312 . S
C701 O673 1.214 . S
C701 O681 1.234 . S
C702 H674 0.929 . S
C702 C705 1.391 . S
C702 C707 1.391 . S
C703 H675 0.929 . S
C703 C704 1.390 . S
C703 N706 1.391 . S
C704 H676 0.930 . S
C704 C703 1.390 . S
C704 C705 1.392 . S
C705 H677 0.929 . S
C705 C702 1.391 . S
C705 C704 1.392 . S
N706 Co650 2.257 . S
N706 C703 1.391 . S
N706 C707 1.388 . S
C707 H678 0.930 . S
C707 C702 1.391 . S
C707 N706 1.388 . S
H708 C720 0.930 . S
H709 C722 0.930 . S
H710 C723 0.930 . S
H711 C727 0.959 . S
H712 C727 0.959 . S
H713 C727 0.961 . S
H714 C728 0.960 . S
H715 C728 0.961 . S
H716 C728 0.959 . S
H717 C731 0.929 . S
H718 C732 0.931 . S
H719 C734 0.930 . S
C720 H708 0.930 . S
C720 C721 1.399 . S
C720 C725 1.399 . S
C721 C720 1.399 . S
C721 C722 1.376 . S
C722 H709 0.930 . S
C722 C721 1.376 . S
C722 C723 1.388 . S
C723 H710 0.930 . S
C723 C722 1.388 . S
C723 C724 1.390 . S
C724 C723 1.390 . S
C724 C725 1.394 . S
C724 C730 1.465 . S
C725 C720 1.399 . S
C725 C724 1.394 . S
C725 C726 1.516 . S
C726 C725 1.516 . S
C726 C727 1.502 . S
C726 C728 1.561 . S
C726 C729 1.526 . S
C727 H711 0.959 . S
C727 H712 0.959 . S
C727 H713 0.961 . S
C727 C726 1.502 . S
C728 H714 0.960 . S
C728 H715 0.961 . S
C728 H716 0.959 . S
C728 C726 1.561 . S
C729 C726 1.526 . S
C729 C730 1.396 . S
C729 C734 1.390 . S
C730 C724 1.465 . S
C730 C729 1.396 . S
C730 C731 1.399 . S
C731 H717 0.929 . S
C731 C730 1.399 . S
C731 C732 1.385 . S
C732 H718 0.931 . S
C732 C731 1.385 . S
C732 C733 1.389 . S
C733 C732 1.389 . S
C733 C734 1.387 . S
C734 H719 0.930 . S
C734 C729 1.390 . S
C734 C733 1.387 . S
H735 C747 0.930 . S
H736 C749 0.930 . S
H737 C750 0.930 . S
H738 C754 0.959 . S
H739 C754 0.959 . S
H740 C754 0.961 . S
H741 C755 0.960 . S
H742 C755 0.961 . S
H743 C755 0.959 . S
H744 C758 0.929 . S
H745 C759 0.931 . S
H746 C761 0.930 . S
C747 H735 0.930 . S
C747 C748 1.399 . S
C747 C752 1.399 . S
C748 C747 1.399 . S
C748 C749 1.376 . S
C749 H736 0.930 . S
C749 C748 1.376 . S
C749 C750 1.388 . S
C750 H737 0.930 . S
C750 C749 1.388 . S
C750 C751 1.390 . S
C751 C750 1.390 . S
C751 C752 1.394 . S
C751 C757 1.465 . S
C752 C747 1.399 . S
C752 C751 1.394 . S
C752 C753 1.516 . S
C753 C752 1.516 . S
C753 C754 1.502 . S
C753 C755 1.561 . S
C753 C756 1.526 . S
C754 H738 0.959 . S
C754 H739 0.959 . S
C754 H740 0.961 . S
C754 C753 1.502 . S
C755 H741 0.960 . S
C755 H742 0.961 . S
C755 H743 0.959 . S
C755 C753 1.561 . S
C756 C753 1.526 . S
C756 C757 1.396 . S
C756 C761 1.390 . S
C757 C751 1.465 . S
C757 C756 1.396 . S
C757 C758 1.399 . S
C758 H744 0.929 . S
C758 C757 1.399 . S
C758 C759 1.385 . S
C759 H745 0.931 . S
C759 C758 1.385 . S
C759 C760 1.389 . S
C760 C759 1.389 . S
C760 C761 1.387 . S
C761 H746 0.930 . S
C761 C756 1.390 . S
C761 C760 1.387 . S
H762 C774 0.930 . S
H763 C776 0.930 . S
H764 C777 0.930 . S
H765 C781 0.959 . S
H766 C781 0.959 . S
H767 C781 0.961 . S
H768 C782 0.960 . S
H769 C782 0.961 . S
H770 C782 0.959 . S
H771 C785 0.929 . S
H772 C786 0.931 . S
H773 C788 0.930 . S
C774 H762 0.930 . S
C774 C775 1.399 . S
C774 C779 1.399 . S
C775 C774 1.399 . S
C775 C776 1.376 . S
C776 H763 0.930 . S
C776 C775 1.376 . S
C776 C777 1.388 . S
C777 H764 0.930 . S
C777 C776 1.388 . S
C777 C778 1.390 . S
C778 C777 1.390 . S
C778 C779 1.394 . S
C778 C784 1.465 . S
C779 C774 1.399 . S
C779 C778 1.394 . S
C779 C780 1.516 . S
C780 C779 1.516 . S
C780 C781 1.502 . S
C780 C782 1.561 . S
C780 C783 1.526 . S
C781 H765 0.959 . S
C781 H766 0.959 . S
C781 H767 0.961 . S
C781 C780 1.502 . S
C782 H768 0.960 . S
C782 H769 0.961 . S
C782 H770 0.959 . S
C782 C780 1.561 . S
C783 C780 1.526 . S
C783 C784 1.396 . S
C783 C788 1.390 . S
C784 C778 1.465 . S
C784 C783 1.396 . S
C784 C785 1.399 . S
C785 H771 0.929 . S
C785 C784 1.399 . S
C785 C786 1.385 . S
C786 H772 0.931 . S
C786 C785 1.385 . S
C786 C787 1.389 . S
C787 C786 1.389 . S
C787 C788 1.387 . S
C788 H773 0.930 . S
C788 C783 1.390 . S
C788 C787 1.387 . S
H789 C801 0.930 . S
H790 C803 0.930 . S
H791 C804 0.930 . S
H792 C808 0.959 . S
H793 C808 0.959 . S
H794 C808 0.961 . S
H795 C809 0.960 . S
H796 C809 0.961 . S
H797 C809 0.959 . S
H798 C812 0.929 . S
H799 C813 0.931 . S
H800 C815 0.930 . S
C801 H789 0.930 . S
C801 C802 1.399 . S
C801 C806 1.399 . S
C802 C801 1.399 . S
C802 C803 1.376 . S
C803 H790 0.930 . S
C803 C802 1.376 . S
C803 C804 1.388 . S
C804 H791 0.930 . S
C804 C803 1.388 . S
C804 C805 1.390 . S
C805 C804 1.390 . S
C805 C806 1.394 . S
C805 C811 1.465 . S
C806 C801 1.399 . S
C806 C805 1.394 . S
C806 C807 1.516 . S
C807 C806 1.516 . S
C807 C808 1.502 . S
C807 C809 1.561 . S
C807 C810 1.526 . S
C808 H792 0.959 . S
C808 H793 0.959 . S
C808 H794 0.961 . S
C808 C807 1.502 . S
C809 H795 0.960 . S
C809 H796 0.961 . S
C809 H797 0.959 . S
C809 C807 1.561 . S
C810 C807 1.526 . S
C810 C811 1.396 . S
C810 C815 1.390 . S
C811 C805 1.465 . S
C811 C810 1.396 . S
C811 C812 1.399 . S
C812 H798 0.929 . S
C812 C811 1.399 . S
C812 C813 1.385 . S
C813 H799 0.931 . S
C813 C812 1.385 . S
C813 C814 1.389 . S
C814 C813 1.389 . S
C814 C815 1.387 . S
C815 H800 0.930 . S
C815 C810 1.390 . S
C815 C814 1.387 . S
H816 C828 0.930 . S
H817 C830 0.930 . S
H818 C831 0.944 . S
H819 C835 0.959 . S
H820 C835 0.959 . S
H821 C835 0.961 . S
H822 C836 0.960 . S
H823 C836 0.961 . S
H824 C836 0.959 . S
H825 C839 0.929 . S
H826 C840 0.931 . S
H827 C842 0.930 1_556 S
C828 H816 0.930 . S
C828 C829 1.399 . S
C828 C833 1.399 . S
C829 C828 1.399 . S
C829 C830 1.376 . S
C830 H817 0.930 . S
C830 C829 1.376 . S
C830 C831 1.388 . S
C831 H818 0.944 . S
C831 C830 1.388 . S
C831 C832 1.390 . S
C832 C831 1.390 . S
C832 C833 1.394 . S
C832 C838 1.465 1_556 S
C833 C828 1.399 . S
C833 C832 1.394 . S
C833 C834 1.516 . S
C834 C833 1.516 . S
C834 C835 1.502 . S
C834 C836 1.561 . S
C834 C837 1.526 . S
C835 H819 0.959 . S
C835 H820 0.959 . S
C835 H821 0.961 . S
C835 C834 1.502 . S
C836 H822 0.960 . S
C836 H823 0.961 . S
C836 H824 0.959 . S
C836 C834 1.561 . S
C837 C834 1.526 . S
C837 C838 1.396 1_556 S
C837 C842 1.390 1_556 S
C838 C832 1.465 1_554 S
C838 C837 1.396 1_554 S
C838 C839 1.399 . S
C839 H825 0.929 . S
C839 C838 1.399 . S
C839 C840 1.385 . S
C840 H826 0.931 . S
C840 C839 1.385 . S
C840 C841 1.389 . S
C841 C840 1.389 . S
C841 C842 1.387 . S
C842 H827 0.930 1_554 S
C842 C837 1.390 1_554 S
C842 C841 1.387 . S
H843 C855 0.930 . S
H844 C857 0.930 . S
H845 C858 0.930 . S
H846 C862 0.959 . S
H847 C862 0.966 . S
H848 C862 0.961 . S
H849 C863 0.960 . S
H850 C863 0.961 . S
H851 C863 0.959 . S
H852 C866 0.929 . S
H853 C867 0.931 . S
H854 C869 0.930 1_556 S
C855 H843 0.930 . S
C855 C856 1.399 . S
C855 C860 1.399 . S
C856 C855 1.399 . S
C856 C857 1.376 . S
C857 H844 0.930 . S
C857 C856 1.376 . S
C857 C858 1.388 . S
C858 H845 0.930 . S
C858 C857 1.388 . S
C858 C859 1.390 . S
C859 C858 1.390 . S
C859 C860 1.394 . S
C859 C865 1.465 . S
C860 C855 1.399 . S
C860 C859 1.394 . S
C860 C861 1.516 . S
C861 C860 1.516 . S
C861 C862 1.502 . S
C861 C863 1.561 . S
C861 C864 1.526 . S
C862 H846 0.959 . S
C862 H847 0.966 . S
C862 H848 0.961 . S
C862 C861 1.502 . S
C863 H849 0.960 . S
C863 H850 0.961 . S
C863 H851 0.959 . S
C863 C861 1.561 . S
C864 C861 1.526 . S
C864 C865 1.396 . S
C864 C869 1.390 . S
C865 C859 1.465 . S
C865 C864 1.396 . S
C865 C866 1.399 . S
C866 H852 0.929 . S
C866 C865 1.399 . S
C866 C867 1.385 . S
C867 H853 0.931 . S
C867 C866 1.385 . S
C867 C868 1.389 . S
C868 C867 1.389 . S
C868 C869 1.387 . S
C869 H854 0.930 1_554 S
C869 C864 1.390 . S
C869 C868 1.387 . S
H870 C882 0.930 . S
H871 C884 0.930 . S
H872 C885 0.930 . S
H873 C889 0.959 . S
H874 C889 0.959 . S
H875 C889 0.961 . S
H876 C890 0.960 . S
H877 C890 0.961 . S
H878 C890 0.959 . S
H879 C893 0.929 . S
H880 C894 0.931 . S
H881 C896 0.930 . S
C882 H870 0.930 . S
C882 C883 1.399 . S
C882 C887 1.399 . S
C883 C882 1.399 . S
C883 C884 1.376 . S
C884 H871 0.930 . S
C884 C883 1.376 . S
C884 C885 1.388 . S
C885 H872 0.930 . S
C885 C884 1.388 . S
C885 C886 1.390 . S
C886 C885 1.390 . S
C886 C887 1.394 . S
C886 C892 1.465 . S
C887 C882 1.399 . S
C887 C886 1.394 . S
C887 C888 1.516 . S
C888 C887 1.516 . S
C888 C889 1.502 . S
C888 C890 1.561 . S
C888 C891 1.526 . S
C889 H873 0.959 . S
C889 H874 0.959 . S
C889 H875 0.961 . S
C889 C888 1.502 . S
C890 H876 0.960 . S
C890 H877 0.961 . S
C890 H878 0.959 . S
C890 C888 1.561 . S
C891 C888 1.526 . S
C891 C892 1.396 . S
C891 C896 1.390 . S
C892 C886 1.465 . S
C892 C891 1.396 . S
C892 C893 1.399 . S
C893 H879 0.929 . S
C893 C892 1.399 . S
C893 C894 1.385 . S
C894 H880 0.931 . S
C894 C893 1.385 . S
C894 C895 1.389 . S
C895 C894 1.389 . S
C895 C896 1.387 . S
C896 H881 0.930 . S
C896 C891 1.390 . S
C896 C895 1.387 . S
H897 C909 0.930 . S
H898 C911 0.930 . S
H899 C912 0.930 . S
H900 C916 0.959 . S
H901 C916 0.959 . S
H902 C916 0.961 . S
H903 C917 0.960 . S
H904 C917 0.961 . S
H905 C917 0.959 . S
H906 C920 0.929 . S
H907 C921 0.931 . S
H908 C923 0.930 . S
C909 H897 0.930 . S
C909 C910 1.399 . S
C909 C914 1.399 . S
C910 C909 1.399 . S
C910 C911 1.376 . S
C911 H898 0.930 . S
C911 C910 1.376 . S
C911 C912 1.388 . S
C912 H899 0.930 . S
C912 C911 1.388 . S
C912 C913 1.390 . S
C913 C912 1.390 . S
C913 C914 1.394 . S
C913 C919 1.465 . S
C914 C909 1.399 . S
C914 C913 1.394 . S
C914 C915 1.516 . S
C915 C914 1.516 . S
C915 C916 1.502 . S
C915 C917 1.561 . S
C915 C918 1.526 . S
C916 H900 0.959 . S
C916 H901 0.959 . S
C916 H902 0.961 . S
C916 C915 1.502 . S
C917 H903 0.960 . S
C917 H904 0.961 . S
C917 H905 0.959 . S
C917 C915 1.561 . S
C918 C915 1.526 . S
C918 C919 1.396 . S
C918 C923 1.390 . S
C919 C913 1.465 . S
C919 C918 1.396 . S
C919 C920 1.399 . S
C920 H906 0.929 . S
C920 C919 1.399 . S
C920 C921 1.385 . S
C921 H907 0.931 . S
C921 C920 1.385 . S
C921 C922 1.389 . S
C922 C921 1.389 . S
C922 C923 1.387 . S
C923 H908 0.930 . S
C923 C918 1.390 . S
C923 C922 1.387 . S
H924 C936 0.930 . S
H925 C938 0.930 . S
H926 C939 0.930 . S
H927 C943 0.959 . S
H928 C943 0.959 . S
H929 C943 0.961 . S
H930 C944 0.960 . S
H931 C944 0.961 . S
H932 C944 0.959 . S
H933 C947 0.929 . S
H934 C948 0.931 . S
H935 C950 0.930 . S
C936 H924 0.930 . S
C936 C937 1.399 . S
C936 C941 1.399 . S
C937 C936 1.399 . S
C937 C938 1.376 . S
C938 H925 0.930 . S
C938 C937 1.376 . S
C938 C939 1.388 . S
C939 H926 0.930 . S
C939 C938 1.388 . S
C939 C940 1.390 . S
C940 C939 1.390 . S
C940 C941 1.394 . S
C940 C946 1.465 . S
C941 C936 1.399 . S
C941 C940 1.394 . S
C941 C942 1.516 . S
C942 C941 1.516 . S
C942 C943 1.502 . S
C942 C944 1.561 . S
C942 C945 1.526 . S
C943 H927 0.959 . S
C943 H928 0.959 . S
C943 H929 0.961 . S
C943 C942 1.502 . S
C944 H930 0.960 . S
C944 H931 0.961 . S
C944 H932 0.959 . S
C944 C942 1.561 . S
C945 C942 1.526 . S
C945 C946 1.396 . S
C945 C950 1.390 . S
C946 C940 1.465 . S
C946 C945 1.396 . S
C946 C947 1.399 . S
C947 H933 0.929 . S
C947 C946 1.399 . S
C947 C948 1.385 . S
C948 H934 0.931 . S
C948 C947 1.385 . S
C948 C949 1.389 . S
C949 C948 1.389 . S
C949 C950 1.387 . S
C950 H935 0.930 . S
C950 C945 1.390 . S
C950 C949 1.387 . S
H951 C963 0.930 . S
H952 C965 0.930 . S
H953 C966 0.930 . S
H954 C970 0.959 . S
H955 C970 0.959 . S
H956 C970 0.961 . S
H957 C971 0.960 . S
H958 C971 0.961 . S
H959 C971 0.959 . S
H960 C974 0.929 . S
H961 C975 0.931 . S
H962 C977 0.930 . S
C963 H951 0.930 . S
C963 C964 1.399 . S
C963 C968 1.399 . S
C964 C963 1.399 . S
C964 C965 1.376 . S
C965 H952 0.930 . S
C965 C964 1.376 . S
C965 C966 1.388 . S
C966 H953 0.930 . S
C966 C965 1.388 . S
C966 C967 1.390 . S
C967 C966 1.390 . S
C967 C968 1.394 . S
C967 C973 1.465 . S
C968 C963 1.399 . S
C968 C967 1.394 . S
C968 C969 1.516 . S
C969 C968 1.516 . S
C969 C970 1.502 . S
C969 C971 1.561 . S
C969 C972 1.526 . S
C970 H954 0.959 . S
C970 H955 0.959 . S
C970 H956 0.961 . S
C970 C969 1.502 . S
C971 H957 0.960 . S
C971 H958 0.961 . S
C971 H959 0.959 . S
C971 C969 1.561 . S
C972 C969 1.526 . S
C972 C973 1.396 . S
C972 C977 1.390 . S
C973 C967 1.465 . S
C973 C972 1.396 . S
C973 C974 1.399 . S
C974 H960 0.929 . S
C974 C973 1.399 . S
C974 C975 1.385 . S
C975 H961 0.931 . S
C975 C974 1.385 . S
C975 C976 1.389 . S
C976 C975 1.389 . S
C976 C977 1.387 . S
C977 H962 0.930 . S
C977 C972 1.390 . S
C977 C976 1.387 . S
H978 C990 0.930 . S
H979 C992 0.930 . S
H980 C993 0.930 . S
H981 C997 0.959 . S
H982 C997 0.959 . S
H983 C997 0.961 . S
H984 C998 0.960 . S
H985 C998 0.961 . S
H986 C998 0.959 . S
H987 C1001 0.929 . S
H988 C1002 0.931 . S
H989 C1004 0.930 . S
C990 H978 0.930 . S
C990 C991 1.399 . S
C990 C995 1.399 . S
C991 C990 1.399 . S
C991 C992 1.376 . S
C992 H979 0.930 . S
C992 C991 1.376 . S
C992 C993 1.388 . S
C993 H980 0.930 . S
C993 C992 1.388 . S
C993 C994 1.390 . S
C994 C993 1.390 . S
C994 C995 1.394 . S
C994 C1000 1.465 . S
C995 C990 1.399 . S
C995 C994 1.394 . S
C995 C996 1.516 . S
C996 C995 1.516 . S
C996 C997 1.502 . S
C996 C998 1.561 . S
C996 C999 1.526 . S
C997 H981 0.959 . S
C997 H982 0.959 . S
C997 H983 0.961 . S
C997 C996 1.502 . S
C998 H984 0.960 . S
C998 H985 0.961 . S
C998 H986 0.959 . S
C998 C996 1.561 . S
C999 C996 1.526 . S
C999 C1000 1.396 . S
C999 C1004 1.390 . S
C1000 C994 1.465 . S
C1000 C999 1.396 . S
C1000 C1001 1.399 . S
C1001 H987 0.929 . S
C1001 C1000 1.399 . S
C1001 C1002 1.385 . S
C1002 H988 0.931 . S
C1002 C1001 1.385 . S
C1002 C1003 1.389 . S
C1003 C1002 1.389 . S
C1003 C1004 1.387 . S
C1004 H989 0.930 . S
C1004 C999 1.390 . S
C1004 C1003 1.387 . S
H1005 C1017 0.930 . S
H1006 C1019 0.930 . S
H1007 C1020 0.930 . S
H1008 C1024 0.959 . S
H1009 C1024 0.959 . S
H1010 C1024 0.961 . S
H1011 C1025 0.960 . S
H1012 C1025 0.961 . S
H1013 C1025 0.959 . S
H1014 C1028 0.929 . S
H1015 C1029 0.931 . S
H1016 C1031 0.930 . S
C1017 H1005 0.930 . S
C1017 C1018 1.399 . S
C1017 C1022 1.399 . S
C1018 C1017 1.399 . S
C1018 C1019 1.376 1_556 S
C1019 H1006 0.930 . S
C1019 C1018 1.376 1_554 S
C1019 C1020 1.388 . S
C1020 H1007 0.930 . S
C1020 C1019 1.388 . S
C1020 C1021 1.390 1_554 S
C1021 C1020 1.390 1_556 S
C1021 C1022 1.394 . S
C1021 C1027 1.465 . S
C1022 C1017 1.399 . S
C1022 C1021 1.394 . S
C1022 C1023 1.516 . S
C1023 C1022 1.516 . S
C1023 C1024 1.502 . S
C1023 C1025 1.561 . S
C1023 C1026 1.526 . S
C1024 H1008 0.959 . S
C1024 H1009 0.959 . S
C1024 H1010 0.961 . S
C1024 C1023 1.502 . S
C1025 H1011 0.960 . S
C1025 H1012 0.961 . S
C1025 H1013 0.959 . S
C1025 C1023 1.561 . S
C1026 C1023 1.526 . S
C1026 C1027 1.396 . S
C1026 C1031 1.390 . S
C1027 C1021 1.465 . S
C1027 C1026 1.396 . S
C1027 C1028 1.399 1_556 S
C1028 H1014 0.929 . S
C1028 C1027 1.399 1_554 S
C1028 C1029 1.385 . S
C1029 H1015 0.931 . S
C1029 C1028 1.385 . S
C1029 C1030 1.389 1_554 S
C1030 C1029 1.389 1_556 S
C1030 C1031 1.387 . S
C1031 H1016 0.930 . S
C1031 C1026 1.390 . S
C1031 C1030 1.387 . S
H1032 C1044 0.930 . S
H1033 C1046 0.930 . S
H1034 C1047 0.930 . S
H1035 C1051 0.959 . S
H1036 C1051 0.959 . S
H1037 C1051 0.961 . S
H1038 C1052 0.960 . S
H1039 C1052 0.961 . S
H1040 C1052 0.959 . S
H1041 C1055 0.929 . S
H1042 C1056 0.931 . S
H1043 C1058 0.930 . S
C1044 H1032 0.930 . S
C1044 C1045 1.399 . S
C1044 C1049 1.399 . S
C1045 C1044 1.399 . S
C1045 C1046 1.376 . S
C1046 H1033 0.930 . S
C1046 C1045 1.376 . S
C1046 C1047 1.388 . S
C1047 H1034 0.930 . S
C1047 C1046 1.388 . S
C1047 C1048 1.390 . S
C1048 C1047 1.390 . S
C1048 C1049 1.394 . S
C1048 C1054 1.465 . S
C1049 C1044 1.399 . S
C1049 C1048 1.394 . S
C1049 C1050 1.516 . S
C1050 C1049 1.516 . S
C1050 C1051 1.502 . S
C1050 C1052 1.561 . S
C1050 C1053 1.526 . S
C1051 H1035 0.959 . S
C1051 H1036 0.959 . S
C1051 H1037 0.961 . S
C1051 C1050 1.502 . S
C1052 H1038 0.960 . S
C1052 H1039 0.961 . S
C1052 H1040 0.959 . S
C1052 C1050 1.561 . S
C1053 C1050 1.526 . S
C1053 C1054 1.396 . S
C1053 C1058 1.390 . S
C1054 C1048 1.465 . S
C1054 C1053 1.396 . S
C1054 C1055 1.399 . S
C1055 H1041 0.929 . S
C1055 C1054 1.399 . S
C1055 C1056 1.385 . S
C1056 H1042 0.931 . S
C1056 C1055 1.385 . S
C1056 C1057 1.389 . S
C1057 C1056 1.389 . S
C1057 C1058 1.387 . S
C1058 H1043 0.930 . S
C1058 C1053 1.390 . S
C1058 C1057 1.387 . S
H1059 C1071 0.930 . S
H1060 C1073 0.930 . S
H1061 C1074 0.930 . S
H1062 C1078 0.959 . S
H1063 C1078 0.959 . S
H1064 C1078 0.961 . S
H1065 C1079 0.960 . S
H1066 C1079 0.961 . S
H1067 C1079 0.959 . S
H1068 C1082 0.929 . S
H1069 C1083 0.931 . S
H1070 C1085 0.930 . S
C1071 H1059 0.930 . S
C1071 C1072 1.399 . S
C1071 C1076 1.399 1_554 S
C1072 C1071 1.399 . S
C1072 C1073 1.376 . S
C1073 H1060 0.930 . S
C1073 C1072 1.376 . S
C1073 C1074 1.388 . S
C1074 H1061 0.930 . S
C1074 C1073 1.388 . S
C1074 C1075 1.390 . S
C1075 C1074 1.390 . S
C1075 C1076 1.394 1_554 S
C1075 C1081 1.465 1_554 S
C1076 C1071 1.399 1_556 S
C1076 C1075 1.394 1_556 S
C1076 C1077 1.516 . S
C1077 C1076 1.516 . S
C1077 C1078 1.502 . S
C1077 C1079 1.561 . S
C1077 C1080 1.526 . S
C1078 H1062 0.959 . S
C1078 H1063 0.959 . S
C1078 H1064 0.961 . S
C1078 C1077 1.502 . S
C1079 H1065 0.960 . S
C1079 H1066 0.961 . S
C1079 H1067 0.959 . S
C1079 C1077 1.561 . S
C1080 C1077 1.526 . S
C1080 C1081 1.396 . S
C1080 C1085 1.390 . S
C1081 C1075 1.465 1_556 S
C1081 C1080 1.396 . S
C1081 C1082 1.399 . S
C1082 H1068 0.929 . S
C1082 C1081 1.399 . S
C1082 C1083 1.385 . S
C1083 H1069 0.931 . S
C1083 C1082 1.385 . S
C1083 C1084 1.389 . S
C1084 C1083 1.389 . S
C1084 C1085 1.387 . S
C1085 H1070 0.930 . S
C1085 C1080 1.390 . S
C1085 C1084 1.387 . S
H1086 C1098 0.930 . S
H1087 C1100 0.930 . S
H1088 C1101 0.930 . S
H1089 C1105 0.959 . S
H1090 C1105 0.959 . S
H1091 C1105 0.961 . S
H1092 C1106 0.960 . S
H1093 C1106 0.961 . S
H1094 C1106 0.959 . S
H1095 C1109 0.929 . S
H1096 C1110 0.931 . S
H1097 C1112 0.930 . S
C1098 H1086 0.930 . S
C1098 C1099 1.399 . S
C1098 C1103 1.399 . S
C1099 C1098 1.399 . S
C1099 C1100 1.376 . S
C1100 H1087 0.930 . S
C1100 C1099 1.376 . S
C1100 C1101 1.388 . S
C1101 H1088 0.930 . S
C1101 C1100 1.388 . S
C1101 C1102 1.390 . S
C1102 C1101 1.390 . S
C1102 C1103 1.394 . S
C1102 C1108 1.465 . S
C1103 C1098 1.399 . S
C1103 C1102 1.394 . S
C1103 C1104 1.516 . S
C1104 C1103 1.516 . S
C1104 C1105 1.502 . S
C1104 C1106 1.561 . S
C1104 C1107 1.526 . S
C1105 H1089 0.959 . S
C1105 H1090 0.959 . S
C1105 H1091 0.961 . S
C1105 C1104 1.502 . S
C1106 H1092 0.960 . S
C1106 H1093 0.961 . S
C1106 H1094 0.959 . S
C1106 C1104 1.561 . S
C1107 C1104 1.526 . S
C1107 C1108 1.396 . S
C1107 C1112 1.390 . S
C1108 C1102 1.465 . S
C1108 C1107 1.396 . S
C1108 C1109 1.399 . S
C1109 H1095 0.929 . S
C1109 C1108 1.399 . S
C1109 C1110 1.385 1_554 S
C1110 H1096 0.931 . S
C1110 C1109 1.385 1_556 S
C1110 C1111 1.389 1_556 S
C1111 C1110 1.389 1_554 S
C1111 C1112 1.387 . S
C1112 H1097 0.930 . S
C1112 C1107 1.390 . S
C1112 C1111 1.387 . S
H1113 C1125 0.930 . S
H1114 C1127 0.930 . S
H1115 C1128 0.930 . S
H1116 C1132 0.959 . S
H1117 C1132 0.959 . S
H1118 C1132 0.961 . S
H1119 C1133 0.960 . S
H1120 C1133 0.961 . S
H1121 C1133 0.959 . S
H1122 C1136 0.929 . S
H1123 C1137 0.931 . S
H1124 C1139 0.930 . S
C1125 H1113 0.930 . S
C1125 C1126 1.399 . S
C1125 C1130 1.399 . S
C1126 C1125 1.399 . S
C1126 C1127 1.376 . S
C1127 H1114 0.930 . S
C1127 C1126 1.376 . S
C1127 C1128 1.388 . S
C1128 H1115 0.930 . S
C1128 C1127 1.388 . S
C1128 C1129 1.390 . S
C1129 C1128 1.390 . S
C1129 C1130 1.394 . S
C1129 C1135 1.465 . S
C1130 C1125 1.399 . S
C1130 C1129 1.394 . S
C1130 C1131 1.516 . S
C1131 C1130 1.516 . S
C1131 C1132 1.502 . S
C1131 C1133 1.561 . S
C1131 C1134 1.526 . S
C1132 H1116 0.959 . S
C1132 H1117 0.959 . S
C1132 H1118 0.961 . S
C1132 C1131 1.502 . S
C1133 H1119 0.960 . S
C1133 H1120 0.961 . S
C1133 H1121 0.959 . S
C1133 C1131 1.561 . S
C1134 C1131 1.526 . S
C1134 C1135 1.396 . S
C1134 C1139 1.390 . S
C1135 C1129 1.465 . S
C1135 C1134 1.396 . S
C1135 C1136 1.399 . S
C1136 H1122 0.929 . S
C1136 C1135 1.399 . S
C1136 C1137 1.385 . S
C1137 H1123 0.931 . S
C1137 C1136 1.385 . S
C1137 C1138 1.389 . S
C1138 C1137 1.389 . S
C1138 C1139 1.387 . S
C1139 H1124 0.930 . S
C1139 C1134 1.390 . S
C1139 C1138 1.387 . S
H1140 C1152 0.930 . S
H1141 C1154 0.930 . S
H1142 C1155 0.930 . S
H1143 C1159 0.959 . S
H1144 C1159 0.959 . S
H1145 C1159 0.961 . S
H1146 C1160 0.960 . S
H1147 C1160 0.961 . S
H1148 C1160 0.959 . S
H1149 C1163 0.929 . S
H1150 C1164 0.931 . S
H1151 C1166 0.930 . S
C1152 H1140 0.930 . S
C1152 C1153 1.399 . S
C1152 C1157 1.399 . S
C1153 C1152 1.399 . S
C1153 C1154 1.376 . S
C1154 H1141 0.930 . S
C1154 C1153 1.376 . S
C1154 C1155 1.388 . S
C1155 H1142 0.930 . S
C1155 C1154 1.388 . S
C1155 C1156 1.390 . S
C1156 C1155 1.390 . S
C1156 C1157 1.394 . S
C1156 C1162 1.465 . S
C1157 C1152 1.399 . S
C1157 C1156 1.394 . S
C1157 C1158 1.516 . S
C1158 C1157 1.516 . S
C1158 C1159 1.502 . S
C1158 C1160 1.561 . S
C1158 C1161 1.526 . S
C1159 H1143 0.959 . S
C1159 H1144 0.959 . S
C1159 H1145 0.961 . S
C1159 C1158 1.502 . S
C1160 H1146 0.960 . S
C1160 H1147 0.961 . S
C1160 H1148 0.959 . S
C1160 C1158 1.561 . S
C1161 C1158 1.526 . S
C1161 C1162 1.396 . S
C1161 C1166 1.390 . S
C1162 C1156 1.465 . S
C1162 C1161 1.396 . S
C1162 C1163 1.399 . S
C1163 H1149 0.929 . S
C1163 C1162 1.399 . S
C1163 C1164 1.385 . S
C1164 H1150 0.931 . S
C1164 C1163 1.385 . S
C1164 C1165 1.389 . S
C1165 C1164 1.389 . S
C1165 C1166 1.387 . S
C1166 H1151 0.930 . S
C1166 C1161 1.390 . S
C1166 C1165 1.387 . S
H1167 C1179 0.930 . S
H1168 C1181 0.930 . S
H1169 C1182 0.930 . S
H1170 C1186 0.959 . S
H1171 C1186 0.959 . S
H1172 C1186 0.961 . S
H1173 C1187 0.960 . S
H1174 C1187 0.961 . S
H1175 C1187 0.959 . S
H1176 C1190 0.929 . S
H1177 C1191 0.931 . S
H1178 C1193 0.930 . S
C1179 H1167 0.930 . S
C1179 C1180 1.399 . S
C1179 C1184 1.399 . S
C1180 C1179 1.399 . S
C1180 C1181 1.376 . S
C1181 H1168 0.930 . S
C1181 C1180 1.376 . S
C1181 C1182 1.388 . S
C1182 H1169 0.930 . S
C1182 C1181 1.388 . S
C1182 C1183 1.390 . S
C1183 C1182 1.390 . S
C1183 C1184 1.394 . S
C1183 C1189 1.465 . S
C1184 C1179 1.399 . S
C1184 C1183 1.394 . S
C1184 C1185 1.516 . S
C1185 C1184 1.516 . S
C1185 C1186 1.502 . S
C1185 C1187 1.561 . S
C1185 C1188 1.526 . S
C1186 H1170 0.959 . S
C1186 H1171 0.959 . S
C1186 H1172 0.961 . S
C1186 C1185 1.502 . S
C1187 H1173 0.960 . S
C1187 H1174 0.961 . S
C1187 H1175 0.959 . S
C1187 C1185 1.561 . S
C1188 C1185 1.526 . S
C1188 C1189 1.396 . S
C1188 C1193 1.390 . S
C1189 C1183 1.465 . S
C1189 C1188 1.396 . S
C1189 C1190 1.399 . S
C1190 H1176 0.929 . S
C1190 C1189 1.399 . S
C1190 C1191 1.385 . S
C1191 H1177 0.931 . S
C1191 C1190 1.385 . S
C1191 C1192 1.389 . S
C1192 C1191 1.389 . S
C1192 C1193 1.387 . S
C1193 H1178 0.930 . S
C1193 C1188 1.390 . S
C1193 C1192 1.387 . S
H1194 C1206 0.930 . S
H1195 C1208 0.930 . S
H1196 C1209 0.930 . S
H1197 C1213 0.959 . S
H1198 C1213 0.959 . S
H1199 C1213 0.961 1_455 S
H1200 C1214 0.960 . S
H1201 C1214 0.961 . S
H1202 C1214 0.959 . S
H1203 C1217 0.929 . S
H1204 C1218 0.931 . S
H1205 C1220 0.930 . S
C1206 H1194 0.930 . S
C1206 C1207 1.399 . S
C1206 C1211 1.399 . S
C1207 C1206 1.399 . S
C1207 C1208 1.376 . S
C1208 H1195 0.930 . S
C1208 C1207 1.376 . S
C1208 C1209 1.388 . S
C1209 H1196 0.930 . S
C1209 C1208 1.388 . S
C1209 C1210 1.390 . S
C1210 C1209 1.390 . S
C1210 C1211 1.394 . S
C1210 C1216 1.465 1_455 S
C1211 C1206 1.399 . S
C1211 C1210 1.394 . S
C1211 C1212 1.516 . S
C1212 C1211 1.516 . S
C1212 C1213 1.502 1_455 S
C1212 C1214 1.561 . S
C1212 C1215 1.526 1_455 S
C1213 H1197 0.959 . S
C1213 H1198 0.959 . S
C1213 H1199 0.961 1_655 S
C1213 C1212 1.502 1_655 S
C1214 H1200 0.960 . S
C1214 H1201 0.961 . S
C1214 H1202 0.959 . S
C1214 C1212 1.561 . S
C1215 C1212 1.526 1_655 S
C1215 C1216 1.396 . S
C1215 C1220 1.390 . S
C1216 C1210 1.465 1_655 S
C1216 C1215 1.396 . S
C1216 C1217 1.399 . S
C1217 H1203 0.929 . S
C1217 C1216 1.399 . S
C1217 C1218 1.385 . S
C1218 H1204 0.931 . S
C1218 C1217 1.385 . S
C1218 C1219 1.389 . S
C1219 C1218 1.389 . S
C1219 C1220 1.387 . S
C1220 H1205 0.930 . S
C1220 C1215 1.390 . S
C1220 C1219 1.387 . S
H1221 C1233 0.930 . S
H1222 C1235 0.930 . S
H1223 C1236 0.930 . S
H1224 C1240 0.959 . S
H1225 C1240 0.959 . S
H1226 C1240 0.961 . S
H1227 C1241 0.960 . S
H1228 C1241 0.961 . S
H1229 C1241 0.959 . S
H1230 C1244 0.929 . S
H1231 C1245 0.931 . S
H1232 C1247 0.930 . S
C1233 H1221 0.930 . S
C1233 C1234 1.399 . S
C1233 C1238 1.399 . S
C1234 C1233 1.399 . S
C1234 C1235 1.376 1_556 S
C1235 H1222 0.930 . S
C1235 C1234 1.376 1_554 S
C1235 C1236 1.388 . S
C1236 H1223 0.930 . S
C1236 C1235 1.388 . S
C1236 C1237 1.390 . S
C1237 C1236 1.390 . S
C1237 C1238 1.394 1_554 S
C1237 C1243 1.465 1_565 S
C1238 C1233 1.399 . S
C1238 C1237 1.394 1_556 S
C1238 C1239 1.516 1_565 S
C1239 C1238 1.516 1_545 S
C1239 C1240 1.502 . S
C1239 C1241 1.561 . S
C1239 C1242 1.526 1_556 S
C1240 H1224 0.959 . S
C1240 H1225 0.959 . S
C1240 H1226 0.961 . S
C1240 C1239 1.502 . S
C1241 H1227 0.960 . S
C1241 H1228 0.961 . S
C1241 H1229 0.959 . S
C1241 C1239 1.561 . S
C1242 C1239 1.526 1_554 S
C1242 C1243 1.396 . S
C1242 C1247 1.390 . S
C1243 C1237 1.465 1_545 S
C1243 C1242 1.396 . S
C1243 C1244 1.399 . S
C1244 H1230 0.929 . S
C1244 C1243 1.399 . S
C1244 C1245 1.385 . S
C1245 H1231 0.931 . S
C1245 C1244 1.385 . S
C1245 C1246 1.389 . S
C1246 C1245 1.389 . S
C1246 C1247 1.387 . S
C1247 H1232 0.930 . S
C1247 C1242 1.390 . S
C1247 C1246 1.387 . S
H1248 C1260 0.930 . S
H1249 C1262 0.930 . S
H1250 C1263 0.930 . S
H1251 C1267 0.959 . S
H1252 C1267 0.959 . S
H1253 C1267 0.961 . S
H1254 C1268 0.960 . S
H1255 C1268 0.961 . S
H1256 C1268 0.959 . S
H1257 C1271 0.929 . S
H1258 C1272 0.931 . S
H1259 C1274 0.930 . S
C1260 H1248 0.930 . S
C1260 C1261 1.399 . S
C1260 C1265 1.399 . S
C1261 C1260 1.399 . S
C1261 C1262 1.376 . S
C1262 H1249 0.930 . S
C1262 C1261 1.376 . S
C1262 C1263 1.388 . S
C1263 H1250 0.930 . S
C1263 C1262 1.388 . S
C1263 C1264 1.390 . S
C1264 C1263 1.390 . S
C1264 C1265 1.394 . S
C1264 C1270 1.465 . S
C1265 C1260 1.399 . S
C1265 C1264 1.394 . S
C1265 C1266 1.516 . S
C1266 C1265 1.516 . S
C1266 C1267 1.502 . S
C1266 C1268 1.561 . S
C1266 C1269 1.526 . S
C1267 H1251 0.959 . S
C1267 H1252 0.959 . S
C1267 H1253 0.961 . S
C1267 C1266 1.502 . S
C1268 H1254 0.960 . S
C1268 H1255 0.961 . S
C1268 H1256 0.959 . S
C1268 C1266 1.561 . S
C1269 C1266 1.526 . S
C1269 C1270 1.396 . S
C1269 C1274 1.390 . S
C1270 C1264 1.465 . S
C1270 C1269 1.396 . S
C1270 C1271 1.399 . S
C1271 H1257 0.929 . S
C1271 C1270 1.399 . S
C1271 C1272 1.385 . S
C1272 H1258 0.931 . S
C1272 C1271 1.385 . S
C1272 C1273 1.389 . S
C1273 C1272 1.389 . S
C1273 C1274 1.387 . S
C1274 H1259 0.930 . S
C1274 C1269 1.390 . S
C1274 C1273 1.387 . S
H1275 C1287 0.930 . S
H1276 C1289 0.930 . S
H1277 C1290 0.930 . S
H1278 C1294 0.959 . S
H1279 C1294 0.959 1_655 S
H1280 C1294 0.961 . S
H1281 C1295 0.941 1_455 S
H1282 C1295 0.961 . S
H1283 C1295 0.959 . S
H1284 C1298 0.929 . S
H1285 C1299 0.931 . S
H1286 C1301 0.930 . S
C1287 H1275 0.930 . S
C1287 C1288 1.399 . S
C1287 C1292 1.399 . S
C1288 C1287 1.399 . S
C1288 C1289 1.376 . S
C1289 H1276 0.930 . S
C1289 C1288 1.376 . S
C1289 C1290 1.388 . S
C1290 H1277 0.930 . S
C1290 C1289 1.388 . S
C1290 C1291 1.390 . S
C1291 C1290 1.390 . S
C1291 C1292 1.394 . S
C1291 C1297 1.465 1_455 S
C1292 C1287 1.399 . S
C1292 C1291 1.394 . S
C1292 C1293 1.497 1_455 S
C1293 C1292 1.497 1_655 S
C1293 C1294 1.503 1_655 S
C1293 C1295 1.574 . S
C1293 C1296 1.532 . S
C1294 H1278 0.959 . S
C1294 H1279 0.959 1_455 S
C1294 H1280 0.961 . S
C1294 C1293 1.503 1_455 S
C1295 H1281 0.941 1_655 S
C1295 H1282 0.961 . S
C1295 H1283 0.959 . S
C1295 C1293 1.574 . S
C1296 C1293 1.532 . S
C1296 C1297 1.396 . S
C1296 C1301 1.390 . S
C1297 C1291 1.465 1_655 S
C1297 C1296 1.396 . S
C1297 C1298 1.399 . S
C1298 H1284 0.929 . S
C1298 C1297 1.399 . S
C1298 C1299 1.385 . S
C1299 H1285 0.931 . S
C1299 C1298 1.385 . S
C1299 C1300 1.389 . S
C1300 C1299 1.389 . S
C1300 C1301 1.387 . S
C1301 H1286 0.930 . S
C1301 C1296 1.390 . S
C1301 C1300 1.387 . S
H1302 C1314 0.930 . S
H1303 C1316 0.930 . S
H1304 C1317 0.941 . S
H1305 C1321 0.959 . S
H1306 C1321 0.959 . S
H1307 C1321 0.961 . S
H1308 C1322 0.960 . S
H1309 C1322 0.961 . S
H1310 C1322 0.959 . S
H1311 C1325 0.929 . S
H1312 C1326 0.931 . S
H1313 C1328 0.930 . S
C1314 H1302 0.930 . S
C1314 C1315 1.399 . S
C1314 C1319 1.399 . S
C1315 C1314 1.399 . S
C1315 C1316 1.376 . S
C1316 H1303 0.930 . S
C1316 C1315 1.376 . S
C1316 C1317 1.388 . S
C1317 H1304 0.941 . S
C1317 C1316 1.388 . S
C1317 C1318 1.390 . S
C1318 C1317 1.390 . S
C1318 C1319 1.394 . S
C1318 C1324 1.465 1_545 S
C1319 C1314 1.399 . S
C1319 C1318 1.394 . S
C1319 C1320 1.516 . S
C1320 C1319 1.516 . S
C1320 C1321 1.502 . S
C1320 C1322 1.561 . S
C1320 C1323 1.526 1_545 S
C1321 H1305 0.959 . S
C1321 H1306 0.959 . S
C1321 H1307 0.961 . S
C1321 C1320 1.502 . S
C1322 H1308 0.960 . S
C1322 H1309 0.961 . S
C1322 H1310 0.959 . S
C1322 C1320 1.561 . S
C1323 C1320 1.526 1_565 S
C1323 C1324 1.396 . S
C1323 C1328 1.390 . S
C1324 C1318 1.465 1_565 S
C1324 C1323 1.396 . S
C1324 C1325 1.399 . S
C1325 H1311 0.929 . S
C1325 C1324 1.399 . S
C1325 C1326 1.385 . S
C1326 H1312 0.931 . S
C1326 C1325 1.385 . S
C1326 C1327 1.389 . S
C1327 C1326 1.389 . S
C1327 C1328 1.387 . S
C1328 H1313 0.930 . S
C1328 C1323 1.390 . S
C1328 C1327 1.387 . S
H1329 C1341 0.930 . S
H1330 C1343 0.930 . S
H1331 C1344 0.930 . S
H1332 C1348 0.959 . S
H1333 C1348 0.959 . S
H1334 C1348 0.961 . S
H1335 C1349 0.960 . S
H1336 C1349 0.961 . S
H1337 C1349 0.959 . S
H1338 C1352 0.929 . S
H1339 C1353 0.931 . S
H1340 C1355 0.930 . S
C1341 H1329 0.930 . S
C1341 C1342 1.399 . S
C1341 C1346 1.399 . S
C1342 C1341 1.399 . S
C1342 C1343 1.376 . S
C1343 H1330 0.930 . S
C1343 C1342 1.376 . S
C1343 C1344 1.388 . S
C1344 H1331 0.930 . S
C1344 C1343 1.388 . S
C1344 C1345 1.390 . S
C1345 C1344 1.390 . S
C1345 C1346 1.394 . S
C1345 C1351 1.465 . S
C1346 C1341 1.399 . S
C1346 C1345 1.394 . S
C1346 C1347 1.516 . S
C1347 C1346 1.516 . S
C1347 C1348 1.502 . S
C1347 C1349 1.561 . S
C1347 C1350 1.526 . S
C1348 H1332 0.959 . S
C1348 H1333 0.959 . S
C1348 H1334 0.961 . S
C1348 C1347 1.502 . S
C1349 H1335 0.960 . S
C1349 H1336 0.961 . S
C1349 H1337 0.959 . S
C1349 C1347 1.561 . S
C1350 C1347 1.526 . S
C1350 C1351 1.396 . S
C1350 C1355 1.390 . S
C1351 C1345 1.465 . S
C1351 C1350 1.396 . S
C1351 C1352 1.399 . S
C1352 H1338 0.929 . S
C1352 C1351 1.399 . S
C1352 C1353 1.385 . S
C1353 H1339 0.931 . S
C1353 C1352 1.385 . S
C1353 C1354 1.389 . S
C1354 C1353 1.389 . S
C1354 C1355 1.387 . S
C1355 H1340 0.930 . S
C1355 C1350 1.390 . S
C1355 C1354 1.387 . S
C721 C52 1.681 . S
C733 C642 1.676 . S
C748 C682 1.690 . S
C760 C111 1.690 . S
C775 C151 1.679 . S
C787 C406 1.682 . S
C802 C229 1.678 . S
C814 C465 1.687 . S
C829 C288 1.678 . S
C841 C505 1.680 . S
C856 C583 1.689 . S
C868 C328 1.687 1_554 S
C883 C3 1.696 . S
C895 C477 1.719 . S
C910 C62 1.722 . S
C922 C534 1.725 . S
C937 C593 1.727 . S
C949 C123 1.704 . S
C964 C180 1.696 . S
C976 C654 1.722 . S
C991 C239 1.717 . S
C1003 C357 1.727 . S
C1018 C300 1.727 . S
C1030 C416 1.700 . S
C1045 C623 1.664 . S
C1057 C33 1.661 . S
C1072 C92 1.657 . S
C1084 C701 1.637 . S
C1099 C170 1.638 . S
C1111 C387 1.658 1_554 S
C1126 C210 1.662 . S
C1138 C446 1.657 . S
C1153 C524 1.637 . S
C1165 C269 1.658 . S
C1180 C347 1.638 . S
C1192 C564 1.642 . S
C1207 C5 1.305 . S
C1219 C652 1.290 . S
C1234 C359 1.288 . S
C1246 C64 1.304 . S
C1261 C418 1.309 . S
C1273 C121 1.281 . S
C1288 C475 1.306 . S
C1300 C182 1.290 . S
C1315 C536 1.311 . S
C1327 C241 1.292 . S
C1342 C595 1.310 . S
C1354 C298 1.280 . S
