# Generated by pormake.
# Topology wmc, (6)-cn, num edge types: 1
# Building blocks:
#     Node 0, Type 0, BuildingBlock: JUFBIX_clean_sbu_0, # of connection points: 6
#     Node 1, Type 0, BuildingBlock: JUFBIX_clean_sbu_0, # of connection points: 6
#     Node 2, Type 0, BuildingBlock: JUFBIX_clean_sbu_0, # of connection points: 6
#     Node 3, Type 0, BuildingBlock: JUFBIX_clean_sbu_0, # of connection points: 6
#     Node 4, Type 0, BuildingBlock: JUFBIX_clean_sbu_0, # of connection points: 6
#     Node 5, Type 0, BuildingBlock: JUFBIX_clean_sbu_0, # of connection points: 6
#     Node 6, Type 0, BuildingBlock: JUFBIX_clean_sbu_0, # of connection points: 6
#     Node 7, Type 0, BuildingBlock: JUFBIX_clean_sbu_0, # of connection points: 6
#     Node 8, Type 0, BuildingBlock: JUFBIX_clean_sbu_0, # of connection points: 6
#     Node 9, Type 0, BuildingBlock: JUFBIX_clean_sbu_0, # of connection points: 6
#     Node 10, Type 0, BuildingBlock: JUFBIX_clean_sbu_0, # of connection points: 6
#     Node 11, Type 0, BuildingBlock: JUFBIX_clean_sbu_0, # of connection points: 6
#     Node 12, Type 0, BuildingBlock: JUFBIX_clean_sbu_0, # of connection points: 6
#     Node 13, Type 0, BuildingBlock: JUFBIX_clean_sbu_0, # of connection points: 6
#     Node 14, Type 0, BuildingBlock: JUFBIX_clean_sbu_0, # of connection points: 6
#     Node 15, Type 0, BuildingBlock: JUFBIX_clean_sbu_0, # of connection points: 6
#     Node 16, Type 0, BuildingBlock: JUFBIX_clean_sbu_0, # of connection points: 6
#     Node 17, Type 0, BuildingBlock: JUFBIX_clean_sbu_0, # of connection points: 6
#     Edge 18, Type (0, 0), BuildingBlock: UVAHIK_clean_linker_0, # of connection points: 2
#     Edge 19, Type (0, 0), BuildingBlock: UVAHIK_clean_linker_0, # of connection points: 2
#     Edge 20, Type (0, 0), BuildingBlock: UVAHIK_clean_linker_0, # of connection points: 2
#     Edge 21, Type (0, 0), BuildingBlock: UVAHIK_clean_linker_0, # of connection points: 2
#     Edge 22, Type (0, 0), BuildingBlock: UVAHIK_clean_linker_0, # of connection points: 2
#     Edge 23, Type (0, 0), BuildingBlock: UVAHIK_clean_linker_0, # of connection points: 2
#     Edge 24, Type (0, 0), BuildingBlock: UVAHIK_clean_linker_0, # of connection points: 2
#     Edge 25, Type (0, 0), BuildingBlock: UVAHIK_clean_linker_0, # of connection points: 2
#     Edge 26, Type (0, 0), BuildingBlock: UVAHIK_clean_linker_0, # of connection points: 2
#     Edge 27, Type (0, 0), BuildingBlock: UVAHIK_clean_linker_0, # of connection points: 2
#     Edge 28, Type (0, 0), BuildingBlock: UVAHIK_clean_linker_0, # of connection points: 2
#     Edge 29, Type (0, 0), BuildingBlock: UVAHIK_clean_linker_0, # of connection points: 2
#     Edge 30, Type (0, 0), BuildingBlock: UVAHIK_clean_linker_0, # of connection points: 2
#     Edge 31, Type (0, 0), BuildingBlock: UVAHIK_clean_linker_0, # of connection points: 2
#     Edge 32, Type (0, 0), BuildingBlock: UVAHIK_clean_linker_0, # of connection points: 2
#     Edge 33, Type (0, 0), BuildingBlock: UVAHIK_clean_linker_0, # of connection points: 2
#     Edge 34, Type (0, 0), BuildingBlock: UVAHIK_clean_linker_0, # of connection points: 2
#     Edge 35, Type (0, 0), BuildingBlock: UVAHIK_clean_linker_0, # of connection points: 2
#     Edge 36, Type (0, 0), BuildingBlock: UVAHIK_clean_linker_0, # of connection points: 2
#     Edge 37, Type (0, 0), BuildingBlock: UVAHIK_clean_linker_0, # of connection points: 2
#     Edge 38, Type (0, 0), BuildingBlock: UVAHIK_clean_linker_0, # of connection points: 2
#     Edge 39, Type (0, 0), BuildingBlock: UVAHIK_clean_linker_0, # of connection points: 2
#     Edge 40, Type (0, 0), BuildingBlock: UVAHIK_clean_linker_0, # of connection points: 2
#     Edge 41, Type (0, 0), BuildingBlock: UVAHIK_clean_linker_0, # of connection points: 2
#     Edge 42, Type (0, 0), BuildingBlock: UVAHIK_clean_linker_0, # of connection points: 2
#     Edge 43, Type (0, 0), BuildingBlock: UVAHIK_clean_linker_0, # of connection points: 2
#     Edge 44, Type (0, 0), BuildingBlock: UVAHIK_clean_linker_0, # of connection points: 2
#     Edge 45, Type (0, 0), BuildingBlock: UVAHIK_clean_linker_0, # of connection points: 2
#     Edge 46, Type (0, 0), BuildingBlock: UVAHIK_clean_linker_0, # of connection points: 2
#     Edge 47, Type (0, 0), BuildingBlock: UVAHIK_clean_linker_0, # of connection points: 2
#     Edge 48, Type (0, 0), BuildingBlock: UVAHIK_clean_linker_0, # of connection points: 2
#     Edge 49, Type (0, 0), BuildingBlock: UVAHIK_clean_linker_0, # of connection points: 2
#     Edge 50, Type (0, 0), BuildingBlock: UVAHIK_clean_linker_0, # of connection points: 2
#     Edge 51, Type (0, 0), BuildingBlock: UVAHIK_clean_linker_0, # of connection points: 2
#     Edge 52, Type (0, 0), BuildingBlock: UVAHIK_clean_linker_0, # of connection points: 2
#     Edge 53, Type (0, 0), BuildingBlock: UVAHIK_clean_linker_0, # of connection points: 2
#     Edge 54, Type (0, 0), BuildingBlock: UVAHIK_clean_linker_0, # of connection points: 2
#     Edge 55, Type (0, 0), BuildingBlock: UVAHIK_clean_linker_0, # of connection points: 2
#     Edge 56, Type (0, 0), BuildingBlock: UVAHIK_clean_linker_0, # of connection points: 2
#     Edge 57, Type (0, 0), BuildingBlock: UVAHIK_clean_linker_0, # of connection points: 2
#     Edge 58, Type (0, 0), BuildingBlock: UVAHIK_clean_linker_0, # of connection points: 2
#     Edge 59, Type (0, 0), BuildingBlock: UVAHIK_clean_linker_0, # of connection points: 2
#     Edge 60, Type (0, 0), BuildingBlock: UVAHIK_clean_linker_0, # of connection points: 2
#     Edge 61, Type (0, 0), BuildingBlock: UVAHIK_clean_linker_0, # of connection points: 2
#     Edge 62, Type (0, 0), BuildingBlock: UVAHIK_clean_linker_0, # of connection points: 2
#     Edge 63, Type (0, 0), BuildingBlock: UVAHIK_clean_linker_0, # of connection points: 2
#     Edge 64, Type (0, 0), BuildingBlock: UVAHIK_clean_linker_0, # of connection points: 2
#     Edge 65, Type (0, 0), BuildingBlock: UVAHIK_clean_linker_0, # of connection points: 2
#     Edge 66, Type (0, 0), BuildingBlock: UVAHIK_clean_linker_0, # of connection points: 2
#     Edge 67, Type (0, 0), BuildingBlock: UVAHIK_clean_linker_0, # of connection points: 2
#     Edge 68, Type (0, 0), BuildingBlock: UVAHIK_clean_linker_0, # of connection points: 2
#     Edge 69, Type (0, 0), BuildingBlock: UVAHIK_clean_linker_0, # of connection points: 2
#     Edge 70, Type (0, 0), BuildingBlock: UVAHIK_clean_linker_0, # of connection points: 2
#     Edge 71, Type (0, 0), BuildingBlock: UVAHIK_clean_linker_0, # of connection points: 2
# Relax obj value: 0.505
# Max RMSD: 0.259
# Mean RMSD: 0.259
data_MOF--net-wmc--node1-JUFBIX_clean_sbu_0--edge1-UVAHIK_clean_linker_0
_symmetry_space_group_name_H-M    P1
_symmetry_Int_Tables_number       1
_symmetry_cell_setting            triclinic
loop_
_symmetry_equiv_pos_as_xyz
'x, y, z'
_cell_length_a     64.524975
_cell_length_b     64.428654
_cell_length_c     36.948889
_cell_angle_alpha  90.035532
_cell_angle_beta   90.036099
_cell_angle_gamma 120.05905
loop_
_atom_site_label
_atom_site_type_symbol
_atom_site_fract_x
_atom_site_fract_y
_atom_site_fract_z
_atom_type_partial_charge
Co0 Co 0.60209 0.10815 8e-05 0.0
C1 C 0.55354 0.07837 0.98791 0.0
Co2 Co 0.58406 0.12866 0.98539 0.0
C3 C 0.64055 0.10485 0.03434 0.0
C4 C 0.61883 0.07346 0.00278 0.0
N5 N 0.62028 0.09404 0.01408 0.0
N6 N 0.65213 0.09224 0.03557 0.0
C7 C 0.63828 0.07227 0.016 0.0
H8 H 0.6471 0.12212 0.04722 0.0
H9 H 0.60521 0.06074 0.98465 0.0
C10 C 0.63175 0.15878 -0.00408 0.0
N11 N 0.5675 0.14415 0.97234 0.0
C12 C 0.57028 0.16474 0.98639 0.0
C13 C 0.55008 0.13742 0.9473 0.0
N14 N 0.55532 0.1712 0.97117 0.0
C15 C 0.54251 0.15398 0.94658 0.0
C16 C 0.5845 0.12181 0.0585 0.0
O17 O 0.63118 0.13904 0.00146 0.0
O18 O 0.61241 0.15842 0.9886 0.0
O19 O 0.57754 0.13079 0.03413 0.0
O20 O 0.59604 0.11135 0.04958 0.0
O21 O 0.55557 0.09875 0.98208 0.0
H22 H 0.54337 0.12155 0.93059 0.0
H23 H 0.5829 0.17467 0.00775 0.0
O24 O 0.57214 0.07737 -0.00263 0.0
O25 O 0.60754 0.10481 0.95064 0.0
O26 O 0.59073 0.12625 0.93654 0.0
C27 C 0.60088 0.11456 0.92696 0.0
H28 H 0.64251 0.05835 0.01001 0.0
H29 H 0.52896 0.1536 0.92887 0.0
Co30 Co 0.90766 0.49872 -0.00069 0.0
C31 C 0.93806 0.48275 0.97672 0.0
Co32 Co 0.88968 0.45902 -0.00072 0.0
C33 C 0.91145 0.54327 0.02267 0.0
C34 C 0.93543 0.54939 0.97878 0.0
N35 N 0.91964 0.532 0.00083 0.0
N36 N 0.92109 0.56683 0.01486 0.0
C37 C 0.93642 0.57078 0.9874 0.0
H38 H 0.89819 0.5342 0.04357 0.0
H39 H 0.94484 0.54653 0.95689 0.0
C40 C 0.8587 0.4738 0.01942 0.0
N41 N 0.87676 0.42598 -0.0009 0.0
C42 C 0.85413 0.40857 0.99156 0.0
C43 C 0.88814 0.41419 0.00929 0.0
N44 N 0.85087 0.38634 -0.00311 0.0
C45 C 0.87236 0.38993 0.00796 0.0
C46 C 0.91183 0.47982 0.06358 0.0
O47 O 0.87699 0.49408 0.01299 0.0
O48 O 0.86047 0.45514 0.01676 0.0
O49 O 0.90046 0.46024 0.04639 0.0
O50 O 0.91618 0.49937 0.04873 0.0
O51 O 0.91875 0.46297 0.98127 0.0
H52 H 0.90658 0.42271 0.01819 0.0
H53 H 0.84029 0.41225 0.9828 0.0
O54 O 0.93843 0.50232 0.98445 0.0
O55 O 0.89907 0.49755 0.94975 0.0
O56 O 0.87929 0.45812 0.95207 0.0
C57 C 0.88603 0.47736 0.93442 0.0
H58 H 0.9468 0.58764 0.97334 0.0
H59 H 0.87627 0.37611 0.01597 0.0
Co60 Co 0.5207 0.4141 0.00052 0.0
C61 C 0.53848 0.46182 0.98533 0.0
Co62 Co 0.56043 0.43354 -0.00208 0.0
C63 C 0.47601 0.37388 0.02386 0.0
C64 C 0.46977 0.39407 0.98383 0.0
N65 N 0.48734 0.39409 0.00359 0.0
N66 N 0.45225 0.36097 0.01714 0.0
C67 C 0.44821 0.37382 0.99218 0.0
H68 H 0.48517 0.36835 0.04269 0.0
H69 H 0.47259 0.4073 0.96347 0.0
C70 C 0.54365 0.3865 0.01131 0.0
N71 N 0.59365 0.45251 -0.00322 0.0
C72 C 0.61037 0.44617 0.99043 0.0
C73 C 0.60624 0.47564 0.00737 0.0
N74 N 0.63283 0.4644 -0.00312 0.0
C75 C 0.6302 0.48299 0.00731 0.0
C76 C 0.54256 0.43238 0.06616 0.0
O77 O 0.52386 0.38626 0.00936 0.0
O78 O 0.56295 0.40627 0.00773 0.0
O79 O 0.56127 0.43952 0.04724 0.0
O80 O 0.52206 0.42052 0.05141 0.0
O81 O 0.55762 0.46084 0.98769 0.0
H82 H 0.59848 0.48617 0.01664 0.0
H83 H 0.60608 0.4283 0.98244 0.0
O84 O 0.51842 0.44265 0.99061 0.0
O85 O 0.51997 0.40836 0.94969 0.0
O86 O 0.5594 0.42732 0.94841 0.0
C87 C 0.53942 0.41588 0.93208 0.0
H88 H 0.43112 0.3684 0.97946 0.0
H89 H 0.64442 0.50025 0.01649 0.0
Co90 Co 0.89118 0.43817 0.50049 0.0
C91 C 0.85868 0.39082 0.50864 0.0
Co92 Co 0.90918 0.4165 0.50063 0.0
C93 C 0.85661 0.45396 0.48993 0.0
C94 C 0.88861 0.48028 0.51629 0.0
N95 N 0.87837 0.45831 0.50107 0.0
N96 N 0.85282 0.47231 0.49781 0.0
C97 C 0.87304 0.48892 0.51428 0.0
H98 H 0.84364 0.43741 0.47698 0.0
H99 H 0.90595 0.48908 0.52938 0.0
C100 C 0.94138 0.46462 0.49072 0.0
N101 N 0.92105 0.39527 0.50162 0.0
C102 C 0.91155 0.37483 0.52139 0.0
C103 C 0.93796 0.39459 0.48111 0.0
N104 N 0.92144 0.36116 0.51374 0.0
C105 C 0.9383 0.37372 0.48857 0.0
C106 C 0.89531 0.42324 0.43288 0.0
O107 O 0.92182 0.4648 0.49277 0.0
O108 O 0.94097 0.44465 0.49421 0.0
O109 O 0.9057 0.41368 0.44956 0.0
O110 O 0.88689 0.43425 0.4506 0.0
O111 O 0.87757 0.38943 0.50596 0.0
H112 H 0.94864 0.40788 0.461 0.0
H113 H 0.89716 0.3698 0.5406 0.0
O114 O 0.86043 0.4113 0.5079 0.0
O115 O 0.89593 0.44227 0.55014 0.0
O116 O 0.91267 0.41982 0.55183 0.0
C117 C 0.90585 0.4328 0.56781 0.0
H118 H 0.87601 0.50566 0.5257 0.0
H119 H 0.94934 0.36777 0.47522 0.0
Co120 Co 0.58531 0.45971 0.4844 0.0
C121 C 0.63293 0.47765 0.49469 0.0
Co122 Co 0.60302 0.49819 0.49989 0.0
C123 C 0.57159 0.40981 0.48507 0.0
C124 C 0.55142 0.41691 0.44601 0.0
N125 N 0.56884 0.42764 0.47107 0.0
N126 N 0.55659 0.38835 0.46984 0.0
C127 C 0.54381 0.39274 0.44526 0.0
H128 H 0.58416 0.41252 0.50647 0.0
H129 H 0.5447 0.42606 0.42937 0.0
C130 C 0.55455 0.47911 0.48771 0.0
N131 N 0.62115 0.53056 0.51413 0.0
C132 C 0.64178 0.54029 0.53358 0.0
C133 C 0.61925 0.54955 0.50354 0.0
N134 N 0.65312 0.56452 0.53495 0.0
C135 C 0.63876 0.57037 0.51636 0.0
C136 C 0.60175 0.4909 0.42643 0.0
O137 O 0.55674 0.46089 0.48149 0.0
O138 O 0.57302 0.49874 0.49758 0.0
O139 O 0.60831 0.50718 0.45038 0.0
O140 O 0.59179 0.46899 0.43568 0.0
O141 O 0.63214 0.49665 0.50084 0.0
H142 H 0.60526 0.54845 0.48611 0.0
H143 H 0.64876 0.52979 0.54577 0.0
O144 O 0.61372 0.45856 0.4871 0.0
O145 O 0.57898 0.45083 0.53304 0.0
O146 O 0.59705 0.48866 0.54947 0.0
C147 C 0.58575 0.46652 0.55784 0.0
H148 H 0.53021 0.37953 0.42759 0.0
H149 H 0.64266 0.58846 0.51073 0.0
Co150 Co 0.55984 0.13039 0.49886 0.0
C151 C 0.54322 0.16072 0.51263 0.0
Co152 Co 0.5201 0.1101 0.5016 0.0
C153 C 0.60948 0.16759 0.48823 0.0
C154 C 0.60589 0.13476 0.50806 0.0
N155 N 0.593 0.14479 0.4969 0.0
N156 N 0.63212 0.17217 0.49372 0.0
C157 C 0.62984 0.15144 0.50603 0.0
H158 H 0.60491 0.18072 0.47892 0.0
H159 H 0.59838 0.11677 0.51863 0.0
C160 C 0.53777 0.08006 0.48604 0.0
N161 N 0.48676 0.09675 0.50543 0.0
C162 C 0.47574 0.10557 0.52652 0.0
C163 C 0.46893 0.07939 0.48567 0.0
N164 N 0.45192 0.09487 0.52033 0.0
C165 C 0.44754 0.07814 0.49483 0.0
C166 C 0.53846 0.12721 0.43334 0.0
O167 O 0.55698 0.10022 0.48828 0.0
O168 O 0.51776 0.0792 0.49151 0.0
O169 O 0.51898 0.11504 0.45079 0.0
O170 O 0.55842 0.13563 0.44961 0.0
O171 O 0.52338 0.14117 0.5106 0.0
H172 H 0.47146 0.0691 0.46478 0.0
H173 H 0.48517 0.12011 0.54555 0.0
O174 O 0.56246 0.1602 0.50903 0.0
O175 O 0.56105 0.12525 0.548 0.0
O176 O 0.52184 0.10513 0.55241 0.0
C177 C 0.54237 0.1137 0.56699 0.0
H178 H 0.64436 0.1488 0.51481 0.0
H179 H 0.43032 0.06663 0.48232 0.0
Co180 Co 0.26931 0.44274 0.33944 0.0
C181 C 0.22098 0.41123 0.32831 0.0
Co182 Co 0.24842 0.46157 0.33811 0.0
C183 C 0.31003 0.43938 0.36258 0.0
C184 C 0.28992 0.41206 0.32353 0.0
N185 N 0.28986 0.43003 0.34214 0.0
N186 N 0.32288 0.42833 0.35723 0.0
C187 C 0.31011 0.41091 0.33284 0.0
H188 H 0.31536 0.45431 0.38093 0.0
H189 H 0.27656 0.401 0.3037 0.0
C190 C 0.29595 0.49331 0.34757 0.0
N191 N 0.22906 0.47537 0.33739 0.0
C192 C 0.23455 0.49781 0.32784 0.0
C193 C 0.20659 0.46523 0.35056 0.0
N194 N 0.21641 0.50207 0.33471 0.0
C195 C 0.19877 0.48149 0.34884 0.0
C196 C 0.25242 0.44677 0.40587 0.0
O197 O 0.29689 0.47415 0.34485 0.0
O198 O 0.27569 0.49199 0.34641 0.0
O199 O 0.24336 0.45684 0.38755 0.0
O200 O 0.2654 0.43972 0.39055 0.0
O201 O 0.22133 0.43111 0.32957 0.0
H202 H 0.19688 0.44751 0.3623 0.0
H203 H 0.25175 0.51094 0.31692 0.0
O204 O 0.24063 0.41115 0.3329 0.0
O205 O 0.2727 0.44579 0.28839 0.0
O206 O 0.25334 0.46587 0.28842 0.0
C207 C 0.26399 0.45683 0.27123 0.0
H208 H 0.31541 0.39877 0.3215 0.0
H209 H 0.18185 0.47871 0.35906 0.0
Co210 Co 0.5736 0.8316 0.32596 0.0
C211 C 0.6034 0.81294 0.31487 0.0
Co212 Co 0.55308 0.79256 0.31365 0.0
C213 C 0.57701 0.87431 0.35758 0.0
C214 C 0.60807 0.88324 0.32587 0.0
N215 N 0.5876 0.86435 0.33794 0.0
N216 N 0.58972 0.89857 0.35777 0.0
C217 C 0.60947 0.90422 0.33807 0.0
H218 H 0.55992 0.86392 0.37096 0.0
H219 H 0.62066 0.88191 0.30806 0.0
C220 C 0.52301 0.80996 0.32321 0.0
N221 N 0.53768 0.76009 0.30268 0.0
C222 C 0.51709 0.74259 0.31718 0.0
C223 C 0.54433 0.74878 0.27862 0.0
N224 N 0.51057 0.7208 0.30315 0.0
C225 C 0.52774 0.72462 0.27893 0.0
C226 C 0.56114 0.80192 0.38624 0.0
O227 O 0.54265 0.82939 0.328 0.0
O228 O 0.52346 0.79093 0.31671 0.0
O229 O 0.5516 0.78534 0.36283 0.0
O230 O 0.57171 0.82374 0.37618 0.0
O231 O 0.58305 0.79424 0.31048 0.0
H232 H 0.56012 0.75756 0.26177 0.0
H233 H 0.50718 0.74579 0.33792 0.0
O234 O 0.60439 0.83279 0.32268 0.0
O235 O 0.57561 0.83889 0.27575 0.0
O236 O 0.55465 0.80014 0.26431 0.0
C237 C 0.56557 0.8217 0.25323 0.0
H238 H 0.62342 0.92223 0.33146 0.0
H239 H 0.52803 0.71104 0.26205 0.0
Co240 Co 0.18526 0.74839 0.32891 0.0
C241 C 0.20169 0.7952 0.31065 0.0
Co242 Co 0.22472 0.76775 0.32221 0.0
C243 C 0.14225 0.70806 0.35675 0.0
C244 C 0.13342 0.72829 0.32043 0.0
N245 N 0.15223 0.72818 0.33617 0.0
N246 N 0.11816 0.69539 0.35405 0.0
C247 C 0.11246 0.70822 0.3315 0.0
H248 H 0.15249 0.70249 0.37317 0.0
H249 H 0.13487 0.74158 0.30115 0.0
C250 C 0.2095 0.72163 0.33811 0.0
N251 N 0.25752 0.78721 0.31656 0.0
C252 C 0.27406 0.78153 0.30584 0.0
C253 C 0.27023 0.81052 0.32617 0.0
N254 N 0.2966 0.80037 0.30858 0.0
C255 C 0.29414 0.81864 0.32123 0.0
C256 C 0.21037 0.76888 0.39188 0.0
O257 O 0.18955 0.72115 0.3377 0.0
O258 O 0.22852 0.74139 0.33275 0.0
O259 O 0.22815 0.77572 0.37097 0.0
O260 O 0.18924 0.75634 0.37945 0.0
O261 O 0.2208 0.79414 0.31112 0.0
H262 H 0.2627 0.82074 0.33764 0.0
H263 H 0.26966 0.76374 0.29713 0.0
O264 O 0.18197 0.7764 0.31889 0.0
O265 O 0.18183 0.74099 0.27839 0.0
O266 O 0.22113 0.75946 0.27348 0.0
C267 C 0.2005 0.74756 0.25922 0.0
H268 H 0.09454 0.70295 0.3224 0.0
H269 H 0.30862 0.83629 0.32842 0.0
Co270 Co 0.5557 0.76477 0.81425 0.0
C271 C 0.52555 0.71774 0.82783 0.0
Co272 Co 0.57647 0.74657 0.82605 0.0
C273 C 0.52064 0.78009 0.8176 0.0
C274 C 0.54775 0.79967 0.77807 0.0
N275 N 0.54074 0.78212 0.80298 0.0
N276 N 0.51484 0.79569 0.80286 0.0
C277 C 0.53192 0.80809 0.77802 0.0
H278 H 0.51052 0.76747 0.83883 0.0
H279 H 0.56327 0.80581 0.76081 0.0
C280 C 0.60622 0.79447 0.81111 0.0
N281 N 0.59052 0.72796 0.83779 0.0
C282 C 0.58037 0.70776 0.85822 0.0
C283 C 0.61035 0.72902 0.82398 0.0
N284 N 0.59267 0.69585 0.85715 0.0
C285 C 0.61175 0.70942 0.83586 0.0
C286 C 0.56577 0.74595 0.75399 0.0
O287 O 0.58577 0.79269 0.80823 0.0
O288 O 0.60737 0.7758 0.81952 0.0
O289 O 0.57646 0.73939 0.7761 0.0
O290 O 0.55552 0.75716 0.76521 0.0
O291 O 0.54534 0.71813 0.83152 0.0
H292 H 0.62231 0.74245 0.80497 0.0
H293 H 0.56376 0.70146 0.87283 0.0
O294 O 0.52584 0.73702 0.82015 0.0
O295 O 0.55599 0.77218 0.86329 0.0
O296 O 0.57669 0.75444 0.87592 0.0
C297 C 0.56658 0.76607 0.88623 0.0
H298 H 0.53258 0.82183 0.7604 0.0
H299 H 0.6251 0.70487 0.82774 0.0
Co300 Co 0.25292 0.79099 0.81469 0.0
C301 C 0.30028 0.80902 0.82894 0.0
Co302 Co 0.27054 0.82972 0.82844 0.0
C303 C 0.23952 0.74128 0.81911 0.0
C304 C 0.22018 0.74716 0.77714 0.0
N305 N 0.2369 0.75862 0.80295 0.0
N306 N 0.22516 0.71944 0.8045 0.0
C307 C 0.21288 0.72306 0.7781 0.0
H308 H 0.25158 0.74461 0.84157 0.0
H309 H 0.21376 0.75578 0.75879 0.0
C310 C 0.2223 0.81045 0.81261 0.0
N311 N 0.28825 0.86235 0.84131 0.0
C312 C 0.30827 0.87253 0.86218 0.0
C313 C 0.28672 0.88106 0.82826 0.0
N314 N 0.31962 0.89678 0.86212 0.0
C315 C 0.30586 0.90217 0.84104 0.0
C316 C 0.27111 0.82102 0.75565 0.0
O317 O 0.22456 0.79213 0.80795 0.0
O318 O 0.24055 0.83013 0.82296 0.0
O319 O 0.27702 0.83767 0.7788 0.0
O320 O 0.26097 0.79928 0.76585 0.0
O321 O 0.29968 0.82832 0.83264 0.0
H322 H 0.27329 0.87953 0.80919 0.0
H323 H 0.31485 0.86231 0.87638 0.0
O324 O 0.28113 0.78989 0.82133 0.0
O325 O 0.24493 0.78312 0.86327 0.0
O326 O 0.26338 0.82125 0.87807 0.0
C327 C 0.25129 0.7993 0.88722 0.0
H328 H 0.19986 0.70936 0.76032 0.0
H329 H 0.30998 0.92009 0.83368 0.0
Co330 Co 0.22527 0.46101 0.84385 0.0
C331 C 0.20939 0.49204 0.85848 0.0
Co332 Co 0.18573 0.44273 0.83899 0.0
C333 C 0.27577 0.49631 0.8388 0.0
C334 C 0.26953 0.4632 0.8618 0.0
N335 N 0.25814 0.47406 0.84769 0.0
N336 N 0.29775 0.49981 0.84694 0.0
C337 C 0.29379 0.47891 0.86137 0.0
H338 H 0.27245 0.50967 0.82673 0.0
H339 H 0.2607 0.44513 0.87244 0.0
C340 C 0.20287 0.41221 0.82234 0.0
N341 N 0.1526 0.43075 0.83643 0.0
C342 C 0.14055 0.43836 0.85756 0.0
C343 C 0.13658 0.41687 0.81111 0.0
N344 N 0.11787 0.43038 0.84613 0.0
C345 C 0.11525 0.41656 0.81705 0.0
C346 C 0.21012 0.464 0.77588 0.0
O347 O 0.22223 0.4316 0.82886 0.0
O348 O 0.18297 0.41193 0.82572 0.0
O349 O 0.18929 0.45137 0.78933 0.0
O350 O 0.22843 0.47062 0.79575 0.0
O351 O 0.18953 0.47344 0.85112 0.0
H352 H 0.14055 0.40868 0.78861 0.0
H353 H 0.14865 0.45038 0.88027 0.0
O354 O 0.22826 0.49056 0.85845 0.0
O355 O 0.22182 0.45095 0.89174 0.0
O356 O 0.18263 0.43408 0.88873 0.0
C357 C 0.20144 0.43908 0.90642 0.0
H358 H 0.30736 0.47539 0.87199 0.0
H359 H 0.09953 0.40794 0.79993 0.0
Co360 Co 0.93666 0.77586 0.66834 0.0
C361 C 0.88863 0.74553 0.6557 0.0
Co362 Co 0.91704 0.79602 0.66691 0.0
C363 C 0.97674 0.77126 0.69156 0.0
C364 C 0.95694 0.7453 0.65063 0.0
N365 N 0.95675 0.76262 0.67082 0.0
N366 N 0.98967 0.76045 0.6848 0.0
C367 C 0.97707 0.74387 0.65922 0.0
H368 H 0.98201 0.78571 0.71083 0.0
H369 H 0.94388 0.73508 0.62995 0.0
C370 C 0.96428 0.82662 0.67803 0.0
N371 N 0.89801 0.81018 0.66644 0.0
C372 C 0.90371 0.83279 0.6576 0.0
C373 C 0.87541 0.79995 0.67914 0.0
N374 N 0.88554 0.83702 0.66439 0.0
C375 C 0.86771 0.81629 0.67779 0.0
C376 C 0.91994 0.78024 0.73481 0.0
O377 O 0.96459 0.80707 0.67602 0.0
O378 O 0.94443 0.82603 0.67527 0.0
O379 O 0.91229 0.7916 0.71645 0.0
O380 O 0.93132 0.77135 0.71941 0.0
O381 O 0.88954 0.76565 0.65819 0.0
H382 H 0.8655 0.78208 0.69031 0.0
H383 H 0.92105 0.84604 0.64725 0.0
O384 O 0.90797 0.74483 0.65971 0.0
O385 O 0.94137 0.78035 0.61725 0.0
O386 O 0.92211 0.80055 0.61726 0.0
C387 C 0.93333 0.79206 0.60025 0.0
H388 H 0.98253 0.73228 0.64635 0.0
H389 H 0.85072 0.81345 0.68778 0.0
Co390 Co 0.24121 0.16545 0.66146 0.0
C391 C 0.27134 0.14711 0.6492 0.0
Co392 Co 0.22104 0.12633 0.65015 0.0
C393 C 0.24451 0.20827 0.69239 0.0
C394 C 0.27531 0.21707 0.66009 0.0
N395 N 0.2551 0.19823 0.67296 0.0
N396 N 0.25693 0.23253 0.69163 0.0
C397 C 0.27652 0.23809 0.67156 0.0
H398 H 0.22754 0.1979 0.7061 0.0
H399 H 0.28774 0.21565 0.64206 0.0
C400 C 0.19064 0.14344 0.66044 0.0
N401 N 0.20579 0.09385 0.6392 0.0
C402 C 0.18553 0.0761 0.6541 0.0
C403 C 0.21232 0.08284 0.61443 0.0
N404 N 0.17912 0.05444 0.63964 0.0
C405 C 0.19602 0.05862 0.61471 0.0
C406 C 0.22987 0.13613 0.72207 0.0
O407 O 0.21027 0.1631 0.66343 0.0
O408 O 0.19118 0.12431 0.6552 0.0
O409 O 0.22098 0.11935 0.69893 0.0
O410 O 0.23919 0.15784 0.7118 0.0
O411 O 0.251 0.1284 0.64491 0.0
H412 H 0.22783 0.09188 0.59704 0.0
H413 H 0.17573 0.07903 0.67535 0.0
O414 O 0.27222 0.16677 0.6581 0.0
O415 O 0.24317 0.17248 0.61121 0.0
O416 O 0.22136 0.13366 0.6012 0.0
C417 C 0.23246 0.15501 0.58933 0.0
H418 H 0.29016 0.25604 0.66403 0.0
H419 H 0.19628 0.04525 0.59727 0.0
Co420 Co 0.85242 0.08166 0.66176 0.0
C421 C 0.86865 0.12878 0.64488 0.0
Co422 Co 0.89202 0.10187 0.65704 0.0
C423 C 0.80895 0.04111 0.68791 0.0
C424 C 0.80091 0.06043 0.64864 0.0
N425 N 0.8193 0.06102 0.6669 0.0
N426 N 0.785 0.02786 0.68312 0.0
C427 C 0.77983 0.04014 0.65865 0.0
H428 H 0.81889 0.0361 0.70602 0.0
H429 H 0.80281 0.07334 0.62831 0.0
C430 C 0.87695 0.05547 0.67182 0.0
N431 N 0.92497 0.12165 0.65364 0.0
C432 C 0.94192 0.11628 0.64397 0.0
C433 C 0.93728 0.14474 0.66447 0.0
N434 N 0.96432 0.13509 0.64855 0.0
C435 C 0.96135 0.15303 0.66129 0.0
C436 C 0.87566 0.10131 0.72609 0.0
O437 O 0.85683 0.05458 0.67071 0.0
O438 O 0.89585 0.07546 0.66723 0.0
O439 O 0.89399 0.10879 0.70617 0.0
O440 O 0.85491 0.08875 0.7124 0.0
O441 O 0.88804 0.12826 0.64638 0.0
H442 H 0.92931 0.15465 0.6756 0.0
H443 H 0.93789 0.09871 0.63468 0.0
O444 O 0.84895 0.10954 0.65166 0.0
O445 O 0.85047 0.07505 0.61116 0.0
O446 O 0.88986 0.09464 0.60786 0.0
C447 C 0.86956 0.08249 0.59267 0.0
H448 H 0.76224 0.03435 0.64751 0.0
H449 H 0.97554 0.17055 0.66966 0.0
Co450 Co 0.22182 0.10218 0.16751 0.0
C451 C 0.19025 0.05509 0.17878 0.0
Co452 Co 0.24002 0.08086 0.16193 0.0
C453 C 0.18706 0.1179 0.16133 0.0
C454 C 0.21949 0.14403 0.18698 0.0
N455 N 0.20898 0.12219 0.17135 0.0
N456 N 0.18337 0.13616 0.17029 0.0
C457 C 0.20384 0.15265 0.18636 0.0
H458 H 0.17402 0.10156 0.14801 0.0
H459 H 0.23719 0.15287 0.1989 0.0
C460 C 0.27111 0.12868 0.14878 0.0
N461 N 0.25177 0.0595 0.15997 0.0
C462 C 0.24358 0.0398 0.18121 0.0
C463 C 0.26691 0.05775 0.1367 0.0
N464 N 0.25248 0.02554 0.17188 0.0
C465 C 0.26746 0.03694 0.14406 0.0
C466 C 0.22074 0.08586 0.09819 0.0
O467 O 0.25196 0.12888 0.15608 0.0
O468 O 0.27094 0.10874 0.15012 0.0
O469 O 0.23217 0.07638 0.11186 0.0
O470 O 0.21439 0.09772 0.11823 0.0
O471 O 0.20901 0.0539 0.17276 0.0
H472 H 0.27617 0.07022 0.11494 0.0
H473 H 0.23083 0.03568 0.20288 0.0
O474 O 0.19169 0.07543 0.17847 0.0
O475 O 0.22941 0.10651 0.21673 0.0
O476 O 0.24792 0.0858 0.21195 0.0
C477 C 0.24134 0.09789 0.2309 0.0
H478 H 0.20707 0.16941 0.19809 0.0
H479 H 0.27728 0.03022 0.12904 0.0
Co480 Co 0.91772 0.12825 0.14804 0.0
C481 C 0.96526 0.14529 0.15799 0.0
Co482 Co 0.93606 0.16657 0.16477 0.0
C483 C 0.90304 0.07804 0.14595 0.0
C484 C 0.88306 0.08651 0.10849 0.0
N485 N 0.90072 0.09644 0.13333 0.0
N486 N 0.8875 0.05699 0.13009 0.0
C487 C 0.87485 0.06225 0.10651 0.0
H488 H 0.91566 0.08002 0.16686 0.0
H489 H 0.87655 0.09627 0.09287 0.0
C490 C 0.88758 0.1483 0.15343 0.0
N491 N 0.95461 0.19864 0.18038 0.0
C492 C 0.97536 0.20785 0.19947 0.0
C493 C 0.95265 0.2179 0.17167 0.0
N494 N 0.98668 0.23202 0.20245 0.0
C495 C 0.97223 0.23836 0.18527 0.0
C496 C 0.93473 0.16038 0.09126 0.0
O497 O 0.88939 0.12997 0.14633 0.0
O498 O 0.90634 0.16774 0.16314 0.0
O499 O 0.94173 0.17648 0.11555 0.0
O500 O 0.92418 0.13836 0.09989 0.0
O501 O 0.96481 0.16435 0.16515 0.0
H502 H 0.93851 0.21726 0.15513 0.0
H503 H 0.98239 0.19706 0.2104 0.0
O504 O 0.94589 0.12653 0.14971 0.0
O505 O 0.91141 0.11853 0.19613 0.0
O506 O 0.92974 0.1561 0.21396 0.0
C507 C 0.91824 0.13383 0.22148 0.0
H508 H 0.86091 0.04956 0.08871 0.0
H509 H 0.97606 0.25659 0.18122 0.0
Co510 Co 0.89078 0.79843 0.15219 0.0
C511 C 0.87288 0.828 0.1653 0.0
Co512 Co 0.85205 0.77733 0.16507 0.0
C513 C 0.94062 0.83463 0.15582 0.0
C514 C 0.93404 0.80875 0.1145 0.0
N515 N 0.92302 0.81449 0.14034 0.0
N516 N 0.9622 0.84173 0.14071 0.0
C517 C 0.95813 0.82542 0.11473 0.0
H518 H 0.93764 0.8438 0.17802 0.0
H519 H 0.9251 0.79351 0.0965 0.0
C520 C 0.87117 0.74818 0.14992 0.0
N521 N 0.81951 0.76244 0.17758 0.0
C522 C 0.80926 0.7724 0.19792 0.0
C523 C 0.80091 0.74206 0.16457 0.0
N524 N 0.78507 0.75945 0.19754 0.0
C525 C 0.77978 0.74013 0.17684 0.0
C526 C 0.86092 0.78658 0.09269 0.0
O527 O 0.88953 0.7688 0.14576 0.0
O528 O 0.85149 0.74677 0.15987 0.0
O529 O 0.84416 0.77575 0.1155 0.0
O530 O 0.88256 0.79808 0.10327 0.0
O531 O 0.85357 0.80808 0.16887 0.0
H532 H 0.80254 0.73005 0.14583 0.0
H533 H 0.81939 0.78933 0.21191 0.0
O534 O 0.89204 0.82792 0.15839 0.0
O535 O 0.89859 0.79851 0.20097 0.0
O536 O 0.86037 0.77876 0.2148 0.0
C537 C 0.8822 0.78873 0.22456 0.0
H538 H 0.97149 0.82578 0.09664 0.0
H539 H 0.76191 0.72627 0.16934 0.0
C540 C 0.53214 0.19226 0.97428 0.0
C541 C 0.5538 0.19233 0.97897 0.0
C542 C 0.53079 0.2129 0.9813 0.0
C543 C 0.56824 0.27844 0.98558 0.0
H544 H 0.51451 0.2755 0.03717 0.0
C545 C 0.5661 0.36446 0.01935 0.0
C546 C 0.54421 0.36389 0.01464 0.0
C547 C 0.56708 0.34328 0.01868 0.0
C548 C 0.52952 0.27662 0.0224 0.0
H549 H 0.59105 0.2142 -0.0054 0.0
H550 H 0.5887 0.25017 0.0069 0.0
H551 H 0.51646 0.23895 0.02823 0.0
H552 H 0.50603 0.34052 0.00671 0.0
H553 H 0.50779 0.30362 0.00475 0.0
H554 H 0.58109 0.31587 0.97884 0.0
C555 C 0.57276 0.23415 -0.00224 0.0
C556 C 0.53064 0.25567 0.01734 0.0
C557 C 0.57405 0.21347 0.99103 0.0
C558 C 0.52318 0.34157 0.01051 0.0
C559 C 0.52419 0.32038 0.00954 0.0
C560 C 0.56704 0.29933 0.99038 0.0
C561 C 0.55114 0.23413 -0.00715 0.0
C562 C 0.55001 0.25636 -0.00115 0.0
C563 C 0.54623 0.321 0.01293 0.0
C564 C 0.54767 0.29873 0.00885 0.0
H565 H 0.51618 0.17621 0.96537 0.0
H566 H 0.51393 0.21237 0.977 0.0
H567 H 0.5832 0.27951 0.97071 0.0
H568 H 0.58262 0.38134 0.02288 0.0
H569 H 0.58429 0.34444 0.02224 0.0
C570 C 0.65434 0.20364 -0.00457 0.0
C571 C 0.65455 0.18194 -0.00273 0.0
C572 C 0.67574 0.22559 -0.00431 0.0
C573 C 0.73967 0.25325 0.97468 0.0
H574 H 0.74555 0.30567 0.03385 0.0
C575 C 0.82936 0.34206 0.99118 0.0
C576 C 0.82885 0.36357 -0.00578 0.0
C577 C 0.80816 0.3199 0.99086 0.0
C578 C 0.74412 0.29136 0.01672 0.0
H579 H 0.67743 0.1663 0.00108 0.0
H580 H 0.71493 0.2048 0.00128 0.0
H581 H 0.70869 0.26696 0.03561 0.0
H582 H 0.80523 0.37838 -0.00145 0.0
H583 H 0.76834 0.33988 -0.0033 0.0
H584 H 0.77489 0.27768 0.95526 0.0
C585 C 0.69813 0.20472 -0.00048 0.0
C586 C 0.72301 0.26913 0.01789 0.0
C587 C 0.67667 0.1827 -0.0004 0.0
C588 C 0.80646 0.36231 -0.00405 0.0
C589 C 0.78523 0.34013 -0.00459 0.0
C590 C 0.76073 0.27555 0.97327 0.0
C591 C 0.69787 0.22639 -0.00248 0.0
C592 C 0.72055 0.24983 -0.00312 0.0
C593 C 0.7858 0.31861 -0.00672 0.0
C594 C 0.76324 0.29492 -0.00571 0.0
H595 H 0.63762 0.20371 -0.00636 0.0
H596 H 0.67495 0.24196 -0.00624 0.0
H597 H 0.73817 0.23881 0.95779 0.0
H598 H 0.84616 0.34223 0.98922 0.0
H599 H 0.80938 0.30376 0.98952 0.0
C600 C 0.67698 0.48493 -0.00556 0.0
C601 C 0.65481 0.46364 -0.00231 0.0
C602 C 0.69839 0.48479 -0.00107 0.0
C603 C 0.72531 0.44629 -0.00267 0.0
H604 H 0.77414 0.49655 0.0571 0.0
C605 C 0.81432 0.44923 0.02876 0.0
C606 C 0.83511 0.47182 0.02552 0.0
C607 C 0.79171 0.44723 0.02932 0.0
C608 C 0.76079 0.4825 0.04012 0.0
H609 H 0.6379 0.42532 0.00716 0.0
H610 H 0.67538 0.42507 0.01441 0.0
H611 H 0.73592 0.49488 0.04804 0.0
H612 H 0.8485 0.51009 0.0219 0.0
H613 H 0.80922 0.50658 0.02244 0.0
H614 H 0.75034 0.43421 0.98868 0.0
C615 C 0.67609 0.44187 0.00842 0.0
C616 C 0.73889 0.48155 0.03493 0.0
C617 C 0.65461 0.44201 0.00411 0.0
C618 C 0.83286 0.49241 0.02449 0.0
C619 C 0.81029 0.4904 0.02495 0.0
C620 C 0.74729 0.44732 0.00235 0.0
C621 C 0.69819 0.46334 0.00655 0.0
C622 C 0.72102 0.46361 0.01314 0.0
C623 C 0.7894 0.46775 0.02659 0.0
C624 C 0.7654 0.4656 0.0235 0.0
H625 H 0.67783 0.50181 0.98876 0.0
H626 H 0.71515 0.50155 -0.00349 0.0
H627 H 0.71195 0.43237 0.98019 0.0
H628 H 0.81543 0.43301 0.02969 0.0
H629 H 0.77602 0.42954 0.03127 0.0
C630 C 0.65611 0.45615 0.49146 0.0
C631 C 0.6559 0.47774 0.49536 0.0
C632 C 0.6777 0.45608 0.49079 0.0
C633 C 0.74186 0.49248 0.51496 0.0
H634 H 0.74825 0.44929 0.44867 0.0
C635 C 0.83175 0.49539 0.4928 0.0
C636 C 0.83106 0.47321 0.49331 0.0
C637 C 0.81063 0.49636 0.49135 0.0
C638 C 0.74667 0.46132 0.4675 0.0
H639 H 0.67823 0.51623 0.5019 0.0
H640 H 0.71604 0.51619 0.50014 0.0
H641 H 0.71108 0.45049 0.44996 0.0
H642 H 0.80739 0.43463 0.49195 0.0
H643 H 0.77057 0.43636 0.48892 0.0
H644 H 0.77755 0.50338 0.5323 0.0
C645 C 0.69945 0.49923 0.49811 0.0
C646 C 0.72536 0.46198 0.46833 0.0
C647 C 0.67779 0.49929 0.49897 0.0
C648 C 0.80869 0.45202 0.49116 0.0
C649 C 0.78755 0.45301 0.48951 0.0
C650 C 0.76323 0.4919 0.51398 0.0
C651 C 0.69966 0.47763 0.49377 0.0
C652 C 0.72262 0.47745 0.49225 0.0
C653 C 0.78828 0.47518 0.49011 0.0
C654 C 0.76581 0.47622 0.49037 0.0
H655 H 0.63955 0.4392 0.48888 0.0
H656 H 0.67714 0.43907 0.48816 0.0
H657 H 0.74027 0.50435 0.53409 0.0
H658 H 0.84864 0.51207 0.49369 0.0
H659 H 0.81179 0.51372 0.49118 0.0
C660 C 0.52297 0.18533 0.51165 0.0
C661 C 0.54392 0.18398 0.51587 0.0
C662 C 0.52414 0.20761 0.5104 0.0
C663 C 0.56733 0.27147 0.4906 0.0
H664 H 0.51699 0.28175 0.52779 0.0
C665 C 0.57506 0.3647 0.49 0.0
C666 C 0.55491 0.36564 0.47779 0.0
C667 C 0.5736 0.34267 0.49697 0.0
C668 C 0.53111 0.27908 0.51708 0.0
H669 H 0.58234 0.2049 0.52405 0.0
H670 H 0.58428 0.2436 0.52298 0.0
H671 H 0.51474 0.24315 0.53731 0.0
H672 H 0.51727 0.34417 0.46416 0.0
H673 H 0.51472 0.30567 0.47622 0.0
H674 H 0.58373 0.30741 0.47053 0.0
C675 C 0.56702 0.22754 0.51952 0.0
C676 C 0.52981 0.25695 0.52247 0.0
C677 C 0.56588 0.20532 0.52046 0.0
C678 C 0.53317 0.34404 0.47318 0.0
C679 C 0.53165 0.32201 0.48045 0.0
C680 C 0.5687 0.29361 0.48547 0.0
C681 C 0.54625 0.22903 0.51362 0.0
C682 C 0.54787 0.25282 0.50917 0.0
C683 C 0.55189 0.32107 0.49217 0.0
C684 C 0.55057 0.29765 0.4985 0.0
H685 H 0.50577 0.16922 0.50794 0.0
H686 H 0.50779 0.208 0.50551 0.0
H687 H 0.58131 0.26884 0.47923 0.0
H688 H 0.59212 0.38097 0.49352 0.0
H689 H 0.58947 0.34256 0.50624 0.0
C690 C 0.67607 0.19556 0.4865 0.0
C691 C 0.65411 0.19488 0.49115 0.0
C692 C 0.69762 0.21733 0.48705 0.0
C693 C 0.72418 0.27966 0.52009 0.0
H694 H 0.777 0.2899 0.45822 0.0
C695 C 0.81383 0.37009 0.5114 0.0
C696 C 0.83491 0.36875 0.50992 0.0
C697 C 0.79137 0.34925 0.50953 0.0
C698 C 0.76249 0.28721 0.47591 0.0
H699 H 0.63769 0.21681 0.49919 0.0
H700 H 0.67532 0.25491 0.49921 0.0
H701 H 0.7384 0.25332 0.45186 0.0
H702 H 0.84889 0.34439 0.5064 0.0
H703 H 0.80976 0.30813 0.50328 0.0
H704 H 0.74839 0.31372 0.54398 0.0
C705 C 0.67584 0.23848 0.49575 0.0
C706 C 0.74034 0.26624 0.47227 0.0
C707 C 0.65422 0.21664 0.49526 0.0
C708 C 0.83303 0.34609 0.50748 0.0
C709 C 0.8106 0.3253 0.50542 0.0
C710 C 0.74633 0.30073 0.5236 0.0
C711 C 0.69783 0.23907 0.49209 0.0
C712 C 0.72097 0.26207 0.49455 0.0
C713 C 0.78953 0.32666 0.50593 0.0
C714 C 0.7658 0.30461 0.5018 0.0
H715 H 0.67665 0.1792 0.4828 0.0
H716 H 0.71419 0.21703 0.4845 0.0
H717 H 0.70977 0.2769 0.53805 0.0
H718 H 0.81465 0.38727 0.51323 0.0
H719 H 0.77546 0.35088 0.50981 0.0
C720 C 0.23255 0.69989 0.34198 0.0
C721 C 0.21041 0.6992 0.3417 0.0
C722 C 0.23346 0.67866 0.34192 0.0
C723 C 0.19787 0.61524 0.31545 0.0
H724 H 0.24346 0.60758 0.37404 0.0
C725 C 0.19475 0.52452 0.32907 0.0
C726 C 0.21645 0.52444 0.33168 0.0
C727 C 0.19446 0.54605 0.32919 0.0
C728 C 0.23086 0.60955 0.35708 0.0
H729 H 0.17188 0.67563 0.34217 0.0
H730 H 0.1735 0.63859 0.34226 0.0
H731 H 0.24181 0.64451 0.37831 0.0
H732 H 0.25501 0.54723 0.33558 0.0
H733 H 0.25458 0.58484 0.33479 0.0
H734 H 0.18703 0.58043 0.29395 0.0
C735 C 0.19014 0.65557 0.34212 0.0
C736 C 0.22986 0.6307 0.35966 0.0
C737 C 0.18922 0.6768 0.34236 0.0
C738 C 0.23797 0.54655 0.33329 0.0
C739 C 0.2377 0.56814 0.33333 0.0
C740 C 0.19895 0.59416 0.31274 0.0
C741 C 0.21228 0.65626 0.3414 0.0
C742 C 0.21328 0.63374 0.33899 0.0
C743 C 0.2159 0.56815 0.33173 0.0
C744 C 0.21538 0.59098 0.33364 0.0
H745 H 0.24922 0.71684 0.34139 0.0
H746 H 0.25079 0.67982 0.34109 0.0
H747 H 0.1852 0.61721 0.29864 0.0
H748 H 0.17786 0.50788 0.32729 0.0
H749 H 0.17733 0.5453 0.32823 0.0
C750 C 0.48925 0.67654 0.30802 0.0
C751 C 0.48934 0.69832 0.3115 0.0
C752 C 0.46853 0.65472 0.31544 0.0
C753 C 0.40304 0.62685 0.31892 0.0
H754 H 0.40589 0.57665 0.37262 0.0
C755 C 0.31725 0.53813 0.35319 0.0
C756 C 0.31824 0.51693 0.34955 0.0
C757 C 0.33819 0.56052 0.35204 0.0
C758 C 0.40479 0.59037 0.35726 0.0
H759 H 0.46764 0.71418 0.32538 0.0
H760 H 0.43151 0.67612 0.33839 0.0
H761 H 0.44235 0.61514 0.3634 0.0
H762 H 0.34213 0.50264 0.34279 0.0
H763 H 0.37852 0.5416 0.34002 0.0
H764 H 0.3657 0.60206 0.3119 0.0
C765 C 0.44748 0.67594 0.32988 0.0
C766 C 0.4257 0.61245 0.35204 0.0
C767 C 0.46826 0.69777 0.32276 0.0
C768 C 0.34071 0.51861 0.34574 0.0
C769 C 0.36164 0.54101 0.34436 0.0
C770 C 0.38218 0.60474 0.32389 0.0
C771 C 0.44736 0.65416 0.3262 0.0
C772 C 0.42507 0.63091 0.33269 0.0
C773 C 0.36064 0.56228 0.34698 0.0
C774 C 0.38277 0.58615 0.34301 0.0
H775 H 0.50525 0.67637 0.29974 0.0
H776 H 0.46896 0.63824 0.31206 0.0
H777 H 0.40202 0.64058 0.30344 0.0
H778 H 0.30024 0.53747 0.35637 0.0
H779 H 0.33674 0.57648 0.35489 0.0
C780 C 0.49892 0.83073 0.32242 0.0
C781 C 0.49987 0.80942 0.32356 0.0
C782 C 0.47685 0.82985 0.32006 0.0
C783 C 0.41257 0.79086 0.3374 0.0
H784 H 0.40431 0.82953 0.26474 0.0
C785 C 0.31987 0.77933 0.30821 0.0
C786 C 0.31886 0.8005 0.30412 0.0
C787 C 0.34188 0.78006 0.30808 0.0
C788 C 0.40637 0.8188 0.28542 0.0
H789 H 0.47849 0.77055 0.32421 0.0
H790 H 0.44014 0.76911 0.32048 0.0
H791 H 0.44329 0.83246 0.27211 0.0
H792 H 0.34014 0.83877 0.29435 0.0
H793 H 0.37844 0.84017 0.29527 0.0
H794 H 0.3759 0.77745 0.35126 0.0
C795 C 0.45638 0.78644 0.32133 0.0
C796 C 0.4287 0.82051 0.28964 0.0
C797 C 0.47837 0.78729 0.3233 0.0
C798 C 0.34028 0.8222 0.29825 0.0
C799 C 0.36227 0.82296 0.29833 0.0
C800 C 0.39032 0.78927 0.3334 0.0
C801 C 0.4554 0.80768 0.31928 0.0
C802 C 0.43199 0.80652 0.31561 0.0
C803 C 0.36338 0.80198 0.30398 0.0
C804 C 0.38692 0.80318 0.30731 0.0
H805 H 0.5152 0.84804 0.32257 0.0
H806 H 0.47655 0.8465 0.31887 0.0
H807 H 0.41468 0.78004 0.3579 0.0
H808 H 0.30379 0.76231 0.31292 0.0
H809 H 0.34207 0.76349 0.31179 0.0
C810 C 0.49499 0.81997 0.80635 0.0
C811 C 0.49411 0.79785 0.81051 0.0
C812 C 0.47455 0.82181 0.81199 0.0
C813 C 0.40934 0.78564 0.80837 0.0
H814 H 0.41017 0.83775 0.86221 0.0
C815 C 0.32243 0.7867 0.83497 0.0
C816 C 0.32296 0.8087 0.83215 0.0
C817 C 0.34363 0.7859 0.83544 0.0
C818 C 0.40969 0.82323 0.84673 0.0
H819 H 0.47116 0.76039 0.82421 0.0
H820 H 0.43543 0.76357 0.83397 0.0
H821 H 0.44677 0.83545 0.85722 0.0
H822 H 0.34618 0.84723 0.82868 0.0
H823 H 0.38335 0.84584 0.82843 0.0
H824 H 0.37264 0.77368 0.79687 0.0
C825 C 0.45196 0.77948 0.82633 0.0
C826 C 0.43063 0.82189 0.844 0.0
C827 C 0.47245 0.7777 0.82106 0.0
C828 C 0.34522 0.83 0.83086 0.0
C829 C 0.36652 0.82919 0.8309 0.0
C830 C 0.38852 0.78709 0.81078 0.0
C831 C 0.45273 0.8015 0.82152 0.0
C832 C 0.43061 0.803 0.82492 0.0
C833 C 0.36595 0.80707 0.83261 0.0
C834 C 0.38835 0.80581 0.83016 0.0
H835 H 0.51149 0.83584 0.79862 0.0
H836 H 0.47564 0.83898 0.8079 0.0
H837 H 0.4089 0.77113 0.79289 0.0
H838 H 0.30556 0.76997 0.83651 0.0
H839 H 0.34247 0.7686 0.83778 0.0
C840 C 0.19029 0.51764 0.85711 0.0
C841 C 0.21074 0.51558 0.86275 0.0
C842 C 0.19207 0.54017 0.85598 0.0
C843 C 0.23667 0.60381 0.83811 0.0
H844 H 0.18534 0.61445 0.86913 0.0
C845 C 0.24363 0.69675 0.82908 0.0
C846 C 0.22363 0.69707 0.81461 0.0
C847 C 0.24231 0.67505 0.8382 0.0
C848 C 0.19977 0.6117 0.86017 0.0
H849 H 0.2489 0.53556 0.87361 0.0
H850 H 0.2519 0.57482 0.87266 0.0
H851 H 0.18274 0.57598 0.88128 0.0
H852 H 0.18642 0.67485 0.79916 0.0
H853 H 0.18411 0.63694 0.81499 0.0
H854 H 0.25367 0.63955 0.81703 0.0
C855 C 0.23456 0.55906 0.86813 0.0
C856 C 0.19828 0.58964 0.86708 0.0
C857 C 0.23281 0.53651 0.86903 0.0
C858 C 0.20219 0.6752 0.80991 0.0
C859 C 0.20081 0.65351 0.81934 0.0
C860 C 0.23823 0.62591 0.83146 0.0
C861 C 0.21433 0.56123 0.8607 0.0
C862 C 0.2166 0.58529 0.85579 0.0
C863 C 0.2209 0.65317 0.83338 0.0
C864 C 0.21968 0.63003 0.84205 0.0
H865 H 0.173 0.5019 0.85209 0.0
H866 H 0.17613 0.54106 0.84983 0.0
H867 H 0.25092 0.60104 0.82835 0.0
H868 H 0.26047 0.71325 0.83273 0.0
H869 H 0.25806 0.67541 0.84918 0.0
C870 C 0.32205 0.54407 0.84161 0.0
C871 C 0.32059 0.52156 0.84311 0.0
C872 C 0.34428 0.56515 0.8396 0.0
C873 C 0.40832 0.58812 0.81757 0.0
H874 H 0.41808 0.64309 0.87396 0.0
C875 C 0.50159 0.67301 0.83546 0.0
C876 C 0.50242 0.69511 0.83144 0.0
C877 C 0.47956 0.65164 0.83743 0.0
C878 C 0.41558 0.62795 0.85785 0.0
H879 H 0.34156 0.50373 0.84247 0.0
H880 H 0.3802 0.54036 0.83998 0.0
H881 H 0.37929 0.60632 0.87529 0.0
H882 H 0.48077 0.71212 0.82685 0.0
H883 H 0.44252 0.67496 0.83032 0.0
H884 H 0.44474 0.60979 0.80041 0.0
C885 C 0.36415 0.54175 0.84 0.0
C886 C 0.39331 0.60689 0.85849 0.0
C887 C 0.34194 0.5207 0.8419 0.0
C888 C 0.48079 0.69541 0.82996 0.0
C889 C 0.45884 0.67411 0.83215 0.0
C890 C 0.43064 0.60916 0.81708 0.0
C891 C 0.36563 0.56427 0.8391 0.0
C892 C 0.38936 0.58672 0.83826 0.0
C893 C 0.45795 0.65197 0.8357 0.0
C894 C 0.43449 0.62935 0.8371 0.0
H895 H 0.30607 0.54553 0.84276 0.0
H896 H 0.34472 0.58216 0.83842 0.0
H897 H 0.40584 0.57307 0.80126 0.0
H898 H 0.51792 0.67217 0.8367 0.0
H899 H 0.47945 0.63487 0.84054 0.0
C900 C 0.90062 0.03443 0.67669 0.0
C901 C 0.87829 0.03328 0.6755 0.0
C902 C 0.90198 0.01346 0.67682 0.0
C903 C 0.86607 0.94777 0.69233 0.0
H904 H 0.91465 0.94631 0.63233 0.0
C905 C 0.86403 0.85959 0.65899 0.0
C906 C 0.88569 0.85946 0.6621 0.0
C907 C 0.86372 0.88108 0.66026 0.0
C908 C 0.90114 0.94651 0.64947 0.0
H909 H 0.83985 0.00918 0.67438 0.0
H910 H 0.84223 0.97262 0.67414 0.0
H911 H 0.91289 0.98317 0.63691 0.0
H912 H 0.92415 0.88209 0.66797 0.0
H913 H 0.92363 0.91971 0.66977 0.0
H914 H 0.85414 0.911 0.70448 0.0
C915 C 0.85871 0.98971 0.67544 0.0
C916 C 0.90015 0.96765 0.65221 0.0
C917 C 0.85734 0.01069 0.67545 0.0
C918 C 0.90717 0.8815 0.66514 0.0
C919 C 0.90687 0.90308 0.66628 0.0
C920 C 0.86699 0.92662 0.68945 0.0
C921 C 0.88106 0.99083 0.67564 0.0
C922 C 0.88254 0.96852 0.67358 0.0
C923 C 0.88509 0.90305 0.6645 0.0
C924 C 0.88446 0.92571 0.66785 0.0
H925 H 0.91711 0.05155 0.67689 0.0
H926 H 0.91948 0.01499 0.67767 0.0
H927 H 0.85254 0.94788 0.70952 0.0
H928 H 0.84721 0.84301 0.65585 0.0
H929 H 0.8467 0.8805 0.65801 0.0
C930 C 0.137 0.03084 0.65991 0.0
C931 C 0.15812 0.03176 0.64793 0.0
C932 C 0.11636 0.00881 0.66656 0.0
C933 C 0.09478 0.94491 0.68548 0.0
H934 H 0.03487 0.93529 0.64616 0.0
C935 C 1.00916 0.8513 0.67684 0.0
C936 C 0.98685 0.84992 0.68097 0.0
C937 C 0.03029 0.87358 0.67605 0.0
C938 C 0.05133 0.93773 0.65792 0.0
H939 H 0.17428 0.01026 0.6346 0.0
H940 H 0.13821 0.97178 0.64609 0.0
H941 H 0.07118 0.97394 0.63899 0.0
H942 H 0.96933 0.87081 0.68924 0.0
H943 H 1.00611 0.9095 0.68889 0.0
H944 H 0.07492 0.90871 0.70453 0.0
C945 C 0.13765 0.98812 0.65037 0.0
C946 C 0.07218 0.95992 0.65369 0.0
C947 C 0.15824 0.01015 0.64343 0.0
C948 C 0.98621 0.87124 0.6857 0.0
C949 C 1.00732 0.89347 0.68521 0.0
C950 C 0.07386 0.92272 0.68995 0.0
C951 C 0.1164 0.98719 0.66167 0.0
C952 C 0.09417 0.96375 0.66725 0.0
C953 C 0.02961 0.89499 0.67963 0.0
C954 C 0.05185 0.9188 0.67608 0.0
H955 H 0.13623 0.04712 0.66335 0.0
H956 H 0.10032 0.0087 0.67554 0.0
H957 H 0.11141 0.9474 0.69658 0.0
H958 H 0.01028 0.83521 0.67305 0.0
H959 H 0.04707 0.87401 0.67137 0.0
C960 C 1.00825 0.15734 0.6407 0.0
C961 C 0.98677 0.13545 0.64517 0.0
C962 C 0.03027 0.15817 0.6411 0.0
C963 C 0.05902 0.12169 0.62989 0.0
H964 H 0.10878 0.17031 0.69055 0.0
C965 C 0.14591 0.12074 0.66097 0.0
C966 C 0.16744 0.14283 0.66122 0.0
C967 C 0.12392 0.11995 0.65941 0.0
C968 C 0.09522 0.15682 0.67312 0.0
H969 H 0.97173 0.09713 0.65245 0.0
H970 H 1.01021 0.09857 0.65257 0.0
H971 H 0.07034 0.16867 0.68505 0.0
H972 H 0.18279 0.18145 0.66068 0.0
H973 H 0.14438 0.18009 0.65726 0.0
H974 H 0.08391 0.10997 0.61757 0.0
C975 C 1.0099 0.11508 0.64875 0.0
C976 C 0.07318 0.15587 0.67 0.0
C977 C 0.98783 0.11426 0.64856 0.0
C978 C 0.1665 0.16415 0.66061 0.0
C979 C 0.14447 0.16335 0.6588 0.0
C980 C 0.08112 0.12273 0.63279 0.0
C981 C 0.03136 0.13711 0.64569 0.0
C982 C 0.05485 0.13826 0.64842 0.0
C983 C 0.12291 0.14123 0.6578 0.0
C984 C 0.09947 0.14026 0.65456 0.0
H985 H 1.00809 0.17393 0.63724 0.0
H986 H 0.0465 0.17534 0.63797 0.0
H987 H 0.04531 0.1081 0.61274 0.0
H988 H 0.146 0.10398 0.66171 0.0
H989 H 0.10768 0.10261 0.65948 0.0
C990 C 0.13931 0.11617 0.16266 0.0
C991 C 0.16166 0.13726 0.16612 0.0
C992 C 0.11822 0.11724 0.16056 0.0
C993 C 0.09518 0.15882 0.14251 0.0
H994 H 0.03961 0.11107 0.19492 0.0
C995 C 1.00999 0.16596 0.16452 0.0
C996 C 0.98796 0.14482 0.15905 0.0
C997 C 0.03136 0.16534 0.16503 0.0
C998 C 0.05492 0.12442 0.1799 0.0
H999 H 0.17924 0.17608 0.16879 0.0
H1000 H 0.14255 0.17788 0.16621 0.0
H1001 H 0.07644 0.10929 0.19559 0.0
H1002 H 0.9711 0.10644 0.15 0.0
H1003 H 1.0083 0.10541 0.15098 0.0
H1004 H 0.0736 0.17408 0.12724 0.0
C1005 C 0.1413 0.16051 0.16474 0.0
C1006 C 0.07602 0.12336 0.18016 0.0
C1007 C 0.16238 0.15944 0.16669 0.0
C1008 C 0.98775 0.12306 0.15431 0.0
C1009 C 1.00906 0.12243 0.15506 0.0
C1010 C 0.07409 0.15995 0.14243 0.0
C1011 C 0.11893 0.13941 0.16198 0.0
C1012 C 0.09641 0.1405 0.16138 0.0
C1013 C 0.03111 0.14354 0.16038 0.0
C1014 C 0.0537 0.14271 0.16102 0.0
H1015 H 0.13794 0.09875 0.16241 0.0
H1016 H 0.10134 0.10065 0.15789 0.0
H1017 H 0.11041 0.17212 0.12733 0.0
H1018 H 0.01075 0.18301 0.16826 0.0
H1019 H 0.04807 0.18188 0.16952 0.0
C1020 C 0.85193 0.85205 0.1648 0.0
C1021 C 0.87318 0.85111 0.16728 0.0
C1022 C 0.85276 0.8742 0.16318 0.0
C1023 C 0.895 0.93802 0.1404 0.0
H1024 H 0.84659 0.94903 0.18353 0.0
C1025 C 0.90521 0.03207 0.14699 0.0
C1026 C 0.88522 0.03386 0.13654 0.0
C1027 C 0.90319 0.00964 0.15225 0.0
C1028 C 0.86015 0.94614 0.17116 0.0
H1029 H 0.91183 0.87259 0.17205 0.0
H1030 H 0.91322 0.91094 0.17046 0.0
H1031 H 0.84404 0.91011 0.191 0.0
H1032 H 0.84728 0.01349 0.12438 0.0
H1033 H 0.84373 0.97425 0.13361 0.0
H1034 H 0.91124 0.97408 0.12094 0.0
C1035 C 0.89594 0.89473 0.16845 0.0
C1036 C 0.85867 0.92382 0.17534 0.0
C1037 C 0.89513 0.87269 0.16966 0.0
C1038 C 0.86305 0.01269 0.13205 0.0
C1039 C 0.86097 0.99024 0.13768 0.0
C1040 C 0.89658 0.96032 0.13652 0.0
C1041 C 0.87484 0.89584 0.16435 0.0
C1042 C 0.87614 0.91949 0.16009 0.0
C1043 C 0.88108 0.98848 0.14751 0.0
C1044 C 0.87922 0.96467 0.15188 0.0
H1045 H 0.83474 0.83572 0.16289 0.0
H1046 H 0.83615 0.87431 0.15981 0.0
H1047 H 0.90847 0.93523 0.12746 0.0
H1048 H 0.92257 0.04801 0.15038 0.0
H1049 H 0.91896 0.00887 0.16011 0.0
C1050 C 0.14599 0.03411 0.18998 0.0
C1051 C 0.16678 0.03291 0.1831 0.0
C1052 C 0.12353 0.01326 0.19044 0.0
C1053 C 0.09334 0.94648 0.19371 0.0
H1054 H 0.04185 0.95019 0.14564 0.0
C1055 C 1.00641 0.86301 0.14428 0.0
C1056 C 0.98471 0.86273 0.14965 0.0
C1057 C 0.02828 0.88358 0.15206 0.0
C1058 C 0.05594 0.94891 0.15956 0.0
H1059 H 0.18034 0.00874 0.17245 0.0
H1060 H 0.14123 0.97251 0.17253 0.0
H1061 H 0.08059 0.98637 0.15327 0.0
H1062 H 0.96899 0.88388 0.16742 0.0
H1063 H 1.00717 0.91978 0.18105 0.0
H1064 H 0.06871 0.90879 0.19899 0.0
C1065 C 0.14222 0.98948 0.17815 0.0
C1066 C 0.07817 0.96968 0.16406 0.0
C1067 C 0.16469 0.01031 0.17791 0.0
C1068 C 0.98537 0.88343 0.16329 0.0
C1069 C 1.00724 0.90407 0.17078 0.0
C1070 C 0.07113 0.92566 0.18897 0.0
C1071 C 0.12129 0.99071 0.18381 0.0
C1072 C 0.09724 0.96874 0.18097 0.0
C1073 C 0.02895 0.90441 0.16509 0.0
C1074 C 0.05224 0.92662 0.17162 0.0
H1075 H 0.14699 0.05123 0.1943 0.0
H1076 H 0.10787 0.01486 0.19561 0.0
H1077 H 0.10746 0.94511 0.20737 0.0
H1078 H 1.0065 0.84729 0.13417 0.0
H1079 H 0.0447 0.88334 0.1471 0.0
C1080 C 0.55877 0.1493 0.37758 0.0
C1081 C 0.53856 0.13028 0.39396 0.0
C1082 C 0.56153 0.14997 0.34022 0.0
C1083 C 0.53205 0.1238 0.25317 0.0
H1084 H 0.59547 0.13582 0.22752 0.0
C1085 C 0.58544 0.11263 0.12402 0.0
C1086 C 0.57854 0.12303 0.09663 0.0
C1087 C 0.5793 0.11348 0.15996 0.0
C1088 C 0.57764 0.13225 0.23427 0.0
H1089 H 0.50451 0.09805 0.38426 0.0
H1090 H 0.50953 0.099 0.31847 0.0
H1091 H 0.5861 0.13838 0.29047 0.0
H1092 H 0.55979 0.14246 0.08533 0.0
H1093 H 0.54936 0.14414 0.14811 0.0
H1094 H 0.52356 0.11719 0.19677 0.0
C1095 C 0.52313 0.11346 0.33461 0.0
C1096 C 0.57236 0.13405 0.27023 0.0
C1097 C 0.52025 0.1129 0.37218 0.0
C1098 C 0.56537 0.13425 0.10584 0.0
C1099 C 0.55921 0.13507 0.14173 0.0
C1100 C 0.53737 0.12205 0.21704 0.0
C1101 C 0.54427 0.1315 0.31853 0.0
C1102 C 0.54957 0.12995 0.28005 0.0
C1103 C 0.56615 0.12473 0.16914 0.0
C1104 C 0.56023 0.12625 0.20731 0.0
H1105 H 0.57298 0.16315 0.3938 0.0
H1106 H 0.57771 0.16443 0.32842 0.0
H1107 H 0.51435 0.12054 0.26005 0.0
H1108 H 0.5955 0.10376 0.11772 0.0
H1109 H 0.58467 0.10515 0.18055 0.0
C1110 C 0.88759 0.43857 0.37589 0.0
C1111 C 0.89623 0.42498 0.39319 0.0
C1112 C 0.89269 0.4447 0.33964 0.0
C1113 C 0.90773 0.42935 0.25437 0.0
H1114 H 0.93831 0.49765 0.23491 0.0
C1115 C 0.92665 0.46264 0.10947 0.0
C1116 C 0.91936 0.47917 0.10062 0.0
C1117 C 0.92969 0.45848 0.14545 0.0
C1118 C 0.92972 0.47855 0.23988 0.0
H1119 H 0.91534 0.40556 0.38548 0.0
H1120 H 0.92367 0.41586 0.32127 0.0
H1121 H 0.92961 0.48323 0.29722 0.0
H1122 H 0.91098 0.50549 0.12147 0.0
H1123 H 0.91518 0.4975 0.18484 0.0
H1124 H 0.90642 0.42432 0.19727 0.0
C1125 C 0.91337 0.42204 0.33628 0.0
C1126 C 0.92482 0.47034 0.27543 0.0
C1127 C 0.90852 0.41611 0.37284 0.0
C1128 C 0.91669 0.49271 0.12792 0.0
C1129 C 0.9192 0.48816 0.16411 0.0
C1130 C 0.91229 0.4375 0.21877 0.0
C1131 C 0.9062 0.43708 0.31995 0.0
C1132 C 0.91339 0.44568 0.28278 0.0
C1133 C 0.92486 0.47033 0.17322 0.0
C1134 C 0.92295 0.46217 0.21111 0.0
H1135 H 0.87789 0.44553 0.39073 0.0
H1136 H 0.88659 0.45593 0.32719 0.0
H1137 H 0.89878 0.41024 0.25961 0.0
H1138 H 0.92915 0.45229 0.08856 0.0
H1139 H 0.93476 0.44518 0.15154 0.0
C1140 C 0.61016 0.48518 0.36318 0.0
C1141 C 0.60276 0.4966 0.38799 0.0
C1142 C 0.60597 0.48585 0.32635 0.0
C1143 C 0.56017 0.48072 0.26974 0.0
H1144 H 0.60507 0.4924 0.1921 0.0
C1145 C 0.53173 0.44764 0.12105 0.0
C1146 C 0.54556 0.43908 0.10451 0.0
C1147 C 0.53841 0.45879 0.15502 0.0
C1148 C 0.59228 0.489 0.2135 0.0
H1149 H 0.58603 0.5183 0.39446 0.0
H1150 H 0.5778 0.51868 0.32954 0.0
H1151 H 0.62006 0.50779 0.2526 0.0
H1152 H 0.57585 0.4336 0.11098 0.0
H1153 H 0.58679 0.45185 0.17051 0.0
H1154 H 0.53234 0.46029 0.2314 0.0
C1155 C 0.58738 0.50983 0.33863 0.0
C1156 C 0.60091 0.49806 0.24789 0.0
C1157 C 0.59221 0.50974 0.3755 0.0
C1158 C 0.56506 0.4403 0.12316 0.0
C1159 C 0.5715 0.45107 0.15699 0.0
C1160 C 0.55149 0.47132 0.23535 0.0
C1161 C 0.59372 0.49737 0.31401 0.0
C1162 C 0.58492 0.49327 0.27649 0.0
C1163 C 0.55886 0.46127 0.17273 0.0
C1164 C 0.56752 0.47453 0.2073 0.0
H1165 H 0.61808 0.47476 0.37246 0.0
H1166 H 0.61077 0.47591 0.30781 0.0
H1167 H 0.54755 0.47664 0.29165 0.0
H1168 H 0.51675 0.44705 0.10686 0.0
H1169 H 0.52823 0.46634 0.16664 0.0
C1170 C 0.8665 0.45321 0.87963 0.0
C1171 C 0.882 0.47569 0.89515 0.0
C1172 C 0.86768 0.44954 0.84281 0.0
C1173 C 0.89009 0.47686 0.75481 0.0
H1174 H 0.90514 0.42594 0.74284 0.0
C1175 C 0.92037 0.4615 0.61812 0.0
C1176 C 0.90949 0.43764 0.60643 0.0
C1177 C 0.91909 0.46669 0.65427 0.0
C1178 C 0.90072 0.44002 0.74564 0.0
H1179 H 0.90873 0.51267 0.8839 0.0
H1180 H 0.91052 0.50621 0.81906 0.0
H1181 H 0.89484 0.43413 0.80256 0.0
H1182 H 0.88983 0.40042 0.62257 0.0
H1183 H 0.88677 0.40933 0.68606 0.0
H1184 H 0.89532 0.48245 0.69789 0.0
C1185 C 0.89774 0.49145 0.83561 0.0
C1186 C 0.8948 0.44467 0.77974 0.0
C1187 C 0.89666 0.49514 0.87262 0.0
C1188 C 0.89857 0.41894 0.63146 0.0
C1189 C 0.89683 0.42411 0.66766 0.0
C1190 C 0.89569 0.47201 0.72058 0.0
C1191 C 0.88418 0.46833 0.82097 0.0
C1192 C 0.88942 0.46309 0.78451 0.0
C1193 C 0.90631 0.44805 0.67907 0.0
C1194 C 0.90115 0.45358 0.71567 0.0
H1195 H 0.85472 0.43799 0.89631 0.0
H1196 H 0.85674 0.43167 0.83177 0.0
H1197 H 0.88597 0.49113 0.75802 0.0
H1198 H 0.92891 0.47612 0.59892 0.0
H1199 H 0.9272 0.48529 0.66244 0.0
C1200 C 0.56864 0.43424 0.60439 0.0
C1201 C 0.57958 0.45875 0.59574 0.0
C1202 C 0.56169 0.42647 0.6398 0.0
C1203 C 0.54625 0.44391 0.72567 0.0
H1204 H 0.56153 0.39802 0.7677 0.0
C1205 C 0.5197 0.40997 0.87169 0.0
C1206 C 0.53929 0.41317 0.89254 0.0
C1207 C 0.52138 0.41136 0.83396 0.0
C1208 C 0.55702 0.41071 0.7562 0.0
H1209 H 0.59199 0.49435 0.61745 0.0
H1210 H 0.57993 0.48072 0.67963 0.0
H1211 H 0.57207 0.41038 0.70481 0.0
H1212 H 0.57528 0.41861 0.8905 0.0
H1213 H 0.57813 0.42083 0.82489 0.0
H1214 H 0.5319 0.44484 0.77744 0.0
C1215 C 0.57654 0.46755 0.65879 0.0
C1216 C 0.56294 0.41771 0.72023 0.0
C1217 C 0.58362 0.47537 0.62331 0.0
C1218 C 0.55996 0.41623 0.87507 0.0
C1219 C 0.56153 0.41734 0.83749 0.0
C1220 C 0.5402 0.43682 0.7616 0.0
C1221 C 0.56544 0.44302 0.6673 0.0
C1222 C 0.55799 0.43468 0.70482 0.0
C1223 C 0.54255 0.41561 0.81663 0.0
C1224 C 0.54592 0.42048 0.77737 0.0
H1225 H 0.56526 0.42096 0.58375 0.0
H1226 H 0.55302 0.40745 0.64555 0.0
H1227 H 0.54194 0.45679 0.71428 0.0
H1228 H 0.50357 0.40762 0.88453 0.0
H1229 H 0.50643 0.40977 0.81838 0.0
C1230 C 0.59252 0.08653 0.87581 0.0
C1231 C 0.60202 0.11013 0.88845 0.0
C1232 C 0.58795 0.08156 0.8389 0.0
C1233 C 0.60095 0.10676 0.74842 0.0
H1234 H 0.53238 0.07492 0.73152 0.0
C1235 C 0.5648 0.1283 0.624 0.0
C1236 C 0.54541 0.10992 0.60524 0.0
C1237 C 0.57132 0.12395 0.65772 0.0
C1238 C 0.55154 0.08331 0.73557 0.0
H1239 H 0.61582 0.14717 0.87319 0.0
H1240 H 0.60897 0.13868 0.80844 0.0
H1241 H 0.54756 0.07399 0.79183 0.0
H1242 H 0.51687 0.07291 0.60719 0.0
H1243 H 0.5285 0.06504 0.66675 0.0
H1244 H 0.60515 0.11665 0.69268 0.0
C1245 C 0.60478 0.12404 0.82692 0.0
C1246 C 0.56019 0.08271 0.76999 0.0
C1247 C 0.60867 0.1289 0.86378 0.0
C1248 C 0.53176 0.08737 0.62151 0.0
C1249 C 0.53852 0.08288 0.65534 0.0
C1250 C 0.59235 0.10705 0.71398 0.0
C1251 C 0.59356 0.10027 0.81443 0.0
C1252 C 0.58492 0.09531 0.77688 0.0
C1253 C 0.55887 0.10098 0.67318 0.0
C1254 C 0.56757 0.09639 0.70766 0.0
H1255 H 0.58694 0.07179 0.89465 0.0
H1256 H 0.57914 0.06312 0.82967 0.0
H1257 H 0.62009 0.11651 0.75328 0.0
H1258 H 0.57545 0.1459 0.612 0.0
H1259 H 0.58651 0.13854 0.67136 0.0
C1260 C 0.26584 0.44926 0.4696 0.0
C1261 C 0.24743 0.4435 0.44454 0.0
C1262 C 0.26163 0.45054 0.50638 0.0
C1263 C 0.21563 0.43274 0.57547 0.0
H1264 H 0.25555 0.49651 0.61519 0.0
C1265 C 0.19377 0.45679 0.71304 0.0
C1266 C 0.21341 0.46795 0.73666 0.0
C1267 C 0.1975 0.45589 0.67604 0.0
C1268 C 0.24439 0.47856 0.60462 0.0
H1269 H 0.21003 0.43274 0.43746 0.0
H1270 H 0.20249 0.43419 0.50181 0.0
H1271 H 0.26413 0.48703 0.55506 0.0
H1272 H 0.25221 0.48904 0.73989 0.0
H1273 H 0.25866 0.4869 0.6759 0.0
H1274 H 0.19617 0.42394 0.62508 0.0
C1275 C 0.22012 0.43803 0.49322 0.0
C1276 C 0.24941 0.47314 0.5704 0.0
C1277 C 0.22444 0.4373 0.45658 0.0
C1278 C 0.2367 0.48005 0.72238 0.0
C1279 C 0.24041 0.47896 0.68556 0.0
C1280 C 0.21081 0.43802 0.6099 0.0
C1281 C 0.23887 0.44546 0.51817 0.0
C1282 C 0.23501 0.45023 0.55563 0.0
C1283 C 0.22089 0.466 0.66226 0.0
C1284 C 0.22509 0.46103 0.62478 0.0
H1285 H 0.28371 0.45422 0.46059 0.0
H1286 H 0.27626 0.45624 0.52545 0.0
H1287 H 0.20429 0.41498 0.56433 0.0
H1288 H 0.17561 0.44755 0.7233 0.0
H1289 H 0.1821 0.44633 0.65849 0.0
C1290 C 0.57942 0.81059 0.44797 0.0
C1291 C 0.56087 0.79543 0.42441 0.0
C1292 C 0.58039 0.80294 0.483 0.0
C1293 C 0.5439 0.76386 0.55488 0.0
H1294 H 0.60071 0.76271 0.58617 0.0
C1295 C 0.54598 0.72933 0.69544 0.0
C1296 C 0.56707 0.74317 0.71507 0.0
C1297 C 0.54585 0.73179 0.65797 0.0
C1298 C 0.5848 0.7631 0.57801 0.0
H1299 H 0.52836 0.76093 0.4191 0.0
H1300 H 0.52965 0.748 0.48074 0.0
H1301 H 0.59933 0.77727 0.52563 0.0
H1302 H 0.6047 0.76963 0.71185 0.0
H1303 H 0.60447 0.77484 0.64658 0.0
H1304 H 0.52962 0.75093 0.6073 0.0
C1305 C 0.54358 0.76553 0.47192 0.0
C1306 C 0.58405 0.77143 0.5434 0.0
C1307 C 0.54287 0.77294 0.43677 0.0
C1308 C 0.58837 0.75846 0.69684 0.0
C1309 C 0.58816 0.76141 0.65945 0.0
C1310 C 0.54478 0.75597 0.58962 0.0
C1311 C 0.56253 0.7803 0.49507 0.0
C1312 C 0.5636 0.77188 0.53169 0.0
C1313 C 0.56664 0.74883 0.63977 0.0
C1314 C 0.56524 0.75549 0.60171 0.0
H1315 H 0.59359 0.82793 0.43892 0.0
H1316 H 0.59505 0.81466 0.50066 0.0
H1317 H 0.52801 0.76422 0.54638 0.0
H1318 H 0.52935 0.71758 0.70931 0.0
H1319 H 0.52913 0.72127 0.64358 0.0
C1320 C 0.26479 0.84161 0.70372 0.0
C1321 C 0.2725 0.82615 0.71688 0.0
C1322 C 0.26025 0.84193 0.66681 0.0
C1323 C 0.27159 0.82985 0.57665 0.0
H1324 H 0.20307 0.79266 0.55946 0.0
C1325 C 0.23564 0.77791 0.44618 0.0
C1326 C 0.21508 0.77597 0.43003 0.0
C1327 C 0.24269 0.78779 0.48049 0.0
C1328 C 0.22221 0.80358 0.56357 0.0
H1329 H 0.28323 0.80034 0.70229 0.0
H1330 H 0.27645 0.80185 0.63741 0.0
H1331 H 0.21812 0.80679 0.62053 0.0
H1332 H 0.18529 0.78212 0.43705 0.0
H1333 H 0.19794 0.8001 0.49741 0.0
H1334 H 0.27596 0.82666 0.52008 0.0
C1335 C 0.27357 0.81335 0.65564 0.0
C1336 C 0.23078 0.81163 0.59848 0.0
C1337 C 0.27745 0.8125 0.69256 0.0
C1338 C 0.20111 0.7833 0.44925 0.0
C1339 C 0.20843 0.79364 0.48363 0.0
C1340 C 0.26307 0.82224 0.54168 0.0
C1341 C 0.26411 0.82737 0.64279 0.0
C1342 C 0.25549 0.82406 0.60533 0.0
C1343 C 0.22963 0.79646 0.49923 0.0
C1344 C 0.23831 0.80807 0.53502 0.0
H1345 H 0.26052 0.85199 0.7222 0.0
H1346 H 0.25279 0.85271 0.65723 0.0
H1347 H 0.29072 0.83944 0.58157 0.0
H1348 H 0.24655 0.77211 0.43195 0.0
H1349 H 0.25856 0.78878 0.49217 0.0
C1350 C 0.55037 0.77777 0.93836 0.0
C1351 C 0.56828 0.77394 0.92398 0.0
C1352 C 0.55277 0.78727 0.973 0.0
C1353 C 0.58738 0.79898 0.0584 0.0
H1354 H 0.55788 0.83743 0.07907 0.0
C1355 C 0.59072 0.84013 0.19879 0.0
C1356 C 0.56798 0.82607 0.21421 0.0
C1357 C 0.59371 0.83955 0.1614 0.0
C1358 C 0.56649 0.82704 0.07338 0.0
H1359 H 0.60276 0.77701 0.93411 0.0
H1360 H 0.60756 0.79459 -0.00582 0.0
H1361 H 0.55806 0.82432 0.0171 0.0
H1362 H 0.53039 0.80186 0.20333 0.0
H1363 H 0.53546 0.80178 0.13769 0.0
H1364 H 0.59594 0.80208 0.11491 0.0
C1365 C 0.59125 0.78959 0.97931 0.0
C1366 C 0.56631 0.81918 0.03811 0.0
C1367 C 0.58856 0.77953 0.94489 0.0
C1368 C 0.54803 0.81295 0.19179 0.0
C1369 C 0.55092 0.81292 0.15443 0.0
C1370 C 0.58804 0.80733 0.09347 0.0
C1371 C 0.57344 0.79375 -0.00628 0.0
C1372 C 0.57608 0.80439 0.03037 0.0
C1373 C 0.57386 0.82548 0.1392 0.0
C1374 C 0.57708 0.82088 0.10128 0.0
H1375 H 0.53447 0.77344 0.92276 0.0
H1376 H 0.5383 0.78944 0.98348 0.0
H1377 H 0.5948 0.78741 0.05377 0.0
H1378 H 0.60634 0.85006 0.21582 0.0
H1379 H 0.61156 0.84917 0.14999 0.0
C1380 C 0.25111 0.80971 0.95241 0.0
C1381 C 0.24384 0.79234 0.92501 0.0
C1382 C 0.24367 0.80284 0.98804 0.0
C1383 C 0.23927 0.78084 0.06203 0.0
H1384 H 0.17402 0.73238 0.08578 0.0
C1385 C 0.21758 0.742 0.20278 0.0
C1386 C 0.19901 0.74346 0.22006 0.0
C1387 C 0.21994 0.74404 0.16539 0.0
C1388 C 0.19226 0.74594 0.07944 0.0
H1389 H 0.22286 0.7542 0.91326 0.0
H1390 H 0.21013 0.74231 0.97541 0.0
H1391 H 0.18456 0.74586 0.02298 0.0
H1392 H 0.16711 0.74603 0.2121 0.0
H1393 H 0.17145 0.75 0.14614 0.0
H1394 H 0.24704 0.78122 0.1182 0.0
C1395 C 0.22133 0.7612 0.96931 0.0
C1396 C 0.19831 0.75356 0.04363 0.0
C1397 C 0.22883 0.76803 0.9338 0.0
C1398 C 0.18155 0.74482 0.19922 0.0
C1399 C 0.18405 0.74711 0.16159 0.0
C1400 C 0.23327 0.77317 0.09762 0.0
C1401 C 0.22877 0.77851 -0.00323 0.0
C1402 C 0.2219 0.77103 0.03468 0.0
C1403 C 0.20394 0.74788 0.14468 0.0
C1404 C 0.20979 0.75552 0.10663 0.0
H1405 H 0.26257 0.82858 0.9464 0.0
H1406 H 0.24951 0.81655 0.00875 0.0
H1407 H 0.25762 0.79415 0.05583 0.0
H1408 H 0.23107 0.74059 0.21837 0.0
H1409 H 0.23507 0.74395 0.15285 0.0
C1410 C 0.18988 0.43745 0.97075 0.0
C1411 C 0.20027 0.43073 0.94335 0.0
C1412 C 0.19425 0.43466 0.00691 0.0
C1413 C 0.24206 0.43351 0.05891 0.0
H1414 H 0.20185 0.42822 0.14028 0.0
C1415 C 0.26751 0.44021 0.21192 0.0
C1416 C 0.26242 0.45583 0.23153 0.0
C1417 C 0.26045 0.43497 0.17577 0.0
C1418 C 0.21318 0.42964 0.11768 0.0
H1419 H 0.22105 0.4137 0.93099 0.0
H1420 H 0.22763 0.40756 -0.00593 0.0
H1421 H 0.18465 0.41867 0.07953 0.0
H1422 H 0.24812 0.47996 0.22792 0.0
H1423 H 0.23577 0.47066 0.16506 0.0
H1424 H 0.27057 0.44458 0.09736 0.0
C1425 C 0.21699 0.41586 0.98806 0.0
C1426 C 0.20339 0.42423 0.08301 0.0
C1427 C 0.21308 0.41915 0.95207 0.0
C1428 C 0.252 0.46759 0.21366 0.0
C1429 C 0.24477 0.46219 0.17782 0.0
C1430 C 0.25174 0.43859 0.09366 0.0
C1431 C 0.20875 0.42476 0.01583 0.0
C1432 C 0.21788 0.42672 0.05313 0.0
C1433 C 0.24813 0.44519 0.15913 0.0
C1434 C 0.23752 0.43735 0.12305 0.0
H1435 H 0.18009 0.44659 0.96427 0.0
H1436 H 0.18776 0.44187 0.02763 0.0
H1437 H 0.25388 0.43606 0.03646 0.0
H1438 H 0.27557 0.43092 0.22502 0.0
H1439 H 0.26336 0.42195 0.16151 0.0
C1440 C 0.91793 0.79733 0.7931 0.0
C1441 C 0.91456 0.7773 0.77344 0.0
C1442 C 0.90741 0.79446 0.82686 0.0
C1443 C 0.87822 0.75329 0.9026 0.0
H1444 H 0.85248 0.79567 0.91808 0.0
C1445 C 0.84047 0.76034 0.03998 0.0
C1446 C 0.85603 0.78332 0.05385 0.0
C1447 C 0.84053 0.75586 0.003 0.0
C1448 C 0.8592 0.78345 0.91384 0.0
H1449 H 0.89877 0.73871 0.7737 0.0
H1450 H 0.87995 0.7335 0.83336 0.0
H1451 H 0.86859 0.7944 0.85897 0.0
H1452 H 0.88221 0.81999 0.04049 0.0
H1453 H 0.88158 0.81243 0.97566 0.0
H1454 H 0.8693 0.74289 0.95803 0.0
C1455 C 0.89093 0.75144 0.82272 0.0
C1456 C 0.86868 0.7829 0.88027 0.0
C1457 C 0.90181 0.75439 0.78887 0.0
C1458 C 0.87003 0.80218 0.03018 0.0
C1459 C 0.86961 0.79785 -0.00678 0.0
C1460 C 0.86846 0.75365 0.93617 0.0
C1461 C 0.89289 0.77142 0.84128 0.0
C1462 C 0.87931 0.76868 0.87486 0.0
C1463 C 0.85564 0.77449 0.97962 0.0
C1464 C 0.8598 0.76947 0.94235 0.0
H1465 H 0.92775 0.81515 0.78151 0.0
H1466 H 0.90994 0.81027 0.84111 0.0
H1467 H 0.88622 0.74211 0.89914 0.0
H1468 H 0.82976 0.7455 0.05799 0.0
H1469 H 0.8297 0.73772 -0.00708 0.0
C1470 C 0.22852 0.14488 0.78757 0.0
C1471 C 0.22919 0.13 0.76043 0.0
C1472 C 0.22607 0.13781 0.82377 0.0
C1473 C 0.23801 0.10297 0.88749 0.0
H1474 H 0.18354 0.0966 0.9413 0.0
C1475 C 0.22308 0.07208 0.03571 0.0
C1476 C 0.21669 0.08522 0.05891 0.0
C1477 C 0.22181 0.07405 -0.00179 0.0
C1478 C 0.19897 0.0985 0.92679 0.0
H1479 H 0.22879 0.09669 0.74949 0.0
H1480 H 0.2253 0.08481 0.81292 0.0
H1481 H 0.18892 0.10937 0.87819 0.0
H1482 H 0.203 0.10989 0.0612 0.0
H1483 H 0.20164 0.11397 -0.00355 0.0
H1484 H 0.24886 0.09331 0.93621 0.0
C1485 C 0.22626 0.10163 0.80613 0.0
C1486 C 0.20198 0.10577 0.89075 0.0
C1487 C 0.22818 0.10841 0.76999 0.0
C1488 C 0.20806 0.0995 0.04406 0.0
C1489 C 0.20708 0.1017 0.00678 0.0
C1490 C 0.23529 0.09615 0.92375 0.0
C1491 C 0.22485 0.11611 0.83315 0.0
C1492 C 0.22162 0.10825 0.87103 0.0
C1493 C 0.21438 0.08938 0.98338 0.0
C1494 C 0.21587 0.0941 0.94395 0.0
H1495 H 0.22918 0.16155 0.78075 0.0
H1496 H 0.22513 0.14924 0.84444 0.0
H1497 H 0.25329 0.1048 0.87256 0.0
H1498 H 0.22963 0.06079 0.04645 0.0
H1499 H 0.22713 0.06396 0.9809 0.0
C1500 C 0.90029 0.11057 0.78124 0.0
C1501 C 0.87921 0.10716 0.76477 0.0
C1502 C 0.90528 0.11796 0.81702 0.0
C1503 C 0.8979 0.15278 0.88542 0.0
H1504 H 0.91602 0.11728 0.95036 0.0
C1505 C 0.9197 0.17238 0.03872 0.0
C1506 C 0.93606 0.16626 0.05299 0.0
C1507 C 0.91401 0.16902 0.0019 0.0
C1508 C 0.9114 0.12763 0.9324 0.0
H1509 H 0.84667 0.10859 0.77253 0.0
H1510 H 0.85577 0.12215 0.83597 0.0
H1511 H 0.90046 0.10124 0.89064 0.0
H1512 H 0.96107 0.15423 0.04057 0.0
H1513 H 0.95228 0.14968 0.97589 0.0
H1514 H 0.90945 0.17952 0.92712 0.0
C1515 C 0.86821 0.11886 0.82083 0.0
C1516 C 0.90219 0.11826 0.89847 0.0
C1517 C 0.86295 0.11096 0.78488 0.0
C1518 C 0.94855 0.15924 0.02981 0.0
C1519 C 0.94322 0.1563 -0.00699 0.0
C1520 C 0.90732 0.16231 0.91952 0.0
C1521 C 0.88945 0.1224 0.83699 0.0
C1522 C 0.89577 0.13092 0.8745 0.0
C1523 C 0.92478 0.15963 0.97917 0.0
C1524 C 0.91463 0.15002 0.94301 0.0
H1525 H 0.91309 0.10769 0.7663 0.0
H1526 H 0.92183 0.12071 0.82893 0.0
H1527 H 0.8932 0.16289 0.86708 0.0
H1528 H 0.90957 0.17738 0.05654 0.0
H1529 H 0.89974 0.17174 0.99202 0.0
C1530 C 0.26971 0.12032 0.28028 0.0
C1531 C 0.24709 0.10202 0.26919 0.0
C1532 C 0.27349 0.12795 0.31631 0.0
C1533 C 0.24739 0.11163 0.40765 0.0
H1534 H 0.26837 0.17928 0.41893 0.0
C1535 C 0.21712 0.14199 0.52762 0.0
C1536 C 0.23552 0.15841 0.55017 0.0
C1537 C 0.22203 0.13901 0.49203 0.0
C1538 C 0.26281 0.16046 0.41613 0.0
H1539 H 0.21099 0.07665 0.28593 0.0
H1540 H 0.21757 0.08947 0.34904 0.0
H1541 H 0.27279 0.16409 0.36019 0.0
H1542 H 0.27276 0.18644 0.55271 0.0
H1543 H 0.2814 0.1812 0.48971 0.0
H1544 H 0.23642 0.10771 0.46289 0.0
C1545 C 0.23248 0.09787 0.33037 0.0
C1546 C 0.26548 0.1518 0.38278 0.0
C1547 C 0.22866 0.09052 0.29441 0.0
C1548 C 0.25828 0.17378 0.53557 0.0
C1549 C 0.26325 0.17069 0.49976 0.0
C1550 C 0.24465 0.12022 0.44073 0.0
C1551 C 0.2547 0.11711 0.34141 0.0
C1552 C 0.25696 0.12715 0.37801 0.0
C1553 C 0.24544 0.15231 0.4786 0.0
C1554 C 0.25148 0.14449 0.44479 0.0
H1555 H 0.28395 0.1296 0.26073 0.0
H1556 H 0.29074 0.1428 0.32427 0.0
H1557 H 0.24103 0.09263 0.40476 0.0
H1558 H 0.19941 0.13007 0.53837 0.0
H1559 H 0.20791 0.12509 0.47579 0.0
C1560 C 0.91546 0.14155 0.2872 0.0
C1561 C 0.91159 0.1254 0.25899 0.0
C1562 C 0.90756 0.13307 0.32217 0.0
C1563 C 0.89145 0.08163 0.38138 0.0
H1564 H 0.861 0.10935 0.43867 0.0
C1565 C 0.88882 0.08075 0.53565 0.0
C1566 C 0.86864 0.07866 0.5534 0.0
C1567 C 0.88988 0.08107 0.49806 0.0
C1568 C 0.86905 0.10111 0.42276 0.0
H1569 H 0.89682 0.08777 0.24531 0.0
H1570 H 0.88314 0.07312 0.3062 0.0
H1571 H 0.87201 0.122 0.37599 0.0
H1572 H 0.83312 0.07375 0.54608 0.0
H1573 H 0.83509 0.07456 0.47981 0.0
H1574 H 0.8889 0.06108 0.42837 0.0
C1575 C 0.89229 0.09227 0.30136 0.0
C1576 C 0.87569 0.10863 0.38713 0.0
C1577 C 0.90009 0.1007 0.26649 0.0
C1578 C 0.84889 0.0754 0.53295 0.0
C1579 C 0.85006 0.076 0.49517 0.0
C1580 C 0.8849 0.07419 0.41704 0.0
C1581 C 0.89578 0.10834 0.32946 0.0
C1582 C 0.88737 0.0993 0.36638 0.0
C1583 C 0.87085 0.07948 0.4775 0.0
C1584 C 0.8741 0.08423 0.43825 0.0
H1585 H 0.92426 0.16067 0.28221 0.0
H1586 H 0.91079 0.14587 0.34354 0.0
H1587 H 0.90049 0.07419 0.366 0.0
H1588 H 0.90423 0.0831 0.55083 0.0
H1589 H 0.90621 0.08399 0.48519 0.0
C1590 C 0.9129 0.79994 0.27305 0.0
C1591 C 0.88868 0.78859 0.26275 0.0
C1592 C 0.91923 0.79972 0.30904 0.0
C1593 C 0.92743 0.78559 0.38381 0.0
H1594 H 0.89266 0.79884 0.45713 0.0
C1595 C 0.93666 0.77738 0.53906 0.0
C1596 C 0.93507 0.79446 0.56067 0.0
C1597 C 0.93361 0.7773 0.50157 0.0
C1598 C 0.90268 0.79532 0.43694 0.0
H1599 H 0.85209 0.76787 0.28197 0.0
H1600 H 0.86318 0.76741 0.34498 0.0
H1601 H 0.88118 0.79655 0.39398 0.0
H1602 H 0.93136 0.82612 0.56015 0.0
H1603 H 0.92661 0.82629 0.49492 0.0
H1604 H 0.94922 0.78483 0.42705 0.0
C1605 C 0.87724 0.77667 0.32518 0.0
C1606 C 0.89588 0.79367 0.40084 0.0
C1607 C 0.8709 0.77689 0.28913 0.0
C1608 C 0.93227 0.8125 0.54412 0.0
C1609 C 0.92942 0.81253 0.50683 0.0
C1610 C 0.93424 0.78722 0.42007 0.0
C1611 C 0.90147 0.78816 0.33548 0.0
C1612 C 0.90824 0.78892 0.37388 0.0
C1613 C 0.92908 0.79439 0.48537 0.0
C1614 C 0.92206 0.79234 0.44689 0.0
H1615 H 0.92705 0.80913 0.25334 0.0
H1616 H 0.93803 0.80902 0.31628 0.0
H1617 H 0.93713 0.78168 0.36356 0.0
H1618 H 0.93879 0.76327 0.55126 0.0
H1619 H 0.93344 0.76312 0.4856 0.0
C1620 C 0.36012 0.90644 0.88379 0.0
C1621 C 0.34285 0.91337 0.8777 0.0
C1622 C 0.38298 0.92285 0.89721 0.0
C1623 C 0.42501 0.98876 0.9069 0.0
H1624 H 0.45907 0.96975 0.9733 0.0
C1625 C 0.50932 0.05958 0.97987 0.0
C1626 C 0.52955 0.0567 0.98153 0.0
C1627 C 0.48704 0.04085 0.96886 0.0
C1628 C 0.44991 0.9753 0.95447 0.0
H1629 H 0.33622 0.94306 0.88227 0.0
H1630 H 0.37571 0.97145 0.906 0.0
H1631 H 0.41927 0.93985 0.9513 0.0
H1632 H 0.54167 0.03113 0.97426 0.0
H1633 H 0.5023 0.99797 0.955 0.0
H1634 H 0.45539 0.02414 0.91022 0.0
C1635 C 0.37186 0.95346 0.8996 0.0
C1636 C 0.42703 0.95814 0.94179 0.0
C1637 C 0.34906 0.9371 0.88604 0.0
C1638 C 0.52649 0.03397 0.97346 0.0
C1639 C 0.50393 0.01501 0.96234 0.0
C1640 C 0.44771 1.00583 0.91964 0.0
C1641 C 0.38933 0.94672 0.90505 0.0
C1642 C 0.41407 0.96468 0.91809 0.0
C1643 C 0.48405 0.01846 0.95896 0.0
C1644 C 0.46041 0.99949 0.944 0.0
H1645 H 0.35626 0.88848 0.87723 0.0
H1646 H 0.39589 0.91693 0.90051 0.0
H1647 H 0.4161 0.99452 0.88794 0.0
H1648 H 0.51078 0.07668 0.98628 0.0
H1649 H 0.47212 0.04409 0.9676 0.0
C1650 C 0.98277 0.50049 0.96475 0.0
C1651 C 0.95892 0.48177 0.96116 0.0
C1652 C 1.00179 0.4978 0.9513 0.0
C1653 C 0.01436 0.46137 0.88575 0.0
H1654 H 0.06934 0.47646 0.9459 0.0
C1655 C 0.0764 0.42307 0.85338 0.0
C1656 C 0.10117 0.43752 0.85945 0.0
C1657 C 0.06034 0.43033 0.86524 0.0
C1658 C 0.05429 0.4724 0.92846 0.0
H1659 H 0.93653 0.44584 0.93967 0.0
H1660 H 0.96909 0.44139 0.9165 0.0
H1661 H 0.03984 0.48718 0.96637 0.0
H1662 H 0.12825 0.47132 0.88265 0.0
H1663 H 0.10037 0.48389 0.90315 0.0
H1664 H 0.0285 0.44649 0.84794 0.0
C1665 C 0.97336 0.45815 0.92952 0.0
C1666 C 0.03737 0.47863 0.94024 0.0
C1667 C 0.95461 0.46069 0.94317 0.0
C1668 C 0.10933 0.45942 0.87796 0.0
C1669 C 0.09327 0.4667 0.88975 0.0
C1670 C 0.03123 0.45523 0.87397 0.0
C1671 C 0.99725 0.47653 0.93344 0.0
C1672 C 0.01691 0.47275 0.91935 0.0
C1673 C 0.0685 0.45233 0.88342 0.0
C1674 C 0.05124 0.46021 0.8954 0.0
H1675 H 0.98675 0.51693 0.97852 0.0
H1676 H 0.02 0.51237 0.9547 0.0
H1677 H 0.99908 0.45695 0.86857 0.0
H1678 H 0.06936 0.406 0.83969 0.0
H1679 H 0.0414 0.41848 0.86042 0.0
C1680 C 0.60259 0.6654 0.87918 0.0
C1681 C 0.58549 0.67231 0.87195 0.0
C1682 C 0.59563 0.6423 0.89187 0.0
C1683 C 0.54479 0.58749 0.93399 0.0
H1684 H 0.58059 0.55795 0.89921 0.0
C1685 C 0.52082 0.48792 0.96636 0.0
C1686 C 0.54066 0.48529 0.975 0.0
C1687 C 0.52417 0.51015 0.95401 0.0
C1688 C 0.57044 0.56594 0.90941 0.0
H1689 H 0.5474 0.65987 0.8726 0.0
H1690 H 0.5353 0.61968 0.89444 0.0
H1691 H 0.59071 0.59754 0.87766 0.0
H1692 H 0.57953 0.50458 0.97853 0.0
H1693 H 0.58511 0.54249 0.95753 0.0
H1694 H 0.52446 0.5555 0.96569 0.0
C1695 C 0.5542 0.63227 0.89088 0.0
C1696 C 0.57635 0.58881 0.89714 0.0
C1697 C 0.56119 0.65545 0.8783 0.0
C1698 C 0.56371 0.50558 0.97191 0.0
C1699 C 0.56701 0.52749 0.95956 0.0
C1700 C 0.53879 0.56444 0.9462 0.0
C1701 C 0.57129 0.62523 0.89754 0.0
C1702 C 0.56395 0.6002 0.90967 0.0
C1703 C 0.54741 0.53009 0.94978 0.0
C1704 C 0.55186 0.55355 0.93457 0.0
H1705 H 0.62146 0.67792 0.87519 0.0
H1706 H 0.60945 0.63788 0.89743 0.0
H1707 H 0.53485 0.59561 0.94446 0.0
H1708 H 0.50283 0.47274 0.96837 0.0
H1709 H 0.50865 0.51154 0.94677 0.0
C1710 C 0.96266 0.50919 0.48595 0.0
C1711 C 0.96353 0.48786 0.48268 0.0
C1712 C 0.9817 0.53116 0.47479 0.0
C1713 C 0.03509 0.55837 0.41481 0.0
H1714 H 0.04561 0.61657 0.46238 0.0
C1715 C 0.10982 0.65505 0.37351 0.0
C1716 C 0.1023 0.67202 0.36948 0.0
C1717 C 0.09446 0.63232 0.38822 0.0
C1718 C 0.04283 0.60051 0.44867 0.0
H1719 H 0.98581 0.4733 0.46583 0.0
H1720 H 0.01973 0.51216 0.44688 0.0
H1721 H 0.01783 0.57775 0.48857 0.0
H1722 H 0.07275 0.67835 0.37791 0.0
H1723 H 0.04606 0.63885 0.40442 0.0
H1724 H 0.06067 0.58154 0.37527 0.0
C1725 C 1.00388 0.51162 0.4577 0.0
C1726 C 0.0268 0.57813 0.46362 0.0
C1727 C 0.98456 0.48935 0.46892 0.0
C1728 C 0.07904 0.66569 0.38058 0.0
C1729 C 0.06384 0.64312 0.39594 0.0
C1730 C 0.05147 0.58086 0.40014 0.0
C1731 C 1.00259 0.53286 0.46016 0.0
C1732 C 0.02214 0.55664 0.44647 0.0
C1733 C 0.07134 0.62614 0.39991 0.0
C1734 C 0.05513 0.60219 0.41648 0.0
H1735 H 0.94686 0.50894 0.49639 0.0
H1736 H 0.97955 0.54675 0.47656 0.0
H1737 H 0.03194 0.54236 0.40054 0.0
H1738 H 0.12751 0.65923 0.36482 0.0
H1739 H 0.10082 0.61971 0.39099 0.0
C1740 C 0.52724 0.4965 0.47663 0.0
C1741 C 0.53055 0.47667 0.48126 0.0
C1742 C 0.50466 0.49316 0.46648 0.0
C1743 C 0.43959 0.44546 0.46026 0.0
H1744 H 0.43585 0.48703 0.38803 0.0
C1745 C 0.35296 0.4176 0.37811 0.0
C1746 C 0.34607 0.4349 0.37267 0.0
C1747 C 0.37533 0.42397 0.3933 0.0
C1748 C 0.43655 0.47536 0.40847 0.0
H1749 H 0.51231 0.43775 0.47966 0.0
H1750 H 0.47386 0.43209 0.46188 0.0
H1751 H 0.47486 0.4964 0.41243 0.0
H1752 H 0.35783 0.47273 0.37821 0.0
H1753 H 0.39679 0.48382 0.40452 0.0
H1754 H 0.40141 0.42408 0.45562 0.0
C1755 C 0.48829 0.45024 0.46646 0.0
C1756 C 0.45897 0.4808 0.42264 0.0
C1757 C 0.51062 0.45355 0.47648 0.0
C1758 C 0.36234 0.45884 0.38243 0.0
C1759 C 0.38483 0.46526 0.3972 0.0
C1760 C 0.41729 0.43992 0.44589 0.0
C1761 C 0.48487 0.46991 0.46096 0.0
C1762 C 0.46089 0.4657 0.44835 0.0
C1763 C 0.3916 0.4479 0.40307 0.0
C1764 C 0.41543 0.45458 0.41943 0.0
H1765 H 0.54219 0.51455 0.47984 0.0
H1766 H 0.50275 0.50878 0.46281 0.0
H1767 H 0.44009 0.43367 0.48066 0.0
H1768 H 0.34091 0.39903 0.37106 0.0
H1769 H 0.38 0.41014 0.39704 0.0
C1770 C 0.59997 0.93838 0.38321 0.0
C1771 C 0.58267 0.91493 0.37299 0.0
C1772 C 0.59319 0.95433 0.39736 0.0
C1773 C 0.54255 0.9665 0.40184 0.0
H1774 H 0.57934 0.0083 0.48092 0.0
C1775 C 0.51993 0.03602 0.468 0.0
C1776 C 0.53983 0.05857 0.4763 0.0
C1777 C 0.5231 0.01672 0.45727 0.0
C1778 C 0.56894 0.99696 0.45859 0.0
H1779 H 0.54442 0.89024 0.36924 0.0
H1780 H 0.53264 0.91798 0.39401 0.0
H1781 H 0.58912 0.97881 0.45818 0.0
H1782 H 0.57869 0.07811 0.47979 0.0
H1783 H 0.58402 0.04524 0.46118 0.0
H1784 H 0.52264 0.98507 0.40193 0.0
C1785 C 0.55152 0.92403 0.39108 0.0
C1786 C 0.5746 0.97997 0.4455 0.0
C1787 C 0.55832 0.90799 0.37722 0.0
C1788 C 0.5628 0.06112 0.47389 0.0
C1789 C 0.56592 0.04204 0.46337 0.0
C1790 C 0.53694 0.98365 0.41486 0.0
C1791 C 0.56885 0.94745 0.40149 0.0
C1792 C 0.56177 0.9647 0.41656 0.0
C1793 C 0.54622 0.01948 0.45487 0.0
C1794 C 0.55035 0.99947 0.44304 0.0
H1795 H 0.61885 0.94438 0.38053 0.0
H1796 H 0.6071 0.97226 0.40462 0.0
H1797 H 0.5323 0.95516 0.37941 0.0
H1798 H 0.502 0.03336 0.46937 0.0
H1799 H 0.50743 0.99961 0.4511 0.0
C1800 C 0.19549 0.36764 0.30779 0.0
C1801 C 0.19748 0.38917 0.32049 0.0
C1802 C 0.17298 0.34822 0.29742 0.0
C1803 C 0.10687 0.32553 0.30621 0.0
H1804 H 0.10096 0.28994 0.21854 0.0
C1805 C 0.01619 0.27041 0.23171 0.0
C1806 C 1.01026 0.2478 0.21763 0.0
C1807 C 0.03909 0.28584 0.24587 0.0
C1808 C 0.10229 0.29953 0.24331 0.0
H1809 H 0.17699 0.40664 0.33295 0.0
H1810 H 0.13871 0.37363 0.31497 0.0
H1811 H 0.14075 0.31926 0.24121 0.0
H1812 H 0.0243 0.22406 0.20694 0.0
H1813 H 0.06417 0.25095 0.23153 0.0
H1814 H 0.06852 0.30633 0.30789 0.0
C1815 C 0.15416 0.37127 0.31325 0.0
C1816 C 0.12517 0.31633 0.25642 0.0
C1817 C 0.17638 0.39046 0.32338 0.0
C1818 C 0.02802 0.24116 0.21795 0.0
C1819 C 0.05103 0.25671 0.23173 0.0
C1820 C 0.0841 0.30895 0.29299 0.0
C1821 C 0.15196 0.34984 0.29987 0.0
C1822 C 0.12782 0.32994 0.28775 0.0
C1823 C 0.0569 0.27927 0.24602 0.0
C1824 C 0.0814 0.29596 0.26103 0.0
H1825 H 0.21132 0.36601 0.30498 0.0
H1826 H 0.17206 0.33197 0.28746 0.0
H1827 H 0.10801 0.3351 0.33091 0.0
H1828 H 1.00302 0.27613 0.23207 0.0
H1829 H 0.04296 0.30314 0.25625 0.0
C1830 C 0.64766 0.83031 0.30039 0.0
C1831 C 0.62506 0.81065 0.30895 0.0
C1832 C 0.66667 0.82668 0.29003 0.0
C1833 C 0.67612 0.77919 0.25006 0.0
H1834 H 0.74182 0.81712 0.28264 0.0
C1835 C 0.74479 0.7488 0.22071 0.0
C1836 C 0.76847 0.76627 0.21227 0.0
C1837 C 0.72841 0.75541 0.23339 0.0
C1838 C 0.72361 0.80649 0.27289 0.0
H1839 H 0.60535 0.77194 0.31545 0.0
H1840 H 0.63804 0.76582 0.29799 0.0
H1841 H 0.71187 0.82732 0.30305 0.0
H1842 H 0.7933 0.80462 0.21064 0.0
H1843 H 0.76481 0.8161 0.2324 0.0
H1844 H 0.68756 0.75849 0.2197 0.0
C1845 C 0.64112 0.78397 0.2983 0.0
C1846 C 0.70644 0.81237 0.28464 0.0
C1847 C 0.62234 0.78755 0.30858 0.0
C1848 C 0.77537 0.79058 0.21734 0.0
C1849 C 0.75895 0.79721 0.22988 0.0
C1850 C 0.69321 0.7734 0.23822 0.0
C1851 C 0.66337 0.80332 0.28794 0.0
C1852 C 0.68236 0.79854 0.27382 0.0
C1853 C 0.73513 0.77973 0.2378 0.0
C1854 C 0.71718 0.78669 0.24981 0.0
H1855 H 0.65037 0.84831 0.30027 0.0
H1856 H 0.68362 0.84202 0.2823 0.0
H1857 H 0.65788 0.76844 0.24044 0.0
H1858 H 0.73889 0.72994 0.21767 0.0
H1859 H 0.71044 0.74134 0.23991 0.0
C1860 C 0.18403 0.82223 0.29751 0.0
C1861 C 0.20365 0.81839 0.29915 0.0
C1862 C 0.18719 0.84453 0.28582 0.0
C1863 C 0.23582 0.90847 0.27208 0.0
H1864 H 0.19086 0.9129 0.20756 0.0
C1865 C 0.26202 0.99379 0.18788 0.0
C1866 C 0.24566 1.00215 0.18674 0.0
C1867 C 0.25547 0.97133 0.20297 0.0
C1868 C 0.20351 0.91198 0.22581 0.0
H1869 H 0.24193 0.8352 0.28891 0.0
H1870 H 0.2471 0.87285 0.26847 0.0
H1871 H 0.18133 0.87385 0.23253 0.0
H1872 H 0.20922 0.9929 0.19955 0.0
H1873 H 0.1978 0.95374 0.22558 0.0
H1874 H 0.25826 0.94635 0.26469 0.0
C1875 C 0.22938 0.85922 0.277 0.0
C1876 C 0.19798 0.88958 0.24028 0.0
C1877 C 0.22628 0.83729 0.28861 0.0
C1878 C 0.22242 0.98723 0.20045 0.0
C1879 C 0.21576 0.96464 0.21506 0.0
C1880 C 0.24142 0.93069 0.25736 0.0
C1881 C 0.21004 0.86341 0.27564 0.0
C1882 C 0.2143 0.88742 0.26311 0.0
C1883 C 0.23226 0.95646 0.21685 0.0
C1884 C 0.22555 0.93274 0.23359 0.0
H1885 H 0.16633 0.80811 0.30522 0.0
H1886 H 0.17183 0.84707 0.28517 0.0
H1887 H 0.2486 0.90779 0.29033 0.0
H1888 H 0.28003 1.0048 0.17766 0.0
H1889 H 0.26857 0.96552 0.20355 0.0
C1890 C 0.74462 0.99715 0.70455 0.0
C1891 C 0.76885 1.00451 0.69851 0.0
C1892 C 0.729 0.97453 0.71937 0.0
C1893 C 0.71997 0.9135 0.73168 0.0
H1894 H 0.67534 0.90854 0.80591 0.0
C1895 C 0.65075 0.82164 0.79801 0.0
C1896 C 0.6277 0.81835 0.8034 0.0
C1897 C 0.66997 0.84431 0.788 0.0
C1898 C 0.68748 0.90946 0.78494 0.0
H1899 H 0.79541 0.99339 0.7026 0.0
H1900 H 0.76815 0.95393 0.72823 0.0
H1901 H 0.70415 0.94772 0.7819 0.0
H1902 H 0.60715 0.83669 0.80299 0.0
H1903 H 0.63985 0.87522 0.78542 0.0
H1904 H 0.70277 0.87507 0.73403 0.0
C1905 C 0.76126 0.96574 0.72169 0.0
C1906 C 0.70407 0.93203 0.77118 0.0
C1907 C 0.77696 0.98849 0.70732 0.0
C1908 C 0.62455 0.83833 0.79921 0.0
C1909 C 0.64353 0.86071 0.78934 0.0
C1910 C 0.70315 0.89079 0.74523 0.0
C1911 C 0.73709 0.95848 0.72812 0.0
C1912 C 0.7203 0.93438 0.74397 0.0
C1913 C 0.66655 0.86418 0.78343 0.0
C1914 C 0.68633 0.88839 0.77161 0.0
H1915 H 0.73778 0.00901 0.69819 0.0
H1916 H 0.71045 0.96947 0.72359 0.0
H1917 H 0.73217 0.91462 0.71065 0.0
H1918 H 0.65383 0.80667 0.80081 0.0
H1919 H 0.68747 0.84628 0.78389 0.0
C1920 C 0.02893 0.79027 0.71163 0.0
C1921 C 0.01304 0.76681 0.69936 0.0
C1922 C 0.05183 0.79663 0.72462 0.0
C1923 C 0.09689 0.77627 0.72291 0.0
H1924 H 0.12608 0.82086 0.80269 0.0
C1925 C 0.17905 0.78505 0.79636 0.0
C1926 C 0.19854 0.80804 0.80396 0.0
C1927 C 0.15713 0.78192 0.78453 0.0
C1928 C 0.11829 0.8086 0.78012 0.0
H1929 H 1.00888 0.73157 0.69218 0.0
H1930 H 0.04842 0.74239 0.71524 0.0
H1931 H 0.08642 0.81123 0.78067 0.0
H1932 H 0.20959 0.84579 0.80618 0.0
H1933 H 0.17073 0.84023 0.78565 0.0
H1934 H 0.12846 0.77329 0.72273 0.0
C1935 C 0.04349 0.75616 0.71405 0.0
C1936 C 0.0955 0.80304 0.76741 0.0
C1937 C 0.02067 0.74985 0.70088 0.0
C1938 C 0.19502 0.82784 0.80065 0.0
C1939 C 0.17277 0.82464 0.78887 0.0
C1940 C 0.11949 0.7817 0.73572 0.0
C1941 C 0.05956 0.77971 0.72586 0.0
C1942 C 0.08428 0.78651 0.73888 0.0
C1943 C 0.15371 0.80162 0.77989 0.0
C1944 C 0.13041 0.79765 0.76483 0.0
H1945 H 0.02394 0.80398 0.71039 0.0
H1946 H 0.06366 0.815 0.7329 0.0
H1947 H 0.08935 0.76404 0.70028 0.0
H1948 H 0.18078 0.76924 0.7989 0.0
H1949 H 0.14278 0.7639 0.77876 0.0
C1950 C 0.26667 0.27292 0.71372 0.0
C1951 C 0.24961 0.24894 0.70584 0.0
C1952 C 0.25963 0.28908 0.72601 0.0
C1953 C 0.20816 0.29298 0.76586 0.0
H1954 H 0.24545 0.35892 0.7338 0.0
C1955 C 0.18497 0.36903 0.79945 0.0
C1956 C 0.20482 0.39108 0.80994 0.0
C1957 C 0.1882 0.35022 0.78626 0.0
C1958 C 0.23485 0.3406 0.7432 0.0
H1959 H 0.21147 0.22339 0.70488 0.0
H1960 H 0.19923 0.2515 0.72601 0.0
H1961 H 0.25556 0.32945 0.71226 0.0
H1962 H 0.24361 0.41004 0.81553 0.0
H1963 H 0.24897 0.37792 0.7929 0.0
H1964 H 0.18741 0.30448 0.79678 0.0
C1965 C 0.21816 0.25778 0.72327 0.0
C1966 C 0.24076 0.32363 0.73096 0.0
C1967 C 0.22523 0.24156 0.7111 0.0
C1968 C 0.22776 0.39355 0.80751 0.0
C1969 C 0.23095 0.37505 0.79424 0.0
C1970 C 0.20215 0.31004 0.77802 0.0
C1971 C 0.23524 0.28189 0.73064 0.0
C1972 C 0.22785 0.29961 0.74256 0.0
C1973 C 0.21135 0.35322 0.78293 0.0
C1974 C 0.21574 0.33421 0.7674 0.0
H1975 H 0.28559 0.27924 0.71059 0.0
H1976 H 0.27344 0.30727 0.73214 0.0
H1977 H 0.19779 0.27474 0.77563 0.0
H1978 H 0.16706 0.36642 0.80095 0.0
H1979 H 0.17267 0.3336 0.77783 0.0
C1980 C 0.6829 0.60393 0.56127 0.0
C1981 C 0.67673 0.58072 0.54973 0.0
C1982 C 0.70586 0.61977 0.57485 0.0
C1983 C 0.76882 0.63237 0.57484 0.0
H1984 H 0.77528 0.67267 0.65687 0.0
C1985 C 0.86226 0.70156 0.63758 0.0
C1986 C 0.8649 0.72391 0.64726 0.0
C1987 C 0.83959 0.68221 0.62771 0.0
C1988 C 0.77392 0.66175 0.63371 0.0
H1989 H 0.69042 0.5563 0.54304 0.0
H1990 H 0.73032 0.58384 0.56677 0.0
H1991 H 0.73558 0.64331 0.63526 0.0
H1992 H 0.84537 0.74301 0.65434 0.0
H1993 H 0.80681 0.71006 0.63719 0.0
H1994 H 0.80728 0.65125 0.57293 0.0
C1995 C 0.71735 0.5898 0.56534 0.0
C1996 C 0.75104 0.64484 0.62128 0.0
C1997 C 0.6943 0.57387 0.55207 0.0
C1998 C 0.84428 0.72618 0.64726 0.0
C1999 C 0.82189 0.70705 0.6376 0.0
C2000 C 0.79181 0.64945 0.58718 0.0
C2001 C 0.72349 0.61299 0.57702 0.0
C2002 C 0.74808 0.63013 0.59132 0.0
C2003 C 0.81905 0.68473 0.62758 0.0
C2004 C 0.79472 0.66473 0.61643 0.0
H2005 H 0.6699 0.60984 0.56004 0.0
H2006 H 0.70992 0.63754 0.58315 0.0
H2007 H 0.76731 0.62146 0.55158 0.0
H2008 H 0.87769 0.69913 0.63709 0.0
H2009 H 0.83816 0.66528 0.62033 0.0
C2010 C 0.29 0.12194 0.63702 0.0
C2011 C 0.29299 0.14503 0.64145 0.0
C2012 C 0.30873 0.11878 0.62504 0.0
C2013 C 0.37381 0.14592 0.61519 0.0
H2014 H 0.35599 0.09861 0.53886 0.0
C2015 C 0.44315 0.12538 0.54616 0.0
C2016 C 0.43526 0.10164 0.53504 0.0
C2017 C 0.42692 0.13212 0.55922 0.0
C2018 C 0.36133 0.11162 0.56053 0.0
H2019 H 0.31882 0.18299 0.63816 0.0
H2020 H 0.35209 0.17737 0.61756 0.0
H2021 H 0.32665 0.10835 0.56201 0.0
H2022 H 0.40401 0.06632 0.52995 0.0
H2023 H 0.37584 0.07777 0.55334 0.0
H2024 H 0.40839 0.14874 0.61434 0.0
C2025 C 0.33488 0.16175 0.62328 0.0
C2026 C 0.34445 0.11734 0.57368 0.0
C2027 C 0.31585 0.16498 0.63516 0.0
C2028 C 0.41071 0.0848 0.53778 0.0
C2029 C 0.39451 0.09147 0.55111 0.0
C2030 C 0.39074 0.14002 0.60222 0.0
C2031 C 0.33129 0.13853 0.61718 0.0
C2032 C 0.3503 0.13431 0.60153 0.0
C2033 C 0.40227 0.11531 0.56176 0.0
C2034 C 0.38466 0.12249 0.57497 0.0
H2035 H 0.27283 0.10604 0.64196 0.0
H2036 H 0.30542 0.10067 0.62149 0.0
H2037 H 0.37888 0.15897 0.63678 0.0
H2038 H 0.46184 0.13899 0.54394 0.0
H2039 H 0.43369 0.1507 0.56653 0.0
C2040 C 0.8904 0.32202 0.53919 0.0
C2041 C 0.91403 0.33729 0.52724 0.0
C2042 C 0.88307 0.29871 0.55139 0.0
C2043 C 0.90072 0.25164 0.54812 0.0
H2044 H 0.85703 0.2238 0.62903 0.0
C2045 C 0.89297 0.17156 0.62576 0.0
C2046 C 0.87019 0.15177 0.63339 0.0
C2047 C 0.89557 0.19296 0.61245 0.0
C2048 C 0.86896 0.2312 0.60607 0.0
H2049 H 0.94853 0.33993 0.51966 0.0
H2050 H 0.93602 0.29965 0.54135 0.0
H2051 H 0.86753 0.26377 0.60697 0.0
H2052 H 0.83222 0.13962 0.63383 0.0
H2053 H 0.83689 0.17774 0.61079 0.0
H2054 H 0.90272 0.21946 0.54788 0.0
C2055 C 0.92287 0.3054 0.54053 0.0
C2056 C 0.87504 0.25415 0.59338 0.0
C2057 C 0.93015 0.32863 0.52815 0.0
C2058 C 0.85 0.15442 0.62826 0.0
C2059 C 0.85269 0.17623 0.61509 0.0
C2060 C 0.8948 0.22889 0.56093 0.0
C2061 C 0.89916 0.28997 0.55212 0.0
C2062 C 0.89139 0.26492 0.5646 0.0
C2063 C 0.87555 0.19559 0.60639 0.0
C2064 C 0.87921 0.21853 0.59049 0.0
H2065 H 0.87731 0.32783 0.53837 0.0
H2066 H 0.86461 0.28739 0.55955 0.0
H2067 H 0.91278 0.25885 0.52528 0.0
H2068 H 0.90908 0.17054 0.62947 0.0
H2069 H 0.91345 0.20759 0.60678 0.0
C2070 C 0.31449 0.15382 0.1276 0.0
C2071 C 0.29233 0.15171 0.13675 0.0
C2072 C 0.33342 0.17572 0.11441 0.0
C2073 C 0.34368 0.23055 0.06693 0.0
H2074 H 0.40794 0.26187 0.10642 0.0
C2075 C 0.41089 0.32977 0.03386 0.0
C2076 C 0.43537 0.3373 0.03083 0.0
C2077 C 0.39448 0.30669 0.04633 0.0
C2078 C 0.3902 0.25328 0.09458 0.0
H2079 H 0.27318 0.17148 0.1397 0.0
H2080 H 0.30555 0.20877 0.11669 0.0
H2081 H 0.37816 0.22196 0.12803 0.0
H2082 H 0.4616 0.326 0.03817 0.0
H2083 H 0.43309 0.28576 0.05918 0.0
H2084 H 0.3554 0.26137 0.03322 0.0
C2085 C 0.30841 0.19364 0.11942 0.0
C2086 C 0.37312 0.23035 0.10707 0.0
C2087 C 0.28981 0.17212 0.13288 0.0
C2088 C 0.44297 0.32104 0.04069 0.0
C2089 C 0.42653 0.29785 0.05283 0.0
C2090 C 0.36072 0.25326 0.0542 0.0
C2091 C 0.33038 0.19577 0.10958 0.0
C2092 C 0.34951 0.2189 0.09388 0.0
C2093 C 0.40196 0.29022 0.05576 0.0
C2094 C 0.38417 0.26527 0.06826 0.0
H2095 H 0.31711 0.13854 0.13021 0.0
H2096 H 0.35019 0.17681 0.1071 0.0
H2097 H 0.32575 0.2221 0.05575 0.0
H2098 H 0.40443 0.34187 0.02695 0.0
H2099 H 0.37589 0.30188 0.04891 0.0
C2100 C 0.84316 0.12294 0.14814 0.0
C2101 C 0.86352 0.14604 0.14885 0.0
C2102 C 0.82054 0.11948 0.13976 0.0
C2103 C 0.79011 0.14744 0.09222 0.0
H2104 H 0.73378 0.09514 0.13697 0.0
C2105 C 0.69273 0.12424 0.05496 0.0
C2106 C 0.67553 0.09973 0.05114 0.0
C2107 C 0.71561 0.13148 0.06898 0.0
C2108 C 0.74928 0.1097 0.12393 0.0
H2109 H 0.87571 0.18379 0.14188 0.0
H2110 H 0.83579 0.17779 0.12737 0.0
H2111 H 0.77342 0.10575 0.15914 0.0
H2112 H 0.66917 0.06375 0.05962 0.0
H2113 H 0.70893 0.0763 0.08393 0.0
H2114 H 0.76577 0.15123 0.05688 0.0
C2115 C 0.83756 0.16228 0.13316 0.0
C2116 C 0.77211 0.11584 0.1367 0.0
C2117 C 0.86042 0.16578 0.14185 0.0
C2118 C 0.68189 0.08273 0.06198 0.0
C2119 C 0.70469 0.08997 0.07627 0.0
C2120 C 0.76718 0.14135 0.07952 0.0
C2121 C 0.8173 0.13899 0.1317 0.0
C2122 C 0.79295 0.13448 0.1206 0.0
C2123 C 0.72195 0.11446 0.0799 0.0
C2124 C 0.74642 0.12208 0.09476 0.0
H2125 H 0.84473 0.10723 0.15332 0.0
H2126 H 0.80566 0.10127 0.1384 0.0
H2127 H 0.80563 0.16173 0.07883 0.0
H2128 H 0.68872 0.13792 0.0465 0.0
H2129 H 0.72829 0.15048 0.07154 0.0
C2130 C 0.89171 0.57562 0.04473 0.0
C2131 C 0.91469 0.58362 0.03026 0.0
C2132 C 0.88525 0.59196 0.05839 0.0
C2133 C 0.90396 0.6572 0.05567 0.0
H2134 H 0.8619 0.64183 0.13856 0.0
C2135 C 0.89637 0.7304 0.13218 0.0
C2136 C 0.87351 0.72681 0.14072 0.0
C2137 C 0.89937 0.71163 0.11964 0.0
C2138 C 0.87344 0.64628 0.11514 0.0
H2139 H 0.94904 0.61521 0.01995 0.0
H2140 H 0.93813 0.64357 0.04432 0.0
H2141 H 0.87161 0.61208 0.11533 0.0
H2142 H 0.83588 0.69997 0.14388 0.0
H2143 H 0.84125 0.66671 0.12227 0.0
H2144 H 0.90627 0.69153 0.056 0.0
C2145 C 0.92474 0.62471 0.04427 0.0
C2146 C 0.87904 0.6292 0.10171 0.0
C2147 C 0.93111 0.6084 0.03035 0.0
C2148 C 0.85373 0.70342 0.13765 0.0
C2149 C 0.85682 0.68439 0.12524 0.0
C2150 C 0.89855 0.67424 0.06923 0.0
C2151 C 0.90162 0.61682 0.05822 0.0
C2152 C 0.89469 0.63452 0.07201 0.0
C2153 C 0.87968 0.68846 0.11529 0.0
C2154 C 0.8835 0.6692 0.09946 0.0
H2155 H 0.87841 0.55674 0.04467 0.0
H2156 H 0.8672 0.58507 0.06834 0.0
H2157 H 0.91546 0.6619 0.03217 0.0
H2158 H 0.91217 0.74799 0.13443 0.0
H2159 H 0.91728 0.71538 0.11305 0.0
loop_
_geom_bond_atom_site_label_1
_geom_bond_atom_site_label_2
_geom_bond_distance
_geom_bond_site_symmetry_2
_ccdc_geom_bond_type
Co0 N5 2.057 . S
Co0 O17 2.021 . S
Co0 O20 2.062 . S
Co0 O24 2.117 . S
Co0 O25 2.020 1_554 S
C1 O21 1.261 . S
C1 O24 1.261 . S
Co2 N11 2.057 . S
Co2 O18 2.117 . S
Co2 O19 2.020 . S
Co2 O21 2.021 . S
Co2 O26 2.062 1_554 S
C3 N5 1.316 . S
C3 N6 1.347 . S
C3 H8 0.931 . S
C4 N5 1.375 . S
C4 C7 1.350 . S
C4 H9 0.929 . S
N5 Co0 2.057 . S
N5 C3 1.316 . S
N5 C4 1.375 . S
N6 C3 1.347 . S
N6 C7 1.373 . S
C7 C4 1.350 . S
C7 N6 1.373 . S
C7 H28 0.931 . S
H8 C3 0.931 . S
H9 C4 0.929 . S
C10 O17 1.259 . S
C10 O18 1.258 . S
N11 Co2 2.057 . S
N11 C12 1.316 1_554 S
N11 C13 1.375 . S
C12 N11 1.316 1_556 S
C12 N14 1.347 . S
C12 H23 0.931 . S
C13 N11 1.375 . S
C13 C15 1.350 1_554 S
C13 H22 0.930 . S
N14 C12 1.347 . S
N14 C15 1.373 . S
C15 C13 1.350 1_556 S
C15 N14 1.373 . S
C15 H29 0.931 . S
C16 O19 1.256 . S
C16 O20 1.255 . S
O17 Co0 2.021 . S
O17 C10 1.259 . S
O18 Co2 2.117 . S
O18 C10 1.258 . S
O19 Co2 2.020 . S
O19 C16 1.256 . S
O20 Co0 2.062 . S
O20 C16 1.255 . S
O21 C1 1.261 . S
O21 Co2 2.021 . S
H22 C13 0.930 . S
H23 C12 0.931 . S
O24 Co0 2.117 . S
O24 C1 1.261 . S
O25 Co0 2.020 1_556 S
O25 C27 1.256 . S
O26 Co2 2.062 1_556 S
O26 C27 1.255 . S
C27 O25 1.256 . S
C27 O26 1.255 . S
H28 C7 0.931 . S
H29 C15 0.931 . S
Co30 N35 2.057 . S
Co30 O47 2.021 . S
Co30 O50 2.062 . S
Co30 O54 2.117 . S
Co30 O55 2.020 1_554 S
C31 O51 1.261 . S
C31 O54 1.261 . S
Co32 N41 2.057 . S
Co32 O48 2.117 . S
Co32 O49 2.020 . S
Co32 O51 2.021 . S
Co32 O56 2.062 1_554 S
C33 N35 1.316 . S
C33 N36 1.347 . S
C33 H38 0.931 . S
C34 N35 1.375 . S
C34 C37 1.350 . S
C34 H39 0.929 . S
N35 Co30 2.057 . S
N35 C33 1.316 . S
N35 C34 1.375 . S
N36 C33 1.347 . S
N36 C37 1.373 . S
C37 C34 1.350 . S
C37 N36 1.373 . S
C37 H58 0.931 . S
H38 C33 0.931 . S
H39 C34 0.929 . S
C40 O47 1.259 . S
C40 O48 1.258 . S
N41 Co32 2.057 . S
N41 C42 1.316 1_554 S
N41 C43 1.375 . S
C42 N41 1.316 1_556 S
C42 N44 1.347 . S
C42 H53 0.931 . S
C43 N41 1.375 . S
C43 C45 1.350 1_554 S
C43 H52 0.930 . S
N44 C42 1.347 . S
N44 C45 1.373 . S
C45 C43 1.350 1_556 S
C45 N44 1.373 . S
C45 H59 0.931 . S
C46 O49 1.256 . S
C46 O50 1.255 . S
O47 Co30 2.021 . S
O47 C40 1.259 . S
O48 Co32 2.117 . S
O48 C40 1.258 . S
O49 Co32 2.020 . S
O49 C46 1.256 . S
O50 Co30 2.062 . S
O50 C46 1.255 . S
O51 C31 1.261 . S
O51 Co32 2.021 . S
H52 C43 0.930 . S
H53 C42 0.931 . S
O54 Co30 2.117 . S
O54 C31 1.261 . S
O55 Co30 2.020 1_556 S
O55 C57 1.256 . S
O56 Co32 2.062 1_556 S
O56 C57 1.255 . S
C57 O55 1.256 . S
C57 O56 1.255 . S
H58 C37 0.931 . S
H59 C45 0.931 . S
Co60 N65 2.057 . S
Co60 O77 2.021 . S
Co60 O80 2.062 . S
Co60 O84 2.117 . S
Co60 O85 2.020 1_554 S
C61 O81 1.261 . S
C61 O84 1.261 . S
Co62 N71 2.057 . S
Co62 O78 2.117 . S
Co62 O79 2.020 . S
Co62 O81 2.021 . S
Co62 O86 2.062 1_554 S
C63 N65 1.316 . S
C63 N66 1.347 . S
C63 H68 0.931 . S
C64 N65 1.375 . S
C64 C67 1.350 . S
C64 H69 0.929 . S
N65 Co60 2.057 . S
N65 C63 1.316 . S
N65 C64 1.375 . S
N66 C63 1.347 . S
N66 C67 1.373 . S
C67 C64 1.350 . S
C67 N66 1.373 . S
C67 H88 0.931 . S
H68 C63 0.931 . S
H69 C64 0.929 . S
C70 O77 1.259 . S
C70 O78 1.258 . S
N71 Co62 2.057 . S
N71 C72 1.316 1_554 S
N71 C73 1.375 . S
C72 N71 1.316 1_556 S
C72 N74 1.347 . S
C72 H83 0.931 . S
C73 N71 1.375 . S
C73 C75 1.350 1_554 S
C73 H82 0.930 . S
N74 C72 1.347 . S
N74 C75 1.373 . S
C75 C73 1.350 1_556 S
C75 N74 1.373 . S
C75 H89 0.931 . S
C76 O79 1.256 . S
C76 O80 1.255 . S
O77 Co60 2.021 . S
O77 C70 1.259 . S
O78 Co62 2.117 . S
O78 C70 1.258 . S
O79 Co62 2.020 . S
O79 C76 1.256 . S
O80 Co60 2.062 . S
O80 C76 1.255 . S
O81 C61 1.261 . S
O81 Co62 2.021 . S
H82 C73 0.930 . S
H83 C72 0.931 . S
O84 Co60 2.117 . S
O84 C61 1.261 . S
O85 Co60 2.020 1_556 S
O85 C87 1.256 . S
O86 Co62 2.062 1_556 S
O86 C87 1.255 . S
C87 O85 1.256 . S
C87 O86 1.255 . S
H88 C67 0.931 . S
H89 C75 0.931 . S
Co90 N95 2.057 . S
Co90 O107 2.021 . S
Co90 O110 2.062 . S
Co90 O114 2.117 . S
Co90 O115 2.020 . S
C91 O111 1.259 . S
C91 O114 1.258 . S
Co92 N101 2.057 . S
Co92 O108 2.117 . S
Co92 O109 2.020 . S
Co92 O111 2.021 . S
Co92 O116 2.062 . S
C93 N95 1.316 . S
C93 N96 1.347 . S
C93 H98 0.931 . S
C94 N95 1.375 . S
C94 C97 1.350 . S
C94 H99 0.930 . S
N95 Co90 2.057 . S
N95 C93 1.316 . S
N95 C94 1.375 . S
N96 C93 1.347 . S
N96 C97 1.373 . S
C97 C94 1.350 . S
C97 N96 1.373 . S
C97 H118 0.931 . S
H98 C93 0.931 . S
H99 C94 0.930 . S
C100 O107 1.259 . S
C100 O108 1.258 . S
N101 Co92 2.057 . S
N101 C102 1.316 . S
N101 C103 1.375 . S
C102 N101 1.316 . S
C102 N104 1.347 . S
C102 H113 0.931 . S
C103 N101 1.375 . S
C103 C105 1.350 . S
C103 H112 0.930 . S
N104 C102 1.347 . S
N104 C105 1.373 . S
C105 C103 1.350 . S
C105 N104 1.373 . S
C105 H119 0.931 . S
C106 O109 1.256 . S
C106 O110 1.255 . S
O107 Co90 2.021 . S
O107 C100 1.259 . S
O108 Co92 2.117 . S
O108 C100 1.258 . S
O109 Co92 2.020 . S
O109 C106 1.256 . S
O110 Co90 2.062 . S
O110 C106 1.255 . S
O111 C91 1.259 . S
O111 Co92 2.021 . S
H112 C103 0.930 . S
H113 C102 0.931 . S
O114 Co90 2.117 . S
O114 C91 1.258 . S
O115 Co90 2.020 . S
O115 C117 1.256 . S
O116 Co92 2.062 . S
O116 C117 1.255 . S
C117 O115 1.256 . S
C117 O116 1.255 . S
H118 C97 0.931 . S
H119 C105 0.931 . S
Co120 N125 2.057 . S
Co120 O137 2.021 . S
Co120 O140 2.062 . S
Co120 O144 2.117 . S
Co120 O145 2.020 . S
C121 O141 1.259 . S
C121 O144 1.258 . S
Co122 N131 2.057 . S
Co122 O138 2.117 . S
Co122 O139 2.020 . S
Co122 O141 2.021 . S
Co122 O146 2.062 . S
C123 N125 1.316 . S
C123 N126 1.347 . S
C123 H128 0.931 . S
C124 N125 1.375 . S
C124 C127 1.350 . S
C124 H129 0.930 . S
N125 Co120 2.057 . S
N125 C123 1.316 . S
N125 C124 1.375 . S
N126 C123 1.347 . S
N126 C127 1.373 . S
C127 C124 1.350 . S
C127 N126 1.373 . S
C127 H148 0.931 . S
H128 C123 0.931 . S
H129 C124 0.930 . S
C130 O137 1.259 . S
C130 O138 1.258 . S
N131 Co122 2.057 . S
N131 C132 1.316 . S
N131 C133 1.375 . S
C132 N131 1.316 . S
C132 N134 1.347 . S
C132 H143 0.931 . S
C133 N131 1.375 . S
C133 C135 1.350 . S
C133 H142 0.930 . S
N134 C132 1.347 . S
N134 C135 1.373 . S
C135 C133 1.350 . S
C135 N134 1.373 . S
C135 H149 0.931 . S
C136 O139 1.256 . S
C136 O140 1.255 . S
O137 Co120 2.021 . S
O137 C130 1.259 . S
O138 Co122 2.117 . S
O138 C130 1.258 . S
O139 Co122 2.020 . S
O139 C136 1.256 . S
O140 Co120 2.062 . S
O140 C136 1.255 . S
O141 C121 1.259 . S
O141 Co122 2.021 . S
H142 C133 0.930 . S
H143 C132 0.931 . S
O144 Co120 2.117 . S
O144 C121 1.258 . S
O145 Co120 2.020 . S
O145 C147 1.256 . S
O146 Co122 2.062 . S
O146 C147 1.255 . S
C147 O145 1.256 . S
C147 O146 1.255 . S
H148 C127 0.931 . S
H149 C135 0.931 . S
Co150 N155 2.057 . S
Co150 O167 2.021 . S
Co150 O170 2.062 . S
Co150 O174 2.117 . S
Co150 O175 2.020 . S
C151 O171 1.259 . S
C151 O174 1.258 . S
Co152 N161 2.057 . S
Co152 O168 2.117 . S
Co152 O169 2.020 . S
Co152 O171 2.021 . S
Co152 O176 2.062 . S
C153 N155 1.316 . S
C153 N156 1.347 . S
C153 H158 0.931 . S
C154 N155 1.375 . S
C154 C157 1.350 . S
C154 H159 0.930 . S
N155 Co150 2.057 . S
N155 C153 1.316 . S
N155 C154 1.375 . S
N156 C153 1.347 . S
N156 C157 1.373 . S
C157 C154 1.350 . S
C157 N156 1.373 . S
C157 H178 0.931 . S
H158 C153 0.931 . S
H159 C154 0.930 . S
C160 O167 1.259 . S
C160 O168 1.258 . S
N161 Co152 2.057 . S
N161 C162 1.316 . S
N161 C163 1.375 . S
C162 N161 1.316 . S
C162 N164 1.347 . S
C162 H173 0.931 . S
C163 N161 1.375 . S
C163 C165 1.350 . S
C163 H172 0.930 . S
N164 C162 1.347 . S
N164 C165 1.373 . S
C165 C163 1.350 . S
C165 N164 1.373 . S
C165 H179 0.931 . S
C166 O169 1.256 . S
C166 O170 1.255 . S
O167 Co150 2.021 . S
O167 C160 1.259 . S
O168 Co152 2.117 . S
O168 C160 1.258 . S
O169 Co152 2.020 . S
O169 C166 1.256 . S
O170 Co150 2.062 . S
O170 C166 1.255 . S
O171 C151 1.259 . S
O171 Co152 2.021 . S
H172 C163 0.930 . S
H173 C162 0.931 . S
O174 Co150 2.117 . S
O174 C151 1.258 . S
O175 Co150 2.020 . S
O175 C177 1.256 . S
O176 Co152 2.062 . S
O176 C177 1.255 . S
C177 O175 1.256 . S
C177 O176 1.255 . S
H178 C157 0.931 . S
H179 C165 0.931 . S
Co180 N185 2.057 . S
Co180 O197 2.021 . S
Co180 O200 2.062 . S
Co180 O204 2.117 . S
Co180 O205 2.020 . S
C181 O201 1.259 . S
C181 O204 1.258 . S
Co182 N191 2.057 . S
Co182 O198 2.117 . S
Co182 O199 2.020 . S
Co182 O201 2.021 . S
Co182 O206 2.062 . S
C183 N185 1.316 . S
C183 N186 1.347 . S
C183 H188 0.931 . S
C184 N185 1.375 . S
C184 C187 1.350 . S
C184 H189 0.930 . S
N185 Co180 2.057 . S
N185 C183 1.316 . S
N185 C184 1.375 . S
N186 C183 1.347 . S
N186 C187 1.373 . S
C187 C184 1.350 . S
C187 N186 1.373 . S
C187 H208 0.931 . S
H188 C183 0.931 . S
H189 C184 0.930 . S
C190 O197 1.259 . S
C190 O198 1.258 . S
N191 Co182 2.057 . S
N191 C192 1.316 . S
N191 C193 1.375 . S
C192 N191 1.316 . S
C192 N194 1.347 . S
C192 H203 0.931 . S
C193 N191 1.375 . S
C193 C195 1.350 . S
C193 H202 0.930 . S
N194 C192 1.347 . S
N194 C195 1.373 . S
C195 C193 1.350 . S
C195 N194 1.373 . S
C195 H209 0.931 . S
C196 O199 1.256 . S
C196 O200 1.255 . S
O197 Co180 2.021 . S
O197 C190 1.259 . S
O198 Co182 2.117 . S
O198 C190 1.258 . S
O199 Co182 2.020 . S
O199 C196 1.256 . S
O200 Co180 2.062 . S
O200 C196 1.255 . S
O201 C181 1.259 . S
O201 Co182 2.021 . S
H202 C193 0.930 . S
H203 C192 0.931 . S
O204 Co180 2.117 . S
O204 C181 1.258 . S
O205 Co180 2.020 . S
O205 C207 1.256 . S
O206 Co182 2.062 . S
O206 C207 1.255 . S
C207 O205 1.256 . S
C207 O206 1.255 . S
H208 C187 0.931 . S
H209 C195 0.931 . S
Co210 N215 2.057 . S
Co210 O227 2.021 . S
Co210 O230 2.062 . S
Co210 O234 2.117 . S
Co210 O235 2.020 . S
C211 O231 1.259 . S
C211 O234 1.258 . S
Co212 N221 2.057 . S
Co212 O228 2.117 . S
Co212 O229 2.020 . S
Co212 O231 2.021 . S
Co212 O236 2.062 . S
C213 N215 1.316 . S
C213 N216 1.347 . S
C213 H218 0.931 . S
C214 N215 1.375 . S
C214 C217 1.350 . S
C214 H219 0.930 . S
N215 Co210 2.057 . S
N215 C213 1.316 . S
N215 C214 1.375 . S
N216 C213 1.347 . S
N216 C217 1.373 . S
C217 C214 1.350 . S
C217 N216 1.373 . S
C217 H238 0.931 . S
H218 C213 0.931 . S
H219 C214 0.930 . S
C220 O227 1.259 . S
C220 O228 1.258 . S
N221 Co212 2.057 . S
N221 C222 1.316 . S
N221 C223 1.375 . S
C222 N221 1.316 . S
C222 N224 1.347 . S
C222 H233 0.931 . S
C223 N221 1.375 . S
C223 C225 1.350 . S
C223 H232 0.930 . S
N224 C222 1.347 . S
N224 C225 1.373 . S
C225 C223 1.350 . S
C225 N224 1.373 . S
C225 H239 0.931 . S
C226 O229 1.256 . S
C226 O230 1.255 . S
O227 Co210 2.021 . S
O227 C220 1.259 . S
O228 Co212 2.117 . S
O228 C220 1.258 . S
O229 Co212 2.020 . S
O229 C226 1.256 . S
O230 Co210 2.062 . S
O230 C226 1.255 . S
O231 C211 1.259 . S
O231 Co212 2.021 . S
H232 C223 0.930 . S
H233 C222 0.931 . S
O234 Co210 2.117 . S
O234 C211 1.258 . S
O235 Co210 2.020 . S
O235 C237 1.256 . S
O236 Co212 2.062 . S
O236 C237 1.255 . S
C237 O235 1.256 . S
C237 O236 1.255 . S
H238 C217 0.931 . S
H239 C225 0.931 . S
Co240 N245 2.057 . S
Co240 O257 2.021 . S
Co240 O260 2.062 . S
Co240 O264 2.117 . S
Co240 O265 2.020 . S
C241 O261 1.259 . S
C241 O264 1.258 . S
Co242 N251 2.057 . S
Co242 O258 2.117 . S
Co242 O259 2.020 . S
Co242 O261 2.021 . S
Co242 O266 2.062 . S
C243 N245 1.316 . S
C243 N246 1.347 . S
C243 H248 0.931 . S
C244 N245 1.375 . S
C244 C247 1.350 . S
C244 H249 0.930 . S
N245 Co240 2.057 . S
N245 C243 1.316 . S
N245 C244 1.375 . S
N246 C243 1.347 . S
N246 C247 1.373 . S
C247 C244 1.350 . S
C247 N246 1.373 . S
C247 H268 0.931 . S
H248 C243 0.931 . S
H249 C244 0.930 . S
C250 O257 1.259 . S
C250 O258 1.258 . S
N251 Co242 2.057 . S
N251 C252 1.316 . S
N251 C253 1.375 . S
C252 N251 1.316 . S
C252 N254 1.347 . S
C252 H263 0.931 . S
C253 N251 1.375 . S
C253 C255 1.350 . S
C253 H262 0.930 . S
N254 C252 1.347 . S
N254 C255 1.373 . S
C255 C253 1.350 . S
C255 N254 1.373 . S
C255 H269 0.931 . S
C256 O259 1.256 . S
C256 O260 1.255 . S
O257 Co240 2.021 . S
O257 C250 1.259 . S
O258 Co242 2.117 . S
O258 C250 1.258 . S
O259 Co242 2.020 . S
O259 C256 1.256 . S
O260 Co240 2.062 . S
O260 C256 1.255 . S
O261 C241 1.259 . S
O261 Co242 2.021 . S
H262 C253 0.930 . S
H263 C252 0.931 . S
O264 Co240 2.117 . S
O264 C241 1.258 . S
O265 Co240 2.020 . S
O265 C267 1.256 . S
O266 Co242 2.062 . S
O266 C267 1.255 . S
C267 O265 1.256 . S
C267 O266 1.255 . S
H268 C247 0.931 . S
H269 C255 0.931 . S
Co270 N275 2.057 . S
Co270 O287 2.021 . S
Co270 O290 2.062 . S
Co270 O294 2.117 . S
Co270 O295 2.020 . S
C271 O291 1.259 . S
C271 O294 1.258 . S
Co272 N281 2.057 . S
Co272 O288 2.117 . S
Co272 O289 2.020 . S
Co272 O291 2.021 . S
Co272 O296 2.062 . S
C273 N275 1.316 . S
C273 N276 1.347 . S
C273 H278 0.931 . S
C274 N275 1.375 . S
C274 C277 1.350 . S
C274 H279 0.930 . S
N275 Co270 2.057 . S
N275 C273 1.316 . S
N275 C274 1.375 . S
N276 C273 1.347 . S
N276 C277 1.373 . S
C277 C274 1.350 . S
C277 N276 1.373 . S
C277 H298 0.931 . S
H278 C273 0.931 . S
H279 C274 0.930 . S
C280 O287 1.259 . S
C280 O288 1.258 . S
N281 Co272 2.057 . S
N281 C282 1.316 . S
N281 C283 1.375 . S
C282 N281 1.316 . S
C282 N284 1.347 . S
C282 H293 0.931 . S
C283 N281 1.375 . S
C283 C285 1.350 . S
C283 H292 0.930 . S
N284 C282 1.347 . S
N284 C285 1.373 . S
C285 C283 1.350 . S
C285 N284 1.373 . S
C285 H299 0.931 . S
C286 O289 1.256 . S
C286 O290 1.255 . S
O287 Co270 2.021 . S
O287 C280 1.259 . S
O288 Co272 2.117 . S
O288 C280 1.258 . S
O289 Co272 2.020 . S
O289 C286 1.256 . S
O290 Co270 2.062 . S
O290 C286 1.255 . S
O291 C271 1.259 . S
O291 Co272 2.021 . S
H292 C283 0.930 . S
H293 C282 0.931 . S
O294 Co270 2.117 . S
O294 C271 1.258 . S
O295 Co270 2.020 . S
O295 C297 1.256 . S
O296 Co272 2.062 . S
O296 C297 1.255 . S
C297 O295 1.256 . S
C297 O296 1.255 . S
H298 C277 0.931 . S
H299 C285 0.931 . S
Co300 N305 2.057 . S
Co300 O317 2.021 . S
Co300 O320 2.062 . S
Co300 O324 2.117 . S
Co300 O325 2.020 . S
C301 O321 1.259 . S
C301 O324 1.258 . S
Co302 N311 2.057 . S
Co302 O318 2.117 . S
Co302 O319 2.020 . S
Co302 O321 2.021 . S
Co302 O326 2.062 . S
C303 N305 1.316 . S
C303 N306 1.347 . S
C303 H308 0.931 . S
C304 N305 1.375 . S
C304 C307 1.350 . S
C304 H309 0.930 . S
N305 Co300 2.057 . S
N305 C303 1.316 . S
N305 C304 1.375 . S
N306 C303 1.347 . S
N306 C307 1.373 . S
C307 C304 1.350 . S
C307 N306 1.373 . S
C307 H328 0.931 . S
H308 C303 0.931 . S
H309 C304 0.930 . S
C310 O317 1.259 . S
C310 O318 1.258 . S
N311 Co302 2.057 . S
N311 C312 1.316 . S
N311 C313 1.375 . S
C312 N311 1.316 . S
C312 N314 1.347 . S
C312 H323 0.931 . S
C313 N311 1.375 . S
C313 C315 1.350 . S
C313 H322 0.930 . S
N314 C312 1.347 . S
N314 C315 1.373 . S
C315 C313 1.350 . S
C315 N314 1.373 . S
C315 H329 0.931 . S
C316 O319 1.256 . S
C316 O320 1.255 . S
O317 Co300 2.021 . S
O317 C310 1.259 . S
O318 Co302 2.117 . S
O318 C310 1.258 . S
O319 Co302 2.020 . S
O319 C316 1.256 . S
O320 Co300 2.062 . S
O320 C316 1.255 . S
O321 C301 1.259 . S
O321 Co302 2.021 . S
H322 C313 0.930 . S
H323 C312 0.931 . S
O324 Co300 2.117 . S
O324 C301 1.258 . S
O325 Co300 2.020 . S
O325 C327 1.256 . S
O326 Co302 2.062 . S
O326 C327 1.255 . S
C327 O325 1.256 . S
C327 O326 1.255 . S
H328 C307 0.931 . S
H329 C315 0.931 . S
Co330 N335 2.057 . S
Co330 O347 2.021 . S
Co330 O350 2.062 . S
Co330 O354 2.117 . S
Co330 O355 2.020 . S
C331 O351 1.259 . S
C331 O354 1.258 . S
Co332 N341 2.057 . S
Co332 O348 2.117 . S
Co332 O349 2.020 . S
Co332 O351 2.021 . S
Co332 O356 2.062 . S
C333 N335 1.316 . S
C333 N336 1.347 . S
C333 H338 0.931 . S
C334 N335 1.375 . S
C334 C337 1.350 . S
C334 H339 0.930 . S
N335 Co330 2.057 . S
N335 C333 1.316 . S
N335 C334 1.375 . S
N336 C333 1.347 . S
N336 C337 1.373 . S
C337 C334 1.350 . S
C337 N336 1.373 . S
C337 H358 0.931 . S
H338 C333 0.931 . S
H339 C334 0.930 . S
C340 O347 1.259 . S
C340 O348 1.258 . S
N341 Co332 2.057 . S
N341 C342 1.316 . S
N341 C343 1.375 . S
C342 N341 1.316 . S
C342 N344 1.347 . S
C342 H353 0.931 . S
C343 N341 1.375 . S
C343 C345 1.350 . S
C343 H352 0.930 . S
N344 C342 1.347 . S
N344 C345 1.373 . S
C345 C343 1.350 . S
C345 N344 1.373 . S
C345 H359 0.931 . S
C346 O349 1.256 . S
C346 O350 1.255 . S
O347 Co330 2.021 . S
O347 C340 1.259 . S
O348 Co332 2.117 . S
O348 C340 1.258 . S
O349 Co332 2.020 . S
O349 C346 1.256 . S
O350 Co330 2.062 . S
O350 C346 1.255 . S
O351 C331 1.259 . S
O351 Co332 2.021 . S
H352 C343 0.930 . S
H353 C342 0.931 . S
O354 Co330 2.117 . S
O354 C331 1.258 . S
O355 Co330 2.020 . S
O355 C357 1.256 . S
O356 Co332 2.062 . S
O356 C357 1.255 . S
C357 O355 1.256 . S
C357 O356 1.255 . S
H358 C337 0.931 . S
H359 C345 0.931 . S
Co360 N365 2.057 . S
Co360 O377 2.021 . S
Co360 O380 2.062 . S
Co360 O384 2.117 . S
Co360 O385 2.020 . S
C361 O381 1.259 . S
C361 O384 1.258 . S
Co362 N371 2.057 . S
Co362 O378 2.117 . S
Co362 O379 2.020 . S
Co362 O381 2.021 . S
Co362 O386 2.062 . S
C363 N365 1.316 . S
C363 N366 1.347 . S
C363 H368 0.931 . S
C364 N365 1.375 . S
C364 C367 1.350 . S
C364 H369 0.930 . S
N365 Co360 2.057 . S
N365 C363 1.316 . S
N365 C364 1.375 . S
N366 C363 1.347 . S
N366 C367 1.373 . S
C367 C364 1.350 . S
C367 N366 1.373 . S
C367 H388 0.931 . S
H368 C363 0.931 . S
H369 C364 0.930 . S
C370 O377 1.259 . S
C370 O378 1.258 . S
N371 Co362 2.057 . S
N371 C372 1.316 . S
N371 C373 1.375 . S
C372 N371 1.316 . S
C372 N374 1.347 . S
C372 H383 0.931 . S
C373 N371 1.375 . S
C373 C375 1.350 . S
C373 H382 0.930 . S
N374 C372 1.347 . S
N374 C375 1.373 . S
C375 C373 1.350 . S
C375 N374 1.373 . S
C375 H389 0.931 . S
C376 O379 1.256 . S
C376 O380 1.255 . S
O377 Co360 2.021 . S
O377 C370 1.259 . S
O378 Co362 2.117 . S
O378 C370 1.258 . S
O379 Co362 2.020 . S
O379 C376 1.256 . S
O380 Co360 2.062 . S
O380 C376 1.255 . S
O381 C361 1.259 . S
O381 Co362 2.021 . S
H382 C373 0.930 . S
H383 C372 0.931 . S
O384 Co360 2.117 . S
O384 C361 1.258 . S
O385 Co360 2.020 . S
O385 C387 1.256 . S
O386 Co362 2.062 . S
O386 C387 1.255 . S
C387 O385 1.256 . S
C387 O386 1.255 . S
H388 C367 0.931 . S
H389 C375 0.931 . S
Co390 N395 2.057 . S
Co390 O407 2.021 . S
Co390 O410 2.062 . S
Co390 O414 2.117 . S
Co390 O415 2.020 . S
C391 O411 1.259 . S
C391 O414 1.258 . S
Co392 N401 2.057 . S
Co392 O408 2.117 . S
Co392 O409 2.020 . S
Co392 O411 2.021 . S
Co392 O416 2.062 . S
C393 N395 1.316 . S
C393 N396 1.347 . S
C393 H398 0.931 . S
C394 N395 1.375 . S
C394 C397 1.350 . S
C394 H399 0.930 . S
N395 Co390 2.057 . S
N395 C393 1.316 . S
N395 C394 1.375 . S
N396 C393 1.347 . S
N396 C397 1.373 . S
C397 C394 1.350 . S
C397 N396 1.373 . S
C397 H418 0.931 . S
H398 C393 0.931 . S
H399 C394 0.930 . S
C400 O407 1.259 . S
C400 O408 1.258 . S
N401 Co392 2.057 . S
N401 C402 1.316 . S
N401 C403 1.375 . S
C402 N401 1.316 . S
C402 N404 1.347 . S
C402 H413 0.931 . S
C403 N401 1.375 . S
C403 C405 1.350 . S
C403 H412 0.930 . S
N404 C402 1.347 . S
N404 C405 1.373 . S
C405 C403 1.350 . S
C405 N404 1.373 . S
C405 H419 0.931 . S
C406 O409 1.256 . S
C406 O410 1.255 . S
O407 Co390 2.021 . S
O407 C400 1.259 . S
O408 Co392 2.117 . S
O408 C400 1.258 . S
O409 Co392 2.020 . S
O409 C406 1.256 . S
O410 Co390 2.062 . S
O410 C406 1.255 . S
O411 C391 1.259 . S
O411 Co392 2.021 . S
H412 C403 0.930 . S
H413 C402 0.931 . S
O414 Co390 2.117 . S
O414 C391 1.258 . S
O415 Co390 2.020 . S
O415 C417 1.256 . S
O416 Co392 2.062 . S
O416 C417 1.255 . S
C417 O415 1.256 . S
C417 O416 1.255 . S
H418 C397 0.931 . S
H419 C405 0.931 . S
Co420 N425 2.057 . S
Co420 O437 2.021 . S
Co420 O440 2.062 . S
Co420 O444 2.117 . S
Co420 O445 2.020 . S
C421 O441 1.259 . S
C421 O444 1.258 . S
Co422 N431 2.057 . S
Co422 O438 2.117 . S
Co422 O439 2.020 . S
Co422 O441 2.021 . S
Co422 O446 2.062 . S
C423 N425 1.316 . S
C423 N426 1.347 . S
C423 H428 0.931 . S
C424 N425 1.375 . S
C424 C427 1.350 . S
C424 H429 0.930 . S
N425 Co420 2.057 . S
N425 C423 1.316 . S
N425 C424 1.375 . S
N426 C423 1.347 . S
N426 C427 1.373 . S
C427 C424 1.350 . S
C427 N426 1.373 . S
C427 H448 0.931 . S
H428 C423 0.931 . S
H429 C424 0.930 . S
C430 O437 1.259 . S
C430 O438 1.258 . S
N431 Co422 2.057 . S
N431 C432 1.316 . S
N431 C433 1.375 . S
C432 N431 1.316 . S
C432 N434 1.347 . S
C432 H443 0.931 . S
C433 N431 1.375 . S
C433 C435 1.350 . S
C433 H442 0.930 . S
N434 C432 1.347 . S
N434 C435 1.373 . S
C435 C433 1.350 . S
C435 N434 1.373 . S
C435 H449 0.931 . S
C436 O439 1.256 . S
C436 O440 1.255 . S
O437 Co420 2.021 . S
O437 C430 1.259 . S
O438 Co422 2.117 . S
O438 C430 1.258 . S
O439 Co422 2.020 . S
O439 C436 1.256 . S
O440 Co420 2.062 . S
O440 C436 1.255 . S
O441 C421 1.259 . S
O441 Co422 2.021 . S
H442 C433 0.930 . S
H443 C432 0.931 . S
O444 Co420 2.117 . S
O444 C421 1.258 . S
O445 Co420 2.020 . S
O445 C447 1.256 . S
O446 Co422 2.062 . S
O446 C447 1.255 . S
C447 O445 1.256 . S
C447 O446 1.255 . S
H448 C427 0.931 . S
H449 C435 0.931 . S
Co450 N455 2.057 . S
Co450 O467 2.021 . S
Co450 O470 2.062 . S
Co450 O474 2.117 . S
Co450 O475 2.020 . S
C451 O471 1.259 . S
C451 O474 1.258 . S
Co452 N461 2.057 . S
Co452 O468 2.117 . S
Co452 O469 2.020 . S
Co452 O471 2.021 . S
Co452 O476 2.062 . S
C453 N455 1.316 . S
C453 N456 1.347 . S
C453 H458 0.931 . S
C454 N455 1.375 . S
C454 C457 1.350 . S
C454 H459 0.930 . S
N455 Co450 2.057 . S
N455 C453 1.316 . S
N455 C454 1.375 . S
N456 C453 1.347 . S
N456 C457 1.373 . S
C457 C454 1.350 . S
C457 N456 1.373 . S
C457 H478 0.931 . S
H458 C453 0.931 . S
H459 C454 0.930 . S
C460 O467 1.259 . S
C460 O468 1.258 . S
N461 Co452 2.057 . S
N461 C462 1.316 . S
N461 C463 1.375 . S
C462 N461 1.316 . S
C462 N464 1.347 . S
C462 H473 0.931 . S
C463 N461 1.375 . S
C463 C465 1.350 . S
C463 H472 0.930 . S
N464 C462 1.347 . S
N464 C465 1.373 . S
C465 C463 1.350 . S
C465 N464 1.373 . S
C465 H479 0.931 . S
C466 O469 1.256 . S
C466 O470 1.255 . S
O467 Co450 2.021 . S
O467 C460 1.259 . S
O468 Co452 2.117 . S
O468 C460 1.258 . S
O469 Co452 2.020 . S
O469 C466 1.256 . S
O470 Co450 2.062 . S
O470 C466 1.255 . S
O471 C451 1.259 . S
O471 Co452 2.021 . S
H472 C463 0.930 . S
H473 C462 0.931 . S
O474 Co450 2.117 . S
O474 C451 1.258 . S
O475 Co450 2.020 . S
O475 C477 1.256 . S
O476 Co452 2.062 . S
O476 C477 1.255 . S
C477 O475 1.256 . S
C477 O476 1.255 . S
H478 C457 0.931 . S
H479 C465 0.931 . S
Co480 N485 2.057 . S
Co480 O497 2.021 . S
Co480 O500 2.062 . S
Co480 O504 2.117 . S
Co480 O505 2.020 . S
C481 O501 1.259 . S
C481 O504 1.258 . S
Co482 N491 2.057 . S
Co482 O498 2.117 . S
Co482 O499 2.020 . S
Co482 O501 2.021 . S
Co482 O506 2.062 . S
C483 N485 1.316 . S
C483 N486 1.347 . S
C483 H488 0.931 . S
C484 N485 1.375 . S
C484 C487 1.350 . S
C484 H489 0.930 . S
N485 Co480 2.057 . S
N485 C483 1.316 . S
N485 C484 1.375 . S
N486 C483 1.347 . S
N486 C487 1.373 . S
C487 C484 1.350 . S
C487 N486 1.373 . S
C487 H508 0.931 . S
H488 C483 0.931 . S
H489 C484 0.930 . S
C490 O497 1.259 . S
C490 O498 1.258 . S
N491 Co482 2.057 . S
N491 C492 1.316 . S
N491 C493 1.375 . S
C492 N491 1.316 . S
C492 N494 1.347 . S
C492 H503 0.931 . S
C493 N491 1.375 . S
C493 C495 1.350 . S
C493 H502 0.930 . S
N494 C492 1.347 . S
N494 C495 1.373 . S
C495 C493 1.350 . S
C495 N494 1.373 . S
C495 H509 0.931 . S
C496 O499 1.256 . S
C496 O500 1.255 . S
O497 Co480 2.021 . S
O497 C490 1.259 . S
O498 Co482 2.117 . S
O498 C490 1.258 . S
O499 Co482 2.020 . S
O499 C496 1.256 . S
O500 Co480 2.062 . S
O500 C496 1.255 . S
O501 C481 1.259 . S
O501 Co482 2.021 . S
H502 C493 0.930 . S
H503 C492 0.931 . S
O504 Co480 2.117 . S
O504 C481 1.258 . S
O505 Co480 2.020 . S
O505 C507 1.256 . S
O506 Co482 2.062 . S
O506 C507 1.255 . S
C507 O505 1.256 . S
C507 O506 1.255 . S
H508 C487 0.931 . S
H509 C495 0.931 . S
Co510 N515 2.057 . S
Co510 O527 2.021 . S
Co510 O530 2.062 . S
Co510 O534 2.117 . S
Co510 O535 2.020 . S
C511 O531 1.259 . S
C511 O534 1.258 . S
Co512 N521 2.057 . S
Co512 O528 2.117 . S
Co512 O529 2.020 . S
Co512 O531 2.021 . S
Co512 O536 2.062 . S
C513 N515 1.316 . S
C513 N516 1.347 . S
C513 H518 0.931 . S
C514 N515 1.375 . S
C514 C517 1.350 . S
C514 H519 0.930 . S
N515 Co510 2.057 . S
N515 C513 1.316 . S
N515 C514 1.375 . S
N516 C513 1.347 . S
N516 C517 1.373 . S
C517 C514 1.350 . S
C517 N516 1.373 . S
C517 H538 0.931 . S
H518 C513 0.931 . S
H519 C514 0.930 . S
C520 O527 1.259 . S
C520 O528 1.258 . S
N521 Co512 2.057 . S
N521 C522 1.316 . S
N521 C523 1.375 . S
C522 N521 1.316 . S
C522 N524 1.347 . S
C522 H533 0.931 . S
C523 N521 1.375 . S
C523 C525 1.350 . S
C523 H532 0.930 . S
N524 C522 1.347 . S
N524 C525 1.373 . S
C525 C523 1.350 . S
C525 N524 1.373 . S
C525 H539 0.931 . S
C526 O529 1.256 . S
C526 O530 1.255 . S
O527 Co510 2.021 . S
O527 C520 1.259 . S
O528 Co512 2.117 . S
O528 C520 1.258 . S
O529 Co512 2.020 . S
O529 C526 1.256 . S
O530 Co510 2.062 . S
O530 C526 1.255 . S
O531 C511 1.259 . S
O531 Co512 2.021 . S
H532 C523 0.930 . S
H533 C522 0.931 . S
O534 Co510 2.117 . S
O534 C511 1.258 . S
O535 Co510 2.020 . S
O535 C537 1.256 . S
O536 Co512 2.062 . S
O536 C537 1.255 . S
C537 O535 1.256 . S
C537 O536 1.255 . S
H538 C517 0.931 . S
H539 C525 0.931 . S
C540 C541 1.349 . S
C540 C542 1.327 . S
C540 H565 0.950 . S
C541 C540 1.349 . S
C541 C557 1.349 1_556 S
C542 C540 1.327 . S
C542 C561 1.429 . S
C542 H566 0.950 . S
C543 C560 1.574 . S
C543 C562 1.368 1_554 S
C543 H567 0.949 . S
H544 C548 0.949 . S
C545 C546 1.349 . S
C545 C547 1.327 . S
C545 H568 0.950 . S
C546 C545 1.349 . S
C546 C558 1.349 1_554 S
C547 C545 1.327 . S
C547 C563 1.429 . S
C547 H569 0.950 . S
C548 H544 0.949 . S
C548 C556 1.574 . S
C548 C564 1.368 1_556 S
H549 C557 0.950 . S
H550 C555 0.950 . S
H551 C556 0.949 . S
H552 C558 0.950 . S
H553 C559 0.950 . S
H554 C560 0.949 . S
C555 H550 0.950 . S
C555 C557 1.327 . S
C555 C561 1.429 1_554 S
C556 C548 1.574 . S
C556 H551 0.949 . S
C556 C562 1.368 . S
C557 C541 1.349 1_554 S
C557 H549 0.950 . S
C557 C555 1.327 . S
C558 C546 1.349 1_556 S
C558 H552 0.950 . S
C558 C559 1.327 . S
C559 H553 0.950 . S
C559 C558 1.327 . S
C559 C563 1.429 1_556 S
C560 C543 1.574 . S
C560 H554 0.949 . S
C560 C564 1.368 . S
C561 C542 1.429 . S
C561 C555 1.429 1_556 S
C561 C562 1.523 . S
C562 C543 1.368 1_556 S
C562 C556 1.368 . S
C562 C561 1.523 . S
C563 C547 1.429 . S
C563 C559 1.429 1_554 S
C563 C564 1.523 . S
C564 C548 1.368 1_554 S
C564 C560 1.368 . S
C564 C563 1.523 . S
H565 C540 0.950 . S
H566 C542 0.950 . S
H567 C543 0.949 . S
H568 C545 0.950 . S
H569 C547 0.950 . S
C570 C571 1.349 1_556 S
C570 C572 1.327 . S
C570 H595 0.950 . S
C571 C570 1.349 1_554 S
C571 C587 1.349 . S
C572 C570 1.327 . S
C572 C591 1.429 1_556 S
C572 H596 0.950 . S
C573 C590 1.574 . S
C573 C592 1.368 . S
C573 H597 0.949 . S
H574 C578 0.949 . S
C575 C576 1.349 1_554 S
C575 C577 1.327 . S
C575 H598 0.950 . S
C576 C575 1.349 1_556 S
C576 C588 1.349 . S
C577 C575 1.327 . S
C577 C593 1.429 1_554 S
C577 H599 0.950 . S
C578 H574 0.949 . S
C578 C586 1.574 . S
C578 C594 1.368 . S
H579 C587 0.950 . S
H580 C585 0.950 . S
H581 C586 0.949 . S
H582 C588 0.950 . S
H583 C589 0.950 . S
H584 C590 0.949 . S
C585 H580 0.950 . S
C585 C587 1.327 . S
C585 C591 1.429 . S
C586 C578 1.574 . S
C586 H581 0.949 . S
C586 C592 1.368 1_556 S
C587 C571 1.349 . S
C587 H579 0.950 . S
C587 C585 1.327 . S
C588 C576 1.349 . S
C588 H582 0.950 . S
C588 C589 1.327 . S
C589 H583 0.950 . S
C589 C588 1.327 . S
C589 C593 1.429 . S
C590 C573 1.574 . S
C590 H584 0.949 . S
C590 C594 1.368 1_554 S
C591 C572 1.429 1_554 S
C591 C585 1.429 . S
C591 C592 1.523 . S
C592 C573 1.368 . S
C592 C586 1.368 1_554 S
C592 C591 1.523 . S
C593 C577 1.429 1_556 S
C593 C589 1.429 . S
C593 C594 1.523 . S
C594 C578 1.368 . S
C594 C590 1.368 1_556 S
C594 C593 1.523 . S
H595 C570 0.950 . S
H596 C572 0.950 . S
H597 C573 0.949 . S
H598 C575 0.950 . S
H599 C577 0.950 . S
C600 C601 1.349 1_554 S
C600 C602 1.327 . S
C600 H625 0.950 . S
C601 C600 1.349 1_556 S
C601 C617 1.349 . S
C602 C600 1.327 . S
C602 C621 1.429 1_554 S
C602 H626 0.950 . S
C603 C620 1.574 . S
C603 C622 1.368 . S
C603 H627 0.949 . S
H604 C608 0.949 . S
C605 C606 1.349 1_556 S
C605 C607 1.327 . S
C605 H628 0.950 . S
C606 C605 1.349 1_554 S
C606 C618 1.349 . S
C607 C605 1.327 . S
C607 C623 1.429 1_556 S
C607 H629 0.950 . S
C608 H604 0.949 . S
C608 C616 1.574 . S
C608 C624 1.368 . S
H609 C617 0.950 . S
H610 C615 0.950 . S
H611 C616 0.949 . S
H612 C618 0.950 . S
H613 C619 0.950 . S
H614 C620 0.949 . S
C615 H610 0.950 . S
C615 C617 1.327 . S
C615 C621 1.429 . S
C616 C608 1.574 . S
C616 H611 0.949 . S
C616 C622 1.368 1_554 S
C617 C601 1.349 . S
C617 H609 0.950 . S
C617 C615 1.327 . S
C618 C606 1.349 . S
C618 H612 0.950 . S
C618 C619 1.327 . S
C619 H613 0.950 . S
C619 C618 1.327 . S
C619 C623 1.429 . S
C620 C603 1.574 . S
C620 H614 0.949 . S
C620 C624 1.368 1_556 S
C621 C602 1.429 1_556 S
C621 C615 1.429 . S
C621 C622 1.523 . S
C622 C603 1.368 . S
C622 C616 1.368 1_556 S
C622 C621 1.523 . S
C623 C607 1.429 1_554 S
C623 C619 1.429 . S
C623 C624 1.523 . S
C624 C608 1.368 . S
C624 C620 1.368 1_554 S
C624 C623 1.523 . S
H625 C600 0.950 . S
H626 C602 0.950 . S
H627 C603 0.949 . S
H628 C605 0.950 . S
H629 C607 0.950 . S
C630 C631 1.349 . S
C630 C632 1.327 . S
C630 H655 0.950 . S
C631 C630 1.349 . S
C631 C647 1.349 . S
C632 C630 1.327 . S
C632 C651 1.429 . S
C632 H656 0.950 . S
C633 C650 1.574 . S
C633 C652 1.368 . S
C633 H657 0.949 . S
H634 C638 0.949 . S
C635 C636 1.349 . S
C635 C637 1.327 . S
C635 H658 0.950 . S
C636 C635 1.349 . S
C636 C648 1.349 . S
C637 C635 1.327 . S
C637 C653 1.429 . S
C637 H659 0.950 . S
C638 H634 0.949 . S
C638 C646 1.574 . S
C638 C654 1.368 . S
H639 C647 0.950 . S
H640 C645 0.950 . S
H641 C646 0.949 . S
H642 C648 0.950 . S
H643 C649 0.950 . S
H644 C650 0.949 . S
C645 H640 0.950 . S
C645 C647 1.327 . S
C645 C651 1.429 . S
C646 C638 1.574 . S
C646 H641 0.949 . S
C646 C652 1.368 . S
C647 C631 1.349 . S
C647 H639 0.950 . S
C647 C645 1.327 . S
C648 C636 1.349 . S
C648 H642 0.950 . S
C648 C649 1.327 . S
C649 H643 0.950 . S
C649 C648 1.327 . S
C649 C653 1.429 . S
C650 C633 1.574 . S
C650 H644 0.949 . S
C650 C654 1.368 . S
C651 C632 1.429 . S
C651 C645 1.429 . S
C651 C652 1.523 . S
C652 C633 1.368 . S
C652 C646 1.368 . S
C652 C651 1.523 . S
C653 C637 1.429 . S
C653 C649 1.429 . S
C653 C654 1.523 . S
C654 C638 1.368 . S
C654 C650 1.368 . S
C654 C653 1.523 . S
H655 C630 0.950 . S
H656 C632 0.950 . S
H657 C633 0.949 . S
H658 C635 0.950 . S
H659 C637 0.950 . S
C660 C661 1.349 . S
C660 C662 1.327 . S
C660 H685 0.950 . S
C661 C660 1.349 . S
C661 C677 1.349 . S
C662 C660 1.327 . S
C662 C681 1.429 . S
C662 H686 0.950 . S
C663 C680 1.574 . S
C663 C682 1.368 . S
C663 H687 0.949 . S
H664 C668 0.949 . S
C665 C666 1.349 . S
C665 C667 1.327 . S
C665 H688 0.950 . S
C666 C665 1.349 . S
C666 C678 1.349 . S
C667 C665 1.327 . S
C667 C683 1.429 . S
C667 H689 0.950 . S
C668 H664 0.949 . S
C668 C676 1.574 . S
C668 C684 1.368 . S
H669 C677 0.950 . S
H670 C675 0.950 . S
H671 C676 0.949 . S
H672 C678 0.950 . S
H673 C679 0.950 . S
H674 C680 0.949 . S
C675 H670 0.950 . S
C675 C677 1.327 . S
C675 C681 1.429 . S
C676 C668 1.574 . S
C676 H671 0.949 . S
C676 C682 1.368 . S
C677 C661 1.349 . S
C677 H669 0.950 . S
C677 C675 1.327 . S
C678 C666 1.349 . S
C678 H672 0.950 . S
C678 C679 1.327 . S
C679 H673 0.950 . S
C679 C678 1.327 . S
C679 C683 1.429 . S
C680 C663 1.574 . S
C680 H674 0.949 . S
C680 C684 1.368 . S
C681 C662 1.429 . S
C681 C675 1.429 . S
C681 C682 1.523 . S
C682 C663 1.368 . S
C682 C676 1.368 . S
C682 C681 1.523 . S
C683 C667 1.429 . S
C683 C679 1.429 . S
C683 C684 1.523 . S
C684 C668 1.368 . S
C684 C680 1.368 . S
C684 C683 1.523 . S
H685 C660 0.950 . S
H686 C662 0.950 . S
H687 C663 0.949 . S
H688 C665 0.950 . S
H689 C667 0.950 . S
C690 C691 1.349 . S
C690 C692 1.327 . S
C690 H715 0.950 . S
C691 C690 1.349 . S
C691 C707 1.349 . S
C692 C690 1.327 . S
C692 C711 1.429 . S
C692 H716 0.950 . S
C693 C710 1.574 . S
C693 C712 1.368 . S
C693 H717 0.949 . S
H694 C698 0.949 . S
C695 C696 1.349 . S
C695 C697 1.327 . S
C695 H718 0.950 . S
C696 C695 1.349 . S
C696 C708 1.349 . S
C697 C695 1.327 . S
C697 C713 1.429 . S
C697 H719 0.950 . S
C698 H694 0.949 . S
C698 C706 1.574 . S
C698 C714 1.368 . S
H699 C707 0.950 . S
H700 C705 0.950 . S
H701 C706 0.949 . S
H702 C708 0.950 . S
H703 C709 0.950 . S
H704 C710 0.949 . S
C705 H700 0.950 . S
C705 C707 1.327 . S
C705 C711 1.429 . S
C706 C698 1.574 . S
C706 H701 0.949 . S
C706 C712 1.368 . S
C707 C691 1.349 . S
C707 H699 0.950 . S
C707 C705 1.327 . S
C708 C696 1.349 . S
C708 H702 0.950 . S
C708 C709 1.327 . S
C709 H703 0.950 . S
C709 C708 1.327 . S
C709 C713 1.429 . S
C710 C693 1.574 . S
C710 H704 0.949 . S
C710 C714 1.368 . S
C711 C692 1.429 . S
C711 C705 1.429 . S
C711 C712 1.523 . S
C712 C693 1.368 . S
C712 C706 1.368 . S
C712 C711 1.523 . S
C713 C697 1.429 . S
C713 C709 1.429 . S
C713 C714 1.523 . S
C714 C698 1.368 . S
C714 C710 1.368 . S
C714 C713 1.523 . S
H715 C690 0.950 . S
H716 C692 0.950 . S
H717 C693 0.949 . S
H718 C695 0.950 . S
H719 C697 0.950 . S
C720 C721 1.349 . S
C720 C722 1.327 . S
C720 H745 0.950 . S
C721 C720 1.349 . S
C721 C737 1.349 . S
C722 C720 1.327 . S
C722 C741 1.429 . S
C722 H746 0.950 . S
C723 C740 1.574 . S
C723 C742 1.368 . S
C723 H747 0.949 . S
H724 C728 0.949 . S
C725 C726 1.349 . S
C725 C727 1.327 . S
C725 H748 0.950 . S
C726 C725 1.349 . S
C726 C738 1.349 . S
C727 C725 1.327 . S
C727 C743 1.429 . S
C727 H749 0.950 . S
C728 H724 0.949 . S
C728 C736 1.574 . S
C728 C744 1.368 . S
H729 C737 0.950 . S
H730 C735 0.950 . S
H731 C736 0.949 . S
H732 C738 0.950 . S
H733 C739 0.950 . S
H734 C740 0.949 . S
C735 H730 0.950 . S
C735 C737 1.327 . S
C735 C741 1.429 . S
C736 C728 1.574 . S
C736 H731 0.949 . S
C736 C742 1.368 . S
C737 C721 1.349 . S
C737 H729 0.950 . S
C737 C735 1.327 . S
C738 C726 1.349 . S
C738 H732 0.950 . S
C738 C739 1.327 . S
C739 H733 0.950 . S
C739 C738 1.327 . S
C739 C743 1.429 . S
C740 C723 1.574 . S
C740 H734 0.949 . S
C740 C744 1.368 . S
C741 C722 1.429 . S
C741 C735 1.429 . S
C741 C742 1.523 . S
C742 C723 1.368 . S
C742 C736 1.368 . S
C742 C741 1.523 . S
C743 C727 1.429 . S
C743 C739 1.429 . S
C743 C744 1.523 . S
C744 C728 1.368 . S
C744 C740 1.368 . S
C744 C743 1.523 . S
H745 C720 0.950 . S
H746 C722 0.950 . S
H747 C723 0.949 . S
H748 C725 0.950 . S
H749 C727 0.950 . S
C750 C751 1.349 . S
C750 C752 1.327 . S
C750 H775 0.950 . S
C751 C750 1.349 . S
C751 C767 1.349 . S
C752 C750 1.327 . S
C752 C771 1.429 . S
C752 H776 0.950 . S
C753 C770 1.574 . S
C753 C772 1.368 . S
C753 H777 0.949 . S
H754 C758 0.949 . S
C755 C756 1.349 . S
C755 C757 1.327 . S
C755 H778 0.950 . S
C756 C755 1.349 . S
C756 C768 1.349 . S
C757 C755 1.327 . S
C757 C773 1.429 . S
C757 H779 0.950 . S
C758 H754 0.949 . S
C758 C766 1.574 . S
C758 C774 1.368 . S
H759 C767 0.950 . S
H760 C765 0.950 . S
H761 C766 0.949 . S
H762 C768 0.950 . S
H763 C769 0.950 . S
H764 C770 0.949 . S
C765 H760 0.950 . S
C765 C767 1.327 . S
C765 C771 1.429 . S
C766 C758 1.574 . S
C766 H761 0.949 . S
C766 C772 1.368 . S
C767 C751 1.349 . S
C767 H759 0.950 . S
C767 C765 1.327 . S
C768 C756 1.349 . S
C768 H762 0.950 . S
C768 C769 1.327 . S
C769 H763 0.950 . S
C769 C768 1.327 . S
C769 C773 1.429 . S
C770 C753 1.574 . S
C770 H764 0.949 . S
C770 C774 1.368 . S
C771 C752 1.429 . S
C771 C765 1.429 . S
C771 C772 1.523 . S
C772 C753 1.368 . S
C772 C766 1.368 . S
C772 C771 1.523 . S
C773 C757 1.429 . S
C773 C769 1.429 . S
C773 C774 1.523 . S
C774 C758 1.368 . S
C774 C770 1.368 . S
C774 C773 1.523 . S
H775 C750 0.950 . S
H776 C752 0.950 . S
H777 C753 0.949 . S
H778 C755 0.950 . S
H779 C757 0.950 . S
C780 C781 1.349 . S
C780 C782 1.327 . S
C780 H805 0.950 . S
C781 C780 1.349 . S
C781 C797 1.349 . S
C782 C780 1.327 . S
C782 C801 1.429 . S
C782 H806 0.950 . S
C783 C800 1.574 . S
C783 C802 1.368 . S
C783 H807 0.949 . S
H784 C788 0.949 . S
C785 C786 1.349 . S
C785 C787 1.327 . S
C785 H808 0.950 . S
C786 C785 1.349 . S
C786 C798 1.349 . S
C787 C785 1.327 . S
C787 C803 1.429 . S
C787 H809 0.950 . S
C788 H784 0.949 . S
C788 C796 1.574 . S
C788 C804 1.368 . S
H789 C797 0.950 . S
H790 C795 0.950 . S
H791 C796 0.949 . S
H792 C798 0.950 . S
H793 C799 0.950 . S
H794 C800 0.949 . S
C795 H790 0.950 . S
C795 C797 1.327 . S
C795 C801 1.429 . S
C796 C788 1.574 . S
C796 H791 0.949 . S
C796 C802 1.368 . S
C797 C781 1.349 . S
C797 H789 0.950 . S
C797 C795 1.327 . S
C798 C786 1.349 . S
C798 H792 0.950 . S
C798 C799 1.327 . S
C799 H793 0.950 . S
C799 C798 1.327 . S
C799 C803 1.429 . S
C800 C783 1.574 . S
C800 H794 0.949 . S
C800 C804 1.368 . S
C801 C782 1.429 . S
C801 C795 1.429 . S
C801 C802 1.523 . S
C802 C783 1.368 . S
C802 C796 1.368 . S
C802 C801 1.523 . S
C803 C787 1.429 . S
C803 C799 1.429 . S
C803 C804 1.523 . S
C804 C788 1.368 . S
C804 C800 1.368 . S
C804 C803 1.523 . S
H805 C780 0.950 . S
H806 C782 0.950 . S
H807 C783 0.949 . S
H808 C785 0.950 . S
H809 C787 0.950 . S
C810 C811 1.349 . S
C810 C812 1.327 . S
C810 H835 0.950 . S
C811 C810 1.349 . S
C811 C827 1.349 . S
C812 C810 1.327 . S
C812 C831 1.429 . S
C812 H836 0.950 . S
C813 C830 1.574 . S
C813 C832 1.368 . S
C813 H837 0.949 . S
H814 C818 0.949 . S
C815 C816 1.349 . S
C815 C817 1.327 . S
C815 H838 0.950 . S
C816 C815 1.349 . S
C816 C828 1.349 . S
C817 C815 1.327 . S
C817 C833 1.429 . S
C817 H839 0.950 . S
C818 H814 0.949 . S
C818 C826 1.574 . S
C818 C834 1.368 . S
H819 C827 0.950 . S
H820 C825 0.950 . S
H821 C826 0.949 . S
H822 C828 0.950 . S
H823 C829 0.950 . S
H824 C830 0.949 . S
C825 H820 0.950 . S
C825 C827 1.327 . S
C825 C831 1.429 . S
C826 C818 1.574 . S
C826 H821 0.949 . S
C826 C832 1.368 . S
C827 C811 1.349 . S
C827 H819 0.950 . S
C827 C825 1.327 . S
C828 C816 1.349 . S
C828 H822 0.950 . S
C828 C829 1.327 . S
C829 H823 0.950 . S
C829 C828 1.327 . S
C829 C833 1.429 . S
C830 C813 1.574 . S
C830 H824 0.949 . S
C830 C834 1.368 . S
C831 C812 1.429 . S
C831 C825 1.429 . S
C831 C832 1.523 . S
C832 C813 1.368 . S
C832 C826 1.368 . S
C832 C831 1.523 . S
C833 C817 1.429 . S
C833 C829 1.429 . S
C833 C834 1.523 . S
C834 C818 1.368 . S
C834 C830 1.368 . S
C834 C833 1.523 . S
H835 C810 0.950 . S
H836 C812 0.950 . S
H837 C813 0.949 . S
H838 C815 0.950 . S
H839 C817 0.950 . S
C840 C841 1.349 . S
C840 C842 1.327 . S
C840 H865 0.950 . S
C841 C840 1.349 . S
C841 C857 1.349 . S
C842 C840 1.327 . S
C842 C861 1.429 . S
C842 H866 0.950 . S
C843 C860 1.574 . S
C843 C862 1.368 . S
C843 H867 0.949 . S
H844 C848 0.949 . S
C845 C846 1.349 . S
C845 C847 1.327 . S
C845 H868 0.950 . S
C846 C845 1.349 . S
C846 C858 1.349 . S
C847 C845 1.327 . S
C847 C863 1.429 . S
C847 H869 0.950 . S
C848 H844 0.949 . S
C848 C856 1.574 . S
C848 C864 1.368 . S
H849 C857 0.950 . S
H850 C855 0.950 . S
H851 C856 0.949 . S
H852 C858 0.950 . S
H853 C859 0.950 . S
H854 C860 0.949 . S
C855 H850 0.950 . S
C855 C857 1.327 . S
C855 C861 1.429 . S
C856 C848 1.574 . S
C856 H851 0.949 . S
C856 C862 1.368 . S
C857 C841 1.349 . S
C857 H849 0.950 . S
C857 C855 1.327 . S
C858 C846 1.349 . S
C858 H852 0.950 . S
C858 C859 1.327 . S
C859 H853 0.950 . S
C859 C858 1.327 . S
C859 C863 1.429 . S
C860 C843 1.574 . S
C860 H854 0.949 . S
C860 C864 1.368 . S
C861 C842 1.429 . S
C861 C855 1.429 . S
C861 C862 1.523 . S
C862 C843 1.368 . S
C862 C856 1.368 . S
C862 C861 1.523 . S
C863 C847 1.429 . S
C863 C859 1.429 . S
C863 C864 1.523 . S
C864 C848 1.368 . S
C864 C860 1.368 . S
C864 C863 1.523 . S
H865 C840 0.950 . S
H866 C842 0.950 . S
H867 C843 0.949 . S
H868 C845 0.950 . S
H869 C847 0.950 . S
C870 C871 1.349 . S
C870 C872 1.327 . S
C870 H895 0.950 . S
C871 C870 1.349 . S
C871 C887 1.349 . S
C872 C870 1.327 . S
C872 C891 1.429 . S
C872 H896 0.950 . S
C873 C890 1.574 . S
C873 C892 1.368 . S
C873 H897 0.949 . S
H874 C878 0.949 . S
C875 C876 1.349 . S
C875 C877 1.327 . S
C875 H898 0.950 . S
C876 C875 1.349 . S
C876 C888 1.349 . S
C877 C875 1.327 . S
C877 C893 1.429 . S
C877 H899 0.950 . S
C878 H874 0.949 . S
C878 C886 1.574 . S
C878 C894 1.368 . S
H879 C887 0.950 . S
H880 C885 0.950 . S
H881 C886 0.949 . S
H882 C888 0.950 . S
H883 C889 0.950 . S
H884 C890 0.949 . S
C885 H880 0.950 . S
C885 C887 1.327 . S
C885 C891 1.429 . S
C886 C878 1.574 . S
C886 H881 0.949 . S
C886 C892 1.368 . S
C887 C871 1.349 . S
C887 H879 0.950 . S
C887 C885 1.327 . S
C888 C876 1.349 . S
C888 H882 0.950 . S
C888 C889 1.327 . S
C889 H883 0.950 . S
C889 C888 1.327 . S
C889 C893 1.429 . S
C890 C873 1.574 . S
C890 H884 0.949 . S
C890 C894 1.368 . S
C891 C872 1.429 . S
C891 C885 1.429 . S
C891 C892 1.523 . S
C892 C873 1.368 . S
C892 C886 1.368 . S
C892 C891 1.523 . S
C893 C877 1.429 . S
C893 C889 1.429 . S
C893 C894 1.523 . S
C894 C878 1.368 . S
C894 C890 1.368 . S
C894 C893 1.523 . S
H895 C870 0.950 . S
H896 C872 0.950 . S
H897 C873 0.949 . S
H898 C875 0.950 . S
H899 C877 0.950 . S
C900 C901 1.349 . S
C900 C902 1.327 1_545 S
C900 H925 0.950 . S
C901 C900 1.349 . S
C901 C917 1.349 . S
C902 C900 1.327 1_565 S
C902 C921 1.429 . S
C902 H926 0.950 . S
C903 C920 1.574 . S
C903 C922 1.368 . S
C903 H927 0.949 . S
H904 C908 0.949 . S
C905 C906 1.349 . S
C905 C907 1.327 . S
C905 H928 0.950 . S
C906 C905 1.349 . S
C906 C918 1.349 . S
C907 C905 1.327 . S
C907 C923 1.429 . S
C907 H929 0.950 . S
C908 H904 0.949 . S
C908 C916 1.574 . S
C908 C924 1.368 . S
H909 C917 0.950 . S
H910 C915 0.950 . S
H911 C916 0.949 . S
H912 C918 0.950 . S
H913 C919 0.950 . S
H914 C920 0.949 . S
C915 H910 0.950 . S
C915 C917 1.327 1_565 S
C915 C921 1.429 . S
C916 C908 1.574 . S
C916 H911 0.949 . S
C916 C922 1.368 . S
C917 C901 1.349 . S
C917 H909 0.950 . S
C917 C915 1.327 1_545 S
C918 C906 1.349 . S
C918 H912 0.950 . S
C918 C919 1.327 . S
C919 H913 0.950 . S
C919 C918 1.327 . S
C919 C923 1.429 . S
C920 C903 1.574 . S
C920 H914 0.949 . S
C920 C924 1.368 . S
C921 C902 1.429 . S
C921 C915 1.429 . S
C921 C922 1.523 . S
C922 C903 1.368 . S
C922 C916 1.368 . S
C922 C921 1.523 . S
C923 C907 1.429 . S
C923 C919 1.429 . S
C923 C924 1.523 . S
C924 C908 1.368 . S
C924 C920 1.368 . S
C924 C923 1.523 . S
H925 C900 0.950 . S
H926 C902 0.950 . S
H927 C903 0.949 . S
H928 C905 0.950 . S
H929 C907 0.950 . S
C930 C931 1.349 . S
C930 C932 1.327 1_545 S
C930 H955 0.950 . S
C931 C930 1.349 . S
C931 C947 1.349 . S
C932 C930 1.327 1_565 S
C932 C951 1.429 . S
C932 H956 0.950 . S
C933 C950 1.574 . S
C933 C952 1.368 . S
C933 H957 0.949 . S
H934 C938 0.949 . S
C935 C936 1.349 . S
C935 C937 1.327 1_655 S
C935 H958 0.950 . S
C936 C935 1.349 . S
C936 C948 1.349 . S
C937 C935 1.327 1_455 S
C937 C953 1.429 . S
C937 H959 0.950 . S
C938 H934 0.949 . S
C938 C946 1.574 . S
C938 C954 1.368 . S
H939 C947 0.950 . S
H940 C945 0.950 . S
H941 C946 0.949 . S
H942 C948 0.950 . S
H943 C949 0.950 . S
H944 C950 0.949 . S
C945 H940 0.950 . S
C945 C947 1.327 1_565 S
C945 C951 1.429 . S
C946 C938 1.574 . S
C946 H941 0.949 . S
C946 C952 1.368 . S
C947 C931 1.349 . S
C947 H939 0.950 . S
C947 C945 1.327 1_545 S
C948 C936 1.349 . S
C948 H942 0.950 . S
C948 C949 1.327 1_655 S
C949 H943 0.950 . S
C949 C948 1.327 1_455 S
C949 C953 1.429 . S
C950 C933 1.574 . S
C950 H944 0.949 . S
C950 C954 1.368 . S
C951 C932 1.429 . S
C951 C945 1.429 . S
C951 C952 1.523 . S
C952 C933 1.368 . S
C952 C946 1.368 . S
C952 C951 1.523 . S
C953 C937 1.429 . S
C953 C949 1.429 . S
C953 C954 1.523 . S
C954 C938 1.368 . S
C954 C950 1.368 . S
C954 C953 1.523 . S
H955 C930 0.950 . S
H956 C932 0.950 . S
H957 C933 0.949 . S
H958 C935 0.950 . S
H959 C937 0.950 . S
C960 C961 1.349 . S
C960 C962 1.327 1_655 S
C960 H985 0.950 . S
C961 C960 1.349 . S
C961 C977 1.349 . S
C962 C960 1.327 1_455 S
C962 C981 1.429 . S
C962 H986 0.950 . S
C963 C980 1.574 . S
C963 C982 1.368 . S
C963 H987 0.949 . S
H964 C968 0.949 . S
C965 C966 1.349 . S
C965 C967 1.327 . S
C965 H988 0.950 . S
C966 C965 1.349 . S
C966 C978 1.349 . S
C967 C965 1.327 . S
C967 C983 1.429 . S
C967 H989 0.950 . S
C968 H964 0.949 . S
C968 C976 1.574 . S
C968 C984 1.368 . S
H969 C977 0.950 . S
H970 C975 0.950 . S
H971 C976 0.949 . S
H972 C978 0.950 . S
H973 C979 0.950 . S
H974 C980 0.949 . S
C975 H970 0.950 . S
C975 C977 1.327 1_455 S
C975 C981 1.429 . S
C976 C968 1.574 . S
C976 H971 0.949 . S
C976 C982 1.368 . S
C977 C961 1.349 . S
C977 H969 0.950 . S
C977 C975 1.327 1_655 S
C978 C966 1.349 . S
C978 H972 0.950 . S
C978 C979 1.327 . S
C979 H973 0.950 . S
C979 C978 1.327 . S
C979 C983 1.429 . S
C980 C963 1.574 . S
C980 H974 0.949 . S
C980 C984 1.368 . S
C981 C962 1.429 . S
C981 C975 1.429 . S
C981 C982 1.523 . S
C982 C963 1.368 . S
C982 C976 1.368 . S
C982 C981 1.523 . S
C983 C967 1.429 . S
C983 C979 1.429 . S
C983 C984 1.523 . S
C984 C968 1.368 . S
C984 C980 1.368 . S
C984 C983 1.523 . S
H985 C960 0.950 . S
H986 C962 0.950 . S
H987 C963 0.949 . S
H988 C965 0.950 . S
H989 C967 0.950 . S
C990 C991 1.349 . S
C990 C992 1.327 . S
C990 H1015 0.950 . S
C991 C990 1.349 . S
C991 C1007 1.349 . S
C992 C990 1.327 . S
C992 C1011 1.429 . S
C992 H1016 0.950 . S
C993 C1010 1.574 . S
C993 C1012 1.368 . S
C993 H1017 0.949 . S
H994 C998 0.949 . S
C995 C996 1.349 . S
C995 C997 1.327 1_655 S
C995 H1018 0.950 . S
C996 C995 1.349 . S
C996 C1008 1.349 . S
C997 C995 1.327 1_455 S
C997 C1013 1.429 . S
C997 H1019 0.950 . S
C998 H994 0.949 . S
C998 C1006 1.574 . S
C998 C1014 1.368 . S
H999 C1007 0.950 . S
H1000 C1005 0.950 . S
H1001 C1006 0.949 . S
H1002 C1008 0.950 . S
H1003 C1009 0.950 . S
H1004 C1010 0.949 . S
C1005 H1000 0.950 . S
C1005 C1007 1.327 . S
C1005 C1011 1.429 . S
C1006 C998 1.574 . S
C1006 H1001 0.949 . S
C1006 C1012 1.368 . S
C1007 C991 1.349 . S
C1007 H999 0.950 . S
C1007 C1005 1.327 . S
C1008 C996 1.349 . S
C1008 H1002 0.950 . S
C1008 C1009 1.327 . S
C1009 H1003 0.950 . S
C1009 C1008 1.327 . S
C1009 C1013 1.429 1_655 S
C1010 C993 1.574 . S
C1010 H1004 0.949 . S
C1010 C1014 1.368 . S
C1011 C992 1.429 . S
C1011 C1005 1.429 . S
C1011 C1012 1.523 . S
C1012 C993 1.368 . S
C1012 C1006 1.368 . S
C1012 C1011 1.523 . S
C1013 C997 1.429 . S
C1013 C1009 1.429 1_455 S
C1013 C1014 1.523 . S
C1014 C998 1.368 . S
C1014 C1010 1.368 . S
C1014 C1013 1.523 . S
H1015 C990 0.950 . S
H1016 C992 0.950 . S
H1017 C993 0.949 . S
H1018 C995 0.950 . S
H1019 C997 0.950 . S
C1020 C1021 1.349 . S
C1020 C1022 1.327 . S
C1020 H1045 0.950 . S
C1021 C1020 1.349 . S
C1021 C1037 1.349 . S
C1022 C1020 1.327 . S
C1022 C1041 1.429 . S
C1022 H1046 0.950 . S
C1023 C1040 1.574 . S
C1023 C1042 1.368 . S
C1023 H1047 0.949 . S
H1024 C1028 0.949 . S
C1025 C1026 1.349 . S
C1025 C1027 1.317 1_545 S
C1025 H1048 0.950 . S
C1026 C1025 1.349 . S
C1026 C1038 1.349 . S
C1027 C1025 1.317 1_565 S
C1027 C1043 1.435 . S
C1027 H1049 0.941 . S
C1028 H1024 0.949 . S
C1028 C1036 1.574 . S
C1028 C1044 1.368 . S
H1029 C1037 0.950 . S
H1030 C1035 0.950 . S
H1031 C1036 0.949 . S
H1032 C1038 0.950 . S
H1033 C1039 0.950 . S
H1034 C1040 0.949 . S
C1035 H1030 0.950 . S
C1035 C1037 1.327 . S
C1035 C1041 1.429 . S
C1036 C1028 1.574 . S
C1036 H1031 0.949 . S
C1036 C1042 1.368 . S
C1037 C1021 1.349 . S
C1037 H1029 0.950 . S
C1037 C1035 1.327 . S
C1038 C1026 1.349 . S
C1038 H1032 0.950 . S
C1038 C1039 1.327 1_545 S
C1039 H1033 0.950 . S
C1039 C1038 1.327 1_565 S
C1039 C1043 1.429 . S
C1040 C1023 1.574 . S
C1040 H1034 0.949 . S
C1040 C1044 1.368 . S
C1041 C1022 1.429 . S
C1041 C1035 1.429 . S
C1041 C1042 1.523 . S
C1042 C1023 1.368 . S
C1042 C1036 1.368 . S
C1042 C1041 1.523 . S
C1043 C1027 1.435 . S
C1043 C1039 1.429 . S
C1043 C1044 1.523 . S
C1044 C1028 1.368 . S
C1044 C1040 1.368 . S
C1044 C1043 1.523 . S
H1045 C1020 0.950 . S
H1046 C1022 0.950 . S
H1047 C1023 0.949 . S
H1048 C1025 0.950 . S
H1049 C1027 0.941 . S
C1050 C1051 1.349 . S
C1050 C1052 1.327 1_545 S
C1050 H1075 0.950 . S
C1051 C1050 1.349 . S
C1051 C1067 1.349 . S
C1052 C1050 1.327 1_565 S
C1052 C1071 1.429 . S
C1052 H1076 0.950 . S
C1053 C1070 1.574 . S
C1053 C1072 1.368 . S
C1053 H1077 0.949 . S
H1054 C1058 0.949 . S
C1055 C1056 1.349 . S
C1055 C1057 1.327 1_655 S
C1055 H1078 0.950 . S
C1056 C1055 1.349 . S
C1056 C1068 1.349 . S
C1057 C1055 1.327 1_455 S
C1057 C1073 1.429 . S
C1057 H1079 0.950 . S
C1058 H1054 0.949 . S
C1058 C1066 1.574 . S
C1058 C1074 1.368 . S
H1059 C1067 0.950 . S
H1060 C1065 0.950 . S
H1061 C1066 0.949 . S
H1062 C1068 0.950 . S
H1063 C1069 0.950 . S
H1064 C1070 0.949 . S
C1065 H1060 0.950 . S
C1065 C1067 1.327 1_565 S
C1065 C1071 1.429 . S
C1066 C1058 1.574 . S
C1066 H1061 0.949 . S
C1066 C1072 1.368 . S
C1067 C1051 1.349 . S
C1067 H1059 0.950 . S
C1067 C1065 1.327 1_545 S
C1068 C1056 1.349 . S
C1068 H1062 0.950 . S
C1068 C1069 1.327 1_655 S
C1069 H1063 0.950 . S
C1069 C1068 1.327 1_455 S
C1069 C1073 1.429 . S
C1070 C1053 1.574 . S
C1070 H1064 0.949 . S
C1070 C1074 1.368 . S
C1071 C1052 1.429 . S
C1071 C1065 1.429 . S
C1071 C1072 1.523 . S
C1072 C1053 1.368 . S
C1072 C1066 1.368 . S
C1072 C1071 1.523 . S
C1073 C1057 1.429 . S
C1073 C1069 1.429 . S
C1073 C1074 1.523 . S
C1074 C1058 1.368 . S
C1074 C1070 1.368 . S
C1074 C1073 1.523 . S
H1075 C1050 0.950 . S
H1076 C1052 0.950 . S
H1077 C1053 0.949 . S
H1078 C1055 0.950 . S
H1079 C1057 0.950 . S
C1080 C1081 1.349 . S
C1080 C1082 1.327 . S
C1080 H1105 0.950 . S
C1081 C1080 1.349 . S
C1081 C1097 1.349 . S
C1082 C1080 1.327 . S
C1082 C1101 1.429 . S
C1082 H1106 0.950 . S
C1083 C1100 1.574 . S
C1083 C1102 1.368 . S
C1083 H1107 0.949 . S
H1084 C1088 0.949 . S
C1085 C1086 1.349 . S
C1085 C1087 1.327 . S
C1085 H1108 0.950 . S
C1086 C1085 1.349 . S
C1086 C1098 1.349 . S
C1087 C1085 1.327 . S
C1087 C1103 1.429 . S
C1087 H1109 0.950 . S
C1088 H1084 0.949 . S
C1088 C1096 1.574 . S
C1088 C1104 1.368 . S
H1089 C1097 0.950 . S
H1090 C1095 0.950 . S
H1091 C1096 0.949 . S
H1092 C1098 0.950 . S
H1093 C1099 0.950 . S
H1094 C1100 0.949 . S
C1095 H1090 0.950 . S
C1095 C1097 1.327 . S
C1095 C1101 1.429 . S
C1096 C1088 1.574 . S
C1096 H1091 0.949 . S
C1096 C1102 1.368 . S
C1097 C1081 1.349 . S
C1097 H1089 0.950 . S
C1097 C1095 1.327 . S
C1098 C1086 1.349 . S
C1098 H1092 0.950 . S
C1098 C1099 1.327 . S
C1099 H1093 0.950 . S
C1099 C1098 1.327 . S
C1099 C1103 1.429 . S
C1100 C1083 1.574 . S
C1100 H1094 0.949 . S
C1100 C1104 1.368 . S
C1101 C1082 1.429 . S
C1101 C1095 1.429 . S
C1101 C1102 1.523 . S
C1102 C1083 1.368 . S
C1102 C1096 1.368 . S
C1102 C1101 1.523 . S
C1103 C1087 1.429 . S
C1103 C1099 1.429 . S
C1103 C1104 1.523 . S
C1104 C1088 1.368 . S
C1104 C1100 1.368 . S
C1104 C1103 1.523 . S
H1105 C1080 0.950 . S
H1106 C1082 0.950 . S
H1107 C1083 0.949 . S
H1108 C1085 0.950 . S
H1109 C1087 0.950 . S
C1110 C1111 1.349 . S
C1110 C1112 1.327 . S
C1110 H1135 0.950 . S
C1111 C1110 1.349 . S
C1111 C1127 1.349 . S
C1112 C1110 1.327 . S
C1112 C1131 1.429 . S
C1112 H1136 0.950 . S
C1113 C1130 1.574 . S
C1113 C1132 1.368 . S
C1113 H1137 0.949 . S
H1114 C1118 0.949 . S
C1115 C1116 1.349 . S
C1115 C1117 1.327 . S
C1115 H1138 0.950 . S
C1116 C1115 1.349 . S
C1116 C1128 1.349 . S
C1117 C1115 1.327 . S
C1117 C1133 1.429 . S
C1117 H1139 0.950 . S
C1118 H1114 0.949 . S
C1118 C1126 1.574 . S
C1118 C1134 1.368 . S
H1119 C1127 0.950 . S
H1120 C1125 0.950 . S
H1121 C1126 0.949 . S
H1122 C1128 0.950 . S
H1123 C1129 0.950 . S
H1124 C1130 0.949 . S
C1125 H1120 0.950 . S
C1125 C1127 1.327 . S
C1125 C1131 1.429 . S
C1126 C1118 1.574 . S
C1126 H1121 0.949 . S
C1126 C1132 1.368 . S
C1127 C1111 1.349 . S
C1127 H1119 0.950 . S
C1127 C1125 1.327 . S
C1128 C1116 1.349 . S
C1128 H1122 0.950 . S
C1128 C1129 1.327 . S
C1129 H1123 0.950 . S
C1129 C1128 1.327 . S
C1129 C1133 1.429 . S
C1130 C1113 1.574 . S
C1130 H1124 0.949 . S
C1130 C1134 1.368 . S
C1131 C1112 1.429 . S
C1131 C1125 1.429 . S
C1131 C1132 1.523 . S
C1132 C1113 1.368 . S
C1132 C1126 1.368 . S
C1132 C1131 1.523 . S
C1133 C1117 1.429 . S
C1133 C1129 1.429 . S
C1133 C1134 1.523 . S
C1134 C1118 1.368 . S
C1134 C1130 1.368 . S
C1134 C1133 1.523 . S
H1135 C1110 0.950 . S
H1136 C1112 0.950 . S
H1137 C1113 0.949 . S
H1138 C1115 0.950 . S
H1139 C1117 0.950 . S
C1140 C1141 1.349 . S
C1140 C1142 1.327 . S
C1140 H1165 0.950 . S
C1141 C1140 1.349 . S
C1141 C1157 1.349 . S
C1142 C1140 1.327 . S
C1142 C1161 1.429 . S
C1142 H1166 0.950 . S
C1143 C1160 1.574 . S
C1143 C1162 1.368 . S
C1143 H1167 0.949 . S
H1144 C1148 0.949 . S
C1145 C1146 1.349 . S
C1145 C1147 1.327 . S
C1145 H1168 0.950 . S
C1146 C1145 1.349 . S
C1146 C1158 1.349 . S
C1147 C1145 1.327 . S
C1147 C1163 1.429 . S
C1147 H1169 0.950 . S
C1148 H1144 0.949 . S
C1148 C1156 1.574 . S
C1148 C1164 1.368 . S
H1149 C1157 0.950 . S
H1150 C1155 0.950 . S
H1151 C1156 0.949 . S
H1152 C1158 0.950 . S
H1153 C1159 0.950 . S
H1154 C1160 0.949 . S
C1155 H1150 0.950 . S
C1155 C1157 1.327 . S
C1155 C1161 1.429 . S
C1156 C1148 1.574 . S
C1156 H1151 0.949 . S
C1156 C1162 1.368 . S
C1157 C1141 1.349 . S
C1157 H1149 0.950 . S
C1157 C1155 1.327 . S
C1158 C1146 1.349 . S
C1158 H1152 0.950 . S
C1158 C1159 1.327 . S
C1159 H1153 0.950 . S
C1159 C1158 1.327 . S
C1159 C1163 1.429 . S
C1160 C1143 1.574 . S
C1160 H1154 0.949 . S
C1160 C1164 1.368 . S
C1161 C1142 1.429 . S
C1161 C1155 1.429 . S
C1161 C1162 1.523 . S
C1162 C1143 1.368 . S
C1162 C1156 1.368 . S
C1162 C1161 1.523 . S
C1163 C1147 1.429 . S
C1163 C1159 1.429 . S
C1163 C1164 1.523 . S
C1164 C1148 1.368 . S
C1164 C1160 1.368 . S
C1164 C1163 1.523 . S
H1165 C1140 0.950 . S
H1166 C1142 0.950 . S
H1167 C1143 0.949 . S
H1168 C1145 0.950 . S
H1169 C1147 0.950 . S
C1170 C1171 1.349 . S
C1170 C1172 1.327 . S
C1170 H1195 0.950 . S
C1171 C1170 1.349 . S
C1171 C1187 1.349 . S
C1172 C1170 1.327 . S
C1172 C1191 1.429 . S
C1172 H1196 0.950 . S
C1173 C1190 1.574 . S
C1173 C1192 1.368 . S
C1173 H1197 0.949 . S
H1174 C1178 0.949 . S
C1175 C1176 1.349 . S
C1175 C1177 1.327 . S
C1175 H1198 0.950 . S
C1176 C1175 1.349 . S
C1176 C1188 1.349 . S
C1177 C1175 1.327 . S
C1177 C1193 1.429 . S
C1177 H1199 0.950 . S
C1178 H1174 0.949 . S
C1178 C1186 1.574 . S
C1178 C1194 1.368 . S
H1179 C1187 0.950 . S
H1180 C1185 0.950 . S
H1181 C1186 0.949 . S
H1182 C1188 0.950 . S
H1183 C1189 0.950 . S
H1184 C1190 0.949 . S
C1185 H1180 0.950 . S
C1185 C1187 1.327 . S
C1185 C1191 1.429 . S
C1186 C1178 1.574 . S
C1186 H1181 0.949 . S
C1186 C1192 1.368 . S
C1187 C1171 1.349 . S
C1187 H1179 0.950 . S
C1187 C1185 1.327 . S
C1188 C1176 1.349 . S
C1188 H1182 0.950 . S
C1188 C1189 1.327 . S
C1189 H1183 0.950 . S
C1189 C1188 1.327 . S
C1189 C1193 1.429 . S
C1190 C1173 1.574 . S
C1190 H1184 0.949 . S
C1190 C1194 1.368 . S
C1191 C1172 1.429 . S
C1191 C1185 1.429 . S
C1191 C1192 1.523 . S
C1192 C1173 1.368 . S
C1192 C1186 1.368 . S
C1192 C1191 1.523 . S
C1193 C1177 1.429 . S
C1193 C1189 1.429 . S
C1193 C1194 1.523 . S
C1194 C1178 1.368 . S
C1194 C1190 1.368 . S
C1194 C1193 1.523 . S
H1195 C1170 0.950 . S
H1196 C1172 0.950 . S
H1197 C1173 0.949 . S
H1198 C1175 0.950 . S
H1199 C1177 0.950 . S
C1200 C1201 1.349 . S
C1200 C1202 1.327 . S
C1200 H1225 0.950 . S
C1201 C1200 1.349 . S
C1201 C1217 1.349 . S
C1202 C1200 1.327 . S
C1202 C1221 1.429 . S
C1202 H1226 0.950 . S
C1203 C1220 1.574 . S
C1203 C1222 1.368 . S
C1203 H1227 0.949 . S
H1204 C1208 0.949 . S
C1205 C1206 1.349 . S
C1205 C1207 1.327 . S
C1205 H1228 0.950 . S
C1206 C1205 1.349 . S
C1206 C1218 1.349 . S
C1207 C1205 1.327 . S
C1207 C1223 1.429 . S
C1207 H1229 0.950 . S
C1208 H1204 0.949 . S
C1208 C1216 1.574 . S
C1208 C1224 1.368 . S
H1209 C1217 0.950 . S
H1210 C1215 0.950 . S
H1211 C1216 0.949 . S
H1212 C1218 0.950 . S
H1213 C1219 0.950 . S
H1214 C1220 0.949 . S
C1215 H1210 0.950 . S
C1215 C1217 1.327 . S
C1215 C1221 1.429 . S
C1216 C1208 1.574 . S
C1216 H1211 0.949 . S
C1216 C1222 1.368 . S
C1217 C1201 1.349 . S
C1217 H1209 0.950 . S
C1217 C1215 1.327 . S
C1218 C1206 1.349 . S
C1218 H1212 0.950 . S
C1218 C1219 1.327 . S
C1219 H1213 0.950 . S
C1219 C1218 1.327 . S
C1219 C1223 1.429 . S
C1220 C1203 1.574 . S
C1220 H1214 0.949 . S
C1220 C1224 1.368 . S
C1221 C1202 1.429 . S
C1221 C1215 1.429 . S
C1221 C1222 1.523 . S
C1222 C1203 1.368 . S
C1222 C1216 1.368 . S
C1222 C1221 1.523 . S
C1223 C1207 1.429 . S
C1223 C1219 1.429 . S
C1223 C1224 1.523 . S
C1224 C1208 1.368 . S
C1224 C1220 1.368 . S
C1224 C1223 1.523 . S
H1225 C1200 0.950 . S
H1226 C1202 0.950 . S
H1227 C1203 0.949 . S
H1228 C1205 0.950 . S
H1229 C1207 0.950 . S
C1230 C1231 1.349 . S
C1230 C1232 1.327 . S
C1230 H1255 0.950 . S
C1231 C1230 1.349 . S
C1231 C1247 1.349 . S
C1232 C1230 1.327 . S
C1232 C1251 1.429 . S
C1232 H1256 0.950 . S
C1233 C1250 1.574 . S
C1233 C1252 1.368 . S
C1233 H1257 0.949 . S
H1234 C1238 0.949 . S
C1235 C1236 1.349 . S
C1235 C1237 1.327 . S
C1235 H1258 0.950 . S
C1236 C1235 1.349 . S
C1236 C1248 1.349 . S
C1237 C1235 1.327 . S
C1237 C1253 1.429 . S
C1237 H1259 0.950 . S
C1238 H1234 0.949 . S
C1238 C1246 1.574 . S
C1238 C1254 1.368 . S
H1239 C1247 0.950 . S
H1240 C1245 0.950 . S
H1241 C1246 0.949 . S
H1242 C1248 0.950 . S
H1243 C1249 0.950 . S
H1244 C1250 0.949 . S
C1245 H1240 0.950 . S
C1245 C1247 1.327 . S
C1245 C1251 1.429 . S
C1246 C1238 1.574 . S
C1246 H1241 0.949 . S
C1246 C1252 1.368 . S
C1247 C1231 1.349 . S
C1247 H1239 0.950 . S
C1247 C1245 1.327 . S
C1248 C1236 1.349 . S
C1248 H1242 0.950 . S
C1248 C1249 1.327 . S
C1249 H1243 0.950 . S
C1249 C1248 1.327 . S
C1249 C1253 1.429 . S
C1250 C1233 1.574 . S
C1250 H1244 0.949 . S
C1250 C1254 1.368 . S
C1251 C1232 1.429 . S
C1251 C1245 1.429 . S
C1251 C1252 1.523 . S
C1252 C1233 1.368 . S
C1252 C1246 1.368 . S
C1252 C1251 1.523 . S
C1253 C1237 1.429 . S
C1253 C1249 1.429 . S
C1253 C1254 1.523 . S
C1254 C1238 1.368 . S
C1254 C1250 1.368 . S
C1254 C1253 1.523 . S
H1255 C1230 0.950 . S
H1256 C1232 0.950 . S
H1257 C1233 0.949 . S
H1258 C1235 0.950 . S
H1259 C1237 0.950 . S
C1260 C1261 1.349 . S
C1260 C1262 1.327 . S
C1260 H1285 0.950 . S
C1261 C1260 1.349 . S
C1261 C1277 1.349 . S
C1262 C1260 1.327 . S
C1262 C1281 1.429 . S
C1262 H1286 0.950 . S
C1263 C1280 1.574 . S
C1263 C1282 1.368 . S
C1263 H1287 0.949 . S
H1264 C1268 0.949 . S
C1265 C1266 1.349 . S
C1265 C1267 1.327 . S
C1265 H1288 0.950 . S
C1266 C1265 1.349 . S
C1266 C1278 1.349 . S
C1267 C1265 1.327 . S
C1267 C1283 1.429 . S
C1267 H1289 0.950 . S
C1268 H1264 0.949 . S
C1268 C1276 1.574 . S
C1268 C1284 1.368 . S
H1269 C1277 0.950 . S
H1270 C1275 0.950 . S
H1271 C1276 0.949 . S
H1272 C1278 0.950 . S
H1273 C1279 0.950 . S
H1274 C1280 0.949 . S
C1275 H1270 0.950 . S
C1275 C1277 1.327 . S
C1275 C1281 1.429 . S
C1276 C1268 1.574 . S
C1276 H1271 0.949 . S
C1276 C1282 1.368 . S
C1277 C1261 1.349 . S
C1277 H1269 0.950 . S
C1277 C1275 1.327 . S
C1278 C1266 1.349 . S
C1278 H1272 0.950 . S
C1278 C1279 1.327 . S
C1279 H1273 0.950 . S
C1279 C1278 1.327 . S
C1279 C1283 1.429 . S
C1280 C1263 1.574 . S
C1280 H1274 0.949 . S
C1280 C1284 1.368 . S
C1281 C1262 1.429 . S
C1281 C1275 1.429 . S
C1281 C1282 1.523 . S
C1282 C1263 1.368 . S
C1282 C1276 1.368 . S
C1282 C1281 1.523 . S
C1283 C1267 1.429 . S
C1283 C1279 1.429 . S
C1283 C1284 1.523 . S
C1284 C1268 1.368 . S
C1284 C1280 1.368 . S
C1284 C1283 1.523 . S
H1285 C1260 0.950 . S
H1286 C1262 0.950 . S
H1287 C1263 0.949 . S
H1288 C1265 0.950 . S
H1289 C1267 0.950 . S
C1290 C1291 1.349 . S
C1290 C1292 1.327 . S
C1290 H1315 0.950 . S
C1291 C1290 1.349 . S
C1291 C1307 1.349 . S
C1292 C1290 1.327 . S
C1292 C1311 1.429 . S
C1292 H1316 0.950 . S
C1293 C1310 1.574 . S
C1293 C1312 1.368 . S
C1293 H1317 0.949 . S
H1294 C1298 0.949 . S
C1295 C1296 1.349 . S
C1295 C1297 1.327 . S
C1295 H1318 0.950 . S
C1296 C1295 1.349 . S
C1296 C1308 1.349 . S
C1297 C1295 1.327 . S
C1297 C1313 1.429 . S
C1297 H1319 0.950 . S
C1298 H1294 0.949 . S
C1298 C1306 1.574 . S
C1298 C1314 1.368 . S
H1299 C1307 0.950 . S
H1300 C1305 0.950 . S
H1301 C1306 0.949 . S
H1302 C1308 0.950 . S
H1303 C1309 0.950 . S
H1304 C1310 0.949 . S
C1305 H1300 0.950 . S
C1305 C1307 1.327 . S
C1305 C1311 1.429 . S
C1306 C1298 1.574 . S
C1306 H1301 0.949 . S
C1306 C1312 1.368 . S
C1307 C1291 1.349 . S
C1307 H1299 0.950 . S
C1307 C1305 1.327 . S
C1308 C1296 1.349 . S
C1308 H1302 0.950 . S
C1308 C1309 1.327 . S
C1309 H1303 0.950 . S
C1309 C1308 1.327 . S
C1309 C1313 1.429 . S
C1310 C1293 1.574 . S
C1310 H1304 0.949 . S
C1310 C1314 1.368 . S
C1311 C1292 1.429 . S
C1311 C1305 1.429 . S
C1311 C1312 1.523 . S
C1312 C1293 1.368 . S
C1312 C1306 1.368 . S
C1312 C1311 1.523 . S
C1313 C1297 1.429 . S
C1313 C1309 1.429 . S
C1313 C1314 1.523 . S
C1314 C1298 1.368 . S
C1314 C1310 1.368 . S
C1314 C1313 1.523 . S
H1315 C1290 0.950 . S
H1316 C1292 0.950 . S
H1317 C1293 0.949 . S
H1318 C1295 0.950 . S
H1319 C1297 0.950 . S
C1320 C1321 1.349 . S
C1320 C1322 1.327 . S
C1320 H1345 0.950 . S
C1321 C1320 1.349 . S
C1321 C1337 1.349 . S
C1322 C1320 1.327 . S
C1322 C1341 1.429 . S
C1322 H1346 0.950 . S
C1323 C1340 1.574 . S
C1323 C1342 1.368 . S
C1323 H1347 0.949 . S
H1324 C1328 0.949 . S
C1325 C1326 1.349 . S
C1325 C1327 1.327 . S
C1325 H1348 0.950 . S
C1326 C1325 1.349 . S
C1326 C1338 1.349 . S
C1327 C1325 1.327 . S
C1327 C1343 1.429 . S
C1327 H1349 0.950 . S
C1328 H1324 0.949 . S
C1328 C1336 1.574 . S
C1328 C1344 1.368 . S
H1329 C1337 0.950 . S
H1330 C1335 0.950 . S
H1331 C1336 0.949 . S
H1332 C1338 0.950 . S
H1333 C1339 0.950 . S
H1334 C1340 0.949 . S
C1335 H1330 0.950 . S
C1335 C1337 1.327 . S
C1335 C1341 1.429 . S
C1336 C1328 1.574 . S
C1336 H1331 0.949 . S
C1336 C1342 1.368 . S
C1337 C1321 1.349 . S
C1337 H1329 0.950 . S
C1337 C1335 1.327 . S
C1338 C1326 1.349 . S
C1338 H1332 0.950 . S
C1338 C1339 1.327 . S
C1339 H1333 0.950 . S
C1339 C1338 1.327 . S
C1339 C1343 1.429 . S
C1340 C1323 1.574 . S
C1340 H1334 0.949 . S
C1340 C1344 1.368 . S
C1341 C1322 1.429 . S
C1341 C1335 1.429 . S
C1341 C1342 1.523 . S
C1342 C1323 1.368 . S
C1342 C1336 1.368 . S
C1342 C1341 1.523 . S
C1343 C1327 1.429 . S
C1343 C1339 1.429 . S
C1343 C1344 1.523 . S
C1344 C1328 1.368 . S
C1344 C1340 1.368 . S
C1344 C1343 1.523 . S
H1345 C1320 0.950 . S
H1346 C1322 0.950 . S
H1347 C1323 0.949 . S
H1348 C1325 0.950 . S
H1349 C1327 0.950 . S
C1350 C1351 1.349 . S
C1350 C1352 1.327 . S
C1350 H1375 0.950 . S
C1351 C1350 1.349 . S
C1351 C1367 1.349 . S
C1352 C1350 1.327 . S
C1352 C1371 1.429 1_556 S
C1352 H1376 0.950 . S
C1353 C1370 1.574 . S
C1353 C1372 1.368 . S
C1353 H1377 0.949 . S
H1354 C1358 0.949 . S
C1355 C1356 1.349 . S
C1355 C1357 1.327 . S
C1355 H1378 0.950 . S
C1356 C1355 1.349 . S
C1356 C1368 1.349 . S
C1357 C1355 1.327 . S
C1357 C1373 1.429 . S
C1357 H1379 0.950 . S
C1358 H1354 0.949 . S
C1358 C1366 1.574 . S
C1358 C1374 1.368 . S
H1359 C1367 0.950 . S
H1360 C1365 0.950 . S
H1361 C1366 0.949 . S
H1362 C1368 0.950 . S
H1363 C1369 0.950 . S
H1364 C1370 0.949 . S
C1365 H1360 0.950 . S
C1365 C1367 1.327 1_554 S
C1365 C1371 1.429 . S
C1366 C1358 1.574 . S
C1366 H1361 0.949 . S
C1366 C1372 1.368 . S
C1367 C1351 1.349 . S
C1367 H1359 0.950 . S
C1367 C1365 1.327 1_556 S
C1368 C1356 1.349 . S
C1368 H1362 0.950 . S
C1368 C1369 1.327 . S
C1369 H1363 0.950 . S
C1369 C1368 1.327 . S
C1369 C1373 1.429 . S
C1370 C1353 1.574 . S
C1370 H1364 0.949 . S
C1370 C1374 1.368 . S
C1371 C1352 1.429 1_554 S
C1371 C1365 1.429 . S
C1371 C1372 1.523 . S
C1372 C1353 1.368 . S
C1372 C1366 1.368 . S
C1372 C1371 1.523 . S
C1373 C1357 1.429 . S
C1373 C1369 1.429 . S
C1373 C1374 1.523 . S
C1374 C1358 1.368 . S
C1374 C1370 1.368 . S
C1374 C1373 1.523 . S
H1375 C1350 0.950 . S
H1376 C1352 0.950 . S
H1377 C1353 0.949 . S
H1378 C1355 0.950 . S
H1379 C1357 0.950 . S
C1380 C1381 1.349 . S
C1380 C1382 1.327 . S
C1380 H1405 0.950 . S
C1381 C1380 1.349 . S
C1381 C1397 1.349 . S
C1382 C1380 1.327 . S
C1382 C1401 1.429 1_556 S
C1382 H1406 0.950 . S
C1383 C1400 1.574 . S
C1383 C1402 1.368 . S
C1383 H1407 0.949 . S
H1384 C1388 0.949 . S
C1385 C1386 1.349 . S
C1385 C1387 1.327 . S
C1385 H1408 0.950 . S
C1386 C1385 1.349 . S
C1386 C1398 1.349 . S
C1387 C1385 1.327 . S
C1387 C1403 1.429 . S
C1387 H1409 0.950 . S
C1388 H1384 0.949 . S
C1388 C1396 1.574 . S
C1388 C1404 1.368 . S
H1389 C1397 0.950 . S
H1390 C1395 0.950 . S
H1391 C1396 0.949 . S
H1392 C1398 0.950 . S
H1393 C1399 0.950 . S
H1394 C1400 0.949 . S
C1395 H1390 0.950 . S
C1395 C1397 1.327 1_554 S
C1395 C1401 1.429 . S
C1396 C1388 1.574 . S
C1396 H1391 0.949 . S
C1396 C1402 1.368 . S
C1397 C1381 1.349 . S
C1397 H1389 0.950 . S
C1397 C1395 1.327 1_556 S
C1398 C1386 1.349 . S
C1398 H1392 0.950 . S
C1398 C1399 1.327 . S
C1399 H1393 0.950 . S
C1399 C1398 1.327 . S
C1399 C1403 1.429 . S
C1400 C1383 1.574 . S
C1400 H1394 0.949 . S
C1400 C1404 1.368 . S
C1401 C1382 1.429 1_554 S
C1401 C1395 1.429 . S
C1401 C1402 1.523 . S
C1402 C1383 1.368 . S
C1402 C1396 1.368 . S
C1402 C1401 1.523 . S
C1403 C1387 1.429 . S
C1403 C1399 1.429 . S
C1403 C1404 1.523 . S
C1404 C1388 1.368 . S
C1404 C1400 1.368 . S
C1404 C1403 1.523 . S
H1405 C1380 0.950 . S
H1406 C1382 0.950 . S
H1407 C1383 0.949 . S
H1408 C1385 0.950 . S
H1409 C1387 0.950 . S
C1410 C1411 1.349 . S
C1410 C1412 1.309 1_556 S
C1410 H1435 0.950 . S
C1411 C1410 1.349 . S
C1411 C1427 1.349 . S
C1412 C1410 1.309 1_554 S
C1412 C1431 1.436 . S
C1412 H1436 0.961 . S
C1413 C1430 1.574 . S
C1413 C1432 1.368 . S
C1413 H1437 0.949 . S
H1414 C1418 0.949 . S
C1415 C1416 1.349 . S
C1415 C1417 1.327 . S
C1415 H1438 0.950 . S
C1416 C1415 1.349 . S
C1416 C1428 1.349 . S
C1417 C1415 1.327 . S
C1417 C1433 1.429 . S
C1417 H1439 0.950 . S
C1418 H1414 0.949 . S
C1418 C1426 1.574 . S
C1418 C1434 1.368 . S
H1419 C1427 0.950 . S
H1420 C1425 0.950 . S
H1421 C1426 0.949 . S
H1422 C1428 0.950 . S
H1423 C1429 0.950 . S
H1424 C1430 0.949 . S
C1425 H1420 0.950 . S
C1425 C1427 1.327 . S
C1425 C1431 1.429 1_556 S
C1426 C1418 1.574 . S
C1426 H1421 0.949 . S
C1426 C1432 1.368 . S
C1427 C1411 1.349 . S
C1427 H1419 0.950 . S
C1427 C1425 1.327 . S
C1428 C1416 1.349 . S
C1428 H1422 0.950 . S
C1428 C1429 1.327 . S
C1429 H1423 0.950 . S
C1429 C1428 1.327 . S
C1429 C1433 1.429 . S
C1430 C1413 1.574 . S
C1430 H1424 0.949 . S
C1430 C1434 1.368 . S
C1431 C1412 1.436 . S
C1431 C1425 1.429 1_554 S
C1431 C1432 1.523 . S
C1432 C1413 1.368 . S
C1432 C1426 1.368 . S
C1432 C1431 1.523 . S
C1433 C1417 1.429 . S
C1433 C1429 1.429 . S
C1433 C1434 1.523 . S
C1434 C1418 1.368 . S
C1434 C1430 1.368 . S
C1434 C1433 1.523 . S
H1435 C1410 0.950 . S
H1436 C1412 0.961 . S
H1437 C1413 0.949 . S
H1438 C1415 0.950 . S
H1439 C1417 0.950 . S
C1440 C1441 1.349 . S
C1440 C1442 1.327 . S
C1440 H1465 0.950 . S
C1441 C1440 1.349 . S
C1441 C1457 1.349 . S
C1442 C1440 1.327 . S
C1442 C1461 1.429 . S
C1442 H1466 0.950 . S
C1443 C1460 1.574 . S
C1443 C1462 1.368 . S
C1443 H1467 0.949 . S
H1444 C1448 0.949 . S
C1445 C1446 1.349 . S
C1445 C1447 1.327 . S
C1445 H1468 0.950 . S
C1446 C1445 1.349 . S
C1446 C1458 1.349 . S
C1447 C1445 1.327 . S
C1447 C1463 1.429 1_554 S
C1447 H1469 0.950 . S
C1448 H1444 0.949 . S
C1448 C1456 1.574 . S
C1448 C1464 1.368 . S
H1449 C1457 0.950 . S
H1450 C1455 0.950 . S
H1451 C1456 0.949 . S
H1452 C1458 0.950 . S
H1453 C1459 0.950 1_556 S
H1454 C1460 0.949 . S
C1455 H1450 0.950 . S
C1455 C1457 1.327 . S
C1455 C1461 1.429 . S
C1456 C1448 1.574 . S
C1456 H1451 0.949 . S
C1456 C1462 1.368 . S
C1457 C1441 1.349 . S
C1457 H1449 0.950 . S
C1457 C1455 1.327 . S
C1458 C1446 1.349 . S
C1458 H1452 0.950 . S
C1458 C1459 1.327 . S
C1459 H1453 0.950 1_554 S
C1459 C1458 1.327 . S
C1459 C1463 1.429 1_554 S
C1460 C1443 1.574 . S
C1460 H1454 0.949 . S
C1460 C1464 1.368 . S
C1461 C1442 1.429 . S
C1461 C1455 1.429 . S
C1461 C1462 1.523 . S
C1462 C1443 1.368 . S
C1462 C1456 1.368 . S
C1462 C1461 1.523 . S
C1463 C1447 1.429 1_556 S
C1463 C1459 1.429 1_556 S
C1463 C1464 1.523 . S
C1464 C1448 1.368 . S
C1464 C1460 1.368 . S
C1464 C1463 1.523 . S
H1465 C1440 0.950 . S
H1466 C1442 0.950 . S
H1467 C1443 0.949 . S
H1468 C1445 0.950 . S
H1469 C1447 0.950 . S
C1470 C1471 1.349 . S
C1470 C1472 1.327 . S
C1470 H1495 0.950 . S
C1471 C1470 1.349 . S
C1471 C1487 1.349 . S
C1472 C1470 1.327 . S
C1472 C1491 1.429 . S
C1472 H1496 0.950 . S
C1473 C1490 1.574 . S
C1473 C1492 1.368 . S
C1473 H1497 0.949 . S
H1474 C1478 0.949 . S
C1475 C1476 1.349 . S
C1475 C1477 1.327 . S
C1475 H1498 0.950 . S
C1476 C1475 1.349 . S
C1476 C1488 1.349 . S
C1477 C1475 1.327 . S
C1477 C1493 1.429 1_554 S
C1477 H1499 0.950 1_554 S
C1478 H1474 0.949 . S
C1478 C1486 1.574 . S
C1478 C1494 1.368 . S
H1479 C1487 0.950 . S
H1480 C1485 0.950 . S
H1481 C1486 0.949 . S
H1482 C1488 0.950 . S
H1483 C1489 0.950 . S
H1484 C1490 0.949 . S
C1485 H1480 0.950 . S
C1485 C1487 1.327 . S
C1485 C1491 1.429 . S
C1486 C1478 1.574 . S
C1486 H1481 0.949 . S
C1486 C1492 1.368 . S
C1487 C1471 1.349 . S
C1487 H1479 0.950 . S
C1487 C1485 1.327 . S
C1488 C1476 1.349 . S
C1488 H1482 0.950 . S
C1488 C1489 1.327 . S
C1489 H1483 0.950 . S
C1489 C1488 1.327 . S
C1489 C1493 1.429 1_554 S
C1490 C1473 1.574 . S
C1490 H1484 0.949 . S
C1490 C1494 1.368 . S
C1491 C1472 1.429 . S
C1491 C1485 1.429 . S
C1491 C1492 1.523 . S
C1492 C1473 1.368 . S
C1492 C1486 1.368 . S
C1492 C1491 1.523 . S
C1493 C1477 1.429 1_556 S
C1493 C1489 1.429 1_556 S
C1493 C1494 1.523 . S
C1494 C1478 1.368 . S
C1494 C1490 1.368 . S
C1494 C1493 1.523 . S
H1495 C1470 0.950 . S
H1496 C1472 0.950 . S
H1497 C1473 0.949 . S
H1498 C1475 0.950 . S
H1499 C1477 0.950 1_556 S
C1500 C1501 1.349 . S
C1500 C1502 1.327 . S
C1500 H1525 0.950 . S
C1501 C1500 1.349 . S
C1501 C1517 1.349 . S
C1502 C1500 1.327 . S
C1502 C1521 1.429 . S
C1502 H1526 0.950 . S
C1503 C1520 1.574 . S
C1503 C1522 1.368 . S
C1503 H1527 0.949 . S
H1504 C1508 0.949 . S
C1505 C1506 1.349 . S
C1505 C1507 1.327 . S
C1505 H1528 0.950 . S
C1506 C1505 1.349 . S
C1506 C1518 1.349 . S
C1507 C1505 1.327 . S
C1507 C1523 1.429 1_554 S
C1507 H1529 0.950 . S
C1508 H1504 0.949 . S
C1508 C1516 1.574 . S
C1508 C1524 1.368 . S
H1509 C1517 0.950 . S
H1510 C1515 0.950 . S
H1511 C1516 0.949 . S
H1512 C1518 0.950 . S
H1513 C1519 0.950 . S
H1514 C1520 0.949 . S
C1515 H1510 0.950 . S
C1515 C1517 1.327 . S
C1515 C1521 1.429 . S
C1516 C1508 1.574 . S
C1516 H1511 0.949 . S
C1516 C1522 1.368 . S
C1517 C1501 1.349 . S
C1517 H1509 0.950 . S
C1517 C1515 1.327 . S
C1518 C1506 1.349 . S
C1518 H1512 0.950 . S
C1518 C1519 1.327 . S
C1519 H1513 0.950 . S
C1519 C1518 1.327 . S
C1519 C1523 1.429 1_554 S
C1520 C1503 1.574 . S
C1520 H1514 0.949 . S
C1520 C1524 1.368 . S
C1521 C1502 1.429 . S
C1521 C1515 1.429 . S
C1521 C1522 1.523 . S
C1522 C1503 1.368 . S
C1522 C1516 1.368 . S
C1522 C1521 1.523 . S
C1523 C1507 1.429 1_556 S
C1523 C1519 1.429 1_556 S
C1523 C1524 1.523 . S
C1524 C1508 1.368 . S
C1524 C1520 1.368 . S
C1524 C1523 1.523 . S
H1525 C1500 0.950 . S
H1526 C1502 0.950 . S
H1527 C1503 0.949 . S
H1528 C1505 0.950 . S
H1529 C1507 0.950 . S
C1530 C1531 1.349 . S
C1530 C1532 1.327 . S
C1530 H1555 0.950 . S
C1531 C1530 1.349 . S
C1531 C1547 1.349 . S
C1532 C1530 1.327 . S
C1532 C1551 1.429 . S
C1532 H1556 0.950 . S
C1533 C1550 1.574 . S
C1533 C1552 1.368 . S
C1533 H1557 0.949 . S
H1534 C1538 0.949 . S
C1535 C1536 1.349 . S
C1535 C1537 1.327 . S
C1535 H1558 0.950 . S
C1536 C1535 1.349 . S
C1536 C1548 1.349 . S
C1537 C1535 1.327 . S
C1537 C1553 1.429 . S
C1537 H1559 0.950 . S
C1538 H1534 0.949 . S
C1538 C1546 1.574 . S
C1538 C1554 1.368 . S
H1539 C1547 0.950 . S
H1540 C1545 0.950 . S
H1541 C1546 0.949 . S
H1542 C1548 0.950 . S
H1543 C1549 0.950 . S
H1544 C1550 0.949 . S
C1545 H1540 0.950 . S
C1545 C1547 1.327 . S
C1545 C1551 1.429 . S
C1546 C1538 1.574 . S
C1546 H1541 0.949 . S
C1546 C1552 1.368 . S
C1547 C1531 1.349 . S
C1547 H1539 0.950 . S
C1547 C1545 1.327 . S
C1548 C1536 1.349 . S
C1548 H1542 0.950 . S
C1548 C1549 1.327 . S
C1549 H1543 0.950 . S
C1549 C1548 1.327 . S
C1549 C1553 1.429 . S
C1550 C1533 1.574 . S
C1550 H1544 0.949 . S
C1550 C1554 1.368 . S
C1551 C1532 1.429 . S
C1551 C1545 1.429 . S
C1551 C1552 1.523 . S
C1552 C1533 1.368 . S
C1552 C1546 1.368 . S
C1552 C1551 1.523 . S
C1553 C1537 1.429 . S
C1553 C1549 1.429 . S
C1553 C1554 1.523 . S
C1554 C1538 1.368 . S
C1554 C1550 1.368 . S
C1554 C1553 1.523 . S
H1555 C1530 0.950 . S
H1556 C1532 0.950 . S
H1557 C1533 0.949 . S
H1558 C1535 0.950 . S
H1559 C1537 0.950 . S
C1560 C1561 1.349 . S
C1560 C1562 1.327 . S
C1560 H1585 0.950 . S
C1561 C1560 1.349 . S
C1561 C1577 1.349 . S
C1562 C1560 1.327 . S
C1562 C1581 1.429 . S
C1562 H1586 0.950 . S
C1563 C1580 1.574 . S
C1563 C1582 1.368 . S
C1563 H1587 0.949 . S
H1564 C1568 0.949 . S
C1565 C1566 1.349 . S
C1565 C1567 1.327 . S
C1565 H1588 0.950 . S
C1566 C1565 1.349 . S
C1566 C1578 1.349 . S
C1567 C1565 1.327 . S
C1567 C1583 1.429 . S
C1567 H1589 0.950 . S
C1568 H1564 0.949 . S
C1568 C1576 1.574 . S
C1568 C1584 1.368 . S
H1569 C1577 0.950 . S
H1570 C1575 0.950 . S
H1571 C1576 0.949 . S
H1572 C1578 0.950 . S
H1573 C1579 0.950 . S
H1574 C1580 0.949 . S
C1575 H1570 0.950 . S
C1575 C1577 1.327 . S
C1575 C1581 1.429 . S
C1576 C1568 1.574 . S
C1576 H1571 0.949 . S
C1576 C1582 1.368 . S
C1577 C1561 1.349 . S
C1577 H1569 0.950 . S
C1577 C1575 1.327 . S
C1578 C1566 1.349 . S
C1578 H1572 0.950 . S
C1578 C1579 1.327 . S
C1579 H1573 0.950 . S
C1579 C1578 1.327 . S
C1579 C1583 1.429 . S
C1580 C1563 1.574 . S
C1580 H1574 0.949 . S
C1580 C1584 1.368 . S
C1581 C1562 1.429 . S
C1581 C1575 1.429 . S
C1581 C1582 1.523 . S
C1582 C1563 1.368 . S
C1582 C1576 1.368 . S
C1582 C1581 1.523 . S
C1583 C1567 1.429 . S
C1583 C1579 1.429 . S
C1583 C1584 1.523 . S
C1584 C1568 1.368 . S
C1584 C1580 1.368 . S
C1584 C1583 1.523 . S
H1585 C1560 0.950 . S
H1586 C1562 0.950 . S
H1587 C1563 0.949 . S
H1588 C1565 0.950 . S
H1589 C1567 0.950 . S
C1590 C1591 1.349 . S
C1590 C1592 1.327 . S
C1590 H1615 0.950 . S
C1591 C1590 1.349 . S
C1591 C1607 1.349 . S
C1592 C1590 1.327 . S
C1592 C1611 1.429 . S
C1592 H1616 0.950 . S
C1593 C1610 1.574 . S
C1593 C1612 1.368 . S
C1593 H1617 0.949 . S
H1594 C1598 0.949 . S
C1595 C1596 1.349 . S
C1595 C1597 1.327 . S
C1595 H1618 0.950 . S
C1596 C1595 1.349 . S
C1596 C1608 1.349 . S
C1597 C1595 1.327 . S
C1597 C1613 1.429 . S
C1597 H1619 0.950 . S
C1598 H1594 0.949 . S
C1598 C1606 1.574 . S
C1598 C1614 1.368 . S
H1599 C1607 0.950 . S
H1600 C1605 0.950 . S
H1601 C1606 0.949 . S
H1602 C1608 0.950 . S
H1603 C1609 0.950 . S
H1604 C1610 0.949 . S
C1605 H1600 0.950 . S
C1605 C1607 1.327 . S
C1605 C1611 1.429 . S
C1606 C1598 1.574 . S
C1606 H1601 0.949 . S
C1606 C1612 1.368 . S
C1607 C1591 1.349 . S
C1607 H1599 0.950 . S
C1607 C1605 1.327 . S
C1608 C1596 1.349 . S
C1608 H1602 0.950 . S
C1608 C1609 1.327 . S
C1609 H1603 0.950 . S
C1609 C1608 1.327 . S
C1609 C1613 1.429 . S
C1610 C1593 1.574 . S
C1610 H1604 0.949 . S
C1610 C1614 1.368 . S
C1611 C1592 1.429 . S
C1611 C1605 1.429 . S
C1611 C1612 1.523 . S
C1612 C1593 1.368 . S
C1612 C1606 1.368 . S
C1612 C1611 1.523 . S
C1613 C1597 1.429 . S
C1613 C1609 1.429 . S
C1613 C1614 1.523 . S
C1614 C1598 1.368 . S
C1614 C1610 1.368 . S
C1614 C1613 1.523 . S
H1615 C1590 0.950 . S
H1616 C1592 0.950 . S
H1617 C1593 0.949 . S
H1618 C1595 0.950 . S
H1619 C1597 0.950 . S
C1620 C1621 1.349 . S
C1620 C1622 1.327 . S
C1620 H1645 0.950 . S
C1621 C1620 1.349 . S
C1621 C1637 1.349 . S
C1622 C1620 1.327 . S
C1622 C1641 1.429 . S
C1622 H1646 0.950 . S
C1623 C1640 1.574 1_565 S
C1623 C1642 1.368 . S
C1623 H1647 0.949 . S
H1624 C1628 0.949 . S
C1625 C1626 1.349 . S
C1625 C1627 1.327 . S
C1625 H1648 0.950 . S
C1626 C1625 1.349 . S
C1626 C1638 1.349 1_556 S
C1627 C1625 1.327 . S
C1627 C1643 1.429 . S
C1627 H1649 0.950 . S
C1628 H1624 0.949 . S
C1628 C1636 1.574 . S
C1628 C1644 1.368 1_565 S
H1629 C1637 0.950 . S
H1630 C1635 0.950 . S
H1631 C1636 0.949 . S
H1632 C1638 0.950 . S
H1633 C1639 0.950 1_554 S
H1634 C1640 0.949 . S
C1635 H1630 0.950 . S
C1635 C1637 1.327 . S
C1635 C1641 1.429 . S
C1636 C1628 1.574 . S
C1636 H1631 0.949 . S
C1636 C1642 1.368 . S
C1637 C1621 1.349 . S
C1637 H1629 0.950 . S
C1637 C1635 1.327 . S
C1638 C1626 1.349 1_554 S
C1638 H1632 0.950 . S
C1638 C1639 1.327 1_554 S
C1639 H1633 0.950 1_556 S
C1639 C1638 1.327 1_556 S
C1639 C1643 1.429 . S
C1640 C1623 1.574 1_545 S
C1640 H1634 0.949 . S
C1640 C1644 1.368 . S
C1641 C1622 1.429 . S
C1641 C1635 1.429 . S
C1641 C1642 1.523 . S
C1642 C1623 1.368 . S
C1642 C1636 1.368 . S
C1642 C1641 1.523 . S
C1643 C1627 1.429 . S
C1643 C1639 1.429 . S
C1643 C1644 1.523 . S
C1644 C1628 1.368 1_545 S
C1644 C1640 1.368 . S
C1644 C1643 1.523 . S
H1645 C1620 0.950 . S
H1646 C1622 0.950 . S
H1647 C1623 0.949 . S
H1648 C1625 0.950 . S
H1649 C1627 0.950 . S
C1650 C1651 1.349 1_554 S
C1650 C1652 1.327 1_554 S
C1650 H1675 0.950 . S
C1651 C1650 1.349 1_556 S
C1651 C1667 1.349 . S
C1652 C1650 1.327 1_556 S
C1652 C1671 1.429 . S
C1652 H1676 0.950 1_556 S
C1653 C1670 1.574 1_655 S
C1653 C1672 1.368 . S
C1653 H1677 0.949 . S
H1654 C1658 0.949 . S
C1655 C1656 1.349 . S
C1655 C1657 1.327 . S
C1655 H1678 0.950 . S
C1656 C1655 1.349 . S
C1656 C1668 1.349 . S
C1657 C1655 1.327 . S
C1657 C1673 1.429 . S
C1657 H1679 0.950 . S
C1658 H1654 0.949 . S
C1658 C1666 1.574 . S
C1658 C1674 1.368 . S
H1659 C1667 0.950 . S
H1660 C1665 0.950 . S
H1661 C1666 0.949 . S
H1662 C1668 0.950 . S
H1663 C1669 0.950 . S
H1664 C1670 0.949 . S
C1665 H1660 0.950 . S
C1665 C1667 1.327 . S
C1665 C1671 1.429 . S
C1666 C1658 1.574 . S
C1666 H1661 0.949 . S
C1666 C1672 1.368 1_455 S
C1667 C1651 1.349 . S
C1667 H1659 0.950 . S
C1667 C1665 1.327 . S
C1668 C1656 1.349 . S
C1668 H1662 0.950 . S
C1668 C1669 1.327 . S
C1669 H1663 0.950 . S
C1669 C1668 1.327 . S
C1669 C1673 1.429 . S
C1670 C1653 1.574 1_455 S
C1670 H1664 0.949 . S
C1670 C1674 1.368 . S
C1671 C1652 1.429 . S
C1671 C1665 1.429 . S
C1671 C1672 1.523 . S
C1672 C1653 1.368 . S
C1672 C1666 1.368 1_655 S
C1672 C1671 1.523 . S
C1673 C1657 1.429 . S
C1673 C1669 1.429 . S
C1673 C1674 1.523 . S
C1674 C1658 1.368 . S
C1674 C1670 1.368 . S
C1674 C1673 1.523 . S
H1675 C1650 0.950 . S
H1676 C1652 0.950 1_554 S
H1677 C1653 0.949 . S
H1678 C1655 0.950 . S
H1679 C1657 0.950 . S
C1680 C1681 1.349 . S
C1680 C1682 1.327 . S
C1680 H1705 0.950 . S
C1681 C1680 1.349 . S
C1681 C1697 1.349 . S
C1682 C1680 1.327 . S
C1682 C1701 1.429 . S
C1682 H1706 0.950 . S
C1683 C1700 1.574 . S
C1683 C1702 1.368 . S
C1683 H1707 0.949 . S
H1684 C1688 0.949 . S
C1685 C1686 1.349 1_554 S
C1685 C1687 1.327 1_554 S
C1685 H1708 0.950 . S
C1686 C1685 1.349 1_556 S
C1686 C1698 1.349 . S
C1687 C1685 1.327 1_556 S
C1687 C1703 1.429 . S
C1687 H1709 0.950 1_556 S
C1688 H1684 0.949 . S
C1688 C1696 1.574 . S
C1688 C1704 1.368 . S
H1689 C1697 0.950 . S
H1690 C1695 0.950 . S
H1691 C1696 0.949 . S
H1692 C1698 0.950 . S
H1693 C1699 0.950 . S
H1694 C1700 0.949 . S
C1695 H1690 0.950 . S
C1695 C1697 1.327 . S
C1695 C1701 1.429 . S
C1696 C1688 1.574 . S
C1696 H1691 0.949 . S
C1696 C1702 1.368 . S
C1697 C1681 1.349 . S
C1697 H1689 0.950 . S
C1697 C1695 1.327 . S
C1698 C1686 1.349 . S
C1698 H1692 0.950 . S
C1698 C1699 1.327 . S
C1699 H1693 0.950 . S
C1699 C1698 1.327 . S
C1699 C1703 1.429 . S
C1700 C1683 1.574 . S
C1700 H1694 0.949 . S
C1700 C1704 1.368 . S
C1701 C1682 1.429 . S
C1701 C1695 1.429 . S
C1701 C1702 1.523 . S
C1702 C1683 1.368 . S
C1702 C1696 1.368 . S
C1702 C1701 1.523 . S
C1703 C1687 1.429 . S
C1703 C1699 1.429 . S
C1703 C1704 1.523 . S
C1704 C1688 1.368 . S
C1704 C1700 1.368 . S
C1704 C1703 1.523 . S
H1705 C1680 0.950 . S
H1706 C1682 0.950 . S
H1707 C1683 0.949 . S
H1708 C1685 0.950 . S
H1709 C1687 0.950 1_554 S
C1710 C1711 1.349 . S
C1710 C1712 1.327 . S
C1710 H1735 0.950 . S
C1711 C1710 1.349 . S
C1711 C1727 1.349 . S
C1712 C1710 1.327 . S
C1712 C1731 1.429 . S
C1712 H1736 0.950 . S
C1713 C1730 1.574 . S
C1713 C1732 1.368 1_455 S
C1713 H1737 0.949 . S
H1714 C1718 0.949 . S
C1715 C1716 1.349 . S
C1715 C1717 1.327 . S
C1715 H1738 0.950 . S
C1716 C1715 1.349 . S
C1716 C1728 1.349 . S
C1717 C1715 1.327 . S
C1717 C1733 1.429 . S
C1717 H1739 0.950 . S
C1718 H1714 0.949 . S
C1718 C1726 1.574 1_455 S
C1718 C1734 1.368 . S
H1719 C1727 0.950 . S
H1720 C1725 0.950 . S
H1721 C1726 0.949 . S
H1722 C1728 0.950 . S
H1723 C1729 0.950 . S
H1724 C1730 0.949 . S
C1725 H1720 0.950 . S
C1725 C1727 1.327 . S
C1725 C1731 1.429 . S
C1726 C1718 1.574 1_655 S
C1726 H1721 0.949 . S
C1726 C1732 1.368 . S
C1727 C1711 1.349 . S
C1727 H1719 0.950 . S
C1727 C1725 1.327 . S
C1728 C1716 1.349 . S
C1728 H1722 0.950 . S
C1728 C1729 1.327 . S
C1729 H1723 0.950 . S
C1729 C1728 1.327 . S
C1729 C1733 1.429 . S
C1730 C1713 1.574 . S
C1730 H1724 0.949 . S
C1730 C1734 1.368 . S
C1731 C1712 1.429 . S
C1731 C1725 1.429 . S
C1731 C1732 1.523 . S
C1732 C1713 1.368 1_655 S
C1732 C1726 1.368 . S
C1732 C1731 1.523 . S
C1733 C1717 1.429 . S
C1733 C1729 1.429 . S
C1733 C1734 1.523 . S
C1734 C1718 1.368 . S
C1734 C1730 1.368 . S
C1734 C1733 1.523 . S
H1735 C1710 0.950 . S
H1736 C1712 0.950 . S
H1737 C1713 0.949 . S
H1738 C1715 0.950 . S
H1739 C1717 0.950 . S
C1740 C1741 1.349 . S
C1740 C1742 1.327 . S
C1740 H1765 0.950 . S
C1741 C1740 1.349 . S
C1741 C1757 1.349 . S
C1742 C1740 1.327 . S
C1742 C1761 1.429 . S
C1742 H1766 0.950 . S
C1743 C1760 1.574 . S
C1743 C1762 1.368 . S
C1743 H1767 0.949 . S
H1744 C1748 0.949 . S
C1745 C1746 1.349 . S
C1745 C1747 1.327 . S
C1745 H1768 0.950 . S
C1746 C1745 1.349 . S
C1746 C1758 1.349 . S
C1747 C1745 1.327 . S
C1747 C1763 1.429 . S
C1747 H1769 0.950 . S
C1748 H1744 0.949 . S
C1748 C1756 1.574 . S
C1748 C1764 1.368 . S
H1749 C1757 0.950 . S
H1750 C1755 0.950 . S
H1751 C1756 0.949 . S
H1752 C1758 0.950 . S
H1753 C1759 0.950 . S
H1754 C1760 0.949 . S
C1755 H1750 0.950 . S
C1755 C1757 1.327 . S
C1755 C1761 1.429 . S
C1756 C1748 1.574 . S
C1756 H1751 0.949 . S
C1756 C1762 1.368 . S
C1757 C1741 1.349 . S
C1757 H1749 0.950 . S
C1757 C1755 1.327 . S
C1758 C1746 1.349 . S
C1758 H1752 0.950 . S
C1758 C1759 1.327 . S
C1759 H1753 0.950 . S
C1759 C1758 1.327 . S
C1759 C1763 1.429 . S
C1760 C1743 1.574 . S
C1760 H1754 0.949 . S
C1760 C1764 1.368 . S
C1761 C1742 1.429 . S
C1761 C1755 1.429 . S
C1761 C1762 1.523 . S
C1762 C1743 1.368 . S
C1762 C1756 1.368 . S
C1762 C1761 1.523 . S
C1763 C1747 1.429 . S
C1763 C1759 1.429 . S
C1763 C1764 1.523 . S
C1764 C1748 1.368 . S
C1764 C1760 1.368 . S
C1764 C1763 1.523 . S
H1765 C1740 0.950 . S
H1766 C1742 0.950 . S
H1767 C1743 0.949 . S
H1768 C1745 0.950 . S
H1769 C1747 0.950 . S
C1770 C1771 1.349 . S
C1770 C1772 1.327 . S
C1770 H1795 0.950 . S
C1771 C1770 1.349 . S
C1771 C1787 1.349 . S
C1772 C1770 1.327 . S
C1772 C1791 1.429 . S
C1772 H1796 0.950 . S
C1773 C1790 1.574 1_565 S
C1773 C1792 1.368 . S
C1773 H1797 0.949 . S
H1774 C1778 0.949 . S
C1775 C1776 1.349 . S
C1775 C1777 1.327 . S
C1775 H1798 0.950 . S
C1776 C1775 1.349 . S
C1776 C1788 1.349 . S
C1777 C1775 1.327 . S
C1777 C1793 1.429 . S
C1777 H1799 0.950 . S
C1778 H1774 0.949 . S
C1778 C1786 1.574 1_545 S
C1778 C1794 1.368 . S
H1779 C1787 0.950 . S
H1780 C1785 0.950 . S
H1781 C1786 0.949 . S
H1782 C1788 0.950 . S
H1783 C1789 0.950 . S
H1784 C1790 0.949 . S
C1785 H1780 0.950 . S
C1785 C1787 1.327 . S
C1785 C1791 1.429 . S
C1786 C1778 1.574 1_565 S
C1786 H1781 0.949 . S
C1786 C1792 1.368 . S
C1787 C1771 1.349 . S
C1787 H1779 0.950 . S
C1787 C1785 1.327 . S
C1788 C1776 1.349 . S
C1788 H1782 0.950 . S
C1788 C1789 1.327 . S
C1789 H1783 0.950 . S
C1789 C1788 1.327 . S
C1789 C1793 1.429 . S
C1790 C1773 1.574 1_545 S
C1790 H1784 0.949 . S
C1790 C1794 1.368 . S
C1791 C1772 1.429 . S
C1791 C1785 1.429 . S
C1791 C1792 1.523 . S
C1792 C1773 1.368 . S
C1792 C1786 1.368 . S
C1792 C1791 1.523 . S
C1793 C1777 1.429 . S
C1793 C1789 1.429 . S
C1793 C1794 1.523 . S
C1794 C1778 1.368 . S
C1794 C1790 1.368 . S
C1794 C1793 1.523 . S
H1795 C1770 0.950 . S
H1796 C1772 0.950 . S
H1797 C1773 0.949 . S
H1798 C1775 0.950 . S
H1799 C1777 0.950 . S
C1800 C1801 1.349 . S
C1800 C1802 1.327 . S
C1800 H1825 0.950 . S
C1801 C1800 1.349 . S
C1801 C1817 1.349 . S
C1802 C1800 1.327 . S
C1802 C1821 1.429 . S
C1802 H1826 0.950 . S
C1803 C1820 1.574 . S
C1803 C1822 1.368 . S
C1803 H1827 0.949 . S
H1804 C1808 0.949 . S
C1805 C1806 1.349 . S
C1805 C1807 1.327 . S
C1805 H1828 0.950 . S
C1806 C1805 1.349 . S
C1806 C1818 1.349 . S
C1807 C1805 1.327 . S
C1807 C1823 1.429 . S
C1807 H1829 0.950 . S
C1808 H1804 0.949 . S
C1808 C1816 1.574 . S
C1808 C1824 1.368 . S
H1809 C1817 0.950 . S
H1810 C1815 0.950 . S
H1811 C1816 0.949 . S
H1812 C1818 0.950 . S
H1813 C1819 0.950 . S
H1814 C1820 0.949 . S
C1815 H1810 0.950 . S
C1815 C1817 1.327 . S
C1815 C1821 1.429 . S
C1816 C1808 1.574 . S
C1816 H1811 0.949 . S
C1816 C1822 1.368 . S
C1817 C1801 1.349 . S
C1817 H1809 0.950 . S
C1817 C1815 1.327 . S
C1818 C1806 1.349 . S
C1818 H1812 0.950 . S
C1818 C1819 1.327 . S
C1819 H1813 0.950 . S
C1819 C1818 1.327 . S
C1819 C1823 1.429 . S
C1820 C1803 1.574 . S
C1820 H1814 0.949 . S
C1820 C1824 1.368 . S
C1821 C1802 1.429 . S
C1821 C1815 1.429 . S
C1821 C1822 1.523 . S
C1822 C1803 1.368 . S
C1822 C1816 1.368 . S
C1822 C1821 1.523 . S
C1823 C1807 1.429 . S
C1823 C1819 1.429 . S
C1823 C1824 1.523 . S
C1824 C1808 1.368 . S
C1824 C1820 1.368 . S
C1824 C1823 1.523 . S
H1825 C1800 0.950 . S
H1826 C1802 0.950 . S
H1827 C1803 0.949 . S
H1828 C1805 0.950 . S
H1829 C1807 0.950 . S
C1830 C1831 1.349 . S
C1830 C1832 1.327 . S
C1830 H1855 0.950 . S
C1831 C1830 1.349 . S
C1831 C1847 1.349 . S
C1832 C1830 1.327 . S
C1832 C1851 1.429 . S
C1832 H1856 0.950 . S
C1833 C1850 1.574 . S
C1833 C1852 1.368 . S
C1833 H1857 0.949 . S
H1834 C1838 0.949 . S
C1835 C1836 1.349 . S
C1835 C1837 1.327 . S
C1835 H1858 0.950 . S
C1836 C1835 1.349 . S
C1836 C1848 1.349 . S
C1837 C1835 1.327 . S
C1837 C1853 1.429 . S
C1837 H1859 0.950 . S
C1838 H1834 0.949 . S
C1838 C1846 1.574 . S
C1838 C1854 1.368 . S
H1839 C1847 0.950 . S
H1840 C1845 0.950 . S
H1841 C1846 0.949 . S
H1842 C1848 0.950 . S
H1843 C1849 0.950 . S
H1844 C1850 0.949 . S
C1845 H1840 0.950 . S
C1845 C1847 1.327 . S
C1845 C1851 1.429 . S
C1846 C1838 1.574 . S
C1846 H1841 0.949 . S
C1846 C1852 1.368 . S
C1847 C1831 1.349 . S
C1847 H1839 0.950 . S
C1847 C1845 1.327 . S
C1848 C1836 1.349 . S
C1848 H1842 0.950 . S
C1848 C1849 1.327 . S
C1849 H1843 0.950 . S
C1849 C1848 1.327 . S
C1849 C1853 1.429 . S
C1850 C1833 1.574 . S
C1850 H1844 0.949 . S
C1850 C1854 1.368 . S
C1851 C1832 1.429 . S
C1851 C1845 1.429 . S
C1851 C1852 1.523 . S
C1852 C1833 1.368 . S
C1852 C1846 1.368 . S
C1852 C1851 1.523 . S
C1853 C1837 1.429 . S
C1853 C1849 1.429 . S
C1853 C1854 1.523 . S
C1854 C1838 1.368 . S
C1854 C1850 1.368 . S
C1854 C1853 1.523 . S
H1855 C1830 0.950 . S
H1856 C1832 0.950 . S
H1857 C1833 0.949 . S
H1858 C1835 0.950 . S
H1859 C1837 0.950 . S
C1860 C1861 1.349 . S
C1860 C1862 1.327 . S
C1860 H1885 0.950 . S
C1861 C1860 1.349 . S
C1861 C1877 1.349 . S
C1862 C1860 1.327 . S
C1862 C1881 1.429 . S
C1862 H1886 0.950 . S
C1863 C1880 1.574 . S
C1863 C1882 1.368 . S
C1863 H1887 0.949 . S
H1864 C1868 0.949 . S
C1865 C1866 1.349 . S
C1865 C1867 1.327 . S
C1865 H1888 0.950 . S
C1866 C1865 1.349 . S
C1866 C1878 1.349 . S
C1867 C1865 1.327 . S
C1867 C1883 1.429 . S
C1867 H1889 0.950 . S
C1868 H1864 0.949 . S
C1868 C1876 1.574 . S
C1868 C1884 1.368 . S
H1869 C1877 0.950 . S
H1870 C1875 0.950 . S
H1871 C1876 0.949 . S
H1872 C1878 0.950 . S
H1873 C1879 0.950 . S
H1874 C1880 0.949 . S
C1875 H1870 0.950 . S
C1875 C1877 1.327 . S
C1875 C1881 1.429 . S
C1876 C1868 1.574 . S
C1876 H1871 0.949 . S
C1876 C1882 1.368 . S
C1877 C1861 1.349 . S
C1877 H1869 0.950 . S
C1877 C1875 1.327 . S
C1878 C1866 1.349 . S
C1878 H1872 0.950 . S
C1878 C1879 1.327 . S
C1879 H1873 0.950 . S
C1879 C1878 1.327 . S
C1879 C1883 1.429 . S
C1880 C1863 1.574 . S
C1880 H1874 0.949 . S
C1880 C1884 1.368 . S
C1881 C1862 1.429 . S
C1881 C1875 1.429 . S
C1881 C1882 1.523 . S
C1882 C1863 1.368 . S
C1882 C1876 1.368 . S
C1882 C1881 1.523 . S
C1883 C1867 1.429 . S
C1883 C1879 1.429 . S
C1883 C1884 1.523 . S
C1884 C1868 1.368 . S
C1884 C1880 1.368 . S
C1884 C1883 1.523 . S
H1885 C1860 0.950 . S
H1886 C1862 0.950 . S
H1887 C1863 0.949 . S
H1888 C1865 0.950 . S
H1889 C1867 0.950 . S
C1890 C1891 1.349 . S
C1890 C1892 1.327 . S
C1890 H1915 0.950 . S
C1891 C1890 1.349 . S
C1891 C1907 1.349 . S
C1892 C1890 1.327 . S
C1892 C1911 1.429 . S
C1892 H1916 0.950 . S
C1893 C1910 1.574 . S
C1893 C1912 1.368 . S
C1893 H1917 0.949 . S
H1894 C1898 0.949 . S
C1895 C1896 1.349 . S
C1895 C1897 1.327 . S
C1895 H1918 0.950 . S
C1896 C1895 1.349 . S
C1896 C1908 1.349 . S
C1897 C1895 1.327 . S
C1897 C1913 1.429 . S
C1897 H1919 0.950 . S
C1898 H1894 0.949 . S
C1898 C1906 1.574 . S
C1898 C1914 1.368 . S
H1899 C1907 0.950 . S
H1900 C1905 0.950 . S
H1901 C1906 0.949 . S
H1902 C1908 0.950 . S
H1903 C1909 0.950 . S
H1904 C1910 0.949 . S
C1905 H1900 0.950 . S
C1905 C1907 1.327 . S
C1905 C1911 1.429 . S
C1906 C1898 1.574 . S
C1906 H1901 0.949 . S
C1906 C1912 1.368 . S
C1907 C1891 1.349 . S
C1907 H1899 0.950 . S
C1907 C1905 1.327 . S
C1908 C1896 1.349 . S
C1908 H1902 0.950 . S
C1908 C1909 1.327 . S
C1909 H1903 0.950 . S
C1909 C1908 1.327 . S
C1909 C1913 1.429 . S
C1910 C1893 1.574 . S
C1910 H1904 0.949 . S
C1910 C1914 1.368 . S
C1911 C1892 1.429 . S
C1911 C1905 1.429 . S
C1911 C1912 1.523 . S
C1912 C1893 1.368 . S
C1912 C1906 1.368 . S
C1912 C1911 1.523 . S
C1913 C1897 1.429 . S
C1913 C1909 1.429 . S
C1913 C1914 1.523 . S
C1914 C1898 1.368 . S
C1914 C1910 1.368 . S
C1914 C1913 1.523 . S
H1915 C1890 0.950 . S
H1916 C1892 0.950 . S
H1917 C1893 0.949 . S
H1918 C1895 0.950 . S
H1919 C1897 0.950 . S
C1920 C1921 1.349 . S
C1920 C1922 1.327 . S
C1920 H1945 0.950 . S
C1921 C1920 1.349 . S
C1921 C1937 1.349 . S
C1922 C1920 1.327 . S
C1922 C1941 1.429 . S
C1922 H1946 0.950 . S
C1923 C1940 1.574 . S
C1923 C1942 1.368 . S
C1923 H1947 0.949 . S
H1924 C1928 0.949 . S
C1925 C1926 1.349 . S
C1925 C1927 1.327 . S
C1925 H1948 0.950 . S
C1926 C1925 1.349 . S
C1926 C1938 1.349 . S
C1927 C1925 1.327 . S
C1927 C1943 1.429 . S
C1927 H1949 0.950 . S
C1928 H1924 0.949 . S
C1928 C1936 1.574 . S
C1928 C1944 1.368 . S
H1929 C1937 0.950 . S
H1930 C1935 0.950 . S
H1931 C1936 0.949 . S
H1932 C1938 0.950 . S
H1933 C1939 0.950 . S
H1934 C1940 0.949 . S
C1935 H1930 0.950 . S
C1935 C1937 1.327 . S
C1935 C1941 1.429 . S
C1936 C1928 1.574 . S
C1936 H1931 0.949 . S
C1936 C1942 1.368 . S
C1937 C1921 1.349 . S
C1937 H1929 0.950 . S
C1937 C1935 1.327 . S
C1938 C1926 1.349 . S
C1938 H1932 0.950 . S
C1938 C1939 1.327 . S
C1939 H1933 0.950 . S
C1939 C1938 1.327 . S
C1939 C1943 1.429 . S
C1940 C1923 1.574 . S
C1940 H1934 0.949 . S
C1940 C1944 1.368 . S
C1941 C1922 1.429 . S
C1941 C1935 1.429 . S
C1941 C1942 1.523 . S
C1942 C1923 1.368 . S
C1942 C1936 1.368 . S
C1942 C1941 1.523 . S
C1943 C1927 1.429 . S
C1943 C1939 1.429 . S
C1943 C1944 1.523 . S
C1944 C1928 1.368 . S
C1944 C1940 1.368 . S
C1944 C1943 1.523 . S
H1945 C1920 0.950 . S
H1946 C1922 0.950 . S
H1947 C1923 0.949 . S
H1948 C1925 0.950 . S
H1949 C1927 0.950 . S
C1950 C1951 1.349 . S
C1950 C1952 1.327 . S
C1950 H1975 0.950 . S
C1951 C1950 1.349 . S
C1951 C1967 1.349 . S
C1952 C1950 1.327 . S
C1952 C1971 1.429 . S
C1952 H1976 0.950 . S
C1953 C1970 1.574 . S
C1953 C1972 1.368 . S
C1953 H1977 0.949 . S
H1954 C1958 0.949 . S
C1955 C1956 1.349 . S
C1955 C1957 1.327 . S
C1955 H1978 0.950 . S
C1956 C1955 1.349 . S
C1956 C1968 1.349 . S
C1957 C1955 1.327 . S
C1957 C1973 1.429 . S
C1957 H1979 0.950 . S
C1958 H1954 0.949 . S
C1958 C1966 1.574 . S
C1958 C1974 1.368 . S
H1959 C1967 0.950 . S
H1960 C1965 0.950 . S
H1961 C1966 0.949 . S
H1962 C1968 0.950 . S
H1963 C1969 0.950 . S
H1964 C1970 0.949 . S
C1965 H1960 0.950 . S
C1965 C1967 1.327 . S
C1965 C1971 1.429 . S
C1966 C1958 1.574 . S
C1966 H1961 0.949 . S
C1966 C1972 1.368 . S
C1967 C1951 1.349 . S
C1967 H1959 0.950 . S
C1967 C1965 1.327 . S
C1968 C1956 1.349 . S
C1968 H1962 0.950 . S
C1968 C1969 1.327 . S
C1969 H1963 0.950 . S
C1969 C1968 1.327 . S
C1969 C1973 1.429 . S
C1970 C1953 1.574 . S
C1970 H1964 0.949 . S
C1970 C1974 1.368 . S
C1971 C1952 1.429 . S
C1971 C1965 1.429 . S
C1971 C1972 1.523 . S
C1972 C1953 1.368 . S
C1972 C1966 1.368 . S
C1972 C1971 1.523 . S
C1973 C1957 1.429 . S
C1973 C1969 1.429 . S
C1973 C1974 1.523 . S
C1974 C1958 1.368 . S
C1974 C1970 1.368 . S
C1974 C1973 1.523 . S
H1975 C1950 0.950 . S
H1976 C1952 0.950 . S
H1977 C1953 0.949 . S
H1978 C1955 0.950 . S
H1979 C1957 0.950 . S
C1980 C1981 1.349 . S
C1980 C1982 1.327 . S
C1980 H2005 0.950 . S
C1981 C1980 1.349 . S
C1981 C1997 1.349 . S
C1982 C1980 1.327 . S
C1982 C2001 1.429 . S
C1982 H2006 0.950 . S
C1983 C2000 1.574 . S
C1983 C2002 1.368 . S
C1983 H2007 0.949 . S
H1984 C1988 0.949 . S
C1985 C1986 1.349 . S
C1985 C1987 1.327 . S
C1985 H2008 0.950 . S
C1986 C1985 1.349 . S
C1986 C1998 1.349 . S
C1987 C1985 1.327 . S
C1987 C2003 1.429 . S
C1987 H2009 0.950 . S
C1988 H1984 0.949 . S
C1988 C1996 1.574 . S
C1988 C2004 1.368 . S
H1989 C1997 0.950 . S
H1990 C1995 0.950 . S
H1991 C1996 0.949 . S
H1992 C1998 0.950 . S
H1993 C1999 0.950 . S
H1994 C2000 0.949 . S
C1995 H1990 0.950 . S
C1995 C1997 1.327 . S
C1995 C2001 1.429 . S
C1996 C1988 1.574 . S
C1996 H1991 0.949 . S
C1996 C2002 1.368 . S
C1997 C1981 1.349 . S
C1997 H1989 0.950 . S
C1997 C1995 1.327 . S
C1998 C1986 1.349 . S
C1998 H1992 0.950 . S
C1998 C1999 1.327 . S
C1999 H1993 0.950 . S
C1999 C1998 1.327 . S
C1999 C2003 1.429 . S
C2000 C1983 1.574 . S
C2000 H1994 0.949 . S
C2000 C2004 1.368 . S
C2001 C1982 1.429 . S
C2001 C1995 1.429 . S
C2001 C2002 1.523 . S
C2002 C1983 1.368 . S
C2002 C1996 1.368 . S
C2002 C2001 1.523 . S
C2003 C1987 1.429 . S
C2003 C1999 1.429 . S
C2003 C2004 1.523 . S
C2004 C1988 1.368 . S
C2004 C2000 1.368 . S
C2004 C2003 1.523 . S
H2005 C1980 0.950 . S
H2006 C1982 0.950 . S
H2007 C1983 0.949 . S
H2008 C1985 0.950 . S
H2009 C1987 0.950 . S
C2010 C2011 1.349 . S
C2010 C2012 1.327 . S
C2010 H2035 0.950 . S
C2011 C2010 1.349 . S
C2011 C2027 1.349 . S
C2012 C2010 1.327 . S
C2012 C2031 1.429 . S
C2012 H2036 0.950 . S
C2013 C2030 1.574 . S
C2013 C2032 1.368 . S
C2013 H2037 0.949 . S
H2014 C2018 0.949 . S
C2015 C2016 1.349 . S
C2015 C2017 1.327 . S
C2015 H2038 0.950 . S
C2016 C2015 1.349 . S
C2016 C2028 1.349 . S
C2017 C2015 1.327 . S
C2017 C2033 1.429 . S
C2017 H2039 0.950 . S
C2018 H2014 0.949 . S
C2018 C2026 1.574 . S
C2018 C2034 1.368 . S
H2019 C2027 0.950 . S
H2020 C2025 0.950 . S
H2021 C2026 0.949 . S
H2022 C2028 0.950 . S
H2023 C2029 0.950 . S
H2024 C2030 0.949 . S
C2025 H2020 0.950 . S
C2025 C2027 1.327 . S
C2025 C2031 1.429 . S
C2026 C2018 1.574 . S
C2026 H2021 0.949 . S
C2026 C2032 1.368 . S
C2027 C2011 1.349 . S
C2027 H2019 0.950 . S
C2027 C2025 1.327 . S
C2028 C2016 1.349 . S
C2028 H2022 0.950 . S
C2028 C2029 1.327 . S
C2029 H2023 0.950 . S
C2029 C2028 1.327 . S
C2029 C2033 1.429 . S
C2030 C2013 1.574 . S
C2030 H2024 0.949 . S
C2030 C2034 1.368 . S
C2031 C2012 1.429 . S
C2031 C2025 1.429 . S
C2031 C2032 1.523 . S
C2032 C2013 1.368 . S
C2032 C2026 1.368 . S
C2032 C2031 1.523 . S
C2033 C2017 1.429 . S
C2033 C2029 1.429 . S
C2033 C2034 1.523 . S
C2034 C2018 1.368 . S
C2034 C2030 1.368 . S
C2034 C2033 1.523 . S
H2035 C2010 0.950 . S
H2036 C2012 0.950 . S
H2037 C2013 0.949 . S
H2038 C2015 0.950 . S
H2039 C2017 0.950 . S
C2040 C2041 1.349 . S
C2040 C2042 1.327 . S
C2040 H2065 0.950 . S
C2041 C2040 1.349 . S
C2041 C2057 1.349 . S
C2042 C2040 1.327 . S
C2042 C2061 1.429 . S
C2042 H2066 0.950 . S
C2043 C2060 1.574 . S
C2043 C2062 1.368 . S
C2043 H2067 0.949 . S
H2044 C2048 0.949 . S
C2045 C2046 1.349 . S
C2045 C2047 1.327 . S
C2045 H2068 0.950 . S
C2046 C2045 1.349 . S
C2046 C2058 1.349 . S
C2047 C2045 1.327 . S
C2047 C2063 1.429 . S
C2047 H2069 0.950 . S
C2048 H2044 0.949 . S
C2048 C2056 1.574 . S
C2048 C2064 1.368 . S
H2049 C2057 0.950 . S
H2050 C2055 0.950 . S
H2051 C2056 0.949 . S
H2052 C2058 0.950 . S
H2053 C2059 0.950 . S
H2054 C2060 0.949 . S
C2055 H2050 0.950 . S
C2055 C2057 1.327 . S
C2055 C2061 1.429 . S
C2056 C2048 1.574 . S
C2056 H2051 0.949 . S
C2056 C2062 1.368 . S
C2057 C2041 1.349 . S
C2057 H2049 0.950 . S
C2057 C2055 1.327 . S
C2058 C2046 1.349 . S
C2058 H2052 0.950 . S
C2058 C2059 1.327 . S
C2059 H2053 0.950 . S
C2059 C2058 1.327 . S
C2059 C2063 1.429 . S
C2060 C2043 1.574 . S
C2060 H2054 0.949 . S
C2060 C2064 1.368 . S
C2061 C2042 1.429 . S
C2061 C2055 1.429 . S
C2061 C2062 1.523 . S
C2062 C2043 1.368 . S
C2062 C2056 1.368 . S
C2062 C2061 1.523 . S
C2063 C2047 1.429 . S
C2063 C2059 1.429 . S
C2063 C2064 1.523 . S
C2064 C2048 1.368 . S
C2064 C2060 1.368 . S
C2064 C2063 1.523 . S
H2065 C2040 0.950 . S
H2066 C2042 0.950 . S
H2067 C2043 0.949 . S
H2068 C2045 0.950 . S
H2069 C2047 0.950 . S
C2070 C2071 1.349 . S
C2070 C2072 1.327 . S
C2070 H2095 0.950 . S
C2071 C2070 1.349 . S
C2071 C2087 1.349 . S
C2072 C2070 1.327 . S
C2072 C2091 1.429 . S
C2072 H2096 0.950 . S
C2073 C2090 1.574 . S
C2073 C2092 1.368 . S
C2073 H2097 0.949 . S
H2074 C2078 0.949 . S
C2075 C2076 1.349 . S
C2075 C2077 1.327 . S
C2075 H2098 0.950 1_554 S
C2076 C2075 1.349 . S
C2076 C2088 1.349 . S
C2077 C2075 1.327 . S
C2077 C2093 1.429 . S
C2077 H2099 0.950 . S
C2078 H2074 0.949 . S
C2078 C2086 1.574 . S
C2078 C2094 1.368 . S
H2079 C2087 0.950 . S
H2080 C2085 0.950 . S
H2081 C2086 0.949 . S
H2082 C2088 0.950 . S
H2083 C2089 0.950 . S
H2084 C2090 0.949 . S
C2085 H2080 0.950 . S
C2085 C2087 1.327 . S
C2085 C2091 1.429 . S
C2086 C2078 1.574 . S
C2086 H2081 0.949 . S
C2086 C2092 1.368 . S
C2087 C2071 1.349 . S
C2087 H2079 0.950 . S
C2087 C2085 1.327 . S
C2088 C2076 1.349 . S
C2088 H2082 0.950 . S
C2088 C2089 1.327 . S
C2089 H2083 0.950 . S
C2089 C2088 1.327 . S
C2089 C2093 1.429 . S
C2090 C2073 1.574 . S
C2090 H2084 0.949 . S
C2090 C2094 1.368 . S
C2091 C2072 1.429 . S
C2091 C2085 1.429 . S
C2091 C2092 1.523 . S
C2092 C2073 1.368 . S
C2092 C2086 1.368 . S
C2092 C2091 1.523 . S
C2093 C2077 1.429 . S
C2093 C2089 1.429 . S
C2093 C2094 1.523 . S
C2094 C2078 1.368 . S
C2094 C2090 1.368 . S
C2094 C2093 1.523 . S
H2095 C2070 0.950 . S
H2096 C2072 0.950 . S
H2097 C2073 0.949 . S
H2098 C2075 0.950 1_556 S
H2099 C2077 0.950 . S
C2100 C2101 1.349 . S
C2100 C2102 1.327 . S
C2100 H2125 0.950 . S
C2101 C2100 1.349 . S
C2101 C2117 1.349 . S
C2102 C2100 1.327 . S
C2102 C2121 1.429 . S
C2102 H2126 0.950 . S
C2103 C2120 1.574 . S
C2103 C2122 1.368 . S
C2103 H2127 0.949 . S
H2104 C2108 0.949 . S
C2105 C2106 1.349 . S
C2105 C2107 1.327 . S
C2105 H2128 0.950 . S
C2106 C2105 1.349 . S
C2106 C2118 1.349 . S
C2107 C2105 1.327 . S
C2107 C2123 1.429 . S
C2107 H2129 0.950 . S
C2108 H2104 0.949 . S
C2108 C2116 1.574 . S
C2108 C2124 1.368 . S
H2109 C2117 0.950 . S
H2110 C2115 0.950 . S
H2111 C2116 0.949 . S
H2112 C2118 0.950 . S
H2113 C2119 0.950 . S
H2114 C2120 0.949 . S
C2115 H2110 0.950 . S
C2115 C2117 1.327 . S
C2115 C2121 1.429 . S
C2116 C2108 1.574 . S
C2116 H2111 0.949 . S
C2116 C2122 1.368 . S
C2117 C2101 1.349 . S
C2117 H2109 0.950 . S
C2117 C2115 1.327 . S
C2118 C2106 1.349 . S
C2118 H2112 0.950 . S
C2118 C2119 1.327 . S
C2119 H2113 0.950 . S
C2119 C2118 1.327 . S
C2119 C2123 1.429 . S
C2120 C2103 1.574 . S
C2120 H2114 0.949 . S
C2120 C2124 1.368 . S
C2121 C2102 1.429 . S
C2121 C2115 1.429 . S
C2121 C2122 1.523 . S
C2122 C2103 1.368 . S
C2122 C2116 1.368 . S
C2122 C2121 1.523 . S
C2123 C2107 1.429 . S
C2123 C2119 1.429 . S
C2123 C2124 1.523 . S
C2124 C2108 1.368 . S
C2124 C2120 1.368 . S
C2124 C2123 1.523 . S
H2125 C2100 0.950 . S
H2126 C2102 0.950 . S
H2127 C2103 0.949 . S
H2128 C2105 0.950 . S
H2129 C2107 0.950 . S
C2130 C2131 1.349 . S
C2130 C2132 1.327 . S
C2130 H2155 0.950 . S
C2131 C2130 1.349 . S
C2131 C2147 1.349 . S
C2132 C2130 1.327 . S
C2132 C2151 1.429 . S
C2132 H2156 0.950 . S
C2133 C2150 1.574 . S
C2133 C2152 1.368 . S
C2133 H2157 0.949 . S
H2134 C2138 0.949 . S
C2135 C2136 1.349 . S
C2135 C2137 1.327 . S
C2135 H2158 0.950 . S
C2136 C2135 1.349 . S
C2136 C2148 1.349 . S
C2137 C2135 1.327 . S
C2137 C2153 1.429 . S
C2137 H2159 0.950 . S
C2138 H2134 0.949 . S
C2138 C2146 1.574 . S
C2138 C2154 1.368 . S
H2139 C2147 0.960 . S
H2140 C2145 0.950 . S
H2141 C2146 0.949 . S
H2142 C2148 0.950 . S
H2143 C2149 0.950 . S
H2144 C2150 0.949 . S
C2145 H2140 0.950 . S
C2145 C2147 1.327 . S
C2145 C2151 1.429 . S
C2146 C2138 1.574 . S
C2146 H2141 0.949 . S
C2146 C2152 1.368 . S
C2147 C2131 1.349 . S
C2147 H2139 0.960 . S
C2147 C2145 1.327 . S
C2148 C2136 1.349 . S
C2148 H2142 0.950 . S
C2148 C2149 1.327 . S
C2149 H2143 0.950 . S
C2149 C2148 1.327 . S
C2149 C2153 1.429 . S
C2150 C2133 1.574 . S
C2150 H2144 0.949 . S
C2150 C2154 1.368 . S
C2151 C2132 1.429 . S
C2151 C2145 1.429 . S
C2151 C2152 1.523 . S
C2152 C2133 1.368 . S
C2152 C2146 1.368 . S
C2152 C2151 1.523 . S
C2153 C2137 1.429 . S
C2153 C2149 1.429 . S
C2153 C2154 1.523 . S
C2154 C2138 1.368 . S
C2154 C2150 1.368 . S
C2154 C2153 1.523 . S
H2155 C2130 0.950 . S
H2156 C2132 0.950 . S
H2157 C2133 0.949 . S
H2158 C2135 0.950 . S
H2159 C2137 0.950 . S
C541 N14 0.682 . S
C546 C70 0.493 . S
C571 C10 0.493 . S
C576 N44 0.682 . S
C601 N74 0.682 . S
C606 C40 0.493 . S
C631 C121 0.493 . S
C636 N96 0.682 . S
C661 C151 0.493 . S
C666 N126 0.682 . S
C691 N156 0.682 . S
C696 C91 0.493 . S
C721 C250 0.493 . S
C726 N194 0.682 . S
C751 N224 0.682 . S
C756 C190 0.493 . S
C781 C220 0.493 . S
C786 N254 0.682 . S
C811 N276 0.682 . S
C816 C301 0.493 . S
C841 C331 0.493 . S
C846 N306 0.682 . S
C871 N336 0.682 . S
C876 C271 0.493 . S
C901 C430 0.493 . S
C906 N374 0.682 . S
C931 N404 0.682 . S
C936 C370 0.493 . S
C961 N434 0.682 . S
C966 C400 0.493 . S
C991 N456 0.682 . S
C996 C481 0.493 . S
C1021 C511 0.493 . S
C1026 N486 0.682 . S
C1051 C451 0.493 . S
C1056 N516 0.682 . S
C1081 C166 1.187 . S
C1086 C16 1.189 . S
C1111 C106 1.186 . S
C1116 C46 1.189 . S
C1141 C136 1.187 . S
C1146 C76 1.189 . S
C1171 C57 1.186 . S
C1176 C117 1.189 . S
C1201 C147 1.189 . S
C1206 C87 1.186 . S
C1231 C27 1.186 . S
C1236 C177 1.189 . S
C1261 C196 1.189 . S
C1266 C346 1.186 . S
C1291 C226 1.189 . S
C1296 C286 1.186 . S
C1321 C316 1.187 . S
C1326 C256 1.189 . S
C1351 C297 1.189 . S
C1356 C237 1.186 . S
C1381 C327 1.189 . S
C1386 C267 1.186 . S
C1411 C357 1.189 . S
C1416 C207 1.187 . S
C1441 C376 1.189 . S
C1446 C526 1.186 . S
C1471 C406 1.189 . S
C1476 C466 1.186 . S
C1501 C436 1.189 . S
C1506 C496 1.186 . S
C1531 C477 1.189 . S
C1536 C417 1.186 . S
C1561 C507 1.189 . S
C1566 C447 1.186 . S
C1591 C537 1.189 . S
C1596 C387 1.187 . S
C1621 N314 2.265 . S
C1626 C1 2.228 1_556 S
C1651 C31 2.228 1_556 S
C1656 N344 2.265 . S
C1681 N284 2.265 . S
C1686 C61 2.228 1_556 S
C1711 C100 2.235 . S
C1716 N246 2.265 . S
C1741 C130 2.235 . S
C1746 N186 2.265 . S
C1771 N216 2.265 . S
C1776 C160 2.235 . S
C1801 C181 2.235 . S
C1806 N494 2.265 1_455 S
C1831 C211 2.235 . S
C1836 N524 2.265 . S
C1861 C241 2.235 . S
C1866 N464 2.265 1_565 S
C1891 N426 2.265 1_565 S
C1896 C280 2.235 . S
C1921 N366 2.265 1_455 S
C1926 C310 2.235 . S
C1951 N396 2.265 . S
C1956 C340 2.235 . S
C1981 N134 2.265 . S
C1986 C361 2.235 . S
C2011 C391 2.235 . S
C2016 N164 2.265 . S
C2041 N104 2.265 . S
C2046 C421 2.235 . S
C2071 C460 2.235 . S
C2076 N66 2.265 . S
C2101 C490 2.235 . S
C2106 N6 2.265 . S
C2131 N36 2.265 . S
C2136 C520 2.235 . S
