# Generated by pormake.
# Topology wjd, (6)-cn, num edge types: 1
# Building blocks:
#     Node 0, Type 0, BuildingBlock: KUMJIN_clean_sbu_0, # of connection points: 6
#     Node 1, Type 0, BuildingBlock: KUMJIN_clean_sbu_0, # of connection points: 6
#     Node 2, Type 0, BuildingBlock: KUMJIN_clean_sbu_0, # of connection points: 6
#     Node 3, Type 0, BuildingBlock: KUMJIN_clean_sbu_0, # of connection points: 6
#     Node 4, Type 0, BuildingBlock: KUMJIN_clean_sbu_0, # of connection points: 6
#     Node 5, Type 0, BuildingBlock: KUMJIN_clean_sbu_0, # of connection points: 6
#     Node 6, Type 0, BuildingBlock: KUMJIN_clean_sbu_0, # of connection points: 6
#     Node 7, Type 0, BuildingBlock: KUMJIN_clean_sbu_0, # of connection points: 6
#     Node 8, Type 0, BuildingBlock: KUMJIN_clean_sbu_0, # of connection points: 6
#     Node 9, Type 0, BuildingBlock: KUMJIN_clean_sbu_0, # of connection points: 6
#     Node 10, Type 0, BuildingBlock: KUMJIN_clean_sbu_0, # of connection points: 6
#     Node 11, Type 0, BuildingBlock: KUMJIN_clean_sbu_0, # of connection points: 6
#     Edge 12, Type (0, 0), BuildingBlock: ZUJKAS_clean_linker_0, # of connection points: 2
#     Edge 13, Type (0, 0), BuildingBlock: ZUJKAS_clean_linker_0, # of connection points: 2
#     Edge 14, Type (0, 0), BuildingBlock: ZUJKAS_clean_linker_0, # of connection points: 2
#     Edge 15, Type (0, 0), BuildingBlock: ZUJKAS_clean_linker_0, # of connection points: 2
#     Edge 16, Type (0, 0), BuildingBlock: ZUJKAS_clean_linker_0, # of connection points: 2
#     Edge 17, Type (0, 0), BuildingBlock: ZUJKAS_clean_linker_0, # of connection points: 2
#     Edge 18, Type (0, 0), BuildingBlock: ZUJKAS_clean_linker_0, # of connection points: 2
#     Edge 19, Type (0, 0), BuildingBlock: ZUJKAS_clean_linker_0, # of connection points: 2
#     Edge 20, Type (0, 0), BuildingBlock: ZUJKAS_clean_linker_0, # of connection points: 2
#     Edge 21, Type (0, 0), BuildingBlock: ZUJKAS_clean_linker_0, # of connection points: 2
#     Edge 22, Type (0, 0), BuildingBlock: ZUJKAS_clean_linker_0, # of connection points: 2
#     Edge 23, Type (0, 0), BuildingBlock: ZUJKAS_clean_linker_0, # of connection points: 2
#     Edge 24, Type (0, 0), BuildingBlock: ZUJKAS_clean_linker_0, # of connection points: 2
#     Edge 25, Type (0, 0), BuildingBlock: ZUJKAS_clean_linker_0, # of connection points: 2
#     Edge 26, Type (0, 0), BuildingBlock: ZUJKAS_clean_linker_0, # of connection points: 2
#     Edge 27, Type (0, 0), BuildingBlock: ZUJKAS_clean_linker_0, # of connection points: 2
#     Edge 28, Type (0, 0), BuildingBlock: ZUJKAS_clean_linker_0, # of connection points: 2
#     Edge 29, Type (0, 0), BuildingBlock: ZUJKAS_clean_linker_0, # of connection points: 2
#     Edge 30, Type (0, 0), BuildingBlock: ZUJKAS_clean_linker_0, # of connection points: 2
#     Edge 31, Type (0, 0), BuildingBlock: ZUJKAS_clean_linker_0, # of connection points: 2
#     Edge 32, Type (0, 0), BuildingBlock: ZUJKAS_clean_linker_0, # of connection points: 2
#     Edge 33, Type (0, 0), BuildingBlock: ZUJKAS_clean_linker_0, # of connection points: 2
#     Edge 34, Type (0, 0), BuildingBlock: ZUJKAS_clean_linker_0, # of connection points: 2
#     Edge 35, Type (0, 0), BuildingBlock: ZUJKAS_clean_linker_0, # of connection points: 2
#     Edge 36, Type (0, 0), BuildingBlock: ZUJKAS_clean_linker_0, # of connection points: 2
#     Edge 37, Type (0, 0), BuildingBlock: ZUJKAS_clean_linker_0, # of connection points: 2
#     Edge 38, Type (0, 0), BuildingBlock: ZUJKAS_clean_linker_0, # of connection points: 2
#     Edge 39, Type (0, 0), BuildingBlock: ZUJKAS_clean_linker_0, # of connection points: 2
#     Edge 40, Type (0, 0), BuildingBlock: ZUJKAS_clean_linker_0, # of connection points: 2
#     Edge 41, Type (0, 0), BuildingBlock: ZUJKAS_clean_linker_0, # of connection points: 2
#     Edge 42, Type (0, 0), BuildingBlock: ZUJKAS_clean_linker_0, # of connection points: 2
#     Edge 43, Type (0, 0), BuildingBlock: ZUJKAS_clean_linker_0, # of connection points: 2
#     Edge 44, Type (0, 0), BuildingBlock: ZUJKAS_clean_linker_0, # of connection points: 2
#     Edge 45, Type (0, 0), BuildingBlock: ZUJKAS_clean_linker_0, # of connection points: 2
#     Edge 46, Type (0, 0), BuildingBlock: ZUJKAS_clean_linker_0, # of connection points: 2
#     Edge 47, Type (0, 0), BuildingBlock: ZUJKAS_clean_linker_0, # of connection points: 2
# Relax obj value: 0.099
# Max RMSD: 0.208
# Mean RMSD: 0.208
data_MOF--net-wjd--node1-KUMJIN_clean_sbu_0--edge1-ZUJKAS_clean_linker_0
_symmetry_space_group_name_H-M    P1
_symmetry_Int_Tables_number       1
_symmetry_cell_setting            triclinic
loop_
_symmetry_equiv_pos_as_xyz
'x, y, z'
_cell_length_a     47.052297
_cell_length_b     47.050947
_cell_length_c     71.365686
_cell_angle_alpha  89.999987
_cell_angle_beta   90.081237
_cell_angle_gamma 119.98925
loop_
_atom_site_label
_atom_site_type_symbol
_atom_site_fract_x
_atom_site_fract_y
_atom_site_fract_z
_atom_type_partial_charge
Eu0 Eu 0.37656 0.19032 0.1129 0.0
C1 C 0.3705 0.08319 0.16761 0.0
C2 C 0.40049 0.06075 0.15187 0.0
C3 C 0.39979 0.06235 0.1859 0.0
C4 C 0.38111 0.07589 0.15122 0.0
C5 C 0.37923 0.07601 0.18515 0.0
C6 C 0.41037 0.0547 0.16929 0.0
C7 C 0.34476 0.09416 0.19982 0.0
N8 N 0.35047 0.0961 0.16637 0.0
C9 C 0.33667 0.10067 0.18209 0.0
C10 C 0.36644 0.08211 0.20138 0.0
Eu11 Eu 0.33966 0.10867 0.136 0.0
N12 N 0.37103 0.08198 0.13464 0.0
C13 C 0.37751 0.0714 0.11823 0.0
C14 C 0.40853 0.05129 0.13502 0.0
C15 C 0.39666 0.05631 0.11815 0.0
H16 H 0.32016 0.1103 0.18097 0.0
H17 H 0.40231 0.04861 0.10505 0.0
H18 H 0.42559 0.04345 0.17006 0.0
H19 H 0.3344 0.09855 0.21226 0.0
H20 H 0.36864 0.07517 0.10506 0.0
H21 H 0.32486 0.2597 0.14502 0.0
H22 H 0.4232 0.03943 0.13491 0.0
H23 H 0.39471 0.18898 0.06784 0.0
H24 H 0.3525 0.22717 0.14432 0.0
H25 H 0.38112 0.20242 0.03679 0.0
H26 H 0.40702 0.05691 0.19925 0.0
H27 H 0.30507 0.2716 0.11561 0.0
H28 H 0.30022 0.26686 0.08059 0.0
H29 H 0.37263 0.07703 0.21513 0.0
H30 H 0.31424 0.24991 0.05105 0.0
N31 N 0.3469 0.21874 0.11489 0.0
C32 C 0.34348 0.23148 0.13138 0.0
C33 C 0.31676 0.25678 0.11523 0.0
C34 C 0.32153 0.24487 0.09826 0.0
C35 C 0.32796 0.25018 0.13185 0.0
C36 C 0.33707 0.22584 0.09853 0.0
H37 H 0.34469 0.22613 0.03456 0.0
N38 N 0.36391 0.20213 0.08276 0.0
C39 C 0.37063 0.20629 0.04935 0.0
C40 C 0.34537 0.21676 0.08193 0.0
C41 C 0.37814 0.19857 0.0669 0.0
C42 C 0.34995 0.21954 0.04815 0.0
C43 C 0.3379 0.22591 0.06458 0.0
O44 O 0.42614 0.22331 0.10249 0.0
O45 O 0.38487 0.15109 0.12436 0.0
O46 O 0.377 0.14598 0.15565 0.0
O47 O 0.37735 0.1932 0.1454 0.0
O48 O 0.40886 0.17256 0.09977 0.0
O49 O 0.40854 0.23769 0.1265 0.0
O50 O 0.2899 0.07577 0.14611 0.0
O51 O 0.33142 0.14818 0.12468 0.0
O52 O 0.34169 0.15169 0.09187 0.0
O53 O 0.33816 0.10398 0.10426 0.0
O54 O 0.30795 0.12692 0.14953 0.0
O55 O 0.30826 0.0621 0.12193 0.0
C56 C 0.40458 0.15119 0.11239 0.0
C57 C 0.44442 0.27993 0.10597 0.0
C58 C 0.4829 0.33928 0.10604 0.0
C59 C 0.47132 0.30785 0.11402 0.0
C60 C 0.46714 0.34208 0.08993 0.0
C61 C 0.42944 0.28374 0.08991 0.0
C62 C 0.44063 0.31454 0.08201 0.0
C63 C 0.38225 0.17595 0.15853 0.0
C64 C 0.43193 0.24691 0.11419 0.0
C65 C 0.32042 0.24288 0.06424 0.0
C66 C 0.31249 0.25258 0.08105 0.0
C67 C 0.3122 0.14826 0.13693 0.0
C68 C 0.26798 0.01923 0.14029 0.0
C69 C 0.23427 0.99841 0.13704 0.0
C70 C 0.21847 0.96546 0.14297 0.0
C71 C 0.23704 0.95382 0.1523 0.0
C72 C 0.28601 1.0072 0.14964 0.0
C73 C 0.27053 0.97461 0.15561 0.0
C74 C 0.33362 0.12033 0.0906 0.0
C75 C 0.28393 0.05325 0.1336 0.0
H76 H 0.483 0.3051 0.12644 0.0
H77 H 0.47576 0.36554 0.08312 0.0
H78 H 0.4093 0.26292 0.08327 0.0
H79 H 0.42891 0.31704 0.06955 0.0
H80 H 0.22051 1.00776 0.12964 0.0
H81 H 0.22558 0.92876 0.15728 0.0
H82 H 0.31197 0.02293 0.15226 0.0
H83 H 0.28452 0.96541 0.16286 0.0
Eu84 Eu 0.80299 0.70354 0.38007 0.0
C85 C 0.90844 0.70419 0.43364 0.0
C86 C 0.95993 0.73166 0.41684 0.0
C87 C 0.95974 0.73469 0.45082 0.0
C88 C 0.92534 0.71286 0.41691 0.0
C89 C 0.92552 0.71404 0.45083 0.0
C90 C 0.97694 0.74345 0.43384 0.0
C91 C 0.8745 0.67822 0.46662 0.0
N92 N 0.87559 0.68331 0.43313 0.0
C93 C 0.85882 0.6688 0.44921 0.0
C94 C 0.9079 0.70143 0.46746 0.0
Eu95 Eu 0.85015 0.66895 0.40325 0.0
N96 N 0.90816 0.70071 0.40078 0.0
C97 C 0.92428 0.70432 0.38427 0.0
C98 C 0.97644 0.73685 0.39979 0.0
C99 C 0.95853 0.72271 0.38348 0.0
H100 H 0.833 0.65071 0.44856 0.0
H101 H 0.97108 0.72602 0.37027 0.0
H102 H 1.00346 0.75835 0.43404 0.0
H103 H 0.86086 0.66746 0.47936 0.0
H104 H 0.91087 0.69352 0.37153 0.0
H105 H 0.68006 0.63827 0.41044 0.0
H106 H 1.00298 0.75091 0.39915 0.0
H107 H 0.82458 0.72358 0.33512 0.0
H108 H 0.74023 0.67267 0.41072 0.0
H109 H 0.79902 0.70926 0.30374 0.0
H110 H 0.97325 0.74287 0.46387 0.0
H111 H 0.65045 0.61778 0.38041 0.0
H112 H 0.65259 0.61594 0.34527 0.0
H113 H 0.9201 0.7084 0.48095 0.0
H114 H 0.68493 0.63523 0.31624 0.0
N115 N 0.74505 0.67105 0.38114 0.0
C116 C 0.72776 0.66392 0.39749 0.0
C117 C 0.67696 0.63274 0.38044 0.0
C118 C 0.69469 0.64128 0.36366 0.0
C119 C 0.69357 0.64437 0.39741 0.0
C120 C 0.72914 0.66107 0.36448 0.0
H121 H 0.73947 0.67035 0.30061 0.0
N122 N 0.7801 0.69253 0.34955 0.0
C123 C 0.78417 0.69859 0.31612 0.0
C124 C 0.74724 0.6721 0.34817 0.0
C125 C 0.79856 0.70671 0.33392 0.0
C126 C 0.75057 0.67653 0.31441 0.0
C127 C 0.73155 0.66337 0.33055 0.0
O128 O 0.82138 0.7542 0.37121 0.0
O129 O 0.85134 0.71329 0.39138 0.0
O130 O 0.84464 0.7028 0.4243 0.0
O131 O 0.79965 0.70477 0.41179 0.0
O132 O 0.85243 0.73602 0.36632 0.0
O133 O 0.78431 0.73322 0.39284 0.0
O134 O 0.83596 0.62011 0.4141 0.0
O135 O 0.80201 0.65933 0.39205 0.0
O136 O 0.80395 0.66664 0.36051 0.0
O137 O 0.85166 0.6678 0.37074 0.0
O138 O 0.8004 0.63516 0.41641 0.0
O139 O 0.86633 0.63776 0.38949 0.0
C140 C 0.87009 0.73272 0.37899 0.0
C141 C 0.78627 0.77607 0.37443 0.0
C142 C 0.78475 0.82706 0.37067 0.0
C143 C 0.79841 0.80929 0.37888 0.0
C144 C 0.7584 0.81058 0.35803 0.0
C145 C 0.75996 0.7602 0.36192 0.0
C146 C 0.74607 0.77743 0.35381 0.0
C147 C 0.82081 0.71015 0.42545 0.0
C148 C 0.80227 0.75885 0.38244 0.0
C149 C 0.69741 0.64244 0.32964 0.0
C150 C 0.679 0.63146 0.34617 0.0
C151 C 0.78278 0.63905 0.40394 0.0
C152 C 0.87518 0.60317 0.40983 0.0
C153 C 0.87459 0.57479 0.40278 0.0
C154 C 0.89543 0.56408 0.41047 0.0
C155 C 0.91644 0.58217 0.42535 0.0
C156 C 0.8967 0.62065 0.42451 0.0
C157 C 0.91712 0.61022 0.4322 0.0
C158 C 0.82912 0.66208 0.35767 0.0
C159 C 0.85345 0.61461 0.40203 0.0
H160 H 0.8185 0.82116 0.38878 0.0
H161 H 0.74763 0.82339 0.35106 0.0
H162 H 0.75038 0.73465 0.35832 0.0
H163 H 0.72591 0.76515 0.34402 0.0
H164 H 0.85819 0.56136 0.39133 0.0
H165 H 0.93208 0.57436 0.43203 0.0
H166 H 0.89758 0.64224 0.4302 0.0
H167 H 0.93338 0.62381 0.44366 0.0
Eu168 Eu 0.85577 0.19567 0.11352 0.0
C169 C 0.96463 0.29963 0.16682 0.0
C170 C 0.98293 0.35149 0.15109 0.0
C171 C 0.98509 0.34974 0.18508 0.0
C172 C 0.96952 0.31717 0.15047 0.0
C173 C 0.97312 0.31579 0.18429 0.0
C174 C 0.98992 0.36756 0.1685 0.0
C175 C 0.96009 0.26418 0.19865 0.0
N176 N 0.95313 0.26692 0.16554 0.0
C177 C 0.95165 0.2492 0.18104 0.0
C178 C 0.97029 0.29749 0.20036 0.0
Eu179 Eu 0.93849 0.24303 0.13536 0.0
N180 N 0.96288 0.30091 0.13391 0.0
C181 C 0.97154 0.31786 0.11741 0.0
C182 C 0.98984 0.36874 0.13418 0.0
C183 C 0.98463 0.3519 0.11727 0.0
H184 H 0.94352 0.22337 0.17987 0.0
H185 H 0.99055 0.36508 0.10412 0.0
H186 H 0.99993 0.39387 0.16926 0.0
H187 H 0.95888 0.25004 0.21088 0.0
H188 H 0.96747 0.30517 0.10423 0.0
H189 H 0.78479 0.07683 0.14755 0.0
H190 H 1.00002 0.3951 0.13404 0.0
H191 H 0.85604 0.21219 0.06794 0.0
H192 H 0.81818 0.13663 0.14589 0.0
H193 H 0.84319 0.18328 0.03744 0.0
H194 H 0.99146 0.36257 0.19838 0.0
H195 H 0.77561 0.04308 0.11912 0.0
H196 H 0.78203 0.04088 0.0843 0.0
H197 H 0.97677 0.30901 0.21404 0.0
H198 H 0.79853 0.07011 0.05416 0.0
N199 N 0.82709 0.13776 0.11659 0.0
C200 C 0.8143 0.12258 0.13329 0.0
C201 C 0.79005 0.06958 0.11823 0.0
C202 C 0.80219 0.08524 0.10103 0.0
C203 C 0.79543 0.08845 0.13432 0.0
C204 C 0.82031 0.11985 0.10061 0.0
H205 H 0.82088 0.12324 0.03651 0.0
N206 N 0.84363 0.16937 0.08385 0.0
C207 C 0.83951 0.16976 0.05033 0.0
C208 C 0.82945 0.13622 0.08371 0.0
C209 C 0.84686 0.18605 0.06757 0.0
C210 C 0.82704 0.1359 0.04987 0.0
C211 C 0.82091 0.11854 0.0667 0.0
O212 O 0.82203 0.21085 0.10243 0.0
O213 O 0.89463 0.24405 0.12428 0.0
O214 O 0.90221 0.24178 0.15618 0.0
O215 O 0.8544 0.19499 0.14609 0.0
O216 O 0.87205 0.24488 0.09968 0.0
O217 O 0.809 0.18143 0.12749 0.0
O218 O 0.97124 0.22452 0.14296 0.0
O219 O 0.89894 0.19426 0.1251 0.0
O220 O 0.89421 0.19881 0.09256 0.0
O221 O 0.94107 0.24545 0.1036 0.0
O222 O 0.92255 0.19407 0.14953 0.0
O223 O 0.98615 0.26214 0.12172 0.0
C224 C 0.89336 0.26286 0.11214 0.0
C225 C 0.76574 0.17249 0.10697 0.0
C226 C 0.7063 0.15106 0.1074 0.0
C227 C 0.73797 0.17188 0.1149 0.0
C228 C 0.70313 0.13112 0.09191 0.0
C229 C 0.76156 0.1523 0.09154 0.0
C230 C 0.73053 0.13173 0.08413 0.0
C231 C 0.87222 0.21715 0.15915 0.0
C232 C 0.79902 0.1941 0.11463 0.0
C233 C 0.80494 0.08411 0.06707 0.0
C234 C 0.79551 0.06747 0.08422 0.0
C235 C 0.90042 0.1759 0.1375 0.0
C236 C 0.02785 0.26055 0.13948 0.0
C237 C 0.04805 0.24698 0.13622 0.0
C238 C 0.07975 0.26132 0.14407 0.0
C239 C 0.09082 0.28966 0.1552 0.0
C240 C 0.03935 0.28877 0.15057 0.0
C241 C 0.07076 0.30325 0.15836 0.0
C242 C 0.92505 0.22298 0.09061 0.0
C243 C 0.99452 0.24422 0.13168 0.0
H244 H 0.74102 0.18739 0.12683 0.0
H245 H 0.67948 0.1155 0.08545 0.0
H246 H 0.78228 0.15263 0.08501 0.0
H247 H 0.72775 0.11644 0.07214 0.0
H248 H 0.03903 0.22533 0.12746 0.0
H249 H 0.1148 0.30107 0.16175 0.0
H250 H 1.02404 0.29945 0.15327 0.0
H251 H 0.07951 0.32495 0.16701 0.0
Eu252 Eu 0.33804 0.1048 0.38169 0.0
C253 C 0.33741 0.21283 0.43259 0.0
C254 C 0.30902 0.23569 0.41551 0.0
C255 C 0.30773 0.23473 0.44954 0.0
C256 C 0.32793 0.22001 0.41576 0.0
C257 C 0.32832 0.22108 0.44969 0.0
C258 C 0.29812 0.24206 0.43246 0.0
C259 C 0.36462 0.20655 0.4656 0.0
N260 N 0.35827 0.20082 0.4322 0.0
C261 C 0.37333 0.19931 0.44827 0.0
C262 C 0.34156 0.21695 0.46635 0.0
Eu263 Eu 0.37154 0.18827 0.40243 0.0
N264 N 0.33912 0.21378 0.39964 0.0
C265 C 0.33415 0.22467 0.38288 0.0
C266 C 0.30255 0.24548 0.39827 0.0
C267 C 0.31556 0.24033 0.38192 0.0
H268 H 0.39134 0.19148 0.4477 0.0
H269 H 0.31118 0.24829 0.36854 0.0
H270 H 0.28318 0.25364 0.43254 0.0
H271 H 0.37583 0.20429 0.47835 0.0
H272 H 0.34404 0.22093 0.37012 0.0
H273 H 0.41075 0.05562 0.41284 0.0
H274 H 0.28816 0.25761 0.39749 0.0
H275 H 0.31291 0.09949 0.33718 0.0
H276 H 0.37352 0.07822 0.41281 0.0
H277 H 0.32426 0.08434 0.30614 0.0
H278 H 0.30016 0.24087 0.46253 0.0
H279 H 0.43006 0.04494 0.38285 0.0
H280 H 0.42765 0.0438 0.34765 0.0
H281 H 0.33517 0.22297 0.47977 0.0
H282 H 0.40409 0.05157 0.3186 0.0
N283 N 0.37237 0.08134 0.38309 0.0
C284 C 0.38162 0.07365 0.39961 0.0
C285 C 0.41368 0.0549 0.38274 0.0
C286 C 0.40256 0.06102 0.36586 0.0
C287 C 0.40278 0.06081 0.39969 0.0
C288 C 0.38144 0.0742 0.36651 0.0
H289 H 0.36517 0.06624 0.30298 0.0
N290 N 0.34702 0.09004 0.35149 0.0
C291 C 0.3371 0.08297 0.31838 0.0
C292 C 0.36831 0.07863 0.35019 0.0
C293 C 0.33059 0.09135 0.33601 0.0
C294 C 0.36017 0.07272 0.31667 0.0
C295 C 0.37578 0.06998 0.33272 0.0
O296 O 0.28667 0.07083 0.37489 0.0
O297 O 0.32746 0.14352 0.39173 0.0
O298 O 0.33824 0.15009 0.42415 0.0
O299 O 0.3395 0.10378 0.41347 0.0
O300 O 0.30316 0.11857 0.36767 0.0
O301 O 0.31111 0.05728 0.39578 0.0
O302 O 0.42069 0.22422 0.4123 0.0
O303 O 0.3824 0.14998 0.39219 0.0
O304 O 0.37206 0.14115 0.36051 0.0
O305 O 0.37091 0.1882 0.36987 0.0
O306 O 0.40682 0.17483 0.41611 0.0
O307 O 0.40124 0.23484 0.38762 0.0
C308 C 0.30673 0.14074 0.37955 0.0
C309 C 0.26725 1.01447 0.37879 0.0
C310 C 0.21635 0.96185 0.3751 0.0
C311 C 0.23393 0.99354 0.38302 0.0
C312 C 0.23315 0.95157 0.363 0.0
C313 C 0.28342 1.0036 0.36682 0.0
C314 C 0.2664 0.97223 0.35903 0.0
C315 C 0.33266 0.11965 0.42636 0.0
C316 C 0.28418 0.04807 0.38627 0.0
C317 C 0.39782 0.05809 0.3319 0.0
C318 C 0.41123 0.05366 0.34844 0.0
C319 C 0.40356 0.15291 0.40412 0.0
C320 C 0.43648 0.27978 0.40692 0.0
C321 C 0.46551 0.30705 0.40012 0.0
C322 C 0.47611 0.33892 0.40725 0.0
C323 C 0.45726 0.34269 0.42132 0.0
C324 C 0.41833 0.28463 0.42081 0.0
C325 C 0.42862 0.3158 0.42794 0.0
C326 C 0.37608 0.17056 0.35709 0.0
C327 C 0.42514 0.24625 0.39978 0.0
H328 H 0.22182 1.00212 0.39249 0.0
H329 H 0.22051 0.92779 0.35626 0.0
H330 H 0.30903 0.01945 0.36337 0.0
H331 H 0.27892 0.96403 0.34965 0.0
H332 H 0.47955 0.30345 0.38931 0.0
H333 H 0.46495 0.36644 0.42754 0.0
H334 H 0.39631 0.26429 0.42633 0.0
H335 H 0.41447 0.31909 0.4388 0.0
Eu336 Eu 0.85096 0.67112 0.11381 0.0
C337 C 0.74516 0.67582 0.16538 0.0
C338 C 0.69408 0.64474 0.14844 0.0
C339 C 0.69377 0.64638 0.18247 0.0
C340 C 0.72856 0.66457 0.14862 0.0
C341 C 0.72793 0.66749 0.18249 0.0
C342 C 0.67687 0.63502 0.16546 0.0
C343 C 0.77902 0.70391 0.19815 0.0
N344 N 0.77805 0.69639 0.16488 0.0
C345 C 0.79503 0.71128 0.18085 0.0
C346 C 0.74541 0.68148 0.19904 0.0
Eu347 Eu 0.80383 0.70706 0.13524 0.0
N348 N 0.74593 0.67468 0.13245 0.0
C349 C 0.73004 0.66775 0.11559 0.0
C350 C 0.67784 0.6362 0.13115 0.0
C351 C 0.69589 0.64809 0.11467 0.0
H352 H 0.82108 0.7284 0.18027 0.0
H353 H 0.68353 0.64209 0.10124 0.0
H354 H 0.65042 0.61946 0.1656 0.0
H355 H 0.79258 0.71564 0.21077 0.0
H356 H 0.74354 0.67663 0.10269 0.0
H357 H 0.96975 0.71926 0.14812 0.0
H358 H 0.65137 0.62118 0.1304 0.0
H359 H 0.83448 0.65423 0.06824 0.0
H360 H 0.90994 0.69283 0.14632 0.0
H361 H 0.86341 0.66994 0.03778 0.0
H362 H 0.68012 0.63943 0.19549 0.0
H363 H 1.00353 0.74349 0.1197 0.0
H364 H 1.00576 0.75166 0.08482 0.0
H365 H 0.73307 0.67584 0.21247 0.0
H366 H 0.97656 0.73857 0.05463 0.0
N367 N 0.90886 0.70029 0.11697 0.0
C368 C 0.92401 0.70285 0.13373 0.0
C369 C 0.97703 0.73142 0.11875 0.0
C370 C 0.96139 0.72771 0.10149 0.0
C371 C 0.95814 0.71813 0.13484 0.0
C372 C 0.92678 0.71122 0.10101 0.0
H373 H 0.92346 0.70763 0.03691 0.0
N374 N 0.87727 0.68486 0.08417 0.0
C375 C 0.87691 0.67994 0.05067 0.0
C376 C 0.91042 0.70378 0.08407 0.0
C377 C 0.8606 0.67121 0.06789 0.0
C378 C 0.91078 0.7013 0.05024 0.0
C379 C 0.92812 0.71271 0.06709 0.0
O380 O 0.83518 0.62187 0.10307 0.0
O381 O 0.80265 0.66209 0.12434 0.0
O382 O 0.80439 0.67134 0.15594 0.0
O383 O 0.85145 0.67052 0.14636 0.0
O384 O 0.80169 0.63837 0.09989 0.0
O385 O 0.8655 0.63876 0.1278 0.0
O386 O 0.81987 0.757 0.14476 0.0
O387 O 0.85262 0.71589 0.12538 0.0
O388 O 0.84827 0.70628 0.09255 0.0
O389 O 0.80235 0.70798 0.10347 0.0
O390 O 0.85261 0.73968 0.14974 0.0
O391 O 0.78894 0.73783 0.12017 0.0
C392 C 0.78379 0.64211 0.11219 0.0
C393 C 0.8734 0.60363 0.10738 0.0
C394 C 0.89415 0.56501 0.10768 0.0
C395 C 0.8739 0.57641 0.11535 0.0
C396 C 0.91359 0.5813 0.09196 0.0
C397 C 0.89317 0.6192 0.09177 0.0
C398 C 0.91314 0.60819 0.08416 0.0
C399 C 0.82903 0.66607 0.15922 0.0
C400 C 0.85225 0.61577 0.11516 0.0
C401 C 0.96254 0.73115 0.06752 0.0
C402 C 0.97917 0.73857 0.08471 0.0
C403 C 0.87086 0.73565 0.13785 0.0
C404 C 0.78509 0.77824 0.13777 0.0
C405 C 0.79828 0.81205 0.13479 0.0
C406 C 0.78084 0.82779 0.14027 0.0
C407 C 0.74997 0.80903 0.14884 0.0
C408 C 0.75437 0.76001 0.14635 0.0
C409 C 0.73692 0.77541 0.15185 0.0
C410 C 0.82448 0.71345 0.09047 0.0
C411 C 0.8037 0.76246 0.13176 0.0
H412 H 0.85875 0.56432 0.12745 0.0
H413 H 0.92872 0.57285 0.08534 0.0
H414 H 0.89298 0.63967 0.08523 0.0
H415 H 0.92807 0.62033 0.07202 0.0
H416 H 0.82194 0.82596 0.12799 0.0
H417 H 0.7361 0.82041 0.15348 0.0
H418 H 0.7439 0.73397 0.14876 0.0
H419 H 0.71323 0.76127 0.15851 0.0
Eu420 Eu 0.93666 0.24017 0.3812 0.0
C421 C 0.83002 0.13045 0.43179 0.0
C422 C 0.80787 0.08014 0.41389 0.0
C423 C 0.80944 0.07823 0.44787 0.0
C424 C 0.82318 0.11468 0.4147 0.0
C425 C 0.82228 0.11233 0.4486 0.0
C426 C 0.80213 0.06213 0.43052 0.0
C427 C 0.83548 0.16202 0.4654 0.0
N428 N 0.84104 0.16312 0.43194 0.0
C429 C 0.84217 0.17872 0.44832 0.0
C430 C 0.82603 0.12876 0.46557 0.0
Eu431 Eu 0.8537 0.19063 0.40266 0.0
N432 N 0.82852 0.13282 0.39895 0.0
C433 C 0.81667 0.11764 0.3821 0.0
C434 C 0.79738 0.06467 0.39648 0.0
C435 C 0.80136 0.08349 0.38056 0.0
H436 H 0.84937 0.20443 0.44819 0.0
H437 H 0.79265 0.07172 0.36709 0.0
H438 H 0.79089 0.03564 0.43015 0.0
H439 H 0.83745 0.17475 0.47839 0.0
H440 H 0.81928 0.13169 0.36967 0.0
H441 H 0.98901 0.36151 0.4135 0.0
H442 H 0.78526 0.0382 0.39526 0.0
H443 H 0.93848 0.2211 0.33613 0.0
H444 H 0.96597 0.30167 0.41285 0.0
H445 H 0.95074 0.24802 0.30514 0.0
H446 H 0.80371 0.06392 0.46063 0.0
H447 H 0.99786 0.39216 0.3839 0.0
H448 H 0.99663 0.39164 0.34868 0.0
H449 H 0.82041 0.11575 0.47879 0.0
H450 H 0.98656 0.36085 0.31919 0.0
N451 N 0.96092 0.298 0.38316 0.0
C452 C 0.96978 0.31459 0.39979 0.0
C453 C 0.98775 0.36582 0.38351 0.0
C454 C 0.98044 0.34893 0.36645 0.0
C455 C 0.98287 0.34861 0.40024 0.0
C456 C 0.96716 0.31461 0.36675 0.0
H457 H 0.96984 0.30737 0.30282 0.0
N458 N 0.95005 0.26465 0.35113 0.0
C459 C 0.95389 0.2622 0.3177 0.0
C460 C 0.96162 0.29739 0.3502 0.0
C461 C 0.94707 0.24706 0.33528 0.0
C462 C 0.96457 0.29568 0.31645 0.0
C463 C 0.96898 0.31382 0.33283 0.0
O464 O 0.9716 0.2253 0.37176 0.0
O465 O 0.89804 0.19096 0.39147 0.0
O466 O 0.89229 0.19639 0.42438 0.0
O467 O 0.93945 0.24241 0.41296 0.0
O468 O 0.92162 0.19146 0.36692 0.0
O469 O 0.98282 0.25668 0.39608 0.0
O470 O 0.81626 0.20051 0.41412 0.0
O471 O 0.89226 0.23968 0.39259 0.0
O472 O 0.89934 0.23895 0.36102 0.0
O473 O 0.85287 0.19031 0.37018 0.0
O474 O 0.86791 0.23946 0.41656 0.0
O475 O 0.80892 0.17808 0.38693 0.0
C476 C 0.90001 0.17298 0.37904 0.0
C477 C 0.02767 0.26053 0.37901 0.0
C478 C 0.08146 0.2645 0.37677 0.0
C479 C 0.04789 0.24666 0.38147 0.0
C480 C 0.09431 0.29635 0.36943 0.0
C481 C 0.04094 0.29219 0.37154 0.0
C482 C 0.07413 0.30996 0.36678 0.0
C483 C 0.92316 0.22059 0.4262 0.0
C484 C 0.99306 0.24192 0.38476 0.0
C485 C 0.98101 0.34781 0.3324 0.0
C486 C 0.98672 0.36533 0.34919 0.0
C487 C 0.88998 0.25803 0.40465 0.0
C488 C 0.76163 0.16231 0.40524 0.0
C489 C 0.73507 0.16657 0.39987 0.0
C490 C 0.70245 0.14203 0.40392 0.0
C491 C 0.69698 0.11365 0.41354 0.0
C492 C 0.75527 0.13389 0.41502 0.0
C493 C 0.72321 0.10975 0.41911 0.0
C494 C 0.86999 0.21354 0.35756 0.0
C495 C 0.79584 0.1867 0.40024 0.0
H496 H 0.03761 0.22224 0.38736 0.0
H497 H 0.11991 0.31058 0.36549 0.0
H498 H 1.0257 0.30319 0.36951 0.0
H499 H 0.08428 0.33442 0.36103 0.0
H500 H 0.73969 0.18847 0.39233 0.0
H501 H 0.67229 0.09462 0.41702 0.0
H502 H 0.77508 0.13027 0.41946 0.0
H503 H 0.71869 0.08791 0.42663 0.0
Eu504 Eu 0.11728 0.33175 0.63581 0.0
C505 C 0.22078 0.32831 0.58255 0.0
C506 C 0.24392 0.2996 0.599 0.0
C507 C 0.24039 0.29718 0.56502 0.0
C508 C 0.2286 0.31884 0.59918 0.0
C509 C 0.22744 0.31837 0.56525 0.0
C510 C 0.24873 0.28789 0.58188 0.0
C511 C 0.21259 0.3548 0.54978 0.0
N512 N 0.20959 0.34981 0.58329 0.0
C513 C 0.20686 0.36429 0.56729 0.0
C514 C 0.22241 0.33132 0.54873 0.0
Eu515 Eu 0.19919 0.36405 0.61335 0.0
N516 N 0.22407 0.33101 0.61543 0.0
C517 C 0.23666 0.32698 0.63183 0.0
C518 C 0.25534 0.29402 0.61593 0.0
C519 C 0.25207 0.30814 0.63237 0.0
H520 H 0.19917 0.3824 0.56808 0.0
H521 H 0.26144 0.30456 0.64549 0.0
H522 H 0.25997 0.27264 0.5815 0.0
H523 H 0.20947 0.36562 0.53712 0.0
H524 H 0.23459 0.3379 0.64464 0.0
H525 H 0.06529 0.40435 0.60811 0.0
H526 H 0.2676 0.27973 0.61638 0.0
H527 H 0.11744 0.3079 0.68018 0.0
H528 H 0.08787 0.36725 0.60652 0.0
H529 H 0.10655 0.32042 0.71201 0.0
H530 H 0.24533 0.28896 0.55187 0.0
H531 H 0.05717 0.42354 0.63884 0.0
H532 H 0.05924 0.42121 0.67396 0.0
H533 H 0.22719 0.32426 0.53516 0.0
H534 H 0.0702 0.3982 0.70222 0.0
N535 N 0.09339 0.36578 0.63606 0.0
C536 C 0.08439 0.37518 0.62005 0.0
C537 C 0.06708 0.40714 0.63824 0.0
C538 C 0.07466 0.396 0.65463 0.0
C539 C 0.07156 0.39632 0.62087 0.0
C540 C 0.0877 0.37485 0.65305 0.0
H541 H 0.08754 0.36038 0.71654 0.0
N542 N 0.10519 0.34076 0.66675 0.0
C543 C 0.10285 0.33228 0.70001 0.0
C544 C 0.09373 0.36188 0.66891 0.0
C545 C 0.1089 0.32516 0.68192 0.0
C546 C 0.09222 0.35491 0.70251 0.0
C547 C 0.08713 0.36974 0.68685 0.0
O548 O 0.08258 0.28092 0.64349 0.0
O549 O 0.15485 0.32042 0.62458 0.0
O550 O 0.15878 0.33102 0.59238 0.0
O551 O 0.11504 0.33535 0.60423 0.0
O552 O 0.13155 0.29658 0.64899 0.0
O553 O 0.07048 0.30406 0.62111 0.0
O554 O 0.23703 0.41124 0.60202 0.0
O555 O 0.16195 0.37562 0.62448 0.0
O556 O 0.15562 0.36681 0.65587 0.0
O557 O 0.20091 0.3632 0.64584 0.0
O558 O 0.18612 0.40024 0.6005 0.0
O559 O 0.24455 0.39507 0.62887 0.0
C560 C 0.15275 0.29979 0.63658 0.0
C561 C 1.02638 0.26103 0.63771 0.0
C562 C 0.9732 0.21057 0.64048 0.0
C563 C 1.00618 0.22713 0.63452 0.0
C564 C 0.96097 0.22863 0.64978 0.0
C565 C 1.01369 0.27845 0.64705 0.0
C566 C 0.9811 0.26225 0.65303 0.0
C567 C 0.129 0.32748 0.59068 0.0
C568 C 0.06062 0.2777 0.63124 0.0
C569 C 0.07521 0.39167 0.68855 0.0
C570 C 0.06899 0.40479 0.67247 0.0
C571 C 0.16475 0.39707 0.61283 0.0
C572 C 0.29163 0.42668 0.61042 0.0
C573 C 0.31847 0.45696 0.61624 0.0
C574 C 0.35093 0.46486 0.61192 0.0
C575 C 0.356 0.44231 0.60162 0.0
C576 C 0.29754 0.40499 0.59992 0.0
C577 C 0.32947 0.41272 0.59559 0.0
C578 C 0.18463 0.36962 0.6589 0.0
C579 C 0.25763 0.41711 0.61572 0.0
H580 H 1.01607 0.2138 0.6272 0.0
H581 H 0.93592 0.21666 0.65482 0.0
H582 H 0.02896 0.30449 0.6497 0.0
H583 H 0.9714 0.27577 0.66028 0.0
H584 H 0.31418 0.47397 0.6243 0.0
H585 H 0.38058 0.44784 0.59794 0.0
H586 H 0.27748 0.38203 0.59507 0.0
H587 H 0.33367 0.39569 0.58752 0.0
Eu588 Eu 0.20252 0.84773 0.90296 0.0
C589 C 0.30297 0.95311 0.84674 0.0
C590 C 0.35642 0.97286 0.86084 0.0
C591 C 0.35107 0.97178 0.82693 0.0
C592 C 0.32221 0.95949 0.86253 0.0
C593 C 0.3172 0.95966 0.82875 0.0
C594 C 0.37065 0.97836 0.84296 0.0
C595 C 0.2638 0.94365 0.81577 0.0
N596 N 0.27039 0.94152 0.84901 0.0
C597 C 0.25087 0.93768 0.83391 0.0
C598 C 0.29706 0.95437 0.81315 0.0
Eu599 Eu 0.24974 0.92951 0.88002 0.0
N600 N 0.30768 0.95404 0.87958 0.0
C601 C 0.32629 0.96371 0.8955 0.0
C602 C 0.37539 0.98102 0.87718 0.0
C603 C 0.36029 0.97688 0.89458 0.0
H604 H 0.22507 0.92908 0.83576 0.0
H605 H 0.37479 0.98367 0.90729 0.0
H606 H 0.39684 0.98833 0.84138 0.0
H607 H 0.24808 0.93982 0.80382 0.0
H608 H 0.31498 0.96046 0.90905 0.0
H609 H 0.07896 0.7832 0.87329 0.0
H610 H 0.40172 0.99121 0.8765 0.0
H611 H 0.22448 0.85039 0.9479 0.0
H612 H 0.13932 0.81142 0.87285 0.0
H613 H 0.19934 0.84013 0.97938 0.0
H614 H 0.36244 0.97673 0.81323 0.0
H615 H 0.04965 0.77622 0.90315 0.0
H616 H 0.05228 0.78398 0.93807 0.0
H617 H 0.30703 0.95901 0.79909 0.0
H618 H 0.08518 0.79998 0.96702 0.0
N619 N 0.14448 0.82152 0.90211 0.0
C620 C 0.12696 0.80879 0.88599 0.0
C621 C 0.07623 0.78896 0.90304 0.0
C622 C 0.09423 0.8007 0.91965 0.0
C623 C 0.09267 0.79269 0.88617 0.0
C624 C 0.12879 0.81669 0.91874 0.0
H625 H 0.13997 0.82033 0.98259 0.0
N626 N 0.18007 0.83795 0.93358 0.0
C627 C 0.18442 0.8361 0.96702 0.0
C628 C 0.14722 0.82553 0.935 0.0
C629 C 0.19856 0.84183 0.94921 0.0
C630 C 0.15094 0.82507 0.96877 0.0
C631 C 0.13173 0.81889 0.95265 0.0
O632 O 0.21694 0.81277 0.91294 0.0
O633 O 0.25062 0.8856 0.89126 0.0
O634 O 0.24676 0.89147 0.85984 0.0
O635 O 0.19921 0.84521 0.87049 0.0
O636 O 0.25243 0.8627 0.91552 0.0
O637 O 0.18465 0.80014 0.8891 0.0
O638 O 0.23203 0.96304 0.87255 0.0
O639 O 0.20157 0.89108 0.89142 0.0
O640 O 0.20801 0.88769 0.92355 0.0
O641 O 0.25546 0.93226 0.9117 0.0
O642 O 0.19979 0.91397 0.86711 0.0
O643 O 0.26926 0.97708 0.89395 0.0
C644 C 0.2699 0.88389 0.90293 0.0
C645 C 0.1772 0.75669 0.90903 0.0
C646 C 0.15728 0.69741 0.90958 0.0
C647 C 0.17746 0.72891 0.9017 0.0
C648 C 0.13722 0.69456 0.92494 0.0
C649 C 0.1567 0.75275 0.92422 0.0
C650 C 0.13689 0.72195 0.93209 0.0
C651 C 0.22119 0.86188 0.85717 0.0
C652 C 0.1984 0.7898 0.90108 0.0
C653 C 0.0975 0.80493 0.9536 0.0
C654 C 0.07876 0.79579 0.93712 0.0
C655 C 0.18242 0.89247 0.87956 0.0
C656 C 0.26861 0.01961 0.87647 0.0
C657 C 0.25515 0.04012 0.87932 0.0
C658 C 0.2702 0.0719 0.87152 0.0
C659 C 0.29914 0.08284 0.86104 0.0
C660 C 0.29739 0.03103 0.86592 0.0
C661 C 0.3126 0.06256 0.85832 0.0
C662 C 0.23374 0.91776 0.92526 0.0
C663 C 0.25174 0.98602 0.88402 0.0
H664 H 0.19312 0.73184 0.88988 0.0
H665 H 0.12212 0.67117 0.93176 0.0
H666 H 0.15622 0.77353 0.93017 0.0
H667 H 0.1214 0.71933 0.94393 0.0
H668 H 0.23263 0.03104 0.88725 0.0
H669 H 0.31158 0.10726 0.85505 0.0
H670 H 0.30799 1.01555 0.86352 0.0
H671 H 0.33487 0.0713 0.85022 0.0
Eu672 Eu 0.71526 0.79383 0.635 0.0
C673 C 0.71269 0.89925 0.58284 0.0
C674 C 0.7384 0.95125 0.59925 0.0
C675 C 0.7407 0.95029 0.56527 0.0
C676 C 0.72133 0.91662 0.59946 0.0
C677 C 0.72145 0.91591 0.56552 0.0
C678 C 0.74904 0.96795 0.58212 0.0
C679 C 0.68723 0.86394 0.55012 0.0
N680 N 0.69281 0.86625 0.58361 0.0
C681 C 0.67872 0.84866 0.56764 0.0
C682 C 0.70913 0.89765 0.54902 0.0
Eu683 Eu 0.68006 0.84175 0.61377 0.0
N684 N 0.71042 0.89971 0.61576 0.0
C685 C 0.71342 0.91592 0.63216 0.0
C686 C 0.74267 0.96798 0.61616 0.0
C687 C 0.72925 0.95014 0.63257 0.0
H688 H 0.66176 0.82257 0.56846 0.0
H689 H 0.73062 0.96262 0.64554 0.0
H690 H 0.76262 0.99453 0.5817 0.0
H691 H 0.67681 0.84974 0.53748 0.0
H692 H 0.70324 0.90263 0.64498 0.0
H693 H 0.64329 0.66969 0.60651 0.0
H694 H 0.75513 0.99454 0.61657 0.0
H695 H 0.74214 0.81669 0.67903 0.0
H696 H 0.6793 0.72956 0.60525 0.0
H697 H 0.73306 0.79221 0.7105 0.0
H698 H 0.74799 0.96351 0.55211 0.0
H699 H 0.6261 0.64149 0.63711 0.0
H700 H 0.6303 0.64499 0.67224 0.0
H701 H 0.71535 0.90952 0.53545 0.0
H702 H 0.65476 0.67832 0.70056 0.0
N703 N 0.68199 0.73579 0.63488 0.0
C704 C 0.6722 0.71777 0.61873 0.0
C705 C 0.64197 0.66789 0.63666 0.0
C706 C 0.65361 0.68624 0.65315 0.0
C707 C 0.65168 0.6837 0.61937 0.0
C708 C 0.67404 0.72057 0.65177 0.0
H709 H 0.69348 0.73315 0.71496 0.0
N710 N 0.70826 0.77192 0.66564 0.0
C711 C 0.71981 0.77708 0.69862 0.0
C712 C 0.68769 0.73922 0.66766 0.0
C713 C 0.72506 0.79084 0.68071 0.0
C714 C 0.69751 0.74373 0.70106 0.0
C715 C 0.68144 0.72424 0.68545 0.0
O716 O 0.76688 0.81152 0.64144 0.0
O717 O 0.72498 0.84278 0.62451 0.0
O718 O 0.71425 0.83689 0.59255 0.0
O719 O 0.71065 0.78868 0.60342 0.0
O720 O 0.75005 0.84312 0.64839 0.0
O721 O 0.74264 0.77479 0.61992 0.0
O722 O 0.63197 0.83043 0.60283 0.0
O723 O 0.67006 0.79325 0.62463 0.0
O724 O 0.68134 0.79636 0.65617 0.0
O725 O 0.68199 0.84407 0.6463 0.0
O726 O 0.64473 0.79233 0.60082 0.0
O727 O 0.64818 0.85462 0.62956 0.0
C728 C 0.74584 0.86127 0.63651 0.0
C729 C 0.78653 0.77495 0.63635 0.0
C730 C 0.83768 0.77401 0.64068 0.0
C731 C 0.82061 0.78932 0.63372 0.0
C732 C 0.8199 0.7439 0.65017 0.0
C733 C 0.76937 0.74503 0.64591 0.0
C734 C 0.78604 0.72958 0.65272 0.0
C735 C 0.71821 0.81103 0.59023 0.0
C736 C 0.76954 0.79203 0.62953 0.0
C737 C 0.66009 0.69025 0.68701 0.0
C738 C 0.64617 0.67128 0.67088 0.0
C739 C 0.64855 0.77439 0.61305 0.0
C740 C 0.61508 0.86848 0.6112 0.0
C741 C 0.58525 0.86506 0.61783 0.0
C742 C 0.57641 0.8889 0.61336 0.0
C743 C 0.59756 0.91582 0.60216 0.0
C744 C 0.63522 0.89524 0.59971 0.0
C745 C 0.62663 0.9188 0.59531 0.0
C746 C 0.6773 0.82181 0.65935 0.0
C747 C 0.62578 0.84487 0.61653 0.0
H748 H 0.83386 0.81274 0.6266 0.0
H749 H 0.83214 0.73124 0.6555 0.0
H750 H 0.74318 0.73371 0.64815 0.0
H751 H 0.77267 0.70643 0.66006 0.0
H752 H 0.56929 0.84432 0.62658 0.0
H753 H 0.59123 0.93429 0.5984 0.0
H754 H 0.65762 0.89795 0.5941 0.0
H755 H 0.64253 0.9394 0.58649 0.0
Eu756 Eu 0.19711 0.36441 0.90282 0.0
C757 C 0.08908 0.35974 0.84851 0.0
C758 C 0.07227 0.3958 0.86259 0.0
C759 C 0.07 0.38897 0.82876 0.0
C760 C 0.08474 0.37418 0.86425 0.0
C761 C 0.08108 0.36638 0.8306 0.0
C762 C 0.06564 0.4037 0.84474 0.0
C763 C 0.093 0.3259 0.8179 0.0
N764 N 0.09971 0.33797 0.8508 0.0
C765 C 0.10086 0.32032 0.83591 0.0
C766 C 0.08359 0.34942 0.81516 0.0
Eu767 Eu 0.11397 0.33085 0.88161 0.0
N768 N 0.09108 0.36574 0.88127 0.0
C769 C 0.08302 0.37602 0.89726 0.0
C770 C 0.06594 0.40807 0.87895 0.0
C771 C 0.07084 0.3977 0.89636 0.0
H772 H 0.10837 0.30228 0.83782 0.0
H773 H 0.0654 0.4065 0.90911 0.0
H774 H 0.05635 0.42051 0.84317 0.0
H775 H 0.09412 0.31197 0.80615 0.0
H776 H 0.08686 0.36838 0.91082 0.0
H777 H 0.25969 0.30421 0.87225 0.0
H778 H 0.05649 0.42486 0.87828 0.0
H779 H 0.19718 0.3849 0.94778 0.0
H780 H 0.23197 0.33682 0.87225 0.0
H781 H 0.20833 0.37011 0.9791 0.0
H782 H 0.064 0.39463 0.81511 0.0
H783 H 0.2669 0.28137 0.90194 0.0
H784 H 0.26051 0.27673 0.93691 0.0
H785 H 0.07755 0.35371 0.80118 0.0
H786 H 0.24609 0.2944 0.9661 0.0
N787 N 0.22255 0.33186 0.90156 0.0
C788 C 0.23474 0.32693 0.8853 0.0
C789 C 0.25454 0.29558 0.90201 0.0
C790 C 0.24347 0.3021 0.91876 0.0
C791 C 0.2506 0.3085 0.88524 0.0
C792 C 0.22776 0.32095 0.9181 0.0
H793 H 0.22726 0.32979 0.98199 0.0
N794 N 0.20834 0.35222 0.93325 0.0
C795 C 0.2116 0.35887 0.96668 0.0
C796 C 0.22009 0.33121 0.93449 0.0
C797 C 0.2054 0.36724 0.94895 0.0
C798 C 0.22212 0.33598 0.96825 0.0
C799 C 0.22726 0.32243 0.95203 0.0
O800 O 0.23478 0.41269 0.91301 0.0
O801 O 0.15926 0.37546 0.89191 0.0
O802 O 0.15084 0.36364 0.86026 0.0
O803 O 0.19739 0.36204 0.87031 0.0
O804 O 0.18434 0.40084 0.91556 0.0
O805 O 0.24232 0.39421 0.88697 0.0
O806 O 0.07994 0.27883 0.8764 0.0
O807 O 0.15246 0.32032 0.89218 0.0
O808 O 0.15783 0.33081 0.92401 0.0
O809 O 0.11388 0.33575 0.91322 0.0
O810 O 0.12722 0.29491 0.86847 0.0
O811 O 0.06636 0.30529 0.89575 0.0
C812 C 0.16251 0.39726 0.90343 0.0
C813 C 0.28946 0.42789 0.90508 0.0
C814 C 0.3486 0.46676 0.90366 0.0
C815 C 0.31604 0.45806 0.89894 0.0
C816 C 0.35403 0.44515 0.91468 0.0
C817 C 0.29574 0.40718 0.91629 0.0
C818 C 0.32776 0.41571 0.92101 0.0
C819 C 0.1801 0.36705 0.85719 0.0
C820 C 0.25533 0.41748 0.89949 0.0
C821 C 0.24073 0.3017 0.95276 0.0
C822 C 0.24893 0.29164 0.93615 0.0
C823 C 0.14951 0.299 0.8804 0.0
C824 C 1.02358 0.25986 0.87963 0.0
C825 C 1.00294 0.2265 0.88401 0.0
C826 C 0.97135 0.20842 0.87597 0.0
C827 C 0.96094 0.22472 0.86355 0.0
C828 C 1.01257 0.27547 0.86731 0.0
C829 C 0.98133 0.25794 0.85937 0.0
C830 C 0.12829 0.32753 0.92634 0.0
C831 C 0.05712 0.27744 0.88727 0.0
H832 H 0.31148 0.47434 0.89033 0.0
H833 H 0.3787 0.45133 0.91865 0.0
H834 H 0.27589 0.38436 0.9214 0.0
H835 H 0.33224 0.39941 0.92963 0.0
H836 H 1.01162 0.21475 0.89369 0.0
H837 H 0.93726 0.2117 0.85671 0.0
H838 H 0.02821 0.30106 0.86369 0.0
H839 H 0.97303 0.27004 0.84973 0.0
Eu840 Eu 0.25172 0.92923 0.63622 0.0
C841 C 0.14522 0.8247 0.58304 0.0
C842 C 0.09314 0.80166 0.59919 0.0
C843 C 0.09466 0.80446 0.56519 0.0
C844 C 0.1277 0.81712 0.59958 0.0
C845 C 0.12882 0.81763 0.56563 0.0
C846 C 0.07682 0.79637 0.58195 0.0
C847 C 0.18036 0.8325 0.55054 0.0
N848 N 0.17794 0.83607 0.58399 0.0
C849 C 0.19537 0.8386 0.56815 0.0
C850 C 0.14702 0.82245 0.54925 0.0
Eu851 Eu 0.20207 0.84678 0.61422 0.0
N852 N 0.14419 0.82211 0.61597 0.0
C853 C 0.12741 0.81018 0.63236 0.0
C854 C 0.07595 0.79062 0.61607 0.0
C855 C 0.09317 0.79464 0.6327 0.0
H856 H 0.22118 0.84639 0.56912 0.0
H857 H 0.08008 0.7857 0.64578 0.0
H858 H 0.05033 0.78501 0.5814 0.0
H859 H 0.19447 0.83545 0.53799 0.0
H860 H 0.14031 0.81287 0.64531 0.0
H861 H 0.37601 0.97985 0.60846 0.0
H862 H 0.04939 0.77812 0.61635 0.0
H863 H 0.22817 0.93123 0.68042 0.0
H864 H 0.31628 0.95712 0.60686 0.0
H865 H 0.25195 0.94363 0.71221 0.0
H866 H 0.08166 0.79919 0.55195 0.0
H867 H 0.40361 0.98944 0.63923 0.0
H868 H 0.39956 0.98891 0.67434 0.0
H869 H 0.13534 0.81736 0.53561 0.0
H870 H 0.36587 0.97922 0.70255 0.0
N871 N 0.3096 0.95293 0.63644 0.0
C872 C 0.32785 0.96122 0.6204 0.0
C873 C 0.3773 0.97945 0.63862 0.0
C874 C 0.35873 0.97256 0.65501 0.0
C875 C 0.36182 0.97414 0.62124 0.0
C876 C 0.32451 0.95939 0.65343 0.0
H877 H 0.31091 0.96266 0.71679 0.0
N878 N 0.27305 0.94248 0.6671 0.0
C879 C 0.26733 0.9466 0.70026 0.0
C880 C 0.30565 0.95401 0.66927 0.0
C881 C 0.25396 0.93968 0.6822 0.0
C882 C 0.3006 0.95725 0.70279 0.0
C883 C 0.32032 0.96151 0.68718 0.0
O884 O 0.23386 0.96308 0.64232 0.0
O885 O 0.20282 0.89134 0.62514 0.0
O886 O 0.20868 0.88658 0.59312 0.0
O887 O 0.25712 0.93037 0.60458 0.0
O888 O 0.20244 0.91533 0.64935 0.0
O889 O 0.27291 0.97692 0.62222 0.0
O890 O 0.21365 0.80994 0.60381 0.0
O891 O 0.25077 0.88413 0.62547 0.0
O892 O 0.24788 0.89171 0.65708 0.0
O893 O 0.19977 0.84553 0.64672 0.0
O894 O 0.25139 0.85961 0.60164 0.0
O895 O 0.18505 0.80022 0.62901 0.0
C896 C 0.18436 0.89372 0.63707 0.0
C897 C 0.27066 0.01953 0.63873 0.0
C898 C 0.2715 0.07178 0.64224 0.0
C899 C 0.25787 0.04011 0.63434 0.0
C900 C 0.29845 0.08239 0.65451 0.0
C901 C 0.29752 0.0307 0.6509 0.0
C902 C 0.31137 0.06205 0.65869 0.0
C903 C 0.2349 0.91629 0.5912 0.0
C904 C 0.25459 0.98595 0.6312 0.0
C905 C 0.35418 0.97354 0.6889 0.0
C906 C 0.37336 0.97905 0.67284 0.0
C907 C 0.26947 0.88103 0.61402 0.0
C908 C 0.17369 0.75468 0.60985 0.0
C909 C 0.17844 0.72809 0.61434 0.0
C910 C 0.15687 0.69637 0.60719 0.0
C911 C 0.1303 0.69168 0.59593 0.0
C912 C 0.14704 0.74911 0.59851 0.0
C913 C 0.12544 0.71784 0.59169 0.0
C914 C 0.22201 0.8624 0.65994 0.0
C915 C 0.1966 0.78828 0.61661 0.0
H916 H 0.23728 0.0313 0.62476 0.0
H917 H 0.30923 0.10617 0.66124 0.0
H918 H 0.30753 1.0151 0.65451 0.0
H919 H 0.33197 0.07049 0.66821 0.0
H920 H 0.19914 0.7322 0.62296 0.0
H921 H 0.1131 0.66761 0.59044 0.0
H922 H 0.14297 0.76895 0.59484 0.0
H923 H 0.10492 0.71391 0.58298 0.0
Eu924 Eu 0.67858 0.84185 0.90337 0.0
C925 C 0.68448 0.74144 0.84693 0.0
C926 C 0.65148 0.68761 0.86068 0.0
C927 C 0.65642 0.69346 0.82682 0.0
C928 C 0.67162 0.72189 0.8626 0.0
C929 C 0.67742 0.72742 0.82886 0.0
C930 C 0.64349 0.67358 0.84271 0.0
C931 C 0.71399 0.78127 0.81623 0.0
N932 N 0.70482 0.7741 0.84941 0.0
C933 C 0.7204 0.79397 0.83444 0.0
C934 C 0.69215 0.74789 0.8134 0.0
Eu935 Eu 0.71282 0.79419 0.88058 0.0
N936 N 0.67986 0.73623 0.87974 0.0
C937 C 0.67054 0.71744 0.89558 0.0
C938 C 0.64059 0.66839 0.87689 0.0
C939 C 0.65051 0.68336 0.89441 0.0
H940 H 0.7371 0.81985 0.83643 0.0
H941 H 0.64267 0.66869 0.90704 0.0
H942 H 0.62784 0.64733 0.84095 0.0
H943 H 0.7258 0.79724 0.80439 0.0
H944 H 0.67782 0.72862 0.90923 0.0
H945 H 0.73822 0.9652 0.87356 0.0
H946 H 0.62507 0.64198 0.87602 0.0
H947 H 0.65912 0.82039 0.94829 0.0
H948 H 0.70575 0.90487 0.87318 0.0
H949 H 0.67425 0.84576 0.97976 0.0
H950 H 0.65052 0.68225 0.81304 0.0
H951 H 0.76087 0.99468 0.90339 0.0
H952 H 0.76621 0.99226 0.9383 0.0
H953 H 0.68727 0.7381 0.79928 0.0
H954 H 0.7492 0.9596 0.9673 0.0
N955 N 0.7108 0.89986 0.90245 0.0
C956 C 0.71562 0.91729 0.88631 0.0
C957 C 0.74689 0.96811 0.9033 0.0
C958 C 0.74062 0.9502 0.91993 0.0
C959 C 0.734 0.95157 0.88645 0.0
C960 C 0.72185 0.91565 0.91907 0.0
H961 H 0.71435 0.90501 0.98292 0.0
N962 N 0.69148 0.86454 0.93396 0.0
C963 C 0.68526 0.86052 0.96739 0.0
C964 C 0.7122 0.89735 0.93535 0.0
C965 C 0.67671 0.84626 0.94959 0.0
C966 C 0.70803 0.89394 0.96912 0.0
C967 C 0.72119 0.91297 0.95297 0.0
O968 O 0.62955 0.82846 0.91342 0.0
O969 O 0.66813 0.79364 0.8917 0.0
O970 O 0.6777 0.79707 0.8604 0.0
O971 O 0.67956 0.84502 0.87087 0.0
O972 O 0.64273 0.79198 0.91561 0.0
O973 O 0.64912 0.85973 0.8892 0.0
O974 O 0.7644 0.81248 0.87395 0.0
O975 O 0.72283 0.84247 0.89205 0.0
O976 O 0.71245 0.83561 0.92417 0.0
O977 O 0.70884 0.78793 0.91218 0.0
O978 O 0.7475 0.84409 0.8678 0.0
O979 O 0.74027 0.77389 0.89447 0.0
C980 C 0.64658 0.77442 0.90311 0.0
C981 C 0.6139 0.8686 0.90895 0.0
C982 C 0.57511 0.88921 0.90917 0.0
C983 C 0.58586 0.86835 0.90161 0.0
C984 C 0.5929 0.90999 0.9242 0.0
C985 C 0.63103 0.88979 0.92381 0.0
C986 C 0.62062 0.91032 0.93135 0.0
C987 C 0.67398 0.8228 0.85762 0.0
C988 C 0.62523 0.84673 0.90131 0.0
C989 C 0.74171 0.94718 0.95389 0.0
C990 C 0.75136 0.96578 0.93739 0.0
C991 C 0.74346 0.86155 0.88024 0.0
C992 C 0.78466 0.77611 0.87752 0.0
C993 C 0.81792 0.78847 0.88207 0.0
C994 C 0.83581 0.77469 0.87414 0.0
C995 C 0.81942 0.74808 0.86166 0.0
C996 C 0.76894 0.74954 0.86516 0.0
C997 C 0.78628 0.73558 0.85733 0.0
C998 C 0.71641 0.80963 0.9258 0.0
C999 C 0.76723 0.79218 0.88515 0.0
H1000 H 0.57268 0.85214 0.89004 0.0
H1001 H 0.58505 0.92567 0.93076 0.0
H1002 H 0.65231 0.89027 0.92977 0.0
H1003 H 0.63394 0.92635 0.94294 0.0
H1004 H 0.82973 0.80881 0.89179 0.0
H1005 H 0.8323 0.73722 0.8549 0.0
H1006 H 0.74342 0.73984 0.86145 0.0
H1007 H 0.7741 0.71523 0.84767 0.0
H1008 H 0.06168 0.19598 0.14259 0.0
H1009 H 0.09707 0.17229 0.13795 0.0
H1010 H 0.1815 0.26945 0.13442 0.0
H1011 H 0.1462 0.29333 0.13813 0.0
H1012 H 0.18191 0.22773 0.1076 0.0
H1013 H 0.15685 0.16873 0.17769 0.0
H1014 H 0.12138 0.15659 0.16319 0.0
H1015 H 0.1445 0.19815 0.17151 0.0
C1016 C 0.08772 0.21235 0.14059 0.0
C1017 C 0.10106 0.24665 0.14088 0.0
C1018 C 0.10798 0.19873 0.13817 0.0
C1019 C 0.14203 0.21908 0.1362 0.0
C1020 C 0.15532 0.25324 0.13606 0.0
H1021 H 0.29317 0.1759 0.16348 0.0
H1022 H 0.25164 0.1923 0.16104 0.0
C1023 C 0.13511 0.26688 0.13837 0.0
C1024 C 0.16414 0.20513 0.13444 0.0
H1025 H 0.19218 0.16087 0.15792 0.0
C1026 C 0.18435 0.21319 0.11862 0.0
C1027 C 0.16693 0.18584 0.14872 0.0
C1028 C 0.14648 0.17696 0.16631 0.0
C1029 C 0.20822 0.2037 0.11695 0.0
C1030 C 0.21184 0.18512 0.13152 0.0
C1031 C 0.19026 0.17569 0.1469 0.0
C1032 C 0.23888 0.17698 0.13208 0.0
C1033 C 0.22957 0.21473 0.09975 0.0
C1034 C 0.24646 0.16332 0.11662 0.0
C1035 C 0.27175 0.15577 0.11775 0.0
C1036 C 0.28886 0.16027 0.13464 0.0
C1037 C 0.28062 0.17272 0.15024 0.0
C1038 C 0.2566 0.18179 0.14885 0.0
H1039 H 0.23159 0.23743 0.0937 0.0
H1040 H 0.25446 0.21944 0.10289 0.0
H1041 H 0.21855 0.19524 0.08892 0.0
H1042 H 0.23254 0.1579 0.10375 0.0
H1043 H 0.27699 0.14514 0.10571 0.0
H1044 H 0.16896 0.97919 0.38032 0.0
H1045 H 0.11035 0.94322 0.38553 0.0
H1046 H 0.12305 0.85872 0.38213 0.0
H1047 H 0.18196 0.8945 0.37839 0.0
H1048 H 0.06661 0.90096 0.3634 0.0
H1049 H 0.06543 0.83324 0.42677 0.0
H1050 H 0.10217 0.86915 0.41872 0.0
H1051 H 0.08988 0.82936 0.40885 0.0
C1052 C 0.15956 0.95302 0.38122 0.0
C1053 C 0.18054 0.93995 0.37896 0.0
C1054 C 0.12584 0.93239 0.38402 0.0
C1055 C 0.11212 0.89815 0.38453 0.0
C1056 C 0.13296 0.88502 0.38232 0.0
H1057 H 0.91548 0.75628 0.35158 0.0
H1058 H 0.97353 0.79787 0.35412 0.0
C1059 C 0.16673 0.90562 0.3798 0.0
C1060 C 0.07586 0.87616 0.38595 0.0
H1061 H 1.01613 0.80813 0.40816 0.0
C1062 C 0.05562 0.88085 0.37333 0.0
C1063 C 0.06114 0.85032 0.39918 0.0
C1064 C 0.0808 0.84547 0.41427 0.0
C1065 C 1.02148 0.85972 0.37301 0.0
C1066 C 1.00711 0.83224 0.38516 0.0
C1067 C 0.02709 0.82851 0.39844 0.0
C1068 C 0.97178 0.80655 0.38381 0.0
C1069 C 1.00123 0.86748 0.35977 0.0
C1070 C 0.95156 0.79634 0.39978 0.0
C1071 C 0.91852 0.77175 0.39841 0.0
C1072 C 0.90526 0.75688 0.38107 0.0
C1073 C 0.9253 0.76727 0.36511 0.0
C1074 C 0.95837 0.79133 0.36654 0.0
H1075 H 1.01325 0.89427 0.35702 0.0
H1076 H 0.99891 0.85513 0.34615 0.0
H1077 H 0.97629 0.85906 0.3654 0.0
H1078 H 0.96128 0.80751 0.41329 0.0
H1079 H 0.90328 0.76459 0.41083 0.0
H1080 H 0.88802 0.13727 0.10632 0.0
H1081 H 0.86744 0.07797 0.10548 0.0
H1082 H 0.86991 0.07647 0.16593 0.0
H1083 H 0.88728 0.13479 0.16668 0.0
H1084 H 0.88938 0.04112 0.11476 0.0
H1085 H 0.78143 1.00329 0.16018 0.0
H1086 H 0.80801 0.04555 0.15419 0.0
H1087 H 0.81826 0.02753 0.17336 0.0
C1088 C 0.88296 0.12389 0.11938 0.0
C1089 C 0.88733 0.14011 0.13655 0.0
C1090 C 0.87174 0.09009 0.11894 0.0
C1091 C 0.86575 0.07211 0.13569 0.0
C1092 C 0.87251 0.08907 0.15281 0.0
H1093 H 0.84424 0.87731 0.14588 0.0
H1094 H 0.866 0.93649 0.14297 0.0
C1095 C 0.88273 0.12253 0.15324 0.0
C1096 C 0.85338 0.03597 0.13521 0.0
H1097 H 0.79654 0.96249 0.15421 0.0
C1098 C 0.86884 0.02399 0.12327 0.0
C1099 C 0.82655 1.01317 0.14632 0.0
C1100 C 0.80748 0.02308 0.15908 0.0
C1101 C 0.85847 0.9903 0.12224 0.0
C1102 C 0.83224 0.96792 0.13365 0.0
C1103 C 0.81668 0.97971 0.14546 0.0
C1104 C 0.82016 0.93207 0.13367 0.0
C1105 C 0.87537 0.97891 0.10874 0.0
C1106 C 0.78711 0.90985 0.12955 0.0
C1107 C 0.77457 0.87606 0.13129 0.0
C1108 C 0.79479 0.86369 0.13729 0.0
C1109 C 0.8281 0.88597 0.14101 0.0
C1110 C 0.84062 0.91984 0.1393 0.0
H1111 H 0.88881 0.99745 0.09768 0.0
H1112 H 0.89339 0.97475 0.11654 0.0
H1113 H 0.85744 0.95545 0.10194 0.0
H1114 H 0.77084 0.91872 0.12522 0.0
H1115 H 0.74895 0.8596 0.12804 0.0
H1116 H 0.27802 0.1485 0.41108 0.0
H1117 H 0.23794 0.16741 0.41262 0.0
H1118 H 0.23909 0.17426 0.35228 0.0
H1119 H 0.27986 0.1565 0.35086 0.0
H1120 H 0.24508 0.22805 0.36729 0.0
H1121 H 0.14146 0.1213 0.40207 0.0
H1122 H 0.17883 0.13876 0.41537 0.0
H1123 H 0.17656 0.11996 0.39304 0.0
C1124 C 0.26979 0.15431 0.39821 0.0
C1125 C 0.28279 0.15222 0.3809 0.0
C1126 C 0.24645 0.16454 0.39905 0.0
C1127 C 0.2352 0.17211 0.38255 0.0
C1128 C 0.24744 0.1688 0.36523 0.0
H1129 H 0.06896 0.20277 0.36735 0.0
H1130 H 0.10625 0.18067 0.36971 0.0
C1131 C 0.27075 0.15869 0.36441 0.0
C1132 C 0.2121 0.18517 0.38315 0.0
H1133 H 0.13647 0.16885 0.39833 0.0
C1134 C 0.22132 0.21504 0.37407 0.0
C1135 C 0.1809 0.16811 0.39183 0.0
C1136 C 0.16866 0.13511 0.40097 0.0
C1137 C 0.20036 0.22825 0.37335 0.0
C1138 C 0.1695 0.21166 0.38243 0.0
C1139 C 0.16021 0.18176 0.39152 0.0
C1140 C 0.14619 0.22448 0.38211 0.0
C1141 C 0.2112 0.25937 0.36231 0.0
C1142 C 0.15578 0.25615 0.38873 0.0
C1143 C 0.13464 0.26893 0.38722 0.0
C1144 C 0.10314 0.2501 0.37937 0.0
C1145 C 0.09301 0.21787 0.3735 0.0
C1146 C 0.11434 0.20523 0.37483 0.0
H1147 H 0.23052 0.26354 0.35195 0.0
H1148 H 0.19027 0.25873 0.35473 0.0
H1149 H 0.22163 0.2806 0.37206 0.0
H1150 H 0.17979 0.27116 0.39494 0.0
H1151 H 0.14295 0.2936 0.39221 0.0
H1152 H 0.18753 0.9016 0.13113 0.0
H1153 H 0.12858 0.86398 0.12769 0.0
H1154 H 0.10948 0.94112 0.14398 0.0
H1155 H 0.1685 0.97898 0.14739 0.0
H1156 H 0.08403 0.84551 0.15572 0.0
H1157 H 0.04969 0.90231 0.09853 0.0
H1158 H 0.09173 0.91368 0.10341 0.0
H1159 H 0.07134 0.92973 0.11753 0.0
C1160 C 0.1708 0.91063 0.1339 0.0
C1161 C 0.18273 0.94327 0.13963 0.0
C1162 C 0.13712 0.88914 0.13181 0.0
C1163 C 0.11456 0.89978 0.13536 0.0
C1164 C 0.12639 0.93252 0.14073 0.0
H1165 H 0.9117 0.76355 0.16719 0.0
H1166 H 0.97001 0.8045 0.16667 0.0
C1167 C 0.16015 0.95411 0.14274 0.0
C1168 C 0.07876 0.87578 0.13503 0.0
H1169 H 1.00575 0.85933 0.11555 0.0
C1170 C 0.06691 0.84836 0.14681 0.0
C1171 C 0.05648 0.87946 0.12339 0.0
C1172 C 0.06792 0.90772 0.10986 0.0
C1173 C 0.03349 0.8246 0.14742 0.0
C1174 C 1.01078 0.82855 0.13614 0.0
C1175 C 1.02282 0.85601 0.12421 0.0
C1176 C 0.97467 0.80471 0.13645 0.0
C1177 C 1.02353 0.79551 0.16011 0.0
C1178 C 0.95685 0.7927 0.11963 0.0
C1179 C 0.92306 0.77012 0.11994 0.0
C1180 C 0.90667 0.75829 0.13705 0.0
C1181 C 0.92408 0.77125 0.1538 0.0
C1182 C 0.95755 0.79449 0.15351 0.0
H1183 H 1.01871 0.8016 0.17435 0.0
H1184 H 1.00126 0.77355 0.15503 0.0
H1185 H 0.04343 0.78943 0.16138 0.0
H1186 H 0.9691 0.80053 0.10623 0.0
H1187 H 0.9098 0.76179 0.10683 0.0
H1188 H 0.84912 0.87444 0.37706 0.0
H1189 H 0.87128 0.93286 0.38284 0.0
H1190 H 0.77415 0.91993 0.37792 0.0
H1191 H 0.75145 0.86118 0.3735 0.0
H1192 H 0.87343 0.97742 0.36088 0.0
H1193 H 0.80405 0.97568 0.42357 0.0
H1194 H 0.80391 0.93942 0.41521 0.0
H1195 H 0.77666 0.95182 0.40509 0.0
C1196 C 0.83224 0.88374 0.37771 0.0
C1197 C 0.79835 0.86275 0.37483 0.0
C1198 C 0.84507 0.91735 0.38085 0.0
C1199 C 0.82442 0.93094 0.38112 0.0
C1200 C 0.7906 0.9101 0.37829 0.0
H1201 H 0.87968 0.12892 0.35087 0.0
H1202 H 0.86354 0.07086 0.35255 0.0
C1203 C 0.77769 0.87643 0.3754 0.0
C1204 C 0.83847 0.96713 0.38301 0.0
H1205 H 0.82912 0.02578 0.40581 0.0
C1206 C 0.86385 0.98794 0.37083 0.0
C1207 C 0.82675 0.98122 0.39629 0.0
C1208 C 0.80162 0.96086 0.41091 0.0
C1209 C 0.87676 0.02208 0.37099 0.0
C1210 C 0.86312 0.03588 0.38319 0.0
C1211 C 0.83895 1.01529 0.39604 0.0
C1212 C 0.87271 0.07125 0.38234 0.0
C1213 C 0.90522 0.04294 0.35821 0.0
C1214 C 0.88194 0.09073 0.39864 0.0
C1215 C 0.89018 0.12376 0.39775 0.0
C1216 C 0.88914 0.13776 0.38057 0.0
C1217 C 0.88037 0.1185 0.36429 0.0
C1218 C 0.87155 0.08543 0.36522 0.0
H1219 H 0.92017 0.03111 0.35544 0.0
H1220 H 0.89567 0.04579 0.34453 0.0
H1221 H 0.92146 0.06765 0.36424 0.0
H1222 H 0.8829 0.08043 0.41204 0.0
H1223 H 0.89762 0.13841 0.41042 0.0
H1224 H 0.20661 0.05381 0.6368 0.0
H1225 H 0.18346 0.08935 0.63138 0.0
H1226 H 0.28028 0.17442 0.63462 0.0
H1227 H 0.30388 0.13907 0.6387 0.0
H1228 H 0.18179 0.13202 0.65334 0.0
H1229 H 0.2474 0.19854 0.58955 0.0
H1230 H 0.24847 0.16287 0.59787 0.0
H1231 H 0.27593 0.20288 0.60751 0.0
C1232 C 0.22318 0.08002 0.63585 0.0
C1233 C 0.25726 0.09338 0.63818 0.0
C1234 C 0.2098 0.1004 0.63291 0.0
C1235 C 0.23007 0.13468 0.63228 0.0
C1236 C 0.26407 0.14809 0.63453 0.0
H1237 H 0.17447 0.27638 0.6642 0.0
H1238 H 0.19094 0.23477 0.66194 0.0
C1239 C 0.27752 0.12774 0.63723 0.0
C1240 C 0.21553 0.15644 0.63066 0.0
H1241 H 0.22299 0.22368 0.60782 0.0
C1242 C 0.19069 0.15191 0.64327 0.0
C1243 C 0.22631 0.18195 0.61722 0.0
C1244 C 0.25071 0.1866 0.60214 0.0
C1245 C 0.17753 0.17293 0.64341 0.0
C1246 C 0.19035 0.20015 0.63106 0.0
C1247 C 0.21386 0.2036 0.61775 0.0
C1248 C 0.18067 0.22587 0.63223 0.0
C1249 C 0.14963 0.16529 0.65666 0.0
C1250 C 0.17079 0.23607 0.61616 0.0
C1251 C 0.1624 0.26074 0.61737 0.0
C1252 C 0.16391 0.27571 0.63465 0.0
C1253 C 0.17339 0.26533 0.65071 0.0
C1254 C 0.18238 0.24122 0.64944 0.0
H1255 H 0.13491 0.13853 0.65949 0.0
H1256 H 0.15976 0.17776 0.67025 0.0
H1257 H 0.13303 0.17363 0.651 0.0
H1258 H 0.1694 0.22483 0.60269 0.0
H1259 H 0.15443 0.26788 0.60487 0.0
H1260 H 0.1369 0.8698 0.85214 0.0
H1261 H 0.07868 0.85263 0.85459 0.0
H1262 H 0.09059 0.87388 0.91386 0.0
H1263 H 0.14882 0.88969 0.91148 0.0
H1264 H 0.03546 0.81979 0.90841 0.0
H1265 H 0.03929 0.90964 0.85756 0.0
H1266 H 0.05362 0.88485 0.84668 0.0
H1267 H 0.07608 0.91112 0.8661 0.0
C1268 C 0.12696 0.87061 0.86569 0.0
C1269 C 0.14703 0.88041 0.88167 0.0
C1270 C 0.09378 0.8612 0.86707 0.0
C1271 C 0.08022 0.86273 0.88432 0.0
C1272 C 0.1004 0.87265 0.90036 0.0
H1273 H 0.88323 0.83922 0.88016 0.0
H1274 H 0.94178 0.86154 0.88572 0.0
C1275 C 0.13359 0.88153 0.89903 0.0
C1276 C 0.04487 0.8532 0.88553 0.0
H1277 H 0.98579 0.86316 0.86366 0.0
C1278 C 1.02467 0.8294 0.89867 0.0
C1279 C 0.03072 0.86661 0.8734 0.0
C1280 C 0.05118 0.89474 0.86032 0.0
C1281 C 0.99062 0.81731 0.89925 0.0
C1282 C 0.97612 0.82874 0.88603 0.0
C1283 C 0.99659 0.85379 0.87358 0.0
C1284 C 0.93986 0.81464 0.88443 0.0
C1285 C 0.97071 0.79261 0.91417 0.0
C1286 C 0.91894 0.78075 0.88195 0.0
C1287 C 0.88522 0.76777 0.87918 0.0
C1288 C 0.87152 0.78841 0.87838 0.0
C1289 C 0.89255 0.82237 0.88098 0.0
C1290 C 0.92623 0.83528 0.884 0.0
H1291 H 0.98592 0.79545 0.92672 0.0
H1292 H 0.94938 0.79501 0.91857 0.0
H1293 H 0.96154 0.76749 0.90859 0.0
H1294 H 0.92875 0.76428 0.8817 0.0
H1295 H 0.86995 0.74148 0.87752 0.0
H1296 H 0.77383 0.90226 0.66576 0.0
H1297 H 0.81475 0.96056 0.66523 0.0
H1298 H 0.81064 0.95971 0.60479 0.0
H1299 H 0.77194 0.90034 0.60541 0.0
H1300 H 0.86922 0.99707 0.61385 0.0
H1301 H 0.79946 0.03368 0.66038 0.0
H1302 H 0.81253 1.00958 0.67327 0.0
H1303 H 0.78394 0.9915 0.65424 0.0
C1304 C 0.78145 0.91465 0.65236 0.0
C1305 C 0.76838 0.89719 0.63563 0.0
C1306 C 0.80471 0.94814 0.65206 0.0
C1307 C 0.81488 0.96535 0.63502 0.0
C1308 C 0.80285 0.94747 0.61821 0.0
H1309 H 0.90894 0.17808 0.62919 0.0
H1310 H 0.87217 0.11892 0.62624 0.0
C1311 C 0.78025 0.91362 0.61852 0.0
C1312 C 0.83859 1.00162 0.63471 0.0
H1313 H 0.85527 0.07474 0.65441 0.0
C1314 C 0.86585 1.01398 0.62262 0.0
C1315 C 0.83467 0.02421 0.64613 0.0
C1316 C 0.80588 1.01402 0.65908 0.0
C1317 C 0.88906 0.04776 0.62172 0.0
C1318 C 0.88535 0.06993 0.63345 0.0
C1319 C 0.85818 0.05775 0.64543 0.0
C1320 C 0.90891 0.10596 0.63354 0.0
C1321 C 0.91705 0.05946 0.60801 0.0
C1322 C 0.94198 0.11857 0.63853 0.0
C1323 C 0.96313 0.15253 0.64027 0.0
C1324 C 0.95155 0.17458 0.63727 0.0
C1325 C 0.91859 0.16185 0.63189 0.0
C1326 C 0.89755 0.12799 0.63009 0.0
H1327 H 0.91171 0.04116 0.59674 0.0
H1328 H 0.92243 0.08306 0.60148 0.0
H1329 H 0.93939 0.06342 0.61554 0.0
H1330 H 0.9512 0.10214 0.64169 0.0
H1331 H 0.98823 0.16144 0.64465 0.0
H1332 H 0.16918 0.27567 0.85176 0.0
H1333 H 0.18784 0.2355 0.85297 0.0
H1334 H 0.17492 0.22865 0.91295 0.0
H1335 H 0.15601 0.26888 0.9117 0.0
H1336 H 0.24258 0.24195 0.87308 0.0
H1337 H 0.12686 0.13179 0.89572 0.0
H1338 H 0.12767 0.16772 0.88614 0.0
H1339 H 0.14075 0.16805 0.90981 0.0
C1340 C 0.17044 0.26561 0.86519 0.0
C1341 C 0.16219 0.27602 0.8817 0.0
C1342 C 0.18098 0.24263 0.86587 0.0
C1343 C 0.18266 0.2289 0.88302 0.0
C1344 C 0.17348 0.23858 0.89953 0.0
H1345 H 0.24491 0.08329 0.90357 0.0
H1346 H 0.22407 0.12145 0.90767 0.0
C1347 C 0.16315 0.26188 0.89886 0.0
C1348 C 0.1953 0.20553 0.88347 0.0
H1349 H 0.17321 0.12549 0.89177 0.0
C1350 C 0.22747 0.21657 0.87732 0.0
C1351 C 0.17565 0.1724 0.88904 0.0
C1352 C 0.14072 0.15904 0.89544 0.0
C1353 C 0.24051 0.19548 0.8765 0.0
C1354 C 0.22047 0.16198 0.88132 0.0
C1355 C 0.18853 0.15108 0.88795 0.0
C1356 C 0.23189 0.1378 0.87882 0.0
C1357 C 0.27583 0.20951 0.87063 0.0
C1358 C 0.24239 0.13354 0.86116 0.0
C1359 C 0.2544 0.11193 0.85881 0.0
C1360 C 0.2558 0.09364 0.87402 0.0
C1361 C 0.24411 0.09696 0.89156 0.0
C1362 C 0.23228 0.11883 0.89394 0.0
H1363 H 0.29036 0.2363 0.87345 0.0
H1364 H 0.28756 0.19728 0.87805 0.0
H1365 H 0.27682 0.20585 0.85534 0.0
H1366 H 0.24138 0.14705 0.84914 0.0
H1367 H 0.26249 0.10945 0.84502 0.0
H1368 H 0.15042 0.89057 0.60514 0.0
H1369 H 0.09245 0.87587 0.60287 0.0
H1370 H 0.08178 0.85822 0.66248 0.0
H1371 H 0.13966 0.87396 0.66478 0.0
H1372 H 0.03714 0.8214 0.60976 0.0
H1373 H 0.04283 0.91583 0.65767 0.0
H1374 H 0.0793 0.91668 0.64912 0.0
H1375 H 0.05793 0.89228 0.66931 0.0
C1376 C 0.13551 0.88343 0.61769 0.0
C1377 C 0.14916 0.88274 0.63509 0.0
C1378 C 0.10251 0.87525 0.61643 0.0
C1379 C 0.08277 0.8666 0.63257 0.0
C1380 C 0.09658 0.86577 0.6499 0.0
H1381 H 0.88271 0.77871 0.66663 0.0
H1382 H 0.94195 0.80274 0.66273 0.0
C1383 C 0.12955 0.87436 0.65119 0.0
C1384 C 0.04745 0.85713 0.63142 0.0
H1385 H 0.989 0.86863 0.65285 0.0
C1386 C 0.02669 0.83181 0.61915 0.0
C1387 C 0.03372 0.87142 0.64318 0.0
C1388 C 0.05472 0.90081 0.65538 0.0
C1389 C 0.99247 0.81871 0.61937 0.0
C1390 C 0.97867 0.8318 0.6319 0.0
C1391 C 0.99954 0.85825 0.64346 0.0
C1392 C 0.9426 0.81742 0.63395 0.0
C1393 C 0.97125 0.79002 0.60678 0.0
C1394 C 0.92324 0.81803 0.61912 0.0
C1395 C 0.88924 0.8042 0.6213 0.0
C1396 C 0.87394 0.78947 0.63835 0.0
C1397 C 0.89356 0.78934 0.65322 0.0
C1398 C 0.92748 0.80326 0.65106 0.0
H1399 H 0.98507 0.77879 0.6007 0.0
H1400 H 0.94983 0.77087 0.61461 0.0
H1401 H 0.96182 0.79852 0.59508 0.0
H1402 H 0.93444 0.82926 0.60588 0.0
H1403 H 0.87487 0.8046 0.60954 0.0
H1404 H 0.90401 0.1737 0.87918 0.0
H1405 H 0.86846 0.1148 0.88314 0.0
H1406 H 0.95326 0.10268 0.88708 0.0
H1407 H 0.98905 0.16136 0.88177 0.0
H1408 H 0.91098 0.05847 0.8649 0.0
H1409 H 0.84311 0.05756 0.92806 0.0
H1410 H 0.83925 0.0819 0.91003 0.0
H1411 H 0.87901 0.09427 0.91998 0.0
C1412 C 0.91526 0.15861 0.88078 0.0
C1413 C 0.94962 0.17261 0.88004 0.0
C1414 C 0.89477 0.12483 0.88341 0.0
C1415 C 0.90803 0.10414 0.88582 0.0
C1416 C 0.94232 0.11805 0.88542 0.0
H1417 H 0.77438 0.89495 0.91227 0.0
H1418 H 0.81699 0.95309 0.91482 0.0
C1419 C 0.96284 0.15181 0.88255 0.0
C1420 C 0.88612 0.06783 0.88733 0.0
H1421 H 0.81812 1.00812 0.90961 0.0
C1422 C 0.89084 0.04751 0.87481 0.0
C1423 C 0.86025 0.05312 0.90054 0.0
C1424 C 0.85535 0.07286 0.91554 0.0
C1425 C 0.86969 1.01335 0.87453 0.0
C1426 C 0.84216 0.99899 0.88664 0.0
C1427 C 0.83847 0.01904 0.89987 0.0
C1428 C 0.8164 0.96361 0.8853 0.0
C1429 C 0.87751 0.99307 0.86138 0.0
C1430 C 0.80139 0.95014 0.86799 0.0
C1431 C 0.77751 0.917 0.86652 0.0
C1432 C 0.76704 0.89688 0.88245 0.0
C1433 C 0.78159 0.91022 0.89985 0.0
C1434 C 0.80601 0.94336 0.90128 0.0
H1435 H 0.90432 1.00506 0.85871 0.0
H1436 H 0.86904 0.96812 0.86705 0.0
H1437 H 0.86527 0.99075 0.84771 0.0
H1438 H 0.80801 0.96529 0.85556 0.0
H1439 H 0.76678 0.90714 0.85293 0.0
H1440 H 0.36131 0.21272 0.3382 0.0
H1441 H 0.3655 0.22298 0.30422 0.0
H1442 H 0.41118 0.16381 0.29756 0.0
H1443 H 0.40704 0.15344 0.33117 0.0
H1444 H 0.41966 0.24796 0.27694 0.0
H1445 H 0.32676 0.11726 0.26542 0.0
H1446 H 0.33395 0.13666 0.28811 0.0
H1447 H 0.36092 0.12286 0.27941 0.0
C1448 C 0.3729 0.20254 0.32953 0.0
C1449 C 0.38352 0.18199 0.33737 0.0
C1450 C 0.37516 0.20831 0.31011 0.0
C1451 C 0.38808 0.19364 0.2983 0.0
C1452 C 0.40059 0.17491 0.30632 0.0
H1453 H 0.41479 0.16083 0.18442 0.0
H1454 H 0.41734 0.17015 0.21814 0.0
C1455 C 0.39826 0.16908 0.32559 0.0
C1456 C 0.38674 0.19573 0.27753 0.0
H1457 H 0.35682 0.14735 0.2386 0.0
C1458 C 0.4056 0.22609 0.26851 0.0
C1459 C 0.36816 0.16722 0.26655 0.0
C1460 C 0.34603 0.13419 0.27534 0.0
C1461 C 0.40763 0.22829 0.24879 0.0
C1462 C 0.3902 0.19946 0.23791 0.0
C1463 C 0.37041 0.16941 0.24695 0.0
C1464 C 0.39329 0.19907 0.21718 0.0
C1465 C 0.42936 0.26106 0.23968 0.0
C1466 C 0.37968 0.21301 0.20529 0.0
C1467 C 0.37819 0.20769 0.18584 0.0
C1468 C 0.39005 0.18814 0.17808 0.0
C1469 C 0.40534 0.17593 0.18996 0.0
C1470 C 0.40682 0.18121 0.20926 0.0
H1471 H 0.44453 0.28032 0.25009 0.0
H1472 H 0.44584 0.25901 0.22932 0.0
H1473 H 0.41391 0.26891 0.23202 0.0
H1474 H 0.36868 0.2265 0.21113 0.0
H1475 H 0.36589 0.21706 0.1771 0.0
H1476 H 0.78137 0.62854 0.33195 0.0
H1477 H 0.78794 0.62531 0.29828 0.0
H1478 H 0.89304 0.67534 0.30506 0.0
H1479 H 0.88662 0.67884 0.33904 0.0
H1480 H 0.8252 0.68583 0.27749 0.0
H1481 H 0.87131 0.59867 0.2666 0.0
H1482 H 0.84858 0.59734 0.2873 0.0
H1483 H 0.89027 0.62954 0.28455 0.0
C1484 C 0.80591 0.63817 0.32639 0.0
C1485 C 0.8335 0.65405 0.33818 0.0
C1486 C 0.80961 0.63629 0.30711 0.0
C1487 C 0.84095 0.64998 0.29913 0.0
C1488 C 0.8686 0.6642 0.31095 0.0
H1489 H 0.88576 0.68013 0.17809 0.0
H1490 H 0.89181 0.67597 0.21207 0.0
C1491 C 0.8649 0.66611 0.33037 0.0
C1492 C 0.84421 0.65269 0.27839 0.0
H1493 H 0.86306 0.6227 0.23957 0.0
C1494 C 0.83369 0.67217 0.26922 0.0
C1495 C 0.85564 0.63518 0.26764 0.0
C1496 C 0.86701 0.61382 0.2769 0.0
C1497 C 0.83352 0.67406 0.24961 0.0
C1498 C 0.84345 0.65536 0.23875 0.0
C1499 C 0.85521 0.63681 0.2479 0.0
C1500 C 0.83992 0.65374 0.21798 0.0
C1501 C 0.82242 0.69595 0.2407 0.0
C1502 C 0.8087 0.64138 0.20994 0.0
C1503 C 0.80522 0.64371 0.19066 0.0
C1504 C 0.83286 0.65824 0.17889 0.0
C1505 C 0.86399 0.66863 0.18675 0.0
C1506 C 0.86748 0.6664 0.20617 0.0
H1507 H 0.82501 0.7155 0.25047 0.0
H1508 H 0.83662 0.70768 0.22779 0.0
H1509 H 0.7961 0.68095 0.23688 0.0
H1510 H 0.78703 0.63098 0.2187 0.0
H1511 H 0.78084 0.63516 0.18506 0.0
H1512 H 0.88936 0.26485 0.18533 0.0
H1513 H 0.87912 0.25803 0.21895 0.0
H1514 H 0.81916 0.15341 0.21155 0.0
H1515 H 0.82932 0.16008 0.17759 0.0
H1516 H 0.79533 0.18328 0.23977 0.0
H1517 H 0.92549 0.21746 0.24944 0.0
H1518 H 0.92033 0.24703 0.23623 0.0
H1519 H 0.90539 0.20642 0.22689 0.0
C1520 C 0.87348 0.24038 0.19075 0.0
C1521 C 0.86035 0.21296 0.17877 0.0
C1522 C 0.86771 0.23654 0.21001 0.0
C1523 C 0.84885 0.20518 0.21781 0.0
C1524 C 0.83388 0.17784 0.20581 0.0
H1525 H 0.82807 0.15684 0.33849 0.0
H1526 H 0.81776 0.15119 0.30455 0.0
C1527 C 0.83958 0.18169 0.1864 0.0
C1528 C 0.84729 0.20128 0.23853 0.0
H1529 H 0.89673 0.21768 0.27684 0.0
C1530 C 0.81735 0.19035 0.24791 0.0
C1531 C 0.87601 0.21024 0.24913 0.0
C1532 C 0.90858 0.22063 0.23992 0.0
C1533 C 0.81583 0.18981 0.26767 0.0
C1534 C 0.84491 0.20025 0.27818 0.0
C1535 C 0.87449 0.20993 0.26875 0.0
C1536 C 0.84609 0.20329 0.29893 0.0
C1537 C 0.78354 0.17942 0.27721 0.0
C1538 C 0.86487 0.23441 0.30706 0.0
C1539 C 0.8707 0.23768 0.32633 0.0
C1540 C 0.85815 0.20985 0.33795 0.0
C1541 C 0.83783 0.17875 0.32997 0.0
C1542 C 0.83195 0.17549 0.31057 0.0
H1543 H 0.76412 0.17609 0.26711 0.0
H1544 H 0.77534 0.15583 0.28461 0.0
H1545 H 0.78647 0.19792 0.28785 0.0
H1546 H 0.8761 0.25619 0.29836 0.0
H1547 H 0.88627 0.26203 0.33202 0.0
H1548 H 0.17117 0.40303 0.68504 0.0
H1549 H 0.18088 0.40521 0.71869 0.0
H1550 H 0.23393 0.35327 0.71129 0.0
H1551 H 0.22405 0.35077 0.6773 0.0
H1552 H 0.15671 0.34331 0.73908 0.0
H1553 H 0.29014 0.43007 0.75002 0.0
H1554 H 0.26857 0.4324 0.72962 0.0
H1555 H 0.27764 0.3998 0.73166 0.0
C1556 C 0.18557 0.39269 0.69046 0.0
C1557 C 0.19674 0.37659 0.67849 0.0
C1558 C 0.19111 0.39399 0.70973 0.0
C1559 C 0.20819 0.3795 0.71751 0.0
C1560 C 0.22105 0.36499 0.70554 0.0
H1561 H 0.22142 0.35026 0.83912 0.0
H1562 H 0.2318 0.35291 0.80517 0.0
C1563 C 0.21547 0.36365 0.68612 0.0
C1564 C 0.20884 0.37648 0.73821 0.0
H1565 H 0.25773 0.40683 0.77704 0.0
C1566 C 0.17887 0.35696 0.74736 0.0
C1567 C 0.2378 0.39405 0.74896 0.0
C1568 C 0.27047 0.41543 0.73969 0.0
C1569 C 0.17686 0.35524 0.76696 0.0
C1570 C 0.20549 0.37407 0.77782 0.0
C1571 C 0.23579 0.39256 0.7687 0.0
C1572 C 0.20349 0.37634 0.79852 0.0
C1573 C 0.14389 0.33356 0.7759 0.0
C1574 C 0.18529 0.38979 0.80607 0.0
C1575 C 0.1794 0.38833 0.8253 0.0
C1576 C 0.19172 0.37355 0.8375 0.0
C1577 C 0.21174 0.36194 0.83011 0.0
C1578 C 0.21758 0.36333 0.81072 0.0
H1579 H 0.12678 0.31403 0.76616 0.0
H1580 H 0.14639 0.32185 0.78883 0.0
H1581 H 0.13276 0.34873 0.77973 0.0
H1582 H 0.17461 0.40041 0.79698 0.0
H1583 H 0.16416 0.39783 0.83053 0.0
H1584 H 0.26757 0.87709 0.83041 0.0
H1585 H 0.25915 0.86438 0.79707 0.0
H1586 H 0.15485 0.80546 0.80612 0.0
H1587 H 0.16309 0.81871 0.83973 0.0
H1588 H 0.2294 0.8048 0.77671 0.0
H1589 H 0.16363 0.87475 0.76741 0.0
H1590 H 0.18684 0.87824 0.78829 0.0
H1591 H 0.14735 0.84253 0.78461 0.0
C1592 C 0.24281 0.86107 0.8254 0.0
C1593 C 0.21594 0.84911 0.83772 0.0
C1594 C 0.23806 0.85378 0.8063 0.0
C1595 C 0.20635 0.83438 0.79902 0.0
C1596 C 0.17951 0.8209 0.81139 0.0
H1597 H 0.16387 0.82023 0.67753 0.0
H1598 H 0.15579 0.80674 0.7111 0.0
C1599 C 0.18427 0.82819 0.83063 0.0
C1600 C 0.20189 0.83002 0.77836 0.0
H1601 H 0.17515 0.85424 0.74027 0.0
C1602 C 0.2171 0.81516 0.76876 0.0
C1603 C 0.1859 0.84362 0.76796 0.0
C1604 C 0.17015 0.86091 0.77749 0.0
C1605 C 0.21758 0.81439 0.74907 0.0
C1606 C 0.20286 0.82925 0.73867 0.0
C1607 C 0.18632 0.84275 0.74825 0.0
C1608 C 0.20745 0.83429 0.71807 0.0
C1609 C 0.23445 0.79822 0.73955 0.0
C1610 C 0.23911 0.85404 0.71083 0.0
C1611 C 0.24374 0.86173 0.69178 0.0
C1612 C 0.21681 0.84996 0.67946 0.0
C1613 C 0.18513 0.82932 0.68658 0.0
C1614 C 0.18047 0.82178 0.70578 0.0
H1615 H 0.23524 0.77958 0.74875 0.0
H1616 H 0.22192 0.78625 0.72624 0.0
H1617 H 0.26011 0.81713 0.73626 0.0
H1618 H 0.26025 0.86455 0.72005 0.0
H1619 H 0.26848 0.87775 0.68678 0.0
H1620 H 0.69227 0.87945 0.67749 0.0
H1621 H 0.68932 0.887 0.71142 0.0
H1622 H 0.64503 0.78261 0.71961 0.0
H1623 H 0.64786 0.77489 0.68605 0.0
H1624 H 0.6354 0.85748 0.73954 0.0
H1625 H 0.73166 0.82403 0.75046 0.0
H1626 H 0.72307 0.83498 0.72776 0.0
H1627 H 0.69738 0.79434 0.73698 0.0
C1628 C 0.68121 0.85808 0.68648 0.0
C1629 C 0.67058 0.82661 0.67907 0.0
C1630 C 0.67966 0.86244 0.70587 0.0
C1631 C 0.66747 0.83541 0.71807 0.0
C1632 C 0.655 0.80387 0.71051 0.0
H1633 H 0.64144 0.77606 0.83126 0.0
H1634 H 0.63929 0.78384 0.79765 0.0
C1635 C 0.65659 0.79952 0.69128 0.0
C1636 C 0.66962 0.83976 0.73878 0.0
H1637 H 0.70173 0.82348 0.77755 0.0
C1638 C 0.65028 0.85059 0.74789 0.0
C1639 C 0.68925 0.83099 0.74965 0.0
C1640 C 0.71178 0.82074 0.74073 0.0
C1641 C 0.64874 0.85109 0.76762 0.0
C1642 C 0.66712 0.84069 0.7784 0.0
C1643 C 0.68748 0.83126 0.76926 0.0
C1644 C 0.66399 0.83679 0.79908 0.0
C1645 C 0.62644 0.86125 0.77689 0.0
C1646 C 0.67791 0.86404 0.81118 0.0
C1647 C 0.67922 0.85966 0.83059 0.0
C1648 C 0.66686 0.82798 0.83807 0.0
C1649 C 0.65132 0.80081 0.82596 0.0
C1650 C 0.65004 0.80519 0.80671 0.0
H1651 H 0.61165 0.86602 0.76655 0.0
H1652 H 0.60959 0.84184 0.78673 0.0
H1653 H 0.64137 0.88392 0.78519 0.0
H1654 H 0.68918 0.88868 0.80554 0.0
H1655 H 0.69166 0.88106 0.83953 0.0
H1656 H 0.28681 0.97709 0.93409 0.0
H1657 H 0.29727 1.00917 0.96253 0.0
H1658 H 0.20558 0.93443 0.98569 0.0
H1659 H 0.19436 0.90191 0.95682 0.0
H1660 H 0.25574 0.0325 0.97891 0.0
H1661 H 0.27743 0.9513 0.02639 0.0
H1662 H 0.27992 0.94936 1.0012 0.0
H1663 H 0.24067 0.93268 0.01236 0.0
C1664 C 0.26868 0.96715 0.94515 0.0
C1665 C 0.23978 0.9365 0.94311 0.0
C1666 C 0.2748 0.98572 0.96146 0.0
C1667 C 0.25241 0.97419 0.97632 0.0
C1668 C 0.22344 0.94365 0.97447 0.0
H1669 H 0.27904 0.06048 0.08817 0.0
H1670 H 0.25638 0.02553 0.06049 0.0
C1671 C 0.21711 0.92501 0.95798 0.0
C1672 C 0.25977 0.99467 0.99352 0.0
H1673 H 0.28377 1.00011 0.03922 0.0
C1674 C 0.26161 0.02534 0.99216 0.0
C1675 C 0.26742 0.98532 0.01079 0.0
C1676 C 0.26652 0.95298 0.01291 0.0
C1677 C 0.27101 0.04694 1.00754 0.0
C1678 C 0.27976 0.0381 0.02468 0.0
C1679 C 0.27721 1.00707 0.02612 0.0
C1680 C 0.29212 0.0607 0.0412 0.0
C1681 C 0.27103 0.07884 1.00528 0.0
C1682 C 0.31973 0.09237 0.03973 0.0
C1683 C 0.3325 0.11257 0.05559 0.0
C1684 C 0.3182 0.1014 0.07327 0.0
C1685 C 0.29051 0.06986 0.0747 0.0
C1686 C 0.27756 0.04981 0.05887 0.0
H1687 H 0.254 0.07716 0.99397 0.0
H1688 H 0.26388 0.08607 0.01849 0.0
H1689 H 0.29605 0.09848 1.00138 0.0
H1690 H 0.33218 0.10107 0.02645 0.0
H1691 H 0.35453 0.1361 0.05411 0.0
H1692 H 0.8114 0.76229 0.42702 0.0
H1693 H 0.79924 0.78555 0.45439 0.0
H1694 H 0.80692 0.71541 0.48985 0.0
H1695 H 0.81972 0.69257 0.46242 0.0
H1696 H 0.74868 0.75824 0.47676 0.0
H1697 H 0.85941 0.79645 0.52022 0.0
H1698 H 0.8574 0.78467 0.49599 0.0
H1699 H 0.83998 0.75387 0.51403 0.0
C1700 C 0.81104 0.75217 0.44071 0.0
C1701 C 0.81709 0.7259 0.44258 0.0
C1702 C 0.80402 0.76548 0.45637 0.0
C1703 C 0.80259 0.75271 0.47436 0.0
C1704 C 0.80887 0.72653 0.47628 0.0
H1705 H 0.7245 0.75822 0.58093 0.0
H1706 H 0.74627 0.74834 0.55246 0.0
C1707 C 0.81631 0.71345 0.46057 0.0
C1708 C 0.79242 0.76541 0.49077 0.0
H1709 H 0.81278 0.79331 0.53583 0.0
C1710 C 0.76303 0.76637 0.48956 0.0
C1711 C 0.81106 0.77625 0.50753 0.0
C1712 C 0.84388 0.77811 0.50948 0.0
C1713 C 0.75126 0.77659 0.50477 0.0
C1714 C 0.76929 0.78621 0.52169 0.0
C1715 C 0.79898 0.78598 0.52282 0.0
C1716 C 0.75614 0.79341 0.53893 0.0
C1717 C 0.71895 0.77584 0.50297 0.0
C1718 C 0.75443 0.82229 0.54091 0.0
C1719 C 0.74204 0.82834 0.55747 0.0
C1720 C 0.73088 0.80544 0.57224 0.0
C1721 C 0.73268 0.77657 0.56999 0.0
C1722 C 0.74524 0.77077 0.55365 0.0
H1723 H 0.70649 0.76504 0.48944 0.0
H1724 H 0.70238 0.76142 0.51463 0.0
H1725 H 0.72318 0.80121 0.50398 0.0
H1726 H 0.76298 0.84027 0.52974 0.0
H1727 H 0.7416 0.85103 0.55877 0.0
H1728 H 0.06971 0.32223 0.93585 0.0
H1729 H 0.03777 0.29971 0.96418 0.0
H1730 H 0.11184 0.28052 0.98621 0.0
H1731 H 0.14428 0.30278 0.9574 0.0
H1732 H 1.01433 0.2332 0.97945 0.0
H1733 H 0.09493 0.33466 0.02799 0.0
H1734 H 0.09647 0.3403 1.00289 0.0
H1735 H 0.11353 0.31741 0.01324 0.0
C1736 C 0.07956 0.31338 0.94663 0.0
C1737 C 0.10995 0.31467 0.94427 0.0
C1738 C 0.06105 0.30039 0.96288 0.0
C1739 C 0.07238 0.28855 0.97737 0.0
C1740 C 0.10274 0.28983 0.97526 0.0
H1741 H 0.9845 0.22754 0.08866 0.0
H1742 H 1.01977 0.23953 0.0612 0.0
C1743 C 0.12133 0.30267 0.95881 0.0
C1744 C 0.05183 0.27476 0.99446 0.0
H1745 H 0.04552 0.29231 0.04019 0.0
C1746 C 1.02125 0.24591 0.99281 0.0
C1747 C 0.06086 0.29135 0.01184 0.0
C1748 C 0.09313 0.32276 0.01425 0.0
C1749 C 0.99937 0.23332 1.00802 0.0
C1750 C 1.00784 0.25057 0.02528 0.0
C1751 C 0.03883 0.27904 0.02701 0.0
C1752 C 0.98488 0.24007 0.04161 0.0
C1753 C 0.96758 0.20147 1.00546 0.0
C1754 C 0.95321 0.23597 0.03988 0.0
C1755 C 0.93279 0.22862 0.05561 0.0
C1756 C 0.94379 0.22564 0.0734 0.0
C1757 C 0.97526 0.22941 0.07508 0.0
C1758 C 0.9955 0.23639 0.05938 0.0
H1759 H 0.96959 0.18631 0.99417 0.0
H1760 H 0.96001 0.18688 0.01859 0.0
H1761 H 0.94801 0.20686 1.00135 0.0
H1762 H 0.9447 0.23971 0.02651 0.0
H1763 H 0.90929 0.22718 0.05396 0.0
H1764 H 0.35244 0.13652 0.46303 0.0
H1765 H 0.33077 0.10079 0.49063 0.0
H1766 H 0.25655 0.02442 0.45612 0.0
H1767 H 0.27857 0.05977 0.42862 0.0
H1768 H 0.27211 0.06906 0.50875 0.0
H1769 H 0.29915 0.97668 0.47843 0.0
H1770 H 0.31384 1.01652 0.46802 0.0
H1771 H 0.27233 0.98415 0.46401 0.0
C1772 C 0.33107 0.11244 0.46145 0.0
C1773 C 0.31713 0.10099 0.44369 0.0
C1774 C 0.31883 0.09186 0.4772 0.0
C1775 C 0.29248 0.05948 0.47544 0.0
C1776 C 0.2775 0.04882 0.45783 0.0
H1777 H 0.19567 0.90066 0.55944 0.0
H1778 H 0.20673 0.93392 0.53086 0.0
C1779 C 0.28993 0.06917 0.44213 0.0
C1780 C 0.28119 0.03658 0.49182 0.0
H1781 H 0.26923 0.96221 0.50689 0.0
C1782 C 0.27148 0.04572 0.5083 0.0
C1783 C 0.28035 1.00598 0.49135 0.0
C1784 C 0.29227 0.99534 0.47458 0.0
C1785 C 0.26097 0.02523 0.52419 0.0
C1786 C 0.26019 0.99477 0.52368 0.0
C1787 C 0.26941 0.98535 0.50717 0.0
C1788 C 0.253 0.97399 0.54072 0.0
C1789 C 0.25087 0.03632 0.5415 0.0
C1790 C 0.27553 0.98513 0.55554 0.0
C1791 C 0.26961 0.9661 0.57163 0.0
C1792 C 0.24083 0.93527 0.57345 0.0
C1793 C 0.21823 0.92398 0.5585 0.0
C1794 C 0.22442 0.94307 0.5422 0.0
H1795 H 0.24571 0.05644 0.53839 0.0
H1796 H 0.22874 1.01555 0.54792 0.0
H1797 H 0.27104 0.04547 0.55196 0.0
H1798 H 0.29793 1.00866 0.55464 0.0
H1799 H 0.28777 0.97588 0.58271 0.0
H1800 H 0.81642 0.68978 0.05449 0.0
H1801 H 0.8021 0.71077 0.02671 0.0
H1802 H 0.80821 0.7906 0.05948 0.0
H1803 H 0.8228 0.76982 0.08718 0.0
H1804 H 0.74438 0.71912 0.02623 0.0
H1805 H 0.85933 0.8354 0.01023 0.0
H1806 H 0.8591 0.80259 0.02354 0.0
H1807 H 0.84626 0.82879 0.0343 0.0
C1808 C 0.81601 0.71246 0.05559 0.0
C1809 C 0.82149 0.72856 0.07291 0.0
C1810 C 0.80739 0.72425 0.03976 0.0
C1811 C 0.80443 0.75251 0.04093 0.0
C1812 C 0.81089 0.76913 0.05811 0.0
H1813 H 0.73993 0.8482 0.95781 0.0
H1814 H 0.76011 0.83558 0.9867 0.0
C1815 C 0.81916 0.75718 0.07394 0.0
C1816 C 0.7917 0.76289 0.02473 0.0
H1817 H 0.81205 0.82446 0.99286 0.0
C1818 C 0.75922 0.74211 0.0189 0.0
C1819 C 0.81081 0.79319 0.01542 0.0
C1820 C 0.84591 0.81631 0.02104 0.0
C1821 C 0.74538 0.75067 1.004 0.0
C1822 C 0.7648 0.78048 0.99421 0.0
C1823 C 0.79712 0.80163 1.0003 0.0
C1824 C 0.75261 0.78877 0.97687 0.0
C1825 C 0.70983 0.72778 0.99908 0.0
C1826 C 0.74222 0.7671 0.96161 0.0
C1827 C 0.73034 0.77399 0.94533 0.0
C1828 C 0.72884 0.80306 0.94361 0.0
C1829 C 0.74003 0.82529 0.95873 0.0
C1830 C 0.75182 0.8182 0.97521 0.0
H1831 H 0.69586 0.71272 0.01133 0.0
H1832 H 0.69783 0.74149 0.99394 0.0
H1833 H 0.70835 0.71072 0.98789 0.0
H1834 H 0.74344 0.74473 0.96224 0.0
H1835 H 0.72247 0.7563 0.93402 0.0
H1836 H 0.06932 0.32097 0.58276 0.0
H1837 H 0.03607 0.29924 0.55489 0.0
H1838 H 0.11063 0.28389 0.52977 0.0
H1839 H 0.14397 0.30451 0.5584 0.0
H1840 H 0.04668 0.32115 0.52031 0.0
H1841 H 0.03053 0.1959 0.52032 0.0
H1842 H 0.04781 0.22341 0.54001 0.0
H1843 H 0.07252 0.22837 0.51973 0.0
C1844 C 0.07893 0.31293 0.57145 0.0
C1845 C 0.10971 0.31479 0.57296 0.0
C1846 C 0.05968 0.30047 0.55539 0.0
C1847 C 0.07045 0.2895 0.54018 0.0
C1848 C 0.10133 0.29154 0.54142 0.0
H1849 H 0.98412 0.2288 0.42909 0.0
H1850 H 1.01902 0.24333 0.45696 0.0
C1851 C 0.12066 0.30381 0.55773 0.0
C1852 C 0.04923 0.27688 0.52309 0.0
H1853 H 1.00783 0.20976 0.4946 0.0
C1854 C 0.03819 0.29674 0.51476 0.0
C1855 C 0.03795 0.24498 0.51575 0.0
C1856 C 0.04752 0.22176 0.52448 0.0
C1857 C 1.01635 0.2857 0.49949 0.0
C1858 C 1.00498 0.25383 0.49226 0.0
C1859 C 1.01636 0.23409 0.50028 0.0
C1860 C 0.98226 0.24134 0.47589 0.0
C1861 C 1.0058 0.30836 0.491 0.0
C1862 C 0.94959 0.23448 0.47732 0.0
C1863 C 0.92942 0.22588 0.46136 0.0
C1864 C 0.9417 0.22424 0.44371 0.0
C1865 C 0.974 0.22998 0.44249 0.0
C1866 C 0.99397 0.2382 0.45842 0.0
H1867 H 1.02085 0.33395 0.49617 0.0
H1868 H 1.00756 0.3084 0.47549 0.0
H1869 H 0.97979 0.29951 0.49468 0.0
H1870 H 0.94002 0.2367 0.4907 0.0
H1871 H 0.90496 0.22229 0.46269 0.0
H1872 H 0.64497 0.09782 0.11228 0.0
H1873 H 0.59398 0.09782 0.11816 0.0
H1874 H 0.6484 0.20263 0.12644 0.0
H1875 H 0.69959 0.20311 0.11938 0.0
H1876 H 0.56653 0.11486 0.14534 0.0
H1877 H 0.58981 0.19573 0.08373 0.0
H1878 H 0.61523 0.1782 0.08912 0.0
H1879 H 0.62043 0.21363 0.10173 0.0
C1880 C 0.64619 0.12096 0.11533 0.0
C1881 C 0.67639 0.1506 0.11481 0.0
C1882 C 0.61695 0.12085 0.11889 0.0
C1883 C 0.61713 0.15033 0.12221 0.0
C1884 C 0.64748 0.17966 0.12335 0.0
H1885 H 0.43458 0.15347 0.14583 0.0
H1886 H 0.48529 0.15166 0.15006 0.0
C1887 C 0.67683 0.17985 0.11956 0.0
C1888 C 0.5854 0.15025 0.12296 0.0
H1889 H 0.54129 0.17971 0.10052 0.0
C1890 C 0.56102 0.12914 0.13559 0.0
C1891 C 0.57796 0.16848 0.11005 0.0
C1892 C 0.60207 0.19005 0.09527 0.0
C1893 C 0.52938 0.1254 0.13548 0.0
C1894 C 0.52208 0.14383 0.12263 0.0
C1895 C 0.54673 0.16545 0.11033 0.0
C1896 C 0.48894 0.14053 0.12099 0.0
C1897 C 0.5038 0.10081 0.1486 0.0
C1898 C 0.47377 0.13472 0.10332 0.0
C1899 C 0.44518 0.13638 0.10085 0.0
C1900 C 0.43066 0.14315 0.11606 0.0
C1901 C 0.44479 0.14739 0.13395 0.0
C1902 C 0.47382 0.1463 0.13637 0.0
H1903 H 0.51026 0.08234 0.1535 0.0
H1904 H 0.50194 0.11381 0.1611 0.0
H1905 H 0.47939 0.08779 0.14174 0.0
H1906 H 0.48479 0.13013 0.09123 0.0
H1907 H 0.43492 0.13336 0.0869 0.0
H1908 H 0.75517 0.6081 0.37069 0.0
H1909 H 0.70281 0.55716 0.36667 0.0
H1910 H 0.6816 0.55884 0.42536 0.0
H1911 H 0.73469 0.60875 0.42951 0.0
H1912 H 0.67264 0.50206 0.41718 0.0
H1913 H 0.60967 0.53288 0.36192 0.0
H1914 H 0.64889 0.53929 0.35461 0.0
H1915 H 0.64648 0.56365 0.37328 0.0
C1916 C 0.73889 0.59806 0.38259 0.0
C1917 C 0.74873 0.6126 0.40038 0.0
C1918 C 0.70883 0.56887 0.38028 0.0
C1919 C 0.68782 0.55403 0.39567 0.0
C1920 C 0.69724 0.56956 0.41325 0.0
H1921 H 0.48682 0.40102 0.40119 0.0
H1922 H 0.53904 0.45111 0.39637 0.0
C1923 C 0.72749 0.59822 0.41562 0.0
C1924 C 0.65758 0.52103 0.3941 0.0
H1925 H 0.58497 0.47669 0.37054 0.0
C1926 C 0.65346 0.49663 0.40699 0.0
C1927 C 0.63247 0.51363 0.38076 0.0
C1928 C 0.63439 0.53881 0.36696 0.0
C1929 C 0.62482 0.4657 0.40735 0.0
C1930 C 0.5998 0.45817 0.39393 0.0
C1931 C 0.60421 0.48223 0.38072 0.0
C1932 C 0.56769 0.42681 0.39459 0.0
C1933 C 0.62113 0.44204 0.42273 0.0
C1934 C 0.56588 0.39602 0.39445 0.0
C1935 C 0.53591 0.36714 0.39768 0.0
C1936 C 0.50705 0.36844 0.40082 0.0
C1937 C 0.50863 0.39907 0.39942 0.0
C1938 C 0.53854 0.42784 0.39645 0.0
H1939 H 0.63849 0.4546 0.43448 0.0
H1940 H 0.5958 0.42937 0.42843 0.0
H1941 H 0.62641 0.42325 0.417 0.0
H1942 H 0.58781 0.39437 0.39245 0.0
H1943 H 0.53569 0.34405 0.39855 0.0
H1944 H 0.89326 0.29142 0.14574 0.0
H1945 H 0.89389 0.34347 0.15014 0.0
H1946 H 0.90781 0.36182 0.0907 0.0
H1947 H 0.9062 0.30948 0.08624 0.0
H1948 H 0.93529 0.40809 0.14315 0.0
H1949 H 0.82437 0.36395 0.09917 0.0
H1950 H 0.83929 0.33728 0.10689 0.0
H1951 H 0.85684 0.363 0.0866 0.0
C1952 C 0.89706 0.30688 0.13369 0.0
C1953 C 0.89974 0.29651 0.11563 0.0
C1954 C 0.89727 0.33655 0.1362 0.0
C1955 C 0.89993 0.35615 0.12068 0.0
C1956 C 0.90468 0.34668 0.10282 0.0
H1957 H 0.94707 0.55606 0.11165 0.0
H1958 H 0.94672 0.50515 0.11799 0.0
C1959 C 0.90407 0.31694 0.10029 0.0
C1960 C 0.89628 0.38566 0.12286 0.0
H1961 H 0.85448 0.42171 0.1052 0.0
C1962 C 0.9174 0.41097 0.13501 0.0
C1963 C 0.87223 0.38908 0.11274 0.0
C1964 C 0.84666 0.36171 0.10079 0.0
C1965 C 0.91624 0.44022 0.13654 0.0
C1966 C 0.89402 0.44472 0.12519 0.0
C1967 C 0.87184 0.41868 0.11377 0.0
C1968 C 0.89466 0.47672 0.12378 0.0
C1969 C 0.93876 0.46582 0.15041 0.0
C1970 C 0.86547 0.47808 0.12473 0.0
C1971 C 0.86542 0.50719 0.1205 0.0
C1972 C 0.89459 0.53558 0.11521 0.0
C1973 C 0.92401 0.53457 0.11533 0.0
C1974 C 0.92397 0.50547 0.1193 0.0
H1975 H 0.94387 0.45428 0.16256 0.0
H1976 H 0.96257 0.48235 0.14353 0.0
H1977 H 0.92819 0.48076 0.15568 0.0
H1978 H 0.84245 0.45627 0.12809 0.0
H1979 H 0.84227 0.50692 0.12045 0.0
H1980 H 0.43973 0.14524 0.43078 0.0
H1981 H 0.48962 0.14199 0.4268 0.0
H1982 H 0.47945 0.14294 0.36675 0.0
H1983 H 0.42993 0.14732 0.37076 0.0
H1984 H 0.50233 0.09807 0.41013 0.0
H1985 H 0.57203 0.21887 0.37467 0.0
H1986 H 0.53307 0.20558 0.38593 0.0
H1987 H 0.53458 0.19 0.36318 0.0
C1988 C 0.44796 0.1444 0.41672 0.0
C1989 C 0.43069 0.14607 0.4011 0.0
C1990 C 0.4765 0.14257 0.41445 0.0
C1991 C 0.48873 0.14277 0.39648 0.0
C1992 C 0.47096 0.14345 0.38077 0.0
H1993 H 0.64784 0.0981 0.38479 0.0
H1994 H 0.59654 0.09878 0.38068 0.0
C1995 C 0.44236 0.14543 0.38306 0.0
C1996 C 0.5204 0.14294 0.39453 0.0
H1997 H 0.59939 0.18872 0.37878 0.0
C1998 C 0.52349 0.1178 0.40317 0.0
C1999 C 0.54824 0.16897 0.38571 0.0
C2000 C 0.54707 0.19758 0.37698 0.0
C2001 C 0.55351 0.11808 0.40344 0.0
C2002 C 0.58125 0.14381 0.39436 0.0
C2003 C 0.57815 0.16887 0.38559 0.0
C2004 C 0.61384 0.14557 0.39446 0.0
C2005 C 0.55546 0.0914 0.41412 0.0
C2006 C 0.64149 0.17264 0.40245 0.0
C2007 C 0.67116 0.17257 0.40449 0.0
C2008 C 0.67361 0.14535 0.39864 0.0
C2009 C 0.64653 0.11923 0.38963 0.0
C2010 C 0.61711 0.11948 0.38741 0.0
H2011 H 0.53513 0.07913 0.42438 0.0
H2012 H 0.55357 0.07247 0.40412 0.0
H2013 H 0.57912 0.10135 0.42176 0.0
H2014 H 0.63971 0.1932 0.40787 0.0
H2015 H 0.69156 0.19295 0.41155 0.0
H2016 H 0.49111 0.40085 0.10976 0.0
H2017 H 0.54195 0.45186 0.11594 0.0
H2018 H 0.59143 0.39726 0.12681 0.0
H2019 H 0.54087 0.34599 0.11951 0.0
H2020 H 0.58518 0.47981 0.14381 0.0
H2021 H 0.64522 0.45455 0.08422 0.0
H2022 H 0.60201 0.42947 0.08898 0.0
H2023 H 0.6315 0.42444 0.10252 0.0
C2024 C 0.51278 0.39959 0.11347 0.0
C2025 C 0.51206 0.3693 0.11362 0.0
C2026 C 0.54183 0.42885 0.11718 0.0
C2027 C 0.57086 0.4286 0.12131 0.0
C2028 C 0.5696 0.39821 0.1231 0.0
H2029 H 0.75516 0.61278 0.14555 0.0
H2030 H 0.70296 0.5617 0.14962 0.0
C2031 C 0.54053 0.36882 0.11917 0.0
C2032 C 0.60253 0.46026 0.12224 0.0
H2033 H 0.67695 0.50367 0.1007 0.0
C2034 C 0.60535 0.48502 0.13445 0.0
C2035 C 0.62871 0.46729 0.10983 0.0
C2036 C 0.62673 0.4427 0.09552 0.0
C2037 C 0.63325 0.51665 0.13436 0.0
C2038 C 0.65944 0.52357 0.12198 0.0
C2039 C 0.6569 0.49853 0.11014 0.0
C2040 C 0.68926 0.55674 0.12029 0.0
C2041 C 0.63371 0.54261 0.14697 0.0
C2042 C 0.69918 0.57124 0.10251 0.0
C2043 C 0.72927 0.60002 0.10014 0.0
C2044 C 0.74984 0.61542 0.11554 0.0
C2045 C 0.73942 0.60187 0.13349 0.0
C2046 C 0.70948 0.57264 0.13583 0.0
H2047 H 0.6086 0.53627 0.1514 0.0
H2048 H 0.64808 0.54485 0.15978 0.0
H2049 H 0.64534 0.56679 0.13989 0.0
H2050 H 0.68409 0.55962 0.09029 0.0
H2051 H 0.73691 0.60983 0.08615 0.0
H2052 H 0.94783 0.55417 0.40648 0.0
H2053 H 0.94689 0.50281 0.40082 0.0
H2054 H 0.84214 0.45378 0.39236 0.0
H2055 H 0.84259 0.50496 0.39939 0.0
H2056 H 0.85507 0.41939 0.4148 0.0
H2057 H 0.94197 0.45104 0.35632 0.0
H2058 H 0.9615 0.47925 0.37523 0.0
H2059 H 0.92672 0.47771 0.36353 0.0
C2060 C 0.92449 0.53254 0.40338 0.0
C2061 C 0.89518 0.5338 0.40371 0.0
C2062 C 0.92411 0.50314 0.39977 0.0
C2063 C 0.89454 0.47423 0.39585 0.0
C2064 C 0.86537 0.47569 0.39527 0.0
H2065 H 0.89061 0.28833 0.37156 0.0
H2066 H 0.89215 0.34099 0.36809 0.0
C2067 C 0.86567 0.50511 0.39914 0.0
C2068 C 0.89379 0.44211 0.39439 0.0
H2069 H 0.93361 0.40475 0.3754 0.0
C2070 C 0.87196 0.41616 0.40594 0.0
C2071 C 0.91536 0.43731 0.38265 0.0
C2072 C 0.9374 0.46274 0.3686 0.0
C2073 C 0.87199 0.38633 0.40666 0.0
C2074 C 0.89538 0.38254 0.39609 0.0
C2075 C 0.91622 0.40784 0.38388 0.0
C2076 C 0.89848 0.35256 0.39772 0.0
C2077 C 0.84661 0.35905 0.41869 0.0
C2078 C 0.90312 0.34218 0.41535 0.0
C2079 C 0.90196 0.31206 0.41734 0.0
C2080 C 0.89728 0.29214 0.40168 0.0
C2081 C 0.89475 0.30339 0.38385 0.0
C2082 C 0.89545 0.33343 0.38188 0.0
H2083 H 0.82459 0.36164 0.42066 0.0
H2084 H 0.83869 0.33459 0.41244 0.0
H2085 H 0.8572 0.3601 0.43274 0.0
H2086 H 0.9066 0.35692 0.42771 0.0
H2087 H 0.90394 0.30391 0.43124 0.0
H2088 H 0.15643 0.65314 0.58173 0.0
H2089 H 0.15805 0.60281 0.5876 0.0
H2090 H 0.16937 0.62406 0.64678 0.0
H2091 H 0.16756 0.67478 0.64095 0.0
H2092 H 0.2084 0.59492 0.60596 0.0
H2093 H 0.0879 0.52895 0.64253 0.0
H2094 H 0.09924 0.56463 0.62813 0.0
H2095 H 0.11747 0.56926 0.65083 0.0
C2096 C 0.15938 0.6472 0.59601 0.0
C2097 C 0.16164 0.66783 0.6109 0.0
C2098 C 0.16033 0.61842 0.59934 0.0
C2099 C 0.16328 0.60934 0.61764 0.0
C2100 C 0.16656 0.63032 0.63256 0.0
H2101 H 0.16174 0.42522 0.64612 0.0
H2102 H 0.16016 0.47646 0.64967 0.0
C2103 C 0.16588 0.65944 0.6292 0.0
C2104 C 0.1629 0.57784 0.62073 0.0
H2105 H 0.11483 0.49909 0.63648 0.0
C2106 C 0.18813 0.57411 0.61283 0.0
C2107 C 0.1365 0.55067 0.62977 0.0
C2108 C 0.10855 0.55325 0.63825 0.0
C2109 C 0.18729 0.54385 0.61327 0.0
C2110 C 0.16012 0.51625 0.62146 0.0
C2111 C 0.13552 0.52021 0.6301 0.0
C2112 C 0.15617 0.4829 0.61994 0.0
C2113 C 0.21539 0.54157 0.6047 0.0
C2114 C 0.15295 0.46877 0.60218 0.0
C2115 C 0.1537 0.43963 0.60017 0.0
C2116 C 0.15711 0.42362 0.61587 0.0
C2117 C 0.1585 0.43671 0.6338 0.0
C2118 C 0.15781 0.46608 0.63582 0.0
H2119 H 0.23798 0.56602 0.60381 0.0
H2120 H 0.22095 0.52489 0.61292 0.0
H2121 H 0.20859 0.53163 0.59027 0.0
H2122 H 0.15116 0.48103 0.58976 0.0
H2123 H 0.15277 0.43016 0.5862 0.0
H2124 H 0.29887 0.88371 0.86947 0.0
H2125 H 0.35159 0.88536 0.86556 0.0
H2126 H 0.37001 0.90246 0.92487 0.0
H2127 H 0.31711 0.89978 0.92885 0.0
H2128 H 0.41656 0.92775 0.87259 0.0
H2129 H 0.37285 0.81894 0.91818 0.0
H2130 H 0.34597 0.83313 0.90973 0.0
H2131 H 0.37141 0.85178 0.93003 0.0
C2132 C 0.31454 0.8885 0.88157 0.0
C2133 C 0.30401 0.89167 0.89948 0.0
C2134 C 0.34458 0.88927 0.87935 0.0
C2135 C 0.36438 0.89303 0.89501 0.0
C2136 C 0.35476 0.89847 0.91266 0.0
H2137 H 0.56539 0.94173 0.90501 0.0
H2138 H 0.5142 0.94092 0.89879 0.0
C2139 C 0.32469 0.89727 0.9149 0.0
C2140 C 0.39414 0.8896 0.89331 0.0
H2141 H 0.43063 0.84917 0.91238 0.0
C2142 C 0.41953 0.91034 0.88114 0.0
C2143 C 0.39775 0.86619 0.90399 0.0
C2144 C 0.37038 0.841 0.91605 0.0
C2145 C 0.449 0.90944 0.8801 0.0
C2146 C 0.45363 0.88786 0.89196 0.0
C2147 C 0.42753 0.86606 0.90343 0.0
C2148 C 0.48571 0.88861 0.89367 0.0
C2149 C 0.47466 0.93149 0.86616 0.0
C2150 C 0.48716 0.85943 0.89318 0.0
C2151 C 0.51645 0.85966 0.89735 0.0
C2152 C 0.54503 0.88911 0.90214 0.0
C2153 C 0.54382 0.91844 0.90174 0.0
C2154 C 0.51454 0.91813 0.89781 0.0
H2155 H 0.46318 0.93614 0.8538 0.0
H2156 H 0.49112 0.95554 0.87285 0.0
H2157 H 0.48965 0.92077 0.86123 0.0
H2158 H 0.46531 0.83624 0.89011 0.0
H2159 H 0.51625 0.83655 0.89764 0.0
H2160 H 0.61302 0.72976 0.58666 0.0
H2161 H 0.56384 0.67623 0.59091 0.0
H2162 H 0.57459 0.68817 0.65091 0.0
H2163 H 0.62342 0.74255 0.64661 0.0
H2164 H 0.55178 0.62014 0.60752 0.0
H2165 H 0.48168 0.67041 0.64343 0.0
H2166 H 0.5205 0.69631 0.6321 0.0
H2167 H 0.51928 0.6791 0.65477 0.0
C2168 C 0.6051 0.72079 0.60076 0.0
C2169 C 0.62225 0.74013 0.61629 0.0
C2170 C 0.57696 0.69018 0.60319 0.0
C2171 C 0.56504 0.67827 0.62122 0.0
C2172 C 0.58282 0.69707 0.63684 0.0
H2173 H 0.40521 0.47395 0.63081 0.0
H2174 H 0.45672 0.52544 0.63569 0.0
C2175 C 0.61103 0.72792 0.6344 0.0
C2176 C 0.53355 0.64663 0.62328 0.0
H2177 H 0.45445 0.61308 0.63888 0.0
C2178 C 0.53057 0.61855 0.6145 0.0
C2179 C 0.50565 0.64462 0.63213 0.0
C2180 C 0.50668 0.67423 0.64102 0.0
C2181 C 0.50055 0.58882 0.61402 0.0
C2182 C 0.47271 0.58665 0.62308 0.0
C2183 C 0.47576 0.6146 0.63208 0.0
C2184 C 0.44 0.55597 0.62257 0.0
C2185 C 0.49871 0.56048 0.60308 0.0
C2186 C 0.41258 0.55608 0.61474 0.0
C2187 C 0.38279 0.52664 0.61231 0.0
C2188 C 0.37998 0.49656 0.61758 0.0
C2189 C 0.40682 0.49675 0.62641 0.0
C2190 C 0.43636 0.52615 0.62907 0.0
H2191 H 0.51917 0.56881 0.59288 0.0
H2192 H 0.50046 0.54315 0.61291 0.0
H2193 H 0.47516 0.54703 0.59531 0.0
H2194 H 0.41463 0.57877 0.60975 0.0
H2195 H 0.36257 0.5272 0.6054 0.0
H2196 H 0.20962 0.69148 0.89713 0.0
H2197 H 0.21004 0.64091 0.88957 0.0
H2198 H 0.10595 0.58461 0.90006 0.0
H2199 H 0.10496 0.63486 0.9063 0.0
H2200 H 0.19898 0.59396 0.91186 0.0
H2201 H 0.1084 0.5374 0.85504 0.0
H2202 H 0.12383 0.57937 0.86223 0.0
H2203 H 0.08996 0.54618 0.87446 0.0
C2204 C 0.18663 0.66845 0.89723 0.0
C2205 C 0.15733 0.66742 0.90254 0.0
C2206 C 0.18693 0.63942 0.89304 0.0
C2207 C 0.15796 0.60867 0.89403 0.0
C2208 C 0.12855 0.60781 0.89869 0.0
H2209 H 0.14964 0.43043 0.92961 0.0
H2210 H 0.14731 0.48082 0.92558 0.0
C2211 C 0.12816 0.63673 0.90263 0.0
C2212 C 0.15891 0.57744 0.89226 0.0
H2213 H 0.11814 0.49987 0.87373 0.0
C2214 C 0.18158 0.57366 0.90326 0.0
C2215 C 0.13668 0.55081 0.88083 0.0
C2216 C 0.11364 0.55381 0.86733 0.0
C2217 C 0.1817 0.54387 0.90383 0.0
C2218 C 0.15768 0.51643 0.89366 0.0
C2219 C 0.13604 0.52056 0.8819 0.0
C2220 C 0.15441 0.48331 0.89553 0.0
C2221 C 0.20779 0.54224 0.91535 0.0
C2222 C 0.15681 0.46651 0.87983 0.0
C2223 C 0.15737 0.43712 0.8821 0.0
C2224 C 0.15532 0.42405 0.9001 0.0
C2225 C 0.15125 0.44001 0.9156 0.0
C2226 C 0.15025 0.46898 0.91332 0.0
H2227 H 0.22996 0.56687 0.91692 0.0
H2228 H 0.19809 0.53314 0.9296 0.0
H2229 H 0.21523 0.52544 0.90895 0.0
H2230 H 0.1597 0.47684 0.86594 0.0
H2231 H 0.16097 0.42553 0.86994 0.0
H2232 H 0.31429 0.88979 0.58789 0.0
H2233 H 0.3674 0.89325 0.59249 0.0
H2234 H 0.35443 0.8913 0.65241 0.0
H2235 H 0.30048 0.88659 0.64776 0.0
H2236 H 0.42337 0.93654 0.60956 0.0
H2237 H 0.37109 0.8155 0.64492 0.0
H2238 H 0.34577 0.82906 0.63346 0.0
H2239 H 0.36265 0.84454 0.65627 0.0
C2240 C 0.32296 0.89048 0.60205 0.0
C2241 C 0.30348 0.88837 0.61745 0.0
C2242 C 0.35331 0.89244 0.60468 0.0
C2243 C 0.36479 0.89197 0.62279 0.0
C2244 C 0.34585 0.89098 0.63829 0.0
H2245 H 0.56818 0.9338 0.63305 0.0
H2246 H 0.51699 0.93428 0.63824 0.0
C2247 C 0.31525 0.88883 0.63564 0.0
C2248 C 0.39615 0.89164 0.62506 0.0
H2249 H 0.42852 0.84507 0.64084 0.0
C2250 C 0.42454 0.91666 0.61653 0.0
C2251 C 0.39761 0.86542 0.63391 0.0
C2252 C 0.36764 0.83692 0.64253 0.0
C2253 C 0.45405 0.91594 0.61625 0.0
C2254 C 0.45568 0.88994 0.62529 0.0
C2255 C 0.42741 0.86513 0.63407 0.0
C2256 C 0.48604 0.88736 0.62489 0.0
C2257 C 0.48275 0.94236 0.60551 0.0
C2258 C 0.48554 0.85978 0.61688 0.0
C2259 C 0.51479 0.85913 0.61431 0.0
C2260 C 0.54501 0.88614 0.61963 0.0
C2261 C 0.54521 0.91276 0.6287 0.0
C2262 C 0.516 0.91319 0.6315 0.0
H2263 H 0.47485 0.95491 0.59532 0.0
H2264 H 0.50012 0.96113 0.61548 0.0
H2265 H 0.49602 0.93207 0.59777 0.0
H2266 H 0.46273 0.83941 0.61178 0.0
H2267 H 0.51398 0.83842 0.60717 0.0
H2268 H 0.61209 0.72885 0.92925 0.0
H2269 H 0.56314 0.67521 0.92478 0.0
H2270 H 0.57188 0.68916 0.86489 0.0
H2271 H 0.62059 0.74358 0.86941 0.0
H2272 H 0.50956 0.66874 0.87694 0.0
H2273 H 0.5515 0.5884 0.90792 0.0
H2274 H 0.55791 0.62084 0.92362 0.0
H2275 H 0.57954 0.63049 0.90166 0.0
C2276 C 0.60397 0.72016 0.91511 0.0
C2277 C 0.6206 0.74007 0.89968 0.0
C2278 C 0.57603 0.68941 0.91255 0.0
C2279 C 0.56398 0.67774 0.89448 0.0
C2280 C 0.5808 0.69746 0.87896 0.0
H2281 H 0.40297 0.4753 0.88529 0.0
H2282 H 0.45425 0.52667 0.87993 0.0
C2283 C 0.60885 0.7284 0.88154 0.0
C2284 C 0.53261 0.64606 0.89211 0.0
H2285 H 0.4932 0.56574 0.90574 0.0
C2286 C 0.5061 0.64609 0.883 0.0
C2287 C 0.52802 0.61632 0.89979 0.0
C2288 C 0.55587 0.61387 0.90862 0.0
C2289 C 0.47493 0.61759 0.88204 0.0
C2290 C 0.46986 0.58836 0.89076 0.0
C2291 C 0.49675 0.58811 0.89922 0.0
C2292 C 0.43703 0.5578 0.89162 0.0
C2293 C 0.44786 0.61915 0.87158 0.0
C2294 C 0.40972 0.55796 0.89956 0.0
C2295 C 0.38009 0.52851 0.90236 0.0
C2296 C 0.37742 0.49829 0.89761 0.0
C2297 C 0.40434 0.49825 0.8891 0.0
C2298 C 0.43371 0.52762 0.88609 0.0
H2299 H 0.45793 0.63878 0.86078 0.0
H2300 H 0.43106 0.59542 0.86464 0.0
H2301 H 0.43342 0.6249 0.88159 0.0
H2302 H 0.41171 0.58069 0.90441 0.0
H2303 H 0.35992 0.52921 0.90921 0.0
loop_
_geom_bond_atom_site_label_1
_geom_bond_atom_site_label_2
_geom_bond_distance
_geom_bond_site_symmetry_2
_ccdc_geom_bond_type
Eu0 N31 2.657 . S
Eu0 N38 2.609 . S
Eu0 O44 2.558 . S
Eu0 O45 2.612 . S
Eu0 O47 2.339 . S
Eu0 O48 2.563 . S
Eu0 O49 2.419 . S
Eu0 O51 2.380 . S
Eu0 O52 2.432 . S
Eu0 C64 2.848 . S
C1 C4 1.429 . S
C1 C5 1.411 . S
C1 N8 1.377 . S
C2 C4 1.420 . S
C2 C6 1.423 . S
C2 C14 1.392 . S
C3 C5 1.420 . S
C3 C6 1.351 . S
C3 H26 0.931 . S
C4 C1 1.429 . S
C4 C2 1.420 . S
C4 N12 1.362 . S
C5 C1 1.411 . S
C5 C3 1.420 . S
C5 C10 1.395 . S
C6 C2 1.423 . S
C6 C3 1.351 . S
C6 H18 0.930 . S
C7 C9 1.400 . S
C7 C10 1.386 . S
C7 H19 0.930 . S
N8 C1 1.377 . S
N8 C9 1.321 . S
N8 Eu11 2.609 . S
C9 C7 1.400 . S
C9 N8 1.321 . S
C9 H16 0.930 . S
C10 C5 1.395 . S
C10 C7 1.386 . S
C10 H29 0.930 . S
Eu11 N8 2.609 . S
Eu11 N12 2.657 . S
Eu11 O45 2.380 . S
Eu11 O46 2.432 . S
Eu11 O50 2.558 . S
Eu11 O51 2.612 . S
Eu11 O53 2.339 . S
Eu11 O54 2.563 . S
Eu11 O55 2.419 . S
Eu11 C75 2.848 . S
N12 C4 1.362 . S
N12 Eu11 2.657 . S
N12 C13 1.334 . S
C13 N12 1.334 . S
C13 C15 1.413 . S
C13 H20 0.929 . S
C14 C2 1.392 . S
C14 C15 1.367 . S
C14 H22 0.930 . S
C15 C13 1.413 . S
C15 C14 1.367 . S
C15 H17 0.930 . S
H16 C9 0.930 . S
H17 C15 0.930 . S
H18 C6 0.930 . S
H19 C7 0.930 . S
H20 C13 0.929 . S
H21 C35 0.930 . S
H22 C14 0.930 . S
H23 C41 0.930 . S
H24 C32 0.929 . S
H25 C39 0.930 . S
H26 C3 0.931 . S
H27 C33 0.930 . S
H28 C66 0.930 . S
H29 C10 0.930 . S
H30 C65 0.931 . S
N31 Eu0 2.657 . S
N31 C32 1.334 . S
N31 C36 1.362 . S
C32 H24 0.929 . S
C32 N31 1.334 . S
C32 C35 1.413 . S
C33 H27 0.930 . S
C33 C34 1.392 . S
C33 C35 1.367 . S
C34 C33 1.392 . S
C34 C36 1.420 . S
C34 C66 1.423 . S
C35 H21 0.930 . S
C35 C32 1.413 . S
C35 C33 1.367 . S
C36 N31 1.362 . S
C36 C34 1.420 . S
C36 C40 1.429 . S
H37 C42 0.930 . S
N38 Eu0 2.609 . S
N38 C40 1.377 . S
N38 C41 1.321 . S
C39 H25 0.930 . S
C39 C41 1.400 . S
C39 C42 1.386 . S
C40 C36 1.429 . S
C40 N38 1.377 . S
C40 C43 1.411 . S
C41 H23 0.930 . S
C41 N38 1.321 . S
C41 C39 1.400 . S
C42 H37 0.930 . S
C42 C39 1.386 . S
C42 C43 1.395 . S
C43 C40 1.411 . S
C43 C42 1.395 . S
C43 C65 1.420 . S
O44 Eu0 2.558 . S
O44 C64 1.257 . S
O45 Eu0 2.612 . S
O45 Eu11 2.380 . S
O45 C56 1.276 . S
O46 Eu11 2.432 . S
O46 C63 1.264 . S
O47 Eu0 2.339 . S
O47 C63 1.254 . S
O48 Eu0 2.563 . S
O48 C56 1.235 . S
O49 Eu0 2.419 . S
O49 C64 1.249 . S
O50 Eu11 2.558 . S
O50 C75 1.257 . S
O51 Eu0 2.380 . S
O51 Eu11 2.612 . S
O51 C67 1.276 . S
O52 Eu0 2.432 . S
O52 C74 1.264 . S
O53 Eu11 2.339 . S
O53 C74 1.254 . S
O54 Eu11 2.563 . S
O54 C67 1.235 . S
O55 Eu11 2.419 . S
O55 C75 1.249 . S
C56 O45 1.276 . S
C56 O48 1.235 . S
C57 C59 1.393 . S
C57 C61 1.395 . S
C57 C64 1.492 . S
C58 C59 1.392 . S
C58 C60 1.386 . S
C59 C57 1.393 . S
C59 C58 1.392 . S
C59 H76 0.930 . S
C60 C58 1.386 . S
C60 C62 1.395 . S
C60 H77 0.930 . S
C61 C57 1.395 . S
C61 C62 1.379 . S
C61 H78 0.930 . S
C62 C60 1.395 . S
C62 C61 1.379 . S
C62 H79 0.930 . S
C63 O46 1.264 . S
C63 O47 1.254 . S
C64 Eu0 2.848 . S
C64 O44 1.257 . S
C64 O49 1.249 . S
C64 C57 1.492 . S
C65 H30 0.931 . S
C65 C43 1.420 . S
C65 C66 1.351 . S
C66 H28 0.930 . S
C66 C34 1.423 . S
C66 C65 1.351 . S
C67 O51 1.276 . S
C67 O54 1.235 . S
C68 C69 1.393 . S
C68 C72 1.395 . S
C68 C75 1.492 . S
C69 C68 1.393 . S
C69 C70 1.392 1_545 S
C69 H80 0.930 . S
C70 C69 1.392 1_565 S
C70 C71 1.386 . S
C71 C70 1.386 . S
C71 C73 1.395 . S
C71 H81 0.930 . S
C72 C68 1.395 . S
C72 C73 1.379 1_545 S
C72 H82 0.930 . S
C73 C71 1.395 . S
C73 C72 1.379 1_565 S
C73 H83 0.930 . S
C74 O52 1.264 . S
C74 O53 1.254 . S
C75 Eu11 2.848 . S
C75 O50 1.257 . S
C75 O55 1.249 . S
C75 C68 1.492 . S
H76 C59 0.930 . S
H77 C60 0.930 . S
H78 C61 0.930 . S
H79 C62 0.930 . S
H80 C69 0.930 . S
H81 C71 0.930 . S
H82 C72 0.930 . S
H83 C73 0.930 . S
Eu84 N115 2.657 . S
Eu84 N122 2.609 . S
Eu84 O128 2.558 . S
Eu84 O129 2.612 . S
Eu84 O131 2.339 . S
Eu84 O132 2.563 . S
Eu84 O133 2.419 . S
Eu84 O135 2.380 . S
Eu84 O136 2.432 . S
Eu84 C148 2.848 . S
C85 C88 1.429 . S
C85 C89 1.411 . S
C85 N92 1.377 . S
C86 C88 1.420 . S
C86 C90 1.423 . S
C86 C98 1.392 . S
C87 C89 1.420 . S
C87 C90 1.351 . S
C87 H110 0.931 . S
C88 C85 1.429 . S
C88 C86 1.420 . S
C88 N96 1.362 . S
C89 C85 1.411 . S
C89 C87 1.420 . S
C89 C94 1.395 . S
C90 C86 1.423 . S
C90 C87 1.351 . S
C90 H102 0.930 1_655 S
C91 C93 1.400 . S
C91 C94 1.386 . S
C91 H103 0.930 . S
N92 C85 1.377 . S
N92 C93 1.321 . S
N92 Eu95 2.609 . S
C93 C91 1.400 . S
C93 N92 1.321 . S
C93 H100 0.930 . S
C94 C89 1.395 . S
C94 C91 1.386 . S
C94 H113 0.930 . S
Eu95 N92 2.609 . S
Eu95 N96 2.657 . S
Eu95 O129 2.380 . S
Eu95 O130 2.432 . S
Eu95 O134 2.558 . S
Eu95 O135 2.612 . S
Eu95 O137 2.339 . S
Eu95 O138 2.563 . S
Eu95 O139 2.419 . S
Eu95 C159 2.848 . S
N96 C88 1.362 . S
N96 Eu95 2.657 . S
N96 C97 1.334 . S
C97 N96 1.334 . S
C97 C99 1.413 . S
C97 H104 0.929 . S
C98 C86 1.392 . S
C98 C99 1.367 . S
C98 H106 0.930 . S
C99 C97 1.413 . S
C99 C98 1.367 . S
C99 H101 0.930 . S
H100 C93 0.930 . S
H101 C99 0.930 . S
H102 C90 0.930 1_455 S
H103 C91 0.930 . S
H104 C97 0.929 . S
H105 C119 0.930 . S
H106 C98 0.930 . S
H107 C125 0.930 . S
H108 C116 0.929 . S
H109 C123 0.930 . S
H110 C87 0.931 . S
H111 C117 0.930 . S
H112 C150 0.930 . S
H113 C94 0.930 . S
H114 C149 0.931 . S
N115 Eu84 2.657 . S
N115 C116 1.334 . S
N115 C120 1.362 . S
C116 H108 0.929 . S
C116 N115 1.334 . S
C116 C119 1.413 . S
C117 H111 0.930 . S
C117 C118 1.392 . S
C117 C119 1.367 . S
C118 C117 1.392 . S
C118 C120 1.420 . S
C118 C150 1.423 . S
C119 H105 0.930 . S
C119 C116 1.413 . S
C119 C117 1.367 . S
C120 N115 1.362 . S
C120 C118 1.420 . S
C120 C124 1.429 . S
H121 C126 0.930 . S
N122 Eu84 2.609 . S
N122 C124 1.377 . S
N122 C125 1.321 . S
C123 H109 0.930 . S
C123 C125 1.400 . S
C123 C126 1.386 . S
C124 C120 1.429 . S
C124 N122 1.377 . S
C124 C127 1.411 . S
C125 H107 0.930 . S
C125 N122 1.321 . S
C125 C123 1.400 . S
C126 H121 0.930 . S
C126 C123 1.386 . S
C126 C127 1.395 . S
C127 C124 1.411 . S
C127 C126 1.395 . S
C127 C149 1.420 . S
O128 Eu84 2.558 . S
O128 C148 1.257 . S
O129 Eu84 2.612 . S
O129 Eu95 2.380 . S
O129 C140 1.276 . S
O130 Eu95 2.432 . S
O130 C147 1.264 . S
O131 Eu84 2.339 . S
O131 C147 1.254 . S
O132 Eu84 2.563 . S
O132 C140 1.235 . S
O133 Eu84 2.419 . S
O133 C148 1.249 . S
O134 Eu95 2.558 . S
O134 C159 1.257 . S
O135 Eu84 2.380 . S
O135 Eu95 2.612 . S
O135 C151 1.276 . S
O136 Eu84 2.432 . S
O136 C158 1.264 . S
O137 Eu95 2.339 . S
O137 C158 1.254 . S
O138 Eu95 2.563 . S
O138 C151 1.235 . S
O139 Eu95 2.419 . S
O139 C159 1.249 . S
C140 O129 1.276 . S
C140 O132 1.235 . S
C141 C143 1.393 . S
C141 C145 1.395 . S
C141 C148 1.492 . S
C142 C143 1.392 . S
C142 C144 1.386 . S
C143 C141 1.393 . S
C143 C142 1.392 . S
C143 H160 0.930 . S
C144 C142 1.386 . S
C144 C146 1.395 . S
C144 H161 0.930 . S
C145 C141 1.395 . S
C145 C146 1.379 . S
C145 H162 0.930 . S
C146 C144 1.395 . S
C146 C145 1.379 . S
C146 H163 0.930 . S
C147 O130 1.264 . S
C147 O131 1.254 . S
C148 Eu84 2.848 . S
C148 O128 1.257 . S
C148 O133 1.249 . S
C148 C141 1.492 . S
C149 H114 0.931 . S
C149 C127 1.420 . S
C149 C150 1.351 . S
C150 H112 0.930 . S
C150 C118 1.423 . S
C150 C149 1.351 . S
C151 O135 1.276 . S
C151 O138 1.235 . S
C152 C153 1.393 . S
C152 C156 1.395 . S
C152 C159 1.492 . S
C153 C152 1.393 . S
C153 C154 1.392 . S
C153 H164 0.930 . S
C154 C153 1.392 . S
C154 C155 1.386 . S
C155 C154 1.386 . S
C155 C157 1.395 . S
C155 H165 0.930 . S
C156 C152 1.395 . S
C156 C157 1.379 . S
C156 H166 0.930 . S
C157 C155 1.395 . S
C157 C156 1.379 . S
C157 H167 0.930 . S
C158 O136 1.264 . S
C158 O137 1.254 . S
C159 Eu95 2.848 . S
C159 O134 1.257 . S
C159 O139 1.249 . S
C159 C152 1.492 . S
H160 C143 0.930 . S
H161 C144 0.930 . S
H162 C145 0.930 . S
H163 C146 0.930 . S
H164 C153 0.930 . S
H165 C155 0.930 . S
H166 C156 0.930 . S
H167 C157 0.930 . S
Eu168 N199 2.657 . S
Eu168 N206 2.609 . S
Eu168 O212 2.558 . S
Eu168 O213 2.612 . S
Eu168 O215 2.339 . S
Eu168 O216 2.563 . S
Eu168 O217 2.419 . S
Eu168 O219 2.380 . S
Eu168 O220 2.432 . S
Eu168 C232 2.848 . S
C169 C172 1.429 . S
C169 C173 1.411 . S
C169 N176 1.377 . S
C170 C172 1.420 . S
C170 C174 1.423 . S
C170 C182 1.392 . S
C171 C173 1.420 . S
C171 C174 1.351 . S
C171 H194 0.931 . S
C172 C169 1.429 . S
C172 C170 1.420 . S
C172 N180 1.362 . S
C173 C169 1.411 . S
C173 C171 1.420 . S
C173 C178 1.395 . S
C174 C170 1.423 . S
C174 C171 1.351 . S
C174 H186 0.930 . S
C175 C177 1.400 . S
C175 C178 1.386 . S
C175 H187 0.930 . S
N176 C169 1.377 . S
N176 C177 1.321 . S
N176 Eu179 2.609 . S
C177 C175 1.400 . S
C177 N176 1.321 . S
C177 H184 0.930 . S
C178 C173 1.395 . S
C178 C175 1.386 . S
C178 H197 0.930 . S
Eu179 N176 2.609 . S
Eu179 N180 2.657 . S
Eu179 O213 2.380 . S
Eu179 O214 2.432 . S
Eu179 O218 2.558 . S
Eu179 O219 2.612 . S
Eu179 O221 2.339 . S
Eu179 O222 2.563 . S
Eu179 O223 2.419 . S
Eu179 C243 2.848 . S
N180 C172 1.362 . S
N180 Eu179 2.657 . S
N180 C181 1.334 . S
C181 N180 1.334 . S
C181 C183 1.413 . S
C181 H188 0.929 . S
C182 C170 1.392 . S
C182 C183 1.367 . S
C182 H190 0.930 . S
C183 C181 1.413 . S
C183 C182 1.367 . S
C183 H185 0.930 . S
H184 C177 0.930 . S
H185 C183 0.930 . S
H186 C174 0.930 . S
H187 C175 0.930 . S
H188 C181 0.929 . S
H189 C203 0.930 . S
H190 C182 0.930 . S
H191 C209 0.930 . S
H192 C200 0.929 . S
H193 C207 0.930 . S
H194 C171 0.931 . S
H195 C201 0.930 . S
H196 C234 0.930 1_565 S
H197 C178 0.930 . S
H198 C233 0.931 . S
N199 Eu168 2.657 . S
N199 C200 1.334 . S
N199 C204 1.362 . S
C200 H192 0.929 . S
C200 N199 1.334 . S
C200 C203 1.413 . S
C201 H195 0.930 . S
C201 C202 1.392 . S
C201 C203 1.367 . S
C202 C201 1.392 . S
C202 C204 1.420 . S
C202 C234 1.423 . S
C203 H189 0.930 . S
C203 C200 1.413 . S
C203 C201 1.367 . S
C204 N199 1.362 . S
C204 C202 1.420 . S
C204 C208 1.429 . S
H205 C210 0.930 . S
N206 Eu168 2.609 . S
N206 C208 1.377 . S
N206 C209 1.321 . S
C207 H193 0.930 . S
C207 C209 1.400 . S
C207 C210 1.386 . S
C208 C204 1.429 . S
C208 N206 1.377 . S
C208 C211 1.411 . S
C209 H191 0.930 . S
C209 N206 1.321 . S
C209 C207 1.400 . S
C210 H205 0.930 . S
C210 C207 1.386 . S
C210 C211 1.395 . S
C211 C208 1.411 . S
C211 C210 1.395 . S
C211 C233 1.420 . S
O212 Eu168 2.558 . S
O212 C232 1.257 . S
O213 Eu168 2.612 . S
O213 Eu179 2.380 . S
O213 C224 1.276 . S
O214 Eu179 2.432 . S
O214 C231 1.264 . S
O215 Eu168 2.339 . S
O215 C231 1.254 . S
O216 Eu168 2.563 . S
O216 C224 1.235 . S
O217 Eu168 2.419 . S
O217 C232 1.249 . S
O218 Eu179 2.558 . S
O218 C243 1.257 . S
O219 Eu168 2.380 . S
O219 Eu179 2.612 . S
O219 C235 1.276 . S
O220 Eu168 2.432 . S
O220 C242 1.264 . S
O221 Eu179 2.339 . S
O221 C242 1.254 . S
O222 Eu179 2.563 . S
O222 C235 1.235 . S
O223 Eu179 2.419 . S
O223 C243 1.249 . S
C224 O213 1.276 . S
C224 O216 1.235 . S
C225 C227 1.393 . S
C225 C229 1.395 . S
C225 C232 1.492 . S
C226 C227 1.392 . S
C226 C228 1.386 . S
C227 C225 1.393 . S
C227 C226 1.392 . S
C227 H244 0.930 . S
C228 C226 1.386 . S
C228 C230 1.395 . S
C228 H245 0.930 . S
C229 C225 1.395 . S
C229 C230 1.379 . S
C229 H246 0.930 . S
C230 C228 1.395 . S
C230 C229 1.379 . S
C230 H247 0.930 . S
C231 O214 1.264 . S
C231 O215 1.254 . S
C232 Eu168 2.848 . S
C232 O212 1.257 . S
C232 O217 1.249 . S
C232 C225 1.492 . S
C233 H198 0.931 . S
C233 C211 1.420 . S
C233 C234 1.351 . S
C234 H196 0.930 1_545 S
C234 C202 1.423 . S
C234 C233 1.351 . S
C235 O219 1.276 . S
C235 O222 1.235 . S
C236 C237 1.393 . S
C236 C240 1.395 . S
C236 C243 1.492 . S
C237 C236 1.393 . S
C237 C238 1.392 1_655 S
C237 H248 0.930 . S
C238 C237 1.392 1_455 S
C238 C239 1.386 . S
C239 C238 1.386 . S
C239 C241 1.395 . S
C239 H249 0.930 . S
C240 C236 1.395 . S
C240 C241 1.379 1_655 S
C240 H250 0.930 . S
C241 C239 1.395 . S
C241 C240 1.379 1_455 S
C241 H251 0.930 . S
C242 O220 1.264 . S
C242 O221 1.254 . S
C243 Eu179 2.848 . S
C243 O218 1.257 . S
C243 O223 1.249 . S
C243 C236 1.492 . S
H244 C227 0.930 . S
H245 C228 0.930 . S
H246 C229 0.930 . S
H247 C230 0.930 . S
H248 C237 0.930 . S
H249 C239 0.930 . S
H250 C240 0.930 . S
H251 C241 0.930 . S
Eu252 N283 2.657 . S
Eu252 N290 2.609 . S
Eu252 O296 2.558 . S
Eu252 O297 2.612 . S
Eu252 O299 2.339 . S
Eu252 O300 2.563 . S
Eu252 O301 2.419 . S
Eu252 O303 2.380 . S
Eu252 O304 2.432 . S
Eu252 C316 2.848 . S
C253 C256 1.429 . S
C253 C257 1.411 . S
C253 N260 1.377 . S
C254 C256 1.420 . S
C254 C258 1.423 . S
C254 C266 1.392 . S
C255 C257 1.420 . S
C255 C258 1.351 . S
C255 H278 0.931 . S
C256 C253 1.429 . S
C256 C254 1.420 . S
C256 N264 1.362 . S
C257 C253 1.411 . S
C257 C255 1.420 . S
C257 C262 1.395 . S
C258 C254 1.423 . S
C258 C255 1.351 . S
C258 H270 0.930 . S
C259 C261 1.400 . S
C259 C262 1.386 . S
C259 H271 0.930 . S
N260 C253 1.377 . S
N260 C261 1.321 . S
N260 Eu263 2.609 . S
C261 C259 1.400 . S
C261 N260 1.321 . S
C261 H268 0.930 . S
C262 C257 1.395 . S
C262 C259 1.386 . S
C262 H281 0.930 . S
Eu263 N260 2.609 . S
Eu263 N264 2.657 . S
Eu263 O297 2.380 . S
Eu263 O298 2.432 . S
Eu263 O302 2.558 . S
Eu263 O303 2.612 . S
Eu263 O305 2.339 . S
Eu263 O306 2.563 . S
Eu263 O307 2.419 . S
Eu263 C327 2.848 . S
N264 C256 1.362 . S
N264 Eu263 2.657 . S
N264 C265 1.334 . S
C265 N264 1.334 . S
C265 C267 1.413 . S
C265 H272 0.929 . S
C266 C254 1.392 . S
C266 C267 1.367 . S
C266 H274 0.930 . S
C267 C265 1.413 . S
C267 C266 1.367 . S
C267 H269 0.930 . S
H268 C261 0.930 . S
H269 C267 0.930 . S
H270 C258 0.930 . S
H271 C259 0.930 . S
H272 C265 0.929 . S
H273 C287 0.930 . S
H274 C266 0.930 . S
H275 C293 0.930 . S
H276 C284 0.929 . S
H277 C291 0.930 . S
H278 C255 0.931 . S
H279 C285 0.930 . S
H280 C318 0.930 . S
H281 C262 0.930 . S
H282 C317 0.931 . S
N283 Eu252 2.657 . S
N283 C284 1.334 . S
N283 C288 1.362 . S
C284 H276 0.929 . S
C284 N283 1.334 . S
C284 C287 1.413 . S
C285 H279 0.930 . S
C285 C286 1.392 . S
C285 C287 1.367 . S
C286 C285 1.392 . S
C286 C288 1.420 . S
C286 C318 1.423 . S
C287 H273 0.930 . S
C287 C284 1.413 . S
C287 C285 1.367 . S
C288 N283 1.362 . S
C288 C286 1.420 . S
C288 C292 1.429 . S
H289 C294 0.930 . S
N290 Eu252 2.609 . S
N290 C292 1.377 . S
N290 C293 1.321 . S
C291 H277 0.930 . S
C291 C293 1.400 . S
C291 C294 1.386 . S
C292 C288 1.429 . S
C292 N290 1.377 . S
C292 C295 1.411 . S
C293 H275 0.930 . S
C293 N290 1.321 . S
C293 C291 1.400 . S
C294 H289 0.930 . S
C294 C291 1.386 . S
C294 C295 1.395 . S
C295 C292 1.411 . S
C295 C294 1.395 . S
C295 C317 1.420 . S
O296 Eu252 2.558 . S
O296 C316 1.257 . S
O297 Eu252 2.612 . S
O297 Eu263 2.380 . S
O297 C308 1.276 . S
O298 Eu263 2.432 . S
O298 C315 1.264 . S
O299 Eu252 2.339 . S
O299 C315 1.254 . S
O300 Eu252 2.563 . S
O300 C308 1.235 . S
O301 Eu252 2.419 . S
O301 C316 1.249 . S
O302 Eu263 2.558 . S
O302 C327 1.257 . S
O303 Eu252 2.380 . S
O303 Eu263 2.612 . S
O303 C319 1.276 . S
O304 Eu252 2.432 . S
O304 C326 1.264 . S
O305 Eu263 2.339 . S
O305 C326 1.254 . S
O306 Eu263 2.563 . S
O306 C319 1.235 . S
O307 Eu263 2.419 . S
O307 C327 1.249 . S
C308 O297 1.276 . S
C308 O300 1.235 . S
C309 C311 1.393 . S
C309 C313 1.395 . S
C309 C316 1.492 . S
C310 C311 1.392 1_565 S
C310 C312 1.386 . S
C311 C309 1.393 . S
C311 C310 1.392 1_545 S
C311 H328 0.930 . S
C312 C310 1.386 . S
C312 C314 1.395 . S
C312 H329 0.930 . S
C313 C309 1.395 . S
C313 C314 1.379 1_545 S
C313 H330 0.930 . S
C314 C312 1.395 . S
C314 C313 1.379 1_565 S
C314 H331 0.930 . S
C315 O298 1.264 . S
C315 O299 1.254 . S
C316 Eu252 2.848 . S
C316 O296 1.257 . S
C316 O301 1.249 . S
C316 C309 1.492 . S
C317 H282 0.931 . S
C317 C295 1.420 . S
C317 C318 1.351 . S
C318 H280 0.930 . S
C318 C286 1.423 . S
C318 C317 1.351 . S
C319 O303 1.276 . S
C319 O306 1.235 . S
C320 C321 1.393 . S
C320 C324 1.395 . S
C320 C327 1.492 . S
C321 C320 1.393 . S
C321 C322 1.392 . S
C321 H332 0.930 . S
C322 C321 1.392 . S
C322 C323 1.386 . S
C323 C322 1.386 . S
C323 C325 1.395 . S
C323 H333 0.930 . S
C324 C320 1.395 . S
C324 C325 1.379 . S
C324 H334 0.930 . S
C325 C323 1.395 . S
C325 C324 1.379 . S
C325 H335 0.930 . S
C326 O304 1.264 . S
C326 O305 1.254 . S
C327 Eu263 2.848 . S
C327 O302 1.257 . S
C327 O307 1.249 . S
C327 C320 1.492 . S
H328 C311 0.930 . S
H329 C312 0.930 . S
H330 C313 0.930 . S
H331 C314 0.930 . S
H332 C321 0.930 . S
H333 C323 0.930 . S
H334 C324 0.930 . S
H335 C325 0.930 . S
Eu336 N367 2.657 . S
Eu336 N374 2.609 . S
Eu336 O380 2.558 . S
Eu336 O381 2.612 . S
Eu336 O383 2.339 . S
Eu336 O384 2.563 . S
Eu336 O385 2.419 . S
Eu336 O387 2.380 . S
Eu336 O388 2.432 . S
Eu336 C400 2.848 . S
C337 C340 1.429 . S
C337 C341 1.411 . S
C337 N344 1.377 . S
C338 C340 1.420 . S
C338 C342 1.423 . S
C338 C350 1.392 . S
C339 C341 1.420 . S
C339 C342 1.351 . S
C339 H362 0.931 . S
C340 C337 1.429 . S
C340 C338 1.420 . S
C340 N348 1.362 . S
C341 C337 1.411 . S
C341 C339 1.420 . S
C341 C346 1.395 . S
C342 C338 1.423 . S
C342 C339 1.351 . S
C342 H354 0.930 . S
C343 C345 1.400 . S
C343 C346 1.386 . S
C343 H355 0.930 . S
N344 C337 1.377 . S
N344 C345 1.321 . S
N344 Eu347 2.609 . S
C345 C343 1.400 . S
C345 N344 1.321 . S
C345 H352 0.930 . S
C346 C341 1.395 . S
C346 C343 1.386 . S
C346 H365 0.930 . S
Eu347 N344 2.609 . S
Eu347 N348 2.657 . S
Eu347 O381 2.380 . S
Eu347 O382 2.432 . S
Eu347 O386 2.558 . S
Eu347 O387 2.612 . S
Eu347 O389 2.339 . S
Eu347 O390 2.563 . S
Eu347 O391 2.419 . S
Eu347 C411 2.848 . S
N348 C340 1.362 . S
N348 Eu347 2.657 . S
N348 C349 1.334 . S
C349 N348 1.334 . S
C349 C351 1.413 . S
C349 H356 0.929 . S
C350 C338 1.392 . S
C350 C351 1.367 . S
C350 H358 0.930 . S
C351 C349 1.413 . S
C351 C350 1.367 . S
C351 H353 0.930 . S
H352 C345 0.930 . S
H353 C351 0.930 . S
H354 C342 0.930 . S
H355 C343 0.930 . S
H356 C349 0.929 . S
H357 C371 0.930 . S
H358 C350 0.930 . S
H359 C377 0.930 . S
H360 C368 0.929 . S
H361 C375 0.930 . S
H362 C339 0.931 . S
H363 C369 0.930 . S
H364 C402 0.930 1_455 S
H365 C346 0.930 . S
H366 C401 0.931 . S
N367 Eu336 2.657 . S
N367 C368 1.334 . S
N367 C372 1.362 . S
C368 H360 0.929 . S
C368 N367 1.334 . S
C368 C371 1.413 . S
C369 H363 0.930 . S
C369 C370 1.392 . S
C369 C371 1.367 . S
C370 C369 1.392 . S
C370 C372 1.420 . S
C370 C402 1.423 . S
C371 H357 0.930 . S
C371 C368 1.413 . S
C371 C369 1.367 . S
C372 N367 1.362 . S
C372 C370 1.420 . S
C372 C376 1.429 . S
H373 C378 0.930 . S
N374 Eu336 2.609 . S
N374 C376 1.377 . S
N374 C377 1.321 . S
C375 H361 0.930 . S
C375 C377 1.400 . S
C375 C378 1.386 . S
C376 C372 1.429 . S
C376 N374 1.377 . S
C376 C379 1.411 . S
C377 H359 0.930 . S
C377 N374 1.321 . S
C377 C375 1.400 . S
C378 H373 0.930 . S
C378 C375 1.386 . S
C378 C379 1.395 . S
C379 C376 1.411 . S
C379 C378 1.395 . S
C379 C401 1.420 . S
O380 Eu336 2.558 . S
O380 C400 1.257 . S
O381 Eu336 2.612 . S
O381 Eu347 2.380 . S
O381 C392 1.276 . S
O382 Eu347 2.432 . S
O382 C399 1.264 . S
O383 Eu336 2.339 . S
O383 C399 1.254 . S
O384 Eu336 2.563 . S
O384 C392 1.235 . S
O385 Eu336 2.419 . S
O385 C400 1.249 . S
O386 Eu347 2.558 . S
O386 C411 1.257 . S
O387 Eu336 2.380 . S
O387 Eu347 2.612 . S
O387 C403 1.276 . S
O388 Eu336 2.432 . S
O388 C410 1.264 . S
O389 Eu347 2.339 . S
O389 C410 1.254 . S
O390 Eu347 2.563 . S
O390 C403 1.235 . S
O391 Eu347 2.419 . S
O391 C411 1.249 . S
C392 O381 1.276 . S
C392 O384 1.235 . S
C393 C395 1.393 . S
C393 C397 1.395 . S
C393 C400 1.492 . S
C394 C395 1.392 . S
C394 C396 1.386 . S
C395 C393 1.393 . S
C395 C394 1.392 . S
C395 H412 0.930 . S
C396 C394 1.386 . S
C396 C398 1.395 . S
C396 H413 0.930 . S
C397 C393 1.395 . S
C397 C398 1.379 . S
C397 H414 0.930 . S
C398 C396 1.395 . S
C398 C397 1.379 . S
C398 H415 0.930 . S
C399 O382 1.264 . S
C399 O383 1.254 . S
C400 Eu336 2.848 . S
C400 O380 1.257 . S
C400 O385 1.249 . S
C400 C393 1.492 . S
C401 H366 0.931 . S
C401 C379 1.420 . S
C401 C402 1.351 . S
C402 H364 0.930 1_655 S
C402 C370 1.423 . S
C402 C401 1.351 . S
C403 O387 1.276 . S
C403 O390 1.235 . S
C404 C405 1.393 . S
C404 C408 1.395 . S
C404 C411 1.492 . S
C405 C404 1.393 . S
C405 C406 1.392 . S
C405 H416 0.930 . S
C406 C405 1.392 . S
C406 C407 1.386 . S
C407 C406 1.386 . S
C407 C409 1.395 . S
C407 H417 0.930 . S
C408 C404 1.395 . S
C408 C409 1.379 . S
C408 H418 0.930 . S
C409 C407 1.395 . S
C409 C408 1.379 . S
C409 H419 0.930 . S
C410 O388 1.264 . S
C410 O389 1.254 . S
C411 Eu347 2.848 . S
C411 O386 1.257 . S
C411 O391 1.249 . S
C411 C404 1.492 . S
H412 C395 0.930 . S
H413 C396 0.930 . S
H414 C397 0.930 . S
H415 C398 0.930 . S
H416 C405 0.930 . S
H417 C407 0.930 . S
H418 C408 0.930 . S
H419 C409 0.930 . S
Eu420 N451 2.657 . S
Eu420 N458 2.609 . S
Eu420 O464 2.558 . S
Eu420 O465 2.612 . S
Eu420 O467 2.339 . S
Eu420 O468 2.563 . S
Eu420 O469 2.419 . S
Eu420 O471 2.380 . S
Eu420 O472 2.432 . S
Eu420 C484 2.848 . S
C421 C424 1.429 . S
C421 C425 1.411 . S
C421 N428 1.377 . S
C422 C424 1.420 . S
C422 C426 1.423 . S
C422 C434 1.392 . S
C423 C425 1.420 . S
C423 C426 1.351 . S
C423 H446 0.931 . S
C424 C421 1.429 . S
C424 C422 1.420 . S
C424 N432 1.362 . S
C425 C421 1.411 . S
C425 C423 1.420 . S
C425 C430 1.395 . S
C426 C422 1.423 . S
C426 C423 1.351 . S
C426 H438 0.930 1_545 S
C427 C429 1.400 . S
C427 C430 1.386 . S
C427 H439 0.930 . S
N428 C421 1.377 . S
N428 C429 1.321 . S
N428 Eu431 2.609 . S
C429 C427 1.400 . S
C429 N428 1.321 . S
C429 H436 0.930 . S
C430 C425 1.395 . S
C430 C427 1.386 . S
C430 H449 0.930 . S
Eu431 N428 2.609 . S
Eu431 N432 2.657 . S
Eu431 O465 2.380 . S
Eu431 O466 2.432 . S
Eu431 O470 2.558 . S
Eu431 O471 2.612 . S
Eu431 O473 2.339 . S
Eu431 O474 2.563 . S
Eu431 O475 2.419 . S
Eu431 C495 2.848 . S
N432 C424 1.362 . S
N432 Eu431 2.657 . S
N432 C433 1.334 . S
C433 N432 1.334 . S
C433 C435 1.413 . S
C433 H440 0.929 . S
C434 C422 1.392 . S
C434 C435 1.367 . S
C434 H442 0.930 . S
C435 C433 1.413 . S
C435 C434 1.367 . S
C435 H437 0.930 . S
H436 C429 0.930 . S
H437 C435 0.930 . S
H438 C426 0.930 1_565 S
H439 C427 0.930 . S
H440 C433 0.929 . S
H441 C455 0.930 . S
H442 C434 0.930 . S
H443 C461 0.930 . S
H444 C452 0.929 . S
H445 C459 0.930 . S
H446 C423 0.931 . S
H447 C453 0.930 . S
H448 C486 0.930 . S
H449 C430 0.930 . S
H450 C485 0.931 . S
N451 Eu420 2.657 . S
N451 C452 1.334 . S
N451 C456 1.362 . S
C452 H444 0.929 . S
C452 N451 1.334 . S
C452 C455 1.413 . S
C453 H447 0.930 . S
C453 C454 1.392 . S
C453 C455 1.367 . S
C454 C453 1.392 . S
C454 C456 1.420 . S
C454 C486 1.423 . S
C455 H441 0.930 . S
C455 C452 1.413 . S
C455 C453 1.367 . S
C456 N451 1.362 . S
C456 C454 1.420 . S
C456 C460 1.429 . S
H457 C462 0.930 . S
N458 Eu420 2.609 . S
N458 C460 1.377 . S
N458 C461 1.321 . S
C459 H445 0.930 . S
C459 C461 1.400 . S
C459 C462 1.386 . S
C460 C456 1.429 . S
C460 N458 1.377 . S
C460 C463 1.411 . S
C461 H443 0.930 . S
C461 N458 1.321 . S
C461 C459 1.400 . S
C462 H457 0.930 . S
C462 C459 1.386 . S
C462 C463 1.395 . S
C463 C460 1.411 . S
C463 C462 1.395 . S
C463 C485 1.420 . S
O464 Eu420 2.558 . S
O464 C484 1.257 . S
O465 Eu420 2.612 . S
O465 Eu431 2.380 . S
O465 C476 1.276 . S
O466 Eu431 2.432 . S
O466 C483 1.264 . S
O467 Eu420 2.339 . S
O467 C483 1.254 . S
O468 Eu420 2.563 . S
O468 C476 1.235 . S
O469 Eu420 2.419 . S
O469 C484 1.249 . S
O470 Eu431 2.558 . S
O470 C495 1.257 . S
O471 Eu420 2.380 . S
O471 Eu431 2.612 . S
O471 C487 1.276 . S
O472 Eu420 2.432 . S
O472 C494 1.264 . S
O473 Eu431 2.339 . S
O473 C494 1.254 . S
O474 Eu431 2.563 . S
O474 C487 1.235 . S
O475 Eu431 2.419 . S
O475 C495 1.249 . S
C476 O465 1.276 . S
C476 O468 1.235 . S
C477 C479 1.393 . S
C477 C481 1.395 . S
C477 C484 1.492 . S
C478 C479 1.392 1_455 S
C478 C480 1.386 . S
C479 C477 1.393 . S
C479 C478 1.392 1_655 S
C479 H496 0.930 . S
C480 C478 1.386 . S
C480 C482 1.395 . S
C480 H497 0.930 . S
C481 C477 1.395 . S
C481 C482 1.379 1_655 S
C481 H498 0.930 . S
C482 C480 1.395 . S
C482 C481 1.379 1_455 S
C482 H499 0.930 . S
C483 O466 1.264 . S
C483 O467 1.254 . S
C484 Eu420 2.848 . S
C484 O464 1.257 . S
C484 O469 1.249 . S
C484 C477 1.492 . S
C485 H450 0.931 . S
C485 C463 1.420 . S
C485 C486 1.351 . S
C486 H448 0.930 . S
C486 C454 1.423 . S
C486 C485 1.351 . S
C487 O471 1.276 . S
C487 O474 1.235 . S
C488 C489 1.393 . S
C488 C492 1.395 . S
C488 C495 1.492 . S
C489 C488 1.393 . S
C489 C490 1.392 . S
C489 H500 0.930 . S
C490 C489 1.392 . S
C490 C491 1.386 . S
C491 C490 1.386 . S
C491 C493 1.395 . S
C491 H501 0.930 . S
C492 C488 1.395 . S
C492 C493 1.379 . S
C492 H502 0.930 . S
C493 C491 1.395 . S
C493 C492 1.379 . S
C493 H503 0.930 . S
C494 O472 1.264 . S
C494 O473 1.254 . S
C495 Eu431 2.848 . S
C495 O470 1.257 . S
C495 O475 1.249 . S
C495 C488 1.492 . S
H496 C479 0.930 . S
H497 C480 0.930 . S
H498 C481 0.930 . S
H499 C482 0.930 . S
H500 C489 0.930 . S
H501 C491 0.930 . S
H502 C492 0.930 . S
H503 C493 0.930 . S
Eu504 N535 2.657 . S
Eu504 N542 2.609 . S
Eu504 O548 2.558 . S
Eu504 O549 2.612 . S
Eu504 O551 2.339 . S
Eu504 O552 2.563 . S
Eu504 O553 2.419 . S
Eu504 O555 2.380 . S
Eu504 O556 2.432 . S
Eu504 C568 2.848 . S
C505 C508 1.429 . S
C505 C509 1.411 . S
C505 N512 1.377 . S
C506 C508 1.420 . S
C506 C510 1.423 . S
C506 C518 1.392 . S
C507 C509 1.420 . S
C507 C510 1.351 . S
C507 H530 0.931 . S
C508 C505 1.429 . S
C508 C506 1.420 . S
C508 N516 1.362 . S
C509 C505 1.411 . S
C509 C507 1.420 . S
C509 C514 1.395 . S
C510 C506 1.423 . S
C510 C507 1.351 . S
C510 H522 0.930 . S
C511 C513 1.400 . S
C511 C514 1.386 . S
C511 H523 0.930 . S
N512 C505 1.377 . S
N512 C513 1.321 . S
N512 Eu515 2.609 . S
C513 C511 1.400 . S
C513 N512 1.321 . S
C513 H520 0.930 . S
C514 C509 1.395 . S
C514 C511 1.386 . S
C514 H533 0.930 . S
Eu515 N512 2.609 . S
Eu515 N516 2.657 . S
Eu515 O549 2.380 . S
Eu515 O550 2.432 . S
Eu515 O554 2.558 . S
Eu515 O555 2.612 . S
Eu515 O557 2.339 . S
Eu515 O558 2.563 . S
Eu515 O559 2.419 . S
Eu515 C579 2.848 . S
N516 C508 1.362 . S
N516 Eu515 2.657 . S
N516 C517 1.334 . S
C517 N516 1.334 . S
C517 C519 1.413 . S
C517 H524 0.929 . S
C518 C506 1.392 . S
C518 C519 1.367 . S
C518 H526 0.930 . S
C519 C517 1.413 . S
C519 C518 1.367 . S
C519 H521 0.930 . S
H520 C513 0.930 . S
H521 C519 0.930 . S
H522 C510 0.930 . S
H523 C511 0.930 . S
H524 C517 0.929 . S
H525 C539 0.930 . S
H526 C518 0.930 . S
H527 C545 0.930 . S
H528 C536 0.929 . S
H529 C543 0.930 . S
H530 C507 0.931 . S
H531 C537 0.930 . S
H532 C570 0.930 . S
H533 C514 0.930 . S
H534 C569 0.931 . S
N535 Eu504 2.657 . S
N535 C536 1.334 . S
N535 C540 1.362 . S
C536 H528 0.929 . S
C536 N535 1.334 . S
C536 C539 1.413 . S
C537 H531 0.930 . S
C537 C538 1.392 . S
C537 C539 1.367 . S
C538 C537 1.392 . S
C538 C540 1.420 . S
C538 C570 1.423 . S
C539 H525 0.930 . S
C539 C536 1.413 . S
C539 C537 1.367 . S
C540 N535 1.362 . S
C540 C538 1.420 . S
C540 C544 1.429 . S
H541 C546 0.930 . S
N542 Eu504 2.609 . S
N542 C544 1.377 . S
N542 C545 1.321 . S
C543 H529 0.930 . S
C543 C545 1.400 . S
C543 C546 1.386 . S
C544 C540 1.429 . S
C544 N542 1.377 . S
C544 C547 1.411 . S
C545 H527 0.930 . S
C545 N542 1.321 . S
C545 C543 1.400 . S
C546 H541 0.930 . S
C546 C543 1.386 . S
C546 C547 1.395 . S
C547 C544 1.411 . S
C547 C546 1.395 . S
C547 C569 1.420 . S
O548 Eu504 2.558 . S
O548 C568 1.257 . S
O549 Eu504 2.612 . S
O549 Eu515 2.380 . S
O549 C560 1.276 . S
O550 Eu515 2.432 . S
O550 C567 1.264 . S
O551 Eu504 2.339 . S
O551 C567 1.254 . S
O552 Eu504 2.563 . S
O552 C560 1.235 . S
O553 Eu504 2.419 . S
O553 C568 1.249 . S
O554 Eu515 2.558 . S
O554 C579 1.257 . S
O555 Eu504 2.380 . S
O555 Eu515 2.612 . S
O555 C571 1.276 . S
O556 Eu504 2.432 . S
O556 C578 1.264 . S
O557 Eu515 2.339 . S
O557 C578 1.254 . S
O558 Eu515 2.563 . S
O558 C571 1.235 . S
O559 Eu515 2.419 . S
O559 C579 1.249 . S
C560 O549 1.276 . S
C560 O552 1.235 . S
C561 C563 1.393 . S
C561 C565 1.395 . S
C561 C568 1.492 . S
C562 C563 1.392 1_655 S
C562 C564 1.386 . S
C563 C561 1.393 . S
C563 C562 1.392 1_455 S
C563 H580 0.930 . S
C564 C562 1.386 . S
C564 C566 1.395 . S
C564 H581 0.930 . S
C565 C561 1.395 . S
C565 C566 1.379 1_455 S
C565 H582 0.930 . S
C566 C564 1.395 . S
C566 C565 1.379 1_655 S
C566 H583 0.930 . S
C567 O550 1.264 . S
C567 O551 1.254 . S
C568 Eu504 2.848 . S
C568 O548 1.257 . S
C568 O553 1.249 . S
C568 C561 1.492 . S
C569 H534 0.931 . S
C569 C547 1.420 . S
C569 C570 1.351 . S
C570 H532 0.930 . S
C570 C538 1.423 . S
C570 C569 1.351 . S
C571 O555 1.276 . S
C571 O558 1.235 . S
C572 C573 1.393 . S
C572 C576 1.395 . S
C572 C579 1.492 . S
C573 C572 1.393 . S
C573 C574 1.392 . S
C573 H584 0.930 . S
C574 C573 1.392 . S
C574 C575 1.386 . S
C575 C574 1.386 . S
C575 C577 1.395 . S
C575 H585 0.930 . S
C576 C572 1.395 . S
C576 C577 1.379 . S
C576 H586 0.930 . S
C577 C575 1.395 . S
C577 C576 1.379 . S
C577 H587 0.930 . S
C578 O556 1.264 . S
C578 O557 1.254 . S
C579 Eu515 2.848 . S
C579 O554 1.257 . S
C579 O559 1.249 . S
C579 C572 1.492 . S
H580 C563 0.930 . S
H581 C564 0.930 . S
H582 C565 0.930 . S
H583 C566 0.930 . S
H584 C573 0.930 . S
H585 C575 0.930 . S
H586 C576 0.930 . S
H587 C577 0.930 . S
Eu588 N619 2.657 . S
Eu588 N626 2.609 . S
Eu588 O632 2.558 . S
Eu588 O633 2.612 . S
Eu588 O635 2.339 . S
Eu588 O636 2.563 . S
Eu588 O637 2.419 . S
Eu588 O639 2.380 . S
Eu588 O640 2.432 . S
Eu588 C652 2.848 . S
C589 C592 1.429 . S
C589 C593 1.411 . S
C589 N596 1.377 . S
C590 C592 1.420 . S
C590 C594 1.423 . S
C590 C602 1.392 . S
C591 C593 1.420 . S
C591 C594 1.351 . S
C591 H614 0.931 . S
C592 C589 1.429 . S
C592 C590 1.420 . S
C592 N600 1.362 . S
C593 C589 1.411 . S
C593 C591 1.420 . S
C593 C598 1.395 . S
C594 C590 1.423 . S
C594 C591 1.351 . S
C594 H606 0.930 . S
C595 C597 1.400 . S
C595 C598 1.386 . S
C595 H607 0.930 . S
N596 C589 1.377 . S
N596 C597 1.321 . S
N596 Eu599 2.609 . S
C597 C595 1.400 . S
C597 N596 1.321 . S
C597 H604 0.930 . S
C598 C593 1.395 . S
C598 C595 1.386 . S
C598 H617 0.930 . S
Eu599 N596 2.609 . S
Eu599 N600 2.657 . S
Eu599 O633 2.380 . S
Eu599 O634 2.432 . S
Eu599 O638 2.558 . S
Eu599 O639 2.612 . S
Eu599 O641 2.339 . S
Eu599 O642 2.563 . S
Eu599 O643 2.419 . S
Eu599 C663 2.848 . S
N600 C592 1.362 . S
N600 Eu599 2.657 . S
N600 C601 1.334 . S
C601 N600 1.334 . S
C601 C603 1.413 . S
C601 H608 0.929 . S
C602 C590 1.392 . S
C602 C603 1.367 . S
C602 H610 0.930 . S
C603 C601 1.413 . S
C603 C602 1.367 . S
C603 H605 0.930 . S
H604 C597 0.930 . S
H605 C603 0.930 . S
H606 C594 0.930 . S
H607 C595 0.930 . S
H608 C601 0.929 . S
H609 C623 0.930 . S
H610 C602 0.930 . S
H611 C629 0.930 . S
H612 C620 0.929 . S
H613 C627 0.930 . S
H614 C591 0.931 . S
H615 C621 0.930 . S
H616 C654 0.930 1_655 S
H617 C598 0.930 . S
H618 C653 0.931 . S
N619 Eu588 2.657 . S
N619 C620 1.334 . S
N619 C624 1.362 . S
C620 H612 0.929 . S
C620 N619 1.334 . S
C620 C623 1.413 . S
C621 H615 0.930 . S
C621 C622 1.392 . S
C621 C623 1.367 . S
C622 C621 1.392 . S
C622 C624 1.420 . S
C622 C654 1.423 . S
C623 H609 0.930 . S
C623 C620 1.413 . S
C623 C621 1.367 . S
C624 N619 1.362 . S
C624 C622 1.420 . S
C624 C628 1.429 . S
H625 C630 0.930 . S
N626 Eu588 2.609 . S
N626 C628 1.377 . S
N626 C629 1.321 . S
C627 H613 0.930 . S
C627 C629 1.400 . S
C627 C630 1.386 . S
C628 C624 1.429 . S
C628 N626 1.377 . S
C628 C631 1.411 . S
C629 H611 0.930 . S
C629 N626 1.321 . S
C629 C627 1.400 . S
C630 H625 0.930 . S
C630 C627 1.386 . S
C630 C631 1.395 . S
C631 C628 1.411 . S
C631 C630 1.395 . S
C631 C653 1.420 . S
O632 Eu588 2.558 . S
O632 C652 1.257 . S
O633 Eu588 2.612 . S
O633 Eu599 2.380 . S
O633 C644 1.276 . S
O634 Eu599 2.432 . S
O634 C651 1.264 . S
O635 Eu588 2.339 . S
O635 C651 1.254 . S
O636 Eu588 2.563 . S
O636 C644 1.235 . S
O637 Eu588 2.419 . S
O637 C652 1.249 . S
O638 Eu599 2.558 . S
O638 C663 1.257 . S
O639 Eu588 2.380 . S
O639 Eu599 2.612 . S
O639 C655 1.276 . S
O640 Eu588 2.432 . S
O640 C662 1.264 . S
O641 Eu599 2.339 . S
O641 C662 1.254 . S
O642 Eu599 2.563 . S
O642 C655 1.235 . S
O643 Eu599 2.419 . S
O643 C663 1.249 . S
C644 O633 1.276 . S
C644 O636 1.235 . S
C645 C647 1.393 . S
C645 C649 1.395 . S
C645 C652 1.492 . S
C646 C647 1.392 . S
C646 C648 1.386 . S
C647 C645 1.393 . S
C647 C646 1.392 . S
C647 H664 0.930 . S
C648 C646 1.386 . S
C648 C650 1.395 . S
C648 H665 0.930 . S
C649 C645 1.395 . S
C649 C650 1.379 . S
C649 H666 0.930 . S
C650 C648 1.395 . S
C650 C649 1.379 . S
C650 H667 0.930 . S
C651 O634 1.264 . S
C651 O635 1.254 . S
C652 Eu588 2.848 . S
C652 O632 1.257 . S
C652 O637 1.249 . S
C652 C645 1.492 . S
C653 H618 0.931 . S
C653 C631 1.420 . S
C653 C654 1.351 . S
C654 H616 0.930 1_455 S
C654 C622 1.423 . S
C654 C653 1.351 . S
C655 O639 1.276 . S
C655 O642 1.235 . S
C656 C657 1.393 . S
C656 C660 1.395 . S
C656 C663 1.492 . S
C657 C656 1.393 . S
C657 C658 1.392 1_565 S
C657 H668 0.930 . S
C658 C657 1.392 1_545 S
C658 C659 1.386 . S
C659 C658 1.386 . S
C659 C661 1.395 . S
C659 H669 0.930 . S
C660 C656 1.395 . S
C660 C661 1.379 1_565 S
C660 H670 0.930 . S
C661 C659 1.395 . S
C661 C660 1.379 1_545 S
C661 H671 0.930 . S
C662 O640 1.264 . S
C662 O641 1.254 . S
C663 Eu599 2.848 . S
C663 O638 1.257 . S
C663 O643 1.249 . S
C663 C656 1.492 . S
H664 C647 0.930 . S
H665 C648 0.930 . S
H666 C649 0.930 . S
H667 C650 0.930 . S
H668 C657 0.930 . S
H669 C659 0.930 . S
H670 C660 0.930 . S
H671 C661 0.930 . S
Eu672 N703 2.657 . S
Eu672 N710 2.609 . S
Eu672 O716 2.558 . S
Eu672 O717 2.612 . S
Eu672 O719 2.339 . S
Eu672 O720 2.563 . S
Eu672 O721 2.419 . S
Eu672 O723 2.380 . S
Eu672 O724 2.432 . S
Eu672 C736 2.848 . S
C673 C676 1.429 . S
C673 C677 1.411 . S
C673 N680 1.377 . S
C674 C676 1.420 . S
C674 C678 1.423 . S
C674 C686 1.392 . S
C675 C677 1.420 . S
C675 C678 1.351 . S
C675 H698 0.931 . S
C676 C673 1.429 . S
C676 C674 1.420 . S
C676 N684 1.362 . S
C677 C673 1.411 . S
C677 C675 1.420 . S
C677 C682 1.395 . S
C678 C674 1.423 . S
C678 C675 1.351 . S
C678 H690 0.930 1_565 S
C679 C681 1.400 . S
C679 C682 1.386 . S
C679 H691 0.930 . S
N680 C673 1.377 . S
N680 C681 1.321 . S
N680 Eu683 2.609 . S
C681 C679 1.400 . S
C681 N680 1.321 . S
C681 H688 0.930 . S
C682 C677 1.395 . S
C682 C679 1.386 . S
C682 H701 0.930 . S
Eu683 N680 2.609 . S
Eu683 N684 2.657 . S
Eu683 O717 2.380 . S
Eu683 O718 2.432 . S
Eu683 O722 2.558 . S
Eu683 O723 2.612 . S
Eu683 O725 2.339 . S
Eu683 O726 2.563 . S
Eu683 O727 2.419 . S
Eu683 C747 2.848 . S
N684 C676 1.362 . S
N684 Eu683 2.657 . S
N684 C685 1.334 . S
C685 N684 1.334 . S
C685 C687 1.413 . S
C685 H692 0.929 . S
C686 C674 1.392 . S
C686 C687 1.367 . S
C686 H694 0.930 . S
C687 C685 1.413 . S
C687 C686 1.367 . S
C687 H689 0.930 . S
H688 C681 0.930 . S
H689 C687 0.930 . S
H690 C678 0.930 1_545 S
H691 C679 0.930 . S
H692 C685 0.929 . S
H693 C707 0.930 . S
H694 C686 0.930 . S
H695 C713 0.930 . S
H696 C704 0.929 . S
H697 C711 0.930 . S
H698 C675 0.931 . S
H699 C705 0.930 . S
H700 C738 0.930 . S
H701 C682 0.930 . S
H702 C737 0.931 . S
N703 Eu672 2.657 . S
N703 C704 1.334 . S
N703 C708 1.362 . S
C704 H696 0.929 . S
C704 N703 1.334 . S
C704 C707 1.413 . S
C705 H699 0.930 . S
C705 C706 1.392 . S
C705 C707 1.367 . S
C706 C705 1.392 . S
C706 C708 1.420 . S
C706 C738 1.423 . S
C707 H693 0.930 . S
C707 C704 1.413 . S
C707 C705 1.367 . S
C708 N703 1.362 . S
C708 C706 1.420 . S
C708 C712 1.429 . S
H709 C714 0.930 . S
N710 Eu672 2.609 . S
N710 C712 1.377 . S
N710 C713 1.321 . S
C711 H697 0.930 . S
C711 C713 1.400 . S
C711 C714 1.386 . S
C712 C708 1.429 . S
C712 N710 1.377 . S
C712 C715 1.411 . S
C713 H695 0.930 . S
C713 N710 1.321 . S
C713 C711 1.400 . S
C714 H709 0.930 . S
C714 C711 1.386 . S
C714 C715 1.395 . S
C715 C712 1.411 . S
C715 C714 1.395 . S
C715 C737 1.420 . S
O716 Eu672 2.558 . S
O716 C736 1.257 . S
O717 Eu672 2.612 . S
O717 Eu683 2.380 . S
O717 C728 1.276 . S
O718 Eu683 2.432 . S
O718 C735 1.264 . S
O719 Eu672 2.339 . S
O719 C735 1.254 . S
O720 Eu672 2.563 . S
O720 C728 1.235 . S
O721 Eu672 2.419 . S
O721 C736 1.249 . S
O722 Eu683 2.558 . S
O722 C747 1.257 . S
O723 Eu672 2.380 . S
O723 Eu683 2.612 . S
O723 C739 1.276 . S
O724 Eu672 2.432 . S
O724 C746 1.264 . S
O725 Eu683 2.339 . S
O725 C746 1.254 . S
O726 Eu683 2.563 . S
O726 C739 1.235 . S
O727 Eu683 2.419 . S
O727 C747 1.249 . S
C728 O717 1.276 . S
C728 O720 1.235 . S
C729 C731 1.393 . S
C729 C733 1.395 . S
C729 C736 1.492 . S
C730 C731 1.392 . S
C730 C732 1.386 . S
C731 C729 1.393 . S
C731 C730 1.392 . S
C731 H748 0.930 . S
C732 C730 1.386 . S
C732 C734 1.395 . S
C732 H749 0.930 . S
C733 C729 1.395 . S
C733 C734 1.379 . S
C733 H750 0.930 . S
C734 C732 1.395 . S
C734 C733 1.379 . S
C734 H751 0.930 . S
C735 O718 1.264 . S
C735 O719 1.254 . S
C736 Eu672 2.848 . S
C736 O716 1.257 . S
C736 O721 1.249 . S
C736 C729 1.492 . S
C737 H702 0.931 . S
C737 C715 1.420 . S
C737 C738 1.351 . S
C738 H700 0.930 . S
C738 C706 1.423 . S
C738 C737 1.351 . S
C739 O723 1.276 . S
C739 O726 1.235 . S
C740 C741 1.393 . S
C740 C744 1.395 . S
C740 C747 1.492 . S
C741 C740 1.393 . S
C741 C742 1.392 . S
C741 H752 0.930 . S
C742 C741 1.392 . S
C742 C743 1.386 . S
C743 C742 1.386 . S
C743 C745 1.395 . S
C743 H753 0.930 . S
C744 C740 1.395 . S
C744 C745 1.379 . S
C744 H754 0.930 . S
C745 C743 1.395 . S
C745 C744 1.379 . S
C745 H755 0.930 . S
C746 O724 1.264 . S
C746 O725 1.254 . S
C747 Eu683 2.848 . S
C747 O722 1.257 . S
C747 O727 1.249 . S
C747 C740 1.492 . S
H748 C731 0.930 . S
H749 C732 0.930 . S
H750 C733 0.930 . S
H751 C734 0.930 . S
H752 C741 0.930 . S
H753 C743 0.930 . S
H754 C744 0.930 . S
H755 C745 0.930 . S
Eu756 N787 2.657 . S
Eu756 N794 2.609 . S
Eu756 O800 2.558 . S
Eu756 O801 2.612 . S
Eu756 O803 2.339 . S
Eu756 O804 2.563 . S
Eu756 O805 2.419 . S
Eu756 O807 2.380 . S
Eu756 O808 2.432 . S
Eu756 C820 2.848 . S
C757 C760 1.429 . S
C757 C761 1.411 . S
C757 N764 1.377 . S
C758 C760 1.420 . S
C758 C762 1.423 . S
C758 C770 1.392 . S
C759 C761 1.420 . S
C759 C762 1.351 . S
C759 H782 0.931 . S
C760 C757 1.429 . S
C760 C758 1.420 . S
C760 N768 1.362 . S
C761 C757 1.411 . S
C761 C759 1.420 . S
C761 C766 1.395 . S
C762 C758 1.423 . S
C762 C759 1.351 . S
C762 H774 0.930 . S
C763 C765 1.400 . S
C763 C766 1.386 . S
C763 H775 0.930 . S
N764 C757 1.377 . S
N764 C765 1.321 . S
N764 Eu767 2.609 . S
C765 C763 1.400 . S
C765 N764 1.321 . S
C765 H772 0.930 . S
C766 C761 1.395 . S
C766 C763 1.386 . S
C766 H785 0.930 . S
Eu767 N764 2.609 . S
Eu767 N768 2.657 . S
Eu767 O801 2.380 . S
Eu767 O802 2.432 . S
Eu767 O806 2.558 . S
Eu767 O807 2.612 . S
Eu767 O809 2.339 . S
Eu767 O810 2.563 . S
Eu767 O811 2.419 . S
Eu767 C831 2.848 . S
N768 C760 1.362 . S
N768 Eu767 2.657 . S
N768 C769 1.334 . S
C769 N768 1.334 . S
C769 C771 1.413 . S
C769 H776 0.929 . S
C770 C758 1.392 . S
C770 C771 1.367 . S
C770 H778 0.930 . S
C771 C769 1.413 . S
C771 C770 1.367 . S
C771 H773 0.930 . S
H772 C765 0.930 . S
H773 C771 0.930 . S
H774 C762 0.930 . S
H775 C763 0.930 . S
H776 C769 0.929 . S
H777 C791 0.930 . S
H778 C770 0.930 . S
H779 C797 0.930 . S
H780 C788 0.929 . S
H781 C795 0.930 . S
H782 C759 0.931 . S
H783 C789 0.930 . S
H784 C822 0.930 . S
H785 C766 0.930 . S
H786 C821 0.931 . S
N787 Eu756 2.657 . S
N787 C788 1.334 . S
N787 C792 1.362 . S
C788 H780 0.929 . S
C788 N787 1.334 . S
C788 C791 1.413 . S
C789 H783 0.930 . S
C789 C790 1.392 . S
C789 C791 1.367 . S
C790 C789 1.392 . S
C790 C792 1.420 . S
C790 C822 1.423 . S
C791 H777 0.930 . S
C791 C788 1.413 . S
C791 C789 1.367 . S
C792 N787 1.362 . S
C792 C790 1.420 . S
C792 C796 1.429 . S
H793 C798 0.930 . S
N794 Eu756 2.609 . S
N794 C796 1.377 . S
N794 C797 1.321 . S
C795 H781 0.930 . S
C795 C797 1.400 . S
C795 C798 1.386 . S
C796 C792 1.429 . S
C796 N794 1.377 . S
C796 C799 1.411 . S
C797 H779 0.930 . S
C797 N794 1.321 . S
C797 C795 1.400 . S
C798 H793 0.930 . S
C798 C795 1.386 . S
C798 C799 1.395 . S
C799 C796 1.411 . S
C799 C798 1.395 . S
C799 C821 1.420 . S
O800 Eu756 2.558 . S
O800 C820 1.257 . S
O801 Eu756 2.612 . S
O801 Eu767 2.380 . S
O801 C812 1.276 . S
O802 Eu767 2.432 . S
O802 C819 1.264 . S
O803 Eu756 2.339 . S
O803 C819 1.254 . S
O804 Eu756 2.563 . S
O804 C812 1.235 . S
O805 Eu756 2.419 . S
O805 C820 1.249 . S
O806 Eu767 2.558 . S
O806 C831 1.257 . S
O807 Eu756 2.380 . S
O807 Eu767 2.612 . S
O807 C823 1.276 . S
O808 Eu756 2.432 . S
O808 C830 1.264 . S
O809 Eu767 2.339 . S
O809 C830 1.254 . S
O810 Eu767 2.563 . S
O810 C823 1.235 . S
O811 Eu767 2.419 . S
O811 C831 1.249 . S
C812 O801 1.276 . S
C812 O804 1.235 . S
C813 C815 1.393 . S
C813 C817 1.395 . S
C813 C820 1.492 . S
C814 C815 1.392 . S
C814 C816 1.386 . S
C815 C813 1.393 . S
C815 C814 1.392 . S
C815 H832 0.930 . S
C816 C814 1.386 . S
C816 C818 1.395 . S
C816 H833 0.930 . S
C817 C813 1.395 . S
C817 C818 1.379 . S
C817 H834 0.930 . S
C818 C816 1.395 . S
C818 C817 1.379 . S
C818 H835 0.930 . S
C819 O802 1.264 . S
C819 O803 1.254 . S
C820 Eu756 2.848 . S
C820 O800 1.257 . S
C820 O805 1.249 . S
C820 C813 1.492 . S
C821 H786 0.931 . S
C821 C799 1.420 . S
C821 C822 1.351 . S
C822 H784 0.930 . S
C822 C790 1.423 . S
C822 C821 1.351 . S
C823 O807 1.276 . S
C823 O810 1.235 . S
C824 C825 1.393 . S
C824 C828 1.395 . S
C824 C831 1.492 . S
C825 C824 1.393 . S
C825 C826 1.392 1_455 S
C825 H836 0.930 . S
C826 C825 1.392 1_655 S
C826 C827 1.386 . S
C827 C826 1.386 . S
C827 C829 1.395 . S
C827 H837 0.930 . S
C828 C824 1.395 . S
C828 C829 1.379 1_455 S
C828 H838 0.930 . S
C829 C827 1.395 . S
C829 C828 1.379 1_655 S
C829 H839 0.930 . S
C830 O808 1.264 . S
C830 O809 1.254 . S
C831 Eu767 2.848 . S
C831 O806 1.257 . S
C831 O811 1.249 . S
C831 C824 1.492 . S
H832 C815 0.930 . S
H833 C816 0.930 . S
H834 C817 0.930 . S
H835 C818 0.930 . S
H836 C825 0.930 . S
H837 C827 0.930 . S
H838 C828 0.930 . S
H839 C829 0.930 . S
Eu840 N871 2.657 . S
Eu840 N878 2.609 . S
Eu840 O884 2.558 . S
Eu840 O885 2.612 . S
Eu840 O887 2.339 . S
Eu840 O888 2.563 . S
Eu840 O889 2.419 . S
Eu840 O891 2.380 . S
Eu840 O892 2.432 . S
Eu840 C904 2.848 . S
C841 C844 1.429 . S
C841 C845 1.411 . S
C841 N848 1.377 . S
C842 C844 1.420 . S
C842 C846 1.423 . S
C842 C854 1.392 . S
C843 C845 1.420 . S
C843 C846 1.351 . S
C843 H866 0.931 . S
C844 C841 1.429 . S
C844 C842 1.420 . S
C844 N852 1.362 . S
C845 C841 1.411 . S
C845 C843 1.420 . S
C845 C850 1.395 . S
C846 C842 1.423 . S
C846 C843 1.351 . S
C846 H858 0.930 1_455 S
C847 C849 1.400 . S
C847 C850 1.386 . S
C847 H859 0.930 . S
N848 C841 1.377 . S
N848 C849 1.321 . S
N848 Eu851 2.609 . S
C849 C847 1.400 . S
C849 N848 1.321 . S
C849 H856 0.930 . S
C850 C845 1.395 . S
C850 C847 1.386 . S
C850 H869 0.930 . S
Eu851 N848 2.609 . S
Eu851 N852 2.657 . S
Eu851 O885 2.380 . S
Eu851 O886 2.432 . S
Eu851 O890 2.558 . S
Eu851 O891 2.612 . S
Eu851 O893 2.339 . S
Eu851 O894 2.563 . S
Eu851 O895 2.419 . S
Eu851 C915 2.848 . S
N852 C844 1.362 . S
N852 Eu851 2.657 . S
N852 C853 1.334 . S
C853 N852 1.334 . S
C853 C855 1.413 . S
C853 H860 0.929 . S
C854 C842 1.392 . S
C854 C855 1.367 . S
C854 H862 0.930 . S
C855 C853 1.413 . S
C855 C854 1.367 . S
C855 H857 0.930 . S
H856 C849 0.930 . S
H857 C855 0.930 . S
H858 C846 0.930 1_655 S
H859 C847 0.930 . S
H860 C853 0.929 . S
H861 C875 0.930 . S
H862 C854 0.930 . S
H863 C881 0.930 . S
H864 C872 0.929 . S
H865 C879 0.930 . S
H866 C843 0.931 . S
H867 C873 0.930 . S
H868 C906 0.930 . S
H869 C850 0.930 . S
H870 C905 0.931 . S
N871 Eu840 2.657 . S
N871 C872 1.334 . S
N871 C876 1.362 . S
C872 H864 0.929 . S
C872 N871 1.334 . S
C872 C875 1.413 . S
C873 H867 0.930 . S
C873 C874 1.392 . S
C873 C875 1.367 . S
C874 C873 1.392 . S
C874 C876 1.420 . S
C874 C906 1.423 . S
C875 H861 0.930 . S
C875 C872 1.413 . S
C875 C873 1.367 . S
C876 N871 1.362 . S
C876 C874 1.420 . S
C876 C880 1.429 . S
H877 C882 0.930 . S
N878 Eu840 2.609 . S
N878 C880 1.377 . S
N878 C881 1.321 . S
C879 H865 0.930 . S
C879 C881 1.400 . S
C879 C882 1.386 . S
C880 C876 1.429 . S
C880 N878 1.377 . S
C880 C883 1.411 . S
C881 H863 0.930 . S
C881 N878 1.321 . S
C881 C879 1.400 . S
C882 H877 0.930 . S
C882 C879 1.386 . S
C882 C883 1.395 . S
C883 C880 1.411 . S
C883 C882 1.395 . S
C883 C905 1.420 . S
O884 Eu840 2.558 . S
O884 C904 1.257 . S
O885 Eu840 2.612 . S
O885 Eu851 2.380 . S
O885 C896 1.276 . S
O886 Eu851 2.432 . S
O886 C903 1.264 . S
O887 Eu840 2.339 . S
O887 C903 1.254 . S
O888 Eu840 2.563 . S
O888 C896 1.235 . S
O889 Eu840 2.419 . S
O889 C904 1.249 . S
O890 Eu851 2.558 . S
O890 C915 1.257 . S
O891 Eu840 2.380 . S
O891 Eu851 2.612 . S
O891 C907 1.276 . S
O892 Eu840 2.432 . S
O892 C914 1.264 . S
O893 Eu851 2.339 . S
O893 C914 1.254 . S
O894 Eu851 2.563 . S
O894 C907 1.235 . S
O895 Eu851 2.419 . S
O895 C915 1.249 . S
C896 O885 1.276 . S
C896 O888 1.235 . S
C897 C899 1.393 . S
C897 C901 1.395 . S
C897 C904 1.492 . S
C898 C899 1.392 1_545 S
C898 C900 1.386 . S
C899 C897 1.393 . S
C899 C898 1.392 1_565 S
C899 H916 0.930 . S
C900 C898 1.386 . S
C900 C902 1.395 . S
C900 H917 0.930 . S
C901 C897 1.395 . S
C901 C902 1.379 1_565 S
C901 H918 0.930 . S
C902 C900 1.395 . S
C902 C901 1.379 1_545 S
C902 H919 0.930 . S
C903 O886 1.264 . S
C903 O887 1.254 . S
C904 Eu840 2.848 . S
C904 O884 1.257 . S
C904 O889 1.249 . S
C904 C897 1.492 . S
C905 H870 0.931 . S
C905 C883 1.420 . S
C905 C906 1.351 . S
C906 H868 0.930 . S
C906 C874 1.423 . S
C906 C905 1.351 . S
C907 O891 1.276 . S
C907 O894 1.235 . S
C908 C909 1.393 . S
C908 C912 1.395 . S
C908 C915 1.492 . S
C909 C908 1.393 . S
C909 C910 1.392 . S
C909 H920 0.930 . S
C910 C909 1.392 . S
C910 C911 1.386 . S
C911 C910 1.386 . S
C911 C913 1.395 . S
C911 H921 0.930 . S
C912 C908 1.395 . S
C912 C913 1.379 . S
C912 H922 0.930 . S
C913 C911 1.395 . S
C913 C912 1.379 . S
C913 H923 0.930 . S
C914 O892 1.264 . S
C914 O893 1.254 . S
C915 Eu851 2.848 . S
C915 O890 1.257 . S
C915 O895 1.249 . S
C915 C908 1.492 . S
H916 C899 0.930 . S
H917 C900 0.930 . S
H918 C901 0.930 . S
H919 C902 0.930 . S
H920 C909 0.930 . S
H921 C911 0.930 . S
H922 C912 0.930 . S
H923 C913 0.930 . S
Eu924 N955 2.657 . S
Eu924 N962 2.609 . S
Eu924 O968 2.558 . S
Eu924 O969 2.612 . S
Eu924 O971 2.339 . S
Eu924 O972 2.563 . S
Eu924 O973 2.419 . S
Eu924 O975 2.380 . S
Eu924 O976 2.432 . S
Eu924 C988 2.848 . S
C925 C928 1.429 . S
C925 C929 1.411 . S
C925 N932 1.377 . S
C926 C928 1.420 . S
C926 C930 1.423 . S
C926 C938 1.392 . S
C927 C929 1.420 . S
C927 C930 1.351 . S
C927 H950 0.931 . S
C928 C925 1.429 . S
C928 C926 1.420 . S
C928 N936 1.362 . S
C929 C925 1.411 . S
C929 C927 1.420 . S
C929 C934 1.395 . S
C930 C926 1.423 . S
C930 C927 1.351 . S
C930 H942 0.930 . S
C931 C933 1.400 . S
C931 C934 1.386 . S
C931 H943 0.930 . S
N932 C925 1.377 . S
N932 C933 1.321 . S
N932 Eu935 2.609 . S
C933 C931 1.400 . S
C933 N932 1.321 . S
C933 H940 0.930 . S
C934 C929 1.395 . S
C934 C931 1.386 . S
C934 H953 0.930 . S
Eu935 N932 2.609 . S
Eu935 N936 2.657 . S
Eu935 O969 2.380 . S
Eu935 O970 2.432 . S
Eu935 O974 2.558 . S
Eu935 O975 2.612 . S
Eu935 O977 2.339 . S
Eu935 O978 2.563 . S
Eu935 O979 2.419 . S
Eu935 C999 2.848 . S
N936 C928 1.362 . S
N936 Eu935 2.657 . S
N936 C937 1.334 . S
C937 N936 1.334 . S
C937 C939 1.413 . S
C937 H944 0.929 . S
C938 C926 1.392 . S
C938 C939 1.367 . S
C938 H946 0.930 . S
C939 C937 1.413 . S
C939 C938 1.367 . S
C939 H941 0.930 . S
H940 C933 0.930 . S
H941 C939 0.930 . S
H942 C930 0.930 . S
H943 C931 0.930 . S
H944 C937 0.929 . S
H945 C959 0.930 . S
H946 C938 0.930 . S
H947 C965 0.930 . S
H948 C956 0.929 . S
H949 C963 0.930 . S
H950 C927 0.931 . S
H951 C957 0.930 . S
H952 C990 0.930 1_545 S
H953 C934 0.930 . S
H954 C989 0.931 . S
N955 Eu924 2.657 . S
N955 C956 1.334 . S
N955 C960 1.362 . S
C956 H948 0.929 . S
C956 N955 1.334 . S
C956 C959 1.413 . S
C957 H951 0.930 . S
C957 C958 1.392 . S
C957 C959 1.367 . S
C958 C957 1.392 . S
C958 C960 1.420 . S
C958 C990 1.423 . S
C959 H945 0.930 . S
C959 C956 1.413 . S
C959 C957 1.367 . S
C960 N955 1.362 . S
C960 C958 1.420 . S
C960 C964 1.429 . S
H961 C966 0.930 . S
N962 Eu924 2.609 . S
N962 C964 1.377 . S
N962 C965 1.321 . S
C963 H949 0.930 . S
C963 C965 1.400 . S
C963 C966 1.386 . S
C964 C960 1.429 . S
C964 N962 1.377 . S
C964 C967 1.411 . S
C965 H947 0.930 . S
C965 N962 1.321 . S
C965 C963 1.400 . S
C966 H961 0.930 . S
C966 C963 1.386 . S
C966 C967 1.395 . S
C967 C964 1.411 . S
C967 C966 1.395 . S
C967 C989 1.420 . S
O968 Eu924 2.558 . S
O968 C988 1.257 . S
O969 Eu924 2.612 . S
O969 Eu935 2.380 . S
O969 C980 1.276 . S
O970 Eu935 2.432 . S
O970 C987 1.264 . S
O971 Eu924 2.339 . S
O971 C987 1.254 . S
O972 Eu924 2.563 . S
O972 C980 1.235 . S
O973 Eu924 2.419 . S
O973 C988 1.249 . S
O974 Eu935 2.558 . S
O974 C999 1.257 . S
O975 Eu924 2.380 . S
O975 Eu935 2.612 . S
O975 C991 1.276 . S
O976 Eu924 2.432 . S
O976 C998 1.264 . S
O977 Eu935 2.339 . S
O977 C998 1.254 . S
O978 Eu935 2.563 . S
O978 C991 1.235 . S
O979 Eu935 2.419 . S
O979 C999 1.249 . S
C980 O969 1.276 . S
C980 O972 1.235 . S
C981 C983 1.393 . S
C981 C985 1.395 . S
C981 C988 1.492 . S
C982 C983 1.392 . S
C982 C984 1.386 . S
C983 C981 1.393 . S
C983 C982 1.392 . S
C983 H1000 0.930 . S
C984 C982 1.386 . S
C984 C986 1.395 . S
C984 H1001 0.930 . S
C985 C981 1.395 . S
C985 C986 1.379 . S
C985 H1002 0.930 . S
C986 C984 1.395 . S
C986 C985 1.379 . S
C986 H1003 0.930 . S
C987 O970 1.264 . S
C987 O971 1.254 . S
C988 Eu924 2.848 . S
C988 O968 1.257 . S
C988 O973 1.249 . S
C988 C981 1.492 . S
C989 H954 0.931 . S
C989 C967 1.420 . S
C989 C990 1.351 . S
C990 H952 0.930 1_565 S
C990 C958 1.423 . S
C990 C989 1.351 . S
C991 O975 1.276 . S
C991 O978 1.235 . S
C992 C993 1.393 . S
C992 C996 1.395 . S
C992 C999 1.492 . S
C993 C992 1.393 . S
C993 C994 1.392 . S
C993 H1004 0.930 . S
C994 C993 1.392 . S
C994 C995 1.386 . S
C995 C994 1.386 . S
C995 C997 1.395 . S
C995 H1005 0.930 . S
C996 C992 1.395 . S
C996 C997 1.379 . S
C996 H1006 0.930 . S
C997 C995 1.395 . S
C997 C996 1.379 . S
C997 H1007 0.930 . S
C998 O976 1.264 . S
C998 O977 1.254 . S
C999 Eu935 2.848 . S
C999 O974 1.257 . S
C999 O979 1.249 . S
C999 C992 1.492 . S
H1000 C983 0.930 . S
H1001 C984 0.930 . S
H1002 C985 0.930 . S
H1003 C986 0.930 . S
H1004 C993 0.930 . S
H1005 C995 0.930 . S
H1006 C996 0.930 . S
H1007 C997 0.930 . S
H1008 C1016 0.929 . S
H1009 C1018 0.930 . S
H1010 C1020 0.930 . S
H1011 C1023 0.929 . S
H1012 C1026 0.930 . S
H1013 C1028 0.960 . S
H1014 C1028 0.960 . S
H1015 C1028 0.960 . S
C1016 H1008 0.929 . S
C1016 C1017 1.377 . S
C1016 C1018 1.384 . S
C1017 C1016 1.377 . S
C1017 C1023 1.390 . S
C1018 H1009 0.930 . S
C1018 C1016 1.384 . S
C1018 C1019 1.372 . S
C1019 C1018 1.372 . S
C1019 C1020 1.400 . S
C1019 C1024 1.490 . S
C1020 H1010 0.930 . S
C1020 C1019 1.400 . S
C1020 C1023 1.386 . S
H1021 C1037 0.930 . S
H1022 C1038 0.931 . S
C1023 H1011 0.929 . S
C1023 C1017 1.390 . S
C1023 C1020 1.386 . S
C1024 C1019 1.490 . S
C1024 C1026 1.395 . S
C1024 C1027 1.403 . S
H1025 C1031 0.930 . S
C1026 H1012 0.930 . S
C1026 C1024 1.395 . S
C1026 C1029 1.403 . S
C1027 C1024 1.403 . S
C1027 C1028 1.524 . S
C1027 C1031 1.400 . S
C1028 H1013 0.960 . S
C1028 H1014 0.960 . S
C1028 H1015 0.960 . S
C1028 C1027 1.524 . S
C1029 C1026 1.403 . S
C1029 C1030 1.392 . S
C1029 C1033 1.495 . S
C1030 C1029 1.392 . S
C1030 C1031 1.385 . S
C1030 C1032 1.478 . S
C1031 H1025 0.930 . S
C1031 C1027 1.400 . S
C1031 C1030 1.385 . S
C1032 C1030 1.478 . S
C1032 C1034 1.381 . S
C1032 C1038 1.383 . S
C1033 C1029 1.495 . S
C1033 H1039 0.959 . S
C1033 H1040 0.961 . S
C1033 H1041 0.960 . S
C1034 C1032 1.381 . S
C1034 C1035 1.394 . S
C1034 H1042 0.930 . S
C1035 C1034 1.394 . S
C1035 C1036 1.383 . S
C1035 H1043 0.929 . S
C1036 C1035 1.383 . S
C1036 C1037 1.377 . S
C1037 H1021 0.930 . S
C1037 C1036 1.377 . S
C1037 C1038 1.379 . S
C1038 H1022 0.931 . S
C1038 C1032 1.383 . S
C1038 C1037 1.379 . S
H1039 C1033 0.959 . S
H1040 C1033 0.961 . S
H1041 C1033 0.960 . S
H1042 C1034 0.930 . S
H1043 C1035 0.929 . S
H1044 C1052 0.929 . S
H1045 C1054 0.930 . S
H1046 C1056 0.930 . S
H1047 C1059 0.929 . S
H1048 C1062 0.930 . S
H1049 C1064 0.960 . S
H1050 C1064 0.960 . S
H1051 C1064 0.960 . S
C1052 H1044 0.929 . S
C1052 C1053 1.377 . S
C1052 C1054 1.384 . S
C1053 C1052 1.377 . S
C1053 C1059 1.390 . S
C1054 H1045 0.930 . S
C1054 C1052 1.384 . S
C1054 C1055 1.372 . S
C1055 C1054 1.372 . S
C1055 C1056 1.400 . S
C1055 C1060 1.490 . S
C1056 H1046 0.930 . S
C1056 C1055 1.400 . S
C1056 C1059 1.386 . S
H1057 C1073 0.930 . S
H1058 C1074 0.931 . S
C1059 H1047 0.929 . S
C1059 C1053 1.390 . S
C1059 C1056 1.386 . S
C1060 C1055 1.490 . S
C1060 C1062 1.395 . S
C1060 C1063 1.403 . S
H1061 C1067 0.930 . S
C1062 H1048 0.930 . S
C1062 C1060 1.395 . S
C1062 C1065 1.403 1_455 S
C1063 C1060 1.403 . S
C1063 C1064 1.524 . S
C1063 C1067 1.400 . S
C1064 H1049 0.960 . S
C1064 H1050 0.960 . S
C1064 H1051 0.960 . S
C1064 C1063 1.524 . S
C1065 C1062 1.403 1_655 S
C1065 C1066 1.392 . S
C1065 C1069 1.495 . S
C1066 C1065 1.392 . S
C1066 C1067 1.385 1_655 S
C1066 C1068 1.478 . S
C1067 H1061 0.930 . S
C1067 C1063 1.400 . S
C1067 C1066 1.385 1_455 S
C1068 C1066 1.478 . S
C1068 C1070 1.381 . S
C1068 C1074 1.383 . S
C1069 C1065 1.495 . S
C1069 H1075 0.959 . S
C1069 H1076 0.961 . S
C1069 H1077 0.960 . S
C1070 C1068 1.381 . S
C1070 C1071 1.394 . S
C1070 H1078 0.930 . S
C1071 C1070 1.394 . S
C1071 C1072 1.383 . S
C1071 H1079 0.929 . S
C1072 C1071 1.383 . S
C1072 C1073 1.377 . S
C1073 H1057 0.930 . S
C1073 C1072 1.377 . S
C1073 C1074 1.379 . S
C1074 H1058 0.931 . S
C1074 C1068 1.383 . S
C1074 C1073 1.379 . S
H1075 C1069 0.959 . S
H1076 C1069 0.961 . S
H1077 C1069 0.960 . S
H1078 C1070 0.930 . S
H1079 C1071 0.929 . S
H1080 C1088 0.929 . S
H1081 C1090 0.930 . S
H1082 C1092 0.930 . S
H1083 C1095 0.929 . S
H1084 C1098 0.930 . S
H1085 C1100 0.960 . S
H1086 C1100 0.960 . S
H1087 C1100 0.960 1_545 S
C1088 H1080 0.929 . S
C1088 C1089 1.377 . S
C1088 C1090 1.384 . S
C1089 C1088 1.377 . S
C1089 C1095 1.390 . S
C1090 H1081 0.930 . S
C1090 C1088 1.384 . S
C1090 C1091 1.372 . S
C1091 C1090 1.372 . S
C1091 C1092 1.400 . S
C1091 C1096 1.490 . S
C1092 H1082 0.930 . S
C1092 C1091 1.400 . S
C1092 C1095 1.386 . S
H1093 C1109 0.930 . S
H1094 C1110 0.931 . S
C1095 H1083 0.929 . S
C1095 C1089 1.390 . S
C1095 C1092 1.386 . S
C1096 C1091 1.490 . S
C1096 C1098 1.395 . S
C1096 C1099 1.403 1_545 S
H1097 C1103 0.930 . S
C1098 H1084 0.930 . S
C1098 C1096 1.395 . S
C1098 C1101 1.403 1_545 S
C1099 C1096 1.403 1_565 S
C1099 C1100 1.524 . S
C1099 C1103 1.400 . S
C1100 H1085 0.960 . S
C1100 H1086 0.960 . S
C1100 H1087 0.960 1_565 S
C1100 C1099 1.524 . S
C1101 C1098 1.403 1_565 S
C1101 C1102 1.392 . S
C1101 C1105 1.495 . S
C1102 C1101 1.392 . S
C1102 C1103 1.385 . S
C1102 C1104 1.478 . S
C1103 H1097 0.930 . S
C1103 C1099 1.400 . S
C1103 C1102 1.385 . S
C1104 C1102 1.478 . S
C1104 C1106 1.381 . S
C1104 C1110 1.383 . S
C1105 C1101 1.495 . S
C1105 H1111 0.959 . S
C1105 H1112 0.961 . S
C1105 H1113 0.960 . S
C1106 C1104 1.381 . S
C1106 C1107 1.394 . S
C1106 H1114 0.930 . S
C1107 C1106 1.394 . S
C1107 C1108 1.383 . S
C1107 H1115 0.929 . S
C1108 C1107 1.383 . S
C1108 C1109 1.377 . S
C1109 H1093 0.930 . S
C1109 C1108 1.377 . S
C1109 C1110 1.379 . S
C1110 H1094 0.931 . S
C1110 C1104 1.383 . S
C1110 C1109 1.379 . S
H1111 C1105 0.959 . S
H1112 C1105 0.961 . S
H1113 C1105 0.960 . S
H1114 C1106 0.930 . S
H1115 C1107 0.929 . S
H1116 C1124 0.929 . S
H1117 C1126 0.930 . S
H1118 C1128 0.930 . S
H1119 C1131 0.929 . S
H1120 C1134 0.930 . S
H1121 C1136 0.960 . S
H1122 C1136 0.960 . S
H1123 C1136 0.960 . S
C1124 H1116 0.929 . S
C1124 C1125 1.377 . S
C1124 C1126 1.384 . S
C1125 C1124 1.377 . S
C1125 C1131 1.390 . S
C1126 H1117 0.930 . S
C1126 C1124 1.384 . S
C1126 C1127 1.372 . S
C1127 C1126 1.372 . S
C1127 C1128 1.400 . S
C1127 C1132 1.490 . S
C1128 H1118 0.930 . S
C1128 C1127 1.400 . S
C1128 C1131 1.386 . S
H1129 C1145 0.930 . S
H1130 C1146 0.931 . S
C1131 H1119 0.929 . S
C1131 C1125 1.390 . S
C1131 C1128 1.386 . S
C1132 C1127 1.490 . S
C1132 C1134 1.395 . S
C1132 C1135 1.403 . S
H1133 C1139 0.930 . S
C1134 H1120 0.930 . S
C1134 C1132 1.395 . S
C1134 C1137 1.403 . S
C1135 C1132 1.403 . S
C1135 C1136 1.524 . S
C1135 C1139 1.400 . S
C1136 H1121 0.960 . S
C1136 H1122 0.960 . S
C1136 H1123 0.960 . S
C1136 C1135 1.524 . S
C1137 C1134 1.403 . S
C1137 C1138 1.392 . S
C1137 C1141 1.495 . S
C1138 C1137 1.392 . S
C1138 C1139 1.385 . S
C1138 C1140 1.478 . S
C1139 H1133 0.930 . S
C1139 C1135 1.400 . S
C1139 C1138 1.385 . S
C1140 C1138 1.478 . S
C1140 C1142 1.381 . S
C1140 C1146 1.383 . S
C1141 C1137 1.495 . S
C1141 H1147 0.959 . S
C1141 H1148 0.961 . S
C1141 H1149 0.960 . S
C1142 C1140 1.381 . S
C1142 C1143 1.394 . S
C1142 H1150 0.930 . S
C1143 C1142 1.394 . S
C1143 C1144 1.383 . S
C1143 H1151 0.929 . S
C1144 C1143 1.383 . S
C1144 C1145 1.377 . S
C1145 H1129 0.930 . S
C1145 C1144 1.377 . S
C1145 C1146 1.379 . S
C1146 H1130 0.931 . S
C1146 C1140 1.383 . S
C1146 C1145 1.379 . S
H1147 C1141 0.959 . S
H1148 C1141 0.961 . S
H1149 C1141 0.960 . S
H1150 C1142 0.930 . S
H1151 C1143 0.929 . S
H1152 C1160 0.929 . S
H1153 C1162 0.930 . S
H1154 C1164 0.930 . S
H1155 C1167 0.929 . S
H1156 C1170 0.930 . S
H1157 C1172 0.960 . S
H1158 C1172 0.960 . S
H1159 C1172 0.960 . S
C1160 H1152 0.929 . S
C1160 C1161 1.377 . S
C1160 C1162 1.384 . S
C1161 C1160 1.377 . S
C1161 C1167 1.390 . S
C1162 H1153 0.930 . S
C1162 C1160 1.384 . S
C1162 C1163 1.372 . S
C1163 C1162 1.372 . S
C1163 C1164 1.400 . S
C1163 C1168 1.490 . S
C1164 H1154 0.930 . S
C1164 C1163 1.400 . S
C1164 C1167 1.386 . S
H1165 C1181 0.930 . S
H1166 C1182 0.931 . S
C1167 H1155 0.929 . S
C1167 C1161 1.390 . S
C1167 C1164 1.386 . S
C1168 C1163 1.490 . S
C1168 C1170 1.395 . S
C1168 C1171 1.403 . S
H1169 C1175 0.930 . S
C1170 H1156 0.930 . S
C1170 C1168 1.395 . S
C1170 C1173 1.403 . S
C1171 C1168 1.403 . S
C1171 C1172 1.524 . S
C1171 C1175 1.400 1_455 S
C1172 H1157 0.960 . S
C1172 H1158 0.960 . S
C1172 H1159 0.960 . S
C1172 C1171 1.524 . S
C1173 C1170 1.403 . S
C1173 C1174 1.392 1_455 S
C1173 C1177 1.495 . S
C1174 C1173 1.392 1_655 S
C1174 C1175 1.385 . S
C1174 C1176 1.478 . S
C1175 H1169 0.930 . S
C1175 C1171 1.400 1_655 S
C1175 C1174 1.385 . S
C1176 C1174 1.478 . S
C1176 C1178 1.381 . S
C1176 C1182 1.383 . S
C1177 C1173 1.495 . S
C1177 H1183 0.959 . S
C1177 H1184 0.961 . S
C1177 H1185 0.960 . S
C1178 C1176 1.381 . S
C1178 C1179 1.394 . S
C1178 H1186 0.930 . S
C1179 C1178 1.394 . S
C1179 C1180 1.383 . S
C1179 H1187 0.929 . S
C1180 C1179 1.383 . S
C1180 C1181 1.377 . S
C1181 H1165 0.930 . S
C1181 C1180 1.377 . S
C1181 C1182 1.379 . S
C1182 H1166 0.931 . S
C1182 C1176 1.383 . S
C1182 C1181 1.379 . S
H1183 C1177 0.959 . S
H1184 C1177 0.961 . S
H1185 C1177 0.960 . S
H1186 C1178 0.930 . S
H1187 C1179 0.929 . S
H1188 C1196 0.929 . S
H1189 C1198 0.930 . S
H1190 C1200 0.930 . S
H1191 C1203 0.929 . S
H1192 C1206 0.930 . S
H1193 C1208 0.960 . S
H1194 C1208 0.960 . S
H1195 C1208 0.960 . S
C1196 H1188 0.929 . S
C1196 C1197 1.377 . S
C1196 C1198 1.384 . S
C1197 C1196 1.377 . S
C1197 C1203 1.390 . S
C1198 H1189 0.930 . S
C1198 C1196 1.384 . S
C1198 C1199 1.372 . S
C1199 C1198 1.372 . S
C1199 C1200 1.400 . S
C1199 C1204 1.490 . S
C1200 H1190 0.930 . S
C1200 C1199 1.400 . S
C1200 C1203 1.386 . S
H1201 C1217 0.930 . S
H1202 C1218 0.931 . S
C1203 H1191 0.929 . S
C1203 C1197 1.390 . S
C1203 C1200 1.386 . S
C1204 C1199 1.490 . S
C1204 C1206 1.395 . S
C1204 C1207 1.403 . S
H1205 C1211 0.930 . S
C1206 H1192 0.930 . S
C1206 C1204 1.395 . S
C1206 C1209 1.403 1_565 S
C1207 C1204 1.403 . S
C1207 C1208 1.524 . S
C1207 C1211 1.400 . S
C1208 H1193 0.960 . S
C1208 H1194 0.960 . S
C1208 H1195 0.960 . S
C1208 C1207 1.524 . S
C1209 C1206 1.403 1_545 S
C1209 C1210 1.392 . S
C1209 C1213 1.495 . S
C1210 C1209 1.392 . S
C1210 C1211 1.385 1_545 S
C1210 C1212 1.478 . S
C1211 H1205 0.930 . S
C1211 C1207 1.400 . S
C1211 C1210 1.385 1_565 S
C1212 C1210 1.478 . S
C1212 C1214 1.381 . S
C1212 C1218 1.383 . S
C1213 C1209 1.495 . S
C1213 H1219 0.959 . S
C1213 H1220 0.961 . S
C1213 H1221 0.960 . S
C1214 C1212 1.381 . S
C1214 C1215 1.394 . S
C1214 H1222 0.930 . S
C1215 C1214 1.394 . S
C1215 C1216 1.383 . S
C1215 H1223 0.929 . S
C1216 C1215 1.383 . S
C1216 C1217 1.377 . S
C1217 H1201 0.930 . S
C1217 C1216 1.377 . S
C1217 C1218 1.379 . S
C1218 H1202 0.931 . S
C1218 C1212 1.383 . S
C1218 C1217 1.379 . S
H1219 C1213 0.959 . S
H1220 C1213 0.961 . S
H1221 C1213 0.960 . S
H1222 C1214 0.930 . S
H1223 C1215 0.929 . S
H1224 C1232 0.929 . S
H1225 C1234 0.930 . S
H1226 C1236 0.930 . S
H1227 C1239 0.929 . S
H1228 C1242 0.930 . S
H1229 C1244 0.960 . S
H1230 C1244 0.960 . S
H1231 C1244 0.960 . S
C1232 H1224 0.929 . S
C1232 C1233 1.377 . S
C1232 C1234 1.384 . S
C1233 C1232 1.377 . S
C1233 C1239 1.390 . S
C1234 H1225 0.930 . S
C1234 C1232 1.384 . S
C1234 C1235 1.372 . S
C1235 C1234 1.372 . S
C1235 C1236 1.400 . S
C1235 C1240 1.490 . S
C1236 H1226 0.930 . S
C1236 C1235 1.400 . S
C1236 C1239 1.386 . S
H1237 C1253 0.930 . S
H1238 C1254 0.931 . S
C1239 H1227 0.929 . S
C1239 C1233 1.390 . S
C1239 C1236 1.386 . S
C1240 C1235 1.490 . S
C1240 C1242 1.395 . S
C1240 C1243 1.403 . S
H1241 C1247 0.930 . S
C1242 H1228 0.930 . S
C1242 C1240 1.395 . S
C1242 C1245 1.403 . S
C1243 C1240 1.403 . S
C1243 C1244 1.524 . S
C1243 C1247 1.400 . S
C1244 H1229 0.960 . S
C1244 H1230 0.960 . S
C1244 H1231 0.960 . S
C1244 C1243 1.524 . S
C1245 C1242 1.403 . S
C1245 C1246 1.392 . S
C1245 C1249 1.495 . S
C1246 C1245 1.392 . S
C1246 C1247 1.385 . S
C1246 C1248 1.478 . S
C1247 H1241 0.930 . S
C1247 C1243 1.400 . S
C1247 C1246 1.385 . S
C1248 C1246 1.478 . S
C1248 C1250 1.381 . S
C1248 C1254 1.383 . S
C1249 C1245 1.495 . S
C1249 H1255 0.959 . S
C1249 H1256 0.961 . S
C1249 H1257 0.960 . S
C1250 C1248 1.381 . S
C1250 C1251 1.394 . S
C1250 H1258 0.930 . S
C1251 C1250 1.394 . S
C1251 C1252 1.383 . S
C1251 H1259 0.929 . S
C1252 C1251 1.383 . S
C1252 C1253 1.377 . S
C1253 H1237 0.930 . S
C1253 C1252 1.377 . S
C1253 C1254 1.379 . S
C1254 H1238 0.931 . S
C1254 C1248 1.383 . S
C1254 C1253 1.379 . S
H1255 C1249 0.959 . S
H1256 C1249 0.961 . S
H1257 C1249 0.960 . S
H1258 C1250 0.930 . S
H1259 C1251 0.929 . S
H1260 C1268 0.929 . S
H1261 C1270 0.930 . S
H1262 C1272 0.930 . S
H1263 C1275 0.929 . S
H1264 C1278 0.930 . S
H1265 C1280 0.960 . S
H1266 C1280 0.960 . S
H1267 C1280 0.960 . S
C1268 H1260 0.929 . S
C1268 C1269 1.377 . S
C1268 C1270 1.384 . S
C1269 C1268 1.377 . S
C1269 C1275 1.390 . S
C1270 H1261 0.930 . S
C1270 C1268 1.384 . S
C1270 C1271 1.372 . S
C1271 C1270 1.372 . S
C1271 C1272 1.400 . S
C1271 C1276 1.490 . S
C1272 H1262 0.930 . S
C1272 C1271 1.400 . S
C1272 C1275 1.386 . S
H1273 C1289 0.930 . S
H1274 C1290 0.931 . S
C1275 H1263 0.929 . S
C1275 C1269 1.390 . S
C1275 C1272 1.386 . S
C1276 C1271 1.490 . S
C1276 C1278 1.395 1_455 S
C1276 C1279 1.403 1_455 S
H1277 C1283 0.930 . S
C1278 H1264 0.930 . S
C1278 C1276 1.395 1_655 S
C1278 C1281 1.403 . S
C1279 C1276 1.403 1_655 S
C1279 C1280 1.524 1_655 S
C1279 C1283 1.400 . S
C1280 H1265 0.960 . S
C1280 H1266 0.960 . S
C1280 H1267 0.960 . S
C1280 C1279 1.524 1_455 S
C1281 C1278 1.403 . S
C1281 C1282 1.392 . S
C1281 C1285 1.495 . S
C1282 C1281 1.392 . S
C1282 C1283 1.385 . S
C1282 C1284 1.478 . S
C1283 H1277 0.930 . S
C1283 C1279 1.400 . S
C1283 C1282 1.385 . S
C1284 C1282 1.478 . S
C1284 C1286 1.381 . S
C1284 C1290 1.383 . S
C1285 C1281 1.495 . S
C1285 H1291 0.959 . S
C1285 H1292 0.961 . S
C1285 H1293 0.960 . S
C1286 C1284 1.381 . S
C1286 C1287 1.394 . S
C1286 H1294 0.930 . S
C1287 C1286 1.394 . S
C1287 C1288 1.383 . S
C1287 H1295 0.929 . S
C1288 C1287 1.383 . S
C1288 C1289 1.377 . S
C1289 H1273 0.930 . S
C1289 C1288 1.377 . S
C1289 C1290 1.379 . S
C1290 H1274 0.931 . S
C1290 C1284 1.383 . S
C1290 C1289 1.379 . S
H1291 C1285 0.959 . S
H1292 C1285 0.961 . S
H1293 C1285 0.960 . S
H1294 C1286 0.930 . S
H1295 C1287 0.929 . S
H1296 C1304 0.929 . S
H1297 C1306 0.930 . S
H1298 C1308 0.930 . S
H1299 C1311 0.929 . S
H1300 C1314 0.930 . S
H1301 C1316 0.960 . S
H1302 C1316 0.960 1_565 S
H1303 C1316 0.960 . S
C1304 H1296 0.929 . S
C1304 C1305 1.377 . S
C1304 C1306 1.384 . S
C1305 C1304 1.377 . S
C1305 C1311 1.390 . S
C1306 H1297 0.930 . S
C1306 C1304 1.384 . S
C1306 C1307 1.372 . S
C1307 C1306 1.372 . S
C1307 C1308 1.400 . S
C1307 C1312 1.490 . S
C1308 H1298 0.930 . S
C1308 C1307 1.400 . S
C1308 C1311 1.386 . S
H1309 C1325 0.930 . S
H1310 C1326 0.931 . S
C1311 H1299 0.929 . S
C1311 C1305 1.390 . S
C1311 C1308 1.386 . S
C1312 C1307 1.490 . S
C1312 C1314 1.395 . S
C1312 C1315 1.403 1_565 S
H1313 C1319 0.930 . S
C1314 H1300 0.930 . S
C1314 C1312 1.395 . S
C1314 C1317 1.403 1_565 S
C1315 C1312 1.403 1_545 S
C1315 C1316 1.524 . S
C1315 C1319 1.400 . S
C1316 H1301 0.960 . S
C1316 H1302 0.960 1_545 S
C1316 H1303 0.960 . S
C1316 C1315 1.524 . S
C1317 C1314 1.403 1_545 S
C1317 C1318 1.392 . S
C1317 C1321 1.495 . S
C1318 C1317 1.392 . S
C1318 C1319 1.385 . S
C1318 C1320 1.478 . S
C1319 H1313 0.930 . S
C1319 C1315 1.400 . S
C1319 C1318 1.385 . S
C1320 C1318 1.478 . S
C1320 C1322 1.381 . S
C1320 C1326 1.383 . S
C1321 C1317 1.495 . S
C1321 H1327 0.959 . S
C1321 H1328 0.961 . S
C1321 H1329 0.960 . S
C1322 C1320 1.381 . S
C1322 C1323 1.394 . S
C1322 H1330 0.930 . S
C1323 C1322 1.394 . S
C1323 C1324 1.383 . S
C1323 H1331 0.929 . S
C1324 C1323 1.383 . S
C1324 C1325 1.377 . S
C1325 H1309 0.930 . S
C1325 C1324 1.377 . S
C1325 C1326 1.379 . S
C1326 H1310 0.931 . S
C1326 C1320 1.383 . S
C1326 C1325 1.379 . S
H1327 C1321 0.959 . S
H1328 C1321 0.961 . S
H1329 C1321 0.960 . S
H1330 C1322 0.930 . S
H1331 C1323 0.929 . S
H1332 C1340 0.929 . S
H1333 C1342 0.930 . S
H1334 C1344 0.930 . S
H1335 C1347 0.929 . S
H1336 C1350 0.930 . S
H1337 C1352 0.960 . S
H1338 C1352 0.960 . S
H1339 C1352 0.960 . S
C1340 H1332 0.929 . S
C1340 C1341 1.377 . S
C1340 C1342 1.384 . S
C1341 C1340 1.377 . S
C1341 C1347 1.390 . S
C1342 H1333 0.930 . S
C1342 C1340 1.384 . S
C1342 C1343 1.372 . S
C1343 C1342 1.372 . S
C1343 C1344 1.400 . S
C1343 C1348 1.490 . S
C1344 H1334 0.930 . S
C1344 C1343 1.400 . S
C1344 C1347 1.386 . S
H1345 C1361 0.930 . S
H1346 C1362 0.931 . S
C1347 H1335 0.929 . S
C1347 C1341 1.390 . S
C1347 C1344 1.386 . S
C1348 C1343 1.490 . S
C1348 C1350 1.395 . S
C1348 C1351 1.403 . S
H1349 C1355 0.930 . S
C1350 H1336 0.930 . S
C1350 C1348 1.395 . S
C1350 C1353 1.403 . S
C1351 C1348 1.403 . S
C1351 C1352 1.524 . S
C1351 C1355 1.400 . S
C1352 H1337 0.960 . S
C1352 H1338 0.960 . S
C1352 H1339 0.960 . S
C1352 C1351 1.524 . S
C1353 C1350 1.403 . S
C1353 C1354 1.392 . S
C1353 C1357 1.495 . S
C1354 C1353 1.392 . S
C1354 C1355 1.385 . S
C1354 C1356 1.478 . S
C1355 H1349 0.930 . S
C1355 C1351 1.400 . S
C1355 C1354 1.385 . S
C1356 C1354 1.478 . S
C1356 C1358 1.381 . S
C1356 C1362 1.383 . S
C1357 C1353 1.495 . S
C1357 H1363 0.959 . S
C1357 H1364 0.961 . S
C1357 H1365 0.960 . S
C1358 C1356 1.381 . S
C1358 C1359 1.394 . S
C1358 H1366 0.930 . S
C1359 C1358 1.394 . S
C1359 C1360 1.383 . S
C1359 H1367 0.929 . S
C1360 C1359 1.383 . S
C1360 C1361 1.377 . S
C1361 H1345 0.930 . S
C1361 C1360 1.377 . S
C1361 C1362 1.379 . S
C1362 H1346 0.931 . S
C1362 C1356 1.383 . S
C1362 C1361 1.379 . S
H1363 C1357 0.959 . S
H1364 C1357 0.961 . S
H1365 C1357 0.960 . S
H1366 C1358 0.930 . S
H1367 C1359 0.929 . S
H1368 C1376 0.929 . S
H1369 C1378 0.930 . S
H1370 C1380 0.930 . S
H1371 C1383 0.929 . S
H1372 C1386 0.930 . S
H1373 C1388 0.960 . S
H1374 C1388 0.960 . S
H1375 C1388 0.960 . S
C1376 H1368 0.929 . S
C1376 C1377 1.377 . S
C1376 C1378 1.384 . S
C1377 C1376 1.377 . S
C1377 C1383 1.390 . S
C1378 H1369 0.930 . S
C1378 C1376 1.384 . S
C1378 C1379 1.372 . S
C1379 C1378 1.372 . S
C1379 C1380 1.400 . S
C1379 C1384 1.490 . S
C1380 H1370 0.930 . S
C1380 C1379 1.400 . S
C1380 C1383 1.386 . S
H1381 C1397 0.930 . S
H1382 C1398 0.931 . S
C1383 H1371 0.929 . S
C1383 C1377 1.390 . S
C1383 C1380 1.386 . S
C1384 C1379 1.490 . S
C1384 C1386 1.395 1_455 S
C1384 C1387 1.403 . S
H1385 C1391 0.930 . S
C1386 H1372 0.930 . S
C1386 C1384 1.395 1_655 S
C1386 C1389 1.403 . S
C1387 C1384 1.403 . S
C1387 C1388 1.524 . S
C1387 C1391 1.400 1_455 S
C1388 H1373 0.960 . S
C1388 H1374 0.960 . S
C1388 H1375 0.960 . S
C1388 C1387 1.524 . S
C1389 C1386 1.403 . S
C1389 C1390 1.392 . S
C1389 C1393 1.495 . S
C1390 C1389 1.392 . S
C1390 C1391 1.385 . S
C1390 C1392 1.478 . S
C1391 H1385 0.930 . S
C1391 C1387 1.400 1_655 S
C1391 C1390 1.385 . S
C1392 C1390 1.478 . S
C1392 C1394 1.381 . S
C1392 C1398 1.383 . S
C1393 C1389 1.495 . S
C1393 H1399 0.959 . S
C1393 H1400 0.961 . S
C1393 H1401 0.960 . S
C1394 C1392 1.381 . S
C1394 C1395 1.394 . S
C1394 H1402 0.930 . S
C1395 C1394 1.394 . S
C1395 C1396 1.383 . S
C1395 H1403 0.929 . S
C1396 C1395 1.383 . S
C1396 C1397 1.377 . S
C1397 H1381 0.930 . S
C1397 C1396 1.377 . S
C1397 C1398 1.379 . S
C1398 H1382 0.931 . S
C1398 C1392 1.383 . S
C1398 C1397 1.379 . S
H1399 C1393 0.959 . S
H1400 C1393 0.961 . S
H1401 C1393 0.960 . S
H1402 C1394 0.930 . S
H1403 C1395 0.929 . S
H1404 C1412 0.929 . S
H1405 C1414 0.930 . S
H1406 C1416 0.930 . S
H1407 C1419 0.929 . S
H1408 C1422 0.930 . S
H1409 C1424 0.960 . S
H1410 C1424 0.960 . S
H1411 C1424 0.960 . S
C1412 H1404 0.929 . S
C1412 C1413 1.377 . S
C1412 C1414 1.384 . S
C1413 C1412 1.377 . S
C1413 C1419 1.390 . S
C1414 H1405 0.930 . S
C1414 C1412 1.384 . S
C1414 C1415 1.372 . S
C1415 C1414 1.372 . S
C1415 C1416 1.400 . S
C1415 C1420 1.490 . S
C1416 H1406 0.930 . S
C1416 C1415 1.400 . S
C1416 C1419 1.386 . S
H1417 C1433 0.930 . S
H1418 C1434 0.931 . S
C1419 H1407 0.929 . S
C1419 C1413 1.390 . S
C1419 C1416 1.386 . S
C1420 C1415 1.490 . S
C1420 C1422 1.395 . S
C1420 C1423 1.403 . S
H1421 C1427 0.930 1_565 S
C1422 H1408 0.930 . S
C1422 C1420 1.395 . S
C1422 C1425 1.403 . S
C1423 C1420 1.403 . S
C1423 C1424 1.524 . S
C1423 C1427 1.400 . S
C1424 H1409 0.960 . S
C1424 H1410 0.960 . S
C1424 H1411 0.960 . S
C1424 C1423 1.524 . S
C1425 C1422 1.403 . S
C1425 C1426 1.392 1_545 S
C1425 C1429 1.495 . S
C1426 C1425 1.392 1_565 S
C1426 C1427 1.385 1_565 S
C1426 C1428 1.478 . S
C1427 H1421 0.930 1_545 S
C1427 C1423 1.400 . S
C1427 C1426 1.385 1_545 S
C1428 C1426 1.478 . S
C1428 C1430 1.381 . S
C1428 C1434 1.383 . S
C1429 C1425 1.495 . S
C1429 H1435 0.959 . S
C1429 H1436 0.961 1_545 S
C1429 H1437 0.960 1_545 S
C1430 C1428 1.381 . S
C1430 C1431 1.394 . S
C1430 H1438 0.930 . S
C1431 C1430 1.394 . S
C1431 C1432 1.383 . S
C1431 H1439 0.929 . S
C1432 C1431 1.383 . S
C1432 C1433 1.377 . S
C1433 H1417 0.930 . S
C1433 C1432 1.377 . S
C1433 C1434 1.379 . S
C1434 H1418 0.931 . S
C1434 C1428 1.383 . S
C1434 C1433 1.379 . S
H1435 C1429 0.959 . S
H1436 C1429 0.961 1_565 S
H1437 C1429 0.960 1_565 S
H1438 C1430 0.930 . S
H1439 C1431 0.929 . S
H1440 C1448 0.929 . S
H1441 C1450 0.930 . S
H1442 C1452 0.930 . S
H1443 C1455 0.929 . S
H1444 C1458 0.930 . S
H1445 C1460 0.960 . S
H1446 C1460 0.960 . S
H1447 C1460 0.960 . S
C1448 H1440 0.929 . S
C1448 C1449 1.377 . S
C1448 C1450 1.384 . S
C1449 C1448 1.377 . S
C1449 C1455 1.390 . S
C1450 H1441 0.930 . S
C1450 C1448 1.384 . S
C1450 C1451 1.372 . S
C1451 C1450 1.372 . S
C1451 C1452 1.400 . S
C1451 C1456 1.490 . S
C1452 H1442 0.930 . S
C1452 C1451 1.400 . S
C1452 C1455 1.386 . S
H1453 C1469 0.930 . S
H1454 C1470 0.931 . S
C1455 H1443 0.929 . S
C1455 C1449 1.390 . S
C1455 C1452 1.386 . S
C1456 C1451 1.490 . S
C1456 C1458 1.395 . S
C1456 C1459 1.403 . S
H1457 C1463 0.930 . S
C1458 H1444 0.930 . S
C1458 C1456 1.395 . S
C1458 C1461 1.403 . S
C1459 C1456 1.403 . S
C1459 C1460 1.524 . S
C1459 C1463 1.400 . S
C1460 H1445 0.960 . S
C1460 H1446 0.960 . S
C1460 H1447 0.960 . S
C1460 C1459 1.524 . S
C1461 C1458 1.403 . S
C1461 C1462 1.392 . S
C1461 C1465 1.495 . S
C1462 C1461 1.392 . S
C1462 C1463 1.385 . S
C1462 C1464 1.478 . S
C1463 H1457 0.930 . S
C1463 C1459 1.400 . S
C1463 C1462 1.385 . S
C1464 C1462 1.478 . S
C1464 C1466 1.381 . S
C1464 C1470 1.383 . S
C1465 C1461 1.495 . S
C1465 H1471 0.959 . S
C1465 H1472 0.961 . S
C1465 H1473 0.960 . S
C1466 C1464 1.381 . S
C1466 C1467 1.394 . S
C1466 H1474 0.930 . S
C1467 C1466 1.394 . S
C1467 C1468 1.383 . S
C1467 H1475 0.929 . S
C1468 C1467 1.383 . S
C1468 C1469 1.377 . S
C1469 H1453 0.930 . S
C1469 C1468 1.377 . S
C1469 C1470 1.379 . S
C1470 H1454 0.931 . S
C1470 C1464 1.383 . S
C1470 C1469 1.379 . S
H1471 C1465 0.959 . S
H1472 C1465 0.961 . S
H1473 C1465 0.960 . S
H1474 C1466 0.930 . S
H1475 C1467 0.929 . S
H1476 C1484 0.929 . S
H1477 C1486 0.930 . S
H1478 C1488 0.930 . S
H1479 C1491 0.929 . S
H1480 C1494 0.930 . S
H1481 C1496 0.960 . S
H1482 C1496 0.960 . S
H1483 C1496 0.960 . S
C1484 H1476 0.929 . S
C1484 C1485 1.377 . S
C1484 C1486 1.384 . S
C1485 C1484 1.377 . S
C1485 C1491 1.390 . S
C1486 H1477 0.930 . S
C1486 C1484 1.384 . S
C1486 C1487 1.372 . S
C1487 C1486 1.372 . S
C1487 C1488 1.400 . S
C1487 C1492 1.490 . S
C1488 H1478 0.930 . S
C1488 C1487 1.400 . S
C1488 C1491 1.386 . S
H1489 C1505 0.930 . S
H1490 C1506 0.931 . S
C1491 H1479 0.929 . S
C1491 C1485 1.390 . S
C1491 C1488 1.386 . S
C1492 C1487 1.490 . S
C1492 C1494 1.395 . S
C1492 C1495 1.403 . S
H1493 C1499 0.930 . S
C1494 H1480 0.930 . S
C1494 C1492 1.395 . S
C1494 C1497 1.403 . S
C1495 C1492 1.403 . S
C1495 C1496 1.524 . S
C1495 C1499 1.400 . S
C1496 H1481 0.960 . S
C1496 H1482 0.960 . S
C1496 H1483 0.960 . S
C1496 C1495 1.524 . S
C1497 C1494 1.403 . S
C1497 C1498 1.392 . S
C1497 C1501 1.495 . S
C1498 C1497 1.392 . S
C1498 C1499 1.385 . S
C1498 C1500 1.478 . S
C1499 H1493 0.930 . S
C1499 C1495 1.400 . S
C1499 C1498 1.385 . S
C1500 C1498 1.478 . S
C1500 C1502 1.381 . S
C1500 C1506 1.383 . S
C1501 C1497 1.495 . S
C1501 H1507 0.959 . S
C1501 H1508 0.961 . S
C1501 H1509 0.960 . S
C1502 C1500 1.381 . S
C1502 C1503 1.394 . S
C1502 H1510 0.930 . S
C1503 C1502 1.394 . S
C1503 C1504 1.383 . S
C1503 H1511 0.929 . S
C1504 C1503 1.383 . S
C1504 C1505 1.377 . S
C1505 H1489 0.930 . S
C1505 C1504 1.377 . S
C1505 C1506 1.379 . S
C1506 H1490 0.931 . S
C1506 C1500 1.383 . S
C1506 C1505 1.379 . S
H1507 C1501 0.959 . S
H1508 C1501 0.961 . S
H1509 C1501 0.960 . S
H1510 C1502 0.930 . S
H1511 C1503 0.929 . S
H1512 C1520 0.929 . S
H1513 C1522 0.930 . S
H1514 C1524 0.930 . S
H1515 C1527 0.929 . S
H1516 C1530 0.930 . S
H1517 C1532 0.960 . S
H1518 C1532 0.960 . S
H1519 C1532 0.960 . S
C1520 H1512 0.929 . S
C1520 C1521 1.377 . S
C1520 C1522 1.384 . S
C1521 C1520 1.377 . S
C1521 C1527 1.390 . S
C1522 H1513 0.930 . S
C1522 C1520 1.384 . S
C1522 C1523 1.372 . S
C1523 C1522 1.372 . S
C1523 C1524 1.400 . S
C1523 C1528 1.490 . S
C1524 H1514 0.930 . S
C1524 C1523 1.400 . S
C1524 C1527 1.386 . S
H1525 C1541 0.930 . S
H1526 C1542 0.931 . S
C1527 H1515 0.929 . S
C1527 C1521 1.390 . S
C1527 C1524 1.386 . S
C1528 C1523 1.490 . S
C1528 C1530 1.395 . S
C1528 C1531 1.403 . S
H1529 C1535 0.930 . S
C1530 H1516 0.930 . S
C1530 C1528 1.395 . S
C1530 C1533 1.403 . S
C1531 C1528 1.403 . S
C1531 C1532 1.524 . S
C1531 C1535 1.400 . S
C1532 H1517 0.960 . S
C1532 H1518 0.960 . S
C1532 H1519 0.960 . S
C1532 C1531 1.524 . S
C1533 C1530 1.403 . S
C1533 C1534 1.392 . S
C1533 C1537 1.495 . S
C1534 C1533 1.392 . S
C1534 C1535 1.385 . S
C1534 C1536 1.478 . S
C1535 H1529 0.930 . S
C1535 C1531 1.400 . S
C1535 C1534 1.385 . S
C1536 C1534 1.478 . S
C1536 C1538 1.381 . S
C1536 C1542 1.383 . S
C1537 C1533 1.495 . S
C1537 H1543 0.959 . S
C1537 H1544 0.961 . S
C1537 H1545 0.960 . S
C1538 C1536 1.381 . S
C1538 C1539 1.394 . S
C1538 H1546 0.930 . S
C1539 C1538 1.394 . S
C1539 C1540 1.383 . S
C1539 H1547 0.929 . S
C1540 C1539 1.383 . S
C1540 C1541 1.377 . S
C1541 H1525 0.930 . S
C1541 C1540 1.377 . S
C1541 C1542 1.379 . S
C1542 H1526 0.931 . S
C1542 C1536 1.383 . S
C1542 C1541 1.379 . S
H1543 C1537 0.959 . S
H1544 C1537 0.961 . S
H1545 C1537 0.960 . S
H1546 C1538 0.930 . S
H1547 C1539 0.929 . S
H1548 C1556 0.929 . S
H1549 C1558 0.930 . S
H1550 C1560 0.930 . S
H1551 C1563 0.929 . S
H1552 C1566 0.930 . S
H1553 C1568 0.960 . S
H1554 C1568 0.960 . S
H1555 C1568 0.960 . S
C1556 H1548 0.929 . S
C1556 C1557 1.377 . S
C1556 C1558 1.384 . S
C1557 C1556 1.377 . S
C1557 C1563 1.390 . S
C1558 H1549 0.930 . S
C1558 C1556 1.384 . S
C1558 C1559 1.372 . S
C1559 C1558 1.372 . S
C1559 C1560 1.400 . S
C1559 C1564 1.490 . S
C1560 H1550 0.930 . S
C1560 C1559 1.400 . S
C1560 C1563 1.386 . S
H1561 C1577 0.930 . S
H1562 C1578 0.931 . S
C1563 H1551 0.929 . S
C1563 C1557 1.390 . S
C1563 C1560 1.386 . S
C1564 C1559 1.490 . S
C1564 C1566 1.395 . S
C1564 C1567 1.403 . S
H1565 C1571 0.930 . S
C1566 H1552 0.930 . S
C1566 C1564 1.395 . S
C1566 C1569 1.403 . S
C1567 C1564 1.403 . S
C1567 C1568 1.524 . S
C1567 C1571 1.400 . S
C1568 H1553 0.960 . S
C1568 H1554 0.960 . S
C1568 H1555 0.960 . S
C1568 C1567 1.524 . S
C1569 C1566 1.403 . S
C1569 C1570 1.392 . S
C1569 C1573 1.495 . S
C1570 C1569 1.392 . S
C1570 C1571 1.385 . S
C1570 C1572 1.478 . S
C1571 H1565 0.930 . S
C1571 C1567 1.400 . S
C1571 C1570 1.385 . S
C1572 C1570 1.478 . S
C1572 C1574 1.381 . S
C1572 C1578 1.383 . S
C1573 C1569 1.495 . S
C1573 H1579 0.959 . S
C1573 H1580 0.961 . S
C1573 H1581 0.960 . S
C1574 C1572 1.381 . S
C1574 C1575 1.394 . S
C1574 H1582 0.930 . S
C1575 C1574 1.394 . S
C1575 C1576 1.383 . S
C1575 H1583 0.929 . S
C1576 C1575 1.383 . S
C1576 C1577 1.377 . S
C1577 H1561 0.930 . S
C1577 C1576 1.377 . S
C1577 C1578 1.379 . S
C1578 H1562 0.931 . S
C1578 C1572 1.383 . S
C1578 C1577 1.379 . S
H1579 C1573 0.959 . S
H1580 C1573 0.961 . S
H1581 C1573 0.960 . S
H1582 C1574 0.930 . S
H1583 C1575 0.929 . S
H1584 C1592 0.929 . S
H1585 C1594 0.930 . S
H1586 C1596 0.930 . S
H1587 C1599 0.929 . S
H1588 C1602 0.930 . S
H1589 C1604 0.960 . S
H1590 C1604 0.960 . S
H1591 C1604 0.960 . S
C1592 H1584 0.929 . S
C1592 C1593 1.377 . S
C1592 C1594 1.384 . S
C1593 C1592 1.377 . S
C1593 C1599 1.390 . S
C1594 H1585 0.930 . S
C1594 C1592 1.384 . S
C1594 C1595 1.372 . S
C1595 C1594 1.372 . S
C1595 C1596 1.400 . S
C1595 C1600 1.490 . S
C1596 H1586 0.930 . S
C1596 C1595 1.400 . S
C1596 C1599 1.386 . S
H1597 C1613 0.930 . S
H1598 C1614 0.931 . S
C1599 H1587 0.929 . S
C1599 C1593 1.390 . S
C1599 C1596 1.386 . S
C1600 C1595 1.490 . S
C1600 C1602 1.395 . S
C1600 C1603 1.403 . S
H1601 C1607 0.930 . S
C1602 H1588 0.930 . S
C1602 C1600 1.395 . S
C1602 C1605 1.403 . S
C1603 C1600 1.403 . S
C1603 C1604 1.524 . S
C1603 C1607 1.400 . S
C1604 H1589 0.960 . S
C1604 H1590 0.960 . S
C1604 H1591 0.960 . S
C1604 C1603 1.524 . S
C1605 C1602 1.403 . S
C1605 C1606 1.392 . S
C1605 C1609 1.495 . S
C1606 C1605 1.392 . S
C1606 C1607 1.385 . S
C1606 C1608 1.478 . S
C1607 H1601 0.930 . S
C1607 C1603 1.400 . S
C1607 C1606 1.385 . S
C1608 C1606 1.478 . S
C1608 C1610 1.381 . S
C1608 C1614 1.383 . S
C1609 C1605 1.495 . S
C1609 H1615 0.959 . S
C1609 H1616 0.961 . S
C1609 H1617 0.960 . S
C1610 C1608 1.381 . S
C1610 C1611 1.394 . S
C1610 H1618 0.930 . S
C1611 C1610 1.394 . S
C1611 C1612 1.383 . S
C1611 H1619 0.929 . S
C1612 C1611 1.383 . S
C1612 C1613 1.377 . S
C1613 H1597 0.930 . S
C1613 C1612 1.377 . S
C1613 C1614 1.379 . S
C1614 H1598 0.931 . S
C1614 C1608 1.383 . S
C1614 C1613 1.379 . S
H1615 C1609 0.959 . S
H1616 C1609 0.961 . S
H1617 C1609 0.960 . S
H1618 C1610 0.930 . S
H1619 C1611 0.929 . S
H1620 C1628 0.929 . S
H1621 C1630 0.930 . S
H1622 C1632 0.930 . S
H1623 C1635 0.929 . S
H1624 C1638 0.930 . S
H1625 C1640 0.960 . S
H1626 C1640 0.960 . S
H1627 C1640 0.960 . S
C1628 H1620 0.929 . S
C1628 C1629 1.377 . S
C1628 C1630 1.384 . S
C1629 C1628 1.377 . S
C1629 C1635 1.390 . S
C1630 H1621 0.930 . S
C1630 C1628 1.384 . S
C1630 C1631 1.372 . S
C1631 C1630 1.372 . S
C1631 C1632 1.400 . S
C1631 C1636 1.490 . S
C1632 H1622 0.930 . S
C1632 C1631 1.400 . S
C1632 C1635 1.386 . S
H1633 C1649 0.930 . S
H1634 C1650 0.931 . S
C1635 H1623 0.929 . S
C1635 C1629 1.390 . S
C1635 C1632 1.386 . S
C1636 C1631 1.490 . S
C1636 C1638 1.395 . S
C1636 C1639 1.403 . S
H1637 C1643 0.930 . S
C1638 H1624 0.930 . S
C1638 C1636 1.395 . S
C1638 C1641 1.403 . S
C1639 C1636 1.403 . S
C1639 C1640 1.524 . S
C1639 C1643 1.400 . S
C1640 H1625 0.960 . S
C1640 H1626 0.960 . S
C1640 H1627 0.960 . S
C1640 C1639 1.524 . S
C1641 C1638 1.403 . S
C1641 C1642 1.392 . S
C1641 C1645 1.495 . S
C1642 C1641 1.392 . S
C1642 C1643 1.385 . S
C1642 C1644 1.478 . S
C1643 H1637 0.930 . S
C1643 C1639 1.400 . S
C1643 C1642 1.385 . S
C1644 C1642 1.478 . S
C1644 C1646 1.381 . S
C1644 C1650 1.383 . S
C1645 C1641 1.495 . S
C1645 H1651 0.959 . S
C1645 H1652 0.961 . S
C1645 H1653 0.960 . S
C1646 C1644 1.381 . S
C1646 C1647 1.394 . S
C1646 H1654 0.930 . S
C1647 C1646 1.394 . S
C1647 C1648 1.383 . S
C1647 H1655 0.929 . S
C1648 C1647 1.383 . S
C1648 C1649 1.377 . S
C1649 H1633 0.930 . S
C1649 C1648 1.377 . S
C1649 C1650 1.379 . S
C1650 H1634 0.931 . S
C1650 C1644 1.383 . S
C1650 C1649 1.379 . S
H1651 C1645 0.959 . S
H1652 C1645 0.961 . S
H1653 C1645 0.960 . S
H1654 C1646 0.930 . S
H1655 C1647 0.929 . S
H1656 C1664 0.929 . S
H1657 C1666 0.930 . S
H1658 C1668 0.930 . S
H1659 C1671 0.929 . S
H1660 C1674 0.930 . S
H1661 C1676 0.960 . S
H1662 C1676 0.960 . S
H1663 C1676 0.960 . S
C1664 H1656 0.929 . S
C1664 C1665 1.377 . S
C1664 C1666 1.384 . S
C1665 C1664 1.377 . S
C1665 C1671 1.390 . S
C1666 H1657 0.930 . S
C1666 C1664 1.384 . S
C1666 C1667 1.372 . S
C1667 C1666 1.372 . S
C1667 C1668 1.400 . S
C1667 C1672 1.490 . S
C1668 H1658 0.930 . S
C1668 C1667 1.400 . S
C1668 C1671 1.386 . S
H1669 C1685 0.930 . S
H1670 C1686 0.931 . S
C1671 H1659 0.929 . S
C1671 C1665 1.390 . S
C1671 C1668 1.386 . S
C1672 C1667 1.490 . S
C1672 C1674 1.395 1_565 S
C1672 C1675 1.403 1_556 S
H1673 C1679 0.930 . S
C1674 H1660 0.930 . S
C1674 C1672 1.395 1_545 S
C1674 C1677 1.403 . S
C1675 C1672 1.403 1_554 S
C1675 C1676 1.524 . S
C1675 C1679 1.398 . S
C1676 H1661 0.960 . S
C1676 H1662 0.960 . S
C1676 H1663 0.960 . S
C1676 C1675 1.524 . S
C1677 C1674 1.403 . S
C1677 C1678 1.392 1_556 S
C1677 C1681 1.495 . S
C1678 C1677 1.392 1_554 S
C1678 C1679 1.387 1_545 S
C1678 C1680 1.478 . S
C1679 H1673 0.930 . S
C1679 C1675 1.398 . S
C1679 C1678 1.387 1_565 S
C1680 C1678 1.478 . S
C1680 C1682 1.381 . S
C1680 C1686 1.383 . S
C1681 C1677 1.495 . S
C1681 H1687 0.959 . S
C1681 H1688 0.961 . S
C1681 H1689 0.960 . S
C1682 C1680 1.381 . S
C1682 C1683 1.394 . S
C1682 H1690 0.930 . S
C1683 C1682 1.394 . S
C1683 C1684 1.383 . S
C1683 H1691 0.929 . S
C1684 C1683 1.383 . S
C1684 C1685 1.377 . S
C1685 H1669 0.930 . S
C1685 C1684 1.377 . S
C1685 C1686 1.379 . S
C1686 H1670 0.931 . S
C1686 C1680 1.383 . S
C1686 C1685 1.379 . S
H1687 C1681 0.959 . S
H1688 C1681 0.961 . S
H1689 C1681 0.960 . S
H1690 C1682 0.930 . S
H1691 C1683 0.929 . S
H1692 C1700 0.929 . S
H1693 C1702 0.930 . S
H1694 C1704 0.930 . S
H1695 C1707 0.929 . S
H1696 C1710 0.930 . S
H1697 C1712 0.960 . S
H1698 C1712 0.960 . S
H1699 C1712 0.960 . S
C1700 H1692 0.929 . S
C1700 C1701 1.377 . S
C1700 C1702 1.384 . S
C1701 C1700 1.377 . S
C1701 C1707 1.390 . S
C1702 H1693 0.930 . S
C1702 C1700 1.384 . S
C1702 C1703 1.372 . S
C1703 C1702 1.372 . S
C1703 C1704 1.400 . S
C1703 C1708 1.490 . S
C1704 H1694 0.930 . S
C1704 C1703 1.400 . S
C1704 C1707 1.386 . S
H1705 C1721 0.930 . S
H1706 C1722 0.931 . S
C1707 H1695 0.929 . S
C1707 C1701 1.390 . S
C1707 C1704 1.386 . S
C1708 C1703 1.490 . S
C1708 C1710 1.395 . S
C1708 C1711 1.403 . S
H1709 C1715 0.930 . S
C1710 H1696 0.930 . S
C1710 C1708 1.395 . S
C1710 C1713 1.403 . S
C1711 C1708 1.403 . S
C1711 C1712 1.524 . S
C1711 C1715 1.400 . S
C1712 H1697 0.960 . S
C1712 H1698 0.960 . S
C1712 H1699 0.960 . S
C1712 C1711 1.524 . S
C1713 C1710 1.403 . S
C1713 C1714 1.392 . S
C1713 C1717 1.495 . S
C1714 C1713 1.392 . S
C1714 C1715 1.385 . S
C1714 C1716 1.478 . S
C1715 H1709 0.930 . S
C1715 C1711 1.400 . S
C1715 C1714 1.385 . S
C1716 C1714 1.478 . S
C1716 C1718 1.381 . S
C1716 C1722 1.383 . S
C1717 C1713 1.495 . S
C1717 H1723 0.959 . S
C1717 H1724 0.961 . S
C1717 H1725 0.960 . S
C1718 C1716 1.381 . S
C1718 C1719 1.394 . S
C1718 H1726 0.930 . S
C1719 C1718 1.394 . S
C1719 C1720 1.383 . S
C1719 H1727 0.929 . S
C1720 C1719 1.383 . S
C1720 C1721 1.377 . S
C1721 H1705 0.930 . S
C1721 C1720 1.377 . S
C1721 C1722 1.379 . S
C1722 H1706 0.931 . S
C1722 C1716 1.383 . S
C1722 C1721 1.379 . S
H1723 C1717 0.959 . S
H1724 C1717 0.961 . S
H1725 C1717 0.960 . S
H1726 C1718 0.930 . S
H1727 C1719 0.929 . S
H1728 C1736 0.929 . S
H1729 C1738 0.930 . S
H1730 C1740 0.930 . S
H1731 C1743 0.929 . S
H1732 C1746 0.930 . S
H1733 C1748 0.960 . S
H1734 C1748 0.960 . S
H1735 C1748 0.960 . S
C1736 H1728 0.929 . S
C1736 C1737 1.377 . S
C1736 C1738 1.384 . S
C1737 C1736 1.377 . S
C1737 C1743 1.390 . S
C1738 H1729 0.930 . S
C1738 C1736 1.384 . S
C1738 C1739 1.372 . S
C1739 C1738 1.372 . S
C1739 C1740 1.400 . S
C1739 C1744 1.490 . S
C1740 H1730 0.930 . S
C1740 C1739 1.400 . S
C1740 C1743 1.386 . S
H1741 C1757 0.930 . S
H1742 C1758 0.931 . S
C1743 H1731 0.929 . S
C1743 C1737 1.390 . S
C1743 C1740 1.386 . S
C1744 C1739 1.490 . S
C1744 C1746 1.395 1_455 S
C1744 C1747 1.403 1_556 S
H1745 C1751 0.930 . S
C1746 H1732 0.930 . S
C1746 C1744 1.395 1_655 S
C1746 C1749 1.403 . S
C1747 C1744 1.403 1_554 S
C1747 C1748 1.524 . S
C1747 C1751 1.424 . S
C1748 H1733 0.960 . S
C1748 H1734 0.960 . S
C1748 H1735 0.960 . S
C1748 C1747 1.524 . S
C1749 C1746 1.403 . S
C1749 C1750 1.392 1_556 S
C1749 C1753 1.495 . S
C1750 C1749 1.392 1_554 S
C1750 C1751 1.362 1_655 S
C1750 C1752 1.478 . S
C1751 H1745 0.930 . S
C1751 C1747 1.424 . S
C1751 C1750 1.362 1_455 S
C1752 C1750 1.478 . S
C1752 C1754 1.381 . S
C1752 C1758 1.383 . S
C1753 C1749 1.495 . S
C1753 H1759 0.959 . S
C1753 H1760 0.961 . S
C1753 H1761 0.960 . S
C1754 C1752 1.381 . S
C1754 C1755 1.394 . S
C1754 H1762 0.930 . S
C1755 C1754 1.394 . S
C1755 C1756 1.383 . S
C1755 H1763 0.929 . S
C1756 C1755 1.383 . S
C1756 C1757 1.377 . S
C1757 H1741 0.930 . S
C1757 C1756 1.377 . S
C1757 C1758 1.379 . S
C1758 H1742 0.931 . S
C1758 C1752 1.383 . S
C1758 C1757 1.379 . S
H1759 C1753 0.959 . S
H1760 C1753 0.961 . S
H1761 C1753 0.960 . S
H1762 C1754 0.930 . S
H1763 C1755 0.929 . S
H1764 C1772 0.929 . S
H1765 C1774 0.930 . S
H1766 C1776 0.930 . S
H1767 C1779 0.929 . S
H1768 C1782 0.930 . S
H1769 C1784 0.960 . S
H1770 C1784 0.960 . S
H1771 C1784 0.960 . S
C1772 H1764 0.929 . S
C1772 C1773 1.377 . S
C1772 C1774 1.384 . S
C1773 C1772 1.377 . S
C1773 C1779 1.390 . S
C1774 H1765 0.930 . S
C1774 C1772 1.384 . S
C1774 C1775 1.372 . S
C1775 C1774 1.372 . S
C1775 C1776 1.400 . S
C1775 C1780 1.490 . S
C1776 H1766 0.930 . S
C1776 C1775 1.400 . S
C1776 C1779 1.386 . S
H1777 C1793 0.930 . S
H1778 C1794 0.931 . S
C1779 H1767 0.929 . S
C1779 C1773 1.390 . S
C1779 C1776 1.386 . S
C1780 C1775 1.490 . S
C1780 C1782 1.395 . S
C1780 C1783 1.403 1_545 S
H1781 C1787 0.930 . S
C1782 H1768 0.930 . S
C1782 C1780 1.395 . S
C1782 C1785 1.403 . S
C1783 C1780 1.403 1_565 S
C1783 C1784 1.524 . S
C1783 C1787 1.400 . S
C1784 H1769 0.960 . S
C1784 H1770 0.960 . S
C1784 H1771 0.960 . S
C1784 C1783 1.524 . S
C1785 C1782 1.403 . S
C1785 C1786 1.392 1_545 S
C1785 C1789 1.495 . S
C1786 C1785 1.392 1_565 S
C1786 C1787 1.385 . S
C1786 C1788 1.478 . S
C1787 H1781 0.930 . S
C1787 C1783 1.400 . S
C1787 C1786 1.385 . S
C1788 C1786 1.478 . S
C1788 C1790 1.381 . S
C1788 C1794 1.383 . S
C1789 C1785 1.495 . S
C1789 H1795 0.959 . S
C1789 H1796 0.961 . S
C1789 H1797 0.960 . S
C1790 C1788 1.381 . S
C1790 C1791 1.394 . S
C1790 H1798 0.930 . S
C1791 C1790 1.394 . S
C1791 C1792 1.383 . S
C1791 H1799 0.929 . S
C1792 C1791 1.383 . S
C1792 C1793 1.377 . S
C1793 H1777 0.930 . S
C1793 C1792 1.377 . S
C1793 C1794 1.379 . S
C1794 H1778 0.931 . S
C1794 C1788 1.383 . S
C1794 C1793 1.379 . S
H1795 C1789 0.959 . S
H1796 C1789 0.961 . S
H1797 C1789 0.960 . S
H1798 C1790 0.930 . S
H1799 C1791 0.929 . S
H1800 C1808 0.929 . S
H1801 C1810 0.930 . S
H1802 C1812 0.930 . S
H1803 C1815 0.929 . S
H1804 C1818 0.930 . S
H1805 C1820 0.960 . S
H1806 C1820 0.960 . S
H1807 C1820 0.960 1_554 S
C1808 H1800 0.929 . S
C1808 C1809 1.377 . S
C1808 C1810 1.384 . S
C1809 C1808 1.377 . S
C1809 C1815 1.390 . S
C1810 H1801 0.930 . S
C1810 C1808 1.384 . S
C1810 C1811 1.372 . S
C1811 C1810 1.372 . S
C1811 C1812 1.400 . S
C1811 C1816 1.490 . S
C1812 H1802 0.930 . S
C1812 C1811 1.400 . S
C1812 C1815 1.386 . S
H1813 C1829 0.930 . S
H1814 C1830 0.931 . S
C1815 H1803 0.929 . S
C1815 C1809 1.390 . S
C1815 C1812 1.386 . S
C1816 C1811 1.490 . S
C1816 C1818 1.395 . S
C1816 C1819 1.358 1_554 S
H1817 C1823 0.930 . S
C1818 H1804 0.930 . S
C1818 C1816 1.395 . S
C1818 C1821 1.403 . S
C1819 C1816 1.358 1_556 S
C1819 C1820 1.533 . S
C1819 C1823 1.440 . S
C1820 H1805 0.960 . S
C1820 H1806 0.960 . S
C1820 H1807 0.960 1_556 S
C1820 C1819 1.533 . S
C1821 C1818 1.403 . S
C1821 C1822 1.392 1_554 S
C1821 C1825 1.495 . S
C1822 C1821 1.392 1_556 S
C1822 C1823 1.385 . S
C1822 C1824 1.478 . S
C1823 H1817 0.930 . S
C1823 C1819 1.440 . S
C1823 C1822 1.385 . S
C1824 C1822 1.478 . S
C1824 C1826 1.381 . S
C1824 C1830 1.383 . S
C1825 C1821 1.495 . S
C1825 H1831 0.959 . S
C1825 H1832 0.961 . S
C1825 H1833 0.960 1_554 S
C1826 C1824 1.381 . S
C1826 C1827 1.394 . S
C1826 H1834 0.930 . S
C1827 C1826 1.394 . S
C1827 C1828 1.383 . S
C1827 H1835 0.929 . S
C1828 C1827 1.383 . S
C1828 C1829 1.377 . S
C1829 H1813 0.930 . S
C1829 C1828 1.377 . S
C1829 C1830 1.379 . S
C1830 H1814 0.931 . S
C1830 C1824 1.383 . S
C1830 C1829 1.379 . S
H1831 C1825 0.959 . S
H1832 C1825 0.961 . S
H1833 C1825 0.960 1_556 S
H1834 C1826 0.930 . S
H1835 C1827 0.929 . S
H1836 C1844 0.929 . S
H1837 C1846 0.930 . S
H1838 C1848 0.930 . S
H1839 C1851 0.929 . S
H1840 C1854 0.930 . S
H1841 C1856 0.960 1_655 S
H1842 C1856 0.960 . S
H1843 C1856 0.960 . S
C1844 H1836 0.929 . S
C1844 C1845 1.377 . S
C1844 C1846 1.384 . S
C1845 C1844 1.377 . S
C1845 C1851 1.390 . S
C1846 H1837 0.930 . S
C1846 C1844 1.384 . S
C1846 C1847 1.372 . S
C1847 C1846 1.372 . S
C1847 C1848 1.400 . S
C1847 C1852 1.490 . S
C1848 H1838 0.930 . S
C1848 C1847 1.400 . S
C1848 C1851 1.386 . S
H1849 C1865 0.930 . S
H1850 C1866 0.931 . S
C1851 H1839 0.929 . S
C1851 C1845 1.390 . S
C1851 C1848 1.386 . S
C1852 C1847 1.490 . S
C1852 C1854 1.395 . S
C1852 C1855 1.403 . S
H1853 C1859 0.930 . S
C1854 H1840 0.930 . S
C1854 C1852 1.395 . S
C1854 C1857 1.403 1_455 S
C1855 C1852 1.403 . S
C1855 C1856 1.524 . S
C1855 C1859 1.400 1_455 S
C1856 H1841 0.960 1_455 S
C1856 H1842 0.960 . S
C1856 H1843 0.960 . S
C1856 C1855 1.524 . S
C1857 C1854 1.403 1_655 S
C1857 C1858 1.392 . S
C1857 C1861 1.495 . S
C1858 C1857 1.392 . S
C1858 C1859 1.385 . S
C1858 C1860 1.478 . S
C1859 H1853 0.930 . S
C1859 C1855 1.400 1_655 S
C1859 C1858 1.385 . S
C1860 C1858 1.478 . S
C1860 C1862 1.381 . S
C1860 C1866 1.383 . S
C1861 C1857 1.495 . S
C1861 H1867 0.965 . S
C1861 H1868 0.961 . S
C1861 H1869 0.960 . S
C1862 C1860 1.381 . S
C1862 C1863 1.394 . S
C1862 H1870 0.930 . S
C1863 C1862 1.394 . S
C1863 C1864 1.383 . S
C1863 H1871 0.929 . S
C1864 C1863 1.383 . S
C1864 C1865 1.377 . S
C1865 H1849 0.930 . S
C1865 C1864 1.377 . S
C1865 C1866 1.379 . S
C1866 H1850 0.931 . S
C1866 C1860 1.383 . S
C1866 C1865 1.379 . S
H1867 C1861 0.965 . S
H1868 C1861 0.961 . S
H1869 C1861 0.960 . S
H1870 C1862 0.930 . S
H1871 C1863 0.929 . S
H1872 C1880 0.929 . S
H1873 C1882 0.930 . S
H1874 C1884 0.930 . S
H1875 C1887 0.929 . S
H1876 C1890 0.930 . S
H1877 C1892 0.960 . S
H1878 C1892 0.960 . S
H1879 C1892 0.960 . S
C1880 H1872 0.929 . S
C1880 C1881 1.377 . S
C1880 C1882 1.384 . S
C1881 C1880 1.377 . S
C1881 C1887 1.390 . S
C1882 H1873 0.930 . S
C1882 C1880 1.384 . S
C1882 C1883 1.372 . S
C1883 C1882 1.372 . S
C1883 C1884 1.400 . S
C1883 C1888 1.490 . S
C1884 H1874 0.930 . S
C1884 C1883 1.400 . S
C1884 C1887 1.386 . S
H1885 C1901 0.930 . S
H1886 C1902 0.931 . S
C1887 H1875 0.929 . S
C1887 C1881 1.390 . S
C1887 C1884 1.386 . S
C1888 C1883 1.490 . S
C1888 C1890 1.395 . S
C1888 C1891 1.403 . S
H1889 C1895 0.930 . S
C1890 H1876 0.930 . S
C1890 C1888 1.395 . S
C1890 C1893 1.403 . S
C1891 C1888 1.403 . S
C1891 C1892 1.524 . S
C1891 C1895 1.400 . S
C1892 H1877 0.960 . S
C1892 H1878 0.960 . S
C1892 H1879 0.960 . S
C1892 C1891 1.524 . S
C1893 C1890 1.403 . S
C1893 C1894 1.392 . S
C1893 C1897 1.495 . S
C1894 C1893 1.392 . S
C1894 C1895 1.385 . S
C1894 C1896 1.478 . S
C1895 H1889 0.930 . S
C1895 C1891 1.400 . S
C1895 C1894 1.385 . S
C1896 C1894 1.478 . S
C1896 C1898 1.381 . S
C1896 C1902 1.383 . S
C1897 C1893 1.495 . S
C1897 H1903 0.959 . S
C1897 H1904 0.961 . S
C1897 H1905 0.960 . S
C1898 C1896 1.381 . S
C1898 C1899 1.394 . S
C1898 H1906 0.930 . S
C1899 C1898 1.394 . S
C1899 C1900 1.383 . S
C1899 H1907 0.929 . S
C1900 C1899 1.383 . S
C1900 C1901 1.377 . S
C1901 H1885 0.930 . S
C1901 C1900 1.377 . S
C1901 C1902 1.379 . S
C1902 H1886 0.931 . S
C1902 C1896 1.383 . S
C1902 C1901 1.379 . S
H1903 C1897 0.959 . S
H1904 C1897 0.961 . S
H1905 C1897 0.960 . S
H1906 C1898 0.930 . S
H1907 C1899 0.929 . S
H1908 C1916 0.929 . S
H1909 C1918 0.930 . S
H1910 C1920 0.930 . S
H1911 C1923 0.929 . S
H1912 C1926 0.930 . S
H1913 C1928 0.960 . S
H1914 C1928 0.960 . S
H1915 C1928 0.960 . S
C1916 H1908 0.929 . S
C1916 C1917 1.377 . S
C1916 C1918 1.384 . S
C1917 C1916 1.377 . S
C1917 C1923 1.390 . S
C1918 H1909 0.930 . S
C1918 C1916 1.384 . S
C1918 C1919 1.372 . S
C1919 C1918 1.372 . S
C1919 C1920 1.400 . S
C1919 C1924 1.490 . S
C1920 H1910 0.930 . S
C1920 C1919 1.400 . S
C1920 C1923 1.386 . S
H1921 C1937 0.930 . S
H1922 C1938 0.931 . S
C1923 H1911 0.929 . S
C1923 C1917 1.390 . S
C1923 C1920 1.386 . S
C1924 C1919 1.490 . S
C1924 C1926 1.395 . S
C1924 C1927 1.403 . S
H1925 C1931 0.930 . S
C1926 H1912 0.930 . S
C1926 C1924 1.395 . S
C1926 C1929 1.403 . S
C1927 C1924 1.403 . S
C1927 C1928 1.524 . S
C1927 C1931 1.400 . S
C1928 H1913 0.960 . S
C1928 H1914 0.960 . S
C1928 H1915 0.960 . S
C1928 C1927 1.524 . S
C1929 C1926 1.403 . S
C1929 C1930 1.392 . S
C1929 C1933 1.495 . S
C1930 C1929 1.392 . S
C1930 C1931 1.385 . S
C1930 C1932 1.478 . S
C1931 H1925 0.930 . S
C1931 C1927 1.400 . S
C1931 C1930 1.385 . S
C1932 C1930 1.478 . S
C1932 C1934 1.381 . S
C1932 C1938 1.383 . S
C1933 C1929 1.495 . S
C1933 H1939 0.959 . S
C1933 H1940 0.961 . S
C1933 H1941 0.960 . S
C1934 C1932 1.381 . S
C1934 C1935 1.394 . S
C1934 H1942 0.930 . S
C1935 C1934 1.394 . S
C1935 C1936 1.383 . S
C1935 H1943 0.929 . S
C1936 C1935 1.383 . S
C1936 C1937 1.377 . S
C1937 H1921 0.930 . S
C1937 C1936 1.377 . S
C1937 C1938 1.379 . S
C1938 H1922 0.931 . S
C1938 C1932 1.383 . S
C1938 C1937 1.379 . S
H1939 C1933 0.959 . S
H1940 C1933 0.961 . S
H1941 C1933 0.960 . S
H1942 C1934 0.930 . S
H1943 C1935 0.929 . S
H1944 C1952 0.929 . S
H1945 C1954 0.930 . S
H1946 C1956 0.930 . S
H1947 C1959 0.929 . S
H1948 C1962 0.930 . S
H1949 C1964 0.960 . S
H1950 C1964 0.960 . S
H1951 C1964 0.960 . S
C1952 H1944 0.929 . S
C1952 C1953 1.377 . S
C1952 C1954 1.384 . S
C1953 C1952 1.377 . S
C1953 C1959 1.390 . S
C1954 H1945 0.930 . S
C1954 C1952 1.384 . S
C1954 C1955 1.372 . S
C1955 C1954 1.372 . S
C1955 C1956 1.400 . S
C1955 C1960 1.490 . S
C1956 H1946 0.930 . S
C1956 C1955 1.400 . S
C1956 C1959 1.386 . S
H1957 C1973 0.930 . S
H1958 C1974 0.931 . S
C1959 H1947 0.929 . S
C1959 C1953 1.390 . S
C1959 C1956 1.386 . S
C1960 C1955 1.490 . S
C1960 C1962 1.395 . S
C1960 C1963 1.403 . S
H1961 C1967 0.930 . S
C1962 H1948 0.930 . S
C1962 C1960 1.395 . S
C1962 C1965 1.403 . S
C1963 C1960 1.403 . S
C1963 C1964 1.524 . S
C1963 C1967 1.400 . S
C1964 H1949 0.960 . S
C1964 H1950 0.960 . S
C1964 H1951 0.960 . S
C1964 C1963 1.524 . S
C1965 C1962 1.403 . S
C1965 C1966 1.392 . S
C1965 C1969 1.495 . S
C1966 C1965 1.392 . S
C1966 C1967 1.385 . S
C1966 C1968 1.478 . S
C1967 H1961 0.930 . S
C1967 C1963 1.400 . S
C1967 C1966 1.385 . S
C1968 C1966 1.478 . S
C1968 C1970 1.381 . S
C1968 C1974 1.383 . S
C1969 C1965 1.495 . S
C1969 H1975 0.959 . S
C1969 H1976 0.961 . S
C1969 H1977 0.960 . S
C1970 C1968 1.381 . S
C1970 C1971 1.394 . S
C1970 H1978 0.930 . S
C1971 C1970 1.394 . S
C1971 C1972 1.383 . S
C1971 H1979 0.929 . S
C1972 C1971 1.383 . S
C1972 C1973 1.377 . S
C1973 H1957 0.930 . S
C1973 C1972 1.377 . S
C1973 C1974 1.379 . S
C1974 H1958 0.931 . S
C1974 C1968 1.383 . S
C1974 C1973 1.379 . S
H1975 C1969 0.959 . S
H1976 C1969 0.961 . S
H1977 C1969 0.960 . S
H1978 C1970 0.930 . S
H1979 C1971 0.929 . S
H1980 C1988 0.929 . S
H1981 C1990 0.930 . S
H1982 C1992 0.930 . S
H1983 C1995 0.929 . S
H1984 C1998 0.930 . S
H1985 C2000 0.960 . S
H1986 C2000 0.960 . S
H1987 C2000 0.960 . S
C1988 H1980 0.929 . S
C1988 C1989 1.377 . S
C1988 C1990 1.384 . S
C1989 C1988 1.377 . S
C1989 C1995 1.390 . S
C1990 H1981 0.930 . S
C1990 C1988 1.384 . S
C1990 C1991 1.372 . S
C1991 C1990 1.372 . S
C1991 C1992 1.400 . S
C1991 C1996 1.490 . S
C1992 H1982 0.930 . S
C1992 C1991 1.400 . S
C1992 C1995 1.386 . S
H1993 C2009 0.930 . S
H1994 C2010 0.931 . S
C1995 H1983 0.929 . S
C1995 C1989 1.390 . S
C1995 C1992 1.386 . S
C1996 C1991 1.490 . S
C1996 C1998 1.395 . S
C1996 C1999 1.403 . S
H1997 C2003 0.930 . S
C1998 H1984 0.930 . S
C1998 C1996 1.395 . S
C1998 C2001 1.403 . S
C1999 C1996 1.403 . S
C1999 C2000 1.524 . S
C1999 C2003 1.400 . S
C2000 H1985 0.960 . S
C2000 H1986 0.960 . S
C2000 H1987 0.960 . S
C2000 C1999 1.524 . S
C2001 C1998 1.403 . S
C2001 C2002 1.392 . S
C2001 C2005 1.495 . S
C2002 C2001 1.392 . S
C2002 C2003 1.385 . S
C2002 C2004 1.478 . S
C2003 H1997 0.930 . S
C2003 C1999 1.400 . S
C2003 C2002 1.385 . S
C2004 C2002 1.478 . S
C2004 C2006 1.381 . S
C2004 C2010 1.383 . S
C2005 C2001 1.495 . S
C2005 H2011 0.959 . S
C2005 H2012 0.961 . S
C2005 H2013 0.960 . S
C2006 C2004 1.381 . S
C2006 C2007 1.394 . S
C2006 H2014 0.930 . S
C2007 C2006 1.394 . S
C2007 C2008 1.383 . S
C2007 H2015 0.929 . S
C2008 C2007 1.383 . S
C2008 C2009 1.377 . S
C2009 H1993 0.930 . S
C2009 C2008 1.377 . S
C2009 C2010 1.379 . S
C2010 H1994 0.931 . S
C2010 C2004 1.383 . S
C2010 C2009 1.379 . S
H2011 C2005 0.959 . S
H2012 C2005 0.961 . S
H2013 C2005 0.960 . S
H2014 C2006 0.930 . S
H2015 C2007 0.929 . S
H2016 C2024 0.929 . S
H2017 C2026 0.930 . S
H2018 C2028 0.930 . S
H2019 C2031 0.929 . S
H2020 C2034 0.930 . S
H2021 C2036 0.960 . S
H2022 C2036 0.960 . S
H2023 C2036 0.960 . S
C2024 H2016 0.929 . S
C2024 C2025 1.377 . S
C2024 C2026 1.384 . S
C2025 C2024 1.377 . S
C2025 C2031 1.390 . S
C2026 H2017 0.930 . S
C2026 C2024 1.384 . S
C2026 C2027 1.372 . S
C2027 C2026 1.372 . S
C2027 C2028 1.400 . S
C2027 C2032 1.490 . S
C2028 H2018 0.930 . S
C2028 C2027 1.400 . S
C2028 C2031 1.386 . S
H2029 C2045 0.930 . S
H2030 C2046 0.931 . S
C2031 H2019 0.929 . S
C2031 C2025 1.390 . S
C2031 C2028 1.386 . S
C2032 C2027 1.490 . S
C2032 C2034 1.395 . S
C2032 C2035 1.403 . S
H2033 C2039 0.930 . S
C2034 H2020 0.930 . S
C2034 C2032 1.395 . S
C2034 C2037 1.403 . S
C2035 C2032 1.403 . S
C2035 C2036 1.524 . S
C2035 C2039 1.400 . S
C2036 H2021 0.960 . S
C2036 H2022 0.960 . S
C2036 H2023 0.960 . S
C2036 C2035 1.524 . S
C2037 C2034 1.403 . S
C2037 C2038 1.392 . S
C2037 C2041 1.495 . S
C2038 C2037 1.392 . S
C2038 C2039 1.385 . S
C2038 C2040 1.478 . S
C2039 H2033 0.930 . S
C2039 C2035 1.400 . S
C2039 C2038 1.385 . S
C2040 C2038 1.478 . S
C2040 C2042 1.381 . S
C2040 C2046 1.383 . S
C2041 C2037 1.495 . S
C2041 H2047 0.959 . S
C2041 H2048 0.961 . S
C2041 H2049 0.960 . S
C2042 C2040 1.381 . S
C2042 C2043 1.394 . S
C2042 H2050 0.930 . S
C2043 C2042 1.394 . S
C2043 C2044 1.383 . S
C2043 H2051 0.929 . S
C2044 C2043 1.383 . S
C2044 C2045 1.377 . S
C2045 H2029 0.930 . S
C2045 C2044 1.377 . S
C2045 C2046 1.379 . S
C2046 H2030 0.931 . S
C2046 C2040 1.383 . S
C2046 C2045 1.379 . S
H2047 C2041 0.959 . S
H2048 C2041 0.961 . S
H2049 C2041 0.960 . S
H2050 C2042 0.930 . S
H2051 C2043 0.929 . S
H2052 C2060 0.929 . S
H2053 C2062 0.930 . S
H2054 C2064 0.930 . S
H2055 C2067 0.929 . S
H2056 C2070 0.930 . S
H2057 C2072 0.960 . S
H2058 C2072 0.960 . S
H2059 C2072 0.960 . S
C2060 H2052 0.929 . S
C2060 C2061 1.377 . S
C2060 C2062 1.384 . S
C2061 C2060 1.377 . S
C2061 C2067 1.390 . S
C2062 H2053 0.930 . S
C2062 C2060 1.384 . S
C2062 C2063 1.372 . S
C2063 C2062 1.372 . S
C2063 C2064 1.400 . S
C2063 C2068 1.490 . S
C2064 H2054 0.930 . S
C2064 C2063 1.400 . S
C2064 C2067 1.386 . S
H2065 C2081 0.930 . S
H2066 C2082 0.931 . S
C2067 H2055 0.929 . S
C2067 C2061 1.390 . S
C2067 C2064 1.386 . S
C2068 C2063 1.490 . S
C2068 C2070 1.395 . S
C2068 C2071 1.403 . S
H2069 C2075 0.930 . S
C2070 H2056 0.930 . S
C2070 C2068 1.395 . S
C2070 C2073 1.403 . S
C2071 C2068 1.403 . S
C2071 C2072 1.524 . S
C2071 C2075 1.400 . S
C2072 H2057 0.960 . S
C2072 H2058 0.960 . S
C2072 H2059 0.960 . S
C2072 C2071 1.524 . S
C2073 C2070 1.403 . S
C2073 C2074 1.392 . S
C2073 C2077 1.495 . S
C2074 C2073 1.392 . S
C2074 C2075 1.385 . S
C2074 C2076 1.478 . S
C2075 H2069 0.930 . S
C2075 C2071 1.400 . S
C2075 C2074 1.385 . S
C2076 C2074 1.478 . S
C2076 C2078 1.381 . S
C2076 C2082 1.383 . S
C2077 C2073 1.495 . S
C2077 H2083 0.959 . S
C2077 H2084 0.961 . S
C2077 H2085 0.960 . S
C2078 C2076 1.381 . S
C2078 C2079 1.394 . S
C2078 H2086 0.930 . S
C2079 C2078 1.394 . S
C2079 C2080 1.383 . S
C2079 H2087 0.929 . S
C2080 C2079 1.383 . S
C2080 C2081 1.377 . S
C2081 H2065 0.930 . S
C2081 C2080 1.377 . S
C2081 C2082 1.379 . S
C2082 H2066 0.931 . S
C2082 C2076 1.383 . S
C2082 C2081 1.379 . S
H2083 C2077 0.959 . S
H2084 C2077 0.961 . S
H2085 C2077 0.960 . S
H2086 C2078 0.930 . S
H2087 C2079 0.929 . S
H2088 C2096 0.929 . S
H2089 C2098 0.930 . S
H2090 C2100 0.930 . S
H2091 C2103 0.929 . S
H2092 C2106 0.930 . S
H2093 C2108 0.960 . S
H2094 C2108 0.960 . S
H2095 C2108 0.960 . S
C2096 H2088 0.929 . S
C2096 C2097 1.377 . S
C2096 C2098 1.384 . S
C2097 C2096 1.377 . S
C2097 C2103 1.390 . S
C2098 H2089 0.930 . S
C2098 C2096 1.384 . S
C2098 C2099 1.372 . S
C2099 C2098 1.372 . S
C2099 C2100 1.400 . S
C2099 C2104 1.490 . S
C2100 H2090 0.930 . S
C2100 C2099 1.400 . S
C2100 C2103 1.386 . S
H2101 C2117 0.930 . S
H2102 C2118 0.931 . S
C2103 H2091 0.929 . S
C2103 C2097 1.390 . S
C2103 C2100 1.386 . S
C2104 C2099 1.490 . S
C2104 C2106 1.395 . S
C2104 C2107 1.403 . S
H2105 C2111 0.930 . S
C2106 H2092 0.930 . S
C2106 C2104 1.395 . S
C2106 C2109 1.403 . S
C2107 C2104 1.403 . S
C2107 C2108 1.524 . S
C2107 C2111 1.400 . S
C2108 H2093 0.960 . S
C2108 H2094 0.960 . S
C2108 H2095 0.960 . S
C2108 C2107 1.524 . S
C2109 C2106 1.403 . S
C2109 C2110 1.392 . S
C2109 C2113 1.495 . S
C2110 C2109 1.392 . S
C2110 C2111 1.385 . S
C2110 C2112 1.478 . S
C2111 H2105 0.930 . S
C2111 C2107 1.400 . S
C2111 C2110 1.385 . S
C2112 C2110 1.478 . S
C2112 C2114 1.381 . S
C2112 C2118 1.383 . S
C2113 C2109 1.495 . S
C2113 H2119 0.959 . S
C2113 H2120 0.961 . S
C2113 H2121 0.960 . S
C2114 C2112 1.381 . S
C2114 C2115 1.394 . S
C2114 H2122 0.930 . S
C2115 C2114 1.394 . S
C2115 C2116 1.383 . S
C2115 H2123 0.929 . S
C2116 C2115 1.383 . S
C2116 C2117 1.377 . S
C2117 H2101 0.930 . S
C2117 C2116 1.377 . S
C2117 C2118 1.379 . S
C2118 H2102 0.931 . S
C2118 C2112 1.383 . S
C2118 C2117 1.379 . S
H2119 C2113 0.959 . S
H2120 C2113 0.961 . S
H2121 C2113 0.960 . S
H2122 C2114 0.930 . S
H2123 C2115 0.929 . S
H2124 C2132 0.929 . S
H2125 C2134 0.930 . S
H2126 C2136 0.930 . S
H2127 C2139 0.929 . S
H2128 C2142 0.930 . S
H2129 C2144 0.960 . S
H2130 C2144 0.960 . S
H2131 C2144 0.960 . S
C2132 H2124 0.929 . S
C2132 C2133 1.377 . S
C2132 C2134 1.384 . S
C2133 C2132 1.377 . S
C2133 C2139 1.390 . S
C2134 H2125 0.930 . S
C2134 C2132 1.384 . S
C2134 C2135 1.372 . S
C2135 C2134 1.372 . S
C2135 C2136 1.400 . S
C2135 C2140 1.490 . S
C2136 H2126 0.930 . S
C2136 C2135 1.400 . S
C2136 C2139 1.386 . S
H2137 C2153 0.930 . S
H2138 C2154 0.931 . S
C2139 H2127 0.929 . S
C2139 C2133 1.390 . S
C2139 C2136 1.386 . S
C2140 C2135 1.490 . S
C2140 C2142 1.395 . S
C2140 C2143 1.403 . S
H2141 C2147 0.930 . S
C2142 H2128 0.930 . S
C2142 C2140 1.395 . S
C2142 C2145 1.403 . S
C2143 C2140 1.403 . S
C2143 C2144 1.524 . S
C2143 C2147 1.400 . S
C2144 H2129 0.960 . S
C2144 H2130 0.960 . S
C2144 H2131 0.960 . S
C2144 C2143 1.524 . S
C2145 C2142 1.403 . S
C2145 C2146 1.392 . S
C2145 C2149 1.495 . S
C2146 C2145 1.392 . S
C2146 C2147 1.385 . S
C2146 C2148 1.478 . S
C2147 H2141 0.930 . S
C2147 C2143 1.400 . S
C2147 C2146 1.385 . S
C2148 C2146 1.478 . S
C2148 C2150 1.381 . S
C2148 C2154 1.383 . S
C2149 C2145 1.495 . S
C2149 H2155 0.959 . S
C2149 H2156 0.961 . S
C2149 H2157 0.960 . S
C2150 C2148 1.381 . S
C2150 C2151 1.394 . S
C2150 H2158 0.930 . S
C2151 C2150 1.394 . S
C2151 C2152 1.383 . S
C2151 H2159 0.929 . S
C2152 C2151 1.383 . S
C2152 C2153 1.377 . S
C2153 H2137 0.930 . S
C2153 C2152 1.377 . S
C2153 C2154 1.379 . S
C2154 H2138 0.931 . S
C2154 C2148 1.383 . S
C2154 C2153 1.379 . S
H2155 C2149 0.959 . S
H2156 C2149 0.961 . S
H2157 C2149 0.960 . S
H2158 C2150 0.930 . S
H2159 C2151 0.929 . S
H2160 C2168 0.929 . S
H2161 C2170 0.930 . S
H2162 C2172 0.930 . S
H2163 C2175 0.929 . S
H2164 C2178 0.930 . S
H2165 C2180 0.960 . S
H2166 C2180 0.960 . S
H2167 C2180 0.960 . S
C2168 H2160 0.929 . S
C2168 C2169 1.377 . S
C2168 C2170 1.384 . S
C2169 C2168 1.377 . S
C2169 C2175 1.390 . S
C2170 H2161 0.930 . S
C2170 C2168 1.384 . S
C2170 C2171 1.372 . S
C2171 C2170 1.372 . S
C2171 C2172 1.400 . S
C2171 C2176 1.490 . S
C2172 H2162 0.930 . S
C2172 C2171 1.400 . S
C2172 C2175 1.386 . S
H2173 C2189 0.930 . S
H2174 C2190 0.931 . S
C2175 H2163 0.929 . S
C2175 C2169 1.390 . S
C2175 C2172 1.386 . S
C2176 C2171 1.490 . S
C2176 C2178 1.395 . S
C2176 C2179 1.403 . S
H2177 C2183 0.930 . S
C2178 H2164 0.930 . S
C2178 C2176 1.395 . S
C2178 C2181 1.403 . S
C2179 C2176 1.403 . S
C2179 C2180 1.524 . S
C2179 C2183 1.400 . S
C2180 H2165 0.960 . S
C2180 H2166 0.960 . S
C2180 H2167 0.960 . S
C2180 C2179 1.524 . S
C2181 C2178 1.403 . S
C2181 C2182 1.392 . S
C2181 C2185 1.495 . S
C2182 C2181 1.392 . S
C2182 C2183 1.385 . S
C2182 C2184 1.478 . S
C2183 H2177 0.930 . S
C2183 C2179 1.400 . S
C2183 C2182 1.385 . S
C2184 C2182 1.478 . S
C2184 C2186 1.381 . S
C2184 C2190 1.383 . S
C2185 C2181 1.495 . S
C2185 H2191 0.959 . S
C2185 H2192 0.961 . S
C2185 H2193 0.960 . S
C2186 C2184 1.381 . S
C2186 C2187 1.394 . S
C2186 H2194 0.930 . S
C2187 C2186 1.394 . S
C2187 C2188 1.383 . S
C2187 H2195 0.929 . S
C2188 C2187 1.383 . S
C2188 C2189 1.377 . S
C2189 H2173 0.930 . S
C2189 C2188 1.377 . S
C2189 C2190 1.379 . S
C2190 H2174 0.931 . S
C2190 C2184 1.383 . S
C2190 C2189 1.379 . S
H2191 C2185 0.959 . S
H2192 C2185 0.961 . S
H2193 C2185 0.960 . S
H2194 C2186 0.930 . S
H2195 C2187 0.929 . S
H2196 C2204 0.929 . S
H2197 C2206 0.930 . S
H2198 C2208 0.930 . S
H2199 C2211 0.929 . S
H2200 C2214 0.930 . S
H2201 C2216 0.960 . S
H2202 C2216 0.960 . S
H2203 C2216 0.960 . S
C2204 H2196 0.929 . S
C2204 C2205 1.377 . S
C2204 C2206 1.384 . S
C2205 C2204 1.377 . S
C2205 C2211 1.390 . S
C2206 H2197 0.930 . S
C2206 C2204 1.384 . S
C2206 C2207 1.372 . S
C2207 C2206 1.372 . S
C2207 C2208 1.400 . S
C2207 C2212 1.490 . S
C2208 H2198 0.930 . S
C2208 C2207 1.400 . S
C2208 C2211 1.386 . S
H2209 C2225 0.930 . S
H2210 C2226 0.931 . S
C2211 H2199 0.929 . S
C2211 C2205 1.390 . S
C2211 C2208 1.386 . S
C2212 C2207 1.490 . S
C2212 C2214 1.395 . S
C2212 C2215 1.403 . S
H2213 C2219 0.930 . S
C2214 H2200 0.930 . S
C2214 C2212 1.395 . S
C2214 C2217 1.403 . S
C2215 C2212 1.403 . S
C2215 C2216 1.524 . S
C2215 C2219 1.400 . S
C2216 H2201 0.960 . S
C2216 H2202 0.960 . S
C2216 H2203 0.960 . S
C2216 C2215 1.524 . S
C2217 C2214 1.403 . S
C2217 C2218 1.392 . S
C2217 C2221 1.495 . S
C2218 C2217 1.392 . S
C2218 C2219 1.385 . S
C2218 C2220 1.478 . S
C2219 H2213 0.930 . S
C2219 C2215 1.400 . S
C2219 C2218 1.385 . S
C2220 C2218 1.478 . S
C2220 C2222 1.381 . S
C2220 C2226 1.383 . S
C2221 C2217 1.495 . S
C2221 H2227 0.959 . S
C2221 H2228 0.961 . S
C2221 H2229 0.960 . S
C2222 C2220 1.381 . S
C2222 C2223 1.394 . S
C2222 H2230 0.930 . S
C2223 C2222 1.394 . S
C2223 C2224 1.383 . S
C2223 H2231 0.929 . S
C2224 C2223 1.383 . S
C2224 C2225 1.377 . S
C2225 H2209 0.930 . S
C2225 C2224 1.377 . S
C2225 C2226 1.379 . S
C2226 H2210 0.931 . S
C2226 C2220 1.383 . S
C2226 C2225 1.379 . S
H2227 C2221 0.959 . S
H2228 C2221 0.961 . S
H2229 C2221 0.960 . S
H2230 C2222 0.930 . S
H2231 C2223 0.929 . S
H2232 C2240 0.929 . S
H2233 C2242 0.930 . S
H2234 C2244 0.930 . S
H2235 C2247 0.929 . S
H2236 C2250 0.930 . S
H2237 C2252 0.960 . S
H2238 C2252 0.960 . S
H2239 C2252 0.960 . S
C2240 H2232 0.929 . S
C2240 C2241 1.377 . S
C2240 C2242 1.384 . S
C2241 C2240 1.377 . S
C2241 C2247 1.390 . S
C2242 H2233 0.930 . S
C2242 C2240 1.384 . S
C2242 C2243 1.372 . S
C2243 C2242 1.372 . S
C2243 C2244 1.400 . S
C2243 C2248 1.490 . S
C2244 H2234 0.930 . S
C2244 C2243 1.400 . S
C2244 C2247 1.386 . S
H2245 C2261 0.930 . S
H2246 C2262 0.931 . S
C2247 H2235 0.929 . S
C2247 C2241 1.390 . S
C2247 C2244 1.386 . S
C2248 C2243 1.490 . S
C2248 C2250 1.395 . S
C2248 C2251 1.403 . S
H2249 C2255 0.930 . S
C2250 H2236 0.930 . S
C2250 C2248 1.395 . S
C2250 C2253 1.403 . S
C2251 C2248 1.403 . S
C2251 C2252 1.524 . S
C2251 C2255 1.400 . S
C2252 H2237 0.960 . S
C2252 H2238 0.960 . S
C2252 H2239 0.960 . S
C2252 C2251 1.524 . S
C2253 C2250 1.403 . S
C2253 C2254 1.392 . S
C2253 C2257 1.495 . S
C2254 C2253 1.392 . S
C2254 C2255 1.385 . S
C2254 C2256 1.478 . S
C2255 H2249 0.930 . S
C2255 C2251 1.400 . S
C2255 C2254 1.385 . S
C2256 C2254 1.478 . S
C2256 C2258 1.381 . S
C2256 C2262 1.383 . S
C2257 C2253 1.495 . S
C2257 H2263 0.959 . S
C2257 H2264 0.961 . S
C2257 H2265 0.960 . S
C2258 C2256 1.381 . S
C2258 C2259 1.394 . S
C2258 H2266 0.930 . S
C2259 C2258 1.394 . S
C2259 C2260 1.383 . S
C2259 H2267 0.929 . S
C2260 C2259 1.383 . S
C2260 C2261 1.377 . S
C2261 H2245 0.930 . S
C2261 C2260 1.377 . S
C2261 C2262 1.379 . S
C2262 H2246 0.931 . S
C2262 C2256 1.383 . S
C2262 C2261 1.379 . S
H2263 C2257 0.959 . S
H2264 C2257 0.961 . S
H2265 C2257 0.960 . S
H2266 C2258 0.930 . S
H2267 C2259 0.929 . S
H2268 C2276 0.929 . S
H2269 C2278 0.930 . S
H2270 C2280 0.930 . S
H2271 C2283 0.929 . S
H2272 C2286 0.930 . S
H2273 C2288 0.960 . S
H2274 C2288 0.960 . S
H2275 C2288 0.960 . S
C2276 H2268 0.929 . S
C2276 C2277 1.377 . S
C2276 C2278 1.384 . S
C2277 C2276 1.377 . S
C2277 C2283 1.390 . S
C2278 H2269 0.930 . S
C2278 C2276 1.384 . S
C2278 C2279 1.372 . S
C2279 C2278 1.372 . S
C2279 C2280 1.400 . S
C2279 C2284 1.490 . S
C2280 H2270 0.930 . S
C2280 C2279 1.400 . S
C2280 C2283 1.386 . S
H2281 C2297 0.930 . S
H2282 C2298 0.931 . S
C2283 H2271 0.929 . S
C2283 C2277 1.390 . S
C2283 C2280 1.386 . S
C2284 C2279 1.490 . S
C2284 C2286 1.395 . S
C2284 C2287 1.403 . S
H2285 C2291 0.930 . S
C2286 H2272 0.930 . S
C2286 C2284 1.395 . S
C2286 C2289 1.403 . S
C2287 C2284 1.403 . S
C2287 C2288 1.524 . S
C2287 C2291 1.400 . S
C2288 H2273 0.960 . S
C2288 H2274 0.960 . S
C2288 H2275 0.960 . S
C2288 C2287 1.524 . S
C2289 C2286 1.403 . S
C2289 C2290 1.392 . S
C2289 C2293 1.495 . S
C2290 C2289 1.392 . S
C2290 C2291 1.385 . S
C2290 C2292 1.478 . S
C2291 H2285 0.930 . S
C2291 C2287 1.400 . S
C2291 C2290 1.385 . S
C2292 C2290 1.478 . S
C2292 C2294 1.381 . S
C2292 C2298 1.383 . S
C2293 C2289 1.495 . S
C2293 H2299 0.959 . S
C2293 H2300 0.961 . S
C2293 H2301 0.960 . S
C2294 C2292 1.381 . S
C2294 C2295 1.394 . S
C2294 H2302 0.930 . S
C2295 C2294 1.394 . S
C2295 C2296 1.383 . S
C2295 H2303 0.929 . S
C2296 C2295 1.383 . S
C2296 C2297 1.377 . S
C2297 H2281 0.930 . S
C2297 C2296 1.377 . S
C2297 C2298 1.379 . S
C2298 H2282 0.931 . S
C2298 C2292 1.383 . S
C2298 C2297 1.379 . S
H2299 C2293 0.959 . S
H2300 C2293 0.961 . S
H2301 C2293 0.960 . S
H2302 C2294 0.930 . S
H2303 C2295 0.929 . S
C1017 C238 1.182 . S
C1036 C67 1.304 . S
C1053 C310 1.192 . S
C1072 C140 1.247 . S
C1089 C235 1.284 . S
C1108 C406 1.224 . S
C1125 C308 1.282 . S
C1144 C478 1.152 . S
C1161 C70 1.192 . S
C1180 C403 1.282 . S
C1197 C142 1.193 . S
C1216 C476 1.243 . S
C1233 C898 1.190 . S
C1252 C560 1.255 . S
C1269 C655 1.276 . S
C1288 C994 1.211 . S
C1305 C728 1.272 . S
C1324 C562 1.229 . S
C1341 C823 1.272 . S
C1360 C658 1.156 . S
C1377 C896 1.282 . S
C1396 C730 1.159 . S
C1413 C826 1.185 . S
C1432 C991 1.253 . S
C1449 C326 1.969 . S
C1468 C63 1.978 . S
C1485 C158 1.974 . S
C1504 C399 1.990 . S
C1521 C231 1.977 . S
C1540 C494 1.980 . S
C1557 C578 1.973 . S
C1576 C819 1.992 . S
C1593 C651 1.973 . S
C1612 C914 1.993 . S
C1629 C746 1.970 . S
C1648 C987 1.967 . S
C1665 C662 2.149 . S
C1684 C74 2.168 . S
C1701 C147 2.155 . S
C1720 C735 2.139 . S
C1737 C830 2.149 . S
C1756 C242 2.166 . S
C1773 C315 2.148 . S
C1792 C903 2.143 . S
C1809 C410 2.154 . S
C1828 C998 2.141 . S
C1845 C567 2.151 . S
C1864 C483 2.128 . S
C1881 C226 1.299 . S
C1900 C56 1.442 . S
C1917 C151 1.418 . S
C1936 C322 1.311 . S
C1953 C224 1.410 . S
C1972 C394 1.317 . S
C1989 C319 1.406 . S
C2008 C490 1.277 . S
C2025 C58 1.301 . S
C2044 C392 1.437 . S
C2061 C154 1.304 . S
C2080 C487 1.376 . S
C2097 C910 1.299 . S
C2116 C571 1.383 . S
C2133 C644 1.406 . S
C2152 C982 1.355 . S
C2169 C739 1.405 . S
C2188 C574 1.277 . S
C2205 C646 1.315 . S
C2224 C812 1.386 . S
C2241 C907 1.413 . S
C2260 C742 1.273 . S
C2277 C980 1.410 . S
C2296 C814 1.333 . S
