# Generated by pormake.
# Topology crs, (6)-cn, num edge types: 1
# Building blocks:
#     Node 0, Type 0, BuildingBlock: CUKXOW_clean_sbu_0, # of connection points: 6
#     Node 1, Type 0, BuildingBlock: CUKXOW_clean_sbu_0, # of connection points: 6
#     Node 2, Type 0, BuildingBlock: CUKXOW_clean_sbu_0, # of connection points: 6
#     Node 3, Type 0, BuildingBlock: CUKXOW_clean_sbu_0, # of connection points: 6
#     Node 4, Type 0, BuildingBlock: CUKXOW_clean_sbu_0, # of connection points: 6
#     Node 5, Type 0, BuildingBlock: CUKXOW_clean_sbu_0, # of connection points: 6
#     Node 6, Type 0, BuildingBlock: CUKXOW_clean_sbu_0, # of connection points: 6
#     Node 7, Type 0, BuildingBlock: CUKXOW_clean_sbu_0, # of connection points: 6
#     Node 8, Type 0, BuildingBlock: CUKXOW_clean_sbu_0, # of connection points: 6
#     Node 9, Type 0, BuildingBlock: CUKXOW_clean_sbu_0, # of connection points: 6
#     Node 10, Type 0, BuildingBlock: CUKXOW_clean_sbu_0, # of connection points: 6
#     Node 11, Type 0, BuildingBlock: CUKXOW_clean_sbu_0, # of connection points: 6
#     Node 12, Type 0, BuildingBlock: CUKXOW_clean_sbu_0, # of connection points: 6
#     Node 13, Type 0, BuildingBlock: CUKXOW_clean_sbu_0, # of connection points: 6
#     Node 14, Type 0, BuildingBlock: CUKXOW_clean_sbu_0, # of connection points: 6
#     Node 15, Type 0, BuildingBlock: CUKXOW_clean_sbu_0, # of connection points: 6
#     Edge 16, Type (0, 0), BuildingBlock: OJICUG_clean_linker_0, # of connection points: 2
#     Edge 17, Type (0, 0), BuildingBlock: OJICUG_clean_linker_0, # of connection points: 2
#     Edge 18, Type (0, 0), BuildingBlock: OJICUG_clean_linker_0, # of connection points: 2
#     Edge 19, Type (0, 0), BuildingBlock: OJICUG_clean_linker_0, # of connection points: 2
#     Edge 20, Type (0, 0), BuildingBlock: OJICUG_clean_linker_0, # of connection points: 2
#     Edge 21, Type (0, 0), BuildingBlock: OJICUG_clean_linker_0, # of connection points: 2
#     Edge 22, Type (0, 0), BuildingBlock: OJICUG_clean_linker_0, # of connection points: 2
#     Edge 23, Type (0, 0), BuildingBlock: OJICUG_clean_linker_0, # of connection points: 2
#     Edge 24, Type (0, 0), BuildingBlock: OJICUG_clean_linker_0, # of connection points: 2
#     Edge 25, Type (0, 0), BuildingBlock: OJICUG_clean_linker_0, # of connection points: 2
#     Edge 26, Type (0, 0), BuildingBlock: OJICUG_clean_linker_0, # of connection points: 2
#     Edge 27, Type (0, 0), BuildingBlock: OJICUG_clean_linker_0, # of connection points: 2
#     Edge 28, Type (0, 0), BuildingBlock: OJICUG_clean_linker_0, # of connection points: 2
#     Edge 29, Type (0, 0), BuildingBlock: OJICUG_clean_linker_0, # of connection points: 2
#     Edge 30, Type (0, 0), BuildingBlock: OJICUG_clean_linker_0, # of connection points: 2
#     Edge 31, Type (0, 0), BuildingBlock: OJICUG_clean_linker_0, # of connection points: 2
#     Edge 32, Type (0, 0), BuildingBlock: OJICUG_clean_linker_0, # of connection points: 2
#     Edge 33, Type (0, 0), BuildingBlock: OJICUG_clean_linker_0, # of connection points: 2
#     Edge 34, Type (0, 0), BuildingBlock: OJICUG_clean_linker_0, # of connection points: 2
#     Edge 35, Type (0, 0), BuildingBlock: OJICUG_clean_linker_0, # of connection points: 2
#     Edge 36, Type (0, 0), BuildingBlock: OJICUG_clean_linker_0, # of connection points: 2
#     Edge 37, Type (0, 0), BuildingBlock: OJICUG_clean_linker_0, # of connection points: 2
#     Edge 38, Type (0, 0), BuildingBlock: OJICUG_clean_linker_0, # of connection points: 2
#     Edge 39, Type (0, 0), BuildingBlock: OJICUG_clean_linker_0, # of connection points: 2
#     Edge 40, Type (0, 0), BuildingBlock: OJICUG_clean_linker_0, # of connection points: 2
#     Edge 41, Type (0, 0), BuildingBlock: OJICUG_clean_linker_0, # of connection points: 2
#     Edge 42, Type (0, 0), BuildingBlock: OJICUG_clean_linker_0, # of connection points: 2
#     Edge 43, Type (0, 0), BuildingBlock: OJICUG_clean_linker_0, # of connection points: 2
#     Edge 44, Type (0, 0), BuildingBlock: OJICUG_clean_linker_0, # of connection points: 2
#     Edge 45, Type (0, 0), BuildingBlock: OJICUG_clean_linker_0, # of connection points: 2
#     Edge 46, Type (0, 0), BuildingBlock: OJICUG_clean_linker_0, # of connection points: 2
#     Edge 47, Type (0, 0), BuildingBlock: OJICUG_clean_linker_0, # of connection points: 2
#     Edge 48, Type (0, 0), BuildingBlock: OJICUG_clean_linker_0, # of connection points: 2
#     Edge 49, Type (0, 0), BuildingBlock: OJICUG_clean_linker_0, # of connection points: 2
#     Edge 50, Type (0, 0), BuildingBlock: OJICUG_clean_linker_0, # of connection points: 2
#     Edge 51, Type (0, 0), BuildingBlock: OJICUG_clean_linker_0, # of connection points: 2
#     Edge 52, Type (0, 0), BuildingBlock: OJICUG_clean_linker_0, # of connection points: 2
#     Edge 53, Type (0, 0), BuildingBlock: OJICUG_clean_linker_0, # of connection points: 2
#     Edge 54, Type (0, 0), BuildingBlock: OJICUG_clean_linker_0, # of connection points: 2
#     Edge 55, Type (0, 0), BuildingBlock: OJICUG_clean_linker_0, # of connection points: 2
#     Edge 56, Type (0, 0), BuildingBlock: OJICUG_clean_linker_0, # of connection points: 2
#     Edge 57, Type (0, 0), BuildingBlock: OJICUG_clean_linker_0, # of connection points: 2
#     Edge 58, Type (0, 0), BuildingBlock: OJICUG_clean_linker_0, # of connection points: 2
#     Edge 59, Type (0, 0), BuildingBlock: OJICUG_clean_linker_0, # of connection points: 2
#     Edge 60, Type (0, 0), BuildingBlock: OJICUG_clean_linker_0, # of connection points: 2
#     Edge 61, Type (0, 0), BuildingBlock: OJICUG_clean_linker_0, # of connection points: 2
#     Edge 62, Type (0, 0), BuildingBlock: OJICUG_clean_linker_0, # of connection points: 2
#     Edge 63, Type (0, 0), BuildingBlock: OJICUG_clean_linker_0, # of connection points: 2
# Relax obj value: 0.166
# Max RMSD: 0.231
# Mean RMSD: 0.193
data_MOF--net-crs--node1-CUKXOW_clean_sbu_0--edge1-OJICUG_clean_linker_0
_symmetry_space_group_name_H-M    P1
_symmetry_Int_Tables_number       1
_symmetry_cell_setting            triclinic
loop_
_symmetry_equiv_pos_as_xyz
'x, y, z'
_cell_length_a     27.200488
_cell_length_b     32.62294
_cell_length_c     36.726219
_cell_angle_alpha  97.782882
_cell_angle_beta   96.607569
_cell_angle_gamma 95.219985
loop_
_atom_site_label
_atom_site_type_symbol
_atom_site_fract_x
_atom_site_fract_y
_atom_site_fract_z
_atom_type_partial_charge
Tb0 Tb 0.02695 0.98905 0.97412 0.0
C1 C 0.06892 1.00567 0.05667 0.0
Tb2 Tb 0.98513 0.05516 0.02174 0.0
O3 O 0.09726 0.02852 0.97629 0.0
O4 O 0.03097 0.05502 0.9792 0.0
O5 O 0.05854 0.97637 0.02752 0.0
C6 C 0.97162 0.12341 0.06577 0.0
O7 O 0.04757 0.04073 0.05912 0.0
C8 C 0.93478 0.98097 0.01347 0.0
C9 C 0.94369 0.03917 0.9391 0.0
O10 O 0.93742 0.09316 0.05251 0.0
O11 O 0.0136 0.1149 0.05484 0.0
O12 O 0.91484 0.01546 0.01912 0.0
O13 O 0.98127 0.98923 0.01672 0.0
O14 O 0.95394 0.06824 0.96842 0.0
O15 O 0.96485 1.00399 0.93657 0.0
C16 C 0.03958 0.9204 0.93026 0.0
O17 O 0.99766 0.92957 0.94091 0.0
O18 O 0.07423 0.95024 0.94368 0.0
C19 C 0.07748 0.06307 0.98221 0.0
Tb20 Tb 0.96877 0.25137 0.26915 0.0
C21 C 0.0705 0.21362 0.2618 0.0
Tb22 Tb 0.04668 0.2965 0.23142 0.0
O23 O 0.92378 0.22691 0.21621 0.0
O24 O 1.00036 0.24006 0.21958 0.0
O25 O 0.03096 0.21465 0.2798 0.0
C26 C 0.1016 0.32401 0.18264 0.0
O27 O 0.0787 0.23861 0.23693 0.0
C28 C 0.05424 0.31731 0.30322 0.0
C29 C 0.94273 0.33206 0.23651 0.0
O30 O 0.11784 0.32033 0.21646 0.0
O31 O 0.05395 0.31314 0.17649 0.0
O32 O 0.09139 0.32155 0.28439 0.0
O33 O 0.01498 0.30804 0.28102 0.0
O34 O 0.98316 0.3316 0.21931 0.0
O35 O 0.93464 0.30792 0.26208 0.0
C36 C 0.91713 0.22038 0.318 0.0
O37 O 0.90021 0.22204 0.28385 0.0
O38 O 0.9633 0.23626 0.32471 0.0
C39 C 0.96105 0.23092 0.19744 0.0
Tb40 Tb 0.72654 0.29885 0.46615 0.0
C41 C 0.70071 0.29836 0.54668 0.0
Tb42 Tb 0.7873 0.24773 0.51865 0.0
O43 O 0.66607 0.25005 0.44195 0.0
O44 O 0.72187 0.23907 0.48111 0.0
O45 O 0.6964 0.31762 0.5171 0.0
C46 C 0.81893 0.1983 0.56629 0.0
O47 O 0.73018 0.26865 0.55125 0.0
C48 C 0.83173 0.31975 0.50841 0.0
C49 C 0.80175 0.23771 0.43521 0.0
O50 O 0.79365 0.18566 0.53385 0.0
O51 O 0.82599 0.23865 0.57189 0.0
O52 O 0.85505 0.28806 0.51528 0.0
O53 O 0.78602 0.311 0.51044 0.0
O54 O 0.80709 0.22081 0.46605 0.0
O55 O 0.77675 0.27023 0.43087 0.0
C56 C 0.70772 0.36129 0.42906 0.0
O57 O 0.75169 0.3524 0.44096 0.0
O58 O 0.67401 0.33477 0.43768 0.0
C59 C 0.68219 0.22241 0.46148 0.0
Tb60 Tb 0.80119 0.06475 0.73642 0.0
C61 C 0.82018 0.97003 0.73929 0.0
Tb62 Tb 0.73292 1.00881 0.77691 0.0
O63 O 0.84238 0.09634 0.78904 0.0
O64 O 0.80699 0.03648 0.7842 0.0
O65 O 0.82951 1.00395 0.72351 0.0
C66 C 0.69585 0.97248 0.82999 0.0
O67 O 0.78895 0.96792 0.76442 0.0
C68 C 0.71019 1.00528 0.70579 0.0
C69 C 0.70969 0.10137 0.77166 0.0
O70 O 0.6818 0.96198 0.79466 0.0
O71 O 0.72983 1.0041 0.83529 0.0
O72 O 0.69755 0.97448 0.72313 0.0
O73 O 0.72812 0.0363 0.72874 0.0
O74 O 0.70263 0.0684 0.78892 0.0
O75 O 0.74159 0.10354 0.74687 0.0
C76 C 0.83832 0.09946 0.68244 0.0
O77 O 0.84155 0.11672 0.71676 0.0
O78 O 0.81578 0.0621 0.67899 0.0
C79 C 0.82847 0.06649 0.80701 0.0
Tb80 Tb 0.49002 0.76522 0.28469 0.0
C81 C 0.59535 0.73598 0.27678 0.0
Tb82 Tb 0.56292 0.81509 0.23964 0.0
O83 O 0.4603 0.71451 0.23924 0.0
O84 O 0.51273 0.76073 0.23187 0.0
O85 O 0.55699 0.73507 0.29616 0.0
C86 C 0.61495 0.83191 0.18577 0.0
O87 O 0.60174 0.7618 0.25213 0.0
C88 C 0.56021 0.85529 0.3079 0.0
C89 C 0.4532 0.83678 0.24105 0.0
O90 O 0.63375 0.82567 0.21846 0.0
O91 O 0.56674 0.82966 0.18372 0.0
O92 O 0.58727 0.86895 0.28411 0.0
O93 O 0.53907 0.82035 0.29222 0.0
O94 O 0.49238 0.83774 0.22251 0.0
O95 O 0.44927 0.81585 0.2694 0.0
C96 C 0.43581 0.74496 0.33598 0.0
O97 O 0.41887 0.74684 0.30185 0.0
O98 O 0.48383 0.75472 0.34158 0.0
C99 C 0.48666 0.72825 0.21518 0.0
Tb100 Tb 0.22653 0.80465 0.47919 0.0
C101 C 0.21258 0.81407 0.5627 0.0
Tb102 Tb 0.28698 0.75275 0.5308 0.0
O103 O 0.1586 0.76477 0.48262 0.0
O104 O 0.22728 0.74106 0.48665 0.0
O105 O 0.2073 0.83134 0.53205 0.0
C106 C 0.30506 0.68932 0.5667 0.0
O107 O 0.23734 0.78133 0.56662 0.0
C108 C 0.33226 0.82886 0.5358 0.0
C109 C 0.31236 0.75382 0.45025 0.0
O110 O 0.26124 0.69892 0.55531 0.0
O111 O 0.33908 0.71577 0.55836 0.0
O112 O 0.34819 0.80088 0.555 0.0
O113 O 0.29219 0.81275 0.51639 0.0
O114 O 0.31654 0.73419 0.4796 0.0
O115 O 0.28326 0.78387 0.44611 0.0
C116 C 0.19416 0.85393 0.43174 0.0
O117 O 0.18704 0.8136 0.42625 0.0
O118 O 0.22004 0.86668 0.46394 0.0
C119 C 0.18152 0.73269 0.48878 0.0
Tb120 Tb 0.28403 0.54339 0.72675 0.0
C121 C 0.29601 0.44778 0.72919 0.0
Tb122 Tb 0.21389 0.49291 0.771 0.0
O123 O 0.32498 0.57731 0.77881 0.0
O124 O 0.29024 0.51746 0.77703 0.0
O125 O 0.31011 0.48206 0.71535 0.0
C126 C 0.1827 0.4589 0.82686 0.0
O127 O 0.2618 0.44614 0.75235 0.0
C128 C 0.1709 0.49679 0.70311 0.0
C129 C 0.19854 0.58633 0.76385 0.0
O130 O 0.17442 0.44212 0.79227 0.0
O131 O 0.20824 0.49517 0.82995 0.0
O132 O 0.14999 0.47607 0.72618 0.0
O133 O 0.21272 0.51234 0.71973 0.0
O134 O 0.19172 0.55557 0.78372 0.0
O135 O 0.2288 0.58565 0.73792 0.0
C136 C 0.31498 0.57291 0.66827 0.0
O137 O 0.33497 0.58478 0.70244 0.0
O138 O 0.27911 0.54367 0.66736 0.0
C139 C 0.31321 0.54853 0.79868 0.0
Tb140 Tb 0.02983 0.49298 0.4766 0.0
C141 C 0.06364 0.51609 0.56148 0.0
Tb142 Tb 0.98097 0.55979 0.51592 0.0
O143 O 0.09985 0.53349 0.48162 0.0
O144 O 0.03197 0.55839 0.47679 0.0
O145 O 0.05856 0.48553 0.53308 0.0
C146 C 0.96349 0.63007 0.55558 0.0
O147 O 0.03982 0.54978 0.55977 0.0
C148 C 0.93269 0.48488 0.50981 0.0
C149 C 0.94727 0.53708 0.431 0.0
O150 O 0.93094 0.59806 0.54418 0.0
O151 O 0.00577 0.62232 0.5448 0.0
O152 O 0.91113 0.51878 0.51081 0.0
O153 O 0.97913 0.49445 0.51589 0.0
O154 O 0.95177 0.56737 0.45958 0.0
O155 O 0.97151 0.50359 0.43267 0.0
C156 C 0.04588 0.42227 0.43692 0.0
O157 O 0.00376 0.43077 0.44754 0.0
O158 O 0.07914 0.45377 0.44853 0.0
C159 C 0.07853 0.56752 0.48282 0.0
Tb160 Tb 0.22548 0.29909 0.97885 0.0
C161 C 0.21394 0.3017 0.06161 0.0
Tb162 Tb 0.29063 0.24713 0.0226 0.0
O163 O 0.15812 0.26006 0.98476 0.0
O164 O 0.22592 0.23494 0.98308 0.0
O165 O 0.20656 0.32147 0.03269 0.0
C166 C 0.32046 0.18888 0.062 0.0
O167 O 0.24121 0.2699 0.06221 0.0
C168 C 0.33478 0.31918 0.01348 0.0
C169 C 0.30143 0.24514 0.93912 0.0
O170 O 0.33506 0.22842 0.07016 0.0
O171 O 0.28948 0.18245 0.03179 0.0
O172 O 0.3582 0.2867 0.01747 0.0
O173 O 0.28998 0.31112 0.01845 0.0
O174 O 0.31026 0.22584 0.96829 0.0
O175 O 0.27384 0.27666 0.9388 0.0
C176 C 0.19222 0.35492 0.93835 0.0
O177 O 0.17719 0.31543 0.9324 0.0
O178 O 0.22603 0.36284 0.96695 0.0
C179 C 0.18111 0.22733 0.98828 0.0
Tb180 Tb 0.27934 0.03975 0.21941 0.0
C181 C 0.30291 0.9474 0.22551 0.0
Tb182 Tb 0.21131 0.98425 0.2602 0.0
O183 O 0.31449 0.07473 0.27295 0.0
O184 O 0.28433 0.01282 0.26795 0.0
O185 O 0.30981 0.98014 0.20794 0.0
C186 C 0.17379 0.951 0.3147 0.0
O187 O 0.27107 0.94545 0.25036 0.0
C188 C 0.1846 0.98128 0.1894 0.0
C189 C 0.19165 0.07865 0.25622 0.0
O190 O 0.17041 0.9331 0.28055 0.0
O191 O 0.1968 0.98812 0.31767 0.0
O192 O 0.17091 0.95164 0.20768 0.0
O193 O 0.20543 0.01172 0.21203 0.0
O194 O 0.18253 0.04495 0.27231 0.0
O195 O 0.22296 0.08058 0.23113 0.0
C196 C 0.31735 0.07528 0.16629 0.0
O197 O 0.33075 0.08631 0.20164 0.0
O198 O 0.28341 0.04365 0.161 0.0
C199 C 0.30206 0.04416 0.29059 0.0
Tb200 Tb 0.44846 0.23171 0.75532 0.0
C201 C 0.55882 0.21108 0.75487 0.0
Tb202 Tb 0.52168 0.28215 0.71077 0.0
O203 O 0.42536 0.1777 0.71079 0.0
O204 O 0.47304 0.22681 0.70301 0.0
O205 O 0.51925 0.20978 0.77299 0.0
C206 C 0.5759 0.30354 0.65985 0.0
O207 O 0.56302 0.23203 0.72655 0.0
C208 C 0.52348 0.31907 0.78009 0.0
C209 C 0.41562 0.31046 0.71794 0.0
O210 O 0.59273 0.30172 0.69402 0.0
O211 O 0.52804 0.29293 0.65397 0.0
O212 O 0.55017 0.33307 0.75634 0.0
O213 O 0.4981 0.28636 0.76326 0.0
O214 O 0.45431 0.31164 0.69889 0.0
O215 O 0.40905 0.28459 0.74252 0.0
C216 C 0.39673 0.21425 0.80917 0.0
O217 O 0.37773 0.22033 0.77647 0.0
O218 O 0.44496 0.21707 0.81123 0.0
C219 C 0.45266 0.19167 0.68727 0.0
Tb220 Tb 0.96271 0.75044 0.76247 0.0
C221 C 0.06524 0.71298 0.75505 0.0
Tb222 Tb 0.04167 0.79611 0.72586 0.0
O223 O 0.9175 0.72714 0.70935 0.0
O224 O 0.99406 0.74022 0.71257 0.0
O225 O 0.02527 0.71364 0.7728 0.0
C226 C 0.09521 0.82876 0.67882 0.0
O227 O 0.07361 0.73809 0.73027 0.0
C228 C 0.04916 0.81407 0.79789 0.0
C229 C 0.94059 0.83459 0.73365 0.0
O230 O 0.11141 0.82498 0.71264 0.0
O231 O 0.04865 0.81408 0.67141 0.0
O232 O 0.08667 0.81808 0.77937 0.0
O233 O 0.01005 0.80624 0.77547 0.0
O234 O 0.98026 0.83367 0.71582 0.0
O235 O 0.93167 0.80899 0.75792 0.0
C236 C 0.90812 0.72234 0.81125 0.0
O237 O 0.8916 0.72667 0.77764 0.0
O238 O 0.95583 0.7329 0.81717 0.0
C239 C 0.95456 0.73191 0.6905 0.0
Tb240 Tb 0.79258 0.55135 0.22221 0.0
C241 C 0.80747 0.45633 0.22484 0.0
Tb242 Tb 0.72674 0.50259 0.26482 0.0
O243 O 0.83794 0.58314 0.27344 0.0
O244 O 0.80351 0.52329 0.27075 0.0
O245 O 0.81752 0.48951 0.20845 0.0
C246 C 0.69606 0.47362 0.32372 0.0
O247 O 0.77634 0.45622 0.25012 0.0
C248 C 0.69212 0.49908 0.19418 0.0
C249 C 0.71384 0.59818 0.26361 0.0
O250 O 0.67743 0.4602 0.2895 0.0
O251 O 0.73039 0.50404 0.32442 0.0
O252 O 0.68221 0.46968 0.21377 0.0
O253 O 0.7157 0.52993 0.21568 0.0
O254 O 0.70376 0.56485 0.27975 0.0
O255 O 0.74333 0.59798 0.23724 0.0
C256 C 0.82817 0.58164 0.16555 0.0
O257 O 0.84204 0.59595 0.20032 0.0
O258 O 0.79523 0.5497 0.16292 0.0
C259 C 0.82798 0.55329 0.29249 0.0
Tb260 Tb 0.72148 0.79853 0.97258 0.0
C261 C 0.71041 0.80001 0.05596 0.0
Tb262 Tb 0.7854 0.74507 0.01596 0.0
O263 O 0.65308 0.76012 0.97738 0.0
O264 O 0.72059 0.73423 0.97643 0.0
O265 O 0.70227 0.81979 0.02701 0.0
C266 C 0.81776 0.68839 0.05605 0.0
O267 O 0.73726 0.76799 0.05606 0.0
C268 C 0.83081 0.81676 0.00705 0.0
C269 C 0.79704 0.74308 0.93314 0.0
O270 O 0.8333 0.72778 0.06228 0.0
O271 O 0.78391 0.68106 0.02743 0.0
O272 O 0.85337 0.78376 0.01037 0.0
O273 O 0.78599 0.80929 0.01219 0.0
O274 O 0.80416 0.72299 0.96191 0.0
O275 O 0.77035 0.77524 0.93283 0.0
C276 C 0.69309 0.85747 0.9334 0.0
O277 O 0.67757 0.8181 0.92519 0.0
O278 O 0.72416 0.86338 0.96355 0.0
C279 C 0.67553 0.72713 0.98127 0.0
Tb280 Tb 0.55676 0.01408 0.52132 0.0
C281 C 0.52548 0.96787 0.43829 0.0
Tb282 Tb 0.45972 0.03496 0.4738 0.0
O283 O 0.51898 0.96652 0.54937 0.0
O284 O 0.4799 0.9961 0.51234 0.0
O285 O 0.56273 0.98149 0.46552 0.0
C286 C 0.3695 0.03802 0.43894 0.0
O287 O 0.48059 0.98136 0.43792 0.0
C288 C 0.54166 0.0809 0.46288 0.0
C289 C 0.49036 0.08057 0.55698 0.0
O290 O 0.39849 0.06967 0.45729 0.0
O291 O 0.39079 1.00436 0.44217 0.0
O292 O 0.49756 0.08273 0.44596 0.0
O293 O 0.53658 0.05304 0.4829 0.0
O294 O 0.45329 0.06693 0.52965 0.0
O295 O 0.53543 0.06742 0.55734 0.0
C296 C 0.64687 0.01153 0.55666 0.0
O297 O 0.61812 0.97973 0.53832 0.0
O298 O 0.62551 0.04506 0.55295 0.0
C299 C 0.47485 0.96841 0.53254 0.0
Tb300 Tb 0.52222 0.48912 0.97238 0.0
C301 C 0.57067 0.5104 0.05526 0.0
Tb302 Tb 0.48241 0.55925 0.02112 0.0
O303 O 0.59105 0.52892 0.97094 0.0
O304 O 0.52478 0.55516 0.97626 0.0
O305 O 0.56061 0.47991 0.02641 0.0
C306 C 0.47784 0.62654 0.07204 0.0
O307 O 0.54777 0.54483 0.0566 0.0
C308 C 0.43422 0.48454 0.01656 0.0
C309 C 0.43378 0.53794 0.93823 0.0
O310 O 0.44261 0.59644 0.06031 0.0
O311 O 0.51516 0.61954 0.05387 0.0
O312 O 0.41376 0.51882 0.02264 0.0
O313 O 0.48034 0.49341 0.01734 0.0
O314 O 0.44357 0.56834 0.96718 0.0
O315 O 0.45695 0.50362 0.93679 0.0
C316 C 0.52778 0.42165 0.92204 0.0
O317 O 0.56294 0.45169 0.93413 0.0
O318 O 0.48981 0.42887 0.93942 0.0
C319 C 0.57109 0.56342 0.97708 0.0
C320 C 0.92007 0.16087 0.10771 0.0
C321 C 0.96594 0.15784 0.09415 0.0
H322 H 0.88236 0.18763 0.15161 0.0
C323 C 0.00794 0.18451 0.11119 0.0
H324 H 0.88712 0.14075 0.09462 0.0
C325 C 0.0053 0.211 0.14373 0.0
C326 C 0.96057 0.21116 0.15929 0.0
H327 H 0.04357 0.18291 0.10087 0.0
H328 H 0.03904 0.22918 0.15792 0.0
C329 C 0.91735 0.18761 0.14019 0.0
C330 C 0.80579 0.21989 0.36822 0.0
C331 C 0.82828 0.22217 0.40481 0.0
H332 H 0.81679 0.21568 0.31128 0.0
C333 C 0.87857 0.2159 0.41198 0.0
H334 H 0.76686 0.22444 0.36232 0.0
C335 C 0.90741 0.21184 0.38294 0.0
C336 C 0.88571 0.21309 0.34663 0.0
H337 H 0.89647 0.21775 0.44017 0.0
H338 H 0.9471 0.2105 0.38915 0.0
C339 C 0.83427 0.21474 0.33916 0.0
C340 C 0.82457 0.10409 0.61506 0.0
C341 C 0.84399 0.12259 0.65125 0.0
H342 H 0.80113 0.11392 0.55948 0.0
C343 C 0.86094 0.16517 0.65809 0.0
H344 H 0.81108 0.07129 0.60913 0.0
C345 C 0.85521 0.1895 0.62972 0.0
C346 C 0.83232 0.17157 0.59422 0.0
H347 H 0.87597 0.18014 0.68578 0.0
H348 H 0.86641 0.22267 0.63609 0.0
C349 C 0.81863 0.12847 0.58673 0.0
C350 C 0.90823 0.08785 0.89933 0.0
C351 C 0.91048 0.04716 0.90742 0.0
H352 H 0.88002 0.12599 0.86027 0.0
C353 C 0.88181 0.01376 0.88439 0.0
H354 H 0.9301 0.11406 0.917 0.0
C355 C 0.85261 0.02068 0.85275 0.0
C356 C 0.85259 0.06098 0.84333 0.0
H357 H 0.8825 0.98224 0.89055 0.0
H358 H 0.83187 0.99411 0.83488 0.0
C359 C 0.87972 0.0947 0.86712 0.0
C360 C 0.13137 0.03206 0.11077 0.0
C361 C 0.10268 0.99825 0.08827 0.0
H362 H 0.18128 0.05277 0.16012 0.0
C363 C 0.10521 0.95785 0.097 0.0
H364 H 0.13048 0.06336 0.10408 0.0
C365 C 0.13385 0.95175 0.12942 0.0
C366 C 0.16078 0.98593 0.15276 0.0
H367 H 0.08335 0.93136 0.07974 0.0
H368 H 0.13366 0.92071 0.13683 0.0
C369 C 0.16066 0.02588 0.14261 0.0
C370 C 0.00887 0.36177 0.391 0.0
C371 C 0.05131 0.38775 0.40841 0.0
H372 H 0.97657 0.31903 0.34323 0.0
C373 C 0.09684 0.38481 0.39433 0.0
H374 H 0.9734 0.36337 0.40158 0.0
C375 C 0.09878 0.35902 0.36112 0.0
C376 C 0.0551 0.33638 0.34171 0.0
H377 H 0.13009 0.40445 0.40757 0.0
H378 H 0.13359 0.35907 0.34945 0.0
C379 C 0.01068 0.3364 0.35765 0.0
C380 C 0.61876 0.31096 0.56698 0.0
C381 C 0.66988 0.3086 0.57584 0.0
H382 H 0.54789 0.31067 0.58732 0.0
C383 C 0.69031 0.31007 0.61281 0.0
H384 H 0.60247 0.30954 0.53843 0.0
C385 C 0.65959 0.31136 0.64052 0.0
C386 C 0.60794 0.31023 0.63145 0.0
H387 H 0.72978 0.30842 0.62006 0.0
H388 H 0.67606 0.31074 0.66871 0.0
C389 C 0.5877 0.31137 0.59475 0.0
C390 C 0.70862 0.95825 0.89497 0.0
C391 C 0.68533 0.94641 0.85845 0.0
H392 H 0.72882 0.93908 0.9476 0.0
C393 C 0.65839 0.90688 0.84835 0.0
H394 H 0.72959 0.98857 0.90345 0.0
C395 C 0.65809 0.87843 0.87363 0.0
C396 C 0.68466 0.88928 0.90925 0.0
H397 H 0.64016 0.89704 0.82031 0.0
H398 H 0.6395 0.84731 0.86463 0.0
C399 C 0.70826 0.9299 0.92019 0.0
C400 C 0.20944 0.30935 0.12934 0.0
C401 C 0.1883 0.3139 0.09367 0.0
H402 H 0.19867 0.31088 0.18621 0.0
C403 C 0.14078 0.32744 0.08845 0.0
H404 H 0.24623 0.29928 0.13396 0.0
C405 C 0.11324 0.33334 0.11813 0.0
C406 C 0.1335 0.32682 0.15344 0.0
H407 H 0.12376 0.33108 0.06108 0.0
H408 H 0.07543 0.3412 0.11318 0.0
C409 C 0.18244 0.31635 0.15917 0.0
C410 C 0.6549 0.41645 0.35225 0.0
C411 C 0.69184 0.45005 0.35478 0.0
H412 H 0.6304 0.36198 0.37498 0.0
C413 C 0.7301 0.45707 0.38477 0.0
H414 H 0.6252 0.41041 0.32926 0.0
C415 C 0.73386 0.42892 0.41001 0.0
C416 C 0.69863 0.39405 0.40629 0.0
H417 H 0.7592 0.48267 0.38731 0.0
H418 H 0.76539 0.43357 0.43162 0.0
C419 C 0.65792 0.38884 0.37827 0.0
C420 C 0.68024 0.96971 0.60327 0.0
C421 C 0.67978 1.00833 0.59029 0.0
H422 H 0.6893 0.93849 0.65104 0.0
C423 C 0.69741 0.04493 0.61455 0.0
H424 H 0.66676 0.94099 0.58498 0.0
C425 C 0.70878 0.04349 0.65215 0.0
C426 C 0.70418 1.00534 0.66577 0.0
H427 H 0.69748 0.07505 0.60518 0.0
H428 H 0.71836 0.07257 0.67076 0.0
C429 C 0.69211 0.96826 0.64103 0.0
C430 C 0.00238 0.86003 0.88431 0.0
C431 C 0.04481 0.88588 0.90181 0.0
H432 H 0.97076 0.81643 0.83699 0.0
C433 C 0.09075 0.88213 0.88855 0.0
H434 H 0.96666 0.86219 0.89441 0.0
C435 C 0.09322 0.85564 0.85587 0.0
C436 C 0.04967 0.83309 0.83627 0.0
H437 H 0.12403 0.90159 0.902 0.0
H438 H 0.12834 0.85516 0.84466 0.0
C439 C 0.00476 0.83382 0.85157 0.0
C440 C 0.0789 0.14068 0.98962 0.0
C441 C 0.10432 0.10513 0.98493 0.0
H442 H 0.08361 0.20723 -0.00489 0.0
C443 C 0.15554 0.11006 0.98209 0.0
H444 H 0.03933 0.13784 0.99146 0.0
C445 C 0.18069 0.14975 0.98336 0.0
C446 C 0.15534 0.18533 0.98826 0.0
H447 H 0.17604 0.08318 0.9782 0.0
H448 H 0.21969 0.15243 0.97971 0.0
C449 C 0.10424 0.18039 0.99156 0.0
C450 C 0.64719 0.63473 0.29278 0.0
C451 C 0.68742 0.63547 0.27193 0.0
H452 H 0.58653 0.66612 0.31106 0.0
C453 C 0.70034 0.67158 0.25663 0.0
H454 H 0.63641 0.60749 0.30512 0.0
C455 C 0.672 0.70509 0.26011 0.0
C456 C 0.6299 0.70347 0.27898 0.0
H457 H 0.73151 0.67356 0.24083 0.0
H458 H 0.6822 0.73169 0.24676 0.0
C459 C 0.61866 0.66842 0.29627 0.0
C460 C 0.39624 0.88506 0.56703 0.0
C461 C 0.3603 0.87014 0.53641 0.0
H462 H 0.45959 0.92821 0.58973 0.0
C463 C 0.3575 0.89191 0.50578 0.0
H464 H 0.39919 0.86913 0.59111 0.0
C465 C 0.39267 0.92631 0.505 0.0
C466 C 0.43072 0.93914 0.53487 0.0
H467 H 0.33046 0.88078 0.48164 0.0
H468 H 0.39213 0.94089 0.48023 0.0
C469 C 0.4309 0.91899 0.56626 0.0
C470 C 0.08986 0.64859 0.78026 0.0
C471 C 0.10078 0.68214 0.76109 0.0
H472 H 0.11263 0.5917 0.79657 0.0
C473 C 0.14633 0.68589 0.74667 0.0
H474 H 0.05521 0.64507 0.79195 0.0
C475 C 0.17911 0.65586 0.74961 0.0
C476 C 0.16725 0.62108 0.76694 0.0
H477 H 0.15649 0.71173 0.73237 0.0
H478 H 0.2132 0.65939 0.73718 0.0
C479 C 0.12287 0.61821 0.78312 0.0
C480 C 0.82998 0.39664 0.50671 0.0
C481 C 0.85693 0.36191 0.50739 0.0
H482 H 0.83271 0.46255 0.50628 0.0
C483 C 0.90902 0.368 0.50867 0.0
H484 H 0.78997 0.39319 0.50652 0.0
C485 C 0.93364 0.40786 0.50955 0.0
C486 C 0.90668 0.44252 0.50855 0.0
H487 H 0.93094 0.34196 0.50951 0.0
H488 H 0.97384 0.41154 0.51125 0.0
C489 C 0.85454 0.43643 0.5069 0.0
C490 C 0.38233 0.92198 0.20741 0.0
C491 C 0.33783 0.91538 0.22291 0.0
H492 H 0.45426 0.90208 0.20099 0.0
C493 C 0.32958 0.88 0.24019 0.0
H494 H 0.3897 0.94892 0.19379 0.0
C495 C 0.36644 0.85355 0.24448 0.0
C496 C 0.41235 0.86172 0.23144 0.0
H497 H 0.29543 0.8736 0.25193 0.0
H498 H 0.35942 0.8274 0.25917 0.0
C499 C 0.41936 0.89525 0.21161 0.0
C500 C 0.36383 0.41149 0.70146 0.0
C501 C 0.32284 0.41053 0.72158 0.0
H502 H 0.42512 0.38043 0.68407 0.0
C503 C 0.30959 0.37433 0.73666 0.0
H504 H 0.37494 0.43874 0.68925 0.0
C505 C 0.33824 0.34095 0.73364 0.0
C506 C 0.3809 0.3428 0.7154 0.0
H507 H 0.27795 0.37215 0.75198 0.0
H508 H 0.3278 0.31427 0.74682 0.0
C509 C 0.39255 0.37794 0.69836 0.0
C510 C 0.20764 0.82994 0.62976 0.0
C511 C 0.18588 0.82918 0.59318 0.0
H512 H 0.19552 0.83221 0.68636 0.0
C513 C 0.1359 0.83637 0.5859 0.0
H514 H 0.24632 0.82469 0.63579 0.0
C515 C 0.10654 0.83974 0.61466 0.0
C516 C 0.1274 0.83687 0.65084 0.0
H517 H 0.11853 0.83571 0.55772 0.0
H518 H 0.06702 0.84177 0.60824 0.0
C519 C 0.17865 0.83437 0.65858 0.0
C520 C 0.15044 0.88614 0.33999 0.0
C521 C 0.16802 0.92858 0.34627 0.0
H522 H 0.14482 0.82909 0.36265 0.0
C523 C 0.18817 0.94745 0.3822 0.0
H524 H 0.1348 0.87092 0.3125 0.0
C525 C 0.19439 0.92346 0.41079 0.0
C526 C 0.18023 0.88042 0.40378 0.0
H527 H 0.20213 0.98016 0.38769 0.0
H528 H 0.21256 0.9382 0.4378 0.0
C529 C 0.15643 0.86222 0.36861 0.0
C530 C 0.9099 0.6913 0.63212 0.0
C531 C 0.9534 0.71408 0.65165 0.0
H532 H 0.87901 0.64632 0.58523 0.0
C533 C 0.99764 0.71516 0.63545 0.0
H534 H 0.87523 0.69041 0.644 0.0
C535 C 0.99959 0.69058 0.60174 0.0
C536 C 0.9575 0.66424 0.58424 0.0
H537 H 0.03161 0.73266 0.64996 0.0
H538 H 0.03502 0.68971 0.59099 0.0
C539 C 0.91201 0.66624 0.59855 0.0
C540 C 0.39345 0.73932 0.42926 0.0
C541 C 0.34266 0.74332 0.4208 0.0
H542 H 0.46382 0.7372 0.40836 0.0
C543 C 0.32207 0.74257 0.38396 0.0
H544 H 0.40987 0.74013 0.4577 0.0
C545 C 0.35238 0.74018 0.35599 0.0
C546 C 0.40383 0.7395 0.36466 0.0
H547 H 0.28283 0.74543 0.377 0.0
H548 H 0.33585 0.74129 0.3279 0.0
C549 C 0.42415 0.73785 0.40124 0.0
C550 C 0.30584 0.08852 0.10102 0.0
C551 C 0.32841 0.1009 0.13765 0.0
H552 H 0.28619 0.10698 0.04803 0.0
C553 C 0.35496 0.1406 0.14763 0.0
H554 H 0.28521 0.05804 0.09264 0.0
C555 C 0.35536 0.16873 0.1221 0.0
C556 C 0.32932 0.15737 0.08636 0.0
H557 H 0.37267 0.15083 0.17576 0.0
H558 H 0.3735 0.20003 0.13099 0.0
C559 C 0.30632 0.11655 0.07554 0.0
C560 C 0.80075 0.73568 0.86534 0.0
C561 C 0.82229 0.73089 0.90084 0.0
H562 H 0.81091 0.73487 0.80841 0.0
C563 C 0.86992 0.71751 0.90565 0.0
H564 H 0.76386 0.74565 0.86102 0.0
C565 C 0.8972 0.71211 0.87575 0.0
C566 C 0.87655 0.71896 0.84062 0.0
H567 H 0.88725 0.71371 0.93289 0.0
H568 H 0.93511 0.70441 0.88041 0.0
C569 C 0.82748 0.72917 0.83528 0.0
C570 C 0.35735 0.63057 0.64103 0.0
C571 C 0.31973 0.59737 0.63787 0.0
H572 H 0.38272 0.68584 0.6198 0.0
C573 C 0.28122 0.59179 0.60811 0.0
H574 H 0.38726 0.6355 0.66386 0.0
C575 C 0.27786 0.621 0.58386 0.0
C576 C 0.31372 0.65552 0.58833 0.0
H577 H 0.25162 0.56651 0.60507 0.0
H578 H 0.24615 0.61744 0.56247 0.0
C579 C 0.3547 0.65928 0.61598 0.0
C580 C 0.30419 1.00633 0.34447 0.0
C581 C 0.30896 0.04435 0.33064 0.0
H582 H 0.31652 0.97489 0.39142 0.0
C583 C 0.32233 0.08146 0.35516 0.0
H584 H 0.29364 0.97723 0.32605 0.0
C585 C 0.33539 0.08008 0.39281 0.0
C586 C 0.3357 0.0415 0.40587 0.0
H587 H 0.32533 0.11114 0.34501 0.0
H588 H 0.34991 0.10875 0.41084 0.0
C589 C 0.31673 1.00497 0.38196 0.0
C590 C 0.83165 0.89436 0.01252 0.0
C591 C 0.85683 0.85872 0.00733 0.0
H592 H 0.83643 0.96091 0.01786 0.0
C593 C 0.90792 0.86358 0.00395 0.0
H594 H 0.79273 0.89175 0.01637 0.0
C595 C 0.93336 0.90329 0.00599 0.0
C596 C 0.90802 0.93888 0.01081 0.0
H597 H 0.92843 0.83669 0.00023 0.0
H598 H 0.97291 0.9061 0.00408 0.0
C599 C 0.85685 0.93401 0.01381 0.0
C600 C 0.61999 0.16525 0.42945 0.0
C601 C 0.65495 0.18071 0.46055 0.0
H602 H 0.55784 0.12117 0.40589 0.0
C603 C 0.65738 0.159 0.49121 0.0
H604 H 0.61734 0.18112 0.40533 0.0
C605 C 0.62273 0.12408 0.4915 0.0
C606 C 0.58559 0.11066 0.46111 0.0
H607 H 0.68363 0.17054 0.51572 0.0
H608 H 0.62286 0.10956 0.51629 0.0
C609 C 0.58585 0.1308 0.42974 0.0
C610 C 0.82588 0.38584 0.23704 0.0
C611 C 0.8386 0.42151 0.22113 0.0
H612 H 0.84869 0.32999 0.25439 0.0
C613 C 0.8843 0.42564 0.20681 0.0
H614 H 0.79078 0.38139 0.248 0.0
C615 C 0.91788 0.39585 0.21055 0.0
C616 C 0.90627 0.36171 0.22881 0.0
H617 H 0.89523 0.45283 0.19445 0.0
H618 H 0.95362 0.4005 0.20055 0.0
C619 C 0.85933 0.35643 0.24095 0.0
C620 C 0.15724 0.61567 0.48753 0.0
C621 C 0.105 0.60986 0.48515 0.0
H622 H 0.2224 0.65878 0.48961 0.0
C623 C 0.07846 0.64479 0.48461 0.0
H624 H 0.17875 0.58934 0.48783 0.0
C625 C 0.10358 0.68466 0.48667 0.0
C626 C 0.15577 0.69049 0.48867 0.0
H627 H 0.03821 0.64131 0.48234 0.0
H628 H 0.08197 0.71093 0.48616 0.0
C629 C 0.18231 0.6555 0.48887 0.0
C630 C 0.68312 0.16891 0.75729 0.0
C631 C 0.67469 0.13332 0.77427 0.0
H632 H 0.65322 0.2214 0.73809 0.0
C633 C 0.62982 0.12634 0.7892 0.0
H634 H 0.71757 0.17561 0.746 0.0
C635 C 0.59261 0.15283 0.78463 0.0
C636 C 0.59981 0.1865 0.76498 0.0
H637 H 0.62229 0.09923 0.80257 0.0
H638 H 0.55743 0.14568 0.79475 0.0
C639 C 0.64608 0.19512 0.7526 0.0
C640 C 0.86288 0.64468 0.14194 0.0
C641 C 0.83622 0.60492 0.13485 0.0
H642 H 0.8781 0.70264 0.12195 0.0
C643 C 0.81003 0.59067 0.09953 0.0
H644 H 0.88338 0.6563 0.16899 0.0
C645 C 0.80679 0.61718 0.07278 0.0
C646 C 0.82984 0.65818 0.08101 0.0
H647 H 0.78922 0.56008 0.09338 0.0
H648 H 0.78384 0.60637 0.04651 0.0
C649 C 0.85973 0.67119 0.11512 0.0
C650 C 0.89339 0.50582 0.37148 0.0
C651 C 0.91576 0.54129 0.39594 0.0
H652 H 0.84708 0.48176 0.32029 0.0
C653 C 0.90754 0.58077 0.38657 0.0
H654 H 0.89855 0.47495 0.37798 0.0
C655 C 0.87882 0.58467 0.35311 0.0
C656 C 0.85655 0.54921 0.32869 0.0
H657 H 0.92419 0.60873 0.40474 0.0
H658 H 0.87404 0.61548 0.34633 0.0
C659 C 0.86363 0.50973 0.33851 0.0
C660 C 0.15265 0.53954 0.65176 0.0
C661 C 0.14773 0.50133 0.66542 0.0
H662 H 0.12863 0.57458 0.60854 0.0
C663 C 0.11625 0.46796 0.64414 0.0
H664 H 0.17613 0.56595 0.66777 0.0
C665 C 0.09029 0.47251 0.6099 0.0
C666 C 0.0936 0.51106 0.59682 0.0
H667 H 0.11149 0.43827 0.65411 0.0
H668 H 0.06624 0.44619 0.59423 0.0
C669 C 0.12514 0.54456 0.61806 0.0
C670 C 0.61954 0.83843 0.11943 0.0
C671 C 0.64253 0.83084 0.15372 0.0
H672 H 0.62372 0.83505 0.06118 0.0
C673 C 0.68983 0.81677 0.15613 0.0
H674 H 0.58294 0.84917 0.11701 0.0
C675 C 0.71247 0.80781 0.12429 0.0
C676 C 0.68861 0.81362 0.0897 0.0
H677 H 0.7082 0.81054 0.18227 0.0
H678 H 0.74816 0.79544 0.12662 0.0
C679 C 0.64276 0.8303 0.0876 0.0
C680 C 0.64066 0.46499 0.13419 0.0
C681 C 0.6651 0.50115 0.15679 0.0
H682 H 0.59258 0.43918 0.08396 0.0
C683 C 0.66118 0.53963 0.14415 0.0
H684 H 0.64308 0.43482 0.14308 0.0
C685 C 0.63167 0.54216 0.11073 0.0
C686 C 0.60608 0.5062 0.08851 0.0
H687 H 0.67956 0.56807 0.16072 0.0
H688 H 0.62831 0.57255 0.10251 0.0
C689 C 0.6119 0.46743 0.10023 0.0
C690 C 0.35752 0.43641 0.0179 0.0
C691 C 0.40855 0.44212 0.01459 0.0
H692 H 0.29447 0.39323 0.02113 0.0
C693 C 0.43488 0.40704 0.01022 0.0
H694 H 0.33632 0.4629 0.02153 0.0
C695 C 0.4106 0.36705 0.00914 0.0
C696 C 0.35966 0.36137 0.01285 0.0
H697 H 0.47433 0.4105 0.00795 0.0
H698 H 0.43189 0.34059 0.00585 0.0
C699 C 0.33341 0.39648 0.01732 0.0
C700 C 0.08851 0.14432 0.27978 0.0
C701 C 0.10364 0.1808 0.26572 0.0
H702 H 0.10477 0.08272 0.28785 0.0
C703 C 0.14998 0.18478 0.25262 0.0
H704 H 0.05297 0.14056 0.29021 0.0
C705 C 0.17935 0.15212 0.25141 0.0
C706 C 0.16304 0.11453 0.26312 0.0
H707 H 0.16313 0.2128 0.24225 0.0
H708 H 0.2143 0.15602 0.24014 0.0
C709 C 0.11809 0.11127 0.27845 0.0
C710 C 0.20236 0.42574 0.92074 0.0
C711 C 0.18029 0.38442 0.91278 0.0
H712 H 0.21956 0.48247 0.89936 0.0
C713 C 0.15197 0.37024 0.87827 0.0
H714 H 0.22417 0.43737 0.94732 0.0
C715 C 0.1495 0.39592 0.85086 0.0
C716 C 0.17506 0.43609 0.85782 0.0
H717 H 0.13441 0.33851 0.87164 0.0
H718 H 0.13014 0.38348 0.8236 0.0
C719 C 0.19961 0.45154 0.8934 0.0
C720 C 0.29894 0.23693 0.87075 0.0
C721 C 0.32322 0.23159 0.90535 0.0
H722 H 0.30287 0.23413 0.81271 0.0
C723 C 0.36946 0.21557 0.90742 0.0
H724 H 0.26294 0.24877 0.86843 0.0
C725 C 0.39263 0.20768 0.87554 0.0
C726 C 0.36924 0.21488 0.84124 0.0
H727 H 0.38881 0.21119 0.93386 0.0
H728 H 0.42952 0.1975 0.87794 0.0
C729 C 0.32156 0.22821 0.83886 0.0
C730 C 0.39237 0.5807 0.89308 0.0
C731 C 0.39811 0.54202 0.90502 0.0
H732 H 0.36154 0.61306 0.84991 0.0
C733 C 0.37226 0.50603 0.883 0.0
H734 H 0.41186 0.60899 0.90918 0.0
C735 C 0.34274 0.50841 0.84951 0.0
C736 C 0.33909 0.54677 0.83656 0.0
H737 H 0.37553 0.4757 0.89139 0.0
H738 H 0.32437 0.4799 0.83304 0.0
C739 C 0.36365 0.58298 0.85904 0.0
C740 C 0.67445 0.64966 0.97737 0.0
C741 C 0.6493 0.68538 0.98171 0.0
H742 H 0.66947 0.58318 0.97294 0.0
C743 C 0.59817 0.68076 0.98505 0.0
H744 H 0.71352 0.65209 0.97391 0.0
C745 C 0.57262 0.64118 0.98369 0.0
C746 C 0.59784 0.60548 0.97937 0.0
H747 H 0.57772 0.70773 0.98825 0.0
H748 H 0.53307 0.63851 0.98568 0.0
C749 C 0.64907 0.61015 0.97648 0.0
C750 C 0.86107 0.8636 0.74237 0.0
C751 C 0.90779 0.86767 0.72988 0.0
H752 H 0.79651 0.89234 0.75421 0.0
C753 C 0.92345 0.90433 0.71627 0.0
H754 H 0.84751 0.83545 0.75234 0.0
C755 C 0.89398 0.93745 0.71748 0.0
C756 C 0.8486 0.93407 0.7322 0.0
H757 H 0.95929 0.90815 0.70628 0.0
H758 H 0.90772 0.96614 0.7085 0.0
C759 C 0.83179 0.89632 0.74341 0.0
C760 C 0.42443 0.13647 0.63249 0.0
C761 C 0.46191 0.16678 0.65185 0.0
H762 H 0.40347 0.08653 0.58727 0.0
C763 C 0.50871 0.16954 0.63898 0.0
H764 H 0.38808 0.13329 0.6418 0.0
C765 C 0.51813 0.14156 0.60834 0.0
C766 C 0.48052 0.11105 0.58909 0.0
H767 H 0.53856 0.1922 0.65341 0.0
H768 H 0.55489 0.14383 0.59966 0.0
C769 C 0.43329 0.10954 0.60123 0.0
C770 C 0.56767 0.36698 0.83456 0.0
C771 C 0.52533 0.33956 0.81899 0.0
H772 H 0.60193 0.41327 0.87934 0.0
C773 C 0.48493 0.33602 0.83949 0.0
H774 H 0.59951 0.37033 0.81956 0.0
C775 C 0.48611 0.36139 0.87402 0.0
C776 C 0.52797 0.39012 0.88868 0.0
H777 H 0.4517 0.31532 0.82808 0.0
H778 H 0.4537 0.3596 0.88856 0.0
C779 C 0.56914 0.39163 0.86896 0.0
C780 C 0.50523 0.87834 0.35668 0.0
C781 C 0.55182 0.88043 0.34347 0.0
H782 H 0.45993 0.90493 0.39624 0.0
C783 C 0.58988 0.91041 0.36257 0.0
H784 H 0.47494 0.85597 0.34247 0.0
C785 C 0.58177 0.9377 0.39386 0.0
C786 C 0.53472 0.9369 0.40629 0.0
H787 H 0.6261 0.91309 0.353 0.0
H788 H 0.612 0.96046 0.40758 0.0
C789 C 0.49657 0.90667 0.38734 0.0
C790 C 0.52083 0.68645 0.11995 0.0
C791 C 0.47871 0.65777 0.10582 0.0
H792 H 0.55657 0.73224 0.16567 0.0
C793 C 0.43846 0.656 0.12645 0.0
H794 H 0.55258 0.68844 0.10474 0.0
C795 C 0.44106 0.68039 0.16111 0.0
C796 C 0.48366 0.70781 0.1761 0.0
H797 H 0.40552 0.63437 0.11653 0.0
H798 H 0.40988 0.67688 0.17674 0.0
C799 C 0.52316 0.71155 0.15476 0.0
loop_
_geom_bond_atom_site_label_1
_geom_bond_atom_site_label_2
_geom_bond_distance
_geom_bond_site_symmetry_2
_ccdc_geom_bond_type
Tb0 O3 2.453 1_565 S
Tb0 O4 2.596 1_566 S
Tb0 O5 2.374 1_556 S
Tb0 O13 2.343 1_455 S
Tb0 O15 2.353 1_465 S
Tb0 O17 2.427 . S
Tb0 O18 2.513 . S
C1 O5 1.251 . S
C1 O7 1.263 1_565 S
Tb2 O4 2.343 1_655 S
Tb2 O7 2.353 1_655 S
Tb2 O10 2.427 . S
Tb2 O11 2.513 . S
Tb2 O12 2.453 1_545 S
Tb2 O13 2.596 1_544 S
Tb2 O14 2.374 1_554 S
O3 Tb0 2.453 1_545 S
O3 C19 1.245 1_556 S
O4 Tb0 2.596 1_544 S
O4 Tb2 2.343 1_455 S
O4 C19 1.259 . S
O5 Tb0 2.374 1_554 S
O5 C1 1.251 . S
C6 O10 1.275 . S
C6 O11 1.246 . S
O7 C1 1.263 1_545 S
O7 Tb2 2.353 1_455 S
C8 O12 1.245 . S
C8 O13 1.259 1_554 S
C9 O14 1.250 . S
C9 O15 1.263 . S
O10 Tb2 2.427 . S
O10 C6 1.275 . S
O11 Tb2 2.513 . S
O11 C6 1.246 . S
O12 Tb2 2.453 1_565 S
O12 C8 1.245 . S
O13 Tb0 2.343 1_655 S
O13 Tb2 2.596 1_566 S
O13 C8 1.259 1_556 S
O14 Tb2 2.374 1_556 S
O14 C9 1.250 . S
O15 Tb0 2.353 1_645 S
O15 C9 1.263 . S
C16 O17 1.275 . S
C16 O18 1.246 . S
O17 Tb0 2.427 . S
O17 C16 1.275 . S
O18 Tb0 2.513 . S
O18 C16 1.246 . S
C19 O3 1.245 1_554 S
C19 O4 1.259 . S
Tb20 O23 2.453 . S
Tb20 O24 2.596 1_655 S
Tb20 O25 2.374 1_655 S
Tb20 O33 2.343 1_655 S
Tb20 O35 2.353 . S
Tb20 O37 2.427 . S
Tb20 O38 2.513 . S
C21 O25 1.251 . S
C21 O27 1.263 . S
Tb22 O24 2.343 . S
Tb22 O27 2.353 . S
Tb22 O30 2.427 . S
Tb22 O31 2.513 . S
Tb22 O32 2.453 . S
Tb22 O33 2.596 . S
Tb22 O34 2.374 1_455 S
O23 Tb20 2.453 . S
O23 C39 1.245 . S
O24 Tb20 2.596 1_455 S
O24 Tb22 2.343 . S
O24 C39 1.259 1_455 S
O25 Tb20 2.374 1_455 S
O25 C21 1.251 . S
C26 O30 1.275 . S
C26 O31 1.246 . S
O27 C21 1.263 . S
O27 Tb22 2.353 . S
C28 O32 1.245 . S
C28 O33 1.259 . S
C29 O34 1.250 . S
C29 O35 1.263 . S
O30 Tb22 2.427 . S
O30 C26 1.275 . S
O31 Tb22 2.513 . S
O31 C26 1.246 . S
O32 Tb22 2.453 . S
O32 C28 1.245 . S
O33 Tb20 2.343 1_455 S
O33 Tb22 2.596 . S
O33 C28 1.259 . S
O34 Tb22 2.374 1_655 S
O34 C29 1.250 . S
O35 Tb20 2.353 . S
O35 C29 1.263 . S
C36 O37 1.275 . S
C36 O38 1.246 . S
O37 Tb20 2.427 . S
O37 C36 1.275 . S
O38 Tb20 2.513 . S
O38 C36 1.246 . S
C39 O23 1.245 . S
C39 O24 1.259 1_655 S
Tb40 O43 2.453 . S
Tb40 O44 2.596 . S
Tb40 O45 2.374 . S
Tb40 O53 2.343 . S
Tb40 O55 2.353 . S
Tb40 O57 2.427 . S
Tb40 O58 2.513 . S
C41 O45 1.251 . S
C41 O47 1.263 . S
Tb42 O44 2.343 . S
Tb42 O47 2.353 . S
Tb42 O50 2.427 . S
Tb42 O51 2.513 . S
Tb42 O52 2.453 . S
Tb42 O53 2.596 . S
Tb42 O54 2.374 . S
O43 Tb40 2.453 . S
O43 C59 1.245 . S
O44 Tb40 2.596 . S
O44 Tb42 2.343 . S
O44 C59 1.259 . S
O45 Tb40 2.374 . S
O45 C41 1.251 . S
C46 O50 1.275 . S
C46 O51 1.246 . S
O47 C41 1.263 . S
O47 Tb42 2.353 . S
C48 O52 1.245 . S
C48 O53 1.259 . S
C49 O54 1.250 . S
C49 O55 1.263 . S
O50 Tb42 2.427 . S
O50 C46 1.275 . S
O51 Tb42 2.513 . S
O51 C46 1.246 . S
O52 Tb42 2.453 . S
O52 C48 1.245 . S
O53 Tb40 2.343 . S
O53 Tb42 2.596 . S
O53 C48 1.259 . S
O54 Tb42 2.374 . S
O54 C49 1.250 . S
O55 Tb40 2.353 . S
O55 C49 1.263 . S
C56 O57 1.275 . S
C56 O58 1.246 . S
O57 Tb40 2.427 . S
O57 C56 1.275 . S
O58 Tb40 2.513 . S
O58 C56 1.246 . S
C59 O43 1.245 . S
C59 O44 1.259 . S
Tb60 O63 2.453 . S
Tb60 O64 2.596 . S
Tb60 O65 2.374 . S
Tb60 O73 2.343 . S
Tb60 O75 2.353 . S
Tb60 O77 2.427 . S
Tb60 O78 2.513 . S
C61 O65 1.251 1_565 S
C61 O67 1.263 . S
Tb62 O64 2.343 1_565 S
Tb62 O67 2.353 . S
Tb62 O70 2.427 . S
Tb62 O71 2.513 . S
Tb62 O72 2.453 . S
Tb62 O73 2.596 1_565 S
Tb62 O74 2.374 1_565 S
O63 Tb60 2.453 . S
O63 C79 1.245 . S
O64 Tb60 2.596 . S
O64 Tb62 2.343 1_545 S
O64 C79 1.259 . S
O65 Tb60 2.374 . S
O65 C61 1.251 1_545 S
C66 O70 1.275 . S
C66 O71 1.246 . S
O67 C61 1.263 . S
O67 Tb62 2.353 . S
C68 O72 1.245 1_545 S
C68 O73 1.259 . S
C69 O74 1.250 . S
C69 O75 1.263 . S
O70 Tb62 2.427 . S
O70 C66 1.275 . S
O71 Tb62 2.513 . S
O71 C66 1.246 . S
O72 Tb62 2.453 . S
O72 C68 1.245 1_565 S
O73 Tb60 2.343 . S
O73 Tb62 2.596 1_545 S
O73 C68 1.259 . S
O74 Tb62 2.374 1_545 S
O74 C69 1.250 . S
O75 Tb60 2.353 . S
O75 C69 1.263 . S
C76 O77 1.275 . S
C76 O78 1.246 . S
O77 Tb60 2.427 . S
O77 C76 1.275 . S
O78 Tb60 2.513 . S
O78 C76 1.246 . S
C79 O63 1.245 . S
C79 O64 1.259 . S
Tb80 O83 2.453 . S
Tb80 O84 2.596 . S
Tb80 O85 2.374 . S
Tb80 O93 2.343 . S
Tb80 O95 2.353 . S
Tb80 O97 2.427 . S
Tb80 O98 2.513 . S
C81 O85 1.251 . S
C81 O87 1.263 . S
Tb82 O84 2.343 . S
Tb82 O87 2.353 . S
Tb82 O90 2.427 . S
Tb82 O91 2.513 . S
Tb82 O92 2.453 . S
Tb82 O93 2.596 . S
Tb82 O94 2.374 . S
O83 Tb80 2.453 . S
O83 C99 1.245 . S
O84 Tb80 2.596 . S
O84 Tb82 2.343 . S
O84 C99 1.259 . S
O85 Tb80 2.374 . S
O85 C81 1.251 . S
C86 O90 1.275 . S
C86 O91 1.246 . S
O87 C81 1.263 . S
O87 Tb82 2.353 . S
C88 O92 1.245 . S
C88 O93 1.259 . S
C89 O94 1.250 . S
C89 O95 1.263 . S
O90 Tb82 2.427 . S
O90 C86 1.275 . S
O91 Tb82 2.513 . S
O91 C86 1.246 . S
O92 Tb82 2.453 . S
O92 C88 1.245 . S
O93 Tb80 2.343 . S
O93 Tb82 2.596 . S
O93 C88 1.259 . S
O94 Tb82 2.374 . S
O94 C89 1.250 . S
O95 Tb80 2.353 . S
O95 C89 1.263 . S
C96 O97 1.275 . S
C96 O98 1.246 . S
O97 Tb80 2.427 . S
O97 C96 1.275 . S
O98 Tb80 2.513 . S
O98 C96 1.246 . S
C99 O83 1.245 . S
C99 O84 1.259 . S
Tb100 O103 2.453 . S
Tb100 O104 2.596 . S
Tb100 O105 2.374 . S
Tb100 O113 2.343 . S
Tb100 O115 2.353 . S
Tb100 O117 2.427 . S
Tb100 O118 2.513 . S
C101 O105 1.251 . S
C101 O107 1.263 . S
Tb102 O104 2.343 . S
Tb102 O107 2.353 . S
Tb102 O110 2.427 . S
Tb102 O111 2.513 . S
Tb102 O112 2.453 . S
Tb102 O113 2.596 . S
Tb102 O114 2.374 . S
O103 Tb100 2.453 . S
O103 C119 1.245 . S
O104 Tb100 2.596 . S
O104 Tb102 2.343 . S
O104 C119 1.259 . S
O105 Tb100 2.374 . S
O105 C101 1.251 . S
C106 O110 1.275 . S
C106 O111 1.246 . S
O107 C101 1.263 . S
O107 Tb102 2.353 . S
C108 O112 1.245 . S
C108 O113 1.259 . S
C109 O114 1.250 . S
C109 O115 1.263 . S
O110 Tb102 2.427 . S
O110 C106 1.275 . S
O111 Tb102 2.513 . S
O111 C106 1.246 . S
O112 Tb102 2.453 . S
O112 C108 1.245 . S
O113 Tb100 2.343 . S
O113 Tb102 2.596 . S
O113 C108 1.259 . S
O114 Tb102 2.374 . S
O114 C109 1.250 . S
O115 Tb100 2.353 . S
O115 C109 1.263 . S
C116 O117 1.275 . S
C116 O118 1.246 . S
O117 Tb100 2.427 . S
O117 C116 1.275 . S
O118 Tb100 2.513 . S
O118 C116 1.246 . S
C119 O103 1.245 . S
C119 O104 1.259 . S
Tb120 O123 2.453 . S
Tb120 O124 2.596 . S
Tb120 O125 2.374 . S
Tb120 O133 2.343 . S
Tb120 O135 2.353 . S
Tb120 O137 2.427 . S
Tb120 O138 2.513 . S
C121 O125 1.251 . S
C121 O127 1.263 . S
Tb122 O124 2.343 . S
Tb122 O127 2.353 . S
Tb122 O130 2.427 . S
Tb122 O131 2.513 . S
Tb122 O132 2.453 . S
Tb122 O133 2.596 . S
Tb122 O134 2.374 . S
O123 Tb120 2.453 . S
O123 C139 1.245 . S
O124 Tb120 2.596 . S
O124 Tb122 2.343 . S
O124 C139 1.259 . S
O125 Tb120 2.374 . S
O125 C121 1.251 . S
C126 O130 1.275 . S
C126 O131 1.246 . S
O127 C121 1.263 . S
O127 Tb122 2.353 . S
C128 O132 1.245 . S
C128 O133 1.259 . S
C129 O134 1.250 . S
C129 O135 1.263 . S
O130 Tb122 2.427 . S
O130 C126 1.275 . S
O131 Tb122 2.513 . S
O131 C126 1.246 . S
O132 Tb122 2.453 . S
O132 C128 1.245 . S
O133 Tb120 2.343 . S
O133 Tb122 2.596 . S
O133 C128 1.259 . S
O134 Tb122 2.374 . S
O134 C129 1.250 . S
O135 Tb120 2.353 . S
O135 C129 1.263 . S
C136 O137 1.275 . S
C136 O138 1.246 . S
O137 Tb120 2.427 . S
O137 C136 1.275 . S
O138 Tb120 2.513 . S
O138 C136 1.246 . S
C139 O123 1.245 . S
C139 O124 1.259 . S
Tb140 O143 2.453 . S
Tb140 O144 2.596 . S
Tb140 O145 2.374 . S
Tb140 O153 2.343 1_455 S
Tb140 O155 2.353 1_455 S
Tb140 O157 2.427 . S
Tb140 O158 2.513 . S
C141 O145 1.251 . S
C141 O147 1.263 . S
Tb142 O144 2.343 1_655 S
Tb142 O147 2.353 1_655 S
Tb142 O150 2.427 . S
Tb142 O151 2.513 . S
Tb142 O152 2.453 . S
Tb142 O153 2.596 . S
Tb142 O154 2.374 . S
O143 Tb140 2.453 . S
O143 C159 1.245 . S
O144 Tb140 2.596 . S
O144 Tb142 2.343 1_455 S
O144 C159 1.259 . S
O145 Tb140 2.374 . S
O145 C141 1.251 . S
C146 O150 1.275 . S
C146 O151 1.246 . S
O147 C141 1.263 . S
O147 Tb142 2.353 1_455 S
C148 O152 1.245 . S
C148 O153 1.259 . S
C149 O154 1.250 . S
C149 O155 1.263 . S
O150 Tb142 2.427 . S
O150 C146 1.275 . S
O151 Tb142 2.513 . S
O151 C146 1.246 . S
O152 Tb142 2.453 . S
O152 C148 1.245 . S
O153 Tb140 2.343 1_655 S
O153 Tb142 2.596 . S
O153 C148 1.259 . S
O154 Tb142 2.374 . S
O154 C149 1.250 . S
O155 Tb140 2.353 1_655 S
O155 C149 1.263 . S
C156 O157 1.275 . S
C156 O158 1.246 . S
O157 Tb140 2.427 . S
O157 C156 1.275 . S
O158 Tb140 2.513 . S
O158 C156 1.246 . S
C159 O143 1.245 . S
C159 O144 1.259 . S
Tb160 O163 2.453 . S
Tb160 O164 2.596 1_556 S
Tb160 O165 2.374 1_556 S
Tb160 O173 2.343 . S
Tb160 O175 2.353 . S
Tb160 O177 2.427 . S
Tb160 O178 2.513 . S
C161 O165 1.251 . S
C161 O167 1.263 . S
Tb162 O164 2.343 . S
Tb162 O167 2.353 . S
Tb162 O170 2.427 . S
Tb162 O171 2.513 . S
Tb162 O172 2.453 . S
Tb162 O173 2.596 1_554 S
Tb162 O174 2.374 1_554 S
O163 Tb160 2.453 . S
O163 C179 1.245 . S
O164 Tb160 2.596 1_554 S
O164 Tb162 2.343 . S
O164 C179 1.259 1_554 S
O165 Tb160 2.374 1_554 S
O165 C161 1.251 . S
C166 O170 1.275 . S
C166 O171 1.246 . S
O167 C161 1.263 . S
O167 Tb162 2.353 . S
C168 O172 1.245 . S
C168 O173 1.259 1_554 S
C169 O174 1.250 . S
C169 O175 1.263 . S
O170 Tb162 2.427 . S
O170 C166 1.275 . S
O171 Tb162 2.513 . S
O171 C166 1.246 . S
O172 Tb162 2.453 . S
O172 C168 1.245 . S
O173 Tb160 2.343 . S
O173 Tb162 2.596 1_556 S
O173 C168 1.259 1_556 S
O174 Tb162 2.374 1_556 S
O174 C169 1.250 . S
O175 Tb160 2.353 . S
O175 C169 1.263 . S
C176 O177 1.275 . S
C176 O178 1.246 . S
O177 Tb160 2.427 . S
O177 C176 1.275 . S
O178 Tb160 2.513 . S
O178 C176 1.246 . S
C179 O163 1.245 . S
C179 O164 1.259 1_556 S
Tb180 O183 2.453 . S
Tb180 O184 2.596 . S
Tb180 O185 2.374 1_545 S
Tb180 O193 2.343 . S
Tb180 O195 2.353 . S
Tb180 O197 2.427 . S
Tb180 O198 2.513 . S
C181 O185 1.251 . S
C181 O187 1.263 . S
Tb182 O184 2.343 1_565 S
Tb182 O187 2.353 . S
Tb182 O190 2.427 . S
Tb182 O191 2.513 . S
Tb182 O192 2.453 . S
Tb182 O193 2.596 1_565 S
Tb182 O194 2.374 1_565 S
O183 Tb180 2.453 . S
O183 C199 1.245 . S
O184 Tb180 2.596 . S
O184 Tb182 2.343 1_545 S
O184 C199 1.259 . S
O185 Tb180 2.374 1_565 S
O185 C181 1.251 . S
C186 O190 1.275 . S
C186 O191 1.246 . S
O187 C181 1.263 . S
O187 Tb182 2.353 . S
C188 O192 1.245 . S
C188 O193 1.259 1_565 S
C189 O194 1.250 . S
C189 O195 1.263 . S
O190 Tb182 2.427 . S
O190 C186 1.275 . S
O191 Tb182 2.513 . S
O191 C186 1.246 . S
O192 Tb182 2.453 . S
O192 C188 1.245 . S
O193 Tb180 2.343 . S
O193 Tb182 2.596 1_545 S
O193 C188 1.259 1_545 S
O194 Tb182 2.374 1_545 S
O194 C189 1.250 . S
O195 Tb180 2.353 . S
O195 C189 1.263 . S
C196 O197 1.275 . S
C196 O198 1.246 . S
O197 Tb180 2.427 . S
O197 C196 1.275 . S
O198 Tb180 2.513 . S
O198 C196 1.246 . S
C199 O183 1.245 . S
C199 O184 1.259 . S
Tb200 O203 2.453 . S
Tb200 O204 2.596 . S
Tb200 O205 2.374 . S
Tb200 O213 2.343 . S
Tb200 O215 2.353 . S
Tb200 O217 2.427 . S
Tb200 O218 2.513 . S
C201 O205 1.251 . S
C201 O207 1.263 . S
Tb202 O204 2.343 . S
Tb202 O207 2.353 . S
Tb202 O210 2.427 . S
Tb202 O211 2.513 . S
Tb202 O212 2.453 . S
Tb202 O213 2.596 . S
Tb202 O214 2.374 . S
O203 Tb200 2.453 . S
O203 C219 1.245 . S
O204 Tb200 2.596 . S
O204 Tb202 2.343 . S
O204 C219 1.259 . S
O205 Tb200 2.374 . S
O205 C201 1.251 . S
C206 O210 1.275 . S
C206 O211 1.246 . S
O207 C201 1.263 . S
O207 Tb202 2.353 . S
C208 O212 1.245 . S
C208 O213 1.259 . S
C209 O214 1.250 . S
C209 O215 1.263 . S
O210 Tb202 2.427 . S
O210 C206 1.275 . S
O211 Tb202 2.513 . S
O211 C206 1.246 . S
O212 Tb202 2.453 . S
O212 C208 1.245 . S
O213 Tb200 2.343 . S
O213 Tb202 2.596 . S
O213 C208 1.259 . S
O214 Tb202 2.374 . S
O214 C209 1.250 . S
O215 Tb200 2.353 . S
O215 C209 1.263 . S
C216 O217 1.275 . S
C216 O218 1.246 . S
O217 Tb200 2.427 . S
O217 C216 1.275 . S
O218 Tb200 2.513 . S
O218 C216 1.246 . S
C219 O203 1.245 . S
C219 O204 1.259 . S
Tb220 O223 2.453 . S
Tb220 O224 2.596 1_655 S
Tb220 O225 2.374 1_655 S
Tb220 O233 2.343 1_655 S
Tb220 O235 2.353 . S
Tb220 O237 2.427 . S
Tb220 O238 2.513 . S
C221 O225 1.251 . S
C221 O227 1.263 . S
Tb222 O224 2.343 . S
Tb222 O227 2.353 . S
Tb222 O230 2.427 . S
Tb222 O231 2.513 . S
Tb222 O232 2.453 . S
Tb222 O233 2.596 . S
Tb222 O234 2.374 1_455 S
O223 Tb220 2.453 . S
O223 C239 1.245 . S
O224 Tb220 2.596 1_455 S
O224 Tb222 2.343 . S
O224 C239 1.259 1_455 S
O225 Tb220 2.374 1_455 S
O225 C221 1.251 . S
C226 O230 1.275 . S
C226 O231 1.246 . S
O227 C221 1.263 . S
O227 Tb222 2.353 . S
C228 O232 1.245 . S
C228 O233 1.259 . S
C229 O234 1.250 . S
C229 O235 1.263 . S
O230 Tb222 2.427 . S
O230 C226 1.275 . S
O231 Tb222 2.513 . S
O231 C226 1.246 . S
O232 Tb222 2.453 . S
O232 C228 1.245 . S
O233 Tb220 2.343 1_455 S
O233 Tb222 2.596 . S
O233 C228 1.259 . S
O234 Tb222 2.374 1_655 S
O234 C229 1.250 . S
O235 Tb220 2.353 . S
O235 C229 1.263 . S
C236 O237 1.275 . S
C236 O238 1.246 . S
O237 Tb220 2.427 . S
O237 C236 1.275 . S
O238 Tb220 2.513 . S
O238 C236 1.246 . S
C239 O223 1.245 . S
C239 O224 1.259 1_655 S
Tb240 O243 2.453 . S
Tb240 O244 2.596 . S
Tb240 O245 2.374 . S
Tb240 O253 2.343 . S
Tb240 O255 2.353 . S
Tb240 O257 2.427 . S
Tb240 O258 2.513 . S
C241 O245 1.251 . S
C241 O247 1.263 . S
Tb242 O244 2.343 . S
Tb242 O247 2.353 . S
Tb242 O250 2.427 . S
Tb242 O251 2.513 . S
Tb242 O252 2.453 . S
Tb242 O253 2.596 . S
Tb242 O254 2.374 . S
O243 Tb240 2.453 . S
O243 C259 1.245 . S
O244 Tb240 2.596 . S
O244 Tb242 2.343 . S
O244 C259 1.259 . S
O245 Tb240 2.374 . S
O245 C241 1.251 . S
C246 O250 1.275 . S
C246 O251 1.246 . S
O247 C241 1.263 . S
O247 Tb242 2.353 . S
C248 O252 1.245 . S
C248 O253 1.259 . S
C249 O254 1.250 . S
C249 O255 1.263 . S
O250 Tb242 2.427 . S
O250 C246 1.275 . S
O251 Tb242 2.513 . S
O251 C246 1.246 . S
O252 Tb242 2.453 . S
O252 C248 1.245 . S
O253 Tb240 2.343 . S
O253 Tb242 2.596 . S
O253 C248 1.259 . S
O254 Tb242 2.374 . S
O254 C249 1.250 . S
O255 Tb240 2.353 . S
O255 C249 1.263 . S
C256 O257 1.275 . S
C256 O258 1.246 . S
O257 Tb240 2.427 . S
O257 C256 1.275 . S
O258 Tb240 2.513 . S
O258 C256 1.246 . S
C259 O243 1.245 . S
C259 O244 1.259 . S
Tb260 O263 2.453 . S
Tb260 O264 2.596 1_556 S
Tb260 O265 2.374 1_556 S
Tb260 O273 2.343 1_556 S
Tb260 O275 2.353 . S
Tb260 O277 2.427 . S
Tb260 O278 2.513 . S
C261 O265 1.251 . S
C261 O267 1.263 . S
Tb262 O264 2.343 . S
Tb262 O267 2.353 . S
Tb262 O270 2.427 . S
Tb262 O271 2.513 . S
Tb262 O272 2.453 . S
Tb262 O273 2.596 . S
Tb262 O274 2.374 1_554 S
O263 Tb260 2.453 . S
O263 C279 1.245 . S
O264 Tb260 2.596 1_554 S
O264 Tb262 2.343 . S
O264 C279 1.259 1_554 S
O265 Tb260 2.374 1_554 S
O265 C261 1.251 . S
C266 O270 1.275 . S
C266 O271 1.246 . S
O267 C261 1.263 . S
O267 Tb262 2.353 . S
C268 O272 1.245 . S
C268 O273 1.259 . S
C269 O274 1.250 . S
C269 O275 1.263 . S
O270 Tb262 2.427 . S
O270 C266 1.275 . S
O271 Tb262 2.513 . S
O271 C266 1.246 . S
O272 Tb262 2.453 . S
O272 C268 1.245 . S
O273 Tb260 2.343 1_554 S
O273 Tb262 2.596 . S
O273 C268 1.259 . S
O274 Tb262 2.374 1_556 S
O274 C269 1.250 . S
O275 Tb260 2.353 . S
O275 C269 1.263 . S
C276 O277 1.275 . S
C276 O278 1.246 . S
O277 Tb260 2.427 . S
O277 C276 1.275 . S
O278 Tb260 2.513 . S
O278 C276 1.246 . S
C279 O263 1.245 . S
C279 O264 1.259 1_556 S
Tb280 O283 2.453 . S
Tb280 O284 2.596 . S
Tb280 O285 2.374 . S
Tb280 O293 2.343 1_565 S
Tb280 O295 2.353 1_565 S
Tb280 O297 2.427 1_565 S
Tb280 O298 2.513 . S
C281 O285 1.251 . S
C281 O287 1.263 . S
Tb282 O284 2.343 1_545 S
Tb282 O287 2.353 1_545 S
Tb282 O290 2.427 . S
Tb282 O291 2.513 . S
Tb282 O292 2.453 . S
Tb282 O293 2.596 . S
Tb282 O294 2.374 . S
O283 Tb280 2.453 . S
O283 C299 1.245 . S
O284 Tb280 2.596 . S
O284 Tb282 2.343 1_565 S
O284 C299 1.259 . S
O285 Tb280 2.374 . S
O285 C281 1.251 . S
C286 O290 1.275 . S
C286 O291 1.246 . S
O287 C281 1.263 . S
O287 Tb282 2.353 1_565 S
C288 O292 1.245 . S
C288 O293 1.259 . S
C289 O294 1.250 . S
C289 O295 1.263 . S
O290 Tb282 2.427 . S
O290 C286 1.275 . S
O291 Tb282 2.513 . S
O291 C286 1.246 . S
O292 Tb282 2.453 . S
O292 C288 1.245 . S
O293 Tb280 2.343 1_545 S
O293 Tb282 2.596 . S
O293 C288 1.259 . S
O294 Tb282 2.374 . S
O294 C289 1.250 . S
O295 Tb280 2.353 1_545 S
O295 C289 1.263 . S
C296 O297 1.275 . S
C296 O298 1.246 1_545 S
O297 Tb280 2.427 1_545 S
O297 C296 1.275 . S
O298 Tb280 2.513 . S
O298 C296 1.246 1_565 S
C299 O283 1.245 . S
C299 O284 1.259 . S
Tb300 O303 2.453 . S
Tb300 O304 2.596 1_556 S
Tb300 O305 2.374 1_556 S
Tb300 O313 2.343 . S
Tb300 O315 2.353 . S
Tb300 O317 2.427 . S
Tb300 O318 2.513 . S
C301 O305 1.251 . S
C301 O307 1.263 . S
Tb302 O304 2.343 . S
Tb302 O307 2.353 . S
Tb302 O310 2.427 . S
Tb302 O311 2.513 . S
Tb302 O312 2.453 . S
Tb302 O313 2.596 1_554 S
Tb302 O314 2.374 1_554 S
O303 Tb300 2.453 . S
O303 C319 1.245 1_556 S
O304 Tb300 2.596 1_554 S
O304 Tb302 2.343 . S
O304 C319 1.259 . S
O305 Tb300 2.374 1_554 S
O305 C301 1.251 . S
C306 O310 1.275 . S
C306 O311 1.246 . S
O307 C301 1.263 . S
O307 Tb302 2.353 . S
C308 O312 1.245 . S
C308 O313 1.259 1_554 S
C309 O314 1.250 . S
C309 O315 1.263 . S
O310 Tb302 2.427 . S
O310 C306 1.275 . S
O311 Tb302 2.513 . S
O311 C306 1.246 . S
O312 Tb302 2.453 . S
O312 C308 1.245 . S
O313 Tb300 2.343 . S
O313 Tb302 2.596 1_556 S
O313 C308 1.259 1_556 S
O314 Tb302 2.374 1_556 S
O314 C309 1.250 . S
O315 Tb300 2.353 . S
O315 C309 1.263 . S
C316 O317 1.275 . S
C316 O318 1.246 . S
O317 Tb300 2.427 . S
O317 C316 1.275 . S
O318 Tb300 2.513 . S
O318 C316 1.246 . S
C319 O303 1.245 1_554 S
C319 O304 1.259 . S
C320 C321 1.387 . S
C320 H324 0.950 . S
C320 C329 1.390 . S
C321 C320 1.387 . S
C321 C323 1.387 1_655 S
H322 C329 0.950 . S
C323 C321 1.387 1_455 S
C323 C325 1.390 . S
C323 H327 0.950 . S
H324 C320 0.950 . S
C325 C323 1.390 . S
C325 C326 1.387 1_455 S
C325 H328 0.950 . S
C326 C325 1.387 1_655 S
C326 C329 1.387 . S
H327 C323 0.950 . S
H328 C325 0.950 . S
C329 C320 1.390 . S
C329 H322 0.950 . S
C329 C326 1.387 . S
C330 C331 1.387 . S
C330 H334 0.950 . S
C330 C339 1.390 . S
C331 C330 1.387 . S
C331 C333 1.387 . S
H332 C339 0.950 . S
C333 C331 1.387 . S
C333 C335 1.390 . S
C333 H337 0.950 . S
H334 C330 0.950 . S
C335 C333 1.390 . S
C335 C336 1.387 . S
C335 H338 0.950 . S
C336 C335 1.387 . S
C336 C339 1.387 . S
H337 C333 0.950 . S
H338 C335 0.950 . S
C339 C330 1.390 . S
C339 H332 0.950 . S
C339 C336 1.387 . S
C340 C341 1.387 . S
C340 H344 0.950 . S
C340 C349 1.390 . S
C341 C340 1.387 . S
C341 C343 1.387 . S
H342 C349 0.950 . S
C343 C341 1.387 . S
C343 C345 1.390 . S
C343 H347 0.950 . S
H344 C340 0.950 . S
C345 C343 1.390 . S
C345 C346 1.387 . S
C345 H348 0.950 . S
C346 C345 1.387 . S
C346 C349 1.387 . S
H347 C343 0.950 . S
H348 C345 0.950 . S
C349 C340 1.390 . S
C349 H342 0.950 . S
C349 C346 1.387 . S
C350 C351 1.387 . S
C350 H354 0.950 . S
C350 C359 1.390 . S
C351 C350 1.387 . S
C351 C353 1.387 1_545 S
H352 C359 0.950 . S
C353 C351 1.387 1_565 S
C353 C355 1.390 . S
C353 H357 0.950 . S
H354 C350 0.950 . S
C355 C353 1.390 . S
C355 C356 1.387 1_565 S
C355 H358 0.950 . S
C356 C355 1.387 1_545 S
C356 C359 1.387 . S
H357 C353 0.950 . S
H358 C355 0.950 . S
C359 C350 1.390 . S
C359 H352 0.950 . S
C359 C356 1.387 . S
C360 C361 1.387 1_545 S
C360 H364 0.950 . S
C360 C369 1.390 . S
C361 C360 1.387 1_565 S
C361 C363 1.387 . S
H362 C369 0.950 . S
C363 C361 1.387 . S
C363 C365 1.390 . S
C363 H367 0.950 . S
H364 C360 0.950 . S
C365 C363 1.390 . S
C365 C366 1.386 1_565 S
C365 H368 0.950 . S
C366 C365 1.386 1_545 S
C366 C369 1.389 . S
H367 C363 0.950 . S
H368 C365 0.950 . S
C369 C360 1.390 . S
C369 H362 0.950 . S
C369 C366 1.389 . S
C370 C371 1.387 1_655 S
C370 H374 0.950 . S
C370 C379 1.390 . S
C371 C370 1.387 1_455 S
C371 C373 1.387 . S
H372 C379 0.950 . S
C373 C371 1.387 . S
C373 C375 1.390 . S
C373 H377 0.950 . S
H374 C370 0.950 . S
C375 C373 1.390 . S
C375 C376 1.387 . S
C375 H378 0.950 . S
C376 C375 1.387 . S
C376 C379 1.387 1_455 S
H377 C373 0.950 . S
H378 C375 0.950 . S
C379 C370 1.390 . S
C379 H372 0.950 . S
C379 C376 1.387 1_655 S
C380 C381 1.387 . S
C380 H384 0.950 . S
C380 C389 1.390 . S
C381 C380 1.387 . S
C381 C383 1.387 . S
H382 C389 0.950 . S
C383 C381 1.387 . S
C383 C385 1.390 . S
C383 H387 0.950 . S
H384 C380 0.950 . S
C385 C383 1.390 . S
C385 C386 1.387 . S
C385 H388 0.950 . S
C386 C385 1.387 . S
C386 C389 1.387 . S
H387 C383 0.950 . S
H388 C385 0.950 . S
C389 C380 1.390 . S
C389 H382 0.950 . S
C389 C386 1.387 . S
C390 C391 1.387 . S
C390 H394 0.950 . S
C390 C399 1.390 . S
C391 C390 1.387 . S
C391 C393 1.387 . S
H392 C399 0.950 . S
C393 C391 1.387 . S
C393 C395 1.390 . S
C393 H397 0.950 . S
H394 C390 0.950 . S
C395 C393 1.390 . S
C395 C396 1.387 . S
C395 H398 0.950 . S
C396 C395 1.387 . S
C396 C399 1.387 . S
H397 C393 0.950 . S
H398 C395 0.950 . S
C399 C390 1.390 . S
C399 H392 0.950 . S
C399 C396 1.387 . S
C400 C401 1.387 . S
C400 H404 0.950 . S
C400 C409 1.390 . S
C401 C400 1.387 . S
C401 C403 1.387 . S
H402 C409 0.950 . S
C403 C401 1.387 . S
C403 C405 1.390 . S
C403 H407 0.950 . S
H404 C400 0.950 . S
C405 C403 1.390 . S
C405 C406 1.387 . S
C405 H408 0.950 . S
C406 C405 1.387 . S
C406 C409 1.387 . S
H407 C403 0.950 . S
H408 C405 0.950 . S
C409 C400 1.390 . S
C409 H402 0.950 . S
C409 C406 1.387 . S
C410 C411 1.387 . S
C410 H414 0.950 . S
C410 C419 1.390 . S
C411 C410 1.387 . S
C411 C413 1.387 . S
H412 C419 0.950 . S
C413 C411 1.387 . S
C413 C415 1.390 . S
C413 H417 0.950 . S
H414 C410 0.950 . S
C415 C413 1.390 . S
C415 C416 1.387 . S
C415 H418 0.950 . S
C416 C415 1.387 . S
C416 C419 1.387 . S
H417 C413 0.950 . S
H418 C415 0.950 . S
C419 C410 1.390 . S
C419 H412 0.950 . S
C419 C416 1.387 . S
C420 C421 1.387 1_565 S
C420 H424 0.950 . S
C420 C429 1.390 . S
C421 C420 1.387 1_545 S
C421 C423 1.387 . S
H422 C429 0.950 . S
C423 C421 1.387 . S
C423 C425 1.390 . S
C423 H427 0.950 . S
H424 C420 0.950 . S
C425 C423 1.390 . S
C425 C426 1.387 . S
C425 H428 0.950 . S
C426 C425 1.387 . S
C426 C429 1.387 1_545 S
H427 C423 0.950 . S
H428 C425 0.950 . S
C429 C420 1.390 . S
C429 H422 0.950 . S
C429 C426 1.387 1_565 S
C430 C431 1.387 1_655 S
C430 H434 0.950 . S
C430 C439 1.390 . S
C431 C430 1.387 1_455 S
C431 C433 1.387 . S
H432 C439 0.950 . S
C433 C431 1.387 . S
C433 C435 1.390 . S
C433 H437 0.950 . S
H434 C430 0.950 . S
C435 C433 1.390 . S
C435 C436 1.387 . S
C435 H438 0.950 . S
C436 C435 1.387 . S
C436 C439 1.387 1_455 S
H437 C433 0.950 . S
H438 C435 0.950 . S
C439 C430 1.390 . S
C439 H432 0.950 . S
C439 C436 1.387 1_655 S
C440 C441 1.387 . S
C440 H444 0.950 . S
C440 C449 1.390 . S
C441 C440 1.387 . S
C441 C443 1.387 1_554 S
H442 C449 0.950 . S
C443 C441 1.387 1_556 S
C443 C445 1.390 . S
C443 H447 0.950 . S
H444 C440 0.950 . S
C445 C443 1.390 . S
C445 C446 1.387 1_556 S
C445 H448 0.950 . S
C446 C445 1.387 1_554 S
C446 C449 1.387 . S
H447 C443 0.950 . S
H448 C445 0.950 . S
C449 C440 1.390 . S
C449 H442 0.950 . S
C449 C446 1.387 . S
C450 C451 1.387 . S
C450 H454 0.950 . S
C450 C459 1.390 . S
C451 C450 1.387 . S
C451 C453 1.387 . S
H452 C459 0.950 . S
C453 C451 1.387 . S
C453 C455 1.390 . S
C453 H457 0.950 . S
H454 C450 0.950 . S
C455 C453 1.390 . S
C455 C456 1.387 . S
C455 H458 0.950 . S
C456 C455 1.387 . S
C456 C459 1.387 . S
H457 C453 0.950 . S
H458 C455 0.950 . S
C459 C450 1.390 . S
C459 H452 0.950 . S
C459 C456 1.387 . S
C460 C461 1.387 . S
C460 H464 0.950 . S
C460 C469 1.390 . S
C461 C460 1.387 . S
C461 C463 1.387 . S
H462 C469 0.950 . S
C463 C461 1.387 . S
C463 C465 1.390 . S
C463 H467 0.950 . S
H464 C460 0.950 . S
C465 C463 1.390 . S
C465 C466 1.387 . S
C465 H468 0.950 . S
C466 C465 1.387 . S
C466 C469 1.387 . S
H467 C463 0.950 . S
H468 C465 0.950 . S
C469 C460 1.390 . S
C469 H462 0.950 . S
C469 C466 1.387 . S
C470 C471 1.387 . S
C470 H474 0.950 . S
C470 C479 1.390 . S
C471 C470 1.387 . S
C471 C473 1.387 . S
H472 C479 0.950 . S
C473 C471 1.387 . S
C473 C475 1.390 . S
C473 H477 0.950 . S
H474 C470 0.950 . S
C475 C473 1.390 . S
C475 C476 1.387 . S
C475 H478 0.950 . S
C476 C475 1.387 . S
C476 C479 1.387 . S
H477 C473 0.950 . S
H478 C475 0.950 . S
C479 C470 1.390 . S
C479 H472 0.950 . S
C479 C476 1.387 . S
C480 C481 1.387 . S
C480 H484 0.950 . S
C480 C489 1.390 . S
C481 C480 1.387 . S
C481 C483 1.387 . S
H482 C489 0.950 . S
C483 C481 1.387 . S
C483 C485 1.390 . S
C483 H487 0.950 . S
H484 C480 0.950 . S
C485 C483 1.390 . S
C485 C486 1.387 . S
C485 H488 0.950 . S
C486 C485 1.387 . S
C486 C489 1.387 . S
H487 C483 0.950 . S
H488 C485 0.950 . S
C489 C480 1.390 . S
C489 H482 0.950 . S
C489 C486 1.387 . S
C490 C491 1.387 . S
C490 H494 0.950 . S
C490 C499 1.390 . S
C491 C490 1.387 . S
C491 C493 1.387 . S
H492 C499 0.950 . S
C493 C491 1.387 . S
C493 C495 1.390 . S
C493 H497 0.950 . S
H494 C490 0.950 . S
C495 C493 1.390 . S
C495 C496 1.387 . S
C495 H498 0.950 . S
C496 C495 1.387 . S
C496 C499 1.387 . S
H497 C493 0.950 . S
H498 C495 0.950 . S
C499 C490 1.390 . S
C499 H492 0.950 . S
C499 C496 1.387 . S
C500 C501 1.387 . S
C500 H504 0.950 . S
C500 C509 1.390 . S
C501 C500 1.387 . S
C501 C503 1.387 . S
H502 C509 0.950 . S
C503 C501 1.387 . S
C503 C505 1.390 . S
C503 H507 0.950 . S
H504 C500 0.950 . S
C505 C503 1.390 . S
C505 C506 1.387 . S
C505 H508 0.950 . S
C506 C505 1.387 . S
C506 C509 1.387 . S
H507 C503 0.950 . S
H508 C505 0.950 . S
C509 C500 1.390 . S
C509 H502 0.950 . S
C509 C506 1.387 . S
C510 C511 1.387 . S
C510 H514 0.950 . S
C510 C519 1.390 . S
C511 C510 1.387 . S
C511 C513 1.387 . S
H512 C519 0.950 . S
C513 C511 1.387 . S
C513 C515 1.390 . S
C513 H517 0.950 . S
H514 C510 0.950 . S
C515 C513 1.390 . S
C515 C516 1.387 . S
C515 H518 0.950 . S
C516 C515 1.387 . S
C516 C519 1.387 . S
H517 C513 0.950 . S
H518 C515 0.950 . S
C519 C510 1.390 . S
C519 H512 0.950 . S
C519 C516 1.387 . S
C520 C521 1.387 . S
C520 H524 0.950 . S
C520 C529 1.390 . S
C521 C520 1.387 . S
C521 C523 1.387 . S
H522 C529 0.950 . S
C523 C521 1.387 . S
C523 C525 1.390 . S
C523 H527 0.950 . S
H524 C520 0.950 . S
C525 C523 1.390 . S
C525 C526 1.387 . S
C525 H528 0.950 . S
C526 C525 1.387 . S
C526 C529 1.387 . S
H527 C523 0.950 . S
H528 C525 0.950 . S
C529 C520 1.390 . S
C529 H522 0.950 . S
C529 C526 1.387 . S
C530 C531 1.387 . S
C530 H534 0.950 . S
C530 C539 1.390 . S
C531 C530 1.387 . S
C531 C533 1.387 1_655 S
H532 C539 0.950 . S
C533 C531 1.387 1_455 S
C533 C535 1.390 . S
C533 H537 0.950 . S
H534 C530 0.950 . S
C535 C533 1.390 . S
C535 C536 1.387 1_455 S
C535 H538 0.950 . S
C536 C535 1.387 1_655 S
C536 C539 1.387 . S
H537 C533 0.950 . S
H538 C535 0.950 . S
C539 C530 1.390 . S
C539 H532 0.950 . S
C539 C536 1.387 . S
C540 C541 1.387 . S
C540 H544 0.950 . S
C540 C549 1.390 . S
C541 C540 1.387 . S
C541 C543 1.387 . S
H542 C549 0.950 . S
C543 C541 1.387 . S
C543 C545 1.390 . S
C543 H547 0.950 . S
H544 C540 0.950 . S
C545 C543 1.390 . S
C545 C546 1.387 . S
C545 H548 0.950 . S
C546 C545 1.387 . S
C546 C549 1.387 . S
H547 C543 0.950 . S
H548 C545 0.950 . S
C549 C540 1.390 . S
C549 H542 0.950 . S
C549 C546 1.387 . S
C550 C551 1.387 . S
C550 H554 0.950 . S
C550 C559 1.390 . S
C551 C550 1.387 . S
C551 C553 1.387 . S
H552 C559 0.950 . S
C553 C551 1.387 . S
C553 C555 1.390 . S
C553 H557 0.950 . S
H554 C550 0.950 . S
C555 C553 1.390 . S
C555 C556 1.387 . S
C555 H558 0.950 . S
C556 C555 1.387 . S
C556 C559 1.387 . S
H557 C553 0.950 . S
H558 C555 0.950 . S
C559 C550 1.390 . S
C559 H552 0.950 . S
C559 C556 1.387 . S
C560 C561 1.387 . S
C560 H564 0.950 . S
C560 C569 1.390 . S
C561 C560 1.387 . S
C561 C563 1.387 . S
H562 C569 0.950 . S
C563 C561 1.387 . S
C563 C565 1.390 . S
C563 H567 0.950 . S
H564 C560 0.950 . S
C565 C563 1.390 . S
C565 C566 1.387 . S
C565 H568 0.950 . S
C566 C565 1.387 . S
C566 C569 1.387 . S
H567 C563 0.950 . S
H568 C565 0.950 . S
C569 C560 1.390 . S
C569 H562 0.950 . S
C569 C566 1.387 . S
C570 C571 1.387 . S
C570 H574 0.950 . S
C570 C579 1.390 . S
C571 C570 1.387 . S
C571 C573 1.387 . S
H572 C579 0.950 . S
C573 C571 1.387 . S
C573 C575 1.390 . S
C573 H577 0.950 . S
H574 C570 0.950 . S
C575 C573 1.390 . S
C575 C576 1.387 . S
C575 H578 0.950 . S
C576 C575 1.387 . S
C576 C579 1.387 . S
H577 C573 0.950 . S
H578 C575 0.950 . S
C579 C570 1.390 . S
C579 H572 0.950 . S
C579 C576 1.387 . S
C580 C581 1.387 1_565 S
C580 H584 0.950 . S
C580 C589 1.390 . S
C581 C580 1.387 1_545 S
C581 C583 1.387 . S
H582 C589 0.950 . S
C583 C581 1.387 . S
C583 C585 1.390 . S
C583 H587 0.950 . S
H584 C580 0.950 . S
C585 C583 1.390 . S
C585 C586 1.387 . S
C585 H588 0.950 . S
C586 C585 1.387 . S
C586 C589 1.387 1_545 S
H587 C583 0.950 . S
H588 C585 0.950 . S
C589 C580 1.390 . S
C589 H582 0.950 . S
C589 C586 1.387 1_565 S
C590 C591 1.387 1_556 S
C590 H594 0.950 . S
C590 C599 1.390 . S
C591 C590 1.387 1_554 S
C591 C593 1.387 . S
H592 C599 0.950 . S
C593 C591 1.387 . S
C593 C595 1.390 . S
C593 H597 0.950 . S
H594 C590 0.950 . S
C595 C593 1.390 . S
C595 C596 1.387 1_554 S
C595 H598 0.950 . S
C596 C595 1.387 1_556 S
C596 C599 1.387 . S
H597 C593 0.950 . S
H598 C595 0.950 . S
C599 C590 1.390 . S
C599 H592 0.950 . S
C599 C596 1.387 . S
C600 C601 1.387 . S
C600 H604 0.950 . S
C600 C609 1.390 . S
C601 C600 1.387 . S
C601 C603 1.387 . S
H602 C609 0.950 . S
C603 C601 1.387 . S
C603 C605 1.390 . S
C603 H607 0.950 . S
H604 C600 0.950 . S
C605 C603 1.390 . S
C605 C606 1.387 . S
C605 H608 0.950 . S
C606 C605 1.387 . S
C606 C609 1.387 . S
H607 C603 0.950 . S
H608 C605 0.950 . S
C609 C600 1.390 . S
C609 H602 0.950 . S
C609 C606 1.387 . S
C610 C611 1.387 . S
C610 H614 0.950 . S
C610 C619 1.390 . S
C611 C610 1.387 . S
C611 C613 1.387 . S
H612 C619 0.950 . S
C613 C611 1.387 . S
C613 C615 1.390 . S
C613 H617 0.950 . S
H614 C610 0.950 . S
C615 C613 1.390 . S
C615 C616 1.387 . S
C615 H618 0.950 . S
C616 C615 1.387 . S
C616 C619 1.387 . S
H617 C613 0.950 . S
H618 C615 0.950 . S
C619 C610 1.390 . S
C619 H612 0.950 . S
C619 C616 1.387 . S
C620 C621 1.387 . S
C620 H624 0.950 . S
C620 C629 1.390 . S
C621 C620 1.387 . S
C621 C623 1.387 . S
H622 C629 0.950 . S
C623 C621 1.387 . S
C623 C625 1.390 . S
C623 H627 0.950 . S
H624 C620 0.950 . S
C625 C623 1.390 . S
C625 C626 1.387 . S
C625 H628 0.950 . S
C626 C625 1.387 . S
C626 C629 1.387 . S
H627 C623 0.950 . S
H628 C625 0.950 . S
C629 C620 1.390 . S
C629 H622 0.950 . S
C629 C626 1.387 . S
C630 C631 1.387 . S
C630 H634 0.950 . S
C630 C639 1.390 . S
C631 C630 1.387 . S
C631 C633 1.387 . S
H632 C639 0.950 . S
C633 C631 1.387 . S
C633 C635 1.390 . S
C633 H637 0.950 . S
H634 C630 0.950 . S
C635 C633 1.390 . S
C635 C636 1.387 . S
C635 H638 0.950 . S
C636 C635 1.387 . S
C636 C639 1.387 . S
H637 C633 0.950 . S
H638 C635 0.950 . S
C639 C630 1.390 . S
C639 H632 0.950 . S
C639 C636 1.387 . S
C640 C641 1.387 . S
C640 H644 0.950 . S
C640 C649 1.390 . S
C641 C640 1.387 . S
C641 C643 1.387 . S
H642 C649 0.950 . S
C643 C641 1.387 . S
C643 C645 1.390 . S
C643 H647 0.950 . S
H644 C640 0.950 . S
C645 C643 1.390 . S
C645 C646 1.387 . S
C645 H648 0.950 . S
C646 C645 1.387 . S
C646 C649 1.387 . S
H647 C643 0.950 . S
H648 C645 0.950 . S
C649 C640 1.390 . S
C649 H642 0.950 . S
C649 C646 1.387 . S
C650 C651 1.387 . S
C650 H654 0.950 . S
C650 C659 1.390 . S
C651 C650 1.387 . S
C651 C653 1.387 . S
H652 C659 0.950 . S
C653 C651 1.387 . S
C653 C655 1.390 . S
C653 H657 0.950 . S
H654 C650 0.950 . S
C655 C653 1.390 . S
C655 C656 1.387 . S
C655 H658 0.950 . S
C656 C655 1.387 . S
C656 C659 1.387 . S
H657 C653 0.950 . S
H658 C655 0.950 . S
C659 C650 1.390 . S
C659 H652 0.950 . S
C659 C656 1.387 . S
C660 C661 1.387 . S
C660 H664 0.950 . S
C660 C669 1.390 . S
C661 C660 1.387 . S
C661 C663 1.387 . S
H662 C669 0.950 . S
C663 C661 1.387 . S
C663 C665 1.390 . S
C663 H667 0.950 . S
H664 C660 0.950 . S
C665 C663 1.390 . S
C665 C666 1.387 . S
C665 H668 0.950 . S
C666 C665 1.387 . S
C666 C669 1.387 . S
H667 C663 0.950 . S
H668 C665 0.950 . S
C669 C660 1.390 . S
C669 H662 0.950 . S
C669 C666 1.387 . S
C670 C671 1.387 . S
C670 H674 0.950 . S
C670 C679 1.390 . S
C671 C670 1.387 . S
C671 C673 1.387 . S
H672 C679 0.950 . S
C673 C671 1.387 . S
C673 C675 1.390 . S
C673 H677 0.950 . S
H674 C670 0.950 . S
C675 C673 1.390 . S
C675 C676 1.387 . S
C675 H678 0.950 . S
C676 C675 1.387 . S
C676 C679 1.387 . S
H677 C673 0.950 . S
H678 C675 0.950 . S
C679 C670 1.390 . S
C679 H672 0.950 . S
C679 C676 1.387 . S
C680 C681 1.387 . S
C680 H684 0.950 . S
C680 C689 1.390 . S
C681 C680 1.387 . S
C681 C683 1.387 . S
H682 C689 0.950 . S
C683 C681 1.387 . S
C683 C685 1.390 . S
C683 H687 0.950 . S
H684 C680 0.950 . S
C685 C683 1.390 . S
C685 C686 1.387 . S
C685 H688 0.950 . S
C686 C685 1.387 . S
C686 C689 1.387 . S
H687 C683 0.950 . S
H688 C685 0.950 . S
C689 C680 1.390 . S
C689 H682 0.950 . S
C689 C686 1.387 . S
C690 C691 1.387 . S
C690 H694 0.950 . S
C690 C699 1.390 . S
C691 C690 1.387 . S
C691 C693 1.387 1_556 S
H692 C699 0.950 . S
C693 C691 1.387 1_554 S
C693 C695 1.390 . S
C693 H697 0.950 . S
H694 C690 0.950 . S
C695 C693 1.390 . S
C695 C696 1.387 . S
C695 H698 0.950 . S
C696 C695 1.387 . S
C696 C699 1.387 1_554 S
H697 C693 0.950 . S
H698 C695 0.950 . S
C699 C690 1.390 . S
C699 H692 0.950 . S
C699 C696 1.387 1_556 S
C700 C701 1.387 . S
C700 H704 0.950 . S
C700 C709 1.390 . S
C701 C700 1.387 . S
C701 C703 1.387 . S
H702 C709 0.950 . S
C703 C701 1.387 . S
C703 C705 1.390 . S
C703 H707 0.950 . S
H704 C700 0.950 . S
C705 C703 1.390 . S
C705 C706 1.387 . S
C705 H708 0.950 . S
C706 C705 1.387 . S
C706 C709 1.387 . S
H707 C703 0.950 . S
H708 C705 0.950 . S
C709 C700 1.390 . S
C709 H702 0.950 . S
C709 C706 1.387 . S
C710 C711 1.387 . S
C710 H714 0.950 . S
C710 C719 1.390 . S
C711 C710 1.387 . S
C711 C713 1.387 . S
H712 C719 0.950 . S
C713 C711 1.387 . S
C713 C715 1.390 . S
C713 H717 0.950 . S
H714 C710 0.950 . S
C715 C713 1.390 . S
C715 C716 1.387 . S
C715 H718 0.950 . S
C716 C715 1.387 . S
C716 C719 1.387 . S
H717 C713 0.950 . S
H718 C715 0.950 . S
C719 C710 1.390 . S
C719 H712 0.950 . S
C719 C716 1.387 . S
C720 C721 1.387 . S
C720 H724 0.950 . S
C720 C729 1.390 . S
C721 C720 1.387 . S
C721 C723 1.387 . S
H722 C729 0.950 . S
C723 C721 1.387 . S
C723 C725 1.390 . S
C723 H727 0.950 . S
H724 C720 0.950 . S
C725 C723 1.390 . S
C725 C726 1.387 . S
C725 H728 0.950 . S
C726 C725 1.387 . S
C726 C729 1.387 . S
H727 C723 0.950 . S
H728 C725 0.950 . S
C729 C720 1.390 . S
C729 H722 0.950 . S
C729 C726 1.387 . S
C730 C731 1.387 . S
C730 H734 0.950 . S
C730 C739 1.390 . S
C731 C730 1.387 . S
C731 C733 1.387 . S
H732 C739 0.950 . S
C733 C731 1.387 . S
C733 C735 1.390 . S
C733 H737 0.950 . S
H734 C730 0.950 . S
C735 C733 1.390 . S
C735 C736 1.387 . S
C735 H738 0.950 . S
C736 C735 1.387 . S
C736 C739 1.387 . S
H737 C733 0.950 . S
H738 C735 0.950 . S
C739 C730 1.390 . S
C739 H732 0.950 . S
C739 C736 1.387 . S
C740 C741 1.387 . S
C740 H744 0.950 . S
C740 C749 1.390 . S
C741 C740 1.387 . S
C741 C743 1.387 1_554 S
H742 C749 0.950 . S
C743 C741 1.387 1_556 S
C743 C745 1.390 . S
C743 H747 0.950 . S
H744 C740 0.950 . S
C745 C743 1.390 . S
C745 C746 1.387 1_556 S
C745 H748 0.950 . S
C746 C745 1.387 1_554 S
C746 C749 1.387 . S
H747 C743 0.950 . S
H748 C745 0.950 . S
C749 C740 1.390 . S
C749 H742 0.950 . S
C749 C746 1.387 . S
C750 C751 1.387 . S
C750 H754 0.950 . S
C750 C759 1.390 . S
C751 C750 1.387 . S
C751 C753 1.387 . S
H752 C759 0.950 . S
C753 C751 1.387 . S
C753 C755 1.390 . S
C753 H757 0.950 . S
H754 C750 0.950 . S
C755 C753 1.390 . S
C755 C756 1.387 . S
C755 H758 0.950 . S
C756 C755 1.387 . S
C756 C759 1.387 . S
H757 C753 0.950 . S
H758 C755 0.950 . S
C759 C750 1.390 . S
C759 H752 0.950 . S
C759 C756 1.387 . S
C760 C761 1.387 . S
C760 H764 0.950 . S
C760 C769 1.390 . S
C761 C760 1.387 . S
C761 C763 1.387 . S
H762 C769 0.950 . S
C763 C761 1.387 . S
C763 C765 1.390 . S
C763 H767 0.950 . S
H764 C760 0.950 . S
C765 C763 1.390 . S
C765 C766 1.387 . S
C765 H768 0.950 . S
C766 C765 1.387 . S
C766 C769 1.387 . S
H767 C763 0.950 . S
H768 C765 0.950 . S
C769 C760 1.390 . S
C769 H762 0.950 . S
C769 C766 1.387 . S
C770 C771 1.387 . S
C770 H774 0.950 . S
C770 C779 1.390 . S
C771 C770 1.387 . S
C771 C773 1.387 . S
H772 C779 0.950 . S
C773 C771 1.387 . S
C773 C775 1.390 . S
C773 H777 0.950 . S
H774 C770 0.950 . S
C775 C773 1.390 . S
C775 C776 1.387 . S
C775 H778 0.950 . S
C776 C775 1.387 . S
C776 C779 1.387 . S
H777 C773 0.950 . S
H778 C775 0.950 . S
C779 C770 1.390 . S
C779 H772 0.950 . S
C779 C776 1.387 . S
C780 C781 1.387 . S
C780 H784 0.950 . S
C780 C789 1.390 . S
C781 C780 1.387 . S
C781 C783 1.387 . S
H782 C789 0.950 . S
C783 C781 1.387 . S
C783 C785 1.390 . S
C783 H787 0.950 . S
H784 C780 0.950 . S
C785 C783 1.390 . S
C785 C786 1.387 . S
C785 H788 0.950 . S
C786 C785 1.387 . S
C786 C789 1.387 . S
H787 C783 0.950 . S
H788 C785 0.950 . S
C789 C780 1.390 . S
C789 H782 0.950 . S
C789 C786 1.387 . S
C790 C791 1.387 . S
C790 H794 0.950 . S
C790 C799 1.390 . S
C791 C790 1.387 . S
C791 C793 1.387 . S
H792 C799 0.950 . S
C793 C791 1.387 . S
C793 C795 1.390 . S
C793 H797 0.950 . S
H794 C790 0.950 . S
C795 C793 1.390 . S
C795 C796 1.387 . S
C795 H798 0.950 . S
C796 C795 1.387 . S
C796 C799 1.387 . S
H797 C793 0.950 . S
H798 C795 0.950 . S
C799 C790 1.390 . S
C799 H792 0.950 . S
C799 C796 1.387 . S
C321 C6 1.198 . S
C326 C39 1.210 . S
C331 C49 1.106 . S
C336 C36 1.096 . S
C341 C76 1.024 . S
C346 C46 0.986 . S
C351 C9 1.180 . S
C356 C79 1.161 . S
C361 C1 1.180 . S
C366 C188 1.161 1_545 S
C371 C156 1.189 . S
C376 C28 1.205 . S
C381 C41 1.233 . S
C386 C206 1.191 . S
C391 C66 1.051 . S
C396 C276 1.060 . S
C401 C161 1.096 . S
C406 C26 1.085 . S
C411 C246 1.071 . S
C416 C56 1.062 . S
C421 C296 1.160 . S
C426 C68 1.196 . S
C431 C16 1.198 . S
C436 C228 1.210 . S
C441 C19 1.340 . S
C446 C179 1.408 1_554 S
C451 C249 1.570 . S
C456 C81 1.595 . S
C461 C108 1.447 . S
C466 C299 1.385 . S
C471 C221 1.469 . S
C476 C129 1.467 . S
C481 C48 1.414 . S
C486 C148 1.359 . S
C491 C181 1.530 . S
C496 C89 1.514 . S
C501 C121 1.568 . S
C506 C209 1.593 . S
C511 C101 1.105 . S
C516 C226 1.095 . S
C521 C186 1.023 . S
C526 C116 0.987 . S
C531 C239 1.206 . S
C536 C146 1.189 . S
C541 C109 1.233 . S
C546 C96 1.190 . S
C551 C196 1.048 . S
C556 C166 1.062 . S
C561 C269 1.096 . S
C566 C236 1.086 . S
C571 C136 1.068 . S
C576 C106 1.065 . S
C581 C199 1.196 . S
C586 C286 1.160 . S
C591 C268 1.406 . S
C596 C8 1.339 1_556 S
C601 C59 1.445 . S
C606 C288 1.387 . S
C611 C241 1.467 . S
C616 C29 1.469 . S
C621 C159 1.360 . S
C626 C119 1.415 . S
C631 C69 1.530 . S
C636 C201 1.513 . S
C641 C256 1.046 . S
C646 C266 1.038 . S
C651 C149 1.519 . S
C656 C259 1.467 . S
C661 C128 1.466 . S
C666 C141 1.521 . S
C671 C86 1.106 . S
C676 C261 1.102 . S
C681 C248 1.459 . S
C686 C301 1.505 . S
C691 C308 1.392 1_556 S
C696 C168 1.435 . S
C701 C21 1.460 . S
C706 C189 1.428 . S
C711 C176 1.038 . S
C716 C126 1.046 . S
C721 C169 1.104 . S
C726 C216 1.105 . S
C731 C309 1.507 . S
C736 C139 1.458 . S
C741 C279 1.437 1_554 S
C746 C319 1.393 . S
C751 C229 1.460 . S
C756 C61 1.428 . S
C761 C219 1.555 . S
C766 C289 1.608 . S
C771 C208 1.477 . S
C776 C316 1.484 . S
C781 C88 1.555 . S
C786 C281 1.608 . S
C791 C306 1.486 . S
C796 C99 1.476 . S
