# Generated by pormake.
# Topology uli, (4)-cn, num edge types: 1
# Building blocks:
#     Node 0, Type 0, BuildingBlock: QUQFOY_clean_sbu_1, # of connection points: 4
#     Node 1, Type 0, BuildingBlock: QUQFOY_clean_sbu_1, # of connection points: 4
#     Node 2, Type 0, BuildingBlock: QUQFOY_clean_sbu_1, # of connection points: 4
#     Node 3, Type 0, BuildingBlock: QUQFOY_clean_sbu_1, # of connection points: 4
#     Node 4, Type 0, BuildingBlock: QUQFOY_clean_sbu_1, # of connection points: 4
#     Node 5, Type 0, BuildingBlock: QUQFOY_clean_sbu_1, # of connection points: 4
#     Node 6, Type 0, BuildingBlock: QUQFOY_clean_sbu_1, # of connection points: 4
#     Node 7, Type 0, BuildingBlock: QUQFOY_clean_sbu_1, # of connection points: 4
#     Node 8, Type 0, BuildingBlock: QUQFOY_clean_sbu_1, # of connection points: 4
#     Node 9, Type 0, BuildingBlock: QUQFOY_clean_sbu_1, # of connection points: 4
#     Node 10, Type 0, BuildingBlock: QUQFOY_clean_sbu_1, # of connection points: 4
#     Node 11, Type 0, BuildingBlock: QUQFOY_clean_sbu_1, # of connection points: 4
#     Node 12, Type 0, BuildingBlock: QUQFOY_clean_sbu_1, # of connection points: 4
#     Node 13, Type 0, BuildingBlock: QUQFOY_clean_sbu_1, # of connection points: 4
#     Node 14, Type 0, BuildingBlock: QUQFOY_clean_sbu_1, # of connection points: 4
#     Node 15, Type 0, BuildingBlock: QUQFOY_clean_sbu_1, # of connection points: 4
#     Node 16, Type 0, BuildingBlock: QUQFOY_clean_sbu_1, # of connection points: 4
#     Node 17, Type 0, BuildingBlock: QUQFOY_clean_sbu_1, # of connection points: 4
#     Node 18, Type 0, BuildingBlock: QUQFOY_clean_sbu_1, # of connection points: 4
#     Node 19, Type 0, BuildingBlock: QUQFOY_clean_sbu_1, # of connection points: 4
#     Node 20, Type 0, BuildingBlock: QUQFOY_clean_sbu_1, # of connection points: 4
#     Node 21, Type 0, BuildingBlock: QUQFOY_clean_sbu_1, # of connection points: 4
#     Node 22, Type 0, BuildingBlock: QUQFOY_clean_sbu_1, # of connection points: 4
#     Node 23, Type 0, BuildingBlock: QUQFOY_clean_sbu_1, # of connection points: 4
#     Node 24, Type 0, BuildingBlock: QUQFOY_clean_sbu_1, # of connection points: 4
#     Node 25, Type 0, BuildingBlock: QUQFOY_clean_sbu_1, # of connection points: 4
#     Node 26, Type 0, BuildingBlock: QUQFOY_clean_sbu_1, # of connection points: 4
#     Node 27, Type 0, BuildingBlock: QUQFOY_clean_sbu_1, # of connection points: 4
#     Node 28, Type 0, BuildingBlock: QUQFOY_clean_sbu_1, # of connection points: 4
#     Node 29, Type 0, BuildingBlock: QUQFOY_clean_sbu_1, # of connection points: 4
#     Node 30, Type 0, BuildingBlock: QUQFOY_clean_sbu_1, # of connection points: 4
#     Node 31, Type 0, BuildingBlock: QUQFOY_clean_sbu_1, # of connection points: 4
#     Node 32, Type 0, BuildingBlock: QUQFOY_clean_sbu_1, # of connection points: 4
#     Node 33, Type 0, BuildingBlock: QUQFOY_clean_sbu_1, # of connection points: 4
#     Node 34, Type 0, BuildingBlock: QUQFOY_clean_sbu_1, # of connection points: 4
#     Node 35, Type 0, BuildingBlock: QUQFOY_clean_sbu_1, # of connection points: 4
#     Node 36, Type 0, BuildingBlock: QUQFOY_clean_sbu_1, # of connection points: 4
#     Node 37, Type 0, BuildingBlock: QUQFOY_clean_sbu_1, # of connection points: 4
#     Node 38, Type 0, BuildingBlock: QUQFOY_clean_sbu_1, # of connection points: 4
#     Node 39, Type 0, BuildingBlock: QUQFOY_clean_sbu_1, # of connection points: 4
#     Node 40, Type 0, BuildingBlock: QUQFOY_clean_sbu_1, # of connection points: 4
#     Node 41, Type 0, BuildingBlock: QUQFOY_clean_sbu_1, # of connection points: 4
#     Node 42, Type 0, BuildingBlock: QUQFOY_clean_sbu_1, # of connection points: 4
#     Node 43, Type 0, BuildingBlock: QUQFOY_clean_sbu_1, # of connection points: 4
#     Node 44, Type 0, BuildingBlock: QUQFOY_clean_sbu_1, # of connection points: 4
#     Node 45, Type 0, BuildingBlock: QUQFOY_clean_sbu_1, # of connection points: 4
#     Node 46, Type 0, BuildingBlock: QUQFOY_clean_sbu_1, # of connection points: 4
#     Node 47, Type 0, BuildingBlock: QUQFOY_clean_sbu_1, # of connection points: 4
#     Edge 48, Type (0, 0), None
#     Edge 49, Type (0, 0), None
#     Edge 50, Type (0, 0), None
#     Edge 51, Type (0, 0), None
#     Edge 52, Type (0, 0), None
#     Edge 53, Type (0, 0), None
#     Edge 54, Type (0, 0), None
#     Edge 55, Type (0, 0), None
#     Edge 56, Type (0, 0), None
#     Edge 57, Type (0, 0), None
#     Edge 58, Type (0, 0), None
#     Edge 59, Type (0, 0), None
#     Edge 60, Type (0, 0), None
#     Edge 61, Type (0, 0), None
#     Edge 62, Type (0, 0), None
#     Edge 63, Type (0, 0), None
#     Edge 64, Type (0, 0), None
#     Edge 65, Type (0, 0), None
#     Edge 66, Type (0, 0), None
#     Edge 67, Type (0, 0), None
#     Edge 68, Type (0, 0), None
#     Edge 69, Type (0, 0), None
#     Edge 70, Type (0, 0), None
#     Edge 71, Type (0, 0), None
#     Edge 72, Type (0, 0), None
#     Edge 73, Type (0, 0), None
#     Edge 74, Type (0, 0), None
#     Edge 75, Type (0, 0), None
#     Edge 76, Type (0, 0), None
#     Edge 77, Type (0, 0), None
#     Edge 78, Type (0, 0), None
#     Edge 79, Type (0, 0), None
#     Edge 80, Type (0, 0), None
#     Edge 81, Type (0, 0), None
#     Edge 82, Type (0, 0), None
#     Edge 83, Type (0, 0), None
#     Edge 84, Type (0, 0), None
#     Edge 85, Type (0, 0), None
#     Edge 86, Type (0, 0), None
#     Edge 87, Type (0, 0), None
#     Edge 88, Type (0, 0), None
#     Edge 89, Type (0, 0), None
#     Edge 90, Type (0, 0), None
#     Edge 91, Type (0, 0), None
#     Edge 92, Type (0, 0), None
#     Edge 93, Type (0, 0), None
#     Edge 94, Type (0, 0), None
#     Edge 95, Type (0, 0), None
#     Edge 96, Type (0, 0), None
#     Edge 97, Type (0, 0), None
#     Edge 98, Type (0, 0), None
#     Edge 99, Type (0, 0), None
#     Edge 100, Type (0, 0), None
#     Edge 101, Type (0, 0), None
#     Edge 102, Type (0, 0), None
#     Edge 103, Type (0, 0), None
#     Edge 104, Type (0, 0), None
#     Edge 105, Type (0, 0), None
#     Edge 106, Type (0, 0), None
#     Edge 107, Type (0, 0), None
#     Edge 108, Type (0, 0), None
#     Edge 109, Type (0, 0), None
#     Edge 110, Type (0, 0), None
#     Edge 111, Type (0, 0), None
#     Edge 112, Type (0, 0), None
#     Edge 113, Type (0, 0), None
#     Edge 114, Type (0, 0), None
#     Edge 115, Type (0, 0), None
#     Edge 116, Type (0, 0), None
#     Edge 117, Type (0, 0), None
#     Edge 118, Type (0, 0), None
#     Edge 119, Type (0, 0), None
#     Edge 120, Type (0, 0), None
#     Edge 121, Type (0, 0), None
#     Edge 122, Type (0, 0), None
#     Edge 123, Type (0, 0), None
#     Edge 124, Type (0, 0), None
#     Edge 125, Type (0, 0), None
#     Edge 126, Type (0, 0), None
#     Edge 127, Type (0, 0), None
#     Edge 128, Type (0, 0), None
#     Edge 129, Type (0, 0), None
#     Edge 130, Type (0, 0), None
#     Edge 131, Type (0, 0), None
#     Edge 132, Type (0, 0), None
#     Edge 133, Type (0, 0), None
#     Edge 134, Type (0, 0), None
#     Edge 135, Type (0, 0), None
#     Edge 136, Type (0, 0), None
#     Edge 137, Type (0, 0), None
#     Edge 138, Type (0, 0), None
#     Edge 139, Type (0, 0), None
#     Edge 140, Type (0, 0), None
#     Edge 141, Type (0, 0), None
#     Edge 142, Type (0, 0), None
#     Edge 143, Type (0, 0), None
# Relax obj value: 0.296
# Max RMSD: 0.135
# Mean RMSD: 0.135
data_MOF--net-uli--node1-QUQFOY_clean_sbu_1--edge1-none
_symmetry_space_group_name_H-M    P1
_symmetry_Int_Tables_number       1
_symmetry_cell_setting            triclinic
loop_
_symmetry_equiv_pos_as_xyz
'x, y, z'
_cell_length_a     36.824206
_cell_length_b     36.824214
_cell_length_c     36.830219
_cell_angle_alpha  89.999987
_cell_angle_beta   89.999987
_cell_angle_gamma 89.999999
loop_
_atom_site_label
_atom_site_type_symbol
_atom_site_fract_x
_atom_site_fract_y
_atom_site_fract_z
_atom_type_partial_charge
O0 O 0.07878 0.14326 0.1805 0.0
Cd1 Cd 0.05254 0.18492 0.157 0.0
Cd2 Cd 0.10581 0.22531 0.20215 0.0
O3 O 0.1008 0.17388 0.22717 0.0
O4 O 0.00754 0.16026 0.1415 0.0
O5 O 0.00912 0.20231 0.18484 0.0
C6 C -0.00849 0.17728 0.1676 0.0
C7 C 0.14643 0.27102 0.22066 0.0
C8 C 0.0944 0.14364 0.21099 0.0
C9 C 0.11356 0.21749 0.11927 0.0
O10 O 0.12376 0.22288 0.1513 0.0
O11 O 0.08169 0.20549 0.11299 0.0
O12 O 0.15611 0.23771 0.21802 0.0
O13 O 0.11216 0.27806 0.21918 0.0
O14 O 0.80233 0.07878 0.1805 0.0
Cd15 Cd 0.76068 0.05254 0.157 0.0
Cd16 Cd 0.72029 0.10581 0.20215 0.0
O17 O 0.77172 0.1008 0.22717 0.0
O18 O 0.78534 0.00754 0.1415 0.0
O19 O 0.74328 0.00912 0.18484 0.0
C20 C 0.76832 -0.00849 0.1676 0.0
C21 C 0.67457 0.14643 0.22066 0.0
C22 C 0.80195 0.0944 0.21099 0.0
C23 C 0.72811 0.11356 0.11927 0.0
O24 O 0.72272 0.12376 0.1513 0.0
O25 O 0.74011 0.08169 0.11299 0.0
O26 O 0.70789 0.15611 0.21802 0.0
O27 O 0.66753 0.11216 0.21918 0.0
O28 O 0.86682 0.80234 0.18051 0.0
Cd29 Cd 0.89306 0.76068 0.157 0.0
Cd30 Cd 0.83979 0.72029 0.20215 0.0
O31 O 0.8448 0.77172 0.22717 0.0
O32 O 0.93806 0.78534 0.1415 0.0
O33 O 0.93648 0.74329 0.18484 0.0
C34 C 0.9541 0.76833 0.1676 0.0
C35 C 0.79917 0.67458 0.22066 0.0
C36 C 0.8512 0.80196 0.21099 0.0
C37 C 0.83204 0.72811 0.11927 0.0
O38 O 0.82184 0.72272 0.1513 0.0
O39 O 0.86391 0.74011 0.11299 0.0
O40 O 0.7895 0.70789 0.21802 0.0
O41 O 0.83344 0.66754 0.21918 0.0
O42 O 0.14327 0.86682 0.1805 0.0
Cd43 Cd 0.18493 0.89306 0.157 0.0
Cd44 Cd 0.22531 0.83979 0.20215 0.0
O45 O 0.17388 0.8448 0.22717 0.0
O46 O 0.16026 0.93806 0.1415 0.0
O47 O 0.20232 0.93648 0.18484 0.0
C48 C 0.17728 0.9541 0.1676 0.0
C49 C 0.27103 0.79917 0.22066 0.0
C50 C 0.14365 0.8512 0.21099 0.0
C51 C 0.21749 0.83204 0.11927 0.0
O52 O 0.22288 0.82184 0.1513 0.0
O53 O 0.20549 0.86391 0.11299 0.0
O54 O 0.23771 0.78949 0.21802 0.0
O55 O 0.27807 0.83344 0.21918 0.0
O56 O 0.07878 0.80234 0.76494 0.0
Cd57 Cd 0.05254 0.76068 0.78844 0.0
Cd58 Cd 0.10581 0.72029 0.7433 0.0
O59 O 0.1008 0.77172 0.71828 0.0
O60 O 0.00754 0.78534 0.80394 0.0
O61 O 0.00912 0.74329 0.76061 0.0
C62 C -0.0085 0.76832 0.77785 0.0
C63 C 0.14643 0.67458 0.72479 0.0
C64 C 0.0944 0.80196 0.73446 0.0
C65 C 0.11356 0.72811 0.82618 0.0
O66 O 0.12376 0.72272 0.79414 0.0
O67 O 0.08169 0.74011 0.83246 0.0
O68 O 0.15611 0.70789 0.72742 0.0
O69 O 0.11216 0.66754 0.72627 0.0
O70 O 0.14327 0.07878 0.76494 0.0
Cd71 Cd 0.18493 0.05254 0.78844 0.0
Cd72 Cd 0.22531 0.10581 0.7433 0.0
O73 O 0.17388 0.1008 0.71828 0.0
O74 O 0.16026 0.00754 0.80394 0.0
O75 O 0.20232 0.00912 0.76061 0.0
C76 C 0.17728 -0.00849 0.77785 0.0
C77 C 0.27103 0.14643 0.72479 0.0
C78 C 0.14365 0.0944 0.73446 0.0
C79 C 0.21749 0.11356 0.82618 0.0
O80 O 0.22288 0.12376 0.79414 0.0
O81 O 0.20549 0.08169 0.83246 0.0
O82 O 0.23771 0.15611 0.72742 0.0
O83 O 0.27807 0.11216 0.72627 0.0
O84 O 0.86682 0.14326 0.76494 0.0
Cd85 Cd 0.89306 0.18492 0.78844 0.0
Cd86 Cd 0.83979 0.22531 0.7433 0.0
O87 O 0.8448 0.17388 0.71828 0.0
O88 O 0.93806 0.16026 0.80394 0.0
O89 O 0.93648 0.20231 0.76061 0.0
C90 C 0.9541 0.17727 0.77785 0.0
C91 C 0.79917 0.27102 0.72479 0.0
C92 C 0.8512 0.14364 0.73446 0.0
C93 C 0.83204 0.21749 0.82617 0.0
O94 O 0.82184 0.22288 0.79414 0.0
O95 O 0.86391 0.20549 0.83246 0.0
O96 O 0.7895 0.23771 0.72742 0.0
O97 O 0.83344 0.27806 0.72627 0.0
O98 O 0.80233 0.86682 0.76494 0.0
Cd99 Cd 0.76067 0.89306 0.78844 0.0
Cd100 Cd 0.72029 0.83979 0.7433 0.0
O101 O 0.77172 0.8448 0.71828 0.0
O102 O 0.78534 0.93806 0.80394 0.0
O103 O 0.74328 0.93648 0.76061 0.0
C104 C 0.76832 0.95409 0.77785 0.0
C105 C 0.67457 0.79917 0.72479 0.0
C106 C 0.80195 0.8512 0.73446 0.0
C107 C 0.72811 0.83204 0.82618 0.0
O108 O 0.72272 0.82184 0.79414 0.0
O109 O 0.74011 0.86391 0.83246 0.0
O110 O 0.70789 0.78949 0.72742 0.0
O111 O 0.66753 0.83344 0.72627 0.0
O112 O 0.18055 0.07875 0.14318 0.0
Cd113 Cd 0.15704 0.05251 0.18482 0.0
Cd114 Cd 0.20221 0.10577 0.22524 0.0
O115 O 0.22721 0.10079 0.1738 0.0
O116 O 0.14156 0.0075 0.16017 0.0
O117 O 0.18489 0.00911 0.20223 0.0
C118 C 0.16766 -0.00852 0.1772 0.0
C119 C 0.22075 0.14639 0.27094 0.0
C120 C 0.21104 0.09439 0.14357 0.0
C121 C 0.11932 0.11351 0.21744 0.0
O122 O 0.15135 0.12371 0.22286 0.0
O123 O 0.11302 0.08167 0.20537 0.0
O124 O 0.21809 0.15607 0.23763 0.0
O125 O 0.21928 0.11213 0.27798 0.0
O126 O 0.86685 0.18055 0.14318 0.0
Cd127 Cd 0.89309 0.15704 0.18482 0.0
Cd128 Cd 0.83983 0.20221 0.22525 0.0
O129 O 0.84481 0.22721 0.1738 0.0
O130 O 0.9381 0.14155 0.16017 0.0
O131 O 0.93649 0.18489 0.20223 0.0
C132 C 0.95412 0.16766 0.1772 0.0
C133 C 0.79921 0.22075 0.27094 0.0
C134 C 0.85121 0.21104 0.14357 0.0
C135 C 0.83209 0.11932 0.21744 0.0
O136 O 0.82189 0.15135 0.22286 0.0
O137 O 0.86393 0.11302 0.20538 0.0
O138 O 0.78953 0.21809 0.23764 0.0
O139 O 0.83347 0.21928 0.27798 0.0
O140 O 0.76505 0.86685 0.14318 0.0
Cd141 Cd 0.78856 0.89309 0.18482 0.0
Cd142 Cd 0.74339 0.83983 0.22525 0.0
O143 O 0.71839 0.84481 0.1738 0.0
O144 O 0.80404 0.9381 0.16017 0.0
O145 O 0.76071 0.93649 0.20223 0.0
C146 C 0.77794 0.95412 0.1772 0.0
C147 C 0.72485 0.79921 0.27094 0.0
C148 C 0.73456 0.85121 0.14357 0.0
C149 C 0.82628 0.83209 0.21744 0.0
O150 O 0.79425 0.82189 0.22287 0.0
O151 O 0.83258 0.86393 0.20538 0.0
O152 O 0.72751 0.78953 0.23764 0.0
O153 O 0.72632 0.83347 0.27798 0.0
O154 O 0.07875 0.76505 0.14318 0.0
Cd155 Cd 0.05251 0.78856 0.18482 0.0
Cd156 Cd 0.10577 0.74339 0.22525 0.0
O157 O 0.10079 0.71839 0.1738 0.0
O158 O 0.0075 0.80405 0.16017 0.0
O159 O 0.00911 0.76071 0.20223 0.0
C160 C -0.00852 0.77794 0.1772 0.0
C161 C 0.14639 0.72485 0.27094 0.0
C162 C 0.09439 0.73457 0.14357 0.0
C163 C 0.11351 0.82628 0.21744 0.0
O164 O 0.12371 0.79425 0.22286 0.0
O165 O 0.08167 0.83258 0.20538 0.0
O166 O 0.15607 0.72751 0.23764 0.0
O167 O 0.11213 0.72632 0.27798 0.0
O168 O 0.18055 0.86685 0.80227 0.0
Cd169 Cd 0.15704 0.89309 0.76062 0.0
Cd170 Cd 0.20221 0.83983 0.7202 0.0
O171 O 0.22721 0.84481 0.77165 0.0
O172 O 0.14156 0.9381 0.78527 0.0
O173 O 0.18489 0.93649 0.74322 0.0
C174 C 0.16766 0.95412 0.76824 0.0
C175 C 0.22075 0.79921 0.67451 0.0
C176 C 0.21104 0.85121 0.80188 0.0
C177 C 0.11932 0.83209 0.72801 0.0
O178 O 0.15135 0.82189 0.72258 0.0
O179 O 0.11302 0.86393 0.74007 0.0
O180 O 0.21809 0.78953 0.70781 0.0
O181 O 0.21928 0.83347 0.66747 0.0
O182 O 0.07875 0.18055 0.80227 0.0
Cd183 Cd 0.05251 0.15704 0.76062 0.0
Cd184 Cd 0.10577 0.20221 0.7202 0.0
O185 O 0.10079 0.22721 0.77164 0.0
O186 O 0.0075 0.14155 0.78527 0.0
O187 O 0.00911 0.18489 0.74321 0.0
C188 C -0.00852 0.16766 0.76824 0.0
C189 C 0.14639 0.22075 0.6745 0.0
C190 C 0.09439 0.21104 0.80188 0.0
C191 C 0.11351 0.11932 0.728 0.0
O192 O 0.12371 0.15135 0.72258 0.0
O193 O 0.08167 0.11302 0.74007 0.0
O194 O 0.15607 0.21809 0.70781 0.0
O195 O 0.11213 0.21928 0.66747 0.0
O196 O 0.76505 0.07875 0.80227 0.0
Cd197 Cd 0.78856 0.05251 0.76062 0.0
Cd198 Cd 0.74339 0.10577 0.7202 0.0
O199 O 0.71839 0.10079 0.77165 0.0
O200 O 0.80404 0.0075 0.78527 0.0
O201 O 0.76071 0.00911 0.74322 0.0
C202 C 0.77794 -0.00852 0.76824 0.0
C203 C 0.72485 0.14639 0.67451 0.0
C204 C 0.73456 0.09439 0.80188 0.0
C205 C 0.82628 0.11351 0.72801 0.0
O206 O 0.79425 0.12371 0.72258 0.0
O207 O 0.83258 0.08167 0.74007 0.0
O208 O 0.72751 0.15607 0.70781 0.0
O209 O 0.72632 0.11213 0.66747 0.0
O210 O 0.86685 0.76505 0.80227 0.0
Cd211 Cd 0.89309 0.78856 0.76062 0.0
Cd212 Cd 0.83983 0.74339 0.7202 0.0
O213 O 0.84481 0.71839 0.77165 0.0
O214 O 0.9381 0.80405 0.78527 0.0
O215 O 0.93649 0.76071 0.74321 0.0
C216 C 0.95412 0.77794 0.76824 0.0
C217 C 0.79921 0.72485 0.6745 0.0
C218 C 0.85121 0.73456 0.80188 0.0
C219 C 0.83209 0.82628 0.72801 0.0
O220 O 0.82189 0.79425 0.72258 0.0
O221 O 0.86393 0.83258 0.74007 0.0
O222 O 0.78953 0.72751 0.70781 0.0
O223 O 0.83347 0.72632 0.66747 0.0
O224 O 0.14324 0.18059 0.07868 0.0
Cd225 Cd 0.18486 0.15703 0.05243 0.0
Cd226 Cd 0.22536 0.2022 0.10573 0.0
O227 O 0.17391 0.22722 0.10076 0.0
O228 O 0.16019 0.14154 0.00745 0.0
O229 O 0.20228 0.18485 0.00902 0.0
C230 C 0.17723 0.16762 -0.00859 0.0
C231 C 0.27106 0.22071 0.14636 0.0
C232 C 0.14367 0.21107 0.09432 0.0
C233 C 0.21749 0.1193 0.11343 0.0
O234 O 0.22296 0.15133 0.12362 0.0
O235 O 0.2054 0.11301 0.0816 0.0
O236 O 0.23775 0.21804 0.15604 0.0
O237 O 0.2781 0.21926 0.1121 0.0
O238 O 0.14324 0.76501 0.86677 0.0
Cd239 Cd 0.18486 0.78857 0.89301 0.0
Cd240 Cd 0.22536 0.7434 0.83972 0.0
O241 O 0.17391 0.71839 0.84468 0.0
O242 O 0.16018 0.80406 0.938 0.0
O243 O 0.20228 0.76075 0.93642 0.0
C244 C 0.17723 0.77798 0.95403 0.0
C245 C 0.27106 0.72489 0.79909 0.0
C246 C 0.14367 0.73453 0.85113 0.0
C247 C 0.21749 0.8263 0.83202 0.0
O248 O 0.22296 0.79427 0.82183 0.0
O249 O 0.2054 0.83259 0.86384 0.0
O250 O 0.23775 0.72756 0.78941 0.0
O251 O 0.2781 0.72634 0.83335 0.0
O252 O 0.18059 0.14324 0.86677 0.0
Cd253 Cd 0.15703 0.18487 0.89301 0.0
Cd254 Cd 0.2022 0.22536 0.83972 0.0
O255 O 0.22722 0.17392 0.84468 0.0
O256 O 0.14154 0.16019 0.93799 0.0
O257 O 0.18485 0.20228 0.93642 0.0
C258 C 0.16762 0.17723 0.95403 0.0
C259 C 0.22071 0.27106 0.79909 0.0
C260 C 0.21107 0.14367 0.85113 0.0
C261 C 0.1193 0.21749 0.83201 0.0
O262 O 0.15133 0.22296 0.82182 0.0
O263 O 0.11301 0.2054 0.86384 0.0
O264 O 0.21804 0.23775 0.78941 0.0
O265 O 0.21926 0.2781 0.83335 0.0
O266 O 0.80236 0.18059 0.86677 0.0
Cd267 Cd 0.76074 0.15703 0.89301 0.0
Cd268 Cd 0.72024 0.2022 0.83972 0.0
O269 O 0.77169 0.22722 0.84468 0.0
O270 O 0.78542 0.14154 0.938 0.0
O271 O 0.74332 0.18485 0.93642 0.0
C272 C 0.76837 0.16762 0.95403 0.0
C273 C 0.67454 0.22071 0.79909 0.0
C274 C 0.80193 0.21107 0.85113 0.0
C275 C 0.72811 0.1193 0.83202 0.0
O276 O 0.72264 0.15133 0.82183 0.0
O277 O 0.7402 0.11301 0.86384 0.0
O278 O 0.70785 0.21804 0.78941 0.0
O279 O 0.6675 0.21926 0.83335 0.0
O280 O 0.76501 0.80236 0.86677 0.0
Cd281 Cd 0.78857 0.76074 0.89301 0.0
Cd282 Cd 0.7434 0.72024 0.83972 0.0
O283 O 0.71838 0.77168 0.84468 0.0
O284 O 0.80406 0.78541 0.938 0.0
O285 O 0.76075 0.74332 0.93642 0.0
C286 C 0.77798 0.76837 0.95403 0.0
C287 C 0.72489 0.67454 0.79909 0.0
C288 C 0.73453 0.80193 0.85113 0.0
C289 C 0.8263 0.72811 0.83202 0.0
O290 O 0.79427 0.72264 0.82182 0.0
O291 O 0.83259 0.7402 0.86384 0.0
O292 O 0.72756 0.70785 0.78941 0.0
O293 O 0.72634 0.6675 0.83334 0.0
O294 O 0.80236 0.76501 0.07868 0.0
Cd295 Cd 0.76074 0.78857 0.05244 0.0
Cd296 Cd 0.72024 0.7434 0.10573 0.0
O297 O 0.77169 0.71839 0.10076 0.0
O298 O 0.78542 0.80406 0.00745 0.0
O299 O 0.74332 0.76075 0.00902 0.0
C300 C 0.76837 0.77798 -0.00859 0.0
C301 C 0.67454 0.72489 0.14636 0.0
C302 C 0.80193 0.73453 0.09432 0.0
C303 C 0.72811 0.8263 0.11343 0.0
O304 O 0.72264 0.79427 0.12362 0.0
O305 O 0.7402 0.83259 0.08161 0.0
O306 O 0.70785 0.72756 0.15603 0.0
O307 O 0.6675 0.72634 0.1121 0.0
O308 O 0.18059 0.80236 0.07868 0.0
Cd309 Cd 0.15703 0.76073 0.05244 0.0
Cd310 Cd 0.2022 0.72024 0.10573 0.0
O311 O 0.22722 0.77168 0.10076 0.0
O312 O 0.14154 0.78541 0.00745 0.0
O313 O 0.18485 0.74332 0.00902 0.0
C314 C 0.16762 0.76837 -0.00859 0.0
C315 C 0.22071 0.67454 0.14636 0.0
C316 C 0.21107 0.80193 0.09432 0.0
C317 C 0.1193 0.72811 0.11343 0.0
O318 O 0.15133 0.72264 0.12362 0.0
O319 O 0.11301 0.7402 0.08161 0.0
O320 O 0.21804 0.70785 0.15604 0.0
O321 O 0.21926 0.6675 0.1121 0.0
O322 O 0.76501 0.14325 0.07868 0.0
Cd323 Cd 0.78857 0.18487 0.05244 0.0
Cd324 Cd 0.7434 0.22536 0.10573 0.0
O325 O 0.71839 0.17392 0.10076 0.0
O326 O 0.80406 0.16019 0.00745 0.0
O327 O 0.76075 0.20228 0.00902 0.0
C328 C 0.77798 0.17723 -0.00859 0.0
C329 C 0.72489 0.27106 0.14636 0.0
C330 C 0.73453 0.14367 0.09432 0.0
C331 C 0.8263 0.21749 0.11343 0.0
O332 O 0.79427 0.22296 0.12362 0.0
O333 O 0.83259 0.2054 0.08161 0.0
O334 O 0.72756 0.23775 0.15604 0.0
O335 O 0.72634 0.2781 0.1121 0.0
O336 O 0.57878 0.64326 0.6805 0.0
Cd337 Cd 0.55254 0.68492 0.657 0.0
Cd338 Cd 0.60581 0.72531 0.70215 0.0
O339 O 0.6008 0.67388 0.72717 0.0
O340 O 0.50754 0.66026 0.6415 0.0
O341 O 0.50912 0.70231 0.68484 0.0
C342 C 0.4915 0.67728 0.6676 0.0
C343 C 0.64643 0.77102 0.72066 0.0
C344 C 0.5944 0.64364 0.71099 0.0
C345 C 0.61356 0.71749 0.61927 0.0
O346 O 0.62376 0.72288 0.6513 0.0
O347 O 0.58169 0.70549 0.61299 0.0
O348 O 0.65611 0.73771 0.71802 0.0
O349 O 0.61216 0.77806 0.71918 0.0
O350 O 0.30233 0.57878 0.6805 0.0
Cd351 Cd 0.26068 0.55254 0.657 0.0
Cd352 Cd 0.22029 0.60581 0.70215 0.0
O353 O 0.27172 0.6008 0.72717 0.0
O354 O 0.28534 0.50754 0.6415 0.0
O355 O 0.24328 0.50912 0.68484 0.0
C356 C 0.26832 0.49151 0.6676 0.0
C357 C 0.17457 0.64643 0.72066 0.0
C358 C 0.30195 0.5944 0.71099 0.0
C359 C 0.22811 0.61356 0.61927 0.0
O360 O 0.22272 0.62376 0.6513 0.0
O361 O 0.24011 0.58169 0.61299 0.0
O362 O 0.20789 0.65611 0.71802 0.0
O363 O 0.16753 0.61216 0.71918 0.0
O364 O 0.36682 0.30234 0.68051 0.0
Cd365 Cd 0.39306 0.26068 0.657 0.0
Cd366 Cd 0.33979 0.22029 0.70215 0.0
O367 O 0.3448 0.27172 0.72717 0.0
O368 O 0.43806 0.28534 0.6415 0.0
O369 O 0.43648 0.24329 0.68484 0.0
C370 C 0.4541 0.26833 0.6676 0.0
C371 C 0.29917 0.17458 0.72066 0.0
C372 C 0.3512 0.30196 0.71099 0.0
C373 C 0.33204 0.22811 0.61927 0.0
O374 O 0.32184 0.22272 0.6513 0.0
O375 O 0.36391 0.24011 0.61299 0.0
O376 O 0.2895 0.20789 0.71802 0.0
O377 O 0.33344 0.16754 0.71918 0.0
O378 O 0.64327 0.36682 0.6805 0.0
Cd379 Cd 0.68493 0.39306 0.657 0.0
Cd380 Cd 0.72531 0.33979 0.70214 0.0
O381 O 0.67388 0.3448 0.72716 0.0
O382 O 0.66026 0.43806 0.6415 0.0
O383 O 0.70232 0.43648 0.68484 0.0
C384 C 0.67728 0.4541 0.6676 0.0
C385 C 0.77103 0.29917 0.72066 0.0
C386 C 0.64365 0.3512 0.71099 0.0
C387 C 0.71749 0.33204 0.61927 0.0
O388 O 0.72288 0.32184 0.6513 0.0
O389 O 0.70549 0.36391 0.61299 0.0
O390 O 0.73771 0.28949 0.71802 0.0
O391 O 0.77807 0.33344 0.71918 0.0
O392 O 0.57878 0.30234 0.26494 0.0
Cd393 Cd 0.55254 0.26068 0.28844 0.0
Cd394 Cd 0.60581 0.22029 0.2433 0.0
O395 O 0.6008 0.27172 0.21828 0.0
O396 O 0.50754 0.28534 0.30394 0.0
O397 O 0.50912 0.24329 0.26061 0.0
C398 C 0.4915 0.26833 0.27785 0.0
C399 C 0.64643 0.17458 0.22479 0.0
C400 C 0.5944 0.30196 0.23446 0.0
C401 C 0.61356 0.22811 0.32618 0.0
O402 O 0.62376 0.22272 0.29414 0.0
O403 O 0.58169 0.24011 0.33246 0.0
O404 O 0.65611 0.20789 0.22742 0.0
O405 O 0.61216 0.16754 0.22627 0.0
O406 O 0.64327 0.57878 0.26494 0.0
Cd407 Cd 0.68493 0.55254 0.28844 0.0
Cd408 Cd 0.72531 0.60581 0.2433 0.0
O409 O 0.67388 0.6008 0.21828 0.0
O410 O 0.66026 0.50754 0.30394 0.0
O411 O 0.70232 0.50912 0.26061 0.0
C412 C 0.67728 0.49151 0.27785 0.0
C413 C 0.77103 0.64643 0.22479 0.0
C414 C 0.64365 0.5944 0.23446 0.0
C415 C 0.71749 0.61356 0.32618 0.0
O416 O 0.72288 0.62376 0.29414 0.0
O417 O 0.70549 0.58169 0.33246 0.0
O418 O 0.73771 0.65611 0.22742 0.0
O419 O 0.77807 0.61216 0.22627 0.0
O420 O 0.36682 0.64326 0.26494 0.0
Cd421 Cd 0.39306 0.68492 0.28844 0.0
Cd422 Cd 0.33979 0.72531 0.2433 0.0
O423 O 0.3448 0.67388 0.21828 0.0
O424 O 0.43806 0.66026 0.30394 0.0
O425 O 0.43648 0.70231 0.26061 0.0
C426 C 0.4541 0.67727 0.27785 0.0
C427 C 0.29917 0.77102 0.22479 0.0
C428 C 0.3512 0.64364 0.23446 0.0
C429 C 0.33204 0.71749 0.32618 0.0
O430 O 0.32184 0.72288 0.29414 0.0
O431 O 0.36391 0.70549 0.33246 0.0
O432 O 0.2895 0.73771 0.22742 0.0
O433 O 0.33344 0.77806 0.22627 0.0
O434 O 0.30233 0.36682 0.26494 0.0
Cd435 Cd 0.26067 0.39306 0.28844 0.0
Cd436 Cd 0.22029 0.33979 0.2433 0.0
O437 O 0.27172 0.3448 0.21828 0.0
O438 O 0.28534 0.43806 0.30394 0.0
O439 O 0.24328 0.43648 0.26061 0.0
C440 C 0.26832 0.45409 0.27785 0.0
C441 C 0.17457 0.29917 0.22479 0.0
C442 C 0.30195 0.3512 0.23446 0.0
C443 C 0.22811 0.33204 0.32618 0.0
O444 O 0.22272 0.32184 0.29414 0.0
O445 O 0.24011 0.36391 0.33246 0.0
O446 O 0.20789 0.28949 0.22742 0.0
O447 O 0.16753 0.33344 0.22627 0.0
O448 O 0.68055 0.57875 0.64318 0.0
Cd449 Cd 0.65704 0.55251 0.68482 0.0
Cd450 Cd 0.70221 0.60577 0.72524 0.0
O451 O 0.72721 0.60079 0.6738 0.0
O452 O 0.64156 0.5075 0.66017 0.0
O453 O 0.68489 0.50911 0.70223 0.0
C454 C 0.66766 0.49148 0.6772 0.0
C455 C 0.72075 0.64639 0.77094 0.0
C456 C 0.71104 0.59439 0.64357 0.0
C457 C 0.61932 0.61351 0.71744 0.0
O458 O 0.65135 0.62371 0.72286 0.0
O459 O 0.61302 0.58167 0.70537 0.0
O460 O 0.71809 0.65607 0.73763 0.0
O461 O 0.71928 0.61213 0.77798 0.0
O462 O 0.36685 0.68055 0.64318 0.0
Cd463 Cd 0.39309 0.65704 0.68482 0.0
Cd464 Cd 0.33983 0.70221 0.72525 0.0
O465 O 0.34481 0.72721 0.6738 0.0
O466 O 0.4381 0.64155 0.66017 0.0
O467 O 0.43649 0.68489 0.70223 0.0
C468 C 0.45412 0.66766 0.6772 0.0
C469 C 0.29921 0.72075 0.77094 0.0
C470 C 0.35121 0.71104 0.64357 0.0
C471 C 0.33209 0.61932 0.71744 0.0
O472 O 0.32189 0.65135 0.72286 0.0
O473 O 0.36393 0.61302 0.70538 0.0
O474 O 0.28953 0.71809 0.73764 0.0
O475 O 0.33347 0.71928 0.77798 0.0
O476 O 0.26505 0.36685 0.64318 0.0
Cd477 Cd 0.28856 0.39309 0.68482 0.0
Cd478 Cd 0.24339 0.33983 0.72525 0.0
O479 O 0.21839 0.34481 0.6738 0.0
O480 O 0.30405 0.4381 0.66017 0.0
O481 O 0.26071 0.43649 0.70223 0.0
C482 C 0.27794 0.45412 0.6772 0.0
C483 C 0.22485 0.29921 0.77094 0.0
C484 C 0.23456 0.35121 0.64357 0.0
C485 C 0.32628 0.33209 0.71744 0.0
O486 O 0.29425 0.3219 0.72286 0.0
O487 O 0.33258 0.36393 0.70538 0.0
O488 O 0.22751 0.28953 0.73764 0.0
O489 O 0.22632 0.33347 0.77798 0.0
O490 O 0.57875 0.26505 0.64318 0.0
Cd491 Cd 0.55251 0.28856 0.68482 0.0
Cd492 Cd 0.60577 0.24339 0.72525 0.0
O493 O 0.60079 0.21839 0.6738 0.0
O494 O 0.5075 0.30405 0.66017 0.0
O495 O 0.50911 0.26071 0.70223 0.0
C496 C 0.49148 0.27794 0.6772 0.0
C497 C 0.64639 0.22485 0.77094 0.0
C498 C 0.59439 0.23457 0.64357 0.0
C499 C 0.61351 0.32628 0.71744 0.0
O500 O 0.62371 0.29425 0.72286 0.0
O501 O 0.58167 0.33258 0.70538 0.0
O502 O 0.65607 0.22751 0.73764 0.0
O503 O 0.61213 0.22632 0.77798 0.0
O504 O 0.68055 0.36685 0.30227 0.0
Cd505 Cd 0.65704 0.39309 0.26062 0.0
Cd506 Cd 0.70221 0.33983 0.2202 0.0
O507 O 0.72721 0.34481 0.27165 0.0
O508 O 0.64156 0.4381 0.28527 0.0
O509 O 0.68489 0.43649 0.24322 0.0
C510 C 0.66766 0.45412 0.26824 0.0
C511 C 0.72075 0.29921 0.17451 0.0
C512 C 0.71104 0.35121 0.30188 0.0
C513 C 0.61932 0.33209 0.22801 0.0
O514 O 0.65135 0.32189 0.22258 0.0
O515 O 0.61302 0.36393 0.24007 0.0
O516 O 0.71809 0.28953 0.20781 0.0
O517 O 0.71928 0.33347 0.16747 0.0
O518 O 0.57875 0.68055 0.30227 0.0
Cd519 Cd 0.55251 0.65704 0.26062 0.0
Cd520 Cd 0.60577 0.70221 0.2202 0.0
O521 O 0.60079 0.72721 0.27164 0.0
O522 O 0.5075 0.64155 0.28527 0.0
O523 O 0.50911 0.68489 0.24321 0.0
C524 C 0.49148 0.66766 0.26824 0.0
C525 C 0.64639 0.72075 0.1745 0.0
C526 C 0.59439 0.71104 0.30188 0.0
C527 C 0.61351 0.61932 0.228 0.0
O528 O 0.62371 0.65135 0.22258 0.0
O529 O 0.58167 0.61302 0.24007 0.0
O530 O 0.65607 0.71809 0.20781 0.0
O531 O 0.61213 0.71928 0.16747 0.0
O532 O 0.26505 0.57875 0.30227 0.0
Cd533 Cd 0.28856 0.55251 0.26062 0.0
Cd534 Cd 0.24339 0.60577 0.2202 0.0
O535 O 0.21839 0.60079 0.27165 0.0
O536 O 0.30404 0.5075 0.28527 0.0
O537 O 0.26071 0.50911 0.24322 0.0
C538 C 0.27794 0.49148 0.26824 0.0
C539 C 0.22485 0.64639 0.17451 0.0
C540 C 0.23456 0.59439 0.30188 0.0
C541 C 0.32628 0.61351 0.22801 0.0
O542 O 0.29425 0.62371 0.22258 0.0
O543 O 0.33258 0.58167 0.24007 0.0
O544 O 0.22751 0.65607 0.20781 0.0
O545 O 0.22632 0.61213 0.16747 0.0
O546 O 0.36685 0.26505 0.30227 0.0
Cd547 Cd 0.39309 0.28856 0.26062 0.0
Cd548 Cd 0.33983 0.24339 0.2202 0.0
O549 O 0.34481 0.21839 0.27165 0.0
O550 O 0.4381 0.30405 0.28527 0.0
O551 O 0.43649 0.26071 0.24321 0.0
C552 C 0.45412 0.27794 0.26824 0.0
C553 C 0.29921 0.22485 0.1745 0.0
C554 C 0.35121 0.23456 0.30188 0.0
C555 C 0.33209 0.32628 0.22801 0.0
O556 O 0.32189 0.29425 0.22258 0.0
O557 O 0.36393 0.33258 0.24007 0.0
O558 O 0.28953 0.22751 0.20781 0.0
O559 O 0.33347 0.22632 0.16747 0.0
O560 O 0.64324 0.68059 0.57868 0.0
Cd561 Cd 0.68486 0.65703 0.55243 0.0
Cd562 Cd 0.72536 0.7022 0.60573 0.0
O563 O 0.67391 0.72722 0.60076 0.0
O564 O 0.66018 0.64154 0.50745 0.0
O565 O 0.70228 0.68485 0.50902 0.0
C566 C 0.67723 0.66762 0.49141 0.0
C567 C 0.77106 0.72071 0.64636 0.0
C568 C 0.64367 0.71107 0.59432 0.0
C569 C 0.71749 0.6193 0.61343 0.0
O570 O 0.72296 0.65133 0.62362 0.0
O571 O 0.7054 0.61301 0.5816 0.0
O572 O 0.73775 0.71804 0.65604 0.0
O573 O 0.7781 0.71926 0.6121 0.0
O574 O 0.64324 0.26501 0.36677 0.0
Cd575 Cd 0.68486 0.28857 0.39301 0.0
Cd576 Cd 0.72536 0.2434 0.33972 0.0
O577 O 0.67391 0.21839 0.34468 0.0
O578 O 0.66018 0.30406 0.438 0.0
O579 O 0.70228 0.26075 0.43642 0.0
C580 C 0.67723 0.27798 0.45403 0.0
C581 C 0.77106 0.22489 0.29909 0.0
C582 C 0.64367 0.23453 0.35113 0.0
C583 C 0.71749 0.3263 0.33202 0.0
O584 O 0.72296 0.29427 0.32183 0.0
O585 O 0.7054 0.33259 0.36384 0.0
O586 O 0.73775 0.22756 0.28941 0.0
O587 O 0.7781 0.22634 0.33335 0.0
O588 O 0.68059 0.64324 0.36677 0.0
Cd589 Cd 0.65703 0.68487 0.39301 0.0
Cd590 Cd 0.7022 0.72536 0.33972 0.0
O591 O 0.72721 0.67392 0.34468 0.0
O592 O 0.64154 0.66019 0.43799 0.0
O593 O 0.68485 0.70228 0.43642 0.0
C594 C 0.66762 0.67723 0.45403 0.0
C595 C 0.72071 0.77106 0.29909 0.0
C596 C 0.71107 0.64367 0.35113 0.0
C597 C 0.6193 0.71749 0.33201 0.0
O598 O 0.65133 0.72296 0.32182 0.0
O599 O 0.61301 0.7054 0.36384 0.0
O600 O 0.71804 0.73775 0.28941 0.0
O601 O 0.71926 0.7781 0.33335 0.0
O602 O 0.30236 0.68059 0.36677 0.0
Cd603 Cd 0.26074 0.65703 0.39301 0.0
Cd604 Cd 0.22024 0.7022 0.33972 0.0
O605 O 0.27169 0.72722 0.34468 0.0
O606 O 0.28542 0.64154 0.438 0.0
O607 O 0.24332 0.68485 0.43642 0.0
C608 C 0.26837 0.66762 0.45403 0.0
C609 C 0.17454 0.72071 0.29909 0.0
C610 C 0.30193 0.71107 0.35113 0.0
C611 C 0.22811 0.6193 0.33202 0.0
O612 O 0.22264 0.65133 0.32183 0.0
O613 O 0.2402 0.61301 0.36384 0.0
O614 O 0.20785 0.71804 0.28941 0.0
O615 O 0.1675 0.71926 0.33335 0.0
O616 O 0.26501 0.30236 0.36677 0.0
Cd617 Cd 0.28857 0.26074 0.39301 0.0
Cd618 Cd 0.2434 0.22024 0.33972 0.0
O619 O 0.21839 0.27168 0.34468 0.0
O620 O 0.30406 0.28541 0.438 0.0
O621 O 0.26075 0.24332 0.43642 0.0
C622 C 0.27798 0.26837 0.45403 0.0
C623 C 0.22489 0.17454 0.29909 0.0
C624 C 0.23453 0.30193 0.35113 0.0
C625 C 0.3263 0.22811 0.33202 0.0
O626 O 0.29427 0.22264 0.32183 0.0
O627 O 0.33259 0.2402 0.36384 0.0
O628 O 0.22756 0.20785 0.28941 0.0
O629 O 0.22634 0.1675 0.33334 0.0
O630 O 0.30236 0.26501 0.57868 0.0
Cd631 Cd 0.26074 0.28857 0.55244 0.0
Cd632 Cd 0.22024 0.2434 0.60573 0.0
O633 O 0.27169 0.21839 0.60076 0.0
O634 O 0.28542 0.30406 0.50745 0.0
O635 O 0.24332 0.26075 0.50902 0.0
C636 C 0.26837 0.27798 0.49141 0.0
C637 C 0.17454 0.22489 0.64636 0.0
C638 C 0.30193 0.23453 0.59432 0.0
C639 C 0.22811 0.3263 0.61343 0.0
O640 O 0.22265 0.29427 0.62362 0.0
O641 O 0.2402 0.33259 0.58161 0.0
O642 O 0.20785 0.22756 0.65603 0.0
O643 O 0.1675 0.22634 0.6121 0.0
O644 O 0.68059 0.30236 0.57868 0.0
Cd645 Cd 0.65703 0.26073 0.55244 0.0
Cd646 Cd 0.7022 0.22024 0.60573 0.0
O647 O 0.72721 0.27168 0.60076 0.0
O648 O 0.64154 0.28541 0.50745 0.0
O649 O 0.68485 0.24332 0.50902 0.0
C650 C 0.66762 0.26837 0.49141 0.0
C651 C 0.72071 0.17454 0.64636 0.0
C652 C 0.71107 0.30193 0.59432 0.0
C653 C 0.6193 0.22811 0.61343 0.0
O654 O 0.65133 0.22264 0.62362 0.0
O655 O 0.61301 0.2402 0.58161 0.0
O656 O 0.71804 0.20785 0.65604 0.0
O657 O 0.71926 0.1675 0.6121 0.0
O658 O 0.26501 0.64325 0.57868 0.0
Cd659 Cd 0.28857 0.68487 0.55244 0.0
Cd660 Cd 0.2434 0.72536 0.60573 0.0
O661 O 0.21839 0.67392 0.60076 0.0
O662 O 0.30406 0.66019 0.50745 0.0
O663 O 0.26076 0.70228 0.50902 0.0
C664 C 0.27798 0.67723 0.49141 0.0
C665 C 0.22489 0.77106 0.64636 0.0
C666 C 0.23453 0.64367 0.59432 0.0
C667 C 0.3263 0.71749 0.61343 0.0
O668 O 0.29427 0.72296 0.62362 0.0
O669 O 0.33259 0.7054 0.58161 0.0
O670 O 0.22756 0.73775 0.65604 0.0
O671 O 0.22634 0.7781 0.6121 0.0
loop_
_geom_bond_atom_site_label_1
_geom_bond_atom_site_label_2
_geom_bond_distance
_geom_bond_site_symmetry_2
_ccdc_geom_bond_type
O0 Cd1 2.223 . S
O0 C8 1.315 . S
Cd1 O0 2.223 . S
Cd1 O4 2.297 . S
Cd1 O5 2.439 . S
Cd1 O11 2.240 . S
Cd2 O3 2.240 . S
Cd2 O10 2.223 . S
Cd2 O12 2.297 . S
Cd2 O13 2.439 . S
O3 Cd2 2.240 . S
O3 C8 1.279 . S
O4 Cd1 2.297 . S
O4 C6 1.247 . S
O5 Cd1 2.439 . S
O5 C6 1.208 . S
C6 O4 1.247 . S
C6 O5 1.208 . S
C7 O12 1.247 . S
C7 O13 1.208 . S
C8 O0 1.315 . S
C8 O3 1.279 . S
C9 O10 1.315 . S
C9 O11 1.279 . S
O10 Cd2 2.223 . S
O10 C9 1.315 . S
O11 Cd1 2.240 . S
O11 C9 1.279 . S
O12 Cd2 2.297 . S
O12 C7 1.247 . S
O13 Cd2 2.439 . S
O13 C7 1.208 . S
O14 Cd15 2.223 . S
O14 C22 1.315 . S
Cd15 O14 2.223 . S
Cd15 O18 2.297 . S
Cd15 O19 2.439 . S
Cd15 O25 2.240 . S
Cd16 O17 2.240 . S
Cd16 O24 2.223 . S
Cd16 O26 2.297 . S
Cd16 O27 2.439 . S
O17 Cd16 2.240 . S
O17 C22 1.279 . S
O18 Cd15 2.297 . S
O18 C20 1.247 . S
O19 Cd15 2.439 . S
O19 C20 1.208 . S
C20 O18 1.247 . S
C20 O19 1.208 . S
C21 O26 1.247 . S
C21 O27 1.208 . S
C22 O14 1.315 . S
C22 O17 1.279 . S
C23 O24 1.315 . S
C23 O25 1.279 . S
O24 Cd16 2.223 . S
O24 C23 1.315 . S
O25 Cd15 2.240 . S
O25 C23 1.279 . S
O26 Cd16 2.297 . S
O26 C21 1.247 . S
O27 Cd16 2.439 . S
O27 C21 1.208 . S
O28 Cd29 2.223 . S
O28 C36 1.315 . S
Cd29 O28 2.223 . S
Cd29 O32 2.297 . S
Cd29 O33 2.439 . S
Cd29 O39 2.240 . S
Cd30 O31 2.240 . S
Cd30 O38 2.223 . S
Cd30 O40 2.297 . S
Cd30 O41 2.439 . S
O31 Cd30 2.240 . S
O31 C36 1.279 . S
O32 Cd29 2.297 . S
O32 C34 1.247 . S
O33 Cd29 2.439 . S
O33 C34 1.208 . S
C34 O32 1.247 . S
C34 O33 1.208 . S
C35 O40 1.247 . S
C35 O41 1.208 . S
C36 O28 1.315 . S
C36 O31 1.279 . S
C37 O38 1.315 . S
C37 O39 1.279 . S
O38 Cd30 2.223 . S
O38 C37 1.315 . S
O39 Cd29 2.240 . S
O39 C37 1.279 . S
O40 Cd30 2.297 . S
O40 C35 1.247 . S
O41 Cd30 2.439 . S
O41 C35 1.208 . S
O42 Cd43 2.223 . S
O42 C50 1.315 . S
Cd43 O42 2.223 . S
Cd43 O46 2.297 . S
Cd43 O47 2.439 . S
Cd43 O53 2.240 . S
Cd44 O45 2.240 . S
Cd44 O52 2.223 . S
Cd44 O54 2.297 . S
Cd44 O55 2.439 . S
O45 Cd44 2.240 . S
O45 C50 1.279 . S
O46 Cd43 2.297 . S
O46 C48 1.247 . S
O47 Cd43 2.439 . S
O47 C48 1.208 . S
C48 O46 1.247 . S
C48 O47 1.208 . S
C49 O54 1.247 . S
C49 O55 1.208 . S
C50 O42 1.315 . S
C50 O45 1.279 . S
C51 O52 1.315 . S
C51 O53 1.279 . S
O52 Cd44 2.223 . S
O52 C51 1.315 . S
O53 Cd43 2.240 . S
O53 C51 1.279 . S
O54 Cd44 2.297 . S
O54 C49 1.247 . S
O55 Cd44 2.439 . S
O55 C49 1.208 . S
O56 Cd57 2.223 . S
O56 C64 1.315 . S
Cd57 O56 2.223 . S
Cd57 O60 2.297 . S
Cd57 O61 2.439 . S
Cd57 O67 2.240 . S
Cd58 O59 2.240 . S
Cd58 O66 2.223 . S
Cd58 O68 2.297 . S
Cd58 O69 2.439 . S
O59 Cd58 2.240 . S
O59 C64 1.279 . S
O60 Cd57 2.297 . S
O60 C62 1.247 . S
O61 Cd57 2.439 . S
O61 C62 1.208 . S
C62 O60 1.247 . S
C62 O61 1.208 . S
C63 O68 1.247 . S
C63 O69 1.208 . S
C64 O56 1.315 . S
C64 O59 1.279 . S
C65 O66 1.315 . S
C65 O67 1.279 . S
O66 Cd58 2.223 . S
O66 C65 1.315 . S
O67 Cd57 2.240 . S
O67 C65 1.279 . S
O68 Cd58 2.297 . S
O68 C63 1.247 . S
O69 Cd58 2.439 . S
O69 C63 1.208 . S
O70 Cd71 2.223 . S
O70 C78 1.315 . S
Cd71 O70 2.223 . S
Cd71 O74 2.297 . S
Cd71 O75 2.439 . S
Cd71 O81 2.240 . S
Cd72 O73 2.240 . S
Cd72 O80 2.223 . S
Cd72 O82 2.297 . S
Cd72 O83 2.439 . S
O73 Cd72 2.240 . S
O73 C78 1.279 . S
O74 Cd71 2.297 . S
O74 C76 1.247 . S
O75 Cd71 2.439 . S
O75 C76 1.208 . S
C76 O74 1.247 . S
C76 O75 1.208 . S
C77 O82 1.247 . S
C77 O83 1.208 . S
C78 O70 1.315 . S
C78 O73 1.279 . S
C79 O80 1.315 . S
C79 O81 1.279 . S
O80 Cd72 2.223 . S
O80 C79 1.315 . S
O81 Cd71 2.240 . S
O81 C79 1.279 . S
O82 Cd72 2.297 . S
O82 C77 1.247 . S
O83 Cd72 2.439 . S
O83 C77 1.208 . S
O84 Cd85 2.223 . S
O84 C92 1.315 . S
Cd85 O84 2.223 . S
Cd85 O88 2.297 . S
Cd85 O89 2.439 . S
Cd85 O95 2.240 . S
Cd86 O87 2.240 . S
Cd86 O94 2.223 . S
Cd86 O96 2.297 . S
Cd86 O97 2.439 . S
O87 Cd86 2.240 . S
O87 C92 1.279 . S
O88 Cd85 2.297 . S
O88 C90 1.247 . S
O89 Cd85 2.439 . S
O89 C90 1.208 . S
C90 O88 1.247 . S
C90 O89 1.208 . S
C91 O96 1.247 . S
C91 O97 1.208 . S
C92 O84 1.315 . S
C92 O87 1.279 . S
C93 O94 1.315 . S
C93 O95 1.279 . S
O94 Cd86 2.223 . S
O94 C93 1.315 . S
O95 Cd85 2.240 . S
O95 C93 1.279 . S
O96 Cd86 2.297 . S
O96 C91 1.247 . S
O97 Cd86 2.439 . S
O97 C91 1.208 . S
O98 Cd99 2.223 . S
O98 C106 1.315 . S
Cd99 O98 2.223 . S
Cd99 O102 2.297 . S
Cd99 O103 2.439 . S
Cd99 O109 2.240 . S
Cd100 O101 2.240 . S
Cd100 O108 2.223 . S
Cd100 O110 2.297 . S
Cd100 O111 2.439 . S
O101 Cd100 2.240 . S
O101 C106 1.279 . S
O102 Cd99 2.297 . S
O102 C104 1.247 . S
O103 Cd99 2.439 . S
O103 C104 1.208 . S
C104 O102 1.247 . S
C104 O103 1.208 . S
C105 O110 1.247 . S
C105 O111 1.208 . S
C106 O98 1.315 . S
C106 O101 1.279 . S
C107 O108 1.315 . S
C107 O109 1.279 . S
O108 Cd100 2.223 . S
O108 C107 1.315 . S
O109 Cd99 2.240 . S
O109 C107 1.279 . S
O110 Cd100 2.297 . S
O110 C105 1.247 . S
O111 Cd100 2.439 . S
O111 C105 1.208 . S
O112 Cd113 2.223 . S
O112 C120 1.315 . S
Cd113 O112 2.223 . S
Cd113 O116 2.297 . S
Cd113 O117 2.439 . S
Cd113 O123 2.240 . S
Cd114 O115 2.240 . S
Cd114 O122 2.223 . S
Cd114 O124 2.297 . S
Cd114 O125 2.439 . S
O115 Cd114 2.240 . S
O115 C120 1.279 . S
O116 Cd113 2.297 . S
O116 C118 1.247 . S
O117 Cd113 2.439 . S
O117 C118 1.208 . S
C118 O116 1.247 . S
C118 O117 1.208 . S
C119 O124 1.247 . S
C119 O125 1.208 . S
C120 O112 1.315 . S
C120 O115 1.279 . S
C121 O122 1.315 . S
C121 O123 1.279 . S
O122 Cd114 2.223 . S
O122 C121 1.315 . S
O123 Cd113 2.240 . S
O123 C121 1.279 . S
O124 Cd114 2.297 . S
O124 C119 1.247 . S
O125 Cd114 2.439 . S
O125 C119 1.208 . S
O126 Cd127 2.223 . S
O126 C134 1.315 . S
Cd127 O126 2.223 . S
Cd127 O130 2.297 . S
Cd127 O131 2.439 . S
Cd127 O137 2.240 . S
Cd128 O129 2.240 . S
Cd128 O136 2.223 . S
Cd128 O138 2.297 . S
Cd128 O139 2.439 . S
O129 Cd128 2.240 . S
O129 C134 1.279 . S
O130 Cd127 2.297 . S
O130 C132 1.247 . S
O131 Cd127 2.439 . S
O131 C132 1.208 . S
C132 O130 1.247 . S
C132 O131 1.208 . S
C133 O138 1.247 . S
C133 O139 1.208 . S
C134 O126 1.315 . S
C134 O129 1.279 . S
C135 O136 1.315 . S
C135 O137 1.279 . S
O136 Cd128 2.223 . S
O136 C135 1.315 . S
O137 Cd127 2.240 . S
O137 C135 1.279 . S
O138 Cd128 2.297 . S
O138 C133 1.247 . S
O139 Cd128 2.439 . S
O139 C133 1.208 . S
O140 Cd141 2.223 . S
O140 C148 1.315 . S
Cd141 O140 2.223 . S
Cd141 O144 2.297 . S
Cd141 O145 2.439 . S
Cd141 O151 2.240 . S
Cd142 O143 2.240 . S
Cd142 O150 2.223 . S
Cd142 O152 2.297 . S
Cd142 O153 2.439 . S
O143 Cd142 2.240 . S
O143 C148 1.279 . S
O144 Cd141 2.297 . S
O144 C146 1.247 . S
O145 Cd141 2.439 . S
O145 C146 1.208 . S
C146 O144 1.247 . S
C146 O145 1.208 . S
C147 O152 1.247 . S
C147 O153 1.208 . S
C148 O140 1.315 . S
C148 O143 1.279 . S
C149 O150 1.315 . S
C149 O151 1.279 . S
O150 Cd142 2.223 . S
O150 C149 1.315 . S
O151 Cd141 2.240 . S
O151 C149 1.279 . S
O152 Cd142 2.297 . S
O152 C147 1.247 . S
O153 Cd142 2.439 . S
O153 C147 1.208 . S
O154 Cd155 2.223 . S
O154 C162 1.315 . S
Cd155 O154 2.223 . S
Cd155 O158 2.297 . S
Cd155 O159 2.439 . S
Cd155 O165 2.240 . S
Cd156 O157 2.240 . S
Cd156 O164 2.223 . S
Cd156 O166 2.297 . S
Cd156 O167 2.439 . S
O157 Cd156 2.240 . S
O157 C162 1.279 . S
O158 Cd155 2.297 . S
O158 C160 1.247 . S
O159 Cd155 2.439 . S
O159 C160 1.208 . S
C160 O158 1.247 . S
C160 O159 1.208 . S
C161 O166 1.247 . S
C161 O167 1.208 . S
C162 O154 1.315 . S
C162 O157 1.279 . S
C163 O164 1.315 . S
C163 O165 1.279 . S
O164 Cd156 2.223 . S
O164 C163 1.315 . S
O165 Cd155 2.240 . S
O165 C163 1.279 . S
O166 Cd156 2.297 . S
O166 C161 1.247 . S
O167 Cd156 2.439 . S
O167 C161 1.208 . S
O168 Cd169 2.223 . S
O168 C176 1.315 . S
Cd169 O168 2.223 . S
Cd169 O172 2.297 . S
Cd169 O173 2.439 . S
Cd169 O179 2.240 . S
Cd170 O171 2.240 . S
Cd170 O178 2.223 . S
Cd170 O180 2.297 . S
Cd170 O181 2.439 . S
O171 Cd170 2.240 . S
O171 C176 1.279 . S
O172 Cd169 2.297 . S
O172 C174 1.247 . S
O173 Cd169 2.439 . S
O173 C174 1.208 . S
C174 O172 1.247 . S
C174 O173 1.208 . S
C175 O180 1.247 . S
C175 O181 1.208 . S
C176 O168 1.315 . S
C176 O171 1.279 . S
C177 O178 1.315 . S
C177 O179 1.279 . S
O178 Cd170 2.223 . S
O178 C177 1.315 . S
O179 Cd169 2.240 . S
O179 C177 1.279 . S
O180 Cd170 2.297 . S
O180 C175 1.247 . S
O181 Cd170 2.439 . S
O181 C175 1.208 . S
O182 Cd183 2.223 . S
O182 C190 1.315 . S
Cd183 O182 2.223 . S
Cd183 O186 2.297 . S
Cd183 O187 2.439 . S
Cd183 O193 2.240 . S
Cd184 O185 2.240 . S
Cd184 O192 2.223 . S
Cd184 O194 2.297 . S
Cd184 O195 2.439 . S
O185 Cd184 2.240 . S
O185 C190 1.279 . S
O186 Cd183 2.297 . S
O186 C188 1.247 . S
O187 Cd183 2.439 . S
O187 C188 1.208 . S
C188 O186 1.247 . S
C188 O187 1.208 . S
C189 O194 1.247 . S
C189 O195 1.208 . S
C190 O182 1.315 . S
C190 O185 1.279 . S
C191 O192 1.315 . S
C191 O193 1.279 . S
O192 Cd184 2.223 . S
O192 C191 1.315 . S
O193 Cd183 2.240 . S
O193 C191 1.279 . S
O194 Cd184 2.297 . S
O194 C189 1.247 . S
O195 Cd184 2.439 . S
O195 C189 1.208 . S
O196 Cd197 2.223 . S
O196 C204 1.315 . S
Cd197 O196 2.223 . S
Cd197 O200 2.297 . S
Cd197 O201 2.439 . S
Cd197 O207 2.240 . S
Cd198 O199 2.240 . S
Cd198 O206 2.223 . S
Cd198 O208 2.297 . S
Cd198 O209 2.439 . S
O199 Cd198 2.240 . S
O199 C204 1.279 . S
O200 Cd197 2.297 . S
O200 C202 1.247 . S
O201 Cd197 2.439 . S
O201 C202 1.208 . S
C202 O200 1.247 . S
C202 O201 1.208 . S
C203 O208 1.247 . S
C203 O209 1.208 . S
C204 O196 1.315 . S
C204 O199 1.279 . S
C205 O206 1.315 . S
C205 O207 1.279 . S
O206 Cd198 2.223 . S
O206 C205 1.315 . S
O207 Cd197 2.240 . S
O207 C205 1.279 . S
O208 Cd198 2.297 . S
O208 C203 1.247 . S
O209 Cd198 2.439 . S
O209 C203 1.208 . S
O210 Cd211 2.223 . S
O210 C218 1.315 . S
Cd211 O210 2.223 . S
Cd211 O214 2.297 . S
Cd211 O215 2.439 . S
Cd211 O221 2.240 . S
Cd212 O213 2.240 . S
Cd212 O220 2.223 . S
Cd212 O222 2.297 . S
Cd212 O223 2.439 . S
O213 Cd212 2.240 . S
O213 C218 1.279 . S
O214 Cd211 2.297 . S
O214 C216 1.247 . S
O215 Cd211 2.439 . S
O215 C216 1.208 . S
C216 O214 1.247 . S
C216 O215 1.208 . S
C217 O222 1.247 . S
C217 O223 1.208 . S
C218 O210 1.315 . S
C218 O213 1.279 . S
C219 O220 1.315 . S
C219 O221 1.279 . S
O220 Cd212 2.223 . S
O220 C219 1.315 . S
O221 Cd211 2.240 . S
O221 C219 1.279 . S
O222 Cd212 2.297 . S
O222 C217 1.247 . S
O223 Cd212 2.439 . S
O223 C217 1.208 . S
O224 Cd225 2.223 . S
O224 C232 1.315 . S
Cd225 O224 2.223 . S
Cd225 O228 2.297 . S
Cd225 O229 2.439 . S
Cd225 O235 2.240 . S
Cd226 O227 2.240 . S
Cd226 O234 2.223 . S
Cd226 O236 2.297 . S
Cd226 O237 2.439 . S
O227 Cd226 2.240 . S
O227 C232 1.279 . S
O228 Cd225 2.297 . S
O228 C230 1.247 . S
O229 Cd225 2.439 . S
O229 C230 1.208 . S
C230 O228 1.247 . S
C230 O229 1.208 . S
C231 O236 1.247 . S
C231 O237 1.208 . S
C232 O224 1.315 . S
C232 O227 1.279 . S
C233 O234 1.315 . S
C233 O235 1.279 . S
O234 Cd226 2.223 . S
O234 C233 1.315 . S
O235 Cd225 2.240 . S
O235 C233 1.279 . S
O236 Cd226 2.297 . S
O236 C231 1.247 . S
O237 Cd226 2.439 . S
O237 C231 1.208 . S
O238 Cd239 2.223 . S
O238 C246 1.315 . S
Cd239 O238 2.223 . S
Cd239 O242 2.297 . S
Cd239 O243 2.439 . S
Cd239 O249 2.240 . S
Cd240 O241 2.240 . S
Cd240 O248 2.223 . S
Cd240 O250 2.297 . S
Cd240 O251 2.439 . S
O241 Cd240 2.240 . S
O241 C246 1.279 . S
O242 Cd239 2.297 . S
O242 C244 1.247 . S
O243 Cd239 2.439 . S
O243 C244 1.208 . S
C244 O242 1.247 . S
C244 O243 1.208 . S
C245 O250 1.247 . S
C245 O251 1.208 . S
C246 O238 1.315 . S
C246 O241 1.279 . S
C247 O248 1.315 . S
C247 O249 1.279 . S
O248 Cd240 2.223 . S
O248 C247 1.315 . S
O249 Cd239 2.240 . S
O249 C247 1.279 . S
O250 Cd240 2.297 . S
O250 C245 1.247 . S
O251 Cd240 2.439 . S
O251 C245 1.208 . S
O252 Cd253 2.223 . S
O252 C260 1.315 . S
Cd253 O252 2.223 . S
Cd253 O256 2.297 . S
Cd253 O257 2.439 . S
Cd253 O263 2.240 . S
Cd254 O255 2.240 . S
Cd254 O262 2.223 . S
Cd254 O264 2.297 . S
Cd254 O265 2.439 . S
O255 Cd254 2.240 . S
O255 C260 1.279 . S
O256 Cd253 2.297 . S
O256 C258 1.247 . S
O257 Cd253 2.439 . S
O257 C258 1.208 . S
C258 O256 1.247 . S
C258 O257 1.208 . S
C259 O264 1.247 . S
C259 O265 1.208 . S
C260 O252 1.315 . S
C260 O255 1.279 . S
C261 O262 1.315 . S
C261 O263 1.279 . S
O262 Cd254 2.223 . S
O262 C261 1.315 . S
O263 Cd253 2.240 . S
O263 C261 1.279 . S
O264 Cd254 2.297 . S
O264 C259 1.247 . S
O265 Cd254 2.439 . S
O265 C259 1.208 . S
O266 Cd267 2.223 . S
O266 C274 1.315 . S
Cd267 O266 2.223 . S
Cd267 O270 2.297 . S
Cd267 O271 2.439 . S
Cd267 O277 2.240 . S
Cd268 O269 2.240 . S
Cd268 O276 2.223 . S
Cd268 O278 2.297 . S
Cd268 O279 2.439 . S
O269 Cd268 2.240 . S
O269 C274 1.279 . S
O270 Cd267 2.297 . S
O270 C272 1.247 . S
O271 Cd267 2.439 . S
O271 C272 1.208 . S
C272 O270 1.247 . S
C272 O271 1.208 . S
C273 O278 1.247 . S
C273 O279 1.208 . S
C274 O266 1.315 . S
C274 O269 1.279 . S
C275 O276 1.315 . S
C275 O277 1.279 . S
O276 Cd268 2.223 . S
O276 C275 1.315 . S
O277 Cd267 2.240 . S
O277 C275 1.279 . S
O278 Cd268 2.297 . S
O278 C273 1.247 . S
O279 Cd268 2.439 . S
O279 C273 1.208 . S
O280 Cd281 2.223 . S
O280 C288 1.315 . S
Cd281 O280 2.223 . S
Cd281 O284 2.297 . S
Cd281 O285 2.439 . S
Cd281 O291 2.240 . S
Cd282 O283 2.240 . S
Cd282 O290 2.223 . S
Cd282 O292 2.297 . S
Cd282 O293 2.439 . S
O283 Cd282 2.240 . S
O283 C288 1.279 . S
O284 Cd281 2.297 . S
O284 C286 1.247 . S
O285 Cd281 2.439 . S
O285 C286 1.208 . S
C286 O284 1.247 . S
C286 O285 1.208 . S
C287 O292 1.247 . S
C287 O293 1.208 . S
C288 O280 1.315 . S
C288 O283 1.279 . S
C289 O290 1.315 . S
C289 O291 1.279 . S
O290 Cd282 2.223 . S
O290 C289 1.315 . S
O291 Cd281 2.240 . S
O291 C289 1.279 . S
O292 Cd282 2.297 . S
O292 C287 1.247 . S
O293 Cd282 2.439 . S
O293 C287 1.208 . S
O294 Cd295 2.223 . S
O294 C302 1.315 . S
Cd295 O294 2.223 . S
Cd295 O298 2.297 . S
Cd295 O299 2.439 . S
Cd295 O305 2.240 . S
Cd296 O297 2.240 . S
Cd296 O304 2.223 . S
Cd296 O306 2.297 . S
Cd296 O307 2.439 . S
O297 Cd296 2.240 . S
O297 C302 1.279 . S
O298 Cd295 2.297 . S
O298 C300 1.247 . S
O299 Cd295 2.439 . S
O299 C300 1.208 . S
C300 O298 1.247 . S
C300 O299 1.208 . S
C301 O306 1.247 . S
C301 O307 1.208 . S
C302 O294 1.315 . S
C302 O297 1.279 . S
C303 O304 1.315 . S
C303 O305 1.279 . S
O304 Cd296 2.223 . S
O304 C303 1.315 . S
O305 Cd295 2.240 . S
O305 C303 1.279 . S
O306 Cd296 2.297 . S
O306 C301 1.247 . S
O307 Cd296 2.439 . S
O307 C301 1.208 . S
O308 Cd309 2.223 . S
O308 C316 1.315 . S
Cd309 O308 2.223 . S
Cd309 O312 2.297 . S
Cd309 O313 2.439 . S
Cd309 O319 2.240 . S
Cd310 O311 2.240 . S
Cd310 O318 2.223 . S
Cd310 O320 2.297 . S
Cd310 O321 2.439 . S
O311 Cd310 2.240 . S
O311 C316 1.279 . S
O312 Cd309 2.297 . S
O312 C314 1.247 . S
O313 Cd309 2.439 . S
O313 C314 1.208 . S
C314 O312 1.247 . S
C314 O313 1.208 . S
C315 O320 1.247 . S
C315 O321 1.208 . S
C316 O308 1.315 . S
C316 O311 1.279 . S
C317 O318 1.315 . S
C317 O319 1.279 . S
O318 Cd310 2.223 . S
O318 C317 1.315 . S
O319 Cd309 2.240 . S
O319 C317 1.279 . S
O320 Cd310 2.297 . S
O320 C315 1.247 . S
O321 Cd310 2.439 . S
O321 C315 1.208 . S
O322 Cd323 2.223 . S
O322 C330 1.315 . S
Cd323 O322 2.223 . S
Cd323 O326 2.297 . S
Cd323 O327 2.439 . S
Cd323 O333 2.240 . S
Cd324 O325 2.240 . S
Cd324 O332 2.223 . S
Cd324 O334 2.297 . S
Cd324 O335 2.439 . S
O325 Cd324 2.240 . S
O325 C330 1.279 . S
O326 Cd323 2.297 . S
O326 C328 1.247 . S
O327 Cd323 2.439 . S
O327 C328 1.208 . S
C328 O326 1.247 . S
C328 O327 1.208 . S
C329 O334 1.247 . S
C329 O335 1.208 . S
C330 O322 1.315 . S
C330 O325 1.279 . S
C331 O332 1.315 . S
C331 O333 1.279 . S
O332 Cd324 2.223 . S
O332 C331 1.315 . S
O333 Cd323 2.240 . S
O333 C331 1.279 . S
O334 Cd324 2.297 . S
O334 C329 1.247 . S
O335 Cd324 2.439 . S
O335 C329 1.208 . S
O336 Cd337 2.223 . S
O336 C344 1.315 . S
Cd337 O336 2.223 . S
Cd337 O340 2.297 . S
Cd337 O341 2.439 . S
Cd337 O347 2.240 . S
Cd338 O339 2.240 . S
Cd338 O346 2.223 . S
Cd338 O348 2.297 . S
Cd338 O349 2.439 . S
O339 Cd338 2.240 . S
O339 C344 1.279 . S
O340 Cd337 2.297 . S
O340 C342 1.247 . S
O341 Cd337 2.439 . S
O341 C342 1.208 . S
C342 O340 1.247 . S
C342 O341 1.208 . S
C343 O348 1.247 . S
C343 O349 1.208 . S
C344 O336 1.315 . S
C344 O339 1.279 . S
C345 O346 1.315 . S
C345 O347 1.279 . S
O346 Cd338 2.223 . S
O346 C345 1.315 . S
O347 Cd337 2.240 . S
O347 C345 1.279 . S
O348 Cd338 2.297 . S
O348 C343 1.247 . S
O349 Cd338 2.439 . S
O349 C343 1.208 . S
O350 Cd351 2.223 . S
O350 C358 1.315 . S
Cd351 O350 2.223 . S
Cd351 O354 2.297 . S
Cd351 O355 2.439 . S
Cd351 O361 2.240 . S
Cd352 O353 2.240 . S
Cd352 O360 2.223 . S
Cd352 O362 2.297 . S
Cd352 O363 2.439 . S
O353 Cd352 2.240 . S
O353 C358 1.279 . S
O354 Cd351 2.297 . S
O354 C356 1.247 . S
O355 Cd351 2.439 . S
O355 C356 1.208 . S
C356 O354 1.247 . S
C356 O355 1.208 . S
C357 O362 1.247 . S
C357 O363 1.208 . S
C358 O350 1.315 . S
C358 O353 1.279 . S
C359 O360 1.315 . S
C359 O361 1.279 . S
O360 Cd352 2.223 . S
O360 C359 1.315 . S
O361 Cd351 2.240 . S
O361 C359 1.279 . S
O362 Cd352 2.297 . S
O362 C357 1.247 . S
O363 Cd352 2.439 . S
O363 C357 1.208 . S
O364 Cd365 2.223 . S
O364 C372 1.315 . S
Cd365 O364 2.223 . S
Cd365 O368 2.297 . S
Cd365 O369 2.439 . S
Cd365 O375 2.240 . S
Cd366 O367 2.240 . S
Cd366 O374 2.223 . S
Cd366 O376 2.297 . S
Cd366 O377 2.439 . S
O367 Cd366 2.240 . S
O367 C372 1.279 . S
O368 Cd365 2.297 . S
O368 C370 1.247 . S
O369 Cd365 2.439 . S
O369 C370 1.208 . S
C370 O368 1.247 . S
C370 O369 1.208 . S
C371 O376 1.247 . S
C371 O377 1.208 . S
C372 O364 1.315 . S
C372 O367 1.279 . S
C373 O374 1.315 . S
C373 O375 1.279 . S
O374 Cd366 2.223 . S
O374 C373 1.315 . S
O375 Cd365 2.240 . S
O375 C373 1.279 . S
O376 Cd366 2.297 . S
O376 C371 1.247 . S
O377 Cd366 2.439 . S
O377 C371 1.208 . S
O378 Cd379 2.223 . S
O378 C386 1.315 . S
Cd379 O378 2.223 . S
Cd379 O382 2.297 . S
Cd379 O383 2.439 . S
Cd379 O389 2.240 . S
Cd380 O381 2.240 . S
Cd380 O388 2.223 . S
Cd380 O390 2.297 . S
Cd380 O391 2.439 . S
O381 Cd380 2.240 . S
O381 C386 1.279 . S
O382 Cd379 2.297 . S
O382 C384 1.247 . S
O383 Cd379 2.439 . S
O383 C384 1.208 . S
C384 O382 1.247 . S
C384 O383 1.208 . S
C385 O390 1.247 . S
C385 O391 1.208 . S
C386 O378 1.315 . S
C386 O381 1.279 . S
C387 O388 1.315 . S
C387 O389 1.279 . S
O388 Cd380 2.223 . S
O388 C387 1.315 . S
O389 Cd379 2.240 . S
O389 C387 1.279 . S
O390 Cd380 2.297 . S
O390 C385 1.247 . S
O391 Cd380 2.439 . S
O391 C385 1.208 . S
O392 Cd393 2.223 . S
O392 C400 1.315 . S
Cd393 O392 2.223 . S
Cd393 O396 2.297 . S
Cd393 O397 2.439 . S
Cd393 O403 2.240 . S
Cd394 O395 2.240 . S
Cd394 O402 2.223 . S
Cd394 O404 2.297 . S
Cd394 O405 2.439 . S
O395 Cd394 2.240 . S
O395 C400 1.279 . S
O396 Cd393 2.297 . S
O396 C398 1.247 . S
O397 Cd393 2.439 . S
O397 C398 1.208 . S
C398 O396 1.247 . S
C398 O397 1.208 . S
C399 O404 1.247 . S
C399 O405 1.208 . S
C400 O392 1.315 . S
C400 O395 1.279 . S
C401 O402 1.315 . S
C401 O403 1.279 . S
O402 Cd394 2.223 . S
O402 C401 1.315 . S
O403 Cd393 2.240 . S
O403 C401 1.279 . S
O404 Cd394 2.297 . S
O404 C399 1.247 . S
O405 Cd394 2.439 . S
O405 C399 1.208 . S
O406 Cd407 2.223 . S
O406 C414 1.315 . S
Cd407 O406 2.223 . S
Cd407 O410 2.297 . S
Cd407 O411 2.439 . S
Cd407 O417 2.240 . S
Cd408 O409 2.240 . S
Cd408 O416 2.223 . S
Cd408 O418 2.297 . S
Cd408 O419 2.439 . S
O409 Cd408 2.240 . S
O409 C414 1.279 . S
O410 Cd407 2.297 . S
O410 C412 1.247 . S
O411 Cd407 2.439 . S
O411 C412 1.208 . S
C412 O410 1.247 . S
C412 O411 1.208 . S
C413 O418 1.247 . S
C413 O419 1.208 . S
C414 O406 1.315 . S
C414 O409 1.279 . S
C415 O416 1.315 . S
C415 O417 1.279 . S
O416 Cd408 2.223 . S
O416 C415 1.315 . S
O417 Cd407 2.240 . S
O417 C415 1.279 . S
O418 Cd408 2.297 . S
O418 C413 1.247 . S
O419 Cd408 2.439 . S
O419 C413 1.208 . S
O420 Cd421 2.223 . S
O420 C428 1.315 . S
Cd421 O420 2.223 . S
Cd421 O424 2.297 . S
Cd421 O425 2.439 . S
Cd421 O431 2.240 . S
Cd422 O423 2.240 . S
Cd422 O430 2.223 . S
Cd422 O432 2.297 . S
Cd422 O433 2.439 . S
O423 Cd422 2.240 . S
O423 C428 1.279 . S
O424 Cd421 2.297 . S
O424 C426 1.247 . S
O425 Cd421 2.439 . S
O425 C426 1.208 . S
C426 O424 1.247 . S
C426 O425 1.208 . S
C427 O432 1.247 . S
C427 O433 1.208 . S
C428 O420 1.315 . S
C428 O423 1.279 . S
C429 O430 1.315 . S
C429 O431 1.279 . S
O430 Cd422 2.223 . S
O430 C429 1.315 . S
O431 Cd421 2.240 . S
O431 C429 1.279 . S
O432 Cd422 2.297 . S
O432 C427 1.247 . S
O433 Cd422 2.439 . S
O433 C427 1.208 . S
O434 Cd435 2.223 . S
O434 C442 1.315 . S
Cd435 O434 2.223 . S
Cd435 O438 2.297 . S
Cd435 O439 2.439 . S
Cd435 O445 2.240 . S
Cd436 O437 2.240 . S
Cd436 O444 2.223 . S
Cd436 O446 2.297 . S
Cd436 O447 2.439 . S
O437 Cd436 2.240 . S
O437 C442 1.279 . S
O438 Cd435 2.297 . S
O438 C440 1.247 . S
O439 Cd435 2.439 . S
O439 C440 1.208 . S
C440 O438 1.247 . S
C440 O439 1.208 . S
C441 O446 1.247 . S
C441 O447 1.208 . S
C442 O434 1.315 . S
C442 O437 1.279 . S
C443 O444 1.315 . S
C443 O445 1.279 . S
O444 Cd436 2.223 . S
O444 C443 1.315 . S
O445 Cd435 2.240 . S
O445 C443 1.279 . S
O446 Cd436 2.297 . S
O446 C441 1.247 . S
O447 Cd436 2.439 . S
O447 C441 1.208 . S
O448 Cd449 2.223 . S
O448 C456 1.315 . S
Cd449 O448 2.223 . S
Cd449 O452 2.297 . S
Cd449 O453 2.439 . S
Cd449 O459 2.240 . S
Cd450 O451 2.240 . S
Cd450 O458 2.223 . S
Cd450 O460 2.297 . S
Cd450 O461 2.439 . S
O451 Cd450 2.240 . S
O451 C456 1.279 . S
O452 Cd449 2.297 . S
O452 C454 1.247 . S
O453 Cd449 2.439 . S
O453 C454 1.208 . S
C454 O452 1.247 . S
C454 O453 1.208 . S
C455 O460 1.247 . S
C455 O461 1.208 . S
C456 O448 1.315 . S
C456 O451 1.279 . S
C457 O458 1.315 . S
C457 O459 1.279 . S
O458 Cd450 2.223 . S
O458 C457 1.315 . S
O459 Cd449 2.240 . S
O459 C457 1.279 . S
O460 Cd450 2.297 . S
O460 C455 1.247 . S
O461 Cd450 2.439 . S
O461 C455 1.208 . S
O462 Cd463 2.223 . S
O462 C470 1.315 . S
Cd463 O462 2.223 . S
Cd463 O466 2.297 . S
Cd463 O467 2.439 . S
Cd463 O473 2.240 . S
Cd464 O465 2.240 . S
Cd464 O472 2.223 . S
Cd464 O474 2.297 . S
Cd464 O475 2.439 . S
O465 Cd464 2.240 . S
O465 C470 1.279 . S
O466 Cd463 2.297 . S
O466 C468 1.247 . S
O467 Cd463 2.439 . S
O467 C468 1.208 . S
C468 O466 1.247 . S
C468 O467 1.208 . S
C469 O474 1.247 . S
C469 O475 1.208 . S
C470 O462 1.315 . S
C470 O465 1.279 . S
C471 O472 1.315 . S
C471 O473 1.279 . S
O472 Cd464 2.223 . S
O472 C471 1.315 . S
O473 Cd463 2.240 . S
O473 C471 1.279 . S
O474 Cd464 2.297 . S
O474 C469 1.247 . S
O475 Cd464 2.439 . S
O475 C469 1.208 . S
O476 Cd477 2.223 . S
O476 C484 1.315 . S
Cd477 O476 2.223 . S
Cd477 O480 2.297 . S
Cd477 O481 2.439 . S
Cd477 O487 2.240 . S
Cd478 O479 2.240 . S
Cd478 O486 2.223 . S
Cd478 O488 2.297 . S
Cd478 O489 2.439 . S
O479 Cd478 2.240 . S
O479 C484 1.279 . S
O480 Cd477 2.297 . S
O480 C482 1.247 . S
O481 Cd477 2.439 . S
O481 C482 1.208 . S
C482 O480 1.247 . S
C482 O481 1.208 . S
C483 O488 1.247 . S
C483 O489 1.208 . S
C484 O476 1.315 . S
C484 O479 1.279 . S
C485 O486 1.315 . S
C485 O487 1.279 . S
O486 Cd478 2.223 . S
O486 C485 1.315 . S
O487 Cd477 2.240 . S
O487 C485 1.279 . S
O488 Cd478 2.297 . S
O488 C483 1.247 . S
O489 Cd478 2.439 . S
O489 C483 1.208 . S
O490 Cd491 2.223 . S
O490 C498 1.315 . S
Cd491 O490 2.223 . S
Cd491 O494 2.297 . S
Cd491 O495 2.439 . S
Cd491 O501 2.240 . S
Cd492 O493 2.240 . S
Cd492 O500 2.223 . S
Cd492 O502 2.297 . S
Cd492 O503 2.439 . S
O493 Cd492 2.240 . S
O493 C498 1.279 . S
O494 Cd491 2.297 . S
O494 C496 1.247 . S
O495 Cd491 2.439 . S
O495 C496 1.208 . S
C496 O494 1.247 . S
C496 O495 1.208 . S
C497 O502 1.247 . S
C497 O503 1.208 . S
C498 O490 1.315 . S
C498 O493 1.279 . S
C499 O500 1.315 . S
C499 O501 1.279 . S
O500 Cd492 2.223 . S
O500 C499 1.315 . S
O501 Cd491 2.240 . S
O501 C499 1.279 . S
O502 Cd492 2.297 . S
O502 C497 1.247 . S
O503 Cd492 2.439 . S
O503 C497 1.208 . S
O504 Cd505 2.223 . S
O504 C512 1.315 . S
Cd505 O504 2.223 . S
Cd505 O508 2.297 . S
Cd505 O509 2.439 . S
Cd505 O515 2.240 . S
Cd506 O507 2.240 . S
Cd506 O514 2.223 . S
Cd506 O516 2.297 . S
Cd506 O517 2.439 . S
O507 Cd506 2.240 . S
O507 C512 1.279 . S
O508 Cd505 2.297 . S
O508 C510 1.247 . S
O509 Cd505 2.439 . S
O509 C510 1.208 . S
C510 O508 1.247 . S
C510 O509 1.208 . S
C511 O516 1.247 . S
C511 O517 1.208 . S
C512 O504 1.315 . S
C512 O507 1.279 . S
C513 O514 1.315 . S
C513 O515 1.279 . S
O514 Cd506 2.223 . S
O514 C513 1.315 . S
O515 Cd505 2.240 . S
O515 C513 1.279 . S
O516 Cd506 2.297 . S
O516 C511 1.247 . S
O517 Cd506 2.439 . S
O517 C511 1.208 . S
O518 Cd519 2.223 . S
O518 C526 1.315 . S
Cd519 O518 2.223 . S
Cd519 O522 2.297 . S
Cd519 O523 2.439 . S
Cd519 O529 2.240 . S
Cd520 O521 2.240 . S
Cd520 O528 2.223 . S
Cd520 O530 2.297 . S
Cd520 O531 2.439 . S
O521 Cd520 2.240 . S
O521 C526 1.279 . S
O522 Cd519 2.297 . S
O522 C524 1.247 . S
O523 Cd519 2.439 . S
O523 C524 1.208 . S
C524 O522 1.247 . S
C524 O523 1.208 . S
C525 O530 1.247 . S
C525 O531 1.208 . S
C526 O518 1.315 . S
C526 O521 1.279 . S
C527 O528 1.315 . S
C527 O529 1.279 . S
O528 Cd520 2.223 . S
O528 C527 1.315 . S
O529 Cd519 2.240 . S
O529 C527 1.279 . S
O530 Cd520 2.297 . S
O530 C525 1.247 . S
O531 Cd520 2.439 . S
O531 C525 1.208 . S
O532 Cd533 2.223 . S
O532 C540 1.315 . S
Cd533 O532 2.223 . S
Cd533 O536 2.297 . S
Cd533 O537 2.439 . S
Cd533 O543 2.240 . S
Cd534 O535 2.240 . S
Cd534 O542 2.223 . S
Cd534 O544 2.297 . S
Cd534 O545 2.439 . S
O535 Cd534 2.240 . S
O535 C540 1.279 . S
O536 Cd533 2.297 . S
O536 C538 1.247 . S
O537 Cd533 2.439 . S
O537 C538 1.208 . S
C538 O536 1.247 . S
C538 O537 1.208 . S
C539 O544 1.247 . S
C539 O545 1.208 . S
C540 O532 1.315 . S
C540 O535 1.279 . S
C541 O542 1.315 . S
C541 O543 1.279 . S
O542 Cd534 2.223 . S
O542 C541 1.315 . S
O543 Cd533 2.240 . S
O543 C541 1.279 . S
O544 Cd534 2.297 . S
O544 C539 1.247 . S
O545 Cd534 2.439 . S
O545 C539 1.208 . S
O546 Cd547 2.223 . S
O546 C554 1.315 . S
Cd547 O546 2.223 . S
Cd547 O550 2.297 . S
Cd547 O551 2.439 . S
Cd547 O557 2.240 . S
Cd548 O549 2.240 . S
Cd548 O556 2.223 . S
Cd548 O558 2.297 . S
Cd548 O559 2.439 . S
O549 Cd548 2.240 . S
O549 C554 1.279 . S
O550 Cd547 2.297 . S
O550 C552 1.247 . S
O551 Cd547 2.439 . S
O551 C552 1.208 . S
C552 O550 1.247 . S
C552 O551 1.208 . S
C553 O558 1.247 . S
C553 O559 1.208 . S
C554 O546 1.315 . S
C554 O549 1.279 . S
C555 O556 1.315 . S
C555 O557 1.279 . S
O556 Cd548 2.223 . S
O556 C555 1.315 . S
O557 Cd547 2.240 . S
O557 C555 1.279 . S
O558 Cd548 2.297 . S
O558 C553 1.247 . S
O559 Cd548 2.439 . S
O559 C553 1.208 . S
O560 Cd561 2.223 . S
O560 C568 1.315 . S
Cd561 O560 2.223 . S
Cd561 O564 2.297 . S
Cd561 O565 2.439 . S
Cd561 O571 2.240 . S
Cd562 O563 2.240 . S
Cd562 O570 2.223 . S
Cd562 O572 2.297 . S
Cd562 O573 2.439 . S
O563 Cd562 2.240 . S
O563 C568 1.279 . S
O564 Cd561 2.297 . S
O564 C566 1.247 . S
O565 Cd561 2.439 . S
O565 C566 1.208 . S
C566 O564 1.247 . S
C566 O565 1.208 . S
C567 O572 1.247 . S
C567 O573 1.208 . S
C568 O560 1.315 . S
C568 O563 1.279 . S
C569 O570 1.315 . S
C569 O571 1.279 . S
O570 Cd562 2.223 . S
O570 C569 1.315 . S
O571 Cd561 2.240 . S
O571 C569 1.279 . S
O572 Cd562 2.297 . S
O572 C567 1.247 . S
O573 Cd562 2.439 . S
O573 C567 1.208 . S
O574 Cd575 2.223 . S
O574 C582 1.315 . S
Cd575 O574 2.223 . S
Cd575 O578 2.297 . S
Cd575 O579 2.439 . S
Cd575 O585 2.240 . S
Cd576 O577 2.240 . S
Cd576 O584 2.223 . S
Cd576 O586 2.297 . S
Cd576 O587 2.439 . S
O577 Cd576 2.240 . S
O577 C582 1.279 . S
O578 Cd575 2.297 . S
O578 C580 1.247 . S
O579 Cd575 2.439 . S
O579 C580 1.208 . S
C580 O578 1.247 . S
C580 O579 1.208 . S
C581 O586 1.247 . S
C581 O587 1.208 . S
C582 O574 1.315 . S
C582 O577 1.279 . S
C583 O584 1.315 . S
C583 O585 1.279 . S
O584 Cd576 2.223 . S
O584 C583 1.315 . S
O585 Cd575 2.240 . S
O585 C583 1.279 . S
O586 Cd576 2.297 . S
O586 C581 1.247 . S
O587 Cd576 2.439 . S
O587 C581 1.208 . S
O588 Cd589 2.223 . S
O588 C596 1.315 . S
Cd589 O588 2.223 . S
Cd589 O592 2.297 . S
Cd589 O593 2.439 . S
Cd589 O599 2.240 . S
Cd590 O591 2.240 . S
Cd590 O598 2.223 . S
Cd590 O600 2.297 . S
Cd590 O601 2.439 . S
O591 Cd590 2.240 . S
O591 C596 1.279 . S
O592 Cd589 2.297 . S
O592 C594 1.247 . S
O593 Cd589 2.439 . S
O593 C594 1.208 . S
C594 O592 1.247 . S
C594 O593 1.208 . S
C595 O600 1.247 . S
C595 O601 1.208 . S
C596 O588 1.315 . S
C596 O591 1.279 . S
C597 O598 1.315 . S
C597 O599 1.279 . S
O598 Cd590 2.223 . S
O598 C597 1.315 . S
O599 Cd589 2.240 . S
O599 C597 1.279 . S
O600 Cd590 2.297 . S
O600 C595 1.247 . S
O601 Cd590 2.439 . S
O601 C595 1.208 . S
O602 Cd603 2.223 . S
O602 C610 1.315 . S
Cd603 O602 2.223 . S
Cd603 O606 2.297 . S
Cd603 O607 2.439 . S
Cd603 O613 2.240 . S
Cd604 O605 2.240 . S
Cd604 O612 2.223 . S
Cd604 O614 2.297 . S
Cd604 O615 2.439 . S
O605 Cd604 2.240 . S
O605 C610 1.279 . S
O606 Cd603 2.297 . S
O606 C608 1.247 . S
O607 Cd603 2.439 . S
O607 C608 1.208 . S
C608 O606 1.247 . S
C608 O607 1.208 . S
C609 O614 1.247 . S
C609 O615 1.208 . S
C610 O602 1.315 . S
C610 O605 1.279 . S
C611 O612 1.315 . S
C611 O613 1.279 . S
O612 Cd604 2.223 . S
O612 C611 1.315 . S
O613 Cd603 2.240 . S
O613 C611 1.279 . S
O614 Cd604 2.297 . S
O614 C609 1.247 . S
O615 Cd604 2.439 . S
O615 C609 1.208 . S
O616 Cd617 2.223 . S
O616 C624 1.315 . S
Cd617 O616 2.223 . S
Cd617 O620 2.297 . S
Cd617 O621 2.439 . S
Cd617 O627 2.240 . S
Cd618 O619 2.240 . S
Cd618 O626 2.223 . S
Cd618 O628 2.297 . S
Cd618 O629 2.439 . S
O619 Cd618 2.240 . S
O619 C624 1.279 . S
O620 Cd617 2.297 . S
O620 C622 1.247 . S
O621 Cd617 2.439 . S
O621 C622 1.208 . S
C622 O620 1.247 . S
C622 O621 1.208 . S
C623 O628 1.247 . S
C623 O629 1.208 . S
C624 O616 1.315 . S
C624 O619 1.279 . S
C625 O626 1.315 . S
C625 O627 1.279 . S
O626 Cd618 2.223 . S
O626 C625 1.315 . S
O627 Cd617 2.240 . S
O627 C625 1.279 . S
O628 Cd618 2.297 . S
O628 C623 1.247 . S
O629 Cd618 2.439 . S
O629 C623 1.208 . S
O630 Cd631 2.223 . S
O630 C638 1.315 . S
Cd631 O630 2.223 . S
Cd631 O634 2.297 . S
Cd631 O635 2.439 . S
Cd631 O641 2.240 . S
Cd632 O633 2.240 . S
Cd632 O640 2.223 . S
Cd632 O642 2.297 . S
Cd632 O643 2.439 . S
O633 Cd632 2.240 . S
O633 C638 1.279 . S
O634 Cd631 2.297 . S
O634 C636 1.247 . S
O635 Cd631 2.439 . S
O635 C636 1.208 . S
C636 O634 1.247 . S
C636 O635 1.208 . S
C637 O642 1.247 . S
C637 O643 1.208 . S
C638 O630 1.315 . S
C638 O633 1.279 . S
C639 O640 1.315 . S
C639 O641 1.279 . S
O640 Cd632 2.223 . S
O640 C639 1.315 . S
O641 Cd631 2.240 . S
O641 C639 1.279 . S
O642 Cd632 2.297 . S
O642 C637 1.247 . S
O643 Cd632 2.439 . S
O643 C637 1.208 . S
O644 Cd645 2.223 . S
O644 C652 1.315 . S
Cd645 O644 2.223 . S
Cd645 O648 2.297 . S
Cd645 O649 2.439 . S
Cd645 O655 2.240 . S
Cd646 O647 2.240 . S
Cd646 O654 2.223 . S
Cd646 O656 2.297 . S
Cd646 O657 2.439 . S
O647 Cd646 2.240 . S
O647 C652 1.279 . S
O648 Cd645 2.297 . S
O648 C650 1.247 . S
O649 Cd645 2.439 . S
O649 C650 1.208 . S
C650 O648 1.247 . S
C650 O649 1.208 . S
C651 O656 1.247 . S
C651 O657 1.208 . S
C652 O644 1.315 . S
C652 O647 1.279 . S
C653 O654 1.315 . S
C653 O655 1.279 . S
O654 Cd646 2.223 . S
O654 C653 1.315 . S
O655 Cd645 2.240 . S
O655 C653 1.279 . S
O656 Cd646 2.297 . S
O656 C651 1.247 . S
O657 Cd646 2.439 . S
O657 C651 1.208 . S
O658 Cd659 2.223 . S
O658 C666 1.315 . S
Cd659 O658 2.223 . S
Cd659 O662 2.297 . S
Cd659 O663 2.439 . S
Cd659 O669 2.240 . S
Cd660 O661 2.240 . S
Cd660 O668 2.223 . S
Cd660 O670 2.297 . S
Cd660 O671 2.439 . S
O661 Cd660 2.240 . S
O661 C666 1.279 . S
O662 Cd659 2.297 . S
O662 C664 1.247 . S
O663 Cd659 2.439 . S
O663 C664 1.208 . S
C664 O662 1.247 . S
C664 O663 1.208 . S
C665 O670 1.247 . S
C665 O671 1.208 . S
C666 O658 1.315 . S
C666 O661 1.279 . S
C667 O668 1.315 . S
C667 O669 1.279 . S
O668 Cd660 2.223 . S
O668 C667 1.315 . S
O669 Cd659 2.240 . S
O669 C667 1.279 . S
O670 Cd660 2.297 . S
O670 C665 1.247 . S
O671 Cd660 2.439 . S
O671 C665 1.208 . S
C132 C6 2.403 1_655 S
C146 C20 2.403 1_565 S
C160 C34 2.403 1_455 S
C48 C118 2.403 1_565 S
C216 C62 2.403 1_655 S
C76 C174 2.403 1_545 S
C188 C90 2.403 1_455 S
C202 C104 2.403 1_545 S
C230 C258 2.403 1_554 S
C244 C314 2.403 1_556 S
C272 C328 2.403 1_556 S
C286 C300 2.403 1_556 S
C342 C468 2.403 . S
C482 C356 2.403 . S
C370 C496 2.403 . S
C384 C454 2.403 . S
C552 C398 2.403 . S
C510 C412 2.403 . S
C524 C426 2.403 . S
C538 C440 2.403 . S
C566 C594 2.403 . S
C580 C650 2.403 . S
C608 C664 2.403 . S
C636 C622 2.403 . S
C121 C8 2.132 . S
C135 C22 2.132 . S
C36 C149 2.132 . S
C50 C163 2.132 . S
C64 C177 2.132 . S
C78 C191 2.132 . S
C92 C205 2.132 . S
C219 C106 2.132 . S
C120 C233 2.132 . S
C331 C134 2.132 . S
C148 C303 2.132 . S
C162 C317 2.132 . S
C176 C247 2.132 . S
C190 C261 2.132 . S
C204 C275 2.132 . S
C289 C218 2.132 . S
C9 C232 2.132 . S
C246 C65 2.132 . S
C260 C79 2.132 . S
C274 C93 2.132 . S
C107 C288 2.132 . S
C302 C37 2.132 . S
C316 C51 2.132 . S
C23 C330 2.132 . S
C457 C344 2.132 . S
C358 C471 2.132 . S
C372 C485 2.132 . S
C499 C386 2.132 . S
C513 C400 2.132 . S
C414 C527 2.132 . S
C541 C428 2.132 . S
C555 C442 2.132 . S
C456 C569 2.132 . S
C470 C667 2.132 . S
C484 C639 2.132 . S
C653 C498 2.132 . S
C512 C583 2.132 . S
C526 C597 2.132 . S
C611 C540 2.132 . S
C625 C554 2.132 . S
C568 C345 2.132 . S
C582 C401 2.132 . S
C415 C596 2.132 . S
C610 C429 2.132 . S
C624 C443 2.132 . S
C373 C638 2.132 . S
C652 C387 2.132 . S
C359 C666 2.132 . S
C441 C7 2.126 . S
C21 C399 2.126 . S
C413 C35 2.126 . S
C427 C49 2.126 . S
C63 C357 2.126 . S
C371 C77 2.126 . S
C385 C91 2.126 . S
C105 C343 2.126 . S
C623 C119 2.126 . S
C133 C581 2.126 . S
C147 C595 2.126 . S
C609 C161 2.126 . S
C665 C175 2.126 . S
C637 C189 2.126 . S
C203 C651 2.126 . S
C567 C217 2.126 . S
C231 C553 2.126 . S
C469 C245 2.126 . S
C259 C483 2.126 . S
C497 C273 2.126 . S
C455 C287 2.126 . S
C301 C525 2.126 . S
C539 C315 2.126 . S
C511 C329 2.126 . S
