# Generated by pormake.
# Topology uku, (4)-cn, num edge types: 1
# Building blocks:
#     Node 0, Type 0, BuildingBlock: QUQFOY_clean_sbu_1, # of connection points: 4
#     Node 1, Type 0, BuildingBlock: QUQFOY_clean_sbu_1, # of connection points: 4
#     Node 2, Type 0, BuildingBlock: QUQFOY_clean_sbu_1, # of connection points: 4
#     Node 3, Type 0, BuildingBlock: QUQFOY_clean_sbu_1, # of connection points: 4
#     Node 4, Type 0, BuildingBlock: QUQFOY_clean_sbu_1, # of connection points: 4
#     Node 5, Type 0, BuildingBlock: QUQFOY_clean_sbu_1, # of connection points: 4
#     Node 6, Type 0, BuildingBlock: QUQFOY_clean_sbu_1, # of connection points: 4
#     Node 7, Type 0, BuildingBlock: QUQFOY_clean_sbu_1, # of connection points: 4
#     Node 8, Type 0, BuildingBlock: QUQFOY_clean_sbu_1, # of connection points: 4
#     Node 9, Type 0, BuildingBlock: QUQFOY_clean_sbu_1, # of connection points: 4
#     Node 10, Type 0, BuildingBlock: QUQFOY_clean_sbu_1, # of connection points: 4
#     Node 11, Type 0, BuildingBlock: QUQFOY_clean_sbu_1, # of connection points: 4
#     Edge 12, Type (0, 0), BuildingBlock: UVAHIK_clean_linker_0, # of connection points: 2
#     Edge 13, Type (0, 0), BuildingBlock: UVAHIK_clean_linker_0, # of connection points: 2
#     Edge 14, Type (0, 0), BuildingBlock: UVAHIK_clean_linker_0, # of connection points: 2
#     Edge 15, Type (0, 0), BuildingBlock: UVAHIK_clean_linker_0, # of connection points: 2
#     Edge 16, Type (0, 0), BuildingBlock: UVAHIK_clean_linker_0, # of connection points: 2
#     Edge 17, Type (0, 0), BuildingBlock: UVAHIK_clean_linker_0, # of connection points: 2
#     Edge 18, Type (0, 0), BuildingBlock: UVAHIK_clean_linker_0, # of connection points: 2
#     Edge 19, Type (0, 0), BuildingBlock: UVAHIK_clean_linker_0, # of connection points: 2
#     Edge 20, Type (0, 0), BuildingBlock: UVAHIK_clean_linker_0, # of connection points: 2
#     Edge 21, Type (0, 0), BuildingBlock: UVAHIK_clean_linker_0, # of connection points: 2
#     Edge 22, Type (0, 0), BuildingBlock: UVAHIK_clean_linker_0, # of connection points: 2
#     Edge 23, Type (0, 0), BuildingBlock: UVAHIK_clean_linker_0, # of connection points: 2
#     Edge 24, Type (0, 0), BuildingBlock: UVAHIK_clean_linker_0, # of connection points: 2
#     Edge 25, Type (0, 0), BuildingBlock: UVAHIK_clean_linker_0, # of connection points: 2
#     Edge 26, Type (0, 0), BuildingBlock: UVAHIK_clean_linker_0, # of connection points: 2
#     Edge 27, Type (0, 0), BuildingBlock: UVAHIK_clean_linker_0, # of connection points: 2
#     Edge 28, Type (0, 0), BuildingBlock: UVAHIK_clean_linker_0, # of connection points: 2
#     Edge 29, Type (0, 0), BuildingBlock: UVAHIK_clean_linker_0, # of connection points: 2
#     Edge 30, Type (0, 0), BuildingBlock: UVAHIK_clean_linker_0, # of connection points: 2
#     Edge 31, Type (0, 0), BuildingBlock: UVAHIK_clean_linker_0, # of connection points: 2
#     Edge 32, Type (0, 0), BuildingBlock: UVAHIK_clean_linker_0, # of connection points: 2
#     Edge 33, Type (0, 0), BuildingBlock: UVAHIK_clean_linker_0, # of connection points: 2
#     Edge 34, Type (0, 0), BuildingBlock: UVAHIK_clean_linker_0, # of connection points: 2
#     Edge 35, Type (0, 0), BuildingBlock: UVAHIK_clean_linker_0, # of connection points: 2
# Relax obj value: 0.261
# Max RMSD: 0.219
# Mean RMSD: 0.219
data_MOF--net-uku--node1-QUQFOY_clean_sbu_1--edge1-UVAHIK_clean_linker_0
_symmetry_space_group_name_H-M    P1
_symmetry_Int_Tables_number       1
_symmetry_cell_setting            triclinic
loop_
_symmetry_equiv_pos_as_xyz
'x, y, z'
_cell_length_a     55.430323
_cell_length_b     55.427772
_cell_length_c     55.409378
_cell_angle_alpha  90.004447
_cell_angle_beta   90.017957
_cell_angle_gamma 90.014188
loop_
_atom_site_label
_atom_site_type_symbol
_atom_site_fract_x
_atom_site_fract_y
_atom_site_fract_z
_atom_type_partial_charge
O0 O 0.0837 0.11442 0.60871 0.0
Cd1 Cd 0.10404 0.1455 0.60784 0.0
Cd2 Cd 0.08527 0.15155 0.65035 0.0
O3 O 0.05976 0.12759 0.6376 0.0
O4 O 0.10394 0.15879 0.57431 0.0
O5 O 0.08366 0.17484 0.60488 0.0
C6 C 0.08837 0.17437 0.58206 0.0
C7 C 0.07632 0.18548 0.67378 0.0
C8 C 0.06472 0.11209 0.62139 0.0
C9 C 0.13757 0.13717 0.64709 0.0
O10 O 0.11811 0.13682 0.65919 0.0
O11 O 0.13725 0.14399 0.62516 0.0
O12 O 0.07331 0.16392 0.68197 0.0
O13 O 0.08279 0.18784 0.65155 0.0
O14 O 0.91613 0.88523 0.61297 0.0
Cd15 Cd 0.89613 0.85394 0.61303 0.0
Cd16 Cd 0.91792 0.84742 0.65442 0.0
O17 O 0.94201 0.87202 0.64016 0.0
O18 O 0.89502 0.84006 0.5797 0.0
O19 O 0.91686 0.82497 0.60968 0.0
C20 C 0.9112 0.82491 0.58708 0.0
C21 C 0.92911 0.8136 0.67711 0.0
C22 C 0.93585 0.88763 0.62447 0.0
C23 C 0.86518 0.86096 0.65463 0.0
O24 O 0.88539 0.86124 0.66546 0.0
O25 O 0.86414 0.8548 0.63252 0.0
O26 O 0.93233 0.8352 0.68512 0.0
O27 O 0.9211 0.81117 0.6554 0.0
O28 O 0.07892 0.88194 0.3815 0.0
Cd29 Cd 0.09919 0.85099 0.38384 0.0
Cd30 Cd 0.07776 0.84203 0.34205 0.0
O31 O 0.05364 0.86786 0.35413 0.0
O32 O 0.09964 0.83937 0.41815 0.0
O33 O 0.07909 0.82184 0.38868 0.0
C34 C 0.08411 0.8233 0.41137 0.0
C35 C 0.06747 0.8059 0.32272 0.0
C36 C 0.05961 0.8841 0.36927 0.0
C37 C 0.13068 0.85538 0.34209 0.0
O38 O 0.11068 0.85478 0.33088 0.0
O39 O 0.13136 0.85095 0.36463 0.0
O40 O 0.06396 0.82648 0.31243 0.0
O41 O 0.07508 0.80593 0.3447 0.0
O42 O 0.91545 0.11359 0.38264 0.0
Cd43 Cd 0.89512 0.14453 0.3847 0.0
Cd44 Cd 0.91302 0.15125 0.34127 0.0
O45 O 0.93832 0.12628 0.35267 0.0
O46 O 0.89603 0.15676 0.41874 0.0
O47 O 0.91496 0.17416 0.38812 0.0
C48 C 0.91098 0.17296 0.41104 0.0
C49 C 0.92221 0.18678 0.32038 0.0
C50 C 0.93375 0.11086 0.36907 0.0
C51 C 0.8606 0.13714 0.34579 0.0
O52 O 0.87961 0.13742 0.33296 0.0
O53 O 0.86163 0.14306 0.36798 0.0
O54 O 0.92499 0.16591 0.31047 0.0
O55 O 0.91556 0.18743 0.34266 0.0
O56 O 0.6101 0.0855 0.11574 0.0
Cd57 Cd 0.60846 0.10556 0.14694 0.0
Cd58 Cd 0.65074 0.08541 0.15467 0.0
O59 O 0.63869 0.06115 0.12895 0.0
O60 O 0.57452 0.10601 0.15924 0.0
O61 O 0.60423 0.08512 0.17606 0.0
C62 C 0.58155 0.09031 0.17503 0.0
C63 C 0.67192 0.07477 0.18966 0.0
C64 C 0.62285 0.06659 0.1132 0.0
C65 C 0.64902 0.13837 0.14171 0.0
O66 O 0.66082 0.11872 0.14204 0.0
O67 O 0.62657 0.13833 0.14653 0.0
O68 O 0.68139 0.07234 0.16854 0.0
O69 O 0.64972 0.08161 0.19084 0.0
O70 O 0.38718 0.91561 0.11078 0.0
Cd71 Cd 0.38876 0.89531 0.14186 0.0
Cd72 Cd 0.34507 0.9118 0.14692 0.0
O73 O 0.35671 0.93799 0.12306 0.0
O74 O 0.42199 0.89761 0.15574 0.0
O75 O 0.38979 0.91523 0.17167 0.0
C76 C 0.4129 0.91219 0.17155 0.0
C77 C 0.32028 0.91933 0.18026 0.0
C78 C 0.37349 0.9338 0.10795 0.0
C79 C 0.35192 0.85966 0.13252 0.0
O80 O 0.33873 0.8784 0.13209 0.0
O81 O 0.37365 0.86114 0.13976 0.0
O82 O 0.31243 0.92168 0.15849 0.0
O83 O 0.34282 0.91436 0.18317 0.0
O84 O 0.60935 0.91887 0.88572 0.0
Cd85 Cd 0.6083 0.89809 0.85487 0.0
Cd86 Cd 0.65078 0.91761 0.84852 0.0
O87 O 0.63789 0.94315 0.87238 0.0
O88 O 0.57496 0.89887 0.84098 0.0
O89 O 0.60637 0.91784 0.82506 0.0
C90 C 0.58343 0.91383 0.82517 0.0
C91 C 0.67479 0.92623 0.81484 0.0
C92 C 0.62184 0.93799 0.88799 0.0
C93 C 0.64777 0.86525 0.86344 0.0
O94 O 0.65951 0.88493 0.86354 0.0
O95 O 0.62584 0.86502 0.85662 0.0
O96 O 0.68263 0.92947 0.83651 0.0
O97 O 0.65259 0.9198 0.81221 0.0
O98 O 0.38549 0.0857 0.88304 0.0
Cd99 Cd 0.38707 0.10604 0.85205 0.0
Cd100 Cd 0.34391 0.08829 0.84595 0.0
O101 O 0.35578 0.06253 0.87025 0.0
O102 O 0.421 0.10603 0.83974 0.0
O103 O 0.39088 0.08607 0.82252 0.0
C104 C 0.41367 0.09079 0.82365 0.0
C105 C 0.32254 0.07984 0.81052 0.0
C106 C 0.37221 0.06717 0.88565 0.0
C107 C 0.34859 0.14043 0.8606 0.0
O108 O 0.33583 0.12138 0.8606 0.0
O109 O 0.37052 0.13954 0.85387 0.0
O110 O 0.31284 0.0769 0.83148 0.0
O111 O 0.34489 0.08623 0.80971 0.0
O112 O 0.1176 0.6126 0.08625 0.0
Cd113 Cd 0.14796 0.60774 0.1068 0.0
Cd114 Cd 0.15825 0.65305 0.09258 0.0
O115 O 0.12906 0.64712 0.06989 0.0
O116 O 0.15927 0.57369 0.1033 0.0
O117 O 0.17795 0.6053 0.08737 0.0
C118 C 0.17603 0.58217 0.08942 0.0
C119 C 0.19292 0.67378 0.08019 0.0
C120 C 0.11405 0.6298 0.07151 0.0
C121 C 0.14699 0.64387 0.14557 0.0
O122 O 0.15053 0.65864 0.12839 0.0
O123 O 0.14661 0.62126 0.14163 0.0
O124 O 0.17245 0.68457 0.08229 0.0
O125 O 0.19349 0.6508 0.0837 0.0
O126 O 0.11401 0.38175 0.92058 0.0
Cd127 Cd 0.14398 0.38441 0.89877 0.0
Cd128 Cd 0.15396 0.34167 0.91798 0.0
O129 O 0.12775 0.35143 0.94253 0.0
O130 O 0.15525 0.41873 0.89781 0.0
O131 O 0.17404 0.38943 0.91754 0.0
C132 C 0.17212 0.41208 0.91252 0.0
C133 C 0.19014 0.32244 0.9282 0.0
C134 C 0.11195 0.36762 0.93856 0.0
C135 C 0.13936 0.34376 0.86541 0.0
O136 O 0.14149 0.33155 0.88469 0.0
O137 O 0.14254 0.36651 0.86581 0.0
O138 O 0.16966 0.31165 0.93043 0.0
O139 O 0.18999 0.34477 0.9217 0.0
O140 O 0.88719 0.61942 0.9265 0.0
Cd141 Cd 0.85867 0.61685 0.9027 0.0
Cd142 Cd 0.84892 0.65931 0.92024 0.0
O143 O 0.87239 0.64984 0.94743 0.0
O144 O 0.84939 0.58217 0.901 0.0
O145 O 0.82684 0.61041 0.91815 0.0
C146 C 0.83064 0.58785 0.91368 0.0
C147 C 0.81281 0.68007 0.92689 0.0
C148 C 0.88825 0.63352 0.94458 0.0
C149 C 0.86789 0.65612 0.86927 0.0
O150 O 0.86513 0.66863 0.88828 0.0
O151 O 0.86305 0.63368 0.86948 0.0
O152 O 0.83347 0.69 0.93076 0.0
O153 O 0.81253 0.65766 0.92063 0.0
O154 O 0.88408 0.38811 0.0827 0.0
Cd155 Cd 0.85432 0.39231 0.10432 0.0
Cd156 Cd 0.8432 0.34839 0.08835 0.0
O157 O 0.87145 0.35485 0.06478 0.0
O158 O 0.84474 0.42685 0.10317 0.0
O159 O 0.82348 0.39732 0.08646 0.0
C160 C 0.82685 0.42017 0.08975 0.0
C161 C 0.80899 0.32641 0.07703 0.0
C162 C 0.88683 0.37176 0.06687 0.0
C163 C 0.85594 0.35494 0.14147 0.0
O164 O 0.85205 0.34112 0.12361 0.0
O165 O 0.85641 0.3777 0.13865 0.0
O166 O 0.83007 0.31668 0.07787 0.0
O167 O 0.80748 0.34933 0.08081 0.0
C168 C 0.92264 0.18503 0.45313 0.0
C169 C 0.92613 0.18696 0.42807 0.0
C170 C 0.94025 0.19344 0.46919 0.0
C171 C 0.00451 0.19543 0.47147 0.0
H172 H 0.99717 0.22996 0.53181 0.0
C173 C 0.08061 0.19129 0.54084 0.0
C174 C 0.07334 0.18821 0.56489 0.0
C175 C 0.06418 0.19947 0.52347 0.0
C176 C 0.99955 0.22007 0.51514 0.0
H177 H 0.94989 0.20107 0.4003 0.0
H178 H 0.98073 0.2152 0.42834 0.0
H179 H 0.96375 0.22883 0.50303 0.0
H180 H 0.04366 0.19272 0.58995 0.0
H181 H 0.01485 0.20555 0.5598 0.0
H182 H 0.0392 0.18478 0.48389 0.0
C183 C 0.96438 0.20725 0.4355 0.0
C184 C 0.98042 0.21964 0.4986 0.0
C185 C 0.94665 0.1992 0.41948 0.0
C186 C 0.04987 0.19501 0.57155 0.0
C187 C 0.03327 0.20253 0.55412 0.0
C188 C 0.02336 0.19535 0.48815 0.0
C189 C 0.96175 0.20363 0.46043 0.0
C190 C 0.98264 0.207 0.47678 0.0
C191 C 0.0399 0.20398 0.52962 0.0
C192 C 0.02106 0.20725 0.51051 0.0
H193 H 0.90701 0.17575 0.46031 0.0
H194 H 0.93785 0.19035 0.48834 0.0
H195 H 0.00656 0.18524 0.4549 0.0
H196 H 0.09869 0.18643 0.53524 0.0
H197 H 0.07035 0.2012 0.50502 0.0
C198 C 0.04885 0.79714 0.42144 0.0
C199 C 0.0695 0.80973 0.42918 0.0
C200 C 0.03157 0.78945 0.43809 0.0
C201 C 0.01699 0.7784 0.50164 0.0
H202 H 0.95802 0.81333 0.4878 0.0
C203 C 0.94938 0.80411 0.5758 0.0
C204 C 0.92577 0.81095 0.56963 0.0
C205 C 0.96552 0.79636 0.55807 0.0
C206 C 0.97391 0.80274 0.49184 0.0
H207 H 0.08934 0.82196 0.46062 0.0
H208 H 0.05928 0.80797 0.48979 0.0
H209 H 0.98999 0.81236 0.4581 0.0
H210 H 0.89973 0.81254 0.54056 0.0
H211 H 0.92729 0.79736 0.50983 0.0
H212 H 0.00096 0.76853 0.5353 0.0
C213 C 0.05644 0.80433 0.47079 0.0
C214 C 0.99239 0.80238 0.47475 0.0
C215 C 0.07361 0.81238 0.45408 0.0
C216 C 0.91792 0.80766 0.54578 0.0
C217 C 0.9339 0.79925 0.52812 0.0
C218 C 0.99823 0.77824 0.51858 0.0
C219 C 0.0348 0.79378 0.46283 0.0
C220 C 0.01432 0.79079 0.47973 0.0
C221 C 0.9583 0.79468 0.53375 0.0
C222 C 0.97667 0.79109 0.51427 0.0
H223 H 0.04514 0.79468 0.40241 0.0
H224 H 0.01509 0.78122 0.43155 0.0
H225 H 0.03373 0.76921 0.5058 0.0
H226 H 0.95604 0.80653 0.59402 0.0
H227 H 0.98405 0.79331 0.56336 0.0
C228 C 0.45383 0.92481 0.18614 0.0
C229 C 0.42867 0.92796 0.18628 0.0
C230 C 0.46904 0.94291 0.19505 0.0
C231 C 0.47022 0.00723 0.19504 0.0
H232 H 0.52901 0.00156 0.23245 0.0
C233 C 0.53968 0.08323 0.19064 0.0
C234 C 0.56379 0.07578 0.18867 0.0
C235 C 0.52198 0.06718 0.19884 0.0
C236 C 0.51277 0.00348 0.22177 0.0
H237 H 0.39969 0.95168 0.19777 0.0
H238 H 0.42629 0.98338 0.21278 0.0
H239 H 0.50049 0.96794 0.23129 0.0
H240 H 0.58855 0.04622 0.19523 0.0
H241 H 0.55788 0.01803 0.20814 0.0
H242 H 0.48295 0.04159 0.18366 0.0
C243 C 0.43419 0.9669 0.20585 0.0
C244 C 0.49637 0.98424 0.22133 0.0
C245 C 0.41899 0.94868 0.19731 0.0
C246 C 0.57011 0.05256 0.19661 0.0
C247 C 0.55238 0.03634 0.20419 0.0
C248 C 0.4868 0.02619 0.195 0.0
C249 C 0.45933 0.96457 0.20395 0.0
C250 C 0.47516 0.98582 0.2076 0.0
C251 C 0.52789 0.04309 0.20455 0.0
C252 C 0.50864 0.02443 0.2079 0.0
H253 H 0.46184 0.90904 0.17783 0.0
H254 H 0.48838 0.94072 0.19328 0.0
H255 H 0.45415 0.00879 0.18401 0.0
H256 H 0.53432 0.10113 0.18491 0.0
H257 H 0.50351 0.07344 0.19967 0.0
C258 C 0.54195 0.92565 0.8114 0.0
C259 C 0.56707 0.92906 0.8105 0.0
C260 C 0.52632 0.94346 0.80266 0.0
C261 C 0.52464 0.00769 0.80206 0.0
H262 H 0.46503 0.00149 0.76606 0.0
C263 C 0.45523 0.08358 0.80736 0.0
C264 C 0.43115 0.07618 0.80978 0.0
C265 C 0.47275 0.06747 0.79894 0.0
C266 C 0.4815 0.00356 0.77636 0.0
H267 H 0.59546 0.95285 0.79772 0.0
H268 H 0.56814 0.98402 0.78299 0.0
H269 H 0.49367 0.96797 0.76686 0.0
H270 H 0.40623 0.04662 0.80384 0.0
H271 H 0.43663 0.0183 0.79059 0.0
H272 H 0.51209 0.04209 0.81346 0.0
C273 C 0.5606 0.96758 0.79042 0.0
C274 C 0.49796 0.98437 0.77659 0.0
C275 C 0.57621 0.94966 0.79881 0.0
C276 C 0.42465 0.05292 0.80209 0.0
C277 C 0.44222 0.03662 0.79432 0.0
C278 C 0.50801 0.02658 0.80233 0.0
C279 C 0.53556 0.96506 0.79314 0.0
C280 C 0.51949 0.98616 0.78978 0.0
C281 C 0.46672 0.04335 0.7935 0.0
C282 C 0.4859 0.02466 0.78993 0.0
H283 H 0.53434 0.90996 0.82023 0.0
H284 H 0.50706 0.94113 0.80505 0.0
H285 H 0.54097 0.0094 0.81269 0.0
H286 H 0.4607 0.10151 0.81291 0.0
H287 H 0.49121 0.07372 0.79773 0.0
C288 C 0.18737 0.45424 0.91867 0.0
C289 C 0.18616 0.43013 0.92627 0.0
C290 C 0.1962 0.47211 0.93421 0.0
C291 C 0.22229 0.4817 0.9967 0.0
H292 H 0.18407 0.54012 0.99302 0.0
C293 C 0.18879 0.54082 0.07627 0.0
C294 C 0.18986 0.56599 0.07331 0.0
C295 C 0.19693 0.52545 0.05796 0.0
C296 C 0.19521 0.52409 0.99408 0.0
H297 H 0.19466 0.40556 0.9555 0.0
H298 H 0.2086 0.43647 0.98289 0.0
H299 H 0.1823 0.51124 0.96031 0.0
H300 H 0.20206 0.59473 0.04965 0.0
H301 H 0.2156 0.56784 0.0175 0.0
H302 H 0.23329 0.49406 0.0318 0.0
C303 C 0.20361 0.44188 0.96481 0.0
C304 C 0.19437 0.50747 0.97518 0.0
C305 C 0.19542 0.424 0.94905 0.0
C306 C 0.20095 0.57543 0.05251 0.0
C307 C 0.20866 0.56008 0.03405 0.0
C308 C 0.22261 0.49811 0.01592 0.0
C309 C 0.20329 0.46636 0.95798 0.0
C310 C 0.20743 0.4857 0.97639 0.0
C311 C 0.20593 0.53501 0.03628 0.0
C312 C 0.20872 0.51922 0.01492 0.0
H313 H 0.1806 0.45945 0.90109 0.0
H314 H 0.19646 0.49056 0.92784 0.0
H315 H 0.23315 0.46555 0.99816 0.0
H316 H 0.18039 0.53301 0.09209 0.0
H317 H 0.19452 0.50617 0.06003 0.0
C318 C 0.82411 0.54484 0.92549 0.0
C319 C 0.81634 0.56895 0.92604 0.0
C320 C 0.81473 0.52799 0.94172 0.0
C321 C 0.78895 0.52765 0.00282 0.0
H322 H 0.79236 0.45854 0.99294 0.0
C323 C 0.79594 0.43075 0.0584 0.0
C324 C 0.81307 0.43818 0.07559 0.0
C325 C 0.78715 0.44703 0.04119 0.0
C326 C 0.79073 0.47775 0.9961 0.0
H327 H 0.79077 0.59368 0.94232 0.0
H328 H 0.77386 0.5641 0.97017 0.0
H329 H 0.79225 0.48536 0.95828 0.0
H330 H 0.8328 0.469 0.08946 0.0
H331 H 0.81799 0.49708 0.05944 0.0
H332 H 0.78754 0.52004 0.04064 0.0
C333 C 0.78779 0.55836 0.95773 0.0
C334 C 0.79103 0.49319 0.97614 0.0
C335 C 0.79734 0.57529 0.9416 0.0
C336 C 0.81967 0.46263 0.07645 0.0
C337 C 0.81101 0.47884 0.05921 0.0
C338 C 0.78838 0.5122 0.02276 0.0
C339 C 0.79716 0.53479 0.95876 0.0
C340 C 0.79126 0.51837 0.97928 0.0
C341 C 0.79538 0.47105 0.04075 0.0
C342 C 0.79038 0.48709 0.01972 0.0
H343 H 0.8387 0.53931 0.91371 0.0
H344 H 0.8226 0.51012 0.94198 0.0
H345 H 0.78916 0.5469 0.00609 0.0
H346 H 0.79033 0.41206 0.05736 0.0
H347 H 0.77472 0.44051 0.02759 0.0
C348 C 0.15835 0.11621 0.68097 0.0
C349 C 0.15998 0.12836 0.65874 0.0
C350 C 0.17891 0.10737 0.69234 0.0
C351 C 0.24321 0.11704 0.69906 0.0
H352 H 0.24017 0.05482 0.73102 0.0
C353 C 0.31699 0.08656 0.7661 0.0
C354 C 0.30777 0.07842 0.7883 0.0
C355 C 0.30187 0.08884 0.74598 0.0
C356 C 0.24134 0.07221 0.72219 0.0
H357 H 0.18467 0.14078 0.63106 0.0
H358 H 0.22106 0.12557 0.65144 0.0
H359 H 0.2082 0.06662 0.70317 0.0
H360 H 0.27581 0.06499 0.80642 0.0
H361 H 0.24953 0.06895 0.77151 0.0
H362 H 0.27578 0.1231 0.71894 0.0
C363 C 0.20361 0.12284 0.65981 0.0
C364 C 0.22307 0.07895 0.70621 0.0
C365 C 0.18283 0.1315 0.64817 0.0
C366 C 0.28348 0.07133 0.7896 0.0
C367 C 0.26843 0.07349 0.7695 0.0
C368 C 0.26151 0.11031 0.71513 0.0
C369 C 0.20177 0.11054 0.68196 0.0
C370 C 0.22337 0.10177 0.69513 0.0
C371 C 0.27728 0.08285 0.74763 0.0
C372 C 0.26033 0.08815 0.7275 0.0
H373 H 0.14109 0.11337 0.68967 0.0
H374 H 0.17692 0.0984 0.7096 0.0
H375 H 0.24384 0.13478 0.69089 0.0
H376 H 0.33565 0.09215 0.76449 0.0
H377 H 0.30929 0.09584 0.72931 0.0
C378 C 0.71611 0.93203 0.79796 0.0
C379 C 0.69168 0.92647 0.79416 0.0
C380 C 0.7332 0.92719 0.78014 0.0
C381 C 0.74401 0.91209 0.71639 0.0
H382 H 0.79661 0.87458 0.74326 0.0
C383 C 0.82006 0.86685 0.65841 0.0
C384 C 0.84343 0.86868 0.66815 0.0
C385 C 0.79994 0.87422 0.67195 0.0
C386 C 0.78221 0.88523 0.73544 0.0
H387 H 0.66574 0.91341 0.76787 0.0
H388 H 0.6958 0.90506 0.7366 0.0
H389 H 0.76487 0.88924 0.7696 0.0
H390 H 0.86395 0.88047 0.69945 0.0
H391 H 0.8294 0.89348 0.72248 0.0
H392 H 0.76182 0.90829 0.68216 0.0
C393 C 0.70163 0.91306 0.75346 0.0
C394 C 0.76403 0.89365 0.75057 0.0
C395 C 0.68445 0.91784 0.77138 0.0
C396 C 0.84625 0.87841 0.69141 0.0
C397 C 0.82635 0.88581 0.70475 0.0
C398 C 0.76246 0.90378 0.70116 0.0
C399 C 0.72626 0.91675 0.75809 0.0
C400 C 0.74496 0.90752 0.74133 0.0
C401 C 0.80291 0.88353 0.69542 0.0
C402 C 0.78201 0.89064 0.71066 0.0
H403 H 0.72227 0.9389 0.8152 0.0
H404 H 0.75205 0.93066 0.784 0.0
H405 H 0.7294 0.92262 0.70881 0.0
H406 H 0.8173 0.85953 0.64049 0.0
H407 H 0.78208 0.8722 0.66428 0.0
C408 C 0.27846 0.92225 0.19663 0.0
C409 C 0.30325 0.91905 0.20084 0.0
C410 C 0.2617 0.91702 0.21465 0.0
C411 C 0.25094 0.90635 0.27891 0.0
H412 H 0.20279 0.86163 0.25482 0.0
C413 C 0.17567 0.86275 0.33913 0.0
C414 C 0.15268 0.86208 0.32838 0.0
C415 C 0.19598 0.8695 0.32552 0.0
C416 C 0.21595 0.87426 0.26184 0.0
H417 H 0.32998 0.9098 0.22793 0.0
H418 H 0.30044 0.90089 0.25961 0.0
H419 H 0.23413 0.87625 0.22792 0.0
H420 H 0.13304 0.86848 0.29502 0.0
H421 H 0.16785 0.8804 0.27184 0.0
H422 H 0.23216 0.90476 0.31279 0.0
C423 C 0.29413 0.90728 0.24225 0.0
C424 C 0.23391 0.88262 0.24641 0.0
C425 C 0.31099 0.91238 0.2241 0.0
C426 C 0.15044 0.86848 0.30393 0.0
C427 C 0.17051 0.87523 0.2905 0.0
C428 C 0.23269 0.89812 0.29441 0.0
C429 C 0.26932 0.90864 0.23732 0.0
C430 C 0.25128 0.89912 0.2546 0.0
C431 C 0.19357 0.87562 0.30097 0.0
C432 C 0.21467 0.8824 0.28584 0.0
H433 H 0.27187 0.92755 0.17901 0.0
H434 H 0.24265 0.91861 0.21053 0.0
H435 H 0.26427 0.91895 0.28566 0.0
H436 H 0.17799 0.85802 0.35795 0.0
H437 H 0.21354 0.86959 0.33408 0.0
C438 C 0.71127 0.06587 0.20977 0.0
C439 C 0.68699 0.07282 0.21164 0.0
C440 C 0.72684 0.06831 0.22943 0.0
C441 C 0.73455 0.10609 0.28312 0.0
H442 H 0.79011 0.06477 0.29289 0.0
C443 C 0.81551 0.13016 0.34659 0.0
C444 C 0.8379 0.1282 0.33478 0.0
C445 C 0.79452 0.12087 0.33584 0.0
C446 C 0.7746 0.07641 0.29049 0.0
H447 H 0.6596 0.08631 0.23613 0.0
H448 H 0.68681 0.09037 0.2706 0.0
H449 H 0.75732 0.0513 0.2668 0.0
H450 H 0.8557 0.11484 0.30249 0.0
H451 H 0.81948 0.0987 0.28414 0.0
H452 H 0.75234 0.1315 0.30631 0.0
C453 C 0.69387 0.08336 0.25378 0.0
C454 C 0.75586 0.06873 0.2755 0.0
C455 C 0.67824 0.08084 0.23408 0.0
C456 C 0.83882 0.11676 0.31214 0.0
C457 C 0.81807 0.10726 0.30167 0.0
C458 C 0.75329 0.11372 0.29826 0.0
C459 C 0.7185 0.07777 0.25147 0.0
C460 C 0.73603 0.08385 0.27091 0.0
C461 C 0.79571 0.1091 0.31337 0.0
C462 C 0.77389 0.09932 0.30134 0.0
H463 H 0.7186 0.05962 0.19275 0.0
H464 H 0.74573 0.06405 0.22687 0.0
H465 H 0.71964 0.11828 0.27985 0.0
H466 H 0.81422 0.13887 0.36404 0.0
H467 H 0.77745 0.12259 0.34519 0.0
C468 C 0.65025 0.18334 0.13372 0.0
C469 C 0.66189 0.16079 0.13482 0.0
C470 C 0.66307 0.20405 0.12666 0.0
C471 C 0.72585 0.22641 0.12202 0.0
H472 H 0.70124 0.27217 0.0751 0.0
C473 C 0.79007 0.28617 0.07088 0.0
C474 C 0.78731 0.31091 0.07563 0.0
C475 C 0.77137 0.2701 0.07578 0.0
C476 C 0.70816 0.25957 0.08834 0.0
H477 H 0.69603 0.1424 0.12891 0.0
H478 H 0.71785 0.1779 0.11649 0.0
H479 H 0.67484 0.23981 0.0903 0.0
H480 H 0.76195 0.33851 0.08689 0.0
H481 H 0.72899 0.31013 0.09528 0.0
H482 H 0.75929 0.2454 0.11951 0.0
C483 C 0.69907 0.17989 0.12153 0.0
C484 C 0.6931 0.24119 0.09713 0.0
C485 C 0.68643 0.15942 0.12857 0.0
C486 C 0.76461 0.31953 0.08308 0.0
C487 C 0.74576 0.30335 0.0879 0.0
C488 C 0.74084 0.24444 0.11309 0.0
C489 C 0.68771 0.2025 0.12069 0.0
C490 C 0.70205 0.22402 0.1136 0.0
C491 C 0.74947 0.27843 0.08536 0.0
C492 C 0.73236 0.26081 0.09577 0.0
H493 H 0.63134 0.18497 0.1383 0.0
H494 H 0.65384 0.22126 0.12619 0.0
H495 H 0.73312 0.21392 0.13518 0.0
H496 H 0.80722 0.27896 0.06489 0.0
H497 H 0.7745 0.25095 0.07339 0.0
C498 C 0.21395 0.71221 0.0698 0.0
C499 C 0.2153 0.68786 0.07663 0.0
C500 C 0.23444 0.72682 0.0705 0.0
C501 C 0.28987 0.73322 0.10479 0.0
H502 H 0.30048 0.78644 0.06066 0.0
C503 C 0.35339 0.81444 0.12653 0.0
C504 C 0.34173 0.83674 0.12325 0.0
C505 C 0.34302 0.79313 0.11752 0.0
C506 C 0.29787 0.77157 0.07308 0.0
H507 H 0.23944 0.65936 0.0883 0.0
H508 H 0.27532 0.68508 0.08975 0.0
H509 H 0.27297 0.75397 0.04937 0.0
H510 H 0.31026 0.85411 0.10757 0.0
H511 H 0.2925 0.81743 0.09209 0.0
H512 H 0.31386 0.75155 0.12903 0.0
C513 C 0.25836 0.6928 0.08388 0.0
C514 C 0.28214 0.75301 0.06661 0.0
C515 C 0.23785 0.67807 0.08289 0.0
C516 C 0.31977 0.8373 0.11055 0.0
C517 C 0.30965 0.81625 0.10139 0.0
C518 C 0.30564 0.75186 0.11129 0.0
C519 C 0.25672 0.71748 0.07826 0.0
C520 C 0.2772 0.73415 0.0828 0.0
C521 C 0.32108 0.79392 0.10474 0.0
C522 C 0.30898 0.77172 0.09591 0.0
H523 H 0.19684 0.72026 0.06486 0.0
H524 H 0.23249 0.74581 0.0663 0.0
H525 H 0.28634 0.719 0.11772 0.0
H526 H 0.37033 0.81343 0.13622 0.0
H527 H 0.35216 0.77611 0.12043 0.0
C528 C 0.76941 0.68654 0.91552 0.0
C529 C 0.79065 0.69494 0.92664 0.0
C530 C 0.75038 0.70247 0.91063 0.0
C531 C 0.74373 0.7658 0.8961 0.0
H532 H 0.67481 0.75812 0.90558 0.0
C533 C 0.6816 0.84576 0.88535 0.0
C534 C 0.66019 0.84319 0.87201 0.0
C535 C 0.69479 0.82567 0.89244 0.0
C536 C 0.69399 0.76028 0.90254 0.0
H537 H 0.80764 0.72595 0.94342 0.0
H538 H 0.77454 0.75352 0.93506 0.0
H539 H 0.70264 0.7261 0.91884 0.0
H540 H 0.63522 0.81732 0.8566 0.0
H541 H 0.65883 0.7817 0.86884 0.0
H542 H 0.73551 0.79962 0.87975 0.0
C543 C 0.77275 0.7348 0.92969 0.0
C544 C 0.70986 0.74207 0.9102 0.0
C545 C 0.79167 0.71898 0.93455 0.0
C546 C 0.65174 0.81984 0.86674 0.0
C547 C 0.66518 0.79951 0.8738 0.0
C548 C 0.72801 0.78376 0.88837 0.0
C549 C 0.75238 0.72698 0.91678 0.0
C550 C 0.73493 0.74503 0.90759 0.0
C551 C 0.68715 0.80234 0.88623 0.0
C552 C 0.70303 0.78157 0.89208 0.0
H553 H 0.76808 0.66808 0.90924 0.0
H554 H 0.73483 0.69599 0.9007 0.0
H555 H 0.7629 0.76825 0.8932 0.0
H556 H 0.68842 0.86342 0.89021 0.0
H557 H 0.71126 0.82846 0.90259 0.0
C558 C 0.316 0.1617 0.88299 0.0
C559 C 0.33792 0.16294 0.87029 0.0
C560 C 0.30591 0.18227 0.89323 0.0
C561 C 0.30107 0.24676 0.88698 0.0
H562 H 0.27279 0.24201 0.95087 0.0
C563 C 0.23473 0.31877 0.92162 0.0
C564 C 0.21298 0.30876 0.93003 0.0
C565 C 0.25524 0.3043 0.91885 0.0
C566 C 0.28065 0.24369 0.93305 0.0
H567 H 0.36634 0.18697 0.85822 0.0
H568 H 0.3481 0.22344 0.87577 0.0
H569 H 0.2994 0.2101 0.93634 0.0
H570 H 0.19619 0.27623 0.94382 0.0
H571 H 0.23174 0.25111 0.93901 0.0
H572 H 0.28121 0.27963 0.88309 0.0
C573 C 0.33905 0.20626 0.87791 0.0
C574 C 0.29592 0.22547 0.92477 0.0
C575 C 0.34943 0.18544 0.86788 0.0
C576 C 0.21264 0.28448 0.93724 0.0
C577 C 0.23312 0.27009 0.93459 0.0
C578 C 0.28566 0.26498 0.89522 0.0
C579 C 0.3173 0.20474 0.8909 0.0
C580 C 0.30552 0.22637 0.90132 0.0
C581 C 0.25443 0.27962 0.92463 0.0
C582 C 0.27454 0.26315 0.918 0.0
H583 H 0.30662 0.14471 0.88531 0.0
H584 H 0.2889 0.18062 0.90272 0.0
H585 H 0.30814 0.24783 0.86879 0.0
H586 H 0.23559 0.33745 0.91595 0.0
H587 H 0.27147 0.31224 0.91142 0.0
C588 C 0.0568 0.78325 0.2852 0.0
C589 C 0.06653 0.78329 0.30858 0.0
C590 C 0.061 0.76384 0.26967 0.0
C591 C 0.0921 0.73503 0.2362 0.0
H592 H 0.103 0.6681 0.25349 0.0
C593 C 0.15016 0.67651 0.17601 0.0
C594 C 0.14085 0.6539 0.16945 0.0
C595 C 0.14044 0.68918 0.19541 0.0
C596 C 0.09988 0.68669 0.24838 0.0
H597 H 0.08646 0.76211 0.33478 0.0
H598 H 0.09439 0.72863 0.30753 0.0
H599 H 0.083 0.69519 0.28218 0.0
H600 H 0.11526 0.62597 0.17905 0.0
H601 H 0.09787 0.6484 0.21303 0.0
H602 H 0.1087 0.72675 0.2025 0.0
C603 C 0.08324 0.74336 0.30118 0.0
C604 C 0.08855 0.70224 0.26483 0.0
C605 C 0.07875 0.76265 0.31682 0.0
C606 C 0.12285 0.64333 0.18384 0.0
C607 C 0.11286 0.65621 0.20322 0.0
C608 C 0.10333 0.71959 0.21988 0.0
C609 C 0.07537 0.74424 0.27707 0.0
C610 C 0.0848 0.72671 0.25901 0.0
C611 C 0.1209 0.67971 0.2085 0.0
C612 C 0.10783 0.69538 0.2259 0.0
H613 H 0.04703 0.79876 0.27843 0.0
H614 H 0.05404 0.76479 0.25143 0.0
H615 H 0.08996 0.75378 0.23114 0.0
H616 H 0.16423 0.68496 0.16537 0.0
H617 H 0.14754 0.70693 0.19948 0.0
C618 C 0.07099 0.20273 0.71499 0.0
C619 C 0.07577 0.20641 0.69036 0.0
C620 C 0.07579 0.22087 0.73175 0.0
C621 C 0.08773 0.28435 0.74334 0.0
H622 H 0.1324 0.25909 0.79094 0.0
C623 C 0.13143 0.34243 0.82042 0.0
C624 C 0.13223 0.33093 0.84304 0.0
C625 C 0.12454 0.3295 0.79971 0.0
C626 C 0.11979 0.26645 0.77794 0.0
H627 H 0.08721 0.23277 0.66377 0.0
H628 H 0.09537 0.26469 0.69331 0.0
H629 H 0.11765 0.23294 0.75902 0.0
H630 H 0.12564 0.29703 0.86166 0.0
H631 H 0.11341 0.27505 0.8262 0.0
H632 H 0.08936 0.31778 0.76294 0.0
C633 C 0.08808 0.24764 0.69949 0.0
C634 C 0.11139 0.25145 0.75965 0.0
C635 C 0.08342 0.22936 0.68263 0.0
C636 C 0.12563 0.30649 0.84455 0.0
C637 C 0.11869 0.29375 0.8241 0.0
C638 C 0.09597 0.29942 0.76198 0.0
C639 C 0.08528 0.24312 0.72425 0.0
C640 C 0.0949 0.26005 0.7425 0.0
C641 C 0.11835 0.30491 0.80136 0.0
C642 C 0.11165 0.29039 0.77982 0.0
H643 H 0.06489 0.18536 0.72155 0.0
H644 H 0.07319 0.2171 0.75076 0.0
H645 H 0.07515 0.29139 0.73015 0.0
H646 H 0.13629 0.36128 0.81869 0.0
H647 H 0.12446 0.33859 0.78241 0.0
C648 C 0.89034 0.68997 0.85043 0.0
C649 C 0.87771 0.66818 0.84757 0.0
C650 C 0.8987 0.70266 0.83048 0.0
C651 C 0.91197 0.69957 0.7652 0.0
H652 H 0.90261 0.76874 0.77029 0.0
C653 C 0.92134 0.77015 0.68708 0.0
C654 C 0.93116 0.79266 0.69354 0.0
C655 C 0.91815 0.75213 0.70451 0.0
C656 C 0.90566 0.7495 0.76869 0.0
H657 H 0.86479 0.64208 0.82148 0.0
H658 H 0.879 0.66485 0.78612 0.0
H659 H 0.88922 0.74273 0.80276 0.0
H660 H 0.94757 0.81302 0.72267 0.0
H661 H 0.94223 0.78158 0.75288 0.0
H662 H 0.92798 0.70673 0.73057 0.0
C663 C 0.88258 0.67187 0.80401 0.0
C664 C 0.89796 0.73455 0.78732 0.0
C665 C 0.87437 0.6589 0.82419 0.0
C666 C 0.93967 0.796 0.71717 0.0
C667 C 0.93651 0.77804 0.73451 0.0
C668 C 0.91957 0.71466 0.74632 0.0
C669 C 0.89439 0.69418 0.807 0.0
C670 C 0.90139 0.70945 0.78607 0.0
C671 C 0.92473 0.75637 0.72862 0.0
C672 C 0.91683 0.73982 0.74813 0.0
H673 H 0.89372 0.6974 0.8682 0.0
H674 H 0.90837 0.71938 0.83351 0.0
H675 H 0.91488 0.68031 0.76372 0.0
H676 H 0.91465 0.76701 0.66899 0.0
H677 H 0.90905 0.73558 0.69947 0.0
C678 C 0.93388 0.20854 0.28265 0.0
C679 C 0.92361 0.20906 0.30579 0.0
C680 C 0.93098 0.22806 0.26696 0.0
C681 C 0.90327 0.25888 0.23231 0.0
H682 H 0.89507 0.32611 0.24994 0.0
C683 C 0.85117 0.32117 0.17037 0.0
C684 C 0.86146 0.34365 0.16494 0.0
C685 C 0.85964 0.3076 0.18974 0.0
C686 C 0.89748 0.30744 0.24473 0.0
H687 H 0.90378 0.2311 0.33131 0.0
H688 H 0.898 0.26479 0.30372 0.0
H689 H 0.91202 0.29767 0.27927 0.0
H690 H 0.88762 0.37034 0.17637 0.0
H691 H 0.90287 0.34626 0.21031 0.0
H692 H 0.88909 0.26844 0.19786 0.0
C693 C 0.90867 0.24956 0.29773 0.0
C694 C 0.90703 0.2911 0.26155 0.0
C695 C 0.9119 0.23017 0.31355 0.0
C696 C 0.87932 0.35309 0.18028 0.0
C697 C 0.88806 0.33928 0.19964 0.0
C698 C 0.89386 0.27511 0.21561 0.0
C699 C 0.91734 0.24834 0.2739 0.0
C700 C 0.90973 0.26653 0.25562 0.0
C701 C 0.87891 0.31598 0.20394 0.0
C702 C 0.89034 0.29946 0.22172 0.0
H703 H 0.94328 0.19264 0.27627 0.0
H704 H 0.93853 0.22677 0.24898 0.0
H705 H 0.90466 0.2401 0.22711 0.0
H706 H 0.83716 0.31361 0.15901 0.0
H707 H 0.85166 0.29006 0.19302 0.0
C708 C 0.02985 0.08625 0.63406 0.0
C709 C 0.04942 0.0904 0.61848 0.0
C710 C 0.01694 0.06463 0.63288 0.0
C711 C 0.00457 0.01151 0.59445 0.0
H712 H 0.99107 0.98037 0.65565 0.0
C713 C 0.97122 0.91369 0.6352 0.0
C714 C 0.95072 0.90952 0.62085 0.0
C715 C 0.98385 0.93543 0.63341 0.0
C716 C 0.99489 0.98873 0.63841 0.0
H717 H 0.07012 0.07549 0.58876 0.0
H718 H 0.04766 0.03777 0.58682 0.0
H719 H 0.0109 0.01956 0.65517 0.0
H720 H 0.92801 0.92454 0.59268 0.0
H721 H 0.95001 0.96247 0.58969 0.0
H722 H 0.98883 0.98042 0.57771 0.0
C723 C 0.04223 0.05127 0.59986 0.0
C724 C 0.00595 0.01134 0.63814 0.0
C725 C 0.05518 0.07286 0.60107 0.0
C726 C 0.94369 0.92718 0.60404 0.0
C727 C 0.95636 0.94889 0.60223 0.0
C728 C 0.99342 0.98889 0.59472 0.0
C729 C 0.02328 0.04673 0.61606 0.0
C730 C 0.01092 0.02299 0.61617 0.0
C731 C 0.9763 0.95343 0.61721 0.0
C732 C 0.98852 0.97724 0.61672 0.0
H733 H 0.02484 0.09942 0.6476 0.0
H734 H 0.00215 0.06181 0.64534 0.0
H735 H 0.00806 0.02011 0.57725 0.0
H736 H 0.9772 0.90043 0.64824 0.0
H737 H 0.9994 0.93825 0.64492 0.0
C738 C 0.9431 0.0715 0.38911 0.0
C739 C 0.9486 0.08878 0.37136 0.0
C740 C 0.95556 0.04965 0.39003 0.0
C741 C 0.99064 0.00853 0.35154 0.0
H742 H 0.00784 0.97858 0.4124 0.0
C743 C 0.05198 0.92444 0.38804 0.0
C744 C 0.04505 0.90637 0.37162 0.0
C745 C 0.03963 0.94636 0.38893 0.0
C746 C 0.00326 0.98676 0.39525 0.0
H747 H 0.97213 0.09694 0.34116 0.0
H748 H 0.99411 0.05884 0.34297 0.0
H749 H 0.98922 0.01844 0.41228 0.0
H750 H 0.01917 0.89691 0.34379 0.0
H751 H 0.99742 0.93515 0.34558 0.0
H752 H 0.00511 0.97708 0.33449 0.0
C753 C 0.97985 0.06209 0.35592 0.0
C754 C 0.99241 0.0095 0.39519 0.0
C755 C 0.96738 0.084 0.35501 0.0
C756 C 0.02503 0.91047 0.35659 0.0
C757 C 0.01268 0.93244 0.35748 0.0
C758 C 0.00148 0.98579 0.3516 0.0
C759 C 0.97384 0.04454 0.37323 0.0
C760 C 0.98598 0.02065 0.37333 0.0
C761 C 0.02005 0.95075 0.37344 0.0
C762 C 0.00792 0.97464 0.37346 0.0
H763 H 0.92873 0.07457 0.402 0.0
H764 H 0.95032 0.03643 0.40344 0.0
H765 H 0.98562 0.01649 0.3344 0.0
H766 H 0.06732 0.92191 0.39988 0.0
H767 H 0.04593 0.96016 0.40126 0.0
C768 C 0.63435 0.97293 0.9139 0.0
C769 C 0.61901 0.95314 0.90982 0.0
C770 C 0.63328 0.98568 0.93564 0.0
C771 C 0.63883 0.99704 0.9889 0.0
H772 H 0.57831 0.01209 0.02059 0.0
C773 C 0.63566 0.03218 0.0867 0.0
C774 C 0.6202 0.05179 0.0911 0.0
C775 C 0.6344 0.01954 0.0649 0.0
C776 C 0.59535 0.00811 0.01192 0.0
H777 H 0.58989 0.93183 0.92504 0.0
H778 H 0.58815 0.95398 0.96294 0.0
H779 H 0.57796 0.99288 0.98094 0.0
H780 H 0.59076 0.07299 0.0763 0.0
H781 H 0.58872 0.05105 0.03832 0.0
H782 H 0.65625 0.0126 0.01964 0.0
C783 C 0.6009 0.95973 0.9493 0.0
C784 C 0.59515 0.99693 0.9893 0.0
C785 C 0.60199 0.94697 0.92759 0.0
C786 C 0.60297 0.05799 0.07352 0.0
C787 C 0.6017 0.04533 0.05176 0.0
C788 C 0.63903 0.00816 0.01152 0.0
C789 C 0.61682 0.97896 0.95374 0.0
C790 C 0.6169 0.99131 0.97752 0.0
C791 C 0.61763 0.0262 0.04706 0.0
C792 C 0.61731 0.01382 0.02329 0.0
H793 H 0.64761 0.97824 0.90057 0.0
H794 H 0.64551 0.00068 0.93836 0.0
H795 H 0.6559 0.99266 0.98047 0.0
H796 H 0.64908 0.02686 0.09988 0.0
H797 H 0.64668 0.00463 0.06196 0.0
C798 C 0.36129 0.96931 0.08262 0.0
C799 C 0.37603 0.94897 0.08611 0.0
C800 C 0.36243 0.98239 0.06108 0.0
C801 C 0.37854 0.97528 0.99729 0.0
H802 H 0.37768 0.04522 0.99626 0.0
C803 C 0.3605 0.03145 0.91097 0.0
C804 C 0.37491 0.05204 0.9075 0.0
C805 C 0.36188 0.01836 0.93251 0.0
C806 C 0.37808 0.02568 0.99627 0.0
H807 H 0.40401 0.92684 0.06991 0.0
H808 H 0.40594 0.94968 0.03241 0.0
H809 H 0.3782 0.02401 0.0349 0.0
H810 H 0.40257 0.07459 0.92372 0.0
H811 H 0.40491 0.05174 0.96117 0.0
H812 H 0.3784 0.97696 0.95866 0.0
C813 C 0.39336 0.95534 0.04625 0.0
C814 C 0.37816 0.01356 0.01838 0.0
C815 C 0.39235 0.94238 0.06782 0.0
C816 C 0.39114 0.05887 0.9258 0.0
C817 C 0.39239 0.04589 0.94734 0.0
C818 C 0.37827 0.9874 0.97519 0.0
C819 C 0.37821 0.9753 0.04253 0.0
C820 C 0.37841 0.98824 0.01911 0.0
C821 C 0.37758 0.02568 0.95105 0.0
C822 C 0.37806 0.01273 0.97445 0.0
H823 H 0.34853 0.97488 0.09634 0.0
H824 H 0.35044 0.99763 0.05865 0.0
H825 H 0.37848 0.95574 0.99731 0.0
H826 H 0.34782 0.0257 0.89725 0.0
H827 H 0.35014 0.00292 0.93493 0.0
C828 C 0.92303 0.61107 0.96249 0.0
C829 C 0.90924 0.63229 0.96094 0.0
C830 C 0.94438 0.61068 0.9759 0.0
C831 C 0.99367 0.64903 0.99341 0.0
H832 H 0.00792 0.60096 0.04216 0.0
C833 C 0.08157 0.65205 0.04942 0.0
C834 C 0.09161 0.63012 0.05715 0.0
C835 C 0.05916 0.65244 0.03784 0.0
C836 C 0.00447 0.61427 0.02829 0.0
H837 H 0.90668 0.66957 0.97257 0.0
H838 H 0.9444 0.66899 0.99554 0.0
H839 H 0.96856 0.60104 0.02251 0.0
H840 H 0.08672 0.59134 0.05785 0.0
H841 H 0.04836 0.59183 0.03656 0.0
H842 H 0.02973 0.66172 0.9982 0.0
C843 C 0.93849 0.65267 0.98654 0.0
C844 C 0.98182 0.6144 0.01723 0.0
C845 C 0.91687 0.65293 0.97355 0.0
C846 C 0.07928 0.60854 0.0523 0.0
C847 C 0.05714 0.60887 0.04029 0.0
C848 C 0.01649 0.64863 0.0041 0.0
C849 C 0.95254 0.63163 0.98756 0.0
C850 C 0.97623 0.63181 0.99976 0.0
C851 C 0.04652 0.63086 0.03329 0.0
C852 C 0.02223 0.63125 0.02173 0.0
H853 H 0.91755 0.5949 0.95298 0.0
H854 H 0.95499 0.59428 0.9764 0.0
H855 H 0.98982 0.66245 0.97972 0.0
H856 H 0.09059 0.66899 0.05312 0.0
H857 H 0.0515 0.66976 0.03309 0.0
C858 C 0.07664 0.39036 0.95501 0.0
C859 C 0.09018 0.36896 0.95383 0.0
C860 C 0.055 0.39106 0.96791 0.0
C861 C 0.00466 0.35397 0.98479 0.0
H862 H 0.99227 0.40062 0.03539 0.0
C863 C 0.91819 0.35017 0.0427 0.0
C864 C 0.90876 0.37184 0.05178 0.0
C865 C 0.94019 0.35 0.03038 0.0
C866 C 0.99517 0.38775 0.02099 0.0
H867 H 0.09187 0.33161 0.96539 0.0
H868 H 0.0536 0.33273 0.9874 0.0
H869 H 0.03131 0.40033 0.01513 0.0
H870 H 0.91426 0.41047 0.05414 0.0
H871 H 0.95188 0.41046 0.03155 0.0
H872 H 0.96841 0.34191 0.98969 0.0
C873 C 0.05996 0.34895 0.97854 0.0
C874 C 0.01764 0.38751 0.00958 0.0
C875 C 0.08187 0.34838 0.9661 0.0
C876 C 0.92125 0.39346 0.04753 0.0
C877 C 0.94297 0.39338 0.03477 0.0
C878 C 0.98201 0.35452 0.99582 0.0
C879 C 0.04629 0.37024 0.97938 0.0
C880 C 0.02259 0.37052 0.99151 0.0
C881 C 0.95301 0.37159 0.02642 0.0
C882 C 0.97697 0.37134 0.01418 0.0
H883 H 0.08265 0.4065 0.94576 0.0
H884 H 0.04467 0.40766 0.9683 0.0
H885 H 0.00805 0.34089 0.97065 0.0
H886 H 0.90904 0.3332 0.04592 0.0
H887 H 0.94742 0.33281 0.02463 0.0
loop_
_geom_bond_atom_site_label_1
_geom_bond_atom_site_label_2
_geom_bond_distance
_geom_bond_site_symmetry_2
_ccdc_geom_bond_type
O0 Cd1 2.223 . S
O0 C8 1.315 . S
Cd1 O0 2.223 . S
Cd1 O4 2.297 . S
Cd1 O5 2.439 . S
Cd1 O11 2.240 . S
Cd2 O3 2.240 . S
Cd2 O10 2.223 . S
Cd2 O12 2.297 . S
Cd2 O13 2.439 . S
O3 Cd2 2.240 . S
O3 C8 1.279 . S
O4 Cd1 2.297 . S
O4 C6 1.247 . S
O5 Cd1 2.439 . S
O5 C6 1.208 . S
C6 O4 1.247 . S
C6 O5 1.208 . S
C7 O12 1.247 . S
C7 O13 1.208 . S
C8 O0 1.315 . S
C8 O3 1.279 . S
C9 O10 1.315 . S
C9 O11 1.279 . S
O10 Cd2 2.223 . S
O10 C9 1.315 . S
O11 Cd1 2.240 . S
O11 C9 1.279 . S
O12 Cd2 2.297 . S
O12 C7 1.247 . S
O13 Cd2 2.439 . S
O13 C7 1.208 . S
O14 Cd15 2.223 . S
O14 C22 1.315 . S
Cd15 O14 2.223 . S
Cd15 O18 2.297 . S
Cd15 O19 2.439 . S
Cd15 O25 2.240 . S
Cd16 O17 2.240 . S
Cd16 O24 2.223 . S
Cd16 O26 2.297 . S
Cd16 O27 2.439 . S
O17 Cd16 2.240 . S
O17 C22 1.279 . S
O18 Cd15 2.297 . S
O18 C20 1.247 . S
O19 Cd15 2.439 . S
O19 C20 1.208 . S
C20 O18 1.247 . S
C20 O19 1.208 . S
C21 O26 1.247 . S
C21 O27 1.208 . S
C22 O14 1.315 . S
C22 O17 1.279 . S
C23 O24 1.315 . S
C23 O25 1.279 . S
O24 Cd16 2.223 . S
O24 C23 1.315 . S
O25 Cd15 2.240 . S
O25 C23 1.279 . S
O26 Cd16 2.297 . S
O26 C21 1.247 . S
O27 Cd16 2.439 . S
O27 C21 1.208 . S
O28 Cd29 2.223 . S
O28 C36 1.315 . S
Cd29 O28 2.223 . S
Cd29 O32 2.297 . S
Cd29 O33 2.439 . S
Cd29 O39 2.240 . S
Cd30 O31 2.240 . S
Cd30 O38 2.223 . S
Cd30 O40 2.297 . S
Cd30 O41 2.439 . S
O31 Cd30 2.240 . S
O31 C36 1.279 . S
O32 Cd29 2.297 . S
O32 C34 1.247 . S
O33 Cd29 2.439 . S
O33 C34 1.208 . S
C34 O32 1.247 . S
C34 O33 1.208 . S
C35 O40 1.247 . S
C35 O41 1.208 . S
C36 O28 1.315 . S
C36 O31 1.279 . S
C37 O38 1.315 . S
C37 O39 1.279 . S
O38 Cd30 2.223 . S
O38 C37 1.315 . S
O39 Cd29 2.240 . S
O39 C37 1.279 . S
O40 Cd30 2.297 . S
O40 C35 1.247 . S
O41 Cd30 2.439 . S
O41 C35 1.208 . S
O42 Cd43 2.223 . S
O42 C50 1.315 . S
Cd43 O42 2.223 . S
Cd43 O46 2.297 . S
Cd43 O47 2.439 . S
Cd43 O53 2.240 . S
Cd44 O45 2.240 . S
Cd44 O52 2.223 . S
Cd44 O54 2.297 . S
Cd44 O55 2.439 . S
O45 Cd44 2.240 . S
O45 C50 1.279 . S
O46 Cd43 2.297 . S
O46 C48 1.247 . S
O47 Cd43 2.439 . S
O47 C48 1.208 . S
C48 O46 1.247 . S
C48 O47 1.208 . S
C49 O54 1.247 . S
C49 O55 1.208 . S
C50 O42 1.315 . S
C50 O45 1.279 . S
C51 O52 1.315 . S
C51 O53 1.279 . S
O52 Cd44 2.223 . S
O52 C51 1.315 . S
O53 Cd43 2.240 . S
O53 C51 1.279 . S
O54 Cd44 2.297 . S
O54 C49 1.247 . S
O55 Cd44 2.439 . S
O55 C49 1.208 . S
O56 Cd57 2.223 . S
O56 C64 1.315 . S
Cd57 O56 2.223 . S
Cd57 O60 2.297 . S
Cd57 O61 2.439 . S
Cd57 O67 2.240 . S
Cd58 O59 2.240 . S
Cd58 O66 2.223 . S
Cd58 O68 2.297 . S
Cd58 O69 2.439 . S
O59 Cd58 2.240 . S
O59 C64 1.279 . S
O60 Cd57 2.297 . S
O60 C62 1.247 . S
O61 Cd57 2.439 . S
O61 C62 1.208 . S
C62 O60 1.247 . S
C62 O61 1.208 . S
C63 O68 1.247 . S
C63 O69 1.208 . S
C64 O56 1.315 . S
C64 O59 1.279 . S
C65 O66 1.315 . S
C65 O67 1.279 . S
O66 Cd58 2.223 . S
O66 C65 1.315 . S
O67 Cd57 2.240 . S
O67 C65 1.279 . S
O68 Cd58 2.297 . S
O68 C63 1.247 . S
O69 Cd58 2.439 . S
O69 C63 1.208 . S
O70 Cd71 2.223 . S
O70 C78 1.315 . S
Cd71 O70 2.223 . S
Cd71 O74 2.297 . S
Cd71 O75 2.439 . S
Cd71 O81 2.240 . S
Cd72 O73 2.240 . S
Cd72 O80 2.223 . S
Cd72 O82 2.297 . S
Cd72 O83 2.439 . S
O73 Cd72 2.240 . S
O73 C78 1.279 . S
O74 Cd71 2.297 . S
O74 C76 1.247 . S
O75 Cd71 2.439 . S
O75 C76 1.208 . S
C76 O74 1.247 . S
C76 O75 1.208 . S
C77 O82 1.247 . S
C77 O83 1.208 . S
C78 O70 1.315 . S
C78 O73 1.279 . S
C79 O80 1.315 . S
C79 O81 1.279 . S
O80 Cd72 2.223 . S
O80 C79 1.315 . S
O81 Cd71 2.240 . S
O81 C79 1.279 . S
O82 Cd72 2.297 . S
O82 C77 1.247 . S
O83 Cd72 2.439 . S
O83 C77 1.208 . S
O84 Cd85 2.223 . S
O84 C92 1.315 . S
Cd85 O84 2.223 . S
Cd85 O88 2.297 . S
Cd85 O89 2.439 . S
Cd85 O95 2.240 . S
Cd86 O87 2.240 . S
Cd86 O94 2.223 . S
Cd86 O96 2.297 . S
Cd86 O97 2.439 . S
O87 Cd86 2.240 . S
O87 C92 1.279 . S
O88 Cd85 2.297 . S
O88 C90 1.247 . S
O89 Cd85 2.439 . S
O89 C90 1.208 . S
C90 O88 1.247 . S
C90 O89 1.208 . S
C91 O96 1.247 . S
C91 O97 1.208 . S
C92 O84 1.315 . S
C92 O87 1.279 . S
C93 O94 1.315 . S
C93 O95 1.279 . S
O94 Cd86 2.223 . S
O94 C93 1.315 . S
O95 Cd85 2.240 . S
O95 C93 1.279 . S
O96 Cd86 2.297 . S
O96 C91 1.247 . S
O97 Cd86 2.439 . S
O97 C91 1.208 . S
O98 Cd99 2.223 . S
O98 C106 1.315 . S
Cd99 O98 2.223 . S
Cd99 O102 2.297 . S
Cd99 O103 2.439 . S
Cd99 O109 2.240 . S
Cd100 O101 2.240 . S
Cd100 O108 2.223 . S
Cd100 O110 2.297 . S
Cd100 O111 2.439 . S
O101 Cd100 2.240 . S
O101 C106 1.279 . S
O102 Cd99 2.297 . S
O102 C104 1.247 . S
O103 Cd99 2.439 . S
O103 C104 1.208 . S
C104 O102 1.247 . S
C104 O103 1.208 . S
C105 O110 1.247 . S
C105 O111 1.208 . S
C106 O98 1.315 . S
C106 O101 1.279 . S
C107 O108 1.315 . S
C107 O109 1.279 . S
O108 Cd100 2.223 . S
O108 C107 1.315 . S
O109 Cd99 2.240 . S
O109 C107 1.279 . S
O110 Cd100 2.297 . S
O110 C105 1.247 . S
O111 Cd100 2.439 . S
O111 C105 1.208 . S
O112 Cd113 2.223 . S
O112 C120 1.315 . S
Cd113 O112 2.223 . S
Cd113 O116 2.297 . S
Cd113 O117 2.439 . S
Cd113 O123 2.240 . S
Cd114 O115 2.240 . S
Cd114 O122 2.223 . S
Cd114 O124 2.297 . S
Cd114 O125 2.439 . S
O115 Cd114 2.240 . S
O115 C120 1.279 . S
O116 Cd113 2.297 . S
O116 C118 1.247 . S
O117 Cd113 2.439 . S
O117 C118 1.208 . S
C118 O116 1.247 . S
C118 O117 1.208 . S
C119 O124 1.247 . S
C119 O125 1.208 . S
C120 O112 1.315 . S
C120 O115 1.279 . S
C121 O122 1.315 . S
C121 O123 1.279 . S
O122 Cd114 2.223 . S
O122 C121 1.315 . S
O123 Cd113 2.240 . S
O123 C121 1.279 . S
O124 Cd114 2.297 . S
O124 C119 1.247 . S
O125 Cd114 2.439 . S
O125 C119 1.208 . S
O126 Cd127 2.223 . S
O126 C134 1.315 . S
Cd127 O126 2.223 . S
Cd127 O130 2.297 . S
Cd127 O131 2.439 . S
Cd127 O137 2.240 . S
Cd128 O129 2.240 . S
Cd128 O136 2.223 . S
Cd128 O138 2.297 . S
Cd128 O139 2.439 . S
O129 Cd128 2.240 . S
O129 C134 1.279 . S
O130 Cd127 2.297 . S
O130 C132 1.247 . S
O131 Cd127 2.439 . S
O131 C132 1.208 . S
C132 O130 1.247 . S
C132 O131 1.208 . S
C133 O138 1.247 . S
C133 O139 1.208 . S
C134 O126 1.315 . S
C134 O129 1.279 . S
C135 O136 1.315 . S
C135 O137 1.279 . S
O136 Cd128 2.223 . S
O136 C135 1.315 . S
O137 Cd127 2.240 . S
O137 C135 1.279 . S
O138 Cd128 2.297 . S
O138 C133 1.247 . S
O139 Cd128 2.439 . S
O139 C133 1.208 . S
O140 Cd141 2.223 . S
O140 C148 1.315 . S
Cd141 O140 2.223 . S
Cd141 O144 2.297 . S
Cd141 O145 2.439 . S
Cd141 O151 2.240 . S
Cd142 O143 2.240 . S
Cd142 O150 2.223 . S
Cd142 O152 2.297 . S
Cd142 O153 2.439 . S
O143 Cd142 2.240 . S
O143 C148 1.279 . S
O144 Cd141 2.297 . S
O144 C146 1.247 . S
O145 Cd141 2.439 . S
O145 C146 1.208 . S
C146 O144 1.247 . S
C146 O145 1.208 . S
C147 O152 1.247 . S
C147 O153 1.208 . S
C148 O140 1.315 . S
C148 O143 1.279 . S
C149 O150 1.315 . S
C149 O151 1.279 . S
O150 Cd142 2.223 . S
O150 C149 1.315 . S
O151 Cd141 2.240 . S
O151 C149 1.279 . S
O152 Cd142 2.297 . S
O152 C147 1.247 . S
O153 Cd142 2.439 . S
O153 C147 1.208 . S
O154 Cd155 2.223 . S
O154 C162 1.315 . S
Cd155 O154 2.223 . S
Cd155 O158 2.297 . S
Cd155 O159 2.439 . S
Cd155 O165 2.240 . S
Cd156 O157 2.240 . S
Cd156 O164 2.223 . S
Cd156 O166 2.297 . S
Cd156 O167 2.439 . S
O157 Cd156 2.240 . S
O157 C162 1.279 . S
O158 Cd155 2.297 . S
O158 C160 1.247 . S
O159 Cd155 2.439 . S
O159 C160 1.208 . S
C160 O158 1.247 . S
C160 O159 1.208 . S
C161 O166 1.247 . S
C161 O167 1.208 . S
C162 O154 1.315 . S
C162 O157 1.279 . S
C163 O164 1.315 . S
C163 O165 1.279 . S
O164 Cd156 2.223 . S
O164 C163 1.315 . S
O165 Cd155 2.240 . S
O165 C163 1.279 . S
O166 Cd156 2.297 . S
O166 C161 1.247 . S
O167 Cd156 2.439 . S
O167 C161 1.208 . S
C168 C169 1.349 . S
C168 C170 1.327 . S
C168 H193 0.950 . S
C169 C168 1.349 . S
C169 C185 1.349 . S
C170 C168 1.327 . S
C170 C189 1.429 . S
C170 H194 0.950 . S
C171 C188 1.574 . S
C171 C190 1.368 1_455 S
C171 H195 0.949 . S
H172 C176 0.949 . S
C173 C174 1.349 . S
C173 C175 1.327 . S
C173 H196 0.950 . S
C174 C173 1.349 . S
C174 C186 1.349 . S
C175 C173 1.327 . S
C175 C191 1.429 . S
C175 H197 0.950 . S
C176 H172 0.949 . S
C176 C184 1.574 . S
C176 C192 1.368 1_655 S
H177 C185 0.950 . S
H178 C183 0.969 . S
H179 C184 0.949 . S
H180 C186 0.950 . S
H181 C187 0.969 . S
H182 C188 0.949 . S
C183 H178 0.969 . S
C183 C185 1.327 . S
C183 C189 1.429 . S
C184 C176 1.574 . S
C184 H179 0.949 . S
C184 C190 1.368 . S
C185 C169 1.349 . S
C185 H177 0.950 . S
C185 C183 1.327 . S
C186 C174 1.349 . S
C186 H180 0.950 . S
C186 C187 1.327 . S
C187 H181 0.969 . S
C187 C186 1.327 . S
C187 C191 1.429 . S
C188 C171 1.574 . S
C188 H182 0.949 . S
C188 C192 1.368 . S
C189 C170 1.429 . S
C189 C183 1.429 . S
C189 C190 1.523 . S
C190 C171 1.368 1_655 S
C190 C184 1.368 . S
C190 C189 1.523 . S
C191 C175 1.429 . S
C191 C187 1.429 . S
C191 C192 1.523 . S
C192 C176 1.368 1_455 S
C192 C188 1.368 . S
C192 C191 1.523 . S
H193 C168 0.950 . S
H194 C170 0.950 . S
H195 C171 0.949 . S
H196 C173 0.950 . S
H197 C175 0.950 . S
C198 C199 1.349 . S
C198 C200 1.327 . S
C198 H223 0.950 . S
C199 C198 1.349 . S
C199 C215 1.349 . S
C200 C198 1.327 . S
C200 C219 1.429 . S
C200 H224 0.969 . S
C201 C218 1.574 . S
C201 C220 1.368 . S
C201 H225 0.949 . S
H202 C206 0.949 . S
C203 C204 1.349 . S
C203 C205 1.327 . S
C203 H226 0.950 . S
C204 C203 1.349 . S
C204 C216 1.349 . S
C205 C203 1.327 . S
C205 C221 1.429 . S
C205 H227 0.969 . S
C206 H202 0.949 . S
C206 C214 1.574 . S
C206 C222 1.368 . S
H207 C215 0.950 . S
H208 C213 0.950 . S
H209 C214 0.949 . S
H210 C216 0.950 . S
H211 C217 0.950 . S
H212 C218 0.949 . S
C213 H208 0.950 . S
C213 C215 1.327 . S
C213 C219 1.429 . S
C214 C206 1.574 . S
C214 H209 0.949 . S
C214 C220 1.368 1_655 S
C215 C199 1.349 . S
C215 H207 0.950 . S
C215 C213 1.327 . S
C216 C204 1.349 . S
C216 H210 0.950 . S
C216 C217 1.327 . S
C217 H211 0.950 . S
C217 C216 1.327 . S
C217 C221 1.429 . S
C218 C201 1.574 . S
C218 H212 0.949 . S
C218 C222 1.368 1_455 S
C219 C200 1.429 . S
C219 C213 1.429 . S
C219 C220 1.523 . S
C220 C201 1.368 . S
C220 C214 1.368 1_455 S
C220 C219 1.523 . S
C221 C205 1.429 . S
C221 C217 1.429 . S
C221 C222 1.523 . S
C222 C206 1.368 . S
C222 C218 1.368 1_655 S
C222 C221 1.523 . S
H223 C198 0.950 . S
H224 C200 0.969 . S
H225 C201 0.949 . S
H226 C203 0.950 . S
H227 C205 0.969 . S
C228 C229 1.349 . S
C228 C230 1.327 . S
C228 H253 0.950 . S
C229 C228 1.349 . S
C229 C245 1.349 . S
C230 C228 1.327 . S
C230 C249 1.429 . S
C230 H254 0.950 . S
C231 C248 1.574 . S
C231 C250 1.368 1_545 S
C231 H255 0.949 . S
H232 C236 0.949 . S
C233 C234 1.349 . S
C233 C235 1.327 . S
C233 H256 0.950 . S
C234 C233 1.349 . S
C234 C246 1.349 . S
C235 C233 1.327 . S
C235 C251 1.429 . S
C235 H257 0.950 . S
C236 H232 0.949 . S
C236 C244 1.574 . S
C236 C252 1.368 1_565 S
H237 C245 0.950 . S
H238 C243 0.969 . S
H239 C244 0.949 . S
H240 C246 0.950 . S
H241 C247 0.969 . S
H242 C248 0.949 . S
C243 H238 0.969 . S
C243 C245 1.327 . S
C243 C249 1.429 . S
C244 C236 1.574 . S
C244 H239 0.949 . S
C244 C250 1.368 . S
C245 C229 1.349 . S
C245 H237 0.950 . S
C245 C243 1.327 . S
C246 C234 1.349 . S
C246 H240 0.950 . S
C246 C247 1.327 . S
C247 H241 0.969 . S
C247 C246 1.327 . S
C247 C251 1.429 . S
C248 C231 1.574 . S
C248 H242 0.949 . S
C248 C252 1.368 . S
C249 C230 1.429 . S
C249 C243 1.429 . S
C249 C250 1.523 . S
C250 C231 1.368 1_565 S
C250 C244 1.368 . S
C250 C249 1.523 . S
C251 C235 1.429 . S
C251 C247 1.429 . S
C251 C252 1.523 . S
C252 C236 1.368 1_545 S
C252 C248 1.368 . S
C252 C251 1.523 . S
H253 C228 0.950 . S
H254 C230 0.950 . S
H255 C231 0.949 . S
H256 C233 0.950 . S
H257 C235 0.950 . S
C258 C259 1.349 . S
C258 C260 1.327 . S
C258 H283 0.950 . S
C259 C258 1.349 . S
C259 C275 1.349 . S
C260 C258 1.327 . S
C260 C279 1.429 . S
C260 H284 0.950 . S
C261 C278 1.574 . S
C261 C280 1.368 1_545 S
C261 H285 0.949 . S
H262 C266 0.949 . S
C263 C264 1.349 . S
C263 C265 1.327 . S
C263 H286 0.950 . S
C264 C263 1.349 . S
C264 C276 1.349 . S
C265 C263 1.327 . S
C265 C281 1.429 . S
C265 H287 0.950 . S
C266 H262 0.949 . S
C266 C274 1.574 . S
C266 C282 1.368 1_565 S
H267 C275 0.950 . S
H268 C273 0.969 . S
H269 C274 0.949 . S
H270 C276 0.950 . S
H271 C277 0.969 . S
H272 C278 0.949 . S
C273 H268 0.969 . S
C273 C275 1.327 . S
C273 C279 1.429 . S
C274 C266 1.574 . S
C274 H269 0.949 . S
C274 C280 1.368 . S
C275 C259 1.349 . S
C275 H267 0.950 . S
C275 C273 1.327 . S
C276 C264 1.349 . S
C276 H270 0.950 . S
C276 C277 1.327 . S
C277 H271 0.969 . S
C277 C276 1.327 . S
C277 C281 1.429 . S
C278 C261 1.574 . S
C278 H272 0.949 . S
C278 C282 1.368 . S
C279 C260 1.429 . S
C279 C273 1.429 . S
C279 C280 1.523 . S
C280 C261 1.368 1_565 S
C280 C274 1.368 . S
C280 C279 1.523 . S
C281 C265 1.429 . S
C281 C277 1.429 . S
C281 C282 1.523 . S
C282 C266 1.368 1_545 S
C282 C278 1.368 . S
C282 C281 1.523 . S
H283 C258 0.950 . S
H284 C260 0.950 . S
H285 C261 0.949 . S
H286 C263 0.950 . S
H287 C265 0.950 . S
C288 C289 1.349 . S
C288 C290 1.327 . S
C288 H313 0.950 . S
C289 C288 1.349 . S
C289 C305 1.349 . S
C290 C288 1.327 . S
C290 C309 1.429 . S
C290 H314 0.950 . S
C291 C308 1.574 . S
C291 C310 1.368 1_554 S
C291 H315 0.949 . S
H292 C296 0.949 . S
C293 C294 1.349 . S
C293 C295 1.327 . S
C293 H316 0.950 . S
C294 C293 1.349 . S
C294 C306 1.349 . S
C295 C293 1.327 . S
C295 C311 1.429 . S
C295 H317 0.950 . S
C296 H292 0.949 . S
C296 C304 1.574 . S
C296 C312 1.368 1_556 S
H297 C305 0.950 . S
H298 C303 0.950 1_554 S
H299 C304 0.949 . S
H300 C306 0.950 . S
H301 C307 0.950 1_556 S
H302 C308 0.949 . S
C303 H298 0.950 1_556 S
C303 C305 1.327 . S
C303 C309 1.429 . S
C304 C296 1.574 . S
C304 H299 0.949 . S
C304 C310 1.368 . S
C305 C289 1.349 . S
C305 H297 0.950 . S
C305 C303 1.327 . S
C306 C294 1.349 . S
C306 H300 0.950 . S
C306 C307 1.327 . S
C307 H301 0.950 1_554 S
C307 C306 1.327 . S
C307 C311 1.429 . S
C308 C291 1.574 . S
C308 H302 0.949 . S
C308 C312 1.368 . S
C309 C290 1.429 . S
C309 C303 1.429 . S
C309 C310 1.523 . S
C310 C291 1.368 1_556 S
C310 C304 1.368 . S
C310 C309 1.523 . S
C311 C295 1.429 . S
C311 C307 1.429 . S
C311 C312 1.523 . S
C312 C296 1.368 1_554 S
C312 C308 1.368 . S
C312 C311 1.523 . S
H313 C288 0.950 . S
H314 C290 0.950 . S
H315 C291 0.949 . S
H316 C293 0.950 . S
H317 C295 0.950 . S
C318 C319 1.349 . S
C318 C320 1.327 . S
C318 H343 0.950 . S
C319 C318 1.349 . S
C319 C335 1.349 . S
C320 C318 1.327 . S
C320 C339 1.429 . S
C320 H344 0.950 . S
C321 C338 1.570 1_556 S
C321 C340 1.372 . S
C321 H345 0.949 . S
H322 C326 0.949 . S
C323 C324 1.349 . S
C323 C325 1.327 . S
C323 H346 0.950 . S
C324 C323 1.349 . S
C324 C336 1.349 . S
C325 C323 1.327 . S
C325 C341 1.429 . S
C325 H347 0.950 . S
C326 H322 0.949 . S
C326 C334 1.570 1_554 S
C326 C342 1.372 . S
H327 C335 0.950 . S
H328 C333 0.950 . S
H329 C334 0.949 . S
H330 C336 0.950 . S
H331 C337 0.950 . S
H332 C338 0.949 . S
C333 H328 0.950 . S
C333 C335 1.327 . S
C333 C339 1.429 . S
C334 C326 1.570 1_556 S
C334 H329 0.949 . S
C334 C340 1.368 . S
C335 C319 1.349 . S
C335 H327 0.950 . S
C335 C333 1.327 . S
C336 C324 1.349 . S
C336 H330 0.950 . S
C336 C337 1.327 . S
C337 H331 0.950 . S
C337 C336 1.327 . S
C337 C341 1.429 . S
C338 C321 1.570 1_554 S
C338 H332 0.949 . S
C338 C342 1.368 . S
C339 C320 1.429 . S
C339 C333 1.429 . S
C339 C340 1.523 . S
C340 C321 1.372 . S
C340 C334 1.368 . S
C340 C339 1.523 . S
C341 C325 1.429 . S
C341 C337 1.429 . S
C341 C342 1.523 . S
C342 C326 1.372 . S
C342 C338 1.368 . S
C342 C341 1.523 . S
H343 C318 0.950 . S
H344 C320 0.950 . S
H345 C321 0.949 . S
H346 C323 0.950 . S
H347 C325 0.950 . S
C348 C349 1.349 . S
C348 C350 1.327 . S
C348 H373 0.950 . S
C349 C348 1.349 . S
C349 C365 1.349 . S
C350 C348 1.327 . S
C350 C369 1.429 . S
C350 H374 0.950 . S
C351 C368 1.574 . S
C351 C370 1.368 . S
C351 H375 0.949 . S
H352 C356 0.949 . S
C353 C354 1.349 . S
C353 C355 1.327 . S
C353 H376 0.950 . S
C354 C353 1.349 . S
C354 C366 1.349 . S
C355 C353 1.327 . S
C355 C371 1.429 . S
C355 H377 0.950 . S
C356 H352 0.949 . S
C356 C364 1.574 . S
C356 C372 1.368 . S
H357 C365 0.950 . S
H358 C363 0.950 . S
H359 C364 0.949 . S
H360 C366 0.950 . S
H361 C367 0.950 . S
H362 C368 0.949 . S
C363 H358 0.950 . S
C363 C365 1.327 . S
C363 C369 1.429 . S
C364 C356 1.574 . S
C364 H359 0.949 . S
C364 C370 1.368 . S
C365 C349 1.349 . S
C365 H357 0.950 . S
C365 C363 1.327 . S
C366 C354 1.349 . S
C366 H360 0.950 . S
C366 C367 1.327 . S
C367 H361 0.950 . S
C367 C366 1.327 . S
C367 C371 1.429 . S
C368 C351 1.574 . S
C368 H362 0.949 . S
C368 C372 1.368 . S
C369 C350 1.429 . S
C369 C363 1.429 . S
C369 C370 1.523 . S
C370 C351 1.368 . S
C370 C364 1.368 . S
C370 C369 1.523 . S
C371 C355 1.429 . S
C371 C367 1.429 . S
C371 C372 1.523 . S
C372 C356 1.368 . S
C372 C368 1.368 . S
C372 C371 1.523 . S
H373 C348 0.950 . S
H374 C350 0.950 . S
H375 C351 0.949 . S
H376 C353 0.950 . S
H377 C355 0.950 . S
C378 C379 1.349 . S
C378 C380 1.327 . S
C378 H403 0.950 . S
C379 C378 1.349 . S
C379 C395 1.349 . S
C380 C378 1.327 . S
C380 C399 1.429 . S
C380 H404 0.950 . S
C381 C398 1.574 . S
C381 C400 1.368 . S
C381 H405 0.949 . S
H382 C386 0.949 . S
C383 C384 1.349 . S
C383 C385 1.327 . S
C383 H406 0.950 . S
C384 C383 1.349 . S
C384 C396 1.349 . S
C385 C383 1.327 . S
C385 C401 1.429 . S
C385 H407 0.950 . S
C386 H382 0.949 . S
C386 C394 1.574 . S
C386 C402 1.368 . S
H387 C395 0.950 . S
H388 C393 0.950 . S
H389 C394 0.949 . S
H390 C396 0.950 . S
H391 C397 0.950 . S
H392 C398 0.949 . S
C393 H388 0.950 . S
C393 C395 1.327 . S
C393 C399 1.429 . S
C394 C386 1.574 . S
C394 H389 0.949 . S
C394 C400 1.368 . S
C395 C379 1.349 . S
C395 H387 0.950 . S
C395 C393 1.327 . S
C396 C384 1.349 . S
C396 H390 0.950 . S
C396 C397 1.327 . S
C397 H391 0.950 . S
C397 C396 1.327 . S
C397 C401 1.429 . S
C398 C381 1.574 . S
C398 H392 0.949 . S
C398 C402 1.368 . S
C399 C380 1.429 . S
C399 C393 1.429 . S
C399 C400 1.523 . S
C400 C381 1.368 . S
C400 C394 1.368 . S
C400 C399 1.523 . S
C401 C385 1.429 . S
C401 C397 1.429 . S
C401 C402 1.523 . S
C402 C386 1.368 . S
C402 C398 1.368 . S
C402 C401 1.523 . S
H403 C378 0.950 . S
H404 C380 0.950 . S
H405 C381 0.949 . S
H406 C383 0.950 . S
H407 C385 0.950 . S
C408 C409 1.349 . S
C408 C410 1.327 . S
C408 H433 0.950 . S
C409 C408 1.349 . S
C409 C425 1.349 . S
C410 C408 1.327 . S
C410 C429 1.429 . S
C410 H434 0.950 . S
C411 C428 1.574 . S
C411 C430 1.368 . S
C411 H435 0.949 . S
H412 C416 0.949 . S
C413 C414 1.349 . S
C413 C415 1.327 . S
C413 H436 0.950 . S
C414 C413 1.349 . S
C414 C426 1.349 . S
C415 C413 1.327 . S
C415 C431 1.429 . S
C415 H437 0.950 . S
C416 H412 0.949 . S
C416 C424 1.574 . S
C416 C432 1.368 . S
H417 C425 0.950 . S
H418 C423 0.950 . S
H419 C424 0.949 . S
H420 C426 0.950 . S
H421 C427 0.950 . S
H422 C428 0.949 . S
C423 H418 0.950 . S
C423 C425 1.327 . S
C423 C429 1.429 . S
C424 C416 1.574 . S
C424 H419 0.949 . S
C424 C430 1.368 . S
C425 C409 1.349 . S
C425 H417 0.950 . S
C425 C423 1.327 . S
C426 C414 1.349 . S
C426 H420 0.950 . S
C426 C427 1.327 . S
C427 H421 0.950 . S
C427 C426 1.327 . S
C427 C431 1.429 . S
C428 C411 1.574 . S
C428 H422 0.949 . S
C428 C432 1.368 . S
C429 C410 1.429 . S
C429 C423 1.429 . S
C429 C430 1.523 . S
C430 C411 1.368 . S
C430 C424 1.368 . S
C430 C429 1.523 . S
C431 C415 1.429 . S
C431 C427 1.429 . S
C431 C432 1.523 . S
C432 C416 1.368 . S
C432 C428 1.368 . S
C432 C431 1.523 . S
H433 C408 0.950 . S
H434 C410 0.950 . S
H435 C411 0.949 . S
H436 C413 0.950 . S
H437 C415 0.950 . S
C438 C439 1.349 . S
C438 C440 1.327 . S
C438 H463 0.950 . S
C439 C438 1.349 . S
C439 C455 1.349 . S
C440 C438 1.327 . S
C440 C459 1.429 . S
C440 H464 0.950 . S
C441 C458 1.574 . S
C441 C460 1.368 . S
C441 H465 0.949 . S
H442 C446 0.949 . S
C443 C444 1.349 . S
C443 C445 1.327 . S
C443 H466 0.950 . S
C444 C443 1.349 . S
C444 C456 1.349 . S
C445 C443 1.327 . S
C445 C461 1.429 . S
C445 H467 0.950 . S
C446 H442 0.949 . S
C446 C454 1.574 . S
C446 C462 1.368 . S
H447 C455 0.950 . S
H448 C453 0.950 . S
H449 C454 0.949 . S
H450 C456 0.950 . S
H451 C457 0.950 . S
H452 C458 0.949 . S
C453 H448 0.950 . S
C453 C455 1.327 . S
C453 C459 1.429 . S
C454 C446 1.574 . S
C454 H449 0.949 . S
C454 C460 1.368 . S
C455 C439 1.349 . S
C455 H447 0.950 . S
C455 C453 1.327 . S
C456 C444 1.349 . S
C456 H450 0.950 . S
C456 C457 1.327 . S
C457 H451 0.950 . S
C457 C456 1.327 . S
C457 C461 1.429 . S
C458 C441 1.574 . S
C458 H452 0.949 . S
C458 C462 1.368 . S
C459 C440 1.429 . S
C459 C453 1.429 . S
C459 C460 1.523 . S
C460 C441 1.368 . S
C460 C454 1.368 . S
C460 C459 1.523 . S
C461 C445 1.429 . S
C461 C457 1.429 . S
C461 C462 1.523 . S
C462 C446 1.368 . S
C462 C458 1.368 . S
C462 C461 1.523 . S
H463 C438 0.950 . S
H464 C440 0.950 . S
H465 C441 0.949 . S
H466 C443 0.950 . S
H467 C445 0.950 . S
C468 C469 1.349 . S
C468 C470 1.327 . S
C468 H493 0.950 . S
C469 C468 1.349 . S
C469 C485 1.349 . S
C470 C468 1.327 . S
C470 C489 1.429 . S
C470 H494 0.950 . S
C471 C488 1.574 . S
C471 C490 1.368 . S
C471 H495 0.949 . S
H472 C476 0.949 . S
C473 C474 1.349 . S
C473 C475 1.327 . S
C473 H496 0.950 . S
C474 C473 1.349 . S
C474 C486 1.349 . S
C475 C473 1.327 . S
C475 C491 1.429 . S
C475 H497 0.950 . S
C476 H472 0.949 . S
C476 C484 1.574 . S
C476 C492 1.368 . S
H477 C485 0.950 . S
H478 C483 0.950 . S
H479 C484 0.949 . S
H480 C486 0.950 . S
H481 C487 0.950 . S
H482 C488 0.949 . S
C483 H478 0.950 . S
C483 C485 1.327 . S
C483 C489 1.429 . S
C484 C476 1.574 . S
C484 H479 0.949 . S
C484 C490 1.368 . S
C485 C469 1.349 . S
C485 H477 0.950 . S
C485 C483 1.327 . S
C486 C474 1.349 . S
C486 H480 0.950 . S
C486 C487 1.327 . S
C487 H481 0.950 . S
C487 C486 1.327 . S
C487 C491 1.429 . S
C488 C471 1.574 . S
C488 H482 0.949 . S
C488 C492 1.368 . S
C489 C470 1.429 . S
C489 C483 1.429 . S
C489 C490 1.523 . S
C490 C471 1.368 . S
C490 C484 1.368 . S
C490 C489 1.523 . S
C491 C475 1.429 . S
C491 C487 1.429 . S
C491 C492 1.523 . S
C492 C476 1.368 . S
C492 C488 1.368 . S
C492 C491 1.523 . S
H493 C468 0.950 . S
H494 C470 0.950 . S
H495 C471 0.949 . S
H496 C473 0.950 . S
H497 C475 0.950 . S
C498 C499 1.349 . S
C498 C500 1.327 . S
C498 H523 0.950 . S
C499 C498 1.349 . S
C499 C515 1.349 . S
C500 C498 1.327 . S
C500 C519 1.429 . S
C500 H524 0.950 . S
C501 C518 1.574 . S
C501 C520 1.368 . S
C501 H525 0.949 . S
H502 C506 0.949 . S
C503 C504 1.349 . S
C503 C505 1.327 . S
C503 H526 0.950 . S
C504 C503 1.349 . S
C504 C516 1.349 . S
C505 C503 1.327 . S
C505 C521 1.429 . S
C505 H527 0.950 . S
C506 H502 0.949 . S
C506 C514 1.574 . S
C506 C522 1.368 . S
H507 C515 0.950 . S
H508 C513 0.950 . S
H509 C514 0.949 . S
H510 C516 0.950 . S
H511 C517 0.950 . S
H512 C518 0.949 . S
C513 H508 0.950 . S
C513 C515 1.327 . S
C513 C519 1.429 . S
C514 C506 1.574 . S
C514 H509 0.949 . S
C514 C520 1.368 . S
C515 C499 1.349 . S
C515 H507 0.950 . S
C515 C513 1.327 . S
C516 C504 1.349 . S
C516 H510 0.950 . S
C516 C517 1.327 . S
C517 H511 0.950 . S
C517 C516 1.327 . S
C517 C521 1.429 . S
C518 C501 1.574 . S
C518 H512 0.949 . S
C518 C522 1.368 . S
C519 C500 1.429 . S
C519 C513 1.429 . S
C519 C520 1.523 . S
C520 C501 1.368 . S
C520 C514 1.368 . S
C520 C519 1.523 . S
C521 C505 1.429 . S
C521 C517 1.429 . S
C521 C522 1.523 . S
C522 C506 1.368 . S
C522 C518 1.368 . S
C522 C521 1.523 . S
H523 C498 0.950 . S
H524 C500 0.950 . S
H525 C501 0.949 . S
H526 C503 0.950 . S
H527 C505 0.950 . S
C528 C529 1.349 . S
C528 C530 1.327 . S
C528 H553 0.950 . S
C529 C528 1.349 . S
C529 C545 1.349 . S
C530 C528 1.327 . S
C530 C549 1.429 . S
C530 H554 0.950 . S
C531 C548 1.574 . S
C531 C550 1.368 . S
C531 H555 0.949 . S
H532 C536 0.949 . S
C533 C534 1.349 . S
C533 C535 1.327 . S
C533 H556 0.950 . S
C534 C533 1.349 . S
C534 C546 1.349 . S
C535 C533 1.327 . S
C535 C551 1.429 . S
C535 H557 0.950 . S
C536 H532 0.949 . S
C536 C544 1.574 . S
C536 C552 1.368 . S
H537 C545 0.950 . S
H538 C543 0.950 . S
H539 C544 0.949 . S
H540 C546 0.950 . S
H541 C547 0.950 . S
H542 C548 0.949 . S
C543 H538 0.950 . S
C543 C545 1.327 . S
C543 C549 1.429 . S
C544 C536 1.574 . S
C544 H539 0.949 . S
C544 C550 1.368 . S
C545 C529 1.349 . S
C545 H537 0.950 . S
C545 C543 1.327 . S
C546 C534 1.349 . S
C546 H540 0.950 . S
C546 C547 1.327 . S
C547 H541 0.950 . S
C547 C546 1.327 . S
C547 C551 1.429 . S
C548 C531 1.574 . S
C548 H542 0.949 . S
C548 C552 1.368 . S
C549 C530 1.429 . S
C549 C543 1.429 . S
C549 C550 1.523 . S
C550 C531 1.368 . S
C550 C544 1.368 . S
C550 C549 1.523 . S
C551 C535 1.429 . S
C551 C547 1.429 . S
C551 C552 1.523 . S
C552 C536 1.368 . S
C552 C548 1.368 . S
C552 C551 1.523 . S
H553 C528 0.950 . S
H554 C530 0.950 . S
H555 C531 0.949 . S
H556 C533 0.950 . S
H557 C535 0.950 . S
C558 C559 1.349 . S
C558 C560 1.327 . S
C558 H583 0.950 . S
C559 C558 1.349 . S
C559 C575 1.349 . S
C560 C558 1.327 . S
C560 C579 1.429 . S
C560 H584 0.950 . S
C561 C578 1.574 . S
C561 C580 1.368 . S
C561 H585 0.949 . S
H562 C566 0.949 . S
C563 C564 1.349 . S
C563 C565 1.327 . S
C563 H586 0.950 . S
C564 C563 1.349 . S
C564 C576 1.349 . S
C565 C563 1.327 . S
C565 C581 1.429 . S
C565 H587 0.950 . S
C566 H562 0.949 . S
C566 C574 1.574 . S
C566 C582 1.368 . S
H567 C575 0.950 . S
H568 C573 0.950 . S
H569 C574 0.949 . S
H570 C576 0.950 . S
H571 C577 0.950 . S
H572 C578 0.949 . S
C573 H568 0.950 . S
C573 C575 1.327 . S
C573 C579 1.429 . S
C574 C566 1.574 . S
C574 H569 0.949 . S
C574 C580 1.368 . S
C575 C559 1.349 . S
C575 H567 0.950 . S
C575 C573 1.327 . S
C576 C564 1.349 . S
C576 H570 0.950 . S
C576 C577 1.327 . S
C577 H571 0.950 . S
C577 C576 1.327 . S
C577 C581 1.429 . S
C578 C561 1.574 . S
C578 H572 0.949 . S
C578 C582 1.368 . S
C579 C560 1.429 . S
C579 C573 1.429 . S
C579 C580 1.523 . S
C580 C561 1.368 . S
C580 C574 1.368 . S
C580 C579 1.523 . S
C581 C565 1.429 . S
C581 C577 1.429 . S
C581 C582 1.523 . S
C582 C566 1.368 . S
C582 C578 1.368 . S
C582 C581 1.523 . S
H583 C558 0.950 . S
H584 C560 0.950 . S
H585 C561 0.949 . S
H586 C563 0.950 . S
H587 C565 0.950 . S
C588 C589 1.349 . S
C588 C590 1.327 . S
C588 H613 0.950 . S
C589 C588 1.349 . S
C589 C605 1.349 . S
C590 C588 1.327 . S
C590 C609 1.429 . S
C590 H614 0.950 . S
C591 C608 1.574 . S
C591 C610 1.368 . S
C591 H615 0.949 . S
H592 C596 0.949 . S
C593 C594 1.349 . S
C593 C595 1.327 . S
C593 H616 0.950 . S
C594 C593 1.349 . S
C594 C606 1.349 . S
C595 C593 1.327 . S
C595 C611 1.429 . S
C595 H617 0.950 . S
C596 H592 0.949 . S
C596 C604 1.574 . S
C596 C612 1.368 . S
H597 C605 0.950 . S
H598 C603 0.950 . S
H599 C604 0.949 . S
H600 C606 0.950 . S
H601 C607 0.950 . S
H602 C608 0.949 . S
C603 H598 0.950 . S
C603 C605 1.327 . S
C603 C609 1.429 . S
C604 C596 1.574 . S
C604 H599 0.949 . S
C604 C610 1.368 . S
C605 C589 1.349 . S
C605 H597 0.950 . S
C605 C603 1.327 . S
C606 C594 1.349 . S
C606 H600 0.950 . S
C606 C607 1.327 . S
C607 H601 0.950 . S
C607 C606 1.327 . S
C607 C611 1.429 . S
C608 C591 1.574 . S
C608 H602 0.949 . S
C608 C612 1.368 . S
C609 C590 1.429 . S
C609 C603 1.429 . S
C609 C610 1.523 . S
C610 C591 1.368 . S
C610 C604 1.368 . S
C610 C609 1.523 . S
C611 C595 1.429 . S
C611 C607 1.429 . S
C611 C612 1.523 . S
C612 C596 1.368 . S
C612 C608 1.368 . S
C612 C611 1.523 . S
H613 C588 0.950 . S
H614 C590 0.950 . S
H615 C591 0.949 . S
H616 C593 0.950 . S
H617 C595 0.950 . S
C618 C619 1.349 . S
C618 C620 1.327 . S
C618 H643 0.950 . S
C619 C618 1.349 . S
C619 C635 1.349 . S
C620 C618 1.327 . S
C620 C639 1.429 . S
C620 H644 0.950 . S
C621 C638 1.574 . S
C621 C640 1.368 . S
C621 H645 0.949 . S
H622 C626 0.949 . S
C623 C624 1.349 . S
C623 C625 1.327 . S
C623 H646 0.950 . S
C624 C623 1.349 . S
C624 C636 1.349 . S
C625 C623 1.327 . S
C625 C641 1.429 . S
C625 H647 0.950 . S
C626 H622 0.949 . S
C626 C634 1.574 . S
C626 C642 1.368 . S
H627 C635 0.950 . S
H628 C633 0.950 . S
H629 C634 0.949 . S
H630 C636 0.950 . S
H631 C637 0.950 . S
H632 C638 0.949 . S
C633 H628 0.950 . S
C633 C635 1.327 . S
C633 C639 1.429 . S
C634 C626 1.574 . S
C634 H629 0.949 . S
C634 C640 1.368 . S
C635 C619 1.349 . S
C635 H627 0.950 . S
C635 C633 1.327 . S
C636 C624 1.349 . S
C636 H630 0.950 . S
C636 C637 1.327 . S
C637 H631 0.950 . S
C637 C636 1.327 . S
C637 C641 1.429 . S
C638 C621 1.574 . S
C638 H632 0.949 . S
C638 C642 1.368 . S
C639 C620 1.429 . S
C639 C633 1.429 . S
C639 C640 1.523 . S
C640 C621 1.368 . S
C640 C634 1.368 . S
C640 C639 1.523 . S
C641 C625 1.429 . S
C641 C637 1.429 . S
C641 C642 1.523 . S
C642 C626 1.368 . S
C642 C638 1.368 . S
C642 C641 1.523 . S
H643 C618 0.950 . S
H644 C620 0.950 . S
H645 C621 0.949 . S
H646 C623 0.950 . S
H647 C625 0.950 . S
C648 C649 1.349 . S
C648 C650 1.327 . S
C648 H673 0.950 . S
C649 C648 1.349 . S
C649 C665 1.349 . S
C650 C648 1.327 . S
C650 C669 1.429 . S
C650 H674 0.950 . S
C651 C668 1.574 . S
C651 C670 1.368 . S
C651 H675 0.949 . S
H652 C656 0.949 . S
C653 C654 1.349 . S
C653 C655 1.327 . S
C653 H676 0.950 . S
C654 C653 1.349 . S
C654 C666 1.349 . S
C655 C653 1.327 . S
C655 C671 1.429 . S
C655 H677 0.950 . S
C656 H652 0.949 . S
C656 C664 1.574 . S
C656 C672 1.368 . S
H657 C665 0.950 . S
H658 C663 0.950 . S
H659 C664 0.949 . S
H660 C666 0.950 . S
H661 C667 0.950 . S
H662 C668 0.949 . S
C663 H658 0.950 . S
C663 C665 1.327 . S
C663 C669 1.429 . S
C664 C656 1.574 . S
C664 H659 0.949 . S
C664 C670 1.368 . S
C665 C649 1.349 . S
C665 H657 0.950 . S
C665 C663 1.327 . S
C666 C654 1.349 . S
C666 H660 0.950 . S
C666 C667 1.327 . S
C667 H661 0.950 . S
C667 C666 1.327 . S
C667 C671 1.429 . S
C668 C651 1.574 . S
C668 H662 0.949 . S
C668 C672 1.368 . S
C669 C650 1.429 . S
C669 C663 1.429 . S
C669 C670 1.523 . S
C670 C651 1.368 . S
C670 C664 1.368 . S
C670 C669 1.523 . S
C671 C655 1.429 . S
C671 C667 1.429 . S
C671 C672 1.523 . S
C672 C656 1.368 . S
C672 C668 1.368 . S
C672 C671 1.523 . S
H673 C648 0.950 . S
H674 C650 0.950 . S
H675 C651 0.949 . S
H676 C653 0.950 . S
H677 C655 0.950 . S
C678 C679 1.349 . S
C678 C680 1.327 . S
C678 H703 0.950 . S
C679 C678 1.349 . S
C679 C695 1.349 . S
C680 C678 1.327 . S
C680 C699 1.429 . S
C680 H704 0.950 . S
C681 C698 1.574 . S
C681 C700 1.368 . S
C681 H705 0.949 . S
H682 C686 0.949 . S
C683 C684 1.349 . S
C683 C685 1.327 . S
C683 H706 0.950 . S
C684 C683 1.349 . S
C684 C696 1.349 . S
C685 C683 1.327 . S
C685 C701 1.429 . S
C685 H707 0.950 . S
C686 H682 0.949 . S
C686 C694 1.574 . S
C686 C702 1.368 . S
H687 C695 0.950 . S
H688 C693 0.950 . S
H689 C694 0.949 . S
H690 C696 0.950 . S
H691 C697 0.950 . S
H692 C698 0.949 . S
C693 H688 0.950 . S
C693 C695 1.327 . S
C693 C699 1.429 . S
C694 C686 1.574 . S
C694 H689 0.949 . S
C694 C700 1.368 . S
C695 C679 1.349 . S
C695 H687 0.950 . S
C695 C693 1.327 . S
C696 C684 1.349 . S
C696 H690 0.950 . S
C696 C697 1.327 . S
C697 H691 0.950 . S
C697 C696 1.327 . S
C697 C701 1.429 . S
C698 C681 1.574 . S
C698 H692 0.949 . S
C698 C702 1.368 . S
C699 C680 1.429 . S
C699 C693 1.429 . S
C699 C700 1.523 . S
C700 C681 1.368 . S
C700 C694 1.368 . S
C700 C699 1.523 . S
C701 C685 1.429 . S
C701 C697 1.429 . S
C701 C702 1.523 . S
C702 C686 1.368 . S
C702 C698 1.368 . S
C702 C701 1.523 . S
H703 C678 0.950 . S
H704 C680 0.950 . S
H705 C681 0.949 . S
H706 C683 0.950 . S
H707 C685 0.950 . S
C708 C709 1.349 . S
C708 C710 1.327 . S
C708 H733 0.950 . S
C709 C708 1.349 . S
C709 C725 1.349 . S
C710 C708 1.327 . S
C710 C729 1.429 . S
C710 H734 0.950 . S
C711 C728 1.574 1_545 S
C711 C730 1.368 . S
C711 H735 0.949 . S
H712 C716 0.949 . S
C713 C714 1.349 . S
C713 C715 1.327 . S
C713 H736 0.950 . S
C714 C713 1.349 . S
C714 C726 1.349 . S
C715 C713 1.327 . S
C715 C731 1.429 . S
C715 H737 0.950 . S
C716 H712 0.949 . S
C716 C724 1.574 1_565 S
C716 C732 1.368 . S
H717 C725 0.950 . S
H718 C723 0.950 . S
H719 C724 0.949 . S
H720 C726 0.950 . S
H721 C727 0.950 . S
H722 C728 0.949 . S
C723 H718 0.950 . S
C723 C725 1.327 . S
C723 C729 1.429 . S
C724 C716 1.574 1_545 S
C724 H719 0.949 . S
C724 C730 1.368 1_655 S
C725 C709 1.349 . S
C725 H717 0.950 . S
C725 C723 1.327 . S
C726 C714 1.349 . S
C726 H720 0.950 . S
C726 C727 1.327 . S
C727 H721 0.950 . S
C727 C726 1.327 . S
C727 C731 1.429 . S
C728 C711 1.574 1_565 S
C728 H722 0.949 . S
C728 C732 1.368 1_455 S
C729 C710 1.429 . S
C729 C723 1.429 . S
C729 C730 1.523 . S
C730 C711 1.368 . S
C730 C724 1.368 1_455 S
C730 C729 1.523 . S
C731 C715 1.429 . S
C731 C727 1.429 . S
C731 C732 1.523 . S
C732 C716 1.368 . S
C732 C728 1.368 1_655 S
C732 C731 1.523 . S
H733 C708 0.950 . S
H734 C710 0.950 . S
H735 C711 0.949 . S
H736 C713 0.950 . S
H737 C715 0.950 . S
C738 C739 1.349 . S
C738 C740 1.327 . S
C738 H763 0.950 . S
C739 C738 1.349 . S
C739 C755 1.349 . S
C740 C738 1.327 . S
C740 C759 1.429 . S
C740 H764 0.950 . S
C741 C758 1.574 1_545 S
C741 C760 1.368 1_455 S
C741 H765 0.949 . S
H742 C746 0.949 . S
C743 C744 1.349 . S
C743 C745 1.327 . S
C743 H766 0.950 . S
C744 C743 1.349 . S
C744 C756 1.349 . S
C745 C743 1.327 . S
C745 C761 1.429 . S
C745 H767 0.950 . S
C746 H742 0.949 . S
C746 C754 1.574 1_565 S
C746 C762 1.368 1_655 S
H747 C755 0.950 . S
H748 C753 0.950 . S
H749 C754 0.949 . S
H750 C756 0.950 . S
H751 C757 0.950 . S
H752 C758 0.949 . S
C753 H748 0.950 . S
C753 C755 1.327 . S
C753 C759 1.429 . S
C754 C746 1.574 1_545 S
C754 H749 0.949 . S
C754 C760 1.368 . S
C755 C739 1.349 . S
C755 H747 0.950 . S
C755 C753 1.327 . S
C756 C744 1.349 . S
C756 H750 0.950 . S
C756 C757 1.327 . S
C757 H751 0.950 . S
C757 C756 1.327 . S
C757 C761 1.429 . S
C758 C741 1.574 1_565 S
C758 H752 0.949 . S
C758 C762 1.368 . S
C759 C740 1.429 . S
C759 C753 1.429 . S
C759 C760 1.523 . S
C760 C741 1.368 1_655 S
C760 C754 1.368 . S
C760 C759 1.523 . S
C761 C745 1.429 . S
C761 C757 1.429 . S
C761 C762 1.523 . S
C762 C746 1.368 1_455 S
C762 C758 1.368 . S
C762 C761 1.523 . S
H763 C738 0.950 . S
H764 C740 0.950 . S
H765 C741 0.949 . S
H766 C743 0.950 . S
H767 C745 0.950 . S
C768 C769 1.349 . S
C768 C770 1.327 . S
C768 H793 0.950 . S
C769 C768 1.349 . S
C769 C785 1.349 . S
C770 C768 1.327 . S
C770 C789 1.429 . S
C770 H794 0.950 1_565 S
C771 C788 1.574 1_556 S
C771 C790 1.368 . S
C771 H795 0.949 . S
H772 C776 0.949 . S
C773 C774 1.349 . S
C773 C775 1.327 . S
C773 H796 0.950 . S
C774 C773 1.349 . S
C774 C786 1.349 . S
C775 C773 1.327 . S
C775 C791 1.429 . S
C775 H797 0.950 1_545 S
C776 H772 0.949 . S
C776 C784 1.574 1_554 S
C776 C792 1.368 . S
H777 C785 0.950 . S
H778 C783 0.950 . S
H779 C784 0.949 . S
H780 C786 0.950 . S
H781 C787 0.950 . S
H782 C788 0.949 . S
C783 H778 0.950 . S
C783 C785 1.327 . S
C783 C789 1.429 . S
C784 C776 1.574 1_556 S
C784 H779 0.949 . S
C784 C790 1.368 1_545 S
C785 C769 1.349 . S
C785 H777 0.950 . S
C785 C783 1.327 . S
C786 C774 1.349 . S
C786 H780 0.950 . S
C786 C787 1.327 . S
C787 H781 0.950 . S
C787 C786 1.327 . S
C787 C791 1.429 . S
C788 C771 1.574 1_554 S
C788 H782 0.949 . S
C788 C792 1.368 1_565 S
C789 C770 1.429 . S
C789 C783 1.429 . S
C789 C790 1.523 . S
C790 C771 1.368 . S
C790 C784 1.368 1_565 S
C790 C789 1.523 . S
C791 C775 1.429 . S
C791 C787 1.429 . S
C791 C792 1.523 . S
C792 C776 1.368 . S
C792 C788 1.368 1_545 S
C792 C791 1.523 . S
H793 C768 0.950 . S
H794 C770 0.950 1_545 S
H795 C771 0.949 . S
H796 C773 0.950 . S
H797 C775 0.950 1_565 S
C798 C799 1.349 . S
C798 C800 1.327 . S
C798 H823 0.950 . S
C799 C798 1.349 . S
C799 C815 1.349 . S
C800 C798 1.327 . S
C800 C819 1.429 . S
C800 H824 0.950 1_565 S
C801 C818 1.574 1_554 S
C801 C820 1.368 . S
C801 H825 0.949 . S
H802 C806 0.949 . S
C803 C804 1.349 . S
C803 C805 1.327 . S
C803 H826 0.950 . S
C804 C803 1.349 . S
C804 C816 1.349 . S
C805 C803 1.327 . S
C805 C821 1.429 . S
C805 H827 0.950 1_545 S
C806 H802 0.949 . S
C806 C814 1.574 1_556 S
C806 C822 1.368 . S
H807 C815 0.950 . S
H808 C813 0.950 . S
H809 C814 0.949 . S
H810 C816 0.950 . S
H811 C817 0.950 . S
H812 C818 0.949 . S
C813 H808 0.950 . S
C813 C815 1.327 . S
C813 C819 1.429 . S
C814 C806 1.574 1_554 S
C814 H809 0.949 . S
C814 C820 1.368 1_545 S
C815 C799 1.349 . S
C815 H807 0.950 . S
C815 C813 1.327 . S
C816 C804 1.349 . S
C816 H810 0.950 . S
C816 C817 1.327 . S
C817 H811 0.950 . S
C817 C816 1.327 . S
C817 C821 1.429 . S
C818 C801 1.574 1_556 S
C818 H812 0.949 . S
C818 C822 1.368 1_565 S
C819 C800 1.429 . S
C819 C813 1.429 . S
C819 C820 1.523 . S
C820 C801 1.368 . S
C820 C814 1.368 1_565 S
C820 C819 1.523 . S
C821 C805 1.429 . S
C821 C817 1.429 . S
C821 C822 1.523 . S
C822 C806 1.368 . S
C822 C818 1.368 1_545 S
C822 C821 1.523 . S
H823 C798 0.950 . S
H824 C800 0.950 1_545 S
H825 C801 0.949 . S
H826 C803 0.950 . S
H827 C805 0.950 1_565 S
C828 C829 1.349 . S
C828 C830 1.327 . S
C828 H853 0.950 . S
C829 C828 1.349 . S
C829 C845 1.349 . S
C830 C828 1.327 . S
C830 C849 1.429 . S
C830 H854 0.950 . S
C831 C848 1.574 1_655 S
C831 C850 1.368 1_554 S
C831 H855 0.949 . S
H832 C836 0.949 . S
C833 C834 1.349 . S
C833 C835 1.327 . S
C833 H856 0.950 . S
C834 C833 1.349 . S
C834 C846 1.349 . S
C835 C833 1.327 . S
C835 C851 1.429 . S
C835 H857 0.950 . S
C836 H832 0.949 . S
C836 C844 1.574 1_455 S
C836 C852 1.368 1_556 S
H837 C845 0.950 . S
H838 C843 0.950 . S
H839 C844 0.949 . S
H840 C846 0.950 . S
H841 C847 0.950 . S
H842 C848 0.949 . S
C843 H838 0.950 . S
C843 C845 1.327 . S
C843 C849 1.429 . S
C844 C836 1.574 1_655 S
C844 H839 0.949 . S
C844 C850 1.368 . S
C845 C829 1.349 . S
C845 H837 0.950 . S
C845 C843 1.327 . S
C846 C834 1.349 . S
C846 H840 0.950 . S
C846 C847 1.327 . S
C847 H841 0.950 . S
C847 C846 1.327 . S
C847 C851 1.429 . S
C848 C831 1.574 1_455 S
C848 H842 0.949 . S
C848 C852 1.368 . S
C849 C830 1.429 . S
C849 C843 1.429 . S
C849 C850 1.523 . S
C850 C831 1.368 1_556 S
C850 C844 1.368 . S
C850 C849 1.523 . S
C851 C835 1.429 . S
C851 C847 1.429 . S
C851 C852 1.523 . S
C852 C836 1.368 1_554 S
C852 C848 1.368 . S
C852 C851 1.523 . S
H853 C828 0.950 . S
H854 C830 0.950 . S
H855 C831 0.949 . S
H856 C833 0.950 . S
H857 C835 0.950 . S
C858 C859 1.349 . S
C858 C860 1.327 . S
C858 H883 0.950 . S
C859 C858 1.349 . S
C859 C875 1.349 . S
C860 C858 1.327 . S
C860 C879 1.429 . S
C860 H884 0.950 . S
C861 C878 1.574 1_455 S
C861 C880 1.368 1_554 S
C861 H885 0.949 . S
H862 C866 0.949 . S
C863 C864 1.349 . S
C863 C865 1.327 . S
C863 H886 0.950 . S
C864 C863 1.349 . S
C864 C876 1.349 . S
C865 C863 1.327 . S
C865 C881 1.429 . S
C865 H887 0.950 . S
C866 H862 0.949 . S
C866 C874 1.574 1_655 S
C866 C882 1.368 1_556 S
H867 C875 0.950 . S
H868 C873 0.950 . S
H869 C874 0.949 . S
H870 C876 0.950 . S
H871 C877 0.950 . S
H872 C878 0.949 . S
C873 H868 0.950 . S
C873 C875 1.327 . S
C873 C879 1.429 . S
C874 C866 1.574 1_455 S
C874 H869 0.949 . S
C874 C880 1.368 . S
C875 C859 1.349 . S
C875 H867 0.950 . S
C875 C873 1.327 . S
C876 C864 1.349 . S
C876 H870 0.950 . S
C876 C877 1.327 . S
C877 H871 0.950 . S
C877 C876 1.327 . S
C877 C881 1.429 . S
C878 C861 1.574 1_655 S
C878 H872 0.949 . S
C878 C882 1.368 . S
C879 C860 1.429 . S
C879 C873 1.429 . S
C879 C880 1.523 . S
C880 C861 1.368 1_556 S
C880 C874 1.368 . S
C880 C879 1.523 . S
C881 C865 1.429 . S
C881 C877 1.429 . S
C881 C882 1.523 . S
C882 C866 1.368 1_554 S
C882 C878 1.368 . S
C882 C881 1.523 . S
H883 C858 0.950 . S
H884 C860 0.950 . S
H885 C861 0.949 . S
H886 C863 0.950 . S
H887 C865 0.950 . S
C169 C48 0.924 . S
C174 C6 0.924 . S
C199 C34 0.924 . S
C204 C20 0.924 . S
C229 C76 0.924 . S
C234 C62 0.924 . S
C259 C90 0.924 . S
C264 C104 0.924 . S
C289 C132 0.924 . S
C294 C118 0.924 . S
C319 C146 0.924 . S
C324 C160 0.924 . S
C349 C9 0.935 . S
C354 C105 0.900 . S
C379 C91 0.900 . S
C384 C23 0.935 . S
C409 C77 0.900 . S
C414 C37 0.935 . S
C439 C63 0.900 . S
C444 C51 0.935 . S
C469 C65 0.935 . S
C474 C161 0.900 . S
C499 C119 0.900 . S
C504 C79 0.935 . S
C529 C147 0.900 . S
C534 C93 0.935 . S
C559 C107 0.935 . S
C564 C133 0.900 . S
C589 C35 0.900 . S
C594 C121 0.935 . S
C619 C7 0.900 . S
C624 C135 0.935 . S
C649 C149 0.935 . S
C654 C21 0.900 . S
C679 C49 0.900 . S
C684 C163 0.935 . S
C709 C8 1.455 . S
C714 C22 1.455 . S
C739 C50 1.455 . S
C744 C36 1.455 . S
C769 C92 1.455 . S
C774 C64 1.455 . S
C799 C78 1.455 . S
C804 C106 1.455 . S
C829 C148 1.455 . S
C834 C120 1.455 . S
C859 C134 1.455 . S
C864 C162 1.455 . S
