# Generated by pormake.
# Topology rho, (4)-cn, num edge types: 1
# Building blocks:
#     Node 0, Type 0, BuildingBlock: CEKHIL_clean_sbu_0, # of connection points: 4
#     Node 1, Type 0, BuildingBlock: CEKHIL_clean_sbu_0, # of connection points: 4
#     Node 2, Type 0, BuildingBlock: CEKHIL_clean_sbu_0, # of connection points: 4
#     Node 3, Type 0, BuildingBlock: CEKHIL_clean_sbu_0, # of connection points: 4
#     Node 4, Type 0, BuildingBlock: CEKHIL_clean_sbu_0, # of connection points: 4
#     Node 5, Type 0, BuildingBlock: CEKHIL_clean_sbu_0, # of connection points: 4
#     Node 6, Type 0, BuildingBlock: CEKHIL_clean_sbu_0, # of connection points: 4
#     Node 7, Type 0, BuildingBlock: CEKHIL_clean_sbu_0, # of connection points: 4
#     Node 8, Type 0, BuildingBlock: CEKHIL_clean_sbu_0, # of connection points: 4
#     Node 9, Type 0, BuildingBlock: CEKHIL_clean_sbu_0, # of connection points: 4
#     Node 10, Type 0, BuildingBlock: CEKHIL_clean_sbu_0, # of connection points: 4
#     Node 11, Type 0, BuildingBlock: CEKHIL_clean_sbu_0, # of connection points: 4
#     Node 12, Type 0, BuildingBlock: CEKHIL_clean_sbu_0, # of connection points: 4
#     Node 13, Type 0, BuildingBlock: CEKHIL_clean_sbu_0, # of connection points: 4
#     Node 14, Type 0, BuildingBlock: CEKHIL_clean_sbu_0, # of connection points: 4
#     Node 15, Type 0, BuildingBlock: CEKHIL_clean_sbu_0, # of connection points: 4
#     Node 16, Type 0, BuildingBlock: CEKHIL_clean_sbu_0, # of connection points: 4
#     Node 17, Type 0, BuildingBlock: CEKHIL_clean_sbu_0, # of connection points: 4
#     Node 18, Type 0, BuildingBlock: CEKHIL_clean_sbu_0, # of connection points: 4
#     Node 19, Type 0, BuildingBlock: CEKHIL_clean_sbu_0, # of connection points: 4
#     Node 20, Type 0, BuildingBlock: CEKHIL_clean_sbu_0, # of connection points: 4
#     Node 21, Type 0, BuildingBlock: CEKHIL_clean_sbu_0, # of connection points: 4
#     Node 22, Type 0, BuildingBlock: CEKHIL_clean_sbu_0, # of connection points: 4
#     Node 23, Type 0, BuildingBlock: CEKHIL_clean_sbu_0, # of connection points: 4
#     Node 24, Type 0, BuildingBlock: CEKHIL_clean_sbu_0, # of connection points: 4
#     Node 25, Type 0, BuildingBlock: CEKHIL_clean_sbu_0, # of connection points: 4
#     Node 26, Type 0, BuildingBlock: CEKHIL_clean_sbu_0, # of connection points: 4
#     Node 27, Type 0, BuildingBlock: CEKHIL_clean_sbu_0, # of connection points: 4
#     Node 28, Type 0, BuildingBlock: CEKHIL_clean_sbu_0, # of connection points: 4
#     Node 29, Type 0, BuildingBlock: CEKHIL_clean_sbu_0, # of connection points: 4
#     Node 30, Type 0, BuildingBlock: CEKHIL_clean_sbu_0, # of connection points: 4
#     Node 31, Type 0, BuildingBlock: CEKHIL_clean_sbu_0, # of connection points: 4
#     Node 32, Type 0, BuildingBlock: CEKHIL_clean_sbu_0, # of connection points: 4
#     Node 33, Type 0, BuildingBlock: CEKHIL_clean_sbu_0, # of connection points: 4
#     Node 34, Type 0, BuildingBlock: CEKHIL_clean_sbu_0, # of connection points: 4
#     Node 35, Type 0, BuildingBlock: CEKHIL_clean_sbu_0, # of connection points: 4
#     Node 36, Type 0, BuildingBlock: CEKHIL_clean_sbu_0, # of connection points: 4
#     Node 37, Type 0, BuildingBlock: CEKHIL_clean_sbu_0, # of connection points: 4
#     Node 38, Type 0, BuildingBlock: CEKHIL_clean_sbu_0, # of connection points: 4
#     Node 39, Type 0, BuildingBlock: CEKHIL_clean_sbu_0, # of connection points: 4
#     Node 40, Type 0, BuildingBlock: CEKHIL_clean_sbu_0, # of connection points: 4
#     Node 41, Type 0, BuildingBlock: CEKHIL_clean_sbu_0, # of connection points: 4
#     Node 42, Type 0, BuildingBlock: CEKHIL_clean_sbu_0, # of connection points: 4
#     Node 43, Type 0, BuildingBlock: CEKHIL_clean_sbu_0, # of connection points: 4
#     Node 44, Type 0, BuildingBlock: CEKHIL_clean_sbu_0, # of connection points: 4
#     Node 45, Type 0, BuildingBlock: CEKHIL_clean_sbu_0, # of connection points: 4
#     Node 46, Type 0, BuildingBlock: CEKHIL_clean_sbu_0, # of connection points: 4
#     Node 47, Type 0, BuildingBlock: CEKHIL_clean_sbu_0, # of connection points: 4
#     Edge 48, Type (0, 0), BuildingBlock: OJICUG_clean_linker_0, # of connection points: 2
#     Edge 49, Type (0, 0), BuildingBlock: OJICUG_clean_linker_0, # of connection points: 2
#     Edge 50, Type (0, 0), BuildingBlock: OJICUG_clean_linker_0, # of connection points: 2
#     Edge 51, Type (0, 0), BuildingBlock: OJICUG_clean_linker_0, # of connection points: 2
#     Edge 52, Type (0, 0), BuildingBlock: OJICUG_clean_linker_0, # of connection points: 2
#     Edge 53, Type (0, 0), BuildingBlock: OJICUG_clean_linker_0, # of connection points: 2
#     Edge 54, Type (0, 0), BuildingBlock: OJICUG_clean_linker_0, # of connection points: 2
#     Edge 55, Type (0, 0), BuildingBlock: OJICUG_clean_linker_0, # of connection points: 2
#     Edge 56, Type (0, 0), BuildingBlock: OJICUG_clean_linker_0, # of connection points: 2
#     Edge 57, Type (0, 0), BuildingBlock: OJICUG_clean_linker_0, # of connection points: 2
#     Edge 58, Type (0, 0), BuildingBlock: OJICUG_clean_linker_0, # of connection points: 2
#     Edge 59, Type (0, 0), BuildingBlock: OJICUG_clean_linker_0, # of connection points: 2
#     Edge 60, Type (0, 0), BuildingBlock: OJICUG_clean_linker_0, # of connection points: 2
#     Edge 61, Type (0, 0), BuildingBlock: OJICUG_clean_linker_0, # of connection points: 2
#     Edge 62, Type (0, 0), BuildingBlock: OJICUG_clean_linker_0, # of connection points: 2
#     Edge 63, Type (0, 0), BuildingBlock: OJICUG_clean_linker_0, # of connection points: 2
#     Edge 64, Type (0, 0), BuildingBlock: OJICUG_clean_linker_0, # of connection points: 2
#     Edge 65, Type (0, 0), BuildingBlock: OJICUG_clean_linker_0, # of connection points: 2
#     Edge 66, Type (0, 0), BuildingBlock: OJICUG_clean_linker_0, # of connection points: 2
#     Edge 67, Type (0, 0), BuildingBlock: OJICUG_clean_linker_0, # of connection points: 2
#     Edge 68, Type (0, 0), BuildingBlock: OJICUG_clean_linker_0, # of connection points: 2
#     Edge 69, Type (0, 0), BuildingBlock: OJICUG_clean_linker_0, # of connection points: 2
#     Edge 70, Type (0, 0), BuildingBlock: OJICUG_clean_linker_0, # of connection points: 2
#     Edge 71, Type (0, 0), BuildingBlock: OJICUG_clean_linker_0, # of connection points: 2
#     Edge 72, Type (0, 0), BuildingBlock: OJICUG_clean_linker_0, # of connection points: 2
#     Edge 73, Type (0, 0), BuildingBlock: OJICUG_clean_linker_0, # of connection points: 2
#     Edge 74, Type (0, 0), BuildingBlock: OJICUG_clean_linker_0, # of connection points: 2
#     Edge 75, Type (0, 0), BuildingBlock: OJICUG_clean_linker_0, # of connection points: 2
#     Edge 76, Type (0, 0), BuildingBlock: OJICUG_clean_linker_0, # of connection points: 2
#     Edge 77, Type (0, 0), BuildingBlock: OJICUG_clean_linker_0, # of connection points: 2
#     Edge 78, Type (0, 0), BuildingBlock: OJICUG_clean_linker_0, # of connection points: 2
#     Edge 79, Type (0, 0), BuildingBlock: OJICUG_clean_linker_0, # of connection points: 2
#     Edge 80, Type (0, 0), BuildingBlock: OJICUG_clean_linker_0, # of connection points: 2
#     Edge 81, Type (0, 0), BuildingBlock: OJICUG_clean_linker_0, # of connection points: 2
#     Edge 82, Type (0, 0), BuildingBlock: OJICUG_clean_linker_0, # of connection points: 2
#     Edge 83, Type (0, 0), BuildingBlock: OJICUG_clean_linker_0, # of connection points: 2
#     Edge 84, Type (0, 0), BuildingBlock: OJICUG_clean_linker_0, # of connection points: 2
#     Edge 85, Type (0, 0), BuildingBlock: OJICUG_clean_linker_0, # of connection points: 2
#     Edge 86, Type (0, 0), BuildingBlock: OJICUG_clean_linker_0, # of connection points: 2
#     Edge 87, Type (0, 0), BuildingBlock: OJICUG_clean_linker_0, # of connection points: 2
#     Edge 88, Type (0, 0), BuildingBlock: OJICUG_clean_linker_0, # of connection points: 2
#     Edge 89, Type (0, 0), BuildingBlock: OJICUG_clean_linker_0, # of connection points: 2
#     Edge 90, Type (0, 0), BuildingBlock: OJICUG_clean_linker_0, # of connection points: 2
#     Edge 91, Type (0, 0), BuildingBlock: OJICUG_clean_linker_0, # of connection points: 2
#     Edge 92, Type (0, 0), BuildingBlock: OJICUG_clean_linker_0, # of connection points: 2
#     Edge 93, Type (0, 0), BuildingBlock: OJICUG_clean_linker_0, # of connection points: 2
#     Edge 94, Type (0, 0), BuildingBlock: OJICUG_clean_linker_0, # of connection points: 2
#     Edge 95, Type (0, 0), BuildingBlock: OJICUG_clean_linker_0, # of connection points: 2
#     Edge 96, Type (0, 0), BuildingBlock: OJICUG_clean_linker_0, # of connection points: 2
#     Edge 97, Type (0, 0), BuildingBlock: OJICUG_clean_linker_0, # of connection points: 2
#     Edge 98, Type (0, 0), BuildingBlock: OJICUG_clean_linker_0, # of connection points: 2
#     Edge 99, Type (0, 0), BuildingBlock: OJICUG_clean_linker_0, # of connection points: 2
#     Edge 100, Type (0, 0), BuildingBlock: OJICUG_clean_linker_0, # of connection points: 2
#     Edge 101, Type (0, 0), BuildingBlock: OJICUG_clean_linker_0, # of connection points: 2
#     Edge 102, Type (0, 0), BuildingBlock: OJICUG_clean_linker_0, # of connection points: 2
#     Edge 103, Type (0, 0), BuildingBlock: OJICUG_clean_linker_0, # of connection points: 2
#     Edge 104, Type (0, 0), BuildingBlock: OJICUG_clean_linker_0, # of connection points: 2
#     Edge 105, Type (0, 0), BuildingBlock: OJICUG_clean_linker_0, # of connection points: 2
#     Edge 106, Type (0, 0), BuildingBlock: OJICUG_clean_linker_0, # of connection points: 2
#     Edge 107, Type (0, 0), BuildingBlock: OJICUG_clean_linker_0, # of connection points: 2
#     Edge 108, Type (0, 0), BuildingBlock: OJICUG_clean_linker_0, # of connection points: 2
#     Edge 109, Type (0, 0), BuildingBlock: OJICUG_clean_linker_0, # of connection points: 2
#     Edge 110, Type (0, 0), BuildingBlock: OJICUG_clean_linker_0, # of connection points: 2
#     Edge 111, Type (0, 0), BuildingBlock: OJICUG_clean_linker_0, # of connection points: 2
#     Edge 112, Type (0, 0), BuildingBlock: OJICUG_clean_linker_0, # of connection points: 2
#     Edge 113, Type (0, 0), BuildingBlock: OJICUG_clean_linker_0, # of connection points: 2
#     Edge 114, Type (0, 0), BuildingBlock: OJICUG_clean_linker_0, # of connection points: 2
#     Edge 115, Type (0, 0), BuildingBlock: OJICUG_clean_linker_0, # of connection points: 2
#     Edge 116, Type (0, 0), BuildingBlock: OJICUG_clean_linker_0, # of connection points: 2
#     Edge 117, Type (0, 0), BuildingBlock: OJICUG_clean_linker_0, # of connection points: 2
#     Edge 118, Type (0, 0), BuildingBlock: OJICUG_clean_linker_0, # of connection points: 2
#     Edge 119, Type (0, 0), BuildingBlock: OJICUG_clean_linker_0, # of connection points: 2
#     Edge 120, Type (0, 0), BuildingBlock: OJICUG_clean_linker_0, # of connection points: 2
#     Edge 121, Type (0, 0), BuildingBlock: OJICUG_clean_linker_0, # of connection points: 2
#     Edge 122, Type (0, 0), BuildingBlock: OJICUG_clean_linker_0, # of connection points: 2
#     Edge 123, Type (0, 0), BuildingBlock: OJICUG_clean_linker_0, # of connection points: 2
#     Edge 124, Type (0, 0), BuildingBlock: OJICUG_clean_linker_0, # of connection points: 2
#     Edge 125, Type (0, 0), BuildingBlock: OJICUG_clean_linker_0, # of connection points: 2
#     Edge 126, Type (0, 0), BuildingBlock: OJICUG_clean_linker_0, # of connection points: 2
#     Edge 127, Type (0, 0), BuildingBlock: OJICUG_clean_linker_0, # of connection points: 2
#     Edge 128, Type (0, 0), BuildingBlock: OJICUG_clean_linker_0, # of connection points: 2
#     Edge 129, Type (0, 0), BuildingBlock: OJICUG_clean_linker_0, # of connection points: 2
#     Edge 130, Type (0, 0), BuildingBlock: OJICUG_clean_linker_0, # of connection points: 2
#     Edge 131, Type (0, 0), BuildingBlock: OJICUG_clean_linker_0, # of connection points: 2
#     Edge 132, Type (0, 0), BuildingBlock: OJICUG_clean_linker_0, # of connection points: 2
#     Edge 133, Type (0, 0), BuildingBlock: OJICUG_clean_linker_0, # of connection points: 2
#     Edge 134, Type (0, 0), BuildingBlock: OJICUG_clean_linker_0, # of connection points: 2
#     Edge 135, Type (0, 0), BuildingBlock: OJICUG_clean_linker_0, # of connection points: 2
#     Edge 136, Type (0, 0), BuildingBlock: OJICUG_clean_linker_0, # of connection points: 2
#     Edge 137, Type (0, 0), BuildingBlock: OJICUG_clean_linker_0, # of connection points: 2
#     Edge 138, Type (0, 0), BuildingBlock: OJICUG_clean_linker_0, # of connection points: 2
#     Edge 139, Type (0, 0), BuildingBlock: OJICUG_clean_linker_0, # of connection points: 2
#     Edge 140, Type (0, 0), BuildingBlock: OJICUG_clean_linker_0, # of connection points: 2
#     Edge 141, Type (0, 0), BuildingBlock: OJICUG_clean_linker_0, # of connection points: 2
#     Edge 142, Type (0, 0), BuildingBlock: OJICUG_clean_linker_0, # of connection points: 2
#     Edge 143, Type (0, 0), BuildingBlock: OJICUG_clean_linker_0, # of connection points: 2
# Relax obj value: 0.078
# Max RMSD: 0.093
# Mean RMSD: 0.084
data_MOF--net-rho--node1-CEKHIL_clean_sbu_0--edge1-OJICUG_clean_linker_0
_symmetry_space_group_name_H-M    P1
_symmetry_Int_Tables_number       1
_symmetry_cell_setting            triclinic
loop_
_symmetry_equiv_pos_as_xyz
'x, y, z'
_cell_length_a     52.163368
_cell_length_b     51.730766
_cell_length_c     51.7298
_cell_angle_alpha  90.231025
_cell_angle_beta   90.080014
_cell_angle_gamma 90.831209
loop_
_atom_site_label
_atom_site_type_symbol
_atom_site_fract_x
_atom_site_fract_y
_atom_site_fract_z
_atom_type_partial_charge
Co0 Co 0.1152 0.25046 0.39386 0.0
O1 O 0.15126 0.24319 0.3944 0.0
O2 O 0.12035 0.21351 0.39642 0.0
C3 C 0.11711 0.27887 0.36093 0.0
O4 O 0.07603 0.25047 0.3928 0.0
Co5 Co 0.09518 0.3062 0.40396 0.0
O6 O 0.06201 0.29138 0.39184 0.0
C7 C 0.11576 0.27487 0.4468 0.0
C8 C 0.14479 0.21892 0.39587 0.0
C9 C 0.05796 0.26705 0.39046 0.0
O10 O 0.11522 0.25429 0.4327 0.0
O11 O 0.11104 0.29743 0.43803 0.0
O12 O 0.11616 0.25417 0.35612 0.0
O13 O 0.11884 0.28519 0.38493 0.0
Co14 Co 0.75386 0.11146 0.39002 0.0
O15 O 0.74424 0.11134 0.35422 0.0
O16 O 0.71667 0.11159 0.38664 0.0
C17 C 0.78443 0.14272 0.38699 0.0
O18 O 0.75745 0.11253 0.42948 0.0
Co19 Co 0.8089 0.09475 0.40437 0.0
O20 O 0.79983 0.11148 0.43763 0.0
C21 C 0.77039 0.05472 0.39135 0.0
C22 C 0.72057 0.11149 0.36176 0.0
C23 C 0.77678 0.11486 0.44496 0.0
O24 O 0.75336 0.07243 0.39015 0.0
O25 O 0.79423 0.05972 0.39515 0.0
O26 O 0.76041 0.14867 0.38905 0.0
O27 O 0.78881 0.11835 0.38397 0.0
Co28 Co 0.89251 0.75252 0.39672 0.0
O29 O 0.85632 0.75926 0.3977 0.0
O30 O 0.8868 0.78938 0.39959 0.0
C31 C 0.89055 0.72412 0.36345 0.0
O32 O 0.93171 0.75312 0.39517 0.0
Co33 Co 0.91345 0.69719 0.40621 0.0
O34 O 0.94612 0.71238 0.39339 0.0
C35 C 0.89337 0.72827 0.4497 0.0
C36 C 0.86243 0.78363 0.3992 0.0
C37 C 0.94991 0.73675 0.39222 0.0
O38 O 0.89309 0.74874 0.43561 0.0
O39 O 0.89844 0.70578 0.44077 0.0
O40 O 0.89109 0.74884 0.35896 0.0
O41 O 0.88924 0.71771 0.38742 0.0
Co42 Co 0.25589 0.89026 0.39067 0.0
O43 O 0.2653 0.89027 0.35482 0.0
O44 O 0.2932 0.89058 0.38696 0.0
C45 C 0.22529 0.85889 0.38754 0.0
O46 O 0.25248 0.88945 0.43021 0.0
Co47 Co 0.20057 0.90655 0.40515 0.0
O48 O 0.2101 0.89034 0.43843 0.0
C49 C 0.2386 0.9467 0.39153 0.0
C50 C 0.28907 0.89065 0.3621 0.0
C51 C 0.23321 0.8872 0.44573 0.0
O52 O 0.25597 0.92927 0.3908 0.0
O53 O 0.21482 0.94141 0.39519 0.0
O54 O 0.24933 0.8529 0.38956 0.0
O55 O 0.221 0.88324 0.38474 0.0
Co56 Co 0.11373 0.75247 0.60961 0.0
O57 O 0.1496 0.76105 0.60918 0.0
O58 O 0.11861 0.7898 0.60963 0.0
C59 C 0.1159 0.72235 0.64099 0.0
O60 O 0.07451 0.75023 0.61119 0.0
Co61 Co 0.09657 0.69734 0.59318 0.0
O62 O 0.06461 0.70774 0.61095 0.0
C63 C 0.11138 0.73458 0.55296 0.0
C64 C 0.14309 0.78513 0.60942 0.0
C65 C 0.05848 0.73129 0.61432 0.0
O66 O 0.11316 0.75213 0.57059 0.0
O67 O 0.10655 0.71079 0.55807 0.0
O68 O 0.11497 0.74676 0.64678 0.0
O69 O 0.11827 0.71717 0.61661 0.0
Co70 Co 0.25636 0.11554 0.60957 0.0
O71 O 0.2481 0.15173 0.60962 0.0
O72 O 0.21959 0.11975 0.60696 0.0
C73 C 0.28471 0.1173 0.64272 0.0
O74 O 0.25693 0.07618 0.60993 0.0
Co75 Co 0.31169 0.096 0.59916 0.0
O76 O 0.29743 0.06193 0.60984 0.0
C77 C 0.28017 0.1164 0.55641 0.0
C78 C 0.2242 0.1445 0.60786 0.0
C79 C 0.27331 0.05786 0.61139 0.0
O80 O 0.25996 0.116 0.57069 0.0
O81 O 0.30265 0.11167 0.56504 0.0
O82 O 0.26021 0.11607 0.64732 0.0
O83 O 0.29094 0.11958 0.61877 0.0
Co84 Co 0.89549 0.24979 0.61061 0.0
O85 O 0.85955 0.24176 0.61028 0.0
O86 O 0.89001 0.21247 0.61026 0.0
C87 C 0.89363 0.27981 0.64233 0.0
O88 O 0.93479 0.25188 0.61188 0.0
Co89 Co 0.91242 0.305 0.59464 0.0
O90 O 0.94463 0.29442 0.6118 0.0
C91 C 0.89713 0.26792 0.55413 0.0
C92 C 0.86561 0.21759 0.61019 0.0
C93 C 0.95086 0.27087 0.61487 0.0
O94 O 0.89566 0.25027 0.57156 0.0
O95 O 0.90191 0.2917 0.5595 0.0
O96 O 0.89463 0.2554 0.64794 0.0
O97 O 0.89113 0.28495 0.618 0.0
Co98 Co 0.75375 0.88955 0.61261 0.0
O99 O 0.76255 0.85361 0.61268 0.0
O100 O 0.79062 0.88598 0.61001 0.0
C101 C 0.72552 0.88724 0.64558 0.0
O102 O 0.75217 0.92887 0.61283 0.0
Co103 Co 0.69774 0.90749 0.60229 0.0
O104 O 0.7113 0.9421 0.61236 0.0
C105 C 0.72956 0.88696 0.5598 0.0
C106 C 0.78633 0.86117 0.61087 0.0
C107 C 0.73531 0.94679 0.61395 0.0
O108 O 0.74995 0.88858 0.57382 0.0
O109 O 0.70701 0.89095 0.56859 0.0
O110 O 0.74996 0.88925 0.65041 0.0
O111 O 0.71945 0.88474 0.6216 0.0
Co112 Co 0.39079 0.10906 0.24947 0.0
O113 O 0.35443 0.10732 0.25591 0.0
O114 O 0.38457 0.10512 0.28599 0.0
C115 C 0.38904 0.1432 0.22243 0.0
O116 O 0.42994 0.11115 0.25057 0.0
Co117 Co 0.41333 0.10214 0.1943 0.0
O118 O 0.44569 0.1148 0.21032 0.0
C119 C 0.39396 0.05659 0.2236 0.0
C120 C 0.36029 0.10545 0.28021 0.0
C121 C 0.44871 0.11487 0.23477 0.0
O122 O 0.39158 0.07024 0.24433 0.0
O123 O 0.4002 0.06635 0.20172 0.0
O124 O 0.38934 0.14696 0.24728 0.0
O125 O 0.38813 0.11939 0.21508 0.0
Co126 Co 0.89429 0.39373 0.24903 0.0
O127 O 0.85814 0.39293 0.24163 0.0
O128 O 0.88869 0.39357 0.21199 0.0
C129 C 0.89358 0.36258 0.27957 0.0
O130 O 0.93337 0.39355 0.2489 0.0
Co131 Co 0.91474 0.41027 0.30273 0.0
O132 O 0.94786 0.39698 0.28969 0.0
C133 C 0.89638 0.45015 0.26705 0.0
C134 C 0.86433 0.39309 0.21732 0.0
C135 C 0.95165 0.39317 0.26564 0.0
O136 O 0.89412 0.43271 0.24936 0.0
O137 O 0.90264 0.44492 0.29039 0.0
O138 O 0.89389 0.35657 0.25515 0.0
O139 O 0.8913 0.38695 0.28468 0.0
Co140 Co 0.61537 0.89408 0.25233 0.0
O141 O 0.65082 0.89271 0.26135 0.0
O142 O 0.61926 0.89459 0.28978 0.0
C143 C 0.61684 0.86196 0.22284 0.0
O144 O 0.57618 0.8952 0.24846 0.0
Co145 Co 0.60438 0.91082 0.1959 0.0
O146 O 0.56892 0.90118 0.20589 0.0
C147 C 0.61756 0.95068 0.23433 0.0
C148 C 0.64384 0.89346 0.28528 0.0
C149 C 0.56095 0.89737 0.2289 0.0
O150 O 0.61742 0.93302 0.25175 0.0
O151 O 0.61461 0.94568 0.21024 0.0
O152 O 0.61408 0.8567 0.24719 0.0
O153 O 0.6213 0.88603 0.21763 0.0
Co154 Co 0.11267 0.60989 0.24705 0.0
O155 O 0.14873 0.61096 0.23942 0.0
O156 O 0.118 0.60983 0.20992 0.0
C157 C 0.11352 0.64126 0.27762 0.0
O158 O 0.07355 0.60983 0.24732 0.0
Co159 Co 0.09295 0.5938 0.30108 0.0
O160 O 0.05975 0.60716 0.28835 0.0
C161 C 0.11122 0.55367 0.26531 0.0
C162 C 0.1424 0.61069 0.21514 0.0
C163 C 0.05556 0.61058 0.26433 0.0
O164 O 0.11313 0.57088 0.24747 0.0
O165 O 0.10521 0.55917 0.28867 0.0
O166 O 0.11289 0.64712 0.25321 0.0
O167 O 0.116 0.61696 0.28264 0.0
Co168 Co 0.39494 0.89501 0.75164 0.0
O169 O 0.35883 0.89421 0.74382 0.0
O170 O 0.38964 0.89767 0.71464 0.0
C171 C 0.39387 0.86157 0.77983 0.0
O172 O 0.43412 0.8953 0.75177 0.0
Co173 Co 0.41556 0.90558 0.80717 0.0
O174 O 0.44885 0.89455 0.7926 0.0
C175 C 0.39318 0.9479 0.77652 0.0
C176 C 0.36524 0.89612 0.71964 0.0
C177 C 0.45253 0.89333 0.76827 0.0
O178 O 0.39394 0.93396 0.75583 0.0
O179 O 0.39861 0.93914 0.79897 0.0
O180 O 0.39479 0.85718 0.75507 0.0
O181 O 0.39178 0.88549 0.78639 0.0
Co182 Co 0.11475 0.39352 0.75141 0.0
O183 O 0.15058 0.39355 0.7595 0.0
O184 O 0.11953 0.39357 0.78862 0.0
C185 C 0.11653 0.3619 0.72156 0.0
O186 O 0.07546 0.39246 0.74906 0.0
Co187 Co 0.09926 0.40989 0.69625 0.0
O188 O 0.06659 0.39273 0.70644 0.0
C189 C 0.11357 0.45018 0.73393 0.0
C190 C 0.14402 0.39325 0.7836 0.0
C191 C 0.05977 0.38962 0.7299 0.0
O192 O 0.11514 0.43249 0.75124 0.0
O193 O 0.10902 0.44513 0.71009 0.0
O194 O 0.11499 0.35633 0.74594 0.0
O195 O 0.11966 0.38619 0.71627 0.0
Co196 Co 0.61131 0.10994 0.74952 0.0
O197 O 0.64658 0.11302 0.73978 0.0
O198 O 0.61466 0.10942 0.71185 0.0
C199 C 0.61237 0.14197 0.7794 0.0
O200 O 0.57219 0.10713 0.75357 0.0
Co201 Co 0.60045 0.09292 0.8062 0.0
O202 O 0.56475 0.10058 0.79604 0.0
C203 C 0.61585 0.05387 0.76823 0.0
C204 C 0.63928 0.11166 0.71588 0.0
C205 C 0.55689 0.10431 0.773 0.0
O206 O 0.61428 0.07105 0.75037 0.0
O207 O 0.61303 0.05912 0.79225 0.0
O208 O 0.60948 0.1473 0.75505 0.0
O209 O 0.61724 0.11811 0.78434 0.0
Co210 Co 0.89142 0.61 0.75168 0.0
O211 O 0.85513 0.60926 0.75841 0.0
O212 O 0.88539 0.60649 0.78831 0.0
C213 C 0.89054 0.64399 0.72449 0.0
O214 O 0.93057 0.61107 0.75217 0.0
Co215 Co 0.91242 0.60132 0.69612 0.0
O216 O 0.94552 0.61292 0.71146 0.0
C217 C 0.89206 0.55712 0.72634 0.0
C218 C 0.86109 0.60737 0.78267 0.0
C219 C 0.94907 0.61368 0.73584 0.0
O220 O 0.89119 0.57115 0.74694 0.0
O221 O 0.89761 0.56625 0.70401 0.0
O222 O 0.89103 0.64787 0.74932 0.0
O223 O 0.88865 0.62017 0.71727 0.0
Co224 Co 0.25229 0.38864 0.11166 0.0
O225 O 0.26052 0.35272 0.10762 0.0
O226 O 0.28901 0.38485 0.1083 0.0
C227 C 0.2244 0.38306 0.14466 0.0
O228 O 0.25167 0.4277 0.11635 0.0
Co229 Co 0.19663 0.4095 0.1057 0.0
O230 O 0.21138 0.44204 0.11998 0.0
C231 C 0.22769 0.39616 0.05937 0.0
C232 C 0.28442 0.36013 0.10673 0.0
C233 C 0.23556 0.44584 0.12066 0.0
O234 O 0.24802 0.39241 0.07297 0.0
O235 O 0.20569 0.40064 0.06927 0.0
O236 O 0.24892 0.38412 0.14926 0.0
O237 O 0.21797 0.38351 0.12069 0.0
Co238 Co 0.25527 0.61013 0.88931 0.0
O239 O 0.24519 0.61392 0.85391 0.0
O240 O 0.21794 0.6102 0.88638 0.0
C241 C 0.28572 0.64171 0.88914 0.0
O242 O 0.25967 0.60642 0.92859 0.0
Co243 Co 0.3111 0.59202 0.89905 0.0
O244 O 0.30165 0.59897 0.93545 0.0
C245 C 0.27201 0.5537 0.88335 0.0
C246 C 0.2216 0.61264 0.86157 0.0
C247 C 0.27898 0.60278 0.94374 0.0
O248 O 0.25495 0.57135 0.88503 0.0
O249 O 0.29601 0.55835 0.88633 0.0
O250 O 0.26176 0.64736 0.89248 0.0
O251 O 0.28993 0.61787 0.88324 0.0
Co252 Co 0.39245 0.25404 0.89447 0.0
O253 O 0.35625 0.2606 0.89562 0.0
O254 O 0.38662 0.29081 0.89819 0.0
C255 C 0.39063 0.22623 0.86064 0.0
O256 O 0.43163 0.25471 0.89306 0.0
Co257 Co 0.41328 0.19846 0.90292 0.0
O258 O 0.44604 0.21398 0.89075 0.0
C259 C 0.39317 0.22864 0.94699 0.0
C260 C 0.36227 0.28493 0.89785 0.0
C261 C 0.44984 0.23837 0.89004 0.0
O262 O 0.39295 0.24941 0.93331 0.0
O263 O 0.3982 0.20634 0.93759 0.0
O264 O 0.39112 0.25101 0.85649 0.0
O265 O 0.38928 0.21954 0.88452 0.0
Co266 Co 0.75519 0.39188 0.89023 0.0
O267 O 0.76482 0.392 0.85448 0.0
O268 O 0.7925 0.39217 0.88683 0.0
C269 C 0.72471 0.36051 0.88689 0.0
O270 O 0.75144 0.3909 0.9297 0.0
Co271 Co 0.69978 0.40824 0.9042 0.0
O272 O 0.70895 0.39164 0.93739 0.0
C273 C 0.73802 0.44838 0.89122 0.0
C274 C 0.78853 0.39231 0.86195 0.0
C275 C 0.73198 0.38845 0.94494 0.0
O276 O 0.75531 0.43089 0.89049 0.0
O277 O 0.7142 0.44317 0.89468 0.0
O278 O 0.74874 0.35455 0.88899 0.0
O279 O 0.72037 0.38485 0.88402 0.0
Co280 Co 0.61589 0.75173 0.89479 0.0
O281 O 0.65191 0.74491 0.89844 0.0
O282 O 0.62122 0.71492 0.89812 0.0
C283 C 0.62036 0.77981 0.86169 0.0
O284 O 0.57695 0.75095 0.89048 0.0
Co285 Co 0.59352 0.80718 0.90092 0.0
O286 O 0.56205 0.79124 0.88604 0.0
C287 C 0.60759 0.77627 0.94717 0.0
C288 C 0.64557 0.72056 0.89933 0.0
C289 C 0.55869 0.7668 0.88577 0.0
O290 O 0.61227 0.75601 0.93348 0.0
O291 O 0.60216 0.79825 0.9374 0.0
O292 O 0.62004 0.75505 0.85718 0.0
O293 O 0.61978 0.78643 0.88565 0.0
Co294 Co 0.75428 0.61495 0.11151 0.0
O295 O 0.74627 0.65114 0.11101 0.0
O296 O 0.71757 0.61931 0.10836 0.0
C297 C 0.78229 0.61719 0.14488 0.0
O298 O 0.75481 0.57558 0.11219 0.0
Co299 Co 0.80979 0.59533 0.10205 0.0
O300 O 0.7953 0.56129 0.11247 0.0
C301 C 0.77891 0.61565 0.05881 0.0
C302 C 0.72237 0.64405 0.10891 0.0
C303 C 0.77117 0.55725 0.11377 0.0
O304 O 0.75843 0.61507 0.07269 0.0
O305 O 0.80125 0.6111 0.06786 0.0
O306 O 0.75777 0.61589 0.14938 0.0
O307 O 0.78863 0.61907 0.12094 0.0
Co308 Co 0.39681 0.74858 0.11022 0.0
O309 O 0.36104 0.7401 0.10862 0.0
O310 O 0.39198 0.71126 0.10936 0.0
C311 C 0.39379 0.77827 0.14209 0.0
O312 O 0.43595 0.75111 0.1128 0.0
Co313 Co 0.41363 0.80395 0.09497 0.0
O314 O 0.44517 0.79375 0.11363 0.0
C315 C 0.40001 0.76702 0.05381 0.0
C316 C 0.36753 0.71604 0.10844 0.0
C317 C 0.45157 0.77027 0.11678 0.0
O318 O 0.39819 0.74933 0.07118 0.0
O319 O 0.40442 0.79082 0.05937 0.0
O320 O 0.39477 0.75384 0.14755 0.0
O321 O 0.39188 0.78361 0.11773 0.0
Co322 Co 0.61142 0.25236 0.11006 0.0
O323 O 0.64726 0.26092 0.10987 0.0
O324 O 0.61627 0.28969 0.11012 0.0
C325 C 0.61348 0.22223 0.14137 0.0
O326 O 0.5722 0.24996 0.11131 0.0
Co327 Co 0.59474 0.19723 0.09323 0.0
O328 O 0.56253 0.20741 0.11067 0.0
C329 C 0.6098 0.23468 0.05336 0.0
C330 C 0.64075 0.28499 0.10999 0.0
C331 C 0.55624 0.2309 0.11413 0.0
O332 O 0.61118 0.25214 0.0711 0.0
O333 O 0.60511 0.21083 0.05827 0.0
O334 O 0.6124 0.24664 0.1472 0.0
O335 O 0.61606 0.21709 0.11701 0.0
Co336 Co 0.89468 0.75198 0.61384 0.0
O337 O 0.85909 0.76037 0.61299 0.0
O338 O 0.89064 0.78928 0.61076 0.0
C339 C 0.89126 0.72425 0.64735 0.0
O340 O 0.93393 0.7495 0.6151 0.0
Co341 Co 0.90983 0.69452 0.60387 0.0
O342 O 0.94271 0.70711 0.61883 0.0
C343 C 0.89287 0.72728 0.5606 0.0
C344 C 0.86604 0.78441 0.61118 0.0
C345 C 0.94958 0.73088 0.61947 0.0
O346 O 0.89454 0.7477 0.5749 0.0
O347 O 0.89586 0.70438 0.56931 0.0
O348 O 0.89347 0.74893 0.6518 0.0
O349 O 0.88903 0.71785 0.6234 0.0
Co350 Co 0.25378 0.89469 0.61145 0.0
O351 O 0.2626 0.89515 0.64748 0.0
O352 O 0.29087 0.89443 0.6157 0.0
C353 C 0.22289 0.86384 0.61412 0.0
O354 O 0.25112 0.89309 0.57188 0.0
Co355 Co 0.19925 0.91168 0.59543 0.0
O356 O 0.20894 0.89421 0.56272 0.0
C357 C 0.23757 0.95136 0.60988 0.0
C358 C 0.28643 0.89489 0.64048 0.0
C359 C 0.23212 0.89048 0.55602 0.0
O360 O 0.25455 0.93362 0.61099 0.0
O361 O 0.21378 0.94648 0.60568 0.0
O362 O 0.2469 0.85761 0.61274 0.0
O363 O 0.21864 0.88827 0.61671 0.0
Co364 Co 0.11522 0.25341 0.61063 0.0
O365 O 0.15101 0.24549 0.60961 0.0
O366 O 0.11982 0.21615 0.60815 0.0
C367 C 0.11852 0.28206 0.64352 0.0
O368 O 0.07589 0.25509 0.61228 0.0
Co369 Co 0.09845 0.31024 0.60002 0.0
O370 O 0.06607 0.29728 0.6156 0.0
C371 C 0.11628 0.27691 0.5573 0.0
C372 C 0.14435 0.22131 0.60828 0.0
C373 C 0.05983 0.27337 0.61668 0.0
O374 O 0.11485 0.25672 0.57175 0.0
O375 O 0.11288 0.29992 0.56574 0.0
O376 O 0.11681 0.25745 0.64839 0.0
O377 O 0.12033 0.28797 0.61948 0.0
Co378 Co 0.75266 0.11037 0.60997 0.0
O379 O 0.74254 0.11082 0.64556 0.0
O380 O 0.71535 0.11109 0.61278 0.0
C381 C 0.78382 0.14095 0.61356 0.0
O382 O 0.75673 0.11111 0.57056 0.0
Co383 Co 0.80786 0.09302 0.59615 0.0
O384 O 0.7992 0.10986 0.56294 0.0
C385 C 0.76896 0.05381 0.61023 0.0
C386 C 0.71895 0.11125 0.63771 0.0
C387 C 0.77624 0.11344 0.55538 0.0
O388 O 0.75175 0.0714 0.61009 0.0
O389 O 0.79286 0.05875 0.60695 0.0
O390 O 0.75997 0.14747 0.61108 0.0
O391 O 0.78761 0.11653 0.61649 0.0
Co392 Co 0.89586 0.25198 0.38889 0.0
O393 O 0.89535 0.25945 0.35242 0.0
O394 O 0.89643 0.28904 0.3834 0.0
C395 C 0.86433 0.22153 0.38811 0.0
O396 O 0.89566 0.2519 0.42841 0.0
Co397 Co 0.91098 0.19805 0.40874 0.0
O398 O 0.89879 0.2111 0.44263 0.0
C399 C 0.95146 0.23398 0.39096 0.0
C400 C 0.89593 0.28375 0.35879 0.0
C401 C 0.89546 0.23512 0.44677 0.0
O402 O 0.93447 0.25158 0.38844 0.0
O403 O 0.94582 0.21065 0.39718 0.0
O404 O 0.85889 0.24596 0.3888 0.0
O405 O 0.88839 0.21637 0.38554 0.0
Co406 Co 0.75124 0.89017 0.39634 0.0
O407 O 0.75898 0.85384 0.39666 0.0
O408 O 0.78795 0.88548 0.39836 0.0
C409 C 0.72227 0.88811 0.36393 0.0
O410 O 0.75106 0.92964 0.3954 0.0
Co411 Co 0.69635 0.91042 0.40766 0.0
O412 O 0.71066 0.94416 0.39604 0.0
C413 C 0.72828 0.88904 0.44954 0.0
C414 C 0.78299 0.86077 0.39799 0.0
C415 C 0.73475 0.94805 0.39388 0.0
O416 O 0.74836 0.89011 0.43516 0.0
O417 O 0.70568 0.89374 0.44123 0.0
O418 O 0.74668 0.88913 0.35876 0.0
O419 O 0.71649 0.88633 0.38803 0.0
Co420 Co 0.11189 0.75158 0.38802 0.0
O421 O 0.11222 0.74431 0.35145 0.0
O422 O 0.11075 0.71457 0.38205 0.0
C423 C 0.14394 0.78149 0.38777 0.0
O424 O 0.11216 0.75139 0.42751 0.0
Co425 Co 0.09747 0.8055 0.40854 0.0
O426 O 0.10957 0.79215 0.44227 0.0
C427 C 0.05638 0.77011 0.39079 0.0
C428 C 0.11133 0.71998 0.35751 0.0
C429 C 0.1126 0.76807 0.44609 0.0
O430 O 0.07325 0.75249 0.3876 0.0
O431 O 0.06225 0.79332 0.39747 0.0
O432 O 0.14894 0.75696 0.38808 0.0
O433 O 0.11997 0.78711 0.38517 0.0
Co434 Co 0.25502 0.11151 0.3929 0.0
O435 O 0.24729 0.14777 0.39246 0.0
O436 O 0.21837 0.11626 0.39599 0.0
C437 C 0.28272 0.11223 0.35938 0.0
O438 O 0.25552 0.07207 0.39304 0.0
Co439 Co 0.31058 0.0925 0.40319 0.0
O440 O 0.29625 0.05836 0.39253 0.0
C441 C 0.27964 0.11404 0.44577 0.0
C442 C 0.22335 0.14094 0.39474 0.0
C443 C 0.27216 0.05396 0.3913 0.0
O444 O 0.25925 0.11292 0.43173 0.0
O445 O 0.30204 0.10925 0.43703 0.0
O446 O 0.25815 0.1111 0.35507 0.0
O447 O 0.28932 0.11515 0.38321 0.0
Co448 Co 0.61428 0.88904 0.75226 0.0
O449 O 0.61434 0.85249 0.7588 0.0
O450 O 0.61373 0.88294 0.78903 0.0
C451 C 0.6459 0.88894 0.7228 0.0
O452 O 0.61513 0.92851 0.75264 0.0
Co453 Co 0.59906 0.9091 0.6985 0.0
O454 O 0.61287 0.94257 0.71168 0.0
C455 C 0.55836 0.89212 0.73411 0.0
C456 C 0.61421 0.85845 0.78317 0.0
C457 C 0.61619 0.94675 0.73576 0.0
O458 O 0.57564 0.88866 0.75146 0.0
O459 O 0.56377 0.89874 0.7109 0.0
O460 O 0.65118 0.8892 0.74733 0.0
O461 O 0.62185 0.88618 0.71689 0.0
Co462 Co 0.11082 0.61458 0.75292 0.0
O463 O 0.11148 0.65104 0.74528 0.0
O464 O 0.11119 0.61982 0.71591 0.0
C465 C 0.14158 0.61564 0.78376 0.0
O466 O 0.11124 0.57517 0.75272 0.0
Co467 Co 0.09436 0.59377 0.80623 0.0
O468 O 0.10734 0.56025 0.79321 0.0
C469 C 0.05477 0.61159 0.7701 0.0
C470 C 0.11159 0.64444 0.72101 0.0
C471 C 0.11134 0.55659 0.76919 0.0
O472 O 0.07222 0.61446 0.75276 0.0
O473 O 0.05981 0.60511 0.79342 0.0
O474 O 0.14753 0.61524 0.75937 0.0
O475 O 0.1174 0.61782 0.78877 0.0
Co476 Co 0.39133 0.11197 0.75503 0.0
O477 O 0.35561 0.11359 0.7464 0.0
O478 O 0.38669 0.10872 0.71785 0.0
C479 C 0.39112 0.14628 0.78241 0.0
O480 O 0.43056 0.11006 0.7577 0.0
Co481 Co 0.40498 0.10124 0.81285 0.0
O482 O 0.44037 0.10696 0.80012 0.0
C483 C 0.38645 0.05854 0.77942 0.0
C484 C 0.36226 0.111 0.72246 0.0
C485 C 0.4469 0.10859 0.7764 0.0
O486 O 0.38834 0.07307 0.75931 0.0
O487 O 0.38957 0.06705 0.80252 0.0
O488 O 0.39341 0.14998 0.75769 0.0
O489 O 0.38678 0.12268 0.78907 0.0
Co490 Co 0.89551 0.39286 0.74935 0.0
O491 O 0.85995 0.3928 0.75877 0.0
O492 O 0.89185 0.39565 0.78681 0.0
C493 C 0.89217 0.35928 0.72123 0.0
O494 O 0.93475 0.39231 0.74635 0.0
Co495 Co 0.91107 0.40299 0.69192 0.0
O496 O 0.94384 0.38828 0.70396 0.0
C497 C 0.89351 0.44605 0.72499 0.0
C498 C 0.86722 0.39452 0.78269 0.0
C499 C 0.95052 0.38781 0.72769 0.0
O500 O 0.89505 0.43186 0.74537 0.0
O501 O 0.89689 0.4373 0.70206 0.0
O502 O 0.89451 0.35494 0.74585 0.0
O503 O 0.88979 0.38317 0.71502 0.0
Co504 Co 0.60999 0.11459 0.25323 0.0
O505 O 0.6105 0.15104 0.24565 0.0
O506 O 0.6103 0.1198 0.21626 0.0
C507 C 0.6407 0.1155 0.284 0.0
O508 O 0.61067 0.07523 0.25301 0.0
Co509 Co 0.59334 0.09371 0.30641 0.0
O510 O 0.60721 0.06046 0.29359 0.0
C511 C 0.55388 0.11178 0.27035 0.0
C512 C 0.61056 0.14442 0.22138 0.0
C513 C 0.61131 0.05677 0.26958 0.0
O514 O 0.57139 0.11443 0.25306 0.0
O515 O 0.55881 0.10525 0.29368 0.0
O516 O 0.64667 0.11529 0.25962 0.0
O517 O 0.61652 0.11775 0.28905 0.0
Co518 Co 0.89346 0.61519 0.25239 0.0
O519 O 0.89328 0.65173 0.25953 0.0
O520 O 0.89461 0.62109 0.28926 0.0
C521 C 0.86145 0.61532 0.22307 0.0
O522 O 0.89309 0.57571 0.25235 0.0
Co523 Co 0.90781 0.59531 0.19805 0.0
O524 O 0.8955 0.56142 0.21136 0.0
C525 C 0.94895 0.61294 0.23317 0.0
C526 C 0.89406 0.64562 0.28381 0.0
C527 C 0.89255 0.55732 0.23546 0.0
O528 O 0.93208 0.61589 0.25101 0.0
O529 O 0.94306 0.60651 0.20995 0.0
O530 O 0.85638 0.61484 0.24763 0.0
O531 O 0.88543 0.61812 0.21714 0.0
Co532 Co 0.39527 0.89214 0.24846 0.0
O533 O 0.35982 0.89091 0.25837 0.0
O534 O 0.39188 0.89573 0.28594 0.0
C535 C 0.39259 0.85773 0.22107 0.0
O536 O 0.43452 0.89351 0.24489 0.0
Co537 Co 0.40899 0.9008 0.19001 0.0
O538 O 0.44395 0.89317 0.2023 0.0
C539 C 0.39228 0.94474 0.22262 0.0
C540 C 0.36724 0.89351 0.28216 0.0
C541 C 0.45069 0.89293 0.22602 0.0
O542 O 0.39351 0.93107 0.24342 0.0
O543 O 0.39518 0.93521 0.19994 0.0
O544 O 0.39566 0.85401 0.24573 0.0
O545 O 0.38931 0.88135 0.21454 0.0
Co546 Co 0.11334 0.38832 0.25163 0.0
O547 O 0.11323 0.35186 0.25843 0.0
O548 O 0.11243 0.38248 0.28848 0.0
C549 C 0.14518 0.38758 0.22232 0.0
O550 O 0.11407 0.42783 0.25162 0.0
Co551 Co 0.0986 0.40772 0.19747 0.0
O552 O 0.11147 0.4416 0.21057 0.0
C553 C 0.05769 0.39079 0.23285 0.0
C554 C 0.11272 0.35794 0.28275 0.0
C555 C 0.11466 0.44599 0.23463 0.0
O556 O 0.07477 0.38792 0.2505 0.0
O557 O 0.06331 0.39696 0.20957 0.0
O558 O 0.15033 0.38831 0.24687 0.0
O559 O 0.12114 0.38498 0.21637 0.0
Co560 Co 0.7556 0.61307 0.89512 0.0
O561 O 0.74807 0.6494 0.89555 0.0
O562 O 0.71899 0.61794 0.89818 0.0
C563 C 0.78348 0.6144 0.8618 0.0
O564 O 0.75584 0.57362 0.89436 0.0
Co565 Co 0.81095 0.59342 0.90528 0.0
O566 O 0.79644 0.55958 0.8939 0.0
C567 C 0.77988 0.61423 0.94812 0.0
C568 C 0.7241 0.64262 0.89762 0.0
C569 C 0.77234 0.5554 0.89241 0.0
O570 O 0.75959 0.61353 0.93394 0.0
O571 O 0.80232 0.60949 0.93943 0.0
O572 O 0.75893 0.61354 0.85733 0.0
O573 O 0.78998 0.61671 0.88571 0.0
Co574 Co 0.75178 0.39411 0.1106 0.0
O575 O 0.7609 0.394 0.14653 0.0
O576 O 0.78886 0.39355 0.11443 0.0
C577 C 0.72081 0.36339 0.11322 0.0
O578 O 0.74893 0.39304 0.07108 0.0
Co579 Co 0.69726 0.41133 0.09491 0.0
O580 O 0.70676 0.39416 0.06198 0.0
C581 C 0.73565 0.45075 0.11001 0.0
C582 C 0.78466 0.3936 0.13925 0.0
C583 C 0.72994 0.39054 0.05522 0.0
O584 O 0.75268 0.43304 0.11071 0.0
O585 O 0.71185 0.44592 0.10577 0.0
O586 O 0.74477 0.35707 0.11147 0.0
O587 O 0.71666 0.38781 0.11606 0.0
Co588 Co 0.61505 0.75412 0.11164 0.0
O589 O 0.65062 0.74595 0.10815 0.0
O590 O 0.61912 0.7169 0.10854 0.0
C591 C 0.62082 0.78231 0.14469 0.0
O592 O 0.57598 0.75582 0.11581 0.0
Co593 Co 0.59708 0.81117 0.10439 0.0
O594 O 0.5662 0.79761 0.12228 0.0
C595 C 0.60832 0.77807 0.05875 0.0
C596 C 0.64366 0.72182 0.10732 0.0
C597 C 0.56009 0.77366 0.12218 0.0
O598 O 0.61176 0.75795 0.07288 0.0
O599 O 0.60438 0.80068 0.06799 0.0
O600 O 0.6192 0.75765 0.14929 0.0
O601 O 0.62093 0.78859 0.12069 0.0
Co602 Co 0.25602 0.60753 0.10996 0.0
O603 O 0.24606 0.6117 0.14534 0.0
O604 O 0.21876 0.60814 0.11276 0.0
C605 C 0.28694 0.63844 0.11022 0.0
O606 O 0.26015 0.60378 0.07065 0.0
Co607 Co 0.31148 0.58855 0.09964 0.0
O608 O 0.30199 0.59605 0.06338 0.0
C609 C 0.27225 0.55136 0.11703 0.0
C610 C 0.22246 0.61071 0.13757 0.0
C611 C 0.27931 0.60027 0.0553 0.0
O612 O 0.25522 0.56887 0.11432 0.0
O613 O 0.29628 0.55582 0.11415 0.0
O614 O 0.26307 0.64454 0.10693 0.0
O615 O 0.29082 0.61458 0.11599 0.0
Co616 Co 0.3924 0.25086 0.11134 0.0
O617 O 0.35681 0.25922 0.10972 0.0
O618 O 0.38843 0.2881 0.10796 0.0
C619 C 0.38848 0.22326 0.14495 0.0
O620 O 0.43161 0.24843 0.11333 0.0
Co621 Co 0.40774 0.19343 0.10174 0.0
O622 O 0.44042 0.20606 0.11714 0.0
C623 C 0.39176 0.22611 0.05804 0.0
C624 C 0.36383 0.28323 0.10779 0.0
C625 C 0.44724 0.22984 0.1179 0.0
O626 O 0.393 0.24648 0.07242 0.0
O627 O 0.39464 0.2032 0.06678 0.0
O628 O 0.39052 0.24797 0.1493 0.0
O629 O 0.38663 0.21675 0.12099 0.0
Co630 Co 0.25064 0.3906 0.89493 0.0
O631 O 0.25833 0.35444 0.89861 0.0
O632 O 0.28728 0.38612 0.89782 0.0
C633 C 0.2222 0.38553 0.86225 0.0
O634 O 0.25075 0.42978 0.89031 0.0
Co635 Co 0.19566 0.41271 0.90185 0.0
O636 O 0.21064 0.44456 0.88662 0.0
C637 C 0.22701 0.39827 0.9476 0.0
C638 C 0.28234 0.36147 0.89924 0.0
C639 C 0.23485 0.44804 0.8857 0.0
O640 O 0.24706 0.3944 0.93367 0.0
O641 O 0.20497 0.40334 0.93806 0.0
O642 O 0.24668 0.38607 0.85745 0.0
O643 O 0.21603 0.38613 0.88629 0.0
Co644 Co 0.61172 0.25294 0.88882 0.0
O645 O 0.61209 0.24555 0.8523 0.0
O646 O 0.61064 0.21597 0.88309 0.0
C647 C 0.64367 0.2829 0.88848 0.0
O648 O 0.61191 0.25275 0.92826 0.0
Co649 Co 0.59726 0.30678 0.90945 0.0
O650 O 0.60908 0.29338 0.94327 0.0
C651 C 0.5563 0.27153 0.89114 0.0
C652 C 0.61117 0.22127 0.85853 0.0
C653 C 0.61217 0.26928 0.94694 0.0
O654 O 0.57314 0.25383 0.88827 0.0
O655 O 0.56217 0.29474 0.89784 0.0
O656 O 0.64874 0.25839 0.88892 0.0
O657 O 0.61969 0.28848 0.88592 0.0
Co658 Co 0.39748 0.75025 0.88827 0.0
O659 O 0.39579 0.75731 0.85169 0.0
O660 O 0.39808 0.78715 0.88239 0.0
C661 C 0.36588 0.72002 0.889 0.0
O662 O 0.39859 0.75065 0.92783 0.0
Co663 Co 0.41323 0.69659 0.90812 0.0
O664 O 0.402 0.70995 0.94224 0.0
C665 C 0.45305 0.73208 0.88832 0.0
C666 C 0.39679 0.78165 0.85785 0.0
C667 C 0.39883 0.73401 0.94631 0.0
O668 O 0.43601 0.74969 0.8864 0.0
O669 O 0.44764 0.70883 0.89502 0.0
O670 O 0.36053 0.74448 0.88958 0.0
O671 O 0.3898 0.71468 0.88557 0.0
C672 C 0.11269 0.31137 0.29567 0.0
C673 C 0.11295 0.33768 0.30276 0.0
H674 H 0.11373 0.27202 0.30852 0.0
C675 C 0.11398 0.34436 0.32903 0.0
H676 H 0.11185 0.30561 0.27552 0.0
C677 C 0.11512 0.32514 0.34783 0.0
C678 C 0.11516 0.29884 0.34076 0.0
H679 H 0.11421 0.36443 0.33509 0.0
H680 H 0.11618 0.33097 0.36794 0.0
C681 C 0.11375 0.29211 0.31451 0.0
C682 C 0.67366 0.11361 0.34973 0.0
C683 C 0.69953 0.11169 0.34244 0.0
H684 H 0.63456 0.11632 0.33691 0.0
C685 C 0.70557 0.11034 0.316 0.0
H686 H 0.6684 0.11464 0.36995 0.0
C687 C 0.68638 0.11127 0.29726 0.0
C688 C 0.66057 0.1136 0.30438 0.0
H689 H 0.72526 0.10873 0.30963 0.0
H690 H 0.69189 0.11038 0.27709 0.0
C691 C 0.65432 0.11458 0.33083 0.0
C692 C 0.89293 0.71123 0.31672 0.0
C693 C 0.89226 0.7043 0.3429 0.0
H694 H 0.89403 0.69806 0.27745 0.0
C695 C 0.89275 0.67795 0.3495 0.0
H696 H 0.89258 0.73136 0.31106 0.0
C697 C 0.89363 0.65891 0.33034 0.0
C698 C 0.89396 0.66578 0.30414 0.0
H699 H 0.89227 0.67196 0.36954 0.0
H700 H 0.8938 0.63879 0.33607 0.0
C701 C 0.89374 0.69214 0.2975 0.0
C702 C 0.32187 0.89148 0.29697 0.0
C703 C 0.34801 0.89333 0.30337 0.0
H704 H 0.28327 0.88912 0.31017 0.0
C705 C 0.35496 0.89436 0.32969 0.0
H706 H 0.31569 0.89064 0.27698 0.0
C707 C 0.33601 0.89342 0.34909 0.0
C708 C 0.30986 0.89148 0.34244 0.0
H709 H 0.37495 0.89574 0.33527 0.0
H710 H 0.3418 0.89423 0.36919 0.0
C711 C 0.30315 0.89058 0.31613 0.0
C712 C 0.11178 0.69055 0.70666 0.0
C713 C 0.11222 0.66414 0.70029 0.0
H714 H 0.1125 0.72949 0.69298 0.0
C715 C 0.11348 0.6569 0.67408 0.0
H716 H 0.11076 0.6968 0.72663 0.0
C717 C 0.11453 0.67574 0.65468 0.0
C718 C 0.11429 0.70215 0.66115 0.0
H719 H 0.11381 0.6367 0.66854 0.0
H720 H 0.11564 0.66963 0.63467 0.0
C721 C 0.11276 0.70931 0.68733 0.0
C722 C 0.33064 0.11404 0.65646 0.0
C723 C 0.30447 0.11474 0.66308 0.0
H724 H 0.36948 0.11208 0.66996 0.0
C725 C 0.29754 0.11332 0.68921 0.0
H726 H 0.33662 0.11505 0.63645 0.0
C727 C 0.31638 0.11172 0.70836 0.0
C728 C 0.34258 0.11137 0.7018 0.0
H729 H 0.27757 0.11377 0.69492 0.0
H730 H 0.31037 0.11097 0.72838 0.0
C731 C 0.34951 0.11229 0.67562 0.0
C732 C 0.8922 0.32624 0.6558 0.0
C733 C 0.89437 0.30012 0.66253 0.0
H734 H 0.88974 0.36529 0.66906 0.0
C735 C 0.89651 0.29354 0.68882 0.0
H736 H 0.89056 0.33193 0.63574 0.0
C737 C 0.89608 0.31271 0.70801 0.0
C738 C 0.89346 0.33879 0.70125 0.0
H739 H 0.89826 0.27355 0.6946 0.0
H740 H 0.89752 0.30709 0.7281 0.0
C741 C 0.89172 0.34535 0.67494 0.0
C742 C 0.7117 0.8913 0.69187 0.0
C743 C 0.70545 0.88893 0.66558 0.0
H744 H 0.69762 0.89328 0.7307 0.0
C745 C 0.67947 0.88765 0.65824 0.0
H746 H 0.73153 0.8924 0.69806 0.0
C747 C 0.66012 0.88821 0.6768 0.0
C748 C 0.66632 0.89001 0.70311 0.0
H749 H 0.67399 0.88587 0.63811 0.0
H750 H 0.64033 0.88683 0.67052 0.0
C751 C 0.69227 0.89183 0.7105 0.0
C752 C 0.31409 0.10553 0.29364 0.0
C753 C 0.34024 0.10531 0.30039 0.0
H754 H 0.27525 0.10781 0.30704 0.0
C755 C 0.34711 0.10635 0.3266 0.0
H756 H 0.30819 0.10472 0.27357 0.0
C757 C 0.32831 0.10828 0.34564 0.0
C758 C 0.30219 0.10907 0.33894 0.0
H759 H 0.36706 0.10624 0.33243 0.0
H760 H 0.33434 0.1095 0.36565 0.0
C761 C 0.29521 0.10733 0.31277 0.0
C762 C 0.89646 0.29739 0.31243 0.0
C763 C 0.89596 0.30419 0.33877 0.0
H764 H 0.89624 0.31041 0.27323 0.0
C765 C 0.89529 0.33053 0.34555 0.0
H766 H 0.89705 0.2773 0.30651 0.0
C767 C 0.89479 0.34959 0.32637 0.0
C768 C 0.89501 0.34269 0.30004 0.0
H769 H 0.89494 0.33641 0.36566 0.0
H770 H 0.89404 0.36971 0.33216 0.0
C771 C 0.89602 0.31639 0.29332 0.0
C772 C 0.67605 0.89005 0.35095 0.0
C773 C 0.70216 0.89017 0.34396 0.0
H774 H 0.63697 0.8911 0.3379 0.0
C775 C 0.70876 0.89196 0.31781 0.0
H776 H 0.67037 0.88871 0.37103 0.0
C777 C 0.68968 0.89328 0.29896 0.0
C778 C 0.66355 0.89288 0.30583 0.0
H779 H 0.72866 0.89215 0.31184 0.0
H780 H 0.69551 0.89447 0.27891 0.0
C781 C 0.65689 0.89143 0.33204 0.0
C782 C 0.11224 0.65424 0.32446 0.0
C783 C 0.11206 0.66118 0.2982 0.0
H784 H 0.11208 0.66736 0.36386 0.0
C785 C 0.11108 0.68748 0.2917 0.0
H786 H 0.11295 0.63412 0.33008 0.0
C787 C 0.11066 0.70647 0.31099 0.0
C788 C 0.11114 0.69961 0.33726 0.0
H789 H 0.1109 0.69347 0.27166 0.0
H790 H 0.11012 0.72657 0.30527 0.0
C791 C 0.11174 0.67328 0.34381 0.0
C792 C 0.31943 0.89514 0.70566 0.0
C793 C 0.34549 0.89615 0.69898 0.0
H794 H 0.28063 0.89392 0.69259 0.0
C795 C 0.35221 0.89681 0.67264 0.0
H796 H 0.31354 0.8946 0.72573 0.0
C797 C 0.33316 0.89634 0.65341 0.0
C798 C 0.30708 0.89528 0.66023 0.0
H799 H 0.37216 0.89757 0.66687 0.0
H800 H 0.33883 0.89684 0.63329 0.0
C801 C 0.30051 0.89473 0.68658 0.0
C802 C 0.11831 0.34794 0.67534 0.0
C803 C 0.1159 0.34153 0.70153 0.0
H804 H 0.12108 0.33409 0.63652 0.0
C805 C 0.11365 0.31535 0.70857 0.0
H806 H 0.12003 0.36793 0.66935 0.0
C807 C 0.11427 0.29589 0.68976 0.0
C808 C 0.11711 0.30231 0.6636 0.0
H809 H 0.11172 0.30984 0.72866 0.0
H810 H 0.11275 0.27587 0.69572 0.0
C811 C 0.11892 0.32851 0.65657 0.0
C812 C 0.70392 0.11358 0.6832 0.0
C813 C 0.69775 0.1118 0.65683 0.0
H814 H 0.69062 0.11503 0.72199 0.0
C815 C 0.67172 0.11033 0.6496 0.0
H816 H 0.7237 0.1148 0.68958 0.0
C817 C 0.65234 0.11041 0.66858 0.0
C818 C 0.65879 0.11205 0.69498 0.0
H819 H 0.66635 0.10893 0.62941 0.0
H820 H 0.63245 0.10908 0.66262 0.0
C821 C 0.68481 0.11374 0.70191 0.0
C822 C 0.89132 0.67815 0.66038 0.0
C823 C 0.89223 0.70432 0.66767 0.0
H824 H 0.89024 0.63886 0.67249 0.0
C825 C 0.8935 0.71075 0.69407 0.0
H826 H 0.89036 0.67247 0.64023 0.0
C827 C 0.89335 0.69121 0.71283 0.0
C828 C 0.892 0.66505 0.70535 0.0
H829 H 0.89424 0.73079 0.70021 0.0
H830 H 0.89397 0.69656 0.73308 0.0
C831 C 0.89125 0.6588 0.67895 0.0
C832 C 0.29903 0.31459 0.10355 0.0
C833 C 0.30524 0.34102 0.10522 0.0
H834 H 0.31253 0.27593 0.10294 0.0
C835 C 0.33125 0.34862 0.10655 0.0
H836 H 0.27924 0.30804 0.1024 0.0
C837 C 0.35059 0.33001 0.10687 0.0
C838 C 0.34418 0.30354 0.10591 0.0
H839 H 0.33664 0.36888 0.10784 0.0
H840 H 0.37043 0.3363 0.10838 0.0
C841 C 0.31821 0.29613 0.1039 0.0
C842 C 0.35166 0.67351 0.88741 0.0
C843 C 0.34568 0.69972 0.89074 0.0
H844 H 0.33735 0.63456 0.88429 0.0
C845 C 0.32001 0.7065 0.89476 0.0
H846 H 0.37128 0.66768 0.88433 0.0
C847 C 0.30062 0.68756 0.89481 0.0
C848 C 0.30648 0.66144 0.89076 0.0
H849 H 0.31479 0.72652 0.89747 0.0
H850 H 0.28097 0.69347 0.89755 0.0
C851 C 0.33223 0.65455 0.88736 0.0
C852 C 0.29684 0.31561 0.9005 0.0
C853 C 0.30301 0.34213 0.90036 0.0
H854 H 0.31062 0.27691 0.89983 0.0
C855 C 0.329 0.34981 0.90026 0.0
H856 H 0.27703 0.30902 0.90058 0.0
C857 C 0.34838 0.3313 0.89986 0.0
C858 C 0.34211 0.30478 0.89947 0.0
H859 H 0.33439 0.37011 0.90015 0.0
H860 H 0.36821 0.33777 0.89947 0.0
C861 C 0.31614 0.29718 0.90003 0.0
C862 C 0.69001 0.29583 0.89158 0.0
C863 C 0.6642 0.30297 0.88936 0.0
H864 H 0.7293 0.30838 0.89256 0.0
C865 C 0.65838 0.32931 0.88709 0.0
H866 H 0.69513 0.2757 0.89341 0.0
C867 C 0.67801 0.34806 0.88654 0.0
C868 C 0.70384 0.34085 0.88829 0.0
H869 H 0.63869 0.33542 0.88538 0.0
H870 H 0.67295 0.36818 0.88449 0.0
C871 C 0.7096 0.31456 0.89107 0.0
C872 C 0.71043 0.68868 0.89972 0.0
C873 C 0.70377 0.66227 0.89913 0.0
H874 H 0.69737 0.72765 0.90047 0.0
C875 C 0.67768 0.65506 0.89963 0.0
H876 H 0.73034 0.69492 0.89947 0.0
C877 C 0.65866 0.67393 0.90019 0.0
C878 C 0.6654 0.70036 0.90034 0.0
H879 H 0.67193 0.63486 0.89924 0.0
H880 H 0.63871 0.66783 0.90015 0.0
C881 C 0.6915 0.70748 0.90035 0.0
C882 C 0.65656 0.67495 0.10714 0.0
C883 C 0.66324 0.70136 0.10626 0.0
H884 H 0.67006 0.63593 0.10864 0.0
C885 C 0.68934 0.70849 0.10543 0.0
H886 H 0.63662 0.66886 0.10782 0.0
C887 C 0.70833 0.68982 0.10602 0.0
C888 C 0.7018 0.66345 0.10737 0.0
H889 H 0.69523 0.72864 0.10468 0.0
H890 H 0.72821 0.69615 0.10563 0.0
C891 C 0.67569 0.65613 0.10765 0.0
C892 C 0.32183 0.70241 0.10357 0.0
C893 C 0.34752 0.69554 0.10751 0.0
H894 H 0.28272 0.68981 0.10118 0.0
C895 C 0.35337 0.6694 0.11125 0.0
H896 H 0.31665 0.72237 0.10046 0.0
C897 C 0.33372 0.65063 0.11175 0.0
C898 C 0.30799 0.65772 0.10836 0.0
H899 H 0.37299 0.66355 0.1143 0.0
H900 H 0.33864 0.63065 0.11511 0.0
C901 C 0.30232 0.68374 0.10394 0.0
C902 C 0.67401 0.35085 0.11306 0.0
C903 C 0.69993 0.34382 0.11174 0.0
H904 H 0.63471 0.33773 0.11347 0.0
C905 C 0.70599 0.3176 0.10927 0.0
H906 H 0.66878 0.37096 0.1149 0.0
C907 C 0.68665 0.29875 0.1085 0.0
C908 C 0.66072 0.3056 0.11011 0.0
H909 H 0.72574 0.31153 0.10814 0.0
H910 H 0.69214 0.2787 0.10677 0.0
C911 C 0.65452 0.33187 0.11222 0.0
C912 C 0.61641 0.84497 0.82936 0.0
C913 C 0.61526 0.83818 0.80314 0.0
H914 H 0.61915 0.83185 0.86828 0.0
C915 C 0.61572 0.81186 0.79612 0.0
H916 H 0.61616 0.86504 0.83538 0.0
C917 C 0.61741 0.79269 0.81504 0.0
C918 C 0.61869 0.79956 0.84127 0.0
H919 H 0.61489 0.80603 0.776 0.0
H920 H 0.61775 0.77258 0.80915 0.0
C921 C 0.61815 0.82588 0.84821 0.0
C922 C 0.17453 0.61337 0.84957 0.0
C923 C 0.2005 0.61323 0.8423 0.0
H924 H 0.13531 0.61429 0.83669 0.0
C925 C 0.20663 0.61348 0.81583 0.0
H926 H 0.1692 0.61312 0.86979 0.0
C927 C 0.18744 0.61398 0.79707 0.0
C928 C 0.1615 0.61439 0.80417 0.0
H929 H 0.22639 0.61325 0.80944 0.0
H930 H 0.19303 0.61424 0.77692 0.0
C931 C 0.15517 0.61402 0.83063 0.0
C932 C 0.39191 0.16092 0.82816 0.0
C933 C 0.39269 0.16726 0.80184 0.0
H934 H 0.39073 0.17442 0.86705 0.0
C935 C 0.39384 0.19348 0.7947 0.0
H936 H 0.39108 0.14095 0.83436 0.0
C937 C 0.39356 0.21297 0.8137 0.0
C938 C 0.39221 0.20643 0.84002 0.0
H939 H 0.39444 0.19891 0.77451 0.0
H940 H 0.39403 0.23303 0.8078 0.0
C941 C 0.3917 0.1802 0.84697 0.0
C942 C 0.85464 0.39485 0.83008 0.0
C943 C 0.84784 0.39457 0.80372 0.0
H944 H 0.84122 0.3943 0.86947 0.0
C945 C 0.82172 0.39371 0.79709 0.0
H946 H 0.87461 0.39547 0.83581 0.0
C947 C 0.80287 0.39299 0.8161 0.0
C948 C 0.80942 0.3931 0.84245 0.0
H949 H 0.81568 0.39347 0.77705 0.0
H950 H 0.783 0.39227 0.80998 0.0
C951 C 0.83555 0.39411 0.84933 0.0
C952 C 0.61276 0.17566 0.15505 0.0
C953 C 0.61216 0.20205 0.16152 0.0
H954 H 0.61267 0.13664 0.16894 0.0
C955 C 0.61065 0.20923 0.1877 0.0
H956 H 0.61386 0.16955 0.13504 0.0
C957 C 0.61005 0.19048 0.20704 0.0
C958 C 0.61086 0.16409 0.20067 0.0
H959 H 0.61013 0.2294 0.19333 0.0
H960 H 0.60902 0.19673 0.22701 0.0
C961 C 0.61208 0.15684 0.17447 0.0
C962 C 0.81498 0.6131 0.21036 0.0
C963 C 0.84101 0.61434 0.20325 0.0
H964 H 0.7758 0.61304 0.19746 0.0
C965 C 0.84739 0.61562 0.17697 0.0
H966 H 0.80949 0.61208 0.23052 0.0
C967 C 0.8282 0.61622 0.15819 0.0
C968 C 0.80215 0.6155 0.16521 0.0
H969 H 0.86724 0.61654 0.17086 0.0
H970 H 0.83388 0.61756 0.1381 0.0
C971 C 0.79569 0.61368 0.19148 0.0
C972 C 0.39189 0.82453 0.15579 0.0
C973 C 0.39443 0.79846 0.16243 0.0
H974 H 0.38921 0.86348 0.16905 0.0
C975 C 0.39701 0.79187 0.18869 0.0
H976 H 0.38988 0.83025 0.13577 0.0
C977 C 0.39674 0.81103 0.20794 0.0
C978 C 0.39382 0.83708 0.20123 0.0
H979 H 0.39904 0.77188 0.1944 0.0
H980 H 0.39855 0.80544 0.22801 0.0
C981 C 0.39153 0.84359 0.17494 0.0
C982 C 0.17853 0.38377 0.15778 0.0
C983 C 0.20456 0.38446 0.16496 0.0
H984 H 0.13947 0.38446 0.17018 0.0
C985 C 0.211 0.38684 0.19121 0.0
H986 H 0.17288 0.38195 0.1377 0.0
C987 C 0.19167 0.38831 0.20992 0.0
C988 C 0.16564 0.3874 0.20264 0.0
H989 H 0.23088 0.38753 0.19728 0.0
H990 H 0.19711 0.38992 0.23008 0.0
C991 C 0.15931 0.38526 0.17639 0.0
C992 C 0.82912 0.61039 0.84813 0.0
C993 C 0.80302 0.61143 0.84139 0.0
H994 H 0.86788 0.60804 0.83494 0.0
C995 C 0.79608 0.61001 0.8152 0.0
H996 H 0.83512 0.61138 0.86817 0.0
C997 C 0.81495 0.60816 0.79611 0.0
C998 C 0.84109 0.60758 0.80288 0.0
H999 H 0.77613 0.61071 0.80944 0.0
H1000 H 0.80907 0.60753 0.77602 0.0
C1001 C 0.84794 0.60842 0.8291 0.0
C1002 C 0.39592 0.81475 0.7924 0.0
C1003 C 0.39542 0.84095 0.79954 0.0
H1004 H 0.39664 0.77542 0.80525 0.0
C1005 C 0.39578 0.84747 0.82597 0.0
H1006 H 0.39564 0.80912 0.77221 0.0
C1007 C 0.3964 0.82825 0.84487 0.0
C1008 C 0.39657 0.80203 0.83779 0.0
H1009 H 0.39543 0.8675 0.83215 0.0
H1010 H 0.39655 0.83397 0.86503 0.0
C1011 C 0.39644 0.79547 0.81135 0.0
C1012 C 0.20905 0.3894 0.81586 0.0
C1013 C 0.20235 0.38744 0.842 0.0
H1014 H 0.19582 0.39295 0.77695 0.0
C1015 C 0.17624 0.38774 0.84891 0.0
H1016 H 0.22897 0.3893 0.80997 0.0
C1017 C 0.1572 0.38992 0.83005 0.0
C1018 C 0.16389 0.3918 0.8039 0.0
H1019 H 0.17044 0.38625 0.86895 0.0
H1020 H 0.13728 0.38997 0.83595 0.0
C1021 C 0.19001 0.39157 0.797 0.0
C1022 C 0.61284 0.15537 0.82607 0.0
C1023 C 0.61113 0.16202 0.79981 0.0
H1024 H 0.61407 0.16888 0.86531 0.0
C1025 C 0.6089 0.18817 0.79311 0.0
H1026 H 0.61454 0.13536 0.83182 0.0
C1027 C 0.60881 0.20733 0.81223 0.0
C1028 C 0.61077 0.20076 0.83849 0.0
H1029 H 0.60755 0.19391 0.77305 0.0
H1030 H 0.60728 0.22733 0.80637 0.0
C1031 C 0.61257 0.17456 0.84524 0.0
C1032 C 0.85078 0.39331 0.17051 0.0
C1033 C 0.84436 0.39303 0.19693 0.0
H1034 H 0.83692 0.39369 0.13135 0.0
C1035 C 0.81839 0.39286 0.20397 0.0
H1036 H 0.87066 0.39347 0.16449 0.0
C1037 C 0.79924 0.39301 0.18514 0.0
C1038 C 0.80551 0.39332 0.15873 0.0
H1039 H 0.81274 0.39266 0.22411 0.0
H1040 H 0.77943 0.3929 0.19141 0.0
C1041 C 0.83149 0.39344 0.15155 0.0
C1042 C 0.62048 0.84794 0.17685 0.0
C1043 C 0.61699 0.84151 0.20291 0.0
H1044 H 0.62461 0.83422 0.13816 0.0
C1045 C 0.6146 0.81531 0.20986 0.0
H1046 H 0.62241 0.86794 0.17093 0.0
C1047 C 0.61595 0.79586 0.19104 0.0
C1048 C 0.61963 0.80235 0.165 0.0
H1049 H 0.61193 0.80979 0.22986 0.0
H1050 H 0.61411 0.77584 0.19687 0.0
C1051 C 0.62178 0.82858 0.1581 0.0
C1052 C 0.18822 0.61357 0.20183 0.0
C1053 C 0.16232 0.61126 0.19472 0.0
H1054 H 0.22716 0.6154 0.18953 0.0
C1055 C 0.15603 0.60933 0.16829 0.0
H1056 H 0.19379 0.61517 0.22196 0.0
C1057 C 0.17541 0.60942 0.14942 0.0
C1058 C 0.20134 0.61152 0.15672 0.0
H1059 H 0.13621 0.60753 0.16221 0.0
H1060 H 0.17012 0.60764 0.12923 0.0
C1061 C 0.20742 0.61374 0.18313 0.0
C1062 C 0.38882 0.17724 0.15823 0.0
C1063 C 0.38947 0.20344 0.1654 0.0
H1064 H 0.38834 0.13802 0.17047 0.0
C1065 C 0.39065 0.20999 0.1918 0.0
H1066 H 0.3879 0.17147 0.13811 0.0
C1067 C 0.39081 0.19051 0.21065 0.0
C1068 C 0.38989 0.16431 0.20327 0.0
H1069 H 0.39117 0.23005 0.19785 0.0
H1070 H 0.39143 0.19593 0.23088 0.0
C1071 C 0.38908 0.15798 0.17688 0.0
C1072 C 0.82028 0.79723 0.60997 0.0
C1073 C 0.8463 0.80471 0.61012 0.0
H1074 H 0.78128 0.80899 0.61004 0.0
C1075 C 0.85267 0.83121 0.60985 0.0
H1076 H 0.8146 0.77701 0.61007 0.0
C1077 C 0.83327 0.8498 0.60982 0.0
C1078 C 0.80725 0.84211 0.61007 0.0
H1079 H 0.87255 0.83756 0.60995 0.0
H1080 H 0.83862 0.8701 0.60986 0.0
C1081 C 0.80107 0.81563 0.60996 0.0
C1082 C 0.85037 0.17485 0.38666 0.0
C1083 C 0.84416 0.20111 0.38905 0.0
H1084 H 0.83635 0.13571 0.38412 0.0
C1085 C 0.81828 0.20784 0.39153 0.0
H1086 H 0.87015 0.16905 0.38476 0.0
C1087 C 0.799 0.18881 0.39116 0.0
C1088 C 0.80512 0.16259 0.38828 0.0
H1089 H 0.81285 0.22789 0.39346 0.0
H1090 H 0.77923 0.19471 0.39286 0.0
C1091 C 0.83103 0.15576 0.38626 0.0
C1092 C 0.79719 0.81481 0.39868 0.0
C1093 C 0.80354 0.84129 0.39894 0.0
H1094 H 0.81069 0.77601 0.39867 0.0
C1095 C 0.82956 0.84879 0.39988 0.0
H1096 H 0.77735 0.80835 0.39802 0.0
C1097 C 0.84881 0.83013 0.40028 0.0
C1098 C 0.84238 0.80364 0.39974 0.0
H1099 H 0.83508 0.86905 0.40014 0.0
H1100 H 0.86868 0.83646 0.40078 0.0
C1101 C 0.81635 0.79623 0.39908 0.0
C1102 C 0.19031 0.79426 0.39142 0.0
C1103 C 0.16455 0.8015 0.389 0.0
H1104 H 0.22965 0.80667 0.39289 0.0
C1105 C 0.15885 0.82788 0.38693 0.0
H1106 H 0.19535 0.7741 0.39311 0.0
C1107 C 0.17856 0.84657 0.38676 0.0
C1108 C 0.20435 0.83926 0.38869 0.0
H1109 H 0.13919 0.83408 0.38509 0.0
H1110 H 0.17358 0.86673 0.38484 0.0
C1111 C 0.20999 0.81293 0.39127 0.0
C1112 C 0.20958 0.18697 0.39513 0.0
C1113 C 0.20295 0.16056 0.3957 0.0
H1114 H 0.19653 0.22591 0.39486 0.0
C1115 C 0.17688 0.15335 0.39687 0.0
H1116 H 0.22947 0.19322 0.3943 0.0
C1117 C 0.15784 0.17223 0.39718 0.0
C1118 C 0.16457 0.19864 0.39636 0.0
H1119 H 0.17116 0.13314 0.39734 0.0
H1120 H 0.1379 0.16615 0.39787 0.0
C1121 C 0.19065 0.20575 0.39548 0.0
C1122 C 0.17735 0.15605 0.60685 0.0
C1123 C 0.20337 0.16372 0.60721 0.0
H1124 H 0.13808 0.16822 0.60691 0.0
C1125 C 0.20955 0.19021 0.60733 0.0
H1126 H 0.17198 0.13575 0.60674 0.0
C1127 C 0.19029 0.20863 0.60739 0.0
C1128 C 0.16426 0.20112 0.60737 0.0
H1129 H 0.22934 0.19682 0.60753 0.0
H1130 H 0.19591 0.22886 0.60765 0.0
C1131 C 0.15794 0.17461 0.60695 0.0
C1132 C 0.79963 0.18641 0.60934 0.0
C1133 C 0.80509 0.16011 0.61212 0.0
H1134 H 0.81437 0.22494 0.6065 0.0
C1135 C 0.83086 0.15253 0.61365 0.0
H1136 H 0.78002 0.19289 0.60803 0.0
C1137 C 0.85077 0.17103 0.6127 0.0
C1138 C 0.84519 0.1974 0.61029 0.0
H1139 H 0.83563 0.13234 0.61572 0.0
H1140 H 0.87043 0.16475 0.61414 0.0
C1141 C 0.8194 0.2048 0.60847 0.0
C1142 C 0.17613 0.85108 0.61342 0.0
C1143 C 0.20209 0.84418 0.61226 0.0
H1144 H 0.13688 0.8378 0.61337 0.0
C1145 C 0.20826 0.818 0.60951 0.0
H1146 H 0.17081 0.87115 0.61547 0.0
C1147 C 0.189 0.79908 0.60832 0.0
C1148 C 0.16302 0.8058 0.60981 0.0
H1149 H 0.22805 0.81203 0.60846 0.0
H1150 H 0.19457 0.77907 0.60639 0.0
C1151 C 0.15672 0.83203 0.61219 0.0
C1152 C 0.11368 0.25062 0.48883 0.0
C1153 C 0.12049 0.27293 0.47484 0.0
H1154 H 0.10698 0.23427 0.52638 0.0
C1155 C 0.12935 0.29493 0.48828 0.0
H1156 H 0.10686 0.23337 0.4789 0.0
C1157 C 0.12942 0.29545 0.51512 0.0
C1158 C 0.12059 0.274 0.52925 0.0
H1159 H 0.13525 0.31225 0.47803 0.0
H1160 H 0.1354 0.31315 0.52479 0.0
C1161 C 0.11373 0.25115 0.51594 0.0
C1162 C 0.7515 0.10907 0.51352 0.0
C1163 C 0.77269 0.11886 0.52751 0.0
H1164 H 0.73598 0.10019 0.47586 0.0
C1165 C 0.79274 0.13114 0.514 0.0
H1166 H 0.73577 0.09952 0.52346 0.0
C1167 C 0.79284 0.13155 0.4871 0.0
C1168 C 0.77291 0.11968 0.47292 0.0
H1169 H 0.80911 0.1393 0.52423 0.0
H1170 H 0.80931 0.13999 0.47736 0.0
C1171 C 0.75161 0.10947 0.48632 0.0
C1172 C 0.89512 0.75286 0.49187 0.0
C1173 C 0.88898 0.73024 0.47786 0.0
H1174 H 0.90122 0.76981 0.52944 0.0
C1175 C 0.88088 0.7081 0.49135 0.0
H1176 H 0.90135 0.77024 0.48194 0.0
C1177 C 0.88076 0.70786 0.51821 0.0
C1178 C 0.88881 0.72973 0.53239 0.0
H1179 H 0.87551 0.69051 0.48113 0.0
H1180 H 0.87527 0.69007 0.52786 0.0
C1181 C 0.89506 0.7526 0.51902 0.0
C1182 C 0.2175 0.87023 0.48771 0.0
C1183 C 0.23712 0.8827 0.47374 0.0
H1184 H 0.20096 0.86254 0.52464 0.0
C1185 C 0.25781 0.89399 0.48741 0.0
H1186 H 0.20149 0.86101 0.47776 0.0
C1187 C 0.25751 0.89486 0.51463 0.0
C1188 C 0.2365 0.88447 0.52835 0.0
H1189 H 0.27317 0.9038 0.47713 0.0
H1190 H 0.27265 0.90528 0.52475 0.0
C1191 C 0.21718 0.87112 0.51461 0.0
C1192 C 0.11164 0.72453 0.50518 0.0
C1193 C 0.1139 0.74264 0.52549 0.0
H1194 H 0.10969 0.71823 0.46424 0.0
C1195 C 0.11756 0.76888 0.51926 0.0
H1196 H 0.10893 0.70415 0.5092 0.0
C1197 C 0.11795 0.77693 0.49352 0.0
C1198 C 0.11481 0.75898 0.47322 0.0
H1199 H 0.11955 0.78341 0.53429 0.0
H1200 H 0.12024 0.79739 0.48958 0.0
C1201 C 0.11216 0.7326 0.47935 0.0
C1202 C 0.25501 0.11377 0.48764 0.0
C1203 C 0.2776 0.11939 0.47378 0.0
H1204 H 0.23798 0.10848 0.52509 0.0
C1205 C 0.29954 0.1277 0.48738 0.0
H1206 H 0.23777 0.10741 0.47764 0.0
C1207 C 0.29965 0.12833 0.51425 0.0
C1208 C 0.27782 0.12065 0.52827 0.0
H1209 H 0.31709 0.13271 0.47728 0.0
H1210 H 0.31729 0.13378 0.52406 0.0
C1211 C 0.25513 0.1144 0.51476 0.0
C1212 C 0.89087 0.23379 0.51995 0.0
C1213 C 0.89437 0.26002 0.52656 0.0
H1214 H 0.88826 0.20547 0.48986 0.0
C1215 C 0.89628 0.27827 0.50651 0.0
H1216 H 0.88913 0.21915 0.53478 0.0
C1217 C 0.89566 0.27037 0.48055 0.0
C1218 C 0.89324 0.24402 0.47404 0.0
H1219 H 0.89884 0.29865 0.51081 0.0
H1220 H 0.89789 0.28487 0.46565 0.0
C1221 C 0.89037 0.22591 0.49409 0.0
C1222 C 0.75361 0.89 0.49091 0.0
C1223 C 0.73096 0.88369 0.47738 0.0
H1224 H 0.77108 0.89592 0.52813 0.0
C1225 C 0.70954 0.87457 0.49115 0.0
H1226 H 0.77046 0.89694 0.48072 0.0
C1227 C 0.70991 0.87388 0.51798 0.0
C1228 C 0.7317 0.88239 0.53173 0.0
H1229 H 0.69199 0.869 0.48122 0.0
H1230 H 0.69262 0.86784 0.52799 0.0
C1231 C 0.75398 0.88937 0.518 0.0
C1232 C 0.49564 0.12358 0.22835 0.0
C1233 C 0.47528 0.11709 0.24501 0.0
H1234 H 0.53611 0.12723 0.22324 0.0
C1235 C 0.4809 0.11086 0.27083 0.0
H1236 H 0.49207 0.12875 0.20841 0.0
C1237 C 0.50637 0.1099 0.2794 0.0
C1238 C 0.52676 0.11521 0.26234 0.0
H1239 H 0.4657 0.10581 0.28422 0.0
H1240 H 0.51006 0.10424 0.29918 0.0
C1241 C 0.521 0.12268 0.23689 0.0
C1242 C 0.88698 0.50998 0.22614 0.0
C1243 C 0.89059 0.53006 0.24425 0.0
H1244 H 0.88572 0.46928 0.21906 0.0
C1245 C 0.89426 0.52361 0.27038 0.0
H1246 H 0.8839 0.51418 0.20589 0.0
C1247 C 0.89545 0.49768 0.27797 0.0
C1248 C 0.89286 0.47762 0.25964 0.0
H1249 H 0.89711 0.53856 0.28485 0.0
H1250 H 0.89903 0.49342 0.29813 0.0
C1251 C 0.88803 0.48413 0.23373 0.0
C1252 C 0.51885 0.91402 0.21566 0.0
C1253 C 0.53273 0.898 0.23228 0.0
H1254 H 0.48244 0.92502 0.20118 0.0
C1255 C 0.51914 0.88202 0.24968 0.0
H1256 H 0.52863 0.92704 0.20245 0.0
C1257 C 0.49205 0.88095 0.24899 0.0
C1258 C 0.47856 0.89582 0.23087 0.0
H1259 H 0.52937 0.86954 0.26277 0.0
H1260 H 0.48183 0.86767 0.26155 0.0
C1261 C 0.49229 0.9129 0.21493 0.0
C1262 C 0.11234 0.50634 0.27664 0.0
C1263 C 0.1148 0.52609 0.25811 0.0
H1264 H 0.11064 0.46558 0.28389 0.0
C1265 C 0.11948 0.51914 0.23225 0.0
H1266 H 0.10889 0.51093 0.29676 0.0
C1267 C 0.12045 0.49316 0.2249 0.0
C1268 C 0.11689 0.47338 0.2432 0.0
H1269 H 0.12169 0.53374 0.21745 0.0
H1270 H 0.12338 0.48861 0.20467 0.0
C1271 C 0.11344 0.48028 0.26927 0.0
C1272 C 0.49919 0.88543 0.77625 0.0
C1273 C 0.47928 0.89083 0.75882 0.0
H1274 H 0.53942 0.88124 0.78218 0.0
C1275 C 0.48546 0.89488 0.73266 0.0
H1276 H 0.49519 0.88196 0.7965 0.0
C1277 C 0.51103 0.89455 0.72438 0.0
C1278 C 0.53101 0.89 0.74204 0.0
H1279 H 0.47063 0.89903 0.71867 0.0
H1280 H 0.51516 0.89844 0.70424 0.0
C1281 C 0.52465 0.88495 0.76798 0.0
C1282 C 0.11348 0.49799 0.72469 0.0
C1283 C 0.11557 0.47762 0.74247 0.0
H1284 H 0.11072 0.53886 0.71906 0.0
C1285 C 0.11815 0.48369 0.7689 0.0
H1286 H 0.11158 0.49409 0.70418 0.0
C1287 C 0.11754 0.50933 0.77743 0.0
C1288 C 0.11449 0.52965 0.75977 0.0
H1289 H 0.11995 0.46859 0.78321 0.0
H1290 H 0.11896 0.51315 0.79799 0.0
C1291 C 0.11303 0.52371 0.73323 0.0
C1292 C 0.48844 0.12131 0.75371 0.0
C1293 C 0.4746 0.10558 0.77111 0.0
H1294 H 0.52601 0.13342 0.74047 0.0
C1295 C 0.48791 0.08759 0.78603 0.0
H1296 H 0.47858 0.1353 0.74195 0.0
C1297 C 0.51446 0.08648 0.78515 0.0
C1298 C 0.52869 0.10336 0.76936 0.0
H1299 H 0.47776 0.07482 0.7992 0.0
H1300 H 0.52398 0.07287 0.79769 0.0
C1301 C 0.51548 0.12021 0.75286 0.0
C1302 C 0.89382 0.51505 0.75076 0.0
C1303 C 0.88811 0.52878 0.72808 0.0
H1304 H 0.90009 0.47777 0.76772 0.0
C1305 C 0.88102 0.51491 0.70576 0.0
H1306 H 0.8993 0.52525 0.76829 0.0
C1307 C 0.88141 0.48804 0.70545 0.0
C1308 C 0.88901 0.47419 0.72743 0.0
H1309 H 0.87604 0.52487 0.68811 0.0
H1310 H 0.87665 0.47815 0.68754 0.0
C1311 C 0.8943 0.48789 0.75043 0.0
C1312 C 0.28068 0.50386 0.12072 0.0
C1313 C 0.26339 0.52444 0.12174 0.0
H1314 H 0.28554 0.4629 0.1198 0.0
C1315 C 0.23718 0.51886 0.12537 0.0
H1316 H 0.30103 0.50742 0.11811 0.0
C1317 C 0.22829 0.4933 0.12639 0.0
C1318 C 0.24539 0.4727 0.12375 0.0
H1319 H 0.22332 0.53422 0.12656 0.0
H1320 H 0.20786 0.48977 0.12824 0.0
C1321 C 0.27178 0.47827 0.1217 0.0
C1322 C 0.23696 0.52068 0.87651 0.0
C1323 C 0.26315 0.52647 0.88015 0.0
H1324 H 0.20755 0.49155 0.87512 0.0
C1325 C 0.28031 0.50592 0.88295 0.0
H1326 H 0.22318 0.53595 0.87404 0.0
C1327 C 0.27129 0.48032 0.88361 0.0
C1328 C 0.24492 0.47468 0.88146 0.0
H1329 H 0.30062 0.50962 0.88569 0.0
H1330 H 0.28494 0.46507 0.88679 0.0
C1331 C 0.22797 0.49513 0.87714 0.0
C1332 C 0.48343 0.27378 0.89306 0.0
C1333 C 0.4767 0.24793 0.88745 0.0
H1334 H 0.51379 0.30161 0.89865 0.0
C1335 C 0.49625 0.23063 0.88098 0.0
H1336 H 0.46887 0.28764 0.89808 0.0
C1337 C 0.52192 0.2386 0.88126 0.0
C1338 C 0.52882 0.26411 0.88809 0.0
H1339 H 0.49182 0.21063 0.87627 0.0
H1340 H 0.5364 0.22447 0.87678 0.0
C1341 C 0.50922 0.28178 0.89343 0.0
C1342 C 0.7807 0.50814 0.88638 0.0
C1343 C 0.76311 0.52822 0.88983 0.0
H1344 H 0.78666 0.46744 0.8839 0.0
C1345 C 0.7369 0.52186 0.89205 0.0
H1346 H 0.80101 0.51226 0.88439 0.0
C1347 C 0.72862 0.49599 0.89181 0.0
C1348 C 0.74635 0.47589 0.88928 0.0
H1349 H 0.7228 0.5368 0.89466 0.0
H1350 H 0.70837 0.49178 0.8942 0.0
C1351 C 0.77244 0.48234 0.88609 0.0
C1352 C 0.48669 0.76507 0.87669 0.0
C1353 C 0.4803 0.7397 0.88425 0.0
H1354 H 0.5163 0.79336 0.87087 0.0
C1355 C 0.50023 0.72244 0.88953 0.0
H1356 H 0.47192 0.77885 0.87216 0.0
C1357 C 0.52587 0.73081 0.88872 0.0
C1358 C 0.53211 0.75663 0.88266 0.0
H1359 H 0.49604 0.70271 0.89525 0.0
H1360 H 0.54068 0.71733 0.89393 0.0
C1361 C 0.51224 0.77342 0.87592 0.0
C1362 C 0.77899 0.50973 0.11799 0.0
C1363 C 0.76166 0.53012 0.11529 0.0
H1364 H 0.78445 0.46891 0.11862 0.0
C1365 C 0.7354 0.52417 0.11248 0.0
H1366 H 0.79933 0.51354 0.12036 0.0
C1367 C 0.72682 0.49843 0.11139 0.0
C1368 C 0.74429 0.47805 0.11316 0.0
H1369 H 0.72148 0.53936 0.11039 0.0
H1370 H 0.70654 0.49457 0.1086 0.0
C1371 C 0.77042 0.48405 0.11697 0.0
C1372 C 0.51792 0.78454 0.14121 0.0
C1373 C 0.53264 0.76737 0.1265 0.0
H1374 H 0.48056 0.7985 0.14987 0.0
C1375 C 0.52003 0.74754 0.11251 0.0
H1376 H 0.52706 0.79979 0.15249 0.0
C1377 C 0.4931 0.74674 0.1111 0.0
C1378 C 0.47865 0.7658 0.12362 0.0
H1379 H 0.5309 0.73407 0.10095 0.0
H1380 H 0.4838 0.73266 0.09854 0.0
C1381 C 0.49127 0.78382 0.13971 0.0
C1382 C 0.5151 0.25519 0.10803 0.0
C1383 C 0.52899 0.23554 0.12021 0.0
H1384 H 0.47769 0.269 0.09779 0.0
C1385 C 0.51575 0.21734 0.13538 0.0
H1386 H 0.5249 0.26941 0.09616 0.0
C1387 C 0.48909 0.21718 0.13643 0.0
C1388 C 0.47492 0.23511 0.12218 0.0
H1389 H 0.52599 0.20221 0.14528 0.0
H1390 H 0.47949 0.2019 0.14713 0.0
C1391 C 0.48813 0.25496 0.10899 0.0
C1392 C 0.61912 0.75523 0.01679 0.0
C1393 C 0.6075 0.77563 0.03028 0.0
H1394 H 0.62854 0.73932 0.97948 0.0
C1395 C 0.59496 0.79485 0.01622 0.0
H1396 H 0.62879 0.74006 0.02718 0.0
C1397 C 0.5948 0.79443 0.98947 0.0
C1398 C 0.60719 0.77478 0.97572 0.0
H1399 H 0.58522 0.81052 0.02588 0.0
H1400 H 0.58492 0.80981 0.97959 0.0
C1401 C 0.61899 0.75482 0.98958 0.0
C1402 C 0.29174 0.58399 0.98562 0.0
C1403 C 0.27551 0.60065 0.97214 0.0
H1404 H 0.30513 0.5706 0.02194 0.0
C1405 C 0.25799 0.61559 0.98628 0.0
H1406 H 0.305 0.57169 0.97539 0.0
C1407 C 0.25806 0.61494 0.01359 0.0
C1408 C 0.27563 0.59933 0.02685 0.0
H1409 H 0.24516 0.62852 0.97637 0.0
H1410 H 0.2453 0.6274 0.02424 0.0
C1411 C 0.29181 0.58335 0.01243 0.0
C1412 C 0.39393 0.25191 0.01673 0.0
C1413 C 0.38824 0.22868 0.02975 0.0
H1414 H 0.3999 0.27028 0.97996 0.0
C1415 C 0.38104 0.20677 0.0152 0.0
H1416 H 0.39942 0.26916 0.02743 0.0
C1417 C 0.38132 0.20742 0.98834 0.0
C1418 C 0.38877 0.23 0.9752 0.0
H1419 H 0.37601 0.1887 0.02455 0.0
H1420 H 0.37653 0.18983 0.97786 0.0
C1421 C 0.39418 0.25257 0.98959 0.0
C1422 C 0.75564 0.39522 0.0141 0.0
C1423 C 0.7344 0.38489 0.02751 0.0
H1424 H 0.77175 0.40439 0.97687 0.0
C1425 C 0.7151 0.37186 0.01347 0.0
H1426 H 0.77079 0.40537 0.02447 0.0
C1427 C 0.71568 0.37122 0.98657 0.0
C1428 C 0.73555 0.38366 0.97293 0.0
H1429 H 0.69872 0.36329 0.02326 0.0
H1430 H 0.69971 0.36221 0.97638 0.0
C1431 C 0.7562 0.39463 0.9869 0.0
C1432 C 0.61714 0.27764 0.99448 0.0
C1433 C 0.61417 0.25992 0.97398 0.0
H1434 H 0.61833 0.28367 0.03531 0.0
C1435 C 0.61144 0.23347 0.97979 0.0
H1436 H 0.61949 0.29813 0.99078 0.0
C1437 C 0.61063 0.2251 0.00551 0.0
C1438 C 0.61267 0.24299 0.02601 0.0
H1439 H 0.60911 0.21926 0.9645 0.0
H1440 H 0.60783 0.20468 0.00929 0.0
C1441 C 0.61646 0.2693 0.02011 0.0
C1442 C 0.7545 0.61412 0.01678 0.0
C1443 C 0.77708 0.61995 0.03065 0.0
H1444 H 0.73757 0.60775 0.97937 0.0
C1445 C 0.79923 0.62737 0.017 0.0
H1446 H 0.73712 0.60842 0.0268 0.0
C1447 C 0.79951 0.62694 0.99014 0.0
C1448 C 0.77763 0.61911 0.97618 0.0
H1449 H 0.81681 0.63251 0.0271 0.0
H1450 H 0.81727 0.63177 0.98033 0.0
C1451 C 0.75477 0.61371 0.98966 0.0
C1452 C 0.39947 0.76937 0.98011 0.0
C1453 C 0.39697 0.74301 0.97361 0.0
H1454 H 0.40248 0.7977 0.01039 0.0
C1455 C 0.39409 0.72494 0.9937 0.0
H1456 H 0.40174 0.78383 0.96518 0.0
C1457 C 0.39446 0.73286 0.01955 0.0
C1458 C 0.39785 0.75909 0.02616 0.0
H1459 H 0.39193 0.70449 0.98951 0.0
H1460 H 0.39258 0.71822 0.03437 0.0
C1461 C 0.39997 0.77731 0.00608 0.0
C1462 C 0.24991 0.38694 0.01674 0.0
C1463 C 0.22908 0.39679 0.03078 0.0
H1464 H 0.26574 0.37945 0.97903 0.0
C1465 C 0.20863 0.40773 0.01719 0.0
H1466 H 0.26602 0.37851 0.0267 0.0
C1467 C 0.20848 0.4083 0.99046 0.0
C1468 C 0.22878 0.39793 0.97617 0.0
H1469 H 0.19245 0.41605 0.02718 0.0
H1470 H 0.19219 0.417 0.98103 0.0
C1471 C 0.24975 0.38749 0.98953 0.0
C1472 C 0.02149 0.62068 0.73645 0.0
C1473 C 0.02757 0.6146 0.76219 0.0
H1474 H 0.99218 0.62538 0.70807 0.0
C1475 C 0.0074 0.61018 0.77975 0.0
H1476 H 0.03643 0.62441 0.72237 0.0
C1477 C 0.98183 0.61084 0.7715 0.0
C1478 C 0.97586 0.61581 0.74548 0.0
H1479 H 0.01134 0.60557 0.79976 0.0
H1480 H 0.9668 0.60662 0.78535 0.0
C1481 C 0.99601 0.62123 0.7282 0.0
C1482 C 0.39206 0.99036 0.75262 0.0
C1483 C 0.38696 0.97572 0.77494 0.0
H1484 H 0.39579 0.02841 0.73638 0.0
C1485 C 0.37796 0.9884 0.79713 0.0
H1486 H 0.39891 0.98109 0.73519 0.0
C1487 C 0.37604 0.01521 0.79778 0.0
C1488 C 0.38317 0.03016 0.77628 0.0
H1489 H 0.37333 0.97767 0.81449 0.0
H1490 H 0.37009 0.02429 0.81566 0.0
C1491 C 0.39021 0.01743 0.7533 0.0
C1492 C 0.01884 0.36925 0.71572 0.0
C1493 C 0.0322 0.38408 0.73425 0.0
H1494 H 0.98258 0.3584 0.69961 0.0
C1495 C 0.01824 0.39668 0.75372 0.0
H1496 H 0.02909 0.35906 0.70067 0.0
C1497 C 0.99125 0.39638 0.75307 0.0
C1498 C 0.97807 0.38348 0.73293 0.0
H1499 H 0.0281 0.40835 0.76817 0.0
H1500 H 0.98086 0.40775 0.76709 0.0
C1501 C 0.99217 0.36893 0.71508 0.0
C1502 C 0.6218 0.994 0.72632 0.0
C1503 C 0.61933 0.97399 0.74453 0.0
H1504 H 0.62292 0.03468 0.71942 0.0
C1505 C 0.61808 0.98052 0.77091 0.0
H1506 H 0.62308 0.98974 0.70584 0.0
C1507 C 0.61797 0.00646 0.77875 0.0
C1508 C 0.61915 0.02646 0.76038 0.0
H1509 H 0.61627 0.96563 0.78549 0.0
H1510 H 0.61611 0.01077 0.79915 0.0
C1511 C 0.62172 0.01986 0.73413 0.0
C1512 C 0.98483 0.39249 0.23035 0.0
C1513 C 0.97843 0.38987 0.25663 0.0
H1514 H 0.0148 0.39486 0.20213 0.0
C1515 C 0.99815 0.38551 0.27456 0.0
H1516 H 0.97012 0.39583 0.216 0.0
C1517 C 0.0237 0.3848 0.26662 0.0
C1518 C 0.03028 0.38862 0.24052 0.0
H1519 H 0.99394 0.38315 0.29492 0.0
H1520 H 0.03834 0.38201 0.28117 0.0
C1521 C 0.01048 0.39197 0.22239 0.0
C1522 C 0.61845 0.00969 0.27806 0.0
C1523 C 0.61553 0.02995 0.26031 0.0
H1524 H 0.62179 0.96904 0.28386 0.0
C1525 C 0.61549 0.02409 0.23372 0.0
H1526 H 0.61882 0.01347 0.29866 0.0
C1527 C 0.61716 0.99846 0.22515 0.0
C1528 C 0.61902 0.9781 0.24298 0.0
H1529 H 0.61339 0.03921 0.21948 0.0
H1530 H 0.61624 0.99458 0.20458 0.0
C1531 C 0.62023 0.98413 0.26951 0.0
C1532 C 0.02174 0.61113 0.22956 0.0
C1533 C 0.02863 0.61391 0.25574 0.0
H1534 H 0.99127 0.60865 0.20181 0.0
C1535 C 0.00924 0.61849 0.27398 0.0
H1536 H 0.03618 0.60764 0.21498 0.0
C1537 C 0.98354 0.61922 0.26643 0.0
C1538 C 0.97648 0.61522 0.24045 0.0
H1539 H 0.01383 0.621 0.29427 0.0
H1540 H 0.96917 0.62216 0.28121 0.0
C1541 C 0.99595 0.61168 0.22201 0.0
C1542 C 0.38934 0.01422 0.20111 0.0
C1543 C 0.39043 0.02807 0.22449 0.0
H1544 H 0.38867 0.9778 0.18225 0.0
C1545 C 0.3897 0.01419 0.24788 0.0
H1546 H 0.38959 0.02407 0.18267 0.0
C1547 C 0.38925 0.98696 0.24767 0.0
C1548 C 0.38939 0.97328 0.22408 0.0
H1549 H 0.39036 0.0243 0.26625 0.0
H1550 H 0.38961 0.97672 0.26588 0.0
C1551 C 0.38876 0.9874 0.2009 0.0
C1552 C 0.77849 0.00641 0.6128 0.0
C1553 C 0.76056 0.02647 0.61327 0.0
H1554 H 0.78469 0.96563 0.61284 0.0
C1555 C 0.73439 0.02005 0.61571 0.0
H1556 H 0.79882 0.0106 0.61109 0.0
C1557 C 0.72628 0.99422 0.61672 0.0
C1558 C 0.74414 0.97414 0.61536 0.0
H1559 H 0.72002 0.03495 0.6163 0.0
H1560 H 0.70592 0.99005 0.61802 0.0
C1561 C 0.77038 0.98057 0.61386 0.0
C1562 C 0.77919 0.00695 0.39215 0.0
C1563 C 0.76169 0.02726 0.38969 0.0
H1564 H 0.78454 0.9661 0.39525 0.0
C1565 C 0.73547 0.02107 0.38697 0.0
H1566 H 0.79953 0.01093 0.39419 0.0
C1567 C 0.72688 0.99538 0.38764 0.0
C1568 C 0.74426 0.97511 0.39097 0.0
H1569 H 0.7214 0.03611 0.38489 0.0
H1570 H 0.70648 0.99148 0.386 0.0
C1571 C 0.77058 0.98118 0.39274 0.0
C1572 C 0.98352 0.77224 0.39401 0.0
C1573 C 0.97673 0.74628 0.38903 0.0
H1574 H 0.01391 0.80023 0.39847 0.0
C1575 C 0.99621 0.7289 0.38251 0.0
H1576 H 0.96903 0.78617 0.39904 0.0
C1577 C 0.02187 0.73693 0.38211 0.0
C1578 C 0.02885 0.76258 0.38831 0.0
H1579 H 0.99173 0.70881 0.37827 0.0
H1580 H 0.03629 0.72275 0.37763 0.0
C1581 C 0.0093 0.7803 0.39371 0.0
C1582 C 0.23697 0.02015 0.3914 0.0
C1583 C 0.26315 0.02667 0.3892 0.0
H1584 H 0.20864 0.98992 0.39382 0.0
C1585 C 0.2809 0.00667 0.38616 0.0
H1586 H 0.22275 0.03503 0.3937 0.0
C1587 C 0.27282 0.98082 0.3862 0.0
C1588 C 0.24677 0.97422 0.38932 0.0
H1589 H 0.3012 0.0109 0.3842 0.0
H1590 H 0.28717 0.96599 0.3843 0.0
C1591 C 0.22888 0.99423 0.39149 0.0
C1592 C 0.02431 0.23169 0.3921 0.0
C1593 C 0.03101 0.25775 0.38782 0.0
H1594 H 0.99402 0.20365 0.39645 0.0
C1595 C 0.0114 0.27537 0.38255 0.0
H1596 H 0.0389 0.21758 0.39616 0.0
C1597 C 0.98572 0.2674 0.38265 0.0
C1598 C 0.97888 0.24161 0.38811 0.0
H1599 H 0.01581 0.29555 0.37889 0.0
H1600 H 0.9712 0.28173 0.37912 0.0
C1601 C 0.99853 0.22371 0.3923 0.0
C1602 C 0.28115 0.01038 0.61601 0.0
C1603 C 0.26381 0.03076 0.61331 0.0
H1604 H 0.28655 0.96957 0.61726 0.0
C1605 C 0.23749 0.02481 0.61107 0.0
H1606 H 0.30153 0.01419 0.61796 0.0
C1607 C 0.22884 0.99908 0.61059 0.0
C1608 C 0.24631 0.9787 0.61241 0.0
H1609 H 0.22356 0.03999 0.60902 0.0
H1610 H 0.20851 0.9952 0.60826 0.0
C1611 C 0.27251 0.98471 0.61561 0.0
C1612 C 0.99155 0.28427 0.63605 0.0
C1613 C 0.97821 0.26621 0.6206 0.0
H1614 H 0.02787 0.30011 0.6474 0.0
C1615 C 0.99212 0.24707 0.60754 0.0
H1616 H 0.98132 0.29906 0.64658 0.0
C1617 C 0.01913 0.24771 0.60795 0.0
C1618 C 0.03234 0.26751 0.62142 0.0
H1619 H 0.98228 0.233 0.5954 0.0
H1620 H 0.02953 0.23411 0.59611 0.0
C1621 C 0.01824 0.28488 0.6365 0.0
C1622 C 0.01742 0.75577 0.60853 0.0
C1623 C 0.03135 0.73614 0.6207 0.0
H1624 H 0.97996 0.76971 0.59865 0.0
C1625 C 0.0182 0.71818 0.63622 0.0
H1626 H 0.02714 0.76982 0.5964 0.0
C1627 C 0.99156 0.7182 0.63763 0.0
C1628 C 0.97732 0.73608 0.6234 0.0
H1629 H 0.02849 0.70308 0.64613 0.0
H1630 H 0.98201 0.70308 0.6486 0.0
C1631 C 0.99046 0.75572 0.60984 0.0
loop_
_geom_bond_atom_site_label_1
_geom_bond_atom_site_label_2
_geom_bond_distance
_geom_bond_site_symmetry_2
_ccdc_geom_bond_type
Co0 O1 2.216 . S
Co0 O2 2.091 . S
Co0 O4 2.004 . S
Co0 O10 2.021 . S
Co0 O12 2.137 . S
Co0 O13 2.244 . S
O1 Co0 2.216 . S
O1 C8 1.247 . S
O2 Co0 2.091 . S
O2 C8 1.261 . S
C3 O12 1.247 . S
C3 O13 1.272 . S
O4 Co0 2.004 . S
O4 C9 1.259 . S
Co5 O6 2.061 . S
Co5 O11 2.052 . S
Co5 O13 2.135 . S
O6 Co5 2.061 . S
O6 C9 1.235 . S
C7 O10 1.238 . S
C7 O11 1.241 . S
C8 O1 1.247 . S
C8 O2 1.261 . S
C9 O4 1.259 . S
C9 O6 1.235 . S
O10 Co0 2.021 . S
O10 C7 1.238 . S
O11 Co5 2.052 . S
O11 C7 1.241 . S
O12 Co0 2.137 . S
O12 C3 1.247 . S
O13 Co0 2.244 . S
O13 C3 1.272 . S
O13 Co5 2.135 . S
Co14 O15 2.216 . S
Co14 O16 2.091 . S
Co14 O18 2.004 . S
Co14 O24 2.021 . S
Co14 O26 2.137 . S
Co14 O27 2.244 . S
O15 Co14 2.216 . S
O15 C22 1.247 . S
O16 Co14 2.091 . S
O16 C22 1.261 . S
C17 O26 1.247 . S
C17 O27 1.272 . S
O18 Co14 2.004 . S
O18 C23 1.259 . S
Co19 O20 2.061 . S
Co19 O25 2.052 . S
Co19 O27 2.135 . S
O20 Co19 2.061 . S
O20 C23 1.235 . S
C21 O24 1.238 . S
C21 O25 1.241 . S
C22 O15 1.247 . S
C22 O16 1.261 . S
C23 O18 1.259 . S
C23 O20 1.235 . S
O24 Co14 2.021 . S
O24 C21 1.238 . S
O25 Co19 2.052 . S
O25 C21 1.241 . S
O26 Co14 2.137 . S
O26 C17 1.247 . S
O27 Co14 2.244 . S
O27 C17 1.272 . S
O27 Co19 2.135 . S
Co28 O29 2.216 . S
Co28 O30 2.091 . S
Co28 O32 2.004 . S
Co28 O38 2.021 . S
Co28 O40 2.137 . S
Co28 O41 2.244 . S
O29 Co28 2.216 . S
O29 C36 1.247 . S
O30 Co28 2.091 . S
O30 C36 1.261 . S
C31 O40 1.247 . S
C31 O41 1.272 . S
O32 Co28 2.004 . S
O32 C37 1.259 . S
Co33 O34 2.061 . S
Co33 O39 2.052 . S
Co33 O41 2.135 . S
O34 Co33 2.061 . S
O34 C37 1.235 . S
C35 O38 1.238 . S
C35 O39 1.241 . S
C36 O29 1.247 . S
C36 O30 1.261 . S
C37 O32 1.259 . S
C37 O34 1.235 . S
O38 Co28 2.021 . S
O38 C35 1.238 . S
O39 Co33 2.052 . S
O39 C35 1.241 . S
O40 Co28 2.137 . S
O40 C31 1.247 . S
O41 Co28 2.244 . S
O41 C31 1.272 . S
O41 Co33 2.135 . S
Co42 O43 2.216 . S
Co42 O44 2.091 . S
Co42 O46 2.004 . S
Co42 O52 2.021 . S
Co42 O54 2.137 . S
Co42 O55 2.244 . S
O43 Co42 2.216 . S
O43 C50 1.247 . S
O44 Co42 2.091 . S
O44 C50 1.261 . S
C45 O54 1.247 . S
C45 O55 1.272 . S
O46 Co42 2.004 . S
O46 C51 1.259 . S
Co47 O48 2.061 . S
Co47 O53 2.052 . S
Co47 O55 2.135 . S
O48 Co47 2.061 . S
O48 C51 1.235 . S
C49 O52 1.238 . S
C49 O53 1.241 . S
C50 O43 1.247 . S
C50 O44 1.261 . S
C51 O46 1.259 . S
C51 O48 1.235 . S
O52 Co42 2.021 . S
O52 C49 1.238 . S
O53 Co47 2.052 . S
O53 C49 1.241 . S
O54 Co42 2.137 . S
O54 C45 1.247 . S
O55 Co42 2.244 . S
O55 C45 1.272 . S
O55 Co47 2.135 . S
Co56 O57 2.216 . S
Co56 O58 2.091 . S
Co56 O60 2.004 . S
Co56 O66 2.021 . S
Co56 O68 2.137 . S
Co56 O69 2.244 . S
O57 Co56 2.216 . S
O57 C64 1.247 . S
O58 Co56 2.091 . S
O58 C64 1.261 . S
C59 O68 1.247 . S
C59 O69 1.272 . S
O60 Co56 2.004 . S
O60 C65 1.259 . S
Co61 O62 2.061 . S
Co61 O67 2.052 . S
Co61 O69 2.135 . S
O62 Co61 2.061 . S
O62 C65 1.235 . S
C63 O66 1.238 . S
C63 O67 1.241 . S
C64 O57 1.247 . S
C64 O58 1.261 . S
C65 O60 1.259 . S
C65 O62 1.235 . S
O66 Co56 2.021 . S
O66 C63 1.238 . S
O67 Co61 2.052 . S
O67 C63 1.241 . S
O68 Co56 2.137 . S
O68 C59 1.247 . S
O69 Co56 2.244 . S
O69 C59 1.272 . S
O69 Co61 2.135 . S
Co70 O71 2.216 . S
Co70 O72 2.091 . S
Co70 O74 2.004 . S
Co70 O80 2.021 . S
Co70 O82 2.137 . S
Co70 O83 2.244 . S
O71 Co70 2.216 . S
O71 C78 1.247 . S
O72 Co70 2.091 . S
O72 C78 1.261 . S
C73 O82 1.247 . S
C73 O83 1.272 . S
O74 Co70 2.004 . S
O74 C79 1.259 . S
Co75 O76 2.061 . S
Co75 O81 2.052 . S
Co75 O83 2.135 . S
O76 Co75 2.061 . S
O76 C79 1.235 . S
C77 O80 1.238 . S
C77 O81 1.241 . S
C78 O71 1.247 . S
C78 O72 1.261 . S
C79 O74 1.259 . S
C79 O76 1.235 . S
O80 Co70 2.021 . S
O80 C77 1.238 . S
O81 Co75 2.052 . S
O81 C77 1.241 . S
O82 Co70 2.137 . S
O82 C73 1.247 . S
O83 Co70 2.244 . S
O83 C73 1.272 . S
O83 Co75 2.135 . S
Co84 O85 2.216 . S
Co84 O86 2.091 . S
Co84 O88 2.004 . S
Co84 O94 2.021 . S
Co84 O96 2.137 . S
Co84 O97 2.244 . S
O85 Co84 2.216 . S
O85 C92 1.247 . S
O86 Co84 2.091 . S
O86 C92 1.261 . S
C87 O96 1.247 . S
C87 O97 1.272 . S
O88 Co84 2.004 . S
O88 C93 1.259 . S
Co89 O90 2.061 . S
Co89 O95 2.052 . S
Co89 O97 2.135 . S
O90 Co89 2.061 . S
O90 C93 1.235 . S
C91 O94 1.238 . S
C91 O95 1.241 . S
C92 O85 1.247 . S
C92 O86 1.261 . S
C93 O88 1.259 . S
C93 O90 1.235 . S
O94 Co84 2.021 . S
O94 C91 1.238 . S
O95 Co89 2.052 . S
O95 C91 1.241 . S
O96 Co84 2.137 . S
O96 C87 1.247 . S
O97 Co84 2.244 . S
O97 C87 1.272 . S
O97 Co89 2.135 . S
Co98 O99 2.216 . S
Co98 O100 2.091 . S
Co98 O102 2.004 . S
Co98 O108 2.021 . S
Co98 O110 2.137 . S
Co98 O111 2.244 . S
O99 Co98 2.216 . S
O99 C106 1.247 . S
O100 Co98 2.091 . S
O100 C106 1.261 . S
C101 O110 1.247 . S
C101 O111 1.272 . S
O102 Co98 2.004 . S
O102 C107 1.259 . S
Co103 O104 2.061 . S
Co103 O109 2.052 . S
Co103 O111 2.135 . S
O104 Co103 2.061 . S
O104 C107 1.235 . S
C105 O108 1.238 . S
C105 O109 1.241 . S
C106 O99 1.247 . S
C106 O100 1.261 . S
C107 O102 1.259 . S
C107 O104 1.235 . S
O108 Co98 2.021 . S
O108 C105 1.238 . S
O109 Co103 2.052 . S
O109 C105 1.241 . S
O110 Co98 2.137 . S
O110 C101 1.247 . S
O111 Co98 2.244 . S
O111 C101 1.272 . S
O111 Co103 2.135 . S
Co112 O113 2.216 . S
Co112 O114 2.091 . S
Co112 O116 2.004 . S
Co112 O122 2.021 . S
Co112 O124 2.137 . S
Co112 O125 2.244 . S
O113 Co112 2.216 . S
O113 C120 1.247 . S
O114 Co112 2.091 . S
O114 C120 1.261 . S
C115 O124 1.247 . S
C115 O125 1.272 . S
O116 Co112 2.004 . S
O116 C121 1.259 . S
Co117 O118 2.061 . S
Co117 O123 2.052 . S
Co117 O125 2.135 . S
O118 Co117 2.061 . S
O118 C121 1.235 . S
C119 O122 1.238 . S
C119 O123 1.241 . S
C120 O113 1.247 . S
C120 O114 1.261 . S
C121 O116 1.259 . S
C121 O118 1.235 . S
O122 Co112 2.021 . S
O122 C119 1.238 . S
O123 Co117 2.052 . S
O123 C119 1.241 . S
O124 Co112 2.137 . S
O124 C115 1.247 . S
O125 Co112 2.244 . S
O125 C115 1.272 . S
O125 Co117 2.135 . S
Co126 O127 2.216 . S
Co126 O128 2.091 . S
Co126 O130 2.004 . S
Co126 O136 2.021 . S
Co126 O138 2.137 . S
Co126 O139 2.244 . S
O127 Co126 2.216 . S
O127 C134 1.247 . S
O128 Co126 2.091 . S
O128 C134 1.261 . S
C129 O138 1.247 . S
C129 O139 1.272 . S
O130 Co126 2.004 . S
O130 C135 1.259 . S
Co131 O132 2.061 . S
Co131 O137 2.052 . S
Co131 O139 2.135 . S
O132 Co131 2.061 . S
O132 C135 1.235 . S
C133 O136 1.238 . S
C133 O137 1.241 . S
C134 O127 1.247 . S
C134 O128 1.261 . S
C135 O130 1.259 . S
C135 O132 1.235 . S
O136 Co126 2.021 . S
O136 C133 1.238 . S
O137 Co131 2.052 . S
O137 C133 1.241 . S
O138 Co126 2.137 . S
O138 C129 1.247 . S
O139 Co126 2.244 . S
O139 C129 1.272 . S
O139 Co131 2.135 . S
Co140 O141 2.216 . S
Co140 O142 2.091 . S
Co140 O144 2.004 . S
Co140 O150 2.021 . S
Co140 O152 2.137 . S
Co140 O153 2.244 . S
O141 Co140 2.216 . S
O141 C148 1.247 . S
O142 Co140 2.091 . S
O142 C148 1.261 . S
C143 O152 1.247 . S
C143 O153 1.272 . S
O144 Co140 2.004 . S
O144 C149 1.259 . S
Co145 O146 2.061 . S
Co145 O151 2.052 . S
Co145 O153 2.135 . S
O146 Co145 2.061 . S
O146 C149 1.235 . S
C147 O150 1.238 . S
C147 O151 1.241 . S
C148 O141 1.247 . S
C148 O142 1.261 . S
C149 O144 1.259 . S
C149 O146 1.235 . S
O150 Co140 2.021 . S
O150 C147 1.238 . S
O151 Co145 2.052 . S
O151 C147 1.241 . S
O152 Co140 2.137 . S
O152 C143 1.247 . S
O153 Co140 2.244 . S
O153 C143 1.272 . S
O153 Co145 2.135 . S
Co154 O155 2.216 . S
Co154 O156 2.091 . S
Co154 O158 2.004 . S
Co154 O164 2.021 . S
Co154 O166 2.137 . S
Co154 O167 2.244 . S
O155 Co154 2.216 . S
O155 C162 1.247 . S
O156 Co154 2.091 . S
O156 C162 1.261 . S
C157 O166 1.247 . S
C157 O167 1.272 . S
O158 Co154 2.004 . S
O158 C163 1.259 . S
Co159 O160 2.061 . S
Co159 O165 2.052 . S
Co159 O167 2.135 . S
O160 Co159 2.061 . S
O160 C163 1.235 . S
C161 O164 1.238 . S
C161 O165 1.241 . S
C162 O155 1.247 . S
C162 O156 1.261 . S
C163 O158 1.259 . S
C163 O160 1.235 . S
O164 Co154 2.021 . S
O164 C161 1.238 . S
O165 Co159 2.052 . S
O165 C161 1.241 . S
O166 Co154 2.137 . S
O166 C157 1.247 . S
O167 Co154 2.244 . S
O167 C157 1.272 . S
O167 Co159 2.135 . S
Co168 O169 2.216 . S
Co168 O170 2.091 . S
Co168 O172 2.004 . S
Co168 O178 2.021 . S
Co168 O180 2.137 . S
Co168 O181 2.244 . S
O169 Co168 2.216 . S
O169 C176 1.247 . S
O170 Co168 2.091 . S
O170 C176 1.261 . S
C171 O180 1.247 . S
C171 O181 1.272 . S
O172 Co168 2.004 . S
O172 C177 1.259 . S
Co173 O174 2.061 . S
Co173 O179 2.052 . S
Co173 O181 2.135 . S
O174 Co173 2.061 . S
O174 C177 1.235 . S
C175 O178 1.238 . S
C175 O179 1.241 . S
C176 O169 1.247 . S
C176 O170 1.261 . S
C177 O172 1.259 . S
C177 O174 1.235 . S
O178 Co168 2.021 . S
O178 C175 1.238 . S
O179 Co173 2.052 . S
O179 C175 1.241 . S
O180 Co168 2.137 . S
O180 C171 1.247 . S
O181 Co168 2.244 . S
O181 C171 1.272 . S
O181 Co173 2.135 . S
Co182 O183 2.216 . S
Co182 O184 2.091 . S
Co182 O186 2.004 . S
Co182 O192 2.021 . S
Co182 O194 2.137 . S
Co182 O195 2.244 . S
O183 Co182 2.216 . S
O183 C190 1.247 . S
O184 Co182 2.091 . S
O184 C190 1.261 . S
C185 O194 1.247 . S
C185 O195 1.272 . S
O186 Co182 2.004 . S
O186 C191 1.259 . S
Co187 O188 2.061 . S
Co187 O193 2.052 . S
Co187 O195 2.135 . S
O188 Co187 2.061 . S
O188 C191 1.235 . S
C189 O192 1.238 . S
C189 O193 1.241 . S
C190 O183 1.247 . S
C190 O184 1.261 . S
C191 O186 1.259 . S
C191 O188 1.235 . S
O192 Co182 2.021 . S
O192 C189 1.238 . S
O193 Co187 2.052 . S
O193 C189 1.241 . S
O194 Co182 2.137 . S
O194 C185 1.247 . S
O195 Co182 2.244 . S
O195 C185 1.272 . S
O195 Co187 2.135 . S
Co196 O197 2.216 . S
Co196 O198 2.091 . S
Co196 O200 2.004 . S
Co196 O206 2.021 . S
Co196 O208 2.137 . S
Co196 O209 2.244 . S
O197 Co196 2.216 . S
O197 C204 1.247 . S
O198 Co196 2.091 . S
O198 C204 1.261 . S
C199 O208 1.247 . S
C199 O209 1.272 . S
O200 Co196 2.004 . S
O200 C205 1.259 . S
Co201 O202 2.061 . S
Co201 O207 2.052 . S
Co201 O209 2.135 . S
O202 Co201 2.061 . S
O202 C205 1.235 . S
C203 O206 1.238 . S
C203 O207 1.241 . S
C204 O197 1.247 . S
C204 O198 1.261 . S
C205 O200 1.259 . S
C205 O202 1.235 . S
O206 Co196 2.021 . S
O206 C203 1.238 . S
O207 Co201 2.052 . S
O207 C203 1.241 . S
O208 Co196 2.137 . S
O208 C199 1.247 . S
O209 Co196 2.244 . S
O209 C199 1.272 . S
O209 Co201 2.135 . S
Co210 O211 2.216 . S
Co210 O212 2.091 . S
Co210 O214 2.004 . S
Co210 O220 2.021 . S
Co210 O222 2.137 . S
Co210 O223 2.244 . S
O211 Co210 2.216 . S
O211 C218 1.247 . S
O212 Co210 2.091 . S
O212 C218 1.261 . S
C213 O222 1.247 . S
C213 O223 1.272 . S
O214 Co210 2.004 . S
O214 C219 1.259 . S
Co215 O216 2.061 . S
Co215 O221 2.052 . S
Co215 O223 2.135 . S
O216 Co215 2.061 . S
O216 C219 1.235 . S
C217 O220 1.238 . S
C217 O221 1.241 . S
C218 O211 1.247 . S
C218 O212 1.261 . S
C219 O214 1.259 . S
C219 O216 1.235 . S
O220 Co210 2.021 . S
O220 C217 1.238 . S
O221 Co215 2.052 . S
O221 C217 1.241 . S
O222 Co210 2.137 . S
O222 C213 1.247 . S
O223 Co210 2.244 . S
O223 C213 1.272 . S
O223 Co215 2.135 . S
Co224 O225 2.216 . S
Co224 O226 2.091 . S
Co224 O228 2.004 . S
Co224 O234 2.021 . S
Co224 O236 2.137 . S
Co224 O237 2.244 . S
O225 Co224 2.216 . S
O225 C232 1.247 . S
O226 Co224 2.091 . S
O226 C232 1.261 . S
C227 O236 1.247 . S
C227 O237 1.272 . S
O228 Co224 2.004 . S
O228 C233 1.259 . S
Co229 O230 2.061 . S
Co229 O235 2.052 . S
Co229 O237 2.135 . S
O230 Co229 2.061 . S
O230 C233 1.235 . S
C231 O234 1.238 . S
C231 O235 1.241 . S
C232 O225 1.247 . S
C232 O226 1.261 . S
C233 O228 1.259 . S
C233 O230 1.235 . S
O234 Co224 2.021 . S
O234 C231 1.238 . S
O235 Co229 2.052 . S
O235 C231 1.241 . S
O236 Co224 2.137 . S
O236 C227 1.247 . S
O237 Co224 2.244 . S
O237 C227 1.272 . S
O237 Co229 2.135 . S
Co238 O239 2.216 . S
Co238 O240 2.091 . S
Co238 O242 2.004 . S
Co238 O248 2.021 . S
Co238 O250 2.137 . S
Co238 O251 2.244 . S
O239 Co238 2.216 . S
O239 C246 1.247 . S
O240 Co238 2.091 . S
O240 C246 1.261 . S
C241 O250 1.247 . S
C241 O251 1.272 . S
O242 Co238 2.004 . S
O242 C247 1.259 . S
Co243 O244 2.061 . S
Co243 O249 2.052 . S
Co243 O251 2.135 . S
O244 Co243 2.061 . S
O244 C247 1.235 . S
C245 O248 1.238 . S
C245 O249 1.241 . S
C246 O239 1.247 . S
C246 O240 1.261 . S
C247 O242 1.259 . S
C247 O244 1.235 . S
O248 Co238 2.021 . S
O248 C245 1.238 . S
O249 Co243 2.052 . S
O249 C245 1.241 . S
O250 Co238 2.137 . S
O250 C241 1.247 . S
O251 Co238 2.244 . S
O251 C241 1.272 . S
O251 Co243 2.135 . S
Co252 O253 2.216 . S
Co252 O254 2.091 . S
Co252 O256 2.004 . S
Co252 O262 2.021 . S
Co252 O264 2.137 . S
Co252 O265 2.244 . S
O253 Co252 2.216 . S
O253 C260 1.247 . S
O254 Co252 2.091 . S
O254 C260 1.261 . S
C255 O264 1.247 . S
C255 O265 1.272 . S
O256 Co252 2.004 . S
O256 C261 1.259 . S
Co257 O258 2.061 . S
Co257 O263 2.052 . S
Co257 O265 2.135 . S
O258 Co257 2.061 . S
O258 C261 1.235 . S
C259 O262 1.238 . S
C259 O263 1.241 . S
C260 O253 1.247 . S
C260 O254 1.261 . S
C261 O256 1.259 . S
C261 O258 1.235 . S
O262 Co252 2.021 . S
O262 C259 1.238 . S
O263 Co257 2.052 . S
O263 C259 1.241 . S
O264 Co252 2.137 . S
O264 C255 1.247 . S
O265 Co252 2.244 . S
O265 C255 1.272 . S
O265 Co257 2.135 . S
Co266 O267 2.216 . S
Co266 O268 2.091 . S
Co266 O270 2.004 . S
Co266 O276 2.021 . S
Co266 O278 2.137 . S
Co266 O279 2.244 . S
O267 Co266 2.216 . S
O267 C274 1.247 . S
O268 Co266 2.091 . S
O268 C274 1.261 . S
C269 O278 1.247 . S
C269 O279 1.272 . S
O270 Co266 2.004 . S
O270 C275 1.259 . S
Co271 O272 2.061 . S
Co271 O277 2.052 . S
Co271 O279 2.135 . S
O272 Co271 2.061 . S
O272 C275 1.235 . S
C273 O276 1.238 . S
C273 O277 1.241 . S
C274 O267 1.247 . S
C274 O268 1.261 . S
C275 O270 1.259 . S
C275 O272 1.235 . S
O276 Co266 2.021 . S
O276 C273 1.238 . S
O277 Co271 2.052 . S
O277 C273 1.241 . S
O278 Co266 2.137 . S
O278 C269 1.247 . S
O279 Co266 2.244 . S
O279 C269 1.272 . S
O279 Co271 2.135 . S
Co280 O281 2.216 . S
Co280 O282 2.091 . S
Co280 O284 2.004 . S
Co280 O290 2.021 . S
Co280 O292 2.137 . S
Co280 O293 2.244 . S
O281 Co280 2.216 . S
O281 C288 1.247 . S
O282 Co280 2.091 . S
O282 C288 1.261 . S
C283 O292 1.247 . S
C283 O293 1.272 . S
O284 Co280 2.004 . S
O284 C289 1.259 . S
Co285 O286 2.061 . S
Co285 O291 2.052 . S
Co285 O293 2.135 . S
O286 Co285 2.061 . S
O286 C289 1.235 . S
C287 O290 1.238 . S
C287 O291 1.241 . S
C288 O281 1.247 . S
C288 O282 1.261 . S
C289 O284 1.259 . S
C289 O286 1.235 . S
O290 Co280 2.021 . S
O290 C287 1.238 . S
O291 Co285 2.052 . S
O291 C287 1.241 . S
O292 Co280 2.137 . S
O292 C283 1.247 . S
O293 Co280 2.244 . S
O293 C283 1.272 . S
O293 Co285 2.135 . S
Co294 O295 2.216 . S
Co294 O296 2.091 . S
Co294 O298 2.004 . S
Co294 O304 2.021 . S
Co294 O306 2.137 . S
Co294 O307 2.244 . S
O295 Co294 2.216 . S
O295 C302 1.247 . S
O296 Co294 2.091 . S
O296 C302 1.261 . S
C297 O306 1.247 . S
C297 O307 1.272 . S
O298 Co294 2.004 . S
O298 C303 1.259 . S
Co299 O300 2.061 . S
Co299 O305 2.052 . S
Co299 O307 2.135 . S
O300 Co299 2.061 . S
O300 C303 1.235 . S
C301 O304 1.238 . S
C301 O305 1.241 . S
C302 O295 1.247 . S
C302 O296 1.261 . S
C303 O298 1.259 . S
C303 O300 1.235 . S
O304 Co294 2.021 . S
O304 C301 1.238 . S
O305 Co299 2.052 . S
O305 C301 1.241 . S
O306 Co294 2.137 . S
O306 C297 1.247 . S
O307 Co294 2.244 . S
O307 C297 1.272 . S
O307 Co299 2.135 . S
Co308 O309 2.216 . S
Co308 O310 2.091 . S
Co308 O312 2.004 . S
Co308 O318 2.021 . S
Co308 O320 2.137 . S
Co308 O321 2.244 . S
O309 Co308 2.216 . S
O309 C316 1.247 . S
O310 Co308 2.091 . S
O310 C316 1.261 . S
C311 O320 1.247 . S
C311 O321 1.272 . S
O312 Co308 2.004 . S
O312 C317 1.259 . S
Co313 O314 2.061 . S
Co313 O319 2.052 . S
Co313 O321 2.135 . S
O314 Co313 2.061 . S
O314 C317 1.235 . S
C315 O318 1.238 . S
C315 O319 1.241 . S
C316 O309 1.247 . S
C316 O310 1.261 . S
C317 O312 1.259 . S
C317 O314 1.235 . S
O318 Co308 2.021 . S
O318 C315 1.238 . S
O319 Co313 2.052 . S
O319 C315 1.241 . S
O320 Co308 2.137 . S
O320 C311 1.247 . S
O321 Co308 2.244 . S
O321 C311 1.272 . S
O321 Co313 2.135 . S
Co322 O323 2.216 . S
Co322 O324 2.091 . S
Co322 O326 2.004 . S
Co322 O332 2.021 . S
Co322 O334 2.137 . S
Co322 O335 2.244 . S
O323 Co322 2.216 . S
O323 C330 1.247 . S
O324 Co322 2.091 . S
O324 C330 1.261 . S
C325 O334 1.247 . S
C325 O335 1.272 . S
O326 Co322 2.004 . S
O326 C331 1.259 . S
Co327 O328 2.061 . S
Co327 O333 2.052 . S
Co327 O335 2.135 . S
O328 Co327 2.061 . S
O328 C331 1.235 . S
C329 O332 1.238 . S
C329 O333 1.241 . S
C330 O323 1.247 . S
C330 O324 1.261 . S
C331 O326 1.259 . S
C331 O328 1.235 . S
O332 Co322 2.021 . S
O332 C329 1.238 . S
O333 Co327 2.052 . S
O333 C329 1.241 . S
O334 Co322 2.137 . S
O334 C325 1.247 . S
O335 Co322 2.244 . S
O335 C325 1.272 . S
O335 Co327 2.135 . S
Co336 O337 2.216 . S
Co336 O338 2.091 . S
Co336 O340 2.004 . S
Co336 O346 2.021 . S
Co336 O348 2.137 . S
Co336 O349 2.244 . S
O337 Co336 2.216 . S
O337 C344 1.247 . S
O338 Co336 2.091 . S
O338 C344 1.261 . S
C339 O348 1.247 . S
C339 O349 1.272 . S
O340 Co336 2.004 . S
O340 C345 1.259 . S
Co341 O342 2.061 . S
Co341 O347 2.052 . S
Co341 O349 2.135 . S
O342 Co341 2.061 . S
O342 C345 1.235 . S
C343 O346 1.238 . S
C343 O347 1.241 . S
C344 O337 1.247 . S
C344 O338 1.261 . S
C345 O340 1.259 . S
C345 O342 1.235 . S
O346 Co336 2.021 . S
O346 C343 1.238 . S
O347 Co341 2.052 . S
O347 C343 1.241 . S
O348 Co336 2.137 . S
O348 C339 1.247 . S
O349 Co336 2.244 . S
O349 C339 1.272 . S
O349 Co341 2.135 . S
Co350 O351 2.216 . S
Co350 O352 2.091 . S
Co350 O354 2.004 . S
Co350 O360 2.021 . S
Co350 O362 2.137 . S
Co350 O363 2.244 . S
O351 Co350 2.216 . S
O351 C358 1.247 . S
O352 Co350 2.091 . S
O352 C358 1.261 . S
C353 O362 1.247 . S
C353 O363 1.272 . S
O354 Co350 2.004 . S
O354 C359 1.259 . S
Co355 O356 2.061 . S
Co355 O361 2.052 . S
Co355 O363 2.135 . S
O356 Co355 2.061 . S
O356 C359 1.235 . S
C357 O360 1.238 . S
C357 O361 1.241 . S
C358 O351 1.247 . S
C358 O352 1.261 . S
C359 O354 1.259 . S
C359 O356 1.235 . S
O360 Co350 2.021 . S
O360 C357 1.238 . S
O361 Co355 2.052 . S
O361 C357 1.241 . S
O362 Co350 2.137 . S
O362 C353 1.247 . S
O363 Co350 2.244 . S
O363 C353 1.272 . S
O363 Co355 2.135 . S
Co364 O365 2.216 . S
Co364 O366 2.091 . S
Co364 O368 2.004 . S
Co364 O374 2.021 . S
Co364 O376 2.137 . S
Co364 O377 2.244 . S
O365 Co364 2.216 . S
O365 C372 1.247 . S
O366 Co364 2.091 . S
O366 C372 1.261 . S
C367 O376 1.247 . S
C367 O377 1.272 . S
O368 Co364 2.004 . S
O368 C373 1.259 . S
Co369 O370 2.061 . S
Co369 O375 2.052 . S
Co369 O377 2.135 . S
O370 Co369 2.061 . S
O370 C373 1.235 . S
C371 O374 1.238 . S
C371 O375 1.241 . S
C372 O365 1.247 . S
C372 O366 1.261 . S
C373 O368 1.259 . S
C373 O370 1.235 . S
O374 Co364 2.021 . S
O374 C371 1.238 . S
O375 Co369 2.052 . S
O375 C371 1.241 . S
O376 Co364 2.137 . S
O376 C367 1.247 . S
O377 Co364 2.244 . S
O377 C367 1.272 . S
O377 Co369 2.135 . S
Co378 O379 2.216 . S
Co378 O380 2.091 . S
Co378 O382 2.004 . S
Co378 O388 2.021 . S
Co378 O390 2.137 . S
Co378 O391 2.244 . S
O379 Co378 2.216 . S
O379 C386 1.247 . S
O380 Co378 2.091 . S
O380 C386 1.261 . S
C381 O390 1.247 . S
C381 O391 1.272 . S
O382 Co378 2.004 . S
O382 C387 1.259 . S
Co383 O384 2.061 . S
Co383 O389 2.052 . S
Co383 O391 2.135 . S
O384 Co383 2.061 . S
O384 C387 1.235 . S
C385 O388 1.238 . S
C385 O389 1.241 . S
C386 O379 1.247 . S
C386 O380 1.261 . S
C387 O382 1.259 . S
C387 O384 1.235 . S
O388 Co378 2.021 . S
O388 C385 1.238 . S
O389 Co383 2.052 . S
O389 C385 1.241 . S
O390 Co378 2.137 . S
O390 C381 1.247 . S
O391 Co378 2.244 . S
O391 C381 1.272 . S
O391 Co383 2.135 . S
Co392 O393 2.216 . S
Co392 O394 2.091 . S
Co392 O396 2.004 . S
Co392 O402 2.021 . S
Co392 O404 2.137 . S
Co392 O405 2.244 . S
O393 Co392 2.216 . S
O393 C400 1.247 . S
O394 Co392 2.091 . S
O394 C400 1.261 . S
C395 O404 1.247 . S
C395 O405 1.272 . S
O396 Co392 2.004 . S
O396 C401 1.259 . S
Co397 O398 2.061 . S
Co397 O403 2.052 . S
Co397 O405 2.135 . S
O398 Co397 2.061 . S
O398 C401 1.235 . S
C399 O402 1.238 . S
C399 O403 1.241 . S
C400 O393 1.247 . S
C400 O394 1.261 . S
C401 O396 1.259 . S
C401 O398 1.235 . S
O402 Co392 2.021 . S
O402 C399 1.238 . S
O403 Co397 2.052 . S
O403 C399 1.241 . S
O404 Co392 2.137 . S
O404 C395 1.247 . S
O405 Co392 2.244 . S
O405 C395 1.272 . S
O405 Co397 2.135 . S
Co406 O407 2.216 . S
Co406 O408 2.091 . S
Co406 O410 2.004 . S
Co406 O416 2.021 . S
Co406 O418 2.137 . S
Co406 O419 2.244 . S
O407 Co406 2.216 . S
O407 C414 1.247 . S
O408 Co406 2.091 . S
O408 C414 1.261 . S
C409 O418 1.247 . S
C409 O419 1.272 . S
O410 Co406 2.004 . S
O410 C415 1.259 . S
Co411 O412 2.061 . S
Co411 O417 2.052 . S
Co411 O419 2.135 . S
O412 Co411 2.061 . S
O412 C415 1.235 . S
C413 O416 1.238 . S
C413 O417 1.241 . S
C414 O407 1.247 . S
C414 O408 1.261 . S
C415 O410 1.259 . S
C415 O412 1.235 . S
O416 Co406 2.021 . S
O416 C413 1.238 . S
O417 Co411 2.052 . S
O417 C413 1.241 . S
O418 Co406 2.137 . S
O418 C409 1.247 . S
O419 Co406 2.244 . S
O419 C409 1.272 . S
O419 Co411 2.135 . S
Co420 O421 2.216 . S
Co420 O422 2.091 . S
Co420 O424 2.004 . S
Co420 O430 2.021 . S
Co420 O432 2.137 . S
Co420 O433 2.244 . S
O421 Co420 2.216 . S
O421 C428 1.247 . S
O422 Co420 2.091 . S
O422 C428 1.261 . S
C423 O432 1.247 . S
C423 O433 1.272 . S
O424 Co420 2.004 . S
O424 C429 1.259 . S
Co425 O426 2.061 . S
Co425 O431 2.052 . S
Co425 O433 2.135 . S
O426 Co425 2.061 . S
O426 C429 1.235 . S
C427 O430 1.238 . S
C427 O431 1.241 . S
C428 O421 1.247 . S
C428 O422 1.261 . S
C429 O424 1.259 . S
C429 O426 1.235 . S
O430 Co420 2.021 . S
O430 C427 1.238 . S
O431 Co425 2.052 . S
O431 C427 1.241 . S
O432 Co420 2.137 . S
O432 C423 1.247 . S
O433 Co420 2.244 . S
O433 C423 1.272 . S
O433 Co425 2.135 . S
Co434 O435 2.216 . S
Co434 O436 2.091 . S
Co434 O438 2.004 . S
Co434 O444 2.021 . S
Co434 O446 2.137 . S
Co434 O447 2.244 . S
O435 Co434 2.216 . S
O435 C442 1.247 . S
O436 Co434 2.091 . S
O436 C442 1.261 . S
C437 O446 1.247 . S
C437 O447 1.272 . S
O438 Co434 2.004 . S
O438 C443 1.259 . S
Co439 O440 2.061 . S
Co439 O445 2.052 . S
Co439 O447 2.135 . S
O440 Co439 2.061 . S
O440 C443 1.235 . S
C441 O444 1.238 . S
C441 O445 1.241 . S
C442 O435 1.247 . S
C442 O436 1.261 . S
C443 O438 1.259 . S
C443 O440 1.235 . S
O444 Co434 2.021 . S
O444 C441 1.238 . S
O445 Co439 2.052 . S
O445 C441 1.241 . S
O446 Co434 2.137 . S
O446 C437 1.247 . S
O447 Co434 2.244 . S
O447 C437 1.272 . S
O447 Co439 2.135 . S
Co448 O449 2.216 . S
Co448 O450 2.091 . S
Co448 O452 2.004 . S
Co448 O458 2.021 . S
Co448 O460 2.137 . S
Co448 O461 2.244 . S
O449 Co448 2.216 . S
O449 C456 1.247 . S
O450 Co448 2.091 . S
O450 C456 1.261 . S
C451 O460 1.247 . S
C451 O461 1.272 . S
O452 Co448 2.004 . S
O452 C457 1.259 . S
Co453 O454 2.061 . S
Co453 O459 2.052 . S
Co453 O461 2.135 . S
O454 Co453 2.061 . S
O454 C457 1.235 . S
C455 O458 1.238 . S
C455 O459 1.241 . S
C456 O449 1.247 . S
C456 O450 1.261 . S
C457 O452 1.259 . S
C457 O454 1.235 . S
O458 Co448 2.021 . S
O458 C455 1.238 . S
O459 Co453 2.052 . S
O459 C455 1.241 . S
O460 Co448 2.137 . S
O460 C451 1.247 . S
O461 Co448 2.244 . S
O461 C451 1.272 . S
O461 Co453 2.135 . S
Co462 O463 2.216 . S
Co462 O464 2.091 . S
Co462 O466 2.004 . S
Co462 O472 2.021 . S
Co462 O474 2.137 . S
Co462 O475 2.244 . S
O463 Co462 2.216 . S
O463 C470 1.247 . S
O464 Co462 2.091 . S
O464 C470 1.261 . S
C465 O474 1.247 . S
C465 O475 1.272 . S
O466 Co462 2.004 . S
O466 C471 1.259 . S
Co467 O468 2.061 . S
Co467 O473 2.052 . S
Co467 O475 2.135 . S
O468 Co467 2.061 . S
O468 C471 1.235 . S
C469 O472 1.238 . S
C469 O473 1.241 . S
C470 O463 1.247 . S
C470 O464 1.261 . S
C471 O466 1.259 . S
C471 O468 1.235 . S
O472 Co462 2.021 . S
O472 C469 1.238 . S
O473 Co467 2.052 . S
O473 C469 1.241 . S
O474 Co462 2.137 . S
O474 C465 1.247 . S
O475 Co462 2.244 . S
O475 C465 1.272 . S
O475 Co467 2.135 . S
Co476 O477 2.216 . S
Co476 O478 2.091 . S
Co476 O480 2.004 . S
Co476 O486 2.021 . S
Co476 O488 2.137 . S
Co476 O489 2.244 . S
O477 Co476 2.216 . S
O477 C484 1.247 . S
O478 Co476 2.091 . S
O478 C484 1.261 . S
C479 O488 1.247 . S
C479 O489 1.272 . S
O480 Co476 2.004 . S
O480 C485 1.259 . S
Co481 O482 2.061 . S
Co481 O487 2.052 . S
Co481 O489 2.135 . S
O482 Co481 2.061 . S
O482 C485 1.235 . S
C483 O486 1.238 . S
C483 O487 1.241 . S
C484 O477 1.247 . S
C484 O478 1.261 . S
C485 O480 1.259 . S
C485 O482 1.235 . S
O486 Co476 2.021 . S
O486 C483 1.238 . S
O487 Co481 2.052 . S
O487 C483 1.241 . S
O488 Co476 2.137 . S
O488 C479 1.247 . S
O489 Co476 2.244 . S
O489 C479 1.272 . S
O489 Co481 2.135 . S
Co490 O491 2.216 . S
Co490 O492 2.091 . S
Co490 O494 2.004 . S
Co490 O500 2.021 . S
Co490 O502 2.137 . S
Co490 O503 2.244 . S
O491 Co490 2.216 . S
O491 C498 1.247 . S
O492 Co490 2.091 . S
O492 C498 1.261 . S
C493 O502 1.247 . S
C493 O503 1.272 . S
O494 Co490 2.004 . S
O494 C499 1.259 . S
Co495 O496 2.061 . S
Co495 O501 2.052 . S
Co495 O503 2.135 . S
O496 Co495 2.061 . S
O496 C499 1.235 . S
C497 O500 1.238 . S
C497 O501 1.241 . S
C498 O491 1.247 . S
C498 O492 1.261 . S
C499 O494 1.259 . S
C499 O496 1.235 . S
O500 Co490 2.021 . S
O500 C497 1.238 . S
O501 Co495 2.052 . S
O501 C497 1.241 . S
O502 Co490 2.137 . S
O502 C493 1.247 . S
O503 Co490 2.244 . S
O503 C493 1.272 . S
O503 Co495 2.135 . S
Co504 O505 2.216 . S
Co504 O506 2.091 . S
Co504 O508 2.004 . S
Co504 O514 2.021 . S
Co504 O516 2.137 . S
Co504 O517 2.244 . S
O505 Co504 2.216 . S
O505 C512 1.247 . S
O506 Co504 2.091 . S
O506 C512 1.261 . S
C507 O516 1.247 . S
C507 O517 1.272 . S
O508 Co504 2.004 . S
O508 C513 1.259 . S
Co509 O510 2.061 . S
Co509 O515 2.052 . S
Co509 O517 2.135 . S
O510 Co509 2.061 . S
O510 C513 1.235 . S
C511 O514 1.238 . S
C511 O515 1.241 . S
C512 O505 1.247 . S
C512 O506 1.261 . S
C513 O508 1.259 . S
C513 O510 1.235 . S
O514 Co504 2.021 . S
O514 C511 1.238 . S
O515 Co509 2.052 . S
O515 C511 1.241 . S
O516 Co504 2.137 . S
O516 C507 1.247 . S
O517 Co504 2.244 . S
O517 C507 1.272 . S
O517 Co509 2.135 . S
Co518 O519 2.216 . S
Co518 O520 2.091 . S
Co518 O522 2.004 . S
Co518 O528 2.021 . S
Co518 O530 2.137 . S
Co518 O531 2.244 . S
O519 Co518 2.216 . S
O519 C526 1.247 . S
O520 Co518 2.091 . S
O520 C526 1.261 . S
C521 O530 1.247 . S
C521 O531 1.272 . S
O522 Co518 2.004 . S
O522 C527 1.259 . S
Co523 O524 2.061 . S
Co523 O529 2.052 . S
Co523 O531 2.135 . S
O524 Co523 2.061 . S
O524 C527 1.235 . S
C525 O528 1.238 . S
C525 O529 1.241 . S
C526 O519 1.247 . S
C526 O520 1.261 . S
C527 O522 1.259 . S
C527 O524 1.235 . S
O528 Co518 2.021 . S
O528 C525 1.238 . S
O529 Co523 2.052 . S
O529 C525 1.241 . S
O530 Co518 2.137 . S
O530 C521 1.247 . S
O531 Co518 2.244 . S
O531 C521 1.272 . S
O531 Co523 2.135 . S
Co532 O533 2.216 . S
Co532 O534 2.091 . S
Co532 O536 2.004 . S
Co532 O542 2.021 . S
Co532 O544 2.137 . S
Co532 O545 2.244 . S
O533 Co532 2.216 . S
O533 C540 1.247 . S
O534 Co532 2.091 . S
O534 C540 1.261 . S
C535 O544 1.247 . S
C535 O545 1.272 . S
O536 Co532 2.004 . S
O536 C541 1.259 . S
Co537 O538 2.061 . S
Co537 O543 2.052 . S
Co537 O545 2.135 . S
O538 Co537 2.061 . S
O538 C541 1.235 . S
C539 O542 1.238 . S
C539 O543 1.241 . S
C540 O533 1.247 . S
C540 O534 1.261 . S
C541 O536 1.259 . S
C541 O538 1.235 . S
O542 Co532 2.021 . S
O542 C539 1.238 . S
O543 Co537 2.052 . S
O543 C539 1.241 . S
O544 Co532 2.137 . S
O544 C535 1.247 . S
O545 Co532 2.244 . S
O545 C535 1.272 . S
O545 Co537 2.135 . S
Co546 O547 2.216 . S
Co546 O548 2.091 . S
Co546 O550 2.004 . S
Co546 O556 2.021 . S
Co546 O558 2.137 . S
Co546 O559 2.244 . S
O547 Co546 2.216 . S
O547 C554 1.247 . S
O548 Co546 2.091 . S
O548 C554 1.261 . S
C549 O558 1.247 . S
C549 O559 1.272 . S
O550 Co546 2.004 . S
O550 C555 1.259 . S
Co551 O552 2.061 . S
Co551 O557 2.052 . S
Co551 O559 2.135 . S
O552 Co551 2.061 . S
O552 C555 1.235 . S
C553 O556 1.238 . S
C553 O557 1.241 . S
C554 O547 1.247 . S
C554 O548 1.261 . S
C555 O550 1.259 . S
C555 O552 1.235 . S
O556 Co546 2.021 . S
O556 C553 1.238 . S
O557 Co551 2.052 . S
O557 C553 1.241 . S
O558 Co546 2.137 . S
O558 C549 1.247 . S
O559 Co546 2.244 . S
O559 C549 1.272 . S
O559 Co551 2.135 . S
Co560 O561 2.216 . S
Co560 O562 2.091 . S
Co560 O564 2.004 . S
Co560 O570 2.021 . S
Co560 O572 2.137 . S
Co560 O573 2.244 . S
O561 Co560 2.216 . S
O561 C568 1.247 . S
O562 Co560 2.091 . S
O562 C568 1.261 . S
C563 O572 1.247 . S
C563 O573 1.272 . S
O564 Co560 2.004 . S
O564 C569 1.259 . S
Co565 O566 2.061 . S
Co565 O571 2.052 . S
Co565 O573 2.135 . S
O566 Co565 2.061 . S
O566 C569 1.235 . S
C567 O570 1.238 . S
C567 O571 1.241 . S
C568 O561 1.247 . S
C568 O562 1.261 . S
C569 O564 1.259 . S
C569 O566 1.235 . S
O570 Co560 2.021 . S
O570 C567 1.238 . S
O571 Co565 2.052 . S
O571 C567 1.241 . S
O572 Co560 2.137 . S
O572 C563 1.247 . S
O573 Co560 2.244 . S
O573 C563 1.272 . S
O573 Co565 2.135 . S
Co574 O575 2.216 . S
Co574 O576 2.091 . S
Co574 O578 2.004 . S
Co574 O584 2.021 . S
Co574 O586 2.137 . S
Co574 O587 2.244 . S
O575 Co574 2.216 . S
O575 C582 1.247 . S
O576 Co574 2.091 . S
O576 C582 1.261 . S
C577 O586 1.247 . S
C577 O587 1.272 . S
O578 Co574 2.004 . S
O578 C583 1.259 . S
Co579 O580 2.061 . S
Co579 O585 2.052 . S
Co579 O587 2.135 . S
O580 Co579 2.061 . S
O580 C583 1.235 . S
C581 O584 1.238 . S
C581 O585 1.241 . S
C582 O575 1.247 . S
C582 O576 1.261 . S
C583 O578 1.259 . S
C583 O580 1.235 . S
O584 Co574 2.021 . S
O584 C581 1.238 . S
O585 Co579 2.052 . S
O585 C581 1.241 . S
O586 Co574 2.137 . S
O586 C577 1.247 . S
O587 Co574 2.244 . S
O587 C577 1.272 . S
O587 Co579 2.135 . S
Co588 O589 2.216 . S
Co588 O590 2.091 . S
Co588 O592 2.004 . S
Co588 O598 2.021 . S
Co588 O600 2.137 . S
Co588 O601 2.244 . S
O589 Co588 2.216 . S
O589 C596 1.247 . S
O590 Co588 2.091 . S
O590 C596 1.261 . S
C591 O600 1.247 . S
C591 O601 1.272 . S
O592 Co588 2.004 . S
O592 C597 1.259 . S
Co593 O594 2.061 . S
Co593 O599 2.052 . S
Co593 O601 2.135 . S
O594 Co593 2.061 . S
O594 C597 1.235 . S
C595 O598 1.238 . S
C595 O599 1.241 . S
C596 O589 1.247 . S
C596 O590 1.261 . S
C597 O592 1.259 . S
C597 O594 1.235 . S
O598 Co588 2.021 . S
O598 C595 1.238 . S
O599 Co593 2.052 . S
O599 C595 1.241 . S
O600 Co588 2.137 . S
O600 C591 1.247 . S
O601 Co588 2.244 . S
O601 C591 1.272 . S
O601 Co593 2.135 . S
Co602 O603 2.216 . S
Co602 O604 2.091 . S
Co602 O606 2.004 . S
Co602 O612 2.021 . S
Co602 O614 2.137 . S
Co602 O615 2.244 . S
O603 Co602 2.216 . S
O603 C610 1.247 . S
O604 Co602 2.091 . S
O604 C610 1.261 . S
C605 O614 1.247 . S
C605 O615 1.272 . S
O606 Co602 2.004 . S
O606 C611 1.259 . S
Co607 O608 2.061 . S
Co607 O613 2.052 . S
Co607 O615 2.135 . S
O608 Co607 2.061 . S
O608 C611 1.235 . S
C609 O612 1.238 . S
C609 O613 1.241 . S
C610 O603 1.247 . S
C610 O604 1.261 . S
C611 O606 1.259 . S
C611 O608 1.235 . S
O612 Co602 2.021 . S
O612 C609 1.238 . S
O613 Co607 2.052 . S
O613 C609 1.241 . S
O614 Co602 2.137 . S
O614 C605 1.247 . S
O615 Co602 2.244 . S
O615 C605 1.272 . S
O615 Co607 2.135 . S
Co616 O617 2.216 . S
Co616 O618 2.091 . S
Co616 O620 2.004 . S
Co616 O626 2.021 . S
Co616 O628 2.137 . S
Co616 O629 2.244 . S
O617 Co616 2.216 . S
O617 C624 1.247 . S
O618 Co616 2.091 . S
O618 C624 1.261 . S
C619 O628 1.247 . S
C619 O629 1.272 . S
O620 Co616 2.004 . S
O620 C625 1.259 . S
Co621 O622 2.061 . S
Co621 O627 2.052 . S
Co621 O629 2.135 . S
O622 Co621 2.061 . S
O622 C625 1.235 . S
C623 O626 1.238 . S
C623 O627 1.241 . S
C624 O617 1.247 . S
C624 O618 1.261 . S
C625 O620 1.259 . S
C625 O622 1.235 . S
O626 Co616 2.021 . S
O626 C623 1.238 . S
O627 Co621 2.052 . S
O627 C623 1.241 . S
O628 Co616 2.137 . S
O628 C619 1.247 . S
O629 Co616 2.244 . S
O629 C619 1.272 . S
O629 Co621 2.135 . S
Co630 O631 2.216 . S
Co630 O632 2.091 . S
Co630 O634 2.004 . S
Co630 O640 2.021 . S
Co630 O642 2.137 . S
Co630 O643 2.244 . S
O631 Co630 2.216 . S
O631 C638 1.247 . S
O632 Co630 2.091 . S
O632 C638 1.261 . S
C633 O642 1.247 . S
C633 O643 1.272 . S
O634 Co630 2.004 . S
O634 C639 1.259 . S
Co635 O636 2.061 . S
Co635 O641 2.052 . S
Co635 O643 2.135 . S
O636 Co635 2.061 . S
O636 C639 1.235 . S
C637 O640 1.238 . S
C637 O641 1.241 . S
C638 O631 1.247 . S
C638 O632 1.261 . S
C639 O634 1.259 . S
C639 O636 1.235 . S
O640 Co630 2.021 . S
O640 C637 1.238 . S
O641 Co635 2.052 . S
O641 C637 1.241 . S
O642 Co630 2.137 . S
O642 C633 1.247 . S
O643 Co630 2.244 . S
O643 C633 1.272 . S
O643 Co635 2.135 . S
Co644 O645 2.216 . S
Co644 O646 2.091 . S
Co644 O648 2.004 . S
Co644 O654 2.021 . S
Co644 O656 2.137 . S
Co644 O657 2.244 . S
O645 Co644 2.216 . S
O645 C652 1.247 . S
O646 Co644 2.091 . S
O646 C652 1.261 . S
C647 O656 1.247 . S
C647 O657 1.272 . S
O648 Co644 2.004 . S
O648 C653 1.259 . S
Co649 O650 2.061 . S
Co649 O655 2.052 . S
Co649 O657 2.135 . S
O650 Co649 2.061 . S
O650 C653 1.235 . S
C651 O654 1.238 . S
C651 O655 1.241 . S
C652 O645 1.247 . S
C652 O646 1.261 . S
C653 O648 1.259 . S
C653 O650 1.235 . S
O654 Co644 2.021 . S
O654 C651 1.238 . S
O655 Co649 2.052 . S
O655 C651 1.241 . S
O656 Co644 2.137 . S
O656 C647 1.247 . S
O657 Co644 2.244 . S
O657 C647 1.272 . S
O657 Co649 2.135 . S
Co658 O659 2.216 . S
Co658 O660 2.091 . S
Co658 O662 2.004 . S
Co658 O668 2.021 . S
Co658 O670 2.137 . S
Co658 O671 2.244 . S
O659 Co658 2.216 . S
O659 C666 1.247 . S
O660 Co658 2.091 . S
O660 C666 1.261 . S
C661 O670 1.247 . S
C661 O671 1.272 . S
O662 Co658 2.004 . S
O662 C667 1.259 . S
Co663 O664 2.061 . S
Co663 O669 2.052 . S
Co663 O671 2.135 . S
O664 Co663 2.061 . S
O664 C667 1.235 . S
C665 O668 1.238 . S
C665 O669 1.241 . S
C666 O659 1.247 . S
C666 O660 1.261 . S
C667 O662 1.259 . S
C667 O664 1.235 . S
O668 Co658 2.021 . S
O668 C665 1.238 . S
O669 Co663 2.052 . S
O669 C665 1.241 . S
O670 Co658 2.137 . S
O670 C661 1.247 . S
O671 Co658 2.244 . S
O671 C661 1.272 . S
O671 Co663 2.135 . S
C672 C673 1.387 . S
C672 H676 0.950 . S
C672 C681 1.390 . S
C673 C672 1.387 . S
C673 C675 1.387 . S
H674 C681 0.950 . S
C675 C673 1.387 . S
C675 C677 1.390 . S
C675 H679 0.950 . S
H676 C672 0.950 . S
C677 C675 1.390 . S
C677 C678 1.387 . S
C677 H680 0.950 . S
C678 C677 1.387 . S
C678 C681 1.387 . S
H679 C675 0.950 . S
H680 C677 0.950 . S
C681 C672 1.390 . S
C681 H674 0.950 . S
C681 C678 1.387 . S
C682 C683 1.387 . S
C682 H686 0.950 . S
C682 C691 1.390 . S
C683 C682 1.387 . S
C683 C685 1.387 . S
H684 C691 0.950 . S
C685 C683 1.387 . S
C685 C687 1.390 . S
C685 H689 0.950 . S
H686 C682 0.950 . S
C687 C685 1.390 . S
C687 C688 1.387 . S
C687 H690 0.950 . S
C688 C687 1.387 . S
C688 C691 1.387 . S
H689 C685 0.950 . S
H690 C687 0.950 . S
C691 C682 1.390 . S
C691 H684 0.950 . S
C691 C688 1.387 . S
C692 C693 1.387 . S
C692 H696 0.950 . S
C692 C701 1.390 . S
C693 C692 1.387 . S
C693 C695 1.387 . S
H694 C701 0.950 . S
C695 C693 1.387 . S
C695 C697 1.390 . S
C695 H699 0.950 . S
H696 C692 0.950 . S
C697 C695 1.390 . S
C697 C698 1.387 . S
C697 H700 0.950 . S
C698 C697 1.387 . S
C698 C701 1.387 . S
H699 C695 0.950 . S
H700 C697 0.950 . S
C701 C692 1.390 . S
C701 H694 0.950 . S
C701 C698 1.387 . S
C702 C703 1.387 . S
C702 H706 0.950 . S
C702 C711 1.390 . S
C703 C702 1.387 . S
C703 C705 1.387 . S
H704 C711 0.950 . S
C705 C703 1.387 . S
C705 C707 1.390 . S
C705 H709 0.950 . S
H706 C702 0.950 . S
C707 C705 1.390 . S
C707 C708 1.387 . S
C707 H710 0.950 . S
C708 C707 1.387 . S
C708 C711 1.387 . S
H709 C705 0.950 . S
H710 C707 0.950 . S
C711 C702 1.390 . S
C711 H704 0.950 . S
C711 C708 1.387 . S
C712 C713 1.387 . S
C712 H716 0.950 . S
C712 C721 1.390 . S
C713 C712 1.387 . S
C713 C715 1.387 . S
H714 C721 0.950 . S
C715 C713 1.387 . S
C715 C717 1.390 . S
C715 H719 0.950 . S
H716 C712 0.950 . S
C717 C715 1.390 . S
C717 C718 1.387 . S
C717 H720 0.950 . S
C718 C717 1.387 . S
C718 C721 1.387 . S
H719 C715 0.950 . S
H720 C717 0.950 . S
C721 C712 1.390 . S
C721 H714 0.950 . S
C721 C718 1.387 . S
C722 C723 1.387 . S
C722 H726 0.950 . S
C722 C731 1.390 . S
C723 C722 1.387 . S
C723 C725 1.387 . S
H724 C731 0.950 . S
C725 C723 1.387 . S
C725 C727 1.390 . S
C725 H729 0.950 . S
H726 C722 0.950 . S
C727 C725 1.390 . S
C727 C728 1.387 . S
C727 H730 0.950 . S
C728 C727 1.387 . S
C728 C731 1.387 . S
H729 C725 0.950 . S
H730 C727 0.950 . S
C731 C722 1.390 . S
C731 H724 0.950 . S
C731 C728 1.387 . S
C732 C733 1.387 . S
C732 H736 0.950 . S
C732 C741 1.390 . S
C733 C732 1.387 . S
C733 C735 1.387 . S
H734 C741 0.950 . S
C735 C733 1.387 . S
C735 C737 1.390 . S
C735 H739 0.950 . S
H736 C732 0.950 . S
C737 C735 1.390 . S
C737 C738 1.387 . S
C737 H740 0.950 . S
C738 C737 1.387 . S
C738 C741 1.387 . S
H739 C735 0.950 . S
H740 C737 0.950 . S
C741 C732 1.390 . S
C741 H734 0.950 . S
C741 C738 1.387 . S
C742 C743 1.387 . S
C742 H746 0.950 . S
C742 C751 1.390 . S
C743 C742 1.387 . S
C743 C745 1.387 . S
H744 C751 0.950 . S
C745 C743 1.387 . S
C745 C747 1.390 . S
C745 H749 0.950 . S
H746 C742 0.950 . S
C747 C745 1.390 . S
C747 C748 1.387 . S
C747 H750 0.950 . S
C748 C747 1.387 . S
C748 C751 1.387 . S
H749 C745 0.950 . S
H750 C747 0.950 . S
C751 C742 1.390 . S
C751 H744 0.950 . S
C751 C748 1.387 . S
C752 C753 1.387 . S
C752 H756 0.950 . S
C752 C761 1.390 . S
C753 C752 1.387 . S
C753 C755 1.387 . S
H754 C761 0.950 . S
C755 C753 1.387 . S
C755 C757 1.390 . S
C755 H759 0.950 . S
H756 C752 0.950 . S
C757 C755 1.390 . S
C757 C758 1.387 . S
C757 H760 0.950 . S
C758 C757 1.387 . S
C758 C761 1.387 . S
H759 C755 0.950 . S
H760 C757 0.950 . S
C761 C752 1.390 . S
C761 H754 0.950 . S
C761 C758 1.387 . S
C762 C763 1.387 . S
C762 H766 0.950 . S
C762 C771 1.390 . S
C763 C762 1.387 . S
C763 C765 1.387 . S
H764 C771 0.950 . S
C765 C763 1.387 . S
C765 C767 1.390 . S
C765 H769 0.950 . S
H766 C762 0.950 . S
C767 C765 1.390 . S
C767 C768 1.387 . S
C767 H770 0.950 . S
C768 C767 1.387 . S
C768 C771 1.387 . S
H769 C765 0.950 . S
H770 C767 0.950 . S
C771 C762 1.390 . S
C771 H764 0.950 . S
C771 C768 1.387 . S
C772 C773 1.387 . S
C772 H776 0.950 . S
C772 C781 1.390 . S
C773 C772 1.387 . S
C773 C775 1.387 . S
H774 C781 0.950 . S
C775 C773 1.387 . S
C775 C777 1.390 . S
C775 H779 0.950 . S
H776 C772 0.950 . S
C777 C775 1.390 . S
C777 C778 1.387 . S
C777 H780 0.950 . S
C778 C777 1.387 . S
C778 C781 1.387 . S
H779 C775 0.950 . S
H780 C777 0.950 . S
C781 C772 1.390 . S
C781 H774 0.950 . S
C781 C778 1.387 . S
C782 C783 1.387 . S
C782 H786 0.950 . S
C782 C791 1.390 . S
C783 C782 1.387 . S
C783 C785 1.387 . S
H784 C791 0.950 . S
C785 C783 1.387 . S
C785 C787 1.390 . S
C785 H789 0.950 . S
H786 C782 0.950 . S
C787 C785 1.390 . S
C787 C788 1.387 . S
C787 H790 0.950 . S
C788 C787 1.387 . S
C788 C791 1.387 . S
H789 C785 0.950 . S
H790 C787 0.950 . S
C791 C782 1.390 . S
C791 H784 0.950 . S
C791 C788 1.387 . S
C792 C793 1.387 . S
C792 H796 0.950 . S
C792 C801 1.390 . S
C793 C792 1.387 . S
C793 C795 1.387 . S
H794 C801 0.950 . S
C795 C793 1.387 . S
C795 C797 1.390 . S
C795 H799 0.950 . S
H796 C792 0.950 . S
C797 C795 1.390 . S
C797 C798 1.387 . S
C797 H800 0.950 . S
C798 C797 1.387 . S
C798 C801 1.387 . S
H799 C795 0.950 . S
H800 C797 0.950 . S
C801 C792 1.390 . S
C801 H794 0.950 . S
C801 C798 1.387 . S
C802 C803 1.387 . S
C802 H806 0.950 . S
C802 C811 1.390 . S
C803 C802 1.387 . S
C803 C805 1.387 . S
H804 C811 0.950 . S
C805 C803 1.387 . S
C805 C807 1.390 . S
C805 H809 0.950 . S
H806 C802 0.950 . S
C807 C805 1.390 . S
C807 C808 1.387 . S
C807 H810 0.950 . S
C808 C807 1.387 . S
C808 C811 1.387 . S
H809 C805 0.950 . S
H810 C807 0.950 . S
C811 C802 1.390 . S
C811 H804 0.950 . S
C811 C808 1.387 . S
C812 C813 1.387 . S
C812 H816 0.950 . S
C812 C821 1.390 . S
C813 C812 1.387 . S
C813 C815 1.387 . S
H814 C821 0.950 . S
C815 C813 1.387 . S
C815 C817 1.390 . S
C815 H819 0.950 . S
H816 C812 0.950 . S
C817 C815 1.390 . S
C817 C818 1.387 . S
C817 H820 0.950 . S
C818 C817 1.387 . S
C818 C821 1.387 . S
H819 C815 0.950 . S
H820 C817 0.950 . S
C821 C812 1.390 . S
C821 H814 0.950 . S
C821 C818 1.387 . S
C822 C823 1.387 . S
C822 H826 0.950 . S
C822 C831 1.390 . S
C823 C822 1.387 . S
C823 C825 1.387 . S
H824 C831 0.950 . S
C825 C823 1.387 . S
C825 C827 1.390 . S
C825 H829 0.950 . S
H826 C822 0.950 . S
C827 C825 1.390 . S
C827 C828 1.387 . S
C827 H830 0.950 . S
C828 C827 1.387 . S
C828 C831 1.387 . S
H829 C825 0.950 . S
H830 C827 0.950 . S
C831 C822 1.390 . S
C831 H824 0.950 . S
C831 C828 1.387 . S
C832 C833 1.387 . S
C832 H836 0.950 . S
C832 C841 1.390 . S
C833 C832 1.387 . S
C833 C835 1.387 . S
H834 C841 0.950 . S
C835 C833 1.387 . S
C835 C837 1.390 . S
C835 H839 0.950 . S
H836 C832 0.950 . S
C837 C835 1.390 . S
C837 C838 1.387 . S
C837 H840 0.950 . S
C838 C837 1.387 . S
C838 C841 1.387 . S
H839 C835 0.950 . S
H840 C837 0.950 . S
C841 C832 1.390 . S
C841 H834 0.950 . S
C841 C838 1.387 . S
C842 C843 1.387 . S
C842 H846 0.950 . S
C842 C851 1.390 . S
C843 C842 1.387 . S
C843 C845 1.387 . S
H844 C851 0.950 . S
C845 C843 1.387 . S
C845 C847 1.390 . S
C845 H849 0.950 . S
H846 C842 0.950 . S
C847 C845 1.390 . S
C847 C848 1.387 . S
C847 H850 0.950 . S
C848 C847 1.387 . S
C848 C851 1.387 . S
H849 C845 0.950 . S
H850 C847 0.950 . S
C851 C842 1.390 . S
C851 H844 0.950 . S
C851 C848 1.387 . S
C852 C853 1.387 . S
C852 H856 0.950 . S
C852 C861 1.390 . S
C853 C852 1.387 . S
C853 C855 1.387 . S
H854 C861 0.950 . S
C855 C853 1.387 . S
C855 C857 1.390 . S
C855 H859 0.950 . S
H856 C852 0.950 . S
C857 C855 1.390 . S
C857 C858 1.387 . S
C857 H860 0.950 . S
C858 C857 1.387 . S
C858 C861 1.387 . S
H859 C855 0.950 . S
H860 C857 0.950 . S
C861 C852 1.390 . S
C861 H854 0.950 . S
C861 C858 1.387 . S
C862 C863 1.387 . S
C862 H866 0.950 . S
C862 C871 1.390 . S
C863 C862 1.387 . S
C863 C865 1.387 . S
H864 C871 0.950 . S
C865 C863 1.387 . S
C865 C867 1.390 . S
C865 H869 0.950 . S
H866 C862 0.950 . S
C867 C865 1.390 . S
C867 C868 1.387 . S
C867 H870 0.950 . S
C868 C867 1.387 . S
C868 C871 1.387 . S
H869 C865 0.950 . S
H870 C867 0.950 . S
C871 C862 1.390 . S
C871 H864 0.950 . S
C871 C868 1.387 . S
C872 C873 1.387 . S
C872 H876 0.950 . S
C872 C881 1.390 . S
C873 C872 1.387 . S
C873 C875 1.387 . S
H874 C881 0.950 . S
C875 C873 1.387 . S
C875 C877 1.390 . S
C875 H879 0.950 . S
H876 C872 0.950 . S
C877 C875 1.390 . S
C877 C878 1.387 . S
C877 H880 0.950 . S
C878 C877 1.387 . S
C878 C881 1.387 . S
H879 C875 0.950 . S
H880 C877 0.950 . S
C881 C872 1.390 . S
C881 H874 0.950 . S
C881 C878 1.387 . S
C882 C883 1.387 . S
C882 H886 0.950 . S
C882 C891 1.390 . S
C883 C882 1.387 . S
C883 C885 1.387 . S
H884 C891 0.950 . S
C885 C883 1.387 . S
C885 C887 1.390 . S
C885 H889 0.950 . S
H886 C882 0.950 . S
C887 C885 1.390 . S
C887 C888 1.387 . S
C887 H890 0.950 . S
C888 C887 1.387 . S
C888 C891 1.387 . S
H889 C885 0.950 . S
H890 C887 0.950 . S
C891 C882 1.390 . S
C891 H884 0.950 . S
C891 C888 1.387 . S
C892 C893 1.387 . S
C892 H896 0.950 . S
C892 C901 1.390 . S
C893 C892 1.387 . S
C893 C895 1.387 . S
H894 C901 0.950 . S
C895 C893 1.387 . S
C895 C897 1.390 . S
C895 H899 0.950 . S
H896 C892 0.950 . S
C897 C895 1.390 . S
C897 C898 1.387 . S
C897 H900 0.950 . S
C898 C897 1.387 . S
C898 C901 1.387 . S
H899 C895 0.950 . S
H900 C897 0.950 . S
C901 C892 1.390 . S
C901 H894 0.950 . S
C901 C898 1.387 . S
C902 C903 1.387 . S
C902 H906 0.950 . S
C902 C911 1.390 . S
C903 C902 1.387 . S
C903 C905 1.387 . S
H904 C911 0.950 . S
C905 C903 1.387 . S
C905 C907 1.390 . S
C905 H909 0.950 . S
H906 C902 0.950 . S
C907 C905 1.390 . S
C907 C908 1.387 . S
C907 H910 0.950 . S
C908 C907 1.387 . S
C908 C911 1.387 . S
H909 C905 0.950 . S
H910 C907 0.950 . S
C911 C902 1.390 . S
C911 H904 0.950 . S
C911 C908 1.387 . S
C912 C913 1.387 . S
C912 H916 0.950 . S
C912 C921 1.390 . S
C913 C912 1.387 . S
C913 C915 1.387 . S
H914 C921 0.950 . S
C915 C913 1.387 . S
C915 C917 1.390 . S
C915 H919 0.950 . S
H916 C912 0.950 . S
C917 C915 1.390 . S
C917 C918 1.387 . S
C917 H920 0.950 . S
C918 C917 1.387 . S
C918 C921 1.387 . S
H919 C915 0.950 . S
H920 C917 0.950 . S
C921 C912 1.390 . S
C921 H914 0.950 . S
C921 C918 1.387 . S
C922 C923 1.387 . S
C922 H926 0.950 . S
C922 C931 1.390 . S
C923 C922 1.387 . S
C923 C925 1.387 . S
H924 C931 0.950 . S
C925 C923 1.387 . S
C925 C927 1.390 . S
C925 H929 0.950 . S
H926 C922 0.950 . S
C927 C925 1.390 . S
C927 C928 1.387 . S
C927 H930 0.950 . S
C928 C927 1.387 . S
C928 C931 1.387 . S
H929 C925 0.950 . S
H930 C927 0.950 . S
C931 C922 1.390 . S
C931 H924 0.950 . S
C931 C928 1.387 . S
C932 C933 1.387 . S
C932 H936 0.950 . S
C932 C941 1.390 . S
C933 C932 1.387 . S
C933 C935 1.387 . S
H934 C941 0.950 . S
C935 C933 1.387 . S
C935 C937 1.390 . S
C935 H939 0.950 . S
H936 C932 0.950 . S
C937 C935 1.390 . S
C937 C938 1.387 . S
C937 H940 0.950 . S
C938 C937 1.387 . S
C938 C941 1.387 . S
H939 C935 0.950 . S
H940 C937 0.950 . S
C941 C932 1.390 . S
C941 H934 0.950 . S
C941 C938 1.387 . S
C942 C943 1.387 . S
C942 H946 0.950 . S
C942 C951 1.390 . S
C943 C942 1.387 . S
C943 C945 1.387 . S
H944 C951 0.950 . S
C945 C943 1.387 . S
C945 C947 1.390 . S
C945 H949 0.950 . S
H946 C942 0.950 . S
C947 C945 1.390 . S
C947 C948 1.387 . S
C947 H950 0.950 . S
C948 C947 1.387 . S
C948 C951 1.387 . S
H949 C945 0.950 . S
H950 C947 0.950 . S
C951 C942 1.390 . S
C951 H944 0.950 . S
C951 C948 1.387 . S
C952 C953 1.387 . S
C952 H956 0.950 . S
C952 C961 1.390 . S
C953 C952 1.387 . S
C953 C955 1.387 . S
H954 C961 0.950 . S
C955 C953 1.387 . S
C955 C957 1.390 . S
C955 H959 0.950 . S
H956 C952 0.950 . S
C957 C955 1.390 . S
C957 C958 1.387 . S
C957 H960 0.950 . S
C958 C957 1.387 . S
C958 C961 1.387 . S
H959 C955 0.950 . S
H960 C957 0.950 . S
C961 C952 1.390 . S
C961 H954 0.950 . S
C961 C958 1.387 . S
C962 C963 1.387 . S
C962 H966 0.950 . S
C962 C971 1.390 . S
C963 C962 1.387 . S
C963 C965 1.387 . S
H964 C971 0.950 . S
C965 C963 1.387 . S
C965 C967 1.390 . S
C965 H969 0.950 . S
H966 C962 0.950 . S
C967 C965 1.390 . S
C967 C968 1.387 . S
C967 H970 0.950 . S
C968 C967 1.387 . S
C968 C971 1.387 . S
H969 C965 0.950 . S
H970 C967 0.950 . S
C971 C962 1.390 . S
C971 H964 0.950 . S
C971 C968 1.387 . S
C972 C973 1.387 . S
C972 H976 0.950 . S
C972 C981 1.390 . S
C973 C972 1.387 . S
C973 C975 1.387 . S
H974 C981 0.950 . S
C975 C973 1.387 . S
C975 C977 1.390 . S
C975 H979 0.950 . S
H976 C972 0.950 . S
C977 C975 1.390 . S
C977 C978 1.387 . S
C977 H980 0.950 . S
C978 C977 1.387 . S
C978 C981 1.387 . S
H979 C975 0.950 . S
H980 C977 0.950 . S
C981 C972 1.390 . S
C981 H974 0.950 . S
C981 C978 1.387 . S
C982 C983 1.387 . S
C982 H986 0.950 . S
C982 C991 1.390 . S
C983 C982 1.387 . S
C983 C985 1.387 . S
H984 C991 0.950 . S
C985 C983 1.387 . S
C985 C987 1.390 . S
C985 H989 0.950 . S
H986 C982 0.950 . S
C987 C985 1.390 . S
C987 C988 1.387 . S
C987 H990 0.950 . S
C988 C987 1.387 . S
C988 C991 1.387 . S
H989 C985 0.950 . S
H990 C987 0.950 . S
C991 C982 1.390 . S
C991 H984 0.950 . S
C991 C988 1.387 . S
C992 C993 1.387 . S
C992 H996 0.950 . S
C992 C1001 1.390 . S
C993 C992 1.387 . S
C993 C995 1.387 . S
H994 C1001 0.950 . S
C995 C993 1.387 . S
C995 C997 1.390 . S
C995 H999 0.950 . S
H996 C992 0.950 . S
C997 C995 1.390 . S
C997 C998 1.387 . S
C997 H1000 0.950 . S
C998 C997 1.387 . S
C998 C1001 1.387 . S
H999 C995 0.950 . S
H1000 C997 0.950 . S
C1001 C992 1.390 . S
C1001 H994 0.950 . S
C1001 C998 1.387 . S
C1002 C1003 1.387 . S
C1002 H1006 0.950 . S
C1002 C1011 1.390 . S
C1003 C1002 1.387 . S
C1003 C1005 1.387 . S
H1004 C1011 0.950 . S
C1005 C1003 1.387 . S
C1005 C1007 1.390 . S
C1005 H1009 0.950 . S
H1006 C1002 0.950 . S
C1007 C1005 1.390 . S
C1007 C1008 1.387 . S
C1007 H1010 0.950 . S
C1008 C1007 1.387 . S
C1008 C1011 1.387 . S
H1009 C1005 0.950 . S
H1010 C1007 0.950 . S
C1011 C1002 1.390 . S
C1011 H1004 0.950 . S
C1011 C1008 1.387 . S
C1012 C1013 1.387 . S
C1012 H1016 0.950 . S
C1012 C1021 1.390 . S
C1013 C1012 1.387 . S
C1013 C1015 1.387 . S
H1014 C1021 0.950 . S
C1015 C1013 1.387 . S
C1015 C1017 1.390 . S
C1015 H1019 0.950 . S
H1016 C1012 0.950 . S
C1017 C1015 1.390 . S
C1017 C1018 1.387 . S
C1017 H1020 0.950 . S
C1018 C1017 1.387 . S
C1018 C1021 1.387 . S
H1019 C1015 0.950 . S
H1020 C1017 0.950 . S
C1021 C1012 1.390 . S
C1021 H1014 0.950 . S
C1021 C1018 1.387 . S
C1022 C1023 1.387 . S
C1022 H1026 0.950 . S
C1022 C1031 1.390 . S
C1023 C1022 1.387 . S
C1023 C1025 1.387 . S
H1024 C1031 0.950 . S
C1025 C1023 1.387 . S
C1025 C1027 1.390 . S
C1025 H1029 0.950 . S
H1026 C1022 0.950 . S
C1027 C1025 1.390 . S
C1027 C1028 1.387 . S
C1027 H1030 0.950 . S
C1028 C1027 1.387 . S
C1028 C1031 1.387 . S
H1029 C1025 0.950 . S
H1030 C1027 0.950 . S
C1031 C1022 1.390 . S
C1031 H1024 0.950 . S
C1031 C1028 1.387 . S
C1032 C1033 1.387 . S
C1032 H1036 0.950 . S
C1032 C1041 1.390 . S
C1033 C1032 1.387 . S
C1033 C1035 1.387 . S
H1034 C1041 0.950 . S
C1035 C1033 1.387 . S
C1035 C1037 1.390 . S
C1035 H1039 0.950 . S
H1036 C1032 0.950 . S
C1037 C1035 1.390 . S
C1037 C1038 1.387 . S
C1037 H1040 0.950 . S
C1038 C1037 1.387 . S
C1038 C1041 1.387 . S
H1039 C1035 0.950 . S
H1040 C1037 0.950 . S
C1041 C1032 1.390 . S
C1041 H1034 0.950 . S
C1041 C1038 1.387 . S
C1042 C1043 1.387 . S
C1042 H1046 0.950 . S
C1042 C1051 1.390 . S
C1043 C1042 1.387 . S
C1043 C1045 1.387 . S
H1044 C1051 0.950 . S
C1045 C1043 1.387 . S
C1045 C1047 1.390 . S
C1045 H1049 0.950 . S
H1046 C1042 0.950 . S
C1047 C1045 1.390 . S
C1047 C1048 1.387 . S
C1047 H1050 0.950 . S
C1048 C1047 1.387 . S
C1048 C1051 1.387 . S
H1049 C1045 0.950 . S
H1050 C1047 0.950 . S
C1051 C1042 1.390 . S
C1051 H1044 0.950 . S
C1051 C1048 1.387 . S
C1052 C1053 1.387 . S
C1052 H1056 0.950 . S
C1052 C1061 1.390 . S
C1053 C1052 1.387 . S
C1053 C1055 1.387 . S
H1054 C1061 0.950 . S
C1055 C1053 1.387 . S
C1055 C1057 1.390 . S
C1055 H1059 0.950 . S
H1056 C1052 0.950 . S
C1057 C1055 1.390 . S
C1057 C1058 1.387 . S
C1057 H1060 0.950 . S
C1058 C1057 1.387 . S
C1058 C1061 1.387 . S
H1059 C1055 0.950 . S
H1060 C1057 0.950 . S
C1061 C1052 1.390 . S
C1061 H1054 0.950 . S
C1061 C1058 1.387 . S
C1062 C1063 1.387 . S
C1062 H1066 0.950 . S
C1062 C1071 1.390 . S
C1063 C1062 1.387 . S
C1063 C1065 1.387 . S
H1064 C1071 0.950 . S
C1065 C1063 1.387 . S
C1065 C1067 1.390 . S
C1065 H1069 0.950 . S
H1066 C1062 0.950 . S
C1067 C1065 1.390 . S
C1067 C1068 1.387 . S
C1067 H1070 0.950 . S
C1068 C1067 1.387 . S
C1068 C1071 1.387 . S
H1069 C1065 0.950 . S
H1070 C1067 0.950 . S
C1071 C1062 1.390 . S
C1071 H1064 0.950 . S
C1071 C1068 1.387 . S
C1072 C1073 1.387 . S
C1072 H1076 0.950 . S
C1072 C1081 1.390 . S
C1073 C1072 1.387 . S
C1073 C1075 1.387 . S
H1074 C1081 0.950 . S
C1075 C1073 1.387 . S
C1075 C1077 1.390 . S
C1075 H1079 0.950 . S
H1076 C1072 0.950 . S
C1077 C1075 1.390 . S
C1077 C1078 1.387 . S
C1077 H1080 0.950 . S
C1078 C1077 1.387 . S
C1078 C1081 1.387 . S
H1079 C1075 0.950 . S
H1080 C1077 0.950 . S
C1081 C1072 1.390 . S
C1081 H1074 0.950 . S
C1081 C1078 1.387 . S
C1082 C1083 1.387 . S
C1082 H1086 0.950 . S
C1082 C1091 1.390 . S
C1083 C1082 1.387 . S
C1083 C1085 1.387 . S
H1084 C1091 0.950 . S
C1085 C1083 1.387 . S
C1085 C1087 1.390 . S
C1085 H1089 0.950 . S
H1086 C1082 0.950 . S
C1087 C1085 1.390 . S
C1087 C1088 1.387 . S
C1087 H1090 0.950 . S
C1088 C1087 1.387 . S
C1088 C1091 1.387 . S
H1089 C1085 0.950 . S
H1090 C1087 0.950 . S
C1091 C1082 1.390 . S
C1091 H1084 0.950 . S
C1091 C1088 1.387 . S
C1092 C1093 1.387 . S
C1092 H1096 0.950 . S
C1092 C1101 1.390 . S
C1093 C1092 1.387 . S
C1093 C1095 1.387 . S
H1094 C1101 0.950 . S
C1095 C1093 1.387 . S
C1095 C1097 1.390 . S
C1095 H1099 0.950 . S
H1096 C1092 0.950 . S
C1097 C1095 1.390 . S
C1097 C1098 1.387 . S
C1097 H1100 0.950 . S
C1098 C1097 1.387 . S
C1098 C1101 1.387 . S
H1099 C1095 0.950 . S
H1100 C1097 0.950 . S
C1101 C1092 1.390 . S
C1101 H1094 0.950 . S
C1101 C1098 1.387 . S
C1102 C1103 1.387 . S
C1102 H1106 0.950 . S
C1102 C1111 1.390 . S
C1103 C1102 1.387 . S
C1103 C1105 1.387 . S
H1104 C1111 0.950 . S
C1105 C1103 1.387 . S
C1105 C1107 1.390 . S
C1105 H1109 0.950 . S
H1106 C1102 0.950 . S
C1107 C1105 1.390 . S
C1107 C1108 1.387 . S
C1107 H1110 0.950 . S
C1108 C1107 1.387 . S
C1108 C1111 1.387 . S
H1109 C1105 0.950 . S
H1110 C1107 0.950 . S
C1111 C1102 1.390 . S
C1111 H1104 0.950 . S
C1111 C1108 1.387 . S
C1112 C1113 1.387 . S
C1112 H1116 0.950 . S
C1112 C1121 1.390 . S
C1113 C1112 1.387 . S
C1113 C1115 1.387 . S
H1114 C1121 0.950 . S
C1115 C1113 1.387 . S
C1115 C1117 1.390 . S
C1115 H1119 0.950 . S
H1116 C1112 0.950 . S
C1117 C1115 1.390 . S
C1117 C1118 1.387 . S
C1117 H1120 0.950 . S
C1118 C1117 1.387 . S
C1118 C1121 1.387 . S
H1119 C1115 0.950 . S
H1120 C1117 0.950 . S
C1121 C1112 1.390 . S
C1121 H1114 0.950 . S
C1121 C1118 1.387 . S
C1122 C1123 1.387 . S
C1122 H1126 0.950 . S
C1122 C1131 1.390 . S
C1123 C1122 1.387 . S
C1123 C1125 1.387 . S
H1124 C1131 0.950 . S
C1125 C1123 1.387 . S
C1125 C1127 1.390 . S
C1125 H1129 0.950 . S
H1126 C1122 0.950 . S
C1127 C1125 1.390 . S
C1127 C1128 1.387 . S
C1127 H1130 0.950 . S
C1128 C1127 1.387 . S
C1128 C1131 1.387 . S
H1129 C1125 0.950 . S
H1130 C1127 0.950 . S
C1131 C1122 1.390 . S
C1131 H1124 0.950 . S
C1131 C1128 1.387 . S
C1132 C1133 1.387 . S
C1132 H1136 0.950 . S
C1132 C1141 1.390 . S
C1133 C1132 1.387 . S
C1133 C1135 1.387 . S
H1134 C1141 0.950 . S
C1135 C1133 1.387 . S
C1135 C1137 1.390 . S
C1135 H1139 0.950 . S
H1136 C1132 0.950 . S
C1137 C1135 1.390 . S
C1137 C1138 1.387 . S
C1137 H1140 0.950 . S
C1138 C1137 1.387 . S
C1138 C1141 1.387 . S
H1139 C1135 0.950 . S
H1140 C1137 0.950 . S
C1141 C1132 1.390 . S
C1141 H1134 0.950 . S
C1141 C1138 1.387 . S
C1142 C1143 1.387 . S
C1142 H1146 0.950 . S
C1142 C1151 1.390 . S
C1143 C1142 1.387 . S
C1143 C1145 1.387 . S
H1144 C1151 0.950 . S
C1145 C1143 1.387 . S
C1145 C1147 1.390 . S
C1145 H1149 0.950 . S
H1146 C1142 0.950 . S
C1147 C1145 1.390 . S
C1147 C1148 1.387 . S
C1147 H1150 0.950 . S
C1148 C1147 1.387 . S
C1148 C1151 1.387 . S
H1149 C1145 0.950 . S
H1150 C1147 0.950 . S
C1151 C1142 1.390 . S
C1151 H1144 0.950 . S
C1151 C1148 1.387 . S
C1152 C1153 1.387 . S
C1152 H1156 0.950 . S
C1152 C1161 1.390 . S
C1153 C1152 1.387 . S
C1153 C1155 1.387 . S
H1154 C1161 0.950 . S
C1155 C1153 1.387 . S
C1155 C1157 1.390 . S
C1155 H1159 0.950 . S
H1156 C1152 0.950 . S
C1157 C1155 1.390 . S
C1157 C1158 1.387 . S
C1157 H1160 0.950 . S
C1158 C1157 1.387 . S
C1158 C1161 1.387 . S
H1159 C1155 0.950 . S
H1160 C1157 0.950 . S
C1161 C1152 1.390 . S
C1161 H1154 0.950 . S
C1161 C1158 1.387 . S
C1162 C1163 1.387 . S
C1162 H1166 0.950 . S
C1162 C1171 1.390 . S
C1163 C1162 1.387 . S
C1163 C1165 1.387 . S
H1164 C1171 0.950 . S
C1165 C1163 1.387 . S
C1165 C1167 1.390 . S
C1165 H1169 0.950 . S
H1166 C1162 0.950 . S
C1167 C1165 1.390 . S
C1167 C1168 1.387 . S
C1167 H1170 0.950 . S
C1168 C1167 1.387 . S
C1168 C1171 1.387 . S
H1169 C1165 0.950 . S
H1170 C1167 0.950 . S
C1171 C1162 1.390 . S
C1171 H1164 0.950 . S
C1171 C1168 1.387 . S
C1172 C1173 1.387 . S
C1172 H1176 0.950 . S
C1172 C1181 1.390 . S
C1173 C1172 1.387 . S
C1173 C1175 1.387 . S
H1174 C1181 0.950 . S
C1175 C1173 1.387 . S
C1175 C1177 1.390 . S
C1175 H1179 0.950 . S
H1176 C1172 0.950 . S
C1177 C1175 1.390 . S
C1177 C1178 1.387 . S
C1177 H1180 0.950 . S
C1178 C1177 1.387 . S
C1178 C1181 1.387 . S
H1179 C1175 0.950 . S
H1180 C1177 0.950 . S
C1181 C1172 1.390 . S
C1181 H1174 0.950 . S
C1181 C1178 1.387 . S
C1182 C1183 1.387 . S
C1182 H1186 0.950 . S
C1182 C1191 1.390 . S
C1183 C1182 1.387 . S
C1183 C1185 1.387 . S
H1184 C1191 0.950 . S
C1185 C1183 1.387 . S
C1185 C1187 1.390 . S
C1185 H1189 0.950 . S
H1186 C1182 0.950 . S
C1187 C1185 1.390 . S
C1187 C1188 1.387 . S
C1187 H1190 0.950 . S
C1188 C1187 1.387 . S
C1188 C1191 1.387 . S
H1189 C1185 0.950 . S
H1190 C1187 0.950 . S
C1191 C1182 1.390 . S
C1191 H1184 0.950 . S
C1191 C1188 1.387 . S
C1192 C1193 1.387 . S
C1192 H1196 0.950 . S
C1192 C1201 1.390 . S
C1193 C1192 1.387 . S
C1193 C1195 1.387 . S
H1194 C1201 0.950 . S
C1195 C1193 1.387 . S
C1195 C1197 1.390 . S
C1195 H1199 0.950 . S
H1196 C1192 0.950 . S
C1197 C1195 1.390 . S
C1197 C1198 1.387 . S
C1197 H1200 0.950 . S
C1198 C1197 1.387 . S
C1198 C1201 1.387 . S
H1199 C1195 0.950 . S
H1200 C1197 0.950 . S
C1201 C1192 1.390 . S
C1201 H1194 0.950 . S
C1201 C1198 1.387 . S
C1202 C1203 1.387 . S
C1202 H1206 0.950 . S
C1202 C1211 1.390 . S
C1203 C1202 1.387 . S
C1203 C1205 1.387 . S
H1204 C1211 0.950 . S
C1205 C1203 1.387 . S
C1205 C1207 1.390 . S
C1205 H1209 0.950 . S
H1206 C1202 0.950 . S
C1207 C1205 1.390 . S
C1207 C1208 1.387 . S
C1207 H1210 0.950 . S
C1208 C1207 1.387 . S
C1208 C1211 1.387 . S
H1209 C1205 0.950 . S
H1210 C1207 0.950 . S
C1211 C1202 1.390 . S
C1211 H1204 0.950 . S
C1211 C1208 1.387 . S
C1212 C1213 1.387 . S
C1212 H1216 0.950 . S
C1212 C1221 1.390 . S
C1213 C1212 1.387 . S
C1213 C1215 1.387 . S
H1214 C1221 0.950 . S
C1215 C1213 1.387 . S
C1215 C1217 1.390 . S
C1215 H1219 0.950 . S
H1216 C1212 0.950 . S
C1217 C1215 1.390 . S
C1217 C1218 1.387 . S
C1217 H1220 0.950 . S
C1218 C1217 1.387 . S
C1218 C1221 1.387 . S
H1219 C1215 0.950 . S
H1220 C1217 0.950 . S
C1221 C1212 1.390 . S
C1221 H1214 0.950 . S
C1221 C1218 1.387 . S
C1222 C1223 1.387 . S
C1222 H1226 0.950 . S
C1222 C1231 1.390 . S
C1223 C1222 1.387 . S
C1223 C1225 1.387 . S
H1224 C1231 0.950 . S
C1225 C1223 1.387 . S
C1225 C1227 1.390 . S
C1225 H1229 0.950 . S
H1226 C1222 0.950 . S
C1227 C1225 1.390 . S
C1227 C1228 1.387 . S
C1227 H1230 0.950 . S
C1228 C1227 1.387 . S
C1228 C1231 1.387 . S
H1229 C1225 0.950 . S
H1230 C1227 0.950 . S
C1231 C1222 1.390 . S
C1231 H1224 0.950 . S
C1231 C1228 1.387 . S
C1232 C1233 1.387 . S
C1232 H1236 0.950 . S
C1232 C1241 1.390 . S
C1233 C1232 1.387 . S
C1233 C1235 1.387 . S
H1234 C1241 0.950 . S
C1235 C1233 1.387 . S
C1235 C1237 1.390 . S
C1235 H1239 0.950 . S
H1236 C1232 0.950 . S
C1237 C1235 1.390 . S
C1237 C1238 1.387 . S
C1237 H1240 0.950 . S
C1238 C1237 1.387 . S
C1238 C1241 1.387 . S
H1239 C1235 0.950 . S
H1240 C1237 0.950 . S
C1241 C1232 1.390 . S
C1241 H1234 0.950 . S
C1241 C1238 1.387 . S
C1242 C1243 1.387 . S
C1242 H1246 0.950 . S
C1242 C1251 1.390 . S
C1243 C1242 1.387 . S
C1243 C1245 1.387 . S
H1244 C1251 0.950 . S
C1245 C1243 1.387 . S
C1245 C1247 1.390 . S
C1245 H1249 0.950 . S
H1246 C1242 0.950 . S
C1247 C1245 1.390 . S
C1247 C1248 1.387 . S
C1247 H1250 0.950 . S
C1248 C1247 1.387 . S
C1248 C1251 1.387 . S
H1249 C1245 0.950 . S
H1250 C1247 0.950 . S
C1251 C1242 1.390 . S
C1251 H1244 0.950 . S
C1251 C1248 1.387 . S
C1252 C1253 1.387 . S
C1252 H1256 0.950 . S
C1252 C1261 1.390 . S
C1253 C1252 1.387 . S
C1253 C1255 1.387 . S
H1254 C1261 0.950 . S
C1255 C1253 1.387 . S
C1255 C1257 1.390 . S
C1255 H1259 0.950 . S
H1256 C1252 0.950 . S
C1257 C1255 1.390 . S
C1257 C1258 1.387 . S
C1257 H1260 0.950 . S
C1258 C1257 1.387 . S
C1258 C1261 1.387 . S
H1259 C1255 0.950 . S
H1260 C1257 0.950 . S
C1261 C1252 1.390 . S
C1261 H1254 0.950 . S
C1261 C1258 1.387 . S
C1262 C1263 1.387 . S
C1262 H1266 0.950 . S
C1262 C1271 1.390 . S
C1263 C1262 1.387 . S
C1263 C1265 1.387 . S
H1264 C1271 0.950 . S
C1265 C1263 1.387 . S
C1265 C1267 1.390 . S
C1265 H1269 0.950 . S
H1266 C1262 0.950 . S
C1267 C1265 1.390 . S
C1267 C1268 1.387 . S
C1267 H1270 0.950 . S
C1268 C1267 1.387 . S
C1268 C1271 1.387 . S
H1269 C1265 0.950 . S
H1270 C1267 0.950 . S
C1271 C1262 1.390 . S
C1271 H1264 0.950 . S
C1271 C1268 1.387 . S
C1272 C1273 1.387 . S
C1272 H1276 0.950 . S
C1272 C1281 1.390 . S
C1273 C1272 1.387 . S
C1273 C1275 1.387 . S
H1274 C1281 0.950 . S
C1275 C1273 1.387 . S
C1275 C1277 1.390 . S
C1275 H1279 0.950 . S
H1276 C1272 0.950 . S
C1277 C1275 1.390 . S
C1277 C1278 1.387 . S
C1277 H1280 0.950 . S
C1278 C1277 1.387 . S
C1278 C1281 1.387 . S
H1279 C1275 0.950 . S
H1280 C1277 0.950 . S
C1281 C1272 1.390 . S
C1281 H1274 0.950 . S
C1281 C1278 1.387 . S
C1282 C1283 1.387 . S
C1282 H1286 0.950 . S
C1282 C1291 1.390 . S
C1283 C1282 1.387 . S
C1283 C1285 1.387 . S
H1284 C1291 0.950 . S
C1285 C1283 1.387 . S
C1285 C1287 1.390 . S
C1285 H1289 0.950 . S
H1286 C1282 0.950 . S
C1287 C1285 1.390 . S
C1287 C1288 1.387 . S
C1287 H1290 0.950 . S
C1288 C1287 1.387 . S
C1288 C1291 1.387 . S
H1289 C1285 0.950 . S
H1290 C1287 0.950 . S
C1291 C1282 1.390 . S
C1291 H1284 0.950 . S
C1291 C1288 1.387 . S
C1292 C1293 1.387 . S
C1292 H1296 0.950 . S
C1292 C1301 1.390 . S
C1293 C1292 1.387 . S
C1293 C1295 1.387 . S
H1294 C1301 0.950 . S
C1295 C1293 1.387 . S
C1295 C1297 1.390 . S
C1295 H1299 0.950 . S
H1296 C1292 0.950 . S
C1297 C1295 1.390 . S
C1297 C1298 1.387 . S
C1297 H1300 0.950 . S
C1298 C1297 1.387 . S
C1298 C1301 1.387 . S
H1299 C1295 0.950 . S
H1300 C1297 0.950 . S
C1301 C1292 1.390 . S
C1301 H1294 0.950 . S
C1301 C1298 1.387 . S
C1302 C1303 1.387 . S
C1302 H1306 0.950 . S
C1302 C1311 1.390 . S
C1303 C1302 1.387 . S
C1303 C1305 1.387 . S
H1304 C1311 0.950 . S
C1305 C1303 1.387 . S
C1305 C1307 1.390 . S
C1305 H1309 0.950 . S
H1306 C1302 0.950 . S
C1307 C1305 1.390 . S
C1307 C1308 1.387 . S
C1307 H1310 0.950 . S
C1308 C1307 1.387 . S
C1308 C1311 1.387 . S
H1309 C1305 0.950 . S
H1310 C1307 0.950 . S
C1311 C1302 1.390 . S
C1311 H1304 0.950 . S
C1311 C1308 1.387 . S
C1312 C1313 1.387 . S
C1312 H1316 0.950 . S
C1312 C1321 1.390 . S
C1313 C1312 1.387 . S
C1313 C1315 1.387 . S
H1314 C1321 0.950 . S
C1315 C1313 1.387 . S
C1315 C1317 1.390 . S
C1315 H1319 0.950 . S
H1316 C1312 0.950 . S
C1317 C1315 1.390 . S
C1317 C1318 1.387 . S
C1317 H1320 0.950 . S
C1318 C1317 1.387 . S
C1318 C1321 1.387 . S
H1319 C1315 0.950 . S
H1320 C1317 0.950 . S
C1321 C1312 1.390 . S
C1321 H1314 0.950 . S
C1321 C1318 1.387 . S
C1322 C1323 1.387 . S
C1322 H1326 0.950 . S
C1322 C1331 1.390 . S
C1323 C1322 1.387 . S
C1323 C1325 1.387 . S
H1324 C1331 0.950 . S
C1325 C1323 1.387 . S
C1325 C1327 1.390 . S
C1325 H1329 0.950 . S
H1326 C1322 0.950 . S
C1327 C1325 1.390 . S
C1327 C1328 1.387 . S
C1327 H1330 0.950 . S
C1328 C1327 1.387 . S
C1328 C1331 1.387 . S
H1329 C1325 0.950 . S
H1330 C1327 0.950 . S
C1331 C1322 1.390 . S
C1331 H1324 0.950 . S
C1331 C1328 1.387 . S
C1332 C1333 1.387 . S
C1332 H1336 0.950 . S
C1332 C1341 1.390 . S
C1333 C1332 1.387 . S
C1333 C1335 1.387 . S
H1334 C1341 0.950 . S
C1335 C1333 1.387 . S
C1335 C1337 1.390 . S
C1335 H1339 0.950 . S
H1336 C1332 0.950 . S
C1337 C1335 1.390 . S
C1337 C1338 1.387 . S
C1337 H1340 0.950 . S
C1338 C1337 1.387 . S
C1338 C1341 1.387 . S
H1339 C1335 0.950 . S
H1340 C1337 0.950 . S
C1341 C1332 1.390 . S
C1341 H1334 0.950 . S
C1341 C1338 1.387 . S
C1342 C1343 1.387 . S
C1342 H1346 0.950 . S
C1342 C1351 1.390 . S
C1343 C1342 1.387 . S
C1343 C1345 1.387 . S
H1344 C1351 0.950 . S
C1345 C1343 1.387 . S
C1345 C1347 1.390 . S
C1345 H1349 0.950 . S
H1346 C1342 0.950 . S
C1347 C1345 1.390 . S
C1347 C1348 1.387 . S
C1347 H1350 0.950 . S
C1348 C1347 1.387 . S
C1348 C1351 1.387 . S
H1349 C1345 0.950 . S
H1350 C1347 0.950 . S
C1351 C1342 1.390 . S
C1351 H1344 0.950 . S
C1351 C1348 1.387 . S
C1352 C1353 1.387 . S
C1352 H1356 0.950 . S
C1352 C1361 1.390 . S
C1353 C1352 1.387 . S
C1353 C1355 1.387 . S
H1354 C1361 0.950 . S
C1355 C1353 1.387 . S
C1355 C1357 1.390 . S
C1355 H1359 0.950 . S
H1356 C1352 0.950 . S
C1357 C1355 1.390 . S
C1357 C1358 1.387 . S
C1357 H1360 0.950 . S
C1358 C1357 1.387 . S
C1358 C1361 1.387 . S
H1359 C1355 0.950 . S
H1360 C1357 0.950 . S
C1361 C1352 1.390 . S
C1361 H1354 0.950 . S
C1361 C1358 1.387 . S
C1362 C1363 1.387 . S
C1362 H1366 0.950 . S
C1362 C1371 1.390 . S
C1363 C1362 1.387 . S
C1363 C1365 1.387 . S
H1364 C1371 0.950 . S
C1365 C1363 1.387 . S
C1365 C1367 1.390 . S
C1365 H1369 0.950 . S
H1366 C1362 0.950 . S
C1367 C1365 1.390 . S
C1367 C1368 1.387 . S
C1367 H1370 0.950 . S
C1368 C1367 1.387 . S
C1368 C1371 1.387 . S
H1369 C1365 0.950 . S
H1370 C1367 0.950 . S
C1371 C1362 1.390 . S
C1371 H1364 0.950 . S
C1371 C1368 1.387 . S
C1372 C1373 1.387 . S
C1372 H1376 0.950 . S
C1372 C1381 1.390 . S
C1373 C1372 1.387 . S
C1373 C1375 1.387 . S
H1374 C1381 0.950 . S
C1375 C1373 1.387 . S
C1375 C1377 1.390 . S
C1375 H1379 0.950 . S
H1376 C1372 0.950 . S
C1377 C1375 1.390 . S
C1377 C1378 1.387 . S
C1377 H1380 0.950 . S
C1378 C1377 1.387 . S
C1378 C1381 1.387 . S
H1379 C1375 0.950 . S
H1380 C1377 0.950 . S
C1381 C1372 1.390 . S
C1381 H1374 0.950 . S
C1381 C1378 1.387 . S
C1382 C1383 1.387 . S
C1382 H1386 0.950 . S
C1382 C1391 1.390 . S
C1383 C1382 1.387 . S
C1383 C1385 1.387 . S
H1384 C1391 0.950 . S
C1385 C1383 1.387 . S
C1385 C1387 1.390 . S
C1385 H1389 0.950 . S
H1386 C1382 0.950 . S
C1387 C1385 1.390 . S
C1387 C1388 1.387 . S
C1387 H1390 0.950 . S
C1388 C1387 1.387 . S
C1388 C1391 1.387 . S
H1389 C1385 0.950 . S
H1390 C1387 0.950 . S
C1391 C1382 1.390 . S
C1391 H1384 0.950 . S
C1391 C1388 1.387 . S
C1392 C1393 1.387 . S
C1392 H1396 0.950 . S
C1392 C1401 1.390 1_554 S
C1393 C1392 1.387 . S
C1393 C1395 1.387 . S
H1394 C1401 0.950 . S
C1395 C1393 1.387 . S
C1395 C1397 1.390 1_554 S
C1395 H1399 0.950 . S
H1396 C1392 0.950 . S
C1397 C1395 1.390 1_556 S
C1397 C1398 1.387 . S
C1397 H1400 0.950 . S
C1398 C1397 1.387 . S
C1398 C1401 1.387 . S
H1399 C1395 0.950 . S
H1400 C1397 0.950 . S
C1401 C1392 1.390 1_556 S
C1401 H1394 0.950 . S
C1401 C1398 1.387 . S
C1402 C1403 1.387 . S
C1402 H1406 0.950 . S
C1402 C1411 1.390 1_556 S
C1403 C1402 1.387 . S
C1403 C1405 1.387 . S
H1404 C1411 0.950 . S
C1405 C1403 1.387 . S
C1405 C1407 1.390 1_556 S
C1405 H1409 0.950 . S
H1406 C1402 0.950 . S
C1407 C1405 1.390 1_554 S
C1407 C1408 1.387 . S
C1407 H1410 0.950 . S
C1408 C1407 1.387 . S
C1408 C1411 1.387 . S
H1409 C1405 0.950 . S
H1410 C1407 0.950 . S
C1411 C1402 1.390 1_554 S
C1411 H1404 0.950 . S
C1411 C1408 1.387 . S
C1412 C1413 1.387 . S
C1412 H1416 0.950 . S
C1412 C1421 1.390 1_554 S
C1413 C1412 1.387 . S
C1413 C1415 1.387 . S
H1414 C1421 0.950 . S
C1415 C1413 1.387 . S
C1415 C1417 1.390 1_554 S
C1415 H1419 0.950 . S
H1416 C1412 0.950 . S
C1417 C1415 1.390 1_556 S
C1417 C1418 1.387 . S
C1417 H1420 0.950 . S
C1418 C1417 1.387 . S
C1418 C1421 1.387 . S
H1419 C1415 0.950 . S
H1420 C1417 0.950 . S
C1421 C1412 1.390 1_556 S
C1421 H1414 0.950 . S
C1421 C1418 1.387 . S
C1422 C1423 1.387 . S
C1422 H1426 0.950 . S
C1422 C1431 1.390 1_554 S
C1423 C1422 1.387 . S
C1423 C1425 1.387 . S
H1424 C1431 0.950 . S
C1425 C1423 1.387 . S
C1425 C1427 1.390 1_554 S
C1425 H1429 0.950 . S
H1426 C1422 0.950 . S
C1427 C1425 1.390 1_556 S
C1427 C1428 1.387 . S
C1427 H1430 0.950 . S
C1428 C1427 1.387 . S
C1428 C1431 1.387 . S
H1429 C1425 0.950 . S
H1430 C1427 0.950 . S
C1431 C1422 1.390 1_556 S
C1431 H1424 0.950 . S
C1431 C1428 1.387 . S
C1432 C1433 1.387 . S
C1432 H1436 0.950 . S
C1432 C1441 1.390 1_556 S
C1433 C1432 1.387 . S
C1433 C1435 1.387 . S
H1434 C1441 0.950 . S
C1435 C1433 1.387 . S
C1435 C1437 1.390 1_556 S
C1435 H1439 0.950 . S
H1436 C1432 0.950 . S
C1437 C1435 1.390 1_554 S
C1437 C1438 1.387 . S
C1437 H1440 0.950 . S
C1438 C1437 1.387 . S
C1438 C1441 1.387 . S
H1439 C1435 0.950 . S
H1440 C1437 0.950 . S
C1441 C1432 1.390 1_554 S
C1441 H1434 0.950 . S
C1441 C1438 1.387 . S
C1442 C1443 1.387 . S
C1442 H1446 0.950 . S
C1442 C1451 1.390 1_554 S
C1443 C1442 1.387 . S
C1443 C1445 1.387 . S
H1444 C1451 0.950 . S
C1445 C1443 1.387 . S
C1445 C1447 1.390 1_554 S
C1445 H1449 0.950 . S
H1446 C1442 0.950 . S
C1447 C1445 1.390 1_556 S
C1447 C1448 1.387 . S
C1447 H1450 0.950 . S
C1448 C1447 1.387 . S
C1448 C1451 1.387 . S
H1449 C1445 0.950 . S
H1450 C1447 0.950 . S
C1451 C1442 1.390 1_556 S
C1451 H1444 0.950 . S
C1451 C1448 1.387 . S
C1452 C1453 1.387 . S
C1452 H1456 0.950 . S
C1452 C1461 1.390 1_556 S
C1453 C1452 1.387 . S
C1453 C1455 1.387 . S
H1454 C1461 0.950 . S
C1455 C1453 1.387 . S
C1455 C1457 1.390 1_556 S
C1455 H1459 0.950 . S
H1456 C1452 0.950 . S
C1457 C1455 1.390 1_554 S
C1457 C1458 1.387 . S
C1457 H1460 0.950 . S
C1458 C1457 1.387 . S
C1458 C1461 1.387 . S
H1459 C1455 0.950 . S
H1460 C1457 0.950 . S
C1461 C1452 1.390 1_554 S
C1461 H1454 0.950 . S
C1461 C1458 1.387 . S
C1462 C1463 1.387 . S
C1462 H1466 0.950 . S
C1462 C1471 1.390 1_554 S
C1463 C1462 1.387 . S
C1463 C1465 1.387 . S
H1464 C1471 0.950 . S
C1465 C1463 1.387 . S
C1465 C1467 1.390 1_554 S
C1465 H1469 0.950 . S
H1466 C1462 0.950 . S
C1467 C1465 1.390 1_556 S
C1467 C1468 1.387 . S
C1467 H1470 0.950 . S
C1468 C1467 1.387 . S
C1468 C1471 1.387 . S
H1469 C1465 0.950 . S
H1470 C1467 0.950 . S
C1471 C1462 1.390 1_556 S
C1471 H1464 0.950 . S
C1471 C1468 1.387 . S
C1472 C1473 1.387 . S
C1472 H1476 0.950 . S
C1472 C1481 1.390 1_455 S
C1473 C1472 1.387 . S
C1473 C1475 1.387 . S
H1474 C1481 0.950 . S
C1475 C1473 1.387 . S
C1475 C1477 1.390 1_455 S
C1475 H1479 0.950 . S
H1476 C1472 0.950 . S
C1477 C1475 1.390 1_655 S
C1477 C1478 1.387 . S
C1477 H1480 0.950 . S
C1478 C1477 1.387 . S
C1478 C1481 1.387 . S
H1479 C1475 0.950 . S
H1480 C1477 0.950 . S
C1481 C1472 1.390 1_655 S
C1481 H1474 0.950 . S
C1481 C1478 1.387 . S
C1482 C1483 1.387 . S
C1482 H1486 0.950 . S
C1482 C1491 1.390 1_565 S
C1483 C1482 1.387 . S
C1483 C1485 1.387 . S
H1484 C1491 0.950 . S
C1485 C1483 1.387 . S
C1485 C1487 1.390 1_565 S
C1485 H1489 0.950 . S
H1486 C1482 0.950 . S
C1487 C1485 1.390 1_545 S
C1487 C1488 1.387 . S
C1487 H1490 0.950 . S
C1488 C1487 1.387 . S
C1488 C1491 1.387 . S
H1489 C1485 0.950 . S
H1490 C1487 0.950 . S
C1491 C1482 1.390 1_545 S
C1491 H1484 0.950 . S
C1491 C1488 1.387 . S
C1492 C1493 1.387 . S
C1492 H1496 0.950 . S
C1492 C1501 1.390 1_455 S
C1493 C1492 1.387 . S
C1493 C1495 1.387 . S
H1494 C1501 0.950 . S
C1495 C1493 1.387 . S
C1495 C1497 1.390 1_455 S
C1495 H1499 0.950 . S
H1496 C1492 0.950 . S
C1497 C1495 1.390 1_655 S
C1497 C1498 1.387 . S
C1497 H1500 0.950 . S
C1498 C1497 1.387 . S
C1498 C1501 1.387 . S
H1499 C1495 0.950 . S
H1500 C1497 0.950 . S
C1501 C1492 1.390 1_655 S
C1501 H1494 0.950 . S
C1501 C1498 1.387 . S
C1502 C1503 1.387 . S
C1502 H1506 0.950 . S
C1502 C1511 1.390 1_565 S
C1503 C1502 1.387 . S
C1503 C1505 1.387 . S
H1504 C1511 0.950 . S
C1505 C1503 1.387 . S
C1505 C1507 1.390 1_565 S
C1505 H1509 0.950 . S
H1506 C1502 0.950 . S
C1507 C1505 1.390 1_545 S
C1507 C1508 1.387 . S
C1507 H1510 0.950 . S
C1508 C1507 1.387 . S
C1508 C1511 1.387 . S
H1509 C1505 0.950 . S
H1510 C1507 0.950 . S
C1511 C1502 1.390 1_545 S
C1511 H1504 0.950 . S
C1511 C1508 1.387 . S
C1512 C1513 1.387 . S
C1512 H1516 0.950 . S
C1512 C1521 1.390 1_655 S
C1513 C1512 1.387 . S
C1513 C1515 1.387 . S
H1514 C1521 0.950 . S
C1515 C1513 1.387 . S
C1515 C1517 1.390 1_655 S
C1515 H1519 0.950 . S
H1516 C1512 0.950 . S
C1517 C1515 1.390 1_455 S
C1517 C1518 1.387 . S
C1517 H1520 0.950 . S
C1518 C1517 1.387 . S
C1518 C1521 1.387 . S
H1519 C1515 0.950 . S
H1520 C1517 0.950 . S
C1521 C1512 1.390 1_455 S
C1521 H1514 0.950 . S
C1521 C1518 1.387 . S
C1522 C1523 1.387 . S
C1522 H1526 0.950 . S
C1522 C1531 1.390 1_545 S
C1523 C1522 1.387 . S
C1523 C1525 1.387 . S
H1524 C1531 0.950 . S
C1525 C1523 1.387 . S
C1525 C1527 1.390 1_545 S
C1525 H1529 0.950 . S
H1526 C1522 0.950 . S
C1527 C1525 1.390 1_565 S
C1527 C1528 1.387 . S
C1527 H1530 0.950 . S
C1528 C1527 1.387 . S
C1528 C1531 1.387 . S
H1529 C1525 0.950 . S
H1530 C1527 0.950 . S
C1531 C1522 1.390 1_565 S
C1531 H1524 0.950 . S
C1531 C1528 1.387 . S
C1532 C1533 1.387 . S
C1532 H1536 0.950 . S
C1532 C1541 1.390 1_455 S
C1533 C1532 1.387 . S
C1533 C1535 1.387 . S
H1534 C1541 0.950 . S
C1535 C1533 1.387 . S
C1535 C1537 1.390 1_455 S
C1535 H1539 0.950 . S
H1536 C1532 0.950 . S
C1537 C1535 1.390 1_655 S
C1537 C1538 1.387 . S
C1537 H1540 0.950 . S
C1538 C1537 1.387 . S
C1538 C1541 1.387 . S
H1539 C1535 0.950 . S
H1540 C1537 0.950 . S
C1541 C1532 1.390 1_655 S
C1541 H1534 0.950 . S
C1541 C1538 1.387 . S
C1542 C1543 1.387 . S
C1542 H1546 0.950 . S
C1542 C1551 1.390 1_545 S
C1543 C1542 1.387 . S
C1543 C1545 1.387 . S
H1544 C1551 0.950 . S
C1545 C1543 1.387 . S
C1545 C1547 1.390 1_545 S
C1545 H1549 0.950 . S
H1546 C1542 0.950 . S
C1547 C1545 1.390 1_565 S
C1547 C1548 1.387 . S
C1547 H1550 0.950 . S
C1548 C1547 1.387 . S
C1548 C1551 1.387 . S
H1549 C1545 0.950 . S
H1550 C1547 0.950 . S
C1551 C1542 1.390 1_565 S
C1551 H1544 0.950 . S
C1551 C1548 1.387 . S
C1552 C1553 1.387 . S
C1552 H1556 0.950 . S
C1552 C1561 1.390 1_545 S
C1553 C1552 1.387 . S
C1553 C1555 1.387 . S
H1554 C1561 0.950 . S
C1555 C1553 1.387 . S
C1555 C1557 1.390 1_545 S
C1555 H1559 0.950 . S
H1556 C1552 0.950 . S
C1557 C1555 1.390 1_565 S
C1557 C1558 1.387 . S
C1557 H1560 0.950 . S
C1558 C1557 1.387 . S
C1558 C1561 1.387 . S
H1559 C1555 0.950 . S
H1560 C1557 0.950 . S
C1561 C1552 1.390 1_565 S
C1561 H1554 0.950 . S
C1561 C1558 1.387 . S
C1562 C1563 1.387 . S
C1562 H1566 0.950 . S
C1562 C1571 1.390 1_545 S
C1563 C1562 1.387 . S
C1563 C1565 1.387 . S
H1564 C1571 0.950 . S
C1565 C1563 1.387 . S
C1565 C1567 1.390 1_545 S
C1565 H1569 0.950 . S
H1566 C1562 0.950 . S
C1567 C1565 1.390 1_565 S
C1567 C1568 1.387 . S
C1567 H1570 0.950 . S
C1568 C1567 1.387 . S
C1568 C1571 1.387 . S
H1569 C1565 0.950 . S
H1570 C1567 0.950 . S
C1571 C1562 1.390 1_565 S
C1571 H1564 0.950 . S
C1571 C1568 1.387 . S
C1572 C1573 1.387 . S
C1572 H1576 0.950 . S
C1572 C1581 1.390 1_655 S
C1573 C1572 1.387 . S
C1573 C1575 1.387 . S
H1574 C1581 0.950 . S
C1575 C1573 1.387 . S
C1575 C1577 1.390 1_655 S
C1575 H1579 0.950 . S
H1576 C1572 0.950 . S
C1577 C1575 1.390 1_455 S
C1577 C1578 1.387 . S
C1577 H1580 0.950 . S
C1578 C1577 1.387 . S
C1578 C1581 1.387 . S
H1579 C1575 0.950 . S
H1580 C1577 0.950 . S
C1581 C1572 1.390 1_455 S
C1581 H1574 0.950 . S
C1581 C1578 1.387 . S
C1582 C1583 1.387 . S
C1582 H1586 0.950 . S
C1582 C1591 1.390 1_545 S
C1583 C1582 1.387 . S
C1583 C1585 1.387 . S
H1584 C1591 0.950 . S
C1585 C1583 1.387 . S
C1585 C1587 1.390 1_545 S
C1585 H1589 0.950 . S
H1586 C1582 0.950 . S
C1587 C1585 1.390 1_565 S
C1587 C1588 1.387 . S
C1587 H1590 0.950 . S
C1588 C1587 1.387 . S
C1588 C1591 1.387 . S
H1589 C1585 0.950 . S
H1590 C1587 0.950 . S
C1591 C1582 1.390 1_565 S
C1591 H1584 0.950 . S
C1591 C1588 1.387 . S
C1592 C1593 1.387 . S
C1592 H1596 0.950 . S
C1592 C1601 1.390 1_455 S
C1593 C1592 1.387 . S
C1593 C1595 1.387 . S
H1594 C1601 0.950 . S
C1595 C1593 1.387 . S
C1595 C1597 1.390 1_455 S
C1595 H1599 0.950 . S
H1596 C1592 0.950 . S
C1597 C1595 1.390 1_655 S
C1597 C1598 1.387 . S
C1597 H1600 0.950 . S
C1598 C1597 1.387 . S
C1598 C1601 1.387 . S
H1599 C1595 0.950 . S
H1600 C1597 0.950 . S
C1601 C1592 1.390 1_655 S
C1601 H1594 0.950 . S
C1601 C1598 1.387 . S
C1602 C1603 1.387 . S
C1602 H1606 0.950 . S
C1602 C1611 1.390 1_545 S
C1603 C1602 1.387 . S
C1603 C1605 1.387 . S
H1604 C1611 0.950 . S
C1605 C1603 1.387 . S
C1605 C1607 1.390 1_545 S
C1605 H1609 0.950 . S
H1606 C1602 0.950 . S
C1607 C1605 1.390 1_565 S
C1607 C1608 1.387 . S
C1607 H1610 0.950 . S
C1608 C1607 1.387 . S
C1608 C1611 1.387 . S
H1609 C1605 0.950 . S
H1610 C1607 0.950 . S
C1611 C1602 1.390 1_565 S
C1611 H1604 0.950 . S
C1611 C1608 1.387 . S
C1612 C1613 1.387 . S
C1612 H1616 0.950 . S
C1612 C1621 1.390 1_655 S
C1613 C1612 1.387 . S
C1613 C1615 1.387 . S
H1614 C1621 0.950 . S
C1615 C1613 1.387 . S
C1615 C1617 1.390 1_655 S
C1615 H1619 0.950 . S
H1616 C1612 0.950 . S
C1617 C1615 1.390 1_455 S
C1617 C1618 1.387 . S
C1617 H1620 0.950 . S
C1618 C1617 1.387 . S
C1618 C1621 1.387 . S
H1619 C1615 0.950 . S
H1620 C1617 0.950 . S
C1621 C1612 1.390 1_455 S
C1621 H1614 0.950 . S
C1621 C1618 1.387 . S
C1622 C1623 1.387 . S
C1622 H1626 0.950 . S
C1622 C1631 1.390 1_455 S
C1623 C1622 1.387 . S
C1623 C1625 1.387 . S
H1624 C1631 0.950 . S
C1625 C1623 1.387 . S
C1625 C1627 1.390 1_455 S
C1625 H1629 0.950 . S
H1626 C1622 0.950 . S
C1627 C1625 1.390 1_655 S
C1627 C1628 1.387 . S
C1627 H1630 0.950 . S
C1628 C1627 1.387 . S
C1628 C1631 1.387 . S
H1629 C1625 0.950 . S
H1630 C1627 0.950 . S
C1631 C1622 1.390 1_655 S
C1631 H1624 0.950 . S
C1631 C1628 1.387 . S
C673 C554 1.359 . S
C678 C3 1.360 . S
C683 C22 1.376 . S
C688 C507 1.376 . S
C693 C31 1.356 . S
C698 C526 1.356 . S
C703 C540 1.347 . S
C708 C50 1.343 . S
C713 C470 1.277 . S
C718 C59 1.276 . S
C723 C73 1.390 . S
C728 C484 1.393 . S
C733 C87 1.300 . S
C738 C493 1.295 . S
C743 C101 1.420 . S
C748 C451 1.425 . S
C753 C120 1.422 . S
C758 C437 1.419 . S
C763 C400 1.316 . S
C768 C129 1.317 . S
C773 C409 1.370 . S
C778 C148 1.372 . S
C783 C157 1.311 . S
C788 C428 1.312 . S
C793 C176 1.282 . S
C798 C358 1.281 . S
C803 C185 1.328 . S
C808 C367 1.325 . S
C813 C386 1.231 . S
C818 C204 1.231 . S
C823 C339 1.389 . S
C828 C213 1.394 . S
C833 C232 1.424 . S
C838 C624 1.423 . S
C843 C661 1.402 . S
C848 C241 1.399 . S
C853 C638 1.392 . S
C858 C260 1.390 . S
C863 C647 1.337 . S
C868 C269 1.332 . S
C873 C568 1.368 . S
C878 C288 1.370 . S
C883 C596 1.400 . S
C888 C302 1.400 . S
C893 C316 1.297 . S
C898 C605 1.296 . S
C903 C577 1.246 . S
C908 C330 1.247 . S
C913 C456 1.359 . S
C918 C283 1.360 . S
C923 C246 1.377 . S
C928 C465 1.378 . S
C933 C479 1.371 . S
C938 C255 1.374 . S
C943 C498 1.353 . S
C948 C274 1.351 . S
C953 C325 1.284 . S
C958 C512 1.285 . S
C963 C521 1.413 . S
C968 C297 1.407 . S
C973 C311 1.303 . S
C978 C535 1.297 . S
C983 C227 1.419 . S
C988 C549 1.424 . S
C993 C563 1.418 . S
C998 C218 1.421 . S
C1003 C171 1.331 . S
C1008 C666 1.332 . S
C1013 C633 1.375 . S
C1018 C190 1.376 . S
C1023 C199 1.254 . S
C1028 C652 1.257 . S
C1033 C134 1.230 . S
C1038 C582 1.230 . S
C1043 C143 1.331 . S
C1048 C591 1.329 . S
C1053 C162 1.247 . S
C1058 C610 1.245 . S
C1063 C619 1.390 . S
C1068 C115 1.394 . S
C1073 C344 1.420 . S
C1078 C106 1.423 . S
C1083 C395 1.393 . S
C1088 C17 1.391 . S
C1093 C414 1.364 . S
C1098 C36 1.363 . S
C1103 C423 1.341 . S
C1108 C45 1.337 . S
C1113 C442 1.365 . S
C1118 C8 1.368 . S
C1123 C78 1.373 . S
C1128 C372 1.372 . S
C1133 C381 1.287 . S
C1138 C92 1.289 . S
C1143 C353 1.249 . S
C1148 C64 1.251 . S
C1153 C7 1.502 . S
C1158 C371 1.505 . S
C1163 C387 1.411 . S
C1168 C23 1.410 . S
C1173 C35 1.505 . S
C1178 C343 1.505 . S
C1183 C51 1.405 . S
C1188 C359 1.403 . S
C1193 C63 1.455 . S
C1198 C429 1.454 . S
C1203 C441 1.511 . S
C1208 C77 1.508 . S
C1213 C91 1.461 . S
C1218 C401 1.464 . S
C1223 C413 1.523 . S
C1228 C105 1.520 . S
C1233 C121 1.537 . S
C1238 C511 1.538 . S
C1243 C527 1.470 . S
C1248 C133 1.476 . S
C1253 C149 1.482 . S
C1258 C541 1.489 . S
C1263 C161 1.483 . S
C1268 C555 1.476 . S
C1273 C177 1.500 . S
C1278 C455 1.493 . S
C1283 C189 1.459 . S
C1288 C471 1.460 . S
C1293 C485 1.442 . S
C1298 C205 1.439 . S
C1303 C217 1.509 . S
C1308 C497 1.518 . S
C1313 C609 1.487 . S
C1318 C233 1.490 . S
C1323 C245 1.484 . S
C1328 C639 1.496 . S
C1333 C261 1.518 . S
C1338 C651 1.510 . S
C1343 C569 1.470 . S
C1348 C273 1.459 . S
C1353 C665 1.507 . S
C1358 C289 1.510 . S
C1363 C303 1.468 . S
C1368 C581 1.463 . S
C1373 C597 1.475 . S
C1378 C317 1.468 . S
C1383 C331 1.452 . S
C1388 C625 1.465 . S
C1393 C595 1.507 . S
C1398 C287 1.510 . S
C1403 C247 1.415 . S
C1408 C611 1.415 . S
C1413 C623 1.511 . S
C1418 C259 1.514 . S
C1423 C583 1.399 . S
C1428 C275 1.402 . S
C1433 C653 1.453 . S
C1438 C329 1.450 . S
C1443 C301 1.516 . S
C1448 C567 1.517 . S
C1453 C667 1.469 . S
C1458 C315 1.467 . S
C1463 C231 1.527 . S
C1468 C637 1.526 . S
C1473 C469 1.538 . S
C1478 C219 1.538 . S
C1483 C175 1.501 . S
C1488 C483 1.490 . S
C1493 C191 1.480 . S
C1498 C499 1.489 . S
C1503 C457 1.450 . S
C1508 C203 1.452 . S
C1513 C135 1.469 . S
C1518 C553 1.465 . S
C1523 C513 1.460 . S
C1528 C147 1.457 . S
C1533 C163 1.467 . S
C1538 C525 1.462 . S
C1543 C119 1.509 . S
C1548 C539 1.518 . S
C1553 C385 1.486 . S
C1558 C107 1.488 . S
C1563 C21 1.478 . S
C1568 C415 1.489 . S
C1573 C37 1.496 . S
C1578 C427 1.489 . S
C1583 C443 1.464 . S
C1588 C49 1.456 . S
C1593 C9 1.510 . S
C1598 C399 1.505 . S
C1603 C79 1.448 . S
C1608 C357 1.444 . S
C1613 C93 1.462 . S
C1618 C373 1.469 . S
C1623 C65 1.453 . S
C1628 C345 1.461 . S
