# Generated by pormake.
# Topology wkj, (6)-cn, num edge types: 1
# Building blocks:
#     Node 0, Type 0, BuildingBlock: MIDCAF_clean_sbu_0, # of connection points: 6
#     Node 1, Type 0, BuildingBlock: MIDCAF_clean_sbu_0, # of connection points: 6
#     Node 2, Type 0, BuildingBlock: MIDCAF_clean_sbu_0, # of connection points: 6
#     Node 3, Type 0, BuildingBlock: MIDCAF_clean_sbu_0, # of connection points: 6
#     Node 4, Type 0, BuildingBlock: MIDCAF_clean_sbu_0, # of connection points: 6
#     Node 5, Type 0, BuildingBlock: MIDCAF_clean_sbu_0, # of connection points: 6
#     Node 6, Type 0, BuildingBlock: MIDCAF_clean_sbu_0, # of connection points: 6
#     Node 7, Type 0, BuildingBlock: MIDCAF_clean_sbu_0, # of connection points: 6
#     Node 8, Type 0, BuildingBlock: MIDCAF_clean_sbu_0, # of connection points: 6
#     Node 9, Type 0, BuildingBlock: MIDCAF_clean_sbu_0, # of connection points: 6
#     Node 10, Type 0, BuildingBlock: MIDCAF_clean_sbu_0, # of connection points: 6
#     Node 11, Type 0, BuildingBlock: MIDCAF_clean_sbu_0, # of connection points: 6
#     Edge 12, Type (0, 0), BuildingBlock: OJICUG_clean_linker_0, # of connection points: 2
#     Edge 13, Type (0, 0), BuildingBlock: OJICUG_clean_linker_0, # of connection points: 2
#     Edge 14, Type (0, 0), BuildingBlock: OJICUG_clean_linker_0, # of connection points: 2
#     Edge 15, Type (0, 0), BuildingBlock: OJICUG_clean_linker_0, # of connection points: 2
#     Edge 16, Type (0, 0), BuildingBlock: OJICUG_clean_linker_0, # of connection points: 2
#     Edge 17, Type (0, 0), BuildingBlock: OJICUG_clean_linker_0, # of connection points: 2
#     Edge 18, Type (0, 0), BuildingBlock: OJICUG_clean_linker_0, # of connection points: 2
#     Edge 19, Type (0, 0), BuildingBlock: OJICUG_clean_linker_0, # of connection points: 2
#     Edge 20, Type (0, 0), BuildingBlock: OJICUG_clean_linker_0, # of connection points: 2
#     Edge 21, Type (0, 0), BuildingBlock: OJICUG_clean_linker_0, # of connection points: 2
#     Edge 22, Type (0, 0), BuildingBlock: OJICUG_clean_linker_0, # of connection points: 2
#     Edge 23, Type (0, 0), BuildingBlock: OJICUG_clean_linker_0, # of connection points: 2
#     Edge 24, Type (0, 0), BuildingBlock: OJICUG_clean_linker_0, # of connection points: 2
#     Edge 25, Type (0, 0), BuildingBlock: OJICUG_clean_linker_0, # of connection points: 2
#     Edge 26, Type (0, 0), BuildingBlock: OJICUG_clean_linker_0, # of connection points: 2
#     Edge 27, Type (0, 0), BuildingBlock: OJICUG_clean_linker_0, # of connection points: 2
#     Edge 28, Type (0, 0), BuildingBlock: OJICUG_clean_linker_0, # of connection points: 2
#     Edge 29, Type (0, 0), BuildingBlock: OJICUG_clean_linker_0, # of connection points: 2
#     Edge 30, Type (0, 0), BuildingBlock: OJICUG_clean_linker_0, # of connection points: 2
#     Edge 31, Type (0, 0), BuildingBlock: OJICUG_clean_linker_0, # of connection points: 2
#     Edge 32, Type (0, 0), BuildingBlock: OJICUG_clean_linker_0, # of connection points: 2
#     Edge 33, Type (0, 0), BuildingBlock: OJICUG_clean_linker_0, # of connection points: 2
#     Edge 34, Type (0, 0), BuildingBlock: OJICUG_clean_linker_0, # of connection points: 2
#     Edge 35, Type (0, 0), BuildingBlock: OJICUG_clean_linker_0, # of connection points: 2
#     Edge 36, Type (0, 0), BuildingBlock: OJICUG_clean_linker_0, # of connection points: 2
#     Edge 37, Type (0, 0), BuildingBlock: OJICUG_clean_linker_0, # of connection points: 2
#     Edge 38, Type (0, 0), BuildingBlock: OJICUG_clean_linker_0, # of connection points: 2
#     Edge 39, Type (0, 0), BuildingBlock: OJICUG_clean_linker_0, # of connection points: 2
#     Edge 40, Type (0, 0), BuildingBlock: OJICUG_clean_linker_0, # of connection points: 2
#     Edge 41, Type (0, 0), BuildingBlock: OJICUG_clean_linker_0, # of connection points: 2
#     Edge 42, Type (0, 0), BuildingBlock: OJICUG_clean_linker_0, # of connection points: 2
#     Edge 43, Type (0, 0), BuildingBlock: OJICUG_clean_linker_0, # of connection points: 2
#     Edge 44, Type (0, 0), BuildingBlock: OJICUG_clean_linker_0, # of connection points: 2
#     Edge 45, Type (0, 0), BuildingBlock: OJICUG_clean_linker_0, # of connection points: 2
#     Edge 46, Type (0, 0), BuildingBlock: OJICUG_clean_linker_0, # of connection points: 2
#     Edge 47, Type (0, 0), BuildingBlock: OJICUG_clean_linker_0, # of connection points: 2
# Relax obj value: 0.741
# Max RMSD: 0.316
# Mean RMSD: 0.316
data_MOF--net-wkj--node1-MIDCAF_clean_sbu_0--edge1-OJICUG_clean_linker_0
_symmetry_space_group_name_H-M    P1
_symmetry_Int_Tables_number       1
_symmetry_cell_setting            triclinic
loop_
_symmetry_equiv_pos_as_xyz
'x, y, z'
_cell_length_a     38.55409
_cell_length_b     38.172084
_cell_length_c     17.495879
_cell_angle_alpha  90.279202
_cell_angle_beta   89.224124
_cell_angle_gamma 119.29409
loop_
_atom_site_label
_atom_site_type_symbol
_atom_site_fract_x
_atom_site_fract_y
_atom_site_fract_z
_atom_type_partial_charge
Zn0 Zn 0.35862 0.07785 0.23094 0.0
Zn1 Zn 0.49687 0.16546 0.19176 0.0
Zn2 Zn 0.42847 0.11046 0.20944 0.0
C3 C 0.49229 0.092 0.23616 0.0
C4 C 0.48541 0.15987 0.34192 0.0
O5 O 0.42106 0.16098 0.2072 0.0
O6 O 0.35602 0.12892 0.21699 0.0
C7 C 0.37705 0.04363 0.09866 0.0
O8 O 0.46305 0.0915 0.27361 0.0
O9 O 0.51152 0.1198 0.18814 0.0
O10 O 0.49633 0.18905 0.29595 0.0
O11 O 0.46134 0.12413 0.31776 0.0
O12 O 0.34862 0.04107 0.13993 0.0
O13 O 0.41274 0.07052 0.11329 0.0
O14 O 0.42411 0.07676 0.31417 0.0
O15 O 0.3601 0.05564 0.33382 0.0
C16 C 0.39198 0.05662 0.35384 0.0
O17 O 0.45242 0.10938 0.09784 0.0
O18 O 0.47587 0.17422 0.09349 0.0
C19 C 0.3883 0.1613 0.20614 0.0
C20 C 0.47166 0.14263 0.0612 0.0
Zn21 Zn 0.30401 0.39182 0.58374 0.0
Zn22 Zn 0.36739 0.53643 0.48977 0.0
Zn23 Zn 0.33514 0.46045 0.5376 0.0
C24 C 0.33742 0.49033 0.38408 0.0
C25 C 0.42203 0.51107 0.53916 0.0
O26 O 0.36784 0.46606 0.64335 0.0
O27 O 0.33195 0.40305 0.68264 0.0
C28 C 0.24612 0.41625 0.56016 0.0
O29 O 0.35017 0.46959 0.41911 0.0
O30 O 0.31911 0.50387 0.42402 0.0
O31 O 0.41755 0.52763 0.48017 0.0
O32 O 0.39274 0.4933 0.58676 0.0
O33 O 0.25017 0.38648 0.57863 0.0
O34 O 0.27663 0.45022 0.54714 0.0
O35 O 0.34974 0.43155 0.44446 0.0
O36 O 0.32255 0.37091 0.4953 0.0
C37 C 0.34188 0.39477 0.44133 0.0
O38 O 0.36739 0.50715 0.6279 0.0
O39 O 0.36182 0.55939 0.59088 0.0
C40 C 0.35983 0.43838 0.69329 0.0
C41 C 0.37096 0.54213 0.64202 0.0
Zn42 Zn 0.88026 0.29798 0.94759 0.0
Zn43 Zn 0.91429 0.47416 0.84776 0.0
Zn44 Zn 0.89348 0.39225 0.91453 0.0
C45 C 0.97327 0.45161 0.87254 0.0
C46 C 0.89718 0.45768 0.01949 0.0
O47 O 0.84818 0.33735 0.902 0.0
O48 O 0.82213 0.27297 0.91857 0.0
C49 C 0.93641 0.34758 0.82083 0.0
O50 O 0.94582 0.41776 0.84948 0.0
O51 O 0.96559 0.47978 0.88297 0.0
O52 O 0.89444 0.4752 0.95944 0.0
O53 O 0.90191 0.42665 0.01498 0.0
O54 O 0.91987 0.31442 0.8571 0.0
O55 O 0.92984 0.37667 0.83891 0.0
O56 O 0.90679 0.39241 0.03575 0.0
O57 O 0.89899 0.33053 0.04546 0.0
C58 C 0.908 0.36442 0.0748 0.0
O59 O 0.84343 0.39338 0.86107 0.0
O60 O 0.85921 0.4538 0.89842 0.0
C61 C 0.8194 0.30259 0.89392 0.0
C62 C 0.83444 0.42145 0.86668 0.0
Zn63 Zn 0.48051 0.86684 0.18894 0.0
Zn64 Zn 0.61769 0.94609 0.20525 0.0
Zn65 Zn 0.54663 0.91722 0.20255 0.0
C66 C 0.59806 0.97794 0.07527 0.0
C67 C 0.58195 0.86131 0.20091 0.0
O68 O 0.51335 0.90569 0.31441 0.0
O69 O 0.47614 0.84111 0.29161 0.0
C70 C 0.48802 0.94188 0.2322 0.0
O71 O 0.5627 0.95545 0.10143 0.0
O72 O 0.6272 0.97788 0.10772 0.0
O73 O 0.61614 0.89211 0.20167 0.0
O74 O 0.55122 0.86536 0.20523 0.0
O75 O 0.46808 0.91444 0.18448 0.0
O76 O 0.51567 0.94006 0.26952 0.0
O77 O 0.52247 0.91685 0.091 0.0
O78 O 0.49728 0.85172 0.09076 0.0
C79 C 0.50255 0.88313 0.05654 0.0
O80 O 0.55499 0.95388 0.30384 0.0
O81 O 0.61983 0.97652 0.30178 0.0
C82 C 0.48751 0.87012 0.33797 0.0
C83 C 0.58974 0.977 0.33083 0.0
Zn84 Zn 0.63765 0.56709 0.4991 0.0
Zn85 Zn 0.58598 0.42739 0.53987 0.0
Zn86 Zn 0.61099 0.49627 0.51991 0.0
C87 C 0.53311 0.45625 0.58496 0.0
C88 C 0.60868 0.4541 0.67608 0.0
O89 O 0.6709 0.51256 0.4998 0.0
O90 O 0.68967 0.57386 0.45947 0.0
C91 C 0.57117 0.52391 0.40318 0.0
O92 O 0.56768 0.48329 0.60759 0.0
O93 O 0.53099 0.42647 0.5488 0.0
O94 O 0.61777 0.43272 0.63402 0.0
O95 O 0.6003 0.47931 0.64373 0.0
O96 O 0.59408 0.55858 0.42882 0.0
O97 O 0.57488 0.49391 0.42465 0.0
O98 O 0.59828 0.52157 0.62667 0.0
O99 O 0.63293 0.58672 0.60121 0.0
C100 C 0.61093 0.55857 0.64617 0.0
O101 O 0.57558 0.4566 0.42607 0.0
O102 O 0.59638 0.41235 0.43662 0.0
C103 C 0.69711 0.54541 0.4696 0.0
C104 C 0.57664 0.42537 0.40076 0.0
Zn105 Zn 0.0749 0.6231 0.96048 0.0
Zn106 Zn 0.17803 0.57841 0.95346 0.0
Zn107 Zn 0.1097 0.58852 0.94811 0.0
C108 C 0.13484 0.55455 0.81889 0.0
C109 C 0.10834 0.51443 0.01797 0.0
O110 O 0.08084 0.57179 0.06785 0.0
O111 O 0.05704 0.61394 0.06956 0.0
C112 C 0.15272 0.67535 0.90164 0.0
O113 O 0.10405 0.54927 0.85716 0.0
O114 O 0.16926 0.5816 0.83945 0.0
O115 O 0.13986 0.52041 -0.01663 0.0
O116 O 0.10367 0.54498 0.03405 0.0
O117 O 0.12037 0.67434 0.92005 0.0
O118 O 0.15711 0.64502 0.91486 0.0
O119 O 0.0671 0.55877 0.85523 0.0
O120 O 0.03452 0.59125 0.882 0.0
C121 C 0.0389 0.56637 0.84075 0.0
O122 O 0.12834 0.58602 0.06299 0.0
O123 O 0.19262 0.62029 0.03928 0.0
C124 C 0.06102 0.58674 0.1024 0.0
C125 C 0.16436 0.60515 0.088 0.0
Zn126 Zn 0.84088 0.43857 0.44902 0.0
Zn127 Zn 0.92866 0.59478 0.4728 0.0
Zn128 Zn 0.88365 0.51315 0.46401 0.0
C129 C 0.96497 0.56127 0.37155 0.0
C130 C 0.95274 0.55467 0.57131 0.0
O131 O 0.84634 0.48874 0.56494 0.0
O132 O 0.8005 0.42864 0.52863 0.0
C133 C 0.84384 0.47534 0.3093 0.0
O134 O 0.94494 0.53043 0.41579 0.0
O135 O 0.95987 0.59158 0.37871 0.0
O136 O 0.94217 0.58119 0.57634 0.0
O137 O 0.94292 0.53207 0.51203 0.0
O138 O 0.82972 0.44138 0.34105 0.0
O139 O 0.86202 0.50751 0.34912 0.0
O140 O 0.92488 0.49319 0.45875 0.0
O141 O 0.88598 0.42698 0.46894 0.0
C142 C 0.92013 0.45768 0.46624 0.0
O143 O 0.85934 0.53981 0.39168 0.0
O144 O 0.87673 0.59397 0.46069 0.0
C145 C 0.8141 0.45588 0.57865 0.0
C146 C 0.85248 0.56746 0.41598 0.0
Zn147 Zn 0.38328 0.84862 0.72634 0.0
Zn148 Zn 0.29384 0.89579 0.70919 0.0
Zn149 Zn 0.34691 0.88259 0.71768 0.0
C150 C 0.34551 0.93655 0.5848 0.0
C151 C 0.33817 0.93581 0.84141 0.0
O152 O 0.37628 0.89153 0.82627 0.0
O153 O 0.35709 0.82731 0.82814 0.0
C154 C 0.37517 0.85 0.5785 0.0
O155 O 0.36516 0.92057 0.61335 0.0
O156 O 0.3119 0.9281 0.61297 0.0
O157 O 0.30705 0.92839 0.80551 0.0
O158 O 0.35958 0.92059 0.81805 0.0
O159 O 0.36628 0.82097 0.62385 0.0
O160 O 0.37339 0.88097 0.60398 0.0
O161 O 0.39827 0.91834 0.64843 0.0
O162 O 0.43411 0.90513 0.72782 0.0
C163 C 0.4316 0.92935 0.68199 0.0
O164 O 0.30012 0.82274 0.72281 0.0
O165 O 0.25216 0.83775 0.7157 0.0
C166 C 0.37463 0.86118 0.86096 0.0
C167 C 0.26324 0.81187 0.7254 0.0
Zn168 Zn 0.52307 0.37145 0.10101 0.0
Zn169 Zn 0.33531 0.30169 0.00907 0.0
Zn170 Zn 0.43524 0.33728 0.02887 0.0
C171 C 0.39678 0.38029 0.93491 0.0
C172 C 0.37487 0.33548 0.16291 0.0
O173 O 0.44055 0.33439 0.14998 0.0
O174 O 0.48252 0.31412 0.12634 0.0
C175 C 0.52973 0.37112 0.95212 0.0
O176 O 0.42643 0.37923 0.96404 0.0
O177 O 0.36128 0.35167 0.94253 0.0
O178 O 0.3441 0.31787 0.1216 0.0
O179 O 0.41001 0.34385 0.1385 0.0
O180 O 0.55166 0.37264 0.00656 0.0
O181 O 0.49283 0.36041 0.96482 0.0
O182 O 0.47323 0.39493 -0.01288 0.0
O183 O 0.50753 0.41759 0.09464 0.0
C184 C 0.49406 0.42386 0.03293 0.0
O185 O 0.39047 0.29245 0.96989 0.0
O186 O 0.32932 0.24663 0.97802 0.0
C187 C 0.46501 0.32407 0.17562 0.0
C188 C 0.36521 0.25756 -0.00784 0.0
Zn189 Zn 0.14522 0.47625 0.45405 0.0
Zn190 Zn 0.02962 0.31644 0.40714 0.0
Zn191 Zn 0.08882 0.41708 0.4129 0.0
C192 C 0.01046 0.3736 0.31335 0.0
C193 C 0.02963 0.36306 0.54991 0.0
O194 O 0.09699 0.42938 0.53987 0.0
O195 O 0.16211 0.46129 0.54871 0.0
C196 C 0.15556 0.49811 0.31975 0.0
O197 O 0.03783 0.40567 0.34439 0.0
O198 O 0.007 0.33914 0.32649 0.0
O199 O 0.01768 0.33022 0.51373 0.0
O200 O 0.05645 0.39734 0.52235 0.0
O201 O 0.18253 0.50405 0.36663 0.0
O202 O 0.12004 0.46928 0.33147 0.0
O203 O 0.07253 0.45583 0.36512 0.0
O204 O 0.09859 0.49016 0.4699 0.0
C205 C 0.07224 0.47882 0.41866 0.0
O206 O 0.09002 0.37085 0.36199 0.0
O207 O 0.08235 0.31402 0.39765 0.0
C208 C 0.12845 0.44733 0.58117 0.0
C209 C 0.10502 0.3514 0.39127 0.0
Zn210 Zn 0.58754 0.17704 0.72329 0.0
Zn211 Zn 0.67995 0.13367 0.68911 0.0
Zn212 Zn 0.6242 0.14293 0.70735 0.0
C213 C 0.6287 0.09553 0.56514 0.0
C214 C 0.63546 0.0892 0.82301 0.0
O215 O 0.59602 0.13283 0.81918 0.0
O216 O 0.61458 0.19689 0.82378 0.0
C217 C 0.59667 0.17691 0.57402 0.0
O218 O 0.60647 0.10656 0.60186 0.0
O219 O 0.66321 0.10582 0.58886 0.0
O220 O 0.66656 0.0982 0.78359 0.0
O221 O 0.61352 0.10444 0.80527 0.0
O222 O 0.60517 0.20531 0.6208 0.0
O223 O 0.59775 0.14542 0.59739 0.0
O224 O 0.57281 0.10733 0.64108 0.0
O225 O 0.53772 0.1199 0.72599 0.0
C226 C 0.53986 0.09625 0.67763 0.0
O227 O 0.66703 0.20324 0.70779 0.0
O228 O 0.71792 0.19306 0.6929 0.0
C229 C 0.59813 0.16288 0.85641 0.0
C230 C 0.70422 0.21694 0.70213 0.0
Zn231 Zn 0.44565 0.61282 0.0204 0.0
Zn232 Zn 0.58335 0.64909 0.05867 0.0
Zn233 Zn 0.51339 0.6274 0.03715 0.0
C234 C 0.5688 0.61865 0.91073 0.0
C235 C 0.53425 0.58135 0.15344 0.0
O236 O 0.47278 0.59433 0.13079 0.0
O237 O 0.4371 0.62513 0.12775 0.0
C238 C 0.47485 0.63448 0.88452 0.0
O239 O 0.53324 0.61023 0.93084 0.0
O240 O 0.59779 0.63928 0.95399 0.0
O241 O 0.5697 0.60315 0.13044 0.0
O242 O 0.50671 0.58809 0.13042 0.0
O243 O 0.45889 0.64924 0.92817 0.0
O244 O 0.49592 0.62059 0.9153 0.0
O245 O 0.49252 0.58341 0.94922 0.0
O246 O 0.43466 0.55366 0.00763 0.0
C247 C 0.46174 0.55065 0.97144 0.0
O248 O 0.53185 0.68739 0.05684 0.0
O249 O 0.59165 0.70314 0.09649 0.0
C250 C 0.44556 0.60066 0.16013 0.0
C251 C 0.56453 0.71234 0.08726 0.0
C252 C 0.35043 0.19532 0.16818 0.0
C253 C 0.38675 0.19523 0.17022 0.0
H254 H 0.31499 0.21521 0.10954 0.0
C255 C 0.41796 0.22105 0.12108 0.0
H256 H 0.32595 0.17599 0.20577 0.0
C257 C 0.41128 0.2425 0.06436 0.0
C258 C 0.37379 0.23942 0.05773 0.0
H259 H 0.44648 0.22204 0.12175 0.0
H260 H 0.43473 0.25976 0.02319 0.0
C261 C 0.34397 0.21723 0.11225 0.0
C262 C 0.17325 0.37252 0.55725 0.0
C263 C 0.20714 0.40753 0.53187 0.0
H264 H 0.11427 0.3266 0.53129 0.0
C265 C 0.20523 0.42669 0.46496 0.0
H266 H 0.17409 0.35719 0.60858 0.0
C267 C 0.17108 0.40904 0.42061 0.0
C268 C 0.13884 0.37195 0.4423 0.0
H269 H 0.23107 0.45347 0.44361 0.0
H270 H 0.17075 0.42312 0.36722 0.0
C271 C 0.1394 0.35465 0.51242 0.0
C272 C 0.80075 0.29558 0.76044 0.0
C273 C 0.79044 0.29644 0.83715 0.0
H274 H 0.7788 0.26931 0.65148 0.0
C275 C 0.75131 0.28439 0.85871 0.0
H276 H 0.8314 0.30578 0.74354 0.0
C277 C 0.72147 0.26539 0.80525 0.0
C278 C 0.73108 0.25663 0.73238 0.0
H279 H 0.74352 0.28585 0.91793 0.0
H280 H 0.69092 0.25152 0.82528 0.0
C281 C 0.77087 0.27547 0.70765 0.0
C282 C 0.60687 0.78114 0.14037 0.0
C283 C 0.56933 0.75027 0.11836 0.0
H284 H 0.64038 0.84065 0.18513 0.0
C285 C 0.53575 0.75491 0.13044 0.0
H286 H 0.63319 0.77809 0.13257 0.0
C287 C 0.53971 0.79015 0.16209 0.0
C288 C 0.57742 0.82177 0.18123 0.0
H289 H 0.5063 0.73128 0.11555 0.0
H290 H 0.51326 0.79306 0.16897 0.0
C291 C 0.61093 0.81674 0.17117 0.0
C292 C 0.74162 0.51753 0.43336 0.0
C293 C 0.73618 0.55085 0.44616 0.0
H294 H 0.78318 0.49689 0.41002 0.0
C295 C 0.76858 0.58976 0.43679 0.0
H296 H 0.71696 0.48723 0.43899 0.0
C297 C 0.80638 0.5953 0.42045 0.0
C298 C 0.81222 0.56203 0.41169 0.0
H299 H 0.76511 0.616 0.44563 0.0
H300 H 0.83137 0.62556 0.41838 0.0
C301 C 0.77935 0.52308 0.41542 0.0
C302 C 0.24703 0.74802 0.79452 0.0
C303 C 0.2343 0.77247 0.7579 0.0
H304 H 0.23122 0.69808 0.87021 0.0
C305 C 0.19442 0.76311 0.76596 0.0
H306 H 0.27769 0.75463 0.7898 0.0
C307 C 0.16859 0.73201 0.81365 0.0
C308 C 0.18161 0.7088 0.85347 0.0
H309 H 0.18349 0.7811 0.73839 0.0
H310 H 0.13824 0.72631 0.81938 0.0
C311 C 0.22072 0.71615 0.84159 0.0
C312 C 0.53533 0.11793 0.92883 0.0
C313 C 0.5685 0.15619 0.91696 0.0
H314 H 0.47799 0.0837 -0.01814 0.0
C315 C 0.56887 0.1896 0.95163 0.0
H316 H 0.53349 0.09171 0.90114 0.0
C317 C 0.5364 0.1852 -0.00531 0.0
C318 C 0.50296 0.14708 0.00605 0.0
H319 H 0.59374 0.21957 0.94312 0.0
H320 H 0.53799 0.21186 0.02016 0.0
C321 C 0.50299 0.11342 0.9734 0.0
C322 C 0.38736 0.57832 0.24907 0.0
C323 C 0.41797 0.57264 0.218 0.0
H324 H 0.33665 0.55578 0.32335 0.0
C325 C 0.41891 0.53722 0.2354 0.0
H326 H 0.38518 0.60481 0.23527 0.0
C327 C 0.39085 0.50887 0.28512 0.0
C328 C 0.36123 0.51523 0.31878 0.0
H329 H 0.4411 0.53107 0.21024 0.0
H330 H 0.39311 0.48259 0.29882 0.0
C331 C 0.35915 0.54983 0.29861 0.0
C332 C 0.81567 0.46417 0.78984 0.0
C333 C 0.80943 0.42539 0.8075 0.0
H334 H 0.82301 0.50513 0.69974 0.0
C335 C 0.7896 0.3945 0.75449 0.0
H336 H 0.82923 0.48851 0.8306 0.0
C337 C 0.78439 0.40394 0.68008 0.0
C338 C 0.80001 0.44444 0.65807 0.0
H339 H 0.78295 0.36412 0.76717 0.0
H340 H 0.77365 0.38018 0.63787 0.0
C341 C 0.81202 0.47391 0.71476 0.0
C342 C 0.40844 0.8344 0.94285 0.0
C343 C 0.40556 0.86761 0.91685 0.0
H344 H 0.44233 0.81327 0.00237 0.0
C345 C 0.43649 0.90649 0.93328 0.0
H346 H 0.38554 0.804 0.93037 0.0
C347 C 0.4694 0.91192 0.97521 0.0
C348 C 0.47226 0.87855 0.00059 0.0
H349 H 0.43586 0.93272 0.91212 0.0
H350 H 0.49221 0.94214 -0.01136 0.0
C351 C 0.44153 0.83978 -0.0169 0.0
C352 C 0.48776 0.37997 0.27095 0.0
C353 C 0.48899 0.34615 0.24233 0.0
H354 H 0.51473 0.43183 0.34208 0.0
C355 C 0.51905 0.33835 0.26732 0.0
H356 H 0.46559 0.38732 0.25204 0.0
C357 C 0.54827 0.36478 0.31687 0.0
C358 C 0.54788 0.39943 0.34307 0.0
H359 H 0.52093 0.31263 0.24596 0.0
H360 H 0.57127 0.3581 0.33435 0.0
C361 C 0.51681 0.40626 0.32085 0.0
C362 C 0.09531 0.49817 0.72762 0.0
C363 C 0.13163 0.5242 0.76221 0.0
H364 H 0.06584 0.45319 0.64299 0.0
C365 C 0.16481 0.51925 0.74617 0.0
H366 H 0.0689 0.50038 0.74042 0.0
C367 C 0.16236 0.49057 0.69347 0.0
C368 C 0.12691 0.46669 0.65398 0.0
H369 H 0.19298 0.53786 0.77377 0.0
H370 H 0.18906 0.48893 0.68014 0.0
C371 C 0.09316 0.4701 0.67342 0.0
C372 C 0.31977 0.96941 0.94368 0.0
C373 C 0.34878 0.96211 0.90938 0.0
H374 H 0.30606 0.00085 0.02929 0.0
C375 C 0.38757 0.98163 0.93841 0.0
H376 H 0.28954 0.95483 0.92296 0.0
C377 C 0.39707 0.00816 0.00028 0.0
C378 C 0.36803 0.01583 0.03346 0.0
H379 H 0.41066 0.97709 0.91243 0.0
H380 H 0.4269 0.02228 0.02257 0.0
C381 C 0.32923 -0.00419 0.00488 0.0
C382 C 0.33724 0.32362 0.2856 0.0
C383 C 0.36989 0.34887 0.23916 0.0
H384 H 0.3032 0.31837 0.38679 0.0
C385 C 0.39442 0.38884 0.26129 0.0
H386 H 0.3176 0.29276 0.26908 0.0
C387 C 0.38581 0.40372 0.32763 0.0
C388 C 0.35268 0.37888 0.37335 0.0
H389 H 0.41918 0.40911 0.22552 0.0
H390 H 0.40488 0.43471 0.3424 0.0
C391 C 0.32901 0.33835 0.35267 0.0
C392 C -0.00481 0.38804 0.63682 0.0
C393 C 0.00979 0.36146 0.62335 0.0
H394 H 0.96091 0.40484 0.70908 0.0
C395 C 0.00075 0.33036 0.6759 0.0
H396 H 0.00024 0.41095 0.5954 0.0
C397 C 0.97761 0.32621 0.74119 0.0
C398 C 0.96295 0.35297 0.75465 0.0
H399 H 0.01106 0.30893 0.66581 0.0
H400 H 0.97077 0.30175 0.78044 0.0
C401 C 0.97235 0.38417 0.70191 0.0
C402 C 0.5786 0.01711 -0.01361 0.0
C403 C 0.60588 0.00475 0.00863 0.0
H404 H 0.56659 0.05381 0.91063 0.0
C405 C 0.64253 0.0204 0.96953 0.0
H406 H 0.55043 0.00616 0.01637 0.0
C407 C 0.65188 0.04782 0.90995 0.0
C408 C 0.62496 0.06063 0.88783 0.0
H409 H 0.66427 0.0116 -0.01483 0.0
H410 H 0.68049 0.05911 0.88144 0.0
C411 C 0.58809 0.04484 0.92653 0.0
C412 C 0.52327 0.54165 0.34965 0.0
C413 C 0.5448 0.52094 0.34141 0.0
H414 H 0.50225 0.57722 0.29357 0.0
C415 C 0.55177 0.51039 0.26835 0.0
H416 H 0.51796 0.55028 0.40585 0.0
C417 C 0.54314 0.52616 0.2042 0.0
C418 C 0.52695 0.55186 0.21316 0.0
H419 H 0.56873 0.49482 0.26097 0.0
H420 H 0.5531 0.52194 0.14842 0.0
C421 C 0.51428 0.55705 0.28554 0.0
C422 C 0.02969 0.55076 0.69951 0.0
C423 C 0.01365 0.55141 0.77199 0.0
H424 H 0.02287 0.55163 0.57738 0.0
C425 C 0.9754 0.54728 0.77623 0.0
H426 H 0.05962 0.5553 0.69421 0.0
C427 C 0.95471 0.54525 0.71028 0.0
C428 C 0.97178 0.5477 0.63794 0.0
H429 H 0.96242 0.54827 0.83099 0.0
H430 H 0.92612 0.54408 0.71592 0.0
C431 C 0.00884 0.549 0.63268 0.0
C432 C 0.49752 0.03844 0.30377 0.0
C433 C 0.4953 0.05577 0.23517 0.0
H434 H 0.49641 0.98779 0.35652 0.0
C435 C 0.48842 0.03465 0.16633 0.0
H436 H 0.50214 0.05418 0.35744 0.0
C437 C 0.48326 -0.004 0.16627 0.0
C438 C 0.48595 0.97877 0.23487 0.0
H439 H 0.48571 0.04751 0.11316 0.0
H440 H 0.47853 0.98019 0.11246 0.0
C441 C 0.49353 0.0003 0.30339 0.0
C442 C 0.47648 0.5119 0.61373 0.0
C443 C 0.45471 0.50249 0.54608 0.0
H444 H 0.51725 0.50264 0.68111 0.0
C445 C 0.45731 0.47616 0.49357 0.0
H446 H 0.47478 0.53206 0.65518 0.0
C447 C 0.48069 0.45859 0.50895 0.0
C448 C 0.50242 0.46783 0.5768 0.0
H449 H 0.44018 0.46825 0.44195 0.0
H450 H 0.48274 0.43883 0.46666 0.0
C451 C 0.50039 0.49483 0.62883 0.0
C452 C 0.03391 0.44541 0.89048 0.0
C453 C 0.00375 0.45185 0.92046 0.0
H454 H 0.09408 0.45892 0.90448 0.0
C455 C 0.00461 0.46284 -0.00297 0.0
H456 H 0.03284 0.43556 0.83197 0.0
C457 C 0.03781 0.47271 0.04057 0.0
C458 C 0.07197 0.47654 0.00429 0.0
H459 H 0.9812 0.4676 0.02086 0.0
H460 H 0.03962 0.48575 0.09655 0.0
C461 C 0.06838 0.45769 0.93296 0.0
C462 C 0.01007 0.47169 0.37057 0.0
C463 C 0.03559 0.47986 0.43205 0.0
H464 H 0.95045 0.45084 0.33516 0.0
C465 C 0.02147 0.47801 0.50699 0.0
H466 H 0.02129 0.4756 0.31269 0.0
C467 C 0.98145 0.46575 0.51989 0.0
C468 C 0.95559 0.45473 0.45808 0.0
H469 H 0.04085 0.48462 0.55543 0.0
H470 H 0.97089 0.46591 0.57754 0.0
C471 C 0.96992 0.45734 0.38351 0.0
C472 C 0.46424 -0.00575 0.61299 0.0
C473 C 0.46267 0.9711 0.67642 0.0
H474 H 0.48976 0.0531 0.56421 0.0
C475 C 0.48622 0.98969 0.74017 0.0
H476 H 0.44613 0.98053 0.56358 0.0
C477 C 0.5101 0.03114 0.74129 0.0
C478 C 0.51097 0.0541 0.67843 0.0
H479 H 0.48495 0.97249 0.79027 0.0
H480 H 0.52828 0.04525 0.79075 0.0
C481 C 0.48865 0.03565 0.61366 0.0
C482 C 0.45326 0.49369 0.0511 0.0
C483 C 0.46668 0.51545 -0.0175 0.0
H484 H 0.45455 0.44942 0.12356 0.0
C485 C 0.49187 0.50877 0.93334 0.0
H486 H 0.43416 0.49861 0.09037 0.0
C487 C 0.50358 0.4808 0.95276 0.0
C488 C 0.49091 0.4599 0.02224 0.0
H489 H 0.50264 0.52536 0.88029 0.0
H490 H 0.52192 0.47499 0.91302 0.0
C491 C 0.46577 0.46649 0.07127 0.0
C492 C 0.35702 0.00271 0.53994 0.0
C493 C 0.36372 0.96997 0.52922 0.0
H494 H 0.362 0.05665 0.49315 0.0
C495 C 0.38588 0.96964 0.46515 0.0
H496 H 0.34056 0.00413 0.58946 0.0
C497 C 0.39917 0.00062 0.41061 0.0
C498 C 0.38997 0.03183 0.41951 0.0
H499 H 0.39088 0.94452 0.45499 0.0
H500 H 0.41368 -0.00156 0.3588 0.0
C501 C 0.3698 0.03314 0.48557 0.0
C502 C 0.4247 0.42004 0.81726 0.0
C503 C 0.40296 0.41359 0.88546 0.0
H504 H 0.4274 0.43444 0.69866 0.0
C505 C 0.37737 0.42973 0.89441 0.0
H506 H 0.4444 0.40757 0.8094 0.0
C507 C 0.36824 0.44577 0.83152 0.0
C508 C 0.38458 0.44542 0.75986 0.0
H509 H 0.36063 0.42521 0.94717 0.0
H510 H 0.34436 0.45293 0.83664 0.0
C511 C 0.41522 0.43573 0.75407 0.0
C512 C 0.91679 0.33904 0.19915 0.0
C513 C 0.92682 0.37203 0.15084 0.0
H514 H 0.93502 0.3141 0.28878 0.0
C515 C 0.96175 0.40807 0.16551 0.0
H516 H 0.88979 0.31082 0.19009 0.0
C517 C -0.01063 0.4091 0.21821 0.0
C518 C 0.98065 0.3751 0.26247 0.0
H519 H 0.96926 0.43434 0.13193 0.0
H520 H 0.01842 0.43549 0.22044 0.0
C521 C 0.94317 0.3407 0.25474 0.0
C522 C 0.57678 0.03463 0.49736 0.0
C523 C 0.61468 0.06889 0.49821 0.0
H524 H 0.53942 0.97743 0.44518 0.0
C525 C 0.64251 0.07363 0.4412 0.0
H526 H 0.55514 0.02995 0.54186 0.0
C527 C 0.63365 0.04389 0.3868 0.0
C528 C 0.59669 0.00844 0.38794 0.0
H529 H 0.67195 0.09976 0.44059 0.0
H530 H 0.65626 0.04847 0.34446 0.0
C531 C 0.56789 0.00447 0.44252 0.0
C532 C 0.56318 0.60393 0.77099 0.0
C533 C 0.57568 0.59974 0.84336 0.0
H534 H 0.56554 0.59424 0.65066 0.0
C535 C 0.59635 0.57815 0.85156 0.0
H536 H 0.54697 0.62018 0.76377 0.0
C537 C 0.60577 0.5622 0.78763 0.0
C538 C 0.5956 0.56877 0.7148 0.0
H539 H 0.60563 0.57409 0.90747 0.0
H540 H 0.62257 0.54654 0.79467 0.0
C541 C 0.57375 0.58914 0.70683 0.0
C542 C 0.05415 0.60475 0.2366 0.0
C543 C 0.04315 0.57472 0.18061 0.0
H544 H 0.03869 0.62362 0.34122 0.0
C545 C 0.0084 0.53771 0.19355 0.0
H546 H 0.0801 0.63393 0.22748 0.0
C547 C 0.98418 0.53193 0.25885 0.0
C548 C -0.00569 0.5629 0.31276 0.0
H549 H -0.00195 0.51462 0.15007 0.0
H550 H 0.9559 0.5046 0.26364 0.0
C551 C 0.03021 0.59892 0.30163 0.0
C552 C 0.51246 0.1309 0.43554 0.0
C553 C 0.51157 0.1647 0.40668 0.0
H554 H 0.54274 0.10854 0.50364 0.0
C555 C 0.5407 0.20311 0.43032 0.0
H556 H 0.49039 0.10088 0.41923 0.0
C557 C 0.56997 0.20745 0.48181 0.0
C558 C 0.57133 0.17353 0.5089 0.0
H559 H 0.54111 0.22982 0.40845 0.0
H560 H 0.59128 0.23729 0.50105 0.0
C561 C 0.54271 0.13531 0.48387 0.0
C562 C 0.42356 0.55544 0.7363 0.0
C563 C 0.39738 0.56673 0.70411 0.0
H564 H 0.47172 0.57 0.81027 0.0
C565 C 0.40062 0.60383 0.72496 0.0
H566 H 0.42217 0.52734 0.72176 0.0
C567 C 0.42831 0.62801 0.77974 0.0
C568 C 0.45411 0.61613 0.81254 0.0
H569 H 0.38131 0.61374 0.70011 0.0
H570 H 0.42859 0.65526 0.79837 0.0
C571 C 0.45243 0.58036 0.78737 0.0
C572 C 0.90005 0.50262 0.1251 0.0
C573 C 0.88148 0.46487 0.09005 0.0
H574 H 0.9014 0.53645 0.22395 0.0
C575 C 0.84514 0.43445 0.11848 0.0
H576 H 0.92749 0.52678 0.10173 0.0
C577 C 0.82911 0.44046 0.18548 0.0
C578 C 0.85002 0.47651 0.22631 0.0
H579 H 0.82956 0.40574 0.08962 0.0
H580 H 0.80225 0.41553 0.20895 0.0
C581 C 0.88451 0.50841 0.19357 0.0
C582 C 0.45848 0.89799 0.43263 0.0
C583 C 0.46111 0.86497 0.40426 0.0
H584 H 0.42882 0.91916 0.50726 0.0
C585 C 0.43332 0.82632 0.43045 0.0
H586 H 0.47842 0.92785 0.41227 0.0
C587 C 0.40384 0.82108 0.48405 0.0
C588 C 0.40126 0.85434 0.5121 0.0
H589 H 0.43401 0.80004 0.40874 0.0
H590 H 0.38341 0.79104 0.50432 0.0
C591 C 0.42898 0.89278 0.48555 0.0
C592 C 0.60685 0.41681 0.79401 0.0
C593 C 0.59223 0.43812 0.75252 0.0
H594 H 0.59822 0.37844 0.88977 0.0
C595 C 0.55642 0.4363 0.77635 0.0
H596 H 0.634 0.41711 0.77603 0.0
C597 C 0.53479 0.41223 0.83809 0.0
C598 C 0.54938 0.39102 0.87979 0.0
H599 H 0.5439 0.45182 0.74527 0.0
H600 H 0.50698 0.41092 0.85386 0.0
C601 C 0.58597 0.39403 0.8579 0.0
C602 C 0.19571 0.54807 0.21751 0.0
C603 C 0.16215 0.53023 0.26583 0.0
H604 H 0.22363 0.58755 0.12226 0.0
C605 C 0.13515 0.5449 0.26604 0.0
H606 H 0.21752 0.53797 0.2181 0.0
C607 C 0.13977 0.5746 0.21482 0.0
C608 C 0.17049 0.58916 0.16004 0.0
H609 H 0.10995 0.53303 0.30494 0.0
H610 H 0.11737 0.5838 0.2139 0.0
C611 C 0.19966 0.57713 0.16411 0.0
loop_
_geom_bond_atom_site_label_1
_geom_bond_atom_site_label_2
_geom_bond_distance
_geom_bond_site_symmetry_2
_ccdc_geom_bond_type
Zn0 O6 1.920 . S
Zn0 O12 1.898 . S
Zn0 O15 1.905 . S
Zn1 O9 1.905 . S
Zn1 O10 1.898 . S
Zn1 O18 1.920 . S
Zn2 O5 2.080 . S
Zn2 O8 2.114 . S
Zn2 O11 2.120 . S
Zn2 O13 2.120 . S
Zn2 O14 2.114 . S
Zn2 O17 2.080 . S
C3 O8 1.166 . S
C3 O9 1.182 . S
C4 O10 1.167 . S
C4 O11 1.299 . S
O5 Zn2 2.080 . S
O5 C19 1.305 . S
O6 Zn0 1.920 . S
O6 C19 1.234 . S
C7 O12 1.167 . S
C7 O13 1.299 . S
O8 Zn2 2.114 . S
O8 C3 1.166 . S
O9 Zn1 1.905 . S
O9 C3 1.182 . S
O10 Zn1 1.898 . S
O10 C4 1.167 . S
O11 Zn2 2.120 . S
O11 C4 1.299 . S
O12 Zn0 1.898 . S
O12 C7 1.167 . S
O13 Zn2 2.120 . S
O13 C7 1.299 . S
O14 Zn2 2.114 . S
O14 C16 1.166 . S
O15 Zn0 1.905 . S
O15 C16 1.182 . S
C16 O14 1.166 . S
C16 O15 1.182 . S
O17 Zn2 2.080 . S
O17 C20 1.305 . S
O18 Zn1 1.920 . S
O18 C20 1.234 . S
C19 O5 1.305 . S
C19 O6 1.234 . S
C20 O17 1.305 . S
C20 O18 1.234 . S
Zn21 O27 1.920 . S
Zn21 O33 1.898 . S
Zn21 O36 1.905 . S
Zn22 O30 1.905 . S
Zn22 O31 1.898 . S
Zn22 O39 1.920 . S
Zn23 O26 2.080 . S
Zn23 O29 2.114 . S
Zn23 O32 2.120 . S
Zn23 O34 2.120 . S
Zn23 O35 2.114 . S
Zn23 O38 2.080 . S
C24 O29 1.166 . S
C24 O30 1.182 . S
C25 O31 1.167 . S
C25 O32 1.299 . S
O26 Zn23 2.080 . S
O26 C40 1.305 . S
O27 Zn21 1.920 . S
O27 C40 1.234 . S
C28 O33 1.167 . S
C28 O34 1.299 . S
O29 Zn23 2.114 . S
O29 C24 1.166 . S
O30 Zn22 1.905 . S
O30 C24 1.182 . S
O31 Zn22 1.898 . S
O31 C25 1.167 . S
O32 Zn23 2.120 . S
O32 C25 1.299 . S
O33 Zn21 1.898 . S
O33 C28 1.167 . S
O34 Zn23 2.120 . S
O34 C28 1.299 . S
O35 Zn23 2.114 . S
O35 C37 1.166 . S
O36 Zn21 1.905 . S
O36 C37 1.182 . S
C37 O35 1.166 . S
C37 O36 1.182 . S
O38 Zn23 2.080 . S
O38 C41 1.305 . S
O39 Zn22 1.920 . S
O39 C41 1.234 . S
C40 O26 1.305 . S
C40 O27 1.234 . S
C41 O38 1.305 . S
C41 O39 1.234 . S
Zn42 O48 1.920 . S
Zn42 O54 1.898 . S
Zn42 O57 1.905 1_556 S
Zn43 O51 1.905 . S
Zn43 O52 1.898 1_556 S
Zn43 O60 1.920 . S
Zn44 O47 2.080 . S
Zn44 O50 2.114 . S
Zn44 O53 2.120 . S
Zn44 O55 2.120 . S
Zn44 O56 2.114 . S
Zn44 O59 2.080 . S
C45 O50 1.166 . S
C45 O51 1.182 . S
C46 O52 1.167 . S
C46 O53 1.299 1_554 S
O47 Zn44 2.080 . S
O47 C61 1.305 . S
O48 Zn42 1.920 . S
O48 C61 1.234 . S
C49 O54 1.167 . S
C49 O55 1.299 . S
O50 Zn44 2.114 . S
O50 C45 1.166 . S
O51 Zn43 1.905 . S
O51 C45 1.182 . S
O52 Zn43 1.898 1_554 S
O52 C46 1.167 . S
O53 Zn44 2.120 . S
O53 C46 1.299 1_556 S
O54 Zn42 1.898 . S
O54 C49 1.167 . S
O55 Zn44 2.120 . S
O55 C49 1.299 . S
O56 Zn44 2.114 . S
O56 C58 1.166 1_556 S
O57 Zn42 1.905 1_554 S
O57 C58 1.182 . S
C58 O56 1.166 1_554 S
C58 O57 1.182 . S
O59 Zn44 2.080 . S
O59 C62 1.305 . S
O60 Zn43 1.920 . S
O60 C62 1.234 . S
C61 O47 1.305 . S
C61 O48 1.234 . S
C62 O59 1.305 . S
C62 O60 1.234 . S
Zn63 O69 1.920 . S
Zn63 O75 1.898 . S
Zn63 O78 1.905 . S
Zn64 O72 1.905 . S
Zn64 O73 1.898 . S
Zn64 O81 1.920 . S
Zn65 O68 2.080 . S
Zn65 O71 2.114 . S
Zn65 O74 2.120 . S
Zn65 O76 2.120 . S
Zn65 O77 2.114 . S
Zn65 O80 2.080 . S
C66 O71 1.166 . S
C66 O72 1.182 . S
C67 O73 1.167 . S
C67 O74 1.299 . S
O68 Zn65 2.080 . S
O68 C82 1.305 . S
O69 Zn63 1.920 . S
O69 C82 1.234 . S
C70 O75 1.167 . S
C70 O76 1.299 . S
O71 Zn65 2.114 . S
O71 C66 1.166 . S
O72 Zn64 1.905 . S
O72 C66 1.182 . S
O73 Zn64 1.898 . S
O73 C67 1.167 . S
O74 Zn65 2.120 . S
O74 C67 1.299 . S
O75 Zn63 1.898 . S
O75 C70 1.167 . S
O76 Zn65 2.120 . S
O76 C70 1.299 . S
O77 Zn65 2.114 . S
O77 C79 1.166 . S
O78 Zn63 1.905 . S
O78 C79 1.182 . S
C79 O77 1.166 . S
C79 O78 1.182 . S
O80 Zn65 2.080 . S
O80 C83 1.305 . S
O81 Zn64 1.920 . S
O81 C83 1.234 . S
C82 O68 1.305 . S
C82 O69 1.234 . S
C83 O80 1.305 . S
C83 O81 1.234 . S
Zn84 O90 1.920 . S
Zn84 O96 1.898 . S
Zn84 O99 1.905 . S
Zn85 O93 1.905 . S
Zn85 O94 1.898 . S
Zn85 O102 1.920 . S
Zn86 O89 2.080 . S
Zn86 O92 2.114 . S
Zn86 O95 2.120 . S
Zn86 O97 2.120 . S
Zn86 O98 2.114 . S
Zn86 O101 2.080 . S
C87 O92 1.166 . S
C87 O93 1.182 . S
C88 O94 1.167 . S
C88 O95 1.299 . S
O89 Zn86 2.080 . S
O89 C103 1.305 . S
O90 Zn84 1.920 . S
O90 C103 1.234 . S
C91 O96 1.167 . S
C91 O97 1.299 . S
O92 Zn86 2.114 . S
O92 C87 1.166 . S
O93 Zn85 1.905 . S
O93 C87 1.182 . S
O94 Zn85 1.898 . S
O94 C88 1.167 . S
O95 Zn86 2.120 . S
O95 C88 1.299 . S
O96 Zn84 1.898 . S
O96 C91 1.167 . S
O97 Zn86 2.120 . S
O97 C91 1.299 . S
O98 Zn86 2.114 . S
O98 C100 1.166 . S
O99 Zn84 1.905 . S
O99 C100 1.182 . S
C100 O98 1.166 . S
C100 O99 1.182 . S
O101 Zn86 2.080 . S
O101 C104 1.305 . S
O102 Zn85 1.920 . S
O102 C104 1.234 . S
C103 O89 1.305 . S
C103 O90 1.234 . S
C104 O101 1.305 . S
C104 O102 1.234 . S
Zn105 O111 1.920 1_556 S
Zn105 O117 1.898 . S
Zn105 O120 1.905 . S
Zn106 O114 1.905 . S
Zn106 O115 1.898 . S
Zn106 O123 1.920 1_556 S
Zn107 O110 2.080 . S
Zn107 O113 2.114 . S
Zn107 O116 2.120 . S
Zn107 O118 2.120 . S
Zn107 O119 2.114 . S
Zn107 O122 2.080 . S
C108 O113 1.166 . S
C108 O114 1.182 . S
C109 O115 1.167 . S
C109 O116 1.299 . S
O110 Zn107 2.080 . S
O110 C124 1.305 1_556 S
O111 Zn105 1.920 1_554 S
O111 C124 1.234 . S
C112 O117 1.167 . S
C112 O118 1.299 . S
O113 Zn107 2.114 . S
O113 C108 1.166 . S
O114 Zn106 1.905 . S
O114 C108 1.182 . S
O115 Zn106 1.898 . S
O115 C109 1.167 . S
O116 Zn107 2.120 . S
O116 C109 1.299 . S
O117 Zn105 1.898 . S
O117 C112 1.167 . S
O118 Zn107 2.120 . S
O118 C112 1.299 . S
O119 Zn107 2.114 . S
O119 C121 1.166 . S
O120 Zn105 1.905 . S
O120 C121 1.182 . S
C121 O119 1.166 . S
C121 O120 1.182 . S
O122 Zn107 2.080 . S
O122 C125 1.305 1_556 S
O123 Zn106 1.920 1_554 S
O123 C125 1.234 . S
C124 O110 1.305 1_554 S
C124 O111 1.234 . S
C125 O122 1.305 1_554 S
C125 O123 1.234 . S
Zn126 O132 1.920 . S
Zn126 O138 1.898 . S
Zn126 O141 1.905 . S
Zn127 O135 1.905 . S
Zn127 O136 1.898 . S
Zn127 O144 1.920 . S
Zn128 O131 2.080 . S
Zn128 O134 2.114 . S
Zn128 O137 2.120 . S
Zn128 O139 2.120 . S
Zn128 O140 2.114 . S
Zn128 O143 2.080 . S
C129 O134 1.166 . S
C129 O135 1.182 . S
C130 O136 1.167 . S
C130 O137 1.299 . S
O131 Zn128 2.080 . S
O131 C145 1.305 . S
O132 Zn126 1.920 . S
O132 C145 1.234 . S
C133 O138 1.167 . S
C133 O139 1.299 . S
O134 Zn128 2.114 . S
O134 C129 1.166 . S
O135 Zn127 1.905 . S
O135 C129 1.182 . S
O136 Zn127 1.898 . S
O136 C130 1.167 . S
O137 Zn128 2.120 . S
O137 C130 1.299 . S
O138 Zn126 1.898 . S
O138 C133 1.167 . S
O139 Zn128 2.120 . S
O139 C133 1.299 . S
O140 Zn128 2.114 . S
O140 C142 1.166 . S
O141 Zn126 1.905 . S
O141 C142 1.182 . S
C142 O140 1.166 . S
C142 O141 1.182 . S
O143 Zn128 2.080 . S
O143 C146 1.305 . S
O144 Zn127 1.920 . S
O144 C146 1.234 . S
C145 O131 1.305 . S
C145 O132 1.234 . S
C146 O143 1.305 . S
C146 O144 1.234 . S
Zn147 O153 1.920 . S
Zn147 O159 1.898 . S
Zn147 O162 1.905 . S
Zn148 O156 1.905 . S
Zn148 O157 1.898 . S
Zn148 O165 1.920 . S
Zn149 O152 2.080 . S
Zn149 O155 2.114 . S
Zn149 O158 2.120 . S
Zn149 O160 2.120 . S
Zn149 O161 2.114 . S
Zn149 O164 2.080 . S
C150 O155 1.166 . S
C150 O156 1.182 . S
C151 O157 1.167 . S
C151 O158 1.299 . S
O152 Zn149 2.080 . S
O152 C166 1.305 . S
O153 Zn147 1.920 . S
O153 C166 1.234 . S
C154 O159 1.167 . S
C154 O160 1.299 . S
O155 Zn149 2.114 . S
O155 C150 1.166 . S
O156 Zn148 1.905 . S
O156 C150 1.182 . S
O157 Zn148 1.898 . S
O157 C151 1.167 . S
O158 Zn149 2.120 . S
O158 C151 1.299 . S
O159 Zn147 1.898 . S
O159 C154 1.167 . S
O160 Zn149 2.120 . S
O160 C154 1.299 . S
O161 Zn149 2.114 . S
O161 C163 1.166 . S
O162 Zn147 1.905 . S
O162 C163 1.182 . S
C163 O161 1.166 . S
C163 O162 1.182 . S
O164 Zn149 2.080 . S
O164 C167 1.305 . S
O165 Zn148 1.920 . S
O165 C167 1.234 . S
C166 O152 1.305 . S
C166 O153 1.234 . S
C167 O164 1.305 . S
C167 O165 1.234 . S
Zn168 O174 1.920 . S
Zn168 O180 1.898 1_554 S
Zn168 O183 1.905 . S
Zn169 O177 1.905 1_554 S
Zn169 O178 1.898 . S
Zn169 O186 1.920 . S
Zn170 O173 2.080 . S
Zn170 O176 2.114 . S
Zn170 O179 2.120 . S
Zn170 O181 2.120 . S
Zn170 O182 2.114 . S
Zn170 O185 2.080 . S
C171 O176 1.166 1_556 S
C171 O177 1.182 . S
C172 O178 1.167 . S
C172 O179 1.299 . S
O173 Zn170 2.080 . S
O173 C187 1.305 . S
O174 Zn168 1.920 . S
O174 C187 1.234 . S
C175 O180 1.167 . S
C175 O181 1.299 1_556 S
O176 Zn170 2.114 . S
O176 C171 1.166 1_554 S
O177 Zn169 1.905 1_556 S
O177 C171 1.182 . S
O178 Zn169 1.898 . S
O178 C172 1.167 . S
O179 Zn170 2.120 . S
O179 C172 1.299 . S
O180 Zn168 1.898 1_556 S
O180 C175 1.167 . S
O181 Zn170 2.120 . S
O181 C175 1.299 1_554 S
O182 Zn170 2.114 . S
O182 C184 1.166 . S
O183 Zn168 1.905 . S
O183 C184 1.182 . S
C184 O182 1.166 . S
C184 O183 1.182 . S
O185 Zn170 2.080 . S
O185 C188 1.305 . S
O186 Zn169 1.920 . S
O186 C188 1.234 . S
C187 O173 1.305 . S
C187 O174 1.234 . S
C188 O185 1.305 . S
C188 O186 1.234 . S
Zn189 O195 1.920 . S
Zn189 O201 1.898 . S
Zn189 O204 1.905 . S
Zn190 O198 1.905 . S
Zn190 O199 1.898 . S
Zn190 O207 1.920 . S
Zn191 O194 2.080 . S
Zn191 O197 2.114 . S
Zn191 O200 2.120 . S
Zn191 O202 2.120 . S
Zn191 O203 2.114 . S
Zn191 O206 2.080 . S
C192 O197 1.166 . S
C192 O198 1.182 . S
C193 O199 1.167 . S
C193 O200 1.299 . S
O194 Zn191 2.080 . S
O194 C208 1.305 . S
O195 Zn189 1.920 . S
O195 C208 1.234 . S
C196 O201 1.167 . S
C196 O202 1.299 . S
O197 Zn191 2.114 . S
O197 C192 1.166 . S
O198 Zn190 1.905 . S
O198 C192 1.182 . S
O199 Zn190 1.898 . S
O199 C193 1.167 . S
O200 Zn191 2.120 . S
O200 C193 1.299 . S
O201 Zn189 1.898 . S
O201 C196 1.167 . S
O202 Zn191 2.120 . S
O202 C196 1.299 . S
O203 Zn191 2.114 . S
O203 C205 1.166 . S
O204 Zn189 1.905 . S
O204 C205 1.182 . S
C205 O203 1.166 . S
C205 O204 1.182 . S
O206 Zn191 2.080 . S
O206 C209 1.305 . S
O207 Zn190 1.920 . S
O207 C209 1.234 . S
C208 O194 1.305 . S
C208 O195 1.234 . S
C209 O206 1.305 . S
C209 O207 1.234 . S
Zn210 O216 1.920 . S
Zn210 O222 1.898 . S
Zn210 O225 1.905 . S
Zn211 O219 1.905 . S
Zn211 O220 1.898 . S
Zn211 O228 1.920 . S
Zn212 O215 2.080 . S
Zn212 O218 2.114 . S
Zn212 O221 2.120 . S
Zn212 O223 2.120 . S
Zn212 O224 2.114 . S
Zn212 O227 2.080 . S
C213 O218 1.166 . S
C213 O219 1.182 . S
C214 O220 1.167 . S
C214 O221 1.299 . S
O215 Zn212 2.080 . S
O215 C229 1.305 . S
O216 Zn210 1.920 . S
O216 C229 1.234 . S
C217 O222 1.167 . S
C217 O223 1.299 . S
O218 Zn212 2.114 . S
O218 C213 1.166 . S
O219 Zn211 1.905 . S
O219 C213 1.182 . S
O220 Zn211 1.898 . S
O220 C214 1.167 . S
O221 Zn212 2.120 . S
O221 C214 1.299 . S
O222 Zn210 1.898 . S
O222 C217 1.167 . S
O223 Zn212 2.120 . S
O223 C217 1.299 . S
O224 Zn212 2.114 . S
O224 C226 1.166 . S
O225 Zn210 1.905 . S
O225 C226 1.182 . S
C226 O224 1.166 . S
C226 O225 1.182 . S
O227 Zn212 2.080 . S
O227 C230 1.305 . S
O228 Zn211 1.920 . S
O228 C230 1.234 . S
C229 O215 1.305 . S
C229 O216 1.234 . S
C230 O227 1.305 . S
C230 O228 1.234 . S
Zn231 O237 1.920 . S
Zn231 O243 1.898 1_554 S
Zn231 O246 1.905 . S
Zn232 O240 1.905 1_554 S
Zn232 O241 1.898 . S
Zn232 O249 1.920 . S
Zn233 O236 2.080 . S
Zn233 O239 2.114 . S
Zn233 O242 2.120 . S
Zn233 O244 2.120 . S
Zn233 O245 2.114 . S
Zn233 O248 2.080 . S
C234 O239 1.166 1_556 S
C234 O240 1.182 . S
C235 O241 1.167 . S
C235 O242 1.299 . S
O236 Zn233 2.080 . S
O236 C250 1.305 . S
O237 Zn231 1.920 . S
O237 C250 1.234 . S
C238 O243 1.167 . S
C238 O244 1.299 1_556 S
O239 Zn233 2.114 . S
O239 C234 1.166 1_554 S
O240 Zn232 1.905 1_556 S
O240 C234 1.182 . S
O241 Zn232 1.898 . S
O241 C235 1.167 . S
O242 Zn233 2.120 . S
O242 C235 1.299 . S
O243 Zn231 1.898 1_556 S
O243 C238 1.167 . S
O244 Zn233 2.120 . S
O244 C238 1.299 1_554 S
O245 Zn233 2.114 . S
O245 C247 1.166 . S
O246 Zn231 1.905 . S
O246 C247 1.182 . S
C247 O245 1.166 . S
C247 O246 1.182 . S
O248 Zn233 2.080 . S
O248 C251 1.305 . S
O249 Zn232 1.920 . S
O249 C251 1.234 . S
C250 O236 1.305 . S
C250 O237 1.234 . S
C251 O248 1.305 . S
C251 O249 1.234 . S
C252 C253 1.387 . S
C252 H256 0.950 . S
C252 C261 1.390 . S
C253 C252 1.387 . S
C253 C255 1.387 . S
H254 C261 0.950 . S
C255 C253 1.387 . S
C255 C257 1.390 . S
C255 H259 0.950 . S
H256 C252 0.950 . S
C257 C255 1.390 . S
C257 C258 1.387 . S
C257 H260 0.950 . S
C258 C257 1.387 . S
C258 C261 1.387 . S
H259 C255 0.950 . S
H260 C257 0.950 . S
C261 C252 1.390 . S
C261 H254 0.950 . S
C261 C258 1.387 . S
C262 C263 1.387 . S
C262 H266 0.950 . S
C262 C271 1.390 . S
C263 C262 1.387 . S
C263 C265 1.387 . S
H264 C271 0.950 . S
C265 C263 1.387 . S
C265 C267 1.390 . S
C265 H269 0.950 . S
H266 C262 0.950 . S
C267 C265 1.390 . S
C267 C268 1.387 . S
C267 H270 0.950 . S
C268 C267 1.387 . S
C268 C271 1.387 . S
H269 C265 0.950 . S
H270 C267 0.950 . S
C271 C262 1.390 . S
C271 H264 0.950 . S
C271 C268 1.387 . S
C272 C273 1.387 . S
C272 H276 0.950 . S
C272 C281 1.390 . S
C273 C272 1.387 . S
C273 C275 1.387 . S
H274 C281 0.950 . S
C275 C273 1.387 . S
C275 C277 1.390 . S
C275 H279 0.950 . S
H276 C272 0.950 . S
C277 C275 1.390 . S
C277 C278 1.387 . S
C277 H280 0.950 . S
C278 C277 1.387 . S
C278 C281 1.387 . S
H279 C275 0.950 . S
H280 C277 0.950 . S
C281 C272 1.390 . S
C281 H274 0.950 . S
C281 C278 1.387 . S
C282 C283 1.387 . S
C282 H286 0.950 . S
C282 C291 1.390 . S
C283 C282 1.387 . S
C283 C285 1.387 . S
H284 C291 0.950 . S
C285 C283 1.387 . S
C285 C287 1.390 . S
C285 H289 0.950 . S
H286 C282 0.950 . S
C287 C285 1.390 . S
C287 C288 1.387 . S
C287 H290 0.950 . S
C288 C287 1.387 . S
C288 C291 1.387 . S
H289 C285 0.950 . S
H290 C287 0.950 . S
C291 C282 1.390 . S
C291 H284 0.950 . S
C291 C288 1.387 . S
C292 C293 1.387 . S
C292 H296 0.950 . S
C292 C301 1.390 . S
C293 C292 1.387 . S
C293 C295 1.387 . S
H294 C301 0.950 . S
C295 C293 1.387 . S
C295 C297 1.390 . S
C295 H299 0.950 . S
H296 C292 0.950 . S
C297 C295 1.390 . S
C297 C298 1.387 . S
C297 H300 0.950 . S
C298 C297 1.387 . S
C298 C301 1.387 . S
H299 C295 0.950 . S
H300 C297 0.950 . S
C301 C292 1.390 . S
C301 H294 0.950 . S
C301 C298 1.387 . S
C302 C303 1.387 . S
C302 H306 0.950 . S
C302 C311 1.390 . S
C303 C302 1.387 . S
C303 C305 1.387 . S
H304 C311 0.950 . S
C305 C303 1.387 . S
C305 C307 1.390 . S
C305 H309 0.950 . S
H306 C302 0.950 . S
C307 C305 1.390 . S
C307 C308 1.387 . S
C307 H310 0.950 . S
C308 C307 1.387 . S
C308 C311 1.387 . S
H309 C305 0.950 . S
H310 C307 0.950 . S
C311 C302 1.390 . S
C311 H304 0.950 . S
C311 C308 1.387 . S
C312 C313 1.387 . S
C312 H316 0.950 . S
C312 C321 1.390 1_556 S
C313 C312 1.387 . S
C313 C315 1.387 . S
H314 C321 0.950 . S
C315 C313 1.387 . S
C315 C317 1.390 1_556 S
C315 H319 0.950 . S
H316 C312 0.950 . S
C317 C315 1.390 1_554 S
C317 C318 1.387 . S
C317 H320 0.950 . S
C318 C317 1.387 . S
C318 C321 1.387 . S
H319 C315 0.950 . S
H320 C317 0.950 . S
C321 C312 1.390 1_554 S
C321 H314 0.950 . S
C321 C318 1.387 . S
C322 C323 1.387 . S
C322 H326 0.950 . S
C322 C331 1.390 . S
C323 C322 1.387 . S
C323 C325 1.387 . S
H324 C331 0.950 . S
C325 C323 1.387 . S
C325 C327 1.390 . S
C325 H329 0.950 . S
H326 C322 0.950 . S
C327 C325 1.390 . S
C327 C328 1.387 . S
C327 H330 0.950 . S
C328 C327 1.387 . S
C328 C331 1.387 . S
H329 C325 0.950 . S
H330 C327 0.950 . S
C331 C322 1.390 . S
C331 H324 0.950 . S
C331 C328 1.387 . S
C332 C333 1.387 . S
C332 H336 0.950 . S
C332 C341 1.390 . S
C333 C332 1.387 . S
C333 C335 1.387 . S
H334 C341 0.950 . S
C335 C333 1.387 . S
C335 C337 1.390 . S
C335 H339 0.950 . S
H336 C332 0.950 . S
C337 C335 1.390 . S
C337 C338 1.387 . S
C337 H340 0.950 . S
C338 C337 1.387 . S
C338 C341 1.387 . S
H339 C335 0.950 . S
H340 C337 0.950 . S
C341 C332 1.390 . S
C341 H334 0.950 . S
C341 C338 1.387 . S
C342 C343 1.387 . S
C342 H346 0.950 . S
C342 C351 1.390 1_556 S
C343 C342 1.387 . S
C343 C345 1.387 . S
H344 C351 0.950 . S
C345 C343 1.387 . S
C345 C347 1.390 1_556 S
C345 H349 0.950 . S
H346 C342 0.950 . S
C347 C345 1.390 1_554 S
C347 C348 1.387 . S
C347 H350 0.950 . S
C348 C347 1.387 . S
C348 C351 1.387 . S
H349 C345 0.950 . S
H350 C347 0.950 . S
C351 C342 1.390 1_554 S
C351 H344 0.950 . S
C351 C348 1.387 . S
C352 C353 1.387 . S
C352 H356 0.950 . S
C352 C361 1.390 . S
C353 C352 1.387 . S
C353 C355 1.387 . S
H354 C361 0.950 . S
C355 C353 1.387 . S
C355 C357 1.390 . S
C355 H359 0.950 . S
H356 C352 0.950 . S
C357 C355 1.390 . S
C357 C358 1.387 . S
C357 H360 0.950 . S
C358 C357 1.387 . S
C358 C361 1.387 . S
H359 C355 0.950 . S
H360 C357 0.950 . S
C361 C352 1.390 . S
C361 H354 0.950 . S
C361 C358 1.387 . S
C362 C363 1.387 . S
C362 H366 0.950 . S
C362 C371 1.390 . S
C363 C362 1.387 . S
C363 C365 1.387 . S
H364 C371 0.950 . S
C365 C363 1.387 . S
C365 C367 1.390 . S
C365 H369 0.950 . S
H366 C362 0.950 . S
C367 C365 1.390 . S
C367 C368 1.387 . S
C367 H370 0.950 . S
C368 C367 1.387 . S
C368 C371 1.387 . S
H369 C365 0.950 . S
H370 C367 0.950 . S
C371 C362 1.390 . S
C371 H364 0.950 . S
C371 C368 1.387 . S
C372 C373 1.387 . S
C372 H376 0.950 . S
C372 C381 1.390 1_566 S
C373 C372 1.387 . S
C373 C375 1.387 . S
H374 C381 0.950 . S
C375 C373 1.387 . S
C375 C377 1.390 1_566 S
C375 H379 0.950 . S
H376 C372 0.950 . S
C377 C375 1.390 1_544 S
C377 C378 1.387 . S
C377 H380 0.950 . S
C378 C377 1.387 . S
C378 C381 1.387 . S
H379 C375 0.950 . S
H380 C377 0.950 . S
C381 C372 1.390 1_544 S
C381 H374 0.950 . S
C381 C378 1.387 . S
C382 C383 1.387 . S
C382 H386 0.950 . S
C382 C391 1.390 . S
C383 C382 1.387 . S
C383 C385 1.387 . S
H384 C391 0.950 . S
C385 C383 1.387 . S
C385 C387 1.390 . S
C385 H389 0.950 . S
H386 C382 0.950 . S
C387 C385 1.390 . S
C387 C388 1.387 . S
C387 H390 0.950 . S
C388 C387 1.387 . S
C388 C391 1.387 . S
H389 C385 0.950 . S
H390 C387 0.950 . S
C391 C382 1.390 . S
C391 H384 0.950 . S
C391 C388 1.387 . S
C392 C393 1.387 . S
C392 H396 0.950 . S
C392 C401 1.380 1_455 S
C393 C392 1.387 . S
C393 C395 1.385 . S
H394 C401 0.964 . S
C395 C393 1.385 . S
C395 C397 1.382 1_455 S
C395 H399 0.961 . S
H396 C392 0.950 . S
C397 C395 1.382 1_655 S
C397 C398 1.387 . S
C397 H400 0.950 . S
C398 C397 1.387 . S
C398 C401 1.384 . S
H399 C395 0.961 . S
H400 C397 0.950 . S
C401 C392 1.380 1_655 S
C401 H394 0.964 . S
C401 C398 1.384 . S
C402 C403 1.387 . S
C402 H406 0.950 . S
C402 C411 1.390 1_564 S
C403 C402 1.387 . S
C403 C405 1.387 . S
H404 C411 0.950 . S
C405 C403 1.387 . S
C405 C407 1.380 1_564 S
C405 H409 0.950 . S
H406 C402 0.950 . S
C407 C405 1.380 1_546 S
C407 C408 1.408 . S
C407 H410 0.940 . S
C408 C407 1.408 . S
C408 C411 1.387 . S
H409 C405 0.950 . S
H410 C407 0.940 . S
C411 C402 1.390 1_546 S
C411 H404 0.950 . S
C411 C408 1.387 . S
C412 C413 1.387 . S
C412 H416 0.950 . S
C412 C421 1.390 . S
C413 C412 1.387 . S
C413 C415 1.387 . S
H414 C421 0.950 . S
C415 C413 1.387 . S
C415 C417 1.390 . S
C415 H419 0.950 . S
H416 C412 0.950 . S
C417 C415 1.390 . S
C417 C418 1.387 . S
C417 H420 0.950 . S
C418 C417 1.387 . S
C418 C421 1.387 . S
H419 C415 0.950 . S
H420 C417 0.950 . S
C421 C412 1.390 . S
C421 H414 0.950 . S
C421 C418 1.387 . S
C422 C423 1.387 . S
C422 H426 0.950 . S
C422 C431 1.390 . S
C423 C422 1.387 . S
C423 C425 1.387 1_455 S
H424 C431 0.950 . S
C425 C423 1.387 1_655 S
C425 C427 1.390 . S
C425 H429 0.950 . S
H426 C422 0.950 . S
C427 C425 1.390 . S
C427 C428 1.387 . S
C427 H430 0.950 . S
C428 C427 1.387 . S
C428 C431 1.387 1_655 S
H429 C425 0.950 . S
H430 C427 0.950 . S
C431 C422 1.390 . S
C431 H424 0.950 . S
C431 C428 1.387 1_455 S
C432 C433 1.387 . S
C432 H436 0.950 . S
C432 C441 1.390 1_545 S
C433 C432 1.387 . S
C433 C435 1.387 . S
H434 C441 0.950 . S
C435 C433 1.387 . S
C435 C437 1.390 1_545 S
C435 H439 0.950 . S
H436 C432 0.950 . S
C437 C435 1.390 1_565 S
C437 C438 1.387 . S
C437 H440 0.950 . S
C438 C437 1.387 . S
C438 C441 1.387 . S
H439 C435 0.950 . S
H440 C437 0.950 . S
C441 C432 1.390 1_565 S
C441 H434 0.950 . S
C441 C438 1.387 . S
C442 C443 1.387 . S
C442 H446 0.950 . S
C442 C451 1.390 . S
C443 C442 1.387 . S
C443 C445 1.387 . S
H444 C451 0.950 . S
C445 C443 1.387 . S
C445 C447 1.390 . S
C445 H449 0.950 . S
H446 C442 0.950 . S
C447 C445 1.390 . S
C447 C448 1.387 . S
C447 H450 0.950 . S
C448 C447 1.387 . S
C448 C451 1.387 . S
H449 C445 0.950 . S
H450 C447 0.950 . S
C451 C442 1.390 . S
C451 H444 0.950 . S
C451 C448 1.387 . S
C452 C453 1.387 . S
C452 H456 0.950 . S
C452 C461 1.395 1_655 S
C453 C452 1.387 . S
C453 C455 1.387 . S
H454 C461 0.944 . S
C455 C453 1.387 . S
C455 C457 1.390 1_655 S
C455 H459 0.950 . S
H456 C452 0.950 . S
C457 C455 1.390 1_455 S
C457 C458 1.387 . S
C457 H460 0.950 . S
C458 C457 1.387 . S
C458 C461 1.390 . S
H459 C455 0.950 . S
H460 C457 0.950 . S
C461 C452 1.395 1_455 S
C461 H454 0.944 . S
C461 C458 1.390 . S
C462 C463 1.387 . S
C462 H466 0.950 . S
C462 C471 1.390 1_455 S
C463 C462 1.387 . S
C463 C465 1.387 . S
H464 C471 0.950 . S
C465 C463 1.387 . S
C465 C467 1.390 1_455 S
C465 H469 0.950 . S
H466 C462 0.950 . S
C467 C465 1.390 1_655 S
C467 C468 1.387 . S
C467 H470 0.950 . S
C468 C467 1.387 . S
C468 C471 1.387 . S
H469 C465 0.950 . S
H470 C467 0.950 . S
C471 C462 1.390 1_655 S
C471 H464 0.950 . S
C471 C468 1.387 . S
C472 C473 1.387 . S
C472 H476 0.950 . S
C472 C481 1.390 1_565 S
C473 C472 1.387 . S
C473 C475 1.387 . S
H474 C481 0.950 . S
C475 C473 1.387 . S
C475 C477 1.390 1_565 S
C475 H479 0.950 . S
H476 C472 0.950 . S
C477 C475 1.390 1_545 S
C477 C478 1.387 . S
C477 H480 0.950 . S
C478 C477 1.387 . S
C478 C481 1.387 . S
H479 C475 0.950 . S
H480 C477 0.950 . S
C481 C472 1.390 1_545 S
C481 H474 0.950 . S
C481 C478 1.387 . S
C482 C483 1.387 . S
C482 H486 0.950 . S
C482 C491 1.390 . S
C483 C482 1.387 . S
C483 C485 1.387 . S
H484 C491 0.950 . S
C485 C483 1.387 . S
C485 C487 1.390 . S
C485 H489 0.950 . S
H486 C482 0.950 . S
C487 C485 1.390 . S
C487 C488 1.387 . S
C487 H490 0.950 . S
C488 C487 1.387 . S
C488 C491 1.387 . S
H489 C485 0.950 . S
H490 C487 0.950 . S
C491 C482 1.390 . S
C491 H484 0.950 . S
C491 C488 1.387 . S
C492 C493 1.387 . S
C492 H496 0.950 . S
C492 C501 1.390 1_565 S
C493 C492 1.387 . S
C493 C495 1.387 . S
H494 C501 0.950 . S
C495 C493 1.387 . S
C495 C497 1.390 1_565 S
C495 H499 0.950 . S
H496 C492 0.950 . S
C497 C495 1.390 1_545 S
C497 C498 1.387 . S
C497 H500 0.950 . S
C498 C497 1.387 . S
C498 C501 1.387 . S
H499 C495 0.950 . S
H500 C497 0.950 . S
C501 C492 1.390 1_545 S
C501 H494 0.950 . S
C501 C498 1.387 . S
C502 C503 1.387 . S
C502 H506 0.950 . S
C502 C511 1.390 . S
C503 C502 1.387 . S
C503 C505 1.387 . S
H504 C511 0.950 . S
C505 C503 1.387 . S
C505 C507 1.390 . S
C505 H509 0.950 . S
H506 C502 0.950 . S
C507 C505 1.390 . S
C507 C508 1.387 . S
C507 H510 0.950 . S
C508 C507 1.387 . S
C508 C511 1.387 . S
H509 C505 0.950 . S
H510 C507 0.950 . S
C511 C502 1.390 . S
C511 H504 0.950 . S
C511 C508 1.387 . S
C512 C513 1.387 . S
C512 H516 0.950 . S
C512 C521 1.390 1_655 S
C513 C512 1.387 . S
C513 C515 1.387 . S
H514 C521 0.950 . S
C515 C513 1.387 . S
C515 C517 1.390 1_655 S
C515 H519 0.950 . S
H516 C512 0.950 . S
C517 C515 1.390 1_455 S
C517 C518 1.387 . S
C517 H520 0.950 . S
C518 C517 1.387 . S
C518 C521 1.387 . S
H519 C515 0.950 . S
H520 C517 0.950 . S
C521 C512 1.390 1_455 S
C521 H514 0.950 . S
C521 C518 1.387 . S
C522 C523 1.387 . S
C522 H526 0.950 . S
C522 C531 1.390 1_545 S
C523 C522 1.387 . S
C523 C525 1.387 . S
H524 C531 0.950 . S
C525 C523 1.387 . S
C525 C527 1.390 1_545 S
C525 H529 0.950 . S
H526 C522 0.950 . S
C527 C525 1.390 1_565 S
C527 C528 1.387 . S
C527 H530 0.950 . S
C528 C527 1.387 . S
C528 C531 1.387 . S
H529 C525 0.950 . S
H530 C527 0.950 . S
C531 C522 1.390 1_565 S
C531 H524 0.950 . S
C531 C528 1.387 . S
C532 C533 1.387 . S
C532 H536 0.950 . S
C532 C541 1.390 . S
C533 C532 1.387 . S
C533 C535 1.387 . S
H534 C541 0.950 . S
C535 C533 1.387 . S
C535 C537 1.390 . S
C535 H539 0.950 . S
H536 C532 0.950 . S
C537 C535 1.390 . S
C537 C538 1.387 . S
C537 H540 0.950 . S
C538 C537 1.387 . S
C538 C541 1.387 . S
H539 C535 0.950 . S
H540 C537 0.950 . S
C541 C532 1.390 . S
C541 H534 0.950 . S
C541 C538 1.387 . S
C542 C543 1.387 . S
C542 H546 0.950 . S
C542 C551 1.390 1_455 S
C543 C542 1.387 . S
C543 C545 1.387 . S
H544 C551 0.950 . S
C545 C543 1.387 . S
C545 C547 1.390 1_455 S
C545 H549 0.950 . S
H546 C542 0.950 . S
C547 C545 1.390 1_655 S
C547 C548 1.387 . S
C547 H550 0.950 . S
C548 C547 1.387 . S
C548 C551 1.387 . S
H549 C545 0.950 . S
H550 C547 0.950 . S
C551 C542 1.390 1_655 S
C551 H544 0.950 . S
C551 C548 1.387 . S
C552 C553 1.387 . S
C552 H556 0.950 . S
C552 C561 1.390 . S
C553 C552 1.387 . S
C553 C555 1.387 . S
H554 C561 0.950 . S
C555 C553 1.387 . S
C555 C557 1.390 . S
C555 H559 0.950 . S
H556 C552 0.950 . S
C557 C555 1.390 . S
C557 C558 1.387 . S
C557 H560 0.950 . S
C558 C557 1.387 . S
C558 C561 1.387 . S
H559 C555 0.950 . S
H560 C557 0.950 . S
C561 C552 1.390 . S
C561 H554 0.950 . S
C561 C558 1.387 . S
C562 C563 1.387 . S
C562 H566 0.950 . S
C562 C571 1.390 . S
C563 C562 1.387 . S
C563 C565 1.387 . S
H564 C571 0.950 . S
C565 C563 1.387 . S
C565 C567 1.390 . S
C565 H569 0.950 . S
H566 C562 0.950 . S
C567 C565 1.390 . S
C567 C568 1.387 . S
C567 H570 0.950 . S
C568 C567 1.387 . S
C568 C571 1.387 . S
H569 C565 0.950 . S
H570 C567 0.950 . S
C571 C562 1.390 . S
C571 H564 0.950 . S
C571 C568 1.387 . S
C572 C573 1.387 . S
C572 H576 0.950 . S
C572 C581 1.390 . S
C573 C572 1.387 . S
C573 C575 1.387 . S
H574 C581 0.950 . S
C575 C573 1.387 . S
C575 C577 1.390 . S
C575 H579 0.950 . S
H576 C572 0.950 . S
C577 C575 1.390 . S
C577 C578 1.387 . S
C577 H580 0.950 . S
C578 C577 1.387 . S
C578 C581 1.387 . S
H579 C575 0.950 . S
H580 C577 0.950 . S
C581 C572 1.390 . S
C581 H574 0.950 . S
C581 C578 1.387 . S
C582 C583 1.387 . S
C582 H586 0.950 . S
C582 C591 1.390 . S
C583 C582 1.387 . S
C583 C585 1.387 . S
H584 C591 0.950 . S
C585 C583 1.387 . S
C585 C587 1.390 . S
C585 H589 0.950 . S
H586 C582 0.950 . S
C587 C585 1.390 . S
C587 C588 1.387 . S
C587 H590 0.950 . S
C588 C587 1.387 . S
C588 C591 1.387 . S
H589 C585 0.950 . S
H590 C587 0.950 . S
C591 C582 1.390 . S
C591 H584 0.950 . S
C591 C588 1.387 . S
C592 C593 1.387 . S
C592 H596 0.950 . S
C592 C601 1.390 . S
C593 C592 1.387 . S
C593 C595 1.387 . S
H594 C601 0.950 . S
C595 C593 1.387 . S
C595 C597 1.390 . S
C595 H599 0.950 . S
H596 C592 0.950 . S
C597 C595 1.390 . S
C597 C598 1.387 . S
C597 H600 0.950 . S
C598 C597 1.387 . S
C598 C601 1.387 . S
H599 C595 0.950 . S
H600 C597 0.950 . S
C601 C592 1.390 . S
C601 H594 0.950 . S
C601 C598 1.387 . S
C602 C603 1.387 . S
C602 H606 0.950 . S
C602 C611 1.390 . S
C603 C602 1.387 . S
C603 C605 1.387 . S
H604 C611 0.950 . S
C605 C603 1.387 . S
C605 C607 1.390 . S
C605 H609 0.950 . S
H606 C602 0.950 . S
C607 C605 1.390 . S
C607 C608 1.387 . S
C607 H610 0.950 . S
C608 C607 1.387 . S
C608 C611 1.387 . S
H609 C605 0.950 . S
H610 C607 0.950 . S
C611 C602 1.390 . S
C611 H604 0.950 . S
C611 C608 1.387 . S
C253 C19 0.981 . S
C258 C188 0.988 . S
C263 C28 0.969 . S
C268 C209 0.982 . S
C273 C61 0.986 . S
C278 C230 0.983 . S
C283 C251 0.977 . S
C288 C67 0.975 . S
C293 C103 0.983 . S
C298 C146 0.984 . S
C303 C167 0.982 . S
C308 C112 0.968 . S
C313 C229 1.338 . S
C318 C20 1.335 . S
C323 C250 1.363 . S
C328 C24 1.374 . S
C333 C62 1.339 . S
C338 C145 1.342 . S
C343 C166 1.362 . S
C348 C79 1.374 . S
C353 C187 1.338 . S
C358 C104 1.334 . S
C363 C108 1.369 . S
C368 C208 1.359 . S
C373 C151 1.297 . S
C378 C7 1.297 . S
C383 C172 1.305 . S
C388 C37 1.309 . S
C393 C193 1.294 . S
C398 C49 1.295 . S
C403 C66 1.306 . S
C408 C214 1.303 . S
C413 C91 1.298 . S
C418 C235 1.296 . S
C423 C121 1.305 . S
C428 C130 1.304 . S
C433 C3 0.740 . S
C438 C70 0.758 . S
C443 C25 0.758 . S
C448 C87 0.740 . S
C453 C45 0.751 . S
C458 C109 0.768 . S
C463 C205 0.736 . S
C468 C142 0.737 . S
C473 C163 0.736 . S
C478 C226 0.737 . S
C483 C247 0.748 . S
C488 C184 0.748 . S
C493 C150 1.898 . S
C498 C16 1.898 . S
C503 C171 1.861 . S
C508 C40 1.864 . S
C513 C58 1.896 . S
C518 C192 1.895 . S
C523 C213 1.858 . S
C528 C83 1.862 . S
C533 C234 1.898 . S
C538 C100 1.897 . S
C543 C124 1.865 . S
C548 C129 1.861 . S
C553 C4 1.200 . S
C558 C217 1.201 . S
C563 C41 1.199 . S
C568 C238 1.199 . S
C573 C46 1.197 . S
C578 C133 1.199 . S
C583 C82 1.199 . S
C588 C154 1.199 . S
C593 C88 1.196 . S
C598 C175 1.195 . S
C603 C196 1.192 . S
C608 C125 1.193 . S
