# Generated by pormake.
# Topology mer, (4)-cn, num edge types: 1
# Building blocks:
#     Node 0, Type 0, BuildingBlock: ESEHIV_clean_sbu_0, # of connection points: 4
#     Node 1, Type 0, BuildingBlock: ESEHIV_clean_sbu_0, # of connection points: 4
#     Node 2, Type 0, BuildingBlock: ESEHIV_clean_sbu_0, # of connection points: 4
#     Node 3, Type 0, BuildingBlock: ESEHIV_clean_sbu_0, # of connection points: 4
#     Node 4, Type 0, BuildingBlock: ESEHIV_clean_sbu_0, # of connection points: 4
#     Node 5, Type 0, BuildingBlock: ESEHIV_clean_sbu_0, # of connection points: 4
#     Node 6, Type 0, BuildingBlock: ESEHIV_clean_sbu_0, # of connection points: 4
#     Node 7, Type 0, BuildingBlock: ESEHIV_clean_sbu_0, # of connection points: 4
#     Node 8, Type 0, BuildingBlock: ESEHIV_clean_sbu_0, # of connection points: 4
#     Node 9, Type 0, BuildingBlock: ESEHIV_clean_sbu_0, # of connection points: 4
#     Node 10, Type 0, BuildingBlock: ESEHIV_clean_sbu_0, # of connection points: 4
#     Node 11, Type 0, BuildingBlock: ESEHIV_clean_sbu_0, # of connection points: 4
#     Node 12, Type 0, BuildingBlock: ESEHIV_clean_sbu_0, # of connection points: 4
#     Node 13, Type 0, BuildingBlock: ESEHIV_clean_sbu_0, # of connection points: 4
#     Node 14, Type 0, BuildingBlock: ESEHIV_clean_sbu_0, # of connection points: 4
#     Node 15, Type 0, BuildingBlock: ESEHIV_clean_sbu_0, # of connection points: 4
#     Node 16, Type 0, BuildingBlock: ESEHIV_clean_sbu_0, # of connection points: 4
#     Node 17, Type 0, BuildingBlock: ESEHIV_clean_sbu_0, # of connection points: 4
#     Node 18, Type 0, BuildingBlock: ESEHIV_clean_sbu_0, # of connection points: 4
#     Node 19, Type 0, BuildingBlock: ESEHIV_clean_sbu_0, # of connection points: 4
#     Node 20, Type 0, BuildingBlock: ESEHIV_clean_sbu_0, # of connection points: 4
#     Node 21, Type 0, BuildingBlock: ESEHIV_clean_sbu_0, # of connection points: 4
#     Node 22, Type 0, BuildingBlock: ESEHIV_clean_sbu_0, # of connection points: 4
#     Node 23, Type 0, BuildingBlock: ESEHIV_clean_sbu_0, # of connection points: 4
#     Node 24, Type 0, BuildingBlock: ESEHIV_clean_sbu_0, # of connection points: 4
#     Node 25, Type 0, BuildingBlock: ESEHIV_clean_sbu_0, # of connection points: 4
#     Node 26, Type 0, BuildingBlock: ESEHIV_clean_sbu_0, # of connection points: 4
#     Node 27, Type 0, BuildingBlock: ESEHIV_clean_sbu_0, # of connection points: 4
#     Node 28, Type 0, BuildingBlock: ESEHIV_clean_sbu_0, # of connection points: 4
#     Node 29, Type 0, BuildingBlock: ESEHIV_clean_sbu_0, # of connection points: 4
#     Node 30, Type 0, BuildingBlock: ESEHIV_clean_sbu_0, # of connection points: 4
#     Node 31, Type 0, BuildingBlock: ESEHIV_clean_sbu_0, # of connection points: 4
#     Edge 32, Type (0, 0), BuildingBlock: XIVTED_clean_linker_0, # of connection points: 2
#     Edge 33, Type (0, 0), BuildingBlock: XIVTED_clean_linker_0, # of connection points: 2
#     Edge 34, Type (0, 0), BuildingBlock: XIVTED_clean_linker_0, # of connection points: 2
#     Edge 35, Type (0, 0), BuildingBlock: XIVTED_clean_linker_0, # of connection points: 2
#     Edge 36, Type (0, 0), BuildingBlock: XIVTED_clean_linker_0, # of connection points: 2
#     Edge 37, Type (0, 0), BuildingBlock: XIVTED_clean_linker_0, # of connection points: 2
#     Edge 38, Type (0, 0), BuildingBlock: XIVTED_clean_linker_0, # of connection points: 2
#     Edge 39, Type (0, 0), BuildingBlock: XIVTED_clean_linker_0, # of connection points: 2
#     Edge 40, Type (0, 0), BuildingBlock: XIVTED_clean_linker_0, # of connection points: 2
#     Edge 41, Type (0, 0), BuildingBlock: XIVTED_clean_linker_0, # of connection points: 2
#     Edge 42, Type (0, 0), BuildingBlock: XIVTED_clean_linker_0, # of connection points: 2
#     Edge 43, Type (0, 0), BuildingBlock: XIVTED_clean_linker_0, # of connection points: 2
#     Edge 44, Type (0, 0), BuildingBlock: XIVTED_clean_linker_0, # of connection points: 2
#     Edge 45, Type (0, 0), BuildingBlock: XIVTED_clean_linker_0, # of connection points: 2
#     Edge 46, Type (0, 0), BuildingBlock: XIVTED_clean_linker_0, # of connection points: 2
#     Edge 47, Type (0, 0), BuildingBlock: XIVTED_clean_linker_0, # of connection points: 2
#     Edge 48, Type (0, 0), BuildingBlock: XIVTED_clean_linker_0, # of connection points: 2
#     Edge 49, Type (0, 0), BuildingBlock: XIVTED_clean_linker_0, # of connection points: 2
#     Edge 50, Type (0, 0), BuildingBlock: XIVTED_clean_linker_0, # of connection points: 2
#     Edge 51, Type (0, 0), BuildingBlock: XIVTED_clean_linker_0, # of connection points: 2
#     Edge 52, Type (0, 0), BuildingBlock: XIVTED_clean_linker_0, # of connection points: 2
#     Edge 53, Type (0, 0), BuildingBlock: XIVTED_clean_linker_0, # of connection points: 2
#     Edge 54, Type (0, 0), BuildingBlock: XIVTED_clean_linker_0, # of connection points: 2
#     Edge 55, Type (0, 0), BuildingBlock: XIVTED_clean_linker_0, # of connection points: 2
#     Edge 56, Type (0, 0), BuildingBlock: XIVTED_clean_linker_0, # of connection points: 2
#     Edge 57, Type (0, 0), BuildingBlock: XIVTED_clean_linker_0, # of connection points: 2
#     Edge 58, Type (0, 0), BuildingBlock: XIVTED_clean_linker_0, # of connection points: 2
#     Edge 59, Type (0, 0), BuildingBlock: XIVTED_clean_linker_0, # of connection points: 2
#     Edge 60, Type (0, 0), BuildingBlock: XIVTED_clean_linker_0, # of connection points: 2
#     Edge 61, Type (0, 0), BuildingBlock: XIVTED_clean_linker_0, # of connection points: 2
#     Edge 62, Type (0, 0), BuildingBlock: XIVTED_clean_linker_0, # of connection points: 2
#     Edge 63, Type (0, 0), BuildingBlock: XIVTED_clean_linker_0, # of connection points: 2
#     Edge 64, Type (0, 0), BuildingBlock: XIVTED_clean_linker_0, # of connection points: 2
#     Edge 65, Type (0, 0), BuildingBlock: XIVTED_clean_linker_0, # of connection points: 2
#     Edge 66, Type (0, 0), BuildingBlock: XIVTED_clean_linker_0, # of connection points: 2
#     Edge 67, Type (0, 0), BuildingBlock: XIVTED_clean_linker_0, # of connection points: 2
#     Edge 68, Type (0, 0), BuildingBlock: XIVTED_clean_linker_0, # of connection points: 2
#     Edge 69, Type (0, 0), BuildingBlock: XIVTED_clean_linker_0, # of connection points: 2
#     Edge 70, Type (0, 0), BuildingBlock: XIVTED_clean_linker_0, # of connection points: 2
#     Edge 71, Type (0, 0), BuildingBlock: XIVTED_clean_linker_0, # of connection points: 2
#     Edge 72, Type (0, 0), BuildingBlock: XIVTED_clean_linker_0, # of connection points: 2
#     Edge 73, Type (0, 0), BuildingBlock: XIVTED_clean_linker_0, # of connection points: 2
#     Edge 74, Type (0, 0), BuildingBlock: XIVTED_clean_linker_0, # of connection points: 2
#     Edge 75, Type (0, 0), BuildingBlock: XIVTED_clean_linker_0, # of connection points: 2
#     Edge 76, Type (0, 0), BuildingBlock: XIVTED_clean_linker_0, # of connection points: 2
#     Edge 77, Type (0, 0), BuildingBlock: XIVTED_clean_linker_0, # of connection points: 2
#     Edge 78, Type (0, 0), BuildingBlock: XIVTED_clean_linker_0, # of connection points: 2
#     Edge 79, Type (0, 0), BuildingBlock: XIVTED_clean_linker_0, # of connection points: 2
#     Edge 80, Type (0, 0), BuildingBlock: XIVTED_clean_linker_0, # of connection points: 2
#     Edge 81, Type (0, 0), BuildingBlock: XIVTED_clean_linker_0, # of connection points: 2
#     Edge 82, Type (0, 0), BuildingBlock: XIVTED_clean_linker_0, # of connection points: 2
#     Edge 83, Type (0, 0), BuildingBlock: XIVTED_clean_linker_0, # of connection points: 2
#     Edge 84, Type (0, 0), BuildingBlock: XIVTED_clean_linker_0, # of connection points: 2
#     Edge 85, Type (0, 0), BuildingBlock: XIVTED_clean_linker_0, # of connection points: 2
#     Edge 86, Type (0, 0), BuildingBlock: XIVTED_clean_linker_0, # of connection points: 2
#     Edge 87, Type (0, 0), BuildingBlock: XIVTED_clean_linker_0, # of connection points: 2
#     Edge 88, Type (0, 0), BuildingBlock: XIVTED_clean_linker_0, # of connection points: 2
#     Edge 89, Type (0, 0), BuildingBlock: XIVTED_clean_linker_0, # of connection points: 2
#     Edge 90, Type (0, 0), BuildingBlock: XIVTED_clean_linker_0, # of connection points: 2
#     Edge 91, Type (0, 0), BuildingBlock: XIVTED_clean_linker_0, # of connection points: 2
#     Edge 92, Type (0, 0), BuildingBlock: XIVTED_clean_linker_0, # of connection points: 2
#     Edge 93, Type (0, 0), BuildingBlock: XIVTED_clean_linker_0, # of connection points: 2
#     Edge 94, Type (0, 0), BuildingBlock: XIVTED_clean_linker_0, # of connection points: 2
#     Edge 95, Type (0, 0), BuildingBlock: XIVTED_clean_linker_0, # of connection points: 2
# Relax obj value: 0.084
# Max RMSD: 0.220
# Mean RMSD: 0.220
data_MOF--net-mer--node1-ESEHIV_clean_sbu_0--edge1-XIVTED_clean_linker_0
_symmetry_space_group_name_H-M    P1
_symmetry_Int_Tables_number       1
_symmetry_cell_setting            triclinic
loop_
_symmetry_equiv_pos_as_xyz
'x, y, z'
_cell_length_a     71.25847
_cell_length_b     71.137748
_cell_length_c     54.87708
_cell_angle_alpha  90.104685
_cell_angle_beta   90.045463
_cell_angle_gamma 90.241309
loop_
_atom_site_label
_atom_site_type_symbol
_atom_site_fract_x
_atom_site_fract_y
_atom_site_fract_z
_atom_type_partial_charge
Cu0 Cu 0.13816 0.30145 0.39659 0.0
N1 N 0.14036 0.27542 0.39461 0.0
N2 N 0.15253 0.24654 0.39596 0.0
C3 C 0.15593 0.26517 0.39834 0.0
C4 C 0.1341 0.2451 0.39051 0.0
C5 C 0.12665 0.26293 0.38967 0.0
O6 O 0.15575 0.31273 0.37362 0.0
C7 C 0.13436 0.32228 0.44122 0.0
O8 O 0.12294 0.33309 0.42878 0.0
H9 H 0.16937 0.27128 0.40311 0.0
H10 H 0.11223 0.26655 0.38577 0.0
N11 N 0.11414 0.30803 0.38602 0.0
N12 N 0.08307 0.31131 0.38236 0.0
C13 C 0.09731 0.30557 0.39686 0.0
C14 C 0.11036 0.31528 0.36396 0.0
C15 C 0.09133 0.31739 0.36168 0.0
C16 C 0.15541 0.3303 0.36929 0.0
O17 O 0.14493 0.34112 0.38308 0.0
H18 H 0.09559 0.29949 0.41478 0.0
H19 H 0.12072 0.31828 0.3501 0.0
O20 O 0.14255 0.30873 0.43045 0.0
H21 H 0.12656 0.23213 0.38706 0.0
H22 H 0.08411 0.32228 0.34554 0.0
Cu23 Cu 0.69919 0.12978 0.4011 0.0
N24 N 0.72533 0.1306 0.39882 0.0
N25 N 0.75473 0.14161 0.39939 0.0
C26 C 0.73646 0.14554 0.40341 0.0
C27 C 0.75507 0.12352 0.39196 0.0
C28 C 0.73693 0.1168 0.39152 0.0
O29 O 0.68804 0.14442 0.37478 0.0
C30 C 0.67726 0.13401 0.44406 0.0
O31 O 0.66466 0.12419 0.43199 0.0
H32 H 0.73122 0.159 0.40952 0.0
H33 H 0.7325 0.10296 0.38568 0.0
N34 N 0.69083 0.10507 0.39752 0.0
N35 N 0.68931 0.07374 0.3989 0.0
C36 C 0.69879 0.08927 0.40608 0.0
C37 C 0.6757 0.09938 0.38477 0.0
C38 C 0.6747 0.08005 0.38562 0.0
C39 C 0.69648 0.14591 0.35438 0.0
O40 O 0.71318 0.13845 0.35179 0.0
H41 H 0.71141 0.08918 0.41705 0.0
H42 H 0.66631 0.10866 0.37509 0.0
O43 O 0.69245 0.1387 0.43346 0.0
H44 H 0.76747 0.11586 0.38652 0.0
H45 H 0.66449 0.07131 0.37631 0.0
Cu46 Cu 0.86923 0.68681 0.40303 0.0
N47 N 0.86877 0.71294 0.40115 0.0
N48 N 0.85818 0.74241 0.40189 0.0
C49 C 0.85362 0.72402 0.4036 0.0
C50 C 0.87688 0.74288 0.39814 0.0
C51 C 0.88337 0.72469 0.3976 0.0
O52 O 0.85102 0.67758 0.37934 0.0
C53 C 0.87058 0.66649 0.44796 0.0
O54 O 0.88164 0.65491 0.43614 0.0
H55 H 0.83962 0.71869 0.40705 0.0
H56 H 0.89773 0.72038 0.39483 0.0
N57 N 0.8934 0.6788 0.39477 0.0
N58 N 0.92473 0.67735 0.39391 0.0
C59 C 0.90952 0.68382 0.40592 0.0
C60 C 0.89862 0.66883 0.37505 0.0
C61 C 0.91791 0.66778 0.37459 0.0
C62 C 0.84988 0.66069 0.37182 0.0
O63 O 0.86038 0.64771 0.38191 0.0
H64 H 0.91007 0.6927 0.42195 0.0
H65 H 0.8892 0.66356 0.36119 0.0
O66 O 0.86324 0.68021 0.4366 0.0
H67 H 0.88525 0.75548 0.39573 0.0
H68 H 0.92628 0.66155 0.36026 0.0
Cu69 Cu 0.30352 0.87456 0.4045 0.0
N70 N 0.27758 0.87196 0.4027 0.0
N71 N 0.24891 0.85919 0.40274 0.0
C72 C 0.26756 0.85586 0.40291 0.0
C73 C 0.2472 0.87807 0.40231 0.0
C74 C 0.2649 0.8859 0.40226 0.0
O75 O 0.31466 0.85756 0.38067 0.0
C76 C 0.32432 0.87785 0.4492 0.0
O77 O 0.33527 0.88935 0.43698 0.0
H78 H 0.27383 0.84205 0.40392 0.0
H79 H 0.2683 0.90073 0.40225 0.0
N80 N 0.30979 0.89908 0.39529 0.0
N81 N 0.31443 0.93012 0.39483 0.0
C82 C 0.30787 0.91534 0.40774 0.0
C83 C 0.31742 0.90387 0.37375 0.0
C84 C 0.32044 0.92294 0.37348 0.0
C85 C 0.33205 0.85833 0.37546 0.0
O86 O 0.3431 0.86909 0.38869 0.0
H87 H 0.3021 0.91627 0.42594 0.0
H88 H 0.32053 0.89416 0.35914 0.0
O89 O 0.31084 0.86962 0.4382 0.0
H90 H 0.23409 0.8857 0.40208 0.0
H91 H 0.32635 0.93098 0.3586 0.0
Cu92 Cu 0.11792 0.72648 0.66057 0.0
N93 N 0.13165 0.74761 0.65101 0.0
N94 N 0.15208 0.77139 0.64828 0.0
C95 C 0.14451 0.75813 0.66296 0.0
C96 C 0.14349 0.76927 0.62654 0.0
C97 C 0.1309 0.75468 0.62832 0.0
O98 O 0.12629 0.71595 0.69149 0.0
C99 C 0.13423 0.70572 0.62226 0.0
O100 O 0.15 0.71198 0.63173 0.0
H101 H 0.14864 0.75575 0.68167 0.0
H102 H 0.12202 0.74926 0.61391 0.0
N103 N 0.09302 0.7337 0.66421 0.0
N104 N 0.06172 0.73246 0.66616 0.0
C105 C 0.07772 0.72254 0.66344 0.0
C106 C 0.08656 0.75124 0.66757 0.0
C107 C 0.06726 0.75054 0.66877 0.0
C108 C 0.14323 0.71395 0.69836 0.0
O109 O 0.15693 0.71855 0.68351 0.0
H110 H 0.07836 0.70751 0.66053 0.0
H111 H 0.0953 0.76366 0.66899 0.0
O112 O 0.1189 0.70896 0.63338 0.0
H113 H 0.14618 0.77763 0.61044 0.0
H114 H 0.05806 0.7624 0.67166 0.0
Cu115 Cu 0.29212 0.12947 0.6873 0.0
N116 N 0.26648 0.13425 0.68704 0.0
N117 N 0.23936 0.14984 0.68565 0.0
C118 C 0.25826 0.15114 0.68461 0.0
C119 C 0.23561 0.13138 0.68883 0.0
C120 C 0.25237 0.1218 0.68964 0.0
O121 O 0.30342 0.14725 0.70997 0.0
C122 C 0.31371 0.12257 0.64367 0.0
O123 O 0.32292 0.10997 0.65636 0.0
H124 H 0.26606 0.16413 0.68261 0.0
H125 H 0.25417 0.10683 0.69204 0.0
N126 N 0.29589 0.1054 0.69994 0.0
N127 N 0.29693 0.07432 0.70577 0.0
C128 C 0.29396 0.08829 0.68951 0.0
C129 C 0.30011 0.1021 0.72341 0.0
C130 C 0.30089 0.08306 0.72703 0.0
C131 C 0.32024 0.14594 0.71758 0.0
O132 O 0.33143 0.13351 0.70755 0.0
H133 H 0.29006 0.08618 0.67064 0.0
H134 H 0.30226 0.11286 0.73708 0.0
O135 O 0.30103 0.13229 0.65398 0.0
H136 H 0.22176 0.12519 0.69025 0.0
H137 H 0.30426 0.07622 0.74407 0.0
Cu138 Cu 0.88769 0.27327 0.66617 0.0
N139 N 0.87708 0.24957 0.66164 0.0
N140 N 0.85791 0.22468 0.66158 0.0
C141 C 0.86036 0.24269 0.66891 0.0
C142 C 0.87363 0.22022 0.64918 0.0
C143 C 0.88536 0.23559 0.64923 0.0
O144 O 0.87494 0.28735 0.69163 0.0
C145 C 0.87191 0.28762 0.62307 0.0
O146 O 0.8561 0.28228 0.63331 0.0
H147 H 0.85031 0.25067 0.67944 0.0
H148 H 0.89899 0.23661 0.64065 0.0
N149 N 0.91262 0.26968 0.67505 0.0
N150 N 0.9438 0.27234 0.67683 0.0
C151 C 0.92768 0.28006 0.6687 0.0
C152 C 0.91941 0.25499 0.68764 0.0
C153 C 0.93863 0.25659 0.68878 0.0
C154 C 0.87457 0.28098 0.7133 0.0
O155 O 0.88216 0.26454 0.71776 0.0
H156 H 0.92686 0.29265 0.65771 0.0
H157 H 0.91096 0.2437 0.69503 0.0
O158 O 0.88715 0.28593 0.63492 0.0
H159 H 0.87633 0.20694 0.64024 0.0
H160 H 0.94807 0.24691 0.69771 0.0
Cu161 Cu 0.72627 0.8843 0.674 0.0
N162 N 0.75071 0.87551 0.67077 0.0
N163 N 0.77579 0.85686 0.6682 0.0
C164 C 0.75698 0.85769 0.67142 0.0
C165 C 0.78142 0.8749 0.66554 0.0
C166 C 0.76595 0.88631 0.66709 0.0
O167 O 0.71326 0.86999 0.69913 0.0
C168 C 0.71219 0.86808 0.63072 0.0
O169 O 0.71633 0.8523 0.64187 0.0
H170 H 0.74788 0.84564 0.67393 0.0
H171 H 0.76579 0.90148 0.66571 0.0
N172 N 0.7279 0.90897 0.6852 0.0
N173 N 0.72307 0.93959 0.69109 0.0
C174 C 0.72004 0.92471 0.67624 0.0
C175 C 0.73625 0.9141 0.70618 0.0
C176 C 0.73328 0.93296 0.7099 0.0
C177 C 0.69914 0.87727 0.70971 0.0
O178 O 0.69228 0.89304 0.70114 0.0
H179 H 0.71162 0.92508 0.65982 0.0
H180 H 0.74357 0.9046 0.71823 0.0
O181 O 0.71442 0.88355 0.64207 0.0
H182 H 0.79573 0.87964 0.66304 0.0
H183 H 0.73806 0.94114 0.72537 0.0
Cu184 Cu 0.87426 0.691 0.67533 0.0
N185 N 0.87229 0.71704 0.67796 0.0
N186 N 0.8604 0.74602 0.67725 0.0
C187 C 0.85694 0.72753 0.67373 0.0
C188 C 0.87858 0.74716 0.68403 0.0
C189 C 0.88584 0.72927 0.68455 0.0
O190 O 0.85829 0.68014 0.70042 0.0
C191 C 0.87459 0.67053 0.63049 0.0
O192 O 0.88688 0.65979 0.64156 0.0
H193 H 0.8436 0.72171 0.66794 0.0
H194 H 0.89999 0.72547 0.68959 0.0
N195 N 0.8992 0.68436 0.6814 0.0
N196 N 0.93058 0.68492 0.68102 0.0
C197 C 0.91467 0.69161 0.67084 0.0
C198 C 0.90551 0.67262 0.69873 0.0
C199 C 0.92483 0.67287 0.69848 0.0
C200 C 0.85683 0.66257 0.70429 0.0
O201 O 0.86526 0.65077 0.6895 0.0
H202 H 0.91421 0.70196 0.65643 0.0
H203 H 0.89673 0.66495 0.71135 0.0
O204 O 0.86704 0.68398 0.64223 0.0
H205 H 0.886 0.75997 0.68871 0.0
H206 H 0.93389 0.66547 0.71102 0.0
Cu207 Cu 0.30754 0.88142 0.6778 0.0
N208 N 0.28154 0.879 0.68033 0.0
N209 N 0.25318 0.86559 0.67891 0.0
C210 C 0.27137 0.86426 0.67232 0.0
C211 C 0.25184 0.88187 0.69145 0.0
C212 C 0.26938 0.89015 0.69224 0.0
O213 O 0.31979 0.86519 0.70186 0.0
C214 C 0.32688 0.88374 0.632 0.0
O215 O 0.33741 0.89643 0.64286 0.0
H216 H 0.27741 0.85241 0.66279 0.0
H217 H 0.27312 0.90305 0.70154 0.0
N218 N 0.3149 0.90588 0.68571 0.0
N219 N 0.31555 0.93683 0.69223 0.0
C220 C 0.30677 0.92252 0.68061 0.0
C221 C 0.32931 0.9099 0.70072 0.0
C222 C 0.32971 0.92894 0.70484 0.0
C223 C 0.31119 0.85958 0.72093 0.0
O224 O 0.29324 0.86313 0.72333 0.0
H225 H 0.2942 0.924 0.66969 0.0
H226 H 0.33851 0.89956 0.70875 0.0
O227 O 0.31416 0.87533 0.64417 0.0
H228 H 0.23916 0.8873 0.69965 0.0
H229 H 0.33939 0.93641 0.71663 0.0
Cu230 Cu 0.13221 0.30874 0.67014 0.0
N231 N 0.134 0.28285 0.67495 0.0
N232 N 0.14624 0.2541 0.67887 0.0
C233 C 0.14963 0.27233 0.67337 0.0
C234 C 0.12773 0.25322 0.68406 0.0
C235 C 0.12026 0.27094 0.68171 0.0
O236 O 0.14751 0.32074 0.69516 0.0
C237 C 0.13243 0.32711 0.62398 0.0
O238 O 0.12032 0.3385 0.63428 0.0
H239 H 0.16326 0.2781 0.66886 0.0
H240 H 0.10585 0.27485 0.68504 0.0
N241 N 0.10728 0.31598 0.67495 0.0
N242 N 0.07594 0.31611 0.67378 0.0
C243 C 0.09179 0.30826 0.66496 0.0
C244 C 0.10101 0.32919 0.6905 0.0
C245 C 0.08173 0.32936 0.68974 0.0
C246 C 0.14893 0.33845 0.69789 0.0
O247 O 0.14161 0.34959 0.68139 0.0
H248 H 0.09215 0.29681 0.65196 0.0
H249 H 0.10976 0.33766 0.7023 0.0
O250 O 0.13987 0.31416 0.63671 0.0
H251 H 0.12004 0.24069 0.68917 0.0
H252 H 0.07266 0.33789 0.70103 0.0
Cu253 Cu 0.69256 0.12739 0.67075 0.0
N254 N 0.7186 0.12748 0.6744 0.0
N255 N 0.74806 0.13831 0.6759 0.0
C256 C 0.73007 0.14216 0.66999 0.0
C257 C 0.74783 0.12048 0.68431 0.0
C258 C 0.72965 0.11387 0.68345 0.0
O259 O 0.68144 0.1434 0.69576 0.0
C260 C 0.67245 0.13111 0.62599 0.0
O261 O 0.6593 0.12131 0.63699 0.0
H262 H 0.72523 0.15543 0.66278 0.0
H263 H 0.72477 0.10034 0.68979 0.0
N264 N 0.68298 0.10325 0.67562 0.0
N265 N 0.68035 0.07207 0.67873 0.0
C266 C 0.69048 0.08652 0.6696 0.0
C267 C 0.66746 0.09924 0.68856 0.0
C268 C 0.66581 0.08004 0.69055 0.0
C269 C 0.68919 0.14448 0.71667 0.0
O270 O 0.70505 0.13564 0.72052 0.0
H271 H 0.7036 0.085 0.65988 0.0
H272 H 0.65834 0.10963 0.69669 0.0
O273 O 0.68717 0.13573 0.63775 0.0
H274 H 0.75981 0.11294 0.69138 0.0
H275 H 0.655 0.07255 0.70047 0.0
Cu276 Cu 0.89271 0.27737 0.39848 0.0
N277 N 0.88429 0.25262 0.4002 0.0
N278 N 0.86564 0.22732 0.4022 0.0
C279 C 0.86647 0.2463 0.40097 0.0
C280 C 0.88371 0.22161 0.40214 0.0
C281 C 0.89513 0.23722 0.40093 0.0
O282 O 0.87718 0.29103 0.37541 0.0
C283 C 0.87672 0.29085 0.44184 0.0
O284 O 0.86099 0.28793 0.42987 0.0
H285 H 0.85442 0.2555 0.40085 0.0
H286 H 0.91031 0.23736 0.40049 0.0
N287 N 0.91706 0.27699 0.38626 0.0
N288 N 0.94767 0.28189 0.3808 0.0
C289 C 0.9332 0.2829 0.39663 0.0
C290 C 0.92154 0.27192 0.36338 0.0
C291 C 0.94039 0.27501 0.35991 0.0
C292 C 0.88372 0.30516 0.36395 0.0
O293 O 0.90044 0.31165 0.36971 0.0
H294 H 0.93418 0.28855 0.41492 0.0
H295 H 0.91159 0.26687 0.34996 0.0
O296 O 0.89224 0.28799 0.43105 0.0
H297 H 0.88842 0.20718 0.40252 0.0
H298 H 0.94815 0.27266 0.34322 0.0
Cu299 Cu 0.72677 0.88432 0.40616 0.0
N300 N 0.7504 0.87382 0.41078 0.0
N301 N 0.77455 0.85396 0.41329 0.0
C302 C 0.75622 0.85601 0.40739 0.0
C303 C 0.78034 0.8712 0.42052 0.0
C304 C 0.76545 0.88332 0.41904 0.0
O305 O 0.71371 0.87175 0.37943 0.0
C306 C 0.71215 0.86822 0.44908 0.0
O307 O 0.7174 0.85247 0.43863 0.0
H308 H 0.74709 0.84481 0.40111 0.0
H309 H 0.76554 0.89811 0.42367 0.0
N310 N 0.73086 0.90925 0.39725 0.0
N311 N 0.72964 0.94052 0.39513 0.0
C312 C 0.72245 0.92491 0.40561 0.0
C313 C 0.74364 0.91513 0.38091 0.0
C314 C 0.74297 0.93442 0.37961 0.0
C315 C 0.70085 0.88042 0.36796 0.0
O316 O 0.69535 0.89687 0.3761 0.0
H317 H 0.71149 0.92485 0.41926 0.0
H318 H 0.75285 0.90596 0.37074 0.0
O319 O 0.71377 0.88354 0.4373 0.0
H320 H 0.79439 0.87496 0.42623 0.0
H321 H 0.75143 0.94324 0.36787 0.0
Cu322 Cu 0.11354 0.7201 0.40057 0.0
N323 N 0.12264 0.74437 0.40592 0.0
N324 N 0.14115 0.76965 0.40993 0.0
C325 C 0.1401 0.75139 0.40302 0.0
C326 C 0.12365 0.77415 0.4173 0.0
C327 C 0.11236 0.75857 0.41492 0.0
O328 O 0.1275 0.70757 0.37482 0.0
C329 C 0.13042 0.70467 0.44235 0.0
O330 O 0.14597 0.70989 0.43137 0.0
H331 H 0.1518 0.74314 0.3965 0.0
H332 H 0.09765 0.75758 0.41959 0.0
N333 N 0.08846 0.7222 0.39124 0.0
N334 N 0.05736 0.71861 0.38967 0.0
C335 C 0.07368 0.71165 0.39829 0.0
C336 C 0.08124 0.73611 0.3776 0.0
C337 C 0.06208 0.73396 0.37664 0.0
C338 C 0.1287 0.71515 0.35386 0.0
O339 O 0.12106 0.7317 0.35039 0.0
H340 H 0.07479 0.6996 0.41022 0.0
H341 H 0.08933 0.74738 0.36952 0.0
O342 O 0.11484 0.7069 0.43143 0.0
H343 H 0.11919 0.78777 0.42383 0.0
H344 H 0.05233 0.74306 0.36723 0.0
Cu345 Cu 0.29663 0.1228 0.41648 0.0
N346 N 0.2707 0.12592 0.41538 0.0
N347 N 0.24327 0.1409 0.41294 0.0
C348 C 0.262 0.14265 0.41591 0.0
C349 C 0.24008 0.12223 0.41081 0.0
C350 C 0.25707 0.11302 0.41227 0.0
O351 O 0.3081 0.14004 0.39311 0.0
C352 C 0.31741 0.11899 0.4612 0.0
O353 O 0.3276 0.10657 0.44948 0.0
H354 H 0.26943 0.15585 0.41798 0.0
H355 H 0.25938 0.09806 0.41052 0.0
N356 N 0.30354 0.09878 0.40615 0.0
N357 N 0.30993 0.06814 0.40354 0.0
C358 C 0.30093 0.08168 0.41629 0.0
C359 C 0.31426 0.09582 0.38636 0.0
C360 C 0.3182 0.07703 0.38469 0.0
C361 C 0.29997 0.14265 0.37267 0.0
O362 O 0.28351 0.13485 0.36873 0.0
H363 H 0.29326 0.07932 0.43304 0.0
H364 H 0.31925 0.10669 0.37422 0.0
O365 O 0.30445 0.12766 0.44993 0.0
H366 H 0.22656 0.11571 0.40753 0.0
H367 H 0.32661 0.0704 0.37071 0.0
Cu368 Cu 0.63545 0.80963 0.90387 0.0
N369 N 0.63594 0.7835 0.90235 0.0
N370 N 0.64647 0.75398 0.9026 0.0
C371 C 0.65118 0.77239 0.90312 0.0
C372 C 0.62755 0.75356 0.90136 0.0
C373 C 0.6211 0.77178 0.90118 0.0
O374 O 0.6533 0.81922 0.88005 0.0
C375 C 0.63357 0.83062 0.9485 0.0
O376 O 0.62223 0.84181 0.93652 0.0
H377 H 0.66538 0.77772 0.90465 0.0
H378 H 0.60661 0.77616 0.90045 0.0
N379 N 0.61156 0.81771 0.89455 0.0
N380 N 0.58056 0.82226 0.89266 0.0
C381 C 0.59494 0.81523 0.90588 0.0
C382 C 0.60752 0.8264 0.87346 0.0
C383 C 0.58851 0.82929 0.87228 0.0
C384 C 0.65459 0.83667 0.87528 0.0
O385 O 0.64531 0.84869 0.88886 0.0
H386 H 0.59344 0.8082 0.92325 0.0
H387 H 0.61762 0.82989 0.85949 0.0
O388 O 0.64114 0.81687 0.93738 0.0
H389 H 0.61896 0.74099 0.90054 0.0
H390 H 0.58105 0.83537 0.85704 0.0
Cu391 Cu 0.19822 0.64241 0.89481 0.0
N392 N 0.22432 0.64254 0.89622 0.0
N393 N 0.25399 0.65284 0.89702 0.0
C394 C 0.23572 0.65763 0.89495 0.0
C395 C 0.25399 0.63395 0.89959 0.0
C396 C 0.23568 0.62766 0.89909 0.0
O397 O 0.19044 0.6611 0.87109 0.0
C398 C 0.19278 0.66135 0.93964 0.0
O399 O 0.20244 0.67481 0.92903 0.0
H400 H 0.23063 0.67186 0.893 0.0
H401 H 0.23099 0.61325 0.90075 0.0
N402 N 0.19031 0.61892 0.88357 0.0
N403 N 0.18553 0.58793 0.88023 0.0
C404 C 0.19146 0.60212 0.89481 0.0
C405 C 0.18349 0.61525 0.86121 0.0
C406 C 0.18049 0.59622 0.85911 0.0
C407 C 0.17342 0.663 0.86452 0.0
O408 O 0.1603 0.65354 0.87608 0.0
H409 H 0.19689 0.60037 0.91308 0.0
H410 H 0.18144 0.62562 0.84709 0.0
O411 O 0.18862 0.64665 0.92749 0.0
H412 H 0.2663 0.62523 0.90149 0.0
H413 H 0.17576 0.58902 0.84283 0.0
Cu414 Cu 0.37173 0.20875 0.92417 0.0
N415 N 0.3533 0.22581 0.93374 0.0
N416 N 0.33283 0.24949 0.93402 0.0
C417 C 0.345 0.23937 0.92048 0.0
C418 C 0.33369 0.24211 0.95663 0.0
C419 C 0.34638 0.22763 0.95642 0.0
O420 O 0.36564 0.19714 0.89287 0.0
C421 C 0.36088 0.18206 0.95981 0.0
O422 O 0.34452 0.18274 0.94882 0.0
H423 H 0.34785 0.24173 0.90136 0.0
H424 H 0.35057 0.21928 0.97191 0.0
N425 N 0.3942 0.22197 0.92143 0.0
N426 N 0.42478 0.22839 0.91812 0.0
C427 C 0.41134 0.21497 0.91671 0.0
C428 C 0.39685 0.2404 0.92589 0.0
C429 C 0.4157 0.2444 0.92387 0.0
C430 C 0.34885 0.19525 0.88525 0.0
O431 O 0.33491 0.20021 0.89948 0.0
H432 H 0.41395 0.20025 0.9131 0.0
H433 H 0.38587 0.25016 0.93075 0.0
O434 O 0.37471 0.19087 0.95056 0.0
H435 H 0.32612 0.24719 0.9724 0.0
H436 H 0.42221 0.25804 0.92643 0.0
Cu437 Cu 0.81376 0.36822 0.89961 0.0
N438 N 0.78804 0.36729 0.89335 0.0
N439 N 0.75852 0.35671 0.89125 0.0
C440 C 0.77614 0.35326 0.89915 0.0
C441 C 0.75944 0.37355 0.88001 0.0
C442 C 0.77767 0.37999 0.88123 0.0
O443 O 0.82616 0.35274 0.87523 0.0
C444 C 0.83331 0.36282 0.94404 0.0
O445 O 0.84729 0.37079 0.93231 0.0
H446 H 0.78036 0.34077 0.90893 0.0
H447 H 0.78305 0.39285 0.87337 0.0
N448 N 0.82222 0.39301 0.89693 0.0
N449 N 0.82266 0.42442 0.89747 0.0
C450 C 0.81273 0.40872 0.90269 0.0
C451 C 0.83879 0.39892 0.88801 0.0
C452 C 0.83913 0.4183 0.88835 0.0
C453 C 0.82436 0.35755 0.853 0.0
O454 O 0.8148 0.37281 0.84789 0.0
H455 H 0.79874 0.4086 0.91036 0.0
H456 H 0.84971 0.38976 0.88127 0.0
O457 O 0.81799 0.35966 0.93279 0.0
H458 H 0.74791 0.38047 0.87091 0.0
H459 H 0.85033 0.42716 0.88156 0.0
Cu460 Cu 0.62341 0.22224 0.17149 0.0
N461 N 0.63103 0.24716 0.17434 0.0
N462 N 0.64893 0.273 0.17472 0.0
C463 C 0.64846 0.25415 0.17156 0.0
C464 C 0.63105 0.27795 0.17967 0.0
C465 C 0.62006 0.26199 0.17939 0.0
O466 O 0.64019 0.20712 0.19137 0.0
C467 C 0.61706 0.20183 0.12619 0.0
O468 O 0.60866 0.18865 0.13895 0.0
H469 H 0.66046 0.24556 0.16701 0.0
H470 H 0.60511 0.26124 0.18268 0.0
N471 N 0.59961 0.22053 0.18538 0.0
N472 N 0.56964 0.21425 0.19375 0.0
C473 C 0.58293 0.21491 0.17621 0.0
C474 C 0.59661 0.22377 0.20921 0.0
C475 C 0.5782 0.21987 0.21444 0.0
C476 C 0.63422 0.19238 0.20205 0.0
O477 O 0.61748 0.18582 0.19656 0.0
H478 H 0.58071 0.21082 0.15742 0.0
H479 H 0.60731 0.22823 0.22198 0.0
O480 O 0.62396 0.21613 0.13697 0.0
H481 H 0.62623 0.29204 0.18358 0.0
H482 H 0.5716 0.22099 0.23215 0.0
Cu483 Cu 0.77658 0.61625 0.16938 0.0
N484 N 0.75255 0.6262 0.16549 0.0
N485 N 0.72797 0.64554 0.16298 0.0
C486 C 0.74653 0.64405 0.16788 0.0
C487 C 0.72225 0.62794 0.15731 0.0
C488 C 0.73741 0.61613 0.15878 0.0
O489 O 0.79048 0.62847 0.19563 0.0
C490 C 0.79075 0.63276 0.12631 0.0
O491 O 0.78567 0.64849 0.13696 0.0
H492 H 0.75562 0.65566 0.17283 0.0
H493 H 0.73741 0.60118 0.15518 0.0
N494 N 0.77375 0.59116 0.1782 0.0
N495 N 0.77702 0.56003 0.18024 0.0
C496 C 0.78322 0.57612 0.16989 0.0
C497 C 0.7613 0.58442 0.19442 0.0
C498 C 0.76323 0.56522 0.19567 0.0
C499 C 0.78215 0.63304 0.2153 0.0
O500 O 0.76388 0.63087 0.21683 0.0
H501 H 0.7942 0.57694 0.15632 0.0
H502 H 0.75146 0.59292 0.20456 0.0
O503 O 0.78905 0.61738 0.13792 0.0
H504 H 0.70807 0.62374 0.15273 0.0
H505 H 0.75529 0.55583 0.20729 0.0
Cu506 Cu 0.38638 0.78534 0.17835 0.0
N507 N 0.37893 0.76027 0.18044 0.0
N508 N 0.36112 0.73433 0.17949 0.0
C509 C 0.36166 0.75318 0.17636 0.0
C510 C 0.37878 0.72949 0.18579 0.0
C511 C 0.3897 0.7455 0.18634 0.0
O512 O 0.37112 0.79947 0.20148 0.0
C513 C 0.39026 0.80729 0.13403 0.0
O514 O 0.39969 0.81967 0.14699 0.0
H515 H 0.34983 0.76171 0.17096 0.0
H516 H 0.40447 0.74634 0.19083 0.0
N517 N 0.41125 0.78694 0.189 0.0
N518 N 0.44186 0.79305 0.19258 0.0
C519 C 0.42716 0.79166 0.1771 0.0
C520 C 0.41622 0.78498 0.21251 0.0
C521 C 0.43503 0.78885 0.21481 0.0
C522 C 0.3773 0.81449 0.21137 0.0
O523 O 0.3929 0.82202 0.20308 0.0
H524 H 0.42782 0.7948 0.15783 0.0
H525 H 0.40659 0.78161 0.22711 0.0
O526 O 0.38343 0.7928 0.1444 0.0
H527 H 0.38348 0.71544 0.1901 0.0
H528 H 0.44304 0.78893 0.23158 0.0
Cu529 Cu 0.21987 0.38843 0.16845 0.0
N530 N 0.2445 0.37992 0.16735 0.0
N531 N 0.26967 0.36141 0.16541 0.0
C532 C 0.25084 0.36212 0.16828 0.0
C533 C 0.27528 0.37943 0.1627 0.0
C534 C 0.25974 0.39078 0.16387 0.0
O535 O 0.20661 0.37419 0.19351 0.0
C536 C 0.19554 0.39284 0.12599 0.0
O537 O 0.18402 0.40259 0.13971 0.0
H538 H 0.24179 0.34997 0.1703 0.0
H539 H 0.25951 0.40591 0.16197 0.0
N540 N 0.22118 0.41355 0.17826 0.0
N541 N 0.21959 0.44484 0.1804 0.0
C542 C 0.21523 0.42936 0.16721 0.0
C543 C 0.22951 0.41927 0.19901 0.0
C544 C 0.2286 0.43853 0.20037 0.0
C545 C 0.19356 0.38173 0.20594 0.0
O546 O 0.18739 0.39839 0.19954 0.0
H547 H 0.20821 0.42961 0.14973 0.0
H548 H 0.23589 0.40997 0.21218 0.0
O549 O 0.21016 0.38562 0.1354 0.0
H550 H 0.28961 0.38411 0.16007 0.0
H551 H 0.23389 0.44721 0.21509 0.0
Cu552 Cu 0.37772 0.20187 0.18095 0.0
N553 N 0.3732 0.22698 0.17386 0.0
N554 N 0.35929 0.25456 0.16718 0.0
C555 C 0.35689 0.23647 0.17413 0.0
C556 C 0.37781 0.25639 0.1625 0.0
C557 C 0.38631 0.23938 0.1666 0.0
O558 O 0.35989 0.19281 0.20506 0.0
C559 C 0.36172 0.18491 0.13942 0.0
O560 O 0.3459 0.18987 0.14986 0.0
H561 H 0.34355 0.23016 0.17892 0.0
H562 H 0.40105 0.23623 0.16443 0.0
N563 N 0.4015 0.20059 0.19487 0.0
N564 N 0.43242 0.19852 0.20041 0.0
C565 C 0.41829 0.1984 0.18398 0.0
C566 C 0.40516 0.20238 0.21881 0.0
C567 C 0.42418 0.20102 0.22231 0.0
C568 C 0.36374 0.17804 0.21711 0.0
O569 O 0.37849 0.16811 0.21087 0.0
H570 H 0.42008 0.19678 0.16451 0.0
H571 H 0.39467 0.20471 0.23271 0.0
O572 O 0.37709 0.18795 0.15056 0.0
H573 H 0.38481 0.26918 0.15681 0.0
H574 H 0.43144 0.20228 0.23957 0.0
Cu575 Cu 0.81382 0.3721 0.16996 0.0
N576 N 0.78779 0.37143 0.17364 0.0
N577 N 0.75838 0.36051 0.17417 0.0
C578 C 0.77636 0.35695 0.16802 0.0
C579 C 0.75852 0.37793 0.18395 0.0
C580 C 0.77669 0.38459 0.1837 0.0
O581 O 0.82596 0.35776 0.19595 0.0
C582 C 0.83444 0.3664 0.12615 0.0
O583 O 0.84779 0.37582 0.13739 0.0
H584 H 0.78124 0.34398 0.15992 0.0
H585 H 0.78154 0.39785 0.19109 0.0
N586 N 0.82204 0.39694 0.17225 0.0
N587 N 0.82209 0.42832 0.17126 0.0
C588 C 0.81287 0.41242 0.16491 0.0
C589 C 0.83772 0.40318 0.18332 0.0
C590 C 0.83782 0.42255 0.1827 0.0
C591 C 0.81712 0.35279 0.21512 0.0
O592 O 0.79914 0.35639 0.21698 0.0
H593 H 0.79949 0.41201 0.15558 0.0
H594 H 0.84803 0.39426 0.19193 0.0
O595 O 0.81934 0.36261 0.13751 0.0
H596 H 0.74651 0.38506 0.19162 0.0
H597 H 0.84819 0.43165 0.19108 0.0
Cu598 Cu 0.63201 0.81207 0.17611 0.0
N599 N 0.63281 0.78596 0.17766 0.0
N600 N 0.64396 0.75669 0.17662 0.0
C601 C 0.64824 0.77519 0.17586 0.0
C602 C 0.62513 0.75584 0.17907 0.0
C603 C 0.6183 0.77392 0.17976 0.0
O604 O 0.64975 0.82175 0.2001 0.0
C605 C 0.63041 0.83256 0.13114 0.0
O606 O 0.61855 0.84359 0.14254 0.0
H607 H 0.66224 0.78083 0.1734 0.0
H608 H 0.60375 0.77798 0.18145 0.0
N609 N 0.60798 0.8201 0.18499 0.0
N610 N 0.57685 0.8238 0.18709 0.0
C611 C 0.5913 0.81638 0.17432 0.0
C612 C 0.60393 0.83006 0.20514 0.0
C613 C 0.58485 0.83241 0.20645 0.0
C614 C 0.65173 0.83922 0.20441 0.0
O615 O 0.64298 0.85137 0.19047 0.0
H616 H 0.58981 0.80817 0.15781 0.0
H617 H 0.61408 0.83477 0.21847 0.0
O618 O 0.63808 0.81912 0.14271 0.0
H619 H 0.61687 0.74307 0.18036 0.0
H620 H 0.57742 0.83923 0.22118 0.0
Cu621 Cu 0.19513 0.63555 0.16503 0.0
N622 N 0.22107 0.63697 0.17003 0.0
N623 N 0.25025 0.64852 0.17266 0.0
C624 C 0.23241 0.65175 0.16545 0.0
C625 C 0.25007 0.63106 0.18223 0.0
C626 C 0.23207 0.62404 0.18072 0.0
O627 O 0.18301 0.65125 0.18943 0.0
C628 C 0.19047 0.65838 0.12194 0.0
O629 O 0.19544 0.67285 0.13542 0.0
H630 H 0.22762 0.66468 0.15726 0.0
H631 H 0.22726 0.61069 0.18774 0.0
N632 N 0.1868 0.61086 0.16928 0.0
N633 N 0.1855 0.57948 0.16911 0.0
C634 C 0.19583 0.59486 0.16357 0.0
C635 C 0.17012 0.60545 0.17842 0.0
C636 C 0.16928 0.58609 0.17836 0.0
C637 C 0.18565 0.64661 0.21158 0.0
O638 O 0.19611 0.63187 0.21625 0.0
H639 H 0.20963 0.59449 0.15539 0.0
H640 H 0.15941 0.61496 0.18488 0.0
O641 O 0.18919 0.64218 0.13157 0.0
H642 H 0.26192 0.62412 0.19059 0.0
H643 H 0.15784 0.57756 0.18522 0.0
Cu644 Cu 0.38937 0.78938 0.90552 0.0
N645 N 0.38278 0.76416 0.90278 0.0
N646 N 0.36555 0.73792 0.90055 0.0
C647 C 0.36533 0.75689 0.90186 0.0
C648 C 0.38388 0.73316 0.90062 0.0
C649 C 0.39446 0.74938 0.90198 0.0
O650 O 0.37295 0.80334 0.88365 0.0
C651 C 0.39296 0.81042 0.95084 0.0
O652 O 0.40188 0.82348 0.93847 0.0
H653 H 0.35276 0.76536 0.90267 0.0
H654 H 0.40961 0.75036 0.90248 0.0
N655 N 0.41392 0.79182 0.89408 0.0
N656 N 0.44434 0.7983 0.88955 0.0
C657 C 0.42996 0.79686 0.90548 0.0
C658 C 0.41848 0.78968 0.87046 0.0
C659 C 0.43717 0.7938 0.86757 0.0
C660 C 0.37851 0.81799 0.8724 0.0
O661 O 0.39478 0.82552 0.87819 0.0
H662 H 0.43097 0.80003 0.92473 0.0
H663 H 0.40865 0.78589 0.85622 0.0
O664 O 0.38669 0.79594 0.93982 0.0
H665 H 0.38929 0.71899 0.89958 0.0
H666 H 0.44491 0.7937 0.85059 0.0
Cu667 Cu 0.21268 0.39596 0.89795 0.0
N668 N 0.23663 0.38587 0.89561 0.0
N669 N 0.25977 0.36485 0.89718 0.0
C670 C 0.24125 0.36796 0.90039 0.0
C671 C 0.26703 0.38152 0.89004 0.0
C672 C 0.25271 0.39448 0.88915 0.0
O673 O 0.19721 0.38163 0.87519 0.0
C674 C 0.19137 0.40026 0.9432 0.0
O675 O 0.17883 0.40999 0.93109 0.0
H676 H 0.23115 0.35742 0.90596 0.0
H677 H 0.25398 0.40916 0.88434 0.0
N678 N 0.21378 0.42075 0.88694 0.0
N679 N 0.2091 0.4514 0.88125 0.0
C680 C 0.20792 0.43697 0.89717 0.0
C681 C 0.21898 0.42521 0.86411 0.0
C682 C 0.21605 0.44405 0.8605 0.0
C683 C 0.18412 0.38922 0.86288 0.0
O684 O 0.17873 0.40632 0.86851 0.0
H685 H 0.20209 0.43804 0.91531 0.0
H686 H 0.22385 0.4152 0.85069 0.0
O687 O 0.20551 0.39354 0.93207 0.0
H688 H 0.28169 0.38428 0.88627 0.0
H689 H 0.21843 0.45173 0.84376 0.0
Cu690 Cu 0.61778 0.22514 0.89852 0.0
N691 N 0.62578 0.24994 0.89545 0.0
N692 N 0.64437 0.27531 0.89441 0.0
C693 C 0.64336 0.25657 0.89837 0.0
C694 C 0.62668 0.28055 0.8888 0.0
C695 C 0.61527 0.26488 0.88947 0.0
O696 O 0.63327 0.21001 0.87697 0.0
C697 C 0.61253 0.20435 0.94315 0.0
O698 O 0.60222 0.1926 0.93033 0.0
H699 H 0.65507 0.24778 0.90344 0.0
H700 H 0.60039 0.26437 0.88564 0.0
N701 N 0.59299 0.22381 0.88768 0.0
N702 N 0.56174 0.22224 0.88576 0.0
C703 C 0.5769 0.22324 0.90054 0.0
C704 C 0.58781 0.2235 0.8641 0.0
C705 C 0.56858 0.2224 0.86285 0.0
C706 C 0.62714 0.19511 0.86678 0.0
O707 O 0.61069 0.18834 0.87317 0.0
H708 H 0.57633 0.22339 0.92025 0.0
H709 H 0.59743 0.22404 0.84888 0.0
O710 O 0.62027 0.21831 0.93265 0.0
H711 H 0.62229 0.29461 0.88405 0.0
H712 H 0.56024 0.22212 0.84635 0.0
Cu713 Cu 0.77892 0.61285 0.9018 0.0
N714 N 0.7549 0.62279 0.9053 0.0
N715 N 0.73046 0.64231 0.90777 0.0
C716 C 0.74901 0.64067 0.90289 0.0
C717 C 0.7246 0.62475 0.91331 0.0
C718 C 0.73967 0.61282 0.91185 0.0
O719 O 0.79237 0.62596 0.87596 0.0
C720 C 0.79281 0.62962 0.94477 0.0
O721 O 0.78807 0.64521 0.9336 0.0
H722 H 0.75822 0.65222 0.89815 0.0
H723 H 0.73958 0.59788 0.91544 0.0
N724 N 0.7759 0.58783 0.89239 0.0
N725 N 0.77829 0.55662 0.88962 0.0
C726 C 0.78446 0.57234 0.90101 0.0
C727 C 0.76407 0.58173 0.87497 0.0
C728 C 0.76545 0.5625 0.87326 0.0
C729 C 0.80583 0.6178 0.86501 0.0
O730 O 0.81158 0.60143 0.87306 0.0
H731 H 0.79484 0.5726 0.91542 0.0
H732 H 0.75506 0.59071 0.86427 0.0
O733 O 0.7911 0.61406 0.93349 0.0
H734 H 0.7104 0.62068 0.91791 0.0
H735 H 0.75784 0.55357 0.86065 0.0
H736 H 0.20567 0.13931 0.42156 0.0
H737 H 0.19033 0.24806 0.38966 0.0
H738 H 0.25001 0.17702 0.3992 0.0
H739 H 0.14508 0.21025 0.40835 0.0
H740 H 0.21246 0.22225 0.39421 0.0
H741 H 0.18323 0.16506 0.41749 0.0
C742 C 0.2107 0.15295 0.41574 0.0
C743 C 0.22982 0.15594 0.41084 0.0
C744 C 0.19769 0.21958 0.39733 0.0
C745 C 0.20422 0.18556 0.40631 0.0
C746 C 0.18503 0.23437 0.39487 0.0
C747 C 0.16577 0.23138 0.39863 0.0
C748 C 0.1911 0.2016 0.40367 0.0
C749 C 0.15975 0.21319 0.40497 0.0
C750 C 0.19789 0.16768 0.41352 0.0
C751 C 0.23553 0.17403 0.40362 0.0
N752 N 0.17236 0.19901 0.40732 0.0
N753 N 0.22281 0.1881 0.40158 0.0
H754 H 0.79061 0.13244 0.4103 0.0
H755 H 0.83 0.23637 0.38845 0.0
H756 H 0.75502 0.1795 0.39317 0.0
H757 H 0.86318 0.19118 0.41811 0.0
H758 H 0.80248 0.21585 0.3893 0.0
H759 H 0.81756 0.15372 0.41212 0.0
C760 C 0.78848 0.14726 0.40689 0.0
C761 C 0.77055 0.15419 0.4015 0.0
C762 C 0.81579 0.21047 0.39569 0.0
C763 C 0.80134 0.17869 0.4036 0.0
C764 C 0.83155 0.22222 0.39531 0.0
C765 C 0.84909 0.21555 0.40311 0.0
C766 C 0.81756 0.19185 0.4038 0.0
C767 C 0.85013 0.19692 0.41149 0.0
C768 C 0.80384 0.15943 0.40806 0.0
C769 C 0.76855 0.17358 0.3976 0.0
N770 N 0.83463 0.18575 0.41152 0.0
N771 N 0.78378 0.18514 0.39857 0.0
H772 H 0.86671 0.77678 0.42003 0.0
H773 H 0.76738 0.82171 0.3877 0.0
H774 H 0.82145 0.74425 0.38888 0.0
H775 H 0.80757 0.84732 0.43667 0.0
H776 H 0.78731 0.79385 0.38548 0.0
H777 H 0.84578 0.80373 0.42326 0.0
C778 C 0.85237 0.77535 0.41377 0.0
C779 C 0.84582 0.75828 0.40412 0.0
C780 C 0.79168 0.8056 0.39673 0.0
C781 C 0.8217 0.78906 0.40783 0.0
C782 C 0.78027 0.82152 0.3981 0.0
C783 C 0.78578 0.8371 0.41224 0.0
C784 C 0.80879 0.8053 0.40944 0.0
C785 C 0.80281 0.83596 0.4251 0.0
C786 C 0.84038 0.79069 0.41577 0.0
C787 C 0.827 0.75712 0.39661 0.0
N788 N 0.81371 0.82043 0.42327 0.0
N789 N 0.8156 0.77235 0.39849 0.0
H790 H 0.1464 0.80135 0.43685 0.0
H791 H 0.24884 0.82352 0.38487 0.0
H792 H 0.1733 0.76604 0.38326 0.0
H793 H 0.2148 0.86367 0.42357 0.0
H794 H 0.22297 0.80069 0.38721 0.0
H795 H 0.17301 0.82271 0.43531 0.0
C796 C 0.15781 0.79808 0.4246 0.0
C797 C 0.15737 0.7819 0.4099 0.0
C798 C 0.2212 0.81452 0.39515 0.0
C799 C 0.18827 0.80637 0.40839 0.0
C800 C 0.23597 0.82749 0.39394 0.0
C801 C 0.23393 0.84555 0.40396 0.0
C802 C 0.20438 0.81958 0.40672 0.0
C803 C 0.21689 0.85003 0.4153 0.0
C804 C 0.17311 0.81031 0.42384 0.0
C805 C 0.17298 0.77827 0.39498 0.0
N806 N 0.20283 0.83714 0.41643 0.0
N807 N 0.18779 0.79044 0.39456 0.0
H808 H 0.15945 0.78839 0.69166 0.0
H809 H 0.25013 0.842 0.64036 0.0
H810 H 0.17881 0.78412 0.61745 0.0
H811 H 0.22304 0.85778 0.70756 0.0
H812 H 0.22575 0.81833 0.63356 0.0
H813 H 0.18445 0.81147 0.69988 0.0
C814 C 0.16902 0.79224 0.67718 0.0
C815 C 0.16698 0.78446 0.6538 0.0
C816 C 0.2251 0.82699 0.64979 0.0
C817 C 0.1955 0.81071 0.66299 0.0
C818 C 0.23907 0.84043 0.65372 0.0
C819 C 0.2386 0.85189 0.67453 0.0
C820 C 0.2106 0.82482 0.66689 0.0
C821 C 0.22381 0.8494 0.69113 0.0
C822 C 0.18317 0.80547 0.6818 0.0
C823 C 0.17967 0.78999 0.63561 0.0
N824 N 0.21042 0.83606 0.68701 0.0
N825 N 0.19339 0.80272 0.64059 0.0
H826 H 0.24386 0.18347 0.66286 0.0
H827 H 0.14308 0.22125 0.70394 0.0
H828 H 0.20431 0.15098 0.70504 0.0
H829 H 0.18011 0.25197 0.65599 0.0
H830 H 0.16566 0.1957 0.70514 0.0
H831 H 0.22118 0.20911 0.66105 0.0
C832 C 0.23045 0.18174 0.67183 0.0
C833 C 0.22602 0.16501 0.68415 0.0
C834 C 0.16885 0.20802 0.69432 0.0
C835 C 0.1999 0.1943 0.682 0.0
C836 C 0.15588 0.22263 0.6935 0.0
C837 C 0.15959 0.23888 0.67977 0.0
C838 C 0.18577 0.20959 0.68137 0.0
C839 C 0.17667 0.23987 0.66704 0.0
C840 C 0.21746 0.19636 0.67067 0.0
C841 C 0.20828 0.16349 0.69511 0.0
N842 N 0.18911 0.22545 0.66816 0.0
N843 N 0.19592 0.17795 0.69383 0.0
H844 H 0.78471 0.12862 0.67179 0.0
H845 H 0.8216 0.23513 0.66863 0.0
H846 H 0.74802 0.17658 0.67683 0.0
H847 H 0.85751 0.18661 0.66336 0.0
H848 H 0.7945 0.21415 0.67313 0.0
H849 H 0.81159 0.14986 0.66982 0.0
C850 C 0.78229 0.14361 0.67261 0.0
C851 C 0.76403 0.15078 0.67446 0.0
C852 C 0.80833 0.20812 0.67102 0.0
C853 C 0.79483 0.17529 0.67201 0.0
C854 C 0.82382 0.2201 0.66861 0.0
C855 C 0.84186 0.21264 0.66544 0.0
C856 C 0.81091 0.18855 0.67033 0.0
C857 C 0.84385 0.19301 0.66531 0.0
C858 C 0.79766 0.15576 0.67137 0.0
C859 C 0.76178 0.1704 0.67507 0.0
N860 N 0.82859 0.18168 0.66766 0.0
N861 N 0.777 0.18196 0.67386 0.0
H862 H 0.8227 0.74547 0.68462 0.0
H863 H 0.81077 0.85365 0.6488 0.0
H864 H 0.86861 0.7817 0.66378 0.0
H865 H 0.76788 0.82206 0.68659 0.0
H866 H 0.831 0.82624 0.64999 0.0
H867 H 0.80125 0.77219 0.68108 0.0
C868 C 0.82823 0.759 0.67913 0.0
C869 C 0.84748 0.7614 0.67459 0.0
C870 C 0.81716 0.82531 0.65803 0.0
C871 C 0.82309 0.79196 0.67054 0.0
C872 C 0.80557 0.84103 0.65748 0.0
C873 C 0.78756 0.84036 0.66787 0.0
C874 C 0.81074 0.80865 0.66889 0.0
C875 C 0.78155 0.8233 0.67824 0.0
C876 C 0.81602 0.77426 0.67726 0.0
C877 C 0.85394 0.77929 0.66778 0.0
N878 N 0.79313 0.80814 0.67853 0.0
N879 N 0.84178 0.79386 0.66593 0.0
H880 H 0.63884 0.71971 0.92169 0.0
H881 H 0.73759 0.6753 0.88406 0.0
H882 H 0.68249 0.75189 0.88652 0.0
H883 H 0.69736 0.64804 0.93119 0.0
H884 H 0.71756 0.70316 0.88328 0.0
H885 H 0.6598 0.69276 0.92334 0.0
C886 C 0.65282 0.72108 0.91419 0.0
C887 C 0.65889 0.73807 0.90388 0.0
C888 C 0.71318 0.69105 0.89381 0.0
C889 C 0.68311 0.70722 0.90583 0.0
C890 C 0.72465 0.67514 0.89435 0.0
C891 C 0.71916 0.65913 0.90755 0.0
C892 C 0.69606 0.69093 0.90648 0.0
C893 C 0.70209 0.6598 0.92033 0.0
C894 C 0.66485 0.70571 0.91529 0.0
C895 C 0.6773 0.7391 0.89481 0.0
N896 N 0.69116 0.67536 0.91939 0.0
N897 N 0.68874 0.72386 0.89589 0.0
H898 H 0.25636 0.68802 0.87774 0.0
H899 H 0.36398 0.70171 0.91603 0.0
H900 H 0.28856 0.64621 0.91623 0.0
H901 H 0.3306 0.74542 0.88334 0.0
H902 H 0.33681 0.68074 0.91468 0.0
H903 H 0.28359 0.70891 0.87845 0.0
C904 C 0.26908 0.68322 0.88645 0.0
C905 C 0.27007 0.66526 0.89698 0.0
C906 C 0.33542 0.69492 0.9078 0.0
C907 C 0.30146 0.68912 0.89758 0.0
C908 C 0.35098 0.70688 0.90842 0.0
C909 C 0.34961 0.72538 0.89978 0.0
C910 C 0.31832 0.70145 0.89837 0.0
C911 C 0.33226 0.73137 0.89048 0.0
C912 C 0.28469 0.69515 0.88673 0.0
C913 C 0.28713 0.65978 0.90761 0.0
N914 N 0.31732 0.71943 0.88999 0.0
N915 N 0.30212 0.67165 0.90765 0.0
H916 H 0.34069 0.27466 0.89816 0.0
H917 H 0.24984 0.33649 0.92762 0.0
H918 H 0.29957 0.26055 0.95288 0.0
H919 H 0.2925 0.35359 0.87637 0.0
H920 H 0.26696 0.3075 0.93487 0.0
H921 H 0.32228 0.30248 0.88756 0.0
C922 C 0.32772 0.27731 0.90778 0.0
C923 C 0.32173 0.26534 0.92656 0.0
C924 C 0.27259 0.31756 0.92198 0.0
C925 C 0.3007 0.29717 0.9147 0.0
C926 C 0.26273 0.3341 0.91771 0.0
C927 C 0.26971 0.34755 0.90134 0.0
C928 C 0.2896 0.31434 0.9098 0.0
C929 C 0.28671 0.34375 0.88936 0.0
C930 C 0.31728 0.29325 0.90184 0.0
C931 C 0.30489 0.26956 0.93859 0.0
N932 N 0.29608 0.3275 0.89384 0.0
N933 N 0.29501 0.28512 0.93249 0.0
H934 H 0.64571 0.31329 0.90037 0.0
H935 H 0.75784 0.31859 0.89447 0.0
H936 H 0.68097 0.26462 0.89078 0.0
H937 H 0.72202 0.36731 0.89275 0.0
H938 H 0.72998 0.29847 0.89669 0.0
H939 H 0.67363 0.33316 0.90072 0.0
C940 C 0.65927 0.30673 0.89823 0.0
C941 C 0.66086 0.28717 0.8954 0.0
C942 C 0.72822 0.31357 0.89586 0.0
C943 C 0.69306 0.30995 0.89612 0.0
C944 C 0.74413 0.32507 0.89476 0.0
C945 C 0.74227 0.34468 0.89335 0.0
C946 C 0.7103 0.32172 0.89569 0.0
C947 C 0.72412 0.35227 0.89347 0.0
C948 C 0.67526 0.31812 0.89856 0.0
C949 C 0.67896 0.27955 0.89324 0.0
N950 N 0.70886 0.34079 0.89462 0.0
N951 N 0.69432 0.29095 0.8936 0.0
H952 H 0.68571 0.2636 0.1802 0.0
H953 H 0.72173 0.36988 0.16931 0.0
H954 H 0.64921 0.31063 0.16597 0.0
H955 H 0.75882 0.32233 0.17528 0.0
H956 H 0.69493 0.34836 0.16835 0.0
H957 H 0.71266 0.2848 0.17843 0.0
C958 C 0.68332 0.27833 0.17652 0.0
C959 C 0.66506 0.28529 0.17331 0.0
C960 C 0.70894 0.34261 0.16976 0.0
C961 C 0.69595 0.30973 0.17156 0.0
C962 C 0.72424 0.35491 0.17043 0.0
C963 C 0.74255 0.34791 0.17244 0.0
C964 C 0.71194 0.32315 0.17128 0.0
C965 C 0.74498 0.32835 0.17347 0.0
C966 C 0.69875 0.29046 0.17563 0.0
C967 C 0.66292 0.30462 0.16896 0.0
N968 N 0.72985 0.31666 0.17301 0.0
N969 N 0.67816 0.31615 0.16828 0.0
H970 H 0.69472 0.65112 0.13984 0.0
H971 H 0.68052 0.75547 0.19062 0.0
H972 H 0.73471 0.67825 0.18764 0.0
H973 H 0.63656 0.72234 0.15741 0.0
H974 H 0.70188 0.72872 0.1865 0.0
H975 H 0.67458 0.67849 0.14291 0.0
C976 C 0.69928 0.66276 0.15111 0.0
C977 C 0.71642 0.66217 0.16374 0.0
C978 C 0.68755 0.72732 0.18015 0.0
C979 C 0.69337 0.69389 0.16701 0.0
C980 C 0.67539 0.74261 0.18237 0.0
C981 C 0.65671 0.74111 0.1744 0.0
C982 C 0.68102 0.71051 0.16964 0.0
C983 C 0.65075 0.72404 0.16409 0.0
C984 C 0.68775 0.67847 0.15276 0.0
C985 C 0.7217 0.67804 0.17749 0.0
N986 N 0.66287 0.70945 0.16195 0.0
N987 N 0.71019 0.69323 0.17881 0.0
H988 H 0.24938 0.68677 0.17311 0.0
H989 H 0.36135 0.69665 0.17092 0.0
H990 H 0.28717 0.63958 0.17035 0.0
H991 H 0.32407 0.74356 0.18212 0.0
H992 H 0.33423 0.67582 0.16799 0.0
H993 H 0.27641 0.70806 0.17326 0.0
C994 C 0.26334 0.68087 0.17232 0.0
C995 C 0.26599 0.66132 0.1718 0.0
C996 C 0.33197 0.69068 0.17106 0.0
C997 C 0.29703 0.68564 0.17219 0.0
C998 C 0.3475 0.70261 0.17288 0.0
C999 C 0.3451 0.72195 0.17695 0.0
C1000 C 0.31381 0.69808 0.17327 0.0
C1001 C 0.32668 0.72882 0.17878 0.0
C1002 C 0.27878 0.69305 0.17257 0.0
C1003 C 0.28445 0.65452 0.17112 0.0
N1004 N 0.31177 0.7169 0.17699 0.0
N1005 N 0.29924 0.66664 0.17134 0.0
H1006 H 0.26386 0.32784 0.18795 0.0
H1007 H 0.36033 0.28524 0.138 0.0
H1008 H 0.30228 0.35736 0.14071 0.0
H1009 H 0.3261 0.25704 0.19161 0.0
H1010 H 0.33759 0.3106 0.13646 0.0
H1011 H 0.28479 0.30054 0.18712 0.0
C1012 C 0.27661 0.32854 0.17729 0.0
C1013 C 0.28141 0.34497 0.16455 0.0
C1014 C 0.335 0.29887 0.14857 0.0
C1015 C 0.30539 0.3139 0.16356 0.0
C1016 C 0.34806 0.28439 0.14955 0.0
C1017 C 0.34528 0.26905 0.16519 0.0
C1018 C 0.31893 0.2981 0.16333 0.0
C1019 C 0.3288 0.26854 0.17923 0.0
C1020 C 0.28859 0.313 0.17692 0.0
C1021 C 0.29818 0.34515 0.15117 0.0
N1022 N 0.31629 0.28292 0.17808 0.0
N1023 N 0.30953 0.32989 0.15106 0.0
H1024 H 0.96969 0.27643 0.42048 0.0
H1025 H 0.05579 0.33227 0.36153 0.0
H1026 H 0.96869 0.30168 0.34921 0.0
H1027 H 0.06455 0.28718 0.41278 0.0
H1028 H 0.0221 0.32691 0.36404 0.0
H1029 H 1.00299 0.28568 0.42457 0.0
C1030 C 0.97647 0.2841 0.40588 0.0
C1031 C 0.96663 0.2882 0.3844 0.0
C1032 C 0.0314 0.31826 0.37486 0.0
C1033 C 0.00421 0.29896 0.38902 0.0
C1034 C 0.05066 0.32125 0.37337 0.0
C1035 C 0.06312 0.30986 0.3865 0.0
C1036 C 0.02439 0.30388 0.38976 0.0
C1037 C 0.05551 0.29624 0.40224 0.0
C1038 C 0.99538 0.28927 0.40815 0.0
C1039 C 0.97592 0.29807 0.36589 0.0
N1040 N 0.03659 0.2935 0.40328 0.0
N1041 N 0.99416 0.30315 0.36864 0.0
H1042 H 0.66652 0.04314 0.40109 0.0
H1043 H 0.75185 0.97138 0.39291 0.0
H1044 H 0.72464 0.06022 0.4038 0.0
H1045 H 0.6949 0.95349 0.40623 0.0
H1046 H 0.74201 0.00407 0.39688 0.0
H1047 H 0.67635 0.01023 0.4031 0.0
C1048 C 0.68134 0.03996 0.40222 0.0
C1049 C 0.69478 0.05444 0.40217 0.0
C1050 C 0.73166 0.99302 0.39912 0.0
C1051 C 0.70614 0.01688 0.40441 0.0
C1052 C 0.73726 0.97436 0.3967 0.0
C1053 C 0.72414 0.95973 0.39907 0.0
C1054 C 0.71272 0.99713 0.40364 0.0
C1055 C 0.70546 0.96437 0.40439 0.0
C1056 C 0.68694 0.0212 0.40349 0.0
C1057 C 0.71379 0.04954 0.40399 0.0
N1058 N 0.70025 0.98269 0.40626 0.0
N1059 N 0.7189 0.03118 0.4048 0.0
H1060 H 0.04606 0.68228 0.39342 0.0
H1061 H 0.93829 0.70999 0.41262 0.0
H1062 H 0.02608 0.73934 0.39604 0.0
H1063 H 0.95534 0.65614 0.38425 0.0
H1064 H 0.97127 0.71941 0.41529 0.0
H1065 H 0.01358 0.67104 0.39828 0.0
C1066 C 0.03485 0.6924 0.39528 0.0
C1067 C 0.03866 0.71173 0.39409 0.0
C1068 C 0.9678 0.70546 0.40869 0.0
C1069 C 1.00172 0.6991 0.39979 0.0
C1070 C 0.94899 0.70002 0.40737 0.0
C1071 C 0.94409 0.68228 0.39809 0.0
C1072 C 0.98182 0.69302 0.4009 0.0
C1073 C 0.95855 0.67002 0.39123 0.0
C1074 C 0.01637 0.68601 0.39792 0.0
C1075 C 0.02366 0.72432 0.39647 0.0
N1076 N 0.97679 0.67563 0.3927 0.0
N1077 N 0.00586 0.71779 0.39921 0.0
H1078 H 0.34245 0.95447 0.38571 0.0
H1079 H 0.28311 0.04503 0.42248 0.0
H1080 H 0.28807 0.95009 0.41948 0.0
H1081 H 0.3401 0.04619 0.3963 0.0
H1082 H 0.28499 0.01052 0.42548 0.0
H1083 H 0.34238 0.98822 0.39308 0.0
C1084 C 0.33052 0.9607 0.39484 0.0
C1085 C 0.31518 0.9496 0.40177 0.0
C1086 C 0.29714 0.01839 0.41937 0.0
C1087 C 0.31479 0.98837 0.41013 0.0
C1088 C 0.29608 0.03803 0.41776 0.0
C1089 C 0.31136 0.04837 0.40871 0.0
C1090 C 0.31362 0.00918 0.41193 0.0
C1091 C 0.32785 0.03871 0.4028 0.0
C1092 C 0.33047 0.97997 0.39913 0.0
C1093 C 0.30017 0.95825 0.41389 0.0
N1094 N 0.32847 0.01972 0.40431 0.0
N1095 N 0.3002 0.97724 0.41739 0.0
H1096 H 0.02986 0.75127 0.65442 0.0
H1097 H 0.96243 0.66496 0.68853 0.0
H1098 H 0.05005 0.69727 0.67844 0.0
H1099 H 0.94235 0.71859 0.66308 0.0
H1100 H 0.99466 0.67611 0.68343 0.0
H1101 H 0.99777 0.73921 0.65619 0.0
C1102 C 0.02757 0.73689 0.66014 0.0
C1103 C 0.04273 0.72532 0.66641 0.0
C1104 C 0.98321 0.68542 0.67883 0.0
C1105 C 0.00593 0.71133 0.66827 0.0
C1106 C 0.96479 0.67907 0.68183 0.0
C1107 C 0.94962 0.69087 0.67635 0.0
C1108 C 0.98654 0.70375 0.67038 0.0
C1109 C 0.95355 0.70893 0.66734 0.0
C1110 C 0.00922 0.72997 0.661 0.0
C1111 C 0.03887 0.70668 0.67324 0.0
N1112 N 0.97161 0.71485 0.66479 0.0
N1113 N 0.02086 0.7003 0.67409 0.0
H1114 H 0.31409 0.95827 0.73249 0.0
H1115 H 0.30233 0.05509 0.66321 0.0
H1116 H 0.30457 0.95941 0.655 0.0
H1117 H 0.2898 0.04746 0.7395 0.0
H1118 H 0.30422 0.02075 0.6586 0.0
H1119 H 0.30687 0.9917 0.73468 0.0
C1120 C 0.31041 0.96565 0.71593 0.0
C1121 C 0.31 0.9562 0.69354 0.0
C1122 C 0.30089 0.02668 0.67626 0.0
C1123 C 0.30183 0.99455 0.69576 0.0
C1124 C 0.29977 0.04626 0.6789 0.0
C1125 C 0.29627 0.05424 0.70189 0.0
C1126 C 0.29864 0.01512 0.69679 0.0
C1127 C 0.29311 0.04206 0.72159 0.0
C1128 C 0.30619 0.98469 0.71717 0.0
C1129 C 0.30496 0.9663 0.67259 0.0
N1130 N 0.29457 0.0232 0.71863 0.0
N1131 N 0.30129 0.98506 0.67413 0.0
H1132 H 0.06376 0.28092 0.66264 0.0
H1133 H 0.95517 0.30859 0.67189 0.0
H1134 H 0.04455 0.3374 0.6762 0.0
H1135 H 0.97546 0.25157 0.67321 0.0
H1136 H 0.98754 0.3198 0.66743 0.0
H1137 H 0.03114 0.27039 0.66006 0.0
C1138 C 0.05268 0.29117 0.6647 0.0
C1139 C 0.05687 0.31006 0.6698 0.0
C1140 C 0.98488 0.30483 0.66861 0.0
C1141 C 0.0195 0.29806 0.66717 0.0
C1142 C 0.96642 0.29844 0.67103 0.0
C1143 C 0.96264 0.27914 0.67314 0.0
C1144 C 0.99965 0.29181 0.66809 0.0
C1145 C 0.97777 0.26658 0.6721 0.0
C1146 C 0.03406 0.28512 0.66344 0.0
C1147 C 0.04192 0.32267 0.67261 0.0
N1148 N 0.99559 0.27313 0.66968 0.0
N1149 N 0.0239 0.31644 0.67136 0.0
H1150 H 0.69902 0.0527 0.64365 0.0
H1151 H 0.71115 0.9623 0.72728 0.0
H1152 H 0.67345 0.04681 0.71445 0.0
H1153 H 0.71848 0.95955 0.6494 0.0
H1154 H 0.69981 0.99446 0.72331 0.0
H1155 H 0.7087 0.01959 0.64556 0.0
C1156 C 0.69541 0.04443 0.65953 0.0
C1157 C 0.68539 0.05249 0.67889 0.0
C1158 C 0.70382 0.98684 0.70704 0.0
C1159 C 0.69647 0.01485 0.68128 0.0
C1160 C 0.71042 0.96854 0.70933 0.0
C1161 C 0.71584 0.95834 0.68865 0.0
C1162 C 0.70287 0.99517 0.68391 0.0
C1163 C 0.71433 0.96697 0.66575 0.0
C1164 C 0.70083 0.02556 0.66055 0.0
C1165 C 0.68094 0.04114 0.69898 0.0
N1166 N 0.70814 0.985 0.66398 0.0
N1167 N 0.68664 0.02298 0.69973 0.0
H1168 H 0.56208 0.79648 0.92069 0.0
H1169 H 0.46405 0.8231 0.86299 0.0
H1170 H 0.55347 0.84548 0.87588 0.0
H1171 H 0.46753 0.78744 0.92613 0.0
H1172 H 0.49714 0.83125 0.86785 0.0
H1173 H 0.52794 0.79276 0.92412 0.0
C1174 C 0.55307 0.80662 0.91189 0.0
C1175 C 0.5607 0.82112 0.89757 0.0
C1176 C 0.4907 0.8218 0.88087 0.0
C1177 C 0.52171 0.81678 0.90116 0.0
C1178 C 0.47186 0.81711 0.87801 0.0
C1179 C 0.46322 0.80453 0.8941 0.0
C1180 C 0.50116 0.81354 0.8997 0.0
C1181 C 0.4738 0.79724 0.91343 0.0
C1182 C 0.53358 0.80445 0.91381 0.0
C1183 C 0.54828 0.83379 0.88652 0.0
N1184 N 0.49238 0.80162 0.91551 0.0
N1185 N 0.52947 0.83118 0.8883 0.0
H1186 H 0.18844 0.47118 0.84949 0.0
H1187 H 0.20766 0.56927 0.91282 0.0
H1188 H 0.21523 0.47465 0.91972 0.0
H1189 H 0.16485 0.56069 0.85818 0.0
H1190 H 0.21087 0.53513 0.91653 0.0
H1191 H 0.18006 0.50433 0.85254 0.0
C1192 C 0.19244 0.479 0.86564 0.0
C1193 C 0.20262 0.47034 0.8843 0.0
C1194 C 0.20063 0.54078 0.90395 0.0
C1195 C 0.1933 0.50833 0.88791 0.0
C1196 C 0.19874 0.56028 0.90186 0.0
C1197 C 0.18618 0.56796 0.88482 0.0
C1198 C 0.19001 0.5289 0.88876 0.0
C1199 C 0.17508 0.55551 0.87105 0.0
C1200 C 0.18759 0.49788 0.86746 0.0
C1201 C 0.20733 0.48093 0.90501 0.0
N1202 N 0.17742 0.53666 0.87311 0.0
N1203 N 0.20288 0.49953 0.90613 0.0
H1204 H 0.44226 0.20329 0.88875 0.0
H1205 H 0.54549 0.2384 0.92525 0.0
H1206 H 0.45275 0.2482 0.93994 0.0
H1207 H 0.53353 0.20461 0.86176 0.0
H1208 H 0.51188 0.23872 0.93487 0.0
H1209 H 0.47611 0.20024 0.88249 0.0
C1210 C 0.45169 0.21241 0.8988 0.0
C1211 C 0.44468 0.22609 0.91476 0.0
C1212 C 0.51665 0.23119 0.91888 0.0
C1213 C 0.48339 0.22272 0.9077 0.0
C1214 C 0.53581 0.2309 0.9135 0.0
C1215 C 0.54225 0.22159 0.89258 0.0
C1216 C 0.5039 0.22192 0.90337 0.0
C1217 C 0.52911 0.21221 0.87784 0.0
C1218 C 0.471 0.21074 0.89513 0.0
C1219 C 0.45755 0.23766 0.92717 0.0
N1220 N 0.51057 0.21261 0.8835 0.0
N1221 N 0.47628 0.23571 0.92339 0.0
H1222 H 0.84409 0.45576 0.90358 0.0
H1223 H 0.75744 0.52503 0.88401 0.0
H1224 H 0.78681 0.43703 0.89491 0.0
H1225 H 0.81272 0.54458 0.90399 0.0
H1226 H 0.76813 0.49266 0.88808 0.0
H1227 H 0.83316 0.48836 0.90391 0.0
C1228 C 0.82923 0.45849 0.90179 0.0
C1229 C 0.81636 0.44362 0.89915 0.0
C1230 C 0.77793 0.504 0.89172 0.0
C1231 C 0.80375 0.48086 0.89955 0.0
C1232 C 0.77185 0.52249 0.88925 0.0
C1233 C 0.78424 0.53752 0.89349 0.0
C1234 C 0.79664 0.50043 0.89826 0.0
C1235 C 0.80268 0.53341 0.90068 0.0
C1236 C 0.82298 0.47709 0.90212 0.0
C1237 C 0.79722 0.44798 0.89724 0.0
N1238 N 0.80838 0.51523 0.90264 0.0
N1239 N 0.79153 0.46618 0.8973 0.0
H1240 H 0.45165 0.21055 0.1605 0.0
H1241 H 0.55003 0.19431 0.22673 0.0
H1242 H 0.45853 0.1836 0.23023 0.0
H1243 H 0.54557 0.22039 0.15618 0.0
H1244 H 0.51661 0.18717 0.22564 0.0
H1245 H 0.48592 0.21122 0.15576 0.0
C1246 C 0.46036 0.20453 0.17462 0.0
C1247 C 0.45228 0.19725 0.19596 0.0
C1248 C 0.52286 0.19434 0.21025 0.0
C1249 C 0.49132 0.19806 0.19078 0.0
C1250 C 0.54194 0.19847 0.21094 0.0
C1251 C 0.55044 0.2082 0.19169 0.0
C1252 C 0.51205 0.20018 0.19027 0.0
C1253 C 0.53945 0.21291 0.17139 0.0
C1254 C 0.47989 0.20499 0.17197 0.0
C1255 C 0.46418 0.18972 0.21375 0.0
N1256 N 0.5207 0.20908 0.17133 0.0
N1257 N 0.48305 0.19044 0.21083 0.0
H1258 H 0.81231 0.54935 0.16783 0.0
H1259 H 0.78586 0.43988 0.16959 0.0
H1260 H 0.75691 0.52775 0.18304 0.0
H1261 H 0.84296 0.4603 0.16861 0.0
H1262 H 0.77476 0.47222 0.16893 0.0
H1263 H 0.82351 0.51704 0.16274 0.0
C1264 C 0.80248 0.53782 0.16988 0.0
C1265 C 0.78368 0.54122 0.17604 0.0
C1266 C 0.78973 0.46965 0.16874 0.0
C1267 C 0.79636 0.50431 0.17032 0.0
C1268 C 0.79609 0.45115 0.16891 0.0
C1269 C 0.8154 0.44734 0.16921 0.0
C1270 C 0.80274 0.48452 0.1688 0.0
C1271 C 0.82797 0.4626 0.16871 0.0
C1272 C 0.80889 0.5194 0.16711 0.0
C1273 C 0.77157 0.52576 0.17869 0.0
N1274 N 0.82143 0.48053 0.16858 0.0
N1275 N 0.77812 0.508 0.17583 0.0
H1276 H 0.4644 0.78238 0.15522 0.0
H1277 H 0.54916 0.84689 0.20258 0.0
H1278 H 0.46188 0.81815 0.2185 0.0
H1279 H 0.55886 0.79596 0.16171 0.0
H1280 H 0.51552 0.84104 0.20027 0.0
H1281 H 0.4976 0.79156 0.14958 0.0
C1282 C 0.47081 0.79235 0.16766 0.0
C1283 C 0.46059 0.79944 0.18745 0.0
C1284 C 0.525 0.8312 0.19166 0.0
C1285 C 0.49807 0.81009 0.18107 0.0
C1286 C 0.54425 0.83448 0.19305 0.0
C1287 C 0.55695 0.82168 0.18282 0.0
C1288 C 0.51827 0.81505 0.17979 0.0
C1289 C 0.54963 0.80617 0.16996 0.0
C1290 C 0.48967 0.79749 0.16454 0.0
C1291 C 0.46941 0.81223 0.20321 0.0
N1292 N 0.53073 0.80318 0.169 0.0
N1293 N 0.48761 0.81716 0.19968 0.0
H1294 H 0.18861 0.45824 0.15763 0.0
H1295 H 0.22075 0.56562 0.17289 0.0
H1296 H 0.24074 0.4754 0.19096 0.0
H1297 H 0.16311 0.54909 0.16134 0.0
H1298 H 0.22979 0.53252 0.17231 0.0
H1299 H 0.18055 0.49147 0.15171 0.0
C1300 C 0.19843 0.46901 0.16341 0.0
C1301 C 0.21528 0.46413 0.17497 0.0
C1302 C 0.21518 0.53614 0.16978 0.0
C1303 C 0.20624 0.50199 0.16829 0.0
C1304 C 0.21003 0.55503 0.16993 0.0
C1305 C 0.19113 0.56011 0.16727 0.0
C1306 C 0.20137 0.52219 0.16673 0.0
C1307 C 0.17779 0.54576 0.16379 0.0
C1308 C 0.19379 0.48792 0.16019 0.0
C1309 C 0.22749 0.4786 0.18231 0.0
N1310 N 0.18316 0.52743 0.16363 0.0
N1311 N 0.22273 0.49686 0.17886 0.0
H1312 H 0.11859 0.34943 0.47014 0.0
H1313 H 0.15398 0.30381 0.59543 0.0
H1314 H 0.15458 0.30084 0.47351 0.0
H1315 H 0.1179 0.35229 0.59137 0.0
H1316 H 0.1564 0.30386 0.55093 0.0
H1317 H 0.12014 0.35201 0.51448 0.0
C1318 C 0.12694 0.33936 0.48016 0.0
C1319 C 0.13639 0.32483 0.46799 0.0
C1320 C 0.14806 0.31457 0.55979 0.0
C1321 C 0.13815 0.32766 0.519 0.0
C1322 C 0.14671 0.31458 0.58524 0.0
C1323 C 0.13563 0.32801 0.59724 0.0
C1324 C 0.13824 0.32806 0.54617 0.0
C1325 C 0.12654 0.34161 0.58298 0.0
C1326 C 0.1278 0.34084 0.50554 0.0
C1327 C 0.14701 0.31225 0.48206 0.0
N1328 N 0.12796 0.34121 0.55827 0.0
N1329 N 0.14751 0.31389 0.50678 0.0
H1330 H 0.64398 0.12161 0.59453 0.0
H1331 H 0.70152 0.15183 0.47551 0.0
H1332 H 0.69812 0.14903 0.59675 0.0
H1333 H 0.64781 0.12358 0.4733 0.0
H1334 H 0.699 0.15391 0.51984 0.0
H1335 H 0.64365 0.12513 0.55024 0.0
C1336 C 0.65573 0.12854 0.58576 0.0
C1337 C 0.67117 0.1349 0.59944 0.0
C1338 C 0.68768 0.1474 0.50965 0.0
C1339 C 0.67093 0.13888 0.54858 0.0
C1340 C 0.6891 0.14624 0.48429 0.0
C1341 C 0.67493 0.13737 0.4706 0.0
C1342 C 0.67202 0.13959 0.5215 0.0
C1343 C 0.65914 0.13044 0.48306 0.0
C1344 C 0.65554 0.13052 0.56043 0.0
C1345 C 0.68595 0.14382 0.58699 0.0
N1346 N 0.65819 0.13156 0.50778 0.0
N1347 N 0.68552 0.14541 0.5623 0.0
H1348 H 0.88579 0.64009 0.47845 0.0
H1349 H 0.85236 0.69202 0.60061 0.0
H1350 H 0.85076 0.68944 0.4789 0.0
H1351 H 0.88905 0.6439 0.59966 0.0
H1352 H 0.84919 0.68958 0.55632 0.0
H1353 H 0.88468 0.63954 0.52293 0.0
C1354 C 0.87771 0.65072 0.48786 0.0
C1355 C 0.86845 0.6649 0.47483 0.0
C1356 C 0.85783 0.67947 0.56582 0.0
C1357 C 0.86722 0.66442 0.52597 0.0
C1358 C 0.85962 0.68083 0.59115 0.0
C1359 C 0.87109 0.66821 0.60395 0.0
C1360 C 0.86758 0.6654 0.55309 0.0
C1361 C 0.88013 0.654 0.59063 0.0
C1362 C 0.87712 0.65042 0.51332 0.0
C1363 C 0.85818 0.67827 0.48812 0.0
N1364 N 0.87827 0.65306 0.56598 0.0
N1365 N 0.85795 0.67777 0.51292 0.0
H1366 H 0.35204 0.89971 0.6003 0.0
H1367 H 0.30309 0.85673 0.48087 0.0
H1368 H 0.30537 0.86087 0.60258 0.0
H1369 H 0.3501 0.89516 0.47898 0.0
H1370 H 0.30507 0.8563 0.52537 0.0
H1371 H 0.35289 0.89647 0.55599 0.0
C1372 C 0.34205 0.89038 0.59153 0.0
C1373 C 0.32855 0.88062 0.60528 0.0
C1374 C 0.31504 0.86472 0.51522 0.0
C1375 C 0.32939 0.87692 0.55431 0.0
C1376 C 0.31394 0.86495 0.48976 0.0
C1377 C 0.32639 0.87607 0.47607 0.0
C1378 C 0.32866 0.87573 0.52719 0.0
C1379 C 0.34016 0.88642 0.4887 0.0
C1380 C 0.34254 0.88855 0.56617 0.0
C1381 C 0.31601 0.86871 0.5928 0.0
N1382 N 0.34084 0.88608 0.51348 0.0
N1383 N 0.31666 0.86729 0.56806 0.0
H1384 H 0.10063 0.69665 0.47239 0.0
H1385 H 0.16415 0.69874 0.59234 0.0
H1386 H 0.16112 0.70009 0.47182 0.0
H1387 H 0.10358 0.69797 0.59344 0.0
H1388 H 0.16334 0.69372 0.54834 0.0
H1389 H 0.10153 0.69184 0.51648 0.0
C1390 C 0.11412 0.69614 0.48146 0.0
C1391 C 0.13082 0.69903 0.46837 0.0
C1392 C 0.15022 0.6944 0.55823 0.0
C1393 C 0.13193 0.69363 0.51896 0.0
C1394 C 0.15066 0.69721 0.58342 0.0
C1395 C 0.1339 0.69905 0.59663 0.0
C1396 C 0.13288 0.69352 0.54605 0.0
C1397 C 0.11686 0.6968 0.58402 0.0
C1398 C 0.11462 0.69342 0.50668 0.0
C1399 C 0.14788 0.69812 0.48114 0.0
N1400 N 0.11679 0.69441 0.55941 0.0
N1401 N 0.14798 0.6957 0.50572 0.0
H1402 H 0.34093 0.10013 0.49235 0.0
H1403 H 0.29692 0.1471 0.61208 0.0
H1404 H 0.29871 0.14345 0.49115 0.0
H1405 H 0.33706 0.10184 0.61423 0.0
H1406 H 0.29981 0.14795 0.56781 0.0
H1407 H 0.34208 0.10256 0.53683 0.0
C1408 C 0.33203 0.11028 0.50138 0.0
C1409 C 0.31961 0.12152 0.48793 0.0
C1410 C 0.30809 0.1379 0.57794 0.0
C1411 C 0.32081 0.12431 0.53893 0.0
C1412 C 0.30647 0.13742 0.60328 0.0
C1413 C 0.31667 0.12428 0.61697 0.0
C1414 C 0.31997 0.12514 0.56603 0.0
C1415 C 0.32886 0.11216 0.60446 0.0
C1416 C 0.33267 0.11163 0.52681 0.0
C1417 C 0.30843 0.13442 0.50071 0.0
N1418 N 0.33008 0.1128 0.57971 0.0
N1419 N 0.30923 0.13538 0.52544 0.0
H1420 H 0.90651 0.29584 0.47301 0.0
H1421 H 0.8421 0.29211 0.59207 0.0
H1422 H 0.84595 0.29497 0.47123 0.0
H1423 H 0.90261 0.2947 0.59426 0.0
H1424 H 0.8432 0.29661 0.54799 0.0
H1425 H 0.90536 0.29883 0.51737 0.0
C1426 C 0.89296 0.29649 0.48189 0.0
C1427 C 0.8763 0.29496 0.46834 0.0
C1428 C 0.85624 0.29638 0.55812 0.0
C1429 C 0.87488 0.29825 0.51922 0.0
C1430 C 0.85562 0.29384 0.58334 0.0
C1431 C 0.8723 0.29283 0.59691 0.0
C1432 C 0.87366 0.29782 0.54628 0.0
C1433 C 0.8894 0.29527 0.58455 0.0
C1434 C 0.89232 0.29818 0.50726 0.0
C1435 C 0.85916 0.29596 0.4809 0.0
N1436 N 0.88964 0.29745 0.55993 0.0
N1437 N 0.85891 0.29737 0.50561 0.0
H1438 H 0.70724 0.83759 0.60082 0.0
H1439 H 0.7054 0.89878 0.47854 0.0
H1440 H 0.70692 0.89826 0.60023 0.0
H1441 H 0.7083 0.8382 0.47989 0.0
H1442 H 0.7018 0.89885 0.52289 0.0
H1443 H 0.70351 0.83757 0.5566 0.0
C1444 C 0.70618 0.85093 0.59144 0.0
C1445 C 0.70757 0.86795 0.60432 0.0
C1446 C 0.70303 0.88553 0.51345 0.0
C1447 C 0.70343 0.86803 0.55345 0.0
C1448 C 0.70502 0.88547 0.48809 0.0
C1449 C 0.70733 0.86846 0.47542 0.0
C1450 C 0.70336 0.86846 0.5263 0.0
C1451 C 0.70671 0.85167 0.48884 0.0
C1452 C 0.70408 0.8509 0.56613 0.0
C1453 C 0.70601 0.88478 0.5911 0.0
N1454 N 0.70494 0.85211 0.51351 0.0
N1455 N 0.7042 0.8844 0.5664 0.0
H1456 H 0.61512 0.85861 0.10018 0.0
H1457 H 0.6547 0.80907 0.97955 0.0
H1458 H 0.65213 0.81074 0.10105 0.0
H1459 H 0.61752 0.85682 0.97868 0.0
H1460 H 0.65597 0.81106 1.024 0.0
H1461 H 0.61786 0.85975 0.05581 0.0
C1462 C 0.62396 0.84843 0.0911 0.0
C1463 C 0.63332 0.83449 0.10444 0.0
C1464 C 0.64764 0.82119 1.01409 0.0
C1465 C 0.63643 0.83566 0.05346 0.0
C1466 C 0.64693 0.82009 0.98866 0.0
C1467 C 0.6359 0.83273 0.97528 0.0
C1468 C 0.6372 0.83501 1.02634 0.0
C1469 C 0.62616 0.84672 0.98817 0.0
C1470 C 0.62549 0.84908 0.06571 0.0
C1471 C 0.6446 0.8217 0.09158 0.0
N1472 N 0.62695 0.84739 1.01294 0.0
N1473 N 0.64573 0.82253 0.06685 0.0
H1474 H 0.17612 0.63457 0.96844 0.0
H1475 H 0.19714 0.68944 0.09337 0.0
H1476 H 0.20094 0.68999 0.97157 0.0
H1477 H 0.17795 0.63187 0.08948 0.0
H1478 H 0.19511 0.69139 0.04889 0.0
H1479 H 0.17306 0.63492 1.01277 0.0
C1480 C 0.18075 0.64691 0.9784 0.0
C1481 C 0.18893 0.66222 0.9662 0.0
C1482 C 0.19123 0.67837 0.0578 0.0
C1483 C 0.18557 0.66266 1.01713 0.0
C1484 C 0.19234 0.67726 0.08322 0.0
C1485 C 0.18784 0.66042 0.09523 0.0
C1486 C 0.18552 0.66255 0.04426 0.0
C1487 C 0.18169 0.64511 0.08106 0.0
C1488 C 0.17905 0.64707 1.00376 0.0
C1489 C 0.19464 0.67782 0.98016 0.0
N1490 N 0.1808 0.64652 0.05638 0.0
N1491 N 0.19296 0.67759 1.00486 0.0
H1492 H 0.33158 0.17636 0.11032 0.0
H1493 H 0.39219 0.17939 0.98873 0.0
H1494 H 0.39209 0.17929 0.10959 0.0
H1495 H 0.33221 0.17068 0.98973 0.0
H1496 H 0.39289 0.17522 1.03289 0.0
H1497 H 0.33186 0.17036 0.06648 0.0
C1498 C 0.34495 0.17551 0.10102 0.0
C1499 C 0.36182 0.17857 0.11365 0.0
C1500 C 0.3796 0.17392 1.02342 0.0
C1501 C 0.36224 0.17186 0.0633 0.0
C1502 C 0.3792 0.17625 0.99815 0.0
C1503 C 0.36208 0.17565 0.98548 0.0
C1504 C 0.36274 0.17114 1.0362 0.0
C1505 C 0.34573 0.17142 0.99871 0.0
C1506 C 0.3451 0.17207 0.07594 0.0
C1507 C 0.37872 0.17715 0.10061 0.0
N1508 N 0.34642 0.16963 1.02336 0.0
N1509 N 0.37848 0.17415 0.07612 0.0
H1510 H 0.8641 0.37364 0.09568 0.0
H1511 H 0.80656 0.3481 0.97465 0.0
H1512 H 0.80814 0.35016 0.09609 0.0
H1513 H 0.86292 0.37059 0.97442 0.0
H1514 H 0.80791 0.34611 1.01909 0.0
H1515 H 0.86497 0.36998 0.05142 0.0
C1516 C 0.85205 0.36754 0.08652 0.0
C1517 C 0.83596 0.36233 0.09968 0.0
C1518 C 0.82005 0.35133 1.00931 0.0
C1519 C 0.83683 0.35822 0.04884 0.0
C1520 C 0.8193 0.35245 0.9839 0.0
C1521 C 0.8346 0.35966 0.97073 0.0
C1522 C 0.83619 0.35753 1.02173 0.0
C1523 C 0.85074 0.36503 0.98376 0.0
C1524 C 0.85256 0.36547 0.0612 0.0
C1525 C 0.82082 0.35445 0.08674 0.0
N1526 N 0.85105 0.36399 1.00851 0.0
N1527 N 0.82157 0.35278 0.06206 0.0
H1528 H 0.63578 0.22529 0.09515 0.0
H1529 H 0.59607 0.17784 0.9729 0.0
H1530 H 0.60004 0.17614 0.09553 0.0
H1531 H 0.63305 0.22605 0.97468 0.0
H1532 H 0.59814 0.1759 1.01744 0.0
H1533 H 0.63574 0.22469 0.05082 0.0
C1534 C 0.62795 0.2143 0.08592 0.0
C1535 C 0.61782 0.20079 0.09918 0.0
C1536 C 0.60586 0.18683 1.00803 0.0
C1537 C 0.61766 0.20007 0.04806 0.0
C1538 C 0.60471 0.18794 0.98259 0.0
C1539 C 0.61434 0.20218 0.96996 0.0
C1540 C 0.61671 0.20006 1.02095 0.0
C1541 C 0.62531 0.21487 0.98355 0.0
C1542 C 0.62794 0.21396 0.06052 0.0
C1543 C 0.60803 0.18685 0.08609 0.0
N1544 N 0.62612 0.21355 1.00822 0.0
N1545 N 0.60811 0.18691 0.06125 0.0
H1546 H 0.79487 0.66294 0.09578 0.0
H1547 H 0.79953 0.59971 0.97519 0.0
H1548 H 0.79767 0.60234 0.09672 0.0
H1549 H 0.79592 0.66026 0.97485 0.0
H1550 H 0.8027 0.60051 1.01958 0.0
H1551 H 0.79908 0.66234 0.05164 0.0
C1552 C 0.79658 0.6495 0.08677 0.0
C1553 C 0.79573 0.63266 0.10003 0.0
C1554 C 0.80141 0.61364 1.00977 0.0
C1555 C 0.80041 0.63186 0.04927 0.0
C1556 C 0.79964 0.6132 0.98438 0.0
C1557 C 0.79727 0.62994 0.97122 0.0
C1558 C 0.80076 0.63094 1.02215 0.0
C1559 C 0.79757 0.64698 0.98419 0.0
C1560 C 0.79895 0.64917 0.0615 0.0
C1561 C 0.79813 0.61568 0.08727 0.0
N1562 N 0.7991 0.64703 1.00889 0.0
N1563 N 0.80017 0.61571 0.06261 0.0
H1564 H 0.40761 0.83725 0.98187 0.0
H1565 H 0.37117 0.78457 0.10212 0.0
H1566 H 0.37416 0.78652 0.9814 0.0
H1567 H 0.40608 0.83428 0.10441 0.0
H1568 H 0.37054 0.78654 0.05779 0.0
H1569 H 0.4057 0.83782 1.02649 0.0
C1570 C 0.39977 0.8263 0.99109 0.0
C1571 C 0.39111 0.81177 0.97778 0.0
C1572 C 0.37828 0.79709 0.06794 0.0
C1573 C 0.3889 0.81232 1.0289 0.0
C1574 C 0.37864 0.79599 0.09333 0.0
C1575 C 0.38877 0.80924 0.10712 0.0
C1576 C 0.38818 0.81152 0.05603 0.0
C1577 C 0.39811 0.82373 0.09458 0.0
C1578 C 0.39871 0.82663 1.01659 0.0
C1579 C 0.38115 0.79797 0.9908 0.0
N1580 N 0.39767 0.82443 0.06976 0.0
N1581 N 0.38038 0.79857 1.01553 0.0
H1582 H 0.16577 0.41592 0.97495 0.0
H1583 H 0.21572 0.37237 0.093 0.0
H1584 H 0.21361 0.37892 0.97281 0.0
H1585 H 0.16937 0.41108 0.09757 0.0
H1586 H 0.21319 0.37285 0.04876 0.0
H1587 H 0.16504 0.41273 1.01949 0.0
C1588 C 0.17604 0.40704 0.98378 0.0
C1589 C 0.18984 0.39776 0.97004 0.0
C1590 C 0.20348 0.38118 0.05937 0.0
C1591 C 0.18907 0.39406 1.02102 0.0
C1592 C 0.2049 0.38089 0.08473 0.0
C1593 C 0.19281 0.39178 0.09914 0.0
C1594 C 0.18991 0.39251 0.0481 0.0
C1595 C 0.17902 0.40247 0.08724 0.0
C1596 C 0.17562 0.40525 1.00922 0.0
C1597 C 0.20276 0.38645 0.98255 0.0
N1598 N 0.17802 0.40267 0.06242 0.0
N1599 N 0.20209 0.38498 1.00722 0.0
H1600 H 0.16909 0.39645 0.23912 0.0
H1601 H 0.17622 0.31176 0.33447 0.0
H1602 H 0.20396 0.34794 0.22644 0.0
H1603 H 0.1521 0.36586 0.351 0.0
H1604 H 0.18557 0.3237 0.29433 0.0
H1605 H 0.16098 0.38404 0.27911 0.0
C1606 C 0.17494 0.38309 0.24463 0.0
C1607 C 0.18726 0.37326 0.22931 0.0
C1608 C 0.17835 0.33297 0.30685 0.0
C1609 C 0.17809 0.35896 0.27545 0.0
C1610 C 0.17307 0.3262 0.32981 0.0
C1611 C 0.16332 0.3378 0.3462 0.0
C1612 C 0.17369 0.35143 0.30012 0.0
C1613 C 0.15958 0.35637 0.33906 0.0
C1614 C 0.17039 0.37606 0.26761 0.0
C1615 C 0.19441 0.35602 0.23761 0.0
N1616 N 0.16463 0.36252 0.31656 0.0
N1617 N 0.18972 0.34942 0.26012 0.0
H1618 H 0.67083 0.19872 0.21573 0.0
H1619 H 0.65881 0.15116 0.34655 0.0
H1620 H 0.62049 0.16932 0.23761 0.0
H1621 H 0.71301 0.15948 0.31314 0.0
H1622 H 0.64387 0.16235 0.309 0.0
H1623 H 0.68613 0.18825 0.25339 0.0
C1624 C 0.66305 0.18995 0.22833 0.0
C1625 C 0.64438 0.18481 0.22343 0.0
C1626 C 0.65904 0.16178 0.30998 0.0
C1627 C 0.66163 0.17321 0.26673 0.0
C1628 C 0.66756 0.15556 0.33145 0.0
C1629 C 0.68717 0.15435 0.33293 0.0
C1630 C 0.67021 0.16711 0.29003 0.0
C1631 C 0.69783 0.16009 0.31272 0.0
C1632 C 0.67177 0.18403 0.24981 0.0
C1633 C 0.63495 0.17351 0.2405 0.0
N1634 N 0.68923 0.16626 0.29213 0.0
N1635 N 0.64361 0.16823 0.26146 0.0
H1636 H 0.81894 0.62554 0.2262 0.0
H1637 H 0.82009 0.68011 0.35307 0.0
H1638 H 0.76965 0.65287 0.25469 0.0
H1639 H 0.85513 0.63193 0.33937 0.0
H1640 H 0.80381 0.6742 0.31438 0.0
H1641 H 0.83526 0.63216 0.26471 0.0
C1642 C 0.81164 0.63316 0.24041 0.0
C1643 C 0.7929 0.63865 0.23727 0.0
C1644 C 0.815 0.66488 0.31995 0.0
C1645 C 0.81147 0.64626 0.28122 0.0
C1646 C 0.82427 0.66823 0.342 0.0
C1647 C 0.8389 0.65642 0.34953 0.0
C1648 C 0.82068 0.6499 0.30504 0.0
C1649 C 0.8438 0.64127 0.3344 0.0
C1650 C 0.8209 0.63677 0.26243 0.0
C1651 C 0.78407 0.64832 0.25639 0.0
N1652 N 0.83484 0.63855 0.31276 0.0
N1653 N 0.79344 0.65189 0.27752 0.0
H1654 H 0.3451 0.80258 0.23467 0.0
H1655 H 0.36669 0.8629 0.35483 0.0
H1656 H 0.39097 0.8421 0.24129 0.0
H1657 H 0.31325 0.83565 0.34267 0.0
H1658 H 0.37695 0.85249 0.31466 0.0
H1659 H 0.3339 0.81238 0.27503 0.0
C1660 C 0.35272 0.81343 0.24446 0.0
C1661 C 0.36902 0.82152 0.23449 0.0
C1662 C 0.36299 0.84872 0.32077 0.0
C1663 C 0.35647 0.83252 0.28086 0.0
C1664 C 0.35715 0.85455 0.34385 0.0
C1665 C 0.33904 0.85019 0.35222 0.0
C1666 C 0.35073 0.8383 0.30586 0.0
C1667 C 0.32733 0.83936 0.33699 0.0
C1668 C 0.34635 0.81896 0.26753 0.0
C1669 C 0.37833 0.83546 0.24812 0.0
N1670 N 0.33337 0.8338 0.31455 0.0
N1671 N 0.37202 0.84039 0.27059 0.0
H1672 H 0.1977 0.6805 0.83295 0.0
H1673 H 0.11834 0.7022 0.73334 0.0
H1674 H 0.13891 0.66807 0.84337 0.0
H1675 H 0.17758 0.71033 0.72058 0.0
H1676 H 0.12542 0.6915 0.77459 0.0
H1677 H 0.19035 0.69375 0.79302 0.0
C1678 C 0.18321 0.68073 0.82699 0.0
C1679 C 0.16892 0.67307 0.84158 0.0
C1680 C 0.13688 0.69563 0.76279 0.0
C1681 C 0.16042 0.68811 0.79565 0.0
C1682 C 0.13285 0.70173 0.73917 0.0
C1683 C 0.14739 0.70714 0.72336 0.0
C1684 C 0.1556 0.69495 0.77079 0.0
C1685 C 0.16591 0.70625 0.73205 0.0
C1686 C 0.17904 0.68823 0.8041 0.0
C1687 C 0.15041 0.67377 0.83279 0.0
N1688 N 0.16948 0.70028 0.75514 0.0
N1689 N 0.14672 0.68105 0.81039 0.0
H1690 H 0.35452 0.14554 0.74057 0.0
H1691 H 0.31511 0.19419 0.86152 0.0
H1692 H 0.29861 0.1681 0.74718 0.0
H1693 H 0.37373 0.18128 0.85144 0.0
H1694 H 0.30889 0.18395 0.81986 0.0
H1695 H 0.36209 0.15834 0.78088 0.0
C1696 C 0.3439 0.15337 0.75033 0.0
C1697 C 0.32586 0.15566 0.74044 0.0
C1698 C 0.32313 0.18337 0.82669 0.0
C1699 C 0.33438 0.17011 0.78679 0.0
C1700 C 0.3267 0.18915 0.85058 0.0
C1701 C 0.34498 0.18856 0.86009 0.0
C1702 C 0.33792 0.1768 0.81211 0.0
C1703 C 0.35941 0.18196 0.84491 0.0
C1704 C 0.34823 0.16062 0.7734 0.0
C1705 C 0.31269 0.16593 0.75401 0.0
N1706 N 0.35556 0.17627 0.82171 0.0
N1707 N 0.31715 0.1726 0.77652 0.0
H1708 H 0.85753 0.31552 0.71111 0.0
H1709 H 0.84286 0.3237 0.85581 0.0
H1710 H 0.87359 0.27215 0.76184 0.0
H1711 H 0.82376 0.3652 0.80425 0.0
H1712 H 0.8549 0.30487 0.82183 0.0
H1713 H 0.84551 0.33412 0.74517 0.0
C1714 C 0.85849 0.30987 0.72939 0.0
C1715 C 0.8666 0.29222 0.73358 0.0
C1716 C 0.84807 0.31811 0.81798 0.0
C1717 C 0.85292 0.31352 0.77275 0.0
C1718 C 0.84124 0.32889 0.83738 0.0
C1719 C 0.83227 0.34607 0.83291 0.0
C1720 C 0.84596 0.32458 0.79392 0.0
C1721 C 0.83054 0.35205 0.80862 0.0
C1722 C 0.85163 0.32052 0.74886 0.0
C1723 C 0.86745 0.28566 0.7577 0.0
N1724 N 0.83731 0.34135 0.7901 0.0
N1725 N 0.86075 0.29631 0.77634 0.0
H1726 H 0.70924 0.84462 0.73334 0.0
H1727 H 0.65364 0.87176 0.85504 0.0
H1728 H 0.67386 0.89342 0.74058 0.0
H1729 H 0.67485 0.81586 0.84218 0.0
H1730 H 0.66458 0.88106 0.81472 0.0
H1731 H 0.69957 0.83459 0.77429 0.0
C1732 C 0.69935 0.85314 0.74341 0.0
C1733 C 0.69234 0.86989 0.73343 0.0
C1734 C 0.66692 0.86677 0.82073 0.0
C1735 C 0.68153 0.85868 0.7804 0.0
C1736 C 0.6608 0.86147 0.84387 0.0
C1737 C 0.66326 0.84296 0.85206 0.0
C1738 C 0.67573 0.85355 0.80557 0.0
C1739 C 0.67261 0.83027 0.83663 0.0
C1740 C 0.69389 0.84743 0.7668 0.0
C1741 C 0.67961 0.88039 0.7474 0.0
N1742 N 0.67848 0.83578 0.81411 0.0
N1743 N 0.67474 0.87469 0.77015 0.0
H1744 H 0.85691 0.62681 0.72271 0.0
H1745 H 0.79851 0.65185 0.84312 0.0
H1746 H 0.83664 0.6827 0.73803 0.0
H1747 H 0.83048 0.60092 0.83388 0.0
H1748 H 0.81009 0.66286 0.80351 0.0
H1749 H 0.84446 0.6163 0.76184 0.0
C1750 C 0.8497 0.63686 0.73418 0.0
C1751 C 0.84788 0.65569 0.72703 0.0
C1752 C 0.8146 0.64931 0.81024 0.0
C1753 C 0.83364 0.64372 0.77208 0.0
C1754 C 0.80803 0.64303 0.83287 0.0
C1755 C 0.81354 0.62543 0.84191 0.0
C1756 C 0.82661 0.63783 0.79644 0.0
C1757 C 0.82587 0.6146 0.82775 0.0
C1758 C 0.84268 0.63086 0.75663 0.0
C1759 C 0.83842 0.66805 0.7428 0.0
N1760 N 0.83188 0.62092 0.80573 0.0
N1761 N 0.83167 0.66186 0.76457 0.0
H1762 H 0.3905 0.84326 0.83814 0.0
H1763 H 0.29663 0.83954 0.75883 0.0
H1764 H 0.34334 0.80772 0.85641 0.0
H1765 H 0.34898 0.86139 0.73112 0.0
H1766 H 0.31283 0.8293 0.79572 0.0
H1767 H 0.37462 0.85219 0.80043 0.0
C1768 C 0.37672 0.83746 0.83437 0.0
C1769 C 0.36823 0.82473 0.85057 0.0
C1770 C 0.32082 0.83619 0.7815 0.0
C1771 C 0.35002 0.83486 0.80721 0.0
C1772 C 0.31159 0.84202 0.76039 0.0
C1773 C 0.32147 0.85133 0.74182 0.0
C1774 C 0.34006 0.83992 0.78431 0.0
C1775 C 0.34084 0.85416 0.74489 0.0
C1776 C 0.36774 0.84246 0.8127 0.0
C1777 C 0.35042 0.81759 0.84452 0.0
N1778 N 0.34947 0.84864 0.76584 0.0
N1779 N 0.34189 0.82279 0.82338 0.0
H1780 H 0.14684 0.37481 0.7142 0.0
H1781 H 0.19221 0.35404 0.84491 0.0
H1782 H 0.16583 0.31974 0.73573 0.0
H1783 H 0.16175 0.40464 0.82768 0.0
H1784 H 0.18435 0.34157 0.80451 0.0
H1785 H 0.15475 0.38664 0.75476 0.0
C1786 C 0.15286 0.36523 0.72734 0.0
C1787 C 0.15564 0.34623 0.72149 0.0
C1788 C 0.17929 0.35534 0.80966 0.0
C1789 C 0.16459 0.35969 0.76818 0.0
C1790 C 0.18371 0.36245 0.83277 0.0
C1791 C 0.17764 0.38043 0.83977 0.0
C1792 C 0.16889 0.36636 0.7933 0.0
C1793 C 0.16672 0.3907 0.82317 0.0
C1794 C 0.15725 0.37198 0.7506 0.0
C1795 C 0.16342 0.33449 0.73941 0.0
N1796 N 0.16283 0.38359 0.80071 0.0
N1797 N 0.1676 0.3414 0.76193 0.0
H1798 H 0.65165 0.1516 0.72293 0.0
H1799 H 0.66374 0.2007 0.85304 0.0
H1800 H 0.70555 0.1584 0.75779 0.0
H1801 H 0.6128 0.17225 0.83121 0.0
H1802 H 0.67888 0.18954 0.81563 0.0
H1803 H 0.63655 0.16411 0.75974 0.0
C1804 C 0.66031 0.15598 0.73818 0.0
C1805 C 0.67987 0.15393 0.73737 0.0
C1806 C 0.66442 0.18569 0.81913 0.0
C1807 C 0.66275 0.16816 0.77936 0.0
C1808 C 0.65578 0.19202 0.84047 0.0
C1809 C 0.63702 0.18729 0.84533 0.0
C1810 C 0.6541 0.17489 0.80232 0.0
C1811 C 0.62734 0.17608 0.82833 0.0
C1812 C 0.65169 0.16294 0.75922 0.0
C1813 C 0.69042 0.15965 0.75772 0.0
N1814 N 0.63595 0.17038 0.80749 0.0
N1815 N 0.68174 0.16654 0.77786 0.0
H1816 H 0.80167 0.3346 0.25399 0.0
H1817 H 0.89717 0.32957 0.32962 0.0
H1818 H 0.85505 0.35216 0.2245 0.0
H1819 H 0.84762 0.29785 0.34899 0.0
H1820 H 0.88127 0.34039 0.29278 0.0
H1821 H 0.81769 0.32302 0.29028 0.0
C1822 C 0.81679 0.33592 0.25507 0.0
C1823 C 0.82704 0.34437 0.23615 0.0
C1824 C 0.87388 0.33108 0.3051 0.0
C1825 C 0.84546 0.33133 0.2779 0.0
C1826 C 0.88289 0.32499 0.32625 0.0
C1827 C 0.8737 0.31279 0.34248 0.0
C1828 C 0.85546 0.32511 0.30021 0.0
C1829 C 0.85524 0.30724 0.33701 0.0
C1830 C 0.82593 0.32929 0.27582 0.0
C1831 C 0.84661 0.34567 0.23858 0.0
N1832 N 0.84671 0.31348 0.31639 0.0
N1833 N 0.85518 0.33935 0.25918 0.0
H1834 H 0.65299 0.8748 0.22344 0.0
H1835 H 0.70793 0.84648 0.3454 0.0
H1836 H 0.67121 0.8181 0.23786 0.0
H1837 H 0.67759 0.89838 0.33611 0.0
H1838 H 0.69718 0.83635 0.3049 0.0
H1839 H 0.66521 0.88445 0.2631 0.0
C1840 C 0.65974 0.86439 0.23481 0.0
C1841 C 0.66099 0.84558 0.22726 0.0
C1842 C 0.69285 0.84992 0.31182 0.0
C1843 C 0.67495 0.85656 0.27297 0.0
C1844 C 0.69894 0.8557 0.33495 0.0
C1845 C 0.69363 0.87331 0.34425 0.0
C1846 C 0.68155 0.86192 0.29779 0.0
C1847 C 0.68202 0.88467 0.32981 0.0
C1848 C 0.66662 0.8699 0.25757 0.0
C1849 C 0.66988 0.83275 0.24292 0.0
N1850 N 0.67647 0.87883 0.30733 0.0
N1851 N 0.67648 0.83846 0.26504 0.0
H1852 H 0.14724 0.68137 0.35439 0.0
H1853 H 0.16502 0.6793 0.20997 0.0
H1854 H 0.13066 0.7262 0.30614 0.0
H1855 H 0.18698 0.63812 0.26001 0.0
H1856 H 0.15144 0.69631 0.24462 0.0
H1857 H 0.16115 0.66492 0.31969 0.0
C1858 C 0.14656 0.68778 0.33653 0.0
C1859 C 0.13775 0.7052 0.33322 0.0
C1860 C 0.15926 0.68355 0.24798 0.0
C1861 C 0.15359 0.68639 0.2933 0.0
C1862 C 0.16698 0.67383 0.22819 0.0
C1863 C 0.17716 0.65725 0.23204 0.0
C1864 C 0.16166 0.6766 0.27176 0.0
C1865 C 0.17927 0.65084 0.2561 0.0
C1866 C 0.15451 0.67839 0.31669 0.0
C1867 C 0.13731 0.71281 0.3096 0.0
N1868 N 0.17158 0.66048 0.27497 0.0
N1869 N 0.14505 0.70335 0.29056 0.0
H1870 H 0.33793 0.14565 0.36526 0.0
H1871 H 0.32933 0.19084 0.23231 0.0
H1872 H 0.28456 0.159 0.33256 0.0
H1873 H 0.37565 0.15592 0.25455 0.0
H1874 H 0.31405 0.1846 0.27161 0.0
H1875 H 0.35363 0.15555 0.32759 0.0
C1876 C 0.32956 0.15103 0.35036 0.0
C1877 C 0.30992 0.15145 0.35197 0.0
C1878 C 0.32755 0.17831 0.2678 0.0
C1879 C 0.32772 0.16265 0.30891 0.0
C1880 C 0.33624 0.18182 0.2454 0.0
C1881 C 0.3537 0.17375 0.24006 0.0
C1882 C 0.33658 0.16697 0.28512 0.0
C1883 C 0.3621 0.16227 0.25776 0.0
C1884 C 0.33849 0.15648 0.32881 0.0
C1885 C 0.29973 0.15835 0.332 0.0
N1886 N 0.35352 0.15932 0.27953 0.0
N1887 N 0.30874 0.16366 0.31127 0.0
loop_
_geom_bond_atom_site_label_1
_geom_bond_atom_site_label_2
_geom_bond_distance
_geom_bond_site_symmetry_2
_ccdc_geom_bond_type
Cu0 N1 1.999 . S
Cu0 O6 1.974 . S
Cu0 N11 1.985 . S
Cu0 O20 1.959 . S
N1 Cu0 1.999 . S
N1 C3 1.263 . S
N1 C5 1.389 . S
N2 C3 1.358 . S
N2 C4 1.400 . S
C3 N1 1.263 . S
C3 N2 1.358 . S
C3 H9 0.930 . S
C4 N2 1.400 . S
C4 C5 1.351 . S
C4 H21 0.930 . S
C5 N1 1.389 . S
C5 C4 1.351 . S
C5 H10 0.930 . S
O6 Cu0 1.974 . S
O6 C16 1.282 . S
C7 O8 1.261 . S
C7 O20 1.251 . S
O8 C7 1.261 . S
H9 C3 0.930 . S
H10 C5 0.930 . S
N11 Cu0 1.985 . S
N11 C13 1.335 . S
N11 C14 1.390 . S
N12 C13 1.345 . S
N12 C15 1.336 . S
C13 N11 1.335 . S
C13 N12 1.345 . S
C13 H18 0.930 . S
C14 N11 1.390 . S
C14 C15 1.346 . S
C14 H19 0.930 . S
C15 N12 1.336 . S
C15 C14 1.346 . S
C15 H22 0.929 . S
C16 O6 1.282 . S
C16 O17 1.216 . S
O17 C16 1.216 . S
H18 C13 0.930 . S
H19 C14 0.930 . S
O20 Cu0 1.959 . S
O20 C7 1.251 . S
H21 C4 0.930 . S
H22 C15 0.929 . S
Cu23 N24 1.999 . S
Cu23 O29 1.974 . S
Cu23 N34 1.985 . S
Cu23 O43 1.959 . S
N24 Cu23 1.999 . S
N24 C26 1.263 . S
N24 C28 1.389 . S
N25 C26 1.358 . S
N25 C27 1.400 . S
C26 N24 1.263 . S
C26 N25 1.358 . S
C26 H32 0.930 . S
C27 N25 1.400 . S
C27 C28 1.351 . S
C27 H44 0.930 . S
C28 N24 1.389 . S
C28 C27 1.351 . S
C28 H33 0.930 . S
O29 Cu23 1.974 . S
O29 C39 1.282 . S
C30 O31 1.261 . S
C30 O43 1.251 . S
O31 C30 1.261 . S
H32 C26 0.930 . S
H33 C28 0.930 . S
N34 Cu23 1.985 . S
N34 C36 1.335 . S
N34 C37 1.390 . S
N35 C36 1.345 . S
N35 C38 1.336 . S
C36 N34 1.335 . S
C36 N35 1.345 . S
C36 H41 0.930 . S
C37 N34 1.390 . S
C37 C38 1.346 . S
C37 H42 0.930 . S
C38 N35 1.336 . S
C38 C37 1.346 . S
C38 H45 0.929 . S
C39 O29 1.282 . S
C39 O40 1.216 . S
O40 C39 1.216 . S
H41 C36 0.930 . S
H42 C37 0.930 . S
O43 Cu23 1.959 . S
O43 C30 1.251 . S
H44 C27 0.930 . S
H45 C38 0.929 . S
Cu46 N47 1.999 . S
Cu46 O52 1.974 . S
Cu46 N57 1.985 . S
Cu46 O66 1.959 . S
N47 Cu46 1.999 . S
N47 C49 1.263 . S
N47 C51 1.389 . S
N48 C49 1.358 . S
N48 C50 1.400 . S
C49 N47 1.263 . S
C49 N48 1.358 . S
C49 H55 0.930 . S
C50 N48 1.400 . S
C50 C51 1.351 . S
C50 H67 0.930 . S
C51 N47 1.389 . S
C51 C50 1.351 . S
C51 H56 0.930 . S
O52 Cu46 1.974 . S
O52 C62 1.282 . S
C53 O54 1.261 . S
C53 O66 1.251 . S
O54 C53 1.261 . S
H55 C49 0.930 . S
H56 C51 0.930 . S
N57 Cu46 1.985 . S
N57 C59 1.335 . S
N57 C60 1.390 . S
N58 C59 1.345 . S
N58 C61 1.336 . S
C59 N57 1.335 . S
C59 N58 1.345 . S
C59 H64 0.930 . S
C60 N57 1.390 . S
C60 C61 1.346 . S
C60 H65 0.930 . S
C61 N58 1.336 . S
C61 C60 1.346 . S
C61 H68 0.929 . S
C62 O52 1.282 . S
C62 O63 1.216 . S
O63 C62 1.216 . S
H64 C59 0.930 . S
H65 C60 0.930 . S
O66 Cu46 1.959 . S
O66 C53 1.251 . S
H67 C50 0.930 . S
H68 C61 0.929 . S
Cu69 N70 1.999 . S
Cu69 O75 1.974 . S
Cu69 N80 1.985 . S
Cu69 O89 1.959 . S
N70 Cu69 1.999 . S
N70 C72 1.263 . S
N70 C74 1.389 . S
N71 C72 1.358 . S
N71 C73 1.400 . S
C72 N70 1.263 . S
C72 N71 1.358 . S
C72 H78 0.930 . S
C73 N71 1.400 . S
C73 C74 1.351 . S
C73 H90 0.930 . S
C74 N70 1.389 . S
C74 C73 1.351 . S
C74 H79 0.930 . S
O75 Cu69 1.974 . S
O75 C85 1.282 . S
C76 O77 1.261 . S
C76 O89 1.251 . S
O77 C76 1.261 . S
H78 C72 0.930 . S
H79 C74 0.930 . S
N80 Cu69 1.985 . S
N80 C82 1.335 . S
N80 C83 1.390 . S
N81 C82 1.345 . S
N81 C84 1.336 . S
C82 N80 1.335 . S
C82 N81 1.345 . S
C82 H87 0.930 . S
C83 N80 1.390 . S
C83 C84 1.346 . S
C83 H88 0.930 . S
C84 N81 1.336 . S
C84 C83 1.346 . S
C84 H91 0.929 . S
C85 O75 1.282 . S
C85 O86 1.216 . S
O86 C85 1.216 . S
H87 C82 0.930 . S
H88 C83 0.930 . S
O89 Cu69 1.959 . S
O89 C76 1.251 . S
H90 C73 0.930 . S
H91 C84 0.929 . S
Cu92 N93 1.999 . S
Cu92 O98 1.974 . S
Cu92 N103 1.985 . S
Cu92 O112 1.959 . S
N93 Cu92 1.999 . S
N93 C95 1.263 . S
N93 C97 1.389 . S
N94 C95 1.358 . S
N94 C96 1.400 . S
C95 N93 1.263 . S
C95 N94 1.358 . S
C95 H101 0.930 . S
C96 N94 1.400 . S
C96 C97 1.351 . S
C96 H113 0.930 . S
C97 N93 1.389 . S
C97 C96 1.351 . S
C97 H102 0.930 . S
O98 Cu92 1.974 . S
O98 C108 1.282 . S
C99 O100 1.261 . S
C99 O112 1.251 . S
O100 C99 1.261 . S
H101 C95 0.930 . S
H102 C97 0.930 . S
N103 Cu92 1.985 . S
N103 C105 1.335 . S
N103 C106 1.390 . S
N104 C105 1.345 . S
N104 C107 1.336 . S
C105 N103 1.335 . S
C105 N104 1.345 . S
C105 H110 0.930 . S
C106 N103 1.390 . S
C106 C107 1.346 . S
C106 H111 0.930 . S
C107 N104 1.336 . S
C107 C106 1.346 . S
C107 H114 0.929 . S
C108 O98 1.282 . S
C108 O109 1.216 . S
O109 C108 1.216 . S
H110 C105 0.930 . S
H111 C106 0.930 . S
O112 Cu92 1.959 . S
O112 C99 1.251 . S
H113 C96 0.930 . S
H114 C107 0.929 . S
Cu115 N116 1.999 . S
Cu115 O121 1.974 . S
Cu115 N126 1.985 . S
Cu115 O135 1.959 . S
N116 Cu115 1.999 . S
N116 C118 1.263 . S
N116 C120 1.389 . S
N117 C118 1.358 . S
N117 C119 1.400 . S
C118 N116 1.263 . S
C118 N117 1.358 . S
C118 H124 0.930 . S
C119 N117 1.400 . S
C119 C120 1.351 . S
C119 H136 0.930 . S
C120 N116 1.389 . S
C120 C119 1.351 . S
C120 H125 0.930 . S
O121 Cu115 1.974 . S
O121 C131 1.282 . S
C122 O123 1.261 . S
C122 O135 1.251 . S
O123 C122 1.261 . S
H124 C118 0.930 . S
H125 C120 0.930 . S
N126 Cu115 1.985 . S
N126 C128 1.335 . S
N126 C129 1.390 . S
N127 C128 1.345 . S
N127 C130 1.336 . S
C128 N126 1.335 . S
C128 N127 1.345 . S
C128 H133 0.930 . S
C129 N126 1.390 . S
C129 C130 1.346 . S
C129 H134 0.930 . S
C130 N127 1.336 . S
C130 C129 1.346 . S
C130 H137 0.929 . S
C131 O121 1.282 . S
C131 O132 1.216 . S
O132 C131 1.216 . S
H133 C128 0.930 . S
H134 C129 0.930 . S
O135 Cu115 1.959 . S
O135 C122 1.251 . S
H136 C119 0.930 . S
H137 C130 0.929 . S
Cu138 N139 1.999 . S
Cu138 O144 1.974 . S
Cu138 N149 1.985 . S
Cu138 O158 1.959 . S
N139 Cu138 1.999 . S
N139 C141 1.263 . S
N139 C143 1.389 . S
N140 C141 1.358 . S
N140 C142 1.400 . S
C141 N139 1.263 . S
C141 N140 1.358 . S
C141 H147 0.930 . S
C142 N140 1.400 . S
C142 C143 1.351 . S
C142 H159 0.930 . S
C143 N139 1.389 . S
C143 C142 1.351 . S
C143 H148 0.930 . S
O144 Cu138 1.974 . S
O144 C154 1.282 . S
C145 O146 1.261 . S
C145 O158 1.251 . S
O146 C145 1.261 . S
H147 C141 0.930 . S
H148 C143 0.930 . S
N149 Cu138 1.985 . S
N149 C151 1.335 . S
N149 C152 1.390 . S
N150 C151 1.345 . S
N150 C153 1.336 . S
C151 N149 1.335 . S
C151 N150 1.345 . S
C151 H156 0.930 . S
C152 N149 1.390 . S
C152 C153 1.346 . S
C152 H157 0.930 . S
C153 N150 1.336 . S
C153 C152 1.346 . S
C153 H160 0.929 . S
C154 O144 1.282 . S
C154 O155 1.216 . S
O155 C154 1.216 . S
H156 C151 0.930 . S
H157 C152 0.930 . S
O158 Cu138 1.959 . S
O158 C145 1.251 . S
H159 C142 0.930 . S
H160 C153 0.929 . S
Cu161 N162 1.999 . S
Cu161 O167 1.974 . S
Cu161 N172 1.985 . S
Cu161 O181 1.959 . S
N162 Cu161 1.999 . S
N162 C164 1.263 . S
N162 C166 1.389 . S
N163 C164 1.358 . S
N163 C165 1.400 . S
C164 N162 1.263 . S
C164 N163 1.358 . S
C164 H170 0.930 . S
C165 N163 1.400 . S
C165 C166 1.351 . S
C165 H182 0.930 . S
C166 N162 1.389 . S
C166 C165 1.351 . S
C166 H171 0.930 . S
O167 Cu161 1.974 . S
O167 C177 1.282 . S
C168 O169 1.261 . S
C168 O181 1.251 . S
O169 C168 1.261 . S
H170 C164 0.930 . S
H171 C166 0.930 . S
N172 Cu161 1.985 . S
N172 C174 1.335 . S
N172 C175 1.390 . S
N173 C174 1.345 . S
N173 C176 1.336 . S
C174 N172 1.335 . S
C174 N173 1.345 . S
C174 H179 0.930 . S
C175 N172 1.390 . S
C175 C176 1.346 . S
C175 H180 0.930 . S
C176 N173 1.336 . S
C176 C175 1.346 . S
C176 H183 0.929 . S
C177 O167 1.282 . S
C177 O178 1.216 . S
O178 C177 1.216 . S
H179 C174 0.930 . S
H180 C175 0.930 . S
O181 Cu161 1.959 . S
O181 C168 1.251 . S
H182 C165 0.930 . S
H183 C176 0.929 . S
Cu184 N185 1.999 . S
Cu184 O190 1.974 . S
Cu184 N195 1.985 . S
Cu184 O204 1.959 . S
N185 Cu184 1.999 . S
N185 C187 1.263 . S
N185 C189 1.389 . S
N186 C187 1.358 . S
N186 C188 1.400 . S
C187 N185 1.263 . S
C187 N186 1.358 . S
C187 H193 0.930 . S
C188 N186 1.400 . S
C188 C189 1.351 . S
C188 H205 0.930 . S
C189 N185 1.389 . S
C189 C188 1.351 . S
C189 H194 0.930 . S
O190 Cu184 1.974 . S
O190 C200 1.282 . S
C191 O192 1.261 . S
C191 O204 1.251 . S
O192 C191 1.261 . S
H193 C187 0.930 . S
H194 C189 0.930 . S
N195 Cu184 1.985 . S
N195 C197 1.335 . S
N195 C198 1.390 . S
N196 C197 1.345 . S
N196 C199 1.336 . S
C197 N195 1.335 . S
C197 N196 1.345 . S
C197 H202 0.930 . S
C198 N195 1.390 . S
C198 C199 1.346 . S
C198 H203 0.930 . S
C199 N196 1.336 . S
C199 C198 1.346 . S
C199 H206 0.929 . S
C200 O190 1.282 . S
C200 O201 1.216 . S
O201 C200 1.216 . S
H202 C197 0.930 . S
H203 C198 0.930 . S
O204 Cu184 1.959 . S
O204 C191 1.251 . S
H205 C188 0.930 . S
H206 C199 0.929 . S
Cu207 N208 1.999 . S
Cu207 O213 1.974 . S
Cu207 N218 1.985 . S
Cu207 O227 1.959 . S
N208 Cu207 1.999 . S
N208 C210 1.263 . S
N208 C212 1.389 . S
N209 C210 1.358 . S
N209 C211 1.400 . S
C210 N208 1.263 . S
C210 N209 1.358 . S
C210 H216 0.930 . S
C211 N209 1.400 . S
C211 C212 1.351 . S
C211 H228 0.930 . S
C212 N208 1.389 . S
C212 C211 1.351 . S
C212 H217 0.930 . S
O213 Cu207 1.974 . S
O213 C223 1.282 . S
C214 O215 1.261 . S
C214 O227 1.251 . S
O215 C214 1.261 . S
H216 C210 0.930 . S
H217 C212 0.930 . S
N218 Cu207 1.985 . S
N218 C220 1.335 . S
N218 C221 1.390 . S
N219 C220 1.345 . S
N219 C222 1.336 . S
C220 N218 1.335 . S
C220 N219 1.345 . S
C220 H225 0.930 . S
C221 N218 1.390 . S
C221 C222 1.346 . S
C221 H226 0.930 . S
C222 N219 1.336 . S
C222 C221 1.346 . S
C222 H229 0.929 . S
C223 O213 1.282 . S
C223 O224 1.216 . S
O224 C223 1.216 . S
H225 C220 0.930 . S
H226 C221 0.930 . S
O227 Cu207 1.959 . S
O227 C214 1.251 . S
H228 C211 0.930 . S
H229 C222 0.929 . S
Cu230 N231 1.999 . S
Cu230 O236 1.974 . S
Cu230 N241 1.985 . S
Cu230 O250 1.959 . S
N231 Cu230 1.999 . S
N231 C233 1.263 . S
N231 C235 1.389 . S
N232 C233 1.358 . S
N232 C234 1.400 . S
C233 N231 1.263 . S
C233 N232 1.358 . S
C233 H239 0.930 . S
C234 N232 1.400 . S
C234 C235 1.351 . S
C234 H251 0.930 . S
C235 N231 1.389 . S
C235 C234 1.351 . S
C235 H240 0.930 . S
O236 Cu230 1.974 . S
O236 C246 1.282 . S
C237 O238 1.261 . S
C237 O250 1.251 . S
O238 C237 1.261 . S
H239 C233 0.930 . S
H240 C235 0.930 . S
N241 Cu230 1.985 . S
N241 C243 1.335 . S
N241 C244 1.390 . S
N242 C243 1.345 . S
N242 C245 1.336 . S
C243 N241 1.335 . S
C243 N242 1.345 . S
C243 H248 0.930 . S
C244 N241 1.390 . S
C244 C245 1.346 . S
C244 H249 0.930 . S
C245 N242 1.336 . S
C245 C244 1.346 . S
C245 H252 0.929 . S
C246 O236 1.282 . S
C246 O247 1.216 . S
O247 C246 1.216 . S
H248 C243 0.930 . S
H249 C244 0.930 . S
O250 Cu230 1.959 . S
O250 C237 1.251 . S
H251 C234 0.930 . S
H252 C245 0.929 . S
Cu253 N254 1.999 . S
Cu253 O259 1.974 . S
Cu253 N264 1.985 . S
Cu253 O273 1.959 . S
N254 Cu253 1.999 . S
N254 C256 1.263 . S
N254 C258 1.389 . S
N255 C256 1.358 . S
N255 C257 1.400 . S
C256 N254 1.263 . S
C256 N255 1.358 . S
C256 H262 0.930 . S
C257 N255 1.400 . S
C257 C258 1.351 . S
C257 H274 0.930 . S
C258 N254 1.389 . S
C258 C257 1.351 . S
C258 H263 0.930 . S
O259 Cu253 1.974 . S
O259 C269 1.282 . S
C260 O261 1.261 . S
C260 O273 1.251 . S
O261 C260 1.261 . S
H262 C256 0.930 . S
H263 C258 0.930 . S
N264 Cu253 1.985 . S
N264 C266 1.335 . S
N264 C267 1.390 . S
N265 C266 1.345 . S
N265 C268 1.336 . S
C266 N264 1.335 . S
C266 N265 1.345 . S
C266 H271 0.930 . S
C267 N264 1.390 . S
C267 C268 1.346 . S
C267 H272 0.930 . S
C268 N265 1.336 . S
C268 C267 1.346 . S
C268 H275 0.929 . S
C269 O259 1.282 . S
C269 O270 1.216 . S
O270 C269 1.216 . S
H271 C266 0.930 . S
H272 C267 0.930 . S
O273 Cu253 1.959 . S
O273 C260 1.251 . S
H274 C257 0.930 . S
H275 C268 0.929 . S
Cu276 N277 1.999 . S
Cu276 O282 1.974 . S
Cu276 N287 1.985 . S
Cu276 O296 1.959 . S
N277 Cu276 1.999 . S
N277 C279 1.263 . S
N277 C281 1.389 . S
N278 C279 1.358 . S
N278 C280 1.400 . S
C279 N277 1.263 . S
C279 N278 1.358 . S
C279 H285 0.930 . S
C280 N278 1.400 . S
C280 C281 1.351 . S
C280 H297 0.930 . S
C281 N277 1.389 . S
C281 C280 1.351 . S
C281 H286 0.930 . S
O282 Cu276 1.974 . S
O282 C292 1.282 . S
C283 O284 1.261 . S
C283 O296 1.251 . S
O284 C283 1.261 . S
H285 C279 0.930 . S
H286 C281 0.930 . S
N287 Cu276 1.985 . S
N287 C289 1.335 . S
N287 C290 1.390 . S
N288 C289 1.345 . S
N288 C291 1.336 . S
C289 N287 1.335 . S
C289 N288 1.345 . S
C289 H294 0.930 . S
C290 N287 1.390 . S
C290 C291 1.346 . S
C290 H295 0.930 . S
C291 N288 1.336 . S
C291 C290 1.346 . S
C291 H298 0.929 . S
C292 O282 1.282 . S
C292 O293 1.216 . S
O293 C292 1.216 . S
H294 C289 0.930 . S
H295 C290 0.930 . S
O296 Cu276 1.959 . S
O296 C283 1.251 . S
H297 C280 0.930 . S
H298 C291 0.929 . S
Cu299 N300 1.999 . S
Cu299 O305 1.974 . S
Cu299 N310 1.985 . S
Cu299 O319 1.959 . S
N300 Cu299 1.999 . S
N300 C302 1.263 . S
N300 C304 1.389 . S
N301 C302 1.358 . S
N301 C303 1.400 . S
C302 N300 1.263 . S
C302 N301 1.358 . S
C302 H308 0.930 . S
C303 N301 1.400 . S
C303 C304 1.351 . S
C303 H320 0.930 . S
C304 N300 1.389 . S
C304 C303 1.351 . S
C304 H309 0.930 . S
O305 Cu299 1.974 . S
O305 C315 1.282 . S
C306 O307 1.261 . S
C306 O319 1.251 . S
O307 C306 1.261 . S
H308 C302 0.930 . S
H309 C304 0.930 . S
N310 Cu299 1.985 . S
N310 C312 1.335 . S
N310 C313 1.390 . S
N311 C312 1.345 . S
N311 C314 1.336 . S
C312 N310 1.335 . S
C312 N311 1.345 . S
C312 H317 0.930 . S
C313 N310 1.390 . S
C313 C314 1.346 . S
C313 H318 0.930 . S
C314 N311 1.336 . S
C314 C313 1.346 . S
C314 H321 0.929 . S
C315 O305 1.282 . S
C315 O316 1.216 . S
O316 C315 1.216 . S
H317 C312 0.930 . S
H318 C313 0.930 . S
O319 Cu299 1.959 . S
O319 C306 1.251 . S
H320 C303 0.930 . S
H321 C314 0.929 . S
Cu322 N323 1.999 . S
Cu322 O328 1.974 . S
Cu322 N333 1.985 . S
Cu322 O342 1.959 . S
N323 Cu322 1.999 . S
N323 C325 1.263 . S
N323 C327 1.389 . S
N324 C325 1.358 . S
N324 C326 1.400 . S
C325 N323 1.263 . S
C325 N324 1.358 . S
C325 H331 0.930 . S
C326 N324 1.400 . S
C326 C327 1.351 . S
C326 H343 0.930 . S
C327 N323 1.389 . S
C327 C326 1.351 . S
C327 H332 0.930 . S
O328 Cu322 1.974 . S
O328 C338 1.282 . S
C329 O330 1.261 . S
C329 O342 1.251 . S
O330 C329 1.261 . S
H331 C325 0.930 . S
H332 C327 0.930 . S
N333 Cu322 1.985 . S
N333 C335 1.335 . S
N333 C336 1.390 . S
N334 C335 1.345 . S
N334 C337 1.336 . S
C335 N333 1.335 . S
C335 N334 1.345 . S
C335 H340 0.930 . S
C336 N333 1.390 . S
C336 C337 1.346 . S
C336 H341 0.930 . S
C337 N334 1.336 . S
C337 C336 1.346 . S
C337 H344 0.929 . S
C338 O328 1.282 . S
C338 O339 1.216 . S
O339 C338 1.216 . S
H340 C335 0.930 . S
H341 C336 0.930 . S
O342 Cu322 1.959 . S
O342 C329 1.251 . S
H343 C326 0.930 . S
H344 C337 0.929 . S
Cu345 N346 1.999 . S
Cu345 O351 1.974 . S
Cu345 N356 1.985 . S
Cu345 O365 1.959 . S
N346 Cu345 1.999 . S
N346 C348 1.263 . S
N346 C350 1.389 . S
N347 C348 1.358 . S
N347 C349 1.400 . S
C348 N346 1.263 . S
C348 N347 1.358 . S
C348 H354 0.930 . S
C349 N347 1.400 . S
C349 C350 1.351 . S
C349 H366 0.930 . S
C350 N346 1.389 . S
C350 C349 1.351 . S
C350 H355 0.930 . S
O351 Cu345 1.974 . S
O351 C361 1.282 . S
C352 O353 1.261 . S
C352 O365 1.251 . S
O353 C352 1.261 . S
H354 C348 0.930 . S
H355 C350 0.930 . S
N356 Cu345 1.985 . S
N356 C358 1.335 . S
N356 C359 1.390 . S
N357 C358 1.345 . S
N357 C360 1.336 . S
C358 N356 1.335 . S
C358 N357 1.345 . S
C358 H363 0.930 . S
C359 N356 1.390 . S
C359 C360 1.346 . S
C359 H364 0.930 . S
C360 N357 1.336 . S
C360 C359 1.346 . S
C360 H367 0.929 . S
C361 O351 1.282 . S
C361 O362 1.216 . S
O362 C361 1.216 . S
H363 C358 0.930 . S
H364 C359 0.930 . S
O365 Cu345 1.959 . S
O365 C352 1.251 . S
H366 C349 0.930 . S
H367 C360 0.929 . S
Cu368 N369 1.999 . S
Cu368 O374 1.974 . S
Cu368 N379 1.985 . S
Cu368 O388 1.959 . S
N369 Cu368 1.999 . S
N369 C371 1.263 . S
N369 C373 1.389 . S
N370 C371 1.358 . S
N370 C372 1.400 . S
C371 N369 1.263 . S
C371 N370 1.358 . S
C371 H377 0.930 . S
C372 N370 1.400 . S
C372 C373 1.351 . S
C372 H389 0.930 . S
C373 N369 1.389 . S
C373 C372 1.351 . S
C373 H378 0.930 . S
O374 Cu368 1.974 . S
O374 C384 1.282 . S
C375 O376 1.261 . S
C375 O388 1.251 . S
O376 C375 1.261 . S
H377 C371 0.930 . S
H378 C373 0.930 . S
N379 Cu368 1.985 . S
N379 C381 1.335 . S
N379 C382 1.390 . S
N380 C381 1.345 . S
N380 C383 1.336 . S
C381 N379 1.335 . S
C381 N380 1.345 . S
C381 H386 0.930 . S
C382 N379 1.390 . S
C382 C383 1.346 . S
C382 H387 0.930 . S
C383 N380 1.336 . S
C383 C382 1.346 . S
C383 H390 0.929 . S
C384 O374 1.282 . S
C384 O385 1.216 . S
O385 C384 1.216 . S
H386 C381 0.930 . S
H387 C382 0.930 . S
O388 Cu368 1.959 . S
O388 C375 1.251 . S
H389 C372 0.930 . S
H390 C383 0.929 . S
Cu391 N392 1.999 . S
Cu391 O397 1.974 . S
Cu391 N402 1.985 . S
Cu391 O411 1.959 . S
N392 Cu391 1.999 . S
N392 C394 1.263 . S
N392 C396 1.389 . S
N393 C394 1.358 . S
N393 C395 1.400 . S
C394 N392 1.263 . S
C394 N393 1.358 . S
C394 H400 0.930 . S
C395 N393 1.400 . S
C395 C396 1.351 . S
C395 H412 0.930 . S
C396 N392 1.389 . S
C396 C395 1.351 . S
C396 H401 0.930 . S
O397 Cu391 1.974 . S
O397 C407 1.282 . S
C398 O399 1.261 . S
C398 O411 1.251 . S
O399 C398 1.261 . S
H400 C394 0.930 . S
H401 C396 0.930 . S
N402 Cu391 1.985 . S
N402 C404 1.335 . S
N402 C405 1.390 . S
N403 C404 1.345 . S
N403 C406 1.336 . S
C404 N402 1.335 . S
C404 N403 1.345 . S
C404 H409 0.930 . S
C405 N402 1.390 . S
C405 C406 1.346 . S
C405 H410 0.930 . S
C406 N403 1.336 . S
C406 C405 1.346 . S
C406 H413 0.929 . S
C407 O397 1.282 . S
C407 O408 1.216 . S
O408 C407 1.216 . S
H409 C404 0.930 . S
H410 C405 0.930 . S
O411 Cu391 1.959 . S
O411 C398 1.251 . S
H412 C395 0.930 . S
H413 C406 0.929 . S
Cu414 N415 1.999 . S
Cu414 O420 1.974 . S
Cu414 N425 1.985 . S
Cu414 O434 1.959 . S
N415 Cu414 1.999 . S
N415 C417 1.263 . S
N415 C419 1.389 . S
N416 C417 1.358 . S
N416 C418 1.400 . S
C417 N415 1.263 . S
C417 N416 1.358 . S
C417 H423 0.930 . S
C418 N416 1.400 . S
C418 C419 1.351 . S
C418 H435 0.930 . S
C419 N415 1.389 . S
C419 C418 1.351 . S
C419 H424 0.930 . S
O420 Cu414 1.974 . S
O420 C430 1.282 . S
C421 O422 1.261 . S
C421 O434 1.251 . S
O422 C421 1.261 . S
H423 C417 0.930 . S
H424 C419 0.930 . S
N425 Cu414 1.985 . S
N425 C427 1.335 . S
N425 C428 1.390 . S
N426 C427 1.345 . S
N426 C429 1.336 . S
C427 N425 1.335 . S
C427 N426 1.345 . S
C427 H432 0.930 . S
C428 N425 1.390 . S
C428 C429 1.346 . S
C428 H433 0.930 . S
C429 N426 1.336 . S
C429 C428 1.346 . S
C429 H436 0.929 . S
C430 O420 1.282 . S
C430 O431 1.216 . S
O431 C430 1.216 . S
H432 C427 0.930 . S
H433 C428 0.930 . S
O434 Cu414 1.959 . S
O434 C421 1.251 . S
H435 C418 0.930 . S
H436 C429 0.929 . S
Cu437 N438 1.999 . S
Cu437 O443 1.974 . S
Cu437 N448 1.985 . S
Cu437 O457 1.959 . S
N438 Cu437 1.999 . S
N438 C440 1.263 . S
N438 C442 1.389 . S
N439 C440 1.358 . S
N439 C441 1.400 . S
C440 N438 1.263 . S
C440 N439 1.358 . S
C440 H446 0.930 . S
C441 N439 1.400 . S
C441 C442 1.351 . S
C441 H458 0.930 . S
C442 N438 1.389 . S
C442 C441 1.351 . S
C442 H447 0.930 . S
O443 Cu437 1.974 . S
O443 C453 1.282 . S
C444 O445 1.261 . S
C444 O457 1.251 . S
O445 C444 1.261 . S
H446 C440 0.930 . S
H447 C442 0.930 . S
N448 Cu437 1.985 . S
N448 C450 1.335 . S
N448 C451 1.390 . S
N449 C450 1.345 . S
N449 C452 1.336 . S
C450 N448 1.335 . S
C450 N449 1.345 . S
C450 H455 0.930 . S
C451 N448 1.390 . S
C451 C452 1.346 . S
C451 H456 0.930 . S
C452 N449 1.336 . S
C452 C451 1.346 . S
C452 H459 0.929 . S
C453 O443 1.282 . S
C453 O454 1.216 . S
O454 C453 1.216 . S
H455 C450 0.930 . S
H456 C451 0.930 . S
O457 Cu437 1.959 . S
O457 C444 1.251 . S
H458 C441 0.930 . S
H459 C452 0.929 . S
Cu460 N461 1.999 . S
Cu460 O466 1.974 . S
Cu460 N471 1.985 . S
Cu460 O480 1.959 . S
N461 Cu460 1.999 . S
N461 C463 1.263 . S
N461 C465 1.389 . S
N462 C463 1.358 . S
N462 C464 1.400 . S
C463 N461 1.263 . S
C463 N462 1.358 . S
C463 H469 0.930 . S
C464 N462 1.400 . S
C464 C465 1.351 . S
C464 H481 0.930 . S
C465 N461 1.389 . S
C465 C464 1.351 . S
C465 H470 0.930 . S
O466 Cu460 1.974 . S
O466 C476 1.282 . S
C467 O468 1.261 . S
C467 O480 1.251 . S
O468 C467 1.261 . S
H469 C463 0.930 . S
H470 C465 0.930 . S
N471 Cu460 1.985 . S
N471 C473 1.335 . S
N471 C474 1.390 . S
N472 C473 1.345 . S
N472 C475 1.336 . S
C473 N471 1.335 . S
C473 N472 1.345 . S
C473 H478 0.930 . S
C474 N471 1.390 . S
C474 C475 1.346 . S
C474 H479 0.930 . S
C475 N472 1.336 . S
C475 C474 1.346 . S
C475 H482 0.929 . S
C476 O466 1.282 . S
C476 O477 1.216 . S
O477 C476 1.216 . S
H478 C473 0.930 . S
H479 C474 0.930 . S
O480 Cu460 1.959 . S
O480 C467 1.251 . S
H481 C464 0.930 . S
H482 C475 0.929 . S
Cu483 N484 1.999 . S
Cu483 O489 1.974 . S
Cu483 N494 1.985 . S
Cu483 O503 1.959 . S
N484 Cu483 1.999 . S
N484 C486 1.263 . S
N484 C488 1.389 . S
N485 C486 1.358 . S
N485 C487 1.400 . S
C486 N484 1.263 . S
C486 N485 1.358 . S
C486 H492 0.930 . S
C487 N485 1.400 . S
C487 C488 1.351 . S
C487 H504 0.930 . S
C488 N484 1.389 . S
C488 C487 1.351 . S
C488 H493 0.930 . S
O489 Cu483 1.974 . S
O489 C499 1.282 . S
C490 O491 1.261 . S
C490 O503 1.251 . S
O491 C490 1.261 . S
H492 C486 0.930 . S
H493 C488 0.930 . S
N494 Cu483 1.985 . S
N494 C496 1.335 . S
N494 C497 1.390 . S
N495 C496 1.345 . S
N495 C498 1.336 . S
C496 N494 1.335 . S
C496 N495 1.345 . S
C496 H501 0.930 . S
C497 N494 1.390 . S
C497 C498 1.346 . S
C497 H502 0.930 . S
C498 N495 1.336 . S
C498 C497 1.346 . S
C498 H505 0.929 . S
C499 O489 1.282 . S
C499 O500 1.216 . S
O500 C499 1.216 . S
H501 C496 0.930 . S
H502 C497 0.930 . S
O503 Cu483 1.959 . S
O503 C490 1.251 . S
H504 C487 0.930 . S
H505 C498 0.929 . S
Cu506 N507 1.999 . S
Cu506 O512 1.974 . S
Cu506 N517 1.985 . S
Cu506 O526 1.959 . S
N507 Cu506 1.999 . S
N507 C509 1.263 . S
N507 C511 1.389 . S
N508 C509 1.358 . S
N508 C510 1.400 . S
C509 N507 1.263 . S
C509 N508 1.358 . S
C509 H515 0.930 . S
C510 N508 1.400 . S
C510 C511 1.351 . S
C510 H527 0.930 . S
C511 N507 1.389 . S
C511 C510 1.351 . S
C511 H516 0.930 . S
O512 Cu506 1.974 . S
O512 C522 1.282 . S
C513 O514 1.261 . S
C513 O526 1.251 . S
O514 C513 1.261 . S
H515 C509 0.930 . S
H516 C511 0.930 . S
N517 Cu506 1.985 . S
N517 C519 1.335 . S
N517 C520 1.390 . S
N518 C519 1.345 . S
N518 C521 1.336 . S
C519 N517 1.335 . S
C519 N518 1.345 . S
C519 H524 0.930 . S
C520 N517 1.390 . S
C520 C521 1.346 . S
C520 H525 0.930 . S
C521 N518 1.336 . S
C521 C520 1.346 . S
C521 H528 0.929 . S
C522 O512 1.282 . S
C522 O523 1.216 . S
O523 C522 1.216 . S
H524 C519 0.930 . S
H525 C520 0.930 . S
O526 Cu506 1.959 . S
O526 C513 1.251 . S
H527 C510 0.930 . S
H528 C521 0.929 . S
Cu529 N530 1.999 . S
Cu529 O535 1.974 . S
Cu529 N540 1.985 . S
Cu529 O549 1.959 . S
N530 Cu529 1.999 . S
N530 C532 1.263 . S
N530 C534 1.389 . S
N531 C532 1.358 . S
N531 C533 1.400 . S
C532 N530 1.263 . S
C532 N531 1.358 . S
C532 H538 0.930 . S
C533 N531 1.400 . S
C533 C534 1.351 . S
C533 H550 0.930 . S
C534 N530 1.389 . S
C534 C533 1.351 . S
C534 H539 0.930 . S
O535 Cu529 1.974 . S
O535 C545 1.282 . S
C536 O537 1.261 . S
C536 O549 1.251 . S
O537 C536 1.261 . S
H538 C532 0.930 . S
H539 C534 0.930 . S
N540 Cu529 1.985 . S
N540 C542 1.335 . S
N540 C543 1.390 . S
N541 C542 1.345 . S
N541 C544 1.336 . S
C542 N540 1.335 . S
C542 N541 1.345 . S
C542 H547 0.930 . S
C543 N540 1.390 . S
C543 C544 1.346 . S
C543 H548 0.930 . S
C544 N541 1.336 . S
C544 C543 1.346 . S
C544 H551 0.929 . S
C545 O535 1.282 . S
C545 O546 1.216 . S
O546 C545 1.216 . S
H547 C542 0.930 . S
H548 C543 0.930 . S
O549 Cu529 1.959 . S
O549 C536 1.251 . S
H550 C533 0.930 . S
H551 C544 0.929 . S
Cu552 N553 1.999 . S
Cu552 O558 1.974 . S
Cu552 N563 1.985 . S
Cu552 O572 1.959 . S
N553 Cu552 1.999 . S
N553 C555 1.263 . S
N553 C557 1.389 . S
N554 C555 1.358 . S
N554 C556 1.400 . S
C555 N553 1.263 . S
C555 N554 1.358 . S
C555 H561 0.930 . S
C556 N554 1.400 . S
C556 C557 1.351 . S
C556 H573 0.930 . S
C557 N553 1.389 . S
C557 C556 1.351 . S
C557 H562 0.930 . S
O558 Cu552 1.974 . S
O558 C568 1.282 . S
C559 O560 1.261 . S
C559 O572 1.251 . S
O560 C559 1.261 . S
H561 C555 0.930 . S
H562 C557 0.930 . S
N563 Cu552 1.985 . S
N563 C565 1.335 . S
N563 C566 1.390 . S
N564 C565 1.345 . S
N564 C567 1.336 . S
C565 N563 1.335 . S
C565 N564 1.345 . S
C565 H570 0.930 . S
C566 N563 1.390 . S
C566 C567 1.346 . S
C566 H571 0.930 . S
C567 N564 1.336 . S
C567 C566 1.346 . S
C567 H574 0.929 . S
C568 O558 1.282 . S
C568 O569 1.216 . S
O569 C568 1.216 . S
H570 C565 0.930 . S
H571 C566 0.930 . S
O572 Cu552 1.959 . S
O572 C559 1.251 . S
H573 C556 0.930 . S
H574 C567 0.929 . S
Cu575 N576 1.999 . S
Cu575 O581 1.974 . S
Cu575 N586 1.985 . S
Cu575 O595 1.959 . S
N576 Cu575 1.999 . S
N576 C578 1.263 . S
N576 C580 1.389 . S
N577 C578 1.358 . S
N577 C579 1.400 . S
C578 N576 1.263 . S
C578 N577 1.358 . S
C578 H584 0.930 . S
C579 N577 1.400 . S
C579 C580 1.351 . S
C579 H596 0.930 . S
C580 N576 1.389 . S
C580 C579 1.351 . S
C580 H585 0.930 . S
O581 Cu575 1.974 . S
O581 C591 1.282 . S
C582 O583 1.261 . S
C582 O595 1.251 . S
O583 C582 1.261 . S
H584 C578 0.930 . S
H585 C580 0.930 . S
N586 Cu575 1.985 . S
N586 C588 1.335 . S
N586 C589 1.390 . S
N587 C588 1.345 . S
N587 C590 1.336 . S
C588 N586 1.335 . S
C588 N587 1.345 . S
C588 H593 0.930 . S
C589 N586 1.390 . S
C589 C590 1.346 . S
C589 H594 0.930 . S
C590 N587 1.336 . S
C590 C589 1.346 . S
C590 H597 0.929 . S
C591 O581 1.282 . S
C591 O592 1.216 . S
O592 C591 1.216 . S
H593 C588 0.930 . S
H594 C589 0.930 . S
O595 Cu575 1.959 . S
O595 C582 1.251 . S
H596 C579 0.930 . S
H597 C590 0.929 . S
Cu598 N599 1.999 . S
Cu598 O604 1.974 . S
Cu598 N609 1.985 . S
Cu598 O618 1.959 . S
N599 Cu598 1.999 . S
N599 C601 1.263 . S
N599 C603 1.389 . S
N600 C601 1.358 . S
N600 C602 1.400 . S
C601 N599 1.263 . S
C601 N600 1.358 . S
C601 H607 0.930 . S
C602 N600 1.400 . S
C602 C603 1.351 . S
C602 H619 0.930 . S
C603 N599 1.389 . S
C603 C602 1.351 . S
C603 H608 0.930 . S
O604 Cu598 1.974 . S
O604 C614 1.282 . S
C605 O606 1.261 . S
C605 O618 1.251 . S
O606 C605 1.261 . S
H607 C601 0.930 . S
H608 C603 0.930 . S
N609 Cu598 1.985 . S
N609 C611 1.335 . S
N609 C612 1.390 . S
N610 C611 1.345 . S
N610 C613 1.336 . S
C611 N609 1.335 . S
C611 N610 1.345 . S
C611 H616 0.930 . S
C612 N609 1.390 . S
C612 C613 1.346 . S
C612 H617 0.930 . S
C613 N610 1.336 . S
C613 C612 1.346 . S
C613 H620 0.929 . S
C614 O604 1.282 . S
C614 O615 1.216 . S
O615 C614 1.216 . S
H616 C611 0.930 . S
H617 C612 0.930 . S
O618 Cu598 1.959 . S
O618 C605 1.251 . S
H619 C602 0.930 . S
H620 C613 0.929 . S
Cu621 N622 1.999 . S
Cu621 O627 1.974 . S
Cu621 N632 1.985 . S
Cu621 O641 1.959 . S
N622 Cu621 1.999 . S
N622 C624 1.263 . S
N622 C626 1.389 . S
N623 C624 1.358 . S
N623 C625 1.400 . S
C624 N622 1.263 . S
C624 N623 1.358 . S
C624 H630 0.930 . S
C625 N623 1.400 . S
C625 C626 1.351 . S
C625 H642 0.930 . S
C626 N622 1.389 . S
C626 C625 1.351 . S
C626 H631 0.930 . S
O627 Cu621 1.974 . S
O627 C637 1.282 . S
C628 O629 1.261 . S
C628 O641 1.251 . S
O629 C628 1.261 . S
H630 C624 0.930 . S
H631 C626 0.930 . S
N632 Cu621 1.985 . S
N632 C634 1.335 . S
N632 C635 1.390 . S
N633 C634 1.345 . S
N633 C636 1.336 . S
C634 N632 1.335 . S
C634 N633 1.345 . S
C634 H639 0.930 . S
C635 N632 1.390 . S
C635 C636 1.346 . S
C635 H640 0.930 . S
C636 N633 1.336 . S
C636 C635 1.346 . S
C636 H643 0.929 . S
C637 O627 1.282 . S
C637 O638 1.216 . S
O638 C637 1.216 . S
H639 C634 0.930 . S
H640 C635 0.930 . S
O641 Cu621 1.959 . S
O641 C628 1.251 . S
H642 C625 0.930 . S
H643 C636 0.929 . S
Cu644 N645 1.999 . S
Cu644 O650 1.974 . S
Cu644 N655 1.985 . S
Cu644 O664 1.959 . S
N645 Cu644 1.999 . S
N645 C647 1.263 . S
N645 C649 1.389 . S
N646 C647 1.358 . S
N646 C648 1.400 . S
C647 N645 1.263 . S
C647 N646 1.358 . S
C647 H653 0.930 . S
C648 N646 1.400 . S
C648 C649 1.351 . S
C648 H665 0.930 . S
C649 N645 1.389 . S
C649 C648 1.351 . S
C649 H654 0.930 . S
O650 Cu644 1.974 . S
O650 C660 1.282 . S
C651 O652 1.261 . S
C651 O664 1.251 . S
O652 C651 1.261 . S
H653 C647 0.930 . S
H654 C649 0.930 . S
N655 Cu644 1.985 . S
N655 C657 1.335 . S
N655 C658 1.390 . S
N656 C657 1.345 . S
N656 C659 1.336 . S
C657 N655 1.335 . S
C657 N656 1.345 . S
C657 H662 0.930 . S
C658 N655 1.390 . S
C658 C659 1.346 . S
C658 H663 0.930 . S
C659 N656 1.336 . S
C659 C658 1.346 . S
C659 H666 0.929 . S
C660 O650 1.282 . S
C660 O661 1.216 . S
O661 C660 1.216 . S
H662 C657 0.930 . S
H663 C658 0.930 . S
O664 Cu644 1.959 . S
O664 C651 1.251 . S
H665 C648 0.930 . S
H666 C659 0.929 . S
Cu667 N668 1.999 . S
Cu667 O673 1.974 . S
Cu667 N678 1.985 . S
Cu667 O687 1.959 . S
N668 Cu667 1.999 . S
N668 C670 1.263 . S
N668 C672 1.389 . S
N669 C670 1.358 . S
N669 C671 1.400 . S
C670 N668 1.263 . S
C670 N669 1.358 . S
C670 H676 0.930 . S
C671 N669 1.400 . S
C671 C672 1.351 . S
C671 H688 0.930 . S
C672 N668 1.389 . S
C672 C671 1.351 . S
C672 H677 0.930 . S
O673 Cu667 1.974 . S
O673 C683 1.282 . S
C674 O675 1.261 . S
C674 O687 1.251 . S
O675 C674 1.261 . S
H676 C670 0.930 . S
H677 C672 0.930 . S
N678 Cu667 1.985 . S
N678 C680 1.335 . S
N678 C681 1.390 . S
N679 C680 1.345 . S
N679 C682 1.336 . S
C680 N678 1.335 . S
C680 N679 1.345 . S
C680 H685 0.930 . S
C681 N678 1.390 . S
C681 C682 1.346 . S
C681 H686 0.930 . S
C682 N679 1.336 . S
C682 C681 1.346 . S
C682 H689 0.929 . S
C683 O673 1.282 . S
C683 O684 1.216 . S
O684 C683 1.216 . S
H685 C680 0.930 . S
H686 C681 0.930 . S
O687 Cu667 1.959 . S
O687 C674 1.251 . S
H688 C671 0.930 . S
H689 C682 0.929 . S
Cu690 N691 1.999 . S
Cu690 O696 1.974 . S
Cu690 N701 1.985 . S
Cu690 O710 1.959 . S
N691 Cu690 1.999 . S
N691 C693 1.263 . S
N691 C695 1.389 . S
N692 C693 1.358 . S
N692 C694 1.400 . S
C693 N691 1.263 . S
C693 N692 1.358 . S
C693 H699 0.930 . S
C694 N692 1.400 . S
C694 C695 1.351 . S
C694 H711 0.930 . S
C695 N691 1.389 . S
C695 C694 1.351 . S
C695 H700 0.930 . S
O696 Cu690 1.974 . S
O696 C706 1.282 . S
C697 O698 1.261 . S
C697 O710 1.251 . S
O698 C697 1.261 . S
H699 C693 0.930 . S
H700 C695 0.930 . S
N701 Cu690 1.985 . S
N701 C703 1.335 . S
N701 C704 1.390 . S
N702 C703 1.345 . S
N702 C705 1.336 . S
C703 N701 1.335 . S
C703 N702 1.345 . S
C703 H708 0.930 . S
C704 N701 1.390 . S
C704 C705 1.346 . S
C704 H709 0.930 . S
C705 N702 1.336 . S
C705 C704 1.346 . S
C705 H712 0.929 . S
C706 O696 1.282 . S
C706 O707 1.216 . S
O707 C706 1.216 . S
H708 C703 0.930 . S
H709 C704 0.930 . S
O710 Cu690 1.959 . S
O710 C697 1.251 . S
H711 C694 0.930 . S
H712 C705 0.929 . S
Cu713 N714 1.999 . S
Cu713 O719 1.974 . S
Cu713 N724 1.985 . S
Cu713 O733 1.959 . S
N714 Cu713 1.999 . S
N714 C716 1.263 . S
N714 C718 1.389 . S
N715 C716 1.358 . S
N715 C717 1.400 . S
C716 N714 1.263 . S
C716 N715 1.358 . S
C716 H722 0.930 . S
C717 N715 1.400 . S
C717 C718 1.351 . S
C717 H734 0.930 . S
C718 N714 1.389 . S
C718 C717 1.351 . S
C718 H723 0.930 . S
O719 Cu713 1.974 . S
O719 C729 1.282 . S
C720 O721 1.261 . S
C720 O733 1.251 . S
O721 C720 1.261 . S
H722 C716 0.930 . S
H723 C718 0.930 . S
N724 Cu713 1.985 . S
N724 C726 1.335 . S
N724 C727 1.390 . S
N725 C726 1.345 . S
N725 C728 1.336 . S
C726 N724 1.335 . S
C726 N725 1.345 . S
C726 H731 0.930 . S
C727 N724 1.390 . S
C727 C728 1.346 . S
C727 H732 0.930 . S
C728 N725 1.336 . S
C728 C727 1.346 . S
C728 H735 0.929 . S
C729 O719 1.282 . S
C729 O730 1.216 . S
O730 C729 1.216 . S
H731 C726 0.930 . S
H732 C727 0.930 . S
O733 Cu713 1.959 . S
O733 C720 1.251 . S
H734 C717 0.930 . S
H735 C728 0.929 . S
H736 C742 0.930 . S
H737 C746 0.930 . S
H738 C751 0.929 . S
H739 C749 0.929 . S
H740 C744 0.929 . S
H741 C750 0.929 . S
C742 H736 0.930 . S
C742 C743 1.367 . S
C742 C750 1.378 . S
C743 C742 1.367 . S
C743 C751 1.433 . S
C744 H740 0.929 . S
C744 C746 1.378 . S
C744 C748 1.350 . S
C745 C748 1.463 . S
C745 C750 1.350 . S
C745 N753 1.427 . S
C746 H737 0.930 . S
C746 C744 1.378 . S
C746 C747 1.367 . S
C747 C746 1.367 . S
C747 C749 1.433 . S
C748 C744 1.350 . S
C748 C745 1.463 . S
C748 N752 1.427 . S
C749 H739 0.929 . S
C749 C747 1.433 . S
C749 N752 1.384 . S
C750 H741 0.929 . S
C750 C742 1.378 . S
C750 C745 1.350 . S
C751 H738 0.929 . S
C751 C743 1.433 . S
C751 N753 1.384 . S
N752 C748 1.427 . S
N752 C749 1.384 . S
N753 C745 1.427 . S
N753 C751 1.384 . S
H754 C760 0.930 . S
H755 C764 0.930 . S
H756 C769 0.929 . S
H757 C767 0.929 . S
H758 C762 0.929 . S
H759 C768 0.929 . S
C760 H754 0.930 . S
C760 C761 1.367 . S
C760 C768 1.378 . S
C761 C760 1.367 . S
C761 C769 1.433 . S
C762 H758 0.929 . S
C762 C764 1.378 . S
C762 C766 1.350 . S
C763 C766 1.463 . S
C763 C768 1.350 . S
C763 N771 1.427 . S
C764 H755 0.930 . S
C764 C762 1.378 . S
C764 C765 1.367 . S
C765 C764 1.367 . S
C765 C767 1.433 . S
C766 C762 1.350 . S
C766 C763 1.463 . S
C766 N770 1.427 . S
C767 H757 0.929 . S
C767 C765 1.433 . S
C767 N770 1.384 . S
C768 H759 0.929 . S
C768 C760 1.378 . S
C768 C763 1.350 . S
C769 H756 0.929 . S
C769 C761 1.433 . S
C769 N771 1.384 . S
N770 C766 1.427 . S
N770 C767 1.384 . S
N771 C763 1.427 . S
N771 C769 1.384 . S
H772 C778 0.930 . S
H773 C782 0.930 . S
H774 C787 0.929 . S
H775 C785 0.929 . S
H776 C780 0.929 . S
H777 C786 0.929 . S
C778 H772 0.930 . S
C778 C779 1.367 . S
C778 C786 1.378 . S
C779 C778 1.367 . S
C779 C787 1.433 . S
C780 H776 0.929 . S
C780 C782 1.378 . S
C780 C784 1.350 . S
C781 C784 1.463 . S
C781 C786 1.350 . S
C781 N789 1.427 . S
C782 H773 0.930 . S
C782 C780 1.378 . S
C782 C783 1.367 . S
C783 C782 1.367 . S
C783 C785 1.433 . S
C784 C780 1.350 . S
C784 C781 1.463 . S
C784 N788 1.427 . S
C785 H775 0.929 . S
C785 C783 1.433 . S
C785 N788 1.384 . S
C786 H777 0.929 . S
C786 C778 1.378 . S
C786 C781 1.350 . S
C787 H774 0.929 . S
C787 C779 1.433 . S
C787 N789 1.384 . S
N788 C784 1.427 . S
N788 C785 1.384 . S
N789 C781 1.427 . S
N789 C787 1.384 . S
H790 C796 0.930 . S
H791 C800 0.930 . S
H792 C805 0.929 . S
H793 C803 0.929 . S
H794 C798 0.929 . S
H795 C804 0.929 . S
C796 H790 0.930 . S
C796 C797 1.367 . S
C796 C804 1.378 . S
C797 C796 1.367 . S
C797 C805 1.433 . S
C798 H794 0.929 . S
C798 C800 1.378 . S
C798 C802 1.350 . S
C799 C802 1.463 . S
C799 C804 1.350 . S
C799 N807 1.427 . S
C800 H791 0.930 . S
C800 C798 1.378 . S
C800 C801 1.367 . S
C801 C800 1.367 . S
C801 C803 1.433 . S
C802 C798 1.350 . S
C802 C799 1.463 . S
C802 N806 1.427 . S
C803 H793 0.929 . S
C803 C801 1.433 . S
C803 N806 1.384 . S
C804 H795 0.929 . S
C804 C796 1.378 . S
C804 C799 1.350 . S
C805 H792 0.929 . S
C805 C797 1.433 . S
C805 N807 1.384 . S
N806 C802 1.427 . S
N806 C803 1.384 . S
N807 C799 1.427 . S
N807 C805 1.384 . S
H808 C814 0.930 . S
H809 C818 0.930 . S
H810 C823 0.929 . S
H811 C821 0.929 . S
H812 C816 0.929 . S
H813 C822 0.929 . S
C814 H808 0.930 . S
C814 C815 1.367 . S
C814 C822 1.378 . S
C815 C814 1.367 . S
C815 C823 1.433 . S
C816 H812 0.929 . S
C816 C818 1.378 . S
C816 C820 1.350 . S
C817 C820 1.463 . S
C817 C822 1.350 . S
C817 N825 1.427 . S
C818 H809 0.930 . S
C818 C816 1.378 . S
C818 C819 1.367 . S
C819 C818 1.367 . S
C819 C821 1.433 . S
C820 C816 1.350 . S
C820 C817 1.463 . S
C820 N824 1.427 . S
C821 H811 0.929 . S
C821 C819 1.433 . S
C821 N824 1.384 . S
C822 H813 0.929 . S
C822 C814 1.378 . S
C822 C817 1.350 . S
C823 H810 0.929 . S
C823 C815 1.433 . S
C823 N825 1.384 . S
N824 C820 1.427 . S
N824 C821 1.384 . S
N825 C817 1.427 . S
N825 C823 1.384 . S
H826 C832 0.930 . S
H827 C836 0.930 . S
H828 C841 0.929 . S
H829 C839 0.929 . S
H830 C834 0.929 . S
H831 C840 0.929 . S
C832 H826 0.930 . S
C832 C833 1.367 . S
C832 C840 1.378 . S
C833 C832 1.367 . S
C833 C841 1.433 . S
C834 H830 0.929 . S
C834 C836 1.378 . S
C834 C838 1.350 . S
C835 C838 1.463 . S
C835 C840 1.350 . S
C835 N843 1.427 . S
C836 H827 0.930 . S
C836 C834 1.378 . S
C836 C837 1.367 . S
C837 C836 1.367 . S
C837 C839 1.433 . S
C838 C834 1.350 . S
C838 C835 1.463 . S
C838 N842 1.427 . S
C839 H829 0.929 . S
C839 C837 1.433 . S
C839 N842 1.384 . S
C840 H831 0.929 . S
C840 C832 1.378 . S
C840 C835 1.350 . S
C841 H828 0.929 . S
C841 C833 1.433 . S
C841 N843 1.384 . S
N842 C838 1.427 . S
N842 C839 1.384 . S
N843 C835 1.427 . S
N843 C841 1.384 . S
H844 C850 0.930 . S
H845 C854 0.930 . S
H846 C859 0.929 . S
H847 C857 0.929 . S
H848 C852 0.929 . S
H849 C858 0.929 . S
C850 H844 0.930 . S
C850 C851 1.367 . S
C850 C858 1.378 . S
C851 C850 1.367 . S
C851 C859 1.433 . S
C852 H848 0.929 . S
C852 C854 1.378 . S
C852 C856 1.350 . S
C853 C856 1.463 . S
C853 C858 1.350 . S
C853 N861 1.427 . S
C854 H845 0.930 . S
C854 C852 1.378 . S
C854 C855 1.367 . S
C855 C854 1.367 . S
C855 C857 1.433 . S
C856 C852 1.350 . S
C856 C853 1.463 . S
C856 N860 1.427 . S
C857 H847 0.929 . S
C857 C855 1.433 . S
C857 N860 1.384 . S
C858 H849 0.929 . S
C858 C850 1.378 . S
C858 C853 1.350 . S
C859 H846 0.929 . S
C859 C851 1.433 . S
C859 N861 1.384 . S
N860 C856 1.427 . S
N860 C857 1.384 . S
N861 C853 1.427 . S
N861 C859 1.384 . S
H862 C868 0.930 . S
H863 C872 0.930 . S
H864 C877 0.929 . S
H865 C875 0.929 . S
H866 C870 0.929 . S
H867 C876 0.929 . S
C868 H862 0.930 . S
C868 C869 1.367 . S
C868 C876 1.378 . S
C869 C868 1.367 . S
C869 C877 1.433 . S
C870 H866 0.929 . S
C870 C872 1.378 . S
C870 C874 1.350 . S
C871 C874 1.463 . S
C871 C876 1.350 . S
C871 N879 1.427 . S
C872 H863 0.930 . S
C872 C870 1.378 . S
C872 C873 1.367 . S
C873 C872 1.367 . S
C873 C875 1.433 . S
C874 C870 1.350 . S
C874 C871 1.463 . S
C874 N878 1.427 . S
C875 H865 0.929 . S
C875 C873 1.433 . S
C875 N878 1.384 . S
C876 H867 0.929 . S
C876 C868 1.378 . S
C876 C871 1.350 . S
C877 H864 0.929 . S
C877 C869 1.433 . S
C877 N879 1.384 . S
N878 C874 1.427 . S
N878 C875 1.384 . S
N879 C871 1.427 . S
N879 C877 1.384 . S
H880 C886 0.930 . S
H881 C890 0.930 . S
H882 C895 0.929 . S
H883 C893 0.929 . S
H884 C888 0.929 . S
H885 C894 0.929 . S
C886 H880 0.930 . S
C886 C887 1.367 . S
C886 C894 1.378 . S
C887 C886 1.367 . S
C887 C895 1.433 . S
C888 H884 0.929 . S
C888 C890 1.378 . S
C888 C892 1.350 . S
C889 C892 1.463 . S
C889 C894 1.350 . S
C889 N897 1.427 . S
C890 H881 0.930 . S
C890 C888 1.378 . S
C890 C891 1.367 . S
C891 C890 1.367 . S
C891 C893 1.433 . S
C892 C888 1.350 . S
C892 C889 1.463 . S
C892 N896 1.427 . S
C893 H883 0.929 . S
C893 C891 1.433 . S
C893 N896 1.384 . S
C894 H885 0.929 . S
C894 C886 1.378 . S
C894 C889 1.350 . S
C895 H882 0.929 . S
C895 C887 1.433 . S
C895 N897 1.384 . S
N896 C892 1.427 . S
N896 C893 1.384 . S
N897 C889 1.427 . S
N897 C895 1.384 . S
H898 C904 0.930 . S
H899 C908 0.930 . S
H900 C913 0.929 . S
H901 C911 0.929 . S
H902 C906 0.929 . S
H903 C912 0.929 . S
C904 H898 0.930 . S
C904 C905 1.367 . S
C904 C912 1.378 . S
C905 C904 1.367 . S
C905 C913 1.433 . S
C906 H902 0.929 . S
C906 C908 1.378 . S
C906 C910 1.350 . S
C907 C910 1.463 . S
C907 C912 1.350 . S
C907 N915 1.427 . S
C908 H899 0.930 . S
C908 C906 1.378 . S
C908 C909 1.367 . S
C909 C908 1.367 . S
C909 C911 1.433 . S
C910 C906 1.350 . S
C910 C907 1.463 . S
C910 N914 1.427 . S
C911 H901 0.929 . S
C911 C909 1.433 . S
C911 N914 1.384 . S
C912 H903 0.929 . S
C912 C904 1.378 . S
C912 C907 1.350 . S
C913 H900 0.929 . S
C913 C905 1.433 . S
C913 N915 1.384 . S
N914 C910 1.427 . S
N914 C911 1.384 . S
N915 C907 1.427 . S
N915 C913 1.384 . S
H916 C922 0.930 . S
H917 C926 0.930 . S
H918 C931 0.929 . S
H919 C929 0.929 . S
H920 C924 0.929 . S
H921 C930 0.929 . S
C922 H916 0.930 . S
C922 C923 1.367 . S
C922 C930 1.378 . S
C923 C922 1.367 . S
C923 C931 1.433 . S
C924 H920 0.929 . S
C924 C926 1.378 . S
C924 C928 1.350 . S
C925 C928 1.463 . S
C925 C930 1.350 . S
C925 N933 1.427 . S
C926 H917 0.930 . S
C926 C924 1.378 . S
C926 C927 1.367 . S
C927 C926 1.367 . S
C927 C929 1.433 . S
C928 C924 1.350 . S
C928 C925 1.463 . S
C928 N932 1.427 . S
C929 H919 0.929 . S
C929 C927 1.433 . S
C929 N932 1.384 . S
C930 H921 0.929 . S
C930 C922 1.378 . S
C930 C925 1.350 . S
C931 H918 0.929 . S
C931 C923 1.433 . S
C931 N933 1.384 . S
N932 C928 1.427 . S
N932 C929 1.384 . S
N933 C925 1.427 . S
N933 C931 1.384 . S
H934 C940 0.930 . S
H935 C944 0.930 . S
H936 C949 0.929 . S
H937 C947 0.929 . S
H938 C942 0.929 . S
H939 C948 0.929 . S
C940 H934 0.930 . S
C940 C941 1.367 . S
C940 C948 1.378 . S
C941 C940 1.367 . S
C941 C949 1.433 . S
C942 H938 0.929 . S
C942 C944 1.378 . S
C942 C946 1.350 . S
C943 C946 1.463 . S
C943 C948 1.350 . S
C943 N951 1.427 . S
C944 H935 0.930 . S
C944 C942 1.378 . S
C944 C945 1.367 . S
C945 C944 1.367 . S
C945 C947 1.433 . S
C946 C942 1.350 . S
C946 C943 1.463 . S
C946 N950 1.427 . S
C947 H937 0.929 . S
C947 C945 1.433 . S
C947 N950 1.384 . S
C948 H939 0.929 . S
C948 C940 1.378 . S
C948 C943 1.350 . S
C949 H936 0.929 . S
C949 C941 1.433 . S
C949 N951 1.384 . S
N950 C946 1.427 . S
N950 C947 1.384 . S
N951 C943 1.427 . S
N951 C949 1.384 . S
H952 C958 0.930 . S
H953 C962 0.930 . S
H954 C967 0.929 . S
H955 C965 0.929 . S
H956 C960 0.929 . S
H957 C966 0.929 . S
C958 H952 0.930 . S
C958 C959 1.367 . S
C958 C966 1.378 . S
C959 C958 1.367 . S
C959 C967 1.433 . S
C960 H956 0.929 . S
C960 C962 1.378 . S
C960 C964 1.350 . S
C961 C964 1.463 . S
C961 C966 1.350 . S
C961 N969 1.427 . S
C962 H953 0.930 . S
C962 C960 1.378 . S
C962 C963 1.367 . S
C963 C962 1.367 . S
C963 C965 1.433 . S
C964 C960 1.350 . S
C964 C961 1.463 . S
C964 N968 1.427 . S
C965 H955 0.929 . S
C965 C963 1.433 . S
C965 N968 1.384 . S
C966 H957 0.929 . S
C966 C958 1.378 . S
C966 C961 1.350 . S
C967 H954 0.929 . S
C967 C959 1.433 . S
C967 N969 1.384 . S
N968 C964 1.427 . S
N968 C965 1.384 . S
N969 C961 1.427 . S
N969 C967 1.384 . S
H970 C976 0.930 . S
H971 C980 0.930 . S
H972 C985 0.929 . S
H973 C983 0.929 . S
H974 C978 0.929 . S
H975 C984 0.929 . S
C976 H970 0.930 . S
C976 C977 1.367 . S
C976 C984 1.378 . S
C977 C976 1.367 . S
C977 C985 1.433 . S
C978 H974 0.929 . S
C978 C980 1.378 . S
C978 C982 1.350 . S
C979 C982 1.463 . S
C979 C984 1.350 . S
C979 N987 1.427 . S
C980 H971 0.930 . S
C980 C978 1.378 . S
C980 C981 1.367 . S
C981 C980 1.367 . S
C981 C983 1.433 . S
C982 C978 1.350 . S
C982 C979 1.463 . S
C982 N986 1.427 . S
C983 H973 0.929 . S
C983 C981 1.433 . S
C983 N986 1.384 . S
C984 H975 0.929 . S
C984 C976 1.378 . S
C984 C979 1.350 . S
C985 H972 0.929 . S
C985 C977 1.433 . S
C985 N987 1.384 . S
N986 C982 1.427 . S
N986 C983 1.384 . S
N987 C979 1.427 . S
N987 C985 1.384 . S
H988 C994 0.930 . S
H989 C998 0.930 . S
H990 C1003 0.929 . S
H991 C1001 0.929 . S
H992 C996 0.929 . S
H993 C1002 0.929 . S
C994 H988 0.930 . S
C994 C995 1.367 . S
C994 C1002 1.378 . S
C995 C994 1.367 . S
C995 C1003 1.433 . S
C996 H992 0.929 . S
C996 C998 1.378 . S
C996 C1000 1.350 . S
C997 C1000 1.463 . S
C997 C1002 1.350 . S
C997 N1005 1.427 . S
C998 H989 0.930 . S
C998 C996 1.378 . S
C998 C999 1.367 . S
C999 C998 1.367 . S
C999 C1001 1.433 . S
C1000 C996 1.350 . S
C1000 C997 1.463 . S
C1000 N1004 1.427 . S
C1001 H991 0.929 . S
C1001 C999 1.433 . S
C1001 N1004 1.384 . S
C1002 H993 0.929 . S
C1002 C994 1.378 . S
C1002 C997 1.350 . S
C1003 H990 0.929 . S
C1003 C995 1.433 . S
C1003 N1005 1.384 . S
N1004 C1000 1.427 . S
N1004 C1001 1.384 . S
N1005 C997 1.427 . S
N1005 C1003 1.384 . S
H1006 C1012 0.930 . S
H1007 C1016 0.930 . S
H1008 C1021 0.929 . S
H1009 C1019 0.929 . S
H1010 C1014 0.929 . S
H1011 C1020 0.929 . S
C1012 H1006 0.930 . S
C1012 C1013 1.367 . S
C1012 C1020 1.378 . S
C1013 C1012 1.367 . S
C1013 C1021 1.433 . S
C1014 H1010 0.929 . S
C1014 C1016 1.378 . S
C1014 C1018 1.350 . S
C1015 C1018 1.463 . S
C1015 C1020 1.350 . S
C1015 N1023 1.427 . S
C1016 H1007 0.930 . S
C1016 C1014 1.378 . S
C1016 C1017 1.367 . S
C1017 C1016 1.367 . S
C1017 C1019 1.433 . S
C1018 C1014 1.350 . S
C1018 C1015 1.463 . S
C1018 N1022 1.427 . S
C1019 H1009 0.929 . S
C1019 C1017 1.433 . S
C1019 N1022 1.384 . S
C1020 H1011 0.929 . S
C1020 C1012 1.378 . S
C1020 C1015 1.350 . S
C1021 H1008 0.929 . S
C1021 C1013 1.433 . S
C1021 N1023 1.384 . S
N1022 C1018 1.427 . S
N1022 C1019 1.384 . S
N1023 C1015 1.427 . S
N1023 C1021 1.384 . S
H1024 C1030 0.930 . S
H1025 C1034 0.930 . S
H1026 C1039 0.929 . S
H1027 C1037 0.929 . S
H1028 C1032 0.929 . S
H1029 C1038 0.929 . S
C1030 H1024 0.930 . S
C1030 C1031 1.367 . S
C1030 C1038 1.378 . S
C1031 C1030 1.367 . S
C1031 C1039 1.433 . S
C1032 H1028 0.929 . S
C1032 C1034 1.378 . S
C1032 C1036 1.350 . S
C1033 C1036 1.463 1_655 S
C1033 C1038 1.350 . S
C1033 N1041 1.427 . S
C1034 H1025 0.930 . S
C1034 C1032 1.378 . S
C1034 C1035 1.367 . S
C1035 C1034 1.367 . S
C1035 C1037 1.433 . S
C1036 C1032 1.350 . S
C1036 C1033 1.463 1_455 S
C1036 N1040 1.427 . S
C1037 H1027 0.929 . S
C1037 C1035 1.433 . S
C1037 N1040 1.384 . S
C1038 H1029 0.929 . S
C1038 C1030 1.378 . S
C1038 C1033 1.350 . S
C1039 H1026 0.929 . S
C1039 C1031 1.433 . S
C1039 N1041 1.384 . S
N1040 C1036 1.427 . S
N1040 C1037 1.384 . S
N1041 C1033 1.427 . S
N1041 C1039 1.384 . S
H1042 C1048 0.930 . S
H1043 C1052 0.930 . S
H1044 C1057 0.929 . S
H1045 C1055 0.929 . S
H1046 C1050 0.929 . S
H1047 C1056 0.929 . S
C1048 H1042 0.930 . S
C1048 C1049 1.367 . S
C1048 C1056 1.378 . S
C1049 C1048 1.367 . S
C1049 C1057 1.433 . S
C1050 H1046 0.929 . S
C1050 C1052 1.378 . S
C1050 C1054 1.350 . S
C1051 C1054 1.463 1_545 S
C1051 C1056 1.350 . S
C1051 N1059 1.427 . S
C1052 H1043 0.930 . S
C1052 C1050 1.378 . S
C1052 C1053 1.367 . S
C1053 C1052 1.367 . S
C1053 C1055 1.433 . S
C1054 C1050 1.350 . S
C1054 C1051 1.463 1_565 S
C1054 N1058 1.427 . S
C1055 H1045 0.929 . S
C1055 C1053 1.433 . S
C1055 N1058 1.384 . S
C1056 H1047 0.929 . S
C1056 C1048 1.378 . S
C1056 C1051 1.350 . S
C1057 H1044 0.929 . S
C1057 C1049 1.433 . S
C1057 N1059 1.384 . S
N1058 C1054 1.427 . S
N1058 C1055 1.384 . S
N1059 C1051 1.427 . S
N1059 C1057 1.384 . S
H1060 C1066 0.930 . S
H1061 C1070 0.930 . S
H1062 C1075 0.929 . S
H1063 C1073 0.929 . S
H1064 C1068 0.929 . S
H1065 C1074 0.929 . S
C1066 H1060 0.930 . S
C1066 C1067 1.367 . S
C1066 C1074 1.378 . S
C1067 C1066 1.367 . S
C1067 C1075 1.433 . S
C1068 H1064 0.929 . S
C1068 C1070 1.378 . S
C1068 C1072 1.350 . S
C1069 C1072 1.463 1_455 S
C1069 C1074 1.350 . S
C1069 N1077 1.427 . S
C1070 H1061 0.930 . S
C1070 C1068 1.378 . S
C1070 C1071 1.367 . S
C1071 C1070 1.367 . S
C1071 C1073 1.433 . S
C1072 C1068 1.350 . S
C1072 C1069 1.463 1_655 S
C1072 N1076 1.427 . S
C1073 H1063 0.929 . S
C1073 C1071 1.433 . S
C1073 N1076 1.384 . S
C1074 H1065 0.929 . S
C1074 C1066 1.378 . S
C1074 C1069 1.350 . S
C1075 H1062 0.929 . S
C1075 C1067 1.433 . S
C1075 N1077 1.384 . S
N1076 C1072 1.427 . S
N1076 C1073 1.384 . S
N1077 C1069 1.427 . S
N1077 C1075 1.384 . S
H1078 C1084 0.930 . S
H1079 C1088 0.930 . S
H1080 C1093 0.929 . S
H1081 C1091 0.929 . S
H1082 C1086 0.929 . S
H1083 C1092 0.929 . S
C1084 H1078 0.930 . S
C1084 C1085 1.367 . S
C1084 C1092 1.378 . S
C1085 C1084 1.367 . S
C1085 C1093 1.433 . S
C1086 H1082 0.929 . S
C1086 C1088 1.378 . S
C1086 C1090 1.350 . S
C1087 C1090 1.463 1_565 S
C1087 C1092 1.350 . S
C1087 N1095 1.427 . S
C1088 H1079 0.930 . S
C1088 C1086 1.378 . S
C1088 C1089 1.367 . S
C1089 C1088 1.367 . S
C1089 C1091 1.433 . S
C1090 C1086 1.350 . S
C1090 C1087 1.463 1_545 S
C1090 N1094 1.427 . S
C1091 H1081 0.929 . S
C1091 C1089 1.433 . S
C1091 N1094 1.384 . S
C1092 H1083 0.929 . S
C1092 C1084 1.378 . S
C1092 C1087 1.350 . S
C1093 H1080 0.929 . S
C1093 C1085 1.433 . S
C1093 N1095 1.384 . S
N1094 C1090 1.427 . S
N1094 C1091 1.384 . S
N1095 C1087 1.427 . S
N1095 C1093 1.384 . S
H1096 C1102 0.930 . S
H1097 C1106 0.930 . S
H1098 C1111 0.929 . S
H1099 C1109 0.929 . S
H1100 C1104 0.929 . S
H1101 C1110 0.929 . S
C1102 H1096 0.930 . S
C1102 C1103 1.367 . S
C1102 C1110 1.378 . S
C1103 C1102 1.367 . S
C1103 C1111 1.433 . S
C1104 H1100 0.929 . S
C1104 C1106 1.378 . S
C1104 C1108 1.350 . S
C1105 C1108 1.463 1_455 S
C1105 C1110 1.350 . S
C1105 N1113 1.427 . S
C1106 H1097 0.930 . S
C1106 C1104 1.378 . S
C1106 C1107 1.367 . S
C1107 C1106 1.367 . S
C1107 C1109 1.433 . S
C1108 C1104 1.350 . S
C1108 C1105 1.463 1_655 S
C1108 N1112 1.427 . S
C1109 H1099 0.929 . S
C1109 C1107 1.433 . S
C1109 N1112 1.384 . S
C1110 H1101 0.929 . S
C1110 C1102 1.378 . S
C1110 C1105 1.350 . S
C1111 H1098 0.929 . S
C1111 C1103 1.433 . S
C1111 N1113 1.384 . S
N1112 C1108 1.427 . S
N1112 C1109 1.384 . S
N1113 C1105 1.427 . S
N1113 C1111 1.384 . S
H1114 C1120 0.930 . S
H1115 C1124 0.930 . S
H1116 C1129 0.929 . S
H1117 C1127 0.929 . S
H1118 C1122 0.929 . S
H1119 C1128 0.929 . S
C1120 H1114 0.930 . S
C1120 C1121 1.367 . S
C1120 C1128 1.378 . S
C1121 C1120 1.367 . S
C1121 C1129 1.433 . S
C1122 H1118 0.929 . S
C1122 C1124 1.378 . S
C1122 C1126 1.350 . S
C1123 C1126 1.463 1_565 S
C1123 C1128 1.350 . S
C1123 N1131 1.427 . S
C1124 H1115 0.930 . S
C1124 C1122 1.378 . S
C1124 C1125 1.367 . S
C1125 C1124 1.367 . S
C1125 C1127 1.433 . S
C1126 C1122 1.350 . S
C1126 C1123 1.463 1_545 S
C1126 N1130 1.427 . S
C1127 H1117 0.929 . S
C1127 C1125 1.433 . S
C1127 N1130 1.384 . S
C1128 H1119 0.929 . S
C1128 C1120 1.378 . S
C1128 C1123 1.350 . S
C1129 H1116 0.929 . S
C1129 C1121 1.433 . S
C1129 N1131 1.384 . S
N1130 C1126 1.427 . S
N1130 C1127 1.384 . S
N1131 C1123 1.427 . S
N1131 C1129 1.384 . S
H1132 C1138 0.930 . S
H1133 C1142 0.930 . S
H1134 C1147 0.929 . S
H1135 C1145 0.929 . S
H1136 C1140 0.929 . S
H1137 C1146 0.929 . S
C1138 H1132 0.930 . S
C1138 C1139 1.367 . S
C1138 C1146 1.378 . S
C1139 C1138 1.367 . S
C1139 C1147 1.433 . S
C1140 H1136 0.929 . S
C1140 C1142 1.378 . S
C1140 C1144 1.350 . S
C1141 C1144 1.463 1_455 S
C1141 C1146 1.350 . S
C1141 N1149 1.427 . S
C1142 H1133 0.930 . S
C1142 C1140 1.378 . S
C1142 C1143 1.367 . S
C1143 C1142 1.367 . S
C1143 C1145 1.433 . S
C1144 C1140 1.350 . S
C1144 C1141 1.463 1_655 S
C1144 N1148 1.427 . S
C1145 H1135 0.929 . S
C1145 C1143 1.433 . S
C1145 N1148 1.384 . S
C1146 H1137 0.929 . S
C1146 C1138 1.378 . S
C1146 C1141 1.350 . S
C1147 H1134 0.929 . S
C1147 C1139 1.433 . S
C1147 N1149 1.384 . S
N1148 C1144 1.427 . S
N1148 C1145 1.384 . S
N1149 C1141 1.427 . S
N1149 C1147 1.384 . S
H1150 C1156 0.930 . S
H1151 C1160 0.930 . S
H1152 C1165 0.929 . S
H1153 C1163 0.929 . S
H1154 C1158 0.929 . S
H1155 C1164 0.929 . S
C1156 H1150 0.930 . S
C1156 C1157 1.367 . S
C1156 C1164 1.378 . S
C1157 C1156 1.367 . S
C1157 C1165 1.433 . S
C1158 H1154 0.929 . S
C1158 C1160 1.378 . S
C1158 C1162 1.350 . S
C1159 C1162 1.463 1_545 S
C1159 C1164 1.350 . S
C1159 N1167 1.427 . S
C1160 H1151 0.930 . S
C1160 C1158 1.378 . S
C1160 C1161 1.367 . S
C1161 C1160 1.367 . S
C1161 C1163 1.433 . S
C1162 C1158 1.350 . S
C1162 C1159 1.463 1_565 S
C1162 N1166 1.427 . S
C1163 H1153 0.929 . S
C1163 C1161 1.433 . S
C1163 N1166 1.384 . S
C1164 H1155 0.929 . S
C1164 C1156 1.378 . S
C1164 C1159 1.350 . S
C1165 H1152 0.929 . S
C1165 C1157 1.433 . S
C1165 N1167 1.384 . S
N1166 C1162 1.427 . S
N1166 C1163 1.384 . S
N1167 C1159 1.427 . S
N1167 C1165 1.384 . S
H1168 C1174 0.930 . S
H1169 C1178 0.930 . S
H1170 C1183 0.929 . S
H1171 C1181 0.929 . S
H1172 C1176 0.929 . S
H1173 C1182 0.929 . S
C1174 H1168 0.930 . S
C1174 C1175 1.367 . S
C1174 C1182 1.378 . S
C1175 C1174 1.367 . S
C1175 C1183 1.433 . S
C1176 H1172 0.929 . S
C1176 C1178 1.378 . S
C1176 C1180 1.350 . S
C1177 C1180 1.463 . S
C1177 C1182 1.350 . S
C1177 N1185 1.427 . S
C1178 H1169 0.930 . S
C1178 C1176 1.378 . S
C1178 C1179 1.367 . S
C1179 C1178 1.367 . S
C1179 C1181 1.433 . S
C1180 C1176 1.350 . S
C1180 C1177 1.463 . S
C1180 N1184 1.427 . S
C1181 H1171 0.929 . S
C1181 C1179 1.433 . S
C1181 N1184 1.384 . S
C1182 H1173 0.929 . S
C1182 C1174 1.378 . S
C1182 C1177 1.350 . S
C1183 H1170 0.929 . S
C1183 C1175 1.433 . S
C1183 N1185 1.384 . S
N1184 C1180 1.427 . S
N1184 C1181 1.384 . S
N1185 C1177 1.427 . S
N1185 C1183 1.384 . S
H1186 C1192 0.930 . S
H1187 C1196 0.930 . S
H1188 C1201 0.929 . S
H1189 C1199 0.929 . S
H1190 C1194 0.929 . S
H1191 C1200 0.929 . S
C1192 H1186 0.930 . S
C1192 C1193 1.367 . S
C1192 C1200 1.378 . S
C1193 C1192 1.367 . S
C1193 C1201 1.433 . S
C1194 H1190 0.929 . S
C1194 C1196 1.378 . S
C1194 C1198 1.350 . S
C1195 C1198 1.463 . S
C1195 C1200 1.350 . S
C1195 N1203 1.427 . S
C1196 H1187 0.930 . S
C1196 C1194 1.378 . S
C1196 C1197 1.367 . S
C1197 C1196 1.367 . S
C1197 C1199 1.433 . S
C1198 C1194 1.350 . S
C1198 C1195 1.463 . S
C1198 N1202 1.427 . S
C1199 H1189 0.929 . S
C1199 C1197 1.433 . S
C1199 N1202 1.384 . S
C1200 H1191 0.929 . S
C1200 C1192 1.378 . S
C1200 C1195 1.350 . S
C1201 H1188 0.929 . S
C1201 C1193 1.433 . S
C1201 N1203 1.384 . S
N1202 C1198 1.427 . S
N1202 C1199 1.384 . S
N1203 C1195 1.427 . S
N1203 C1201 1.384 . S
H1204 C1210 0.930 . S
H1205 C1214 0.930 . S
H1206 C1219 0.929 . S
H1207 C1217 0.929 . S
H1208 C1212 0.929 . S
H1209 C1218 0.929 . S
C1210 H1204 0.930 . S
C1210 C1211 1.367 . S
C1210 C1218 1.378 . S
C1211 C1210 1.367 . S
C1211 C1219 1.433 . S
C1212 H1208 0.929 . S
C1212 C1214 1.378 . S
C1212 C1216 1.350 . S
C1213 C1216 1.463 . S
C1213 C1218 1.350 . S
C1213 N1221 1.427 . S
C1214 H1205 0.930 . S
C1214 C1212 1.378 . S
C1214 C1215 1.367 . S
C1215 C1214 1.367 . S
C1215 C1217 1.433 . S
C1216 C1212 1.350 . S
C1216 C1213 1.463 . S
C1216 N1220 1.427 . S
C1217 H1207 0.929 . S
C1217 C1215 1.433 . S
C1217 N1220 1.384 . S
C1218 H1209 0.929 . S
C1218 C1210 1.378 . S
C1218 C1213 1.350 . S
C1219 H1206 0.929 . S
C1219 C1211 1.433 . S
C1219 N1221 1.384 . S
N1220 C1216 1.427 . S
N1220 C1217 1.384 . S
N1221 C1213 1.427 . S
N1221 C1219 1.384 . S
H1222 C1228 0.930 . S
H1223 C1232 0.930 . S
H1224 C1237 0.929 . S
H1225 C1235 0.929 . S
H1226 C1230 0.929 . S
H1227 C1236 0.929 . S
C1228 H1222 0.930 . S
C1228 C1229 1.367 . S
C1228 C1236 1.378 . S
C1229 C1228 1.367 . S
C1229 C1237 1.433 . S
C1230 H1226 0.929 . S
C1230 C1232 1.378 . S
C1230 C1234 1.350 . S
C1231 C1234 1.463 . S
C1231 C1236 1.350 . S
C1231 N1239 1.427 . S
C1232 H1223 0.930 . S
C1232 C1230 1.378 . S
C1232 C1233 1.367 . S
C1233 C1232 1.367 . S
C1233 C1235 1.433 . S
C1234 C1230 1.350 . S
C1234 C1231 1.463 . S
C1234 N1238 1.427 . S
C1235 H1225 0.929 . S
C1235 C1233 1.433 . S
C1235 N1238 1.384 . S
C1236 H1227 0.929 . S
C1236 C1228 1.378 . S
C1236 C1231 1.350 . S
C1237 H1224 0.929 . S
C1237 C1229 1.433 . S
C1237 N1239 1.384 . S
N1238 C1234 1.427 . S
N1238 C1235 1.384 . S
N1239 C1231 1.427 . S
N1239 C1237 1.384 . S
H1240 C1246 0.930 . S
H1241 C1250 0.930 . S
H1242 C1255 0.929 . S
H1243 C1253 0.929 . S
H1244 C1248 0.929 . S
H1245 C1254 0.929 . S
C1246 H1240 0.930 . S
C1246 C1247 1.367 . S
C1246 C1254 1.378 . S
C1247 C1246 1.367 . S
C1247 C1255 1.433 . S
C1248 H1244 0.929 . S
C1248 C1250 1.378 . S
C1248 C1252 1.350 . S
C1249 C1252 1.463 . S
C1249 C1254 1.350 . S
C1249 N1257 1.427 . S
C1250 H1241 0.930 . S
C1250 C1248 1.378 . S
C1250 C1251 1.367 . S
C1251 C1250 1.367 . S
C1251 C1253 1.433 . S
C1252 C1248 1.350 . S
C1252 C1249 1.463 . S
C1252 N1256 1.427 . S
C1253 H1243 0.929 . S
C1253 C1251 1.433 . S
C1253 N1256 1.384 . S
C1254 H1245 0.929 . S
C1254 C1246 1.378 . S
C1254 C1249 1.350 . S
C1255 H1242 0.929 . S
C1255 C1247 1.433 . S
C1255 N1257 1.384 . S
N1256 C1252 1.427 . S
N1256 C1253 1.384 . S
N1257 C1249 1.427 . S
N1257 C1255 1.384 . S
H1258 C1264 0.930 . S
H1259 C1268 0.930 . S
H1260 C1273 0.929 . S
H1261 C1271 0.929 . S
H1262 C1266 0.929 . S
H1263 C1272 0.929 . S
C1264 H1258 0.930 . S
C1264 C1265 1.367 . S
C1264 C1272 1.378 . S
C1265 C1264 1.367 . S
C1265 C1273 1.433 . S
C1266 H1262 0.929 . S
C1266 C1268 1.378 . S
C1266 C1270 1.350 . S
C1267 C1270 1.463 . S
C1267 C1272 1.350 . S
C1267 N1275 1.427 . S
C1268 H1259 0.930 . S
C1268 C1266 1.378 . S
C1268 C1269 1.367 . S
C1269 C1268 1.367 . S
C1269 C1271 1.433 . S
C1270 C1266 1.350 . S
C1270 C1267 1.463 . S
C1270 N1274 1.427 . S
C1271 H1261 0.929 . S
C1271 C1269 1.433 . S
C1271 N1274 1.384 . S
C1272 H1263 0.929 . S
C1272 C1264 1.378 . S
C1272 C1267 1.350 . S
C1273 H1260 0.929 . S
C1273 C1265 1.433 . S
C1273 N1275 1.384 . S
N1274 C1270 1.427 . S
N1274 C1271 1.384 . S
N1275 C1267 1.427 . S
N1275 C1273 1.384 . S
H1276 C1282 0.930 . S
H1277 C1286 0.930 . S
H1278 C1291 0.929 . S
H1279 C1289 0.929 . S
H1280 C1284 0.929 . S
H1281 C1290 0.929 . S
C1282 H1276 0.930 . S
C1282 C1283 1.367 . S
C1282 C1290 1.378 . S
C1283 C1282 1.367 . S
C1283 C1291 1.433 . S
C1284 H1280 0.929 . S
C1284 C1286 1.378 . S
C1284 C1288 1.350 . S
C1285 C1288 1.463 . S
C1285 C1290 1.350 . S
C1285 N1293 1.427 . S
C1286 H1277 0.930 . S
C1286 C1284 1.378 . S
C1286 C1287 1.367 . S
C1287 C1286 1.367 . S
C1287 C1289 1.433 . S
C1288 C1284 1.350 . S
C1288 C1285 1.463 . S
C1288 N1292 1.427 . S
C1289 H1279 0.929 . S
C1289 C1287 1.433 . S
C1289 N1292 1.384 . S
C1290 H1281 0.929 . S
C1290 C1282 1.378 . S
C1290 C1285 1.350 . S
C1291 H1278 0.929 . S
C1291 C1283 1.433 . S
C1291 N1293 1.384 . S
N1292 C1288 1.427 . S
N1292 C1289 1.384 . S
N1293 C1285 1.427 . S
N1293 C1291 1.384 . S
H1294 C1300 0.930 . S
H1295 C1304 0.930 . S
H1296 C1309 0.929 . S
H1297 C1307 0.929 . S
H1298 C1302 0.929 . S
H1299 C1308 0.929 . S
C1300 H1294 0.930 . S
C1300 C1301 1.367 . S
C1300 C1308 1.378 . S
C1301 C1300 1.367 . S
C1301 C1309 1.433 . S
C1302 H1298 0.929 . S
C1302 C1304 1.378 . S
C1302 C1306 1.350 . S
C1303 C1306 1.463 . S
C1303 C1308 1.350 . S
C1303 N1311 1.427 . S
C1304 H1295 0.930 . S
C1304 C1302 1.378 . S
C1304 C1305 1.367 . S
C1305 C1304 1.367 . S
C1305 C1307 1.433 . S
C1306 C1302 1.350 . S
C1306 C1303 1.463 . S
C1306 N1310 1.427 . S
C1307 H1297 0.929 . S
C1307 C1305 1.433 . S
C1307 N1310 1.384 . S
C1308 H1299 0.929 . S
C1308 C1300 1.378 . S
C1308 C1303 1.350 . S
C1309 H1296 0.929 . S
C1309 C1301 1.433 . S
C1309 N1311 1.384 . S
N1310 C1306 1.427 . S
N1310 C1307 1.384 . S
N1311 C1303 1.427 . S
N1311 C1309 1.384 . S
H1312 C1318 0.930 . S
H1313 C1322 0.930 . S
H1314 C1327 0.929 . S
H1315 C1325 0.929 . S
H1316 C1320 0.929 . S
H1317 C1326 0.929 . S
C1318 H1312 0.930 . S
C1318 C1319 1.367 . S
C1318 C1326 1.378 . S
C1319 C1318 1.367 . S
C1319 C1327 1.433 . S
C1320 H1316 0.929 . S
C1320 C1322 1.378 . S
C1320 C1324 1.350 . S
C1321 C1324 1.463 . S
C1321 C1326 1.350 . S
C1321 N1329 1.427 . S
C1322 H1313 0.930 . S
C1322 C1320 1.378 . S
C1322 C1323 1.367 . S
C1323 C1322 1.367 . S
C1323 C1325 1.433 . S
C1324 C1320 1.350 . S
C1324 C1321 1.463 . S
C1324 N1328 1.427 . S
C1325 H1315 0.929 . S
C1325 C1323 1.433 . S
C1325 N1328 1.384 . S
C1326 H1317 0.929 . S
C1326 C1318 1.378 . S
C1326 C1321 1.350 . S
C1327 H1314 0.929 . S
C1327 C1319 1.433 . S
C1327 N1329 1.384 . S
N1328 C1324 1.427 . S
N1328 C1325 1.384 . S
N1329 C1321 1.427 . S
N1329 C1327 1.384 . S
H1330 C1336 0.930 . S
H1331 C1340 0.930 . S
H1332 C1345 0.929 . S
H1333 C1343 0.929 . S
H1334 C1338 0.929 . S
H1335 C1344 0.929 . S
C1336 H1330 0.930 . S
C1336 C1337 1.367 . S
C1336 C1344 1.378 . S
C1337 C1336 1.367 . S
C1337 C1345 1.433 . S
C1338 H1334 0.929 . S
C1338 C1340 1.378 . S
C1338 C1342 1.350 . S
C1339 C1342 1.463 . S
C1339 C1344 1.350 . S
C1339 N1347 1.427 . S
C1340 H1331 0.930 . S
C1340 C1338 1.378 . S
C1340 C1341 1.367 . S
C1341 C1340 1.367 . S
C1341 C1343 1.433 . S
C1342 C1338 1.350 . S
C1342 C1339 1.463 . S
C1342 N1346 1.427 . S
C1343 H1333 0.929 . S
C1343 C1341 1.433 . S
C1343 N1346 1.384 . S
C1344 H1335 0.929 . S
C1344 C1336 1.378 . S
C1344 C1339 1.350 . S
C1345 H1332 0.929 . S
C1345 C1337 1.433 . S
C1345 N1347 1.384 . S
N1346 C1342 1.427 . S
N1346 C1343 1.384 . S
N1347 C1339 1.427 . S
N1347 C1345 1.384 . S
H1348 C1354 0.930 . S
H1349 C1358 0.930 . S
H1350 C1363 0.929 . S
H1351 C1361 0.929 . S
H1352 C1356 0.929 . S
H1353 C1362 0.929 . S
C1354 H1348 0.930 . S
C1354 C1355 1.367 . S
C1354 C1362 1.378 . S
C1355 C1354 1.367 . S
C1355 C1363 1.433 . S
C1356 H1352 0.929 . S
C1356 C1358 1.378 . S
C1356 C1360 1.350 . S
C1357 C1360 1.463 . S
C1357 C1362 1.350 . S
C1357 N1365 1.427 . S
C1358 H1349 0.930 . S
C1358 C1356 1.378 . S
C1358 C1359 1.367 . S
C1359 C1358 1.367 . S
C1359 C1361 1.433 . S
C1360 C1356 1.350 . S
C1360 C1357 1.463 . S
C1360 N1364 1.427 . S
C1361 H1351 0.929 . S
C1361 C1359 1.433 . S
C1361 N1364 1.384 . S
C1362 H1353 0.929 . S
C1362 C1354 1.378 . S
C1362 C1357 1.350 . S
C1363 H1350 0.929 . S
C1363 C1355 1.433 . S
C1363 N1365 1.384 . S
N1364 C1360 1.427 . S
N1364 C1361 1.384 . S
N1365 C1357 1.427 . S
N1365 C1363 1.384 . S
H1366 C1372 0.930 . S
H1367 C1376 0.930 . S
H1368 C1381 0.929 . S
H1369 C1379 0.929 . S
H1370 C1374 0.929 . S
H1371 C1380 0.929 . S
C1372 H1366 0.930 . S
C1372 C1373 1.367 . S
C1372 C1380 1.378 . S
C1373 C1372 1.367 . S
C1373 C1381 1.433 . S
C1374 H1370 0.929 . S
C1374 C1376 1.378 . S
C1374 C1378 1.350 . S
C1375 C1378 1.463 . S
C1375 C1380 1.350 . S
C1375 N1383 1.427 . S
C1376 H1367 0.930 . S
C1376 C1374 1.378 . S
C1376 C1377 1.367 . S
C1377 C1376 1.367 . S
C1377 C1379 1.433 . S
C1378 C1374 1.350 . S
C1378 C1375 1.463 . S
C1378 N1382 1.427 . S
C1379 H1369 0.929 . S
C1379 C1377 1.433 . S
C1379 N1382 1.384 . S
C1380 H1371 0.929 . S
C1380 C1372 1.378 . S
C1380 C1375 1.350 . S
C1381 H1368 0.929 . S
C1381 C1373 1.433 . S
C1381 N1383 1.384 . S
N1382 C1378 1.427 . S
N1382 C1379 1.384 . S
N1383 C1375 1.427 . S
N1383 C1381 1.384 . S
H1384 C1390 0.930 . S
H1385 C1394 0.930 . S
H1386 C1399 0.929 . S
H1387 C1397 0.929 . S
H1388 C1392 0.929 . S
H1389 C1398 0.929 . S
C1390 H1384 0.930 . S
C1390 C1391 1.367 . S
C1390 C1398 1.378 . S
C1391 C1390 1.367 . S
C1391 C1399 1.433 . S
C1392 H1388 0.929 . S
C1392 C1394 1.378 . S
C1392 C1396 1.350 . S
C1393 C1396 1.463 . S
C1393 C1398 1.350 . S
C1393 N1401 1.427 . S
C1394 H1385 0.930 . S
C1394 C1392 1.378 . S
C1394 C1395 1.367 . S
C1395 C1394 1.367 . S
C1395 C1397 1.433 . S
C1396 C1392 1.350 . S
C1396 C1393 1.463 . S
C1396 N1400 1.427 . S
C1397 H1387 0.929 . S
C1397 C1395 1.433 . S
C1397 N1400 1.384 . S
C1398 H1389 0.929 . S
C1398 C1390 1.378 . S
C1398 C1393 1.350 . S
C1399 H1386 0.929 . S
C1399 C1391 1.433 . S
C1399 N1401 1.384 . S
N1400 C1396 1.427 . S
N1400 C1397 1.384 . S
N1401 C1393 1.427 . S
N1401 C1399 1.384 . S
H1402 C1408 0.930 . S
H1403 C1412 0.930 . S
H1404 C1417 0.929 . S
H1405 C1415 0.929 . S
H1406 C1410 0.929 . S
H1407 C1416 0.929 . S
C1408 H1402 0.930 . S
C1408 C1409 1.367 . S
C1408 C1416 1.378 . S
C1409 C1408 1.367 . S
C1409 C1417 1.433 . S
C1410 H1406 0.929 . S
C1410 C1412 1.378 . S
C1410 C1414 1.350 . S
C1411 C1414 1.463 . S
C1411 C1416 1.350 . S
C1411 N1419 1.427 . S
C1412 H1403 0.930 . S
C1412 C1410 1.378 . S
C1412 C1413 1.367 . S
C1413 C1412 1.367 . S
C1413 C1415 1.433 . S
C1414 C1410 1.350 . S
C1414 C1411 1.463 . S
C1414 N1418 1.427 . S
C1415 H1405 0.929 . S
C1415 C1413 1.433 . S
C1415 N1418 1.384 . S
C1416 H1407 0.929 . S
C1416 C1408 1.378 . S
C1416 C1411 1.350 . S
C1417 H1404 0.929 . S
C1417 C1409 1.433 . S
C1417 N1419 1.384 . S
N1418 C1414 1.427 . S
N1418 C1415 1.384 . S
N1419 C1411 1.427 . S
N1419 C1417 1.384 . S
H1420 C1426 0.930 . S
H1421 C1430 0.930 . S
H1422 C1435 0.929 . S
H1423 C1433 0.929 . S
H1424 C1428 0.929 . S
H1425 C1434 0.929 . S
C1426 H1420 0.930 . S
C1426 C1427 1.367 . S
C1426 C1434 1.378 . S
C1427 C1426 1.367 . S
C1427 C1435 1.433 . S
C1428 H1424 0.929 . S
C1428 C1430 1.378 . S
C1428 C1432 1.350 . S
C1429 C1432 1.463 . S
C1429 C1434 1.350 . S
C1429 N1437 1.427 . S
C1430 H1421 0.930 . S
C1430 C1428 1.378 . S
C1430 C1431 1.367 . S
C1431 C1430 1.367 . S
C1431 C1433 1.433 . S
C1432 C1428 1.350 . S
C1432 C1429 1.463 . S
C1432 N1436 1.427 . S
C1433 H1423 0.929 . S
C1433 C1431 1.433 . S
C1433 N1436 1.384 . S
C1434 H1425 0.929 . S
C1434 C1426 1.378 . S
C1434 C1429 1.350 . S
C1435 H1422 0.929 . S
C1435 C1427 1.433 . S
C1435 N1437 1.384 . S
N1436 C1432 1.427 . S
N1436 C1433 1.384 . S
N1437 C1429 1.427 . S
N1437 C1435 1.384 . S
H1438 C1444 0.930 . S
H1439 C1448 0.930 . S
H1440 C1453 0.929 . S
H1441 C1451 0.929 . S
H1442 C1446 0.929 . S
H1443 C1452 0.929 . S
C1444 H1438 0.930 . S
C1444 C1445 1.367 . S
C1444 C1452 1.378 . S
C1445 C1444 1.367 . S
C1445 C1453 1.433 . S
C1446 H1442 0.929 . S
C1446 C1448 1.378 . S
C1446 C1450 1.350 . S
C1447 C1450 1.463 . S
C1447 C1452 1.350 . S
C1447 N1455 1.427 . S
C1448 H1439 0.930 . S
C1448 C1446 1.378 . S
C1448 C1449 1.367 . S
C1449 C1448 1.367 . S
C1449 C1451 1.433 . S
C1450 C1446 1.350 . S
C1450 C1447 1.463 . S
C1450 N1454 1.427 . S
C1451 H1441 0.929 . S
C1451 C1449 1.433 . S
C1451 N1454 1.384 . S
C1452 H1443 0.929 . S
C1452 C1444 1.378 . S
C1452 C1447 1.350 . S
C1453 H1440 0.929 . S
C1453 C1445 1.433 . S
C1453 N1455 1.384 . S
N1454 C1450 1.427 . S
N1454 C1451 1.384 . S
N1455 C1447 1.427 . S
N1455 C1453 1.384 . S
H1456 C1462 0.930 . S
H1457 C1466 0.930 . S
H1458 C1471 0.929 . S
H1459 C1469 0.929 . S
H1460 C1464 0.929 . S
H1461 C1470 0.929 . S
C1462 H1456 0.930 . S
C1462 C1463 1.367 . S
C1462 C1470 1.378 . S
C1463 C1462 1.367 . S
C1463 C1471 1.433 . S
C1464 H1460 0.929 . S
C1464 C1466 1.378 . S
C1464 C1468 1.350 . S
C1465 C1468 1.463 1_554 S
C1465 C1470 1.350 . S
C1465 N1473 1.427 . S
C1466 H1457 0.930 . S
C1466 C1464 1.378 . S
C1466 C1467 1.367 . S
C1467 C1466 1.367 . S
C1467 C1469 1.433 . S
C1468 C1464 1.350 . S
C1468 C1465 1.463 1_556 S
C1468 N1472 1.427 . S
C1469 H1459 0.929 . S
C1469 C1467 1.433 . S
C1469 N1472 1.384 . S
C1470 H1461 0.929 . S
C1470 C1462 1.378 . S
C1470 C1465 1.350 . S
C1471 H1458 0.929 . S
C1471 C1463 1.433 . S
C1471 N1473 1.384 . S
N1472 C1468 1.427 . S
N1472 C1469 1.384 . S
N1473 C1465 1.427 . S
N1473 C1471 1.384 . S
H1474 C1480 0.930 . S
H1475 C1484 0.930 . S
H1476 C1489 0.929 . S
H1477 C1487 0.929 . S
H1478 C1482 0.929 . S
H1479 C1488 0.929 . S
C1480 H1474 0.930 . S
C1480 C1481 1.367 . S
C1480 C1488 1.378 . S
C1481 C1480 1.367 . S
C1481 C1489 1.433 . S
C1482 H1478 0.929 . S
C1482 C1484 1.378 . S
C1482 C1486 1.350 . S
C1483 C1486 1.463 1_556 S
C1483 C1488 1.350 . S
C1483 N1491 1.427 . S
C1484 H1475 0.930 . S
C1484 C1482 1.378 . S
C1484 C1485 1.367 . S
C1485 C1484 1.367 . S
C1485 C1487 1.433 . S
C1486 C1482 1.350 . S
C1486 C1483 1.463 1_554 S
C1486 N1490 1.427 . S
C1487 H1477 0.929 . S
C1487 C1485 1.433 . S
C1487 N1490 1.384 . S
C1488 H1479 0.929 . S
C1488 C1480 1.378 . S
C1488 C1483 1.350 . S
C1489 H1476 0.929 . S
C1489 C1481 1.433 . S
C1489 N1491 1.384 . S
N1490 C1486 1.427 . S
N1490 C1487 1.384 . S
N1491 C1483 1.427 . S
N1491 C1489 1.384 . S
H1492 C1498 0.930 . S
H1493 C1502 0.930 . S
H1494 C1507 0.929 . S
H1495 C1505 0.929 . S
H1496 C1500 0.929 . S
H1497 C1506 0.929 . S
C1498 H1492 0.930 . S
C1498 C1499 1.367 . S
C1498 C1506 1.378 . S
C1499 C1498 1.367 . S
C1499 C1507 1.433 . S
C1500 H1496 0.929 . S
C1500 C1502 1.378 . S
C1500 C1504 1.350 . S
C1501 C1504 1.463 1_554 S
C1501 C1506 1.350 . S
C1501 N1509 1.427 . S
C1502 H1493 0.930 . S
C1502 C1500 1.378 . S
C1502 C1503 1.367 . S
C1503 C1502 1.367 . S
C1503 C1505 1.433 . S
C1504 C1500 1.350 . S
C1504 C1501 1.463 1_556 S
C1504 N1508 1.427 . S
C1505 H1495 0.929 . S
C1505 C1503 1.433 . S
C1505 N1508 1.384 . S
C1506 H1497 0.929 . S
C1506 C1498 1.378 . S
C1506 C1501 1.350 . S
C1507 H1494 0.929 . S
C1507 C1499 1.433 . S
C1507 N1509 1.384 . S
N1508 C1504 1.427 . S
N1508 C1505 1.384 . S
N1509 C1501 1.427 . S
N1509 C1507 1.384 . S
H1510 C1516 0.930 . S
H1511 C1520 0.930 . S
H1512 C1525 0.929 . S
H1513 C1523 0.929 . S
H1514 C1518 0.929 . S
H1515 C1524 0.929 . S
C1516 H1510 0.930 . S
C1516 C1517 1.367 . S
C1516 C1524 1.378 . S
C1517 C1516 1.367 . S
C1517 C1525 1.433 . S
C1518 H1514 0.929 . S
C1518 C1520 1.378 . S
C1518 C1522 1.350 . S
C1519 C1522 1.463 1_554 S
C1519 C1524 1.350 . S
C1519 N1527 1.427 . S
C1520 H1511 0.930 . S
C1520 C1518 1.378 . S
C1520 C1521 1.367 . S
C1521 C1520 1.367 . S
C1521 C1523 1.433 . S
C1522 C1518 1.350 . S
C1522 C1519 1.463 1_556 S
C1522 N1526 1.427 . S
C1523 H1513 0.929 . S
C1523 C1521 1.433 . S
C1523 N1526 1.384 . S
C1524 H1515 0.929 . S
C1524 C1516 1.378 . S
C1524 C1519 1.350 . S
C1525 H1512 0.929 . S
C1525 C1517 1.433 . S
C1525 N1527 1.384 . S
N1526 C1522 1.427 . S
N1526 C1523 1.384 . S
N1527 C1519 1.427 . S
N1527 C1525 1.384 . S
H1528 C1534 0.930 . S
H1529 C1538 0.930 . S
H1530 C1543 0.929 . S
H1531 C1541 0.929 . S
H1532 C1536 0.929 . S
H1533 C1542 0.929 . S
C1534 H1528 0.930 . S
C1534 C1535 1.367 . S
C1534 C1542 1.378 . S
C1535 C1534 1.367 . S
C1535 C1543 1.433 . S
C1536 H1532 0.929 . S
C1536 C1538 1.378 . S
C1536 C1540 1.350 . S
C1537 C1540 1.463 1_554 S
C1537 C1542 1.350 . S
C1537 N1545 1.427 . S
C1538 H1529 0.930 . S
C1538 C1536 1.378 . S
C1538 C1539 1.367 . S
C1539 C1538 1.367 . S
C1539 C1541 1.433 . S
C1540 C1536 1.350 . S
C1540 C1537 1.463 1_556 S
C1540 N1544 1.427 . S
C1541 H1531 0.929 . S
C1541 C1539 1.433 . S
C1541 N1544 1.384 . S
C1542 H1533 0.929 . S
C1542 C1534 1.378 . S
C1542 C1537 1.350 . S
C1543 H1530 0.929 . S
C1543 C1535 1.433 . S
C1543 N1545 1.384 . S
N1544 C1540 1.427 . S
N1544 C1541 1.384 . S
N1545 C1537 1.427 . S
N1545 C1543 1.384 . S
H1546 C1552 0.930 . S
H1547 C1556 0.930 . S
H1548 C1561 0.929 . S
H1549 C1559 0.929 . S
H1550 C1554 0.929 . S
H1551 C1560 0.929 . S
C1552 H1546 0.930 . S
C1552 C1553 1.367 . S
C1552 C1560 1.378 . S
C1553 C1552 1.367 . S
C1553 C1561 1.433 . S
C1554 H1550 0.929 . S
C1554 C1556 1.378 . S
C1554 C1558 1.350 . S
C1555 C1558 1.463 1_554 S
C1555 C1560 1.350 . S
C1555 N1563 1.427 . S
C1556 H1547 0.930 . S
C1556 C1554 1.378 . S
C1556 C1557 1.367 . S
C1557 C1556 1.367 . S
C1557 C1559 1.433 . S
C1558 C1554 1.350 . S
C1558 C1555 1.463 1_556 S
C1558 N1562 1.427 . S
C1559 H1549 0.929 . S
C1559 C1557 1.433 . S
C1559 N1562 1.384 . S
C1560 H1551 0.929 . S
C1560 C1552 1.378 . S
C1560 C1555 1.350 . S
C1561 H1548 0.929 . S
C1561 C1553 1.433 . S
C1561 N1563 1.384 . S
N1562 C1558 1.427 . S
N1562 C1559 1.384 . S
N1563 C1555 1.427 . S
N1563 C1561 1.384 . S
H1564 C1570 0.930 . S
H1565 C1574 0.930 . S
H1566 C1579 0.929 . S
H1567 C1577 0.929 . S
H1568 C1572 0.929 . S
H1569 C1578 0.929 . S
C1570 H1564 0.930 . S
C1570 C1571 1.367 . S
C1570 C1578 1.378 . S
C1571 C1570 1.367 . S
C1571 C1579 1.433 . S
C1572 H1568 0.929 . S
C1572 C1574 1.378 . S
C1572 C1576 1.350 . S
C1573 C1576 1.463 1_556 S
C1573 C1578 1.350 . S
C1573 N1581 1.427 . S
C1574 H1565 0.930 . S
C1574 C1572 1.378 . S
C1574 C1575 1.367 . S
C1575 C1574 1.367 . S
C1575 C1577 1.433 . S
C1576 C1572 1.350 . S
C1576 C1573 1.463 1_554 S
C1576 N1580 1.427 . S
C1577 H1567 0.929 . S
C1577 C1575 1.433 . S
C1577 N1580 1.384 . S
C1578 H1569 0.929 . S
C1578 C1570 1.378 . S
C1578 C1573 1.350 . S
C1579 H1566 0.929 . S
C1579 C1571 1.433 . S
C1579 N1581 1.384 . S
N1580 C1576 1.427 . S
N1580 C1577 1.384 . S
N1581 C1573 1.427 . S
N1581 C1579 1.384 . S
H1582 C1588 0.930 . S
H1583 C1592 0.930 . S
H1584 C1597 0.929 . S
H1585 C1595 0.929 . S
H1586 C1590 0.929 . S
H1587 C1596 0.929 . S
C1588 H1582 0.930 . S
C1588 C1589 1.367 . S
C1588 C1596 1.378 . S
C1589 C1588 1.367 . S
C1589 C1597 1.433 . S
C1590 H1586 0.929 . S
C1590 C1592 1.378 . S
C1590 C1594 1.350 . S
C1591 C1594 1.463 1_556 S
C1591 C1596 1.350 . S
C1591 N1599 1.427 . S
C1592 H1583 0.930 . S
C1592 C1590 1.378 . S
C1592 C1593 1.367 . S
C1593 C1592 1.367 . S
C1593 C1595 1.433 . S
C1594 C1590 1.350 . S
C1594 C1591 1.463 1_554 S
C1594 N1598 1.427 . S
C1595 H1585 0.929 . S
C1595 C1593 1.433 . S
C1595 N1598 1.384 . S
C1596 H1587 0.929 . S
C1596 C1588 1.378 . S
C1596 C1591 1.350 . S
C1597 H1584 0.929 . S
C1597 C1589 1.433 . S
C1597 N1599 1.384 . S
N1598 C1594 1.427 . S
N1598 C1595 1.384 . S
N1599 C1591 1.427 . S
N1599 C1597 1.384 . S
H1600 C1606 0.930 . S
H1601 C1610 0.930 . S
H1602 C1615 0.929 . S
H1603 C1613 0.929 . S
H1604 C1608 0.929 . S
H1605 C1614 0.929 . S
C1606 H1600 0.930 . S
C1606 C1607 1.367 . S
C1606 C1614 1.378 . S
C1607 C1606 1.367 . S
C1607 C1615 1.433 . S
C1608 H1604 0.929 . S
C1608 C1610 1.378 . S
C1608 C1612 1.350 . S
C1609 C1612 1.463 . S
C1609 C1614 1.350 . S
C1609 N1617 1.427 . S
C1610 H1601 0.930 . S
C1610 C1608 1.378 . S
C1610 C1611 1.367 . S
C1611 C1610 1.367 . S
C1611 C1613 1.433 . S
C1612 C1608 1.350 . S
C1612 C1609 1.463 . S
C1612 N1616 1.427 . S
C1613 H1603 0.929 . S
C1613 C1611 1.433 . S
C1613 N1616 1.384 . S
C1614 H1605 0.929 . S
C1614 C1606 1.378 . S
C1614 C1609 1.350 . S
C1615 H1602 0.929 . S
C1615 C1607 1.433 . S
C1615 N1617 1.384 . S
N1616 C1612 1.427 . S
N1616 C1613 1.384 . S
N1617 C1609 1.427 . S
N1617 C1615 1.384 . S
H1618 C1624 0.930 . S
H1619 C1628 0.930 . S
H1620 C1633 0.929 . S
H1621 C1631 0.929 . S
H1622 C1626 0.929 . S
H1623 C1632 0.929 . S
C1624 H1618 0.930 . S
C1624 C1625 1.367 . S
C1624 C1632 1.378 . S
C1625 C1624 1.367 . S
C1625 C1633 1.433 . S
C1626 H1622 0.929 . S
C1626 C1628 1.378 . S
C1626 C1630 1.350 . S
C1627 C1630 1.463 . S
C1627 C1632 1.350 . S
C1627 N1635 1.427 . S
C1628 H1619 0.930 . S
C1628 C1626 1.378 . S
C1628 C1629 1.367 . S
C1629 C1628 1.367 . S
C1629 C1631 1.433 . S
C1630 C1626 1.350 . S
C1630 C1627 1.463 . S
C1630 N1634 1.427 . S
C1631 H1621 0.929 . S
C1631 C1629 1.433 . S
C1631 N1634 1.384 . S
C1632 H1623 0.929 . S
C1632 C1624 1.378 . S
C1632 C1627 1.350 . S
C1633 H1620 0.929 . S
C1633 C1625 1.433 . S
C1633 N1635 1.384 . S
N1634 C1630 1.427 . S
N1634 C1631 1.384 . S
N1635 C1627 1.427 . S
N1635 C1633 1.384 . S
H1636 C1642 0.930 . S
H1637 C1646 0.930 . S
H1638 C1651 0.929 . S
H1639 C1649 0.929 . S
H1640 C1644 0.929 . S
H1641 C1650 0.929 . S
C1642 H1636 0.930 . S
C1642 C1643 1.367 . S
C1642 C1650 1.378 . S
C1643 C1642 1.367 . S
C1643 C1651 1.433 . S
C1644 H1640 0.929 . S
C1644 C1646 1.378 . S
C1644 C1648 1.350 . S
C1645 C1648 1.463 . S
C1645 C1650 1.350 . S
C1645 N1653 1.427 . S
C1646 H1637 0.930 . S
C1646 C1644 1.378 . S
C1646 C1647 1.367 . S
C1647 C1646 1.367 . S
C1647 C1649 1.433 . S
C1648 C1644 1.350 . S
C1648 C1645 1.463 . S
C1648 N1652 1.427 . S
C1649 H1639 0.929 . S
C1649 C1647 1.433 . S
C1649 N1652 1.384 . S
C1650 H1641 0.929 . S
C1650 C1642 1.378 . S
C1650 C1645 1.350 . S
C1651 H1638 0.929 . S
C1651 C1643 1.433 . S
C1651 N1653 1.384 . S
N1652 C1648 1.427 . S
N1652 C1649 1.384 . S
N1653 C1645 1.427 . S
N1653 C1651 1.384 . S
H1654 C1660 0.930 . S
H1655 C1664 0.930 . S
H1656 C1669 0.929 . S
H1657 C1667 0.929 . S
H1658 C1662 0.929 . S
H1659 C1668 0.929 . S
C1660 H1654 0.930 . S
C1660 C1661 1.367 . S
C1660 C1668 1.378 . S
C1661 C1660 1.367 . S
C1661 C1669 1.433 . S
C1662 H1658 0.929 . S
C1662 C1664 1.378 . S
C1662 C1666 1.350 . S
C1663 C1666 1.463 . S
C1663 C1668 1.350 . S
C1663 N1671 1.427 . S
C1664 H1655 0.930 . S
C1664 C1662 1.378 . S
C1664 C1665 1.367 . S
C1665 C1664 1.367 . S
C1665 C1667 1.433 . S
C1666 C1662 1.350 . S
C1666 C1663 1.463 . S
C1666 N1670 1.427 . S
C1667 H1657 0.929 . S
C1667 C1665 1.433 . S
C1667 N1670 1.384 . S
C1668 H1659 0.929 . S
C1668 C1660 1.378 . S
C1668 C1663 1.350 . S
C1669 H1656 0.929 . S
C1669 C1661 1.433 . S
C1669 N1671 1.384 . S
N1670 C1666 1.427 . S
N1670 C1667 1.384 . S
N1671 C1663 1.427 . S
N1671 C1669 1.384 . S
H1672 C1678 0.930 . S
H1673 C1682 0.930 . S
H1674 C1687 0.929 . S
H1675 C1685 0.929 . S
H1676 C1680 0.929 . S
H1677 C1686 0.929 . S
C1678 H1672 0.930 . S
C1678 C1679 1.367 . S
C1678 C1686 1.378 . S
C1679 C1678 1.367 . S
C1679 C1687 1.433 . S
C1680 H1676 0.929 . S
C1680 C1682 1.378 . S
C1680 C1684 1.350 . S
C1681 C1684 1.463 . S
C1681 C1686 1.350 . S
C1681 N1689 1.427 . S
C1682 H1673 0.930 . S
C1682 C1680 1.378 . S
C1682 C1683 1.367 . S
C1683 C1682 1.367 . S
C1683 C1685 1.433 . S
C1684 C1680 1.350 . S
C1684 C1681 1.463 . S
C1684 N1688 1.427 . S
C1685 H1675 0.929 . S
C1685 C1683 1.433 . S
C1685 N1688 1.384 . S
C1686 H1677 0.929 . S
C1686 C1678 1.378 . S
C1686 C1681 1.350 . S
C1687 H1674 0.929 . S
C1687 C1679 1.433 . S
C1687 N1689 1.384 . S
N1688 C1684 1.427 . S
N1688 C1685 1.384 . S
N1689 C1681 1.427 . S
N1689 C1687 1.384 . S
H1690 C1696 0.930 . S
H1691 C1700 0.930 . S
H1692 C1705 0.929 . S
H1693 C1703 0.929 . S
H1694 C1698 0.929 . S
H1695 C1704 0.929 . S
C1696 H1690 0.930 . S
C1696 C1697 1.367 . S
C1696 C1704 1.378 . S
C1697 C1696 1.367 . S
C1697 C1705 1.433 . S
C1698 H1694 0.929 . S
C1698 C1700 1.378 . S
C1698 C1702 1.350 . S
C1699 C1702 1.463 . S
C1699 C1704 1.350 . S
C1699 N1707 1.427 . S
C1700 H1691 0.930 . S
C1700 C1698 1.378 . S
C1700 C1701 1.367 . S
C1701 C1700 1.367 . S
C1701 C1703 1.433 . S
C1702 C1698 1.350 . S
C1702 C1699 1.463 . S
C1702 N1706 1.427 . S
C1703 H1693 0.929 . S
C1703 C1701 1.433 . S
C1703 N1706 1.384 . S
C1704 H1695 0.929 . S
C1704 C1696 1.378 . S
C1704 C1699 1.350 . S
C1705 H1692 0.929 . S
C1705 C1697 1.433 . S
C1705 N1707 1.384 . S
N1706 C1702 1.427 . S
N1706 C1703 1.384 . S
N1707 C1699 1.427 . S
N1707 C1705 1.384 . S
H1708 C1714 0.930 . S
H1709 C1718 0.930 . S
H1710 C1723 0.929 . S
H1711 C1721 0.929 . S
H1712 C1716 0.929 . S
H1713 C1722 0.929 . S
C1714 H1708 0.930 . S
C1714 C1715 1.367 . S
C1714 C1722 1.378 . S
C1715 C1714 1.367 . S
C1715 C1723 1.433 . S
C1716 H1712 0.929 . S
C1716 C1718 1.378 . S
C1716 C1720 1.350 . S
C1717 C1720 1.463 . S
C1717 C1722 1.350 . S
C1717 N1725 1.427 . S
C1718 H1709 0.930 . S
C1718 C1716 1.378 . S
C1718 C1719 1.367 . S
C1719 C1718 1.367 . S
C1719 C1721 1.433 . S
C1720 C1716 1.350 . S
C1720 C1717 1.463 . S
C1720 N1724 1.427 . S
C1721 H1711 0.929 . S
C1721 C1719 1.433 . S
C1721 N1724 1.384 . S
C1722 H1713 0.929 . S
C1722 C1714 1.378 . S
C1722 C1717 1.350 . S
C1723 H1710 0.929 . S
C1723 C1715 1.433 . S
C1723 N1725 1.384 . S
N1724 C1720 1.427 . S
N1724 C1721 1.384 . S
N1725 C1717 1.427 . S
N1725 C1723 1.384 . S
H1726 C1732 0.930 . S
H1727 C1736 0.930 . S
H1728 C1741 0.929 . S
H1729 C1739 0.929 . S
H1730 C1734 0.929 . S
H1731 C1740 0.929 . S
C1732 H1726 0.930 . S
C1732 C1733 1.367 . S
C1732 C1740 1.378 . S
C1733 C1732 1.367 . S
C1733 C1741 1.433 . S
C1734 H1730 0.929 . S
C1734 C1736 1.378 . S
C1734 C1738 1.350 . S
C1735 C1738 1.463 . S
C1735 C1740 1.350 . S
C1735 N1743 1.427 . S
C1736 H1727 0.930 . S
C1736 C1734 1.378 . S
C1736 C1737 1.367 . S
C1737 C1736 1.367 . S
C1737 C1739 1.433 . S
C1738 C1734 1.350 . S
C1738 C1735 1.463 . S
C1738 N1742 1.427 . S
C1739 H1729 0.929 . S
C1739 C1737 1.433 . S
C1739 N1742 1.384 . S
C1740 H1731 0.929 . S
C1740 C1732 1.378 . S
C1740 C1735 1.350 . S
C1741 H1728 0.929 . S
C1741 C1733 1.433 . S
C1741 N1743 1.384 . S
N1742 C1738 1.427 . S
N1742 C1739 1.384 . S
N1743 C1735 1.427 . S
N1743 C1741 1.384 . S
H1744 C1750 0.930 . S
H1745 C1754 0.930 . S
H1746 C1759 0.929 . S
H1747 C1757 0.929 . S
H1748 C1752 0.929 . S
H1749 C1758 0.929 . S
C1750 H1744 0.930 . S
C1750 C1751 1.367 . S
C1750 C1758 1.378 . S
C1751 C1750 1.367 . S
C1751 C1759 1.433 . S
C1752 H1748 0.929 . S
C1752 C1754 1.378 . S
C1752 C1756 1.350 . S
C1753 C1756 1.463 . S
C1753 C1758 1.350 . S
C1753 N1761 1.427 . S
C1754 H1745 0.930 . S
C1754 C1752 1.378 . S
C1754 C1755 1.367 . S
C1755 C1754 1.367 . S
C1755 C1757 1.433 . S
C1756 C1752 1.350 . S
C1756 C1753 1.463 . S
C1756 N1760 1.427 . S
C1757 H1747 0.929 . S
C1757 C1755 1.433 . S
C1757 N1760 1.384 . S
C1758 H1749 0.929 . S
C1758 C1750 1.378 . S
C1758 C1753 1.350 . S
C1759 H1746 0.929 . S
C1759 C1751 1.433 . S
C1759 N1761 1.384 . S
N1760 C1756 1.427 . S
N1760 C1757 1.384 . S
N1761 C1753 1.427 . S
N1761 C1759 1.384 . S
H1762 C1768 0.930 . S
H1763 C1772 0.930 . S
H1764 C1777 0.929 . S
H1765 C1775 0.929 . S
H1766 C1770 0.929 . S
H1767 C1776 0.929 . S
C1768 H1762 0.930 . S
C1768 C1769 1.367 . S
C1768 C1776 1.378 . S
C1769 C1768 1.367 . S
C1769 C1777 1.433 . S
C1770 H1766 0.929 . S
C1770 C1772 1.378 . S
C1770 C1774 1.350 . S
C1771 C1774 1.463 . S
C1771 C1776 1.350 . S
C1771 N1779 1.427 . S
C1772 H1763 0.930 . S
C1772 C1770 1.378 . S
C1772 C1773 1.367 . S
C1773 C1772 1.367 . S
C1773 C1775 1.433 . S
C1774 C1770 1.350 . S
C1774 C1771 1.463 . S
C1774 N1778 1.427 . S
C1775 H1765 0.929 . S
C1775 C1773 1.433 . S
C1775 N1778 1.384 . S
C1776 H1767 0.929 . S
C1776 C1768 1.378 . S
C1776 C1771 1.350 . S
C1777 H1764 0.929 . S
C1777 C1769 1.433 . S
C1777 N1779 1.384 . S
N1778 C1774 1.427 . S
N1778 C1775 1.384 . S
N1779 C1771 1.427 . S
N1779 C1777 1.384 . S
H1780 C1786 0.930 . S
H1781 C1790 0.930 . S
H1782 C1795 0.929 . S
H1783 C1793 0.929 . S
H1784 C1788 0.929 . S
H1785 C1794 0.929 . S
C1786 H1780 0.930 . S
C1786 C1787 1.367 . S
C1786 C1794 1.378 . S
C1787 C1786 1.367 . S
C1787 C1795 1.433 . S
C1788 H1784 0.929 . S
C1788 C1790 1.378 . S
C1788 C1792 1.350 . S
C1789 C1792 1.463 . S
C1789 C1794 1.350 . S
C1789 N1797 1.427 . S
C1790 H1781 0.930 . S
C1790 C1788 1.378 . S
C1790 C1791 1.367 . S
C1791 C1790 1.367 . S
C1791 C1793 1.433 . S
C1792 C1788 1.350 . S
C1792 C1789 1.463 . S
C1792 N1796 1.427 . S
C1793 H1783 0.929 . S
C1793 C1791 1.433 . S
C1793 N1796 1.384 . S
C1794 H1785 0.929 . S
C1794 C1786 1.378 . S
C1794 C1789 1.350 . S
C1795 H1782 0.929 . S
C1795 C1787 1.433 . S
C1795 N1797 1.384 . S
N1796 C1792 1.427 . S
N1796 C1793 1.384 . S
N1797 C1789 1.427 . S
N1797 C1795 1.384 . S
H1798 C1804 0.930 . S
H1799 C1808 0.930 . S
H1800 C1813 0.929 . S
H1801 C1811 0.929 . S
H1802 C1806 0.929 . S
H1803 C1812 0.929 . S
C1804 H1798 0.930 . S
C1804 C1805 1.367 . S
C1804 C1812 1.378 . S
C1805 C1804 1.367 . S
C1805 C1813 1.433 . S
C1806 H1802 0.929 . S
C1806 C1808 1.378 . S
C1806 C1810 1.350 . S
C1807 C1810 1.463 . S
C1807 C1812 1.350 . S
C1807 N1815 1.427 . S
C1808 H1799 0.930 . S
C1808 C1806 1.378 . S
C1808 C1809 1.367 . S
C1809 C1808 1.367 . S
C1809 C1811 1.433 . S
C1810 C1806 1.350 . S
C1810 C1807 1.463 . S
C1810 N1814 1.427 . S
C1811 H1801 0.929 . S
C1811 C1809 1.433 . S
C1811 N1814 1.384 . S
C1812 H1803 0.929 . S
C1812 C1804 1.378 . S
C1812 C1807 1.350 . S
C1813 H1800 0.929 . S
C1813 C1805 1.433 . S
C1813 N1815 1.384 . S
N1814 C1810 1.427 . S
N1814 C1811 1.384 . S
N1815 C1807 1.427 . S
N1815 C1813 1.384 . S
H1816 C1822 0.930 . S
H1817 C1826 0.930 . S
H1818 C1831 0.929 . S
H1819 C1829 0.929 . S
H1820 C1824 0.929 . S
H1821 C1830 0.929 . S
C1822 H1816 0.930 . S
C1822 C1823 1.367 . S
C1822 C1830 1.378 . S
C1823 C1822 1.367 . S
C1823 C1831 1.433 . S
C1824 H1820 0.929 . S
C1824 C1826 1.378 . S
C1824 C1828 1.350 . S
C1825 C1828 1.463 . S
C1825 C1830 1.350 . S
C1825 N1833 1.427 . S
C1826 H1817 0.930 . S
C1826 C1824 1.378 . S
C1826 C1827 1.367 . S
C1827 C1826 1.367 . S
C1827 C1829 1.433 . S
C1828 C1824 1.350 . S
C1828 C1825 1.463 . S
C1828 N1832 1.427 . S
C1829 H1819 0.929 . S
C1829 C1827 1.433 . S
C1829 N1832 1.384 . S
C1830 H1821 0.929 . S
C1830 C1822 1.378 . S
C1830 C1825 1.350 . S
C1831 H1818 0.929 . S
C1831 C1823 1.433 . S
C1831 N1833 1.384 . S
N1832 C1828 1.427 . S
N1832 C1829 1.384 . S
N1833 C1825 1.427 . S
N1833 C1831 1.384 . S
H1834 C1840 0.930 . S
H1835 C1844 0.930 . S
H1836 C1849 0.929 . S
H1837 C1847 0.929 . S
H1838 C1842 0.929 . S
H1839 C1848 0.929 . S
C1840 H1834 0.930 . S
C1840 C1841 1.367 . S
C1840 C1848 1.378 . S
C1841 C1840 1.367 . S
C1841 C1849 1.433 . S
C1842 H1838 0.929 . S
C1842 C1844 1.378 . S
C1842 C1846 1.350 . S
C1843 C1846 1.463 . S
C1843 C1848 1.350 . S
C1843 N1851 1.427 . S
C1844 H1835 0.930 . S
C1844 C1842 1.378 . S
C1844 C1845 1.367 . S
C1845 C1844 1.367 . S
C1845 C1847 1.433 . S
C1846 C1842 1.350 . S
C1846 C1843 1.463 . S
C1846 N1850 1.427 . S
C1847 H1837 0.929 . S
C1847 C1845 1.433 . S
C1847 N1850 1.384 . S
C1848 H1839 0.929 . S
C1848 C1840 1.378 . S
C1848 C1843 1.350 . S
C1849 H1836 0.929 . S
C1849 C1841 1.433 . S
C1849 N1851 1.384 . S
N1850 C1846 1.427 . S
N1850 C1847 1.384 . S
N1851 C1843 1.427 . S
N1851 C1849 1.384 . S
H1852 C1858 0.930 . S
H1853 C1862 0.930 . S
H1854 C1867 0.929 . S
H1855 C1865 0.929 . S
H1856 C1860 0.929 . S
H1857 C1866 0.929 . S
C1858 H1852 0.930 . S
C1858 C1859 1.367 . S
C1858 C1866 1.378 . S
C1859 C1858 1.367 . S
C1859 C1867 1.433 . S
C1860 H1856 0.929 . S
C1860 C1862 1.378 . S
C1860 C1864 1.350 . S
C1861 C1864 1.463 . S
C1861 C1866 1.350 . S
C1861 N1869 1.427 . S
C1862 H1853 0.930 . S
C1862 C1860 1.378 . S
C1862 C1863 1.367 . S
C1863 C1862 1.367 . S
C1863 C1865 1.433 . S
C1864 C1860 1.350 . S
C1864 C1861 1.463 . S
C1864 N1868 1.427 . S
C1865 H1855 0.929 . S
C1865 C1863 1.433 . S
C1865 N1868 1.384 . S
C1866 H1857 0.929 . S
C1866 C1858 1.378 . S
C1866 C1861 1.350 . S
C1867 H1854 0.929 . S
C1867 C1859 1.433 . S
C1867 N1869 1.384 . S
N1868 C1864 1.427 . S
N1868 C1865 1.384 . S
N1869 C1861 1.427 . S
N1869 C1867 1.384 . S
H1870 C1876 0.930 . S
H1871 C1880 0.930 . S
H1872 C1885 0.929 . S
H1873 C1883 0.929 . S
H1874 C1878 0.929 . S
H1875 C1884 0.929 . S
C1876 H1870 0.930 . S
C1876 C1877 1.367 . S
C1876 C1884 1.378 . S
C1877 C1876 1.367 . S
C1877 C1885 1.433 . S
C1878 H1874 0.929 . S
C1878 C1880 1.378 . S
C1878 C1882 1.350 . S
C1879 C1882 1.463 . S
C1879 C1884 1.350 . S
C1879 N1887 1.427 . S
C1880 H1871 0.930 . S
C1880 C1878 1.378 . S
C1880 C1881 1.367 . S
C1881 C1880 1.367 . S
C1881 C1883 1.433 . S
C1882 C1878 1.350 . S
C1882 C1879 1.463 . S
C1882 N1886 1.427 . S
C1883 H1873 0.929 . S
C1883 C1881 1.433 . S
C1883 N1886 1.384 . S
C1884 H1875 0.929 . S
C1884 C1876 1.378 . S
C1884 C1879 1.350 . S
C1885 H1872 0.929 . S
C1885 C1877 1.433 . S
C1885 N1887 1.384 . S
N1886 C1882 1.427 . S
N1886 C1883 1.384 . S
N1887 C1879 1.427 . S
N1887 C1885 1.384 . S
C743 N347 1.954 . S
C747 N2 1.949 . S
C761 N25 1.948 . S
C765 N278 1.955 . S
C779 N48 1.944 . S
C783 N301 1.959 . S
C797 N324 1.957 . S
C801 N71 1.947 . S
C815 N94 1.944 . S
C819 N209 1.959 . S
C833 N117 1.959 . S
C837 N232 1.944 . S
C851 N255 1.944 . S
C855 N140 1.960 . S
C869 N186 1.948 . S
C873 N163 1.955 . S
C887 N370 1.945 . S
C891 N715 1.958 . S
C905 N393 1.957 . S
C909 N646 1.946 . S
C923 N416 1.944 . S
C927 N669 1.959 . S
C941 N692 1.956 . S
C945 N439 1.948 . S
C959 N462 1.955 . S
C963 N577 1.949 . S
C977 N485 1.958 . S
C981 N600 1.946 . S
C995 N623 1.958 . S
C999 N508 1.945 . S
C1013 N531 1.946 . S
C1017 N554 1.957 . S
C1031 N288 2.039 . S
C1035 N12 2.037 . S
C1049 N35 2.042 . S
C1053 N311 2.034 . S
C1067 N334 2.041 . S
C1071 N58 2.034 . S
C1085 N81 2.037 . S
C1089 N357 2.039 . S
C1103 N104 2.034 . S
C1107 N196 2.042 . S
C1121 N219 2.033 . S
C1125 N127 2.042 . S
C1139 N242 2.033 . S
C1143 N150 2.043 . S
C1157 N265 2.041 . S
C1161 N173 2.034 . S
C1175 N380 2.042 . S
C1179 N656 2.034 . S
C1193 N679 2.036 . S
C1197 N403 2.039 . S
C1211 N426 2.039 . S
C1215 N702 2.036 . S
C1229 N449 2.043 . S
C1233 N725 2.033 . S
C1247 N564 2.036 . S
C1251 N472 2.039 . S
C1265 N495 2.042 . S
C1269 N587 2.033 . S
C1283 N518 2.035 . S
C1287 N610 2.041 . S
C1301 N541 2.042 . S
C1305 N633 2.033 . S
C1319 C7 1.582 . S
C1323 C237 1.578 . S
C1337 C260 1.582 . S
C1341 C30 1.577 . S
C1355 C53 1.580 . S
C1359 C191 1.579 . S
C1373 C214 1.583 . S
C1377 C76 1.577 . S
C1391 C329 1.583 . S
C1395 C99 1.577 . S
C1409 C352 1.583 . S
C1413 C122 1.577 . S
C1427 C283 1.582 . S
C1431 C145 1.577 . S
C1445 C168 1.576 . S
C1449 C306 1.583 . S
C1463 C605 1.578 . S
C1467 C375 1.582 . S
C1481 C398 1.583 . S
C1485 C628 1.577 . S
C1499 C559 1.578 . S
C1503 C421 1.582 . S
C1517 C582 1.583 . S
C1521 C444 1.577 . S
C1535 C467 1.581 . S
C1539 C697 1.579 . S
C1553 C490 1.577 . S
C1557 C720 1.583 . S
C1571 C651 1.577 . S
C1575 C513 1.583 . S
C1589 C674 1.583 . S
C1593 C536 1.577 . S
C1607 C545 1.536 . S
C1611 C16 1.543 . S
C1625 C476 1.544 . S
C1629 C39 1.542 . S
C1643 C499 1.537 . S
C1647 C62 1.544 . S
C1661 C522 1.542 . S
C1665 C85 1.535 . S
C1679 C407 1.544 . S
C1683 C108 1.539 . S
C1697 C131 1.534 . S
C1701 C430 1.541 . S
C1715 C154 1.544 . S
C1719 C453 1.539 . S
C1733 C177 1.542 . S
C1737 C384 1.535 . S
C1751 C200 1.535 . S
C1755 C729 1.542 . S
C1769 C660 1.534 . S
C1773 C223 1.541 . S
C1787 C246 1.536 . S
C1791 C683 1.543 . S
C1805 C269 1.540 . S
C1809 C706 1.544 . S
C1823 C591 1.538 . S
C1827 C292 1.533 . S
C1841 C614 1.536 . S
C1845 C315 1.543 . S
C1859 C338 1.543 . S
C1863 C637 1.537 . S
C1877 C361 1.541 . S
C1881 C568 1.544 . S
