# Generated by pormake.
# Topology wme, (6)-cn, num edge types: 1
# Building blocks:
#     Node 0, Type 0, BuildingBlock: JUFBIX_clean_sbu_0, # of connection points: 6
#     Node 1, Type 0, BuildingBlock: JUFBIX_clean_sbu_0, # of connection points: 6
#     Node 2, Type 0, BuildingBlock: JUFBIX_clean_sbu_0, # of connection points: 6
#     Node 3, Type 0, BuildingBlock: JUFBIX_clean_sbu_0, # of connection points: 6
#     Node 4, Type 0, BuildingBlock: JUFBIX_clean_sbu_0, # of connection points: 6
#     Node 5, Type 0, BuildingBlock: JUFBIX_clean_sbu_0, # of connection points: 6
#     Node 6, Type 0, BuildingBlock: JUFBIX_clean_sbu_0, # of connection points: 6
#     Node 7, Type 0, BuildingBlock: JUFBIX_clean_sbu_0, # of connection points: 6
#     Node 8, Type 0, BuildingBlock: JUFBIX_clean_sbu_0, # of connection points: 6
#     Node 9, Type 0, BuildingBlock: JUFBIX_clean_sbu_0, # of connection points: 6
#     Node 10, Type 0, BuildingBlock: JUFBIX_clean_sbu_0, # of connection points: 6
#     Node 11, Type 0, BuildingBlock: JUFBIX_clean_sbu_0, # of connection points: 6
#     Edge 12, Type (0, 0), BuildingBlock: UVAHIK_clean_linker_0, # of connection points: 2
#     Edge 13, Type (0, 0), BuildingBlock: UVAHIK_clean_linker_0, # of connection points: 2
#     Edge 14, Type (0, 0), BuildingBlock: UVAHIK_clean_linker_0, # of connection points: 2
#     Edge 15, Type (0, 0), BuildingBlock: UVAHIK_clean_linker_0, # of connection points: 2
#     Edge 16, Type (0, 0), BuildingBlock: UVAHIK_clean_linker_0, # of connection points: 2
#     Edge 17, Type (0, 0), BuildingBlock: UVAHIK_clean_linker_0, # of connection points: 2
#     Edge 18, Type (0, 0), BuildingBlock: UVAHIK_clean_linker_0, # of connection points: 2
#     Edge 19, Type (0, 0), BuildingBlock: UVAHIK_clean_linker_0, # of connection points: 2
#     Edge 20, Type (0, 0), BuildingBlock: UVAHIK_clean_linker_0, # of connection points: 2
#     Edge 21, Type (0, 0), BuildingBlock: UVAHIK_clean_linker_0, # of connection points: 2
#     Edge 22, Type (0, 0), BuildingBlock: UVAHIK_clean_linker_0, # of connection points: 2
#     Edge 23, Type (0, 0), BuildingBlock: UVAHIK_clean_linker_0, # of connection points: 2
#     Edge 24, Type (0, 0), BuildingBlock: UVAHIK_clean_linker_0, # of connection points: 2
#     Edge 25, Type (0, 0), BuildingBlock: UVAHIK_clean_linker_0, # of connection points: 2
#     Edge 26, Type (0, 0), BuildingBlock: UVAHIK_clean_linker_0, # of connection points: 2
#     Edge 27, Type (0, 0), BuildingBlock: UVAHIK_clean_linker_0, # of connection points: 2
#     Edge 28, Type (0, 0), BuildingBlock: UVAHIK_clean_linker_0, # of connection points: 2
#     Edge 29, Type (0, 0), BuildingBlock: UVAHIK_clean_linker_0, # of connection points: 2
#     Edge 30, Type (0, 0), BuildingBlock: UVAHIK_clean_linker_0, # of connection points: 2
#     Edge 31, Type (0, 0), BuildingBlock: UVAHIK_clean_linker_0, # of connection points: 2
#     Edge 32, Type (0, 0), BuildingBlock: UVAHIK_clean_linker_0, # of connection points: 2
#     Edge 33, Type (0, 0), BuildingBlock: UVAHIK_clean_linker_0, # of connection points: 2
#     Edge 34, Type (0, 0), BuildingBlock: UVAHIK_clean_linker_0, # of connection points: 2
#     Edge 35, Type (0, 0), BuildingBlock: UVAHIK_clean_linker_0, # of connection points: 2
#     Edge 36, Type (0, 0), BuildingBlock: UVAHIK_clean_linker_0, # of connection points: 2
#     Edge 37, Type (0, 0), BuildingBlock: UVAHIK_clean_linker_0, # of connection points: 2
#     Edge 38, Type (0, 0), BuildingBlock: UVAHIK_clean_linker_0, # of connection points: 2
#     Edge 39, Type (0, 0), BuildingBlock: UVAHIK_clean_linker_0, # of connection points: 2
#     Edge 40, Type (0, 0), BuildingBlock: UVAHIK_clean_linker_0, # of connection points: 2
#     Edge 41, Type (0, 0), BuildingBlock: UVAHIK_clean_linker_0, # of connection points: 2
#     Edge 42, Type (0, 0), BuildingBlock: UVAHIK_clean_linker_0, # of connection points: 2
#     Edge 43, Type (0, 0), BuildingBlock: UVAHIK_clean_linker_0, # of connection points: 2
#     Edge 44, Type (0, 0), BuildingBlock: UVAHIK_clean_linker_0, # of connection points: 2
#     Edge 45, Type (0, 0), BuildingBlock: UVAHIK_clean_linker_0, # of connection points: 2
#     Edge 46, Type (0, 0), BuildingBlock: UVAHIK_clean_linker_0, # of connection points: 2
#     Edge 47, Type (0, 0), BuildingBlock: UVAHIK_clean_linker_0, # of connection points: 2
# Relax obj value: 0.295
# Max RMSD: 0.227
# Mean RMSD: 0.227
data_MOF--net-wme--node1-JUFBIX_clean_sbu_0--edge1-UVAHIK_clean_linker_0
_symmetry_space_group_name_H-M    P1
_symmetry_Int_Tables_number       1
_symmetry_cell_setting            triclinic
loop_
_symmetry_equiv_pos_as_xyz
'x, y, z'
_cell_length_a     41.537388
_cell_length_b     41.491111
_cell_length_c     72.656317
_cell_angle_alpha  89.943772
_cell_angle_beta   90.056476
_cell_angle_gamma 119.99225
loop_
_atom_site_label
_atom_site_type_symbol
_atom_site_fract_x
_atom_site_fract_y
_atom_site_fract_z
_atom_type_partial_charge
Co0 Co 0.19987 0.3402 0.12196 0.0
C1 C 0.22384 0.3085 0.09513 0.0
Co2 Co 0.22523 0.30881 0.13293 0.0
C3 C 0.17813 0.39638 0.11931 0.0
C4 C 0.1614 0.36022 0.0959 0.0
N5 N 0.17946 0.36707 0.11215 0.0
N6 N 0.16022 0.40815 0.10807 0.0
C7 C 0.14978 0.38559 0.09331 0.0
H8 H 0.19031 0.40906 0.13241 0.0
H9 H 0.15654 0.33789 0.08661 0.0
C10 C 0.20221 0.33919 0.16016 0.0
N11 N 0.24431 0.28061 0.1426 0.0
C12 C 0.22835 0.24351 0.14055 0.0
C13 C 0.2724 0.2898 0.15462 0.0
N14 N 0.24444 0.22892 0.1511 0.0
C15 C 0.27261 0.25784 0.15986 0.0
C16 C 0.27597 0.38301 0.12742 0.0
O17 O 0.18921 0.34929 0.14684 0.0
O18 O 0.21983 0.3223 0.15665 0.0
O19 O 0.27412 0.35222 0.13149 0.0
O20 O 0.24649 0.38335 0.1232 0.0
O21 O 0.23081 0.29476 0.10911 0.0
H22 H 0.29025 0.31752 0.15995 0.0
H23 H 0.2043 0.22702 0.13196 0.0
O24 O 0.21124 0.33057 0.09746 0.0
O25 O 0.153 0.29739 0.12069 0.0
O26 O 0.17569 0.26629 0.13448 0.0
C27 C 0.14805 0.26739 0.12773 0.0
H28 H 0.13422 0.38693 0.08166 0.0
H29 H 0.29049 0.25573 0.17006 0.0
Co30 Co 0.8507 0.18661 0.62007 0.0
C31 C 0.85079 0.20939 0.6564 0.0
Co32 Co 0.88554 0.24699 0.62488 0.0
C33 C 0.82655 0.10752 0.61517 0.0
C34 C 0.78144 0.11808 0.61816 0.0
N35 N 0.81892 0.13546 0.6171 0.0
N36 N 0.7953 0.07374 0.61487 0.0
C37 C 0.76697 0.08045 0.61667 0.0
H38 H 0.85442 0.11174 0.61444 0.0
H39 H 0.76531 0.13153 0.6207 0.0
C40 C 0.88686 0.22475 0.58879 0.0
N41 N 0.91504 0.29813 0.62797 0.0
C42 C 0.90281 0.32106 0.63369 0.0
C43 C 0.95 0.32099 0.62206 0.0
N44 N 0.92802 0.35733 0.63105 0.0
C45 C 0.95804 0.35738 0.6239 0.0
C46 C 0.92242 0.20699 0.62948 0.0
O47 O 0.86662 0.19191 0.59505 0.0
O48 O 0.89639 0.25245 0.59939 0.0
O49 O 0.92717 0.23982 0.62898 0.0
O50 O 0.89013 0.17929 0.62693 0.0
O51 O 0.87481 0.24115 0.65031 0.0
H52 H 0.96755 0.31181 0.61569 0.0
H53 H 0.87468 0.31113 0.63835 0.0
O54 O 0.83559 0.18199 0.64532 0.0
O55 O 0.8119 0.19462 0.61295 0.0
O56 O 0.84337 0.25315 0.62064 0.0
C57 C 0.81357 0.22565 0.61482 0.0
H58 H 0.7379 0.0595 0.61789 0.0
H59 H 0.98333 0.38174 0.61941 0.0
Co60 Co 0.65476 0.85744 0.12045 0.0
C61 C 0.68468 0.91268 0.09363 0.0
Co62 Co 0.6832 0.91431 0.13178 0.0
C63 C 0.59995 0.77927 0.11751 0.0
C64 C 0.64247 0.79689 0.09702 0.0
N65 N 0.6307 0.80954 0.1111 0.0
N66 N 0.59231 0.74816 0.1081 0.0
C67 C 0.61899 0.75919 0.09517 0.0
H68 H 0.58421 0.77985 0.12924 0.0
H69 H 0.66706 0.81388 0.08889 0.0
C70 C 0.65414 0.86052 0.15885 0.0
N71 N 0.70899 0.96217 0.1411 0.0
C72 C 0.743 0.98817 0.13528 0.0
C73 C 0.70313 0.97645 0.15659 0.0
N74 N 0.75905 0.0177 0.14663 0.0
C75 C 0.7342 0.01054 0.16015 0.0
C76 C 0.60841 0.8868 0.12529 0.0
O77 O 0.64514 0.83808 0.14533 0.0
O78 O 0.67048 0.89519 0.15569 0.0
O79 O 0.63798 0.91626 0.13017 0.0
O80 O 0.61008 0.85815 0.12068 0.0
O81 O 0.69603 0.93347 0.10771 0.0
H82 H 0.67907 0.96192 0.16541 0.0
H83 H 0.75721 0.98403 0.12383 0.0
O84 O 0.6647 0.87762 0.0958 0.0
O85 O 0.69944 0.85669 0.12031 0.0
O86 O 0.7278 0.91137 0.13354 0.0
C87 C 0.72861 0.88326 0.12723 0.0
H88 H 0.6214 0.7413 0.0851 0.0
H89 H 0.73893 0.02777 0.17216 0.0
Co90 Co 0.8145 0.69145 0.62387 0.0
C91 C 0.7887 0.65978 0.65856 0.0
Co92 Co 0.75507 0.64989 0.6249 0.0
C93 C 0.89239 0.73196 0.61392 0.0
C94 C 0.879 0.75651 0.63646 0.0
N95 N 0.86385 0.72775 0.62451 0.0
N96 N 0.92439 0.76245 0.61876 0.0
C97 C 0.91623 0.77807 0.63284 0.0
H98 H 0.88978 0.71333 0.60287 0.0
H99 H 0.86397 0.7614 0.64722 0.0
C100 C 0.78024 0.6823 0.5903 0.0
N101 N 0.70555 0.61374 0.62452 0.0
C102 C 0.69039 0.57792 0.62981 0.0
C103 C 0.67723 0.61653 0.61717 0.0
N104 N 0.65378 0.55801 0.62585 0.0
C105 C 0.64537 0.58234 0.61798 0.0
C106 C 0.76834 0.72048 0.63172 0.0
O107 O 0.81123 0.70157 0.59847 0.0
O108 O 0.75295 0.65705 0.59922 0.0
O109 O 0.74187 0.68737 0.62949 0.0
O110 O 0.80151 0.72728 0.63027 0.0
O111 O 0.7572 0.64311 0.65066 0.0
H112 H 0.6799 0.64143 0.61092 0.0
H113 H 0.70619 0.56653 0.63608 0.0
O114 O 0.81733 0.68143 0.64921 0.0
O115 O 0.82758 0.65556 0.61752 0.0
O116 O 0.76901 0.61277 0.62038 0.0
C117 C 0.80261 0.62151 0.61743 0.0
H118 H 0.93597 0.80302 0.64009 0.0
H119 H 0.61858 0.57561 0.61237 0.0
Co120 Co 0.13397 0.79171 0.11931 0.0
C121 C 0.07737 0.77245 0.09369 0.0
Co122 Co 0.07817 0.76707 0.13174 0.0
C123 C 0.21072 0.8106 0.1148 0.0
C124 C 0.19378 0.83764 0.09512 0.0
N125 N 0.18094 0.81272 0.10901 0.0
N126 N 0.2417 0.83363 0.10523 0.0
C127 C 0.2311 0.85057 0.09278 0.0
H128 H 0.21009 0.79386 0.12638 0.0
H129 H 0.17736 0.8469 0.08763 0.0
C130 C 0.13304 0.78511 0.1576 0.0
N131 N 0.03141 0.74804 0.14195 0.0
C132 C 0.00654 0.75795 0.13658 0.0
C133 C 0.01699 0.72797 0.15746 0.0
N134 N 0.97754 0.74558 0.14817 0.0
C135 C 0.9839 0.72679 0.16145 0.0
C136 C 0.0983 0.71519 0.12237 0.0
O137 O 0.1547 0.79615 0.14373 0.0
O138 O 0.09847 0.77163 0.15511 0.0
O139 O 0.07213 0.71839 0.12964 0.0
O140 O 0.12762 0.74398 0.11689 0.0
O141 O 0.05761 0.76218 0.10812 0.0
H142 H 0.03068 0.71691 0.1659 0.0
H143 H 0.01108 0.77654 0.12515 0.0
O144 O 0.11243 0.78687 0.09521 0.0
O145 O 0.14041 0.83924 0.1218 0.0
O146 O 0.08522 0.8164 0.13406 0.0
C147 C 0.11566 0.84442 0.129 0.0
H148 H 0.24914 0.87126 0.08289 0.0
H149 H 0.96672 0.7145 0.1735 0.0
Co150 Co 0.30909 0.11965 0.62321 0.0
C151 C 0.33412 0.11992 0.65924 0.0
Co152 Co 0.3464 0.09646 0.62615 0.0
C153 C 0.24547 0.13077 0.61587 0.0
C154 C 0.29161 0.17626 0.62941 0.0
N155 N 0.28004 0.14206 0.62238 0.0
N156 N 0.23573 0.15709 0.61834 0.0
C157 C 0.26472 0.18559 0.62685 0.0
H158 H 0.22788 0.10395 0.60952 0.0
H159 H 0.31787 0.19326 0.63632 0.0
C160 C 0.3201 0.09424 0.59029 0.0
N161 N 0.37706 0.07625 0.6275 0.0
C162 C 0.41235 0.09421 0.63366 0.0
C163 C 0.37249 0.04462 0.61987 0.0
N164 N 0.43066 0.07596 0.62963 0.0
C165 C 0.40553 0.04446 0.62108 0.0
C166 C 0.27137 0.04437 0.62937 0.0
O167 O 0.30364 0.11023 0.59731 0.0
O168 O 0.3409 0.08731 0.60043 0.0
O169 O 0.30397 0.04886 0.63003 0.0
O170 O 0.26721 0.07249 0.62713 0.0
O171 O 0.35138 0.10523 0.65187 0.0
H172 H 0.34769 0.02441 0.61272 0.0
H173 H 0.42544 0.12191 0.63948 0.0
O174 O 0.31428 0.12821 0.64916 0.0
O175 O 0.35129 0.16661 0.61901 0.0
O176 O 0.38879 0.14451 0.62205 0.0
C177 C 0.38405 0.17201 0.61935 0.0
H178 H 0.26584 0.21095 0.63146 0.0
H179 H 0.41122 0.02395 0.61509 0.0
Co180 Co 0.6733 0.81212 0.3873 0.0
C181 C 0.64513 0.786 0.35186 0.0
Co182 Co 0.64344 0.75137 0.38417 0.0
C183 C 0.73061 0.88992 0.39266 0.0
C184 C 0.67772 0.88229 0.38449 0.0
N185 N 0.6954 0.86339 0.38869 0.0
N186 N 0.73522 0.92448 0.39123 0.0
C187 C 0.70194 0.91964 0.38613 0.0
H188 H 0.75248 0.88405 0.3962 0.0
H189 H 0.64918 0.86979 0.3799 0.0
C190 C 0.67243 0.7767 0.4194 0.0
N191 N 0.6191 0.70012 0.38251 0.0
C192 C 0.58382 0.67866 0.37671 0.0
C193 C 0.629 0.6761 0.38933 0.0
N194 N 0.5706 0.64225 0.38014 0.0
C195 C 0.59913 0.64044 0.38797 0.0
C196 C 0.71959 0.78609 0.37735 0.0
O197 O 0.68607 0.80901 0.4123 0.0
O198 O 0.65161 0.74833 0.40965 0.0
O199 O 0.69013 0.75451 0.37895 0.0
O200 O 0.71793 0.81557 0.37961 0.0
O201 O 0.63566 0.75442 0.35878 0.0
H202 H 0.65529 0.68417 0.39597 0.0
H203 H 0.56708 0.68993 0.37149 0.0
O204 O 0.66073 0.81466 0.3621 0.0
O205 O 0.6288 0.80856 0.39526 0.0
O206 O 0.59692 0.74913 0.38944 0.0
C207 C 0.59789 0.77877 0.3946 0.0
H208 H 0.69598 0.94161 0.38292 0.0
H209 H 0.59792 0.61548 0.39329 0.0
Co210 Co 0.84668 0.66801 0.88892 0.0
C211 C 0.84369 0.64256 0.853 0.0
Co212 Co 0.87791 0.63881 0.8846 0.0
C213 C 0.82965 0.72725 0.89438 0.0
C214 C 0.78164 0.67458 0.88854 0.0
N215 N 0.81861 0.69106 0.89149 0.0
N216 N 0.80102 0.73392 0.89324 0.0
C217 C 0.77078 0.7007 0.88968 0.0
H218 H 0.8583 0.74847 0.89664 0.0
H219 H 0.76385 0.64571 0.88481 0.0
C220 C 0.88252 0.66559 0.9203 0.0
N221 N 0.90434 0.61427 0.88173 0.0
C222 C 0.89021 0.5792 0.87552 0.0
C223 C 0.93858 0.62395 0.88797 0.0
N224 N 0.91355 0.56591 0.87815 0.0
C225 C 0.94426 0.59415 0.88587 0.0
C226 C 0.91927 0.71476 0.87873 0.0
O227 O 0.86325 0.67904 0.91379 0.0
O228 O 0.89014 0.64548 0.91004 0.0
O229 O 0.92127 0.68519 0.87961 0.0
O230 O 0.88829 0.71304 0.8815 0.0
O231 O 0.86611 0.63279 0.85922 0.0
H232 H 0.95711 0.64998 0.89475 0.0
H233 H 0.86195 0.56255 0.87063 0.0
O234 O 0.83071 0.65724 0.86387 0.0
O235 O 0.80553 0.62308 0.89649 0.0
O236 O 0.83385 0.59235 0.88966 0.0
C237 C 0.80492 0.59242 0.89511 0.0
H238 H 0.74314 0.69593 0.88688 0.0
H239 H 0.96819 0.59269 0.89066 0.0
Co240 Co 0.19126 0.86897 0.38442 0.0
C241 C 0.21474 0.86049 0.34936 0.0
Co242 Co 0.25192 0.89807 0.3803 0.0
C243 C 0.1148 0.85286 0.39011 0.0
C244 C 0.11943 0.80525 0.38306 0.0
N245 N 0.13993 0.84211 0.38643 0.0
N246 N 0.07955 0.82393 0.3893 0.0
C247 C 0.08254 0.79404 0.38489 0.0
H248 H 0.12216 0.88131 0.39304 0.0
H249 H 0.13051 0.78768 0.37892 0.0
C250 C 0.22911 0.90821 0.41512 0.0
N251 N 0.303 0.92254 0.37798 0.0
C252 C 0.32258 0.90621 0.3728 0.0
C253 C 0.32862 0.95668 0.38388 0.0
N254 N 0.35931 0.92808 0.37578 0.0
C255 C 0.36335 0.9601 0.38265 0.0
C256 C 0.21958 0.94036 0.37105 0.0
O257 O 0.19631 0.88767 0.40893 0.0
O258 O 0.25674 0.91478 0.40502 0.0
O259 O 0.25057 0.94117 0.37232 0.0
O260 O 0.1898 0.91082 0.3754 0.0
O261 O 0.24703 0.88194 0.35567 0.0
H262 H 0.32226 0.9767 0.38988 0.0
H263 H 0.30973 0.87746 0.36846 0.0
O264 O 0.18678 0.85087 0.35977 0.0
O265 O 0.19302 0.82752 0.39352 0.0
O266 O 0.25254 0.8542 0.38823 0.0
C267 C 0.22266 0.82603 0.39356 0.0
H268 H 0.0596 0.76628 0.38233 0.0
H269 H 0.38919 0.98346 0.38742 0.0
Co270 Co 0.31593 0.17669 0.88955 0.0
C271 C 0.34076 0.19312 0.85306 0.0
Co272 Co 0.34658 0.23644 0.88281 0.0
C273 C 0.25554 0.10225 0.89788 0.0
C274 C 0.30701 0.10418 0.89218 0.0
N275 N 0.29168 0.12601 0.89408 0.0
N276 N 0.24785 0.06653 0.89836 0.0
C277 C 0.28029 0.0678 0.89487 0.0
H278 H 0.23508 0.11086 0.89967 0.0
H279 H 0.33545 0.11379 0.88817 0.0
C280 C 0.32073 0.22027 0.91908 0.0
N281 N 0.37227 0.28689 0.87802 0.0
C282 C 0.40764 0.30619 0.87204 0.0
C283 C 0.36344 0.31292 0.88277 0.0
N284 N 0.42195 0.34324 0.87348 0.0
C285 C 0.39405 0.34767 0.88007 0.0
C286 C 0.27062 0.2028 0.87713 0.0
O287 O 0.30719 0.18652 0.91411 0.0
O288 O 0.33984 0.24613 0.90766 0.0
O289 O 0.30078 0.23389 0.87656 0.0
O290 O 0.27133 0.1738 0.88203 0.0
O291 O 0.35281 0.22656 0.85803 0.0
H292 H 0.33748 0.30704 0.88908 0.0
H293 H 0.42377 0.29323 0.86835 0.0
O294 O 0.3245 0.16718 0.86482 0.0
O295 O 0.36046 0.17992 0.89717 0.0
O296 O 0.39239 0.2383 0.88911 0.0
C297 C 0.39146 0.20936 0.89543 0.0
H298 H 0.28406 0.04397 0.8932 0.0
H299 H 0.39631 0.37395 0.88385 0.0
Co300 Co 0.13324 0.32107 0.3904 0.0
C301 C 0.14033 0.34666 0.35454 0.0
Co302 Co 0.1084 0.35656 0.38595 0.0
C303 C 0.15432 0.26457 0.38485 0.0
C304 C 0.17512 0.29528 0.40991 0.0
N305 N 0.15459 0.29205 0.39491 0.0
N306 N 0.17387 0.2505 0.39308 0.0
C307 C 0.18702 0.26995 0.40882 0.0
H308 H 0.13977 0.25492 0.37188 0.0
H309 H 0.18128 0.31509 0.42091 0.0
C310 C 0.09911 0.32998 0.42149 0.0
N311 N 0.08796 0.38676 0.38211 0.0
C312 C 0.10681 0.42296 0.37724 0.0
C313 C 0.05368 0.3801 0.38659 0.0
N314 N 0.08626 0.43965 0.37906 0.0
C315 C 0.05258 0.41261 0.38478 0.0
C316 C 0.06005 0.28139 0.37989 0.0
O317 O 0.11584 0.31365 0.41529 0.0
O318 O 0.09441 0.35175 0.411 0.0
O319 O 0.06188 0.31295 0.38037 0.0
O320 O 0.08877 0.27916 0.38347 0.0
O321 O 0.12196 0.36109 0.36092 0.0
H322 H 0.03175 0.35403 0.39202 0.0
H323 H 0.13608 0.43761 0.37387 0.0
O324 O 0.14954 0.3283 0.36529 0.0
O325 O 0.17807 0.36304 0.39732 0.0
O326 O 0.15543 0.39949 0.39158 0.0
C327 C 0.18252 0.39544 0.39646 0.0
H328 H 0.20459 0.26665 0.41875 0.0
H329 H 0.02942 0.41641 0.38839 0.0
Co330 Co 0.80785 0.13735 0.88703 0.0
C331 C 0.78581 0.1423 0.85107 0.0
Co332 Co 0.74747 0.10671 0.88225 0.0
C333 C 0.88416 0.15431 0.89269 0.0
C334 C 0.87941 0.20237 0.887 0.0
N335 N 0.85898 0.1653 0.88979 0.0
N336 N 0.91943 0.18312 0.89175 0.0
C337 C 0.91637 0.21336 0.88827 0.0
H338 H 0.87678 0.12562 0.89484 0.0
H339 H 0.86832 0.22017 0.88331 0.0
C340 C 0.76875 0.09986 0.91792 0.0
N341 N 0.69659 0.0805 0.87917 0.0
C342 C 0.67572 0.09505 0.87341 0.0
C343 C 0.67199 0.04574 0.88479 0.0
N344 N 0.63909 0.07142 0.87575 0.0
C345 C 0.63654 0.04013 0.88279 0.0
C346 C 0.7819 0.06539 0.87565 0.0
O347 O 0.80177 0.11995 0.91191 0.0
O348 O 0.7415 0.09254 0.90737 0.0
O349 O 0.75047 0.06366 0.8763 0.0
O350 O 0.81115 0.09592 0.87925 0.0
O351 O 0.75349 0.12027 0.85719 0.0
H352 H 0.67942 0.02671 0.89108 0.0
H353 H 0.68736 0.12371 0.86908 0.0
O354 O 0.81343 0.15419 0.86196 0.0
O355 O 0.80424 0.17824 0.89496 0.0
O356 O 0.74517 0.15066 0.88825 0.0
C357 C 0.77437 0.17917 0.89393 0.0
H358 H 0.93919 0.24114 0.88564 0.0
H359 H 0.61112 0.01579 0.88719 0.0
C360 C 0.16103 0.91217 0.13057 0.0
C361 C 0.12436 0.88284 0.13294 0.0
C362 C 0.17095 0.94828 0.13562 0.0
C363 C 0.13678 0.01197 0.14102 0.0
H364 H 0.22625 0.06884 0.1701 0.0
C365 C 0.19164 0.1662 0.15608 0.0
C366 C 0.23009 0.18996 0.15411 0.0
C367 C 0.17669 0.1278 0.15695 0.0
C368 C 0.20138 0.05345 0.16187 0.0
H369 H 0.06908 0.86856 0.14205 0.0
H370 H 0.08648 0.93265 0.15044 0.0
H371 H 0.20269 0.00273 0.16461 0.0
H372 H 0.28335 0.19286 0.15227 0.0
H373 H 0.25731 0.1253 0.15313 0.0
H374 H 0.13632 0.06276 0.13737 0.0
C375 C 0.10743 0.92714 0.14487 0.0
C376 C 0.18779 0.0156 0.15884 0.0
C377 C 0.09751 0.89062 0.14005 0.0
C378 C 0.25364 0.17488 0.15384 0.0
C379 C 0.23863 0.13628 0.15441 0.0
C380 C 0.15059 0.04992 0.14385 0.0
C381 C 0.14441 0.95608 0.14294 0.0
C382 C 0.15579 0.99474 0.14811 0.0
C383 C 0.19986 0.11226 0.15556 0.0
C384 C 0.18344 0.07128 0.15405 0.0
H385 H 0.18247 0.90723 0.12515 0.0
H386 H 0.19947 0.97024 0.13369 0.0
H387 H 0.11228 0.99651 0.13254 0.0
H388 H 0.17308 0.17744 0.15665 0.0
H389 H 0.14687 0.11029 0.15834 0.0
C390 C 0.2012 0.18802 0.60901 0.0
C391 C 0.20108 0.15549 0.61442 0.0
C392 C 0.16838 0.18933 0.60868 0.0
C393 C 0.0778 0.14624 0.63151 0.0
H394 H 0.06053 0.2084 0.59767 0.0
C395 C 0.94816 0.16445 0.6335 0.0
C396 C 0.95432 0.20065 0.63067 0.0
C397 C 0.9772 0.15692 0.63166 0.0
C398 C 0.0652 0.19121 0.60731 0.0
H399 H 0.16637 0.09802 0.62258 0.0
H400 H 0.10825 0.09995 0.62177 0.0
H401 H 0.11075 0.19554 0.59165 0.0
H402 H -0.00394 0.25763 0.62446 0.0
H403 H 0.04694 0.24444 0.62128 0.0
H404 H 0.03212 0.142 0.64714 0.0
C405 C 0.134 0.12467 0.61804 0.0
C406 C 0.09384 0.1837 0.60383 0.0
C407 C 0.16707 0.12336 0.61829 0.0
C408 C 0.99048 0.22951 0.62678 0.0
C409 C 0.01949 0.22188 0.62477 0.0
C410 C 0.04894 0.15354 0.63491 0.0
C411 C 0.13452 0.15805 0.61375 0.0
C412 C 0.10096 0.16172 0.61607 0.0
C413 C 0.01292 0.18536 0.62679 0.0
C414 C 0.04281 0.17666 0.62302 0.0
H415 H 0.22711 0.21304 0.60581 0.0
H416 H 0.16999 0.21559 0.60546 0.0
H417 H 0.08286 0.12967 0.64137 0.0
H418 H 0.92057 0.1416 0.63653 0.0
H419 H 0.97131 0.12852 0.63326 0.0
C420 C 0.81988 0.05442 0.16184 0.0
C421 C 0.79755 0.04597 0.14607 0.0
C422 C 0.85851 0.07696 0.16052 0.0
C423 C 0.93389 0.11034 0.12548 0.0
H424 H 0.99447 0.17733 0.16433 0.0
C425 C 0.08332 0.23151 0.116 0.0
C426 C 0.11001 0.23546 0.12904 0.0
C427 C 0.04607 0.20458 0.11831 0.0
C428 C 0.97785 0.1583 0.1535 0.0
H429 H 0.79733 0.05586 0.11689 0.0
H430 H 0.8644 0.09683 0.11462 0.0
H431 H 0.92709 0.14078 0.16814 0.0
H432 H 0.11908 0.21389 0.1545 0.0
H433 H 0.0532 0.16709 0.15885 0.0
H434 H 0.9847 0.1294 0.11054 0.0
C435 C 0.8526 0.08497 0.1279 0.0
C436 C 0.93925 0.13735 0.15566 0.0
C437 C 0.81416 0.06195 0.12919 0.0
C438 C 0.099 0.21118 0.14419 0.0
C439 C 0.06144 0.1847 0.14674 0.0
C440 C 0.97233 0.13171 0.12323 0.0
C441 C 0.87545 0.09187 0.14343 0.0
C442 C 0.9167 0.11343 0.14156 0.0
C443 C 0.03467 0.18156 0.13392 0.0
C444 C 0.99459 0.15611 0.13714 0.0
H445 H 0.80765 0.04188 0.17495 0.0
H446 H 0.87511 0.08132 0.17275 0.0
H447 H 0.91768 0.09145 0.11454 0.0
H448 H 0.09113 0.2499 0.10419 0.0
H449 H 0.02591 0.20281 0.1083 0.0
C450 C 0.79001 0.78468 0.64263 0.0
C451 C 0.76189 0.75197 0.63449 0.0
C452 C 0.78821 0.81727 0.64226 0.0
C453 C 0.75148 0.86334 0.61353 0.0
H454 H 0.79027 0.93731 0.65238 0.0
C455 C 0.76008 0.00665 0.60802 0.0
C456 C 0.792 0.03754 0.61523 0.0
C457 C 0.75417 0.97073 0.61044 0.0
C458 C 0.7797 0.91704 0.64135 0.0
H459 H 0.70874 0.72697 0.6205 0.0
H460 H 0.70545 0.78442 0.61986 0.0
H461 H 0.77979 0.87492 0.65832 0.0
H462 H 0.84344 0.05514 0.63003 0.0
H463 H 0.83346 0.99228 0.63402 0.0
H464 H 0.75193 0.90568 0.59648 0.0
C465 C 0.72903 0.78472 0.62642 0.0
C466 C 0.77347 0.88127 0.64479 0.0
C467 C 0.73069 0.75182 0.62694 0.0
C468 C 0.81871 0.03191 0.62424 0.0
C469 C 0.81273 0.9959 0.62673 0.0
C470 C 0.75764 0.89914 0.6101 0.0
C471 C 0.75831 0.81801 0.63365 0.0
C472 C 0.75991 0.8542 0.63082 0.0
C473 C 0.78004 0.96489 0.62016 0.0
C474 C 0.77241 0.92654 0.62389 0.0
H475 H 0.81433 0.78553 0.6486 0.0
H476 H 0.81138 0.84242 0.6478 0.0
H477 H 0.74158 0.84331 0.6024 0.0
H478 H 0.73924 0.01024 0.60084 0.0
H479 H 0.7287 0.94744 0.60524 0.0
C480 C 0.94219 0.77096 0.16361 0.0
C481 C 0.95012 0.75693 0.14776 0.0
C482 C 0.92066 0.7882 0.16239 0.0
C483 C 0.89049 0.83347 0.12764 0.0
H484 H 0.82052 0.82475 0.16532 0.0
C485 C 0.76827 0.85848 0.1159 0.0
C486 C 0.76187 0.87955 0.12895 0.0
C487 C 0.79624 0.84979 0.11869 0.0
C488 C 0.84046 0.82789 0.15486 0.0
H489 H 0.94021 0.74757 0.11854 0.0
H490 H 0.90115 0.77587 0.11642 0.0
H491 H 0.85682 0.79368 0.16957 0.0
H492 H 0.78011 0.90905 0.15487 0.0
H493 H 0.82879 0.89279 0.16006 0.0
H494 H 0.87259 0.8661 0.11256 0.0
C495 C 0.91265 0.77512 0.12969 0.0
C496 C 0.86121 0.81008 0.15726 0.0
C497 C 0.93456 0.75848 0.13089 0.0
C498 C 0.7848 0.89301 0.14456 0.0
C499 C 0.81235 0.88354 0.14758 0.0
C500 C 0.8694 0.85077 0.12515 0.0
C501 C 0.90638 0.79127 0.1453 0.0
C502 C 0.88593 0.81203 0.14349 0.0
C503 C 0.81783 0.86137 0.13478 0.0
C504 C 0.8438 0.84763 0.13859 0.0
H505 H 0.95439 0.77049 0.17672 0.0
H506 H 0.91657 0.80046 0.17468 0.0
H507 H 0.91007 0.83656 0.117 0.0
H508 H 0.75089 0.84779 0.10376 0.0
H509 H 0.79979 0.83245 0.1087 0.0
C510 C 0.98096 0.75863 0.61499 0.0
C511 C 0.96048 0.77627 0.61105 0.0
C512 C 0.01935 0.77734 0.61195 0.0
C513 C 0.09756 0.86456 0.59239 0.0
H514 H 0.1436 0.87293 0.63999 0.0
C515 C 0.24267 0.97492 0.63017 0.0
C516 C 0.23884 0.00659 0.62808 0.0
C517 C 0.21307 0.93954 0.62589 0.0
C518 C 0.13146 0.8703 0.62648 0.0
H519 H 0.96224 0.82516 0.59973 0.0
H520 H 0.02891 0.85787 0.59407 0.0
H521 H 0.08213 0.81982 0.63366 0.0
H522 H 0.20061 0.0258 0.62055 0.0
H523 H 0.14944 0.96433 0.61299 0.0
H524 H 0.14552 0.91691 0.58593 0.0
C525 C 0.01592 0.8297 0.59934 0.0
C526 C 0.09638 0.83982 0.62277 0.0
C527 C 0.97784 0.81121 0.60261 0.0
C528 C 0.20453 0.00206 0.62233 0.0
C529 C 0.17536 0.96696 0.61779 0.0
C530 C 0.13238 0.89511 0.59616 0.0
C531 C 0.03738 0.81371 0.60478 0.0
C532 C 0.07822 0.83787 0.60609 0.0
C533 C 0.17965 0.93559 0.61915 0.0
C534 C 0.14859 0.89911 0.61358 0.0
H535 H 0.96775 0.73175 0.62173 0.0
H536 H 0.03521 0.76438 0.61622 0.0
H537 H 0.08447 0.8634 0.57931 0.0
H538 H 0.26883 0.97759 0.63455 0.0
H539 H 0.21666 0.91551 0.62722 0.0
C540 C 0.04276 0.85533 0.38496 0.0
C541 C 0.04524 0.82435 0.39079 0.0
C542 C 0.00817 0.85337 0.38402 0.0
C543 C 0.90969 0.79667 0.39908 0.0
H544 H 0.88925 0.83582 0.35486 0.0
C545 C 0.76105 0.75855 0.37904 0.0
C546 C 0.75625 0.78903 0.37511 0.0
C547 C 0.79674 0.76322 0.38002 0.0
C548 C 0.89467 0.82492 0.36731 0.0
H549 H 0.01398 0.76809 0.40137 0.0
H550 H 0.95389 0.76429 0.39937 0.0
H551 H 0.95165 0.84577 0.36014 0.0
H552 H 0.78479 0.84771 0.368 0.0
H553 H 0.84694 0.85564 0.36949 0.0
H554 H 0.85253 0.77525 0.40606 0.0
C555 C 0.97841 0.79018 0.39559 0.0
C556 C 0.93044 0.83085 0.37042 0.0
C557 C 0.01284 0.79219 0.39656 0.0
C558 C 0.78762 0.8237 0.3711 0.0
C559 C 0.82321 0.82826 0.3719 0.0
C560 C 0.87392 0.79048 0.3959 0.0
C561 C 0.97551 0.82044 0.38895 0.0
C562 C 0.9383 0.81658 0.38629 0.0
C563 C 0.82816 0.79833 0.37689 0.0
C564 C 0.86601 0.80435 0.37994 0.0
H565 H 0.06725 0.88043 0.38038 0.0
H566 H 0.00691 0.87737 0.37911 0.0
H567 H 0.91493 0.78584 0.4116 0.0
H568 H 0.73741 0.73153 0.38223 0.0
H569 H 0.79982 0.73958 0.38365 0.0
C570 C 0.95042 0.78349 0.8742 0.0
C571 C 0.95316 0.7514 0.87701 0.0
C572 C 0.98181 0.81875 0.87578 0.0
C573 C 0.06854 0.86501 0.90085 0.0
H574 H 0.09726 0.94655 0.86656 0.0
C575 C 0.20925 -0.00033 0.90503 0.0
C576 C 0.21203 0.0333 0.89932 0.0
C577 C 0.17581 0.96629 0.9034 0.0
C578 C 0.08918 0.92428 0.87646 0.0
H579 H 0.99111 0.73097 0.88268 0.0
H580 H 0.04593 0.79272 0.88556 0.0
H581 H 0.04336 0.88579 0.85979 0.0
H582 H 0.18118 0.05853 0.88837 0.0
H583 H 0.12227 0.00029 0.88613 0.0
H584 H 0.11367 0.90326 0.91772 0.0
C585 C 0.01944 0.79045 0.88223 0.0
C586 C 0.05855 0.88948 0.87248 0.0
C587 C 0.98816 0.75518 0.88043 0.0
C588 C 0.17998 0.03314 0.89296 0.0
C589 C 0.14634 -0.00032 0.89143 0.0
C590 C 0.09883 0.89983 0.90495 0.0
C591 C 0.01631 0.82246 0.88039 0.0
C592 C 0.04837 0.85946 0.88452 0.0
C593 C 0.14415 0.96578 0.89619 0.0
C594 C 0.10986 0.92975 0.89267 0.0
H595 H 0.92378 0.7814 0.87151 0.0
H596 H 0.97874 0.84306 0.87432 0.0
H597 H 0.06068 0.84242 0.91055 0.0
H598 H 0.23329 -0.00103 0.91028 0.0
H599 H 0.17529 0.94074 0.90708 0.0
C600 C 0.18841 0.20077 0.39937 0.0
C601 C 0.1799 0.22105 0.3867 0.0
C602 C 0.19608 0.17347 0.39339 0.0
C603 C 0.18016 0.10837 0.35628 0.0
H604 H 0.26061 0.10285 0.38043 0.0
C605 C 0.18375 0.97295 0.36517 0.0
C606 C 0.21812 0.97408 0.36594 0.0
C607 C 0.18229 0.00555 0.36277 0.0
C608 C 0.23851 0.10427 0.37323 0.0
H609 H 0.17207 0.22783 0.35773 0.0
H610 H 0.18494 0.17926 0.34725 0.0
H611 H 0.25244 0.15609 0.38594 0.0
H612 H 0.27782 0.00997 0.36353 0.0
H613 H 0.27523 0.067 0.3592 0.0
H614 H 0.16573 0.05598 0.3439 0.0
C615 C 0.18581 0.18494 0.36184 0.0
C616 C 0.23357 0.13459 0.37657 0.0
C617 C 0.17831 0.21259 0.36785 0.0
C618 C 0.25092 0.00822 0.36316 0.0
C619 C 0.24944 0.04089 0.36074 0.0
C620 C 0.18506 0.0779 0.35294 0.0
C621 C 0.19526 0.1655 0.37458 0.0
C622 C 0.20365 0.13635 0.36862 0.0
C623 C 0.21516 0.04004 0.36105 0.0
C624 C 0.21364 0.07501 0.36183 0.0
H625 H 0.18892 0.20575 0.41401 0.0
H626 H 0.20227 0.15824 0.40357 0.0
H627 H 0.15687 0.10904 0.34996 0.0
H628 H 0.15792 0.94706 0.36718 0.0
H629 H 0.15545 0.0039 0.36329 0.0
C630 C 0.20242 0.16571 0.87149 0.0
C631 C 0.23451 0.20053 0.87404 0.0
C632 C 0.1674 0.16255 0.87136 0.0
C633 C 0.11882 0.21723 0.86926 0.0
H634 H 0.04331 0.13406 0.89728 0.0
C635 C 0.98738 0.21407 0.89559 0.0
C636 C 0.95344 0.18187 0.89155 0.0
C637 C 0.02093 0.21473 0.89304 0.0
C638 C 0.06404 0.1572 0.88928 0.0
H639 H 0.25536 0.25957 0.87766 0.0
H640 H 0.19416 0.25402 0.8779 0.0
H641 H 0.10354 0.13887 0.89209 0.0
H642 H 0.92817 0.12446 0.88246 0.0
H643 H 0.98701 0.12541 0.87845 0.0
H644 H 0.07951 0.23608 0.86703 0.0
C645 C 0.19598 0.22919 0.87566 0.0
C646 C 0.09847 0.15991 0.8862 0.0
C647 C 0.23109 0.2324 0.87556 0.0
C648 C 0.95374 0.14963 0.88585 0.0
C649 C 0.98741 0.1502 0.88345 0.0
C650 C 0.08455 0.21471 0.87252 0.0
C651 C 0.16369 0.19408 0.87401 0.0
C652 C 0.12637 0.1901 0.87625 0.0
C653 C 0.02127 0.18305 0.8866 0.0
C654 C 0.05701 0.18485 0.88269 0.0
H655 H 0.20428 0.14069 0.87011 0.0
H656 H 0.14317 0.13524 0.86961 0.0
H657 H 0.13942 0.24048 0.86129 0.0
H658 H 0.98809 0.23908 0.90042 0.0
H659 H 0.04669 0.24016 0.89595 0.0
C660 C 0.99056 0.24478 0.38081 0.0
C661 C 0.02459 0.24677 0.37689 0.0
C662 C 0.95775 0.21028 0.38112 0.0
C663 C 0.91624 0.1117 0.36724 0.0
H664 H 0.85785 0.0922 0.41175 0.0
C665 C 0.80303 0.96345 0.38687 0.0
C666 C 0.769 0.95972 0.39248 0.0
C667 C 0.83461 -0.00128 0.38547 0.0
C668 C 0.87366 0.0973 0.39917 0.0
H669 H 0.05082 0.21492 0.36894 0.0
H670 H 0.99377 0.15505 0.36936 0.0
H671 H 0.91005 0.15446 0.40607 0.0
H672 H 0.74183 0.98945 0.40225 0.0
H673 H 0.79659 0.05088 0.39959 0.0
H674 H 0.87992 0.05457 0.36034 0.0
C675 C 0.99226 0.17987 0.37226 0.0
C676 C 0.9034 0.13299 0.39587 0.0
C677 C 0.02496 0.21416 0.37211 0.0
C678 C 0.76761 0.99162 0.39764 0.0
C679 C 0.79907 0.02677 0.39626 0.0
C680 C 0.88643 0.07604 0.37051 0.0
C681 C 0.95852 0.17744 0.37729 0.0
C682 C 0.9251 0.14047 0.37993 0.0
C683 C 0.83269 0.03079 0.38974 0.0
C684 C 0.86495 0.06842 0.38656 0.0
H685 H 0.98955 0.26951 0.38458 0.0
H686 H 0.93196 0.20916 0.38484 0.0
H687 H 0.93236 0.11679 0.35477 0.0
H688 H 0.80484 0.93935 0.38275 0.0
H689 H 0.86035 0.00095 0.3807 0.0
C690 C 0.83496 0.80162 0.88702 0.0
C691 C 0.80257 0.76934 0.8928 0.0
C692 C 0.83468 0.83482 0.8843 0.0
C693 C 0.77069 0.86762 0.87247 0.0
H694 H 0.84663 0.96301 0.89138 0.0
C695 C 0.81925 0.03443 0.87008 0.0
C696 C 0.78444 0.03161 0.87278 0.0
C697 C 0.8226 0.00263 0.87017 0.0
C698 C 0.82558 0.93672 0.88567 0.0
H699 H 0.74541 0.74735 0.9015 0.0
H700 H 0.74485 0.8051 0.89649 0.0
H701 H 0.85122 0.90756 0.89727 0.0
H702 H 0.72561 0.99327 0.87685 0.0
H703 H 0.73152 0.93784 0.87742 0.0
H704 H 0.74508 0.89654 0.86077 0.0
C705 C 0.77017 0.80447 0.89376 0.0
C706 C 0.82816 0.905 0.88916 0.0
C707 C 0.77053 0.77146 0.89663 0.0
C708 C 0.75278 0.99627 0.87465 0.0
C709 C 0.75619 0.96449 0.87492 0.0
C710 C 0.76829 0.89935 0.86883 0.0
C711 C 0.80198 0.83618 0.8872 0.0
C712 C 0.80042 0.87013 0.88283 0.0
C713 C 0.79128 0.96741 0.87314 0.0
C714 C 0.79542 0.93418 0.87561 0.0
H715 H 0.86002 0.80091 0.88379 0.0
H716 H 0.85956 0.85898 0.87921 0.0
H717 H 0.74929 0.84106 0.86717 0.0
H718 H 0.84412 0.06133 0.86845 0.0
H719 H 0.84989 0.00575 0.86835 0.0
C720 C 0.08086 0.65222 0.13476 0.0
C721 C 0.09621 0.67892 0.1207 0.0
C722 C 0.08527 0.62087 0.13443 0.0
C723 C 0.14808 0.5916 0.11371 0.0
H724 H 0.07531 0.49301 0.13074 0.0
C725 C 0.1551 0.46085 0.09622 0.0
C726 C 0.15327 0.43831 0.11104 0.0
C727 C 0.14763 0.48971 0.09885 0.0
C728 C 0.09593 0.52057 0.12613 0.0
H729 H 0.12532 0.69271 0.09463 0.0
H730 H 0.13132 0.63747 0.09351 0.0
H731 H 0.06072 0.54341 0.13185 0.0
H732 H 0.14177 0.42771 0.14016 0.0
H733 H 0.12785 0.47822 0.14475 0.0
H734 H 0.18265 0.56846 0.10739 0.0
C735 C 0.11745 0.64122 0.10523 0.0
C736 C 0.08766 0.54939 0.12677 0.0
C737 C 0.11368 0.67268 0.10575 0.0
C738 C 0.14364 0.44501 0.12858 0.0
C739 C 0.13543 0.47354 0.13117 0.0
C740 C 0.15605 0.5628 0.11284 0.0
C741 C 0.10464 0.61568 0.1199 0.0
C742 C 0.11344 0.5851 0.12025 0.0
C743 C 0.13758 0.49619 0.11631 0.0
C744 C 0.1299 0.52699 0.1188 0.0
H745 H 0.06744 0.65666 0.14648 0.0
H746 H 0.07507 0.60175 0.14594 0.0
H747 H 0.16912 0.619 0.10915 0.0
H748 H 0.16268 0.4563 0.08261 0.0
H749 H 0.14931 0.50679 0.08719 0.0
C750 C 0.7703 0.24762 0.62468 0.0
C751 C 0.77941 0.22741 0.61235 0.0
C752 C 0.73374 0.24073 0.62562 0.0
C753 C 0.64148 0.1916 0.60274 0.0
H754 H 0.60353 0.16044 0.65223 0.0
C755 C 0.48867 0.08506 0.61558 0.0
C756 C 0.47046 0.09243 0.62983 0.0
C757 C 0.52723 0.10617 0.61382 0.0
C758 C 0.6137 0.16952 0.63838 0.0
H759 H 0.75912 0.18724 0.59013 0.0
H760 H 0.69582 0.17579 0.59147 0.0
H761 H 0.67047 0.19532 0.64703 0.0
H762 H 0.47858 0.12585 0.65416 0.0
H763 H 0.54599 0.16295 0.65102 0.0
H764 H 0.58475 0.16484 0.594 0.0
C765 C 0.71643 0.19668 0.60051 0.0
C766 C 0.65203 0.18972 0.63542 0.0
C767 C 0.75264 0.20311 0.59977 0.0
C768 C 0.49185 0.11986 0.64291 0.0
C769 C 0.53043 0.141 0.64116 0.0
C770 C 0.6032 0.17148 0.6057 0.0
C771 C 0.7062 0.21407 0.61401 0.0
C772 C 0.66627 0.20001 0.61749 0.0
C773 C 0.54839 0.13505 0.62629 0.0
C774 C 0.58893 0.15927 0.62348 0.0
H775 H 0.79053 0.26635 0.63458 0.0
H776 H 0.72656 0.2547 0.63605 0.0
H777 H 0.65174 0.19951 0.58881 0.0
H778 H 0.47308 0.06434 0.6052 0.0
H779 H 0.54043 0.10034 0.60246 0.0
C780 C 0.56718 0.68012 0.10761 0.0
C781 C 0.56254 0.71079 0.11142 0.0
C782 C 0.53796 0.6438 0.11035 0.0
C783 C 0.43665 0.59026 0.11156 0.0
H784 H 0.44881 0.51413 0.13634 0.0
C785 C 0.31006 0.4517 0.13041 0.0
C786 C 0.3113 0.4188 0.12782 0.0
C787 C 0.34223 0.48627 0.12932 0.0
C788 C 0.44509 0.53494 0.12918 0.0
H789 H 0.52378 0.72742 0.12125 0.0
H790 H 0.47262 0.66397 0.12594 0.0
H791 H 0.50233 0.5769 0.13272 0.0
H792 H 0.3475 0.39619 0.12275 0.0
H793 H 0.4043 0.45727 0.12031 0.0
H794 H 0.37992 0.5487 0.10761 0.0
C795 C 0.4989 0.66808 0.12082 0.0
C796 C 0.47568 0.57087 0.12717 0.0
C797 C 0.52823 0.70438 0.11828 0.0
C798 C 0.3458 0.42116 0.12478 0.0
C799 C 0.37825 0.45609 0.12343 0.0
C800 C 0.40631 0.55445 0.1134 0.0
C801 C 0.50338 0.63742 0.11676 0.0
C802 C 0.47157 0.59899 0.11856 0.0
C803 C 0.3766 0.48906 0.12529 0.0
C804 C 0.40991 0.52645 0.12251 0.0
H805 H 0.59347 0.68422 0.10256 0.0
H806 H 0.54214 0.62071 0.10704 0.0
H807 H 0.43285 0.61113 0.1045 0.0
H808 H 0.28397 0.45079 0.13315 0.0
H809 H 0.34003 0.51093 0.13144 0.0
C810 C 0.79059 0.55693 0.62333 0.0
C811 C 0.81351 0.59269 0.61604 0.0
C812 C 0.8035 0.53165 0.62463 0.0
C813 C 0.87144 0.50808 0.60655 0.0
H814 H 0.86577 0.4659 0.65489 0.0
C815 C 0.94044 0.41968 0.62086 0.0
C816 C 0.92055 0.38783 0.63189 0.0
C817 C 0.92947 0.44649 0.61965 0.0
C818 C 0.86717 0.47694 0.64123 0.0
H819 H 0.86706 0.62932 0.60353 0.0
H820 H 0.88908 0.58473 0.60533 0.0
H821 H 0.83962 0.50631 0.64996 0.0
H822 H 0.87515 0.36101 0.65143 0.0
H823 H 0.85509 0.40642 0.64868 0.0
H824 H 0.8979 0.478 0.59757 0.0
C825 C 0.86138 0.57646 0.61022 0.0
C826 C 0.8522 0.50015 0.63843 0.0
C827 C 0.84877 0.60196 0.60921 0.0
C828 C 0.89068 0.38461 0.64244 0.0
C829 C 0.87943 0.4111 0.64105 0.0
C830 C 0.8859 0.48438 0.60925 0.0
C831 C 0.83924 0.54142 0.61835 0.0
C832 C 0.85418 0.51594 0.62107 0.0
C833 C 0.89815 0.44203 0.62933 0.0
C834 C 0.88399 0.46846 0.62664 0.0
H835 H 0.76337 0.54906 0.62879 0.0
H836 H 0.78577 0.50465 0.6308 0.0
H837 H 0.87317 0.51978 0.593 0.0
H838 H 0.96359 0.42333 0.61252 0.0
H839 H 0.94521 0.47039 0.61084 0.0
C840 C 0.56824 0.91635 0.12352 0.0
C841 C 0.57179 0.88455 0.1252 0.0
C842 C 0.53291 0.91278 0.12209 0.0
C843 C 0.43581 0.8421 0.10992 0.0
H844 H 0.4106 0.91163 0.13199 0.0
C845 C 0.28501 0.8121 0.11451 0.0
C846 C 0.27887 0.84071 0.10844 0.0
C847 C 0.32118 0.81882 0.11714 0.0
C848 C 0.41741 0.89214 0.12569 0.0
H849 H 0.54133 0.82439 0.12785 0.0
H850 H 0.48036 0.81833 0.12606 0.0
H851 H 0.47346 0.92141 0.13568 0.0
H852 H 0.30565 0.89909 0.10102 0.0
H853 H 0.36891 0.91086 0.1057 0.0
H854 H 0.37968 0.81249 0.10023 0.0
C855 C 0.5045 0.84591 0.12506 0.0
C856 C 0.45341 0.8978 0.12772 0.0
C857 C 0.53954 0.84942 0.12621 0.0
C858 C 0.30959 0.87639 0.10546 0.0
C859 C 0.34574 0.88323 0.10832 0.0
C860 C 0.39987 0.83625 0.10808 0.0
C861 C 0.50063 0.87738 0.12255 0.0
C862 C 0.46294 0.87264 0.11998 0.0
C863 C 0.35189 0.85441 0.11399 0.0
C864 C 0.39023 0.86105 0.11602 0.0
H865 H 0.59268 0.94376 0.12271 0.0
H866 H 0.53095 0.93761 0.12011 0.0
H867 H 0.44236 0.82268 0.10332 0.0
H868 H 0.26186 0.78436 0.11685 0.0
H869 H 0.32517 0.79616 0.12166 0.0
C870 C 0.64418 0.4942 0.62783 0.0
C871 C 0.62963 0.51841 0.6277 0.0
C872 C 0.62049 0.45568 0.62841 0.0
C873 C 0.52338 0.38354 0.63887 0.0
H874 H 0.5428 0.32208 0.60561 0.0
C875 C 0.40891 0.2402 0.61668 0.0
C876 C 0.41576 0.21043 0.61851 0.0
C877 C 0.43776 0.27676 0.61832 0.0
C878 C 0.53735 0.33888 0.61512 0.0
H879 H 0.57884 0.52103 0.6287 0.0
H880 H 0.53758 0.45407 0.62921 0.0
H881 H 0.58829 0.38841 0.6085 0.0
H882 H 0.45861 0.19574 0.62258 0.0
H883 H 0.50953 0.26035 0.62516 0.0
H884 H 0.47191 0.33435 0.64497 0.0
C885 C 0.5673 0.46478 0.6291 0.0
C886 C 0.56336 0.37678 0.61683 0.0
C887 C 0.59094 0.50322 0.62857 0.0
C888 C 0.4525 0.21812 0.62111 0.0
C889 C 0.48158 0.25498 0.62261 0.0
C890 C 0.49736 0.34586 0.63704 0.0
C891 C 0.58176 0.44053 0.62887 0.0
C892 C 0.55625 0.39967 0.62844 0.0
C893 C 0.47418 0.28449 0.62171 0.0
C894 C 0.50373 0.32339 0.62486 0.0
H895 H 0.67381 0.50487 0.62697 0.0
H896 H 0.63251 0.43776 0.62839 0.0
H897 H 0.51746 0.40017 0.64826 0.0
H898 H 0.38101 0.23532 0.61454 0.0
H899 H 0.43148 0.29909 0.61722 0.0
C900 C 0.38128 0.88662 0.36411 0.0
C901 C 0.38588 0.91542 0.37595 0.0
C902 C 0.4029 0.86975 0.36628 0.0
C903 C 0.48875 0.88185 0.38783 0.0
H904 H 0.4378 0.77391 0.38648 0.0
C905 C 0.56525 0.80733 0.4099 0.0
C906 C 0.56412 0.78115 0.39733 0.0
C907 C 0.53927 0.81913 0.40885 0.0
C908 C 0.45239 0.80404 0.38681 0.0
H909 H 0.4179 0.95005 0.39889 0.0
H910 H 0.45589 0.92096 0.40256 0.0
H911 H 0.4033 0.80622 0.38004 0.0
H912 H 0.53337 0.74431 0.37485 0.0
H913 H 0.48781 0.76527 0.37283 0.0
H914 H 0.53778 0.87991 0.39448 0.0
C915 C 0.43562 0.91147 0.39154 0.0
C916 C 0.43274 0.82256 0.38304 0.0
C917 C 0.41396 0.92832 0.38938 0.0
C918 C 0.53451 0.76428 0.38481 0.0
C919 C 0.50861 0.77645 0.3836 0.0
C920 C 0.50831 0.8634 0.3916 0.0
C921 C 0.42973 0.88144 0.38029 0.0
C922 C 0.45072 0.86169 0.3836 0.0
C923 C 0.51198 0.80539 0.39502 0.0
C924 C 0.49033 0.8243 0.39128 0.0
H925 H 0.36024 0.87647 0.35346 0.0
H926 H 0.39828 0.84722 0.35714 0.0
H927 H 0.50355 0.91199 0.38805 0.0
H928 H 0.58779 0.82059 0.41974 0.0
H929 H 0.54191 0.84067 0.41819 0.0
C930 C 0.76056 0.52653 0.88643 0.0
C931 C 0.7692 0.55778 0.89731 0.0
C932 C 0.72372 0.4976 0.88495 0.0
C933 C 0.62931 0.45937 0.90475 0.0
H934 H 0.59668 0.44068 0.85386 0.0
C935 C 0.47614 0.39941 0.88607 0.0
C936 C 0.46106 0.37012 0.87328 0.0
C937 C 0.51454 0.42066 0.88853 0.0
C938 C 0.60538 0.44522 0.86813 0.0
H939 H 0.74721 0.58191 0.91648 0.0
H940 H 0.68333 0.53141 0.91416 0.0
H941 H 0.66298 0.47592 0.86087 0.0
H942 H 0.47448 0.34219 0.85199 0.0
H943 H 0.54158 0.37906 0.85641 0.0
H944 H 0.57178 0.42932 0.91203 0.0
C945 C 0.70463 0.52913 0.90666 0.0
C946 C 0.64334 0.46517 0.87215 0.0
C947 C 0.74121 0.55813 0.90796 0.0
C948 C 0.48532 0.36427 0.86212 0.0
C949 C 0.52373 0.38549 0.86459 0.0
C950 C 0.59141 0.4394 0.90074 0.0
C951 C 0.69526 0.49935 0.89456 0.0
C952 C 0.65563 0.4731 0.89049 0.0
C953 C 0.53866 0.41309 0.87825 0.0
C954 C 0.57901 0.43281 0.88238 0.0
H955 H 0.78168 0.52572 0.87802 0.0
H956 H 0.71723 0.47472 0.87567 0.0
H957 H 0.63804 0.46476 0.91901 0.0
H958 H 0.45832 0.40458 0.89495 0.0
H959 H 0.52531 0.44237 0.89887 0.0
C960 C 0.19016 0.76272 0.40722 0.0
C961 C 0.22034 0.78998 0.39713 0.0
C962 C 0.18213 0.72586 0.40708 0.0
C963 C 0.18925 0.66173 0.37587 0.0
H964 H 0.14781 0.59299 0.41681 0.0
C965 C 0.13253 0.5031 0.36893 0.0
C966 C 0.10067 0.47929 0.37922 0.0
C967 C 0.15007 0.54165 0.37121 0.0
C968 C 0.15898 0.6118 0.40521 0.0
H969 H 0.26735 0.8007 0.37999 0.0
H970 H 0.25315 0.73582 0.37967 0.0
H971 H 0.17723 0.65977 0.42236 0.0
H972 H 0.06133 0.47768 0.39934 0.0
H973 H 0.09114 0.54483 0.40284 0.0
H974 H 0.17001 0.61379 0.35862 0.0
C975 C 0.23568 0.74311 0.38763 0.0
C976 C 0.17609 0.65003 0.40842 0.0
C977 C 0.24401 0.78023 0.38797 0.0
C978 C 0.08565 0.49507 0.39112 0.0
C979 C 0.10314 0.53361 0.39336 0.0
C980 C 0.172 0.62346 0.37264 0.0
C981 C 0.20392 0.7154 0.39669 0.0
C982 C 0.19082 0.67536 0.39375 0.0
C983 C 0.13606 0.55729 0.38378 0.0
C984 C 0.15605 0.59803 0.38723 0.0
H985 H 0.17147 0.76951 0.41442 0.0
H986 H 0.15736 0.70516 0.4141 0.0
H987 H 0.19981 0.68056 0.36424 0.0
H988 H 0.1445 0.49188 0.35946 0.0
H989 H 0.17536 0.55907 0.3636 0.0
C990 C 0.5822 0.06748 0.88852 0.0
C991 C 0.61093 0.08194 0.87543 0.0
C992 C 0.55913 0.08275 0.89048 0.0
C993 C 0.55955 0.17043 0.8829 0.0
H994 H 0.45432 0.11035 0.89339 0.0
C995 C 0.45525 0.22526 0.8857 0.0
C996 C 0.42534 0.20706 0.89796 0.0
C997 C 0.48171 0.2139 0.88428 0.0
C998 C 0.48382 0.12757 0.89077 0.0
H999 H 0.63613 0.12173 0.85321 0.0
H1000 H 0.59565 0.14832 0.85659 0.0
H1001 H 0.49003 0.08003 0.88642 0.0
H1002 H 0.40179 0.16616 0.9198 0.0
H1003 H 0.44859 0.14738 0.91783 0.0
H1004 H 0.55311 0.21803 0.88721 0.0
C1005 C 0.59159 0.12578 0.86561 0.0
C1006 C 0.5042 0.11015 0.88668 0.0
C1007 C 0.61461 0.11045 0.86362 0.0
C1008 C 0.42446 0.18035 0.91012 0.0
C1009 C 0.451 0.16934 0.90884 0.0
C1010 C 0.53909 0.18792 0.887 0.0
C1011 C 0.56427 0.11274 0.87939 0.0
C1012 C 0.54231 0.13134 0.88281 0.0
C1013 C 0.47863 0.18448 0.89522 0.0
C1014 C 0.50107 0.16663 0.89115 0.0
H1015 H 0.57888 0.04588 0.89798 0.0
H1016 H 0.53845 0.07225 0.90131 0.0
H1017 H 0.58904 0.1875 0.8802 0.0
H1018 H 0.45632 0.24577 0.8761 0.0
H1019 H 0.50278 0.22616 0.87368 0.0
C1020 C 0.24638 0.42329 0.40918 0.0
C1021 C 0.22015 0.4275 0.39883 0.0
C1022 C 0.28394 0.45013 0.40837 0.0
C1023 C 0.34993 0.51454 0.37562 0.0
H1024 H 0.41836 0.54821 0.41685 0.0
C1025 C 0.50728 0.61745 0.36772 0.0
C1026 C 0.53188 0.61401 0.37979 0.0
C1027 C 0.46892 0.59476 0.36969 0.0
C1028 C 0.39968 0.53859 0.40516 0.0
H1029 H 0.21209 0.46394 0.38037 0.0
H1030 H 0.27825 0.51095 0.37877 0.0
H1031 H 0.3516 0.51241 0.42251 0.0
H1032 H 0.53531 0.58195 0.40254 0.0
H1033 H 0.46847 0.54126 0.40546 0.0
H1034 H 0.39781 0.53952 0.35821 0.0
C1035 C 0.26956 0.48682 0.38751 0.0
C1036 C 0.36147 0.51845 0.40844 0.0
C1037 C 0.23178 0.46017 0.38856 0.0
C1038 C 0.51727 0.58542 0.39299 0.0
C1039 C 0.47886 0.56248 0.39487 0.0
C1040 C 0.38816 0.53436 0.37232 0.0
C1041 C 0.29603 0.48143 0.39699 0.0
C1042 C 0.33626 0.50605 0.39369 0.0
C1043 C 0.45423 0.56773 0.38365 0.0
C1044 C 0.41352 0.54639 0.38706 0.0
H1045 H 0.23807 0.39833 0.41722 0.0
H1046 H 0.30375 0.44518 0.41574 0.0
H1047 H 0.33108 0.50469 0.36398 0.0
H1048 H 0.51766 0.63875 0.35718 0.0
H1049 H 0.45086 0.59964 0.36079 0.0
C1050 C 0.91654 0.51206 0.89056 0.0
C1051 C 0.90298 0.52719 0.87743 0.0
C1052 C 0.90112 0.47359 0.89206 0.0
C1053 C 0.814 0.38691 0.88282 0.0
H1054 H 0.87324 0.3409 0.89368 0.0
C1055 C 0.75874 0.22738 0.88432 0.0
C1056 C 0.77627 0.21511 0.89672 0.0
C1057 C 0.77022 0.26531 0.88316 0.0
C1058 C 0.85623 0.3534 0.89094 0.0
H1059 H 0.86469 0.514 0.85463 0.0
H1060 H 0.83782 0.44671 0.85719 0.0
H1061 H 0.90401 0.40732 0.88748 0.0
H1062 H 0.8161 0.23148 0.91899 0.0
H1063 H 0.83499 0.29721 0.9175 0.0
H1064 H 0.76616 0.3327 0.88627 0.0
C1065 C 0.85976 0.46462 0.86661 0.0
C1066 C 0.87392 0.39143 0.88729 0.0
C1067 C 0.87525 0.5031 0.86509 0.0
C1068 C 0.80239 0.24043 0.90923 0.0
C1069 C 0.81349 0.27806 0.90822 0.0
C1070 C 0.79624 0.34872 0.88648 0.0
C1071 C 0.87187 0.44945 0.88042 0.0
C1072 C 0.85303 0.40866 0.88331 0.0
C1073 C 0.79909 0.29118 0.89449 0.0
C1074 C 0.81721 0.33167 0.89077 0.0
H1075 H 0.93751 0.52973 0.90042 0.0
H1076 H 0.9109 0.46272 0.90292 0.0
H1077 H 0.79715 0.39954 0.88001 0.0
H1078 H 0.73876 0.20834 0.87443 0.0
H1079 H 0.75854 0.27461 0.87247 0.0
C1080 C 0.13641 0.3683 0.32287 0.0
C1081 C 0.14895 0.34984 0.33461 0.0
C1082 C 0.14212 0.36937 0.30388 0.0
C1083 C 0.16074 0.31937 0.26713 0.0
H1084 H 0.18487 0.40679 0.23778 0.0
C1085 C 0.21265 0.33377 0.19345 0.0
C1086 C 0.19644 0.34508 0.17973 0.0
C1087 C 0.20588 0.33618 0.21199 0.0
C1088 C 0.17766 0.38207 0.24579 0.0
H1089 H 0.17834 0.31897 0.33559 0.0
H1090 H 0.189 0.32144 0.30246 0.0
H1091 H 0.17671 0.40808 0.2711 0.0
H1092 H 0.16138 0.36917 0.17488 0.0
H1093 H 0.14963 0.37368 0.20774 0.0
H1094 H 0.16232 0.29359 0.24195 0.0
C1095 C 0.17402 0.33446 0.30793 0.0
C1096 C 0.17304 0.38276 0.26487 0.0
C1097 C 0.16819 0.33327 0.32694 0.0
C1098 C 0.17416 0.36014 0.18511 0.0
C1099 C 0.16751 0.36277 0.20387 0.0
C1100 C 0.16553 0.31877 0.24816 0.0
C1101 C 0.16062 0.3521 0.29613 0.0
C1102 C 0.16496 0.35152 0.2758 0.0
C1103 C 0.18279 0.35007 0.21745 0.0
C1104 C 0.17454 0.35023 0.23731 0.0
H1105 H 0.12143 0.38135 0.32829 0.0
H1106 H 0.13108 0.38285 0.29524 0.0
H1107 H 0.15355 0.29449 0.275 0.0
H1108 H 0.23031 0.3224 0.18992 0.0
H1109 H 0.2187 0.32694 0.22211 0.0
C1110 C 0.86545 0.23109 0.68906 0.0
C1111 C 0.84188 0.20415 0.67629 0.0
C1112 C 0.85831 0.22547 0.70793 0.0
C1113 C 0.80487 0.15041 0.74211 0.0
H1114 H 0.83103 0.23376 0.77484 0.0
C1115 C 0.76239 0.13171 0.81866 0.0
C1116 C 0.79121 0.15217 0.83128 0.0
C1117 C 0.76793 0.13912 0.79981 0.0
C1118 C 0.82379 0.21028 0.76585 0.0
H1119 H 0.79167 0.15067 0.67327 0.0
H1120 H 0.7783 0.14143 0.70612 0.0
H1121 H 0.84051 0.24445 0.74175 0.0
H1122 H 0.84812 0.19718 0.83405 0.0
H1123 H 0.85751 0.21064 0.80102 0.0
H1124 H 0.78729 0.11624 0.76629 0.0
C1125 C 0.80304 0.16643 0.70166 0.0
C1126 C 0.82934 0.21635 0.74687 0.0
C1127 C 0.81051 0.17182 0.68278 0.0
C1128 C 0.82541 0.18091 0.82467 0.0
C1129 C 0.83075 0.1887 0.8058 0.0
C1130 C 0.79881 0.14432 0.76103 0.0
C1131 C 0.82708 0.19299 0.71453 0.0
C1132 C 0.82015 0.18651 0.73473 0.0
C1133 C 0.80221 0.16751 0.79318 0.0
C1134 C 0.80835 0.17419 0.77309 0.0
H1135 H 0.89003 0.2562 0.68451 0.0
H1136 H 0.87788 0.24628 0.71733 0.0
H1137 H 0.79817 0.12679 0.73334 0.0
H1138 H 0.73572 0.10935 0.82328 0.0
H1139 H 0.74536 0.12259 0.7904 0.0
C1140 C 0.65441 0.87344 0.19236 0.0
C1141 C 0.64638 0.84742 0.17819 0.0
C1142 C 0.64845 0.86232 0.21072 0.0
C1143 C 0.6411 0.78969 0.24208 0.0
H1144 H 0.60547 0.83717 0.27594 0.0
C1145 C 0.62515 0.75816 0.32038 0.0
C1146 C 0.63927 0.78944 0.33199 0.0
C1147 C 0.62132 0.76168 0.30147 0.0
C1148 C 0.61562 0.82379 0.26668 0.0
H1149 H 0.62538 0.78906 0.17227 0.0
H1150 H 0.61488 0.76946 0.20466 0.0
H1151 H 0.60617 0.8486 0.243 0.0
H1152 H 0.65978 0.84883 0.33284 0.0
H1153 H 0.65314 0.85497 0.29988 0.0
H1154 H 0.65111 0.76538 0.26587 0.0
C1155 C 0.626 0.7986 0.20139 0.0
C1156 C 0.61599 0.83029 0.2478 0.0
C1157 C 0.63186 0.80977 0.18287 0.0
C1158 C 0.64879 0.82417 0.32431 0.0
C1159 C 0.64477 0.82765 0.30542 0.0
C1160 C 0.64064 0.7831 0.26101 0.0
C1161 C 0.63426 0.82484 0.21552 0.0
C1162 C 0.62954 0.81403 0.2353 0.0
C1163 C 0.63127 0.7965 0.29375 0.0
C1164 C 0.62864 0.80073 0.27355 0.0
H1165 H 0.66568 0.9027 0.18932 0.0
H1166 H 0.65579 0.8834 0.22122 0.0
H1167 H 0.65201 0.777 0.23285 0.0
H1168 H 0.61748 0.73095 0.32585 0.0
H1169 H 0.61048 0.7371 0.29288 0.0
C1170 C 0.76179 0.64248 0.69031 0.0
C1171 C 0.79229 0.65444 0.67841 0.0
C1172 C 0.76591 0.63914 0.70922 0.0
C1173 C 0.83936 0.66916 0.74542 0.0
H1174 H 0.75833 0.59471 0.77482 0.0
C1175 C 0.85797 0.63546 0.82034 0.0
C1176 C 0.83462 0.63902 0.83316 0.0
C1177 C 0.85134 0.63527 0.80148 0.0
C1178 C 0.78109 0.61566 0.76673 0.0
H1179 H 0.85061 0.6709 0.6768 0.0
H1180 H 0.85745 0.66337 0.70948 0.0
H1181 H 0.74991 0.59778 0.7417 0.0
H1182 H 0.78521 0.64371 0.83632 0.0
H1183 H 0.77305 0.64228 0.80322 0.0
H1184 H 0.87081 0.68604 0.77046 0.0
C1185 C 0.83064 0.658 0.7045 0.0
C1186 C 0.77628 0.61766 0.74777 0.0
C1187 C 0.8267 0.66205 0.68569 0.0
C1188 C 0.80373 0.64104 0.82675 0.0
C1189 C 0.79668 0.64009 0.80786 0.0
C1190 C 0.84435 0.66664 0.76426 0.0
C1191 C 0.80047 0.64703 0.71661 0.0
C1192 C 0.80537 0.64451 0.73683 0.0
C1193 C 0.82083 0.63787 0.79508 0.0
C1194 C 0.81527 0.63995 0.77508 0.0
H1195 H 0.73497 0.63661 0.68507 0.0
H1196 H 0.74212 0.63118 0.71806 0.0
H1197 H 0.86214 0.69087 0.73767 0.0
H1198 H 0.88206 0.63396 0.82486 0.0
H1199 H 0.87022 0.63334 0.79186 0.0
C1200 C 0.12124 0.769 0.19076 0.0
C1201 C 0.14683 0.78873 0.17669 0.0
C1202 C 0.13197 0.77524 0.20914 0.0
C1203 C 0.21 0.81327 0.24156 0.0
H1204 H 0.14157 0.82794 0.27191 0.0
C1205 C 0.23992 0.8639 0.31762 0.0
C1206 C 0.20962 0.84873 0.32985 0.0
C1207 C 0.23451 0.85537 0.29884 0.0
C1208 C 0.16073 0.82339 0.26373 0.0
H1209 H 0.20442 0.82896 0.17084 0.0
H1210 H 0.22337 0.84008 0.20338 0.0
H1211 H 0.1292 0.81562 0.23925 0.0
H1212 H 0.15018 0.81125 0.33212 0.0
H1213 H 0.14084 0.79581 0.29951 0.0
H1214 H 0.24142 0.82085 0.26624 0.0
C1215 C 0.19491 0.81975 0.19998 0.0
C1216 C 0.15371 0.81648 0.24498 0.0
C1217 C 0.1841 0.81343 0.18141 0.0
C1218 C 0.17405 0.82371 0.32304 0.0
C1219 C 0.16868 0.81505 0.30431 0.0
C1220 C 0.217 0.82007 0.26045 0.0
C1221 C 0.16858 0.80147 0.21401 0.0
C1222 C 0.17794 0.81086 0.23372 0.0
C1223 C 0.19869 0.8314 0.29192 0.0
C1224 C 0.19215 0.82475 0.27179 0.0
H1225 H 0.09244 0.74927 0.18762 0.0
H1226 H 0.11128 0.76007 0.21962 0.0
H1227 H 0.22908 0.80894 0.23319 0.0
H1228 H 0.26771 0.88327 0.32243 0.0
H1229 H 0.25818 0.86862 0.28968 0.0
C1230 C 0.32395 0.14747 0.82723 0.0
C1231 C 0.34394 0.18434 0.83363 0.0
C1232 C 0.32473 0.13948 0.8086 0.0
C1233 C 0.37773 0.17571 0.76559 0.0
H1234 H 0.28276 0.1126 0.74189 0.0
C1235 C 0.36299 0.1238 0.69013 0.0
C1236 C 0.33665 0.12701 0.6793 0.0
C1237 C 0.3651 0.13038 0.70911 0.0
C1238 C 0.30947 0.1303 0.74832 0.0
H1239 H 0.38146 0.24157 0.8256 0.0
H1240 H 0.38308 0.22748 0.79309 0.0
H1241 H 0.28497 0.12464 0.7749 0.0
H1242 H 0.29189 0.13966 0.67992 0.0
H1243 H 0.29536 0.15071 0.71301 0.0
H1244 H 0.40216 0.18154 0.73892 0.0
C1245 C 0.36676 0.20482 0.80249 0.0
C1246 C 0.31078 0.13692 0.76723 0.0
C1247 C 0.36567 0.21288 0.82109 0.0
C1248 C 0.31248 0.13691 0.68786 0.0
C1249 C 0.31432 0.14305 0.70683 0.0
C1250 C 0.37646 0.16873 0.74668 0.0
C1251 C 0.34585 0.1681 0.796 0.0
C1252 C 0.34487 0.15991 0.77605 0.0
C1253 C 0.34062 0.13983 0.71766 0.0
C1254 C 0.34227 0.14623 0.73783 0.0
H1255 H 0.30697 0.12483 0.83652 0.0
H1256 H 0.30865 0.11087 0.80401 0.0
H1257 H 0.40441 0.19338 0.77204 0.0
H1258 H 0.38206 0.11629 0.68395 0.0
H1259 H 0.3855 0.12749 0.71714 0.0
C1260 C 0.2974 0.20283 0.95152 0.0
C1261 C 0.31238 0.22967 0.93747 0.0
C1262 C 0.28801 0.21162 0.96856 0.0
C1263 C 0.26014 0.27349 0.99014 0.0
H1264 H 0.29345 0.25065 0.03559 0.0
C1265 C 0.23671 0.32205 0.06133 0.0
C1266 C 0.23103 0.29892 0.07655 0.0
C1267 C 0.24619 0.3138 0.04415 0.0
C1268 C 0.28328 0.25668 0.02308 0.0
H1269 H 0.32916 0.28674 0.93029 0.0
H1270 H 0.31221 0.30173 0.9599 0.0
H1271 H 0.31055 0.23513 0.00624 0.0
H1272 H 0.22911 0.24813 0.08553 0.0
H1273 H 0.24389 0.23291 0.05565 0.0
H1274 H 0.23198 0.29411 0.00685 0.0
C1275 C 0.30791 0.27402 0.95775 0.0
C1276 C 0.29331 0.24791 0.00625 0.0
C1277 C 0.31786 0.26546 0.94085 0.0
C1278 C 0.23379 0.2668 0.07412 0.0
C1279 C 0.24262 0.25824 0.05696 0.0
C1280 C 0.24959 0.28177 0.00699 0.0
C1281 C 0.2928 0.24718 0.97176 0.0
C1282 C 0.28191 0.25628 0.98962 0.0
C1283 C 0.24964 0.28191 0.04177 0.0
C1284 C 0.26099 0.27345 0.02372 0.0
H1285 H 0.29279 0.17502 0.94933 0.0
H1286 H 0.27625 0.19036 0.97912 0.0
H1287 H 0.2507 0.27995 0.9775 0.0
H1288 H 0.23493 0.34709 0.06282 0.0
H1289 H 0.25174 0.33296 0.03288 0.0
C1290 C 0.06769 0.34233 0.44764 0.0
C1291 C 0.08133 0.32054 0.43985 0.0
C1292 C 0.04641 0.33086 0.46371 0.0
C1293 C 0.018 0.2639 0.50287 0.0
H1294 H 0.9358 0.28308 0.50561 0.0
C1295 C 0.90729 0.20424 0.56085 0.0
C1296 C 0.90233 0.23131 0.56996 0.0
C1297 C 0.92698 0.21278 0.54424 0.0
C1298 C 0.95867 0.27757 0.50503 0.0
H1299 H 0.0842 0.27009 0.44309 0.0
H1300 H 0.04634 0.24956 0.47088 0.0
H1301 H 0.97617 0.3035 0.47871 0.0
H1302 H 0.91252 0.28786 0.56845 0.0
H1303 H 0.94595 0.30237 0.5393 0.0
H1304 H -0.00017 0.23743 0.52918 0.0
C1305 C 0.05262 0.27591 0.46481 0.0
C1306 C 0.98206 0.28953 0.48969 0.0
C1307 C 0.07433 0.28766 0.44884 0.0
C1308 C 0.91588 0.26642 0.56174 0.0
C1309 C 0.93495 0.27471 0.54503 0.0
C1310 C 0.99429 0.25153 0.51814 0.0
C1311 C 0.03775 0.29701 0.47226 0.0
C1312 C 0.01237 0.28333 0.48849 0.0
C1313 C 0.9414 0.24828 0.5363 0.0
C1314 C 0.96466 0.25864 0.51946 0.0
H1315 H 0.07279 0.36794 0.4411 0.0
H1316 H 0.03636 0.34839 0.46929 0.0
H1317 H 0.04123 0.25895 0.50257 0.0
H1318 H 0.89741 0.17706 0.56695 0.0
H1319 H 0.93136 0.19183 0.53771 0.0
C1320 C 0.67324 0.91233 0.05958 0.0
C1321 C 0.69504 0.92989 0.07514 0.0
C1322 C 0.68217 0.9305 0.04248 0.0
C1323 C 0.73882 0.02567 0.02196 0.0
H1324 H 0.71712 0.97063 0.97623 0.0
C1325 C 0.78944 0.09457 0.94986 0.0
C1326 C 0.76145 0.08234 0.93639 0.0
C1327 C 0.78226 0.07643 0.96693 0.0
C1328 C 0.72325 0.98632 0.98892 0.0
H1329 H 0.74428 0.97943 0.08485 0.0
H1330 H 0.76083 0.01014 0.05513 0.0
H1331 H 0.70336 0.93736 0.00547 0.0
H1332 H 0.70408 0.04133 0.93026 0.0
H1333 H 0.69201 0.00951 0.95979 0.0
H1334 H 0.75962 0.07471 1.00523 0.0
C1335 C 0.73592 0.98314 0.05607 0.0
C1336 C 0.71514 0.96725 0.00571 0.0
C1337 C 0.7266 0.96533 0.07315 0.0
C1338 C 0.72624 0.05166 0.94035 0.0
C1339 C 0.71934 0.03319 0.95721 0.0
C1340 C 0.74751 0.04475 1.00517 0.0
C1341 C 0.71351 0.96637 0.04051 0.0
C1342 C 0.72261 0.98661 0.02251 0.0
C1343 C 0.74725 0.04528 0.97066 0.0
C1344 C 0.73957 0.02525 0.98849 0.0
H1345 H 0.64864 0.8851 0.06073 0.0
H1346 H 0.6639 0.91675 0.03094 0.0
H1347 H 0.74426 0.04166 0.0345 0.0
H1348 H 0.81684 0.11806 0.94721 0.0
H1349 H 0.80429 0.08625 0.97708 0.0
C1350 C 0.74116 0.66746 0.56198 0.0
C1351 C 0.77407 0.69169 0.57141 0.0
C1352 C 0.73206 0.67834 0.54549 0.0
C1353 C 0.76923 0.74823 0.50771 0.0
H1354 H 0.66531 0.71929 0.50223 0.0
C1355 C 0.71435 0.79944 0.44714 0.0
C1356 C 0.68273 0.77124 0.43821 0.0
C1357 C 0.72628 0.79229 0.46393 0.0
C1358 C 0.6944 0.72747 0.50351 0.0
H1359 H 0.82402 0.74587 0.5705 0.0
H1360 H 0.80793 0.76511 0.54174 0.0
H1361 H 0.68576 0.70109 0.52974 0.0
H1362 H 0.63821 0.71386 0.44022 0.0
H1363 H 0.65865 0.70166 0.46945 0.0
H1364 H 0.77765 0.77476 0.48139 0.0
C1365 C 0.78929 0.73749 0.54702 0.0
C1366 C 0.70614 0.71686 0.51924 0.0
C1367 C 0.79855 0.72646 0.56351 0.0
C1368 C 0.66264 0.73624 0.44673 0.0
C1369 C 0.67429 0.72926 0.46355 0.0
C1370 C 0.75746 0.75903 0.49196 0.0
C1371 C 0.75545 0.7139 0.53805 0.0
C1372 C 0.7436 0.72657 0.52145 0.0
C1373 C 0.70654 0.75698 0.47223 0.0
C1374 C 0.7198 0.7483 0.48958 0.0
H1375 H 0.72179 0.64036 0.5676 0.0
H1376 H 0.70628 0.65901 0.53873 0.0
H1377 H 0.79822 0.75603 0.50888 0.0
H1378 H 0.73057 0.82662 0.44086 0.0
H1379 H 0.75106 0.8143 0.47038 0.0
C1380 C 0.90021 0.70589 0.94848 0.0
C1381 C 0.89917 0.67596 0.93892 0.0
C1382 C 0.91981 0.71836 0.96507 0.0
C1383 C 0.99446 0.71505 0.99196 0.0
H1384 H 0.95814 0.75051 0.03169 0.0
C1385 C 0.0793 0.77652 0.05902 0.0
C1386 C 0.05888 0.76598 0.0755 0.0
C1387 C 0.06096 0.76855 0.04199 0.0
C1388 C 0.96864 0.74051 0.02079 0.0
H1389 H 0.91674 0.63475 0.93964 0.0
H1390 H 0.94974 0.6556 0.96876 0.0
H1391 H 0.92245 0.72855 1.00336 0.0
H1392 H 0.00313 0.73909 0.08697 0.0
H1393 H 0.97152 0.72462 0.05757 0.0
H1394 H 0.03984 0.72554 0.00969 0.0
C1395 C 0.93641 0.67025 0.96324 0.0
C1396 C 0.94833 0.72831 1.00441 0.0
C1397 C 0.91711 0.65801 0.94661 0.0
C1398 C 0.01985 0.74778 0.07457 0.0
C1399 C 0.00162 0.73969 0.05764 0.0
C1400 C 0.01464 0.72702 0.00839 0.0
C1401 C 0.93861 0.70101 0.97254 0.0
C1402 C 0.96076 0.71506 0.98983 0.0
C1403 C 0.02182 0.74978 0.04109 0.0
C1404 C 0.0018 0.73954 0.02311 0.0
H1405 H 0.88697 0.72055 0.94285 0.0
H1406 H 0.92114 0.74233 0.97172 0.0
H1407 H 0.00532 0.70573 0.98092 0.0
H1408 H 0.10939 0.79066 0.05926 0.0
H1409 H 0.07745 0.77714 0.02953 0.0
C1410 C 0.27072 0.95768 0.43726 0.0
C1411 C 0.23572 0.92671 0.43329 0.0
C1412 C 0.27714 0.97663 0.45394 0.0
C1413 C 0.24859 0.96517 0.50172 0.0
H1414 H 0.29676 0.07302 0.50221 0.0
C1415 C 0.32185 0.05306 0.56572 0.0
C1416 C 0.31177 0.07932 0.57125 0.0
C1417 C 0.31049 0.03523 0.54872 0.0
C1418 C 0.28308 0.04292 0.50227 0.0
H1419 H 0.18012 0.89113 0.44388 0.0
H1420 H 0.19183 0.92378 0.47346 0.0
H1421 H 0.2798 0.03958 0.47279 0.0
H1422 H 0.28279 0.10826 0.5629 0.0
H1423 H 0.26393 0.07775 0.53272 0.0
H1424 H 0.25302 0.96857 0.53115 0.0
C1425 C 0.21406 0.93347 0.46344 0.0
C1426 C 0.27356 0.02382 0.48547 0.0
C1427 C 0.20737 0.91484 0.44654 0.0
C1428 C 0.29111 0.08828 0.55903 0.0
C1429 C 0.28028 0.07081 0.5418 0.0
C1430 C 0.25872 0.98431 0.51849 0.0
C1431 C 0.24895 0.96477 0.46721 0.0
C1432 C 0.25652 0.98478 0.48503 0.0
C1433 C 0.28927 0.04358 0.53666 0.0
C1434 C 0.27639 0.02338 0.51891 0.0
H1435 H 0.29315 0.96773 0.42733 0.0
H1436 H 0.30441 0.00038 0.45656 0.0
H1437 H 0.23569 0.93512 0.50178 0.0
H1438 H 0.33759 0.04529 0.57478 0.0
H1439 H 0.31821 0.01471 0.54501 0.0
loop_
_geom_bond_atom_site_label_1
_geom_bond_atom_site_label_2
_geom_bond_distance
_geom_bond_site_symmetry_2
_ccdc_geom_bond_type
Co0 N5 2.057 . S
Co0 O17 2.021 . S
Co0 O20 2.062 . S
Co0 O24 2.117 . S
Co0 O25 2.020 . S
C1 O21 1.259 . S
C1 O24 1.258 . S
Co2 N11 2.057 . S
Co2 O18 2.117 . S
Co2 O19 2.020 . S
Co2 O21 2.021 . S
Co2 O26 2.062 . S
C3 N5 1.316 . S
C3 N6 1.347 . S
C3 H8 0.931 . S
C4 N5 1.375 . S
C4 C7 1.350 . S
C4 H9 0.930 . S
N5 Co0 2.057 . S
N5 C3 1.316 . S
N5 C4 1.375 . S
N6 C3 1.347 . S
N6 C7 1.373 . S
C7 C4 1.350 . S
C7 N6 1.373 . S
C7 H28 0.931 . S
H8 C3 0.931 . S
H9 C4 0.930 . S
C10 O17 1.259 . S
C10 O18 1.258 . S
N11 Co2 2.057 . S
N11 C12 1.316 . S
N11 C13 1.375 . S
C12 N11 1.316 . S
C12 N14 1.347 . S
C12 H23 0.931 . S
C13 N11 1.375 . S
C13 C15 1.350 . S
C13 H22 0.930 . S
N14 C12 1.347 . S
N14 C15 1.373 . S
C15 C13 1.350 . S
C15 N14 1.373 . S
C15 H29 0.931 . S
C16 O19 1.256 . S
C16 O20 1.255 . S
O17 Co0 2.021 . S
O17 C10 1.259 . S
O18 Co2 2.117 . S
O18 C10 1.258 . S
O19 Co2 2.020 . S
O19 C16 1.256 . S
O20 Co0 2.062 . S
O20 C16 1.255 . S
O21 C1 1.259 . S
O21 Co2 2.021 . S
H22 C13 0.930 . S
H23 C12 0.931 . S
O24 Co0 2.117 . S
O24 C1 1.258 . S
O25 Co0 2.020 . S
O25 C27 1.256 . S
O26 Co2 2.062 . S
O26 C27 1.255 . S
C27 O25 1.256 . S
C27 O26 1.255 . S
H28 C7 0.931 . S
H29 C15 0.931 . S
Co30 N35 2.057 . S
Co30 O47 2.021 . S
Co30 O50 2.062 . S
Co30 O54 2.117 . S
Co30 O55 2.020 . S
C31 O51 1.259 . S
C31 O54 1.258 . S
Co32 N41 2.057 . S
Co32 O48 2.117 . S
Co32 O49 2.020 . S
Co32 O51 2.021 . S
Co32 O56 2.062 . S
C33 N35 1.316 . S
C33 N36 1.347 . S
C33 H38 0.931 . S
C34 N35 1.375 . S
C34 C37 1.350 . S
C34 H39 0.930 . S
N35 Co30 2.057 . S
N35 C33 1.316 . S
N35 C34 1.375 . S
N36 C33 1.347 . S
N36 C37 1.373 . S
C37 C34 1.350 . S
C37 N36 1.373 . S
C37 H58 0.931 . S
H38 C33 0.931 . S
H39 C34 0.930 . S
C40 O47 1.259 . S
C40 O48 1.258 . S
N41 Co32 2.057 . S
N41 C42 1.316 . S
N41 C43 1.375 . S
C42 N41 1.316 . S
C42 N44 1.347 . S
C42 H53 0.931 . S
C43 N41 1.375 . S
C43 C45 1.350 . S
C43 H52 0.930 . S
N44 C42 1.347 . S
N44 C45 1.373 . S
C45 C43 1.350 . S
C45 N44 1.373 . S
C45 H59 0.931 . S
C46 O49 1.256 . S
C46 O50 1.255 . S
O47 Co30 2.021 . S
O47 C40 1.259 . S
O48 Co32 2.117 . S
O48 C40 1.258 . S
O49 Co32 2.020 . S
O49 C46 1.256 . S
O50 Co30 2.062 . S
O50 C46 1.255 . S
O51 C31 1.259 . S
O51 Co32 2.021 . S
H52 C43 0.930 . S
H53 C42 0.931 . S
O54 Co30 2.117 . S
O54 C31 1.258 . S
O55 Co30 2.020 . S
O55 C57 1.256 . S
O56 Co32 2.062 . S
O56 C57 1.255 . S
C57 O55 1.256 . S
C57 O56 1.255 . S
H58 C37 0.931 . S
H59 C45 0.931 . S
Co60 N65 2.057 . S
Co60 O77 2.021 . S
Co60 O80 2.062 . S
Co60 O84 2.117 . S
Co60 O85 2.020 . S
C61 O81 1.259 . S
C61 O84 1.258 . S
Co62 N71 2.057 . S
Co62 O78 2.117 . S
Co62 O79 2.020 . S
Co62 O81 2.021 . S
Co62 O86 2.062 . S
C63 N65 1.316 . S
C63 N66 1.347 . S
C63 H68 0.931 . S
C64 N65 1.375 . S
C64 C67 1.350 . S
C64 H69 0.930 . S
N65 Co60 2.057 . S
N65 C63 1.316 . S
N65 C64 1.375 . S
N66 C63 1.347 . S
N66 C67 1.373 . S
C67 C64 1.350 . S
C67 N66 1.373 . S
C67 H88 0.931 . S
H68 C63 0.931 . S
H69 C64 0.930 . S
C70 O77 1.259 . S
C70 O78 1.258 . S
N71 Co62 2.057 . S
N71 C72 1.316 . S
N71 C73 1.375 . S
C72 N71 1.316 . S
C72 N74 1.347 1_565 S
C72 H83 0.931 . S
C73 N71 1.375 . S
C73 C75 1.350 . S
C73 H82 0.930 . S
N74 C72 1.347 1_545 S
N74 C75 1.373 1_545 S
C75 C73 1.350 . S
C75 N74 1.373 1_565 S
C75 H89 0.931 1_565 S
C76 O79 1.256 . S
C76 O80 1.255 . S
O77 Co60 2.021 . S
O77 C70 1.259 . S
O78 Co62 2.117 . S
O78 C70 1.258 . S
O79 Co62 2.020 . S
O79 C76 1.256 . S
O80 Co60 2.062 . S
O80 C76 1.255 . S
O81 C61 1.259 . S
O81 Co62 2.021 . S
H82 C73 0.930 . S
H83 C72 0.931 . S
O84 Co60 2.117 . S
O84 C61 1.258 . S
O85 Co60 2.020 . S
O85 C87 1.256 . S
O86 Co62 2.062 . S
O86 C87 1.255 . S
C87 O85 1.256 . S
C87 O86 1.255 . S
H88 C67 0.931 . S
H89 C75 0.931 1_545 S
Co90 N95 2.057 . S
Co90 O107 2.021 . S
Co90 O110 2.062 . S
Co90 O114 2.117 . S
Co90 O115 2.020 . S
C91 O111 1.259 . S
C91 O114 1.258 . S
Co92 N101 2.057 . S
Co92 O108 2.117 . S
Co92 O109 2.020 . S
Co92 O111 2.021 . S
Co92 O116 2.062 . S
C93 N95 1.316 . S
C93 N96 1.347 . S
C93 H98 0.931 . S
C94 N95 1.375 . S
C94 C97 1.350 . S
C94 H99 0.930 . S
N95 Co90 2.057 . S
N95 C93 1.316 . S
N95 C94 1.375 . S
N96 C93 1.347 . S
N96 C97 1.373 . S
C97 C94 1.350 . S
C97 N96 1.373 . S
C97 H118 0.931 . S
H98 C93 0.931 . S
H99 C94 0.930 . S
C100 O107 1.259 . S
C100 O108 1.258 . S
N101 Co92 2.057 . S
N101 C102 1.316 . S
N101 C103 1.375 . S
C102 N101 1.316 . S
C102 N104 1.347 . S
C102 H113 0.931 . S
C103 N101 1.375 . S
C103 C105 1.350 . S
C103 H112 0.930 . S
N104 C102 1.347 . S
N104 C105 1.373 . S
C105 C103 1.350 . S
C105 N104 1.373 . S
C105 H119 0.931 . S
C106 O109 1.256 . S
C106 O110 1.255 . S
O107 Co90 2.021 . S
O107 C100 1.259 . S
O108 Co92 2.117 . S
O108 C100 1.258 . S
O109 Co92 2.020 . S
O109 C106 1.256 . S
O110 Co90 2.062 . S
O110 C106 1.255 . S
O111 C91 1.259 . S
O111 Co92 2.021 . S
H112 C103 0.930 . S
H113 C102 0.931 . S
O114 Co90 2.117 . S
O114 C91 1.258 . S
O115 Co90 2.020 . S
O115 C117 1.256 . S
O116 Co92 2.062 . S
O116 C117 1.255 . S
C117 O115 1.256 . S
C117 O116 1.255 . S
H118 C97 0.931 . S
H119 C105 0.931 . S
Co120 N125 2.057 . S
Co120 O137 2.021 . S
Co120 O140 2.062 . S
Co120 O144 2.117 . S
Co120 O145 2.020 . S
C121 O141 1.259 . S
C121 O144 1.258 . S
Co122 N131 2.057 . S
Co122 O138 2.117 . S
Co122 O139 2.020 . S
Co122 O141 2.021 . S
Co122 O146 2.062 . S
C123 N125 1.316 . S
C123 N126 1.347 . S
C123 H128 0.931 . S
C124 N125 1.375 . S
C124 C127 1.350 . S
C124 H129 0.930 . S
N125 Co120 2.057 . S
N125 C123 1.316 . S
N125 C124 1.375 . S
N126 C123 1.347 . S
N126 C127 1.373 . S
C127 C124 1.350 . S
C127 N126 1.373 . S
C127 H148 0.931 . S
H128 C123 0.931 . S
H129 C124 0.930 . S
C130 O137 1.259 . S
C130 O138 1.258 . S
N131 Co122 2.057 . S
N131 C132 1.316 . S
N131 C133 1.375 . S
C132 N131 1.316 . S
C132 N134 1.347 1_455 S
C132 H143 0.931 . S
C133 N131 1.375 . S
C133 C135 1.350 . S
C133 H142 0.930 . S
N134 C132 1.347 1_655 S
N134 C135 1.373 1_655 S
C135 C133 1.350 . S
C135 N134 1.373 1_455 S
C135 H149 0.931 1_455 S
C136 O139 1.256 . S
C136 O140 1.255 . S
O137 Co120 2.021 . S
O137 C130 1.259 . S
O138 Co122 2.117 . S
O138 C130 1.258 . S
O139 Co122 2.020 . S
O139 C136 1.256 . S
O140 Co120 2.062 . S
O140 C136 1.255 . S
O141 C121 1.259 . S
O141 Co122 2.021 . S
H142 C133 0.930 . S
H143 C132 0.931 . S
O144 Co120 2.117 . S
O144 C121 1.258 . S
O145 Co120 2.020 . S
O145 C147 1.256 . S
O146 Co122 2.062 . S
O146 C147 1.255 . S
C147 O145 1.256 . S
C147 O146 1.255 . S
H148 C127 0.931 . S
H149 C135 0.931 1_655 S
Co150 N155 2.057 . S
Co150 O167 2.021 . S
Co150 O170 2.062 . S
Co150 O174 2.117 . S
Co150 O175 2.020 . S
C151 O171 1.259 . S
C151 O174 1.258 . S
Co152 N161 2.057 . S
Co152 O168 2.117 . S
Co152 O169 2.020 . S
Co152 O171 2.021 . S
Co152 O176 2.062 . S
C153 N155 1.316 . S
C153 N156 1.347 . S
C153 H158 0.931 . S
C154 N155 1.375 . S
C154 C157 1.350 . S
C154 H159 0.930 . S
N155 Co150 2.057 . S
N155 C153 1.316 . S
N155 C154 1.375 . S
N156 C153 1.347 . S
N156 C157 1.373 . S
C157 C154 1.350 . S
C157 N156 1.373 . S
C157 H178 0.931 . S
H158 C153 0.931 . S
H159 C154 0.930 . S
C160 O167 1.259 . S
C160 O168 1.258 . S
N161 Co152 2.057 . S
N161 C162 1.316 . S
N161 C163 1.375 . S
C162 N161 1.316 . S
C162 N164 1.347 . S
C162 H173 0.931 . S
C163 N161 1.375 . S
C163 C165 1.350 . S
C163 H172 0.930 . S
N164 C162 1.347 . S
N164 C165 1.373 . S
C165 C163 1.350 . S
C165 N164 1.373 . S
C165 H179 0.931 . S
C166 O169 1.256 . S
C166 O170 1.255 . S
O167 Co150 2.021 . S
O167 C160 1.259 . S
O168 Co152 2.117 . S
O168 C160 1.258 . S
O169 Co152 2.020 . S
O169 C166 1.256 . S
O170 Co150 2.062 . S
O170 C166 1.255 . S
O171 C151 1.259 . S
O171 Co152 2.021 . S
H172 C163 0.930 . S
H173 C162 0.931 . S
O174 Co150 2.117 . S
O174 C151 1.258 . S
O175 Co150 2.020 . S
O175 C177 1.256 . S
O176 Co152 2.062 . S
O176 C177 1.255 . S
C177 O175 1.256 . S
C177 O176 1.255 . S
H178 C157 0.931 . S
H179 C165 0.931 . S
Co180 N185 2.057 . S
Co180 O197 2.021 . S
Co180 O200 2.062 . S
Co180 O204 2.117 . S
Co180 O205 2.020 . S
C181 O201 1.259 . S
C181 O204 1.258 . S
Co182 N191 2.057 . S
Co182 O198 2.117 . S
Co182 O199 2.020 . S
Co182 O201 2.021 . S
Co182 O206 2.062 . S
C183 N185 1.316 . S
C183 N186 1.347 . S
C183 H188 0.931 . S
C184 N185 1.375 . S
C184 C187 1.350 . S
C184 H189 0.930 . S
N185 Co180 2.057 . S
N185 C183 1.316 . S
N185 C184 1.375 . S
N186 C183 1.347 . S
N186 C187 1.373 . S
C187 C184 1.350 . S
C187 N186 1.373 . S
C187 H208 0.931 . S
H188 C183 0.931 . S
H189 C184 0.930 . S
C190 O197 1.259 . S
C190 O198 1.258 . S
N191 Co182 2.057 . S
N191 C192 1.316 . S
N191 C193 1.375 . S
C192 N191 1.316 . S
C192 N194 1.347 . S
C192 H203 0.931 . S
C193 N191 1.375 . S
C193 C195 1.350 . S
C193 H202 0.930 . S
N194 C192 1.347 . S
N194 C195 1.373 . S
C195 C193 1.350 . S
C195 N194 1.373 . S
C195 H209 0.931 . S
C196 O199 1.256 . S
C196 O200 1.255 . S
O197 Co180 2.021 . S
O197 C190 1.259 . S
O198 Co182 2.117 . S
O198 C190 1.258 . S
O199 Co182 2.020 . S
O199 C196 1.256 . S
O200 Co180 2.062 . S
O200 C196 1.255 . S
O201 C181 1.259 . S
O201 Co182 2.021 . S
H202 C193 0.930 . S
H203 C192 0.931 . S
O204 Co180 2.117 . S
O204 C181 1.258 . S
O205 Co180 2.020 . S
O205 C207 1.256 . S
O206 Co182 2.062 . S
O206 C207 1.255 . S
C207 O205 1.256 . S
C207 O206 1.255 . S
H208 C187 0.931 . S
H209 C195 0.931 . S
Co210 N215 2.057 . S
Co210 O227 2.021 . S
Co210 O230 2.062 . S
Co210 O234 2.117 . S
Co210 O235 2.020 . S
C211 O231 1.259 . S
C211 O234 1.258 . S
Co212 N221 2.057 . S
Co212 O228 2.117 . S
Co212 O229 2.020 . S
Co212 O231 2.021 . S
Co212 O236 2.062 . S
C213 N215 1.316 . S
C213 N216 1.347 . S
C213 H218 0.931 . S
C214 N215 1.375 . S
C214 C217 1.350 . S
C214 H219 0.930 . S
N215 Co210 2.057 . S
N215 C213 1.316 . S
N215 C214 1.375 . S
N216 C213 1.347 . S
N216 C217 1.373 . S
C217 C214 1.350 . S
C217 N216 1.373 . S
C217 H238 0.931 . S
H218 C213 0.931 . S
H219 C214 0.930 . S
C220 O227 1.259 . S
C220 O228 1.258 . S
N221 Co212 2.057 . S
N221 C222 1.316 . S
N221 C223 1.375 . S
C222 N221 1.316 . S
C222 N224 1.347 . S
C222 H233 0.931 . S
C223 N221 1.375 . S
C223 C225 1.350 . S
C223 H232 0.930 . S
N224 C222 1.347 . S
N224 C225 1.373 . S
C225 C223 1.350 . S
C225 N224 1.373 . S
C225 H239 0.931 . S
C226 O229 1.256 . S
C226 O230 1.255 . S
O227 Co210 2.021 . S
O227 C220 1.259 . S
O228 Co212 2.117 . S
O228 C220 1.258 . S
O229 Co212 2.020 . S
O229 C226 1.256 . S
O230 Co210 2.062 . S
O230 C226 1.255 . S
O231 C211 1.259 . S
O231 Co212 2.021 . S
H232 C223 0.930 . S
H233 C222 0.931 . S
O234 Co210 2.117 . S
O234 C211 1.258 . S
O235 Co210 2.020 . S
O235 C237 1.256 . S
O236 Co212 2.062 . S
O236 C237 1.255 . S
C237 O235 1.256 . S
C237 O236 1.255 . S
H238 C217 0.931 . S
H239 C225 0.931 . S
Co240 N245 2.057 . S
Co240 O257 2.021 . S
Co240 O260 2.062 . S
Co240 O264 2.117 . S
Co240 O265 2.020 . S
C241 O261 1.259 . S
C241 O264 1.258 . S
Co242 N251 2.057 . S
Co242 O258 2.117 . S
Co242 O259 2.020 . S
Co242 O261 2.021 . S
Co242 O266 2.062 . S
C243 N245 1.316 . S
C243 N246 1.347 . S
C243 H248 0.931 . S
C244 N245 1.375 . S
C244 C247 1.350 . S
C244 H249 0.930 . S
N245 Co240 2.057 . S
N245 C243 1.316 . S
N245 C244 1.375 . S
N246 C243 1.347 . S
N246 C247 1.373 . S
C247 C244 1.350 . S
C247 N246 1.373 . S
C247 H268 0.931 . S
H248 C243 0.931 . S
H249 C244 0.930 . S
C250 O257 1.259 . S
C250 O258 1.258 . S
N251 Co242 2.057 . S
N251 C252 1.316 . S
N251 C253 1.375 . S
C252 N251 1.316 . S
C252 N254 1.347 . S
C252 H263 0.931 . S
C253 N251 1.375 . S
C253 C255 1.350 . S
C253 H262 0.930 . S
N254 C252 1.347 . S
N254 C255 1.373 . S
C255 C253 1.350 . S
C255 N254 1.373 . S
C255 H269 0.931 . S
C256 O259 1.256 . S
C256 O260 1.255 . S
O257 Co240 2.021 . S
O257 C250 1.259 . S
O258 Co242 2.117 . S
O258 C250 1.258 . S
O259 Co242 2.020 . S
O259 C256 1.256 . S
O260 Co240 2.062 . S
O260 C256 1.255 . S
O261 C241 1.259 . S
O261 Co242 2.021 . S
H262 C253 0.930 . S
H263 C252 0.931 . S
O264 Co240 2.117 . S
O264 C241 1.258 . S
O265 Co240 2.020 . S
O265 C267 1.256 . S
O266 Co242 2.062 . S
O266 C267 1.255 . S
C267 O265 1.256 . S
C267 O266 1.255 . S
H268 C247 0.931 . S
H269 C255 0.931 . S
Co270 N275 2.057 . S
Co270 O287 2.021 . S
Co270 O290 2.062 . S
Co270 O294 2.117 . S
Co270 O295 2.020 . S
C271 O291 1.259 . S
C271 O294 1.258 . S
Co272 N281 2.057 . S
Co272 O288 2.117 . S
Co272 O289 2.020 . S
Co272 O291 2.021 . S
Co272 O296 2.062 . S
C273 N275 1.316 . S
C273 N276 1.347 . S
C273 H278 0.931 . S
C274 N275 1.375 . S
C274 C277 1.350 . S
C274 H279 0.930 . S
N275 Co270 2.057 . S
N275 C273 1.316 . S
N275 C274 1.375 . S
N276 C273 1.347 . S
N276 C277 1.373 . S
C277 C274 1.350 . S
C277 N276 1.373 . S
C277 H298 0.931 . S
H278 C273 0.931 . S
H279 C274 0.930 . S
C280 O287 1.259 . S
C280 O288 1.258 . S
N281 Co272 2.057 . S
N281 C282 1.316 . S
N281 C283 1.375 . S
C282 N281 1.316 . S
C282 N284 1.347 . S
C282 H293 0.931 . S
C283 N281 1.375 . S
C283 C285 1.350 . S
C283 H292 0.930 . S
N284 C282 1.347 . S
N284 C285 1.373 . S
C285 C283 1.350 . S
C285 N284 1.373 . S
C285 H299 0.931 . S
C286 O289 1.256 . S
C286 O290 1.255 . S
O287 Co270 2.021 . S
O287 C280 1.259 . S
O288 Co272 2.117 . S
O288 C280 1.258 . S
O289 Co272 2.020 . S
O289 C286 1.256 . S
O290 Co270 2.062 . S
O290 C286 1.255 . S
O291 C271 1.259 . S
O291 Co272 2.021 . S
H292 C283 0.930 . S
H293 C282 0.931 . S
O294 Co270 2.117 . S
O294 C271 1.258 . S
O295 Co270 2.020 . S
O295 C297 1.256 . S
O296 Co272 2.062 . S
O296 C297 1.255 . S
C297 O295 1.256 . S
C297 O296 1.255 . S
H298 C277 0.931 . S
H299 C285 0.931 . S
Co300 N305 2.057 . S
Co300 O317 2.021 . S
Co300 O320 2.062 . S
Co300 O324 2.117 . S
Co300 O325 2.020 . S
C301 O321 1.259 . S
C301 O324 1.258 . S
Co302 N311 2.057 . S
Co302 O318 2.117 . S
Co302 O319 2.020 . S
Co302 O321 2.021 . S
Co302 O326 2.062 . S
C303 N305 1.316 . S
C303 N306 1.347 . S
C303 H308 0.931 . S
C304 N305 1.375 . S
C304 C307 1.350 . S
C304 H309 0.930 . S
N305 Co300 2.057 . S
N305 C303 1.316 . S
N305 C304 1.375 . S
N306 C303 1.347 . S
N306 C307 1.373 . S
C307 C304 1.350 . S
C307 N306 1.373 . S
C307 H328 0.931 . S
H308 C303 0.931 . S
H309 C304 0.930 . S
C310 O317 1.259 . S
C310 O318 1.258 . S
N311 Co302 2.057 . S
N311 C312 1.316 . S
N311 C313 1.375 . S
C312 N311 1.316 . S
C312 N314 1.347 . S
C312 H323 0.931 . S
C313 N311 1.375 . S
C313 C315 1.350 . S
C313 H322 0.930 . S
N314 C312 1.347 . S
N314 C315 1.373 . S
C315 C313 1.350 . S
C315 N314 1.373 . S
C315 H329 0.931 . S
C316 O319 1.256 . S
C316 O320 1.255 . S
O317 Co300 2.021 . S
O317 C310 1.259 . S
O318 Co302 2.117 . S
O318 C310 1.258 . S
O319 Co302 2.020 . S
O319 C316 1.256 . S
O320 Co300 2.062 . S
O320 C316 1.255 . S
O321 C301 1.259 . S
O321 Co302 2.021 . S
H322 C313 0.930 . S
H323 C312 0.931 . S
O324 Co300 2.117 . S
O324 C301 1.258 . S
O325 Co300 2.020 . S
O325 C327 1.256 . S
O326 Co302 2.062 . S
O326 C327 1.255 . S
C327 O325 1.256 . S
C327 O326 1.255 . S
H328 C307 0.931 . S
H329 C315 0.931 . S
Co330 N335 2.057 . S
Co330 O347 2.021 . S
Co330 O350 2.062 . S
Co330 O354 2.117 . S
Co330 O355 2.020 . S
C331 O351 1.259 . S
C331 O354 1.258 . S
Co332 N341 2.057 . S
Co332 O348 2.117 . S
Co332 O349 2.020 . S
Co332 O351 2.021 . S
Co332 O356 2.062 . S
C333 N335 1.316 . S
C333 N336 1.347 . S
C333 H338 0.931 . S
C334 N335 1.375 . S
C334 C337 1.350 . S
C334 H339 0.930 . S
N335 Co330 2.057 . S
N335 C333 1.316 . S
N335 C334 1.375 . S
N336 C333 1.347 . S
N336 C337 1.373 . S
C337 C334 1.350 . S
C337 N336 1.373 . S
C337 H358 0.931 . S
H338 C333 0.931 . S
H339 C334 0.930 . S
C340 O347 1.259 . S
C340 O348 1.258 . S
N341 Co332 2.057 . S
N341 C342 1.316 . S
N341 C343 1.375 . S
C342 N341 1.316 . S
C342 N344 1.347 . S
C342 H353 0.931 . S
C343 N341 1.375 . S
C343 C345 1.350 . S
C343 H352 0.930 . S
N344 C342 1.347 . S
N344 C345 1.373 . S
C345 C343 1.350 . S
C345 N344 1.373 . S
C345 H359 0.931 . S
C346 O349 1.256 . S
C346 O350 1.255 . S
O347 Co330 2.021 . S
O347 C340 1.259 . S
O348 Co332 2.117 . S
O348 C340 1.258 . S
O349 Co332 2.020 . S
O349 C346 1.256 . S
O350 Co330 2.062 . S
O350 C346 1.255 . S
O351 C331 1.259 . S
O351 Co332 2.021 . S
H352 C343 0.930 . S
H353 C342 0.931 . S
O354 Co330 2.117 . S
O354 C331 1.258 . S
O355 Co330 2.020 . S
O355 C357 1.256 . S
O356 Co332 2.062 . S
O356 C357 1.255 . S
C357 O355 1.256 . S
C357 O356 1.255 . S
H358 C337 0.931 . S
H359 C345 0.931 . S
C360 C361 1.349 . S
C360 C362 1.327 . S
C360 H385 0.950 . S
C361 C360 1.349 . S
C361 C377 1.349 . S
C362 C360 1.327 . S
C362 C381 1.429 . S
C362 H386 0.950 . S
C363 C380 1.574 . S
C363 C382 1.368 . S
C363 H387 0.949 . S
H364 C368 0.949 . S
C365 C366 1.349 . S
C365 C367 1.327 . S
C365 H388 0.950 . S
C366 C365 1.349 . S
C366 C378 1.349 . S
C367 C365 1.327 . S
C367 C383 1.429 . S
C367 H389 0.950 . S
C368 H364 0.949 . S
C368 C376 1.574 . S
C368 C384 1.368 . S
H369 C377 0.950 . S
H370 C375 0.950 . S
H371 C376 0.949 . S
H372 C378 0.950 . S
H373 C379 0.950 . S
H374 C380 0.949 . S
C375 H370 0.950 . S
C375 C377 1.327 . S
C375 C381 1.429 . S
C376 C368 1.574 . S
C376 H371 0.949 . S
C376 C382 1.368 . S
C377 C361 1.349 . S
C377 H369 0.950 . S
C377 C375 1.327 . S
C378 C366 1.349 . S
C378 H372 0.950 . S
C378 C379 1.327 . S
C379 H373 0.950 . S
C379 C378 1.327 . S
C379 C383 1.429 . S
C380 C363 1.574 . S
C380 H374 0.949 . S
C380 C384 1.368 . S
C381 C362 1.429 . S
C381 C375 1.429 . S
C381 C382 1.523 1_565 S
C382 C363 1.368 . S
C382 C376 1.368 . S
C382 C381 1.523 1_545 S
C383 C367 1.429 . S
C383 C379 1.429 . S
C383 C384 1.523 . S
C384 C368 1.368 . S
C384 C380 1.368 . S
C384 C383 1.523 . S
H385 C360 0.950 . S
H386 C362 0.950 . S
H387 C363 0.949 . S
H388 C365 0.950 . S
H389 C367 0.950 . S
C390 C391 1.349 . S
C390 C392 1.327 . S
C390 H415 0.950 . S
C391 C390 1.349 . S
C391 C407 1.349 . S
C392 C390 1.327 . S
C392 C411 1.429 . S
C392 H416 0.950 . S
C393 C410 1.574 . S
C393 C412 1.368 . S
C393 H417 0.949 . S
H394 C398 0.949 . S
C395 C396 1.349 . S
C395 C397 1.327 . S
C395 H418 0.950 . S
C396 C395 1.349 . S
C396 C408 1.349 . S
C397 C395 1.327 . S
C397 C413 1.429 1_655 S
C397 H419 0.950 . S
C398 H394 0.949 . S
C398 C406 1.574 . S
C398 C414 1.368 . S
H399 C407 0.950 . S
H400 C405 0.950 . S
H401 C406 0.949 . S
H402 C408 0.950 . S
H403 C409 0.949 . S
H404 C410 0.949 . S
C405 H400 0.950 . S
C405 C407 1.327 . S
C405 C411 1.429 . S
C406 C398 1.574 . S
C406 H401 0.949 . S
C406 C412 1.368 . S
C407 C391 1.349 . S
C407 H399 0.950 . S
C407 C405 1.327 . S
C408 C396 1.349 . S
C408 H402 0.950 . S
C408 C409 1.329 1_655 S
C409 H403 0.949 . S
C409 C408 1.329 1_455 S
C409 C413 1.428 . S
C410 C393 1.574 . S
C410 H404 0.949 . S
C410 C414 1.368 . S
C411 C392 1.429 . S
C411 C405 1.429 . S
C411 C412 1.523 . S
C412 C393 1.368 . S
C412 C406 1.368 . S
C412 C411 1.523 . S
C413 C397 1.429 1_455 S
C413 C409 1.428 . S
C413 C414 1.523 . S
C414 C398 1.368 . S
C414 C410 1.368 . S
C414 C413 1.523 . S
H415 C390 0.950 . S
H416 C392 0.950 . S
H417 C393 0.949 . S
H418 C395 0.950 . S
H419 C397 0.950 . S
C420 C421 1.349 . S
C420 C422 1.327 . S
C420 H445 0.950 . S
C421 C420 1.349 . S
C421 C437 1.349 . S
C422 C420 1.327 . S
C422 C441 1.429 . S
C422 H446 0.950 . S
C423 C440 1.574 . S
C423 C442 1.368 . S
C423 H447 0.949 . S
H424 C428 0.949 1_455 S
C425 C426 1.349 . S
C425 C427 1.327 . S
C425 H448 0.950 . S
C426 C425 1.349 . S
C426 C438 1.349 . S
C427 C425 1.327 . S
C427 C443 1.429 . S
C427 H449 0.950 . S
C428 H424 0.949 1_655 S
C428 C436 1.574 . S
C428 C444 1.368 . S
H429 C437 0.950 . S
H430 C435 0.950 . S
H431 C436 0.949 . S
H432 C438 0.950 . S
H433 C439 0.950 . S
H434 C440 0.949 . S
C435 H430 0.950 . S
C435 C437 1.327 . S
C435 C441 1.429 . S
C436 C428 1.574 . S
C436 H431 0.949 . S
C436 C442 1.368 . S
C437 C421 1.349 . S
C437 H429 0.950 . S
C437 C435 1.327 . S
C438 C426 1.349 . S
C438 H432 0.950 . S
C438 C439 1.327 . S
C439 H433 0.950 . S
C439 C438 1.327 . S
C439 C443 1.429 . S
C440 C423 1.574 . S
C440 H434 0.949 . S
C440 C444 1.368 . S
C441 C422 1.429 . S
C441 C435 1.429 . S
C441 C442 1.523 . S
C442 C423 1.368 . S
C442 C436 1.368 . S
C442 C441 1.523 . S
C443 C427 1.429 . S
C443 C439 1.429 . S
C443 C444 1.523 1_455 S
C444 C428 1.368 . S
C444 C440 1.368 . S
C444 C443 1.523 1_655 S
H445 C420 0.950 . S
H446 C422 0.950 . S
H447 C423 0.949 . S
H448 C425 0.950 . S
H449 C427 0.950 . S
C450 C451 1.349 . S
C450 C452 1.327 . S
C450 H475 0.950 . S
C451 C450 1.349 . S
C451 C467 1.349 . S
C452 C450 1.327 . S
C452 C471 1.429 . S
C452 H476 0.950 . S
C453 C470 1.574 . S
C453 C472 1.368 . S
C453 H477 0.949 . S
H454 C458 0.949 . S
C455 C456 1.349 . S
C455 C457 1.327 1_545 S
C455 H478 0.950 . S
C456 C455 1.349 . S
C456 C468 1.349 . S
C457 C455 1.327 1_565 S
C457 C473 1.429 . S
C457 H479 0.950 . S
C458 H454 0.949 . S
C458 C466 1.574 . S
C458 C474 1.368 . S
H459 C467 0.950 . S
H460 C465 0.950 . S
H461 C466 0.949 . S
H462 C468 0.950 . S
H463 C469 0.950 . S
H464 C470 0.949 . S
C465 H460 0.950 . S
C465 C467 1.327 . S
C465 C471 1.429 . S
C466 C458 1.574 . S
C466 H461 0.949 . S
C466 C472 1.368 . S
C467 C451 1.349 . S
C467 H459 0.950 . S
C467 C465 1.327 . S
C468 C456 1.349 . S
C468 H462 0.950 . S
C468 C469 1.327 1_545 S
C469 H463 0.950 . S
C469 C468 1.327 1_565 S
C469 C473 1.429 . S
C470 C453 1.574 . S
C470 H464 0.949 . S
C470 C474 1.368 . S
C471 C452 1.429 . S
C471 C465 1.429 . S
C471 C472 1.523 . S
C472 C453 1.368 . S
C472 C466 1.368 . S
C472 C471 1.523 . S
C473 C457 1.429 . S
C473 C469 1.429 . S
C473 C474 1.523 . S
C474 C458 1.368 . S
C474 C470 1.368 . S
C474 C473 1.523 . S
H475 C450 0.950 . S
H476 C452 0.950 . S
H477 C453 0.949 . S
H478 C455 0.950 . S
H479 C457 0.950 . S
C480 C481 1.349 . S
C480 C482 1.327 . S
C480 H505 0.950 . S
C481 C480 1.349 . S
C481 C497 1.349 . S
C482 C480 1.327 . S
C482 C501 1.429 . S
C482 H506 0.950 . S
C483 C500 1.574 . S
C483 C502 1.368 . S
C483 H507 0.949 . S
H484 C488 0.949 . S
C485 C486 1.349 . S
C485 C487 1.327 . S
C485 H508 0.950 . S
C486 C485 1.349 . S
C486 C498 1.349 . S
C487 C485 1.327 . S
C487 C503 1.429 . S
C487 H509 0.950 . S
C488 H484 0.949 . S
C488 C496 1.574 . S
C488 C504 1.368 . S
H489 C497 0.950 . S
H490 C495 0.950 . S
H491 C496 0.949 . S
H492 C498 0.950 . S
H493 C499 0.950 . S
H494 C500 0.949 . S
C495 H490 0.950 . S
C495 C497 1.327 . S
C495 C501 1.429 . S
C496 C488 1.574 . S
C496 H491 0.949 . S
C496 C502 1.368 . S
C497 C481 1.349 . S
C497 H489 0.950 . S
C497 C495 1.327 . S
C498 C486 1.349 . S
C498 H492 0.950 . S
C498 C499 1.327 . S
C499 H493 0.950 . S
C499 C498 1.327 . S
C499 C503 1.429 . S
C500 C483 1.574 . S
C500 H494 0.949 . S
C500 C504 1.368 . S
C501 C482 1.429 . S
C501 C495 1.429 . S
C501 C502 1.523 . S
C502 C483 1.368 . S
C502 C496 1.368 . S
C502 C501 1.523 . S
C503 C487 1.429 . S
C503 C499 1.429 . S
C503 C504 1.523 . S
C504 C488 1.368 . S
C504 C500 1.368 . S
C504 C503 1.523 . S
H505 C480 0.950 . S
H506 C482 0.950 . S
H507 C483 0.949 . S
H508 C485 0.950 . S
H509 C487 0.950 . S
C510 C511 1.349 . S
C510 C512 1.327 1_655 S
C510 H535 0.950 . S
C511 C510 1.349 . S
C511 C527 1.349 . S
C512 C510 1.327 1_455 S
C512 C531 1.429 . S
C512 H536 0.950 . S
C513 C530 1.574 . S
C513 C532 1.368 . S
C513 H537 0.949 . S
H514 C518 0.949 . S
C515 C516 1.349 . S
C515 C517 1.327 . S
C515 H538 0.950 . S
C516 C515 1.349 . S
C516 C528 1.349 . S
C517 C515 1.327 . S
C517 C533 1.429 1_545 S
C517 H539 0.950 . S
C518 H514 0.949 . S
C518 C526 1.574 . S
C518 C534 1.368 . S
H519 C527 0.950 . S
H520 C525 0.950 . S
H521 C526 0.949 . S
H522 C528 0.950 . S
H523 C529 0.950 . S
H524 C530 0.949 . S
C525 H520 0.950 . S
C525 C527 1.327 1_455 S
C525 C531 1.429 . S
C526 C518 1.574 . S
C526 H521 0.949 . S
C526 C532 1.368 . S
C527 C511 1.349 . S
C527 H519 0.950 . S
C527 C525 1.327 1_655 S
C528 C516 1.349 . S
C528 H522 0.950 . S
C528 C529 1.327 1_545 S
C529 H523 0.950 . S
C529 C528 1.327 1_565 S
C529 C533 1.429 . S
C530 C513 1.574 . S
C530 H524 0.949 . S
C530 C534 1.368 . S
C531 C512 1.429 . S
C531 C525 1.429 . S
C531 C532 1.523 . S
C532 C513 1.368 . S
C532 C526 1.368 . S
C532 C531 1.523 . S
C533 C517 1.429 1_565 S
C533 C529 1.429 . S
C533 C534 1.523 . S
C534 C518 1.368 . S
C534 C530 1.368 . S
C534 C533 1.523 . S
H535 C510 0.950 . S
H536 C512 0.950 . S
H537 C513 0.949 . S
H538 C515 0.950 . S
H539 C517 0.950 . S
C540 C541 1.349 . S
C540 C542 1.327 1_455 S
C540 H565 0.950 . S
C541 C540 1.349 . S
C541 C557 1.349 . S
C542 C540 1.327 1_655 S
C542 C561 1.429 . S
C542 H566 0.950 . S
C543 C560 1.574 . S
C543 C562 1.368 . S
C543 H567 0.949 . S
H544 C548 0.949 . S
C545 C546 1.349 . S
C545 C547 1.327 . S
C545 H568 0.950 . S
C546 C545 1.349 . S
C546 C558 1.349 . S
C547 C545 1.327 . S
C547 C563 1.429 . S
C547 H569 0.950 . S
C548 H544 0.949 . S
C548 C556 1.574 . S
C548 C564 1.368 . S
H549 C557 0.950 . S
H550 C555 0.950 . S
H551 C556 0.949 . S
H552 C558 0.950 . S
H553 C559 0.950 . S
H554 C560 0.949 . S
C555 H550 0.950 . S
C555 C557 1.327 1_655 S
C555 C561 1.429 . S
C556 C548 1.574 . S
C556 H551 0.949 . S
C556 C562 1.368 . S
C557 C541 1.349 . S
C557 H549 0.950 . S
C557 C555 1.327 1_455 S
C558 C546 1.349 . S
C558 H552 0.950 . S
C558 C559 1.327 . S
C559 H553 0.950 . S
C559 C558 1.327 . S
C559 C563 1.429 . S
C560 C543 1.574 . S
C560 H554 0.949 . S
C560 C564 1.368 . S
C561 C542 1.429 . S
C561 C555 1.429 . S
C561 C562 1.523 . S
C562 C543 1.368 . S
C562 C556 1.368 . S
C562 C561 1.523 . S
C563 C547 1.429 . S
C563 C559 1.429 . S
C563 C564 1.523 . S
C564 C548 1.368 . S
C564 C560 1.368 . S
C564 C563 1.523 . S
H565 C540 0.950 . S
H566 C542 0.950 . S
H567 C543 0.949 . S
H568 C545 0.950 . S
H569 C547 0.950 . S
C570 C571 1.349 . S
C570 C572 1.327 . S
C570 H595 0.950 . S
C571 C570 1.349 . S
C571 C587 1.349 . S
C572 C570 1.327 . S
C572 C591 1.429 1_655 S
C572 H596 0.950 . S
C573 C590 1.574 . S
C573 C592 1.368 . S
C573 H597 0.949 . S
H574 C578 0.949 . S
C575 C576 1.349 . S
C575 C577 1.327 1_545 S
C575 H598 0.950 . S
C576 C575 1.349 . S
C576 C588 1.349 . S
C577 C575 1.327 1_565 S
C577 C593 1.429 . S
C577 H599 0.950 . S
C578 H574 0.949 . S
C578 C586 1.574 . S
C578 C594 1.368 . S
H579 C587 0.950 . S
H580 C585 0.946 1_455 S
H581 C586 0.949 . S
H582 C588 0.950 . S
H583 C589 0.950 . S
H584 C590 0.949 . S
C585 H580 0.946 1_655 S
C585 C587 1.330 . S
C585 C591 1.430 1_655 S
C586 C578 1.574 . S
C586 H581 0.949 . S
C586 C592 1.368 . S
C587 C571 1.349 . S
C587 H579 0.950 . S
C587 C585 1.330 . S
C588 C576 1.349 . S
C588 H582 0.950 . S
C588 C589 1.327 1_545 S
C589 H583 0.950 . S
C589 C588 1.327 1_565 S
C589 C593 1.429 . S
C590 C573 1.574 . S
C590 H584 0.949 . S
C590 C594 1.368 . S
C591 C572 1.429 1_455 S
C591 C585 1.430 1_455 S
C591 C592 1.523 . S
C592 C573 1.368 . S
C592 C586 1.368 . S
C592 C591 1.523 . S
C593 C577 1.429 . S
C593 C589 1.429 . S
C593 C594 1.523 . S
C594 C578 1.368 . S
C594 C590 1.368 . S
C594 C593 1.523 . S
H595 C570 0.950 . S
H596 C572 0.950 . S
H597 C573 0.949 . S
H598 C575 0.950 . S
H599 C577 0.950 . S
C600 C601 1.349 . S
C600 C602 1.327 . S
C600 H625 0.950 . S
C601 C600 1.349 . S
C601 C617 1.349 . S
C602 C600 1.327 . S
C602 C621 1.429 . S
C602 H626 0.950 . S
C603 C620 1.574 . S
C603 C622 1.368 . S
C603 H627 0.949 . S
H604 C608 0.949 . S
C605 C606 1.349 . S
C605 C607 1.327 . S
C605 H628 0.950 . S
C606 C605 1.349 . S
C606 C618 1.349 . S
C607 C605 1.327 . S
C607 C623 1.429 1_565 S
C607 H629 0.950 . S
C608 H604 0.949 . S
C608 C616 1.574 . S
C608 C624 1.368 . S
H609 C617 0.950 . S
H610 C615 0.950 . S
H611 C616 0.949 . S
H612 C618 0.950 . S
H613 C619 0.950 . S
H614 C620 0.949 . S
C615 H610 0.950 . S
C615 C617 1.327 . S
C615 C621 1.429 . S
C616 C608 1.574 . S
C616 H611 0.949 . S
C616 C622 1.368 . S
C617 C601 1.349 . S
C617 H609 0.950 . S
C617 C615 1.327 . S
C618 C606 1.349 . S
C618 H612 0.950 . S
C618 C619 1.327 1_565 S
C619 H613 0.950 . S
C619 C618 1.327 1_545 S
C619 C623 1.429 . S
C620 C603 1.574 . S
C620 H614 0.949 . S
C620 C624 1.368 . S
C621 C602 1.429 . S
C621 C615 1.429 . S
C621 C622 1.523 . S
C622 C603 1.368 . S
C622 C616 1.368 . S
C622 C621 1.523 . S
C623 C607 1.429 1_545 S
C623 C619 1.429 . S
C623 C624 1.523 . S
C624 C608 1.368 . S
C624 C620 1.368 . S
C624 C623 1.523 . S
H625 C600 0.950 . S
H626 C602 0.950 . S
H627 C603 0.949 . S
H628 C605 0.950 . S
H629 C607 0.950 . S
C630 C631 1.349 . S
C630 C632 1.327 . S
C630 H655 0.950 . S
C631 C630 1.349 . S
C631 C647 1.349 . S
C632 C630 1.327 . S
C632 C651 1.429 . S
C632 H656 0.950 . S
C633 C650 1.574 . S
C633 C652 1.368 . S
C633 H657 0.949 . S
H634 C638 0.949 . S
C635 C636 1.335 1_455 S
C635 C637 1.358 . S
C635 H658 0.933 1_455 S
C636 C635 1.335 1_655 S
C636 C648 1.349 . S
C637 C635 1.358 . S
C637 C653 1.429 . S
C637 H659 0.950 . S
C638 H634 0.949 . S
C638 C646 1.574 . S
C638 C654 1.368 . S
H639 C647 0.950 . S
H640 C645 0.950 . S
H641 C646 0.949 . S
H642 C648 0.950 . S
H643 C649 0.950 . S
H644 C650 0.949 . S
C645 H640 0.950 . S
C645 C647 1.327 . S
C645 C651 1.429 . S
C646 C638 1.574 . S
C646 H641 0.949 . S
C646 C652 1.368 . S
C647 C631 1.349 . S
C647 H639 0.950 . S
C647 C645 1.327 . S
C648 C636 1.349 . S
C648 H642 0.950 . S
C648 C649 1.327 1_655 S
C649 H643 0.950 . S
C649 C648 1.327 1_455 S
C649 C653 1.429 . S
C650 C633 1.574 . S
C650 H644 0.949 . S
C650 C654 1.368 . S
C651 C632 1.429 . S
C651 C645 1.429 . S
C651 C652 1.523 . S
C652 C633 1.368 . S
C652 C646 1.368 . S
C652 C651 1.523 . S
C653 C637 1.429 . S
C653 C649 1.429 . S
C653 C654 1.523 . S
C654 C638 1.368 . S
C654 C650 1.368 . S
C654 C653 1.523 . S
H655 C630 0.950 . S
H656 C632 0.950 . S
H657 C633 0.949 . S
H658 C635 0.933 1_655 S
H659 C637 0.950 . S
C660 C661 1.349 . S
C660 C662 1.327 1_455 S
C660 H685 0.950 . S
C661 C660 1.349 . S
C661 C677 1.349 . S
C662 C660 1.327 1_655 S
C662 C681 1.429 . S
C662 H686 0.950 . S
C663 C680 1.574 . S
C663 C682 1.368 . S
C663 H687 0.949 . S
H664 C668 0.949 . S
C665 C666 1.349 . S
C665 C667 1.327 1_565 S
C665 H688 0.950 . S
C666 C665 1.349 . S
C666 C678 1.349 . S
C667 C665 1.327 1_545 S
C667 C683 1.429 . S
C667 H689 0.950 . S
C668 H664 0.949 . S
C668 C676 1.574 . S
C668 C684 1.368 . S
H669 C677 0.950 . S
H670 C675 0.950 . S
H671 C676 0.949 . S
H672 C678 0.950 . S
H673 C679 0.950 . S
H674 C680 0.949 . S
C675 H670 0.950 . S
C675 C677 1.327 . S
C675 C681 1.429 1_455 S
C676 C668 1.574 . S
C676 H671 0.949 . S
C676 C682 1.368 . S
C677 C661 1.349 . S
C677 H669 0.950 . S
C677 C675 1.327 . S
C678 C666 1.349 . S
C678 H672 0.950 . S
C678 C679 1.327 1_565 S
C679 H673 0.950 . S
C679 C678 1.327 1_545 S
C679 C683 1.429 . S
C680 C663 1.574 . S
C680 H674 0.949 . S
C680 C684 1.368 . S
C681 C662 1.429 . S
C681 C675 1.429 1_655 S
C681 C682 1.523 . S
C682 C663 1.368 . S
C682 C676 1.368 . S
C682 C681 1.523 . S
C683 C667 1.429 . S
C683 C679 1.429 . S
C683 C684 1.523 . S
C684 C668 1.368 . S
C684 C680 1.368 . S
C684 C683 1.523 . S
H685 C660 0.950 . S
H686 C662 0.950 . S
H687 C663 0.949 . S
H688 C665 0.950 . S
H689 C667 0.950 . S
C690 C691 1.349 . S
C690 C692 1.327 . S
C690 H715 0.950 . S
C691 C690 1.349 . S
C691 C707 1.349 . S
C692 C690 1.327 . S
C692 C711 1.429 . S
C692 H716 0.950 . S
C693 C710 1.574 . S
C693 C712 1.368 . S
C693 H717 0.949 . S
H694 C698 0.949 . S
C695 C696 1.349 . S
C695 C697 1.327 1_545 S
C695 H718 0.950 . S
C696 C695 1.349 . S
C696 C708 1.349 . S
C697 C695 1.327 1_565 S
C697 C713 1.429 . S
C697 H719 0.950 . S
C698 H694 0.949 . S
C698 C706 1.574 . S
C698 C714 1.368 . S
H699 C707 0.950 . S
H700 C705 0.950 . S
H701 C706 0.949 . S
H702 C708 0.950 . S
H703 C709 0.950 . S
H704 C710 0.949 . S
C705 H700 0.950 . S
C705 C707 1.327 . S
C705 C711 1.429 . S
C706 C698 1.574 . S
C706 H701 0.949 . S
C706 C712 1.368 . S
C707 C691 1.349 . S
C707 H699 0.950 . S
C707 C705 1.327 . S
C708 C696 1.349 . S
C708 H702 0.950 . S
C708 C709 1.327 . S
C709 H703 0.950 . S
C709 C708 1.327 . S
C709 C713 1.429 1_545 S
C710 C693 1.574 . S
C710 H704 0.949 . S
C710 C714 1.368 . S
C711 C692 1.429 . S
C711 C705 1.429 . S
C711 C712 1.523 . S
C712 C693 1.368 . S
C712 C706 1.368 . S
C712 C711 1.523 . S
C713 C697 1.429 . S
C713 C709 1.429 1_565 S
C713 C714 1.523 . S
C714 C698 1.368 . S
C714 C710 1.368 . S
C714 C713 1.523 . S
H715 C690 0.950 . S
H716 C692 0.950 . S
H717 C693 0.949 . S
H718 C695 0.950 . S
H719 C697 0.950 . S
C720 C721 1.349 . S
C720 C722 1.327 . S
C720 H745 0.950 . S
C721 C720 1.349 . S
C721 C737 1.349 . S
C722 C720 1.327 . S
C722 C741 1.429 . S
C722 H746 0.950 . S
C723 C740 1.574 . S
C723 C742 1.368 . S
C723 H747 0.949 . S
H724 C728 0.949 . S
C725 C726 1.349 . S
C725 C727 1.327 . S
C725 H748 0.950 . S
C726 C725 1.349 . S
C726 C738 1.349 . S
C727 C725 1.327 . S
C727 C743 1.429 . S
C727 H749 0.950 . S
C728 H724 0.949 . S
C728 C736 1.574 . S
C728 C744 1.368 . S
H729 C737 0.950 . S
H730 C735 0.950 . S
H731 C736 0.949 . S
H732 C738 0.950 . S
H733 C739 0.950 . S
H734 C740 0.949 . S
C735 H730 0.950 . S
C735 C737 1.327 . S
C735 C741 1.429 . S
C736 C728 1.574 . S
C736 H731 0.949 . S
C736 C742 1.368 . S
C737 C721 1.349 . S
C737 H729 0.950 . S
C737 C735 1.327 . S
C738 C726 1.349 . S
C738 H732 0.950 . S
C738 C739 1.327 . S
C739 H733 0.950 . S
C739 C738 1.327 . S
C739 C743 1.429 . S
C740 C723 1.574 . S
C740 H734 0.949 . S
C740 C744 1.368 . S
C741 C722 1.429 . S
C741 C735 1.429 . S
C741 C742 1.523 . S
C742 C723 1.368 . S
C742 C736 1.368 . S
C742 C741 1.523 . S
C743 C727 1.429 . S
C743 C739 1.429 . S
C743 C744 1.523 . S
C744 C728 1.368 . S
C744 C740 1.368 . S
C744 C743 1.523 . S
H745 C720 0.950 . S
H746 C722 0.950 . S
H747 C723 0.949 . S
H748 C725 0.950 . S
H749 C727 0.950 . S
C750 C751 1.349 . S
C750 C752 1.327 . S
C750 H775 0.950 . S
C751 C750 1.349 . S
C751 C767 1.349 . S
C752 C750 1.327 . S
C752 C771 1.429 . S
C752 H776 0.950 . S
C753 C770 1.574 . S
C753 C772 1.368 . S
C753 H777 0.949 . S
H754 C758 0.949 . S
C755 C756 1.349 . S
C755 C757 1.327 . S
C755 H778 0.950 . S
C756 C755 1.349 . S
C756 C768 1.349 . S
C757 C755 1.327 . S
C757 C773 1.429 . S
C757 H779 0.950 . S
C758 H754 0.949 . S
C758 C766 1.574 . S
C758 C774 1.368 . S
H759 C767 0.950 . S
H760 C765 0.950 . S
H761 C766 0.949 . S
H762 C768 0.950 . S
H763 C769 0.950 . S
H764 C770 0.949 . S
C765 H760 0.950 . S
C765 C767 1.327 . S
C765 C771 1.429 . S
C766 C758 1.574 . S
C766 H761 0.949 . S
C766 C772 1.368 . S
C767 C751 1.349 . S
C767 H759 0.950 . S
C767 C765 1.327 . S
C768 C756 1.349 . S
C768 H762 0.950 . S
C768 C769 1.327 . S
C769 H763 0.950 . S
C769 C768 1.327 . S
C769 C773 1.429 . S
C770 C753 1.574 . S
C770 H764 0.949 . S
C770 C774 1.368 . S
C771 C752 1.429 . S
C771 C765 1.429 . S
C771 C772 1.523 . S
C772 C753 1.368 . S
C772 C766 1.368 . S
C772 C771 1.523 . S
C773 C757 1.429 . S
C773 C769 1.429 . S
C773 C774 1.523 . S
C774 C758 1.368 . S
C774 C770 1.368 . S
C774 C773 1.523 . S
H775 C750 0.950 . S
H776 C752 0.950 . S
H777 C753 0.949 . S
H778 C755 0.950 . S
H779 C757 0.950 . S
C780 C781 1.349 . S
C780 C782 1.327 . S
C780 H805 0.950 . S
C781 C780 1.349 . S
C781 C797 1.349 . S
C782 C780 1.327 . S
C782 C801 1.429 . S
C782 H806 0.950 . S
C783 C800 1.574 . S
C783 C802 1.368 . S
C783 H807 0.949 . S
H784 C788 0.949 . S
C785 C786 1.349 . S
C785 C787 1.327 . S
C785 H808 0.950 . S
C786 C785 1.349 . S
C786 C798 1.349 . S
C787 C785 1.327 . S
C787 C803 1.429 . S
C787 H809 0.950 . S
C788 H784 0.949 . S
C788 C796 1.574 . S
C788 C804 1.368 . S
H789 C797 0.950 . S
H790 C795 0.950 . S
H791 C796 0.949 . S
H792 C798 0.950 . S
H793 C799 0.950 . S
H794 C800 0.949 . S
C795 H790 0.950 . S
C795 C797 1.327 . S
C795 C801 1.429 . S
C796 C788 1.574 . S
C796 H791 0.949 . S
C796 C802 1.368 . S
C797 C781 1.349 . S
C797 H789 0.950 . S
C797 C795 1.327 . S
C798 C786 1.349 . S
C798 H792 0.950 . S
C798 C799 1.327 . S
C799 H793 0.950 . S
C799 C798 1.327 . S
C799 C803 1.429 . S
C800 C783 1.574 . S
C800 H794 0.949 . S
C800 C804 1.368 . S
C801 C782 1.429 . S
C801 C795 1.429 . S
C801 C802 1.523 . S
C802 C783 1.368 . S
C802 C796 1.368 . S
C802 C801 1.523 . S
C803 C787 1.429 . S
C803 C799 1.429 . S
C803 C804 1.523 . S
C804 C788 1.368 . S
C804 C800 1.368 . S
C804 C803 1.523 . S
H805 C780 0.950 . S
H806 C782 0.950 . S
H807 C783 0.949 . S
H808 C785 0.950 . S
H809 C787 0.950 . S
C810 C811 1.349 . S
C810 C812 1.327 . S
C810 H835 0.950 . S
C811 C810 1.349 . S
C811 C827 1.349 . S
C812 C810 1.327 . S
C812 C831 1.429 . S
C812 H836 0.950 . S
C813 C830 1.574 . S
C813 C832 1.368 . S
C813 H837 0.949 . S
H814 C818 0.949 . S
C815 C816 1.349 . S
C815 C817 1.327 . S
C815 H838 0.950 . S
C816 C815 1.349 . S
C816 C828 1.349 . S
C817 C815 1.327 . S
C817 C833 1.429 . S
C817 H839 0.950 . S
C818 H814 0.949 . S
C818 C826 1.574 . S
C818 C834 1.368 . S
H819 C827 0.950 . S
H820 C825 0.950 . S
H821 C826 0.949 . S
H822 C828 0.950 . S
H823 C829 0.950 . S
H824 C830 0.949 . S
C825 H820 0.950 . S
C825 C827 1.327 . S
C825 C831 1.429 . S
C826 C818 1.574 . S
C826 H821 0.949 . S
C826 C832 1.368 . S
C827 C811 1.349 . S
C827 H819 0.950 . S
C827 C825 1.327 . S
C828 C816 1.349 . S
C828 H822 0.950 . S
C828 C829 1.327 . S
C829 H823 0.950 . S
C829 C828 1.327 . S
C829 C833 1.429 . S
C830 C813 1.574 . S
C830 H824 0.949 . S
C830 C834 1.368 . S
C831 C812 1.429 . S
C831 C825 1.429 . S
C831 C832 1.523 . S
C832 C813 1.368 . S
C832 C826 1.368 . S
C832 C831 1.523 . S
C833 C817 1.429 . S
C833 C829 1.429 . S
C833 C834 1.523 . S
C834 C818 1.368 . S
C834 C830 1.368 . S
C834 C833 1.523 . S
H835 C810 0.950 . S
H836 C812 0.950 . S
H837 C813 0.949 . S
H838 C815 0.950 . S
H839 C817 0.950 . S
C840 C841 1.349 . S
C840 C842 1.327 . S
C840 H865 0.950 . S
C841 C840 1.349 . S
C841 C857 1.349 . S
C842 C840 1.327 . S
C842 C861 1.429 . S
C842 H866 0.950 . S
C843 C860 1.574 . S
C843 C862 1.368 . S
C843 H867 0.949 . S
H844 C848 0.949 . S
C845 C846 1.349 . S
C845 C847 1.327 . S
C845 H868 0.950 . S
C846 C845 1.349 . S
C846 C858 1.349 . S
C847 C845 1.327 . S
C847 C863 1.429 . S
C847 H869 0.950 . S
C848 H844 0.949 . S
C848 C856 1.574 . S
C848 C864 1.368 . S
H849 C857 0.950 . S
H850 C855 0.950 . S
H851 C856 0.949 . S
H852 C858 0.950 . S
H853 C859 0.950 . S
H854 C860 0.949 . S
C855 H850 0.950 . S
C855 C857 1.327 . S
C855 C861 1.429 . S
C856 C848 1.574 . S
C856 H851 0.949 . S
C856 C862 1.368 . S
C857 C841 1.349 . S
C857 H849 0.950 . S
C857 C855 1.327 . S
C858 C846 1.349 . S
C858 H852 0.950 . S
C858 C859 1.327 . S
C859 H853 0.950 . S
C859 C858 1.327 . S
C859 C863 1.429 . S
C860 C843 1.574 . S
C860 H854 0.949 . S
C860 C864 1.368 . S
C861 C842 1.429 . S
C861 C855 1.429 . S
C861 C862 1.523 . S
C862 C843 1.368 . S
C862 C856 1.368 . S
C862 C861 1.523 . S
C863 C847 1.429 . S
C863 C859 1.429 . S
C863 C864 1.523 . S
C864 C848 1.368 . S
C864 C860 1.368 . S
C864 C863 1.523 . S
H865 C840 0.950 . S
H866 C842 0.950 . S
H867 C843 0.949 . S
H868 C845 0.950 . S
H869 C847 0.950 . S
C870 C871 1.349 . S
C870 C872 1.327 . S
C870 H895 0.950 . S
C871 C870 1.349 . S
C871 C887 1.349 . S
C872 C870 1.327 . S
C872 C891 1.429 . S
C872 H896 0.950 . S
C873 C890 1.574 . S
C873 C892 1.368 . S
C873 H897 0.949 . S
H874 C878 0.949 . S
C875 C876 1.349 . S
C875 C877 1.327 . S
C875 H898 0.950 . S
C876 C875 1.349 . S
C876 C888 1.349 . S
C877 C875 1.327 . S
C877 C893 1.429 . S
C877 H899 0.950 . S
C878 H874 0.949 . S
C878 C886 1.574 . S
C878 C894 1.368 . S
H879 C887 0.950 . S
H880 C885 0.950 . S
H881 C886 0.949 . S
H882 C888 0.950 . S
H883 C889 0.950 . S
H884 C890 0.949 . S
C885 H880 0.950 . S
C885 C887 1.327 . S
C885 C891 1.429 . S
C886 C878 1.574 . S
C886 H881 0.949 . S
C886 C892 1.368 . S
C887 C871 1.349 . S
C887 H879 0.950 . S
C887 C885 1.327 . S
C888 C876 1.349 . S
C888 H882 0.950 . S
C888 C889 1.327 . S
C889 H883 0.950 . S
C889 C888 1.327 . S
C889 C893 1.429 . S
C890 C873 1.574 . S
C890 H884 0.949 . S
C890 C894 1.368 . S
C891 C872 1.429 . S
C891 C885 1.429 . S
C891 C892 1.523 . S
C892 C873 1.368 . S
C892 C886 1.368 . S
C892 C891 1.523 . S
C893 C877 1.429 . S
C893 C889 1.429 . S
C893 C894 1.523 . S
C894 C878 1.368 . S
C894 C890 1.368 . S
C894 C893 1.523 . S
H895 C870 0.950 . S
H896 C872 0.950 . S
H897 C873 0.949 . S
H898 C875 0.950 . S
H899 C877 0.950 . S
C900 C901 1.349 . S
C900 C902 1.327 . S
C900 H925 0.950 . S
C901 C900 1.349 . S
C901 C917 1.349 . S
C902 C900 1.327 . S
C902 C921 1.429 . S
C902 H926 0.950 . S
C903 C920 1.574 . S
C903 C922 1.368 . S
C903 H927 0.949 . S
H904 C908 0.949 . S
C905 C906 1.349 . S
C905 C907 1.327 . S
C905 H928 0.950 . S
C906 C905 1.349 . S
C906 C918 1.349 . S
C907 C905 1.327 . S
C907 C923 1.429 . S
C907 H929 0.950 . S
C908 H904 0.949 . S
C908 C916 1.574 . S
C908 C924 1.368 . S
H909 C917 0.950 . S
H910 C915 0.950 . S
H911 C916 0.949 . S
H912 C918 0.950 . S
H913 C919 0.950 . S
H914 C920 0.949 . S
C915 H910 0.950 . S
C915 C917 1.327 . S
C915 C921 1.429 . S
C916 C908 1.574 . S
C916 H911 0.949 . S
C916 C922 1.368 . S
C917 C901 1.349 . S
C917 H909 0.950 . S
C917 C915 1.327 . S
C918 C906 1.349 . S
C918 H912 0.950 . S
C918 C919 1.327 . S
C919 H913 0.950 . S
C919 C918 1.327 . S
C919 C923 1.429 . S
C920 C903 1.574 . S
C920 H914 0.949 . S
C920 C924 1.368 . S
C921 C902 1.429 . S
C921 C915 1.429 . S
C921 C922 1.523 . S
C922 C903 1.368 . S
C922 C916 1.368 . S
C922 C921 1.523 . S
C923 C907 1.429 . S
C923 C919 1.429 . S
C923 C924 1.523 . S
C924 C908 1.368 . S
C924 C920 1.368 . S
C924 C923 1.523 . S
H925 C900 0.950 . S
H926 C902 0.950 . S
H927 C903 0.949 . S
H928 C905 0.950 . S
H929 C907 0.950 . S
C930 C931 1.349 . S
C930 C932 1.327 . S
C930 H955 0.950 . S
C931 C930 1.349 . S
C931 C947 1.349 . S
C932 C930 1.327 . S
C932 C951 1.429 . S
C932 H956 0.950 . S
C933 C950 1.574 . S
C933 C952 1.368 . S
C933 H957 0.949 . S
H934 C938 0.949 . S
C935 C936 1.349 . S
C935 C937 1.327 . S
C935 H958 0.950 . S
C936 C935 1.349 . S
C936 C948 1.349 . S
C937 C935 1.327 . S
C937 C953 1.429 . S
C937 H959 0.950 . S
C938 H934 0.949 . S
C938 C946 1.574 . S
C938 C954 1.368 . S
H939 C947 0.950 . S
H940 C945 0.950 . S
H941 C946 0.949 . S
H942 C948 0.950 . S
H943 C949 0.950 . S
H944 C950 0.949 . S
C945 H940 0.950 . S
C945 C947 1.327 . S
C945 C951 1.429 . S
C946 C938 1.574 . S
C946 H941 0.949 . S
C946 C952 1.368 . S
C947 C931 1.349 . S
C947 H939 0.950 . S
C947 C945 1.327 . S
C948 C936 1.349 . S
C948 H942 0.950 . S
C948 C949 1.327 . S
C949 H943 0.950 . S
C949 C948 1.327 . S
C949 C953 1.429 . S
C950 C933 1.574 . S
C950 H944 0.949 . S
C950 C954 1.368 . S
C951 C932 1.429 . S
C951 C945 1.429 . S
C951 C952 1.523 . S
C952 C933 1.368 . S
C952 C946 1.368 . S
C952 C951 1.523 . S
C953 C937 1.429 . S
C953 C949 1.429 . S
C953 C954 1.523 . S
C954 C938 1.368 . S
C954 C950 1.368 . S
C954 C953 1.523 . S
H955 C930 0.950 . S
H956 C932 0.950 . S
H957 C933 0.949 . S
H958 C935 0.950 . S
H959 C937 0.950 . S
C960 C961 1.349 . S
C960 C962 1.327 . S
C960 H985 0.950 . S
C961 C960 1.349 . S
C961 C977 1.349 . S
C962 C960 1.327 . S
C962 C981 1.429 . S
C962 H986 0.950 . S
C963 C980 1.574 . S
C963 C982 1.368 . S
C963 H987 0.949 . S
H964 C968 0.949 . S
C965 C966 1.349 . S
C965 C967 1.327 . S
C965 H988 0.950 . S
C966 C965 1.349 . S
C966 C978 1.349 . S
C967 C965 1.327 . S
C967 C983 1.429 . S
C967 H989 0.950 . S
C968 H964 0.949 . S
C968 C976 1.574 . S
C968 C984 1.368 . S
H969 C977 0.950 . S
H970 C975 0.950 . S
H971 C976 0.949 . S
H972 C978 0.950 . S
H973 C979 0.950 . S
H974 C980 0.949 . S
C975 H970 0.950 . S
C975 C977 1.327 . S
C975 C981 1.429 . S
C976 C968 1.574 . S
C976 H971 0.949 . S
C976 C982 1.368 . S
C977 C961 1.349 . S
C977 H969 0.950 . S
C977 C975 1.327 . S
C978 C966 1.349 . S
C978 H972 0.950 . S
C978 C979 1.327 . S
C979 H973 0.950 . S
C979 C978 1.327 . S
C979 C983 1.429 . S
C980 C963 1.574 . S
C980 H974 0.949 . S
C980 C984 1.368 . S
C981 C962 1.429 . S
C981 C975 1.429 . S
C981 C982 1.523 . S
C982 C963 1.368 . S
C982 C976 1.368 . S
C982 C981 1.523 . S
C983 C967 1.429 . S
C983 C979 1.429 . S
C983 C984 1.523 . S
C984 C968 1.368 . S
C984 C980 1.368 . S
C984 C983 1.523 . S
H985 C960 0.950 . S
H986 C962 0.950 . S
H987 C963 0.949 . S
H988 C965 0.950 . S
H989 C967 0.950 . S
C990 C991 1.349 . S
C990 C992 1.327 . S
C990 H1015 0.950 . S
C991 C990 1.349 . S
C991 C1007 1.349 . S
C992 C990 1.327 . S
C992 C1011 1.429 . S
C992 H1016 0.950 . S
C993 C1010 1.574 . S
C993 C1012 1.368 . S
C993 H1017 0.949 . S
H994 C998 0.949 . S
C995 C996 1.349 . S
C995 C997 1.327 . S
C995 H1018 0.950 . S
C996 C995 1.349 . S
C996 C1008 1.349 . S
C997 C995 1.327 . S
C997 C1013 1.429 . S
C997 H1019 0.950 . S
C998 H994 0.949 . S
C998 C1006 1.574 . S
C998 C1014 1.368 . S
H999 C1007 0.950 . S
H1000 C1005 0.950 . S
H1001 C1006 0.949 . S
H1002 C1008 0.950 . S
H1003 C1009 0.950 . S
H1004 C1010 0.949 . S
C1005 H1000 0.950 . S
C1005 C1007 1.327 . S
C1005 C1011 1.429 . S
C1006 C998 1.574 . S
C1006 H1001 0.949 . S
C1006 C1012 1.368 . S
C1007 C991 1.349 . S
C1007 H999 0.950 . S
C1007 C1005 1.327 . S
C1008 C996 1.349 . S
C1008 H1002 0.950 . S
C1008 C1009 1.327 . S
C1009 H1003 0.950 . S
C1009 C1008 1.327 . S
C1009 C1013 1.429 . S
C1010 C993 1.574 . S
C1010 H1004 0.949 . S
C1010 C1014 1.368 . S
C1011 C992 1.429 . S
C1011 C1005 1.429 . S
C1011 C1012 1.523 . S
C1012 C993 1.368 . S
C1012 C1006 1.368 . S
C1012 C1011 1.523 . S
C1013 C997 1.429 . S
C1013 C1009 1.429 . S
C1013 C1014 1.523 . S
C1014 C998 1.368 . S
C1014 C1010 1.368 . S
C1014 C1013 1.523 . S
H1015 C990 0.950 . S
H1016 C992 0.950 . S
H1017 C993 0.949 . S
H1018 C995 0.950 . S
H1019 C997 0.950 . S
C1020 C1021 1.349 . S
C1020 C1022 1.327 . S
C1020 H1045 0.950 . S
C1021 C1020 1.349 . S
C1021 C1037 1.349 . S
C1022 C1020 1.327 . S
C1022 C1041 1.429 . S
C1022 H1046 0.950 . S
C1023 C1040 1.574 . S
C1023 C1042 1.368 . S
C1023 H1047 0.949 . S
H1024 C1028 0.949 . S
C1025 C1026 1.349 . S
C1025 C1027 1.327 . S
C1025 H1048 0.950 . S
C1026 C1025 1.349 . S
C1026 C1038 1.349 . S
C1027 C1025 1.327 . S
C1027 C1043 1.429 . S
C1027 H1049 0.950 . S
C1028 H1024 0.949 . S
C1028 C1036 1.574 . S
C1028 C1044 1.368 . S
H1029 C1037 0.950 . S
H1030 C1035 0.950 . S
H1031 C1036 0.949 . S
H1032 C1038 0.950 . S
H1033 C1039 0.950 . S
H1034 C1040 0.949 . S
C1035 H1030 0.950 . S
C1035 C1037 1.327 . S
C1035 C1041 1.429 . S
C1036 C1028 1.574 . S
C1036 H1031 0.949 . S
C1036 C1042 1.368 . S
C1037 C1021 1.349 . S
C1037 H1029 0.950 . S
C1037 C1035 1.327 . S
C1038 C1026 1.349 . S
C1038 H1032 0.950 . S
C1038 C1039 1.327 . S
C1039 H1033 0.950 . S
C1039 C1038 1.327 . S
C1039 C1043 1.429 . S
C1040 C1023 1.574 . S
C1040 H1034 0.949 . S
C1040 C1044 1.368 . S
C1041 C1022 1.429 . S
C1041 C1035 1.429 . S
C1041 C1042 1.523 . S
C1042 C1023 1.368 . S
C1042 C1036 1.368 . S
C1042 C1041 1.523 . S
C1043 C1027 1.429 . S
C1043 C1039 1.429 . S
C1043 C1044 1.523 . S
C1044 C1028 1.368 . S
C1044 C1040 1.368 . S
C1044 C1043 1.523 . S
H1045 C1020 0.950 . S
H1046 C1022 0.950 . S
H1047 C1023 0.949 . S
H1048 C1025 0.950 . S
H1049 C1027 0.950 . S
C1050 C1051 1.349 . S
C1050 C1052 1.327 . S
C1050 H1075 0.950 . S
C1051 C1050 1.349 . S
C1051 C1067 1.349 . S
C1052 C1050 1.327 . S
C1052 C1071 1.429 . S
C1052 H1076 0.950 . S
C1053 C1070 1.574 . S
C1053 C1072 1.368 . S
C1053 H1077 0.949 . S
H1054 C1058 0.949 . S
C1055 C1056 1.349 . S
C1055 C1057 1.327 . S
C1055 H1078 0.950 . S
C1056 C1055 1.349 . S
C1056 C1068 1.349 . S
C1057 C1055 1.327 . S
C1057 C1073 1.429 . S
C1057 H1079 0.950 . S
C1058 H1054 0.949 . S
C1058 C1066 1.574 . S
C1058 C1074 1.368 . S
H1059 C1067 0.950 . S
H1060 C1065 0.950 . S
H1061 C1066 0.949 . S
H1062 C1068 0.950 . S
H1063 C1069 0.950 . S
H1064 C1070 0.949 . S
C1065 H1060 0.950 . S
C1065 C1067 1.327 . S
C1065 C1071 1.429 . S
C1066 C1058 1.574 . S
C1066 H1061 0.949 . S
C1066 C1072 1.368 . S
C1067 C1051 1.349 . S
C1067 H1059 0.950 . S
C1067 C1065 1.327 . S
C1068 C1056 1.349 . S
C1068 H1062 0.950 . S
C1068 C1069 1.327 . S
C1069 H1063 0.950 . S
C1069 C1068 1.327 . S
C1069 C1073 1.429 . S
C1070 C1053 1.574 . S
C1070 H1064 0.949 . S
C1070 C1074 1.368 . S
C1071 C1052 1.429 . S
C1071 C1065 1.429 . S
C1071 C1072 1.523 . S
C1072 C1053 1.368 . S
C1072 C1066 1.368 . S
C1072 C1071 1.523 . S
C1073 C1057 1.429 . S
C1073 C1069 1.429 . S
C1073 C1074 1.523 . S
C1074 C1058 1.368 . S
C1074 C1070 1.368 . S
C1074 C1073 1.523 . S
H1075 C1050 0.950 . S
H1076 C1052 0.950 . S
H1077 C1053 0.949 . S
H1078 C1055 0.950 . S
H1079 C1057 0.950 . S
C1080 C1081 1.349 . S
C1080 C1082 1.327 . S
C1080 H1105 0.950 . S
C1081 C1080 1.349 . S
C1081 C1097 1.349 . S
C1082 C1080 1.327 . S
C1082 C1101 1.429 . S
C1082 H1106 0.950 . S
C1083 C1100 1.574 . S
C1083 C1102 1.368 . S
C1083 H1107 0.949 . S
H1084 C1088 0.949 . S
C1085 C1086 1.349 . S
C1085 C1087 1.327 . S
C1085 H1108 0.950 . S
C1086 C1085 1.349 . S
C1086 C1098 1.349 . S
C1087 C1085 1.327 . S
C1087 C1103 1.429 . S
C1087 H1109 0.950 . S
C1088 H1084 0.949 . S
C1088 C1096 1.574 . S
C1088 C1104 1.368 . S
H1089 C1097 0.950 . S
H1090 C1095 0.950 . S
H1091 C1096 0.949 . S
H1092 C1098 0.950 . S
H1093 C1099 0.950 . S
H1094 C1100 0.949 . S
C1095 H1090 0.950 . S
C1095 C1097 1.327 . S
C1095 C1101 1.429 . S
C1096 C1088 1.574 . S
C1096 H1091 0.949 . S
C1096 C1102 1.368 . S
C1097 C1081 1.349 . S
C1097 H1089 0.950 . S
C1097 C1095 1.327 . S
C1098 C1086 1.349 . S
C1098 H1092 0.950 . S
C1098 C1099 1.327 . S
C1099 H1093 0.950 . S
C1099 C1098 1.327 . S
C1099 C1103 1.429 . S
C1100 C1083 1.574 . S
C1100 H1094 0.949 . S
C1100 C1104 1.368 . S
C1101 C1082 1.429 . S
C1101 C1095 1.429 . S
C1101 C1102 1.523 . S
C1102 C1083 1.368 . S
C1102 C1096 1.368 . S
C1102 C1101 1.523 . S
C1103 C1087 1.429 . S
C1103 C1099 1.429 . S
C1103 C1104 1.523 . S
C1104 C1088 1.368 . S
C1104 C1100 1.368 . S
C1104 C1103 1.523 . S
H1105 C1080 0.950 . S
H1106 C1082 0.950 . S
H1107 C1083 0.949 . S
H1108 C1085 0.950 . S
H1109 C1087 0.950 . S
C1110 C1111 1.349 . S
C1110 C1112 1.327 . S
C1110 H1135 0.950 . S
C1111 C1110 1.349 . S
C1111 C1127 1.349 . S
C1112 C1110 1.327 . S
C1112 C1131 1.429 . S
C1112 H1136 0.950 . S
C1113 C1130 1.574 . S
C1113 C1132 1.368 . S
C1113 H1137 0.949 . S
H1114 C1118 0.949 . S
C1115 C1116 1.349 . S
C1115 C1117 1.327 . S
C1115 H1138 0.950 . S
C1116 C1115 1.349 . S
C1116 C1128 1.349 . S
C1117 C1115 1.327 . S
C1117 C1133 1.429 . S
C1117 H1139 0.950 . S
C1118 H1114 0.949 . S
C1118 C1126 1.574 . S
C1118 C1134 1.368 . S
H1119 C1127 0.950 . S
H1120 C1125 0.950 . S
H1121 C1126 0.949 . S
H1122 C1128 0.950 . S
H1123 C1129 0.950 . S
H1124 C1130 0.949 . S
C1125 H1120 0.950 . S
C1125 C1127 1.327 . S
C1125 C1131 1.429 . S
C1126 C1118 1.574 . S
C1126 H1121 0.949 . S
C1126 C1132 1.368 . S
C1127 C1111 1.349 . S
C1127 H1119 0.950 . S
C1127 C1125 1.327 . S
C1128 C1116 1.349 . S
C1128 H1122 0.950 . S
C1128 C1129 1.327 . S
C1129 H1123 0.950 . S
C1129 C1128 1.327 . S
C1129 C1133 1.429 . S
C1130 C1113 1.574 . S
C1130 H1124 0.949 . S
C1130 C1134 1.368 . S
C1131 C1112 1.429 . S
C1131 C1125 1.429 . S
C1131 C1132 1.523 . S
C1132 C1113 1.368 . S
C1132 C1126 1.368 . S
C1132 C1131 1.523 . S
C1133 C1117 1.429 . S
C1133 C1129 1.429 . S
C1133 C1134 1.523 . S
C1134 C1118 1.368 . S
C1134 C1130 1.368 . S
C1134 C1133 1.523 . S
H1135 C1110 0.950 . S
H1136 C1112 0.950 . S
H1137 C1113 0.949 . S
H1138 C1115 0.950 . S
H1139 C1117 0.950 . S
C1140 C1141 1.349 . S
C1140 C1142 1.327 . S
C1140 H1165 0.950 . S
C1141 C1140 1.349 . S
C1141 C1157 1.349 . S
C1142 C1140 1.327 . S
C1142 C1161 1.429 . S
C1142 H1166 0.950 . S
C1143 C1160 1.574 . S
C1143 C1162 1.368 . S
C1143 H1167 0.949 . S
H1144 C1148 0.949 . S
C1145 C1146 1.349 . S
C1145 C1147 1.327 . S
C1145 H1168 0.950 . S
C1146 C1145 1.349 . S
C1146 C1158 1.349 . S
C1147 C1145 1.327 . S
C1147 C1163 1.429 . S
C1147 H1169 0.950 . S
C1148 H1144 0.949 . S
C1148 C1156 1.574 . S
C1148 C1164 1.368 . S
H1149 C1157 0.950 . S
H1150 C1155 0.950 . S
H1151 C1156 0.949 . S
H1152 C1158 0.950 . S
H1153 C1159 0.950 . S
H1154 C1160 0.949 . S
C1155 H1150 0.950 . S
C1155 C1157 1.327 . S
C1155 C1161 1.429 . S
C1156 C1148 1.574 . S
C1156 H1151 0.949 . S
C1156 C1162 1.368 . S
C1157 C1141 1.349 . S
C1157 H1149 0.950 . S
C1157 C1155 1.327 . S
C1158 C1146 1.349 . S
C1158 H1152 0.950 . S
C1158 C1159 1.327 . S
C1159 H1153 0.950 . S
C1159 C1158 1.327 . S
C1159 C1163 1.429 . S
C1160 C1143 1.574 . S
C1160 H1154 0.949 . S
C1160 C1164 1.368 . S
C1161 C1142 1.429 . S
C1161 C1155 1.429 . S
C1161 C1162 1.523 . S
C1162 C1143 1.368 . S
C1162 C1156 1.368 . S
C1162 C1161 1.523 . S
C1163 C1147 1.429 . S
C1163 C1159 1.429 . S
C1163 C1164 1.523 . S
C1164 C1148 1.368 . S
C1164 C1160 1.368 . S
C1164 C1163 1.523 . S
H1165 C1140 0.950 . S
H1166 C1142 0.950 . S
H1167 C1143 0.949 . S
H1168 C1145 0.950 . S
H1169 C1147 0.950 . S
C1170 C1171 1.349 . S
C1170 C1172 1.327 . S
C1170 H1195 0.950 . S
C1171 C1170 1.349 . S
C1171 C1187 1.349 . S
C1172 C1170 1.327 . S
C1172 C1191 1.429 . S
C1172 H1196 0.950 . S
C1173 C1190 1.574 . S
C1173 C1192 1.368 . S
C1173 H1197 0.949 . S
H1174 C1178 0.949 . S
C1175 C1176 1.349 . S
C1175 C1177 1.327 . S
C1175 H1198 0.950 . S
C1176 C1175 1.349 . S
C1176 C1188 1.349 . S
C1177 C1175 1.327 . S
C1177 C1193 1.429 . S
C1177 H1199 0.950 . S
C1178 H1174 0.949 . S
C1178 C1186 1.574 . S
C1178 C1194 1.368 . S
H1179 C1187 0.950 . S
H1180 C1185 0.950 . S
H1181 C1186 0.949 . S
H1182 C1188 0.950 . S
H1183 C1189 0.950 . S
H1184 C1190 0.949 . S
C1185 H1180 0.950 . S
C1185 C1187 1.327 . S
C1185 C1191 1.429 . S
C1186 C1178 1.574 . S
C1186 H1181 0.949 . S
C1186 C1192 1.368 . S
C1187 C1171 1.349 . S
C1187 H1179 0.950 . S
C1187 C1185 1.327 . S
C1188 C1176 1.349 . S
C1188 H1182 0.950 . S
C1188 C1189 1.327 . S
C1189 H1183 0.950 . S
C1189 C1188 1.327 . S
C1189 C1193 1.429 . S
C1190 C1173 1.574 . S
C1190 H1184 0.949 . S
C1190 C1194 1.368 . S
C1191 C1172 1.429 . S
C1191 C1185 1.429 . S
C1191 C1192 1.523 . S
C1192 C1173 1.368 . S
C1192 C1186 1.368 . S
C1192 C1191 1.523 . S
C1193 C1177 1.429 . S
C1193 C1189 1.429 . S
C1193 C1194 1.523 . S
C1194 C1178 1.368 . S
C1194 C1190 1.368 . S
C1194 C1193 1.523 . S
H1195 C1170 0.950 . S
H1196 C1172 0.950 . S
H1197 C1173 0.949 . S
H1198 C1175 0.950 . S
H1199 C1177 0.950 . S
C1200 C1201 1.349 . S
C1200 C1202 1.327 . S
C1200 H1225 0.950 . S
C1201 C1200 1.349 . S
C1201 C1217 1.349 . S
C1202 C1200 1.327 . S
C1202 C1221 1.429 . S
C1202 H1226 0.950 . S
C1203 C1220 1.574 . S
C1203 C1222 1.368 . S
C1203 H1227 0.949 . S
H1204 C1208 0.949 . S
C1205 C1206 1.349 . S
C1205 C1207 1.327 . S
C1205 H1228 0.950 . S
C1206 C1205 1.349 . S
C1206 C1218 1.349 . S
C1207 C1205 1.327 . S
C1207 C1223 1.429 . S
C1207 H1229 0.950 . S
C1208 H1204 0.949 . S
C1208 C1216 1.574 . S
C1208 C1224 1.368 . S
H1209 C1217 0.950 . S
H1210 C1215 0.950 . S
H1211 C1216 0.949 . S
H1212 C1218 0.950 . S
H1213 C1219 0.950 . S
H1214 C1220 0.949 . S
C1215 H1210 0.950 . S
C1215 C1217 1.327 . S
C1215 C1221 1.429 . S
C1216 C1208 1.574 . S
C1216 H1211 0.949 . S
C1216 C1222 1.368 . S
C1217 C1201 1.349 . S
C1217 H1209 0.950 . S
C1217 C1215 1.327 . S
C1218 C1206 1.349 . S
C1218 H1212 0.950 . S
C1218 C1219 1.327 . S
C1219 H1213 0.950 . S
C1219 C1218 1.327 . S
C1219 C1223 1.429 . S
C1220 C1203 1.574 . S
C1220 H1214 0.949 . S
C1220 C1224 1.368 . S
C1221 C1202 1.429 . S
C1221 C1215 1.429 . S
C1221 C1222 1.523 . S
C1222 C1203 1.368 . S
C1222 C1216 1.368 . S
C1222 C1221 1.523 . S
C1223 C1207 1.429 . S
C1223 C1219 1.429 . S
C1223 C1224 1.523 . S
C1224 C1208 1.368 . S
C1224 C1220 1.368 . S
C1224 C1223 1.523 . S
H1225 C1200 0.950 . S
H1226 C1202 0.950 . S
H1227 C1203 0.949 . S
H1228 C1205 0.950 . S
H1229 C1207 0.950 . S
C1230 C1231 1.349 . S
C1230 C1232 1.327 . S
C1230 H1255 0.950 . S
C1231 C1230 1.349 . S
C1231 C1247 1.349 . S
C1232 C1230 1.327 . S
C1232 C1251 1.429 . S
C1232 H1256 0.950 . S
C1233 C1250 1.574 . S
C1233 C1252 1.368 . S
C1233 H1257 0.949 . S
H1234 C1238 0.949 . S
C1235 C1236 1.349 . S
C1235 C1237 1.327 . S
C1235 H1258 0.950 . S
C1236 C1235 1.349 . S
C1236 C1248 1.349 . S
C1237 C1235 1.327 . S
C1237 C1253 1.429 . S
C1237 H1259 0.950 . S
C1238 H1234 0.949 . S
C1238 C1246 1.574 . S
C1238 C1254 1.368 . S
H1239 C1247 0.950 . S
H1240 C1245 0.950 . S
H1241 C1246 0.949 . S
H1242 C1248 0.950 . S
H1243 C1249 0.950 . S
H1244 C1250 0.949 . S
C1245 H1240 0.950 . S
C1245 C1247 1.327 . S
C1245 C1251 1.429 . S
C1246 C1238 1.574 . S
C1246 H1241 0.949 . S
C1246 C1252 1.368 . S
C1247 C1231 1.349 . S
C1247 H1239 0.950 . S
C1247 C1245 1.327 . S
C1248 C1236 1.349 . S
C1248 H1242 0.950 . S
C1248 C1249 1.327 . S
C1249 H1243 0.950 . S
C1249 C1248 1.327 . S
C1249 C1253 1.429 . S
C1250 C1233 1.574 . S
C1250 H1244 0.949 . S
C1250 C1254 1.368 . S
C1251 C1232 1.429 . S
C1251 C1245 1.429 . S
C1251 C1252 1.523 . S
C1252 C1233 1.368 . S
C1252 C1246 1.368 . S
C1252 C1251 1.523 . S
C1253 C1237 1.429 . S
C1253 C1249 1.429 . S
C1253 C1254 1.523 . S
C1254 C1238 1.368 . S
C1254 C1250 1.368 . S
C1254 C1253 1.523 . S
H1255 C1230 0.950 . S
H1256 C1232 0.950 . S
H1257 C1233 0.949 . S
H1258 C1235 0.950 . S
H1259 C1237 0.950 . S
C1260 C1261 1.349 . S
C1260 C1262 1.327 . S
C1260 H1285 0.950 . S
C1261 C1260 1.349 . S
C1261 C1277 1.349 . S
C1262 C1260 1.327 . S
C1262 C1281 1.429 . S
C1262 H1286 0.950 . S
C1263 C1280 1.576 1_556 S
C1263 C1282 1.368 . S
C1263 H1287 0.949 . S
H1264 C1268 0.949 . S
C1265 C1266 1.349 . S
C1265 C1267 1.327 . S
C1265 H1288 0.950 . S
C1266 C1265 1.349 . S
C1266 C1278 1.349 . S
C1267 C1265 1.327 . S
C1267 C1283 1.429 . S
C1267 H1289 0.950 . S
C1268 H1264 0.949 . S
C1268 C1276 1.575 1_554 S
C1268 C1284 1.368 . S
H1269 C1277 0.950 . S
H1270 C1275 0.950 . S
H1271 C1276 0.949 . S
H1272 C1278 0.950 . S
H1273 C1279 0.950 . S
H1274 C1280 0.949 . S
C1275 H1270 0.950 . S
C1275 C1277 1.327 . S
C1275 C1281 1.429 . S
C1276 C1268 1.575 1_556 S
C1276 H1271 0.949 . S
C1276 C1282 1.367 . S
C1277 C1261 1.349 . S
C1277 H1269 0.950 . S
C1277 C1275 1.327 . S
C1278 C1266 1.349 . S
C1278 H1272 0.950 . S
C1278 C1279 1.327 . S
C1279 H1273 0.950 . S
C1279 C1278 1.327 . S
C1279 C1283 1.429 . S
C1280 C1263 1.576 1_554 S
C1280 H1274 0.949 . S
C1280 C1284 1.366 . S
C1281 C1262 1.429 . S
C1281 C1275 1.429 . S
C1281 C1282 1.523 . S
C1282 C1263 1.368 . S
C1282 C1276 1.367 . S
C1282 C1281 1.523 . S
C1283 C1267 1.429 . S
C1283 C1279 1.429 . S
C1283 C1284 1.523 . S
C1284 C1268 1.368 . S
C1284 C1280 1.366 . S
C1284 C1283 1.523 . S
H1285 C1260 0.950 . S
H1286 C1262 0.950 . S
H1287 C1263 0.949 . S
H1288 C1265 0.950 . S
H1289 C1267 0.950 . S
C1290 C1291 1.349 . S
C1290 C1292 1.327 . S
C1290 H1315 0.950 . S
C1291 C1290 1.349 . S
C1291 C1307 1.349 . S
C1292 C1290 1.327 . S
C1292 C1311 1.429 . S
C1292 H1316 0.950 . S
C1293 C1310 1.574 1_455 S
C1293 C1312 1.368 . S
C1293 H1317 0.949 . S
H1294 C1298 0.949 . S
C1295 C1296 1.349 . S
C1295 C1297 1.327 . S
C1295 H1318 0.950 . S
C1296 C1295 1.349 . S
C1296 C1308 1.349 . S
C1297 C1295 1.327 . S
C1297 C1313 1.429 . S
C1297 H1319 0.950 . S
C1298 H1294 0.949 . S
C1298 C1306 1.574 1_655 S
C1298 C1314 1.368 . S
H1299 C1307 0.950 . S
H1300 C1305 0.950 . S
H1301 C1306 0.949 . S
H1302 C1308 0.950 . S
H1303 C1309 0.950 . S
H1304 C1310 0.949 . S
C1305 H1300 0.950 . S
C1305 C1307 1.327 . S
C1305 C1311 1.429 . S
C1306 C1298 1.574 1_455 S
C1306 H1301 0.949 . S
C1306 C1312 1.368 . S
C1307 C1291 1.349 . S
C1307 H1299 0.950 . S
C1307 C1305 1.327 . S
C1308 C1296 1.349 . S
C1308 H1302 0.950 . S
C1308 C1309 1.327 . S
C1309 H1303 0.950 . S
C1309 C1308 1.327 . S
C1309 C1313 1.429 . S
C1310 C1293 1.574 1_655 S
C1310 H1304 0.949 . S
C1310 C1314 1.368 . S
C1311 C1292 1.429 . S
C1311 C1305 1.429 . S
C1311 C1312 1.523 . S
C1312 C1293 1.368 . S
C1312 C1306 1.368 . S
C1312 C1311 1.523 . S
C1313 C1297 1.429 . S
C1313 C1309 1.429 . S
C1313 C1314 1.523 . S
C1314 C1298 1.368 . S
C1314 C1310 1.368 . S
C1314 C1313 1.523 . S
H1315 C1290 0.950 . S
H1316 C1292 0.950 . S
H1317 C1293 0.949 . S
H1318 C1295 0.950 . S
H1319 C1297 0.950 . S
C1320 C1321 1.349 . S
C1320 C1322 1.327 . S
C1320 H1345 0.950 . S
C1321 C1320 1.349 . S
C1321 C1337 1.349 . S
C1322 C1320 1.327 . S
C1322 C1341 1.429 . S
C1322 H1346 0.950 . S
C1323 C1340 1.574 . S
C1323 C1342 1.368 1_545 S
C1323 H1347 0.949 . S
H1324 C1328 0.949 . S
C1325 C1326 1.349 . S
C1325 C1327 1.327 . S
C1325 H1348 0.950 . S
C1326 C1325 1.349 . S
C1326 C1338 1.349 . S
C1327 C1325 1.327 . S
C1327 C1343 1.429 . S
C1327 H1349 0.950 . S
C1328 H1324 0.949 . S
C1328 C1336 1.574 . S
C1328 C1344 1.368 1_565 S
H1329 C1337 0.950 . S
H1330 C1335 0.950 . S
H1331 C1336 0.949 . S
H1332 C1338 0.950 . S
H1333 C1339 0.950 . S
H1334 C1340 0.949 . S
C1335 H1330 0.950 . S
C1335 C1337 1.327 . S
C1335 C1341 1.429 . S
C1336 C1328 1.574 . S
C1336 H1331 0.949 . S
C1336 C1342 1.368 1_556 S
C1337 C1321 1.349 . S
C1337 H1329 0.950 . S
C1337 C1335 1.327 . S
C1338 C1326 1.349 . S
C1338 H1332 0.950 . S
C1338 C1339 1.327 . S
C1339 H1333 0.950 . S
C1339 C1338 1.327 . S
C1339 C1343 1.429 . S
C1340 C1323 1.574 . S
C1340 H1334 0.949 . S
C1340 C1344 1.368 1_554 S
C1341 C1322 1.429 . S
C1341 C1335 1.429 . S
C1341 C1342 1.523 . S
C1342 C1323 1.368 1_565 S
C1342 C1336 1.368 1_554 S
C1342 C1341 1.523 . S
C1343 C1327 1.429 . S
C1343 C1339 1.429 . S
C1343 C1344 1.523 . S
C1344 C1328 1.368 1_545 S
C1344 C1340 1.368 1_556 S
C1344 C1343 1.523 . S
H1345 C1320 0.950 . S
H1346 C1322 0.950 . S
H1347 C1323 0.949 . S
H1348 C1325 0.950 . S
H1349 C1327 0.950 . S
C1350 C1351 1.349 . S
C1350 C1352 1.327 . S
C1350 H1375 0.950 . S
C1351 C1350 1.349 . S
C1351 C1367 1.349 . S
C1352 C1350 1.327 . S
C1352 C1371 1.429 . S
C1352 H1376 0.950 . S
C1353 C1370 1.574 . S
C1353 C1372 1.368 . S
C1353 H1377 0.949 . S
H1354 C1358 0.949 . S
C1355 C1356 1.349 . S
C1355 C1357 1.327 . S
C1355 H1378 0.950 . S
C1356 C1355 1.349 . S
C1356 C1368 1.349 . S
C1357 C1355 1.327 . S
C1357 C1373 1.429 . S
C1357 H1379 0.950 . S
C1358 H1354 0.949 . S
C1358 C1366 1.574 . S
C1358 C1374 1.368 . S
H1359 C1367 0.950 . S
H1360 C1365 0.950 . S
H1361 C1366 0.949 . S
H1362 C1368 0.950 . S
H1363 C1369 0.950 . S
H1364 C1370 0.949 . S
C1365 H1360 0.950 . S
C1365 C1367 1.327 . S
C1365 C1371 1.429 . S
C1366 C1358 1.574 . S
C1366 H1361 0.949 . S
C1366 C1372 1.368 . S
C1367 C1351 1.349 . S
C1367 H1359 0.950 . S
C1367 C1365 1.327 . S
C1368 C1356 1.349 . S
C1368 H1362 0.950 . S
C1368 C1369 1.327 . S
C1369 H1363 0.950 . S
C1369 C1368 1.327 . S
C1369 C1373 1.429 . S
C1370 C1353 1.574 . S
C1370 H1364 0.949 . S
C1370 C1374 1.368 . S
C1371 C1352 1.429 . S
C1371 C1365 1.429 . S
C1371 C1372 1.523 . S
C1372 C1353 1.368 . S
C1372 C1366 1.368 . S
C1372 C1371 1.523 . S
C1373 C1357 1.429 . S
C1373 C1369 1.429 . S
C1373 C1374 1.523 . S
C1374 C1358 1.368 . S
C1374 C1370 1.368 . S
C1374 C1373 1.523 . S
H1375 C1350 0.950 . S
H1376 C1352 0.950 . S
H1377 C1353 0.949 . S
H1378 C1355 0.950 . S
H1379 C1357 0.950 . S
C1380 C1381 1.349 . S
C1380 C1382 1.327 . S
C1380 H1405 0.950 . S
C1381 C1380 1.349 . S
C1381 C1397 1.349 . S
C1382 C1380 1.327 . S
C1382 C1401 1.429 . S
C1382 H1406 0.950 . S
C1383 C1400 1.574 1_656 S
C1383 C1402 1.368 . S
C1383 H1407 0.949 . S
H1384 C1388 0.949 . S
C1385 C1386 1.349 . S
C1385 C1387 1.327 . S
C1385 H1408 0.950 . S
C1386 C1385 1.349 . S
C1386 C1398 1.349 . S
C1387 C1385 1.327 . S
C1387 C1403 1.429 . S
C1387 H1409 0.950 . S
C1388 H1384 0.949 . S
C1388 C1396 1.574 1_454 S
C1388 C1404 1.368 . S
H1389 C1397 0.950 . S
H1390 C1395 0.950 . S
H1391 C1396 0.949 . S
H1392 C1398 0.950 . S
H1393 C1399 0.950 . S
H1394 C1400 0.949 . S
C1395 H1390 0.950 . S
C1395 C1397 1.327 . S
C1395 C1401 1.429 . S
C1396 C1388 1.574 1_656 S
C1396 H1391 0.949 . S
C1396 C1402 1.368 . S
C1397 C1381 1.349 . S
C1397 H1389 0.950 . S
C1397 C1395 1.327 . S
C1398 C1386 1.349 . S
C1398 H1392 0.950 . S
C1398 C1399 1.327 . S
C1399 H1393 0.950 . S
C1399 C1398 1.327 . S
C1399 C1403 1.429 . S
C1400 C1383 1.574 1_454 S
C1400 H1394 0.949 . S
C1400 C1404 1.368 . S
C1401 C1382 1.429 . S
C1401 C1395 1.429 . S
C1401 C1402 1.523 . S
C1402 C1383 1.368 . S
C1402 C1396 1.368 . S
C1402 C1401 1.523 . S
C1403 C1387 1.429 . S
C1403 C1399 1.429 . S
C1403 C1404 1.523 . S
C1404 C1388 1.368 . S
C1404 C1400 1.368 . S
C1404 C1403 1.523 . S
H1405 C1380 0.950 . S
H1406 C1382 0.950 . S
H1407 C1383 0.949 . S
H1408 C1385 0.950 . S
H1409 C1387 0.950 . S
C1410 C1411 1.349 . S
C1410 C1412 1.327 . S
C1410 H1435 0.950 . S
C1411 C1410 1.349 . S
C1411 C1427 1.349 . S
C1412 C1410 1.327 . S
C1412 C1431 1.429 . S
C1412 H1436 0.950 . S
C1413 C1430 1.574 . S
C1413 C1432 1.368 . S
C1413 H1437 0.949 . S
H1414 C1418 0.949 . S
C1415 C1416 1.349 . S
C1415 C1417 1.327 . S
C1415 H1438 0.950 . S
C1416 C1415 1.349 . S
C1416 C1428 1.349 . S
C1417 C1415 1.327 . S
C1417 C1433 1.429 . S
C1417 H1439 0.950 . S
C1418 H1414 0.949 . S
C1418 C1426 1.574 . S
C1418 C1434 1.368 . S
H1419 C1427 0.950 . S
H1420 C1425 0.950 . S
H1421 C1426 0.949 . S
H1422 C1428 0.950 . S
H1423 C1429 0.950 . S
H1424 C1430 0.949 . S
C1425 H1420 0.950 . S
C1425 C1427 1.327 . S
C1425 C1431 1.429 . S
C1426 C1418 1.574 . S
C1426 H1421 0.949 . S
C1426 C1432 1.368 1_545 S
C1427 C1411 1.349 . S
C1427 H1419 0.950 . S
C1427 C1425 1.327 . S
C1428 C1416 1.349 . S
C1428 H1422 0.950 . S
C1428 C1429 1.327 . S
C1429 H1423 0.950 . S
C1429 C1428 1.327 . S
C1429 C1433 1.429 . S
C1430 C1413 1.574 . S
C1430 H1424 0.949 . S
C1430 C1434 1.368 1_565 S
C1431 C1412 1.429 . S
C1431 C1425 1.429 . S
C1431 C1432 1.523 . S
C1432 C1413 1.368 . S
C1432 C1426 1.368 1_565 S
C1432 C1431 1.523 . S
C1433 C1417 1.429 . S
C1433 C1429 1.429 . S
C1433 C1434 1.523 . S
C1434 C1418 1.368 . S
C1434 C1430 1.368 1_545 S
C1434 C1433 1.523 . S
H1435 C1410 0.950 . S
H1436 C1412 0.950 . S
H1437 C1413 0.949 . S
H1438 C1415 0.950 . S
H1439 C1417 0.950 . S
C361 C147 0.704 . S
C366 N14 0.705 . S
C391 N156 0.629 . S
C396 C46 0.615 . S
C421 N74 0.704 . S
C426 C27 0.704 . S
C451 C106 0.615 . S
C456 N36 0.630 . S
C481 N134 0.704 . S
C486 C87 0.704 . S
C511 N96 0.629 . S
C516 C166 0.615 . S
C541 N246 0.630 . S
C546 C196 0.615 . S
C571 C226 0.615 . S
C576 N276 0.629 . S
C601 N306 0.630 . S
C606 C256 0.615 . S
C631 C286 0.615 . S
C636 N336 0.629 . S
C661 C316 0.615 . S
C666 N186 0.629 . S
C691 N216 0.629 . S
C696 C346 0.615 . S
C721 C136 1.021 . S
C726 N6 1.027 . S
C751 C57 1.098 . S
C756 N164 1.075 . S
C781 N66 1.028 . S
C786 C16 1.021 . S
C811 C117 1.098 . S
C816 N44 1.075 . S
C841 C76 1.021 . S
C846 N126 1.027 . S
C871 N104 1.075 . S
C876 C177 1.098 . S
C901 N254 1.074 . S
C906 C207 1.097 . S
C931 C237 1.099 . S
C936 N284 1.076 . S
C961 C267 1.097 . S
C966 N314 1.074 . S
C991 N344 1.076 . S
C996 C297 1.099 . S
C1021 C327 1.097 . S
C1026 N194 1.074 . S
C1051 N224 1.076 . S
C1056 C357 1.099 . S
C1081 C301 1.641 . S
C1086 C10 1.651 . S
C1111 C31 1.641 . S
C1116 C331 1.641 . S
C1141 C70 1.651 . S
C1146 C181 1.641 . S
C1171 C91 1.641 . S
C1176 C211 1.641 . S
C1201 C130 1.651 . S
C1206 C241 1.641 . S
C1231 C271 1.641 . S
C1236 C151 1.641 . S
C1261 C280 1.894 . S
C1266 C1 1.840 . S
C1291 C310 1.894 . S
C1296 C40 1.894 . S
C1321 C61 1.841 . S
C1326 C340 1.894 . S
C1351 C100 1.894 . S
C1356 C190 1.894 . S
C1381 C220 1.894 . S
C1386 C121 1.840 . S
C1411 C250 1.894 . S
C1416 C160 1.894 . S
