# Generated by pormake.
# Topology wna, (6)-cn, num edge types: 1
# Building blocks:
#     Node 0, Type 0, BuildingBlock: CUWYAW_clean_sbu_0, # of connection points: 6
#     Node 1, Type 0, BuildingBlock: CUWYAW_clean_sbu_0, # of connection points: 6
#     Node 2, Type 0, BuildingBlock: CUWYAW_clean_sbu_0, # of connection points: 6
#     Node 3, Type 0, BuildingBlock: CUWYAW_clean_sbu_0, # of connection points: 6
#     Node 4, Type 0, BuildingBlock: CUWYAW_clean_sbu_0, # of connection points: 6
#     Node 5, Type 0, BuildingBlock: CUWYAW_clean_sbu_0, # of connection points: 6
#     Node 6, Type 0, BuildingBlock: CUWYAW_clean_sbu_0, # of connection points: 6
#     Node 7, Type 0, BuildingBlock: CUWYAW_clean_sbu_0, # of connection points: 6
#     Node 8, Type 0, BuildingBlock: CUWYAW_clean_sbu_0, # of connection points: 6
#     Node 9, Type 0, BuildingBlock: CUWYAW_clean_sbu_0, # of connection points: 6
#     Node 10, Type 0, BuildingBlock: CUWYAW_clean_sbu_0, # of connection points: 6
#     Node 11, Type 0, BuildingBlock: CUWYAW_clean_sbu_0, # of connection points: 6
#     Node 12, Type 0, BuildingBlock: CUWYAW_clean_sbu_0, # of connection points: 6
#     Node 13, Type 0, BuildingBlock: CUWYAW_clean_sbu_0, # of connection points: 6
#     Node 14, Type 0, BuildingBlock: CUWYAW_clean_sbu_0, # of connection points: 6
#     Node 15, Type 0, BuildingBlock: CUWYAW_clean_sbu_0, # of connection points: 6
#     Node 16, Type 0, BuildingBlock: CUWYAW_clean_sbu_0, # of connection points: 6
#     Node 17, Type 0, BuildingBlock: CUWYAW_clean_sbu_0, # of connection points: 6
#     Node 18, Type 0, BuildingBlock: CUWYAW_clean_sbu_0, # of connection points: 6
#     Node 19, Type 0, BuildingBlock: CUWYAW_clean_sbu_0, # of connection points: 6
#     Node 20, Type 0, BuildingBlock: CUWYAW_clean_sbu_0, # of connection points: 6
#     Node 21, Type 0, BuildingBlock: CUWYAW_clean_sbu_0, # of connection points: 6
#     Node 22, Type 0, BuildingBlock: CUWYAW_clean_sbu_0, # of connection points: 6
#     Node 23, Type 0, BuildingBlock: CUWYAW_clean_sbu_0, # of connection points: 6
#     Node 24, Type 0, BuildingBlock: CUWYAW_clean_sbu_0, # of connection points: 6
#     Node 25, Type 0, BuildingBlock: CUWYAW_clean_sbu_0, # of connection points: 6
#     Node 26, Type 0, BuildingBlock: CUWYAW_clean_sbu_0, # of connection points: 6
#     Node 27, Type 0, BuildingBlock: CUWYAW_clean_sbu_0, # of connection points: 6
#     Node 28, Type 0, BuildingBlock: CUWYAW_clean_sbu_0, # of connection points: 6
#     Node 29, Type 0, BuildingBlock: CUWYAW_clean_sbu_0, # of connection points: 6
#     Node 30, Type 0, BuildingBlock: CUWYAW_clean_sbu_0, # of connection points: 6
#     Node 31, Type 0, BuildingBlock: CUWYAW_clean_sbu_0, # of connection points: 6
#     Node 32, Type 0, BuildingBlock: CUWYAW_clean_sbu_0, # of connection points: 6
#     Node 33, Type 0, BuildingBlock: CUWYAW_clean_sbu_0, # of connection points: 6
#     Node 34, Type 0, BuildingBlock: CUWYAW_clean_sbu_0, # of connection points: 6
#     Node 35, Type 0, BuildingBlock: CUWYAW_clean_sbu_0, # of connection points: 6
#     Edge 36, Type (0, 0), BuildingBlock: AJUNOK_clean_linker_0, # of connection points: 2
#     Edge 37, Type (0, 0), BuildingBlock: AJUNOK_clean_linker_0, # of connection points: 2
#     Edge 38, Type (0, 0), BuildingBlock: AJUNOK_clean_linker_0, # of connection points: 2
#     Edge 39, Type (0, 0), BuildingBlock: AJUNOK_clean_linker_0, # of connection points: 2
#     Edge 40, Type (0, 0), BuildingBlock: AJUNOK_clean_linker_0, # of connection points: 2
#     Edge 41, Type (0, 0), BuildingBlock: AJUNOK_clean_linker_0, # of connection points: 2
#     Edge 42, Type (0, 0), BuildingBlock: AJUNOK_clean_linker_0, # of connection points: 2
#     Edge 43, Type (0, 0), BuildingBlock: AJUNOK_clean_linker_0, # of connection points: 2
#     Edge 44, Type (0, 0), BuildingBlock: AJUNOK_clean_linker_0, # of connection points: 2
#     Edge 45, Type (0, 0), BuildingBlock: AJUNOK_clean_linker_0, # of connection points: 2
#     Edge 46, Type (0, 0), BuildingBlock: AJUNOK_clean_linker_0, # of connection points: 2
#     Edge 47, Type (0, 0), BuildingBlock: AJUNOK_clean_linker_0, # of connection points: 2
#     Edge 48, Type (0, 0), BuildingBlock: AJUNOK_clean_linker_0, # of connection points: 2
#     Edge 49, Type (0, 0), BuildingBlock: AJUNOK_clean_linker_0, # of connection points: 2
#     Edge 50, Type (0, 0), BuildingBlock: AJUNOK_clean_linker_0, # of connection points: 2
#     Edge 51, Type (0, 0), BuildingBlock: AJUNOK_clean_linker_0, # of connection points: 2
#     Edge 52, Type (0, 0), BuildingBlock: AJUNOK_clean_linker_0, # of connection points: 2
#     Edge 53, Type (0, 0), BuildingBlock: AJUNOK_clean_linker_0, # of connection points: 2
#     Edge 54, Type (0, 0), BuildingBlock: AJUNOK_clean_linker_0, # of connection points: 2
#     Edge 55, Type (0, 0), BuildingBlock: AJUNOK_clean_linker_0, # of connection points: 2
#     Edge 56, Type (0, 0), BuildingBlock: AJUNOK_clean_linker_0, # of connection points: 2
#     Edge 57, Type (0, 0), BuildingBlock: AJUNOK_clean_linker_0, # of connection points: 2
#     Edge 58, Type (0, 0), BuildingBlock: AJUNOK_clean_linker_0, # of connection points: 2
#     Edge 59, Type (0, 0), BuildingBlock: AJUNOK_clean_linker_0, # of connection points: 2
#     Edge 60, Type (0, 0), BuildingBlock: AJUNOK_clean_linker_0, # of connection points: 2
#     Edge 61, Type (0, 0), BuildingBlock: AJUNOK_clean_linker_0, # of connection points: 2
#     Edge 62, Type (0, 0), BuildingBlock: AJUNOK_clean_linker_0, # of connection points: 2
#     Edge 63, Type (0, 0), BuildingBlock: AJUNOK_clean_linker_0, # of connection points: 2
#     Edge 64, Type (0, 0), BuildingBlock: AJUNOK_clean_linker_0, # of connection points: 2
#     Edge 65, Type (0, 0), BuildingBlock: AJUNOK_clean_linker_0, # of connection points: 2
#     Edge 66, Type (0, 0), BuildingBlock: AJUNOK_clean_linker_0, # of connection points: 2
#     Edge 67, Type (0, 0), BuildingBlock: AJUNOK_clean_linker_0, # of connection points: 2
#     Edge 68, Type (0, 0), BuildingBlock: AJUNOK_clean_linker_0, # of connection points: 2
#     Edge 69, Type (0, 0), BuildingBlock: AJUNOK_clean_linker_0, # of connection points: 2
#     Edge 70, Type (0, 0), BuildingBlock: AJUNOK_clean_linker_0, # of connection points: 2
#     Edge 71, Type (0, 0), BuildingBlock: AJUNOK_clean_linker_0, # of connection points: 2
#     Edge 72, Type (0, 0), BuildingBlock: AJUNOK_clean_linker_0, # of connection points: 2
#     Edge 73, Type (0, 0), BuildingBlock: AJUNOK_clean_linker_0, # of connection points: 2
#     Edge 74, Type (0, 0), BuildingBlock: AJUNOK_clean_linker_0, # of connection points: 2
#     Edge 75, Type (0, 0), BuildingBlock: AJUNOK_clean_linker_0, # of connection points: 2
#     Edge 76, Type (0, 0), BuildingBlock: AJUNOK_clean_linker_0, # of connection points: 2
#     Edge 77, Type (0, 0), BuildingBlock: AJUNOK_clean_linker_0, # of connection points: 2
#     Edge 78, Type (0, 0), BuildingBlock: AJUNOK_clean_linker_0, # of connection points: 2
#     Edge 79, Type (0, 0), BuildingBlock: AJUNOK_clean_linker_0, # of connection points: 2
#     Edge 80, Type (0, 0), BuildingBlock: AJUNOK_clean_linker_0, # of connection points: 2
#     Edge 81, Type (0, 0), BuildingBlock: AJUNOK_clean_linker_0, # of connection points: 2
#     Edge 82, Type (0, 0), BuildingBlock: AJUNOK_clean_linker_0, # of connection points: 2
#     Edge 83, Type (0, 0), BuildingBlock: AJUNOK_clean_linker_0, # of connection points: 2
#     Edge 84, Type (0, 0), BuildingBlock: AJUNOK_clean_linker_0, # of connection points: 2
#     Edge 85, Type (0, 0), BuildingBlock: AJUNOK_clean_linker_0, # of connection points: 2
#     Edge 86, Type (0, 0), BuildingBlock: AJUNOK_clean_linker_0, # of connection points: 2
#     Edge 87, Type (0, 0), BuildingBlock: AJUNOK_clean_linker_0, # of connection points: 2
#     Edge 88, Type (0, 0), BuildingBlock: AJUNOK_clean_linker_0, # of connection points: 2
#     Edge 89, Type (0, 0), BuildingBlock: AJUNOK_clean_linker_0, # of connection points: 2
#     Edge 90, Type (0, 0), BuildingBlock: AJUNOK_clean_linker_0, # of connection points: 2
#     Edge 91, Type (0, 0), BuildingBlock: AJUNOK_clean_linker_0, # of connection points: 2
#     Edge 92, Type (0, 0), BuildingBlock: AJUNOK_clean_linker_0, # of connection points: 2
#     Edge 93, Type (0, 0), BuildingBlock: AJUNOK_clean_linker_0, # of connection points: 2
#     Edge 94, Type (0, 0), BuildingBlock: AJUNOK_clean_linker_0, # of connection points: 2
#     Edge 95, Type (0, 0), BuildingBlock: AJUNOK_clean_linker_0, # of connection points: 2
#     Edge 96, Type (0, 0), BuildingBlock: AJUNOK_clean_linker_0, # of connection points: 2
#     Edge 97, Type (0, 0), BuildingBlock: AJUNOK_clean_linker_0, # of connection points: 2
#     Edge 98, Type (0, 0), BuildingBlock: AJUNOK_clean_linker_0, # of connection points: 2
#     Edge 99, Type (0, 0), BuildingBlock: AJUNOK_clean_linker_0, # of connection points: 2
#     Edge 100, Type (0, 0), BuildingBlock: AJUNOK_clean_linker_0, # of connection points: 2
#     Edge 101, Type (0, 0), BuildingBlock: AJUNOK_clean_linker_0, # of connection points: 2
#     Edge 102, Type (0, 0), BuildingBlock: AJUNOK_clean_linker_0, # of connection points: 2
#     Edge 103, Type (0, 0), BuildingBlock: AJUNOK_clean_linker_0, # of connection points: 2
#     Edge 104, Type (0, 0), BuildingBlock: AJUNOK_clean_linker_0, # of connection points: 2
#     Edge 105, Type (0, 0), BuildingBlock: AJUNOK_clean_linker_0, # of connection points: 2
#     Edge 106, Type (0, 0), BuildingBlock: AJUNOK_clean_linker_0, # of connection points: 2
#     Edge 107, Type (0, 0), BuildingBlock: AJUNOK_clean_linker_0, # of connection points: 2
#     Edge 108, Type (0, 0), BuildingBlock: AJUNOK_clean_linker_0, # of connection points: 2
#     Edge 109, Type (0, 0), BuildingBlock: AJUNOK_clean_linker_0, # of connection points: 2
#     Edge 110, Type (0, 0), BuildingBlock: AJUNOK_clean_linker_0, # of connection points: 2
#     Edge 111, Type (0, 0), BuildingBlock: AJUNOK_clean_linker_0, # of connection points: 2
#     Edge 112, Type (0, 0), BuildingBlock: AJUNOK_clean_linker_0, # of connection points: 2
#     Edge 113, Type (0, 0), BuildingBlock: AJUNOK_clean_linker_0, # of connection points: 2
#     Edge 114, Type (0, 0), BuildingBlock: AJUNOK_clean_linker_0, # of connection points: 2
#     Edge 115, Type (0, 0), BuildingBlock: AJUNOK_clean_linker_0, # of connection points: 2
#     Edge 116, Type (0, 0), BuildingBlock: AJUNOK_clean_linker_0, # of connection points: 2
#     Edge 117, Type (0, 0), BuildingBlock: AJUNOK_clean_linker_0, # of connection points: 2
#     Edge 118, Type (0, 0), BuildingBlock: AJUNOK_clean_linker_0, # of connection points: 2
#     Edge 119, Type (0, 0), BuildingBlock: AJUNOK_clean_linker_0, # of connection points: 2
#     Edge 120, Type (0, 0), BuildingBlock: AJUNOK_clean_linker_0, # of connection points: 2
#     Edge 121, Type (0, 0), BuildingBlock: AJUNOK_clean_linker_0, # of connection points: 2
#     Edge 122, Type (0, 0), BuildingBlock: AJUNOK_clean_linker_0, # of connection points: 2
#     Edge 123, Type (0, 0), BuildingBlock: AJUNOK_clean_linker_0, # of connection points: 2
#     Edge 124, Type (0, 0), BuildingBlock: AJUNOK_clean_linker_0, # of connection points: 2
#     Edge 125, Type (0, 0), BuildingBlock: AJUNOK_clean_linker_0, # of connection points: 2
#     Edge 126, Type (0, 0), BuildingBlock: AJUNOK_clean_linker_0, # of connection points: 2
#     Edge 127, Type (0, 0), BuildingBlock: AJUNOK_clean_linker_0, # of connection points: 2
#     Edge 128, Type (0, 0), BuildingBlock: AJUNOK_clean_linker_0, # of connection points: 2
#     Edge 129, Type (0, 0), BuildingBlock: AJUNOK_clean_linker_0, # of connection points: 2
#     Edge 130, Type (0, 0), BuildingBlock: AJUNOK_clean_linker_0, # of connection points: 2
#     Edge 131, Type (0, 0), BuildingBlock: AJUNOK_clean_linker_0, # of connection points: 2
#     Edge 132, Type (0, 0), BuildingBlock: AJUNOK_clean_linker_0, # of connection points: 2
#     Edge 133, Type (0, 0), BuildingBlock: AJUNOK_clean_linker_0, # of connection points: 2
#     Edge 134, Type (0, 0), BuildingBlock: AJUNOK_clean_linker_0, # of connection points: 2
#     Edge 135, Type (0, 0), BuildingBlock: AJUNOK_clean_linker_0, # of connection points: 2
#     Edge 136, Type (0, 0), BuildingBlock: AJUNOK_clean_linker_0, # of connection points: 2
#     Edge 137, Type (0, 0), BuildingBlock: AJUNOK_clean_linker_0, # of connection points: 2
#     Edge 138, Type (0, 0), BuildingBlock: AJUNOK_clean_linker_0, # of connection points: 2
#     Edge 139, Type (0, 0), BuildingBlock: AJUNOK_clean_linker_0, # of connection points: 2
#     Edge 140, Type (0, 0), BuildingBlock: AJUNOK_clean_linker_0, # of connection points: 2
#     Edge 141, Type (0, 0), BuildingBlock: AJUNOK_clean_linker_0, # of connection points: 2
#     Edge 142, Type (0, 0), BuildingBlock: AJUNOK_clean_linker_0, # of connection points: 2
#     Edge 143, Type (0, 0), BuildingBlock: AJUNOK_clean_linker_0, # of connection points: 2
# Relax obj value: 0.137
# Max RMSD: 0.229
# Mean RMSD: 0.210
data_MOF--net-wna--node1-CUWYAW_clean_sbu_0--edge1-AJUNOK_clean_linker_0
_symmetry_space_group_name_H-M    P1
_symmetry_Int_Tables_number       1
_symmetry_cell_setting            triclinic
loop_
_symmetry_equiv_pos_as_xyz
'x, y, z'
_cell_length_a     30.058116
_cell_length_b     30.050153
_cell_length_c     130.08223
_cell_angle_alpha  90.010474
_cell_angle_beta   90.027417
_cell_angle_gamma 119.86978
loop_
_atom_site_label
_atom_site_type_symbol
_atom_site_fract_x
_atom_site_fract_y
_atom_site_fract_z
_atom_type_partial_charge
C0 C 0.13569 0.21911 0.21655 0.0
Eu1 Eu 0.1307 0.24853 0.19784 0.0
C2 C 0.11365 0.21335 0.22704 0.0
C3 C 0.09111 0.24208 0.2304 0.0
C4 C 0.07138 0.23598 0.24046 0.0
C5 C 0.07386 0.20112 0.24739 0.0
C6 C 0.09594 0.17212 0.24388 0.0
C7 C 0.11559 0.17823 0.23388 0.0
C8 C 0.09484 0.31525 0.1927 0.0
C9 C 0.02788 0.17079 0.18459 0.0
C10 C 0.11245 0.29705 0.15513 0.0
Eu11 Eu 0.12584 0.26345 0.1727 0.0
C12 C 0.13122 0.31123 0.14446 0.0
C13 C 0.1597 0.29191 0.13955 0.0
C14 C 0.17215 0.30191 0.12907 0.0
C15 C 0.156 0.33108 0.12331 0.0
C16 C 0.12888 0.35155 0.1284 0.0
C17 C 0.11663 0.34168 0.13883 0.0
C18 C 0.15622 0.19366 0.17746 0.0
C19 C 0.23746 0.31929 0.18428 0.0
O20 O 0.10549 0.18788 0.2094 0.0
O21 O 0.16583 0.26581 0.2131 0.0
O22 O 0.10146 0.30431 0.20202 0.0
O23 O 0.10816 0.29031 0.18697 0.0
O24 O 0.05595 0.17816 0.19299 0.0
O25 O 0.04409 0.20356 0.17676 0.0
O26 O 0.1403 0.32767 0.16261 0.0
O27 O 0.09079 0.24828 0.15756 0.0
O28 O 0.15255 0.20684 0.16808 0.0
O29 O 0.14485 0.2194 0.18346 0.0
O30 O 0.20981 0.31871 0.17622 0.0
O31 O 0.21584 0.2929 0.19289 0.0
H32 H 0.08868 0.26915 0.22526 0.0
H33 H 0.05356 0.2581 0.24274 0.0
H34 H 0.09862 0.14497 0.24893 0.0
H35 H 0.13265 0.15551 0.23149 0.0
H36 H 0.17144 0.26835 0.14375 0.0
H37 H 0.19408 0.28651 0.12547 0.0
H38 H 0.11562 0.37392 0.12421 0.0
H39 H 0.09439 0.35673 0.14245 0.0
C40 C 0.81796 0.91796 0.21577 0.0
Eu41 Eu 0.78766 0.88642 0.19697 0.0
C42 C 0.8215 0.90109 0.2263 0.0
C43 C 0.7906 0.85025 0.22967 0.0
C44 C 0.79735 0.83557 0.23958 0.0
C45 C 0.83529 0.87141 0.24626 0.0
C46 C 0.86577 0.92223 0.24281 0.0
C47 C 0.85891 0.93682 0.23298 0.0
C48 C 0.72094 0.78472 0.19141 0.0
C49 C 0.86633 0.86173 0.18387 0.0
C50 C 0.74297 0.82605 0.15407 0.0
Eu51 Eu 0.77615 0.86998 0.17188 0.0
C52 C 0.72925 0.83275 0.14347 0.0
C53 C 0.7602 0.87716 0.13768 0.0
C54 C 0.74952 0.87954 0.12726 0.0
C55 C 0.70758 0.83772 0.12243 0.0
C56 C 0.67605 0.79393 0.12834 0.0
C57 C 0.68674 0.79157 0.13874 0.0
C58 C 0.84659 0.96954 0.17699 0.0
C59 C 0.71823 0.92411 0.18354 0.0
O60 O 0.84675 0.91337 0.20879 0.0
O61 O 0.77274 0.90714 0.21222 0.0
O62 O 0.73017 0.80159 0.20078 0.0
O63 O 0.74709 0.82326 0.18584 0.0
O64 O 0.85879 0.88301 0.19215 0.0
O65 O 0.83393 0.84538 0.17599 0.0
O66 O 0.71216 0.8224 0.16158 0.0
O67 O 0.79164 0.85153 0.15663 0.0
O68 O 0.83431 0.95305 0.16757 0.0
O69 O 0.81953 0.93233 0.1829 0.0
O70 O 0.72058 0.89841 0.17542 0.0
O71 O 0.74371 0.92819 0.19225 0.0
H72 H 0.76185 0.82184 0.22461 0.0
H73 H 0.77374 0.79594 0.24191 0.0
H74 H 0.89508 0.9509 0.24774 0.0
H75 H 0.88339 0.97617 0.23053 0.0
H76 H 0.79337 0.90946 0.14114 0.0
H77 H 0.77451 0.9138 0.12291 0.0
H78 H 0.64423 0.76055 0.12484 0.0
H79 H 0.6627 0.7567 0.143 0.0
C80 C 0.1298 0.91173 0.21591 0.0
Eu81 Eu 0.15383 0.90819 0.19663 0.0
C82 C 0.14707 0.93589 0.22617 0.0
C83 C 0.19659 0.95236 0.23003 0.0
C84 C 0.21038 0.97395 0.23994 0.0
C85 C 0.17504 0.97972 0.24613 0.0
C86 C 0.12548 0.96263 0.24221 0.0
C87 C 0.11183 0.94125 0.23236 0.0
C88 C 0.2511 0.93387 0.1899 0.0
C89 C 0.17579 1.01208 0.18406 0.0
C90 C 0.20999 0.9225 0.15465 0.0
Eu91 Eu 0.16815 0.91254 0.17268 0.0
C92 C 0.20322 0.9016 0.14408 0.0
C93 C 0.16024 0.89118 0.13803 0.0
C94 C 0.15877 0.87932 0.12755 0.0
C95 C 0.20021 0.87765 0.12291 0.0
C96 C 0.24214 0.88607 0.12909 0.0
C97 C 0.24358 0.89786 0.13954 0.0
C98 C 0.06679 0.87838 0.17715 0.0
C99 C 0.11651 0.8018 0.18413 0.0
O100 O 0.1262 0.93957 0.2086 0.0
O101 O 0.14575 0.88107 0.21253 0.0
O102 O 0.22919 0.90759 0.1981 0.0
O103 O 0.22157 0.94778 0.18597 0.0
O104 O 0.15998 0.98526 0.19271 0.0
O105 O 0.18704 0.99396 0.17579 0.0
O106 O 0.21622 0.89724 0.16223 0.0
O107 O 0.18308 0.94418 0.15726 0.0
O108 O 0.08479 0.88382 0.16787 0.0
O109 O 0.10338 0.88991 0.1833 0.0
O110 O 0.14807 0.83097 0.17676 0.0
O111 O 0.10673 0.82307 0.19215 0.0
H112 H 0.22447 0.94852 0.22542 0.0
H113 H 0.24882 0.98661 0.24273 0.0
H114 H 0.0968 0.96509 0.24682 0.0
H115 H 0.07327 0.92837 0.2296 0.0
H116 H 0.12864 0.89407 0.1413 0.0
H117 H 0.12626 0.8738 0.12299 0.0
H118 H 0.27452 0.88478 0.12576 0.0
H119 H 0.27728 0.90604 0.144 0.0
C120 C 0.23423 0.1179 0.31931 0.0
Eu121 Eu 0.26224 0.12285 0.33859 0.0
C122 C 0.22815 0.09371 0.30905 0.0
C123 C 0.26931 0.09461 0.3037 0.0
C124 C 0.26266 0.07579 0.29357 0.0
C125 C 0.21498 0.05636 0.28856 0.0
C126 C 0.17365 0.05404 0.29407 0.0
C127 C 0.1802 0.07254 0.30416 0.0
C128 C 0.33399 0.09759 0.34539 0.0
C129 C 0.17949 0.0202 0.35134 0.0
C130 C 0.30547 0.10901 0.3805 0.0
Eu131 Eu 0.27257 0.11928 0.36259 0.0
C132 C 0.32146 0.12984 0.39103 0.0
C133 C 0.29252 0.14507 0.39706 0.0
C134 C 0.30412 0.15691 0.40752 0.0
C135 C 0.3448 0.15367 0.41213 0.0
C136 C 0.37479 0.14035 0.40595 0.0
C137 C 0.36327 0.12864 0.39553 0.0
C138 C 0.20556 0.15352 0.35802 0.0
C139 C 0.32973 0.22994 0.35099 0.0
O140 O 0.20336 0.08971 0.32664 0.0
O141 O 0.28029 0.15023 0.3227 0.0
O142 O 0.33814 0.12353 0.33714 0.0
O143 O 0.29065 0.08375 0.34932 0.0
O144 O 0.19155 0.04649 0.34262 0.0
O145 O 0.20839 0.03823 0.35969 0.0
O146 O 0.33638 0.13314 0.37279 0.0
O147 O 0.25682 0.08903 0.37813 0.0
O148 O 0.21821 0.14851 0.36734 0.0
O149 O 0.23043 0.14158 0.35191 0.0
O150 O 0.33239 0.20179 0.35859 0.0
O151 O 0.2993 0.20779 0.34294 0.0
H152 H 0.30679 0.11075 0.30725 0.0
H153 H 0.29519 0.07794 0.28954 0.0
H154 H 0.13618 0.03837 0.29053 0.0
H155 H 0.14782 0.07139 0.30808 0.0
H156 H 0.25981 0.14601 0.39381 0.0
H157 H 0.27979 0.16628 0.41208 0.0
H158 H 0.40652 0.13776 0.40926 0.0
H159 H 0.38593 0.11668 0.39107 0.0
C160 C 0.92167 0.12527 0.31992 0.0
Eu161 Eu 0.91653 0.14479 0.3395 0.0
C162 C 0.95059 0.14394 0.31001 0.0
C163 C 0.94635 0.18 0.30378 0.0
C164 C 0.96817 0.19197 0.29388 0.0
C165 C 0.99468 0.16808 0.28991 0.0
C166 C 0.99962 0.13272 0.29623 0.0
C167 C 0.97794 0.12087 0.30611 0.0
C168 C 0.94316 0.24267 0.346 0.0
C169 C 1.02274 0.17129 0.35123 0.0
C170 C 0.92588 0.18982 0.38102 0.0
Eu171 Eu 0.92242 0.15746 0.36219 0.0
C172 C 0.90258 0.18459 0.39133 0.0
C173 C 0.87906 0.13773 0.39669 0.0
C174 C 0.86588 0.136 0.40711 0.0
C175 C 0.87636 0.18114 0.4124 0.0
C176 C 0.89759 0.22742 0.40685 0.0
C177 C 0.91059 0.2291 0.39646 0.0
C178 C 0.90501 0.06304 0.35641 0.0
C179 C 0.8087 0.10547 0.3514 0.0
O180 O 0.94179 0.11172 0.32734 0.0
O181 O 0.8962 0.1469 0.3234 0.0
O182 O 0.91281 0.21871 0.33841 0.0
O183 O 0.95918 0.21438 0.34966 0.0
O184 O 0.99274 0.1489 0.34322 0.0
O185 O 1.00639 0.18793 0.35894 0.0
O186 O 0.91016 0.206 0.37322 0.0
O187 O 0.93957 0.1564 0.37838 0.0
O188 O 0.93003 0.08741 0.36457 0.0
O189 O 0.88537 0.08708 0.35212 0.0
O190 O 0.83771 0.13218 0.3593 0.0
O191 O 0.83055 0.09942 0.34307 0.0
H192 H 0.92487 0.19797 0.3064 0.0
H193 H 0.96265 0.21862 0.2892 0.0
H194 H 1.01987 0.11369 0.29347 0.0
H195 H 0.98141 0.0924 0.31061 0.0
H196 H 0.87243 0.10275 0.39295 0.0
H197 H 0.84837 0.09946 0.41106 0.0
H198 H 0.90631 0.26292 0.41066 0.0
H199 H 0.92914 0.26579 0.39254 0.0
C200 C 0.92608 0.80916 0.31838 0.0
Eu201 Eu 0.89556 0.77874 0.33721 0.0
C202 C 0.90848 0.81414 0.30797 0.0
C203 C 0.86733 0.77293 0.30285 0.0
C204 C 0.85321 0.77939 0.29287 0.0
C205 C 0.87985 0.82719 0.28782 0.0
C206 C 0.92074 0.8682 0.29304 0.0
C207 C 0.9348 0.86173 0.30295 0.0
C208 C 0.79384 0.71212 0.34276 0.0
C209 C 0.87193 0.85626 0.35074 0.0
C210 C 0.83697 0.73107 0.38015 0.0
Eu211 Eu 0.87967 0.76434 0.36224 0.0
C212 C 0.84622 0.72137 0.39091 0.0
C213 C 0.88253 0.76091 0.3972 0.0
C214 C 0.88556 0.7525 0.40772 0.0
C215 C 0.85236 0.70447 0.41216 0.0
C216 C 0.81764 0.66443 0.40577 0.0
C217 C 0.81446 0.67288 0.39527 0.0
C218 C 0.97891 0.83592 0.3574 0.0
C219 C 0.93369 0.70825 0.35006 0.0
O220 O 0.92443 0.83882 0.32557 0.0
O221 O 0.9141 0.76337 0.3218 0.0
O222 O 0.81018 0.72269 0.33337 0.0
O223 O 0.83279 0.73659 0.34831 0.0
O224 O 0.8927 0.84955 0.34231 0.0
O225 O 0.85517 0.82264 0.35841 0.0
O226 O 0.83681 0.70053 0.37291 0.0
O227 O 0.85738 0.77899 0.37718 0.0
O228 O 0.96219 0.8221 0.36675 0.0
O229 O 0.94207 0.80961 0.35133 0.0
O230 O 0.90746 0.70856 0.35828 0.0
O231 O 0.93769 0.73507 0.34157 0.0
H232 H 0.84636 0.7357 0.3065 0.0
H233 H 0.8221 0.74671 0.28904 0.0
H234 H 0.94189 0.90561 0.28946 0.0
H235 H 0.96669 0.89413 0.3067 0.0
H236 H 0.90766 0.79874 0.39408 0.0
H237 H 0.91333 0.78384 0.41241 0.0
H238 H 0.79146 0.62706 0.40896 0.0
H239 H 0.78586 0.64189 0.39062 0.0
C240 C 0.93287 0.73582 0.88049 0.0
Eu241 Eu 0.92081 0.76804 0.86265 0.0
C242 C 0.91438 0.72548 0.89128 0.0
C243 C 0.91692 0.76449 0.89767 0.0
C244 C 0.90624 0.75575 0.90821 0.0
C245 C 0.89288 0.7079 0.91259 0.0
C246 C 0.88815 0.6683 0.90611 0.0
C247 C 0.89902 0.67709 0.89559 0.0
C248 C 0.8902 0.83764 0.8578 0.0
C249 C 0.81006 0.70969 0.8508 0.0
C250 C 0.91094 0.81153 0.81892 0.0
Eu251 Eu 0.91642 0.78246 0.83758 0.0
C252 C 0.93374 0.81703 0.80855 0.0
C253 C 0.95358 0.78588 0.80521 0.0
C254 C 0.97427 0.79179 0.79528 0.0
C255 C 0.97553 0.82895 0.78848 0.0
C256 C 0.95603 0.86028 0.79193 0.0
C257 C 0.93538 0.85433 0.80183 0.0
C258 C 0.95238 0.71591 0.84271 0.0
C259 C 1.01933 0.85975 0.85067 0.0
O260 O 0.90307 0.70467 0.87326 0.0
O261 O 0.95848 0.78389 0.87752 0.0
O262 O 0.89387 0.82469 0.86719 0.0
O263 O 0.90159 0.81173 0.85186 0.0
O264 O 0.83753 0.71075 0.85893 0.0
O265 O 0.83153 0.73731 0.84234 0.0
O266 O 0.94081 0.84308 0.82606 0.0
O267 O 0.88101 0.76482 0.82237 0.0
O268 O 0.94608 0.72715 0.8334 0.0
O269 O 0.93876 0.7405 0.84849 0.0
O270 O 0.99124 0.85248 0.8423 0.0
O271 O 1.00287 0.82731 0.85856 0.0
H272 H 0.92853 0.80223 0.89461 0.0
H273 H 0.90926 0.78673 0.91297 0.0
H274 H 0.87805 0.63106 0.90925 0.0
H275 H 0.89712 0.64647 0.89087 0.0
H276 H 0.95316 0.75707 0.81028 0.0
H277 H 0.98989 0.76771 0.79297 0.0
H278 H 0.95614 0.88912 0.78692 0.0
H279 H 0.92038 0.87886 0.80422 0.0
C280 C 0.30463 0.20475 0.87983 0.0
Eu281 Eu 0.27279 0.16062 0.86196 0.0
C282 C 0.31313 0.19603 0.89074 0.0
C283 C 0.28274 0.20047 0.89843 0.0
C284 C 0.29264 0.19739 0.90884 0.0
C285 C 0.33354 0.19023 0.91186 0.0
C286 C 0.36326 0.18446 0.90416 0.0
C287 C 0.35328 0.18747 0.89371 0.0
C288 C 0.20219 0.06041 0.85738 0.0
C289 C 0.3312 0.10745 0.85028 0.0
C290 C 0.22744 0.10714 0.81832 0.0
Eu291 Eu 0.25869 0.14116 0.83697 0.0
C292 C 0.22413 0.12282 0.80767 0.0
C293 C 0.25448 0.17348 0.80415 0.0
C294 C 0.24774 0.18708 0.79414 0.0
C295 C 0.21014 0.15041 0.78753 0.0
C296 C 0.18072 0.09961 0.79107 0.0
C297 C 0.18755 0.0861 0.80101 0.0
C298 C 0.32616 0.2434 0.84193 0.0
C299 C 0.18078 0.16625 0.85009 0.0
O300 O 0.33556 0.20443 0.87273 0.0
O301 O 0.25693 0.18408 0.87671 0.0
O302 O 0.21536 0.078 0.8667 0.0
O303 O 0.22856 0.0969 0.85129 0.0
O304 O 0.32995 0.13425 0.85831 0.0
O305 O 0.30361 0.1009 0.84177 0.0
O306 O 0.19926 0.11343 0.8252 0.0
O307 O 0.27246 0.11755 0.82192 0.0
O308 O 0.31516 0.22541 0.83266 0.0
O309 O 0.30103 0.20569 0.84777 0.0
O310 O 0.18747 0.14363 0.84195 0.0
O311 O 0.21442 0.18452 0.85775 0.0
H312 H 0.25192 0.20766 0.8964 0.0
H313 H 0.26924 0.20234 0.91455 0.0
H314 H 0.39452 0.17803 0.90622 0.0
H315 H 0.37755 0.18397 0.88799 0.0
H316 H 0.28279 0.20257 0.80917 0.0
H317 H 0.27108 0.22651 0.79166 0.0
H318 H 0.15227 0.07012 0.78613 0.0
H319 H 0.1637 0.04679 0.80354 0.0
C320 C 0.83548 0.10768 0.88015 0.0
Eu321 Eu 0.88005 0.11849 0.86241 0.0
C322 C 0.83967 0.12684 0.8908 0.0
C323 C 0.88327 0.14104 0.89694 0.0
C324 C 0.88309 0.15264 0.9074 0.0
C325 C 0.83928 0.1501 0.91192 0.0
C326 C 0.79646 0.13744 0.90565 0.0
C327 C 0.79671 0.12602 0.89522 0.0
C328 C 0.97967 0.14752 0.85735 0.0
C329 C 0.93201 0.22949 0.85057 0.0
C330 C 0.92965 0.12534 0.8185 0.0
Eu331 Eu 0.89677 0.12253 0.83726 0.0
C332 C 0.91447 0.10709 0.80778 0.0
C333 C 0.86471 0.08988 0.80399 0.0
C334 C 0.85177 0.0712 0.79386 0.0
C335 C 0.8883 0.06928 0.78734 0.0
C336 C 0.93799 0.08671 0.79122 0.0
C337 C 0.95084 0.10536 0.80129 0.0
C338 C 0.79491 0.08657 0.84282 0.0
C339 C 0.87209 0.01988 0.8505 0.0
O340 O 0.83196 0.13479 0.87261 0.0
O341 O 0.86194 0.08521 0.87773 0.0
O342 O 0.96323 0.14373 0.86676 0.0
O343 O 0.94245 0.13719 0.85142 0.0
O344 O 0.90666 0.20169 0.85872 0.0
O345 O 0.93697 0.20814 0.84193 0.0
O346 O 0.92366 0.09074 0.82531 0.0
O347 O 0.919 0.15968 0.82217 0.0
O348 O 0.81139 0.09366 0.83342 0.0
O349 O 0.83386 0.10043 0.84836 0.0
O350 O 0.8944 0.04858 0.84226 0.0
O351 O 0.85501 0.03623 0.85821 0.0
H352 H 0.91684 0.14167 0.89374 0.0
H353 H 0.91642 0.16154 0.91205 0.0
H354 H 0.76226 0.13541 0.90886 0.0
H355 H 0.76254 0.11488 0.89067 0.0
H356 H 0.8358 0.09033 0.80889 0.0
H357 H 0.81288 0.05723 0.79121 0.0
H358 H 0.96716 0.08607 0.78645 0.0
H359 H 0.9894 0.11821 0.80404 0.0
C360 C 0.75202 0.91916 0.65451 0.0
Eu361 Eu 0.78211 0.91575 0.67326 0.0
C362 C 0.7361 0.89501 0.64418 0.0
C363 C 0.773 0.89942 0.63696 0.0
C364 C 0.75953 0.8857 0.62665 0.0
C365 C 0.70886 0.86711 0.62329 0.0
C366 C 0.6715 0.86067 0.63057 0.0
C367 C 0.68502 0.87461 0.64089 0.0
C368 C 0.85886 0.89704 0.67851 0.0
C369 C 0.71966 0.80252 0.68398 0.0
C370 C 0.81596 0.91323 0.71537 0.0
Eu371 Eu 0.7903 0.90883 0.69591 0.0
C372 C 0.82582 0.94207 0.72523 0.0
C373 C 0.78656 0.94446 0.73067 0.0
C374 C 0.79583 0.96695 0.7405 0.0
C375 C 0.84452 0.98751 0.74514 0.0
C376 C 0.88386 0.98587 0.73959 0.0
C377 C 0.87463 0.96348 0.72979 0.0
C378 C 0.71888 0.9357 0.68971 0.0
C379 C 0.86917 1.01485 0.68428 0.0
O380 O 0.72027 0.90026 0.66229 0.0
O381 O 0.79986 0.93745 0.65723 0.0
O382 O 0.85849 0.92167 0.67038 0.0
O383 O 0.81589 0.87785 0.68304 0.0
O384 O 0.72137 0.83202 0.67625 0.0
O385 O 0.74943 0.82336 0.69213 0.0
O386 O 0.84914 0.93455 0.70793 0.0
O387 O 0.76887 0.88692 0.71197 0.0
O388 O 0.71284 0.90524 0.69727 0.0
O389 O 0.76302 0.95201 0.68603 0.0
O390 O 0.86206 0.98464 0.69222 0.0
O391 O 0.83585 0.99935 0.67665 0.0
H392 H 0.81286 0.91552 0.63914 0.0
H393 H 0.78915 0.89094 0.62124 0.0
H394 H 0.63229 0.84728 0.62821 0.0
H395 H 0.65587 0.87161 0.64619 0.0
H396 H 0.74831 0.92785 0.72746 0.0
H397 H 0.76434 0.96665 0.7446 0.0
H398 H 0.92187 1.00152 0.74287 0.0
H399 H 0.90554 0.96179 0.72586 0.0
C400 C 0.12653 0.83505 0.65466 0.0
Eu401 Eu 0.13539 0.87414 0.673 0.0
C402 C 0.14703 0.84474 0.64397 0.0
C403 C 0.12821 0.86553 0.63658 0.0
C404 C 0.14151 0.86796 0.6262 0.0
C405 C 0.17406 0.84974 0.62288 0.0
C406 C 0.19383 0.83 0.63029 0.0
C407 C 0.1804 0.82743 0.64069 0.0
C408 C 0.16944 0.97481 0.67795 0.0
C409 C 0.24379 0.92403 0.68521 0.0
C410 C 0.12873 0.90592 0.71639 0.0
Eu411 Eu 0.13546 0.88464 0.69707 0.0
C412 C 0.1016 0.88769 0.72641 0.0
C413 C 0.1025 0.84845 0.73216 0.0
C414 C 0.08093 0.83615 0.74207 0.0
C415 C 0.05822 0.86293 0.74647 0.0
C416 C 0.05673 0.90151 0.74061 0.0
C417 C 0.07808 0.91366 0.73073 0.0
C418 C 0.11058 0.78852 0.68975 0.0
C419 C 0.03469 0.86663 0.68395 0.0
O420 O 0.15319 0.8296 0.66206 0.0
O421 O 0.10244 0.85901 0.65768 0.0
O422 O 0.16591 0.95809 0.6686 0.0
O423 O 0.15649 0.93744 0.68398 0.0
O424 O 0.21658 0.89388 0.67747 0.0
O425 O 0.22074 0.93212 0.69313 0.0
O426 O 0.10408 0.91298 0.70888 0.0
O427 O 0.15876 0.88882 0.71318 0.0
O428 O 0.13513 0.80851 0.69823 0.0
O429 O 0.0979 0.81918 0.68593 0.0
O430 O 0.05879 0.87798 0.69292 0.0
O431 O 0.0545 0.85837 0.67557 0.0
H432 H 0.10155 0.87825 0.63875 0.0
H433 H 0.12441 0.88211 0.62071 0.0
H434 H 0.21898 0.81561 0.628 0.0
H435 H 0.19494 0.81042 0.64612 0.0
H436 H 0.1208 0.82804 0.72911 0.0
H437 H 0.08347 0.80676 0.74642 0.0
H438 H 0.03934 0.92271 0.74371 0.0
H439 H 0.07724 0.94441 0.72655 0.0
C440 C 0.20468 0.28906 0.65441 0.0
Eu441 Eu 0.17183 0.2609 0.67323 0.0
C442 C 0.19592 0.30285 0.64392 0.0
C443 C 0.18139 0.26645 0.63597 0.0
C444 C 0.1809 0.28028 0.62573 0.0
C445 C 0.19527 0.33105 0.6231 0.0
C446 C 0.20771 0.36711 0.63108 0.0
C447 C 0.20832 0.35325 0.64137 0.0
C448 C 0.07629 0.18529 0.67863 0.0
C449 C 0.12098 0.3242 0.68375 0.0
C450 C 0.1353 0.2285 0.71531 0.0
Eu451 Eu 0.15709 0.25389 0.69587 0.0
C452 C 0.1528 0.21795 0.72529 0.0
C453 C 0.19199 0.25718 0.73121 0.0
C454 C 0.20305 0.24704 0.74116 0.0
C455 C 0.1748 0.19766 0.74548 0.0
C456 C 0.13694 0.15822 0.7394 0.0
C457 C 0.12598 0.16828 0.72948 0.0
C458 C 0.25503 0.32528 0.68965 0.0
C459 C 0.18513 0.17465 0.68448 0.0
O460 O 0.21642 0.32169 0.66202 0.0
O461 O 0.17631 0.24139 0.65733 0.0
O462 O 0.10084 0.18456 0.67052 0.0
O463 O 0.10066 0.22847 0.68304 0.0
O464 O 0.14873 0.32208 0.67604 0.0
O465 O 0.11247 0.29489 0.69197 0.0
O466 O 0.1237 0.19529 0.70788 0.0
O467 O 0.15669 0.27567 0.71193 0.0
O468 O 0.23063 0.33138 0.69721 0.0
O469 O 0.22744 0.28099 0.686 0.0
O470 O 0.16115 0.18169 0.69227 0.0
O471 O 0.20306 0.20817 0.67689 0.0
H472 H 0.1724 0.2275 0.63762 0.0
H473 H 0.17145 0.25161 0.6198 0.0
H474 H 0.21795 0.40632 0.62935 0.0
H475 H 0.22001 0.38237 0.64728 0.0
H476 H 0.21324 0.29598 0.72827 0.0
H477 H 0.23253 0.27827 0.74562 0.0
H478 H 0.11522 0.1195 0.74237 0.0
H479 H 0.09539 0.13727 0.72516 0.0
C480 C 0.8069 0.55768 0.54961 0.0
Eu481 Eu 0.80085 0.58512 0.5308 0.0
C482 C 0.78194 0.54813 0.55988 0.0
C483 C 0.76273 0.5788 0.56386 0.0
C484 C 0.74109 0.56963 0.57377 0.0
C485 C 0.73785 0.52941 0.57991 0.0
C486 C 0.75722 0.49896 0.57586 0.0
C487 C 0.77878 0.50813 0.56599 0.0
C488 C 0.76011 0.64757 0.52565 0.0
C489 C 0.69497 0.50819 0.5187 0.0
C490 C 0.78593 0.6239 0.48786 0.0
Eu491 Eu 0.79231 0.59347 0.50635 0.0
C492 C 0.80673 0.63558 0.47722 0.0
C493 C 0.78258 0.59874 0.46943 0.0
C494 C 0.79585 0.61138 0.4591 0.0
C495 C 0.83334 0.66133 0.45627 0.0
C496 C 0.8591 0.69769 0.46409 0.0
C497 C 0.84576 0.68504 0.47445 0.0
C498 C 0.81067 0.51789 0.51261 0.0
C499 C 0.90627 0.65753 0.51735 0.0
O500 O 0.78126 0.52489 0.54226 0.0
O501 O 0.83253 0.60524 0.54631 0.0
O502 O 0.76942 0.63927 0.53496 0.0
O503 O 0.77385 0.62298 0.51995 0.0
O504 O 0.72622 0.51372 0.5264 0.0
O505 O 0.70956 0.5425 0.5112 0.0
O506 O 0.81161 0.6557 0.49535 0.0
O507 O 0.76219 0.57584 0.49078 0.0
O508 O 0.7903 0.5181 0.50381 0.0
O509 O 0.82736 0.56104 0.51693 0.0
O510 O 0.87775 0.64893 0.50895 0.0
O511 O 0.88576 0.63532 0.52634 0.0
H512 H 0.76463 0.60996 0.55934 0.0
H513 H 0.72654 0.59381 0.57662 0.0
H514 H 0.75662 0.46849 0.58041 0.0
H515 H 0.79366 0.48418 0.56316 0.0
H516 H 0.75181 0.56052 0.47125 0.0
H517 H 0.77504 0.58255 0.45329 0.0
H518 H 0.88887 0.73625 0.46218 0.0
H519 H 0.86491 0.7145 0.48023 0.0
C520 C 0.48408 0.25679 0.55052 0.0
Eu521 Eu 0.45456 0.2241 0.53176 0.0
C522 C 0.48864 0.24096 0.56109 0.0
C523 C 0.45099 0.1948 0.56554 0.0
C524 C 0.45752 0.18141 0.57556 0.0
C525 C 0.50184 0.21387 0.58131 0.0
C526 C 0.53935 0.25983 0.57677 0.0
C527 C 0.53275 0.27319 0.56681 0.0
C528 C 0.38861 0.1227 0.52612 0.0
C529 C 0.53223 0.19905 0.51858 0.0
C530 C 0.40956 0.16424 0.48874 0.0
Eu531 Eu 0.44209 0.20825 0.50658 0.0
C532 C 0.39625 0.16897 0.47799 0.0
C533 C 0.42592 0.21327 0.47208 0.0
C534 C 0.416 0.2137 0.46153 0.0
C535 C 0.37637 0.16982 0.45672 0.0
C536 C 0.34586 0.12625 0.46276 0.0
C537 C 0.35567 0.1259 0.47327 0.0
C538 C 0.512 0.30785 0.51176 0.0
C539 C 0.38218 0.25855 0.51858 0.0
O540 O 0.51376 0.25355 0.54357 0.0
O541 O 0.43836 0.24409 0.54695 0.0
O542 O 0.39809 0.13892 0.53554 0.0
O543 O 0.41385 0.16159 0.52058 0.0
O544 O 0.5248 0.21931 0.52702 0.0
O545 O 0.5004 0.18415 0.5106 0.0
O546 O 0.37851 0.16163 0.49611 0.0
O547 O 0.45812 0.18961 0.49138 0.0
O548 O 0.49901 0.29181 0.50233 0.0
O549 O 0.48557 0.27034 0.51765 0.0
O550 O 0.38428 0.23328 0.51037 0.0
O551 O 0.40937 0.26428 0.5271 0.0
H552 H 0.41681 0.169 0.56125 0.0
H553 H 0.42833 0.14527 0.57875 0.0
H554 H 0.57382 0.28577 0.58095 0.0
H555 H 0.56238 0.30894 0.56354 0.0
H556 H 0.4577 0.24692 0.47553 0.0
H557 H 0.44063 0.24761 0.45707 0.0
H558 H 0.31493 0.09197 0.4593 0.0
H559 H 0.33248 0.09121 0.47765 0.0
C560 C 0.79708 0.24145 0.54922 0.0
Eu561 Eu 0.81843 0.23857 0.52972 0.0
C562 C 0.81445 0.26747 0.55939 0.0
C563 C 0.8527 0.26511 0.56524 0.0
C564 C 0.86346 0.28427 0.57535 0.0
C565 C 0.83582 0.30564 0.5799 0.0
C566 C 0.79886 0.30946 0.57392 0.0
C567 C 0.78821 0.29047 0.56383 0.0
C568 C 0.91693 0.26848 0.52314 0.0
C569 C 0.84234 0.34411 0.51826 0.0
C570 C 0.86484 0.25048 0.48813 0.0
Eu571 Eu 0.83139 0.24553 0.50691 0.0
C572 C 0.85962 0.22696 0.47783 0.0
C573 C 0.81451 0.20864 0.47196 0.0
C574 C 0.81364 0.19498 0.4616 0.0
C575 C 0.85776 0.1992 0.45689 0.0
C576 C 0.9023 0.21607 0.46289 0.0
C577 C 0.90314 0.22968 0.47322 0.0
C578 C 0.73665 0.22677 0.51261 0.0
C579 C 0.78169 0.13195 0.51764 0.0
O580 O 0.78709 0.26509 0.54194 0.0
O581 O 0.81703 0.21456 0.54567 0.0
O582 O 0.89461 0.23874 0.5309 0.0
O583 O 0.88715 0.28266 0.51954 0.0
O584 O 0.8196 0.31329 0.52613 0.0
O585 O 0.86037 0.32899 0.51058 0.0
O586 O 0.88086 0.23459 0.49594 0.0
O587 O 0.83136 0.26409 0.49078 0.0
O588 O 0.76074 0.25158 0.50442 0.0
O589 O 0.761 0.20753 0.51696 0.0
O590 O 0.808 0.16131 0.50976 0.0
O591 O 0.77474 0.15307 0.52597 0.0
H592 H 0.87344 0.24731 0.56211 0.0
H593 H 0.89223 0.2808 0.57973 0.0
H594 H 0.77765 0.3267 0.57708 0.0
H595 H 0.75828 0.29256 0.55959 0.0
H596 H 0.78041 0.2065 0.47525 0.0
H597 H 0.77871 0.18208 0.45721 0.0
H598 H 0.93735 0.22104 0.45949 0.0
H599 H 0.93869 0.2446 0.4775 0.0
C600 C 0.90116 0.45203 0.65259 0.0
Eu601 Eu 0.92906 0.45586 0.67187 0.0
C602 C 0.89075 0.42553 0.6425 0.0
C603 C 0.92042 0.40496 0.63865 0.0
C604 C 0.91106 0.38319 0.62874 0.0
C605 C 0.87178 0.38141 0.62251 0.0
C606 C 0.84238 0.40216 0.62644 0.0
C607 C 0.85162 0.42368 0.63631 0.0
C608 C 1.00113 0.42917 0.67774 0.0
C609 C 0.85188 0.35063 0.68398 0.0
C610 C 0.97123 0.44879 0.71313 0.0
Eu611 Eu 0.9401 0.45162 0.69448 0.0
C612 C 0.98703 0.47226 0.72348 0.0
C613 C 0.95392 0.48123 0.72968 0.0
C614 C 0.96481 0.49325 0.74013 0.0
C615 C 1.00889 0.49638 0.74461 0.0
C616 C 0.04342 0.49039 0.73826 0.0
C617 C 0.03247 0.47825 0.72783 0.0
C618 C 0.86339 0.47079 0.68935 0.0
C619 C 1.00142 0.56403 0.68334 0.0
O620 O 0.86889 0.42884 0.66009 0.0
O621 O 0.9486 0.47818 0.65579 0.0
O622 O 1.00573 0.45808 0.67 0.0
O623 O 0.95781 0.41388 0.68177 0.0
O624 O 0.85712 0.38044 0.67606 0.0
O625 O 0.88724 0.36739 0.69124 0.0
O626 O 1.00281 0.46849 0.70534 0.0
O627 O 0.92319 0.42995 0.7105 0.0
O628 O 0.86398 0.44662 0.69754 0.0
O629 O 0.90594 0.48896 0.68472 0.0
O630 O 1.00073 0.53545 0.69118 0.0
O631 O 0.97088 0.54187 0.67534 0.0
H632 H 0.95106 0.40614 0.64324 0.0
H633 H 0.93446 0.3676 0.62596 0.0
H634 H 0.81281 0.40286 0.62181 0.0
H635 H 0.82867 0.4399 0.63904 0.0
H636 H 0.91853 0.4769 0.72658 0.0
H637 H 0.93799 0.49869 0.74477 0.0
H638 H 0.07766 0.4925 0.74148 0.0
H639 H 0.05837 0.47101 0.72327 0.0
C640 C 0.5895 0.45683 0.65263 0.0
Eu641 Eu 0.58583 0.48007 0.672 0.0
C642 C 0.61696 0.47336 0.64258 0.0
C643 C 0.61799 0.51323 0.6367 0.0
C644 C 0.63851 0.52351 0.62669 0.0
C645 C 0.65794 0.49385 0.62226 0.0
C646 C 0.65838 0.45519 0.62829 0.0
C647 C 0.63803 0.44499 0.63828 0.0
C648 C 0.6131 0.5785 0.67802 0.0
C649 C 0.69156 0.50657 0.68383 0.0
C650 C 0.59645 0.53101 0.71341 0.0
Eu651 Eu 0.59235 0.49609 0.69478 0.0
C652 C 0.57236 0.52573 0.72362 0.0
C653 C 0.54544 0.47812 0.72866 0.0
C654 C 0.53124 0.47564 0.73902 0.0
C655 C 0.54406 0.52071 0.74459 0.0
C656 C 0.56874 0.56792 0.73935 0.0
C657 C 0.58276 0.57036 0.72901 0.0
C658 C 0.57418 0.40093 0.68959 0.0
C659 C 0.47913 0.44459 0.68391 0.0
O660 O 0.61134 0.44588 0.66014 0.0
O661 O 0.56364 0.47843 0.65591 0.0
O662 O 0.58335 0.55444 0.67036 0.0
O663 O 0.62872 0.55037 0.68189 0.0
O664 O 0.66175 0.48424 0.6758 0.0
O665 O 0.67586 0.52403 0.69151 0.0
O666 O 0.58042 0.54608 0.70548 0.0
O667 O 0.61048 0.49762 0.71097 0.0
O668 O 0.59881 0.426 0.69772 0.0
O669 O 0.55484 0.42459 0.68503 0.0
O670 O 0.5083 0.47227 0.6917 0.0
O671 O 0.50033 0.43596 0.67578 0.0
H672 H 0.60183 0.53569 0.63971 0.0
H673 H 0.63762 0.55364 0.62228 0.0
H674 H 0.67409 0.43235 0.62526 0.0
H675 H 0.63757 0.41384 0.64256 0.0
H676 H 0.5369 0.44304 0.72469 0.0
H677 H 0.51108 0.43849 0.74273 0.0
H678 H 0.57933 0.60339 0.74338 0.0
H679 H 0.6039 0.60756 0.72534 0.0
C680 C 0.58833 0.13976 0.65271 0.0
Eu681 Eu 0.56469 0.11279 0.67198 0.0
C682 C 0.57021 0.15052 0.64288 0.0
C683 C 0.52292 0.11531 0.6384 0.0
C684 C 0.50933 0.12476 0.62863 0.0
C685 C 0.54269 0.16958 0.62314 0.0
C686 C 0.5895 0.20503 0.62775 0.0
C687 C 0.60302 0.19562 0.63748 0.0
C688 C 0.46804 0.04268 0.679 0.0
C689 C 0.54405 0.19498 0.68469 0.0
C690 C 0.50918 0.07122 0.71412 0.0
Eu691 Eu 0.55151 0.10264 0.69611 0.0
C692 C 0.51497 0.0558 0.72463 0.0
C693 C 0.55968 0.0849 0.73048 0.0
C694 C 0.56119 0.07343 0.74089 0.0
C695 C 0.51817 0.03253 0.74565 0.0
C696 C 0.47408 1.0027 0.73967 0.0
C697 C 0.47257 1.01419 0.72929 0.0
C698 C 0.65268 0.16767 0.69135 0.0
C699 C 0.60043 0.04204 0.68431 0.0
O700 O 0.59994 0.17266 0.66023 0.0
O701 O 0.56656 0.09224 0.65595 0.0
O702 O 0.48864 0.03758 0.67065 0.0
O703 O 0.49836 0.08588 0.68287 0.0
O704 O 0.55591 0.18195 0.67579 0.0
O705 O 0.53577 0.16753 0.69316 0.0
O706 O 0.50179 0.03973 0.70646 0.0
O707 O 0.53782 0.11968 0.71162 0.0
O708 O 0.63553 0.15525 0.70069 0.0
O709 O 0.61545 0.14345 0.68531 0.0
O710 O 0.57022 0.04026 0.69192 0.0
O711 O 0.6102 0.0733 0.67635 0.0
H712 H 0.49692 0.08 0.64233 0.0
H713 H 0.47339 0.0962 0.62526 0.0
H714 H 0.61599 0.24005 0.62378 0.0
H715 H 0.63981 0.22325 0.64072 0.0
H716 H 0.59292 0.11738 0.7271 0.0
H717 H 0.59572 0.0971 0.74528 0.0
H718 H 0.43985 0.97174 0.74312 0.0
H719 H 0.43743 0.99166 0.72498 0.0
C720 C 0.59895 0.06694 0.21384 0.0
Eu721 Eu 0.5872 0.10075 0.19617 0.0
C722 C 0.57863 0.05237 0.22442 0.0
C723 C 0.56344 0.08198 0.23024 0.0
C724 C 0.5506 0.07083 0.24066 0.0
C725 C 0.55244 0.02975 0.24545 0.0
C726 C 0.56639 0.9995 0.23951 0.0
C727 C 0.57922 1.01066 0.22912 0.0
C728 C 0.55596 0.16984 0.19128 0.0
C729 C 0.47635 0.04236 0.18425 0.0
C730 C 0.57943 0.14667 0.15246 0.0
Eu731 Eu 0.58323 0.11571 0.17106 0.0
C732 C 0.60463 0.15597 0.14223 0.0
C733 C 0.62687 0.12733 0.13864 0.0
C734 C 0.64994 0.13707 0.12887 0.0
C735 C 0.65166 0.17592 0.12251 0.0
C736 C 0.62906 0.20419 0.12615 0.0
C737 C 0.60603 0.19442 0.13588 0.0
C738 C 0.62026 0.04997 0.17623 0.0
C739 C 0.68578 0.19339 0.18438 0.0
O740 O 0.5723 0.03637 0.20625 0.0
O741 O 0.62116 0.11575 0.21141 0.0
O742 O 0.55953 0.15689 0.20069 0.0
O743 O 0.56764 0.14407 0.18537 0.0
O744 O 0.50381 0.04393 0.19242 0.0
O745 O 0.49791 0.06956 0.17573 0.0
O746 O 0.60643 0.1778 0.15992 0.0
O747 O 0.55128 0.09892 0.15553 0.0
O748 O 0.61367 0.06095 0.16691 0.0
O749 O 0.60631 0.07442 0.18198 0.0
O750 O 0.65807 0.18559 0.17592 0.0
O751 O 0.66917 0.16114 0.1923 0.0
H752 H 0.56279 0.11451 0.22682 0.0
H753 H 0.53999 0.09483 0.24503 0.0
H754 H 0.56946 0.9684 0.24299 0.0
H755 H 0.59141 0.98768 0.22483 0.0
H756 H 0.62642 0.09749 0.14339 0.0
H757 H 0.66697 0.11458 0.12632 0.0
H758 H 0.62848 0.23351 0.12141 0.0
H759 H 0.58893 0.21685 0.13844 0.0
C760 C 0.97111 0.53946 0.21403 0.0
Eu761 Eu 0.93798 0.49466 0.19628 0.0
C762 C 0.9845 0.53239 0.22463 0.0
C763 C 0.95308 0.48798 0.23038 0.0
C764 C 0.96365 0.48513 0.24079 0.0
C765 C 1.00596 0.52645 0.24564 0.0
C766 C 0.03795 0.57023 0.23977 0.0
C767 C 0.02735 0.57308 0.22939 0.0
C768 C 0.86793 0.39461 0.19145 0.0
C769 C 0.99644 0.44015 0.18496 0.0
C770 C 0.89669 0.44363 0.15251 0.0
Eu771 Eu 0.9268 0.47628 0.17126 0.0
C772 C 0.89281 0.45984 0.14191 0.0
C773 C 0.93382 0.50184 0.13696 0.0
C774 C 0.92787 0.51558 0.12692 0.0
C775 C 0.88082 0.48766 0.12165 0.0
C776 C 0.84006 0.44581 0.12668 0.0
C777 C 0.84604 0.43208 0.13665 0.0
C778 C 0.99291 0.57859 0.1765 0.0
C779 C 0.84703 0.50041 0.1841 0.0
O780 O 1.00192 0.54275 0.20654 0.0
O781 O 0.92248 0.51425 0.21142 0.0
O782 O 0.88009 0.41185 0.20083 0.0
O783 O 0.89503 0.43133 0.18545 0.0
O784 O 0.99379 0.46626 0.19298 0.0
O785 O 0.9711 0.43537 0.1762 0.0
O786 O 0.86768 0.44819 0.15944 0.0
O787 O 0.94184 0.4545 0.15612 0.0
O788 O 0.98353 0.5609 0.16719 0.0
O789 O 0.9672 0.54045 0.18221 0.0
O790 O 0.8551 0.47873 0.17595 0.0
O791 O 0.8795 0.51808 0.19195 0.0
H792 H 0.91967 0.45603 0.22691 0.0
H793 H 0.93831 0.4509 0.24511 0.0
H794 H 0.07011 0.60322 0.2433 0.0
H795 H 0.05179 0.60792 0.22515 0.0
H796 H 0.97023 0.52419 0.14085 0.0
H797 H 0.9598 0.54855 0.12334 0.0
H798 H 0.80344 0.4233 0.12287 0.0
H799 H 0.81384 0.39952 0.14028 0.0
C800 C 0.49989 0.43946 0.21334 0.0
Eu801 Eu 0.54516 0.45077 0.19566 0.0
C802 C 0.50474 0.45877 0.22395 0.0
C803 C 0.55231 0.48553 0.22898 0.0
C804 C 0.55465 0.49901 0.23939 0.0
C805 C 0.50944 0.48569 0.24495 0.0
C806 C 0.46217 0.46022 0.23975 0.0
C807 C 0.4599 0.4469 0.22938 0.0
C808 C 0.64485 0.47997 0.19072 0.0
C809 C 0.59762 0.56178 0.18382 0.0
C810 C 0.59512 0.45742 0.15179 0.0
Eu811 Eu 0.56216 0.45455 0.17054 0.0
C812 C 0.58057 0.43873 0.14105 0.0
C813 C 0.53685 0.4345 0.13617 0.0
C814 C 0.52559 0.41769 0.12589 0.0
C815 C 0.55799 0.40514 0.12028 0.0
C816 C 0.60111 0.40864 0.12529 0.0
C817 C 0.61225 0.4253 0.13551 0.0
C818 C 0.46012 0.41834 0.17607 0.0
C819 C 0.53764 0.35202 0.18383 0.0
O820 O 0.49713 0.4672 0.20583 0.0
O821 O 0.5263 0.41694 0.21092 0.0
O822 O 0.62826 0.4764 0.20011 0.0
O823 O 0.60774 0.46936 0.18473 0.0
O824 O 0.57201 0.53405 0.19196 0.0
O825 O 0.60252 0.54025 0.1752 0.0
O826 O 0.5904 0.42357 0.15867 0.0
O827 O 0.58352 0.4912 0.15541 0.0
O828 O 0.47668 0.42528 0.16667 0.0
O829 O 0.49908 0.43245 0.18161 0.0
O830 O 0.5596 0.38048 0.17555 0.0
O831 O 0.52072 0.36852 0.19154 0.0
H832 H 0.58744 0.49521 0.22492 0.0
H833 H 0.59176 0.51956 0.24311 0.0
H834 H 0.42665 0.44913 0.24378 0.0
H835 H 0.42278 0.42605 0.22565 0.0
H836 H 0.51158 0.44435 0.14027 0.0
H837 H 0.49197 0.41524 0.12229 0.0
H838 H 0.62617 0.39804 0.12134 0.0
H839 H 0.64598 0.42785 0.13911 0.0
C840 C 0.417 0.25117 0.98745 0.0
Eu841 Eu 0.44613 0.2477 1.00624 0.0
C842 C 0.39911 0.22775 0.97714 0.0
C843 C 0.42844 0.21332 0.97102 0.0
C844 C 0.41658 0.20134 0.96059 0.0
C845 C 0.37532 0.20374 0.95605 0.0
C846 C 0.34433 0.2153 0.96233 0.0
C847 C 0.35625 0.22737 0.97274 0.0
C848 C 0.52384 0.23223 1.01213 0.0
C849 C 0.38482 0.13458 1.01728 0.0
C850 C 0.4789 0.24726 0.04856 0.0
Eu851 Eu 0.45359 0.24259 0.02908 0.0
C852 C 0.4919 0.27753 0.05827 0.0
C853 C 0.4584 0.29173 0.06287 0.0
C854 C 0.46964 0.31561 0.07258 0.0
C855 C 0.51465 0.32597 0.07791 0.0
C856 C 0.54821 0.31211 0.07322 0.0
C857 C 0.53702 0.28838 0.06354 0.0
C858 C 0.38295 0.26969 0.02236 0.0
C859 C 0.53274 0.34832 1.01724 0.0
O860 O 0.3852 0.23534 0.99526 0.0
O861 O 0.46416 0.2653 0.99009 0.0
O862 O 0.52413 0.25684 1.00393 0.0
O863 O 0.48012 0.21161 1.01639 0.0
O864 O 0.38729 0.16284 1.00922 0.0
O865 O 0.41245 0.15689 0.02561 0.0
O866 O 0.51228 0.26465 0.04106 0.0
O867 O 0.43159 0.22495 0.04522 0.0
O868 O 0.37636 0.24021 0.03015 0.0
O869 O 0.42709 0.28491 0.0188 0.0
O870 O 0.52495 0.31888 0.02535 0.0
O871 O 0.49998 0.33174 1.00949 0.0
H872 H 0.4618 0.21329 0.97416 0.0
H873 H 0.44054 0.19152 0.95601 0.0
H874 H 0.31234 0.21755 0.95907 0.0
H875 H 0.33336 0.23893 0.97724 0.0
H876 H 0.42309 0.28363 0.05907 0.0
H877 H 0.44295 0.32578 0.07594 0.0
H878 H 0.58252 0.31815 0.07716 0.0
H879 H 0.56315 0.27715 0.06028 0.0
C880 C 0.77668 0.17051 0.98786 0.0
Eu881 Eu 0.79515 0.20663 1.0066 0.0
C882 C 0.79679 0.17331 0.97731 0.0
C883 C 0.8136 0.21708 0.97108 0.0
C884 C 0.8254 0.21581 0.96067 0.0
C885 C 0.82053 0.17075 0.95628 0.0
C886 C 0.80532 0.12768 0.96263 0.0
C887 C 0.7936 0.12896 0.973 0.0
C888 C 0.8347 0.30522 1.01345 0.0
C889 C 0.90434 0.2511 0.01792 0.0
C890 C 0.80435 0.25063 0.05011 0.0
Eu891 Eu 0.79861 0.21895 0.03111 0.0
C892 C 0.77925 0.23558 0.06041 0.0
C893 C 0.77992 0.19691 0.06642 0.0
C894 C 0.75946 0.18663 0.07643 0.0
C895 C 0.73831 0.21505 0.08073 0.0
C896 C 0.73665 0.2528 0.0746 0.0
C897 C 0.75702 0.26305 0.06463 0.0
C898 C 0.76221 0.11717 0.02547 0.0
C899 C 0.69474 0.19613 0.01887 0.0
O900 O 0.79267 0.15193 0.9952 0.0
O901 O 0.76897 0.20757 0.99101 0.0
O902 O 0.84786 0.29258 1.00486 0.0
O903 O 0.79916 0.26511 0.01759 0.0
O904 O 0.87541 0.22298 1.01016 0.0
O905 O 0.88371 0.25944 0.02626 0.0
O906 O 0.77937 0.25884 0.04279 0.0
O907 O 0.82992 0.22879 0.04669 0.0
O908 O 0.76806 0.13333 0.03487 0.0
O909 O 0.77691 0.15619 0.01989 0.0
O910 O 0.71994 0.20857 0.02772 0.0
O911 O 0.71412 0.1894 1.01023 0.0
H912 H 0.81602 0.25175 0.97413 0.0
H913 H 0.83619 0.24939 0.95596 0.0
H914 H 0.80139 0.09247 0.95951 0.0
H915 H 0.78028 0.09452 0.97758 0.0
H916 H 0.79691 0.17509 0.06346 0.0
H917 H 0.76134 0.15724 0.08092 0.0
H918 H 0.71958 0.27461 0.07753 0.0
H919 H 0.75602 0.29317 0.06024 0.0
C920 C 0.87896 0.62738 0.98854 0.0
Eu921 Eu 0.83611 0.59565 1.00651 0.0
C922 C 0.87171 0.63937 0.97778 0.0
C923 C 0.86033 0.60268 0.96999 0.0
C924 C 0.86009 0.6152 0.95964 0.0
C925 C 0.87167 0.66489 0.95675 0.0
C926 C 0.8814 0.7012 0.96454 0.0
C927 C 0.8817 0.68868 0.97493 0.0
C928 C 0.73479 0.52821 1.01071 0.0
C929 C 0.78151 0.65233 0.018 0.0
C930 C 0.79444 0.55478 0.04965 0.0
Eu931 Eu 0.81997 0.5841 0.03052 0.0
C932 C 0.81173 0.54747 0.05987 0.0
C933 C 0.86156 0.57979 0.06364 0.0
C934 C 0.87545 0.57203 0.07354 0.0
C935 C 0.83978 0.53182 0.07983 0.0
C936 C 0.79019 0.4995 0.07594 0.0
C937 C 0.77642 0.50722 0.0661 0.0
C938 C 0.91695 0.65702 0.02402 0.0
C939 C 0.84385 0.50354 0.01797 0.0
O940 O 0.88298 0.65879 0.99598 0.0
O941 O 0.85412 0.57906 0.99133 0.0
O942 O 0.75328 0.541 1.00147 0.0
O943 O 0.77095 0.55289 1.01696 0.0
O944 O 0.81318 0.6557 1.01051 0.0
O945 O 0.77235 0.62106 0.02594 0.0
O946 O 0.7917 0.52411 0.04226 0.0
O947 O 0.8101 0.60152 0.04642 0.0
O948 O 0.89467 0.66037 0.03227 0.0
O949 O 0.88814 0.61373 0.02002 0.0
O950 O 0.82758 0.51435 0.02658 0.0
O951 O 0.85503 0.53267 1.00966 0.0
H952 H 0.85325 0.56458 0.97187 0.0
H953 H 0.85279 0.58641 0.95385 0.0
H954 H 0.88953 0.73957 0.96259 0.0
H955 H 0.89104 0.71804 0.9807 0.0
H956 H 0.8895 0.61118 0.05899 0.0
H957 H 0.91374 0.59809 0.07634 0.0
H958 H 0.76193 0.46792 0.08051 0.0
H959 H 0.73779 0.48176 0.06337 0.0
C960 C 0.46136 0.89269 0.88299 0.0
Eu961 Eu 0.46576 0.92035 0.86368 0.0
C962 C 0.43667 0.88458 0.89324 0.0
C963 C 0.4234 0.91916 0.89764 0.0
C964 C 0.40184 0.91033 0.90757 0.0
C965 C 0.39296 0.86669 0.91327 0.0
C966 C 0.40674 0.8326 0.90881 0.0
C967 C 0.42803 0.84133 0.89894 0.0
C968 C 0.44014 0.99151 0.85668 0.0
C969 C 0.36294 0.83744 0.85089 0.0
C970 C 0.45097 0.96189 0.82164 0.0
Eu971 Eu 0.46186 0.92973 0.83958 0.0
C972 C 0.47182 0.97746 0.81114 0.0
C973 C 0.4983 0.95614 0.80614 0.0
C974 C 0.51156 0.96672 0.79571 0.0
C975 C 0.49825 0.99849 0.79009 0.0
C976 C 0.47352 0.02122 0.79527 0.0
C977 C 0.46044 1.01075 0.80567 0.0
C978 C 0.49592 0.86273 0.84434 0.0
C979 C 0.57259 0.98753 0.85113 0.0
O980 O 0.43452 0.8613 0.87561 0.0
O981 O 0.4914 0.93949 0.87969 0.0
O982 O 0.46608 0.99619 0.86495 0.0
O983 O 0.42649 0.94801 0.85283 0.0
O984 O 0.38912 0.8499 0.85964 0.0
O985 O 0.38084 0.86597 0.84251 0.0
O986 O 0.47526 0.99309 0.82931 0.0
O987 O 0.43159 0.91334 0.82404 0.0
O988 O 0.49109 0.87512 0.83499 0.0
O989 O 0.48415 0.88801 0.85039 0.0
O990 O 0.54422 0.98982 0.84354 0.0
O991 O 0.55072 0.95759 0.85926 0.0
H992 H 0.42983 0.95297 0.89344 0.0
H993 H 0.39178 0.93744 0.91076 0.0
H994 H 0.40196 0.79944 0.91303 0.0
H995 H 0.43845 0.81438 0.89579 0.0
H996 H 0.50759 0.93038 0.81021 0.0
H997 H 0.53164 0.94953 0.79203 0.0
H998 H 0.46252 0.04567 0.79119 0.0
H999 H 0.43974 0.02735 0.80935 0.0
C1000 C 0.14785 0.5856 0.8828 0.0
Eu1001 Eu 0.1198 0.5538 0.86393 0.0
C1002 C 0.15297 0.56879 0.89326 0.0
C1003 C 0.11567 0.5221 0.89759 0.0
C1004 C 0.12283 0.50767 0.90748 0.0
C1005 C 0.16747 0.53955 0.9132 0.0
C1006 C 0.20454 0.58615 0.90879 0.0
C1007 C 0.19731 0.60056 0.89897 0.0
C1008 C 0.05366 0.4522 0.85827 0.0
C1009 C 0.19837 0.52812 0.85117 0.0
C1010 C 0.08022 0.49585 0.82071 0.0
Eu1011 Eu 0.10982 0.53779 0.83881 0.0
C1012 C 0.07141 0.50525 0.80988 0.0
C1013 C 0.10477 0.50641 0.80217 0.0
C1014 C 0.0945 0.50942 0.79178 0.0
C1015 C 0.05029 0.51085 0.7888 0.0
C1016 C 1.01761 0.51124 0.79651 0.0
C1017 C 0.02794 0.50831 0.80694 0.0
C1018 C 0.18055 0.63695 0.84406 0.0
C1019 C 0.05057 0.59071 0.85025 0.0
O1020 O 0.17869 0.585 0.87579 0.0
O1021 O 0.10181 0.57133 0.87921 0.0
O1022 O 0.06289 0.46881 0.86766 0.0
O1023 O 0.07959 0.49084 0.85271 0.0
O1024 O 0.19055 0.54903 0.85947 0.0
O1025 O 0.16607 0.51183 0.84329 0.0
O1026 O 0.04822 0.49368 0.82784 0.0
O1027 O 0.12792 0.51786 0.82391 0.0
O1028 O 0.16846 0.62093 0.83462 0.0
O1029 O 0.15296 0.59973 0.8499 0.0
O1030 O 0.05309 0.56474 0.8422 0.0
O1031 O 0.07601 0.5953 0.85898 0.0
H1032 H 0.08129 0.49665 0.89332 0.0
H1033 H 0.09387 0.47118 0.91058 0.0
H1034 H 0.23915 0.61177 0.91298 0.0
H1035 H 0.22666 0.63673 0.8958 0.0
H1036 H 0.13822 0.50347 0.80417 0.0
H1037 H 0.12027 0.50872 0.78605 0.0
H1038 H 0.98368 0.51318 0.79447 0.0
H1039 H 1.00131 0.50736 0.81266 0.0
C1040 C 0.46545 0.57335 0.88166 0.0
Eu1041 Eu 0.48659 0.5717 0.8621 0.0
C1042 C 0.48219 0.60059 0.89173 0.0
C1043 C 0.52689 0.60826 0.8968 0.0
C1044 C 0.53791 0.62798 0.90688 0.0
C1045 C 0.50424 0.63989 0.91216 0.0
C1046 C 0.46062 0.6339 0.90691 0.0
C1047 C 0.44972 0.61441 0.89686 0.0
C1048 C 0.58464 0.59985 0.85557 0.0
C1049 C 0.51299 0.67928 0.85085 0.0
C1050 C 0.53056 0.58492 0.82043 0.0
Eu1051 Eu 0.49932 0.58034 0.8394 0.0
C1052 C 0.52443 0.56122 0.81012 0.0
C1053 C 0.48026 0.54625 0.8041 0.0
C1054 C 0.47924 0.53302 0.79371 0.0
C1055 C 0.52226 0.53432 0.7891 0.0
C1056 C 0.56566 0.54758 0.79525 0.0
C1057 C 0.56666 0.56078 0.80561 0.0
C1058 C 0.40472 0.56101 0.84553 0.0
C1059 C 0.45027 0.46588 0.84972 0.0
O1060 O 0.45125 0.59364 0.87439 0.0
O1061 O 0.48918 0.5502 0.87805 0.0
O1062 O 0.56074 0.56871 0.86305 0.0
O1063 O 0.55622 0.616 0.85202 0.0
O1064 O 0.49058 0.64835 0.85875 0.0
O1065 O 0.52997 0.66389 0.84305 0.0
O1066 O 0.54769 0.56949 0.82813 0.0
O1067 O 0.49729 0.59844 0.82329 0.0
O1068 O 0.42818 0.58679 0.83738 0.0
O1069 O 0.42933 0.54124 0.84947 0.0
O1070 O 0.47688 0.49633 0.84199 0.0
O1071 O 0.4428 0.48604 0.85816 0.0
H1072 H 0.55268 0.59784 0.89311 0.0
H1073 H 0.57191 0.63225 0.91067 0.0
H1074 H 0.43446 0.64377 0.91063 0.0
H1075 H 0.41492 0.60879 0.89319 0.0
H1076 H 0.44715 0.54657 0.80729 0.0
H1077 H 0.44518 0.5229 0.78921 0.0
H1078 H 0.59993 0.55022 0.79193 0.0
H1079 H 0.60154 0.57306 0.81 0.0
C1080 C 0.56615 0.78299 0.9852 0.0
Eu1081 Eu 0.59413 0.78746 1.00448 0.0
C1082 C 0.55829 0.75836 0.97493 0.0
C1083 C 0.59471 0.74845 0.97027 0.0
C1084 C 0.58626 0.72735 0.9603 0.0
C1085 C 0.54122 0.71561 0.9548 0.0
C1086 C 0.50521 0.72595 0.95952 0.0
C1087 C 0.51355 0.74676 0.96944 0.0
C1088 C 0.66417 0.76014 1.01147 0.0
C1089 C 0.51079 0.6852 1.01735 0.0
C1090 C 0.63646 0.7725 0.04645 0.0
Eu1091 Eu 0.604 0.78393 0.02859 0.0
C1092 C 0.65239 0.79303 0.05695 0.0
C1093 C 0.63297 0.82134 0.0619 0.0
C1094 C 0.64385 0.83453 0.07232 0.0
C1095 C 0.67402 0.8193 0.07799 0.0
C1096 C 0.69486 0.79266 0.07286 0.0
C1097 C 0.68409 0.77965 0.06247 0.0
C1098 C 0.53731 0.81841 0.02392 0.0
C1099 C 0.66204 0.89453 1.01705 0.0
O1100 O 0.53492 0.75591 0.99257 0.0
O1101 O 0.61286 0.81348 0.98851 0.0
O1102 O 0.66921 0.78574 1.00312 0.0
O1103 O 0.62107 0.7478 1.01533 0.0
O1104 O 0.52305 0.71129 1.00859 0.0
O1105 O 0.5397 0.70317 0.02569 0.0
O1106 O 0.6675 0.79693 0.03877 0.0
O1107 O 0.58789 0.75347 0.04411 0.0
O1108 O 0.54992 0.81356 0.03326 0.0
O1109 O 0.56226 0.80642 0.01782 0.0
O1110 O 0.66431 0.86616 0.02464 0.0
O1111 O 0.6321 0.87263 1.00891 0.0
H1112 H 0.62971 0.75722 0.97429 0.0
H1113 H 0.61486 0.71997 0.95691 0.0
H1114 H 0.47084 0.71893 0.95547 0.0
H1115 H 0.48516 0.75463 0.97279 0.0
H1116 H 0.60844 0.83214 0.05779 0.0
H1117 H 0.62814 0.85606 0.07598 0.0
H1118 H 0.71802 0.78015 0.07698 0.0
H1119 H 0.69919 0.75751 0.05882 0.0
C1120 C 0.25065 0.78746 0.98634 0.0
Eu1121 Eu 0.24783 0.8105 1.00574 0.0
C1122 C 0.27681 0.80477 0.97619 0.0
C1123 C 0.2811 0.84788 0.97101 0.0
C1124 C 0.30059 0.85942 0.96092 0.0
C1125 C 0.31564 0.82783 0.95576 0.0
C1126 C 0.31288 0.78582 0.96111 0.0
C1127 C 0.29362 0.77442 0.97117 0.0
C1128 C 0.27756 0.90964 1.01183 0.0
C1129 C 0.3536 0.83532 0.01743 0.0
C1130 C 0.26021 0.86188 0.04699 0.0
Eu1131 Eu 0.25496 0.82593 0.02845 0.0
C1132 C 0.23759 0.85855 0.05728 0.0
C1133 C 0.21668 0.81339 0.06319 0.0
C1134 C 0.20484 0.81418 0.07361 0.0
C1135 C 0.21383 0.86014 0.07831 0.0
C1136 C 0.2325 0.90458 0.07223 0.0
C1137 C 0.24417 0.90375 0.06184 0.0
C1138 C 0.23487 0.73012 0.02322 0.0
C1139 C 0.14128 0.77565 0.01775 0.0
O1140 O 0.27443 0.77812 0.9937 0.0
O1141 O 0.22353 0.80739 0.98977 0.0
O1142 O 0.24775 0.88639 1.00412 0.0
O1143 O 0.29197 0.88041 1.01563 0.0
O1144 O 0.3228 0.81221 1.00955 0.0
O1145 O 0.33843 0.85374 0.02503 0.0
O1146 O 0.24389 0.87665 0.03906 0.0
O1147 O 0.27367 0.82796 0.04462 0.0
O1148 O 0.25983 0.75477 0.03136 0.0
O1149 O 0.21628 0.75459 0.01869 0.0
O1150 O 0.17089 0.80296 0.02553 0.0
O1151 O 0.16216 0.76714 1.00955 0.0
H1152 H 0.26834 0.87202 0.97463 0.0
H1153 H 0.30234 0.89214 0.95704 0.0
H1154 H 0.32521 0.76135 0.95748 0.0
H1155 H 0.29066 0.74089 0.97494 0.0
H1156 H 0.21161 0.77804 0.0599 0.0
H1157 H 0.19118 0.77945 0.0781 0.0
H1158 H 0.23959 0.9405 0.07561 0.0
H1159 H 0.26071 0.93918 0.05749 0.0
C1160 C 0.25811 0.47764 0.98525 0.0
Eu1161 Eu 0.22616 0.44635 1.00397 0.0
C1162 C 0.24161 0.48185 0.97472 0.0
C1163 C 0.19371 0.44572 0.97064 0.0
C1164 C 0.17954 0.45206 0.96066 0.0
C1165 C 0.21286 0.4948 0.95461 0.0
C1166 C 0.26077 0.53061 0.95878 0.0
C1167 C 0.27486 0.5242 0.96869 0.0
C1168 C 0.12535 0.37798 1.00959 0.0
C1169 C 0.20198 0.52364 0.01747 0.0
C1170 C 0.1663 0.39844 0.04695 0.0
Eu1171 Eu 0.21032 0.43211 0.02914 0.0
C1172 C 0.17259 0.38492 0.05761 0.0
C1173 C 0.21591 0.41699 0.06359 0.0
C1174 C 0.21756 0.40658 0.07407 0.0
C1175 C 0.17608 0.36383 0.07877 0.0
C1176 C 0.13342 0.33122 0.07267 0.0
C1177 C 0.1318 0.34162 0.06222 0.0
C1178 C 0.30952 0.50307 0.02406 0.0
C1179 C 0.26445 0.37628 1.01694 0.0
O1180 O 0.25359 0.5062 0.9923 0.0
O1181 O 0.24712 0.43218 0.98869 0.0
O1182 O 0.14156 0.38809 1.00018 0.0
O1183 O 0.16389 0.4045 1.01512 0.0
O1184 O 0.22159 0.51621 1.00895 0.0
O1185 O 0.1873 0.49166 0.02542 0.0
O1186 O 0.16321 0.3678 0.03943 0.0
O1187 O 0.19137 0.44711 0.04438 0.0
O1188 O 0.29348 0.4894 0.03347 0.0
O1189 O 0.27215 0.47681 0.01812 0.0
O1190 O 0.23859 0.37666 0.02522 0.0
O1191 O 0.26828 0.40304 1.00845 0.0
H1192 H 0.16732 0.41274 0.97515 0.0
H1193 H 0.14277 0.4232 0.95765 0.0
H1194 H 0.28727 0.56414 0.95441 0.0
H1195 H 0.3119 0.55271 0.97168 0.0
H1196 H 0.24788 0.45082 0.06026 0.0
H1197 H 0.25098 0.43243 0.07854 0.0
H1198 H 0.10027 0.29872 0.07606 0.0
H1199 H 0.09768 0.31673 0.05782 0.0
C1200 C 0.26188 0.40734 0.54715 0.0
Eu1201 Eu 0.25202 0.43697 0.52884 0.0
C1202 C 0.24154 0.39612 0.55782 0.0
C1203 C 0.24535 0.43527 0.56435 0.0
C1204 C 0.23387 0.42591 0.57484 0.0
C1205 C 0.21841 0.37728 0.57907 0.0
C1206 C 0.21228 0.33756 0.57246 0.0
C1207 C 0.22399 0.34697 0.56197 0.0
C1208 C 0.21846 0.50406 0.5238 0.0
C1209 C 0.14154 0.37795 0.5172 0.0
C1210 C 0.25325 0.46973 0.48526 0.0
Eu1211 Eu 0.24787 0.44405 0.50472 0.0
C1212 C 0.28006 0.4775 0.47524 0.0
C1213 C 0.28462 0.43835 0.47027 0.0
C1214 C 0.30678 0.44645 0.46042 0.0
C1215 C 0.32455 0.49371 0.4553 0.0
C1216 C 0.32067 0.53291 0.46041 0.0
C1217 C 0.2987 0.52487 0.47022 0.0
C1218 C 0.27228 0.3728 0.5122 0.0
C1219 C 0.35126 0.52673 0.51717 0.0
O1220 O 0.23537 0.37496 0.53978 0.0
O1221 O 0.28518 0.45533 0.54413 0.0
O1222 O 0.22361 0.4924 0.53318 0.0
O1223 O 0.22984 0.47817 0.51782 0.0
O1224 O 0.16971 0.37595 0.52487 0.0
O1225 O 0.1635 0.40792 0.5091 0.0
O1226 O 0.27821 0.50222 0.49263 0.0
O1227 O 0.22367 0.42309 0.4887 0.0
O1228 O 0.24607 0.36734 0.50392 0.0
O1229 O 0.28674 0.41693 0.51576 0.0
O1230 O 0.3247 0.51383 0.50849 0.0
O1231 O 0.33373 0.49926 0.52568 0.0
H1232 H 0.25881 0.47366 0.56144 0.0
H1233 H 0.23809 0.45705 0.57971 0.0
H1234 H 0.20056 0.29972 0.57548 0.0
H1235 H 0.22121 0.31621 0.55717 0.0
H1236 H 0.27068 0.4014 0.47393 0.0
H1237 H 0.31008 0.41572 0.45683 0.0
H1238 H 0.33353 0.56964 0.45672 0.0
H1239 H 0.29534 0.5556 0.47381 0.0
C1240 C 0.62045 0.85583 0.54778 0.0
Eu1241 Eu 0.60315 0.82196 0.52887 0.0
C1242 C 0.63262 0.84761 0.55846 0.0
C1243 C 0.59486 0.83233 0.56614 0.0
C1244 C 0.60691 0.83072 0.57649 0.0
C1245 C 0.65714 0.84447 0.57945 0.0
C1246 C 0.69477 0.85881 0.57176 0.0
C1247 C 0.6827 0.8604 0.56139 0.0
C1248 C 0.53911 0.7244 0.522 0.0
C1249 C 0.66287 0.7726 0.51743 0.0
C1250 C 0.56448 0.7769 0.48543 0.0
Eu1251 Eu 0.59221 0.8092 0.50434 0.0
C1252 C 0.55675 0.79286 0.47508 0.0
C1253 C 0.59112 0.84085 0.47077 0.0
C1254 C 0.58249 0.85385 0.46086 0.0
C1255 C 0.53924 0.81923 0.45507 0.0
C1256 C 0.50504 0.77137 0.45946 0.0
C1257 C 0.51367 0.75845 0.46932 0.0
C1258 C 0.66168 0.90976 0.50974 0.0
C1259 C 0.51762 0.84051 0.51677 0.0
O1260 O 0.65639 0.87106 0.54074 0.0
O1261 O 0.57463 0.824 0.54418 0.0
O1262 O 0.56484 0.73511 0.53057 0.0
O1263 O 0.54631 0.76567 0.51798 0.0
O1264 O 0.66441 0.80193 0.5252 0.0
O1265 O 0.63354 0.76528 0.5092 0.0
O1266 O 0.53261 0.77346 0.49263 0.0
O1267 O 0.61142 0.79516 0.48888 0.0
O1268 O 0.64973 0.89354 0.50036 0.0
O1269 O 0.63673 0.87142 0.51544 0.0
O1270 O 0.52696 0.82416 0.50799 0.0
O1271 O 0.54607 0.84834 0.52511 0.0
H1272 H 0.5562 0.82329 0.56418 0.0
H1273 H 0.57726 0.82074 0.58221 0.0
H1274 H 0.73383 0.86964 0.57378 0.0
H1275 H 0.71295 0.87296 0.55572 0.0
H1276 H 0.62471 0.86816 0.47502 0.0
H1277 H 0.61015 0.89068 0.45767 0.0
H1278 H 0.47119 0.74389 0.45529 0.0
H1279 H 0.48654 0.72124 0.47247 0.0
C1280 C 0.18497 0.78295 0.54704 0.0
Eu1281 Eu 0.21614 0.78724 0.52808 0.0
C1282 C 0.19497 0.80571 0.55754 0.0
C1283 C 0.22618 0.79758 0.56449 0.0
C1284 C 0.22782 0.81005 0.57491 0.0
C1285 C 0.19849 0.83115 0.57867 0.0
C1286 C 0.16895 0.8413 0.57167 0.0
C1287 C 0.16704 0.82853 0.56124 0.0
C1288 C 0.31135 0.80712 0.52228 0.0
C1289 C 0.26589 0.9011 0.51755 0.0
C1290 C 0.25145 0.79253 0.48591 0.0
Eu1291 Eu 0.22932 0.79457 0.50539 0.0
C1292 C 0.23522 0.76539 0.47583 0.0
C1293 C 0.19306 0.76129 0.47029 0.0
C1294 C 0.18291 0.74164 0.46021 0.0
C1295 C 0.21498 0.72619 0.45539 0.0
C1296 C 0.25598 0.72867 0.46108 0.0
C1297 C 0.26603 0.74814 0.47114 0.0
C1298 C 0.13117 0.76726 0.51181 0.0
C1299 C 0.20219 0.68761 0.5168 0.0
O1300 O 0.17268 0.80403 0.53955 0.0
O1301 O 0.21263 0.7631 0.54392 0.0
O1302 O 0.28775 0.78216 0.53048 0.0
O1303 O 0.28642 0.82582 0.51806 0.0
O1304 O 0.239 0.8714 0.52535 0.0
O1305 O 0.27327 0.88015 0.50923 0.0
O1306 O 0.26471 0.77183 0.49326 0.0
O1307 O 0.22803 0.81624 0.48939 0.0
O1308 O 0.15502 0.79745 0.5042 0.0
O1309 O 0.15951 0.75125 0.51545 0.0
O1310 O 0.22543 0.71824 0.50892 0.0
O1311 O 0.18469 0.70345 0.52443 0.0
H1312 H 0.24778 0.77953 0.56199 0.0
H1313 H 0.25106 0.80192 0.58011 0.0
H1314 H 0.14527 0.85676 0.57435 0.0
H1315 H 0.14187 0.83439 0.55615 0.0
H1316 H 0.16865 0.77448 0.47362 0.0
H1317 H 0.15094 0.74014 0.45606 0.0
H1318 H 0.28076 0.71602 0.45772 0.0
H1319 H 0.29893 0.75101 0.47516 0.0
C1320 C 0.0786 0.58945 0.3216 0.0
Eu1321 Eu 0.11089 0.57755 0.33943 0.0
C1322 C 0.06219 0.56907 0.3111 0.0
C1323 C 0.0807 0.54007 0.30611 0.0
C1324 C 0.0695 0.52707 0.29569 0.0
C1325 C 0.03992 0.54318 0.29007 0.0
C1326 C 1.01996 0.5705 0.29525 0.0
C1327 C 0.03104 0.58332 0.30563 0.0
C1328 C 0.1757 0.5408 0.34408 0.0
C1329 C 0.05087 0.46805 0.35128 0.0
C1330 C 0.14965 0.57747 0.38286 0.0
Eu1331 Eu 0.12249 0.57487 0.36359 0.0
C1332 C 0.16051 0.60513 0.39285 0.0
C1333 C 0.12726 0.62035 0.39718 0.0
C1334 C 0.13675 0.64244 0.40705 0.0
C1335 C 0.17973 0.64995 0.4128 0.0
C1336 C 0.21294 0.63489 0.40839 0.0
C1337 C 0.20351 0.61295 0.39855 0.0
C1338 C 0.05246 0.60228 0.35661 0.0
C1339 C 0.20382 0.67769 0.35075 0.0
O1340 O 0.04753 0.56542 0.3293 0.0
O1341 O 0.12712 0.60776 0.32389 0.0
O1342 O 0.16323 0.54579 0.33474 0.0
O1343 O 0.15185 0.55414 0.35015 0.0
O1344 O 0.04881 0.49643 0.34367 0.0
O1345 O 0.08236 0.48968 0.35923 0.0
O1346 O 0.18247 0.59924 0.37536 0.0
O1347 O 0.10212 0.55224 0.37962 0.0
O1348 O 0.04757 0.57695 0.365 0.0
O1349 O 0.09545 0.61438 0.35275 0.0
O1350 O 0.19222 0.65233 0.3596 0.0
O1351 O 0.17535 0.65836 0.34239 0.0
H1352 H 0.10479 0.52859 0.31019 0.0
H1353 H 0.08451 0.505 0.292 0.0
H1354 H 0.99728 0.58371 0.29116 0.0
H1355 H 1.01665 0.606 0.30932 0.0
H1356 H 0.09361 0.61458 0.393 0.0
H1357 H 0.11039 0.65362 0.41019 0.0
H1358 H 0.24563 0.63874 0.41265 0.0
H1359 H 0.22936 0.60091 0.39548 0.0
C1360 C 0.44592 0.50422 0.32063 0.0
Eu1361 Eu 0.46261 0.54083 0.33931 0.0
C1362 C 0.46677 0.50885 0.3101 0.0
C1363 C 0.48211 0.55291 0.30404 0.0
C1364 C 0.49534 0.55342 0.29368 0.0
C1365 C 0.4937 0.51002 0.28917 0.0
C1366 C 0.47945 0.4665 0.29533 0.0
C1367 C 0.46619 0.46598 0.30566 0.0
C1368 C 0.49882 0.6395 0.34583 0.0
C1369 C 0.57145 0.58916 0.35084 0.0
C1370 C 0.46916 0.58721 0.38258 0.0
Eu1371 Eu 0.46408 0.55478 0.36368 0.0
C1372 C 0.44712 0.56967 0.39301 0.0
C1373 C 0.43343 0.52062 0.39678 0.0
C1374 C 0.41376 0.50601 0.40679 0.0
C1375 C 0.4072 0.54008 0.41324 0.0
C1376 C 0.42085 0.58901 0.40938 0.0
C1377 C 0.44045 0.60352 0.39941 0.0
C1378 C 0.43134 0.45322 0.35853 0.0
C1379 C 0.3589 0.52487 0.35114 0.0
O1380 O 0.46429 0.48797 0.32796 0.0
O1381 O 0.43477 0.539 0.32377 0.0
O1382 O 0.51289 0.62707 0.33734 0.0
O1383 O 0.46365 0.59922 0.34998 0.0
O1384 O 0.54361 0.55984 0.34308 0.0
O1385 O 0.54946 0.59725 0.35897 0.0
O1386 O 0.43879 0.58879 0.37556 0.0
O1387 O 0.49959 0.57146 0.37891 0.0
O1388 O 0.436 0.47009 0.36785 0.0
O1389 O 0.44547 0.49154 0.35277 0.0
O1390 O 0.3847 0.54199 0.35988 0.0
O1391 O 0.37954 0.51671 0.34284 0.0
H1392 H 0.48263 0.58649 0.30721 0.0
H1393 H 0.50611 0.5875 0.28913 0.0
H1394 H 0.47648 0.43198 0.29206 0.0
H1395 H 0.45368 0.43123 0.3101 0.0
H1396 H 0.43825 0.49374 0.39202 0.0
H1397 H 0.40451 0.46837 0.40955 0.0
H1398 H 0.41602 0.61611 0.41406 0.0
H1399 H 0.45065 0.64152 0.39669 0.0
C1400 C 0.54912 0.9637 0.32175 0.0
Eu1401 Eu 0.50316 0.93006 0.33937 0.0
C1402 C 0.5439 0.97704 0.31106 0.0
C1403 C 0.49619 0.95538 0.30606 0.0
C1404 C 0.49347 0.9651 0.29558 0.0
C1405 C 0.53844 0.99637 0.28992 0.0
C1406 C 0.58584 0.01911 0.29509 0.0
C1407 C 0.58849 1.00949 0.30553 0.0
C1408 C 0.40314 0.86068 0.34412 0.0
C1409 C 0.45046 0.9887 0.35117 0.0
C1410 C 0.44907 0.88539 0.38311 0.0
Eu1411 Eu 0.48369 0.91547 0.36449 0.0
C1412 C 0.46568 0.87768 0.39342 0.0
C1413 C 0.5114 0.91508 0.39809 0.0
C1414 C 0.52495 0.90712 0.40799 0.0
C1415 C 0.49315 0.8616 0.41344 0.0
C1416 C 0.44782 0.82407 0.40868 0.0
C1417 C 0.43424 0.83211 0.39882 0.0
C1418 C 0.58619 0.98088 0.35933 0.0
C1419 C 0.51071 0.83868 0.35144 0.0
O1420 O 0.55083 0.99426 0.32915 0.0
O1421 O 0.52362 0.91498 0.32427 0.0
O1422 O 0.42006 0.87356 0.33474 0.0
O1423 O 0.44011 0.88654 0.35012 0.0
O1424 O 0.47666 0.98714 0.34306 0.0
O1425 O 0.44445 0.96139 0.35969 0.0
O1426 O 0.4458 0.85393 0.37578 0.0
O1427 O 0.46698 0.93267 0.37984 0.0
O1428 O 0.56895 0.97038 0.36868 0.0
O1429 O 0.54773 0.95668 0.35363 0.0
O1430 O 0.48921 0.84558 0.35976 0.0
O1431 O 0.52657 0.87111 0.34355 0.0
H1432 H 0.46124 0.93029 0.3102 0.0
H1433 H 0.45624 0.94788 0.29189 0.0
H1434 H 0.62121 0.04313 0.29098 0.0
H1435 H 0.62572 0.02637 0.30923 0.0
H1436 H 0.53665 0.95049 0.3941 0.0
H1437 H 0.5606 0.93641 0.41133 0.0
H1438 H 0.42235 0.78869 0.41265 0.0
H1439 H 0.39874 0.8027 0.39543 0.0
C1440 C 0.14687 0.12117 0.18882 0.0
C1441 C 0.1682 0.15256 0.18012 0.0
C1442 C 0.15147 0.07706 0.19035 0.0
C1443 C 0.17785 0.06289 0.18325 0.0
H1444 H 0.12428 0.12919 0.19421 0.0
H1445 H 0.13227 0.05275 0.19689 0.0
S1446 S 0.24744 0.13749 0.16007 0.0
N1447 N 0.22107 0.16962 0.16493 0.0
N1448 N 0.23066 0.08816 0.16781 0.0
C1449 C 0.20211 0.09618 0.17489 0.0
C1450 C 0.19701 0.14055 0.17332 0.0
C1451 C 0.95367 0.10787 0.1737 0.0
C1452 C 0.97797 0.12144 0.18339 0.0
C1453 C 0.91046 0.05944 0.17191 0.0
C1454 C 0.88885 0.02218 0.17972 0.0
H1455 H 0.96909 0.13415 0.16728 0.0
H1456 H 0.89451 0.05079 0.16422 0.0
S1457 S 0.93439 0.03903 0.2067 0.0
N1458 N 0.97475 0.09383 0.2011 0.0
N1459 N 0.89318 1.00351 0.19769 0.0
C1460 C 0.91108 0.03583 0.18955 0.0
C1461 C 0.95562 0.08513 0.19139 0.0
C1462 C 0.97777 0.85399 0.17164 0.0
C1463 C 1.0141 0.86853 0.17961 0.0
C1464 C 0.92956 0.84973 0.17323 0.0
C1465 C 0.91537 0.86033 0.18287 0.0
H1466 H 0.98707 0.84696 0.16399 0.0
H1467 H 0.90398 0.83974 0.1667 0.0
S1468 S 0.99527 0.89621 0.20655 0.0
N1469 N 0.0313 0.89026 0.19769 0.0
N1470 N 0.9413 0.88322 0.20072 0.0
C1471 C 0.95074 0.87313 0.19103 0.0
C1472 C 0.9998 0.87693 0.1894 0.0
C1473 C 0.14259 0.18049 0.36335 0.0
C1474 C 0.16321 0.16398 0.35549 0.0
C1475 C 0.09889 0.18517 0.36172 0.0
C1476 C 0.07325 0.17299 0.35218 0.0
H1477 H 0.15961 0.1887 0.37095 0.0
H1478 H 0.08406 0.19659 0.36817 0.0
S1479 S 0.11402 0.13165 0.32879 0.0
N1480 N 0.15667 0.13871 0.33759 0.0
N1481 N 0.07414 0.14655 0.33451 0.0
C1482 C 0.09469 0.15833 0.34411 0.0
C1483 C 0.1397 0.15411 0.34577 0.0
C1484 C 0.88282 0.93953 0.34363 0.0
C1485 C 0.87223 0.90597 0.35205 0.0
C1486 C 0.89028 0.98942 0.34494 0.0
C1487 C 0.88844 1.00801 0.35475 0.0
H1488 H 0.88685 0.92777 0.33598 0.0
H1489 H 0.90011 1.01441 0.33832 0.0
S1490 S 0.85777 0.93521 0.37922 0.0
N1491 N 0.85649 0.89472 0.3705 0.0
N1492 N 0.8717 0.98821 0.37291 0.0
C1493 C 0.87584 0.97442 0.36315 0.0
C1494 C 0.86736 0.9235 0.36182 0.0
C1495 C 0.06767 0.8998 0.36299 0.0
C1496 C 0.03143 0.87912 0.35498 0.0
C1497 C 0.11579 0.94388 0.3616 0.0
C1498 C 0.13019 0.96995 0.35211 0.0
H1499 H 0.05842 0.88242 0.37056 0.0
H1500 H 0.14127 0.95832 0.36816 0.0
S1501 S 0.05054 0.92967 0.32838 0.0
N1502 N 1.01448 0.88642 0.33703 0.0
N1503 N 0.10442 0.96962 0.33433 0.0
C1504 C 0.09497 0.9486 0.34389 0.0
C1505 C 0.04586 0.90321 0.34533 0.0
C1506 C 0.9008 0.91018 0.84633 0.0
C1507 C 0.87891 0.87913 0.85505 0.0
C1508 C 0.89665 0.95443 0.84466 0.0
C1509 C 0.87002 0.9691 0.85159 0.0
H1510 H 0.92343 0.90175 0.84104 0.0
H1511 H 0.91618 0.97828 0.83808 0.0
S1512 S 0.79961 0.89582 0.87485 0.0
N1513 N 0.82577 0.86316 0.87016 0.0
N1514 N 0.81682 0.94481 0.86699 0.0
C1515 C 0.84535 0.93623 0.86 0.0
C1516 C 0.85013 0.89174 0.86174 0.0
C1517 C 0.13739 0.97176 0.86296 0.0
C1518 C 0.15952 1.00767 0.85493 0.0
C1519 C 0.09374 0.92342 0.86139 0.0
C1520 C 0.06964 0.90867 0.85171 0.0
H1521 H 0.15321 0.98149 0.87065 0.0
H1522 H 0.07781 0.89822 0.86796 0.0
S1523 S 0.11485 0.98699 0.82787 0.0
N1524 N 0.1561 0.02361 0.83677 0.0
N1525 N 0.07373 0.93342 0.83375 0.0
C1526 C 0.09258 0.94352 0.84349 0.0
C1527 C 0.13751 0.99271 0.84511 0.0
C1528 C 0.0703 0.17574 0.86236 0.0
C1529 C 0.03226 0.15758 0.85467 0.0
C1530 C 0.11873 0.18062 0.86065 0.0
C1531 C 0.13142 0.16699 0.85118 0.0
H1532 H 0.06226 0.18531 0.86991 0.0
H1533 H 0.14572 0.19355 0.86699 0.0
S1534 S 0.0464 0.12009 0.82824 0.0
N1535 N 1.01168 0.12851 0.83703 0.0
N1536 N 0.10199 0.13681 0.83377 0.0
C1537 C 0.09425 0.15039 0.84328 0.0
C1538 C 0.04499 0.14595 0.84503 0.0
C1539 C 0.9303 0.88568 0.67187 0.0
C1540 C 0.89924 0.88292 0.68021 0.0
C1541 C 0.97218 0.87786 0.67315 0.0
C1542 C 0.98588 0.868 0.68288 0.0
H1543 H 0.92274 0.89482 0.66424 0.0
H1544 H 0.99523 0.88172 0.66645 0.0
S1545 S 0.9155 0.85429 0.70722 0.0
N1546 N 0.88316 0.86661 0.69849 0.0
N1547 N 0.96324 0.85375 0.70103 0.0
C1548 C 0.95439 0.86385 0.6913 0.0
C1549 C 0.91075 0.87073 0.68993 0.0
C1550 C 0.20128 0.11309 0.67426 0.0
C1551 C 0.18742 0.12608 0.68366 0.0
C1552 C 0.1972 0.06492 0.67271 0.0
C1553 C 0.17959 0.0275 0.68051 0.0
H1554 H 0.21355 0.13954 0.66784 0.0
H1555 H 0.20666 0.05647 0.66519 0.0
S1556 S 0.14312 0.04331 0.70692 0.0
N1557 N 0.15851 0.09815 0.70119 0.0
N1558 N 0.15174 1.00815 0.69825 0.0
C1559 C 0.16816 0.04073 0.69013 0.0
C1560 C 0.1718 0.08977 0.6917 0.0
C1561 C 0.94098 0.0776 0.67328 0.0
C1562 C 0.91899 0.06318 0.68312 0.0
C1563 C 0.99135 0.11802 0.67195 0.0
C1564 C 1.02145 0.14676 0.68035 0.0
H1565 H 0.92012 0.05582 0.66657 0.0
H1566 H 1.00712 0.12618 0.66424 0.0
S1567 S 0.9804 0.12787 0.70763 0.0
N1568 N 0.93042 0.08243 0.70141 0.0
N1569 N 1.02424 0.16035 0.69879 0.0
C1570 C 0.99903 0.13474 0.69017 0.0
C1571 C 0.94809 0.09241 0.69159 0.0
C1572 C 0.8174 0.40726 0.52509 0.0
C1573 C 0.84269 0.39399 0.51756 0.0
C1574 C 0.81003 0.4497 0.52381 0.0
C1575 C 0.82751 0.48034 0.51496 0.0
H1576 H 0.8011 0.38343 0.53183 0.0
H1577 H 0.788 0.45674 0.52951 0.0
S1578 S 0.90109 0.46677 0.49352 0.0
N1579 N 0.88951 0.41896 0.50135 0.0
N1580 N 0.87465 0.49762 0.49896 0.0
C1581 C 0.85506 0.46937 0.50765 0.0
C1582 C 0.86304 0.42659 0.50896 0.0
C1583 C 0.57144 0.39981 0.5071 0.0
C1584 C 0.55437 0.3604 0.51449 0.0
C1585 C 0.61517 0.44816 0.50874 0.0
C1586 C 0.64443 0.45931 0.51783 0.0
H1587 H 0.55151 0.39288 0.49982 0.0
H1588 H 0.6271 0.47628 0.50263 0.0
S1589 S 0.61493 0.36994 0.53984 0.0
N1590 N 0.56923 0.33665 0.53139 0.0
N1591 N 0.65115 0.4268 0.53457 0.0
C1592 C 0.62666 0.42073 0.52545 0.0
C1593 C 0.58181 0.37159 0.52376 0.0
C1594 C 0.60282 0.20452 0.50753 0.0
C1595 C 0.58149 0.19879 0.51741 0.0
C1596 C 0.65222 0.21172 0.50613 0.0
C1597 C 0.68223 0.21222 0.51449 0.0
H1598 H 0.58223 0.20596 0.50082 0.0
H1599 H 0.66742 0.21801 0.49838 0.0
S1600 S 0.6429 0.19405 0.54186 0.0
N1601 N 0.59353 0.19146 0.53571 0.0
N1602 N 0.68565 0.20273 0.53294 0.0
C1603 C 0.6605 0.20369 0.52436 0.0
C1604 C 0.61044 0.19767 0.52584 0.0
C1605 C 0.79499 0.487 0.69608 0.0
C1606 C 0.82417 0.48646 0.68767 0.0
C1607 C 0.75429 0.49675 0.69478 0.0
C1608 C 0.74 0.50498 0.68498 0.0
H1609 H 0.80308 0.47898 0.70376 0.0
H1610 H 0.73224 0.49524 0.7015 0.0
S1611 S 0.80572 0.51043 0.66047 0.0
N1612 N 0.83818 0.49859 0.66926 0.0
N1613 N 0.75984 0.51422 0.66671 0.0
C1614 C 0.76962 0.50585 0.6765 0.0
C1615 C 0.8122 0.49738 0.67788 0.0
C1616 C 0.55461 0.26883 0.69529 0.0
C1617 C 0.54499 0.24493 0.6856 0.0
C1618 C 0.56238 0.3185 0.69644 0.0
C1619 C 0.55982 0.34642 0.688 0.0
H1620 H 0.55842 0.24998 0.70206 0.0
H1621 H 0.5714 0.33549 0.70404 0.0
S1622 S 0.53132 0.30036 0.66107 0.0
N1623 N 0.53082 0.25241 0.6674 0.0
N1624 N 0.54356 0.3454 0.6697 0.0
C1625 C 0.54767 0.32233 0.67833 0.0
C1626 C 0.54084 0.2718 0.67709 0.0
C1627 C 0.76323 0.28312 0.67801 0.0
C1628 C 0.80372 0.29966 0.6852 0.0
C1629 C 0.71518 0.23873 0.6797 0.0
C1630 C 0.70547 0.20934 0.68871 0.0
H1631 H 0.76798 0.30556 0.67116 0.0
H1632 H 0.68476 0.22881 0.67416 0.0
S1633 S 0.79924 0.23184 0.70944 0.0
N1634 N 0.83126 0.27939 0.70129 0.0
N1635 N 0.74135 0.19727 0.70447 0.0
C1636 C 0.7461 0.22391 0.6957 0.0
C1637 C 0.79504 0.26861 0.69395 0.0
C1638 C 0.56686 0.24253 0.17981 0.0
C1639 C 0.54476 0.21141 0.18851 0.0
C1640 C 0.56263 0.2867 0.1781 0.0
C1641 C 0.53574 0.30131 0.18498 0.0
H1642 H 0.58971 0.23421 0.17456 0.0
H1643 H 0.58229 0.31057 0.17152 0.0
S1644 S 0.46503 0.22807 0.20821 0.0
N1645 N 0.49136 0.19546 0.20358 0.0
N1646 N 0.48229 0.27701 0.20034 0.0
C1647 C 0.51099 0.26846 0.19339 0.0
C1648 C 0.51583 0.22402 0.19516 0.0
C1649 C 0.80498 0.30454 0.19667 0.0
C1650 C 0.82552 0.34186 0.18886 0.0
C1651 C 0.76149 0.2561 0.19501 0.0
C1652 C 0.7359 0.24264 0.18546 0.0
H1653 H 0.82199 0.31319 0.20428 0.0
H1654 H 0.74692 0.22972 0.20143 0.0
S1655 S 0.7759 0.32562 0.16221 0.0
N1656 N 0.81841 0.36091 0.17104 0.0
N1657 N 0.73656 0.27064 0.16786 0.0
C1658 C 0.75716 0.27907 0.17745 0.0
C1659 C 0.80188 0.32834 0.17915 0.0
C1660 C 0.7847 0.51638 0.19417 0.0
C1661 C 0.79732 0.50066 0.18494 0.0
C1662 C 0.73602 0.51113 0.19573 0.0
C1663 C 0.69764 0.49047 0.18811 0.0
H1664 H 0.81198 0.53136 0.20045 0.0
H1665 H 0.72806 0.5224 0.20311 0.0
S1666 S 0.71105 0.44604 0.16231 0.0
N1667 N 0.76721 0.46537 0.16783 0.0
N1668 N 0.67637 0.45623 0.17083 0.0
C1669 C 0.71019 0.47658 0.1787 0.0
C1670 C 0.75974 0.48146 0.1771 0.0
C1671 C 0.60161 0.171 0.02173 0.0
C1672 C 0.65075 0.20501 0.01781 0.0
C1673 C 0.56032 0.18033 0.02022 0.0
C1674 C 0.56731 0.224 1.01479 0.0
H1675 H 0.59485 0.13667 0.02577 0.0
H1676 H 0.52263 0.15262 0.02305 0.0
S1677 S 0.69065 0.32806 1.00442 0.0
N1678 N 0.70501 0.28588 1.0092 0.0
N1679 N 0.62865 0.30388 1.0065 0.0
C1680 C 0.617 0.2592 1.01132 0.0
C1681 C 0.65841 0.24957 1.01279 0.0
C1682 C 0.81419 0.36597 0.02296 0.0
C1683 C 0.84277 0.35782 1.01536 0.0
C1684 C 0.81631 0.41368 0.02401 0.0
C1685 C 0.84683 0.45529 0.01745 0.0
H1686 H 0.78855 0.33474 0.02793 0.0
H1687 H 0.79221 0.41724 0.02975 0.0
S1688 S 0.93336 0.45577 0.99702 0.0
N1689 N 0.90592 0.39699 1.00173 0.0
N1690 N 0.90944 0.48599 1.0036 0.0
C1691 C 0.87721 0.44824 1.0101 0.0
C1692 C 0.87537 0.39981 1.0091 0.0
C1693 C 0.5974 0.42142 1.0065 0.0
C1694 C 0.5818 0.39823 1.01624 0.0
C1695 C 0.64623 0.4643 1.00495 0.0
C1696 C 0.68165 0.48644 1.01306 0.0
H1697 H 0.57253 0.4052 0.99989 0.0
H1698 H 0.65671 0.47945 0.99722 0.0
S1699 S 0.65855 0.44409 0.04027 0.0
N1700 N 0.60507 0.40315 0.03431 0.0
N1701 N 0.69629 0.48426 0.03135 0.0
C1702 C 0.66584 0.4654 0.02293 0.0
C1703 C 0.61616 0.42122 0.02452 0.0
C1704 C 0.52735 0.80272 0.83943 0.0
C1705 C 0.50608 0.82025 0.84695 0.0
C1706 C 0.53182 0.75884 0.841 0.0
C1707 C 0.5146 0.72987 0.85013 0.0
H1708 H 0.53958 0.8224 0.83212 0.0
H1709 H 0.54725 0.7466 0.83479 0.0
S1710 S 0.45795 0.76088 0.8725 0.0
N1711 N 0.46977 0.80657 0.86408 0.0
N1712 N 0.47735 0.72386 0.86705 0.0
C1713 C 0.49488 0.74809 0.85789 0.0
C1714 C 0.49084 0.79325 0.8563 0.0
C1715 C 0.23822 0.72935 0.83971 0.0
C1716 C 0.22296 0.6892 0.84686 0.0
C1717 C 0.28198 0.77762 0.84131 0.0
C1718 C 0.31295 0.78805 0.85013 0.0
H1719 H 0.21675 0.7231 0.83265 0.0
H1720 H 0.29226 0.80653 0.83541 0.0
S1721 S 0.29009 0.69564 0.87122 0.0
N1722 N 0.2424 0.66323 0.8631 0.0
N1723 N 0.32434 0.75349 0.86622 0.0
C1724 C 0.29731 0.74857 0.8575 0.0
C1725 C 0.25249 0.69935 0.85585 0.0
C1726 C 0.33434 0.55439 0.85695 0.0
C1727 C 0.34996 0.54397 0.84751 0.0
C1728 C 0.28445 0.54682 0.85825 0.0
C1729 C 0.24805 0.52796 0.85019 0.0
H1730 H 0.36162 0.57105 0.8632 0.0
H1731 H 0.27512 0.55771 0.86553 0.0
S1732 S 0.26938 0.48934 0.82428 0.0
N1733 N 0.32478 0.51052 0.83024 0.0
N1734 N 0.23111 0.49487 0.83264 0.0
C1735 C 0.26279 0.51457 0.84089 0.0
C1736 C 0.31369 0.52305 0.83957 0.0
C1737 C 0.47558 0.84728 0.02913 0.0
C1738 C 0.49462 0.82846 0.0214 0.0
C1739 C 0.43158 0.85158 0.02759 0.0
C1740 C 0.40401 0.83665 0.01827 0.0
H1741 H 0.49415 0.85769 0.03658 0.0
H1742 H 0.41813 0.86505 0.03394 0.0
S1743 S 0.4396 0.78764 0.99528 0.0
N1744 N 0.48409 0.79742 1.00386 0.0
N1745 N 0.40112 0.8046 1.00094 0.0
C1746 C 0.42374 0.81944 1.01032 0.0
C1747 C 0.46904 0.81561 1.01188 0.0
C1748 C 0.21998 0.64589 0.02986 0.0
C1749 C 0.21949 0.67537 0.02149 0.0
C1750 C 0.21114 0.59581 0.02852 0.0
C1751 C 0.2027 0.57333 0.01871 0.0
H1752 H 0.22823 0.66198 0.03754 0.0
H1753 H 0.21351 0.57559 0.03521 0.0
S1754 S 0.19458 0.63309 0.9943 0.0
N1755 N 0.2063 0.67716 1.00313 0.0
N1756 N 0.19189 0.58375 1.00048 0.0
C1757 C 0.20062 0.6018 1.01028 0.0
C1758 C 0.20835 0.65254 1.01171 0.0
C1759 C 0.39981 0.56478 0.02919 0.0
C1760 C 0.36211 0.54552 0.02143 0.0
C1761 C 0.44815 0.60833 0.02762 0.0
C1762 C 0.46127 0.63527 0.01821 0.0
H1763 H 0.39156 0.54671 0.03668 0.0
H1764 H 0.47487 0.6217 0.03399 0.0
S1765 S 0.37723 0.59903 0.99515 0.0
N1766 N 0.34222 0.55525 1.00381 0.0
N1767 N 0.43256 0.63742 1.0008 0.0
C1768 C 0.42453 0.61532 1.01024 0.0
C1769 C 0.37521 0.57048 1.01185 0.0
C1770 C 0.18972 0.56607 0.52875 0.0
C1771 C 0.20833 0.54648 0.5211 0.0
C1772 C 0.18546 0.60998 0.52708 0.0
C1773 C 0.20022 0.63693 0.51769 0.0
H1774 H 0.17951 0.54806 0.53625 0.0
H1775 H 0.17228 0.62392 0.5334 0.0
S1776 S 0.2482 0.59947 0.49482 0.0
N1777 N 0.23867 0.55559 0.50353 0.0
N1778 N 0.23161 0.63851 0.50037 0.0
C1779 C 0.21707 0.61657 0.5098 0.0
C1780 C 0.22085 0.57132 0.5115 0.0
C1781 C 0.48492 0.63005 0.52569 0.0
C1782 C 0.49352 0.67312 0.51985 0.0
C1783 C 0.4395 0.58247 0.52462 0.0
C1784 C 0.40114 0.57577 0.51755 0.0
H1785 H 0.51293 0.63342 0.53134 0.0
H1786 H 0.43415 0.55085 0.52946 0.0
S1787 S 0.40406 0.6765 0.50055 0.0
N1788 N 0.45891 0.70578 0.50688 0.0
N1789 N 0.37478 0.6166 0.50465 0.0
C1790 C 0.40978 0.61819 0.51149 0.0
C1791 C 0.45561 0.66673 0.51269 0.0
C1792 C 0.43407 0.82798 0.50947 0.0
C1793 C 0.46882 0.84229 0.5178 0.0
C1794 C 0.38396 0.81982 0.51078 0.0
C1795 C 0.36645 0.82491 0.52048 0.0
H1796 H 0.44471 0.82073 0.50197 0.0
H1797 H 0.35792 0.80662 0.50429 0.0
S1798 S 0.44298 0.86813 0.54448 0.0
N1799 N 0.48271 0.86679 0.5359 0.0
N1800 N 0.38862 0.84985 0.5383 0.0
C1801 C 0.40133 0.84193 0.52871 0.0
C1802 C 0.45247 0.85113 0.52738 0.0
C1803 C 0.24597 0.54772 0.35576 0.0
C1804 C 0.21699 0.52901 0.34669 0.0
C1805 C 0.29029 0.54377 0.35744 0.0
C1806 C 0.3072 0.52065 0.35012 0.0
H1807 H 0.23592 0.56788 0.36137 0.0
H1808 H 0.31267 0.56113 0.3643 0.0
S1809 S 0.2395 0.45828 0.32583 0.0
N1810 N 0.20497 0.48169 0.33084 0.0
N1811 N 0.287 0.47334 0.33398 0.0
C1812 C 0.27624 0.49871 0.34134 0.0
C1813 C 0.23156 0.50316 0.33963 0.0
C1814 C 0.48046 0.70042 0.35583 0.0
C1815 C 0.50748 0.69217 0.34791 0.0
C1816 C 0.48345 0.74836 0.35716 0.0
C1817 C 0.51341 0.79026 0.35061 0.0
H1818 H 0.45547 0.66913 0.36086 0.0
H1819 H 0.46048 0.75187 0.36318 0.0
S1820 S 0.59583 0.79023 0.32932 0.0
N1821 N 0.56844 0.73125 0.33392 0.0
N1822 N 0.57381 0.82081 0.33635 0.0
C1823 C 0.54236 0.78305 0.34294 0.0
C1824 C 0.53951 0.73428 0.34162 0.0
C1825 C 0.29239 0.74378 0.35706 0.0
C1826 C 0.25204 0.7287 0.34988 0.0
C1827 C 0.34063 0.78823 0.35553 0.0
C1828 C 0.35039 0.81912 0.34675 0.0
H1829 H 0.28751 0.71992 0.36368 0.0
H1830 H 0.37115 0.79691 0.36097 0.0
S1831 S 0.25619 0.80157 0.32646 0.0
N1832 N 0.22418 0.75249 0.33427 0.0
N1833 N 0.31436 0.83466 0.33138 0.0
C1834 C 0.30969 0.80617 0.33986 0.0
C1835 C 0.2607 0.76141 0.34143 0.0
C1836 C 0.31729 0.37393 0.17376 0.0
C1837 C 0.29533 0.34803 0.18307 0.0
C1838 C 0.37032 0.3973 0.17182 0.0
C1839 C 0.40482 0.39679 0.17908 0.0
H1840 H 0.29323 0.37541 0.16773 0.0
H1841 H 0.38434 0.41549 0.16442 0.0
S1842 S 0.36901 0.33526 0.20477 0.0
N1843 N 0.31386 0.32427 0.19978 0.0
N1844 N 0.41327 0.36835 0.19605 0.0
C1845 C 0.3841 0.37225 0.18852 0.0
C1846 C 0.32966 0.34794 0.19053 0.0
C1847 C 0.66765 0.01886 0.188 0.0
C1848 C 0.63985 1.01404 0.17892 0.0
C1849 C 0.69152 0.98878 0.18966 0.0
C1850 C 0.68821 0.95219 0.18236 0.0
H1851 H 0.67276 0.04745 0.19367 0.0
H1852 H 0.71399 0.9954 0.19658 0.0
S1853 S 0.61405 0.92059 0.15789 0.0
N1854 N 0.60707 0.96702 0.16298 0.0
N1855 N 0.64999 0.91048 0.16608 0.0
C1856 C 0.65808 0.94553 0.17352 0.0
C1857 C 0.63453 0.97635 0.17181 0.0
C1858 C 0.05159 0.71046 0.18997 0.0
C1859 C 0.08869 0.74397 0.1828 0.0
C1860 C 1.0222 0.65665 0.18826 0.0
C1861 C 0.02817 0.63404 0.17924 0.0
H1862 H 0.04424 0.72598 0.19686 0.0
H1863 H 0.99328 0.63296 0.19384 0.0
S1864 S 0.12242 0.70268 0.15842 0.0
N1865 N 0.13145 0.74834 0.16661 0.0
N1866 N 0.0763 0.64902 0.16342 0.0
C1867 C 0.06616 0.66671 0.17223 0.0
C1868 C 0.0963 0.72099 0.17399 0.0
C1869 C 0.38594 0.31029 0.36126 0.0
C1870 C 0.35864 0.28776 0.35211 0.0
C1871 C 0.41002 0.36357 0.36304 0.0
C1872 C 0.40887 0.39758 0.35573 0.0
H1873 H 0.38793 0.2865 0.36729 0.0
H1874 H 0.42936 0.37822 0.37033 0.0
S1875 S 0.34318 0.35989 0.33045 0.0
N1876 N 0.33254 0.30506 0.33554 0.0
N1877 N 0.37789 0.40482 0.33895 0.0
C1878 C 0.38272 0.37616 0.34646 0.0
C1879 C 0.35767 0.32155 0.34465 0.0
C1880 C 0.6758 0.04898 0.36391 0.0
C1881 C 0.64162 1.01486 0.3565 0.0
C1882 C 0.72889 0.07908 0.36203 0.0
C1883 C 0.75099 0.07638 0.35265 0.0
H1884 H 0.66149 0.05211 0.37136 0.0
H1885 H 0.75291 0.10387 0.36815 0.0
S1886 S 0.67829 0.99265 0.33059 0.0
N1887 N 0.63378 0.98016 0.33934 0.0
N1888 N 0.73313 0.03633 0.33572 0.0
C1889 C 0.71699 0.04287 0.34506 0.0
C1890 C 0.66262 1.01232 0.347 0.0
C1891 C 0.95084 0.64327 0.35893 0.0
C1892 C 0.96212 0.67866 0.35084 0.0
C1893 C 0.97921 0.61801 0.3605 0.0
C1894 C 1.02076 0.62698 0.35413 0.0
H1895 H 0.92003 0.63527 0.36425 0.0
H1896 H 0.96898 0.59188 0.36694 0.0
S1897 S 0.06612 0.71451 0.33161 0.0
N1898 N 1.01766 0.71991 0.33612 0.0
N1899 N 0.07094 0.67297 0.33917 0.0
C1900 C 0.03198 0.66132 0.34586 0.0
C1901 C 1.00277 0.6869 0.3442 0.0
C1902 C 0.66678 0.66412 0.84653 0.0
C1903 C 0.6417 0.62502 0.85392 0.0
C1904 C 0.72076 0.6901 0.84534 0.0
C1905 C 0.75232 0.67855 0.85154 0.0
H1906 H 0.64462 0.67534 0.84172 0.0
H1907 H 0.73794 0.72051 0.83969 0.0
S1908 S 0.70559 0.57689 0.87157 0.0
N1909 N 0.65288 0.57431 0.86715 0.0
N1910 N 0.75329 0.62294 0.86502 0.0
C1911 C 0.72745 0.63861 0.85878 0.0
C1912 C 0.6726 0.61196 0.85992 0.0
C1913 C 0.35213 0.03795 0.84517 0.0
C1914 C 0.36269 0.08112 0.85125 0.0
C1915 C 0.37802 1.00992 0.84673 0.0
C1916 C 0.41591 0.0239 0.85441 0.0
H1917 H 0.32244 0.02461 0.83935 0.0
H1918 H 0.36741 0.97634 0.84203 0.0
S1919 S 0.46192 0.1366 0.87178 0.0
N1920 N 0.41677 0.13815 0.86483 0.0
N1921 N 0.46495 0.08621 0.86768 0.0
C1922 C 0.42824 0.06812 0.86025 0.0
C1923 C 0.40183 0.09641 0.85871 0.0
C1924 C 0.99741 0.32075 0.84476 0.0
C1925 C 0.95869 0.28737 0.85167 0.0
C1926 C 0.02655 0.37455 0.84651 0.0
C1927 C 1.01849 0.39715 0.8553 0.0
H1928 H 1.00659 0.30509 0.83812 0.0
H1929 H 0.05704 0.39817 0.8412 0.0
S1930 S 0.9181 0.32909 0.87511 0.0
N1931 N 0.91112 0.28333 0.86714 0.0
N1932 N 0.96603 0.38258 0.87045 0.0
C1933 C 0.97852 0.3647 0.86197 0.0
C1934 C 0.94866 0.3105 0.86016 0.0
C1935 C 0.67348 0.65924 0.68778 0.0
C1936 C 0.63698 0.63512 0.67989 0.0
C1937 C 0.6987 0.71292 0.68926 0.0
C1938 C 0.68889 0.74508 0.68287 0.0
H1939 H 0.68329 0.63657 0.69277 0.0
H1940 H 0.72716 0.72938 0.6953 0.0
S1941 S 0.59418 0.70081 0.6615 0.0
N1942 N 0.59045 0.64761 0.66595 0.0
N1943 N 0.63773 0.74774 0.66864 0.0
C1944 C 0.65141 0.72116 0.67513 0.0
C1945 C 0.62554 0.66654 0.67367 0.0
C1946 C 0.37951 0.96959 0.67491 0.0
C1947 C 0.41174 1.01091 0.68137 0.0
C1948 C 0.32594 0.94125 0.67638 0.0
C1949 C 0.30162 0.95244 0.68445 0.0
H1950 H 0.39564 0.95954 0.66847 0.0
H1951 H 0.30336 0.91066 0.67101 0.0
S1952 S 0.3689 0.05544 0.70394 0.0
N1953 N 0.41542 0.06048 0.69641 0.0
N1954 N 0.31534 1.00737 0.69928 0.0
C1955 C 0.33369 0.99283 0.69118 0.0
C1956 C 0.38838 0.02192 0.68962 0.0
C1957 C 1.02351 0.37031 0.68764 0.0
C1958 C 0.03429 0.40547 0.67955 0.0
C1959 C 0.05255 0.34557 0.68913 0.0
C1960 C 0.0936 0.35447 0.68256 0.0
H1961 H 0.99187 0.36125 0.69281 0.0
H1962 H 0.04178 0.31822 0.69536 0.0
S1963 S 0.13948 0.44518 0.6605 0.0
N1964 N 0.09066 0.44951 0.66514 0.0
N1965 N 0.14452 0.4031 0.66784 0.0
C1966 C 0.10545 0.39048 0.67457 0.0
C1967 C 0.0761 0.41589 0.6731 0.0
C1968 C 0.9965 0.68242 0.5232 0.0
C1969 C 0.96383 0.689 0.51631 0.0
C1970 C 0.05034 0.70817 0.52179 0.0
C1971 C 0.07418 0.74227 0.51352 0.0
H1972 H 0.98032 0.65598 0.52958 0.0
H1973 H 0.07342 0.70084 0.52718 0.0
S1974 S 1.00689 0.77589 0.49365 0.0
N1975 N 0.96032 0.73419 0.50111 0.0
N1976 N 0.06053 0.78272 0.4986 0.0
C1977 C 0.04213 0.75041 0.50678 0.0
C1978 C 0.9874 0.72379 0.50813 0.0
C1979 C 0.362 0.3285 0.52357 0.0
C1980 C 0.35017 0.28419 0.51777 0.0
C1981 C 0.33582 0.35619 0.52199 0.0
C1982 C 0.29643 0.34061 0.5146 0.0
H1983 H 0.393 0.34307 0.52911 0.0
H1984 H 0.34748 0.39082 0.52642 0.0
S1985 S 0.24641 0.22406 0.49824 0.0
N1986 N 0.29313 0.22406 0.5049 0.0
N1987 N 0.24432 0.27538 0.50204 0.0
C1988 C 0.2827 0.2951 0.50911 0.0
C1989 C 0.30941 0.26719 0.51067 0.0
C1990 C 0.7293 0.99941 0.50527 0.0
C1991 C 0.69503 0.96504 0.51262 0.0
C1992 C 0.75826 0.05256 0.50713 0.0
C1993 C 0.75411 0.07438 0.51643 0.0
H1994 H 0.73332 0.98518 0.49787 0.0
H1995 H 0.78322 0.07682 0.50106 0.0
S1996 S 0.66953 1.00098 0.53831 0.0
N1997 N 0.65869 0.9566 0.52963 0.0
N1998 N 0.71282 0.05612 0.53323 0.0
C1999 C 0.72058 0.04017 0.52397 0.0
C2000 C 0.69119 0.98577 0.52205 0.0
C2001 C 0.09213 0.69889 0.69403 0.0
C2002 C 0.08537 0.73208 0.68737 0.0
C2003 C 0.06599 0.64524 0.69252 0.0
C2004 C 0.03193 0.62184 0.68421 0.0
H2005 H 0.11711 0.71433 0.70066 0.0
H2006 H 0.07211 0.62187 0.69805 0.0
S2007 S 1.00256 0.69176 0.66414 0.0
N2008 N 0.04328 0.73756 0.67188 0.0
N2009 N 0.99469 0.63743 0.66895 0.0
C2010 C 0.026 0.65485 0.67729 0.0
C2011 C 0.05247 0.70958 0.67889 0.0
C2012 C 0.33643 0.34588 0.68009 0.0
C2013 C 0.31165 0.35832 0.68784 0.0
C2014 C 0.3901 0.37482 0.67866 0.0
C2015 C 0.42163 0.41735 0.68496 0.0
H2016 H 0.31427 0.31301 0.67517 0.0
H2017 H 0.40708 0.36277 0.67272 0.0
S2018 S 0.37551 0.46806 0.70597 0.0
N2019 N 0.32287 0.41797 0.70156 0.0
N2020 N 0.42297 0.47162 0.69897 0.0
C2021 C 0.39706 0.4309 0.69257 0.0
C2022 C 0.34243 0.40169 0.69397 0.0
C2023 C 0.6997 0.99841 0.68048 0.0
C2024 C 0.68606 0.95964 0.68792 0.0
C2025 C 0.67104 0.0236 0.67913 0.0
C2026 C 0.62749 1.01142 0.68521 0.0
H2027 H 0.73338 1.01007 0.67575 0.0
H2028 H 0.68406 0.05388 0.67346 0.0
S2029 S 0.57333 0.9101 0.70532 0.0
N2030 N 0.62421 0.90843 0.70107 0.0
N2031 N 0.57088 0.95551 0.69863 0.0
C2032 C 0.61269 0.97165 0.69249 0.0
C2033 C 0.64171 0.94588 0.69381 0.0
C2034 C 0.33245 0.99623 0.18024 0.0
C2035 C 0.30791 0.95818 0.18786 0.0
C2036 C 0.38641 0.02195 0.17885 0.0
C2037 C 0.4185 1.0111 0.18506 0.0
H2038 H 0.30993 1.00706 0.17544 0.0
H2039 H 0.40319 0.05172 0.17306 0.0
S2040 S 0.37311 0.91153 0.20552 0.0
N2041 N 0.32014 0.9088 0.20122 0.0
N2042 N 0.42028 0.9567 0.19871 0.0
C2043 C 0.39405 0.9719 0.19247 0.0
C2044 C 0.33931 0.94564 0.19383 0.0
C2045 C 1.02419 0.37619 0.17901 0.0
C2046 C 0.02655 0.41233 0.18631 0.0
C2047 C 0.04815 0.34631 0.18078 0.0
C2048 C 0.07507 0.35092 0.18997 0.0
H2049 H 1.00244 0.36977 0.17199 0.0
H2050 H 0.04382 0.31807 0.17509 0.0
S2051 S 0.09806 0.44311 0.2111 0.0
N2052 N 0.0628 0.45335 0.20276 0.0
N2053 N 0.10596 0.39717 0.20605 0.0
C2054 C 0.07943 0.38815 0.1971 0.0
C2055 C 0.05577 0.41877 0.19528 0.0
C2056 C 0.66317 0.65294 0.17793 0.0
C2057 C 0.62471 0.61974 0.18491 0.0
C2058 C 0.69267 0.70677 0.17965 0.0
C2059 C 0.68527 0.72964 0.18848 0.0
H2060 H 0.67186 0.63711 0.17125 0.0
H2061 H 0.72292 0.73019 0.17428 0.0
S2062 S 0.5859 0.66216 0.2085 0.0
N2063 N 0.57821 0.61621 0.20051 0.0
N2064 N 0.63371 0.71546 0.20376 0.0
C2065 C 0.64557 0.69738 0.19522 0.0
C2066 C 0.61537 0.64313 0.19344 0.0
C2067 C 0.29551 0.99858 1.0069 0.0
C2068 C 0.30298 0.96644 1.01374 0.0
C2069 C 0.32126 0.05241 1.0082 0.0
C2070 C 0.3553 0.07681 1.01647 0.0
H2071 H 0.27025 0.98215 1.00035 0.0
H2072 H 0.31463 0.07508 1.00258 0.0
S2073 S 0.38678 1.0098 0.03682 0.0
N2074 N 0.34615 0.9631 0.02925 0.0
N2075 N 0.3937 0.06335 0.0318 0.0
C2076 C 0.3621 0.04482 0.02351 0.0
C2077 C 0.33625 0.99007 0.02212 0.0
C2078 C 0.04877 0.34741 0.02166 0.0
C2079 C 0.07098 0.34116 1.01263 0.0
C2080 C 0.99535 0.31693 0.02358 0.0
C2081 C 0.96199 0.27854 1.0166 0.0
H2082 H 0.07232 0.37755 0.02705 0.0
H2083 H 0.97991 0.32483 0.03041 0.0
S2084 S 1.00299 0.24277 0.99244 0.0
N2085 N 0.05631 0.29093 0.99711 0.0
N2086 N 0.95759 0.23348 1.00072 0.0
C2087 C 0.98479 0.27028 1.00784 0.0
C2088 C 0.03867 0.30156 1.00587 0.0
C2089 C 0.76435 0.71701 1.00889 0.0
C2090 C 0.75303 0.68185 1.01703 0.0
C2091 C 0.73642 0.74284 1.00735 0.0
C2092 C 0.69539 0.73473 1.01382 0.0
H2093 H 0.79481 0.7244 1.00352 0.0
H2094 H 0.74662 0.76879 1.00088 0.0
S2095 S 0.65039 0.64827 0.0365 0.0
N2096 N 0.69804 0.64182 0.03188 0.0
N2097 N 0.64578 0.68979 0.0289 0.0
C2098 C 0.68413 0.70052 0.02211 0.0
C2099 C 0.71277 0.67433 0.02372 0.0
C2100 C 0.70516 0.06583 0.83862 0.0
C2101 C 0.73968 0.06501 0.84584 0.0
C2102 C 0.65214 0.0424 0.84059 0.0
C2103 C 0.63032 1.01609 0.84986 0.0
H2104 H 0.71916 0.08432 0.83125 0.0
H2105 H 0.62795 0.04401 0.8346 0.0
S2106 S 0.70407 1.0026 0.87145 0.0
N2107 N 0.74828 0.036 0.86274 0.0
N2108 N 0.64889 0.99171 0.86649 0.0
C2109 C 0.66465 1.01566 0.85727 0.0
C2110 C 0.71905 0.04009 0.85526 0.0
C2111 C 0.9988 0.68437 0.8546 0.0
C2112 C 0.97209 0.68015 0.8454 0.0
C2113 C 1.02271 0.65441 0.85632 0.0
C2114 C 1.02049 0.61857 0.84896 0.0
H2115 H 1.00299 0.71237 0.86033 0.0
H2116 H 0.0443 0.66052 0.86335 0.0
S2117 S 0.94957 0.58888 0.82411 0.0
N2118 N 0.94156 0.63459 0.82924 0.0
N2119 N 0.98461 0.57827 0.83244 0.0
C2120 C 0.99147 0.61251 0.83997 0.0
C2121 C 0.96787 0.64322 0.83821 0.0
C2122 C 0.359 0.32067 0.85394 0.0
C2123 C 0.36182 0.29881 0.84455 0.0
C2124 C 0.38873 0.3743 0.85572 0.0
C2125 C 0.42295 0.40833 0.84823 0.0
H2126 H 0.3323 0.29652 0.85981 0.0
H2127 H 0.38378 0.38927 0.86294 0.0
S2128 S 0.44822 0.3692 0.82273 0.0
N2129 N 0.40419 0.31504 0.82797 0.0
N2130 N 0.45995 0.41425 0.83129 0.0
C2131 C 0.42758 0.38618 0.839 0.0
C2132 C 0.39712 0.33201 0.83718 0.0
C2133 C 0.71847 0.97428 0.02748 0.0
C2134 C 0.69066 0.95232 0.01834 0.0
C2135 C 0.74205 0.02734 0.02948 0.0
C2136 C 0.73987 0.06178 0.02243 0.0
H2137 H 0.72128 0.95017 0.03333 0.0
H2138 H 0.76187 0.04146 0.03674 0.0
S2139 S 0.67238 0.02567 0.99731 0.0
N2140 N 0.66295 0.97064 1.00207 0.0
N2141 N 0.7072 0.06998 1.00591 0.0
C2142 C 0.71315 0.04095 1.01318 0.0
C2143 C 0.68867 0.98655 1.01112 0.0
C2144 C 0.99765 0.67846 1.01394 0.0
C2145 C 0.97351 0.69018 0.02195 0.0
C2146 C 0.05138 0.70715 1.01242 0.0
C2147 C 0.08366 0.74876 0.01888 0.0
H2148 H 0.97498 0.64621 1.00891 0.0
H2149 H 0.06783 0.69557 1.00629 0.0
S2150 S 0.03935 0.79768 0.04053 0.0
N2151 N 0.98622 0.74845 0.03605 0.0
N2152 N 0.0862 0.80154 0.03329 0.0
C2153 C 0.05967 0.76169 0.02672 0.0
C2154 C 1.00505 0.73274 0.02822 0.0
C2155 C 0.28245 0.31154 0.02566 0.0
C2156 C 0.29286 0.34676 0.01757 0.0
C2157 C 0.3107 0.28597 0.02696 0.0
C2158 C 0.35123 0.29465 0.02031 0.0
H2159 H 0.25242 0.30386 0.03116 0.0
H2160 H 0.30128 0.25992 0.0334 0.0
S2161 S 0.39368 0.38134 0.99767 0.0
N2162 N 0.34627 0.38737 1.00257 0.0
N2163 N 0.39926 0.33985 1.0051 0.0
C2164 C 0.36153 0.32886 1.01207 0.0
C2165 C 0.33246 0.35466 1.01068 0.0
C2166 C 0.05995 0.31234 0.52612 0.0
C2167 C 0.0838 0.34818 0.51809 0.0
C2168 C 1.00624 0.28604 0.52753 0.0
C2169 C 0.97358 0.29452 0.52105 0.0
H2170 H 0.08296 0.3047 0.53146 0.0
H2171 H 0.9903 0.25945 0.5339 0.0
S2172 S 1.01527 0.38292 0.49867 0.0
N2173 N 0.06923 0.38938 0.50337 0.0
N2174 N 0.96909 0.34047 0.50609 0.0
C2175 C 0.9966 0.32949 0.51289 0.0
C2176 C 0.0513 0.35609 0.5114 0.0
C2177 C 0.7145 0.74487 0.52823 0.0
C2178 C 0.69108 0.74311 0.51871 0.0
C2179 C 0.73721 0.7146 0.53021 0.0
C2180 C 0.73845 0.68129 0.52276 0.0
H2181 H 0.71435 0.76898 0.5344 0.0
H2182 H 0.75355 0.71704 0.53776 0.0
S2183 S 0.68469 0.6626 0.49641 0.0
N2184 N 0.67198 0.70528 0.50158 0.0
N2185 N 0.71522 0.649 0.50533 0.0
C2186 C 0.71657 0.67982 0.5131 0.0
C2187 C 0.69281 0.71046 0.51108 0.0
C2188 C 0.29057 0.97998 0.52834 0.0
C2189 C 0.29402 0.95865 0.51892 0.0
C2190 C 0.32023 0.03294 0.53037 0.0
C2191 C 0.3546 0.06768 0.52307 0.0
H2192 H 0.26566 0.95544 0.53439 0.0
H2193 H 0.31668 0.04669 0.53786 0.0
S2194 S 0.37804 0.03312 0.49706 0.0
N2195 N 0.33451 0.97781 0.50204 0.0
N2196 N 0.38997 0.07697 0.50594 0.0
C2197 C 0.35767 0.04747 0.51351 0.0
C2198 C 0.32755 0.99323 0.51143 0.0
C2199 C 0.03237 0.37871 0.35645 0.0
C2200 C 1.02014 0.41025 0.35041 0.0
C2201 C 1.00689 0.32479 0.35515 0.0
C2202 C 0.96768 0.29966 0.34777 0.0
H2203 H 0.06289 0.39586 0.36209 0.0
H2204 H 1.01863 0.30271 0.35986 0.0
S2205 S 0.91796 0.36331 0.33045 0.0
N2206 N 0.96378 0.41102 0.33707 0.0
N2207 N 0.9162 0.3107 0.3347 0.0
C2208 C 0.95397 0.33048 0.34191 0.0
C2209 C 0.98004 0.3853 0.34319 0.0
C2210 C 0.70411 0.64449 0.33833 0.0
C2211 C 0.73863 0.67821 0.34574 0.0
C2212 C 0.65109 0.61491 0.34025 0.0
C2213 C 0.62922 0.61777 0.34966 0.0
H2214 H 0.71808 0.64136 0.33084 0.0
H2215 H 0.62694 0.59053 0.3341 0.0
S2216 S 0.70307 0.69981 0.37181 0.0
N2217 N 0.74732 0.71209 0.36301 0.0
N2218 N 0.6478 0.65709 0.36665 0.0
C2219 C 0.66357 0.65074 0.35726 0.0
C2220 C 0.71802 0.68067 0.3553 0.0
C2221 C 0.35333 0.03569 0.35516 0.0
C2222 C 0.3665 0.07329 0.34746 0.0
C2223 C 0.38149 1.00983 0.35657 0.0
C2224 C 0.42398 0.0201 0.3503 0.0
H2225 H 0.3203 0.02531 0.36001 0.0
H2226 H 0.36878 0.9804 0.36243 0.0
S2227 S 0.47716 0.1184 0.3296 0.0
N2228 N 0.42731 0.1217 0.33394 0.0
N2229 N 0.47944 0.07351 0.3365 0.0
C2230 C 0.43843 0.05889 0.34281 0.0
C2231 C 0.41003 0.0853 0.34142 0.0
C2232 C 0.18791 0.39605 0.09699 0.0
C2233 C 0.17548 0.35526 0.09012 0.0
C2234 C 0.18289 0.38816 0.10768 0.0
C2235 C 0.16557 0.3392 0.11199 0.0
H2236 H 0.19998 0.43416 0.09408 0.0
H2237 H 0.19202 0.42065 0.11261 0.0
S2238 S 0.131 0.22007 0.09739 0.0
N2239 N 0.14788 0.26459 0.08845 0.0
N2240 N 0.13744 0.24953 0.10847 0.0
C2241 C 0.15457 0.29838 0.10522 0.0
C2242 C 0.15964 0.30643 0.09432 0.0
C2243 C 0.73163 0.84729 0.09353 0.0
C2244 C 0.68237 0.82887 0.08929 0.0
C2245 C 0.73971 0.85193 0.10422 0.0
C2246 C 0.69882 0.83798 0.11113 0.0
H2247 H 0.76417 0.85744 0.08855 0.0
H2248 H 0.77806 0.86478 0.10709 0.0
S2249 S 0.56283 0.79033 0.10403 0.0
N2250 N 0.5923 0.7982 0.09291 0.0
N2251 N 0.60771 0.8079 0.11293 0.0
C2252 C 0.64967 0.82114 0.10699 0.0
C2253 C 0.64142 0.81648 0.09611 0.0
C2254 C 0.24609 0.90612 0.10602 0.0
C2255 C 0.20204 0.87143 0.11155 0.0
C2256 C 0.24913 0.90226 0.09532 0.0
C2257 C 0.20841 0.8633 0.08966 0.0
H2258 H 0.27843 0.93703 0.10999 0.0
H2259 H 0.28405 0.92978 0.09147 0.0
S2260 S 0.08454 0.76243 0.1004 0.0
N2261 N 0.11677 0.79647 0.11053 0.0
N2262 N 0.12242 0.78935 0.0904 0.0
C2263 C 0.16415 0.82817 0.09507 0.0
C2264 C 0.1609 0.83232 0.10599 0.0
C2265 C 0.36549 0.12593 0.43975 0.0
C2266 C 0.36878 0.16759 0.44534 0.0
C2267 C 0.35829 0.12225 0.42906 0.0
C2268 C 0.3536 0.15984 0.42348 0.0
H2269 H 0.36893 0.09597 0.44367 0.0
H2270 H 0.35564 0.08917 0.42516 0.0
S2271 S 0.35947 0.27672 0.43441 0.0
N2272 N 0.36669 0.24733 0.44447 0.0
N2273 N 0.3533 0.2405 0.42435 0.0
C2274 C 0.35679 0.20176 0.42895 0.0
C2275 C 0.36453 0.20571 0.43987 0.0
C2276 C 0.84483 0.20825 0.42785 0.0
C2277 C 0.86778 0.18108 0.42375 0.0
C2278 C 0.84019 0.21237 0.43852 0.0
C2279 C 0.85866 0.18986 0.44559 0.0
H2280 H 0.83085 0.22709 0.42275 0.0
H2281 H 0.82347 0.23485 0.44125 0.0
S2282 S 0.92001 0.11273 0.43895 0.0
N2283 N 0.90818 0.13028 0.42771 0.0
N2284 N 0.89851 0.13717 0.4477 0.0
C2285 C 0.88045 0.16144 0.44161 0.0
C2286 C 0.88511 0.15716 0.43074 0.0
C2287 C 0.85249 0.65325 0.42746 0.0
C2288 C 0.85184 0.69651 0.4235 0.0
C2289 C 0.8482 0.64306 0.43807 0.0
C2290 C 0.84289 0.67561 0.44516 0.0
H2291 H 0.85592 0.6268 0.42231 0.0
H2292 H 0.84845 0.60905 0.44075 0.0
S2293 S 0.8364 0.79255 0.43867 0.0
N2294 N 0.84425 0.77146 0.42748 0.0
N2295 N 0.83582 0.75221 0.44735 0.0
C2296 C 0.84266 0.71926 0.44129 0.0
C2297 C 0.84719 0.7297 0.43049 0.0
C2298 C 0.84339 0.65583 0.92796 0.0
C2299 C 0.88629 0.69971 0.92394 0.0
C2300 C 0.83821 0.64566 0.93858 0.0
C2301 C 0.87581 0.67885 0.94562 0.0
H2302 H 0.81369 0.62892 0.92285 0.0
H2303 H 0.80465 0.61123 0.94129 0.0
S2304 S 0.99687 0.79754 0.93898 0.0
N2305 N 0.96773 0.77589 0.92783 0.0
N2306 N 0.95826 0.75668 0.94771 0.0
C2307 C 0.91873 0.72305 0.9417 0.0
C2308 C 0.92391 0.73347 0.93089 0.0
C2309 C 0.30653 0.16266 0.93017 0.0
C2310 C 0.34588 0.19089 0.92301 0.0
C2311 C 0.3165 0.16593 0.94079 0.0
C2312 C 0.36627 0.19749 0.94471 0.0
H2313 H 0.26752 0.13814 0.92754 0.0
H2314 H 0.28487 0.14388 0.94599 0.0
S2315 S 0.48237 0.28126 0.92932 0.0
N2316 N 0.43638 0.25259 0.92068 0.0
N2317 N 0.45509 0.25863 0.94057 0.0
C2318 C 0.40605 0.22552 0.93764 0.0
C2319 C 0.39589 0.22224 0.92683 0.0
C2320 C 0.79362 0.12004 0.9288 0.0
C2321 C 0.83631 0.15687 0.92323 0.0
C2322 C 0.78928 0.12482 0.93943 0.0
C2323 C 0.82723 0.16688 0.94499 0.0
H2324 H 0.76337 0.08683 0.92492 0.0
H2325 H 0.75544 0.09553 0.94332 0.0
S2326 S 0.94671 0.27417 0.93409 0.0
N2327 N 0.91735 0.2371 0.92409 0.0
N2328 N 0.90932 0.24598 0.9441 0.0
C2329 C 0.87016 0.20411 0.93953 0.0
C2330 C 0.87476 0.19904 0.92868 0.0
C2331 C 0.71448 0.8915 0.59442 0.0
C2332 C 0.67102 0.84746 0.59058 0.0
C2333 C 0.72678 0.89696 0.60493 0.0
C2334 C 0.69614 0.85866 0.61209 0.0
H2335 H 0.7385 0.92276 0.58929 0.0
H2336 H 0.75988 0.93217 0.60752 0.0
S2337 S 0.58123 0.73361 0.60593 0.0
N2338 N 0.59939 0.76316 0.59473 0.0
N2339 N 0.62238 0.77361 0.61448 0.0
C2340 C 0.65334 0.81385 0.60834 0.0
C2341 C 0.64085 0.80821 0.59761 0.0
C2342 C 0.18486 0.79785 0.59678 0.0
C2343 C 0.1955 0.83838 0.58997 0.0
C2344 C 0.17916 0.80234 0.60738 0.0
C2345 C 0.18403 0.84763 0.61166 0.0
H2346 H 0.1795 0.76174 0.59386 0.0
H2347 H 0.1694 0.76942 0.61223 0.0
S2348 S 0.21722 0.96699 0.59729 0.0
N2349 N 0.21412 0.92652 0.58835 0.0
N2350 N 0.20407 0.9353 0.60827 0.0
C2351 C 0.19621 0.88904 0.60497 0.0
C2352 C 0.20175 0.88433 0.59414 0.0
C2353 C 0.16717 0.32568 0.59434 0.0
C2354 C 0.2114 0.36846 0.5904 0.0
C2355 C 0.16147 0.31487 0.60493 0.0
C2356 C 0.19988 0.34624 0.61203 0.0
H2357 H 0.13684 0.30011 0.58918 0.0
H2358 H 0.12688 0.28128 0.60757 0.0
S2359 S 0.32435 0.46143 0.60558 0.0
N2360 N 0.29483 0.44167 0.5944 0.0
N2361 N 0.28446 0.42117 0.61423 0.0
C2362 C 0.24414 0.38938 0.60818 0.0
C2363 C 0.24981 0.40049 0.5974 0.0
C2364 C 0.0657 0.53834 0.75997 0.0
C2365 C 1.01741 0.50242 0.75596 0.0
C2366 C 0.07558 0.54184 0.7706 0.0
C2367 C 0.03761 0.5095 0.77765 0.0
H2368 H 0.09627 0.56368 0.75484 0.0
H2369 H 0.11346 0.56982 0.7733 0.0
S2370 S 0.90568 0.40698 0.77107 0.0
N2371 N 0.93169 0.43281 0.75989 0.0
N2372 N 0.95024 0.4393 0.77979 0.0
C2373 C 0.98904 0.4737 0.77375 0.0
C2374 C 0.97897 0.47017 0.76294 0.0
C2375 C 0.51389 0.54881 0.7601 0.0
C2376 C 0.53427 0.51947 0.75592 0.0
C2377 C 0.50846 0.55186 0.77078 0.0
C2378 C 0.52355 0.52603 0.77777 0.0
H2379 H 0.50262 0.57022 0.75507 0.0
H2380 H 0.49391 0.57611 0.77358 0.0
S2381 S 0.57701 0.44215 0.77086 0.0
N2382 N 0.56845 0.46297 0.7597 0.0
N2383 N 0.55728 0.4679 0.77969 0.0
C2384 C 0.54263 0.4954 0.77369 0.0
C2385 C 0.5481 0.49222 0.76282 0.0
C2386 C 0.53328 0.06443 0.7639 0.0
C2387 C 0.51767 0.02333 0.75695 0.0
C2388 C 0.52829 0.05625 0.77457 0.0
C2389 C 0.50786 1.00667 0.77878 0.0
H2390 H 0.5478 0.10311 0.76105 0.0
H2391 H 0.53984 0.08902 0.77958 0.0
S2392 S 0.46423 0.88633 0.76395 0.0
N2393 N 0.48366 0.93152 0.75508 0.0
N2394 N 0.47337 0.91598 0.77509 0.0
C2395 C 0.49369 0.96543 0.77193 0.0
C2396 C 0.49869 0.97377 0.76105 0.0
C2397 C 0.56926 0.06189 0.26368 0.0
C2398 C 0.54372 0.02073 0.25676 0.0
C2399 C 0.56608 0.05386 0.27437 0.0
C2400 C 0.53693 1.00436 0.2786 0.0
H2401 H 0.59344 0.1005 0.26082 0.0
H2402 H 0.58734 0.08667 0.27935 0.0
S2403 S 0.45999 0.88395 0.26384 0.0
N2404 N 0.48578 0.92899 0.25495 0.0
N2405 N 0.48059 0.91372 0.27497 0.0
C2406 C 0.50978 0.96308 0.27177 0.0
C2407 C 0.51309 0.97127 0.26089 0.0
C2408 C 0.9822 0.5165 0.27455 0.0
C2409 C 0.03135 0.53389 0.27876 0.0
C2410 C 0.97402 0.51229 0.26387 0.0
C2411 C 1.01471 0.52568 0.25693 0.0
H2412 H 0.94984 0.50684 0.27955 0.0
H2413 H 0.9358 0.50024 0.26102 0.0
S2414 S 0.15025 0.57051 0.26394 0.0
N2415 N 0.12104 0.56291 0.27509 0.0
N2416 N 0.10543 0.55405 0.25507 0.0
C2417 C 0.06371 0.54145 0.26104 0.0
C2418 C 0.07205 0.54567 0.27191 0.0
C2419 C 0.48104 0.51717 0.26014 0.0
C2420 C 0.51056 0.4965 0.2562 0.0
C2421 C 0.47744 0.52322 0.27077 0.0
C2422 C 0.50289 0.50849 0.27792 0.0
H2423 H 0.45983 0.52806 0.25497 0.0
H2424 H 0.453 0.53785 0.27341 0.0
S2425 S 0.58744 0.45505 0.27163 0.0
N2426 N 0.56716 0.4629 0.26034 0.0
N2427 N 0.56111 0.47513 0.28026 0.0
C2428 C 0.53388 0.48934 0.27407 0.0
C2429 C 0.53764 0.48327 0.26325 0.0
C2430 C 1.00602 0.13659 0.27261 0.0
C2431 C 1.01507 0.17794 0.27907 0.0
C2432 C 1.02454 0.14444 0.26244 0.0
C2433 C 0.05324 0.1941 0.2582 0.0
H2434 H 0.98381 0.09754 0.27539 0.0
H2435 H 1.01587 0.11109 0.25782 0.0
S2436 S 0.09095 0.31587 0.2721 0.0
N2437 N 0.05667 0.27072 0.28058 0.0
N2438 N 0.09173 0.28553 0.26158 0.0
C2439 C 0.06291 0.23588 0.26461 0.0
C2440 C 0.04386 0.22782 0.27498 0.0
C2441 C 0.90577 0.86144 0.26982 0.0
C2442 C 0.86648 0.83479 0.27708 0.0
C2443 C 0.89513 0.87203 0.25988 0.0
C2444 C 0.84463 0.85642 0.25669 0.0
H2445 H 0.94535 0.87446 0.27184 0.0
H2446 H 0.9269 0.89285 0.25465 0.0
S2447 S 0.72771 0.78654 0.27275 0.0
N2448 N 0.7748 0.79354 0.28036 0.0
N2449 N 0.75484 0.81322 0.26169 0.0
C2450 C 0.8048 0.82904 0.2638 0.0
C2451 C 0.81567 0.81831 0.27396 0.0
C2452 C 0.22248 1.00434 0.27404 0.0
C2453 C 0.20817 0.03982 0.27754 0.0
C2454 C 0.21298 0.98605 0.26383 0.0
C2455 C 0.18895 1.00267 0.25669 0.0
H2456 H 0.23977 0.98944 0.27932 0.0
H2457 H 0.22312 0.95752 0.26159 0.0
S2458 S 0.15095 0.10093 0.26161 0.0
N2459 N 0.17338 0.09454 0.27276 0.0
N2460 N 0.15603 0.06084 0.25367 0.0
C2461 C 0.17665 0.0399 0.26 0.0
C2462 C 0.18612 0.05827 0.27037 0.0
C2463 C 0.03122 0.88565 0.77412 0.0
C2464 C 0.99754 0.83596 0.77786 0.0
C2465 C 0.05087 0.89376 0.76406 0.0
C2466 C 0.03785 0.85258 0.75725 0.0
H2467 H 0.04269 0.91875 0.77903 0.0
H2468 H 0.07675 0.93279 0.76161 0.0
S2469 S 0.94924 0.71502 0.76299 0.0
N2470 N 0.95087 0.74492 0.77376 0.0
N2471 N 0.98792 0.76017 0.75491 0.0
C2472 C 1.00442 0.80263 0.76088 0.0
C2473 C 0.98429 0.79434 0.77114 0.0
C2474 C 0.2335 0.20357 0.76005 0.0
C2475 C 0.18359 0.18736 0.75637 0.0
C2476 C 0.242 0.19243 0.77016 0.0
C2477 C 0.20095 0.16465 0.77701 0.0
H2478 H 0.26619 0.22404 0.75501 0.0
H2479 H 0.28093 0.2046 0.77255 0.0
S2480 S 0.06358 0.1195 0.77163 0.0
N2481 N 0.09306 0.14617 0.76075 0.0
N2482 N 0.10892 0.12539 0.77962 0.0
C2483 C 0.15108 0.14988 0.77352 0.0
C2484 C 0.14246 0.16116 0.76326 0.0
C2485 C 0.89039 1.01341 0.77308 0.0
C2486 C 0.87503 0.04809 0.77661 0.0
C2487 C 0.88016 0.99409 0.76299 0.0
C2488 C 0.85407 1.00845 0.7559 0.0
H2489 H 0.91032 1.00076 0.7782 0.0
H2490 H 0.89251 0.96722 0.76074 0.0
S2491 S 0.8082 0.10049 0.761 0.0
N2492 N 0.8339 0.0974 0.77201 0.0
N2493 N 0.8147 0.06113 0.75308 0.0
C2494 C 0.83851 0.04314 0.75931 0.0
C2495 C 0.84895 0.06287 0.76962 0.0
C2496 C 0.71075 0.55219 0.60768 0.0
C2497 C 0.67674 0.50239 0.61134 0.0
C2498 C 0.7297 0.56068 0.59752 0.0
C2499 C 0.71541 0.51977 0.59055 0.0
H2500 H 0.72368 0.58486 0.61277 0.0
H2501 H 0.75667 0.59959 0.59518 0.0
S2502 S 0.62248 0.38262 0.59588 0.0
N2503 N 0.62643 0.41203 0.60685 0.0
N2504 N 0.66164 0.42788 0.58788 0.0
C2505 C 0.68023 0.46996 0.59403 0.0
C2506 C 0.66105 0.46133 0.60436 0.0
C2507 C 0.56764 0.19498 0.60469 0.0
C2508 C 0.53019 0.17884 0.61247 0.0
C2509 C 0.55785 0.20543 0.59467 0.0
C2510 C 0.51005 0.2001 0.59195 0.0
H2511 H 0.6049 0.1993 0.60633 0.0
H2512 H 0.58806 0.21766 0.58899 0.0
S2513 S 0.39947 0.16111 0.60953 0.0
N2514 N 0.44365 0.15932 0.61679 0.0
N2515 N 0.42519 0.17877 0.59798 0.0
C2516 C 0.47208 0.18372 0.59963 0.0
C2517 C 0.48213 0.17314 0.60986 0.0
C2518 C 0.90312 0.3727 0.60496 0.0
C2519 C 0.86211 0.35934 0.61184 0.0
C2520 C 0.89452 0.35478 0.59472 0.0
C2521 C 0.84452 0.32286 0.59091 0.0
H2522 H 0.9422 0.3983 0.60742 0.0
H2523 H 0.92725 0.36701 0.58969 0.0
S2524 S 0.72427 0.27141 0.60609 0.0
N2525 N 0.76982 0.30836 0.61428 0.0
N2526 N 0.75375 0.27521 0.59515 0.0
C2527 C 0.80334 0.30792 0.59781 0.0
C2528 C 0.81208 0.32598 0.60821 0.0
C2529 C 0.68541 0.15541 0.09513 0.0
C2530 C 0.71826 0.20569 0.09156 0.0
C2531 C 0.66478 0.14604 0.10515 0.0
C2532 C 0.67607 0.18653 0.11205 0.0
H2533 H 0.67462 0.123 0.09007 0.0
H2534 H 0.63878 0.10676 0.10743 0.0
S2535 S 0.76501 0.32491 0.10697 0.0
N2536 N 0.76441 0.29621 0.0961 0.0
N2537 N 0.72587 0.27871 0.11481 0.0
C2538 C 0.71013 0.23688 0.10868 0.0
C2539 C 0.73109 0.2464 0.09849 0.0
C2540 C 0.82876 0.50457 0.10868 0.0
C2541 C 0.87322 0.50202 0.11102 0.0
C2542 C 0.81896 0.51514 0.09867 0.0
C2543 C 0.8531 0.52363 0.09051 0.0
H2544 H 0.80111 0.49825 0.11465 0.0
H2545 H 0.78415 0.51661 0.09732 0.0
S2546 S 0.97409 0.51926 0.09238 0.0
N2547 N 0.95127 0.50786 0.10423 0.0
N2548 N 0.93283 0.52766 0.08544 0.0
C2549 C 0.89796 0.52167 0.09274 0.0
C2550 C 0.90799 0.5109 0.10296 0.0
C2551 C 0.49743 0.3494 0.10625 0.0
C2552 C 0.54687 0.38782 0.10927 0.0
C2553 C 0.48709 0.33046 0.09609 0.0
C2554 C 0.52571 0.34915 0.0885 0.0
H2555 H 0.46673 0.33276 0.11185 0.0
H2556 H 0.44879 0.29986 0.09426 0.0
S2557 S 0.66003 0.45438 0.09208 0.0
N2558 N 0.63376 0.44694 0.10356 0.0
N2559 N 0.6144 0.41171 0.08458 0.0
C2560 C 0.57485 0.38888 0.09134 0.0
C2561 C 0.58537 0.40807 0.10167 0.0
C2562 C 0.38914 0.89648 0.93131 0.0
C2563 C 0.37049 0.85693 0.9239 0.0
C2564 C 0.37081 0.88712 0.94152 0.0
C2565 C 0.33318 0.83777 0.94477 0.0
H2566 H 0.41914 0.93476 0.92928 0.0
H2567 H 0.38718 0.91855 0.94697 0.0
S2568 S 0.26689 0.72236 0.92812 0.0
N2569 N 0.30861 0.76744 0.9204 0.0
N2570 N 0.27477 0.74993 0.93947 0.0
C2571 C 0.313 0.79833 0.93736 0.0
C2572 C 0.33146 0.80786 0.92698 0.0
C2573 C 0.23492 0.51804 0.93596 0.0
C2574 C 0.19863 0.5026 0.94397 0.0
C2575 C 0.22412 0.52888 0.92605 0.0
C2576 C 0.17642 0.52461 0.92366 0.0
H2577 H 0.27225 0.52199 0.93735 0.0
H2578 H 0.25356 0.54088 0.92021 0.0
S2579 S 0.06846 0.48722 0.94186 0.0
N2580 N 0.11311 0.48459 0.94881 0.0
N2581 N 0.09275 0.50448 0.9302 0.0
C2582 C 0.13946 0.50854 0.93153 0.0
C2583 C 0.15054 0.49766 0.94166 0.0
C2584 C 0.56216 0.6971 0.92637 0.0
C2585 C 0.51373 0.65734 0.92316 0.0
C2586 C 0.57108 0.71502 0.93661 0.0
C2587 C 0.53201 0.69385 0.9441 0.0
H2588 H 0.59316 0.71535 0.92086 0.0
H2589 H 0.60858 0.74663 0.9386 0.0
S2590 S 0.40022 0.58447 0.93999 0.0
N2591 N 0.42748 0.59451 0.92857 0.0
N2592 N 0.44422 0.62762 0.9477 0.0
C2593 C 0.48395 0.65283 0.94106 0.0
C2594 C 0.47484 0.63478 0.93065 0.0
C2595 C 0.39129 0.54921 0.44222 0.0
C2596 C 0.34659 0.50268 0.44464 0.0
C2597 C 0.41093 0.56037 0.43215 0.0
C2598 C 0.38689 0.52556 0.42399 0.0
H2599 H 0.4113 0.57751 0.44816 0.0
H2600 H 0.44531 0.5968 0.43074 0.0
S2601 S 0.2679 0.39895 0.42606 0.0
N2602 N 0.27836 0.42182 0.4379 0.0
N2603 N 0.31528 0.44271 0.41904 0.0
C2604 C 0.34255 0.47859 0.42631 0.0
C2605 C 0.32246 0.46721 0.43658 0.0
C2606 C 0.50378 0.80559 0.42652 0.0
C2607 C 0.50693 0.85271 0.42404 0.0
C2608 C 0.51494 0.79553 0.43647 0.0
C2609 C 0.52964 0.83206 0.44443 0.0
H2610 H 0.49279 0.77617 0.42069 0.0
H2611 H 0.51215 0.75874 0.43792 0.0
S2612 S 0.54051 0.9603 0.44218 0.0
N2613 N 0.52406 0.93562 0.43052 0.0
N2614 N 0.54471 0.91671 0.44918 0.0
C2615 C 0.53285 0.87934 0.44207 0.0
C2616 C 0.52158 0.88963 0.43191 0.0
C2617 C 0.1572 0.67161 0.44093 0.0
C2618 C 0.20641 0.70847 0.4444 0.0
C2619 C 0.14875 0.65357 0.43071 0.0
C2620 C 0.18909 0.67172 0.42349 0.0
H2621 H 0.12509 0.65572 0.44621 0.0
H2622 H 0.11044 0.62426 0.4285 0.0
S2623 S 0.32403 0.77287 0.42835 0.0
N2624 N 0.29526 0.7654 0.43954 0.0
N2625 N 0.27942 0.73195 0.42043 0.0
C2626 C 0.23817 0.70975 0.4268 0.0
C2627 C 0.24678 0.72796 0.4372 0.0
loop_
_geom_bond_atom_site_label_1
_geom_bond_atom_site_label_2
_geom_bond_distance
_geom_bond_site_symmetry_2
_ccdc_geom_bond_type
C0 Eu1 2.835 . S
C0 C2 1.500 . S
C0 O20 1.257 . S
C0 O21 1.260 . S
Eu1 C0 2.835 . S
Eu1 O20 2.473 . S
Eu1 O21 2.480 . S
Eu1 O22 2.430 . S
Eu1 O23 2.670 . S
Eu1 O24 2.394 . S
Eu1 O29 2.355 . S
Eu1 O31 2.374 . S
C2 C0 1.500 . S
C2 C3 1.377 . S
C2 C7 1.377 . S
C3 C2 1.377 . S
C3 C4 1.395 . S
C3 H32 0.931 . S
C4 C3 1.395 . S
C4 C5 1.383 . S
C4 H33 0.931 . S
C5 C4 1.383 . S
C5 C6 1.394 . S
C6 C5 1.394 . S
C6 C7 1.378 . S
C6 H34 0.931 . S
C7 C2 1.377 . S
C7 C6 1.378 . S
C7 H35 0.931 . S
C8 O22 1.259 . S
C8 O23 1.270 . S
C9 O24 1.251 . S
C9 O25 1.251 . S
C10 Eu11 2.835 . S
C10 C12 1.500 . S
C10 O26 1.257 . S
C10 O27 1.260 . S
Eu11 C10 2.835 . S
Eu11 O23 2.355 . S
Eu11 O25 2.374 . S
Eu11 O26 2.473 . S
Eu11 O27 2.480 . S
Eu11 O28 2.430 . S
Eu11 O29 2.670 . S
Eu11 O30 2.394 . S
C12 C10 1.500 . S
C12 C13 1.377 . S
C12 C17 1.377 . S
C13 C12 1.377 . S
C13 C14 1.395 . S
C13 H36 0.931 . S
C14 C13 1.395 . S
C14 C15 1.383 . S
C14 H37 0.931 . S
C15 C14 1.383 . S
C15 C16 1.394 . S
C16 C15 1.394 . S
C16 C17 1.378 . S
C16 H38 0.931 . S
C17 C12 1.377 . S
C17 C16 1.378 . S
C17 H39 0.931 . S
C18 O28 1.259 . S
C18 O29 1.270 . S
C19 O30 1.251 . S
C19 O31 1.251 . S
O20 C0 1.257 . S
O20 Eu1 2.473 . S
O21 C0 1.260 . S
O21 Eu1 2.480 . S
O22 Eu1 2.430 . S
O22 C8 1.259 . S
O23 Eu1 2.670 . S
O23 C8 1.270 . S
O23 Eu11 2.355 . S
O24 Eu1 2.394 . S
O24 C9 1.251 . S
O25 C9 1.251 . S
O25 Eu11 2.374 . S
O26 C10 1.257 . S
O26 Eu11 2.473 . S
O27 C10 1.260 . S
O27 Eu11 2.480 . S
O28 Eu11 2.430 . S
O28 C18 1.259 . S
O29 Eu1 2.355 . S
O29 Eu11 2.670 . S
O29 C18 1.270 . S
O30 Eu11 2.394 . S
O30 C19 1.251 . S
O31 Eu1 2.374 . S
O31 C19 1.251 . S
H32 C3 0.931 . S
H33 C4 0.931 . S
H34 C6 0.931 . S
H35 C7 0.931 . S
H36 C13 0.931 . S
H37 C14 0.931 . S
H38 C16 0.931 . S
H39 C17 0.931 . S
C40 Eu41 2.835 . S
C40 C42 1.500 . S
C40 O60 1.257 . S
C40 O61 1.260 . S
Eu41 C40 2.835 . S
Eu41 O60 2.473 . S
Eu41 O61 2.480 . S
Eu41 O62 2.430 . S
Eu41 O63 2.670 . S
Eu41 O64 2.394 . S
Eu41 O69 2.355 . S
Eu41 O71 2.374 . S
C42 C40 1.500 . S
C42 C43 1.377 . S
C42 C47 1.377 . S
C43 C42 1.377 . S
C43 C44 1.395 . S
C43 H72 0.931 . S
C44 C43 1.395 . S
C44 C45 1.383 . S
C44 H73 0.931 . S
C45 C44 1.383 . S
C45 C46 1.394 . S
C46 C45 1.394 . S
C46 C47 1.378 . S
C46 H74 0.931 . S
C47 C42 1.377 . S
C47 C46 1.378 . S
C47 H75 0.931 . S
C48 O62 1.259 . S
C48 O63 1.270 . S
C49 O64 1.251 . S
C49 O65 1.251 . S
C50 Eu51 2.835 . S
C50 C52 1.500 . S
C50 O66 1.257 . S
C50 O67 1.260 . S
Eu51 C50 2.835 . S
Eu51 O63 2.355 . S
Eu51 O65 2.374 . S
Eu51 O66 2.473 . S
Eu51 O67 2.480 . S
Eu51 O68 2.430 . S
Eu51 O69 2.670 . S
Eu51 O70 2.394 . S
C52 C50 1.500 . S
C52 C53 1.377 . S
C52 C57 1.377 . S
C53 C52 1.377 . S
C53 C54 1.395 . S
C53 H76 0.931 . S
C54 C53 1.395 . S
C54 C55 1.383 . S
C54 H77 0.931 . S
C55 C54 1.383 . S
C55 C56 1.394 . S
C56 C55 1.394 . S
C56 C57 1.378 . S
C56 H78 0.931 . S
C57 C52 1.377 . S
C57 C56 1.378 . S
C57 H79 0.931 . S
C58 O68 1.259 . S
C58 O69 1.270 . S
C59 O70 1.251 . S
C59 O71 1.251 . S
O60 C40 1.257 . S
O60 Eu41 2.473 . S
O61 C40 1.260 . S
O61 Eu41 2.480 . S
O62 Eu41 2.430 . S
O62 C48 1.259 . S
O63 Eu41 2.670 . S
O63 C48 1.270 . S
O63 Eu51 2.355 . S
O64 Eu41 2.394 . S
O64 C49 1.251 . S
O65 C49 1.251 . S
O65 Eu51 2.374 . S
O66 C50 1.257 . S
O66 Eu51 2.473 . S
O67 C50 1.260 . S
O67 Eu51 2.480 . S
O68 Eu51 2.430 . S
O68 C58 1.259 . S
O69 Eu41 2.355 . S
O69 Eu51 2.670 . S
O69 C58 1.270 . S
O70 Eu51 2.394 . S
O70 C59 1.251 . S
O71 Eu41 2.374 . S
O71 C59 1.251 . S
H72 C43 0.931 . S
H73 C44 0.931 . S
H74 C46 0.931 . S
H75 C47 0.931 . S
H76 C53 0.931 . S
H77 C54 0.931 . S
H78 C56 0.931 . S
H79 C57 0.931 . S
C80 Eu81 2.835 . S
C80 C82 1.500 . S
C80 O100 1.257 . S
C80 O101 1.260 . S
Eu81 C80 2.835 . S
Eu81 O100 2.473 . S
Eu81 O101 2.480 . S
Eu81 O102 2.430 . S
Eu81 O103 2.670 . S
Eu81 O104 2.394 . S
Eu81 O109 2.355 . S
Eu81 O111 2.374 . S
C82 C80 1.500 . S
C82 C83 1.377 . S
C82 C87 1.377 . S
C83 C82 1.377 . S
C83 C84 1.395 . S
C83 H112 0.931 . S
C84 C83 1.395 . S
C84 C85 1.383 . S
C84 H113 0.931 . S
C85 C84 1.383 . S
C85 C86 1.394 . S
C86 C85 1.394 . S
C86 C87 1.378 . S
C86 H114 0.931 . S
C87 C82 1.377 . S
C87 C86 1.378 . S
C87 H115 0.931 . S
C88 O102 1.259 . S
C88 O103 1.270 . S
C89 O104 1.251 . S
C89 O105 1.251 . S
C90 Eu91 2.835 . S
C90 C92 1.500 . S
C90 O106 1.257 . S
C90 O107 1.260 . S
Eu91 C90 2.835 . S
Eu91 O103 2.355 . S
Eu91 O105 2.374 . S
Eu91 O106 2.473 . S
Eu91 O107 2.480 . S
Eu91 O108 2.430 . S
Eu91 O109 2.670 . S
Eu91 O110 2.394 . S
C92 C90 1.500 . S
C92 C93 1.377 . S
C92 C97 1.377 . S
C93 C92 1.377 . S
C93 C94 1.395 . S
C93 H116 0.931 . S
C94 C93 1.395 . S
C94 C95 1.383 . S
C94 H117 0.931 . S
C95 C94 1.383 . S
C95 C96 1.394 . S
C96 C95 1.394 . S
C96 C97 1.378 . S
C96 H118 0.931 . S
C97 C92 1.377 . S
C97 C96 1.378 . S
C97 H119 0.931 . S
C98 O108 1.259 . S
C98 O109 1.270 . S
C99 O110 1.251 . S
C99 O111 1.251 . S
O100 C80 1.257 . S
O100 Eu81 2.473 . S
O101 C80 1.260 . S
O101 Eu81 2.480 . S
O102 Eu81 2.430 . S
O102 C88 1.259 . S
O103 Eu81 2.670 . S
O103 C88 1.270 . S
O103 Eu91 2.355 . S
O104 Eu81 2.394 . S
O104 C89 1.251 . S
O105 C89 1.251 . S
O105 Eu91 2.374 . S
O106 C90 1.257 . S
O106 Eu91 2.473 . S
O107 C90 1.260 . S
O107 Eu91 2.480 . S
O108 Eu91 2.430 . S
O108 C98 1.259 . S
O109 Eu81 2.355 . S
O109 Eu91 2.670 . S
O109 C98 1.270 . S
O110 Eu91 2.394 . S
O110 C99 1.251 . S
O111 Eu81 2.374 . S
O111 C99 1.251 . S
H112 C83 0.931 . S
H113 C84 0.931 . S
H114 C86 0.931 . S
H115 C87 0.931 . S
H116 C93 0.931 . S
H117 C94 0.931 . S
H118 C96 0.931 . S
H119 C97 0.931 . S
C120 Eu121 2.835 . S
C120 C122 1.500 . S
C120 O140 1.257 . S
C120 O141 1.260 . S
Eu121 C120 2.835 . S
Eu121 O140 2.473 . S
Eu121 O141 2.480 . S
Eu121 O142 2.430 . S
Eu121 O143 2.670 . S
Eu121 O144 2.394 . S
Eu121 O149 2.355 . S
Eu121 O151 2.374 . S
C122 C120 1.500 . S
C122 C123 1.377 . S
C122 C127 1.377 . S
C123 C122 1.377 . S
C123 C124 1.395 . S
C123 H152 0.931 . S
C124 C123 1.395 . S
C124 C125 1.383 . S
C124 H153 0.931 . S
C125 C124 1.383 . S
C125 C126 1.394 . S
C126 C125 1.394 . S
C126 C127 1.378 . S
C126 H154 0.931 . S
C127 C122 1.377 . S
C127 C126 1.378 . S
C127 H155 0.931 . S
C128 O142 1.259 . S
C128 O143 1.270 . S
C129 O144 1.251 . S
C129 O145 1.251 . S
C130 Eu131 2.835 . S
C130 C132 1.500 . S
C130 O146 1.257 . S
C130 O147 1.260 . S
Eu131 C130 2.835 . S
Eu131 O143 2.355 . S
Eu131 O145 2.374 . S
Eu131 O146 2.473 . S
Eu131 O147 2.480 . S
Eu131 O148 2.430 . S
Eu131 O149 2.670 . S
Eu131 O150 2.394 . S
C132 C130 1.500 . S
C132 C133 1.377 . S
C132 C137 1.377 . S
C133 C132 1.377 . S
C133 C134 1.395 . S
C133 H156 0.931 . S
C134 C133 1.395 . S
C134 C135 1.383 . S
C134 H157 0.931 . S
C135 C134 1.383 . S
C135 C136 1.394 . S
C136 C135 1.394 . S
C136 C137 1.378 . S
C136 H158 0.931 . S
C137 C132 1.377 . S
C137 C136 1.378 . S
C137 H159 0.931 . S
C138 O148 1.259 . S
C138 O149 1.270 . S
C139 O150 1.251 . S
C139 O151 1.251 . S
O140 C120 1.257 . S
O140 Eu121 2.473 . S
O141 C120 1.260 . S
O141 Eu121 2.480 . S
O142 Eu121 2.430 . S
O142 C128 1.259 . S
O143 Eu121 2.670 . S
O143 C128 1.270 . S
O143 Eu131 2.355 . S
O144 Eu121 2.394 . S
O144 C129 1.251 . S
O145 C129 1.251 . S
O145 Eu131 2.374 . S
O146 C130 1.257 . S
O146 Eu131 2.473 . S
O147 C130 1.260 . S
O147 Eu131 2.480 . S
O148 Eu131 2.430 . S
O148 C138 1.259 . S
O149 Eu121 2.355 . S
O149 Eu131 2.670 . S
O149 C138 1.270 . S
O150 Eu131 2.394 . S
O150 C139 1.251 . S
O151 Eu121 2.374 . S
O151 C139 1.251 . S
H152 C123 0.931 . S
H153 C124 0.931 . S
H154 C126 0.931 . S
H155 C127 0.931 . S
H156 C133 0.931 . S
H157 C134 0.931 . S
H158 C136 0.931 . S
H159 C137 0.931 . S
C160 Eu161 2.835 . S
C160 C162 1.500 . S
C160 O180 1.257 . S
C160 O181 1.260 . S
Eu161 C160 2.835 . S
Eu161 O180 2.473 . S
Eu161 O181 2.480 . S
Eu161 O182 2.430 . S
Eu161 O183 2.670 . S
Eu161 O184 2.394 . S
Eu161 O189 2.355 . S
Eu161 O191 2.374 . S
C162 C160 1.500 . S
C162 C163 1.377 . S
C162 C167 1.377 . S
C163 C162 1.377 . S
C163 C164 1.395 . S
C163 H192 0.931 . S
C164 C163 1.395 . S
C164 C165 1.383 . S
C164 H193 0.931 . S
C165 C164 1.383 . S
C165 C166 1.394 . S
C166 C165 1.394 . S
C166 C167 1.378 . S
C166 H194 0.931 . S
C167 C162 1.377 . S
C167 C166 1.378 . S
C167 H195 0.931 . S
C168 O182 1.259 . S
C168 O183 1.270 . S
C169 O184 1.251 . S
C169 O185 1.251 . S
C170 Eu171 2.835 . S
C170 C172 1.500 . S
C170 O186 1.257 . S
C170 O187 1.260 . S
Eu171 C170 2.835 . S
Eu171 O183 2.355 . S
Eu171 O185 2.374 . S
Eu171 O186 2.473 . S
Eu171 O187 2.480 . S
Eu171 O188 2.430 . S
Eu171 O189 2.670 . S
Eu171 O190 2.394 . S
C172 C170 1.500 . S
C172 C173 1.377 . S
C172 C177 1.377 . S
C173 C172 1.377 . S
C173 C174 1.395 . S
C173 H196 0.931 . S
C174 C173 1.395 . S
C174 C175 1.383 . S
C174 H197 0.931 . S
C175 C174 1.383 . S
C175 C176 1.394 . S
C176 C175 1.394 . S
C176 C177 1.378 . S
C176 H198 0.931 . S
C177 C172 1.377 . S
C177 C176 1.378 . S
C177 H199 0.931 . S
C178 O188 1.259 . S
C178 O189 1.270 . S
C179 O190 1.251 . S
C179 O191 1.251 . S
O180 C160 1.257 . S
O180 Eu161 2.473 . S
O181 C160 1.260 . S
O181 Eu161 2.480 . S
O182 Eu161 2.430 . S
O182 C168 1.259 . S
O183 Eu161 2.670 . S
O183 C168 1.270 . S
O183 Eu171 2.355 . S
O184 Eu161 2.394 . S
O184 C169 1.251 . S
O185 C169 1.251 . S
O185 Eu171 2.374 . S
O186 C170 1.257 . S
O186 Eu171 2.473 . S
O187 C170 1.260 . S
O187 Eu171 2.480 . S
O188 Eu171 2.430 . S
O188 C178 1.259 . S
O189 Eu161 2.355 . S
O189 Eu171 2.670 . S
O189 C178 1.270 . S
O190 Eu171 2.394 . S
O190 C179 1.251 . S
O191 Eu161 2.374 . S
O191 C179 1.251 . S
H192 C163 0.931 . S
H193 C164 0.931 . S
H194 C166 0.931 . S
H195 C167 0.931 . S
H196 C173 0.931 . S
H197 C174 0.931 . S
H198 C176 0.931 . S
H199 C177 0.931 . S
C200 Eu201 2.835 . S
C200 C202 1.500 . S
C200 O220 1.257 . S
C200 O221 1.260 . S
Eu201 C200 2.835 . S
Eu201 O220 2.473 . S
Eu201 O221 2.480 . S
Eu201 O222 2.430 . S
Eu201 O223 2.670 . S
Eu201 O224 2.394 . S
Eu201 O229 2.355 . S
Eu201 O231 2.374 . S
C202 C200 1.500 . S
C202 C203 1.377 . S
C202 C207 1.377 . S
C203 C202 1.377 . S
C203 C204 1.395 . S
C203 H232 0.931 . S
C204 C203 1.395 . S
C204 C205 1.383 . S
C204 H233 0.931 . S
C205 C204 1.383 . S
C205 C206 1.394 . S
C206 C205 1.394 . S
C206 C207 1.378 . S
C206 H234 0.931 . S
C207 C202 1.377 . S
C207 C206 1.378 . S
C207 H235 0.931 . S
C208 O222 1.259 . S
C208 O223 1.270 . S
C209 O224 1.251 . S
C209 O225 1.251 . S
C210 Eu211 2.835 . S
C210 C212 1.500 . S
C210 O226 1.257 . S
C210 O227 1.260 . S
Eu211 C210 2.835 . S
Eu211 O223 2.355 . S
Eu211 O225 2.374 . S
Eu211 O226 2.473 . S
Eu211 O227 2.480 . S
Eu211 O228 2.430 . S
Eu211 O229 2.670 . S
Eu211 O230 2.394 . S
C212 C210 1.500 . S
C212 C213 1.377 . S
C212 C217 1.377 . S
C213 C212 1.377 . S
C213 C214 1.395 . S
C213 H236 0.931 . S
C214 C213 1.395 . S
C214 C215 1.383 . S
C214 H237 0.931 . S
C215 C214 1.383 . S
C215 C216 1.394 . S
C216 C215 1.394 . S
C216 C217 1.378 . S
C216 H238 0.931 . S
C217 C212 1.377 . S
C217 C216 1.378 . S
C217 H239 0.931 . S
C218 O228 1.259 . S
C218 O229 1.270 . S
C219 O230 1.251 . S
C219 O231 1.251 . S
O220 C200 1.257 . S
O220 Eu201 2.473 . S
O221 C200 1.260 . S
O221 Eu201 2.480 . S
O222 Eu201 2.430 . S
O222 C208 1.259 . S
O223 Eu201 2.670 . S
O223 C208 1.270 . S
O223 Eu211 2.355 . S
O224 Eu201 2.394 . S
O224 C209 1.251 . S
O225 C209 1.251 . S
O225 Eu211 2.374 . S
O226 C210 1.257 . S
O226 Eu211 2.473 . S
O227 C210 1.260 . S
O227 Eu211 2.480 . S
O228 Eu211 2.430 . S
O228 C218 1.259 . S
O229 Eu201 2.355 . S
O229 Eu211 2.670 . S
O229 C218 1.270 . S
O230 Eu211 2.394 . S
O230 C219 1.251 . S
O231 Eu201 2.374 . S
O231 C219 1.251 . S
H232 C203 0.931 . S
H233 C204 0.931 . S
H234 C206 0.931 . S
H235 C207 0.931 . S
H236 C213 0.931 . S
H237 C214 0.931 . S
H238 C216 0.931 . S
H239 C217 0.931 . S
C240 Eu241 2.835 . S
C240 C242 1.500 . S
C240 O260 1.257 . S
C240 O261 1.260 . S
Eu241 C240 2.835 . S
Eu241 O260 2.473 . S
Eu241 O261 2.480 . S
Eu241 O262 2.430 . S
Eu241 O263 2.670 . S
Eu241 O264 2.394 . S
Eu241 O269 2.355 . S
Eu241 O271 2.374 . S
C242 C240 1.500 . S
C242 C243 1.377 . S
C242 C247 1.377 . S
C243 C242 1.377 . S
C243 C244 1.395 . S
C243 H272 0.931 . S
C244 C243 1.395 . S
C244 C245 1.383 . S
C244 H273 0.931 . S
C245 C244 1.383 . S
C245 C246 1.394 . S
C246 C245 1.394 . S
C246 C247 1.378 . S
C246 H274 0.931 . S
C247 C242 1.377 . S
C247 C246 1.378 . S
C247 H275 0.931 . S
C248 O262 1.259 . S
C248 O263 1.270 . S
C249 O264 1.251 . S
C249 O265 1.251 . S
C250 Eu251 2.835 . S
C250 C252 1.500 . S
C250 O266 1.257 . S
C250 O267 1.260 . S
Eu251 C250 2.835 . S
Eu251 O263 2.355 . S
Eu251 O265 2.374 . S
Eu251 O266 2.473 . S
Eu251 O267 2.480 . S
Eu251 O268 2.430 . S
Eu251 O269 2.670 . S
Eu251 O270 2.394 . S
C252 C250 1.500 . S
C252 C253 1.377 . S
C252 C257 1.377 . S
C253 C252 1.377 . S
C253 C254 1.395 . S
C253 H276 0.931 . S
C254 C253 1.395 . S
C254 C255 1.383 . S
C254 H277 0.931 . S
C255 C254 1.383 . S
C255 C256 1.394 . S
C256 C255 1.394 . S
C256 C257 1.378 . S
C256 H278 0.931 . S
C257 C252 1.377 . S
C257 C256 1.378 . S
C257 H279 0.931 . S
C258 O268 1.259 . S
C258 O269 1.270 . S
C259 O270 1.251 . S
C259 O271 1.251 . S
O260 C240 1.257 . S
O260 Eu241 2.473 . S
O261 C240 1.260 . S
O261 Eu241 2.480 . S
O262 Eu241 2.430 . S
O262 C248 1.259 . S
O263 Eu241 2.670 . S
O263 C248 1.270 . S
O263 Eu251 2.355 . S
O264 Eu241 2.394 . S
O264 C249 1.251 . S
O265 C249 1.251 . S
O265 Eu251 2.374 . S
O266 C250 1.257 . S
O266 Eu251 2.473 . S
O267 C250 1.260 . S
O267 Eu251 2.480 . S
O268 Eu251 2.430 . S
O268 C258 1.259 . S
O269 Eu241 2.355 . S
O269 Eu251 2.670 . S
O269 C258 1.270 . S
O270 Eu251 2.394 . S
O270 C259 1.251 . S
O271 Eu241 2.374 . S
O271 C259 1.251 . S
H272 C243 0.931 . S
H273 C244 0.931 . S
H274 C246 0.931 . S
H275 C247 0.931 . S
H276 C253 0.931 . S
H277 C254 0.931 . S
H278 C256 0.931 . S
H279 C257 0.931 . S
C280 Eu281 2.835 . S
C280 C282 1.500 . S
C280 O300 1.257 . S
C280 O301 1.260 . S
Eu281 C280 2.835 . S
Eu281 O300 2.473 . S
Eu281 O301 2.480 . S
Eu281 O302 2.430 . S
Eu281 O303 2.670 . S
Eu281 O304 2.394 . S
Eu281 O309 2.355 . S
Eu281 O311 2.374 . S
C282 C280 1.500 . S
C282 C283 1.377 . S
C282 C287 1.377 . S
C283 C282 1.377 . S
C283 C284 1.395 . S
C283 H312 0.931 . S
C284 C283 1.395 . S
C284 C285 1.383 . S
C284 H313 0.931 . S
C285 C284 1.383 . S
C285 C286 1.394 . S
C286 C285 1.394 . S
C286 C287 1.378 . S
C286 H314 0.931 . S
C287 C282 1.377 . S
C287 C286 1.378 . S
C287 H315 0.931 . S
C288 O302 1.259 . S
C288 O303 1.270 . S
C289 O304 1.251 . S
C289 O305 1.251 . S
C290 Eu291 2.835 . S
C290 C292 1.500 . S
C290 O306 1.257 . S
C290 O307 1.260 . S
Eu291 C290 2.835 . S
Eu291 O303 2.355 . S
Eu291 O305 2.374 . S
Eu291 O306 2.473 . S
Eu291 O307 2.480 . S
Eu291 O308 2.430 . S
Eu291 O309 2.670 . S
Eu291 O310 2.394 . S
C292 C290 1.500 . S
C292 C293 1.377 . S
C292 C297 1.377 . S
C293 C292 1.377 . S
C293 C294 1.395 . S
C293 H316 0.931 . S
C294 C293 1.395 . S
C294 C295 1.383 . S
C294 H317 0.931 . S
C295 C294 1.383 . S
C295 C296 1.394 . S
C296 C295 1.394 . S
C296 C297 1.378 . S
C296 H318 0.931 . S
C297 C292 1.377 . S
C297 C296 1.378 . S
C297 H319 0.931 . S
C298 O308 1.259 . S
C298 O309 1.270 . S
C299 O310 1.251 . S
C299 O311 1.251 . S
O300 C280 1.257 . S
O300 Eu281 2.473 . S
O301 C280 1.260 . S
O301 Eu281 2.480 . S
O302 Eu281 2.430 . S
O302 C288 1.259 . S
O303 Eu281 2.670 . S
O303 C288 1.270 . S
O303 Eu291 2.355 . S
O304 Eu281 2.394 . S
O304 C289 1.251 . S
O305 C289 1.251 . S
O305 Eu291 2.374 . S
O306 C290 1.257 . S
O306 Eu291 2.473 . S
O307 C290 1.260 . S
O307 Eu291 2.480 . S
O308 Eu291 2.430 . S
O308 C298 1.259 . S
O309 Eu281 2.355 . S
O309 Eu291 2.670 . S
O309 C298 1.270 . S
O310 Eu291 2.394 . S
O310 C299 1.251 . S
O311 Eu281 2.374 . S
O311 C299 1.251 . S
H312 C283 0.931 . S
H313 C284 0.931 . S
H314 C286 0.931 . S
H315 C287 0.931 . S
H316 C293 0.931 . S
H317 C294 0.931 . S
H318 C296 0.931 . S
H319 C297 0.931 . S
C320 Eu321 2.835 . S
C320 C322 1.500 . S
C320 O340 1.257 . S
C320 O341 1.260 . S
Eu321 C320 2.835 . S
Eu321 O340 2.473 . S
Eu321 O341 2.480 . S
Eu321 O342 2.430 . S
Eu321 O343 2.670 . S
Eu321 O344 2.394 . S
Eu321 O349 2.355 . S
Eu321 O351 2.374 . S
C322 C320 1.500 . S
C322 C323 1.377 . S
C322 C327 1.377 . S
C323 C322 1.377 . S
C323 C324 1.395 . S
C323 H352 0.931 . S
C324 C323 1.395 . S
C324 C325 1.383 . S
C324 H353 0.931 . S
C325 C324 1.383 . S
C325 C326 1.394 . S
C326 C325 1.394 . S
C326 C327 1.378 . S
C326 H354 0.931 . S
C327 C322 1.377 . S
C327 C326 1.378 . S
C327 H355 0.931 . S
C328 O342 1.259 . S
C328 O343 1.270 . S
C329 O344 1.251 . S
C329 O345 1.251 . S
C330 Eu331 2.835 . S
C330 C332 1.500 . S
C330 O346 1.257 . S
C330 O347 1.260 . S
Eu331 C330 2.835 . S
Eu331 O343 2.355 . S
Eu331 O345 2.374 . S
Eu331 O346 2.473 . S
Eu331 O347 2.480 . S
Eu331 O348 2.430 . S
Eu331 O349 2.670 . S
Eu331 O350 2.394 . S
C332 C330 1.500 . S
C332 C333 1.377 . S
C332 C337 1.377 . S
C333 C332 1.377 . S
C333 C334 1.395 . S
C333 H356 0.931 . S
C334 C333 1.395 . S
C334 C335 1.383 . S
C334 H357 0.931 . S
C335 C334 1.383 . S
C335 C336 1.394 . S
C336 C335 1.394 . S
C336 C337 1.378 . S
C336 H358 0.931 . S
C337 C332 1.377 . S
C337 C336 1.378 . S
C337 H359 0.931 . S
C338 O348 1.259 . S
C338 O349 1.270 . S
C339 O350 1.251 . S
C339 O351 1.251 . S
O340 C320 1.257 . S
O340 Eu321 2.473 . S
O341 C320 1.260 . S
O341 Eu321 2.480 . S
O342 Eu321 2.430 . S
O342 C328 1.259 . S
O343 Eu321 2.670 . S
O343 C328 1.270 . S
O343 Eu331 2.355 . S
O344 Eu321 2.394 . S
O344 C329 1.251 . S
O345 C329 1.251 . S
O345 Eu331 2.374 . S
O346 C330 1.257 . S
O346 Eu331 2.473 . S
O347 C330 1.260 . S
O347 Eu331 2.480 . S
O348 Eu331 2.430 . S
O348 C338 1.259 . S
O349 Eu321 2.355 . S
O349 Eu331 2.670 . S
O349 C338 1.270 . S
O350 Eu331 2.394 . S
O350 C339 1.251 . S
O351 Eu321 2.374 . S
O351 C339 1.251 . S
H352 C323 0.931 . S
H353 C324 0.931 . S
H354 C326 0.931 . S
H355 C327 0.931 . S
H356 C333 0.931 . S
H357 C334 0.931 . S
H358 C336 0.931 . S
H359 C337 0.931 . S
C360 Eu361 2.835 . S
C360 C362 1.500 . S
C360 O380 1.257 . S
C360 O381 1.260 . S
Eu361 C360 2.835 . S
Eu361 O380 2.473 . S
Eu361 O381 2.480 . S
Eu361 O382 2.430 . S
Eu361 O383 2.670 . S
Eu361 O384 2.394 . S
Eu361 O389 2.355 . S
Eu361 O391 2.374 . S
C362 C360 1.500 . S
C362 C363 1.377 . S
C362 C367 1.377 . S
C363 C362 1.377 . S
C363 C364 1.395 . S
C363 H392 0.931 . S
C364 C363 1.395 . S
C364 C365 1.383 . S
C364 H393 0.931 . S
C365 C364 1.383 . S
C365 C366 1.394 . S
C366 C365 1.394 . S
C366 C367 1.378 . S
C366 H394 0.931 . S
C367 C362 1.377 . S
C367 C366 1.378 . S
C367 H395 0.931 . S
C368 O382 1.259 . S
C368 O383 1.270 . S
C369 O384 1.251 . S
C369 O385 1.251 . S
C370 Eu371 2.835 . S
C370 C372 1.500 . S
C370 O386 1.257 . S
C370 O387 1.260 . S
Eu371 C370 2.835 . S
Eu371 O383 2.355 . S
Eu371 O385 2.374 . S
Eu371 O386 2.473 . S
Eu371 O387 2.480 . S
Eu371 O388 2.430 . S
Eu371 O389 2.670 . S
Eu371 O390 2.394 . S
C372 C370 1.500 . S
C372 C373 1.377 . S
C372 C377 1.377 . S
C373 C372 1.377 . S
C373 C374 1.395 . S
C373 H396 0.931 . S
C374 C373 1.395 . S
C374 C375 1.383 . S
C374 H397 0.931 . S
C375 C374 1.383 . S
C375 C376 1.394 . S
C376 C375 1.394 . S
C376 C377 1.378 . S
C376 H398 0.931 . S
C377 C372 1.377 . S
C377 C376 1.378 . S
C377 H399 0.931 . S
C378 O388 1.259 . S
C378 O389 1.270 . S
C379 O390 1.251 . S
C379 O391 1.251 . S
O380 C360 1.257 . S
O380 Eu361 2.473 . S
O381 C360 1.260 . S
O381 Eu361 2.480 . S
O382 Eu361 2.430 . S
O382 C368 1.259 . S
O383 Eu361 2.670 . S
O383 C368 1.270 . S
O383 Eu371 2.355 . S
O384 Eu361 2.394 . S
O384 C369 1.251 . S
O385 C369 1.251 . S
O385 Eu371 2.374 . S
O386 C370 1.257 . S
O386 Eu371 2.473 . S
O387 C370 1.260 . S
O387 Eu371 2.480 . S
O388 Eu371 2.430 . S
O388 C378 1.259 . S
O389 Eu361 2.355 . S
O389 Eu371 2.670 . S
O389 C378 1.270 . S
O390 Eu371 2.394 . S
O390 C379 1.251 . S
O391 Eu361 2.374 . S
O391 C379 1.251 . S
H392 C363 0.931 . S
H393 C364 0.931 . S
H394 C366 0.931 . S
H395 C367 0.931 . S
H396 C373 0.931 . S
H397 C374 0.931 . S
H398 C376 0.931 . S
H399 C377 0.931 . S
C400 Eu401 2.835 . S
C400 C402 1.500 . S
C400 O420 1.257 . S
C400 O421 1.260 . S
Eu401 C400 2.835 . S
Eu401 O420 2.473 . S
Eu401 O421 2.480 . S
Eu401 O422 2.430 . S
Eu401 O423 2.670 . S
Eu401 O424 2.394 . S
Eu401 O429 2.355 . S
Eu401 O431 2.374 . S
C402 C400 1.500 . S
C402 C403 1.377 . S
C402 C407 1.377 . S
C403 C402 1.377 . S
C403 C404 1.395 . S
C403 H432 0.931 . S
C404 C403 1.395 . S
C404 C405 1.383 . S
C404 H433 0.931 . S
C405 C404 1.383 . S
C405 C406 1.394 . S
C406 C405 1.394 . S
C406 C407 1.378 . S
C406 H434 0.931 . S
C407 C402 1.377 . S
C407 C406 1.378 . S
C407 H435 0.931 . S
C408 O422 1.259 . S
C408 O423 1.270 . S
C409 O424 1.251 . S
C409 O425 1.251 . S
C410 Eu411 2.835 . S
C410 C412 1.500 . S
C410 O426 1.257 . S
C410 O427 1.260 . S
Eu411 C410 2.835 . S
Eu411 O423 2.355 . S
Eu411 O425 2.374 . S
Eu411 O426 2.473 . S
Eu411 O427 2.480 . S
Eu411 O428 2.430 . S
Eu411 O429 2.670 . S
Eu411 O430 2.394 . S
C412 C410 1.500 . S
C412 C413 1.377 . S
C412 C417 1.377 . S
C413 C412 1.377 . S
C413 C414 1.395 . S
C413 H436 0.931 . S
C414 C413 1.395 . S
C414 C415 1.383 . S
C414 H437 0.931 . S
C415 C414 1.383 . S
C415 C416 1.394 . S
C416 C415 1.394 . S
C416 C417 1.378 . S
C416 H438 0.931 . S
C417 C412 1.377 . S
C417 C416 1.378 . S
C417 H439 0.931 . S
C418 O428 1.259 . S
C418 O429 1.270 . S
C419 O430 1.251 . S
C419 O431 1.251 . S
O420 C400 1.257 . S
O420 Eu401 2.473 . S
O421 C400 1.260 . S
O421 Eu401 2.480 . S
O422 Eu401 2.430 . S
O422 C408 1.259 . S
O423 Eu401 2.670 . S
O423 C408 1.270 . S
O423 Eu411 2.355 . S
O424 Eu401 2.394 . S
O424 C409 1.251 . S
O425 C409 1.251 . S
O425 Eu411 2.374 . S
O426 C410 1.257 . S
O426 Eu411 2.473 . S
O427 C410 1.260 . S
O427 Eu411 2.480 . S
O428 Eu411 2.430 . S
O428 C418 1.259 . S
O429 Eu401 2.355 . S
O429 Eu411 2.670 . S
O429 C418 1.270 . S
O430 Eu411 2.394 . S
O430 C419 1.251 . S
O431 Eu401 2.374 . S
O431 C419 1.251 . S
H432 C403 0.931 . S
H433 C404 0.931 . S
H434 C406 0.931 . S
H435 C407 0.931 . S
H436 C413 0.931 . S
H437 C414 0.931 . S
H438 C416 0.931 . S
H439 C417 0.931 . S
C440 Eu441 2.835 . S
C440 C442 1.500 . S
C440 O460 1.257 . S
C440 O461 1.260 . S
Eu441 C440 2.835 . S
Eu441 O460 2.473 . S
Eu441 O461 2.480 . S
Eu441 O462 2.430 . S
Eu441 O463 2.670 . S
Eu441 O464 2.394 . S
Eu441 O469 2.355 . S
Eu441 O471 2.374 . S
C442 C440 1.500 . S
C442 C443 1.377 . S
C442 C447 1.377 . S
C443 C442 1.377 . S
C443 C444 1.395 . S
C443 H472 0.931 . S
C444 C443 1.395 . S
C444 C445 1.383 . S
C444 H473 0.931 . S
C445 C444 1.383 . S
C445 C446 1.394 . S
C446 C445 1.394 . S
C446 C447 1.378 . S
C446 H474 0.931 . S
C447 C442 1.377 . S
C447 C446 1.378 . S
C447 H475 0.931 . S
C448 O462 1.259 . S
C448 O463 1.270 . S
C449 O464 1.251 . S
C449 O465 1.251 . S
C450 Eu451 2.835 . S
C450 C452 1.500 . S
C450 O466 1.257 . S
C450 O467 1.260 . S
Eu451 C450 2.835 . S
Eu451 O463 2.355 . S
Eu451 O465 2.374 . S
Eu451 O466 2.473 . S
Eu451 O467 2.480 . S
Eu451 O468 2.430 . S
Eu451 O469 2.670 . S
Eu451 O470 2.394 . S
C452 C450 1.500 . S
C452 C453 1.377 . S
C452 C457 1.377 . S
C453 C452 1.377 . S
C453 C454 1.395 . S
C453 H476 0.931 . S
C454 C453 1.395 . S
C454 C455 1.383 . S
C454 H477 0.931 . S
C455 C454 1.383 . S
C455 C456 1.394 . S
C456 C455 1.394 . S
C456 C457 1.378 . S
C456 H478 0.931 . S
C457 C452 1.377 . S
C457 C456 1.378 . S
C457 H479 0.931 . S
C458 O468 1.259 . S
C458 O469 1.270 . S
C459 O470 1.251 . S
C459 O471 1.251 . S
O460 C440 1.257 . S
O460 Eu441 2.473 . S
O461 C440 1.260 . S
O461 Eu441 2.480 . S
O462 Eu441 2.430 . S
O462 C448 1.259 . S
O463 Eu441 2.670 . S
O463 C448 1.270 . S
O463 Eu451 2.355 . S
O464 Eu441 2.394 . S
O464 C449 1.251 . S
O465 C449 1.251 . S
O465 Eu451 2.374 . S
O466 C450 1.257 . S
O466 Eu451 2.473 . S
O467 C450 1.260 . S
O467 Eu451 2.480 . S
O468 Eu451 2.430 . S
O468 C458 1.259 . S
O469 Eu441 2.355 . S
O469 Eu451 2.670 . S
O469 C458 1.270 . S
O470 Eu451 2.394 . S
O470 C459 1.251 . S
O471 Eu441 2.374 . S
O471 C459 1.251 . S
H472 C443 0.931 . S
H473 C444 0.931 . S
H474 C446 0.931 . S
H475 C447 0.931 . S
H476 C453 0.931 . S
H477 C454 0.931 . S
H478 C456 0.931 . S
H479 C457 0.931 . S
C480 Eu481 2.835 . S
C480 C482 1.500 . S
C480 O500 1.257 . S
C480 O501 1.260 . S
Eu481 C480 2.835 . S
Eu481 O500 2.473 . S
Eu481 O501 2.480 . S
Eu481 O502 2.430 . S
Eu481 O503 2.670 . S
Eu481 O504 2.394 . S
Eu481 O509 2.355 . S
Eu481 O511 2.374 . S
C482 C480 1.500 . S
C482 C483 1.377 . S
C482 C487 1.377 . S
C483 C482 1.377 . S
C483 C484 1.395 . S
C483 H512 0.931 . S
C484 C483 1.395 . S
C484 C485 1.383 . S
C484 H513 0.931 . S
C485 C484 1.383 . S
C485 C486 1.394 . S
C486 C485 1.394 . S
C486 C487 1.378 . S
C486 H514 0.931 . S
C487 C482 1.377 . S
C487 C486 1.378 . S
C487 H515 0.931 . S
C488 O502 1.259 . S
C488 O503 1.270 . S
C489 O504 1.251 . S
C489 O505 1.251 . S
C490 Eu491 2.835 . S
C490 C492 1.500 . S
C490 O506 1.257 . S
C490 O507 1.260 . S
Eu491 C490 2.835 . S
Eu491 O503 2.355 . S
Eu491 O505 2.374 . S
Eu491 O506 2.473 . S
Eu491 O507 2.480 . S
Eu491 O508 2.430 . S
Eu491 O509 2.670 . S
Eu491 O510 2.394 . S
C492 C490 1.500 . S
C492 C493 1.377 . S
C492 C497 1.377 . S
C493 C492 1.377 . S
C493 C494 1.395 . S
C493 H516 0.931 . S
C494 C493 1.395 . S
C494 C495 1.383 . S
C494 H517 0.931 . S
C495 C494 1.383 . S
C495 C496 1.394 . S
C496 C495 1.394 . S
C496 C497 1.378 . S
C496 H518 0.931 . S
C497 C492 1.377 . S
C497 C496 1.378 . S
C497 H519 0.931 . S
C498 O508 1.259 . S
C498 O509 1.270 . S
C499 O510 1.251 . S
C499 O511 1.251 . S
O500 C480 1.257 . S
O500 Eu481 2.473 . S
O501 C480 1.260 . S
O501 Eu481 2.480 . S
O502 Eu481 2.430 . S
O502 C488 1.259 . S
O503 Eu481 2.670 . S
O503 C488 1.270 . S
O503 Eu491 2.355 . S
O504 Eu481 2.394 . S
O504 C489 1.251 . S
O505 C489 1.251 . S
O505 Eu491 2.374 . S
O506 C490 1.257 . S
O506 Eu491 2.473 . S
O507 C490 1.260 . S
O507 Eu491 2.480 . S
O508 Eu491 2.430 . S
O508 C498 1.259 . S
O509 Eu481 2.355 . S
O509 Eu491 2.670 . S
O509 C498 1.270 . S
O510 Eu491 2.394 . S
O510 C499 1.251 . S
O511 Eu481 2.374 . S
O511 C499 1.251 . S
H512 C483 0.931 . S
H513 C484 0.931 . S
H514 C486 0.931 . S
H515 C487 0.931 . S
H516 C493 0.931 . S
H517 C494 0.931 . S
H518 C496 0.931 . S
H519 C497 0.931 . S
C520 Eu521 2.835 . S
C520 C522 1.500 . S
C520 O540 1.257 . S
C520 O541 1.260 . S
Eu521 C520 2.835 . S
Eu521 O540 2.473 . S
Eu521 O541 2.480 . S
Eu521 O542 2.430 . S
Eu521 O543 2.670 . S
Eu521 O544 2.394 . S
Eu521 O549 2.355 . S
Eu521 O551 2.374 . S
C522 C520 1.500 . S
C522 C523 1.377 . S
C522 C527 1.377 . S
C523 C522 1.377 . S
C523 C524 1.395 . S
C523 H552 0.931 . S
C524 C523 1.395 . S
C524 C525 1.383 . S
C524 H553 0.931 . S
C525 C524 1.383 . S
C525 C526 1.394 . S
C526 C525 1.394 . S
C526 C527 1.378 . S
C526 H554 0.931 . S
C527 C522 1.377 . S
C527 C526 1.378 . S
C527 H555 0.931 . S
C528 O542 1.259 . S
C528 O543 1.270 . S
C529 O544 1.251 . S
C529 O545 1.251 . S
C530 Eu531 2.835 . S
C530 C532 1.500 . S
C530 O546 1.257 . S
C530 O547 1.260 . S
Eu531 C530 2.835 . S
Eu531 O543 2.355 . S
Eu531 O545 2.374 . S
Eu531 O546 2.473 . S
Eu531 O547 2.480 . S
Eu531 O548 2.430 . S
Eu531 O549 2.670 . S
Eu531 O550 2.394 . S
C532 C530 1.500 . S
C532 C533 1.377 . S
C532 C537 1.377 . S
C533 C532 1.377 . S
C533 C534 1.395 . S
C533 H556 0.931 . S
C534 C533 1.395 . S
C534 C535 1.383 . S
C534 H557 0.931 . S
C535 C534 1.383 . S
C535 C536 1.394 . S
C536 C535 1.394 . S
C536 C537 1.378 . S
C536 H558 0.931 . S
C537 C532 1.377 . S
C537 C536 1.378 . S
C537 H559 0.931 . S
C538 O548 1.259 . S
C538 O549 1.270 . S
C539 O550 1.251 . S
C539 O551 1.251 . S
O540 C520 1.257 . S
O540 Eu521 2.473 . S
O541 C520 1.260 . S
O541 Eu521 2.480 . S
O542 Eu521 2.430 . S
O542 C528 1.259 . S
O543 Eu521 2.670 . S
O543 C528 1.270 . S
O543 Eu531 2.355 . S
O544 Eu521 2.394 . S
O544 C529 1.251 . S
O545 C529 1.251 . S
O545 Eu531 2.374 . S
O546 C530 1.257 . S
O546 Eu531 2.473 . S
O547 C530 1.260 . S
O547 Eu531 2.480 . S
O548 Eu531 2.430 . S
O548 C538 1.259 . S
O549 Eu521 2.355 . S
O549 Eu531 2.670 . S
O549 C538 1.270 . S
O550 Eu531 2.394 . S
O550 C539 1.251 . S
O551 Eu521 2.374 . S
O551 C539 1.251 . S
H552 C523 0.931 . S
H553 C524 0.931 . S
H554 C526 0.931 . S
H555 C527 0.931 . S
H556 C533 0.931 . S
H557 C534 0.931 . S
H558 C536 0.931 . S
H559 C537 0.931 . S
C560 Eu561 2.835 . S
C560 C562 1.500 . S
C560 O580 1.257 . S
C560 O581 1.260 . S
Eu561 C560 2.835 . S
Eu561 O580 2.473 . S
Eu561 O581 2.480 . S
Eu561 O582 2.430 . S
Eu561 O583 2.670 . S
Eu561 O584 2.394 . S
Eu561 O589 2.355 . S
Eu561 O591 2.374 . S
C562 C560 1.500 . S
C562 C563 1.377 . S
C562 C567 1.377 . S
C563 C562 1.377 . S
C563 C564 1.395 . S
C563 H592 0.931 . S
C564 C563 1.395 . S
C564 C565 1.383 . S
C564 H593 0.931 . S
C565 C564 1.383 . S
C565 C566 1.394 . S
C566 C565 1.394 . S
C566 C567 1.378 . S
C566 H594 0.931 . S
C567 C562 1.377 . S
C567 C566 1.378 . S
C567 H595 0.931 . S
C568 O582 1.259 . S
C568 O583 1.270 . S
C569 O584 1.251 . S
C569 O585 1.251 . S
C570 Eu571 2.835 . S
C570 C572 1.500 . S
C570 O586 1.257 . S
C570 O587 1.260 . S
Eu571 C570 2.835 . S
Eu571 O583 2.355 . S
Eu571 O585 2.374 . S
Eu571 O586 2.473 . S
Eu571 O587 2.480 . S
Eu571 O588 2.430 . S
Eu571 O589 2.670 . S
Eu571 O590 2.394 . S
C572 C570 1.500 . S
C572 C573 1.377 . S
C572 C577 1.377 . S
C573 C572 1.377 . S
C573 C574 1.395 . S
C573 H596 0.931 . S
C574 C573 1.395 . S
C574 C575 1.383 . S
C574 H597 0.931 . S
C575 C574 1.383 . S
C575 C576 1.394 . S
C576 C575 1.394 . S
C576 C577 1.378 . S
C576 H598 0.931 . S
C577 C572 1.377 . S
C577 C576 1.378 . S
C577 H599 0.931 . S
C578 O588 1.259 . S
C578 O589 1.270 . S
C579 O590 1.251 . S
C579 O591 1.251 . S
O580 C560 1.257 . S
O580 Eu561 2.473 . S
O581 C560 1.260 . S
O581 Eu561 2.480 . S
O582 Eu561 2.430 . S
O582 C568 1.259 . S
O583 Eu561 2.670 . S
O583 C568 1.270 . S
O583 Eu571 2.355 . S
O584 Eu561 2.394 . S
O584 C569 1.251 . S
O585 C569 1.251 . S
O585 Eu571 2.374 . S
O586 C570 1.257 . S
O586 Eu571 2.473 . S
O587 C570 1.260 . S
O587 Eu571 2.480 . S
O588 Eu571 2.430 . S
O588 C578 1.259 . S
O589 Eu561 2.355 . S
O589 Eu571 2.670 . S
O589 C578 1.270 . S
O590 Eu571 2.394 . S
O590 C579 1.251 . S
O591 Eu561 2.374 . S
O591 C579 1.251 . S
H592 C563 0.931 . S
H593 C564 0.931 . S
H594 C566 0.931 . S
H595 C567 0.931 . S
H596 C573 0.931 . S
H597 C574 0.931 . S
H598 C576 0.931 . S
H599 C577 0.931 . S
C600 Eu601 2.835 . S
C600 C602 1.500 . S
C600 O620 1.257 . S
C600 O621 1.260 . S
Eu601 C600 2.835 . S
Eu601 O620 2.473 . S
Eu601 O621 2.480 . S
Eu601 O622 2.430 . S
Eu601 O623 2.670 . S
Eu601 O624 2.394 . S
Eu601 O629 2.355 . S
Eu601 O631 2.374 . S
C602 C600 1.500 . S
C602 C603 1.377 . S
C602 C607 1.377 . S
C603 C602 1.377 . S
C603 C604 1.395 . S
C603 H632 0.931 . S
C604 C603 1.395 . S
C604 C605 1.383 . S
C604 H633 0.931 . S
C605 C604 1.383 . S
C605 C606 1.394 . S
C606 C605 1.394 . S
C606 C607 1.378 . S
C606 H634 0.931 . S
C607 C602 1.377 . S
C607 C606 1.378 . S
C607 H635 0.931 . S
C608 O622 1.259 . S
C608 O623 1.270 . S
C609 O624 1.251 . S
C609 O625 1.251 . S
C610 Eu611 2.835 . S
C610 C612 1.500 . S
C610 O626 1.257 . S
C610 O627 1.260 . S
Eu611 C610 2.835 . S
Eu611 O623 2.355 . S
Eu611 O625 2.374 . S
Eu611 O626 2.473 . S
Eu611 O627 2.480 . S
Eu611 O628 2.430 . S
Eu611 O629 2.670 . S
Eu611 O630 2.394 . S
C612 C610 1.500 . S
C612 C613 1.377 . S
C612 C617 1.377 1_655 S
C613 C612 1.377 . S
C613 C614 1.395 . S
C613 H636 0.931 . S
C614 C613 1.395 . S
C614 C615 1.383 1_655 S
C614 H637 0.931 . S
C615 C614 1.383 1_455 S
C615 C616 1.394 . S
C616 C615 1.394 . S
C616 C617 1.378 . S
C616 H638 0.931 . S
C617 C612 1.377 1_455 S
C617 C616 1.378 . S
C617 H639 0.931 . S
C618 O628 1.259 . S
C618 O629 1.270 . S
C619 O630 1.251 . S
C619 O631 1.251 . S
O620 C600 1.257 . S
O620 Eu601 2.473 . S
O621 C600 1.260 . S
O621 Eu601 2.480 . S
O622 Eu601 2.430 . S
O622 C608 1.259 . S
O623 Eu601 2.670 . S
O623 C608 1.270 . S
O623 Eu611 2.355 . S
O624 Eu601 2.394 . S
O624 C609 1.251 . S
O625 C609 1.251 . S
O625 Eu611 2.374 . S
O626 C610 1.257 . S
O626 Eu611 2.473 . S
O627 C610 1.260 . S
O627 Eu611 2.480 . S
O628 Eu611 2.430 . S
O628 C618 1.259 . S
O629 Eu601 2.355 . S
O629 Eu611 2.670 . S
O629 C618 1.270 . S
O630 Eu611 2.394 . S
O630 C619 1.251 . S
O631 Eu601 2.374 . S
O631 C619 1.251 . S
H632 C603 0.931 . S
H633 C604 0.931 . S
H634 C606 0.931 . S
H635 C607 0.931 . S
H636 C613 0.931 . S
H637 C614 0.931 . S
H638 C616 0.931 . S
H639 C617 0.931 . S
C640 Eu641 2.835 . S
C640 C642 1.500 . S
C640 O660 1.257 . S
C640 O661 1.260 . S
Eu641 C640 2.835 . S
Eu641 O660 2.473 . S
Eu641 O661 2.480 . S
Eu641 O662 2.430 . S
Eu641 O663 2.670 . S
Eu641 O664 2.394 . S
Eu641 O669 2.355 . S
Eu641 O671 2.374 . S
C642 C640 1.500 . S
C642 C643 1.377 . S
C642 C647 1.377 . S
C643 C642 1.377 . S
C643 C644 1.395 . S
C643 H672 0.931 . S
C644 C643 1.395 . S
C644 C645 1.383 . S
C644 H673 0.931 . S
C645 C644 1.383 . S
C645 C646 1.394 . S
C646 C645 1.394 . S
C646 C647 1.378 . S
C646 H674 0.931 . S
C647 C642 1.377 . S
C647 C646 1.378 . S
C647 H675 0.931 . S
C648 O662 1.259 . S
C648 O663 1.270 . S
C649 O664 1.251 . S
C649 O665 1.251 . S
C650 Eu651 2.835 . S
C650 C652 1.500 . S
C650 O666 1.257 . S
C650 O667 1.260 . S
Eu651 C650 2.835 . S
Eu651 O663 2.355 . S
Eu651 O665 2.374 . S
Eu651 O666 2.473 . S
Eu651 O667 2.480 . S
Eu651 O668 2.430 . S
Eu651 O669 2.670 . S
Eu651 O670 2.394 . S
C652 C650 1.500 . S
C652 C653 1.377 . S
C652 C657 1.377 . S
C653 C652 1.377 . S
C653 C654 1.395 . S
C653 H676 0.931 . S
C654 C653 1.395 . S
C654 C655 1.383 . S
C654 H677 0.931 . S
C655 C654 1.383 . S
C655 C656 1.394 . S
C656 C655 1.394 . S
C656 C657 1.378 . S
C656 H678 0.931 . S
C657 C652 1.377 . S
C657 C656 1.378 . S
C657 H679 0.931 . S
C658 O668 1.259 . S
C658 O669 1.270 . S
C659 O670 1.251 . S
C659 O671 1.251 . S
O660 C640 1.257 . S
O660 Eu641 2.473 . S
O661 C640 1.260 . S
O661 Eu641 2.480 . S
O662 Eu641 2.430 . S
O662 C648 1.259 . S
O663 Eu641 2.670 . S
O663 C648 1.270 . S
O663 Eu651 2.355 . S
O664 Eu641 2.394 . S
O664 C649 1.251 . S
O665 C649 1.251 . S
O665 Eu651 2.374 . S
O666 C650 1.257 . S
O666 Eu651 2.473 . S
O667 C650 1.260 . S
O667 Eu651 2.480 . S
O668 Eu651 2.430 . S
O668 C658 1.259 . S
O669 Eu641 2.355 . S
O669 Eu651 2.670 . S
O669 C658 1.270 . S
O670 Eu651 2.394 . S
O670 C659 1.251 . S
O671 Eu641 2.374 . S
O671 C659 1.251 . S
H672 C643 0.931 . S
H673 C644 0.931 . S
H674 C646 0.931 . S
H675 C647 0.931 . S
H676 C653 0.931 . S
H677 C654 0.931 . S
H678 C656 0.931 . S
H679 C657 0.931 . S
C680 Eu681 2.835 . S
C680 C682 1.500 . S
C680 O700 1.257 . S
C680 O701 1.260 . S
Eu681 C680 2.835 . S
Eu681 O700 2.473 . S
Eu681 O701 2.480 . S
Eu681 O702 2.430 . S
Eu681 O703 2.670 . S
Eu681 O704 2.394 . S
Eu681 O709 2.355 . S
Eu681 O711 2.374 . S
C682 C680 1.500 . S
C682 C683 1.377 . S
C682 C687 1.377 . S
C683 C682 1.377 . S
C683 C684 1.395 . S
C683 H712 0.931 . S
C684 C683 1.395 . S
C684 C685 1.383 . S
C684 H713 0.931 . S
C685 C684 1.383 . S
C685 C686 1.394 . S
C686 C685 1.394 . S
C686 C687 1.378 . S
C686 H714 0.931 . S
C687 C682 1.377 . S
C687 C686 1.378 . S
C687 H715 0.931 . S
C688 O702 1.259 . S
C688 O703 1.270 . S
C689 O704 1.251 . S
C689 O705 1.251 . S
C690 Eu691 2.835 . S
C690 C692 1.500 . S
C690 O706 1.257 . S
C690 O707 1.260 . S
Eu691 C690 2.835 . S
Eu691 O703 2.355 . S
Eu691 O705 2.374 . S
Eu691 O706 2.473 . S
Eu691 O707 2.480 . S
Eu691 O708 2.430 . S
Eu691 O709 2.670 . S
Eu691 O710 2.394 . S
C692 C690 1.500 . S
C692 C693 1.377 . S
C692 C697 1.377 1_545 S
C693 C692 1.377 . S
C693 C694 1.395 . S
C693 H716 0.931 . S
C694 C693 1.395 . S
C694 C695 1.383 1_545 S
C694 H717 0.931 . S
C695 C694 1.383 1_565 S
C695 C696 1.394 . S
C696 C695 1.394 . S
C696 C697 1.378 . S
C696 H718 0.931 . S
C697 C692 1.377 1_565 S
C697 C696 1.378 . S
C697 H719 0.931 . S
C698 O708 1.259 . S
C698 O709 1.270 . S
C699 O710 1.251 . S
C699 O711 1.251 . S
O700 C680 1.257 . S
O700 Eu681 2.473 . S
O701 C680 1.260 . S
O701 Eu681 2.480 . S
O702 Eu681 2.430 . S
O702 C688 1.259 . S
O703 Eu681 2.670 . S
O703 C688 1.270 . S
O703 Eu691 2.355 . S
O704 Eu681 2.394 . S
O704 C689 1.251 . S
O705 C689 1.251 . S
O705 Eu691 2.374 . S
O706 C690 1.257 . S
O706 Eu691 2.473 . S
O707 C690 1.260 . S
O707 Eu691 2.480 . S
O708 Eu691 2.430 . S
O708 C698 1.259 . S
O709 Eu681 2.355 . S
O709 Eu691 2.670 . S
O709 C698 1.270 . S
O710 Eu691 2.394 . S
O710 C699 1.251 . S
O711 Eu681 2.374 . S
O711 C699 1.251 . S
H712 C683 0.931 . S
H713 C684 0.931 . S
H714 C686 0.931 . S
H715 C687 0.931 . S
H716 C693 0.931 . S
H717 C694 0.931 . S
H718 C696 0.931 . S
H719 C697 0.931 . S
C720 Eu721 2.835 . S
C720 C722 1.500 . S
C720 O740 1.257 . S
C720 O741 1.260 . S
Eu721 C720 2.835 . S
Eu721 O740 2.473 . S
Eu721 O741 2.480 . S
Eu721 O742 2.430 . S
Eu721 O743 2.670 . S
Eu721 O744 2.394 . S
Eu721 O749 2.355 . S
Eu721 O751 2.374 . S
C722 C720 1.500 . S
C722 C723 1.377 . S
C722 C727 1.377 1_545 S
C723 C722 1.377 . S
C723 C724 1.395 . S
C723 H752 0.931 . S
C724 C723 1.395 . S
C724 C725 1.383 1_545 S
C724 H753 0.931 . S
C725 C724 1.383 1_565 S
C725 C726 1.394 . S
C726 C725 1.394 . S
C726 C727 1.378 . S
C726 H754 0.931 . S
C727 C722 1.377 1_565 S
C727 C726 1.378 . S
C727 H755 0.931 . S
C728 O742 1.259 . S
C728 O743 1.270 . S
C729 O744 1.251 . S
C729 O745 1.251 . S
C730 Eu731 2.835 . S
C730 C732 1.500 . S
C730 O746 1.257 . S
C730 O747 1.260 . S
Eu731 C730 2.835 . S
Eu731 O743 2.355 . S
Eu731 O745 2.374 . S
Eu731 O746 2.473 . S
Eu731 O747 2.480 . S
Eu731 O748 2.430 . S
Eu731 O749 2.670 . S
Eu731 O750 2.394 . S
C732 C730 1.500 . S
C732 C733 1.377 . S
C732 C737 1.377 . S
C733 C732 1.377 . S
C733 C734 1.395 . S
C733 H756 0.931 . S
C734 C733 1.395 . S
C734 C735 1.383 . S
C734 H757 0.931 . S
C735 C734 1.383 . S
C735 C736 1.394 . S
C736 C735 1.394 . S
C736 C737 1.378 . S
C736 H758 0.931 . S
C737 C732 1.377 . S
C737 C736 1.378 . S
C737 H759 0.931 . S
C738 O748 1.259 . S
C738 O749 1.270 . S
C739 O750 1.251 . S
C739 O751 1.251 . S
O740 C720 1.257 . S
O740 Eu721 2.473 . S
O741 C720 1.260 . S
O741 Eu721 2.480 . S
O742 Eu721 2.430 . S
O742 C728 1.259 . S
O743 Eu721 2.670 . S
O743 C728 1.270 . S
O743 Eu731 2.355 . S
O744 Eu721 2.394 . S
O744 C729 1.251 . S
O745 C729 1.251 . S
O745 Eu731 2.374 . S
O746 C730 1.257 . S
O746 Eu731 2.473 . S
O747 C730 1.260 . S
O747 Eu731 2.480 . S
O748 Eu731 2.430 . S
O748 C738 1.259 . S
O749 Eu721 2.355 . S
O749 Eu731 2.670 . S
O749 C738 1.270 . S
O750 Eu731 2.394 . S
O750 C739 1.251 . S
O751 Eu721 2.374 . S
O751 C739 1.251 . S
H752 C723 0.931 . S
H753 C724 0.931 . S
H754 C726 0.931 . S
H755 C727 0.931 . S
H756 C733 0.931 . S
H757 C734 0.931 . S
H758 C736 0.931 . S
H759 C737 0.931 . S
C760 Eu761 2.835 . S
C760 C762 1.500 . S
C760 O780 1.257 . S
C760 O781 1.260 . S
Eu761 C760 2.835 . S
Eu761 O780 2.473 . S
Eu761 O781 2.480 . S
Eu761 O782 2.430 . S
Eu761 O783 2.670 . S
Eu761 O784 2.394 . S
Eu761 O789 2.355 . S
Eu761 O791 2.374 . S
C762 C760 1.500 . S
C762 C763 1.377 . S
C762 C767 1.377 1_655 S
C763 C762 1.377 . S
C763 C764 1.395 . S
C763 H792 0.931 . S
C764 C763 1.395 . S
C764 C765 1.383 1_655 S
C764 H793 0.931 . S
C765 C764 1.383 1_455 S
C765 C766 1.394 . S
C766 C765 1.394 . S
C766 C767 1.378 . S
C766 H794 0.931 . S
C767 C762 1.377 1_455 S
C767 C766 1.378 . S
C767 H795 0.931 . S
C768 O782 1.259 . S
C768 O783 1.270 . S
C769 O784 1.251 . S
C769 O785 1.251 . S
C770 Eu771 2.835 . S
C770 C772 1.500 . S
C770 O786 1.257 . S
C770 O787 1.260 . S
Eu771 C770 2.835 . S
Eu771 O783 2.355 . S
Eu771 O785 2.374 . S
Eu771 O786 2.473 . S
Eu771 O787 2.480 . S
Eu771 O788 2.430 . S
Eu771 O789 2.670 . S
Eu771 O790 2.394 . S
C772 C770 1.500 . S
C772 C773 1.377 . S
C772 C777 1.377 . S
C773 C772 1.377 . S
C773 C774 1.395 . S
C773 H796 0.931 . S
C774 C773 1.395 . S
C774 C775 1.383 . S
C774 H797 0.931 . S
C775 C774 1.383 . S
C775 C776 1.394 . S
C776 C775 1.394 . S
C776 C777 1.378 . S
C776 H798 0.931 . S
C777 C772 1.377 . S
C777 C776 1.378 . S
C777 H799 0.931 . S
C778 O788 1.259 . S
C778 O789 1.270 . S
C779 O790 1.251 . S
C779 O791 1.251 . S
O780 C760 1.257 . S
O780 Eu761 2.473 . S
O781 C760 1.260 . S
O781 Eu761 2.480 . S
O782 Eu761 2.430 . S
O782 C768 1.259 . S
O783 Eu761 2.670 . S
O783 C768 1.270 . S
O783 Eu771 2.355 . S
O784 Eu761 2.394 . S
O784 C769 1.251 . S
O785 C769 1.251 . S
O785 Eu771 2.374 . S
O786 C770 1.257 . S
O786 Eu771 2.473 . S
O787 C770 1.260 . S
O787 Eu771 2.480 . S
O788 Eu771 2.430 . S
O788 C778 1.259 . S
O789 Eu761 2.355 . S
O789 Eu771 2.670 . S
O789 C778 1.270 . S
O790 Eu771 2.394 . S
O790 C779 1.251 . S
O791 Eu761 2.374 . S
O791 C779 1.251 . S
H792 C763 0.931 . S
H793 C764 0.931 . S
H794 C766 0.931 . S
H795 C767 0.931 . S
H796 C773 0.931 . S
H797 C774 0.931 . S
H798 C776 0.931 . S
H799 C777 0.931 . S
C800 Eu801 2.835 . S
C800 C802 1.500 . S
C800 O820 1.257 . S
C800 O821 1.260 . S
Eu801 C800 2.835 . S
Eu801 O820 2.473 . S
Eu801 O821 2.480 . S
Eu801 O822 2.430 . S
Eu801 O823 2.670 . S
Eu801 O824 2.394 . S
Eu801 O829 2.355 . S
Eu801 O831 2.374 . S
C802 C800 1.500 . S
C802 C803 1.377 . S
C802 C807 1.377 . S
C803 C802 1.377 . S
C803 C804 1.395 . S
C803 H832 0.931 . S
C804 C803 1.395 . S
C804 C805 1.383 . S
C804 H833 0.931 . S
C805 C804 1.383 . S
C805 C806 1.394 . S
C806 C805 1.394 . S
C806 C807 1.378 . S
C806 H834 0.931 . S
C807 C802 1.377 . S
C807 C806 1.378 . S
C807 H835 0.931 . S
C808 O822 1.259 . S
C808 O823 1.270 . S
C809 O824 1.251 . S
C809 O825 1.251 . S
C810 Eu811 2.835 . S
C810 C812 1.500 . S
C810 O826 1.257 . S
C810 O827 1.260 . S
Eu811 C810 2.835 . S
Eu811 O823 2.355 . S
Eu811 O825 2.374 . S
Eu811 O826 2.473 . S
Eu811 O827 2.480 . S
Eu811 O828 2.430 . S
Eu811 O829 2.670 . S
Eu811 O830 2.394 . S
C812 C810 1.500 . S
C812 C813 1.377 . S
C812 C817 1.377 . S
C813 C812 1.377 . S
C813 C814 1.395 . S
C813 H836 0.931 . S
C814 C813 1.395 . S
C814 C815 1.383 . S
C814 H837 0.931 . S
C815 C814 1.383 . S
C815 C816 1.394 . S
C816 C815 1.394 . S
C816 C817 1.378 . S
C816 H838 0.931 . S
C817 C812 1.377 . S
C817 C816 1.378 . S
C817 H839 0.931 . S
C818 O828 1.259 . S
C818 O829 1.270 . S
C819 O830 1.251 . S
C819 O831 1.251 . S
O820 C800 1.257 . S
O820 Eu801 2.473 . S
O821 C800 1.260 . S
O821 Eu801 2.480 . S
O822 Eu801 2.430 . S
O822 C808 1.259 . S
O823 Eu801 2.670 . S
O823 C808 1.270 . S
O823 Eu811 2.355 . S
O824 Eu801 2.394 . S
O824 C809 1.251 . S
O825 C809 1.251 . S
O825 Eu811 2.374 . S
O826 C810 1.257 . S
O826 Eu811 2.473 . S
O827 C810 1.260 . S
O827 Eu811 2.480 . S
O828 Eu811 2.430 . S
O828 C818 1.259 . S
O829 Eu801 2.355 . S
O829 Eu811 2.670 . S
O829 C818 1.270 . S
O830 Eu811 2.394 . S
O830 C819 1.251 . S
O831 Eu801 2.374 . S
O831 C819 1.251 . S
H832 C803 0.931 . S
H833 C804 0.931 . S
H834 C806 0.931 . S
H835 C807 0.931 . S
H836 C813 0.931 . S
H837 C814 0.931 . S
H838 C816 0.931 . S
H839 C817 0.931 . S
C840 Eu841 2.835 . S
C840 C842 1.500 . S
C840 O860 1.257 . S
C840 O861 1.260 . S
Eu841 C840 2.835 . S
Eu841 O860 2.473 . S
Eu841 O861 2.480 . S
Eu841 O862 2.430 . S
Eu841 O863 2.670 1_556 S
Eu841 O864 2.394 . S
Eu841 O869 2.355 . S
Eu841 O871 2.374 . S
C842 C840 1.500 . S
C842 C843 1.377 . S
C842 C847 1.377 . S
C843 C842 1.377 . S
C843 C844 1.395 . S
C843 H872 0.931 . S
C844 C843 1.395 . S
C844 C845 1.383 . S
C844 H873 0.931 . S
C845 C844 1.383 . S
C845 C846 1.394 . S
C846 C845 1.394 . S
C846 C847 1.378 . S
C846 H874 0.931 . S
C847 C842 1.377 . S
C847 C846 1.378 . S
C847 H875 0.931 . S
C848 O862 1.259 . S
C848 O863 1.270 1_556 S
C849 O864 1.251 . S
C849 O865 1.251 1_556 S
C850 Eu851 2.835 . S
C850 C852 1.500 . S
C850 O866 1.257 . S
C850 O867 1.260 . S
Eu851 C850 2.835 . S
Eu851 O863 2.355 . S
Eu851 O865 2.374 . S
Eu851 O866 2.473 . S
Eu851 O867 2.480 . S
Eu851 O868 2.430 . S
Eu851 O869 2.670 1_554 S
Eu851 O870 2.394 . S
C852 C850 1.500 . S
C852 C853 1.377 . S
C852 C857 1.377 . S
C853 C852 1.377 . S
C853 C854 1.395 . S
C853 H876 0.931 . S
C854 C853 1.395 . S
C854 C855 1.383 . S
C854 H877 0.931 . S
C855 C854 1.383 . S
C855 C856 1.394 . S
C856 C855 1.394 . S
C856 C857 1.378 . S
C856 H878 0.931 . S
C857 C852 1.377 . S
C857 C856 1.378 . S
C857 H879 0.931 . S
C858 O868 1.259 . S
C858 O869 1.270 1_554 S
C859 O870 1.251 . S
C859 O871 1.251 1_554 S
O860 C840 1.257 . S
O860 Eu841 2.473 . S
O861 C840 1.260 . S
O861 Eu841 2.480 . S
O862 Eu841 2.430 . S
O862 C848 1.259 . S
O863 Eu841 2.670 1_554 S
O863 C848 1.270 1_554 S
O863 Eu851 2.355 . S
O864 Eu841 2.394 . S
O864 C849 1.251 . S
O865 C849 1.251 1_554 S
O865 Eu851 2.374 . S
O866 C850 1.257 . S
O866 Eu851 2.473 . S
O867 C850 1.260 . S
O867 Eu851 2.480 . S
O868 Eu851 2.430 . S
O868 C858 1.259 . S
O869 Eu841 2.355 . S
O869 Eu851 2.670 1_556 S
O869 C858 1.270 1_556 S
O870 Eu851 2.394 . S
O870 C859 1.251 . S
O871 Eu841 2.374 . S
O871 C859 1.251 1_556 S
H872 C843 0.931 . S
H873 C844 0.931 . S
H874 C846 0.931 . S
H875 C847 0.931 . S
H876 C853 0.931 . S
H877 C854 0.931 . S
H878 C856 0.931 . S
H879 C857 0.931 . S
C880 Eu881 2.835 . S
C880 C882 1.500 . S
C880 O900 1.257 . S
C880 O901 1.260 . S
Eu881 C880 2.835 . S
Eu881 O900 2.473 . S
Eu881 O901 2.480 . S
Eu881 O902 2.430 . S
Eu881 O903 2.670 1_556 S
Eu881 O904 2.394 . S
Eu881 O909 2.355 . S
Eu881 O911 2.374 . S
C882 C880 1.500 . S
C882 C883 1.377 . S
C882 C887 1.377 . S
C883 C882 1.377 . S
C883 C884 1.395 . S
C883 H912 0.931 . S
C884 C883 1.395 . S
C884 C885 1.383 . S
C884 H913 0.931 . S
C885 C884 1.383 . S
C885 C886 1.394 . S
C886 C885 1.394 . S
C886 C887 1.378 . S
C886 H914 0.931 . S
C887 C882 1.377 . S
C887 C886 1.378 . S
C887 H915 0.931 . S
C888 O902 1.259 . S
C888 O903 1.270 1_556 S
C889 O904 1.251 . S
C889 O905 1.251 1_556 S
C890 Eu891 2.835 . S
C890 C892 1.500 . S
C890 O906 1.257 . S
C890 O907 1.260 . S
Eu891 C890 2.835 . S
Eu891 O903 2.355 . S
Eu891 O905 2.374 . S
Eu891 O906 2.473 . S
Eu891 O907 2.480 . S
Eu891 O908 2.430 . S
Eu891 O909 2.670 1_554 S
Eu891 O910 2.394 . S
C892 C890 1.500 . S
C892 C893 1.377 . S
C892 C897 1.377 . S
C893 C892 1.377 . S
C893 C894 1.395 . S
C893 H916 0.931 . S
C894 C893 1.395 . S
C894 C895 1.383 . S
C894 H917 0.931 . S
C895 C894 1.383 . S
C895 C896 1.394 . S
C896 C895 1.394 . S
C896 C897 1.378 . S
C896 H918 0.931 . S
C897 C892 1.377 . S
C897 C896 1.378 . S
C897 H919 0.931 . S
C898 O908 1.259 . S
C898 O909 1.270 1_554 S
C899 O910 1.251 . S
C899 O911 1.251 1_554 S
O900 C880 1.257 . S
O900 Eu881 2.473 . S
O901 C880 1.260 . S
O901 Eu881 2.480 . S
O902 Eu881 2.430 . S
O902 C888 1.259 . S
O903 Eu881 2.670 1_554 S
O903 C888 1.270 1_554 S
O903 Eu891 2.355 . S
O904 Eu881 2.394 . S
O904 C889 1.251 . S
O905 C889 1.251 1_554 S
O905 Eu891 2.374 . S
O906 C890 1.257 . S
O906 Eu891 2.473 . S
O907 C890 1.260 . S
O907 Eu891 2.480 . S
O908 Eu891 2.430 . S
O908 C898 1.259 . S
O909 Eu881 2.355 . S
O909 Eu891 2.670 1_556 S
O909 C898 1.270 1_556 S
O910 Eu891 2.394 . S
O910 C899 1.251 . S
O911 Eu881 2.374 . S
O911 C899 1.251 1_556 S
H912 C883 0.931 . S
H913 C884 0.931 . S
H914 C886 0.931 . S
H915 C887 0.931 . S
H916 C893 0.931 . S
H917 C894 0.931 . S
H918 C896 0.931 . S
H919 C897 0.931 . S
C920 Eu921 2.835 . S
C920 C922 1.500 . S
C920 O940 1.257 . S
C920 O941 1.260 . S
Eu921 C920 2.835 . S
Eu921 O940 2.473 . S
Eu921 O941 2.480 . S
Eu921 O942 2.430 . S
Eu921 O943 2.670 1_556 S
Eu921 O944 2.394 . S
Eu921 O949 2.355 . S
Eu921 O951 2.374 . S
C922 C920 1.500 . S
C922 C923 1.377 . S
C922 C927 1.377 . S
C923 C922 1.377 . S
C923 C924 1.395 . S
C923 H952 0.931 . S
C924 C923 1.395 . S
C924 C925 1.383 . S
C924 H953 0.931 . S
C925 C924 1.383 . S
C925 C926 1.394 . S
C926 C925 1.394 . S
C926 C927 1.378 . S
C926 H954 0.931 . S
C927 C922 1.377 . S
C927 C926 1.378 . S
C927 H955 0.931 . S
C928 O942 1.259 . S
C928 O943 1.270 1_556 S
C929 O944 1.251 . S
C929 O945 1.251 1_556 S
C930 Eu931 2.835 . S
C930 C932 1.500 . S
C930 O946 1.257 . S
C930 O947 1.260 . S
Eu931 C930 2.835 . S
Eu931 O943 2.355 . S
Eu931 O945 2.374 . S
Eu931 O946 2.473 . S
Eu931 O947 2.480 . S
Eu931 O948 2.430 . S
Eu931 O949 2.670 1_554 S
Eu931 O950 2.394 . S
C932 C930 1.500 . S
C932 C933 1.377 . S
C932 C937 1.377 . S
C933 C932 1.377 . S
C933 C934 1.395 . S
C933 H956 0.931 . S
C934 C933 1.395 . S
C934 C935 1.383 . S
C934 H957 0.931 . S
C935 C934 1.383 . S
C935 C936 1.394 . S
C936 C935 1.394 . S
C936 C937 1.378 . S
C936 H958 0.931 . S
C937 C932 1.377 . S
C937 C936 1.378 . S
C937 H959 0.931 . S
C938 O948 1.259 . S
C938 O949 1.270 1_554 S
C939 O950 1.251 . S
C939 O951 1.251 1_554 S
O940 C920 1.257 . S
O940 Eu921 2.473 . S
O941 C920 1.260 . S
O941 Eu921 2.480 . S
O942 Eu921 2.430 . S
O942 C928 1.259 . S
O943 Eu921 2.670 1_554 S
O943 C928 1.270 1_554 S
O943 Eu931 2.355 . S
O944 Eu921 2.394 . S
O944 C929 1.251 . S
O945 C929 1.251 1_554 S
O945 Eu931 2.374 . S
O946 C930 1.257 . S
O946 Eu931 2.473 . S
O947 C930 1.260 . S
O947 Eu931 2.480 . S
O948 Eu931 2.430 . S
O948 C938 1.259 . S
O949 Eu921 2.355 . S
O949 Eu931 2.670 1_556 S
O949 C938 1.270 1_556 S
O950 Eu931 2.394 . S
O950 C939 1.251 . S
O951 Eu921 2.374 . S
O951 C939 1.251 1_556 S
H952 C923 0.931 . S
H953 C924 0.931 . S
H954 C926 0.931 . S
H955 C927 0.931 . S
H956 C933 0.931 . S
H957 C934 0.931 . S
H958 C936 0.931 . S
H959 C937 0.931 . S
C960 Eu961 2.835 . S
C960 C962 1.500 . S
C960 O980 1.257 . S
C960 O981 1.260 . S
Eu961 C960 2.835 . S
Eu961 O980 2.473 . S
Eu961 O981 2.480 . S
Eu961 O982 2.430 . S
Eu961 O983 2.670 . S
Eu961 O984 2.394 . S
Eu961 O989 2.355 . S
Eu961 O991 2.374 . S
C962 C960 1.500 . S
C962 C963 1.377 . S
C962 C967 1.377 . S
C963 C962 1.377 . S
C963 C964 1.395 . S
C963 H992 0.931 . S
C964 C963 1.395 . S
C964 C965 1.383 . S
C964 H993 0.931 . S
C965 C964 1.383 . S
C965 C966 1.394 . S
C966 C965 1.394 . S
C966 C967 1.378 . S
C966 H994 0.931 . S
C967 C962 1.377 . S
C967 C966 1.378 . S
C967 H995 0.931 . S
C968 O982 1.259 . S
C968 O983 1.270 . S
C969 O984 1.251 . S
C969 O985 1.251 . S
C970 Eu971 2.835 . S
C970 C972 1.500 . S
C970 O986 1.257 . S
C970 O987 1.260 . S
Eu971 C970 2.835 . S
Eu971 O983 2.355 . S
Eu971 O985 2.374 . S
Eu971 O986 2.473 . S
Eu971 O987 2.480 . S
Eu971 O988 2.430 . S
Eu971 O989 2.670 . S
Eu971 O990 2.394 . S
C972 C970 1.500 . S
C972 C973 1.377 . S
C972 C977 1.377 1_565 S
C973 C972 1.377 . S
C973 C974 1.395 . S
C973 H996 0.931 . S
C974 C973 1.395 . S
C974 C975 1.383 1_565 S
C974 H997 0.931 . S
C975 C974 1.383 1_545 S
C975 C976 1.394 . S
C976 C975 1.394 . S
C976 C977 1.378 . S
C976 H998 0.931 . S
C977 C972 1.377 1_545 S
C977 C976 1.378 . S
C977 H999 0.931 . S
C978 O988 1.259 . S
C978 O989 1.270 . S
C979 O990 1.251 . S
C979 O991 1.251 . S
O980 C960 1.257 . S
O980 Eu961 2.473 . S
O981 C960 1.260 . S
O981 Eu961 2.480 . S
O982 Eu961 2.430 . S
O982 C968 1.259 . S
O983 Eu961 2.670 . S
O983 C968 1.270 . S
O983 Eu971 2.355 . S
O984 Eu961 2.394 . S
O984 C969 1.251 . S
O985 C969 1.251 . S
O985 Eu971 2.374 . S
O986 C970 1.257 . S
O986 Eu971 2.473 . S
O987 C970 1.260 . S
O987 Eu971 2.480 . S
O988 Eu971 2.430 . S
O988 C978 1.259 . S
O989 Eu961 2.355 . S
O989 Eu971 2.670 . S
O989 C978 1.270 . S
O990 Eu971 2.394 . S
O990 C979 1.251 . S
O991 Eu961 2.374 . S
O991 C979 1.251 . S
H992 C963 0.931 . S
H993 C964 0.931 . S
H994 C966 0.931 . S
H995 C967 0.931 . S
H996 C973 0.931 . S
H997 C974 0.931 . S
H998 C976 0.931 . S
H999 C977 0.931 . S
C1000 Eu1001 2.835 . S
C1000 C1002 1.500 . S
C1000 O1020 1.257 . S
C1000 O1021 1.260 . S
Eu1001 C1000 2.835 . S
Eu1001 O1020 2.473 . S
Eu1001 O1021 2.480 . S
Eu1001 O1022 2.430 . S
Eu1001 O1023 2.670 . S
Eu1001 O1024 2.394 . S
Eu1001 O1029 2.355 . S
Eu1001 O1031 2.374 . S
C1002 C1000 1.500 . S
C1002 C1003 1.377 . S
C1002 C1007 1.377 . S
C1003 C1002 1.377 . S
C1003 C1004 1.395 . S
C1003 H1032 0.931 . S
C1004 C1003 1.395 . S
C1004 C1005 1.383 . S
C1004 H1033 0.931 . S
C1005 C1004 1.383 . S
C1005 C1006 1.394 . S
C1006 C1005 1.394 . S
C1006 C1007 1.378 . S
C1006 H1034 0.931 . S
C1007 C1002 1.377 . S
C1007 C1006 1.378 . S
C1007 H1035 0.931 . S
C1008 O1022 1.259 . S
C1008 O1023 1.270 . S
C1009 O1024 1.251 . S
C1009 O1025 1.251 . S
C1010 Eu1011 2.835 . S
C1010 C1012 1.500 . S
C1010 O1026 1.257 . S
C1010 O1027 1.260 . S
Eu1011 C1010 2.835 . S
Eu1011 O1023 2.355 . S
Eu1011 O1025 2.374 . S
Eu1011 O1026 2.473 . S
Eu1011 O1027 2.480 . S
Eu1011 O1028 2.430 . S
Eu1011 O1029 2.670 . S
Eu1011 O1030 2.394 . S
C1012 C1010 1.500 . S
C1012 C1013 1.377 . S
C1012 C1017 1.377 1_455 S
C1013 C1012 1.377 . S
C1013 C1014 1.395 . S
C1013 H1036 0.931 . S
C1014 C1013 1.395 . S
C1014 C1015 1.383 1_455 S
C1014 H1037 0.931 . S
C1015 C1014 1.383 1_655 S
C1015 C1016 1.394 . S
C1016 C1015 1.394 . S
C1016 C1017 1.378 . S
C1016 H1038 0.931 . S
C1017 C1012 1.377 1_655 S
C1017 C1016 1.378 . S
C1017 H1039 0.931 . S
C1018 O1028 1.259 . S
C1018 O1029 1.270 . S
C1019 O1030 1.251 . S
C1019 O1031 1.251 . S
O1020 C1000 1.257 . S
O1020 Eu1001 2.473 . S
O1021 C1000 1.260 . S
O1021 Eu1001 2.480 . S
O1022 Eu1001 2.430 . S
O1022 C1008 1.259 . S
O1023 Eu1001 2.670 . S
O1023 C1008 1.270 . S
O1023 Eu1011 2.355 . S
O1024 Eu1001 2.394 . S
O1024 C1009 1.251 . S
O1025 C1009 1.251 . S
O1025 Eu1011 2.374 . S
O1026 C1010 1.257 . S
O1026 Eu1011 2.473 . S
O1027 C1010 1.260 . S
O1027 Eu1011 2.480 . S
O1028 Eu1011 2.430 . S
O1028 C1018 1.259 . S
O1029 Eu1001 2.355 . S
O1029 Eu1011 2.670 . S
O1029 C1018 1.270 . S
O1030 Eu1011 2.394 . S
O1030 C1019 1.251 . S
O1031 Eu1001 2.374 . S
O1031 C1019 1.251 . S
H1032 C1003 0.931 . S
H1033 C1004 0.931 . S
H1034 C1006 0.931 . S
H1035 C1007 0.931 . S
H1036 C1013 0.931 . S
H1037 C1014 0.931 . S
H1038 C1016 0.931 . S
H1039 C1017 0.931 . S
C1040 Eu1041 2.835 . S
C1040 C1042 1.500 . S
C1040 O1060 1.257 . S
C1040 O1061 1.260 . S
Eu1041 C1040 2.835 . S
Eu1041 O1060 2.473 . S
Eu1041 O1061 2.480 . S
Eu1041 O1062 2.430 . S
Eu1041 O1063 2.670 . S
Eu1041 O1064 2.394 . S
Eu1041 O1069 2.355 . S
Eu1041 O1071 2.374 . S
C1042 C1040 1.500 . S
C1042 C1043 1.377 . S
C1042 C1047 1.377 . S
C1043 C1042 1.377 . S
C1043 C1044 1.395 . S
C1043 H1072 0.931 . S
C1044 C1043 1.395 . S
C1044 C1045 1.383 . S
C1044 H1073 0.931 . S
C1045 C1044 1.383 . S
C1045 C1046 1.394 . S
C1046 C1045 1.394 . S
C1046 C1047 1.378 . S
C1046 H1074 0.931 . S
C1047 C1042 1.377 . S
C1047 C1046 1.378 . S
C1047 H1075 0.931 . S
C1048 O1062 1.259 . S
C1048 O1063 1.270 . S
C1049 O1064 1.251 . S
C1049 O1065 1.251 . S
C1050 Eu1051 2.835 . S
C1050 C1052 1.500 . S
C1050 O1066 1.257 . S
C1050 O1067 1.260 . S
Eu1051 C1050 2.835 . S
Eu1051 O1063 2.355 . S
Eu1051 O1065 2.374 . S
Eu1051 O1066 2.473 . S
Eu1051 O1067 2.480 . S
Eu1051 O1068 2.430 . S
Eu1051 O1069 2.670 . S
Eu1051 O1070 2.394 . S
C1052 C1050 1.500 . S
C1052 C1053 1.377 . S
C1052 C1057 1.377 . S
C1053 C1052 1.377 . S
C1053 C1054 1.395 . S
C1053 H1076 0.931 . S
C1054 C1053 1.395 . S
C1054 C1055 1.383 . S
C1054 H1077 0.931 . S
C1055 C1054 1.383 . S
C1055 C1056 1.394 . S
C1056 C1055 1.394 . S
C1056 C1057 1.378 . S
C1056 H1078 0.931 . S
C1057 C1052 1.377 . S
C1057 C1056 1.378 . S
C1057 H1079 0.931 . S
C1058 O1068 1.259 . S
C1058 O1069 1.270 . S
C1059 O1070 1.251 . S
C1059 O1071 1.251 . S
O1060 C1040 1.257 . S
O1060 Eu1041 2.473 . S
O1061 C1040 1.260 . S
O1061 Eu1041 2.480 . S
O1062 Eu1041 2.430 . S
O1062 C1048 1.259 . S
O1063 Eu1041 2.670 . S
O1063 C1048 1.270 . S
O1063 Eu1051 2.355 . S
O1064 Eu1041 2.394 . S
O1064 C1049 1.251 . S
O1065 C1049 1.251 . S
O1065 Eu1051 2.374 . S
O1066 C1050 1.257 . S
O1066 Eu1051 2.473 . S
O1067 C1050 1.260 . S
O1067 Eu1051 2.480 . S
O1068 Eu1051 2.430 . S
O1068 C1058 1.259 . S
O1069 Eu1041 2.355 . S
O1069 Eu1051 2.670 . S
O1069 C1058 1.270 . S
O1070 Eu1051 2.394 . S
O1070 C1059 1.251 . S
O1071 Eu1041 2.374 . S
O1071 C1059 1.251 . S
H1072 C1043 0.931 . S
H1073 C1044 0.931 . S
H1074 C1046 0.931 . S
H1075 C1047 0.931 . S
H1076 C1053 0.931 . S
H1077 C1054 0.931 . S
H1078 C1056 0.931 . S
H1079 C1057 0.931 . S
C1080 Eu1081 2.835 . S
C1080 C1082 1.500 . S
C1080 O1100 1.257 . S
C1080 O1101 1.260 . S
Eu1081 C1080 2.835 . S
Eu1081 O1100 2.473 . S
Eu1081 O1101 2.480 . S
Eu1081 O1102 2.430 . S
Eu1081 O1103 2.670 1_556 S
Eu1081 O1104 2.394 . S
Eu1081 O1109 2.355 . S
Eu1081 O1111 2.374 . S
C1082 C1080 1.500 . S
C1082 C1083 1.377 . S
C1082 C1087 1.377 . S
C1083 C1082 1.377 . S
C1083 C1084 1.395 . S
C1083 H1112 0.931 . S
C1084 C1083 1.395 . S
C1084 C1085 1.383 . S
C1084 H1113 0.931 . S
C1085 C1084 1.383 . S
C1085 C1086 1.394 . S
C1086 C1085 1.394 . S
C1086 C1087 1.378 . S
C1086 H1114 0.931 . S
C1087 C1082 1.377 . S
C1087 C1086 1.378 . S
C1087 H1115 0.931 . S
C1088 O1102 1.259 . S
C1088 O1103 1.270 1_556 S
C1089 O1104 1.251 . S
C1089 O1105 1.251 1_556 S
C1090 Eu1091 2.835 . S
C1090 C1092 1.500 . S
C1090 O1106 1.257 . S
C1090 O1107 1.260 . S
Eu1091 C1090 2.835 . S
Eu1091 O1103 2.355 . S
Eu1091 O1105 2.374 . S
Eu1091 O1106 2.473 . S
Eu1091 O1107 2.480 . S
Eu1091 O1108 2.430 . S
Eu1091 O1109 2.670 1_554 S
Eu1091 O1110 2.394 . S
C1092 C1090 1.500 . S
C1092 C1093 1.377 . S
C1092 C1097 1.377 . S
C1093 C1092 1.377 . S
C1093 C1094 1.395 . S
C1093 H1116 0.931 . S
C1094 C1093 1.395 . S
C1094 C1095 1.383 . S
C1094 H1117 0.931 . S
C1095 C1094 1.383 . S
C1095 C1096 1.394 . S
C1096 C1095 1.394 . S
C1096 C1097 1.378 . S
C1096 H1118 0.931 . S
C1097 C1092 1.377 . S
C1097 C1096 1.378 . S
C1097 H1119 0.931 . S
C1098 O1108 1.259 . S
C1098 O1109 1.270 1_554 S
C1099 O1110 1.251 . S
C1099 O1111 1.251 1_554 S
O1100 C1080 1.257 . S
O1100 Eu1081 2.473 . S
O1101 C1080 1.260 . S
O1101 Eu1081 2.480 . S
O1102 Eu1081 2.430 . S
O1102 C1088 1.259 . S
O1103 Eu1081 2.670 1_554 S
O1103 C1088 1.270 1_554 S
O1103 Eu1091 2.355 . S
O1104 Eu1081 2.394 . S
O1104 C1089 1.251 . S
O1105 C1089 1.251 1_554 S
O1105 Eu1091 2.374 . S
O1106 C1090 1.257 . S
O1106 Eu1091 2.473 . S
O1107 C1090 1.260 . S
O1107 Eu1091 2.480 . S
O1108 Eu1091 2.430 . S
O1108 C1098 1.259 . S
O1109 Eu1081 2.355 . S
O1109 Eu1091 2.670 1_556 S
O1109 C1098 1.270 1_556 S
O1110 Eu1091 2.394 . S
O1110 C1099 1.251 . S
O1111 Eu1081 2.374 . S
O1111 C1099 1.251 1_556 S
H1112 C1083 0.931 . S
H1113 C1084 0.931 . S
H1114 C1086 0.931 . S
H1115 C1087 0.931 . S
H1116 C1093 0.931 . S
H1117 C1094 0.931 . S
H1118 C1096 0.931 . S
H1119 C1097 0.931 . S
C1120 Eu1121 2.835 . S
C1120 C1122 1.500 . S
C1120 O1140 1.257 . S
C1120 O1141 1.260 . S
Eu1121 C1120 2.835 . S
Eu1121 O1140 2.473 . S
Eu1121 O1141 2.480 . S
Eu1121 O1142 2.430 . S
Eu1121 O1143 2.670 1_556 S
Eu1121 O1144 2.394 . S
Eu1121 O1149 2.355 . S
Eu1121 O1151 2.374 . S
C1122 C1120 1.500 . S
C1122 C1123 1.377 . S
C1122 C1127 1.377 . S
C1123 C1122 1.377 . S
C1123 C1124 1.395 . S
C1123 H1152 0.931 . S
C1124 C1123 1.395 . S
C1124 C1125 1.383 . S
C1124 H1153 0.931 . S
C1125 C1124 1.383 . S
C1125 C1126 1.394 . S
C1126 C1125 1.394 . S
C1126 C1127 1.378 . S
C1126 H1154 0.931 . S
C1127 C1122 1.377 . S
C1127 C1126 1.378 . S
C1127 H1155 0.931 . S
C1128 O1142 1.259 . S
C1128 O1143 1.270 1_556 S
C1129 O1144 1.251 . S
C1129 O1145 1.251 1_556 S
C1130 Eu1131 2.835 . S
C1130 C1132 1.500 . S
C1130 O1146 1.257 . S
C1130 O1147 1.260 . S
Eu1131 C1130 2.835 . S
Eu1131 O1143 2.355 . S
Eu1131 O1145 2.374 . S
Eu1131 O1146 2.473 . S
Eu1131 O1147 2.480 . S
Eu1131 O1148 2.430 . S
Eu1131 O1149 2.670 1_554 S
Eu1131 O1150 2.394 . S
C1132 C1130 1.500 . S
C1132 C1133 1.377 . S
C1132 C1137 1.377 . S
C1133 C1132 1.377 . S
C1133 C1134 1.395 . S
C1133 H1156 0.931 . S
C1134 C1133 1.395 . S
C1134 C1135 1.383 . S
C1134 H1157 0.931 . S
C1135 C1134 1.383 . S
C1135 C1136 1.394 . S
C1136 C1135 1.394 . S
C1136 C1137 1.378 . S
C1136 H1158 0.931 . S
C1137 C1132 1.377 . S
C1137 C1136 1.378 . S
C1137 H1159 0.931 . S
C1138 O1148 1.259 . S
C1138 O1149 1.270 1_554 S
C1139 O1150 1.251 . S
C1139 O1151 1.251 1_554 S
O1140 C1120 1.257 . S
O1140 Eu1121 2.473 . S
O1141 C1120 1.260 . S
O1141 Eu1121 2.480 . S
O1142 Eu1121 2.430 . S
O1142 C1128 1.259 . S
O1143 Eu1121 2.670 1_554 S
O1143 C1128 1.270 1_554 S
O1143 Eu1131 2.355 . S
O1144 Eu1121 2.394 . S
O1144 C1129 1.251 . S
O1145 C1129 1.251 1_554 S
O1145 Eu1131 2.374 . S
O1146 C1130 1.257 . S
O1146 Eu1131 2.473 . S
O1147 C1130 1.260 . S
O1147 Eu1131 2.480 . S
O1148 Eu1131 2.430 . S
O1148 C1138 1.259 . S
O1149 Eu1121 2.355 . S
O1149 Eu1131 2.670 1_556 S
O1149 C1138 1.270 1_556 S
O1150 Eu1131 2.394 . S
O1150 C1139 1.251 . S
O1151 Eu1121 2.374 . S
O1151 C1139 1.251 1_556 S
H1152 C1123 0.931 . S
H1153 C1124 0.931 . S
H1154 C1126 0.931 . S
H1155 C1127 0.931 . S
H1156 C1133 0.931 . S
H1157 C1134 0.931 . S
H1158 C1136 0.931 . S
H1159 C1137 0.931 . S
C1160 Eu1161 2.835 . S
C1160 C1162 1.500 . S
C1160 O1180 1.257 . S
C1160 O1181 1.260 . S
Eu1161 C1160 2.835 . S
Eu1161 O1180 2.473 . S
Eu1161 O1181 2.480 . S
Eu1161 O1182 2.430 . S
Eu1161 O1183 2.670 1_556 S
Eu1161 O1184 2.394 . S
Eu1161 O1189 2.355 . S
Eu1161 O1191 2.374 . S
C1162 C1160 1.500 . S
C1162 C1163 1.377 . S
C1162 C1167 1.377 . S
C1163 C1162 1.377 . S
C1163 C1164 1.395 . S
C1163 H1192 0.931 . S
C1164 C1163 1.395 . S
C1164 C1165 1.383 . S
C1164 H1193 0.931 . S
C1165 C1164 1.383 . S
C1165 C1166 1.394 . S
C1166 C1165 1.394 . S
C1166 C1167 1.378 . S
C1166 H1194 0.931 . S
C1167 C1162 1.377 . S
C1167 C1166 1.378 . S
C1167 H1195 0.931 . S
C1168 O1182 1.259 . S
C1168 O1183 1.270 1_556 S
C1169 O1184 1.251 . S
C1169 O1185 1.251 1_556 S
C1170 Eu1171 2.835 . S
C1170 C1172 1.500 . S
C1170 O1186 1.257 . S
C1170 O1187 1.260 . S
Eu1171 C1170 2.835 . S
Eu1171 O1183 2.355 . S
Eu1171 O1185 2.374 . S
Eu1171 O1186 2.473 . S
Eu1171 O1187 2.480 . S
Eu1171 O1188 2.430 . S
Eu1171 O1189 2.670 1_554 S
Eu1171 O1190 2.394 . S
C1172 C1170 1.500 . S
C1172 C1173 1.377 . S
C1172 C1177 1.377 . S
C1173 C1172 1.377 . S
C1173 C1174 1.395 . S
C1173 H1196 0.931 . S
C1174 C1173 1.395 . S
C1174 C1175 1.383 . S
C1174 H1197 0.931 . S
C1175 C1174 1.383 . S
C1175 C1176 1.394 . S
C1176 C1175 1.394 . S
C1176 C1177 1.378 . S
C1176 H1198 0.931 . S
C1177 C1172 1.377 . S
C1177 C1176 1.378 . S
C1177 H1199 0.931 . S
C1178 O1188 1.259 . S
C1178 O1189 1.270 1_554 S
C1179 O1190 1.251 . S
C1179 O1191 1.251 1_554 S
O1180 C1160 1.257 . S
O1180 Eu1161 2.473 . S
O1181 C1160 1.260 . S
O1181 Eu1161 2.480 . S
O1182 Eu1161 2.430 . S
O1182 C1168 1.259 . S
O1183 Eu1161 2.670 1_554 S
O1183 C1168 1.270 1_554 S
O1183 Eu1171 2.355 . S
O1184 Eu1161 2.394 . S
O1184 C1169 1.251 . S
O1185 C1169 1.251 1_554 S
O1185 Eu1171 2.374 . S
O1186 C1170 1.257 . S
O1186 Eu1171 2.473 . S
O1187 C1170 1.260 . S
O1187 Eu1171 2.480 . S
O1188 Eu1171 2.430 . S
O1188 C1178 1.259 . S
O1189 Eu1161 2.355 . S
O1189 Eu1171 2.670 1_556 S
O1189 C1178 1.270 1_556 S
O1190 Eu1171 2.394 . S
O1190 C1179 1.251 . S
O1191 Eu1161 2.374 . S
O1191 C1179 1.251 1_556 S
H1192 C1163 0.931 . S
H1193 C1164 0.931 . S
H1194 C1166 0.931 . S
H1195 C1167 0.931 . S
H1196 C1173 0.931 . S
H1197 C1174 0.931 . S
H1198 C1176 0.931 . S
H1199 C1177 0.931 . S
C1200 Eu1201 2.835 . S
C1200 C1202 1.500 . S
C1200 O1220 1.257 . S
C1200 O1221 1.260 . S
Eu1201 C1200 2.835 . S
Eu1201 O1220 2.473 . S
Eu1201 O1221 2.480 . S
Eu1201 O1222 2.430 . S
Eu1201 O1223 2.670 . S
Eu1201 O1224 2.394 . S
Eu1201 O1229 2.355 . S
Eu1201 O1231 2.374 . S
C1202 C1200 1.500 . S
C1202 C1203 1.377 . S
C1202 C1207 1.377 . S
C1203 C1202 1.377 . S
C1203 C1204 1.395 . S
C1203 H1232 0.931 . S
C1204 C1203 1.395 . S
C1204 C1205 1.383 . S
C1204 H1233 0.931 . S
C1205 C1204 1.383 . S
C1205 C1206 1.394 . S
C1206 C1205 1.394 . S
C1206 C1207 1.378 . S
C1206 H1234 0.931 . S
C1207 C1202 1.377 . S
C1207 C1206 1.378 . S
C1207 H1235 0.931 . S
C1208 O1222 1.259 . S
C1208 O1223 1.270 . S
C1209 O1224 1.251 . S
C1209 O1225 1.251 . S
C1210 Eu1211 2.835 . S
C1210 C1212 1.500 . S
C1210 O1226 1.257 . S
C1210 O1227 1.260 . S
Eu1211 C1210 2.835 . S
Eu1211 O1223 2.355 . S
Eu1211 O1225 2.374 . S
Eu1211 O1226 2.473 . S
Eu1211 O1227 2.480 . S
Eu1211 O1228 2.430 . S
Eu1211 O1229 2.670 . S
Eu1211 O1230 2.394 . S
C1212 C1210 1.500 . S
C1212 C1213 1.377 . S
C1212 C1217 1.377 . S
C1213 C1212 1.377 . S
C1213 C1214 1.395 . S
C1213 H1236 0.931 . S
C1214 C1213 1.395 . S
C1214 C1215 1.383 . S
C1214 H1237 0.931 . S
C1215 C1214 1.383 . S
C1215 C1216 1.394 . S
C1216 C1215 1.394 . S
C1216 C1217 1.378 . S
C1216 H1238 0.931 . S
C1217 C1212 1.377 . S
C1217 C1216 1.378 . S
C1217 H1239 0.931 . S
C1218 O1228 1.259 . S
C1218 O1229 1.270 . S
C1219 O1230 1.251 . S
C1219 O1231 1.251 . S
O1220 C1200 1.257 . S
O1220 Eu1201 2.473 . S
O1221 C1200 1.260 . S
O1221 Eu1201 2.480 . S
O1222 Eu1201 2.430 . S
O1222 C1208 1.259 . S
O1223 Eu1201 2.670 . S
O1223 C1208 1.270 . S
O1223 Eu1211 2.355 . S
O1224 Eu1201 2.394 . S
O1224 C1209 1.251 . S
O1225 C1209 1.251 . S
O1225 Eu1211 2.374 . S
O1226 C1210 1.257 . S
O1226 Eu1211 2.473 . S
O1227 C1210 1.260 . S
O1227 Eu1211 2.480 . S
O1228 Eu1211 2.430 . S
O1228 C1218 1.259 . S
O1229 Eu1201 2.355 . S
O1229 Eu1211 2.670 . S
O1229 C1218 1.270 . S
O1230 Eu1211 2.394 . S
O1230 C1219 1.251 . S
O1231 Eu1201 2.374 . S
O1231 C1219 1.251 . S
H1232 C1203 0.931 . S
H1233 C1204 0.931 . S
H1234 C1206 0.931 . S
H1235 C1207 0.931 . S
H1236 C1213 0.931 . S
H1237 C1214 0.931 . S
H1238 C1216 0.931 . S
H1239 C1217 0.931 . S
C1240 Eu1241 2.835 . S
C1240 C1242 1.500 . S
C1240 O1260 1.257 . S
C1240 O1261 1.260 . S
Eu1241 C1240 2.835 . S
Eu1241 O1260 2.473 . S
Eu1241 O1261 2.480 . S
Eu1241 O1262 2.430 . S
Eu1241 O1263 2.670 . S
Eu1241 O1264 2.394 . S
Eu1241 O1269 2.355 . S
Eu1241 O1271 2.374 . S
C1242 C1240 1.500 . S
C1242 C1243 1.377 . S
C1242 C1247 1.377 . S
C1243 C1242 1.377 . S
C1243 C1244 1.395 . S
C1243 H1272 0.931 . S
C1244 C1243 1.395 . S
C1244 C1245 1.383 . S
C1244 H1273 0.931 . S
C1245 C1244 1.383 . S
C1245 C1246 1.394 . S
C1246 C1245 1.394 . S
C1246 C1247 1.378 . S
C1246 H1274 0.931 . S
C1247 C1242 1.377 . S
C1247 C1246 1.378 . S
C1247 H1275 0.931 . S
C1248 O1262 1.259 . S
C1248 O1263 1.270 . S
C1249 O1264 1.251 . S
C1249 O1265 1.251 . S
C1250 Eu1251 2.835 . S
C1250 C1252 1.500 . S
C1250 O1266 1.257 . S
C1250 O1267 1.260 . S
Eu1251 C1250 2.835 . S
Eu1251 O1263 2.355 . S
Eu1251 O1265 2.374 . S
Eu1251 O1266 2.473 . S
Eu1251 O1267 2.480 . S
Eu1251 O1268 2.430 . S
Eu1251 O1269 2.670 . S
Eu1251 O1270 2.394 . S
C1252 C1250 1.500 . S
C1252 C1253 1.377 . S
C1252 C1257 1.377 . S
C1253 C1252 1.377 . S
C1253 C1254 1.395 . S
C1253 H1276 0.931 . S
C1254 C1253 1.395 . S
C1254 C1255 1.383 . S
C1254 H1277 0.931 . S
C1255 C1254 1.383 . S
C1255 C1256 1.394 . S
C1256 C1255 1.394 . S
C1256 C1257 1.378 . S
C1256 H1278 0.931 . S
C1257 C1252 1.377 . S
C1257 C1256 1.378 . S
C1257 H1279 0.931 . S
C1258 O1268 1.259 . S
C1258 O1269 1.270 . S
C1259 O1270 1.251 . S
C1259 O1271 1.251 . S
O1260 C1240 1.257 . S
O1260 Eu1241 2.473 . S
O1261 C1240 1.260 . S
O1261 Eu1241 2.480 . S
O1262 Eu1241 2.430 . S
O1262 C1248 1.259 . S
O1263 Eu1241 2.670 . S
O1263 C1248 1.270 . S
O1263 Eu1251 2.355 . S
O1264 Eu1241 2.394 . S
O1264 C1249 1.251 . S
O1265 C1249 1.251 . S
O1265 Eu1251 2.374 . S
O1266 C1250 1.257 . S
O1266 Eu1251 2.473 . S
O1267 C1250 1.260 . S
O1267 Eu1251 2.480 . S
O1268 Eu1251 2.430 . S
O1268 C1258 1.259 . S
O1269 Eu1241 2.355 . S
O1269 Eu1251 2.670 . S
O1269 C1258 1.270 . S
O1270 Eu1251 2.394 . S
O1270 C1259 1.251 . S
O1271 Eu1241 2.374 . S
O1271 C1259 1.251 . S
H1272 C1243 0.931 . S
H1273 C1244 0.931 . S
H1274 C1246 0.931 . S
H1275 C1247 0.931 . S
H1276 C1253 0.931 . S
H1277 C1254 0.931 . S
H1278 C1256 0.931 . S
H1279 C1257 0.931 . S
C1280 Eu1281 2.835 . S
C1280 C1282 1.500 . S
C1280 O1300 1.257 . S
C1280 O1301 1.260 . S
Eu1281 C1280 2.835 . S
Eu1281 O1300 2.473 . S
Eu1281 O1301 2.480 . S
Eu1281 O1302 2.430 . S
Eu1281 O1303 2.670 . S
Eu1281 O1304 2.394 . S
Eu1281 O1309 2.355 . S
Eu1281 O1311 2.374 . S
C1282 C1280 1.500 . S
C1282 C1283 1.377 . S
C1282 C1287 1.377 . S
C1283 C1282 1.377 . S
C1283 C1284 1.395 . S
C1283 H1312 0.931 . S
C1284 C1283 1.395 . S
C1284 C1285 1.383 . S
C1284 H1313 0.931 . S
C1285 C1284 1.383 . S
C1285 C1286 1.394 . S
C1286 C1285 1.394 . S
C1286 C1287 1.378 . S
C1286 H1314 0.931 . S
C1287 C1282 1.377 . S
C1287 C1286 1.378 . S
C1287 H1315 0.931 . S
C1288 O1302 1.259 . S
C1288 O1303 1.270 . S
C1289 O1304 1.251 . S
C1289 O1305 1.251 . S
C1290 Eu1291 2.835 . S
C1290 C1292 1.500 . S
C1290 O1306 1.257 . S
C1290 O1307 1.260 . S
Eu1291 C1290 2.835 . S
Eu1291 O1303 2.355 . S
Eu1291 O1305 2.374 . S
Eu1291 O1306 2.473 . S
Eu1291 O1307 2.480 . S
Eu1291 O1308 2.430 . S
Eu1291 O1309 2.670 . S
Eu1291 O1310 2.394 . S
C1292 C1290 1.500 . S
C1292 C1293 1.377 . S
C1292 C1297 1.377 . S
C1293 C1292 1.377 . S
C1293 C1294 1.395 . S
C1293 H1316 0.931 . S
C1294 C1293 1.395 . S
C1294 C1295 1.383 . S
C1294 H1317 0.931 . S
C1295 C1294 1.383 . S
C1295 C1296 1.394 . S
C1296 C1295 1.394 . S
C1296 C1297 1.378 . S
C1296 H1318 0.931 . S
C1297 C1292 1.377 . S
C1297 C1296 1.378 . S
C1297 H1319 0.931 . S
C1298 O1308 1.259 . S
C1298 O1309 1.270 . S
C1299 O1310 1.251 . S
C1299 O1311 1.251 . S
O1300 C1280 1.257 . S
O1300 Eu1281 2.473 . S
O1301 C1280 1.260 . S
O1301 Eu1281 2.480 . S
O1302 Eu1281 2.430 . S
O1302 C1288 1.259 . S
O1303 Eu1281 2.670 . S
O1303 C1288 1.270 . S
O1303 Eu1291 2.355 . S
O1304 Eu1281 2.394 . S
O1304 C1289 1.251 . S
O1305 C1289 1.251 . S
O1305 Eu1291 2.374 . S
O1306 C1290 1.257 . S
O1306 Eu1291 2.473 . S
O1307 C1290 1.260 . S
O1307 Eu1291 2.480 . S
O1308 Eu1291 2.430 . S
O1308 C1298 1.259 . S
O1309 Eu1281 2.355 . S
O1309 Eu1291 2.670 . S
O1309 C1298 1.270 . S
O1310 Eu1291 2.394 . S
O1310 C1299 1.251 . S
O1311 Eu1281 2.374 . S
O1311 C1299 1.251 . S
H1312 C1283 0.931 . S
H1313 C1284 0.931 . S
H1314 C1286 0.931 . S
H1315 C1287 0.931 . S
H1316 C1293 0.931 . S
H1317 C1294 0.931 . S
H1318 C1296 0.931 . S
H1319 C1297 0.931 . S
C1320 Eu1321 2.835 . S
C1320 C1322 1.500 . S
C1320 O1340 1.257 . S
C1320 O1341 1.260 . S
Eu1321 C1320 2.835 . S
Eu1321 O1340 2.473 . S
Eu1321 O1341 2.480 . S
Eu1321 O1342 2.430 . S
Eu1321 O1343 2.670 . S
Eu1321 O1344 2.394 . S
Eu1321 O1349 2.355 . S
Eu1321 O1351 2.374 . S
C1322 C1320 1.500 . S
C1322 C1323 1.377 . S
C1322 C1327 1.377 1_455 S
C1323 C1322 1.377 . S
C1323 C1324 1.395 . S
C1323 H1352 0.931 . S
C1324 C1323 1.395 . S
C1324 C1325 1.383 1_455 S
C1324 H1353 0.931 . S
C1325 C1324 1.383 1_655 S
C1325 C1326 1.394 . S
C1326 C1325 1.394 . S
C1326 C1327 1.378 . S
C1326 H1354 0.931 . S
C1327 C1322 1.377 1_655 S
C1327 C1326 1.378 . S
C1327 H1355 0.931 . S
C1328 O1342 1.259 . S
C1328 O1343 1.270 . S
C1329 O1344 1.251 . S
C1329 O1345 1.251 . S
C1330 Eu1331 2.835 . S
C1330 C1332 1.500 . S
C1330 O1346 1.257 . S
C1330 O1347 1.260 . S
Eu1331 C1330 2.835 . S
Eu1331 O1343 2.355 . S
Eu1331 O1345 2.374 . S
Eu1331 O1346 2.473 . S
Eu1331 O1347 2.480 . S
Eu1331 O1348 2.430 . S
Eu1331 O1349 2.670 . S
Eu1331 O1350 2.394 . S
C1332 C1330 1.500 . S
C1332 C1333 1.377 . S
C1332 C1337 1.377 . S
C1333 C1332 1.377 . S
C1333 C1334 1.395 . S
C1333 H1356 0.931 . S
C1334 C1333 1.395 . S
C1334 C1335 1.383 . S
C1334 H1357 0.931 . S
C1335 C1334 1.383 . S
C1335 C1336 1.394 . S
C1336 C1335 1.394 . S
C1336 C1337 1.378 . S
C1336 H1358 0.931 . S
C1337 C1332 1.377 . S
C1337 C1336 1.378 . S
C1337 H1359 0.931 . S
C1338 O1348 1.259 . S
C1338 O1349 1.270 . S
C1339 O1350 1.251 . S
C1339 O1351 1.251 . S
O1340 C1320 1.257 . S
O1340 Eu1321 2.473 . S
O1341 C1320 1.260 . S
O1341 Eu1321 2.480 . S
O1342 Eu1321 2.430 . S
O1342 C1328 1.259 . S
O1343 Eu1321 2.670 . S
O1343 C1328 1.270 . S
O1343 Eu1331 2.355 . S
O1344 Eu1321 2.394 . S
O1344 C1329 1.251 . S
O1345 C1329 1.251 . S
O1345 Eu1331 2.374 . S
O1346 C1330 1.257 . S
O1346 Eu1331 2.473 . S
O1347 C1330 1.260 . S
O1347 Eu1331 2.480 . S
O1348 Eu1331 2.430 . S
O1348 C1338 1.259 . S
O1349 Eu1321 2.355 . S
O1349 Eu1331 2.670 . S
O1349 C1338 1.270 . S
O1350 Eu1331 2.394 . S
O1350 C1339 1.251 . S
O1351 Eu1321 2.374 . S
O1351 C1339 1.251 . S
H1352 C1323 0.931 . S
H1353 C1324 0.931 . S
H1354 C1326 0.931 . S
H1355 C1327 0.931 . S
H1356 C1333 0.931 . S
H1357 C1334 0.931 . S
H1358 C1336 0.931 . S
H1359 C1337 0.931 . S
C1360 Eu1361 2.835 . S
C1360 C1362 1.500 . S
C1360 O1380 1.257 . S
C1360 O1381 1.260 . S
Eu1361 C1360 2.835 . S
Eu1361 O1380 2.473 . S
Eu1361 O1381 2.480 . S
Eu1361 O1382 2.430 . S
Eu1361 O1383 2.670 . S
Eu1361 O1384 2.394 . S
Eu1361 O1389 2.355 . S
Eu1361 O1391 2.374 . S
C1362 C1360 1.500 . S
C1362 C1363 1.377 . S
C1362 C1367 1.377 . S
C1363 C1362 1.377 . S
C1363 C1364 1.395 . S
C1363 H1392 0.931 . S
C1364 C1363 1.395 . S
C1364 C1365 1.383 . S
C1364 H1393 0.931 . S
C1365 C1364 1.383 . S
C1365 C1366 1.394 . S
C1366 C1365 1.394 . S
C1366 C1367 1.378 . S
C1366 H1394 0.931 . S
C1367 C1362 1.377 . S
C1367 C1366 1.378 . S
C1367 H1395 0.931 . S
C1368 O1382 1.259 . S
C1368 O1383 1.270 . S
C1369 O1384 1.251 . S
C1369 O1385 1.251 . S
C1370 Eu1371 2.835 . S
C1370 C1372 1.500 . S
C1370 O1386 1.257 . S
C1370 O1387 1.260 . S
Eu1371 C1370 2.835 . S
Eu1371 O1383 2.355 . S
Eu1371 O1385 2.374 . S
Eu1371 O1386 2.473 . S
Eu1371 O1387 2.480 . S
Eu1371 O1388 2.430 . S
Eu1371 O1389 2.670 . S
Eu1371 O1390 2.394 . S
C1372 C1370 1.500 . S
C1372 C1373 1.377 . S
C1372 C1377 1.377 . S
C1373 C1372 1.377 . S
C1373 C1374 1.395 . S
C1373 H1396 0.931 . S
C1374 C1373 1.395 . S
C1374 C1375 1.383 . S
C1374 H1397 0.931 . S
C1375 C1374 1.383 . S
C1375 C1376 1.394 . S
C1376 C1375 1.394 . S
C1376 C1377 1.378 . S
C1376 H1398 0.931 . S
C1377 C1372 1.377 . S
C1377 C1376 1.378 . S
C1377 H1399 0.931 . S
C1378 O1388 1.259 . S
C1378 O1389 1.270 . S
C1379 O1390 1.251 . S
C1379 O1391 1.251 . S
O1380 C1360 1.257 . S
O1380 Eu1361 2.473 . S
O1381 C1360 1.260 . S
O1381 Eu1361 2.480 . S
O1382 Eu1361 2.430 . S
O1382 C1368 1.259 . S
O1383 Eu1361 2.670 . S
O1383 C1368 1.270 . S
O1383 Eu1371 2.355 . S
O1384 Eu1361 2.394 . S
O1384 C1369 1.251 . S
O1385 C1369 1.251 . S
O1385 Eu1371 2.374 . S
O1386 C1370 1.257 . S
O1386 Eu1371 2.473 . S
O1387 C1370 1.260 . S
O1387 Eu1371 2.480 . S
O1388 Eu1371 2.430 . S
O1388 C1378 1.259 . S
O1389 Eu1361 2.355 . S
O1389 Eu1371 2.670 . S
O1389 C1378 1.270 . S
O1390 Eu1371 2.394 . S
O1390 C1379 1.251 . S
O1391 Eu1361 2.374 . S
O1391 C1379 1.251 . S
H1392 C1363 0.931 . S
H1393 C1364 0.931 . S
H1394 C1366 0.931 . S
H1395 C1367 0.931 . S
H1396 C1373 0.931 . S
H1397 C1374 0.931 . S
H1398 C1376 0.931 . S
H1399 C1377 0.931 . S
C1400 Eu1401 2.835 . S
C1400 C1402 1.500 . S
C1400 O1420 1.257 . S
C1400 O1421 1.260 . S
Eu1401 C1400 2.835 . S
Eu1401 O1420 2.473 . S
Eu1401 O1421 2.480 . S
Eu1401 O1422 2.430 . S
Eu1401 O1423 2.670 . S
Eu1401 O1424 2.394 . S
Eu1401 O1429 2.355 . S
Eu1401 O1431 2.374 . S
C1402 C1400 1.500 . S
C1402 C1403 1.377 . S
C1402 C1407 1.377 1_565 S
C1403 C1402 1.377 . S
C1403 C1404 1.395 . S
C1403 H1432 0.931 . S
C1404 C1403 1.395 . S
C1404 C1405 1.383 1_565 S
C1404 H1433 0.931 . S
C1405 C1404 1.383 1_545 S
C1405 C1406 1.394 . S
C1406 C1405 1.394 . S
C1406 C1407 1.378 . S
C1406 H1434 0.931 . S
C1407 C1402 1.377 1_545 S
C1407 C1406 1.378 . S
C1407 H1435 0.931 . S
C1408 O1422 1.259 . S
C1408 O1423 1.270 . S
C1409 O1424 1.251 . S
C1409 O1425 1.251 . S
C1410 Eu1411 2.835 . S
C1410 C1412 1.500 . S
C1410 O1426 1.257 . S
C1410 O1427 1.260 . S
Eu1411 C1410 2.835 . S
Eu1411 O1423 2.355 . S
Eu1411 O1425 2.374 . S
Eu1411 O1426 2.473 . S
Eu1411 O1427 2.480 . S
Eu1411 O1428 2.430 . S
Eu1411 O1429 2.670 . S
Eu1411 O1430 2.394 . S
C1412 C1410 1.500 . S
C1412 C1413 1.377 . S
C1412 C1417 1.377 . S
C1413 C1412 1.377 . S
C1413 C1414 1.395 . S
C1413 H1436 0.931 . S
C1414 C1413 1.395 . S
C1414 C1415 1.383 . S
C1414 H1437 0.931 . S
C1415 C1414 1.383 . S
C1415 C1416 1.394 . S
C1416 C1415 1.394 . S
C1416 C1417 1.378 . S
C1416 H1438 0.931 . S
C1417 C1412 1.377 . S
C1417 C1416 1.378 . S
C1417 H1439 0.931 . S
C1418 O1428 1.259 . S
C1418 O1429 1.270 . S
C1419 O1430 1.251 . S
C1419 O1431 1.251 . S
O1420 C1400 1.257 . S
O1420 Eu1401 2.473 . S
O1421 C1400 1.260 . S
O1421 Eu1401 2.480 . S
O1422 Eu1401 2.430 . S
O1422 C1408 1.259 . S
O1423 Eu1401 2.670 . S
O1423 C1408 1.270 . S
O1423 Eu1411 2.355 . S
O1424 Eu1401 2.394 . S
O1424 C1409 1.251 . S
O1425 C1409 1.251 . S
O1425 Eu1411 2.374 . S
O1426 C1410 1.257 . S
O1426 Eu1411 2.473 . S
O1427 C1410 1.260 . S
O1427 Eu1411 2.480 . S
O1428 Eu1411 2.430 . S
O1428 C1418 1.259 . S
O1429 Eu1401 2.355 . S
O1429 Eu1411 2.670 . S
O1429 C1418 1.270 . S
O1430 Eu1411 2.394 . S
O1430 C1419 1.251 . S
O1431 Eu1401 2.374 . S
O1431 C1419 1.251 . S
H1432 C1403 0.931 . S
H1433 C1404 0.931 . S
H1434 C1406 0.931 . S
H1435 C1407 0.931 . S
H1436 C1413 0.931 . S
H1437 C1414 0.931 . S
H1438 C1416 0.931 . S
H1439 C1417 0.931 . S
C1440 C1441 1.369 . S
C1440 C1442 1.419 . S
C1440 H1444 0.930 . S
C1441 C1440 1.369 . S
C1441 C1450 1.429 . S
C1442 C1440 1.419 . S
C1442 C1443 1.363 . S
C1442 H1445 0.929 . S
C1443 C1442 1.363 . S
C1443 C1449 1.428 . S
H1444 C1440 0.930 . S
H1445 C1442 0.929 . S
S1446 N1447 1.613 . S
S1446 N1448 1.610 . S
N1447 S1446 1.613 . S
N1447 C1450 1.350 . S
N1448 S1446 1.610 . S
N1448 C1449 1.351 . S
C1449 C1443 1.428 . S
C1449 N1448 1.351 . S
C1449 C1450 1.434 . S
C1450 C1441 1.429 . S
C1450 N1447 1.350 . S
C1450 C1449 1.434 . S
C1451 C1452 1.369 . S
C1451 C1453 1.419 . S
C1451 H1455 0.930 . S
C1452 C1451 1.369 . S
C1452 C1461 1.429 . S
C1453 C1451 1.419 . S
C1453 C1454 1.363 . S
C1453 H1456 0.929 . S
C1454 C1453 1.363 . S
C1454 C1460 1.428 . S
H1455 C1451 0.930 . S
H1456 C1453 0.929 . S
S1457 N1458 1.613 . S
S1457 N1459 1.610 . S
N1458 S1457 1.613 . S
N1458 C1461 1.350 . S
N1459 S1457 1.610 . S
N1459 C1460 1.351 . S
C1460 C1454 1.428 . S
C1460 N1459 1.351 . S
C1460 C1461 1.434 . S
C1461 C1452 1.429 . S
C1461 N1458 1.350 . S
C1461 C1460 1.434 . S
C1462 C1463 1.369 . S
C1462 C1464 1.419 . S
C1462 H1466 0.930 . S
C1463 C1462 1.369 . S
C1463 C1472 1.429 . S
C1464 C1462 1.419 . S
C1464 C1465 1.363 . S
C1464 H1467 0.929 . S
C1465 C1464 1.363 . S
C1465 C1471 1.428 . S
H1466 C1462 0.930 . S
H1467 C1464 0.929 . S
S1468 N1469 1.613 . S
S1468 N1470 1.610 . S
N1469 S1468 1.613 . S
N1469 C1472 1.350 . S
N1470 S1468 1.610 . S
N1470 C1471 1.351 . S
C1471 C1465 1.428 . S
C1471 N1470 1.351 . S
C1471 C1472 1.434 . S
C1472 C1463 1.429 . S
C1472 N1469 1.350 . S
C1472 C1471 1.434 . S
C1473 C1474 1.369 . S
C1473 C1475 1.419 . S
C1473 H1477 0.930 . S
C1474 C1473 1.369 . S
C1474 C1483 1.429 . S
C1475 C1473 1.419 . S
C1475 C1476 1.363 . S
C1475 H1478 0.929 . S
C1476 C1475 1.363 . S
C1476 C1482 1.428 . S
H1477 C1473 0.930 . S
H1478 C1475 0.929 . S
S1479 N1480 1.613 . S
S1479 N1481 1.610 . S
N1480 S1479 1.613 . S
N1480 C1483 1.350 . S
N1481 S1479 1.610 . S
N1481 C1482 1.351 . S
C1482 C1476 1.428 . S
C1482 N1481 1.351 . S
C1482 C1483 1.434 . S
C1483 C1474 1.429 . S
C1483 N1480 1.350 . S
C1483 C1482 1.434 . S
C1484 C1485 1.369 . S
C1484 C1486 1.419 . S
C1484 H1488 0.930 . S
C1485 C1484 1.369 . S
C1485 C1494 1.429 . S
C1486 C1484 1.419 . S
C1486 C1487 1.363 . S
C1486 H1489 0.929 . S
C1487 C1486 1.363 . S
C1487 C1493 1.428 . S
H1488 C1484 0.930 . S
H1489 C1486 0.929 . S
S1490 N1491 1.613 . S
S1490 N1492 1.610 . S
N1491 S1490 1.613 . S
N1491 C1494 1.350 . S
N1492 S1490 1.610 . S
N1492 C1493 1.351 . S
C1493 C1487 1.428 . S
C1493 N1492 1.351 . S
C1493 C1494 1.434 . S
C1494 C1485 1.429 . S
C1494 N1491 1.350 . S
C1494 C1493 1.434 . S
C1495 C1496 1.369 . S
C1495 C1497 1.419 . S
C1495 H1499 0.930 . S
C1496 C1495 1.369 . S
C1496 C1505 1.429 . S
C1497 C1495 1.419 . S
C1497 C1498 1.363 . S
C1497 H1500 0.929 . S
C1498 C1497 1.363 . S
C1498 C1504 1.428 . S
H1499 C1495 0.930 . S
H1500 C1497 0.929 . S
S1501 N1502 1.613 . S
S1501 N1503 1.610 . S
N1502 S1501 1.613 . S
N1502 C1505 1.350 . S
N1503 S1501 1.610 . S
N1503 C1504 1.351 . S
C1504 C1498 1.428 . S
C1504 N1503 1.351 . S
C1504 C1505 1.434 . S
C1505 C1496 1.429 . S
C1505 N1502 1.350 . S
C1505 C1504 1.434 . S
C1506 C1507 1.369 . S
C1506 C1508 1.419 . S
C1506 H1510 0.930 . S
C1507 C1506 1.369 . S
C1507 C1516 1.429 . S
C1508 C1506 1.419 . S
C1508 C1509 1.363 . S
C1508 H1511 0.929 . S
C1509 C1508 1.363 . S
C1509 C1515 1.428 . S
H1510 C1506 0.930 . S
H1511 C1508 0.929 . S
S1512 N1513 1.613 . S
S1512 N1514 1.610 . S
N1513 S1512 1.613 . S
N1513 C1516 1.350 . S
N1514 S1512 1.610 . S
N1514 C1515 1.351 . S
C1515 C1509 1.428 . S
C1515 N1514 1.351 . S
C1515 C1516 1.434 . S
C1516 C1507 1.429 . S
C1516 N1513 1.350 . S
C1516 C1515 1.434 . S
C1517 C1518 1.369 . S
C1517 C1519 1.419 . S
C1517 H1521 0.930 . S
C1518 C1517 1.369 . S
C1518 C1527 1.429 . S
C1519 C1517 1.419 . S
C1519 C1520 1.363 . S
C1519 H1522 0.929 . S
C1520 C1519 1.363 . S
C1520 C1526 1.428 . S
H1521 C1517 0.930 . S
H1522 C1519 0.929 . S
S1523 N1524 1.613 . S
S1523 N1525 1.610 . S
N1524 S1523 1.613 . S
N1524 C1527 1.350 . S
N1525 S1523 1.610 . S
N1525 C1526 1.351 . S
C1526 C1520 1.428 . S
C1526 N1525 1.351 . S
C1526 C1527 1.434 . S
C1527 C1518 1.429 . S
C1527 N1524 1.350 . S
C1527 C1526 1.434 . S
C1528 C1529 1.369 . S
C1528 C1530 1.419 . S
C1528 H1532 0.930 . S
C1529 C1528 1.369 . S
C1529 C1538 1.429 . S
C1530 C1528 1.419 . S
C1530 C1531 1.363 . S
C1530 H1533 0.929 . S
C1531 C1530 1.363 . S
C1531 C1537 1.428 . S
H1532 C1528 0.930 . S
H1533 C1530 0.929 . S
S1534 N1535 1.613 1_455 S
S1534 N1536 1.610 . S
N1535 S1534 1.613 1_655 S
N1535 C1538 1.350 1_655 S
N1536 S1534 1.610 . S
N1536 C1537 1.351 . S
C1537 C1531 1.428 . S
C1537 N1536 1.351 . S
C1537 C1538 1.434 . S
C1538 C1529 1.429 . S
C1538 N1535 1.350 1_455 S
C1538 C1537 1.434 . S
C1539 C1540 1.369 . S
C1539 C1541 1.419 . S
C1539 H1543 0.930 . S
C1540 C1539 1.369 . S
C1540 C1549 1.429 . S
C1541 C1539 1.419 . S
C1541 C1542 1.363 . S
C1541 H1544 0.929 . S
C1542 C1541 1.363 . S
C1542 C1548 1.428 . S
H1543 C1539 0.930 . S
H1544 C1541 0.929 . S
S1545 N1546 1.613 . S
S1545 N1547 1.610 . S
N1546 S1545 1.613 . S
N1546 C1549 1.350 . S
N1547 S1545 1.610 . S
N1547 C1548 1.351 . S
C1548 C1542 1.428 . S
C1548 N1547 1.351 . S
C1548 C1549 1.434 . S
C1549 C1540 1.429 . S
C1549 N1546 1.350 . S
C1549 C1548 1.434 . S
C1550 C1551 1.369 . S
C1550 C1552 1.419 . S
C1550 H1554 0.930 . S
C1551 C1550 1.369 . S
C1551 C1560 1.429 . S
C1552 C1550 1.419 . S
C1552 C1553 1.363 . S
C1552 H1555 0.929 . S
C1553 C1552 1.363 . S
C1553 C1559 1.428 . S
H1554 C1550 0.930 . S
H1555 C1552 0.929 . S
S1556 N1557 1.613 . S
S1556 N1558 1.610 . S
N1557 S1556 1.613 . S
N1557 C1560 1.350 . S
N1558 S1556 1.610 . S
N1558 C1559 1.351 . S
C1559 C1553 1.428 . S
C1559 N1558 1.351 . S
C1559 C1560 1.434 . S
C1560 C1551 1.429 . S
C1560 N1557 1.350 . S
C1560 C1559 1.434 . S
C1561 C1562 1.369 . S
C1561 C1563 1.419 . S
C1561 H1565 0.930 . S
C1562 C1561 1.369 . S
C1562 C1571 1.429 . S
C1563 C1561 1.419 . S
C1563 C1564 1.363 . S
C1563 H1566 0.929 . S
C1564 C1563 1.363 . S
C1564 C1570 1.428 . S
H1565 C1561 0.930 . S
H1566 C1563 0.929 . S
S1567 N1568 1.618 . S
S1567 N1569 1.612 1_655 S
N1568 S1567 1.618 . S
N1568 C1571 1.350 . S
N1569 S1567 1.612 1_455 S
N1569 C1570 1.351 1_455 S
C1570 C1564 1.428 . S
C1570 N1569 1.351 1_655 S
C1570 C1571 1.434 . S
C1571 C1562 1.429 . S
C1571 N1568 1.350 . S
C1571 C1570 1.434 . S
C1572 C1573 1.369 . S
C1572 C1574 1.419 . S
C1572 H1576 0.930 . S
C1573 C1572 1.369 . S
C1573 C1582 1.429 . S
C1574 C1572 1.419 . S
C1574 C1575 1.363 . S
C1574 H1577 0.929 . S
C1575 C1574 1.363 . S
C1575 C1581 1.428 . S
H1576 C1572 0.930 . S
H1577 C1574 0.929 . S
S1578 N1579 1.613 . S
S1578 N1580 1.610 . S
N1579 S1578 1.613 . S
N1579 C1582 1.350 . S
N1580 S1578 1.610 . S
N1580 C1581 1.351 . S
C1581 C1575 1.428 . S
C1581 N1580 1.351 . S
C1581 C1582 1.434 . S
C1582 C1573 1.429 . S
C1582 N1579 1.350 . S
C1582 C1581 1.434 . S
C1583 C1584 1.369 . S
C1583 C1585 1.419 . S
C1583 H1587 0.930 . S
C1584 C1583 1.369 . S
C1584 C1593 1.429 . S
C1585 C1583 1.419 . S
C1585 C1586 1.363 . S
C1585 H1588 0.929 . S
C1586 C1585 1.363 . S
C1586 C1592 1.428 . S
H1587 C1583 0.930 . S
H1588 C1585 0.929 . S
S1589 N1590 1.613 . S
S1589 N1591 1.610 . S
N1590 S1589 1.613 . S
N1590 C1593 1.350 . S
N1591 S1589 1.610 . S
N1591 C1592 1.351 . S
C1592 C1586 1.428 . S
C1592 N1591 1.351 . S
C1592 C1593 1.434 . S
C1593 C1584 1.429 . S
C1593 N1590 1.350 . S
C1593 C1592 1.434 . S
C1594 C1595 1.369 . S
C1594 C1596 1.419 . S
C1594 H1598 0.930 . S
C1595 C1594 1.369 . S
C1595 C1604 1.429 . S
C1596 C1594 1.419 . S
C1596 C1597 1.363 . S
C1596 H1599 0.929 . S
C1597 C1596 1.363 . S
C1597 C1603 1.428 . S
H1598 C1594 0.930 . S
H1599 C1596 0.929 . S
S1600 N1601 1.613 . S
S1600 N1602 1.610 . S
N1601 S1600 1.613 . S
N1601 C1604 1.350 . S
N1602 S1600 1.610 . S
N1602 C1603 1.351 . S
C1603 C1597 1.428 . S
C1603 N1602 1.351 . S
C1603 C1604 1.434 . S
C1604 C1595 1.429 . S
C1604 N1601 1.350 . S
C1604 C1603 1.434 . S
C1605 C1606 1.369 . S
C1605 C1607 1.419 . S
C1605 H1609 0.930 . S
C1606 C1605 1.369 . S
C1606 C1615 1.429 . S
C1607 C1605 1.419 . S
C1607 C1608 1.363 . S
C1607 H1610 0.929 . S
C1608 C1607 1.363 . S
C1608 C1614 1.428 . S
H1609 C1605 0.930 . S
H1610 C1607 0.929 . S
S1611 N1612 1.613 . S
S1611 N1613 1.610 . S
N1612 S1611 1.613 . S
N1612 C1615 1.350 . S
N1613 S1611 1.610 . S
N1613 C1614 1.351 . S
C1614 C1608 1.428 . S
C1614 N1613 1.351 . S
C1614 C1615 1.434 . S
C1615 C1606 1.429 . S
C1615 N1612 1.350 . S
C1615 C1614 1.434 . S
C1616 C1617 1.369 . S
C1616 C1618 1.419 . S
C1616 H1620 0.930 . S
C1617 C1616 1.369 . S
C1617 C1626 1.429 . S
C1618 C1616 1.419 . S
C1618 C1619 1.363 . S
C1618 H1621 0.929 . S
C1619 C1618 1.363 . S
C1619 C1625 1.428 . S
H1620 C1616 0.930 . S
H1621 C1618 0.929 . S
S1622 N1623 1.613 . S
S1622 N1624 1.610 . S
N1623 S1622 1.613 . S
N1623 C1626 1.350 . S
N1624 S1622 1.610 . S
N1624 C1625 1.351 . S
C1625 C1619 1.428 . S
C1625 N1624 1.351 . S
C1625 C1626 1.434 . S
C1626 C1617 1.429 . S
C1626 N1623 1.350 . S
C1626 C1625 1.434 . S
C1627 C1628 1.369 . S
C1627 C1629 1.419 . S
C1627 H1631 0.930 . S
C1628 C1627 1.369 . S
C1628 C1637 1.429 . S
C1629 C1627 1.419 . S
C1629 C1630 1.363 . S
C1629 H1632 0.929 . S
C1630 C1629 1.363 . S
C1630 C1636 1.428 . S
H1631 C1627 0.930 . S
H1632 C1629 0.929 . S
S1633 N1634 1.613 . S
S1633 N1635 1.610 . S
N1634 S1633 1.613 . S
N1634 C1637 1.350 . S
N1635 S1633 1.610 . S
N1635 C1636 1.351 . S
C1636 C1630 1.428 . S
C1636 N1635 1.351 . S
C1636 C1637 1.434 . S
C1637 C1628 1.429 . S
C1637 N1634 1.350 . S
C1637 C1636 1.434 . S
C1638 C1639 1.369 . S
C1638 C1640 1.419 . S
C1638 H1642 0.930 . S
C1639 C1638 1.369 . S
C1639 C1648 1.429 . S
C1640 C1638 1.419 . S
C1640 C1641 1.363 . S
C1640 H1643 0.929 . S
C1641 C1640 1.363 . S
C1641 C1647 1.428 . S
H1642 C1638 0.930 . S
H1643 C1640 0.929 . S
S1644 N1645 1.613 . S
S1644 N1646 1.610 . S
N1645 S1644 1.613 . S
N1645 C1648 1.350 . S
N1646 S1644 1.610 . S
N1646 C1647 1.351 . S
C1647 C1641 1.428 . S
C1647 N1646 1.351 . S
C1647 C1648 1.434 . S
C1648 C1639 1.429 . S
C1648 N1645 1.350 . S
C1648 C1647 1.434 . S
C1649 C1650 1.369 . S
C1649 C1651 1.419 . S
C1649 H1653 0.930 . S
C1650 C1649 1.369 . S
C1650 C1659 1.429 . S
C1651 C1649 1.419 . S
C1651 C1652 1.363 . S
C1651 H1654 0.929 . S
C1652 C1651 1.363 . S
C1652 C1658 1.428 . S
H1653 C1649 0.930 . S
H1654 C1651 0.929 . S
S1655 N1656 1.613 . S
S1655 N1657 1.610 . S
N1656 S1655 1.613 . S
N1656 C1659 1.350 . S
N1657 S1655 1.610 . S
N1657 C1658 1.351 . S
C1658 C1652 1.428 . S
C1658 N1657 1.351 . S
C1658 C1659 1.434 . S
C1659 C1650 1.429 . S
C1659 N1656 1.350 . S
C1659 C1658 1.434 . S
C1660 C1661 1.369 . S
C1660 C1662 1.419 . S
C1660 H1664 0.930 . S
C1661 C1660 1.369 . S
C1661 C1670 1.429 . S
C1662 C1660 1.419 . S
C1662 C1663 1.363 . S
C1662 H1665 0.929 . S
C1663 C1662 1.363 . S
C1663 C1669 1.428 . S
H1664 C1660 0.930 . S
H1665 C1662 0.929 . S
S1666 N1667 1.613 . S
S1666 N1668 1.610 . S
N1667 S1666 1.613 . S
N1667 C1670 1.350 . S
N1668 S1666 1.610 . S
N1668 C1669 1.351 . S
C1669 C1663 1.428 . S
C1669 N1668 1.351 . S
C1669 C1670 1.434 . S
C1670 C1661 1.429 . S
C1670 N1667 1.350 . S
C1670 C1669 1.434 . S
C1671 C1672 1.369 . S
C1671 C1673 1.419 . S
C1671 H1675 0.930 . S
C1672 C1671 1.369 . S
C1672 C1681 1.415 1_554 S
C1673 C1671 1.419 . S
C1673 C1674 1.363 . S
C1673 H1676 0.929 . S
C1674 C1673 1.363 . S
C1674 C1680 1.428 1_554 S
H1675 C1671 0.930 . S
H1676 C1673 0.929 . S
S1677 N1678 1.613 . S
S1677 N1679 1.610 . S
N1678 S1677 1.613 . S
N1678 C1681 1.361 . S
N1679 S1677 1.610 . S
N1679 C1680 1.351 . S
C1680 C1674 1.428 1_556 S
C1680 N1679 1.351 . S
C1680 C1681 1.438 . S
C1681 C1672 1.415 1_556 S
C1681 N1678 1.361 . S
C1681 C1680 1.438 . S
C1682 C1683 1.369 . S
C1682 C1684 1.419 . S
C1682 H1686 0.930 . S
C1683 C1682 1.369 . S
C1683 C1692 1.429 1_554 S
C1684 C1682 1.419 . S
C1684 C1685 1.363 . S
C1684 H1687 0.929 . S
C1685 C1684 1.363 . S
C1685 C1691 1.428 1_554 S
H1686 C1682 0.930 . S
H1687 C1684 0.929 . S
S1688 N1689 1.613 . S
S1688 N1690 1.610 . S
N1689 S1688 1.613 . S
N1689 C1692 1.350 . S
N1690 S1688 1.610 . S
N1690 C1691 1.351 . S
C1691 C1685 1.428 1_556 S
C1691 N1690 1.351 . S
C1691 C1692 1.434 . S
C1692 C1683 1.429 1_556 S
C1692 N1689 1.350 . S
C1692 C1691 1.434 . S
C1693 C1694 1.369 1_556 S
C1693 C1695 1.419 . S
C1693 H1697 0.930 . S
C1694 C1693 1.369 1_554 S
C1694 C1703 1.429 . S
C1695 C1693 1.419 . S
C1695 C1696 1.363 1_556 S
C1695 H1698 0.929 . S
C1696 C1695 1.363 1_554 S
C1696 C1702 1.428 . S
H1697 C1693 0.930 . S
H1698 C1695 0.929 . S
S1699 N1700 1.613 . S
S1699 N1701 1.610 . S
N1700 S1699 1.613 . S
N1700 C1703 1.350 . S
N1701 S1699 1.610 . S
N1701 C1702 1.351 . S
C1702 C1696 1.428 . S
C1702 N1701 1.351 . S
C1702 C1703 1.434 . S
C1703 C1694 1.429 . S
C1703 N1700 1.350 . S
C1703 C1702 1.434 . S
C1704 C1705 1.369 . S
C1704 C1706 1.419 . S
C1704 H1708 0.930 . S
C1705 C1704 1.369 . S
C1705 C1714 1.429 . S
C1706 C1704 1.419 . S
C1706 C1707 1.363 . S
C1706 H1709 0.929 . S
C1707 C1706 1.363 . S
C1707 C1713 1.428 . S
H1708 C1704 0.930 . S
H1709 C1706 0.929 . S
S1710 N1711 1.613 . S
S1710 N1712 1.610 . S
N1711 S1710 1.613 . S
N1711 C1714 1.350 . S
N1712 S1710 1.610 . S
N1712 C1713 1.351 . S
C1713 C1707 1.428 . S
C1713 N1712 1.351 . S
C1713 C1714 1.434 . S
C1714 C1705 1.429 . S
C1714 N1711 1.350 . S
C1714 C1713 1.434 . S
C1715 C1716 1.369 . S
C1715 C1717 1.419 . S
C1715 H1719 0.930 . S
C1716 C1715 1.369 . S
C1716 C1725 1.429 . S
C1717 C1715 1.419 . S
C1717 C1718 1.363 . S
C1717 H1720 0.929 . S
C1718 C1717 1.363 . S
C1718 C1724 1.428 . S
H1719 C1715 0.930 . S
H1720 C1717 0.929 . S
S1721 N1722 1.613 . S
S1721 N1723 1.610 . S
N1722 S1721 1.613 . S
N1722 C1725 1.350 . S
N1723 S1721 1.610 . S
N1723 C1724 1.351 . S
C1724 C1718 1.428 . S
C1724 N1723 1.351 . S
C1724 C1725 1.434 . S
C1725 C1716 1.429 . S
C1725 N1722 1.350 . S
C1725 C1724 1.434 . S
C1726 C1727 1.369 . S
C1726 C1728 1.419 . S
C1726 H1730 0.930 . S
C1727 C1726 1.369 . S
C1727 C1736 1.429 . S
C1728 C1726 1.419 . S
C1728 C1729 1.363 . S
C1728 H1731 0.929 . S
C1729 C1728 1.363 . S
C1729 C1735 1.428 . S
H1730 C1726 0.930 . S
H1731 C1728 0.929 . S
S1732 N1733 1.613 . S
S1732 N1734 1.610 . S
N1733 S1732 1.613 . S
N1733 C1736 1.350 . S
N1734 S1732 1.610 . S
N1734 C1735 1.351 . S
C1735 C1729 1.428 . S
C1735 N1734 1.351 . S
C1735 C1736 1.434 . S
C1736 C1727 1.429 . S
C1736 N1733 1.350 . S
C1736 C1735 1.434 . S
C1737 C1738 1.369 1_554 S
C1737 C1739 1.419 . S
C1737 H1741 0.930 . S
C1738 C1737 1.369 1_556 S
C1738 C1747 1.429 . S
C1739 C1737 1.419 . S
C1739 C1740 1.363 1_554 S
C1739 H1742 0.929 . S
C1740 C1739 1.363 1_556 S
C1740 C1746 1.428 . S
H1741 C1737 0.930 . S
H1742 C1739 0.929 . S
S1743 N1744 1.613 . S
S1743 N1745 1.610 . S
N1744 S1743 1.613 . S
N1744 C1747 1.350 . S
N1745 S1743 1.610 . S
N1745 C1746 1.351 . S
C1746 C1740 1.428 . S
C1746 N1745 1.351 . S
C1746 C1747 1.434 . S
C1747 C1738 1.429 . S
C1747 N1744 1.350 . S
C1747 C1746 1.434 . S
C1748 C1749 1.360 1_554 S
C1748 C1750 1.414 1_554 S
C1748 H1752 0.945 . S
C1749 C1748 1.360 1_556 S
C1749 C1758 1.429 . S
C1750 C1748 1.414 1_556 S
C1750 C1751 1.380 . S
C1750 H1753 0.918 1_556 S
C1751 C1750 1.380 . S
C1751 C1757 1.428 . S
H1752 C1748 0.945 . S
H1753 C1750 0.918 1_554 S
S1754 N1755 1.613 . S
S1754 N1756 1.610 . S
N1755 S1754 1.613 . S
N1755 C1758 1.350 . S
N1756 S1754 1.610 . S
N1756 C1757 1.351 . S
C1757 C1751 1.428 . S
C1757 N1756 1.351 . S
C1757 C1758 1.434 . S
C1758 C1749 1.429 . S
C1758 N1755 1.350 . S
C1758 C1757 1.434 . S
C1759 C1760 1.369 1_554 S
C1759 C1761 1.419 . S
C1759 H1763 0.930 . S
C1760 C1759 1.369 1_556 S
C1760 C1769 1.429 . S
C1761 C1759 1.419 . S
C1761 C1762 1.363 1_554 S
C1761 H1764 0.929 . S
C1762 C1761 1.363 1_556 S
C1762 C1768 1.428 . S
H1763 C1759 0.930 . S
H1764 C1761 0.929 . S
S1765 N1766 1.613 . S
S1765 N1767 1.610 . S
N1766 S1765 1.613 . S
N1766 C1769 1.350 . S
N1767 S1765 1.610 . S
N1767 C1768 1.351 . S
C1768 C1762 1.428 . S
C1768 N1767 1.351 . S
C1768 C1769 1.434 . S
C1769 C1760 1.429 . S
C1769 N1766 1.350 . S
C1769 C1768 1.434 . S
C1770 C1771 1.369 . S
C1770 C1772 1.419 . S
C1770 H1774 0.930 . S
C1771 C1770 1.369 . S
C1771 C1780 1.429 . S
C1772 C1770 1.419 . S
C1772 C1773 1.363 . S
C1772 H1775 0.929 . S
C1773 C1772 1.363 . S
C1773 C1779 1.428 . S
H1774 C1770 0.930 . S
H1775 C1772 0.929 . S
S1776 N1777 1.613 . S
S1776 N1778 1.610 . S
N1777 S1776 1.613 . S
N1777 C1780 1.350 . S
N1778 S1776 1.610 . S
N1778 C1779 1.351 . S
C1779 C1773 1.428 . S
C1779 N1778 1.351 . S
C1779 C1780 1.434 . S
C1780 C1771 1.429 . S
C1780 N1777 1.350 . S
C1780 C1779 1.434 . S
C1781 C1782 1.369 . S
C1781 C1783 1.419 . S
C1781 H1785 0.930 . S
C1782 C1781 1.369 . S
C1782 C1791 1.429 . S
C1783 C1781 1.419 . S
C1783 C1784 1.363 . S
C1783 H1786 0.929 . S
C1784 C1783 1.363 . S
C1784 C1790 1.428 . S
H1785 C1781 0.930 . S
H1786 C1783 0.929 . S
S1787 N1788 1.613 . S
S1787 N1789 1.610 . S
N1788 S1787 1.613 . S
N1788 C1791 1.350 . S
N1789 S1787 1.610 . S
N1789 C1790 1.351 . S
C1790 C1784 1.428 . S
C1790 N1789 1.351 . S
C1790 C1791 1.434 . S
C1791 C1782 1.429 . S
C1791 N1788 1.350 . S
C1791 C1790 1.434 . S
C1792 C1793 1.369 . S
C1792 C1794 1.419 . S
C1792 H1796 0.930 . S
C1793 C1792 1.369 . S
C1793 C1802 1.429 . S
C1794 C1792 1.419 . S
C1794 C1795 1.363 . S
C1794 H1797 0.929 . S
C1795 C1794 1.363 . S
C1795 C1801 1.428 . S
H1796 C1792 0.930 . S
H1797 C1794 0.929 . S
S1798 N1799 1.613 . S
S1798 N1800 1.610 . S
N1799 S1798 1.613 . S
N1799 C1802 1.350 . S
N1800 S1798 1.610 . S
N1800 C1801 1.351 . S
C1801 C1795 1.428 . S
C1801 N1800 1.351 . S
C1801 C1802 1.434 . S
C1802 C1793 1.429 . S
C1802 N1799 1.350 . S
C1802 C1801 1.434 . S
C1803 C1804 1.369 . S
C1803 C1805 1.419 . S
C1803 H1807 0.930 . S
C1804 C1803 1.369 . S
C1804 C1813 1.429 . S
C1805 C1803 1.419 . S
C1805 C1806 1.363 . S
C1805 H1808 0.929 . S
C1806 C1805 1.363 . S
C1806 C1812 1.428 . S
H1807 C1803 0.930 . S
H1808 C1805 0.929 . S
S1809 N1810 1.613 . S
S1809 N1811 1.610 . S
N1810 S1809 1.613 . S
N1810 C1813 1.350 . S
N1811 S1809 1.610 . S
N1811 C1812 1.351 . S
C1812 C1806 1.428 . S
C1812 N1811 1.351 . S
C1812 C1813 1.434 . S
C1813 C1804 1.429 . S
C1813 N1810 1.350 . S
C1813 C1812 1.434 . S
C1814 C1815 1.369 . S
C1814 C1816 1.419 . S
C1814 H1818 0.930 . S
C1815 C1814 1.369 . S
C1815 C1824 1.429 . S
C1816 C1814 1.419 . S
C1816 C1817 1.363 . S
C1816 H1819 0.929 . S
C1817 C1816 1.363 . S
C1817 C1823 1.428 . S
H1818 C1814 0.930 . S
H1819 C1816 0.929 . S
S1820 N1821 1.613 . S
S1820 N1822 1.610 . S
N1821 S1820 1.613 . S
N1821 C1824 1.350 . S
N1822 S1820 1.610 . S
N1822 C1823 1.351 . S
C1823 C1817 1.428 . S
C1823 N1822 1.351 . S
C1823 C1824 1.434 . S
C1824 C1815 1.429 . S
C1824 N1821 1.350 . S
C1824 C1823 1.434 . S
C1825 C1826 1.369 . S
C1825 C1827 1.419 . S
C1825 H1829 0.930 . S
C1826 C1825 1.369 . S
C1826 C1835 1.429 . S
C1827 C1825 1.419 . S
C1827 C1828 1.363 . S
C1827 H1830 0.929 . S
C1828 C1827 1.363 . S
C1828 C1834 1.428 . S
H1829 C1825 0.930 . S
H1830 C1827 0.929 . S
S1831 N1832 1.613 . S
S1831 N1833 1.610 . S
N1832 S1831 1.613 . S
N1832 C1835 1.350 . S
N1833 S1831 1.610 . S
N1833 C1834 1.351 . S
C1834 C1828 1.428 . S
C1834 N1833 1.351 . S
C1834 C1835 1.434 . S
C1835 C1826 1.429 . S
C1835 N1832 1.350 . S
C1835 C1834 1.434 . S
C1836 C1837 1.369 . S
C1836 C1838 1.419 . S
C1836 H1840 0.930 . S
C1837 C1836 1.369 . S
C1837 C1846 1.429 . S
C1838 C1836 1.419 . S
C1838 C1839 1.363 . S
C1838 H1841 0.929 . S
C1839 C1838 1.363 . S
C1839 C1845 1.428 . S
H1840 C1836 0.930 . S
H1841 C1838 0.929 . S
S1842 N1843 1.613 . S
S1842 N1844 1.610 . S
N1843 S1842 1.613 . S
N1843 C1846 1.350 . S
N1844 S1842 1.610 . S
N1844 C1845 1.351 . S
C1845 C1839 1.428 . S
C1845 N1844 1.351 . S
C1845 C1846 1.434 . S
C1846 C1837 1.429 . S
C1846 N1843 1.350 . S
C1846 C1845 1.434 . S
C1847 C1848 1.369 1_545 S
C1847 C1849 1.419 . S
C1847 H1851 0.930 . S
C1848 C1847 1.369 1_565 S
C1848 C1857 1.429 . S
C1849 C1847 1.419 . S
C1849 C1850 1.363 1_545 S
C1849 H1852 0.929 . S
C1850 C1849 1.363 1_565 S
C1850 C1856 1.428 . S
H1851 C1847 0.930 . S
H1852 C1849 0.929 . S
S1853 N1854 1.613 . S
S1853 N1855 1.610 . S
N1854 S1853 1.613 . S
N1854 C1857 1.350 . S
N1855 S1853 1.610 . S
N1855 C1856 1.351 . S
C1856 C1850 1.428 . S
C1856 N1855 1.351 . S
C1856 C1857 1.434 . S
C1857 C1848 1.429 . S
C1857 N1854 1.350 . S
C1857 C1856 1.434 . S
C1858 C1859 1.369 . S
C1858 C1860 1.419 1_455 S
C1858 H1862 0.930 1_455 S
C1859 C1858 1.369 . S
C1859 C1868 1.429 . S
C1860 C1858 1.419 1_655 S
C1860 C1861 1.363 1_655 S
C1860 H1863 0.929 . S
C1861 C1860 1.363 1_455 S
C1861 C1867 1.428 . S
H1862 C1858 0.930 1_655 S
H1863 C1860 0.929 . S
S1864 N1865 1.613 . S
S1864 N1866 1.610 . S
N1865 S1864 1.613 . S
N1865 C1868 1.350 . S
N1866 S1864 1.610 . S
N1866 C1867 1.351 . S
C1867 C1861 1.428 . S
C1867 N1866 1.351 . S
C1867 C1868 1.434 . S
C1868 C1859 1.429 . S
C1868 N1865 1.350 . S
C1868 C1867 1.434 . S
C1869 C1870 1.369 . S
C1869 C1871 1.419 . S
C1869 H1873 0.930 . S
C1870 C1869 1.369 . S
C1870 C1879 1.429 . S
C1871 C1869 1.419 . S
C1871 C1872 1.363 . S
C1871 H1874 0.929 . S
C1872 C1871 1.363 . S
C1872 C1878 1.428 . S
H1873 C1869 0.930 . S
H1874 C1871 0.929 . S
S1875 N1876 1.613 . S
S1875 N1877 1.610 . S
N1876 S1875 1.613 . S
N1876 C1879 1.350 . S
N1877 S1875 1.610 . S
N1877 C1878 1.351 . S
C1878 C1872 1.428 . S
C1878 N1877 1.351 . S
C1878 C1879 1.434 . S
C1879 C1870 1.429 . S
C1879 N1876 1.350 . S
C1879 C1878 1.434 . S
C1880 C1881 1.369 . S
C1880 C1882 1.419 . S
C1880 H1884 0.930 . S
C1881 C1880 1.369 . S
C1881 C1890 1.429 1_545 S
C1882 C1880 1.419 . S
C1882 C1883 1.363 . S
C1882 H1885 0.929 . S
C1883 C1882 1.363 . S
C1883 C1889 1.412 1_545 S
H1884 C1880 0.930 . S
H1885 C1882 0.929 . S
S1886 N1887 1.613 . S
S1886 N1888 1.610 . S
N1887 S1886 1.613 . S
N1887 C1890 1.350 . S
N1888 S1886 1.610 . S
N1888 C1889 1.373 . S
C1889 C1883 1.412 1_565 S
C1889 N1888 1.373 . S
C1889 C1890 1.430 . S
C1890 C1881 1.429 1_565 S
C1890 N1887 1.350 . S
C1890 C1889 1.430 . S
C1891 C1892 1.369 . S
C1891 C1893 1.419 1_655 S
C1891 H1895 0.931 1_655 S
C1892 C1891 1.369 . S
C1892 C1901 1.429 . S
C1893 C1891 1.419 1_455 S
C1893 C1894 1.363 1_455 S
C1893 H1896 0.929 . S
C1894 C1893 1.363 1_655 S
C1894 C1900 1.428 . S
H1895 C1891 0.931 1_455 S
H1896 C1893 0.929 . S
S1897 N1898 1.613 . S
S1897 N1899 1.610 . S
N1898 S1897 1.613 . S
N1898 C1901 1.350 . S
N1899 S1897 1.610 . S
N1899 C1900 1.351 . S
C1900 C1894 1.428 . S
C1900 N1899 1.351 . S
C1900 C1901 1.434 . S
C1901 C1892 1.429 . S
C1901 N1898 1.350 . S
C1901 C1900 1.434 . S
C1902 C1903 1.369 . S
C1902 C1904 1.419 . S
C1902 H1906 0.930 . S
C1903 C1902 1.369 . S
C1903 C1912 1.429 . S
C1904 C1902 1.419 . S
C1904 C1905 1.363 . S
C1904 H1907 0.929 . S
C1905 C1904 1.363 . S
C1905 C1911 1.428 . S
H1906 C1902 0.930 . S
H1907 C1904 0.929 . S
S1908 N1909 1.613 . S
S1908 N1910 1.610 . S
N1909 S1908 1.613 . S
N1909 C1912 1.350 . S
N1910 S1908 1.610 . S
N1910 C1911 1.351 . S
C1911 C1905 1.428 . S
C1911 N1910 1.351 . S
C1911 C1912 1.434 . S
C1912 C1903 1.429 . S
C1912 N1909 1.350 . S
C1912 C1911 1.434 . S
C1913 C1914 1.369 . S
C1913 C1915 1.419 . S
C1913 H1917 0.930 . S
C1914 C1913 1.369 . S
C1914 C1923 1.429 . S
C1915 C1913 1.419 . S
C1915 C1916 1.363 . S
C1915 H1918 0.929 . S
C1916 C1915 1.363 . S
C1916 C1922 1.428 . S
H1917 C1913 0.930 . S
H1918 C1915 0.929 . S
S1919 N1920 1.613 . S
S1919 N1921 1.610 1_545 S
N1920 S1919 1.613 . S
N1920 C1923 1.350 . S
N1921 S1919 1.610 1_565 S
N1921 C1922 1.351 1_565 S
C1922 C1916 1.428 . S
C1922 N1921 1.351 1_545 S
C1922 C1923 1.434 . S
C1923 C1914 1.429 . S
C1923 N1920 1.350 . S
C1923 C1922 1.434 . S
C1924 C1925 1.369 . S
C1924 C1926 1.419 . S
C1924 H1928 0.930 . S
C1925 C1924 1.369 . S
C1925 C1934 1.429 . S
C1926 C1924 1.419 . S
C1926 C1927 1.363 . S
C1926 H1929 0.929 . S
C1927 C1926 1.363 . S
C1927 C1933 1.428 . S
H1928 C1924 0.930 . S
H1929 C1926 0.929 . S
S1930 N1931 1.613 . S
S1930 N1932 1.610 . S
N1931 S1930 1.613 . S
N1931 C1934 1.350 . S
N1932 S1930 1.610 . S
N1932 C1933 1.351 . S
C1933 C1927 1.428 . S
C1933 N1932 1.351 . S
C1933 C1934 1.434 . S
C1934 C1925 1.429 . S
C1934 N1931 1.350 . S
C1934 C1933 1.434 . S
C1935 C1936 1.369 . S
C1935 C1937 1.419 . S
C1935 H1939 0.930 . S
C1936 C1935 1.369 . S
C1936 C1945 1.429 . S
C1937 C1935 1.419 . S
C1937 C1938 1.363 . S
C1937 H1940 0.929 . S
C1938 C1937 1.363 . S
C1938 C1944 1.428 . S
H1939 C1935 0.930 . S
H1940 C1937 0.929 . S
S1941 N1942 1.613 . S
S1941 N1943 1.610 . S
N1942 S1941 1.613 . S
N1942 C1945 1.350 . S
N1943 S1941 1.610 . S
N1943 C1944 1.351 . S
C1944 C1938 1.428 . S
C1944 N1943 1.351 . S
C1944 C1945 1.434 . S
C1945 C1936 1.429 . S
C1945 N1942 1.350 . S
C1945 C1944 1.434 . S
C1946 C1947 1.369 . S
C1946 C1948 1.419 . S
C1946 H1950 0.930 . S
C1947 C1946 1.369 . S
C1947 C1956 1.429 1_565 S
C1948 C1946 1.419 . S
C1948 C1949 1.363 . S
C1948 H1951 0.929 . S
C1949 C1948 1.363 . S
C1949 C1955 1.428 1_565 S
H1950 C1946 0.930 . S
H1951 C1948 0.929 . S
S1952 N1953 1.613 . S
S1952 N1954 1.610 . S
N1953 S1952 1.613 . S
N1953 C1956 1.350 . S
N1954 S1952 1.610 . S
N1954 C1955 1.351 . S
C1955 C1949 1.428 1_545 S
C1955 N1954 1.351 . S
C1955 C1956 1.434 . S
C1956 C1947 1.429 1_545 S
C1956 N1953 1.350 . S
C1956 C1955 1.434 . S
C1957 C1958 1.369 . S
C1957 C1959 1.419 . S
C1957 H1961 0.930 . S
C1958 C1957 1.369 . S
C1958 C1967 1.429 . S
C1959 C1957 1.419 . S
C1959 C1960 1.363 . S
C1959 H1962 0.929 . S
C1960 C1959 1.363 . S
C1960 C1966 1.428 . S
H1961 C1957 0.930 . S
H1962 C1959 0.929 . S
S1963 N1964 1.613 . S
S1963 N1965 1.610 . S
N1964 S1963 1.613 . S
N1964 C1967 1.350 . S
N1965 S1963 1.610 . S
N1965 C1966 1.351 . S
C1966 C1960 1.428 . S
C1966 N1965 1.351 . S
C1966 C1967 1.434 . S
C1967 C1958 1.429 . S
C1967 N1964 1.350 . S
C1967 C1966 1.434 . S
C1968 C1969 1.369 . S
C1968 C1970 1.419 1_655 S
C1968 H1972 0.930 . S
C1969 C1968 1.369 . S
C1969 C1978 1.429 1_655 S
C1970 C1968 1.419 1_455 S
C1970 C1971 1.363 . S
C1970 H1973 0.929 . S
C1971 C1970 1.363 . S
C1971 C1977 1.428 . S
H1972 C1968 0.930 . S
H1973 C1970 0.929 . S
S1974 N1975 1.613 1_455 S
S1974 N1976 1.610 . S
N1975 S1974 1.613 1_655 S
N1975 C1978 1.350 1_655 S
N1976 S1974 1.610 . S
N1976 C1977 1.351 . S
C1977 C1971 1.428 . S
C1977 N1976 1.351 . S
C1977 C1978 1.434 . S
C1978 C1969 1.429 1_455 S
C1978 N1975 1.350 1_455 S
C1978 C1977 1.434 . S
C1979 C1980 1.369 . S
C1979 C1981 1.419 . S
C1979 H1983 0.930 . S
C1980 C1979 1.369 . S
C1980 C1989 1.429 . S
C1981 C1979 1.419 . S
C1981 C1982 1.363 . S
C1981 H1984 0.929 . S
C1982 C1981 1.363 . S
C1982 C1988 1.428 . S
H1983 C1979 0.930 . S
H1984 C1981 0.929 . S
S1985 N1986 1.613 . S
S1985 N1987 1.610 . S
N1986 S1985 1.613 . S
N1986 C1989 1.350 . S
N1987 S1985 1.610 . S
N1987 C1988 1.351 . S
C1988 C1982 1.428 . S
C1988 N1987 1.351 . S
C1988 C1989 1.434 . S
C1989 C1980 1.429 . S
C1989 N1986 1.350 . S
C1989 C1988 1.434 . S
C1990 C1991 1.369 . S
C1990 C1992 1.419 . S
C1990 H1994 0.930 . S
C1991 C1990 1.369 . S
C1991 C2000 1.429 . S
C1992 C1990 1.419 . S
C1992 C1993 1.363 1_565 S
C1992 H1995 0.929 1_565 S
C1993 C1992 1.363 1_545 S
C1993 C1999 1.428 1_545 S
H1994 C1990 0.930 . S
H1995 C1992 0.929 1_545 S
S1996 N1997 1.613 . S
S1996 N1998 1.610 1_565 S
N1997 S1996 1.613 . S
N1997 C2000 1.350 . S
N1998 S1996 1.610 1_545 S
N1998 C1999 1.351 1_545 S
C1999 C1993 1.428 1_565 S
C1999 N1998 1.351 1_565 S
C1999 C2000 1.434 . S
C2000 C1991 1.429 . S
C2000 N1997 1.350 . S
C2000 C1999 1.434 . S
C2001 C2002 1.369 . S
C2001 C2003 1.419 . S
C2001 H2005 0.930 . S
C2002 C2001 1.369 . S
C2002 C2011 1.429 . S
C2003 C2001 1.419 . S
C2003 C2004 1.363 . S
C2003 H2006 0.929 1_455 S
C2004 C2003 1.363 . S
C2004 C2010 1.428 . S
H2005 C2001 0.930 . S
H2006 C2003 0.929 1_655 S
S2007 N2008 1.613 . S
S2007 N2009 1.610 . S
N2008 S2007 1.613 . S
N2008 C2011 1.350 . S
N2009 S2007 1.610 . S
N2009 C2010 1.351 . S
C2010 C2004 1.428 . S
C2010 N2009 1.351 . S
C2010 C2011 1.434 . S
C2011 C2002 1.429 . S
C2011 N2008 1.350 . S
C2011 C2010 1.434 . S
C2012 C2013 1.369 . S
C2012 C2014 1.419 . S
C2012 H2016 0.930 . S
C2013 C2012 1.369 . S
C2013 C2022 1.429 . S
C2014 C2012 1.419 . S
C2014 C2015 1.363 . S
C2014 H2017 0.929 . S
C2015 C2014 1.363 . S
C2015 C2021 1.428 . S
H2016 C2012 0.930 . S
H2017 C2014 0.929 . S
S2018 N2019 1.613 . S
S2018 N2020 1.610 . S
N2019 S2018 1.613 . S
N2019 C2022 1.350 . S
N2020 S2018 1.610 . S
N2020 C2021 1.351 . S
C2021 C2015 1.428 . S
C2021 N2020 1.351 . S
C2021 C2022 1.434 . S
C2022 C2013 1.429 . S
C2022 N2019 1.350 . S
C2022 C2021 1.434 . S
C2023 C2024 1.369 . S
C2023 C2025 1.419 . S
C2023 H2027 0.930 . S
C2024 C2023 1.369 . S
C2024 C2033 1.429 . S
C2025 C2023 1.419 . S
C2025 C2026 1.363 . S
C2025 H2028 0.929 . S
C2026 C2025 1.363 . S
C2026 C2032 1.428 . S
H2027 C2023 0.930 . S
H2028 C2025 0.929 . S
S2029 N2030 1.613 . S
S2029 N2031 1.610 . S
N2030 S2029 1.613 . S
N2030 C2033 1.350 . S
N2031 S2029 1.610 . S
N2031 C2032 1.351 . S
C2032 C2026 1.428 . S
C2032 N2031 1.351 . S
C2032 C2033 1.434 . S
C2033 C2024 1.429 . S
C2033 N2030 1.350 . S
C2033 C2032 1.434 . S
C2034 C2035 1.369 . S
C2034 C2036 1.419 . S
C2034 H2038 0.930 . S
C2035 C2034 1.369 . S
C2035 C2044 1.429 . S
C2036 C2034 1.419 . S
C2036 C2037 1.363 . S
C2036 H2039 0.929 . S
C2037 C2036 1.363 . S
C2037 C2043 1.428 . S
H2038 C2034 0.930 . S
H2039 C2036 0.929 . S
S2040 N2041 1.613 1_545 S
S2040 N2042 1.610 . S
N2041 S2040 1.613 1_565 S
N2041 C2044 1.350 . S
N2042 S2040 1.610 . S
N2042 C2043 1.351 1_545 S
C2043 C2037 1.428 . S
C2043 N2042 1.351 1_565 S
C2043 C2044 1.434 . S
C2044 C2035 1.429 . S
C2044 N2041 1.350 . S
C2044 C2043 1.434 . S
C2045 C2046 1.369 . S
C2045 C2047 1.419 . S
C2045 H2049 0.930 1_455 S
C2046 C2045 1.369 . S
C2046 C2055 1.429 . S
C2047 C2045 1.419 . S
C2047 C2048 1.363 . S
C2047 H2050 0.929 . S
C2048 C2047 1.363 . S
C2048 C2054 1.428 . S
H2049 C2045 0.930 1_655 S
H2050 C2047 0.929 . S
S2051 N2052 1.613 . S
S2051 N2053 1.610 . S
N2052 S2051 1.613 . S
N2052 C2055 1.350 . S
N2053 S2051 1.610 . S
N2053 C2054 1.351 . S
C2054 C2048 1.428 . S
C2054 N2053 1.351 . S
C2054 C2055 1.434 . S
C2055 C2046 1.429 . S
C2055 N2052 1.350 . S
C2055 C2054 1.434 . S
C2056 C2057 1.369 . S
C2056 C2058 1.419 . S
C2056 H2060 0.930 . S
C2057 C2056 1.369 . S
C2057 C2066 1.429 . S
C2058 C2056 1.419 . S
C2058 C2059 1.363 . S
C2058 H2061 0.929 . S
C2059 C2058 1.363 . S
C2059 C2065 1.428 . S
H2060 C2056 0.930 . S
H2061 C2058 0.929 . S
S2062 N2063 1.613 . S
S2062 N2064 1.610 . S
N2063 S2062 1.613 . S
N2063 C2066 1.350 . S
N2064 S2062 1.610 . S
N2064 C2065 1.351 . S
C2065 C2059 1.428 . S
C2065 N2064 1.351 . S
C2065 C2066 1.434 . S
C2066 C2057 1.429 . S
C2066 N2063 1.350 . S
C2066 C2065 1.434 . S
C2067 C2068 1.370 . S
C2067 C2069 1.419 1_565 S
C2067 H2071 0.930 . S
C2068 C2067 1.370 . S
C2068 C2077 1.427 1_554 S
C2069 C2067 1.419 1_545 S
C2069 C2070 1.362 1_554 S
C2069 H2072 0.930 . S
C2070 C2069 1.362 1_556 S
C2070 C2076 1.428 1_545 S
H2071 C2067 0.930 . S
H2072 C2069 0.930 . S
S2073 N2074 1.613 . S
S2073 N2075 1.610 1_565 S
N2074 S2073 1.613 . S
N2074 C2077 1.350 . S
N2075 S2073 1.610 1_545 S
N2075 C2076 1.351 1_545 S
C2076 C2070 1.428 1_565 S
C2076 N2075 1.351 1_565 S
C2076 C2077 1.434 . S
C2077 C2068 1.427 1_556 S
C2077 N2074 1.350 . S
C2077 C2076 1.434 . S
C2078 C2079 1.366 . S
C2078 C2080 1.419 1_455 S
C2078 H2082 0.930 . S
C2079 C2078 1.366 . S
C2079 C2088 1.434 1_554 S
C2080 C2078 1.419 1_655 S
C2080 C2081 1.363 1_554 S
C2080 H2083 0.929 . S
C2081 C2080 1.363 1_556 S
C2081 C2087 1.428 . S
H2082 C2078 0.930 . S
H2083 C2080 0.929 . S
S2084 N2085 1.613 . S
S2084 N2086 1.610 1_455 S
N2085 S2084 1.613 . S
N2085 C2088 1.350 . S
N2086 S2084 1.610 1_655 S
N2086 C2087 1.351 . S
C2087 C2081 1.428 . S
C2087 N2086 1.351 . S
C2087 C2088 1.434 1_655 S
C2088 C2079 1.434 1_556 S
C2088 N2085 1.350 . S
C2088 C2087 1.434 1_455 S
C2089 C2090 1.369 . S
C2089 C2091 1.419 . S
C2089 H2093 0.930 . S
C2090 C2089 1.369 . S
C2090 C2099 1.429 1_556 S
C2091 C2089 1.419 . S
C2091 C2092 1.371 1_556 S
C2091 H2094 0.929 . S
C2092 C2091 1.371 1_554 S
C2092 C2098 1.422 . S
H2093 C2089 0.930 . S
H2094 C2091 0.929 . S
S2095 N2096 1.613 . S
S2095 N2097 1.610 . S
N2096 S2095 1.613 . S
N2096 C2099 1.350 . S
N2097 S2095 1.610 . S
N2097 C2098 1.351 . S
C2098 C2092 1.422 . S
C2098 N2097 1.351 . S
C2098 C2099 1.434 . S
C2099 C2090 1.429 1_554 S
C2099 N2096 1.350 . S
C2099 C2098 1.434 . S
C2100 C2101 1.369 . S
C2100 C2102 1.419 . S
C2100 H2104 0.930 . S
C2101 C2100 1.369 . S
C2101 C2110 1.429 . S
C2102 C2100 1.419 . S
C2102 C2103 1.363 . S
C2102 H2105 0.929 1_545 S
C2103 C2102 1.363 . S
C2103 C2109 1.428 . S
H2104 C2100 0.930 . S
H2105 C2102 0.929 1_565 S
S2106 N2107 1.613 . S
S2106 N2108 1.610 . S
N2107 S2106 1.613 . S
N2107 C2110 1.350 . S
N2108 S2106 1.610 . S
N2108 C2109 1.351 . S
C2109 C2103 1.428 . S
C2109 N2108 1.351 . S
C2109 C2110 1.434 . S
C2110 C2101 1.429 . S
C2110 N2107 1.350 . S
C2110 C2109 1.434 . S
C2111 C2112 1.369 . S
C2111 C2113 1.419 . S
C2111 H2115 0.930 . S
C2112 C2111 1.369 . S
C2112 C2121 1.429 . S
C2113 C2111 1.419 . S
C2113 C2114 1.363 . S
C2113 H2116 0.929 1_655 S
C2114 C2113 1.363 . S
C2114 C2120 1.428 . S
H2115 C2111 0.930 . S
H2116 C2113 0.929 1_455 S
S2117 N2118 1.613 . S
S2117 N2119 1.610 . S
N2118 S2117 1.613 . S
N2118 C2121 1.350 . S
N2119 S2117 1.610 . S
N2119 C2120 1.351 . S
C2120 C2114 1.428 . S
C2120 N2119 1.351 . S
C2120 C2121 1.434 . S
C2121 C2112 1.429 . S
C2121 N2118 1.350 . S
C2121 C2120 1.434 . S
C2122 C2123 1.369 . S
C2122 C2124 1.419 . S
C2122 H2126 0.930 . S
C2123 C2122 1.369 . S
C2123 C2132 1.429 . S
C2124 C2122 1.419 . S
C2124 C2125 1.363 . S
C2124 H2127 0.929 . S
C2125 C2124 1.363 . S
C2125 C2131 1.428 . S
H2126 C2122 0.930 . S
H2127 C2124 0.929 . S
S2128 N2129 1.613 . S
S2128 N2130 1.610 . S
N2129 S2128 1.613 . S
N2129 C2132 1.350 . S
N2130 S2128 1.610 . S
N2130 C2131 1.351 . S
C2131 C2125 1.428 . S
C2131 N2130 1.351 . S
C2131 C2132 1.434 . S
C2132 C2123 1.429 . S
C2132 N2129 1.350 . S
C2132 C2131 1.434 . S
C2133 C2134 1.369 1_545 S
C2133 C2135 1.419 . S
C2133 H2137 0.930 1_545 S
C2134 C2133 1.369 1_565 S
C2134 C2143 1.429 1_554 S
C2135 C2133 1.419 . S
C2135 C2136 1.371 1_554 S
C2135 H2138 0.929 . S
C2136 C2135 1.371 1_556 S
C2136 C2142 1.422 . S
H2137 C2133 0.930 1_565 S
H2138 C2135 0.929 . S
S2139 N2140 1.613 1_545 S
S2139 N2141 1.610 . S
N2140 S2139 1.613 1_565 S
N2140 C2143 1.350 . S
N2141 S2139 1.610 . S
N2141 C2142 1.351 . S
C2142 C2136 1.422 . S
C2142 N2141 1.351 . S
C2142 C2143 1.434 1_545 S
C2143 C2134 1.429 1_556 S
C2143 N2140 1.350 . S
C2143 C2142 1.434 1_565 S
C2144 C2145 1.360 . S
C2144 C2146 1.419 1_655 S
C2144 H2148 0.930 . S
C2145 C2144 1.360 . S
C2145 C2154 1.440 1_556 S
C2146 C2144 1.419 1_455 S
C2146 C2147 1.363 1_556 S
C2146 H2149 0.929 . S
C2147 C2146 1.363 1_554 S
C2147 C2153 1.428 1_455 S
H2148 C2144 0.930 . S
H2149 C2146 0.929 . S
S2150 N2151 1.613 . S
S2150 N2152 1.610 1_655 S
N2151 S2150 1.613 . S
N2151 C2154 1.350 . S
N2152 S2150 1.610 1_455 S
N2152 C2153 1.351 1_455 S
C2153 C2147 1.428 1_655 S
C2153 N2152 1.351 1_655 S
C2153 C2154 1.434 . S
C2154 C2145 1.440 1_554 S
C2154 N2151 1.350 . S
C2154 C2153 1.434 . S
C2155 C2156 1.369 . S
C2155 C2157 1.419 . S
C2155 H2159 0.930 . S
C2156 C2155 1.369 . S
C2156 C2165 1.429 1_554 S
C2157 C2155 1.419 . S
C2157 C2158 1.374 1_554 S
C2157 H2160 0.929 . S
C2158 C2157 1.374 1_556 S
C2158 C2164 1.419 . S
H2159 C2155 0.930 . S
H2160 C2157 0.929 . S
S2161 N2162 1.613 . S
S2161 N2163 1.610 . S
N2162 S2161 1.613 . S
N2162 C2165 1.350 . S
N2163 S2161 1.610 . S
N2163 C2164 1.351 . S
C2164 C2158 1.419 . S
C2164 N2163 1.351 . S
C2164 C2165 1.434 . S
C2165 C2156 1.429 1_556 S
C2165 N2162 1.350 . S
C2165 C2164 1.434 . S
C2166 C2167 1.369 1_655 S
C2166 C2168 1.419 . S
C2166 H2170 0.930 1_655 S
C2167 C2166 1.369 1_455 S
C2167 C2176 1.430 . S
C2168 C2166 1.419 . S
C2168 C2169 1.363 . S
C2168 H2171 0.929 . S
C2169 C2168 1.363 . S
C2169 C2175 1.428 . S
H2170 C2166 0.930 1_455 S
H2171 C2168 0.929 . S
S2172 N2173 1.613 1_655 S
S2172 N2174 1.610 . S
N2173 S2172 1.613 1_455 S
N2173 C2176 1.364 . S
N2174 S2172 1.610 . S
N2174 C2175 1.351 . S
C2175 C2169 1.428 . S
C2175 N2174 1.351 . S
C2175 C2176 1.417 1_655 S
C2176 C2167 1.430 . S
C2176 N2173 1.364 . S
C2176 C2175 1.417 1_455 S
C2177 C2178 1.369 . S
C2177 C2179 1.419 . S
C2177 H2181 0.930 . S
C2178 C2177 1.369 . S
C2178 C2187 1.429 . S
C2179 C2177 1.419 . S
C2179 C2180 1.363 . S
C2179 H2182 0.929 . S
C2180 C2179 1.363 . S
C2180 C2186 1.428 . S
H2181 C2177 0.930 . S
H2182 C2179 0.929 . S
S2183 N2184 1.613 . S
S2183 N2185 1.610 . S
N2184 S2183 1.613 . S
N2184 C2187 1.350 . S
N2185 S2183 1.610 . S
N2185 C2186 1.351 . S
C2186 C2180 1.428 . S
C2186 N2185 1.351 . S
C2186 C2187 1.434 . S
C2187 C2178 1.429 . S
C2187 N2184 1.350 . S
C2187 C2186 1.434 . S
C2188 C2189 1.369 . S
C2188 C2190 1.419 1_565 S
C2188 H2192 0.930 . S
C2189 C2188 1.369 . S
C2189 C2198 1.429 1_565 S
C2190 C2188 1.419 1_545 S
C2190 C2191 1.363 . S
C2190 H2193 0.929 . S
C2191 C2190 1.363 . S
C2191 C2197 1.428 . S
H2192 C2188 0.930 . S
H2193 C2190 0.929 . S
S2194 N2195 1.613 1_545 S
S2194 N2196 1.610 . S
N2195 S2194 1.613 1_565 S
N2195 C2198 1.350 1_565 S
N2196 S2194 1.610 . S
N2196 C2197 1.351 . S
C2197 C2191 1.428 . S
C2197 N2196 1.351 . S
C2197 C2198 1.434 . S
C2198 C2189 1.429 1_545 S
C2198 N2195 1.350 1_545 S
C2198 C2197 1.434 . S
C2199 C2200 1.369 . S
C2199 C2201 1.419 . S
C2199 H2203 0.930 . S
C2200 C2199 1.369 . S
C2200 C2209 1.429 . S
C2201 C2199 1.419 . S
C2201 C2202 1.363 . S
C2201 H2204 0.929 . S
C2202 C2201 1.363 . S
C2202 C2208 1.428 . S
H2203 C2199 0.930 . S
H2204 C2201 0.929 . S
S2205 N2206 1.613 . S
S2205 N2207 1.610 . S
N2206 S2205 1.613 . S
N2206 C2209 1.350 . S
N2207 S2205 1.610 . S
N2207 C2208 1.351 . S
C2208 C2202 1.428 . S
C2208 N2207 1.351 . S
C2208 C2209 1.434 . S
C2209 C2200 1.429 . S
C2209 N2206 1.350 . S
C2209 C2208 1.434 . S
C2210 C2211 1.369 . S
C2210 C2212 1.419 . S
C2210 H2214 0.930 . S
C2211 C2210 1.369 . S
C2211 C2220 1.429 . S
C2212 C2210 1.419 . S
C2212 C2213 1.363 . S
C2212 H2215 0.929 . S
C2213 C2212 1.363 . S
C2213 C2219 1.428 . S
H2214 C2210 0.930 . S
H2215 C2212 0.929 . S
S2216 N2217 1.613 . S
S2216 N2218 1.610 . S
N2217 S2216 1.613 . S
N2217 C2220 1.350 . S
N2218 S2216 1.610 . S
N2218 C2219 1.351 . S
C2219 C2213 1.428 . S
C2219 N2218 1.351 . S
C2219 C2220 1.434 . S
C2220 C2211 1.429 . S
C2220 N2217 1.350 . S
C2220 C2219 1.434 . S
C2221 C2222 1.369 . S
C2221 C2223 1.419 . S
C2221 H2225 0.930 . S
C2222 C2221 1.369 . S
C2222 C2231 1.429 . S
C2223 C2221 1.419 . S
C2223 C2224 1.363 . S
C2223 H2226 0.929 . S
C2224 C2223 1.363 . S
C2224 C2230 1.428 . S
H2225 C2221 0.930 . S
H2226 C2223 0.929 . S
S2227 N2228 1.613 1_565 S
S2227 N2229 1.610 . S
N2228 S2227 1.613 1_545 S
N2228 C2231 1.350 . S
N2229 S2227 1.610 . S
N2229 C2230 1.351 1_565 S
C2230 C2224 1.428 . S
C2230 N2229 1.351 1_545 S
C2230 C2231 1.434 . S
C2231 C2222 1.429 . S
C2231 N2228 1.350 . S
C2231 C2230 1.434 . S
C2232 C2233 1.369 . S
C2232 C2234 1.419 . S
C2232 H2236 0.930 . S
C2233 C2232 1.369 . S
C2233 C2242 1.429 . S
C2234 C2232 1.419 . S
C2234 C2235 1.363 . S
C2234 H2237 0.929 . S
C2235 C2234 1.363 . S
C2235 C2241 1.428 . S
H2236 C2232 0.930 . S
H2237 C2234 0.929 . S
S2238 N2239 1.613 . S
S2238 N2240 1.610 . S
N2239 S2238 1.613 . S
N2239 C2242 1.350 . S
N2240 S2238 1.610 . S
N2240 C2241 1.351 . S
C2241 C2235 1.428 . S
C2241 N2240 1.351 . S
C2241 C2242 1.434 . S
C2242 C2233 1.429 . S
C2242 N2239 1.350 . S
C2242 C2241 1.434 . S
C2243 C2244 1.369 . S
C2243 C2245 1.419 . S
C2243 H2247 0.930 . S
C2244 C2243 1.369 . S
C2244 C2253 1.429 . S
C2245 C2243 1.419 . S
C2245 C2246 1.363 . S
C2245 H2248 0.929 . S
C2246 C2245 1.363 . S
C2246 C2252 1.428 . S
H2247 C2243 0.930 . S
H2248 C2245 0.929 . S
S2249 N2250 1.613 . S
S2249 N2251 1.610 . S
N2250 S2249 1.613 . S
N2250 C2253 1.350 . S
N2251 S2249 1.610 . S
N2251 C2252 1.351 . S
C2252 C2246 1.428 . S
C2252 N2251 1.351 . S
C2252 C2253 1.434 . S
C2253 C2244 1.429 . S
C2253 N2250 1.350 . S
C2253 C2252 1.434 . S
C2254 C2255 1.369 . S
C2254 C2256 1.419 . S
C2254 H2258 0.930 . S
C2255 C2254 1.369 . S
C2255 C2264 1.429 . S
C2256 C2254 1.419 . S
C2256 C2257 1.363 . S
C2256 H2259 0.929 . S
C2257 C2256 1.363 . S
C2257 C2263 1.428 . S
H2258 C2254 0.930 . S
H2259 C2256 0.929 . S
S2260 N2261 1.613 . S
S2260 N2262 1.610 . S
N2261 S2260 1.613 . S
N2261 C2264 1.350 1_655 S
N2262 S2260 1.610 . S
N2262 C2263 1.351 1_655 S
C2263 C2257 1.428 . S
C2263 N2262 1.351 1_455 S
C2263 C2264 1.434 . S
C2264 C2255 1.429 . S
C2264 N2261 1.350 1_455 S
C2264 C2263 1.434 . S
C2265 C2266 1.369 . S
C2265 C2267 1.419 . S
C2265 H2269 0.930 . S
C2266 C2265 1.369 . S
C2266 C2275 1.429 . S
C2267 C2265 1.419 . S
C2267 C2268 1.363 . S
C2267 H2270 0.929 . S
C2268 C2267 1.363 . S
C2268 C2274 1.428 . S
H2269 C2265 0.930 . S
H2270 C2267 0.929 . S
S2271 N2272 1.613 . S
S2271 N2273 1.610 . S
N2272 S2271 1.613 . S
N2272 C2275 1.350 . S
N2273 S2271 1.610 . S
N2273 C2274 1.351 . S
C2274 C2268 1.428 . S
C2274 N2273 1.351 . S
C2274 C2275 1.434 . S
C2275 C2266 1.429 . S
C2275 N2272 1.350 . S
C2275 C2274 1.434 . S
C2276 C2277 1.369 . S
C2276 C2278 1.419 . S
C2276 H2280 0.930 . S
C2277 C2276 1.369 . S
C2277 C2286 1.429 . S
C2278 C2276 1.419 . S
C2278 C2279 1.363 . S
C2278 H2281 0.929 . S
C2279 C2278 1.363 . S
C2279 C2285 1.428 . S
H2280 C2276 0.930 . S
H2281 C2278 0.929 . S
S2282 N2283 1.613 . S
S2282 N2284 1.610 . S
N2283 S2282 1.613 . S
N2283 C2286 1.350 . S
N2284 S2282 1.610 . S
N2284 C2285 1.351 . S
C2285 C2279 1.428 . S
C2285 N2284 1.351 . S
C2285 C2286 1.434 . S
C2286 C2277 1.429 . S
C2286 N2283 1.350 . S
C2286 C2285 1.434 . S
C2287 C2288 1.369 . S
C2287 C2289 1.419 . S
C2287 H2291 0.930 . S
C2288 C2287 1.369 . S
C2288 C2297 1.429 . S
C2289 C2287 1.419 . S
C2289 C2290 1.363 . S
C2289 H2292 0.929 . S
C2290 C2289 1.363 . S
C2290 C2296 1.428 . S
H2291 C2287 0.930 . S
H2292 C2289 0.929 . S
S2293 N2294 1.613 . S
S2293 N2295 1.610 . S
N2294 S2293 1.613 . S
N2294 C2297 1.350 . S
N2295 S2293 1.610 . S
N2295 C2296 1.351 . S
C2296 C2290 1.428 . S
C2296 N2295 1.351 . S
C2296 C2297 1.434 . S
C2297 C2288 1.429 . S
C2297 N2294 1.350 . S
C2297 C2296 1.434 . S
C2298 C2299 1.369 . S
C2298 C2300 1.419 . S
C2298 H2302 0.930 . S
C2299 C2298 1.369 . S
C2299 C2308 1.429 . S
C2300 C2298 1.419 . S
C2300 C2301 1.363 . S
C2300 H2303 0.929 . S
C2301 C2300 1.363 . S
C2301 C2307 1.428 . S
H2302 C2298 0.930 . S
H2303 C2300 0.929 . S
S2304 N2305 1.613 . S
S2304 N2306 1.610 . S
N2305 S2304 1.613 . S
N2305 C2308 1.350 . S
N2306 S2304 1.610 . S
N2306 C2307 1.351 . S
C2307 C2301 1.428 . S
C2307 N2306 1.351 . S
C2307 C2308 1.434 . S
C2308 C2299 1.429 . S
C2308 N2305 1.350 . S
C2308 C2307 1.434 . S
C2309 C2310 1.369 . S
C2309 C2311 1.419 . S
C2309 H2313 0.930 . S
C2310 C2309 1.369 . S
C2310 C2319 1.429 . S
C2311 C2309 1.419 . S
C2311 C2312 1.363 . S
C2311 H2314 0.929 . S
C2312 C2311 1.363 . S
C2312 C2318 1.428 . S
H2313 C2309 0.930 . S
H2314 C2311 0.929 . S
S2315 N2316 1.613 . S
S2315 N2317 1.610 . S
N2316 S2315 1.613 . S
N2316 C2319 1.350 . S
N2317 S2315 1.610 . S
N2317 C2318 1.351 . S
C2318 C2312 1.428 . S
C2318 N2317 1.351 . S
C2318 C2319 1.434 . S
C2319 C2310 1.429 . S
C2319 N2316 1.350 . S
C2319 C2318 1.434 . S
C2320 C2321 1.369 . S
C2320 C2322 1.419 . S
C2320 H2324 0.930 . S
C2321 C2320 1.369 . S
C2321 C2330 1.429 . S
C2322 C2320 1.419 . S
C2322 C2323 1.363 . S
C2322 H2325 0.929 . S
C2323 C2322 1.363 . S
C2323 C2329 1.428 . S
H2324 C2320 0.930 . S
H2325 C2322 0.929 . S
S2326 N2327 1.613 1_455 S
S2326 N2328 1.610 1_455 S
N2327 S2326 1.613 1_655 S
N2327 C2330 1.350 . S
N2328 S2326 1.610 1_655 S
N2328 C2329 1.351 . S
C2329 C2323 1.428 . S
C2329 N2328 1.351 . S
C2329 C2330 1.434 . S
C2330 C2321 1.429 . S
C2330 N2327 1.350 . S
C2330 C2329 1.434 . S
C2331 C2332 1.369 . S
C2331 C2333 1.419 . S
C2331 H2335 0.930 . S
C2332 C2331 1.369 . S
C2332 C2341 1.429 . S
C2333 C2331 1.419 . S
C2333 C2334 1.363 . S
C2333 H2336 0.929 . S
C2334 C2333 1.363 . S
C2334 C2340 1.428 . S
H2335 C2331 0.930 . S
H2336 C2333 0.929 . S
S2337 N2338 1.613 . S
S2337 N2339 1.610 . S
N2338 S2337 1.613 . S
N2338 C2341 1.350 . S
N2339 S2337 1.610 . S
N2339 C2340 1.351 . S
C2340 C2334 1.428 . S
C2340 N2339 1.351 . S
C2340 C2341 1.434 . S
C2341 C2332 1.429 . S
C2341 N2338 1.350 . S
C2341 C2340 1.434 . S
C2342 C2343 1.369 . S
C2342 C2344 1.419 . S
C2342 H2346 0.930 . S
C2343 C2342 1.369 . S
C2343 C2352 1.429 . S
C2344 C2342 1.419 . S
C2344 C2345 1.363 . S
C2344 H2347 0.929 . S
C2345 C2344 1.363 . S
C2345 C2351 1.428 . S
H2346 C2342 0.930 . S
H2347 C2344 0.929 . S
S2348 N2349 1.613 . S
S2348 N2350 1.610 . S
N2349 S2348 1.613 . S
N2349 C2352 1.350 1_545 S
N2350 S2348 1.610 . S
N2350 C2351 1.351 1_545 S
C2351 C2345 1.428 . S
C2351 N2350 1.351 1_565 S
C2351 C2352 1.434 . S
C2352 C2343 1.429 . S
C2352 N2349 1.350 1_565 S
C2352 C2351 1.434 . S
C2353 C2354 1.369 . S
C2353 C2355 1.419 . S
C2353 H2357 0.930 . S
C2354 C2353 1.369 . S
C2354 C2363 1.429 . S
C2355 C2353 1.419 . S
C2355 C2356 1.363 . S
C2355 H2358 0.929 . S
C2356 C2355 1.363 . S
C2356 C2362 1.428 . S
H2357 C2353 0.930 . S
H2358 C2355 0.929 . S
S2359 N2360 1.613 . S
S2359 N2361 1.610 . S
N2360 S2359 1.613 . S
N2360 C2363 1.350 . S
N2361 S2359 1.610 . S
N2361 C2362 1.351 . S
C2362 C2356 1.428 . S
C2362 N2361 1.351 . S
C2362 C2363 1.434 . S
C2363 C2354 1.429 . S
C2363 N2360 1.350 . S
C2363 C2362 1.434 . S
C2364 C2365 1.369 . S
C2364 C2366 1.419 . S
C2364 H2368 0.930 . S
C2365 C2364 1.369 . S
C2365 C2374 1.429 1_455 S
C2366 C2364 1.419 . S
C2366 C2367 1.363 1_455 S
C2366 H2369 0.929 . S
C2367 C2366 1.363 1_655 S
C2367 C2373 1.428 . S
H2368 C2364 0.930 . S
H2369 C2366 0.929 . S
S2370 N2371 1.613 . S
S2370 N2372 1.610 . S
N2371 S2370 1.613 . S
N2371 C2374 1.350 . S
N2372 S2370 1.610 . S
N2372 C2373 1.351 . S
C2373 C2367 1.428 . S
C2373 N2372 1.351 . S
C2373 C2374 1.434 . S
C2374 C2365 1.429 1_655 S
C2374 N2371 1.350 . S
C2374 C2373 1.434 . S
C2375 C2376 1.369 . S
C2375 C2377 1.419 . S
C2375 H2379 0.930 . S
C2376 C2375 1.369 . S
C2376 C2385 1.429 . S
C2377 C2375 1.419 . S
C2377 C2378 1.363 . S
C2377 H2380 0.929 . S
C2378 C2377 1.363 . S
C2378 C2384 1.428 . S
H2379 C2375 0.930 . S
H2380 C2377 0.929 . S
S2381 N2382 1.613 . S
S2381 N2383 1.610 . S
N2382 S2381 1.613 . S
N2382 C2385 1.350 . S
N2383 S2381 1.610 . S
N2383 C2384 1.351 . S
C2384 C2378 1.428 . S
C2384 N2383 1.351 . S
C2384 C2385 1.434 . S
C2385 C2376 1.429 . S
C2385 N2382 1.350 . S
C2385 C2384 1.434 . S
C2386 C2387 1.369 1_545 S
C2386 C2388 1.419 . S
C2386 H2390 0.930 . S
C2387 C2386 1.369 1_565 S
C2387 C2396 1.429 . S
C2388 C2386 1.419 . S
C2388 C2389 1.363 . S
C2388 H2391 0.929 . S
C2389 C2388 1.363 . S
C2389 C2395 1.428 1_545 S
H2390 C2386 0.930 . S
H2391 C2388 0.929 . S
S2392 N2393 1.613 . S
S2392 N2394 1.610 . S
N2393 S2392 1.613 . S
N2393 C2396 1.350 . S
N2394 S2392 1.610 . S
N2394 C2395 1.351 . S
C2395 C2389 1.428 1_565 S
C2395 N2394 1.351 . S
C2395 C2396 1.434 . S
C2396 C2387 1.429 . S
C2396 N2393 1.350 . S
C2396 C2395 1.434 . S
C2397 C2398 1.369 1_545 S
C2397 C2399 1.419 . S
C2397 H2401 0.930 . S
C2398 C2397 1.369 1_565 S
C2398 C2407 1.429 . S
C2399 C2397 1.419 . S
C2399 C2400 1.363 . S
C2399 H2402 0.929 . S
C2400 C2399 1.363 . S
C2400 C2406 1.428 1_545 S
H2401 C2397 0.930 . S
H2402 C2399 0.929 . S
S2403 N2404 1.613 . S
S2403 N2405 1.610 . S
N2404 S2403 1.613 . S
N2404 C2407 1.350 . S
N2405 S2403 1.610 . S
N2405 C2406 1.351 . S
C2406 C2400 1.428 1_565 S
C2406 N2405 1.351 . S
C2406 C2407 1.434 . S
C2407 C2398 1.429 . S
C2407 N2404 1.350 . S
C2407 C2406 1.434 . S
C2408 C2409 1.369 . S
C2408 C2410 1.419 . S
C2408 H2412 0.930 . S
C2409 C2408 1.369 . S
C2409 C2418 1.429 1_655 S
C2410 C2408 1.419 . S
C2410 C2411 1.363 1_655 S
C2410 H2413 0.929 . S
C2411 C2410 1.363 1_455 S
C2411 C2417 1.428 . S
H2412 C2408 0.930 . S
H2413 C2410 0.929 . S
S2414 N2415 1.613 . S
S2414 N2416 1.610 . S
N2415 S2414 1.613 . S
N2415 C2418 1.350 . S
N2416 S2414 1.610 . S
N2416 C2417 1.351 . S
C2417 C2411 1.428 . S
C2417 N2416 1.351 . S
C2417 C2418 1.434 . S
C2418 C2409 1.429 1_455 S
C2418 N2415 1.350 . S
C2418 C2417 1.434 . S
C2419 C2420 1.369 . S
C2419 C2421 1.419 . S
C2419 H2423 0.930 . S
C2420 C2419 1.369 . S
C2420 C2429 1.429 . S
C2421 C2419 1.419 . S
C2421 C2422 1.363 . S
C2421 H2424 0.929 . S
C2422 C2421 1.363 . S
C2422 C2428 1.428 . S
H2423 C2419 0.930 . S
H2424 C2421 0.929 . S
S2425 N2426 1.613 . S
S2425 N2427 1.610 . S
N2426 S2425 1.613 . S
N2426 C2429 1.350 . S
N2427 S2425 1.610 . S
N2427 C2428 1.351 . S
C2428 C2422 1.428 . S
C2428 N2427 1.351 . S
C2428 C2429 1.434 . S
C2429 C2420 1.429 . S
C2429 N2426 1.350 . S
C2429 C2428 1.434 . S
C2430 C2431 1.369 . S
C2430 C2432 1.419 1_655 S
C2430 H2434 0.930 . S
C2431 C2430 1.369 . S
C2431 C2440 1.429 . S
C2432 C2430 1.419 1_455 S
C2432 C2433 1.363 . S
C2432 H2435 0.929 . S
C2433 C2432 1.363 . S
C2433 C2439 1.428 . S
H2434 C2430 0.930 . S
H2435 C2432 0.929 . S
S2436 N2437 1.613 1_455 S
S2436 N2438 1.610 . S
N2437 S2436 1.613 1_655 S
N2437 C2440 1.350 . S
N2438 S2436 1.610 . S
N2438 C2439 1.351 . S
C2439 C2433 1.428 . S
C2439 N2438 1.351 . S
C2439 C2440 1.434 1_455 S
C2440 C2431 1.429 . S
C2440 N2437 1.350 . S
C2440 C2439 1.434 1_655 S
C2441 C2442 1.369 . S
C2441 C2443 1.419 . S
C2441 H2445 0.930 . S
C2442 C2441 1.369 . S
C2442 C2451 1.429 . S
C2443 C2441 1.419 . S
C2443 C2444 1.363 . S
C2443 H2446 0.929 . S
C2444 C2443 1.363 . S
C2444 C2450 1.428 . S
H2445 C2441 0.930 . S
H2446 C2443 0.929 . S
S2447 N2448 1.613 . S
S2447 N2449 1.610 . S
N2448 S2447 1.613 . S
N2448 C2451 1.350 . S
N2449 S2447 1.610 . S
N2449 C2450 1.351 . S
C2450 C2444 1.428 . S
C2450 N2449 1.351 . S
C2450 C2451 1.434 . S
C2451 C2442 1.429 . S
C2451 N2448 1.350 . S
C2451 C2450 1.434 . S
C2452 C2453 1.369 1_565 S
C2452 C2454 1.419 . S
C2452 H2456 0.930 . S
C2453 C2452 1.369 1_545 S
C2453 C2462 1.429 . S
C2454 C2452 1.419 . S
C2454 C2455 1.363 . S
C2454 H2457 0.929 . S
C2455 C2454 1.363 . S
C2455 C2461 1.428 1_565 S
H2456 C2452 0.930 . S
H2457 C2454 0.929 . S
S2458 N2459 1.613 . S
S2458 N2460 1.610 . S
N2459 S2458 1.613 . S
N2459 C2462 1.350 . S
N2460 S2458 1.610 . S
N2460 C2461 1.351 . S
C2461 C2455 1.428 1_545 S
C2461 N2460 1.351 . S
C2461 C2462 1.434 . S
C2462 C2453 1.429 . S
C2462 N2459 1.350 . S
C2462 C2461 1.434 . S
C2463 C2464 1.369 1_455 S
C2463 C2465 1.419 . S
C2463 H2467 0.930 . S
C2464 C2463 1.369 1_655 S
C2464 C2473 1.429 . S
C2465 C2463 1.419 . S
C2465 C2466 1.363 . S
C2465 H2468 0.929 . S
C2466 C2465 1.363 . S
C2466 C2472 1.428 1_455 S
H2467 C2463 0.930 . S
H2468 C2465 0.929 . S
S2469 N2470 1.613 . S
S2469 N2471 1.610 . S
N2470 S2469 1.613 . S
N2470 C2473 1.350 . S
N2471 S2469 1.610 . S
N2471 C2472 1.351 . S
C2472 C2466 1.428 1_655 S
C2472 N2471 1.351 . S
C2472 C2473 1.434 . S
C2473 C2464 1.429 . S
C2473 N2470 1.350 . S
C2473 C2472 1.434 . S
C2474 C2475 1.369 . S
C2474 C2476 1.419 . S
C2474 H2478 0.930 . S
C2475 C2474 1.369 . S
C2475 C2484 1.429 . S
C2476 C2474 1.419 . S
C2476 C2477 1.363 . S
C2476 H2479 0.929 . S
C2477 C2476 1.363 . S
C2477 C2483 1.428 . S
H2478 C2474 0.930 . S
H2479 C2476 0.929 . S
S2480 N2481 1.613 . S
S2480 N2482 1.610 . S
N2481 S2480 1.613 . S
N2481 C2484 1.350 . S
N2482 S2480 1.610 . S
N2482 C2483 1.351 . S
C2483 C2477 1.428 . S
C2483 N2482 1.351 . S
C2483 C2484 1.434 . S
C2484 C2475 1.429 . S
C2484 N2481 1.350 . S
C2484 C2483 1.434 . S
C2485 C2486 1.369 1_565 S
C2485 C2487 1.419 . S
C2485 H2489 0.930 . S
C2486 C2485 1.369 1_545 S
C2486 C2495 1.429 . S
C2487 C2485 1.419 . S
C2487 C2488 1.363 . S
C2487 H2490 0.929 . S
C2488 C2487 1.363 . S
C2488 C2494 1.428 1_565 S
H2489 C2485 0.930 . S
H2490 C2487 0.929 . S
S2491 N2492 1.613 . S
S2491 N2493 1.610 . S
N2492 S2491 1.613 . S
N2492 C2495 1.350 . S
N2493 S2491 1.610 . S
N2493 C2494 1.351 . S
C2494 C2488 1.428 1_545 S
C2494 N2493 1.351 . S
C2494 C2495 1.434 . S
C2495 C2486 1.429 . S
C2495 N2492 1.350 . S
C2495 C2494 1.434 . S
C2496 C2497 1.369 . S
C2496 C2498 1.419 . S
C2496 H2500 0.930 . S
C2497 C2496 1.369 . S
C2497 C2506 1.429 . S
C2498 C2496 1.419 . S
C2498 C2499 1.363 . S
C2498 H2501 0.929 . S
C2499 C2498 1.363 . S
C2499 C2505 1.428 . S
H2500 C2496 0.930 . S
H2501 C2498 0.929 . S
S2502 N2503 1.613 . S
S2502 N2504 1.610 . S
N2503 S2502 1.613 . S
N2503 C2506 1.350 . S
N2504 S2502 1.610 . S
N2504 C2505 1.351 . S
C2505 C2499 1.428 . S
C2505 N2504 1.351 . S
C2505 C2506 1.434 . S
C2506 C2497 1.429 . S
C2506 N2503 1.350 . S
C2506 C2505 1.434 . S
C2507 C2508 1.369 . S
C2507 C2509 1.419 . S
C2507 H2511 0.930 . S
C2508 C2507 1.369 . S
C2508 C2517 1.429 . S
C2509 C2507 1.419 . S
C2509 C2510 1.363 . S
C2509 H2512 0.929 . S
C2510 C2509 1.363 . S
C2510 C2516 1.428 . S
H2511 C2507 0.930 . S
H2512 C2509 0.929 . S
S2513 N2514 1.613 . S
S2513 N2515 1.610 . S
N2514 S2513 1.613 . S
N2514 C2517 1.350 . S
N2515 S2513 1.610 . S
N2515 C2516 1.351 . S
C2516 C2510 1.428 . S
C2516 N2515 1.351 . S
C2516 C2517 1.434 . S
C2517 C2508 1.429 . S
C2517 N2514 1.350 . S
C2517 C2516 1.434 . S
C2518 C2519 1.369 . S
C2518 C2520 1.419 . S
C2518 H2522 0.930 . S
C2519 C2518 1.369 . S
C2519 C2528 1.429 . S
C2520 C2518 1.419 . S
C2520 C2521 1.363 . S
C2520 H2523 0.929 . S
C2521 C2520 1.363 . S
C2521 C2527 1.428 . S
H2522 C2518 0.930 . S
H2523 C2520 0.929 . S
S2524 N2525 1.613 . S
S2524 N2526 1.610 . S
N2525 S2524 1.613 . S
N2525 C2528 1.350 . S
N2526 S2524 1.610 . S
N2526 C2527 1.351 . S
C2527 C2521 1.428 . S
C2527 N2526 1.351 . S
C2527 C2528 1.434 . S
C2528 C2519 1.429 . S
C2528 N2525 1.350 . S
C2528 C2527 1.434 . S
C2529 C2530 1.369 . S
C2529 C2531 1.419 . S
C2529 H2533 0.930 . S
C2530 C2529 1.369 . S
C2530 C2539 1.429 . S
C2531 C2529 1.419 . S
C2531 C2532 1.363 . S
C2531 H2534 0.929 . S
C2532 C2531 1.363 . S
C2532 C2538 1.428 . S
H2533 C2529 0.930 . S
H2534 C2531 0.929 . S
S2535 N2536 1.613 . S
S2535 N2537 1.610 . S
N2536 S2535 1.613 . S
N2536 C2539 1.350 . S
N2537 S2535 1.610 . S
N2537 C2538 1.351 . S
C2538 C2532 1.428 . S
C2538 N2537 1.351 . S
C2538 C2539 1.434 . S
C2539 C2530 1.429 . S
C2539 N2536 1.350 . S
C2539 C2538 1.434 . S
C2540 C2541 1.369 . S
C2540 C2542 1.419 . S
C2540 H2544 0.930 . S
C2541 C2540 1.369 . S
C2541 C2550 1.429 . S
C2542 C2540 1.419 . S
C2542 C2543 1.363 . S
C2542 H2545 0.929 . S
C2543 C2542 1.363 . S
C2543 C2549 1.428 . S
H2544 C2540 0.930 . S
H2545 C2542 0.929 . S
S2546 N2547 1.613 . S
S2546 N2548 1.610 . S
N2547 S2546 1.613 . S
N2547 C2550 1.350 . S
N2548 S2546 1.610 . S
N2548 C2549 1.351 . S
C2549 C2543 1.428 . S
C2549 N2548 1.351 . S
C2549 C2550 1.434 . S
C2550 C2541 1.429 . S
C2550 N2547 1.350 . S
C2550 C2549 1.434 . S
C2551 C2552 1.369 . S
C2551 C2553 1.419 . S
C2551 H2555 0.930 . S
C2552 C2551 1.369 . S
C2552 C2561 1.429 . S
C2553 C2551 1.419 . S
C2553 C2554 1.363 . S
C2553 H2556 0.929 . S
C2554 C2553 1.363 . S
C2554 C2560 1.428 . S
H2555 C2551 0.930 . S
H2556 C2553 0.929 . S
S2557 N2558 1.613 . S
S2557 N2559 1.610 . S
N2558 S2557 1.613 . S
N2558 C2561 1.350 . S
N2559 S2557 1.610 . S
N2559 C2560 1.351 . S
C2560 C2554 1.428 . S
C2560 N2559 1.351 . S
C2560 C2561 1.434 . S
C2561 C2552 1.429 . S
C2561 N2558 1.350 . S
C2561 C2560 1.434 . S
C2562 C2563 1.369 . S
C2562 C2564 1.419 . S
C2562 H2566 0.930 . S
C2563 C2562 1.369 . S
C2563 C2572 1.429 . S
C2564 C2562 1.419 . S
C2564 C2565 1.363 . S
C2564 H2567 0.929 . S
C2565 C2564 1.363 . S
C2565 C2571 1.428 . S
H2566 C2562 0.930 . S
H2567 C2564 0.929 . S
S2568 N2569 1.613 . S
S2568 N2570 1.610 . S
N2569 S2568 1.613 . S
N2569 C2572 1.350 . S
N2570 S2568 1.610 . S
N2570 C2571 1.351 . S
C2571 C2565 1.428 . S
C2571 N2570 1.351 . S
C2571 C2572 1.434 . S
C2572 C2563 1.429 . S
C2572 N2569 1.350 . S
C2572 C2571 1.434 . S
C2573 C2574 1.369 . S
C2573 C2575 1.419 . S
C2573 H2577 0.930 . S
C2574 C2573 1.369 . S
C2574 C2583 1.429 . S
C2575 C2573 1.419 . S
C2575 C2576 1.363 . S
C2575 H2578 0.929 . S
C2576 C2575 1.363 . S
C2576 C2582 1.428 . S
H2577 C2573 0.930 . S
H2578 C2575 0.929 . S
S2579 N2580 1.613 . S
S2579 N2581 1.610 . S
N2580 S2579 1.613 . S
N2580 C2583 1.350 . S
N2581 S2579 1.610 . S
N2581 C2582 1.351 . S
C2582 C2576 1.428 . S
C2582 N2581 1.351 . S
C2582 C2583 1.434 . S
C2583 C2574 1.429 . S
C2583 N2580 1.350 . S
C2583 C2582 1.434 . S
C2584 C2585 1.369 . S
C2584 C2586 1.419 . S
C2584 H2588 0.930 . S
C2585 C2584 1.369 . S
C2585 C2594 1.429 . S
C2586 C2584 1.419 . S
C2586 C2587 1.363 . S
C2586 H2589 0.929 . S
C2587 C2586 1.363 . S
C2587 C2593 1.428 . S
H2588 C2584 0.930 . S
H2589 C2586 0.929 . S
S2590 N2591 1.613 . S
S2590 N2592 1.610 . S
N2591 S2590 1.613 . S
N2591 C2594 1.350 . S
N2592 S2590 1.610 . S
N2592 C2593 1.351 . S
C2593 C2587 1.428 . S
C2593 N2592 1.351 . S
C2593 C2594 1.434 . S
C2594 C2585 1.429 . S
C2594 N2591 1.350 . S
C2594 C2593 1.434 . S
C2595 C2596 1.369 . S
C2595 C2597 1.419 . S
C2595 H2599 0.930 . S
C2596 C2595 1.369 . S
C2596 C2605 1.429 . S
C2597 C2595 1.419 . S
C2597 C2598 1.363 . S
C2597 H2600 0.929 . S
C2598 C2597 1.363 . S
C2598 C2604 1.428 . S
H2599 C2595 0.930 . S
H2600 C2597 0.929 . S
S2601 N2602 1.613 . S
S2601 N2603 1.610 . S
N2602 S2601 1.613 . S
N2602 C2605 1.350 . S
N2603 S2601 1.610 . S
N2603 C2604 1.351 . S
C2604 C2598 1.428 . S
C2604 N2603 1.351 . S
C2604 C2605 1.434 . S
C2605 C2596 1.429 . S
C2605 N2602 1.350 . S
C2605 C2604 1.434 . S
C2606 C2607 1.369 . S
C2606 C2608 1.419 . S
C2606 H2610 0.930 . S
C2607 C2606 1.369 . S
C2607 C2616 1.429 . S
C2608 C2606 1.419 . S
C2608 C2609 1.363 . S
C2608 H2611 0.929 . S
C2609 C2608 1.363 . S
C2609 C2615 1.428 . S
H2610 C2606 0.930 . S
H2611 C2608 0.929 . S
S2612 N2613 1.613 . S
S2612 N2614 1.610 . S
N2613 S2612 1.613 . S
N2613 C2616 1.350 . S
N2614 S2612 1.610 . S
N2614 C2615 1.351 . S
C2615 C2609 1.428 . S
C2615 N2614 1.351 . S
C2615 C2616 1.434 . S
C2616 C2607 1.429 . S
C2616 N2613 1.350 . S
C2616 C2615 1.434 . S
C2617 C2618 1.369 . S
C2617 C2619 1.419 . S
C2617 H2621 0.930 . S
C2618 C2617 1.369 . S
C2618 C2627 1.429 . S
C2619 C2617 1.419 . S
C2619 C2620 1.363 . S
C2619 H2622 0.929 . S
C2620 C2619 1.363 . S
C2620 C2626 1.428 . S
H2621 C2617 0.930 . S
H2622 C2619 0.929 . S
S2623 N2624 1.613 . S
S2623 N2625 1.610 . S
N2624 S2623 1.613 . S
N2624 C2627 1.350 . S
N2625 S2623 1.610 . S
N2625 C2626 1.351 . S
C2626 C2620 1.428 . S
C2626 N2625 1.351 . S
C2626 C2627 1.434 . S
C2627 C2618 1.429 . S
C2627 N2624 1.350 . S
C2627 C2626 1.434 . S
C1441 C18 1.681 . S
C1443 C89 1.788 1_545 S
C1452 C9 1.793 1_655 S
C1454 C58 1.683 1_545 S
C1463 C98 1.687 1_655 S
C1465 C49 1.791 . S
C1474 C138 1.749 . S
C1476 C169 1.858 1_455 S
C1485 C209 1.853 . S
C1487 C178 1.747 1_565 S
C1496 C218 1.752 1_455 S
C1498 C129 1.858 1_565 S
C1507 C248 1.681 . S
C1509 C339 1.788 1_565 S
C1518 C288 1.679 1_565 S
C1520 C259 1.792 1_455 S
C1529 C328 1.677 1_455 S
C1531 C299 1.792 . S
C1540 C368 1.753 . S
C1542 C419 1.857 1_655 S
C1551 C459 1.858 . S
C1553 C408 1.750 1_545 S
C1562 C379 1.859 1_545 S
C1564 C448 1.746 1_655 S
C1573 C569 1.847 . S
C1575 C498 1.741 . S
C1584 C538 1.736 . S
C1586 C489 1.849 . S
C1595 C529 1.847 . S
C1597 C578 1.741 . S
C1606 C618 1.767 . S
C1608 C649 1.870 . S
C1617 C689 1.871 . S
C1619 C658 1.759 . S
C1628 C609 1.870 . S
C1630 C698 1.766 . S
C1639 C728 1.710 . S
C1641 C819 1.815 . S
C1650 C768 1.706 . S
C1652 C739 1.819 . S
C1661 C779 1.820 . S
C1663 C808 1.711 . S
C1672 C899 1.721 . S
C1674 C848 1.625 1_554 S
C1683 C888 1.625 1_554 S
C1685 C939 1.717 . S
C1694 C859 1.722 . S
C1696 C928 1.630 1_554 S
C1705 C978 1.711 . S
C1707 C1049 1.820 . S
C1716 C1018 1.708 . S
C1718 C969 1.820 . S
C1727 C1058 1.710 . S
C1729 C1009 1.815 . S
C1738 C1098 1.631 1_556 S
C1740 C1129 1.722 . S
C1749 C1138 1.632 1_556 S
C1751 C1169 1.718 . S
C1760 C1178 1.633 1_556 S
C1762 C1089 1.721 . S
C1771 C1208 1.734 . S
C1773 C1299 1.849 . S
C1782 C1248 1.731 . S
C1784 C1219 1.845 . S
C1793 C1259 1.843 . S
C1795 C1288 1.736 . S
C1804 C1328 1.765 . S
C1806 C1379 1.869 . S
C1815 C1368 1.758 . S
C1817 C1419 1.870 . S
C1826 C1339 1.869 . S
C1828 C1408 1.765 . S
C1837 C19 1.846 . S
C1839 C818 1.828 . S
C1848 C738 1.828 1_565 S
C1850 C59 1.848 . S
C1859 C99 1.849 . S
C1861 C778 1.826 1_455 S
C1870 C139 1.764 . S
C1872 C1378 1.739 . S
C1881 C1418 1.739 1_545 S
C1883 C179 1.766 . S
C1892 C219 1.769 . S
C1894 C1338 1.741 1_655 S
C1903 C1048 1.823 . S
C1905 C249 1.846 . S
C1914 C289 1.848 . S
C1916 C968 1.824 1_545 S
C1925 C329 1.849 . S
C1927 C1008 1.825 1_655 S
C1936 C648 1.737 . S
C1938 C369 1.769 . S
C1947 C688 1.739 1_565 S
C1949 C409 1.767 . S
C1958 C608 1.735 1_455 S
C1960 C449 1.769 . S
C1969 C499 1.805 . S
C1971 C1298 1.781 . S
C1980 C539 1.809 . S
C1982 C1218 1.784 . S
C1991 C1258 1.787 . S
C1993 C579 1.806 . S
C2002 C418 1.777 . S
C2004 C619 1.799 1_455 S
C2013 C458 1.777 . S
C2015 C659 1.802 . S
C2024 C378 1.771 . S
C2026 C699 1.802 1_565 S
C2035 C88 1.820 . S
C2037 C729 1.840 1_565 S
C2046 C769 1.842 1_455 S
C2048 C8 1.825 . S
C2057 C809 1.844 . S
C2059 C48 1.824 . S
C2068 C1128 1.791 1_554 S
C2070 C849 1.831 . S
C2079 C1168 1.791 1_554 S
C2081 C889 1.836 . S
C2090 C929 1.831 . S
C2092 C1088 1.795 1_554 S
C2101 C338 1.826 . S
C2103 C979 1.840 1_545 S
C2112 C258 1.823 . S
C2114 C1019 1.843 1_655 S
C2123 C298 1.821 . S
C2125 C1059 1.843 . S
C2134 C1099 1.831 . S
C2136 C898 1.794 1_556 S
C2145 C938 1.790 1_556 S
C2147 C1139 1.836 . S
C2156 C1179 1.834 . S
C2158 C858 1.795 1_556 S
C2167 C1209 1.806 . S
C2169 C568 1.785 . S
C2178 C1249 1.805 . S
C2180 C488 1.785 . S
C2189 C1289 1.805 . S
C2191 C528 1.785 . S
C2200 C1329 1.802 1_655 S
C2202 C168 1.771 . S
C2211 C208 1.778 . S
C2213 C1369 1.799 . S
C2222 C128 1.772 . S
C2224 C1409 1.799 1_545 S
C2233 C1175 2.232 . S
C2235 C15 2.221 . S
C2244 C1095 2.226 . S
C2246 C55 2.226 . S
C2255 C95 2.237 . S
C2257 C1135 2.217 . S
C2266 C535 2.397 . S
C2268 C135 2.393 . S
C2277 C175 2.390 . S
C2279 C575 2.397 . S
C2288 C215 2.390 . S
C2290 C495 2.396 . S
C2299 C245 2.235 . S
C2301 C925 2.216 . S
C2310 C285 2.239 . S
C2312 C845 2.213 . S
C2321 C325 2.238 . S
C2323 C885 2.216 . S
C2332 C1245 2.393 . S
C2334 C365 2.395 . S
C2343 C1285 2.397 . S
C2345 C405 2.392 . S
C2354 C1205 2.393 . S
C2356 C445 2.393 . S
C2365 C615 2.422 . S
C2367 C1015 2.430 . S
C2376 C655 2.423 . S
C2378 C1055 2.431 . S
C2387 C695 2.427 . S
C2389 C975 2.427 . S
C2398 C725 2.431 . S
C2400 C1405 2.423 . S
C2409 C1325 2.422 . S
C2411 C765 2.430 . S
C2420 C805 2.426 . S
C2422 C1365 2.427 . S
C2431 C165 1.253 . S
C2433 C5 1.255 . S
C2442 C205 1.253 . S
C2444 C45 1.256 . S
C2453 C125 1.258 . S
C2455 C85 1.258 . S
C2464 C255 1.255 . S
C2466 C415 1.254 . S
C2475 C455 1.256 . S
C2477 C295 1.258 . S
C2486 C335 1.255 . S
C2488 C375 1.254 . S
C2497 C645 1.320 . S
C2499 C485 1.321 . S
C2508 C685 1.317 . S
C2510 C525 1.318 . S
C2519 C605 1.320 . S
C2521 C565 1.320 . S
C2530 C895 1.530 . S
C2532 C735 1.562 . S
C2541 C775 1.547 . S
C2543 C935 1.541 . S
C2552 C815 1.548 . S
C2554 C855 1.543 . S
C2563 C965 1.549 . S
C2565 C1125 1.541 . S
C2574 C1165 1.527 . S
C2576 C1005 1.560 . S
C2585 C1045 1.548 . S
C2587 C1085 1.543 . S
C2596 C1215 1.318 . S
C2598 C1375 1.317 . S
C2607 C1415 1.317 . S
C2609 C1255 1.318 . S
C2618 C1295 1.319 . S
C2620 C1335 1.318 . S
