# Generated by pormake.
# Topology eta-c, (3)-cn, num edge types: 1
# Building blocks:
#     Node 0, Type 0, BuildingBlock: WUSLED_clean_sbu_0, # of connection points: 3
#     Node 1, Type 0, BuildingBlock: WUSLED_clean_sbu_0, # of connection points: 3
#     Node 2, Type 0, BuildingBlock: WUSLED_clean_sbu_0, # of connection points: 3
#     Node 3, Type 0, BuildingBlock: WUSLED_clean_sbu_0, # of connection points: 3
#     Node 4, Type 0, BuildingBlock: WUSLED_clean_sbu_0, # of connection points: 3
#     Node 5, Type 0, BuildingBlock: WUSLED_clean_sbu_0, # of connection points: 3
#     Edge 6, Type (0, 0), BuildingBlock: XIVTED_clean_linker_0, # of connection points: 2
#     Edge 7, Type (0, 0), BuildingBlock: XIVTED_clean_linker_0, # of connection points: 2
#     Edge 8, Type (0, 0), BuildingBlock: XIVTED_clean_linker_0, # of connection points: 2
#     Edge 9, Type (0, 0), BuildingBlock: XIVTED_clean_linker_0, # of connection points: 2
#     Edge 10, Type (0, 0), BuildingBlock: XIVTED_clean_linker_0, # of connection points: 2
#     Edge 11, Type (0, 0), BuildingBlock: XIVTED_clean_linker_0, # of connection points: 2
#     Edge 12, Type (0, 0), BuildingBlock: XIVTED_clean_linker_0, # of connection points: 2
#     Edge 13, Type (0, 0), BuildingBlock: XIVTED_clean_linker_0, # of connection points: 2
#     Edge 14, Type (0, 0), BuildingBlock: XIVTED_clean_linker_0, # of connection points: 2
# Relax obj value: 0.000
# Max RMSD: 0.004
# Mean RMSD: 0.003
data_MOF--net-eta-c--node1-WUSLED_clean_sbu_0--edge1-XIVTED_clean_linker_0
_symmetry_space_group_name_H-M    P1
_symmetry_Int_Tables_number       1
_symmetry_cell_setting            triclinic
loop_
_symmetry_equiv_pos_as_xyz
'x, y, z'
_cell_length_a     66.485641
_cell_length_b     67.275123
_cell_length_c     27.61783
_cell_angle_alpha  91.014033
_cell_angle_beta   89.518331
_cell_angle_gamma 118.90961
loop_
_atom_site_label
_atom_site_type_symbol
_atom_site_fract_x
_atom_site_fract_y
_atom_site_fract_z
_atom_type_partial_charge
C0 C 0.40307 0.81096 0.16328 0.0
C1 C 0.38504 0.78938 0.15068 0.0
C2 C 0.37583 0.78049 0.23612 0.0
C3 C 0.37152 0.77432 0.18671 0.0
C4 C 0.39425 0.802 0.24837 0.0
C5 C 0.40766 0.81705 0.21234 0.0
U6 U 0.42982 0.82593 0.03639 0.0
O7 O 0.43293 0.85274 0.98723 0.0
O8 O 0.46391 0.85272 1.01385 0.0
C9 C 0.45549 0.86363 0.98942 0.0
C10 C 0.41702 0.82748 0.12606 0.0
C11 C 0.46627 0.88833 0.99864 0.0
C12 C 0.47978 0.92098 0.05351 0.0
C13 C 0.46892 0.89739 0.0458 0.0
C14 C 0.48512 0.92664 0.96702 0.0
C15 C 0.48809 0.93592 1.01418 0.0
C16 C 0.47435 0.90311 0.95941 0.0
C17 C 0.41925 0.77704 0.94709 0.0
C18 C 0.43214 0.78194 0.8633 0.0
C19 C 0.41248 0.74427 0.89717 0.0
C20 C 0.4105 0.75356 0.94148 0.0
C21 C 0.4233 0.75831 0.85741 0.0
C22 C 0.43016 0.79123 0.9078 0.0
C23 C 0.41662 0.78618 0.99415 0.0
O24 O 0.4366 0.82817 0.11489 0.0
O25 O 0.40579 0.82848 0.08803 0.0
O26 O 0.40431 0.79668 0.99401 0.0
O27 O 0.43532 0.79672 0.0206 0.0
H28 H 0.38124 0.78427 0.11298 0.0
H29 H 0.35739 0.75804 0.17575 0.0
H30 H 0.39842 0.80723 0.2859 0.0
H31 H 0.42159 0.83357 0.22284 0.0
H32 H 0.48151 0.9275 0.09025 0.0
H33 H 0.46269 0.88623 0.07659 0.0
H34 H 0.49154 0.93757 0.93593 0.0
H35 H 0.4725 0.89644 0.92275 0.0
H36 H 0.44078 0.79328 0.83367 0.0
H37 H 0.40514 0.72601 0.89388 0.0
H38 H 0.40196 0.74234 0.97139 0.0
H39 H 0.43709 0.80944 0.91154 0.0
C40 C 0.61723 0.39326 0.49686 0.0
C41 C 0.62929 0.38127 0.48787 0.0
C42 C 0.6209 0.36617 0.56978 0.0
C43 C 0.6311 0.36783 0.524 0.0
C44 C 0.60891 0.37834 0.5784 0.0
C45 C 0.60711 0.39172 0.54231 0.0
U46 U 0.62835 0.41858 0.36951 0.0
O47 O 0.60485 0.42289 0.32061 0.0
O48 O 0.63595 0.45283 0.34711 0.0
C49 C 0.61659 0.44518 0.32299 0.0
C50 C 0.6148 0.40727 0.45938 0.0
C51 C 0.60317 0.45706 0.33243 0.0
C52 C 0.57188 0.46001 0.37233 0.0
C53 C 0.58486 0.44881 0.36555 0.0
C54 C 0.59564 0.48806 0.31369 0.0
C55 C 0.57701 0.47973 0.34623 0.0
C56 C 0.60851 0.47682 0.30686 0.0
C57 C 0.66426 0.40433 0.27881 0.0
C58 C 0.6816 0.42395 0.20396 0.0
C59 C 0.67874 0.38734 0.21923 0.0
C60 C 0.66822 0.38652 0.26375 0.0
C61 C 0.68561 0.40606 0.18872 0.0
C62 C 0.67095 0.42306 0.24855 0.0
C63 C 0.65343 0.40297 0.32638 0.0
O64 O 0.63369 0.4258 0.44782 0.0
O65 O 0.60234 0.39614 0.42152 0.0
O66 O 0.63086 0.3918 0.32709 0.0
O67 O 0.66218 0.42172 0.35286 0.0
H68 H 0.63726 0.3823 0.45295 0.0
H69 H 0.64067 0.35892 0.51622 0.0
H70 H 0.60053 0.37721 0.6128 0.0
H71 H 0.59766 0.40079 0.54983 0.0
H72 H 0.55757 0.45295 0.39734 0.0
H73 H 0.58044 0.43358 0.38577 0.0
H74 H 0.60042 0.5034 0.29366 0.0
H75 H 0.62264 0.48354 0.2813 0.0
H76 H 0.68643 0.4385 0.18116 0.0
H77 H 0.68183 0.37342 0.20907 0.0
H78 H 0.66326 0.37195 0.28665 0.0
H79 H 0.66795 0.43696 0.25939 0.0
C80 C 0.24204 0.64842 0.5675 0.0
C81 C 0.26343 0.66661 0.58119 0.0
C82 C 0.27303 0.67691 0.49652 0.0
C83 C 0.27873 0.68077 0.54605 0.0
C84 C 0.25172 0.65843 0.48304 0.0
C85 C 0.23638 0.64438 0.5182 0.0
U86 U 0.22773 0.62051 0.6918 0.0
O87 O 0.2003 0.61537 0.74336 0.0
O88 O 0.20189 0.58589 0.71239 0.0
C89 C 0.19038 0.59311 0.73971 0.0
C90 C 0.22537 0.63364 0.60395 0.0
C91 C 0.1652 0.58111 0.73374 0.0
C92 C 0.13016 0.57587 0.69492 0.0
C93 C 0.15426 0.58691 0.69769 0.0
C94 C 0.12786 0.55291 0.76347 0.0
C95 C 0.11665 0.55893 0.72828 0.0
C96 C 0.15183 0.56389 0.76615 0.0
C97 C 0.27823 0.63267 0.77744 0.0
C98 C 0.27562 0.62451 0.8635 0.0
C99 C 0.31144 0.63609 0.82077 0.0
C100 C 0.30124 0.63758 0.77793 0.0
C101 C 0.29886 0.62971 0.86428 0.0
C102 C 0.26539 0.62597 0.82044 0.0
C103 C 0.26832 0.63507 0.73178 0.0
O104 O 0.22568 0.61466 0.61274 0.0
O105 O 0.22357 0.64389 0.64343 0.0
O106 O 0.2567 0.64626 0.73446 0.0
O107 O 0.25847 0.61682 0.7039 0.0
H108 H 0.26826 0.66992 0.61904 0.0
H109 H 0.29511 0.69466 0.55766 0.0
H110 H 0.24667 0.65509 0.44532 0.0
H111 H 0.21997 0.63042 0.50688 0.0
H112 H 0.12213 0.58102 0.66754 0.0
H113 H 0.16431 0.60017 0.67227 0.0
H114 H 0.11808 0.53967 0.78913 0.0
H115 H 0.15995 0.5591 0.79406 0.0
H116 H 0.26544 0.6197 0.89632 0.0
H117 H 0.32919 0.63976 0.81961 0.0
H118 H 0.31139 0.64266 0.74506 0.0
H119 H 0.24755 0.62207 0.82078 0.0
C120 C 0.61343 0.2304 0.9026 0.0
C121 C 0.62845 0.25374 0.90882 0.0
C122 C 0.618 0.26109 0.82911 0.0
C123 C 0.63072 0.26896 0.87241 0.0
C124 C 0.60295 0.23764 0.82333 0.0
C125 C 0.60072 0.22248 0.85969 0.0
U126 U 0.62578 0.21636 0.02913 0.0
O127 O 0.60258 0.1905 0.0803 0.0
O128 O 0.63287 0.18921 0.05204 0.0
C129 C 0.61389 0.17901 0.07768 0.0
C130 C 0.61076 0.21408 0.94033 0.0
C131 C 0.59984 0.15428 0.06965 0.0
C132 C 0.58128 0.12108 1.01634 0.0
C133 C 0.59407 0.14471 0.02286 0.0
C134 C 0.57956 0.1164 0.10326 0.0
C135 C 0.57397 0.10658 0.05649 0.0
C136 C 0.59237 0.13996 0.10969 0.0
C137 C 0.66532 0.26638 0.11391 0.0
C138 C 0.67874 0.26297 0.19348 0.0
C139 C 0.69005 0.30018 0.1613 0.0
C140 C 0.67729 0.29006 0.1194 0.0
C141 C 0.69116 0.28681 0.19873 0.0
C142 C 0.66596 0.25284 0.15132 0.0
C143 C 0.65282 0.25645 0.06838 0.0
O144 O 0.62934 0.21275 0.95063 0.0
O145 O 0.59923 0.2143 0.97902 0.0
O146 O 0.63029 0.24648 0.07077 0.0
O147 O 0.66039 0.24509 0.04168 0.0
H148 H 0.63844 0.26017 0.94176 0.0
H149 H 0.64264 0.28684 0.87796 0.0
H150 H 0.59259 0.23097 0.79096 0.0
H151 H 0.58897 0.20453 0.85435 0.0
H152 H 0.57751 0.11418 0.97979 0.0
H153 H 0.59966 0.15549 0.99143 0.0
H154 H 0.57391 0.10588 0.13506 0.0
H155 H 0.59653 0.14703 0.1461 0.0
H156 H 0.67934 0.25218 0.22141 0.0
H157 H 0.69902 0.31853 0.1644 0.0
H158 H 0.67691 0.30078 0.091 0.0
H159 H 0.65681 0.23449 0.14767 0.0
C160 C 0.40647 0.6112 0.23253 0.0
C161 C 0.38509 0.61014 0.24105 0.0
C162 C 0.38221 0.61752 0.15585 0.0
C163 C 0.37303 0.61316 0.20301 0.0
C164 C 0.40371 0.61876 0.1477 0.0
C165 C 0.41565 0.61558 0.18558 0.0
U166 U 0.43045 0.62008 0.36225 0.0
O167 O 0.43306 0.59585 0.41088 0.0
O168 O 0.46431 0.62601 0.38719 0.0
C169 C 0.45565 0.60678 0.41064 0.0
C170 C 0.4194 0.60746 0.27141 0.0
C171 C 0.46691 0.59281 0.40187 0.0
C172 C 0.47438 0.56703 0.35154 0.0
C173 C 0.46343 0.58018 0.35879 0.0
C174 C 0.49243 0.57908 0.43026 0.0
C175 C 0.48903 0.56628 0.38726 0.0
C176 C 0.48148 0.59217 0.43743 0.0
C177 C 0.41835 0.65774 0.45174 0.0
C178 C 0.43668 0.67131 0.53028 0.0
C179 C 0.40539 0.67785 0.50666 0.0
C180 C 0.4036 0.66662 0.46251 0.0
C181 C 0.42203 0.68049 0.54108 0.0
C182 C 0.43485 0.66003 0.48598 0.0
C183 C 0.41639 0.64657 0.40429 0.0
O184 O 0.4388 0.62527 0.2845 0.0
O185 O 0.40739 0.59524 0.30826 0.0
O186 O 0.40415 0.6243 0.40329 0.0
O187 O 0.43542 0.65425 0.37884 0.0
H188 H 0.37766 0.60692 0.27701 0.0
H189 H 0.35664 0.61233 0.21062 0.0
H190 H 0.41116 0.62179 0.11176 0.0
H191 H 0.43205 0.61639 0.1781 0.0
H192 H 0.47115 0.55723 0.31822 0.0
H193 H 0.45221 0.58047 0.33089 0.0
H194 H 0.50386 0.57929 0.45821 0.0
H195 H 0.48446 0.60189 0.47083 0.0
H196 H 0.44982 0.67318 0.55568 0.0
H197 H 0.39353 0.68428 0.51397 0.0
H198 H 0.39069 0.66492 0.43661 0.0
H199 H 0.44641 0.65328 0.47828 0.0
C200 C 0.82032 0.39312 0.5653 0.0
C201 C 0.79646 0.38449 0.56873 0.0
C202 C 0.79137 0.36808 0.48719 0.0
C203 C 0.78209 0.37204 0.53001 0.0
C204 C 0.81528 0.37643 0.48458 0.0
C205 C 0.82956 0.38883 0.5232 0.0
U206 U 0.83244 0.41861 0.69435 0.0
O207 O 0.85977 0.42335 0.74516 0.0
O208 O 0.85784 0.45301 0.71911 0.0
C209 C 0.86957 0.44563 0.74411 0.0
C210 C 0.83595 0.40703 0.60452 0.0
C211 C 0.89471 0.45785 0.73723 0.0
C212 C 0.92961 0.46246 0.69784 0.0
C213 C 0.90556 0.45107 0.70184 0.0
C214 C 0.9321 0.48778 0.76374 0.0
C215 C 0.94321 0.48081 0.7292 0.0
C216 C 0.90815 0.4764 0.7677 0.0
C217 C 0.78158 0.40467 0.78081 0.0
C218 C 0.78532 0.41711 0.86513 0.0
C219 C 0.74755 0.39448 0.82983 0.0
C220 C 0.75763 0.39385 0.78563 0.0
C221 C 0.76122 0.40598 0.87032 0.0
C222 C 0.79541 0.41643 0.82074 0.0
C223 C 0.79158 0.40307 0.73405 0.0
O224 O 0.83519 0.42567 0.61642 0.0
O225 O 0.83694 0.39589 0.64223 0.0
O226 O 0.80336 0.39205 0.7343 0.0
O227 O 0.80144 0.42176 0.70868 0.0
H228 H 0.789 0.38764 0.60104 0.0
H229 H 0.76381 0.36603 0.53316 0.0
H230 H 0.823 0.37337 0.45263 0.0
H231 H 0.84793 0.39524 0.52001 0.0
H232 H 0.93754 0.45652 0.67105 0.0
H233 H 0.89547 0.4368 0.67782 0.0
H234 H 0.94192 0.50208 0.78784 0.0
H235 H 0.9001 0.48199 0.79502 0.0
H236 H 0.79637 0.42596 0.89561 0.0
H237 H 0.72898 0.38606 0.83217 0.0
H238 H 0.74668 0.38477 0.75514 0.0
H239 H 0.81397 0.42487 0.81768 0.0
H240 H 0.51925 0.96098 0.08529 0.0
H241 H 0.54022 0.08148 0.98949 0.0
H242 H 0.48462 0.96837 0.96103 0.0
H243 H 0.57765 0.07392 0.10827 0.0
H244 H 0.51904 0.04015 0.97956 0.0
H245 H 0.53963 1.00225 0.09617 0.0
C246 C 0.51576 0.97124 0.06049 0.0
C247 C 0.50016 0.96107 0.02212 0.0
C248 C 0.53188 0.04754 1.00783 0.0
C249 C 0.52374 1.00856 0.03409 0.0
C250 C 0.54411 0.07119 1.01336 0.0
C251 C 0.56081 0.08135 0.04984 0.0
C252 C 0.53631 0.03381 0.03898 0.0
C253 C 0.56474 0.06697 0.08011 0.0
C254 C 0.52755 0.99486 0.06654 0.0
C255 C 0.49669 0.97539 0.99074 0.0
N256 N 0.55262 0.04402 0.07399 0.0
N257 N 0.50835 0.99833 0.99741 0.0
H258 H 0.50811 0.55982 0.30355 0.0
H259 H 0.55815 0.48645 0.43008 0.0
H260 H 0.49717 0.54108 0.45402 0.0
H261 H 0.56381 0.50005 0.27696 0.0
H262 H 0.53577 0.50632 0.43954 0.0
H263 H 0.52844 0.53796 0.29304 0.0
C264 C 0.50979 0.55098 0.33433 0.0
C265 C 0.5009 0.55243 0.37982 0.0
C266 C 0.54189 0.50494 0.40385 0.0
C267 C 0.52455 0.52752 0.36811 0.0
C268 C 0.55459 0.49345 0.39834 0.0
C269 C 0.56303 0.49156 0.35263 0.0
C270 C 0.53755 0.5147 0.36341 0.0
C271 C 0.55807 0.50137 0.31306 0.0
C272 C 0.52155 0.53859 0.32835 0.0
C273 C 0.50401 0.54083 0.41846 0.0
N274 N 0.54573 0.5125 0.31939 0.0
N275 N 0.51558 0.52895 0.41175 0.0
H276 H 0.08745 0.54817 0.80576 0.0
H277 H 0.97142 0.49192 0.6488 0.0
H278 H 0.08729 0.5447 0.64958 0.0
H279 H 0.97366 0.49587 0.80498 0.0
H280 H 1.01355 0.51108 0.64732 0.0
H281 H 0.04564 0.52919 0.80513 0.0
C282 C 0.07863 0.54329 0.77124 0.0
C283 C 0.09103 0.54791 0.72766 0.0
C284 C 1.00479 0.50777 0.68187 0.0
C285 C 0.04277 0.52624 0.72665 0.0
C286 C 0.98071 0.49671 0.68278 0.0
C287 C 0.96885 0.49233 0.7271 0.0
C288 C 1.01716 0.51445 0.7256 0.0
C289 C 0.98193 0.49919 0.76989 0.0
C290 C 0.05468 0.53254 0.7709 0.0
C291 C 0.07852 0.54162 0.68407 0.0
N292 N 1.00526 0.50985 0.76803 0.0
N293 N 0.0551 0.53104 0.68467 0.0
H294 H 0.35625 0.73381 0.2389 0.0
H295 H 0.29837 0.72343 0.49975 0.0
H296 H 0.36145 0.79118 0.32163 0.0
H297 H 0.28408 0.66557 0.40781 0.0
H298 H 0.32383 0.74848 0.43728 0.0
H299 H 0.33167 0.70857 0.30213 0.0
C300 C 0.35218 0.74115 0.27016 0.0
C301 C 0.36104 0.76477 0.27467 0.0
C302 C 0.31514 0.7303 0.43074 0.0
C303 C 0.33305 0.73583 0.3478 0.0
C304 C 0.30071 0.71596 0.46658 0.0
C305 C 0.28901 0.69232 0.45911 0.0
C306 C 0.31809 0.721 0.38703 0.0
C307 C 0.29251 0.68369 0.41498 0.0
C308 C 0.33821 0.72669 0.30643 0.0
C309 C 0.35541 0.77318 0.31667 0.0
N310 N 0.30673 0.69799 0.38071 0.0
N311 N 0.34183 0.75877 0.35146 0.0
H312 H 0.62707 0.37492 0.66779 0.0
H313 H 0.61849 0.25512 0.73039 0.0
H314 H 0.61811 0.32411 0.55982 0.0
H315 H 0.62248 0.30387 0.8389 0.0
H316 H 0.62042 0.28099 0.66735 0.0
H317 H 0.62756 0.35004 0.7306 0.0
C318 C 0.62514 0.35851 0.65721 0.0
C319 C 0.62239 0.3516 0.60825 0.0
C320 C 0.62093 0.28607 0.70494 0.0
C321 C 0.62319 0.32302 0.68032 0.0
C322 C 0.61969 0.27122 0.74106 0.0
C323 C 0.62017 0.27718 0.79025 0.0
C324 C 0.62266 0.30713 0.71786 0.0
C325 C 0.62226 0.29856 0.8016 0.0
C326 C 0.62554 0.34434 0.69316 0.0
C327 C 0.62048 0.3303 0.59689 0.0
N328 N 0.62334 0.31268 0.76576 0.0
N329 N 0.62082 0.31677 0.6326 0.0
H330 H 0.39933 0.64894 0.08371 0.0
H331 H 0.2807 0.59842 0.93736 0.0
H332 H 0.33605 0.59309 0.13481 0.0
H333 H 0.34276 0.65851 0.89588 0.0
H334 H 0.3002 0.59632 1.01034 0.0
H335 H 0.37863 0.65263 1.01486 0.0
C336 C 0.38107 0.63741 0.08042 0.0
C337 C 0.36947 0.62059 0.11504 0.0
C338 C 0.30952 0.61 0.98531 0.0
C339 C 0.34552 0.62478 0.03608 0.0
C340 C 0.29835 0.61129 0.94368 0.0
C341 C 0.3101 0.62858 0.91 0.0
C342 C 0.33266 0.62609 0.99342 0.0
C343 C 0.33308 0.64459 0.92011 0.0
C344 C 0.36921 0.6396 0.04117 0.0
C345 C 0.34569 0.6064 0.10923 0.0
N346 N 0.34357 0.6429 0.96066 0.0
N347 N 0.33454 0.60872 0.07038 0.0
H348 H 0.80034 0.37798 0.39099 0.0
H349 H 0.68156 0.2747 0.29455 0.0
H350 H 0.74822 0.33038 0.48643 0.0
H351 H 0.73396 0.32418 0.20246 0.0
H352 H 0.70567 0.29395 0.36529 0.0
H353 H 0.77621 0.35774 0.32176 0.0
C354 C 0.78387 0.36316 0.39746 0.0
C355 C 0.77643 0.35584 0.4448 0.0
C356 C 0.71186 0.30058 0.32957 0.0
C357 C 0.74838 0.33259 0.36514 0.0
C358 C 0.69816 0.28952 0.28912 0.0
C359 C 0.70564 0.29788 0.24236 0.0
C360 C 0.73327 0.32009 0.32326 0.0
C361 C 0.72724 0.3173 0.23773 0.0
C362 C 0.76999 0.35165 0.35779 0.0
C363 C 0.75463 0.33677 0.45069 0.0
N364 N 0.74022 0.32769 0.27752 0.0
N365 N 0.74141 0.32578 0.41137 0.0
H366 H 0.43056 0.67019 0.63212 0.0
H367 H 0.41787 0.7704 0.76576 0.0
H368 H 0.41797 0.71885 0.55708 0.0
H369 H 0.43238 0.72298 0.84067 0.0
H370 H 0.41912 0.75252 0.68881 0.0
H371 H 0.43253 0.68999 0.70851 0.0
C372 C 0.42838 0.68513 0.63156 0.0
C373 C 0.42398 0.69274 0.5879 0.0
C374 C 0.4221 0.74606 0.72206 0.0
C375 C 0.42597 0.71543 0.67563 0.0
C376 C 0.42153 0.75637 0.76609 0.0
C377 C 0.42494 0.74818 0.80999 0.0
C378 C 0.4261 0.72736 0.7217 0.0
C379 C 0.42927 0.72968 0.80793 0.0
C380 C 0.42938 0.69637 0.67531 0.0
C381 C 0.42101 0.71207 0.58978 0.0
N382 N 0.42968 0.7199 0.76465 0.0
N383 N 0.42201 0.72268 0.6328 0.0
H384 H 0.72371 0.37073 0.91237 0.0
H385 H 0.72229 0.44243 0.14633 0.0
H386 H 0.77367 0.44112 0.93664 0.0
H387 H 0.67465 0.3713 0.12284 0.0
H388 H 0.74089 0.44278 0.06915 0.0
H389 H 0.70526 0.37106 0.98884 0.0
C390 C 0.73076 0.38632 0.93363 0.0
C391 C 0.75025 0.40597 0.91771 0.0
C392 C 0.72636 0.4271 0.0809 0.0
C393 C 0.72922 0.4064 1.00609 0.0
C394 C 0.71563 0.42692 0.12485 0.0
C395 C 0.69687 0.40679 0.14132 0.0
C396 C 0.71825 0.40703 0.05296 0.0
C397 C 0.68923 0.38715 0.1121 0.0
C398 C 0.72026 0.38646 0.97755 0.0
C399 C 0.75881 0.42552 0.94753 0.0
N400 N 0.69991 0.38778 0.06949 0.0
N401 N 0.74822 0.42526 0.99014 0.0
loop_
_geom_bond_atom_site_label_1
_geom_bond_atom_site_label_2
_geom_bond_distance
_geom_bond_site_symmetry_2
_ccdc_geom_bond_type
C0 C1 1.264 . S
C0 C5 1.479 . S
C0 C10 1.465 . S
C1 C0 1.264 . S
C1 C3 1.339 . S
C1 H28 0.931 . S
C2 C3 1.395 . S
C2 C4 1.320 . S
C3 C1 1.339 . S
C3 C2 1.395 . S
C3 H29 0.929 . S
C4 C2 1.320 . S
C4 C5 1.405 . S
C4 H30 0.930 . S
C5 C0 1.479 . S
C5 C4 1.405 . S
C5 H31 0.931 . S
U6 O7 2.454 . S
U6 O8 2.458 1_554 S
U6 C9 2.984 . S
U6 C10 2.847 . S
U6 C23 2.882 1_554 S
U6 O24 2.441 . S
U6 O25 2.420 . S
U6 O26 2.455 1_554 S
U6 O27 2.449 1_554 S
O7 U6 2.454 . S
O7 C9 1.353 . S
O8 U6 2.458 1_556 S
O8 C9 1.286 1_556 S
C9 U6 2.984 . S
C9 O7 1.353 . S
C9 O8 1.286 1_554 S
C9 C11 1.363 . S
C10 C0 1.465 . S
C10 U6 2.847 . S
C10 O24 1.249 . S
C10 O25 1.202 . S
C11 C9 1.363 . S
C11 C13 1.408 . S
C11 C16 1.342 1_554 S
C12 C13 1.310 . S
C12 C15 1.461 . S
C12 H32 0.932 . S
C13 C11 1.408 . S
C13 C12 1.310 . S
C13 H33 0.930 . S
C14 C15 1.474 1_556 S
C14 C16 1.285 . S
C14 H34 0.929 . S
C15 C12 1.461 . S
C15 C14 1.474 1_554 S
C16 C11 1.342 1_556 S
C16 C14 1.285 . S
C16 H35 0.930 . S
C17 C20 1.424 . S
C17 C22 1.245 . S
C17 C23 1.428 . S
C18 C21 1.260 . S
C18 C22 1.477 . S
C18 H36 0.932 . S
C19 C20 1.384 . S
C19 C21 1.479 . S
C19 H37 0.929 . S
C20 C17 1.424 . S
C20 C19 1.384 . S
C20 H38 0.928 . S
C21 C18 1.260 . S
C21 C19 1.479 . S
C22 C17 1.245 . S
C22 C18 1.477 . S
C22 H39 0.932 . S
C23 U6 2.882 1_556 S
C23 C17 1.428 . S
C23 O26 1.301 . S
C23 O27 1.282 . S
O24 U6 2.441 . S
O24 C10 1.249 . S
O25 U6 2.420 . S
O25 C10 1.202 . S
O26 U6 2.455 1_556 S
O26 C23 1.301 . S
O27 U6 2.449 1_556 S
O27 C23 1.282 . S
H28 C1 0.931 . S
H29 C3 0.929 . S
H30 C4 0.930 . S
H31 C5 0.931 . S
H32 C12 0.932 . S
H33 C13 0.930 . S
H34 C14 0.929 . S
H35 C16 0.930 . S
H36 C18 0.932 . S
H37 C19 0.929 . S
H38 C20 0.928 . S
H39 C22 0.932 . S
C40 C41 1.264 . S
C40 C45 1.479 . S
C40 C50 1.465 . S
C41 C40 1.264 . S
C41 C43 1.339 . S
C41 H68 0.931 . S
C42 C43 1.395 . S
C42 C44 1.320 . S
C43 C41 1.339 . S
C43 C42 1.395 . S
C43 H69 0.929 . S
C44 C42 1.320 . S
C44 C45 1.405 . S
C44 H70 0.930 . S
C45 C40 1.479 . S
C45 C44 1.405 . S
C45 H71 0.931 . S
U46 O47 2.454 . S
U46 O48 2.458 . S
U46 C49 2.984 . S
U46 C50 2.847 . S
U46 C63 2.882 . S
U46 O64 2.441 . S
U46 O65 2.420 . S
U46 O66 2.455 . S
U46 O67 2.449 . S
O47 U46 2.454 . S
O47 C49 1.353 . S
O48 U46 2.458 . S
O48 C49 1.286 . S
C49 U46 2.984 . S
C49 O47 1.353 . S
C49 O48 1.286 . S
C49 C51 1.363 . S
C50 C40 1.465 . S
C50 U46 2.847 . S
C50 O64 1.249 . S
C50 O65 1.202 . S
C51 C49 1.363 . S
C51 C53 1.408 . S
C51 C56 1.342 . S
C52 C53 1.310 . S
C52 C55 1.461 . S
C52 H72 0.932 . S
C53 C51 1.408 . S
C53 C52 1.310 . S
C53 H73 0.930 . S
C54 C55 1.474 . S
C54 C56 1.285 . S
C54 H74 0.929 . S
C55 C52 1.461 . S
C55 C54 1.474 . S
C56 C51 1.342 . S
C56 C54 1.285 . S
C56 H75 0.930 . S
C57 C60 1.424 . S
C57 C62 1.245 . S
C57 C63 1.428 . S
C58 C61 1.260 . S
C58 C62 1.477 . S
C58 H76 0.932 . S
C59 C60 1.384 . S
C59 C61 1.479 . S
C59 H77 0.929 . S
C60 C57 1.424 . S
C60 C59 1.384 . S
C60 H78 0.928 . S
C61 C58 1.260 . S
C61 C59 1.479 . S
C62 C57 1.245 . S
C62 C58 1.477 . S
C62 H79 0.932 . S
C63 U46 2.882 . S
C63 C57 1.428 . S
C63 O66 1.301 . S
C63 O67 1.282 . S
O64 U46 2.441 . S
O64 C50 1.249 . S
O65 U46 2.420 . S
O65 C50 1.202 . S
O66 U46 2.455 . S
O66 C63 1.301 . S
O67 U46 2.449 . S
O67 C63 1.282 . S
H68 C41 0.931 . S
H69 C43 0.929 . S
H70 C44 0.930 . S
H71 C45 0.931 . S
H72 C52 0.932 . S
H73 C53 0.930 . S
H74 C54 0.929 . S
H75 C56 0.930 . S
H76 C58 0.932 . S
H77 C59 0.929 . S
H78 C60 0.928 . S
H79 C62 0.932 . S
C80 C81 1.264 . S
C80 C85 1.479 . S
C80 C90 1.465 . S
C81 C80 1.264 . S
C81 C83 1.339 . S
C81 H108 0.931 . S
C82 C83 1.395 . S
C82 C84 1.320 . S
C83 C81 1.339 . S
C83 C82 1.395 . S
C83 H109 0.929 . S
C84 C82 1.320 . S
C84 C85 1.405 . S
C84 H110 0.930 . S
C85 C80 1.479 . S
C85 C84 1.405 . S
C85 H111 0.931 . S
U86 O87 2.454 . S
U86 O88 2.458 . S
U86 C89 2.984 . S
U86 C90 2.847 . S
U86 C103 2.882 . S
U86 O104 2.441 . S
U86 O105 2.420 . S
U86 O106 2.455 . S
U86 O107 2.449 . S
O87 U86 2.454 . S
O87 C89 1.353 . S
O88 U86 2.458 . S
O88 C89 1.286 . S
C89 U86 2.984 . S
C89 O87 1.353 . S
C89 O88 1.286 . S
C89 C91 1.363 . S
C90 C80 1.465 . S
C90 U86 2.847 . S
C90 O104 1.249 . S
C90 O105 1.202 . S
C91 C89 1.363 . S
C91 C93 1.408 . S
C91 C96 1.342 . S
C92 C93 1.310 . S
C92 C95 1.461 . S
C92 H112 0.932 . S
C93 C91 1.408 . S
C93 C92 1.310 . S
C93 H113 0.930 . S
C94 C95 1.474 . S
C94 C96 1.285 . S
C94 H114 0.929 . S
C95 C92 1.461 . S
C95 C94 1.474 . S
C96 C91 1.342 . S
C96 C94 1.285 . S
C96 H115 0.930 . S
C97 C100 1.424 . S
C97 C102 1.245 . S
C97 C103 1.428 . S
C98 C101 1.260 . S
C98 C102 1.477 . S
C98 H116 0.932 . S
C99 C100 1.384 . S
C99 C101 1.479 . S
C99 H117 0.929 . S
C100 C97 1.424 . S
C100 C99 1.384 . S
C100 H118 0.928 . S
C101 C98 1.260 . S
C101 C99 1.479 . S
C102 C97 1.245 . S
C102 C98 1.477 . S
C102 H119 0.932 . S
C103 U86 2.882 . S
C103 C97 1.428 . S
C103 O106 1.301 . S
C103 O107 1.282 . S
O104 U86 2.441 . S
O104 C90 1.249 . S
O105 U86 2.420 . S
O105 C90 1.202 . S
O106 U86 2.455 . S
O106 C103 1.301 . S
O107 U86 2.449 . S
O107 C103 1.282 . S
H108 C81 0.931 . S
H109 C83 0.929 . S
H110 C84 0.930 . S
H111 C85 0.931 . S
H112 C92 0.932 . S
H113 C93 0.930 . S
H114 C94 0.929 . S
H115 C96 0.930 . S
H116 C98 0.932 . S
H117 C99 0.929 . S
H118 C100 0.928 . S
H119 C102 0.932 . S
C120 C121 1.264 . S
C120 C125 1.479 . S
C120 C130 1.465 . S
C121 C120 1.264 . S
C121 C123 1.339 . S
C121 H148 0.931 . S
C122 C123 1.395 . S
C122 C124 1.320 . S
C123 C121 1.339 . S
C123 C122 1.395 . S
C123 H149 0.929 . S
C124 C122 1.320 . S
C124 C125 1.405 . S
C124 H150 0.930 . S
C125 C120 1.479 . S
C125 C124 1.405 . S
C125 H151 0.931 . S
U126 O127 2.454 1_554 S
U126 O128 2.458 . S
U126 C129 2.984 . S
U126 C130 2.847 1_554 S
U126 C143 2.882 . S
U126 O144 2.441 1_554 S
U126 O145 2.420 1_554 S
U126 O146 2.455 . S
U126 O147 2.449 . S
O127 U126 2.454 1_556 S
O127 C129 1.353 1_556 S
O128 U126 2.458 . S
O128 C129 1.286 . S
C129 U126 2.984 . S
C129 O127 1.353 1_554 S
C129 O128 1.286 . S
C129 C131 1.363 . S
C130 C120 1.465 . S
C130 U126 2.847 1_556 S
C130 O144 1.249 . S
C130 O145 1.202 . S
C131 C129 1.363 . S
C131 C133 1.408 1_554 S
C131 C136 1.342 . S
C132 C133 1.310 . S
C132 C135 1.461 1_556 S
C132 H152 0.932 . S
C133 C131 1.408 1_556 S
C133 C132 1.310 . S
C133 H153 0.930 . S
C134 C135 1.474 . S
C134 C136 1.285 . S
C134 H154 0.929 . S
C135 C132 1.461 1_554 S
C135 C134 1.474 . S
C136 C131 1.342 . S
C136 C134 1.285 . S
C136 H155 0.930 . S
C137 C140 1.424 . S
C137 C142 1.245 . S
C137 C143 1.428 . S
C138 C141 1.260 . S
C138 C142 1.477 . S
C138 H156 0.932 . S
C139 C140 1.384 . S
C139 C141 1.479 . S
C139 H157 0.929 . S
C140 C137 1.424 . S
C140 C139 1.384 . S
C140 H158 0.928 . S
C141 C138 1.260 . S
C141 C139 1.479 . S
C142 C137 1.245 . S
C142 C138 1.477 . S
C142 H159 0.932 . S
C143 U126 2.882 . S
C143 C137 1.428 . S
C143 O146 1.301 . S
C143 O147 1.282 . S
O144 U126 2.441 1_556 S
O144 C130 1.249 . S
O145 U126 2.420 1_556 S
O145 C130 1.202 . S
O146 U126 2.455 . S
O146 C143 1.301 . S
O147 U126 2.449 . S
O147 C143 1.282 . S
H148 C121 0.931 . S
H149 C123 0.929 . S
H150 C124 0.930 . S
H151 C125 0.931 . S
H152 C132 0.932 . S
H153 C133 0.930 . S
H154 C134 0.929 . S
H155 C136 0.930 . S
H156 C138 0.932 . S
H157 C139 0.929 . S
H158 C140 0.928 . S
H159 C142 0.932 . S
C160 C161 1.264 . S
C160 C165 1.479 . S
C160 C170 1.465 . S
C161 C160 1.264 . S
C161 C163 1.339 . S
C161 H188 0.931 . S
C162 C163 1.395 . S
C162 C164 1.320 . S
C163 C161 1.339 . S
C163 C162 1.395 . S
C163 H189 0.929 . S
C164 C162 1.320 . S
C164 C165 1.405 . S
C164 H190 0.930 . S
C165 C160 1.479 . S
C165 C164 1.405 . S
C165 H191 0.931 . S
U166 O167 2.454 . S
U166 O168 2.458 . S
U166 C169 2.984 . S
U166 C170 2.847 . S
U166 C183 2.882 . S
U166 O184 2.441 . S
U166 O185 2.420 . S
U166 O186 2.455 . S
U166 O187 2.449 . S
O167 U166 2.454 . S
O167 C169 1.353 . S
O168 U166 2.458 . S
O168 C169 1.286 . S
C169 U166 2.984 . S
C169 O167 1.353 . S
C169 O168 1.286 . S
C169 C171 1.363 . S
C170 C160 1.465 . S
C170 U166 2.847 . S
C170 O184 1.249 . S
C170 O185 1.202 . S
C171 C169 1.363 . S
C171 C173 1.408 . S
C171 C176 1.342 . S
C172 C173 1.310 . S
C172 C175 1.461 . S
C172 H192 0.932 . S
C173 C171 1.408 . S
C173 C172 1.310 . S
C173 H193 0.930 . S
C174 C175 1.474 . S
C174 C176 1.285 . S
C174 H194 0.929 . S
C175 C172 1.461 . S
C175 C174 1.474 . S
C176 C171 1.342 . S
C176 C174 1.285 . S
C176 H195 0.930 . S
C177 C180 1.424 . S
C177 C182 1.245 . S
C177 C183 1.428 . S
C178 C181 1.260 . S
C178 C182 1.477 . S
C178 H196 0.932 . S
C179 C180 1.384 . S
C179 C181 1.479 . S
C179 H197 0.929 . S
C180 C177 1.424 . S
C180 C179 1.384 . S
C180 H198 0.928 . S
C181 C178 1.260 . S
C181 C179 1.479 . S
C182 C177 1.245 . S
C182 C178 1.477 . S
C182 H199 0.932 . S
C183 U166 2.882 . S
C183 C177 1.428 . S
C183 O186 1.301 . S
C183 O187 1.282 . S
O184 U166 2.441 . S
O184 C170 1.249 . S
O185 U166 2.420 . S
O185 C170 1.202 . S
O186 U166 2.455 . S
O186 C183 1.301 . S
O187 U166 2.449 . S
O187 C183 1.282 . S
H188 C161 0.931 . S
H189 C163 0.929 . S
H190 C164 0.930 . S
H191 C165 0.931 . S
H192 C172 0.932 . S
H193 C173 0.930 . S
H194 C174 0.929 . S
H195 C176 0.930 . S
H196 C178 0.932 . S
H197 C179 0.929 . S
H198 C180 0.928 . S
H199 C182 0.932 . S
C200 C201 1.264 . S
C200 C205 1.479 . S
C200 C210 1.465 . S
C201 C200 1.264 . S
C201 C203 1.339 . S
C201 H228 0.931 . S
C202 C203 1.395 . S
C202 C204 1.320 . S
C203 C201 1.339 . S
C203 C202 1.395 . S
C203 H229 0.929 . S
C204 C202 1.320 . S
C204 C205 1.405 . S
C204 H230 0.930 . S
C205 C200 1.479 . S
C205 C204 1.405 . S
C205 H231 0.931 . S
U206 O207 2.454 . S
U206 O208 2.458 . S
U206 C209 2.984 . S
U206 C210 2.847 . S
U206 C223 2.882 . S
U206 O224 2.441 . S
U206 O225 2.420 . S
U206 O226 2.455 . S
U206 O227 2.449 . S
O207 U206 2.454 . S
O207 C209 1.353 . S
O208 U206 2.458 . S
O208 C209 1.286 . S
C209 U206 2.984 . S
C209 O207 1.353 . S
C209 O208 1.286 . S
C209 C211 1.363 . S
C210 C200 1.465 . S
C210 U206 2.847 . S
C210 O224 1.249 . S
C210 O225 1.202 . S
C211 C209 1.363 . S
C211 C213 1.408 . S
C211 C216 1.342 . S
C212 C213 1.310 . S
C212 C215 1.461 . S
C212 H232 0.932 . S
C213 C211 1.408 . S
C213 C212 1.310 . S
C213 H233 0.930 . S
C214 C215 1.474 . S
C214 C216 1.285 . S
C214 H234 0.929 . S
C215 C212 1.461 . S
C215 C214 1.474 . S
C216 C211 1.342 . S
C216 C214 1.285 . S
C216 H235 0.930 . S
C217 C220 1.424 . S
C217 C222 1.245 . S
C217 C223 1.428 . S
C218 C221 1.260 . S
C218 C222 1.477 . S
C218 H236 0.932 . S
C219 C220 1.384 . S
C219 C221 1.479 . S
C219 H237 0.929 . S
C220 C217 1.424 . S
C220 C219 1.384 . S
C220 H238 0.928 . S
C221 C218 1.260 . S
C221 C219 1.479 . S
C222 C217 1.245 . S
C222 C218 1.477 . S
C222 H239 0.932 . S
C223 U206 2.882 . S
C223 C217 1.428 . S
C223 O226 1.301 . S
C223 O227 1.282 . S
O224 U206 2.441 . S
O224 C210 1.249 . S
O225 U206 2.420 . S
O225 C210 1.202 . S
O226 U206 2.455 . S
O226 C223 1.301 . S
O227 U206 2.449 . S
O227 C223 1.282 . S
H228 C201 0.931 . S
H229 C203 0.929 . S
H230 C204 0.930 . S
H231 C205 0.931 . S
H232 C212 0.932 . S
H233 C213 0.930 . S
H234 C214 0.929 . S
H235 C216 0.930 . S
H236 C218 0.932 . S
H237 C219 0.929 . S
H238 C220 0.928 . S
H239 C222 0.932 . S
H240 C246 0.930 . S
H241 C250 0.930 . S
H242 C255 0.929 . S
H243 C253 0.929 . S
H244 C248 0.929 . S
H245 C254 0.929 . S
C246 H240 0.930 . S
C246 C247 1.367 . S
C246 C254 1.378 . S
C247 C246 1.367 . S
C247 C255 1.433 1_554 S
C248 H244 0.929 . S
C248 C250 1.378 . S
C248 C252 1.350 1_556 S
C249 C252 1.463 1_565 S
C249 C254 1.350 . S
C249 N257 1.427 1_554 S
C250 H241 0.930 . S
C250 C248 1.378 . S
C250 C251 1.367 1_556 S
C251 C250 1.367 1_554 S
C251 C253 1.433 . S
C252 C248 1.350 1_554 S
C252 C249 1.463 1_545 S
C252 N256 1.427 . S
C253 H243 0.929 . S
C253 C251 1.433 . S
C253 N256 1.384 . S
C254 H245 0.929 . S
C254 C246 1.378 . S
C254 C249 1.350 . S
C255 H242 0.929 . S
C255 C247 1.433 1_556 S
C255 N257 1.384 . S
N256 C252 1.427 . S
N256 C253 1.384 . S
N257 C249 1.427 1_556 S
N257 C255 1.384 . S
H258 C264 0.930 . S
H259 C268 0.930 . S
H260 C273 0.929 . S
H261 C271 0.929 . S
H262 C266 0.929 . S
H263 C272 0.929 . S
C264 H258 0.930 . S
C264 C265 1.367 . S
C264 C272 1.378 . S
C265 C264 1.367 . S
C265 C273 1.433 . S
C266 H262 0.929 . S
C266 C268 1.378 . S
C266 C270 1.350 . S
C267 C270 1.463 . S
C267 C272 1.350 . S
C267 N275 1.427 . S
C268 H259 0.930 . S
C268 C266 1.378 . S
C268 C269 1.367 . S
C269 C268 1.367 . S
C269 C271 1.433 . S
C270 C266 1.350 . S
C270 C267 1.463 . S
C270 N274 1.427 . S
C271 H261 0.929 . S
C271 C269 1.433 . S
C271 N274 1.384 . S
C272 H263 0.929 . S
C272 C264 1.378 . S
C272 C267 1.350 . S
C273 H260 0.929 . S
C273 C265 1.433 . S
C273 N275 1.384 . S
N274 C270 1.427 . S
N274 C271 1.384 . S
N275 C267 1.427 . S
N275 C273 1.384 . S
H276 C282 0.930 . S
H277 C286 0.930 . S
H278 C291 0.929 . S
H279 C289 0.929 . S
H280 C284 0.929 . S
H281 C290 0.929 . S
C282 H276 0.930 . S
C282 C283 1.367 . S
C282 C290 1.378 . S
C283 C282 1.367 . S
C283 C291 1.433 . S
C284 H280 0.929 . S
C284 C286 1.378 . S
C284 C288 1.350 . S
C285 C288 1.463 1_455 S
C285 C290 1.350 . S
C285 N293 1.427 . S
C286 H277 0.930 . S
C286 C284 1.378 . S
C286 C287 1.367 . S
C287 C286 1.367 . S
C287 C289 1.433 . S
C288 C284 1.350 . S
C288 C285 1.463 1_655 S
C288 N292 1.427 . S
C289 H279 0.929 . S
C289 C287 1.433 . S
C289 N292 1.384 . S
C290 H281 0.929 . S
C290 C282 1.378 . S
C290 C285 1.350 . S
C291 H278 0.929 . S
C291 C283 1.433 . S
C291 N293 1.384 . S
N292 C288 1.427 . S
N292 C289 1.384 . S
N293 C285 1.427 . S
N293 C291 1.384 . S
H294 C300 0.930 . S
H295 C304 0.930 . S
H296 C309 0.929 . S
H297 C307 0.929 . S
H298 C302 0.929 . S
H299 C308 0.929 . S
C300 H294 0.930 . S
C300 C301 1.367 . S
C300 C308 1.378 . S
C301 C300 1.367 . S
C301 C309 1.433 . S
C302 H298 0.929 . S
C302 C304 1.378 . S
C302 C306 1.350 . S
C303 C306 1.463 . S
C303 C308 1.350 . S
C303 N311 1.427 . S
C304 H295 0.930 . S
C304 C302 1.378 . S
C304 C305 1.367 . S
C305 C304 1.367 . S
C305 C307 1.433 . S
C306 C302 1.350 . S
C306 C303 1.463 . S
C306 N310 1.427 . S
C307 H297 0.929 . S
C307 C305 1.433 . S
C307 N310 1.384 . S
C308 H299 0.929 . S
C308 C300 1.378 . S
C308 C303 1.350 . S
C309 H296 0.929 . S
C309 C301 1.433 . S
C309 N311 1.384 . S
N310 C306 1.427 . S
N310 C307 1.384 . S
N311 C303 1.427 . S
N311 C309 1.384 . S
H312 C318 0.930 . S
H313 C322 0.930 . S
H314 C327 0.929 . S
H315 C325 0.929 . S
H316 C320 0.929 . S
H317 C326 0.929 . S
C318 H312 0.930 . S
C318 C319 1.367 . S
C318 C326 1.378 . S
C319 C318 1.367 . S
C319 C327 1.433 . S
C320 H316 0.929 . S
C320 C322 1.378 . S
C320 C324 1.350 . S
C321 C324 1.463 . S
C321 C326 1.350 . S
C321 N329 1.427 . S
C322 H313 0.930 . S
C322 C320 1.378 . S
C322 C323 1.367 . S
C323 C322 1.367 . S
C323 C325 1.433 . S
C324 C320 1.350 . S
C324 C321 1.463 . S
C324 N328 1.427 . S
C325 H315 0.929 . S
C325 C323 1.433 . S
C325 N328 1.384 . S
C326 H317 0.929 . S
C326 C318 1.378 . S
C326 C321 1.350 . S
C327 H314 0.929 . S
C327 C319 1.433 . S
C327 N329 1.384 . S
N328 C324 1.427 . S
N328 C325 1.384 . S
N329 C321 1.427 . S
N329 C327 1.384 . S
H330 C336 0.930 . S
H331 C340 0.930 . S
H332 C345 0.929 . S
H333 C343 0.929 . S
H334 C338 0.929 1_554 S
H335 C344 0.929 . S
C336 H330 0.930 . S
C336 C337 1.367 . S
C336 C344 1.378 . S
C337 C336 1.367 . S
C337 C345 1.433 . S
C338 H334 0.929 1_556 S
C338 C340 1.378 . S
C338 C342 1.350 . S
C339 C342 1.463 1_554 S
C339 C344 1.350 . S
C339 N347 1.427 . S
C340 H331 0.930 . S
C340 C338 1.378 . S
C340 C341 1.367 . S
C341 C340 1.367 . S
C341 C343 1.433 . S
C342 C338 1.350 . S
C342 C339 1.463 1_556 S
C342 N346 1.427 . S
C343 H333 0.929 . S
C343 C341 1.433 . S
C343 N346 1.384 . S
C344 H335 0.929 . S
C344 C336 1.378 . S
C344 C339 1.350 . S
C345 H332 0.929 . S
C345 C337 1.433 . S
C345 N347 1.384 . S
N346 C342 1.427 . S
N346 C343 1.384 . S
N347 C339 1.427 . S
N347 C345 1.384 . S
H348 C354 0.930 . S
H349 C358 0.930 . S
H350 C363 0.929 . S
H351 C361 0.929 . S
H352 C356 0.929 . S
H353 C362 0.929 . S
C354 H348 0.930 . S
C354 C355 1.367 . S
C354 C362 1.378 . S
C355 C354 1.367 . S
C355 C363 1.433 . S
C356 H352 0.929 . S
C356 C358 1.378 . S
C356 C360 1.350 . S
C357 C360 1.463 . S
C357 C362 1.350 . S
C357 N365 1.427 . S
C358 H349 0.930 . S
C358 C356 1.378 . S
C358 C359 1.367 . S
C359 C358 1.367 . S
C359 C361 1.433 . S
C360 C356 1.350 . S
C360 C357 1.463 . S
C360 N364 1.427 . S
C361 H351 0.929 . S
C361 C359 1.433 . S
C361 N364 1.384 . S
C362 H353 0.929 . S
C362 C354 1.378 . S
C362 C357 1.350 . S
C363 H350 0.929 . S
C363 C355 1.433 . S
C363 N365 1.384 . S
N364 C360 1.427 . S
N364 C361 1.384 . S
N365 C357 1.427 . S
N365 C363 1.384 . S
H366 C372 0.930 . S
H367 C376 0.930 . S
H368 C381 0.929 . S
H369 C379 0.929 . S
H370 C374 0.929 . S
H371 C380 0.929 . S
C372 H366 0.930 . S
C372 C373 1.367 . S
C372 C380 1.378 . S
C373 C372 1.367 . S
C373 C381 1.433 . S
C374 H370 0.929 . S
C374 C376 1.378 . S
C374 C378 1.350 . S
C375 C378 1.463 . S
C375 C380 1.350 . S
C375 N383 1.427 . S
C376 H367 0.930 . S
C376 C374 1.378 . S
C376 C377 1.367 . S
C377 C376 1.367 . S
C377 C379 1.433 . S
C378 C374 1.350 . S
C378 C375 1.463 . S
C378 N382 1.427 . S
C379 H369 0.929 . S
C379 C377 1.433 . S
C379 N382 1.384 . S
C380 H371 0.929 . S
C380 C372 1.378 . S
C380 C375 1.350 . S
C381 H368 0.929 . S
C381 C373 1.433 . S
C381 N383 1.384 . S
N382 C378 1.427 . S
N382 C379 1.384 . S
N383 C375 1.427 . S
N383 C381 1.384 . S
H384 C390 0.930 . S
H385 C394 0.930 . S
H386 C399 0.929 . S
H387 C397 0.929 . S
H388 C392 0.929 . S
H389 C398 0.929 . S
C390 H384 0.930 . S
C390 C391 1.367 . S
C390 C398 1.378 . S
C391 C390 1.367 . S
C391 C399 1.433 . S
C392 H388 0.929 . S
C392 C394 1.378 . S
C392 C396 1.350 . S
C393 C396 1.463 1_556 S
C393 C398 1.350 . S
C393 N401 1.427 . S
C394 H385 0.930 . S
C394 C392 1.378 . S
C394 C395 1.367 . S
C395 C394 1.367 . S
C395 C397 1.433 . S
C396 C392 1.350 . S
C396 C393 1.463 1_554 S
C396 N400 1.427 . S
C397 H387 0.929 . S
C397 C395 1.433 . S
C397 N400 1.384 . S
C398 H389 0.929 . S
C398 C390 1.378 . S
C398 C393 1.350 . S
C399 H386 0.929 . S
C399 C391 1.433 . S
C399 N401 1.384 . S
N400 C396 1.427 . S
N400 C397 1.384 . S
N401 C393 1.427 . S
N401 C399 1.384 . S
C247 C15 1.500 . S
C251 C135 1.499 . S
C265 C175 1.500 . S
C269 C55 1.500 . S
C283 C95 1.504 . S
C287 C215 1.504 . S
C301 C2 1.490 . S
C305 C82 1.488 . S
C319 C42 1.487 . S
C323 C122 1.487 . S
C337 C162 1.491 . S
C341 C101 1.493 . S
C355 C202 1.493 . S
C359 C141 1.490 . S
C373 C181 1.486 . S
C377 C21 1.486 . S
C391 C221 1.493 . S
C395 C61 1.493 . S
