# Generated by pormake.
# Topology wkq, (6)-cn, num edge types: 1
# Building blocks:
#     Node 0, Type 0, BuildingBlock: OJICUG_clean_sbu_0, # of connection points: 6
#     Node 1, Type 0, BuildingBlock: OJICUG_clean_sbu_0, # of connection points: 6
#     Node 2, Type 0, BuildingBlock: OJICUG_clean_sbu_0, # of connection points: 6
#     Node 3, Type 0, BuildingBlock: OJICUG_clean_sbu_0, # of connection points: 6
#     Node 4, Type 0, BuildingBlock: OJICUG_clean_sbu_0, # of connection points: 6
#     Node 5, Type 0, BuildingBlock: OJICUG_clean_sbu_0, # of connection points: 6
#     Node 6, Type 0, BuildingBlock: OJICUG_clean_sbu_0, # of connection points: 6
#     Node 7, Type 0, BuildingBlock: OJICUG_clean_sbu_0, # of connection points: 6
#     Node 8, Type 0, BuildingBlock: OJICUG_clean_sbu_0, # of connection points: 6
#     Node 9, Type 0, BuildingBlock: OJICUG_clean_sbu_0, # of connection points: 6
#     Node 10, Type 0, BuildingBlock: OJICUG_clean_sbu_0, # of connection points: 6
#     Node 11, Type 0, BuildingBlock: OJICUG_clean_sbu_0, # of connection points: 6
#     Edge 12, Type (0, 0), BuildingBlock: EYOCIG_clean_linker_4, # of connection points: 2
#     Edge 13, Type (0, 0), BuildingBlock: EYOCIG_clean_linker_4, # of connection points: 2
#     Edge 14, Type (0, 0), BuildingBlock: EYOCIG_clean_linker_4, # of connection points: 2
#     Edge 15, Type (0, 0), BuildingBlock: EYOCIG_clean_linker_4, # of connection points: 2
#     Edge 16, Type (0, 0), BuildingBlock: EYOCIG_clean_linker_4, # of connection points: 2
#     Edge 17, Type (0, 0), BuildingBlock: EYOCIG_clean_linker_4, # of connection points: 2
#     Edge 18, Type (0, 0), BuildingBlock: EYOCIG_clean_linker_4, # of connection points: 2
#     Edge 19, Type (0, 0), BuildingBlock: EYOCIG_clean_linker_4, # of connection points: 2
#     Edge 20, Type (0, 0), BuildingBlock: EYOCIG_clean_linker_4, # of connection points: 2
#     Edge 21, Type (0, 0), BuildingBlock: EYOCIG_clean_linker_4, # of connection points: 2
#     Edge 22, Type (0, 0), BuildingBlock: EYOCIG_clean_linker_4, # of connection points: 2
#     Edge 23, Type (0, 0), BuildingBlock: EYOCIG_clean_linker_4, # of connection points: 2
#     Edge 24, Type (0, 0), BuildingBlock: EYOCIG_clean_linker_4, # of connection points: 2
#     Edge 25, Type (0, 0), BuildingBlock: EYOCIG_clean_linker_4, # of connection points: 2
#     Edge 26, Type (0, 0), BuildingBlock: EYOCIG_clean_linker_4, # of connection points: 2
#     Edge 27, Type (0, 0), BuildingBlock: EYOCIG_clean_linker_4, # of connection points: 2
#     Edge 28, Type (0, 0), BuildingBlock: EYOCIG_clean_linker_4, # of connection points: 2
#     Edge 29, Type (0, 0), BuildingBlock: EYOCIG_clean_linker_4, # of connection points: 2
#     Edge 30, Type (0, 0), BuildingBlock: EYOCIG_clean_linker_4, # of connection points: 2
#     Edge 31, Type (0, 0), BuildingBlock: EYOCIG_clean_linker_4, # of connection points: 2
#     Edge 32, Type (0, 0), BuildingBlock: EYOCIG_clean_linker_4, # of connection points: 2
#     Edge 33, Type (0, 0), BuildingBlock: EYOCIG_clean_linker_4, # of connection points: 2
#     Edge 34, Type (0, 0), BuildingBlock: EYOCIG_clean_linker_4, # of connection points: 2
#     Edge 35, Type (0, 0), BuildingBlock: EYOCIG_clean_linker_4, # of connection points: 2
#     Edge 36, Type (0, 0), BuildingBlock: EYOCIG_clean_linker_4, # of connection points: 2
#     Edge 37, Type (0, 0), BuildingBlock: EYOCIG_clean_linker_4, # of connection points: 2
#     Edge 38, Type (0, 0), BuildingBlock: EYOCIG_clean_linker_4, # of connection points: 2
#     Edge 39, Type (0, 0), BuildingBlock: EYOCIG_clean_linker_4, # of connection points: 2
#     Edge 40, Type (0, 0), BuildingBlock: EYOCIG_clean_linker_4, # of connection points: 2
#     Edge 41, Type (0, 0), BuildingBlock: EYOCIG_clean_linker_4, # of connection points: 2
#     Edge 42, Type (0, 0), BuildingBlock: EYOCIG_clean_linker_4, # of connection points: 2
#     Edge 43, Type (0, 0), BuildingBlock: EYOCIG_clean_linker_4, # of connection points: 2
#     Edge 44, Type (0, 0), BuildingBlock: EYOCIG_clean_linker_4, # of connection points: 2
#     Edge 45, Type (0, 0), BuildingBlock: EYOCIG_clean_linker_4, # of connection points: 2
#     Edge 46, Type (0, 0), BuildingBlock: EYOCIG_clean_linker_4, # of connection points: 2
#     Edge 47, Type (0, 0), BuildingBlock: EYOCIG_clean_linker_4, # of connection points: 2
# Relax obj value: 0.340
# Max RMSD: 0.275
# Mean RMSD: 0.275
data_MOF--net-wkq--node1-OJICUG_clean_sbu_0--edge1-EYOCIG_clean_linker_4
_symmetry_space_group_name_H-M    P1
_symmetry_Int_Tables_number       1
_symmetry_cell_setting            triclinic
loop_
_symmetry_equiv_pos_as_xyz
'x, y, z'
_cell_length_a     31.023522
_cell_length_b     31.028577
_cell_length_c     29.734486
_cell_angle_alpha  90.005159
_cell_angle_beta   89.996912
_cell_angle_gamma 120.00651
loop_
_atom_site_label
_atom_site_type_symbol
_atom_site_fract_x
_atom_site_fract_y
_atom_site_fract_z
_atom_type_partial_charge
Sc0 Sc 0.21694 0.43643 0.94701 0.0
Sc1 Sc 0.29232 0.47734 0.04364 0.0
Sc2 Sc 0.22153 0.35031 0.02035 0.0
O3 O 0.24373 0.42164 0.0035 0.0
C4 C 0.12123 0.33952 -0.01878 0.0
C5 C 0.2169 0.51412 0.01846 0.0
C6 C 0.21957 0.39309 0.11324 0.0
C7 C 0.32906 0.5241 0.94585 0.0
C8 C 0.24289 0.35207 0.91692 0.0
C9 C 0.33363 0.4071 0.05848 0.0
O10 O 0.14118 0.38306 0.9649 0.0
O11 O 0.2459 0.51018 0.04606 0.0
O12 O 0.19615 0.35867 0.08475 0.0
O13 O 0.29003 0.4928 0.92506 0.0
O14 O 0.24701 0.33931 0.95662 0.0
O15 O 0.34359 0.45006 0.04582 0.0
O16 O 0.22757 0.38249 0.90801 0.0
O17 O 0.33408 0.52449 -0.01177 0.0
O18 O 0.29131 0.36866 0.05247 0.0
O19 O 0.20491 0.4922 -0.01957 0.0
O20 O 0.14625 0.32037 -0.00409 0.0
O21 O 0.25641 0.43557 0.10363 0.0
Sc22 Sc 0.88703 0.21372 0.18705 0.0
Sc23 Sc 0.83076 0.28456 0.21008 0.0
Sc24 Sc 0.79635 0.20901 0.11354 0.0
O25 O 0.83791 0.2359 0.17005 0.0
C26 C 0.9067 0.23492 0.08358 0.0
C27 C 0.94237 0.32587 0.22502 0.0
C28 C 0.82083 0.32114 0.11219 0.0
C29 C 0.84217 0.21194 0.27988 0.0
C30 C 0.79753 0.11336 0.14796 0.0
C31 C 0.71855 0.20907 0.18485 0.0
O32 O 0.92354 0.23902 0.12331 0.0
O33 O 0.90934 0.33581 0.21239 0.0
O34 O 0.81303 0.28205 0.09148 0.0
O35 O 0.85328 0.18852 0.25149 0.0
O36 O 0.77398 0.13328 0.13148 0.0
O37 O 0.75149 0.23819 0.2124 0.0
O38 O 0.84165 0.13839 0.16278 0.0
O39 O 0.8365 0.24873 0.27017 0.0
O40 O 0.72851 0.19696 0.14688 0.0
O41 O 0.93849 0.28355 0.21904 0.0
O42 O 0.86099 0.21966 0.07462 0.0
O43 O 0.82551 0.32626 0.15457 0.0
Sc44 Sc 0.60346 0.78848 0.28029 0.0
Sc45 Sc 0.56238 0.82268 0.37697 0.0
Sc46 Sc 0.68949 0.8791 0.35381 0.0
O47 O 0.61816 0.82995 0.33686 0.0
C48 C 0.70036 0.78968 0.31456 0.0
C49 C 0.52569 0.71055 0.35157 0.0
C50 C 0.64656 0.83411 0.44663 0.0
C51 C 0.51576 0.81287 0.27915 0.0
C52 C 0.68783 0.89887 0.25039 0.0
C53 C 0.6326 0.93427 0.39198 0.0
O54 O 0.65686 0.76613 0.29813 0.0
O55 O 0.52955 0.74343 0.37921 0.0
O56 O 0.68106 0.84528 0.41819 0.0
O57 O 0.54707 0.80517 0.25836 0.0
O58 O 0.70058 0.91567 0.29012 0.0
O59 O 0.58962 0.90122 0.37937 0.0
O60 O 0.65741 0.85316 0.2414 0.0
O61 O 0.51532 0.81744 0.32154 0.0
O62 O 0.67107 0.93046 0.38594 0.0
O63 O 0.54769 0.72058 0.31357 0.0
O64 O 0.71947 0.8338 0.32937 0.0
O65 O 0.60406 0.82841 0.43699 0.0
Sc66 Sc 0.8261 0.68145 0.52043 0.0
Sc67 Sc 0.75533 0.5544 0.54363 0.0
Sc68 Sc 0.83079 0.59539 0.44705 0.0
O69 O 0.80394 0.61013 0.50353 0.0
C70 C 0.80484 0.67975 0.41698 0.0
C71 C 0.71397 0.6246 0.55848 0.0
C72 C 0.71868 0.50771 0.4458 0.0
C73 C 0.828 0.63862 0.61331 0.0
C74 C 0.92646 0.6923 0.48134 0.0
C75 C 0.8308 0.51766 0.51847 0.0
O76 O 0.80067 0.69248 0.45669 0.0
O77 O 0.70404 0.58165 0.5458 0.0
O78 O 0.75772 0.53903 0.42504 0.0
O79 O 0.85143 0.67306 0.58484 0.0
O80 O 0.90653 0.64877 0.46499 0.0
O81 O 0.80176 0.52158 0.54606 0.0
O82 O 0.90141 0.71143 0.49603 0.0
O83 O 0.79118 0.59614 0.60366 0.0
O84 O 0.84281 0.53961 0.48045 0.0
O85 O 0.75629 0.66306 0.55251 0.0
O86 O 0.82017 0.64935 0.40807 0.0
O87 O 0.71362 0.50728 0.48818 0.0
Sc88 Sc 0.25136 0.82282 0.61361 0.0
Sc89 Sc 0.21694 0.74725 0.71012 0.0
Sc90 Sc 0.16069 0.81812 0.68714 0.0
O91 O 0.2098 0.79593 0.67012 0.0
C92 C 0.2502 0.91848 0.64806 0.0
C93 C 0.32915 0.82274 0.6849 0.0
C94 C 0.20552 0.81985 0.77997 0.0
C95 C 0.22688 0.7107 0.61221 0.0
C96 C 0.141 0.79693 0.58367 0.0
C97 C 0.10534 0.70595 0.72506 0.0
O98 O 0.27373 0.89855 0.63156 0.0
O99 O 0.29621 0.79362 0.71245 0.0
O100 O 0.19445 0.8433 0.75158 0.0
O101 O 0.23467 0.7498 0.59152 0.0
O102 O 0.12418 0.79283 0.62341 0.0
O103 O 0.13836 0.69601 0.7124 0.0
O104 O 0.18672 0.81219 0.5747 0.0
O105 O 0.2222 0.70557 0.65459 0.0
O106 O 0.10923 0.74828 0.71911 0.0
O107 O 0.3192 0.83486 0.64694 0.0
O108 O 0.20608 0.89345 0.66289 0.0
O109 O 0.21118 0.78306 0.77023 0.0
Sc110 Sc 0.35829 0.15274 0.85387 0.0
Sc111 Sc 0.48538 0.20913 0.8771 0.0
Sc112 Sc 0.44437 0.24336 0.78039 0.0
O113 O 0.42963 0.20188 0.83695 0.0
C114 C 0.35999 0.13298 0.75045 0.0
C115 C 0.41515 0.09753 0.89205 0.0
C116 C 0.53206 0.21895 0.77929 0.0
C117 C 0.40116 0.19767 0.94672 0.0
C118 C 0.34746 0.24217 0.81461 0.0
C119 C 0.52209 0.32126 0.85172 0.0
O120 O 0.34723 0.11617 0.79018 0.0
O121 O 0.45813 0.13058 0.87946 0.0
O122 O 0.50076 0.22665 0.75849 0.0
O123 O 0.36669 0.18654 0.91825 0.0
O124 O 0.39097 0.26572 0.7982 0.0
O125 O 0.5182 0.28838 0.87937 0.0
O126 O 0.32834 0.19805 0.82942 0.0
O127 O 0.44366 0.20337 0.93709 0.0
O128 O 0.50012 0.31124 0.81371 0.0
O129 O 0.37668 0.10135 0.886 0.0
O130 O 0.39043 0.1787 0.74147 0.0
O131 O 0.53248 0.21439 0.82169 0.0
Sc132 Sc 0.6894 0.81817 0.75915 0.0
Sc133 Sc 0.56229 0.74737 0.73605 0.0
Sc134 Sc 0.60339 0.82291 0.83258 0.0
O135 O 0.61808 0.79601 0.77609 0.0
C136 C 0.68779 0.79697 0.8626 0.0
C137 C 0.63252 0.70603 0.72116 0.0
C138 C 0.51571 0.7108 0.83393 0.0
C139 C 0.64644 0.81998 0.66629 0.0
C140 C 0.70028 0.91854 0.79819 0.0
C141 C 0.52557 0.82284 0.76122 0.0
O142 O 0.7005 0.7928 0.82288 0.0
O143 O 0.58957 0.6961 0.73385 0.0
O144 O 0.54704 0.74987 0.85465 0.0
O145 O 0.68092 0.84343 0.69472 0.0
O146 O 0.65676 0.89862 0.81459 0.0
O147 O 0.52944 0.79377 0.73365 0.0
O148 O 0.71939 0.89349 0.78348 0.0
O149 O 0.60396 0.78317 0.67598 0.0
O150 O 0.54758 0.8349 0.79922 0.0
O151 O 0.67098 0.74835 0.7271 0.0
O152 O 0.65739 0.81231 0.87153 0.0
O153 O 0.51525 0.7057 0.79155 0.0
Sc154 Sc 0.88703 0.68148 0.92579 0.0
Sc155 Sc 0.83059 0.55443 0.90252 0.0
Sc156 Sc 0.79634 0.59543 -0.00078 0.0
O157 O 0.83784 0.61016 0.94268 0.0
C158 C 0.90674 0.67974 0.0292 0.0
C159 C 0.94218 0.6246 0.88755 0.0
C160 C 0.82072 0.50773 0.00031 0.0
C161 C 0.84207 0.63868 0.83294 0.0
C162 C 0.7976 0.69235 0.96502 0.0
C163 C 0.71843 0.51772 0.92788 0.0
O164 O 0.92359 0.69248 -0.01053 0.0
O165 O 0.90913 0.58164 0.90017 0.0
O166 O 0.81304 0.53905 0.02113 0.0
O167 O 0.85322 0.67313 0.86142 0.0
O168 O 0.774 0.64883 -0.01863 0.0
O169 O 0.75133 0.52162 0.90023 0.0
O170 O 0.84177 0.71148 0.9503 0.0
O171 O 0.83637 0.59618 0.84254 0.0
O172 O 0.72845 0.53967 0.96591 0.0
O173 O 0.93838 0.66307 0.8936 0.0
O174 O 0.861 0.64937 0.03815 0.0
O175 O 0.82528 0.50732 0.95792 0.0
Sc176 Sc 0.22152 0.87892 0.09247 0.0
Sc177 Sc 0.29234 0.82264 0.06941 0.0
Sc178 Sc 0.21692 0.78835 0.16603 0.0
O179 O 0.24374 0.82983 0.10947 0.0
C180 C 0.24285 0.89871 0.19592 0.0
C181 C 0.33364 0.93422 0.0544 0.0
C182 C 0.32908 0.81286 0.16727 0.0
C183 C 0.21961 0.83396 -0.00034 0.0
C184 C 0.1212 0.78946 0.13167 0.0
C185 C 0.21691 0.71048 0.09477 0.0
O186 O 0.24691 0.9155 0.15618 0.0
O187 O 0.3436 0.9012 0.067 0.0
O188 O 0.29001 0.80508 0.18802 0.0
O189 O 0.19623 0.84511 0.02807 0.0
O190 O 0.14116 0.76594 0.14814 0.0
O191 O 0.24598 0.74338 0.06717 0.0
O192 O 0.14621 0.83356 0.11683 0.0
O193 O 0.25641 0.8283 0.00935 0.0
O194 O 0.20485 0.72048 0.13274 0.0
O195 O 0.29132 0.93035 0.06041 0.0
O196 O 0.2276 0.85301 0.20491 0.0
O197 O 0.33414 0.81747 0.12489 0.0
Sc198 Sc 0.35826 0.21353 0.25923 0.0
Sc199 Sc 0.48534 0.28436 0.23604 0.0
Sc200 Sc 0.44435 0.20891 0.33262 0.0
O201 O 0.4296 0.23574 0.27613 0.0
C202 C 0.35995 0.23484 0.36267 0.0
C203 C 0.41506 0.32564 0.22116 0.0
C204 C 0.53201 0.32103 0.33387 0.0
C205 C 0.40114 0.21165 0.16636 0.0
C206 C 0.34746 0.11323 0.29832 0.0
C207 C 0.52213 0.20895 0.26122 0.0
O208 O 0.34721 0.23897 0.32296 0.0
O209 O 0.45803 0.3356 0.23384 0.0
O210 O 0.50071 0.28198 0.35463 0.0
O211 O 0.36669 0.18821 0.19482 0.0
O212 O 0.39099 0.13318 0.31468 0.0
O213 O 0.51821 0.23798 0.23363 0.0
O214 O 0.32831 0.13825 0.28363 0.0
O215 O 0.44362 0.24848 0.17601 0.0
O216 O 0.50016 0.19692 0.29923 0.0
O217 O 0.37662 0.28331 0.22714 0.0
O218 O 0.39037 0.21952 0.3716 0.0
O219 O 0.53243 0.32609 0.29149 0.0
Sc220 Sc 0.16073 0.3504 0.42572 0.0
Sc221 Sc 0.21716 0.47744 0.40242 0.0
Sc222 Sc 0.25143 0.43649 0.49913 0.0
O223 O 0.20992 0.42173 0.44259 0.0
C224 C 0.14104 0.35218 0.52913 0.0
C225 C 0.10556 0.40725 0.38748 0.0
C226 C 0.22704 0.52419 0.50021 0.0
C227 C 0.20565 0.39316 0.33286 0.0
C228 C 0.25018 0.33956 0.46497 0.0
C229 C 0.32932 0.51417 0.42776 0.0
O230 O 0.12418 0.33942 0.48941 0.0
O231 O 0.13861 0.45022 0.4001 0.0
O232 O 0.23472 0.49288 0.52102 0.0
O233 O 0.19454 0.35872 0.36135 0.0
O234 O 0.27378 0.38309 0.48131 0.0
O235 O 0.29641 0.51024 0.40011 0.0
O236 O 0.20601 0.32043 0.45023 0.0
O237 O 0.21134 0.43566 0.34245 0.0
O238 O 0.31931 0.49224 0.46579 0.0
O239 O 0.10937 0.36879 0.39354 0.0
O240 O 0.18677 0.38257 0.53808 0.0
O241 O 0.22248 0.52459 0.45781 0.0
Sc242 Sc 0.82622 0.15289 0.59237 0.0
Sc243 Sc 0.75534 0.20913 0.5694 0.0
Sc244 Sc 0.83082 0.24344 0.66597 0.0
O245 O 0.80399 0.20196 0.60942 0.0
C246 C 0.80493 0.13308 0.69582 0.0
C247 C 0.71407 0.09756 0.55436 0.0
C248 C 0.71867 0.21892 0.66729 0.0
C249 C 0.82804 0.19783 0.49958 0.0
C250 C 0.92655 0.24236 0.63155 0.0
C251 C 0.83078 0.3213 0.59475 0.0
O252 O 0.80088 0.1163 0.65607 0.0
O253 O 0.7041 0.13056 0.567 0.0
O254 O 0.75776 0.22671 0.68801 0.0
O255 O 0.85145 0.18671 0.52797 0.0
O256 O 0.90659 0.26586 0.64806 0.0
O257 O 0.80169 0.28839 0.56716 0.0
O258 O 0.90154 0.19826 0.61669 0.0
O259 O 0.79123 0.20348 0.5093 0.0
O260 O 0.84287 0.31131 0.6327 0.0
O261 O 0.7564 0.10145 0.56034 0.0
O262 O 0.82017 0.17878 0.70483 0.0
O263 O 0.71358 0.21429 0.62491 0.0
C264 C 0.19184 0.57917 0.04643 0.0
C265 C 0.20056 0.54861 0.0303 0.0
C266 C 0.19183 0.62034 0.06691 0.0
C267 C 0.20055 0.65963 0.083 0.0
C268 C 0.58722 0.18395 0.23326 0.0
C269 C 0.55664 0.19264 0.24939 0.0
C270 C 0.62841 0.18397 0.21278 0.0
C271 C 0.66771 0.1927 0.19667 0.0
C272 C 0.41947 0.5792 0.39988 0.0
C273 C 0.38017 0.54865 0.41598 0.0
C274 C 0.46066 0.62039 0.37942 0.0
C275 C 0.49122 0.6597 0.36333 0.0
C276 C 0.85585 0.45261 0.54642 0.0
C277 C 0.84713 0.48317 0.5303 0.0
C278 C 0.85585 0.41144 0.56689 0.0
C279 C 0.84714 0.37215 0.58298 0.0
C280 C 0.46048 0.84785 0.73329 0.0
C281 C 0.49106 0.83916 0.74941 0.0
C282 C 0.41929 0.84783 0.71282 0.0
C283 C 0.38 0.83911 0.69671 0.0
C284 C 0.62828 0.45264 0.90004 0.0
C285 C 0.66758 0.48322 0.91613 0.0
C286 C 0.5871 0.41143 0.87958 0.0
C287 C 0.55655 0.37212 0.8635 0.0
C288 C 0.38646 0.39482 0.12122 0.0
C289 C 0.36502 0.40385 0.09217 0.0
C290 C 0.4028 0.37849 0.15844 0.0
C291 C 0.41182 0.35704 0.18749 0.0
C292 C 1.00765 0.37875 0.28763 0.0
C293 C 0.97709 0.35731 0.25863 0.0
C294 C 0.04039 0.39503 0.32481 0.0
C295 C 0.0709 0.404 0.35382 0.0
C296 C 0.66117 0.03227 0.49176 0.0
C297 C 0.68263 0.06283 0.52075 0.0
C298 C 0.64485 0.9995 0.4546 0.0
C299 C 0.63585 0.96897 0.42561 0.0
C300 C 0.64474 0.65314 0.65844 0.0
C301 C 0.63572 0.6746 0.68749 0.0
C302 C 0.66108 0.63682 0.62121 0.0
C303 C 0.68255 0.62781 0.59216 0.0
C304 C 0.04008 0.65307 0.78768 0.0
C305 C 0.07062 0.67451 0.75867 0.0
C306 C 1.00734 0.6368 0.82486 0.0
C307 C 0.97684 0.62783 0.85388 0.0
C308 C 0.40286 0.03229 0.95465 0.0
C309 C 0.41187 0.06283 0.92567 0.0
C310 C 0.38653 0.99951 -0.0082 0.0
C311 C 0.36507 0.96895 0.02079 0.0
C312 C 0.44448 0.63566 0.87891 0.0
C313 C 0.47745 0.67059 0.85932 0.0
C314 C 0.40424 0.59541 0.90097 0.0
C315 C 0.36931 0.56241 0.92052 0.0
C316 C 0.82469 0.43647 0.04516 0.0
C317 C 0.82271 0.46945 0.02562 0.0
C318 C 0.82471 0.39625 0.06721 0.0
C319 C 0.82277 0.36133 0.08679 0.0
C320 C 0.40426 0.81682 0.21221 0.0
C321 C 0.36931 0.81484 0.19264 0.0
C322 C 0.4445 0.81683 0.23427 0.0
C323 C 0.47748 0.81485 0.25382 0.0
C324 C 0.64352 0.43643 0.40087 0.0
C325 C 0.67845 0.46942 0.42044 0.0
C326 C 0.60328 0.39619 0.37881 0.0
C327 C 0.57029 0.36126 0.35923 0.0
C328 C 0.22302 0.63563 0.56717 0.0
C329 C 0.22495 0.67053 0.58679 0.0
C330 C 0.22305 0.59543 0.54508 0.0
C331 C 0.22504 0.56246 0.52551 0.0
C332 C 0.60331 0.21498 0.7344 0.0
C333 C 0.57034 0.21696 0.75397 0.0
C334 C 0.64353 0.21497 0.71231 0.0
C335 C 0.67845 0.21694 0.6927 0.0
C336 C 0.27493 0.31282 0.856 0.0
C337 C 0.25921 0.33271 0.88077 0.0
C338 C 0.29844 0.28913 0.83472 0.0
C339 C 0.32209 0.26921 0.82478 0.0
C340 C 0.97806 0.26697 0.02271 0.0
C341 C 0.94244 0.25126 0.04748 0.0
C342 C 0.02526 0.29049 0.00142 0.0
C343 C 0.06883 0.31414 -0.00855 0.0
C344 C 0.72702 0.97024 0.18953 0.0
C345 C 0.70717 0.93463 0.2143 0.0
C346 C 0.75062 0.01742 0.16821 0.0
C347 C 0.77049 0.06097 0.15819 0.0
C348 C 0.74936 0.74272 0.33474 0.0
C349 C 0.72572 0.76264 0.32477 0.0
C350 C 0.77285 0.71903 0.35605 0.0
C351 C 0.78855 0.69914 0.38083 0.0
C352 C 0.06963 0.76489 0.52282 0.0
C353 C 0.10526 0.7806 0.54758 0.0
C354 C 1.02242 0.74136 0.50154 0.0
C355 C 0.97885 0.7177 0.49157 0.0
C356 C 0.32078 0.06162 0.68959 0.0
C357 C 0.34064 0.09723 0.71435 0.0
C358 C 0.29714 1.01443 0.66828 0.0
C359 C 0.27724 0.97088 0.65828 0.0
C360 C 0.75071 0.74141 0.94482 0.0
C361 C 0.7706 0.71774 0.9548 0.0
C362 C 0.72706 0.76494 0.92351 0.0
C363 C 0.70717 0.78066 0.89873 0.0
C364 C 0.02524 0.74251 0.11145 0.0
C365 C 0.0688 0.76239 0.12146 0.0
C366 C 0.97807 0.7189 0.09011 0.0
C367 C 0.94247 0.69907 0.06531 0.0
C368 C 0.29846 0.01729 0.27806 0.0
C369 C 0.3221 0.06084 0.28806 0.0
C370 C 0.27493 0.9701 0.25676 0.0
C371 C 0.25921 0.93448 0.232 0.0
C372 C 0.32072 0.26692 0.42357 0.0
C373 C 0.34059 0.25119 0.3988 0.0
C374 C 0.29707 0.29048 0.44485 0.0
C375 C 0.27718 0.31416 0.45479 0.0
C376 C 0.0697 0.31299 0.59003 0.0
C377 C 0.10531 0.33284 0.56525 0.0
C378 C 1.02251 0.28935 0.61135 0.0
C379 C 0.97895 0.26944 0.62135 0.0
C380 C 0.77285 0.06167 0.75663 0.0
C381 C 0.78857 0.0973 0.73189 0.0
C382 C 0.74932 1.01448 0.77792 0.0
C383 C 0.72566 0.97092 0.78792 0.0
C384 C 0.20476 0.37713 0.24656 0.0
C385 C 0.20469 0.38155 0.28654 0.0
C386 C 0.20454 0.37711 0.19955 0.0
C387 C 0.20897 0.38151 0.15957 0.0
C388 C 0.84308 0.19712 0.41324 0.0
C389 C 0.83861 0.19698 0.45323 0.0
C390 C 0.84294 0.19696 0.36623 0.0
C391 C 0.84306 0.2014 0.32624 0.0
C392 C 0.66234 0.83495 0.57996 0.0
C393 C 0.65794 0.83051 0.61995 0.0
C394 C 0.66239 0.83481 0.53295 0.0
C395 C 0.65806 0.83497 0.49297 0.0
C396 C 0.84285 0.65461 0.74664 0.0
C397 C 0.84297 0.65024 0.78662 0.0
C398 C 0.84301 0.65458 0.69963 0.0
C399 C 0.83857 0.65017 0.65964 0.0
C400 C 0.2047 0.83479 0.86632 0.0
C401 C 0.2046 0.83036 0.82633 0.0
C402 C 0.20453 0.83464 0.91333 0.0
C403 C 0.20901 0.8348 0.95332 0.0
C404 C 0.38522 0.19684 0.03303 0.0
C405 C 0.3896 0.19675 -0.00695 0.0
C406 C 0.38522 0.19665 0.08004 0.0
C407 C 0.3896 0.20108 0.12003 0.0
loop_
_geom_bond_atom_site_label_1
_geom_bond_atom_site_label_2
_geom_bond_distance
_geom_bond_site_symmetry_2
_ccdc_geom_bond_type
Sc0 O3 2.025 1_556 S
Sc0 O10 2.105 . S
Sc0 O13 2.105 . S
Sc0 O16 2.105 . S
Sc0 O19 2.105 1_556 S
Sc1 O3 2.025 . S
Sc1 O11 2.105 . S
Sc1 O15 2.105 . S
Sc1 O17 2.105 . S
Sc1 O21 2.105 . S
Sc2 O3 2.025 . S
Sc2 O12 2.105 . S
Sc2 O14 2.105 . S
Sc2 O18 2.105 . S
Sc2 O20 2.105 . S
O3 Sc0 2.025 1_554 S
O3 Sc1 2.025 . S
O3 Sc2 2.025 . S
C4 O10 1.268 1_554 S
C4 O20 1.268 . S
C5 O11 1.268 . S
C5 O19 1.268 . S
C6 O12 1.268 . S
C6 O21 1.268 . S
C7 O13 1.268 . S
C7 O17 1.268 1_556 S
C8 O14 1.268 1_556 S
C8 O16 1.268 . S
C9 O15 1.268 . S
C9 O18 1.268 . S
O10 Sc0 2.105 . S
O10 C4 1.268 1_556 S
O11 Sc1 2.105 . S
O11 C5 1.268 . S
O12 Sc2 2.105 . S
O12 C6 1.268 . S
O13 Sc0 2.105 . S
O13 C7 1.268 . S
O14 Sc2 2.105 . S
O14 C8 1.268 1_554 S
O15 Sc1 2.105 . S
O15 C9 1.268 . S
O16 Sc0 2.105 . S
O16 C8 1.268 . S
O17 Sc1 2.105 . S
O17 C7 1.268 1_554 S
O18 Sc2 2.105 . S
O18 C9 1.268 . S
O19 Sc0 2.105 1_554 S
O19 C5 1.268 . S
O20 Sc2 2.105 . S
O20 C4 1.268 . S
O21 Sc1 2.105 . S
O21 C6 1.268 . S
Sc22 O25 2.025 . S
Sc22 O32 2.105 . S
Sc22 O35 2.105 . S
Sc22 O38 2.105 . S
Sc22 O41 2.105 . S
Sc23 O25 2.025 . S
Sc23 O33 2.105 . S
Sc23 O37 2.105 . S
Sc23 O39 2.105 . S
Sc23 O43 2.105 . S
Sc24 O25 2.025 . S
Sc24 O34 2.105 . S
Sc24 O36 2.105 . S
Sc24 O40 2.105 . S
Sc24 O42 2.105 . S
O25 Sc22 2.025 . S
O25 Sc23 2.025 . S
O25 Sc24 2.025 . S
C26 O32 1.268 . S
C26 O42 1.268 . S
C27 O33 1.268 . S
C27 O41 1.268 . S
C28 O34 1.268 . S
C28 O43 1.268 . S
C29 O35 1.268 . S
C29 O39 1.268 . S
C30 O36 1.268 . S
C30 O38 1.268 . S
C31 O37 1.268 . S
C31 O40 1.268 . S
O32 Sc22 2.105 . S
O32 C26 1.268 . S
O33 Sc23 2.105 . S
O33 C27 1.268 . S
O34 Sc24 2.105 . S
O34 C28 1.268 . S
O35 Sc22 2.105 . S
O35 C29 1.268 . S
O36 Sc24 2.105 . S
O36 C30 1.268 . S
O37 Sc23 2.105 . S
O37 C31 1.268 . S
O38 Sc22 2.105 . S
O38 C30 1.268 . S
O39 Sc23 2.105 . S
O39 C29 1.268 . S
O40 Sc24 2.105 . S
O40 C31 1.268 . S
O41 Sc22 2.105 . S
O41 C27 1.268 . S
O42 Sc24 2.105 . S
O42 C26 1.268 . S
O43 Sc23 2.105 . S
O43 C28 1.268 . S
Sc44 O47 2.025 . S
Sc44 O54 2.105 . S
Sc44 O57 2.105 . S
Sc44 O60 2.105 . S
Sc44 O63 2.105 . S
Sc45 O47 2.025 . S
Sc45 O55 2.105 . S
Sc45 O59 2.105 . S
Sc45 O61 2.105 . S
Sc45 O65 2.105 . S
Sc46 O47 2.025 . S
Sc46 O56 2.105 . S
Sc46 O58 2.105 . S
Sc46 O62 2.105 . S
Sc46 O64 2.105 . S
O47 Sc44 2.025 . S
O47 Sc45 2.025 . S
O47 Sc46 2.025 . S
C48 O54 1.268 . S
C48 O64 1.268 . S
C49 O55 1.268 . S
C49 O63 1.268 . S
C50 O56 1.268 . S
C50 O65 1.268 . S
C51 O57 1.268 . S
C51 O61 1.268 . S
C52 O58 1.268 . S
C52 O60 1.268 . S
C53 O59 1.268 . S
C53 O62 1.268 . S
O54 Sc44 2.105 . S
O54 C48 1.268 . S
O55 Sc45 2.105 . S
O55 C49 1.268 . S
O56 Sc46 2.105 . S
O56 C50 1.268 . S
O57 Sc44 2.105 . S
O57 C51 1.268 . S
O58 Sc46 2.105 . S
O58 C52 1.268 . S
O59 Sc45 2.105 . S
O59 C53 1.268 . S
O60 Sc44 2.105 . S
O60 C52 1.268 . S
O61 Sc45 2.105 . S
O61 C51 1.268 . S
O62 Sc46 2.105 . S
O62 C53 1.268 . S
O63 Sc44 2.105 . S
O63 C49 1.268 . S
O64 Sc46 2.105 . S
O64 C48 1.268 . S
O65 Sc45 2.105 . S
O65 C50 1.268 . S
Sc66 O69 2.025 . S
Sc66 O76 2.105 . S
Sc66 O79 2.105 . S
Sc66 O82 2.105 . S
Sc66 O85 2.105 . S
Sc67 O69 2.025 . S
Sc67 O77 2.105 . S
Sc67 O81 2.105 . S
Sc67 O83 2.105 . S
Sc67 O87 2.105 . S
Sc68 O69 2.025 . S
Sc68 O78 2.105 . S
Sc68 O80 2.105 . S
Sc68 O84 2.105 . S
Sc68 O86 2.105 . S
O69 Sc66 2.025 . S
O69 Sc67 2.025 . S
O69 Sc68 2.025 . S
C70 O76 1.268 . S
C70 O86 1.268 . S
C71 O77 1.268 . S
C71 O85 1.268 . S
C72 O78 1.268 . S
C72 O87 1.268 . S
C73 O79 1.268 . S
C73 O83 1.268 . S
C74 O80 1.268 . S
C74 O82 1.268 . S
C75 O81 1.268 . S
C75 O84 1.268 . S
O76 Sc66 2.105 . S
O76 C70 1.268 . S
O77 Sc67 2.105 . S
O77 C71 1.268 . S
O78 Sc68 2.105 . S
O78 C72 1.268 . S
O79 Sc66 2.105 . S
O79 C73 1.268 . S
O80 Sc68 2.105 . S
O80 C74 1.268 . S
O81 Sc67 2.105 . S
O81 C75 1.268 . S
O82 Sc66 2.105 . S
O82 C74 1.268 . S
O83 Sc67 2.105 . S
O83 C73 1.268 . S
O84 Sc68 2.105 . S
O84 C75 1.268 . S
O85 Sc66 2.105 . S
O85 C71 1.268 . S
O86 Sc68 2.105 . S
O86 C70 1.268 . S
O87 Sc67 2.105 . S
O87 C72 1.268 . S
Sc88 O91 2.025 . S
Sc88 O98 2.105 . S
Sc88 O101 2.105 . S
Sc88 O104 2.105 . S
Sc88 O107 2.105 . S
Sc89 O91 2.025 . S
Sc89 O99 2.105 . S
Sc89 O103 2.105 . S
Sc89 O105 2.105 . S
Sc89 O109 2.105 . S
Sc90 O91 2.025 . S
Sc90 O100 2.105 . S
Sc90 O102 2.105 . S
Sc90 O106 2.105 . S
Sc90 O108 2.105 . S
O91 Sc88 2.025 . S
O91 Sc89 2.025 . S
O91 Sc90 2.025 . S
C92 O98 1.268 . S
C92 O108 1.268 . S
C93 O99 1.268 . S
C93 O107 1.268 . S
C94 O100 1.268 . S
C94 O109 1.268 . S
C95 O101 1.268 . S
C95 O105 1.268 . S
C96 O102 1.268 . S
C96 O104 1.268 . S
C97 O103 1.268 . S
C97 O106 1.268 . S
O98 Sc88 2.105 . S
O98 C92 1.268 . S
O99 Sc89 2.105 . S
O99 C93 1.268 . S
O100 Sc90 2.105 . S
O100 C94 1.268 . S
O101 Sc88 2.105 . S
O101 C95 1.268 . S
O102 Sc90 2.105 . S
O102 C96 1.268 . S
O103 Sc89 2.105 . S
O103 C97 1.268 . S
O104 Sc88 2.105 . S
O104 C96 1.268 . S
O105 Sc89 2.105 . S
O105 C95 1.268 . S
O106 Sc90 2.105 . S
O106 C97 1.268 . S
O107 Sc88 2.105 . S
O107 C93 1.268 . S
O108 Sc90 2.105 . S
O108 C92 1.268 . S
O109 Sc89 2.105 . S
O109 C94 1.268 . S
Sc110 O113 2.025 . S
Sc110 O120 2.105 . S
Sc110 O123 2.105 . S
Sc110 O126 2.105 . S
Sc110 O129 2.105 . S
Sc111 O113 2.025 . S
Sc111 O121 2.105 . S
Sc111 O125 2.105 . S
Sc111 O127 2.105 . S
Sc111 O131 2.105 . S
Sc112 O113 2.025 . S
Sc112 O122 2.105 . S
Sc112 O124 2.105 . S
Sc112 O128 2.105 . S
Sc112 O130 2.105 . S
O113 Sc110 2.025 . S
O113 Sc111 2.025 . S
O113 Sc112 2.025 . S
C114 O120 1.268 . S
C114 O130 1.268 . S
C115 O121 1.268 . S
C115 O129 1.268 . S
C116 O122 1.268 . S
C116 O131 1.268 . S
C117 O123 1.268 . S
C117 O127 1.268 . S
C118 O124 1.268 . S
C118 O126 1.268 . S
C119 O125 1.268 . S
C119 O128 1.268 . S
O120 Sc110 2.105 . S
O120 C114 1.268 . S
O121 Sc111 2.105 . S
O121 C115 1.268 . S
O122 Sc112 2.105 . S
O122 C116 1.268 . S
O123 Sc110 2.105 . S
O123 C117 1.268 . S
O124 Sc112 2.105 . S
O124 C118 1.268 . S
O125 Sc111 2.105 . S
O125 C119 1.268 . S
O126 Sc110 2.105 . S
O126 C118 1.268 . S
O127 Sc111 2.105 . S
O127 C117 1.268 . S
O128 Sc112 2.105 . S
O128 C119 1.268 . S
O129 Sc110 2.105 . S
O129 C115 1.268 . S
O130 Sc112 2.105 . S
O130 C114 1.268 . S
O131 Sc111 2.105 . S
O131 C116 1.268 . S
Sc132 O135 2.025 . S
Sc132 O142 2.105 . S
Sc132 O145 2.105 . S
Sc132 O148 2.105 . S
Sc132 O151 2.105 . S
Sc133 O135 2.025 . S
Sc133 O143 2.105 . S
Sc133 O147 2.105 . S
Sc133 O149 2.105 . S
Sc133 O153 2.105 . S
Sc134 O135 2.025 . S
Sc134 O144 2.105 . S
Sc134 O146 2.105 . S
Sc134 O150 2.105 . S
Sc134 O152 2.105 . S
O135 Sc132 2.025 . S
O135 Sc133 2.025 . S
O135 Sc134 2.025 . S
C136 O142 1.268 . S
C136 O152 1.268 . S
C137 O143 1.268 . S
C137 O151 1.268 . S
C138 O144 1.268 . S
C138 O153 1.268 . S
C139 O145 1.268 . S
C139 O149 1.268 . S
C140 O146 1.268 . S
C140 O148 1.268 . S
C141 O147 1.268 . S
C141 O150 1.268 . S
O142 Sc132 2.105 . S
O142 C136 1.268 . S
O143 Sc133 2.105 . S
O143 C137 1.268 . S
O144 Sc134 2.105 . S
O144 C138 1.268 . S
O145 Sc132 2.105 . S
O145 C139 1.268 . S
O146 Sc134 2.105 . S
O146 C140 1.268 . S
O147 Sc133 2.105 . S
O147 C141 1.268 . S
O148 Sc132 2.105 . S
O148 C140 1.268 . S
O149 Sc133 2.105 . S
O149 C139 1.268 . S
O150 Sc134 2.105 . S
O150 C141 1.268 . S
O151 Sc132 2.105 . S
O151 C137 1.268 . S
O152 Sc134 2.105 . S
O152 C136 1.268 . S
O153 Sc133 2.105 . S
O153 C138 1.268 . S
Sc154 O157 2.025 . S
Sc154 O164 2.105 . S
Sc154 O167 2.105 . S
Sc154 O170 2.105 . S
Sc154 O173 2.105 . S
Sc155 O157 2.025 . S
Sc155 O165 2.105 . S
Sc155 O169 2.105 . S
Sc155 O171 2.105 . S
Sc155 O175 2.105 . S
Sc156 O157 2.025 1_554 S
Sc156 O166 2.105 . S
Sc156 O168 2.105 . S
Sc156 O172 2.105 1_554 S
Sc156 O174 2.105 . S
O157 Sc154 2.025 . S
O157 Sc155 2.025 . S
O157 Sc156 2.025 1_556 S
C158 O164 1.268 1_554 S
C158 O174 1.268 . S
C159 O165 1.268 . S
C159 O173 1.268 . S
C160 O166 1.268 . S
C160 O175 1.268 1_554 S
C161 O167 1.268 . S
C161 O171 1.268 . S
C162 O168 1.268 1_556 S
C162 O170 1.268 . S
C163 O169 1.268 . S
C163 O172 1.268 . S
O164 Sc154 2.105 . S
O164 C158 1.268 1_556 S
O165 Sc155 2.105 . S
O165 C159 1.268 . S
O166 Sc156 2.105 . S
O166 C160 1.268 . S
O167 Sc154 2.105 . S
O167 C161 1.268 . S
O168 Sc156 2.105 . S
O168 C162 1.268 1_554 S
O169 Sc155 2.105 . S
O169 C163 1.268 . S
O170 Sc154 2.105 . S
O170 C162 1.268 . S
O171 Sc155 2.105 . S
O171 C161 1.268 . S
O172 Sc156 2.105 1_556 S
O172 C163 1.268 . S
O173 Sc154 2.105 . S
O173 C159 1.268 . S
O174 Sc156 2.105 . S
O174 C158 1.268 . S
O175 Sc155 2.105 . S
O175 C160 1.268 1_556 S
Sc176 O179 2.025 . S
Sc176 O186 2.105 . S
Sc176 O189 2.105 . S
Sc176 O192 2.105 . S
Sc176 O195 2.105 . S
Sc177 O179 2.025 . S
Sc177 O187 2.105 . S
Sc177 O191 2.105 . S
Sc177 O193 2.105 . S
Sc177 O197 2.105 . S
Sc178 O179 2.025 . S
Sc178 O188 2.105 . S
Sc178 O190 2.105 . S
Sc178 O194 2.105 . S
Sc178 O196 2.105 . S
O179 Sc176 2.025 . S
O179 Sc177 2.025 . S
O179 Sc178 2.025 . S
C180 O186 1.268 . S
C180 O196 1.268 . S
C181 O187 1.268 . S
C181 O195 1.268 . S
C182 O188 1.268 . S
C182 O197 1.268 . S
C183 O189 1.268 . S
C183 O193 1.268 . S
C184 O190 1.268 . S
C184 O192 1.268 . S
C185 O191 1.268 . S
C185 O194 1.268 . S
O186 Sc176 2.105 . S
O186 C180 1.268 . S
O187 Sc177 2.105 . S
O187 C181 1.268 . S
O188 Sc178 2.105 . S
O188 C182 1.268 . S
O189 Sc176 2.105 . S
O189 C183 1.268 . S
O190 Sc178 2.105 . S
O190 C184 1.268 . S
O191 Sc177 2.105 . S
O191 C185 1.268 . S
O192 Sc176 2.105 . S
O192 C184 1.268 . S
O193 Sc177 2.105 . S
O193 C183 1.268 . S
O194 Sc178 2.105 . S
O194 C185 1.268 . S
O195 Sc176 2.105 . S
O195 C181 1.268 . S
O196 Sc178 2.105 . S
O196 C180 1.268 . S
O197 Sc177 2.105 . S
O197 C182 1.268 . S
Sc198 O201 2.025 . S
Sc198 O208 2.105 . S
Sc198 O211 2.105 . S
Sc198 O214 2.105 . S
Sc198 O217 2.105 . S
Sc199 O201 2.025 . S
Sc199 O209 2.105 . S
Sc199 O213 2.105 . S
Sc199 O215 2.105 . S
Sc199 O219 2.105 . S
Sc200 O201 2.025 . S
Sc200 O210 2.105 . S
Sc200 O212 2.105 . S
Sc200 O216 2.105 . S
Sc200 O218 2.105 . S
O201 Sc198 2.025 . S
O201 Sc199 2.025 . S
O201 Sc200 2.025 . S
C202 O208 1.268 . S
C202 O218 1.268 . S
C203 O209 1.268 . S
C203 O217 1.268 . S
C204 O210 1.268 . S
C204 O219 1.268 . S
C205 O211 1.268 . S
C205 O215 1.268 . S
C206 O212 1.268 . S
C206 O214 1.268 . S
C207 O213 1.268 . S
C207 O216 1.268 . S
O208 Sc198 2.105 . S
O208 C202 1.268 . S
O209 Sc199 2.105 . S
O209 C203 1.268 . S
O210 Sc200 2.105 . S
O210 C204 1.268 . S
O211 Sc198 2.105 . S
O211 C205 1.268 . S
O212 Sc200 2.105 . S
O212 C206 1.268 . S
O213 Sc199 2.105 . S
O213 C207 1.268 . S
O214 Sc198 2.105 . S
O214 C206 1.268 . S
O215 Sc199 2.105 . S
O215 C205 1.268 . S
O216 Sc200 2.105 . S
O216 C207 1.268 . S
O217 Sc198 2.105 . S
O217 C203 1.268 . S
O218 Sc200 2.105 . S
O218 C202 1.268 . S
O219 Sc199 2.105 . S
O219 C204 1.268 . S
Sc220 O223 2.025 . S
Sc220 O230 2.105 . S
Sc220 O233 2.105 . S
Sc220 O236 2.105 . S
Sc220 O239 2.105 . S
Sc221 O223 2.025 . S
Sc221 O231 2.105 . S
Sc221 O235 2.105 . S
Sc221 O237 2.105 . S
Sc221 O241 2.105 . S
Sc222 O223 2.025 . S
Sc222 O232 2.105 . S
Sc222 O234 2.105 . S
Sc222 O238 2.105 . S
Sc222 O240 2.105 . S
O223 Sc220 2.025 . S
O223 Sc221 2.025 . S
O223 Sc222 2.025 . S
C224 O230 1.268 . S
C224 O240 1.268 . S
C225 O231 1.268 . S
C225 O239 1.268 . S
C226 O232 1.268 . S
C226 O241 1.268 . S
C227 O233 1.268 . S
C227 O237 1.268 . S
C228 O234 1.268 . S
C228 O236 1.268 . S
C229 O235 1.268 . S
C229 O238 1.268 . S
O230 Sc220 2.105 . S
O230 C224 1.268 . S
O231 Sc221 2.105 . S
O231 C225 1.268 . S
O232 Sc222 2.105 . S
O232 C226 1.268 . S
O233 Sc220 2.105 . S
O233 C227 1.268 . S
O234 Sc222 2.105 . S
O234 C228 1.268 . S
O235 Sc221 2.105 . S
O235 C229 1.268 . S
O236 Sc220 2.105 . S
O236 C228 1.268 . S
O237 Sc221 2.105 . S
O237 C227 1.268 . S
O238 Sc222 2.105 . S
O238 C229 1.268 . S
O239 Sc220 2.105 . S
O239 C225 1.268 . S
O240 Sc222 2.105 . S
O240 C224 1.268 . S
O241 Sc221 2.105 . S
O241 C226 1.268 . S
Sc242 O245 2.025 . S
Sc242 O252 2.105 . S
Sc242 O255 2.105 . S
Sc242 O258 2.105 . S
Sc242 O261 2.105 . S
Sc243 O245 2.025 . S
Sc243 O253 2.105 . S
Sc243 O257 2.105 . S
Sc243 O259 2.105 . S
Sc243 O263 2.105 . S
Sc244 O245 2.025 . S
Sc244 O254 2.105 . S
Sc244 O256 2.105 . S
Sc244 O260 2.105 . S
Sc244 O262 2.105 . S
O245 Sc242 2.025 . S
O245 Sc243 2.025 . S
O245 Sc244 2.025 . S
C246 O252 1.268 . S
C246 O262 1.268 . S
C247 O253 1.268 . S
C247 O261 1.268 . S
C248 O254 1.268 . S
C248 O263 1.268 . S
C249 O255 1.268 . S
C249 O259 1.268 . S
C250 O256 1.268 . S
C250 O258 1.268 . S
C251 O257 1.268 . S
C251 O260 1.268 . S
O252 Sc242 2.105 . S
O252 C246 1.268 . S
O253 Sc243 2.105 . S
O253 C247 1.268 . S
O254 Sc244 2.105 . S
O254 C248 1.268 . S
O255 Sc242 2.105 . S
O255 C249 1.268 . S
O256 Sc244 2.105 . S
O256 C250 1.268 . S
O257 Sc243 2.105 . S
O257 C251 1.268 . S
O258 Sc242 2.105 . S
O258 C250 1.268 . S
O259 Sc243 2.105 . S
O259 C249 1.268 . S
O260 Sc244 2.105 . S
O260 C251 1.268 . S
O261 Sc242 2.105 . S
O261 C247 1.268 . S
O262 Sc244 2.105 . S
O262 C246 1.268 . S
O263 Sc243 2.105 . S
O263 C248 1.268 . S
C264 C265 1.170 . S
C264 C266 1.380 . S
C265 C264 1.170 . S
C266 C264 1.380 . S
C266 C267 1.170 . S
C267 C266 1.170 . S
C268 C269 1.170 . S
C268 C270 1.380 . S
C269 C268 1.170 . S
C270 C268 1.380 . S
C270 C271 1.170 . S
C271 C270 1.170 . S
C272 C273 1.170 . S
C272 C274 1.380 . S
C273 C272 1.170 . S
C274 C272 1.380 . S
C274 C275 1.170 . S
C275 C274 1.170 . S
C276 C277 1.170 . S
C276 C278 1.380 . S
C277 C276 1.170 . S
C278 C276 1.380 . S
C278 C279 1.170 . S
C279 C278 1.170 . S
C280 C281 1.170 . S
C280 C282 1.380 . S
C281 C280 1.170 . S
C282 C280 1.380 . S
C282 C283 1.170 . S
C283 C282 1.170 . S
C284 C285 1.170 . S
C284 C286 1.380 . S
C285 C284 1.170 . S
C286 C284 1.380 . S
C286 C287 1.170 . S
C287 C286 1.170 . S
C288 C289 1.170 . S
C288 C290 1.380 . S
C289 C288 1.170 . S
C290 C288 1.380 . S
C290 C291 1.170 . S
C291 C290 1.170 . S
C292 C293 1.170 . S
C292 C294 1.380 1_655 S
C293 C292 1.170 . S
C294 C292 1.380 1_455 S
C294 C295 1.170 . S
C295 C294 1.170 . S
C296 C297 1.170 . S
C296 C298 1.380 1_545 S
C297 C296 1.170 . S
C298 C296 1.380 1_565 S
C298 C299 1.170 . S
C299 C298 1.170 . S
C300 C301 1.170 . S
C300 C302 1.380 . S
C301 C300 1.170 . S
C302 C300 1.380 . S
C302 C303 1.170 . S
C303 C302 1.170 . S
C304 C305 1.170 . S
C304 C306 1.380 1_455 S
C305 C304 1.170 . S
C306 C304 1.380 1_655 S
C306 C307 1.170 . S
C307 C306 1.170 . S
C308 C309 1.170 . S
C308 C310 1.380 1_546 S
C309 C308 1.170 . S
C310 C308 1.380 1_564 S
C310 C311 1.170 . S
C311 C310 1.170 . S
C312 C313 1.170 . S
C312 C314 1.380 . S
C313 C312 1.170 . S
C314 C312 1.380 . S
C314 C315 1.170 . S
C315 C314 1.170 . S
C316 C317 1.170 . S
C316 C318 1.380 . S
C317 C316 1.170 . S
C318 C316 1.380 . S
C318 C319 1.170 . S
C319 C318 1.170 . S
C320 C321 1.170 . S
C320 C322 1.380 . S
C321 C320 1.170 . S
C322 C320 1.380 . S
C322 C323 1.170 . S
C323 C322 1.170 . S
C324 C325 1.170 . S
C324 C326 1.380 . S
C325 C324 1.170 . S
C326 C324 1.380 . S
C326 C327 1.170 . S
C327 C326 1.170 . S
C328 C329 1.170 . S
C328 C330 1.380 . S
C329 C328 1.170 . S
C330 C328 1.380 . S
C330 C331 1.170 . S
C331 C330 1.170 . S
C332 C333 1.170 . S
C332 C334 1.380 . S
C333 C332 1.170 . S
C334 C332 1.380 . S
C334 C335 1.170 . S
C335 C334 1.170 . S
C336 C337 1.170 . S
C336 C338 1.380 . S
C337 C336 1.170 . S
C338 C336 1.380 . S
C338 C339 1.170 . S
C339 C338 1.170 . S
C340 C341 1.170 . S
C340 C342 1.380 1_655 S
C341 C340 1.170 . S
C342 C340 1.380 1_455 S
C342 C343 1.170 . S
C343 C342 1.170 . S
C344 C345 1.170 . S
C344 C346 1.380 1_565 S
C345 C344 1.170 . S
C346 C344 1.380 1_545 S
C346 C347 1.170 . S
C347 C346 1.170 . S
C348 C349 1.170 . S
C348 C350 1.380 . S
C349 C348 1.170 . S
C350 C348 1.380 . S
C350 C351 1.170 . S
C351 C350 1.170 . S
C352 C353 1.170 . S
C352 C354 1.380 1_455 S
C353 C352 1.170 . S
C354 C352 1.380 1_655 S
C354 C355 1.170 . S
C355 C354 1.170 . S
C356 C357 1.170 . S
C356 C358 1.380 1_545 S
C357 C356 1.170 . S
C358 C356 1.380 1_565 S
C358 C359 1.170 . S
C359 C358 1.170 . S
C360 C361 1.170 . S
C360 C362 1.380 . S
C361 C360 1.170 . S
C362 C360 1.380 . S
C362 C363 1.170 . S
C363 C362 1.170 . S
C364 C365 1.170 . S
C364 C366 1.380 1_455 S
C365 C364 1.170 . S
C366 C364 1.380 1_655 S
C366 C367 1.170 . S
C367 C366 1.170 . S
C368 C369 1.170 . S
C368 C370 1.380 1_545 S
C369 C368 1.170 . S
C370 C368 1.380 1_565 S
C370 C371 1.170 . S
C371 C370 1.170 . S
C372 C373 1.170 . S
C372 C374 1.380 . S
C373 C372 1.170 . S
C374 C372 1.380 . S
C374 C375 1.170 . S
C375 C374 1.170 . S
C376 C377 1.170 . S
C376 C378 1.380 1_455 S
C377 C376 1.170 . S
C378 C376 1.380 1_655 S
C378 C379 1.170 . S
C379 C378 1.170 . S
C380 C381 1.170 . S
C380 C382 1.380 1_545 S
C381 C380 1.170 . S
C382 C380 1.380 1_565 S
C382 C383 1.170 . S
C383 C382 1.170 . S
C384 C385 1.170 . S
C384 C386 1.380 . S
C385 C384 1.170 . S
C386 C384 1.380 . S
C386 C387 1.170 . S
C387 C386 1.170 . S
C388 C389 1.170 . S
C388 C390 1.380 . S
C389 C388 1.170 . S
C390 C388 1.380 . S
C390 C391 1.170 . S
C391 C390 1.170 . S
C392 C393 1.170 . S
C392 C394 1.380 . S
C393 C392 1.170 . S
C394 C392 1.380 . S
C394 C395 1.170 . S
C395 C394 1.170 . S
C396 C397 1.170 . S
C396 C398 1.380 . S
C397 C396 1.170 . S
C398 C396 1.380 . S
C398 C399 1.170 . S
C399 C398 1.170 . S
C400 C401 1.170 . S
C400 C402 1.380 . S
C401 C400 1.170 . S
C402 C400 1.380 . S
C402 C403 1.170 . S
C403 C402 1.170 . S
C404 C405 1.170 . S
C404 C406 1.380 . S
C405 C404 1.170 . S
C406 C404 1.380 . S
C406 C407 1.170 . S
C407 C406 1.170 . S
C265 C5 1.499 . S
C267 C185 1.480 . S
C269 C207 1.493 . S
C271 C31 1.480 . S
C273 C229 1.503 . S
C275 C49 1.512 . S
C277 C75 1.512 . S
C279 C251 1.491 . S
C281 C141 1.480 . S
C283 C93 1.496 . S
C285 C163 1.512 . S
C287 C119 1.503 . S
C289 C9 1.046 . S
C291 C203 1.096 . S
C293 C27 1.108 . S
C295 C225 1.047 . S
C297 C247 1.071 . S
C299 C53 1.070 . S
C301 C137 1.043 . S
C303 C71 1.099 . S
C305 C97 1.115 . S
C307 C159 1.036 . S
C309 C115 1.100 . S
C311 C181 1.042 . S
C313 C138 1.337 . S
C315 C7 1.338 . S
C317 C160 1.373 . S
C319 C28 1.373 . S
C321 C182 1.348 . S
C323 C51 1.349 . S
C325 C72 1.351 . S
C327 C204 1.353 . S
C329 C95 1.371 . S
C331 C226 1.370 . S
C333 C116 1.352 . S
C335 C248 1.350 . S
C337 C8 1.777 . S
C339 C118 1.745 . S
C341 C26 1.761 . S
C343 C4 1.771 . S
C345 C52 1.765 . S
C347 C30 1.773 . S
C349 C48 1.752 . S
C351 C70 1.784 . S
C353 C96 1.775 . S
C355 C74 1.767 . S
C357 C114 1.762 . S
C359 C92 1.772 . S
C361 C162 1.767 . S
C363 C136 1.774 . S
C365 C184 1.754 . S
C367 C158 1.784 . S
C369 C206 1.759 . S
C371 C180 1.781 . S
C373 C202 1.782 . S
C375 C228 1.744 . S
C377 C224 1.775 . S
C379 C250 1.766 . S
C381 C246 1.784 . S
C383 C140 1.752 . S
C385 C227 0.730 . S
C387 C6 0.704 . S
C389 C249 0.719 . S
C391 C29 0.772 . S
C393 C139 0.690 . S
C395 C50 0.761 . S
C397 C161 0.758 . S
C399 C73 0.690 . S
C401 C94 0.690 . S
C403 C183 0.760 1_556 S
C405 C117 0.724 1_554 S
C407 C205 0.709 . S
