# Generated by pormake.
# Topology fnh, (5)-cn, num edge types: 1
# Building blocks:
#     Node 0, Type 0, BuildingBlock: BEQFEK_clean_sbu_0, # of connection points: 5
#     Node 1, Type 0, BuildingBlock: BEQFEK_clean_sbu_0, # of connection points: 5
#     Node 2, Type 0, BuildingBlock: BEQFEK_clean_sbu_0, # of connection points: 5
#     Node 3, Type 0, BuildingBlock: BEQFEK_clean_sbu_0, # of connection points: 5
#     Node 4, Type 0, BuildingBlock: BEQFEK_clean_sbu_0, # of connection points: 5
#     Node 5, Type 0, BuildingBlock: BEQFEK_clean_sbu_0, # of connection points: 5
#     Node 6, Type 0, BuildingBlock: BEQFEK_clean_sbu_0, # of connection points: 5
#     Node 7, Type 0, BuildingBlock: BEQFEK_clean_sbu_0, # of connection points: 5
#     Node 8, Type 0, BuildingBlock: BEQFEK_clean_sbu_0, # of connection points: 5
#     Node 9, Type 0, BuildingBlock: BEQFEK_clean_sbu_0, # of connection points: 5
#     Node 10, Type 0, BuildingBlock: BEQFEK_clean_sbu_0, # of connection points: 5
#     Node 11, Type 0, BuildingBlock: BEQFEK_clean_sbu_0, # of connection points: 5
#     Node 12, Type 0, BuildingBlock: BEQFEK_clean_sbu_0, # of connection points: 5
#     Node 13, Type 0, BuildingBlock: BEQFEK_clean_sbu_0, # of connection points: 5
#     Node 14, Type 0, BuildingBlock: BEQFEK_clean_sbu_0, # of connection points: 5
#     Node 15, Type 0, BuildingBlock: BEQFEK_clean_sbu_0, # of connection points: 5
#     Node 16, Type 0, BuildingBlock: BEQFEK_clean_sbu_0, # of connection points: 5
#     Node 17, Type 0, BuildingBlock: BEQFEK_clean_sbu_0, # of connection points: 5
#     Edge 18, Type (0, 0), BuildingBlock: EZIPEK_clean_linker_0, # of connection points: 2
#     Edge 19, Type (0, 0), BuildingBlock: EZIPEK_clean_linker_0, # of connection points: 2
#     Edge 20, Type (0, 0), BuildingBlock: EZIPEK_clean_linker_0, # of connection points: 2
#     Edge 21, Type (0, 0), BuildingBlock: EZIPEK_clean_linker_0, # of connection points: 2
#     Edge 22, Type (0, 0), BuildingBlock: EZIPEK_clean_linker_0, # of connection points: 2
#     Edge 23, Type (0, 0), BuildingBlock: EZIPEK_clean_linker_0, # of connection points: 2
#     Edge 24, Type (0, 0), BuildingBlock: EZIPEK_clean_linker_0, # of connection points: 2
#     Edge 25, Type (0, 0), BuildingBlock: EZIPEK_clean_linker_0, # of connection points: 2
#     Edge 26, Type (0, 0), BuildingBlock: EZIPEK_clean_linker_0, # of connection points: 2
#     Edge 27, Type (0, 0), BuildingBlock: EZIPEK_clean_linker_0, # of connection points: 2
#     Edge 28, Type (0, 0), BuildingBlock: EZIPEK_clean_linker_0, # of connection points: 2
#     Edge 29, Type (0, 0), BuildingBlock: EZIPEK_clean_linker_0, # of connection points: 2
#     Edge 30, Type (0, 0), BuildingBlock: EZIPEK_clean_linker_0, # of connection points: 2
#     Edge 31, Type (0, 0), BuildingBlock: EZIPEK_clean_linker_0, # of connection points: 2
#     Edge 32, Type (0, 0), BuildingBlock: EZIPEK_clean_linker_0, # of connection points: 2
#     Edge 33, Type (0, 0), BuildingBlock: EZIPEK_clean_linker_0, # of connection points: 2
#     Edge 34, Type (0, 0), BuildingBlock: EZIPEK_clean_linker_0, # of connection points: 2
#     Edge 35, Type (0, 0), BuildingBlock: EZIPEK_clean_linker_0, # of connection points: 2
#     Edge 36, Type (0, 0), BuildingBlock: EZIPEK_clean_linker_0, # of connection points: 2
#     Edge 37, Type (0, 0), BuildingBlock: EZIPEK_clean_linker_0, # of connection points: 2
#     Edge 38, Type (0, 0), BuildingBlock: EZIPEK_clean_linker_0, # of connection points: 2
#     Edge 39, Type (0, 0), BuildingBlock: EZIPEK_clean_linker_0, # of connection points: 2
#     Edge 40, Type (0, 0), BuildingBlock: EZIPEK_clean_linker_0, # of connection points: 2
#     Edge 41, Type (0, 0), BuildingBlock: EZIPEK_clean_linker_0, # of connection points: 2
#     Edge 42, Type (0, 0), BuildingBlock: EZIPEK_clean_linker_0, # of connection points: 2
#     Edge 43, Type (0, 0), BuildingBlock: EZIPEK_clean_linker_0, # of connection points: 2
#     Edge 44, Type (0, 0), BuildingBlock: EZIPEK_clean_linker_0, # of connection points: 2
#     Edge 45, Type (0, 0), BuildingBlock: EZIPEK_clean_linker_0, # of connection points: 2
#     Edge 46, Type (0, 0), BuildingBlock: EZIPEK_clean_linker_0, # of connection points: 2
#     Edge 47, Type (0, 0), BuildingBlock: EZIPEK_clean_linker_0, # of connection points: 2
#     Edge 48, Type (0, 0), BuildingBlock: EZIPEK_clean_linker_0, # of connection points: 2
#     Edge 49, Type (0, 0), BuildingBlock: EZIPEK_clean_linker_0, # of connection points: 2
#     Edge 50, Type (0, 0), BuildingBlock: EZIPEK_clean_linker_0, # of connection points: 2
#     Edge 51, Type (0, 0), BuildingBlock: EZIPEK_clean_linker_0, # of connection points: 2
#     Edge 52, Type (0, 0), BuildingBlock: EZIPEK_clean_linker_0, # of connection points: 2
#     Edge 53, Type (0, 0), BuildingBlock: EZIPEK_clean_linker_0, # of connection points: 2
#     Edge 54, Type (0, 0), BuildingBlock: EZIPEK_clean_linker_0, # of connection points: 2
#     Edge 55, Type (0, 0), BuildingBlock: EZIPEK_clean_linker_0, # of connection points: 2
#     Edge 56, Type (0, 0), BuildingBlock: EZIPEK_clean_linker_0, # of connection points: 2
#     Edge 57, Type (0, 0), BuildingBlock: EZIPEK_clean_linker_0, # of connection points: 2
#     Edge 58, Type (0, 0), BuildingBlock: EZIPEK_clean_linker_0, # of connection points: 2
#     Edge 59, Type (0, 0), BuildingBlock: EZIPEK_clean_linker_0, # of connection points: 2
#     Edge 60, Type (0, 0), BuildingBlock: EZIPEK_clean_linker_0, # of connection points: 2
#     Edge 61, Type (0, 0), BuildingBlock: EZIPEK_clean_linker_0, # of connection points: 2
#     Edge 62, Type (0, 0), BuildingBlock: EZIPEK_clean_linker_0, # of connection points: 2
# Relax obj value: 0.337
# Max RMSD: 0.096
# Mean RMSD: 0.096
data_MOF--net-fnh--node1-BEQFEK_clean_sbu_0--edge1-EZIPEK_clean_linker_0
_symmetry_space_group_name_H-M    P1
_symmetry_Int_Tables_number       1
_symmetry_cell_setting            triclinic
loop_
_symmetry_equiv_pos_as_xyz
'x, y, z'
_cell_length_a     51.788719
_cell_length_b     51.700023
_cell_length_c     18.144281
_cell_angle_alpha  90.318165
_cell_angle_beta   89.810398
_cell_angle_gamma 120.23085
loop_
_atom_site_label
_atom_site_type_symbol
_atom_site_fract_x
_atom_site_fract_y
_atom_site_fract_z
_atom_type_partial_charge
Co0 Co 0.13447 0.22186 0.35857 0.0
Co1 Co 0.09543 0.22707 0.26138 0.0
C2 C 0.0688 0.19923 0.41356 0.0
O3 O 0.09513 0.20373 0.42466 0.0
O4 O 0.06366 0.20586 0.34923 0.0
C5 C 0.1434 0.18117 0.41733 0.0
O6 O 0.12191 0.16497 0.37043 0.0
C7 C 0.05339 0.2407 0.19604 0.0
C8 C 0.06468 0.24402 0.07762 0.0
C9 C 0.04486 0.24499 0.12735 0.0
N10 N 0.07592 0.23534 0.18687 0.0
N11 N 0.08358 0.23883 0.1166 0.0
C12 C 0.04222 0.24432 0.26952 0.0
H13 H 0.06141 0.25711 0.3073 0.0
H14 H 0.02765 0.22206 0.29454 0.0
H15 H 0.0293 0.25602 0.26399 0.0
C16 C 0.15136 0.19538 0.2213 0.0
N17 N 0.13514 0.20587 0.25786 0.0
N18 N 0.1145 0.2044 0.21382 0.0
C19 C 0.11583 0.19074 0.14922 0.0
C20 C 0.13987 0.18474 0.14995 0.0
C21 C 0.17842 0.19633 0.25301 0.0
H22 H 0.19146 0.21741 0.28467 0.0
H23 H 0.17144 0.17707 0.29046 0.0
H24 H 0.19273 0.1949 0.20953 0.0
O25 O 0.15758 0.26696 0.36404 0.0
O26 O 0.12611 0.27114 0.29172 0.0
H27 H 0.10563 0.19926 0.04123 0.0
H28 H 0.08811 0.16056 0.06402 0.0
C29 C 0.09449 0.18298 0.08648 0.0
H30 H 0.07407 0.18311 0.10448 0.0
H31 H 0.10213 0.2385 0.09552 0.0
O32 O 0.15518 0.20932 0.41784 0.0
C33 C 0.14949 0.28357 0.33221 0.0
Co34 Co 0.81596 0.92878 0.36337 0.0
Co35 Co 0.80335 0.88025 0.26623 0.0
C36 C 0.83644 0.88289 0.41244 0.0
O37 O 0.83509 0.90679 0.42275 0.0
O38 O 0.82582 0.86922 0.35052 0.0
C39 C 0.85671 0.98426 0.40489 0.0
O40 O 0.87242 0.9783 0.35797 0.0
C41 C 0.7967 0.83271 0.16649 0.0
C42 C 0.74993 0.81474 0.13001 0.0
C43 C 0.77366 0.80976 0.12611 0.0
N44 N 0.78677 0.85016 0.19348 0.0
N45 N 0.759 0.83963 0.17041 0.0
C46 C 0.8276 0.83824 0.17985 0.0
H47 H 0.84276 0.86197 0.19583 0.0
H48 H 0.8363 0.83274 0.12981 0.0
H49 H 0.82709 0.8239 0.22571 0.0
C50 C 0.83838 0.96782 0.21327 0.0
N51 N 0.8283 0.94253 0.25646 0.0
N52 N 0.82556 0.92065 0.21408 0.0
C53 C 0.83529 0.93194 0.14427 0.0
C54 C 0.84449 0.96297 0.14023 0.0
C55 C 0.83808 0.99553 0.23585 0.0
H56 H 0.81561 0.98906 0.25713 0.0
H57 H 0.85524 1.00809 0.27802 0.0
H58 H 0.84278 1.01083 0.18866 0.0
O59 O 0.77062 0.90808 0.37958 0.0
O60 O 0.76249 0.87079 0.30769 0.0
H61 H 0.81023 0.89672 0.06753 0.0
H62 H 0.84509 0.92672 1.0312 0.0
C63 C 0.83397 0.91291 0.08055 0.0
H64 H 0.84472 0.8998 0.09595 0.0
H65 H 0.74575 0.84886 0.18368 0.0
O66 O 0.83051 0.96414 0.42078 0.0
C67 C 0.75222 0.88303 0.3504 0.0
Co68 Co 0.11421 0.8997 0.35536 0.0
Co69 Co 0.163 0.93573 0.25771 0.0
C70 C 0.1611 0.96724 0.4017 0.0
O71 O 0.13758 0.94163 0.41289 0.0
O72 O 0.17483 0.97065 0.33962 0.0
C73 C 0.05865 0.88533 0.39666 0.0
O74 O 0.06435 0.90663 0.34907 0.0
C75 C 0.21576 0.96538 0.15492 0.0
C76 C 0.21212 0.92373 0.1105 0.0
C77 C 0.22993 0.95446 0.10883 0.0
N78 N 0.19121 0.94196 0.1831 0.0
N79 N 0.18934 0.91724 0.15614 0.0
C80 C 0.2238 0.9972 0.16742 0.0
H81 H 0.20672 0.99831 0.20227 0.0
H82 H 0.22548 1.00814 0.11378 0.0
H83 H 0.24585 1.00958 0.1951 0.0
C84 C 0.07521 0.88308 0.20506 0.0
N85 N 0.10051 0.89818 0.24852 0.0
N86 N 0.12237 0.9175 0.2067 0.0
C87 C 0.11107 0.91622 0.13709 0.0
C88 C 0.08006 0.89438 0.13248 0.0
C89 C 0.04744 0.85494 0.22689 0.0
H90 H 0.05377 0.83894 0.24846 0.0
H91 H 0.0348 0.85957 0.26877 0.0
H92 H 0.03232 0.84421 0.17921 0.0
O93 O 0.13388 0.87427 0.37258 0.0
O94 O 0.17155 0.90492 0.30504 0.0
H95 H 0.13772 0.92047 0.04329 0.0
H96 H 0.11687 0.93954 0.03523 0.0
C97 C 0.13002 0.93404 0.07371 0.0
H98 H 0.14996 0.9548 0.09375 0.0
H99 H 0.17219 0.89565 0.1685 0.0
O100 O 0.0789 0.87968 0.41309 0.0
C101 C 0.15942 0.88191 0.34576 0.0
Co102 Co 0.22506 0.12704 0.70632 0.0
Co103 Co 0.23104 0.08922 0.80488 0.0
C104 C 0.20403 0.06121 0.65191 0.0
O105 O 0.20788 0.08733 0.64018 0.0
O106 O 0.21079 0.05671 0.71683 0.0
C107 C 0.18443 0.13625 0.64576 0.0
O108 O 0.16777 0.11508 0.69275 0.0
C109 C 0.24684 0.04922 0.87252 0.0
C110 C 0.2508 0.06202 0.99014 0.0
C111 C 0.25268 0.04232 0.9415 0.0
N112 N 0.23987 0.07072 0.88055 0.0
N113 N 0.24362 0.07927 0.95029 0.0
C114 C 0.25109 0.0381 0.79959 0.0
H115 H 0.26309 0.05725 0.76139 0.0
H116 H 0.22903 0.02255 0.77478 0.0
H117 H 0.26383 0.02624 0.80575 0.0
C118 C 0.19845 0.14449 0.84252 0.0
N119 N 0.2087 0.12797 0.80628 0.0
N120 N 0.2076 0.10771 0.85107 0.0
C121 C 0.19431 0.10948 0.91575 0.0
C122 C 0.18829 0.13353 0.91436 0.0
C123 C 0.19967 0.17167 0.81056 0.0
H124 H 0.22115 0.18495 0.78096 0.0
H125 H 0.18101 0.16481 0.7712 0.0
H126 H 0.19756 0.18577 0.85362 0.0
O127 O 0.27008 0.15166 0.70382 0.0
O128 O 0.27503 0.12099 0.77714 0.0
H129 H 0.20313 0.10036 1.02462 0.0
H130 H 0.16449 0.08196 1.00126 0.0
C131 C 0.18699 0.08863 0.97931 0.0
H132 H 0.18755 0.06827 0.96237 0.0
H133 H 0.24261 0.09767 0.97017 0.0
O134 O 0.21241 0.14719 0.64553 0.0
C135 C 0.28712 0.14458 0.73747 0.0
Co136 Co 0.90754 0.10631 0.69285 0.0
Co137 Co 0.9403 0.1503 0.80353 0.0
C138 C 0.97556 0.15354 0.66223 0.0
O139 O 0.95035 0.1308 0.64541 0.0
O140 O 0.97766 0.16514 0.72693 0.0
C141 C 0.89337 0.08926 0.55703 0.0
O142 O 0.90562 0.11839 0.5513 0.0
C143 C 0.96614 0.20047 0.91327 0.0
C144 C 0.92359 0.18776 0.97037 0.0
C145 C 0.95308 0.21036 0.96593 0.0
N146 N 0.94494 0.17376 0.88764 0.0
N147 N 0.91968 0.16646 0.92206 0.0
C148 C 0.99815 0.21505 0.88979 0.0
H149 H 1.00189 0.19965 0.85446 0.0
H150 H 1.01291 0.22142 0.93879 0.0
H151 H 1.00414 0.2356 0.85808 0.0
C152 C 0.88874 0.0594 0.82317 0.0
N153 N 0.90389 0.08716 0.79086 0.0
N154 N 0.9195 0.10709 0.84149 0.0
C155 C 0.91465 0.09235 0.9077 0.0
C156 C 0.89458 0.06089 0.90017 0.0
C157 C 0.86829 0.03156 0.78118 0.0
H158 H 0.87796 0.03206 0.72616 0.0
H159 H 0.86418 1.01128 0.81174 0.0
H160 H 0.84666 0.03066 0.77255 0.0
O161 O 0.88332 0.12771 0.683 0.0
O162 O 0.91245 0.16344 0.75823 0.0
H163 H 0.93094 0.0937 1.01769 0.0
H164 H 0.94891 0.12927 0.96926 0.0
C165 C 0.92749 0.10823 0.979 0.0
H166 H 0.91155 0.11395 1.00488 0.0
H167 H 0.89946 0.14693 0.91147 0.0
O168 O 0.88979 0.07684 0.61933 0.0
C169 C 0.89064 0.15261 0.71355 0.0
Co170 Co 0.93552 0.81563 0.68418 0.0
Co171 Co 0.89329 0.80638 0.79592 0.0
C172 C 0.88814 0.83618 0.65204 0.0
O173 O 0.91043 0.83311 0.63418 0.0
O174 O 0.87804 0.82819 0.71839 0.0
C175 C 0.95362 0.81624 0.54898 0.0
O176 O 0.92477 0.79798 0.54183 0.0
C177 C 0.84976 0.7956 0.91393 0.0
C178 C 0.84748 0.7551 0.96176 0.0
C179 C 0.83478 0.77295 0.96536 0.0
N180 N 0.87032 0.7911 0.88134 0.0
N181 N 0.86929 0.76731 0.91128 0.0
C182 C 0.84413 0.82036 0.89384 0.0
H183 H 0.86493 0.83977 0.87231 0.0
H184 H 0.83586 0.82731 0.94224 0.0
H185 H 0.82701 0.81249 0.8497 0.0
C186 C 0.98344 0.84413 0.8139 0.0
N187 N 0.95566 0.83205 0.78181 0.0
N188 N 0.93623 0.82834 0.83292 0.0
C189 C 0.95116 0.83797 0.89909 0.0
C190 C 0.98238 0.84868 0.89121 0.0
C191 C 1.01082 0.85058 0.77154 0.0
H192 H 1.01045 0.82924 0.76093 0.0
H193 H 1.01084 0.86047 0.71738 0.0
H194 H 0.03141 0.86593 0.80269 0.0
O195 O 0.91354 0.76961 0.67724 0.0
O196 O 0.87907 0.76416 0.75466 0.0
H197 H 0.95137 0.84898 1.01433 0.0
H198 H 0.91812 0.84134 0.96301 0.0
C199 C 0.93547 0.835 0.97053 0.0
H200 H 0.92408 0.81124 0.98805 0.0
H201 H 0.88271 0.75857 0.89493 0.0
O202 O 0.96516 0.82663 0.61149 0.0
C203 C 0.88915 0.75232 0.71016 0.0
Co204 Co 0.80987 0.55903 0.70809 0.0
Co205 Co 0.7668 0.55917 0.61313 0.0
C206 C 0.74337 0.53371 0.76799 0.0
O207 O 0.77034 0.53938 0.77775 0.0
O208 O 0.73717 0.53921 0.7037 0.0
C209 C 0.82958 0.52286 0.74998 0.0
O210 O 0.80717 0.50543 0.70655 0.0
C211 C 0.72249 0.56958 0.54923 0.0
C212 C 0.73012 0.56803 0.42972 0.0
C213 C 0.71217 0.57148 0.48082 0.0
N214 N 0.74461 0.56366 0.53923 0.0
N215 N 0.74983 0.56379 0.46791 0.0
C216 C 0.7132 0.57563 0.6226 0.0
H217 H 0.73327 0.58936 0.65702 0.0
H218 H 0.69909 0.55422 0.6518 0.0
H219 H 0.70032 0.58734 0.61615 0.0
C220 C 0.82776 0.53667 0.56156 0.0
N221 N 0.8102 0.54394 0.60392 0.0
N222 N 0.78602 0.53705 0.56694 0.0
C223 C 0.78577 0.52169 0.50415 0.0
C224 C 0.81297 0.52101 0.49598 0.0
C225 C 0.8599 0.54783 0.57851 0.0
H226 H 0.86982 0.57023 0.60482 0.0
H227 H 0.86176 0.53225 0.61684 0.0
H228 H 0.87261 0.54949 0.52765 0.0
O229 O 0.83003 0.604 0.71108 0.0
O230 O 0.79765 0.60469 0.63473 0.0
H231 H 0.76004 0.51659 0.4063 0.0
H232 H 0.75605 0.48252 0.44134 0.0
C233 C 0.75841 0.50435 0.45753 0.0
H234 H 0.73823 0.50063 0.48814 0.0
H235 H 0.76743 0.56207 0.44539 0.0
O236 O 0.83532 0.54929 0.76271 0.0
C237 C 0.82113 0.61901 0.67472 0.0
Co238 Co 0.48246 0.26136 0.70157 0.0
Co239 Co 0.46783 0.21238 0.60188 0.0
C240 C 0.50247 0.21404 0.74198 0.0
O241 O 0.50121 0.23789 0.75432 0.0
O242 O 0.49119 0.20036 0.68036 0.0
C243 C 0.52507 0.31635 0.74434 0.0
O244 O 0.54011 0.31026 0.69559 0.0
C245 C 0.44918 0.16288 0.49161 0.0
C246 C 0.40734 0.16043 0.45428 0.0
C247 C 0.42468 0.14746 0.44495 0.0
N248 N 0.44612 0.18383 0.52753 0.0
N249 N 0.42096 0.18201 0.50503 0.0
C250 C 0.47641 0.15992 0.49603 0.0
H251 H 0.49181 0.17485 0.53952 0.0
H252 H 0.48815 0.16591 0.44213 0.0
H253 H 0.46978 0.13633 0.50783 0.0
C254 C 0.50477 0.30074 0.55271 0.0
N255 N 0.49401 0.27515 0.59493 0.0
N256 N 0.49028 0.25315 0.55154 0.0
C257 C 0.4999 0.26458 0.48182 0.0
C258 C 0.51018 0.29586 0.4791 0.0
C259 C 0.50578 0.32894 0.57689 0.0
H260 H 0.48369 0.32317 0.59954 0.0
H261 H 0.52341 0.34091 0.61845 0.0
H262 H 0.51062 0.34449 0.53016 0.0
O263 O 0.43736 0.24155 0.72207 0.0
O264 O 0.42895 0.20378 0.65205 0.0
H265 H 0.51274 0.25938 0.37202 0.0
H266 H 0.503 0.2282 0.43424 0.0
C267 C 0.49764 0.24555 0.41715 0.0
H268 H 0.47428 0.23388 0.39654 0.0
H269 H 0.41351 0.19639 0.52197 0.0
O270 O 0.49875 0.29659 0.76053 0.0
C271 C 0.41897 0.21601 0.69537 0.0
Co272 Co 0.77995 0.23444 0.68929 0.0
Co273 Co 0.82619 0.27578 0.5952 0.0
C274 C 0.8227 0.30035 0.74918 0.0
O275 O 0.80006 0.27395 0.75786 0.0
O276 O 0.83571 0.30593 0.68608 0.0
C277 C 0.72373 0.21362 0.73328 0.0
O278 O 0.72781 0.23568 0.69009 0.0
C279 C 0.88365 0.31734 0.53354 0.0
C280 C 0.87572 0.30863 0.41405 0.0
C281 C 0.8972 0.32646 0.46532 0.0
N282 N 0.85494 0.29653 0.52251 0.0
N283 N 0.85072 0.29041 0.45138 0.0
C284 C 0.89844 0.32475 0.60768 0.0
H285 H 0.89155 0.30376 0.63846 0.0
H286 H 0.89094 0.33797 0.64027 0.0
H287 H 0.92316 0.33765 0.60241 0.0
C288 C 0.74022 0.21773 0.5417 0.0
N289 N 0.76532 0.23436 0.5846 0.0
N290 N 0.78494 0.25707 0.54557 0.0
C291 C 0.77138 0.25711 0.47995 0.0
C292 C 0.74225 0.23157 0.47319 0.0
C293 C 0.71523 0.1873 0.56183 0.0
H294 H 0.72473 0.17416 0.58509 0.0
H295 H 0.70027 0.18911 0.60249 0.0
H296 H 0.70137 0.17515 0.51334 0.0
O297 O 0.80341 0.21305 0.69456 0.0
O298 O 0.83927 0.24479 0.6224 0.0
H299 H 0.76888 0.28832 0.40721 0.0
H300 H 0.80544 0.3013 0.44633 0.0
C301 C 0.78517 0.28151 0.42394 0.0
H302 H 0.79072 0.27299 0.37362 0.0
H303 H 0.83137 0.27284 0.42858 0.0
O304 O 0.74517 0.20924 0.74515 0.0
C305 C 0.82818 0.22131 0.66242 0.0
Co306 Co 0.89448 0.46163 0.0422 0.0
Co307 Co 0.90198 0.4248 0.14655 0.0
C308 C 0.87164 0.39313 1.0013 0.0
O309 O 0.87561 0.41923 0.98761 0.0
O310 O 0.87987 0.38932 0.06565 0.0
C311 C 0.89333 0.48171 0.91095 0.0
O312 O 0.90973 0.46936 0.89876 0.0
C313 C 0.92813 0.39891 0.24845 0.0
C314 C 0.95304 0.43979 0.3165 0.0
C315 C 0.95036 0.41216 0.30307 0.0
N316 N 0.91907 0.41832 0.23096 0.0
N317 N 0.93408 0.44256 0.27201 0.0
C318 C 0.9154 0.36873 0.21297 0.0
H319 H 0.89577 0.36388 0.17859 0.0
H320 H 0.9084 0.35111 0.25547 0.0
H321 H 0.93251 0.36823 0.17706 0.0
C322 C 0.86881 0.48042 0.17743 0.0
N323 N 0.87894 0.46387 0.14116 0.0
N324 N 0.87916 0.44459 0.18693 0.0
C325 C 0.86728 0.44702 0.25286 0.0
C326 C 0.86021 0.47055 0.25162 0.0
C327 C 0.87002 0.50726 0.14307 0.0
H328 H 0.89034 0.51912 0.10828 0.0
H329 H 0.85041 0.49985 0.10638 0.0
H330 H 0.87005 0.5228 0.18553 0.0
O331 O 0.93983 0.48561 0.03564 0.0
O332 O 0.94444 0.4542 0.10605 0.0
H333 H 0.88241 0.4336 0.34707 0.0
H334 H 0.84408 0.42511 0.35303 0.0
C335 C 0.8615 0.42606 0.31551 0.0
H336 H 0.85445 0.40334 0.29374 0.0
H337 H 0.93249 0.46179 0.26687 0.0
O338 O 0.88371 0.4821 0.97499 0.0
C339 C 0.95662 0.47742 0.06561 0.0
Co340 Co 0.57831 0.44058 0.0351 0.0
Co341 Co 0.6087 0.48452 0.1472 0.0
C342 C 0.64656 0.48812 1.00946 0.0
O343 O 0.62171 0.46535 0.99036 0.0
O344 O 0.6473 0.49961 0.07364 0.0
C345 C 0.56558 0.42231 0.89931 0.0
O346 O 0.57738 0.45133 0.89148 0.0
C347 C 0.63477 0.5319 0.2647 0.0
C348 C 0.59177 0.52473 0.3091 0.0
C349 C 0.62228 0.54317 0.31487 0.0
N350 N 0.61242 0.50831 0.2302 0.0
N351 N 0.58689 0.50431 0.25704 0.0
C352 C 0.66707 0.542 0.25273 0.0
H353 H 0.66954 0.52613 0.21603 0.0
H354 H 0.67806 0.54368 0.30636 0.0
H355 H 0.67838 0.5645 0.22713 0.0
C356 C 0.55861 0.39364 0.16505 0.0
N357 N 0.57373 0.42152 0.13348 0.0
N358 N 0.58787 0.44147 0.1852 0.0
C359 C 0.5819 0.42667 0.25155 0.0
C360 C 0.56276 0.39508 0.24281 0.0
C361 C 0.53984 0.36573 0.12143 0.0
H362 H 0.55141 0.36645 0.06923 0.0
H363 H 0.53493 0.34549 0.15333 0.0
H364 H 0.51848 0.36457 0.10688 0.0
O365 O 0.55313 0.46113 1.0225 0.0
O366 O 0.58062 0.4967 0.09951 0.0
H367 H 0.59185 0.4275 0.36747 0.0
H368 H 0.61568 0.46196 0.31754 0.0
C369 C 0.59261 0.44272 0.3236 0.0
H370 H 0.57797 0.45168 0.34016 0.0
H371 H 0.56587 0.48751 0.2394 0.0
O372 O 0.56167 0.4106 0.96257 0.0
C373 C 0.55911 0.48555 0.05402 0.0
Co374 Co 0.60045 0.14653 1.02209 0.0
Co375 Co 0.55779 0.14065 0.12832 0.0
C376 C 0.55622 0.16875 0.97748 0.0
O377 O 0.57842 0.16523 0.96221 0.0
O378 O 0.5456 0.16132 0.04298 0.0
C379 C 0.62009 0.14194 0.89152 0.0
O380 O 0.59118 0.12454 0.88266 0.0
C381 C 0.50501 0.13057 0.20367 0.0
C382 C 0.51266 0.12043 0.31704 0.0
C383 C 0.49277 0.12377 0.27315 0.0
N384 N 0.53194 0.13308 0.20692 0.0
N385 N 0.53584 0.12558 0.27373 0.0
C386 C 0.49027 0.13223 0.13435 0.0
H387 H 0.4939 0.11965 0.08968 0.0
H388 H 0.50034 0.15592 0.1171 0.0
H389 H 0.4659 0.12281 0.14253 0.0
C390 C 0.6473 0.17638 0.15269 0.0
N391 N 0.61968 0.16436 0.11995 0.0
N392 N 0.60051 0.16335 0.16881 0.0
C393 C 0.61591 0.17592 0.23344 0.0
C394 C 0.64659 0.18434 0.22761 0.0
C395 C 0.67422 0.17991 0.11307 0.0
H396 H 0.67174 0.15749 0.10469 0.0
H397 H 0.67572 0.1897 0.05784 0.0
H398 H 0.69497 0.19425 0.14477 0.0
O399 O 0.57623 0.10074 1.02139 0.0
O400 O 0.54284 0.09641 0.10153 0.0
H401 H 0.59691 0.16168 0.34055 0.0
H402 H 0.61757 0.20126 0.32979 0.0
C403 C 0.60194 0.18004 0.30142 0.0
H404 H 0.58122 0.18025 0.28757 0.0
H405 H 0.5538 0.12305 0.2891 0.0
O406 O 0.63081 0.15377 0.95366 0.0
C407 C 0.55252 0.08398 0.05735 0.0
Co408 Co 0.47851 0.89092 0.05813 0.0
Co409 Co 0.43663 0.89133 0.95706 0.0
C410 C 0.41299 0.86594 0.1151 0.0
O411 O 0.43955 0.8709 0.12728 0.0
O412 O 0.40771 0.87189 0.05014 0.0
C413 C 0.52137 0.90757 0.16784 0.0
O414 O 0.51535 0.92883 0.18297 0.0
C415 C 0.38938 0.89681 0.89244 0.0
C416 C 0.40096 0.90197 0.77399 0.0
C417 C 0.38025 0.90068 0.82436 0.0
N418 N 0.41356 0.89415 0.88261 0.0
N419 N 0.4211 0.89842 0.81223 0.0
C420 C 0.37745 0.89916 0.96598 0.0
H421 H 0.39627 0.91354 1.00331 0.0
H422 H 0.36466 0.87661 0.99101 0.0
H423 H 0.36247 0.90862 0.9607 0.0
C424 C 0.49432 0.86092 0.92601 0.0
N425 N 0.4781 0.87189 0.96053 0.0
N426 N 0.45747 0.86974 0.9151 0.0
C427 C 0.45914 0.8557 0.85172 0.0
C428 C 0.48325 0.85001 0.85413 0.0
C429 C 0.52048 0.86114 0.96108 0.0
H430 H 0.53712 0.88438 0.97771 0.0
H431 H 0.51299 0.84744 1.01194 0.0
H432 H 0.53102 0.85221 0.92313 0.0
O433 O 0.49623 0.93601 0.05289 0.0
O434 O 0.46486 0.93689 0.97462 0.0
H435 H 0.44756 0.86224 0.74333 0.0
H436 H 0.43234 0.82392 0.76841 0.0
C437 C 0.43739 0.84619 0.78944 0.0
H438 H 0.41632 0.84498 0.80746 0.0
H439 H 0.44071 0.9004 0.79087 0.0
O440 O 0.50798 0.88903 0.11603 0.0
C441 C 0.48762 0.95109 1.0162 0.0
Co442 Co 0.15118 0.59229 0.03938 0.0
Co443 Co 0.14244 0.54634 0.9364 0.0
C444 C 0.17321 0.54711 0.08335 0.0
O445 O 0.17 0.56975 0.09701 0.0
O446 O 0.16455 0.53469 1.01937 0.0
C447 C 0.1909 0.64632 0.08864 0.0
O448 O 0.20708 0.64052 0.04286 0.0
C449 C 0.12611 0.4936 0.84465 0.0
C450 C 0.09331 0.49642 0.77234 0.0
C451 C 0.10374 0.4775 0.79212 0.0
N452 N 0.12743 0.51979 0.8564 0.0
N453 N 0.10802 0.52147 0.81266 0.0
C454 C 0.14729 0.48586 0.88096 0.0
H455 H 0.16704 0.50642 0.90232 0.0
H456 H 0.15521 0.47491 0.84154 0.0
H457 H 0.13607 0.47075 0.9282 0.0
C458 C 0.17508 0.6341 0.89479 0.0
N459 N 0.16513 0.60819 0.93519 0.0
N460 N 0.16436 0.58763 0.89125 0.0
C461 C 0.17518 0.60033 0.8233 0.0
C462 C 0.18289 0.63089 0.82204 0.0
C463 C 0.17399 0.66102 0.92066 0.0
H464 H 0.19096 0.673 0.96375 0.0
H465 H 0.17856 0.67703 0.87522 0.0
H466 H 0.15138 0.65369 0.94247 0.0
O467 O 0.10579 0.56991 0.05027 0.0
O468 O 0.10029 0.53423 0.97536 0.0
H469 H 0.19531 0.59781 0.72179 0.0
H470 H 0.17818 0.56368 0.77642 0.0
C471 C 0.17628 0.58311 0.75822 0.0
H472 H 0.15532 0.5747 0.72615 0.0
H473 H 0.10391 0.53925 0.81277 0.0
O474 O 0.16413 0.62655 0.10057 0.0
C475 C 0.08862 0.54507 1.01845 0.0
Co476 Co 0.44371 0.56382 0.04782 0.0
Co477 Co 0.48542 0.60156 0.93996 0.0
C478 C 0.48912 0.63307 0.08664 0.0
O479 O 0.46775 0.60659 0.10187 0.0
O480 O 0.49979 0.6372 1.02048 0.0
C481 C 0.42627 0.5448 0.18231 0.0
O482 O 0.45537 0.55692 0.1882 0.0
C483 C 0.52988 0.63354 0.82075 0.0
C484 C 0.52522 0.59289 0.76657 0.0
C485 C 0.54201 0.62369 0.76606 0.0
N486 N 0.50709 0.60941 0.85187 0.0
N487 N 0.50405 0.58532 0.81796 0.0
C488 C 0.5401 0.66494 0.84507 0.0
H489 H 0.52091 0.66646 0.86735 0.0
H490 H 0.55052 0.68081 0.79866 0.0
H491 H 0.55677 0.67126 0.88988 0.0
C492 C 0.39692 0.54385 0.91558 0.0
N493 N 0.42377 0.56093 0.951 0.0
N494 N 0.44248 0.58102 0.90507 0.0
C495 C 0.42762 0.57869 0.84058 0.0
C496 C 0.39734 0.55432 0.84229 0.0
C497 C 0.3722 0.51592 0.94918 0.0
H498 H 0.38174 0.50452 0.98142 0.0
H499 H 0.3595 0.52193 0.9882 0.0
H500 H 0.35684 0.50046 0.90642 0.0
O501 O 0.46623 0.54093 0.04882 0.0
O502 O 0.50045 0.57306 0.97532 0.0
H503 H 0.45654 0.59442 0.74666 0.0
H504 H 0.42526 0.60084 0.74217 0.0
C505 C 0.44215 0.60051 0.779 0.0
H506 H 0.45692 0.62325 0.80203 0.0
H507 H 0.48837 0.56343 0.83278 0.0
O508 O 0.41425 0.54323 0.12039 0.0
C509 C 0.4908 0.54982 1.0154 0.0
Co510 Co 0.55561 0.79302 0.38824 0.0
Co511 Co 0.57068 0.75876 0.48353 0.0
C512 C 0.53681 0.72862 0.3335 0.0
O513 O 0.53655 0.75309 0.32375 0.0
O514 O 0.54861 0.72637 0.39417 0.0
C515 C 0.55384 0.83017 0.28238 0.0
O516 O 0.57021 0.82263 0.24227 0.0
C517 C 0.58026 0.71613 0.56582 0.0
C518 C 0.62191 0.74737 0.62473 0.0
C519 C 0.60321 0.71734 0.60899 0.0
N520 N 0.58613 0.7441 0.55495 0.0
N521 N 0.61083 0.76266 0.59085 0.0
C522 C 0.55218 0.68942 0.53827 0.0
H523 H 0.53551 0.69598 0.52316 0.0
H524 H 0.54233 0.67182 0.58105 0.0
H525 H 0.55713 0.68022 0.48835 0.0
C526 C 0.52989 0.80614 0.53102 0.0
N527 N 0.54201 0.79205 0.49167 0.0
N528 N 0.54857 0.7766 0.53691 0.0
C529 C 0.54066 0.7805 0.60699 0.0
C530 C 0.52821 0.79971 0.60736 0.0
C531 C 0.52073 0.82647 0.49638 0.0
H532 H 0.50534 0.8147 0.44977 0.0
H533 H 0.50957 0.83388 0.53665 0.0
H534 H 0.5408 0.84636 0.47376 0.0
O535 O 0.60146 0.81819 0.37525 0.0
O536 O 0.61182 0.79095 0.44703 0.0
H537 H 0.53394 0.76841 0.72207 0.0
H538 H 0.54167 0.7446 0.66259 0.0
C539 C 0.54694 0.76788 0.6739 0.0
H540 H 0.57113 0.78139 0.68687 0.0
H541 H 0.62072 0.78591 0.59016 0.0
O542 O 0.54405 0.81829 0.34425 0.0
C543 C 0.6209 0.81328 0.40445 0.0
Co544 Co 0.24687 0.77334 0.37781 0.0
Co545 Co 0.27717 0.81811 0.48844 0.0
C546 C 0.31493 0.82128 0.3518 0.0
O547 O 0.29021 0.79824 0.33311 0.0
O548 O 0.31562 0.83318 0.41532 0.0
C549 C 0.23355 0.75319 0.24365 0.0
O550 O 0.24517 0.78206 0.23318 0.0
C551 C 0.30258 0.86443 0.60848 0.0
C552 C 0.25957 0.85848 0.64932 0.0
C553 C 0.29004 0.87557 0.65869 0.0
N554 N 0.28034 0.84213 0.57049 0.0
N555 N 0.25479 0.83887 0.59516 0.0
C556 C 0.33469 0.87306 0.60072 0.0
H557 H 0.33724 0.85848 0.55975 0.0
H558 H 0.34351 0.87115 0.65482 0.0
H559 H 0.34797 0.89673 0.58283 0.0
C560 C 0.22798 0.72758 0.50897 0.0
N561 N 0.24283 0.75527 0.47664 0.0
N562 N 0.25735 0.77549 0.52753 0.0
C563 C 0.25221 0.76103 0.59407 0.0
C564 C 0.23308 0.72949 0.58616 0.0
C565 C 0.20862 0.69951 0.46653 0.0
H566 H 0.19144 0.70197 0.43606 0.0
H567 H 0.22247 0.69615 0.42504 0.0
H568 H 0.19763 0.67972 0.50321 0.0
O569 O 0.2211 0.79303 0.36344 0.0
O570 O 0.24848 0.82906 0.43942 0.0
H571 H 0.24857 0.78465 0.68633 0.0
H572 H 0.26538 0.76237 0.70727 0.0
C573 C 0.26397 0.77722 0.66552 0.0
H574 H 0.28625 0.79741 0.65711 0.0
H575 H 0.23379 0.82283 0.57551 0.0
O576 O 0.23034 0.74248 0.30785 0.0
C577 C 0.22688 0.8175 0.39427 0.0
Co578 Co 0.26523 0.47698 0.37478 0.0
Co579 Co 0.21773 0.4683 0.47333 0.0
C580 C 0.2202 0.4998 0.32854 0.0
O581 O 0.24294 0.49651 0.31678 0.0
O582 O 0.20694 0.49095 0.39137 0.0
C583 C 0.32403 0.51568 0.34162 0.0
O584 O 0.32072 0.5316 0.39344 0.0
C585 C 0.16944 0.45631 0.58144 0.0
C586 C 0.16202 0.41282 0.62251 0.0
C587 C 0.1513 0.43233 0.62742 0.0
N588 N 0.1898 0.45089 0.55083 0.0
N589 N 0.18556 0.42521 0.57704 0.0
C590 C 0.16757 0.48374 0.56634 0.0
H591 H 0.18988 0.50254 0.5505 0.0
H592 H 0.15902 0.49005 0.61533 0.0
H593 H 0.1521 0.47922 0.51956 0.0
C594 C 0.30232 0.49431 0.52609 0.0
N595 N 0.27807 0.48753 0.48206 0.0
N596 N 0.25846 0.49012 0.52185 0.0
C597 C 0.27112 0.50203 0.58934 0.0
C598 C 0.30045 0.50575 0.59623 0.0
C599 C 0.32451 0.4848 0.5076 0.0
H600 H 0.31276 0.46257 0.48036 0.0
H601 H 0.34191 0.50117 0.47019 0.0
H602 H 0.33562 0.48297 0.55787 0.0
O603 O 0.2434 0.43227 0.35666 0.0
O604 O 0.20697 0.42694 0.428 0.0
H605 H 0.23852 0.49029 0.67452 0.0
H606 H 0.27149 0.52699 0.68571 0.0
C607 C 0.25548 0.51063 0.64531 0.0
H608 H 0.24333 0.52035 0.61715 0.0
H609 H 0.19843 0.41567 0.56278 0.0
O610 O 0.30169 0.49147 0.32014 0.0
C611 C 0.21797 0.41529 0.38525 0.0
C612 C 0.19367 0.17562 1.00718 0.0
C613 C 0.17572 0.14623 0.97616 0.0
C614 C 0.13496 0.14096 0.06307 0.0
C615 C 0.15187 0.17142 0.0883 0.0
N616 N 0.19647 0.219 0.0697 0.0
N617 N 0.12618 0.10345 0.96844 0.0
C618 C 0.18097 0.18894 0.056 0.0
C619 C 0.14553 0.1297 1.0028 0.0
N620 N 0.22356 0.1908 0.99222 0.0
N621 N 0.10902 0.12202 0.09879 0.0
H622 H 0.13267 0.09479 0.92472 0.0
H623 H 0.10327 0.09176 0.97873 0.0
H624 H 0.10086 0.12901 0.14257 0.0
H625 H 0.09713 0.09899 0.08954 0.0
H626 H 0.23868 0.21065 1.01871 0.0
H627 H 0.23366 0.18205 0.95839 0.0
H628 H 0.2161 0.23379 0.04225 0.0
H629 H 0.18817 0.22953 0.10351 0.0
C630 C 0.90024 0.02677 1.0005 0.0
C631 C 0.88152 0.03498 0.96064 0.0
C632 C 0.83809 0.99288 1.03013 0.0
C633 C 0.85712 0.98649 0.07435 0.0
N634 N 0.90781 1.00148 0.10518 0.0
N635 N 0.83182 0.02697 0.94834 0.0
C636 C 0.88858 1.00468 0.06008 0.0
C637 C 0.8502 0.01806 0.97839 0.0
N638 N 0.92941 0.03923 0.97934 0.0
N639 N 0.80794 0.97441 0.03672 0.0
H640 H 0.83953 0.04498 0.9122 0.0
H641 H 0.80963 0.01838 0.96392 0.0
H642 H 0.79854 0.95667 0.0739 0.0
H643 H 0.79242 0.97503 1.00158 0.0
H644 H 0.94376 0.03223 0.99895 0.0
H645 H 0.93862 0.05491 0.93708 0.0
H646 H 0.93082 1.01609 0.1053 0.0
H647 H 0.90048 0.98531 0.14643 0.0
C648 C 0.04982 0.85865 1.02053 0.0
C649 C 0.05657 0.88398 0.06648 0.0
C650 C 1.01687 0.88785 0.99357 0.0
C651 C 1.00831 0.861 0.95182 0.0
N652 N 1.0154 0.81878 0.93674 0.0
N653 N 0.04235 0.92006 0.10014 0.0
C654 C 0.02474 0.8461 0.96833 0.0
C655 C 0.03883 0.89771 0.05348 0.0
N656 N 0.06786 0.84656 1.0259 0.0
N657 N 1.00482 0.905 0.97402 0.0
H658 H 0.05844 0.9285 0.14174 0.0
H659 H 0.02806 0.92873 0.10117 0.0
H660 H 0.98922 0.89893 0.93167 0.0
H661 H 1.01208 0.92634 0.99509 0.0
H662 H 0.067 0.83049 0.98958 0.0
H663 H 0.08551 0.85451 0.06336 0.0
H664 H 0.0236 0.80482 0.95129 0.0
H665 H 0.99739 0.80879 0.90037 0.0
C666 C 0.76984 0.78056 1.01143 0.0
C667 C 0.77443 0.78485 0.08852 0.0
C668 C 0.80874 0.76601 0.08727 0.0
C669 C 0.80853 0.76723 1.00919 0.0
N670 N 0.7786 0.75925 0.90127 0.0
N671 N 0.78332 0.76593 0.19996 0.0
C672 C 0.7852 0.7686 0.97275 0.0
C673 C 0.78835 0.77146 0.12638 0.0
N674 N 0.75299 0.78978 0.97465 0.0
N675 N 0.82977 0.7626 0.1241 0.0
H676 H 0.76852 0.77055 0.22846 0.0
H677 H 0.7915 0.75448 0.23004 0.0
H678 H 0.84512 0.75827 0.09814 0.0
H679 H 0.8328 0.76545 0.18093 0.0
H680 H 0.75272 0.79105 0.91739 0.0
H681 H 0.73942 0.7964 1.00115 0.0
H682 H 0.76044 0.75785 0.8731 0.0
H683 H 0.78984 0.75018 0.87305 0.0
C684 C 0.27969 0.02343 1.01661 0.0
C685 C 0.25724 0.0176 0.96352 0.0
C686 C 0.23867 0.96467 0.97834 0.0
C687 C 0.25124 0.97094 0.04908 0.0
N688 N 0.29112 1.0047 0.12742 0.0
N689 N 0.21203 0.98016 0.90017 0.0
C690 C 0.2751 0.99985 0.06433 0.0
C691 C 0.23634 0.98751 0.9433 0.0
N692 N 0.3042 0.05134 1.02274 0.0
N693 N 0.22616 0.93655 0.94953 0.0
H694 H 0.20603 0.99552 0.88279 0.0
H695 H 0.19559 0.958 0.89 0.0
H696 H 0.22828 0.91979 0.97582 0.0
H697 H 0.21717 0.93141 0.89649 0.0
H698 H 0.32184 0.05645 0.05849 0.0
H699 H 0.30787 0.06857 0.98678 0.0
H700 H 0.30699 0.02588 0.14638 0.0
H701 H 0.28731 0.98688 0.1615 0.0
C702 C 0.99556 0.2593 1.00649 0.0
C703 C 0.96839 0.23341 1.02374 0.0
C704 C 0.98905 0.22318 0.12932 0.0
C705 C 1.01797 0.246 0.10644 0.0
N706 N 0.04709 0.29305 0.04313 0.0
N707 N 0.9366 0.20778 0.12665 0.0
C708 C 1.02065 0.26699 0.05219 0.0
C709 C 0.96428 0.22221 0.09558 0.0
N710 N 0.99745 0.27454 0.94384 0.0
N711 N 0.98474 0.20004 0.17347 0.0
H712 H 0.91838 0.20735 0.10094 0.0
H713 H 0.93303 0.19967 0.18048 0.0
H714 H 1.00175 0.19614 0.18913 0.0
H715 H 0.96347 0.18231 0.18592 0.0
H716 H 1.01733 0.2922 0.92352 0.0
H717 H 0.97851 0.26834 0.91157 0.0
H718 H 0.05001 0.30965 1.00621 0.0
H719 H 0.06535 0.29891 0.07758 0.0
C720 C 0.84113 0.49271 0.44853 0.0
C721 C 0.82433 0.50729 0.43283 0.0
C722 C 0.82619 0.49246 0.30061 0.0
C723 C 0.84755 0.48304 0.31475 0.0
N724 N 0.88161 0.485 0.40813 0.0
N725 N 0.81033 0.52816 0.33251 0.0
C726 C 0.8567 0.48621 0.39057 0.0
C727 C 0.8195 0.50906 0.35551 0.0
N728 N 0.84136 0.4835 0.51857 0.0
N729 N 0.81083 0.4845 0.23586 0.0
H730 H 0.8088 0.54312 0.36851 0.0
H731 H 0.8084 0.53187 0.27687 0.0
H732 H 0.81264 0.47022 0.19809 0.0
H733 H 0.7937 0.48896 0.22479 0.0
H734 H 0.8515 0.47109 0.53209 0.0
H735 H 0.82822 0.48489 0.56031 0.0
H736 H 0.89039 0.48914 0.46136 0.0
H737 H 0.8955 0.48401 0.3679 0.0
C738 C 0.56767 0.36234 0.34823 0.0
C739 C 0.54911 0.36893 0.30254 0.0
C740 C 0.50506 0.32457 0.36434 0.0
C741 C 0.52364 0.31979 0.41437 0.0
N742 N 0.57373 0.33832 0.4577 0.0
N743 N 0.49881 0.35749 0.2785 0.0
C744 C 0.55521 0.33999 0.40702 0.0
C745 C 0.51744 0.35008 0.31367 0.0
N746 N 0.59758 0.37658 0.33344 0.0
N747 N 0.47513 0.30438 0.36464 0.0
H748 H 0.50666 0.37585 0.24348 0.0
H749 H 0.476 0.3473 0.28905 0.0
H750 H 0.46544 0.28644 0.40123 0.0
H751 H 0.46037 0.30392 0.32515 0.0
H752 H 0.61218 0.37085 0.35777 0.0
H753 H 0.6074 0.39242 0.29171 0.0
H754 H 0.59629 0.35433 0.46262 0.0
H755 H 0.56602 0.32194 0.49847 0.0
C756 C 0.71116 0.19377 0.3656 0.0
C757 C 0.71873 0.22037 0.40729 0.0
C758 C 0.68234 0.2256 0.3244 0.0
C759 C 0.67211 0.19715 0.28892 0.0
N760 N 0.67539 0.15237 0.28785 0.0
N761 N 0.70626 0.25861 0.43039 0.0
C762 C 0.68637 0.18095 0.31293 0.0
C763 C 0.70283 0.23538 0.38729 0.0
N764 N 0.72836 0.1809 0.37458 0.0
N765 N 0.67352 0.24429 0.29594 0.0
H766 H 0.72046 0.26619 0.47597 0.0
H767 H 0.69314 0.26851 0.42491 0.0
H768 H 0.65943 0.23847 0.25029 0.0
H769 H 0.68235 0.26643 0.31299 0.0
H770 H 0.72666 0.1637 0.34104 0.0
H771 H 0.74626 0.18933 0.41134 0.0
H772 H 0.68207 0.13791 0.3086 0.0
H773 H 0.65754 0.14213 0.25112 0.0
C774 C 0.46258 0.14896 0.28656 0.0
C775 C 0.46596 0.1237 0.29914 0.0
C776 C 0.42569 0.10459 0.38912 0.0
C777 C 0.42442 0.13089 0.3791 0.0
N778 N 0.42809 0.16735 0.29165 0.0
N779 N 0.44392 0.07273 0.34203 0.0
C780 C 0.43751 0.14869 0.31665 0.0
C781 C 0.44493 0.09962 0.3432 0.0
N782 N 0.48463 0.17456 0.25493 0.0
N783 N 0.41036 0.08598 0.44601 0.0
H784 H 0.45752 0.06857 0.3072 0.0
H785 H 0.4278 0.05396 0.37011 0.0
H786 H 0.39577 0.08958 0.47857 0.0
H787 H 0.41291 0.06805 0.46185 0.0
H788 H 0.48339 0.19403 0.2512 0.0
H789 H 0.50562 0.17788 0.24132 0.0
H790 H 0.43679 0.18017 0.24414 0.0
H791 H 0.40919 0.16691 0.31329 0.0
C792 C 0.9606 0.40428 0.42895 0.0
C793 C 0.96234 0.3983 0.35423 0.0
C794 C 0.9421 0.34622 0.38557 0.0
C795 C 0.92713 0.35119 0.44524 0.0
N796 N 0.92323 0.38809 0.52254 0.0
N797 N 0.97081 0.3672 0.27231 0.0
C798 C 0.93756 0.38111 0.46976 0.0
C799 C 0.95912 0.37038 0.33669 0.0
N800 N 0.9776 0.43247 0.45639 0.0
N801 N 0.93851 0.31849 0.37454 0.0
H802 H 0.98334 0.38569 0.23837 0.0
H803 H 0.96787 0.34693 0.25281 0.0
H804 H 0.9264 0.30107 0.41159 0.0
H805 H 0.94898 0.31342 0.33248 0.0
H806 H 0.97713 0.43753 0.51196 0.0
H807 H 0.99397 0.44954 0.42399 0.0
H808 H 0.92968 0.41017 0.53605 0.0
H809 H 0.90309 0.3726 0.54626 0.0
C810 C 0.66533 0.58955 0.36314 0.0
C811 C 0.6377 0.56363 0.377 0.0
C812 C 0.65681 0.55108 0.48271 0.0
C813 C 0.68599 0.57396 0.46212 0.0
N814 N 0.71657 0.62175 0.4038 0.0
N815 N 0.6041 0.53434 0.47378 0.0
C816 C 0.68968 0.59595 0.41004 0.0
C817 C 0.63239 0.55005 0.44642 0.0
N818 N 0.66845 0.60594 0.30176 0.0
N819 N 0.6522 0.52835 0.5288 0.0
H820 H 0.5862 0.53429 0.44733 0.0
H821 H 0.59944 0.52488 0.52623 0.0
H822 H 0.66931 0.52596 0.55115 0.0
H823 H 0.63102 0.51001 0.53866 0.0
H824 H 0.68879 0.62357 0.28355 0.0
H825 H 0.65008 0.60083 0.2683 0.0
H826 H 0.72029 0.63918 0.36878 0.0
H827 H 0.73442 0.62649 0.43879 0.0
C828 C 0.49086 0.79353 0.71558 0.0
C829 C 0.51727 0.81234 0.67335 0.0
C830 C 0.52059 0.85581 0.74693 0.0
C831 C 0.49525 0.83682 0.79205 0.0
N832 N 0.45905 0.78618 0.82325 0.0
N833 N 0.55968 0.86182 0.6603 0.0
C834 C 0.4813 0.80531 0.77705 0.0
C835 C 0.5326 0.84359 0.69245 0.0
N836 N 0.4739 0.76421 0.69503 0.0
N837 N 0.53293 0.88606 0.75445 0.0
H838 H 0.56914 0.85403 0.62166 0.0
H839 H 0.57396 0.8839 0.6764 0.0
H840 H 0.52551 0.89569 0.79362 0.0
H841 H 0.54884 0.90153 0.71849 0.0
H842 H 0.45276 0.74974 0.71629 0.0
H843 H 0.48004 0.75487 0.65219 0.0
H844 H 0.44995 0.76307 0.82237 0.0
H845 H 0.45126 0.79372 0.86669 0.0
C846 C 0.17682 0.66339 0.71902 0.0
C847 C 0.19553 0.65504 0.75813 0.0
C848 C 0.23837 0.69384 0.68128 0.0
C849 C 0.22009 0.70377 0.64625 0.0
N850 N 0.17162 0.69918 0.64126 0.0
N851 N 0.24573 0.66592 0.77991 0.0
C852 C 0.18921 0.68863 0.6678 0.0
C853 C 0.22672 0.67132 0.73967 0.0
N854 N 0.14666 0.64655 0.7295 0.0
N855 N 0.26704 0.70531 0.65688 0.0
H856 H 0.23825 0.64947 0.82047 0.0
H857 H 0.2689 0.67897 0.77693 0.0
H858 H 0.27632 0.72169 0.61618 0.0
H859 H 0.28086 0.69707 0.67245 0.0
H860 H 0.13106 0.64865 0.69802 0.0
H861 H 0.13705 0.62862 0.76612 0.0
H862 H 0.15007 0.69207 0.65998 0.0
H863 H 0.17952 0.71697 0.60434 0.0
C864 C 0.35654 0.53536 0.64588 0.0
C865 C 0.32495 0.51861 0.66083 0.0
C866 C 0.34079 0.53013 0.79445 0.0
C867 C 0.37205 0.54172 0.77961 0.0
N868 N 0.40514 0.54358 0.68303 0.0
N869 N 0.28999 0.49285 0.75945 0.0
C870 C 0.37855 0.54096 0.70286 0.0
C871 C 0.31797 0.51403 0.73815 0.0
N872 N 0.36624 0.54747 0.57786 0.0
N873 N 0.33239 0.53556 0.86124 0.0
H874 H 0.27413 0.47829 0.72171 0.0
H875 H 0.28426 0.48729 0.81462 0.0
H876 H 0.34796 0.54957 0.90026 0.0
H877 H 0.3103 0.52934 0.87321 0.0
H878 H 0.38887 0.56125 0.56571 0.0
H879 H 0.35171 0.54693 0.53747 0.0
H880 H 0.41018 0.54133 0.62849 0.0
H881 H 0.42001 0.54376 0.7219 0.0
C882 C 0.1045 0.42999 0.78891 0.0
C883 C 0.0955 0.44851 0.7557 0.0
C884 C 0.10408 0.43365 0.63548 0.0
C885 C 0.12505 0.42775 0.67024 0.0
N886 N 0.13969 0.41261 0.7824 0.0
N887 N 0.06959 0.45237 0.65053 0.0
C888 C 0.1228 0.42227 0.74755 0.0
C889 C 0.08918 0.44487 0.67945 0.0
N890 N 0.09656 0.42126 0.86001 0.0
N891 N 0.0992 0.42885 0.56149 0.0
H892 H 0.05601 0.45691 0.68441 0.0
H893 H 0.06555 0.4525 0.59447 0.0
H894 H 0.10944 0.41945 0.53033 0.0
H895 H 0.08424 0.43261 0.53194 0.0
H896 H 0.10093 0.40604 0.88649 0.0
H897 H 0.08337 0.42781 0.88936 0.0
H898 H 0.1412 0.41226 0.83961 0.0
H899 H 0.15281 0.40566 0.75515 0.0
C900 C 0.61236 0.69204 0.71496 0.0
C901 C 0.60539 0.69196 0.63971 0.0
C902 C 0.5686 0.63943 0.64279 0.0
C903 C 0.56896 0.64198 0.72104 0.0
N904 N 0.60054 0.66269 0.82739 0.0
N905 N 0.59495 0.66313 0.52937 0.0
C906 C 0.59432 0.6657 0.75599 0.0
C907 C 0.59008 0.66443 0.60273 0.0
N908 N 0.63516 0.7171 0.74651 0.0
N909 N 0.54672 0.61505 0.60654 0.0
H910 H 0.61043 0.68228 0.50093 0.0
H911 H 0.58567 0.64315 0.49953 0.0
H912 H 0.53086 0.59565 0.63256 0.0
H913 H 0.54387 0.61452 0.54962 0.0
H914 H 0.63912 0.71982 0.80299 0.0
H915 H 0.65089 0.73482 0.71472 0.0
H916 H 0.61935 0.67864 0.85572 0.0
H917 H 0.5876 0.64279 0.85627 0.0
C918 C 0.35666 0.92568 0.75991 0.0
C919 C 0.35347 0.90208 0.80575 0.0
C920 C 0.29984 0.87733 0.78953 0.0
C921 C 0.30492 0.89369 0.72434 0.0
N922 N 0.3354 0.93849 0.65671 0.0
N923 N 0.32055 0.85346 0.86139 0.0
C924 C 0.33234 0.9203 0.71418 0.0
C925 C 0.32454 0.87774 0.82247 0.0
N926 N 0.38298 0.95227 0.75861 0.0
N927 N 0.27152 0.85964 0.81523 0.0
H928 H 0.33802 0.85082 0.88021 0.0
H929 H 0.29965 0.83432 0.86803 0.0
H930 H 0.25334 0.85985 0.79123 0.0
H931 H 0.26696 0.84802 0.86483 0.0
H932 H 0.38607 0.97076 0.72873 0.0
H933 H 0.4008 0.95645 0.79307 0.0
H934 H 0.35572 0.95676 0.64068 0.0
H935 H 0.31707 0.93421 0.62401 0.0
C936 C 0.19097 0.36982 0.29822 0.0
C937 C 0.20106 0.38159 0.37039 0.0
C938 C 0.17442 0.32954 0.41772 0.0
C939 C 0.16689 0.31751 0.34481 0.0
N940 N 0.17338 0.32738 0.21424 0.0
N941 N 0.208 0.37138 0.49575 0.0
C942 C 0.17658 0.33803 0.28468 0.0
C943 C 0.1943 0.36103 0.42918 0.0
N944 N 0.19422 0.38893 0.24257 0.0
N945 N 0.16147 0.31115 0.47678 0.0
H946 H 0.22368 0.39386 0.50512 0.0
H947 H 0.20636 0.35732 0.53865 0.0
H948 H 0.14584 0.28842 0.47145 0.0
H949 H 0.16369 0.31908 0.53066 0.0
H950 H 0.18443 0.38168 0.19089 0.0
H951 H 0.20454 0.41205 0.25002 0.0
H952 H 0.18276 0.34117 0.16863 0.0
H953 H 0.16387 0.30468 0.20184 0.0
C954 C 0.70669 0.85975 0.43782 0.0
C955 C 0.71853 0.86757 0.36505 0.0
C956 C 0.66638 0.83958 0.31717 0.0
C957 C 0.65447 0.83349 0.39013 0.0
N958 N 0.6642 0.84476 0.51958 0.0
N959 N 0.70841 0.8707 0.23697 0.0
C960 C 0.67496 0.8456 0.45026 0.0
C961 C 0.69795 0.85911 0.30527 0.0
N962 N 0.72558 0.86456 0.49531 0.0
N963 N 0.64785 0.8256 0.25878 0.0
H964 H 0.73096 0.8857 0.2266 0.0
H965 H 0.6945 0.868 0.1927 0.0
H966 H 0.62497 0.81088 0.26459 0.0
H967 H 0.65559 0.8264 0.2053 0.0
H968 H 0.71814 0.85627 0.54809 0.0
H969 H 0.74866 0.8745 0.48896 0.0
H970 H 0.67788 0.85572 0.5646 0.0
H971 H 0.64151 0.83591 0.53053 0.0
C972 C 0.22388 0.86498 0.37197 0.0
C973 C 0.2089 0.83319 0.379 0.0
C974 C 0.16109 0.83265 0.35752 0.0
C975 C 0.17583 0.8646 0.3607 0.0
N976 N 0.22153 0.91018 0.39117 0.0
N977 N 0.1614 0.78765 0.39413 0.0
C978 C 0.2073 0.88041 0.37367 0.0
C979 C 0.17697 0.81727 0.37601 0.0
N980 N 0.25402 0.8807 0.36016 0.0
N981 N 0.13221 0.8167 0.33354 0.0
H982 H 0.17166 0.77575 0.41078 0.0
H983 H 0.13824 0.77576 0.4003 0.0
H984 H 0.12009 0.8267 0.3167 0.0
H985 H 0.12141 0.79377 0.32285 0.0
H986 H 0.2656 0.90347 0.34777 0.0
H987 H 0.26683 0.87046 0.35356 0.0
H988 H 0.2438 0.92212 0.40784 0.0
H989 H 0.21029 0.92202 0.39803 0.0
C990 C 0.37286 0.1881 0.77993 0.0
C991 C 0.38536 0.20045 0.70987 0.0
C992 C 0.33416 0.17399 0.65759 0.0
C993 C 0.32117 0.16365 0.72863 0.0
N994 N 0.32927 0.16707 0.86023 0.0
N995 N 0.3763 0.21152 0.58738 0.0
C996 C 0.34089 0.1724 0.79062 0.0
C997 C 0.36546 0.19525 0.65046 0.0
N998 N 0.39145 0.19058 0.83613 0.0
N999 N 0.31706 0.16228 0.59581 0.0
H1000 H 0.39869 0.22809 0.58148 0.0
H1001 H 0.36259 0.21091 0.5447 0.0
H1002 H 0.29471 0.14538 0.59745 0.0
H1003 H 0.32598 0.1668 0.54274 0.0
H1004 H 0.38382 0.17918 0.88581 0.0
H1005 H 0.41468 0.20232 0.83093 0.0
H1006 H 0.34237 0.17547 0.90741 0.0
H1007 H 0.30643 0.1569 0.87082 0.0
C1008 C 0.87208 0.17928 0.6268 0.0
C1009 C 0.87371 0.16926 0.69884 0.0
C1010 C 0.8492 0.19667 0.74706 0.0
C1011 C 0.84457 0.20392 0.67434 0.0
N1012 N 0.84739 0.19681 0.54369 0.0
N1013 N 0.8573 0.16337 0.82506 0.0
C1014 C 0.85493 0.19378 0.61387 0.0
C1015 C 0.86043 0.17661 0.75816 0.0
N1016 N 0.888 0.17617 0.57082 0.0
N1017 N 0.84424 0.21005 0.80626 0.0
H1018 H 0.86375 0.14755 0.83417 0.0
H1019 H 0.84527 0.16544 0.86856 0.0
H1020 H 0.83737 0.22576 0.80106 0.0
H1021 H 0.85013 0.20812 0.85994 0.0
H1022 H 0.89046 0.18581 0.51913 0.0
H1023 H 0.90116 0.16639 0.57822 0.0
H1024 H 0.85143 0.18709 0.49797 0.0
H1025 H 0.83452 0.20658 0.53175 0.0
C1026 C 0.88673 0.70127 0.69451 0.0
C1027 C 0.87193 0.71826 0.69704 0.0
C1028 C 0.82356 0.67004 0.69025 0.0
C1029 C 0.83845 0.6534 0.67957 0.0
N1030 N 0.88534 0.65585 0.65279 0.0
N1031 N 0.82556 0.71772 0.67697 0.0
C1032 C 0.87037 0.66985 0.67631 0.0
C1033 C 0.84014 0.70227 0.68905 0.0
N1034 N 0.91624 0.71454 0.71315 0.0
N1035 N 0.79366 0.6553 0.70542 0.0
H1036 H 0.83665 0.74092 0.67133 0.0
H1037 H 0.80293 0.70725 0.66375 0.0
H1038 H 0.78091 0.63213 0.71058 0.0
H1039 H 0.78229 0.66631 0.72107 0.0
H1040 H 0.92732 0.70257 0.71967 0.0
H1041 H 0.9288 0.73679 0.73014 0.0
H1042 H 0.90824 0.66728 0.64238 0.0
H1043 H 0.8745 0.63358 0.63539 0.0
C1044 C 0.04241 0.52032 0.10338 0.0
C1045 C 0.05476 0.52838 1.03106 0.0
C1046 C 1.00295 0.50044 0.98133 0.0
C1047 C 0.99053 0.495 0.05373 0.0
N1048 N 0.99952 0.5054 0.18369 0.0
N1049 N 0.0455 0.53072 0.90187 0.0
C1050 C 1.01063 0.50648 0.1147 0.0
C1051 C 0.0346 0.51965 0.9703 0.0
N1052 N 0.06089 0.52467 0.16152 0.0
N1053 N 0.9847 0.48615 0.9227 0.0
H1054 H 0.06811 0.5455 0.89186 0.0
H1055 H 0.03188 0.52782 0.8568 0.0
H1056 H 0.96185 0.4713 0.92841 0.0
H1057 H 0.99265 0.48656 0.86966 0.0
H1058 H 0.05308 0.51628 0.21403 0.0
H1059 H 0.08394 0.53412 0.15586 0.0
H1060 H 1.01296 0.51607 0.22927 0.0
H1061 H 0.97679 0.49647 0.19402 0.0
C1062 C 0.53994 0.54896 1.03303 0.0
C1063 C 0.50829 0.53312 1.02291 0.0
C1064 C 0.50938 0.48572 0.03769 0.0
C1065 C 0.5413 0.50151 0.03942 0.0
N1066 N 0.58646 0.54874 1.01861 0.0
N1067 N 0.46445 0.48524 0.99727 0.0
C1068 C 0.55636 0.53329 1.03126 0.0
C1069 C 0.49349 0.50116 1.02007 0.0
N1070 N 0.55451 0.57894 0.04823 0.0
N1071 N 0.49381 0.45616 0.05644 0.0
H1072 H 0.45242 0.49533 0.98031 0.0
H1073 H 0.45347 0.46227 0.98706 0.0
H1074 H 0.50408 0.4442 0.07252 0.0
H1075 H 0.4707 0.4444 0.06371 0.0
H1076 H 0.57696 0.59096 0.0634 0.0
H1077 H 0.54357 0.5911 0.0542 0.0
H1078 H 0.59814 0.5714 1.00516 0.0
H1079 H 0.59911 0.53829 1.01274 0.0
C1080 C 0.55132 0.03364 0.04402 0.0
C1081 C 0.53573 0.04987 0.04635 0.0
C1082 C 0.48825 1.00106 0.03502 0.0
C1083 C 0.50406 0.98533 1.02386 0.0
N1084 N 0.5519 0.98937 1.00096 0.0
N1085 N 0.48886 0.0482 1.02544 0.0
C1086 C 0.53596 1.00246 1.02366 0.0
C1087 C 0.50405 0.0333 0.03664 0.0
N1088 N 0.58065 0.04749 0.06466 0.0
N1089 N 0.45817 0.98539 0.04787 0.0
H1090 H 0.49934 0.07145 1.02254 0.0
H1091 H 0.46637 0.03739 1.01068 0.0
H1092 H 0.44585 0.96212 0.05063 0.0
H1093 H 0.44608 0.99561 0.06391 0.0
H1094 H 0.59228 0.03607 0.07134 0.0
H1095 H 0.59241 0.0696 0.08321 0.0
H1096 H 0.57494 1.00138 0.99263 0.0
H1097 H 0.54183 0.9673 0.98226 0.0
C1098 C 0.13243 0.14017 0.50706 0.0
C1099 C 0.15304 0.16745 0.47224 0.0
C1100 C 0.18936 0.17683 0.56633 0.0
C1101 C 0.17153 0.14709 0.59155 0.0
N1102 N 0.12889 0.09737 0.5675 0.0
N1103 N 0.20502 0.20616 0.45671 0.0
C1104 C 0.14377 0.12762 0.55692 0.0
C1105 C 0.18282 0.18404 0.49777 0.0
N1106 N 0.10229 0.12697 0.49673 0.0
N1107 N 0.21204 0.19839 0.60772 0.0
H1108 H 0.20178 0.21065 0.40281 0.0
H1109 H 0.22735 0.21721 0.47322 0.0
H1110 H 0.21614 0.1948 0.66166 0.0
H1111 H 0.22406 0.22075 0.59144 0.0
H1112 H 0.08706 0.10812 0.5263 0.0
H1113 H 0.09227 0.13671 0.46702 0.0
H1114 H 0.10965 0.0829 0.53796 0.0
H1115 H 0.13745 0.08632 0.59759 0.0
C1116 C 0.85746 0.0543 0.46901 0.0
C1117 C 0.88727 0.071 0.49207 0.0
C1118 C 0.89803 0.0328 0.45232 0.0
C1119 C 0.86764 1.01493 0.43068 0.0
N1120 N 0.82032 1.01228 0.40041 0.0
N1121 N 0.93816 0.08266 0.48294 0.0
C1122 C 0.8479 0.0268 0.43281 0.0
C1123 C 0.90841 0.06258 0.47429 0.0
N1124 N 0.83798 0.06398 0.48633 0.0
N1125 N 0.91612 0.02074 0.45926 0.0
H1126 H 0.94578 0.10464 0.50024 0.0
H1127 H 0.95496 0.07849 0.4658 0.0
H1128 H 0.90878 0.99811 0.45147 0.0
H1129 H 0.9376 0.03248 0.48124 0.0
H1130 H 0.81487 0.05078 0.4812 0.0
H1131 H 0.84519 0.08512 0.50921 0.0
H1132 H 0.80727 0.02214 0.39276 0.0
H1133 H 0.81092 0.99134 0.37581 0.0
C1134 C 1.00999 0.87758 0.4436 0.0
C1135 C 0.0281 0.86533 0.42256 0.0
C1136 C 0.98947 0.81566 0.46299 0.0
C1137 C 0.97237 0.82845 0.48489 0.0
N1138 N 0.96007 0.86716 0.47357 0.0
N1139 N 0.03122 0.82071 0.39344 0.0
C1140 C 0.9804 0.85788 0.46596 0.0
C1141 C 1.01664 0.8337 0.42584 0.0
N1142 N 1.02168 0.90785 0.44952 0.0
N1143 N 0.98051 0.78678 0.482 0.0
H1144 H 0.05178 0.8324 0.3674 0.0
H1145 H 1.02166 0.79765 0.387 0.0
H1146 H 0.95965 0.77266 0.50568 0.0
H1147 H 0.9941 0.77735 0.47752 0.0
H1148 H 1.00979 0.91747 0.47117 0.0
H1149 H 0.04417 0.92346 0.44121 0.0
H1150 H 0.96391 0.88787 0.45522 0.0
H1151 H 0.93824 0.85267 0.49123 0.0
C1152 C 0.87161 0.83923 0.51555 0.0
C1153 C 0.87359 0.84759 0.59211 0.0
C1154 C 0.84672 0.87484 0.55261 0.0
C1155 C 0.84939 0.87063 0.47465 0.0
N1156 N 0.87231 0.85297 0.38699 0.0
N1157 N 0.86649 0.87938 0.67728 0.0
C1158 C 0.86412 0.85401 0.45798 0.0
C1159 C 0.8621 0.86711 0.60848 0.0
N1160 N 0.8749 0.81545 0.49703 0.0
N1161 N 0.82784 0.88453 0.57513 0.0
H1162 H 0.87782 0.87516 0.7185 0.0
H1163 H 0.86166 0.89612 0.69073 0.0
H1164 H 0.81423 0.88789 0.53906 0.0
H1165 H 0.82272 0.88534 0.63038 0.0
H1166 H 0.87127 0.80658 0.44384 0.0
H1167 H 0.87701 0.80208 0.53649 0.0
H1168 H 0.88549 0.84375 0.37258 0.0
H1169 H 0.86919 0.86444 0.34418 0.0
C1170 C 0.2009 1.00289 0.50069 0.0
C1171 C 0.17277 0.99239 0.46399 0.0
C1172 C 0.16391 0.02473 0.55474 0.0
C1173 C 0.19285 0.0367 0.58816 0.0
N1174 N 0.24046 0.03931 0.58185 0.0
N1175 N 0.12932 0.99746 0.4534 0.0
C1176 C 0.21158 0.02615 0.55792 0.0
C1177 C 0.15487 1.00449 0.49089 0.0
N1178 N 0.21722 0.98962 0.48318 0.0
N1179 N 0.14425 0.03181 0.58611 0.0
H1180 H 0.12209 0.98316 0.40778 0.0
H1181 H 0.11665 1.00761 0.46312 0.0
H1182 H 0.1498 0.04602 0.63167 0.0
H1183 H 0.12183 0.02181 0.57143 0.0
H1184 H 0.23584 0.993 0.51285 0.0
H1185 H 0.21071 0.97323 0.44237 0.0
H1186 H 0.25664 0.03582 0.55723 0.0
H1187 H 0.24897 0.05579 0.62273 0.0
C1188 C 1.01384 0.19601 0.57287 0.0
C1189 C 1.00144 0.1664 0.6026 0.0
C1190 C 0.03092 0.15744 0.50398 0.0
C1191 C 0.04479 0.1876 0.47759 0.0
N1192 N 0.05163 0.23667 0.49702 0.0
N1193 N 1.00263 0.12053 0.59967 0.0
C1194 C 0.0367 0.20703 0.51511 0.0
C1195 C 1.01127 0.14767 0.56847 0.0
N1196 N 1.00268 0.21348 0.59723 0.0
N1197 N 0.03567 0.13745 0.4654 0.0
H1198 H 0.98898 0.11286 0.64623 0.0
H1199 H 1.01105 0.1068 0.58403 0.0
H1200 H 0.04963 0.14362 0.41938 0.0
H1201 H 0.02401 0.11449 0.47477 0.0
H1202 H 1.00753 0.23358 0.57267 0.0
H1203 H 0.98658 0.20672 0.63862 0.0
H1204 H 0.04997 0.253 0.52696 0.0
H1205 H 0.06759 0.24535 0.45513 0.0
C1206 C 0.83301 0.48193 0.8109 0.0
C1207 C 0.84767 0.51161 0.78321 0.0
C1208 C 0.89582 0.51937 0.82524 0.0
C1209 C 0.88085 0.48961 0.85011 0.0
N1210 N 0.83832 0.43984 0.846 0.0
N1211 N 0.89418 0.55656 0.74956 0.0
C1212 C 0.8505 0.46987 0.83466 0.0
C1213 C 0.87948 0.52979 0.78557 0.0
N1214 N 0.80272 0.46629 0.82134 0.0
N1215 N 0.92522 0.53794 0.84276 0.0
H1216 H 0.88358 0.56598 0.72134 0.0
H1217 H 0.91729 0.56855 0.74276 0.0
H1218 H 0.93807 0.53022 0.86843 0.0
H1219 H 0.93639 0.56103 0.83513 0.0
H1220 H 0.79164 0.44555 0.84738 0.0
H1221 H 0.78903 0.47541 0.81305 0.0
H1222 H 0.81662 0.42408 0.83022 0.0
H1223 H 0.85113 0.43066 0.86386 0.0
C1224 C 0.57879 0.39336 0.81864 0.0
C1225 C 0.55855 0.40307 0.83583 0.0
C1226 C 0.51816 0.35984 0.77558 0.0
C1227 C 0.53696 0.34691 0.77233 0.0
N1228 N 0.58437 0.3503 0.80069 0.0
N1229 N 0.50997 0.39795 0.83041 0.0
C1230 C 0.56734 0.36358 0.79491 0.0
C1231 C 0.52867 0.38735 0.8126 0.0
N1232 N 0.60871 0.41232 0.82878 0.0
N1233 N 0.49055 0.34631 0.74332 0.0
H1234 H 0.51779 0.41911 0.85378 0.0
H1235 H 0.48681 0.38542 0.82531 0.0
H1236 H 0.48036 0.32533 0.71877 0.0
H1237 H 0.47825 0.35699 0.73597 0.0
H1238 H 0.62496 0.40733 0.81186 0.0
H1239 H 0.61719 0.4343 0.84732 0.0
H1240 H 0.60574 0.36098 0.82342 0.0
H1241 H 0.57621 0.32762 0.79082 0.0
C1242 C 0.64626 0.18384 0.80883 0.0
C1243 C 0.63922 0.1547 0.82811 0.0
C1244 C 0.68361 0.16141 0.76628 0.0
C1245 C 0.69406 0.19282 0.76287 0.0
N1246 N 0.68671 0.23429 0.79615 0.0
N1247 N 0.64973 0.11454 0.82627 0.0
C1248 C 0.67561 0.20423 0.78693 0.0
C1249 C 0.65721 0.1429 0.80604 0.0
N1250 N 0.62529 0.19228 0.8155 0.0
N1251 N 0.69823 0.14904 0.73119 0.0
H1252 H 0.62946 0.10005 0.85207 0.0
H1253 H 0.66408 0.10602 0.82068 0.0
H1254 H 0.71789 0.16117 0.70166 0.0
H1255 H 0.68934 0.12602 0.72593 0.0
H1256 H 0.62871 0.21284 0.7971 0.0
H1257 H 0.60346 0.17721 0.83168 0.0
H1258 H 0.67433 0.24306 0.8196 0.0
H1259 H 0.70921 0.25031 0.78986 0.0
C1260 C 0.5303 0.1994 0.93463 0.0
C1261 C 0.54208 0.18022 0.91727 0.0
C1262 C 0.53112 0.18581 0.78412 0.0
C1263 C 0.51603 0.20192 0.80229 0.0
N1264 N 0.49442 0.21498 0.90427 0.0
N1265 N 0.54348 0.14821 0.82185 0.0
C1266 C 0.51385 0.20619 0.88025 0.0
C1267 C 0.53964 0.17161 0.84088 0.0
N1268 N 0.53547 0.21228 1.00286 0.0
N1269 N 0.53863 0.18469 0.71252 0.0
H1270 H 0.54695 0.13554 0.86076 0.0
H1271 H 0.5394 0.13909 0.76888 0.0
H1272 H 0.53461 0.19571 0.67014 0.0
H1273 H 0.55201 0.17583 0.69696 0.0
H1274 H 0.53016 0.22867 1.01653 0.0
H1275 H 0.54806 0.20922 0.04283 0.0
H1276 H 0.4898 0.21579 0.95991 0.0
H1277 H 0.47988 0.21738 0.86929 0.0
C1278 C 0.82954 0.35796 0.90681 0.0
C1279 C 0.85835 0.36792 0.93935 0.0
C1280 C 0.86295 0.33244 0.85038 0.0
C1281 C 0.83506 0.32399 0.81466 0.0
N1282 N 0.79365 0.33242 0.80652 0.0
N1283 N 0.90406 0.36671 0.93109 0.0
C1284 C 0.81894 0.33779 0.84284 0.0
C1285 C 0.87526 0.35546 0.90809 0.0
N1286 N 0.81149 0.36697 0.93905 0.0
N1287 N 0.87753 0.31758 0.83084 0.0
H1288 H 0.91372 0.38292 0.97238 0.0
H1289 H 0.91917 0.36188 0.90549 0.0
H1290 H 0.86985 0.30135 0.78933 0.0
H1291 H 0.8958 0.31946 0.85943 0.0
H1292 H 0.78921 0.35855 0.92487 0.0
H1293 H 0.81811 0.3812 0.98477 0.0
H1294 H 0.78236 0.34396 0.81689 0.0
H1295 H 0.78516 0.31786 0.76154 0.0
C1296 C 0.68596 0.4833 0.9262 0.0
C1297 C 0.67376 0.50118 0.95314 0.0
C1298 C 0.70778 0.54047 0.86098 0.0
C1299 C 0.71941 0.52232 0.83268 0.0
N1300 N 0.72099 0.47701 0.84642 0.0
N1301 N 0.67104 0.54574 0.93543 0.0
C1302 C 0.70877 0.49391 0.86796 0.0
C1303 C 0.68447 0.52958 0.91775 0.0
N1304 N 0.67502 0.45539 0.95544 0.0
N1305 N 0.72022 0.56919 0.836 0.0
H1306 H 0.65482 0.53921 0.97645 0.0
H1307 H 0.67422 0.5644 0.90628 0.0
H1308 H 0.73689 0.57796 0.79585 0.0
H1309 H 0.71604 0.58519 0.85902 0.0
H1310 H 0.67932 0.43919 0.9345 0.0
H1311 H 0.66041 0.44783 1.00024 0.0
H1312 H 0.71747 0.45775 0.87301 0.0
H1313 H 0.73611 0.48309 0.80285 0.0
C1314 C 0.57127 0.88188 0.23566 0.0
C1315 C 0.54776 0.85365 0.26003 0.0
C1316 C 0.51415 0.87349 0.26502 0.0
C1317 C 0.53482 0.89795 0.22291 0.0
N1318 N 0.58345 0.92719 0.16911 0.0
N1319 N 0.49501 0.82115 0.28666 0.0
C1320 C 0.56379 0.903 0.20953 0.0
C1321 C 0.5187 0.8491 0.27286 0.0
N1322 N 0.60043 0.88888 0.2397 0.0
N1323 N 0.48914 0.87277 0.29183 0.0
H1324 H 0.49667 0.80187 0.2858 0.0
H1325 H 0.47305 0.81666 0.29032 0.0
H1326 H 0.48542 0.89066 0.28466 0.0
H1327 H 0.47408 0.85605 0.32702 0.0
H1328 H 0.61827 0.91012 0.22781 0.0
H1329 H 0.60699 0.87457 0.2621 0.0
H1330 H 0.60379 0.93024 0.14995 0.0
H1331 H 0.57848 0.94352 0.15257 0.0
C1332 C 0.19615 0.71806 0.15775 0.0
C1333 C 0.22593 0.73296 0.18207 0.0
C1334 C 0.23283 0.69188 0.14532 0.0
C1335 C 0.20284 0.6764 0.11965 0.0
N1336 N 0.15783 0.67787 0.08674 0.0
N1337 N 0.27527 0.7398 0.17939 0.0
C1338 C 0.18501 0.69041 0.12094 0.0
C1339 C 0.24527 0.72189 0.16783 0.0
N1340 N 0.17812 0.7296 0.17394 0.0
N1341 N 0.24847 0.67729 0.1549 0.0
H1342 H 0.28455 0.762 0.19692 0.0
H1343 H 0.29091 0.73367 0.16446 0.0
H1344 H 0.23926 0.65434 0.14664 0.0
H1345 H 0.26946 0.68718 0.17962 0.0
H1346 H 0.15497 0.71769 0.1678 0.0
H1347 H 0.18636 0.75086 0.19712 0.0
H1348 H 0.14641 0.68939 0.07798 0.0
H1349 H 0.14719 0.65692 0.06204 0.0
C1350 C 0.362 0.50149 0.30498 0.0
C1351 C 0.35389 0.52398 0.31423 0.0
C1352 C 0.40325 0.56187 0.27209 0.0
C1353 C 0.40796 0.53872 0.2474 0.0
N1354 N 0.39398 0.48699 0.2412 0.0
N1355 N 0.36594 0.57544 0.29679 0.0
C1356 C 0.38825 0.50869 0.26551 0.0
C1357 C 0.37451 0.55436 0.29688 0.0
N1358 N 0.34505 0.4735 0.33403 0.0
N1359 N 0.42584 0.59096 0.26795 0.0
H1360 H 0.34421 0.57063 0.30751 0.0
H1361 H 0.37957 0.59718 0.27767 0.0
H1362 H 0.44713 0.59673 0.2491 0.0
H1363 H 0.42437 0.60878 0.2904 0.0
H1364 H 0.35206 0.45785 0.3358 0.0
H1365 H 0.32511 0.4664 0.36198 0.0
H1366 H 0.37844 0.46417 0.24321 0.0
H1367 H 0.41414 0.49217 0.2158 0.0
C1368 C 0.18045 0.49312 0.22837 0.0
C1369 C 0.20807 0.51217 0.26596 0.0
C1370 C 0.21445 0.5531 0.17868 0.0
C1371 C 0.1858 0.53463 0.14468 0.0
N1372 N 0.13977 0.48742 0.1488 0.0
N1373 N 0.24959 0.56211 0.27946 0.0
C1374 C 0.16853 0.50471 0.17274 0.0
C1375 C 0.2245 0.54261 0.24125 0.0
N1376 N 0.16578 0.46322 0.24381 0.0
N1377 N 0.23292 0.58065 0.14907 0.0
H1378 H 0.25764 0.5554 0.32366 0.0
H1379 H 0.26108 0.58517 0.27154 0.0
H1380 H 0.22673 0.5889 0.10428 0.0
H1381 H 0.25516 0.5943 0.16431 0.0
H1382 H 0.14778 0.44723 0.21316 0.0
H1383 H 0.17319 0.454 0.28369 0.0
H1384 H 0.12452 0.46703 0.17243 0.0
H1385 H 0.13024 0.49463 0.10932 0.0
C1386 C 0.54382 0.6964 0.22967 0.0
C1387 C 0.52446 0.70342 0.27134 0.0
C1388 C 0.48284 0.66691 0.18701 0.0
C1389 C 0.50179 0.65844 0.14846 0.0
N1390 N 0.55031 0.66298 0.14499 0.0
N1391 N 0.47378 0.69106 0.29287 0.0
C1392 C 0.53229 0.67282 0.17317 0.0
C1393 C 0.49353 0.68745 0.25028 0.0
N1394 N 0.57386 0.71319 0.24202 0.0
N1395 N 0.45449 0.65618 0.16113 0.0
H1396 H 0.48051 0.7056 0.33801 0.0
H1397 H 0.45068 0.67795 0.28773 0.0
H1398 H 0.44602 0.64169 0.11603 0.0
H1399 H 0.44023 0.66351 0.17983 0.0
H1400 H 0.5898 0.71232 0.2087 0.0
H1401 H 0.58304 0.72987 0.28236 0.0
H1402 H 0.57141 0.66935 0.16581 0.0
H1403 H 0.54317 0.64635 0.10461 0.0
C1404 C 0.35343 0.86256 0.2608 0.0
C1405 C 0.34212 0.83407 0.29598 0.0
C1406 C 0.37601 0.82564 0.21026 0.0
C1407 C 0.38852 0.8548 0.17808 0.0
N1408 N 0.39129 0.9026 0.18378 0.0
N1409 N 0.3466 0.79024 0.30791 0.0
C1410 C 0.37765 0.87353 0.20663 0.0
C1411 C 0.35458 0.8162 0.27119 0.0
N1412 N 0.34001 0.8789 0.27654 0.0
N1413 N 0.38374 0.80617 0.18041 0.0
H1414 H 0.33151 0.78279 0.35175 0.0
H1415 H 0.35669 0.77742 0.29961 0.0
H1416 H 0.39919 0.81216 0.1376 0.0
H1417 H 0.37331 0.78356 0.1937 0.0
H1418 H 0.34402 0.89782 0.24723 0.0
H1419 H 0.32303 0.87221 0.31558 0.0
H1420 H 0.38741 0.91871 0.20748 0.0
H1421 H 0.40852 0.91135 0.14503 0.0
loop_
_geom_bond_atom_site_label_1
_geom_bond_atom_site_label_2
_geom_bond_distance
_geom_bond_site_symmetry_2
_ccdc_geom_bond_type
Co0 O3 1.970 . S
Co0 N17 1.989 . S
Co0 O25 1.967 . S
Co0 O32 1.920 . S
Co1 O4 1.966 . S
Co1 N10 2.022 . S
Co1 N18 1.993 . S
Co1 O26 1.941 . S
C2 O3 1.258 . S
C2 O4 1.263 . S
O3 Co0 1.970 . S
O3 C2 1.258 . S
O4 Co1 1.966 . S
O4 C2 1.263 . S
C5 O6 1.235 . S
C5 O32 1.289 . S
O6 C5 1.235 . S
C7 C9 1.400 . S
C7 N10 1.351 . S
C7 C12 1.501 . S
C8 C9 1.387 . S
C8 N11 1.341 . S
C9 C7 1.400 . S
C9 C8 1.387 . S
N10 Co1 2.022 . S
N10 C7 1.351 . S
N10 N11 1.365 . S
N11 C8 1.341 . S
N11 N10 1.365 . S
N11 H31 0.862 . S
C12 C7 1.501 . S
C12 H13 0.961 . S
C12 H14 0.961 . S
C12 H15 0.960 . S
H13 C12 0.961 . S
H14 C12 0.961 . S
H15 C12 0.960 . S
C16 N17 1.342 . S
C16 C20 1.401 . S
C16 C21 1.499 . S
N17 Co0 1.989 . S
N17 C16 1.342 . S
N17 N18 1.388 . S
N18 Co1 1.993 . S
N18 N17 1.388 . S
N18 C19 1.346 . S
C19 N18 1.346 . S
C19 C20 1.396 . S
C19 C29 1.510 . S
C20 C16 1.401 . S
C20 C19 1.396 . S
C21 C16 1.499 . S
C21 H22 0.959 . S
C21 H23 0.960 . S
C21 H24 0.961 . S
H22 C21 0.959 . S
H23 C21 0.960 . S
H24 C21 0.961 . S
O25 Co0 1.967 . S
O25 C33 1.258 . S
O26 Co1 1.941 . S
O26 C33 1.266 . S
H27 C29 0.959 . S
H28 C29 0.961 . S
C29 C19 1.510 . S
C29 H27 0.959 . S
C29 H28 0.961 . S
C29 H30 0.960 . S
H30 C29 0.960 . S
H31 N11 0.862 . S
O32 Co0 1.920 . S
O32 C5 1.289 . S
C33 O25 1.258 . S
C33 O26 1.266 . S
Co34 O37 1.970 . S
Co34 N51 1.989 . S
Co34 O59 1.967 . S
Co34 O66 1.920 . S
Co35 O38 1.966 . S
Co35 N44 2.022 . S
Co35 N52 1.993 . S
Co35 O60 1.941 . S
C36 O37 1.258 . S
C36 O38 1.263 . S
O37 Co34 1.970 . S
O37 C36 1.258 . S
O38 Co35 1.966 . S
O38 C36 1.263 . S
C39 O40 1.235 . S
C39 O66 1.289 . S
O40 C39 1.235 . S
C41 C43 1.400 . S
C41 N44 1.351 . S
C41 C46 1.501 . S
C42 C43 1.387 . S
C42 N45 1.341 . S
C43 C41 1.400 . S
C43 C42 1.387 . S
N44 Co35 2.022 . S
N44 C41 1.351 . S
N44 N45 1.365 . S
N45 C42 1.341 . S
N45 N44 1.365 . S
N45 H65 0.862 . S
C46 C41 1.501 . S
C46 H47 0.961 . S
C46 H48 0.961 . S
C46 H49 0.960 . S
H47 C46 0.961 . S
H48 C46 0.961 . S
H49 C46 0.960 . S
C50 N51 1.342 . S
C50 C54 1.401 . S
C50 C55 1.499 . S
N51 Co34 1.989 . S
N51 C50 1.342 . S
N51 N52 1.388 . S
N52 Co35 1.993 . S
N52 N51 1.388 . S
N52 C53 1.346 . S
C53 N52 1.346 . S
C53 C54 1.396 . S
C53 C63 1.510 . S
C54 C50 1.401 . S
C54 C53 1.396 . S
C55 C50 1.499 . S
C55 H56 0.959 . S
C55 H57 0.960 . S
C55 H58 0.961 . S
H56 C55 0.959 . S
H57 C55 0.960 . S
H58 C55 0.961 . S
O59 Co34 1.967 . S
O59 C67 1.258 . S
O60 Co35 1.941 . S
O60 C67 1.266 . S
H61 C63 0.959 . S
H62 C63 0.961 . S
C63 C53 1.510 . S
C63 H61 0.959 . S
C63 H62 0.961 . S
C63 H64 0.960 . S
H64 C63 0.960 . S
H65 N45 0.862 . S
O66 Co34 1.920 . S
O66 C39 1.289 . S
C67 O59 1.258 . S
C67 O60 1.266 . S
Co68 O71 1.970 . S
Co68 N85 1.989 . S
Co68 O93 1.967 . S
Co68 O100 1.920 . S
Co69 O72 1.966 . S
Co69 N78 2.022 . S
Co69 N86 1.993 . S
Co69 O94 1.941 . S
C70 O71 1.258 . S
C70 O72 1.263 . S
O71 Co68 1.970 . S
O71 C70 1.258 . S
O72 Co69 1.966 . S
O72 C70 1.263 . S
C73 O74 1.235 . S
C73 O100 1.289 . S
O74 C73 1.235 . S
C75 C77 1.400 . S
C75 N78 1.351 . S
C75 C80 1.501 . S
C76 C77 1.387 . S
C76 N79 1.341 . S
C77 C75 1.400 . S
C77 C76 1.387 . S
N78 Co69 2.022 . S
N78 C75 1.351 . S
N78 N79 1.365 . S
N79 C76 1.341 . S
N79 N78 1.365 . S
N79 H99 0.862 . S
C80 C75 1.501 . S
C80 H81 0.961 . S
C80 H82 0.961 . S
C80 H83 0.960 . S
H81 C80 0.961 . S
H82 C80 0.961 . S
H83 C80 0.960 . S
C84 N85 1.342 . S
C84 C88 1.401 . S
C84 C89 1.499 . S
N85 Co68 1.989 . S
N85 C84 1.342 . S
N85 N86 1.388 . S
N86 Co69 1.993 . S
N86 N85 1.388 . S
N86 C87 1.346 . S
C87 N86 1.346 . S
C87 C88 1.396 . S
C87 C97 1.510 . S
C88 C84 1.401 . S
C88 C87 1.396 . S
C89 C84 1.499 . S
C89 H90 0.959 . S
C89 H91 0.960 . S
C89 H92 0.961 . S
H90 C89 0.959 . S
H91 C89 0.960 . S
H92 C89 0.961 . S
O93 Co68 1.967 . S
O93 C101 1.258 . S
O94 Co69 1.941 . S
O94 C101 1.266 . S
H95 C97 0.959 . S
H96 C97 0.961 . S
C97 C87 1.510 . S
C97 H95 0.959 . S
C97 H96 0.961 . S
C97 H98 0.960 . S
H98 C97 0.960 . S
H99 N79 0.862 . S
O100 Co68 1.920 . S
O100 C73 1.289 . S
C101 O93 1.258 . S
C101 O94 1.266 . S
Co102 O105 1.970 . S
Co102 N119 1.989 . S
Co102 O127 1.967 . S
Co102 O134 1.920 . S
Co103 O106 1.966 . S
Co103 N112 2.022 . S
Co103 N120 1.993 . S
Co103 O128 1.941 . S
C104 O105 1.258 . S
C104 O106 1.263 . S
O105 Co102 1.970 . S
O105 C104 1.258 . S
O106 Co103 1.966 . S
O106 C104 1.263 . S
C107 O108 1.235 . S
C107 O134 1.289 . S
O108 C107 1.235 . S
C109 C111 1.400 . S
C109 N112 1.351 . S
C109 C114 1.501 . S
C110 C111 1.387 . S
C110 N113 1.341 . S
C111 C109 1.400 . S
C111 C110 1.387 . S
N112 Co103 2.022 . S
N112 C109 1.351 . S
N112 N113 1.365 . S
N113 C110 1.341 . S
N113 N112 1.365 . S
N113 H133 0.862 . S
C114 C109 1.501 . S
C114 H115 0.961 . S
C114 H116 0.961 . S
C114 H117 0.960 . S
H115 C114 0.961 . S
H116 C114 0.961 . S
H117 C114 0.960 . S
C118 N119 1.342 . S
C118 C122 1.401 . S
C118 C123 1.499 . S
N119 Co102 1.989 . S
N119 C118 1.342 . S
N119 N120 1.388 . S
N120 Co103 1.993 . S
N120 N119 1.388 . S
N120 C121 1.346 . S
C121 N120 1.346 . S
C121 C122 1.396 . S
C121 C131 1.510 . S
C122 C118 1.401 . S
C122 C121 1.396 . S
C123 C118 1.499 . S
C123 H124 0.959 . S
C123 H125 0.960 . S
C123 H126 0.961 . S
H124 C123 0.959 . S
H125 C123 0.960 . S
H126 C123 0.961 . S
O127 Co102 1.967 . S
O127 C135 1.258 . S
O128 Co103 1.941 . S
O128 C135 1.266 . S
H129 C131 0.959 . S
H130 C131 0.961 . S
C131 C121 1.510 . S
C131 H129 0.959 . S
C131 H130 0.961 . S
C131 H132 0.960 . S
H132 C131 0.960 . S
H133 N113 0.862 . S
O134 Co102 1.920 . S
O134 C107 1.289 . S
C135 O127 1.258 . S
C135 O128 1.266 . S
Co136 O139 1.970 . S
Co136 N153 1.989 . S
Co136 O161 1.967 . S
Co136 O168 1.920 . S
Co137 O140 1.966 . S
Co137 N146 2.022 . S
Co137 N154 1.993 . S
Co137 O162 1.941 . S
C138 O139 1.258 . S
C138 O140 1.263 . S
O139 Co136 1.970 . S
O139 C138 1.258 . S
O140 Co137 1.966 . S
O140 C138 1.263 . S
C141 O142 1.235 . S
C141 O168 1.289 . S
O142 C141 1.235 . S
C143 C145 1.400 . S
C143 N146 1.351 . S
C143 C148 1.501 . S
C144 C145 1.387 . S
C144 N147 1.341 . S
C145 C143 1.400 . S
C145 C144 1.387 . S
N146 Co137 2.022 . S
N146 C143 1.351 . S
N146 N147 1.365 . S
N147 C144 1.341 . S
N147 N146 1.365 . S
N147 H167 0.862 . S
C148 C143 1.501 . S
C148 H149 0.961 . S
C148 H150 0.961 . S
C148 H151 0.960 . S
H149 C148 0.961 . S
H150 C148 0.961 . S
H151 C148 0.960 . S
C152 N153 1.342 . S
C152 C156 1.401 . S
C152 C157 1.499 . S
N153 Co136 1.989 . S
N153 C152 1.342 . S
N153 N154 1.388 . S
N154 Co137 1.993 . S
N154 N153 1.388 . S
N154 C155 1.346 . S
C155 N154 1.346 . S
C155 C156 1.396 . S
C155 C165 1.510 . S
C156 C152 1.401 . S
C156 C155 1.396 . S
C157 C152 1.499 . S
C157 H158 0.959 . S
C157 H159 0.960 . S
C157 H160 0.961 . S
H158 C157 0.959 . S
H159 C157 0.960 . S
H160 C157 0.961 . S
O161 Co136 1.967 . S
O161 C169 1.258 . S
O162 Co137 1.941 . S
O162 C169 1.266 . S
H163 C165 0.959 . S
H164 C165 0.961 . S
C165 C155 1.510 . S
C165 H163 0.959 . S
C165 H164 0.961 . S
C165 H166 0.960 . S
H166 C165 0.960 . S
H167 N147 0.862 . S
O168 Co136 1.920 . S
O168 C141 1.289 . S
C169 O161 1.258 . S
C169 O162 1.266 . S
Co170 O173 1.970 . S
Co170 N187 1.989 . S
Co170 O195 1.967 . S
Co170 O202 1.920 . S
Co171 O174 1.966 . S
Co171 N180 2.022 . S
Co171 N188 1.993 . S
Co171 O196 1.941 . S
C172 O173 1.258 . S
C172 O174 1.263 . S
O173 Co170 1.970 . S
O173 C172 1.258 . S
O174 Co171 1.966 . S
O174 C172 1.263 . S
C175 O176 1.235 . S
C175 O202 1.289 . S
O176 C175 1.235 . S
C177 C179 1.400 . S
C177 N180 1.351 . S
C177 C182 1.501 . S
C178 C179 1.387 . S
C178 N181 1.341 . S
C179 C177 1.400 . S
C179 C178 1.387 . S
N180 Co171 2.022 . S
N180 C177 1.351 . S
N180 N181 1.365 . S
N181 C178 1.341 . S
N181 N180 1.365 . S
N181 H201 0.862 . S
C182 C177 1.501 . S
C182 H183 0.961 . S
C182 H184 0.961 . S
C182 H185 0.960 . S
H183 C182 0.961 . S
H184 C182 0.961 . S
H185 C182 0.960 . S
C186 N187 1.342 . S
C186 C190 1.401 . S
C186 C191 1.499 . S
N187 Co170 1.989 . S
N187 C186 1.342 . S
N187 N188 1.388 . S
N188 Co171 1.993 . S
N188 N187 1.388 . S
N188 C189 1.346 . S
C189 N188 1.346 . S
C189 C190 1.396 . S
C189 C199 1.510 . S
C190 C186 1.401 . S
C190 C189 1.396 . S
C191 C186 1.499 . S
C191 H192 0.959 . S
C191 H193 0.960 . S
C191 H194 0.961 . S
H192 C191 0.959 . S
H193 C191 0.960 . S
H194 C191 0.961 . S
O195 Co170 1.967 . S
O195 C203 1.258 . S
O196 Co171 1.941 . S
O196 C203 1.266 . S
H197 C199 0.959 . S
H198 C199 0.961 . S
C199 C189 1.510 . S
C199 H197 0.959 . S
C199 H198 0.961 . S
C199 H200 0.960 . S
H200 C199 0.960 . S
H201 N181 0.862 . S
O202 Co170 1.920 . S
O202 C175 1.289 . S
C203 O195 1.258 . S
C203 O196 1.266 . S
Co204 O207 1.970 . S
Co204 N221 1.989 . S
Co204 O229 1.967 . S
Co204 O236 1.920 . S
Co205 O208 1.966 . S
Co205 N214 2.022 . S
Co205 N222 1.993 . S
Co205 O230 1.941 . S
C206 O207 1.258 . S
C206 O208 1.263 . S
O207 Co204 1.970 . S
O207 C206 1.258 . S
O208 Co205 1.966 . S
O208 C206 1.263 . S
C209 O210 1.235 . S
C209 O236 1.289 . S
O210 C209 1.235 . S
C211 C213 1.400 . S
C211 N214 1.351 . S
C211 C216 1.501 . S
C212 C213 1.387 . S
C212 N215 1.341 . S
C213 C211 1.400 . S
C213 C212 1.387 . S
N214 Co205 2.022 . S
N214 C211 1.351 . S
N214 N215 1.365 . S
N215 C212 1.341 . S
N215 N214 1.365 . S
N215 H235 0.862 . S
C216 C211 1.501 . S
C216 H217 0.961 . S
C216 H218 0.961 . S
C216 H219 0.960 . S
H217 C216 0.961 . S
H218 C216 0.961 . S
H219 C216 0.960 . S
C220 N221 1.342 . S
C220 C224 1.401 . S
C220 C225 1.499 . S
N221 Co204 1.989 . S
N221 C220 1.342 . S
N221 N222 1.388 . S
N222 Co205 1.993 . S
N222 N221 1.388 . S
N222 C223 1.346 . S
C223 N222 1.346 . S
C223 C224 1.396 . S
C223 C233 1.510 . S
C224 C220 1.401 . S
C224 C223 1.396 . S
C225 C220 1.499 . S
C225 H226 0.959 . S
C225 H227 0.960 . S
C225 H228 0.961 . S
H226 C225 0.959 . S
H227 C225 0.960 . S
H228 C225 0.961 . S
O229 Co204 1.967 . S
O229 C237 1.258 . S
O230 Co205 1.941 . S
O230 C237 1.266 . S
H231 C233 0.959 . S
H232 C233 0.961 . S
C233 C223 1.510 . S
C233 H231 0.959 . S
C233 H232 0.961 . S
C233 H234 0.960 . S
H234 C233 0.960 . S
H235 N215 0.862 . S
O236 Co204 1.920 . S
O236 C209 1.289 . S
C237 O229 1.258 . S
C237 O230 1.266 . S
Co238 O241 1.970 . S
Co238 N255 1.989 . S
Co238 O263 1.967 . S
Co238 O270 1.920 . S
Co239 O242 1.966 . S
Co239 N248 2.022 . S
Co239 N256 1.993 . S
Co239 O264 1.941 . S
C240 O241 1.258 . S
C240 O242 1.263 . S
O241 Co238 1.970 . S
O241 C240 1.258 . S
O242 Co239 1.966 . S
O242 C240 1.263 . S
C243 O244 1.235 . S
C243 O270 1.289 . S
O244 C243 1.235 . S
C245 C247 1.400 . S
C245 N248 1.351 . S
C245 C250 1.501 . S
C246 C247 1.387 . S
C246 N249 1.341 . S
C247 C245 1.400 . S
C247 C246 1.387 . S
N248 Co239 2.022 . S
N248 C245 1.351 . S
N248 N249 1.365 . S
N249 C246 1.341 . S
N249 N248 1.365 . S
N249 H269 0.862 . S
C250 C245 1.501 . S
C250 H251 0.961 . S
C250 H252 0.961 . S
C250 H253 0.960 . S
H251 C250 0.961 . S
H252 C250 0.961 . S
H253 C250 0.960 . S
C254 N255 1.342 . S
C254 C258 1.401 . S
C254 C259 1.499 . S
N255 Co238 1.989 . S
N255 C254 1.342 . S
N255 N256 1.388 . S
N256 Co239 1.993 . S
N256 N255 1.388 . S
N256 C257 1.346 . S
C257 N256 1.346 . S
C257 C258 1.396 . S
C257 C267 1.510 . S
C258 C254 1.401 . S
C258 C257 1.396 . S
C259 C254 1.499 . S
C259 H260 0.959 . S
C259 H261 0.960 . S
C259 H262 0.961 . S
H260 C259 0.959 . S
H261 C259 0.960 . S
H262 C259 0.961 . S
O263 Co238 1.967 . S
O263 C271 1.258 . S
O264 Co239 1.941 . S
O264 C271 1.266 . S
H265 C267 0.959 . S
H266 C267 0.961 . S
C267 C257 1.510 . S
C267 H265 0.959 . S
C267 H266 0.961 . S
C267 H268 0.960 . S
H268 C267 0.960 . S
H269 N249 0.862 . S
O270 Co238 1.920 . S
O270 C243 1.289 . S
C271 O263 1.258 . S
C271 O264 1.266 . S
Co272 O275 1.970 . S
Co272 N289 1.989 . S
Co272 O297 1.967 . S
Co272 O304 1.920 . S
Co273 O276 1.966 . S
Co273 N282 2.022 . S
Co273 N290 1.993 . S
Co273 O298 1.941 . S
C274 O275 1.258 . S
C274 O276 1.263 . S
O275 Co272 1.970 . S
O275 C274 1.258 . S
O276 Co273 1.966 . S
O276 C274 1.263 . S
C277 O278 1.235 . S
C277 O304 1.289 . S
O278 C277 1.235 . S
C279 C281 1.400 . S
C279 N282 1.351 . S
C279 C284 1.501 . S
C280 C281 1.387 . S
C280 N283 1.341 . S
C281 C279 1.400 . S
C281 C280 1.387 . S
N282 Co273 2.022 . S
N282 C279 1.351 . S
N282 N283 1.365 . S
N283 C280 1.341 . S
N283 N282 1.365 . S
N283 H303 0.862 . S
C284 C279 1.501 . S
C284 H285 0.961 . S
C284 H286 0.961 . S
C284 H287 0.960 . S
H285 C284 0.961 . S
H286 C284 0.961 . S
H287 C284 0.960 . S
C288 N289 1.342 . S
C288 C292 1.401 . S
C288 C293 1.499 . S
N289 Co272 1.989 . S
N289 C288 1.342 . S
N289 N290 1.388 . S
N290 Co273 1.993 . S
N290 N289 1.388 . S
N290 C291 1.346 . S
C291 N290 1.346 . S
C291 C292 1.396 . S
C291 C301 1.510 . S
C292 C288 1.401 . S
C292 C291 1.396 . S
C293 C288 1.499 . S
C293 H294 0.959 . S
C293 H295 0.960 . S
C293 H296 0.961 . S
H294 C293 0.959 . S
H295 C293 0.960 . S
H296 C293 0.961 . S
O297 Co272 1.967 . S
O297 C305 1.258 . S
O298 Co273 1.941 . S
O298 C305 1.266 . S
H299 C301 0.959 . S
H300 C301 0.961 . S
C301 C291 1.510 . S
C301 H299 0.959 . S
C301 H300 0.961 . S
C301 H302 0.960 . S
H302 C301 0.960 . S
H303 N283 0.862 . S
O304 Co272 1.920 . S
O304 C277 1.289 . S
C305 O297 1.258 . S
C305 O298 1.266 . S
Co306 O309 1.970 . S
Co306 N323 1.989 1_556 S
Co306 O331 1.967 . S
Co306 O338 1.920 . S
Co307 O310 1.966 . S
Co307 N316 2.022 . S
Co307 N324 1.993 . S
Co307 O332 1.941 . S
C308 O309 1.258 . S
C308 O310 1.263 1_556 S
O309 Co306 1.970 . S
O309 C308 1.258 . S
O310 Co307 1.966 . S
O310 C308 1.263 1_554 S
C311 O312 1.235 . S
C311 O338 1.289 . S
O312 C311 1.235 . S
C313 C315 1.400 . S
C313 N316 1.351 . S
C313 C318 1.501 . S
C314 C315 1.387 . S
C314 N317 1.341 . S
C315 C313 1.400 . S
C315 C314 1.387 . S
N316 Co307 2.022 . S
N316 C313 1.351 . S
N316 N317 1.365 . S
N317 C314 1.341 . S
N317 N316 1.365 . S
N317 H337 0.862 . S
C318 C313 1.501 . S
C318 H319 0.961 . S
C318 H320 0.961 . S
C318 H321 0.960 . S
H319 C318 0.961 . S
H320 C318 0.961 . S
H321 C318 0.960 . S
C322 N323 1.342 . S
C322 C326 1.401 . S
C322 C327 1.499 . S
N323 Co306 1.989 1_554 S
N323 C322 1.342 . S
N323 N324 1.388 . S
N324 Co307 1.993 . S
N324 N323 1.388 . S
N324 C325 1.346 . S
C325 N324 1.346 . S
C325 C326 1.396 . S
C325 C335 1.510 . S
C326 C322 1.401 . S
C326 C325 1.396 . S
C327 C322 1.499 . S
C327 H328 0.959 . S
C327 H329 0.960 . S
C327 H330 0.961 . S
H328 C327 0.959 . S
H329 C327 0.960 . S
H330 C327 0.961 . S
O331 Co306 1.967 . S
O331 C339 1.258 1_556 S
O332 Co307 1.941 . S
O332 C339 1.266 . S
H333 C335 0.959 . S
H334 C335 0.961 . S
C335 C325 1.510 . S
C335 H333 0.959 . S
C335 H334 0.961 . S
C335 H336 0.960 . S
H336 C335 0.960 . S
H337 N317 0.862 . S
O338 Co306 1.920 . S
O338 C311 1.289 . S
C339 O331 1.258 1_554 S
C339 O332 1.266 . S
Co340 O343 1.970 . S
Co340 N357 1.989 1_556 S
Co340 O365 1.967 . S
Co340 O372 1.920 . S
Co341 O344 1.966 . S
Co341 N350 2.022 . S
Co341 N358 1.993 . S
Co341 O366 1.941 . S
C342 O343 1.258 . S
C342 O344 1.263 1_556 S
O343 Co340 1.970 . S
O343 C342 1.258 . S
O344 Co341 1.966 . S
O344 C342 1.263 1_554 S
C345 O346 1.235 . S
C345 O372 1.289 . S
O346 C345 1.235 . S
C347 C349 1.400 . S
C347 N350 1.351 . S
C347 C352 1.501 . S
C348 C349 1.387 . S
C348 N351 1.341 . S
C349 C347 1.400 . S
C349 C348 1.387 . S
N350 Co341 2.022 . S
N350 C347 1.351 . S
N350 N351 1.365 . S
N351 C348 1.341 . S
N351 N350 1.365 . S
N351 H371 0.862 . S
C352 C347 1.501 . S
C352 H353 0.961 . S
C352 H354 0.961 . S
C352 H355 0.960 . S
H353 C352 0.961 . S
H354 C352 0.961 . S
H355 C352 0.960 . S
C356 N357 1.342 . S
C356 C360 1.401 . S
C356 C361 1.499 . S
N357 Co340 1.989 1_554 S
N357 C356 1.342 . S
N357 N358 1.388 . S
N358 Co341 1.993 . S
N358 N357 1.388 . S
N358 C359 1.346 . S
C359 N358 1.346 . S
C359 C360 1.396 . S
C359 C369 1.510 . S
C360 C356 1.401 . S
C360 C359 1.396 . S
C361 C356 1.499 . S
C361 H362 0.959 . S
C361 H363 0.960 . S
C361 H364 0.961 . S
H362 C361 0.959 . S
H363 C361 0.960 . S
H364 C361 0.961 . S
O365 Co340 1.967 . S
O365 C373 1.258 1_556 S
O366 Co341 1.941 . S
O366 C373 1.266 . S
H367 C369 0.959 . S
H368 C369 0.961 . S
C369 C359 1.510 . S
C369 H367 0.959 . S
C369 H368 0.961 . S
C369 H370 0.960 . S
H370 C369 0.960 . S
H371 N351 0.862 . S
O372 Co340 1.920 . S
O372 C345 1.289 . S
C373 O365 1.258 1_554 S
C373 O366 1.266 . S
Co374 O377 1.970 . S
Co374 N391 1.989 1_556 S
Co374 O399 1.967 . S
Co374 O406 1.920 . S
Co375 O378 1.966 . S
Co375 N384 2.022 . S
Co375 N392 1.993 . S
Co375 O400 1.941 . S
C376 O377 1.258 . S
C376 O378 1.263 1_556 S
O377 Co374 1.970 . S
O377 C376 1.258 . S
O378 Co375 1.966 . S
O378 C376 1.263 1_554 S
C379 O380 1.235 . S
C379 O406 1.289 . S
O380 C379 1.235 . S
C381 C383 1.400 . S
C381 N384 1.351 . S
C381 C386 1.501 . S
C382 C383 1.387 . S
C382 N385 1.341 . S
C383 C381 1.400 . S
C383 C382 1.387 . S
N384 Co375 2.022 . S
N384 C381 1.351 . S
N384 N385 1.365 . S
N385 C382 1.341 . S
N385 N384 1.365 . S
N385 H405 0.862 . S
C386 C381 1.501 . S
C386 H387 0.961 . S
C386 H388 0.961 . S
C386 H389 0.960 . S
H387 C386 0.961 . S
H388 C386 0.961 . S
H389 C386 0.960 . S
C390 N391 1.342 . S
C390 C394 1.401 . S
C390 C395 1.499 . S
N391 Co374 1.989 1_554 S
N391 C390 1.342 . S
N391 N392 1.388 . S
N392 Co375 1.993 . S
N392 N391 1.388 . S
N392 C393 1.346 . S
C393 N392 1.346 . S
C393 C394 1.396 . S
C393 C403 1.510 . S
C394 C390 1.401 . S
C394 C393 1.396 . S
C395 C390 1.499 . S
C395 H396 0.959 . S
C395 H397 0.960 . S
C395 H398 0.961 . S
H396 C395 0.959 . S
H397 C395 0.960 . S
H398 C395 0.961 . S
O399 Co374 1.967 . S
O399 C407 1.258 1_556 S
O400 Co375 1.941 . S
O400 C407 1.266 . S
H401 C403 0.959 . S
H402 C403 0.961 . S
C403 C393 1.510 . S
C403 H401 0.959 . S
C403 H402 0.961 . S
C403 H404 0.960 . S
H404 C403 0.960 . S
H405 N385 0.862 . S
O406 Co374 1.920 . S
O406 C379 1.289 . S
C407 O399 1.258 1_554 S
C407 O400 1.266 . S
Co408 O411 1.970 . S
Co408 N425 1.989 1_554 S
Co408 O433 1.967 . S
Co408 O440 1.920 . S
Co409 O412 1.966 . S
Co409 N418 2.022 . S
Co409 N426 1.993 . S
Co409 O434 1.941 . S
C410 O411 1.258 . S
C410 O412 1.263 1_554 S
O411 Co408 1.970 . S
O411 C410 1.258 . S
O412 Co409 1.966 . S
O412 C410 1.263 1_556 S
C413 O414 1.235 . S
C413 O440 1.289 . S
O414 C413 1.235 . S
C415 C417 1.400 . S
C415 N418 1.351 . S
C415 C420 1.501 . S
C416 C417 1.387 . S
C416 N419 1.341 . S
C417 C415 1.400 . S
C417 C416 1.387 . S
N418 Co409 2.022 . S
N418 C415 1.351 . S
N418 N419 1.365 . S
N419 C416 1.341 . S
N419 N418 1.365 . S
N419 H439 0.862 . S
C420 C415 1.501 . S
C420 H421 0.961 . S
C420 H422 0.961 . S
C420 H423 0.960 . S
H421 C420 0.961 . S
H422 C420 0.961 . S
H423 C420 0.960 . S
C424 N425 1.342 . S
C424 C428 1.401 . S
C424 C429 1.499 . S
N425 Co408 1.989 1_556 S
N425 C424 1.342 . S
N425 N426 1.388 . S
N426 Co409 1.993 . S
N426 N425 1.388 . S
N426 C427 1.346 . S
C427 N426 1.346 . S
C427 C428 1.396 . S
C427 C437 1.510 . S
C428 C424 1.401 . S
C428 C427 1.396 . S
C429 C424 1.499 . S
C429 H430 0.959 . S
C429 H431 0.960 . S
C429 H432 0.961 . S
H430 C429 0.959 . S
H431 C429 0.960 . S
H432 C429 0.961 . S
O433 Co408 1.967 . S
O433 C441 1.258 1_554 S
O434 Co409 1.941 . S
O434 C441 1.266 . S
H435 C437 0.959 . S
H436 C437 0.961 . S
C437 C427 1.510 . S
C437 H435 0.959 . S
C437 H436 0.961 . S
C437 H438 0.960 . S
H438 C437 0.960 . S
H439 N419 0.862 . S
O440 Co408 1.920 . S
O440 C413 1.289 . S
C441 O433 1.258 1_556 S
C441 O434 1.266 . S
Co442 O445 1.970 . S
Co442 N459 1.989 1_554 S
Co442 O467 1.967 . S
Co442 O474 1.920 . S
Co443 O446 1.966 . S
Co443 N452 2.022 . S
Co443 N460 1.993 . S
Co443 O468 1.941 . S
C444 O445 1.258 . S
C444 O446 1.263 1_554 S
O445 Co442 1.970 . S
O445 C444 1.258 . S
O446 Co443 1.966 . S
O446 C444 1.263 1_556 S
C447 O448 1.235 . S
C447 O474 1.289 . S
O448 C447 1.235 . S
C449 C451 1.400 . S
C449 N452 1.351 . S
C449 C454 1.501 . S
C450 C451 1.387 . S
C450 N453 1.341 . S
C451 C449 1.400 . S
C451 C450 1.387 . S
N452 Co443 2.022 . S
N452 C449 1.351 . S
N452 N453 1.365 . S
N453 C450 1.341 . S
N453 N452 1.365 . S
N453 H473 0.862 . S
C454 C449 1.501 . S
C454 H455 0.961 . S
C454 H456 0.961 . S
C454 H457 0.960 . S
H455 C454 0.961 . S
H456 C454 0.961 . S
H457 C454 0.960 . S
C458 N459 1.342 . S
C458 C462 1.401 . S
C458 C463 1.499 . S
N459 Co442 1.989 1_556 S
N459 C458 1.342 . S
N459 N460 1.388 . S
N460 Co443 1.993 . S
N460 N459 1.388 . S
N460 C461 1.346 . S
C461 N460 1.346 . S
C461 C462 1.396 . S
C461 C471 1.510 . S
C462 C458 1.401 . S
C462 C461 1.396 . S
C463 C458 1.499 . S
C463 H464 0.959 . S
C463 H465 0.960 . S
C463 H466 0.961 . S
H464 C463 0.959 . S
H465 C463 0.960 . S
H466 C463 0.961 . S
O467 Co442 1.967 . S
O467 C475 1.258 1_554 S
O468 Co443 1.941 . S
O468 C475 1.266 . S
H469 C471 0.959 . S
H470 C471 0.961 . S
C471 C461 1.510 . S
C471 H469 0.959 . S
C471 H470 0.961 . S
C471 H472 0.960 . S
H472 C471 0.960 . S
H473 N453 0.862 . S
O474 Co442 1.920 . S
O474 C447 1.289 . S
C475 O467 1.258 1_556 S
C475 O468 1.266 . S
Co476 O479 1.970 . S
Co476 N493 1.989 1_554 S
Co476 O501 1.967 . S
Co476 O508 1.920 . S
Co477 O480 1.966 . S
Co477 N486 2.022 . S
Co477 N494 1.993 . S
Co477 O502 1.941 . S
C478 O479 1.258 . S
C478 O480 1.263 1_554 S
O479 Co476 1.970 . S
O479 C478 1.258 . S
O480 Co477 1.966 . S
O480 C478 1.263 1_556 S
C481 O482 1.235 . S
C481 O508 1.289 . S
O482 C481 1.235 . S
C483 C485 1.400 . S
C483 N486 1.351 . S
C483 C488 1.501 . S
C484 C485 1.387 . S
C484 N487 1.341 . S
C485 C483 1.400 . S
C485 C484 1.387 . S
N486 Co477 2.022 . S
N486 C483 1.351 . S
N486 N487 1.365 . S
N487 C484 1.341 . S
N487 N486 1.365 . S
N487 H507 0.862 . S
C488 C483 1.501 . S
C488 H489 0.961 . S
C488 H490 0.961 . S
C488 H491 0.960 . S
H489 C488 0.961 . S
H490 C488 0.961 . S
H491 C488 0.960 . S
C492 N493 1.342 . S
C492 C496 1.401 . S
C492 C497 1.499 . S
N493 Co476 1.989 1_556 S
N493 C492 1.342 . S
N493 N494 1.388 . S
N494 Co477 1.993 . S
N494 N493 1.388 . S
N494 C495 1.346 . S
C495 N494 1.346 . S
C495 C496 1.396 . S
C495 C505 1.510 . S
C496 C492 1.401 . S
C496 C495 1.396 . S
C497 C492 1.499 . S
C497 H498 0.959 . S
C497 H499 0.960 . S
C497 H500 0.961 . S
H498 C497 0.959 . S
H499 C497 0.960 . S
H500 C497 0.961 . S
O501 Co476 1.967 . S
O501 C509 1.258 1_554 S
O502 Co477 1.941 . S
O502 C509 1.266 . S
H503 C505 0.959 . S
H504 C505 0.961 . S
C505 C495 1.510 . S
C505 H503 0.959 . S
C505 H504 0.961 . S
C505 H506 0.960 . S
H506 C505 0.960 . S
H507 N487 0.862 . S
O508 Co476 1.920 . S
O508 C481 1.289 . S
C509 O501 1.258 1_556 S
C509 O502 1.266 . S
Co510 O513 1.970 . S
Co510 N527 1.989 . S
Co510 O535 1.967 . S
Co510 O542 1.920 . S
Co511 O514 1.966 . S
Co511 N520 2.022 . S
Co511 N528 1.993 . S
Co511 O536 1.941 . S
C512 O513 1.258 . S
C512 O514 1.263 . S
O513 Co510 1.970 . S
O513 C512 1.258 . S
O514 Co511 1.966 . S
O514 C512 1.263 . S
C515 O516 1.235 . S
C515 O542 1.289 . S
O516 C515 1.235 . S
C517 C519 1.400 . S
C517 N520 1.351 . S
C517 C522 1.501 . S
C518 C519 1.387 . S
C518 N521 1.341 . S
C519 C517 1.400 . S
C519 C518 1.387 . S
N520 Co511 2.022 . S
N520 C517 1.351 . S
N520 N521 1.365 . S
N521 C518 1.341 . S
N521 N520 1.365 . S
N521 H541 0.862 . S
C522 C517 1.501 . S
C522 H523 0.961 . S
C522 H524 0.961 . S
C522 H525 0.960 . S
H523 C522 0.961 . S
H524 C522 0.961 . S
H525 C522 0.960 . S
C526 N527 1.342 . S
C526 C530 1.401 . S
C526 C531 1.499 . S
N527 Co510 1.989 . S
N527 C526 1.342 . S
N527 N528 1.388 . S
N528 Co511 1.993 . S
N528 N527 1.388 . S
N528 C529 1.346 . S
C529 N528 1.346 . S
C529 C530 1.396 . S
C529 C539 1.510 . S
C530 C526 1.401 . S
C530 C529 1.396 . S
C531 C526 1.499 . S
C531 H532 0.959 . S
C531 H533 0.960 . S
C531 H534 0.961 . S
H532 C531 0.959 . S
H533 C531 0.960 . S
H534 C531 0.961 . S
O535 Co510 1.967 . S
O535 C543 1.258 . S
O536 Co511 1.941 . S
O536 C543 1.266 . S
H537 C539 0.959 . S
H538 C539 0.961 . S
C539 C529 1.510 . S
C539 H537 0.959 . S
C539 H538 0.961 . S
C539 H540 0.960 . S
H540 C539 0.960 . S
H541 N521 0.862 . S
O542 Co510 1.920 . S
O542 C515 1.289 . S
C543 O535 1.258 . S
C543 O536 1.266 . S
Co544 O547 1.970 . S
Co544 N561 1.989 . S
Co544 O569 1.967 . S
Co544 O576 1.920 . S
Co545 O548 1.966 . S
Co545 N554 2.022 . S
Co545 N562 1.993 . S
Co545 O570 1.941 . S
C546 O547 1.258 . S
C546 O548 1.263 . S
O547 Co544 1.970 . S
O547 C546 1.258 . S
O548 Co545 1.966 . S
O548 C546 1.263 . S
C549 O550 1.235 . S
C549 O576 1.289 . S
O550 C549 1.235 . S
C551 C553 1.400 . S
C551 N554 1.351 . S
C551 C556 1.501 . S
C552 C553 1.387 . S
C552 N555 1.341 . S
C553 C551 1.400 . S
C553 C552 1.387 . S
N554 Co545 2.022 . S
N554 C551 1.351 . S
N554 N555 1.365 . S
N555 C552 1.341 . S
N555 N554 1.365 . S
N555 H575 0.862 . S
C556 C551 1.501 . S
C556 H557 0.961 . S
C556 H558 0.961 . S
C556 H559 0.960 . S
H557 C556 0.961 . S
H558 C556 0.961 . S
H559 C556 0.960 . S
C560 N561 1.342 . S
C560 C564 1.401 . S
C560 C565 1.499 . S
N561 Co544 1.989 . S
N561 C560 1.342 . S
N561 N562 1.388 . S
N562 Co545 1.993 . S
N562 N561 1.388 . S
N562 C563 1.346 . S
C563 N562 1.346 . S
C563 C564 1.396 . S
C563 C573 1.510 . S
C564 C560 1.401 . S
C564 C563 1.396 . S
C565 C560 1.499 . S
C565 H566 0.959 . S
C565 H567 0.960 . S
C565 H568 0.961 . S
H566 C565 0.959 . S
H567 C565 0.960 . S
H568 C565 0.961 . S
O569 Co544 1.967 . S
O569 C577 1.258 . S
O570 Co545 1.941 . S
O570 C577 1.266 . S
H571 C573 0.959 . S
H572 C573 0.961 . S
C573 C563 1.510 . S
C573 H571 0.959 . S
C573 H572 0.961 . S
C573 H574 0.960 . S
H574 C573 0.960 . S
H575 N555 0.862 . S
O576 Co544 1.920 . S
O576 C549 1.289 . S
C577 O569 1.258 . S
C577 O570 1.266 . S
Co578 O581 1.970 . S
Co578 N595 1.989 . S
Co578 O603 1.967 . S
Co578 O610 1.920 . S
Co579 O582 1.966 . S
Co579 N588 2.022 . S
Co579 N596 1.993 . S
Co579 O604 1.941 . S
C580 O581 1.258 . S
C580 O582 1.263 . S
O581 Co578 1.970 . S
O581 C580 1.258 . S
O582 Co579 1.966 . S
O582 C580 1.263 . S
C583 O584 1.235 . S
C583 O610 1.289 . S
O584 C583 1.235 . S
C585 C587 1.400 . S
C585 N588 1.351 . S
C585 C590 1.501 . S
C586 C587 1.387 . S
C586 N589 1.341 . S
C587 C585 1.400 . S
C587 C586 1.387 . S
N588 Co579 2.022 . S
N588 C585 1.351 . S
N588 N589 1.365 . S
N589 C586 1.341 . S
N589 N588 1.365 . S
N589 H609 0.862 . S
C590 C585 1.501 . S
C590 H591 0.961 . S
C590 H592 0.961 . S
C590 H593 0.960 . S
H591 C590 0.961 . S
H592 C590 0.961 . S
H593 C590 0.960 . S
C594 N595 1.342 . S
C594 C598 1.401 . S
C594 C599 1.499 . S
N595 Co578 1.989 . S
N595 C594 1.342 . S
N595 N596 1.388 . S
N596 Co579 1.993 . S
N596 N595 1.388 . S
N596 C597 1.346 . S
C597 N596 1.346 . S
C597 C598 1.396 . S
C597 C607 1.510 . S
C598 C594 1.401 . S
C598 C597 1.396 . S
C599 C594 1.499 . S
C599 H600 0.959 . S
C599 H601 0.960 . S
C599 H602 0.961 . S
H600 C599 0.959 . S
H601 C599 0.960 . S
H602 C599 0.961 . S
O603 Co578 1.967 . S
O603 C611 1.258 . S
O604 Co579 1.941 . S
O604 C611 1.266 . S
H605 C607 0.959 . S
H606 C607 0.961 . S
C607 C597 1.510 . S
C607 H605 0.959 . S
C607 H606 0.961 . S
C607 H608 0.960 . S
H608 C607 0.960 . S
H609 N589 0.862 . S
O610 Co578 1.920 . S
O610 C583 1.289 . S
C611 O603 1.258 . S
C611 O604 1.266 . S
C612 C613 1.363 . S
C612 C618 1.379 1_556 S
C612 N620 1.356 . S
C613 C612 1.363 . S
C613 C619 1.363 . S
C614 C615 1.363 . S
C614 C619 1.379 1_554 S
C614 N621 1.356 . S
C615 C614 1.363 . S
C615 C618 1.363 . S
N616 C618 1.356 . S
N616 H628 0.984 . S
N616 H629 0.985 . S
N617 C619 1.356 . S
N617 H622 0.984 . S
N617 H623 0.985 . S
C618 C612 1.379 1_554 S
C618 C615 1.363 . S
C618 N616 1.356 . S
C619 C613 1.363 . S
C619 C614 1.379 1_556 S
C619 N617 1.356 . S
N620 C612 1.356 . S
N620 H626 0.984 . S
N620 H627 0.984 . S
N621 C614 1.356 . S
N621 H624 0.984 . S
N621 H625 0.985 . S
H622 N617 0.984 . S
H623 N617 0.985 . S
H624 N621 0.984 . S
H625 N621 0.985 . S
H626 N620 0.984 . S
H627 N620 0.984 . S
H628 N616 0.984 . S
H629 N616 0.985 . S
C630 C631 1.363 . S
C630 C636 1.383 1_556 S
C630 N638 1.356 . S
C631 C630 1.363 . S
C631 C637 1.363 1_545 S
C632 C633 1.363 . S
C632 C637 1.379 1_554 S
C632 N639 1.356 . S
C633 C632 1.363 . S
C633 C636 1.361 1_565 S
N634 C636 1.353 1_565 S
N634 H646 0.984 1_565 S
N634 H647 0.985 . S
N635 C637 1.356 1_545 S
N635 H640 0.984 . S
N635 H641 0.985 1_545 S
C636 C630 1.383 1_554 S
C636 C633 1.361 1_545 S
C636 N634 1.353 1_545 S
C637 C631 1.363 1_565 S
C637 C632 1.379 1_556 S
C637 N635 1.356 1_565 S
N638 C630 1.356 . S
N638 H644 0.984 1_556 S
N638 H645 0.984 . S
N639 C632 1.356 . S
N639 H642 0.984 . S
N639 H643 0.985 1_554 S
H640 N635 0.984 . S
H641 N635 0.985 1_565 S
H642 N639 0.984 . S
H643 N639 0.985 1_556 S
H644 N638 0.984 1_554 S
H645 N638 0.984 . S
H646 N634 0.984 1_545 S
H647 N634 0.985 . S
C648 C649 1.363 . S
C648 C654 1.379 1_454 S
C648 N656 1.356 . S
C649 C648 1.363 . S
C649 C655 1.363 . S
C650 C651 1.363 . S
C650 C655 1.379 1_656 S
C650 N657 1.356 . S
C651 C650 1.363 . S
C651 C654 1.363 . S
N652 C654 1.356 . S
N652 H664 0.984 . S
N652 H665 0.985 . S
N653 C655 1.356 . S
N653 H658 0.984 . S
N653 H659 0.985 . S
C654 C648 1.379 1_656 S
C654 C651 1.363 . S
C654 N652 1.356 . S
C655 C649 1.363 . S
C655 C650 1.379 1_454 S
C655 N653 1.356 . S
N656 C648 1.356 . S
N656 H662 0.984 . S
N656 H663 0.984 . S
N657 C650 1.356 . S
N657 H660 0.984 . S
N657 H661 0.985 . S
H658 N653 0.984 . S
H659 N653 0.985 . S
H660 N657 0.984 . S
H661 N657 0.985 . S
H662 N656 0.984 . S
H663 N656 0.984 . S
H664 N652 0.984 . S
H665 N652 0.985 . S
C666 C667 1.363 1_556 S
C666 C672 1.379 . S
C666 N674 1.356 . S
C667 C666 1.363 1_554 S
C667 C673 1.363 . S
C668 C669 1.363 1_554 S
C668 C673 1.379 . S
C668 N675 1.356 . S
C669 C668 1.363 1_556 S
C669 C672 1.363 . S
N670 C672 1.356 . S
N670 H682 0.984 . S
N670 H683 0.985 . S
N671 C673 1.356 . S
N671 H676 0.984 . S
N671 H677 0.985 . S
C672 C666 1.379 . S
C672 C669 1.363 . S
C672 N670 1.356 . S
C673 C667 1.363 . S
C673 C668 1.379 . S
C673 N671 1.356 . S
N674 C666 1.356 . S
N674 H680 0.984 . S
N674 H681 0.984 1_556 S
N675 C668 1.356 . S
N675 H678 0.984 1_554 S
N675 H679 0.985 . S
H676 N671 0.984 . S
H677 N671 0.985 . S
H678 N675 0.984 1_556 S
H679 N675 0.985 . S
H680 N674 0.984 . S
H681 N674 0.984 1_554 S
H682 N670 0.984 . S
H683 N670 0.985 . S
C684 C685 1.363 1_554 S
C684 C690 1.379 1_545 S
C684 N692 1.356 . S
C685 C684 1.363 1_556 S
C685 C691 1.353 1_545 S
C686 C687 1.363 1_556 S
C686 C691 1.394 . S
C686 N693 1.356 . S
C687 C686 1.363 1_554 S
C687 C690 1.363 . S
N688 C690 1.356 . S
N688 H700 0.984 1_565 S
N688 H701 0.985 . S
N689 C691 1.347 1_545 S
N689 H694 0.984 . S
N689 H695 0.985 1_545 S
C690 C684 1.379 1_565 S
C690 C687 1.363 . S
C690 N688 1.356 . S
C691 C685 1.353 1_565 S
C691 C686 1.394 . S
C691 N689 1.347 1_565 S
N692 C684 1.356 . S
N692 H698 0.984 . S
N692 H699 0.984 1_554 S
N693 C686 1.356 . S
N693 H696 0.984 1_556 S
N693 H697 0.985 . S
H694 N689 0.984 . S
H695 N689 0.985 1_565 S
H696 N693 0.984 1_554 S
H697 N693 0.985 . S
H698 N692 0.984 . S
H699 N692 0.984 1_556 S
H700 N688 0.984 1_545 S
H701 N688 0.985 . S
C702 C703 1.363 . S
C702 C708 1.379 1_655 S
C702 N710 1.356 . S
C703 C702 1.363 . S
C703 C709 1.363 1_556 S
C704 C705 1.363 1_655 S
C704 C709 1.379 . S
C704 N711 1.356 1_655 S
C705 C704 1.363 1_455 S
C705 C708 1.363 1_554 S
N706 C708 1.356 . S
N706 H718 0.984 . S
N706 H719 0.985 1_556 S
N707 C709 1.356 . S
N707 H712 0.984 1_554 S
N707 H713 0.985 . S
C708 C702 1.379 1_455 S
C708 C705 1.363 1_556 S
C708 N706 1.356 . S
C709 C703 1.363 1_554 S
C709 C704 1.379 . S
C709 N707 1.356 . S
N710 C702 1.356 . S
N710 H716 0.984 1_655 S
N710 H717 0.984 . S
N711 C704 1.356 1_455 S
N711 H714 0.984 . S
N711 H715 0.985 1_455 S
H712 N707 0.984 1_556 S
H713 N707 0.985 . S
H714 N711 0.984 . S
H715 N711 0.985 1_655 S
H716 N710 0.984 1_455 S
H717 N710 0.984 . S
H718 N706 0.984 . S
H719 N706 0.985 1_554 S
C720 C721 1.363 . S
C720 C726 1.379 . S
C720 N728 1.356 . S
C721 C720 1.363 . S
C721 C727 1.363 . S
C722 C723 1.363 . S
C722 C727 1.379 . S
C722 N729 1.356 . S
C723 C722 1.363 . S
C723 C726 1.363 . S
N724 C726 1.356 . S
N724 H736 0.984 . S
N724 H737 0.985 . S
N725 C727 1.356 . S
N725 H730 0.984 . S
N725 H731 0.985 . S
C726 C720 1.379 . S
C726 C723 1.363 . S
C726 N724 1.356 . S
C727 C721 1.363 . S
C727 C722 1.379 . S
C727 N725 1.356 . S
N728 C720 1.356 . S
N728 H734 0.984 . S
N728 H735 0.984 . S
N729 C722 1.356 . S
N729 H732 0.984 . S
N729 H733 0.985 . S
H730 N725 0.984 . S
H731 N725 0.985 . S
H732 N729 0.984 . S
H733 N729 0.985 . S
H734 N728 0.984 . S
H735 N728 0.984 . S
H736 N724 0.984 . S
H737 N724 0.985 . S
C738 C739 1.363 . S
C738 C744 1.379 . S
C738 N746 1.356 . S
C739 C738 1.363 . S
C739 C745 1.363 . S
C740 C741 1.363 . S
C740 C745 1.379 . S
C740 N747 1.356 . S
C741 C740 1.363 . S
C741 C744 1.363 . S
N742 C744 1.356 . S
N742 H754 0.984 . S
N742 H755 0.985 . S
N743 C745 1.356 . S
N743 H748 0.984 . S
N743 H749 0.985 . S
C744 C738 1.379 . S
C744 C741 1.363 . S
C744 N742 1.356 . S
C745 C739 1.363 . S
C745 C740 1.379 . S
C745 N743 1.356 . S
N746 C738 1.356 . S
N746 H752 0.984 . S
N746 H753 0.984 . S
N747 C740 1.356 . S
N747 H750 0.984 . S
N747 H751 0.985 . S
H748 N743 0.984 . S
H749 N743 0.985 . S
H750 N747 0.984 . S
H751 N747 0.985 . S
H752 N746 0.984 . S
H753 N746 0.984 . S
H754 N742 0.984 . S
H755 N742 0.985 . S
C756 C757 1.363 . S
C756 C762 1.379 . S
C756 N764 1.356 . S
C757 C756 1.363 . S
C757 C763 1.363 . S
C758 C759 1.363 . S
C758 C763 1.379 . S
C758 N765 1.356 . S
C759 C758 1.363 . S
C759 C762 1.363 . S
N760 C762 1.356 . S
N760 H772 0.984 . S
N760 H773 0.985 . S
N761 C763 1.356 . S
N761 H766 0.984 . S
N761 H767 0.985 . S
C762 C756 1.379 . S
C762 C759 1.363 . S
C762 N760 1.356 . S
C763 C757 1.363 . S
C763 C758 1.379 . S
C763 N761 1.356 . S
N764 C756 1.356 . S
N764 H770 0.984 . S
N764 H771 0.984 . S
N765 C758 1.356 . S
N765 H768 0.984 . S
N765 H769 0.985 . S
H766 N761 0.984 . S
H767 N761 0.985 . S
H768 N765 0.984 . S
H769 N765 0.985 . S
H770 N764 0.984 . S
H771 N764 0.984 . S
H772 N760 0.984 . S
H773 N760 0.985 . S
C774 C775 1.363 . S
C774 C780 1.379 . S
C774 N782 1.356 . S
C775 C774 1.363 . S
C775 C781 1.363 . S
C776 C777 1.363 . S
C776 C781 1.379 . S
C776 N783 1.356 . S
C777 C776 1.363 . S
C777 C780 1.363 . S
N778 C780 1.356 . S
N778 H790 0.984 . S
N778 H791 0.985 . S
N779 C781 1.356 . S
N779 H784 0.984 . S
N779 H785 0.985 . S
C780 C774 1.379 . S
C780 C777 1.363 . S
C780 N778 1.356 . S
C781 C775 1.363 . S
C781 C776 1.379 . S
C781 N779 1.356 . S
N782 C774 1.356 . S
N782 H788 0.984 . S
N782 H789 0.984 . S
N783 C776 1.356 . S
N783 H786 0.984 . S
N783 H787 0.985 . S
H784 N779 0.984 . S
H785 N779 0.985 . S
H786 N783 0.984 . S
H787 N783 0.985 . S
H788 N782 0.984 . S
H789 N782 0.984 . S
H790 N778 0.984 . S
H791 N778 0.985 . S
C792 C793 1.363 . S
C792 C798 1.379 . S
C792 N800 1.356 . S
C793 C792 1.363 . S
C793 C799 1.363 . S
C794 C795 1.363 . S
C794 C799 1.379 . S
C794 N801 1.356 . S
C795 C794 1.363 . S
C795 C798 1.363 . S
N796 C798 1.356 . S
N796 H808 0.984 . S
N796 H809 0.985 . S
N797 C799 1.356 . S
N797 H802 0.984 . S
N797 H803 0.985 . S
C798 C792 1.379 . S
C798 C795 1.363 . S
C798 N796 1.356 . S
C799 C793 1.363 . S
C799 C794 1.379 . S
C799 N797 1.356 . S
N800 C792 1.356 . S
N800 H806 0.984 . S
N800 H807 0.984 . S
N801 C794 1.356 . S
N801 H804 0.984 . S
N801 H805 0.985 . S
H802 N797 0.984 . S
H803 N797 0.985 . S
H804 N801 0.984 . S
H805 N801 0.985 . S
H806 N800 0.984 . S
H807 N800 0.984 . S
H808 N796 0.984 . S
H809 N796 0.985 . S
C810 C811 1.363 . S
C810 C816 1.379 . S
C810 N818 1.356 . S
C811 C810 1.363 . S
C811 C817 1.363 . S
C812 C813 1.363 . S
C812 C817 1.379 . S
C812 N819 1.356 . S
C813 C812 1.363 . S
C813 C816 1.363 . S
N814 C816 1.356 . S
N814 H826 0.984 . S
N814 H827 0.985 . S
N815 C817 1.356 . S
N815 H820 0.984 . S
N815 H821 0.985 . S
C816 C810 1.379 . S
C816 C813 1.363 . S
C816 N814 1.356 . S
C817 C811 1.363 . S
C817 C812 1.379 . S
C817 N815 1.356 . S
N818 C810 1.356 . S
N818 H824 0.984 . S
N818 H825 0.984 . S
N819 C812 1.356 . S
N819 H822 0.984 . S
N819 H823 0.985 . S
H820 N815 0.984 . S
H821 N815 0.985 . S
H822 N819 0.984 . S
H823 N819 0.985 . S
H824 N818 0.984 . S
H825 N818 0.984 . S
H826 N814 0.984 . S
H827 N814 0.985 . S
C828 C829 1.363 . S
C828 C834 1.379 . S
C828 N836 1.356 . S
C829 C828 1.363 . S
C829 C835 1.363 . S
C830 C831 1.363 . S
C830 C835 1.379 . S
C830 N837 1.356 . S
C831 C830 1.363 . S
C831 C834 1.363 . S
N832 C834 1.356 . S
N832 H844 0.984 . S
N832 H845 0.985 . S
N833 C835 1.356 . S
N833 H838 0.984 . S
N833 H839 0.985 . S
C834 C828 1.379 . S
C834 C831 1.363 . S
C834 N832 1.356 . S
C835 C829 1.363 . S
C835 C830 1.379 . S
C835 N833 1.356 . S
N836 C828 1.356 . S
N836 H842 0.984 . S
N836 H843 0.984 . S
N837 C830 1.356 . S
N837 H840 0.984 . S
N837 H841 0.985 . S
H838 N833 0.984 . S
H839 N833 0.985 . S
H840 N837 0.984 . S
H841 N837 0.985 . S
H842 N836 0.984 . S
H843 N836 0.984 . S
H844 N832 0.984 . S
H845 N832 0.985 . S
C846 C847 1.363 . S
C846 C852 1.379 . S
C846 N854 1.356 . S
C847 C846 1.363 . S
C847 C853 1.363 . S
C848 C849 1.363 . S
C848 C853 1.379 . S
C848 N855 1.356 . S
C849 C848 1.363 . S
C849 C852 1.363 . S
N850 C852 1.356 . S
N850 H862 0.984 . S
N850 H863 0.985 . S
N851 C853 1.356 . S
N851 H856 0.984 . S
N851 H857 0.985 . S
C852 C846 1.379 . S
C852 C849 1.363 . S
C852 N850 1.356 . S
C853 C847 1.363 . S
C853 C848 1.379 . S
C853 N851 1.356 . S
N854 C846 1.356 . S
N854 H860 0.984 . S
N854 H861 0.984 . S
N855 C848 1.356 . S
N855 H858 0.984 . S
N855 H859 0.985 . S
H856 N851 0.984 . S
H857 N851 0.985 . S
H858 N855 0.984 . S
H859 N855 0.985 . S
H860 N854 0.984 . S
H861 N854 0.984 . S
H862 N850 0.984 . S
H863 N850 0.985 . S
C864 C865 1.363 . S
C864 C870 1.379 . S
C864 N872 1.356 . S
C865 C864 1.363 . S
C865 C871 1.363 . S
C866 C867 1.363 . S
C866 C871 1.379 . S
C866 N873 1.356 . S
C867 C866 1.363 . S
C867 C870 1.363 . S
N868 C870 1.356 . S
N868 H880 0.984 . S
N868 H881 0.985 . S
N869 C871 1.356 . S
N869 H874 0.984 . S
N869 H875 0.985 . S
C870 C864 1.379 . S
C870 C867 1.363 . S
C870 N868 1.356 . S
C871 C865 1.363 . S
C871 C866 1.379 . S
C871 N869 1.356 . S
N872 C864 1.356 . S
N872 H878 0.984 . S
N872 H879 0.984 . S
N873 C866 1.356 . S
N873 H876 0.984 . S
N873 H877 0.985 . S
H874 N869 0.984 . S
H875 N869 0.985 . S
H876 N873 0.984 . S
H877 N873 0.985 . S
H878 N872 0.984 . S
H879 N872 0.984 . S
H880 N868 0.984 . S
H881 N868 0.985 . S
C882 C883 1.363 . S
C882 C888 1.379 . S
C882 N890 1.356 . S
C883 C882 1.363 . S
C883 C889 1.363 . S
C884 C885 1.363 . S
C884 C889 1.379 . S
C884 N891 1.356 . S
C885 C884 1.363 . S
C885 C888 1.363 . S
N886 C888 1.356 . S
N886 H898 0.984 . S
N886 H899 0.985 . S
N887 C889 1.356 . S
N887 H892 0.984 . S
N887 H893 0.985 . S
C888 C882 1.379 . S
C888 C885 1.363 . S
C888 N886 1.356 . S
C889 C883 1.363 . S
C889 C884 1.379 . S
C889 N887 1.356 . S
N890 C882 1.356 . S
N890 H896 0.984 . S
N890 H897 0.984 . S
N891 C884 1.356 . S
N891 H894 0.984 . S
N891 H895 0.985 . S
H892 N887 0.984 . S
H893 N887 0.985 . S
H894 N891 0.984 . S
H895 N891 0.985 . S
H896 N890 0.984 . S
H897 N890 0.984 . S
H898 N886 0.984 . S
H899 N886 0.985 . S
C900 C901 1.363 . S
C900 C906 1.379 . S
C900 N908 1.356 . S
C901 C900 1.363 . S
C901 C907 1.363 . S
C902 C903 1.363 . S
C902 C907 1.379 . S
C902 N909 1.356 . S
C903 C902 1.363 . S
C903 C906 1.363 . S
N904 C906 1.356 . S
N904 H916 0.984 . S
N904 H917 0.985 . S
N905 C907 1.356 . S
N905 H910 0.984 . S
N905 H911 0.985 . S
C906 C900 1.379 . S
C906 C903 1.363 . S
C906 N904 1.356 . S
C907 C901 1.363 . S
C907 C902 1.379 . S
C907 N905 1.356 . S
N908 C900 1.356 . S
N908 H914 0.984 . S
N908 H915 0.984 . S
N909 C902 1.356 . S
N909 H912 0.984 . S
N909 H913 0.985 . S
H910 N905 0.984 . S
H911 N905 0.985 . S
H912 N909 0.984 . S
H913 N909 0.985 . S
H914 N908 0.984 . S
H915 N908 0.984 . S
H916 N904 0.984 . S
H917 N904 0.985 . S
C918 C919 1.363 . S
C918 C924 1.379 . S
C918 N926 1.356 . S
C919 C918 1.363 . S
C919 C925 1.363 . S
C920 C921 1.363 . S
C920 C925 1.379 . S
C920 N927 1.356 . S
C921 C920 1.363 . S
C921 C924 1.363 . S
N922 C924 1.356 . S
N922 H934 0.984 . S
N922 H935 0.985 . S
N923 C925 1.356 . S
N923 H928 0.984 . S
N923 H929 0.985 . S
C924 C918 1.379 . S
C924 C921 1.363 . S
C924 N922 1.356 . S
C925 C919 1.363 . S
C925 C920 1.379 . S
C925 N923 1.356 . S
N926 C918 1.356 . S
N926 H932 0.984 . S
N926 H933 0.984 . S
N927 C920 1.356 . S
N927 H930 0.984 . S
N927 H931 0.985 . S
H928 N923 0.984 . S
H929 N923 0.985 . S
H930 N927 0.984 . S
H931 N927 0.985 . S
H932 N926 0.984 . S
H933 N926 0.984 . S
H934 N922 0.984 . S
H935 N922 0.985 . S
C936 C937 1.363 . S
C936 C942 1.379 . S
C936 N944 1.356 . S
C937 C936 1.363 . S
C937 C943 1.363 . S
C938 C939 1.363 . S
C938 C943 1.379 . S
C938 N945 1.356 . S
C939 C938 1.363 . S
C939 C942 1.363 . S
N940 C942 1.356 . S
N940 H952 0.984 . S
N940 H953 0.985 . S
N941 C943 1.356 . S
N941 H946 0.984 . S
N941 H947 0.985 . S
C942 C936 1.379 . S
C942 C939 1.363 . S
C942 N940 1.356 . S
C943 C937 1.363 . S
C943 C938 1.379 . S
C943 N941 1.356 . S
N944 C936 1.356 . S
N944 H950 0.984 . S
N944 H951 0.984 . S
N945 C938 1.356 . S
N945 H948 0.984 . S
N945 H949 0.985 . S
H946 N941 0.984 . S
H947 N941 0.985 . S
H948 N945 0.984 . S
H949 N945 0.985 . S
H950 N944 0.984 . S
H951 N944 0.984 . S
H952 N940 0.984 . S
H953 N940 0.985 . S
C954 C955 1.363 . S
C954 C960 1.379 . S
C954 N962 1.356 . S
C955 C954 1.363 . S
C955 C961 1.363 . S
C956 C957 1.363 . S
C956 C961 1.379 . S
C956 N963 1.356 . S
C957 C956 1.363 . S
C957 C960 1.363 . S
N958 C960 1.356 . S
N958 H970 0.984 . S
N958 H971 0.985 . S
N959 C961 1.356 . S
N959 H964 0.984 . S
N959 H965 0.985 . S
C960 C954 1.379 . S
C960 C957 1.363 . S
C960 N958 1.356 . S
C961 C955 1.363 . S
C961 C956 1.379 . S
C961 N959 1.356 . S
N962 C954 1.356 . S
N962 H968 0.984 . S
N962 H969 0.984 . S
N963 C956 1.356 . S
N963 H966 0.984 . S
N963 H967 0.985 . S
H964 N959 0.984 . S
H965 N959 0.985 . S
H966 N963 0.984 . S
H967 N963 0.985 . S
H968 N962 0.984 . S
H969 N962 0.984 . S
H970 N958 0.984 . S
H971 N958 0.985 . S
C972 C973 1.363 . S
C972 C978 1.379 . S
C972 N980 1.356 . S
C973 C972 1.363 . S
C973 C979 1.363 . S
C974 C975 1.363 . S
C974 C979 1.379 . S
C974 N981 1.356 . S
C975 C974 1.363 . S
C975 C978 1.363 . S
N976 C978 1.356 . S
N976 H988 0.984 . S
N976 H989 0.985 . S
N977 C979 1.356 . S
N977 H982 0.984 . S
N977 H983 0.985 . S
C978 C972 1.379 . S
C978 C975 1.363 . S
C978 N976 1.356 . S
C979 C973 1.363 . S
C979 C974 1.379 . S
C979 N977 1.356 . S
N980 C972 1.356 . S
N980 H986 0.984 . S
N980 H987 0.984 . S
N981 C974 1.356 . S
N981 H984 0.984 . S
N981 H985 0.985 . S
H982 N977 0.984 . S
H983 N977 0.985 . S
H984 N981 0.984 . S
H985 N981 0.985 . S
H986 N980 0.984 . S
H987 N980 0.984 . S
H988 N976 0.984 . S
H989 N976 0.985 . S
C990 C991 1.363 . S
C990 C996 1.379 . S
C990 N998 1.356 . S
C991 C990 1.363 . S
C991 C997 1.363 . S
C992 C993 1.363 . S
C992 C997 1.379 . S
C992 N999 1.356 . S
C993 C992 1.363 . S
C993 C996 1.363 . S
N994 C996 1.356 . S
N994 H1006 0.984 . S
N994 H1007 0.985 . S
N995 C997 1.356 . S
N995 H1000 0.984 . S
N995 H1001 0.985 . S
C996 C990 1.379 . S
C996 C993 1.363 . S
C996 N994 1.356 . S
C997 C991 1.363 . S
C997 C992 1.379 . S
C997 N995 1.356 . S
N998 C990 1.356 . S
N998 H1004 0.984 . S
N998 H1005 0.984 . S
N999 C992 1.356 . S
N999 H1002 0.984 . S
N999 H1003 0.985 . S
H1000 N995 0.984 . S
H1001 N995 0.985 . S
H1002 N999 0.984 . S
H1003 N999 0.985 . S
H1004 N998 0.984 . S
H1005 N998 0.984 . S
H1006 N994 0.984 . S
H1007 N994 0.985 . S
C1008 C1009 1.363 . S
C1008 C1014 1.379 . S
C1008 N1016 1.356 . S
C1009 C1008 1.363 . S
C1009 C1015 1.363 . S
C1010 C1011 1.363 . S
C1010 C1015 1.379 . S
C1010 N1017 1.356 . S
C1011 C1010 1.363 . S
C1011 C1014 1.363 . S
N1012 C1014 1.356 . S
N1012 H1024 0.984 . S
N1012 H1025 0.985 . S
N1013 C1015 1.356 . S
N1013 H1018 0.984 . S
N1013 H1019 0.985 . S
C1014 C1008 1.379 . S
C1014 C1011 1.363 . S
C1014 N1012 1.356 . S
C1015 C1009 1.363 . S
C1015 C1010 1.379 . S
C1015 N1013 1.356 . S
N1016 C1008 1.356 . S
N1016 H1022 0.984 . S
N1016 H1023 0.984 . S
N1017 C1010 1.356 . S
N1017 H1020 0.984 . S
N1017 H1021 0.985 . S
H1018 N1013 0.984 . S
H1019 N1013 0.985 . S
H1020 N1017 0.984 . S
H1021 N1017 0.985 . S
H1022 N1016 0.984 . S
H1023 N1016 0.984 . S
H1024 N1012 0.984 . S
H1025 N1012 0.985 . S
C1026 C1027 1.363 . S
C1026 C1032 1.379 . S
C1026 N1034 1.356 . S
C1027 C1026 1.363 . S
C1027 C1033 1.363 . S
C1028 C1029 1.363 . S
C1028 C1033 1.379 . S
C1028 N1035 1.356 . S
C1029 C1028 1.363 . S
C1029 C1032 1.363 . S
N1030 C1032 1.356 . S
N1030 H1042 0.984 . S
N1030 H1043 0.985 . S
N1031 C1033 1.356 . S
N1031 H1036 0.984 . S
N1031 H1037 0.985 . S
C1032 C1026 1.379 . S
C1032 C1029 1.363 . S
C1032 N1030 1.356 . S
C1033 C1027 1.363 . S
C1033 C1028 1.379 . S
C1033 N1031 1.356 . S
N1034 C1026 1.356 . S
N1034 H1040 0.984 . S
N1034 H1041 0.984 . S
N1035 C1028 1.356 . S
N1035 H1038 0.984 . S
N1035 H1039 0.985 . S
H1036 N1031 0.984 . S
H1037 N1031 0.985 . S
H1038 N1035 0.984 . S
H1039 N1035 0.985 . S
H1040 N1034 0.984 . S
H1041 N1034 0.984 . S
H1042 N1030 0.984 . S
H1043 N1030 0.985 . S
C1044 C1045 1.363 1_554 S
C1044 C1050 1.379 1_455 S
C1044 N1052 1.356 . S
C1045 C1044 1.363 1_556 S
C1045 C1051 1.363 . S
C1046 C1047 1.363 1_556 S
C1046 C1051 1.379 1_655 S
C1046 N1053 1.356 . S
C1047 C1046 1.363 1_554 S
C1047 C1050 1.363 . S
N1048 C1050 1.356 . S
N1048 H1060 0.984 . S
N1048 H1061 0.985 . S
N1049 C1051 1.356 . S
N1049 H1054 0.984 . S
N1049 H1055 0.985 . S
C1050 C1044 1.379 1_655 S
C1050 C1047 1.363 . S
C1050 N1048 1.356 . S
C1051 C1045 1.363 . S
C1051 C1046 1.379 1_455 S
C1051 N1049 1.356 . S
N1052 C1044 1.356 . S
N1052 H1058 0.984 . S
N1052 H1059 0.984 . S
N1053 C1046 1.356 . S
N1053 H1056 0.984 . S
N1053 H1057 0.985 . S
H1054 N1049 0.984 . S
H1055 N1049 0.985 . S
H1056 N1053 0.984 . S
H1057 N1053 0.985 . S
H1058 N1052 0.984 . S
H1059 N1052 0.984 . S
H1060 N1048 0.984 . S
H1061 N1048 0.985 . S
C1062 C1063 1.363 . S
C1062 C1068 1.379 . S
C1062 N1070 1.356 . S
C1063 C1062 1.363 . S
C1063 C1069 1.363 1_556 S
C1064 C1065 1.363 . S
C1064 C1069 1.379 . S
C1064 N1071 1.356 . S
C1065 C1064 1.363 . S
C1065 C1068 1.363 1_554 S
N1066 C1068 1.356 . S
N1066 H1078 0.984 . S
N1066 H1079 0.985 1_556 S
N1067 C1069 1.356 . S
N1067 H1072 0.984 1_554 S
N1067 H1073 0.985 . S
C1068 C1062 1.379 . S
C1068 C1065 1.363 1_556 S
C1068 N1066 1.356 . S
C1069 C1063 1.363 1_554 S
C1069 C1064 1.379 . S
C1069 N1067 1.356 . S
N1070 C1062 1.356 . S
N1070 H1076 0.984 . S
N1070 H1077 0.984 . S
N1071 C1064 1.356 . S
N1071 H1074 0.984 . S
N1071 H1075 0.985 . S
H1072 N1067 0.984 1_556 S
H1073 N1067 0.985 . S
H1074 N1071 0.984 . S
H1075 N1071 0.985 . S
H1076 N1070 0.984 . S
H1077 N1070 0.984 . S
H1078 N1066 0.984 . S
H1079 N1066 0.985 1_554 S
C1080 C1081 1.363 . S
C1080 C1086 1.379 1_545 S
C1080 N1088 1.356 . S
C1081 C1080 1.363 . S
C1081 C1087 1.363 1_554 S
C1082 C1083 1.363 . S
C1082 C1087 1.379 1_565 S
C1082 N1089 1.356 . S
C1083 C1082 1.363 . S
C1083 C1086 1.363 1_556 S
N1084 C1086 1.356 . S
N1084 H1096 0.984 . S
N1084 H1097 0.985 . S
N1085 C1087 1.356 . S
N1085 H1090 0.984 . S
N1085 H1091 0.985 . S
C1086 C1080 1.379 1_565 S
C1086 C1083 1.363 1_554 S
C1086 N1084 1.356 . S
C1087 C1081 1.363 1_556 S
C1087 C1082 1.379 1_545 S
C1087 N1085 1.356 . S
N1088 C1080 1.356 . S
N1088 H1094 0.984 . S
N1088 H1095 0.984 . S
N1089 C1082 1.356 . S
N1089 H1092 0.984 . S
N1089 H1093 0.985 . S
H1090 N1085 0.984 . S
H1091 N1085 0.985 . S
H1092 N1089 0.984 . S
H1093 N1089 0.985 . S
H1094 N1088 0.984 . S
H1095 N1088 0.984 . S
H1096 N1084 0.984 . S
H1097 N1084 0.985 . S
C1098 C1099 1.363 . S
C1098 C1104 1.379 . S
C1098 N1106 1.356 . S
C1099 C1098 1.363 . S
C1099 C1105 1.363 . S
C1100 C1101 1.363 . S
C1100 C1105 1.379 . S
C1100 N1107 1.356 . S
C1101 C1100 1.363 . S
C1101 C1104 1.363 . S
N1102 C1104 1.356 . S
N1102 H1114 0.984 . S
N1102 H1115 0.985 . S
N1103 C1105 1.356 . S
N1103 H1108 0.984 . S
N1103 H1109 0.985 . S
C1104 C1098 1.379 . S
C1104 C1101 1.363 . S
C1104 N1102 1.356 . S
C1105 C1099 1.363 . S
C1105 C1100 1.379 . S
C1105 N1103 1.356 . S
N1106 C1098 1.356 . S
N1106 H1112 0.984 . S
N1106 H1113 0.984 . S
N1107 C1100 1.356 . S
N1107 H1110 0.984 . S
N1107 H1111 0.985 . S
H1108 N1103 0.984 . S
H1109 N1103 0.985 . S
H1110 N1107 0.984 . S
H1111 N1107 0.985 . S
H1112 N1106 0.984 . S
H1113 N1106 0.984 . S
H1114 N1102 0.984 . S
H1115 N1102 0.985 . S
C1116 C1117 1.363 . S
C1116 C1122 1.379 1_545 S
C1116 N1124 1.356 . S
C1117 C1116 1.363 . S
C1117 C1123 1.370 . S
C1118 C1119 1.363 . S
C1118 C1123 1.372 1_565 S
C1118 N1125 1.356 . S
C1119 C1118 1.363 . S
C1119 C1122 1.363 . S
N1120 C1122 1.356 . S
N1120 H1132 0.984 1_565 S
N1120 H1133 0.985 . S
N1121 C1123 1.358 . S
N1121 H1126 0.984 . S
N1121 H1127 0.985 1_545 S
C1122 C1116 1.379 1_565 S
C1122 C1119 1.363 . S
C1122 N1120 1.356 . S
C1123 C1117 1.370 . S
C1123 C1118 1.372 1_545 S
C1123 N1121 1.358 . S
N1124 C1116 1.356 . S
N1124 H1130 0.984 . S
N1124 H1131 0.984 . S
N1125 C1118 1.356 . S
N1125 H1128 0.984 . S
N1125 H1129 0.985 . S
H1126 N1121 0.984 . S
H1127 N1121 0.985 1_565 S
H1128 N1125 0.984 . S
H1129 N1125 0.985 . S
H1130 N1124 0.984 . S
H1131 N1124 0.984 . S
H1132 N1120 0.984 1_545 S
H1133 N1120 0.985 . S
C1134 C1135 1.363 . S
C1134 C1140 1.379 1_455 S
C1134 N1142 1.356 . S
C1135 C1134 1.363 . S
C1135 C1141 1.363 . S
C1136 C1137 1.363 . S
C1136 C1141 1.379 1_655 S
C1136 N1143 1.356 . S
C1137 C1136 1.363 . S
C1137 C1140 1.363 . S
N1138 C1140 1.356 . S
N1138 H1150 0.984 . S
N1138 H1151 0.985 . S
N1139 C1141 1.356 . S
N1139 H1144 0.984 . S
N1139 H1145 0.985 . S
C1140 C1134 1.379 1_655 S
C1140 C1137 1.363 . S
C1140 N1138 1.356 . S
C1141 C1135 1.363 . S
C1141 C1136 1.379 1_455 S
C1141 N1139 1.356 . S
N1142 C1134 1.356 . S
N1142 H1148 0.984 . S
N1142 H1149 0.984 . S
N1143 C1136 1.356 . S
N1143 H1146 0.984 . S
N1143 H1147 0.985 . S
H1144 N1139 0.984 . S
H1145 N1139 0.985 . S
H1146 N1143 0.984 . S
H1147 N1143 0.985 . S
H1148 N1142 0.984 . S
H1149 N1142 0.984 . S
H1150 N1138 0.984 . S
H1151 N1138 0.985 . S
C1152 C1153 1.363 . S
C1152 C1158 1.379 . S
C1152 N1160 1.356 . S
C1153 C1152 1.363 . S
C1153 C1159 1.363 . S
C1154 C1155 1.363 . S
C1154 C1159 1.379 . S
C1154 N1161 1.356 . S
C1155 C1154 1.363 . S
C1155 C1158 1.363 . S
N1156 C1158 1.356 . S
N1156 H1168 0.984 . S
N1156 H1169 0.985 . S
N1157 C1159 1.356 . S
N1157 H1162 0.984 . S
N1157 H1163 0.985 . S
C1158 C1152 1.379 . S
C1158 C1155 1.363 . S
C1158 N1156 1.356 . S
C1159 C1153 1.363 . S
C1159 C1154 1.379 . S
C1159 N1157 1.356 . S
N1160 C1152 1.356 . S
N1160 H1166 0.984 . S
N1160 H1167 0.984 . S
N1161 C1154 1.356 . S
N1161 H1164 0.984 . S
N1161 H1165 0.985 . S
H1162 N1157 0.984 . S
H1163 N1157 0.985 . S
H1164 N1161 0.984 . S
H1165 N1161 0.985 . S
H1166 N1160 0.984 . S
H1167 N1160 0.984 . S
H1168 N1156 0.984 . S
H1169 N1156 0.985 . S
C1170 C1171 1.363 . S
C1170 C1176 1.379 . S
C1170 N1178 1.356 . S
C1171 C1170 1.363 . S
C1171 C1177 1.363 1_565 S
C1172 C1173 1.363 . S
C1172 C1177 1.379 . S
C1172 N1179 1.356 . S
C1173 C1172 1.363 . S
C1173 C1176 1.363 1_545 S
N1174 C1176 1.356 1_545 S
N1174 H1186 0.984 1_545 S
N1174 H1187 0.985 . S
N1175 C1177 1.356 1_565 S
N1175 H1180 0.984 . S
N1175 H1181 0.985 1_565 S
C1176 C1170 1.379 . S
C1176 C1173 1.363 1_565 S
C1176 N1174 1.356 1_565 S
C1177 C1171 1.363 1_545 S
C1177 C1172 1.379 . S
C1177 N1175 1.356 1_545 S
N1178 C1170 1.356 . S
N1178 H1184 0.984 . S
N1178 H1185 0.984 . S
N1179 C1172 1.356 . S
N1179 H1182 0.984 . S
N1179 H1183 0.985 . S
H1180 N1175 0.984 . S
H1181 N1175 0.985 1_545 S
H1182 N1179 0.984 . S
H1183 N1179 0.985 . S
H1184 N1178 0.984 . S
H1185 N1178 0.984 . S
H1186 N1174 0.984 1_565 S
H1187 N1174 0.985 . S
C1188 C1189 1.363 . S
C1188 C1194 1.379 1_655 S
C1188 N1196 1.356 . S
C1189 C1188 1.363 . S
C1189 C1195 1.363 . S
C1190 C1191 1.363 . S
C1190 C1195 1.379 1_455 S
C1190 N1197 1.356 . S
C1191 C1190 1.363 . S
C1191 C1194 1.363 . S
N1192 C1194 1.356 . S
N1192 H1204 0.984 . S
N1192 H1205 0.985 . S
N1193 C1195 1.356 . S
N1193 H1198 0.984 . S
N1193 H1199 0.985 . S
C1194 C1188 1.379 1_455 S
C1194 C1191 1.363 . S
C1194 N1192 1.356 . S
C1195 C1189 1.363 . S
C1195 C1190 1.379 1_655 S
C1195 N1193 1.356 . S
N1196 C1188 1.356 . S
N1196 H1202 0.984 . S
N1196 H1203 0.984 . S
N1197 C1190 1.356 . S
N1197 H1200 0.984 . S
N1197 H1201 0.985 . S
H1198 N1193 0.984 . S
H1199 N1193 0.985 . S
H1200 N1197 0.984 . S
H1201 N1197 0.985 . S
H1202 N1196 0.984 . S
H1203 N1196 0.984 . S
H1204 N1192 0.984 . S
H1205 N1192 0.985 . S
C1206 C1207 1.363 . S
C1206 C1212 1.379 . S
C1206 N1214 1.356 . S
C1207 C1206 1.363 . S
C1207 C1213 1.363 . S
C1208 C1209 1.363 . S
C1208 C1213 1.379 . S
C1208 N1215 1.356 . S
C1209 C1208 1.363 . S
C1209 C1212 1.363 . S
N1210 C1212 1.356 . S
N1210 H1222 0.984 . S
N1210 H1223 0.985 . S
N1211 C1213 1.356 . S
N1211 H1216 0.984 . S
N1211 H1217 0.985 . S
C1212 C1206 1.379 . S
C1212 C1209 1.363 . S
C1212 N1210 1.356 . S
C1213 C1207 1.363 . S
C1213 C1208 1.379 . S
C1213 N1211 1.356 . S
N1214 C1206 1.356 . S
N1214 H1220 0.984 . S
N1214 H1221 0.984 . S
N1215 C1208 1.356 . S
N1215 H1218 0.984 . S
N1215 H1219 0.985 . S
H1216 N1211 0.984 . S
H1217 N1211 0.985 . S
H1218 N1215 0.984 . S
H1219 N1215 0.985 . S
H1220 N1214 0.984 . S
H1221 N1214 0.984 . S
H1222 N1210 0.984 . S
H1223 N1210 0.985 . S
C1224 C1225 1.363 . S
C1224 C1230 1.379 . S
C1224 N1232 1.356 . S
C1225 C1224 1.363 . S
C1225 C1231 1.363 . S
C1226 C1227 1.363 . S
C1226 C1231 1.379 . S
C1226 N1233 1.356 . S
C1227 C1226 1.363 . S
C1227 C1230 1.363 . S
N1228 C1230 1.356 . S
N1228 H1240 0.984 . S
N1228 H1241 0.985 . S
N1229 C1231 1.356 . S
N1229 H1234 0.984 . S
N1229 H1235 0.985 . S
C1230 C1224 1.379 . S
C1230 C1227 1.363 . S
C1230 N1228 1.356 . S
C1231 C1225 1.363 . S
C1231 C1226 1.379 . S
C1231 N1229 1.356 . S
N1232 C1224 1.356 . S
N1232 H1238 0.984 . S
N1232 H1239 0.984 . S
N1233 C1226 1.356 . S
N1233 H1236 0.984 . S
N1233 H1237 0.985 . S
H1234 N1229 0.984 . S
H1235 N1229 0.985 . S
H1236 N1233 0.984 . S
H1237 N1233 0.985 . S
H1238 N1232 0.984 . S
H1239 N1232 0.984 . S
H1240 N1228 0.984 . S
H1241 N1228 0.985 . S
C1242 C1243 1.363 . S
C1242 C1248 1.379 . S
C1242 N1250 1.356 . S
C1243 C1242 1.363 . S
C1243 C1249 1.363 . S
C1244 C1245 1.363 . S
C1244 C1249 1.379 . S
C1244 N1251 1.356 . S
C1245 C1244 1.363 . S
C1245 C1248 1.363 . S
N1246 C1248 1.356 . S
N1246 H1258 0.984 . S
N1246 H1259 0.985 . S
N1247 C1249 1.356 . S
N1247 H1252 0.984 . S
N1247 H1253 0.985 . S
C1248 C1242 1.379 . S
C1248 C1245 1.363 . S
C1248 N1246 1.356 . S
C1249 C1243 1.363 . S
C1249 C1244 1.379 . S
C1249 N1247 1.356 . S
N1250 C1242 1.356 . S
N1250 H1256 0.984 . S
N1250 H1257 0.984 . S
N1251 C1244 1.356 . S
N1251 H1254 0.984 . S
N1251 H1255 0.985 . S
H1252 N1247 0.984 . S
H1253 N1247 0.985 . S
H1254 N1251 0.984 . S
H1255 N1251 0.985 . S
H1256 N1250 0.984 . S
H1257 N1250 0.984 . S
H1258 N1246 0.984 . S
H1259 N1246 0.985 . S
C1260 C1261 1.363 . S
C1260 C1266 1.379 . S
C1260 N1268 1.356 . S
C1261 C1260 1.363 . S
C1261 C1267 1.363 . S
C1262 C1263 1.363 . S
C1262 C1267 1.379 . S
C1262 N1269 1.356 . S
C1263 C1262 1.363 . S
C1263 C1266 1.363 . S
N1264 C1266 1.356 . S
N1264 H1276 0.984 . S
N1264 H1277 0.985 . S
N1265 C1267 1.356 . S
N1265 H1270 0.984 . S
N1265 H1271 0.985 . S
C1266 C1260 1.379 . S
C1266 C1263 1.363 . S
C1266 N1264 1.356 . S
C1267 C1261 1.363 . S
C1267 C1262 1.379 . S
C1267 N1265 1.356 . S
N1268 C1260 1.356 . S
N1268 H1274 0.984 . S
N1268 H1275 0.984 . S
N1269 C1262 1.356 . S
N1269 H1272 0.984 . S
N1269 H1273 0.985 . S
H1270 N1265 0.984 . S
H1271 N1265 0.985 . S
H1272 N1269 0.984 . S
H1273 N1269 0.985 . S
H1274 N1268 0.984 . S
H1275 N1268 0.984 . S
H1276 N1264 0.984 . S
H1277 N1264 0.985 . S
C1278 C1279 1.363 . S
C1278 C1284 1.379 . S
C1278 N1286 1.356 . S
C1279 C1278 1.363 . S
C1279 C1285 1.363 . S
C1280 C1281 1.363 . S
C1280 C1285 1.379 . S
C1280 N1287 1.356 . S
C1281 C1280 1.363 . S
C1281 C1284 1.363 . S
N1282 C1284 1.356 . S
N1282 H1294 0.984 . S
N1282 H1295 0.985 . S
N1283 C1285 1.356 . S
N1283 H1288 0.984 . S
N1283 H1289 0.985 . S
C1284 C1278 1.379 . S
C1284 C1281 1.363 . S
C1284 N1282 1.356 . S
C1285 C1279 1.363 . S
C1285 C1280 1.379 . S
C1285 N1283 1.356 . S
N1286 C1278 1.356 . S
N1286 H1292 0.984 . S
N1286 H1293 0.984 . S
N1287 C1280 1.356 . S
N1287 H1290 0.984 . S
N1287 H1291 0.985 . S
H1288 N1283 0.984 . S
H1289 N1283 0.985 . S
H1290 N1287 0.984 . S
H1291 N1287 0.985 . S
H1292 N1286 0.984 . S
H1293 N1286 0.984 . S
H1294 N1282 0.984 . S
H1295 N1282 0.985 . S
C1296 C1297 1.363 . S
C1296 C1302 1.379 . S
C1296 N1304 1.356 . S
C1297 C1296 1.363 . S
C1297 C1303 1.363 . S
C1298 C1299 1.363 . S
C1298 C1303 1.379 . S
C1298 N1305 1.356 . S
C1299 C1298 1.363 . S
C1299 C1302 1.363 . S
N1300 C1302 1.356 . S
N1300 H1312 0.984 . S
N1300 H1313 0.985 . S
N1301 C1303 1.356 . S
N1301 H1306 0.984 . S
N1301 H1307 0.985 . S
C1302 C1296 1.379 . S
C1302 C1299 1.363 . S
C1302 N1300 1.356 . S
C1303 C1297 1.363 . S
C1303 C1298 1.379 . S
C1303 N1301 1.356 . S
N1304 C1296 1.356 . S
N1304 H1310 0.984 . S
N1304 H1311 0.984 . S
N1305 C1298 1.356 . S
N1305 H1308 0.984 . S
N1305 H1309 0.985 . S
H1306 N1301 0.984 . S
H1307 N1301 0.985 . S
H1308 N1305 0.984 . S
H1309 N1305 0.985 . S
H1310 N1304 0.984 . S
H1311 N1304 0.984 . S
H1312 N1300 0.984 . S
H1313 N1300 0.985 . S
C1314 C1315 1.363 . S
C1314 C1320 1.379 . S
C1314 N1322 1.356 . S
C1315 C1314 1.363 . S
C1315 C1321 1.363 . S
C1316 C1317 1.363 . S
C1316 C1321 1.379 . S
C1316 N1323 1.356 . S
C1317 C1316 1.363 . S
C1317 C1320 1.363 . S
N1318 C1320 1.356 . S
N1318 H1330 0.984 . S
N1318 H1331 0.985 . S
N1319 C1321 1.356 . S
N1319 H1324 0.984 . S
N1319 H1325 0.985 . S
C1320 C1314 1.379 . S
C1320 C1317 1.363 . S
C1320 N1318 1.356 . S
C1321 C1315 1.363 . S
C1321 C1316 1.379 . S
C1321 N1319 1.356 . S
N1322 C1314 1.356 . S
N1322 H1328 0.984 . S
N1322 H1329 0.984 . S
N1323 C1316 1.356 . S
N1323 H1326 0.984 . S
N1323 H1327 0.985 . S
H1324 N1319 0.984 . S
H1325 N1319 0.985 . S
H1326 N1323 0.984 . S
H1327 N1323 0.985 . S
H1328 N1322 0.984 . S
H1329 N1322 0.984 . S
H1330 N1318 0.984 . S
H1331 N1318 0.985 . S
C1332 C1333 1.363 . S
C1332 C1338 1.379 . S
C1332 N1340 1.356 . S
C1333 C1332 1.363 . S
C1333 C1339 1.363 . S
C1334 C1335 1.363 . S
C1334 C1339 1.379 . S
C1334 N1341 1.356 . S
C1335 C1334 1.363 . S
C1335 C1338 1.363 . S
N1336 C1338 1.356 . S
N1336 H1348 0.984 . S
N1336 H1349 0.985 . S
N1337 C1339 1.356 . S
N1337 H1342 0.984 . S
N1337 H1343 0.985 . S
C1338 C1332 1.379 . S
C1338 C1335 1.363 . S
C1338 N1336 1.356 . S
C1339 C1333 1.363 . S
C1339 C1334 1.379 . S
C1339 N1337 1.356 . S
N1340 C1332 1.356 . S
N1340 H1346 0.984 . S
N1340 H1347 0.984 . S
N1341 C1334 1.356 . S
N1341 H1344 0.984 . S
N1341 H1345 0.985 . S
H1342 N1337 0.984 . S
H1343 N1337 0.985 . S
H1344 N1341 0.984 . S
H1345 N1341 0.985 . S
H1346 N1340 0.984 . S
H1347 N1340 0.984 . S
H1348 N1336 0.984 . S
H1349 N1336 0.985 . S
C1350 C1351 1.363 . S
C1350 C1356 1.379 . S
C1350 N1358 1.356 . S
C1351 C1350 1.363 . S
C1351 C1357 1.363 . S
C1352 C1353 1.363 . S
C1352 C1357 1.379 . S
C1352 N1359 1.356 . S
C1353 C1352 1.363 . S
C1353 C1356 1.363 . S
N1354 C1356 1.356 . S
N1354 H1366 0.984 . S
N1354 H1367 0.985 . S
N1355 C1357 1.356 . S
N1355 H1360 0.984 . S
N1355 H1361 0.985 . S
C1356 C1350 1.379 . S
C1356 C1353 1.363 . S
C1356 N1354 1.356 . S
C1357 C1351 1.363 . S
C1357 C1352 1.379 . S
C1357 N1355 1.356 . S
N1358 C1350 1.356 . S
N1358 H1364 0.984 . S
N1358 H1365 0.984 . S
N1359 C1352 1.356 . S
N1359 H1362 0.984 . S
N1359 H1363 0.985 . S
H1360 N1355 0.984 . S
H1361 N1355 0.985 . S
H1362 N1359 0.984 . S
H1363 N1359 0.985 . S
H1364 N1358 0.984 . S
H1365 N1358 0.984 . S
H1366 N1354 0.984 . S
H1367 N1354 0.985 . S
C1368 C1369 1.363 . S
C1368 C1374 1.379 . S
C1368 N1376 1.356 . S
C1369 C1368 1.363 . S
C1369 C1375 1.363 . S
C1370 C1371 1.363 . S
C1370 C1375 1.379 . S
C1370 N1377 1.356 . S
C1371 C1370 1.363 . S
C1371 C1374 1.363 . S
N1372 C1374 1.356 . S
N1372 H1384 0.984 . S
N1372 H1385 0.985 . S
N1373 C1375 1.356 . S
N1373 H1378 0.984 . S
N1373 H1379 0.985 . S
C1374 C1368 1.379 . S
C1374 C1371 1.363 . S
C1374 N1372 1.356 . S
C1375 C1369 1.363 . S
C1375 C1370 1.379 . S
C1375 N1373 1.356 . S
N1376 C1368 1.356 . S
N1376 H1382 0.984 . S
N1376 H1383 0.984 . S
N1377 C1370 1.356 . S
N1377 H1380 0.984 . S
N1377 H1381 0.985 . S
H1378 N1373 0.984 . S
H1379 N1373 0.985 . S
H1380 N1377 0.984 . S
H1381 N1377 0.985 . S
H1382 N1376 0.984 . S
H1383 N1376 0.984 . S
H1384 N1372 0.984 . S
H1385 N1372 0.985 . S
C1386 C1387 1.363 . S
C1386 C1392 1.379 . S
C1386 N1394 1.356 . S
C1387 C1386 1.363 . S
C1387 C1393 1.363 . S
C1388 C1389 1.363 . S
C1388 C1393 1.379 . S
C1388 N1395 1.356 . S
C1389 C1388 1.363 . S
C1389 C1392 1.363 . S
N1390 C1392 1.356 . S
N1390 H1402 0.984 . S
N1390 H1403 0.985 . S
N1391 C1393 1.356 . S
N1391 H1396 0.984 . S
N1391 H1397 0.985 . S
C1392 C1386 1.379 . S
C1392 C1389 1.363 . S
C1392 N1390 1.356 . S
C1393 C1387 1.363 . S
C1393 C1388 1.379 . S
C1393 N1391 1.356 . S
N1394 C1386 1.356 . S
N1394 H1400 0.984 . S
N1394 H1401 0.984 . S
N1395 C1388 1.356 . S
N1395 H1398 0.984 . S
N1395 H1399 0.985 . S
H1396 N1391 0.984 . S
H1397 N1391 0.985 . S
H1398 N1395 0.984 . S
H1399 N1395 0.985 . S
H1400 N1394 0.984 . S
H1401 N1394 0.984 . S
H1402 N1390 0.984 . S
H1403 N1390 0.985 . S
C1404 C1405 1.363 . S
C1404 C1410 1.379 . S
C1404 N1412 1.356 . S
C1405 C1404 1.363 . S
C1405 C1411 1.363 . S
C1406 C1407 1.363 . S
C1406 C1411 1.379 . S
C1406 N1413 1.356 . S
C1407 C1406 1.363 . S
C1407 C1410 1.363 . S
N1408 C1410 1.356 . S
N1408 H1420 0.984 . S
N1408 H1421 0.985 . S
N1409 C1411 1.356 . S
N1409 H1414 0.984 . S
N1409 H1415 0.985 . S
C1410 C1404 1.379 . S
C1410 C1407 1.363 . S
C1410 N1408 1.356 . S
C1411 C1405 1.363 . S
C1411 C1406 1.379 . S
C1411 N1409 1.356 . S
N1412 C1404 1.356 . S
N1412 H1418 0.984 . S
N1412 H1419 0.984 . S
N1413 C1406 1.356 . S
N1413 H1416 0.984 . S
N1413 H1417 0.985 . S
H1414 N1409 0.984 . S
H1415 N1409 0.985 . S
H1416 N1413 0.984 . S
H1417 N1413 0.985 . S
H1418 N1412 0.984 . S
H1419 N1412 0.984 . S
H1420 N1408 0.984 . S
H1421 N1408 0.985 . S
C613 C122 2.345 . S
C615 C20 2.345 . S
C631 C156 2.345 . S
C633 C54 2.345 . S
C649 C88 2.345 . S
C651 C190 2.345 . S
C667 C43 0.697 . S
C669 C179 0.697 . S
C685 C111 0.697 . S
C687 C77 0.697 . S
C703 C145 0.697 . S
C705 C9 0.697 . S
C721 C224 2.345 . S
C723 C326 2.345 . S
C739 C360 2.345 . S
C741 C258 2.345 . S
C757 C292 2.345 . S
C759 C394 2.345 . S
C775 C383 0.697 . S
C777 C247 0.697 . S
C793 C315 0.697 . S
C795 C281 0.697 . S
C811 C349 0.697 . S
C813 C213 0.697 . S
C829 C530 2.345 . S
C831 C428 2.345 . S
C847 C462 2.345 . S
C849 C564 2.345 . S
C865 C598 2.345 . S
C867 C496 2.345 . S
C883 C451 0.697 . S
C885 C587 0.697 . S
C901 C519 0.697 . S
C903 C485 0.697 . S
C919 C417 0.697 . S
C921 C553 0.697 . S
C937 C611 1.002 . S
C939 C33 1.002 . S
C955 C67 1.002 . S
C957 C543 1.002 . S
C973 C577 1.002 . S
C975 C101 1.002 . S
C991 C271 1.002 . S
C993 C135 1.002 . S
C1009 C169 1.002 . S
C1011 C305 1.002 . S
C1027 C203 1.002 . S
C1029 C237 1.002 . S
C1045 C475 1.002 . S
C1047 C339 1.002 . S
C1063 C509 1.002 . S
C1065 C373 1.002 . S
C1081 C407 1.002 . S
C1083 C441 1.002 . S
C1099 C5 1.154 . S
C1101 C107 1.154 . S
C1117 C141 1.154 . S
C1119 C39 1.154 . S
C1135 C73 1.154 . S
C1137 C175 1.154 . S
C1153 C172 2.907 . S
C1155 C36 2.907 . S
C1171 C70 2.907 . S
C1173 C104 2.907 . S
C1189 C138 2.907 . S
C1191 C2 2.907 . S
C1207 C209 1.154 . S
C1209 C311 1.154 . S
C1225 C345 1.154 . S
C1227 C243 1.154 . S
C1243 C379 1.154 . S
C1245 C277 1.154 . S
C1261 C376 2.907 . S
C1263 C240 2.907 . S
C1279 C308 2.907 . S
C1281 C274 2.907 . S
C1297 C342 2.907 . S
C1299 C206 2.907 . S
C1315 C515 1.154 . S
C1317 C413 1.154 . S
C1333 C549 1.154 . S
C1335 C447 1.154 . S
C1351 C583 1.154 . S
C1353 C481 1.154 . S
C1369 C580 2.907 . S
C1371 C444 2.907 . S
C1387 C512 2.907 . S
C1389 C478 2.907 . S
C1405 C546 2.907 . S
C1407 C410 2.907 . S
