# Generated by pormake.
# Topology unj, (4)-cn, num edge types: 1
# Building blocks:
#     Node 0, Type 0, BuildingBlock: CEKHIL_clean_sbu_0, # of connection points: 4
#     Node 1, Type 0, BuildingBlock: CEKHIL_clean_sbu_0, # of connection points: 4
#     Node 2, Type 0, BuildingBlock: CEKHIL_clean_sbu_0, # of connection points: 4
#     Node 3, Type 0, BuildingBlock: CEKHIL_clean_sbu_0, # of connection points: 4
#     Node 4, Type 0, BuildingBlock: CEKHIL_clean_sbu_0, # of connection points: 4
#     Node 5, Type 0, BuildingBlock: CEKHIL_clean_sbu_0, # of connection points: 4
#     Edge 6, Type (0, 0), BuildingBlock: FUNLAD_clean_linker_0, # of connection points: 2
#     Edge 7, Type (0, 0), BuildingBlock: FUNLAD_clean_linker_0, # of connection points: 2
#     Edge 8, Type (0, 0), BuildingBlock: FUNLAD_clean_linker_0, # of connection points: 2
#     Edge 9, Type (0, 0), BuildingBlock: FUNLAD_clean_linker_0, # of connection points: 2
#     Edge 10, Type (0, 0), BuildingBlock: FUNLAD_clean_linker_0, # of connection points: 2
#     Edge 11, Type (0, 0), BuildingBlock: FUNLAD_clean_linker_0, # of connection points: 2
#     Edge 12, Type (0, 0), BuildingBlock: FUNLAD_clean_linker_0, # of connection points: 2
#     Edge 13, Type (0, 0), BuildingBlock: FUNLAD_clean_linker_0, # of connection points: 2
#     Edge 14, Type (0, 0), BuildingBlock: FUNLAD_clean_linker_0, # of connection points: 2
#     Edge 15, Type (0, 0), BuildingBlock: FUNLAD_clean_linker_0, # of connection points: 2
#     Edge 16, Type (0, 0), BuildingBlock: FUNLAD_clean_linker_0, # of connection points: 2
#     Edge 17, Type (0, 0), BuildingBlock: FUNLAD_clean_linker_0, # of connection points: 2
# Relax obj value: 0.029
# Max RMSD: 0.081
# Mean RMSD: 0.081
data_MOF--net-unj--node1-CEKHIL_clean_sbu_0--edge1-FUNLAD_clean_linker_0
_symmetry_space_group_name_H-M    P1
_symmetry_Int_Tables_number       1
_symmetry_cell_setting            triclinic
loop_
_symmetry_equiv_pos_as_xyz
'x, y, z'
_cell_length_a     37.765289
_cell_length_b     37.839412
_cell_length_c     42.286931
_cell_angle_alpha  89.849842
_cell_angle_beta   89.869416
_cell_angle_gamma 120.14346
loop_
_atom_site_label
_atom_site_type_symbol
_atom_site_fract_x
_atom_site_fract_y
_atom_site_fract_z
_atom_type_partial_charge
Co0 Co 0.50017 0.25993 0.58512 0.0
O1 O 0.51196 0.30768 0.60949 0.0
O2 O 0.45151 0.2513 0.60747 0.0
C3 C 0.5321 0.29591 0.54087 0.0
O4 O 0.47472 0.20493 0.56203 0.0
Co5 Co 0.56717 0.24556 0.55577 0.0
O6 O 0.52171 0.20045 0.53248 0.0
C7 C 0.54785 0.23069 0.62433 0.0
C8 C 0.47361 0.28849 0.61773 0.0
C9 C 0.48483 0.18637 0.54149 0.0
O10 O 0.51781 0.2376 0.62164 0.0
O11 O 0.57177 0.23443 0.60145 0.0
O12 O 0.4946 0.2864 0.54707 0.0
O13 O 0.54936 0.28484 0.56184 0.0
Co14 Co 0.25331 0.50127 0.75374 0.0
O15 O 0.21429 0.51207 0.77473 0.0
O16 O 0.21174 0.45246 0.77519 0.0
C17 C 0.25294 0.53213 0.70783 0.0
O18 O 0.2861 0.47697 0.73397 0.0
Co19 Co 0.33702 0.5697 0.72816 0.0
O20 O 0.34013 0.52495 0.70679 0.0
C21 C 0.32569 0.55119 0.79692 0.0
C22 C 0.19506 0.47394 0.78334 0.0
C23 C 0.31697 0.48792 0.71525 0.0
O24 O 0.28968 0.52005 0.79249 0.0
O25 O 0.34769 0.57545 0.77473 0.0
O26 O 0.2248 0.49455 0.71358 0.0
O27 O 0.27896 0.55012 0.73022 0.0
Co28 Co 0.75829 0.24995 0.91651 0.0
O29 O 0.70929 0.21157 0.93912 0.0
O30 O 0.768 0.21213 0.94097 0.0
C31 C 0.72532 0.24337 0.87025 0.0
O32 O 0.81504 0.28269 0.89572 0.0
Co33 Co 0.7693 0.32897 0.88446 0.0
O34 O 0.81894 0.33311 0.86508 0.0
C35 C 0.77377 0.32392 0.95443 0.0
C36 C 0.72965 0.19456 0.94924 0.0
C37 C 0.83415 0.31203 0.87558 0.0
O38 O 0.775 0.29044 0.9527 0.0
O39 O 0.76796 0.34093 0.93032 0.0
O40 O 0.73636 0.21702 0.87795 0.0
O41 O 0.73311 0.27124 0.89087 0.0
Co42 Co 0.53474 0.76069 0.0857 0.0
O43 O 0.52769 0.71205 0.10658 0.0
O44 O 0.5834 0.77287 0.10956 0.0
C45 C 0.51015 0.72944 0.03868 0.0
O46 O 0.55522 0.8177 0.06654 0.0
Co47 Co 0.46308 0.76721 0.05645 0.0
O48 O 0.50634 0.81853 0.037 0.0
C49 C 0.47406 0.77093 0.12612 0.0
C50 C 0.56487 0.73423 0.11684 0.0
C51 C 0.54301 0.83566 0.04706 0.0
O52 O 0.50915 0.77308 0.12318 0.0
O53 O 0.45049 0.76542 0.10265 0.0
O54 O 0.54816 0.74291 0.04621 0.0
O55 O 0.48818 0.73374 0.06 0.0
Co56 Co 0.77718 0.51849 0.2517 0.0
O57 O 0.81701 0.5131 0.27655 0.0
O58 O 0.81259 0.56906 0.27391 0.0
C59 C 0.78704 0.48961 0.20815 0.0
O60 O 0.74211 0.53726 0.22789 0.0
Co61 Co 0.70098 0.44486 0.22171 0.0
O62 O 0.69542 0.48671 0.19768 0.0
C63 C 0.70182 0.46223 0.29042 0.0
C64 C 0.8319 0.55107 0.28445 0.0
C65 C 0.71376 0.52377 0.20674 0.0
O66 O 0.73626 0.49611 0.28793 0.0
O67 O 0.68518 0.43728 0.26746 0.0
O68 O 0.81116 0.52826 0.21379 0.0
O69 O 0.75901 0.4699 0.22903 0.0
Co70 Co 0.2641 0.77217 0.41747 0.0
O71 O 0.31254 0.81324 0.43842 0.0
O72 O 0.25233 0.80956 0.44058 0.0
C73 C 0.29639 0.77853 0.37073 0.0
O74 O 0.20731 0.73512 0.39804 0.0
Co75 Co 0.2595 0.69386 0.39002 0.0
O76 O 0.20824 0.68492 0.37042 0.0
C77 C 0.24806 0.69958 0.45887 0.0
C78 C 0.2909 0.82895 0.44822 0.0
C79 C 0.19013 0.70387 0.37953 0.0
O80 O 0.24998 0.7344 0.45539 0.0
O81 O 0.25319 0.68021 0.4362 0.0
O82 O 0.28302 0.80317 0.37783 0.0
O83 O 0.29176 0.75258 0.39246 0.0
C84 C 0.4644 0.12484 0.50753 0.0
C85 C 0.45342 0.14536 0.52973 0.0
C86 C 0.43664 0.08472 0.49868 0.0
C87 C 0.39705 0.06375 0.51189 0.0
C88 C 0.38523 0.0848 0.5328 0.0
C89 C 0.41316 0.12511 0.5418 0.0
C90 C 0.36785 0.0201 0.50401 0.0
C91 C 0.3809 0.9935 0.49774 0.0
C92 C 0.35449 0.94983 0.48836 0.0
C93 C 0.37267 0.92534 0.48705 0.0
C94 C 0.35123 0.88555 0.47537 0.0
C95 C 0.3108 0.86893 0.46467 0.0
H96 H 0.29816 0.95049 0.47902 0.0
C97 C 0.29171 0.89257 0.46715 0.0
C98 C 0.31336 0.93273 0.47877 0.0
H99 H 0.26065 0.88069 0.45888 0.0
H100 H 0.49484 0.13949 0.49729 0.0
H101 H 0.44641 0.0702 0.48147 0.0
H102 H 0.35471 0.06965 0.54295 0.0
H103 H 0.40349 0.13996 0.5588 0.0
H104 H 0.33536 1.0097 0.50477 0.0
H105 H 0.41342 1.00425 0.49985 0.0
H106 H 0.40418 0.93741 0.4943 0.0
H107 H 0.36687 0.8682 0.47392 0.0
C108 C 0.41288 0.29259 0.63766 0.0
C109 C 0.45556 0.30968 0.63522 0.0
C110 C 0.3961 0.31515 0.65057 0.0
C111 C 0.4218 0.35527 0.66158 0.0
C112 C 0.4644 0.37147 0.66021 0.0
C113 C 0.48106 0.34908 0.64721 0.0
C114 C 0.40633 0.38263 0.67255 0.0
C115 C 0.36671 0.37108 0.67815 0.0
C116 C 0.35348 0.40095 0.68689 0.0
C117 C 0.31816 0.38827 0.70548 0.0
C118 C 0.30569 0.41611 0.71438 0.0
C119 C 0.32803 0.4572 0.70449 0.0
H120 H 0.40133 0.45241 0.66077 0.0
C121 C 0.36252 0.46938 0.68494 0.0
C122 C 0.37498 0.44171 0.6762 0.0
H123 H 0.38032 0.50057 0.67646 0.0
H124 H 0.39237 0.26236 0.62846 0.0
H125 H 0.36317 0.3014 0.65076 0.0
H126 H 0.4851 0.40218 0.66848 0.0
H127 H 0.51407 0.36318 0.64578 0.0
H128 H 0.42937 0.41445 0.67621 0.0
H129 H 0.34331 0.33906 0.67725 0.0
H130 H 0.3006 0.35691 0.71365 0.0
H131 H 0.27887 0.40551 0.7293 0.0
C132 C 0.89776 0.35627 0.84387 0.0
C133 C 0.87651 0.3238 0.8654 0.0
C134 C 0.93839 0.36953 0.83558 0.0
C135 C 0.9592 0.3509 0.84873 0.0
C136 C 0.93763 0.3175 0.86934 0.0
C137 C 0.89683 0.30421 0.87775 0.0
C138 C 1.00292 0.3652 0.8407 0.0
C139 C 0.02981 0.40445 0.83288 0.0
C140 C 0.07338 0.42072 0.82308 0.0
C141 C 0.09875 0.46331 0.82034 0.0
C142 C 0.13866 0.48047 0.80858 0.0
C143 C 0.15445 0.45551 0.79919 0.0
H144 H 0.07116 0.36271 0.8158 0.0
C145 C 0.12975 0.41292 0.80284 0.0
C146 C 0.08957 0.39563 0.81455 0.0
H147 H 0.14093 0.39282 0.79562 0.0
H148 H 0.88315 0.37187 0.83348 0.0
H149 H 0.95322 0.39424 0.81862 0.0
H150 H 0.95264 0.30212 0.87946 0.0
H151 H 0.88146 0.279 0.89425 0.0
H152 H 1.01312 0.3431 0.84241 0.0
H153 H 0.01953 0.42657 0.83398 0.0
H154 H 0.08734 0.48354 0.82666 0.0
H155 H 0.15679 0.51339 0.80614 0.0
C156 C 0.55864 0.89841 0.01571 0.0
C157 C 0.57177 0.87859 0.03689 0.0
C158 C 0.58451 0.93924 0.00704 0.0
C159 C 0.62432 0.96168 0.01946 0.0
C160 C 0.63798 0.94163 0.03987 0.0
C161 C 0.61198 0.90064 0.04864 0.0
C162 C 0.65244 1.00549 0.01075 0.0
C163 C 0.63865 0.03097 0.00241 0.0
C164 C 0.66474 0.07442 0.99185 0.0
C165 C 0.64589 0.09809 0.98791 0.0
C166 C 0.6675 0.13764 0.97537 0.0
C167 C 0.70874 0.15481 0.96637 0.0
H168 H 0.72237 0.07507 0.98597 0.0
C169 C 0.72826 0.1319 0.97129 0.0
C170 C 0.70653 0.09208 0.98378 0.0
H171 H 0.75995 0.14412 0.96439 0.0
H172 H 0.52814 0.88245 0.00578 0.0
H173 H 0.57322 0.95285 0.99026 0.0
H174 H 0.66866 0.95789 0.04946 0.0
H175 H 0.62331 0.88643 0.06485 0.0
H176 H 0.68508 0.01692 0.01231 0.0
H177 H 0.60592 0.01953 0.00355 0.0
H178 H 0.61384 0.08557 0.99385 0.0
H179 H 0.65144 0.15435 0.97192 0.0
C180 C 0.71014 0.58873 0.20824 0.0
C181 C 0.69922 0.55102 0.194 0.0
C182 C 0.69273 0.61199 0.19798 0.0
C183 C 0.66418 0.59812 0.17303 0.0
C184 C 0.65437 0.56107 0.15834 0.0
C185 C 0.67158 0.53791 0.16859 0.0
C186 C 0.64212 0.61958 0.16233 0.0
C187 C 0.65194 0.65802 0.17023 0.0
C188 C 0.6284 0.67745 0.15846 0.0
C189 C 0.6484 0.72007 0.15437 0.0
C190 C 0.62757 0.73885 0.14179 0.0
C191 C 0.58607 0.71541 0.13336 0.0
H192 H 0.56936 0.62158 0.15528 0.0
C193 C 0.56557 0.67301 0.13885 0.0
C194 C 0.58638 0.65427 0.15131 0.0
H195 H 0.53351 0.65404 0.13294 0.0
H196 H 0.73113 0.59968 0.228 0.0
H197 H 0.7009 0.64002 0.21034 0.0
H198 H 0.63262 0.54948 0.13906 0.0
H199 H 0.66248 0.50918 0.15688 0.0
H200 H 0.61678 0.60276 0.1462 0.0
H201 H 0.67908 0.67675 0.18418 0.0
H202 H 0.68056 0.7388 0.16009 0.0
H203 H 0.64425 0.7716 0.13797 0.0
C204 C 0.12486 0.70734 0.37446 0.0
C205 C 0.14633 0.6861 0.37049 0.0
C206 C 0.08288 0.6885 0.36711 0.0
C207 C 0.06164 0.64787 0.35618 0.0
C208 C 0.08324 0.62701 0.35225 0.0
C209 C 0.12488 0.64585 0.35895 0.0
C210 C 0.01682 0.62486 0.34976 0.0
C211 C 0.99499 0.64159 0.33868 0.0
C212 C 0.95137 0.61693 0.32781 0.0
C213 C 0.92983 0.63716 0.31997 0.0
C214 C 0.8903 0.61572 0.30709 0.0
C215 C 0.87133 0.57344 0.3017 0.0
H216 H 0.94648 0.55685 0.32792 0.0
C217 C 0.89222 0.55297 0.31041 0.0
C218 C 0.93161 0.57428 0.3231 0.0
H219 H 0.87869 0.52045 0.30643 0.0
H220 H 0.14036 0.73829 0.38343 0.0
H221 H 0.06699 0.70528 0.37088 0.0
H222 H 0.06775 0.59571 0.34395 0.0
H223 H 0.14 0.62819 0.35578 0.0
H224 H 1.00225 0.59206 0.35263 0.0
H225 H 1.01012 0.67457 0.33598 0.0
H226 H 0.944 0.66989 0.32312 0.0
H227 H 0.87514 0.6325 0.30051 0.0
C228 C 0.53763 0.33599 0.49184 0.0
C229 C 0.55506 0.3203 0.51289 0.0
C230 C 0.56047 0.36075 0.46635 0.0
C231 C 0.60119 0.37 0.46123 0.0
C232 C 0.61853 0.35453 0.48255 0.0
C233 C 0.59576 0.3299 0.50799 0.0
C234 C 0.62658 0.3952 0.43401 0.0
C235 C 0.61054 0.40023 0.40713 0.0
C236 C 0.63504 0.41965 0.37808 0.0
C237 C 0.6152 0.40701 0.3489 0.0
C238 C 0.63694 0.42186 0.32073 0.0
C239 C 0.67919 0.45031 0.32089 0.0
H240 H 0.69314 0.46071 0.40062 0.0
C241 C 0.69893 0.46471 0.35007 0.0
C242 C 0.67706 0.44937 0.3785 0.0
H243 H 0.73138 0.48678 0.35094 0.0
H244 H 0.50654 0.32963 0.49529 0.0
H245 H 0.54617 0.37296 0.45116 0.0
H246 H 0.64978 0.36122 0.47939 0.0
H247 H 0.61026 0.31859 0.52394 0.0
H248 H 0.65934 0.40685 0.43518 0.0
H249 H 0.57755 0.3857 0.40487 0.0
H250 H 0.58285 0.38452 0.34779 0.0
H251 H 0.62053 0.41047 0.29871 0.0
C252 C 0.25762 0.70167 0.51778 0.0
C253 C 0.23883 0.67963 0.49023 0.0
C254 C 0.25273 0.68098 0.5465 0.0
C255 C 0.22835 0.63805 0.54806 0.0
C256 C 0.20773 0.61656 0.52086 0.0
C257 C 0.21336 0.63702 0.49218 0.0
C258 C 0.22416 0.61437 0.57728 0.0
C259 C 0.2554 0.62473 0.59745 0.0
C260 C 0.2537 0.5995 0.62523 0.0
C261 C 0.28442 0.61763 0.6482 0.0
C262 C 0.28452 0.59544 0.67461 0.0
C263 C 0.25393 0.55436 0.67868 0.0
H264 H 0.19996 0.54211 0.61146 0.0
C265 C 0.22362 0.53573 0.65546 0.0
C266 C 0.22352 0.55795 0.62894 0.0
H267 H 0.19977 0.50404 0.65787 0.0
H268 H 0.27739 0.73455 0.51684 0.0
H269 H 0.26819 0.69852 0.5673 0.0
H270 H 0.18845 0.58359 0.52151 0.0
H271 H 0.19823 0.61935 0.47131 0.0
H272 H 0.19538 0.58615 0.58067 0.0
H273 H 0.28411 0.65291 0.59322 0.0
H274 H 0.30834 0.64933 0.6459 0.0
H275 H 0.30841 0.61074 0.69205 0.0
C276 C 0.68846 0.20774 0.82037 0.0
C277 C 0.7032 0.2413 0.84086 0.0
C278 C 0.66476 0.20518 0.79401 0.0
C279 C 0.65538 0.23626 0.78776 0.0
C280 C 0.67109 0.27009 0.80798 0.0
C281 C 0.69455 0.27257 0.83415 0.0
C282 C 0.63042 0.23583 0.76032 0.0
C283 C 0.60895 0.20377 0.74105 0.0
C284 C 0.58797 0.20702 0.71246 0.0
C285 C 0.58883 0.18712 0.68483 0.0
C286 C 0.57397 0.19348 0.65648 0.0
C287 C 0.55696 0.21907 0.65533 0.0
H288 H 0.56665 0.24563 0.73298 0.0
C289 C 0.5532 0.23658 0.68344 0.0
C290 C 0.56885 0.23083 0.71179 0.0
H291 H 0.54016 0.25637 0.68319 0.0
H292 H 0.69467 0.1832 0.82496 0.0
H293 H 0.65418 0.17891 0.77882 0.0
H294 H 0.66484 0.2947 0.80374 0.0
H295 H 0.70548 0.29895 0.8494 0.0
H296 H 0.63049 0.26408 0.7554 0.0
H297 H 0.60922 0.17552 0.74449 0.0
H298 H 0.6029 0.16823 0.6848 0.0
H299 H 0.57687 0.17924 0.63519 0.0
C300 C 0.38595 0.58025 0.83266 0.0
C301 C 0.34329 0.56101 0.82906 0.0
C302 C 0.40411 0.5954 0.86194 0.0
C303 C 0.38003 0.5925 0.88836 0.0
C304 C 0.33711 0.57102 0.88515 0.0
C305 C 0.31884 0.55528 0.85578 0.0
C306 C 0.39844 0.61226 0.91919 0.0
C307 C 0.43778 0.64248 0.92246 0.0
C308 C 0.45554 0.66413 0.95269 0.0
C309 C 0.498 0.68253 0.95743 0.0
C310 C 0.51602 0.70408 0.98522 0.0
C311 C 0.49194 0.70819 0.00862 0.0
H312 H 0.399 0.65625 0.97282 0.0
C313 C 0.44958 0.69049 0.00363 0.0
C314 C 0.43155 0.6687 0.976 0.0
H315 H 0.43018 0.69328 0.02116 0.0
H316 H 0.40552 0.58433 0.81256 0.0
H317 H 0.43703 0.60971 0.86336 0.0
H318 H 0.31768 0.56769 0.90516 0.0
H319 H 0.28586 0.54054 0.85367 0.0
H320 H 0.37827 0.60244 0.93966 0.0
H321 H 0.4584 0.65245 0.90232 0.0
H322 H 0.51728 0.67992 0.93967 0.0
H323 H 0.54872 0.71741 0.98837 0.0
C324 C 0.79274 0.33399 0.01256 0.0
C325 C 0.7798 0.3453 0.98511 0.0
C326 C 0.79974 0.35632 0.04066 0.0
C327 C 0.7938 0.39026 0.0417 0.0
C328 C 0.78073 0.40118 0.01434 0.0
C329 C 0.7736 0.379 0.9866 0.0
C330 C 0.80093 0.41563 0.07036 0.0
C331 C 0.79762 0.40166 0.10011 0.0
C332 C 0.79764 0.42555 0.12801 0.0
C333 C 0.77379 0.40426 0.15435 0.0
C334 C 0.77042 0.42532 0.18013 0.0
C335 C 0.79147 0.46828 0.1805 0.0
H336 H 0.83925 0.48612 0.10906 0.0
C337 C 0.81664 0.48982 0.1547 0.0
C338 C 0.81964 0.46866 0.12861 0.0
H339 H 0.83359 0.52292 0.15452 0.0
H340 H 0.79805 0.3084 0.01221 0.0
H341 H 0.81051 0.34742 0.0612 0.0
H342 H 0.77572 0.42699 0.01442 0.0
H343 H 0.76336 0.3887 0.96617 0.0
H344 H 0.80488 0.44584 0.06667 0.0
H345 H 0.78992 0.37021 0.10405 0.0
H346 H 0.7568 0.37114 0.15466 0.0
H347 H 0.75121 0.40777 0.19986 0.0
C348 C 0.33377 0.75538 0.3352 0.0
C349 C 0.31787 0.78139 0.3407 0.0
C350 C 0.35559 0.75892 0.30748 0.0
C351 C 0.36214 0.78873 0.28463 0.0
C352 C 0.34573 0.81433 0.29 0.0
C353 C 0.324 0.81086 0.31779 0.0
C354 C 0.38346 0.79233 0.25411 0.0
C355 C 0.40958 0.77825 0.24925 0.0
C356 C 0.42723 0.77865 0.21761 0.0
C357 C 0.46369 0.77722 0.21538 0.0
C358 C 0.47967 0.77549 0.18578 0.0
C359 C 0.45917 0.77466 0.15783 0.0
H360 H 0.37804 0.77741 0.19009 0.0
C361 C 0.42273 0.77613 0.16024 0.0
C362 C 0.40692 0.77789 0.1896 0.0
H363 H 0.40581 0.77535 0.13936 0.0
H364 H 0.32941 0.73221 0.35236 0.0
H365 H 0.36646 0.73767 0.30388 0.0
H366 H 0.34983 0.83723 0.27266 0.0
H367 H 0.31214 0.83135 0.32135 0.0
H368 H 0.37761 0.80788 0.23498 0.0
H369 H 0.41877 0.76633 0.269 0.0
H370 H 0.47974 0.77726 0.23658 0.0
H371 H 0.50765 0.77416 0.18485 0.0
loop_
_geom_bond_atom_site_label_1
_geom_bond_atom_site_label_2
_geom_bond_distance
_geom_bond_site_symmetry_2
_ccdc_geom_bond_type
Co0 O1 2.216 . S
Co0 O2 2.091 . S
Co0 O4 2.004 . S
Co0 O10 2.021 . S
Co0 O12 2.137 . S
Co0 O13 2.244 . S
O1 Co0 2.216 . S
O1 C8 1.247 . S
O2 Co0 2.091 . S
O2 C8 1.261 . S
C3 O12 1.247 . S
C3 O13 1.272 . S
O4 Co0 2.004 . S
O4 C9 1.259 . S
Co5 O6 2.061 . S
Co5 O11 2.052 . S
Co5 O13 2.135 . S
O6 Co5 2.061 . S
O6 C9 1.235 . S
C7 O10 1.238 . S
C7 O11 1.241 . S
C8 O1 1.247 . S
C8 O2 1.261 . S
C9 O4 1.259 . S
C9 O6 1.235 . S
O10 Co0 2.021 . S
O10 C7 1.238 . S
O11 Co5 2.052 . S
O11 C7 1.241 . S
O12 Co0 2.137 . S
O12 C3 1.247 . S
O13 Co0 2.244 . S
O13 C3 1.272 . S
O13 Co5 2.135 . S
Co14 O15 2.216 . S
Co14 O16 2.091 . S
Co14 O18 2.004 . S
Co14 O24 2.021 . S
Co14 O26 2.137 . S
Co14 O27 2.244 . S
O15 Co14 2.216 . S
O15 C22 1.247 . S
O16 Co14 2.091 . S
O16 C22 1.261 . S
C17 O26 1.247 . S
C17 O27 1.272 . S
O18 Co14 2.004 . S
O18 C23 1.259 . S
Co19 O20 2.061 . S
Co19 O25 2.052 . S
Co19 O27 2.135 . S
O20 Co19 2.061 . S
O20 C23 1.235 . S
C21 O24 1.238 . S
C21 O25 1.241 . S
C22 O15 1.247 . S
C22 O16 1.261 . S
C23 O18 1.259 . S
C23 O20 1.235 . S
O24 Co14 2.021 . S
O24 C21 1.238 . S
O25 Co19 2.052 . S
O25 C21 1.241 . S
O26 Co14 2.137 . S
O26 C17 1.247 . S
O27 Co14 2.244 . S
O27 C17 1.272 . S
O27 Co19 2.135 . S
Co28 O29 2.216 . S
Co28 O30 2.091 . S
Co28 O32 2.004 . S
Co28 O38 2.021 . S
Co28 O40 2.137 . S
Co28 O41 2.244 . S
O29 Co28 2.216 . S
O29 C36 1.247 . S
O30 Co28 2.091 . S
O30 C36 1.261 . S
C31 O40 1.247 . S
C31 O41 1.272 . S
O32 Co28 2.004 . S
O32 C37 1.259 . S
Co33 O34 2.061 . S
Co33 O39 2.052 . S
Co33 O41 2.135 . S
O34 Co33 2.061 . S
O34 C37 1.235 . S
C35 O38 1.238 . S
C35 O39 1.241 . S
C36 O29 1.247 . S
C36 O30 1.261 . S
C37 O32 1.259 . S
C37 O34 1.235 . S
O38 Co28 2.021 . S
O38 C35 1.238 . S
O39 Co33 2.052 . S
O39 C35 1.241 . S
O40 Co28 2.137 . S
O40 C31 1.247 . S
O41 Co28 2.244 . S
O41 C31 1.272 . S
O41 Co33 2.135 . S
Co42 O43 2.216 . S
Co42 O44 2.091 . S
Co42 O46 2.004 . S
Co42 O52 2.021 . S
Co42 O54 2.137 . S
Co42 O55 2.244 . S
O43 Co42 2.216 . S
O43 C50 1.247 . S
O44 Co42 2.091 . S
O44 C50 1.261 . S
C45 O54 1.247 . S
C45 O55 1.272 . S
O46 Co42 2.004 . S
O46 C51 1.259 . S
Co47 O48 2.061 . S
Co47 O53 2.052 . S
Co47 O55 2.135 . S
O48 Co47 2.061 . S
O48 C51 1.235 . S
C49 O52 1.238 . S
C49 O53 1.241 . S
C50 O43 1.247 . S
C50 O44 1.261 . S
C51 O46 1.259 . S
C51 O48 1.235 . S
O52 Co42 2.021 . S
O52 C49 1.238 . S
O53 Co47 2.052 . S
O53 C49 1.241 . S
O54 Co42 2.137 . S
O54 C45 1.247 . S
O55 Co42 2.244 . S
O55 C45 1.272 . S
O55 Co47 2.135 . S
Co56 O57 2.216 . S
Co56 O58 2.091 . S
Co56 O60 2.004 . S
Co56 O66 2.021 . S
Co56 O68 2.137 . S
Co56 O69 2.244 . S
O57 Co56 2.216 . S
O57 C64 1.247 . S
O58 Co56 2.091 . S
O58 C64 1.261 . S
C59 O68 1.247 . S
C59 O69 1.272 . S
O60 Co56 2.004 . S
O60 C65 1.259 . S
Co61 O62 2.061 . S
Co61 O67 2.052 . S
Co61 O69 2.135 . S
O62 Co61 2.061 . S
O62 C65 1.235 . S
C63 O66 1.238 . S
C63 O67 1.241 . S
C64 O57 1.247 . S
C64 O58 1.261 . S
C65 O60 1.259 . S
C65 O62 1.235 . S
O66 Co56 2.021 . S
O66 C63 1.238 . S
O67 Co61 2.052 . S
O67 C63 1.241 . S
O68 Co56 2.137 . S
O68 C59 1.247 . S
O69 Co56 2.244 . S
O69 C59 1.272 . S
O69 Co61 2.135 . S
Co70 O71 2.216 . S
Co70 O72 2.091 . S
Co70 O74 2.004 . S
Co70 O80 2.021 . S
Co70 O82 2.137 . S
Co70 O83 2.244 . S
O71 Co70 2.216 . S
O71 C78 1.247 . S
O72 Co70 2.091 . S
O72 C78 1.261 . S
C73 O82 1.247 . S
C73 O83 1.272 . S
O74 Co70 2.004 . S
O74 C79 1.259 . S
Co75 O76 2.061 . S
Co75 O81 2.052 . S
Co75 O83 2.135 . S
O76 Co75 2.061 . S
O76 C79 1.235 . S
C77 O80 1.238 . S
C77 O81 1.241 . S
C78 O71 1.247 . S
C78 O72 1.261 . S
C79 O74 1.259 . S
C79 O76 1.235 . S
O80 Co70 2.021 . S
O80 C77 1.238 . S
O81 Co75 2.052 . S
O81 C77 1.241 . S
O82 Co70 2.137 . S
O82 C73 1.247 . S
O83 Co70 2.244 . S
O83 C73 1.272 . S
O83 Co75 2.135 . S
C84 C85 1.386 . S
C84 C86 1.383 . S
C84 H100 0.951 . S
C85 C84 1.386 . S
C85 C89 1.383 . S
C86 C84 1.383 . S
C86 C87 1.402 . S
C86 H101 0.951 . S
C87 C86 1.402 . S
C87 C88 1.375 . S
C87 C90 1.481 . S
C88 C87 1.375 . S
C88 C89 1.367 . S
C88 H102 0.951 . S
C89 C85 1.383 . S
C89 C88 1.367 . S
C89 H103 0.950 . S
C90 C87 1.481 . S
C90 C91 1.297 1_545 S
C90 H104 0.950 . S
C91 C90 1.297 1_565 S
C91 C92 1.479 . S
C91 H105 0.950 . S
C92 C91 1.479 . S
C92 C93 1.375 . S
C92 C98 1.404 . S
C93 C92 1.375 . S
C93 C94 1.369 . S
C93 H106 0.950 . S
C94 C93 1.369 . S
C94 C95 1.392 . S
C94 H107 0.951 . S
C95 C94 1.392 . S
C95 C97 1.384 . S
H96 C98 0.949 . S
C97 C95 1.384 . S
C97 C98 1.385 . S
C97 H99 0.950 . S
C98 C92 1.404 . S
C98 H96 0.949 . S
C98 C97 1.385 . S
H99 C97 0.950 . S
H100 C84 0.951 . S
H101 C86 0.951 . S
H102 C88 0.951 . S
H103 C89 0.950 . S
H104 C90 0.950 . S
H105 C91 0.950 . S
H106 C93 0.950 . S
H107 C94 0.951 . S
C108 C109 1.386 . S
C108 C110 1.383 . S
C108 H124 0.951 . S
C109 C108 1.386 . S
C109 C113 1.383 . S
C110 C108 1.383 . S
C110 C111 1.402 . S
C110 H125 0.951 . S
C111 C110 1.402 . S
C111 C112 1.375 . S
C111 C114 1.481 . S
C112 C111 1.375 . S
C112 C113 1.367 . S
C112 H126 0.951 . S
C113 C109 1.383 . S
C113 C112 1.367 . S
C113 H127 0.950 . S
C114 C111 1.481 . S
C114 C115 1.297 . S
C114 H128 0.950 . S
C115 C114 1.297 . S
C115 C116 1.479 . S
C115 H129 0.950 . S
C116 C115 1.479 . S
C116 C117 1.375 . S
C116 C122 1.404 . S
C117 C116 1.375 . S
C117 C118 1.369 . S
C117 H130 0.950 . S
C118 C117 1.369 . S
C118 C119 1.392 . S
C118 H131 0.951 . S
C119 C118 1.392 . S
C119 C121 1.384 . S
H120 C122 0.949 . S
C121 C119 1.384 . S
C121 C122 1.385 . S
C121 H123 0.950 . S
C122 C116 1.404 . S
C122 H120 0.949 . S
C122 C121 1.385 . S
H123 C121 0.950 . S
H124 C108 0.951 . S
H125 C110 0.951 . S
H126 C112 0.951 . S
H127 C113 0.950 . S
H128 C114 0.950 . S
H129 C115 0.950 . S
H130 C117 0.950 . S
H131 C118 0.951 . S
C132 C133 1.386 . S
C132 C134 1.383 . S
C132 H148 0.951 . S
C133 C132 1.386 . S
C133 C137 1.383 . S
C134 C132 1.383 . S
C134 C135 1.402 . S
C134 H149 0.951 . S
C135 C134 1.402 . S
C135 C136 1.375 . S
C135 C138 1.481 . S
C136 C135 1.375 . S
C136 C137 1.367 . S
C136 H150 0.951 . S
C137 C133 1.383 . S
C137 C136 1.367 . S
C137 H151 0.950 . S
C138 C135 1.481 . S
C138 C139 1.297 1_655 S
C138 H152 0.950 . S
C139 C138 1.297 1_455 S
C139 C140 1.479 . S
C139 H153 0.950 . S
C140 C139 1.479 . S
C140 C141 1.375 . S
C140 C146 1.404 . S
C141 C140 1.375 . S
C141 C142 1.369 . S
C141 H154 0.950 . S
C142 C141 1.369 . S
C142 C143 1.392 . S
C142 H155 0.951 . S
C143 C142 1.392 . S
C143 C145 1.384 . S
H144 C146 0.949 . S
C145 C143 1.384 . S
C145 C146 1.385 . S
C145 H147 0.950 . S
C146 C140 1.404 . S
C146 H144 0.949 . S
C146 C145 1.385 . S
H147 C145 0.950 . S
H148 C132 0.951 . S
H149 C134 0.951 . S
H150 C136 0.951 . S
H151 C137 0.950 . S
H152 C138 0.950 . S
H153 C139 0.950 . S
H154 C141 0.950 . S
H155 C142 0.951 . S
C156 C157 1.386 . S
C156 C158 1.383 . S
C156 H172 0.951 . S
C157 C156 1.386 . S
C157 C161 1.383 . S
C158 C156 1.383 . S
C158 C159 1.402 . S
C158 H173 0.951 1_554 S
C159 C158 1.402 . S
C159 C160 1.375 . S
C159 C162 1.481 . S
C160 C159 1.375 . S
C160 C161 1.367 . S
C160 H174 0.951 . S
C161 C157 1.383 . S
C161 C160 1.367 . S
C161 H175 0.950 . S
C162 C159 1.481 . S
C162 C163 1.297 1_564 S
C162 H176 0.950 1_565 S
C163 C162 1.297 1_546 S
C163 C164 1.479 . S
C163 H177 0.950 1_545 S
C164 C163 1.479 . S
C164 C165 1.375 . S
C164 C170 1.404 1_556 S
C165 C164 1.375 . S
C165 C166 1.369 . S
C165 H178 0.950 . S
C166 C165 1.369 . S
C166 C167 1.392 . S
C166 H179 0.951 . S
C167 C166 1.392 . S
C167 C169 1.384 . S
H168 C170 0.949 . S
C169 C167 1.384 . S
C169 C170 1.385 1_556 S
C169 H171 0.950 1_556 S
C170 C164 1.404 1_554 S
C170 H168 0.949 . S
C170 C169 1.385 1_554 S
H171 C169 0.950 1_554 S
H172 C156 0.951 . S
H173 C158 0.951 1_556 S
H174 C160 0.951 . S
H175 C161 0.950 . S
H176 C162 0.950 1_545 S
H177 C163 0.950 1_565 S
H178 C165 0.950 . S
H179 C166 0.951 . S
C180 C181 1.386 . S
C180 C182 1.383 . S
C180 H196 0.951 . S
C181 C180 1.386 . S
C181 C185 1.383 . S
C182 C180 1.383 . S
C182 C183 1.402 . S
C182 H197 0.951 . S
C183 C182 1.402 . S
C183 C184 1.375 . S
C183 C186 1.481 . S
C184 C183 1.375 . S
C184 C185 1.367 . S
C184 H198 0.951 . S
C185 C181 1.383 . S
C185 C184 1.367 . S
C185 H199 0.950 . S
C186 C183 1.481 . S
C186 C187 1.297 . S
C186 H200 0.950 . S
C187 C186 1.297 . S
C187 C188 1.479 . S
C187 H201 0.950 . S
C188 C187 1.479 . S
C188 C189 1.375 . S
C188 C194 1.404 . S
C189 C188 1.375 . S
C189 C190 1.369 . S
C189 H202 0.950 . S
C190 C189 1.369 . S
C190 C191 1.392 . S
C190 H203 0.951 . S
C191 C190 1.392 . S
C191 C193 1.384 . S
H192 C194 0.949 . S
C193 C191 1.384 . S
C193 C194 1.385 . S
C193 H195 0.950 . S
C194 C188 1.404 . S
C194 H192 0.949 . S
C194 C193 1.385 . S
H195 C193 0.950 . S
H196 C180 0.951 . S
H197 C182 0.951 . S
H198 C184 0.951 . S
H199 C185 0.950 . S
H200 C186 0.950 . S
H201 C187 0.950 . S
H202 C189 0.950 . S
H203 C190 0.951 . S
C204 C205 1.386 . S
C204 C206 1.383 . S
C204 H220 0.951 . S
C205 C204 1.386 . S
C205 C209 1.383 . S
C206 C204 1.383 . S
C206 C207 1.402 . S
C206 H221 0.951 . S
C207 C206 1.402 . S
C207 C208 1.375 . S
C207 C210 1.481 . S
C208 C207 1.375 . S
C208 C209 1.367 . S
C208 H222 0.951 . S
C209 C205 1.383 . S
C209 C208 1.367 . S
C209 H223 0.950 . S
C210 C207 1.481 . S
C210 C211 1.297 . S
C210 H224 0.950 . S
C211 C210 1.297 . S
C211 C212 1.479 1_455 S
C211 H225 0.950 . S
C212 C211 1.479 1_655 S
C212 C213 1.375 . S
C212 C218 1.404 . S
C213 C212 1.375 . S
C213 C214 1.369 . S
C213 H226 0.950 . S
C214 C213 1.369 . S
C214 C215 1.392 . S
C214 H227 0.951 . S
C215 C214 1.392 . S
C215 C217 1.384 . S
H216 C218 0.949 . S
C217 C215 1.384 . S
C217 C218 1.385 . S
C217 H219 0.950 . S
C218 C212 1.404 . S
C218 H216 0.949 . S
C218 C217 1.385 . S
H219 C217 0.950 . S
H220 C204 0.951 . S
H221 C206 0.951 . S
H222 C208 0.951 . S
H223 C209 0.950 . S
H224 C210 0.950 . S
H225 C211 0.950 . S
H226 C213 0.950 . S
H227 C214 0.951 . S
C228 C229 1.386 . S
C228 C230 1.383 . S
C228 H244 0.951 . S
C229 C228 1.386 . S
C229 C233 1.383 . S
C230 C228 1.383 . S
C230 C231 1.402 . S
C230 H245 0.951 . S
C231 C230 1.402 . S
C231 C232 1.375 . S
C231 C234 1.481 . S
C232 C231 1.375 . S
C232 C233 1.367 . S
C232 H246 0.951 . S
C233 C229 1.383 . S
C233 C232 1.367 . S
C233 H247 0.950 . S
C234 C231 1.481 . S
C234 C235 1.297 . S
C234 H248 0.950 . S
C235 C234 1.297 . S
C235 C236 1.479 . S
C235 H249 0.950 . S
C236 C235 1.479 . S
C236 C237 1.375 . S
C236 C242 1.404 . S
C237 C236 1.375 . S
C237 C238 1.369 . S
C237 H250 0.950 . S
C238 C237 1.369 . S
C238 C239 1.392 . S
C238 H251 0.951 . S
C239 C238 1.392 . S
C239 C241 1.384 . S
H240 C242 0.949 . S
C241 C239 1.384 . S
C241 C242 1.385 . S
C241 H243 0.950 . S
C242 C236 1.404 . S
C242 H240 0.949 . S
C242 C241 1.385 . S
H243 C241 0.950 . S
H244 C228 0.951 . S
H245 C230 0.951 . S
H246 C232 0.951 . S
H247 C233 0.950 . S
H248 C234 0.950 . S
H249 C235 0.950 . S
H250 C237 0.950 . S
H251 C238 0.951 . S
C252 C253 1.386 . S
C252 C254 1.383 . S
C252 H268 0.951 . S
C253 C252 1.386 . S
C253 C257 1.383 . S
C254 C252 1.383 . S
C254 C255 1.402 . S
C254 H269 0.951 . S
C255 C254 1.402 . S
C255 C256 1.375 . S
C255 C258 1.481 . S
C256 C255 1.375 . S
C256 C257 1.367 . S
C256 H270 0.951 . S
C257 C253 1.383 . S
C257 C256 1.367 . S
C257 H271 0.950 . S
C258 C255 1.481 . S
C258 C259 1.297 . S
C258 H272 0.950 . S
C259 C258 1.297 . S
C259 C260 1.479 . S
C259 H273 0.950 . S
C260 C259 1.479 . S
C260 C261 1.375 . S
C260 C266 1.404 . S
C261 C260 1.375 . S
C261 C262 1.369 . S
C261 H274 0.950 . S
C262 C261 1.369 . S
C262 C263 1.392 . S
C262 H275 0.951 . S
C263 C262 1.392 . S
C263 C265 1.384 . S
H264 C266 0.949 . S
C265 C263 1.384 . S
C265 C266 1.385 . S
C265 H267 0.950 . S
C266 C260 1.404 . S
C266 H264 0.949 . S
C266 C265 1.385 . S
H267 C265 0.950 . S
H268 C252 0.951 . S
H269 C254 0.951 . S
H270 C256 0.951 . S
H271 C257 0.950 . S
H272 C258 0.950 . S
H273 C259 0.950 . S
H274 C261 0.950 . S
H275 C262 0.951 . S
C276 C277 1.386 . S
C276 C278 1.383 . S
C276 H292 0.951 . S
C277 C276 1.386 . S
C277 C281 1.383 . S
C278 C276 1.383 . S
C278 C279 1.402 . S
C278 H293 0.951 . S
C279 C278 1.402 . S
C279 C280 1.375 . S
C279 C282 1.481 . S
C280 C279 1.375 . S
C280 C281 1.367 . S
C280 H294 0.951 . S
C281 C277 1.383 . S
C281 C280 1.367 . S
C281 H295 0.950 . S
C282 C279 1.481 . S
C282 C283 1.297 . S
C282 H296 0.950 . S
C283 C282 1.297 . S
C283 C284 1.479 . S
C283 H297 0.950 . S
C284 C283 1.479 . S
C284 C285 1.375 . S
C284 C290 1.404 . S
C285 C284 1.375 . S
C285 C286 1.369 . S
C285 H298 0.950 . S
C286 C285 1.369 . S
C286 C287 1.392 . S
C286 H299 0.951 . S
C287 C286 1.392 . S
C287 C289 1.384 . S
H288 C290 0.949 . S
C289 C287 1.384 . S
C289 C290 1.385 . S
C289 H291 0.950 . S
C290 C284 1.404 . S
C290 H288 0.949 . S
C290 C289 1.385 . S
H291 C289 0.950 . S
H292 C276 0.951 . S
H293 C278 0.951 . S
H294 C280 0.951 . S
H295 C281 0.950 . S
H296 C282 0.950 . S
H297 C283 0.950 . S
H298 C285 0.950 . S
H299 C286 0.951 . S
C300 C301 1.386 . S
C300 C302 1.383 . S
C300 H316 0.951 . S
C301 C300 1.386 . S
C301 C305 1.383 . S
C302 C300 1.383 . S
C302 C303 1.402 . S
C302 H317 0.951 . S
C303 C302 1.402 . S
C303 C304 1.375 . S
C303 C306 1.481 . S
C304 C303 1.375 . S
C304 C305 1.367 . S
C304 H318 0.951 . S
C305 C301 1.383 . S
C305 C304 1.367 . S
C305 H319 0.950 . S
C306 C303 1.481 . S
C306 C307 1.297 . S
C306 H320 0.950 . S
C307 C306 1.297 . S
C307 C308 1.479 . S
C307 H321 0.950 . S
C308 C307 1.479 . S
C308 C309 1.375 . S
C308 C314 1.404 . S
C309 C308 1.375 . S
C309 C310 1.369 1_556 S
C309 H322 0.950 . S
C310 C309 1.369 1_554 S
C310 C311 1.392 . S
C310 H323 0.951 . S
C311 C310 1.392 . S
C311 C313 1.384 1_554 S
H312 C314 0.949 . S
C313 C311 1.384 1_556 S
C313 C314 1.385 . S
C313 H315 0.950 . S
C314 C308 1.404 . S
C314 H312 0.949 . S
C314 C313 1.385 . S
H315 C313 0.950 . S
H316 C300 0.951 . S
H317 C302 0.951 . S
H318 C304 0.951 . S
H319 C305 0.950 . S
H320 C306 0.950 . S
H321 C307 0.950 . S
H322 C309 0.950 . S
H323 C310 0.951 . S
C324 C325 1.386 1_554 S
C324 C326 1.383 . S
C324 H340 0.951 . S
C325 C324 1.386 1_556 S
C325 C329 1.383 . S
C326 C324 1.383 . S
C326 C327 1.402 . S
C326 H341 0.951 . S
C327 C326 1.402 . S
C327 C328 1.375 . S
C327 C330 1.481 . S
C328 C327 1.375 . S
C328 C329 1.367 1_554 S
C328 H342 0.951 . S
C329 C325 1.383 . S
C329 C328 1.367 1_556 S
C329 H343 0.950 . S
C330 C327 1.481 . S
C330 C331 1.297 . S
C330 H344 0.950 . S
C331 C330 1.297 . S
C331 C332 1.479 . S
C331 H345 0.950 . S
C332 C331 1.479 . S
C332 C333 1.375 . S
C332 C338 1.404 . S
C333 C332 1.375 . S
C333 C334 1.369 . S
C333 H346 0.950 . S
C334 C333 1.369 . S
C334 C335 1.392 . S
C334 H347 0.951 . S
C335 C334 1.392 . S
C335 C337 1.384 . S
H336 C338 0.949 . S
C337 C335 1.384 . S
C337 C338 1.385 . S
C337 H339 0.950 . S
C338 C332 1.404 . S
C338 H336 0.949 . S
C338 C337 1.385 . S
H339 C337 0.950 . S
H340 C324 0.951 . S
H341 C326 0.951 . S
H342 C328 0.951 . S
H343 C329 0.950 . S
H344 C330 0.950 . S
H345 C331 0.950 . S
H346 C333 0.950 . S
H347 C334 0.951 . S
C348 C349 1.386 . S
C348 C350 1.383 . S
C348 H364 0.951 . S
C349 C348 1.386 . S
C349 C353 1.383 . S
C350 C348 1.383 . S
C350 C351 1.402 . S
C350 H365 0.951 . S
C351 C350 1.402 . S
C351 C352 1.375 . S
C351 C354 1.481 . S
C352 C351 1.375 . S
C352 C353 1.367 . S
C352 H366 0.951 . S
C353 C349 1.383 . S
C353 C352 1.367 . S
C353 H367 0.950 . S
C354 C351 1.481 . S
C354 C355 1.297 . S
C354 H368 0.950 . S
C355 C354 1.297 . S
C355 C356 1.479 . S
C355 H369 0.950 . S
C356 C355 1.479 . S
C356 C357 1.375 . S
C356 C362 1.404 . S
C357 C356 1.375 . S
C357 C358 1.369 . S
C357 H370 0.950 . S
C358 C357 1.369 . S
C358 C359 1.392 . S
C358 H371 0.951 . S
C359 C358 1.392 . S
C359 C361 1.384 . S
H360 C362 0.949 . S
C361 C359 1.384 . S
C361 C362 1.385 . S
C361 H363 0.950 . S
C362 C356 1.404 . S
C362 H360 0.949 . S
C362 C361 1.385 . S
H363 C361 0.950 . S
H364 C348 0.951 . S
H365 C350 0.951 . S
H366 C352 0.951 . S
H367 C353 0.950 . S
H368 C354 0.950 . S
H369 C355 0.950 . S
H370 C357 0.950 . S
H371 C358 0.951 . S
C85 C9 1.629 . S
C95 C78 1.616 . S
C109 C8 1.632 . S
C119 C23 1.632 . S
C133 C37 1.629 . S
C143 C22 1.616 . S
C157 C51 1.623 . S
C167 C36 1.631 . S
C181 C65 1.615 . S
C191 C50 1.610 . S
C205 C79 1.608 . S
C215 C64 1.620 . S
C229 C3 1.444 . S
C239 C63 1.384 . S
C253 C77 1.412 . S
C263 C17 1.438 . S
C277 C31 1.445 . S
C287 C7 1.403 . S
C301 C21 1.392 . S
C311 C45 1.434 . S
C325 C35 1.392 . S
C335 C59 1.435 . S
C349 C73 1.443 . S
C359 C49 1.385 . S
