# Generated by pormake.
# Topology sxc, (6)-cn, num edge types: 1
# Building blocks:
#     Node 0, Type 0, BuildingBlock: KUMBOL_clean_sbu_0, # of connection points: 6
#     Node 1, Type 0, BuildingBlock: KUMBOL_clean_sbu_0, # of connection points: 6
#     Node 2, Type 0, BuildingBlock: KUMBOL_clean_sbu_0, # of connection points: 6
#     Edge 3, Type (0, 0), BuildingBlock: FUNLAD_clean_linker_0, # of connection points: 2
#     Edge 4, Type (0, 0), BuildingBlock: FUNLAD_clean_linker_0, # of connection points: 2
#     Edge 5, Type (0, 0), BuildingBlock: FUNLAD_clean_linker_0, # of connection points: 2
#     Edge 6, Type (0, 0), BuildingBlock: FUNLAD_clean_linker_0, # of connection points: 2
#     Edge 7, Type (0, 0), BuildingBlock: FUNLAD_clean_linker_0, # of connection points: 2
#     Edge 8, Type (0, 0), BuildingBlock: FUNLAD_clean_linker_0, # of connection points: 2
#     Edge 9, Type (0, 0), BuildingBlock: FUNLAD_clean_linker_0, # of connection points: 2
#     Edge 10, Type (0, 0), BuildingBlock: FUNLAD_clean_linker_0, # of connection points: 2
#     Edge 11, Type (0, 0), BuildingBlock: FUNLAD_clean_linker_0, # of connection points: 2
# Relax obj value: 0.173
# Max RMSD: 0.141
# Mean RMSD: 0.124
data_MOF--net-sxc--node1-KUMBOL_clean_sbu_0--edge1-FUNLAD_clean_linker_0
_symmetry_space_group_name_H-M    P1
_symmetry_Int_Tables_number       1
_symmetry_cell_setting            triclinic
loop_
_symmetry_equiv_pos_as_xyz
'x, y, z'
_cell_length_a     17.767949
_cell_length_b     19.818631
_cell_length_c     53.205025
_cell_angle_alpha  113.54924
_cell_angle_beta   97.285909
_cell_angle_gamma 99.469189
loop_
_atom_site_label
_atom_site_type_symbol
_atom_site_fract_x
_atom_site_fract_y
_atom_site_fract_z
_atom_type_partial_charge
Gd0 Gd 1.00362 0.09708 0.97808 0.0
Gd1 Gd 0.20091 0.1665 0.00025 0.0
C2 C 0.33029 0.98607 0.95559 0.0
C3 C 0.33162 0.91699 0.98434 0.0
C4 C 0.26953 1.02333 -0.00418 0.0
C5 C 0.28832 1.03355 0.97286 0.0
C6 C 0.2939 0.96679 0.00239 0.0
C7 C 0.34917 0.92621 0.96085 0.0
C8 C 0.35624 1.00272 0.93452 0.0
C9 C 0.3458 0.06865 0.93251 0.0
N10 N 0.27269 0.09419 0.96909 0.0
C11 C 0.30644 0.1153 0.9507 0.0
H12 H 0.30325 0.16857 0.95004 0.0
C13 C 0.2249 0.0714 0.03807 0.0
N14 N 0.23249 0.07191 0.0129 0.0
C15 C 0.2472 1.01598 0.04529 0.0
C16 C 0.28081 0.96266 0.02717 0.0
H17 H 0.20304 0.11429 0.05298 0.0
H18 H 0.38051 0.88881 0.9476 0.0
H19 H 0.89971 0.08114 0.02602 0.0
H20 H 0.3883 0.96748 0.9208 0.0
H21 H 0.36963 0.08454 0.91738 0.0
H22 H 0.34915 0.87231 0.98875 0.0
H23 H 1.00371 0.16019 0.92849 0.0
H24 H 0.80286 0.27469 0.05749 0.0
H25 H 0.82645 0.15633 0.05855 0.0
H26 H 0.84354 0.38704 -0.00557 0.0
H27 H 0.23937 1.01508 0.06501 0.0
H28 H 0.29832 0.91989 0.03285 0.0
H29 H 0.80995 0.3607 0.03353 0.0
H30 H 0.96204 0.26039 0.91819 0.0
N31 N 0.92705 0.16121 0.00912 0.0
C32 C 0.83741 0.24321 0.04377 0.0
C33 C 0.85052 0.17646 0.04443 0.0
C34 C 0.86441 0.26572 0.0241 0.0
C35 C 0.90955 0.22296 0.00676 0.0
C36 C 0.89325 0.13469 0.02624 0.0
N37 N 0.96956 0.19436 0.96779 0.0
C38 C 0.92976 0.23888 0.98506 0.0
C39 C 0.95341 0.25563 0.93724 0.0
C40 C 0.91693 0.30507 0.95569 0.0
C41 C 0.97813 0.19947 0.94339 0.0
C42 C 0.90339 0.29627 0.97967 0.0
H43 H 0.89772 0.3485 0.95087 0.0
O44 O 0.94291 1.02843 0.9347 0.0
O45 O 0.10893 1.05177 0.98939 0.0
O46 O 0.171 0.1524 0.95585 0.0
O47 O 0.05892 0.05899 0.94029 0.0
O48 O 1.00163 0.98269 0.98074 0.0
O49 O 0.88123 1.03989 0.96813 0.0
O50 O 0.26638 0.2379 0.04286 0.0
O51 O 0.09537 0.21192 0.98909 0.0
O52 O 1.03466 0.11344 0.02278 0.0
O53 O 0.146 0.20746 0.038 0.0
O54 O 0.20252 0.28118 -0.00218 0.0
O55 O 0.32374 0.21931 0.00801 0.0
C56 C 0.07463 0.98165 0.98609 0.0
C57 C 0.86268 0.34171 -0.0021 0.0
C58 C 0.84375 0.32682 0.0202 0.0
C59 C 0.87886 1.00516 0.94138 0.0
C60 C 0.84339 0.92285 0.92711 0.0
C61 C 0.8382 0.8836 0.89813 0.0
C62 C 0.81261 0.88326 0.94179 0.0
C63 C 0.77688 0.80536 0.9277 0.0
C64 C 0.80331 0.80624 0.8841 0.0
C65 C 0.77265 0.76724 0.89872 0.0
C66 C 0.11816 0.09729 0.93531 0.0
C67 C 0.12948 0.28222 -0.00748 0.0
C68 C 0.32946 0.25723 0.03483 0.0
C69 C 0.36799 0.33887 0.04767 0.0
C70 C 0.37391 0.38248 0.07643 0.0
C71 C 0.4015 0.37335 0.03184 0.0
C72 C 0.44069 0.45041 0.04459 0.0
C73 C 0.41215 0.45909 0.08913 0.0
C74 C 0.44553 0.49294 0.07339 0.0
C75 C 0.08688 0.1696 0.04318 0.0
H76 H 0.86094 0.91289 0.88631 0.0
H77 H 0.81496 0.91319 0.96405 0.0
H78 H 0.79974 0.77643 0.86177 0.0
H79 H 0.74608 0.70716 0.88738 0.0
H80 H 0.34923 0.35719 0.08914 0.0
H81 H 0.39868 0.34005 0.00974 0.0
H82 H 0.41626 0.49228 0.1113 0.0
H83 H 0.47471 0.55254 0.0837 0.0
Gd84 Gd 0.09622 1.01919 0.30045 0.0
Gd85 Gd 0.14394 0.21762 0.34128 0.0
C86 C 0.28888 0.40036 0.32339 0.0
C87 C 0.42158 0.40018 0.34134 0.0
C88 C 0.31115 0.31577 0.34459 0.0
C89 C 0.26039 0.34321 0.33154 0.0
C90 C 0.39239 0.34563 0.35049 0.0
C91 C 0.36986 0.42742 0.32774 0.0
C92 C 0.23514 0.43096 0.31232 0.0
C93 C 0.15563 0.40701 0.31094 0.0
N94 N 0.18273 0.31705 0.3284 0.0
C95 C 0.13038 0.35062 0.31957 0.0
H96 H 0.06881 0.33222 0.31835 0.0
C97 C 0.32781 0.2444 0.37041 0.0
N98 N 0.28066 0.26395 0.35343 0.0
C99 C 0.40886 0.27248 0.37692 0.0
C100 C 0.44148 0.32209 0.36641 0.0
H101 H 0.30328 0.20555 0.37844 0.0
H102 H 0.39298 0.47119 0.32157 0.0
H103 H 1.0066 1.00854 0.35266 0.0
H104 H 0.25463 0.47513 0.30588 0.0
H105 H 0.11377 0.43195 0.30324 0.0
H106 H 0.48385 0.42333 0.34544 0.0
H107 H 0.07536 0.94948 0.23009 0.0
H108 H 0.76332 0.91721 0.31905 0.0
H109 H 0.87647 0.96818 0.35887 0.0
H110 H 0.73638 0.8638 0.22207 0.0
H111 H 0.44611 0.25532 0.38983 0.0
H112 H 0.50423 0.34368 0.37144 0.0
H113 H 0.71146 0.8809 0.26837 0.0
H114 H 0.96992 0.89537 0.18777 0.0
N115 N 0.97151 0.98044 0.30899 0.0
C116 C 0.82127 0.93417 0.31594 0.0
C117 C 0.88494 0.96286 0.33843 0.0
C118 C 0.83318 0.92727 0.28967 0.0
C119 C 0.90997 0.95017 0.2867 0.0
C120 C 0.95967 0.98579 0.33462 0.0
N121 N 0.9985 0.96023 0.25837 0.0
C122 C 0.92379 0.94096 0.26072 0.0
C123 C 0.95587 0.90883 0.20817 0.0
C124 C 0.87836 0.89382 0.21056 0.0
C125 C 1.0154 0.94047 0.23227 0.0
C126 C 0.86154 0.90809 0.23693 0.0
H127 H 0.83223 0.86872 0.19184 0.0
O128 O 0.10639 0.90869 0.27109 0.0
O129 O 0.20048 0.11777 0.32529 0.0
O130 O 0.14774 0.20515 0.29736 0.0
O131 O 0.09465 0.07596 0.27094 0.0
O132 O 0.20567 1.04819 0.28513 0.0
O133 O 0.14358 0.94395 0.3153 0.0
O134 O 0.07185 0.29094 0.36334 0.0
O135 O 1.04239 0.11377 0.32495 0.0
O136 O 0.13144 1.03438 0.34496 0.0
O137 O 0.15838 0.16434 0.37133 0.0
O138 O 1.02172 0.20504 0.31837 0.0
O139 O 0.17771 0.28568 0.38628 0.0
C140 C 0.24649 0.10448 0.30782 0.0
C141 C 0.78489 0.88825 0.24002 0.0
C142 C 0.77075 0.89774 0.26635 0.0
C143 C 0.14762 0.89755 0.29034 0.0
C144 C 0.22621 0.88538 0.28661 0.0
C145 C 0.25747 0.89218 0.26446 0.0
C146 C 0.27296 0.87216 0.30664 0.0
C147 C 0.34988 0.86563 0.30476 0.0
C148 C 0.33402 0.88608 0.26259 0.0
C149 C 0.38008 0.87255 0.28256 0.0
C150 C 0.12006 0.14507 0.27317 0.0
C151 C 0.98844 0.1384 0.31506 0.0
C152 C 0.11885 0.31701 0.38761 0.0
C153 C 0.13585 0.3989 0.40502 0.0
C154 C 0.08742 0.428 0.42345 0.0
C155 C 0.19978 0.44814 0.40359 0.0
C156 C 0.21436 0.52693 0.41992 0.0
C157 C 0.10227 0.50575 0.44015 0.0
C158 C 0.16495 0.55508 0.43833 0.0
C159 C 0.15167 0.09503 0.36922 0.0
H160 H 0.22337 0.90323 0.24877 0.0
H161 H 0.24899 0.86612 0.3236 0.0
H162 H 0.35769 0.89179 0.24558 0.0
H163 H 0.43911 0.86745 0.28068 0.0
H164 H 1.03802 0.39055 0.42487 0.0
H165 H 0.2377 0.42491 0.38964 0.0
H166 H 0.06435 0.52801 0.45423 0.0
H167 H 0.17311 0.61533 0.45075 0.0
Gd168 Gd 0.23185 0.16524 0.67124 0.0
Gd169 Gd 0.1846 0.97034 0.63386 0.0
C170 C 0.39601 0.88518 0.65772 0.0
C171 C 0.46512 0.876 0.62045 0.0
C172 C 0.34264 0.91651 0.62063 0.0
C173 C 0.33787 0.91045 0.64546 0.0
C174 C 0.40554 0.89735 0.60753 0.0
C175 C 0.46047 0.87012 0.64553 0.0
C176 C 0.38646 0.8731 0.68136 0.0
C177 C 0.31774 0.88078 0.69098 0.0
N178 N 0.27471 0.9253 0.65683 0.0
C179 C 0.26123 0.9042 0.6778 0.0
H180 H 0.2062 0.90297 0.68428 0.0
C181 C 0.28311 0.93497 0.58245 0.0
N182 N 0.28508 0.93904 0.60885 0.0
C183 C 0.34433 0.91722 0.56887 0.0
C184 C 0.40659 0.89965 0.58168 0.0
H185 H 0.23342 0.94234 0.57092 0.0
H186 H 0.50599 0.85181 0.65492 0.0
H187 H 0.21859 0.23977 0.62296 0.0
H188 H 0.42978 0.85394 0.69138 0.0
H189 H 0.30726 0.8668 0.70813 0.0
H190 H 0.51437 0.86256 0.61093 0.0
H191 H 0.17696 0.18931 0.73293 0.0
H192 H 0.99517 0.28833 0.61344 0.0
H193 H 0.12066 0.27839 0.59865 0.0
H194 H 0.90037 0.27209 0.69129 0.0
H195 H 0.34262 0.91568 0.54823 0.0
H196 H 0.45387 0.88561 0.57106 0.0
H197 H 0.91395 0.28648 0.64824 0.0
H198 H 0.06539 0.2145 0.75441 0.0
N199 N 0.14515 0.21299 0.64827 0.0
C200 C 1.03705 0.26803 0.62355 0.0
C201 C 0.10748 0.26206 0.61503 0.0
C202 C 1.02409 0.25315 0.64637 0.0
C203 C 0.08049 0.22652 0.65878 0.0
C204 C 0.16216 0.23731 0.6284 0.0
N205 N 0.129 0.19504 0.69511 0.0
C206 C 0.07287 0.21857 0.68311 0.0
C207 C 0.06578 0.21434 0.73406 0.0
C208 C 1.00493 0.23291 0.72095 0.0
C209 C 0.12832 0.19735 0.72116 0.0
C210 C 1.00869 0.23694 0.69551 0.0
H211 H 0.9566 0.24631 0.73104 0.0
O212 O 0.27381 0.26906 0.70949 0.0
O213 O 0.28864 0.07036 0.64748 0.0
O214 O 0.16711 1.00253 0.67867 0.0
O215 O 0.25122 0.12003 0.70338 0.0
O216 O 0.34565 0.14484 0.68806 0.0
O217 O 0.30813 0.26304 0.6713 0.0
O218 O 0.13752 0.86661 0.59579 0.0
O219 O 0.12786 0.0651 0.6575 0.0
O220 O 0.24785 0.13351 0.62642 0.0
O221 O 0.16512 1.01527 0.6015 0.0
O222 O 0.07054 0.99035 0.61702 0.0
O223 O 0.11404 0.87206 0.63528 0.0
C224 C 0.35209 0.08882 0.6659 0.0
C225 C 0.95061 0.25929 0.68233 0.0
C226 C 0.95819 0.26719 0.65777 0.0
C227 C 0.32008 0.30136 0.69839 0.0
C228 C 0.40233 0.33331 0.71344 0.0
C229 C 0.43283 0.31873 0.73599 0.0
C230 C 0.45197 0.37678 0.70424 0.0
C231 C 0.53169 0.40501 0.71698 0.0
C232 C 0.51199 0.3471 0.74889 0.0
C233 C 0.56144 0.38977 0.7394 0.0
C234 C 0.21059 0.05709 0.70245 0.0
C235 C 0.06438 1.04681 0.6391 0.0
C236 C 0.09654 0.83384 0.60812 0.0
C237 C 1.01273 0.80124 0.5953 0.0
C238 C 0.97698 0.8094 0.57185 0.0
C239 C 0.96709 0.76367 0.60754 0.0
C240 C 0.88629 0.73524 0.59699 0.0
C241 C 0.89667 0.78078 0.56112 0.0
C242 C 0.8513 0.74416 0.57366 0.0
C243 C 0.20513 0.07871 0.60256 0.0
H244 H 0.39597 0.28483 0.74346 0.0
H245 H 0.4287 0.38664 0.68648 0.0
H246 H 0.5352 0.33551 0.76617 0.0
H247 H 0.62268 0.41107 0.74962 0.0
H248 H 1.01065 0.83848 0.56199 0.0
H249 H 0.99443 0.75858 0.62591 0.0
H250 H 0.86941 0.78742 0.54314 0.0
H251 H 0.78914 0.72244 0.56503 0.0
C252 C 0.14273 0.39352 0.97345 0.0
C253 C 0.10735 0.3584 -0.01013 0.0
C254 C 0.13737 0.46848 0.97421 0.0
C255 C 0.09739 0.51979 -0.00776 0.0
C256 C 0.06352 0.48519 0.009 0.0
C257 C 0.06917 0.41067 0.00828 0.0
C258 C 0.08874 0.60625 -0.00439 0.0
C259 C 0.11449 0.65749 0.98305 0.0
C260 C 0.10586 0.74392 0.98638 0.0
C261 C 0.13824 0.77759 0.96913 0.0
C262 C 0.13278 0.85211 0.96983 0.0
C263 C 0.09661 0.90545 0.98875 0.0
H264 H 1.03947 0.77888 0.01894 0.0
C265 C 0.06258 0.87125 0.00565 0.0
C266 C 0.06762 0.7962 0.00488 0.0
H267 H 1.02946 0.90308 0.01989 0.0
H268 H 0.17722 0.36253 0.95962 0.0
H269 H 0.16676 0.48657 0.96057 0.0
H270 H 1.0323 0.5176 0.02391 0.0
H271 H 1.04411 0.3949 0.02322 0.0
H272 H 1.05518 0.63019 0.01125 0.0
H273 H 0.14788 0.63344 0.96736 0.0
H274 H 0.16806 0.74442 0.95384 0.0
H275 H 0.15657 0.86717 0.95452 0.0
C276 C 0.38231 0.13151 0.29632 0.0
C277 C 0.33623 0.11405 0.31385 0.0
C278 C 0.46342 0.1308 0.29889 0.0
C279 C 0.50313 0.11136 0.31897 0.0
C280 C 0.45648 0.09313 0.33626 0.0
C281 C 0.37542 0.09343 0.33356 0.0
C282 C 0.59167 0.11047 0.32321 0.0
C283 C 0.64176 0.11304 0.30548 0.0
C284 C 0.73028 0.11217 0.30889 0.0
C285 C 0.7672 0.10644 0.28622 0.0
C286 C 0.84856 0.11027 0.288 0.0
C287 C 0.89885 0.1188 0.31242 0.0
H288 H 0.75675 0.1257 0.35182 0.0
C289 C 0.8626 0.12412 0.33529 0.0
C290 C 0.78032 0.12014 0.33351 0.0
H291 H 0.89843 0.13393 0.35502 0.0
H292 H 0.35509 0.1453 0.28017 0.0
H293 H 0.49468 0.14565 0.28496 0.0
H294 H 0.4827 0.07714 0.35192 0.0
H295 H 0.34294 0.0762 0.34677 0.0
H296 H 0.61604 0.10573 0.34203 0.0
H297 H 0.61605 0.11496 0.28624 0.0
H298 H 0.7329 0.10056 0.2668 0.0
H299 H 0.87279 0.10821 0.27009 0.0
C300 C 0.8675 0.64883 0.62053 0.0
C301 C 0.83919 0.69867 0.61114 0.0
C302 C 0.82691 0.6192 0.63602 0.0
C303 C 0.75626 0.63799 0.64213 0.0
C304 C 0.72753 0.6871 0.63242 0.0
C305 C 0.76838 0.71698 0.61699 0.0
C306 C 0.71217 0.6097 0.65924 0.0
C307 C 0.71951 0.54706 0.66262 0.0
C308 C 0.67345 0.51687 0.67884 0.0
C309 C 0.69954 0.46454 0.68732 0.0
C310 C 0.65513 0.43032 0.70077 0.0
C311 C 0.58338 0.44749 0.70583 0.0
H312 H 0.57872 0.57379 0.6779 0.0
C313 C 0.55824 0.50136 0.69808 0.0
C314 C 0.60241 0.53538 0.68458 0.0
H315 H 0.50332 0.516 0.70189 0.0
H316 H 0.92182 0.63346 0.61622 0.0
H317 H 0.85262 0.58343 0.64368 0.0
H318 H 0.67354 0.70292 0.63698 0.0
H319 H 0.74575 0.75616 0.61038 0.0
H320 H 0.67151 0.64171 0.66897 0.0
H321 H 0.76016 0.51511 0.65285 0.0
H322 H 0.75379 0.44891 0.68304 0.0
H323 H 0.67548 0.38828 0.70621 0.0
C324 C 0.94827 0.05639 0.6655 0.0
C325 C 0.98209 0.05881 0.64298 0.0
C326 C 0.86842 0.06017 0.66631 0.0
C327 C 0.81836 0.06565 0.64443 0.0
C328 C 0.85296 0.06747 0.62208 0.0
C329 C 0.9317 0.06337 0.62124 0.0
C330 C 0.73101 0.06913 0.64307 0.0
C331 C 0.68542 0.06606 0.66191 0.0
C332 C 0.59812 0.06973 0.66059 0.0
C333 C 0.56404 0.06972 0.68325 0.0
C334 C 0.48535 0.07398 0.6841 0.0
C335 C 0.43444 0.07681 0.66207 0.0
H336 H 0.56928 0.07384 0.62037 0.0
C337 C 0.46772 0.07734 0.63923 0.0
C338 C 0.54756 0.07349 0.63841 0.0
H339 H 0.43227 0.08158 0.62204 0.0
H340 H 0.98329 1.05068 0.68241 0.0
H341 H 0.84625 0.05825 0.68408 0.0
H342 H 0.81832 0.07139 0.60465 0.0
H343 H 0.95352 0.06379 0.60318 0.0
H344 H 0.70268 0.0745 0.62489 0.0
H345 H 0.71379 0.06087 0.68013 0.0
H346 H 0.59907 0.06714 0.7009 0.0
H347 H 0.46395 0.07498 0.7024 0.0
C348 C 0.6687 0.71388 0.93168 0.0
C349 C 0.74258 0.7644 0.94315 0.0
C350 C 0.63518 0.67689 0.94652 0.0
C351 C 0.67529 0.68913 0.97313 0.0
C352 C 0.74914 0.7397 0.98454 0.0
C353 C 0.78256 0.77679 0.96972 0.0
C354 C 0.64117 0.65307 -0.00982 0.0
C355 C 0.58338 0.58942 0.97935 0.0
C356 C 0.54848 0.55461 -0.00337 0.0
C357 C 0.47349 0.50606 0.98566 0.0
C358 C 0.43835 0.47226 0.00117 0.0
C359 C 0.4777 0.48607 0.02801 0.0
H360 H 0.64735 0.60179 0.0322 0.0
C361 C 0.55316 0.53369 0.03885 0.0
C362 C 0.5884 0.56728 0.02332 0.0
H363 H 0.58562 0.54397 0.05921 0.0
H364 H 0.63582 0.70436 0.91149 0.0
H365 H 0.57713 0.64055 0.93727 0.0
H366 H 0.78127 0.75054 0.00502 0.0
H367 H 0.8399 0.81492 0.97902 0.0
H368 H 0.66533 0.68072 0.01258 0.0
H369 H 0.55903 0.56177 0.95696 0.0
H370 H 0.44154 0.4948 0.9651 0.0
H371 H 0.37995 0.4361 -0.00769 0.0
C372 C 0.31766 0.64917 0.43844 0.0
C373 C 0.27666 0.57979 0.41605 0.0
C374 C 0.36786 0.70278 0.43356 0.0
C375 C 0.37947 0.6874 0.40639 0.0
C376 C 0.3419 0.6163 0.38433 0.0
C377 C 0.29087 0.56362 0.38912 0.0
C378 C 0.41738 0.75016 0.40039 0.0
C379 C 0.44838 0.7375 0.37755 0.0
C380 C 0.44593 0.78478 0.36178 0.0
C381 C 0.42369 0.85436 0.37214 0.0
C382 C 0.39799 0.88421 0.35379 0.0
C383 C 0.39541 0.84598 0.32498 0.0
H384 H 0.46986 0.69888 0.32498 0.0
C385 C 0.42693 0.78213 0.31526 0.0
C386 C 0.45205 0.75187 0.33354 0.0
H387 H 0.42603 0.7519 0.29313 0.0
H388 H 0.30909 0.66319 0.45957 0.0
H389 H 0.39529 0.75747 0.45084 0.0
H390 H 0.34671 0.60308 0.36288 0.0
H391 H 0.25864 0.51215 0.37131 0.0
H392 H 0.40773 0.80534 0.41274 0.0
H393 H 0.46149 0.68263 0.36686 0.0
H394 H 0.42115 0.88386 0.39391 0.0
H395 H 0.37583 0.93484 0.36184 0.0
C396 C 0.10305 0.21537 0.24313 0.0
C397 C 0.12131 0.15284 0.24662 0.0
C398 C 0.0977 0.21763 0.21688 0.0
C399 C 0.11083 0.15729 0.19373 0.0
C400 C 0.13146 0.09631 0.19768 0.0
C401 C 0.1373 0.09444 0.22378 0.0
C402 C 0.09944 0.15259 0.16475 0.0
C403 C 0.10324 0.21238 0.15843 0.0
C404 C 0.09408 0.20325 0.12887 0.0
C405 C 0.13689 0.25937 0.123 0.0
C406 C 0.13314 0.24958 0.09522 0.0
C407 C 0.08521 0.18402 0.07274 0.0
H408 H 1.00833 0.09552 0.11017 0.0
C409 C 1.03974 0.12947 0.07874 0.0
C410 C 1.04403 0.13895 0.10643 0.0
H411 H 1.0025 0.07809 0.06201 0.0
H412 H 0.08979 0.26089 0.26028 0.0
H413 H 0.0805 0.26513 0.21461 0.0
H414 H 0.1426 1.04933 0.18039 0.0
H415 H 0.15433 1.04687 0.22602 0.0
H416 H 0.09113 0.09661 0.14775 0.0
H417 H 0.11886 0.26946 0.17516 0.0
H418 H 0.17526 0.30983 0.13986 0.0
H419 H 0.16881 0.29282 0.09136 0.0
C420 C 0.18336 0.14873 0.42189 0.0
C421 C 0.1644 0.08526 0.39566 0.0
C422 C 0.18983 0.13999 0.44685 0.0
C423 C 0.17814 0.06735 0.44632 0.0
C424 C 0.16037 1.00401 0.42011 0.0
C425 C 0.15384 1.01274 0.39511 0.0
C426 C 0.17919 0.0551 0.47234 0.0
C427 C 0.21333 0.10894 0.49848 0.0
C428 C 0.21099 0.09804 0.52462 0.0
C429 C 0.26659 0.14728 0.54924 0.0
C430 C 0.26502 0.14098 0.57447 0.0
C431 C 0.2071 0.08572 0.57583 0.0
H432 H 0.10746 1.00497 0.50785 0.0
C433 C 0.15121 1.03653 0.55126 0.0
C434 C 0.1529 1.04267 0.52599 0.0
H435 H 0.10542 0.99361 0.55159 0.0
H436 H 0.19155 0.20555 0.42324 0.0
H437 H 0.20151 0.19046 0.46636 0.0
H438 H 0.15058 0.94729 0.41894 0.0
H439 H 0.13902 0.96248 0.37536 0.0
H440 H 0.15184 0.99872 0.46956 0.0
H441 H 0.2466 0.16324 0.5011 0.0
H442 H 0.31174 0.19082 0.54896 0.0
H443 H 0.30944 0.17937 0.59289 0.0
C444 C 0.14517 1.00464 0.73245 0.0
C445 C 0.20787 1.05244 0.72952 0.0
C446 C 0.1403 1.00636 0.75884 0.0
C447 C 0.19845 0.05588 0.78286 0.0
C448 C 0.26225 0.1014 0.77952 0.0
C449 C 0.2668 0.09998 0.75332 0.0
C450 C 0.19574 0.06374 0.81188 0.0
C451 C 0.13266 1.03646 0.81977 0.0
C452 C 0.13145 1.05195 0.84961 0.0
C453 C 0.07917 1.00153 0.85548 0.0
C454 C 0.07519 1.01562 0.88324 0.0
C455 C 0.12309 0.08094 0.90582 0.0
H456 H 0.21713 0.16004 0.86877 0.0
C457 C 0.17428 0.13209 0.89992 0.0
C458 C 0.17847 0.1179 0.87225 0.0
H459 H 0.21022 0.18421 0.91667 0.0
H460 H 0.09883 0.96733 0.71448 0.0
H461 H 0.09083 0.96905 0.76016 0.0
H462 H 0.30833 0.13971 0.79743 0.0
H463 H 0.31627 0.13716 0.7518 0.0
H464 H 0.24872 0.09604 0.82778 0.0
H465 H 0.07981 1.00187 0.80421 0.0
H466 H 1.04138 0.95086 0.83852 0.0
H467 H 1.03448 0.97532 0.88696 0.0
loop_
_geom_bond_atom_site_label_1
_geom_bond_atom_site_label_2
_geom_bond_distance
_geom_bond_site_symmetry_2
_ccdc_geom_bond_type
Gd0 N31 2.661 1_556 S
Gd0 N37 2.601 . S
Gd0 O44 2.545 1_545 S
Gd0 O45 2.606 1_656 S
Gd0 O47 2.429 . S
Gd0 O48 2.545 1_545 S
Gd0 O49 2.412 1_546 S
Gd0 O51 2.365 1_556 S
Gd0 O52 2.324 1_556 S
Gd0 C59 2.828 1_545 S
Gd1 N10 2.661 1_554 S
Gd1 N14 2.601 . S
Gd1 O45 2.362 . S
Gd1 O46 2.324 1_554 S
Gd1 O50 2.545 . S
Gd1 O51 2.609 1_455 S
Gd1 O53 2.429 . S
Gd1 O54 2.545 . S
Gd1 O55 2.412 1_554 S
Gd1 C68 2.828 . S
C2 C5 1.417 1_566 S
C2 C7 1.431 1_556 S
C2 C8 1.412 . S
C3 C6 1.437 . S
C3 C7 1.317 1_545 S
C3 H22 0.929 . S
C4 C5 1.426 . S
C4 C6 1.413 . S
C4 N14 1.359 . S
C5 C2 1.417 1_544 S
C5 C4 1.426 . S
C5 N10 1.350 1_554 S
C6 C3 1.437 . S
C6 C4 1.413 . S
C6 C16 1.391 . S
C7 C2 1.431 1_554 S
C7 C3 1.317 1_565 S
C7 H18 0.930 . S
C8 C2 1.412 . S
C8 C9 1.355 . S
C8 H20 0.930 . S
C9 C8 1.355 . S
C9 C11 1.402 1_565 S
C9 H21 0.930 . S
N10 Gd1 2.661 1_556 S
N10 C5 1.350 1_556 S
N10 C11 1.307 . S
C11 C9 1.402 1_545 S
C11 N10 1.307 . S
C11 H12 0.930 . S
H12 C11 0.930 . S
C13 N14 1.334 . S
C13 C15 1.394 . S
C13 H17 0.930 . S
N14 Gd1 2.601 . S
N14 C4 1.359 . S
N14 C13 1.334 . S
C15 C13 1.394 . S
C15 C16 1.359 . S
C15 H27 0.930 . S
C16 C6 1.391 . S
C16 C15 1.359 . S
C16 H28 0.929 . S
H17 C13 0.930 . S
H18 C7 0.930 . S
H19 C36 0.930 . S
H20 C8 0.930 . S
H21 C9 0.930 . S
H22 C3 0.929 . S
H23 C41 0.930 1_565 S
H24 C32 0.930 . S
H25 C33 0.930 . S
H26 C57 0.929 . S
H27 C15 0.930 . S
H28 C16 0.929 . S
H29 C58 0.930 . S
H30 C39 0.930 1_565 S
N31 Gd0 2.661 1_554 S
N31 C35 1.350 1_554 S
N31 C36 1.307 . S
C32 H24 0.930 . S
C32 C33 1.355 . S
C32 C34 1.412 . S
C33 H25 0.930 . S
C33 C32 1.355 . S
C33 C36 1.402 . S
C34 C32 1.412 . S
C34 C35 1.417 1_554 S
C34 C58 1.431 1_554 S
C35 N31 1.350 1_556 S
C35 C34 1.417 1_556 S
C35 C38 1.426 . S
C36 H19 0.930 . S
C36 N31 1.307 . S
C36 C33 1.402 . S
N37 Gd0 2.601 . S
N37 C38 1.359 . S
N37 C41 1.334 . S
C38 C35 1.426 . S
C38 N37 1.359 . S
C38 C42 1.413 . S
C39 H30 0.930 1_545 S
C39 C40 1.359 . S
C39 C41 1.394 . S
C40 C39 1.359 . S
C40 C42 1.391 . S
C40 H43 0.929 . S
C41 H23 0.930 1_545 S
C41 N37 1.334 . S
C41 C39 1.394 . S
C42 C38 1.413 . S
C42 C40 1.391 . S
C42 C57 1.437 . S
H43 C40 0.929 . S
O44 Gd0 2.545 1_565 S
O44 C59 1.258 . S
O45 Gd0 2.606 1_454 S
O45 Gd1 2.362 . S
O45 C56 1.284 1_444 S
O46 Gd1 2.324 1_556 S
O46 C66 1.254 . S
O47 Gd0 2.429 . S
O47 C66 1.268 1_655 S
O48 Gd0 2.545 1_565 S
O48 C56 1.250 . S
O49 Gd0 2.412 1_564 S
O49 C59 1.252 1_554 S
O50 Gd1 2.545 . S
O50 C68 1.258 . S
O51 Gd0 2.365 1_554 S
O51 Gd1 2.609 1_655 S
O51 C67 1.281 1_655 S
O52 Gd0 2.324 1_554 S
O52 C75 1.254 . S
O53 Gd1 2.429 . S
O53 C75 1.268 1_455 S
O54 Gd1 2.545 . S
O54 C67 1.250 . S
O55 Gd1 2.412 1_556 S
O55 C68 1.252 1_556 S
C56 O45 1.284 1_666 S
C56 O48 1.250 . S
C57 H26 0.929 . S
C57 C42 1.437 . S
C57 C58 1.317 . S
C58 H29 0.930 . S
C58 C34 1.431 1_556 S
C58 C57 1.317 . S
C59 Gd0 2.828 1_565 S
C59 O44 1.258 . S
C59 O49 1.252 1_556 S
C59 C60 1.497 . S
C60 C59 1.497 . S
C60 C61 1.395 . S
C60 C62 1.380 . S
C61 C60 1.395 . S
C61 C64 1.398 . S
C61 H76 0.930 . S
C62 C60 1.380 . S
C62 C63 1.391 . S
C62 H77 0.930 1_556 S
C63 C62 1.391 . S
C63 C65 1.387 . S
C64 C61 1.398 . S
C64 C65 1.380 . S
C64 H78 0.930 . S
C65 C63 1.387 . S
C65 C64 1.380 . S
C65 H79 0.930 . S
C66 O46 1.254 . S
C66 O47 1.268 1_455 S
C67 O51 1.281 1_455 S
C67 O54 1.250 . S
C68 Gd1 2.828 . S
C68 O50 1.258 . S
C68 O55 1.252 1_554 S
C68 C69 1.497 . S
C69 C68 1.497 . S
C69 C70 1.395 . S
C69 C71 1.380 . S
C70 C69 1.395 . S
C70 C73 1.398 . S
C70 H80 0.930 . S
C71 C69 1.380 . S
C71 C72 1.391 . S
C71 H81 0.930 1_554 S
C72 C71 1.391 . S
C72 C74 1.387 . S
C73 C70 1.398 . S
C73 C74 1.380 . S
C73 H82 0.930 . S
C74 C72 1.387 . S
C74 C73 1.380 . S
C74 H83 0.930 . S
C75 O52 1.254 . S
C75 O53 1.268 1_655 S
H76 C61 0.930 . S
H77 C62 0.930 1_554 S
H78 C64 0.930 . S
H79 C65 0.930 . S
H80 C70 0.930 . S
H81 C71 0.930 1_556 S
H82 C73 0.930 . S
H83 C74 0.930 . S
Gd84 N115 2.661 1_455 S
Gd84 N121 2.601 1_455 S
Gd84 O128 2.545 . S
Gd84 O129 2.606 1_565 S
Gd84 O131 2.429 1_565 S
Gd84 O132 2.550 1_565 S
Gd84 O133 2.412 . S
Gd84 O135 2.362 1_565 S
Gd84 O136 2.324 1_565 S
Gd84 C143 2.828 . S
Gd85 N94 2.661 . S
Gd85 N98 2.601 . S
Gd85 O129 2.362 . S
Gd85 O130 2.324 . S
Gd85 O134 2.545 . S
Gd85 O135 2.606 . S
Gd85 O137 2.429 . S
Gd85 O138 2.545 . S
Gd85 O139 2.412 . S
Gd85 C152 2.828 . S
C86 C89 1.417 . S
C86 C91 1.431 . S
C86 C92 1.412 . S
C87 C90 1.437 . S
C87 C91 1.317 . S
C87 H106 0.929 . S
C88 C89 1.426 . S
C88 C90 1.413 . S
C88 N98 1.359 . S
C89 C86 1.417 . S
C89 C88 1.426 . S
C89 N94 1.350 . S
C90 C87 1.437 . S
C90 C88 1.413 . S
C90 C100 1.391 . S
C91 C86 1.431 . S
C91 C87 1.317 . S
C91 H102 0.930 . S
C92 C86 1.412 . S
C92 C93 1.355 . S
C92 H104 0.930 . S
C93 C92 1.355 . S
C93 C95 1.402 . S
C93 H105 0.930 . S
N94 Gd85 2.661 . S
N94 C89 1.350 . S
N94 C95 1.307 . S
C95 C93 1.402 . S
C95 N94 1.307 . S
C95 H96 0.930 . S
H96 C95 0.930 . S
C97 N98 1.334 . S
C97 C99 1.394 . S
C97 H101 0.930 . S
N98 Gd85 2.601 . S
N98 C88 1.359 . S
N98 C97 1.334 . S
C99 C97 1.394 . S
C99 C100 1.359 . S
C99 H111 0.930 . S
C100 C90 1.391 . S
C100 C99 1.359 . S
C100 H112 0.929 . S
H101 C97 0.930 . S
H102 C91 0.930 . S
H103 C120 0.930 1_445 S
H104 C92 0.930 . S
H105 C93 0.930 . S
H106 C87 0.929 . S
H107 C125 0.930 1_455 S
H108 C116 0.930 . S
H109 C117 0.930 . S
H110 C141 0.929 . S
H111 C99 0.930 . S
H112 C100 0.929 . S
H113 C142 0.930 . S
H114 C123 0.930 . S
N115 Gd84 2.661 1_655 S
N115 C119 1.350 . S
N115 C120 1.307 . S
C116 H108 0.930 . S
C116 C117 1.355 . S
C116 C118 1.412 . S
C117 H109 0.930 . S
C117 C116 1.355 . S
C117 C120 1.402 . S
C118 C116 1.412 . S
C118 C119 1.417 . S
C118 C142 1.431 . S
C119 N115 1.350 . S
C119 C118 1.417 . S
C119 C122 1.426 . S
C120 H103 0.930 1_665 S
C120 N115 1.307 . S
C120 C117 1.402 . S
N121 Gd84 2.601 1_655 S
N121 C122 1.359 . S
N121 C125 1.334 . S
C122 C119 1.426 . S
C122 N121 1.359 . S
C122 C126 1.413 . S
C123 H114 0.930 . S
C123 C124 1.359 . S
C123 C125 1.394 . S
C124 C123 1.359 . S
C124 C126 1.391 . S
C124 H127 0.929 . S
C125 H107 0.930 1_655 S
C125 N121 1.334 . S
C125 C123 1.394 . S
C126 C122 1.413 . S
C126 C124 1.391 . S
C126 C141 1.437 . S
H127 C124 0.929 . S
O128 Gd84 2.545 . S
O128 C143 1.258 . S
O129 Gd84 2.606 1_545 S
O129 Gd85 2.362 . S
O129 C140 1.284 . S
O130 Gd85 2.324 . S
O130 C150 1.254 . S
O131 Gd84 2.429 1_545 S
O131 C150 1.268 . S
O132 Gd84 2.550 1_545 S
O132 C140 1.266 . S
O133 Gd84 2.412 . S
O133 C143 1.252 . S
O134 Gd85 2.545 . S
O134 C152 1.258 . S
O135 Gd84 2.362 1_545 S
O135 Gd85 2.606 . S
O135 C151 1.284 . S
O136 Gd84 2.324 1_545 S
O136 C159 1.254 . S
O137 Gd85 2.429 . S
O137 C159 1.268 . S
O138 Gd85 2.545 . S
O138 C151 1.250 . S
O139 Gd85 2.412 . S
O139 C152 1.252 . S
C140 O129 1.284 . S
C140 O132 1.266 . S
C141 H110 0.929 . S
C141 C126 1.437 . S
C141 C142 1.317 . S
C142 H113 0.930 . S
C142 C118 1.431 . S
C142 C141 1.317 . S
C143 Gd84 2.828 . S
C143 O128 1.258 . S
C143 O133 1.252 . S
C143 C144 1.497 . S
C144 C143 1.497 . S
C144 C145 1.395 . S
C144 C146 1.380 . S
C145 C144 1.395 . S
C145 C148 1.398 . S
C145 H160 0.930 . S
C146 C144 1.380 . S
C146 C147 1.391 . S
C146 H161 0.930 . S
C147 C146 1.391 . S
C147 C149 1.387 . S
C148 C145 1.398 . S
C148 C149 1.380 . S
C148 H162 0.930 . S
C149 C147 1.387 . S
C149 C148 1.380 . S
C149 H163 0.930 . S
C150 O130 1.254 . S
C150 O131 1.268 . S
C151 O135 1.284 . S
C151 O138 1.250 . S
C152 Gd85 2.828 . S
C152 O134 1.258 . S
C152 O139 1.252 . S
C152 C153 1.497 . S
C153 C152 1.497 . S
C153 C154 1.395 . S
C153 C155 1.380 . S
C154 C153 1.395 . S
C154 C157 1.398 . S
C154 H164 0.930 . S
C155 C153 1.380 . S
C155 C156 1.391 . S
C155 H165 0.930 . S
C156 C155 1.391 . S
C156 C158 1.387 . S
C157 C154 1.398 . S
C157 C158 1.380 . S
C157 H166 0.930 . S
C158 C156 1.387 . S
C158 C157 1.380 . S
C158 H167 0.930 . S
C159 O136 1.254 . S
C159 O137 1.268 . S
H160 C145 0.930 . S
H161 C146 0.930 . S
H162 C148 0.930 . S
H163 C149 0.930 . S
H164 C154 0.930 . S
H165 C155 0.930 . S
H166 C157 0.930 . S
H167 C158 0.930 . S
Gd168 N199 2.661 . S
Gd168 N205 2.601 . S
Gd168 O212 2.545 . S
Gd168 O213 2.606 1_545 S
Gd168 O215 2.429 . S
Gd168 O216 2.545 . S
Gd168 O217 2.412 . S
Gd168 O219 2.362 . S
Gd168 O220 2.324 . S
Gd168 C227 2.828 . S
Gd169 N178 2.661 . S
Gd169 N182 2.601 . S
Gd169 O213 2.362 . S
Gd169 O214 2.324 . S
Gd169 O218 2.545 . S
Gd169 O219 2.606 1_565 S
Gd169 O221 2.429 . S
Gd169 O222 2.545 . S
Gd169 O223 2.412 . S
Gd169 C236 2.828 . S
C170 C173 1.417 . S
C170 C175 1.431 . S
C170 C176 1.412 . S
C171 C174 1.437 . S
C171 C175 1.317 . S
C171 H190 0.929 . S
C172 C173 1.426 . S
C172 C174 1.413 . S
C172 N182 1.359 . S
C173 C170 1.417 . S
C173 C172 1.426 . S
C173 N178 1.350 . S
C174 C171 1.437 . S
C174 C172 1.413 . S
C174 C184 1.391 . S
C175 C170 1.431 . S
C175 C171 1.317 . S
C175 H186 0.930 . S
C176 C170 1.412 . S
C176 C177 1.355 . S
C176 H188 0.930 . S
C177 C176 1.355 . S
C177 C179 1.402 . S
C177 H189 0.930 . S
N178 Gd169 2.661 . S
N178 C173 1.350 . S
N178 C179 1.307 . S
C179 C177 1.402 . S
C179 N178 1.307 . S
C179 H180 0.930 . S
H180 C179 0.930 . S
C181 N182 1.334 . S
C181 C183 1.394 . S
C181 H185 0.930 . S
N182 Gd169 2.601 . S
N182 C172 1.359 . S
N182 C181 1.334 . S
C183 C181 1.394 . S
C183 C184 1.359 . S
C183 H195 0.930 . S
C184 C174 1.391 . S
C184 C183 1.359 . S
C184 H196 0.929 . S
H185 C181 0.930 . S
H186 C175 0.930 . S
H187 C204 0.930 . S
H188 C176 0.930 . S
H189 C177 0.930 . S
H190 C171 0.929 . S
H191 C209 0.930 . S
H192 C200 0.930 1_655 S
H193 C201 0.930 . S
H194 C225 0.929 . S
H195 C183 0.930 . S
H196 C184 0.929 . S
H197 C226 0.930 1_655 S
H198 C207 0.930 . S
N199 Gd168 2.661 . S
N199 C203 1.350 . S
N199 C204 1.307 . S
C200 H192 0.930 1_455 S
C200 C201 1.355 . S
C200 C202 1.412 . S
C201 H193 0.930 . S
C201 C200 1.355 . S
C201 C204 1.402 . S
C202 C200 1.412 . S
C202 C203 1.417 . S
C202 C226 1.431 . S
C203 N199 1.350 . S
C203 C202 1.417 . S
C203 C206 1.426 . S
C204 H187 0.930 . S
C204 N199 1.307 . S
C204 C201 1.402 . S
N205 Gd168 2.601 . S
N205 C206 1.359 . S
N205 C209 1.334 . S
C206 C203 1.426 . S
C206 N205 1.359 . S
C206 C210 1.413 . S
C207 H198 0.930 . S
C207 C208 1.359 . S
C207 C209 1.394 . S
C208 C207 1.359 . S
C208 C210 1.391 . S
C208 H211 0.929 . S
C209 H191 0.930 . S
C209 N205 1.334 . S
C209 C207 1.394 . S
C210 C206 1.413 . S
C210 C208 1.391 . S
C210 C225 1.437 . S
H211 C208 0.929 . S
O212 Gd168 2.545 . S
O212 C227 1.258 . S
O213 Gd168 2.606 1_565 S
O213 Gd169 2.362 . S
O213 C224 1.284 1_565 S
O214 Gd169 2.324 . S
O214 C234 1.254 1_565 S
O215 Gd168 2.429 . S
O215 C234 1.268 . S
O216 Gd168 2.545 . S
O216 C224 1.250 . S
O217 Gd168 2.412 . S
O217 C227 1.252 . S
O218 Gd169 2.545 . S
O218 C236 1.258 . S
O219 Gd168 2.362 . S
O219 Gd169 2.606 1_545 S
O219 C235 1.284 1_545 S
O220 Gd168 2.324 . S
O220 C243 1.254 1_545 S
O221 Gd169 2.429 . S
O221 C243 1.268 . S
O222 Gd169 2.545 . S
O222 C235 1.250 . S
O223 Gd169 2.412 . S
O223 C236 1.252 . S
C224 O213 1.284 1_545 S
C224 O216 1.250 . S
C225 H194 0.929 . S
C225 C210 1.437 . S
C225 C226 1.317 . S
C226 H197 0.930 1_455 S
C226 C202 1.431 . S
C226 C225 1.317 . S
C227 Gd168 2.828 . S
C227 O212 1.258 . S
C227 O217 1.252 . S
C227 C228 1.497 . S
C228 C227 1.497 . S
C228 C229 1.395 . S
C228 C230 1.380 . S
C229 C228 1.395 . S
C229 C232 1.398 . S
C229 H244 0.930 . S
C230 C228 1.380 . S
C230 C231 1.391 . S
C230 H245 0.930 . S
C231 C230 1.391 . S
C231 C233 1.387 . S
C232 C229 1.398 . S
C232 C233 1.380 . S
C232 H246 0.930 . S
C233 C231 1.387 . S
C233 C232 1.380 . S
C233 H247 0.930 . S
C234 O214 1.254 1_545 S
C234 O215 1.268 . S
C235 O219 1.284 1_565 S
C235 O222 1.250 . S
C236 Gd169 2.828 . S
C236 O218 1.258 . S
C236 O223 1.252 . S
C236 C237 1.497 1_455 S
C237 C236 1.497 1_655 S
C237 C238 1.395 . S
C237 C239 1.380 . S
C238 C237 1.395 . S
C238 C241 1.398 . S
C238 H248 0.930 . S
C239 C237 1.380 . S
C239 C240 1.391 . S
C239 H249 0.930 . S
C240 C239 1.391 . S
C240 C242 1.387 . S
C241 C238 1.398 . S
C241 C242 1.380 . S
C241 H250 0.930 . S
C242 C240 1.387 . S
C242 C241 1.380 . S
C242 H251 0.930 . S
C243 O220 1.254 1_565 S
C243 O221 1.268 . S
H244 C229 0.930 . S
H245 C230 0.930 . S
H246 C232 0.930 . S
H247 C233 0.930 . S
H248 C238 0.930 . S
H249 C239 0.930 . S
H250 C241 0.930 . S
H251 C242 0.930 . S
C252 C253 1.386 1_556 S
C252 C254 1.383 . S
C252 H268 0.951 . S
C253 C252 1.386 1_554 S
C253 C257 1.383 1_655 S
C254 C252 1.383 . S
C254 C255 1.402 1_556 S
C254 H269 0.951 . S
C255 C254 1.402 1_554 S
C255 C256 1.375 1_655 S
C255 C258 1.481 . S
C256 C255 1.375 1_455 S
C256 C257 1.367 . S
C256 H270 0.951 . S
C257 C253 1.383 1_455 S
C257 C256 1.367 . S
C257 H271 0.950 . S
C258 C255 1.481 . S
C258 C259 1.297 1_554 S
C258 H272 0.950 1_655 S
C259 C258 1.297 1_556 S
C259 C260 1.479 1_556 S
C259 H273 0.950 . S
C260 C259 1.479 1_554 S
C260 C261 1.375 1_554 S
C260 C266 1.404 1_655 S
C261 C260 1.375 1_556 S
C261 C262 1.369 . S
C261 H274 0.950 . S
C262 C261 1.369 . S
C262 C263 1.377 1_656 S
C262 H275 0.951 . S
C263 C262 1.377 1_454 S
C263 C265 1.417 . S
H264 C266 0.949 . S
C265 C263 1.417 . S
C265 C266 1.385 . S
C265 H267 0.950 . S
C266 C260 1.404 1_455 S
C266 H264 0.949 . S
C266 C265 1.385 . S
H267 C265 0.950 . S
H268 C252 0.951 . S
H269 C254 0.951 . S
H270 C256 0.951 . S
H271 C257 0.950 . S
H272 C258 0.950 1_455 S
H273 C259 0.950 . S
H274 C261 0.950 . S
H275 C262 0.951 . S
C276 C277 1.386 . S
C276 C278 1.383 . S
C276 H292 0.951 1_545 S
C277 C276 1.386 . S
C277 C281 1.383 . S
C278 C276 1.383 . S
C278 C279 1.402 . S
C278 H293 0.951 . S
C279 C278 1.402 . S
C279 C280 1.375 . S
C279 C282 1.481 . S
C280 C279 1.375 . S
C280 C281 1.367 . S
C280 H294 0.951 . S
C281 C277 1.383 . S
C281 C280 1.367 . S
C281 H295 0.950 . S
C282 C279 1.481 . S
C282 C283 1.297 . S
C282 H296 0.950 . S
C283 C282 1.297 . S
C283 C284 1.479 . S
C283 H297 0.950 . S
C284 C283 1.479 . S
C284 C285 1.375 . S
C284 C290 1.404 . S
C285 C284 1.375 . S
C285 C286 1.369 . S
C285 H298 0.950 1_545 S
C286 C285 1.369 . S
C286 C287 1.392 . S
C286 H299 0.951 . S
C287 C286 1.392 . S
C287 C289 1.384 . S
H288 C290 0.949 . S
C289 C287 1.384 . S
C289 C290 1.385 . S
C289 H291 0.950 . S
C290 C284 1.404 . S
C290 H288 0.949 . S
C290 C289 1.385 . S
H291 C289 0.950 . S
H292 C276 0.951 1_565 S
H293 C278 0.951 . S
H294 C280 0.951 . S
H295 C281 0.950 . S
H296 C282 0.950 . S
H297 C283 0.950 . S
H298 C285 0.950 1_565 S
H299 C286 0.951 . S
C300 C301 1.386 . S
C300 C302 1.383 . S
C300 H316 0.951 . S
C301 C300 1.386 . S
C301 C305 1.383 . S
C302 C300 1.383 . S
C302 C303 1.402 . S
C302 H317 0.951 . S
C303 C302 1.402 . S
C303 C304 1.375 . S
C303 C306 1.481 . S
C304 C303 1.375 . S
C304 C305 1.367 . S
C304 H318 0.951 . S
C305 C301 1.383 . S
C305 C304 1.367 . S
C305 H319 0.950 . S
C306 C303 1.481 . S
C306 C307 1.297 . S
C306 H320 0.950 . S
C307 C306 1.297 . S
C307 C308 1.479 . S
C307 H321 0.950 . S
C308 C307 1.479 . S
C308 C309 1.375 . S
C308 C314 1.404 . S
C309 C308 1.375 . S
C309 C310 1.369 . S
C309 H322 0.950 . S
C310 C309 1.369 . S
C310 C311 1.392 . S
C310 H323 0.951 . S
C311 C310 1.392 . S
C311 C313 1.384 . S
H312 C314 0.949 . S
C313 C311 1.384 . S
C313 C314 1.385 . S
C313 H315 0.950 . S
C314 C308 1.404 . S
C314 H312 0.949 . S
C314 C313 1.385 . S
H315 C313 0.950 . S
H316 C300 0.951 . S
H317 C302 0.951 . S
H318 C304 0.951 . S
H319 C305 0.950 . S
H320 C306 0.950 . S
H321 C307 0.950 . S
H322 C309 0.950 . S
H323 C310 0.951 . S
C324 C325 1.386 . S
C324 C326 1.383 . S
C324 H340 0.951 . S
C325 C324 1.386 . S
C325 C329 1.383 1_545 S
C326 C324 1.383 . S
C326 C327 1.402 . S
C326 H341 0.951 . S
C327 C326 1.402 . S
C327 C328 1.375 1_545 S
C327 C330 1.481 . S
C328 C327 1.375 1_565 S
C328 C329 1.367 . S
C328 H342 0.951 . S
C329 C325 1.383 1_565 S
C329 C328 1.367 . S
C329 H343 0.950 . S
C330 C327 1.481 . S
C330 C331 1.297 . S
C330 H344 0.950 1_545 S
C331 C330 1.297 . S
C331 C332 1.479 . S
C331 H345 0.950 . S
C332 C331 1.479 . S
C332 C333 1.375 . S
C332 C338 1.404 . S
C333 C332 1.375 . S
C333 C334 1.369 . S
C333 H346 0.950 . S
C334 C333 1.369 . S
C334 C335 1.392 . S
C334 H347 0.951 . S
C335 C334 1.392 . S
C335 C337 1.384 1_545 S
H336 C338 0.950 1_565 S
C337 C335 1.384 1_565 S
C337 C338 1.385 1_565 S
C337 H339 0.950 . S
C338 C332 1.404 . S
C338 H336 0.950 1_545 S
C338 C337 1.385 1_545 S
H339 C337 0.950 . S
H340 C324 0.951 . S
H341 C326 0.951 . S
H342 C328 0.951 . S
H343 C329 0.950 . S
H344 C330 0.950 1_565 S
H345 C331 0.950 . S
H346 C333 0.950 . S
H347 C334 0.951 . S
C348 C349 1.386 . S
C348 C350 1.383 . S
C348 H364 0.951 . S
C349 C348 1.386 . S
C349 C353 1.383 1_554 S
C350 C348 1.383 . S
C350 C351 1.402 1_554 S
C350 H365 0.951 . S
C351 C350 1.402 1_556 S
C351 C352 1.375 . S
C351 C354 1.481 . S
C352 C351 1.375 . S
C352 C353 1.367 . S
C352 H366 0.951 . S
C353 C349 1.383 1_556 S
C353 C352 1.367 . S
C353 H367 0.950 . S
C354 C351 1.481 . S
C354 C355 1.297 . S
C354 H368 0.950 . S
C355 C354 1.297 . S
C355 C356 1.479 . S
C355 H369 0.950 . S
C356 C355 1.479 . S
C356 C357 1.375 . S
C356 C362 1.404 . S
C357 C356 1.375 . S
C357 C358 1.369 . S
C357 H370 0.950 . S
C358 C357 1.369 . S
C358 C359 1.392 . S
C358 H371 0.951 1_556 S
C359 C358 1.392 . S
C359 C361 1.384 . S
H360 C362 0.949 . S
C361 C359 1.384 . S
C361 C362 1.385 . S
C361 H363 0.950 . S
C362 C356 1.404 . S
C362 H360 0.949 . S
C362 C361 1.385 . S
H363 C361 0.950 . S
H364 C348 0.951 . S
H365 C350 0.951 . S
H366 C352 0.951 . S
H367 C353 0.950 . S
H368 C354 0.950 . S
H369 C355 0.950 . S
H370 C357 0.950 . S
H371 C358 0.951 1_554 S
C372 C373 1.386 . S
C372 C374 1.383 . S
C372 H388 0.951 . S
C373 C372 1.386 . S
C373 C377 1.383 . S
C374 C372 1.383 . S
C374 C375 1.402 . S
C374 H389 0.951 . S
C375 C374 1.402 . S
C375 C376 1.375 . S
C375 C378 1.481 . S
C376 C375 1.375 . S
C376 C377 1.367 . S
C376 H390 0.951 . S
C377 C373 1.383 . S
C377 C376 1.367 . S
C377 H391 0.950 . S
C378 C375 1.481 . S
C378 C379 1.297 . S
C378 H392 0.950 . S
C379 C378 1.297 . S
C379 C380 1.479 . S
C379 H393 0.950 . S
C380 C379 1.479 . S
C380 C381 1.375 . S
C380 C386 1.404 . S
C381 C380 1.375 . S
C381 C382 1.369 . S
C381 H394 0.950 . S
C382 C381 1.369 . S
C382 C383 1.392 . S
C382 H395 0.951 . S
C383 C382 1.392 . S
C383 C385 1.384 . S
H384 C386 0.949 . S
C385 C383 1.384 . S
C385 C386 1.385 . S
C385 H387 0.950 . S
C386 C380 1.404 . S
C386 H384 0.949 . S
C386 C385 1.385 . S
H387 C385 0.950 . S
H388 C372 0.951 . S
H389 C374 0.951 . S
H390 C376 0.951 . S
H391 C377 0.950 . S
H392 C378 0.950 . S
H393 C379 0.950 . S
H394 C381 0.950 . S
H395 C382 0.951 . S
C396 C397 1.386 . S
C396 C398 1.383 . S
C396 H412 0.951 . S
C397 C396 1.386 . S
C397 C401 1.383 . S
C398 C396 1.383 . S
C398 C399 1.402 . S
C398 H413 0.951 . S
C399 C398 1.402 . S
C399 C400 1.375 . S
C399 C402 1.481 . S
C400 C399 1.375 . S
C400 C401 1.367 . S
C400 H414 0.951 1_545 S
C401 C397 1.383 . S
C401 C400 1.367 . S
C401 H415 0.950 1_545 S
C402 C399 1.481 . S
C402 C403 1.297 . S
C402 H416 0.950 . S
C403 C402 1.297 . S
C403 C404 1.479 . S
C403 H417 0.950 . S
C404 C403 1.479 . S
C404 C405 1.375 . S
C404 C410 1.404 . S
C405 C404 1.375 . S
C405 C406 1.369 . S
C405 H418 0.950 . S
C406 C405 1.369 . S
C406 C407 1.392 . S
C406 H419 0.951 . S
C407 C406 1.392 . S
C407 C409 1.384 . S
H408 C410 0.949 . S
C409 C407 1.384 . S
C409 C410 1.385 . S
C409 H411 0.950 1_545 S
C410 C404 1.404 . S
C410 H408 0.949 . S
C410 C409 1.385 . S
H411 C409 0.950 1_565 S
H412 C396 0.951 . S
H413 C398 0.951 . S
H414 C400 0.951 1_565 S
H415 C401 0.950 1_565 S
H416 C402 0.950 . S
H417 C403 0.950 . S
H418 C405 0.950 . S
H419 C406 0.951 . S
C420 C421 1.386 . S
C420 C422 1.383 . S
C420 H436 0.951 . S
C421 C420 1.386 . S
C421 C425 1.383 . S
C422 C420 1.383 . S
C422 C423 1.402 . S
C422 H437 0.951 . S
C423 C422 1.402 . S
C423 C424 1.375 1_545 S
C423 C426 1.481 . S
C424 C423 1.375 1_565 S
C424 C425 1.367 1_565 S
C424 H438 0.951 . S
C425 C421 1.383 . S
C425 C424 1.367 1_545 S
C425 H439 0.950 1_545 S
C426 C423 1.481 . S
C426 C427 1.297 . S
C426 H440 0.950 1_545 S
C427 C426 1.297 . S
C427 C428 1.479 . S
C427 H441 0.950 . S
C428 C427 1.479 . S
C428 C429 1.375 . S
C428 C434 1.404 1_545 S
C429 C428 1.375 . S
C429 C430 1.369 . S
C429 H442 0.950 . S
C430 C429 1.369 . S
C430 C431 1.392 . S
C430 H443 0.951 . S
C431 C430 1.392 . S
C431 C433 1.384 1_545 S
H432 C434 0.949 . S
C433 C431 1.384 1_565 S
C433 C434 1.385 . S
C433 H435 0.950 . S
C434 C428 1.404 1_565 S
C434 H432 0.949 . S
C434 C433 1.385 . S
H435 C433 0.950 . S
H436 C420 0.951 . S
H437 C422 0.951 . S
H438 C424 0.951 . S
H439 C425 0.950 1_565 S
H440 C426 0.950 1_565 S
H441 C427 0.950 . S
H442 C429 0.950 . S
H443 C430 0.951 . S
C444 C445 1.386 1_565 S
C444 C446 1.383 . S
C444 H460 0.951 . S
C445 C444 1.386 1_545 S
C445 C449 1.383 . S
C446 C444 1.383 . S
C446 C447 1.402 1_565 S
C446 H461 0.951 . S
C447 C446 1.402 1_545 S
C447 C448 1.375 . S
C447 C450 1.481 . S
C448 C447 1.375 . S
C448 C449 1.367 . S
C448 H462 0.951 . S
C449 C445 1.383 . S
C449 C448 1.367 . S
C449 H463 0.950 . S
C450 C447 1.481 . S
C450 C451 1.297 . S
C450 H464 0.950 . S
C451 C450 1.297 . S
C451 C452 1.479 . S
C451 H465 0.950 1_545 S
C452 C451 1.479 . S
C452 C453 1.375 1_545 S
C452 C458 1.404 . S
C453 C452 1.375 1_565 S
C453 C454 1.369 1_565 S
C453 H466 0.950 . S
C454 C453 1.369 1_545 S
C454 C455 1.392 . S
C454 H467 0.951 1_445 S
C455 C454 1.392 . S
C455 C457 1.384 . S
H456 C458 0.949 . S
C457 C455 1.384 . S
C457 C458 1.385 . S
C457 H459 0.950 . S
C458 C452 1.404 . S
C458 H456 0.949 . S
C458 C457 1.385 . S
H459 C457 0.950 . S
H460 C444 0.951 . S
H461 C446 0.951 . S
H462 C448 0.951 . S
H463 C449 0.950 . S
H464 C450 0.950 . S
H465 C451 0.950 1_565 S
H466 C453 0.950 . S
H467 C454 0.951 1_665 S
C253 C67 4.242 1_655 S
C263 C56 4.195 1_454 S
C277 C140 2.680 . S
C287 C151 2.687 1_655 S
C301 C240 0.730 . S
C311 C231 0.519 . S
C325 C235 2.580 1_645 S
C335 C224 2.542 . S
C349 C63 0.671 1_554 S
C359 C72 0.872 1_556 S
C373 C156 1.291 . S
C383 C147 1.398 . S
C397 C150 1.549 . S
C407 C75 1.549 1_455 S
C421 C159 1.578 . S
C431 C243 1.499 1_545 S
C445 C234 1.613 . S
C455 C66 1.537 . S
