# Generated by pormake.
# Topology vcl, (7)-cn, num edge types: 1
# Building blocks:
#     Node 0, Type 0, BuildingBlock: NUHQUE_clean_sbu_2, # of connection points: 7
#     Node 1, Type 0, BuildingBlock: NUHQUE_clean_sbu_2, # of connection points: 7
#     Node 2, Type 0, BuildingBlock: NUHQUE_clean_sbu_2, # of connection points: 7
#     Node 3, Type 0, BuildingBlock: NUHQUE_clean_sbu_2, # of connection points: 7
#     Node 4, Type 0, BuildingBlock: NUHQUE_clean_sbu_2, # of connection points: 7
#     Node 5, Type 0, BuildingBlock: NUHQUE_clean_sbu_2, # of connection points: 7
#     Node 6, Type 0, BuildingBlock: NUHQUE_clean_sbu_2, # of connection points: 7
#     Node 7, Type 0, BuildingBlock: NUHQUE_clean_sbu_2, # of connection points: 7
#     Node 8, Type 0, BuildingBlock: NUHQUE_clean_sbu_2, # of connection points: 7
#     Node 9, Type 0, BuildingBlock: NUHQUE_clean_sbu_2, # of connection points: 7
#     Node 10, Type 0, BuildingBlock: NUHQUE_clean_sbu_2, # of connection points: 7
#     Node 11, Type 0, BuildingBlock: NUHQUE_clean_sbu_2, # of connection points: 7
#     Node 12, Type 0, BuildingBlock: NUHQUE_clean_sbu_2, # of connection points: 7
#     Node 13, Type 0, BuildingBlock: NUHQUE_clean_sbu_2, # of connection points: 7
#     Node 14, Type 0, BuildingBlock: NUHQUE_clean_sbu_2, # of connection points: 7
#     Node 15, Type 0, BuildingBlock: NUHQUE_clean_sbu_2, # of connection points: 7
#     Edge 16, Type (0, 0), BuildingBlock: AJUNOK_clean_linker_0, # of connection points: 2
#     Edge 17, Type (0, 0), BuildingBlock: AJUNOK_clean_linker_0, # of connection points: 2
#     Edge 18, Type (0, 0), BuildingBlock: AJUNOK_clean_linker_0, # of connection points: 2
#     Edge 19, Type (0, 0), BuildingBlock: AJUNOK_clean_linker_0, # of connection points: 2
#     Edge 20, Type (0, 0), BuildingBlock: AJUNOK_clean_linker_0, # of connection points: 2
#     Edge 21, Type (0, 0), BuildingBlock: AJUNOK_clean_linker_0, # of connection points: 2
#     Edge 22, Type (0, 0), BuildingBlock: AJUNOK_clean_linker_0, # of connection points: 2
#     Edge 23, Type (0, 0), BuildingBlock: AJUNOK_clean_linker_0, # of connection points: 2
#     Edge 24, Type (0, 0), BuildingBlock: AJUNOK_clean_linker_0, # of connection points: 2
#     Edge 25, Type (0, 0), BuildingBlock: AJUNOK_clean_linker_0, # of connection points: 2
#     Edge 26, Type (0, 0), BuildingBlock: AJUNOK_clean_linker_0, # of connection points: 2
#     Edge 27, Type (0, 0), BuildingBlock: AJUNOK_clean_linker_0, # of connection points: 2
#     Edge 28, Type (0, 0), BuildingBlock: AJUNOK_clean_linker_0, # of connection points: 2
#     Edge 29, Type (0, 0), BuildingBlock: AJUNOK_clean_linker_0, # of connection points: 2
#     Edge 30, Type (0, 0), BuildingBlock: AJUNOK_clean_linker_0, # of connection points: 2
#     Edge 31, Type (0, 0), BuildingBlock: AJUNOK_clean_linker_0, # of connection points: 2
#     Edge 32, Type (0, 0), BuildingBlock: AJUNOK_clean_linker_0, # of connection points: 2
#     Edge 33, Type (0, 0), BuildingBlock: AJUNOK_clean_linker_0, # of connection points: 2
#     Edge 34, Type (0, 0), BuildingBlock: AJUNOK_clean_linker_0, # of connection points: 2
#     Edge 35, Type (0, 0), BuildingBlock: AJUNOK_clean_linker_0, # of connection points: 2
#     Edge 36, Type (0, 0), BuildingBlock: AJUNOK_clean_linker_0, # of connection points: 2
#     Edge 37, Type (0, 0), BuildingBlock: AJUNOK_clean_linker_0, # of connection points: 2
#     Edge 38, Type (0, 0), BuildingBlock: AJUNOK_clean_linker_0, # of connection points: 2
#     Edge 39, Type (0, 0), BuildingBlock: AJUNOK_clean_linker_0, # of connection points: 2
#     Edge 40, Type (0, 0), BuildingBlock: AJUNOK_clean_linker_0, # of connection points: 2
#     Edge 41, Type (0, 0), BuildingBlock: AJUNOK_clean_linker_0, # of connection points: 2
#     Edge 42, Type (0, 0), BuildingBlock: AJUNOK_clean_linker_0, # of connection points: 2
#     Edge 43, Type (0, 0), BuildingBlock: AJUNOK_clean_linker_0, # of connection points: 2
#     Edge 44, Type (0, 0), BuildingBlock: AJUNOK_clean_linker_0, # of connection points: 2
#     Edge 45, Type (0, 0), BuildingBlock: AJUNOK_clean_linker_0, # of connection points: 2
#     Edge 46, Type (0, 0), BuildingBlock: AJUNOK_clean_linker_0, # of connection points: 2
#     Edge 47, Type (0, 0), BuildingBlock: AJUNOK_clean_linker_0, # of connection points: 2
#     Edge 48, Type (0, 0), BuildingBlock: AJUNOK_clean_linker_0, # of connection points: 2
#     Edge 49, Type (0, 0), BuildingBlock: AJUNOK_clean_linker_0, # of connection points: 2
#     Edge 50, Type (0, 0), BuildingBlock: AJUNOK_clean_linker_0, # of connection points: 2
#     Edge 51, Type (0, 0), BuildingBlock: AJUNOK_clean_linker_0, # of connection points: 2
#     Edge 52, Type (0, 0), BuildingBlock: AJUNOK_clean_linker_0, # of connection points: 2
#     Edge 53, Type (0, 0), BuildingBlock: AJUNOK_clean_linker_0, # of connection points: 2
#     Edge 54, Type (0, 0), BuildingBlock: AJUNOK_clean_linker_0, # of connection points: 2
#     Edge 55, Type (0, 0), BuildingBlock: AJUNOK_clean_linker_0, # of connection points: 2
#     Edge 56, Type (0, 0), BuildingBlock: AJUNOK_clean_linker_0, # of connection points: 2
#     Edge 57, Type (0, 0), BuildingBlock: AJUNOK_clean_linker_0, # of connection points: 2
#     Edge 58, Type (0, 0), BuildingBlock: AJUNOK_clean_linker_0, # of connection points: 2
#     Edge 59, Type (0, 0), BuildingBlock: AJUNOK_clean_linker_0, # of connection points: 2
#     Edge 60, Type (0, 0), BuildingBlock: AJUNOK_clean_linker_0, # of connection points: 2
#     Edge 61, Type (0, 0), BuildingBlock: AJUNOK_clean_linker_0, # of connection points: 2
#     Edge 62, Type (0, 0), BuildingBlock: AJUNOK_clean_linker_0, # of connection points: 2
#     Edge 63, Type (0, 0), BuildingBlock: AJUNOK_clean_linker_0, # of connection points: 2
#     Edge 64, Type (0, 0), BuildingBlock: AJUNOK_clean_linker_0, # of connection points: 2
#     Edge 65, Type (0, 0), BuildingBlock: AJUNOK_clean_linker_0, # of connection points: 2
#     Edge 66, Type (0, 0), BuildingBlock: AJUNOK_clean_linker_0, # of connection points: 2
#     Edge 67, Type (0, 0), BuildingBlock: AJUNOK_clean_linker_0, # of connection points: 2
#     Edge 68, Type (0, 0), BuildingBlock: AJUNOK_clean_linker_0, # of connection points: 2
#     Edge 69, Type (0, 0), BuildingBlock: AJUNOK_clean_linker_0, # of connection points: 2
#     Edge 70, Type (0, 0), BuildingBlock: AJUNOK_clean_linker_0, # of connection points: 2
#     Edge 71, Type (0, 0), BuildingBlock: AJUNOK_clean_linker_0, # of connection points: 2
# Relax obj value: 0.250
# Max RMSD: 0.260
# Mean RMSD: 0.260
data_MOF--net-vcl--node1-NUHQUE_clean_sbu_2--edge1-AJUNOK_clean_linker_0
_symmetry_space_group_name_H-M    P1
_symmetry_Int_Tables_number       1
_symmetry_cell_setting            triclinic
loop_
_symmetry_equiv_pos_as_xyz
'x, y, z'
_cell_length_a     49.982324
_cell_length_b     36.376214
_cell_length_c     24.582186
_cell_angle_alpha  90.099486
_cell_angle_beta   89.808917
_cell_angle_gamma 90.01164
loop_
_atom_site_label
_atom_site_type_symbol
_atom_site_fract_x
_atom_site_fract_y
_atom_site_fract_z
_atom_type_partial_charge
O0 O 0.34295 1.02053 0.10265 0.0
Tb1 Tb 0.32845 0.07631 0.08603 0.0
Eu2 Eu 0.2742 0.14081 0.05461 0.0
C3 C 0.33916 1.00816 0.15264 0.0
O4 O 0.32692 1.02987 0.18746 0.0
C5 C 0.27557 0.08256 0.14791 0.0
O6 O 0.25166 0.19486 0.05338 0.0
C7 C 0.25477 0.09517 0.98294 0.0
C8 C 0.26508 0.22589 0.0585 0.0
O9 O 0.29111 0.22411 0.06502 0.0
C10 C 0.3312 0.13715 1.00088 0.0
C11 C 0.23219 0.09573 0.94487 0.0
C12 C 0.23271 0.07424 0.89718 0.0
C13 C 0.21186 0.07714 0.85919 0.0
C14 C 0.19044 0.10099 0.86975 0.0
C15 C 0.18983 0.12245 0.91711 0.0
C16 C 0.21073 0.11972 0.95456 0.0
O17 O 0.28791 0.06247 0.11108 0.0
O18 O 0.27286 0.1181 0.13996 0.0
O19 O 0.36389 0.0908 0.1324 0.0
O20 O 0.32944 0.12452 0.13934 0.0
C21 C 0.35409 0.12025 0.15482 0.0
O22 O 0.3173 0.15486 1.03812 0.0
O23 O 0.33518 0.10131 1.00597 0.0
O24 O 0.24842 0.0945 1.03473 0.0
O25 O 0.2741 0.11838 0.9722 0.0
H26 H 0.24958 0.05634 0.88886 0.0
H27 H 0.17462 0.10382 0.83991 0.0
H28 H 0.21054 0.13678 0.99079 0.0
O29 O 0.62988 0.07606 0.09326 0.0
Tb30 Tb 0.64387 1.01918 0.08311 0.0
Eu31 Eu 0.69687 0.95312 0.05581 0.0
C32 C 0.63392 0.09178 0.14113 0.0
O33 O 0.64663 0.07286 0.17838 0.0
C34 C 0.69437 1.00964 0.15179 0.0
O35 O 0.72093 0.90026 0.05364 0.0
C36 C 0.71677 0.99991 0.98641 0.0
C37 C 0.70883 0.86803 0.05413 0.0
O38 O 0.68256 0.86726 0.0558 0.0
C39 C 0.6405 0.95633 0.99977 0.0
C40 C 0.73942 0.99909 0.94824 0.0
C41 C 0.73923 1.02074 0.90082 0.0
C42 C 0.76002 1.01736 0.86244 0.0
C43 C 0.78117 0.99306 0.87265 0.0
C44 C 0.78131 0.97124 0.91948 0.0
C45 C 0.7604 0.97423 0.95709 0.0
O46 O 0.68354 1.03122 0.11502 0.0
O47 O 0.69632 0.97419 0.14215 0.0
O48 O 0.60659 1.00952 0.12641 0.0
O49 O 0.63858 0.972 0.13716 0.0
C50 C 0.61394 0.97942 0.15036 0.0
O51 O 0.65439 0.93793 1.03605 0.0
O52 O 0.63809 0.99255 1.00373 0.0
O53 O 0.72297 0.99957 1.03822 0.0
O54 O 0.69714 0.97744 0.97477 0.0
H55 H 0.72256 1.03901 0.89288 0.0
H56 H 0.79709 0.99008 0.84288 0.0
H57 H 0.76019 0.95662 0.99267 0.0
O58 O 0.87872 0.26881 0.34182 0.0
Tb59 Tb 0.89452 0.32486 0.3326 0.0
Eu60 Eu 0.94647 0.39098 0.30666 0.0
C61 C 0.88581 0.24893 0.38445 0.0
O62 O 0.90347 0.26248 0.41831 0.0
C63 C 0.94428 0.33546 0.40313 0.0
O64 O 0.96854 0.44546 0.30323 0.0
C65 C 0.96862 0.34335 0.24109 0.0
C66 C 0.95486 0.47638 0.30744 0.0
O67 O 0.92884 0.47427 0.31428 0.0
C68 C 0.89065 0.38559 0.24697 0.0
C69 C -0.00831 0.34338 0.20383 0.0
C70 C -0.00891 0.32277 0.1553 0.0
C71 C 0.01245 0.32513 0.11811 0.0
C72 C 0.03451 0.34732 0.13046 0.0
C73 C 0.03536 0.36767 0.17888 0.0
C74 C 0.0138 0.3659 0.21517 0.0
O75 O 0.93382 0.31327 0.3666 0.0
O76 O 0.94508 0.371 0.39362 0.0
O77 O 0.85718 0.33662 0.37508 0.0
O78 O 0.88921 0.3744 0.38188 0.0
C79 C 0.86449 0.36803 0.39534 0.0
O80 O 0.90453 0.4054 0.28165 0.0
O81 O 0.88924 0.34937 0.25198 0.0
O82 O 0.97422 0.3458 0.29305 0.0
O83 O 0.94854 0.36437 0.22702 0.0
H84 H 0.97376 0.3061 0.14566 0.0
H85 H 0.05065 0.34989 0.10108 0.0
H86 H 0.01403 0.38262 0.25174 0.0
O87 O 0.08637 0.82798 0.34471 0.0
Tb88 Tb 0.07377 0.77069 0.33321 0.0
Eu89 Eu 0.02179 0.70352 0.30602 0.0
C90 C 0.08159 0.84306 0.3928 0.0
O91 O 0.06904 0.8232 0.42941 0.0
C92 C 0.02367 0.75892 0.40273 0.0
O93 O -0.00188 0.65032 0.30401 0.0
C94 C 0.00167 0.75119 0.23834 0.0
C95 C 0.01038 0.61845 0.29791 0.0
O96 O 0.03649 0.61832 0.29166 0.0
C97 C 0.07843 0.70822 0.24987 0.0
C98 C 0.97921 0.75124 0.19993 0.0
C99 C 0.97996 0.77323 0.15285 0.0
C100 C 0.95932 0.77072 0.11431 0.0
C101 C 0.9379 0.74664 0.12355 0.0
C102 C 0.93726 0.72432 0.16993 0.0
C103 C 0.95786 0.72685 0.2081 0.0
O104 O 0.03399 0.78117 0.36621 0.0
O105 O 0.02283 0.72345 0.39292 0.0
O106 O 0.11207 0.76226 0.37271 0.0
O107 O 0.08092 0.72383 0.38694 0.0
C108 C 0.10578 0.7319 0.39729 0.0
O109 O 0.06422 0.68889 0.28469 0.0
O110 O 0.07965 0.74455 0.2536 0.0
O111 O -0.00474 0.74974 0.29009 0.0
O112 O 0.02141 0.72905 0.22577 0.0
H113 H -0.0031 0.79115 0.14534 0.0
H114 H 0.92234 0.74399 0.09312 0.0
H115 H 0.95762 0.70905 0.24348 0.0
O116 O 0.3367 0.51651 0.59636 0.0
Tb117 Tb 0.32402 0.57373 0.58485 0.0
Eu118 Eu 0.27184 0.64158 0.55723 0.0
C119 C 0.33186 0.5015 0.64438 0.0
O120 O 0.319 0.52125 0.68076 0.0
C121 C 0.27347 0.58567 0.65305 0.0
O122 O 0.24852 0.69503 0.55521 0.0
C123 C 0.25142 0.59457 0.48885 0.0
C124 C 0.26064 0.72663 0.54589 0.0
O125 O 0.28655 0.7265 0.53673 0.0
C126 C 0.32831 0.63606 0.50144 0.0
C127 C 0.22901 0.5954 0.45039 0.0
C128 C 0.22963 0.57388 0.40273 0.0
C129 C 0.20913 0.57724 0.36402 0.0
C130 C 0.18784 0.60142 0.37408 0.0
C131 C 0.18725 0.6231 0.42119 0.0
C132 C 0.20787 0.62007 0.45918 0.0
O133 O 0.28396 0.5635 0.61648 0.0
O134 O 0.27257 0.62117 0.64368 0.0
O135 O 0.3621 0.58208 0.6253 0.0
O136 O 0.33082 0.62033 0.63952 0.0
C137 C 0.3556 0.6122 0.65042 0.0
O138 O 0.31456 0.65521 0.53731 0.0
O139 O 0.33007 0.5998 0.50538 0.0
O140 O 0.24496 0.59583 0.5406 0.0
O141 O 0.27147 0.61626 0.47675 0.0
H142 H 0.24641 0.55572 0.39491 0.0
H143 H 0.17214 0.60437 0.34404 0.0
H144 H 0.20773 0.63751 0.49503 0.0
O145 O 0.63117 0.57747 0.59466 0.0
Tb146 Tb 0.64477 0.52073 0.58104 0.0
Eu147 Eu 0.69659 0.4537 0.55133 0.0
C148 C 0.63663 0.59281 0.64222 0.0
O149 O 0.65067 0.57378 0.67733 0.0
C150 C 0.69555 0.50952 0.6479 0.0
O151 O 0.72015 0.40041 0.54875 0.0
C152 C 0.71676 0.50085 0.48263 0.0
C153 C 0.70784 0.36842 0.55234 0.0
O154 O 0.68165 0.36816 0.55716 0.0
C155 C 0.63968 0.45908 0.49666 0.0
C156 C 0.73939 0.50123 0.44429 0.0
C157 C 0.73828 0.52254 0.39657 0.0
C158 C 0.75926 0.52081 0.35846 0.0
C159 C 0.78143 0.49841 0.36885 0.0
C160 C 0.78265 0.47703 0.41613 0.0
C161 C 0.7615 0.47832 0.45354 0.0
O162 O 0.68475 0.53167 0.61197 0.0
O163 O 0.69633 0.47401 0.63822 0.0
O164 O 0.60697 0.51083 0.62211 0.0
O165 O 0.6386 0.47277 0.63325 0.0
C166 C 0.61375 0.48012 0.64503 0.0
O167 O 0.65406 0.43938 0.5306 0.0
O168 O 0.63856 0.49539 0.5011 0.0
O169 O 0.72292 0.50004 0.53444 0.0
O170 O 0.69728 0.47827 0.4704 0.0
H171 H 0.72087 0.53937 0.38832 0.0
H172 H 0.79726 0.4964 0.33868 0.0
H173 H 0.76205 0.46099 0.48938 0.0
O174 O 0.88406 0.76665 0.84372 0.0
Tb175 Tb 0.89608 0.82424 0.83246 0.0
Eu176 Eu 0.94767 0.89275 0.80693 0.0
C177 C 0.88902 0.75144 0.89151 0.0
O178 O 0.90148 0.77129 0.92819 0.0
C179 C 0.94532 0.83738 0.90332 0.0
O180 O 0.97073 0.94649 0.80397 0.0
C181 C 0.96894 0.84482 0.74059 0.0
C182 C 0.95815 0.97839 0.80461 0.0
O183 O 0.93188 0.97842 0.80668 0.0
C184 C 0.89157 0.88655 0.74894 0.0
C185 C -0.00871 0.84413 0.70152 0.0
C186 C -0.01046 0.82289 0.6537 0.0
C187 C 0.01021 0.82418 0.6149 0.0
C188 C 0.03272 0.84611 0.62461 0.0
C189 C 0.03462 0.8674 0.67201 0.0
C190 C 0.01377 0.8665 0.71018 0.0
O191 O 0.93573 0.81497 0.8662 0.0
O192 O 0.94586 0.8729 0.89385 0.0
O193 O 0.8572 0.83213 0.87041 0.0
O194 O 0.88791 0.87088 0.8863 0.0
C195 C 0.86297 0.86252 0.89551 0.0
O196 O 0.90533 0.90642 0.78383 0.0
O197 O 0.8908 0.85019 0.75274 0.0
O198 O 0.97539 0.84764 0.79213 0.0
O199 O 0.94874 0.86589 0.72746 0.0
H200 H 0.97188 0.80642 0.64595 0.0
H201 H 0.04825 0.84785 0.5938 0.0
H202 H 0.01484 0.88377 0.74612 0.0
O203 O 0.0951 0.3257 0.83815 0.0
Tb204 Tb 0.07663 0.271 0.83087 0.0
Eu205 Eu 0.02289 0.20583 0.80663 0.0
C206 C 0.08342 0.35391 0.86263 0.0
O207 O 0.05758 0.35268 0.87187 0.0
C208 C 0.02767 0.26075 0.90466 0.0
O209 O 0.00049 0.15151 0.80362 0.0
C210 C 0.00119 0.25348 0.741 0.0
C211 C 0.01407 0.12043 0.80575 0.0
O212 O 0.04021 0.12224 0.80991 0.0
C213 C 0.07847 0.20904 0.74582 0.0
C214 C 0.97896 0.25244 0.70189 0.0
C215 C 0.9798 0.27362 0.65392 0.0
C216 C 0.95941 0.27003 0.61492 0.0
C217 C 0.93807 0.24592 0.62482 0.0
C218 C 0.93726 0.22461 0.67217 0.0
C219 C 0.95769 0.22795 0.71055 0.0
O220 O 0.0381 0.28325 0.86845 0.0
O221 O 0.02551 0.22553 0.8935 0.0
O222 O 0.11394 0.26154 0.87371 0.0
O223 O 0.08321 0.22181 0.88043 0.0
C224 C 0.10754 0.23004 0.8946 0.0
O225 O 0.06477 0.19039 0.78222 0.0
O226 O 0.08124 0.24516 0.75056 0.0
O227 O -0.00544 0.25021 0.79249 0.0
O228 O 0.02211 0.23363 0.72796 0.0
H229 H -0.00337 0.29166 0.6461 0.0
H230 H 0.92267 0.24246 0.59423 0.0
H231 H 0.95734 0.21076 0.74656 0.0
O232 O 0.83889 1.01697 0.59429 0.0
Tb233 Tb 0.82581 0.07403 0.58261 0.0
Eu234 Eu 0.77284 0.14141 0.55567 0.0
C235 C 0.83447 1.00211 0.64257 0.0
O236 O 0.82228 1.02212 0.67956 0.0
C237 C 0.77554 0.08559 0.65213 0.0
O238 O 0.7507 0.19587 0.5533 0.0
C239 C 0.75171 0.09469 0.48767 0.0
C240 C 0.76433 0.2269 0.55087 0.0
O241 O 0.79056 0.22511 0.54929 0.0
C242 C 0.82893 0.1357 0.49822 0.0
C243 C 0.72931 0.0958 0.44912 0.0
C244 C 0.72998 0.07482 0.4009 0.0
C245 C 0.70942 0.07841 0.3623 0.0
C246 C 0.68805 0.10235 0.37306 0.0
C247 C 0.68735 0.12336 0.4208 0.0
C248 C 0.70801 0.1201 0.45863 0.0
O249 O 0.78594 0.06358 0.61517 0.0
O250 O 0.77368 0.12097 0.64219 0.0
O251 O 0.86389 0.08383 0.6224 0.0
O252 O 0.83213 0.12139 0.63608 0.0
C253 C 0.85705 0.11409 0.64679 0.0
O254 O 0.81556 0.15463 0.53491 0.0
O255 O 0.83119 0.09953 0.50253 0.0
O256 O 0.74528 0.09639 0.53942 0.0
O257 O 0.77207 0.11577 0.47537 0.0
H258 H 0.74682 0.05685 0.39262 0.0
H259 H 0.67232 0.10562 0.34312 0.0
H260 H 0.70776 0.13707 0.49497 0.0
O261 O 0.12603 0.07482 0.59055 0.0
Tb262 Tb 0.14444 1.02016 0.58127 0.0
Eu263 Eu 0.19663 0.95406 0.55148 0.0
C264 C 0.13729 0.10172 0.61868 0.0
O265 O 0.16222 0.09811 0.63417 0.0
C266 C 0.1949 1.00958 0.6492 0.0
O267 O 0.21872 0.89961 0.54821 0.0
C268 C 0.21833 1.00071 0.48418 0.0
C269 C 0.20513 0.86874 0.55375 0.0
O270 O 0.17918 0.87089 0.56158 0.0
C271 C 0.13995 0.95957 0.49495 0.0
C272 C 0.24131 0.99986 0.44671 0.0
C273 C 0.24044 1.01908 0.3971 0.0
C274 C 0.26156 1.01571 0.35955 0.0
C275 C 0.2838 0.99405 0.37273 0.0
C276 C 0.28496 0.97512 0.42228 0.0
C277 C 0.26354 0.9778 0.45886 0.0
O278 O 0.18396 1.03207 0.6138 0.0
O279 O 0.19617 0.97419 0.63848 0.0
O280 O 0.10855 1.00784 0.62838 0.0
O281 O 0.14033 0.96955 0.62852 0.0
C282 C 0.11624 0.97597 0.64601 0.0
O283 O 0.15439 0.9397 0.52848 0.0
O284 O 0.13827 0.99572 0.50076 0.0
O285 O 0.224 0.99942 0.5362 0.0
O286 O 0.19825 0.97938 0.47108 0.0
H287 H 0.22303 1.03543 0.38693 0.0
H288 H 0.29987 0.99091 0.3433 0.0
H289 H 0.26402 0.96221 0.49642 0.0
O290 O 0.37464 0.27226 0.84385 0.0
Tb291 Tb 0.39417 0.32606 0.83447 0.0
Eu292 Eu 0.44736 0.38938 0.80812 0.0
C293 C 0.38675 0.24281 0.86344 0.0
O294 O 0.41293 0.2428 0.86728 0.0
C295 C 0.44327 0.33505 0.90627 0.0
O296 O 0.46934 0.44402 0.80485 0.0
C297 C 0.47017 0.34123 0.74433 0.0
C298 C 0.45596 0.47478 0.81368 0.0
O299 O 0.43025 0.47243 0.82431 0.0
C300 C 0.39123 0.38599 0.74683 0.0
C301 C 0.49168 0.34232 0.70326 0.0
C302 C 0.49032 0.32045 0.65596 0.0
C303 C 0.51031 0.32339 0.61577 0.0
C304 C 0.53175 0.34763 0.62367 0.0
C305 C 0.53303 0.36973 0.67026 0.0
C306 C 0.51301 0.36697 0.7099 0.0
O307 O 0.43262 0.3126 0.8704 0.0
O308 O 0.44476 0.37034 0.89533 0.0
O309 O 0.35823 0.33883 0.88113 0.0
O310 O 0.38979 0.37752 0.87987 0.0
C311 C 0.36578 0.37105 0.89777 0.0
O312 O 0.40643 0.40597 0.77902 0.0
O313 O 0.38896 0.34997 0.75349 0.0
O314 O 0.4775 0.34719 0.79478 0.0
O315 O 0.4481 0.35857 0.73166 0.0
H316 H 0.47347 0.30218 0.6497 0.0
H317 H 0.54687 0.35047 0.59218 0.0
H318 H 0.51384 0.3846 0.74549 0.0
O319 O 0.59192 0.82409 0.84202 0.0
Tb320 Tb 0.57401 0.76892 0.8363 0.0
Eu321 Eu 0.52231 0.70274 0.81566 0.0
C322 C 0.58086 0.8513 0.86999 0.0
O323 O 0.55584 0.84829 0.88555 0.0
C324 C 0.52599 0.75832 0.91187 0.0
O325 O 0.49907 0.64904 0.81372 0.0
C326 C 0.49961 0.75046 0.75162 0.0
C327 C 0.51154 0.6171 0.81099 0.0
O328 O 0.53781 0.61696 0.80879 0.0
C329 C 0.57763 0.70654 0.75183 0.0
C330 C 0.47801 0.74877 0.71116 0.0
C331 C 0.47945 0.76966 0.66299 0.0
C332 C 0.45975 0.76553 0.62271 0.0
C333 C 0.43834 0.74138 0.6317 0.0
C334 C 0.43689 0.72045 0.67933 0.0
C335 C 0.45678 0.72404 0.71879 0.0
O336 O 0.53569 0.78078 0.87491 0.0
O337 O 0.52575 0.72277 0.90238 0.0
O338 O 0.61166 0.76033 0.87828 0.0
O339 O 0.5817 0.7195 0.88456 0.0
C340 C 0.606 0.72828 0.89819 0.0
O341 O 0.56331 0.68663 0.78586 0.0
O342 O 0.57879 0.74286 0.75632 0.0
O343 O 0.49248 0.74536 0.80247 0.0
O344 O 0.52148 0.73266 0.73872 0.0
H345 H 0.49625 0.78793 0.65606 0.0
H346 H 0.4233 0.73774 0.6004 0.0
H347 H 0.45594 0.70699 0.75492 0.0
O348 O 0.83873 0.51631 0.09285 0.0
Tb349 Tb 0.82598 0.57339 0.0798 0.0
Eu350 Eu 0.77504 0.64178 0.05095 0.0
C351 C 0.83325 0.50131 0.14062 0.0
O352 O 0.81985 0.52102 0.17623 0.0
C353 C 0.77526 0.58593 0.14723 0.0
O354 O 0.75288 0.6962 0.04876 0.0
C355 C 0.75436 0.59502 0.98229 0.0
C356 C 0.7663 0.72731 0.05321 0.0
O357 O 0.7924 0.72564 0.05862 0.0
C358 C 0.83172 0.6348 0.99562 0.0
C359 C 0.73176 0.59512 0.94419 0.0
C360 C 0.73253 0.57364 0.89649 0.0
C361 C 0.71162 0.576 0.85854 0.0
C362 C 0.6899 0.59931 0.86905 0.0
C363 C 0.68919 0.62104 0.91613 0.0
C364 C 0.7101 0.6188 0.95362 0.0
O365 O 0.78582 0.56348 0.11111 0.0
O366 O 0.77487 0.62145 0.13765 0.0
O367 O 0.86383 0.58294 0.12062 0.0
O368 O 0.83226 0.62103 0.13271 0.0
C369 C 0.85707 0.61352 0.1442 0.0
O370 O 0.81788 0.65464 1.03052 0.0
O371 O 0.83252 0.59848 0.99982 0.0
O372 O 0.74813 0.5961 1.03415 0.0
O373 O 0.7741 0.61719 0.96993 0.0
H374 H 0.74963 0.55618 0.88811 0.0
H375 H 0.67406 0.60175 0.8392 0.0
H376 H 0.70978 0.63612 0.98958 0.0
O377 O 0.13026 0.575 0.09828 0.0
Tb378 Tb 0.14417 0.51825 0.08658 0.0
Eu379 Eu 0.19723 0.45225 0.05713 0.0
C380 C 0.13508 0.5906 0.14591 0.0
O381 O 0.14787 0.5713 0.18262 0.0
C382 C 0.19511 0.50843 0.15356 0.0
O383 O 0.22094 0.39919 0.05454 0.0
C384 C 0.21685 0.49966 0.98832 0.0
C385 C 0.20863 0.36722 0.05831 0.0
O386 O 0.18247 0.36696 0.06359 0.0
C387 C 0.14084 0.45636 1.00183 0.0
C388 C 0.23967 0.50097 0.95057 0.0
C389 C 0.23815 0.52193 0.90265 0.0
C390 C 0.25924 0.52099 0.86484 0.0
C391 C 0.28191 0.49967 0.87558 0.0
C392 C 0.28361 0.47869 0.92321 0.0
C393 C 0.26236 0.47927 0.96048 0.0
O394 O 0.18414 0.53009 0.11707 0.0
O395 O 0.19721 0.47303 0.14363 0.0
O396 O 0.10752 0.50655 0.1314 0.0
O397 O 0.14051 0.47046 0.13976 0.0
C398 C 0.11586 0.47649 0.15419 0.0
O399 O 0.15449 0.43785 1.03834 0.0
O400 O 0.13817 0.4925 1.0066 0.0
O401 O 0.2227 0.49943 0.04028 0.0
O402 O 0.198 0.47615 0.9758 0.0
H403 H 0.22034 0.53786 0.89398 0.0
H404 H 0.29772 0.49809 0.84532 0.0
H405 H 0.26323 0.46221 0.99657 0.0
O406 O 0.38026 0.7697 0.34967 0.0
Tb407 Tb 0.39639 0.82564 0.343 0.0
Eu408 Eu 0.44856 0.89095 0.31817 0.0
C409 C 0.38659 0.74975 0.39268 0.0
O410 O 0.40341 0.76347 0.42814 0.0
C411 C 0.4469 0.8332 0.41194 0.0
O412 O 0.47168 0.94455 0.31904 0.0
C413 C 0.46834 0.8445 0.24765 0.0
C414 C 0.46364 0.9724 0.28895 0.0
O415 O 0.44312 0.96747 0.2565 0.0
C416 C 0.39201 0.88911 0.26241 0.0
C417 C 0.49082 0.84439 0.20901 0.0
C418 C 0.48996 0.82268 0.16155 0.0
C419 C 0.5108 0.82485 0.12315 0.0
C420 C 0.53241 0.8485 0.13272 0.0
C421 C 0.53325 0.87043 0.17964 0.0
C422 C 0.51252 0.86805 0.21783 0.0
O423 O 0.43577 0.81205 0.37492 0.0
O424 O 0.44813 0.86886 0.40392 0.0
O425 O 0.3596 0.83693 0.38771 0.0
O426 O 0.39214 0.87367 0.39583 0.0
C427 C 0.36745 0.86752 0.40981 0.0
O428 O 0.40639 0.90743 0.29799 0.0
O429 O 0.39071 0.85275 0.26425 0.0
O430 O 0.47477 0.84482 0.29933 0.0
O431 O 0.44894 0.86742 0.23642 0.0
H432 H 0.47286 0.80513 0.15377 0.0
H433 H 0.54802 0.85107 0.10218 0.0
H434 H 0.51295 0.88531 0.25384 0.0
O435 O 0.58616 0.32776 0.34534 0.0
Tb436 Tb 0.57359 0.27042 0.33359 0.0
Eu437 Eu 0.52225 0.20297 0.30636 0.0
C438 C 0.58091 0.34331 0.39291 0.0
O439 O 0.56767 0.32406 0.42921 0.0
C440 C 0.52406 0.25702 0.40429 0.0
O441 O 0.50064 0.14847 0.29774 0.0
C442 C 0.50054 0.25195 0.24293 0.0
C443 C 0.51081 0.11847 0.31951 0.0
O444 O 0.53256 0.12139 0.34908 0.0
C445 C 0.57847 0.209 0.24853 0.0
C446 C 0.47756 0.25277 0.20566 0.0
C447 C 0.47881 0.27293 0.15685 0.0
C448 C 0.45751 0.27127 0.11972 0.0
C449 C 0.43491 0.2501 0.13224 0.0
C450 C 0.43332 0.23028 0.18099 0.0
C451 C 0.45478 0.23158 0.21738 0.0
O452 O 0.53386 0.27965 0.3676 0.0
O453 O 0.52338 0.22155 0.39402 0.0
O454 O 0.61168 0.26203 0.37403 0.0
O455 O 0.5808 0.22287 0.3859 0.0
C456 C 0.60545 0.23124 0.39749 0.0
O457 O 0.56466 0.18926 0.28348 0.0
O458 O 0.57964 0.24528 0.25322 0.0
O459 O 0.49473 0.24854 0.29473 0.0
O460 O 0.5207 0.23122 0.22798 0.0
H461 H 0.49657 0.28869 0.14698 0.0
H462 H 0.41896 0.24783 0.1026 0.0
H463 H 0.45398 0.21531 0.25428 0.0
C464 C 0.35188 0.9278 0.24774 0.0
C465 C 0.37487 0.91115 0.22594 0.0
C466 C 0.3396 0.95762 0.22161 0.0
C467 C 0.3499 0.97234 0.1727 0.0
H468 H 0.34434 0.91926 0.28715 0.0
H469 H 0.32262 0.97041 0.24156 0.0
S470 S 0.40949 0.93763 0.09834 0.0
N471 N 0.40718 0.91061 0.15212 0.0
N472 N 0.38401 0.96648 0.10248 0.0
C473 C 0.37214 0.95465 0.14904 0.0
C474 C 0.3847 0.92423 0.17593 0.0
C475 C 0.62129 0.17812 0.22442 0.0
C476 C 0.59526 0.18829 0.2093 0.0
C477 C 0.63444 0.14852 0.19892 0.0
C478 C 0.62214 0.12793 0.15715 0.0
H479 H 0.63071 0.19119 0.25909 0.0
H480 H 0.65385 0.14035 0.21428 0.0
S481 S 0.5546 0.14507 0.10072 0.0
N482 N 0.55805 0.17669 0.14853 0.0
N483 N 0.58292 0.12163 0.09979 0.0
C484 C 0.59681 0.13947 0.13922 0.0
C485 C 0.58331 0.16939 0.16568 0.0
C486 C 0.8853 0.18729 0.42985 0.0
C487 C 0.87152 0.2147 0.4005 0.0
C488 C 0.87154 0.15885 0.45692 0.0
C489 C 0.84347 0.15721 0.45638 0.0
H490 H 0.90682 0.18899 0.43442 0.0
H491 H 0.88279 0.13991 0.48197 0.0
S492 S 0.79799 0.22087 0.38375 0.0
N493 N 0.82824 0.23673 0.37003 0.0
N494 N 0.80244 0.18416 0.42212 0.0
C495 C 0.82958 0.18323 0.42493 0.0
C496 C 0.84358 0.21172 0.39654 0.0
C497 C 0.13205 0.92021 0.41343 0.0
C498 C 0.12162 0.939 0.45895 0.0
C499 C 0.1179 0.89111 0.38871 0.0
C500 C 0.09319 0.87908 0.4098 0.0
H501 H 0.15205 0.92646 0.39904 0.0
H502 H 0.12737 0.87618 0.3557 0.0
S503 S 0.05668 0.92092 0.52649 0.0
N504 N 0.08452 0.94517 0.52186 0.0
N505 N 0.05812 0.89036 0.47678 0.0
C506 C 0.08199 0.89911 0.45355 0.0
C507 C 0.09618 0.92903 0.47787 0.0
C508 C 0.36872 0.45422 0.64076 0.0
C509 C 0.34385 0.46581 0.66167 0.0
C510 C 0.38314 0.4255 0.66561 0.0
C511 C 0.37284 0.40659 0.71105 0.0
H512 H 0.37807 0.46921 0.60774 0.0
H513 H 0.4032 0.41955 0.65127 0.0
S514 S 0.30768 0.42374 0.77841 0.0
N515 N 0.30887 0.45414 0.72863 0.0
N516 N 0.33573 0.39995 0.77386 0.0
C517 C 0.34728 0.41615 0.72988 0.0
C518 C 0.33282 0.44574 0.70546 0.0
C519 C 0.58388 0.66591 0.67078 0.0
C520 C 0.59525 0.68607 0.71389 0.0
C521 C 0.59825 0.63777 0.64404 0.0
C522 C 0.62421 0.62802 0.66073 0.0
H523 H 0.56317 0.67046 0.65979 0.0
H524 H 0.58818 0.62175 0.61307 0.0
S525 S 0.66333 0.67397 0.76982 0.0
N526 N 0.63441 0.69591 0.7698 0.0
N527 N 0.66123 0.64278 0.72109 0.0
C528 C 0.63619 0.64934 0.70209 0.0
C529 C 0.62174 0.67836 0.72839 0.0
C530 C 0.83872 0.67434 0.91403 0.0
C531 C 0.84968 0.65525 0.95852 0.0
C532 C 0.85262 0.70347 0.88879 0.0
C533 C 0.87766 0.71523 0.90833 0.0
H534 H 0.81849 0.66833 0.901 0.0
H535 H 0.84274 0.71868 0.85679 0.0
S536 S 0.91567 0.67241 1.02148 0.0
N537 N 0.88767 0.64842 1.01853 0.0
N538 N 0.91364 0.70327 0.97244 0.0
C539 C 0.8894 0.69485 0.95086 0.0
C540 C 0.87543 0.66491 0.97572 0.0
C541 C 0.08706 0.41539 0.91021 0.0
C542 C 0.09968 0.38362 0.88897 0.0
C543 C 0.10088 0.44063 0.94358 0.0
C544 C 0.12776 0.43478 0.9577 0.0
H545 H 0.06599 0.42009 0.9028 0.0
H546 H 0.08999 0.46357 0.96102 0.0
S547 S 0.17097 0.35827 0.90939 0.0
N548 N 0.14157 0.34982 0.88162 0.0
N549 N 0.16715 0.39666 0.94443 0.0
C550 C 0.14099 0.40433 0.9345 0.0
C551 C 0.1271 0.37895 0.90009 0.0
C552 C 0.87177 0.95556 0.64186 0.0
C553 C 0.84606 0.96613 0.65941 0.0
C554 C 0.88569 0.92684 0.66786 0.0
C555 C 0.8741 0.90699 0.71111 0.0
H556 H 0.88206 0.97145 0.61098 0.0
H557 H 0.90631 0.92172 0.65642 0.0
S558 S 0.80629 0.92097 0.76845 0.0
N559 N 0.80882 0.95226 0.72005 0.0
N560 N 0.83486 0.89817 0.76768 0.0
C561 C 0.84775 0.91546 0.72622 0.0
C562 C 0.83375 0.94499 0.70057 0.0
C563 C 0.13421 0.16372 0.66449 0.0
C564 C 0.12118 0.13306 0.64093 0.0
C565 C 0.12003 0.19043 0.69464 0.0
C566 C 0.09232 0.18727 0.70296 0.0
H567 H 0.15576 0.16629 0.66169 0.0
H568 H 0.1311 0.2122 0.71459 0.0
S569 S 0.04813 0.11467 0.6466 0.0
N570 N 0.07832 0.10328 0.62495 0.0
N571 N 0.052 0.15289 0.68203 0.0
C572 C 0.07885 0.15805 0.67722 0.0
C573 C 0.09315 0.13116 0.64604 0.0
C574 C 0.38416 0.18074 0.90944 0.0
C575 C 0.37104 0.21249 0.88973 0.0
C576 C 0.37081 0.15467 0.94225 0.0
C577 C 0.34388 0.15956 0.95715 0.0
H578 H 0.40526 0.17665 0.90133 0.0
H579 H 0.38207 0.13182 0.95864 0.0
S580 S 0.29935 0.23531 0.91221 0.0
N581 N 0.32859 0.24508 0.88433 0.0
N582 N 0.30386 0.1966 0.94584 0.0
C583 C 0.33014 0.18993 0.93529 0.0
C584 C 0.34357 0.21621 0.90161 0.0
C585 C 0.58486 0.91325 0.91565 0.0
C586 C 0.59741 0.88188 0.89302 0.0
C587 C 0.59923 0.93922 0.94671 0.0
C588 C 0.62664 0.93448 0.95705 0.0
H589 H 0.56347 0.91702 0.91132 0.0
H590 H 0.58847 0.96174 0.9656 0.0
S591 S 0.66969 0.85933 0.90379 0.0
N592 N 0.63961 0.84961 0.88017 0.0
N593 N 0.66628 0.89781 0.93883 0.0
C594 C 0.63971 0.90445 0.93232 0.0
C595 C 0.62523 0.87836 0.90019 0.0
C596 C 0.87017 0.45404 0.13959 0.0
C597 C 0.8449 0.46554 0.15854 0.0
C598 C 0.88409 0.42521 0.16534 0.0
C599 C 0.87291 0.40612 0.20976 0.0
H600 H 0.88016 0.46919 0.10751 0.0
H601 H 0.90442 0.41935 0.15262 0.0
S602 S 0.8064 0.42283 0.27163 0.0
N603 N 0.80858 0.45348 0.22231 0.0
N604 N 0.83457 0.39915 0.26932 0.0
C605 C 0.84699 0.41559 0.22653 0.0
C606 C 0.83302 0.44526 0.20117 0.0
C607 C 0.0842 0.66671 0.1699 0.0
C608 C 0.09587 0.68711 0.21244 0.0
C609 C 0.09796 0.63741 0.14465 0.0
C610 C 0.12357 0.62681 0.16229 0.0
H611 H 0.06362 0.67189 0.15849 0.0
H612 H 0.08761 0.62122 0.11427 0.0
S613 S 0.16349 0.67321 0.2697 0.0
N614 N 0.13507 0.69633 0.26847 0.0
N615 N 0.16083 0.64121 0.22223 0.0
C616 C 0.13597 0.64844 0.20274 0.0
C617 C 0.12213 0.67855 0.22761 0.0
C618 C 0.37155 0.65961 0.46404 0.0
C619 C 0.34357 0.65734 0.46051 0.0
C620 C 0.38564 0.68822 0.43818 0.0
C621 C 0.37231 0.71522 0.4072 0.0
H622 H 0.38235 0.64109 0.49055 0.0
H623 H 0.40698 0.69044 0.44506 0.0
S624 S 0.29928 0.71949 0.38228 0.0
N625 N 0.30317 0.68306 0.42148 0.0
N626 N 0.32964 0.73606 0.37175 0.0
C627 C 0.34456 0.71154 0.40016 0.0
C628 C 0.3302 0.68283 0.42726 0.0
C629 C 0.63249 0.41873 0.41586 0.0
C630 C 0.62162 0.43842 0.46011 0.0
C631 C 0.61822 0.38995 0.39066 0.0
C632 C 0.59287 0.37911 0.41 0.0
H633 H 0.65286 0.42408 0.40286 0.0
H634 H 0.62799 0.37431 0.35876 0.0
S635 S 0.55503 0.42365 0.52268 0.0
N636 N 0.58345 0.44673 0.51982 0.0
N637 N 0.55679 0.3925 0.47382 0.0
C638 C 0.58128 0.40003 0.45239 0.0
C639 C 0.59563 0.42965 0.47721 0.0
C640 C 0.2097 0.29809 0.05888 0.0
C641 C 0.22371 0.33175 0.05732 0.0
C642 C 0.22316 0.26417 0.05899 0.0
C643 C 0.25126 0.26229 0.0575 0.0
H644 H 0.18803 0.29778 0.06013 0.0
H645 H 0.21135 0.23922 0.06053 0.0
S646 S 0.2976 0.34224 0.05272 0.0
N647 N 0.2675 0.36085 0.05395 0.0
N648 N 0.29274 0.29738 0.05395 0.0
C649 C 0.26558 0.29572 0.05564 0.0
C650 C 0.25185 0.3303 0.05551 0.0
C651 C 0.72422 0.76523 0.0504 0.0
C652 C 0.75232 0.76367 0.05295 0.0
C653 C 0.71051 0.79897 0.05042 0.0
C654 C 0.72423 0.8328 0.05338 0.0
H655 H 0.71258 0.74015 0.04845 0.0
H656 H 0.68888 0.79836 0.04817 0.0
S657 S 0.79795 0.8443 0.06192 0.0
N658 N 0.79347 0.79939 0.05881 0.0
N659 N 0.76772 0.86247 0.05969 0.0
C660 C 0.75235 0.83173 0.0562 0.0
C661 C 0.76636 0.79732 0.05585 0.0
C662 C -0.00393 0.5153 0.29468 0.0
C663 C 0.96836 0.51302 0.30453 0.0
C664 C 0.00928 0.54939 0.29219 0.0
C665 C -0.00457 0.58285 0.29955 0.0
H666 H 0.00777 0.49054 0.28883 0.0
H667 H 0.03063 0.54935 0.2846 0.0
S668 S 0.92251 0.59244 0.32553 0.0
N669 N 0.92736 0.54767 0.32079 0.0
N670 N 0.95221 0.61137 0.31664 0.0
C671 C 0.96768 0.58104 0.30913 0.0
C672 C 0.95417 0.54631 0.31145 0.0
C673 C 0.25943 0.79558 0.53781 0.0
C674 C 0.24573 0.76225 0.54719 0.0
C675 C 0.24622 0.82969 0.53991 0.0
C676 C 0.21865 0.83209 0.5513 0.0
H677 H 0.28067 0.7955 0.52895 0.0
H678 H 0.25781 0.85436 0.53253 0.0
S679 S 0.17318 0.75301 0.57753 0.0
N680 N 0.20277 0.73398 0.56764 0.0
N681 N 0.17793 0.79769 0.57105 0.0
C682 C 0.2046 0.79893 0.56019 0.0
C683 C 0.21811 0.76419 0.55831 0.0
C684 C 0.72244 0.26532 0.55414 0.0
C685 C 0.75052 0.26338 0.5508 0.0
C686 C 0.70897 0.29925 0.55433 0.0
C687 C 0.72293 0.33292 0.55149 0.0
H688 H 0.71064 0.24039 0.55655 0.0
H689 H 0.68733 0.29893 0.55676 0.0
S690 S 0.79676 0.3434 0.5441 0.0
N691 N 0.79193 0.29854 0.54552 0.0
N692 N 0.76667 0.362 0.54628 0.0
C693 C 0.75105 0.33145 0.54847 0.0
C694 C 0.76479 0.29685 0.5481 0.0
C695 C 0.95891 1.04764 0.80579 0.0
C696 C 0.97306 1.01407 0.80394 0.0
C697 C 0.97224 0.08172 0.80618 0.0
C698 C 0.00034 0.08388 0.80448 0.0
H699 H 0.93725 1.04777 0.80721 0.0
H700 H 0.96032 0.10656 0.80801 0.0
S701 S 0.04699 1.00426 0.79897 0.0
N702 N 0.01696 0.9854 0.8002 0.0
N703 N 0.04194 0.04907 0.80049 0.0
C704 C 0.01477 0.05052 0.80229 0.0
C705 C 0.00119 1.01581 0.80206 0.0
C706 C 0.51066 0.54797 0.80567 0.0
C707 C 0.4966 0.58143 0.81116 0.0
C708 C 0.49743 0.51385 0.80646 0.0
C709 C 0.46948 0.51149 0.81248 0.0
H710 H 0.5322 0.54796 0.80083 0.0
H711 H 0.50932 0.48909 0.80253 0.0
S712 S 0.42306 0.59079 0.82857 0.0
N713 N 0.45293 0.60981 0.82329 0.0
N714 N 0.42807 0.54605 0.82397 0.0
C715 C 0.4551 0.54475 0.81788 0.0
C716 C 0.46862 0.57953 0.81736 0.0
C717 C 0.49337 1.01715 0.3383 0.0
C718 C 0.47609 1.00954 0.29459 0.0
C719 C 0.50437 0.05235 0.34595 0.0
C720 C 0.49853 0.08159 0.31037 0.0
H721 H 0.49824 0.99588 0.36741 0.0
H722 H 0.51738 0.05672 0.38052 0.0
S723 S 0.45696 0.07528 0.1859 0.0
N724 N 0.45528 1.0338 0.21278 0.0
N725 N 0.47592 0.09971 0.22728 0.0
C726 C 0.4818 0.0742 0.26575 0.0
C727 C 0.47061 1.03831 0.25785 0.0
C728 C 0.26112 0.07119 0.29908 0.0
C729 C 0.26039 1.03279 0.30496 0.0
C730 C 0.26469 0.08734 0.2476 0.0
C731 C 0.26764 0.06555 0.20045 0.0
H732 H 0.26028 0.08873 0.3347 0.0
H733 H 0.26642 0.11697 0.24518 0.0
S734 S 0.26316 0.9637 0.19414 0.0
N735 N 0.26015 0.97356 0.25945 0.0
N736 N 0.26644 1.00359 0.16286 0.0
C737 C 0.26513 1.02717 0.20576 0.0
C738 C 0.26166 1.01086 0.25799 0.0
C739 C 0.70514 0.06391 0.21022 0.0
C740 C 0.70246 1.02553 0.20508 0.0
C741 C 0.70881 0.08053 0.26104 0.0
C742 C 0.71036 0.05948 0.30882 0.0
H743 H 0.70338 0.08152 0.17491 0.0
H744 H 0.70955 0.11027 0.26323 0.0
S745 S 0.70714 0.95796 0.3178 0.0
N746 N 0.70355 0.96672 0.2523 0.0
N747 N 0.71079 0.99829 0.34788 0.0
C748 C 0.70941 1.02104 0.30421 0.0
C749 C 0.70544 1.00398 0.25232 0.0
C750 C 0.95112 0.34169 0.50409 0.0
C751 C 0.95285 0.32025 0.45636 0.0
C752 C 0.95501 0.32593 0.55577 0.0
C753 C 0.96091 0.28834 0.56119 0.0
H754 H 0.94531 0.37033 0.50177 0.0
H755 H 0.95201 0.34274 0.59169 0.0
S756 S 0.9714 0.22153 0.44924 0.0
N757 N 0.96395 0.26038 0.41813 0.0
N758 N 0.97073 0.23094 0.51496 0.0
C759 C 0.96434 0.26725 0.51383 0.0
C760 C 0.9605 0.28318 0.46147 0.0
C761 C 0.01539 0.76851 0.55583 0.0
C762 C 0.00804 0.80559 0.5616 0.0
C763 C 0.01891 0.75278 0.50396 0.0
C764 C 0.01556 0.77387 0.45644 0.0
H765 H 0.01974 0.75216 0.59151 0.0
H766 H 0.02575 0.72458 0.5012 0.0
S767 S -0.00687 0.87101 0.45052 0.0
N768 N -0.00485 0.86196 0.5162 0.0
N769 N 0.00184 0.83272 0.41889 0.0
C770 C 0.00675 0.81041 0.46201 0.0
C771 C 0.00301 0.82621 0.51459 0.0
C772 C 0.26802 0.59203 0.75403 0.0
C773 C 0.26524 0.57067 0.7065 0.0
C774 C 0.2643 0.57644 0.8058 0.0
C775 C 0.25733 0.53924 0.81143 0.0
H776 H 0.27455 0.62036 0.75138 0.0
H777 H 0.26819 0.59302 0.84156 0.0
S778 S 0.24395 0.47303 0.70024 0.0
N779 N 0.25244 0.51138 0.66872 0.0
N780 N 0.24541 0.48239 0.76594 0.0
C781 C 0.25287 0.5183 0.7644 0.0
C782 C 0.25679 0.53397 0.71189 0.0
C783 C 0.70581 0.51992 0.80037 0.0
C784 C 0.7129 0.55716 0.80524 0.0
C785 C 0.70173 0.50386 0.74892 0.0
C786 C 0.70432 0.52474 0.70094 0.0
H787 H 0.7021 0.50368 0.83651 0.0
H788 H 0.69506 0.47556 0.74691 0.0
S789 S 0.72605 0.62214 0.69247 0.0
N790 N 0.72486 0.61343 0.75835 0.0
N791 N 0.71722 0.58356 0.66187 0.0
C792 C 0.71296 0.56142 0.70554 0.0
C793 C 0.7172 0.57758 0.75767 0.0
C794 C 0.95258 0.82664 0.05644 0.0
C795 C 0.96083 0.78986 0.06135 0.0
C796 C 0.94905 0.84273 1.00492 0.0
C797 C 0.95333 0.82233 0.95689 0.0
H798 H 0.94764 0.84243 0.09249 0.0
H799 H 0.94154 0.87062 1.00276 0.0
S800 S 0.97832 0.72641 0.94878 0.0
N801 N 0.97554 0.73466 1.01464 0.0
N802 N 0.96885 0.76456 0.91804 0.0
C803 C 0.963 0.78616 0.96166 0.0
C804 C 0.96672 0.76999 1.01387 0.0
C805 C 0.01201 0.32897 1.01716 0.0
C806 C 0.01158 0.30706 0.06414 0.0
C807 C 0.01591 0.31342 0.9656 0.0
C808 C 0.0199 0.27537 0.95898 0.0
H809 H 0.01016 0.35857 1.02053 0.0
H810 H 0.01641 0.33159 0.93082 0.0
S811 S 0.01913 0.20591 0.06959 0.0
N812 N 0.01408 0.24544 0.10119 0.0
N813 N 0.02171 0.21588 1.00423 0.0
C814 C 0.01827 0.25292 1.0056 0.0
C815 C 0.0141 0.26887 0.05823 0.0
C816 C 0.75956 1.01549 0.76133 0.0
C817 C 0.75929 1.0365 0.80933 0.0
C818 C 0.76342 1.03196 0.7105 0.0
C819 C 0.76745 0.07013 0.70563 0.0
H820 H 0.75767 0.98584 0.76333 0.0
H821 H 0.76423 1.01437 0.67493 0.0
S822 S 0.76652 0.13758 0.81923 0.0
N823 N 0.76161 0.09747 0.84909 0.0
N824 N 0.76911 0.12879 0.75345 0.0
C825 C 0.76577 0.09173 0.75321 0.0
C826 C 0.76167 0.07481 0.80512 0.0
C827 C 0.21383 0.07846 0.75817 0.0
C828 C 0.21262 0.05772 0.80625 0.0
C829 C 0.20958 0.0621 0.70734 0.0
C830 C 0.20358 1.02443 0.70261 0.0
H831 H 0.21712 0.10789 0.76011 0.0
H832 H 0.21024 0.07942 0.67158 0.0
S833 S 0.19982 0.95773 0.81654 0.0
N834 N 0.20666 0.99739 0.8463 0.0
N835 N 0.19833 0.96637 0.75065 0.0
C836 C 0.20373 1.00297 0.75029 0.0
C837 C 0.20825 1.01972 0.80218 0.0
C838 C 0.45763 0.26681 1.01881 0.0
C839 C 0.45892 0.28896 0.06558 0.0
C840 C 0.45392 0.28225 0.96727 0.0
C841 C 0.45104 0.32046 0.96043 0.0
H842 H 0.45855 0.23715 1.02239 0.0
H843 H 0.45255 0.26386 0.93274 0.0
S844 S 0.4546 0.3905 0.07033 0.0
N845 N 0.45855 0.35091 0.10213 0.0
N846 N 0.45137 0.38029 1.00516 0.0
C847 C 0.45364 0.34309 1.00676 0.0
C848 C 0.45758 0.32723 0.05939 0.0
C849 C 0.5185 0.76912 0.06509 0.0
C850 C 0.5095 0.80556 0.0702 0.0
C851 C 0.52238 0.75309 1.01349 0.0
C852 C 0.51774 0.77326 0.96554 0.0
H853 H 0.52376 0.75357 0.10104 0.0
H854 H 0.53045 0.72549 1.01119 0.0
S855 S 0.49101 0.86826 0.95795 0.0
N856 N 0.49395 0.86023 1.02376 0.0
N857 N 0.50099 0.83029 0.92702 0.0
C858 C 0.50732 0.80903 0.97051 0.0
C859 C 0.5033 0.82516 1.02282 0.0
C860 C 0.76932 0.59218 0.24827 0.0
C861 C 0.76645 0.57109 0.2005 0.0
C862 C 0.7652 0.57647 0.29989 0.0
C863 C 0.75773 0.53941 0.30516 0.0
H864 H 0.77627 0.62034 0.24595 0.0
H865 H 0.7692 0.59282 0.33584 0.0
S866 S 0.74387 0.47402 0.19313 0.0
N867 N 0.75299 0.51227 0.16207 0.0
N868 N 0.74521 0.48308 0.25893 0.0
C869 C 0.75315 0.51881 0.25784 0.0
C870 C 0.75748 0.53459 0.2055 0.0
C871 C 0.21017 0.57894 0.26286 0.0
C872 C 0.21028 0.55804 0.31086 0.0
C873 C 0.20672 0.56231 0.21198 0.0
C874 C 0.20296 0.5241 0.20706 0.0
H875 H 0.21187 0.60861 0.2649 0.0
H876 H 0.20598 0.57981 0.17639 0.0
S877 S 0.20362 0.45689 0.32063 0.0
N878 N 0.2081 0.49712 0.35056 0.0
N879 N 0.20138 0.46552 0.25483 0.0
C880 C 0.2045 0.50262 0.25463 0.0
C881 C 0.20817 0.51969 0.30659 0.0
C882 C 0.45409 0.83825 0.51284 0.0
C883 C 0.45499 0.81701 0.46481 0.0
C884 C 0.45741 0.82193 0.56426 0.0
C885 C 0.46181 0.78393 0.56915 0.0
H886 H 0.44937 0.86728 0.51096 0.0
H887 H 0.45509 0.83873 0.6004 0.0
S888 S 0.47002 0.71724 0.45623 0.0
N889 N 0.46393 0.75675 0.42568 0.0
N890 N 0.46964 0.72624 0.52208 0.0
C891 C 0.46451 0.76293 0.52148 0.0
C892 C 0.46128 0.77944 0.46936 0.0
C893 C 0.51608 0.26725 0.55749 0.0
C894 C 0.50828 0.30421 0.56281 0.0
C895 C 0.5196 0.25122 0.50577 0.0
C896 C 0.51574 0.27186 0.45798 0.0
H897 H 0.52081 0.2513 0.59335 0.0
H898 H 0.52687 0.22321 0.50329 0.0
S899 S 0.49184 0.36832 0.45095 0.0
N900 N 0.49433 0.35984 0.51671 0.0
N901 N 0.50092 0.33002 0.4198 0.0
C902 C 0.50638 0.30818 0.46317 0.0
C903 C 0.50269 0.32429 0.51555 0.0
C904 C 0.12123 0.1659 0.91502 0.0
C905 C 0.12738 0.2036 0.91494 0.0
C906 C 0.14151 0.13951 0.91924 0.0
C907 C 0.16845 0.15006 0.92418 0.0
H908 H 0.10094 0.15664 0.90782 0.0
H909 H 0.13625 0.1107 0.91587 0.0
S910 S 0.19455 0.2453 0.93211 0.0
N911 N 0.1619 0.25021 0.92547 0.0
N912 N 0.20001 0.20055 0.93313 0.0
C913 C 0.17459 0.18762 0.92848 0.0
C914 C 0.15399 0.21446 0.92401 0.0
C915 C 0.82918 0.95266 0.92539 0.0
C916 C 0.80202 0.94275 0.92555 0.0
C917 C 0.84919 0.9259 0.92086 0.0
C918 C 0.84258 0.88851 0.91535 0.0
H919 H 0.83489 0.98139 0.92625 0.0
H920 H 0.86982 0.93483 0.91781 0.0
S921 S 0.77427 0.8485 0.9168 0.0
N922 N 0.76948 0.89321 0.92327 0.0
N923 N 0.80703 0.84276 0.91418 0.0
C924 C 0.81551 0.87814 0.91881 0.0
C925 C 0.7952 0.90536 0.92395 0.0
C926 C 0.05118 0.43168 0.19389 0.0
C927 C 0.05729 0.39422 0.18745 0.0
C928 C 0.07107 0.45848 0.18835 0.0
C929 C 0.09765 0.44858 0.17661 0.0
H930 H 0.03061 0.44052 0.19892 0.0
H931 H 0.06521 0.48715 0.18938 0.0
S932 S 0.12459 0.3538 0.1665 0.0
N933 N 0.09216 0.34824 0.17668 0.0
N934 N 0.12972 0.39866 0.16664 0.0
C935 C 0.10447 0.4111 0.17583 0.0
C936 C 0.08417 0.38384 0.18099 0.0
C937 C 0.88934 0.70506 0.17141 0.0
C938 C 0.91654 0.69562 0.1749 0.0
C939 C 0.86965 0.67786 0.16666 0.0
C940 C 0.87665 0.64045 0.1644 0.0
H941 H 0.8834 0.73368 0.16996 0.0
H942 H 0.84908 0.68635 0.16095 0.0
S943 S 0.94502 0.60155 0.17512 0.0
N944 N 0.94938 0.64647 0.1789 0.0
N945 N 0.91241 0.59527 0.1699 0.0
C946 C 0.90363 0.63063 0.17122 0.0
C947 C 0.92361 0.65828 0.17639 0.0
C948 C 0.13921 0.64136 0.42501 0.0
C949 C 0.16633 0.65138 0.42735 0.0
C950 C 0.1192 0.66811 0.4206 0.0
C951 C 0.12579 0.70562 0.41749 0.0
H952 H 0.13357 0.61261 0.42402 0.0
H953 H 0.09868 0.65915 0.41569 0.0
S954 S 0.19383 0.74596 0.42558 0.0
N955 N 0.1987 0.70116 0.42982 0.0
N956 N 0.16113 0.75156 0.42127 0.0
C957 C 0.15272 0.71605 0.42334 0.0
C958 C 0.17303 0.68884 0.42824 0.0
C959 C 0.81854 0.38607 0.42264 0.0
C960 C 0.84536 0.39615 0.41392 0.0
C961 C 0.79849 0.41271 0.42738 0.0
C962 C 0.80459 0.45027 0.4227 0.0
H963 H 0.81275 0.35737 0.42264 0.0
H964 H 0.77789 0.40373 0.43105 0.0
S965 S 0.87198 0.4912 0.40568 0.0
N966 N 0.8773 0.44639 0.4059 0.0
N967 N 0.83939 0.49649 0.41393 0.0
C968 C 0.83149 0.46082 0.41742 0.0
C969 C 0.85197 0.43372 0.41334 0.0
C970 C 0.05108 0.9314 0.68437 0.0
C971 C 0.05686 0.89385 0.67778 0.0
C972 C 0.07112 0.95794 0.67837 0.0
C973 C 0.0976 0.94779 0.66623 0.0
H974 H 0.03064 0.94051 0.69037 0.0
H975 H 0.06546 0.98668 0.67988 0.0
S976 S 0.12362 0.8527 0.65286 0.0
N977 N 0.09126 0.84751 0.66437 0.0
N978 N 0.12911 0.89747 0.65361 0.0
C979 C 0.10404 0.91021 0.66401 0.0
C980 C 0.08358 0.88319 0.66955 0.0
C981 C 0.8696 0.17838 0.66969 0.0
C982 C 0.87658 0.14096 0.66739 0.0
C983 C 0.88932 0.20555 0.67446 0.0
C984 C 0.91651 0.19604 0.67798 0.0
H985 H 0.84904 0.1869 0.66385 0.0
H986 H 0.88343 0.23419 0.67281 0.0
S987 S 0.94485 0.10193 0.67924 0.0
N988 N 0.91225 0.0957 0.67358 0.0
N989 N 0.94928 0.14685 0.68275 0.0
C990 C 0.92353 0.15871 0.67981 0.0
C991 C 0.90352 0.13109 0.67456 0.0
C992 C 0.63921 0.14093 0.42471 0.0
C993 C 0.66624 0.15127 0.42777 0.0
C994 C 0.61905 0.16747 0.42031 0.0
C995 C 0.62544 0.20508 0.41796 0.0
H996 H 0.63376 0.11212 0.42295 0.0
H997 H 0.59862 0.15831 0.41469 0.0
S998 S 0.69311 0.24618 0.42909 0.0
N999 N 0.69826 0.20141 0.43238 0.0
N1000 N 0.66041 0.25143 0.42393 0.0
C1001 C 0.65224 0.21579 0.42491 0.0
C1002 C 0.6727 0.18878 0.42977 0.0
C1003 C 0.30177 0.91224 0.443 0.0
C1004 C 0.30729 0.94946 0.43255 0.0
C1005 C 0.32213 0.88585 0.44084 0.0
C1006 C 0.34863 0.89594 0.42869 0.0
H1007 H 0.28134 0.90305 0.44887 0.0
H1008 H 0.31675 0.85713 0.44503 0.0
S1009 S 0.37398 0.9907 0.40733 0.0
N1010 N 0.34145 0.99576 0.41661 0.0
N1011 N 0.37985 0.9462 0.41293 0.0
C1012 C 0.35479 0.93347 0.42339 0.0
C1013 C 0.33402 0.96027 0.42504 0.0
C1014 C 0.58107 0.3885 0.66979 0.0
C1015 C 0.55395 0.39819 0.67452 0.0
C1016 C 0.6009 0.41555 0.66534 0.0
C1017 C 0.59411 0.45306 0.66466 0.0
H1018 H 0.58683 0.35983 0.66734 0.0
H1019 H 0.6214 0.40694 0.65875 0.0
S1020 S 0.526 0.49249 0.67854 0.0
N1021 N 0.52139 0.44759 0.68098 0.0
N1022 N 0.55861 0.49851 0.67256 0.0
C1023 C 0.5672 0.46305 0.67245 0.0
C1024 C 0.54708 0.43555 0.67729 0.0
C1025 C 0.36883 0.6757 0.67608 0.0
C1026 C 0.37542 0.63821 0.67218 0.0
C1027 C 0.38884 0.70236 0.68174 0.0
C1028 C 0.41591 0.69224 0.68465 0.0
H1029 H 0.34836 0.68474 0.67071 0.0
H1030 H 0.38326 0.73115 0.68116 0.0
S1031 S 0.44333 0.59765 0.68193 0.0
N1032 N 0.41066 0.59215 0.67627 0.0
N1033 N 0.44821 0.64241 0.68733 0.0
C1034 C 0.42257 0.65478 0.68505 0.0
C1035 C 0.40227 0.62766 0.67882 0.0
C1036 C 0.62044 0.66422 0.9171 0.0
C1037 C 0.62646 0.70197 0.91624 0.0
C1038 C 0.64086 0.63794 0.92 0.0
C1039 C 0.66782 0.64865 0.92283 0.0
H1040 H 0.60004 0.65482 0.91189 0.0
H1041 H 0.63563 0.60907 0.91766 0.0
S1042 S 0.69391 0.744 0.92554 0.0
N1043 N 0.66112 0.74877 0.92206 0.0
N1044 N 0.69945 0.69928 0.92731 0.0
C1045 C 0.67397 0.68626 0.92548 0.0
C1046 C 0.65325 0.71299 0.92234 0.0
C1047 C 0.32068 0.38873 0.93071 0.0
C1048 C 0.34706 0.39913 0.91811 0.0
C1049 C 0.3005 0.41506 0.93672 0.0
C1050 C 0.30604 0.45263 0.92979 0.0
H1051 H 0.31519 0.35994 0.93247 0.0
H1052 H 0.28013 0.40571 0.94285 0.0
S1053 S 0.37254 0.49443 0.90435 0.0
N1054 N 0.37827 0.44972 0.90512 0.0
N1055 N 0.34018 0.49931 0.91611 0.0
C1056 C 0.3327 0.46357 0.92143 0.0
C1057 C 0.3533 0.43676 0.91576 0.0
C1058 C 0.58144 0.88835 0.17819 0.0
C1059 C 0.55449 0.8984 0.18527 0.0
C1060 C 0.60138 0.91512 0.17245 0.0
C1061 C 0.59486 0.95269 0.17291 0.0
H1062 H 0.58691 0.85965 0.17426 0.0
H1063 H 0.62161 0.90624 0.16345 0.0
S1064 S 0.52781 0.99323 0.19679 0.0
N1065 N 0.52271 0.94839 0.19763 0.0
N1066 N 0.56026 0.99869 0.18704 0.0
C1067 C 0.56837 0.96307 0.18438 0.0
C1068 C 0.54811 0.93587 0.19045 0.0
C1069 C 0.41677 0.16709 0.20008 0.0
C1070 C 0.41097 0.2042 0.18949 0.0
C1071 C 0.39711 0.14004 0.19439 0.0
C1072 C 0.37107 0.14922 0.17808 0.0
H1073 H 0.43708 0.1585 0.20842 0.0
H1074 H 0.40283 0.11149 0.19884 0.0
S1075 S 0.34443 0.2432 0.15673 0.0
N1076 N 0.3764 0.24943 0.17082 0.0
N1077 N 0.33937 0.19836 0.15969 0.0
C1078 C 0.36425 0.18653 0.17329 0.0
C1079 C 0.38431 0.21412 0.17892 0.0
loop_
_geom_bond_atom_site_label_1
_geom_bond_atom_site_label_2
_geom_bond_distance
_geom_bond_site_symmetry_2
_ccdc_geom_bond_type
O0 Tb1 2.292 . S
O0 C3 1.255 1_545 S
Tb1 O0 2.292 . S
Tb1 O17 2.326 . S
Tb1 O19 2.500 . S
Tb1 O20 2.473 . S
Tb1 O23 2.324 1_554 S
Eu2 O6 2.292 . S
Eu2 C7 2.852 1_554 S
Eu2 O18 2.324 . S
Eu2 O22 2.326 1_554 S
Eu2 O24 2.500 1_554 S
Eu2 O25 2.473 . S
C3 O0 1.255 1_565 S
C3 O4 1.247 . S
O4 C3 1.247 . S
C5 O17 1.242 . S
C5 O18 1.258 . S
O6 Eu2 2.292 . S
O6 C8 1.255 . S
C7 Eu2 2.852 1_556 S
C7 C11 1.503 . S
C7 O24 1.273 . S
C7 O25 1.257 1_556 S
C8 O6 1.255 . S
C8 O9 1.247 . S
O9 C8 1.247 . S
C10 O22 1.242 . S
C10 O23 1.258 . S
C11 C7 1.503 . S
C11 C12 1.379 . S
C11 C16 1.392 . S
C12 C11 1.379 . S
C12 C13 1.404 . S
C12 H26 0.929 . S
C13 C12 1.404 . S
C13 C14 1.389 . S
C14 C13 1.389 . S
C14 C15 1.399 . S
C14 H27 0.931 . S
C15 C14 1.399 . S
C15 C16 1.390 . S
C16 C11 1.392 . S
C16 C15 1.390 . S
C16 H28 0.929 . S
O17 Tb1 2.326 . S
O17 C5 1.242 . S
O18 Eu2 2.324 . S
O18 C5 1.258 . S
O19 Tb1 2.500 . S
O19 C21 1.273 . S
O20 Tb1 2.473 . S
O20 C21 1.257 . S
C21 O19 1.273 . S
C21 O20 1.257 . S
O22 Eu2 2.326 1_556 S
O22 C10 1.242 . S
O23 Tb1 2.324 1_556 S
O23 C10 1.258 . S
O24 Eu2 2.500 1_556 S
O24 C7 1.273 . S
O25 Eu2 2.473 . S
O25 C7 1.257 1_554 S
H26 C12 0.929 . S
H27 C14 0.931 . S
H28 C16 0.929 . S
O29 Tb30 2.292 . S
O29 C32 1.255 1_565 S
Tb30 O29 2.292 . S
Tb30 O46 2.326 . S
Tb30 O48 2.500 . S
Tb30 O49 2.473 . S
Tb30 O52 2.324 1_554 S
Eu31 O35 2.292 . S
Eu31 C36 2.852 1_554 S
Eu31 O47 2.324 . S
Eu31 O51 2.326 1_554 S
Eu31 O53 2.500 1_554 S
Eu31 O54 2.473 . S
C32 O29 1.255 1_545 S
C32 O33 1.247 . S
O33 C32 1.247 . S
C34 O46 1.242 . S
C34 O47 1.258 . S
O35 Eu31 2.292 . S
O35 C37 1.255 . S
C36 Eu31 2.852 1_556 S
C36 C40 1.503 . S
C36 O53 1.273 . S
C36 O54 1.257 1_556 S
C37 O35 1.255 . S
C37 O38 1.247 . S
O38 C37 1.247 . S
C39 O51 1.242 . S
C39 O52 1.258 . S
C40 C36 1.503 . S
C40 C41 1.379 . S
C40 C45 1.392 . S
C41 C40 1.379 . S
C41 C42 1.404 . S
C41 H55 0.929 . S
C42 C41 1.404 . S
C42 C43 1.389 . S
C43 C42 1.389 . S
C43 C44 1.399 . S
C43 H56 0.931 . S
C44 C43 1.399 . S
C44 C45 1.390 . S
C45 C40 1.392 . S
C45 C44 1.390 . S
C45 H57 0.929 . S
O46 Tb30 2.326 . S
O46 C34 1.242 . S
O47 Eu31 2.324 . S
O47 C34 1.258 . S
O48 Tb30 2.500 . S
O48 C50 1.273 . S
O49 Tb30 2.473 . S
O49 C50 1.257 . S
C50 O48 1.273 . S
C50 O49 1.257 . S
O51 Eu31 2.326 1_556 S
O51 C39 1.242 . S
O52 Tb30 2.324 1_556 S
O52 C39 1.258 . S
O53 Eu31 2.500 1_556 S
O53 C36 1.273 . S
O54 Eu31 2.473 . S
O54 C36 1.257 1_554 S
H55 C41 0.929 . S
H56 C43 0.931 . S
H57 C45 0.929 . S
O58 Tb59 2.292 . S
O58 C61 1.255 . S
Tb59 O58 2.292 . S
Tb59 O75 2.326 . S
Tb59 O77 2.500 . S
Tb59 O78 2.473 . S
Tb59 O81 2.324 . S
Eu60 O64 2.292 . S
Eu60 C65 2.852 1_655 S
Eu60 O76 2.324 . S
Eu60 O80 2.326 . S
Eu60 O82 2.500 1_655 S
Eu60 O83 2.473 . S
C61 O58 1.255 . S
C61 O62 1.247 . S
O62 C61 1.247 . S
C63 O75 1.242 . S
C63 O76 1.258 . S
O64 Eu60 2.292 . S
O64 C66 1.255 . S
C65 Eu60 2.852 1_455 S
C65 C69 1.503 . S
C65 O82 1.273 . S
C65 O83 1.257 1_455 S
C66 O64 1.255 . S
C66 O67 1.247 . S
O67 C66 1.247 . S
C68 O80 1.242 . S
C68 O81 1.258 . S
C69 C65 1.503 . S
C69 C70 1.379 . S
C69 C74 1.392 . S
C70 C69 1.379 . S
C70 C71 1.404 . S
C70 H84 0.929 1_455 S
C71 C70 1.404 . S
C71 C72 1.389 . S
C72 C71 1.389 . S
C72 C73 1.399 . S
C72 H85 0.931 . S
C73 C72 1.399 . S
C73 C74 1.390 . S
C74 C69 1.392 . S
C74 C73 1.390 . S
C74 H86 0.929 . S
O75 Tb59 2.326 . S
O75 C63 1.242 . S
O76 Eu60 2.324 . S
O76 C63 1.258 . S
O77 Tb59 2.500 . S
O77 C79 1.273 . S
O78 Tb59 2.473 . S
O78 C79 1.257 . S
C79 O77 1.273 . S
C79 O78 1.257 . S
O80 Eu60 2.326 . S
O80 C68 1.242 . S
O81 Tb59 2.324 . S
O81 C68 1.258 . S
O82 Eu60 2.500 1_455 S
O82 C65 1.273 . S
O83 Eu60 2.473 . S
O83 C65 1.257 1_655 S
H84 C70 0.929 1_655 S
H85 C72 0.931 . S
H86 C74 0.929 . S
O87 Tb88 2.292 . S
O87 C90 1.255 . S
Tb88 O87 2.292 . S
Tb88 O104 2.326 . S
Tb88 O106 2.500 . S
Tb88 O107 2.473 . S
Tb88 O110 2.324 . S
Eu89 O93 2.292 . S
Eu89 C94 2.852 1_455 S
Eu89 O105 2.324 . S
Eu89 O109 2.326 . S
Eu89 O111 2.500 1_455 S
Eu89 O112 2.473 . S
C90 O87 1.255 . S
C90 O91 1.247 . S
O91 C90 1.247 . S
C92 O104 1.242 . S
C92 O105 1.258 . S
O93 Eu89 2.292 . S
O93 C95 1.255 . S
C94 Eu89 2.852 1_655 S
C94 C98 1.503 . S
C94 O111 1.273 . S
C94 O112 1.257 1_655 S
C95 O93 1.255 . S
C95 O96 1.247 . S
O96 C95 1.247 . S
C97 O109 1.242 . S
C97 O110 1.258 . S
C98 C94 1.503 . S
C98 C99 1.379 . S
C98 C103 1.392 . S
C99 C98 1.379 . S
C99 C100 1.404 . S
C99 H113 0.929 1_655 S
C100 C99 1.404 . S
C100 C101 1.389 . S
C101 C100 1.389 . S
C101 C102 1.399 . S
C101 H114 0.931 . S
C102 C101 1.399 . S
C102 C103 1.390 . S
C103 C98 1.392 . S
C103 C102 1.390 . S
C103 H115 0.929 . S
O104 Tb88 2.326 . S
O104 C92 1.242 . S
O105 Eu89 2.324 . S
O105 C92 1.258 . S
O106 Tb88 2.500 . S
O106 C108 1.273 . S
O107 Tb88 2.473 . S
O107 C108 1.257 . S
C108 O106 1.273 . S
C108 O107 1.257 . S
O109 Eu89 2.326 . S
O109 C97 1.242 . S
O110 Tb88 2.324 . S
O110 C97 1.258 . S
O111 Eu89 2.500 1_655 S
O111 C94 1.273 . S
O112 Eu89 2.473 . S
O112 C94 1.257 1_455 S
H113 C99 0.929 1_455 S
H114 C101 0.931 . S
H115 C103 0.929 . S
O116 Tb117 2.292 . S
O116 C119 1.255 . S
Tb117 O116 2.292 . S
Tb117 O133 2.326 . S
Tb117 O135 2.500 . S
Tb117 O136 2.473 . S
Tb117 O139 2.324 . S
Eu118 O122 2.292 . S
Eu118 C123 2.852 . S
Eu118 O134 2.324 . S
Eu118 O138 2.326 . S
Eu118 O140 2.500 . S
Eu118 O141 2.473 . S
C119 O116 1.255 . S
C119 O120 1.247 . S
O120 C119 1.247 . S
C121 O133 1.242 . S
C121 O134 1.258 . S
O122 Eu118 2.292 . S
O122 C124 1.255 . S
C123 Eu118 2.852 . S
C123 C127 1.503 . S
C123 O140 1.273 . S
C123 O141 1.257 . S
C124 O122 1.255 . S
C124 O125 1.247 . S
O125 C124 1.247 . S
C126 O138 1.242 . S
C126 O139 1.258 . S
C127 C123 1.503 . S
C127 C128 1.379 . S
C127 C132 1.392 . S
C128 C127 1.379 . S
C128 C129 1.404 . S
C128 H142 0.929 . S
C129 C128 1.404 . S
C129 C130 1.389 . S
C130 C129 1.389 . S
C130 C131 1.399 . S
C130 H143 0.931 . S
C131 C130 1.399 . S
C131 C132 1.390 . S
C132 C127 1.392 . S
C132 C131 1.390 . S
C132 H144 0.929 . S
O133 Tb117 2.326 . S
O133 C121 1.242 . S
O134 Eu118 2.324 . S
O134 C121 1.258 . S
O135 Tb117 2.500 . S
O135 C137 1.273 . S
O136 Tb117 2.473 . S
O136 C137 1.257 . S
C137 O135 1.273 . S
C137 O136 1.257 . S
O138 Eu118 2.326 . S
O138 C126 1.242 . S
O139 Tb117 2.324 . S
O139 C126 1.258 . S
O140 Eu118 2.500 . S
O140 C123 1.273 . S
O141 Eu118 2.473 . S
O141 C123 1.257 . S
H142 C128 0.929 . S
H143 C130 0.931 . S
H144 C132 0.929 . S
O145 Tb146 2.292 . S
O145 C148 1.255 . S
Tb146 O145 2.292 . S
Tb146 O162 2.326 . S
Tb146 O164 2.500 . S
Tb146 O165 2.473 . S
Tb146 O168 2.324 . S
Eu147 O151 2.292 . S
Eu147 C152 2.852 . S
Eu147 O163 2.324 . S
Eu147 O167 2.326 . S
Eu147 O169 2.500 . S
Eu147 O170 2.473 . S
C148 O145 1.255 . S
C148 O149 1.247 . S
O149 C148 1.247 . S
C150 O162 1.242 . S
C150 O163 1.258 . S
O151 Eu147 2.292 . S
O151 C153 1.255 . S
C152 Eu147 2.852 . S
C152 C156 1.503 . S
C152 O169 1.273 . S
C152 O170 1.257 . S
C153 O151 1.255 . S
C153 O154 1.247 . S
O154 C153 1.247 . S
C155 O167 1.242 . S
C155 O168 1.258 . S
C156 C152 1.503 . S
C156 C157 1.379 . S
C156 C161 1.392 . S
C157 C156 1.379 . S
C157 C158 1.404 . S
C157 H171 0.929 . S
C158 C157 1.404 . S
C158 C159 1.389 . S
C159 C158 1.389 . S
C159 C160 1.399 . S
C159 H172 0.931 . S
C160 C159 1.399 . S
C160 C161 1.390 . S
C161 C156 1.392 . S
C161 C160 1.390 . S
C161 H173 0.929 . S
O162 Tb146 2.326 . S
O162 C150 1.242 . S
O163 Eu147 2.324 . S
O163 C150 1.258 . S
O164 Tb146 2.500 . S
O164 C166 1.273 . S
O165 Tb146 2.473 . S
O165 C166 1.257 . S
C166 O164 1.273 . S
C166 O165 1.257 . S
O167 Eu147 2.326 . S
O167 C155 1.242 . S
O168 Tb146 2.324 . S
O168 C155 1.258 . S
O169 Eu147 2.500 . S
O169 C152 1.273 . S
O170 Eu147 2.473 . S
O170 C152 1.257 . S
H171 C157 0.929 . S
H172 C159 0.931 . S
H173 C161 0.929 . S
O174 Tb175 2.292 . S
O174 C177 1.255 . S
Tb175 O174 2.292 . S
Tb175 O191 2.326 . S
Tb175 O193 2.500 . S
Tb175 O194 2.473 . S
Tb175 O197 2.324 . S
Eu176 O180 2.292 . S
Eu176 C181 2.852 1_655 S
Eu176 O192 2.324 . S
Eu176 O196 2.326 . S
Eu176 O198 2.500 1_655 S
Eu176 O199 2.473 . S
C177 O174 1.255 . S
C177 O178 1.247 . S
O178 C177 1.247 . S
C179 O191 1.242 . S
C179 O192 1.258 . S
O180 Eu176 2.292 . S
O180 C182 1.255 . S
C181 Eu176 2.852 1_455 S
C181 C185 1.503 . S
C181 O198 1.273 . S
C181 O199 1.257 1_455 S
C182 O180 1.255 . S
C182 O183 1.247 . S
O183 C182 1.247 . S
C184 O196 1.242 . S
C184 O197 1.258 . S
C185 C181 1.503 . S
C185 C186 1.379 . S
C185 C190 1.392 . S
C186 C185 1.379 . S
C186 C187 1.404 . S
C186 H200 0.929 1_455 S
C187 C186 1.404 . S
C187 C188 1.389 . S
C188 C187 1.389 . S
C188 C189 1.399 . S
C188 H201 0.931 . S
C189 C188 1.399 . S
C189 C190 1.390 . S
C190 C185 1.392 . S
C190 C189 1.390 . S
C190 H202 0.929 . S
O191 Tb175 2.326 . S
O191 C179 1.242 . S
O192 Eu176 2.324 . S
O192 C179 1.258 . S
O193 Tb175 2.500 . S
O193 C195 1.273 . S
O194 Tb175 2.473 . S
O194 C195 1.257 . S
C195 O193 1.273 . S
C195 O194 1.257 . S
O196 Eu176 2.326 . S
O196 C184 1.242 . S
O197 Tb175 2.324 . S
O197 C184 1.258 . S
O198 Eu176 2.500 1_455 S
O198 C181 1.273 . S
O199 Eu176 2.473 . S
O199 C181 1.257 1_655 S
H200 C186 0.929 1_655 S
H201 C188 0.931 . S
H202 C190 0.929 . S
O203 Tb204 2.292 . S
O203 C206 1.255 . S
Tb204 O203 2.292 . S
Tb204 O220 2.326 . S
Tb204 O222 2.500 . S
Tb204 O223 2.473 . S
Tb204 O226 2.324 . S
Eu205 O209 2.292 . S
Eu205 C210 2.852 1_455 S
Eu205 O221 2.324 . S
Eu205 O225 2.326 . S
Eu205 O227 2.500 1_455 S
Eu205 O228 2.473 . S
C206 O203 1.255 . S
C206 O207 1.247 . S
O207 C206 1.247 . S
C208 O220 1.242 . S
C208 O221 1.258 . S
O209 Eu205 2.292 . S
O209 C211 1.255 . S
C210 Eu205 2.852 1_655 S
C210 C214 1.503 . S
C210 O227 1.273 . S
C210 O228 1.257 1_655 S
C211 O209 1.255 . S
C211 O212 1.247 . S
O212 C211 1.247 . S
C213 O225 1.242 . S
C213 O226 1.258 . S
C214 C210 1.503 . S
C214 C215 1.379 . S
C214 C219 1.392 . S
C215 C214 1.379 . S
C215 C216 1.404 . S
C215 H229 0.929 1_655 S
C216 C215 1.404 . S
C216 C217 1.389 . S
C217 C216 1.389 . S
C217 C218 1.399 . S
C217 H230 0.931 . S
C218 C217 1.399 . S
C218 C219 1.390 . S
C219 C214 1.392 . S
C219 C218 1.390 . S
C219 H231 0.929 . S
O220 Tb204 2.326 . S
O220 C208 1.242 . S
O221 Eu205 2.324 . S
O221 C208 1.258 . S
O222 Tb204 2.500 . S
O222 C224 1.273 . S
O223 Tb204 2.473 . S
O223 C224 1.257 . S
C224 O222 1.273 . S
C224 O223 1.257 . S
O225 Eu205 2.326 . S
O225 C213 1.242 . S
O226 Tb204 2.324 . S
O226 C213 1.258 . S
O227 Eu205 2.500 1_655 S
O227 C210 1.273 . S
O228 Eu205 2.473 . S
O228 C210 1.257 1_455 S
H229 C215 0.929 1_455 S
H230 C217 0.931 . S
H231 C219 0.929 . S
O232 Tb233 2.292 . S
O232 C235 1.255 1_545 S
Tb233 O232 2.292 . S
Tb233 O249 2.326 . S
Tb233 O251 2.500 . S
Tb233 O252 2.473 . S
Tb233 O255 2.324 . S
Eu234 O238 2.292 . S
Eu234 C239 2.852 . S
Eu234 O250 2.324 . S
Eu234 O254 2.326 . S
Eu234 O256 2.500 . S
Eu234 O257 2.473 . S
C235 O232 1.255 1_565 S
C235 O236 1.247 . S
O236 C235 1.247 . S
C237 O249 1.242 . S
C237 O250 1.258 . S
O238 Eu234 2.292 . S
O238 C240 1.255 . S
C239 Eu234 2.852 . S
C239 C243 1.503 . S
C239 O256 1.273 . S
C239 O257 1.257 . S
C240 O238 1.255 . S
C240 O241 1.247 . S
O241 C240 1.247 . S
C242 O254 1.242 . S
C242 O255 1.258 . S
C243 C239 1.503 . S
C243 C244 1.379 . S
C243 C248 1.392 . S
C244 C243 1.379 . S
C244 C245 1.404 . S
C244 H258 0.929 . S
C245 C244 1.404 . S
C245 C246 1.389 . S
C246 C245 1.389 . S
C246 C247 1.399 . S
C246 H259 0.931 . S
C247 C246 1.399 . S
C247 C248 1.390 . S
C248 C243 1.392 . S
C248 C247 1.390 . S
C248 H260 0.929 . S
O249 Tb233 2.326 . S
O249 C237 1.242 . S
O250 Eu234 2.324 . S
O250 C237 1.258 . S
O251 Tb233 2.500 . S
O251 C253 1.273 . S
O252 Tb233 2.473 . S
O252 C253 1.257 . S
C253 O251 1.273 . S
C253 O252 1.257 . S
O254 Eu234 2.326 . S
O254 C242 1.242 . S
O255 Tb233 2.324 . S
O255 C242 1.258 . S
O256 Eu234 2.500 . S
O256 C239 1.273 . S
O257 Eu234 2.473 . S
O257 C239 1.257 . S
H258 C244 0.929 . S
H259 C246 0.931 . S
H260 C248 0.929 . S
O261 Tb262 2.292 . S
O261 C264 1.255 1_565 S
Tb262 O261 2.292 . S
Tb262 O278 2.326 . S
Tb262 O280 2.500 . S
Tb262 O281 2.473 . S
Tb262 O284 2.324 . S
Eu263 O267 2.292 . S
Eu263 C268 2.852 . S
Eu263 O279 2.324 . S
Eu263 O283 2.326 . S
Eu263 O285 2.500 . S
Eu263 O286 2.473 . S
C264 O261 1.255 1_545 S
C264 O265 1.247 . S
O265 C264 1.247 . S
C266 O278 1.242 . S
C266 O279 1.258 . S
O267 Eu263 2.292 . S
O267 C269 1.255 . S
C268 Eu263 2.852 . S
C268 C272 1.503 . S
C268 O285 1.273 . S
C268 O286 1.257 . S
C269 O267 1.255 . S
C269 O270 1.247 . S
O270 C269 1.247 . S
C271 O283 1.242 . S
C271 O284 1.258 . S
C272 C268 1.503 . S
C272 C273 1.379 . S
C272 C277 1.392 . S
C273 C272 1.379 . S
C273 C274 1.404 . S
C273 H287 0.929 . S
C274 C273 1.404 . S
C274 C275 1.389 . S
C275 C274 1.389 . S
C275 C276 1.399 . S
C275 H288 0.931 . S
C276 C275 1.399 . S
C276 C277 1.390 . S
C277 C272 1.392 . S
C277 C276 1.390 . S
C277 H289 0.929 . S
O278 Tb262 2.326 . S
O278 C266 1.242 . S
O279 Eu263 2.324 . S
O279 C266 1.258 . S
O280 Tb262 2.500 . S
O280 C282 1.273 . S
O281 Tb262 2.473 . S
O281 C282 1.257 . S
C282 O280 1.273 . S
C282 O281 1.257 . S
O283 Eu263 2.326 . S
O283 C271 1.242 . S
O284 Tb262 2.324 . S
O284 C271 1.258 . S
O285 Eu263 2.500 . S
O285 C268 1.273 . S
O286 Eu263 2.473 . S
O286 C268 1.257 . S
H287 C273 0.929 . S
H288 C275 0.931 . S
H289 C277 0.929 . S
O290 Tb291 2.292 . S
O290 C293 1.255 . S
Tb291 O290 2.292 . S
Tb291 O307 2.326 . S
Tb291 O309 2.500 . S
Tb291 O310 2.473 . S
Tb291 O313 2.324 . S
Eu292 O296 2.292 . S
Eu292 C297 2.852 . S
Eu292 O308 2.324 . S
Eu292 O312 2.326 . S
Eu292 O314 2.500 . S
Eu292 O315 2.473 . S
C293 O290 1.255 . S
C293 O294 1.247 . S
O294 C293 1.247 . S
C295 O307 1.242 . S
C295 O308 1.258 . S
O296 Eu292 2.292 . S
O296 C298 1.255 . S
C297 Eu292 2.852 . S
C297 C301 1.503 . S
C297 O314 1.273 . S
C297 O315 1.257 . S
C298 O296 1.255 . S
C298 O299 1.247 . S
O299 C298 1.247 . S
C300 O312 1.242 . S
C300 O313 1.258 . S
C301 C297 1.503 . S
C301 C302 1.379 . S
C301 C306 1.392 . S
C302 C301 1.379 . S
C302 C303 1.404 . S
C302 H316 0.929 . S
C303 C302 1.404 . S
C303 C304 1.389 . S
C304 C303 1.389 . S
C304 C305 1.399 . S
C304 H317 0.931 . S
C305 C304 1.399 . S
C305 C306 1.390 . S
C306 C301 1.392 . S
C306 C305 1.390 . S
C306 H318 0.929 . S
O307 Tb291 2.326 . S
O307 C295 1.242 . S
O308 Eu292 2.324 . S
O308 C295 1.258 . S
O309 Tb291 2.500 . S
O309 C311 1.273 . S
O310 Tb291 2.473 . S
O310 C311 1.257 . S
C311 O309 1.273 . S
C311 O310 1.257 . S
O312 Eu292 2.326 . S
O312 C300 1.242 . S
O313 Tb291 2.324 . S
O313 C300 1.258 . S
O314 Eu292 2.500 . S
O314 C297 1.273 . S
O315 Eu292 2.473 . S
O315 C297 1.257 . S
H316 C302 0.929 . S
H317 C304 0.931 . S
H318 C306 0.929 . S
O319 Tb320 2.292 . S
O319 C322 1.255 . S
Tb320 O319 2.292 . S
Tb320 O336 2.326 . S
Tb320 O338 2.500 . S
Tb320 O339 2.473 . S
Tb320 O342 2.324 . S
Eu321 O325 2.292 . S
Eu321 C326 2.852 . S
Eu321 O337 2.324 . S
Eu321 O341 2.326 . S
Eu321 O343 2.500 . S
Eu321 O344 2.473 . S
C322 O319 1.255 . S
C322 O323 1.247 . S
O323 C322 1.247 . S
C324 O336 1.242 . S
C324 O337 1.258 . S
O325 Eu321 2.292 . S
O325 C327 1.255 . S
C326 Eu321 2.852 . S
C326 C330 1.503 . S
C326 O343 1.273 . S
C326 O344 1.257 . S
C327 O325 1.255 . S
C327 O328 1.247 . S
O328 C327 1.247 . S
C329 O341 1.242 . S
C329 O342 1.258 . S
C330 C326 1.503 . S
C330 C331 1.379 . S
C330 C335 1.392 . S
C331 C330 1.379 . S
C331 C332 1.404 . S
C331 H345 0.929 . S
C332 C331 1.404 . S
C332 C333 1.389 . S
C333 C332 1.389 . S
C333 C334 1.399 . S
C333 H346 0.931 . S
C334 C333 1.399 . S
C334 C335 1.390 . S
C335 C330 1.392 . S
C335 C334 1.390 . S
C335 H347 0.929 . S
O336 Tb320 2.326 . S
O336 C324 1.242 . S
O337 Eu321 2.324 . S
O337 C324 1.258 . S
O338 Tb320 2.500 . S
O338 C340 1.273 . S
O339 Tb320 2.473 . S
O339 C340 1.257 . S
C340 O338 1.273 . S
C340 O339 1.257 . S
O341 Eu321 2.326 . S
O341 C329 1.242 . S
O342 Tb320 2.324 . S
O342 C329 1.258 . S
O343 Eu321 2.500 . S
O343 C326 1.273 . S
O344 Eu321 2.473 . S
O344 C326 1.257 . S
H345 C331 0.929 . S
H346 C333 0.931 . S
H347 C335 0.929 . S
O348 Tb349 2.292 . S
O348 C351 1.255 . S
Tb349 O348 2.292 . S
Tb349 O365 2.326 . S
Tb349 O367 2.500 . S
Tb349 O368 2.473 . S
Tb349 O371 2.324 1_554 S
Eu350 O354 2.292 . S
Eu350 C355 2.852 1_554 S
Eu350 O366 2.324 . S
Eu350 O370 2.326 1_554 S
Eu350 O372 2.500 1_554 S
Eu350 O373 2.473 . S
C351 O348 1.255 . S
C351 O352 1.247 . S
O352 C351 1.247 . S
C353 O365 1.242 . S
C353 O366 1.258 . S
O354 Eu350 2.292 . S
O354 C356 1.255 . S
C355 Eu350 2.852 1_556 S
C355 C359 1.503 . S
C355 O372 1.273 . S
C355 O373 1.257 1_556 S
C356 O354 1.255 . S
C356 O357 1.247 . S
O357 C356 1.247 . S
C358 O370 1.242 . S
C358 O371 1.258 . S
C359 C355 1.503 . S
C359 C360 1.379 . S
C359 C364 1.392 . S
C360 C359 1.379 . S
C360 C361 1.404 . S
C360 H374 0.929 . S
C361 C360 1.404 . S
C361 C362 1.389 . S
C362 C361 1.389 . S
C362 C363 1.399 . S
C362 H375 0.931 . S
C363 C362 1.399 . S
C363 C364 1.390 . S
C364 C359 1.392 . S
C364 C363 1.390 . S
C364 H376 0.929 . S
O365 Tb349 2.326 . S
O365 C353 1.242 . S
O366 Eu350 2.324 . S
O366 C353 1.258 . S
O367 Tb349 2.500 . S
O367 C369 1.273 . S
O368 Tb349 2.473 . S
O368 C369 1.257 . S
C369 O367 1.273 . S
C369 O368 1.257 . S
O370 Eu350 2.326 1_556 S
O370 C358 1.242 . S
O371 Tb349 2.324 1_556 S
O371 C358 1.258 . S
O372 Eu350 2.500 1_556 S
O372 C355 1.273 . S
O373 Eu350 2.473 . S
O373 C355 1.257 1_554 S
H374 C360 0.929 . S
H375 C362 0.931 . S
H376 C364 0.929 . S
O377 Tb378 2.292 . S
O377 C380 1.255 . S
Tb378 O377 2.292 . S
Tb378 O394 2.326 . S
Tb378 O396 2.500 . S
Tb378 O397 2.473 . S
Tb378 O400 2.324 1_554 S
Eu379 O383 2.292 . S
Eu379 C384 2.852 1_554 S
Eu379 O395 2.324 . S
Eu379 O399 2.326 1_554 S
Eu379 O401 2.500 1_554 S
Eu379 O402 2.473 . S
C380 O377 1.255 . S
C380 O381 1.247 . S
O381 C380 1.247 . S
C382 O394 1.242 . S
C382 O395 1.258 . S
O383 Eu379 2.292 . S
O383 C385 1.255 . S
C384 Eu379 2.852 1_556 S
C384 C388 1.503 . S
C384 O401 1.273 . S
C384 O402 1.257 1_556 S
C385 O383 1.255 . S
C385 O386 1.247 . S
O386 C385 1.247 . S
C387 O399 1.242 . S
C387 O400 1.258 . S
C388 C384 1.503 . S
C388 C389 1.379 . S
C388 C393 1.392 . S
C389 C388 1.379 . S
C389 C390 1.404 . S
C389 H403 0.929 . S
C390 C389 1.404 . S
C390 C391 1.389 . S
C391 C390 1.389 . S
C391 C392 1.399 . S
C391 H404 0.931 . S
C392 C391 1.399 . S
C392 C393 1.390 . S
C393 C388 1.392 . S
C393 C392 1.390 . S
C393 H405 0.929 . S
O394 Tb378 2.326 . S
O394 C382 1.242 . S
O395 Eu379 2.324 . S
O395 C382 1.258 . S
O396 Tb378 2.500 . S
O396 C398 1.273 . S
O397 Tb378 2.473 . S
O397 C398 1.257 . S
C398 O396 1.273 . S
C398 O397 1.257 . S
O399 Eu379 2.326 1_556 S
O399 C387 1.242 . S
O400 Tb378 2.324 1_556 S
O400 C387 1.258 . S
O401 Eu379 2.500 1_556 S
O401 C384 1.273 . S
O402 Eu379 2.473 . S
O402 C384 1.257 1_554 S
H403 C389 0.929 . S
H404 C391 0.931 . S
H405 C393 0.929 . S
O406 Tb407 2.292 . S
O406 C409 1.255 . S
Tb407 O406 2.292 . S
Tb407 O423 2.326 . S
Tb407 O425 2.500 . S
Tb407 O426 2.473 . S
Tb407 O429 2.324 . S
Eu408 O412 2.292 . S
Eu408 C413 2.852 . S
Eu408 O424 2.324 . S
Eu408 O428 2.326 . S
Eu408 O430 2.500 . S
Eu408 O431 2.473 . S
C409 O406 1.255 . S
C409 O410 1.247 . S
O410 C409 1.247 . S
C411 O423 1.242 . S
C411 O424 1.258 . S
O412 Eu408 2.292 . S
O412 C414 1.255 . S
C413 Eu408 2.852 . S
C413 C417 1.503 . S
C413 O430 1.273 . S
C413 O431 1.257 . S
C414 O412 1.255 . S
C414 O415 1.247 . S
O415 C414 1.247 . S
C416 O428 1.242 . S
C416 O429 1.258 . S
C417 C413 1.503 . S
C417 C418 1.379 . S
C417 C422 1.392 . S
C418 C417 1.379 . S
C418 C419 1.404 . S
C418 H432 0.929 . S
C419 C418 1.404 . S
C419 C420 1.389 . S
C420 C419 1.389 . S
C420 C421 1.399 . S
C420 H433 0.931 . S
C421 C420 1.399 . S
C421 C422 1.390 . S
C422 C417 1.392 . S
C422 C421 1.390 . S
C422 H434 0.929 . S
O423 Tb407 2.326 . S
O423 C411 1.242 . S
O424 Eu408 2.324 . S
O424 C411 1.258 . S
O425 Tb407 2.500 . S
O425 C427 1.273 . S
O426 Tb407 2.473 . S
O426 C427 1.257 . S
C427 O425 1.273 . S
C427 O426 1.257 . S
O428 Eu408 2.326 . S
O428 C416 1.242 . S
O429 Tb407 2.324 . S
O429 C416 1.258 . S
O430 Eu408 2.500 . S
O430 C413 1.273 . S
O431 Eu408 2.473 . S
O431 C413 1.257 . S
H432 C418 0.929 . S
H433 C420 0.931 . S
H434 C422 0.929 . S
O435 Tb436 2.292 . S
O435 C438 1.255 . S
Tb436 O435 2.292 . S
Tb436 O452 2.326 . S
Tb436 O454 2.500 . S
Tb436 O455 2.473 . S
Tb436 O458 2.324 . S
Eu437 O441 2.292 . S
Eu437 C442 2.852 . S
Eu437 O453 2.324 . S
Eu437 O457 2.326 . S
Eu437 O459 2.500 . S
Eu437 O460 2.473 . S
C438 O435 1.255 . S
C438 O439 1.247 . S
O439 C438 1.247 . S
C440 O452 1.242 . S
C440 O453 1.258 . S
O441 Eu437 2.292 . S
O441 C443 1.255 . S
C442 Eu437 2.852 . S
C442 C446 1.503 . S
C442 O459 1.273 . S
C442 O460 1.257 . S
C443 O441 1.255 . S
C443 O444 1.247 . S
O444 C443 1.247 . S
C445 O457 1.242 . S
C445 O458 1.258 . S
C446 C442 1.503 . S
C446 C447 1.379 . S
C446 C451 1.392 . S
C447 C446 1.379 . S
C447 C448 1.404 . S
C447 H461 0.929 . S
C448 C447 1.404 . S
C448 C449 1.389 . S
C449 C448 1.389 . S
C449 C450 1.399 . S
C449 H462 0.931 . S
C450 C449 1.399 . S
C450 C451 1.390 . S
C451 C446 1.392 . S
C451 C450 1.390 . S
C451 H463 0.929 . S
O452 Tb436 2.326 . S
O452 C440 1.242 . S
O453 Eu437 2.324 . S
O453 C440 1.258 . S
O454 Tb436 2.500 . S
O454 C456 1.273 . S
O455 Tb436 2.473 . S
O455 C456 1.257 . S
C456 O454 1.273 . S
C456 O455 1.257 . S
O457 Eu437 2.326 . S
O457 C445 1.242 . S
O458 Tb436 2.324 . S
O458 C445 1.258 . S
O459 Eu437 2.500 . S
O459 C442 1.273 . S
O460 Eu437 2.473 . S
O460 C442 1.257 . S
H461 C447 0.929 . S
H462 C449 0.931 . S
H463 C451 0.929 . S
C464 C465 1.369 . S
C464 C466 1.419 . S
C464 H468 0.930 . S
C465 C464 1.369 . S
C465 C474 1.429 . S
C466 C464 1.419 . S
C466 C467 1.363 . S
C466 H469 0.929 . S
C467 C466 1.363 . S
C467 C473 1.428 . S
H468 C464 0.930 . S
H469 C466 0.929 . S
S470 N471 1.613 . S
S470 N472 1.610 . S
N471 S470 1.613 . S
N471 C474 1.350 . S
N472 S470 1.610 . S
N472 C473 1.351 . S
C473 C467 1.428 . S
C473 N472 1.351 . S
C473 C474 1.434 . S
C474 C465 1.429 . S
C474 N471 1.350 . S
C474 C473 1.434 . S
C475 C476 1.369 . S
C475 C477 1.419 . S
C475 H479 0.930 . S
C476 C475 1.369 . S
C476 C485 1.429 . S
C477 C475 1.419 . S
C477 C478 1.363 . S
C477 H480 0.929 . S
C478 C477 1.363 . S
C478 C484 1.428 . S
H479 C475 0.930 . S
H480 C477 0.929 . S
S481 N482 1.613 . S
S481 N483 1.610 . S
N482 S481 1.613 . S
N482 C485 1.350 . S
N483 S481 1.610 . S
N483 C484 1.351 . S
C484 C478 1.428 . S
C484 N483 1.351 . S
C484 C485 1.434 . S
C485 C476 1.429 . S
C485 N482 1.350 . S
C485 C484 1.434 . S
C486 C487 1.369 . S
C486 C488 1.419 . S
C486 H490 0.930 . S
C487 C486 1.369 . S
C487 C496 1.429 . S
C488 C486 1.419 . S
C488 C489 1.363 . S
C488 H491 0.929 . S
C489 C488 1.363 . S
C489 C495 1.428 . S
H490 C486 0.930 . S
H491 C488 0.929 . S
S492 N493 1.613 . S
S492 N494 1.610 . S
N493 S492 1.613 . S
N493 C496 1.350 . S
N494 S492 1.610 . S
N494 C495 1.351 . S
C495 C489 1.428 . S
C495 N494 1.351 . S
C495 C496 1.434 . S
C496 C487 1.429 . S
C496 N493 1.350 . S
C496 C495 1.434 . S
C497 C498 1.369 . S
C497 C499 1.419 . S
C497 H501 0.930 . S
C498 C497 1.369 . S
C498 C507 1.429 . S
C499 C497 1.419 . S
C499 C500 1.363 . S
C499 H502 0.929 . S
C500 C499 1.363 . S
C500 C506 1.428 . S
H501 C497 0.930 . S
H502 C499 0.929 . S
S503 N504 1.613 . S
S503 N505 1.610 . S
N504 S503 1.613 . S
N504 C507 1.350 . S
N505 S503 1.610 . S
N505 C506 1.351 . S
C506 C500 1.428 . S
C506 N505 1.351 . S
C506 C507 1.434 . S
C507 C498 1.429 . S
C507 N504 1.350 . S
C507 C506 1.434 . S
C508 C509 1.369 . S
C508 C510 1.419 . S
C508 H512 0.930 . S
C509 C508 1.369 . S
C509 C518 1.429 . S
C510 C508 1.419 . S
C510 C511 1.363 . S
C510 H513 0.929 . S
C511 C510 1.363 . S
C511 C517 1.428 . S
H512 C508 0.930 . S
H513 C510 0.929 . S
S514 N515 1.613 . S
S514 N516 1.610 . S
N515 S514 1.613 . S
N515 C518 1.350 . S
N516 S514 1.610 . S
N516 C517 1.351 . S
C517 C511 1.428 . S
C517 N516 1.351 . S
C517 C518 1.434 . S
C518 C509 1.429 . S
C518 N515 1.350 . S
C518 C517 1.434 . S
C519 C520 1.369 . S
C519 C521 1.419 . S
C519 H523 0.930 . S
C520 C519 1.369 . S
C520 C529 1.429 . S
C521 C519 1.419 . S
C521 C522 1.363 . S
C521 H524 0.929 . S
C522 C521 1.363 . S
C522 C528 1.428 . S
H523 C519 0.930 . S
H524 C521 0.929 . S
S525 N526 1.613 . S
S525 N527 1.610 . S
N526 S525 1.613 . S
N526 C529 1.350 . S
N527 S525 1.610 . S
N527 C528 1.351 . S
C528 C522 1.428 . S
C528 N527 1.351 . S
C528 C529 1.434 . S
C529 C520 1.429 . S
C529 N526 1.350 . S
C529 C528 1.434 . S
C530 C531 1.369 . S
C530 C532 1.419 . S
C530 H534 0.930 . S
C531 C530 1.369 . S
C531 C540 1.429 . S
C532 C530 1.419 . S
C532 C533 1.363 . S
C532 H535 0.929 . S
C533 C532 1.363 . S
C533 C539 1.428 . S
H534 C530 0.930 . S
H535 C532 0.929 . S
S536 N537 1.613 . S
S536 N538 1.610 . S
N537 S536 1.613 . S
N537 C540 1.350 . S
N538 S536 1.610 . S
N538 C539 1.351 . S
C539 C533 1.428 . S
C539 N538 1.351 . S
C539 C540 1.434 . S
C540 C531 1.429 . S
C540 N537 1.350 . S
C540 C539 1.434 . S
C541 C542 1.369 . S
C541 C543 1.419 . S
C541 H545 0.930 . S
C542 C541 1.369 . S
C542 C551 1.429 . S
C543 C541 1.419 . S
C543 C544 1.363 . S
C543 H546 0.929 . S
C544 C543 1.363 . S
C544 C550 1.428 . S
H545 C541 0.930 . S
H546 C543 0.929 . S
S547 N548 1.613 . S
S547 N549 1.610 . S
N548 S547 1.613 . S
N548 C551 1.350 . S
N549 S547 1.610 . S
N549 C550 1.351 . S
C550 C544 1.428 . S
C550 N549 1.351 . S
C550 C551 1.434 . S
C551 C542 1.429 . S
C551 N548 1.350 . S
C551 C550 1.434 . S
C552 C553 1.369 . S
C552 C554 1.419 . S
C552 H556 0.930 . S
C553 C552 1.369 . S
C553 C562 1.429 . S
C554 C552 1.419 . S
C554 C555 1.363 . S
C554 H557 0.929 . S
C555 C554 1.363 . S
C555 C561 1.428 . S
H556 C552 0.930 . S
H557 C554 0.929 . S
S558 N559 1.613 . S
S558 N560 1.610 . S
N559 S558 1.613 . S
N559 C562 1.350 . S
N560 S558 1.610 . S
N560 C561 1.351 . S
C561 C555 1.428 . S
C561 N560 1.351 . S
C561 C562 1.434 . S
C562 C553 1.429 . S
C562 N559 1.350 . S
C562 C561 1.434 . S
C563 C564 1.369 . S
C563 C565 1.419 . S
C563 H567 0.930 . S
C564 C563 1.369 . S
C564 C573 1.429 . S
C565 C563 1.419 . S
C565 C566 1.363 . S
C565 H568 0.929 . S
C566 C565 1.363 . S
C566 C572 1.428 . S
H567 C563 0.930 . S
H568 C565 0.929 . S
S569 N570 1.613 . S
S569 N571 1.610 . S
N570 S569 1.613 . S
N570 C573 1.350 . S
N571 S569 1.610 . S
N571 C572 1.351 . S
C572 C566 1.428 . S
C572 N571 1.351 . S
C572 C573 1.434 . S
C573 C564 1.429 . S
C573 N570 1.350 . S
C573 C572 1.434 . S
C574 C575 1.369 . S
C574 C576 1.419 . S
C574 H578 0.930 . S
C575 C574 1.369 . S
C575 C584 1.429 . S
C576 C574 1.419 . S
C576 C577 1.363 . S
C576 H579 0.929 . S
C577 C576 1.363 . S
C577 C583 1.428 . S
H578 C574 0.930 . S
H579 C576 0.929 . S
S580 N581 1.613 . S
S580 N582 1.610 . S
N581 S580 1.613 . S
N581 C584 1.350 . S
N582 S580 1.610 . S
N582 C583 1.351 . S
C583 C577 1.428 . S
C583 N582 1.351 . S
C583 C584 1.434 . S
C584 C575 1.429 . S
C584 N581 1.350 . S
C584 C583 1.434 . S
C585 C586 1.369 . S
C585 C587 1.419 . S
C585 H589 0.930 . S
C586 C585 1.369 . S
C586 C595 1.429 . S
C587 C585 1.419 . S
C587 C588 1.363 . S
C587 H590 0.929 . S
C588 C587 1.363 . S
C588 C594 1.428 . S
H589 C585 0.930 . S
H590 C587 0.929 . S
S591 N592 1.613 . S
S591 N593 1.610 . S
N592 S591 1.613 . S
N592 C595 1.350 . S
N593 S591 1.610 . S
N593 C594 1.351 . S
C594 C588 1.428 . S
C594 N593 1.351 . S
C594 C595 1.434 . S
C595 C586 1.429 . S
C595 N592 1.350 . S
C595 C594 1.434 . S
C596 C597 1.369 . S
C596 C598 1.419 . S
C596 H600 0.930 . S
C597 C596 1.369 . S
C597 C606 1.429 . S
C598 C596 1.419 . S
C598 C599 1.363 . S
C598 H601 0.929 . S
C599 C598 1.363 . S
C599 C605 1.428 . S
H600 C596 0.930 . S
H601 C598 0.929 . S
S602 N603 1.613 . S
S602 N604 1.610 . S
N603 S602 1.613 . S
N603 C606 1.350 . S
N604 S602 1.610 . S
N604 C605 1.351 . S
C605 C599 1.428 . S
C605 N604 1.351 . S
C605 C606 1.434 . S
C606 C597 1.429 . S
C606 N603 1.350 . S
C606 C605 1.434 . S
C607 C608 1.369 . S
C607 C609 1.419 . S
C607 H611 0.930 . S
C608 C607 1.369 . S
C608 C617 1.429 . S
C609 C607 1.419 . S
C609 C610 1.363 . S
C609 H612 0.929 . S
C610 C609 1.363 . S
C610 C616 1.428 . S
H611 C607 0.930 . S
H612 C609 0.929 . S
S613 N614 1.613 . S
S613 N615 1.610 . S
N614 S613 1.613 . S
N614 C617 1.350 . S
N615 S613 1.610 . S
N615 C616 1.351 . S
C616 C610 1.428 . S
C616 N615 1.351 . S
C616 C617 1.434 . S
C617 C608 1.429 . S
C617 N614 1.350 . S
C617 C616 1.434 . S
C618 C619 1.369 . S
C618 C620 1.419 . S
C618 H622 0.930 . S
C619 C618 1.369 . S
C619 C628 1.429 . S
C620 C618 1.419 . S
C620 C621 1.363 . S
C620 H623 0.929 . S
C621 C620 1.363 . S
C621 C627 1.428 . S
H622 C618 0.930 . S
H623 C620 0.929 . S
S624 N625 1.613 . S
S624 N626 1.610 . S
N625 S624 1.613 . S
N625 C628 1.350 . S
N626 S624 1.610 . S
N626 C627 1.351 . S
C627 C621 1.428 . S
C627 N626 1.351 . S
C627 C628 1.434 . S
C628 C619 1.429 . S
C628 N625 1.350 . S
C628 C627 1.434 . S
C629 C630 1.369 . S
C629 C631 1.419 . S
C629 H633 0.930 . S
C630 C629 1.369 . S
C630 C639 1.429 . S
C631 C629 1.419 . S
C631 C632 1.363 . S
C631 H634 0.929 . S
C632 C631 1.363 . S
C632 C638 1.428 . S
H633 C629 0.930 . S
H634 C631 0.929 . S
S635 N636 1.613 . S
S635 N637 1.610 . S
N636 S635 1.613 . S
N636 C639 1.350 . S
N637 S635 1.610 . S
N637 C638 1.351 . S
C638 C632 1.428 . S
C638 N637 1.351 . S
C638 C639 1.434 . S
C639 C630 1.429 . S
C639 N636 1.350 . S
C639 C638 1.434 . S
C640 C641 1.369 1_556 S
C640 C642 1.419 . S
C640 H644 0.930 . S
C641 C640 1.369 1_554 S
C641 C650 1.429 . S
C642 C640 1.419 . S
C642 C643 1.363 1_556 S
C642 H645 0.929 . S
C643 C642 1.363 1_554 S
C643 C649 1.428 . S
H644 C640 0.930 . S
H645 C642 0.929 . S
S646 N647 1.613 . S
S646 N648 1.610 . S
N647 S646 1.613 . S
N647 C650 1.350 . S
N648 S646 1.610 . S
N648 C649 1.351 . S
C649 C643 1.428 . S
C649 N648 1.351 . S
C649 C650 1.434 . S
C650 C641 1.429 . S
C650 N647 1.350 . S
C650 C649 1.434 . S
C651 C652 1.369 . S
C651 C653 1.419 . S
C651 H655 0.930 . S
C652 C651 1.369 . S
C652 C661 1.429 1_554 S
C653 C651 1.419 . S
C653 C654 1.363 . S
C653 H656 0.929 . S
C654 C653 1.363 . S
C654 C660 1.428 1_554 S
H655 C651 0.930 . S
H656 C653 0.929 . S
S657 N658 1.613 . S
S657 N659 1.610 . S
N658 S657 1.613 . S
N658 C661 1.350 . S
N659 S657 1.610 . S
N659 C660 1.351 . S
C660 C654 1.428 1_556 S
C660 N659 1.351 . S
C660 C661 1.434 . S
C661 C652 1.429 1_556 S
C661 N658 1.350 . S
C661 C660 1.434 . S
C662 C663 1.369 1_455 S
C662 C664 1.419 . S
C662 H666 0.930 . S
C663 C662 1.369 1_655 S
C663 C672 1.429 . S
C664 C662 1.419 . S
C664 C665 1.363 . S
C664 H667 0.929 . S
C665 C664 1.363 . S
C665 C671 1.428 1_455 S
H666 C662 0.930 . S
H667 C664 0.929 . S
S668 N669 1.613 . S
S668 N670 1.610 . S
N669 S668 1.613 . S
N669 C672 1.350 . S
N670 S668 1.610 . S
N670 C671 1.351 . S
C671 C665 1.428 1_655 S
C671 N670 1.351 . S
C671 C672 1.434 . S
C672 C663 1.429 . S
C672 N669 1.350 . S
C672 C671 1.434 . S
C673 C674 1.369 . S
C673 C675 1.419 . S
C673 H677 0.930 . S
C674 C673 1.369 . S
C674 C683 1.429 . S
C675 C673 1.419 . S
C675 C676 1.363 . S
C675 H678 0.929 . S
C676 C675 1.363 . S
C676 C682 1.428 . S
H677 C673 0.930 . S
H678 C675 0.929 . S
S679 N680 1.613 . S
S679 N681 1.610 . S
N680 S679 1.613 . S
N680 C683 1.350 . S
N681 S679 1.610 . S
N681 C682 1.351 . S
C682 C676 1.428 . S
C682 N681 1.351 . S
C682 C683 1.434 . S
C683 C674 1.429 . S
C683 N680 1.350 . S
C683 C682 1.434 . S
C684 C685 1.369 . S
C684 C686 1.419 . S
C684 H688 0.930 . S
C685 C684 1.369 . S
C685 C694 1.429 . S
C686 C684 1.419 . S
C686 C687 1.363 . S
C686 H689 0.929 . S
C687 C686 1.363 . S
C687 C693 1.428 . S
H688 C684 0.930 . S
H689 C686 0.929 . S
S690 N691 1.613 . S
S690 N692 1.610 . S
N691 S690 1.613 . S
N691 C694 1.350 . S
N692 S690 1.610 . S
N692 C693 1.351 . S
C693 C687 1.428 . S
C693 N692 1.351 . S
C693 C694 1.434 . S
C694 C685 1.429 . S
C694 N691 1.350 . S
C694 C693 1.434 . S
C695 C696 1.369 . S
C695 C697 1.419 1_665 S
C695 H699 0.930 . S
C696 C695 1.369 . S
C696 C705 1.429 . S
C697 C695 1.419 1_445 S
C697 C698 1.363 . S
C697 H700 0.929 . S
C698 C697 1.363 . S
C698 C704 1.428 . S
H699 C695 0.930 . S
H700 C697 0.929 . S
S701 N702 1.588 1_455 S
S701 N703 1.610 1_565 S
N702 S701 1.588 1_655 S
N702 C705 1.351 . S
N703 S701 1.610 1_545 S
N703 C704 1.351 . S
C704 C698 1.428 . S
C704 N703 1.351 . S
C704 C705 1.434 1_445 S
C705 C696 1.429 . S
C705 N702 1.351 . S
C705 C704 1.434 1_665 S
C706 C707 1.369 . S
C706 C708 1.419 . S
C706 H710 0.930 . S
C707 C706 1.369 . S
C707 C716 1.429 . S
C708 C706 1.419 . S
C708 C709 1.363 . S
C708 H711 0.929 . S
C709 C708 1.363 . S
C709 C715 1.428 . S
H710 C706 0.930 . S
H711 C708 0.929 . S
S712 N713 1.613 . S
S712 N714 1.610 . S
N713 S712 1.613 . S
N713 C716 1.350 . S
N714 S712 1.610 . S
N714 C715 1.351 . S
C715 C709 1.428 . S
C715 N714 1.351 . S
C715 C716 1.434 . S
C716 C707 1.429 . S
C716 N713 1.350 . S
C716 C715 1.434 . S
C717 C718 1.369 . S
C717 C719 1.419 1_565 S
C717 H721 0.930 . S
C718 C717 1.369 . S
C718 C727 1.429 . S
C719 C717 1.419 1_545 S
C719 C720 1.363 . S
C719 H722 0.929 . S
C720 C719 1.363 . S
C720 C726 1.428 . S
H721 C717 0.930 . S
H722 C719 0.929 . S
S723 N724 1.613 . S
S723 N725 1.610 1_565 S
N724 S723 1.613 . S
N724 C727 1.350 . S
N725 S723 1.610 1_545 S
N725 C726 1.351 . S
C726 C720 1.428 . S
C726 N725 1.351 . S
C726 C727 1.434 1_545 S
C727 C718 1.429 . S
C727 N724 1.350 . S
C727 C726 1.434 1_565 S
C728 C729 1.369 . S
C728 C730 1.419 . S
C728 H732 0.930 . S
C729 C728 1.369 . S
C729 C738 1.429 1_545 S
C730 C728 1.419 . S
C730 C731 1.363 . S
C730 H733 0.929 . S
C731 C730 1.363 . S
C731 C737 1.428 1_545 S
H732 C728 0.930 . S
H733 C730 0.929 . S
S734 N735 1.613 . S
S734 N736 1.610 . S
N735 S734 1.613 . S
N735 C738 1.350 . S
N736 S734 1.610 . S
N736 C737 1.351 . S
C737 C731 1.428 1_565 S
C737 N736 1.351 . S
C737 C738 1.434 . S
C738 C729 1.429 1_565 S
C738 N735 1.350 . S
C738 C737 1.434 . S
C739 C740 1.369 . S
C739 C741 1.419 . S
C739 H743 0.930 . S
C740 C739 1.369 . S
C740 C749 1.429 . S
C741 C739 1.419 . S
C741 C742 1.363 . S
C741 H744 0.929 . S
C742 C741 1.363 . S
C742 C748 1.428 . S
H743 C739 0.930 . S
H744 C741 0.929 . S
S745 N746 1.613 1_545 S
S745 N747 1.610 . S
N746 S745 1.613 1_565 S
N746 C749 1.350 . S
N747 S745 1.610 . S
N747 C748 1.351 1_545 S
C748 C742 1.428 . S
C748 N747 1.351 1_565 S
C748 C749 1.434 . S
C749 C740 1.429 . S
C749 N746 1.350 . S
C749 C748 1.434 . S
C750 C751 1.369 . S
C750 C752 1.419 . S
C750 H754 0.930 . S
C751 C750 1.369 . S
C751 C760 1.429 . S
C752 C750 1.419 . S
C752 C753 1.363 . S
C752 H755 0.929 . S
C753 C752 1.363 . S
C753 C759 1.428 . S
H754 C750 0.930 . S
H755 C752 0.929 . S
S756 N757 1.613 . S
S756 N758 1.610 . S
N757 S756 1.613 . S
N757 C760 1.350 . S
N758 S756 1.610 . S
N758 C759 1.351 . S
C759 C753 1.428 . S
C759 N758 1.351 . S
C759 C760 1.434 . S
C760 C751 1.429 . S
C760 N757 1.350 . S
C760 C759 1.434 . S
C761 C762 1.369 . S
C761 C763 1.419 . S
C761 H765 0.930 . S
C762 C761 1.369 . S
C762 C771 1.429 . S
C763 C761 1.419 . S
C763 C764 1.363 . S
C763 H766 0.929 . S
C764 C763 1.363 . S
C764 C770 1.428 . S
H765 C761 0.930 . S
H766 C763 0.929 . S
S767 N768 1.613 . S
S767 N769 1.610 . S
N768 S767 1.613 . S
N768 C771 1.350 . S
N769 S767 1.610 . S
N769 C770 1.351 . S
C770 C764 1.428 . S
C770 N769 1.351 . S
C770 C771 1.434 . S
C771 C762 1.429 . S
C771 N768 1.350 . S
C771 C770 1.434 . S
C772 C773 1.369 . S
C772 C774 1.419 . S
C772 H776 0.930 . S
C773 C772 1.369 . S
C773 C782 1.429 . S
C774 C772 1.419 . S
C774 C775 1.363 . S
C774 H777 0.929 . S
C775 C774 1.363 . S
C775 C781 1.428 . S
H776 C772 0.930 . S
H777 C774 0.929 . S
S778 N779 1.613 . S
S778 N780 1.610 . S
N779 S778 1.613 . S
N779 C782 1.350 . S
N780 S778 1.610 . S
N780 C781 1.351 . S
C781 C775 1.428 . S
C781 N780 1.351 . S
C781 C782 1.434 . S
C782 C773 1.429 . S
C782 N779 1.350 . S
C782 C781 1.434 . S
C783 C784 1.369 . S
C783 C785 1.419 . S
C783 H787 0.930 . S
C784 C783 1.369 . S
C784 C793 1.429 . S
C785 C783 1.419 . S
C785 C786 1.363 . S
C785 H788 0.929 . S
C786 C785 1.363 . S
C786 C792 1.428 . S
H787 C783 0.930 . S
H788 C785 0.929 . S
S789 N790 1.613 . S
S789 N791 1.610 . S
N790 S789 1.613 . S
N790 C793 1.350 . S
N791 S789 1.610 . S
N791 C792 1.351 . S
C792 C786 1.428 . S
C792 N791 1.351 . S
C792 C793 1.434 . S
C793 C784 1.429 . S
C793 N790 1.350 . S
C793 C792 1.434 . S
C794 C795 1.369 . S
C794 C796 1.419 1_554 S
C794 H798 0.930 . S
C795 C794 1.369 . S
C795 C804 1.429 . S
C796 C794 1.419 1_556 S
C796 C797 1.363 . S
C796 H799 0.929 . S
C797 C796 1.363 . S
C797 C803 1.428 . S
H798 C794 0.930 . S
H799 C796 0.929 . S
S800 N801 1.613 . S
S800 N802 1.610 1_454 S
N801 S800 1.613 . S
N801 C804 1.350 1_455 S
N802 S800 1.610 1_656 S
N802 C803 1.351 . S
C803 C797 1.428 . S
C803 N802 1.351 . S
C803 C804 1.434 1_556 S
C804 C795 1.429 . S
C804 N801 1.350 1_655 S
C804 C803 1.434 1_554 S
C805 C806 1.369 . S
C805 C807 1.419 1_554 S
C805 H809 0.930 1_455 S
C806 C805 1.369 . S
C806 C815 1.429 . S
C807 C805 1.419 1_556 S
C807 C808 1.363 . S
C807 H810 0.929 . S
C808 C807 1.363 . S
C808 C814 1.428 . S
H809 C805 0.930 1_655 S
H810 C807 0.929 . S
S811 N812 1.613 1_556 S
S811 N813 1.610 . S
N812 S811 1.613 1_554 S
N812 C815 1.350 . S
N813 S811 1.610 . S
N813 C814 1.351 . S
C814 C808 1.428 . S
C814 N813 1.351 . S
C814 C815 1.434 1_556 S
C815 C806 1.429 . S
C815 N812 1.350 . S
C815 C814 1.434 1_554 S
C816 C817 1.362 1_565 S
C816 C818 1.411 1_565 S
C816 H820 0.946 . S
C817 C816 1.362 1_545 S
C817 C826 1.429 . S
C818 C816 1.411 1_545 S
C818 C819 1.363 . S
C818 H821 0.929 . S
C819 C818 1.363 . S
C819 C825 1.428 . S
H820 C816 0.946 . S
H821 C818 0.929 . S
S822 N823 1.613 . S
S822 N824 1.610 . S
N823 S822 1.613 . S
N823 C826 1.350 . S
N824 S822 1.610 . S
N824 C825 1.351 . S
C825 C819 1.428 . S
C825 N824 1.351 . S
C825 C826 1.434 . S
C826 C817 1.429 . S
C826 N823 1.350 . S
C826 C825 1.434 . S
C827 C828 1.369 1_545 S
C827 C829 1.419 1_545 S
C827 H831 0.930 . S
C828 C827 1.369 1_565 S
C828 C837 1.429 . S
C829 C827 1.419 1_565 S
C829 C830 1.363 . S
C829 H832 0.929 1_565 S
C830 C829 1.363 . S
C830 C836 1.428 . S
H831 C827 0.930 . S
H832 C829 0.929 1_545 S
S833 N834 1.613 . S
S833 N835 1.610 . S
N834 S833 1.613 . S
N834 C837 1.350 . S
N835 S833 1.610 . S
N835 C836 1.351 . S
C836 C830 1.428 . S
C836 N835 1.351 . S
C836 C837 1.434 . S
C837 C828 1.429 . S
C837 N834 1.350 . S
C837 C836 1.434 . S
C838 C839 1.369 . S
C838 C840 1.419 1_554 S
C838 H842 0.930 . S
C839 C838 1.369 . S
C839 C848 1.429 . S
C840 C838 1.419 1_556 S
C840 C841 1.363 . S
C840 H843 0.929 . S
C841 C840 1.363 . S
C841 C847 1.428 . S
H842 C838 0.930 . S
H843 C840 0.929 . S
S844 N845 1.613 . S
S844 N846 1.610 1_554 S
N845 S844 1.613 . S
N845 C848 1.350 . S
N846 S844 1.610 1_556 S
N846 C847 1.351 . S
C847 C841 1.428 . S
C847 N846 1.351 . S
C847 C848 1.434 1_556 S
C848 C839 1.429 . S
C848 N845 1.350 . S
C848 C847 1.434 1_554 S
C849 C850 1.369 . S
C849 C851 1.419 1_554 S
C849 H853 0.930 . S
C850 C849 1.369 . S
C850 C859 1.429 . S
C851 C849 1.419 1_556 S
C851 C852 1.363 . S
C851 H854 0.929 . S
C852 C851 1.363 . S
C852 C858 1.428 . S
H853 C849 0.930 . S
H854 C851 0.929 . S
S855 N856 1.613 1_556 S
S855 N857 1.610 . S
N856 S855 1.613 1_554 S
N856 C859 1.350 . S
N857 S855 1.610 . S
N857 C858 1.351 . S
C858 C852 1.428 . S
C858 N857 1.351 . S
C858 C859 1.434 1_556 S
C859 C850 1.429 . S
C859 N856 1.350 . S
C859 C858 1.434 1_554 S
C860 C861 1.369 . S
C860 C862 1.419 . S
C860 H864 0.930 . S
C861 C860 1.369 . S
C861 C870 1.429 . S
C862 C860 1.419 . S
C862 C863 1.363 . S
C862 H865 0.929 . S
C863 C862 1.363 . S
C863 C869 1.428 . S
H864 C860 0.930 . S
H865 C862 0.929 . S
S866 N867 1.613 . S
S866 N868 1.610 . S
N867 S866 1.613 . S
N867 C870 1.350 . S
N868 S866 1.610 . S
N868 C869 1.351 . S
C869 C863 1.428 . S
C869 N868 1.351 . S
C869 C870 1.434 . S
C870 C861 1.429 . S
C870 N867 1.350 . S
C870 C869 1.434 . S
C871 C872 1.369 . S
C871 C873 1.419 . S
C871 H875 0.930 . S
C872 C871 1.369 . S
C872 C881 1.429 . S
C873 C871 1.419 . S
C873 C874 1.363 . S
C873 H876 0.929 . S
C874 C873 1.363 . S
C874 C880 1.428 . S
H875 C871 0.930 . S
H876 C873 0.929 . S
S877 N878 1.613 . S
S877 N879 1.610 . S
N878 S877 1.613 . S
N878 C881 1.350 . S
N879 S877 1.610 . S
N879 C880 1.351 . S
C880 C874 1.428 . S
C880 N879 1.351 . S
C880 C881 1.434 . S
C881 C872 1.429 . S
C881 N878 1.350 . S
C881 C880 1.434 . S
C882 C883 1.369 . S
C882 C884 1.419 . S
C882 H886 0.930 . S
C883 C882 1.369 . S
C883 C892 1.429 . S
C884 C882 1.419 . S
C884 C885 1.363 . S
C884 H887 0.929 . S
C885 C884 1.363 . S
C885 C891 1.428 . S
H886 C882 0.930 . S
H887 C884 0.929 . S
S888 N889 1.613 . S
S888 N890 1.610 . S
N889 S888 1.613 . S
N889 C892 1.350 . S
N890 S888 1.610 . S
N890 C891 1.351 . S
C891 C885 1.428 . S
C891 N890 1.351 . S
C891 C892 1.434 . S
C892 C883 1.429 . S
C892 N889 1.350 . S
C892 C891 1.434 . S
C893 C894 1.369 . S
C893 C895 1.419 . S
C893 H897 0.930 . S
C894 C893 1.369 . S
C894 C903 1.429 . S
C895 C893 1.419 . S
C895 C896 1.363 . S
C895 H898 0.929 . S
C896 C895 1.363 . S
C896 C902 1.428 . S
H897 C893 0.930 . S
H898 C895 0.929 . S
S899 N900 1.613 . S
S899 N901 1.610 . S
N900 S899 1.613 . S
N900 C903 1.350 . S
N901 S899 1.610 . S
N901 C902 1.351 . S
C902 C896 1.428 . S
C902 N901 1.351 . S
C902 C903 1.434 . S
C903 C894 1.429 . S
C903 N900 1.350 . S
C903 C902 1.434 . S
C904 C905 1.369 . S
C904 C906 1.419 . S
C904 H908 0.930 . S
C905 C904 1.369 . S
C905 C914 1.429 . S
C906 C904 1.419 . S
C906 C907 1.363 . S
C906 H909 0.929 . S
C907 C906 1.363 . S
C907 C913 1.428 . S
H908 C904 0.930 . S
H909 C906 0.929 . S
S910 N911 1.613 . S
S910 N912 1.610 . S
N911 S910 1.613 . S
N911 C914 1.350 . S
N912 S910 1.610 . S
N912 C913 1.351 . S
C913 C907 1.428 . S
C913 N912 1.351 . S
C913 C914 1.434 . S
C914 C905 1.429 . S
C914 N911 1.350 . S
C914 C913 1.434 . S
C915 C916 1.369 . S
C915 C917 1.419 . S
C915 H919 0.930 . S
C916 C915 1.369 . S
C916 C925 1.429 . S
C917 C915 1.419 . S
C917 C918 1.363 . S
C917 H920 0.929 . S
C918 C917 1.363 . S
C918 C924 1.428 . S
H919 C915 0.930 . S
H920 C917 0.929 . S
S921 N922 1.613 . S
S921 N923 1.610 . S
N922 S921 1.613 . S
N922 C925 1.350 . S
N923 S921 1.610 . S
N923 C924 1.351 . S
C924 C918 1.428 . S
C924 N923 1.351 . S
C924 C925 1.434 . S
C925 C916 1.429 . S
C925 N922 1.350 . S
C925 C924 1.434 . S
C926 C927 1.369 . S
C926 C928 1.419 . S
C926 H930 0.930 . S
C927 C926 1.369 . S
C927 C936 1.429 . S
C928 C926 1.419 . S
C928 C929 1.363 . S
C928 H931 0.929 . S
C929 C928 1.363 . S
C929 C935 1.428 . S
H930 C926 0.930 . S
H931 C928 0.929 . S
S932 N933 1.613 . S
S932 N934 1.610 . S
N933 S932 1.613 . S
N933 C936 1.350 . S
N934 S932 1.610 . S
N934 C935 1.351 . S
C935 C929 1.428 . S
C935 N934 1.351 . S
C935 C936 1.434 . S
C936 C927 1.429 . S
C936 N933 1.350 . S
C936 C935 1.434 . S
C937 C938 1.369 . S
C937 C939 1.419 . S
C937 H941 0.930 . S
C938 C937 1.369 . S
C938 C947 1.429 . S
C939 C937 1.419 . S
C939 C940 1.363 . S
C939 H942 0.929 . S
C940 C939 1.363 . S
C940 C946 1.428 . S
H941 C937 0.930 . S
H942 C939 0.929 . S
S943 N944 1.613 . S
S943 N945 1.610 . S
N944 S943 1.613 . S
N944 C947 1.350 . S
N945 S943 1.610 . S
N945 C946 1.351 . S
C946 C940 1.428 . S
C946 N945 1.351 . S
C946 C947 1.434 . S
C947 C938 1.429 . S
C947 N944 1.350 . S
C947 C946 1.434 . S
C948 C949 1.369 . S
C948 C950 1.419 . S
C948 H952 0.930 . S
C949 C948 1.369 . S
C949 C958 1.429 . S
C950 C948 1.419 . S
C950 C951 1.363 . S
C950 H953 0.929 . S
C951 C950 1.363 . S
C951 C957 1.428 . S
H952 C948 0.930 . S
H953 C950 0.929 . S
S954 N955 1.613 . S
S954 N956 1.610 . S
N955 S954 1.613 . S
N955 C958 1.350 . S
N956 S954 1.610 . S
N956 C957 1.351 . S
C957 C951 1.428 . S
C957 N956 1.351 . S
C957 C958 1.434 . S
C958 C949 1.429 . S
C958 N955 1.350 . S
C958 C957 1.434 . S
C959 C960 1.369 . S
C959 C961 1.419 . S
C959 H963 0.930 . S
C960 C959 1.369 . S
C960 C969 1.429 . S
C961 C959 1.419 . S
C961 C962 1.363 . S
C961 H964 0.929 . S
C962 C961 1.363 . S
C962 C968 1.428 . S
H963 C959 0.930 . S
H964 C961 0.929 . S
S965 N966 1.613 . S
S965 N967 1.610 . S
N966 S965 1.613 . S
N966 C969 1.350 . S
N967 S965 1.610 . S
N967 C968 1.351 . S
C968 C962 1.428 . S
C968 N967 1.351 . S
C968 C969 1.434 . S
C969 C960 1.429 . S
C969 N966 1.350 . S
C969 C968 1.434 . S
C970 C971 1.369 . S
C970 C972 1.419 . S
C970 H974 0.930 . S
C971 C970 1.369 . S
C971 C980 1.429 . S
C972 C970 1.419 . S
C972 C973 1.363 . S
C972 H975 0.929 . S
C973 C972 1.363 . S
C973 C979 1.428 . S
H974 C970 0.930 . S
H975 C972 0.929 . S
S976 N977 1.613 . S
S976 N978 1.610 . S
N977 S976 1.613 . S
N977 C980 1.350 . S
N978 S976 1.610 . S
N978 C979 1.351 . S
C979 C973 1.428 . S
C979 N978 1.351 . S
C979 C980 1.434 . S
C980 C971 1.429 . S
C980 N977 1.350 . S
C980 C979 1.434 . S
C981 C982 1.369 . S
C981 C983 1.419 . S
C981 H985 0.930 . S
C982 C981 1.369 . S
C982 C991 1.429 . S
C983 C981 1.419 . S
C983 C984 1.363 . S
C983 H986 0.929 . S
C984 C983 1.363 . S
C984 C990 1.428 . S
H985 C981 0.930 . S
H986 C983 0.929 . S
S987 N988 1.613 . S
S987 N989 1.610 . S
N988 S987 1.613 . S
N988 C991 1.350 . S
N989 S987 1.610 . S
N989 C990 1.351 . S
C990 C984 1.428 . S
C990 N989 1.351 . S
C990 C991 1.434 . S
C991 C982 1.429 . S
C991 N988 1.350 . S
C991 C990 1.434 . S
C992 C993 1.369 . S
C992 C994 1.419 . S
C992 H996 0.930 . S
C993 C992 1.369 . S
C993 C1002 1.429 . S
C994 C992 1.419 . S
C994 C995 1.363 . S
C994 H997 0.929 . S
C995 C994 1.363 . S
C995 C1001 1.428 . S
H996 C992 0.930 . S
H997 C994 0.929 . S
S998 N999 1.613 . S
S998 N1000 1.610 . S
N999 S998 1.613 . S
N999 C1002 1.350 . S
N1000 S998 1.610 . S
N1000 C1001 1.351 . S
C1001 C995 1.428 . S
C1001 N1000 1.351 . S
C1001 C1002 1.434 . S
C1002 C993 1.429 . S
C1002 N999 1.350 . S
C1002 C1001 1.434 . S
C1003 C1004 1.369 . S
C1003 C1005 1.419 . S
C1003 H1007 0.930 . S
C1004 C1003 1.369 . S
C1004 C1013 1.429 . S
C1005 C1003 1.419 . S
C1005 C1006 1.363 . S
C1005 H1008 0.929 . S
C1006 C1005 1.363 . S
C1006 C1012 1.428 . S
H1007 C1003 0.930 . S
H1008 C1005 0.929 . S
S1009 N1010 1.613 . S
S1009 N1011 1.610 . S
N1010 S1009 1.613 . S
N1010 C1013 1.350 . S
N1011 S1009 1.610 . S
N1011 C1012 1.351 . S
C1012 C1006 1.428 . S
C1012 N1011 1.351 . S
C1012 C1013 1.434 . S
C1013 C1004 1.429 . S
C1013 N1010 1.350 . S
C1013 C1012 1.434 . S
C1014 C1015 1.369 . S
C1014 C1016 1.419 . S
C1014 H1018 0.930 . S
C1015 C1014 1.369 . S
C1015 C1024 1.429 . S
C1016 C1014 1.419 . S
C1016 C1017 1.363 . S
C1016 H1019 0.929 . S
C1017 C1016 1.363 . S
C1017 C1023 1.428 . S
H1018 C1014 0.930 . S
H1019 C1016 0.929 . S
S1020 N1021 1.613 . S
S1020 N1022 1.610 . S
N1021 S1020 1.613 . S
N1021 C1024 1.350 . S
N1022 S1020 1.610 . S
N1022 C1023 1.351 . S
C1023 C1017 1.428 . S
C1023 N1022 1.351 . S
C1023 C1024 1.434 . S
C1024 C1015 1.429 . S
C1024 N1021 1.350 . S
C1024 C1023 1.434 . S
C1025 C1026 1.369 . S
C1025 C1027 1.419 . S
C1025 H1029 0.930 . S
C1026 C1025 1.369 . S
C1026 C1035 1.429 . S
C1027 C1025 1.419 . S
C1027 C1028 1.363 . S
C1027 H1030 0.929 . S
C1028 C1027 1.363 . S
C1028 C1034 1.428 . S
H1029 C1025 0.930 . S
H1030 C1027 0.929 . S
S1031 N1032 1.613 . S
S1031 N1033 1.610 . S
N1032 S1031 1.613 . S
N1032 C1035 1.350 . S
N1033 S1031 1.610 . S
N1033 C1034 1.351 . S
C1034 C1028 1.428 . S
C1034 N1033 1.351 . S
C1034 C1035 1.434 . S
C1035 C1026 1.429 . S
C1035 N1032 1.350 . S
C1035 C1034 1.434 . S
C1036 C1037 1.369 . S
C1036 C1038 1.419 . S
C1036 H1040 0.930 . S
C1037 C1036 1.369 . S
C1037 C1046 1.429 . S
C1038 C1036 1.419 . S
C1038 C1039 1.363 . S
C1038 H1041 0.929 . S
C1039 C1038 1.363 . S
C1039 C1045 1.428 . S
H1040 C1036 0.930 . S
H1041 C1038 0.929 . S
S1042 N1043 1.613 . S
S1042 N1044 1.610 . S
N1043 S1042 1.613 . S
N1043 C1046 1.350 . S
N1044 S1042 1.610 . S
N1044 C1045 1.351 . S
C1045 C1039 1.428 . S
C1045 N1044 1.351 . S
C1045 C1046 1.434 . S
C1046 C1037 1.429 . S
C1046 N1043 1.350 . S
C1046 C1045 1.434 . S
C1047 C1048 1.369 . S
C1047 C1049 1.419 . S
C1047 H1051 0.930 . S
C1048 C1047 1.369 . S
C1048 C1057 1.429 . S
C1049 C1047 1.419 . S
C1049 C1050 1.363 . S
C1049 H1052 0.929 . S
C1050 C1049 1.363 . S
C1050 C1056 1.428 . S
H1051 C1047 0.930 . S
H1052 C1049 0.929 . S
S1053 N1054 1.613 . S
S1053 N1055 1.610 . S
N1054 S1053 1.613 . S
N1054 C1057 1.350 . S
N1055 S1053 1.610 . S
N1055 C1056 1.351 . S
C1056 C1050 1.428 . S
C1056 N1055 1.351 . S
C1056 C1057 1.434 . S
C1057 C1048 1.429 . S
C1057 N1054 1.350 . S
C1057 C1056 1.434 . S
C1058 C1059 1.369 . S
C1058 C1060 1.419 . S
C1058 H1062 0.930 . S
C1059 C1058 1.369 . S
C1059 C1068 1.429 . S
C1060 C1058 1.419 . S
C1060 C1061 1.363 . S
C1060 H1063 0.929 . S
C1061 C1060 1.363 . S
C1061 C1067 1.428 . S
H1062 C1058 0.930 . S
H1063 C1060 0.929 . S
S1064 N1065 1.613 . S
S1064 N1066 1.610 . S
N1065 S1064 1.613 . S
N1065 C1068 1.350 . S
N1066 S1064 1.610 . S
N1066 C1067 1.351 . S
C1067 C1061 1.428 . S
C1067 N1066 1.351 . S
C1067 C1068 1.434 . S
C1068 C1059 1.429 . S
C1068 N1065 1.350 . S
C1068 C1067 1.434 . S
C1069 C1070 1.369 . S
C1069 C1071 1.419 . S
C1069 H1073 0.930 . S
C1070 C1069 1.369 . S
C1070 C1079 1.429 . S
C1071 C1069 1.419 . S
C1071 C1072 1.363 . S
C1071 H1074 0.929 . S
C1072 C1071 1.363 . S
C1072 C1078 1.428 . S
H1073 C1069 0.930 . S
H1074 C1071 0.929 . S
S1075 N1076 1.613 . S
S1075 N1077 1.610 . S
N1076 S1075 1.613 . S
N1076 C1079 1.350 . S
N1077 S1075 1.610 . S
N1077 C1078 1.351 . S
C1078 C1072 1.428 . S
C1078 N1077 1.351 . S
C1078 C1079 1.434 . S
C1079 C1070 1.429 . S
C1079 N1076 1.350 . S
C1079 C1078 1.434 . S
C465 C416 2.279 . S
C467 C3 2.338 . S
C476 C445 2.280 . S
C478 C32 2.337 . S
C487 C61 2.338 . S
C489 C242 2.276 . S
C498 C271 2.274 . S
C500 C90 2.340 . S
C509 C119 2.337 . S
C511 C300 2.277 . S
C520 C329 2.274 . S
C522 C148 2.340 . S
C531 C358 2.275 . S
C533 C177 2.341 . S
C542 C206 2.336 . S
C544 C387 2.280 . S
C553 C235 2.340 . S
C555 C184 2.275 . S
C564 C264 2.337 . S
C566 C213 2.280 . S
C575 C293 2.339 . S
C577 C10 2.281 . S
C586 C322 2.337 . S
C588 C39 2.279 . S
C597 C351 2.339 . S
C599 C68 2.274 . S
C608 C97 2.278 . S
C610 C380 2.339 . S
C619 C126 2.281 . S
C621 C409 2.338 . S
C630 C155 2.276 . S
C632 C438 2.338 . S
C641 C385 0.917 . S
C643 C8 0.920 . S
C652 C356 0.927 . S
C654 C37 0.924 . S
C663 C66 0.927 . S
C665 C95 0.924 . S
C674 C124 0.926 . S
C676 C269 0.926 . S
C685 C240 0.915 . S
C687 C153 0.917 . S
C696 C182 0.915 . S
C698 C211 0.917 . S
C707 C327 0.915 . S
C709 C298 0.918 . S
C718 C414 0.926 . S
C720 C443 0.926 . S
C729 C274 2.134 1_545 S
C731 C5 2.409 . S
C740 C34 2.412 . S
C742 C245 2.134 1_565 S
C751 C63 2.412 . S
C753 C216 2.135 . S
C762 C187 2.134 . S
C764 C92 2.411 . S
C773 C121 2.411 . S
C775 C390 2.138 . S
C784 C361 2.134 . S
C786 C150 2.413 . S
C795 C100 2.145 . S
C797 C179 2.407 . S
C806 C71 2.134 . S
C808 C208 2.411 . S
C817 C42 2.143 1_545 S
C819 C237 2.410 . S
C828 C13 2.144 1_565 S
C830 C266 2.410 . S
C839 C448 2.135 . S
C841 C295 2.411 . S
C850 C419 2.142 . S
C852 C324 2.409 . S
C861 C353 2.412 . S
C863 C158 2.134 . S
C872 C129 2.141 . S
C874 C382 2.407 . S
C883 C411 2.412 . S
C885 C332 2.135 . S
C894 C303 2.145 . S
C896 C440 2.407 . S
C905 C224 1.367 . S
C907 C15 1.515 . S
C916 C44 1.511 . S
C918 C195 1.374 . S
C927 C73 1.501 . S
C929 C398 1.382 . S
C938 C102 1.511 . S
C940 C369 1.374 . S
C949 C131 1.513 . S
C951 C108 1.372 . S
C960 C79 1.381 . S
C962 C160 1.505 . S
C971 C189 1.507 . S
C973 C282 1.377 . S
C982 C253 1.367 . S
C984 C218 1.515 . S
C993 C247 1.517 . S
C995 C456 1.369 . S
C1004 C276 1.501 . S
C1006 C427 1.383 . S
C1015 C305 1.511 . S
C1017 C166 1.374 . S
C1026 C137 1.383 . S
C1028 C334 1.504 . S
C1037 C340 1.366 . S
C1039 C363 1.515 . S
C1048 C311 1.377 . S
C1050 C392 1.509 . S
C1059 C421 1.516 . S
C1061 C50 1.370 . S
C1070 C450 1.504 . S
C1072 C21 1.379 . S
