# Generated by pormake.
# Topology unf, (4)-cn, num edge types: 1
# Building blocks:
#     Node 0, Type 0, BuildingBlock: QUQFOY_clean_sbu_3, # of connection points: 4
#     Node 1, Type 0, BuildingBlock: QUQFOY_clean_sbu_3, # of connection points: 4
#     Node 2, Type 0, BuildingBlock: QUQFOY_clean_sbu_3, # of connection points: 4
#     Node 3, Type 0, BuildingBlock: QUQFOY_clean_sbu_3, # of connection points: 4
#     Node 4, Type 0, BuildingBlock: QUQFOY_clean_sbu_3, # of connection points: 4
#     Node 5, Type 0, BuildingBlock: QUQFOY_clean_sbu_3, # of connection points: 4
#     Node 6, Type 0, BuildingBlock: QUQFOY_clean_sbu_3, # of connection points: 4
#     Node 7, Type 0, BuildingBlock: QUQFOY_clean_sbu_3, # of connection points: 4
#     Node 8, Type 0, BuildingBlock: QUQFOY_clean_sbu_3, # of connection points: 4
#     Node 9, Type 0, BuildingBlock: QUQFOY_clean_sbu_3, # of connection points: 4
#     Node 10, Type 0, BuildingBlock: QUQFOY_clean_sbu_3, # of connection points: 4
#     Node 11, Type 0, BuildingBlock: QUQFOY_clean_sbu_3, # of connection points: 4
#     Edge 12, Type (0, 0), BuildingBlock: XIVTED_clean_linker_0, # of connection points: 2
#     Edge 13, Type (0, 0), BuildingBlock: XIVTED_clean_linker_0, # of connection points: 2
#     Edge 14, Type (0, 0), BuildingBlock: XIVTED_clean_linker_0, # of connection points: 2
#     Edge 15, Type (0, 0), BuildingBlock: XIVTED_clean_linker_0, # of connection points: 2
#     Edge 16, Type (0, 0), BuildingBlock: XIVTED_clean_linker_0, # of connection points: 2
#     Edge 17, Type (0, 0), BuildingBlock: XIVTED_clean_linker_0, # of connection points: 2
#     Edge 18, Type (0, 0), BuildingBlock: XIVTED_clean_linker_0, # of connection points: 2
#     Edge 19, Type (0, 0), BuildingBlock: XIVTED_clean_linker_0, # of connection points: 2
#     Edge 20, Type (0, 0), BuildingBlock: XIVTED_clean_linker_0, # of connection points: 2
#     Edge 21, Type (0, 0), BuildingBlock: XIVTED_clean_linker_0, # of connection points: 2
#     Edge 22, Type (0, 0), BuildingBlock: XIVTED_clean_linker_0, # of connection points: 2
#     Edge 23, Type (0, 0), BuildingBlock: XIVTED_clean_linker_0, # of connection points: 2
#     Edge 24, Type (0, 0), BuildingBlock: XIVTED_clean_linker_0, # of connection points: 2
#     Edge 25, Type (0, 0), BuildingBlock: XIVTED_clean_linker_0, # of connection points: 2
#     Edge 26, Type (0, 0), BuildingBlock: XIVTED_clean_linker_0, # of connection points: 2
#     Edge 27, Type (0, 0), BuildingBlock: XIVTED_clean_linker_0, # of connection points: 2
#     Edge 28, Type (0, 0), BuildingBlock: XIVTED_clean_linker_0, # of connection points: 2
#     Edge 29, Type (0, 0), BuildingBlock: XIVTED_clean_linker_0, # of connection points: 2
#     Edge 30, Type (0, 0), BuildingBlock: XIVTED_clean_linker_0, # of connection points: 2
#     Edge 31, Type (0, 0), BuildingBlock: XIVTED_clean_linker_0, # of connection points: 2
#     Edge 32, Type (0, 0), BuildingBlock: XIVTED_clean_linker_0, # of connection points: 2
#     Edge 33, Type (0, 0), BuildingBlock: XIVTED_clean_linker_0, # of connection points: 2
#     Edge 34, Type (0, 0), BuildingBlock: XIVTED_clean_linker_0, # of connection points: 2
#     Edge 35, Type (0, 0), BuildingBlock: XIVTED_clean_linker_0, # of connection points: 2
# Relax obj value: 0.224
# Max RMSD: 0.172
# Mean RMSD: 0.172
data_MOF--net-unf--node1-QUQFOY_clean_sbu_3--edge1-XIVTED_clean_linker_0
_symmetry_space_group_name_H-M    P1
_symmetry_Int_Tables_number       1
_symmetry_cell_setting            triclinic
loop_
_symmetry_equiv_pos_as_xyz
'x, y, z'
_cell_length_a     38.721011
_cell_length_b     38.686823
_cell_length_c     38.606317
_cell_angle_alpha  90.185771
_cell_angle_beta   89.873006
_cell_angle_gamma 120.06633
loop_
_atom_site_label
_atom_site_type_symbol
_atom_site_fract_x
_atom_site_fract_y
_atom_site_fract_z
_atom_type_partial_charge
C0 C 0.12454 0.45878 0.97787 0.0
O1 O 0.14015 0.44968 0.95309 0.0
Cd2 Cd 0.15783 0.39858 0.96011 0.0
O3 O 0.12455 0.44643 0.00837 0.0
Cd4 Cd 0.14586 0.40568 0.03999 0.0
C5 C 0.06741 0.33434 -0.00316 0.0
O6 O 0.201 0.40719 0.00771 0.0
O7 O 0.16327 0.35458 0.03831 0.0
O8 O 0.18132 0.45053 0.08867 0.0
C9 C 0.1945 0.37403 0.02018 0.0
O10 O 0.09108 0.34233 0.97126 0.0
C11 C 0.15864 0.42566 0.11136 0.0
O12 O 0.07913 0.3543 0.02487 0.0
O13 O 0.12935 0.39322 0.10041 0.0
C14 C 0.49967 0.60325 0.01959 0.0
O15 O 0.49616 0.62113 -0.0065 0.0
Cd16 Cd 0.55504 0.68431 0.98387 0.0
O17 O 0.52404 0.62336 0.04357 0.0
Cd18 Cd 0.5698 0.69194 0.06264 0.0
C19 C 0.6207 0.65811 0.02095 0.0
O20 O 0.56612 0.73801 0.02165 0.0
O21 O 0.6238 0.75454 0.04399 0.0
O22 O 0.52816 0.69485 0.1086 0.0
C23 C 0.60276 0.76416 0.0257 0.0
O24 O 0.6038 0.66303 -0.00536 0.0
C25 C 0.55462 0.70512 0.13199 0.0
O26 O 0.61473 0.66688 0.05134 0.0
O27 O 0.58734 0.70728 0.12333 0.0
C28 C 0.36816 0.84208 0.03874 0.0
O29 O 0.34973 0.81996 0.01304 0.0
Cd30 Cd 0.28521 0.81228 0.00323 0.0
O31 O 0.34866 0.84689 0.06297 0.0
Cd32 Cd 0.27984 0.8235 0.08169 0.0
C33 C 0.30987 0.90546 0.03586 0.0
O34 O 0.2336 0.77006 0.04288 0.0
O35 O 0.21523 0.81031 0.06431 0.0
O36 O 0.27921 0.78479 0.13208 0.0
C37 C 0.20627 0.77884 0.04728 0.0
O38 O 0.3048 0.88259 0.01021 0.0
C39 C 0.26868 0.80338 0.15291 0.0
O40 O 0.30241 0.89211 0.06668 0.0
O41 O 0.26567 0.83222 0.1407 0.0
C42 C 0.45671 0.8827 0.43551 0.0
O43 O 0.44102 0.85777 0.45997 0.0
Cd44 Cd 0.49255 0.8507 0.48688 0.0
O45 O 0.48788 0.8866 0.42087 0.0
Cd46 Cd 0.52891 0.85433 0.42193 0.0
C47 C 0.57528 0.93957 0.46175 0.0
O48 O 0.50523 0.80014 0.46442 0.0
O49 O 0.569 0.84133 0.46155 0.0
O50 O 0.50002 0.81256 0.37078 0.0
C51 C 0.54043 0.80829 0.47215 0.0
O52 O 0.54903 0.91972 0.48467 0.0
C53 C 0.53327 0.82481 0.35553 0.0
O54 O 0.57667 0.923 0.43371 0.0
O55 O 0.56421 0.85186 0.37071 0.0
C56 C 0.09179 0.64974 0.51967 0.0
O57 O 0.10157 0.67487 0.5442 0.0
Cd58 Cd 0.12936 0.74566 0.53481 0.0
O59 O 0.10112 0.66165 0.48858 0.0
Cd60 Cd 0.1334 0.72466 0.45674 0.0
C61 C 0.05312 0.73033 0.48144 0.0
O62 O 0.18358 0.77676 0.49453 0.0
O63 O 0.15563 0.79421 0.45513 0.0
O64 O 0.17549 0.71465 0.41443 0.0
C65 C 0.18221 0.80462 0.47826 0.0
O66 O 0.07129 0.74536 0.50985 0.0
C67 C 0.15585 0.71616 0.38864 0.0
O68 O 0.06791 0.71762 0.4587 0.0
O69 O 0.12538 0.71922 0.39521 0.0
C70 C 0.34117 0.49064 0.47346 0.0
O71 O 0.32283 0.49249 0.50005 0.0
Cd72 Cd 0.25359 0.44295 0.50561 0.0
O73 O 0.32158 0.46988 0.44746 0.0
Cd74 Cd 0.2523 0.42799 0.42859 0.0
C75 C 0.26864 0.36734 0.47713 0.0
O76 O 0.20844 0.44287 0.46306 0.0
O77 O 0.18623 0.38111 0.44829 0.0
O78 O 0.25706 0.46578 0.37632 0.0
C79 C 0.17913 0.40744 0.46039 0.0
O80 O 0.26014 0.38321 0.50229 0.0
C81 C 0.24377 0.43549 0.35647 0.0
O82 O 0.26961 0.37901 0.44619 0.0
O83 O 0.23648 0.40265 0.37009 0.0
C84 C 0.88501 0.48408 0.94178 0.0
O85 O 0.86411 0.47879 0.96873 0.0
Cd86 Cd 0.84088 0.52404 0.9825 0.0
O87 O 0.88613 0.50729 0.91798 0.0
Cd88 Cd 0.85593 0.54893 0.90645 0.0
C89 C 0.92929 0.60729 0.95959 0.0
O90 O 0.79622 0.52717 0.94213 0.0
O91 O 0.83402 0.59071 0.93339 0.0
O92 O 0.822 0.5173 0.85241 0.0
C93 C 0.80121 0.56217 0.94437 0.0
O94 O 0.90432 0.58722 0.98333 0.0
C95 C 0.83816 0.5496 0.83516 0.0
O96 O 0.92083 0.59857 0.92775 0.0
O97 O 0.86431 0.58087 0.85063 0.0
C98 C 0.50009 0.34944 0.98688 0.0
O99 O 0.49891 0.32991 0.01364 0.0
Cd100 Cd 0.45244 0.25958 0.01492 0.0
O101 O 0.48509 0.3312 0.95855 0.0
Cd102 Cd 0.45134 0.26266 0.93582 0.0
C103 C 0.3787 0.2695 0.97463 0.0
O104 O 0.46278 0.21913 0.97405 0.0
O105 O 0.40386 0.19536 0.9517 0.0
O106 O 0.49604 0.27083 0.88716 0.0
C107 C 0.42849 0.18914 0.9682 0.0
O108 O 0.391 0.26081 0.00207 0.0
C109 C 0.46783 0.25657 0.86512 0.0
O110 O 0.39663 0.2742 0.94589 0.0
O111 O 0.43333 0.24757 0.87594 0.0
C112 C 0.62591 0.0868 0.99018 0.0
O113 O 0.65233 0.1011 0.01374 0.0
Cd114 Cd 0.72242 0.12723 0.00297 0.0
O115 O 0.63602 0.09117 0.9584 0.0
Cd116 Cd 0.69704 0.12009 0.92356 0.0
C117 C 0.70296 0.0434 0.95727 0.0
O118 O 0.75007 0.1744 0.95714 0.0
O119 O 0.76665 0.14305 0.92014 0.0
O120 O 0.68366 0.158 0.88019 0.0
C121 C 0.77752 0.17165 0.94143 0.0
O122 O 0.71922 0.06561 0.98364 0.0
C123 C 0.68607 0.13817 0.85486 0.0
O124 O 0.68959 0.05482 0.93238 0.0
O125 O 0.69044 0.10859 0.8621 0.0
C126 C 0.47677 0.14185 0.47955 0.0
O127 O 0.4635 0.15695 0.45782 0.0
Cd128 Cd 0.41914 0.18114 0.47376 0.0
O129 O 0.47292 0.14532 0.51195 0.0
Cd130 Cd 0.44398 0.1726 0.55269 0.0
C131 C 0.35953 0.09546 0.51962 0.0
O132 O 0.44242 0.22624 0.5215 0.0
O133 O 0.39912 0.19742 0.56245 0.0
O134 O 0.49602 0.20766 0.59699 0.0
C135 C 0.41407 0.22445 0.53957 0.0
O136 O 0.36349 0.11743 0.49362 0.0
C137 C 0.47488 0.18363 0.62085 0.0
O138 O 0.38543 0.10783 0.54371 0.0
O139 O 0.4415 0.15411 0.61201 0.0
C140 C 0.8424 0.38874 0.53471 0.0
O141 O 0.8202 0.37772 0.50813 0.0
Cd142 Cd 0.8067 0.31385 0.48728 0.0
O143 O 0.84465 0.36276 0.5531 0.0
Cd144 Cd 0.81298 0.28955 0.55594 0.0
C145 C 0.89497 0.31961 0.51205 0.0
O146 O 0.7568 0.25411 0.51572 0.0
O147 O 0.7979 0.23181 0.52176 0.0
O148 O 0.77314 0.28147 0.60754 0.0
C149 C 0.76438 0.22595 0.51125 0.0
O150 O 0.87415 0.32297 0.4882 0.0
C151 C 0.78625 0.26217 0.62423 0.0
O152 O 0.88034 0.30729 0.542 0.0
O153 O 0.81298 0.25733 0.60963 0.0
C154 C 0.60808 0.51834 0.50438 0.0
O155 O 0.62708 0.51915 0.47731 0.0
Cd156 Cd 0.68615 0.58271 0.47203 0.0
O157 O 0.62688 0.54097 0.52981 0.0
Cd158 Cd 0.69547 0.58844 0.54876 0.0
C159 C 0.65431 0.63812 0.51967 0.0
O160 O 0.74291 0.59262 0.50463 0.0
O161 O 0.75492 0.64744 0.5304 0.0
O162 O 0.70414 0.54552 0.59014 0.0
C163 C 0.76715 0.62931 0.51093 0.0
O164 O 0.6595 0.6254 0.49075 0.0
C165 C 0.71463 0.57055 0.6149 0.0
O166 O 0.66572 0.63016 0.54788 0.0
O167 O 0.71388 0.6025 0.60921 0.0
H168 H 0.19194 0.30928 0.04989 0.0
H169 H 0.3601 0.31138 0.92871 0.0
H170 H 0.25376 0.39861 0.97121 0.0
H171 H 0.3245 0.2502 0.02695 0.0
H172 H 0.31279 0.335 0.9377 0.0
H173 H 0.2328 0.27957 0.03585 0.0
C174 C 0.21413 0.32264 0.0296 0.0
C175 C 0.21966 0.35658 0.01177 0.0
C176 C 0.31517 0.31613 0.9571 0.0
C177 C 0.26629 0.3225 -0.00454 0.0
C178 C 0.34187 0.30235 0.95189 0.0
C179 C 0.34636 0.27896 0.97725 0.0
C180 C 0.29258 0.30606 0.98766 0.0
C181 C 0.32217 0.26839 0.00686 0.0
C182 C 0.23743 0.30565 0.02163 0.0
C183 C 0.24879 0.37261 0.98572 0.0
N184 N 0.29639 0.28213 0.0113 0.0
N185 N 0.27108 0.35534 0.97828 0.0
H186 H 0.67945 0.82467 0.0319 0.0
H187 H 0.64611 0.9792 0.92109 0.0
H188 H 0.56784 0.79369 0.98201 0.0
H189 H 0.74035 0.01312 -0.00392 0.0
H190 H 0.62463 0.90891 0.93163 0.0
H191 H 0.70884 0.89153 0.00766 0.0
C192 C 0.66114 0.83186 0.01566 0.0
C193 C 0.62095 0.80377 0.00932 0.0
C194 C 0.65036 0.93183 0.94534 0.0
C195 C 0.65458 0.88027 0.98142 0.0
C196 C 0.66284 0.9719 0.93918 0.0
C197 C 0.69475 0.00193 0.9581 0.0
C198 C 0.67025 0.92195 0.97029 0.0
C199 C 0.71528 0.99085 0.98128 0.0
C200 C 0.678 0.87004 0.00182 0.0
C201 C 0.59882 0.81464 0.98783 0.0
N202 N 0.70246 0.95169 0.98693 0.0
N203 N 0.61589 0.85226 0.97478 0.0
H204 H 0.18165 0.72225 -0.00423 0.0
H205 H 0.9524 0.65104 0.01915 0.0
H206 H 0.13967 0.78134 0.06481 0.0
H207 H -0.0015 0.63203 0.92351 0.0
H208 H 0.02075 0.69508 0.03892 0.0
H209 H 0.11406 0.68377 0.97152 0.0
C210 C 0.15823 0.72703 0.00583 0.0
C211 C 0.16611 0.75487 0.03234 0.0
C212 C 0.01588 0.68163 0.01344 0.0
C213 C 0.08933 0.71122 0.005 0.0
C214 C 0.97695 0.65655 0.00217 0.0
C215 C 0.96992 0.63799 0.96968 0.0
C216 C 0.04794 0.68745 0.99237 0.0
C217 C 0.00273 0.64605 0.94866 0.0
C218 C 0.11988 0.70537 0.99185 0.0
C219 C 0.13486 0.76019 0.04435 0.0
N220 N 0.04047 0.66982 0.96058 0.0
N221 N 0.09776 0.73834 0.03078 0.0
H222 H 0.66432 0.69804 0.56379 0.0
H223 H 0.4961 0.72685 0.47123 0.0
H224 H 0.59387 0.6269 0.47732 0.0
H225 H 0.60433 0.82527 0.51261 0.0
H226 H 0.5183 0.68079 0.49078 0.0
H227 H 0.62923 0.73629 0.5612 0.0
C228 C 0.64122 0.6903 0.54456 0.0
C229 C 0.63242 0.66002 0.52025 0.0
C230 C 0.53667 0.71242 0.49617 0.0
C231 C 0.5918 0.70236 0.51786 0.0
C232 C 0.52397 0.73858 0.48525 0.0
C233 C 0.5488 0.77979 0.48994 0.0
C234 C 0.574 0.72773 0.51231 0.0
C235 C 0.58469 0.79364 0.50812 0.0
C236 C 0.62127 0.71194 0.54315 0.0
C237 C 0.60208 0.65071 0.496 0.0
N238 N 0.59644 0.76765 0.51846 0.0
N239 N 0.58285 0.67188 0.49537 0.0
H240 H 0.23887 0.8384 0.52969 0.0
H241 H 0.29436 0.06005 0.4772 0.0
H242 H 0.18 0.86733 0.44947 0.0
H243 H 0.35203 0.03461 0.56091 0.0
H244 H 0.2481 0.98879 0.47064 0.0
H245 H 0.27796 0.90963 0.54464 0.0
C246 C 0.23415 0.85967 0.5153 0.0
C247 C 0.20637 0.84701 0.48819 0.0
C248 C 0.27061 -0.00126 0.49071 0.0
C249 C 0.25047 0.92802 0.50519 0.0
C250 C 0.29697 0.0395 0.49452 0.0
C251 C 0.32736 0.05329 0.51938 0.0
C252 C 0.27488 0.97148 0.51166 0.0
C253 C 0.32912 0.02527 0.54129 0.0
C254 C 0.25629 0.90022 0.52391 0.0
C255 C 0.20122 0.87572 0.47047 0.0
N256 N 0.30355 0.98559 0.53662 0.0
N257 N 0.22312 0.91479 0.47921 0.0
H258 H 0.94461 0.37611 0.46623 0.0
H259 H 0.12289 0.33559 0.48563 0.0
H260 H 0.94146 0.29422 0.54354 0.0
H261 H 0.14405 0.45358 0.46201 0.0
H262 H 0.05387 0.3151 0.50085 0.0
H263 H 0.01568 0.40011 0.45714 0.0
C264 C 0.95884 0.36298 0.48107 0.0
C265 C 0.93724 0.33298 0.5055 0.0
C266 C 0.07378 0.34556 0.49267 0.0
C267 C 0.01803 0.36016 0.49518 0.0
C268 C 0.11299 0.35722 0.48389 0.0
C269 C 0.13893 0.39627 0.47253 0.0
C270 C 0.06027 0.37286 0.48912 0.0
C271 C 0.12485 0.42325 0.47081 0.0
C272 C -0.00064 0.37697 0.47613 0.0
C273 C 0.95715 0.31736 0.52443 0.0
N274 N 0.08611 0.41084 0.47852 0.0
N275 N -0.00353 0.33085 0.51859 0.0
H276 H 0.68812 0.67301 0.05614 0.0
H277 H 0.72011 0.51486 0.94813 0.0
H278 H 0.60863 0.6006 0.97443 0.0
H279 H 0.81797 0.62838 0.9815 0.0
H280 H 0.67319 0.53361 0.97301 0.0
H281 H 0.73076 0.64406 0.04363 0.0
C282 C 0.67952 0.65076 0.03588 0.0
C283 C 0.64543 0.63961 0.0158 0.0
C284 C 0.705 0.55403 0.97522 0.0
C285 C 0.69294 0.60599 0.00213 0.0
C286 C 0.73163 0.54336 0.9612 0.0
C287 C 0.77272 0.57042 0.96244 0.0
C288 C 0.71986 0.59151 0.99117 0.0
C289 C 0.78637 0.607 0.9796 0.0
C290 C 0.70372 0.63435 0.02878 0.0
C291 C 0.63523 0.61051 0.98997 0.0
N292 N 0.75995 0.61656 -0.0067 0.0
N293 N 0.65894 0.59465 0.98382 0.0
H294 H 0.47039 0.15015 0.97618 0.0
H295 H 0.2953 0.95936 0.06928 0.0
H296 H 0.35605 0.13999 -0.00365 0.0
H297 H 0.36807 0.94929 0.98955 0.0
H298 H 0.32797 0.03161 0.05788 0.0
H299 H 0.44363 0.08127 -0.00285 0.0
C300 C 0.43997 0.13362 0.98559 0.0
C301 C 0.41512 0.15021 0.9843 0.0
C302 C 0.33676 0.0134 0.04313 0.0
C303 C 0.38497 0.07278 0.00862 0.0
C304 C 0.3182 0.97245 0.04953 0.0
C305 C 0.32864 0.94858 0.02984 0.0
C306 C 0.36666 0.03037 0.01774 0.0
C307 C 0.3587 0.96674 0.00474 0.0
C308 C 0.42476 0.09454 -0.00267 0.0
C309 C 0.37587 0.12783 -0.00339 0.0
N310 N 0.37687 0.00671 -0.00052 0.0
N311 N 0.36193 0.09014 0.00836 0.0
H312 H 0.03277 0.27972 0.94475 0.0
H313 H 0.81078 0.22481 -0.00454 0.0
H314 H 0.00476 0.32312 0.03776 0.0
H315 H 0.84053 0.17273 0.90957 0.0
H316 H 0.8815 0.26137 0.01191 0.0
H317 H 0.96175 0.23883 0.93269 0.0
C318 C 0.01165 0.28028 0.96287 0.0
C319 C 0.02471 0.30504 0.99218 0.0
C320 C 0.87241 0.24185 0.98951 0.0
C321 C 0.94329 0.25876 0.97826 0.0
C322 C 0.83218 0.22124 0.98002 0.0
C323 C 0.81986 0.19578 0.95113 0.0
C324 C 0.90028 0.23697 0.96982 0.0
C325 C 0.84869 0.192 0.93208 0.0
C326 C 0.97106 0.25701 0.95592 0.0
C327 C -0.00402 0.30444 0.01484 0.0
N328 N 0.8875 0.21238 0.94175 0.0
N329 N 0.95655 0.28198 0.0072 0.0
H330 H 0.42323 0.26753 0.48054 0.0
H331 H 0.26297 0.3288 0.53794 0.0
H332 H 0.35735 0.23018 0.57657 0.0
H333 H 0.30959 0.34437 0.43388 0.0
H334 H 0.29785 0.29303 0.5528 0.0
H335 H 0.38406 0.29859 0.46369 0.0
C336 C 0.40078 0.26618 0.49817 0.0
C337 C 0.39348 0.24631 0.52998 0.0
C338 C 0.3001 0.3039 0.52661 0.0
C339 C 0.34846 0.28125 0.51082 0.0
C340 C 0.28006 0.32418 0.51807 0.0
C341 C 0.28351 0.33975 0.48468 0.0
C342 C 0.32414 0.29956 0.50168 0.0
C343 C 0.30604 0.33283 0.45995 0.0
C344 C 0.37822 0.28356 0.48843 0.0
C345 C 0.36387 0.24514 0.55177 0.0
N346 N 0.32591 0.31363 0.46907 0.0
N347 N 0.34248 0.2624 0.5418 0.0
H348 H 0.78026 0.17441 0.47665 0.0
H349 H 0.56475 0.98978 0.5046 0.0
H350 H 0.68285 0.18856 0.51365 0.0
H351 H 0.64655 0.98777 0.42953 0.0
H352 H 0.60885 0.06183 0.51128 0.0
H353 H 0.73274 0.10537 0.46083 0.0
C354 C 0.74872 0.16305 0.48095 0.0
C355 C 0.73532 0.18698 0.49655 0.0
C356 C 0.617 0.04561 0.49324 0.0
C357 C 0.68104 0.10796 0.47931 0.0
C358 C 0.59213 0.00447 0.4897 0.0
C359 C 0.6023 0.98277 0.46674 0.0
C360 C 0.65258 0.065 0.47415 0.0
C361 C 0.63774 0.00338 0.44763 0.0
C362 C 0.72166 0.12372 0.47192 0.0
C363 C 0.69424 0.171 0.50154 0.0
N364 N 0.66186 0.04336 0.45203 0.0
N365 N 0.66848 0.13212 0.49347 0.0
H366 H -0.00315 0.6801 0.43511 0.0
H367 H 0.825 0.70614 0.52348 0.0
H368 H 0.01657 0.76437 0.517 0.0
H369 H 0.8033 0.59953 0.46881 0.0
H370 H 0.89539 0.73753 0.50805 0.0
H371 H 0.92628 0.6607 0.43434 0.0
C372 C -0.01348 0.69509 0.45246 0.0
C373 C 0.01243 0.72345 0.47658 0.0
C374 C 0.87513 0.70744 0.49911 0.0
C375 C 0.93202 0.70139 0.47572 0.0
C376 C 0.83495 0.68947 0.50787 0.0
C377 C 0.80844 0.6499 0.49791 0.0
C378 C 0.88888 0.68573 0.48019 0.0
C379 C 0.82289 0.62991 0.47739 0.0
C380 C 0.94625 0.68385 0.45208 0.0
C381 C -0.00252 0.74195 0.49837 0.0
N382 N 0.86235 0.64795 0.46947 0.0
N383 N 0.95812 0.73033 0.49763 0.0
H384 H 0.26519 0.5019 0.31638 0.0
H385 H 0.11854 0.37394 0.16367 0.0
H386 H 0.19878 0.373 0.31365 0.0
H387 H 0.22072 0.49028 0.14401 0.0
H388 H 0.13976 0.37872 0.22363 0.0
H389 H 0.2431 0.50286 0.25684 0.0
C390 C 0.24621 0.47389 0.30322 0.0
C391 C 0.23385 0.4373 0.3199 0.0
C392 C 0.15741 0.40333 0.20625 0.0
C393 C 0.20792 0.43829 0.25266 0.0
C394 C 0.14518 0.40078 0.17206 0.0
C395 C 0.16813 0.4316 0.14869 0.0
C396 C 0.19268 0.43705 0.21738 0.0
C397 C 0.2023 0.46574 0.16117 0.0
C398 C 0.23363 0.47449 0.26939 0.0
C399 C 0.2092 0.40187 0.30176 0.0
N400 N 0.21373 0.46752 0.19476 0.0
N401 N 0.1968 0.40328 0.26927 0.0
H402 H 0.48676 0.69965 0.15951 0.0
H403 H 0.60076 0.83666 0.32249 0.0
H404 H 0.61012 0.73999 0.18329 0.0
H405 H 0.47233 0.77192 0.3138 0.0
H406 H 0.60496 0.80449 0.26941 0.0
H407 H 0.48067 0.72763 0.21461 0.0
C408 C 0.51243 0.71401 0.17648 0.0
C409 C 0.54904 0.7176 0.16677 0.0
C410 C 0.57585 0.79727 0.27912 0.0
C411 C 0.54244 0.75017 0.22947 0.0
C412 C 0.57344 0.81583 0.3093 0.0
C413 C 0.53614 0.80701 0.32253 0.0
C414 C 0.54073 0.76994 0.26183 0.0
C415 C 0.50171 0.7796 0.30447 0.0
C416 C 0.50895 0.73003 0.20787 0.0
C417 C 0.58133 0.73653 0.18973 0.0
N418 N 0.50483 0.76211 0.27494 0.0
N419 N 0.57737 0.75242 0.21986 0.0
H420 H 0.28296 0.75222 0.19184 0.0
H421 H 0.12025 0.72281 0.33059 0.0
H422 H 0.22459 0.8224 0.195 0.0
H423 H 0.22414 0.71834 0.36461 0.0
H424 H 0.14932 0.74161 0.27302 0.0
H425 H 0.25486 0.7252 0.24948 0.0
C426 C 0.26457 0.76214 0.20473 0.0
C427 C 0.25608 0.7896 0.18871 0.0
C428 C 0.16554 0.73609 0.29302 0.0
C429 C 0.22326 0.75812 0.25336 0.0
C430 C 0.14892 0.72511 0.32585 0.0
C431 C 0.1701 0.7196 0.35262 0.0
C432 C 0.20344 0.7412 0.28666 0.0
C433 C 0.207 0.72265 0.34473 0.0
C434 C 0.24862 0.74672 0.23741 0.0
C435 C 0.23206 0.80145 0.2064 0.0
N436 N 0.22279 0.73359 0.31234 0.0
N437 N 0.21611 0.78527 0.23754 0.0
H438 H 0.85819 0.61632 0.79712 0.0
H439 H 0.71336 0.50287 0.6382 0.0
H440 H 0.78516 0.48781 0.79388 0.0
H441 H 0.75322 0.6254 0.66585 0.0
H442 H 0.7456 0.49657 0.69063 0.0
H443 H 0.82783 0.62019 0.74306 0.0
C444 C 0.83615 0.58886 0.7848 0.0
C445 C 0.82403 0.55169 0.80013 0.0
C446 C 0.74703 0.52471 0.6852 0.0
C447 C 0.78892 0.55598 0.73836 0.0
C448 C 0.7286 0.5283 0.6554 0.0
C449 C 0.73053 0.56468 0.64773 0.0
C450 C 0.76802 0.55792 0.70702 0.0
C451 C 0.7508 0.59674 0.67081 0.0
C452 C 0.8186 0.59113 0.75408 0.0
C453 C 0.79526 0.51709 0.78299 0.0
N454 N 0.76898 0.59269 0.69924 0.0
N455 N 0.77855 0.52006 0.75299 0.0
H456 H 0.41059 0.20504 0.82133 0.0
H457 H 0.53446 0.25244 0.65108 0.0
H458 H 0.53772 0.28576 0.82762 0.0
H459 H 0.43697 0.13471 0.67518 0.0
H460 H 0.53804 0.27054 0.7127 0.0
H461 H 0.41921 0.1855 0.76349 0.0
C462 C 0.44036 0.21893 0.81041 0.0
C463 C 0.4735 0.24712 0.82926 0.0
C464 C 0.51656 0.24053 0.7044 0.0
C465 C 0.48353 0.22472 0.76293 0.0
C466 C 0.51457 0.23012 0.66938 0.0
C467 C 0.48488 0.19224 0.65793 0.0
C468 C 0.48829 0.21299 0.72761 0.0
C469 C 0.45987 0.16448 0.68271 0.0
C470 C 0.44529 0.20742 0.77753 0.0
C471 C 0.51143 0.26387 0.81385 0.0
N472 N 0.46161 0.17567 0.71622 0.0
N473 N 0.51547 0.25268 0.78125 0.0
H474 H 0.68451 0.20408 0.83044 0.0
H475 H 0.79491 0.20514 0.65758 0.0
H476 H 0.69845 0.10505 0.79728 0.0
H477 H 0.73843 0.27667 0.66735 0.0
H478 H 0.76379 0.17189 0.71179 0.0
H479 H 0.70558 0.23366 0.77266 0.0
C480 C 0.69119 0.18817 0.81085 0.0
C481 C 0.69014 0.15226 0.81878 0.0
C482 C 0.75807 0.19478 0.70204 0.0
C483 C 0.71504 0.18627 0.75329 0.0
C484 C 0.77614 0.21404 0.67127 0.0
C485 C 0.7693 0.24376 0.65803 0.0
C486 C 0.73342 0.20567 0.72004 0.0
C487 C 0.74445 0.25388 0.67674 0.0
C488 C 0.70335 0.20514 0.77799 0.0
C489 C 0.69914 0.13294 0.79245 0.0
N490 N 0.72755 0.23502 0.70702 0.0
N491 N 0.71181 0.15049 0.76108 0.0
H492 H 0.10246 0.47345 0.91424 0.0
H493 H 0.90173 0.44738 -0.0058 0.0
H494 H 0.08087 0.47492 0.02393 0.0
H495 H 0.94044 0.4961 0.89164 0.0
H496 H 0.96352 0.44616 0.00162 0.0
H497 H 0.04188 0.47657 0.90251 0.0
C498 C 0.08569 0.47549 0.93585 0.0
C499 C 0.09656 0.47333 0.97017 0.0
C500 C 0.95833 0.45683 0.97738 0.0
C501 C 0.02672 0.47539 0.95682 0.0
C502 C 0.92274 0.45697 0.97288 0.0
C503 C 0.91601 0.47238 0.9424 0.0
C504 C -0.0127 0.47178 0.95112 0.0
C505 C 0.94448 0.48425 0.91569 0.0
C506 C 0.05088 0.47678 0.92909 0.0
C507 C 0.07353 0.47602 -0.00293 0.0
N508 N 0.97912 0.48403 0.92077 0.0
N509 N 0.03935 0.47615 0.98981 0.0
H510 H 0.47202 0.55474 0.96232 0.0
H511 H 0.5207 0.39506 0.04599 0.0
H512 H 0.50164 0.555 0.07013 0.0
H513 H 0.49456 0.39711 0.93753 0.0
H514 H 0.51422 0.45395 0.05532 0.0
H515 H 0.47479 0.49366 0.95381 0.0
C516 C 0.47791 0.54136 0.98447 0.0
C517 C 0.48719 0.56043 0.0169 0.0
C518 C 0.51025 0.44171 0.02942 0.0
C519 C 0.4917 0.49122 0.00703 0.0
C520 C 0.51452 0.40838 0.02395 0.0
C521 C 0.50783 0.39078 0.99096 0.0
C522 C 0.49917 0.45756 0.00173 0.0
C523 C 0.4998 0.40944 0.96347 0.0
C524 C 0.48017 0.5068 0.97944 0.0
C525 C 0.49472 0.54162 0.04457 0.0
N526 N 0.49525 0.44152 0.96955 0.0
N527 N 0.49742 0.50841 0.03889 0.0
H528 H 0.41873 0.89192 0.08887 0.0
H529 H 0.56344 0.0434 0.94626 0.0
H530 H 0.41424 0.86279 0.98029 0.0
H531 H 0.59464 0.05857 0.05483 0.0
H532 H 0.50295 0.98101 0.95982 0.0
H533 H 0.48085 0.95459 0.07842 0.0
C534 C 0.43135 0.89813 0.06303 0.0
C535 C 0.41098 0.87213 0.03536 0.0
C536 C 0.52291 -0.00186 0.98071 0.0
C537 C 0.48114 0.94434 0.02312 0.0
C538 C 0.55723 0.03414 0.97308 0.0
C539 C 0.58459 0.05613 -0.00063 0.0
C540 C 0.51559 0.98408 0.01491 0.0
C541 C 0.5746 0.04253 0.03367 0.0
C542 C 0.46655 0.93412 0.05705 0.0
C543 C 0.42875 0.88182 0.00243 0.0
N544 N 0.54103 0.00713 0.04043 0.0
N545 N 0.4624 0.91748 -0.00288 0.0
H546 H 0.41495 0.90243 0.48074 0.0
H547 H 0.47968 0.11777 0.41273 0.0
H548 H 0.48319 0.94121 0.38589 0.0
H549 H 0.48937 0.09137 0.51977 0.0
H550 H 0.47007 0.05205 0.39637 0.0
H551 H 0.42432 0.96921 0.48809 0.0
C552 C 0.43072 0.92447 0.46079 0.0
C553 C 0.44899 0.91636 0.43298 0.0
C554 C 0.47491 0.06119 0.4233 0.0
C555 C 0.46019 -0.00713 0.44165 0.0
C556 C 0.48087 0.09878 0.43268 0.0
C557 C 0.4847 0.10998 0.46781 0.0
C558 C 0.47195 0.03466 0.44932 0.0
C559 C 0.48604 0.08403 0.49245 0.0
C560 C 0.43661 0.96276 0.46536 0.0
C561 C 0.46904 0.94636 0.40796 0.0
N562 N 0.4787 0.04724 0.48282 0.0
N563 N 0.4746 0.98362 0.41308 0.0
H564 H 0.89013 0.42534 0.59108 0.0
H565 H 0.05589 0.59037 0.47149 0.0
H566 H 0.86868 0.44741 0.48593 0.0
H567 H 0.05534 0.61333 0.58105 0.0
H568 H -0.00725 0.52841 0.47833 0.0
H569 H 0.95415 0.48833 0.59014 0.0
C570 C 0.89834 0.44389 0.56815 0.0
C571 C 0.87405 0.43096 0.53846 0.0
C572 C 0.00669 0.54689 0.50091 0.0
C573 C 0.9476 0.50173 0.53688 0.0
C574 C 0.04306 0.58204 0.49718 0.0
C575 C 0.06077 0.60758 0.52565 0.0
C576 C -0.01194 0.53672 0.5334 0.0
C577 C 0.04263 0.59477 0.55832 0.0
C578 C 0.93497 0.47954 0.56758 0.0
C579 C 0.88629 0.45608 0.50942 0.0
N580 N 0.00698 0.56027 0.5613 0.0
N581 N 0.92257 0.48984 0.50913 0.0
H582 H 0.38983 0.48991 0.42233 0.0
H583 H 0.55782 0.51421 0.55613 0.0
H584 H 0.38902 0.51607 0.53107 0.0
H585 H 0.55986 0.48997 0.4471 0.0
H586 H 0.4937 0.51062 0.54805 0.0
H587 H 0.45268 0.49085 0.43071 0.0
C588 C 0.40329 0.49676 0.44783 0.0
C589 C 0.38385 0.50261 0.47609 0.0
C590 C 0.50792 0.50559 0.52597 0.0
C591 C 0.45536 0.50261 0.48602 0.0
C592 C 0.54432 0.50707 0.53064 0.0
C593 C 0.56463 0.50293 0.50216 0.0
C594 C 0.49164 0.49991 0.49258 0.0
C595 C 0.5455 0.49359 0.4698 0.0
C596 C 0.43896 0.49677 0.45267 0.0
C597 C 0.40282 0.51136 0.50851 0.0
N598 N 0.51036 0.493 0.46579 0.0
N599 N 0.43728 0.51063 0.51266 0.0
loop_
_geom_bond_atom_site_label_1
_geom_bond_atom_site_label_2
_geom_bond_distance
_geom_bond_site_symmetry_2
_ccdc_geom_bond_type
C0 O1 1.306 . S
C0 O3 1.160 . S
O1 C0 1.306 . S
O1 Cd2 2.228 1_554 S
Cd2 O1 2.228 1_556 S
Cd2 O6 2.273 1_556 S
Cd2 O10 2.277 1_556 S
O3 C0 1.160 . S
O3 Cd4 2.203 . S
Cd4 O3 2.203 . S
Cd4 O6 2.411 . S
Cd4 O7 2.333 . S
Cd4 O8 2.352 . S
Cd4 O12 2.277 . S
Cd4 O13 2.356 . S
C5 O10 1.209 . S
C5 O12 1.226 . S
O6 Cd2 2.273 1_554 S
O6 Cd4 2.411 . S
O6 C9 1.320 . S
O7 Cd4 2.333 . S
O7 C9 1.214 . S
O8 Cd4 2.352 . S
O8 C11 1.258 . S
C9 O6 1.320 . S
C9 O7 1.214 . S
O10 Cd2 2.277 1_554 S
O10 C5 1.209 . S
C11 O8 1.258 . S
C11 O13 1.282 . S
O12 Cd4 2.277 . S
O12 C5 1.226 . S
O13 Cd4 2.356 . S
O13 C11 1.282 . S
C14 O15 1.306 . S
C14 O17 1.160 . S
O15 C14 1.306 . S
O15 Cd16 2.228 1_554 S
Cd16 O15 2.228 1_556 S
Cd16 O20 2.273 1_556 S
Cd16 O24 2.277 1_556 S
O17 C14 1.160 . S
O17 Cd18 2.203 . S
Cd18 O17 2.203 . S
Cd18 O20 2.411 . S
Cd18 O21 2.333 . S
Cd18 O22 2.352 . S
Cd18 O26 2.277 . S
Cd18 O27 2.356 . S
C19 O24 1.209 . S
C19 O26 1.226 . S
O20 Cd16 2.273 1_554 S
O20 Cd18 2.411 . S
O20 C23 1.320 . S
O21 Cd18 2.333 . S
O21 C23 1.214 . S
O22 Cd18 2.352 . S
O22 C25 1.258 . S
C23 O20 1.320 . S
C23 O21 1.214 . S
O24 Cd16 2.277 1_554 S
O24 C19 1.209 . S
C25 O22 1.258 . S
C25 O27 1.282 . S
O26 Cd18 2.277 . S
O26 C19 1.226 . S
O27 Cd18 2.356 . S
O27 C25 1.282 . S
C28 O29 1.306 . S
C28 O31 1.160 . S
O29 C28 1.306 . S
O29 Cd30 2.228 1_554 S
Cd30 O29 2.228 1_556 S
Cd30 O34 2.273 1_556 S
Cd30 O38 2.277 1_556 S
O31 C28 1.160 . S
O31 Cd32 2.203 . S
Cd32 O31 2.203 . S
Cd32 O34 2.411 . S
Cd32 O35 2.333 . S
Cd32 O36 2.352 . S
Cd32 O40 2.277 . S
Cd32 O41 2.356 . S
C33 O38 1.209 . S
C33 O40 1.226 . S
O34 Cd30 2.273 1_554 S
O34 Cd32 2.411 . S
O34 C37 1.320 . S
O35 Cd32 2.333 . S
O35 C37 1.214 . S
O36 Cd32 2.352 . S
O36 C39 1.258 . S
C37 O34 1.320 . S
C37 O35 1.214 . S
O38 Cd30 2.277 1_554 S
O38 C33 1.209 . S
C39 O36 1.258 . S
C39 O41 1.282 . S
O40 Cd32 2.277 . S
O40 C33 1.226 . S
O41 Cd32 2.356 . S
O41 C39 1.282 . S
C42 O43 1.306 . S
C42 O45 1.160 . S
O43 C42 1.306 . S
O43 Cd44 2.228 . S
Cd44 O43 2.228 . S
Cd44 O48 2.273 . S
Cd44 O52 2.277 . S
O45 C42 1.160 . S
O45 Cd46 2.203 . S
Cd46 O45 2.203 . S
Cd46 O48 2.411 . S
Cd46 O49 2.333 . S
Cd46 O50 2.352 . S
Cd46 O54 2.277 . S
Cd46 O55 2.356 . S
C47 O52 1.209 . S
C47 O54 1.226 . S
O48 Cd44 2.273 . S
O48 Cd46 2.411 . S
O48 C51 1.320 . S
O49 Cd46 2.333 . S
O49 C51 1.214 . S
O50 Cd46 2.352 . S
O50 C53 1.258 . S
C51 O48 1.320 . S
C51 O49 1.214 . S
O52 Cd44 2.277 . S
O52 C47 1.209 . S
C53 O50 1.258 . S
C53 O55 1.282 . S
O54 Cd46 2.277 . S
O54 C47 1.226 . S
O55 Cd46 2.356 . S
O55 C53 1.282 . S
C56 O57 1.306 . S
C56 O59 1.160 . S
O57 C56 1.306 . S
O57 Cd58 2.228 . S
Cd58 O57 2.228 . S
Cd58 O62 2.273 . S
Cd58 O66 2.277 . S
O59 C56 1.160 . S
O59 Cd60 2.203 . S
Cd60 O59 2.203 . S
Cd60 O62 2.411 . S
Cd60 O63 2.333 . S
Cd60 O64 2.352 . S
Cd60 O68 2.277 . S
Cd60 O69 2.356 . S
C61 O66 1.209 . S
C61 O68 1.226 . S
O62 Cd58 2.273 . S
O62 Cd60 2.411 . S
O62 C65 1.320 . S
O63 Cd60 2.333 . S
O63 C65 1.214 . S
O64 Cd60 2.352 . S
O64 C67 1.258 . S
C65 O62 1.320 . S
C65 O63 1.214 . S
O66 Cd58 2.277 . S
O66 C61 1.209 . S
C67 O64 1.258 . S
C67 O69 1.282 . S
O68 Cd60 2.277 . S
O68 C61 1.226 . S
O69 Cd60 2.356 . S
O69 C67 1.282 . S
C70 O71 1.306 . S
C70 O73 1.160 . S
O71 C70 1.306 . S
O71 Cd72 2.228 . S
Cd72 O71 2.228 . S
Cd72 O76 2.273 . S
Cd72 O80 2.277 . S
O73 C70 1.160 . S
O73 Cd74 2.203 . S
Cd74 O73 2.203 . S
Cd74 O76 2.411 . S
Cd74 O77 2.333 . S
Cd74 O78 2.352 . S
Cd74 O82 2.277 . S
Cd74 O83 2.356 . S
C75 O80 1.209 . S
C75 O82 1.226 . S
O76 Cd72 2.273 . S
O76 Cd74 2.411 . S
O76 C79 1.320 . S
O77 Cd74 2.333 . S
O77 C79 1.214 . S
O78 Cd74 2.352 . S
O78 C81 1.258 . S
C79 O76 1.320 . S
C79 O77 1.214 . S
O80 Cd72 2.277 . S
O80 C75 1.209 . S
C81 O78 1.258 . S
C81 O83 1.282 . S
O82 Cd74 2.277 . S
O82 C75 1.226 . S
O83 Cd74 2.356 . S
O83 C81 1.282 . S
C84 O85 1.306 . S
C84 O87 1.160 . S
O85 C84 1.306 . S
O85 Cd86 2.228 1_556 S
Cd86 O85 2.228 1_554 S
Cd86 O90 2.273 1_554 S
Cd86 O94 2.277 1_554 S
O87 C84 1.160 . S
O87 Cd88 2.203 . S
Cd88 O87 2.203 . S
Cd88 O90 2.411 . S
Cd88 O91 2.333 . S
Cd88 O92 2.352 . S
Cd88 O96 2.277 . S
Cd88 O97 2.356 . S
C89 O94 1.209 . S
C89 O96 1.226 . S
O90 Cd86 2.273 1_556 S
O90 Cd88 2.411 . S
O90 C93 1.320 . S
O91 Cd88 2.333 . S
O91 C93 1.214 . S
O92 Cd88 2.352 . S
O92 C95 1.258 . S
C93 O90 1.320 . S
C93 O91 1.214 . S
O94 Cd86 2.277 1_556 S
O94 C89 1.209 . S
C95 O92 1.258 . S
C95 O97 1.282 . S
O96 Cd88 2.277 . S
O96 C89 1.226 . S
O97 Cd88 2.356 . S
O97 C95 1.282 . S
C98 O99 1.306 . S
C98 O101 1.160 . S
O99 C98 1.306 . S
O99 Cd100 2.228 1_556 S
Cd100 O99 2.228 1_554 S
Cd100 O104 2.273 1_554 S
Cd100 O108 2.277 1_554 S
O101 C98 1.160 . S
O101 Cd102 2.203 . S
Cd102 O101 2.203 . S
Cd102 O104 2.411 . S
Cd102 O105 2.333 . S
Cd102 O106 2.352 . S
Cd102 O110 2.277 . S
Cd102 O111 2.356 . S
C103 O108 1.209 . S
C103 O110 1.226 . S
O104 Cd100 2.273 1_556 S
O104 Cd102 2.411 . S
O104 C107 1.320 . S
O105 Cd102 2.333 . S
O105 C107 1.214 . S
O106 Cd102 2.352 . S
O106 C109 1.258 . S
C107 O104 1.320 . S
C107 O105 1.214 . S
O108 Cd100 2.277 1_556 S
O108 C103 1.209 . S
C109 O106 1.258 . S
C109 O111 1.282 . S
O110 Cd102 2.277 . S
O110 C103 1.226 . S
O111 Cd102 2.356 . S
O111 C109 1.282 . S
C112 O113 1.306 . S
C112 O115 1.160 . S
O113 C112 1.306 . S
O113 Cd114 2.228 1_556 S
Cd114 O113 2.228 1_554 S
Cd114 O118 2.273 1_554 S
Cd114 O122 2.277 1_554 S
O115 C112 1.160 . S
O115 Cd116 2.203 . S
Cd116 O115 2.203 . S
Cd116 O118 2.411 . S
Cd116 O119 2.333 . S
Cd116 O120 2.352 . S
Cd116 O124 2.277 . S
Cd116 O125 2.356 . S
C117 O122 1.209 . S
C117 O124 1.226 . S
O118 Cd114 2.273 1_556 S
O118 Cd116 2.411 . S
O118 C121 1.320 . S
O119 Cd116 2.333 . S
O119 C121 1.214 . S
O120 Cd116 2.352 . S
O120 C123 1.258 . S
C121 O118 1.320 . S
C121 O119 1.214 . S
O122 Cd114 2.277 1_556 S
O122 C117 1.209 . S
C123 O120 1.258 . S
C123 O125 1.282 . S
O124 Cd116 2.277 . S
O124 C117 1.226 . S
O125 Cd116 2.356 . S
O125 C123 1.282 . S
C126 O127 1.306 . S
C126 O129 1.160 . S
O127 C126 1.306 . S
O127 Cd128 2.228 . S
Cd128 O127 2.228 . S
Cd128 O132 2.273 . S
Cd128 O136 2.277 . S
O129 C126 1.160 . S
O129 Cd130 2.203 . S
Cd130 O129 2.203 . S
Cd130 O132 2.411 . S
Cd130 O133 2.333 . S
Cd130 O134 2.352 . S
Cd130 O138 2.277 . S
Cd130 O139 2.356 . S
C131 O136 1.209 . S
C131 O138 1.226 . S
O132 Cd128 2.273 . S
O132 Cd130 2.411 . S
O132 C135 1.320 . S
O133 Cd130 2.333 . S
O133 C135 1.214 . S
O134 Cd130 2.352 . S
O134 C137 1.258 . S
C135 O132 1.320 . S
C135 O133 1.214 . S
O136 Cd128 2.277 . S
O136 C131 1.209 . S
C137 O134 1.258 . S
C137 O139 1.282 . S
O138 Cd130 2.277 . S
O138 C131 1.226 . S
O139 Cd130 2.356 . S
O139 C137 1.282 . S
C140 O141 1.306 . S
C140 O143 1.160 . S
O141 C140 1.306 . S
O141 Cd142 2.228 . S
Cd142 O141 2.228 . S
Cd142 O146 2.273 . S
Cd142 O150 2.277 . S
O143 C140 1.160 . S
O143 Cd144 2.203 . S
Cd144 O143 2.203 . S
Cd144 O146 2.411 . S
Cd144 O147 2.333 . S
Cd144 O148 2.352 . S
Cd144 O152 2.277 . S
Cd144 O153 2.356 . S
C145 O150 1.209 . S
C145 O152 1.226 . S
O146 Cd142 2.273 . S
O146 Cd144 2.411 . S
O146 C149 1.320 . S
O147 Cd144 2.333 . S
O147 C149 1.214 . S
O148 Cd144 2.352 . S
O148 C151 1.258 . S
C149 O146 1.320 . S
C149 O147 1.214 . S
O150 Cd142 2.277 . S
O150 C145 1.209 . S
C151 O148 1.258 . S
C151 O153 1.282 . S
O152 Cd144 2.277 . S
O152 C145 1.226 . S
O153 Cd144 2.356 . S
O153 C151 1.282 . S
C154 O155 1.306 . S
C154 O157 1.160 . S
O155 C154 1.306 . S
O155 Cd156 2.228 . S
Cd156 O155 2.228 . S
Cd156 O160 2.273 . S
Cd156 O164 2.277 . S
O157 C154 1.160 . S
O157 Cd158 2.203 . S
Cd158 O157 2.203 . S
Cd158 O160 2.411 . S
Cd158 O161 2.333 . S
Cd158 O162 2.352 . S
Cd158 O166 2.277 . S
Cd158 O167 2.356 . S
C159 O164 1.209 . S
C159 O166 1.226 . S
O160 Cd156 2.273 . S
O160 Cd158 2.411 . S
O160 C163 1.320 . S
O161 Cd158 2.333 . S
O161 C163 1.214 . S
O162 Cd158 2.352 . S
O162 C165 1.258 . S
C163 O160 1.320 . S
C163 O161 1.214 . S
O164 Cd156 2.277 . S
O164 C159 1.209 . S
C165 O162 1.258 . S
C165 O167 1.282 . S
O166 Cd158 2.277 . S
O166 C159 1.226 . S
O167 Cd158 2.356 . S
O167 C165 1.282 . S
H168 C174 0.930 . S
H169 C178 0.930 . S
H170 C183 0.929 . S
H171 C181 0.929 . S
H172 C176 0.929 . S
H173 C182 0.929 . S
C174 H168 0.930 . S
C174 C175 1.367 . S
C174 C182 1.378 . S
C175 C174 1.367 . S
C175 C183 1.433 . S
C176 H172 0.929 . S
C176 C178 1.378 . S
C176 C180 1.350 . S
C177 C180 1.463 1_554 S
C177 C182 1.350 . S
C177 N185 1.429 . S
C178 H169 0.930 . S
C178 C176 1.378 . S
C178 C179 1.367 . S
C179 C178 1.367 . S
C179 C181 1.433 . S
C180 C176 1.350 . S
C180 C177 1.463 1_556 S
C180 N184 1.427 . S
C181 H171 0.929 . S
C181 C179 1.433 . S
C181 N184 1.384 . S
C182 H173 0.929 . S
C182 C174 1.378 . S
C182 C177 1.350 . S
C183 H170 0.929 . S
C183 C175 1.433 . S
C183 N185 1.389 . S
N184 C180 1.427 . S
N184 C181 1.384 . S
N185 C177 1.429 . S
N185 C183 1.389 . S
H186 C192 0.930 . S
H187 C196 0.930 . S
H188 C201 0.929 . S
H189 C199 0.929 1_544 S
H190 C194 0.929 . S
H191 C200 0.929 . S
C192 H186 0.930 . S
C192 C193 1.367 . S
C192 C200 1.378 . S
C193 C192 1.367 . S
C193 C201 1.433 1_554 S
C194 H190 0.929 . S
C194 C196 1.378 . S
C194 C198 1.350 . S
C195 C198 1.463 1_554 S
C195 C200 1.350 . S
C195 N203 1.427 1_554 S
C196 H187 0.930 . S
C196 C194 1.378 . S
C196 C197 1.367 . S
C197 C196 1.367 . S
C197 C199 1.433 . S
C198 C194 1.350 . S
C198 C195 1.463 1_556 S
C198 N202 1.427 1_556 S
C199 H189 0.929 1_566 S
C199 C197 1.433 . S
C199 N202 1.384 1_556 S
C200 H191 0.929 . S
C200 C192 1.378 . S
C200 C195 1.350 . S
C201 H188 0.929 . S
C201 C193 1.433 1_556 S
C201 N203 1.384 . S
N202 C198 1.427 1_554 S
N202 C199 1.384 1_554 S
N203 C195 1.427 1_556 S
N203 C201 1.384 . S
H204 C210 0.930 . S
H205 C214 0.944 1_655 S
H206 C219 0.929 . S
H207 C217 0.929 . S
H208 C212 0.929 . S
H209 C218 0.929 . S
C210 H204 0.930 . S
C210 C211 1.367 1_556 S
C210 C218 1.378 . S
C211 C210 1.367 1_554 S
C211 C219 1.433 . S
C212 H208 0.929 . S
C212 C214 1.385 . S
C212 C216 1.350 1_554 S
C213 C216 1.463 1_554 S
C213 C218 1.350 1_554 S
C213 N221 1.427 . S
C214 H205 0.944 1_455 S
C214 C212 1.385 . S
C214 C215 1.346 1_554 S
C215 C214 1.346 1_556 S
C215 C217 1.433 . S
C216 C212 1.350 1_556 S
C216 C213 1.463 1_556 S
C216 N220 1.427 . S
C217 H207 0.929 . S
C217 C215 1.433 . S
C217 N220 1.384 . S
C218 H209 0.929 . S
C218 C210 1.378 . S
C218 C213 1.350 1_556 S
C219 H206 0.929 . S
C219 C211 1.433 . S
C219 N221 1.384 . S
N220 C216 1.427 . S
N220 C217 1.384 . S
N221 C213 1.427 . S
N221 C219 1.384 . S
H222 C228 0.930 . S
H223 C232 0.930 . S
H224 C237 0.929 . S
H225 C235 0.929 . S
H226 C230 0.929 . S
H227 C236 0.929 . S
C228 H222 0.930 . S
C228 C229 1.367 . S
C228 C236 1.378 . S
C229 C228 1.367 . S
C229 C237 1.433 . S
C230 H226 0.929 . S
C230 C232 1.378 . S
C230 C234 1.350 . S
C231 C234 1.463 . S
C231 C236 1.350 . S
C231 N239 1.427 . S
C232 H223 0.930 . S
C232 C230 1.378 . S
C232 C233 1.367 . S
C233 C232 1.367 . S
C233 C235 1.433 . S
C234 C230 1.350 . S
C234 C231 1.463 . S
C234 N238 1.427 . S
C235 H225 0.929 . S
C235 C233 1.433 . S
C235 N238 1.384 . S
C236 H227 0.929 . S
C236 C228 1.378 . S
C236 C231 1.350 . S
C237 H224 0.929 . S
C237 C229 1.433 . S
C237 N239 1.384 . S
N238 C234 1.427 . S
N238 C235 1.384 . S
N239 C231 1.427 . S
N239 C237 1.384 . S
H240 C246 0.930 . S
H241 C250 0.930 1_545 S
H242 C255 0.929 . S
H243 C253 0.929 . S
H244 C248 0.929 . S
H245 C254 0.929 . S
C246 H240 0.930 . S
C246 C247 1.367 . S
C246 C254 1.378 . S
C247 C246 1.367 . S
C247 C255 1.433 . S
C248 H244 0.929 . S
C248 C250 1.378 . S
C248 C252 1.350 . S
C249 C252 1.463 . S
C249 C254 1.350 . S
C249 N257 1.427 . S
C250 H241 0.930 1_565 S
C250 C248 1.378 . S
C250 C251 1.367 . S
C251 C250 1.367 . S
C251 C253 1.433 . S
C252 C248 1.350 . S
C252 C249 1.463 . S
C252 N256 1.427 . S
C253 H243 0.929 . S
C253 C251 1.433 . S
C253 N256 1.384 . S
C254 H245 0.929 . S
C254 C246 1.378 . S
C254 C249 1.350 . S
C255 H242 0.929 . S
C255 C247 1.433 . S
C255 N257 1.384 . S
N256 C252 1.427 . S
N256 C253 1.384 . S
N257 C249 1.427 . S
N257 C255 1.384 . S
H258 C264 0.930 . S
H259 C268 0.930 . S
H260 C273 0.929 . S
H261 C271 0.929 . S
H262 C266 0.929 . S
H263 C272 0.929 . S
C264 H258 0.930 . S
C264 C265 1.367 . S
C264 C272 1.378 . S
C265 C264 1.367 . S
C265 C273 1.433 . S
C266 H262 0.929 . S
C266 C268 1.378 . S
C266 C270 1.350 . S
C267 C270 1.463 . S
C267 C272 1.350 . S
C267 N275 1.427 . S
C268 H259 0.930 . S
C268 C266 1.378 . S
C268 C269 1.367 . S
C269 C268 1.367 . S
C269 C271 1.433 . S
C270 C266 1.350 . S
C270 C267 1.463 . S
C270 N274 1.427 . S
C271 H261 0.929 . S
C271 C269 1.433 . S
C271 N274 1.384 . S
C272 H263 0.929 . S
C272 C264 1.378 . S
C272 C267 1.350 . S
C273 H260 0.929 . S
C273 C265 1.433 . S
C273 N275 1.384 . S
N274 C270 1.427 . S
N274 C271 1.384 . S
N275 C267 1.427 . S
N275 C273 1.384 . S
H276 C282 0.930 . S
H277 C286 0.930 . S
H278 C291 0.929 1_556 S
H279 C289 0.929 . S
H280 C284 0.929 . S
H281 C290 0.929 . S
C282 H276 0.930 . S
C282 C283 1.367 . S
C282 C290 1.378 . S
C283 C282 1.367 . S
C283 C291 1.433 . S
C284 H280 0.929 . S
C284 C286 1.378 . S
C284 C288 1.350 . S
C285 C288 1.463 1_554 S
C285 C290 1.350 . S
C285 N293 1.427 1_554 S
C286 H277 0.930 . S
C286 C284 1.378 . S
C286 C287 1.367 . S
C287 C286 1.367 . S
C287 C289 1.433 1_556 S
C288 C284 1.350 . S
C288 C285 1.463 1_556 S
C288 N292 1.427 1_556 S
C289 H279 0.929 . S
C289 C287 1.433 1_554 S
C289 N292 1.384 . S
C290 H281 0.929 . S
C290 C282 1.378 . S
C290 C285 1.350 . S
C291 H278 0.929 1_554 S
C291 C283 1.433 . S
C291 N293 1.384 1_554 S
N292 C288 1.427 1_554 S
N292 C289 1.384 . S
N293 C285 1.427 1_556 S
N293 C291 1.384 1_556 S
H294 C300 0.930 . S
H295 C304 0.930 . S
H296 C309 0.929 . S
H297 C307 0.929 . S
H298 C302 0.929 . S
H299 C308 0.929 . S
C300 H294 0.930 . S
C300 C301 1.367 . S
C300 C308 1.378 . S
C301 C300 1.367 . S
C301 C309 1.433 . S
C302 H298 0.929 . S
C302 C304 1.378 . S
C302 C306 1.350 . S
C303 C306 1.463 1_556 S
C303 C308 1.350 . S
C303 N311 1.427 1_556 S
C304 H295 0.930 . S
C304 C302 1.378 . S
C304 C305 1.367 . S
C305 C304 1.367 . S
C305 C307 1.433 . S
C306 C302 1.350 . S
C306 C303 1.463 1_554 S
C306 N310 1.433 . S
C307 H297 0.929 . S
C307 C305 1.433 . S
C307 N310 1.391 . S
C308 H299 0.929 . S
C308 C300 1.378 . S
C308 C303 1.350 . S
C309 H296 0.929 . S
C309 C301 1.433 . S
C309 N311 1.384 1_556 S
N310 C306 1.433 . S
N310 C307 1.391 . S
N311 C303 1.427 1_554 S
N311 C309 1.384 1_554 S
H312 C318 0.937 1_455 S
H313 C322 0.930 . S
H314 C327 0.929 . S
H315 C325 0.929 . S
H316 C320 0.929 . S
H317 C326 0.929 . S
C318 H312 0.937 1_655 S
C318 C319 1.351 1_556 S
C318 C326 1.383 . S
C319 C318 1.351 1_554 S
C319 C327 1.433 . S
C320 H316 0.929 . S
C320 C322 1.378 . S
C320 C324 1.350 1_554 S
C321 C324 1.463 1_554 S
C321 C326 1.350 1_554 S
C321 N329 1.427 . S
C322 H313 0.930 . S
C322 C320 1.378 . S
C322 C323 1.367 1_554 S
C323 C322 1.367 1_556 S
C323 C325 1.433 . S
C324 C320 1.350 1_556 S
C324 C321 1.463 1_556 S
C324 N328 1.427 . S
C325 H315 0.929 . S
C325 C323 1.433 . S
C325 N328 1.384 . S
C326 H317 0.929 . S
C326 C318 1.383 . S
C326 C321 1.350 1_556 S
C327 H314 0.929 . S
C327 C319 1.433 . S
C327 N329 1.384 . S
N328 C324 1.427 . S
N328 C325 1.384 . S
N329 C321 1.427 . S
N329 C327 1.384 . S
H330 C336 0.930 . S
H331 C340 0.930 . S
H332 C345 0.929 . S
H333 C343 0.929 . S
H334 C338 0.929 . S
H335 C344 0.929 . S
C336 H330 0.930 . S
C336 C337 1.367 . S
C336 C344 1.378 . S
C337 C336 1.367 . S
C337 C345 1.433 . S
C338 H334 0.929 . S
C338 C340 1.378 . S
C338 C342 1.350 . S
C339 C342 1.463 . S
C339 C344 1.350 . S
C339 N347 1.427 . S
C340 H331 0.930 . S
C340 C338 1.378 . S
C340 C341 1.367 . S
C341 C340 1.367 . S
C341 C343 1.433 . S
C342 C338 1.350 . S
C342 C339 1.463 . S
C342 N346 1.427 . S
C343 H333 0.929 . S
C343 C341 1.433 . S
C343 N346 1.384 . S
C344 H335 0.929 . S
C344 C336 1.378 . S
C344 C339 1.350 . S
C345 H332 0.929 . S
C345 C337 1.433 . S
C345 N347 1.384 . S
N346 C342 1.427 . S
N346 C343 1.384 . S
N347 C339 1.427 . S
N347 C345 1.384 . S
H348 C354 0.930 . S
H349 C358 0.930 . S
H350 C363 0.929 . S
H351 C361 0.929 . S
H352 C356 0.929 . S
H353 C362 0.929 . S
C354 H348 0.930 . S
C354 C355 1.367 . S
C354 C362 1.378 . S
C355 C354 1.367 . S
C355 C363 1.433 . S
C356 H352 0.929 . S
C356 C358 1.378 . S
C356 C360 1.350 . S
C357 C360 1.463 . S
C357 C362 1.350 . S
C357 N365 1.427 . S
C358 H349 0.930 . S
C358 C356 1.378 . S
C358 C359 1.367 . S
C359 C358 1.367 . S
C359 C361 1.433 . S
C360 C356 1.350 . S
C360 C357 1.463 . S
C360 N364 1.427 . S
C361 H351 0.929 . S
C361 C359 1.433 . S
C361 N364 1.384 . S
C362 H353 0.929 . S
C362 C354 1.378 . S
C362 C357 1.350 . S
C363 H350 0.929 . S
C363 C355 1.433 . S
C363 N365 1.384 . S
N364 C360 1.427 . S
N364 C361 1.384 . S
N365 C357 1.427 . S
N365 C363 1.384 . S
H366 C372 0.930 . S
H367 C376 0.930 . S
H368 C381 0.929 . S
H369 C379 0.929 . S
H370 C374 0.929 . S
H371 C380 0.929 . S
C372 H366 0.930 . S
C372 C373 1.367 . S
C372 C380 1.378 . S
C373 C372 1.367 . S
C373 C381 1.433 . S
C374 H370 0.929 . S
C374 C376 1.378 . S
C374 C378 1.350 . S
C375 C378 1.463 . S
C375 C380 1.350 . S
C375 N383 1.427 . S
C376 H367 0.930 . S
C376 C374 1.378 . S
C376 C377 1.367 . S
C377 C376 1.367 . S
C377 C379 1.433 . S
C378 C374 1.350 . S
C378 C375 1.463 . S
C378 N382 1.427 . S
C379 H369 0.929 . S
C379 C377 1.433 . S
C379 N382 1.384 . S
C380 H371 0.929 . S
C380 C372 1.378 . S
C380 C375 1.350 . S
C381 H368 0.929 . S
C381 C373 1.433 . S
C381 N383 1.384 . S
N382 C378 1.427 . S
N382 C379 1.384 . S
N383 C375 1.427 . S
N383 C381 1.384 . S
H384 C390 0.930 . S
H385 C394 0.930 . S
H386 C399 0.929 . S
H387 C397 0.929 . S
H388 C392 0.929 . S
H389 C398 0.929 . S
C390 H384 0.930 . S
C390 C391 1.367 . S
C390 C398 1.378 . S
C391 C390 1.367 . S
C391 C399 1.433 . S
C392 H388 0.929 . S
C392 C394 1.378 . S
C392 C396 1.350 . S
C393 C396 1.463 . S
C393 C398 1.350 . S
C393 N401 1.427 . S
C394 H385 0.930 . S
C394 C392 1.378 . S
C394 C395 1.367 . S
C395 C394 1.367 . S
C395 C397 1.433 . S
C396 C392 1.350 . S
C396 C393 1.463 . S
C396 N400 1.427 . S
C397 H387 0.929 . S
C397 C395 1.433 . S
C397 N400 1.384 . S
C398 H389 0.929 . S
C398 C390 1.378 . S
C398 C393 1.350 . S
C399 H386 0.929 . S
C399 C391 1.433 . S
C399 N401 1.384 . S
N400 C396 1.427 . S
N400 C397 1.384 . S
N401 C393 1.427 . S
N401 C399 1.384 . S
H402 C408 0.930 . S
H403 C412 0.930 . S
H404 C417 0.929 . S
H405 C415 0.929 . S
H406 C410 0.929 . S
H407 C416 0.929 . S
C408 H402 0.930 . S
C408 C409 1.367 . S
C408 C416 1.378 . S
C409 C408 1.367 . S
C409 C417 1.433 . S
C410 H406 0.929 . S
C410 C412 1.378 . S
C410 C414 1.350 . S
C411 C414 1.463 . S
C411 C416 1.350 . S
C411 N419 1.427 . S
C412 H403 0.930 . S
C412 C410 1.378 . S
C412 C413 1.367 . S
C413 C412 1.367 . S
C413 C415 1.433 . S
C414 C410 1.350 . S
C414 C411 1.463 . S
C414 N418 1.427 . S
C415 H405 0.929 . S
C415 C413 1.433 . S
C415 N418 1.384 . S
C416 H407 0.929 . S
C416 C408 1.378 . S
C416 C411 1.350 . S
C417 H404 0.929 . S
C417 C409 1.433 . S
C417 N419 1.384 . S
N418 C414 1.427 . S
N418 C415 1.384 . S
N419 C411 1.427 . S
N419 C417 1.384 . S
H420 C426 0.930 . S
H421 C430 0.930 . S
H422 C435 0.929 . S
H423 C433 0.929 . S
H424 C428 0.929 . S
H425 C434 0.929 . S
C426 H420 0.930 . S
C426 C427 1.367 . S
C426 C434 1.378 . S
C427 C426 1.367 . S
C427 C435 1.433 . S
C428 H424 0.929 . S
C428 C430 1.378 . S
C428 C432 1.350 . S
C429 C432 1.463 . S
C429 C434 1.350 . S
C429 N437 1.427 . S
C430 H421 0.930 . S
C430 C428 1.378 . S
C430 C431 1.367 . S
C431 C430 1.367 . S
C431 C433 1.433 . S
C432 C428 1.350 . S
C432 C429 1.463 . S
C432 N436 1.427 . S
C433 H423 0.929 . S
C433 C431 1.433 . S
C433 N436 1.384 . S
C434 H425 0.929 . S
C434 C426 1.378 . S
C434 C429 1.350 . S
C435 H422 0.929 . S
C435 C427 1.433 . S
C435 N437 1.384 . S
N436 C432 1.427 . S
N436 C433 1.384 . S
N437 C429 1.427 . S
N437 C435 1.384 . S
H438 C444 0.930 . S
H439 C448 0.930 . S
H440 C453 0.929 . S
H441 C451 0.929 . S
H442 C446 0.929 . S
H443 C452 0.929 . S
C444 H438 0.930 . S
C444 C445 1.367 . S
C444 C452 1.378 . S
C445 C444 1.367 . S
C445 C453 1.433 . S
C446 H442 0.929 . S
C446 C448 1.378 . S
C446 C450 1.350 . S
C447 C450 1.463 . S
C447 C452 1.350 . S
C447 N455 1.427 . S
C448 H439 0.930 . S
C448 C446 1.378 . S
C448 C449 1.367 . S
C449 C448 1.367 . S
C449 C451 1.433 . S
C450 C446 1.350 . S
C450 C447 1.463 . S
C450 N454 1.427 . S
C451 H441 0.929 . S
C451 C449 1.433 . S
C451 N454 1.384 . S
C452 H443 0.929 . S
C452 C444 1.378 . S
C452 C447 1.350 . S
C453 H440 0.929 . S
C453 C445 1.433 . S
C453 N455 1.384 . S
N454 C450 1.427 . S
N454 C451 1.384 . S
N455 C447 1.427 . S
N455 C453 1.384 . S
H456 C462 0.930 . S
H457 C466 0.930 . S
H458 C471 0.929 . S
H459 C469 0.929 . S
H460 C464 0.929 . S
H461 C470 0.929 . S
C462 H456 0.930 . S
C462 C463 1.367 . S
C462 C470 1.378 . S
C463 C462 1.367 . S
C463 C471 1.433 . S
C464 H460 0.929 . S
C464 C466 1.378 . S
C464 C468 1.350 . S
C465 C468 1.463 . S
C465 C470 1.350 . S
C465 N473 1.427 . S
C466 H457 0.930 . S
C466 C464 1.378 . S
C466 C467 1.367 . S
C467 C466 1.367 . S
C467 C469 1.433 . S
C468 C464 1.350 . S
C468 C465 1.463 . S
C468 N472 1.427 . S
C469 H459 0.929 . S
C469 C467 1.433 . S
C469 N472 1.384 . S
C470 H461 0.929 . S
C470 C462 1.378 . S
C470 C465 1.350 . S
C471 H458 0.929 . S
C471 C463 1.433 . S
C471 N473 1.384 . S
N472 C468 1.427 . S
N472 C469 1.384 . S
N473 C465 1.427 . S
N473 C471 1.384 . S
H474 C480 0.930 . S
H475 C484 0.930 . S
H476 C489 0.929 . S
H477 C487 0.929 . S
H478 C482 0.929 . S
H479 C488 0.929 . S
C480 H474 0.930 . S
C480 C481 1.367 . S
C480 C488 1.378 . S
C481 C480 1.367 . S
C481 C489 1.433 . S
C482 H478 0.929 . S
C482 C484 1.378 . S
C482 C486 1.350 . S
C483 C486 1.463 . S
C483 C488 1.350 . S
C483 N491 1.427 . S
C484 H475 0.930 . S
C484 C482 1.378 . S
C484 C485 1.367 . S
C485 C484 1.367 . S
C485 C487 1.433 . S
C486 C482 1.350 . S
C486 C483 1.463 . S
C486 N490 1.427 . S
C487 H477 0.929 . S
C487 C485 1.433 . S
C487 N490 1.384 . S
C488 H479 0.929 . S
C488 C480 1.378 . S
C488 C483 1.350 . S
C489 H476 0.929 . S
C489 C481 1.433 . S
C489 N491 1.384 . S
N490 C486 1.427 . S
N490 C487 1.384 . S
N491 C483 1.427 . S
N491 C489 1.384 . S
H492 C498 0.930 . S
H493 C502 0.930 . S
H494 C507 0.929 1_655 S
H495 C505 0.929 1_455 S
H496 C500 0.929 1_554 S
H497 C506 0.929 1_556 S
C498 H492 0.930 . S
C498 C499 1.367 . S
C498 C506 1.378 . S
C499 C498 1.367 . S
C499 C507 1.433 . S
C500 H496 0.929 1_556 S
C500 C502 1.378 . S
C500 C504 1.350 . S
C501 C504 1.463 1_454 S
C501 C506 1.350 . S
C501 N509 1.427 1_455 S
C502 H493 0.930 . S
C502 C500 1.378 . S
C502 C503 1.367 . S
C503 C502 1.367 . S
C503 C505 1.433 . S
C504 C500 1.350 . S
C504 C501 1.463 1_656 S
C504 N508 1.427 1_655 S
C505 H495 0.929 1_655 S
C505 C503 1.433 . S
C505 N508 1.384 1_655 S
C506 H497 0.929 1_554 S
C506 C498 1.378 . S
C506 C501 1.350 . S
C507 H494 0.929 1_455 S
C507 C499 1.433 . S
C507 N509 1.384 1_455 S
N508 C504 1.427 1_455 S
N508 C505 1.384 1_455 S
N509 C501 1.427 1_655 S
N509 C507 1.384 1_655 S
H510 C516 0.930 . S
H511 C520 0.930 . S
H512 C525 0.929 . S
H513 C523 0.929 . S
H514 C518 0.929 . S
H515 C524 0.929 . S
C516 H510 0.930 . S
C516 C517 1.367 . S
C516 C524 1.378 1_554 S
C517 C516 1.367 . S
C517 C525 1.433 . S
C518 H514 0.929 . S
C518 C520 1.378 1_554 S
C518 C522 1.350 1_554 S
C519 C522 1.463 1_554 S
C519 C524 1.350 1_554 S
C519 N527 1.427 . S
C520 H511 0.930 . S
C520 C518 1.378 1_556 S
C520 C521 1.367 . S
C521 C520 1.367 . S
C521 C523 1.433 . S
C522 C518 1.350 1_556 S
C522 C519 1.463 1_556 S
C522 N526 1.427 . S
C523 H513 0.929 . S
C523 C521 1.433 . S
C523 N526 1.384 . S
C524 H515 0.929 . S
C524 C516 1.378 1_556 S
C524 C519 1.350 1_556 S
C525 H512 0.929 . S
C525 C517 1.433 . S
C525 N527 1.384 . S
N526 C522 1.427 . S
N526 C523 1.384 . S
N527 C519 1.427 . S
N527 C525 1.384 . S
H528 C534 0.930 . S
H529 C538 0.930 . S
H530 C543 0.929 1_556 S
H531 C541 0.929 1_554 S
H532 C536 0.929 1_565 S
H533 C542 0.929 1_545 S
C534 H528 0.930 . S
C534 C535 1.367 . S
C534 C542 1.378 . S
C535 C534 1.367 . S
C535 C543 1.433 . S
C536 H532 0.929 1_545 S
C536 C538 1.378 . S
C536 C540 1.350 . S
C537 C540 1.463 1_564 S
C537 C542 1.350 . S
C537 N545 1.427 1_554 S
C538 H529 0.930 . S
C538 C536 1.378 . S
C538 C539 1.367 . S
C539 C538 1.367 . S
C539 C541 1.433 . S
C540 C536 1.350 . S
C540 C537 1.463 1_546 S
C540 N544 1.427 1_556 S
C541 H531 0.929 1_556 S
C541 C539 1.433 . S
C541 N544 1.384 1_556 S
C542 H533 0.929 1_565 S
C542 C534 1.378 . S
C542 C537 1.350 . S
C543 H530 0.929 1_554 S
C543 C535 1.433 . S
C543 N545 1.384 1_554 S
N544 C540 1.427 1_554 S
N544 C541 1.384 1_554 S
N545 C537 1.427 1_556 S
N545 C543 1.384 1_556 S
H546 C552 0.930 . S
H547 C556 0.930 . S
H548 C561 0.929 1_545 S
H549 C559 0.929 1_565 S
H550 C554 0.929 . S
H551 C560 0.929 . S
C552 H546 0.930 . S
C552 C553 1.367 . S
C552 C560 1.378 . S
C553 C552 1.367 . S
C553 C561 1.433 . S
C554 H550 0.929 . S
C554 C556 1.378 . S
C554 C558 1.350 . S
C555 C558 1.463 1_565 S
C555 C560 1.350 . S
C555 N563 1.427 1_565 S
C556 H547 0.930 . S
C556 C554 1.378 . S
C556 C557 1.367 . S
C557 C556 1.367 . S
C557 C559 1.433 . S
C558 C554 1.350 . S
C558 C555 1.463 1_545 S
C558 N562 1.427 1_545 S
C559 H549 0.929 1_545 S
C559 C557 1.433 . S
C559 N562 1.384 1_545 S
C560 H551 0.929 . S
C560 C552 1.378 . S
C560 C555 1.350 . S
C561 H548 0.929 1_565 S
C561 C553 1.433 . S
C561 N563 1.384 1_565 S
N562 C558 1.427 1_565 S
N562 C559 1.384 1_565 S
N563 C555 1.427 1_545 S
N563 C561 1.384 1_545 S
H564 C570 0.930 1_455 S
H565 C574 0.930 1_655 S
H566 C579 0.929 . S
H567 C577 0.929 . S
H568 C572 0.929 . S
H569 C578 0.929 . S
C570 H564 0.930 1_655 S
C570 C571 1.367 . S
C570 C578 1.378 1_655 S
C571 C570 1.367 . S
C571 C579 1.433 . S
C572 H568 0.929 . S
C572 C574 1.378 1_655 S
C572 C576 1.350 1_655 S
C573 C576 1.463 1_655 S
C573 C578 1.350 1_655 S
C573 N581 1.427 . S
C574 H565 0.930 1_455 S
C574 C572 1.378 1_455 S
C574 C575 1.367 . S
C575 C574 1.367 . S
C575 C577 1.433 . S
C576 C572 1.350 1_455 S
C576 C573 1.463 1_455 S
C576 N580 1.427 . S
C577 H567 0.929 . S
C577 C575 1.433 . S
C577 N580 1.384 . S
C578 H569 0.929 . S
C578 C570 1.378 1_455 S
C578 C573 1.350 1_455 S
C579 H566 0.929 . S
C579 C571 1.433 . S
C579 N581 1.384 . S
N580 C576 1.427 . S
N580 C577 1.384 . S
N581 C573 1.427 . S
N581 C579 1.384 . S
H582 C588 0.930 . S
H583 C592 0.930 . S
H584 C597 0.929 . S
H585 C595 0.929 . S
H586 C590 0.929 . S
H587 C596 0.929 . S
C588 H582 0.930 . S
C588 C589 1.367 . S
C588 C596 1.378 . S
C589 C588 1.367 . S
C589 C597 1.433 . S
C590 H586 0.929 . S
C590 C592 1.378 . S
C590 C594 1.350 . S
C591 C594 1.463 . S
C591 C596 1.350 . S
C591 N599 1.427 . S
C592 H583 0.930 . S
C592 C590 1.378 . S
C592 C593 1.367 . S
C593 C592 1.367 . S
C593 C595 1.433 . S
C594 C590 1.350 . S
C594 C591 1.463 . S
C594 N598 1.427 . S
C595 H585 0.929 . S
C595 C593 1.433 . S
C595 N598 1.384 . S
C596 H587 0.929 . S
C596 C588 1.378 . S
C596 C591 1.350 . S
C597 H584 0.929 . S
C597 C589 1.433 . S
C597 N599 1.384 . S
N598 C594 1.427 . S
N598 C595 1.384 . S
N599 C591 1.427 . S
N599 C597 1.384 . S
C175 C9 0.770 . S
C179 C103 0.771 . S
C193 C23 0.767 . S
C197 C117 0.773 1_565 S
C211 C37 0.781 . S
C215 C89 0.774 1_455 S
C229 C159 0.776 . S
C233 C51 0.768 . S
C247 C65 0.781 . S
C251 C131 0.775 1_565 S
C265 C145 0.773 1_455 S
C269 C79 0.779 . S
C283 C19 0.777 . S
C287 C93 0.769 . S
C301 C107 0.772 . S
C305 C33 0.778 1_545 S
C319 C5 0.774 1_655 S
C323 C121 0.781 . S
C337 C135 0.781 . S
C341 C75 0.774 . S
C355 C149 0.777 . S
C359 C47 0.772 1_545 S
C373 C61 0.772 1_655 S
C377 C163 0.774 . S
C391 C81 1.593 . S
C395 C11 1.586 . S
C409 C25 1.589 . S
C413 C53 1.582 . S
C427 C39 1.588 . S
C431 C67 1.582 . S
C445 C95 1.582 . S
C449 C165 1.586 . S
C463 C109 1.583 . S
C467 C137 1.590 . S
C481 C123 1.588 . S
C485 C151 1.582 . S
C499 C0 1.610 . S
C503 C84 1.610 . S
C517 C14 1.599 . S
C521 C98 1.599 . S
C535 C28 1.613 . S
C539 C112 1.613 . S
C553 C42 1.607 . S
C557 C126 1.607 . S
C571 C140 1.601 . S
C575 C56 1.601 . S
C589 C70 1.606 . S
C593 C154 1.606 . S
