# Generated by pormake.
# Topology oof, (8)-cn, num edge types: 1
# Building blocks:
#     Node 0, Type 0, BuildingBlock: TAGTUT_clean_sbu_3, # of connection points: 8
#     Node 1, Type 0, BuildingBlock: TAGTUT_clean_sbu_3, # of connection points: 8
#     Node 2, Type 0, BuildingBlock: TAGTUT_clean_sbu_3, # of connection points: 8
#     Node 3, Type 0, BuildingBlock: TAGTUT_clean_sbu_3, # of connection points: 8
#     Edge 4, Type (0, 0), BuildingBlock: ZUJKAS_clean_linker_0, # of connection points: 2
#     Edge 5, Type (0, 0), BuildingBlock: ZUJKAS_clean_linker_0, # of connection points: 2
#     Edge 6, Type (0, 0), BuildingBlock: ZUJKAS_clean_linker_0, # of connection points: 2
#     Edge 7, Type (0, 0), BuildingBlock: ZUJKAS_clean_linker_0, # of connection points: 2
#     Edge 8, Type (0, 0), BuildingBlock: ZUJKAS_clean_linker_0, # of connection points: 2
#     Edge 9, Type (0, 0), BuildingBlock: ZUJKAS_clean_linker_0, # of connection points: 2
#     Edge 10, Type (0, 0), BuildingBlock: ZUJKAS_clean_linker_0, # of connection points: 2
#     Edge 11, Type (0, 0), BuildingBlock: ZUJKAS_clean_linker_0, # of connection points: 2
#     Edge 12, Type (0, 0), BuildingBlock: ZUJKAS_clean_linker_0, # of connection points: 2
#     Edge 13, Type (0, 0), BuildingBlock: ZUJKAS_clean_linker_0, # of connection points: 2
#     Edge 14, Type (0, 0), BuildingBlock: ZUJKAS_clean_linker_0, # of connection points: 2
#     Edge 15, Type (0, 0), BuildingBlock: ZUJKAS_clean_linker_0, # of connection points: 2
#     Edge 16, Type (0, 0), BuildingBlock: ZUJKAS_clean_linker_0, # of connection points: 2
#     Edge 17, Type (0, 0), BuildingBlock: ZUJKAS_clean_linker_0, # of connection points: 2
#     Edge 18, Type (0, 0), BuildingBlock: ZUJKAS_clean_linker_0, # of connection points: 2
#     Edge 19, Type (0, 0), BuildingBlock: ZUJKAS_clean_linker_0, # of connection points: 2
# Relax obj value: 0.063
# Max RMSD: 0.155
# Mean RMSD: 0.155
data_MOF--net-oof--node1-TAGTUT_clean_sbu_3--edge1-ZUJKAS_clean_linker_0
_symmetry_space_group_name_H-M    P1
_symmetry_Int_Tables_number       1
_symmetry_cell_setting            triclinic
loop_
_symmetry_equiv_pos_as_xyz
'x, y, z'
_cell_length_a     20.069571
_cell_length_b     78.671271
_cell_length_c     19.579635
_cell_angle_alpha  90.064687
_cell_angle_beta   87.22384
_cell_angle_gamma 89.966056
loop_
_atom_site_label
_atom_site_type_symbol
_atom_site_fract_x
_atom_site_fract_y
_atom_site_fract_z
_atom_type_partial_charge
C0 C 0.1293 0.15961 0.24099 0.0
C1 C -0.01518 0.21346 0.28347 0.0
C2 C 0.84521 0.18833 0.15225 0.0
Mg3 Mg 0.09317 0.12054 0.21058 0.0
Mg4 Mg 0.94838 0.1041 0.25791 0.0
O5 O -0.00694 0.12161 0.21186 0.0
Mg6 Mg 0.97817 0.14615 0.23833 0.0
O7 O 0.97088 0.17108 0.25962 0.0
Mg8 Mg 0.01041 0.18076 0.17238 0.0
Mg9 Mg 0.89282 0.18146 0.29598 0.0
C10 C 0.82867 0.12942 0.23419 0.0
O11 O 0.94821 0.14156 0.35096 0.0
O12 O 0.08658 0.09306 0.16462 0.0
O13 O 0.87669 0.16305 0.37855 0.0
O14 O 0.09574 0.1074 0.31761 0.0
O15 O 0.98424 0.08322 0.19517 0.0
O16 O -0.00818 0.10097 0.35409 0.0
O17 O 0.00531 0.15311 0.12888 0.0
O18 O 0.08444 0.13355 0.10597 0.0
C19 C 0.04805 0.14601 0.0873 0.0
C20 C 0.04187 0.08131 0.16491 0.0
O21 O 0.86757 0.14212 0.22122 0.0
O22 O 0.01406 0.20687 0.22975 0.0
O23 O 0.8496 0.11478 0.25274 0.0
O24 O 0.90687 0.18758 0.1325 0.0
O25 O 0.93761 0.20578 0.31747 0.0
O26 O 0.82605 0.18514 0.21407 0.0
O27 O 0.08788 0.14771 0.2559 0.0
O28 O 0.11078 0.17335 0.21259 0.0
C29 C 0.0543 0.10131 0.36309 0.0
C30 C 0.90674 0.14913 0.39305 0.0
C31 C 0.05366 0.87735 0.58666 0.0
C32 C 0.04637 0.94217 0.66547 0.0
C33 C 0.05828 0.92201 0.86293 0.0
Mg34 Mg 0.01554 0.84266 0.67121 0.0
Mg35 Mg 0.89932 0.84199 0.79614 0.0
O36 O 0.97684 0.85237 0.75887 0.0
Mg37 Mg 0.98372 0.87727 0.73751 0.0
O38 O -0.00187 0.90179 0.71098 0.0
Mg39 Mg 0.09816 0.90294 0.71004 0.0
Mg40 Mg 0.95292 0.91919 0.75745 0.0
C41 C 0.91312 0.8744 0.89274 0.0
O42 O 0.87324 0.88118 0.71991 0.0
O43 O 0.01944 0.81655 0.72815 0.0
O44 O 0.8543 0.90855 0.75084 0.0
O45 O 0.91142 0.83586 0.63216 0.0
O46 O 0.94445 0.81767 0.81714 0.0
O47 O 0.83182 0.83855 0.71492 0.0
O48 O 0.09348 0.87575 0.75501 0.0
O49 O 0.1161 0.85011 0.71082 0.0
C50 C 0.13478 0.86384 0.73935 0.0
C51 C -0.0089 0.80997 0.7823 0.0
O52 O 0.954 0.88197 0.85019 0.0
O53 O 0.09121 0.93043 0.66446 0.0
O54 O 0.88342 0.8604 0.87875 0.0
O55 O 0.10006 0.91609 0.8173 0.0
O56 O -0.01114 0.94018 0.69585 0.0
O57 O -0.00421 0.92217 0.85395 0.0
O58 O 0.01075 0.87033 0.62818 0.0
O59 O 0.08991 0.88985 0.60531 0.0
C60 C 0.84998 0.83524 0.6529 0.0
C61 C 0.83397 0.89387 0.73197 0.0
C62 C 0.55006 0.64593 0.09196 0.0
C63 C 0.54258 0.58125 0.17281 0.0
C64 C 0.5573 0.60193 0.36944 0.0
Mg65 Mg 0.51364 0.6808 0.17649 0.0
Mg66 Mg 0.39553 0.68167 0.29949 0.0
O67 O 0.47388 0.67127 0.26398 0.0
Mg68 Mg 0.48062 0.64631 0.24316 0.0
O69 O 0.49487 0.62171 0.21711 0.0
Mg70 Mg 0.59506 0.62054 0.21546 0.0
Mg71 Mg 0.45064 0.60455 0.26567 0.0
C72 C 0.4086 0.64941 0.39706 0.0
O73 O 0.36977 0.64244 0.22676 0.0
O74 O 0.51742 0.70697 0.23348 0.0
O75 O 0.35202 0.6153 0.26114 0.0
O76 O 0.41035 0.68771 0.13615 0.0
O77 O 0.4404 0.70598 0.32076 0.0
O78 O 0.32911 0.68528 0.21725 0.0
O79 O 0.59032 0.64773 0.26057 0.0
O80 O 0.61391 0.67333 0.21705 0.0
C81 C 0.63195 0.65959 0.24582 0.0
C82 C 0.48788 0.71361 0.28695 0.0
O83 O 0.45067 0.64184 0.35564 0.0
O84 O 0.58743 0.59297 0.17044 0.0
O85 O 0.37855 0.66329 0.38201 0.0
O86 O 0.59833 0.60758 0.32267 0.0
O87 O 0.48569 0.58331 0.20446 0.0
O88 O 0.4946 0.60197 0.36183 0.0
O89 O 0.50785 0.6531 0.13386 0.0
O90 O 0.58621 0.6334 0.11043 0.0
C91 C 0.34861 0.68847 0.15554 0.0
C92 C 0.33091 0.62984 0.24167 0.0
C93 C 0.5491 0.37754 0.5864 0.0
C94 C 0.54199 0.44225 0.66713 0.0
C95 C 0.55317 0.42184 0.86383 0.0
Mg96 Mg 0.51157 0.34273 0.67048 0.0
Mg97 Mg 0.39452 0.34188 0.79459 0.0
O98 O 0.47206 0.35235 0.75799 0.0
Mg99 Mg 0.47883 0.37729 0.73711 0.0
O100 O 0.49326 0.40184 0.71103 0.0
Mg101 Mg 0.59334 0.40296 0.71047 0.0
Mg102 Mg 0.44814 0.41913 0.75828 0.0
C103 C 0.40718 0.37429 0.89151 0.0
O104 O 0.3681 0.38122 0.71926 0.0
O105 O 0.51537 0.31658 0.7271 0.0
O106 O 0.34947 0.40855 0.75089 0.0
O107 O 0.4079 0.33582 0.63045 0.0
O108 O 0.43999 0.31761 0.81579 0.0
O109 O 0.32779 0.33831 0.71278 0.0
O110 O 0.58858 0.37577 0.7552 0.0
O111 O 0.61184 0.35018 0.71108 0.0
C112 C 0.63013 0.36388 0.74003 0.0
C113 C 0.48686 0.30995 0.78106 0.0
O114 O 0.44862 0.38188 0.84962 0.0
O115 O 0.58657 0.43046 0.66545 0.0
O116 O 0.37764 0.36031 0.877 0.0
O117 O 0.59494 0.41606 0.81786 0.0
O118 O 0.48456 0.44028 0.6977 0.0
O119 O 0.49061 0.4218 0.85521 0.0
O120 O 0.5064 0.37043 0.62788 0.0
O121 O 0.58533 0.39002 0.60531 0.0
C122 C 0.34638 0.33509 0.65081 0.0
C123 C 0.32892 0.39392 0.73163 0.0
H124 H 0.12111 0.13124 0.98188 0.0
H125 H 0.09466 0.13144 0.8618 0.0
H126 H 0.93954 0.16842 0.9051 0.0
H127 H 0.96485 0.16818 0.0257 0.0
H128 H 0.896 0.13837 0.84327 0.0
H129 H 0.1194 0.16506 0.70361 0.0
H130 H 0.13778 0.14849 0.76282 0.0
H131 H 0.10283 0.16821 0.79423 0.0
C132 C 0.08259 0.13979 0.96573 0.0
C133 C 0.04438 0.1495 0.01359 0.0
C134 C 0.0677 0.1399 0.89698 0.0
C135 C 0.01507 0.14989 0.87495 0.0
C136 C 0.9802 0.16058 0.92148 0.0
H137 H 0.82469 0.16126 0.49774 0.0
H138 H 0.84302 0.15829 0.61917 0.0
C139 C -0.005 0.16048 0.9903 0.0
C140 C -0.00823 0.14771 0.80535 0.0
H141 H 0.04078 0.15082 0.63703 0.0
C142 C 0.92738 0.14118 0.79802 0.0
C143 C 0.03325 0.15124 0.74688 0.0
C144 C 0.10196 0.15878 0.75204 0.0
C145 C 0.9035 0.13791 0.73325 0.0
C146 C 0.94504 0.14143 0.67481 0.0
C147 C 0.00944 0.14793 0.68223 0.0
C148 C 0.92189 0.13967 0.60495 0.0
C149 C 0.8346 0.13053 0.72783 0.0
C150 C 0.95829 0.12963 0.5572 0.0
C151 C 0.9485 0.13144 0.48765 0.0
C152 C 0.90241 0.14339 0.4649 0.0
C153 C 0.86109 0.15207 0.51346 0.0
C154 C 0.87115 0.15031 0.58305 0.0
H155 H 0.81701 0.12418 0.77605 0.0
H156 H 0.79912 0.14092 0.7174 0.0
H157 H 0.83345 0.12121 0.68526 0.0
H158 H -0.00234 0.12134 0.57338 0.0
H159 H 0.9812 0.12458 0.45189 0.0
H160 H 0.96995 0.85533 0.5249 0.0
H161 H 0.94515 0.85508 0.40416 0.0
H162 H 0.10223 0.89149 0.36128 0.0
H163 H 0.12815 0.8917 0.4815 0.0
H164 H 0.90348 0.88545 0.34277 0.0
H165 H 0.12499 0.8577 0.20279 0.0
H166 H 0.10808 0.85456 0.29334 0.0
H167 H 0.14435 0.87414 0.26235 0.0
C168 C 0.00065 0.8629 0.48957 0.0
C169 C 0.05037 0.87375 0.51299 0.0
C170 C -0.01385 0.86278 0.42068 0.0
C171 C 0.02168 0.87333 0.37425 0.0
C172 C 0.07473 0.88314 0.3964 0.0
H173 H -0.01021 0.8985 0.9513 0.0
H174 H 0.00637 0.90181 0.07272 0.0
C175 C 0.08932 0.88327 0.46523 0.0
C176 C -0.00149 0.87561 0.3047 0.0
H177 H 0.04713 0.87224 0.13636 0.0
C178 C 0.9346 0.88247 0.29747 0.0
C179 C 0.03969 0.87188 0.24621 0.0
C180 C 0.10789 0.86402 0.25131 0.0
C181 C 0.91091 0.88586 0.23275 0.0
C182 C 0.95212 0.88212 0.17428 0.0
C183 C 0.01605 0.87529 0.1816 0.0
C184 C 0.92902 0.88397 0.10447 0.0
C185 C 0.84258 0.89361 0.22744 0.0
C186 C 0.87737 0.87361 0.08269 0.0
C187 C 0.86716 0.87184 0.01311 0.0
C188 C 0.90922 0.88023 0.96449 0.0
C189 C 0.95636 0.89191 0.98712 0.0
C190 C 0.96626 0.89374 0.05663 0.0
H191 H 0.82563 0.9001 0.27565 0.0
H192 H 0.84205 0.90289 0.18479 0.0
H193 H 0.80626 0.8834 0.21723 0.0
H194 H 0.84859 0.86582 0.11889 0.0
H195 H 0.82998 0.86285 -0.00254 0.0
H196 H 0.46563 0.66793 0.03134 0.0
H197 H 0.43691 0.66759 0.91181 0.0
H198 H 0.59326 0.63112 0.86588 0.0
H199 H 0.62211 0.63116 0.98559 0.0
H200 H 0.50893 0.67262 0.78478 0.0
H201 H 0.41889 0.60622 0.81962 0.0
H202 H 0.43736 0.61983 0.89057 0.0
H203 H 0.50388 0.60974 0.84092 0.0
C204 C 0.49503 0.66012 -0.0043 0.0
C205 C 0.54513 0.64926 0.0183 0.0
C206 C 0.47833 0.65991 0.92747 0.0
C207 C 0.51166 0.64891 0.88105 0.0
C208 C 0.56593 0.63933 0.9018 0.0
H209 H 0.48835 0.62662 0.45938 0.0
H210 H 0.50204 0.6243 0.58175 0.0
C211 C 0.58262 0.63949 0.97005 0.0
C212 C 0.48687 0.64669 0.81216 0.0
H213 H 0.41814 0.61751 0.7073 0.0
C214 C 0.48873 0.66063 0.76781 0.0
C215 C 0.46015 0.63101 0.79094 0.0
C216 C 0.45426 0.61586 0.8381 0.0
C217 C 0.46623 0.65918 0.70156 0.0
C218 C 0.44015 0.64345 0.68006 0.0
C219 C 0.43772 0.62954 0.72456 0.0
C220 C 0.41982 0.64111 0.60959 0.0
C221 C 0.47231 0.67433 0.65436 0.0
C222 C 0.36599 0.65032 0.58567 0.0
C223 C 0.35777 0.65164 0.5156 0.0
C224 C 0.40347 0.64376 0.4689 0.0
C225 C 0.45239 0.63289 0.49377 0.0
C226 C 0.46053 0.63158 0.5638 0.0
H227 H 0.50455 0.68443 0.67475 0.0
H228 H 0.49317 0.67046 0.60311 0.0
H229 H 0.42207 0.67982 0.64789 0.0
H230 H 0.33348 0.6575 0.62083 0.0
H231 H 0.31885 0.65988 0.49809 0.0
H232 H 0.4875 0.39707 0.95315 0.0
H233 H 0.50211 0.39945 0.07539 0.0
H234 H 0.33353 0.3664 0.11571 0.0
H235 H 0.31796 0.36399 0.99313 0.0
H236 H 0.41867 0.40629 0.20188 0.0
H237 H 0.50549 0.33941 0.1678 0.0
H238 H 0.4937 0.35343 0.09648 0.0
H239 H 0.42285 0.34401 0.14134 0.0
C240 C 0.4517 0.39087 0.98781 0.0
C241 C 0.40249 0.38003 0.96331 0.0
C242 C 0.46037 0.3922 0.05776 0.0
C243 C 0.41993 0.38273 0.10384 0.0
C244 C 0.36582 0.37355 0.08032 0.0
H245 H 0.46512 0.35559 0.52475 0.0
H246 H 0.43712 0.35605 0.405 0.0
C247 C 0.35706 0.37221 0.01034 0.0
C248 C 0.44077 0.38037 0.17411 0.0
H249 H 0.50976 0.35113 0.27816 0.0
C250 C 0.43837 0.39426 0.21888 0.0
C251 C 0.467 0.36463 0.19523 0.0
C252 C 0.47307 0.34951 0.14772 0.0
C253 C 0.46083 0.39274 0.28522 0.0
C254 C 0.48756 0.37703 0.30613 0.0
C255 C 0.48954 0.36313 0.26145 0.0
C256 C 0.51201 0.37473 0.37511 0.0
C257 C 0.45486 0.40785 0.33271 0.0
C258 C 0.56616 0.38426 0.39641 0.0
C259 C 0.58245 0.38404 0.46479 0.0
C260 C 0.54467 0.37425 0.51262 0.0
C261 C 0.49472 0.36342 0.48945 0.0
C262 C 0.47844 0.3637 0.42109 0.0
H263 H 0.41963 0.41753 0.31432 0.0
H264 H 0.43774 0.40385 0.38503 0.0
H265 H 0.5045 0.41393 0.33588 0.0
H266 H 0.59369 0.39249 0.36084 0.0
H267 H 0.62184 0.39234 0.48076 0.0
H268 H 0.76347 0.15657 0.18165 0.0
H269 H 0.64323 0.16169 0.18687 0.0
H270 H 0.61036 0.11292 0.28317 0.0
H271 H 0.73022 0.10784 0.27998 0.0
H272 H 0.5409 0.14126 0.13214 0.0
H273 H 0.5154 0.14728 0.4153 0.0
H274 H 0.59484 0.14868 0.36823 0.0
H275 H 0.55678 0.12832 0.38438 0.0
C276 C 0.73072 0.147 0.20433 0.0
C277 C 0.75634 0.13196 0.23149 0.0
C278 C 0.66223 0.1499 0.20695 0.0
C279 C 0.61873 0.1378 0.23672 0.0
C280 C 0.64374 0.12251 0.26141 0.0
H281 H 0.19016 0.13143 0.29107 0.0
H282 H 0.31014 0.12607 0.2925 0.0
C283 C 0.71212 0.11961 0.25899 0.0
C284 C 0.54687 0.1411 0.24164 0.0
H285 H 0.41516 0.14678 0.35584 0.0
C286 C 0.51329 0.14254 0.1809 0.0
C287 C 0.5117 0.14268 0.30561 0.0
C288 C 0.54647 0.14181 0.37218 0.0
C289 C 0.44453 0.14537 0.18245 0.0
C290 C 0.40942 0.14698 0.24637 0.0
C291 C 0.44286 0.14547 0.30714 0.0
C292 C 0.33791 0.15064 0.25071 0.0
C293 C 0.40975 0.14643 0.11592 0.0
C294 C 0.31494 0.16639 0.22868 0.0
C295 C 0.24686 0.16948 0.22756 0.0
C296 C 0.2009 0.15683 0.24861 0.0
C297 C 0.22434 0.14132 0.27374 0.0
C298 C 0.29264 0.13825 0.27479 0.0
H299 H 0.44119 0.14133 0.07232 0.0
H300 H 0.36192 0.13932 0.11936 0.0
H301 H 0.39829 0.15993 0.10498 0.0
H302 H 0.34974 0.17615 0.21101 0.0
H303 H 0.23043 0.18165 0.20869 0.0
H304 H 0.73421 0.91511 0.7775 0.0
H305 H 0.61454 0.90984 0.77794 0.0
H306 H 0.65066 0.86182 0.67613 0.0
H307 H 0.7708 0.86701 0.67477 0.0
H308 H 0.53219 0.9022 0.66349 0.0
H309 H 0.54037 0.85069 0.85786 0.0
H310 H 0.60761 0.8657 0.8433 0.0
H311 H 0.59688 0.84858 0.78418 0.0
C312 C 0.71686 0.90348 0.75465 0.0
C313 C 0.7619 0.8913 0.72716 0.0
C314 C 0.64859 0.90052 0.75505 0.0
C315 C 0.6246 0.88536 0.72815 0.0
C316 C 0.66894 0.87346 0.69822 0.0
H317 H 0.23616 0.84232 0.70117 0.0
H318 H 0.35533 0.848 0.70183 0.0
C319 C 0.73733 0.87642 0.69769 0.0
C320 C 0.55294 0.88191 0.73302 0.0
H321 H 0.43599 0.85637 0.81179 0.0
C322 C 0.51086 0.89222 0.69589 0.0
C323 C 0.5262 0.8689 0.77568 0.0
C324 C 0.56987 0.85788 0.81804 0.0
C325 C 0.44191 0.88964 0.69938 0.0
C326 C 0.4151 0.87665 0.7422 0.0
C327 C 0.45724 0.86636 0.77943 0.0
C328 C 0.34348 0.87304 0.74656 0.0
C329 C 0.3985 0.90052 0.65617 0.0
C330 C 0.29809 0.88513 0.77337 0.0
C331 C 0.22985 0.88198 0.77296 0.0
C332 C 0.20649 0.86667 0.74587 0.0
C333 C 0.25253 0.85431 0.72186 0.0
C334 C 0.32057 0.85749 0.72222 0.0
H335 H 0.42817 0.90736 0.61547 0.0
H336 H 0.3602 0.89267 0.63189 0.0
H337 H 0.37228 0.91012 0.68919 0.0
H338 H 0.31546 0.89707 0.79358 0.0
H339 H 0.1956 0.89163 0.79266 0.0
H340 H 0.73517 0.6802 0.20473 0.0
H341 H 0.85388 0.67451 0.21226 0.0
H342 H 0.80905 0.62737 0.31705 0.0
H343 H 0.68974 0.63284 0.30931 0.0
H344 H 0.93126 0.66787 0.32792 0.0
H345 H 0.92513 0.6137 0.14481 0.0
H346 H 0.85771 0.62882 0.15538 0.0
H347 H 0.86777 0.61249 0.21805 0.0
C348 C 0.75037 0.66866 0.22977 0.0
C349 C 0.70319 0.6568 0.25542 0.0
C350 C 0.81813 0.66548 0.23414 0.0
C351 C 0.83956 0.65044 0.26419 0.0
C352 C 0.79289 0.63891 0.29261 0.0
H353 H 0.23358 0.60876 0.29341 0.0
H354 H 0.11382 0.61394 0.30007 0.0
C355 C 0.72497 0.64205 0.28812 0.0
C356 C 0.91099 0.64659 0.26283 0.0
H357 H 0.0287 0.6201 0.19051 0.0
C358 C 0.95279 0.65741 0.29815 0.0
C359 C 0.93813 0.63296 0.22353 0.0
C360 C 0.8951 0.62137 0.18277 0.0
C361 C 0.02182 0.65491 0.29531 0.0
C362 C 0.04896 0.64142 0.25533 0.0
C363 C 0.00711 0.63046 0.22079 0.0
C364 C 0.12092 0.63831 0.24926 0.0
C365 C 0.06508 0.66658 0.33542 0.0
C366 C 0.16369 0.65019 0.21686 0.0
C367 C 0.2322 0.64727 0.21266 0.0
C368 C 0.25849 0.63243 0.24078 0.0
C369 C 0.21494 0.62033 0.27128 0.0
C370 C 0.1466 0.62326 0.2754 0.0
H371 H 0.03547 0.6738 0.37512 0.0
H372 H 0.10441 0.65927 0.36056 0.0
H373 H 0.09006 0.67585 0.30003 0.0
H374 H 0.14409 0.66171 0.19512 0.0
H375 H 0.26442 0.65664 0.18777 0.0
H376 H 0.73161 0.3418 0.70889 0.0
H377 H 0.85073 0.3472 0.71298 0.0
H378 H 0.81028 0.3973 0.7946 0.0
H379 H 0.69049 0.39211 0.79038 0.0
H380 H 0.89815 0.39601 0.67628 0.0
H381 H 0.97143 0.35067 0.87662 0.0
H382 H 0.92229 0.34144 0.81188 0.0
H383 H 0.88623 0.35744 0.86792 0.0
C384 C 0.74782 0.35391 0.7285 0.0
C385 C 0.70164 0.36662 0.74869 0.0
C386 C 0.81588 0.3569 0.7312 0.0
C387 C 0.83872 0.37256 0.75465 0.0
C388 C 0.79305 0.38512 0.77663 0.0
H389 H 0.22975 0.4159 0.77236 0.0
H390 H 0.10998 0.41095 0.77303 0.0
C391 C 0.72481 0.38213 0.77404 0.0
C392 C 0.91037 0.37623 0.75069 0.0
H393 H 0.05946 0.36288 0.80698 0.0
C394 C 0.93353 0.38891 0.70524 0.0
C395 C 0.95578 0.36677 0.78827 0.0
C396 C 0.93277 0.35341 0.83939 0.0
C397 C 0.00173 0.39219 0.69536 0.0
C398 C 0.04713 0.38264 0.73258 0.0
C399 C 0.024 0.37003 0.77827 0.0
C400 C 0.11892 0.38601 0.72699 0.0
C401 C 0.0249 0.40558 0.64447 0.0
C402 C 0.16294 0.37354 0.70075 0.0
C403 C 0.23149 0.3763 0.70019 0.0
C404 C 0.25669 0.39147 0.72672 0.0
C405 C 0.21203 0.40408 0.75148 0.0
C406 C 0.14361 0.40132 0.75178 0.0
H407 H -0.01466 0.40897 0.60909 0.0
H408 H 0.03864 0.41725 0.67239 0.0
H409 H 0.0697 0.40119 0.61389 0.0
H410 H 0.14423 0.36163 0.68145 0.0
H411 H 0.26459 0.3665 0.67979 0.0
H412 H 0.36866 0.3252 0.51743 0.0
H413 H 0.29428 0.3088 0.44791 0.0
H414 H 0.13843 0.31266 0.60664 0.0
H415 H 0.21291 0.32892 0.67729 0.0
H416 H 0.16621 0.27978 0.56914 0.0
H417 H 0.13268 0.31841 0.3371 0.0
H418 H 0.21859 0.31575 0.35627 0.0
H419 H 0.16334 0.3273 0.41467 0.0
C420 C 0.31809 0.32293 0.53714 0.0
C421 C 0.29717 0.32824 0.60348 0.0
C422 C 0.27536 0.31361 0.49693 0.0
C423 C 0.21056 0.30955 0.52178 0.0
C424 C 0.18821 0.31566 0.58634 0.0
H425 H 0.92931 0.23291 0.38763 0.0
H426 H 0.97837 0.25747 0.44264 0.0
C427 C 0.23091 0.32499 0.62666 0.0
C428 C 0.16958 0.2972 0.48436 0.0
H429 H 0.10469 0.28884 0.32955 0.0
C430 C 0.15188 0.28187 0.5171 0.0
C431 C 0.15156 0.29985 0.41618 0.0
C432 C 0.16696 0.31629 0.37916 0.0
C433 C 0.11861 0.26893 0.48304 0.0
C434 C 0.10115 0.27148 0.41459 0.0
C435 C 0.118 0.2869 0.38201 0.0
C436 C 0.06736 0.258 0.37577 0.0
C437 C 0.10481 0.25236 0.5199 0.0
C438 C 0.09943 0.25065 0.31763 0.0
C439 C 0.07119 0.23665 0.28549 0.0
C440 C 0.01026 0.22973 0.31096 0.0
C441 C 0.97663 0.23774 0.36701 0.0
C442 C 0.00474 0.25177 0.3988 0.0
H443 H 0.13561 0.25093 0.5652 0.0
H444 H 0.05158 0.25195 0.53795 0.0
H445 H 0.11468 0.24135 0.4853 0.0
H446 H 0.14764 0.25531 0.29873 0.0
H447 H 0.09849 0.23086 0.24243 0.0
H448 H 0.59107 0.29063 0.72796 0.0
H449 H 0.64216 0.26589 0.77995 0.0
H450 H 0.49498 0.26794 0.9476 0.0
H451 H 0.44295 0.29247 0.89575 0.0
H452 H 0.69726 0.26666 0.90516 0.0
H453 H 0.50037 0.21729 0.90558 0.0
H454 H 0.49796 0.23613 0.85306 0.0
H455 H 0.47247 0.23712 0.94232 0.0
C456 C 0.56863 0.28563 0.77518 0.0
C457 C 0.51286 0.29364 0.80763 0.0
C458 C 0.598 0.27147 0.80489 0.0
C459 C 0.57205 0.26491 0.86735 0.0
C460 C 0.5151 0.2725 0.89869 0.0
H461 H 0.71686 0.19926 0.18115 0.0
H462 H 0.64781 0.21617 0.10699 0.0
C463 C 0.48565 0.28665 0.86906 0.0
C464 C 0.60852 0.25136 0.90315 0.0
H465 H 0.59187 0.21207 0.97672 0.0
C466 C 0.67446 0.25464 0.92 0.0
C467 C 0.5785 0.23575 0.92322 0.0
C468 C 0.50862 0.23126 0.90461 0.0
C469 C 0.71068 0.24297 0.9577 0.0
C470 C 0.68071 0.22736 0.978 0.0
C471 C 0.61486 0.224 0.96088 0.0
C472 C 0.71689 0.21474 0.01886 0.0
C473 C 0.78002 0.24774 0.97753 0.0
C474 C 0.77698 0.20758 0.99289 0.0
C475 C 0.81674 0.198 0.03516 0.0
C476 C 0.79692 0.19526 0.10424 0.0
C477 C 0.73394 0.20121 0.12842 0.0
C478 C 0.69435 0.2109 0.08609 0.0
H479 H 0.78921 0.26162 0.97258 0.0
H480 H 0.78839 0.2439 0.03101 0.0
H481 H 0.81724 0.24107 0.94337 0.0
H482 H 0.79456 0.21003 0.94065 0.0
H483 H 0.86443 0.19339 0.01443 0.0
H484 H 0.60157 0.73104 0.24607 0.0
H485 H 0.65041 0.75554 0.30231 0.0
H486 H 0.48084 0.75769 0.44585 0.0
H487 H 0.43207 0.73308 0.39088 0.0
H488 H 0.60663 0.78911 0.33294 0.0
H489 H 0.63825 0.75123 0.56859 0.0
H490 H 0.61766 0.74163 0.48863 0.0
H491 H 0.55426 0.75215 0.54114 0.0
C492 C 0.57414 0.73684 0.28903 0.0
C493 C 0.5132 0.7299 0.31441 0.0
C494 C 0.60219 0.75086 0.32113 0.0
C495 C 0.56994 0.75823 0.37914 0.0
C496 C 0.50733 0.75198 0.40209 0.0
H497 H 0.71655 0.82916 0.68032 0.0
H498 H 0.64144 0.81296 0.61013 0.0
C499 C 0.47939 0.73792 0.37032 0.0
C500 C 0.60352 0.77175 0.41794 0.0
H501 H 0.66881 0.78008 0.57234 0.0
C502 C 0.62006 0.78718 0.38536 0.0
C503 C 0.6211 0.76921 0.48635 0.0
C504 C 0.60753 0.75262 0.52321 0.0
C505 C 0.65352 0.80016 0.41948 0.0
C506 C 0.67179 0.79751 0.48759 0.0
C507 C 0.65431 0.78217 0.52036 0.0
C508 C 0.71301 0.80984 0.52477 0.0
C509 C 0.66861 0.81661 0.38246 0.0
C510 C 0.77769 0.81389 0.49948 0.0
C511 C 0.82076 0.82317 0.53942 0.0
C512 C 0.80033 0.82845 0.60593 0.0
C513 C 0.73418 0.82523 0.62956 0.0
C514 C 0.69112 0.81595 0.5895 0.0
H515 H 0.63401 0.81874 0.34068 0.0
H516 H 0.6652 0.82761 0.41804 0.0
H517 H 0.7201 0.81609 0.35917 0.0
H518 H 0.79625 0.80909 0.45031 0.0
H519 H 0.87123 0.82542 0.51935 0.0
H520 H 0.36869 0.69367 0.01789 0.0
H521 H 0.29922 0.71033 0.9438 0.0
H522 H 0.15143 0.71631 0.10928 0.0
H523 H 0.22007 0.69936 0.18373 0.0
H524 H 0.09626 0.71222 0.97887 0.0
H525 H 0.29309 0.76189 0.97552 0.0
H526 H 0.32147 0.74136 0.94637 0.0
H527 H 0.29225 0.74417 0.03392 0.0
C528 C 0.32087 0.69824 0.03836 0.0
C529 C 0.30062 0.69544 0.10728 0.0
C530 C 0.28133 0.70784 -0.00409 0.0
C531 C 0.22105 0.71496 0.02156 0.0
C532 C 0.19812 0.71107 0.08863 0.0
H533 H 0.94696 0.79249 0.89691 0.0
H534 H -0.00094 0.76802 0.94911 0.0
C535 C 0.23748 0.70137 0.13113 0.0
C536 C 0.18495 0.72756 0.9805 0.0
H537 H 0.20145 0.76685 0.90752 0.0
C538 C 0.11921 0.72415 0.96308 0.0
C539 C 0.21486 0.74318 0.96027 0.0
C540 C 0.28405 0.748 0.98041 0.0
C541 C 0.08292 0.73587 0.9252 0.0
C542 C 0.11288 0.7515 0.90518 0.0
C543 C 0.17871 0.75482 0.92232 0.0
C544 C 0.07643 0.76502 0.86915 0.0
C545 C 0.01318 0.73133 0.90629 0.0
C546 C 0.10251 0.77156 0.80672 0.0
C547 C 0.07307 0.78569 0.7768 0.0
C548 C 0.01713 0.79367 0.809 0.0
C549 C -0.0102 0.78669 0.8704 0.0
C550 C 0.0193 0.77258 0.90024 0.0
H551 H 0.00505 0.71737 0.9073 0.0
H552 H 0.97682 0.73719 0.94381 0.0
H553 H 0.0027 0.73618 0.85465 0.0
H554 H 0.14679 0.766 0.78197 0.0
H555 H 0.09562 0.79068 0.72962 0.0
H556 H 0.16195 0.0703 0.10634 0.0
H557 H 0.19008 0.04153 0.06576 0.0
H558 H -0.01169 0.02536 0.11497 0.0
H559 H 0.95968 0.05383 0.15557 0.0
H560 H 0.09204 1.00369 0.16647 0.0
H561 H 0.12805 0.01805 0.88836 0.0
H562 H 0.17228 0.03095 0.94714 0.0
H563 H 0.08308 0.03221 0.94676 0.0
C564 C 0.12334 0.06068 0.10779 0.0
C565 C 0.05846 0.06445 0.13418 0.0
C566 C 0.13958 0.04424 0.08465 0.0
C567 C 0.09123 0.03133 0.08738 0.0
C568 C 0.02642 0.03512 0.11271 0.0
H569 H -0.01221 0.93295 0.97744 0.0
H570 H 0.01251 0.95819 0.04333 0.0
C571 C 0.01011 0.05147 0.13561 0.0
C572 C 0.10727 0.01375 0.06463 0.0
H573 H 0.13464 0.98954 0.92143 0.0
C574 C 0.10232 1.00058 0.113 0.0
C575 C 0.12133 1.00975 -0.00495 0.0
C576 C 0.12625 0.02341 0.94095 0.0
C577 C 0.10848 0.98345 0.09324 0.0
C578 C 0.11853 0.97939 0.02311 0.0
C579 C 0.12711 0.99262 0.97525 0.0
C580 C 0.11158 0.96178 -0.00325 0.0
C581 C 0.10297 0.9699 0.14761 0.0
C582 C 0.15997 0.95488 0.95041 0.0
C583 C 0.14577 0.94038 0.91222 0.0
C584 C 0.08246 0.9327 0.91905 0.0
C585 C 0.0369 0.93859 0.97063 0.0
C586 C 0.05115 0.95304 0.00874 0.0
H587 H 0.12095 0.97467 0.19688 0.0
H588 H 0.0498 0.96629 0.15641 0.0
H589 H 0.13189 0.95836 0.13226 0.0
H590 H 0.20698 0.96139 0.94036 0.0
H591 H 0.18203 0.93622 0.87293 0.0
H592 H 0.18022 0.08836 0.37484 0.0
H593 H 0.20769 0.06307 0.44044 0.0
H594 H 0.01121 0.06386 0.53967 0.0
H595 H 0.98383 0.08929 0.47578 0.0
H596 H 0.1085 0.05119 0.62376 0.0
H597 H 0.12099 0.02001 0.36763 0.0
H598 H 0.17911 0.03697 0.3798 0.0
H599 H 0.09134 0.04148 0.37996 0.0
C600 C 0.14373 0.08358 0.41263 0.0
C601 C 0.07915 0.0906 0.41875 0.0
C602 C 0.15932 0.06898 0.44952 0.0
C603 C 0.11061 0.06123 0.49296 0.0
C604 C 0.04924 0.06948 0.50561 0.0
H605 H 0.96591 0.97016 0.6645 0.0
H606 H -0.0057 0.99869 0.62537 0.0
C607 C 0.03367 0.08406 0.469 0.0
C608 C 0.1191 0.0436 0.51812 0.0
H609 H 0.12285 1.00229 0.46328 0.0
C610 C 0.11283 0.04051 0.58873 0.0
C611 C 0.12452 0.02963 0.47228 0.0
C612 C 0.12891 0.03207 0.39568 0.0
C613 C 0.10938 0.02386 0.61457 0.0
C614 C 0.11136 1.00997 0.56855 0.0
C615 C 0.12136 0.013 0.49829 0.0
C616 C 0.09554 0.99243 0.59169 0.0
C617 C 0.10184 0.02126 0.69088 0.0
C618 C 0.14238 0.97923 0.58337 0.0
C619 C 0.12626 0.96273 0.60565 0.0
C620 C 0.06268 0.95914 0.63584 0.0
C621 C 0.01544 0.97237 0.64185 0.0
C622 C 0.03172 0.98878 0.62005 0.0
H623 H 0.12061 0.03239 0.7192 0.0
H624 H 0.0482 0.01962 0.70591 0.0
H625 H 0.12892 1.00971 0.70663 0.0
H626 H 0.19167 0.98176 0.56068 0.0
H627 H 0.16386 0.95288 0.60017 0.0
H628 H 0.46272 0.55313 0.17564 0.0
H629 H 0.48979 0.52466 0.13441 0.0
H630 H 0.68426 0.5418 0.0612 0.0
H631 H 0.65772 0.57061 0.10263 0.0
H632 H 0.61286 0.52149 0.96659 0.0
H633 H 0.61928 0.49075 0.22047 0.0
H634 H 0.54575 0.50332 0.2102 0.0
H635 H 0.62605 0.51348 0.20899 0.0
C636 C 0.51134 0.55098 0.1507 0.0
C637 C 0.55812 0.56425 0.14275 0.0
C638 C 0.52689 0.53459 0.12768 0.0
C639 C 0.58955 0.53102 0.09622 0.0
C640 C 0.6359 0.54426 0.08622 0.0
H641 H 0.67747 0.43584 0.87405 0.0
H642 H 0.70248 0.46135 0.93952 0.0
C643 C 0.6205 0.56073 0.10967 0.0
C644 C 0.60466 0.51353 0.07164 0.0
H645 H 0.60538 0.47216 0.1246 0.0
C646 C 0.61277 0.5107 0.00103 0.0
C647 C 0.60448 0.49951 0.11688 0.0
C648 C 0.59907 0.50189 0.19342 0.0
C649 C 0.61616 0.49414 0.97409 0.0
C650 C 0.61286 0.48005 0.01927 0.0
C651 C 0.60808 0.48294 0.09008 0.0
C652 C 0.60589 0.46241 -0.00659 0.0
C653 C 0.6188 0.49189 0.89736 0.0
C654 C 0.5457 0.45369 0.0067 0.0
C655 C 0.53153 0.43897 0.97011 0.0
C656 C 0.57727 0.43277 0.91929 0.0
C657 C 0.64083 0.44032 0.91235 0.0
C658 C 0.65498 0.45506 0.94915 0.0
H659 H 0.60899 0.50397 0.8702 0.0
H660 H 0.66911 0.48733 0.87992 0.0
H661 H 0.58175 0.48229 0.88218 0.0
H662 H 0.50743 0.45899 0.0414 0.0
H663 H 0.48245 0.43335 0.97746 0.0
H664 H 0.65828 0.45257 0.59861 0.0
H665 H 0.68717 0.48142 0.55962 0.0
H666 H 0.49321 0.4992 0.63203 0.0
H667 H 0.46376 0.47069 0.67076 0.0
H668 H 0.61699 0.5025 0.46575 0.0
H669 H 0.62528 0.53198 0.72219 0.0
H670 H 0.63105 0.50929 0.70869 0.0
H671 H 0.55121 0.51971 0.71082 0.0
C672 C 0.62166 0.4626 0.60594 0.0
C673 C 0.55872 0.45926 0.63807 0.0
C674 C 0.6384 0.47908 0.58392 0.0
C675 C 0.59287 0.4925 0.59447 0.0
C676 C 0.52966 0.48911 0.62492 0.0
H677 H 0.48811 0.59043 0.48386 0.0
H678 H 0.51409 0.56472 0.54665 0.0
C679 C 0.51274 0.47271 0.64646 0.0
C680 C 0.60938 0.51 0.57142 0.0
H681 H 0.61237 0.55109 0.62788 0.0
C682 C 0.61759 0.51313 0.50108 0.0
C683 C 0.61012 0.52379 0.61785 0.0
C684 C 0.60459 0.52105 0.69417 0.0
C685 C 0.62173 0.52979 0.47552 0.0
C686 C 0.61916 0.54367 0.52189 0.0
C687 C 0.61453 0.54047 0.59246 0.0
C688 C 0.61216 0.56143 0.49754 0.0
C689 C 0.62416 0.53239 0.39899 0.0
C690 C 0.66081 0.56888 0.45319 0.0
C691 C 0.64605 0.58364 0.41697 0.0
C692 C 0.58232 0.59111 0.42464 0.0
C693 C 0.53725 0.58485 0.47587 0.0
C694 C 0.55201 0.57011 0.51184 0.0
H695 H 0.61403 0.52046 0.37087 0.0
H696 H 0.5872 0.54212 0.38475 0.0
H697 H 0.67449 0.53695 0.38174 0.0
H698 H 0.70831 0.56262 0.44284 0.0
H699 H 0.68225 0.58819 0.37842 0.0
loop_
_geom_bond_atom_site_label_1
_geom_bond_atom_site_label_2
_geom_bond_distance
_geom_bond_site_symmetry_2
_ccdc_geom_bond_type
C0 O27 1.312 . S
C0 O28 1.208 . S
C1 O22 1.331 . S
C1 O25 1.244 . S
C2 O24 1.264 . S
C2 O26 1.273 . S
Mg3 O5 1.936 1_455 S
Mg3 O12 2.081 . S
Mg3 O14 2.023 . S
Mg3 O18 2.031 . S
Mg3 O27 2.291 . S
Mg4 O5 1.963 . S
Mg4 O15 1.942 . S
Mg4 O16 1.955 . S
Mg4 O23 1.986 . S
O5 Mg3 1.936 1_655 S
O5 Mg4 1.963 . S
O5 Mg6 1.915 . S
Mg6 O5 1.915 . S
Mg6 O7 1.915 1_655 S
Mg6 O11 2.013 . S
Mg6 O17 2.114 1_655 S
Mg6 O21 2.013 . S
Mg6 O27 2.114 1_655 S
O7 Mg6 1.915 1_455 S
O7 Mg8 1.936 . S
O7 Mg9 1.963 1_455 S
Mg8 O7 1.936 . S
Mg8 O17 2.291 . S
Mg8 O22 2.081 . S
Mg8 O24 2.023 1_455 S
Mg8 O28 2.031 . S
Mg9 O7 1.963 1_655 S
Mg9 O13 1.986 . S
Mg9 O25 1.942 1_655 S
Mg9 O26 1.955 . S
C10 O21 1.191 . S
C10 O23 1.307 . S
O11 Mg6 2.013 . S
O11 C30 1.191 . S
O12 Mg3 2.081 . S
O12 C20 1.331 1_455 S
O13 Mg9 1.986 . S
O13 C30 1.307 . S
O14 Mg3 2.023 . S
O14 C29 1.264 . S
O15 Mg4 1.942 . S
O15 C20 1.244 . S
O16 Mg4 1.955 . S
O16 C29 1.273 1_655 S
O17 Mg6 2.114 1_455 S
O17 Mg8 2.291 . S
O17 C19 1.312 . S
O18 Mg3 2.031 . S
O18 C19 1.208 . S
C19 O17 1.312 . S
C19 O18 1.208 . S
C20 O12 1.331 1_655 S
C20 O15 1.244 . S
O21 Mg6 2.013 . S
O21 C10 1.191 . S
O22 C1 1.331 . S
O22 Mg8 2.081 . S
O23 Mg4 1.986 . S
O23 C10 1.307 . S
O24 C2 1.264 . S
O24 Mg8 2.023 1_655 S
O25 C1 1.244 . S
O25 Mg9 1.942 1_455 S
O26 C2 1.273 . S
O26 Mg9 1.955 . S
O27 C0 1.312 . S
O27 Mg3 2.291 . S
O27 Mg6 2.114 1_455 S
O28 C0 1.208 . S
O28 Mg8 2.031 . S
C29 O14 1.264 . S
C29 O16 1.273 1_455 S
C30 O11 1.191 . S
C30 O13 1.307 . S
C31 O58 1.312 . S
C31 O59 1.208 . S
C32 O53 1.331 1_655 S
C32 O56 1.244 . S
C33 O55 1.264 . S
C33 O57 1.273 1_455 S
Mg34 O36 1.936 . S
Mg34 O43 2.081 . S
Mg34 O45 2.023 1_455 S
Mg34 O49 2.031 . S
Mg34 O58 2.291 . S
Mg35 O36 1.963 1_655 S
Mg35 O46 1.942 1_655 S
Mg35 O47 1.955 . S
Mg35 O54 1.986 . S
O36 Mg34 1.936 . S
O36 Mg35 1.963 1_455 S
O36 Mg37 1.915 1_455 S
Mg37 O36 1.915 1_655 S
Mg37 O38 1.915 . S
Mg37 O42 2.013 . S
Mg37 O48 2.114 1_655 S
Mg37 O52 2.013 . S
Mg37 O58 2.114 1_655 S
O38 Mg37 1.915 . S
O38 Mg39 1.936 1_655 S
O38 Mg40 1.963 . S
Mg39 O38 1.936 1_455 S
Mg39 O48 2.291 . S
Mg39 O53 2.081 . S
Mg39 O55 2.023 . S
Mg39 O59 2.031 . S
Mg40 O38 1.963 . S
Mg40 O44 1.986 . S
Mg40 O56 1.942 . S
Mg40 O57 1.955 . S
C41 O52 1.191 . S
C41 O54 1.307 . S
O42 Mg37 2.013 . S
O42 C61 1.191 . S
O43 Mg34 2.081 . S
O43 C51 1.331 . S
O44 Mg40 1.986 . S
O44 C61 1.307 . S
O45 Mg34 2.023 1_655 S
O45 C60 1.264 . S
O46 Mg35 1.942 1_455 S
O46 C51 1.244 . S
O47 Mg35 1.955 . S
O47 C60 1.273 . S
O48 Mg37 2.114 1_455 S
O48 Mg39 2.291 . S
O48 C50 1.312 . S
O49 Mg34 2.031 . S
O49 C50 1.208 . S
C50 O48 1.312 . S
C50 O49 1.208 . S
C51 O43 1.331 . S
C51 O46 1.244 . S
O52 Mg37 2.013 . S
O52 C41 1.191 . S
O53 C32 1.331 1_455 S
O53 Mg39 2.081 . S
O54 Mg35 1.986 . S
O54 C41 1.307 . S
O55 C33 1.264 . S
O55 Mg39 2.023 . S
O56 C32 1.244 . S
O56 Mg40 1.942 . S
O57 C33 1.273 1_655 S
O57 Mg40 1.955 . S
O58 C31 1.312 . S
O58 Mg34 2.291 . S
O58 Mg37 2.114 1_455 S
O59 C31 1.208 . S
O59 Mg39 2.031 . S
C60 O45 1.264 . S
C60 O47 1.273 . S
C61 O42 1.191 . S
C61 O44 1.307 . S
C62 O89 1.312 . S
C62 O90 1.208 . S
C63 O84 1.331 . S
C63 O87 1.244 . S
C64 O86 1.264 . S
C64 O88 1.273 . S
Mg65 O67 1.936 . S
Mg65 O74 2.081 . S
Mg65 O76 2.023 . S
Mg65 O80 2.031 . S
Mg65 O89 2.291 . S
Mg66 O67 1.963 . S
Mg66 O77 1.942 . S
Mg66 O78 1.955 . S
Mg66 O85 1.986 . S
O67 Mg65 1.936 . S
O67 Mg66 1.963 . S
O67 Mg68 1.915 . S
Mg68 O67 1.915 . S
Mg68 O69 1.915 . S
Mg68 O73 2.013 . S
Mg68 O79 2.114 . S
Mg68 O83 2.013 . S
Mg68 O89 2.114 . S
O69 Mg68 1.915 . S
O69 Mg70 1.936 . S
O69 Mg71 1.963 . S
Mg70 O69 1.936 . S
Mg70 O79 2.291 . S
Mg70 O84 2.081 . S
Mg70 O86 2.023 . S
Mg70 O90 2.031 . S
Mg71 O69 1.963 . S
Mg71 O75 1.986 . S
Mg71 O87 1.942 . S
Mg71 O88 1.955 . S
C72 O83 1.191 . S
C72 O85 1.307 . S
O73 Mg68 2.013 . S
O73 C92 1.191 . S
O74 Mg65 2.081 . S
O74 C82 1.331 . S
O75 Mg71 1.986 . S
O75 C92 1.307 . S
O76 Mg65 2.023 . S
O76 C91 1.264 . S
O77 Mg66 1.942 . S
O77 C82 1.244 . S
O78 Mg66 1.955 . S
O78 C91 1.273 . S
O79 Mg68 2.114 . S
O79 Mg70 2.291 . S
O79 C81 1.312 . S
O80 Mg65 2.031 . S
O80 C81 1.208 . S
C81 O79 1.312 . S
C81 O80 1.208 . S
C82 O74 1.331 . S
C82 O77 1.244 . S
O83 Mg68 2.013 . S
O83 C72 1.191 . S
O84 C63 1.331 . S
O84 Mg70 2.081 . S
O85 Mg66 1.986 . S
O85 C72 1.307 . S
O86 C64 1.264 . S
O86 Mg70 2.023 . S
O87 C63 1.244 . S
O87 Mg71 1.942 . S
O88 C64 1.273 . S
O88 Mg71 1.955 . S
O89 C62 1.312 . S
O89 Mg65 2.291 . S
O89 Mg68 2.114 . S
O90 C62 1.208 . S
O90 Mg70 2.031 . S
C91 O76 1.264 . S
C91 O78 1.273 . S
C92 O73 1.191 . S
C92 O75 1.307 . S
C93 O120 1.312 . S
C93 O121 1.208 . S
C94 O115 1.331 . S
C94 O118 1.244 . S
C95 O117 1.264 . S
C95 O119 1.273 . S
Mg96 O98 1.936 . S
Mg96 O105 2.081 . S
Mg96 O107 2.023 . S
Mg96 O111 2.031 . S
Mg96 O120 2.291 . S
Mg97 O98 1.963 . S
Mg97 O108 1.942 . S
Mg97 O109 1.955 . S
Mg97 O116 1.986 . S
O98 Mg96 1.936 . S
O98 Mg97 1.963 . S
O98 Mg99 1.915 . S
Mg99 O98 1.915 . S
Mg99 O100 1.915 . S
Mg99 O104 2.013 . S
Mg99 O110 2.114 . S
Mg99 O114 2.013 . S
Mg99 O120 2.114 . S
O100 Mg99 1.915 . S
O100 Mg101 1.936 . S
O100 Mg102 1.963 . S
Mg101 O100 1.936 . S
Mg101 O110 2.291 . S
Mg101 O115 2.081 . S
Mg101 O117 2.023 . S
Mg101 O121 2.031 . S
Mg102 O100 1.963 . S
Mg102 O106 1.986 . S
Mg102 O118 1.942 . S
Mg102 O119 1.955 . S
C103 O114 1.191 . S
C103 O116 1.307 . S
O104 Mg99 2.013 . S
O104 C123 1.191 . S
O105 Mg96 2.081 . S
O105 C113 1.331 . S
O106 Mg102 1.986 . S
O106 C123 1.307 . S
O107 Mg96 2.023 . S
O107 C122 1.264 . S
O108 Mg97 1.942 . S
O108 C113 1.244 . S
O109 Mg97 1.955 . S
O109 C122 1.273 . S
O110 Mg99 2.114 . S
O110 Mg101 2.291 . S
O110 C112 1.312 . S
O111 Mg96 2.031 . S
O111 C112 1.208 . S
C112 O110 1.312 . S
C112 O111 1.208 . S
C113 O105 1.331 . S
C113 O108 1.244 . S
O114 Mg99 2.013 . S
O114 C103 1.191 . S
O115 C94 1.331 . S
O115 Mg101 2.081 . S
O116 Mg97 1.986 . S
O116 C103 1.307 . S
O117 C95 1.264 . S
O117 Mg101 2.023 . S
O118 C94 1.244 . S
O118 Mg102 1.942 . S
O119 C95 1.273 . S
O119 Mg102 1.955 . S
O120 C93 1.312 . S
O120 Mg96 2.291 . S
O120 Mg99 2.114 . S
O121 C93 1.208 . S
O121 Mg101 2.031 . S
C122 O107 1.264 . S
C122 O109 1.273 . S
C123 O104 1.191 . S
C123 O106 1.307 . S
H124 C132 0.929 . S
H125 C134 0.930 . S
H126 C136 0.930 . S
H127 C139 0.929 . S
H128 C142 0.930 . S
H129 C144 0.960 . S
H130 C144 0.960 . S
H131 C144 0.960 . S
C132 H124 0.929 . S
C132 C133 1.377 1_655 S
C132 C134 1.384 1_554 S
C133 C132 1.377 1_455 S
C133 C139 1.390 . S
C134 H125 0.930 . S
C134 C132 1.384 1_556 S
C134 C135 1.372 1_655 S
C135 C134 1.372 1_455 S
C135 C136 1.400 . S
C135 C140 1.490 1_455 S
C136 H126 0.930 . S
C136 C135 1.400 . S
C136 C139 1.386 1_556 S
H137 C153 0.932 . S
H138 C154 0.930 1_455 S
C139 H127 0.929 . S
C139 C133 1.390 . S
C139 C136 1.386 1_554 S
C140 C135 1.490 1_655 S
C140 C142 1.396 . S
C140 C143 1.401 1_655 S
H141 C147 0.930 . S
C142 H128 0.930 . S
C142 C140 1.396 . S
C142 C145 1.403 . S
C143 C140 1.401 1_455 S
C143 C144 1.524 . S
C143 C147 1.400 . S
C144 H129 0.960 . S
C144 H130 0.960 . S
C144 H131 0.960 . S
C144 C143 1.524 . S
C145 C142 1.403 . S
C145 C146 1.392 . S
C145 C149 1.495 . S
C146 C145 1.392 . S
C146 C147 1.385 1_655 S
C146 C148 1.478 . S
C147 H141 0.930 . S
C147 C143 1.400 . S
C147 C146 1.385 1_455 S
C148 C146 1.478 . S
C148 C150 1.381 . S
C148 C154 1.383 . S
C149 C145 1.495 . S
C149 H155 0.959 . S
C149 H156 0.961 . S
C149 H157 0.960 . S
C150 C148 1.381 . S
C150 C151 1.394 . S
C150 H158 0.930 . S
C151 C150 1.394 . S
C151 C152 1.383 . S
C151 H159 0.929 . S
C152 C151 1.383 . S
C152 C153 1.374 1_655 S
C153 H137 0.932 . S
C153 C152 1.374 1_455 S
C153 C154 1.380 1_455 S
C154 H138 0.930 1_655 S
C154 C148 1.383 . S
C154 C153 1.380 1_655 S
H155 C149 0.959 . S
H156 C149 0.961 . S
H157 C149 0.960 . S
H158 C150 0.930 . S
H159 C151 0.929 . S
H160 C168 0.929 . S
H161 C170 0.930 . S
H162 C172 0.930 . S
H163 C175 0.929 . S
H164 C178 0.930 . S
H165 C180 0.960 . S
H166 C180 0.960 . S
H167 C180 0.960 . S
C168 H160 0.929 . S
C168 C169 1.377 . S
C168 C170 1.384 . S
C169 C168 1.377 . S
C169 C175 1.390 1_455 S
C170 H161 0.930 . S
C170 C168 1.384 . S
C170 C171 1.372 . S
C171 C170 1.372 . S
C171 C172 1.400 1_455 S
C171 C176 1.490 . S
C172 H162 0.930 . S
C172 C171 1.400 1_655 S
C172 C175 1.386 . S
H173 C189 0.930 1_556 S
H174 C190 0.931 . S
C175 H163 0.929 . S
C175 C169 1.390 1_655 S
C175 C172 1.386 . S
C176 C171 1.490 . S
C176 C178 1.395 1_455 S
C176 C179 1.403 . S
H177 C183 0.930 . S
C178 H164 0.930 . S
C178 C176 1.395 1_655 S
C178 C181 1.403 . S
C179 C176 1.403 . S
C179 C180 1.524 . S
C179 C183 1.400 . S
C180 H165 0.960 . S
C180 H166 0.960 . S
C180 H167 0.960 . S
C180 C179 1.524 . S
C181 C178 1.403 . S
C181 C182 1.392 . S
C181 C185 1.495 . S
C182 C181 1.392 . S
C182 C183 1.385 1_655 S
C182 C184 1.478 . S
C183 H177 0.930 . S
C183 C179 1.400 . S
C183 C182 1.385 1_455 S
C184 C182 1.478 . S
C184 C186 1.381 1_655 S
C184 C190 1.383 . S
C185 C181 1.495 . S
C185 H191 0.959 . S
C185 H192 0.961 . S
C185 H193 0.960 . S
C186 C184 1.381 1_455 S
C186 C187 1.394 1_554 S
C186 H194 0.930 . S
C187 C186 1.394 1_556 S
C187 C188 1.383 1_455 S
C187 H195 0.929 . S
C188 C187 1.383 1_655 S
C188 C189 1.377 1_556 S
C189 H173 0.930 1_554 S
C189 C188 1.377 1_554 S
C189 C190 1.379 . S
C190 H174 0.931 . S
C190 C184 1.383 . S
C190 C189 1.379 . S
H191 C185 0.959 . S
H192 C185 0.961 . S
H193 C185 0.960 . S
H194 C186 0.930 . S
H195 C187 0.929 . S
H196 C204 0.929 . S
H197 C206 0.930 . S
H198 C208 0.930 . S
H199 C211 0.929 . S
H200 C214 0.930 . S
H201 C216 0.960 . S
H202 C216 0.960 . S
H203 C216 0.960 . S
C204 H196 0.929 . S
C204 C205 1.377 . S
C204 C206 1.384 1_554 S
C205 C204 1.377 . S
C205 C211 1.390 . S
C206 H197 0.930 . S
C206 C204 1.384 1_556 S
C206 C207 1.372 . S
C207 C206 1.372 . S
C207 C208 1.400 . S
C207 C212 1.490 . S
C208 H198 0.930 . S
C208 C207 1.400 . S
C208 C211 1.386 1_556 S
H209 C225 0.930 . S
H210 C226 0.931 . S
C211 H199 0.929 . S
C211 C205 1.390 . S
C211 C208 1.386 1_554 S
C212 C207 1.490 . S
C212 C214 1.395 . S
C212 C215 1.403 . S
H213 C219 0.930 . S
C214 H200 0.930 . S
C214 C212 1.395 . S
C214 C217 1.403 . S
C215 C212 1.403 . S
C215 C216 1.524 . S
C215 C219 1.400 . S
C216 H201 0.960 . S
C216 H202 0.960 . S
C216 H203 0.960 . S
C216 C215 1.524 . S
C217 C214 1.403 . S
C217 C218 1.392 . S
C217 C221 1.495 . S
C218 C217 1.392 . S
C218 C219 1.385 . S
C218 C220 1.478 . S
C219 H213 0.930 . S
C219 C215 1.400 . S
C219 C218 1.385 . S
C220 C218 1.478 . S
C220 C222 1.381 . S
C220 C226 1.383 . S
C221 C217 1.495 . S
C221 H227 0.959 . S
C221 H228 0.961 . S
C221 H229 0.960 . S
C222 C220 1.381 . S
C222 C223 1.394 . S
C222 H230 0.930 . S
C223 C222 1.394 . S
C223 C224 1.383 . S
C223 H231 0.929 . S
C224 C223 1.383 . S
C224 C225 1.377 . S
C225 H209 0.930 . S
C225 C224 1.377 . S
C225 C226 1.379 . S
C226 H210 0.931 . S
C226 C220 1.383 . S
C226 C225 1.379 . S
H227 C221 0.959 . S
H228 C221 0.961 . S
H229 C221 0.960 . S
H230 C222 0.930 . S
H231 C223 0.929 . S
H232 C240 0.929 . S
H233 C242 0.930 . S
H234 C244 0.930 . S
H235 C247 0.929 1_556 S
H236 C250 0.930 . S
H237 C252 0.960 . S
H238 C252 0.960 . S
H239 C252 0.960 . S
C240 H232 0.929 . S
C240 C241 1.377 . S
C240 C242 1.384 1_556 S
C241 C240 1.377 . S
C241 C247 1.390 1_556 S
C242 H233 0.930 . S
C242 C240 1.384 1_554 S
C242 C243 1.372 . S
C243 C242 1.372 . S
C243 C244 1.400 . S
C243 C248 1.490 . S
C244 H234 0.930 . S
C244 C243 1.400 . S
C244 C247 1.386 . S
H245 C261 0.930 . S
H246 C262 0.931 . S
C247 H235 0.929 1_554 S
C247 C241 1.390 1_554 S
C247 C244 1.386 . S
C248 C243 1.490 . S
C248 C250 1.395 . S
C248 C251 1.403 . S
H249 C255 0.930 . S
C250 H236 0.930 . S
C250 C248 1.395 . S
C250 C253 1.403 . S
C251 C248 1.403 . S
C251 C252 1.524 . S
C251 C255 1.400 . S
C252 H237 0.960 . S
C252 H238 0.960 . S
C252 H239 0.960 . S
C252 C251 1.524 . S
C253 C250 1.403 . S
C253 C254 1.392 . S
C253 C257 1.495 . S
C254 C253 1.392 . S
C254 C255 1.385 . S
C254 C256 1.478 . S
C255 H249 0.930 . S
C255 C251 1.400 . S
C255 C254 1.385 . S
C256 C254 1.478 . S
C256 C258 1.381 . S
C256 C262 1.383 . S
C257 C253 1.495 . S
C257 H263 0.959 . S
C257 H264 0.961 . S
C257 H265 0.960 . S
C258 C256 1.381 . S
C258 C259 1.394 . S
C258 H266 0.930 . S
C259 C258 1.394 . S
C259 C260 1.383 . S
C259 H267 0.929 . S
C260 C259 1.383 . S
C260 C261 1.377 . S
C261 H245 0.930 . S
C261 C260 1.377 . S
C261 C262 1.379 . S
C262 H246 0.931 . S
C262 C256 1.383 . S
C262 C261 1.379 . S
H263 C257 0.959 . S
H264 C257 0.961 . S
H265 C257 0.960 . S
H266 C258 0.930 . S
H267 C259 0.929 . S
H268 C276 0.929 . S
H269 C278 0.930 . S
H270 C280 0.930 . S
H271 C283 0.929 . S
H272 C286 0.930 . S
H273 C288 0.960 . S
H274 C288 0.960 . S
H275 C288 0.960 . S
C276 H268 0.929 . S
C276 C277 1.377 . S
C276 C278 1.384 . S
C277 C276 1.377 . S
C277 C283 1.390 . S
C278 H269 0.930 . S
C278 C276 1.384 . S
C278 C279 1.372 . S
C279 C278 1.372 . S
C279 C280 1.400 . S
C279 C284 1.490 . S
C280 H270 0.930 . S
C280 C279 1.400 . S
C280 C283 1.386 . S
H281 C297 0.930 . S
H282 C298 0.931 . S
C283 H271 0.929 . S
C283 C277 1.390 . S
C283 C280 1.386 . S
C284 C279 1.490 . S
C284 C286 1.395 . S
C284 C287 1.403 . S
H285 C291 0.930 . S
C286 H272 0.930 . S
C286 C284 1.395 . S
C286 C289 1.403 . S
C287 C284 1.403 . S
C287 C288 1.524 . S
C287 C291 1.400 . S
C288 H273 0.960 . S
C288 H274 0.960 . S
C288 H275 0.960 . S
C288 C287 1.524 . S
C289 C286 1.403 . S
C289 C290 1.392 . S
C289 C293 1.495 . S
C290 C289 1.392 . S
C290 C291 1.385 . S
C290 C292 1.478 . S
C291 H285 0.930 . S
C291 C287 1.400 . S
C291 C290 1.385 . S
C292 C290 1.478 . S
C292 C294 1.381 . S
C292 C298 1.383 . S
C293 C289 1.495 . S
C293 H299 0.959 . S
C293 H300 0.961 . S
C293 H301 0.960 . S
C294 C292 1.381 . S
C294 C295 1.394 . S
C294 H302 0.930 . S
C295 C294 1.394 . S
C295 C296 1.383 . S
C295 H303 0.929 . S
C296 C295 1.383 . S
C296 C297 1.377 . S
C297 H281 0.930 . S
C297 C296 1.377 . S
C297 C298 1.379 . S
C298 H282 0.931 . S
C298 C292 1.383 . S
C298 C297 1.379 . S
H299 C293 0.959 . S
H300 C293 0.961 . S
H301 C293 0.960 . S
H302 C294 0.930 . S
H303 C295 0.929 . S
H304 C312 0.929 . S
H305 C314 0.930 . S
H306 C316 0.930 . S
H307 C319 0.929 . S
H308 C322 0.930 . S
H309 C324 0.960 . S
H310 C324 0.960 . S
H311 C324 0.960 . S
C312 H304 0.929 . S
C312 C313 1.377 . S
C312 C314 1.384 . S
C313 C312 1.377 . S
C313 C319 1.390 . S
C314 H305 0.930 . S
C314 C312 1.384 . S
C314 C315 1.372 . S
C315 C314 1.372 . S
C315 C316 1.400 . S
C315 C320 1.490 . S
C316 H306 0.930 . S
C316 C315 1.400 . S
C316 C319 1.386 . S
H317 C333 0.930 . S
H318 C334 0.931 . S
C319 H307 0.929 . S
C319 C313 1.390 . S
C319 C316 1.386 . S
C320 C315 1.490 . S
C320 C322 1.395 . S
C320 C323 1.403 . S
H321 C327 0.930 . S
C322 H308 0.930 . S
C322 C320 1.395 . S
C322 C325 1.403 . S
C323 C320 1.403 . S
C323 C324 1.524 . S
C323 C327 1.400 . S
C324 H309 0.960 . S
C324 H310 0.960 . S
C324 H311 0.960 . S
C324 C323 1.524 . S
C325 C322 1.403 . S
C325 C326 1.392 . S
C325 C329 1.495 . S
C326 C325 1.392 . S
C326 C327 1.385 . S
C326 C328 1.478 . S
C327 H321 0.930 . S
C327 C323 1.400 . S
C327 C326 1.385 . S
C328 C326 1.478 . S
C328 C330 1.381 . S
C328 C334 1.383 . S
C329 C325 1.495 . S
C329 H335 0.959 . S
C329 H336 0.961 . S
C329 H337 0.960 . S
C330 C328 1.381 . S
C330 C331 1.394 . S
C330 H338 0.930 . S
C331 C330 1.394 . S
C331 C332 1.383 . S
C331 H339 0.929 . S
C332 C331 1.383 . S
C332 C333 1.377 . S
C333 H317 0.930 . S
C333 C332 1.377 . S
C333 C334 1.379 . S
C334 H318 0.931 . S
C334 C328 1.383 . S
C334 C333 1.379 . S
H335 C329 0.959 . S
H336 C329 0.961 . S
H337 C329 0.960 . S
H338 C330 0.930 . S
H339 C331 0.929 . S
H340 C348 0.929 . S
H341 C350 0.930 . S
H342 C352 0.930 . S
H343 C355 0.929 . S
H344 C358 0.930 . S
H345 C360 0.960 . S
H346 C360 0.960 . S
H347 C360 0.960 . S
C348 H340 0.929 . S
C348 C349 1.377 . S
C348 C350 1.384 . S
C349 C348 1.377 . S
C349 C355 1.390 . S
C350 H341 0.930 . S
C350 C348 1.384 . S
C350 C351 1.372 . S
C351 C350 1.372 . S
C351 C352 1.400 . S
C351 C356 1.490 . S
C352 H342 0.930 . S
C352 C351 1.400 . S
C352 C355 1.386 . S
H353 C369 0.930 . S
H354 C370 0.931 . S
C355 H343 0.929 . S
C355 C349 1.390 . S
C355 C352 1.386 . S
C356 C351 1.490 . S
C356 C358 1.395 . S
C356 C359 1.403 . S
H357 C363 0.930 . S
C358 H344 0.930 . S
C358 C356 1.395 . S
C358 C361 1.403 1_655 S
C359 C356 1.403 . S
C359 C360 1.524 . S
C359 C363 1.400 1_655 S
C360 H345 0.960 . S
C360 H346 0.960 . S
C360 H347 0.960 . S
C360 C359 1.524 . S
C361 C358 1.403 1_455 S
C361 C362 1.392 . S
C361 C365 1.495 . S
C362 C361 1.392 . S
C362 C363 1.385 . S
C362 C364 1.478 . S
C363 H357 0.930 . S
C363 C359 1.400 1_455 S
C363 C362 1.385 . S
C364 C362 1.478 . S
C364 C366 1.381 . S
C364 C370 1.383 . S
C365 C361 1.495 . S
C365 H371 0.959 . S
C365 H372 0.961 . S
C365 H373 0.960 . S
C366 C364 1.381 . S
C366 C367 1.394 . S
C366 H374 0.930 . S
C367 C366 1.394 . S
C367 C368 1.383 . S
C367 H375 0.929 . S
C368 C367 1.383 . S
C368 C369 1.377 . S
C369 H353 0.930 . S
C369 C368 1.377 . S
C369 C370 1.379 . S
C370 H354 0.931 . S
C370 C364 1.383 . S
C370 C369 1.379 . S
H371 C365 0.959 . S
H372 C365 0.961 . S
H373 C365 0.960 . S
H374 C366 0.930 . S
H375 C367 0.929 . S
H376 C384 0.929 . S
H377 C386 0.930 . S
H378 C388 0.930 . S
H379 C391 0.929 . S
H380 C394 0.930 . S
H381 C396 0.960 . S
H382 C396 0.960 . S
H383 C396 0.960 . S
C384 H376 0.929 . S
C384 C385 1.377 . S
C384 C386 1.384 . S
C385 C384 1.377 . S
C385 C391 1.390 . S
C386 H377 0.930 . S
C386 C384 1.384 . S
C386 C387 1.372 . S
C387 C386 1.372 . S
C387 C388 1.400 . S
C387 C392 1.490 . S
C388 H378 0.930 . S
C388 C387 1.400 . S
C388 C391 1.386 . S
H389 C405 0.930 . S
H390 C406 0.931 . S
C391 H379 0.929 . S
C391 C385 1.390 . S
C391 C388 1.386 . S
C392 C387 1.490 . S
C392 C394 1.395 . S
C392 C395 1.403 . S
H393 C399 0.930 . S
C394 H380 0.930 . S
C394 C392 1.395 . S
C394 C397 1.403 1_655 S
C395 C392 1.403 . S
C395 C396 1.524 . S
C395 C399 1.400 1_655 S
C396 H381 0.960 . S
C396 H382 0.960 . S
C396 H383 0.960 . S
C396 C395 1.524 . S
C397 C394 1.403 1_455 S
C397 C398 1.392 . S
C397 C401 1.495 . S
C398 C397 1.392 . S
C398 C399 1.385 . S
C398 C400 1.478 . S
C399 H393 0.930 . S
C399 C395 1.400 1_455 S
C399 C398 1.385 . S
C400 C398 1.478 . S
C400 C402 1.381 . S
C400 C406 1.383 . S
C401 C397 1.495 . S
C401 H407 0.959 . S
C401 H408 0.961 . S
C401 H409 0.960 . S
C402 C400 1.381 . S
C402 C403 1.394 . S
C402 H410 0.930 . S
C403 C402 1.394 . S
C403 C404 1.383 . S
C403 H411 0.929 . S
C404 C403 1.383 . S
C404 C405 1.377 . S
C405 H389 0.930 . S
C405 C404 1.377 . S
C405 C406 1.379 . S
C406 H390 0.931 . S
C406 C400 1.383 . S
C406 C405 1.379 . S
H407 C401 0.959 . S
H408 C401 0.961 . S
H409 C401 0.960 . S
H410 C402 0.930 . S
H411 C403 0.929 . S
H412 C420 0.929 . S
H413 C422 0.930 . S
H414 C424 0.930 . S
H415 C427 0.929 . S
H416 C430 0.930 . S
H417 C432 0.960 . S
H418 C432 0.960 . S
H419 C432 0.960 . S
C420 H412 0.929 . S
C420 C421 1.377 . S
C420 C422 1.384 . S
C421 C420 1.377 . S
C421 C427 1.390 . S
C422 H413 0.930 . S
C422 C420 1.384 . S
C422 C423 1.372 . S
C423 C422 1.372 . S
C423 C424 1.400 . S
C423 C428 1.490 . S
C424 H414 0.930 . S
C424 C423 1.400 . S
C424 C427 1.386 . S
H425 C441 0.930 . S
H426 C442 0.931 . S
C427 H415 0.929 . S
C427 C421 1.390 . S
C427 C424 1.386 . S
C428 C423 1.490 . S
C428 C430 1.395 . S
C428 C431 1.403 . S
H429 C435 0.930 . S
C430 H416 0.930 . S
C430 C428 1.395 . S
C430 C433 1.403 . S
C431 C428 1.403 . S
C431 C432 1.524 . S
C431 C435 1.400 . S
C432 H417 0.960 . S
C432 H418 0.960 . S
C432 H419 0.960 . S
C432 C431 1.524 . S
C433 C430 1.403 . S
C433 C434 1.392 . S
C433 C437 1.495 . S
C434 C433 1.392 . S
C434 C435 1.385 . S
C434 C436 1.478 . S
C435 H429 0.930 . S
C435 C431 1.400 . S
C435 C434 1.385 . S
C436 C434 1.478 . S
C436 C438 1.381 . S
C436 C442 1.383 . S
C437 C433 1.495 . S
C437 H443 0.959 . S
C437 H444 0.961 . S
C437 H445 0.960 . S
C438 C436 1.381 . S
C438 C439 1.394 . S
C438 H446 0.930 . S
C439 C438 1.394 . S
C439 C440 1.383 . S
C439 H447 0.929 . S
C440 C439 1.383 . S
C440 C441 1.377 . S
C441 H425 0.930 . S
C441 C440 1.377 . S
C441 C442 1.379 . S
C442 H426 0.931 . S
C442 C436 1.383 . S
C442 C441 1.379 . S
H443 C437 0.959 . S
H444 C437 0.961 . S
H445 C437 0.960 . S
H446 C438 0.930 . S
H447 C439 0.929 . S
H448 C456 0.929 . S
H449 C458 0.930 . S
H450 C460 0.930 1_554 S
H451 C463 0.929 . S
H452 C466 0.930 . S
H453 C468 0.960 . S
H454 C468 0.960 . S
H455 C468 0.960 . S
C456 H448 0.929 . S
C456 C457 1.377 . S
C456 C458 1.384 . S
C457 C456 1.377 . S
C457 C463 1.390 . S
C458 H449 0.930 . S
C458 C456 1.384 . S
C458 C459 1.372 . S
C459 C458 1.372 . S
C459 C460 1.400 . S
C459 C464 1.490 . S
C460 H450 0.930 1_556 S
C460 C459 1.400 . S
C460 C463 1.386 . S
H461 C477 0.930 . S
H462 C478 0.931 . S
C463 H451 0.929 . S
C463 C457 1.390 . S
C463 C460 1.386 . S
C464 C459 1.490 . S
C464 C466 1.395 . S
C464 C467 1.403 . S
H465 C471 0.930 . S
C466 H452 0.930 . S
C466 C464 1.395 . S
C466 C469 1.403 1_556 S
C467 C464 1.403 . S
C467 C468 1.524 . S
C467 C471 1.400 1_556 S
C468 H453 0.960 . S
C468 H454 0.960 . S
C468 H455 0.960 . S
C468 C467 1.524 . S
C469 C466 1.403 1_554 S
C469 C470 1.392 . S
C469 C473 1.495 . S
C470 C469 1.392 . S
C470 C471 1.385 . S
C470 C472 1.478 . S
C471 H465 0.930 . S
C471 C467 1.400 1_554 S
C471 C470 1.385 . S
C472 C470 1.478 . S
C472 C474 1.381 . S
C472 C478 1.383 . S
C473 C469 1.495 . S
C473 H479 0.959 . S
C473 H480 0.961 . S
C473 H481 0.960 . S
C474 C472 1.381 . S
C474 C475 1.394 . S
C474 H482 0.930 1_554 S
C475 C474 1.394 . S
C475 C476 1.383 . S
C475 H483 0.929 . S
C476 C475 1.383 . S
C476 C477 1.377 . S
C477 H461 0.930 . S
C477 C476 1.377 . S
C477 C478 1.379 . S
C478 H462 0.931 . S
C478 C472 1.383 . S
C478 C477 1.379 . S
H479 C473 0.959 . S
H480 C473 0.961 . S
H481 C473 0.960 . S
H482 C474 0.930 1_556 S
H483 C475 0.929 . S
H484 C492 0.929 . S
H485 C494 0.930 . S
H486 C496 0.930 . S
H487 C499 0.929 . S
H488 C502 0.930 . S
H489 C504 0.960 . S
H490 C504 0.960 . S
H491 C504 0.960 . S
C492 H484 0.929 . S
C492 C493 1.377 . S
C492 C494 1.384 . S
C493 C492 1.377 . S
C493 C499 1.390 . S
C494 H485 0.930 . S
C494 C492 1.384 . S
C494 C495 1.372 . S
C495 C494 1.372 . S
C495 C496 1.400 . S
C495 C500 1.490 . S
C496 H486 0.930 . S
C496 C495 1.400 . S
C496 C499 1.386 . S
H497 C513 0.930 . S
H498 C514 0.931 . S
C499 H487 0.929 . S
C499 C493 1.390 . S
C499 C496 1.386 . S
C500 C495 1.490 . S
C500 C502 1.395 . S
C500 C503 1.403 . S
H501 C507 0.930 . S
C502 H488 0.930 . S
C502 C500 1.395 . S
C502 C505 1.403 . S
C503 C500 1.403 . S
C503 C504 1.524 . S
C503 C507 1.400 . S
C504 H489 0.960 . S
C504 H490 0.960 . S
C504 H491 0.960 . S
C504 C503 1.524 . S
C505 C502 1.403 . S
C505 C506 1.392 . S
C505 C509 1.495 . S
C506 C505 1.392 . S
C506 C507 1.385 . S
C506 C508 1.478 . S
C507 H501 0.930 . S
C507 C503 1.400 . S
C507 C506 1.385 . S
C508 C506 1.478 . S
C508 C510 1.381 . S
C508 C514 1.383 . S
C509 C505 1.495 . S
C509 H515 0.959 . S
C509 H516 0.961 . S
C509 H517 0.960 . S
C510 C508 1.381 . S
C510 C511 1.394 . S
C510 H518 0.930 . S
C511 C510 1.394 . S
C511 C512 1.383 . S
C511 H519 0.929 . S
C512 C511 1.383 . S
C512 C513 1.377 . S
C513 H497 0.930 . S
C513 C512 1.377 . S
C513 C514 1.379 . S
C514 H498 0.931 . S
C514 C508 1.383 . S
C514 C513 1.379 . S
H515 C509 0.959 . S
H516 C509 0.961 . S
H517 C509 0.960 . S
H518 C510 0.930 . S
H519 C511 0.929 . S
H520 C528 0.929 . S
H521 C530 0.930 1_556 S
H522 C532 0.930 . S
H523 C535 0.929 . S
H524 C538 0.930 . S
H525 C540 0.960 . S
H526 C540 0.960 . S
H527 C540 0.960 . S
C528 H520 0.929 . S
C528 C529 1.377 . S
C528 C530 1.384 . S
C529 C528 1.377 . S
C529 C535 1.390 . S
C530 H521 0.930 1_554 S
C530 C528 1.384 . S
C530 C531 1.372 . S
C531 C530 1.372 . S
C531 C532 1.400 . S
C531 C536 1.490 . S
C532 H522 0.930 . S
C532 C531 1.400 . S
C532 C535 1.386 . S
H533 C549 0.930 . S
H534 C550 0.931 1_554 S
C535 H523 0.929 . S
C535 C529 1.390 . S
C535 C532 1.386 . S
C536 C531 1.490 . S
C536 C538 1.395 1_554 S
C536 C539 1.403 . S
H537 C543 0.930 . S
C538 H524 0.930 . S
C538 C536 1.395 1_556 S
C538 C541 1.403 . S
C539 C536 1.403 . S
C539 C540 1.524 . S
C539 C543 1.400 . S
C540 H525 0.960 . S
C540 H526 0.960 . S
C540 H527 0.960 . S
C540 C539 1.524 . S
C541 C538 1.403 . S
C541 C542 1.392 . S
C541 C545 1.495 . S
C542 C541 1.392 . S
C542 C543 1.385 1_556 S
C542 C544 1.478 . S
C543 H537 0.930 . S
C543 C539 1.400 . S
C543 C542 1.385 1_554 S
C544 C542 1.478 . S
C544 C546 1.381 . S
C544 C550 1.383 . S
C545 C541 1.495 . S
C545 H551 0.959 . S
C545 H552 0.961 . S
C545 H553 0.960 . S
C546 C544 1.381 . S
C546 C547 1.394 . S
C546 H554 0.930 . S
C547 C546 1.394 . S
C547 C548 1.383 . S
C547 H555 0.929 . S
C548 C547 1.383 . S
C548 C549 1.377 . S
C549 H533 0.930 . S
C549 C548 1.377 . S
C549 C550 1.379 . S
C550 H534 0.931 1_556 S
C550 C544 1.383 . S
C550 C549 1.379 . S
H551 C545 0.959 . S
H552 C545 0.961 . S
H553 C545 0.960 . S
H554 C546 0.930 . S
H555 C547 0.929 . S
H556 C564 0.919 1_455 S
H557 C566 0.930 . S
H558 C568 0.930 . S
H559 C571 0.929 . S
H560 C574 0.926 1_545 S
H561 C576 0.960 . S
H562 C576 0.960 . S
H563 C576 0.960 . S
C564 H556 0.919 1_655 S
C564 C565 1.391 . S
C564 C566 1.381 1_655 S
C565 C564 1.391 . S
C565 C571 1.390 . S
C566 H557 0.930 . S
C566 C564 1.381 1_455 S
C566 C567 1.372 1_455 S
C567 C566 1.372 1_655 S
C567 C568 1.400 . S
C567 C572 1.490 . S
C568 H558 0.930 . S
C568 C567 1.400 . S
C568 C571 1.386 . S
H569 C585 0.930 . S
H570 C586 0.931 . S
C571 H559 0.929 . S
C571 C565 1.390 . S
C571 C568 1.386 . S
C572 C567 1.490 . S
C572 C574 1.380 1_645 S
C572 C575 1.403 1_554 S
H573 C579 0.930 . S
C574 H560 0.926 1_565 S
C574 C572 1.380 1_465 S
C574 C577 1.423 . S
C575 C572 1.403 1_556 S
C575 C576 1.524 . S
C575 C579 1.400 1_545 S
C576 H561 0.960 . S
C576 H562 0.960 . S
C576 H563 0.960 . S
C576 C575 1.524 . S
C577 C574 1.423 . S
C577 C578 1.392 1_554 S
C577 C581 1.495 . S
C578 C577 1.392 1_556 S
C578 C579 1.385 1_455 S
C578 C580 1.478 . S
C579 H573 0.930 . S
C579 C575 1.400 1_565 S
C579 C578 1.385 1_655 S
C580 C578 1.478 . S
C580 C582 1.381 . S
C580 C586 1.383 1_455 S
C581 C577 1.495 . S
C581 H587 0.959 . S
C581 H588 0.961 . S
C581 H589 0.960 . S
C582 C580 1.381 . S
C582 C583 1.394 . S
C582 H590 0.930 . S
C583 C582 1.394 . S
C583 C584 1.383 . S
C583 H591 0.929 . S
C584 C583 1.383 . S
C584 C585 1.377 1_455 S
C585 H569 0.930 . S
C585 C584 1.377 1_655 S
C585 C586 1.379 . S
C586 H570 0.931 . S
C586 C580 1.383 1_655 S
C586 C585 1.379 . S
H587 C581 0.959 . S
H588 C581 0.961 . S
H589 C581 0.960 . S
H590 C582 0.930 . S
H591 C583 0.929 . S
H592 C600 0.929 . S
H593 C602 0.930 . S
H594 C604 0.930 . S
H595 C607 0.929 . S
H596 C610 0.930 . S
H597 C612 0.960 . S
H598 C612 0.960 . S
H599 C612 0.960 . S
C600 H592 0.929 . S
C600 C601 1.377 . S
C600 C602 1.384 . S
C601 C600 1.377 . S
C601 C607 1.390 1_455 S
C602 H593 0.930 . S
C602 C600 1.384 . S
C602 C603 1.372 . S
C603 C602 1.372 . S
C603 C604 1.400 1_455 S
C603 C608 1.490 . S
C604 H594 0.930 . S
C604 C603 1.400 1_655 S
C604 C607 1.386 . S
H605 C621 0.930 . S
H606 C622 0.931 . S
C607 H595 0.929 . S
C607 C601 1.390 1_655 S
C607 C604 1.386 . S
C608 C603 1.490 . S
C608 C610 1.395 . S
C608 C611 1.403 1_455 S
H609 C615 0.930 . S
C610 H596 0.930 . S
C610 C608 1.395 . S
C610 C613 1.403 1_545 S
C611 C608 1.403 1_655 S
C611 C612 1.524 . S
C611 C615 1.400 1_545 S
C612 H597 0.960 . S
C612 H598 0.960 . S
C612 H599 0.960 . S
C612 C611 1.524 . S
C613 C610 1.403 1_565 S
C613 C614 1.392 1_455 S
C613 C617 1.495 . S
C614 C613 1.392 1_655 S
C614 C615 1.385 . S
C614 C616 1.478 . S
C615 H609 0.930 . S
C615 C611 1.400 1_565 S
C615 C614 1.385 . S
C616 C614 1.478 . S
C616 C618 1.381 1_655 S
C616 C622 1.383 . S
C617 C613 1.495 . S
C617 H623 0.944 1_565 S
C617 H624 0.961 . S
C617 H625 0.960 . S
C618 C616 1.381 1_455 S
C618 C619 1.394 1_455 S
C618 H626 0.930 . S
C619 C618 1.394 1_655 S
C619 C620 1.383 . S
C619 H627 0.929 1_655 S
C620 C619 1.383 . S
C620 C621 1.377 . S
C621 H605 0.930 . S
C621 C620 1.377 . S
C621 C622 1.379 . S
C622 H606 0.931 . S
C622 C616 1.383 . S
C622 C621 1.379 . S
H623 C617 0.944 1_545 S
H624 C617 0.961 . S
H625 C617 0.960 . S
H626 C618 0.930 . S
H627 C619 0.929 1_455 S
H628 C636 0.929 . S
H629 C638 0.930 . S
H630 C640 0.930 1_556 S
H631 C643 0.929 . S
H632 C646 0.930 . S
H633 C648 0.960 . S
H634 C648 0.960 1_554 S
H635 C648 0.960 . S
C636 H628 0.929 . S
C636 C637 1.377 . S
C636 C638 1.384 . S
C637 C636 1.377 . S
C637 C643 1.390 . S
C638 H629 0.930 . S
C638 C636 1.384 . S
C638 C639 1.372 . S
C639 C638 1.372 . S
C639 C640 1.400 . S
C639 C644 1.490 . S
C640 H630 0.930 1_554 S
C640 C639 1.400 . S
C640 C643 1.386 . S
H641 C657 0.930 . S
H642 C658 0.931 . S
C643 H631 0.929 . S
C643 C637 1.390 . S
C643 C640 1.386 . S
C644 C639 1.490 . S
C644 C646 1.395 . S
C644 C647 1.403 1_554 S
H645 C651 0.930 . S
C646 H632 0.930 . S
C646 C644 1.395 . S
C646 C649 1.403 . S
C647 C644 1.403 1_556 S
C647 C648 1.524 . S
C647 C651 1.400 . S
C648 H633 0.960 . S
C648 H634 0.960 1_556 S
C648 H635 0.960 . S
C648 C647 1.524 . S
C649 C646 1.403 . S
C649 C650 1.392 1_554 S
C649 C653 1.495 . S
C650 C649 1.392 1_556 S
C650 C651 1.385 . S
C650 C652 1.478 . S
C651 H645 0.930 . S
C651 C647 1.400 . S
C651 C650 1.385 . S
C652 C650 1.478 . S
C652 C654 1.381 . S
C652 C658 1.383 . S
C653 C649 1.495 . S
C653 H659 0.959 . S
C653 H660 0.961 1_554 S
C653 H661 0.960 . S
C654 C652 1.381 . S
C654 C655 1.394 . S
C654 H662 0.930 1_556 S
C655 C654 1.394 . S
C655 C656 1.383 . S
C655 H663 0.929 . S
C656 C655 1.383 . S
C656 C657 1.377 . S
C657 H641 0.930 . S
C657 C656 1.377 . S
C657 C658 1.379 . S
C658 H642 0.931 . S
C658 C652 1.383 . S
C658 C657 1.379 . S
H659 C653 0.959 . S
H660 C653 0.961 1_556 S
H661 C653 0.960 . S
H662 C654 0.930 1_554 S
H663 C655 0.929 . S
H664 C672 0.929 . S
H665 C674 0.930 . S
H666 C676 0.930 . S
H667 C679 0.929 . S
H668 C682 0.930 . S
H669 C684 0.960 . S
H670 C684 0.960 . S
H671 C684 0.960 . S
C672 H664 0.929 . S
C672 C673 1.377 . S
C672 C674 1.384 . S
C673 C672 1.377 . S
C673 C679 1.390 . S
C674 H665 0.930 . S
C674 C672 1.384 . S
C674 C675 1.372 . S
C675 C674 1.372 . S
C675 C676 1.400 . S
C675 C680 1.490 . S
C676 H666 0.930 . S
C676 C675 1.400 . S
C676 C679 1.386 . S
H677 C693 0.930 . S
H678 C694 0.931 . S
C679 H667 0.929 . S
C679 C673 1.390 . S
C679 C676 1.386 . S
C680 C675 1.490 . S
C680 C682 1.395 . S
C680 C683 1.403 . S
H681 C687 0.930 . S
C682 H668 0.930 . S
C682 C680 1.395 . S
C682 C685 1.403 . S
C683 C680 1.403 . S
C683 C684 1.524 . S
C683 C687 1.400 . S
C684 H669 0.960 . S
C684 H670 0.960 . S
C684 H671 0.960 . S
C684 C683 1.524 . S
C685 C682 1.403 . S
C685 C686 1.392 . S
C685 C689 1.495 . S
C686 C685 1.392 . S
C686 C687 1.385 . S
C686 C688 1.478 . S
C687 H681 0.930 . S
C687 C683 1.400 . S
C687 C686 1.385 . S
C688 C686 1.478 . S
C688 C690 1.381 . S
C688 C694 1.383 . S
C689 C685 1.495 . S
C689 H695 0.959 . S
C689 H696 0.961 . S
C689 H697 0.960 . S
C690 C688 1.381 . S
C690 C691 1.394 . S
C690 H698 0.930 . S
C691 C690 1.394 . S
C691 C692 1.383 . S
C691 H699 0.929 . S
C692 C691 1.383 . S
C692 C693 1.377 . S
C693 H677 0.930 . S
C693 C692 1.377 . S
C693 C694 1.379 . S
C694 H678 0.931 . S
C694 C688 1.383 . S
C694 C693 1.379 . S
H695 C689 0.959 . S
H696 C689 0.961 . S
H697 C689 0.960 . S
H698 C690 0.930 . S
H699 C691 0.929 . S
C133 C19 1.136 . S
C152 C30 1.139 . S
C169 C31 1.140 . S
C188 C41 1.128 . S
C205 C62 1.139 . S
C224 C72 1.125 . S
C241 C103 1.143 . S
C260 C93 1.115 . S
C277 C10 1.173 . S
C296 C0 1.124 . S
C313 C61 1.174 . S
C332 C50 1.180 . S
C349 C81 1.155 . S
C368 C92 1.188 . S
C385 C112 1.158 . S
C404 C123 1.191 . S
C421 C122 1.959 . S
C440 C1 1.961 . S
C457 C113 1.959 . S
C476 C2 1.945 . S
C493 C82 1.962 . S
C512 C60 1.956 . S
C529 C91 1.959 . S
C548 C51 1.942 . S
C565 C20 1.414 . S
C584 C33 1.424 . S
C601 C29 1.397 . S
C620 C32 1.374 . S
C637 C63 1.408 . S
C656 C95 1.371 . S
C673 C94 1.408 . S
C692 C64 1.378 . S
