# Generated by pormake.
# Topology uoe, (4)-cn, num edge types: 1
# Building blocks:
#     Node 0, Type 0, BuildingBlock: CEKHIL_clean_sbu_0, # of connection points: 4
#     Node 1, Type 0, BuildingBlock: CEKHIL_clean_sbu_0, # of connection points: 4
#     Node 2, Type 0, BuildingBlock: CEKHIL_clean_sbu_0, # of connection points: 4
#     Node 3, Type 0, BuildingBlock: CEKHIL_clean_sbu_0, # of connection points: 4
#     Node 4, Type 0, BuildingBlock: CEKHIL_clean_sbu_0, # of connection points: 4
#     Node 5, Type 0, BuildingBlock: CEKHIL_clean_sbu_0, # of connection points: 4
#     Node 6, Type 0, BuildingBlock: CEKHIL_clean_sbu_0, # of connection points: 4
#     Node 7, Type 0, BuildingBlock: CEKHIL_clean_sbu_0, # of connection points: 4
#     Node 8, Type 0, BuildingBlock: CEKHIL_clean_sbu_0, # of connection points: 4
#     Node 9, Type 0, BuildingBlock: CEKHIL_clean_sbu_0, # of connection points: 4
#     Node 10, Type 0, BuildingBlock: CEKHIL_clean_sbu_0, # of connection points: 4
#     Node 11, Type 0, BuildingBlock: CEKHIL_clean_sbu_0, # of connection points: 4
#     Node 12, Type 0, BuildingBlock: CEKHIL_clean_sbu_0, # of connection points: 4
#     Node 13, Type 0, BuildingBlock: CEKHIL_clean_sbu_0, # of connection points: 4
#     Node 14, Type 0, BuildingBlock: CEKHIL_clean_sbu_0, # of connection points: 4
#     Node 15, Type 0, BuildingBlock: CEKHIL_clean_sbu_0, # of connection points: 4
#     Node 16, Type 0, BuildingBlock: CEKHIL_clean_sbu_0, # of connection points: 4
#     Node 17, Type 0, BuildingBlock: CEKHIL_clean_sbu_0, # of connection points: 4
#     Node 18, Type 0, BuildingBlock: CEKHIL_clean_sbu_0, # of connection points: 4
#     Node 19, Type 0, BuildingBlock: CEKHIL_clean_sbu_0, # of connection points: 4
#     Node 20, Type 0, BuildingBlock: CEKHIL_clean_sbu_0, # of connection points: 4
#     Node 21, Type 0, BuildingBlock: CEKHIL_clean_sbu_0, # of connection points: 4
#     Node 22, Type 0, BuildingBlock: CEKHIL_clean_sbu_0, # of connection points: 4
#     Node 23, Type 0, BuildingBlock: CEKHIL_clean_sbu_0, # of connection points: 4
#     Node 24, Type 0, BuildingBlock: CEKHIL_clean_sbu_0, # of connection points: 4
#     Node 25, Type 0, BuildingBlock: CEKHIL_clean_sbu_0, # of connection points: 4
#     Node 26, Type 0, BuildingBlock: CEKHIL_clean_sbu_0, # of connection points: 4
#     Node 27, Type 0, BuildingBlock: CEKHIL_clean_sbu_0, # of connection points: 4
#     Node 28, Type 0, BuildingBlock: CEKHIL_clean_sbu_0, # of connection points: 4
#     Node 29, Type 0, BuildingBlock: CEKHIL_clean_sbu_0, # of connection points: 4
#     Node 30, Type 0, BuildingBlock: CEKHIL_clean_sbu_0, # of connection points: 4
#     Node 31, Type 0, BuildingBlock: CEKHIL_clean_sbu_0, # of connection points: 4
#     Edge 32, Type (0, 0), BuildingBlock: OJICUG_clean_linker_0, # of connection points: 2
#     Edge 33, Type (0, 0), BuildingBlock: OJICUG_clean_linker_0, # of connection points: 2
#     Edge 34, Type (0, 0), BuildingBlock: OJICUG_clean_linker_0, # of connection points: 2
#     Edge 35, Type (0, 0), BuildingBlock: OJICUG_clean_linker_0, # of connection points: 2
#     Edge 36, Type (0, 0), BuildingBlock: OJICUG_clean_linker_0, # of connection points: 2
#     Edge 37, Type (0, 0), BuildingBlock: OJICUG_clean_linker_0, # of connection points: 2
#     Edge 38, Type (0, 0), BuildingBlock: OJICUG_clean_linker_0, # of connection points: 2
#     Edge 39, Type (0, 0), BuildingBlock: OJICUG_clean_linker_0, # of connection points: 2
#     Edge 40, Type (0, 0), BuildingBlock: OJICUG_clean_linker_0, # of connection points: 2
#     Edge 41, Type (0, 0), BuildingBlock: OJICUG_clean_linker_0, # of connection points: 2
#     Edge 42, Type (0, 0), BuildingBlock: OJICUG_clean_linker_0, # of connection points: 2
#     Edge 43, Type (0, 0), BuildingBlock: OJICUG_clean_linker_0, # of connection points: 2
#     Edge 44, Type (0, 0), BuildingBlock: OJICUG_clean_linker_0, # of connection points: 2
#     Edge 45, Type (0, 0), BuildingBlock: OJICUG_clean_linker_0, # of connection points: 2
#     Edge 46, Type (0, 0), BuildingBlock: OJICUG_clean_linker_0, # of connection points: 2
#     Edge 47, Type (0, 0), BuildingBlock: OJICUG_clean_linker_0, # of connection points: 2
#     Edge 48, Type (0, 0), BuildingBlock: OJICUG_clean_linker_0, # of connection points: 2
#     Edge 49, Type (0, 0), BuildingBlock: OJICUG_clean_linker_0, # of connection points: 2
#     Edge 50, Type (0, 0), BuildingBlock: OJICUG_clean_linker_0, # of connection points: 2
#     Edge 51, Type (0, 0), BuildingBlock: OJICUG_clean_linker_0, # of connection points: 2
#     Edge 52, Type (0, 0), BuildingBlock: OJICUG_clean_linker_0, # of connection points: 2
#     Edge 53, Type (0, 0), BuildingBlock: OJICUG_clean_linker_0, # of connection points: 2
#     Edge 54, Type (0, 0), BuildingBlock: OJICUG_clean_linker_0, # of connection points: 2
#     Edge 55, Type (0, 0), BuildingBlock: OJICUG_clean_linker_0, # of connection points: 2
#     Edge 56, Type (0, 0), BuildingBlock: OJICUG_clean_linker_0, # of connection points: 2
#     Edge 57, Type (0, 0), BuildingBlock: OJICUG_clean_linker_0, # of connection points: 2
#     Edge 58, Type (0, 0), BuildingBlock: OJICUG_clean_linker_0, # of connection points: 2
#     Edge 59, Type (0, 0), BuildingBlock: OJICUG_clean_linker_0, # of connection points: 2
#     Edge 60, Type (0, 0), BuildingBlock: OJICUG_clean_linker_0, # of connection points: 2
#     Edge 61, Type (0, 0), BuildingBlock: OJICUG_clean_linker_0, # of connection points: 2
#     Edge 62, Type (0, 0), BuildingBlock: OJICUG_clean_linker_0, # of connection points: 2
#     Edge 63, Type (0, 0), BuildingBlock: OJICUG_clean_linker_0, # of connection points: 2
#     Edge 64, Type (0, 0), BuildingBlock: OJICUG_clean_linker_0, # of connection points: 2
#     Edge 65, Type (0, 0), BuildingBlock: OJICUG_clean_linker_0, # of connection points: 2
#     Edge 66, Type (0, 0), BuildingBlock: OJICUG_clean_linker_0, # of connection points: 2
#     Edge 67, Type (0, 0), BuildingBlock: OJICUG_clean_linker_0, # of connection points: 2
#     Edge 68, Type (0, 0), BuildingBlock: OJICUG_clean_linker_0, # of connection points: 2
#     Edge 69, Type (0, 0), BuildingBlock: OJICUG_clean_linker_0, # of connection points: 2
#     Edge 70, Type (0, 0), BuildingBlock: OJICUG_clean_linker_0, # of connection points: 2
#     Edge 71, Type (0, 0), BuildingBlock: OJICUG_clean_linker_0, # of connection points: 2
#     Edge 72, Type (0, 0), BuildingBlock: OJICUG_clean_linker_0, # of connection points: 2
#     Edge 73, Type (0, 0), BuildingBlock: OJICUG_clean_linker_0, # of connection points: 2
#     Edge 74, Type (0, 0), BuildingBlock: OJICUG_clean_linker_0, # of connection points: 2
#     Edge 75, Type (0, 0), BuildingBlock: OJICUG_clean_linker_0, # of connection points: 2
#     Edge 76, Type (0, 0), BuildingBlock: OJICUG_clean_linker_0, # of connection points: 2
#     Edge 77, Type (0, 0), BuildingBlock: OJICUG_clean_linker_0, # of connection points: 2
#     Edge 78, Type (0, 0), BuildingBlock: OJICUG_clean_linker_0, # of connection points: 2
#     Edge 79, Type (0, 0), BuildingBlock: OJICUG_clean_linker_0, # of connection points: 2
#     Edge 80, Type (0, 0), BuildingBlock: OJICUG_clean_linker_0, # of connection points: 2
#     Edge 81, Type (0, 0), BuildingBlock: OJICUG_clean_linker_0, # of connection points: 2
#     Edge 82, Type (0, 0), BuildingBlock: OJICUG_clean_linker_0, # of connection points: 2
#     Edge 83, Type (0, 0), BuildingBlock: OJICUG_clean_linker_0, # of connection points: 2
#     Edge 84, Type (0, 0), BuildingBlock: OJICUG_clean_linker_0, # of connection points: 2
#     Edge 85, Type (0, 0), BuildingBlock: OJICUG_clean_linker_0, # of connection points: 2
#     Edge 86, Type (0, 0), BuildingBlock: OJICUG_clean_linker_0, # of connection points: 2
#     Edge 87, Type (0, 0), BuildingBlock: OJICUG_clean_linker_0, # of connection points: 2
#     Edge 88, Type (0, 0), BuildingBlock: OJICUG_clean_linker_0, # of connection points: 2
#     Edge 89, Type (0, 0), BuildingBlock: OJICUG_clean_linker_0, # of connection points: 2
#     Edge 90, Type (0, 0), BuildingBlock: OJICUG_clean_linker_0, # of connection points: 2
#     Edge 91, Type (0, 0), BuildingBlock: OJICUG_clean_linker_0, # of connection points: 2
#     Edge 92, Type (0, 0), BuildingBlock: OJICUG_clean_linker_0, # of connection points: 2
#     Edge 93, Type (0, 0), BuildingBlock: OJICUG_clean_linker_0, # of connection points: 2
#     Edge 94, Type (0, 0), BuildingBlock: OJICUG_clean_linker_0, # of connection points: 2
#     Edge 95, Type (0, 0), BuildingBlock: OJICUG_clean_linker_0, # of connection points: 2
# Relax obj value: 0.174
# Max RMSD: 0.204
# Mean RMSD: 0.204
data_MOF--net-uoe--node1-CEKHIL_clean_sbu_0--edge1-OJICUG_clean_linker_0
_symmetry_space_group_name_H-M    P1
_symmetry_Int_Tables_number       1
_symmetry_cell_setting            triclinic
loop_
_symmetry_equiv_pos_as_xyz
'x, y, z'
_cell_length_a     54.010491
_cell_length_b     54.050661
_cell_length_c     19.43824
_cell_angle_alpha  89.928429
_cell_angle_beta   90.013658
_cell_angle_gamma 90.010657
loop_
_atom_site_label
_atom_site_type_symbol
_atom_site_fract_x
_atom_site_fract_y
_atom_site_fract_z
_atom_type_partial_charge
Co0 Co 0.11659 0.47922 0.02097 0.0
O1 O 0.14797 0.4628 0.02746 0.0
O2 O 0.11268 0.44717 0.06565 0.0
C3 C 0.11973 0.49331 0.91253 0.0
O4 O 0.08076 0.49152 0.02308 0.0
Co5 Co 0.11695 0.5367 0.00364 0.0
O6 O 0.08051 0.53227 -0.00206 0.0
C7 C 0.1312 0.51463 0.13483 0.0
C8 C 0.13671 0.44554 0.06185 0.0
C9 C 0.06927 0.51211 0.01189 0.0
O10 O 0.12279 0.49392 0.11323 0.0
O11 O 0.13268 0.53397 0.09698 0.0
O12 O 0.11293 0.47051 0.9236 0.0
O13 O 0.12728 0.50523 0.96586 0.0
Co14 Co 0.80067 0.86664 0.26937 0.0
O15 O 0.81741 0.89789 0.27536 0.0
O16 O 0.83287 0.86248 0.31309 0.0
C17 C 0.78615 0.86982 0.16123 0.0
O18 O 0.78811 0.83094 0.27214 0.0
Co19 Co 0.74315 0.86743 0.2549 0.0
O20 O 0.7471 0.83091 0.25008 0.0
C21 C 0.76624 0.88243 0.38396 0.0
C22 C 0.83468 0.88648 0.30942 0.0
C23 C 0.76734 0.81957 0.26263 0.0
O24 O 0.78648 0.87299 0.36215 0.0
O25 O 0.74678 0.88424 0.34669 0.0
O26 O 0.80897 0.86292 0.17177 0.0
O27 O 0.77445 0.87747 0.21489 0.0
Co28 Co 0.41468 0.55193 0.5207 0.0
O29 O 0.38364 0.56906 0.52587 0.0
O30 O 0.41902 0.58377 0.56612 0.0
C31 C 0.41193 0.53825 0.41192 0.0
O32 O 0.4502 0.53874 0.52426 0.0
Co33 Co 0.41296 0.49456 0.50315 0.0
O34 O 0.44955 0.49803 0.4987 0.0
C35 C 0.39836 0.51675 0.63363 0.0
C36 C 0.39505 0.58596 0.56117 0.0
C37 C 0.46123 0.51789 0.51318 0.0
O38 O 0.40753 0.5372 0.61246 0.0
O39 O 0.39665 0.49747 0.59575 0.0
O40 O 0.41916 0.56086 0.42375 0.0
O41 O 0.40373 0.52633 0.46464 0.0
Co42 Co 0.72658 0.16626 0.77068 0.0
O43 O 0.71089 0.13456 0.77795 0.0
O44 O 0.69447 0.1695 0.8157 0.0
C45 C 0.74066 0.16294 0.66222 0.0
O46 O 0.73827 0.20234 0.77177 0.0
Co47 Co 0.78412 0.16636 0.75356 0.0
O48 O 0.77902 0.20266 0.7461 0.0
C49 C 0.76202 0.15139 0.88387 0.0
C50 C 0.69346 0.14542 0.81256 0.0
C51 C 0.7588 0.21387 0.75967 0.0
O52 O 0.7415 0.16053 0.86296 0.0
O53 O 0.78126 0.14974 0.84574 0.0
O54 O 0.71773 0.16941 0.67303 0.0
O55 O 0.75269 0.15587 0.71589 0.0
Co56 Co 0.11251 0.55536 0.53927 0.0
O57 O 0.14397 0.57155 0.53225 0.0
O58 O 0.1087 0.58753 0.49502 0.0
C59 C 0.11629 0.54106 0.64743 0.0
O60 O 0.07659 0.54318 0.53797 0.0
Co61 Co 0.11309 0.49782 0.55569 0.0
O62 O 0.0767 0.50238 0.56273 0.0
C63 C 0.12793 0.52045 0.42582 0.0
C64 C 0.13277 0.58892 0.49821 0.0
C65 C 0.06527 0.52251 0.54945 0.0
O66 O 0.11841 0.54078 0.4467 0.0
O67 O 0.12986 0.50121 0.46388 0.0
O68 O 0.10937 0.56387 0.63707 0.0
O69 O 0.12338 0.52926 0.5935 0.0
Co70 Co 0.72615 0.86435 0.78521 0.0
O71 O 0.70481 0.89303 0.77938 0.0
O72 O 0.69575 0.85595 0.7381 0.0
C73 C 0.739 0.86849 0.89474 0.0
O74 O 0.74265 0.83038 0.78179 0.0
Co75 Co 0.78298 0.8696 0.80655 0.0
O76 O 0.78293 0.83282 0.81033 0.0
C77 C 0.76097 0.88347 0.67469 0.0
C78 C 0.6898 0.87914 0.74409 0.0
C79 C 0.76384 0.82026 0.79393 0.0
O80 O 0.74066 0.87345 0.69429 0.0
O81 O 0.77994 0.88566 0.71367 0.0
O82 O 0.71737 0.85879 0.88192 0.0
O83 O 0.75039 0.87776 0.84248 0.0
Co84 Co 0.41798 0.47745 0.03737 0.0
O85 O 0.38692 0.46038 0.03348 0.0
O86 O 0.42212 0.44535 -0.00689 0.0
C87 C 0.41512 0.49164 0.14568 0.0
O88 O 0.45352 0.49056 0.03281 0.0
Co89 Co 0.41642 0.5349 0.05295 0.0
O90 O 0.45302 0.53141 0.05654 0.0
C91 C 0.40082 0.51192 0.92429 0.0
C92 C 0.39815 0.44326 -0.00133 0.0
C93 C 0.46462 0.51146 0.0427 0.0
O94 O 0.41065 0.49173 0.94517 0.0
O95 O 0.39908 0.53125 0.96193 0.0
O96 O 0.4225 0.46903 0.13472 0.0
O97 O 0.4071 0.50333 0.0924 0.0
Co98 Co 0.80259 0.16576 0.28869 0.0
O99 O 0.81936 0.13455 0.28331 0.0
O100 O 0.83475 0.16984 0.24449 0.0
C101 C 0.78831 0.16261 0.39694 0.0
O102 O 0.7899 0.20144 0.28558 0.0
Co103 Co 0.74505 0.16483 0.30483 0.0
O104 O 0.74906 0.20131 0.30986 0.0
C105 C 0.76767 0.15018 0.17481 0.0
C106 C 0.83661 0.14584 0.24895 0.0
C107 C 0.76915 0.21273 0.29613 0.0
O108 O 0.78816 0.15918 0.19631 0.0
O109 O 0.74829 0.14852 0.21244 0.0
O110 O 0.81106 0.16969 0.3862 0.0
O111 O 0.77656 0.15491 0.34346 0.0
Co112 Co 0.91574 0.55119 0.03899 0.0
O113 O 0.88472 0.56837 0.03326 0.0
O114 O 0.92037 0.58338 -0.0043 0.0
C115 C 0.91232 0.53655 0.14702 0.0
O116 O 0.95128 0.5382 0.03602 0.0
Co117 Co 0.91435 0.49372 0.05297 0.0
O118 O 0.95096 0.49718 0.0574 0.0
C119 C 0.89915 0.51722 0.92447 0.0
C120 C 0.89639 0.58554 -0.00053 0.0
C121 C 0.96248 0.51733 0.0451 0.0
O122 O 0.90909 0.53725 0.94604 0.0
O123 O 0.89714 0.49779 0.96178 0.0
O124 O 0.91961 0.55925 0.13671 0.0
O125 O 0.90456 0.52502 0.09319 0.0
Co126 Co 0.22853 0.16507 0.78514 0.0
O127 O 0.21125 0.13415 0.78039 0.0
O128 O 0.19658 0.16951 0.74003 0.0
C129 C 0.24239 0.16218 0.89381 0.0
O130 O 0.24188 0.20052 0.78146 0.0
Co131 Co 0.28598 0.16314 0.80237 0.0
O132 O 0.2826 0.19969 0.80725 0.0
C133 C 0.26348 0.14848 0.67223 0.0
C134 C 0.19428 0.14557 0.74531 0.0
C135 C 0.26278 0.21145 0.79277 0.0
O136 O 0.2431 0.15786 0.69326 0.0
O137 O 0.28278 0.14667 0.71013 0.0
O138 O 0.2198 0.16955 0.88221 0.0
O139 O 0.25419 0.15402 0.84094 0.0
Co140 Co 0.61494 0.47725 0.53443 0.0
O141 O 0.64619 0.46063 0.52729 0.0
O142 O 0.61072 0.4452 0.48987 0.0
C143 C 0.61876 0.49132 0.64264 0.0
O144 O 0.57921 0.48997 0.53314 0.0
Co145 Co 0.6162 0.53473 0.55069 0.0
O146 O 0.57969 0.53083 0.55699 0.0
C147 C 0.63089 0.51198 0.42104 0.0
C148 C 0.63477 0.44349 0.49297 0.0
C149 C 0.56808 0.51079 0.54403 0.0
O150 O 0.62103 0.49183 0.442 0.0
O151 O 0.63304 0.53121 0.45896 0.0
O152 O 0.61161 0.46859 0.63206 0.0
O153 O 0.6261 0.50314 0.58887 0.0
Co154 Co 0.30327 0.86572 0.28427 0.0
O155 O 0.3202 0.8968 0.27798 0.0
O156 O 0.33524 0.86137 0.23934 0.0
C157 C 0.28936 0.86903 0.39272 0.0
O158 O 0.29024 0.83015 0.28212 0.0
Co159 Co 0.2458 0.86736 0.30112 0.0
O160 O 0.24944 0.83084 0.30709 0.0
C161 C 0.26837 0.88188 0.17096 0.0
C162 C 0.33722 0.88536 0.24325 0.0
C163 C 0.26937 0.81914 0.29342 0.0
O164 O 0.28866 0.87234 0.19211 0.0
O165 O 0.24909 0.88387 0.20883 0.0
O166 O 0.31203 0.86181 0.38155 0.0
O167 O 0.27751 0.87683 0.33944 0.0
Co168 Co 0.9144 0.47675 0.5236 0.0
O169 O 0.88563 0.45546 0.5289 0.0
O170 O 0.92262 0.44643 0.57131 0.0
C171 C 0.91076 0.48946 0.41373 0.0
O172 O 0.94841 0.49316 0.52783 0.0
Co173 Co 0.90936 0.53352 0.50137 0.0
O174 O 0.94618 0.53337 0.49866 0.0
C175 C 0.89561 0.51192 0.63385 0.0
C176 C 0.89942 0.44049 0.56472 0.0
C177 C 0.95863 0.51429 0.51575 0.0
O178 O 0.9051 0.4914 0.61414 0.0
O179 O 0.89371 0.53091 0.59483 0.0
O180 O 0.9203 0.46783 0.42722 0.0
O181 O 0.90125 0.50094 0.46548 0.0
Co182 Co 0.30338 0.16618 0.26844 0.0
O183 O 0.32062 0.13521 0.27265 0.0
O184 O 0.33543 0.17051 0.3129 0.0
C185 C 0.28928 0.16337 0.16 0.0
O186 O 0.29022 0.20165 0.27277 0.0
Co187 Co 0.24591 0.16471 0.25199 0.0
O188 O 0.2494 0.20128 0.24822 0.0
C189 C 0.26863 0.14937 0.38144 0.0
C190 C 0.33771 0.14658 0.30738 0.0
C191 C 0.26938 0.21281 0.26246 0.0
O192 O 0.28901 0.15882 0.36049 0.0
O193 O 0.24929 0.14777 0.34366 0.0
O194 O 0.3119 0.17076 0.17122 0.0
O195 O 0.27754 0.15527 0.2131 0.0
Co196 Co 0.61808 0.55226 0.01691 0.0
O197 O 0.64921 0.5692 0.02341 0.0
O198 O 0.61371 0.58414 0.06207 0.0
C199 C 0.62135 0.53846 0.90832 0.0
O200 O 0.58246 0.5393 0.01916 0.0
Co201 Co 0.61944 0.49484 -0.00065 0.0
O202 O 0.5829 0.49856 -0.00598 0.0
C203 C 0.63365 0.51702 0.13024 0.0
C204 C 0.63772 0.58616 0.05826 0.0
C205 C 0.57131 0.51851 0.00805 0.0
O206 O 0.62463 0.53752 0.10892 0.0
O207 O 0.63544 0.49775 0.09235 0.0
O208 O 0.61418 0.56112 0.91966 0.0
O209 O 0.62915 0.52655 0.96148 0.0
Co210 Co 0.22842 0.8655 0.76729 0.0
O211 O 0.21156 0.89665 0.77249 0.0
O212 O 0.1964 0.86139 0.81219 0.0
C213 C 0.24241 0.86854 0.6588 0.0
O214 O 0.2413 0.82989 0.77072 0.0
Co215 Co 0.2859 0.8667 0.75042 0.0
O216 O 0.28212 0.83017 0.74607 0.0
C217 C 0.2634 0.88176 0.88018 0.0
C218 C 0.19446 0.88537 0.80746 0.0
C219 C 0.2621 0.81868 0.76014 0.0
O220 O 0.24301 0.87236 0.85929 0.0
O221 O 0.2827 0.88345 0.84228 0.0
O222 O 0.21972 0.86136 0.67004 0.0
O223 O 0.25426 0.87636 0.71195 0.0
Co224 Co 0.61599 0.97553 0.52471 0.0
O225 O 0.64458 0.95403 0.53061 0.0
O226 O 0.6074 0.94522 0.57201 0.0
C227 C 0.62009 0.98831 0.41504 0.0
O228 O 0.58208 0.99213 0.52814 0.0
Co229 Co 0.62141 0.03228 0.50296 0.0
O230 O 0.5846 0.03234 0.49919 0.0
C231 C 0.63508 1.01039 0.63515 0.0
C232 C 0.63057 0.93912 0.56599 0.0
C233 C 0.57199 1.0133 0.51582 0.0
O234 O 0.62517 0.99004 0.61554 0.0
O235 O 0.63728 0.02933 0.59609 0.0
O236 O 0.61034 0.96673 0.42809 0.0
O237 O 0.62948 0.99968 0.46714 0.0
Co238 Co 0.30461 0.36465 0.77231 0.0
O239 O 0.32171 0.39563 0.77853 0.0
O240 O 0.33663 0.36007 0.81688 0.0
C241 C 0.29059 0.36825 0.66403 0.0
O242 O 0.2914 0.32915 0.77444 0.0
Co243 Co 0.24712 0.36652 0.75579 0.0
O244 O 0.25058 0.33 0.74969 0.0
C245 C 0.26993 0.38098 0.88567 0.0
C246 C 0.33875 0.38405 0.81294 0.0
C247 C 0.27048 0.31822 0.76323 0.0
O248 O 0.29013 0.37124 0.86462 0.0
O249 O 0.25066 0.38311 0.84779 0.0
O250 O 0.31322 0.36086 0.67494 0.0
O251 O 0.27884 0.37598 0.71747 0.0
Co252 Co 0.91599 0.05315 0.02213 0.0
O253 O 0.88488 0.07008 0.02752 0.0
O254 O 0.92023 0.08516 0.0668 0.0
C255 C 0.91284 0.0391 0.91373 0.0
O256 O 0.95159 0.04011 0.02527 0.0
Co257 Co 0.91438 0.9957 0.00608 0.0
O258 O 0.95095 0.99927 0.00133 0.0
C259 C 0.89925 0.01853 0.13524 0.0
C260 C 0.89623 0.08713 0.06236 0.0
C261 C 0.96263 0.01922 0.01484 0.0
O262 O 0.90914 0.03868 0.11432 0.0
O263 O 0.89729 0.99925 0.09747 0.0
O264 O 0.9201 0.06176 0.92476 0.0
O265 O 0.90498 0.02733 0.96705 0.0
Co266 Co 0.22747 0.66609 0.27147 0.0
O267 O 0.21005 0.63524 0.27644 0.0
O268 O 0.19547 0.67072 0.31605 0.0
C269 C 0.24148 0.66296 0.16306 0.0
O270 O 0.24091 0.70148 0.27485 0.0
Co271 Co 0.28492 0.66403 0.25505 0.0
O272 O 0.2817 0.7006 0.24998 0.0
C273 C 0.26209 0.64924 0.38474 0.0
C274 C 0.19308 0.64679 0.31113 0.0
C275 C 0.26186 0.71239 0.26393 0.0
O276 O 0.24184 0.6589 0.36362 0.0
O277 O 0.2814 0.64731 0.34699 0.0
O278 O 0.21891 0.67048 0.17422 0.0
O279 O 0.25318 0.65486 0.21625 0.0
Co280 Co 0.61728 0.05014 0.04033 0.0
O281 O 0.64831 0.06737 0.03523 0.0
O282 O 0.61276 0.0823 -0.0032 0.0
C283 C 0.62036 0.03557 0.14852 0.0
O284 O 0.58174 0.03719 0.0366 0.0
Co285 Co 0.61846 0.99268 0.05487 0.0
O286 O 0.58185 0.99622 0.05861 0.0
C287 C 0.63362 0.0159 0.92591 0.0
C288 C 0.63672 0.08453 0.00117 0.0
C289 C 0.57044 0.01637 0.0457 0.0
O290 O 0.62415 0.03613 0.94761 0.0
O291 O 0.63537 0.99644 0.96321 0.0
O292 O 0.61314 0.05827 0.13792 0.0
O293 O 0.62827 0.024 0.09495 0.0
Co294 Co 0.22955 0.36637 0.28962 0.0
O295 O 0.21286 0.3976 0.28403 0.0
O296 O 0.19755 0.36239 0.24461 0.0
C297 C 0.24348 0.36932 0.39816 0.0
O298 O 0.24224 0.33069 0.28662 0.0
Co299 Co 0.28704 0.3673 0.30696 0.0
O300 O 0.28302 0.33081 0.31189 0.0
C301 C 0.26479 0.38213 0.17654 0.0
C302 C 0.19572 0.38638 0.24913 0.0
C303 C 0.26297 0.3194 0.29766 0.0
O304 O 0.24425 0.3731 0.19763 0.0
O305 O 0.28409 0.3837 0.21447 0.0
O306 O 0.22076 0.36229 0.38684 0.0
O307 O 0.25541 0.37711 0.34504 0.0
Co308 Co 0.9139 0.97866 0.53859 0.0
O309 O 0.88272 0.96176 0.53366 0.0
O310 O 0.91791 0.94677 0.4931 0.0
C311 C 0.91125 0.99243 0.64737 0.0
O312 O 0.94952 0.99162 0.53475 0.0
Co313 Co 0.91256 0.03606 0.55594 0.0
O314 O 0.94913 0.03237 0.55991 0.0
C315 C 0.89755 1.01382 0.42586 0.0
C316 C 0.89392 0.94479 0.49814 0.0
C317 C 0.96068 1.01244 0.54548 0.0
O318 O 0.90679 0.99338 0.44686 0.0
O319 O 0.89594 0.0331 0.46373 0.0
O320 O 0.91836 0.96978 0.63566 0.0
O321 O 0.90317 1.00436 0.59454 0.0
Co322 Co 0.30224 0.66517 0.78821 0.0
O323 O 0.31906 0.63399 0.78317 0.0
O324 O 0.33422 0.6692 0.74309 0.0
C325 C 0.28835 0.66234 0.89685 0.0
O326 O 0.2894 0.7008 0.78455 0.0
Co327 Co 0.24477 0.66403 0.80542 0.0
O328 O 0.2486 0.70056 0.80952 0.0
C329 C 0.2671 0.64893 0.67549 0.0
C330 C 0.33615 0.64522 0.74804 0.0
C331 C 0.26862 0.71203 0.79522 0.0
O332 O 0.28756 0.65821 0.69634 0.0
O333 O 0.24781 0.64732 0.71346 0.0
O334 O 0.31104 0.66944 0.88535 0.0
O335 O 0.27643 0.65442 0.84388 0.0
Co336 Co 0.41813 0.05466 0.53454 0.0
O337 O 0.38673 0.07094 0.5272 0.0
O338 O 0.4221 0.08677 0.4901 0.0
C339 C 0.41441 0.04048 0.64279 0.0
O340 O 0.45401 0.0424 0.5336 0.0
Co341 Co 0.41733 0.99715 0.55132 0.0
O342 O 0.45372 1.00165 0.55904 0.0
C343 C 0.40289 0.01962 0.42094 0.0
C344 C 0.39803 0.08826 0.49317 0.0
C345 C 0.46524 0.02172 0.54563 0.0
O346 O 0.41225 0.04001 0.44202 0.0
O347 O 0.40092 1.00039 0.459 0.0
O348 O 0.42132 0.06329 0.63221 0.0
O349 O 0.40719 0.02866 0.589 0.0
Co350 Co 0.72964 0.66543 0.28827 0.0
O351 O 0.71323 0.63402 0.28244 0.0
O352 O 0.69757 0.66916 0.24345 0.0
C353 C 0.74376 0.66248 0.39676 0.0
O354 O 0.74192 0.70125 0.28538 0.0
Co355 Co 0.78715 0.66515 0.30511 0.0
O356 O 0.78276 0.7016 0.30979 0.0
C357 C 0.76489 0.65006 0.17506 0.0
C358 C 0.69598 0.64514 0.24766 0.0
C359 C 0.76254 0.71278 0.29597 0.0
O360 O 0.74433 0.65901 0.19614 0.0
O361 O 0.78422 0.64859 0.21295 0.0
O362 O 0.72094 0.66925 0.38566 0.0
O363 O 0.75569 0.6549 0.34347 0.0
Co364 Co 0.11613 0.97819 0.03675 0.0
O365 O 0.14722 0.96123 0.03053 0.0
O366 O 0.11174 0.94629 -0.00833 0.0
C367 C 0.11941 0.99199 0.14529 0.0
O368 O 0.08054 0.99123 0.03442 0.0
Co369 Co 0.11768 0.03561 0.05404 0.0
O370 O 0.08114 0.03196 0.0597 0.0
C371 C 0.13206 1.0133 0.92352 0.0
C372 C 0.13574 0.94426 -0.00429 0.0
C373 C 0.06947 1.01205 0.04574 0.0
O374 O 0.12278 0.99289 0.9447 0.0
O375 O 0.13395 0.03255 0.96143 0.0
O376 O 0.11218 0.96935 0.13397 0.0
O377 O 0.12724 1.00388 0.09213 0.0
Co378 Co 0.80339 0.36508 0.78192 0.0
O379 O 0.8245 0.39397 0.7766 0.0
O380 O 0.83385 0.35705 0.73468 0.0
C381 C 0.79054 0.3688 0.89154 0.0
O382 O 0.78718 0.33098 0.77795 0.0
Co383 Co 0.74653 0.36979 0.80327 0.0
O384 O 0.74692 0.333 0.80674 0.0
C385 C 0.76836 0.38401 0.6715 0.0
C386 C 0.83962 0.38028 0.7411 0.0
C387 C 0.7661 0.32064 0.79009 0.0
O388 O 0.78879 0.37425 0.69115 0.0
O389 O 0.74936 0.38592 0.71042 0.0
O390 O 0.81225 0.35936 0.87849 0.0
O391 O 0.77904 0.37813 0.8395 0.0
Co392 Co 0.4164 0.97844 0.01628 0.0
O393 O 0.38502 0.96196 0.02176 0.0
O394 O 0.4202 0.94632 0.06067 0.0
C395 C 0.41342 0.99268 0.90793 0.0
O396 O 0.45222 0.99075 0.01942 0.0
Co397 Co 0.41616 0.03594 -0.00062 0.0
O398 O 0.45263 0.03154 -0.00523 0.0
C399 C 0.40132 1.01368 0.12989 0.0
C400 C 0.39618 0.94463 0.05616 0.0
C401 C 0.46378 1.01134 0.00884 0.0
O402 O 0.40991 0.993 0.10855 0.0
O403 O 0.39996 0.03302 0.09204 0.0
O404 O 0.42029 0.96989 0.91884 0.0
O405 O 0.40582 1.00452 0.96131 0.0
Co406 Co 0.80539 0.66649 0.77086 0.0
O407 O 0.82162 0.63503 0.77645 0.0
O408 O 0.83753 0.66998 0.81566 0.0
C409 C 0.7912 0.66349 0.6624 0.0
O410 O 0.79314 0.70237 0.77358 0.0
Co411 Co 0.74784 0.66574 0.75444 0.0
O412 O 0.75236 0.70215 0.74827 0.0
C413 C 0.77035 0.6507 0.88421 0.0
C414 C 0.83894 0.64595 0.81132 0.0
C415 C 0.77241 0.71362 0.7621 0.0
O416 O 0.79076 0.66004 0.86312 0.0
O417 O 0.75104 0.64899 0.84636 0.0
O418 O 0.81402 0.67031 0.67328 0.0
O419 O 0.77936 0.65596 0.71589 0.0
Co420 Co 0.11429 0.05307 0.51936 0.0
O421 O 0.1455 0.06982 0.5251 0.0
O422 O 0.11017 0.08515 0.56378 0.0
C423 C 0.11762 0.03898 0.4111 0.0
O424 O 0.07861 0.04023 0.52209 0.0
Co425 Co 0.11554 0.9956 0.50321 0.0
O426 O 0.079 0.99939 0.4981 0.0
C427 C 0.13055 0.01833 0.63271 0.0
C428 C 0.13419 0.08698 0.55959 0.0
C429 C 0.06744 0.0194 0.51158 0.0
O430 O 0.1209 0.03859 0.61168 0.0
O431 O 0.13243 0.99905 0.59491 0.0
O432 O 0.11043 0.06167 0.4219 0.0
O433 O 0.12527 0.02718 0.46461 0.0
Co434 Co 0.72899 0.36601 0.26637 0.0
O435 O 0.71176 0.39701 0.27046 0.0
O436 O 0.69679 0.36167 0.31004 0.0
C437 C 0.74354 0.36884 0.15818 0.0
O438 O 0.74207 0.33052 0.27088 0.0
Co439 Co 0.78649 0.36755 0.25225 0.0
O440 O 0.78304 0.33096 0.24844 0.0
C441 C 0.76315 0.38275 0.3808 0.0
C442 C 0.69459 0.38561 0.3049 0.0
C443 C 0.76298 0.3194 0.26157 0.0
O444 O 0.74298 0.37315 0.35901 0.0
O445 O 0.78265 0.38454 0.3437 0.0
O446 O 0.72084 0.36159 0.16887 0.0
O447 O 0.7551 0.37693 0.2116 0.0
C448 C 1.00258 0.49364 0.04804 0.0
C449 C 0.98987 0.51613 0.03781 0.0
H450 H 0.03737 0.4746 0.04749 0.0
C451 C 1.0035 0.53707 0.01788 0.0
H452 H 0.99273 0.47705 0.0632 0.0
C453 C 0.02912 0.53558 0.00846 0.0
C454 C 0.04186 0.51312 0.01883 0.0
H455 H 0.99439 0.55464 0.00911 0.0
H456 H 0.03893 0.55219 -0.00669 0.0
C457 C 0.02824 0.49216 0.03869 0.0
C458 C 0.78731 0.77863 0.28961 0.0
C459 C 0.76631 0.79217 0.26972 0.0
H460 H 0.80258 0.74326 0.31421 0.0
C461 C 0.74387 0.77935 0.25941 0.0
H462 H 0.80485 0.78782 0.29841 0.0
C463 C 0.74248 0.75371 0.26878 0.0
C464 C 0.7635 0.74018 0.28871 0.0
H465 H 0.72723 0.78912 0.24424 0.0
H466 H 0.72495 0.74451 0.26001 0.0
C467 C 0.78593 0.75301 0.29902 0.0
C468 C 0.50262 0.53678 0.54122 0.0
C469 C 0.48862 0.51624 0.52031 0.0
H470 H 0.53837 0.55115 0.56587 0.0
C471 C 0.50098 0.49365 0.50855 0.0
H472 H 0.49379 0.55441 0.55116 0.0
C473 C 0.52663 0.49169 0.5173 0.0
C474 C 0.54064 0.51226 0.53799 0.0
H475 H 0.49086 0.47734 0.49257 0.0
H476 H 0.53547 0.47407 0.50724 0.0
C477 C 0.52826 0.53482 0.54997 0.0
C478 C 0.73943 0.25528 0.78732 0.0
C479 C 0.75987 0.24134 0.76493 0.0
H480 H 0.72532 0.29113 0.81334 0.0
C481 C 0.78219 0.25383 0.75056 0.0
H482 H 0.722 0.24633 0.79913 0.0
C483 C 0.78416 0.27939 0.7591 0.0
C484 C 0.76386 0.29335 0.7821 0.0
H485 H 0.7984 0.24384 0.73314 0.0
H486 H 0.8017 0.28818 0.74758 0.0
C487 C 0.7414 0.28098 0.79578 0.0
C488 C 0.02377 0.54149 0.52069 0.0
C489 C 0.03782 0.52117 0.5435 0.0
H490 H 0.98788 0.5553 0.49348 0.0
C491 C 0.02548 0.49875 0.55738 0.0
H492 H 0.03261 0.559 0.50919 0.0
C493 C 0.99995 0.49656 0.54797 0.0
C494 C 0.98589 0.51674 0.52454 0.0
H495 H 0.03556 0.48263 0.57508 0.0
H496 H 0.99127 0.47894 0.55917 0.0
C497 C 0.99811 0.5393 0.51134 0.0
C498 C 0.74837 0.75324 0.75491 0.0
C499 C 0.77094 0.74105 0.7682 0.0
H500 H 0.7284 0.78733 0.75296 0.0
C501 C 0.79129 0.75523 0.79007 0.0
H502 H 0.73221 0.74306 0.73799 0.0
C503 C 0.78902 0.7809 0.79886 0.0
C504 C 0.76634 0.79298 0.78603 0.0
H505 H 0.8089 0.74651 0.80108 0.0
H506 H 0.80506 0.79125 0.81586 0.0
C507 C 0.74611 0.77877 0.76377 0.0
C508 C 0.53001 0.5376 0.03608 0.0
C509 C 0.54392 0.51699 0.01519 0.0
H510 H 0.49437 0.552 0.0618 0.0
C511 C 0.53149 0.49439 0.00406 0.0
H512 H 0.53889 0.55524 0.0455 0.0
C513 C 0.50589 0.49244 0.01376 0.0
C514 C 0.49199 0.51304 0.03479 0.0
H515 H 0.54153 0.47804 -0.01192 0.0
H516 H 0.49701 0.4748 0.00441 0.0
C517 C 0.50441 0.53565 0.04575 0.0
C518 C 0.74358 0.27826 0.28949 0.0
C519 C 0.76439 0.29204 0.26933 0.0
H520 H 0.72877 0.24273 0.31448 0.0
C521 C 0.78699 0.2795 0.25913 0.0
H522 H 0.72592 0.28723 0.29822 0.0
C523 C 0.7887 0.25389 0.26875 0.0
C524 C 0.76787 0.24011 0.28883 0.0
H525 H 0.8035 0.28946 0.24377 0.0
H526 H 0.80634 0.24491 0.25998 0.0
C527 C 0.74529 0.25267 0.29915 0.0
C528 C 0.28932 0.27667 0.78962 0.0
C529 C 0.26878 0.29082 0.76925 0.0
H530 H 0.30352 0.2408 0.81364 0.0
C531 C 0.24611 0.27861 0.75726 0.0
H532 H 0.30701 0.28538 0.79965 0.0
C533 C 0.24402 0.25297 0.76558 0.0
C534 C 0.26454 0.23883 0.78608 0.0
H535 H 0.22981 0.28884 0.74162 0.0
H536 H 0.22631 0.24427 0.75563 0.0
C537 C 0.28723 0.25104 0.79795 0.0
C538 C 0.24508 0.77949 0.29912 0.0
C539 C 0.26774 0.79175 0.28736 0.0
H540 H 0.22533 0.74513 0.30058 0.0
C541 C 0.28833 0.77764 0.26721 0.0
H542 H 0.22874 0.78968 0.31458 0.0
C543 C 0.28628 0.752 0.2589 0.0
C544 C 0.2636 0.73976 0.27054 0.0
H545 H 0.30602 0.78639 0.25737 0.0
H546 H 0.3026 0.7418 0.24341 0.0
C547 C 0.24303 0.75386 0.29079 0.0
C548 C 0.2886 0.25389 0.29173 0.0
C549 C 0.26792 0.24015 0.27044 0.0
H550 H 0.30324 0.28937 0.31776 0.0
C551 C 0.24537 0.2527 0.25931 0.0
H552 H 0.3062 0.24491 0.30121 0.0
C553 C 0.24359 0.27829 0.26911 0.0
C554 C 0.2643 0.29203 0.29028 0.0
H555 H 0.22897 0.24277 0.24306 0.0
H556 H 0.226 0.28728 0.25957 0.0
C557 C 0.28682 0.27946 0.30156 0.0
C558 C 0.28788 0.75318 0.76632 0.0
C559 C 0.2672 0.73939 0.78753 0.0
H560 H 0.30246 0.78873 0.74034 0.0
C561 C 0.24466 0.75193 0.79871 0.0
H562 H 0.30548 0.74422 0.75683 0.0
C563 C 0.24284 0.77752 0.78892 0.0
C564 C 0.26352 0.79131 0.76773 0.0
H565 H 0.22825 0.74198 0.81491 0.0
H566 H 0.22523 0.78648 0.79842 0.0
C567 C 0.28606 0.77878 0.75653 0.0
C568 C 0.50691 0.04065 0.51847 0.0
C569 C 0.49271 0.02032 0.54047 0.0
H570 H 0.54297 0.05443 0.49292 0.0
C571 C 0.50492 0.99784 0.55454 0.0
H572 H 0.49817 0.0582 0.50689 0.0
C573 C 0.53048 0.99562 0.54615 0.0
C574 C 0.54471 0.01581 0.52358 0.0
H575 H 0.49471 0.98171 0.57163 0.0
H576 H 0.53906 0.97796 0.55746 0.0
C577 C 0.53262 0.03842 0.51015 0.0
C578 C 1.00407 0.03821 0.04209 0.0
C579 C 0.99004 0.01762 0.02163 0.0
H580 H 0.03986 0.05258 0.06645 0.0
C581 C 1.00238 0.995 0.01016 0.0
H582 H 0.99526 0.05587 0.05178 0.0
C583 C 0.02802 0.99303 0.01887 0.0
C584 C 0.04206 1.01363 0.03926 0.0
H585 H 0.99224 0.97866 -0.00549 0.0
H586 H 0.03683 0.97538 0.00916 0.0
C587 C 0.02971 0.03624 0.05082 0.0
C588 C 0.52959 0.03618 0.01701 0.0
C589 C 0.54308 1.01523 0.03756 0.0
H590 H 0.4943 0.05135 -0.00894 0.0
C591 C 0.53026 0.99278 0.0475 0.0
H592 H 0.53877 0.05373 0.00843 0.0
C593 C 0.50465 0.99134 0.03722 0.0
C594 C 0.49116 1.01231 0.01672 0.0
H595 H 0.54 0.97618 0.06313 0.0
H596 H 0.49544 0.9738 0.04582 0.0
C597 C 0.504 0.03474 0.00668 0.0
C598 C 0.02758 0.99534 0.50725 0.0
C599 C 0.04003 0.01791 0.51863 0.0
H600 H 0.99308 0.97578 0.50718 0.0
C601 C 0.02613 0.03851 0.53961 0.0
H602 H 0.03761 0.97899 0.49118 0.0
C603 C 1.00051 0.03658 0.54912 0.0
C604 C 0.98807 1.014 0.53785 0.0
H605 H 0.03502 0.05613 0.54924 0.0
H606 H 0.99048 0.05292 0.56522 0.0
C607 C 1.00196 0.99341 0.51675 0.0
C608 C 0.11766 0.53143 0.83992 0.0
C609 C 0.11769 0.50545 0.84478 0.0
H610 H 0.11665 0.56313 0.77347 0.0
C611 C 0.11623 0.49135 0.78448 0.0
H612 H 0.11865 0.54281 0.8856 0.0
C613 C 0.11556 0.50302 0.72033 0.0
C614 C 0.11576 0.52899 0.71545 0.0
H615 H 0.11621 0.47132 0.78677 0.0
H616 H 0.11495 0.49165 0.67457 0.0
C617 C 0.11642 0.54311 0.77582 0.0
C618 C 0.77681 0.86871 0.96864 0.0
C619 C 0.75085 0.86763 0.96318 0.0
H620 H 0.80833 0.86968 0.03561 0.0
C621 C 0.7366 0.86648 0.02339 0.0
H622 H 0.78832 0.8695 0.92315 0.0
C623 C 0.74811 0.8672 0.08792 0.0
C624 C 0.77407 0.86839 0.09323 0.0
H625 H 0.71659 0.8657 0.02063 0.0
H626 H 0.73666 0.86678 0.13361 0.0
C627 C 0.78831 0.86874 0.033 0.0
C628 C 0.41594 0.5294 0.21944 0.0
C629 C 0.4158 0.50346 0.21392 0.0
H630 H 0.41529 0.56079 0.28677 0.0
C631 C 0.4153 0.48908 0.27394 0.0
H632 H 0.41644 0.54094 0.17391 0.0
C633 C 0.41408 0.50046 0.33836 0.0
C634 C 0.41398 0.5264 0.34389 0.0
H635 H 0.41511 0.46906 0.27105 0.0
H636 H 0.41319 0.48889 0.38378 0.0
C637 C 0.41534 0.54078 0.28393 0.0
C638 C 0.73851 0.16407 0.53379 0.0
C639 C 0.75267 0.16424 0.59421 0.0
H640 H 0.73878 0.16303 0.42383 0.0
C641 C 0.77866 0.16485 0.58931 0.0
H642 H 0.71848 0.16358 0.53613 0.0
C643 C 0.79029 0.16502 0.52514 0.0
C644 C 0.77616 0.16402 0.46475 0.0
H645 H 0.79007 0.16511 0.63507 0.0
H646 H 0.81033 0.16529 0.52285 0.0
C647 C 0.75017 0.16368 0.46961 0.0
C648 C 0.91223 0.53873 0.27527 0.0
C649 C 0.91311 0.52449 0.21515 0.0
H650 H 0.9103 0.53876 0.38501 0.0
C651 C 0.91403 0.49854 0.22065 0.0
H652 H 0.91147 0.55874 0.27251 0.0
C653 C 0.91397 0.48705 0.28526 0.0
C654 C 0.91229 0.50131 0.34532 0.0
H655 H 0.91483 0.4871 0.17504 0.0
H656 H 0.91458 0.46705 0.28815 0.0
C657 C 0.91148 0.52725 0.33967 0.0
C658 C 0.23997 0.16464 0.02192 0.0
C659 C 0.25431 0.16381 0.96187 0.0
H660 H 0.2399 0.16478 0.13195 0.0
C661 C 0.28028 0.16389 0.96731 0.0
H662 H 0.21994 0.16459 0.01914 0.0
C663 C 0.29173 0.16454 0.03175 0.0
C664 C 0.27739 0.16451 0.09184 0.0
H665 H 0.2918 0.16339 0.9218 0.0
H666 H 0.31176 0.16437 0.03456 0.0
C667 C 0.25142 0.16468 0.0864 0.0
C668 C 0.61963 0.50052 0.83524 0.0
C669 C 0.61955 0.52648 0.84039 0.0
H670 H 0.61889 0.46898 0.76841 0.0
C671 C 0.61825 0.54072 0.78021 0.0
H672 H 0.6205 0.48904 0.88082 0.0
C673 C 0.61783 0.52921 0.71589 0.0
C674 C 0.61811 0.50325 0.71074 0.0
H675 H 0.61817 0.56075 0.78273 0.0
H676 H 0.61732 0.54068 0.67023 0.0
C677 C 0.61861 0.489 0.77098 0.0
C678 C 0.28027 0.86712 0.58531 0.0
C679 C 0.2543 0.86731 0.59067 0.0
H680 H 0.31177 0.86701 0.51819 0.0
C681 C 0.23998 0.86714 0.53054 0.0
H682 H 0.29179 0.86713 0.63089 0.0
C683 C 0.25145 0.8676 0.46613 0.0
C684 C 0.27743 0.86764 0.46078 0.0
H685 H 0.21995 0.86732 0.53328 0.0
H686 H 0.23994 0.86797 0.42056 0.0
C687 C 0.29174 0.86698 0.5209 0.0
C688 C 0.618 0.99753 0.2219 0.0
C689 C 0.61912 0.02348 0.21657 0.0
H690 H 0.61683 0.966 0.2892 0.0
C691 C 0.61972 0.03768 0.27679 0.0
H692 H 0.61741 0.98611 0.17621 0.0
C693 C 0.62 0.02615 0.34116 0.0
C694 C 0.61899 1.00021 0.34664 0.0
H695 H 0.62063 0.05768 0.27416 0.0
H696 H 0.62099 0.03763 0.38661 0.0
C697 C 0.61759 0.986 0.28644 0.0
C698 C 0.24112 0.36734 0.52637 0.0
C699 C 0.25541 0.36776 0.46621 0.0
H700 H 0.24114 0.36757 0.63636 0.0
C701 C 0.28138 0.36739 0.47147 0.0
H702 H 0.22109 0.36764 0.52371 0.0
C703 C 0.29288 0.36683 0.53583 0.0
C704 C 0.27861 0.36723 0.596 0.0
H705 H 0.29287 0.36758 0.42588 0.0
H706 H 0.31292 0.36674 0.53848 0.0
C707 C 0.25263 0.36738 0.59075 0.0
C708 C 0.91387 1.00129 0.84006 0.0
C709 C 0.91385 0.02724 0.84554 0.0
H710 H 0.91358 0.96988 0.77274 0.0
C711 C 0.91396 0.0416 0.78546 0.0
H712 H 0.91392 0.98975 0.88561 0.0
C713 C 0.91323 0.03021 0.721 0.0
C714 C 0.913 1.00426 0.71551 0.0
H715 H 0.91391 0.06161 0.78828 0.0
H716 H 0.9128 0.04176 0.67551 0.0
C717 C 0.91376 0.98989 0.77556 0.0
C718 C 0.25052 0.66429 0.97042 0.0
C719 C 0.27649 0.66384 0.96499 0.0
H720 H 0.21905 0.66489 0.03764 0.0
C721 C 0.29083 0.66409 0.02508 0.0
H722 H 0.23899 0.66424 0.92489 0.0
C723 C 0.27939 0.66393 0.08955 0.0
C724 C 0.25341 0.66414 0.09496 0.0
H725 H 0.31086 0.66372 0.02229 0.0
H726 H 0.29091 0.66359 0.13511 0.0
C727 C 0.23909 0.66474 0.03487 0.0
C728 C 0.41556 0.9907 0.77967 0.0
C729 C 0.41499 1.0048 0.84009 0.0
H730 H 0.41543 0.99102 0.66972 0.0
C731 C 0.4152 0.03078 0.83528 0.0
H732 H 0.41538 0.97067 0.78194 0.0
C733 C 0.41573 0.04246 0.77114 0.0
C734 C 0.41548 0.02836 0.7107 0.0
H735 H 0.41489 0.04214 0.88106 0.0
H736 H 0.41569 0.06249 0.76886 0.0
C737 C 0.41551 1.00238 0.71551 0.0
C738 C 0.74159 0.66467 0.52502 0.0
C739 C 0.75579 0.66412 0.46472 0.0
H740 H 0.74175 0.66455 0.63501 0.0
C741 C 0.78178 0.66443 0.46977 0.0
H742 H 0.72155 0.66444 0.52258 0.0
C743 C 0.79337 0.665 0.53404 0.0
C744 C 0.77917 0.66469 0.59437 0.0
H745 H 0.79322 0.66415 0.42408 0.0
H746 H 0.81341 0.665 0.5365 0.0
C747 C 0.75319 0.66467 0.5893 0.0
C748 C 0.11695 0.04136 0.28283 0.0
C749 C 0.11675 0.02707 0.34301 0.0
H750 H 0.11841 0.04139 0.17293 0.0
C751 C 0.11656 1.00112 0.33778 0.0
H752 H 0.11716 0.06138 0.28547 0.0
C753 C 0.11677 0.98964 0.27341 0.0
C754 C 0.11778 1.00393 0.21327 0.0
H755 H 0.11629 0.98963 0.38342 0.0
H756 H 0.11677 0.96962 0.2708 0.0
C757 C 0.11776 0.02989 0.2185 0.0
C758 C 0.78155 0.36673 0.0847 0.0
C759 C 0.75558 0.3676 0.09012 0.0
H760 H 0.81304 0.36584 0.01728 0.0
C761 C 0.74129 0.36797 0.02995 0.0
H762 H 0.79303 0.36632 0.13036 0.0
C763 C 0.75276 0.3683 0.96554 0.0
C764 C 0.77872 0.36757 0.95997 0.0
H765 H 0.72127 0.36867 0.03265 0.0
H766 H 0.74122 0.36911 0.9201 0.0
C767 C 0.79302 0.36638 0.02012 0.0
C768 C 0.1357 0.54079 0.31297 0.0
C769 C 0.13458 0.519 0.35262 0.0
H770 H 0.13583 0.55654 0.21214 0.0
C771 C 0.13716 0.49602 0.32017 0.0
H772 H 0.13439 0.55885 0.33683 0.0
C773 C 0.13812 0.49475 0.2487 0.0
C774 C 0.13652 0.51645 0.20879 0.0
H775 H 0.13678 0.47896 0.34945 0.0
H776 H 0.13861 0.47666 0.22471 0.0
C777 C 0.1367 0.53952 0.24152 0.0
C778 C 0.786 0.88932 0.56837 0.0
C779 C 0.76297 0.88989 0.60142 0.0
H780 H 0.80508 0.88688 0.47267 0.0
C781 C 0.74135 0.89297 0.56203 0.0
H782 H 0.80299 0.88731 0.59747 0.0
C783 C 0.74242 0.89243 0.49046 0.0
C784 C 0.7652 0.88892 0.45742 0.0
H785 H 0.72346 0.89435 0.58659 0.0
H786 H 0.72529 0.89309 0.46152 0.0
C787 C 0.78711 0.88887 0.49682 0.0
C788 C 0.39186 0.49221 0.74076 0.0
C789 C 0.3924 0.51517 0.70729 0.0
H790 H 0.39371 0.47322 0.83685 0.0
C791 C 0.3907 0.53701 0.74643 0.0
H792 H 0.39276 0.4751 0.71195 0.0
C793 C 0.39141 0.536 0.81797 0.0
C794 C 0.39382 0.51313 0.85125 0.0
H795 H 0.39045 0.55501 0.72181 0.0
H796 H 0.39188 0.55316 0.84666 0.0
C797 C 0.39257 0.4912 0.81232 0.0
C798 C 0.78793 0.14317 0.06157 0.0
C799 C 0.76613 0.14429 0.10115 0.0
H800 H 0.80378 0.14439 0.96091 0.0
C801 C 0.74309 0.14295 0.06821 0.0
H802 H 0.80601 0.14353 0.08575 0.0
C803 C 0.74187 0.14334 -0.00329 0.0
C804 C 0.76366 0.14504 0.95724 0.0
H805 H 0.72601 0.14338 0.09736 0.0
H806 H 0.72379 0.14379 0.97257 0.0
C807 C 0.78671 0.14354 -0.00996 0.0
C808 C 0.88632 0.49266 0.74712 0.0
C809 C 0.88971 0.51414 0.70739 0.0
H810 H 0.88662 0.47663 0.84771 0.0
C811 C 0.89135 0.53713 0.74027 0.0
H812 H 0.88416 0.47482 0.72275 0.0
C813 C 0.89254 0.53823 0.81176 0.0
C814 C 0.89214 0.51636 0.8513 0.0
H815 H 0.89366 0.55403 0.71094 0.0
H816 H 0.89533 0.55612 0.83566 0.0
C817 C 0.88759 0.49372 0.81863 0.0
C818 C 0.24313 0.14085 0.55942 0.0
C819 C 0.26498 0.14228 0.59873 0.0
H820 H 0.22709 0.14178 0.45894 0.0
C821 C 0.28797 0.14104 0.56555 0.0
H822 H 0.22509 0.14112 0.58382 0.0
C823 C 0.28907 0.14129 0.49399 0.0
C824 C 0.2672 0.14277 0.45474 0.0
H825 H 0.30509 0.14171 0.59452 0.0
H826 H 0.30711 0.14189 0.46962 0.0
C827 C 0.24423 0.14109 0.48786 0.0
C828 C 0.63949 0.49238 0.23733 0.0
C829 C 0.63931 0.51536 0.20401 0.0
H830 H 0.63721 0.47334 0.33316 0.0
C831 C 0.64111 0.53717 0.24327 0.0
H832 H 0.63845 0.47529 0.20841 0.0
C833 C 0.64028 0.53611 0.31479 0.0
C834 C 0.63762 0.51323 0.34788 0.0
H835 H 0.6416 0.55518 0.21875 0.0
H836 H 0.64 0.55325 0.34361 0.0
C837 C 0.63862 0.49133 0.30882 0.0
C838 C 0.28785 0.8894 -0.01322 0.0
C839 C 0.26488 0.88816 0.95351 0.0
H840 H 0.30691 0.88879 0.0828 0.0
C841 C 0.243 0.88982 -0.00736 0.0
H842 H 0.30499 0.88855 0.95794 0.0
C843 C 0.24404 0.88984 0.0642 0.0
C844 C 0.26699 0.88818 0.09748 0.0
H845 H 0.22498 0.88955 0.96812 0.0
H846 H 0.22689 0.88934 0.09304 0.0
C847 C 0.28889 0.8894 0.05832 0.0
C848 C 0.64438 0.99089 0.74812 0.0
C849 C 0.64137 1.01245 0.70848 0.0
H850 H 0.64437 0.97493 0.84877 0.0
C851 C 0.64076 0.03549 0.74133 0.0
H852 H 0.64578 0.97298 0.72376 0.0
C853 C 0.64021 0.03667 0.81288 0.0
C854 C 0.64022 1.01482 0.85249 0.0
H855 H 0.63879 0.05245 0.71205 0.0
H856 H 0.63821 0.05465 0.83687 0.0
C857 C 0.64375 0.99202 0.81968 0.0
C858 C 0.28943 0.38879 0.06979 0.0
C859 C 0.26642 0.38817 0.10296 0.0
H860 H 0.30854 0.38733 0.97396 0.0
C861 C 0.2446 0.39004 0.06362 0.0
H862 H 0.30653 0.38775 0.09878 0.0
C863 C 0.24569 0.38968 -0.00792 0.0
C864 C 0.26862 0.38744 0.95901 0.0
H865 H 0.22656 0.39022 0.08803 0.0
H866 H 0.22855 0.38939 0.96314 0.0
C867 C 0.29052 0.38841 -0.00173 0.0
C868 C 0.89078 0.0383 0.31881 0.0
C869 C 0.89139 1.01536 0.35234 0.0
H870 H 0.89243 0.05724 0.22268 0.0
C871 C 0.88956 0.99349 0.31332 0.0
H872 H 0.89179 0.05543 0.34754 0.0
C873 C 0.89009 0.99447 0.24177 0.0
C874 C 0.89244 0.01732 0.20838 0.0
H875 H 0.88934 0.97551 0.33802 0.0
H876 H 0.89047 0.9773 0.21311 0.0
C877 C 0.89131 0.03927 0.24726 0.0
C878 C 0.24257 0.64151 0.56887 0.0
C879 C 0.26556 0.64258 0.60212 0.0
H880 H 0.22349 0.64235 0.47283 0.0
C881 C 0.28742 0.64081 0.56294 0.0
H882 H 0.22545 0.64244 0.59774 0.0
C883 C 0.28635 0.6409 0.49138 0.0
C884 C 0.26342 0.64277 0.45813 0.0
H885 H 0.30544 0.64094 0.58742 0.0
H886 H 0.30351 0.64134 0.46254 0.0
C887 C 0.24151 0.64161 0.4973 0.0
C888 C 0.39393 0.99376 0.24349 0.0
C889 C 0.39559 1.01546 0.20361 0.0
H890 H 0.39478 0.97802 0.34435 0.0
C891 C 0.395 0.03854 0.23626 0.0
H892 H 0.39374 0.97566 0.21954 0.0
C893 C 0.39553 0.03984 0.30773 0.0
C894 C 0.3966 0.01808 0.3475 0.0
H895 H 0.39589 0.05556 0.20687 0.0
H896 H 0.39656 0.05792 0.33158 0.0
C897 C 0.39442 0.99506 0.315 0.0
C898 C 0.74471 0.64233 0.06208 0.0
C899 C 0.76652 0.64394 0.10156 0.0
H900 H 0.72877 0.64303 0.96149 0.0
C901 C 0.78955 0.64287 0.06858 0.0
H902 H 0.72664 0.64246 0.08632 0.0
C903 C 0.79072 0.64306 -0.00295 0.0
C904 C 0.76888 0.64433 0.95762 0.0
H905 H 0.80664 0.64367 0.09768 0.0
H906 H 0.80878 0.64374 0.97283 0.0
C907 C 0.74588 0.64252 -0.00945 0.0
C908 C 0.13889 0.03782 0.81658 0.0
C909 C 0.13805 1.01485 0.84991 0.0
H910 H 0.13752 0.05689 0.7206 0.0
C911 C 0.13963 0.99301 0.81072 0.0
H912 H 0.13807 0.05493 0.84545 0.0
C913 C 0.1392 0.99408 0.73918 0.0
C914 C 0.13716 0.017 0.70596 0.0
H915 H 0.13964 0.975 0.83525 0.0
H916 H 0.13869 0.97694 0.71038 0.0
C917 C 0.13843 0.03888 0.74504 0.0
C918 C 0.78792 0.39364 0.55885 0.0
C919 C 0.76632 0.39044 0.59822 0.0
H920 H 0.80401 0.39379 0.4584 0.0
C921 C 0.7433 0.38975 0.5651 0.0
H922 H 0.80582 0.3951 0.58343 0.0
C923 C 0.7422 0.38926 0.49353 0.0
C924 C 0.76411 0.38941 0.45419 0.0
H925 H 0.72631 0.38766 0.59416 0.0
H926 H 0.72424 0.38718 0.46932 0.0
C927 C 0.78687 0.39306 0.48728 0.0
C928 C 0.17377 0.43796 0.13378 0.0
C929 C 0.15123 0.42906 0.10777 0.0
H930 H 0.20464 0.43198 0.1998 0.0
C931 C 0.14253 0.4059 0.1307 0.0
H932 H 0.18083 0.4559 0.1184 0.0
C933 C 0.15668 0.3917 0.17733 0.0
C934 C 0.17911 0.40101 0.20378 0.0
H935 H 0.12506 0.39872 0.11207 0.0
H936 H 0.15006 0.37364 0.19298 0.0
C937 C 0.18729 0.42435 0.18158 0.0
C938 C 0.85533 0.93581 0.43358 0.0
C939 C 0.87921 0.92819 0.45287 0.0
H940 H 0.82333 0.92915 0.37219 0.0
C941 C 0.88895 0.90648 0.42331 0.0
H942 H 0.84729 0.95258 0.4543 0.0
C943 C 0.87473 0.89254 0.37629 0.0
C944 C 0.85109 0.90077 0.35604 0.0
H945 H 0.9074 0.90029 0.43665 0.0
H946 H 0.88231 0.87564 0.35511 0.0
C947 C 0.84167 0.92254 0.38536 0.0
C948 C 0.38953 0.62542 0.63077 0.0
C949 C 0.38059 0.60251 0.60692 0.0
H950 H 0.38222 0.65754 0.69364 0.0
C951 C 0.35776 0.59387 0.6318 0.0
H952 H 0.40721 0.6324 0.61299 0.0
C953 C 0.34425 0.60749 0.67949 0.0
C954 C 0.35271 0.63059 0.70265 0.0
H955 H 0.35048 0.57612 0.61568 0.0
H956 H 0.32669 0.60007 0.69687 0.0
C957 C 0.37539 0.63966 0.67723 0.0
C958 C 0.65439 0.13849 0.88322 0.0
C959 C 0.67769 0.13052 0.85951 0.0
H960 H 0.6226 0.12994 0.94629 0.0
C961 C 0.6874 0.10827 0.88538 0.0
H962 H 0.64659 0.15572 0.86477 0.0
C963 C 0.6744 0.09432 0.93356 0.0
C964 C 0.65088 0.10173 0.9563 0.0
H965 H 0.70549 0.10176 0.86944 0.0
H966 H 0.68261 0.07719 0.95147 0.0
C967 C 0.64082 0.1239 0.93023 0.0
C968 C 0.18267 0.60829 0.3742 0.0
C969 C 0.17585 0.63245 0.35547 0.0
H970 H 0.17493 0.57638 0.43479 0.0
C971 C 0.15433 0.64274 0.38482 0.0
H972 H 0.19925 0.5998 0.35358 0.0
C973 C 0.13985 0.62883 0.43136 0.0
C974 C 0.14735 0.60493 0.45124 0.0
H975 H 0.14875 0.66141 0.37183 0.0
H976 H 0.12316 0.63686 0.45262 0.0
C977 C 0.16887 0.59493 0.42188 0.0
C978 C 0.65828 0.90241 0.58361 0.0
C979 C 0.64169 0.91987 0.61038 0.0
H980 H 0.68509 0.87424 0.60616 0.0
C981 C 0.63854 0.92134 0.6821 0.0
H982 H 0.6611 0.901 0.52858 0.0
C983 C 0.65347 0.90734 0.72648 0.0
C984 C 0.67064 0.89045 0.69972 0.0
H985 H 0.62575 0.93461 0.70395 0.0
H986 H 0.65213 0.91021 0.7815 0.0
C987 C 0.67204 0.88725 0.628 0.0
C988 C 0.34561 0.42 0.88898 0.0
C989 C 0.35514 0.3983 0.85958 0.0
H990 H 0.3512 0.45027 0.957 0.0
C991 C 0.37896 0.39035 0.87905 0.0
H992 H 0.32714 0.4264 0.87636 0.0
C993 C 0.39325 0.40458 0.92524 0.0
C994 C 0.38342 0.42628 0.95465 0.0
H995 H 0.38663 0.37352 0.85773 0.0
H996 H 0.41186 0.39865 0.9379 0.0
C997 C 0.35934 0.43354 0.93633 0.0
C998 C 0.87579 0.14084 0.17747 0.0
C999 C 0.85349 0.1313 0.20417 0.0
H1000 H 0.90746 0.13413 0.11212 0.0
C1001 C 0.84565 0.10778 0.18261 0.0
H1002 H 0.88217 0.15903 0.19264 0.0
C1003 C 0.85932 0.09427 0.13503 0.0
C1004 C 0.8817 0.10345 0.10858 0.0
H1005 H 0.82843 0.09993 0.20108 0.0
H1006 H 0.85249 0.07621 0.12008 0.0
C1007 C 0.89011 0.12674 0.13106 0.0
C1008 C 0.89101 0.62575 0.93291 0.0
C1009 C 0.88232 0.60228 0.95321 0.0
H1010 H 0.88383 0.65857 0.87257 0.0
C1011 C 0.86029 0.59334 0.92414 0.0
H1012 H 0.90812 0.63296 0.95389 0.0
C1013 C 0.84721 0.60727 0.87609 0.0
C1014 C 0.8553 0.63097 0.85667 0.0
H1015 H 0.85332 0.57514 0.93734 0.0
H1016 H 0.83024 0.59957 0.85554 0.0
C1017 C 0.87727 0.64026 0.88602 0.0
C1018 C 0.17064 0.0936 0.63431 0.0
C1019 C 0.14875 0.10322 0.60595 0.0
H1020 H 0.20125 0.09892 0.70156 0.0
C1021 C 0.1409 0.12694 0.62634 0.0
H1022 H 0.17699 0.0752 0.62098 0.0
C1023 C 0.15535 0.14103 0.67248 0.0
C1024 C 0.17719 0.13109 0.70097 0.0
H1025 H 0.12394 0.13468 0.60585 0.0
H1026 H 0.14946 0.15955 0.68596 0.0
C1027 C 0.1844 0.10712 0.68163 0.0
C1028 C 0.68412 0.42428 0.36706 0.0
C1029 C 0.67736 0.40005 0.349 0.0
H1030 H 0.6765 0.45621 0.42755 0.0
C1031 C 0.65599 0.38972 0.37919 0.0
H1032 H 0.70057 0.43282 0.34576 0.0
C1033 C 0.64164 0.40361 0.42602 0.0
C1034 C 0.64914 0.42755 0.44538 0.0
H1035 H 0.65044 0.371 0.36677 0.0
H1036 H 0.62509 0.39551 0.448 0.0
C1037 C 0.67048 0.43762 0.41506 0.0
C1038 C 0.3578 0.93546 0.12123 0.0
C1039 C 0.3815 0.92777 0.10072 0.0
H1040 H 0.32603 0.92859 0.18321 0.0
C1041 C 0.39113 0.90567 0.12845 0.0
H1042 H 0.34986 0.95251 0.1019 0.0
C1043 C 0.37698 0.89144 0.17501 0.0
C1044 C 0.35353 0.89975 0.19658 0.0
H1045 H 0.40946 0.89941 0.11407 0.0
H1046 H 0.38446 0.87427 0.19488 0.0
C1047 C 0.34423 0.92188 0.16897 0.0
C1048 C 0.87581 0.40874 0.72452 0.0
C1049 C 0.85878 0.39181 0.69722 0.0
H1050 H 0.90357 0.43608 0.70288 0.0
C1051 C 0.85761 0.38867 0.62544 0.0
H1052 H 0.87697 0.41157 0.77959 0.0
C1053 C 0.87153 0.40386 0.5815 0.0
C1054 C 0.88802 0.42131 0.60881 0.0
H1055 H 0.84465 0.37565 0.60318 0.0
H1056 H 0.86893 0.40244 0.52639 0.0
C1057 C 0.89088 0.4228 0.68063 0.0
C1058 C 0.36248 0.09407 0.41479 0.0
C1059 C 0.38357 0.10427 0.446 0.0
H1060 H 0.33242 0.09895 0.34538 0.0
C1061 C 0.39073 0.12847 0.42809 0.0
H1062 H 0.35675 0.07529 0.42618 0.0
C1063 C 0.37624 0.1425 0.38185 0.0
C1064 C 0.35508 0.13207 0.35087 0.0
H1065 H 0.4071 0.13665 0.45082 0.0
H1066 H 0.38151 0.1614 0.37054 0.0
C1067 C 0.34869 0.10758 0.3674 0.0
C1068 C 0.67457 0.59373 0.1311 0.0
C1069 C 0.65202 0.60257 0.10485 0.0
H1070 H 0.70525 0.5997 0.19781 0.0
C1071 C 0.64312 0.62557 0.12815 0.0
H1072 H 0.68178 0.57589 0.11547 0.0
C1073 C 0.65708 0.63971 0.17531 0.0
C1074 C 0.67952 0.63048 0.20196 0.0
H1075 H 0.62564 0.6327 0.10937 0.0
H1076 H 0.6503 0.65767 0.19117 0.0
C1077 C 0.68789 0.60727 0.17945 0.0
C1078 C 0.18599 0.92332 0.8748 0.0
C1079 C 0.17784 0.89995 0.85284 0.0
H1080 H 0.17959 0.95481 0.93803 0.0
C1081 C 0.1555 0.89057 0.87968 0.0
H1082 H 0.20327 0.93101 0.85628 0.0
C1083 C 0.14141 0.90471 0.92651 0.0
C1084 C 0.1501 0.92786 0.94927 0.0
H1085 H 0.1489 0.87249 0.86423 0.0
H1086 H 0.12401 0.89746 0.9455 0.0
C1087 C 0.17255 0.93685 0.92281 0.0
loop_
_geom_bond_atom_site_label_1
_geom_bond_atom_site_label_2
_geom_bond_distance
_geom_bond_site_symmetry_2
_ccdc_geom_bond_type
Co0 O1 2.216 . S
Co0 O2 2.091 . S
Co0 O4 2.004 . S
Co0 O10 2.021 . S
Co0 O12 2.137 1_554 S
Co0 O13 2.244 1_554 S
O1 Co0 2.216 . S
O1 C8 1.247 . S
O2 Co0 2.091 . S
O2 C8 1.261 . S
C3 O12 1.247 . S
C3 O13 1.272 . S
O4 Co0 2.004 . S
O4 C9 1.259 . S
Co5 O6 2.061 . S
Co5 O11 2.052 . S
Co5 O13 2.135 1_554 S
O6 Co5 2.061 . S
O6 C9 1.235 . S
C7 O10 1.238 . S
C7 O11 1.241 . S
C8 O1 1.247 . S
C8 O2 1.261 . S
C9 O4 1.259 . S
C9 O6 1.235 . S
O10 Co0 2.021 . S
O10 C7 1.238 . S
O11 Co5 2.052 . S
O11 C7 1.241 . S
O12 Co0 2.137 1_556 S
O12 C3 1.247 . S
O13 Co0 2.244 1_556 S
O13 C3 1.272 . S
O13 Co5 2.135 1_556 S
Co14 O15 2.216 . S
Co14 O16 2.091 . S
Co14 O18 2.004 . S
Co14 O24 2.021 . S
Co14 O26 2.137 . S
Co14 O27 2.244 . S
O15 Co14 2.216 . S
O15 C22 1.247 . S
O16 Co14 2.091 . S
O16 C22 1.261 . S
C17 O26 1.247 . S
C17 O27 1.272 . S
O18 Co14 2.004 . S
O18 C23 1.259 . S
Co19 O20 2.061 . S
Co19 O25 2.052 . S
Co19 O27 2.135 . S
O20 Co19 2.061 . S
O20 C23 1.235 . S
C21 O24 1.238 . S
C21 O25 1.241 . S
C22 O15 1.247 . S
C22 O16 1.261 . S
C23 O18 1.259 . S
C23 O20 1.235 . S
O24 Co14 2.021 . S
O24 C21 1.238 . S
O25 Co19 2.052 . S
O25 C21 1.241 . S
O26 Co14 2.137 . S
O26 C17 1.247 . S
O27 Co14 2.244 . S
O27 C17 1.272 . S
O27 Co19 2.135 . S
Co28 O29 2.216 . S
Co28 O30 2.091 . S
Co28 O32 2.004 . S
Co28 O38 2.021 . S
Co28 O40 2.137 . S
Co28 O41 2.244 . S
O29 Co28 2.216 . S
O29 C36 1.247 . S
O30 Co28 2.091 . S
O30 C36 1.261 . S
C31 O40 1.247 . S
C31 O41 1.272 . S
O32 Co28 2.004 . S
O32 C37 1.259 . S
Co33 O34 2.061 . S
Co33 O39 2.052 . S
Co33 O41 2.135 . S
O34 Co33 2.061 . S
O34 C37 1.235 . S
C35 O38 1.238 . S
C35 O39 1.241 . S
C36 O29 1.247 . S
C36 O30 1.261 . S
C37 O32 1.259 . S
C37 O34 1.235 . S
O38 Co28 2.021 . S
O38 C35 1.238 . S
O39 Co33 2.052 . S
O39 C35 1.241 . S
O40 Co28 2.137 . S
O40 C31 1.247 . S
O41 Co28 2.244 . S
O41 C31 1.272 . S
O41 Co33 2.135 . S
Co42 O43 2.216 . S
Co42 O44 2.091 . S
Co42 O46 2.004 . S
Co42 O52 2.021 . S
Co42 O54 2.137 . S
Co42 O55 2.244 . S
O43 Co42 2.216 . S
O43 C50 1.247 . S
O44 Co42 2.091 . S
O44 C50 1.261 . S
C45 O54 1.247 . S
C45 O55 1.272 . S
O46 Co42 2.004 . S
O46 C51 1.259 . S
Co47 O48 2.061 . S
Co47 O53 2.052 . S
Co47 O55 2.135 . S
O48 Co47 2.061 . S
O48 C51 1.235 . S
C49 O52 1.238 . S
C49 O53 1.241 . S
C50 O43 1.247 . S
C50 O44 1.261 . S
C51 O46 1.259 . S
C51 O48 1.235 . S
O52 Co42 2.021 . S
O52 C49 1.238 . S
O53 Co47 2.052 . S
O53 C49 1.241 . S
O54 Co42 2.137 . S
O54 C45 1.247 . S
O55 Co42 2.244 . S
O55 C45 1.272 . S
O55 Co47 2.135 . S
Co56 O57 2.216 . S
Co56 O58 2.091 . S
Co56 O60 2.004 . S
Co56 O66 2.021 . S
Co56 O68 2.137 . S
Co56 O69 2.244 . S
O57 Co56 2.216 . S
O57 C64 1.247 . S
O58 Co56 2.091 . S
O58 C64 1.261 . S
C59 O68 1.247 . S
C59 O69 1.272 . S
O60 Co56 2.004 . S
O60 C65 1.259 . S
Co61 O62 2.061 . S
Co61 O67 2.052 . S
Co61 O69 2.135 . S
O62 Co61 2.061 . S
O62 C65 1.235 . S
C63 O66 1.238 . S
C63 O67 1.241 . S
C64 O57 1.247 . S
C64 O58 1.261 . S
C65 O60 1.259 . S
C65 O62 1.235 . S
O66 Co56 2.021 . S
O66 C63 1.238 . S
O67 Co61 2.052 . S
O67 C63 1.241 . S
O68 Co56 2.137 . S
O68 C59 1.247 . S
O69 Co56 2.244 . S
O69 C59 1.272 . S
O69 Co61 2.135 . S
Co70 O71 2.216 . S
Co70 O72 2.091 . S
Co70 O74 2.004 . S
Co70 O80 2.021 . S
Co70 O82 2.137 . S
Co70 O83 2.244 . S
O71 Co70 2.216 . S
O71 C78 1.247 . S
O72 Co70 2.091 . S
O72 C78 1.261 . S
C73 O82 1.247 . S
C73 O83 1.272 . S
O74 Co70 2.004 . S
O74 C79 1.259 . S
Co75 O76 2.061 . S
Co75 O81 2.052 . S
Co75 O83 2.135 . S
O76 Co75 2.061 . S
O76 C79 1.235 . S
C77 O80 1.238 . S
C77 O81 1.241 . S
C78 O71 1.247 . S
C78 O72 1.261 . S
C79 O74 1.259 . S
C79 O76 1.235 . S
O80 Co70 2.021 . S
O80 C77 1.238 . S
O81 Co75 2.052 . S
O81 C77 1.241 . S
O82 Co70 2.137 . S
O82 C73 1.247 . S
O83 Co70 2.244 . S
O83 C73 1.272 . S
O83 Co75 2.135 . S
Co84 O85 2.216 . S
Co84 O86 2.091 . S
Co84 O88 2.004 . S
Co84 O94 2.021 1_554 S
Co84 O96 2.137 . S
Co84 O97 2.244 . S
O85 Co84 2.216 . S
O85 C92 1.247 . S
O86 Co84 2.091 . S
O86 C92 1.261 . S
C87 O96 1.247 . S
C87 O97 1.272 . S
O88 Co84 2.004 . S
O88 C93 1.259 . S
Co89 O90 2.061 . S
Co89 O95 2.052 1_554 S
Co89 O97 2.135 . S
O90 Co89 2.061 . S
O90 C93 1.235 . S
C91 O94 1.238 . S
C91 O95 1.241 . S
C92 O85 1.247 . S
C92 O86 1.261 . S
C93 O88 1.259 . S
C93 O90 1.235 . S
O94 Co84 2.021 1_556 S
O94 C91 1.238 . S
O95 Co89 2.052 1_556 S
O95 C91 1.241 . S
O96 Co84 2.137 . S
O96 C87 1.247 . S
O97 Co84 2.244 . S
O97 C87 1.272 . S
O97 Co89 2.135 . S
Co98 O99 2.216 . S
Co98 O100 2.091 . S
Co98 O102 2.004 . S
Co98 O108 2.021 . S
Co98 O110 2.137 . S
Co98 O111 2.244 . S
O99 Co98 2.216 . S
O99 C106 1.247 . S
O100 Co98 2.091 . S
O100 C106 1.261 . S
C101 O110 1.247 . S
C101 O111 1.272 . S
O102 Co98 2.004 . S
O102 C107 1.259 . S
Co103 O104 2.061 . S
Co103 O109 2.052 . S
Co103 O111 2.135 . S
O104 Co103 2.061 . S
O104 C107 1.235 . S
C105 O108 1.238 . S
C105 O109 1.241 . S
C106 O99 1.247 . S
C106 O100 1.261 . S
C107 O102 1.259 . S
C107 O104 1.235 . S
O108 Co98 2.021 . S
O108 C105 1.238 . S
O109 Co103 2.052 . S
O109 C105 1.241 . S
O110 Co98 2.137 . S
O110 C101 1.247 . S
O111 Co98 2.244 . S
O111 C101 1.272 . S
O111 Co103 2.135 . S
Co112 O113 2.216 . S
Co112 O114 2.091 . S
Co112 O116 2.004 . S
Co112 O122 2.021 1_554 S
Co112 O124 2.137 . S
Co112 O125 2.244 . S
O113 Co112 2.216 . S
O113 C120 1.247 . S
O114 Co112 2.091 . S
O114 C120 1.261 . S
C115 O124 1.247 . S
C115 O125 1.272 . S
O116 Co112 2.004 . S
O116 C121 1.259 . S
Co117 O118 2.061 . S
Co117 O123 2.052 1_554 S
Co117 O125 2.135 . S
O118 Co117 2.061 . S
O118 C121 1.235 . S
C119 O122 1.238 . S
C119 O123 1.241 . S
C120 O113 1.247 . S
C120 O114 1.261 . S
C121 O116 1.259 . S
C121 O118 1.235 . S
O122 Co112 2.021 1_556 S
O122 C119 1.238 . S
O123 Co117 2.052 1_556 S
O123 C119 1.241 . S
O124 Co112 2.137 . S
O124 C115 1.247 . S
O125 Co112 2.244 . S
O125 C115 1.272 . S
O125 Co117 2.135 . S
Co126 O127 2.216 . S
Co126 O128 2.091 . S
Co126 O130 2.004 . S
Co126 O136 2.021 . S
Co126 O138 2.137 . S
Co126 O139 2.244 . S
O127 Co126 2.216 . S
O127 C134 1.247 . S
O128 Co126 2.091 . S
O128 C134 1.261 . S
C129 O138 1.247 . S
C129 O139 1.272 . S
O130 Co126 2.004 . S
O130 C135 1.259 . S
Co131 O132 2.061 . S
Co131 O137 2.052 . S
Co131 O139 2.135 . S
O132 Co131 2.061 . S
O132 C135 1.235 . S
C133 O136 1.238 . S
C133 O137 1.241 . S
C134 O127 1.247 . S
C134 O128 1.261 . S
C135 O130 1.259 . S
C135 O132 1.235 . S
O136 Co126 2.021 . S
O136 C133 1.238 . S
O137 Co131 2.052 . S
O137 C133 1.241 . S
O138 Co126 2.137 . S
O138 C129 1.247 . S
O139 Co126 2.244 . S
O139 C129 1.272 . S
O139 Co131 2.135 . S
Co140 O141 2.216 . S
Co140 O142 2.091 . S
Co140 O144 2.004 . S
Co140 O150 2.021 . S
Co140 O152 2.137 . S
Co140 O153 2.244 . S
O141 Co140 2.216 . S
O141 C148 1.247 . S
O142 Co140 2.091 . S
O142 C148 1.261 . S
C143 O152 1.247 . S
C143 O153 1.272 . S
O144 Co140 2.004 . S
O144 C149 1.259 . S
Co145 O146 2.061 . S
Co145 O151 2.052 . S
Co145 O153 2.135 . S
O146 Co145 2.061 . S
O146 C149 1.235 . S
C147 O150 1.238 . S
C147 O151 1.241 . S
C148 O141 1.247 . S
C148 O142 1.261 . S
C149 O144 1.259 . S
C149 O146 1.235 . S
O150 Co140 2.021 . S
O150 C147 1.238 . S
O151 Co145 2.052 . S
O151 C147 1.241 . S
O152 Co140 2.137 . S
O152 C143 1.247 . S
O153 Co140 2.244 . S
O153 C143 1.272 . S
O153 Co145 2.135 . S
Co154 O155 2.216 . S
Co154 O156 2.091 . S
Co154 O158 2.004 . S
Co154 O164 2.021 . S
Co154 O166 2.137 . S
Co154 O167 2.244 . S
O155 Co154 2.216 . S
O155 C162 1.247 . S
O156 Co154 2.091 . S
O156 C162 1.261 . S
C157 O166 1.247 . S
C157 O167 1.272 . S
O158 Co154 2.004 . S
O158 C163 1.259 . S
Co159 O160 2.061 . S
Co159 O165 2.052 . S
Co159 O167 2.135 . S
O160 Co159 2.061 . S
O160 C163 1.235 . S
C161 O164 1.238 . S
C161 O165 1.241 . S
C162 O155 1.247 . S
C162 O156 1.261 . S
C163 O158 1.259 . S
C163 O160 1.235 . S
O164 Co154 2.021 . S
O164 C161 1.238 . S
O165 Co159 2.052 . S
O165 C161 1.241 . S
O166 Co154 2.137 . S
O166 C157 1.247 . S
O167 Co154 2.244 . S
O167 C157 1.272 . S
O167 Co159 2.135 . S
Co168 O169 2.216 . S
Co168 O170 2.091 . S
Co168 O172 2.004 . S
Co168 O178 2.021 . S
Co168 O180 2.137 . S
Co168 O181 2.244 . S
O169 Co168 2.216 . S
O169 C176 1.247 . S
O170 Co168 2.091 . S
O170 C176 1.261 . S
C171 O180 1.247 . S
C171 O181 1.272 . S
O172 Co168 2.004 . S
O172 C177 1.259 . S
Co173 O174 2.061 . S
Co173 O179 2.052 . S
Co173 O181 2.135 . S
O174 Co173 2.061 . S
O174 C177 1.235 . S
C175 O178 1.238 . S
C175 O179 1.241 . S
C176 O169 1.247 . S
C176 O170 1.261 . S
C177 O172 1.259 . S
C177 O174 1.235 . S
O178 Co168 2.021 . S
O178 C175 1.238 . S
O179 Co173 2.052 . S
O179 C175 1.241 . S
O180 Co168 2.137 . S
O180 C171 1.247 . S
O181 Co168 2.244 . S
O181 C171 1.272 . S
O181 Co173 2.135 . S
Co182 O183 2.216 . S
Co182 O184 2.091 . S
Co182 O186 2.004 . S
Co182 O192 2.021 . S
Co182 O194 2.137 . S
Co182 O195 2.244 . S
O183 Co182 2.216 . S
O183 C190 1.247 . S
O184 Co182 2.091 . S
O184 C190 1.261 . S
C185 O194 1.247 . S
C185 O195 1.272 . S
O186 Co182 2.004 . S
O186 C191 1.259 . S
Co187 O188 2.061 . S
Co187 O193 2.052 . S
Co187 O195 2.135 . S
O188 Co187 2.061 . S
O188 C191 1.235 . S
C189 O192 1.238 . S
C189 O193 1.241 . S
C190 O183 1.247 . S
C190 O184 1.261 . S
C191 O186 1.259 . S
C191 O188 1.235 . S
O192 Co182 2.021 . S
O192 C189 1.238 . S
O193 Co187 2.052 . S
O193 C189 1.241 . S
O194 Co182 2.137 . S
O194 C185 1.247 . S
O195 Co182 2.244 . S
O195 C185 1.272 . S
O195 Co187 2.135 . S
Co196 O197 2.216 . S
Co196 O198 2.091 . S
Co196 O200 2.004 . S
Co196 O206 2.021 . S
Co196 O208 2.137 1_554 S
Co196 O209 2.244 1_554 S
O197 Co196 2.216 . S
O197 C204 1.247 . S
O198 Co196 2.091 . S
O198 C204 1.261 . S
C199 O208 1.247 . S
C199 O209 1.272 . S
O200 Co196 2.004 . S
O200 C205 1.259 . S
Co201 O202 2.061 . S
Co201 O207 2.052 . S
Co201 O209 2.135 1_554 S
O202 Co201 2.061 . S
O202 C205 1.235 . S
C203 O206 1.238 . S
C203 O207 1.241 . S
C204 O197 1.247 . S
C204 O198 1.261 . S
C205 O200 1.259 . S
C205 O202 1.235 . S
O206 Co196 2.021 . S
O206 C203 1.238 . S
O207 Co201 2.052 . S
O207 C203 1.241 . S
O208 Co196 2.137 1_556 S
O208 C199 1.247 . S
O209 Co196 2.244 1_556 S
O209 C199 1.272 . S
O209 Co201 2.135 1_556 S
Co210 O211 2.216 . S
Co210 O212 2.091 . S
Co210 O214 2.004 . S
Co210 O220 2.021 . S
Co210 O222 2.137 . S
Co210 O223 2.244 . S
O211 Co210 2.216 . S
O211 C218 1.247 . S
O212 Co210 2.091 . S
O212 C218 1.261 . S
C213 O222 1.247 . S
C213 O223 1.272 . S
O214 Co210 2.004 . S
O214 C219 1.259 . S
Co215 O216 2.061 . S
Co215 O221 2.052 . S
Co215 O223 2.135 . S
O216 Co215 2.061 . S
O216 C219 1.235 . S
C217 O220 1.238 . S
C217 O221 1.241 . S
C218 O211 1.247 . S
C218 O212 1.261 . S
C219 O214 1.259 . S
C219 O216 1.235 . S
O220 Co210 2.021 . S
O220 C217 1.238 . S
O221 Co215 2.052 . S
O221 C217 1.241 . S
O222 Co210 2.137 . S
O222 C213 1.247 . S
O223 Co210 2.244 . S
O223 C213 1.272 . S
O223 Co215 2.135 . S
Co224 O225 2.216 . S
Co224 O226 2.091 . S
Co224 O228 2.004 . S
Co224 O234 2.021 . S
Co224 O236 2.137 . S
Co224 O237 2.244 1_565 S
O225 Co224 2.216 . S
O225 C232 1.247 . S
O226 Co224 2.091 . S
O226 C232 1.261 . S
C227 O236 1.247 . S
C227 O237 1.272 1_565 S
O228 Co224 2.004 . S
O228 C233 1.259 . S
Co229 O230 2.061 . S
Co229 O235 2.052 . S
Co229 O237 2.135 . S
O230 Co229 2.061 . S
O230 C233 1.235 1_545 S
C231 O234 1.238 1_545 S
C231 O235 1.241 . S
C232 O225 1.247 . S
C232 O226 1.261 . S
C233 O228 1.259 . S
C233 O230 1.235 1_565 S
O234 Co224 2.021 . S
O234 C231 1.238 1_565 S
O235 Co229 2.052 . S
O235 C231 1.241 . S
O236 Co224 2.137 . S
O236 C227 1.247 . S
O237 Co224 2.244 1_545 S
O237 C227 1.272 1_545 S
O237 Co229 2.135 . S
Co238 O239 2.216 . S
Co238 O240 2.091 . S
Co238 O242 2.004 . S
Co238 O248 2.021 . S
Co238 O250 2.137 . S
Co238 O251 2.244 . S
O239 Co238 2.216 . S
O239 C246 1.247 . S
O240 Co238 2.091 . S
O240 C246 1.261 . S
C241 O250 1.247 . S
C241 O251 1.272 . S
O242 Co238 2.004 . S
O242 C247 1.259 . S
Co243 O244 2.061 . S
Co243 O249 2.052 . S
Co243 O251 2.135 . S
O244 Co243 2.061 . S
O244 C247 1.235 . S
C245 O248 1.238 . S
C245 O249 1.241 . S
C246 O239 1.247 . S
C246 O240 1.261 . S
C247 O242 1.259 . S
C247 O244 1.235 . S
O248 Co238 2.021 . S
O248 C245 1.238 . S
O249 Co243 2.052 . S
O249 C245 1.241 . S
O250 Co238 2.137 . S
O250 C241 1.247 . S
O251 Co238 2.244 . S
O251 C241 1.272 . S
O251 Co243 2.135 . S
Co252 O253 2.216 . S
Co252 O254 2.091 . S
Co252 O256 2.004 . S
Co252 O262 2.021 . S
Co252 O264 2.137 1_554 S
Co252 O265 2.244 1_544 S
O253 Co252 2.216 . S
O253 C260 1.247 . S
O254 Co252 2.091 . S
O254 C260 1.261 . S
C255 O264 1.247 . S
C255 O265 1.272 1_545 S
O256 Co252 2.004 . S
O256 C261 1.259 . S
Co257 O258 2.061 . S
Co257 O263 2.052 . S
Co257 O265 2.135 1_554 S
O258 Co257 2.061 . S
O258 C261 1.235 1_565 S
C259 O262 1.238 1_565 S
C259 O263 1.241 . S
C260 O253 1.247 . S
C260 O254 1.261 . S
C261 O256 1.259 . S
C261 O258 1.235 1_545 S
O262 Co252 2.021 . S
O262 C259 1.238 1_545 S
O263 Co257 2.052 . S
O263 C259 1.241 . S
O264 Co252 2.137 1_556 S
O264 C255 1.247 . S
O265 Co252 2.244 1_566 S
O265 C255 1.272 1_565 S
O265 Co257 2.135 1_556 S
Co266 O267 2.216 . S
Co266 O268 2.091 . S
Co266 O270 2.004 . S
Co266 O276 2.021 . S
Co266 O278 2.137 . S
Co266 O279 2.244 . S
O267 Co266 2.216 . S
O267 C274 1.247 . S
O268 Co266 2.091 . S
O268 C274 1.261 . S
C269 O278 1.247 . S
C269 O279 1.272 . S
O270 Co266 2.004 . S
O270 C275 1.259 . S
Co271 O272 2.061 . S
Co271 O277 2.052 . S
Co271 O279 2.135 . S
O272 Co271 2.061 . S
O272 C275 1.235 . S
C273 O276 1.238 . S
C273 O277 1.241 . S
C274 O267 1.247 . S
C274 O268 1.261 . S
C275 O270 1.259 . S
C275 O272 1.235 . S
O276 Co266 2.021 . S
O276 C273 1.238 . S
O277 Co271 2.052 . S
O277 C273 1.241 . S
O278 Co266 2.137 . S
O278 C269 1.247 . S
O279 Co266 2.244 . S
O279 C269 1.272 . S
O279 Co271 2.135 . S
Co280 O281 2.216 . S
Co280 O282 2.091 . S
Co280 O284 2.004 . S
Co280 O290 2.021 1_554 S
Co280 O292 2.137 . S
Co280 O293 2.244 1_545 S
O281 Co280 2.216 . S
O281 C288 1.247 . S
O282 Co280 2.091 . S
O282 C288 1.261 . S
C283 O292 1.247 . S
C283 O293 1.272 1_545 S
O284 Co280 2.004 . S
O284 C289 1.259 . S
Co285 O286 2.061 . S
Co285 O291 2.052 1_554 S
Co285 O293 2.135 . S
O286 Co285 2.061 . S
O286 C289 1.235 1_565 S
C287 O290 1.238 1_565 S
C287 O291 1.241 . S
C288 O281 1.247 . S
C288 O282 1.261 . S
C289 O284 1.259 . S
C289 O286 1.235 1_545 S
O290 Co280 2.021 1_556 S
O290 C287 1.238 1_545 S
O291 Co285 2.052 1_556 S
O291 C287 1.241 . S
O292 Co280 2.137 . S
O292 C283 1.247 . S
O293 Co280 2.244 1_565 S
O293 C283 1.272 1_565 S
O293 Co285 2.135 . S
Co294 O295 2.216 . S
Co294 O296 2.091 . S
Co294 O298 2.004 . S
Co294 O304 2.021 . S
Co294 O306 2.137 . S
Co294 O307 2.244 . S
O295 Co294 2.216 . S
O295 C302 1.247 . S
O296 Co294 2.091 . S
O296 C302 1.261 . S
C297 O306 1.247 . S
C297 O307 1.272 . S
O298 Co294 2.004 . S
O298 C303 1.259 . S
Co299 O300 2.061 . S
Co299 O305 2.052 . S
Co299 O307 2.135 . S
O300 Co299 2.061 . S
O300 C303 1.235 . S
C301 O304 1.238 . S
C301 O305 1.241 . S
C302 O295 1.247 . S
C302 O296 1.261 . S
C303 O298 1.259 . S
C303 O300 1.235 . S
O304 Co294 2.021 . S
O304 C301 1.238 . S
O305 Co299 2.052 . S
O305 C301 1.241 . S
O306 Co294 2.137 . S
O306 C297 1.247 . S
O307 Co294 2.244 . S
O307 C297 1.272 . S
O307 Co299 2.135 . S
Co308 O309 2.216 . S
Co308 O310 2.091 . S
Co308 O312 2.004 . S
Co308 O318 2.021 . S
Co308 O320 2.137 . S
Co308 O321 2.244 1_565 S
O309 Co308 2.216 . S
O309 C316 1.247 . S
O310 Co308 2.091 . S
O310 C316 1.261 . S
C311 O320 1.247 . S
C311 O321 1.272 1_565 S
O312 Co308 2.004 . S
O312 C317 1.259 . S
Co313 O314 2.061 . S
Co313 O319 2.052 . S
Co313 O321 2.135 . S
O314 Co313 2.061 . S
O314 C317 1.235 1_545 S
C315 O318 1.238 1_545 S
C315 O319 1.241 . S
C316 O309 1.247 . S
C316 O310 1.261 . S
C317 O312 1.259 . S
C317 O314 1.235 1_565 S
O318 Co308 2.021 . S
O318 C315 1.238 1_565 S
O319 Co313 2.052 . S
O319 C315 1.241 . S
O320 Co308 2.137 . S
O320 C311 1.247 . S
O321 Co308 2.244 1_545 S
O321 C311 1.272 1_545 S
O321 Co313 2.135 . S
Co322 O323 2.216 . S
Co322 O324 2.091 . S
Co322 O326 2.004 . S
Co322 O332 2.021 . S
Co322 O334 2.137 . S
Co322 O335 2.244 . S
O323 Co322 2.216 . S
O323 C330 1.247 . S
O324 Co322 2.091 . S
O324 C330 1.261 . S
C325 O334 1.247 . S
C325 O335 1.272 . S
O326 Co322 2.004 . S
O326 C331 1.259 . S
Co327 O328 2.061 . S
Co327 O333 2.052 . S
Co327 O335 2.135 . S
O328 Co327 2.061 . S
O328 C331 1.235 . S
C329 O332 1.238 . S
C329 O333 1.241 . S
C330 O323 1.247 . S
C330 O324 1.261 . S
C331 O326 1.259 . S
C331 O328 1.235 . S
O332 Co322 2.021 . S
O332 C329 1.238 . S
O333 Co327 2.052 . S
O333 C329 1.241 . S
O334 Co322 2.137 . S
O334 C325 1.247 . S
O335 Co322 2.244 . S
O335 C325 1.272 . S
O335 Co327 2.135 . S
Co336 O337 2.216 . S
Co336 O338 2.091 . S
Co336 O340 2.004 . S
Co336 O346 2.021 . S
Co336 O348 2.137 . S
Co336 O349 2.244 1_545 S
O337 Co336 2.216 . S
O337 C344 1.247 . S
O338 Co336 2.091 . S
O338 C344 1.261 . S
C339 O348 1.247 . S
C339 O349 1.272 1_545 S
O340 Co336 2.004 . S
O340 C345 1.259 . S
Co341 O342 2.061 . S
Co341 O347 2.052 . S
Co341 O349 2.135 . S
O342 Co341 2.061 . S
O342 C345 1.235 1_565 S
C343 O346 1.238 1_565 S
C343 O347 1.241 . S
C344 O337 1.247 . S
C344 O338 1.261 . S
C345 O340 1.259 . S
C345 O342 1.235 1_545 S
O346 Co336 2.021 . S
O346 C343 1.238 1_545 S
O347 Co341 2.052 . S
O347 C343 1.241 . S
O348 Co336 2.137 . S
O348 C339 1.247 . S
O349 Co336 2.244 1_565 S
O349 C339 1.272 1_565 S
O349 Co341 2.135 . S
Co350 O351 2.216 . S
Co350 O352 2.091 . S
Co350 O354 2.004 . S
Co350 O360 2.021 . S
Co350 O362 2.137 . S
Co350 O363 2.244 . S
O351 Co350 2.216 . S
O351 C358 1.247 . S
O352 Co350 2.091 . S
O352 C358 1.261 . S
C353 O362 1.247 . S
C353 O363 1.272 . S
O354 Co350 2.004 . S
O354 C359 1.259 . S
Co355 O356 2.061 . S
Co355 O361 2.052 . S
Co355 O363 2.135 . S
O356 Co355 2.061 . S
O356 C359 1.235 . S
C357 O360 1.238 . S
C357 O361 1.241 . S
C358 O351 1.247 . S
C358 O352 1.261 . S
C359 O354 1.259 . S
C359 O356 1.235 . S
O360 Co350 2.021 . S
O360 C357 1.238 . S
O361 Co355 2.052 . S
O361 C357 1.241 . S
O362 Co350 2.137 . S
O362 C353 1.247 . S
O363 Co350 2.244 . S
O363 C353 1.272 . S
O363 Co355 2.135 . S
Co364 O365 2.216 . S
Co364 O366 2.091 . S
Co364 O368 2.004 . S
Co364 O374 2.021 1_554 S
Co364 O376 2.137 . S
Co364 O377 2.244 1_565 S
O365 Co364 2.216 . S
O365 C372 1.247 . S
O366 Co364 2.091 . S
O366 C372 1.261 . S
C367 O376 1.247 . S
C367 O377 1.272 1_565 S
O368 Co364 2.004 . S
O368 C373 1.259 . S
Co369 O370 2.061 . S
Co369 O375 2.052 1_554 S
Co369 O377 2.135 . S
O370 Co369 2.061 . S
O370 C373 1.235 1_545 S
C371 O374 1.238 1_545 S
C371 O375 1.241 . S
C372 O365 1.247 . S
C372 O366 1.261 . S
C373 O368 1.259 . S
C373 O370 1.235 1_565 S
O374 Co364 2.021 1_556 S
O374 C371 1.238 1_565 S
O375 Co369 2.052 1_556 S
O375 C371 1.241 . S
O376 Co364 2.137 . S
O376 C367 1.247 . S
O377 Co364 2.244 1_545 S
O377 C367 1.272 1_545 S
O377 Co369 2.135 . S
Co378 O379 2.216 . S
Co378 O380 2.091 . S
Co378 O382 2.004 . S
Co378 O388 2.021 . S
Co378 O390 2.137 . S
Co378 O391 2.244 . S
O379 Co378 2.216 . S
O379 C386 1.247 . S
O380 Co378 2.091 . S
O380 C386 1.261 . S
C381 O390 1.247 . S
C381 O391 1.272 . S
O382 Co378 2.004 . S
O382 C387 1.259 . S
Co383 O384 2.061 . S
Co383 O389 2.052 . S
Co383 O391 2.135 . S
O384 Co383 2.061 . S
O384 C387 1.235 . S
C385 O388 1.238 . S
C385 O389 1.241 . S
C386 O379 1.247 . S
C386 O380 1.261 . S
C387 O382 1.259 . S
C387 O384 1.235 . S
O388 Co378 2.021 . S
O388 C385 1.238 . S
O389 Co383 2.052 . S
O389 C385 1.241 . S
O390 Co378 2.137 . S
O390 C381 1.247 . S
O391 Co378 2.244 . S
O391 C381 1.272 . S
O391 Co383 2.135 . S
Co392 O393 2.216 . S
Co392 O394 2.091 . S
Co392 O396 2.004 . S
Co392 O402 2.021 . S
Co392 O404 2.137 1_554 S
Co392 O405 2.244 1_564 S
O393 Co392 2.216 . S
O393 C400 1.247 . S
O394 Co392 2.091 . S
O394 C400 1.261 . S
C395 O404 1.247 . S
C395 O405 1.272 1_565 S
O396 Co392 2.004 . S
O396 C401 1.259 . S
Co397 O398 2.061 . S
Co397 O403 2.052 . S
Co397 O405 2.135 1_554 S
O398 Co397 2.061 . S
O398 C401 1.235 1_545 S
C399 O402 1.238 1_545 S
C399 O403 1.241 . S
C400 O393 1.247 . S
C400 O394 1.261 . S
C401 O396 1.259 . S
C401 O398 1.235 1_565 S
O402 Co392 2.021 . S
O402 C399 1.238 1_565 S
O403 Co397 2.052 . S
O403 C399 1.241 . S
O404 Co392 2.137 1_556 S
O404 C395 1.247 . S
O405 Co392 2.244 1_546 S
O405 C395 1.272 1_545 S
O405 Co397 2.135 1_556 S
Co406 O407 2.216 . S
Co406 O408 2.091 . S
Co406 O410 2.004 . S
Co406 O416 2.021 . S
Co406 O418 2.137 . S
Co406 O419 2.244 . S
O407 Co406 2.216 . S
O407 C414 1.247 . S
O408 Co406 2.091 . S
O408 C414 1.261 . S
C409 O418 1.247 . S
C409 O419 1.272 . S
O410 Co406 2.004 . S
O410 C415 1.259 . S
Co411 O412 2.061 . S
Co411 O417 2.052 . S
Co411 O419 2.135 . S
O412 Co411 2.061 . S
O412 C415 1.235 . S
C413 O416 1.238 . S
C413 O417 1.241 . S
C414 O407 1.247 . S
C414 O408 1.261 . S
C415 O410 1.259 . S
C415 O412 1.235 . S
O416 Co406 2.021 . S
O416 C413 1.238 . S
O417 Co411 2.052 . S
O417 C413 1.241 . S
O418 Co406 2.137 . S
O418 C409 1.247 . S
O419 Co406 2.244 . S
O419 C409 1.272 . S
O419 Co411 2.135 . S
Co420 O421 2.216 . S
Co420 O422 2.091 . S
Co420 O424 2.004 . S
Co420 O430 2.021 . S
Co420 O432 2.137 . S
Co420 O433 2.244 1_545 S
O421 Co420 2.216 . S
O421 C428 1.247 . S
O422 Co420 2.091 . S
O422 C428 1.261 . S
C423 O432 1.247 . S
C423 O433 1.272 1_545 S
O424 Co420 2.004 . S
O424 C429 1.259 . S
Co425 O426 2.061 . S
Co425 O431 2.052 . S
Co425 O433 2.135 . S
O426 Co425 2.061 . S
O426 C429 1.235 1_565 S
C427 O430 1.238 1_565 S
C427 O431 1.241 . S
C428 O421 1.247 . S
C428 O422 1.261 . S
C429 O424 1.259 . S
C429 O426 1.235 1_545 S
O430 Co420 2.021 . S
O430 C427 1.238 1_545 S
O431 Co425 2.052 . S
O431 C427 1.241 . S
O432 Co420 2.137 . S
O432 C423 1.247 . S
O433 Co420 2.244 1_565 S
O433 C423 1.272 1_565 S
O433 Co425 2.135 . S
Co434 O435 2.216 . S
Co434 O436 2.091 . S
Co434 O438 2.004 . S
Co434 O444 2.021 . S
Co434 O446 2.137 . S
Co434 O447 2.244 . S
O435 Co434 2.216 . S
O435 C442 1.247 . S
O436 Co434 2.091 . S
O436 C442 1.261 . S
C437 O446 1.247 . S
C437 O447 1.272 . S
O438 Co434 2.004 . S
O438 C443 1.259 . S
Co439 O440 2.061 . S
Co439 O445 2.052 . S
Co439 O447 2.135 . S
O440 Co439 2.061 . S
O440 C443 1.235 . S
C441 O444 1.238 . S
C441 O445 1.241 . S
C442 O435 1.247 . S
C442 O436 1.261 . S
C443 O438 1.259 . S
C443 O440 1.235 . S
O444 Co434 2.021 . S
O444 C441 1.238 . S
O445 Co439 2.052 . S
O445 C441 1.241 . S
O446 Co434 2.137 . S
O446 C437 1.247 . S
O447 Co434 2.244 . S
O447 C437 1.272 . S
O447 Co439 2.135 . S
C448 C449 1.387 . S
C448 H452 0.950 . S
C448 C457 1.390 1_655 S
C449 C448 1.387 . S
C449 C451 1.387 1_554 S
H450 C457 0.950 . S
C451 C449 1.387 1_556 S
C451 C453 1.390 1_655 S
C451 H455 0.950 . S
H452 C448 0.950 . S
C453 C451 1.390 1_455 S
C453 C454 1.387 1_556 S
C453 H456 0.950 . S
C454 C453 1.387 1_554 S
C454 C457 1.387 . S
H455 C451 0.950 . S
H456 C453 0.950 . S
C457 C448 1.390 1_455 S
C457 H450 0.950 . S
C457 C454 1.387 . S
C458 C459 1.387 . S
C458 H462 0.950 . S
C458 C467 1.390 . S
C459 C458 1.387 . S
C459 C461 1.387 . S
H460 C467 0.950 . S
C461 C459 1.387 . S
C461 C463 1.390 . S
C461 H465 0.950 . S
H462 C458 0.950 . S
C463 C461 1.390 . S
C463 C464 1.387 . S
C463 H466 0.950 . S
C464 C463 1.387 . S
C464 C467 1.387 . S
H465 C461 0.950 . S
H466 C463 0.950 . S
C467 C458 1.390 . S
C467 H460 0.950 . S
C467 C464 1.387 . S
C468 C469 1.387 . S
C468 H472 0.950 . S
C468 C477 1.390 . S
C469 C468 1.387 . S
C469 C471 1.387 . S
H470 C477 0.950 . S
C471 C469 1.387 . S
C471 C473 1.390 . S
C471 H475 0.950 . S
H472 C468 0.950 . S
C473 C471 1.390 . S
C473 C474 1.387 . S
C473 H476 0.950 . S
C474 C473 1.387 . S
C474 C477 1.387 . S
H475 C471 0.950 . S
H476 C473 0.950 . S
C477 C468 1.390 . S
C477 H470 0.950 . S
C477 C474 1.387 . S
C478 C479 1.387 . S
C478 H482 0.950 . S
C478 C487 1.390 . S
C479 C478 1.387 . S
C479 C481 1.387 . S
H480 C487 0.950 . S
C481 C479 1.387 . S
C481 C483 1.390 . S
C481 H485 0.950 . S
H482 C478 0.950 . S
C483 C481 1.390 . S
C483 C484 1.387 . S
C483 H486 0.950 . S
C484 C483 1.387 . S
C484 C487 1.387 . S
H485 C481 0.950 . S
H486 C483 0.950 . S
C487 C478 1.390 . S
C487 H480 0.950 . S
C487 C484 1.387 . S
C488 C489 1.387 . S
C488 H492 0.950 . S
C488 C497 1.390 1_455 S
C489 C488 1.387 . S
C489 C491 1.387 . S
H490 C497 0.950 . S
C491 C489 1.387 . S
C491 C493 1.390 1_455 S
C491 H495 0.950 . S
H492 C488 0.950 . S
C493 C491 1.390 1_655 S
C493 C494 1.387 . S
C493 H496 0.950 . S
C494 C493 1.387 . S
C494 C497 1.387 . S
H495 C491 0.950 . S
H496 C493 0.950 . S
C497 C488 1.390 1_655 S
C497 H490 0.950 . S
C497 C494 1.387 . S
C498 C499 1.387 . S
C498 H502 0.950 . S
C498 C507 1.390 . S
C499 C498 1.387 . S
C499 C501 1.387 . S
H500 C507 0.950 . S
C501 C499 1.387 . S
C501 C503 1.390 . S
C501 H505 0.950 . S
H502 C498 0.950 . S
C503 C501 1.390 . S
C503 C504 1.387 . S
C503 H506 0.950 . S
C504 C503 1.387 . S
C504 C507 1.387 . S
H505 C501 0.950 . S
H506 C503 0.950 . S
C507 C498 1.390 . S
C507 H500 0.950 . S
C507 C504 1.387 . S
C508 C509 1.387 . S
C508 H512 0.950 . S
C508 C517 1.390 . S
C509 C508 1.387 . S
C509 C511 1.387 . S
H510 C517 0.950 . S
C511 C509 1.387 . S
C511 C513 1.390 . S
C511 H515 0.950 1_554 S
H512 C508 0.950 . S
C513 C511 1.390 . S
C513 C514 1.387 . S
C513 H516 0.950 1_554 S
C514 C513 1.387 . S
C514 C517 1.387 . S
H515 C511 0.950 1_556 S
H516 C513 0.950 1_556 S
C517 C508 1.390 . S
C517 H510 0.950 . S
C517 C514 1.387 . S
C518 C519 1.387 . S
C518 H522 0.950 . S
C518 C527 1.390 . S
C519 C518 1.387 . S
C519 C521 1.387 . S
H520 C527 0.950 . S
C521 C519 1.387 . S
C521 C523 1.390 . S
C521 H525 0.950 . S
H522 C518 0.950 . S
C523 C521 1.390 . S
C523 C524 1.387 . S
C523 H526 0.950 . S
C524 C523 1.387 . S
C524 C527 1.387 . S
H525 C521 0.950 . S
H526 C523 0.950 . S
C527 C518 1.390 . S
C527 H520 0.950 . S
C527 C524 1.387 . S
C528 C529 1.387 . S
C528 H532 0.950 . S
C528 C537 1.390 . S
C529 C528 1.387 . S
C529 C531 1.387 . S
H530 C537 0.950 . S
C531 C529 1.387 . S
C531 C533 1.390 . S
C531 H535 0.950 . S
H532 C528 0.950 . S
C533 C531 1.390 . S
C533 C534 1.387 . S
C533 H536 0.950 . S
C534 C533 1.387 . S
C534 C537 1.387 . S
H535 C531 0.950 . S
H536 C533 0.950 . S
C537 C528 1.390 . S
C537 H530 0.950 . S
C537 C534 1.387 . S
C538 C539 1.387 . S
C538 H542 0.950 . S
C538 C547 1.390 . S
C539 C538 1.387 . S
C539 C541 1.387 . S
H540 C547 0.950 . S
C541 C539 1.387 . S
C541 C543 1.390 . S
C541 H545 0.950 . S
H542 C538 0.950 . S
C543 C541 1.390 . S
C543 C544 1.387 . S
C543 H546 0.950 . S
C544 C543 1.387 . S
C544 C547 1.387 . S
H545 C541 0.950 . S
H546 C543 0.950 . S
C547 C538 1.390 . S
C547 H540 0.950 . S
C547 C544 1.387 . S
C548 C549 1.387 . S
C548 H552 0.950 . S
C548 C557 1.390 . S
C549 C548 1.387 . S
C549 C551 1.387 . S
H550 C557 0.950 . S
C551 C549 1.387 . S
C551 C553 1.390 . S
C551 H555 0.950 . S
H552 C548 0.950 . S
C553 C551 1.390 . S
C553 C554 1.387 . S
C553 H556 0.950 . S
C554 C553 1.387 . S
C554 C557 1.387 . S
H555 C551 0.950 . S
H556 C553 0.950 . S
C557 C548 1.390 . S
C557 H550 0.950 . S
C557 C554 1.387 . S
C558 C559 1.387 . S
C558 H562 0.950 . S
C558 C567 1.390 . S
C559 C558 1.387 . S
C559 C561 1.387 . S
H560 C567 0.950 . S
C561 C559 1.387 . S
C561 C563 1.390 . S
C561 H565 0.950 . S
H562 C558 0.950 . S
C563 C561 1.390 . S
C563 C564 1.387 . S
C563 H566 0.950 . S
C564 C563 1.387 . S
C564 C567 1.387 . S
H565 C561 0.950 . S
H566 C563 0.950 . S
C567 C558 1.390 . S
C567 H560 0.950 . S
C567 C564 1.387 . S
C568 C569 1.387 . S
C568 H572 0.950 . S
C568 C577 1.390 1_545 S
C569 C568 1.387 . S
C569 C571 1.387 . S
H570 C577 0.950 . S
C571 C569 1.387 . S
C571 C573 1.390 1_545 S
C571 H575 0.950 . S
H572 C568 0.950 . S
C573 C571 1.390 1_565 S
C573 C574 1.387 . S
C573 H576 0.950 . S
C574 C573 1.387 . S
C574 C577 1.387 . S
H575 C571 0.950 . S
H576 C573 0.950 . S
C577 C568 1.390 1_565 S
C577 H570 0.950 . S
C577 C574 1.387 . S
C578 C579 1.387 . S
C578 H582 0.950 . S
C578 C587 1.390 1_645 S
C579 C578 1.387 . S
C579 C581 1.387 1_554 S
H580 C587 0.950 . S
C581 C579 1.387 1_556 S
C581 C583 1.390 1_645 S
C581 H585 0.950 . S
H582 C578 0.950 . S
C583 C581 1.390 1_465 S
C583 C584 1.387 1_556 S
C583 H586 0.950 . S
C584 C583 1.387 1_554 S
C584 C587 1.387 . S
H585 C581 0.950 . S
H586 C583 0.950 . S
C587 C578 1.390 1_465 S
C587 H580 0.950 . S
C587 C584 1.387 . S
C588 C589 1.387 1_556 S
C588 H592 0.950 . S
C588 C597 1.390 1_545 S
C589 C588 1.387 1_554 S
C589 C591 1.387 . S
H590 C597 0.950 . S
C591 C589 1.387 . S
C591 C593 1.390 1_545 S
C591 H595 0.950 . S
H592 C588 0.950 . S
C593 C591 1.390 1_565 S
C593 C594 1.387 . S
C593 H596 0.950 . S
C594 C593 1.387 . S
C594 C597 1.387 1_554 S
H595 C591 0.950 . S
H596 C593 0.950 . S
C597 C588 1.390 1_565 S
C597 H590 0.950 . S
C597 C594 1.387 1_556 S
C598 C599 1.387 . S
C598 H602 0.950 . S
C598 C607 1.390 1_445 S
C599 C598 1.387 . S
C599 C601 1.387 . S
H600 C607 0.950 . S
C601 C599 1.387 . S
C601 C603 1.390 1_445 S
C601 H605 0.950 . S
H602 C598 0.950 . S
C603 C601 1.390 1_665 S
C603 C604 1.387 . S
C603 H606 0.950 . S
C604 C603 1.387 . S
C604 C607 1.387 . S
H605 C601 0.950 . S
H606 C603 0.950 . S
C607 C598 1.390 1_665 S
C607 H600 0.950 . S
C607 C604 1.387 . S
C608 C609 1.387 . S
C608 H612 0.950 . S
C608 C617 1.390 . S
C609 C608 1.387 . S
C609 C611 1.387 . S
H610 C617 0.950 . S
C611 C609 1.387 . S
C611 C613 1.390 . S
C611 H615 0.950 . S
H612 C608 0.950 . S
C613 C611 1.390 . S
C613 C614 1.387 . S
C613 H616 0.950 . S
C614 C613 1.387 . S
C614 C617 1.387 . S
H615 C611 0.950 . S
H616 C613 0.950 . S
C617 C608 1.390 . S
C617 H610 0.950 . S
C617 C614 1.387 . S
C618 C619 1.387 1_554 S
C618 H622 0.950 1_554 S
C618 C627 1.390 . S
C619 C618 1.387 1_556 S
C619 C621 1.387 1_556 S
H620 C627 0.950 . S
C621 C619 1.387 1_554 S
C621 C623 1.390 . S
C621 H625 0.950 1_554 S
H622 C618 0.950 1_556 S
C623 C621 1.390 . S
C623 C624 1.387 . S
C623 H626 0.950 . S
C624 C623 1.387 . S
C624 C627 1.387 . S
H625 C621 0.950 1_556 S
H626 C623 0.950 . S
C627 C618 1.390 . S
C627 H620 0.950 . S
C627 C624 1.387 . S
C628 C629 1.387 . S
C628 H632 0.950 . S
C628 C637 1.390 . S
C629 C628 1.387 . S
C629 C631 1.387 . S
H630 C637 0.950 . S
C631 C629 1.387 . S
C631 C633 1.390 . S
C631 H635 0.950 . S
H632 C628 0.950 . S
C633 C631 1.390 . S
C633 C634 1.387 . S
C633 H636 0.950 . S
C634 C633 1.387 . S
C634 C637 1.387 . S
H635 C631 0.950 . S
H636 C633 0.950 . S
C637 C628 1.390 . S
C637 H630 0.950 . S
C637 C634 1.387 . S
C638 C639 1.387 . S
C638 H642 0.950 . S
C638 C647 1.390 . S
C639 C638 1.387 . S
C639 C641 1.387 . S
H640 C647 0.950 . S
C641 C639 1.387 . S
C641 C643 1.390 . S
C641 H645 0.950 . S
H642 C638 0.950 . S
C643 C641 1.390 . S
C643 C644 1.387 . S
C643 H646 0.950 . S
C644 C643 1.387 . S
C644 C647 1.387 . S
H645 C641 0.950 . S
H646 C643 0.950 . S
C647 C638 1.390 . S
C647 H640 0.950 . S
C647 C644 1.387 . S
C648 C649 1.387 . S
C648 H652 0.950 . S
C648 C657 1.390 . S
C649 C648 1.387 . S
C649 C651 1.387 . S
H650 C657 0.950 . S
C651 C649 1.387 . S
C651 C653 1.390 . S
C651 H655 0.950 . S
H652 C648 0.950 . S
C653 C651 1.390 . S
C653 C654 1.387 . S
C653 H656 0.950 . S
C654 C653 1.387 . S
C654 C657 1.387 . S
H655 C651 0.950 . S
H656 C653 0.950 . S
C657 C648 1.390 . S
C657 H650 0.950 . S
C657 C654 1.387 . S
C658 C659 1.387 1_554 S
C658 H662 0.950 1_554 S
C658 C667 1.390 . S
C659 C658 1.387 1_556 S
C659 C661 1.387 1_556 S
H660 C667 0.950 . S
C661 C659 1.387 1_554 S
C661 C663 1.390 . S
C661 H665 0.950 1_554 S
H662 C658 0.950 1_556 S
C663 C661 1.390 . S
C663 C664 1.387 . S
C663 H666 0.950 . S
C664 C663 1.387 . S
C664 C667 1.387 . S
H665 C661 0.950 1_556 S
H666 C663 0.950 . S
C667 C658 1.390 . S
C667 H660 0.950 . S
C667 C664 1.387 . S
C668 C669 1.387 . S
C668 H672 0.950 . S
C668 C677 1.390 . S
C669 C668 1.387 . S
C669 C671 1.387 . S
H670 C677 0.950 . S
C671 C669 1.387 . S
C671 C673 1.390 . S
C671 H675 0.950 . S
H672 C668 0.950 . S
C673 C671 1.390 . S
C673 C674 1.387 . S
C673 H676 0.950 . S
C674 C673 1.387 . S
C674 C677 1.387 . S
H675 C671 0.950 . S
H676 C673 0.950 . S
C677 C668 1.390 . S
C677 H670 0.950 . S
C677 C674 1.387 . S
C678 C679 1.387 . S
C678 H682 0.950 . S
C678 C687 1.390 . S
C679 C678 1.387 . S
C679 C681 1.387 . S
H680 C687 0.950 . S
C681 C679 1.387 . S
C681 C683 1.390 . S
C681 H685 0.950 . S
H682 C678 0.950 . S
C683 C681 1.390 . S
C683 C684 1.387 . S
C683 H686 0.950 . S
C684 C683 1.387 . S
C684 C687 1.387 . S
H685 C681 0.950 . S
H686 C683 0.950 . S
C687 C678 1.390 . S
C687 H680 0.950 . S
C687 C684 1.387 . S
C688 C689 1.389 . S
C688 H692 0.952 . S
C688 C697 1.387 1_545 S
C689 C688 1.389 . S
C689 C691 1.389 . S
H690 C697 0.952 . S
C691 C689 1.389 . S
C691 C693 1.387 1_545 S
C691 H695 0.951 . S
H692 C688 0.952 . S
C693 C691 1.387 1_565 S
C693 C694 1.389 . S
C693 H696 0.952 . S
C694 C693 1.389 . S
C694 C697 1.389 . S
H695 C691 0.951 . S
H696 C693 0.952 . S
C697 C688 1.387 1_565 S
C697 H690 0.952 . S
C697 C694 1.389 . S
C698 C699 1.387 . S
C698 H702 0.950 . S
C698 C707 1.390 . S
C699 C698 1.387 . S
C699 C701 1.387 . S
H700 C707 0.950 . S
C701 C699 1.387 . S
C701 C703 1.390 . S
C701 H705 0.950 . S
H702 C698 0.950 . S
C703 C701 1.390 . S
C703 C704 1.387 . S
C703 H706 0.950 . S
C704 C703 1.387 . S
C704 C707 1.387 . S
H705 C701 0.950 . S
H706 C703 0.950 . S
C707 C698 1.390 . S
C707 H700 0.950 . S
C707 C704 1.387 . S
C708 C709 1.389 . S
C708 H712 0.952 . S
C708 C717 1.387 1_545 S
C709 C708 1.389 . S
C709 C711 1.389 . S
H710 C717 0.951 . S
C711 C709 1.389 . S
C711 C713 1.387 1_545 S
C711 H715 0.952 . S
H712 C708 0.952 . S
C713 C711 1.387 1_565 S
C713 C714 1.389 . S
C713 H716 0.952 . S
C714 C713 1.389 . S
C714 C717 1.389 . S
H715 C711 0.952 . S
H716 C713 0.952 . S
C717 C708 1.387 1_565 S
C717 H710 0.951 . S
C717 C714 1.389 . S
C718 C719 1.387 1_554 S
C718 H722 0.950 1_554 S
C718 C727 1.390 . S
C719 C718 1.387 1_556 S
C719 C721 1.387 1_556 S
H720 C727 0.950 . S
C721 C719 1.387 1_554 S
C721 C723 1.390 . S
C721 H725 0.950 1_554 S
H722 C718 0.950 1_556 S
C723 C721 1.390 . S
C723 C724 1.387 . S
C723 H726 0.950 . S
C724 C723 1.387 . S
C724 C727 1.387 . S
H725 C721 0.950 1_556 S
H726 C723 0.950 . S
C727 C718 1.390 . S
C727 H720 0.950 . S
C727 C724 1.387 . S
C728 C729 1.390 . S
C728 H732 0.953 . S
C728 C737 1.386 1_565 S
C729 C728 1.390 . S
C729 C731 1.390 . S
H730 C737 0.953 . S
C731 C729 1.390 . S
C731 C733 1.386 1_565 S
C731 H735 0.953 . S
H732 C728 0.953 . S
C733 C731 1.386 1_545 S
C733 C734 1.390 . S
C733 H736 0.953 . S
C734 C733 1.390 . S
C734 C737 1.390 . S
H735 C731 0.953 . S
H736 C733 0.953 . S
C737 C728 1.386 1_545 S
C737 H730 0.953 . S
C737 C734 1.390 . S
C738 C739 1.387 . S
C738 H742 0.950 . S
C738 C747 1.390 . S
C739 C738 1.387 . S
C739 C741 1.387 . S
H740 C747 0.950 . S
C741 C739 1.387 . S
C741 C743 1.390 . S
C741 H745 0.950 . S
H742 C738 0.950 . S
C743 C741 1.390 . S
C743 C744 1.387 . S
C743 H746 0.950 . S
C744 C743 1.387 . S
C744 C747 1.387 . S
H745 C741 0.950 . S
H746 C743 0.950 . S
C747 C738 1.390 . S
C747 H740 0.950 . S
C747 C744 1.387 . S
C748 C749 1.387 . S
C748 H752 0.950 . S
C748 C757 1.387 1_545 S
C749 C748 1.387 . S
C749 C751 1.390 . S
H750 C757 0.953 . S
C751 C749 1.390 . S
C751 C753 1.386 1_545 S
C751 H755 0.953 . S
H752 C748 0.950 . S
C753 C751 1.386 1_565 S
C753 C754 1.390 . S
C753 H756 0.953 . S
C754 C753 1.390 . S
C754 C757 1.390 . S
H755 C751 0.953 . S
H756 C753 0.953 . S
C757 C748 1.387 1_565 S
C757 H750 0.953 . S
C757 C754 1.390 . S
C758 C759 1.387 . S
C758 H762 0.950 . S
C758 C767 1.390 . S
C759 C758 1.387 . S
C759 C761 1.387 . S
H760 C767 0.950 1_556 S
C761 C759 1.387 . S
C761 C763 1.390 . S
C761 H765 0.950 . S
H762 C758 0.950 . S
C763 C761 1.390 . S
C763 C764 1.387 1_554 S
C763 H766 0.950 1_554 S
C764 C763 1.387 1_556 S
C764 C767 1.387 1_556 S
H765 C761 0.950 . S
H766 C763 0.950 1_556 S
C767 C758 1.390 . S
C767 H760 0.950 1_554 S
C767 C764 1.387 1_554 S
C768 C769 1.387 . S
C768 H772 0.950 . S
C768 C777 1.390 . S
C769 C768 1.387 . S
C769 C771 1.387 . S
H770 C777 0.950 . S
C771 C769 1.387 . S
C771 C773 1.390 . S
C771 H775 0.950 . S
H772 C768 0.950 . S
C773 C771 1.390 . S
C773 C774 1.387 . S
C773 H776 0.950 . S
C774 C773 1.387 . S
C774 C777 1.387 . S
H775 C771 0.950 . S
H776 C773 0.950 . S
C777 C768 1.390 . S
C777 H770 0.950 . S
C777 C774 1.387 . S
C778 C779 1.387 . S
C778 H782 0.950 . S
C778 C787 1.390 . S
C779 C778 1.387 . S
C779 C781 1.387 . S
H780 C787 0.950 . S
C781 C779 1.387 . S
C781 C783 1.390 . S
C781 H785 0.950 . S
H782 C778 0.950 . S
C783 C781 1.390 . S
C783 C784 1.387 . S
C783 H786 0.950 . S
C784 C783 1.387 . S
C784 C787 1.387 . S
H785 C781 0.950 . S
H786 C783 0.950 . S
C787 C778 1.390 . S
C787 H780 0.950 . S
C787 C784 1.387 . S
C788 C789 1.387 . S
C788 H792 0.950 . S
C788 C797 1.390 . S
C789 C788 1.387 . S
C789 C791 1.387 . S
H790 C797 0.950 . S
C791 C789 1.387 . S
C791 C793 1.390 . S
C791 H795 0.950 . S
H792 C788 0.950 . S
C793 C791 1.390 . S
C793 C794 1.387 . S
C793 H796 0.950 . S
C794 C793 1.387 . S
C794 C797 1.387 . S
H795 C791 0.950 . S
H796 C793 0.950 . S
C797 C788 1.390 . S
C797 H790 0.950 . S
C797 C794 1.387 . S
C798 C799 1.387 . S
C798 H802 0.950 . S
C798 C807 1.390 . S
C799 C798 1.387 . S
C799 C801 1.387 . S
H800 C807 0.950 1_556 S
C801 C799 1.387 . S
C801 C803 1.390 . S
C801 H805 0.950 . S
H802 C798 0.950 . S
C803 C801 1.390 . S
C803 C804 1.387 1_554 S
C803 H806 0.950 1_554 S
C804 C803 1.387 1_556 S
C804 C807 1.387 1_556 S
H805 C801 0.950 . S
H806 C803 0.950 1_556 S
C807 C798 1.390 . S
C807 H800 0.950 1_554 S
C807 C804 1.387 1_554 S
C808 C809 1.387 . S
C808 H812 0.950 . S
C808 C817 1.390 . S
C809 C808 1.387 . S
C809 C811 1.387 . S
H810 C817 0.950 . S
C811 C809 1.387 . S
C811 C813 1.390 . S
C811 H815 0.950 . S
H812 C808 0.950 . S
C813 C811 1.390 . S
C813 C814 1.387 . S
C813 H816 0.950 . S
C814 C813 1.387 . S
C814 C817 1.387 . S
H815 C811 0.950 . S
H816 C813 0.950 . S
C817 C808 1.390 . S
C817 H810 0.950 . S
C817 C814 1.387 . S
C818 C819 1.387 . S
C818 H822 0.950 . S
C818 C827 1.390 . S
C819 C818 1.387 . S
C819 C821 1.387 . S
H820 C827 0.950 . S
C821 C819 1.387 . S
C821 C823 1.390 . S
C821 H825 0.950 . S
H822 C818 0.950 . S
C823 C821 1.390 . S
C823 C824 1.387 . S
C823 H826 0.950 . S
C824 C823 1.387 . S
C824 C827 1.387 . S
H825 C821 0.950 . S
H826 C823 0.950 . S
C827 C818 1.390 . S
C827 H820 0.950 . S
C827 C824 1.387 . S
C828 C829 1.387 . S
C828 H832 0.950 . S
C828 C837 1.390 . S
C829 C828 1.387 . S
C829 C831 1.387 . S
H830 C837 0.950 . S
C831 C829 1.387 . S
C831 C833 1.390 . S
C831 H835 0.950 . S
H832 C828 0.950 . S
C833 C831 1.390 . S
C833 C834 1.387 . S
C833 H836 0.950 . S
C834 C833 1.387 . S
C834 C837 1.387 . S
H835 C831 0.950 . S
H836 C833 0.950 . S
C837 C828 1.390 . S
C837 H830 0.950 . S
C837 C834 1.387 . S
C838 C839 1.387 1_554 S
C838 H842 0.950 1_554 S
C838 C847 1.390 . S
C839 C838 1.387 1_556 S
C839 C841 1.387 1_556 S
H840 C847 0.950 . S
C841 C839 1.387 1_554 S
C841 C843 1.390 . S
C841 H845 0.950 1_554 S
H842 C838 0.950 1_556 S
C843 C841 1.390 . S
C843 C844 1.387 . S
C843 H846 0.950 . S
C844 C843 1.387 . S
C844 C847 1.387 . S
H845 C841 0.950 1_556 S
H846 C843 0.950 . S
C847 C838 1.390 . S
C847 H840 0.950 . S
C847 C844 1.387 . S
C848 C849 1.387 . S
C848 H852 0.950 . S
C848 C857 1.390 1_545 S
C849 C848 1.387 . S
C849 C851 1.387 . S
H850 C857 0.950 . S
C851 C849 1.387 . S
C851 C853 1.390 1_545 S
C851 H855 0.950 . S
H852 C848 0.950 . S
C853 C851 1.390 1_565 S
C853 C854 1.387 . S
C853 H856 0.950 . S
C854 C853 1.387 . S
C854 C857 1.387 . S
H855 C851 0.950 . S
H856 C853 0.950 . S
C857 C848 1.390 1_565 S
C857 H850 0.950 . S
C857 C854 1.387 . S
C858 C859 1.387 . S
C858 H862 0.950 . S
C858 C867 1.390 . S
C859 C858 1.387 . S
C859 C861 1.387 . S
H860 C867 0.950 1_556 S
C861 C859 1.387 . S
C861 C863 1.390 . S
C861 H865 0.950 . S
H862 C858 0.950 . S
C863 C861 1.390 . S
C863 C864 1.387 1_554 S
C863 H866 0.950 1_554 S
C864 C863 1.387 1_556 S
C864 C867 1.387 1_556 S
H865 C861 0.950 . S
H866 C863 0.950 1_556 S
C867 C858 1.390 . S
C867 H860 0.950 1_554 S
C867 C864 1.387 1_554 S
C868 C869 1.387 . S
C868 H872 0.950 . S
C868 C877 1.390 1_545 S
C869 C868 1.387 . S
C869 C871 1.387 . S
H870 C877 0.950 . S
C871 C869 1.387 . S
C871 C873 1.390 1_545 S
C871 H875 0.950 . S
H872 C868 0.950 . S
C873 C871 1.390 1_565 S
C873 C874 1.387 . S
C873 H876 0.950 . S
C874 C873 1.387 . S
C874 C877 1.387 . S
H875 C871 0.950 . S
H876 C873 0.950 . S
C877 C868 1.390 1_565 S
C877 H870 0.950 . S
C877 C874 1.387 . S
C878 C879 1.387 . S
C878 H882 0.950 . S
C878 C887 1.390 . S
C879 C878 1.387 . S
C879 C881 1.387 . S
H880 C887 0.950 . S
C881 C879 1.387 . S
C881 C883 1.390 . S
C881 H885 0.950 . S
H882 C878 0.950 . S
C883 C881 1.390 . S
C883 C884 1.387 . S
C883 H886 0.950 . S
C884 C883 1.387 . S
C884 C887 1.387 . S
H885 C881 0.950 . S
H886 C883 0.950 . S
C887 C878 1.390 . S
C887 H880 0.950 . S
C887 C884 1.387 . S
C888 C889 1.387 . S
C888 H892 0.950 . S
C888 C897 1.390 1_545 S
C889 C888 1.387 . S
C889 C891 1.387 . S
H890 C897 0.950 . S
C891 C889 1.387 . S
C891 C893 1.390 1_545 S
C891 H895 0.950 . S
H892 C888 0.950 . S
C893 C891 1.390 1_565 S
C893 C894 1.387 . S
C893 H896 0.950 . S
C894 C893 1.387 . S
C894 C897 1.387 . S
H895 C891 0.950 . S
H896 C893 0.950 . S
C897 C888 1.390 1_565 S
C897 H890 0.950 . S
C897 C894 1.387 . S
C898 C899 1.387 . S
C898 H902 0.950 . S
C898 C907 1.390 . S
C899 C898 1.387 . S
C899 C901 1.387 . S
H900 C907 0.950 1_556 S
C901 C899 1.387 . S
C901 C903 1.390 . S
C901 H905 0.950 . S
H902 C898 0.950 . S
C903 C901 1.390 . S
C903 C904 1.387 1_554 S
C903 H906 0.950 1_554 S
C904 C903 1.387 1_556 S
C904 C907 1.387 1_556 S
H905 C901 0.950 . S
H906 C903 0.950 1_556 S
C907 C898 1.390 . S
C907 H900 0.950 1_554 S
C907 C904 1.387 1_554 S
C908 C909 1.387 . S
C908 H912 0.950 . S
C908 C917 1.390 1_545 S
C909 C908 1.387 . S
C909 C911 1.387 . S
H910 C917 0.950 . S
C911 C909 1.387 . S
C911 C913 1.390 1_545 S
C911 H915 0.950 . S
H912 C908 0.950 . S
C913 C911 1.390 1_565 S
C913 C914 1.387 . S
C913 H916 0.950 . S
C914 C913 1.387 . S
C914 C917 1.387 . S
H915 C911 0.950 . S
H916 C913 0.950 . S
C917 C908 1.390 1_565 S
C917 H910 0.950 . S
C917 C914 1.387 . S
C918 C919 1.387 . S
C918 H922 0.950 . S
C918 C927 1.390 . S
C919 C918 1.387 . S
C919 C921 1.387 . S
H920 C927 0.950 . S
C921 C919 1.387 . S
C921 C923 1.390 . S
C921 H925 0.950 . S
H922 C918 0.950 . S
C923 C921 1.390 . S
C923 C924 1.387 . S
C923 H926 0.950 . S
C924 C923 1.387 . S
C924 C927 1.387 . S
H925 C921 0.950 . S
H926 C923 0.950 . S
C927 C918 1.390 . S
C927 H920 0.950 . S
C927 C924 1.387 . S
C928 C929 1.387 . S
C928 H932 0.950 . S
C928 C937 1.390 . S
C929 C928 1.387 . S
C929 C931 1.387 . S
H930 C937 0.950 . S
C931 C929 1.387 . S
C931 C933 1.390 . S
C931 H935 0.950 . S
H932 C928 0.950 . S
C933 C931 1.390 . S
C933 C934 1.387 . S
C933 H936 0.950 . S
C934 C933 1.387 . S
C934 C937 1.387 . S
H935 C931 0.950 . S
H936 C933 0.950 . S
C937 C928 1.390 . S
C937 H930 0.950 . S
C937 C934 1.387 . S
C938 C939 1.387 . S
C938 H942 0.950 . S
C938 C947 1.390 . S
C939 C938 1.387 . S
C939 C941 1.387 . S
H940 C947 0.950 . S
C941 C939 1.387 . S
C941 C943 1.390 . S
C941 H945 0.950 . S
H942 C938 0.950 . S
C943 C941 1.390 . S
C943 C944 1.387 . S
C943 H946 0.950 . S
C944 C943 1.387 . S
C944 C947 1.387 . S
H945 C941 0.950 . S
H946 C943 0.950 . S
C947 C938 1.390 . S
C947 H940 0.950 . S
C947 C944 1.387 . S
C948 C949 1.387 . S
C948 H952 0.950 . S
C948 C957 1.390 . S
C949 C948 1.387 . S
C949 C951 1.387 . S
H950 C957 0.950 . S
C951 C949 1.387 . S
C951 C953 1.390 . S
C951 H955 0.950 . S
H952 C948 0.950 . S
C953 C951 1.390 . S
C953 C954 1.387 . S
C953 H956 0.950 . S
C954 C953 1.387 . S
C954 C957 1.387 . S
H955 C951 0.950 . S
H956 C953 0.950 . S
C957 C948 1.390 . S
C957 H950 0.950 . S
C957 C954 1.387 . S
C958 C959 1.387 . S
C958 H962 0.950 . S
C958 C967 1.390 . S
C959 C958 1.387 . S
C959 C961 1.387 . S
H960 C967 0.950 1_554 S
C961 C959 1.387 . S
C961 C963 1.390 . S
C961 H965 0.950 . S
H962 C958 0.950 . S
C963 C961 1.390 . S
C963 C964 1.387 . S
C963 H966 0.950 . S
C964 C963 1.387 . S
C964 C967 1.387 . S
H965 C961 0.950 . S
H966 C963 0.950 . S
C967 C958 1.390 . S
C967 H960 0.950 1_556 S
C967 C964 1.387 . S
C968 C969 1.387 . S
C968 H972 0.950 . S
C968 C977 1.390 . S
C969 C968 1.387 . S
C969 C971 1.387 . S
H970 C977 0.950 . S
C971 C969 1.387 . S
C971 C973 1.390 . S
C971 H975 0.950 . S
H972 C968 0.950 . S
C973 C971 1.390 . S
C973 C974 1.387 . S
C973 H976 0.950 . S
C974 C973 1.387 . S
C974 C977 1.387 . S
H975 C971 0.950 . S
H976 C973 0.950 . S
C977 C968 1.390 . S
C977 H970 0.950 . S
C977 C974 1.387 . S
C978 C979 1.387 . S
C978 H982 0.950 . S
C978 C987 1.390 . S
C979 C978 1.387 . S
C979 C981 1.387 . S
H980 C987 0.950 . S
C981 C979 1.387 . S
C981 C983 1.390 . S
C981 H985 0.950 . S
H982 C978 0.950 . S
C983 C981 1.390 . S
C983 C984 1.387 . S
C983 H986 0.950 . S
C984 C983 1.387 . S
C984 C987 1.387 . S
H985 C981 0.950 . S
H986 C983 0.950 . S
C987 C978 1.390 . S
C987 H980 0.950 . S
C987 C984 1.387 . S
C988 C989 1.387 . S
C988 H992 0.950 . S
C988 C997 1.390 . S
C989 C988 1.387 . S
C989 C991 1.387 . S
H990 C997 0.950 1_554 S
C991 C989 1.387 . S
C991 C993 1.390 . S
C991 H995 0.950 . S
H992 C988 0.950 . S
C993 C991 1.390 . S
C993 C994 1.387 . S
C993 H996 0.950 . S
C994 C993 1.387 . S
C994 C997 1.387 . S
H995 C991 0.950 . S
H996 C993 0.950 . S
C997 C988 1.390 . S
C997 H990 0.950 1_556 S
C997 C994 1.387 . S
C998 C999 1.387 . S
C998 H1002 0.950 . S
C998 C1007 1.390 . S
C999 C998 1.387 . S
C999 C1001 1.387 . S
H1000 C1007 0.950 . S
C1001 C999 1.387 . S
C1001 C1003 1.390 . S
C1001 H1005 0.950 . S
H1002 C998 0.950 . S
C1003 C1001 1.390 . S
C1003 C1004 1.387 . S
C1003 H1006 0.950 . S
C1004 C1003 1.387 . S
C1004 C1007 1.387 . S
H1005 C1001 0.950 . S
H1006 C1003 0.950 . S
C1007 C998 1.390 . S
C1007 H1000 0.950 . S
C1007 C1004 1.387 . S
C1008 C1009 1.387 . S
C1008 H1012 0.950 1_556 S
C1008 C1017 1.390 . S
C1009 C1008 1.387 . S
C1009 C1011 1.387 . S
H1010 C1017 0.950 . S
C1011 C1009 1.387 . S
C1011 C1013 1.390 . S
C1011 H1015 0.950 . S
H1012 C1008 0.950 1_554 S
C1013 C1011 1.390 . S
C1013 C1014 1.387 . S
C1013 H1016 0.950 . S
C1014 C1013 1.387 . S
C1014 C1017 1.387 . S
H1015 C1011 0.950 . S
H1016 C1013 0.950 . S
C1017 C1008 1.390 . S
C1017 H1010 0.950 . S
C1017 C1014 1.387 . S
C1018 C1019 1.387 . S
C1018 H1022 0.950 . S
C1018 C1027 1.390 . S
C1019 C1018 1.387 . S
C1019 C1021 1.387 . S
H1020 C1027 0.950 . S
C1021 C1019 1.387 . S
C1021 C1023 1.390 . S
C1021 H1025 0.950 . S
H1022 C1018 0.950 . S
C1023 C1021 1.390 . S
C1023 C1024 1.387 . S
C1023 H1026 0.950 . S
C1024 C1023 1.387 . S
C1024 C1027 1.387 . S
H1025 C1021 0.950 . S
H1026 C1023 0.950 . S
C1027 C1018 1.390 . S
C1027 H1020 0.950 . S
C1027 C1024 1.387 . S
C1028 C1029 1.387 . S
C1028 H1032 0.950 . S
C1028 C1037 1.390 . S
C1029 C1028 1.387 . S
C1029 C1031 1.387 . S
H1030 C1037 0.950 . S
C1031 C1029 1.387 . S
C1031 C1033 1.390 . S
C1031 H1035 0.950 . S
H1032 C1028 0.950 . S
C1033 C1031 1.390 . S
C1033 C1034 1.387 . S
C1033 H1036 0.950 . S
C1034 C1033 1.387 . S
C1034 C1037 1.387 . S
H1035 C1031 0.950 . S
H1036 C1033 0.950 . S
C1037 C1028 1.390 . S
C1037 H1030 0.950 . S
C1037 C1034 1.387 . S
C1038 C1039 1.387 . S
C1038 H1042 0.950 . S
C1038 C1047 1.390 . S
C1039 C1038 1.387 . S
C1039 C1041 1.387 . S
H1040 C1047 0.950 . S
C1041 C1039 1.387 . S
C1041 C1043 1.390 . S
C1041 H1045 0.950 . S
H1042 C1038 0.950 . S
C1043 C1041 1.390 . S
C1043 C1044 1.387 . S
C1043 H1046 0.950 . S
C1044 C1043 1.387 . S
C1044 C1047 1.387 . S
H1045 C1041 0.950 . S
H1046 C1043 0.950 . S
C1047 C1038 1.390 . S
C1047 H1040 0.950 . S
C1047 C1044 1.387 . S
C1048 C1049 1.387 . S
C1048 H1052 0.950 . S
C1048 C1057 1.390 . S
C1049 C1048 1.387 . S
C1049 C1051 1.387 . S
H1050 C1057 0.950 . S
C1051 C1049 1.387 . S
C1051 C1053 1.390 . S
C1051 H1055 0.950 . S
H1052 C1048 0.950 . S
C1053 C1051 1.390 . S
C1053 C1054 1.387 . S
C1053 H1056 0.950 . S
C1054 C1053 1.387 . S
C1054 C1057 1.387 . S
H1055 C1051 0.950 . S
H1056 C1053 0.950 . S
C1057 C1048 1.390 . S
C1057 H1050 0.950 . S
C1057 C1054 1.387 . S
C1058 C1059 1.387 . S
C1058 H1062 0.950 . S
C1058 C1067 1.390 . S
C1059 C1058 1.387 . S
C1059 C1061 1.387 . S
H1060 C1067 0.950 . S
C1061 C1059 1.387 . S
C1061 C1063 1.390 . S
C1061 H1065 0.950 . S
H1062 C1058 0.950 . S
C1063 C1061 1.390 . S
C1063 C1064 1.387 . S
C1063 H1066 0.950 . S
C1064 C1063 1.387 . S
C1064 C1067 1.387 . S
H1065 C1061 0.950 . S
H1066 C1063 0.950 . S
C1067 C1058 1.390 . S
C1067 H1060 0.950 . S
C1067 C1064 1.387 . S
C1068 C1069 1.387 . S
C1068 H1072 0.950 . S
C1068 C1077 1.390 . S
C1069 C1068 1.387 . S
C1069 C1071 1.387 . S
H1070 C1077 0.950 . S
C1071 C1069 1.387 . S
C1071 C1073 1.390 . S
C1071 H1075 0.950 . S
H1072 C1068 0.950 . S
C1073 C1071 1.390 . S
C1073 C1074 1.387 . S
C1073 H1076 0.950 . S
C1074 C1073 1.387 . S
C1074 C1077 1.387 . S
H1075 C1071 0.950 . S
H1076 C1073 0.950 . S
C1077 C1068 1.390 . S
C1077 H1070 0.950 . S
C1077 C1074 1.387 . S
C1078 C1079 1.387 . S
C1078 H1082 0.950 . S
C1078 C1087 1.390 . S
C1079 C1078 1.387 . S
C1079 C1081 1.387 . S
H1080 C1087 0.950 . S
C1081 C1079 1.387 . S
C1081 C1083 1.390 . S
C1081 H1085 0.950 . S
H1082 C1078 0.950 . S
C1083 C1081 1.390 . S
C1083 C1084 1.387 . S
C1083 H1086 0.950 1_556 S
C1084 C1083 1.387 . S
C1084 C1087 1.387 . S
H1085 C1081 0.950 . S
H1086 C1083 0.950 1_554 S
C1087 C1078 1.390 . S
C1087 H1080 0.950 . S
C1087 C1084 1.387 . S
C449 C121 1.426 . S
C454 C9 1.426 . S
C459 C23 1.426 . S
C464 C359 1.426 . S
C469 C37 1.426 . S
C474 C149 1.426 . S
C479 C51 1.426 . S
C484 C387 1.426 . S
C489 C65 1.426 . S
C494 C177 1.426 . S
C499 C415 1.426 . S
C504 C79 1.426 . S
C509 C205 1.423 . S
C514 C93 1.423 . S
C519 C443 1.422 . S
C524 C107 1.422 . S
C529 C247 1.426 . S
C534 C135 1.426 . S
C539 C163 1.422 . S
C544 C275 1.422 . S
C549 C191 1.422 . S
C554 C303 1.422 . S
C559 C331 1.426 . S
C564 C219 1.426 . S
C569 C345 1.422 . S
C574 C233 1.422 . S
C579 C261 1.426 . S
C584 C373 1.426 . S
C589 C289 1.426 . S
C594 C401 1.426 . S
C599 C429 1.426 . S
C604 C317 1.426 . S
C609 C3 1.407 . S
C614 C59 1.407 . S
C619 C73 1.405 . S
C624 C17 1.405 . S
C629 C87 1.405 . S
C634 C31 1.405 . S
C639 C45 1.407 . S
C644 C101 1.407 . S
C649 C115 1.407 . S
C654 C171 1.407 . S
C659 C129 1.407 . S
C664 C185 1.407 . S
C669 C199 1.405 . S
C674 C143 1.405 . S
C679 C213 1.407 . S
C684 C157 1.407 . S
C689 C283 1.407 . S
C694 C227 1.407 . S
C699 C297 1.407 . S
C704 C241 1.407 . S
C709 C255 1.407 . S
C714 C311 1.407 . S
C719 C325 1.405 . S
C724 C269 1.405 . S
C729 C395 1.405 . S
C734 C339 1.405 . S
C739 C353 1.405 . S
C744 C409 1.405 . S
C749 C423 1.405 . S
C754 C367 1.405 . S
C759 C437 1.405 . S
C764 C381 1.405 . S
C769 C63 0.931 . S
C774 C7 0.931 . S
C779 C77 0.931 . S
C784 C21 0.931 . S
C789 C35 0.931 . S
C794 C91 0.931 . S
C799 C105 0.931 . S
C804 C49 0.931 . S
C809 C175 0.931 . S
C814 C119 0.931 . S
C819 C133 0.927 . S
C824 C189 0.927 . S
C829 C203 0.927 . S
C834 C147 0.927 . S
C839 C217 0.927 . S
C844 C161 0.927 . S
C849 C231 0.927 . S
C854 C287 0.927 . S
C859 C301 0.931 . S
C864 C245 0.931 . S
C869 C315 0.931 . S
C874 C259 0.931 . S
C879 C329 0.931 . S
C884 C273 0.931 . S
C889 C399 0.931 . S
C894 C343 0.931 . S
C899 C357 0.931 . S
C904 C413 0.931 . S
C909 C371 0.927 . S
C914 C427 0.927 . S
C919 C385 0.931 . S
C924 C441 0.931 . S
C929 C8 1.579 . S
C934 C302 1.579 . S
C939 C316 1.579 . S
C944 C22 1.578 . S
C949 C36 1.577 . S
C954 C330 1.577 . S
C959 C50 1.577 . S
C964 C288 1.577 1_556 S
C969 C274 1.579 . S
C974 C64 1.579 . S
C979 C232 1.578 . S
C984 C78 1.578 . S
C989 C246 1.579 . S
C994 C92 1.579 1_556 S
C999 C106 1.577 . S
C1004 C260 1.577 . S
C1009 C120 1.579 1_556 S
C1014 C414 1.579 . S
C1019 C428 1.577 . S
C1024 C134 1.577 . S
C1029 C442 1.577 . S
C1034 C148 1.577 . S
C1039 C400 1.577 . S
C1044 C162 1.577 . S
C1049 C386 1.577 . S
C1054 C176 1.578 . S
C1059 C344 1.578 . S
C1064 C190 1.578 . S
C1069 C204 1.577 . S
C1074 C358 1.577 . S
C1079 C218 1.577 . S
C1084 C372 1.577 1_556 S
