# Generated by pormake.
# Topology umr, (4)-cn, num edge types: 1
# Building blocks:
#     Node 0, Type 0, BuildingBlock: GALJAG_clean_sbu_0, # of connection points: 4
#     Node 1, Type 0, BuildingBlock: GALJAG_clean_sbu_0, # of connection points: 4
#     Node 2, Type 0, BuildingBlock: GALJAG_clean_sbu_0, # of connection points: 4
#     Node 3, Type 0, BuildingBlock: GALJAG_clean_sbu_0, # of connection points: 4
#     Node 4, Type 0, BuildingBlock: GALJAG_clean_sbu_0, # of connection points: 4
#     Node 5, Type 0, BuildingBlock: GALJAG_clean_sbu_0, # of connection points: 4
#     Node 6, Type 0, BuildingBlock: GALJAG_clean_sbu_0, # of connection points: 4
#     Node 7, Type 0, BuildingBlock: GALJAG_clean_sbu_0, # of connection points: 4
#     Node 8, Type 0, BuildingBlock: GALJAG_clean_sbu_0, # of connection points: 4
#     Node 9, Type 0, BuildingBlock: GALJAG_clean_sbu_0, # of connection points: 4
#     Node 10, Type 0, BuildingBlock: GALJAG_clean_sbu_0, # of connection points: 4
#     Node 11, Type 0, BuildingBlock: GALJAG_clean_sbu_0, # of connection points: 4
#     Node 12, Type 0, BuildingBlock: GALJAG_clean_sbu_0, # of connection points: 4
#     Node 13, Type 0, BuildingBlock: GALJAG_clean_sbu_0, # of connection points: 4
#     Node 14, Type 0, BuildingBlock: GALJAG_clean_sbu_0, # of connection points: 4
#     Node 15, Type 0, BuildingBlock: GALJAG_clean_sbu_0, # of connection points: 4
#     Node 16, Type 0, BuildingBlock: GALJAG_clean_sbu_0, # of connection points: 4
#     Node 17, Type 0, BuildingBlock: GALJAG_clean_sbu_0, # of connection points: 4
#     Node 18, Type 0, BuildingBlock: GALJAG_clean_sbu_0, # of connection points: 4
#     Node 19, Type 0, BuildingBlock: GALJAG_clean_sbu_0, # of connection points: 4
#     Node 20, Type 0, BuildingBlock: GALJAG_clean_sbu_0, # of connection points: 4
#     Node 21, Type 0, BuildingBlock: GALJAG_clean_sbu_0, # of connection points: 4
#     Node 22, Type 0, BuildingBlock: GALJAG_clean_sbu_0, # of connection points: 4
#     Node 23, Type 0, BuildingBlock: GALJAG_clean_sbu_0, # of connection points: 4
#     Node 24, Type 0, BuildingBlock: GALJAG_clean_sbu_0, # of connection points: 4
#     Node 25, Type 0, BuildingBlock: GALJAG_clean_sbu_0, # of connection points: 4
#     Node 26, Type 0, BuildingBlock: GALJAG_clean_sbu_0, # of connection points: 4
#     Node 27, Type 0, BuildingBlock: GALJAG_clean_sbu_0, # of connection points: 4
#     Node 28, Type 0, BuildingBlock: GALJAG_clean_sbu_0, # of connection points: 4
#     Node 29, Type 0, BuildingBlock: GALJAG_clean_sbu_0, # of connection points: 4
#     Node 30, Type 0, BuildingBlock: GALJAG_clean_sbu_0, # of connection points: 4
#     Node 31, Type 0, BuildingBlock: GALJAG_clean_sbu_0, # of connection points: 4
#     Edge 32, Type (0, 0), BuildingBlock: MIFKUJ_clean_linker_0, # of connection points: 2
#     Edge 33, Type (0, 0), BuildingBlock: MIFKUJ_clean_linker_0, # of connection points: 2
#     Edge 34, Type (0, 0), BuildingBlock: MIFKUJ_clean_linker_0, # of connection points: 2
#     Edge 35, Type (0, 0), BuildingBlock: MIFKUJ_clean_linker_0, # of connection points: 2
#     Edge 36, Type (0, 0), BuildingBlock: MIFKUJ_clean_linker_0, # of connection points: 2
#     Edge 37, Type (0, 0), BuildingBlock: MIFKUJ_clean_linker_0, # of connection points: 2
#     Edge 38, Type (0, 0), BuildingBlock: MIFKUJ_clean_linker_0, # of connection points: 2
#     Edge 39, Type (0, 0), BuildingBlock: MIFKUJ_clean_linker_0, # of connection points: 2
#     Edge 40, Type (0, 0), BuildingBlock: MIFKUJ_clean_linker_0, # of connection points: 2
#     Edge 41, Type (0, 0), BuildingBlock: MIFKUJ_clean_linker_0, # of connection points: 2
#     Edge 42, Type (0, 0), BuildingBlock: MIFKUJ_clean_linker_0, # of connection points: 2
#     Edge 43, Type (0, 0), BuildingBlock: MIFKUJ_clean_linker_0, # of connection points: 2
#     Edge 44, Type (0, 0), BuildingBlock: MIFKUJ_clean_linker_0, # of connection points: 2
#     Edge 45, Type (0, 0), BuildingBlock: MIFKUJ_clean_linker_0, # of connection points: 2
#     Edge 46, Type (0, 0), BuildingBlock: MIFKUJ_clean_linker_0, # of connection points: 2
#     Edge 47, Type (0, 0), BuildingBlock: MIFKUJ_clean_linker_0, # of connection points: 2
#     Edge 48, Type (0, 0), BuildingBlock: MIFKUJ_clean_linker_0, # of connection points: 2
#     Edge 49, Type (0, 0), BuildingBlock: MIFKUJ_clean_linker_0, # of connection points: 2
#     Edge 50, Type (0, 0), BuildingBlock: MIFKUJ_clean_linker_0, # of connection points: 2
#     Edge 51, Type (0, 0), BuildingBlock: MIFKUJ_clean_linker_0, # of connection points: 2
#     Edge 52, Type (0, 0), BuildingBlock: MIFKUJ_clean_linker_0, # of connection points: 2
#     Edge 53, Type (0, 0), BuildingBlock: MIFKUJ_clean_linker_0, # of connection points: 2
#     Edge 54, Type (0, 0), BuildingBlock: MIFKUJ_clean_linker_0, # of connection points: 2
#     Edge 55, Type (0, 0), BuildingBlock: MIFKUJ_clean_linker_0, # of connection points: 2
#     Edge 56, Type (0, 0), BuildingBlock: MIFKUJ_clean_linker_0, # of connection points: 2
#     Edge 57, Type (0, 0), BuildingBlock: MIFKUJ_clean_linker_0, # of connection points: 2
#     Edge 58, Type (0, 0), BuildingBlock: MIFKUJ_clean_linker_0, # of connection points: 2
#     Edge 59, Type (0, 0), BuildingBlock: MIFKUJ_clean_linker_0, # of connection points: 2
#     Edge 60, Type (0, 0), BuildingBlock: MIFKUJ_clean_linker_0, # of connection points: 2
#     Edge 61, Type (0, 0), BuildingBlock: MIFKUJ_clean_linker_0, # of connection points: 2
#     Edge 62, Type (0, 0), BuildingBlock: MIFKUJ_clean_linker_0, # of connection points: 2
#     Edge 63, Type (0, 0), BuildingBlock: MIFKUJ_clean_linker_0, # of connection points: 2
#     Edge 64, Type (0, 0), BuildingBlock: MIFKUJ_clean_linker_0, # of connection points: 2
#     Edge 65, Type (0, 0), BuildingBlock: MIFKUJ_clean_linker_0, # of connection points: 2
#     Edge 66, Type (0, 0), BuildingBlock: MIFKUJ_clean_linker_0, # of connection points: 2
#     Edge 67, Type (0, 0), BuildingBlock: MIFKUJ_clean_linker_0, # of connection points: 2
#     Edge 68, Type (0, 0), BuildingBlock: MIFKUJ_clean_linker_0, # of connection points: 2
#     Edge 69, Type (0, 0), BuildingBlock: MIFKUJ_clean_linker_0, # of connection points: 2
#     Edge 70, Type (0, 0), BuildingBlock: MIFKUJ_clean_linker_0, # of connection points: 2
#     Edge 71, Type (0, 0), BuildingBlock: MIFKUJ_clean_linker_0, # of connection points: 2
#     Edge 72, Type (0, 0), BuildingBlock: MIFKUJ_clean_linker_0, # of connection points: 2
#     Edge 73, Type (0, 0), BuildingBlock: MIFKUJ_clean_linker_0, # of connection points: 2
#     Edge 74, Type (0, 0), BuildingBlock: MIFKUJ_clean_linker_0, # of connection points: 2
#     Edge 75, Type (0, 0), BuildingBlock: MIFKUJ_clean_linker_0, # of connection points: 2
#     Edge 76, Type (0, 0), BuildingBlock: MIFKUJ_clean_linker_0, # of connection points: 2
#     Edge 77, Type (0, 0), BuildingBlock: MIFKUJ_clean_linker_0, # of connection points: 2
#     Edge 78, Type (0, 0), BuildingBlock: MIFKUJ_clean_linker_0, # of connection points: 2
#     Edge 79, Type (0, 0), BuildingBlock: MIFKUJ_clean_linker_0, # of connection points: 2
#     Edge 80, Type (0, 0), BuildingBlock: MIFKUJ_clean_linker_0, # of connection points: 2
#     Edge 81, Type (0, 0), BuildingBlock: MIFKUJ_clean_linker_0, # of connection points: 2
#     Edge 82, Type (0, 0), BuildingBlock: MIFKUJ_clean_linker_0, # of connection points: 2
#     Edge 83, Type (0, 0), BuildingBlock: MIFKUJ_clean_linker_0, # of connection points: 2
#     Edge 84, Type (0, 0), BuildingBlock: MIFKUJ_clean_linker_0, # of connection points: 2
#     Edge 85, Type (0, 0), BuildingBlock: MIFKUJ_clean_linker_0, # of connection points: 2
#     Edge 86, Type (0, 0), BuildingBlock: MIFKUJ_clean_linker_0, # of connection points: 2
#     Edge 87, Type (0, 0), BuildingBlock: MIFKUJ_clean_linker_0, # of connection points: 2
#     Edge 88, Type (0, 0), BuildingBlock: MIFKUJ_clean_linker_0, # of connection points: 2
#     Edge 89, Type (0, 0), BuildingBlock: MIFKUJ_clean_linker_0, # of connection points: 2
#     Edge 90, Type (0, 0), BuildingBlock: MIFKUJ_clean_linker_0, # of connection points: 2
#     Edge 91, Type (0, 0), BuildingBlock: MIFKUJ_clean_linker_0, # of connection points: 2
#     Edge 92, Type (0, 0), BuildingBlock: MIFKUJ_clean_linker_0, # of connection points: 2
#     Edge 93, Type (0, 0), BuildingBlock: MIFKUJ_clean_linker_0, # of connection points: 2
#     Edge 94, Type (0, 0), BuildingBlock: MIFKUJ_clean_linker_0, # of connection points: 2
#     Edge 95, Type (0, 0), BuildingBlock: MIFKUJ_clean_linker_0, # of connection points: 2
# Relax obj value: 0.027
# Max RMSD: 0.060
# Mean RMSD: 0.060
data_MOF--net-umr--node1-GALJAG_clean_sbu_0--edge1-MIFKUJ_clean_linker_0
_symmetry_space_group_name_H-M    P1
_symmetry_Int_Tables_number       1
_symmetry_cell_setting            triclinic
loop_
_symmetry_equiv_pos_as_xyz
'x, y, z'
_cell_length_a     104.15363
_cell_length_b     104.18131
_cell_length_c     36.685057
_cell_angle_alpha  90.04088
_cell_angle_beta   90.019205
_cell_angle_gamma 89.994995
loop_
_atom_site_label
_atom_site_type_symbol
_atom_site_fract_x
_atom_site_fract_y
_atom_site_fract_z
_atom_type_partial_charge
In0 In 0.15303 0.28133 0.04253 0.0
O1 O 0.14491 0.26672 0.08337 0.0
O2 O 0.15407 0.28348 0.10383 0.0
C3 C 0.14738 0.26825 0.98082 0.0
C4 C 0.13781 0.30202 0.04502 0.0
C5 C 0.17861 0.28415 0.03482 0.0
O6 O 0.15241 0.26292 0.00815 0.0
O7 O 0.14485 0.27997 0.98514 0.0
O8 O 0.17071 0.29228 0.02278 0.0
O9 O 0.1736 0.27472 0.0509 0.0
C10 C 0.1483 0.27316 0.11096 0.0
O11 O 0.1499 0.30289 0.04325 0.0
O12 O 0.13344 0.29069 0.04505 0.0
In13 In 0.96595 0.90603 0.2983 0.0
O14 O 0.94511 0.90035 0.30611 0.0
O15 O 0.95919 0.88548 0.30465 0.0
C16 C 0.96306 0.93154 0.28983 0.0
C17 C 0.97617 0.90399 0.36546 0.0
C18 C 0.97528 0.89961 0.23227 0.0
O19 O 0.9537 0.92386 0.28864 0.0
O20 O 0.97382 0.92634 0.29532 0.0
O21 O 0.98245 0.90057 0.25993 0.0
O22 O 0.96356 0.90174 0.23822 0.0
C23 C 0.94751 0.88848 0.30826 0.0
O24 O 0.98248 0.90101 0.33723 0.0
O25 O 0.96498 0.90809 0.3595 0.0
In26 In 0.33965 0.7165 0.5511 0.0
O27 O 0.34336 0.69508 0.55727 0.0
O28 O 0.35941 0.70747 0.54989 0.0
C29 C 0.31387 0.71712 0.5513 0.0
C30 C 0.34499 0.72716 0.61631 0.0
C31 C 0.34405 0.72413 0.48215 0.0
O32 O 0.32012 0.70675 0.55309 0.0
O33 O 0.32065 0.72715 0.54983 0.0
O34 O 0.34801 0.73052 0.50925 0.0
O35 O 0.33802 0.71402 0.49006 0.0
C36 C 0.35541 0.69618 0.55489 0.0
O37 O 0.34714 0.73303 0.58677 0.0
O38 O 0.34008 0.71619 0.61263 0.0
In39 In 0.53339 0.0906 0.79232 0.0
O40 O 0.55476 0.09332 0.8025 0.0
O41 O 0.54258 0.10971 0.80595 0.0
C42 C 0.53379 0.06532 0.77724 0.0
C43 C 0.52209 0.09244 0.85814 0.0
C44 C 0.52509 0.09926 0.72726 0.0
O45 O 0.54392 0.07183 0.78093 0.0
O46 O 0.52351 0.07153 0.78161 0.0
O47 O 0.5176 0.09746 0.75384 0.0
O48 O 0.53675 0.09706 0.73393 0.0
C49 C 0.55377 0.10519 0.80903 0.0
O50 O 0.51779 0.09829 0.83056 0.0
O51 O 0.53175 0.08547 0.8521 0.0
In52 In 0.1552 0.72087 0.44435 0.0
O53 O 0.14781 0.73615 0.40486 0.0
O54 O 0.16135 0.72243 0.38554 0.0
C55 C 0.14579 0.72987 0.5076 0.0
C56 C 0.1407 0.70067 0.42571 0.0
C57 C 0.18005 0.71979 0.46416 0.0
O58 O 0.1492 0.73726 0.4821 0.0
O59 O 0.14676 0.71807 0.50055 0.0
O60 O 0.17284 0.71005 0.4648 0.0
O61 O 0.17477 0.72994 0.45299 0.0
C62 C 0.15425 0.73189 0.37827 0.0
O63 O 0.15268 0.69973 0.43048 0.0
O64 O 0.13609 0.71171 0.4312 0.0
In65 In 0.5329 0.90453 0.70671 0.0
O66 O 0.5157 0.89891 0.67098 0.0
O67 O 0.53375 0.90223 0.64549 0.0
C68 C 0.52432 0.90063 0.7751 0.0
C69 C 0.55307 0.88853 0.70352 0.0
C70 C 0.53345 0.93029 0.70368 0.0
O71 O 0.51924 0.89514 0.74797 0.0
O72 O 0.53361 0.90788 0.76758 0.0
O73 O 0.54353 0.9236 0.7061 0.0
O74 O 0.52313 0.92396 0.7022 0.0
C75 C 0.52213 0.89914 0.64173 0.0
O76 O 0.55436 0.90058 0.70258 0.0
O77 O 0.54167 0.88465 0.70733 0.0
In78 In 0.33907 0.28122 0.94783 0.0
O79 O 0.3437 0.30243 0.94139 0.0
O80 O 0.35861 0.28881 0.93181 0.0
C81 C 0.31374 0.28304 0.96133 0.0
C82 C 0.34023 0.26927 0.88281 0.0
C83 C 0.34743 0.27339 0.01356 0.0
O84 O 0.32036 0.29256 0.95138 0.0
O85 O 0.31987 0.27265 0.96411 0.0
O86 O 0.34548 0.26566 0.9876 0.0
O87 O 0.34543 0.28503 0.00601 0.0
C88 C 0.35522 0.30045 0.93217 0.0
O89 O 0.34552 0.26468 0.91093 0.0
O90 O 0.3341 0.27953 0.88798 0.0
In91 In 0.96429 0.0916 0.20509 0.0
O92 O 0.97961 0.09842 0.1646 0.0
O93 O 0.96426 0.08694 0.14475 0.0
C94 C 0.97462 0.09916 0.26895 0.0
C95 C 0.9448 0.10794 0.19419 0.0
C96 C 0.96174 0.06637 0.21906 0.0
O97 O 0.98145 0.09633 0.24167 0.0
O98 O 0.96269 0.09844 0.26363 0.0
O99 O 0.9522 0.07372 0.21564 0.0
O100 O 0.97251 0.07171 0.21505 0.0
C101 C 0.97429 0.09319 0.13745 0.0
O102 O 0.94302 0.09611 0.19971 0.0
O103 O 0.95638 0.11152 0.1951 0.0
In104 In 0.83974 0.71874 0.94517 0.0
O105 O 0.8436 0.69846 0.92456 0.0
O106 O 0.85934 0.71144 0.92796 0.0
C107 C 0.81459 0.71558 0.95889 0.0
C108 C 0.84012 0.73347 0.88502 0.0
C109 C 0.8476 0.7251 0.01282 0.0
O110 O 0.8221 0.70616 0.95484 0.0
O111 O 0.81983 0.72646 0.9563 0.0
O112 O 0.84475 0.7334 0.98913 0.0
O113 O 0.84678 0.71363 0.00208 0.0
C114 C 0.85543 0.70038 0.91934 0.0
O115 O 0.84741 0.73569 0.91184 0.0
O116 O 0.83264 0.72407 0.88908 0.0
In117 In 0.02856 0.09393 0.70529 0.0
O118 O 0.01326 0.10059 0.66455 0.0
O119 O 0.02875 0.08923 0.64504 0.0
C120 C 0.01824 0.10119 0.76937 0.0
C121 C 0.04796 0.11033 0.69409 0.0
C122 C 0.03082 0.06867 0.71887 0.0
O123 O 0.01144 0.09887 0.74162 0.0
O124 O 0.03017 0.10018 0.7644 0.0
O125 O 0.04043 0.07601 0.71701 0.0
O126 O 0.02015 0.07406 0.7136 0.0
C127 C 0.01866 0.09534 0.63755 0.0
O128 O 0.04973 0.09843 0.69843 0.0
O129 O 0.03642 0.11397 0.6964 0.0
In130 In 0.65324 0.2721 0.44828 0.0
O131 O 0.64296 0.25951 0.40628 0.0
O132 O 0.66292 0.26262 0.39933 0.0
C133 C 0.64338 0.26462 0.51299 0.0
C134 C 0.63972 0.29266 0.4264 0.0
C135 C 0.67812 0.27588 0.46415 0.0
O136 O 0.64718 0.25668 0.48935 0.0
O137 O 0.64435 0.27619 0.50366 0.0
O138 O 0.67146 0.28415 0.44746 0.0
O139 O 0.67221 0.26571 0.47259 0.0
C140 C 0.6528 0.25762 0.38709 0.0
O141 O 0.65079 0.29371 0.44014 0.0
O142 O 0.6356 0.28132 0.42384 0.0
In143 In 0.46987 0.90436 0.20968 0.0
O144 O 0.48287 0.89343 0.16982 0.0
O145 O 0.47653 0.91204 0.15485 0.0
C146 C 0.47776 0.89609 0.27569 0.0
C147 C 0.44886 0.89079 0.19169 0.0
C148 C 0.46818 0.92949 0.22509 0.0
O149 O 0.48552 0.89807 0.24986 0.0
O150 O 0.46616 0.89809 0.26791 0.0
O151 O 0.45842 0.92269 0.21831 0.0
O152 O 0.47877 0.92359 0.22395 0.0
C153 C 0.48278 0.90217 0.14607 0.0
O154 O 0.44869 0.90288 0.1941 0.0
O155 O 0.45956 0.88566 0.19854 0.0
In156 In 0.83833 0.28092 0.54614 0.0
O157 O 0.85098 0.26796 0.58157 0.0
O158 O 0.83165 0.27087 0.59783 0.0
C159 C 0.84525 0.27465 0.47754 0.0
C160 C 0.85151 0.30167 0.56884 0.0
C161 C 0.81292 0.28246 0.53548 0.0
O162 O 0.84622 0.2668 0.50362 0.0
O163 O 0.84088 0.2855 0.48622 0.0
O164 O 0.81994 0.29233 0.53811 0.0
O165 O 0.81876 0.27187 0.53826 0.0
C166 C 0.84233 0.26577 0.60478 0.0
O167 O 0.8396 0.30054 0.5742 0.0
O168 O 0.85657 0.29252 0.55163 0.0
In169 In 0.47023 0.09108 0.29293 0.0
O170 O 0.44912 0.09604 0.29972 0.0
O171 O 0.46284 0.11123 0.3023 0.0
C172 C 0.46828 0.06546 0.28453 0.0
C173 C 0.48082 0.09368 0.35944 0.0
C174 C 0.47904 0.09787 0.22666 0.0
O175 O 0.45856 0.0727 0.28527 0.0
O176 O 0.47888 0.07116 0.28802 0.0
O177 O 0.48648 0.09602 0.25334 0.0
O178 O 0.46728 0.09646 0.23365 0.0
C179 C 0.4512 0.10789 0.30428 0.0
O180 O 0.48643 0.09764 0.33103 0.0
O181 O 0.47017 0.08827 0.35393 0.0
In182 In 0.65497 0.72122 0.0452 0.0
O183 O 0.64716 0.73683 0.08292 0.0
O184 O 0.66417 0.72703 0.09869 0.0
C185 C 0.64474 0.72836 0.98072 0.0
C186 C 0.64088 0.70196 0.07278 0.0
C187 C 0.67965 0.71776 0.0261 0.0
O188 O 0.64902 0.73636 0.00349 0.0
O189 O 0.64532 0.71683 0.9909 0.0
O190 O 0.67245 0.70855 0.03522 0.0
O191 O 0.67437 0.72867 0.02662 0.0
C192 C 0.65579 0.73529 0.10668 0.0
O193 O 0.65178 0.70013 0.05867 0.0
O194 O 0.63698 0.71342 0.07202 0.0
In195 In 0.03193 0.9082 0.80014 0.0
O196 O 0.05293 0.90309 0.80829 0.0
O197 O 0.03956 0.88785 0.80013 0.0
C198 C 0.03361 0.9339 0.79556 0.0
C199 C 0.02163 0.90413 0.86646 0.0
C200 C 0.0227 0.9032 0.73306 0.0
O201 O 0.04335 0.92673 0.79354 0.0
O202 O 0.02312 0.92811 0.80027 0.0
O203 O 0.01566 0.90275 0.7611 0.0
O204 O 0.03428 0.90601 0.7391 0.0
C205 C 0.05105 0.89113 0.80594 0.0
O206 O 0.01567 0.90134 0.83749 0.0
O207 O 0.03255 0.90907 0.86171 0.0
In208 In 0.65598 0.77734 0.54715 0.0
O209 O 0.64834 0.76077 0.58254 0.0
O210 O 0.65732 0.77664 0.60844 0.0
C211 C 0.65036 0.76506 0.48437 0.0
C212 C 0.6412 0.79812 0.5573 0.0
C213 C 0.68102 0.78254 0.53699 0.0
O214 O 0.65888 0.76109 0.50606 0.0
O215 O 0.64438 0.77487 0.49506 0.0
O216 O 0.67227 0.7885 0.52025 0.0
O217 O 0.67711 0.77405 0.55885 0.0
C218 C 0.65164 0.76606 0.61209 0.0
O219 O 0.6533 0.79881 0.55599 0.0
O220 O 0.63662 0.78705 0.55231 0.0
In221 In 0.46748 0.4087 0.80875 0.0
O222 O 0.48277 0.40016 0.84678 0.0
O223 O 0.46751 0.41095 0.8701 0.0
C224 C 0.47763 0.4028 0.74317 0.0
C225 C 0.44729 0.39304 0.8168 0.0
C226 C 0.46536 0.43431 0.80095 0.0
O227 O 0.48455 0.40527 0.77056 0.0
O228 O 0.46572 0.40308 0.74917 0.0
O229 O 0.45598 0.42681 0.79663 0.0
O230 O 0.47577 0.4289 0.80937 0.0
C231 C 0.47752 0.40441 0.8754 0.0
O232 O 0.44622 0.40512 0.81748 0.0
O233 O 0.45853 0.38889 0.81149 0.0
In234 In 0.84521 0.22437 0.04397 0.0
O235 O 0.85526 0.23936 0.07993 0.0
O236 O 0.83817 0.23062 0.09951 0.0
C237 C 0.85379 0.2292 0.97623 0.0
C238 C 0.85845 0.20362 0.06564 0.0
C239 C 0.82013 0.22474 0.02733 0.0
O240 O 0.85298 0.23791 0.00015 0.0
O241 O 0.85068 0.21814 0.98702 0.0
O242 O 0.82574 0.21474 0.03859 0.0
O243 O 0.82716 0.23459 0.02504 0.0
C244 C 0.84725 0.23831 0.1056 0.0
O245 O 0.84644 0.20334 0.06101 0.0
O246 O 0.86369 0.21428 0.05901 0.0
In247 In 0.03231 0.58898 0.30045 0.0
O248 O 0.01649 0.59593 0.33912 0.0
O249 O 0.03267 0.58636 0.36176 0.0
C250 C 0.02287 0.59543 0.23461 0.0
C251 C 0.0518 0.60559 0.3076 0.0
C252 C 0.03364 0.56335 0.29185 0.0
O253 O 0.0158 0.59453 0.26248 0.0
O254 O 0.03462 0.59331 0.24022 0.0
O255 O 0.04354 0.57023 0.29537 0.0
O256 O 0.02316 0.56939 0.29311 0.0
C257 C 0.02213 0.59196 0.36746 0.0
O258 O 0.0536 0.59365 0.30407 0.0
O259 O 0.0402 0.60909 0.30701 0.0
In260 In 0.66136 0.21475 0.94082 0.0
O261 O 0.65876 0.19321 0.93242 0.0
O262 O 0.64227 0.20449 0.94479 0.0
C263 C 0.68697 0.21718 0.93714 0.0
C264 C 0.65394 0.22523 0.87731 0.0
C265 C 0.65819 0.22157 0.01093 0.0
O266 O 0.68146 0.2064 0.93937 0.0
O267 O 0.67951 0.22673 0.93589 0.0
O268 O 0.65298 0.2278 0.98528 0.0
O269 O 0.66479 0.21206 0.00098 0.0
C270 C 0.64677 0.19355 0.93741 0.0
O271 O 0.65188 0.23079 0.90744 0.0
O272 O 0.65988 0.21472 0.87958 0.0
In273 In 0.02691 0.40324 0.20524 0.0
O274 O 0.01348 0.39224 0.1667 0.0
O275 O 0.01841 0.41142 0.1532 0.0
C276 C 0.01977 0.39474 0.2718 0.0
C277 C 0.04725 0.39043 0.17859 0.0
C278 C 0.02969 0.42822 0.22134 0.0
O279 O 0.01173 0.39731 0.24714 0.0
O280 O 0.03133 0.39613 0.26252 0.0
O281 O 0.03917 0.42072 0.21843 0.0
O282 O 0.01885 0.42308 0.21624 0.0
C283 C 0.01255 0.40133 0.14415 0.0
O284 O 0.04715 0.4025 0.18153 0.0
O285 O 0.03728 0.38489 0.19007 0.0
In286 In 0.83984 0.77632 0.44671 0.0
O287 O 0.84641 0.75935 0.41132 0.0
O288 O 0.83369 0.77303 0.38828 0.0
C289 C 0.84761 0.76824 0.51273 0.0
C290 C 0.85671 0.79488 0.43055 0.0
C291 C 0.81495 0.78107 0.46121 0.0
O292 O 0.84302 0.76066 0.48919 0.0
O293 O 0.84857 0.77976 0.50256 0.0
O294 O 0.82202 0.7891 0.44512 0.0
O295 O 0.82039 0.77068 0.46959 0.0
C296 C 0.8403 0.76306 0.38354 0.0
O297 O 0.84533 0.79731 0.44022 0.0
O298 O 0.8596 0.78311 0.42977 0.0
In299 In 0.46958 0.59301 0.69756 0.0
O300 O 0.48468 0.5987 0.65499 0.0
O301 O 0.46906 0.58696 0.63828 0.0
C302 C 0.48024 0.60186 0.75969 0.0
C303 C 0.44998 0.60898 0.68439 0.0
C304 C 0.46695 0.56812 0.71562 0.0
O305 O 0.48693 0.59835 0.73276 0.0
O306 O 0.46828 0.60126 0.75473 0.0
O307 O 0.45744 0.57539 0.7104 0.0
O308 O 0.47774 0.57337 0.71136 0.0
C309 C 0.47909 0.59291 0.62921 0.0
O310 O 0.44831 0.59749 0.69425 0.0
O311 O 0.46157 0.61251 0.68234 0.0
In312 In 0.34312 0.21858 0.44826 0.0
O313 O 0.34942 0.23491 0.41024 0.0
O314 O 0.33863 0.21942 0.3881 0.0
C315 C 0.35045 0.22708 0.51436 0.0
C316 C 0.35976 0.19963 0.43373 0.0
C317 C 0.31779 0.21624 0.4611 0.0
O318 O 0.34843 0.23464 0.48804 0.0
O319 O 0.34909 0.21535 0.50695 0.0
O320 O 0.32503 0.20662 0.45725 0.0
O321 O 0.32332 0.22696 0.45819 0.0
C322 C 0.34441 0.22984 0.38232 0.0
O323 O 0.34789 0.19761 0.43803 0.0
O324 O 0.36323 0.21117 0.43765 0.0
In325 In 0.5336 0.58974 0.19414 0.0
O326 O 0.51863 0.59793 0.15458 0.0
O327 O 0.53472 0.58804 0.13268 0.0
C328 C 0.52288 0.59477 0.25941 0.0
C329 C 0.5532 0.60636 0.19138 0.0
C330 C 0.53565 0.56407 0.19989 0.0
O331 O 0.51622 0.59367 0.23078 0.0
O332 O 0.5348 0.59348 0.25484 0.0
O333 O 0.54521 0.57144 0.20267 0.0
O334 O 0.52511 0.56964 0.19399 0.0
C335 C 0.52452 0.59414 0.12644 0.0
O336 O 0.55481 0.59437 0.1891 0.0
O337 O 0.5417 0.60993 0.1954 0.0
In338 In 0.1571 0.77754 0.944 0.0
O339 O 0.15208 0.76114 0.90516 0.0
O340 O 0.16427 0.77606 0.88597 0.0
C341 C 0.14697 0.76901 0.00679 0.0
C342 C 0.1409 0.79619 0.92393 0.0
C343 C 0.18177 0.78024 0.96429 0.0
O344 O 0.15058 0.76149 0.98182 0.0
O345 O 0.1482 0.78078 -0.00037 0.0
O346 O 0.17501 0.78965 0.95421 0.0
O347 O 0.17609 0.76955 0.96391 0.0
C348 C 0.15834 0.76581 0.87884 0.0
O349 O 0.15201 0.79858 0.93608 0.0
O350 O 0.13794 0.78445 0.92283 0.0
In351 In 0.96464 0.40496 0.70256 0.0
O352 O 0.98186 0.39883 0.66742 0.0
O353 O 0.96411 0.40285 0.64121 0.0
C354 C 0.97349 0.40145 0.77099 0.0
C355 C 0.94363 0.38996 0.70166 0.0
C356 C 0.96428 0.43066 0.6983 0.0
O357 O 0.97727 0.39456 0.74475 0.0
O358 O 0.96533 0.40985 0.76261 0.0
O359 O 0.95415 0.42401 0.69915 0.0
O360 O 0.97461 0.42429 0.69881 0.0
C361 C 0.97565 0.39942 0.63785 0.0
O362 O 0.94295 0.40205 0.70171 0.0
O363 O 0.95487 0.38549 0.70309 0.0
In364 In 0.34243 0.78051 0.0474 0.0
O365 O 0.34484 0.80181 0.06006 0.0
O366 O 0.36139 0.78983 0.06168 0.0
C367 C 0.31715 0.78182 0.03346 0.0
C368 C 0.34394 0.76857 0.11243 0.0
C369 C 0.35066 0.77205 0.98185 0.0
O370 O 0.32422 0.79168 0.034 0.0
O371 O 0.32288 0.77138 0.03967 0.0
O372 O 0.34809 0.76448 0.00771 0.0
O373 O 0.34935 0.78377 0.98941 0.0
C374 C 0.35675 0.80092 0.06588 0.0
O375 O 0.35154 0.76595 0.08663 0.0
O376 O 0.3356 0.77693 0.10503 0.0
In377 In 0.96709 0.5898 0.79933 0.0
O378 O 0.94597 0.59489 0.80546 0.0
O379 O 0.95977 0.60998 0.80871 0.0
C380 C 0.96547 0.5644 0.78683 0.0
C381 C 0.97715 0.59125 0.86679 0.0
C382 C 0.97629 0.59705 0.73392 0.0
O383 O 0.95565 0.57148 0.7887 0.0
O384 O 0.976 0.57012 0.79181 0.0
O385 O 0.98352 0.59572 0.76135 0.0
O386 O 0.96456 0.59499 0.73988 0.0
C387 C 0.9481 0.60673 0.81001 0.0
O388 O 0.98291 0.59577 0.83931 0.0
O389 O 0.96658 0.58587 0.85991 0.0
In390 In 0.15713 0.21757 0.54179 0.0
O391 O 0.15062 0.23244 0.58406 0.0
O392 O 0.16236 0.21691 0.60159 0.0
C393 C 0.14975 0.22792 0.47785 0.0
C394 C 0.14015 0.19867 0.55304 0.0
C395 C 0.18246 0.21545 0.52916 0.0
O396 O 0.15151 0.23468 0.50604 0.0
O397 O 0.15156 0.21606 0.48225 0.0
O398 O 0.17507 0.20583 0.52918 0.0
O399 O 0.17704 0.22606 0.53539 0.0
C400 C 0.15617 0.22684 0.61029 0.0
O401 O 0.15193 0.19645 0.54778 0.0
O402 O 0.13698 0.21035 0.55162 0.0
In403 In 0.53117 0.40563 0.30508 0.0
O404 O 0.51573 0.3994 0.34616 0.0
O405 O 0.53071 0.41164 0.36441 0.0
C406 C 0.52119 0.39696 0.24196 0.0
C407 C 0.55065 0.38954 0.3188 0.0
C408 C 0.53393 0.43036 0.28542 0.0
O409 O 0.51419 0.40013 0.26863 0.0
O410 O 0.53309 0.39793 0.24759 0.0
O411 O 0.54338 0.42291 0.28936 0.0
O412 O 0.52314 0.42536 0.29187 0.0
C413 C 0.52077 0.40538 0.37248 0.0
O414 O 0.55221 0.40154 0.31669 0.0
O415 O 0.5393 0.38569 0.31356 0.0
H416 H 0.29751 0.30289 0.94591 0.0
H417 H 0.27446 0.30407 0.95849 0.0
H418 H 0.27591 0.26658 0.00839 0.0
H419 H 0.29882 0.26519 0.99484 0.0
H420 H 0.25606 0.2681 0.96505 0.0
H421 H 0.27395 0.29488 0.05916 0.0
H422 H 0.2869 0.31271 0.08374 0.0
H423 H 0.26407 0.33978 0.02386 0.0
H424 H 0.25108 0.32209 -0.00146 0.0
H425 H 0.19707 0.26756 0.05779 0.0
H426 H 0.22009 0.26857 0.04553 0.0
H427 H 0.21477 0.30407 0.98694 0.0
H428 H 0.19166 0.30317 -0.00063 0.0
H429 H 0.23621 0.30438 0.03225 0.0
H430 H 0.21792 0.27726 0.93987 0.0
H431 H 0.20486 0.25924 0.9169 0.0
H432 H 0.22856 0.23255 0.97541 0.0
H433 H 0.24166 0.25043 -0.00083 0.0
C434 C 0.29289 0.29492 0.95961 0.0
C435 C 0.29992 0.28394 0.96937 0.0
C436 C 0.27975 0.29563 0.96695 0.0
C437 C 0.27349 0.28547 0.98475 0.0
C438 C 0.28054 0.27452 0.99457 0.0
C439 C 0.29362 0.27374 0.98686 0.0
C440 C 0.25954 0.28606 0.99249 0.0
C441 C 0.25176 0.27596 0.98014 0.0
C442 C 0.25387 0.29649 0.01133 0.0
C443 C 0.26163 0.30715 0.02667 0.0
C444 C 0.27175 0.30463 0.05102 0.0
C445 C 0.27909 0.31471 0.06512 0.0
C446 C 0.27633 0.32737 0.05529 0.0
C447 C 0.26621 0.32997 0.03141 0.0
C448 C 0.25885 0.31992 0.0172 0.0
C449 C 0.2008 0.27562 0.04249 0.0
C450 C 0.19258 0.28524 0.02929 0.0
C451 C 0.21394 0.27617 0.03545 0.0
C452 C 0.21907 0.2863 0.01492 0.0
C453 C 0.21096 0.29616 0.00274 0.0
C454 C 0.19778 0.29561 0.00977 0.0
C455 C 0.23285 0.28633 0.00528 0.0
C456 C 0.24055 0.29655 0.01712 0.0
C457 C 0.23848 0.27598 0.98613 0.0
C458 C 0.23071 0.2652 0.97154 0.0
C459 C 0.2203 0.26755 0.94804 0.0
C460 C 0.21289 0.25737 0.93485 0.0
C461 C 0.21586 0.24476 0.94475 0.0
C462 C 0.22627 0.24232 0.96779 0.0
C463 C 0.23369 0.25248 0.98109 0.0
H464 H 0.21012 0.23689 0.93452 0.0
H465 H 0.28203 0.33516 0.06623 0.0
H466 H 0.94111 0.94486 0.27468 0.0
H467 H 0.93895 0.96803 0.26522 0.0
H468 H 0.97957 0.97279 0.28402 0.0
H469 H 0.98177 0.9497 0.29378 0.0
H470 H 0.96545 0.99086 0.31972 0.0
H471 H 0.96789 0.97282 0.1985 0.0
H472 H 0.96124 0.95854 0.14831 0.0
H473 H 0.92368 0.97552 0.14863 0.0
H474 H 0.93007 0.98983 0.19912 0.0
H475 H 0.98085 0.04977 0.23715 0.0
H476 H 0.97884 0.02703 0.25231 0.0
H477 H 0.93789 0.02912 0.2357 0.0
H478 H 0.93981 0.05199 0.22062 0.0
H479 H 0.94952 0.00791 0.20175 0.0
H480 H 0.94764 0.02722 0.31949 0.0
H481 H 0.95436 0.04164 0.36925 0.0
H482 H 0.99079 0.02245 0.3753 0.0
H483 H 0.98431 0.00795 0.32536 0.0
C484 C 0.94956 0.95086 0.27689 0.0
C485 C 0.96162 0.9455 0.28482 0.0
C486 C 0.94832 0.96407 0.2714 0.0
C487 C 0.95912 0.97209 0.27366 0.0
C488 C 0.97112 0.96676 0.2822 0.0
C489 C 0.97237 0.95357 0.28762 0.0
C490 C 0.95805 0.98602 0.26661 0.0
C491 C 0.96205 0.99459 0.29385 0.0
C492 C 0.95326 0.99086 0.23323 0.0
C493 C 0.94941 0.98229 0.20285 0.0
C494 C 0.95818 0.97343 0.18807 0.0
C495 C 0.95447 0.96535 0.15953 0.0
C496 C 0.94203 0.96608 0.14538 0.0
C497 C 0.9333 0.97494 0.15966 0.0
C498 C 0.93697 0.98305 0.18822 0.0
C499 C 0.97141 0.04539 0.23672 0.0
C500 C 0.96048 0.05262 0.22775 0.0
C501 C 0.97028 0.03243 0.24554 0.0
C502 C 0.9582 0.02647 0.24543 0.0
C503 C 0.94727 0.0336 0.23602 0.0
C504 C 0.94839 0.04663 0.2275 0.0
C505 C 0.95715 0.0127 0.25461 0.0
C506 C 0.95275 0.00417 0.2278 0.0
C507 C 0.96157 0.00789 0.28838 0.0
C508 C 0.96552 0.01656 0.31848 0.0
C509 C 0.95712 0.02614 0.33125 0.0
C510 C 0.96088 0.03431 0.35954 0.0
C511 C 0.97301 0.033 0.37536 0.0
C512 C 0.98139 0.02347 0.363 0.0
C513 C 0.97767 0.01524 0.33476 0.0
H514 H 0.97591 0.03935 0.39723 0.0
H515 H 0.93917 0.95981 0.12328 0.0
H516 H 0.19311 0.69967 0.49425 0.0
H517 H 0.21562 0.69928 0.51358 0.0
H518 H 0.21989 0.73878 0.48043 0.0
H519 H 0.19746 0.73921 0.46088 0.0
H520 H 0.23928 0.72412 0.4555 0.0
H521 H 0.21856 0.73177 0.56997 0.0
H522 H 0.20314 0.72799 0.61979 0.0
H523 H 0.21902 0.69046 0.63721 0.0
H524 H 0.23457 0.69403 0.58745 0.0
H525 H 0.29879 0.73789 0.53747 0.0
H526 H 0.2756 0.73812 0.52715 0.0
H527 H 0.27387 0.69747 0.54869 0.0
H528 H 0.29714 0.69713 0.5589 0.0
H529 H 0.25326 0.7123 0.58043 0.0
H530 H 0.27459 0.70563 0.4653 0.0
H531 H 0.29043 0.71069 0.41747 0.0
H532 H 0.2731 0.74769 0.40206 0.0
H533 H 0.25728 0.74293 0.45025 0.0
C534 C 0.19886 0.70826 0.49113 0.0
C535 C 0.19357 0.71946 0.47597 0.0
C536 C 0.21167 0.70805 0.50237 0.0
C537 C 0.21937 0.71903 0.49866 0.0
C538 C 0.2141 0.73021 0.48352 0.0
C539 C 0.20129 0.73044 0.4724 0.0
C540 C 0.23306 0.71877 0.50941 0.0
C541 C 0.24232 0.72169 0.48293 0.0
C542 C 0.23701 0.71536 0.54502 0.0
C543 C 0.22764 0.71312 0.57476 0.0
C544 C 0.2187 0.72267 0.58424 0.0
C545 C 0.20996 0.72058 0.61253 0.0
C546 C 0.21006 0.70897 0.63154 0.0
C547 C 0.21894 0.69944 0.62241 0.0
C548 C 0.22775 0.70151 0.59425 0.0
C549 C 0.29346 0.72903 0.54045 0.0
C550 C 0.29976 0.71747 0.54868 0.0
C551 C 0.28023 0.72918 0.53452 0.0
C552 C 0.2731 0.71779 0.53687 0.0
C553 C 0.27925 0.70634 0.54677 0.0
C554 C 0.29252 0.70616 0.55242 0.0
C555 C 0.2594 0.71772 0.52656 0.0
C556 C 0.25017 0.71471 0.55303 0.0
C557 C 0.25544 0.72115 0.491 0.0
C558 C 0.26483 0.72397 0.46163 0.0
C559 C 0.27422 0.71488 0.45191 0.0
C560 C 0.28318 0.7177 0.42471 0.0
C561 C 0.28279 0.72952 0.4068 0.0
C562 C 0.2734 0.73854 0.41599 0.0
C563 C 0.26443 0.73579 0.44322 0.0
H564 H 0.28974 0.73168 0.38577 0.0
H565 H 0.20328 0.70736 0.65342 0.0
H566 H 0.51321 0.05014 0.76183 0.0
H567 H 0.51332 0.02738 0.74584 0.0
H568 H 0.55459 0.0266 0.75602 0.0
H569 H 0.55458 0.04949 0.77124 0.0
H570 H 0.54694 0.01381 0.69648 0.0
H571 H 0.53529 0.01447 0.82309 0.0
H572 H 0.52271 0.02109 0.87685 0.0
H573 H 0.4885 0.00568 0.8283 0.0
H574 H 0.50085 -0.00087 0.77401 0.0
H575 H 0.55431 0.94592 0.71118 0.0
H576 H 0.55435 0.96922 0.71935 0.0
H577 H 0.51313 0.96987 0.70761 0.0
H578 H 0.513 0.94655 0.69994 0.0
H579 H 0.52069 0.98279 0.76692 0.0
H580 H 0.53264 0.9816 0.64071 0.0
H581 H 0.54541 0.97492 0.58738 0.0
H582 H 0.57929 0.99113 0.63569 0.0
H583 H 0.56676 0.99775 0.68956 0.0
C584 C 0.52231 0.04511 0.76072 0.0
C585 C 0.53389 0.05155 0.76797 0.0
C586 C 0.52235 0.03211 0.75167 0.0
C587 C 0.53395 0.02526 0.75022 0.0
C588 C 0.54554 0.0317 0.75705 0.0
C589 C 0.54551 0.04475 0.76587 0.0
C590 C 0.53396 0.01137 0.74166 0.0
C591 C 0.54134 0.00699 0.71215 0.0
C592 C 0.52642 0.00254 0.76164 0.0
C593 C 0.51898 0.00642 0.79434 0.0
C594 C 0.52507 0.01258 0.82376 0.0
C595 C 0.51798 0.01631 0.85435 0.0
C596 C 0.50481 0.01384 0.85595 0.0
C597 C 0.4987 0.00761 0.827 0.0
C598 C 0.50574 0.00387 0.79633 0.0
C599 C 0.54527 0.95105 0.70989 0.0
C600 C 0.53364 0.94444 0.70504 0.0
C601 C 0.54532 0.96436 0.71442 0.0
C602 C 0.53375 0.97127 0.71389 0.0
C603 C 0.52216 0.96471 0.70814 0.0
C604 C 0.52211 0.9514 0.70367 0.0
C605 C 0.53364 0.98522 0.72165 0.0
C606 C 0.52627 0.98961 0.75114 0.0
C607 C 0.54122 0.99403 0.70172 0.0
C608 C 0.54878 0.99006 0.66933 0.0
C609 C 0.54284 0.98364 0.64011 0.0
C610 C 0.55003 0.97989 0.60975 0.0
C611 C 0.56316 0.98257 0.60819 0.0
C612 C 0.56912 0.98904 0.63695 0.0
C613 C 0.56198 0.99281 0.66739 0.0
H614 H 0.56871 0.97966 0.58466 0.0
H615 H 0.49934 0.01673 0.87965 0.0
H616 H 0.69322 0.69533 0.02381 0.0
H617 H 0.71602 0.69263 0.0093 0.0
H618 H 0.71954 0.73347 0.99258 0.0
H619 H 0.69678 0.73621 0.00651 0.0
H620 H 0.73171 0.72026 0.94002 0.0
H621 H 0.7294 0.71944 0.07159 0.0
H622 H 0.72192 0.71144 0.13115 0.0
H623 H 0.73715 0.67411 0.10675 0.0
H624 H 0.74458 0.68186 0.04679 0.0
H625 H 0.79681 0.73459 0.96282 0.0
H626 H 0.77369 0.7324 0.97109 0.0
H627 H 0.77769 0.69124 0.97693 0.0
H628 H 0.80099 0.69336 0.96867 0.0
H629 H 0.76161 0.70144 0.03081 0.0
H630 H 0.7662 0.70341 0.90154 0.0
H631 H 0.7741 0.71202 0.84313 0.0
H632 H 0.75478 0.7477 0.86386 0.0
H633 H 0.74693 0.73937 0.92269 0.0
C634 C 0.69887 0.70371 0.0169 0.0
C635 C 0.69326 0.71599 0.01642 0.0
C636 C 0.71188 0.70216 0.00874 0.0
C637 C 0.71948 0.71287 0.00021 0.0
C638 C 0.71383 0.72509 -0.00093 0.0
C639 C 0.70085 0.72664 0.00716 0.0
C640 C 0.73339 0.71148 0.99294 0.0
C641 C 0.73826 0.71621 0.95994 0.0
C642 C 0.74186 0.70585 0.01853 0.0
C643 C 0.7374 0.70118 0.05454 0.0
C644 C 0.73105 0.7095 0.0788 0.0
C645 C 0.72684 0.70502 0.11265 0.0
C646 C 0.72902 0.69226 0.12268 0.0
C647 C 0.73544 0.68398 0.09891 0.0
C648 C 0.73966 0.68841 0.065 0.0
C649 C 0.7928 0.72506 0.96592 0.0
C650 C 0.80069 0.71413 0.96498 0.0
C651 C 0.77958 0.72383 0.97048 0.0
C652 C 0.77399 0.71165 0.97412 0.0
C653 C 0.78185 0.70071 0.97397 0.0
C654 C 0.79512 0.70193 0.96921 0.0
C655 C 0.75993 0.71051 0.9783 0.0
C656 C 0.75503 0.7053 0.01065 0.0
C657 C 0.75142 0.71576 0.95219 0.0
C658 C 0.75605 0.72078 0.91667 0.0
C659 C 0.76371 0.71312 0.89378 0.0
C660 C 0.76817 0.71795 0.86057 0.0
C661 C 0.76496 0.73041 0.84982 0.0
C662 C 0.75726 0.73805 0.87223 0.0
C663 C 0.75279 0.73328 0.90549 0.0
H664 H 0.76842 0.73413 0.8241 0.0
H665 H 0.72575 0.68881 0.14891 0.0
H666 H 0.01385 0.95093 0.79855 0.0
H667 H 0.01462 0.97397 0.78655 0.0
H668 H 0.05555 0.97163 0.7697 0.0
H669 H 0.05487 0.94851 0.78206 0.0
H670 H 0.04835 0.99303 0.80993 0.0
H671 H 0.0365 0.97246 0.69768 0.0
H672 H 0.02378 0.9579 0.65887 0.0
H673 H 0.98962 0.9793 0.68336 0.0
H674 H 0.00211 0.99388 0.72278 0.0
H675 H 0.05267 0.05427 0.72384 0.0
H676 H 0.05425 0.03131 0.73738 0.0
H677 H 0.013 0.02915 0.74673 0.0
H678 H 0.01135 0.05196 0.73226 0.0
H679 H 0.02169 0.00971 0.70831 0.0
H680 H 0.03297 0.02965 0.82242 0.0
H681 H 0.0453 0.04407 0.86266 0.0
H682 H 0.08004 0.02395 0.83601 0.0
H683 H 0.06794 0.00951 0.79521 0.0
C684 C 0.02303 0.95533 0.79256 0.0
C685 C 0.03429 0.94793 0.79094 0.0
C686 C 0.02345 0.96847 0.78563 0.0
C687 C 0.03511 0.97442 0.77672 0.0
C688 C 0.04646 0.96717 0.77641 0.0
C689 C 0.04605 0.95399 0.78338 0.0
C690 C 0.03532 0.98814 0.76651 0.0
C691 C 0.04268 0.99668 0.7874 0.0
C692 C 0.02774 0.99287 0.73748 0.0
C693 C 0.02023 0.9842 0.71342 0.0
C694 C 0.02626 0.97401 0.69499 0.0
C695 C 0.0191 0.96576 0.67285 0.0
C696 C 0.0059 0.96766 0.66871 0.0
C697 C -0.00016 0.97784 0.68661 0.0
C698 C 0.00696 0.98611 0.70883 0.0
C699 C 0.04395 0.04887 0.72879 0.0
C700 C 0.03189 0.05487 0.72704 0.0
C701 C 0.04487 0.03579 0.73668 0.0
C702 C 0.03375 0.02856 0.74348 0.0
C703 C 0.0217 0.03455 0.74156 0.0
C704 C 0.02077 0.04758 0.73336 0.0
C705 C 0.03456 0.0147 0.75211 0.0
C706 C 0.02741 0.00609 0.73079 0.0
C707 C 0.04229 0.00994 0.78084 0.0
C708 C 0.04957 0.01859 0.80547 0.0
C709 C 0.04326 0.02836 0.82492 0.0
C710 C 0.0502 0.03653 0.84787 0.0
C711 C 0.06345 0.03495 0.85181 0.0
C712 C 0.06978 0.02518 0.83289 0.0
C713 C 0.06288 0.01699 0.80987 0.0
H714 H 0.06881 0.04129 0.86959 0.0
H715 H 0.00036 0.96125 0.65157 0.0
H716 H 0.69275 0.29709 0.45042 0.0
H717 H 0.71555 0.30011 0.46433 0.0
H718 H 0.71712 0.26209 0.51071 0.0
H719 H 0.69433 0.2591 0.4975 0.0
H720 H 0.72954 0.27885 0.55284 0.0
H721 H 0.72851 0.2682 0.42516 0.0
H722 H 0.72187 0.27064 0.36101 0.0
H723 H 0.7379 0.3086 0.35871 0.0
H724 H 0.74448 0.30645 0.42306 0.0
H725 H 0.79551 0.2632 0.54279 0.0
H726 H 0.77232 0.2643 0.53288 0.0
H727 H 0.77559 0.30435 0.50465 0.0
H728 H 0.79885 0.30337 0.51501 0.0
H729 H 0.76074 0.28907 0.45484 0.0
H730 H 0.76349 0.29845 0.58223 0.0
H731 H 0.77053 0.29513 0.64569 0.0
H732 H 0.75156 0.25855 0.64777 0.0
H733 H 0.74457 0.26156 0.58409 0.0
C734 C 0.69797 0.28939 0.46364 0.0
C735 C 0.6918 0.27784 0.47277 0.0
C736 C 0.71098 0.29112 0.47146 0.0
C737 C 0.71805 0.28127 0.48823 0.0
C738 C 0.71184 0.26981 0.49779 0.0
C739 C 0.69884 0.26809 0.4901 0.0
C740 C 0.73194 0.28281 0.4956 0.0
C741 C 0.73637 0.28099 0.53136 0.0
C742 C 0.7408 0.28591 0.46771 0.0
C743 C 0.73685 0.28723 0.42904 0.0
C744 C 0.73052 0.27711 0.41107 0.0
C745 C 0.72678 0.27843 0.37466 0.0
C746 C 0.72943 0.28978 0.35583 0.0
C747 C 0.73584 0.29982 0.37336 0.0
C748 C 0.73958 0.29856 0.40979 0.0
C749 C 0.79129 0.27225 0.53456 0.0
C750 C 0.79895 0.28321 0.52969 0.0
C751 C 0.77806 0.27287 0.52904 0.0
C752 C 0.77229 0.28442 0.51828 0.0
C753 C 0.77991 0.29537 0.51305 0.0
C754 C 0.79315 0.2948 0.51906 0.0
C755 C 0.7583 0.2849 0.51188 0.0
C756 C 0.75387 0.28709 0.47635 0.0
C757 C 0.74945 0.28203 0.5399 0.0
C758 C 0.7536 0.28019 0.57825 0.0
C759 C 0.76092 0.28964 0.59609 0.0
C760 C 0.76488 0.28783 0.63214 0.0
C761 C 0.76152 0.27662 0.65072 0.0
C762 C 0.75416 0.26722 0.63332 0.0
C763 C 0.75019 0.26898 0.59726 0.0
H764 H 0.76459 0.27523 0.67863 0.0
H765 H 0.72653 0.29078 0.32764 0.0
H766 H 0.48788 0.94598 0.23888 0.0
H767 H 0.48652 0.96895 0.2516 0.0
H768 H 0.44523 0.96721 0.2431 0.0
H769 H 0.44654 0.94421 0.22975 0.0
H770 H 0.45469 0.98744 0.20647 0.0
H771 H 0.45921 0.97032 0.3267 0.0
H772 H 0.4688 0.95705 0.37514 0.0
H773 H 0.50467 0.97687 0.3628 0.0
H774 H 0.49529 0.99028 0.31418 0.0
H775 H 0.44661 0.0509 0.27681 0.0
H776 H 0.44537 0.02757 0.26898 0.0
H777 H 0.48669 0.02514 0.27376 0.0
H778 H 0.48799 0.04836 0.28205 0.0
H779 H 0.47553 0.00684 0.31496 0.0
H780 H 0.47093 0.02345 0.19284 0.0
H781 H 0.46108 0.03673 0.14475 0.0
H782 H 0.425 0.01763 0.16088 0.0
H783 H 0.4346 0.00435 0.20944 0.0
C784 C 0.47851 0.95048 0.23983 0.0
C785 C 0.46731 0.94331 0.23338 0.0
C786 C 0.47774 0.96359 0.24728 0.0
C787 C 0.46576 0.96975 0.24875 0.0
C788 C 0.45456 0.96262 0.24218 0.0
C789 C 0.45532 0.9495 0.23464 0.0
C790 C 0.46502 0.9837 0.25624 0.0
C791 C 0.45904 0.99167 0.23051 0.0
C792 C 0.47089 0.98922 0.28729 0.0
C793 C 0.47658 0.98123 0.3166 0.0
C794 C 0.46917 0.9718 0.33416 0.0
C795 C 0.47456 0.96426 0.36168 0.0
C796 C 0.48736 0.96605 0.37193 0.0
C797 C 0.49477 0.97547 0.3548 0.0
C798 C 0.4894 0.98307 0.32734 0.0
C799 C 0.45542 0.04537 0.2762 0.0
C800 C 0.4674 0.05143 0.27993 0.0
C801 C 0.4547 0.03207 0.27163 0.0
C802 C 0.46595 0.02466 0.27049 0.0
C803 C 0.4779 0.03069 0.2746 0.0
C804 C 0.47863 0.04396 0.2792 0.0
C805 C 0.46535 0.01059 0.26495 0.0
C806 C 0.47108 0.0026 0.29107 0.0
C807 C 0.45922 0.00507 0.23431 0.0
C808 C 0.45345 0.01301 0.20504 0.0
C809 C 0.46087 0.02216 0.18634 0.0
C810 C 0.45534 0.02967 0.15896 0.0
C811 C 0.44241 0.02805 0.14984 0.0
C812 C 0.435 0.01889 0.16802 0.0
C813 C 0.44049 0.01136 0.19545 0.0
H814 H 0.43814 0.03388 0.12863 0.0
H815 H 0.49151 0.96018 0.3932 0.0
H816 H 0.69193 0.79718 0.48362 0.0
H817 H 0.71489 0.79983 0.47102 0.0
H818 H 0.72401 0.77587 0.56334 0.0
H819 H 0.70114 0.77317 0.57605 0.0
H820 H 0.74 0.79659 0.5591 0.0
H821 H 0.72435 0.76317 0.48254 0.0
H822 H 0.71054 0.75262 0.43695 0.0
H823 H 0.72234 0.78 0.3562 0.0
H824 H 0.73603 0.7909 0.4016 0.0
H825 H 0.80021 0.76881 0.51126 0.0
H826 H 0.77748 0.77246 0.52456 0.0
H827 H 0.7762 0.80223 0.44303 0.0
H828 H 0.7991 0.79885 0.43014 0.0
H829 H 0.75639 0.78122 0.43974 0.0
H830 H 0.77468 0.81271 0.52065 0.0
H831 H 0.78966 0.82009 0.5683 0.0
H832 H 0.77373 0.79286 0.64355 0.0
H833 H 0.75878 0.78517 0.59615 0.0
C834 C 0.69885 0.79259 0.50141 0.0
C835 C 0.69478 0.78491 0.53068 0.0
C836 C 0.71193 0.79409 0.49416 0.0
C837 C 0.72111 0.78798 0.51615 0.0
C838 C 0.71707 0.78069 0.54613 0.0
C839 C 0.70401 0.7791 0.55322 0.0
C840 C 0.73492 0.78858 0.50687 0.0
C841 C 0.74359 0.79323 0.53302 0.0
C842 C 0.73956 0.78424 0.47277 0.0
C843 C 0.73107 0.77796 0.44561 0.0
C844 C 0.72386 0.76706 0.45521 0.0
C845 C 0.71608 0.76099 0.42939 0.0
C846 C 0.71554 0.76565 0.39373 0.0
C847 C 0.72274 0.77642 0.38387 0.0
C848 C 0.7305 0.78256 0.40965 0.0
C849 C 0.7951 0.77618 0.49631 0.0
C850 C 0.80136 0.78354 0.46964 0.0
C851 C 0.78217 0.77828 0.50402 0.0
C852 C 0.77526 0.78764 0.48484 0.0
C853 C 0.78145 0.795 0.45814 0.0
C854 C 0.79448 0.79308 0.45088 0.0
C855 C 0.76141 0.78925 0.49188 0.0
C856 C 0.75274 0.7849 0.46542 0.0
C857 C 0.75682 0.79357 0.52599 0.0
C858 C 0.76567 0.7983 0.55473 0.0
C859 C 0.77444 0.80823 0.54727 0.0
C860 C 0.78291 0.81248 0.57425 0.0
C861 C 0.78267 0.80693 0.60891 0.0
C862 C 0.77392 0.79715 0.61668 0.0
C863 C 0.76543 0.79285 0.58978 0.0
H864 H 0.78925 0.81023 0.62975 0.0
H865 H 0.7096 0.76085 0.37373 0.0
H866 H 0.4441 0.44804 0.78169 0.0
H867 H 0.44272 0.47115 0.77044 0.0
H868 H 0.48292 0.47517 0.79652 0.0
H869 H 0.48433 0.45212 0.80824 0.0
H870 H 0.46871 0.49422 0.82679 0.0
H871 H 0.47319 0.47416 0.70899 0.0
H872 H 0.46736 0.45915 0.65968 0.0
H873 H 0.43026 0.47686 0.65073 0.0
H874 H 0.43581 0.49188 0.70037 0.0
H875 H 0.48579 0.55197 0.73861 0.0
H876 H 0.48359 0.5295 0.7567 0.0
H877 H 0.44293 0.53116 0.73482 0.0
H878 H 0.44504 0.55374 0.71686 0.0
H879 H 0.45526 0.50961 0.70457 0.0
H880 H 0.45142 0.53065 0.8198 0.0
H881 H 0.45747 0.54577 0.86855 0.0
H882 H 0.49361 0.52646 0.88154 0.0
H883 H 0.4878 0.51126 0.83264 0.0
C884 C 0.45262 0.45387 0.78521 0.0
C885 C 0.46434 0.44829 0.79564 0.0
C886 C 0.45182 0.46705 0.77869 0.0
C887 C 0.46276 0.47483 0.78229 0.0
C888 C 0.47438 0.46932 0.7936 0.0
C889 C 0.47518 0.45616 0.80015 0.0
C890 C 0.46222 0.48865 0.77329 0.0
C891 C 0.46586 0.49758 0.79999 0.0
C892 C 0.4582 0.49303 0.73859 0.0
C893 C 0.45486 0.48404 0.70867 0.0
C894 C 0.46375 0.47479 0.69671 0.0
C895 C 0.4605 0.46629 0.66867 0.0
C896 C 0.44843 0.46703 0.65216 0.0
C897 C 0.4396 0.47629 0.66359 0.0
C898 C 0.44279 0.4848 0.69166 0.0
C899 C 0.47638 0.54756 0.73768 0.0
C900 C 0.46558 0.55457 0.72635 0.0
C901 C 0.47513 0.53476 0.74817 0.0
C902 C 0.46309 0.52875 0.74735 0.0
C903 C 0.4523 0.53568 0.73571 0.0
C904 C 0.45352 0.54854 0.72555 0.0
C905 C 0.4619 0.51513 0.75792 0.0
C906 C 0.45796 0.50624 0.73149 0.0
C907 C 0.46568 0.51079 0.79282 0.0
C908 C 0.46921 0.51988 0.82235 0.0
C909 C 0.4607 0.52968 0.83287 0.0
C910 C 0.46408 0.53825 0.86058 0.0
C911 C 0.47594 0.53711 0.87806 0.0
C912 C 0.48443 0.52735 0.86795 0.0
C913 C 0.48108 0.51873 0.8403 0.0
H914 H 0.47854 0.54377 0.89947 0.0
H915 H 0.44594 0.46044 0.63045 0.0
H916 H 0.70437 0.19868 0.95409 0.0
H917 H 0.72728 0.20154 0.96599 0.0
H918 H 0.72426 0.2416 0.93773 0.0
H919 H 0.70121 0.23886 0.9262 0.0
H920 H 0.74718 0.22807 0.91019 0.0
H921 H 0.72407 0.23684 0.01975 0.0
H922 H 0.70793 0.23276 0.06748 0.0
H923 H 0.72733 0.19793 0.0971 0.0
H924 H 0.74344 0.20166 0.04893 0.0
H925 H 0.80669 0.24438 0.99629 0.0
H926 H 0.78409 0.24438 0.97798 0.0
H927 H 0.78024 0.20538 0.01597 0.0
H928 H 0.80279 0.20534 0.03458 0.0
H929 H 0.76043 0.22056 0.03844 0.0
H930 H 0.7831 0.2117 0.92618 0.0
H931 H 0.79888 0.21598 0.87755 0.0
H932 H 0.7803 0.25178 0.85357 0.0
H933 H 0.76449 0.24778 0.90238 0.0
C934 C 0.70861 0.20805 0.94985 0.0
C935 C 0.70101 0.21857 0.93949 0.0
C936 C 0.72167 0.20967 0.95672 0.0
C937 C 0.72736 0.22179 0.95301 0.0
C938 C 0.71998 0.23218 0.94072 0.0
C939 C 0.70685 0.2306 0.93427 0.0
C940 C 0.74079 0.2237 0.96458 0.0
C941 C 0.7501 0.22664 0.93829 0.0
C942 C 0.7445 0.22171 0.00121 0.0
C943 C 0.73489 0.21946 0.03045 0.0
C944 C 0.72483 0.22825 0.03619 0.0
C945 C 0.7157 0.22601 0.06338 0.0
C946 C 0.7166 0.21509 0.0853 0.0
C947 C 0.72664 0.20639 0.08008 0.0
C948 C 0.73578 0.20855 0.05283 0.0
C949 C 0.80101 0.23583 0.00084 0.0
C950 C 0.80647 0.22486 0.01687 0.0
C951 C 0.78813 0.23582 0.99021 0.0
C952 C 0.78054 0.22484 0.99538 0.0
C953 C 0.78595 0.21394 0.01176 0.0
C954 C 0.79883 0.21393 0.02229 0.0
C955 C 0.76693 0.22467 0.98392 0.0
C956 C 0.75755 0.22208 0.01035 0.0
C957 C 0.76317 0.22708 0.94746 0.0
C958 C 0.77268 0.22949 0.91814 0.0
C959 C 0.78244 0.22053 0.91072 0.0
C960 C 0.79136 0.22288 0.88306 0.0
C961 C 0.79057 0.23413 0.86244 0.0
C962 C 0.78088 0.24306 0.86951 0.0
C963 C 0.77193 0.24075 0.89715 0.0
H964 H 0.79749 0.23593 0.84103 0.0
H965 H 0.70952 0.21339 0.10636 0.0
H966 H 0.01087 0.44631 0.22321 0.0
H967 H 0.01323 0.46927 0.23479 0.0
H968 H 0.05406 0.46433 0.24885 0.0
H969 H 0.05176 0.44125 0.23733 0.0
H970 H 0.04321 0.47987 0.30187 0.0
H971 H 0.04373 0.47682 0.17216 0.0
H972 H 0.03615 0.47005 0.11146 0.0
H973 H 0.00084 0.49052 0.12795 0.0
H974 H 0.00813 0.49725 0.18903 0.0
H975 H 0.05479 0.5478 0.29328 0.0
H976 H 0.05554 0.52465 0.28146 0.0
H977 H 0.01455 0.52435 0.26451 0.0
H978 H 0.01372 0.54741 0.27622 0.0
H979 H 0.02765 0.51147 0.21083 0.0
H980 H 0.02662 0.5132 0.34216 0.0
H981 H 0.03418 0.51986 0.403 0.0
H982 H 0.07062 0.50192 0.38302 0.0
H983 H 0.06334 0.4953 0.3218 0.0
C984 C 0.02035 0.4501 0.22883 0.0
C985 C 0.03114 0.44202 0.22924 0.0
C986 C 0.02169 0.46322 0.2353 0.0
C987 C 0.03384 0.46849 0.24225 0.0
C988 C 0.04461 0.46042 0.24342 0.0
C989 C 0.04329 0.44727 0.23676 0.0
C990 C 0.0352 0.48246 0.24824 0.0
C991 C 0.04002 0.4868 0.28175 0.0
C992 C 0.03086 0.49145 0.22211 0.0
C993 C 0.02644 0.48744 0.18533 0.0
C994 C 0.0343 0.47979 0.16299 0.0
C995 C 0.03006 0.47597 0.12848 0.0
C996 C 0.018 0.47982 0.11589 0.0
C997 C 0.01017 0.48753 0.13776 0.0
C998 C 0.01436 0.49136 0.17231 0.0
C999 C 0.04594 0.54277 0.28715 0.0
C1000 C 0.03419 0.54938 0.28572 0.0
C1001 C 0.04639 0.52957 0.28051 0.0
C1002 C 0.03509 0.52281 0.27228 0.0
C1003 C 0.02337 0.52941 0.27078 0.0
C1004 C 0.02291 0.54256 0.27761 0.0
C1005 C 0.03542 0.50887 0.26472 0.0
C1006 C 0.03094 0.50454 0.23083 0.0
C1007 C 0.04009 0.49992 0.29047 0.0
C1008 C 0.04449 0.50389 0.32724 0.0
C1009 C 0.03629 0.51078 0.3506 0.0
C1010 C 0.04051 0.51453 0.38518 0.0
C1011 C 0.05289 0.51136 0.39682 0.0
C1012 C 0.06105 0.5044 0.37394 0.0
C1013 C 0.05688 0.50064 0.33931 0.0
H1014 H 0.05614 0.51426 0.42361 0.0
H1015 H 0.01474 0.47687 0.08916 0.0
H1016 H 0.30325 0.19442 0.46315 0.0
H1017 H 0.28022 0.19278 0.47612 0.0
H1018 H 0.27819 0.23388 0.48945 0.0
H1019 H 0.30114 0.23559 0.47661 0.0
H1020 H 0.26571 0.22087 0.54413 0.0
H1021 H 0.26769 0.22059 0.41278 0.0
H1022 H 0.27483 0.2127 0.35273 0.0
H1023 H 0.25849 0.17572 0.3755 0.0
H1024 H 0.2514 0.18335 0.43595 0.0
H1025 H 0.19994 0.23483 0.52906 0.0
H1026 H 0.22306 0.23324 0.51923 0.0
H1027 H 0.21966 0.19225 0.50538 0.0
H1028 H 0.1964 0.19379 0.51485 0.0
H1029 H 0.23505 0.20306 0.4537 0.0
H1030 H 0.23151 0.20395 0.58341 0.0
H1031 H 0.22415 0.21205 0.643 0.0
H1032 H 0.24334 0.24787 0.62362 0.0
H1033 H 0.25066 0.24006 0.56364 0.0
C1034 C 0.29787 0.20309 0.46884 0.0
C1035 C 0.30395 0.21513 0.46878 0.0
C1036 C 0.28474 0.20215 0.47615 0.0
C1037 C 0.27752 0.21322 0.48355 0.0
C1038 C 0.28361 0.22523 0.48385 0.0
C1039 C 0.2967 0.22619 0.47636 0.0
C1040 C 0.26359 0.21239 0.49092 0.0
C1041 C 0.25898 0.21707 0.52428 0.0
C1042 C 0.25491 0.20709 0.46536 0.0
C1043 C 0.25916 0.20249 0.42905 0.0
C1044 C 0.26573 0.21074 0.40512 0.0
C1045 C 0.26974 0.20632 0.37099 0.0
C1046 C 0.26715 0.19371 0.36035 0.0
C1047 C 0.26051 0.18549 0.3838 0.0
C1048 C 0.25649 0.18985 0.418 0.0
C1049 C 0.20411 0.22547 0.52394 0.0
C1050 C 0.19639 0.21442 0.52284 0.0
C1051 C 0.21732 0.22457 0.51848 0.0
C1052 C 0.22308 0.21261 0.51208 0.0
C1053 C 0.21538 0.20156 0.51044 0.0
C1054 C 0.20213 0.20245 0.51591 0.0
C1055 C 0.23713 0.21174 0.5067 0.0
C1056 C 0.24178 0.20673 0.47375 0.0
C1057 C 0.24585 0.21673 0.53266 0.0
C1058 C 0.24155 0.22144 0.56887 0.0
C1059 C 0.23408 0.21359 0.59172 0.0
C1060 C 0.22993 0.21812 0.6256 0.0
C1061 C 0.23325 0.23048 0.63706 0.0
C1062 C 0.24076 0.23831 0.6147 0.0
C1063 C 0.24493 0.23382 0.58077 0.0
H1064 H 0.23002 0.23398 0.66328 0.0
H1065 H 0.27026 0.19031 0.3339 0.0
H1066 H 0.51489 0.44695 0.26659 0.0
H1067 H 0.51711 0.46927 0.2472 0.0
H1068 H 0.55825 0.4665 0.2583 0.0
H1069 H 0.55611 0.44407 0.27767 0.0
H1070 H 0.54796 0.4883 0.29102 0.0
H1071 H 0.54702 0.46797 0.17419 0.0
H1072 H 0.53902 0.45326 0.12672 0.0
H1073 H 0.50248 0.47236 0.12774 0.0
H1074 H 0.51033 0.48728 0.17508 0.0
H1075 H 0.55729 0.5499 0.21202 0.0
H1076 H 0.55866 0.52672 0.22222 0.0
H1077 H 0.51763 0.52351 0.20867 0.0
H1078 H 0.51621 0.54661 0.19787 0.0
H1079 H 0.53006 0.50429 0.17414 0.0
H1080 H 0.53106 0.52421 0.29307 0.0
H1081 H 0.53939 0.53895 0.34008 0.0
H1082 H 0.57609 0.52023 0.33584 0.0
H1083 H 0.56801 0.50548 0.28842 0.0
C1084 C 0.52441 0.45108 0.26483 0.0
C1085 C 0.53533 0.4438 0.27366 0.0
C1086 C 0.52567 0.46379 0.25356 0.0
C1087 C 0.53785 0.46946 0.25102 0.0
C1088 C 0.54878 0.46225 0.26 0.0
C1089 C 0.54753 0.44947 0.27101 0.0
C1090 C 0.53904 0.48306 0.24017 0.0
C1091 C 0.54428 0.49179 0.26518 0.0
C1092 C 0.53403 0.48758 0.20676 0.0
C1093 C 0.52923 0.47866 0.17835 0.0
C1094 C 0.53725 0.46898 0.16444 0.0
C1095 C 0.53275 0.46062 0.1375 0.0
C1096 C 0.52021 0.46181 0.12438 0.0
C1097 C 0.51218 0.47143 0.13797 0.0
C1098 C 0.51667 0.47989 0.16473 0.0
C1099 C 0.54858 0.54423 0.21101 0.0
C1100 C 0.53663 0.55005 0.20437 0.0
C1101 C 0.54937 0.53101 0.21694 0.0
C1102 C 0.53822 0.52344 0.21662 0.0
C1103 C 0.52634 0.52919 0.20903 0.0
C1104 C 0.52554 0.54239 0.203 0.0
C1105 C 0.53882 0.50958 0.22521 0.0
C1106 C 0.53388 0.5008 0.19981 0.0
C1107 C 0.54414 0.50502 0.25829 0.0
C1108 C 0.54898 0.51384 0.28692 0.0
C1109 C 0.54093 0.5233 0.30196 0.0
C1110 C 0.5456 0.53165 0.32872 0.0
C1111 C 0.55827 0.53055 0.34086 0.0
C1112 C 0.56629 0.52108 0.32636 0.0
C1113 C 0.56167 0.51272 0.29956 0.0
H1114 H 0.56187 0.53702 0.36158 0.0
H1115 H 0.51674 0.45529 0.10362 0.0
H1116 H 0.30297 0.80258 0.01217 0.0
H1117 H 0.27979 0.80335 0.00118 0.0
H1118 H 0.27676 0.76329 0.02985 0.0
H1119 H 0.29991 0.76238 0.03985 0.0
H1120 H 0.26349 0.768 0.97061 0.0
H1121 H 0.26749 0.78776 0.08883 0.0
H1122 H 0.27573 0.80348 0.13336 0.0
H1123 H 0.26016 0.83434 0.06965 0.0
H1124 H 0.25197 0.81881 0.02447 0.0
H1125 H 0.19702 0.76192 0.99442 0.0
H1126 H 0.21994 0.76339 0.00778 0.0
H1127 H 0.22023 0.80266 0.97055 0.0
H1128 H 0.19717 0.80133 0.95767 0.0
H1129 H 0.23485 0.79936 0.03195 0.0
H1130 H 0.23035 0.77928 0.91466 0.0
H1131 H 0.22188 0.76337 0.87106 0.0
H1132 H 0.23839 0.73284 0.93417 0.0
H1133 H 0.2468 0.74857 0.97844 0.0
C1134 C 0.29734 0.79395 0.01611 0.0
C1135 C 0.30321 0.78242 0.02685 0.0
C1136 C 0.2841 0.79442 0.01003 0.0
C1137 C 0.27653 0.78341 0.01512 0.0
C1138 C 0.28242 0.7719 0.02575 0.0
C1139 C 0.29564 0.77139 0.0315 0.0
C1140 C 0.26249 0.78374 0.00867 0.0
C1141 C 0.25722 0.77477 0.98438 0.0
C1142 C 0.25436 0.79279 0.02588 0.0
C1143 C 0.25924 0.80213 0.05308 0.0
C1144 C 0.26591 0.79791 0.08417 0.0
C1145 C 0.27056 0.80678 0.10956 0.0
C1146 C 0.2685 0.8199 0.10429 0.0
C1147 C 0.26176 0.82418 0.07367 0.0
C1148 C 0.25711 0.81534 0.04818 0.0
C1149 C 0.20195 0.77089 0.98925 0.0
C1150 C 0.19538 0.78146 0.97459 0.0
C1151 C 0.21504 0.77171 0.99685 0.0
C1152 C 0.2218 0.78306 0.9895 0.0
C1153 C 0.21517 0.7938 0.97623 0.0
C1154 C 0.20203 0.79301 0.9688 0.0
C1155 C 0.23589 0.7835 0.9944 0.0
C1156 C 0.24116 0.79263 0.0182 0.0
C1157 C 0.24405 0.77457 0.97685 0.0
C1158 C 0.23912 0.7651 0.95002 0.0
C1159 C 0.23211 0.76917 0.91936 0.0
C1160 C 0.22732 0.76018 0.89451 0.0
C1161 C 0.22957 0.7471 0.89988 0.0
C1162 C 0.23664 0.74297 0.93006 0.0
C1163 C 0.24143 0.75192 0.95502 0.0
H1164 H 0.22586 0.74015 0.88062 0.0
H1165 H 0.27211 0.82676 0.12397 0.0
H1166 H 0.9848 0.4468 0.70291 0.0
H1167 H 0.98438 0.46989 0.7147 0.0
H1168 H 0.94298 0.46949 0.7109 0.0
H1169 H 0.94332 0.44637 0.6989 0.0
H1170 H 0.9537 0.49112 0.67747 0.0
H1171 H 0.95679 0.46803 0.79041 0.0
H1172 H 0.96609 0.45209 0.83247 0.0
H1173 H 0.00207 0.4722 0.83088 0.0
H1174 H 0.99305 0.48814 0.78826 0.0
H1175 H 0.94412 0.55005 0.77217 0.0
H1176 H 0.94334 0.52734 0.75497 0.0
H1177 H 0.98459 0.52506 0.76388 0.0
H1178 H 0.98542 0.54765 0.78148 0.0
H1179 H 0.97317 0.50464 0.79492 0.0
H1180 H 0.97031 0.52752 0.68135 0.0
H1181 H 0.96125 0.54326 0.63825 0.0
H1182 H 0.92503 0.52359 0.64068 0.0
H1183 H 0.93383 0.50783 0.68422 0.0
C1184 C 0.97562 0.45166 0.70401 0.0
C1185 C 0.96409 0.44478 0.70037 0.0
C1186 C 0.97539 0.46483 0.71083 0.0
C1187 C 0.96364 0.47131 0.71421 0.0
C1188 C 0.95214 0.46462 0.70849 0.0
C1189 C 0.95235 0.45143 0.70175 0.0
C1190 C 0.96336 0.48485 0.7262 0.0
C1191 C 0.95781 0.49408 0.70332 0.0
C1192 C 0.96889 0.48867 0.75973 0.0
C1193 C 0.97428 0.47922 0.78587 0.0
C1194 C 0.96671 0.469 0.79883 0.0
C1195 C 0.97193 0.45997 0.82278 0.0
C1196 C 0.98467 0.46111 0.83428 0.0
C1197 C 0.99221 0.47132 0.82192 0.0
C1198 C 0.98704 0.48036 0.79787 0.0
C1199 C 0.953 0.54468 0.77063 0.0
C1200 C 0.96483 0.55061 0.77804 0.0
C1201 C 0.95255 0.53174 0.76064 0.0
C1202 C 0.96393 0.52457 0.75775 0.0
C1203 C 0.97571 0.53043 0.76591 0.0
C1204 C 0.97616 0.54334 0.77589 0.0
C1205 C 0.96363 0.51098 0.74602 0.0
C1206 C 0.96904 0.50171 0.76906 0.0
C1207 C 0.95798 0.50714 0.71263 0.0
C1208 C 0.95269 0.51658 0.68634 0.0
C1209 C 0.96038 0.52661 0.67292 0.0
C1210 C 0.9553 0.53552 0.64837 0.0
C1211 C 0.94256 0.53445 0.63681 0.0
C1212 C 0.93489 0.52443 0.6497 0.0
C1213 C 0.93992 0.51549 0.6743 0.0
H1214 H 0.93865 0.54136 0.6178 0.0
H1215 H 0.98869 0.4541 0.85281 0.0
H1216 H 0.13375 0.27672 0.92233 0.0
H1217 H 0.13389 0.26789 0.86059 0.0
H1218 H 0.15814 0.23681 0.89659 0.0
H1219 H 0.15798 0.24558 0.95864 0.0
H1220 H 0.1679 0.24983 0.83714 0.0
H1221 H 0.12838 0.23026 0.872 0.0
H1222 H 0.10648 0.22928 0.89729 0.0
H1223 H 0.09328 0.25549 0.81513 0.0
H1224 H 0.11516 0.25677 0.78964 0.0
H1225 H 0.16762 0.21617 0.66953 0.0
H1226 H 0.16507 0.22225 0.73334 0.0
H1227 H 0.13956 0.25293 0.70191 0.0
H1228 H 0.14196 0.24678 0.63768 0.0
H1229 H 0.13026 0.23924 0.75983 0.0
H1230 H 0.16992 0.25949 0.72662 0.0
H1231 H 0.19182 0.26054 0.70134 0.0
H1232 H 0.20477 0.23323 0.78088 0.0
H1233 H 0.18289 0.23187 0.80631 0.0
C1234 C 0.13891 0.26787 0.91724 0.0
C1235 C 0.14589 0.26184 0.94521 0.0
C1236 C 0.13895 0.26282 0.88199 0.0
C1237 C 0.14602 0.2517 0.87406 0.0
C1238 C 0.15262 0.2454 0.90223 0.0
C1239 C 0.15247 0.25038 0.93764 0.0
C1240 C 0.14738 0.24735 0.83582 0.0
C1241 C 0.1597 0.24728 0.82039 0.0
C1242 C 0.13662 0.24441 0.81381 0.0
C1243 C 0.12345 0.24371 0.82912 0.0
C1244 C 0.12084 0.23591 0.85953 0.0
C1245 C 0.10842 0.23528 0.87385 0.0
C1246 C 0.0985 0.24234 0.85789 0.0
C1247 C 0.10098 0.25003 0.8275 0.0
C1248 C 0.11338 0.25071 0.81308 0.0
C1249 C 0.16152 0.22426 0.67613 0.0
C1250 C 0.15504 0.23105 0.6486 0.0
C1251 C 0.16009 0.22773 0.71262 0.0
C1252 C 0.15222 0.2381 0.72233 0.0
C1253 C 0.14569 0.2449 0.69494 0.0
C1254 C 0.14713 0.24143 0.65831 0.0
C1255 C 0.15078 0.24177 0.76116 0.0
C1256 C 0.13846 0.24173 0.77665 0.0
C1257 C 0.16154 0.24464 0.78328 0.0
C1258 C 0.17472 0.24547 0.76812 0.0
C1259 C 0.17741 0.25362 0.73853 0.0
C1260 C 0.18983 0.25429 0.7242 0.0
C1261 C 0.19967 0.24692 0.73942 0.0
C1262 C 0.19713 0.23891 0.76907 0.0
C1263 C 0.18472 0.23819 0.78347 0.0
H1264 H 0.20928 0.24745 0.72828 0.0
H1265 H 0.08889 0.24183 0.86901 0.0
H1266 H 0.03437 0.90608 0.93082 0.0
H1267 H 0.02594 0.90259 0.99208 0.0
H1268 H 0.9888 0.89343 0.94697 0.0
H1269 H 0.99723 0.89686 0.88521 0.0
H1270 H 0.98802 0.91134 0.00398 0.0
H1271 H 0.00621 0.8699 0.9804 0.0
H1272 H 0.02315 0.85475 0.96167 0.0
H1273 H 0.04735 0.86815 0.04848 0.0
H1274 H 0.03062 0.88354 0.06741 0.0
H1275 H 0.96124 0.89393 0.17197 0.0
H1276 H 0.96886 0.892 0.1093 0.0
H1277 H 0.0078 0.89795 0.14577 0.0
H1278 H 0.00023 0.89958 0.20891 0.0
H1279 H 0.00687 0.88035 0.09172 0.0
H1280 H 0.99043 0.92267 0.11243 0.0
H1281 H 0.97439 0.93867 0.13184 0.0
H1282 H 0.94806 0.92479 0.0508 0.0
H1283 H 0.96389 0.90854 0.0313 0.0
C1284 C 0.02442 0.90327 0.93388 0.0
C1285 C 0.01644 0.90176 0.90326 0.0
C1286 C 0.01964 0.90121 0.96889 0.0
C1287 C 0.00679 0.89763 0.97398 0.0
C1288 C 0.99877 0.89613 0.9435 0.0
C1289 C 0.00359 0.89808 0.90833 0.0
C1290 C 0.00168 0.89605 0.01133 0.0
C1291 C 0.99195 0.90439 0.02297 0.0
C1292 C 0.00713 0.88726 0.03633 0.0
C1293 C 0.01719 0.87795 0.02514 0.0
C1294 C 0.01518 0.8697 0.99532 0.0
C1295 C 0.02474 0.86105 0.9847 0.0
C1296 C 0.03633 0.86051 0.00382 0.0
C1297 C 0.03837 0.86859 0.03367 0.0
C1298 C 0.02885 0.87727 0.04439 0.0
C1299 C 0.97145 0.89467 0.16672 0.0
C1300 C 0.98014 0.89705 0.19522 0.0
C1301 C 0.97578 0.8936 0.13089 0.0
C1302 C 0.98886 0.89509 0.1228 0.0
C1303 C 0.99765 0.89682 0.15143 0.0
C1304 C 0.99333 0.89778 0.18743 0.0
C1305 C 0.99321 0.89566 0.08437 0.0
C1306 C 0.00283 0.88719 0.0726 0.0
C1307 C 0.98779 0.90446 0.05929 0.0
C1308 C 0.97829 0.9143 0.07068 0.0
C1309 C 0.98118 0.92297 0.09893 0.0
C1310 C 0.97214 0.93209 0.10992 0.0
C1311 C 0.9602 0.93273 0.09262 0.0
C1312 C 0.95731 0.92427 0.06421 0.0
C1313 C 0.96631 0.9151 0.05317 0.0
H1314 H 0.9532 0.9398 0.10117 0.0
H1315 H 0.04372 0.8538 0.99555 0.0
H1316 H 0.35909 0.74372 0.45645 0.0
H1317 H 0.36144 0.75068 0.39295 0.0
H1318 H 0.33521 0.72092 0.3588 0.0
H1319 H 0.33318 0.71371 0.42171 0.0
H1320 H 0.35377 0.72252 0.31162 0.0
H1321 H 0.32553 0.75263 0.37118 0.0
H1322 H 0.31939 0.76846 0.41807 0.0
H1323 H 0.35079 0.79268 0.38617 0.0
H1324 H 0.35721 0.7769 0.33936 0.0
H1325 H 0.32625 0.76969 0.16654 0.0
H1326 H 0.3281 0.76146 0.22848 0.0
H1327 H 0.36594 0.7469 0.20402 0.0
H1328 H 0.36393 0.75481 0.1413 0.0
H1329 H 0.34345 0.7677 0.28073 0.0
H1330 H 0.3721 0.72088 0.25851 0.0
H1331 H 0.37531 0.70431 0.21127 0.0
H1332 H 0.33795 0.71232 0.16726 0.0
H1333 H 0.33446 0.72882 0.21448 0.0
C1334 C 0.35391 0.73864 0.43531 0.0
C1335 C 0.34591 0.72823 0.44401 0.0
C1336 C 0.35523 0.74262 0.39908 0.0
C1337 C 0.34839 0.73641 0.37112 0.0
C1338 C 0.34063 0.72584 0.37982 0.0
C1339 C 0.33942 0.72177 0.41585 0.0
C1340 C 0.3488 0.74115 0.33298 0.0
C1341 C 0.3516 0.73242 0.30487 0.0
C1342 C 0.34579 0.75402 0.32407 0.0
C1343 C 0.34193 0.76352 0.35209 0.0
C1344 C 0.33117 0.76129 0.37436 0.0
C1345 C 0.32764 0.77025 0.40088 0.0
C1346 C 0.33472 0.78155 0.40517 0.0
C1347 C 0.34533 0.78391 0.38286 0.0
C1348 C 0.34892 0.77497 0.35632 0.0
C1349 C 0.33492 0.76464 0.17423 0.0
C1350 C 0.34493 0.76286 0.14911 0.0
C1351 C 0.336 0.75999 0.20972 0.0
C1352 C 0.34715 0.75355 0.22098 0.0
C1353 C 0.35717 0.75169 0.19585 0.0
C1354 C 0.35602 0.75621 0.16006 0.0
C1355 C 0.34821 0.74903 0.25925 0.0
C1356 C 0.34577 0.75783 0.28744 0.0
C1357 C 0.35115 0.73614 0.26812 0.0
C1358 C 0.3531 0.72619 0.23974 0.0
C1359 C 0.36457 0.71908 0.23878 0.0
C1360 C 0.36643 0.7097 0.21202 0.0
C1361 C 0.35686 0.7073 0.1862 0.0
C1362 C 0.34538 0.71423 0.18717 0.0
C1363 C 0.34346 0.72361 0.2139 0.0
H1364 H 0.35833 0.70004 0.16549 0.0
H1365 H 0.33196 0.78848 0.42572 0.0
H1366 H 0.53946 0.10522 0.66752 0.0
H1367 H 0.53207 0.10673 0.60433 0.0
H1368 H 0.49302 0.10102 0.63989 0.0
H1369 H 0.50032 0.09957 0.70317 0.0
H1370 H 0.50128 0.08359 0.58696 0.0
H1371 H 0.50133 0.12926 0.60723 0.0
H1372 H 0.51084 0.14999 0.62525 0.0
H1373 H 0.53965 0.14594 0.54234 0.0
H1374 H 0.53041 0.12509 0.52413 0.0
H1375 H 0.46806 0.0903 0.42304 0.0
H1376 H 0.47614 0.09322 0.48476 0.0
H1377 H 0.51322 0.10393 0.442 0.0
H1378 H 0.50498 0.10142 0.37964 0.0
H1379 H 0.50704 0.11895 0.49792 0.0
H1380 H 0.50789 0.07378 0.47731 0.0
H1381 H 0.49948 0.0526 0.45907 0.0
H1382 H 0.47066 0.0549 0.54246 0.0
H1383 H 0.47877 0.07619 0.56088 0.0
C1384 C 0.52927 0.10455 0.66193 0.0
C1385 C 0.52047 0.1022 0.69019 0.0
C1386 C 0.52507 0.10545 0.62586 0.0
C1387 C 0.51201 0.10397 0.61753 0.0
C1388 C 0.50314 0.10219 0.64586 0.0
C1389 C 0.50732 0.1014 0.68196 0.0
C1390 C 0.50776 0.10301 0.57915 0.0
C1391 C 0.50234 0.09139 0.56759 0.0
C1392 C 0.5097 0.113 0.55368 0.0
C1393 C 0.51525 0.12555 0.56456 0.0
C1394 C 0.50976 0.13273 0.59305 0.0
C1395 C 0.51509 0.14452 0.60326 0.0
C1396 C 0.52586 0.14926 0.58502 0.0
C1397 C 0.53131 0.14225 0.55647 0.0
C1398 C 0.52603 0.13045 0.54618 0.0
C1399 C 0.47795 0.09326 0.42671 0.0
C1400 C 0.48594 0.09551 0.39656 0.0
C1401 C 0.48256 0.0949 0.46204 0.0
C1402 C 0.49536 0.09854 0.46804 0.0
C1403 C 0.50333 0.10105 0.43797 0.0
C1404 C 0.49864 0.09957 0.40243 0.0
C1405 C 0.50032 0.09958 0.50583 0.0
C1406 C 0.50596 0.11115 0.51726 0.0
C1407 C 0.49877 0.08946 0.5312 0.0
C1408 C 0.49387 0.07663 0.52027 0.0
C1409 C 0.4997 0.06981 0.49159 0.0
C1410 C 0.49499 0.05778 0.48124 0.0
C1411 C 0.48452 0.05242 0.49954 0.0
C1412 C 0.47876 0.05907 0.52829 0.0
C1413 C 0.48341 0.07112 0.53872 0.0
H1414 H 0.4809 0.04311 0.49149 0.0
H1415 H 0.52997 0.15839 0.59296 0.0
H1416 H 0.16731 0.77696 0.81702 0.0
H1417 H 0.16344 0.77013 0.75428 0.0
H1418 H 0.14375 0.73641 0.79311 0.0
H1419 H 0.1474 0.74328 0.85632 0.0
H1420 H 0.16217 0.73308 0.73099 0.0
H1421 H 0.12563 0.7582 0.77011 0.0
H1422 H 0.11559 0.77726 0.79798 0.0
H1423 H 0.13241 0.80127 0.71575 0.0
H1424 H 0.14275 0.78236 0.68777 0.0
H1425 H 0.1359 0.71599 0.56364 0.0
H1426 H 0.13559 0.72209 0.62792 0.0
H1427 H 0.14923 0.75991 0.59981 0.0
H1428 H 0.14932 0.75394 0.53525 0.0
H1429 H 0.13293 0.76064 0.65803 0.0
H1430 H 0.16996 0.73717 0.61973 0.0
H1431 H 0.18142 0.71912 0.59094 0.0
H1432 H 0.16604 0.69327 0.67086 0.0
H1433 H 0.15411 0.7111 0.69942 0.0
C1434 C 0.16232 0.76798 0.81228 0.0
C1435 C 0.15757 0.76067 0.8415 0.0
C1436 C 0.1601 0.76414 0.77646 0.0
C1437 C 0.1532 0.75287 0.7693 0.0
C1438 C 0.14906 0.74516 0.79831 0.0
C1439 C 0.15114 0.74909 0.83427 0.0
C1440 C 0.14977 0.74959 0.73144 0.0
C1441 C 0.1556 0.73893 0.71516 0.0
C1442 C 0.14151 0.75753 0.71075 0.0
C1443 C 0.13505 0.76887 0.72703 0.0
C1444 C 0.12726 0.76755 0.75812 0.0
C1445 C 0.12151 0.77833 0.77393 0.0
C1446 C 0.12338 0.79047 0.7587 0.0
C1447 C 0.13097 0.79186 0.72754 0.0
C1448 C 0.13678 0.78111 0.71168 0.0
C1449 C 0.13851 0.72571 0.57106 0.0
C1450 C 0.14283 0.73444 0.54462 0.0
C1451 C 0.13835 0.72917 0.60777 0.0
C1452 C 0.14269 0.74133 0.61858 0.0
C1453 C 0.14593 0.75044 0.59196 0.0
C1454 C 0.14598 0.74702 0.55513 0.0
C1455 C 0.14525 0.74402 0.65748 0.0
C1456 C 0.13936 0.75465 0.67393 0.0
C1457 C 0.15365 0.73617 0.67817 0.0
C1458 C 0.161 0.72545 0.66146 0.0
C1459 C 0.16892 0.72762 0.63098 0.0
C1460 C 0.17549 0.71742 0.61468 0.0
C1461 C 0.17446 0.70506 0.62905 0.0
C1462 C 0.16682 0.70285 0.65973 0.0
C1463 C 0.16011 0.71299 0.67592 0.0
H1464 H 0.1796 0.69719 0.61648 0.0
H1465 H 0.11893 0.79881 0.771 0.0
H1466 H 0.4885 0.87988 0.11047 0.0
H1467 H 0.49538 0.87755 0.04699 0.0
H1468 H 0.49707 0.9188 0.03646 0.0
H1469 H 0.48958 0.92112 0.09917 0.0
H1470 H 0.48541 0.91 0.98128 0.0
H1471 H 0.52463 0.89832 0.04186 0.0
H1472 H 0.53843 0.88617 0.08419 0.0
H1473 H 0.52925 0.85115 0.02816 0.0
H1474 H 0.51526 0.86308 0.98574 0.0
H1475 H 0.52921 0.91624 0.83251 0.0
H1476 H 0.52153 0.91406 0.89513 0.0
H1477 H 0.50168 0.87921 0.86614 0.0
H1478 H 0.50907 0.88151 0.80271 0.0
H1479 H 0.52117 0.88237 0.93847 0.0
H1480 H 0.48194 0.89598 0.87628 0.0
H1481 H 0.47011 0.90984 0.83336 0.0
H1482 H 0.48173 0.94322 0.89362 0.0
H1483 H 0.49381 0.92956 0.93657 0.0
C1484 C 0.49052 0.88842 0.09467 0.0
C1485 C 0.48852 0.90068 0.10961 0.0
C1486 C 0.49448 0.88709 0.05842 0.0
C1487 C 0.49682 0.898 0.03687 0.0
C1488 C 0.49524 0.91023 0.05236 0.0
C1489 C 0.49103 0.91156 0.08826 0.0
C1490 C 0.50031 0.89679 0.99772 0.0
C1491 C 0.49328 0.90397 0.97215 0.0
C1492 C 0.51041 0.88876 0.98538 0.0
C1493 C 0.51878 0.88157 0.01091 0.0
C1494 C 0.52547 0.88801 0.03876 0.0
C1495 C 0.53334 0.88117 0.06273 0.0
C1496 C 0.53468 0.86789 0.05894 0.0
C1497 C 0.52818 0.86143 0.03111 0.0
C1498 C 0.52029 0.86823 0.00708 0.0
C1499 C 0.52322 0.90809 0.83941 0.0
C1500 C 0.5197 0.89905 0.81281 0.0
C1501 C 0.51886 0.90687 0.87514 0.0
C1502 C 0.51109 0.89648 0.88502 0.0
C1503 C 0.50771 0.88728 0.85881 0.0
C1504 C 0.51187 0.88863 0.82272 0.0
C1505 C 0.50633 0.89562 0.92279 0.0
C1506 C 0.51317 0.88816 0.94793 0.0
C1507 C 0.49623 0.90355 0.93493 0.0
C1508 C 0.48888 0.91176 0.90937 0.0
C1509 C 0.48208 0.90628 0.88015 0.0
C1510 C 0.4753 0.9141 0.85587 0.0
C1511 C 0.4752 0.92741 0.8607 0.0
C1512 C 0.48184 0.93292 0.88988 0.0
C1513 C 0.48864 0.92514 0.91422 0.0
H1514 H 0.46995 0.93344 0.84188 0.0
H1515 H 0.54079 0.86261 0.07752 0.0
H1516 H 0.3473 0.24893 0.03984 0.0
H1517 H 0.34889 0.24234 0.10371 0.0
H1518 H 0.35578 0.2816 0.13547 0.0
H1519 H 0.35412 0.2883 0.07165 0.0
H1520 H 0.37083 0.26243 0.17482 0.0
H1521 H 0.32716 0.27261 0.14145 0.0
H1522 H 0.30798 0.27107 0.10227 0.0
H1523 H 0.3058 0.23055 0.12273 0.0
H1524 H 0.32512 0.23182 0.16153 0.0
H1525 H 0.35355 0.2535 0.36222 0.0
H1526 H 0.35561 0.26195 0.30006 0.0
H1527 H 0.3406 0.22639 0.25711 0.0
H1528 H 0.33811 0.21816 0.31878 0.0
H1529 H 0.32985 0.24531 0.22379 0.0
H1530 H 0.37345 0.23447 0.25544 0.0
H1531 H 0.39321 0.23526 0.29242 0.0
H1532 H 0.39606 0.27587 0.27434 0.0
H1533 H 0.37621 0.27535 0.23762 0.0
C1534 C 0.34941 0.25612 0.06032 0.0
C1535 C 0.35045 0.26914 0.0509 0.0
C1536 C 0.3503 0.25235 0.09674 0.0
C1537 C 0.35232 0.26152 0.12417 0.0
C1538 C 0.35422 0.2744 0.1146 0.0
C1539 C 0.35321 0.2782 0.07821 0.0
C1540 C 0.35112 0.25786 0.16291 0.0
C1541 C 0.36186 0.25882 0.18579 0.0
C1542 C 0.33943 0.25303 0.17683 0.0
C1543 C 0.32766 0.25229 0.15412 0.0
C1544 C 0.32265 0.26336 0.13738 0.0
C1545 C 0.31174 0.26253 0.11527 0.0
C1546 C 0.30569 0.25071 0.10994 0.0
C1547 C 0.31051 0.2397 0.12684 0.0
C1548 C 0.32143 0.24046 0.14892 0.0
C1549 C 0.35067 0.24754 0.33944 0.0
C1550 C 0.34564 0.2352 0.34529 0.0
C1551 C 0.35192 0.25233 0.30397 0.0
C1552 C 0.34839 0.24475 0.27386 0.0
C1553 C 0.34336 0.23244 0.27985 0.0
C1554 C 0.34195 0.22774 0.31515 0.0
C1555 C 0.34966 0.24957 0.23597 0.0
C1556 C 0.33886 0.24892 0.21311 0.0
C1557 C 0.36133 0.25457 0.2221 0.0
C1558 C 0.37327 0.2549 0.24414 0.0
C1559 C 0.37823 0.24359 0.2596 0.0
C1560 C 0.38946 0.24398 0.28046 0.0
C1561 C 0.39587 0.25561 0.28582 0.0
C1562 C 0.39108 0.26687 0.27023 0.0
C1563 C 0.37984 0.26653 0.24937 0.0
H1564 H 0.40456 0.2559 0.30197 0.0
H1565 H 0.29726 0.25009 0.09279 0.0
H1566 H 0.03095 0.08807 0.57557 0.0
H1567 H 0.02367 0.09071 0.51272 0.0
H1568 H 0.98863 0.10816 0.55102 0.0
H1569 H 0.99591 0.10563 0.61428 0.0
H1570 H 0.98529 0.08868 0.49712 0.0
H1571 H 0.01055 0.12696 0.51689 0.0
H1572 H 0.03006 0.13868 0.53541 0.0
H1573 H 0.05184 0.11891 0.45339 0.0
H1574 H 0.03248 0.10694 0.43467 0.0
H1575 H 0.96198 0.10842 0.32821 0.0
H1576 H 0.97005 0.11 0.39056 0.0
H1577 H 0.00735 0.09718 0.35457 0.0
H1578 H -0.00061 0.09588 0.2918 0.0
H1579 H 0.00965 0.1149 0.40779 0.0
H1580 H 0.98646 0.07617 0.38867 0.0
H1581 H 0.96818 0.06286 0.36904 0.0
H1582 H 0.94414 0.0808 0.44936 0.0
H1583 H 0.96222 0.09451 0.46881 0.0
C1584 C 0.02168 0.09245 0.57066 0.0
C1585 C 0.01398 0.09665 0.59979 0.0
C1586 C 0.01757 0.094 0.53475 0.0
C1587 C 0.00569 0.09974 0.52732 0.0
C1588 C 0.99786 0.10376 0.55632 0.0
C1589 C 0.00203 0.10232 0.59233 0.0
C1590 C 0.00138 0.10133 0.48919 0.0
C1591 C 0.99045 0.0946 0.47772 0.0
C1592 C 0.00847 0.10865 0.46371 0.0
C1593 C 0.02007 0.11599 0.47454 0.0
C1594 C 0.01951 0.12505 0.50294 0.0
C1595 C 0.03054 0.13175 0.51344 0.0
C1596 C 0.04218 0.12954 0.49559 0.0
C1597 C 0.04281 0.12063 0.46716 0.0
C1598 C 0.03181 0.1139 0.45656 0.0
C1599 C 0.97196 0.10615 0.33347 0.0
C1600 C 0.98003 0.10188 0.30529 0.0
C1601 C 0.97655 0.10703 0.3691 0.0
C1602 C 0.98922 0.10344 0.37729 0.0
C1603 C 0.99752 0.09994 0.34884 0.0
C1604 C 0.99296 0.09918 0.31304 0.0
C1605 C 0.99342 0.10238 0.41577 0.0
C1606 C 0.00438 0.10909 0.42726 0.0
C1607 C 0.98653 0.0948 0.44118 0.0
C1608 C 0.97566 0.08647 0.42993 0.0
C1609 C 0.97725 0.07736 0.40196 0.0
C1610 C 0.96692 0.06973 0.39088 0.0
C1611 C 0.955 0.07097 0.40795 0.0
C1612 C 0.95338 0.07986 0.43614 0.0
C1613 C 0.96366 0.08757 0.44717 0.0
H1614 H 0.94702 0.06504 0.39936 0.0
H1615 H 0.05071 0.13474 0.50376 0.0
H1616 H 0.84428 0.74822 0.04602 0.0
H1617 H 0.84627 0.753 0.11082 0.0
H1618 H 0.85949 0.71436 0.13083 0.0
H1619 H 0.85699 0.70938 0.06598 0.0
H1620 H 0.84211 0.71985 0.17769 0.0
H1621 H 0.8798 0.74132 0.13922 0.0
H1622 H 0.89339 0.75556 0.10193 0.0
H1623 H 0.87067 0.78804 0.13411 0.0
H1624 H 0.85683 0.77397 0.17119 0.0
H1625 H 0.85289 0.74079 0.36556 0.0
H1626 H 0.85685 0.73242 0.30385 0.0
H1627 H 0.83543 0.764 0.25829 0.0
H1628 H 0.83127 0.77225 0.31936 0.0
H1629 H 0.86078 0.75994 0.22786 0.0
H1630 H 0.82161 0.73681 0.25948 0.0
H1631 H 0.80877 0.7221 0.29744 0.0
H1632 H 0.8362 0.692 0.27919 0.0
H1633 H 0.8493 0.70661 0.24148 0.0
C1634 C 0.84781 0.74081 0.06413 0.0
C1635 C 0.85046 0.72843 0.05103 0.0
C1636 C 0.84902 0.74357 0.10119 0.0
C1637 C 0.85319 0.73409 0.12576 0.0
C1638 C 0.85627 0.72183 0.11244 0.0
C1639 C 0.85487 0.71901 0.0754 0.0
C1640 C 0.8533 0.73675 0.16553 0.0
C1641 C 0.84647 0.72847 0.18873 0.0
C1642 C 0.85891 0.74803 0.18008 0.0
C1643 C 0.86723 0.75656 0.15785 0.0
C1644 C 0.87765 0.75148 0.13816 0.0
C1645 C 0.8854 0.75953 0.11708 0.0
C1646 C 0.88288 0.77269 0.11561 0.0
C1647 C 0.87261 0.77784 0.13527 0.0
C1648 C 0.86482 0.76983 0.15638 0.0
C1649 C 0.8489 0.74583 0.34235 0.0
C1650 C 0.84177 0.75716 0.34721 0.0
C1651 C 0.8512 0.74107 0.30723 0.0
C1652 C 0.8465 0.74768 0.27668 0.0
C1653 C 0.8392 0.75884 0.28159 0.0
C1654 C 0.83677 0.76348 0.31652 0.0
C1655 C 0.84931 0.74325 0.23928 0.0
C1656 C 0.85669 0.7512 0.2167 0.0
C1657 C 0.84438 0.7316 0.22544 0.0
C1658 C 0.83651 0.72284 0.2481 0.0
C1659 C 0.82497 0.72709 0.26388 0.0
C1660 C 0.81763 0.71877 0.28527 0.0
C1661 C 0.82169 0.70614 0.29084 0.0
C1662 C 0.83308 0.7018 0.27493 0.0
C1663 C 0.84046 0.71009 0.25354 0.0
H1664 H 0.81599 0.6997 0.30739 0.0
H1665 H 0.8889 0.7789 0.09927 0.0
H1666 H 0.96192 0.08632 0.07527 0.0
H1667 H 0.96902 0.08941 0.0126 0.0
H1668 H 0.0042 0.10656 0.0513 0.0
H1669 H 0.99691 0.10385 0.11442 0.0
H1670 H 0.99511 0.11977 0.99531 0.0
H1671 H 0.00336 0.07543 0.0189 0.0
H1672 H 0.99848 0.05335 0.03867 0.0
H1673 H 0.96935 0.05039 0.95622 0.0
H1674 H 0.97394 0.07252 0.93627 0.0
H1675 H 0.03075 0.1095 0.83015 0.0
H1676 H 0.02237 0.11034 0.89241 0.0
H1677 H 0.98512 0.09853 0.85344 0.0
H1678 H 0.99341 0.0978 0.79096 0.0
H1679 H 0.99526 0.08304 0.90915 0.0
H1680 H 0.98819 0.12773 0.8846 0.0
H1681 H 0.99422 0.14952 0.86486 0.0
H1682 H 0.02274 0.15136 0.94927 0.0
H1683 H 0.017 0.12949 0.9692 0.0
C1684 C 0.9712 0.0907 0.07048 0.0
C1685 C 0.97893 0.09474 0.09971 0.0
C1686 C 0.97526 0.09243 0.03462 0.0
C1687 C 0.98724 0.09803 0.02723 0.0
C1688 C 0.99494 0.10219 0.05638 0.0
C1689 C 0.9908 0.10058 0.09238 0.0
C1690 C 0.99166 0.09949 0.98902 0.0
C1691 C 0.99531 0.11171 0.9766 0.0
C1692 C 0.9917 0.08901 0.9644 0.0
C1693 C 0.98891 0.07568 0.97633 0.0
C1694 C 0.99584 0.07011 0.00517 0.0
C1695 C 0.99314 0.05757 0.01638 0.0
C1696 C 0.98359 0.05048 -0.00122 0.0
C1697 C 0.97674 0.0559 0.96987 0.0
C1698 C 0.97939 0.06843 0.95857 0.0
C1699 C 0.02071 0.10733 0.83477 0.0
C1700 C 0.01273 0.10353 0.8058 0.0
C1701 C 0.01594 0.10785 0.8703 0.0
C1702 C 0.00314 0.10449 0.87743 0.0
C1703 C 0.99503 0.10116 0.84839 0.0
C1704 C -0.00024 0.10079 0.81276 0.0
C1705 C 0.99861 0.10331 0.91547 0.0
C1706 C 0.995 0.09111 0.92787 0.0
C1707 C 0.99878 0.11376 0.94008 0.0
C1708 C 0.00224 0.12692 0.92817 0.0
C1709 C 0.99583 0.13273 0.89875 0.0
C1710 C -0.00082 0.14511 0.88757 0.0
C1711 C 0.00888 0.15181 0.90574 0.0
C1712 C 0.01523 0.14616 0.93519 0.0
C1713 C 0.01192 0.13377 0.94647 0.0
H1714 H 0.01146 0.1614 0.89705 0.0
H1715 H 0.98151 0.04078 0.00749 0.0
H1716 H 0.64502 0.24093 0.54425 0.0
H1717 H 0.64155 0.23558 0.60826 0.0
H1718 H 0.62918 0.27442 0.62941 0.0
H1719 H 0.63299 0.27991 0.56552 0.0
H1720 H 0.64676 0.26798 0.67592 0.0
H1721 H 0.60809 0.24853 0.63622 0.0
H1722 H 0.594 0.23507 0.59805 0.0
H1723 H 0.61509 0.20147 0.62972 0.0
H1724 H 0.62943 0.21474 0.66768 0.0
H1725 H 0.64179 0.2481 0.8631 0.0
H1726 H 0.63496 0.25623 0.80327 0.0
H1727 H 0.6495 0.22186 0.75222 0.0
H1728 H 0.65621 0.2137 0.81139 0.0
H1729 H 0.62615 0.22867 0.7247 0.0
H1730 H 0.66705 0.24925 0.75352 0.0
H1731 H 0.68133 0.26281 0.79092 0.0
H1732 H 0.65536 0.29456 0.77903 0.0
H1733 H 0.64085 0.28112 0.7419 0.0
C1734 C 0.64131 0.24825 0.56238 0.0
C1735 C 0.63936 0.26084 0.55001 0.0
C1736 C 0.63925 0.24517 0.59896 0.0
C1737 C 0.63501 0.25458 0.62367 0.0
C1738 C 0.63246 0.26701 0.61088 0.0
C1739 C 0.63462 0.27012 0.57437 0.0
C1740 C 0.63465 0.25177 0.6633 0.0
C1741 C 0.64195 0.25956 0.68672 0.0
C1742 C 0.62852 0.24072 0.67742 0.0
C1743 C 0.61989 0.23266 0.65469 0.0
C1744 C 0.60978 0.23829 0.63487 0.0
C1745 C 0.60174 0.23068 0.61329 0.0
C1746 C 0.60366 0.21743 0.61142 0.0
C1747 C 0.61361 0.21174 0.6312 0.0
C1748 C 0.62169 0.2193 0.65281 0.0
C1749 C 0.64347 0.24229 0.83907 0.0
C1750 C 0.64961 0.23032 0.84184 0.0
C1751 C 0.63956 0.24693 0.80499 0.0
C1752 C 0.64175 0.23964 0.77334 0.0
C1753 C 0.64765 0.2276 0.7763 0.0
C1754 C 0.65156 0.223 0.81015 0.0
C1755 C 0.63858 0.24465 0.73666 0.0
C1756 C 0.63063 0.23727 0.71391 0.0
C1757 C 0.64408 0.25609 0.72311 0.0
C1758 C 0.6528 0.26414 0.74538 0.0
C1759 C 0.66434 0.25909 0.75915 0.0
C1760 C 0.67248 0.26676 0.78024 0.0
C1761 C 0.66923 0.27952 0.78746 0.0
C1762 C 0.65785 0.28466 0.7735 0.0
C1763 C 0.64967 0.27703 0.75243 0.0
H1764 H 0.67555 0.28545 0.80378 0.0
H1765 H 0.59742 0.21156 0.59469 0.0
H1766 H 0.46249 0.89106 0.33408 0.0
H1767 H 0.4691 0.88823 0.39745 0.0
H1768 H 0.50884 0.89098 0.36534 0.0
H1769 H 0.50229 0.89371 0.30161 0.0
H1770 H 0.5044 0.87248 0.42009 0.0
H1771 H 0.49409 0.917 0.39476 0.0
H1772 H 0.47986 0.9342 0.37246 0.0
H1773 H 0.45144 0.92378 0.45192 0.0
H1774 H 0.46544 0.90636 0.47428 0.0
H1775 H 0.53515 0.89547 0.57847 0.0
H1776 H 0.5263 0.89157 0.51793 0.0
H1777 H 0.48796 0.89206 0.56247 0.0
H1778 H 0.49681 0.89603 0.62349 0.0
H1779 H 0.48998 0.90725 0.50315 0.0
H1780 H 0.50018 0.86423 0.53261 0.0
H1781 H 0.51309 0.8459 0.55408 0.0
H1782 H 0.54049 0.85246 0.4687 0.0
H1783 H 0.52781 0.87094 0.4469 0.0
C1784 C 0.47265 0.89087 0.3404 0.0
C1785 C 0.48188 0.89275 0.31299 0.0
C1786 C 0.4764 0.88926 0.37661 0.0
C1787 C 0.48944 0.88959 0.38608 0.0
C1788 C 0.49872 0.89072 0.35853 0.0
C1789 C 0.49497 0.89232 0.32221 0.0
C1790 C 0.49333 0.88983 0.42488 0.0
C1791 C 0.50137 0.88012 0.43824 0.0
C1792 C 0.48901 0.89961 0.44872 0.0
C1793 C 0.48075 0.9103 0.43594 0.0
C1794 C 0.48478 0.91834 0.40735 0.0
C1795 C 0.47676 0.92813 0.39471 0.0
C1796 C 0.46473 0.93006 0.41071 0.0
C1797 C 0.46075 0.92225 0.43952 0.0
C1798 C 0.46872 0.91243 0.45219 0.0
C1799 C 0.52483 0.89467 0.57546 0.0
C1800 C 0.51665 0.89613 0.60564 0.0
C1801 C 0.5198 0.89234 0.54087 0.0
C1802 C 0.50648 0.89141 0.53575 0.0
C1803 C 0.49827 0.8927 0.56591 0.0
C1804 C 0.50332 0.89495 0.60068 0.0
C1805 C 0.50122 0.88995 0.49845 0.0
C1806 C 0.49294 0.8995 0.48524 0.0
C1807 C 0.50525 0.87996 0.47491 0.0
C1808 C 0.51308 0.86903 0.48826 0.0
C1809 C 0.50902 0.86185 0.5186 0.0
C1810 C 0.51628 0.85141 0.53077 0.0
C1811 C 0.52758 0.848 0.51271 0.0
C1812 C 0.5317 0.85509 0.48257 0.0
C1813 C 0.52448 0.86554 0.47027 0.0
H1814 H 0.53311 0.83985 0.52202 0.0
H1815 H 0.45849 0.93759 0.40082 0.0
H1816 H 0.86872 0.2501 0.13295 0.0
H1817 H 0.87223 0.25696 0.19627 0.0
H1818 H 0.83307 0.24706 0.22224 0.0
H1819 H 0.8296 0.24001 0.15965 0.0
H1820 H 0.86194 0.2741 0.24325 0.0
H1821 H 0.83207 0.23106 0.30142 0.0
H1822 H 0.82716 0.20871 0.28407 0.0
H1823 H 0.86141 0.20723 0.21904 0.0
H1824 H 0.8667 0.22939 0.23678 0.0
H1825 H 0.83837 0.28769 0.41667 0.0
H1826 H 0.84274 0.28204 0.35352 0.0
H1827 H 0.86435 0.24896 0.38914 0.0
H1828 H 0.85941 0.2543 0.45273 0.0
H1829 H 0.85021 0.24197 0.33739 0.0
H1830 H 0.87908 0.2764 0.3495 0.0
H1831 H 0.8869 0.29792 0.36647 0.0
H1832 H 0.86026 0.31513 0.29173 0.0
H1833 H 0.85214 0.29372 0.27467 0.0
C1834 C 0.86082 0.2496 0.1521 0.0
C1835 C 0.84893 0.2444 0.14157 0.0
C1836 C 0.86284 0.2535 0.1882 0.0
C1837 C 0.85299 0.25224 0.21407 0.0
C1838 C 0.84089 0.24784 0.20288 0.0
C1839 C 0.8389 0.24387 0.16707 0.0
C1840 C 0.85535 0.25485 0.25321 0.0
C1841 C 0.85945 0.26709 0.26393 0.0
C1842 C 0.85268 0.24547 0.28008 0.0
C1843 C 0.84972 0.23195 0.27022 0.0
C1844 C 0.83861 0.22593 0.28369 0.0
C1845 C 0.83576 0.21328 0.27378 0.0
C1846 C 0.84396 0.20654 0.25045 0.0
C1847 C 0.85506 0.21242 0.23713 0.0
C1848 C 0.85799 0.22503 0.24711 0.0
C1849 C 0.84414 0.27926 0.41108 0.0
C1850 C 0.84855 0.27142 0.43955 0.0
C1851 C 0.84674 0.2761 0.37491 0.0
C1852 C 0.85411 0.26521 0.36643 0.0
C1853 C 0.85868 0.25744 0.39495 0.0
C1854 C 0.85587 0.26048 0.43124 0.0
C1855 C 0.85613 0.26151 0.32771 0.0
C1856 C 0.85289 0.24899 0.31694 0.0
C1857 C 0.86008 0.2705 0.30095 0.0
C1858 C 0.86496 0.28343 0.31093 0.0
C1859 C 0.87483 0.28477 0.33683 0.0
C1860 C 0.87933 0.29696 0.34645 0.0
C1861 C 0.87407 0.30789 0.33022 0.0
C1862 C 0.86433 0.30665 0.30427 0.0
C1863 C 0.85979 0.29449 0.29457 0.0
H1864 H 0.87756 0.31731 0.33771 0.0
H1865 H 0.84171 0.19677 0.24271 0.0
H1866 H 0.50315 0.09431 0.19951 0.0
H1867 H 0.50992 0.09618 0.13596 0.0
H1868 H 0.47208 0.10956 0.10649 0.0
H1869 H 0.46515 0.10717 0.16976 0.0
H1870 H 0.47867 0.09207 0.06173 0.0
H1871 H 0.49953 0.12958 0.10573 0.0
H1872 H 0.51313 0.14273 0.14616 0.0
H1873 H 0.54595 0.11979 0.11838 0.0
H1874 H 0.53252 0.10638 0.07816 0.0
H1875 H 0.5 0.10485 0.87823 0.0
H1876 H 0.49198 0.10827 0.94045 0.0
H1877 H 0.52455 0.08767 0.98348 0.0
H1878 H 0.53252 0.08412 0.9217 0.0
H1879 H 0.51952 0.11135 0.01904 0.0
H1880 H 0.4972 0.07284 0.97937 0.0
H1881 H 0.48317 0.06042 0.93823 0.0
H1882 H 0.45238 0.08701 0.95722 0.0
H1883 H 0.4663 0.09969 0.99812 0.0
C1884 C 0.49635 0.09784 0.17953 0.0
C1885 C 0.48363 0.10055 0.18945 0.0
C1886 C 0.50024 0.09897 0.14322 0.0
C1887 C 0.49154 0.10313 0.11637 0.0
C1888 C 0.47895 0.1063 0.12663 0.0
C1889 C 0.47501 0.10497 0.16279 0.0
C1890 C 0.49528 0.10319 0.0773 0.0
C1891 C 0.48748 0.09654 0.05236 0.0
C1892 C 0.50685 0.10886 0.06497 0.0
C1893 C 0.51498 0.11691 0.08913 0.0
C1894 C 0.50963 0.12728 0.10845 0.0
C1895 C 0.51732 0.13479 0.13129 0.0
C1896 C 0.53039 0.13208 0.13489 0.0
C1897 C 0.53582 0.12187 0.11558 0.0
C1898 C 0.52818 0.11432 0.09272 0.0
C1899 C 0.5054 0.10101 0.90099 0.0
C1900 C 0.51685 0.09418 0.89517 0.0
C1901 C 0.50083 0.10298 0.93642 0.0
C1902 C 0.50771 0.09823 0.96644 0.0
C1903 C 0.51915 0.09146 0.96063 0.0
C1904 C 0.52364 0.08937 0.92532 0.0
C1905 C 0.503 0.10012 0.00406 0.0
C1906 C 0.51063 0.1071 0.02858 0.0
C1907 C 0.4912 0.09492 0.01594 0.0
C1908 C 0.48284 0.08729 0.99142 0.0
C1909 C 0.48748 0.0761 0.9745 0.0
C1910 C 0.47954 0.069 0.95129 0.0
C1911 C 0.46691 0.07295 0.94502 0.0
C1912 C 0.46218 0.08398 0.96204 0.0
C1913 C 0.47008 0.09112 0.98525 0.0
H1914 H 0.46077 0.06744 0.92705 0.0
H1915 H 0.53633 0.13791 0.1526 0.0
H1916 H 0.63418 0.71295 0.92859 0.0
H1917 H 0.63082 0.71816 0.86429 0.0
H1918 H 0.64349 0.75697 0.88434 0.0
H1919 H 0.64655 0.75191 0.94878 0.0
H1920 H 0.62475 0.75678 0.83469 0.0
H1921 H 0.66437 0.73388 0.85517 0.0
H1922 H 0.67766 0.71584 0.87683 0.0
H1923 H 0.65739 0.69007 0.80578 0.0
H1924 H 0.64385 0.70796 0.78408 0.0
H1925 H 0.65598 0.77752 0.67721 0.0
H1926 H 0.65057 0.76959 0.73765 0.0
H1927 H 0.63501 0.73501 0.69037 0.0
H1928 H 0.64045 0.74295 0.62912 0.0
H1929 H 0.65151 0.73085 0.75027 0.0
H1930 H 0.61449 0.75622 0.72239 0.0
H1931 H 0.60326 0.77554 0.70019 0.0
H1932 H 0.62071 0.79802 0.7849 0.0
H1933 H 0.63216 0.77887 0.80739 0.0
C1934 C 0.636 0.72266 0.9194 0.0
C1935 C 0.64078 0.73199 0.94354 0.0
C1936 C 0.63411 0.72561 0.88266 0.0
C1937 C 0.63715 0.73788 0.86941 0.0
C1938 C 0.64111 0.74743 0.89397 0.0
C1939 C 0.6429 0.74452 0.93077 0.0
C1940 C 0.63737 0.74049 0.82971 0.0
C1941 C 0.63058 0.75111 0.81622 0.0
C1942 C 0.64483 0.73296 0.80548 0.0
C1943 C 0.65299 0.72221 0.81836 0.0
C1944 C 0.66268 0.72435 0.84438 0.0
C1945 C 0.67027 0.71416 0.85664 0.0
C1946 C 0.66834 0.70181 0.84278 0.0
C1947 C 0.65885 0.69964 0.81655 0.0
C1948 C 0.65121 0.70979 0.80427 0.0
C1949 C 0.65142 0.76821 0.67954 0.0
C1950 C 0.64863 0.76084 0.64844 0.0
C1951 C 0.64825 0.76374 0.71412 0.0
C1952 C 0.64221 0.75182 0.71837 0.0
C1953 C 0.63959 0.74429 0.6875 0.0
C1954 C 0.6427 0.74881 0.65266 0.0
C1955 C 0.63907 0.74724 0.75545 0.0
C1956 C 0.64537 0.73629 0.76851 0.0
C1957 C 0.63135 0.7546 0.77935 0.0
C1958 C 0.62421 0.76609 0.76651 0.0
C1959 C 0.61596 0.76529 0.73623 0.0
C1960 C 0.60955 0.77621 0.72361 0.0
C1961 C 0.61126 0.78799 0.74115 0.0
C1962 C 0.61936 0.78887 0.77141 0.0
C1963 C 0.6258 0.77798 0.78416 0.0
H1964 H 0.60633 0.79645 0.73126 0.0
H1965 H 0.67423 0.69393 0.85228 0.0
H1966 H 0.96256 0.9048 0.42837 0.0
H1967 H 0.97061 0.90317 0.49054 0.0
H1968 H 0.00923 0.89894 0.44963 0.0
H1969 H 0.00109 0.90012 0.38689 0.0
H1970 H 0.00545 0.88315 0.50499 0.0
H1971 H 0.99817 0.92786 0.48431 0.0
H1972 H 0.98595 0.9471 0.46613 0.0
H1973 H 0.95807 0.93947 0.54955 0.0
H1974 H 0.97003 0.92008 0.56791 0.0
H1975 H 0.03664 0.90122 0.67064 0.0
H1976 H 0.02859 0.89962 0.60825 0.0
H1977 H 0.98968 0.89934 0.64854 0.0
H1978 H 0.9977 0.90094 0.71125 0.0
H1979 H 0.99381 0.91718 0.59373 0.0
H1980 H 0.00216 0.87244 0.61498 0.0
H1981 H 0.01528 0.85381 0.6331 0.0
H1982 H 0.0424 0.86239 0.54843 0.0
H1983 H 0.02953 0.88119 0.53012 0.0
C1984 C 0.97277 0.90351 0.43257 0.0
C1985 C 0.98123 0.90271 0.40283 0.0
C1986 C 0.97737 0.90262 0.46814 0.0
C1987 C 0.99056 0.90121 0.4748 0.0
C1988 C -0.00098 0.9001 0.44512 0.0
C1989 C 0.99438 0.90081 0.40935 0.0
C1990 C 0.99545 0.90104 0.5128 0.0
C1991 C 0.00305 0.89068 0.52426 0.0
C1992 C 0.99213 0.91076 0.53815 0.0
C1993 C 0.98494 0.92245 0.52726 0.0
C1994 C 0.98938 0.93023 0.4986 0.0
C1995 C 0.98251 0.94117 0.48829 0.0
C1996 C 0.97123 0.94448 0.50662 0.0
C1997 C 0.96681 0.93688 0.53536 0.0
C1998 C 0.97363 0.92592 0.54575 0.0
C1999 C 0.02637 0.90069 0.66626 0.0
C2000 C 0.01778 0.90123 0.69577 0.0
C2001 C 0.02179 0.89972 0.63061 0.0
C2002 C 0.00855 0.89929 0.62384 0.0
C2003 C -6e-05 0.89963 0.65328 0.0
C2004 C 0.00453 0.90051 0.68902 0.0
C2005 C 0.00371 0.89926 0.58591 0.0
C2006 C 0.99616 0.90963 0.57446 0.0
C2007 C 0.00721 0.88964 0.56055 0.0
C2008 C 0.01493 0.8783 0.57139 0.0
C2009 C 0.01097 0.87042 0.60041 0.0
C2010 C 0.01835 0.85981 0.61068 0.0
C2011 C 0.02968 0.85693 0.59198 0.0
C2012 C 0.03363 0.86463 0.56291 0.0
C2013 C 0.02629 0.87526 0.55255 0.0
H2014 H 0.03538 0.84872 0.59998 0.0
H2015 H 0.96592 0.95296 0.49859 0.0
H2016 H 0.66734 0.75043 0.44626 0.0
H2017 H 0.66677 0.7458 0.38086 0.0
H2018 H 0.62952 0.76365 0.37292 0.0
H2019 H 0.63015 0.7686 0.43826 0.0
H2020 H 0.63333 0.74005 0.32907 0.0
H2021 H 0.65185 0.78105 0.35592 0.0
H2022 H 0.66661 0.79628 0.38559 0.0
H2023 H 0.69877 0.77754 0.33543 0.0
H2024 H 0.68429 0.76169 0.30725 0.0
H2025 H 0.63579 0.74839 0.13726 0.0
H2026 H 0.63365 0.75471 0.20134 0.0
H2027 H 0.67225 0.74161 0.22226 0.0
H2028 H 0.67445 0.73529 0.15844 0.0
H2029 H 0.66626 0.76411 0.25903 0.0
H2030 H 0.64821 0.72225 0.23642 0.0
H2031 H 0.63378 0.70737 0.20401 0.0
H2032 H 0.60101 0.72805 0.24388 0.0
H2033 H 0.61527 0.74335 0.27554 0.0
C2034 C 0.6589 0.75309 0.43077 0.0
C2035 C 0.64883 0.75996 0.44717 0.0
C2036 C 0.65861 0.75048 0.39345 0.0
C2037 C 0.64817 0.75453 0.37218 0.0
C2038 C 0.63765 0.76049 0.38899 0.0
C2039 C 0.63804 0.76332 0.42621 0.0
C2040 C 0.64884 0.75368 0.33205 0.0
C2041 C 0.6404 0.74542 0.31365 0.0
C2042 C 0.65818 0.76064 0.31218 0.0
C2043 C 0.66696 0.77 0.32998 0.0
C2044 C 0.66209 0.77996 0.35191 0.0
C2045 C 0.67042 0.78871 0.36853 0.0
C2046 C 0.68364 0.78778 0.36281 0.0
C2047 C 0.68855 0.77812 0.34039 0.0
C2048 C 0.68029 0.76921 0.32421 0.0
C2049 C 0.64391 0.74714 0.15536 0.0
C2050 C 0.65525 0.74125 0.14305 0.0
C2051 C 0.64266 0.75069 0.19193 0.0
C2052 C 0.65273 0.74844 0.21652 0.0
C2053 C 0.66436 0.74339 0.20368 0.0
C2054 C 0.66559 0.73976 0.16726 0.0
C2055 C 0.65091 0.75034 0.25611 0.0
C2056 C 0.65913 0.7588 0.27444 0.0
C2057 C 0.64143 0.74353 0.27587 0.0
C2058 C 0.63282 0.73406 0.25796 0.0
C2059 C 0.63793 0.7237 0.23803 0.0
C2060 C 0.62978 0.7152 0.21973 0.0
C2061 C 0.61649 0.71679 0.22178 0.0
C2062 C 0.61131 0.72686 0.24223 0.0
C2063 C 0.61943 0.73547 0.26028 0.0
H2064 H 0.6102 0.71018 0.20761 0.0
H2065 H 0.69008 0.79461 0.37549 0.0
H2066 H 0.46496 0.39362 0.68375 0.0
H2067 H 0.47283 0.39249 0.62101 0.0
H2068 H 0.50974 0.40661 0.65611 0.0
H2069 H 0.50197 0.40765 0.71915 0.0
H2070 H 0.49864 0.42048 0.59806 0.0
H2071 H 0.50771 0.3767 0.63034 0.0
H2072 H 0.50259 0.35518 0.65417 0.0
H2073 H 0.4738 0.35041 0.57146 0.0
H2074 H 0.47862 0.37199 0.54743 0.0
H2075 H 0.53242 0.41448 0.43343 0.0
H2076 H 0.52509 0.41283 0.49628 0.0
H2077 H 0.49087 0.39322 0.46023 0.0
H2078 H 0.49841 0.39449 0.39695 0.0
H2079 H 0.5002 0.38188 0.51891 0.0
H2080 H 0.49023 0.42511 0.48681 0.0
H2081 H 0.49419 0.44685 0.4628 0.0
H2082 H 0.52299 0.45308 0.54471 0.0
H2083 H 0.51932 0.4313 0.56892 0.0
C2084 C 0.47482 0.3963 0.67818 0.0
C2085 C 0.48286 0.40075 0.70626 0.0
C2086 C 0.4793 0.39561 0.64237 0.0
C2087 C 0.49186 0.39945 0.63401 0.0
C2088 C 0.50002 0.4036 0.66212 0.0
C2089 C 0.49559 0.40414 0.69806 0.0
C2090 C 0.49614 0.4 0.59559 0.0
C2091 C 0.4992 0.41203 0.58086 0.0
C2092 C 0.49635 0.38901 0.57295 0.0
C2093 C 0.49345 0.37602 0.58731 0.0
C2094 C 0.50021 0.37111 0.61743 0.0
C2095 C 0.49738 0.35889 0.63093 0.0
C2096 C 0.48785 0.35145 0.6144 0.0
C2097 C 0.48116 0.3562 0.58427 0.0
C2098 C 0.48395 0.36842 0.57067 0.0
C2099 C 0.5233 0.40987 0.4388 0.0
C2100 C 0.51593 0.4047 0.41025 0.0
C2101 C 0.5191 0.40897 0.47478 0.0
C2102 C 0.50732 0.40309 0.48297 0.0
C2103 C 0.49997 0.39783 0.45453 0.0
C2104 C 0.50425 0.39861 0.41842 0.0
C2105 C 0.50283 0.40238 0.52133 0.0
C2106 C 0.49968 0.39035 0.53605 0.0
C2107 C 0.50236 0.4134 0.54393 0.0
C2108 C 0.50458 0.42652 0.52947 0.0
C2109 C 0.49748 0.43108 0.49953 0.0
C2110 C 0.49966 0.44341 0.48591 0.0
C2111 C 0.50886 0.45133 0.50216 0.0
C2112 C 0.51587 0.44693 0.53213 0.0
C2113 C 0.51374 0.4346 0.54583 0.0
H2114 H 0.51053 0.46088 0.49158 0.0
H2115 H 0.48567 0.34199 0.6249 0.0
H2116 H 0.86529 0.26228 0.63888 0.0
H2117 H 0.86879 0.25412 0.70052 0.0
H2118 H 0.82834 0.24561 0.70985 0.0
H2119 H 0.82475 0.25442 0.64899 0.0
H2120 H 0.83489 0.25708 0.76672 0.0
H2121 H 0.85274 0.22165 0.70293 0.0
H2122 H 0.86642 0.21028 0.65856 0.0
H2123 H 0.90019 0.22449 0.71227 0.0
H2124 H 0.88671 0.23609 0.7567 0.0
H2125 H 0.8551 0.21193 0.92072 0.0
H2126 H 0.85525 0.21656 0.85552 0.0
H2127 H 0.85854 0.25704 0.87872 0.0
H2128 H 0.85816 0.25248 0.94417 0.0
H2129 H 0.87003 0.22799 0.80558 0.0
H2130 H 0.83729 0.27291 0.82303 0.0
H2131 H 0.82157 0.28135 0.8673 0.0
H2132 H 0.81382 0.2431 0.90485 0.0
H2133 H 0.82914 0.2344 0.85999 0.0
C2134 C 0.8572 0.25845 0.6539 0.0
C2135 C 0.84475 0.25899 0.63931 0.0
C2136 C 0.85921 0.25374 0.68911 0.0
C2137 C 0.84884 0.24916 0.70991 0.0
C2138 C 0.83648 0.24916 0.69453 0.0
C2139 C 0.83444 0.25413 0.65969 0.0
C2140 C 0.85069 0.2453 0.74856 0.0
C2141 C 0.84256 0.25069 0.77505 0.0
C2142 C 0.86054 0.23677 0.75964 0.0
C2143 C 0.8687 0.22983 0.73295 0.0
C2144 C 0.86308 0.22243 0.70511 0.0
C2145 C 0.8708 0.21593 0.67998 0.0
C2146 C 0.88416 0.21669 0.68254 0.0
C2147 C 0.88984 0.22393 0.7103 0.0
C2148 C 0.88216 0.23045 0.73549 0.0
C2149 C 0.85611 0.2218 0.91195 0.0
C2150 C 0.85643 0.23187 0.93749 0.0
C2151 C 0.85624 0.22442 0.87467 0.0
C2152 C 0.85667 0.23715 0.86234 0.0
C2153 C 0.85801 0.24716 0.88776 0.0
C2154 C 0.85783 0.24454 0.9251 0.0
C2155 C 0.8544 0.23999 0.82332 0.0
C2156 C 0.8624 0.2344 0.79696 0.0
C2157 C 0.84409 0.24791 0.81215 0.0
C2158 C 0.83452 0.25303 0.83844 0.0
C2159 C 0.83216 0.26629 0.84054 0.0
C2160 C 0.8233 0.27112 0.86569 0.0
C2161 C 0.81671 0.26276 0.8889 0.0
C2162 C 0.81893 0.24956 0.88685 0.0
C2163 C 0.82768 0.24468 0.86152 0.0
H2164 H 0.80989 0.26652 0.90843 0.0
H2165 H 0.89012 0.21165 0.66306 0.0
H2166 H 0.99787 0.59449 0.21238 0.0
H2167 H 0.98989 0.59552 0.14958 0.0
H2168 H 0.02836 0.60247 0.11088 0.0
H2169 H 0.03642 0.60133 0.17347 0.0
H2170 H 0.00888 0.61754 0.07544 0.0
H2171 H 0.01854 0.57358 0.10736 0.0
H2172 H 0.01703 0.55427 0.14596 0.0
H2173 H 0.97625 0.55305 0.12917 0.0
H2174 H 0.97749 0.57249 0.09093 0.0
H2175 H 0.00068 0.59997 0.88915 0.0
H2176 H 0.00843 0.60207 0.95197 0.0
H2177 H 0.97214 0.58783 0.99184 0.0
H2178 H 0.96455 0.58535 0.92936 0.0
H2179 H 0.99064 0.5769 0.02736 0.0
H2180 H 0.98045 0.62029 0.99498 0.0
H2181 H 0.98128 0.63999 0.95786 0.0
H2182 H 0.02189 0.64285 0.97638 0.0
H2183 H 0.02133 0.62305 0.01323 0.0
C2184 C 0.00458 0.59644 0.19054 0.0
C2185 C 0.01777 0.59772 0.19769 0.0
C2186 C 3e-05 0.59701 0.15475 0.0
C2187 C 0.00858 0.59896 0.1257 0.0
C2188 C 0.02163 0.60095 0.13298 0.0
C2189 C 0.02622 0.60025 0.16869 0.0
C2190 C 0.00409 0.59791 0.08758 0.0
C2191 C 0.00499 0.60864 0.0647 0.0
C2192 C 0.99883 0.58635 0.07399 0.0
C2193 C 0.99809 0.57457 0.0966 0.0
C2194 C 0.00923 0.56926 0.11214 0.0
C2195 C 0.00843 0.55828 0.13392 0.0
C2196 C 0.99655 0.55246 0.14009 0.0
C2197 C 0.98544 0.55758 0.12441 0.0
C2198 C 0.98619 0.56857 0.10266 0.0
C2199 C 0.99439 0.59728 0.91137 0.0
C2200 C 0.98203 0.59249 0.9044 0.0
C2201 C 0.99879 0.59856 0.94724 0.0
C2202 C 0.9908 0.59526 0.97668 0.0
C2203 C 0.97848 0.59043 0.96962 0.0
C2204 C 0.97414 0.58903 0.93387 0.0
C2205 C 0.99529 0.59659 0.0149 0.0
C2206 C 0.99446 0.58585 0.03791 0.0
C2207 C 0.0005 0.60819 0.02862 0.0
C2208 C 0.00087 0.62011 0.00655 0.0
C2209 C 0.98957 0.62506 0.9909 0.0
C2210 C 0.99 0.63626 0.96995 0.0
C2211 C 0.00164 0.64265 0.96468 0.0
C2212 C 0.01288 0.63787 0.98044 0.0
C2213 C 0.01252 0.62667 0.00138 0.0
H2214 H 0.00195 0.65132 0.94846 0.0
H2215 H 0.99594 0.54396 0.15696 0.0
H2216 H 0.63272 0.25739 0.33999 0.0
H2217 H 0.6329 0.25037 0.27653 0.0
H2218 H 0.67181 0.23672 0.28962 0.0
H2219 H 0.67191 0.24467 0.35241 0.0
H2220 H 0.67117 0.24863 0.23139 0.0
H2221 H 0.64355 0.21629 0.27922 0.0
H2222 H 0.62521 0.20723 0.31301 0.0
H2223 H 0.59896 0.22698 0.2423 0.0
H2224 H 0.61715 0.2363 0.20835 0.0
H2225 H 0.67246 0.21259 0.0672 0.0
H2226 H 0.67058 0.21806 0.13169 0.0
H2227 H 0.63913 0.24358 0.10728 0.0
H2228 H 0.64105 0.23824 0.04218 0.0
H2229 H 0.63569 0.22542 0.16968 0.0
H2230 H 0.66542 0.25745 0.12268 0.0
H2231 H 0.68472 0.26385 0.08825 0.0
H2232 H 0.70824 0.24084 0.15874 0.0
H2233 H 0.68905 0.23423 0.19343 0.0
C2234 C 0.64122 0.25268 0.32942 0.0
C2235 C 0.65229 0.25151 0.35096 0.0
C2236 C 0.64131 0.2486 0.29315 0.0
C2237 C 0.65231 0.24283 0.27816 0.0
C2238 C 0.66321 0.24119 0.30035 0.0
C2239 C 0.66325 0.24564 0.33627 0.0
C2240 C 0.6528 0.23935 0.23881 0.0
C2241 C 0.66346 0.24337 0.21825 0.0
C2242 C 0.64269 0.23267 0.2211 0.0
C2243 C 0.63172 0.22709 0.24146 0.0
C2244 C 0.63387 0.21878 0.27104 0.0
C2245 C 0.6235 0.21358 0.29019 0.0
C2246 C 0.61093 0.21655 0.27987 0.0
C2247 C 0.60871 0.2247 0.2503 0.0
C2248 C 0.61904 0.22993 0.23106 0.0
C2249 C 0.66513 0.21936 0.0755 0.0
C2250 C 0.6569 0.22502 0.04972 0.0
C2251 C 0.66408 0.22247 0.11232 0.0
C2252 C 0.65474 0.23122 0.12407 0.0
C2253 C 0.64638 0.23678 0.09856 0.0
C2254 C 0.64753 0.23378 0.0615 0.0
C2255 C 0.65398 0.23469 0.16304 0.0
C2256 C 0.64332 0.23067 0.18327 0.0
C2257 C 0.66422 0.24103 0.18071 0.0
C2258 C 0.6758 0.2453 0.16051 0.0
C2259 C 0.6747 0.25373 0.13075 0.0
C2260 C 0.68562 0.2574 0.11123 0.0
C2261 C 0.6977 0.25276 0.12131 0.0
C2262 C 0.69888 0.24446 0.15102 0.0
C2263 C 0.68799 0.24076 0.17067 0.0
H2264 H 0.70614 0.25559 0.10611 0.0
H2265 H 0.60291 0.21252 0.29473 0.0
H2266 H 0.00064 0.39335 0.62157 0.0
H2267 H 0.00974 0.3892 0.56093 0.0
H2268 H 0.97238 0.39476 0.51264 0.0
H2269 H 0.96326 0.39878 0.57277 0.0
H2270 H 0.98458 0.37437 0.48269 0.0
H2271 H 0.9944 0.41861 0.51251 0.0
H2272 H 0.00375 0.43594 0.54989 0.0
H2273 H 0.04122 0.41929 0.53758 0.0
H2274 H 0.03205 0.40176 0.5005 0.0
H2275 H 0.99557 0.39338 0.30015 0.0
H2276 H 0.98964 0.39063 0.36414 0.0
H2277 H 0.02958 0.38615 0.3927 0.0
H2278 H 0.03558 0.38909 0.32881 0.0
H2279 H 0.0184 0.40341 0.43526 0.0
H2280 H 0.0088 0.36072 0.39779 0.0
H2281 H -0.00071 0.34375 0.35949 0.0
H2282 H 0.96147 0.3574 0.38529 0.0
H2283 H 0.97075 0.37458 0.42335 0.0
C2284 C 0.99439 0.39362 0.59799 0.0
C2285 C 0.98127 0.39647 0.60185 0.0
C2286 C -0.00042 0.39126 0.56343 0.0
C2287 C 0.99174 0.39176 0.53228 0.0
C2288 C 0.97859 0.3943 0.53629 0.0
C2289 C 0.97342 0.39667 0.57068 0.0
C2290 C 0.99716 0.39018 0.49518 0.0
C2291 C 0.99195 0.38073 0.47221 0.0
C2292 C 0.007 0.39827 0.48188 0.0
C2293 C 0.01252 0.40879 0.50415 0.0
C2294 C 0.00462 0.41859 0.51805 0.0
C2295 C 0.00989 0.42845 0.53913 0.0
C2296 C 0.02307 0.42869 0.54621 0.0
C2297 C 0.03101 0.41907 0.53214 0.0
C2298 C 0.02578 0.40918 0.51109 0.0
C2299 C 0.00306 0.3916 0.31998 0.0
C2300 C 0.01603 0.39149 0.30951 0.0
C2301 C -0.00033 0.38997 0.35654 0.0
C2302 C 0.00917 0.3881 0.38321 0.0
C2303 C 0.0221 0.38758 0.37259 0.0
C2304 C 0.0255 0.38923 0.33607 0.0
C2305 C 0.00566 0.38774 0.4224 0.0
C2306 C 0.01122 0.39685 0.4458 0.0
C2307 C 0.99612 0.37935 0.43603 0.0
C2308 C 0.99048 0.369 0.41324 0.0
C2309 C 0.99845 0.36017 0.39509 0.0
C2310 C 0.9931 0.3505 0.37345 0.0
C2311 C 0.97978 0.34951 0.3699 0.0
C2312 C 0.97178 0.35818 0.38805 0.0
C2313 C 0.97709 0.36788 0.40971 0.0
H2314 H 0.97566 0.34202 0.35314 0.0
H2315 H 0.02713 0.43634 0.56252 0.0
H2316 H 0.8244 0.73086 0.8266 0.0
H2317 H 0.82785 0.73916 0.76527 0.0
H2318 H 0.86134 0.75971 0.80232 0.0
H2319 H 0.85796 0.75139 0.86427 0.0
H2320 H 0.84304 0.77254 0.74553 0.0
H2321 H 0.86857 0.73408 0.76985 0.0
H2322 H 0.86959 0.71236 0.79646 0.0
H2323 H 0.84038 0.69949 0.72233 0.0
H2324 H 0.839 0.72121 0.6958 0.0
H2325 H 0.86228 0.78072 0.56297 0.0
H2326 H 0.86395 0.77595 0.62809 0.0
H2327 H 0.8396 0.7428 0.61328 0.0
H2328 H 0.83847 0.74719 0.54799 0.0
H2329 H 0.85615 0.73735 0.66202 0.0
H2330 H 0.82791 0.7731 0.642 0.0
H2331 H 0.82163 0.7945 0.61946 0.0
H2332 H 0.85097 0.81192 0.68522 0.0
H2333 H 0.85751 0.79059 0.70786 0.0
C2334 C 0.83235 0.73736 0.82196 0.0
C2335 C 0.84102 0.74035 0.85005 0.0
C2336 C 0.83428 0.74211 0.78695 0.0
C2337 C 0.8449 0.7499 0.7794 0.0
C2338 C 0.85307 0.7537 0.80783 0.0
C2339 C 0.85116 0.74892 0.84306 0.0
C2340 C 0.84821 0.75263 0.7411 0.0
C2341 C 0.84621 0.76498 0.72729 0.0
C2342 C 0.85193 0.74259 0.71742 0.0
C2343 C 0.85363 0.72928 0.73098 0.0
C2344 C 0.86238 0.72661 0.7592 0.0
C2345 C 0.86298 0.71432 0.77438 0.0
C2346 C 0.85498 0.70459 0.76127 0.0
C2347 C 0.84653 0.70706 0.73255 0.0
C2348 C 0.84585 0.71935 0.71738 0.0
C2349 C 0.8575 0.77228 0.57359 0.0
C2350 C 0.85017 0.76437 0.55061 0.0
C2351 C 0.85838 0.76961 0.61081 0.0
C2352 C 0.85162 0.75921 0.62579 0.0
C2353 C 0.84487 0.75091 0.60244 0.0
C2354 C 0.84421 0.75342 0.56511 0.0
C2355 C 0.8509 0.75735 0.66585 0.0
C2356 C 0.85333 0.74509 0.68014 0.0
C2357 C 0.84721 0.76742 0.68978 0.0
C2358 C 0.8433 0.78025 0.67626 0.0
C2359 C 0.83308 0.78149 0.65144 0.0
C2360 C 0.82946 0.7936 0.63868 0.0
C2361 C 0.83593 0.80456 0.6508 0.0
C2362 C 0.84599 0.80342 0.6758 0.0
C2363 C 0.84966 0.79132 0.68862 0.0
H2364 H 0.83311 0.81393 0.6409 0.0
H2365 H 0.85537 0.69511 0.77329 0.0
H2366 H 0.53717 0.589 0.06329 0.0
H2367 H 0.52997 0.59312 0.00106 0.0
H2368 H 0.49474 0.60934 0.0423 0.0
H2369 H 0.50191 0.60522 0.10495 0.0
H2370 H 0.49099 0.59154 0.98708 0.0
H2371 H 0.51749 0.62873 0.00848 0.0
H2372 H 0.53733 0.64008 0.0261 0.0
H2373 H 0.55798 0.62085 0.9408 0.0
H2374 H 0.53831 0.60924 0.92296 0.0
H2375 H 0.46793 0.612 0.81841 0.0
H2376 H 0.47607 0.61368 0.88068 0.0
H2377 H 0.51302 0.59979 0.845 0.0
H2378 H 0.505 0.59838 0.78234 0.0
H2379 H 0.51573 0.61753 0.89813 0.0
H2380 H 0.4914 0.57937 0.87876 0.0
H2381 H 0.47264 0.5667 0.85932 0.0
H2382 H 0.44937 0.5854 0.94006 0.0
H2383 H 0.46795 0.59845 0.95937 0.0
C2384 C 0.5279 0.59347 0.05917 0.0
C2385 C 0.52008 0.59677 0.08897 0.0
C2386 C 0.52384 0.59589 0.02359 0.0
C2387 C 0.51189 0.60167 0.01712 0.0
C2388 C 0.50402 0.60493 0.0468 0.0
C2389 C 0.50812 0.60258 0.0825 0.0
C2390 C 0.50742 0.60376 0.97927 0.0
C2391 C 0.49625 0.59744 0.96782 0.0
C2392 C 0.5146 0.61105 0.95386 0.0
C2393 C 0.52643 0.61806 0.96453 0.0
C2394 C 0.52628 0.62685 0.99364 0.0
C2395 C 0.53749 0.63335 0.00363 0.0
C2396 C 0.5489 0.63119 0.98455 0.0
C2397 C 0.54913 0.62252 0.9555 0.0
C2398 C 0.53795 0.61599 0.94542 0.0
C2399 C 0.47786 0.60955 0.82369 0.0
C2400 C 0.48579 0.60491 0.79566 0.0
C2401 C 0.48249 0.61048 0.85929 0.0
C2402 C 0.49506 0.60659 0.86758 0.0
C2403 C 0.50327 0.60279 0.83921 0.0
C2404 C 0.49867 0.60197 0.80345 0.0
C2405 C 0.49923 0.60541 0.90608 0.0
C2406 C 0.51038 0.61179 0.91755 0.0
C2407 C 0.4922 0.59794 0.93142 0.0
C2408 C 0.48103 0.59 0.92023 0.0
C2409 C 0.48226 0.58086 0.89219 0.0
C2410 C 0.47166 0.5736 0.8812 0.0
C2411 C 0.45981 0.57524 0.89844 0.0
C2412 C 0.45855 0.58415 0.92671 0.0
C2413 C 0.46911 0.5915 0.93765 0.0
H2414 H 0.45162 0.5696 0.88992 0.0
H2415 H 0.55756 0.63626 0.99225 0.0
H2416 H 0.35848 0.21281 0.5721 0.0
H2417 H 0.35945 0.21941 0.63596 0.0
H2418 H 0.34827 0.25782 0.60549 0.0
H2419 H 0.34768 0.25135 0.54136 0.0
H2420 H 0.36508 0.25865 0.65974 0.0
H2421 H 0.32609 0.23573 0.63462 0.0
H2422 H 0.31302 0.21754 0.61279 0.0
H2423 H 0.33082 0.19279 0.69156 0.0
H2424 H 0.34414 0.21081 0.71352 0.0
H2425 H 0.3334 0.2801 0.81841 0.0
H2426 H 0.3376 0.27202 0.7571 0.0
H2427 H 0.35509 0.23806 0.80236 0.0
H2428 H 0.35106 0.2462 0.86421 0.0
H2429 H 0.33688 0.23389 0.7431 0.0
H2430 H 0.37437 0.25879 0.77176 0.0
H2431 H 0.38586 0.27803 0.79339 0.0
H2432 H 0.36906 0.3003 0.70725 0.0
H2433 H 0.35729 0.28123 0.68546 0.0
C2434 C 0.35645 0.22272 0.57896 0.0
C2435 C 0.35287 0.23155 0.55188 0.0
C2436 C 0.35695 0.22646 0.61546 0.0
C2437 C 0.35364 0.23902 0.62557 0.0
C2438 C 0.3508 0.24805 0.59832 0.0
C2439 C 0.35045 0.24435 0.5617 0.0
C2440 C 0.35225 0.24253 0.66456 0.0
C2441 C 0.35887 0.25328 0.67789 0.0
C2442 C 0.34426 0.23541 0.68841 0.0
C2443 C 0.33621 0.22458 0.67543 0.0
C2444 C 0.32728 0.22638 0.64711 0.0
C2445 C 0.31983 0.21611 0.63473 0.0
C2446 C 0.32112 0.20401 0.65071 0.0
C2447 C 0.32985 0.20217 0.67917 0.0
C2448 C 0.33735 0.21241 0.6916 0.0
C2449 C 0.33806 0.27087 0.81539 0.0
C2450 C 0.34193 0.26378 0.84607 0.0
C2451 C 0.34051 0.26631 0.78036 0.0
C2452 C 0.34678 0.25454 0.77535 0.0
C2453 C 0.35029 0.24721 0.80583 0.0
C2454 C 0.34799 0.25185 0.84103 0.0
C2455 C 0.34965 0.25002 0.73806 0.0
C2456 C 0.34326 0.23912 0.72503 0.0
C2457 C 0.35767 0.25713 0.71439 0.0
C2458 C 0.36486 0.26859 0.72715 0.0
C2459 C 0.37304 0.26781 0.75759 0.0
C2460 C 0.37962 0.27868 0.76986 0.0
C2461 C 0.37817 0.29039 0.75175 0.0
C2462 C 0.37016 0.29123 0.72127 0.0
C2463 C 0.36355 0.28038 0.70893 0.0
H2464 H 0.38326 0.2988 0.7613 0.0
H2465 H 0.31534 0.19607 0.6411 0.0
H2466 H 0.4656 0.58595 0.56903 0.0
H2467 H 0.47218 0.58762 0.50545 0.0
H2468 H 0.50886 0.60286 0.53908 0.0
H2469 H 0.50209 0.60166 0.60302 0.0
H2470 H 0.50029 0.61579 0.48282 0.0
H2471 H 0.50495 0.57104 0.51037 0.0
H2472 H 0.49815 0.54974 0.5324 0.0
H2473 H 0.46835 0.54862 0.45154 0.0
H2474 H 0.47487 0.57 0.42933 0.0
H2475 H 0.53546 0.60153 0.32138 0.0
H2476 H 0.52673 0.60288 0.38306 0.0
H2477 H 0.48907 0.59346 0.342 0.0
H2478 H 0.49776 0.59219 0.27989 0.0
H2479 H 0.4972 0.57809 0.40054 0.0
H2480 H 0.494 0.62274 0.37098 0.0
H2481 H 0.50181 0.64367 0.34888 0.0
H2482 H 0.53022 0.64445 0.43368 0.0
H2483 H 0.5227 0.62342 0.45599 0.0
C2484 C 0.4751 0.5896 0.56292 0.0
C2485 C 0.48339 0.59357 0.59096 0.0
C2486 C 0.47886 0.59052 0.52654 0.0
C2487 C 0.4911 0.59515 0.51746 0.0
C2488 C 0.49938 0.59922 0.54545 0.0
C2489 C 0.49554 0.59848 0.58193 0.0
C2490 C 0.49521 0.59578 0.47876 0.0
C2491 C 0.49977 0.6075 0.46497 0.0
C2492 C 0.49424 0.58505 0.45517 0.0
C2493 C 0.49032 0.57218 0.46843 0.0
C2494 C 0.49688 0.56629 0.49746 0.0
C2495 C 0.49309 0.5542 0.50995 0.0
C2496 C 0.4828 0.54785 0.49344 0.0
C2497 C 0.47631 0.55356 0.46434 0.0
C2498 C 0.48005 0.56566 0.45177 0.0
C2499 C 0.52528 0.5999 0.3254 0.0
C2500 C 0.51728 0.59673 0.29591 0.0
C2501 C 0.52031 0.60073 0.36062 0.0
C2502 C 0.50726 0.59832 0.367 0.0
C2503 C 0.49917 0.59538 0.33752 0.0
C2504 C 0.50413 0.5947 0.30214 0.0
C2505 C 0.50233 0.59805 0.4048 0.0
C2506 C 0.49764 0.58639 0.4184 0.0
C2507 C 0.50333 0.60878 0.42825 0.0
C2508 C 0.50785 0.62145 0.41497 0.0
C2509 C 0.50198 0.62732 0.38474 0.0
C2510 C 0.50634 0.63922 0.37221 0.0
C2511 C 0.51652 0.64538 0.38981 0.0
C2512 C 0.52234 0.63966 0.42005 0.0
C2513 C 0.51803 0.62776 0.43268 0.0
H2514 H 0.51989 0.65458 0.38007 0.0
H2515 H 0.47988 0.53848 0.50315 0.0
H2516 H 0.14035 0.75265 0.35494 0.0
H2517 H 0.1372 0.7597 0.29181 0.0
H2518 H 0.16158 0.7289 0.25429 0.0
H2519 H 0.16506 0.7221 0.31701 0.0
H2520 H 0.16696 0.7496 0.21838 0.0
H2521 H 0.12825 0.72725 0.25052 0.0
H2522 H 0.10893 0.72265 0.28707 0.0
H2523 H 0.09437 0.76038 0.2645 0.0
H2524 H 0.11371 0.76527 0.2282 0.0
H2525 H 0.15013 0.74506 0.03494 0.0
H2526 H 0.14856 0.73901 0.0992 0.0
H2527 H 0.13422 0.77671 0.12552 0.0
H2528 H 0.13593 0.78293 0.06131 0.0
H2529 H 0.12305 0.75377 0.16694 0.0
H2530 H 0.16282 0.77539 0.13384 0.0
H2531 H 0.18162 0.77828 0.09382 0.0
H2532 H 0.19383 0.73974 0.1166 0.0
H2533 H 0.17494 0.73654 0.15621 0.0
C2534 C 0.14511 0.74748 0.33318 0.0
C2535 C 0.15293 0.73682 0.34082 0.0
C2536 C 0.14324 0.75145 0.29716 0.0
C2537 C 0.149 0.7447 0.2683 0.0
C2538 C 0.15704 0.73425 0.27609 0.0
C2539 C 0.159 0.73037 0.31197 0.0
C2540 C 0.14668 0.74836 0.22984 0.0
C2541 C 0.15734 0.75041 0.20721 0.0
C2542 C 0.13413 0.74959 0.21524 0.0
C2543 C 0.12249 0.74667 0.237 0.0
C2544 C 0.12098 0.7346 0.2536 0.0
C2545 C 0.11002 0.73194 0.27423 0.0
C2546 C 0.10045 0.74123 0.2782 0.0
C2547 C 0.1018 0.7532 0.26146 0.0
C2548 C 0.11276 0.75592 0.24084 0.0
C2549 C 0.14629 0.75194 0.05422 0.0
C2550 C 0.14332 0.76451 0.04335 0.0
C2551 C 0.1454 0.74847 0.09084 0.0
C2552 C 0.14139 0.75748 0.11688 0.0
C2553 C 0.13731 0.76966 0.10566 0.0
C2554 C 0.13836 0.7732 0.06909 0.0
C2555 C 0.1433 0.75481 0.15594 0.0
C2556 C 0.13261 0.75301 0.17848 0.0
C2557 C 0.15581 0.75364 0.17047 0.0
C2558 C 0.16741 0.75569 0.1477 0.0
C2559 C 0.16947 0.7675 0.13012 0.0
C2560 C 0.18014 0.7692 0.10752 0.0
C2561 C 0.1889 0.75919 0.10259 0.0
C2562 C 0.18703 0.74748 0.1204 0.0
C2563 C 0.17634 0.74572 0.14294 0.0
H2564 H 0.19714 0.76051 0.08502 0.0
H2565 H 0.09196 0.73915 0.29417 0.0
H2566 H 0.98435 0.38029 0.80297 0.0
H2567 H 0.99116 0.37812 0.86698 0.0
H2568 H 0.98025 0.41743 0.8871 0.0
H2569 H 0.97315 0.41955 0.82391 0.0
H2570 H 0.00605 0.40916 0.91285 0.0
H2571 H 0.96066 0.39737 0.91419 0.0
H2572 H 0.94223 0.38425 0.89441 0.0
H2573 H 0.96129 0.35015 0.93169 0.0
H2574 H 0.97994 0.36307 0.9512 0.0
H2575 H 0.00502 0.42042 0.09863 0.0
H2576 H 0.99818 0.41836 0.03526 0.0
H2577 H 0.00041 0.37711 0.04374 0.0
H2578 H 0.00681 0.37913 0.10785 0.0
H2579 H 0.98083 0.38354 0.00162 0.0
H2580 H 0.02505 0.39431 0.00589 0.0
H2581 H 0.04436 0.4063 0.02464 0.0
H2582 H 0.02937 0.44048 0.97502 0.0
H2583 H 0.00986 0.42874 0.95645 0.0
C2584 C 0.98346 0.38845 0.82112 0.0
C2585 C 0.97819 0.40006 0.80866 0.0
C2586 C 0.98731 0.38719 0.85754 0.0
C2587 C 0.98615 0.39762 0.88158 0.0
C2588 C 0.98119 0.40929 0.86888 0.0
C2589 C 0.97712 0.41046 0.83286 0.0
C2590 C 0.98995 0.3965 0.92024 0.0
C2591 C 0.00053 0.40362 0.93237 0.0
C2592 C 0.98298 0.38889 0.94522 0.0
C2593 C 0.97175 0.38116 0.9337 0.0
C2594 C 0.96098 0.38706 0.91782 0.0
C2595 C 0.95048 0.37966 0.90674 0.0
C2596 C 0.95061 0.36637 0.91167 0.0
C2597 C 0.96122 0.36044 0.92781 0.0
C2598 C 0.97175 0.3678 0.9389 0.0
C2599 C 0.00383 0.41091 0.08717 0.0
C2600 C 0.00653 0.39994 0.10799 0.0
C2601 C 2e-05 0.40974 0.05089 0.0
C2602 C -0.00085 0.39759 0.03444 0.0
C2603 C 0.00112 0.38658 0.05578 0.0
C2604 C 0.00475 0.38774 0.09238 0.0
C2605 C 0.99675 0.39654 0.99465 0.0
C2606 C 0.98649 0.38898 0.98219 0.0
C2607 C 0.00418 0.40356 0.96915 0.0
C2608 C 0.01594 0.41066 0.98001 0.0
C2609 C 0.02583 0.4044 -0.00082 0.0
C2610 C 0.03682 0.41115 0.00976 0.0
C2611 C 0.03808 0.42415 0.00109 0.0
C2612 C 0.02837 0.43041 0.98174 0.0
C2613 C 0.01735 0.42371 0.97114 0.0
H2614 H 0.04659 0.42936 0.00931 0.0
H2615 H 0.94247 0.36066 0.90308 0.0
H2616 H 0.34954 0.74761 0.95502 0.0
H2617 H 0.35216 0.7409 0.8916 0.0
H2618 H 0.36168 0.7798 0.86145 0.0
H2619 H 0.35873 0.78661 0.92467 0.0
H2620 H 0.34409 0.7709 0.81779 0.0
H2621 H 0.38441 0.75521 0.86014 0.0
H2622 H 0.39927 0.74345 0.90038 0.0
H2623 H 0.38043 0.70799 0.87389 0.0
H2624 H 0.36533 0.71956 0.83387 0.0
H2625 H 0.35433 0.75108 0.63316 0.0
H2626 H 0.35876 0.7597 0.69421 0.0
H2627 H 0.34683 0.72381 0.74205 0.0
H2628 H 0.34251 0.71516 0.68155 0.0
H2629 H 0.36842 0.73293 0.77435 0.0
H2630 H 0.3266 0.74917 0.73902 0.0
H2631 H 0.31151 0.76089 0.6993 0.0
H2632 H 0.33349 0.79542 0.71321 0.0
H2633 H 0.34881 0.78385 0.75266 0.0
C2634 C 0.3524 0.75468 0.93497 0.0
C2635 C 0.35388 0.76763 0.94472 0.0
C2636 C 0.35396 0.75083 0.89873 0.0
C2637 C 0.35722 0.75983 0.87174 0.0
C2638 C 0.35916 0.77269 0.88177 0.0
C2639 C 0.35749 0.77656 0.91791 0.0
C2640 C 0.35752 0.75604 0.83272 0.0
C2641 C 0.34965 0.76276 0.80818 0.0
C2642 C 0.36458 0.74529 0.82022 0.0
C2643 C 0.37367 0.73828 0.84419 0.0
C2644 C 0.38337 0.74492 0.86309 0.0
C2645 C 0.39185 0.73828 0.88583 0.0
C2646 C 0.39078 0.72498 0.88974 0.0
C2647 C 0.38124 0.71829 0.87085 0.0
C2648 C 0.37273 0.72488 0.84809 0.0
C2649 C 0.35271 0.74504 0.65674 0.0
C2650 C 0.34799 0.73249 0.65264 0.0
C2651 C 0.35523 0.74997 0.69154 0.0
C2652 C 0.35305 0.74241 0.72265 0.0
C2653 C 0.34862 0.72979 0.71843 0.0
C2654 C 0.34608 0.72489 0.68382 0.0
C2655 C 0.35486 0.74767 0.75985 0.0
C2656 C 0.36308 0.7412 0.78398 0.0
C2657 C 0.34815 0.75866 0.77203 0.0
C2658 C 0.33893 0.76561 0.7484 0.0
C2659 C 0.32827 0.75924 0.73335 0.0
C2660 C 0.31967 0.76585 0.71094 0.0
C2661 C 0.32157 0.77888 0.70364 0.0
C2662 C 0.33205 0.78532 0.71883 0.0
C2663 C 0.34069 0.77874 0.74122 0.0
H2664 H 0.31489 0.78399 0.68629 0.0
H2665 H 0.39736 0.71986 0.90736 0.0
H2666 H 0.00116 0.59656 0.7101 0.0
H2667 H 0.00863 0.59824 0.64703 0.0
H2668 H 0.96978 0.60532 0.61133 0.0
H2669 H 0.96225 0.60331 0.67408 0.0
H2670 H 0.97999 0.58737 0.57154 0.0
H2671 H 0.99323 0.62909 0.60992 0.0
H2672 H 0.0039 0.64512 0.64903 0.0
H2673 H 0.04047 0.62771 0.62725 0.0
H2674 H 0.03 0.61145 0.58839 0.0
H2675 H 0.99832 0.6006 0.38731 0.0
H2676 H 0.99014 0.60369 0.44945 0.0
H2677 H 0.02645 0.59109 0.49321 0.0
H2678 H 0.03463 0.58789 0.43144 0.0
H2679 H 0.01675 0.61331 0.52729 0.0
H2680 H 0.00284 0.57079 0.49249 0.0
H2681 H 0.99196 0.55494 0.45325 0.0
H2682 H 0.95612 0.57462 0.46828 0.0
H2683 H 0.96684 0.59071 0.50722 0.0
C2684 C 0.99427 0.59869 0.68884 0.0
C2685 C 0.98113 0.59975 0.69692 0.0
C2686 C 0.99854 0.59969 0.65282 0.0
C2687 C 0.98976 0.60197 0.62441 0.0
C2688 C 0.97671 0.60352 0.63275 0.0
C2689 C 0.97243 0.6024 0.66863 0.0
C2690 C 0.99402 0.60176 0.58581 0.0
C2691 C 0.98787 0.59325 0.56175 0.0
C2692 C 0.00447 0.60921 0.57315 0.0
C2693 C 0.01081 0.61898 0.59648 0.0
C2694 C 0.00354 0.62861 0.61369 0.0
C2695 C 0.00955 0.63775 0.63578 0.0
C2696 C 0.02285 0.63741 0.64069 0.0
C2697 C 0.03017 0.62795 0.62345 0.0
C2698 C 0.0242 0.61878 0.60135 0.0
C2699 C 0.00454 0.59851 0.41021 0.0
C2700 C 0.01707 0.59394 0.4046 0.0
C2701 C -0.00013 0.60027 0.44561 0.0
C2702 C 0.0077 0.59759 0.47582 0.0
C2703 C 0.02028 0.59325 0.47022 0.0
C2704 C 0.0249 0.59135 0.43494 0.0
C2705 C 0.00272 0.59894 0.51339 0.0
C2706 C 0.00877 0.6076 0.53716 0.0
C2707 C 0.99212 0.59169 0.52579 0.0
C2708 C 0.98567 0.58204 0.50239 0.0
C2709 C 0.99266 0.57181 0.48714 0.0
C2710 C 0.98652 0.56277 0.46502 0.0
C2711 C 0.97336 0.5638 0.45818 0.0
C2712 C 0.96631 0.57385 0.47354 0.0
C2713 C 0.97242 0.58293 0.49564 0.0
H2714 H 0.96862 0.55678 0.44106 0.0
H2715 H 0.02748 0.6445 0.6578 0.0
H2716 H 0.14995 0.28775 0.17205 0.0
H2717 H 0.1475 0.28088 0.23519 0.0
H2718 H 0.13934 0.24231 0.19895 0.0
H2719 H 0.14135 0.24929 0.13531 0.0
H2720 H 0.12451 0.2484 0.25566 0.0
H2721 H 0.16951 0.25102 0.22867 0.0
H2722 H 0.18942 0.2613 0.20706 0.0
H2723 H 0.18561 0.29052 0.28898 0.0
H2724 H 0.16557 0.2805 0.31076 0.0
H2725 H 0.14362 0.21491 0.41594 0.0
H2726 H 0.14056 0.22369 0.35486 0.0
H2727 H 0.14588 0.262 0.39693 0.0
H2728 H 0.14901 0.25324 0.45833 0.0
H2729 H 0.16127 0.25682 0.3384 0.0
H2730 H 0.1167 0.25264 0.36806 0.0
H2731 H 0.09728 0.24144 0.38958 0.0
H2732 H 0.10089 0.21401 0.30278 0.0
H2733 H 0.12045 0.22494 0.28102 0.0
C2734 C 0.14755 0.27782 0.1775 0.0
C2735 C 0.14599 0.26901 0.14883 0.0
C2736 C 0.14618 0.2739 0.21361 0.0
C2737 C 0.14351 0.26102 0.22185 0.0
C2738 C 0.14146 0.25229 0.19321 0.0
C2739 C 0.14265 0.25626 0.15693 0.0
C2740 C 0.14342 0.25662 0.26031 0.0
C2741 C 0.13259 0.25012 0.27367 0.0
C2742 C 0.15388 0.25907 0.28402 0.0
C2743 C 0.16597 0.26508 0.2711 0.0
C2744 C 0.17287 0.25969 0.24191 0.0
C2745 C 0.18418 0.26546 0.22965 0.0
C2746 C 0.18876 0.27658 0.24658 0.0
C2747 C 0.18204 0.28192 0.27586 0.0
C2748 C 0.17071 0.27619 0.28819 0.0
C2749 C 0.14397 0.22522 0.4123 0.0
C2750 C 0.14661 0.2334 0.44185 0.0
C2751 C 0.14215 0.23022 0.3774 0.0
C2752 C 0.14292 0.2435 0.37142 0.0
C2753 C 0.14522 0.25172 0.40104 0.0
C2754 C 0.14698 0.24672 0.43606 0.0
C2755 C 0.14236 0.24863 0.3338 0.0
C2756 C 0.15312 0.25521 0.32052 0.0
C2757 C 0.13191 0.24611 0.31018 0.0
C2758 C 0.12011 0.23955 0.32309 0.0
C2759 C 0.11341 0.24416 0.35372 0.0
C2760 C 0.10237 0.23787 0.36593 0.0
C2761 C 0.09787 0.227 0.3476 0.0
C2762 C 0.10439 0.22242 0.31696 0.0
C2763 C 0.11545 0.22867 0.30465 0.0
H2764 H 0.08931 0.22215 0.3571 0.0
H2765 H 0.19752 0.28103 0.23705 0.0
H2766 H 0.53431 0.3872 0.18419 0.0
H2767 H 0.52671 0.38505 0.1215 0.0
H2768 H 0.48899 0.39757 0.15464 0.0
H2769 H 0.49648 0.39948 0.21774 0.0
H2770 H 0.48761 0.37941 0.10114 0.0
H2771 H 0.50993 0.41873 0.12312 0.0
H2772 H 0.52805 0.43189 0.1446 0.0
H2773 H 0.55268 0.41456 0.06462 0.0
H2774 H 0.53476 0.40096 0.04341 0.0
H2775 H 0.46536 0.40922 0.93941 0.0
H2776 H 0.47298 0.40474 0.00102 0.0
H2777 H 0.50809 0.38912 0.95721 0.0
H2778 H 0.50044 0.39349 0.89507 0.0
H2779 H 0.51149 0.40718 0.01459 0.0
H2780 H 0.48723 0.36897 0.98977 0.0
H2781 H 0.46817 0.35677 0.97 0.0
H2782 H 0.44592 0.37391 0.05567 0.0
H2783 H 0.46479 0.38637 0.07563 0.0
C2784 C 0.52433 0.38926 0.17826 0.0
C2785 C 0.51602 0.39368 0.2057 0.0
C2786 C 0.52001 0.38804 0.14244 0.0
C2787 C 0.50736 0.39141 0.13332 0.0
C2788 C 0.4988 0.39497 0.1611 0.0
C2789 C 0.5031 0.39609 0.19709 0.0
C2790 C 0.50348 0.39244 0.09457 0.0
C2791 C 0.49277 0.38552 0.08224 0.0
C2792 C 0.51031 0.40035 0.06987 0.0
C2793 C 0.52104 0.40872 0.08196 0.0
C2794 C 0.51923 0.41765 0.11028 0.0
C2795 C 0.52947 0.42519 0.12241 0.0
C2796 C 0.54152 0.42407 0.10598 0.0
C2797 C 0.54334 0.4154 0.07736 0.0
C2798 C 0.53315 0.40775 0.06532 0.0
C2799 C 0.4747 0.40481 0.94282 0.0
C2800 C 0.48232 0.40171 0.91245 0.0
C2801 C 0.479 0.40219 0.97803 0.0
C2802 C 0.49103 0.39649 0.98357 0.0
C2803 C 0.49875 0.39347 0.95338 0.0
C2804 C 0.49437 0.39597 0.918 0.0
C2805 C 0.49564 0.39412 0.02112 0.0
C2806 C 0.50645 0.40089 0.03331 0.0
C2807 C 0.48876 0.38626 0.04576 0.0
C2808 C 0.47741 0.37868 0.03402 0.0
C2809 C 0.47825 0.37022 0.00423 0.0
C2810 C 0.46748 0.36324 0.99302 0.0
C2811 C 0.45583 0.36458 0.01152 0.0
C2812 C 0.45494 0.37289 0.04135 0.0
C2813 C 0.46568 0.3799 0.05265 0.0
H2814 H 0.44751 0.35918 0.00279 0.0
H2815 H 0.54943 0.42993 0.11539 0.0
H2816 H 0.11184 0.30224 0.05228 0.0
H2817 H 0.09814 0.32064 0.06504 0.0
H2818 H 0.13102 0.34579 0.05959 0.0
H2819 H 0.14489 0.32726 0.04745 0.0
H2820 H 0.11763 0.35032 0.11921 0.0
H2821 H 0.10759 0.34734 0.99409 0.0
H2822 H 0.10186 0.33705 0.9358 0.0
H2823 H 0.06578 0.32499 0.98077 0.0
H2824 H 0.07136 0.33503 0.03954 0.0
H2825 H 0.07044 0.3998 0.15574 0.0
H2826 H 0.08753 0.3879 0.12436 0.0
H2827 H 0.06477 0.35337 0.13003 0.0
H2828 H 0.04776 0.3651 0.16137 0.0
H2829 H 0.07537 0.35802 0.06074 0.0
H2830 H 0.08829 0.35766 0.18889 0.0
H2831 H 0.09437 0.3681 0.24674 0.0
H2832 H 0.12559 0.38726 0.19311 0.0
H2833 H 0.11958 0.37704 0.13481 0.0
C2834 C 0.11614 0.3117 0.05328 0.0
C2835 C 0.12943 0.31332 0.049 0.0
C2836 C 0.10829 0.32223 0.06032 0.0
C2837 C 0.11354 0.33462 0.06281 0.0
C2838 C 0.12678 0.33632 0.05762 0.0
C2839 C 0.13467 0.32575 0.05066 0.0
C2840 C 0.10527 0.34548 0.07405 0.0
C2841 C 0.10854 0.35225 0.10582 0.0
C2842 C 0.09339 0.34795 0.0567 0.0
C2843 C 0.08993 0.34191 0.02133 0.0
C2844 C 0.09847 0.34242 0.99165 0.0
C2845 C 0.09524 0.33664 0.9585 0.0
C2846 C 0.08347 0.33036 0.95459 0.0
C2847 C 0.07489 0.32986 0.98383 0.0
C2848 C 0.07807 0.33562 0.01706 0.0
C2849 C 0.06913 0.38966 0.15039 0.0
C2850 C 0.05782 0.38334 0.16109 0.0
C2851 C 0.07887 0.38291 0.13245 0.0
C2852 C 0.07735 0.36979 0.12487 0.0
C2853 C 0.06606 0.36351 0.13548 0.0
C2854 C 0.0564 0.3702 0.1536 0.0
C2855 C 0.08755 0.36237 0.10651 0.0
C2856 C 0.08462 0.3563 0.07341 0.0
C2857 C 0.09978 0.36063 0.12241 0.0
C2858 C 0.10338 0.36673 0.15744 0.0
C2859 C 0.09637 0.36419 0.18938 0.0
C2860 C 0.09982 0.37005 0.22226 0.0
C2861 C 0.11033 0.37838 0.22357 0.0
C2862 C 0.11744 0.38083 0.19203 0.0
C2863 C 0.11401 0.37501 0.15908 0.0
H2864 H 0.11299 0.3829 0.24906 0.0
H2865 H 0.08099 0.32588 0.9289 0.0
H2866 H 0.88159 0.79175 0.40984 0.0
H2867 H 0.8965 0.80829 0.38913 0.0
H2868 H 0.86743 0.83723 0.40564 0.0
H2869 H 0.85237 0.82067 0.42615 0.0
H2870 H 0.87947 0.83963 0.33964 0.0
H2871 H 0.89163 0.83493 0.46476 0.0
H2872 H 0.89795 0.82315 0.5202 0.0
H2873 H 0.93183 0.80937 0.46619 0.0
H2874 H 0.92561 0.82092 0.41022 0.0
H2875 H 0.92224 0.89288 0.32318 0.0
H2876 H 0.90623 0.87719 0.3429 0.0
H2877 H 0.93428 0.8469 0.33255 0.0
H2878 H 0.95038 0.86257 0.31341 0.0
H2879 H 0.92221 0.84582 0.3968 0.0
H2880 H 0.90982 0.85009 0.2712 0.0
H2881 H 0.90345 0.86176 0.2156 0.0
H2882 H 0.87005 0.87632 0.27034 0.0
H2883 H 0.87632 0.86488 0.32645 0.0
C2884 C 0.87839 0.80164 0.40928 0.0
C2885 C 0.86585 0.80495 0.41969 0.0
C2886 C 0.88693 0.81108 0.39753 0.0
C2887 C 0.88308 0.82397 0.39617 0.0
C2888 C 0.87056 0.82731 0.40657 0.0
C2889 C 0.86201 0.81787 0.41839 0.0
C2890 C 0.89211 0.83389 0.38319 0.0
C2891 C 0.88875 0.84115 0.35243 0.0
C2892 C 0.90429 0.83562 0.3995 0.0
C2893 C 0.90809 0.8287 0.43319 0.0
C2894 C 0.90037 0.8293 0.46461 0.0
C2895 C 0.90395 0.82268 0.49614 0.0
C2896 C 0.91527 0.81549 0.49669 0.0
C2897 C 0.92306 0.81493 0.46572 0.0
C2898 C 0.91952 0.82153 0.43409 0.0
C2899 C 0.92494 0.88286 0.32472 0.0
C2900 C 0.93755 0.87893 0.31684 0.0
C2901 C 0.91579 0.87391 0.33588 0.0
C2902 C 0.91907 0.86089 0.339 0.0
C2903 C 0.93157 0.85692 0.33037 0.0
C2904 C 0.94074 0.86586 0.31933 0.0
C2905 C 0.90966 0.85148 0.35296 0.0
C2906 C 0.91293 0.84434 0.38401 0.0
C2907 C 0.89741 0.84986 0.33688 0.0
C2908 C 0.89361 0.85673 0.30314 0.0
C2909 C 0.90118 0.85587 0.27148 0.0
C2910 C 0.89757 0.86242 0.23985 0.0
C2911 C 0.88637 0.8698 0.23947 0.0
C2912 C 0.87873 0.87061 0.27069 0.0
C2913 C 0.8823 0.86409 0.3024 0.0
H2914 H 0.88359 0.87487 0.21495 0.0
H2915 H 0.91802 0.81037 0.52113 0.0
H2916 H 0.34929 0.67152 0.57323 0.0
H2917 H 0.36419 0.65445 0.59108 0.0
H2918 H 0.39624 0.67949 0.56884 0.0
H2919 H 0.38146 0.69649 0.5506 0.0
H2920 H 0.40108 0.65496 0.54732 0.0
H2921 H 0.38456 0.67694 0.65386 0.0
H2922 H 0.3674 0.68479 0.69448 0.0
H2923 H 0.35437 0.64614 0.71123 0.0
H2924 H 0.37135 0.63808 0.67024 0.0
H2925 H 0.45148 0.63326 0.65743 0.0
H2926 H 0.43398 0.64619 0.63258 0.0
H2927 H 0.40691 0.61637 0.6599 0.0
H2928 H 0.42439 0.60337 0.68508 0.0
H2929 H 0.39796 0.64073 0.67616 0.0
H2930 H 0.41651 0.61865 0.5749 0.0
H2931 H 0.43415 0.61116 0.53548 0.0
H2932 H 0.44371 0.65016 0.50924 0.0
H2933 H 0.42625 0.6579 0.549 0.0
C2934 C 0.35952 0.67329 0.57157 0.0
C2935 C 0.36424 0.68535 0.56091 0.0
C2936 C 0.368 0.66356 0.58186 0.0
C2937 C 0.38129 0.6658 0.58176 0.0
C2938 C 0.38601 0.67759 0.56915 0.0
C2939 C 0.37756 0.6873 0.55888 0.0
C2940 C 0.3903 0.65631 0.59727 0.0
C2941 C 0.40043 0.65187 0.5755 0.0
C2942 C 0.38926 0.6521 0.63383 0.0
C2943 C 0.37912 0.65692 0.65867 0.0
C2944 C 0.37797 0.67013 0.66599 0.0
C2945 C 0.36829 0.67461 0.6891 0.0
C2946 C 0.35977 0.66597 0.70534 0.0
C2947 C 0.36095 0.65282 0.69857 0.0
C2948 C 0.3706 0.64829 0.67541 0.0
C2949 C 0.44178 0.62951 0.6585 0.0
C2950 C 0.43928 0.61729 0.67298 0.0
C2951 C 0.43182 0.63687 0.64413 0.0
C2952 C 0.41922 0.63211 0.64388 0.0
C2953 C 0.4166 0.62015 0.65969 0.0
C2954 C 0.42658 0.61276 0.67403 0.0
C2955 C 0.40887 0.63959 0.62641 0.0
C2956 C 0.39849 0.64365 0.64781 0.0
C2957 C 0.40971 0.64348 0.58954 0.0
C2958 C 0.42012 0.63886 0.56517 0.0
C2959 C 0.42242 0.62563 0.56093 0.0
C2960 C 0.43239 0.62134 0.5385 0.0
C2961 C 0.44006 0.63018 0.51992 0.0
C2962 C 0.43776 0.64333 0.52366 0.0
C2963 C 0.42782 0.64767 0.54612 0.0
H2964 H 0.44778 0.62683 0.50258 0.0
H2965 H 0.35229 0.66946 0.72323 0.0
H2966 H 0.62073 0.19296 0.93968 0.0
H2967 H 0.60673 0.17514 0.92367 0.0
H2968 H 0.63978 0.15083 0.90694 0.0
H2969 H 0.65394 0.16887 0.922 0.0
H2970 H 0.6241 0.14896 0.85142 0.0
H2971 H 0.61892 0.14586 0.97948 0.0
H2972 H 0.61519 0.15338 0.04231 0.0
H2973 H 0.57746 0.16625 0.01249 0.0
H2974 H 0.58103 0.15898 0.94932 0.0
H2975 H 0.5788 0.09781 0.81722 0.0
H2976 H 0.59637 0.11044 0.84358 0.0
H2977 H 0.57071 0.14259 0.85734 0.0
H2978 H 0.55316 0.13009 0.83113 0.0
H2979 H 0.58481 0.13691 0.91969 0.0
H2980 H 0.59188 0.14272 0.78976 0.0
H2981 H 0.59585 0.13511 0.72709 0.0
H2982 H 0.63047 0.11649 0.76233 0.0
H2983 H 0.62662 0.12386 0.82535 0.0
C2984 C 0.62503 0.18377 0.93315 0.0
C2985 C 0.63842 0.1823 0.93201 0.0
C2986 C 0.61701 0.17355 0.92421 0.0
C2987 C 0.6222 0.16159 0.91456 0.0
C2988 C 0.63558 0.15997 0.91443 0.0
C2989 C 0.64365 0.17026 0.92312 0.0
C2990 C 0.61359 0.15122 0.90167 0.0
C2991 C 0.61568 0.14609 0.86677 0.0
C2992 C 0.60252 0.14758 0.92149 0.0
C2993 C 0.60028 0.15192 0.95956 0.0
C2994 C 0.60986 0.15037 0.98624 0.0
C2995 C 0.60776 0.15458 0.02194 0.0
C2996 C 0.5961 0.16031 0.03138 0.0
C2997 C 0.58649 0.16181 0.00514 0.0
C2998 C 0.58854 0.15763 0.96939 0.0
C2999 C 0.57695 0.10761 0.82558 0.0
C3000 C 0.56463 0.11299 0.82211 0.0
C3001 C 0.58698 0.11479 0.84063 0.0
C3002 C 0.58479 0.12741 0.85242 0.0
C3003 C 0.57254 0.13283 0.84855 0.0
C3004 C 0.56256 0.12571 0.83337 0.0
C3005 C 0.59517 0.13506 0.8692 0.0
C3006 C 0.59339 0.13962 0.90481 0.0
C3007 C 0.60656 0.1381 0.85018 0.0
C3008 C 0.60888 0.1337 0.81231 0.0
C3009 C 0.60028 0.1369 0.7842 0.0
C3010 C 0.60252 0.13266 0.7486 0.0
C3011 C 0.61338 0.12528 0.74075 0.0
C3012 C 0.62205 0.12218 0.76846 0.0
C3013 C 0.61985 0.12639 0.80411 0.0
H3014 H 0.6151 0.12201 0.71318 0.0
H3015 H 0.5945 0.16356 0.05903 0.0
H3016 H 0.04991 0.63132 0.31844 0.0
H3017 H 0.06717 0.6463 0.33282 0.0
H3018 H 0.09484 0.61558 0.32497 0.0
H3019 H 0.0775 0.60043 0.31112 0.0
H3020 H 0.09834 0.62938 0.3857 0.0
H3021 H 0.09359 0.63868 0.25952 0.0
H3022 H 0.0821 0.64374 0.20256 0.0
H3023 H 0.06868 0.67912 0.24901 0.0
H3024 H 0.07994 0.67419 0.30647 0.0
H3025 H 0.14842 0.67628 0.40907 0.0
H3026 H 0.13517 0.65889 0.38428 0.0
H3027 H 0.10189 0.68351 0.38827 0.0
H3028 H 0.11503 0.70091 0.41261 0.0
H3029 H 0.10399 0.67122 0.32324 0.0
H3030 H 0.10646 0.66033 0.45152 0.0
H3031 H 0.11776 0.65517 0.50876 0.0
H3032 H 0.13557 0.62267 0.45748 0.0
H3033 H 0.12449 0.62774 0.39976 0.0
C3034 C 0.05968 0.62777 0.3194 0.0
C3035 C 0.06238 0.61472 0.31367 0.0
C3036 C 0.06954 0.63635 0.32744 0.0
C3037 C 0.0823 0.63207 0.32951 0.0
C3038 C 0.08505 0.61907 0.32335 0.0
C3039 C 0.07516 0.61045 0.31538 0.0
C3040 C 0.09257 0.64113 0.3402 0.0
C3041 C 0.09979 0.63841 0.37158 0.0
C3042 C 0.0943 0.65297 0.32203 0.0
C3043 C 0.08756 0.65602 0.28742 0.0
C3044 C 0.08812 0.6475 0.2577 0.0
C3045 C 0.08165 0.65035 0.2253 0.0
C3046 C 0.07465 0.66173 0.22219 0.0
C3047 C 0.07411 0.6703 0.25146 0.0
C3048 C 0.08055 0.66749 0.28394 0.0
C3049 C 0.13826 0.67793 0.40486 0.0
C3050 C 0.13273 0.68992 0.4128 0.0
C3051 C 0.13072 0.66801 0.39073 0.0
C3052 C 0.11756 0.66993 0.38454 0.0
C3053 C 0.11204 0.68186 0.39272 0.0
C3054 C 0.11954 0.69176 0.4068 0.0
C3055 C 0.10945 0.65961 0.36926 0.0
C3056 C 0.10268 0.66209 0.33696 0.0
C3057 C 0.10814 0.64756 0.38654 0.0
C3058 C 0.11477 0.6445 0.42123 0.0
C3059 C 0.11287 0.65215 0.45237 0.0
C3060 C 0.11922 0.64923 0.48491 0.0
C3061 C 0.12741 0.63863 0.48672 0.0
C3062 C 0.12924 0.6309 0.45601 0.0
C3063 C 0.12293 0.63378 0.42339 0.0
H3064 H 0.13231 0.63638 0.51194 0.0
H3065 H 0.06965 0.66392 0.19708 0.0
H3066 H 0.64894 0.82177 0.58073 0.0
H3067 H 0.63534 0.83885 0.60558 0.0
H3068 H 0.60163 0.81612 0.58293 0.0
H3069 H 0.61512 0.79908 0.558 0.0
H3070 H 0.59791 0.84129 0.56674 0.0
H3071 H 0.61393 0.81588 0.66574 0.0
H3072 H 0.63059 0.80549 0.7033 0.0
H3073 H 0.64678 0.84233 0.72871 0.0
H3074 H 0.63037 0.85293 0.69062 0.0
H3075 H 0.55141 0.86298 0.68977 0.0
H3076 H 0.5683 0.84907 0.66587 0.0
H3077 H 0.5956 0.88001 0.67489 0.0
H3078 H 0.57864 0.89415 0.69831 0.0
H3079 H 0.60401 0.85279 0.697 0.0
H3080 H 0.58488 0.8778 0.59991 0.0
H3081 H 0.56652 0.88641 0.56521 0.0
H3082 H 0.55463 0.84811 0.53827 0.0
H3083 H 0.57263 0.83926 0.57379 0.0
C3084 C 0.63861 0.82052 0.58052 0.0
C3085 C 0.63307 0.80908 0.56767 0.0
C3086 C 0.63088 0.83024 0.59486 0.0
C3087 C 0.61752 0.82864 0.59647 0.0
C3088 C 0.61193 0.81751 0.58196 0.0
C3089 C 0.61965 0.80778 0.5678 0.0
C3090 C 0.60933 0.83823 0.61491 0.0
C3091 C 0.59923 0.8438 0.5952 0.0
C3092 C 0.61115 0.84153 0.652 0.0
C3093 C 0.62103 0.83519 0.67493 0.0
C3094 C 0.62112 0.82176 0.67903 0.0
C3095 C 0.6305 0.81583 0.70048 0.0
C3096 C 0.63974 0.82324 0.71834 0.0
C3097 C 0.63963 0.8366 0.7148 0.0
C3098 C 0.6303 0.84257 0.69326 0.0
C3099 C 0.56105 0.86677 0.68739 0.0
C3100 C 0.56371 0.87967 0.69557 0.0
C3101 C 0.57066 0.85882 0.6737 0.0
C3102 C 0.58309 0.86361 0.66837 0.0
C3103 C 0.58602 0.87621 0.67885 0.0
C3104 C 0.57635 0.88425 0.69212 0.0
C3105 C 0.5926 0.85574 0.64882 0.0
C3106 C 0.60288 0.85046 0.66834 0.0
C3107 C 0.59081 0.85251 0.61172 0.0
C3108 C 0.58004 0.85786 0.58992 0.0
C3109 C 0.57825 0.87121 0.58699 0.0
C3110 C 0.5679 0.87613 0.56714 0.0
C3111 C 0.55935 0.86781 0.54969 0.0
C3112 C 0.56118 0.85455 0.55196 0.0
C3113 C 0.57145 0.84958 0.57198 0.0
H3114 H 0.55134 0.87164 0.53432 0.0
H3115 H 0.64698 0.81864 0.73497 0.0
H3116 H 0.44701 0.36697 0.81248 0.0
H3117 H 0.42935 0.35258 0.82837 0.0
H3118 H 0.40533 0.3852 0.85292 0.0
H3119 H 0.423 0.39969 0.83713 0.0
H3120 H 0.4053 0.36729 0.9074 0.0
H3121 H 0.39912 0.36808 0.77892 0.0
H3122 H 0.40521 0.36668 0.71412 0.0
H3123 H 0.41649 0.32738 0.72874 0.0
H3124 H 0.41066 0.32859 0.79381 0.0
H3125 H 0.35069 0.32627 0.9335 0.0
H3126 H 0.36488 0.34333 0.91134 0.0
H3127 H 0.39335 0.31503 0.88234 0.0
H3128 H 0.37926 0.29797 0.9043 0.0
H3129 H 0.38895 0.33249 0.8275 0.0
H3130 H 0.39736 0.33257 0.95693 0.0
H3131 H 0.39153 0.33393 0.02195 0.0
H3132 H 0.37608 0.37168 0.00512 0.0
H3133 H 0.38166 0.37047 0.93982 0.0
C3134 C 0.43792 0.37108 0.82088 0.0
C3135 C 0.43636 0.38443 0.82363 0.0
C3136 C 0.42784 0.36286 0.82979 0.0
C3137 C 0.41604 0.36786 0.84155 0.0
C3138 C 0.41438 0.38119 0.84381 0.0
C3139 C 0.42445 0.38943 0.8347 0.0
C3140 C 0.40573 0.35908 0.85348 0.0
C3141 C 0.40151 0.35984 0.88973 0.0
C3142 C 0.40101 0.34924 0.83052 0.0
C3143 C 0.40455 0.34847 0.79137 0.0
C3144 C 0.40301 0.35917 0.76842 0.0
C3145 C 0.40639 0.35841 0.73161 0.0
C3146 C 0.41126 0.34696 0.71734 0.0
C3147 C 0.41273 0.33625 0.73984 0.0
C3148 C 0.40937 0.33696 0.77669 0.0
C3149 C 0.36001 0.32371 0.9226 0.0
C3150 C 0.36391 0.31082 0.9207 0.0
C3151 C 0.36808 0.33345 0.90999 0.0
C3152 C 0.38014 0.3304 0.89531 0.0
C3153 C 0.38405 0.31754 0.8935 0.0
C3154 C 0.37603 0.30783 0.90624 0.0
C3155 C 0.38874 0.34057 0.88156 0.0
C3156 C 0.39262 0.34006 0.84498 0.0
C3157 C 0.39315 0.35063 0.9042 0.0
C3158 C 0.38978 0.35136 0.94342 0.0
C3159 C 0.39261 0.34111 0.96702 0.0
C3160 C 0.38937 0.34186 0.00394 0.0
C3161 C 0.3834 0.35286 0.01764 0.0
C3162 C 0.38068 0.36315 0.99445 0.0
C3163 C 0.38388 0.36244 0.95749 0.0
H3164 H 0.3809 0.35343 0.04623 0.0
H3165 H 0.41387 0.34639 0.68883 0.0
H3166 H 0.8496 0.17953 0.0817 0.0
H3167 H 0.86226 0.16112 0.10291 0.0
H3168 H 0.8966 0.18427 0.09955 0.0
H3169 H 0.88411 0.20253 0.078 0.0
H3170 H 0.90039 0.16116 0.06874 0.0
H3171 H 0.88126 0.17772 0.18067 0.0
H3172 H 0.8632 0.18377 0.22058 0.0
H3173 H 0.84804 0.14555 0.2131 0.0
H3174 H 0.86603 0.13926 0.17308 0.0
H3175 H 0.94668 0.1334 0.17915 0.0
H3176 H 0.92977 0.14758 0.15688 0.0
H3177 H 0.90234 0.11667 0.16437 0.0
H3178 H 0.91927 0.10236 0.18698 0.0
H3179 H 0.89264 0.14036 0.18842 0.0
H3180 H 0.91364 0.12301 0.0843 0.0
H3181 H 0.93215 0.11678 0.0463 0.0
H3182 H 0.94362 0.15626 0.0382 0.0
H3183 H 0.92531 0.16271 0.07669 0.0
C3184 C 0.85985 0.18065 0.08547 0.0
C3185 C 0.86589 0.19244 0.07821 0.0
C3186 C 0.86705 0.17016 0.09769 0.0
C3187 C 0.88034 0.17137 0.10296 0.0
C3188 C 0.88635 0.18313 0.09553 0.0
C3189 C 0.8792 0.19356 0.08331 0.0
C3190 C 0.88818 0.16048 0.1161 0.0
C3191 C 0.89873 0.15665 0.09497 0.0
C3192 C 0.88571 0.15428 0.14968 0.0
C3193 C 0.87489 0.15807 0.17356 0.0
C3194 C 0.87402 0.17064 0.18731 0.0
C3195 C 0.86381 0.17411 0.20999 0.0
C3196 C 0.85443 0.16509 0.21919 0.0
C3197 C 0.85529 0.15255 0.20588 0.0
C3198 C 0.8655 0.14902 0.18326 0.0
C3199 C 0.93703 0.12964 0.17645 0.0
C3200 C 0.9343 0.11676 0.1845 0.0
C3201 C 0.9274 0.13774 0.16361 0.0
C3202 C 0.91489 0.13308 0.15844 0.0
C3203 C 0.91197 0.12039 0.16803 0.0
C3204 C 0.92163 0.11225 0.18088 0.0
C3205 C 0.9051 0.14146 0.1417 0.0
C3206 C 0.89417 0.14474 0.16194 0.0
C3207 C 0.90718 0.14714 0.10721 0.0
C3208 C 0.91813 0.14333 0.08361 0.0
C3209 C 0.92016 0.13036 0.07463 0.0
C3210 C 0.93061 0.12679 0.05298 0.0
C3211 C 0.93907 0.13612 0.03989 0.0
C3212 C 0.93707 0.14904 0.04836 0.0
C3213 C 0.92664 0.15266 0.07007 0.0
H3214 H 0.94716 0.13334 0.02315 0.0
H3215 H 0.84653 0.16781 0.23674 0.0
H3216 H 0.88104 0.70257 0.90611 0.0
H3217 H 0.89545 0.68624 0.88166 0.0
H3218 H 0.86373 0.6598 0.87228 0.0
H3219 H 0.84924 0.67609 0.89742 0.0
H3220 H 0.88387 0.64872 0.90436 0.0
H3221 H 0.87818 0.67136 0.78941 0.0
H3222 H 0.87749 0.69006 0.74817 0.0
H3223 H 0.91531 0.70113 0.7824 0.0
H3224 H 0.91644 0.68218 0.82268 0.0
H3225 H 0.92224 0.60235 0.812 0.0
H3226 H 0.9053 0.61788 0.82612 0.0
H3227 H 0.93383 0.64755 0.83948 0.0
H3228 H 0.95074 0.63218 0.82472 0.0
H3229 H 0.91386 0.6562 0.80149 0.0
H3230 H 0.92017 0.63265 0.91299 0.0
H3231 H 0.92145 0.61325 0.95131 0.0
H3232 H 0.88226 0.60415 0.92571 0.0
H3233 H 0.8808 0.62341 0.8868 0.0
C3234 C 0.87711 0.6933 0.89868 0.0
C3235 C 0.86403 0.69057 0.90381 0.0
C3236 C 0.88534 0.68401 0.88437 0.0
C3237 C 0.88062 0.67187 0.87461 0.0
C3238 C 0.86754 0.66914 0.87947 0.0
C3239 C 0.85929 0.67843 0.89387 0.0
C3240 C 0.88957 0.66178 0.86179 0.0
C3241 C 0.89026 0.65024 0.88139 0.0
C3242 C 0.89811 0.66389 0.83248 0.0
C3243 C 0.89733 0.67547 0.80926 0.0
C3244 C 0.88631 0.67785 0.78829 0.0
C3245 C 0.88585 0.68845 0.76501 0.0
C3246 C 0.89625 0.69689 0.76309 0.0
C3247 C 0.90723 0.69463 0.78403 0.0
C3248 C 0.90784 0.68389 0.80682 0.0
C3249 C 0.92488 0.6122 0.81781 0.0
C3250 C 0.9378 0.61607 0.81737 0.0
C3251 C 0.91521 0.62103 0.82602 0.0
C3252 C 0.91833 0.63382 0.83425 0.0
C3253 C 0.93122 0.63773 0.8332 0.0
C3254 C 0.94087 0.62893 0.82485 0.0
C3255 C 0.90824 0.64318 0.84422 0.0
C3256 C 0.90737 0.6546 0.82418 0.0
C3257 C 0.89957 0.64095 0.87323 0.0
C3258 C 0.90042 0.62939 0.89666 0.0
C3259 C 0.91186 0.62645 0.91529 0.0
C3260 C 0.91261 0.61549 0.93716 0.0
C3261 C 0.90195 0.60745 0.94086 0.0
C3262 C 0.89051 0.61037 0.92276 0.0
C3263 C 0.88971 0.62131 0.90081 0.0
H3264 H 0.90255 0.59898 0.95781 0.0
H3265 H 0.89584 0.70514 0.74519 0.0
H3266 H 0.11477 0.20164 0.56798 0.0
H3267 H 0.10005 0.18556 0.59225 0.0
H3268 H 0.12991 0.15694 0.58649 0.0
H3269 H 0.14477 0.17303 0.56196 0.0
H3270 H 0.10559 0.14795 0.56417 0.0
H3271 H 0.12467 0.17024 0.66495 0.0
H3272 H 0.13128 0.18937 0.69986 0.0
H3273 H 0.09188 0.20102 0.70964 0.0
H3274 H 0.08505 0.18207 0.67424 0.0
H3275 H 0.07297 0.1043 0.68031 0.0
H3276 H 0.08973 0.11866 0.65744 0.0
H3277 H 0.06325 0.15047 0.66171 0.0
H3278 H 0.04647 0.13621 0.68473 0.0
H3279 H 0.08729 0.15692 0.68655 0.0
H3280 H 0.06822 0.1356 0.58339 0.0
H3281 H 0.0613 0.11681 0.54752 0.0
H3282 H 0.10031 0.10366 0.54124 0.0
H3283 H 0.10744 0.12224 0.5778 0.0
C3284 C 0.11817 0.19189 0.57143 0.0
C3285 C 0.13094 0.18859 0.56339 0.0
C3286 C 0.10977 0.18274 0.58539 0.0
C3287 C 0.11399 0.17016 0.59165 0.0
C3288 C 0.12653 0.16664 0.58195 0.0
C3289 C 0.13498 0.17583 0.56801 0.0
C3290 C 0.10543 0.1609 0.60995 0.0
C3291 C 0.10174 0.14978 0.59117 0.0
C3292 C 0.10029 0.16346 0.64491 0.0
C3293 C 0.10436 0.17479 0.66667 0.0
C3294 C 0.11742 0.17693 0.67432 0.0
C3295 C 0.12121 0.18774 0.69422 0.0
C3296 C 0.11201 0.19642 0.70689 0.0
C3297 C 0.099 0.1943 0.69978 0.0
C3298 C 0.09516 0.18352 0.67982 0.0
C3299 C 0.07078 0.11439 0.6768 0.0
C3300 C 0.05842 0.11915 0.68407 0.0
C3301 C 0.08033 0.12255 0.66361 0.0
C3302 C 0.07764 0.13556 0.6575 0.0
C3303 C 0.06547 0.14044 0.66622 0.0
C3304 C 0.05591 0.13228 0.67928 0.0
C3305 C 0.08732 0.14404 0.64063 0.0
C3306 C 0.09122 0.15502 0.6597 0.0
C3307 C 0.09261 0.14137 0.60589 0.0
C3308 C 0.08835 0.13023 0.5837 0.0
C3309 C 0.07531 0.12864 0.57465 0.0
C3310 C 0.07135 0.11804 0.55414 0.0
C3311 C 0.08036 0.10905 0.54214 0.0
C3312 C 0.09335 0.11063 0.5506 0.0
C3313 C 0.09735 0.12119 0.57123 0.0
H3314 H 0.07728 0.10085 0.52623 0.0
H3315 H 0.11496 0.20479 0.72229 0.0
H3316 H 0.55041 0.36352 0.31458 0.0
H3317 H 0.56722 0.34871 0.33398 0.0
H3318 H 0.59122 0.3807 0.36478 0.0
H3319 H 0.57452 0.39563 0.34431 0.0
H3320 H 0.60516 0.36223 0.33276 0.0
H3321 H 0.57472 0.36431 0.4294 0.0
H3322 H 0.55324 0.36388 0.45764 0.0
H3323 H 0.54815 0.32482 0.42311 0.0
H3324 H 0.56952 0.32507 0.39418 0.0
H3325 H 0.64535 0.3182 0.43418 0.0
H3326 H 0.63169 0.33645 0.41724 0.0
H3327 H 0.60313 0.31026 0.37556 0.0
H3328 H 0.61655 0.29209 0.39278 0.0
H3329 H 0.5928 0.32808 0.4202 0.0
H3330 H 0.62294 0.32721 0.31881 0.0
H3331 H 0.64457 0.32809 0.29155 0.0
H3332 H 0.65055 0.36544 0.33807 0.0
H3333 H 0.62901 0.36472 0.36598 0.0
C3334 C 0.5593 0.3674 0.32526 0.0
C3335 C 0.56114 0.3807 0.32827 0.0
C3336 C 0.56887 0.35894 0.33647 0.0
C3337 C 0.58034 0.36362 0.35156 0.0
C3338 C 0.5824 0.37691 0.3534 0.0
C3339 C 0.57286 0.3854 0.34178 0.0
C3340 C 0.58997 0.35454 0.36613 0.0
C3341 C 0.60254 0.35489 0.35234 0.0
C3342 C 0.58652 0.34498 0.39168 0.0
C3343 C 0.5737 0.34474 0.40942 0.0
C3344 C 0.56899 0.35565 0.42764 0.0
C3345 C 0.55684 0.35544 0.44379 0.0
C3346 C 0.54933 0.34434 0.44212 0.0
C3347 C 0.55398 0.33342 0.42438 0.0
C3348 C 0.56612 0.33358 0.40814 0.0
C3349 C 0.63618 0.31638 0.42123 0.0
C3350 C 0.63197 0.30375 0.41489 0.0
C3351 C 0.62842 0.32679 0.4115 0.0
C3352 C 0.61643 0.32467 0.39509 0.0
C3353 C 0.61233 0.31208 0.38835 0.0
C3354 C 0.62002 0.30171 0.39813 0.0
C3355 C 0.60782 0.33546 0.38577 0.0
C3356 C 0.59546 0.3355 0.40087 0.0
C3357 C 0.61152 0.34541 0.36174 0.0
C3358 C 0.62443 0.34585 0.34481 0.0
C3359 C 0.62891 0.33557 0.32346 0.0
C3360 C 0.64114 0.33605 0.30785 0.0
C3361 C 0.64895 0.3468 0.31317 0.0
C3362 C 0.64451 0.35711 0.33402 0.0
C3363 C 0.63229 0.35668 0.34972 0.0
H3364 H 0.65841 0.34715 0.30106 0.0
H3365 H 0.53992 0.3442 0.45463 0.0
H3366 H 0.34926 0.82585 0.07611 0.0
H3367 H 0.36231 0.84352 0.10043 0.0
H3368 H 0.39486 0.81806 0.10858 0.0
H3369 H 0.38196 0.80046 0.08448 0.0
H3370 H 0.3903 0.83193 0.17184 0.0
H3371 H 0.39309 0.83927 0.04075 0.0
H3372 H 0.38388 0.84361 0.98004 0.0
H3373 H 0.36681 0.87836 0.02033 0.0
H3374 H 0.37579 0.87413 0.08143 0.0
H3375 H 0.44777 0.865 0.18212 0.0
H3376 H 0.42927 0.85216 0.16436 0.0
H3377 H 0.40581 0.88627 0.1603 0.0
H3378 H 0.42448 0.89932 0.17759 0.0
H3379 H 0.40176 0.87098 0.10163 0.0
H3380 H 0.4019 0.86561 0.22983 0.0
H3381 H 0.41108 0.86155 0.29069 0.0
H3382 H 0.42195 0.82353 0.25767 0.0
H3383 H 0.41301 0.82741 0.19642 0.0
C3384 C 0.35922 0.82408 0.0829 0.0
C3385 C 0.36461 0.8118 0.07846 0.0
C3386 C 0.36664 0.83416 0.09673 0.0
C3387 C 0.37951 0.83205 0.10631 0.0
C3388 C 0.38491 0.81984 0.10151 0.0
C3389 C 0.37755 0.80982 0.08758 0.0
C3390 C 0.38749 0.8424 0.12191 0.0
C3391 C 0.39285 0.84047 0.15652 0.0
C3392 C 0.39032 0.85376 0.10246 0.0
C3393 C 0.38497 0.8563 0.06574 0.0
C3394 C 0.38727 0.84778 0.03673 0.0
C3395 C 0.38212 0.85023 0.00224 0.0
C3396 C 0.37473 0.86123 0.99636 0.0
C3397 C 0.37251 0.86983 0.02494 0.0
C3398 C 0.37764 0.86741 0.0595 0.0
C3399 C 0.43867 0.86979 0.17761 0.0
C3400 C 0.43753 0.88315 0.1814 0.0
C3401 C 0.42809 0.86243 0.16763 0.0
C3402 C 0.41612 0.86824 0.16166 0.0
C3403 C 0.41495 0.88161 0.16504 0.0
C3404 C 0.4256 0.88902 0.17495 0.0
C3405 C 0.40504 0.86021 0.15093 0.0
C3406 C 0.39902 0.8626 0.11737 0.0
C3407 C 0.40151 0.84928 0.17148 0.0
C3408 C 0.40682 0.84684 0.20843 0.0
C3409 C 0.40632 0.85641 0.23546 0.0
C3410 C 0.41147 0.85413 0.27005 0.0
C3411 C 0.41711 0.84229 0.27803 0.0
C3412 C 0.41757 0.83269 0.25145 0.0
C3413 C 0.41244 0.83492 0.21681 0.0
H3414 H 0.4211 0.84055 0.30482 0.0
H3415 H 0.37075 0.86312 0.96963 0.0
H3416 H 0.9183 0.39694 0.70245 0.0
H3417 H 0.89993 0.3837 0.68367 0.0
H3418 H 0.92524 0.35145 0.66738 0.0
H3419 H 0.94353 0.36445 0.68668 0.0
H3420 H 0.9091 0.36062 0.60439 0.0
H3421 H 0.90758 0.34858 0.73296 0.0
H3422 H 0.90549 0.35342 0.79849 0.0
H3423 H 0.86861 0.37059 0.77938 0.0
H3424 H 0.87058 0.366 0.71359 0.0
H3425 H 0.8774 0.30393 0.56773 0.0
H3426 H 0.8904 0.32124 0.59244 0.0
H3427 H 0.85613 0.34132 0.62599 0.0
H3428 H 0.84295 0.32366 0.60204 0.0
H3429 H 0.8738 0.34216 0.67848 0.0
H3430 H 0.87335 0.35194 0.55262 0.0
H3431 H 0.87482 0.34798 0.4865 0.0
H3432 H 0.91434 0.337 0.49825 0.0
H3433 H 0.91306 0.3407 0.56454 0.0
C3434 C 0.91988 0.38695 0.69557 0.0
C3435 C 0.93233 0.38172 0.6958 0.0
C3436 C 0.90941 0.37943 0.6849 0.0
C3437 C 0.91132 0.36668 0.67405 0.0
C3438 C 0.92364 0.36131 0.67567 0.0
C3439 C 0.93405 0.36873 0.68679 0.0
C3440 C 0.90079 0.35915 0.6579 0.0
C3441 C 0.90139 0.35652 0.6205 0.0
C3442 C 0.89047 0.35438 0.67881 0.0
C3443 C 0.88931 0.35711 0.71832 0.0
C3444 C 0.89909 0.35352 0.74267 0.0
C3445 C 0.89791 0.35618 0.77987 0.0
C3446 C 0.88695 0.36235 0.79308 0.0
C3447 C 0.87712 0.36583 0.76911 0.0
C3448 C 0.87826 0.3632 0.73187 0.0
C3449 C 0.8726 0.31205 0.58014 0.0
C3450 C 0.85916 0.3125 0.58275 0.0
C3451 C 0.88005 0.32198 0.59413 0.0
C3452 C 0.87423 0.33269 0.61041 0.0
C3453 C 0.86079 0.33317 0.61331 0.0
C3454 C 0.8533 0.32312 0.59955 0.0
C3455 C 0.88239 0.34313 0.62504 0.0
C3456 C 0.88134 0.34641 0.66207 0.0
C3457 C 0.89222 0.34871 0.60362 0.0
C3458 C 0.89308 0.34654 0.56364 0.0
C3459 C 0.88234 0.3486 0.54116 0.0
C3460 C 0.88314 0.34641 0.50363 0.0
C3461 C 0.89466 0.34223 0.48819 0.0
C3462 C 0.90542 0.34025 0.51024 0.0
C3463 C 0.90467 0.34241 0.5478 0.0
H3464 H 0.89526 0.34054 0.45912 0.0
H3465 H 0.88605 0.3644 0.82189 0.0
H3466 H 0.35423 0.17465 0.41777 0.0
H3467 H 0.36898 0.15833 0.39438 0.0
H3468 H 0.40028 0.18537 0.40105 0.0
H3469 H 0.38556 0.20178 0.42385 0.0
H3470 H 0.39975 0.17348 0.33612 0.0
H3471 H 0.39725 0.16093 0.46242 0.0
H3472 H 0.3862 0.15462 0.51908 0.0
H3473 H 0.37015 0.12175 0.46501 0.0
H3474 H 0.38098 0.12796 0.40786 0.0
H3475 H 0.45382 0.1333 0.31955 0.0
H3476 H 0.43713 0.14821 0.33916 0.0
H3477 H 0.40874 0.11823 0.32938 0.0
H3478 H 0.4255 0.10314 0.31035 0.0
H3479 H 0.40641 0.13077 0.39279 0.0
H3480 H 0.40997 0.14258 0.26742 0.0
H3481 H 0.42111 0.14881 0.21084 0.0
H3482 H 0.43507 0.18303 0.2627 0.0
H3483 H 0.42416 0.17692 0.31978 0.0
C3484 C 0.36428 0.17706 0.41458 0.0
C3485 C 0.36877 0.18947 0.4226 0.0
C3486 C 0.37269 0.16773 0.40129 0.0
C3487 C 0.38572 0.17064 0.39614 0.0
C3488 C 0.39025 0.18296 0.40475 0.0
C3489 C 0.38184 0.19229 0.41791 0.0
C3490 C 0.39461 0.16101 0.38059 0.0
C3491 C 0.40133 0.16419 0.34872 0.0
C3492 C 0.3963 0.14875 0.3964 0.0
C3493 C 0.38981 0.14499 0.43077 0.0
C3494 C 0.39128 0.15241 0.46253 0.0
C3495 C 0.38507 0.14884 0.49475 0.0
C3496 C 0.37745 0.13781 0.49562 0.0
C3497 C 0.37605 0.1303 0.46429 0.0
C3498 C 0.38222 0.13384 0.43198 0.0
C3499 C 0.444 0.12991 0.32121 0.0
C3500 C 0.44094 0.11708 0.31338 0.0
C3501 C 0.43447 0.13845 0.3323 0.0
C3502 C 0.42168 0.13436 0.33534 0.0
C3503 C 0.41856 0.12158 0.32712 0.0
C3504 C 0.42812 0.11299 0.31615 0.0
C3505 C 0.41172 0.14333 0.34864 0.0
C3506 C 0.40477 0.14002 0.38002 0.0
C3507 C 0.4098 0.15549 0.33236 0.0
C3508 C 0.41632 0.15923 0.29798 0.0
C3509 C 0.41549 0.15139 0.26685 0.0
C3510 C 0.42175 0.15491 0.23467 0.0
C3511 C 0.42881 0.1663 0.2332 0.0
C3512 C 0.4296 0.17421 0.26389 0.0
C3513 C 0.42337 0.17073 0.29615 0.0
H3514 H 0.43365 0.169 0.20826 0.0
H3515 H 0.37265 0.13506 0.52059 0.0
H3516 H 0.61919 0.70433 0.11356 0.0
H3517 H 0.60641 0.68712 0.14057 0.0
H3518 H 0.63278 0.65902 0.09734 0.0
H3519 H 0.64562 0.67623 0.07013 0.0
H3520 H 0.60784 0.65332 0.08206 0.0
H3521 H 0.63248 0.66502 0.18676 0.0
H3522 H 0.64177 0.67924 0.23359 0.0
H3523 H 0.60395 0.68983 0.26906 0.0
H3524 H 0.59441 0.67584 0.22204 0.0
H3525 H 0.57778 0.60125 0.1706 0.0
H3526 H 0.59468 0.61686 0.15703 0.0
H3527 H 0.5695 0.64772 0.18922 0.0
H3528 H 0.55252 0.63219 0.20265 0.0
H3529 H 0.59538 0.65089 0.21247 0.0
H3530 H 0.57082 0.64114 0.10511 0.0
H3531 H 0.56102 0.62676 0.05962 0.0
H3532 H 0.59837 0.61311 0.02866 0.0
H3533 H 0.60838 0.62716 0.07484 0.0
C3534 C 0.62228 0.69449 0.10988 0.0
C3535 C 0.63333 0.69158 0.08955 0.0
C3536 C 0.61504 0.68468 0.12558 0.0
C3537 C 0.61873 0.67183 0.12117 0.0
C3538 C 0.62982 0.6689 0.1011 0.0
C3539 C 0.63712 0.67872 0.08559 0.0
C3540 C 0.61054 0.66143 0.13559 0.0
C3541 C 0.60533 0.65263 0.1107 0.0
C3542 C 0.60702 0.66078 0.17281 0.0
C3543 C 0.61273 0.66943 0.20066 0.0
C3544 C 0.62613 0.67047 0.20429 0.0
C3545 C 0.63144 0.67846 0.23097 0.0
C3546 C 0.62345 0.68539 0.25437 0.0
C3547 C 0.61013 0.68441 0.25102 0.0
C3548 C 0.60476 0.67645 0.22435 0.0
C3549 C 0.57592 0.61135 0.1753 0.0
C3550 C 0.56382 0.61555 0.1873 0.0
C3551 C 0.58556 0.62022 0.16755 0.0
C3552 C 0.58325 0.6334 0.17189 0.0
C3553 C 0.57143 0.63757 0.18578 0.0
C3554 C 0.56174 0.62871 0.19322 0.0
C3555 C 0.59271 0.64289 0.15892 0.0
C3556 C 0.59807 0.65152 0.18396 0.0
C3557 C 0.59632 0.64346 0.1218 0.0
C3558 C 0.59034 0.63508 0.09378 0.0
C3559 C 0.57694 0.63497 0.0889 0.0
C3560 C 0.57135 0.6269 0.06294 0.0
C3561 C 0.57906 0.61902 0.04124 0.0
C3562 C 0.5924 0.61921 0.04552 0.0
C3563 C 0.59804 0.62721 0.07164 0.0
H3564 H 0.57471 0.61281 0.02107 0.0
H3565 H 0.62758 0.69157 0.27501 0.0
H3566 H 0.07562 0.89566 0.82822 0.0
H3567 H 0.09181 0.87969 0.84475 0.0
H3568 H 0.06579 0.84932 0.81392 0.0
H3569 H 0.04949 0.86522 0.79809 0.0
H3570 H 0.07537 0.84536 0.87996 0.0
H3571 H 0.09245 0.85657 0.76258 0.0
H3572 H 0.10042 0.87121 0.7149 0.0
H3573 H 0.1307 0.88376 0.78593 0.0
H3574 H 0.1228 0.86932 0.83423 0.0
H3575 H 0.11775 0.79292 0.89104 0.0
H3576 H 0.1033 0.80953 0.86834 0.0
H3577 H 0.12976 0.83879 0.90434 0.0
H3578 H 0.14442 0.82215 0.92666 0.0
H3579 H 0.12041 0.84369 0.83627 0.0
H3580 H 0.10332 0.8326 0.95349 0.0
H3581 H 0.09538 0.81801 0.00133 0.0
H3582 H 0.06504 0.80541 0.93059 0.0
H3583 H 0.07291 0.8198 0.88211 0.0
C3584 C 0.07343 0.88558 0.82451 0.0
C3585 C 0.0613 0.88165 0.81206 0.0
C3586 C 0.0827 0.87648 0.83382 0.0
C3587 C 0.08001 0.86333 0.8304 0.0
C3588 C 0.06804 0.85942 0.81683 0.0
C3589 C 0.05875 0.86851 0.80774 0.0
C3590 C 0.08929 0.85362 0.84339 0.0
C3591 C 0.08516 0.84487 0.86997 0.0
C3592 C 0.10217 0.85328 0.8312 0.0
C3593 C 0.10695 0.86195 0.80215 0.0
C3594 C 0.10074 0.86253 0.76814 0.0
C3595 C 0.10526 0.87078 0.74098 0.0
C3596 C 0.11604 0.87843 0.74741 0.0
C3597 C 0.12235 0.87783 0.78099 0.0
C3598 C 0.11786 0.86961 0.80826 0.0
C3599 C 0.12048 0.80289 0.89426 0.0
C3600 C 0.13215 0.80628 0.91088 0.0
C3601 C 0.11222 0.81236 0.8813 0.0
C3602 C 0.11541 0.82537 0.8851 0.0
C3603 C 0.12714 0.82879 0.90125 0.0
C3604 C 0.13545 0.8193 0.91411 0.0
C3605 C 0.10641 0.83538 0.87244 0.0
C3606 C 0.11061 0.8442 0.84612 0.0
C3607 C 0.09357 0.83582 0.88487 0.0
C3608 C 0.08878 0.8272 0.91405 0.0
C3609 C 0.09502 0.82665 0.94803 0.0
C3610 C 0.09052 0.81843 0.97528 0.0
C3611 C 0.07973 0.81076 0.96897 0.0
C3612 C 0.0734 0.81134 0.93542 0.0
C3613 C 0.07787 0.81953 0.90806 0.0
H3614 H 0.07626 0.8044 0.9901 0.0
H3615 H 0.11953 0.88481 0.72635 0.0
loop_
_geom_bond_atom_site_label_1
_geom_bond_atom_site_label_2
_geom_bond_distance
_geom_bond_site_symmetry_2
_ccdc_geom_bond_type
In0 O1 2.294 . S
In0 O2 2.326 . S
In0 O6 2.266 . S
In0 O7 2.325 1_554 S
In0 O8 2.266 . S
In0 O9 2.326 . S
In0 O11 2.294 . S
In0 O12 2.326 . S
O1 In0 2.294 . S
O1 C10 1.240 . S
O2 In0 2.326 . S
O2 C10 1.252 . S
C3 O6 1.252 1_556 S
C3 O7 1.260 . S
C4 O11 1.240 . S
C4 O12 1.252 . S
C5 O8 1.252 . S
C5 O9 1.260 . S
O6 In0 2.266 . S
O6 C3 1.252 1_554 S
O7 In0 2.325 1_556 S
O7 C3 1.260 . S
O8 In0 2.266 . S
O8 C5 1.252 . S
O9 In0 2.326 . S
O9 C5 1.260 . S
C10 O1 1.240 . S
C10 O2 1.252 . S
O11 In0 2.294 . S
O11 C4 1.240 . S
O12 In0 2.326 . S
O12 C4 1.252 . S
In13 O14 2.294 . S
In13 O15 2.326 . S
In13 O19 2.266 . S
In13 O20 2.326 . S
In13 O21 2.266 . S
In13 O22 2.326 . S
In13 O24 2.294 . S
In13 O25 2.326 . S
O14 In13 2.294 . S
O14 C23 1.240 . S
O15 In13 2.326 . S
O15 C23 1.252 . S
C16 O19 1.252 . S
C16 O20 1.260 . S
C17 O24 1.240 . S
C17 O25 1.252 . S
C18 O21 1.252 . S
C18 O22 1.260 . S
O19 In13 2.266 . S
O19 C16 1.252 . S
O20 In13 2.326 . S
O20 C16 1.260 . S
O21 In13 2.266 . S
O21 C18 1.252 . S
O22 In13 2.326 . S
O22 C18 1.260 . S
C23 O14 1.240 . S
C23 O15 1.252 . S
O24 In13 2.294 . S
O24 C17 1.240 . S
O25 In13 2.326 . S
O25 C17 1.252 . S
In26 O27 2.294 . S
In26 O28 2.326 . S
In26 O32 2.266 . S
In26 O33 2.326 . S
In26 O34 2.266 . S
In26 O35 2.326 . S
In26 O37 2.294 . S
In26 O38 2.326 . S
O27 In26 2.294 . S
O27 C36 1.240 . S
O28 In26 2.326 . S
O28 C36 1.252 . S
C29 O32 1.252 . S
C29 O33 1.260 . S
C30 O37 1.240 . S
C30 O38 1.252 . S
C31 O34 1.252 . S
C31 O35 1.260 . S
O32 In26 2.266 . S
O32 C29 1.252 . S
O33 In26 2.326 . S
O33 C29 1.260 . S
O34 In26 2.266 . S
O34 C31 1.252 . S
O35 In26 2.326 . S
O35 C31 1.260 . S
C36 O27 1.240 . S
C36 O28 1.252 . S
O37 In26 2.294 . S
O37 C30 1.240 . S
O38 In26 2.326 . S
O38 C30 1.252 . S
In39 O40 2.294 . S
In39 O41 2.326 . S
In39 O45 2.266 . S
In39 O46 2.326 . S
In39 O47 2.266 . S
In39 O48 2.326 . S
In39 O50 2.294 . S
In39 O51 2.326 . S
O40 In39 2.294 . S
O40 C49 1.240 . S
O41 In39 2.326 . S
O41 C49 1.252 . S
C42 O45 1.252 . S
C42 O46 1.260 . S
C43 O50 1.240 . S
C43 O51 1.252 . S
C44 O47 1.252 . S
C44 O48 1.260 . S
O45 In39 2.266 . S
O45 C42 1.252 . S
O46 In39 2.326 . S
O46 C42 1.260 . S
O47 In39 2.266 . S
O47 C44 1.252 . S
O48 In39 2.326 . S
O48 C44 1.260 . S
C49 O40 1.240 . S
C49 O41 1.252 . S
O50 In39 2.294 . S
O50 C43 1.240 . S
O51 In39 2.326 . S
O51 C43 1.252 . S
In52 O53 2.294 . S
In52 O54 2.326 . S
In52 O58 2.266 . S
In52 O59 2.326 . S
In52 O60 2.266 . S
In52 O61 2.326 . S
In52 O63 2.294 . S
In52 O64 2.326 . S
O53 In52 2.294 . S
O53 C62 1.240 . S
O54 In52 2.326 . S
O54 C62 1.252 . S
C55 O58 1.252 . S
C55 O59 1.260 . S
C56 O63 1.240 . S
C56 O64 1.252 . S
C57 O60 1.252 . S
C57 O61 1.260 . S
O58 In52 2.266 . S
O58 C55 1.252 . S
O59 In52 2.326 . S
O59 C55 1.260 . S
O60 In52 2.266 . S
O60 C57 1.252 . S
O61 In52 2.326 . S
O61 C57 1.260 . S
C62 O53 1.240 . S
C62 O54 1.252 . S
O63 In52 2.294 . S
O63 C56 1.240 . S
O64 In52 2.326 . S
O64 C56 1.252 . S
In65 O66 2.294 . S
In65 O67 2.326 . S
In65 O71 2.266 . S
In65 O72 2.326 . S
In65 O73 2.266 . S
In65 O74 2.326 . S
In65 O76 2.294 . S
In65 O77 2.326 . S
O66 In65 2.294 . S
O66 C75 1.240 . S
O67 In65 2.326 . S
O67 C75 1.252 . S
C68 O71 1.252 . S
C68 O72 1.260 . S
C69 O76 1.240 . S
C69 O77 1.252 . S
C70 O73 1.252 . S
C70 O74 1.260 . S
O71 In65 2.266 . S
O71 C68 1.252 . S
O72 In65 2.326 . S
O72 C68 1.260 . S
O73 In65 2.266 . S
O73 C70 1.252 . S
O74 In65 2.326 . S
O74 C70 1.260 . S
C75 O66 1.240 . S
C75 O67 1.252 . S
O76 In65 2.294 . S
O76 C69 1.240 . S
O77 In65 2.326 . S
O77 C69 1.252 . S
In78 O79 2.294 . S
In78 O80 2.326 . S
In78 O84 2.266 . S
In78 O85 2.326 . S
In78 O86 2.266 . S
In78 O87 2.325 1_556 S
In78 O89 2.294 . S
In78 O90 2.326 . S
O79 In78 2.294 . S
O79 C88 1.240 . S
O80 In78 2.326 . S
O80 C88 1.252 . S
C81 O84 1.252 . S
C81 O85 1.260 . S
C82 O89 1.240 . S
C82 O90 1.252 . S
C83 O86 1.252 1_554 S
C83 O87 1.260 . S
O84 In78 2.266 . S
O84 C81 1.252 . S
O85 In78 2.326 . S
O85 C81 1.260 . S
O86 In78 2.266 . S
O86 C83 1.252 1_556 S
O87 In78 2.325 1_554 S
O87 C83 1.260 . S
C88 O79 1.240 . S
C88 O80 1.252 . S
O89 In78 2.294 . S
O89 C82 1.240 . S
O90 In78 2.326 . S
O90 C82 1.252 . S
In91 O92 2.294 . S
In91 O93 2.326 . S
In91 O97 2.266 . S
In91 O98 2.326 . S
In91 O99 2.266 . S
In91 O100 2.326 . S
In91 O102 2.294 . S
In91 O103 2.326 . S
O92 In91 2.294 . S
O92 C101 1.240 . S
O93 In91 2.326 . S
O93 C101 1.252 . S
C94 O97 1.252 . S
C94 O98 1.260 . S
C95 O102 1.240 . S
C95 O103 1.252 . S
C96 O99 1.252 . S
C96 O100 1.260 . S
O97 In91 2.266 . S
O97 C94 1.252 . S
O98 In91 2.326 . S
O98 C94 1.260 . S
O99 In91 2.266 . S
O99 C96 1.252 . S
O100 In91 2.326 . S
O100 C96 1.260 . S
C101 O92 1.240 . S
C101 O93 1.252 . S
O102 In91 2.294 . S
O102 C95 1.240 . S
O103 In91 2.326 . S
O103 C95 1.252 . S
In104 O105 2.294 . S
In104 O106 2.326 . S
In104 O110 2.266 . S
In104 O111 2.326 . S
In104 O112 2.266 . S
In104 O113 2.325 1_556 S
In104 O115 2.294 . S
In104 O116 2.326 . S
O105 In104 2.294 . S
O105 C114 1.240 . S
O106 In104 2.326 . S
O106 C114 1.252 . S
C107 O110 1.252 . S
C107 O111 1.260 . S
C108 O115 1.240 . S
C108 O116 1.252 . S
C109 O112 1.252 1_554 S
C109 O113 1.260 . S
O110 In104 2.266 . S
O110 C107 1.252 . S
O111 In104 2.326 . S
O111 C107 1.260 . S
O112 In104 2.266 . S
O112 C109 1.252 1_556 S
O113 In104 2.325 1_554 S
O113 C109 1.260 . S
C114 O105 1.240 . S
C114 O106 1.252 . S
O115 In104 2.294 . S
O115 C108 1.240 . S
O116 In104 2.326 . S
O116 C108 1.252 . S
In117 O118 2.294 . S
In117 O119 2.326 . S
In117 O123 2.266 . S
In117 O124 2.326 . S
In117 O125 2.266 . S
In117 O126 2.326 . S
In117 O128 2.294 . S
In117 O129 2.326 . S
O118 In117 2.294 . S
O118 C127 1.240 . S
O119 In117 2.326 . S
O119 C127 1.252 . S
C120 O123 1.252 . S
C120 O124 1.260 . S
C121 O128 1.240 . S
C121 O129 1.252 . S
C122 O125 1.252 . S
C122 O126 1.260 . S
O123 In117 2.266 . S
O123 C120 1.252 . S
O124 In117 2.326 . S
O124 C120 1.260 . S
O125 In117 2.266 . S
O125 C122 1.252 . S
O126 In117 2.326 . S
O126 C122 1.260 . S
C127 O118 1.240 . S
C127 O119 1.252 . S
O128 In117 2.294 . S
O128 C121 1.240 . S
O129 In117 2.326 . S
O129 C121 1.252 . S
In130 O131 2.294 . S
In130 O132 2.326 . S
In130 O136 2.266 . S
In130 O137 2.326 . S
In130 O138 2.266 . S
In130 O139 2.326 . S
In130 O141 2.294 . S
In130 O142 2.326 . S
O131 In130 2.294 . S
O131 C140 1.240 . S
O132 In130 2.326 . S
O132 C140 1.252 . S
C133 O136 1.252 . S
C133 O137 1.260 . S
C134 O141 1.240 . S
C134 O142 1.252 . S
C135 O138 1.252 . S
C135 O139 1.260 . S
O136 In130 2.266 . S
O136 C133 1.252 . S
O137 In130 2.326 . S
O137 C133 1.260 . S
O138 In130 2.266 . S
O138 C135 1.252 . S
O139 In130 2.326 . S
O139 C135 1.260 . S
C140 O131 1.240 . S
C140 O132 1.252 . S
O141 In130 2.294 . S
O141 C134 1.240 . S
O142 In130 2.326 . S
O142 C134 1.252 . S
In143 O144 2.294 . S
In143 O145 2.326 . S
In143 O149 2.266 . S
In143 O150 2.326 . S
In143 O151 2.266 . S
In143 O152 2.326 . S
In143 O154 2.294 . S
In143 O155 2.326 . S
O144 In143 2.294 . S
O144 C153 1.240 . S
O145 In143 2.326 . S
O145 C153 1.252 . S
C146 O149 1.252 . S
C146 O150 1.260 . S
C147 O154 1.240 . S
C147 O155 1.252 . S
C148 O151 1.252 . S
C148 O152 1.260 . S
O149 In143 2.266 . S
O149 C146 1.252 . S
O150 In143 2.326 . S
O150 C146 1.260 . S
O151 In143 2.266 . S
O151 C148 1.252 . S
O152 In143 2.326 . S
O152 C148 1.260 . S
C153 O144 1.240 . S
C153 O145 1.252 . S
O154 In143 2.294 . S
O154 C147 1.240 . S
O155 In143 2.326 . S
O155 C147 1.252 . S
In156 O157 2.294 . S
In156 O158 2.326 . S
In156 O162 2.266 . S
In156 O163 2.326 . S
In156 O164 2.266 . S
In156 O165 2.326 . S
In156 O167 2.294 . S
In156 O168 2.326 . S
O157 In156 2.294 . S
O157 C166 1.240 . S
O158 In156 2.326 . S
O158 C166 1.252 . S
C159 O162 1.252 . S
C159 O163 1.260 . S
C160 O167 1.240 . S
C160 O168 1.252 . S
C161 O164 1.252 . S
C161 O165 1.260 . S
O162 In156 2.266 . S
O162 C159 1.252 . S
O163 In156 2.326 . S
O163 C159 1.260 . S
O164 In156 2.266 . S
O164 C161 1.252 . S
O165 In156 2.326 . S
O165 C161 1.260 . S
C166 O157 1.240 . S
C166 O158 1.252 . S
O167 In156 2.294 . S
O167 C160 1.240 . S
O168 In156 2.326 . S
O168 C160 1.252 . S
In169 O170 2.294 . S
In169 O171 2.326 . S
In169 O175 2.266 . S
In169 O176 2.326 . S
In169 O177 2.266 . S
In169 O178 2.326 . S
In169 O180 2.294 . S
In169 O181 2.326 . S
O170 In169 2.294 . S
O170 C179 1.240 . S
O171 In169 2.326 . S
O171 C179 1.252 . S
C172 O175 1.252 . S
C172 O176 1.260 . S
C173 O180 1.240 . S
C173 O181 1.252 . S
C174 O177 1.252 . S
C174 O178 1.260 . S
O175 In169 2.266 . S
O175 C172 1.252 . S
O176 In169 2.326 . S
O176 C172 1.260 . S
O177 In169 2.266 . S
O177 C174 1.252 . S
O178 In169 2.326 . S
O178 C174 1.260 . S
C179 O170 1.240 . S
C179 O171 1.252 . S
O180 In169 2.294 . S
O180 C173 1.240 . S
O181 In169 2.326 . S
O181 C173 1.252 . S
In182 O183 2.294 . S
In182 O184 2.326 . S
In182 O188 2.266 . S
In182 O189 2.325 1_554 S
In182 O190 2.266 . S
In182 O191 2.326 . S
In182 O193 2.294 . S
In182 O194 2.326 . S
O183 In182 2.294 . S
O183 C192 1.240 . S
O184 In182 2.326 . S
O184 C192 1.252 . S
C185 O188 1.252 1_556 S
C185 O189 1.260 . S
C186 O193 1.240 . S
C186 O194 1.252 . S
C187 O190 1.252 . S
C187 O191 1.260 . S
O188 In182 2.266 . S
O188 C185 1.252 1_554 S
O189 In182 2.325 1_556 S
O189 C185 1.260 . S
O190 In182 2.266 . S
O190 C187 1.252 . S
O191 In182 2.326 . S
O191 C187 1.260 . S
C192 O183 1.240 . S
C192 O184 1.252 . S
O193 In182 2.294 . S
O193 C186 1.240 . S
O194 In182 2.326 . S
O194 C186 1.252 . S
In195 O196 2.294 . S
In195 O197 2.326 . S
In195 O201 2.266 . S
In195 O202 2.326 . S
In195 O203 2.266 . S
In195 O204 2.326 . S
In195 O206 2.294 . S
In195 O207 2.326 . S
O196 In195 2.294 . S
O196 C205 1.240 . S
O197 In195 2.326 . S
O197 C205 1.252 . S
C198 O201 1.252 . S
C198 O202 1.260 . S
C199 O206 1.240 . S
C199 O207 1.252 . S
C200 O203 1.252 . S
C200 O204 1.260 . S
O201 In195 2.266 . S
O201 C198 1.252 . S
O202 In195 2.326 . S
O202 C198 1.260 . S
O203 In195 2.266 . S
O203 C200 1.252 . S
O204 In195 2.326 . S
O204 C200 1.260 . S
C205 O196 1.240 . S
C205 O197 1.252 . S
O206 In195 2.294 . S
O206 C199 1.240 . S
O207 In195 2.326 . S
O207 C199 1.252 . S
In208 O209 2.294 . S
In208 O210 2.326 . S
In208 O214 2.266 . S
In208 O215 2.326 . S
In208 O216 2.266 . S
In208 O217 2.326 . S
In208 O219 2.294 . S
In208 O220 2.326 . S
O209 In208 2.294 . S
O209 C218 1.240 . S
O210 In208 2.326 . S
O210 C218 1.252 . S
C211 O214 1.252 . S
C211 O215 1.260 . S
C212 O219 1.240 . S
C212 O220 1.252 . S
C213 O216 1.252 . S
C213 O217 1.260 . S
O214 In208 2.266 . S
O214 C211 1.252 . S
O215 In208 2.326 . S
O215 C211 1.260 . S
O216 In208 2.266 . S
O216 C213 1.252 . S
O217 In208 2.326 . S
O217 C213 1.260 . S
C218 O209 1.240 . S
C218 O210 1.252 . S
O219 In208 2.294 . S
O219 C212 1.240 . S
O220 In208 2.326 . S
O220 C212 1.252 . S
In221 O222 2.294 . S
In221 O223 2.326 . S
In221 O227 2.266 . S
In221 O228 2.326 . S
In221 O229 2.266 . S
In221 O230 2.326 . S
In221 O232 2.294 . S
In221 O233 2.326 . S
O222 In221 2.294 . S
O222 C231 1.240 . S
O223 In221 2.326 . S
O223 C231 1.252 . S
C224 O227 1.252 . S
C224 O228 1.260 . S
C225 O232 1.240 . S
C225 O233 1.252 . S
C226 O229 1.252 . S
C226 O230 1.260 . S
O227 In221 2.266 . S
O227 C224 1.252 . S
O228 In221 2.326 . S
O228 C224 1.260 . S
O229 In221 2.266 . S
O229 C226 1.252 . S
O230 In221 2.326 . S
O230 C226 1.260 . S
C231 O222 1.240 . S
C231 O223 1.252 . S
O232 In221 2.294 . S
O232 C225 1.240 . S
O233 In221 2.326 . S
O233 C225 1.252 . S
In234 O235 2.294 . S
In234 O236 2.326 . S
In234 O240 2.266 . S
In234 O241 2.325 1_554 S
In234 O242 2.266 . S
In234 O243 2.326 . S
In234 O245 2.294 . S
In234 O246 2.326 . S
O235 In234 2.294 . S
O235 C244 1.240 . S
O236 In234 2.326 . S
O236 C244 1.252 . S
C237 O240 1.252 1_556 S
C237 O241 1.260 . S
C238 O245 1.240 . S
C238 O246 1.252 . S
C239 O242 1.252 . S
C239 O243 1.260 . S
O240 In234 2.266 . S
O240 C237 1.252 1_554 S
O241 In234 2.325 1_556 S
O241 C237 1.260 . S
O242 In234 2.266 . S
O242 C239 1.252 . S
O243 In234 2.326 . S
O243 C239 1.260 . S
C244 O235 1.240 . S
C244 O236 1.252 . S
O245 In234 2.294 . S
O245 C238 1.240 . S
O246 In234 2.326 . S
O246 C238 1.252 . S
In247 O248 2.294 . S
In247 O249 2.326 . S
In247 O253 2.266 . S
In247 O254 2.326 . S
In247 O255 2.266 . S
In247 O256 2.326 . S
In247 O258 2.294 . S
In247 O259 2.326 . S
O248 In247 2.294 . S
O248 C257 1.240 . S
O249 In247 2.326 . S
O249 C257 1.252 . S
C250 O253 1.252 . S
C250 O254 1.260 . S
C251 O258 1.240 . S
C251 O259 1.252 . S
C252 O255 1.252 . S
C252 O256 1.260 . S
O253 In247 2.266 . S
O253 C250 1.252 . S
O254 In247 2.326 . S
O254 C250 1.260 . S
O255 In247 2.266 . S
O255 C252 1.252 . S
O256 In247 2.326 . S
O256 C252 1.260 . S
C257 O248 1.240 . S
C257 O249 1.252 . S
O258 In247 2.294 . S
O258 C251 1.240 . S
O259 In247 2.326 . S
O259 C251 1.252 . S
In260 O261 2.294 . S
In260 O262 2.326 . S
In260 O266 2.266 . S
In260 O267 2.326 . S
In260 O268 2.266 . S
In260 O269 2.326 1_556 S
In260 O271 2.294 . S
In260 O272 2.326 . S
O261 In260 2.294 . S
O261 C270 1.240 . S
O262 In260 2.326 . S
O262 C270 1.252 . S
C263 O266 1.252 . S
C263 O267 1.260 . S
C264 O271 1.240 . S
C264 O272 1.252 . S
C265 O268 1.252 1_554 S
C265 O269 1.260 . S
O266 In260 2.266 . S
O266 C263 1.252 . S
O267 In260 2.326 . S
O267 C263 1.260 . S
O268 In260 2.266 . S
O268 C265 1.252 1_556 S
O269 In260 2.326 1_554 S
O269 C265 1.260 . S
C270 O261 1.240 . S
C270 O262 1.252 . S
O271 In260 2.294 . S
O271 C264 1.240 . S
O272 In260 2.326 . S
O272 C264 1.252 . S
In273 O274 2.294 . S
In273 O275 2.326 . S
In273 O279 2.266 . S
In273 O280 2.326 . S
In273 O281 2.266 . S
In273 O282 2.326 . S
In273 O284 2.294 . S
In273 O285 2.326 . S
O274 In273 2.294 . S
O274 C283 1.240 . S
O275 In273 2.326 . S
O275 C283 1.252 . S
C276 O279 1.252 . S
C276 O280 1.260 . S
C277 O284 1.240 . S
C277 O285 1.252 . S
C278 O281 1.252 . S
C278 O282 1.260 . S
O279 In273 2.266 . S
O279 C276 1.252 . S
O280 In273 2.326 . S
O280 C276 1.260 . S
O281 In273 2.266 . S
O281 C278 1.252 . S
O282 In273 2.326 . S
O282 C278 1.260 . S
C283 O274 1.240 . S
C283 O275 1.252 . S
O284 In273 2.294 . S
O284 C277 1.240 . S
O285 In273 2.326 . S
O285 C277 1.252 . S
In286 O287 2.294 . S
In286 O288 2.326 . S
In286 O292 2.266 . S
In286 O293 2.326 . S
In286 O294 2.266 . S
In286 O295 2.326 . S
In286 O297 2.294 . S
In286 O298 2.326 . S
O287 In286 2.294 . S
O287 C296 1.240 . S
O288 In286 2.326 . S
O288 C296 1.252 . S
C289 O292 1.252 . S
C289 O293 1.260 . S
C290 O297 1.240 . S
C290 O298 1.252 . S
C291 O294 1.252 . S
C291 O295 1.260 . S
O292 In286 2.266 . S
O292 C289 1.252 . S
O293 In286 2.326 . S
O293 C289 1.260 . S
O294 In286 2.266 . S
O294 C291 1.252 . S
O295 In286 2.326 . S
O295 C291 1.260 . S
C296 O287 1.240 . S
C296 O288 1.252 . S
O297 In286 2.294 . S
O297 C290 1.240 . S
O298 In286 2.326 . S
O298 C290 1.252 . S
In299 O300 2.294 . S
In299 O301 2.326 . S
In299 O305 2.266 . S
In299 O306 2.326 . S
In299 O307 2.266 . S
In299 O308 2.326 . S
In299 O310 2.294 . S
In299 O311 2.326 . S
O300 In299 2.294 . S
O300 C309 1.240 . S
O301 In299 2.326 . S
O301 C309 1.252 . S
C302 O305 1.252 . S
C302 O306 1.260 . S
C303 O310 1.240 . S
C303 O311 1.252 . S
C304 O307 1.252 . S
C304 O308 1.260 . S
O305 In299 2.266 . S
O305 C302 1.252 . S
O306 In299 2.326 . S
O306 C302 1.260 . S
O307 In299 2.266 . S
O307 C304 1.252 . S
O308 In299 2.326 . S
O308 C304 1.260 . S
C309 O300 1.240 . S
C309 O301 1.252 . S
O310 In299 2.294 . S
O310 C303 1.240 . S
O311 In299 2.326 . S
O311 C303 1.252 . S
In312 O313 2.294 . S
In312 O314 2.326 . S
In312 O318 2.266 . S
In312 O319 2.326 . S
In312 O320 2.266 . S
In312 O321 2.326 . S
In312 O323 2.294 . S
In312 O324 2.326 . S
O313 In312 2.294 . S
O313 C322 1.240 . S
O314 In312 2.326 . S
O314 C322 1.252 . S
C315 O318 1.252 . S
C315 O319 1.260 . S
C316 O323 1.240 . S
C316 O324 1.252 . S
C317 O320 1.252 . S
C317 O321 1.260 . S
O318 In312 2.266 . S
O318 C315 1.252 . S
O319 In312 2.326 . S
O319 C315 1.260 . S
O320 In312 2.266 . S
O320 C317 1.252 . S
O321 In312 2.326 . S
O321 C317 1.260 . S
C322 O313 1.240 . S
C322 O314 1.252 . S
O323 In312 2.294 . S
O323 C316 1.240 . S
O324 In312 2.326 . S
O324 C316 1.252 . S
In325 O326 2.294 . S
In325 O327 2.326 . S
In325 O331 2.266 . S
In325 O332 2.326 . S
In325 O333 2.266 . S
In325 O334 2.326 . S
In325 O336 2.294 . S
In325 O337 2.326 . S
O326 In325 2.294 . S
O326 C335 1.240 . S
O327 In325 2.326 . S
O327 C335 1.252 . S
C328 O331 1.252 . S
C328 O332 1.260 . S
C329 O336 1.240 . S
C329 O337 1.252 . S
C330 O333 1.252 . S
C330 O334 1.260 . S
O331 In325 2.266 . S
O331 C328 1.252 . S
O332 In325 2.326 . S
O332 C328 1.260 . S
O333 In325 2.266 . S
O333 C330 1.252 . S
O334 In325 2.326 . S
O334 C330 1.260 . S
C335 O326 1.240 . S
C335 O327 1.252 . S
O336 In325 2.294 . S
O336 C329 1.240 . S
O337 In325 2.326 . S
O337 C329 1.252 . S
In338 O339 2.294 . S
In338 O340 2.326 . S
In338 O344 2.266 . S
In338 O345 2.325 1_556 S
In338 O346 2.266 . S
In338 O347 2.326 . S
In338 O349 2.294 . S
In338 O350 2.326 . S
O339 In338 2.294 . S
O339 C348 1.240 . S
O340 In338 2.326 . S
O340 C348 1.252 . S
C341 O344 1.252 1_554 S
C341 O345 1.260 . S
C342 O349 1.240 . S
C342 O350 1.252 . S
C343 O346 1.252 . S
C343 O347 1.260 . S
O344 In338 2.266 . S
O344 C341 1.252 1_556 S
O345 In338 2.325 1_554 S
O345 C341 1.260 . S
O346 In338 2.266 . S
O346 C343 1.252 . S
O347 In338 2.326 . S
O347 C343 1.260 . S
C348 O339 1.240 . S
C348 O340 1.252 . S
O349 In338 2.294 . S
O349 C342 1.240 . S
O350 In338 2.326 . S
O350 C342 1.252 . S
In351 O352 2.294 . S
In351 O353 2.326 . S
In351 O357 2.266 . S
In351 O358 2.326 . S
In351 O359 2.266 . S
In351 O360 2.326 . S
In351 O362 2.294 . S
In351 O363 2.326 . S
O352 In351 2.294 . S
O352 C361 1.240 . S
O353 In351 2.326 . S
O353 C361 1.252 . S
C354 O357 1.252 . S
C354 O358 1.260 . S
C355 O362 1.240 . S
C355 O363 1.252 . S
C356 O359 1.252 . S
C356 O360 1.260 . S
O357 In351 2.266 . S
O357 C354 1.252 . S
O358 In351 2.326 . S
O358 C354 1.260 . S
O359 In351 2.266 . S
O359 C356 1.252 . S
O360 In351 2.326 . S
O360 C356 1.260 . S
C361 O352 1.240 . S
C361 O353 1.252 . S
O362 In351 2.294 . S
O362 C355 1.240 . S
O363 In351 2.326 . S
O363 C355 1.252 . S
In364 O365 2.294 . S
In364 O366 2.326 . S
In364 O370 2.266 . S
In364 O371 2.326 . S
In364 O372 2.266 . S
In364 O373 2.326 1_554 S
In364 O375 2.294 . S
In364 O376 2.326 . S
O365 In364 2.294 . S
O365 C374 1.240 . S
O366 In364 2.326 . S
O366 C374 1.252 . S
C367 O370 1.252 . S
C367 O371 1.260 . S
C368 O375 1.240 . S
C368 O376 1.252 . S
C369 O372 1.252 1_556 S
C369 O373 1.260 . S
O370 In364 2.266 . S
O370 C367 1.252 . S
O371 In364 2.326 . S
O371 C367 1.260 . S
O372 In364 2.266 . S
O372 C369 1.252 1_554 S
O373 In364 2.326 1_556 S
O373 C369 1.260 . S
C374 O365 1.240 . S
C374 O366 1.252 . S
O375 In364 2.294 . S
O375 C368 1.240 . S
O376 In364 2.326 . S
O376 C368 1.252 . S
In377 O378 2.294 . S
In377 O379 2.326 . S
In377 O383 2.266 . S
In377 O384 2.326 . S
In377 O385 2.266 . S
In377 O386 2.326 . S
In377 O388 2.294 . S
In377 O389 2.326 . S
O378 In377 2.294 . S
O378 C387 1.240 . S
O379 In377 2.326 . S
O379 C387 1.252 . S
C380 O383 1.252 . S
C380 O384 1.260 . S
C381 O388 1.240 . S
C381 O389 1.252 . S
C382 O385 1.252 . S
C382 O386 1.260 . S
O383 In377 2.266 . S
O383 C380 1.252 . S
O384 In377 2.326 . S
O384 C380 1.260 . S
O385 In377 2.266 . S
O385 C382 1.252 . S
O386 In377 2.326 . S
O386 C382 1.260 . S
C387 O378 1.240 . S
C387 O379 1.252 . S
O388 In377 2.294 . S
O388 C381 1.240 . S
O389 In377 2.326 . S
O389 C381 1.252 . S
In390 O391 2.294 . S
In390 O392 2.326 . S
In390 O396 2.266 . S
In390 O397 2.326 . S
In390 O398 2.266 . S
In390 O399 2.326 . S
In390 O401 2.294 . S
In390 O402 2.326 . S
O391 In390 2.294 . S
O391 C400 1.240 . S
O392 In390 2.326 . S
O392 C400 1.252 . S
C393 O396 1.252 . S
C393 O397 1.260 . S
C394 O401 1.240 . S
C394 O402 1.252 . S
C395 O398 1.252 . S
C395 O399 1.260 . S
O396 In390 2.266 . S
O396 C393 1.252 . S
O397 In390 2.326 . S
O397 C393 1.260 . S
O398 In390 2.266 . S
O398 C395 1.252 . S
O399 In390 2.326 . S
O399 C395 1.260 . S
C400 O391 1.240 . S
C400 O392 1.252 . S
O401 In390 2.294 . S
O401 C394 1.240 . S
O402 In390 2.326 . S
O402 C394 1.252 . S
In403 O404 2.294 . S
In403 O405 2.326 . S
In403 O409 2.266 . S
In403 O410 2.326 . S
In403 O411 2.266 . S
In403 O412 2.326 . S
In403 O414 2.294 . S
In403 O415 2.326 . S
O404 In403 2.294 . S
O404 C413 1.240 . S
O405 In403 2.326 . S
O405 C413 1.252 . S
C406 O409 1.252 . S
C406 O410 1.260 . S
C407 O414 1.240 . S
C407 O415 1.252 . S
C408 O411 1.252 . S
C408 O412 1.260 . S
O409 In403 2.266 . S
O409 C406 1.252 . S
O410 In403 2.326 . S
O410 C406 1.260 . S
O411 In403 2.266 . S
O411 C408 1.252 . S
O412 In403 2.326 . S
O412 C408 1.260 . S
C413 O404 1.240 . S
C413 O405 1.252 . S
O414 In403 2.294 . S
O414 C407 1.240 . S
O415 In403 2.326 . S
O415 C407 1.252 . S
H416 C434 0.951 . S
H417 C436 0.951 . S
H418 C438 0.950 . S
H419 C439 0.950 1_554 S
H420 C441 0.950 . S
H421 C444 0.950 1_554 S
H422 C445 0.950 . S
H423 C447 0.950 . S
H424 C448 0.950 . S
H425 C449 0.951 . S
H426 C451 0.951 . S
H427 C453 0.950 . S
H428 C454 0.950 1_556 S
H429 C456 0.950 . S
H430 C459 0.950 1_556 S
H431 C460 0.950 . S
H432 C462 0.950 . S
H433 C463 0.950 . S
C434 H416 0.951 . S
C434 C435 1.366 . S
C434 C436 1.388 . S
C435 C434 1.366 . S
C435 C439 1.385 . S
C436 H417 0.951 . S
C436 C434 1.388 . S
C436 C437 1.366 . S
C437 C436 1.366 . S
C437 C438 1.414 1_556 S
C437 C440 1.499 . S
C438 H418 0.950 . S
C438 C437 1.414 1_554 S
C438 C439 1.374 1_554 S
C439 H419 0.950 1_556 S
C439 C435 1.385 . S
C439 C438 1.374 1_556 S
C440 C437 1.499 . S
C440 C441 1.373 1_556 S
C440 C442 1.389 . S
C441 H420 0.950 . S
C441 C440 1.373 1_554 S
C441 C457 1.377 . S
C442 C440 1.389 . S
C442 C443 1.524 . S
C442 C456 1.377 . S
C443 C442 1.524 . S
C443 C444 1.397 . S
C443 C448 1.363 . S
C444 H421 0.950 1_556 S
C444 C443 1.397 . S
C444 C445 1.334 . S
C445 H422 0.950 . S
C445 C444 1.334 . S
C445 C446 1.287 . S
C446 C445 1.287 . S
C446 C447 1.524 . S
C446 H465 0.913 . S
C447 H423 0.950 . S
C447 C446 1.524 . S
C447 C448 1.415 . S
C448 H424 0.950 . S
C448 C443 1.363 . S
C448 C447 1.415 . S
C449 H425 0.951 . S
C449 C450 1.366 . S
C449 C451 1.388 . S
C450 C449 1.366 . S
C450 C454 1.385 . S
C451 H426 0.951 . S
C451 C449 1.388 . S
C451 C452 1.366 . S
C452 C451 1.366 . S
C452 C453 1.414 1_554 S
C452 C455 1.499 . S
C453 H427 0.950 . S
C453 C452 1.414 1_556 S
C453 C454 1.374 1_556 S
C454 H428 0.950 1_554 S
C454 C450 1.385 . S
C454 C453 1.374 1_554 S
C455 C452 1.499 . S
C455 C456 1.373 1_554 S
C455 C457 1.389 . S
C456 H429 0.950 . S
C456 C442 1.377 . S
C456 C455 1.373 1_556 S
C457 C441 1.377 . S
C457 C455 1.389 . S
C457 C458 1.524 . S
C458 C457 1.524 . S
C458 C459 1.397 . S
C458 C463 1.363 . S
C459 H430 0.950 1_554 S
C459 C458 1.397 . S
C459 C460 1.334 . S
C460 H431 0.950 . S
C460 C459 1.334 . S
C460 C461 1.287 . S
C461 C460 1.287 . S
C461 C462 1.524 . S
C461 H464 0.999 . S
C462 H432 0.950 . S
C462 C461 1.524 . S
C462 C463 1.415 . S
C463 H433 0.950 . S
C463 C458 1.363 . S
C463 C462 1.415 . S
H464 C461 0.999 . S
H465 C446 0.913 . S
H466 C484 0.951 . S
H467 C486 0.951 . S
H468 C488 0.950 . S
H469 C489 0.950 . S
H470 C491 0.950 . S
H471 C494 0.950 . S
H472 C495 0.950 . S
H473 C497 0.950 . S
H474 C498 0.950 . S
H475 C499 0.951 . S
H476 C501 0.951 . S
H477 C503 0.950 . S
H478 C504 0.950 . S
H479 C506 0.950 . S
H480 C509 0.950 . S
H481 C510 0.950 . S
H482 C512 0.950 1_455 S
H483 C513 0.950 . S
C484 H466 0.951 . S
C484 C485 1.366 . S
C484 C486 1.388 . S
C485 C484 1.366 . S
C485 C489 1.385 . S
C486 H467 0.951 . S
C486 C484 1.388 . S
C486 C487 1.366 . S
C487 C486 1.366 . S
C487 C488 1.414 . S
C487 C490 1.499 . S
C488 H468 0.950 . S
C488 C487 1.414 . S
C488 C489 1.374 . S
C489 H469 0.950 . S
C489 C485 1.385 . S
C489 C488 1.374 . S
C490 C487 1.499 . S
C490 C491 1.373 . S
C490 C492 1.389 . S
C491 H470 0.950 . S
C491 C490 1.373 . S
C491 C507 1.377 1_565 S
C492 C490 1.389 . S
C492 C493 1.524 . S
C492 C506 1.377 1_565 S
C493 C492 1.524 . S
C493 C494 1.397 . S
C493 C498 1.363 . S
C494 H471 0.950 . S
C494 C493 1.397 . S
C494 C495 1.334 . S
C495 H472 0.950 . S
C495 C494 1.334 . S
C495 C496 1.287 . S
C496 C495 1.287 . S
C496 C497 1.524 . S
C496 H515 0.913 . S
C497 H473 0.950 . S
C497 C496 1.524 . S
C497 C498 1.415 . S
C498 H474 0.950 . S
C498 C493 1.363 . S
C498 C497 1.415 . S
C499 H475 0.951 . S
C499 C500 1.366 . S
C499 C501 1.388 . S
C500 C499 1.366 . S
C500 C504 1.385 . S
C501 H476 0.951 . S
C501 C499 1.388 . S
C501 C502 1.366 . S
C502 C501 1.366 . S
C502 C503 1.414 . S
C502 C505 1.499 . S
C503 H477 0.950 . S
C503 C502 1.414 . S
C503 C504 1.374 . S
C504 H478 0.950 . S
C504 C500 1.385 . S
C504 C503 1.374 . S
C505 C502 1.499 . S
C505 C506 1.373 . S
C505 C507 1.389 . S
C506 H479 0.950 . S
C506 C492 1.377 1_545 S
C506 C505 1.373 . S
C507 C491 1.377 1_545 S
C507 C505 1.389 . S
C507 C508 1.524 . S
C508 C507 1.524 . S
C508 C509 1.397 . S
C508 C513 1.363 . S
C509 H480 0.950 . S
C509 C508 1.397 . S
C509 C510 1.334 . S
C510 H481 0.950 . S
C510 C509 1.334 . S
C510 C511 1.287 . S
C511 C510 1.287 . S
C511 C512 1.524 . S
C511 H514 0.999 . S
C512 H482 0.950 1_655 S
C512 C511 1.524 . S
C512 C513 1.415 . S
C513 H483 0.950 . S
C513 C508 1.363 . S
C513 C512 1.415 . S
H514 C511 0.999 . S
H515 C496 0.913 . S
H516 C534 0.951 . S
H517 C536 0.951 . S
H518 C538 0.950 . S
H519 C539 0.950 . S
H520 C541 0.950 . S
H521 C544 0.950 . S
H522 C545 0.950 . S
H523 C547 0.950 . S
H524 C548 0.950 . S
H525 C549 0.951 . S
H526 C551 0.951 . S
H527 C553 0.950 . S
H528 C554 0.950 . S
H529 C556 0.950 . S
H530 C559 0.950 . S
H531 C560 0.950 . S
H532 C562 0.950 . S
H533 C563 0.950 . S
C534 H516 0.951 . S
C534 C535 1.366 . S
C534 C536 1.388 . S
C535 C534 1.366 . S
C535 C539 1.385 . S
C536 H517 0.951 . S
C536 C534 1.388 . S
C536 C537 1.366 . S
C537 C536 1.366 . S
C537 C538 1.414 . S
C537 C540 1.499 . S
C538 H518 0.950 . S
C538 C537 1.414 . S
C538 C539 1.374 . S
C539 H519 0.950 . S
C539 C535 1.385 . S
C539 C538 1.374 . S
C540 C537 1.499 . S
C540 C541 1.373 . S
C540 C542 1.389 . S
C541 H520 0.950 . S
C541 C540 1.373 . S
C541 C557 1.377 . S
C542 C540 1.389 . S
C542 C543 1.524 . S
C542 C556 1.377 . S
C543 C542 1.524 . S
C543 C544 1.397 . S
C543 C548 1.363 . S
C544 H521 0.950 . S
C544 C543 1.397 . S
C544 C545 1.334 . S
C545 H522 0.950 . S
C545 C544 1.334 . S
C545 C546 1.287 . S
C546 C545 1.287 . S
C546 C547 1.524 . S
C546 H565 0.913 . S
C547 H523 0.950 . S
C547 C546 1.524 . S
C547 C548 1.415 . S
C548 H524 0.950 . S
C548 C543 1.363 . S
C548 C547 1.415 . S
C549 H525 0.951 . S
C549 C550 1.366 . S
C549 C551 1.388 . S
C550 C549 1.366 . S
C550 C554 1.385 . S
C551 H526 0.951 . S
C551 C549 1.388 . S
C551 C552 1.366 . S
C552 C551 1.366 . S
C552 C553 1.414 . S
C552 C555 1.499 . S
C553 H527 0.950 . S
C553 C552 1.414 . S
C553 C554 1.374 . S
C554 H528 0.950 . S
C554 C550 1.385 . S
C554 C553 1.374 . S
C555 C552 1.499 . S
C555 C556 1.373 . S
C555 C557 1.389 . S
C556 H529 0.950 . S
C556 C542 1.377 . S
C556 C555 1.373 . S
C557 C541 1.377 . S
C557 C555 1.389 . S
C557 C558 1.524 . S
C558 C557 1.524 . S
C558 C559 1.397 . S
C558 C563 1.363 . S
C559 H530 0.950 . S
C559 C558 1.397 . S
C559 C560 1.334 . S
C560 H531 0.950 . S
C560 C559 1.334 . S
C560 C561 1.287 . S
C561 C560 1.287 . S
C561 C562 1.524 . S
C561 H564 0.999 . S
C562 H532 0.950 . S
C562 C561 1.524 . S
C562 C563 1.415 . S
C563 H533 0.950 . S
C563 C558 1.363 . S
C563 C562 1.415 . S
H564 C561 0.999 . S
H565 C546 0.913 . S
H566 C584 0.951 . S
H567 C586 0.951 . S
H568 C588 0.950 . S
H569 C589 0.950 . S
H570 C591 0.950 . S
H571 C594 0.950 . S
H572 C595 0.950 . S
H573 C597 0.950 . S
H574 C598 0.950 . S
H575 C599 0.951 . S
H576 C601 0.951 . S
H577 C603 0.950 . S
H578 C604 0.950 . S
H579 C606 0.950 . S
H580 C609 0.950 . S
H581 C610 0.950 . S
H582 C612 0.950 . S
H583 C613 0.950 . S
C584 H566 0.951 . S
C584 C585 1.366 . S
C584 C586 1.388 . S
C585 C584 1.366 . S
C585 C589 1.385 . S
C586 H567 0.951 . S
C586 C584 1.388 . S
C586 C587 1.366 . S
C587 C586 1.366 . S
C587 C588 1.414 . S
C587 C590 1.499 . S
C588 H568 0.950 . S
C588 C587 1.414 . S
C588 C589 1.374 . S
C589 H569 0.950 . S
C589 C585 1.385 . S
C589 C588 1.374 . S
C590 C587 1.499 . S
C590 C591 1.373 . S
C590 C592 1.389 . S
C591 H570 0.950 . S
C591 C590 1.373 . S
C591 C607 1.377 1_545 S
C592 C590 1.389 . S
C592 C593 1.524 . S
C592 C606 1.377 1_545 S
C593 C592 1.524 . S
C593 C594 1.397 . S
C593 C598 1.363 . S
C594 H571 0.950 . S
C594 C593 1.397 . S
C594 C595 1.334 . S
C595 H572 0.950 . S
C595 C594 1.334 . S
C595 C596 1.287 . S
C596 C595 1.287 . S
C596 C597 1.524 . S
C596 H615 0.913 . S
C597 H573 0.950 . S
C597 C596 1.524 . S
C597 C598 1.415 . S
C598 H574 0.950 . S
C598 C593 1.363 . S
C598 C597 1.415 . S
C599 H575 0.951 . S
C599 C600 1.366 . S
C599 C601 1.388 . S
C600 C599 1.366 . S
C600 C604 1.385 . S
C601 H576 0.951 . S
C601 C599 1.388 . S
C601 C602 1.366 . S
C602 C601 1.366 . S
C602 C603 1.414 . S
C602 C605 1.499 . S
C603 H577 0.950 . S
C603 C602 1.414 . S
C603 C604 1.374 . S
C604 H578 0.950 . S
C604 C600 1.385 . S
C604 C603 1.374 . S
C605 C602 1.499 . S
C605 C606 1.373 . S
C605 C607 1.389 . S
C606 H579 0.950 . S
C606 C592 1.377 1_565 S
C606 C605 1.373 . S
C607 C591 1.377 1_565 S
C607 C605 1.389 . S
C607 C608 1.524 . S
C608 C607 1.524 . S
C608 C609 1.397 . S
C608 C613 1.363 . S
C609 H580 0.950 . S
C609 C608 1.397 . S
C609 C610 1.334 . S
C610 H581 0.950 . S
C610 C609 1.334 . S
C610 C611 1.287 . S
C611 C610 1.287 . S
C611 C612 1.524 . S
C611 H614 0.999 . S
C612 H582 0.950 . S
C612 C611 1.524 . S
C612 C613 1.415 . S
C613 H583 0.950 . S
C613 C608 1.363 . S
C613 C612 1.415 . S
H614 C611 0.999 . S
H615 C596 0.913 . S
H616 C634 0.951 . S
H617 C636 0.951 . S
H618 C638 0.950 . S
H619 C639 0.950 . S
H620 C641 0.950 . S
H621 C644 0.950 . S
H622 C645 0.950 . S
H623 C647 0.950 . S
H624 C648 0.950 . S
H625 C649 0.951 . S
H626 C651 0.951 . S
H627 C653 0.950 . S
H628 C654 0.950 . S
H629 C656 0.950 . S
H630 C659 0.950 . S
H631 C660 0.950 . S
H632 C662 0.950 . S
H633 C663 0.950 . S
C634 H616 0.951 . S
C634 C635 1.366 . S
C634 C636 1.388 . S
C635 C634 1.366 . S
C635 C639 1.385 . S
C636 H617 0.951 . S
C636 C634 1.388 . S
C636 C637 1.366 . S
C637 C636 1.366 . S
C637 C638 1.414 . S
C637 C640 1.499 . S
C638 H618 0.950 . S
C638 C637 1.414 . S
C638 C639 1.374 . S
C639 H619 0.950 . S
C639 C635 1.385 . S
C639 C638 1.374 . S
C640 C637 1.499 . S
C640 C641 1.373 1_554 S
C640 C642 1.389 . S
C641 H620 0.950 . S
C641 C640 1.373 1_556 S
C641 C657 1.377 . S
C642 C640 1.389 . S
C642 C643 1.524 . S
C642 C656 1.377 . S
C643 C642 1.524 . S
C643 C644 1.397 . S
C643 C648 1.363 . S
C644 H621 0.950 . S
C644 C643 1.397 . S
C644 C645 1.334 . S
C645 H622 0.950 . S
C645 C644 1.334 . S
C645 C646 1.287 . S
C646 C645 1.287 . S
C646 C647 1.524 . S
C646 H665 0.913 . S
C647 H623 0.950 . S
C647 C646 1.524 . S
C647 C648 1.415 . S
C648 H624 0.950 . S
C648 C643 1.363 . S
C648 C647 1.415 . S
C649 H625 0.951 . S
C649 C650 1.366 . S
C649 C651 1.388 . S
C650 C649 1.366 . S
C650 C654 1.385 . S
C651 H626 0.951 . S
C651 C649 1.388 . S
C651 C652 1.366 . S
C652 C651 1.366 . S
C652 C653 1.414 . S
C652 C655 1.499 . S
C653 H627 0.950 . S
C653 C652 1.414 . S
C653 C654 1.374 . S
C654 H628 0.950 . S
C654 C650 1.385 . S
C654 C653 1.374 . S
C655 C652 1.499 . S
C655 C656 1.373 1_556 S
C655 C657 1.389 . S
C656 H629 0.950 . S
C656 C642 1.377 . S
C656 C655 1.373 1_554 S
C657 C641 1.377 . S
C657 C655 1.389 . S
C657 C658 1.524 . S
C658 C657 1.524 . S
C658 C659 1.397 . S
C658 C663 1.363 . S
C659 H630 0.950 . S
C659 C658 1.397 . S
C659 C660 1.334 . S
C660 H631 0.950 . S
C660 C659 1.334 . S
C660 C661 1.287 . S
C661 C660 1.287 . S
C661 C662 1.524 . S
C661 H664 0.999 . S
C662 H632 0.950 . S
C662 C661 1.524 . S
C662 C663 1.415 . S
C663 H633 0.950 . S
C663 C658 1.363 . S
C663 C662 1.415 . S
H664 C661 0.999 . S
H665 C646 0.913 . S
H666 C684 0.951 . S
H667 C686 0.951 . S
H668 C688 0.950 . S
H669 C689 0.950 . S
H670 C691 0.950 . S
H671 C694 0.950 . S
H672 C695 0.950 . S
H673 C697 0.950 . S
H674 C698 0.972 1_545 S
H675 C699 0.951 . S
H676 C701 0.951 . S
H677 C703 0.950 . S
H678 C704 0.950 . S
H679 C706 0.950 . S
H680 C709 0.950 . S
H681 C710 0.950 . S
H682 C712 0.950 . S
H683 C713 0.950 1_565 S
C684 H666 0.951 . S
C684 C685 1.366 . S
C684 C686 1.388 . S
C685 C684 1.366 . S
C685 C689 1.385 . S
C686 H667 0.951 . S
C686 C684 1.388 . S
C686 C687 1.366 . S
C687 C686 1.366 . S
C687 C688 1.414 . S
C687 C690 1.499 . S
C688 H668 0.950 . S
C688 C687 1.414 . S
C688 C689 1.374 . S
C689 H669 0.950 . S
C689 C685 1.385 . S
C689 C688 1.374 . S
C690 C687 1.499 . S
C690 C691 1.373 . S
C690 C692 1.389 . S
C691 H670 0.950 . S
C691 C690 1.373 . S
C691 C707 1.377 1_565 S
C692 C690 1.389 . S
C692 C693 1.524 . S
C692 C706 1.377 1_565 S
C693 C692 1.524 . S
C693 C694 1.397 . S
C693 C698 1.363 1_455 S
C694 H671 0.950 . S
C694 C693 1.397 . S
C694 C695 1.334 1_455 S
C695 H672 0.950 . S
C695 C694 1.334 1_655 S
C695 C696 1.287 . S
C696 C695 1.287 . S
C696 C697 1.524 . S
C696 H715 0.913 . S
C697 H673 0.950 . S
C697 C696 1.524 . S
C697 C698 1.415 . S
C698 H674 0.972 1_565 S
C698 C693 1.363 1_655 S
C698 C697 1.415 . S
C699 H675 0.951 . S
C699 C700 1.366 . S
C699 C701 1.388 . S
C700 C699 1.366 . S
C700 C704 1.385 . S
C701 H676 0.951 . S
C701 C699 1.388 . S
C701 C702 1.366 . S
C702 C701 1.366 . S
C702 C703 1.414 . S
C702 C705 1.499 . S
C703 H677 0.950 . S
C703 C702 1.414 . S
C703 C704 1.374 . S
C704 H678 0.950 . S
C704 C700 1.385 . S
C704 C703 1.374 . S
C705 C702 1.499 . S
C705 C706 1.373 . S
C705 C707 1.389 . S
C706 H679 0.950 . S
C706 C692 1.377 1_545 S
C706 C705 1.373 . S
C707 C691 1.377 1_545 S
C707 C705 1.389 . S
C707 C708 1.524 . S
C708 C707 1.524 . S
C708 C709 1.397 . S
C708 C713 1.363 . S
C709 H680 0.950 . S
C709 C708 1.397 . S
C709 C710 1.334 . S
C710 H681 0.950 . S
C710 C709 1.334 . S
C710 C711 1.287 . S
C711 C710 1.287 . S
C711 C712 1.524 . S
C711 H714 0.999 . S
C712 H682 0.950 . S
C712 C711 1.524 . S
C712 C713 1.415 . S
C713 H683 0.950 1_545 S
C713 C708 1.363 . S
C713 C712 1.415 . S
H714 C711 0.999 . S
H715 C696 0.913 . S
H716 C734 0.951 . S
H717 C736 0.951 . S
H718 C738 0.950 . S
H719 C739 0.950 . S
H720 C741 0.950 . S
H721 C744 0.950 . S
H722 C745 0.950 . S
H723 C747 0.950 . S
H724 C748 0.950 . S
H725 C749 0.951 . S
H726 C751 0.951 . S
H727 C753 0.950 . S
H728 C754 0.950 . S
H729 C756 0.950 . S
H730 C759 0.950 . S
H731 C760 0.950 . S
H732 C762 0.950 . S
H733 C763 0.950 . S
C734 H716 0.951 . S
C734 C735 1.366 . S
C734 C736 1.388 . S
C735 C734 1.366 . S
C735 C739 1.385 . S
C736 H717 0.951 . S
C736 C734 1.388 . S
C736 C737 1.366 . S
C737 C736 1.366 . S
C737 C738 1.414 . S
C737 C740 1.499 . S
C738 H718 0.950 . S
C738 C737 1.414 . S
C738 C739 1.374 . S
C739 H719 0.950 . S
C739 C735 1.385 . S
C739 C738 1.374 . S
C740 C737 1.499 . S
C740 C741 1.373 . S
C740 C742 1.389 . S
C741 H720 0.950 . S
C741 C740 1.373 . S
C741 C757 1.377 . S
C742 C740 1.389 . S
C742 C743 1.524 . S
C742 C756 1.377 . S
C743 C742 1.524 . S
C743 C744 1.397 . S
C743 C748 1.363 . S
C744 H721 0.950 . S
C744 C743 1.397 . S
C744 C745 1.334 . S
C745 H722 0.950 . S
C745 C744 1.334 . S
C745 C746 1.287 . S
C746 C745 1.287 . S
C746 C747 1.524 . S
C746 H765 0.913 . S
C747 H723 0.950 . S
C747 C746 1.524 . S
C747 C748 1.415 . S
C748 H724 0.950 . S
C748 C743 1.363 . S
C748 C747 1.415 . S
C749 H725 0.951 . S
C749 C750 1.366 . S
C749 C751 1.388 . S
C750 C749 1.366 . S
C750 C754 1.385 . S
C751 H726 0.951 . S
C751 C749 1.388 . S
C751 C752 1.366 . S
C752 C751 1.366 . S
C752 C753 1.414 . S
C752 C755 1.499 . S
C753 H727 0.950 . S
C753 C752 1.414 . S
C753 C754 1.374 . S
C754 H728 0.950 . S
C754 C750 1.385 . S
C754 C753 1.374 . S
C755 C752 1.499 . S
C755 C756 1.373 . S
C755 C757 1.389 . S
C756 H729 0.950 . S
C756 C742 1.377 . S
C756 C755 1.373 . S
C757 C741 1.377 . S
C757 C755 1.389 . S
C757 C758 1.524 . S
C758 C757 1.524 . S
C758 C759 1.397 . S
C758 C763 1.363 . S
C759 H730 0.950 . S
C759 C758 1.397 . S
C759 C760 1.334 . S
C760 H731 0.950 . S
C760 C759 1.334 . S
C760 C761 1.287 . S
C761 C760 1.287 . S
C761 C762 1.524 . S
C761 H764 0.999 . S
C762 H732 0.950 . S
C762 C761 1.524 . S
C762 C763 1.415 . S
C763 H733 0.950 . S
C763 C758 1.363 . S
C763 C762 1.415 . S
H764 C761 0.999 . S
H765 C746 0.913 . S
H766 C784 0.951 . S
H767 C786 0.951 . S
H768 C788 0.950 . S
H769 C789 0.950 . S
H770 C791 0.950 . S
H771 C794 0.950 . S
H772 C795 0.950 . S
H773 C797 0.950 . S
H774 C798 0.950 . S
H775 C799 0.951 . S
H776 C801 0.951 . S
H777 C803 0.950 . S
H778 C804 0.950 . S
H779 C806 0.950 . S
H780 C809 0.950 . S
H781 C810 0.950 . S
H782 C812 0.950 . S
H783 C813 0.950 . S
C784 H766 0.951 . S
C784 C785 1.366 . S
C784 C786 1.388 . S
C785 C784 1.366 . S
C785 C789 1.385 . S
C786 H767 0.951 . S
C786 C784 1.388 . S
C786 C787 1.366 . S
C787 C786 1.366 . S
C787 C788 1.414 . S
C787 C790 1.499 . S
C788 H768 0.950 . S
C788 C787 1.414 . S
C788 C789 1.374 . S
C789 H769 0.950 . S
C789 C785 1.385 . S
C789 C788 1.374 . S
C790 C787 1.499 . S
C790 C791 1.373 . S
C790 C792 1.389 . S
C791 H770 0.950 . S
C791 C790 1.373 . S
C791 C807 1.377 1_565 S
C792 C790 1.389 . S
C792 C793 1.524 . S
C792 C806 1.377 1_565 S
C793 C792 1.524 . S
C793 C794 1.397 . S
C793 C798 1.363 . S
C794 H771 0.950 . S
C794 C793 1.397 . S
C794 C795 1.334 . S
C795 H772 0.950 . S
C795 C794 1.334 . S
C795 C796 1.287 . S
C796 C795 1.287 . S
C796 C797 1.524 . S
C796 H815 0.913 . S
C797 H773 0.950 . S
C797 C796 1.524 . S
C797 C798 1.415 . S
C798 H774 0.950 . S
C798 C793 1.363 . S
C798 C797 1.415 . S
C799 H775 0.951 . S
C799 C800 1.366 . S
C799 C801 1.388 . S
C800 C799 1.366 . S
C800 C804 1.385 . S
C801 H776 0.951 . S
C801 C799 1.388 . S
C801 C802 1.366 . S
C802 C801 1.366 . S
C802 C803 1.414 . S
C802 C805 1.499 . S
C803 H777 0.950 . S
C803 C802 1.414 . S
C803 C804 1.374 . S
C804 H778 0.950 . S
C804 C800 1.385 . S
C804 C803 1.374 . S
C805 C802 1.499 . S
C805 C806 1.373 . S
C805 C807 1.389 . S
C806 H779 0.950 . S
C806 C792 1.377 1_545 S
C806 C805 1.373 . S
C807 C791 1.377 1_545 S
C807 C805 1.389 . S
C807 C808 1.524 . S
C808 C807 1.524 . S
C808 C809 1.397 . S
C808 C813 1.363 . S
C809 H780 0.950 . S
C809 C808 1.397 . S
C809 C810 1.334 . S
C810 H781 0.950 . S
C810 C809 1.334 . S
C810 C811 1.287 . S
C811 C810 1.287 . S
C811 C812 1.524 . S
C811 H814 0.999 . S
C812 H782 0.950 . S
C812 C811 1.524 . S
C812 C813 1.415 . S
C813 H783 0.950 . S
C813 C808 1.363 . S
C813 C812 1.415 . S
H814 C811 0.999 . S
H815 C796 0.913 . S
H816 C834 0.951 . S
H817 C836 0.951 . S
H818 C838 0.950 . S
H819 C839 0.950 . S
H820 C841 0.950 . S
H821 C844 0.950 . S
H822 C845 0.950 . S
H823 C847 0.950 . S
H824 C848 0.950 . S
H825 C849 0.951 . S
H826 C851 0.951 . S
H827 C853 0.950 . S
H828 C854 0.950 . S
H829 C856 0.950 . S
H830 C859 0.950 . S
H831 C860 0.950 . S
H832 C862 0.950 . S
H833 C863 0.950 . S
C834 H816 0.951 . S
C834 C835 1.366 . S
C834 C836 1.388 . S
C835 C834 1.366 . S
C835 C839 1.385 . S
C836 H817 0.951 . S
C836 C834 1.388 . S
C836 C837 1.366 . S
C837 C836 1.366 . S
C837 C838 1.414 . S
C837 C840 1.499 . S
C838 H818 0.950 . S
C838 C837 1.414 . S
C838 C839 1.374 . S
C839 H819 0.950 . S
C839 C835 1.385 . S
C839 C838 1.374 . S
C840 C837 1.499 . S
C840 C841 1.373 . S
C840 C842 1.389 . S
C841 H820 0.950 . S
C841 C840 1.373 . S
C841 C857 1.377 . S
C842 C840 1.389 . S
C842 C843 1.524 . S
C842 C856 1.377 . S
C843 C842 1.524 . S
C843 C844 1.397 . S
C843 C848 1.363 . S
C844 H821 0.950 . S
C844 C843 1.397 . S
C844 C845 1.334 . S
C845 H822 0.950 . S
C845 C844 1.334 . S
C845 C846 1.287 . S
C846 C845 1.287 . S
C846 C847 1.524 . S
C846 H865 0.913 . S
C847 H823 0.950 . S
C847 C846 1.524 . S
C847 C848 1.415 . S
C848 H824 0.950 . S
C848 C843 1.363 . S
C848 C847 1.415 . S
C849 H825 0.951 . S
C849 C850 1.366 . S
C849 C851 1.388 . S
C850 C849 1.366 . S
C850 C854 1.385 . S
C851 H826 0.951 . S
C851 C849 1.388 . S
C851 C852 1.366 . S
C852 C851 1.366 . S
C852 C853 1.414 . S
C852 C855 1.499 . S
C853 H827 0.950 . S
C853 C852 1.414 . S
C853 C854 1.374 . S
C854 H828 0.950 . S
C854 C850 1.385 . S
C854 C853 1.374 . S
C855 C852 1.499 . S
C855 C856 1.373 . S
C855 C857 1.389 . S
C856 H829 0.950 . S
C856 C842 1.377 . S
C856 C855 1.373 . S
C857 C841 1.377 . S
C857 C855 1.389 . S
C857 C858 1.524 . S
C858 C857 1.524 . S
C858 C859 1.397 . S
C858 C863 1.363 . S
C859 H830 0.950 . S
C859 C858 1.397 . S
C859 C860 1.334 . S
C860 H831 0.950 . S
C860 C859 1.334 . S
C860 C861 1.287 . S
C861 C860 1.287 . S
C861 C862 1.524 . S
C861 H864 0.999 . S
C862 H832 0.950 . S
C862 C861 1.524 . S
C862 C863 1.415 . S
C863 H833 0.950 . S
C863 C858 1.363 . S
C863 C862 1.415 . S
H864 C861 0.999 . S
H865 C846 0.913 . S
H866 C884 0.951 . S
H867 C886 0.951 . S
H868 C888 0.950 . S
H869 C889 0.950 . S
H870 C891 0.950 . S
H871 C894 0.950 . S
H872 C895 0.950 . S
H873 C897 0.950 . S
H874 C898 0.950 . S
H875 C899 0.951 . S
H876 C901 0.951 . S
H877 C903 0.950 . S
H878 C904 0.950 . S
H879 C906 0.950 . S
H880 C909 0.950 . S
H881 C910 0.950 . S
H882 C912 0.950 . S
H883 C913 0.950 . S
C884 H866 0.951 . S
C884 C885 1.366 . S
C884 C886 1.388 . S
C885 C884 1.366 . S
C885 C889 1.385 . S
C886 H867 0.951 . S
C886 C884 1.388 . S
C886 C887 1.366 . S
C887 C886 1.366 . S
C887 C888 1.414 . S
C887 C890 1.499 . S
C888 H868 0.950 . S
C888 C887 1.414 . S
C888 C889 1.374 . S
C889 H869 0.950 . S
C889 C885 1.385 . S
C889 C888 1.374 . S
C890 C887 1.499 . S
C890 C891 1.373 . S
C890 C892 1.389 . S
C891 H870 0.950 . S
C891 C890 1.373 . S
C891 C907 1.377 . S
C892 C890 1.389 . S
C892 C893 1.524 . S
C892 C906 1.377 . S
C893 C892 1.524 . S
C893 C894 1.397 . S
C893 C898 1.363 . S
C894 H871 0.950 . S
C894 C893 1.397 . S
C894 C895 1.334 . S
C895 H872 0.950 . S
C895 C894 1.334 . S
C895 C896 1.287 . S
C896 C895 1.287 . S
C896 C897 1.524 . S
C896 H915 0.913 . S
C897 H873 0.950 . S
C897 C896 1.524 . S
C897 C898 1.415 . S
C898 H874 0.950 . S
C898 C893 1.363 . S
C898 C897 1.415 . S
C899 H875 0.951 . S
C899 C900 1.366 . S
C899 C901 1.388 . S
C900 C899 1.366 . S
C900 C904 1.385 . S
C901 H876 0.951 . S
C901 C899 1.388 . S
C901 C902 1.366 . S
C902 C901 1.366 . S
C902 C903 1.414 . S
C902 C905 1.499 . S
C903 H877 0.950 . S
C903 C902 1.414 . S
C903 C904 1.374 . S
C904 H878 0.950 . S
C904 C900 1.385 . S
C904 C903 1.374 . S
C905 C902 1.499 . S
C905 C906 1.373 . S
C905 C907 1.389 . S
C906 H879 0.950 . S
C906 C892 1.377 . S
C906 C905 1.373 . S
C907 C891 1.377 . S
C907 C905 1.389 . S
C907 C908 1.524 . S
C908 C907 1.524 . S
C908 C909 1.397 . S
C908 C913 1.363 . S
C909 H880 0.950 . S
C909 C908 1.397 . S
C909 C910 1.334 . S
C910 H881 0.950 . S
C910 C909 1.334 . S
C910 C911 1.287 . S
C911 C910 1.287 . S
C911 C912 1.524 . S
C911 H914 0.999 . S
C912 H882 0.950 . S
C912 C911 1.524 . S
C912 C913 1.415 . S
C913 H883 0.950 . S
C913 C908 1.363 . S
C913 C912 1.415 . S
H914 C911 0.999 . S
H915 C896 0.913 . S
H916 C934 0.951 1_554 S
H917 C936 0.951 . S
H918 C938 0.950 . S
H919 C939 0.950 . S
H920 C941 0.950 . S
H921 C944 0.950 . S
H922 C945 0.950 . S
H923 C947 0.950 . S
H924 C948 0.950 . S
H925 C949 0.951 1_556 S
H926 C951 0.951 . S
H927 C953 0.950 . S
H928 C954 0.950 . S
H929 C956 0.950 . S
H930 C959 0.950 . S
H931 C960 0.950 . S
H932 C962 0.950 . S
H933 C963 0.950 . S
C934 H916 0.951 1_556 S
C934 C935 1.366 . S
C934 C936 1.388 1_556 S
C935 C934 1.366 . S
C935 C939 1.385 . S
C936 H917 0.951 . S
C936 C934 1.388 1_554 S
C936 C937 1.366 1_554 S
C937 C936 1.366 1_556 S
C937 C938 1.414 . S
C937 C940 1.499 . S
C938 H918 0.950 . S
C938 C937 1.414 . S
C938 C939 1.374 . S
C939 H919 0.950 . S
C939 C935 1.385 . S
C939 C938 1.374 . S
C940 C937 1.499 . S
C940 C941 1.373 . S
C940 C942 1.389 1_556 S
C941 H920 0.950 . S
C941 C940 1.373 . S
C941 C957 1.377 . S
C942 C940 1.389 1_554 S
C942 C943 1.524 . S
C942 C956 1.377 . S
C943 C942 1.524 . S
C943 C944 1.397 . S
C943 C948 1.363 . S
C944 H921 0.950 . S
C944 C943 1.397 . S
C944 C945 1.334 . S
C945 H922 0.950 . S
C945 C944 1.334 . S
C945 C946 1.287 . S
C946 C945 1.287 . S
C946 C947 1.524 . S
C946 H965 0.913 . S
C947 H923 0.950 . S
C947 C946 1.524 . S
C947 C948 1.415 . S
C948 H924 0.950 . S
C948 C943 1.363 . S
C948 C947 1.415 . S
C949 H925 0.951 1_554 S
C949 C950 1.366 . S
C949 C951 1.388 1_554 S
C950 C949 1.366 . S
C950 C954 1.385 . S
C951 H926 0.951 . S
C951 C949 1.388 1_556 S
C951 C952 1.366 1_556 S
C952 C951 1.366 1_554 S
C952 C953 1.414 . S
C952 C955 1.499 . S
C953 H927 0.950 . S
C953 C952 1.414 . S
C953 C954 1.374 . S
C954 H928 0.950 . S
C954 C950 1.385 . S
C954 C953 1.374 . S
C955 C952 1.499 . S
C955 C956 1.373 . S
C955 C957 1.389 1_554 S
C956 H929 0.950 . S
C956 C942 1.377 . S
C956 C955 1.373 . S
C957 C941 1.377 . S
C957 C955 1.389 1_556 S
C957 C958 1.524 . S
C958 C957 1.524 . S
C958 C959 1.397 . S
C958 C963 1.363 . S
C959 H930 0.950 . S
C959 C958 1.397 . S
C959 C960 1.334 . S
C960 H931 0.950 . S
C960 C959 1.334 . S
C960 C961 1.287 . S
C961 C960 1.287 . S
C961 C962 1.524 . S
C961 H964 0.999 . S
C962 H932 0.950 . S
C962 C961 1.524 . S
C962 C963 1.415 . S
C963 H933 0.950 . S
C963 C958 1.363 . S
C963 C962 1.415 . S
H964 C961 0.999 . S
H965 C946 0.913 . S
H966 C984 0.951 . S
H967 C986 0.951 . S
H968 C988 0.950 . S
H969 C989 0.950 . S
H970 C991 0.950 . S
H971 C994 0.950 . S
H972 C995 0.950 . S
H973 C997 0.950 . S
H974 C998 0.950 . S
H975 C999 0.951 . S
H976 C1001 0.951 . S
H977 C1003 0.950 . S
H978 C1004 0.950 . S
H979 C1006 0.950 . S
H980 C1009 0.950 . S
H981 C1010 0.919 1_655 S
H982 C1012 0.950 . S
H983 C1013 0.950 . S
C984 H966 0.951 . S
C984 C985 1.366 . S
C984 C986 1.388 . S
C985 C984 1.366 . S
C985 C989 1.385 . S
C986 H967 0.951 . S
C986 C984 1.388 . S
C986 C987 1.366 . S
C987 C986 1.366 . S
C987 C988 1.414 . S
C987 C990 1.499 . S
C988 H968 0.950 . S
C988 C987 1.414 . S
C988 C989 1.374 . S
C989 H969 0.950 . S
C989 C985 1.385 . S
C989 C988 1.374 . S
C990 C987 1.499 . S
C990 C991 1.373 . S
C990 C992 1.389 . S
C991 H970 0.950 . S
C991 C990 1.373 . S
C991 C1007 1.377 . S
C992 C990 1.389 . S
C992 C993 1.524 . S
C992 C1006 1.377 . S
C993 C992 1.524 . S
C993 C994 1.397 . S
C993 C998 1.363 . S
C994 H971 0.950 . S
C994 C993 1.397 . S
C994 C995 1.334 . S
C995 H972 0.950 . S
C995 C994 1.334 . S
C995 C996 1.287 . S
C996 C995 1.287 . S
C996 C997 1.524 . S
C996 H1015 0.913 . S
C997 H973 0.950 . S
C997 C996 1.524 . S
C997 C998 1.415 . S
C998 H974 0.950 . S
C998 C993 1.363 . S
C998 C997 1.415 . S
C999 H975 0.951 . S
C999 C1000 1.366 . S
C999 C1001 1.388 . S
C1000 C999 1.366 . S
C1000 C1004 1.385 . S
C1001 H976 0.951 . S
C1001 C999 1.388 . S
C1001 C1002 1.366 . S
C1002 C1001 1.366 . S
C1002 C1003 1.414 . S
C1002 C1005 1.499 . S
C1003 H977 0.950 . S
C1003 C1002 1.414 . S
C1003 C1004 1.374 . S
C1004 H978 0.950 . S
C1004 C1000 1.385 . S
C1004 C1003 1.374 . S
C1005 C1002 1.499 . S
C1005 C1006 1.373 . S
C1005 C1007 1.389 . S
C1006 H979 0.950 . S
C1006 C992 1.377 . S
C1006 C1005 1.373 . S
C1007 C991 1.377 . S
C1007 C1005 1.389 . S
C1007 C1008 1.524 . S
C1008 C1007 1.524 . S
C1008 C1009 1.397 . S
C1008 C1013 1.363 . S
C1009 H980 0.950 . S
C1009 C1008 1.397 . S
C1009 C1010 1.357 . S
C1010 H981 0.919 1_455 S
C1010 C1009 1.357 . S
C1010 C1011 1.298 . S
C1011 C1010 1.298 . S
C1011 C1012 1.524 . S
C1011 H1014 0.999 1_455 S
C1012 H982 0.950 . S
C1012 C1011 1.524 . S
C1012 C1013 1.415 . S
C1013 H983 0.950 . S
C1013 C1008 1.363 . S
C1013 C1012 1.415 . S
H1014 C1011 0.999 1_655 S
H1015 C996 0.913 . S
H1016 C1034 0.951 . S
H1017 C1036 0.951 . S
H1018 C1038 0.950 . S
H1019 C1039 0.950 . S
H1020 C1041 0.950 . S
H1021 C1044 0.950 . S
H1022 C1045 0.950 . S
H1023 C1047 0.950 . S
H1024 C1048 0.950 . S
H1025 C1049 0.951 . S
H1026 C1051 0.951 . S
H1027 C1053 0.950 . S
H1028 C1054 0.950 . S
H1029 C1056 0.950 . S
H1030 C1059 0.950 . S
H1031 C1060 0.950 . S
H1032 C1062 0.950 . S
H1033 C1063 0.950 . S
C1034 H1016 0.951 . S
C1034 C1035 1.366 . S
C1034 C1036 1.388 . S
C1035 C1034 1.366 . S
C1035 C1039 1.385 . S
C1036 H1017 0.951 . S
C1036 C1034 1.388 . S
C1036 C1037 1.366 . S
C1037 C1036 1.366 . S
C1037 C1038 1.414 . S
C1037 C1040 1.499 . S
C1038 H1018 0.950 . S
C1038 C1037 1.414 . S
C1038 C1039 1.374 . S
C1039 H1019 0.950 . S
C1039 C1035 1.385 . S
C1039 C1038 1.374 . S
C1040 C1037 1.499 . S
C1040 C1041 1.373 . S
C1040 C1042 1.389 . S
C1041 H1020 0.950 . S
C1041 C1040 1.373 . S
C1041 C1057 1.377 . S
C1042 C1040 1.389 . S
C1042 C1043 1.524 . S
C1042 C1056 1.377 . S
C1043 C1042 1.524 . S
C1043 C1044 1.397 . S
C1043 C1048 1.363 . S
C1044 H1021 0.950 . S
C1044 C1043 1.397 . S
C1044 C1045 1.334 . S
C1045 H1022 0.950 . S
C1045 C1044 1.334 . S
C1045 C1046 1.287 . S
C1046 C1045 1.287 . S
C1046 C1047 1.524 . S
C1046 H1065 0.913 . S
C1047 H1023 0.950 . S
C1047 C1046 1.524 . S
C1047 C1048 1.415 . S
C1048 H1024 0.950 . S
C1048 C1043 1.363 . S
C1048 C1047 1.415 . S
C1049 H1025 0.951 . S
C1049 C1050 1.366 . S
C1049 C1051 1.388 . S
C1050 C1049 1.366 . S
C1050 C1054 1.385 . S
C1051 H1026 0.951 . S
C1051 C1049 1.388 . S
C1051 C1052 1.366 . S
C1052 C1051 1.366 . S
C1052 C1053 1.414 . S
C1052 C1055 1.499 . S
C1053 H1027 0.950 . S
C1053 C1052 1.414 . S
C1053 C1054 1.374 . S
C1054 H1028 0.950 . S
C1054 C1050 1.385 . S
C1054 C1053 1.374 . S
C1055 C1052 1.499 . S
C1055 C1056 1.373 . S
C1055 C1057 1.389 . S
C1056 H1029 0.950 . S
C1056 C1042 1.377 . S
C1056 C1055 1.373 . S
C1057 C1041 1.377 . S
C1057 C1055 1.389 . S
C1057 C1058 1.524 . S
C1058 C1057 1.524 . S
C1058 C1059 1.397 . S
C1058 C1063 1.363 . S
C1059 H1030 0.950 . S
C1059 C1058 1.397 . S
C1059 C1060 1.334 . S
C1060 H1031 0.950 . S
C1060 C1059 1.334 . S
C1060 C1061 1.287 . S
C1061 C1060 1.287 . S
C1061 C1062 1.524 . S
C1061 H1064 0.999 . S
C1062 H1032 0.950 . S
C1062 C1061 1.524 . S
C1062 C1063 1.415 . S
C1063 H1033 0.950 . S
C1063 C1058 1.363 . S
C1063 C1062 1.415 . S
H1064 C1061 0.999 . S
H1065 C1046 0.913 . S
H1066 C1084 0.951 . S
H1067 C1086 0.951 . S
H1068 C1088 0.950 . S
H1069 C1089 0.950 . S
H1070 C1091 0.950 . S
H1071 C1094 0.950 . S
H1072 C1095 0.950 . S
H1073 C1097 0.950 . S
H1074 C1098 0.950 . S
H1075 C1099 0.951 . S
H1076 C1101 0.951 . S
H1077 C1103 0.950 . S
H1078 C1104 0.950 . S
H1079 C1106 0.950 . S
H1080 C1109 0.950 . S
H1081 C1110 0.950 . S
H1082 C1112 0.950 . S
H1083 C1113 0.950 . S
C1084 H1066 0.951 . S
C1084 C1085 1.366 . S
C1084 C1086 1.388 . S
C1085 C1084 1.366 . S
C1085 C1089 1.385 . S
C1086 H1067 0.951 . S
C1086 C1084 1.388 . S
C1086 C1087 1.366 . S
C1087 C1086 1.366 . S
C1087 C1088 1.414 . S
C1087 C1090 1.499 . S
C1088 H1068 0.950 . S
C1088 C1087 1.414 . S
C1088 C1089 1.374 . S
C1089 H1069 0.950 . S
C1089 C1085 1.385 . S
C1089 C1088 1.374 . S
C1090 C1087 1.499 . S
C1090 C1091 1.373 . S
C1090 C1092 1.389 . S
C1091 H1070 0.950 . S
C1091 C1090 1.373 . S
C1091 C1107 1.377 . S
C1092 C1090 1.389 . S
C1092 C1093 1.524 . S
C1092 C1106 1.377 . S
C1093 C1092 1.524 . S
C1093 C1094 1.397 . S
C1093 C1098 1.363 . S
C1094 H1071 0.950 . S
C1094 C1093 1.397 . S
C1094 C1095 1.334 . S
C1095 H1072 0.950 . S
C1095 C1094 1.334 . S
C1095 C1096 1.287 . S
C1096 C1095 1.287 . S
C1096 C1097 1.524 . S
C1096 H1115 0.913 . S
C1097 H1073 0.950 . S
C1097 C1096 1.524 . S
C1097 C1098 1.415 . S
C1098 H1074 0.950 . S
C1098 C1093 1.363 . S
C1098 C1097 1.415 . S
C1099 H1075 0.951 . S
C1099 C1100 1.366 . S
C1099 C1101 1.388 . S
C1100 C1099 1.366 . S
C1100 C1104 1.385 . S
C1101 H1076 0.951 . S
C1101 C1099 1.388 . S
C1101 C1102 1.366 . S
C1102 C1101 1.366 . S
C1102 C1103 1.414 . S
C1102 C1105 1.499 . S
C1103 H1077 0.950 . S
C1103 C1102 1.414 . S
C1103 C1104 1.374 . S
C1104 H1078 0.950 . S
C1104 C1100 1.385 . S
C1104 C1103 1.374 . S
C1105 C1102 1.499 . S
C1105 C1106 1.373 . S
C1105 C1107 1.389 . S
C1106 H1079 0.950 . S
C1106 C1092 1.377 . S
C1106 C1105 1.373 . S
C1107 C1091 1.377 . S
C1107 C1105 1.389 . S
C1107 C1108 1.524 . S
C1108 C1107 1.524 . S
C1108 C1109 1.397 . S
C1108 C1113 1.363 . S
C1109 H1080 0.950 . S
C1109 C1108 1.397 . S
C1109 C1110 1.334 . S
C1110 H1081 0.950 . S
C1110 C1109 1.334 . S
C1110 C1111 1.287 . S
C1111 C1110 1.287 . S
C1111 C1112 1.524 . S
C1111 H1114 0.999 . S
C1112 H1082 0.950 . S
C1112 C1111 1.524 . S
C1112 C1113 1.415 . S
C1113 H1083 0.950 . S
C1113 C1108 1.363 . S
C1113 C1112 1.415 . S
H1114 C1111 0.999 . S
H1115 C1096 0.913 . S
H1116 C1134 0.951 1_556 S
H1117 C1136 0.951 . S
H1118 C1138 0.950 . S
H1119 C1139 0.950 . S
H1120 C1141 0.950 . S
H1121 C1144 0.950 . S
H1122 C1145 0.950 . S
H1123 C1147 0.950 . S
H1124 C1148 0.950 . S
H1125 C1149 0.951 1_554 S
H1126 C1151 0.951 . S
H1127 C1153 0.950 . S
H1128 C1154 0.950 . S
H1129 C1156 0.950 . S
H1130 C1159 0.950 . S
H1131 C1160 0.950 . S
H1132 C1162 0.950 . S
H1133 C1163 0.950 . S
C1134 H1116 0.951 1_554 S
C1134 C1135 1.366 . S
C1134 C1136 1.388 1_554 S
C1135 C1134 1.366 . S
C1135 C1139 1.385 . S
C1136 H1117 0.951 . S
C1136 C1134 1.388 1_556 S
C1136 C1137 1.366 1_556 S
C1137 C1136 1.366 1_554 S
C1137 C1138 1.414 . S
C1137 C1140 1.499 . S
C1138 H1118 0.950 . S
C1138 C1137 1.414 . S
C1138 C1139 1.374 . S
C1139 H1119 0.950 . S
C1139 C1135 1.385 . S
C1139 C1138 1.374 . S
C1140 C1137 1.499 . S
C1140 C1141 1.373 . S
C1140 C1142 1.389 1_554 S
C1141 H1120 0.950 . S
C1141 C1140 1.373 . S
C1141 C1157 1.377 . S
C1142 C1140 1.389 1_556 S
C1142 C1143 1.524 . S
C1142 C1156 1.377 . S
C1143 C1142 1.524 . S
C1143 C1144 1.397 1_556 S
C1143 C1148 1.363 . S
C1144 H1121 0.950 . S
C1144 C1143 1.397 1_554 S
C1144 C1145 1.334 . S
C1145 H1122 0.950 . S
C1145 C1144 1.334 . S
C1145 C1146 1.287 1_554 S
C1146 C1145 1.287 1_556 S
C1146 C1147 1.524 . S
C1146 H1165 0.913 . S
C1147 H1123 0.950 . S
C1147 C1146 1.524 . S
C1147 C1148 1.415 . S
C1148 H1124 0.950 . S
C1148 C1143 1.363 . S
C1148 C1147 1.415 . S
C1149 H1125 0.951 1_556 S
C1149 C1150 1.366 . S
C1149 C1151 1.388 1_556 S
C1150 C1149 1.366 . S
C1150 C1154 1.385 . S
C1151 H1126 0.951 . S
C1151 C1149 1.388 1_554 S
C1151 C1152 1.366 1_554 S
C1152 C1151 1.366 1_556 S
C1152 C1153 1.414 . S
C1152 C1155 1.499 . S
C1153 H1127 0.950 . S
C1153 C1152 1.414 . S
C1153 C1154 1.374 . S
C1154 H1128 0.950 . S
C1154 C1150 1.385 . S
C1154 C1153 1.374 . S
C1155 C1152 1.499 . S
C1155 C1156 1.373 . S
C1155 C1157 1.389 1_556 S
C1156 H1129 0.950 . S
C1156 C1142 1.377 . S
C1156 C1155 1.373 . S
C1157 C1141 1.377 . S
C1157 C1155 1.389 1_554 S
C1157 C1158 1.524 . S
C1158 C1157 1.524 . S
C1158 C1159 1.397 1_554 S
C1158 C1163 1.363 . S
C1159 H1130 0.950 . S
C1159 C1158 1.397 1_556 S
C1159 C1160 1.334 . S
C1160 H1131 0.950 . S
C1160 C1159 1.334 . S
C1160 C1161 1.287 1_556 S
C1161 C1160 1.287 1_554 S
C1161 C1162 1.524 . S
C1161 H1164 0.999 . S
C1162 H1132 0.950 . S
C1162 C1161 1.524 . S
C1162 C1163 1.415 . S
C1163 H1133 0.950 . S
C1163 C1158 1.363 . S
C1163 C1162 1.415 . S
H1164 C1161 0.999 . S
H1165 C1146 0.913 . S
H1166 C1184 0.951 . S
H1167 C1186 0.951 . S
H1168 C1188 0.950 . S
H1169 C1189 0.950 . S
H1170 C1191 0.950 . S
H1171 C1194 0.950 . S
H1172 C1195 0.950 . S
H1173 C1197 0.950 1_455 S
H1174 C1198 0.950 . S
H1175 C1199 0.951 . S
H1176 C1201 0.951 . S
H1177 C1203 0.950 . S
H1178 C1204 0.950 . S
H1179 C1206 0.950 . S
H1180 C1209 0.950 . S
H1181 C1210 0.950 . S
H1182 C1212 0.950 . S
H1183 C1213 0.950 . S
C1184 H1166 0.951 . S
C1184 C1185 1.366 . S
C1184 C1186 1.388 . S
C1185 C1184 1.366 . S
C1185 C1189 1.385 . S
C1186 H1167 0.951 . S
C1186 C1184 1.388 . S
C1186 C1187 1.366 . S
C1187 C1186 1.366 . S
C1187 C1188 1.414 . S
C1187 C1190 1.499 . S
C1188 H1168 0.950 . S
C1188 C1187 1.414 . S
C1188 C1189 1.374 . S
C1189 H1169 0.950 . S
C1189 C1185 1.385 . S
C1189 C1188 1.374 . S
C1190 C1187 1.499 . S
C1190 C1191 1.373 . S
C1190 C1192 1.389 . S
C1191 H1170 0.950 . S
C1191 C1190 1.373 . S
C1191 C1207 1.377 . S
C1192 C1190 1.389 . S
C1192 C1193 1.524 . S
C1192 C1206 1.377 . S
C1193 C1192 1.524 . S
C1193 C1194 1.397 . S
C1193 C1198 1.363 . S
C1194 H1171 0.950 . S
C1194 C1193 1.397 . S
C1194 C1195 1.334 . S
C1195 H1172 0.950 . S
C1195 C1194 1.334 . S
C1195 C1196 1.287 . S
C1196 C1195 1.287 . S
C1196 C1197 1.524 . S
C1196 H1215 0.913 . S
C1197 H1173 0.950 1_655 S
C1197 C1196 1.524 . S
C1197 C1198 1.415 . S
C1198 H1174 0.950 . S
C1198 C1193 1.363 . S
C1198 C1197 1.415 . S
C1199 H1175 0.951 . S
C1199 C1200 1.366 . S
C1199 C1201 1.388 . S
C1200 C1199 1.366 . S
C1200 C1204 1.385 . S
C1201 H1176 0.951 . S
C1201 C1199 1.388 . S
C1201 C1202 1.366 . S
C1202 C1201 1.366 . S
C1202 C1203 1.414 . S
C1202 C1205 1.499 . S
C1203 H1177 0.950 . S
C1203 C1202 1.414 . S
C1203 C1204 1.374 . S
C1204 H1178 0.950 . S
C1204 C1200 1.385 . S
C1204 C1203 1.374 . S
C1205 C1202 1.499 . S
C1205 C1206 1.373 . S
C1205 C1207 1.389 . S
C1206 H1179 0.950 . S
C1206 C1192 1.377 . S
C1206 C1205 1.373 . S
C1207 C1191 1.377 . S
C1207 C1205 1.389 . S
C1207 C1208 1.524 . S
C1208 C1207 1.524 . S
C1208 C1209 1.397 . S
C1208 C1213 1.363 . S
C1209 H1180 0.950 . S
C1209 C1208 1.397 . S
C1209 C1210 1.334 . S
C1210 H1181 0.950 . S
C1210 C1209 1.334 . S
C1210 C1211 1.287 . S
C1211 C1210 1.287 . S
C1211 C1212 1.524 . S
C1211 H1214 0.999 . S
C1212 H1182 0.950 . S
C1212 C1211 1.524 . S
C1212 C1213 1.415 . S
C1213 H1183 0.950 . S
C1213 C1208 1.363 . S
C1213 C1212 1.415 . S
H1214 C1211 0.999 . S
H1215 C1196 0.913 . S
H1216 C1234 0.951 . S
H1217 C1236 0.951 . S
H1218 C1238 0.950 . S
H1219 C1239 0.950 . S
H1220 C1241 0.950 . S
H1221 C1244 0.950 . S
H1222 C1245 0.950 . S
H1223 C1247 0.950 . S
H1224 C1248 0.950 . S
H1225 C1249 0.951 . S
H1226 C1251 0.951 . S
H1227 C1253 0.950 . S
H1228 C1254 0.950 . S
H1229 C1256 0.950 . S
H1230 C1259 0.950 . S
H1231 C1260 0.950 . S
H1232 C1262 0.950 . S
H1233 C1263 0.950 . S
C1234 H1216 0.951 . S
C1234 C1235 1.366 . S
C1234 C1236 1.388 . S
C1235 C1234 1.366 . S
C1235 C1239 1.385 . S
C1236 H1217 0.951 . S
C1236 C1234 1.388 . S
C1236 C1237 1.366 . S
C1237 C1236 1.366 . S
C1237 C1238 1.414 . S
C1237 C1240 1.499 . S
C1238 H1218 0.950 . S
C1238 C1237 1.414 . S
C1238 C1239 1.374 . S
C1239 H1219 0.950 . S
C1239 C1235 1.385 . S
C1239 C1238 1.374 . S
C1240 C1237 1.499 . S
C1240 C1241 1.373 . S
C1240 C1242 1.389 . S
C1241 H1220 0.950 . S
C1241 C1240 1.373 . S
C1241 C1257 1.377 . S
C1242 C1240 1.389 . S
C1242 C1243 1.524 . S
C1242 C1256 1.377 . S
C1243 C1242 1.524 . S
C1243 C1244 1.397 . S
C1243 C1248 1.363 . S
C1244 H1221 0.950 . S
C1244 C1243 1.397 . S
C1244 C1245 1.334 . S
C1245 H1222 0.950 . S
C1245 C1244 1.334 . S
C1245 C1246 1.287 . S
C1246 C1245 1.287 . S
C1246 C1247 1.524 . S
C1246 H1265 0.913 . S
C1247 H1223 0.950 . S
C1247 C1246 1.524 . S
C1247 C1248 1.415 . S
C1248 H1224 0.950 . S
C1248 C1243 1.363 . S
C1248 C1247 1.415 . S
C1249 H1225 0.951 . S
C1249 C1250 1.366 . S
C1249 C1251 1.388 . S
C1250 C1249 1.366 . S
C1250 C1254 1.385 . S
C1251 H1226 0.951 . S
C1251 C1249 1.388 . S
C1251 C1252 1.366 . S
C1252 C1251 1.366 . S
C1252 C1253 1.414 . S
C1252 C1255 1.499 . S
C1253 H1227 0.950 . S
C1253 C1252 1.414 . S
C1253 C1254 1.374 . S
C1254 H1228 0.950 . S
C1254 C1250 1.385 . S
C1254 C1253 1.374 . S
C1255 C1252 1.499 . S
C1255 C1256 1.373 . S
C1255 C1257 1.389 . S
C1256 H1229 0.950 . S
C1256 C1242 1.377 . S
C1256 C1255 1.373 . S
C1257 C1241 1.377 . S
C1257 C1255 1.389 . S
C1257 C1258 1.524 . S
C1258 C1257 1.524 . S
C1258 C1259 1.397 . S
C1258 C1263 1.363 . S
C1259 H1230 0.950 . S
C1259 C1258 1.397 . S
C1259 C1260 1.334 . S
C1260 H1231 0.950 . S
C1260 C1259 1.334 . S
C1260 C1261 1.287 . S
C1261 C1260 1.287 . S
C1261 C1262 1.524 . S
C1261 H1264 0.999 . S
C1262 H1232 0.950 . S
C1262 C1261 1.524 . S
C1262 C1263 1.415 . S
C1263 H1233 0.950 . S
C1263 C1258 1.363 . S
C1263 C1262 1.415 . S
H1264 C1261 0.999 . S
H1265 C1246 0.913 . S
H1266 C1284 0.951 . S
H1267 C1286 0.951 . S
H1268 C1288 0.915 1_655 S
H1269 C1289 0.913 1_655 S
H1270 C1291 0.950 . S
H1271 C1294 0.950 . S
H1272 C1295 0.950 . S
H1273 C1297 0.950 . S
H1274 C1298 0.950 . S
H1275 C1299 0.951 . S
H1276 C1301 0.951 . S
H1277 C1303 0.897 1_455 S
H1278 C1304 0.924 1_455 S
H1279 C1306 0.950 . S
H1280 C1309 0.950 . S
H1281 C1310 0.950 . S
H1282 C1312 0.950 . S
H1283 C1313 0.950 . S
C1284 H1266 0.951 . S
C1284 C1285 1.366 . S
C1284 C1286 1.388 . S
C1285 C1284 1.366 . S
C1285 C1289 1.385 . S
C1286 H1267 0.951 . S
C1286 C1284 1.388 . S
C1286 C1287 1.366 . S
C1287 C1286 1.366 . S
C1287 C1288 1.438 . S
C1287 C1290 1.499 1_556 S
C1288 H1268 0.915 1_455 S
C1288 C1287 1.438 . S
C1288 C1289 1.386 . S
C1289 H1269 0.913 1_455 S
C1289 C1285 1.385 . S
C1289 C1288 1.386 . S
C1290 C1287 1.499 1_554 S
C1290 C1291 1.373 1_455 S
C1290 C1292 1.389 . S
C1291 H1270 0.950 . S
C1291 C1290 1.373 1_655 S
C1291 C1307 1.377 . S
C1292 C1290 1.389 . S
C1292 C1293 1.524 . S
C1292 C1306 1.377 . S
C1293 C1292 1.524 . S
C1293 C1294 1.397 . S
C1293 C1298 1.363 . S
C1294 H1271 0.950 . S
C1294 C1293 1.397 . S
C1294 C1295 1.334 . S
C1295 H1272 0.950 . S
C1295 C1294 1.334 . S
C1295 C1296 1.287 . S
C1296 C1295 1.287 . S
C1296 C1297 1.524 . S
C1296 H1315 0.913 . S
C1297 H1273 0.950 . S
C1297 C1296 1.524 . S
C1297 C1298 1.415 . S
C1298 H1274 0.950 . S
C1298 C1293 1.363 . S
C1298 C1297 1.415 . S
C1299 H1275 0.951 . S
C1299 C1300 1.366 . S
C1299 C1301 1.388 . S
C1300 C1299 1.366 . S
C1300 C1304 1.385 . S
C1301 H1276 0.951 . S
C1301 C1299 1.388 . S
C1301 C1302 1.366 . S
C1302 C1301 1.366 . S
C1302 C1303 1.450 . S
C1302 C1305 1.499 . S
C1303 H1277 0.897 1_655 S
C1303 C1302 1.450 . S
C1303 C1304 1.393 . S
C1304 H1278 0.924 1_655 S
C1304 C1300 1.385 . S
C1304 C1303 1.393 . S
C1305 C1302 1.499 . S
C1305 C1306 1.373 1_655 S
C1305 C1307 1.389 . S
C1306 H1279 0.950 . S
C1306 C1292 1.377 . S
C1306 C1305 1.373 1_455 S
C1307 C1291 1.377 . S
C1307 C1305 1.389 . S
C1307 C1308 1.524 . S
C1308 C1307 1.524 . S
C1308 C1309 1.397 . S
C1308 C1313 1.363 . S
C1309 H1280 0.950 . S
C1309 C1308 1.397 . S
C1309 C1310 1.334 . S
C1310 H1281 0.950 . S
C1310 C1309 1.334 . S
C1310 C1311 1.287 . S
C1311 C1310 1.287 . S
C1311 C1312 1.524 . S
C1311 H1314 0.999 . S
C1312 H1282 0.950 . S
C1312 C1311 1.524 . S
C1312 C1313 1.415 . S
C1313 H1283 0.950 . S
C1313 C1308 1.363 . S
C1313 C1312 1.415 . S
H1314 C1311 0.999 . S
H1315 C1296 0.913 . S
H1316 C1334 0.951 . S
H1317 C1336 0.951 . S
H1318 C1338 0.950 . S
H1319 C1339 0.950 . S
H1320 C1341 0.950 . S
H1321 C1344 0.950 . S
H1322 C1345 0.950 . S
H1323 C1347 0.950 . S
H1324 C1348 0.950 . S
H1325 C1349 0.951 . S
H1326 C1351 0.951 . S
H1327 C1353 0.950 . S
H1328 C1354 0.950 . S
H1329 C1356 0.950 . S
H1330 C1359 0.950 . S
H1331 C1360 0.950 . S
H1332 C1362 0.950 . S
H1333 C1363 0.950 . S
C1334 H1316 0.951 . S
C1334 C1335 1.366 . S
C1334 C1336 1.388 . S
C1335 C1334 1.366 . S
C1335 C1339 1.385 . S
C1336 H1317 0.951 . S
C1336 C1334 1.388 . S
C1336 C1337 1.366 . S
C1337 C1336 1.366 . S
C1337 C1338 1.414 . S
C1337 C1340 1.499 . S
C1338 H1318 0.950 . S
C1338 C1337 1.414 . S
C1338 C1339 1.374 . S
C1339 H1319 0.950 . S
C1339 C1335 1.385 . S
C1339 C1338 1.374 . S
C1340 C1337 1.499 . S
C1340 C1341 1.373 . S
C1340 C1342 1.389 . S
C1341 H1320 0.950 . S
C1341 C1340 1.373 . S
C1341 C1357 1.377 . S
C1342 C1340 1.389 . S
C1342 C1343 1.524 . S
C1342 C1356 1.377 . S
C1343 C1342 1.524 . S
C1343 C1344 1.397 . S
C1343 C1348 1.363 . S
C1344 H1321 0.950 . S
C1344 C1343 1.397 . S
C1344 C1345 1.334 . S
C1345 H1322 0.950 . S
C1345 C1344 1.334 . S
C1345 C1346 1.287 . S
C1346 C1345 1.287 . S
C1346 C1347 1.524 . S
C1346 H1365 0.913 . S
C1347 H1323 0.950 . S
C1347 C1346 1.524 . S
C1347 C1348 1.415 . S
C1348 H1324 0.950 . S
C1348 C1343 1.363 . S
C1348 C1347 1.415 . S
C1349 H1325 0.951 . S
C1349 C1350 1.366 . S
C1349 C1351 1.388 . S
C1350 C1349 1.366 . S
C1350 C1354 1.385 . S
C1351 H1326 0.951 . S
C1351 C1349 1.388 . S
C1351 C1352 1.366 . S
C1352 C1351 1.366 . S
C1352 C1353 1.414 . S
C1352 C1355 1.499 . S
C1353 H1327 0.950 . S
C1353 C1352 1.414 . S
C1353 C1354 1.374 . S
C1354 H1328 0.950 . S
C1354 C1350 1.385 . S
C1354 C1353 1.374 . S
C1355 C1352 1.499 . S
C1355 C1356 1.373 . S
C1355 C1357 1.389 . S
C1356 H1329 0.950 . S
C1356 C1342 1.377 . S
C1356 C1355 1.373 . S
C1357 C1341 1.377 . S
C1357 C1355 1.389 . S
C1357 C1358 1.524 . S
C1358 C1357 1.524 . S
C1358 C1359 1.397 . S
C1358 C1363 1.363 . S
C1359 H1330 0.950 . S
C1359 C1358 1.397 . S
C1359 C1360 1.334 . S
C1360 H1331 0.950 . S
C1360 C1359 1.334 . S
C1360 C1361 1.287 . S
C1361 C1360 1.287 . S
C1361 C1362 1.524 . S
C1361 H1364 0.999 . S
C1362 H1332 0.950 . S
C1362 C1361 1.524 . S
C1362 C1363 1.415 . S
C1363 H1333 0.950 . S
C1363 C1358 1.363 . S
C1363 C1362 1.415 . S
H1364 C1361 0.999 . S
H1365 C1346 0.913 . S
H1366 C1384 0.951 . S
H1367 C1386 0.951 . S
H1368 C1388 0.950 . S
H1369 C1389 0.950 . S
H1370 C1391 0.950 . S
H1371 C1394 0.950 . S
H1372 C1395 0.950 . S
H1373 C1397 0.950 . S
H1374 C1398 0.950 . S
H1375 C1399 0.951 . S
H1376 C1401 0.951 . S
H1377 C1403 0.950 . S
H1378 C1404 0.950 . S
H1379 C1406 0.950 . S
H1380 C1409 0.950 . S
H1381 C1410 0.950 . S
H1382 C1412 0.950 . S
H1383 C1413 0.950 . S
C1384 H1366 0.951 . S
C1384 C1385 1.366 . S
C1384 C1386 1.388 . S
C1385 C1384 1.366 . S
C1385 C1389 1.385 . S
C1386 H1367 0.951 . S
C1386 C1384 1.388 . S
C1386 C1387 1.366 . S
C1387 C1386 1.366 . S
C1387 C1388 1.414 . S
C1387 C1390 1.499 . S
C1388 H1368 0.950 . S
C1388 C1387 1.414 . S
C1388 C1389 1.374 . S
C1389 H1369 0.950 . S
C1389 C1385 1.385 . S
C1389 C1388 1.374 . S
C1390 C1387 1.499 . S
C1390 C1391 1.373 . S
C1390 C1392 1.389 . S
C1391 H1370 0.950 . S
C1391 C1390 1.373 . S
C1391 C1407 1.377 . S
C1392 C1390 1.389 . S
C1392 C1393 1.524 . S
C1392 C1406 1.377 . S
C1393 C1392 1.524 . S
C1393 C1394 1.397 . S
C1393 C1398 1.363 . S
C1394 H1371 0.950 . S
C1394 C1393 1.397 . S
C1394 C1395 1.334 . S
C1395 H1372 0.950 . S
C1395 C1394 1.334 . S
C1395 C1396 1.287 . S
C1396 C1395 1.287 . S
C1396 C1397 1.524 . S
C1396 H1415 0.913 . S
C1397 H1373 0.950 . S
C1397 C1396 1.524 . S
C1397 C1398 1.415 . S
C1398 H1374 0.950 . S
C1398 C1393 1.363 . S
C1398 C1397 1.415 . S
C1399 H1375 0.951 . S
C1399 C1400 1.366 . S
C1399 C1401 1.388 . S
C1400 C1399 1.366 . S
C1400 C1404 1.385 . S
C1401 H1376 0.951 . S
C1401 C1399 1.388 . S
C1401 C1402 1.366 . S
C1402 C1401 1.366 . S
C1402 C1403 1.414 . S
C1402 C1405 1.499 . S
C1403 H1377 0.950 . S
C1403 C1402 1.414 . S
C1403 C1404 1.374 . S
C1404 H1378 0.950 . S
C1404 C1400 1.385 . S
C1404 C1403 1.374 . S
C1405 C1402 1.499 . S
C1405 C1406 1.373 . S
C1405 C1407 1.389 . S
C1406 H1379 0.950 . S
C1406 C1392 1.377 . S
C1406 C1405 1.373 . S
C1407 C1391 1.377 . S
C1407 C1405 1.389 . S
C1407 C1408 1.524 . S
C1408 C1407 1.524 . S
C1408 C1409 1.397 . S
C1408 C1413 1.363 . S
C1409 H1380 0.950 . S
C1409 C1408 1.397 . S
C1409 C1410 1.334 . S
C1410 H1381 0.950 . S
C1410 C1409 1.334 . S
C1410 C1411 1.287 . S
C1411 C1410 1.287 . S
C1411 C1412 1.524 . S
C1411 H1414 0.999 . S
C1412 H1382 0.950 . S
C1412 C1411 1.524 . S
C1412 C1413 1.415 . S
C1413 H1383 0.950 . S
C1413 C1408 1.363 . S
C1413 C1412 1.415 . S
H1414 C1411 0.999 . S
H1415 C1396 0.913 . S
H1416 C1434 0.951 . S
H1417 C1436 0.951 . S
H1418 C1438 0.950 . S
H1419 C1439 0.950 . S
H1420 C1441 0.950 . S
H1421 C1444 0.950 . S
H1422 C1445 0.950 . S
H1423 C1447 0.950 . S
H1424 C1448 0.950 . S
H1425 C1449 0.951 . S
H1426 C1451 0.951 . S
H1427 C1453 0.950 . S
H1428 C1454 0.950 . S
H1429 C1456 0.950 . S
H1430 C1459 0.950 . S
H1431 C1460 0.950 . S
H1432 C1462 0.950 . S
H1433 C1463 0.950 . S
C1434 H1416 0.951 . S
C1434 C1435 1.366 . S
C1434 C1436 1.388 . S
C1435 C1434 1.366 . S
C1435 C1439 1.385 . S
C1436 H1417 0.951 . S
C1436 C1434 1.388 . S
C1436 C1437 1.366 . S
C1437 C1436 1.366 . S
C1437 C1438 1.414 . S
C1437 C1440 1.499 . S
C1438 H1418 0.950 . S
C1438 C1437 1.414 . S
C1438 C1439 1.374 . S
C1439 H1419 0.950 . S
C1439 C1435 1.385 . S
C1439 C1438 1.374 . S
C1440 C1437 1.499 . S
C1440 C1441 1.373 . S
C1440 C1442 1.389 . S
C1441 H1420 0.950 . S
C1441 C1440 1.373 . S
C1441 C1457 1.377 . S
C1442 C1440 1.389 . S
C1442 C1443 1.524 . S
C1442 C1456 1.377 . S
C1443 C1442 1.524 . S
C1443 C1444 1.397 . S
C1443 C1448 1.363 . S
C1444 H1421 0.950 . S
C1444 C1443 1.397 . S
C1444 C1445 1.334 . S
C1445 H1422 0.950 . S
C1445 C1444 1.334 . S
C1445 C1446 1.287 . S
C1446 C1445 1.287 . S
C1446 C1447 1.524 . S
C1446 H1465 0.913 . S
C1447 H1423 0.950 . S
C1447 C1446 1.524 . S
C1447 C1448 1.415 . S
C1448 H1424 0.950 . S
C1448 C1443 1.363 . S
C1448 C1447 1.415 . S
C1449 H1425 0.951 . S
C1449 C1450 1.366 . S
C1449 C1451 1.388 . S
C1450 C1449 1.366 . S
C1450 C1454 1.385 . S
C1451 H1426 0.951 . S
C1451 C1449 1.388 . S
C1451 C1452 1.366 . S
C1452 C1451 1.366 . S
C1452 C1453 1.414 . S
C1452 C1455 1.499 . S
C1453 H1427 0.950 . S
C1453 C1452 1.414 . S
C1453 C1454 1.374 . S
C1454 H1428 0.950 . S
C1454 C1450 1.385 . S
C1454 C1453 1.374 . S
C1455 C1452 1.499 . S
C1455 C1456 1.373 . S
C1455 C1457 1.389 . S
C1456 H1429 0.950 . S
C1456 C1442 1.377 . S
C1456 C1455 1.373 . S
C1457 C1441 1.377 . S
C1457 C1455 1.389 . S
C1457 C1458 1.524 . S
C1458 C1457 1.524 . S
C1458 C1459 1.397 . S
C1458 C1463 1.363 . S
C1459 H1430 0.950 . S
C1459 C1458 1.397 . S
C1459 C1460 1.334 . S
C1460 H1431 0.950 . S
C1460 C1459 1.334 . S
C1460 C1461 1.287 . S
C1461 C1460 1.287 . S
C1461 C1462 1.524 . S
C1461 H1464 0.999 . S
C1462 H1432 0.950 . S
C1462 C1461 1.524 . S
C1462 C1463 1.415 . S
C1463 H1433 0.950 . S
C1463 C1458 1.363 . S
C1463 C1462 1.415 . S
H1464 C1461 0.999 . S
H1465 C1446 0.913 . S
H1466 C1484 0.951 . S
H1467 C1486 0.951 . S
H1468 C1488 0.950 . S
H1469 C1489 0.950 . S
H1470 C1491 0.950 . S
H1471 C1494 0.950 . S
H1472 C1495 0.950 . S
H1473 C1497 0.950 . S
H1474 C1498 0.950 . S
H1475 C1499 0.951 . S
H1476 C1501 0.951 . S
H1477 C1503 0.950 . S
H1478 C1504 0.950 . S
H1479 C1506 0.950 . S
H1480 C1509 0.950 . S
H1481 C1510 0.950 . S
H1482 C1512 0.950 . S
H1483 C1513 0.950 . S
C1484 H1466 0.951 . S
C1484 C1485 1.366 . S
C1484 C1486 1.388 . S
C1485 C1484 1.366 . S
C1485 C1489 1.385 . S
C1486 H1467 0.951 . S
C1486 C1484 1.388 . S
C1486 C1487 1.366 . S
C1487 C1486 1.366 . S
C1487 C1488 1.414 . S
C1487 C1490 1.499 1_554 S
C1488 H1468 0.950 . S
C1488 C1487 1.414 . S
C1488 C1489 1.374 . S
C1489 H1469 0.950 . S
C1489 C1485 1.385 . S
C1489 C1488 1.374 . S
C1490 C1487 1.499 1_556 S
C1490 C1491 1.373 . S
C1490 C1492 1.389 . S
C1491 H1470 0.950 . S
C1491 C1490 1.373 . S
C1491 C1507 1.377 . S
C1492 C1490 1.389 . S
C1492 C1493 1.524 . S
C1492 C1506 1.377 . S
C1493 C1492 1.524 . S
C1493 C1494 1.397 1_556 S
C1493 C1498 1.363 . S
C1494 H1471 0.950 . S
C1494 C1493 1.397 1_554 S
C1494 C1495 1.334 . S
C1495 H1472 0.950 . S
C1495 C1494 1.334 . S
C1495 C1496 1.287 . S
C1496 C1495 1.287 . S
C1496 C1497 1.524 1_554 S
C1496 H1515 0.913 . S
C1497 H1473 0.950 . S
C1497 C1496 1.524 1_556 S
C1497 C1498 1.415 . S
C1498 H1474 0.950 . S
C1498 C1493 1.363 . S
C1498 C1497 1.415 . S
C1499 H1475 0.951 . S
C1499 C1500 1.366 . S
C1499 C1501 1.388 . S
C1500 C1499 1.366 . S
C1500 C1504 1.385 . S
C1501 H1476 0.951 . S
C1501 C1499 1.388 . S
C1501 C1502 1.366 . S
C1502 C1501 1.366 . S
C1502 C1503 1.414 . S
C1502 C1505 1.499 . S
C1503 H1477 0.950 . S
C1503 C1502 1.414 . S
C1503 C1504 1.374 . S
C1504 H1478 0.950 . S
C1504 C1500 1.385 . S
C1504 C1503 1.374 . S
C1505 C1502 1.499 . S
C1505 C1506 1.373 . S
C1505 C1507 1.389 . S
C1506 H1479 0.950 . S
C1506 C1492 1.377 . S
C1506 C1505 1.373 . S
C1507 C1491 1.377 . S
C1507 C1505 1.389 . S
C1507 C1508 1.524 . S
C1508 C1507 1.524 . S
C1508 C1509 1.397 . S
C1508 C1513 1.363 . S
C1509 H1480 0.950 . S
C1509 C1508 1.397 . S
C1509 C1510 1.334 . S
C1510 H1481 0.950 . S
C1510 C1509 1.334 . S
C1510 C1511 1.287 . S
C1511 C1510 1.287 . S
C1511 C1512 1.524 . S
C1511 H1514 0.999 . S
C1512 H1482 0.950 . S
C1512 C1511 1.524 . S
C1512 C1513 1.415 . S
C1513 H1483 0.950 . S
C1513 C1508 1.363 . S
C1513 C1512 1.415 . S
H1514 C1511 0.999 . S
H1515 C1496 0.913 . S
H1516 C1534 0.951 . S
H1517 C1536 0.951 . S
H1518 C1538 0.950 . S
H1519 C1539 0.950 . S
H1520 C1541 0.950 . S
H1521 C1544 0.950 . S
H1522 C1545 0.950 . S
H1523 C1547 0.950 . S
H1524 C1548 0.950 . S
H1525 C1549 0.951 . S
H1526 C1551 0.951 . S
H1527 C1553 0.950 . S
H1528 C1554 0.950 . S
H1529 C1556 0.950 . S
H1530 C1559 0.950 . S
H1531 C1560 0.950 . S
H1532 C1562 0.950 . S
H1533 C1563 0.950 . S
C1534 H1516 0.951 . S
C1534 C1535 1.366 . S
C1534 C1536 1.388 . S
C1535 C1534 1.366 . S
C1535 C1539 1.385 . S
C1536 H1517 0.951 . S
C1536 C1534 1.388 . S
C1536 C1537 1.366 . S
C1537 C1536 1.366 . S
C1537 C1538 1.414 . S
C1537 C1540 1.499 . S
C1538 H1518 0.950 . S
C1538 C1537 1.414 . S
C1538 C1539 1.374 . S
C1539 H1519 0.950 . S
C1539 C1535 1.385 . S
C1539 C1538 1.374 . S
C1540 C1537 1.499 . S
C1540 C1541 1.373 . S
C1540 C1542 1.389 . S
C1541 H1520 0.950 . S
C1541 C1540 1.373 . S
C1541 C1557 1.377 . S
C1542 C1540 1.389 . S
C1542 C1543 1.524 . S
C1542 C1556 1.377 . S
C1543 C1542 1.524 . S
C1543 C1544 1.397 . S
C1543 C1548 1.363 . S
C1544 H1521 0.950 . S
C1544 C1543 1.397 . S
C1544 C1545 1.334 . S
C1545 H1522 0.950 . S
C1545 C1544 1.334 . S
C1545 C1546 1.287 . S
C1546 C1545 1.287 . S
C1546 C1547 1.524 . S
C1546 H1565 0.913 . S
C1547 H1523 0.950 . S
C1547 C1546 1.524 . S
C1547 C1548 1.415 . S
C1548 H1524 0.950 . S
C1548 C1543 1.363 . S
C1548 C1547 1.415 . S
C1549 H1525 0.951 . S
C1549 C1550 1.366 . S
C1549 C1551 1.388 . S
C1550 C1549 1.366 . S
C1550 C1554 1.385 . S
C1551 H1526 0.951 . S
C1551 C1549 1.388 . S
C1551 C1552 1.366 . S
C1552 C1551 1.366 . S
C1552 C1553 1.414 . S
C1552 C1555 1.499 . S
C1553 H1527 0.950 . S
C1553 C1552 1.414 . S
C1553 C1554 1.374 . S
C1554 H1528 0.950 . S
C1554 C1550 1.385 . S
C1554 C1553 1.374 . S
C1555 C1552 1.499 . S
C1555 C1556 1.373 . S
C1555 C1557 1.389 . S
C1556 H1529 0.950 . S
C1556 C1542 1.377 . S
C1556 C1555 1.373 . S
C1557 C1541 1.377 . S
C1557 C1555 1.389 . S
C1557 C1558 1.524 . S
C1558 C1557 1.524 . S
C1558 C1559 1.397 . S
C1558 C1563 1.363 . S
C1559 H1530 0.950 . S
C1559 C1558 1.397 . S
C1559 C1560 1.334 . S
C1560 H1531 0.950 . S
C1560 C1559 1.334 . S
C1560 C1561 1.287 . S
C1561 C1560 1.287 . S
C1561 C1562 1.524 . S
C1561 H1564 0.999 . S
C1562 H1532 0.950 . S
C1562 C1561 1.524 . S
C1562 C1563 1.415 . S
C1563 H1533 0.950 . S
C1563 C1558 1.363 . S
C1563 C1562 1.415 . S
H1564 C1561 0.999 . S
H1565 C1546 0.913 . S
H1566 C1584 0.951 . S
H1567 C1586 0.951 . S
H1568 C1588 0.950 . S
H1569 C1589 0.950 . S
H1570 C1591 0.950 . S
H1571 C1594 0.950 . S
H1572 C1595 0.950 . S
H1573 C1597 0.950 . S
H1574 C1598 0.950 . S
H1575 C1599 0.951 . S
H1576 C1601 0.951 . S
H1577 C1603 0.950 . S
H1578 C1604 0.950 . S
H1579 C1606 0.950 . S
H1580 C1609 0.950 . S
H1581 C1610 0.950 . S
H1582 C1612 0.950 . S
H1583 C1613 0.950 . S
C1584 H1566 0.951 . S
C1584 C1585 1.366 . S
C1584 C1586 1.388 . S
C1585 C1584 1.366 . S
C1585 C1589 1.385 . S
C1586 H1567 0.951 . S
C1586 C1584 1.388 . S
C1586 C1587 1.366 . S
C1587 C1586 1.366 . S
C1587 C1588 1.414 . S
C1587 C1590 1.499 . S
C1588 H1568 0.950 . S
C1588 C1587 1.414 . S
C1588 C1589 1.374 . S
C1589 H1569 0.950 . S
C1589 C1585 1.385 . S
C1589 C1588 1.374 . S
C1590 C1587 1.499 . S
C1590 C1591 1.373 1_455 S
C1590 C1592 1.389 . S
C1591 H1570 0.950 . S
C1591 C1590 1.373 1_655 S
C1591 C1607 1.377 . S
C1592 C1590 1.389 . S
C1592 C1593 1.524 . S
C1592 C1606 1.377 . S
C1593 C1592 1.524 . S
C1593 C1594 1.397 . S
C1593 C1598 1.363 . S
C1594 H1571 0.950 . S
C1594 C1593 1.397 . S
C1594 C1595 1.334 . S
C1595 H1572 0.950 . S
C1595 C1594 1.334 . S
C1595 C1596 1.287 . S
C1596 C1595 1.287 . S
C1596 C1597 1.524 . S
C1596 H1615 0.913 . S
C1597 H1573 0.950 . S
C1597 C1596 1.524 . S
C1597 C1598 1.415 . S
C1598 H1574 0.950 . S
C1598 C1593 1.363 . S
C1598 C1597 1.415 . S
C1599 H1575 0.951 . S
C1599 C1600 1.366 . S
C1599 C1601 1.388 . S
C1600 C1599 1.366 . S
C1600 C1604 1.385 . S
C1601 H1576 0.951 . S
C1601 C1599 1.388 . S
C1601 C1602 1.366 . S
C1602 C1601 1.366 . S
C1602 C1603 1.414 . S
C1602 C1605 1.499 . S
C1603 H1577 0.950 . S
C1603 C1602 1.414 . S
C1603 C1604 1.374 . S
C1604 H1578 0.950 . S
C1604 C1600 1.385 . S
C1604 C1603 1.374 . S
C1605 C1602 1.499 . S
C1605 C1606 1.373 1_655 S
C1605 C1607 1.389 . S
C1606 H1579 0.950 . S
C1606 C1592 1.377 . S
C1606 C1605 1.373 1_455 S
C1607 C1591 1.377 . S
C1607 C1605 1.389 . S
C1607 C1608 1.524 . S
C1608 C1607 1.524 . S
C1608 C1609 1.397 . S
C1608 C1613 1.363 . S
C1609 H1580 0.950 . S
C1609 C1608 1.397 . S
C1609 C1610 1.334 . S
C1610 H1581 0.950 . S
C1610 C1609 1.334 . S
C1610 C1611 1.287 . S
C1611 C1610 1.287 . S
C1611 C1612 1.524 . S
C1611 H1614 0.999 . S
C1612 H1582 0.950 . S
C1612 C1611 1.524 . S
C1612 C1613 1.415 . S
C1613 H1583 0.950 . S
C1613 C1608 1.363 . S
C1613 C1612 1.415 . S
H1614 C1611 0.999 . S
H1615 C1596 0.913 . S
H1616 C1634 0.951 . S
H1617 C1636 0.951 . S
H1618 C1638 0.950 . S
H1619 C1639 0.950 . S
H1620 C1641 0.950 . S
H1621 C1644 0.950 . S
H1622 C1645 0.950 . S
H1623 C1647 0.950 . S
H1624 C1648 0.950 . S
H1625 C1649 0.951 . S
H1626 C1651 0.951 . S
H1627 C1653 0.950 . S
H1628 C1654 0.950 . S
H1629 C1656 0.950 . S
H1630 C1659 0.950 . S
H1631 C1660 0.950 . S
H1632 C1662 0.950 . S
H1633 C1663 0.950 . S
C1634 H1616 0.951 . S
C1634 C1635 1.366 . S
C1634 C1636 1.388 . S
C1635 C1634 1.366 . S
C1635 C1639 1.385 . S
C1636 H1617 0.951 . S
C1636 C1634 1.388 . S
C1636 C1637 1.366 . S
C1637 C1636 1.366 . S
C1637 C1638 1.414 . S
C1637 C1640 1.499 . S
C1638 H1618 0.950 . S
C1638 C1637 1.414 . S
C1638 C1639 1.374 . S
C1639 H1619 0.950 . S
C1639 C1635 1.385 . S
C1639 C1638 1.374 . S
C1640 C1637 1.499 . S
C1640 C1641 1.373 . S
C1640 C1642 1.389 . S
C1641 H1620 0.950 . S
C1641 C1640 1.373 . S
C1641 C1657 1.377 . S
C1642 C1640 1.389 . S
C1642 C1643 1.524 . S
C1642 C1656 1.377 . S
C1643 C1642 1.524 . S
C1643 C1644 1.397 . S
C1643 C1648 1.363 . S
C1644 H1621 0.950 . S
C1644 C1643 1.397 . S
C1644 C1645 1.334 . S
C1645 H1622 0.950 . S
C1645 C1644 1.334 . S
C1645 C1646 1.287 . S
C1646 C1645 1.287 . S
C1646 C1647 1.524 . S
C1646 H1665 0.913 . S
C1647 H1623 0.950 . S
C1647 C1646 1.524 . S
C1647 C1648 1.415 . S
C1648 H1624 0.950 . S
C1648 C1643 1.363 . S
C1648 C1647 1.415 . S
C1649 H1625 0.951 . S
C1649 C1650 1.366 . S
C1649 C1651 1.388 . S
C1650 C1649 1.366 . S
C1650 C1654 1.385 . S
C1651 H1626 0.951 . S
C1651 C1649 1.388 . S
C1651 C1652 1.366 . S
C1652 C1651 1.366 . S
C1652 C1653 1.414 . S
C1652 C1655 1.499 . S
C1653 H1627 0.950 . S
C1653 C1652 1.414 . S
C1653 C1654 1.374 . S
C1654 H1628 0.950 . S
C1654 C1650 1.385 . S
C1654 C1653 1.374 . S
C1655 C1652 1.499 . S
C1655 C1656 1.373 . S
C1655 C1657 1.389 . S
C1656 H1629 0.950 . S
C1656 C1642 1.377 . S
C1656 C1655 1.373 . S
C1657 C1641 1.377 . S
C1657 C1655 1.389 . S
C1657 C1658 1.524 . S
C1658 C1657 1.524 . S
C1658 C1659 1.397 . S
C1658 C1663 1.363 . S
C1659 H1630 0.950 . S
C1659 C1658 1.397 . S
C1659 C1660 1.334 . S
C1660 H1631 0.950 . S
C1660 C1659 1.334 . S
C1660 C1661 1.287 . S
C1661 C1660 1.287 . S
C1661 C1662 1.524 . S
C1661 H1664 0.999 . S
C1662 H1632 0.950 . S
C1662 C1661 1.524 . S
C1662 C1663 1.415 . S
C1663 H1633 0.950 . S
C1663 C1658 1.363 . S
C1663 C1662 1.415 . S
H1664 C1661 0.999 . S
H1665 C1646 0.913 . S
H1666 C1684 0.951 . S
H1667 C1686 0.951 . S
H1668 C1688 1.006 . S
H1669 C1689 0.950 1_455 S
H1670 C1691 0.950 . S
H1671 C1694 0.950 1_454 S
H1672 C1695 0.946 . S
H1673 C1697 0.950 . S
H1674 C1698 0.950 . S
H1675 C1699 0.951 . S
H1676 C1701 0.951 . S
H1677 C1703 0.986 . S
H1678 C1704 0.950 1_655 S
H1679 C1706 0.950 . S
H1680 C1709 0.950 1_655 S
H1681 C1710 0.956 . S
H1682 C1712 0.950 . S
H1683 C1713 0.950 . S
C1684 H1666 0.951 . S
C1684 C1685 1.366 . S
C1684 C1686 1.388 . S
C1685 C1684 1.366 . S
C1685 C1689 1.385 . S
C1686 H1667 0.951 . S
C1686 C1684 1.388 . S
C1686 C1687 1.366 . S
C1687 C1686 1.366 . S
C1687 C1688 1.378 1_655 S
C1687 C1690 1.499 1_554 S
C1688 H1668 1.006 . S
C1688 C1687 1.378 1_455 S
C1688 C1689 1.357 1_455 S
C1689 H1669 0.950 1_655 S
C1689 C1685 1.385 . S
C1689 C1688 1.357 1_655 S
C1690 C1687 1.499 1_556 S
C1690 C1691 1.373 1_655 S
C1690 C1692 1.389 . S
C1691 H1670 0.950 . S
C1691 C1690 1.373 1_455 S
C1691 C1707 1.377 . S
C1692 C1690 1.389 . S
C1692 C1693 1.524 . S
C1692 C1706 1.377 . S
C1693 C1692 1.524 . S
C1693 C1694 1.397 . S
C1693 C1698 1.363 . S
C1694 H1671 0.950 1_656 S
C1694 C1693 1.397 . S
C1694 C1695 1.334 1_556 S
C1695 H1672 0.946 . S
C1695 C1694 1.334 1_554 S
C1695 C1696 1.287 1_554 S
C1696 C1695 1.287 1_556 S
C1696 C1697 1.524 . S
C1696 H1715 0.914 1_556 S
C1697 H1673 0.950 . S
C1697 C1696 1.524 . S
C1697 C1698 1.415 . S
C1698 H1674 0.950 . S
C1698 C1693 1.363 . S
C1698 C1697 1.415 . S
C1699 H1675 0.951 . S
C1699 C1700 1.366 . S
C1699 C1701 1.388 . S
C1700 C1699 1.366 . S
C1700 C1704 1.385 . S
C1701 H1676 0.951 . S
C1701 C1699 1.388 . S
C1701 C1702 1.366 . S
C1702 C1701 1.366 . S
C1702 C1703 1.391 1_455 S
C1702 C1705 1.499 . S
C1703 H1677 0.986 . S
C1703 C1702 1.391 1_655 S
C1703 C1704 1.363 1_655 S
C1704 H1678 0.950 1_455 S
C1704 C1700 1.385 . S
C1704 C1703 1.363 1_455 S
C1705 C1702 1.499 . S
C1705 C1706 1.373 1_455 S
C1705 C1707 1.389 . S
C1706 H1679 0.950 . S
C1706 C1692 1.377 . S
C1706 C1705 1.373 1_655 S
C1707 C1691 1.377 . S
C1707 C1705 1.389 . S
C1707 C1708 1.524 . S
C1708 C1707 1.524 . S
C1708 C1709 1.397 . S
C1708 C1713 1.363 . S
C1709 H1680 0.950 1_455 S
C1709 C1708 1.397 . S
C1709 C1710 1.334 . S
C1710 H1681 0.956 . S
C1710 C1709 1.334 . S
C1710 C1711 1.287 . S
C1711 C1710 1.287 . S
C1711 C1712 1.524 . S
C1711 H1714 0.999 . S
C1712 H1682 0.950 . S
C1712 C1711 1.524 . S
C1712 C1713 1.415 . S
C1713 H1683 0.950 . S
C1713 C1708 1.363 . S
C1713 C1712 1.415 . S
H1714 C1711 0.999 . S
H1715 C1696 0.914 1_554 S
H1716 C1734 0.951 . S
H1717 C1736 0.951 . S
H1718 C1738 0.950 . S
H1719 C1739 0.950 . S
H1720 C1741 0.950 . S
H1721 C1744 0.950 . S
H1722 C1745 0.950 . S
H1723 C1747 0.950 . S
H1724 C1748 0.950 . S
H1725 C1749 0.951 . S
H1726 C1751 0.951 . S
H1727 C1753 0.950 . S
H1728 C1754 0.950 . S
H1729 C1756 0.950 . S
H1730 C1759 0.950 . S
H1731 C1760 0.950 . S
H1732 C1762 0.950 . S
H1733 C1763 0.950 . S
C1734 H1716 0.951 . S
C1734 C1735 1.366 . S
C1734 C1736 1.388 . S
C1735 C1734 1.366 . S
C1735 C1739 1.385 . S
C1736 H1717 0.951 . S
C1736 C1734 1.388 . S
C1736 C1737 1.366 . S
C1737 C1736 1.366 . S
C1737 C1738 1.414 . S
C1737 C1740 1.499 . S
C1738 H1718 0.950 . S
C1738 C1737 1.414 . S
C1738 C1739 1.374 . S
C1739 H1719 0.950 . S
C1739 C1735 1.385 . S
C1739 C1738 1.374 . S
C1740 C1737 1.499 . S
C1740 C1741 1.373 . S
C1740 C1742 1.389 . S
C1741 H1720 0.950 . S
C1741 C1740 1.373 . S
C1741 C1757 1.377 . S
C1742 C1740 1.389 . S
C1742 C1743 1.524 . S
C1742 C1756 1.377 . S
C1743 C1742 1.524 . S
C1743 C1744 1.397 . S
C1743 C1748 1.363 . S
C1744 H1721 0.950 . S
C1744 C1743 1.397 . S
C1744 C1745 1.334 . S
C1745 H1722 0.950 . S
C1745 C1744 1.334 . S
C1745 C1746 1.287 . S
C1746 C1745 1.287 . S
C1746 C1747 1.524 . S
C1746 H1765 0.913 . S
C1747 H1723 0.950 . S
C1747 C1746 1.524 . S
C1747 C1748 1.415 . S
C1748 H1724 0.950 . S
C1748 C1743 1.363 . S
C1748 C1747 1.415 . S
C1749 H1725 0.951 . S
C1749 C1750 1.366 . S
C1749 C1751 1.388 . S
C1750 C1749 1.366 . S
C1750 C1754 1.385 . S
C1751 H1726 0.951 . S
C1751 C1749 1.388 . S
C1751 C1752 1.366 . S
C1752 C1751 1.366 . S
C1752 C1753 1.414 . S
C1752 C1755 1.499 . S
C1753 H1727 0.950 . S
C1753 C1752 1.414 . S
C1753 C1754 1.374 . S
C1754 H1728 0.950 . S
C1754 C1750 1.385 . S
C1754 C1753 1.374 . S
C1755 C1752 1.499 . S
C1755 C1756 1.373 . S
C1755 C1757 1.389 . S
C1756 H1729 0.950 . S
C1756 C1742 1.377 . S
C1756 C1755 1.373 . S
C1757 C1741 1.377 . S
C1757 C1755 1.389 . S
C1757 C1758 1.524 . S
C1758 C1757 1.524 . S
C1758 C1759 1.397 . S
C1758 C1763 1.363 . S
C1759 H1730 0.950 . S
C1759 C1758 1.397 . S
C1759 C1760 1.334 . S
C1760 H1731 0.950 . S
C1760 C1759 1.334 . S
C1760 C1761 1.287 . S
C1761 C1760 1.287 . S
C1761 C1762 1.524 . S
C1761 H1764 0.999 . S
C1762 H1732 0.950 . S
C1762 C1761 1.524 . S
C1762 C1763 1.415 . S
C1763 H1733 0.950 . S
C1763 C1758 1.363 . S
C1763 C1762 1.415 . S
H1764 C1761 0.999 . S
H1765 C1746 0.913 . S
H1766 C1784 0.951 . S
H1767 C1786 0.951 . S
H1768 C1788 0.950 . S
H1769 C1789 0.950 . S
H1770 C1791 0.950 . S
H1771 C1794 0.950 . S
H1772 C1795 0.950 . S
H1773 C1797 0.950 . S
H1774 C1798 0.950 . S
H1775 C1799 0.951 . S
H1776 C1801 0.951 . S
H1777 C1803 0.950 . S
H1778 C1804 0.950 . S
H1779 C1806 0.950 . S
H1780 C1809 0.950 . S
H1781 C1810 0.950 . S
H1782 C1812 0.950 . S
H1783 C1813 0.950 . S
C1784 H1766 0.951 . S
C1784 C1785 1.366 . S
C1784 C1786 1.388 . S
C1785 C1784 1.366 . S
C1785 C1789 1.385 . S
C1786 H1767 0.951 . S
C1786 C1784 1.388 . S
C1786 C1787 1.366 . S
C1787 C1786 1.366 . S
C1787 C1788 1.414 . S
C1787 C1790 1.499 . S
C1788 H1768 0.950 . S
C1788 C1787 1.414 . S
C1788 C1789 1.374 . S
C1789 H1769 0.950 . S
C1789 C1785 1.385 . S
C1789 C1788 1.374 . S
C1790 C1787 1.499 . S
C1790 C1791 1.373 . S
C1790 C1792 1.389 . S
C1791 H1770 0.950 . S
C1791 C1790 1.373 . S
C1791 C1807 1.377 . S
C1792 C1790 1.389 . S
C1792 C1793 1.524 . S
C1792 C1806 1.377 . S
C1793 C1792 1.524 . S
C1793 C1794 1.397 . S
C1793 C1798 1.363 . S
C1794 H1771 0.950 . S
C1794 C1793 1.397 . S
C1794 C1795 1.334 . S
C1795 H1772 0.950 . S
C1795 C1794 1.334 . S
C1795 C1796 1.287 . S
C1796 C1795 1.287 . S
C1796 C1797 1.524 . S
C1796 H1815 0.913 . S
C1797 H1773 0.950 . S
C1797 C1796 1.524 . S
C1797 C1798 1.415 . S
C1798 H1774 0.950 . S
C1798 C1793 1.363 . S
C1798 C1797 1.415 . S
C1799 H1775 0.951 . S
C1799 C1800 1.366 . S
C1799 C1801 1.388 . S
C1800 C1799 1.366 . S
C1800 C1804 1.385 . S
C1801 H1776 0.951 . S
C1801 C1799 1.388 . S
C1801 C1802 1.366 . S
C1802 C1801 1.366 . S
C1802 C1803 1.414 . S
C1802 C1805 1.499 . S
C1803 H1777 0.950 . S
C1803 C1802 1.414 . S
C1803 C1804 1.374 . S
C1804 H1778 0.950 . S
C1804 C1800 1.385 . S
C1804 C1803 1.374 . S
C1805 C1802 1.499 . S
C1805 C1806 1.373 . S
C1805 C1807 1.389 . S
C1806 H1779 0.950 . S
C1806 C1792 1.377 . S
C1806 C1805 1.373 . S
C1807 C1791 1.377 . S
C1807 C1805 1.389 . S
C1807 C1808 1.524 . S
C1808 C1807 1.524 . S
C1808 C1809 1.397 . S
C1808 C1813 1.363 . S
C1809 H1780 0.950 . S
C1809 C1808 1.397 . S
C1809 C1810 1.334 . S
C1810 H1781 0.950 . S
C1810 C1809 1.334 . S
C1810 C1811 1.287 . S
C1811 C1810 1.287 . S
C1811 C1812 1.524 . S
C1811 H1814 0.999 . S
C1812 H1782 0.950 . S
C1812 C1811 1.524 . S
C1812 C1813 1.415 . S
C1813 H1783 0.950 . S
C1813 C1808 1.363 . S
C1813 C1812 1.415 . S
H1814 C1811 0.999 . S
H1815 C1796 0.913 . S
H1816 C1834 0.951 . S
H1817 C1836 0.951 . S
H1818 C1838 0.950 . S
H1819 C1839 0.950 . S
H1820 C1841 0.950 . S
H1821 C1844 0.950 . S
H1822 C1845 0.950 . S
H1823 C1847 0.950 . S
H1824 C1848 0.950 . S
H1825 C1849 0.951 . S
H1826 C1851 0.951 . S
H1827 C1853 0.950 . S
H1828 C1854 0.950 . S
H1829 C1856 0.950 . S
H1830 C1859 0.950 . S
H1831 C1860 0.950 . S
H1832 C1862 0.950 . S
H1833 C1863 0.950 . S
C1834 H1816 0.951 . S
C1834 C1835 1.366 . S
C1834 C1836 1.388 . S
C1835 C1834 1.366 . S
C1835 C1839 1.385 . S
C1836 H1817 0.951 . S
C1836 C1834 1.388 . S
C1836 C1837 1.366 . S
C1837 C1836 1.366 . S
C1837 C1838 1.414 . S
C1837 C1840 1.499 . S
C1838 H1818 0.950 . S
C1838 C1837 1.414 . S
C1838 C1839 1.374 . S
C1839 H1819 0.950 . S
C1839 C1835 1.385 . S
C1839 C1838 1.374 . S
C1840 C1837 1.499 . S
C1840 C1841 1.373 . S
C1840 C1842 1.389 . S
C1841 H1820 0.950 . S
C1841 C1840 1.373 . S
C1841 C1857 1.377 . S
C1842 C1840 1.389 . S
C1842 C1843 1.524 . S
C1842 C1856 1.377 . S
C1843 C1842 1.524 . S
C1843 C1844 1.397 . S
C1843 C1848 1.363 . S
C1844 H1821 0.950 . S
C1844 C1843 1.397 . S
C1844 C1845 1.334 . S
C1845 H1822 0.950 . S
C1845 C1844 1.334 . S
C1845 C1846 1.287 . S
C1846 C1845 1.287 . S
C1846 C1847 1.524 . S
C1846 H1865 0.913 . S
C1847 H1823 0.950 . S
C1847 C1846 1.524 . S
C1847 C1848 1.415 . S
C1848 H1824 0.950 . S
C1848 C1843 1.363 . S
C1848 C1847 1.415 . S
C1849 H1825 0.951 . S
C1849 C1850 1.366 . S
C1849 C1851 1.388 . S
C1850 C1849 1.366 . S
C1850 C1854 1.385 . S
C1851 H1826 0.951 . S
C1851 C1849 1.388 . S
C1851 C1852 1.366 . S
C1852 C1851 1.366 . S
C1852 C1853 1.414 . S
C1852 C1855 1.499 . S
C1853 H1827 0.950 . S
C1853 C1852 1.414 . S
C1853 C1854 1.374 . S
C1854 H1828 0.950 . S
C1854 C1850 1.385 . S
C1854 C1853 1.374 . S
C1855 C1852 1.499 . S
C1855 C1856 1.373 . S
C1855 C1857 1.389 . S
C1856 H1829 0.950 . S
C1856 C1842 1.377 . S
C1856 C1855 1.373 . S
C1857 C1841 1.377 . S
C1857 C1855 1.389 . S
C1857 C1858 1.524 . S
C1858 C1857 1.524 . S
C1858 C1859 1.397 . S
C1858 C1863 1.363 . S
C1859 H1830 0.950 . S
C1859 C1858 1.397 . S
C1859 C1860 1.334 . S
C1860 H1831 0.950 . S
C1860 C1859 1.334 . S
C1860 C1861 1.287 . S
C1861 C1860 1.287 . S
C1861 C1862 1.524 . S
C1861 H1864 0.999 . S
C1862 H1832 0.950 . S
C1862 C1861 1.524 . S
C1862 C1863 1.415 . S
C1863 H1833 0.950 . S
C1863 C1858 1.363 . S
C1863 C1862 1.415 . S
H1864 C1861 0.999 . S
H1865 C1846 0.913 . S
H1866 C1884 0.951 . S
H1867 C1886 0.951 . S
H1868 C1888 0.950 . S
H1869 C1889 0.950 . S
H1870 C1891 0.950 . S
H1871 C1894 0.950 . S
H1872 C1895 0.950 . S
H1873 C1897 0.950 . S
H1874 C1898 0.950 . S
H1875 C1899 0.951 . S
H1876 C1901 0.951 . S
H1877 C1903 0.950 . S
H1878 C1904 0.950 . S
H1879 C1906 0.950 . S
H1880 C1909 0.950 . S
H1881 C1910 0.950 . S
H1882 C1912 0.950 . S
H1883 C1913 0.950 . S
C1884 H1866 0.951 . S
C1884 C1885 1.366 . S
C1884 C1886 1.388 . S
C1885 C1884 1.366 . S
C1885 C1889 1.385 . S
C1886 H1867 0.951 . S
C1886 C1884 1.388 . S
C1886 C1887 1.366 . S
C1887 C1886 1.366 . S
C1887 C1888 1.414 . S
C1887 C1890 1.499 . S
C1888 H1868 0.950 . S
C1888 C1887 1.414 . S
C1888 C1889 1.374 . S
C1889 H1869 0.950 . S
C1889 C1885 1.385 . S
C1889 C1888 1.374 . S
C1890 C1887 1.499 . S
C1890 C1891 1.373 . S
C1890 C1892 1.389 . S
C1891 H1870 0.950 . S
C1891 C1890 1.373 . S
C1891 C1907 1.377 . S
C1892 C1890 1.389 . S
C1892 C1893 1.524 . S
C1892 C1906 1.377 . S
C1893 C1892 1.524 . S
C1893 C1894 1.397 . S
C1893 C1898 1.363 . S
C1894 H1871 0.950 . S
C1894 C1893 1.397 . S
C1894 C1895 1.334 . S
C1895 H1872 0.950 . S
C1895 C1894 1.334 . S
C1895 C1896 1.287 . S
C1896 C1895 1.287 . S
C1896 C1897 1.524 . S
C1896 H1915 0.913 . S
C1897 H1873 0.950 . S
C1897 C1896 1.524 . S
C1897 C1898 1.415 . S
C1898 H1874 0.950 . S
C1898 C1893 1.363 . S
C1898 C1897 1.415 . S
C1899 H1875 0.951 . S
C1899 C1900 1.366 . S
C1899 C1901 1.388 . S
C1900 C1899 1.366 . S
C1900 C1904 1.385 . S
C1901 H1876 0.951 . S
C1901 C1899 1.388 . S
C1901 C1902 1.366 . S
C1902 C1901 1.366 . S
C1902 C1903 1.414 . S
C1902 C1905 1.499 1_556 S
C1903 H1877 0.950 . S
C1903 C1902 1.414 . S
C1903 C1904 1.374 . S
C1904 H1878 0.950 . S
C1904 C1900 1.385 . S
C1904 C1903 1.374 . S
C1905 C1902 1.499 1_554 S
C1905 C1906 1.373 . S
C1905 C1907 1.389 . S
C1906 H1879 0.950 . S
C1906 C1892 1.377 . S
C1906 C1905 1.373 . S
C1907 C1891 1.377 . S
C1907 C1905 1.389 . S
C1907 C1908 1.524 . S
C1908 C1907 1.524 . S
C1908 C1909 1.397 1_554 S
C1908 C1913 1.363 . S
C1909 H1880 0.950 . S
C1909 C1908 1.397 1_556 S
C1909 C1910 1.334 . S
C1910 H1881 0.950 . S
C1910 C1909 1.334 . S
C1910 C1911 1.287 . S
C1911 C1910 1.287 . S
C1911 C1912 1.524 . S
C1911 H1914 0.999 . S
C1912 H1882 0.950 . S
C1912 C1911 1.524 . S
C1912 C1913 1.415 1_556 S
C1913 H1883 0.950 . S
C1913 C1908 1.363 . S
C1913 C1912 1.415 1_554 S
H1914 C1911 0.999 . S
H1915 C1896 0.913 . S
H1916 C1934 0.951 . S
H1917 C1936 0.951 . S
H1918 C1938 0.950 . S
H1919 C1939 0.950 . S
H1920 C1941 0.950 . S
H1921 C1944 0.950 . S
H1922 C1945 0.950 . S
H1923 C1947 0.950 . S
H1924 C1948 0.950 . S
H1925 C1949 0.951 . S
H1926 C1951 0.951 . S
H1927 C1953 0.950 . S
H1928 C1954 0.950 . S
H1929 C1956 0.950 . S
H1930 C1959 0.950 . S
H1931 C1960 0.950 . S
H1932 C1962 0.950 . S
H1933 C1963 0.950 . S
C1934 H1916 0.951 . S
C1934 C1935 1.366 . S
C1934 C1936 1.388 . S
C1935 C1934 1.366 . S
C1935 C1939 1.385 . S
C1936 H1917 0.951 . S
C1936 C1934 1.388 . S
C1936 C1937 1.366 . S
C1937 C1936 1.366 . S
C1937 C1938 1.414 . S
C1937 C1940 1.499 . S
C1938 H1918 0.950 . S
C1938 C1937 1.414 . S
C1938 C1939 1.374 . S
C1939 H1919 0.950 . S
C1939 C1935 1.385 . S
C1939 C1938 1.374 . S
C1940 C1937 1.499 . S
C1940 C1941 1.373 . S
C1940 C1942 1.389 . S
C1941 H1920 0.950 . S
C1941 C1940 1.373 . S
C1941 C1957 1.377 . S
C1942 C1940 1.389 . S
C1942 C1943 1.524 . S
C1942 C1956 1.377 . S
C1943 C1942 1.524 . S
C1943 C1944 1.397 . S
C1943 C1948 1.363 . S
C1944 H1921 0.950 . S
C1944 C1943 1.397 . S
C1944 C1945 1.334 . S
C1945 H1922 0.950 . S
C1945 C1944 1.334 . S
C1945 C1946 1.287 . S
C1946 C1945 1.287 . S
C1946 C1947 1.524 . S
C1946 H1965 0.913 . S
C1947 H1923 0.950 . S
C1947 C1946 1.524 . S
C1947 C1948 1.415 . S
C1948 H1924 0.950 . S
C1948 C1943 1.363 . S
C1948 C1947 1.415 . S
C1949 H1925 0.951 . S
C1949 C1950 1.366 . S
C1949 C1951 1.388 . S
C1950 C1949 1.366 . S
C1950 C1954 1.385 . S
C1951 H1926 0.951 . S
C1951 C1949 1.388 . S
C1951 C1952 1.366 . S
C1952 C1951 1.366 . S
C1952 C1953 1.414 . S
C1952 C1955 1.499 . S
C1953 H1927 0.950 . S
C1953 C1952 1.414 . S
C1953 C1954 1.374 . S
C1954 H1928 0.950 . S
C1954 C1950 1.385 . S
C1954 C1953 1.374 . S
C1955 C1952 1.499 . S
C1955 C1956 1.373 . S
C1955 C1957 1.389 . S
C1956 H1929 0.950 . S
C1956 C1942 1.377 . S
C1956 C1955 1.373 . S
C1957 C1941 1.377 . S
C1957 C1955 1.389 . S
C1957 C1958 1.524 . S
C1958 C1957 1.524 . S
C1958 C1959 1.397 . S
C1958 C1963 1.363 . S
C1959 H1930 0.950 . S
C1959 C1958 1.397 . S
C1959 C1960 1.334 . S
C1960 H1931 0.950 . S
C1960 C1959 1.334 . S
C1960 C1961 1.287 . S
C1961 C1960 1.287 . S
C1961 C1962 1.524 . S
C1961 H1964 0.999 . S
C1962 H1932 0.950 . S
C1962 C1961 1.524 . S
C1962 C1963 1.415 . S
C1963 H1933 0.950 . S
C1963 C1958 1.363 . S
C1963 C1962 1.415 . S
H1964 C1961 0.999 . S
H1965 C1946 0.913 . S
H1966 C1984 0.951 . S
H1967 C1986 0.951 . S
H1968 C1988 0.950 1_455 S
H1969 C1989 0.997 . S
H1970 C1991 0.950 . S
H1971 C1994 0.950 . S
H1972 C1995 0.950 . S
H1973 C1997 0.950 . S
H1974 C1998 0.950 . S
H1975 C1999 0.951 . S
H1976 C2001 0.951 . S
H1977 C2003 0.950 1_655 S
H1978 C2004 0.950 . S
H1979 C2006 0.950 . S
H1980 C2009 0.950 . S
H1981 C2010 0.950 . S
H1982 C2012 0.950 . S
H1983 C2013 0.950 . S
C1984 H1966 0.951 . S
C1984 C1985 1.366 . S
C1984 C1986 1.388 . S
C1985 C1984 1.366 . S
C1985 C1989 1.385 . S
C1986 H1967 0.951 . S
C1986 C1984 1.388 . S
C1986 C1987 1.366 . S
C1987 C1986 1.366 . S
C1987 C1988 1.414 . S
C1987 C1990 1.499 . S
C1988 H1968 0.950 1_655 S
C1988 C1987 1.414 . S
C1988 C1989 1.374 . S
C1989 H1969 0.997 . S
C1989 C1985 1.385 . S
C1989 C1988 1.374 . S
C1990 C1987 1.499 . S
C1990 C1991 1.373 1_655 S
C1990 C1992 1.389 . S
C1991 H1970 0.950 . S
C1991 C1990 1.373 1_455 S
C1991 C2007 1.377 . S
C1992 C1990 1.389 . S
C1992 C1993 1.524 . S
C1992 C2006 1.377 . S
C1993 C1992 1.524 . S
C1993 C1994 1.397 . S
C1993 C1998 1.363 . S
C1994 H1971 0.950 . S
C1994 C1993 1.397 . S
C1994 C1995 1.334 . S
C1995 H1972 0.950 . S
C1995 C1994 1.334 . S
C1995 C1996 1.287 . S
C1996 C1995 1.287 . S
C1996 C1997 1.524 . S
C1996 H2015 0.913 . S
C1997 H1973 0.950 . S
C1997 C1996 1.524 . S
C1997 C1998 1.415 . S
C1998 H1974 0.950 . S
C1998 C1993 1.363 . S
C1998 C1997 1.415 . S
C1999 H1975 0.951 . S
C1999 C2000 1.366 . S
C1999 C2001 1.388 . S
C2000 C1999 1.366 . S
C2000 C2004 1.385 . S
C2001 H1976 0.951 . S
C2001 C1999 1.388 . S
C2001 C2002 1.366 . S
C2002 C2001 1.366 . S
C2002 C2003 1.414 . S
C2002 C2005 1.499 . S
C2003 H1977 0.950 1_455 S
C2003 C2002 1.414 . S
C2003 C2004 1.374 . S
C2004 H1978 0.950 . S
C2004 C2000 1.385 . S
C2004 C2003 1.374 . S
C2005 C2002 1.499 . S
C2005 C2006 1.373 1_455 S
C2005 C2007 1.389 . S
C2006 H1979 0.950 . S
C2006 C1992 1.377 . S
C2006 C2005 1.373 1_655 S
C2007 C1991 1.377 . S
C2007 C2005 1.389 . S
C2007 C2008 1.524 . S
C2008 C2007 1.524 . S
C2008 C2009 1.397 . S
C2008 C2013 1.363 . S
C2009 H1980 0.950 . S
C2009 C2008 1.397 . S
C2009 C2010 1.334 . S
C2010 H1981 0.950 . S
C2010 C2009 1.334 . S
C2010 C2011 1.287 . S
C2011 C2010 1.287 . S
C2011 C2012 1.524 . S
C2011 H2014 0.999 . S
C2012 H1982 0.950 . S
C2012 C2011 1.524 . S
C2012 C2013 1.415 . S
C2013 H1983 0.950 . S
C2013 C2008 1.363 . S
C2013 C2012 1.415 . S
H2014 C2011 0.999 . S
H2015 C1996 0.913 . S
H2016 C2034 0.951 . S
H2017 C2036 0.951 . S
H2018 C2038 0.950 . S
H2019 C2039 0.950 . S
H2020 C2041 0.950 . S
H2021 C2044 0.950 . S
H2022 C2045 0.950 . S
H2023 C2047 0.950 . S
H2024 C2048 0.950 . S
H2025 C2049 0.951 . S
H2026 C2051 0.951 . S
H2027 C2053 0.950 . S
H2028 C2054 0.950 . S
H2029 C2056 0.950 . S
H2030 C2059 0.950 . S
H2031 C2060 0.950 . S
H2032 C2062 0.950 . S
H2033 C2063 0.950 . S
C2034 H2016 0.951 . S
C2034 C2035 1.366 . S
C2034 C2036 1.388 . S
C2035 C2034 1.366 . S
C2035 C2039 1.385 . S
C2036 H2017 0.951 . S
C2036 C2034 1.388 . S
C2036 C2037 1.366 . S
C2037 C2036 1.366 . S
C2037 C2038 1.414 . S
C2037 C2040 1.499 . S
C2038 H2018 0.950 . S
C2038 C2037 1.414 . S
C2038 C2039 1.374 . S
C2039 H2019 0.950 . S
C2039 C2035 1.385 . S
C2039 C2038 1.374 . S
C2040 C2037 1.499 . S
C2040 C2041 1.373 . S
C2040 C2042 1.389 . S
C2041 H2020 0.950 . S
C2041 C2040 1.373 . S
C2041 C2057 1.377 . S
C2042 C2040 1.389 . S
C2042 C2043 1.524 . S
C2042 C2056 1.377 . S
C2043 C2042 1.524 . S
C2043 C2044 1.397 . S
C2043 C2048 1.363 . S
C2044 H2021 0.950 . S
C2044 C2043 1.397 . S
C2044 C2045 1.334 . S
C2045 H2022 0.950 . S
C2045 C2044 1.334 . S
C2045 C2046 1.287 . S
C2046 C2045 1.287 . S
C2046 C2047 1.524 . S
C2046 H2065 0.913 . S
C2047 H2023 0.950 . S
C2047 C2046 1.524 . S
C2047 C2048 1.415 . S
C2048 H2024 0.950 . S
C2048 C2043 1.363 . S
C2048 C2047 1.415 . S
C2049 H2025 0.951 . S
C2049 C2050 1.366 . S
C2049 C2051 1.388 . S
C2050 C2049 1.366 . S
C2050 C2054 1.385 . S
C2051 H2026 0.951 . S
C2051 C2049 1.388 . S
C2051 C2052 1.366 . S
C2052 C2051 1.366 . S
C2052 C2053 1.414 . S
C2052 C2055 1.499 . S
C2053 H2027 0.950 . S
C2053 C2052 1.414 . S
C2053 C2054 1.374 . S
C2054 H2028 0.950 . S
C2054 C2050 1.385 . S
C2054 C2053 1.374 . S
C2055 C2052 1.499 . S
C2055 C2056 1.373 . S
C2055 C2057 1.389 . S
C2056 H2029 0.950 . S
C2056 C2042 1.377 . S
C2056 C2055 1.373 . S
C2057 C2041 1.377 . S
C2057 C2055 1.389 . S
C2057 C2058 1.524 . S
C2058 C2057 1.524 . S
C2058 C2059 1.397 . S
C2058 C2063 1.363 . S
C2059 H2030 0.950 . S
C2059 C2058 1.397 . S
C2059 C2060 1.334 . S
C2060 H2031 0.950 . S
C2060 C2059 1.334 . S
C2060 C2061 1.287 . S
C2061 C2060 1.287 . S
C2061 C2062 1.524 . S
C2061 H2064 0.999 . S
C2062 H2032 0.950 . S
C2062 C2061 1.524 . S
C2062 C2063 1.415 . S
C2063 H2033 0.950 . S
C2063 C2058 1.363 . S
C2063 C2062 1.415 . S
H2064 C2061 0.999 . S
H2065 C2046 0.913 . S
H2066 C2084 0.951 . S
H2067 C2086 0.951 . S
H2068 C2088 0.950 . S
H2069 C2089 0.950 . S
H2070 C2091 0.950 . S
H2071 C2094 0.950 . S
H2072 C2095 0.950 . S
H2073 C2097 0.950 . S
H2074 C2098 0.950 . S
H2075 C2099 0.951 . S
H2076 C2101 0.951 . S
H2077 C2103 0.950 . S
H2078 C2104 0.950 . S
H2079 C2106 0.950 . S
H2080 C2109 0.950 . S
H2081 C2110 0.950 . S
H2082 C2112 0.950 . S
H2083 C2113 0.950 . S
C2084 H2066 0.951 . S
C2084 C2085 1.366 . S
C2084 C2086 1.388 . S
C2085 C2084 1.366 . S
C2085 C2089 1.385 . S
C2086 H2067 0.951 . S
C2086 C2084 1.388 . S
C2086 C2087 1.366 . S
C2087 C2086 1.366 . S
C2087 C2088 1.414 . S
C2087 C2090 1.499 . S
C2088 H2068 0.950 . S
C2088 C2087 1.414 . S
C2088 C2089 1.374 . S
C2089 H2069 0.950 . S
C2089 C2085 1.385 . S
C2089 C2088 1.374 . S
C2090 C2087 1.499 . S
C2090 C2091 1.373 . S
C2090 C2092 1.389 . S
C2091 H2070 0.950 . S
C2091 C2090 1.373 . S
C2091 C2107 1.377 . S
C2092 C2090 1.389 . S
C2092 C2093 1.524 . S
C2092 C2106 1.377 . S
C2093 C2092 1.524 . S
C2093 C2094 1.397 . S
C2093 C2098 1.363 . S
C2094 H2071 0.950 . S
C2094 C2093 1.397 . S
C2094 C2095 1.334 . S
C2095 H2072 0.950 . S
C2095 C2094 1.334 . S
C2095 C2096 1.287 . S
C2096 C2095 1.287 . S
C2096 C2097 1.524 . S
C2096 H2115 0.913 . S
C2097 H2073 0.950 . S
C2097 C2096 1.524 . S
C2097 C2098 1.415 . S
C2098 H2074 0.950 . S
C2098 C2093 1.363 . S
C2098 C2097 1.415 . S
C2099 H2075 0.951 . S
C2099 C2100 1.366 . S
C2099 C2101 1.388 . S
C2100 C2099 1.366 . S
C2100 C2104 1.385 . S
C2101 H2076 0.951 . S
C2101 C2099 1.388 . S
C2101 C2102 1.366 . S
C2102 C2101 1.366 . S
C2102 C2103 1.414 . S
C2102 C2105 1.499 . S
C2103 H2077 0.950 . S
C2103 C2102 1.414 . S
C2103 C2104 1.374 . S
C2104 H2078 0.950 . S
C2104 C2100 1.385 . S
C2104 C2103 1.374 . S
C2105 C2102 1.499 . S
C2105 C2106 1.373 . S
C2105 C2107 1.389 . S
C2106 H2079 0.950 . S
C2106 C2092 1.377 . S
C2106 C2105 1.373 . S
C2107 C2091 1.377 . S
C2107 C2105 1.389 . S
C2107 C2108 1.524 . S
C2108 C2107 1.524 . S
C2108 C2109 1.397 . S
C2108 C2113 1.363 . S
C2109 H2080 0.950 . S
C2109 C2108 1.397 . S
C2109 C2110 1.334 . S
C2110 H2081 0.950 . S
C2110 C2109 1.334 . S
C2110 C2111 1.287 . S
C2111 C2110 1.287 . S
C2111 C2112 1.524 . S
C2111 H2114 0.999 . S
C2112 H2082 0.950 . S
C2112 C2111 1.524 . S
C2112 C2113 1.415 . S
C2113 H2083 0.950 . S
C2113 C2108 1.363 . S
C2113 C2112 1.415 . S
H2114 C2111 0.999 . S
H2115 C2096 0.913 . S
H2116 C2134 0.951 . S
H2117 C2136 0.951 . S
H2118 C2138 0.950 . S
H2119 C2139 0.950 . S
H2120 C2141 0.950 . S
H2121 C2144 0.950 . S
H2122 C2145 0.950 . S
H2123 C2147 0.950 . S
H2124 C2148 0.950 . S
H2125 C2149 0.951 . S
H2126 C2151 0.951 . S
H2127 C2153 0.950 . S
H2128 C2154 0.950 . S
H2129 C2156 0.950 . S
H2130 C2159 0.950 . S
H2131 C2160 0.950 . S
H2132 C2162 0.950 . S
H2133 C2163 0.950 . S
C2134 H2116 0.951 . S
C2134 C2135 1.366 . S
C2134 C2136 1.388 . S
C2135 C2134 1.366 . S
C2135 C2139 1.385 . S
C2136 H2117 0.951 . S
C2136 C2134 1.388 . S
C2136 C2137 1.366 . S
C2137 C2136 1.366 . S
C2137 C2138 1.414 . S
C2137 C2140 1.499 . S
C2138 H2118 0.950 . S
C2138 C2137 1.414 . S
C2138 C2139 1.374 . S
C2139 H2119 0.950 . S
C2139 C2135 1.385 . S
C2139 C2138 1.374 . S
C2140 C2137 1.499 . S
C2140 C2141 1.373 . S
C2140 C2142 1.389 . S
C2141 H2120 0.950 . S
C2141 C2140 1.373 . S
C2141 C2157 1.377 . S
C2142 C2140 1.389 . S
C2142 C2143 1.524 . S
C2142 C2156 1.377 . S
C2143 C2142 1.524 . S
C2143 C2144 1.397 . S
C2143 C2148 1.363 . S
C2144 H2121 0.950 . S
C2144 C2143 1.397 . S
C2144 C2145 1.334 . S
C2145 H2122 0.950 . S
C2145 C2144 1.334 . S
C2145 C2146 1.287 . S
C2146 C2145 1.287 . S
C2146 C2147 1.524 . S
C2146 H2165 0.913 . S
C2147 H2123 0.950 . S
C2147 C2146 1.524 . S
C2147 C2148 1.415 . S
C2148 H2124 0.950 . S
C2148 C2143 1.363 . S
C2148 C2147 1.415 . S
C2149 H2125 0.951 . S
C2149 C2150 1.366 . S
C2149 C2151 1.388 . S
C2150 C2149 1.366 . S
C2150 C2154 1.385 . S
C2151 H2126 0.951 . S
C2151 C2149 1.388 . S
C2151 C2152 1.366 . S
C2152 C2151 1.366 . S
C2152 C2153 1.414 . S
C2152 C2155 1.499 . S
C2153 H2127 0.950 . S
C2153 C2152 1.414 . S
C2153 C2154 1.374 . S
C2154 H2128 0.950 . S
C2154 C2150 1.385 . S
C2154 C2153 1.374 . S
C2155 C2152 1.499 . S
C2155 C2156 1.373 . S
C2155 C2157 1.389 . S
C2156 H2129 0.950 . S
C2156 C2142 1.377 . S
C2156 C2155 1.373 . S
C2157 C2141 1.377 . S
C2157 C2155 1.389 . S
C2157 C2158 1.524 . S
C2158 C2157 1.524 . S
C2158 C2159 1.397 . S
C2158 C2163 1.363 . S
C2159 H2130 0.950 . S
C2159 C2158 1.397 . S
C2159 C2160 1.334 . S
C2160 H2131 0.950 . S
C2160 C2159 1.334 . S
C2160 C2161 1.287 . S
C2161 C2160 1.287 . S
C2161 C2162 1.524 . S
C2161 H2164 0.999 . S
C2162 H2132 0.950 . S
C2162 C2161 1.524 . S
C2162 C2163 1.415 . S
C2163 H2133 0.950 . S
C2163 C2158 1.363 . S
C2163 C2162 1.415 . S
H2164 C2161 0.999 . S
H2165 C2146 0.913 . S
H2166 C2184 0.951 1_655 S
H2167 C2186 1.034 . S
H2168 C2188 0.950 . S
H2169 C2189 0.950 . S
H2170 C2191 0.950 . S
H2171 C2194 0.950 1_455 S
H2172 C2195 0.950 . S
H2173 C2197 0.950 . S
H2174 C2198 0.950 . S
H2175 C2199 0.951 1_455 S
H2176 C2201 0.951 . S
H2177 C2203 0.950 . S
H2178 C2204 0.950 . S
H2179 C2206 0.950 . S
H2180 C2209 0.950 1_655 S
H2181 C2210 0.950 . S
H2182 C2212 0.950 . S
H2183 C2213 0.950 . S
C2184 H2166 0.951 1_455 S
C2184 C2185 1.366 . S
C2184 C2186 1.366 1_455 S
C2185 C2184 1.366 . S
C2185 C2189 1.385 . S
C2186 H2167 1.034 . S
C2186 C2184 1.366 1_655 S
C2186 C2187 1.309 1_655 S
C2187 C2186 1.309 1_455 S
C2187 C2188 1.414 . S
C2187 C2190 1.499 . S
C2188 H2168 0.950 . S
C2188 C2187 1.414 . S
C2188 C2189 1.374 . S
C2189 H2169 0.950 . S
C2189 C2185 1.385 . S
C2189 C2188 1.374 . S
C2190 C2187 1.499 . S
C2190 C2191 1.373 . S
C2190 C2192 1.389 1_455 S
C2191 H2170 0.950 . S
C2191 C2190 1.373 . S
C2191 C2207 1.377 . S
C2192 C2190 1.389 1_655 S
C2192 C2193 1.524 . S
C2192 C2206 1.377 . S
C2193 C2192 1.524 . S
C2193 C2194 1.397 . S
C2193 C2198 1.363 . S
C2194 H2171 0.950 1_655 S
C2194 C2193 1.397 . S
C2194 C2195 1.334 . S
C2195 H2172 0.950 . S
C2195 C2194 1.334 . S
C2195 C2196 1.287 . S
C2196 C2195 1.287 . S
C2196 C2197 1.524 . S
C2196 H2215 0.913 . S
C2197 H2173 0.950 . S
C2197 C2196 1.524 . S
C2197 C2198 1.415 . S
C2198 H2174 0.950 . S
C2198 C2193 1.363 . S
C2198 C2197 1.415 . S
C2199 H2175 0.951 1_655 S
C2199 C2200 1.366 . S
C2199 C2201 1.388 1_655 S
C2200 C2199 1.366 . S
C2200 C2204 1.385 . S
C2201 H2176 0.951 . S
C2201 C2199 1.388 1_455 S
C2201 C2202 1.366 1_455 S
C2202 C2201 1.366 1_655 S
C2202 C2203 1.414 . S
C2202 C2205 1.499 1_556 S
C2203 H2177 0.950 . S
C2203 C2202 1.414 . S
C2203 C2204 1.374 . S
C2204 H2178 0.950 . S
C2204 C2200 1.385 . S
C2204 C2203 1.374 . S
C2205 C2202 1.499 1_554 S
C2205 C2206 1.373 . S
C2205 C2207 1.389 1_655 S
C2206 H2179 0.950 . S
C2206 C2192 1.377 . S
C2206 C2205 1.373 . S
C2207 C2191 1.377 . S
C2207 C2205 1.389 1_455 S
C2207 C2208 1.524 . S
C2208 C2207 1.524 . S
C2208 C2209 1.398 . S
C2208 C2213 1.363 . S
C2209 H2180 0.950 1_455 S
C2209 C2208 1.398 . S
C2209 C2210 1.333 1_554 S
C2210 H2181 0.950 . S
C2210 C2209 1.333 1_556 S
C2210 C2211 1.287 . S
C2211 C2210 1.287 . S
C2211 C2212 1.524 . S
C2211 H2214 0.999 . S
C2212 H2182 0.950 . S
C2212 C2211 1.524 . S
C2212 C2213 1.415 1_556 S
C2213 H2183 0.950 . S
C2213 C2208 1.363 . S
C2213 C2212 1.415 1_554 S
H2214 C2211 0.999 . S
H2215 C2196 0.913 . S
H2216 C2234 0.951 . S
H2217 C2236 0.951 . S
H2218 C2238 0.950 . S
H2219 C2239 0.950 . S
H2220 C2241 0.950 . S
H2221 C2244 0.950 . S
H2222 C2245 0.950 . S
H2223 C2247 0.950 . S
H2224 C2248 0.950 . S
H2225 C2249 0.951 . S
H2226 C2251 0.951 . S
H2227 C2253 0.950 . S
H2228 C2254 0.950 . S
H2229 C2256 0.950 . S
H2230 C2259 0.950 . S
H2231 C2260 0.950 . S
H2232 C2262 0.950 . S
H2233 C2263 0.950 . S
C2234 H2216 0.951 . S
C2234 C2235 1.366 . S
C2234 C2236 1.388 . S
C2235 C2234 1.366 . S
C2235 C2239 1.385 . S
C2236 H2217 0.951 . S
C2236 C2234 1.388 . S
C2236 C2237 1.366 . S
C2237 C2236 1.366 . S
C2237 C2238 1.414 . S
C2237 C2240 1.499 . S
C2238 H2218 0.950 . S
C2238 C2237 1.414 . S
C2238 C2239 1.374 . S
C2239 H2219 0.950 . S
C2239 C2235 1.385 . S
C2239 C2238 1.374 . S
C2240 C2237 1.499 . S
C2240 C2241 1.373 . S
C2240 C2242 1.389 . S
C2241 H2220 0.950 . S
C2241 C2240 1.373 . S
C2241 C2257 1.377 . S
C2242 C2240 1.389 . S
C2242 C2243 1.524 . S
C2242 C2256 1.377 . S
C2243 C2242 1.524 . S
C2243 C2244 1.397 . S
C2243 C2248 1.363 . S
C2244 H2221 0.950 . S
C2244 C2243 1.397 . S
C2244 C2245 1.334 . S
C2245 H2222 0.950 . S
C2245 C2244 1.334 . S
C2245 C2246 1.287 . S
C2246 C2245 1.287 . S
C2246 C2247 1.524 . S
C2246 H2265 0.913 . S
C2247 H2223 0.950 . S
C2247 C2246 1.524 . S
C2247 C2248 1.415 . S
C2248 H2224 0.950 . S
C2248 C2243 1.363 . S
C2248 C2247 1.415 . S
C2249 H2225 0.951 . S
C2249 C2250 1.366 . S
C2249 C2251 1.388 . S
C2250 C2249 1.366 . S
C2250 C2254 1.385 . S
C2251 H2226 0.951 . S
C2251 C2249 1.388 . S
C2251 C2252 1.366 . S
C2252 C2251 1.366 . S
C2252 C2253 1.414 . S
C2252 C2255 1.499 . S
C2253 H2227 0.950 . S
C2253 C2252 1.414 . S
C2253 C2254 1.374 . S
C2254 H2228 0.950 . S
C2254 C2250 1.385 . S
C2254 C2253 1.374 . S
C2255 C2252 1.499 . S
C2255 C2256 1.373 . S
C2255 C2257 1.389 . S
C2256 H2229 0.950 . S
C2256 C2242 1.377 . S
C2256 C2255 1.373 . S
C2257 C2241 1.377 . S
C2257 C2255 1.389 . S
C2257 C2258 1.524 . S
C2258 C2257 1.524 . S
C2258 C2259 1.397 . S
C2258 C2263 1.363 . S
C2259 H2230 0.950 . S
C2259 C2258 1.397 . S
C2259 C2260 1.334 . S
C2260 H2231 0.950 . S
C2260 C2259 1.334 . S
C2260 C2261 1.287 . S
C2261 C2260 1.287 . S
C2261 C2262 1.524 . S
C2261 H2264 0.999 . S
C2262 H2232 0.950 . S
C2262 C2261 1.524 . S
C2262 C2263 1.415 . S
C2263 H2233 0.950 . S
C2263 C2258 1.363 . S
C2263 C2262 1.415 . S
H2264 C2261 0.999 . S
H2265 C2246 0.913 . S
H2266 C2284 0.951 1_455 S
H2267 C2286 1.021 . S
H2268 C2288 0.950 . S
H2269 C2289 0.950 . S
H2270 C2291 0.950 . S
H2271 C2294 0.950 . S
H2272 C2295 0.950 . S
H2273 C2297 0.950 . S
H2274 C2298 0.950 . S
H2275 C2299 0.951 1_655 S
H2276 C2301 1.001 . S
H2277 C2303 0.950 . S
H2278 C2304 0.950 . S
H2279 C2306 0.950 . S
H2280 C2309 0.950 . S
H2281 C2310 0.950 . S
H2282 C2312 0.950 . S
H2283 C2313 0.950 . S
C2284 H2266 0.951 1_655 S
C2284 C2285 1.366 . S
C2284 C2286 1.369 1_655 S
C2285 C2284 1.366 . S
C2285 C2289 1.385 . S
C2286 H2267 1.021 . S
C2286 C2284 1.369 1_455 S
C2286 C2287 1.318 1_455 S
C2287 C2286 1.318 1_655 S
C2287 C2288 1.414 . S
C2287 C2290 1.499 . S
C2288 H2268 0.950 . S
C2288 C2287 1.414 . S
C2288 C2289 1.374 . S
C2289 H2269 0.950 . S
C2289 C2285 1.385 . S
C2289 C2288 1.374 . S
C2290 C2287 1.499 . S
C2290 C2291 1.373 . S
C2290 C2292 1.389 1_655 S
C2291 H2270 0.950 . S
C2291 C2290 1.373 . S
C2291 C2307 1.377 . S
C2292 C2290 1.389 1_455 S
C2292 C2293 1.524 . S
C2292 C2306 1.377 . S
C2293 C2292 1.524 . S
C2293 C2294 1.397 1_455 S
C2293 C2298 1.363 . S
C2294 H2271 0.950 . S
C2294 C2293 1.397 1_655 S
C2294 C2295 1.334 . S
C2295 H2272 0.950 . S
C2295 C2294 1.334 . S
C2295 C2296 1.287 1_655 S
C2296 C2295 1.287 1_455 S
C2296 C2297 1.524 . S
C2296 H2315 0.913 . S
C2297 H2273 0.950 . S
C2297 C2296 1.524 . S
C2297 C2298 1.415 . S
C2298 H2274 0.950 . S
C2298 C2293 1.363 . S
C2298 C2297 1.415 . S
C2299 H2275 0.951 1_455 S
C2299 C2300 1.366 . S
C2299 C2301 1.374 1_455 S
C2300 C2299 1.366 . S
C2300 C2304 1.385 . S
C2301 H2276 1.001 . S
C2301 C2299 1.374 1_655 S
C2301 C2302 1.331 1_655 S
C2302 C2301 1.331 1_455 S
C2302 C2303 1.414 . S
C2302 C2305 1.499 . S
C2303 H2277 0.950 . S
C2303 C2302 1.414 . S
C2303 C2304 1.374 . S
C2304 H2278 0.950 . S
C2304 C2300 1.385 . S
C2304 C2303 1.374 . S
C2305 C2302 1.499 . S
C2305 C2306 1.373 . S
C2305 C2307 1.389 1_455 S
C2306 H2279 0.950 . S
C2306 C2292 1.377 . S
C2306 C2305 1.373 . S
C2307 C2291 1.377 . S
C2307 C2305 1.389 1_655 S
C2307 C2308 1.524 . S
C2308 C2307 1.524 . S
C2308 C2309 1.397 1_655 S
C2308 C2313 1.363 . S
C2309 H2280 0.950 . S
C2309 C2308 1.397 1_455 S
C2309 C2310 1.334 . S
C2310 H2281 0.950 . S
C2310 C2309 1.334 . S
C2310 C2311 1.287 1_455 S
C2311 C2310 1.287 1_655 S
C2311 C2312 1.524 . S
C2311 H2314 0.999 . S
C2312 H2282 0.950 . S
C2312 C2311 1.524 . S
C2312 C2313 1.415 . S
C2313 H2283 0.950 . S
C2313 C2308 1.363 . S
C2313 C2312 1.415 . S
H2314 C2311 0.999 . S
H2315 C2296 0.913 . S
H2316 C2334 0.951 . S
H2317 C2336 0.951 . S
H2318 C2338 0.950 . S
H2319 C2339 0.950 . S
H2320 C2341 0.950 . S
H2321 C2344 0.950 . S
H2322 C2345 0.950 . S
H2323 C2347 0.950 . S
H2324 C2348 0.950 . S
H2325 C2349 0.951 . S
H2326 C2351 0.951 . S
H2327 C2353 0.950 . S
H2328 C2354 0.950 . S
H2329 C2356 0.950 . S
H2330 C2359 0.950 . S
H2331 C2360 0.950 . S
H2332 C2362 0.950 . S
H2333 C2363 0.950 . S
C2334 H2316 0.951 . S
C2334 C2335 1.366 . S
C2334 C2336 1.388 . S
C2335 C2334 1.366 . S
C2335 C2339 1.385 . S
C2336 H2317 0.951 . S
C2336 C2334 1.388 . S
C2336 C2337 1.366 . S
C2337 C2336 1.366 . S
C2337 C2338 1.414 . S
C2337 C2340 1.499 . S
C2338 H2318 0.950 . S
C2338 C2337 1.414 . S
C2338 C2339 1.374 . S
C2339 H2319 0.950 . S
C2339 C2335 1.385 . S
C2339 C2338 1.374 . S
C2340 C2337 1.499 . S
C2340 C2341 1.373 . S
C2340 C2342 1.389 . S
C2341 H2320 0.950 . S
C2341 C2340 1.373 . S
C2341 C2357 1.377 . S
C2342 C2340 1.389 . S
C2342 C2343 1.524 . S
C2342 C2356 1.377 . S
C2343 C2342 1.524 . S
C2343 C2344 1.397 . S
C2343 C2348 1.363 . S
C2344 H2321 0.950 . S
C2344 C2343 1.397 . S
C2344 C2345 1.334 . S
C2345 H2322 0.950 . S
C2345 C2344 1.334 . S
C2345 C2346 1.287 . S
C2346 C2345 1.287 . S
C2346 C2347 1.524 . S
C2346 H2365 0.913 . S
C2347 H2323 0.950 . S
C2347 C2346 1.524 . S
C2347 C2348 1.415 . S
C2348 H2324 0.950 . S
C2348 C2343 1.363 . S
C2348 C2347 1.415 . S
C2349 H2325 0.951 . S
C2349 C2350 1.366 . S
C2349 C2351 1.388 . S
C2350 C2349 1.366 . S
C2350 C2354 1.385 . S
C2351 H2326 0.951 . S
C2351 C2349 1.388 . S
C2351 C2352 1.366 . S
C2352 C2351 1.366 . S
C2352 C2353 1.414 . S
C2352 C2355 1.499 . S
C2353 H2327 0.950 . S
C2353 C2352 1.414 . S
C2353 C2354 1.374 . S
C2354 H2328 0.950 . S
C2354 C2350 1.385 . S
C2354 C2353 1.374 . S
C2355 C2352 1.499 . S
C2355 C2356 1.373 . S
C2355 C2357 1.389 . S
C2356 H2329 0.950 . S
C2356 C2342 1.377 . S
C2356 C2355 1.373 . S
C2357 C2341 1.377 . S
C2357 C2355 1.389 . S
C2357 C2358 1.524 . S
C2358 C2357 1.524 . S
C2358 C2359 1.397 . S
C2358 C2363 1.363 . S
C2359 H2330 0.950 . S
C2359 C2358 1.397 . S
C2359 C2360 1.334 . S
C2360 H2331 0.950 . S
C2360 C2359 1.334 . S
C2360 C2361 1.287 . S
C2361 C2360 1.287 . S
C2361 C2362 1.524 . S
C2361 H2364 0.999 . S
C2362 H2332 0.950 . S
C2362 C2361 1.524 . S
C2362 C2363 1.415 . S
C2363 H2333 0.950 . S
C2363 C2358 1.363 . S
C2363 C2362 1.415 . S
H2364 C2361 0.999 . S
H2365 C2346 0.913 . S
H2366 C2384 0.951 . S
H2367 C2386 0.951 . S
H2368 C2388 0.950 . S
H2369 C2389 0.950 . S
H2370 C2391 0.950 . S
H2371 C2394 0.950 . S
H2372 C2395 0.950 . S
H2373 C2397 0.950 . S
H2374 C2398 0.950 . S
H2375 C2399 0.951 . S
H2376 C2401 0.951 . S
H2377 C2403 0.950 . S
H2378 C2404 0.950 . S
H2379 C2406 0.950 . S
H2380 C2409 0.950 . S
H2381 C2410 0.950 . S
H2382 C2412 0.950 . S
H2383 C2413 0.950 . S
C2384 H2366 0.951 . S
C2384 C2385 1.366 . S
C2384 C2386 1.388 . S
C2385 C2384 1.366 . S
C2385 C2389 1.385 . S
C2386 H2367 0.951 . S
C2386 C2384 1.388 . S
C2386 C2387 1.366 . S
C2387 C2386 1.366 . S
C2387 C2388 1.414 . S
C2387 C2390 1.499 1_554 S
C2388 H2368 0.950 . S
C2388 C2387 1.414 . S
C2388 C2389 1.374 . S
C2389 H2369 0.950 . S
C2389 C2385 1.385 . S
C2389 C2388 1.374 . S
C2390 C2387 1.499 1_556 S
C2390 C2391 1.373 . S
C2390 C2392 1.389 . S
C2391 H2370 0.950 . S
C2391 C2390 1.373 . S
C2391 C2407 1.377 . S
C2392 C2390 1.389 . S
C2392 C2393 1.524 . S
C2392 C2406 1.377 . S
C2393 C2392 1.524 . S
C2393 C2394 1.397 . S
C2393 C2398 1.363 . S
C2394 H2371 0.950 . S
C2394 C2393 1.397 . S
C2394 C2395 1.334 . S
C2395 H2372 0.950 . S
C2395 C2394 1.334 . S
C2395 C2396 1.287 . S
C2396 C2395 1.287 . S
C2396 C2397 1.524 . S
C2396 H2415 0.913 . S
C2397 H2373 0.950 . S
C2397 C2396 1.524 . S
C2397 C2398 1.415 . S
C2398 H2374 0.950 . S
C2398 C2393 1.363 . S
C2398 C2397 1.415 . S
C2399 H2375 0.951 . S
C2399 C2400 1.366 . S
C2399 C2401 1.388 . S
C2400 C2399 1.366 . S
C2400 C2404 1.385 . S
C2401 H2376 0.951 . S
C2401 C2399 1.388 . S
C2401 C2402 1.366 . S
C2402 C2401 1.366 . S
C2402 C2403 1.414 . S
C2402 C2405 1.499 . S
C2403 H2377 0.950 . S
C2403 C2402 1.414 . S
C2403 C2404 1.374 . S
C2404 H2378 0.950 . S
C2404 C2400 1.385 . S
C2404 C2403 1.374 . S
C2405 C2402 1.499 . S
C2405 C2406 1.373 . S
C2405 C2407 1.389 . S
C2406 H2379 0.950 . S
C2406 C2392 1.377 . S
C2406 C2405 1.373 . S
C2407 C2391 1.377 . S
C2407 C2405 1.389 . S
C2407 C2408 1.524 . S
C2408 C2407 1.524 . S
C2408 C2409 1.397 . S
C2408 C2413 1.363 . S
C2409 H2380 0.950 . S
C2409 C2408 1.397 . S
C2409 C2410 1.334 . S
C2410 H2381 0.950 . S
C2410 C2409 1.334 . S
C2410 C2411 1.287 . S
C2411 C2410 1.287 . S
C2411 C2412 1.524 . S
C2411 H2414 0.999 . S
C2412 H2382 0.950 . S
C2412 C2411 1.524 . S
C2412 C2413 1.415 . S
C2413 H2383 0.950 . S
C2413 C2408 1.363 . S
C2413 C2412 1.415 . S
H2414 C2411 0.999 . S
H2415 C2396 0.913 . S
H2416 C2434 0.951 . S
H2417 C2436 0.951 . S
H2418 C2438 0.950 . S
H2419 C2439 0.950 . S
H2420 C2441 0.950 . S
H2421 C2444 0.950 . S
H2422 C2445 0.950 . S
H2423 C2447 0.950 . S
H2424 C2448 0.950 . S
H2425 C2449 0.951 . S
H2426 C2451 0.951 . S
H2427 C2453 0.950 . S
H2428 C2454 0.950 . S
H2429 C2456 0.950 . S
H2430 C2459 0.950 . S
H2431 C2460 0.950 . S
H2432 C2462 0.950 . S
H2433 C2463 0.950 . S
C2434 H2416 0.951 . S
C2434 C2435 1.366 . S
C2434 C2436 1.388 . S
C2435 C2434 1.366 . S
C2435 C2439 1.385 . S
C2436 H2417 0.951 . S
C2436 C2434 1.388 . S
C2436 C2437 1.366 . S
C2437 C2436 1.366 . S
C2437 C2438 1.414 . S
C2437 C2440 1.499 . S
C2438 H2418 0.950 . S
C2438 C2437 1.414 . S
C2438 C2439 1.374 . S
C2439 H2419 0.950 . S
C2439 C2435 1.385 . S
C2439 C2438 1.374 . S
C2440 C2437 1.499 . S
C2440 C2441 1.373 . S
C2440 C2442 1.389 . S
C2441 H2420 0.950 . S
C2441 C2440 1.373 . S
C2441 C2457 1.377 . S
C2442 C2440 1.389 . S
C2442 C2443 1.524 . S
C2442 C2456 1.377 . S
C2443 C2442 1.524 . S
C2443 C2444 1.397 . S
C2443 C2448 1.363 . S
C2444 H2421 0.950 . S
C2444 C2443 1.397 . S
C2444 C2445 1.334 . S
C2445 H2422 0.950 . S
C2445 C2444 1.334 . S
C2445 C2446 1.287 . S
C2446 C2445 1.287 . S
C2446 C2447 1.524 . S
C2446 H2465 0.913 . S
C2447 H2423 0.950 . S
C2447 C2446 1.524 . S
C2447 C2448 1.415 . S
C2448 H2424 0.950 . S
C2448 C2443 1.363 . S
C2448 C2447 1.415 . S
C2449 H2425 0.951 . S
C2449 C2450 1.366 . S
C2449 C2451 1.388 . S
C2450 C2449 1.366 . S
C2450 C2454 1.385 . S
C2451 H2426 0.951 . S
C2451 C2449 1.388 . S
C2451 C2452 1.366 . S
C2452 C2451 1.366 . S
C2452 C2453 1.414 . S
C2452 C2455 1.499 . S
C2453 H2427 0.950 . S
C2453 C2452 1.414 . S
C2453 C2454 1.374 . S
C2454 H2428 0.950 . S
C2454 C2450 1.385 . S
C2454 C2453 1.374 . S
C2455 C2452 1.499 . S
C2455 C2456 1.373 . S
C2455 C2457 1.389 . S
C2456 H2429 0.950 . S
C2456 C2442 1.377 . S
C2456 C2455 1.373 . S
C2457 C2441 1.377 . S
C2457 C2455 1.389 . S
C2457 C2458 1.524 . S
C2458 C2457 1.524 . S
C2458 C2459 1.397 . S
C2458 C2463 1.363 . S
C2459 H2430 0.950 . S
C2459 C2458 1.397 . S
C2459 C2460 1.334 . S
C2460 H2431 0.950 . S
C2460 C2459 1.334 . S
C2460 C2461 1.287 . S
C2461 C2460 1.287 . S
C2461 C2462 1.524 . S
C2461 H2464 0.999 . S
C2462 H2432 0.950 . S
C2462 C2461 1.524 . S
C2462 C2463 1.415 . S
C2463 H2433 0.950 . S
C2463 C2458 1.363 . S
C2463 C2462 1.415 . S
H2464 C2461 0.999 . S
H2465 C2446 0.913 . S
H2466 C2484 0.951 . S
H2467 C2486 0.951 . S
H2468 C2488 0.950 . S
H2469 C2489 0.950 . S
H2470 C2491 0.950 . S
H2471 C2494 0.950 . S
H2472 C2495 0.950 . S
H2473 C2497 0.950 . S
H2474 C2498 0.950 . S
H2475 C2499 0.951 . S
H2476 C2501 0.951 . S
H2477 C2503 0.950 . S
H2478 C2504 0.950 . S
H2479 C2506 0.950 . S
H2480 C2509 0.950 . S
H2481 C2510 0.950 . S
H2482 C2512 0.950 . S
H2483 C2513 0.950 . S
C2484 H2466 0.951 . S
C2484 C2485 1.366 . S
C2484 C2486 1.388 . S
C2485 C2484 1.366 . S
C2485 C2489 1.385 . S
C2486 H2467 0.951 . S
C2486 C2484 1.388 . S
C2486 C2487 1.366 . S
C2487 C2486 1.366 . S
C2487 C2488 1.414 . S
C2487 C2490 1.499 . S
C2488 H2468 0.950 . S
C2488 C2487 1.414 . S
C2488 C2489 1.374 . S
C2489 H2469 0.950 . S
C2489 C2485 1.385 . S
C2489 C2488 1.374 . S
C2490 C2487 1.499 . S
C2490 C2491 1.373 . S
C2490 C2492 1.389 . S
C2491 H2470 0.950 . S
C2491 C2490 1.373 . S
C2491 C2507 1.377 . S
C2492 C2490 1.389 . S
C2492 C2493 1.524 . S
C2492 C2506 1.377 . S
C2493 C2492 1.524 . S
C2493 C2494 1.397 . S
C2493 C2498 1.363 . S
C2494 H2471 0.950 . S
C2494 C2493 1.397 . S
C2494 C2495 1.334 . S
C2495 H2472 0.950 . S
C2495 C2494 1.334 . S
C2495 C2496 1.287 . S
C2496 C2495 1.287 . S
C2496 C2497 1.524 . S
C2496 H2515 0.913 . S
C2497 H2473 0.950 . S
C2497 C2496 1.524 . S
C2497 C2498 1.415 . S
C2498 H2474 0.950 . S
C2498 C2493 1.363 . S
C2498 C2497 1.415 . S
C2499 H2475 0.951 . S
C2499 C2500 1.366 . S
C2499 C2501 1.388 . S
C2500 C2499 1.366 . S
C2500 C2504 1.385 . S
C2501 H2476 0.951 . S
C2501 C2499 1.388 . S
C2501 C2502 1.366 . S
C2502 C2501 1.366 . S
C2502 C2503 1.414 . S
C2502 C2505 1.499 . S
C2503 H2477 0.950 . S
C2503 C2502 1.414 . S
C2503 C2504 1.374 . S
C2504 H2478 0.950 . S
C2504 C2500 1.385 . S
C2504 C2503 1.374 . S
C2505 C2502 1.499 . S
C2505 C2506 1.373 . S
C2505 C2507 1.389 . S
C2506 H2479 0.950 . S
C2506 C2492 1.377 . S
C2506 C2505 1.373 . S
C2507 C2491 1.377 . S
C2507 C2505 1.389 . S
C2507 C2508 1.524 . S
C2508 C2507 1.524 . S
C2508 C2509 1.397 . S
C2508 C2513 1.363 . S
C2509 H2480 0.950 . S
C2509 C2508 1.397 . S
C2509 C2510 1.334 . S
C2510 H2481 0.950 . S
C2510 C2509 1.334 . S
C2510 C2511 1.287 . S
C2511 C2510 1.287 . S
C2511 C2512 1.524 . S
C2511 H2514 0.999 . S
C2512 H2482 0.950 . S
C2512 C2511 1.524 . S
C2512 C2513 1.415 . S
C2513 H2483 0.950 . S
C2513 C2508 1.363 . S
C2513 C2512 1.415 . S
H2514 C2511 0.999 . S
H2515 C2496 0.913 . S
H2516 C2534 0.951 . S
H2517 C2536 0.951 . S
H2518 C2538 0.950 . S
H2519 C2539 0.950 . S
H2520 C2541 0.950 . S
H2521 C2544 0.950 . S
H2522 C2545 0.950 . S
H2523 C2547 0.950 . S
H2524 C2548 0.950 . S
H2525 C2549 0.951 . S
H2526 C2551 0.951 . S
H2527 C2553 0.950 . S
H2528 C2554 0.950 . S
H2529 C2556 0.950 . S
H2530 C2559 0.950 . S
H2531 C2560 0.950 . S
H2532 C2562 0.950 . S
H2533 C2563 0.950 . S
C2534 H2516 0.951 . S
C2534 C2535 1.366 . S
C2534 C2536 1.388 . S
C2535 C2534 1.366 . S
C2535 C2539 1.385 . S
C2536 H2517 0.951 . S
C2536 C2534 1.388 . S
C2536 C2537 1.366 . S
C2537 C2536 1.366 . S
C2537 C2538 1.414 . S
C2537 C2540 1.499 . S
C2538 H2518 0.950 . S
C2538 C2537 1.414 . S
C2538 C2539 1.374 . S
C2539 H2519 0.950 . S
C2539 C2535 1.385 . S
C2539 C2538 1.374 . S
C2540 C2537 1.499 . S
C2540 C2541 1.373 . S
C2540 C2542 1.389 . S
C2541 H2520 0.950 . S
C2541 C2540 1.373 . S
C2541 C2557 1.377 . S
C2542 C2540 1.389 . S
C2542 C2543 1.524 . S
C2542 C2556 1.377 . S
C2543 C2542 1.524 . S
C2543 C2544 1.397 . S
C2543 C2548 1.363 . S
C2544 H2521 0.950 . S
C2544 C2543 1.397 . S
C2544 C2545 1.334 . S
C2545 H2522 0.950 . S
C2545 C2544 1.334 . S
C2545 C2546 1.287 . S
C2546 C2545 1.287 . S
C2546 C2547 1.524 . S
C2546 H2565 0.913 . S
C2547 H2523 0.950 . S
C2547 C2546 1.524 . S
C2547 C2548 1.415 . S
C2548 H2524 0.950 . S
C2548 C2543 1.363 . S
C2548 C2547 1.415 . S
C2549 H2525 0.951 . S
C2549 C2550 1.366 . S
C2549 C2551 1.388 . S
C2550 C2549 1.366 . S
C2550 C2554 1.385 . S
C2551 H2526 0.951 . S
C2551 C2549 1.388 . S
C2551 C2552 1.366 . S
C2552 C2551 1.366 . S
C2552 C2553 1.414 . S
C2552 C2555 1.499 . S
C2553 H2527 0.950 . S
C2553 C2552 1.414 . S
C2553 C2554 1.374 . S
C2554 H2528 0.950 . S
C2554 C2550 1.385 . S
C2554 C2553 1.374 . S
C2555 C2552 1.499 . S
C2555 C2556 1.373 . S
C2555 C2557 1.389 . S
C2556 H2529 0.950 . S
C2556 C2542 1.377 . S
C2556 C2555 1.373 . S
C2557 C2541 1.377 . S
C2557 C2555 1.389 . S
C2557 C2558 1.524 . S
C2558 C2557 1.524 . S
C2558 C2559 1.397 . S
C2558 C2563 1.363 . S
C2559 H2530 0.950 . S
C2559 C2558 1.397 . S
C2559 C2560 1.334 . S
C2560 H2531 0.950 . S
C2560 C2559 1.334 . S
C2560 C2561 1.287 . S
C2561 C2560 1.287 . S
C2561 C2562 1.524 . S
C2561 H2564 0.999 . S
C2562 H2532 0.950 . S
C2562 C2561 1.524 . S
C2562 C2563 1.415 . S
C2563 H2533 0.950 . S
C2563 C2558 1.363 . S
C2563 C2562 1.415 . S
H2564 C2561 0.999 . S
H2565 C2546 0.913 . S
H2566 C2584 0.951 . S
H2567 C2586 0.951 . S
H2568 C2588 0.950 . S
H2569 C2589 0.950 . S
H2570 C2591 0.950 . S
H2571 C2594 0.950 . S
H2572 C2595 0.950 . S
H2573 C2597 0.950 . S
H2574 C2598 0.950 . S
H2575 C2599 0.951 . S
H2576 C2601 0.951 . S
H2577 C2603 0.950 . S
H2578 C2604 0.950 . S
H2579 C2606 0.950 . S
H2580 C2609 0.950 . S
H2581 C2610 0.950 . S
H2582 C2612 0.950 . S
H2583 C2613 0.950 . S
C2584 H2566 0.951 . S
C2584 C2585 1.366 . S
C2584 C2586 1.388 . S
C2585 C2584 1.366 . S
C2585 C2589 1.385 . S
C2586 H2567 0.951 . S
C2586 C2584 1.388 . S
C2586 C2587 1.366 . S
C2587 C2586 1.366 . S
C2587 C2588 1.414 . S
C2587 C2590 1.499 . S
C2588 H2568 0.950 . S
C2588 C2587 1.414 . S
C2588 C2589 1.374 . S
C2589 H2569 0.950 . S
C2589 C2585 1.385 . S
C2589 C2588 1.374 . S
C2590 C2587 1.499 . S
C2590 C2591 1.373 1_655 S
C2590 C2592 1.389 . S
C2591 H2570 0.950 . S
C2591 C2590 1.373 1_455 S
C2591 C2607 1.377 . S
C2592 C2590 1.389 . S
C2592 C2593 1.524 . S
C2592 C2606 1.377 . S
C2593 C2592 1.524 . S
C2593 C2594 1.397 . S
C2593 C2598 1.363 . S
C2594 H2571 0.950 . S
C2594 C2593 1.397 . S
C2594 C2595 1.334 . S
C2595 H2572 0.950 . S
C2595 C2594 1.334 . S
C2595 C2596 1.287 . S
C2596 C2595 1.287 . S
C2596 C2597 1.524 . S
C2596 H2615 0.913 . S
C2597 H2573 0.950 . S
C2597 C2596 1.524 . S
C2597 C2598 1.415 . S
C2598 H2574 0.950 . S
C2598 C2593 1.363 . S
C2598 C2597 1.415 . S
C2599 H2575 0.951 . S
C2599 C2600 1.366 . S
C2599 C2601 1.388 . S
C2600 C2599 1.366 . S
C2600 C2604 1.385 . S
C2601 H2576 0.951 . S
C2601 C2599 1.388 . S
C2601 C2602 1.366 . S
C2602 C2601 1.366 . S
C2602 C2603 1.414 . S
C2602 C2605 1.499 1_554 S
C2603 H2577 0.950 . S
C2603 C2602 1.414 . S
C2603 C2604 1.374 . S
C2604 H2578 0.950 . S
C2604 C2600 1.385 . S
C2604 C2603 1.374 . S
C2605 C2602 1.499 1_556 S
C2605 C2606 1.373 1_455 S
C2605 C2607 1.389 . S
C2606 H2579 0.950 . S
C2606 C2592 1.377 . S
C2606 C2605 1.373 1_655 S
C2607 C2591 1.377 . S
C2607 C2605 1.389 . S
C2607 C2608 1.524 . S
C2608 C2607 1.524 . S
C2608 C2609 1.397 . S
C2608 C2613 1.363 . S
C2609 H2580 0.950 . S
C2609 C2608 1.397 . S
C2609 C2610 1.334 . S
C2610 H2581 0.950 . S
C2610 C2609 1.334 . S
C2610 C2611 1.287 . S
C2611 C2610 1.287 . S
C2611 C2612 1.524 . S
C2611 H2614 0.999 . S
C2612 H2582 0.950 . S
C2612 C2611 1.524 . S
C2612 C2613 1.415 . S
C2613 H2583 0.950 . S
C2613 C2608 1.363 . S
C2613 C2612 1.415 . S
H2614 C2611 0.999 . S
H2615 C2596 0.913 . S
H2616 C2634 0.951 . S
H2617 C2636 0.951 . S
H2618 C2638 0.950 . S
H2619 C2639 0.950 . S
H2620 C2641 0.950 . S
H2621 C2644 0.950 . S
H2622 C2645 0.950 . S
H2623 C2647 0.950 . S
H2624 C2648 0.950 . S
H2625 C2649 0.951 . S
H2626 C2651 0.951 . S
H2627 C2653 0.950 . S
H2628 C2654 0.950 . S
H2629 C2656 0.950 . S
H2630 C2659 0.950 . S
H2631 C2660 0.950 . S
H2632 C2662 0.950 . S
H2633 C2663 0.950 . S
C2634 H2616 0.951 . S
C2634 C2635 1.366 . S
C2634 C2636 1.388 . S
C2635 C2634 1.366 . S
C2635 C2639 1.385 . S
C2636 H2617 0.951 . S
C2636 C2634 1.388 . S
C2636 C2637 1.366 . S
C2637 C2636 1.366 . S
C2637 C2638 1.414 . S
C2637 C2640 1.499 . S
C2638 H2618 0.950 . S
C2638 C2637 1.414 . S
C2638 C2639 1.374 . S
C2639 H2619 0.950 . S
C2639 C2635 1.385 . S
C2639 C2638 1.374 . S
C2640 C2637 1.499 . S
C2640 C2641 1.373 . S
C2640 C2642 1.389 . S
C2641 H2620 0.950 . S
C2641 C2640 1.373 . S
C2641 C2657 1.377 . S
C2642 C2640 1.389 . S
C2642 C2643 1.524 . S
C2642 C2656 1.377 . S
C2643 C2642 1.524 . S
C2643 C2644 1.397 . S
C2643 C2648 1.363 . S
C2644 H2621 0.950 . S
C2644 C2643 1.397 . S
C2644 C2645 1.334 . S
C2645 H2622 0.950 . S
C2645 C2644 1.334 . S
C2645 C2646 1.287 . S
C2646 C2645 1.287 . S
C2646 C2647 1.524 . S
C2646 H2665 0.913 . S
C2647 H2623 0.950 . S
C2647 C2646 1.524 . S
C2647 C2648 1.415 . S
C2648 H2624 0.950 . S
C2648 C2643 1.363 . S
C2648 C2647 1.415 . S
C2649 H2625 0.951 . S
C2649 C2650 1.366 . S
C2649 C2651 1.388 . S
C2650 C2649 1.366 . S
C2650 C2654 1.385 . S
C2651 H2626 0.951 . S
C2651 C2649 1.388 . S
C2651 C2652 1.366 . S
C2652 C2651 1.366 . S
C2652 C2653 1.414 . S
C2652 C2655 1.499 . S
C2653 H2627 0.950 . S
C2653 C2652 1.414 . S
C2653 C2654 1.374 . S
C2654 H2628 0.950 . S
C2654 C2650 1.385 . S
C2654 C2653 1.374 . S
C2655 C2652 1.499 . S
C2655 C2656 1.373 . S
C2655 C2657 1.389 . S
C2656 H2629 0.950 . S
C2656 C2642 1.377 . S
C2656 C2655 1.373 . S
C2657 C2641 1.377 . S
C2657 C2655 1.389 . S
C2657 C2658 1.524 . S
C2658 C2657 1.524 . S
C2658 C2659 1.397 . S
C2658 C2663 1.363 . S
C2659 H2630 0.950 . S
C2659 C2658 1.397 . S
C2659 C2660 1.334 . S
C2660 H2631 0.950 . S
C2660 C2659 1.334 . S
C2660 C2661 1.287 . S
C2661 C2660 1.287 . S
C2661 C2662 1.524 . S
C2661 H2664 0.999 . S
C2662 H2632 0.950 . S
C2662 C2661 1.524 . S
C2662 C2663 1.415 . S
C2663 H2633 0.950 . S
C2663 C2658 1.363 . S
C2663 C2662 1.415 . S
H2664 C2661 0.999 . S
H2665 C2646 0.913 . S
H2666 C2684 0.951 1_455 S
H2667 C2686 0.955 1_455 S
H2668 C2688 0.950 . S
H2669 C2689 0.950 . S
H2670 C2691 0.950 . S
H2671 C2694 0.950 . S
H2672 C2695 0.950 . S
H2673 C2697 0.950 . S
H2674 C2698 0.950 . S
H2675 C2699 0.951 1_655 S
H2676 C2701 0.956 . S
H2677 C2703 0.950 . S
H2678 C2704 0.950 . S
H2679 C2706 0.950 . S
H2680 C2709 0.950 . S
H2681 C2710 0.950 . S
H2682 C2712 0.950 . S
H2683 C2713 0.950 . S
C2684 H2666 0.951 1_655 S
C2684 C2685 1.366 . S
C2684 C2686 1.386 . S
C2685 C2684 1.366 . S
C2685 C2689 1.385 . S
C2686 H2667 0.955 1_655 S
C2686 C2684 1.386 . S
C2686 C2687 1.363 . S
C2687 C2686 1.363 . S
C2687 C2688 1.414 . S
C2687 C2690 1.499 . S
C2688 H2668 0.950 . S
C2688 C2687 1.414 . S
C2688 C2689 1.374 . S
C2689 H2669 0.950 . S
C2689 C2685 1.385 . S
C2689 C2688 1.374 . S
C2690 C2687 1.499 . S
C2690 C2691 1.373 . S
C2690 C2692 1.389 1_655 S
C2691 H2670 0.950 . S
C2691 C2690 1.373 . S
C2691 C2707 1.377 . S
C2692 C2690 1.389 1_455 S
C2692 C2693 1.524 . S
C2692 C2706 1.377 . S
C2693 C2692 1.524 . S
C2693 C2694 1.397 1_455 S
C2693 C2698 1.363 . S
C2694 H2671 0.950 . S
C2694 C2693 1.397 1_655 S
C2694 C2695 1.334 . S
C2695 H2672 0.950 . S
C2695 C2694 1.334 . S
C2695 C2696 1.287 1_655 S
C2696 C2695 1.287 1_455 S
C2696 C2697 1.524 . S
C2696 H2715 0.913 . S
C2697 H2673 0.950 . S
C2697 C2696 1.524 . S
C2697 C2698 1.415 . S
C2698 H2674 0.950 . S
C2698 C2693 1.363 . S
C2698 C2697 1.415 . S
C2699 H2675 0.951 1_455 S
C2699 C2700 1.366 . S
C2699 C2701 1.386 1_455 S
C2700 C2699 1.366 . S
C2700 C2704 1.385 . S
C2701 H2676 0.956 . S
C2701 C2699 1.386 1_655 S
C2701 C2702 1.362 1_655 S
C2702 C2701 1.362 1_455 S
C2702 C2703 1.414 . S
C2702 C2705 1.499 . S
C2703 H2677 0.950 . S
C2703 C2702 1.414 . S
C2703 C2704 1.374 . S
C2704 H2678 0.950 . S
C2704 C2700 1.385 . S
C2704 C2703 1.374 . S
C2705 C2702 1.499 . S
C2705 C2706 1.373 . S
C2705 C2707 1.389 1_455 S
C2706 H2679 0.950 . S
C2706 C2692 1.377 . S
C2706 C2705 1.373 . S
C2707 C2691 1.377 . S
C2707 C2705 1.389 1_655 S
C2707 C2708 1.524 . S
C2708 C2707 1.524 . S
C2708 C2709 1.397 1_655 S
C2708 C2713 1.363 . S
C2709 H2680 0.950 . S
C2709 C2708 1.397 1_455 S
C2709 C2710 1.334 . S
C2710 H2681 0.950 . S
C2710 C2709 1.334 . S
C2710 C2711 1.287 1_455 S
C2711 C2710 1.287 1_655 S
C2711 C2712 1.524 . S
C2711 H2714 0.999 . S
C2712 H2682 0.950 . S
C2712 C2711 1.524 . S
C2712 C2713 1.415 . S
C2713 H2683 0.950 . S
C2713 C2708 1.363 . S
C2713 C2712 1.415 . S
H2714 C2711 0.999 . S
H2715 C2696 0.913 . S
H2716 C2734 0.951 . S
H2717 C2736 0.951 . S
H2718 C2738 0.950 . S
H2719 C2739 0.950 . S
H2720 C2741 0.950 . S
H2721 C2744 0.950 . S
H2722 C2745 0.950 . S
H2723 C2747 0.950 . S
H2724 C2748 0.950 . S
H2725 C2749 0.951 . S
H2726 C2751 0.951 . S
H2727 C2753 0.950 . S
H2728 C2754 0.950 . S
H2729 C2756 0.950 . S
H2730 C2759 0.950 . S
H2731 C2760 0.950 . S
H2732 C2762 0.950 . S
H2733 C2763 0.950 . S
C2734 H2716 0.951 . S
C2734 C2735 1.366 . S
C2734 C2736 1.388 . S
C2735 C2734 1.366 . S
C2735 C2739 1.385 . S
C2736 H2717 0.951 . S
C2736 C2734 1.388 . S
C2736 C2737 1.366 . S
C2737 C2736 1.366 . S
C2737 C2738 1.414 . S
C2737 C2740 1.499 . S
C2738 H2718 0.950 . S
C2738 C2737 1.414 . S
C2738 C2739 1.374 . S
C2739 H2719 0.950 . S
C2739 C2735 1.385 . S
C2739 C2738 1.374 . S
C2740 C2737 1.499 . S
C2740 C2741 1.373 . S
C2740 C2742 1.389 . S
C2741 H2720 0.950 . S
C2741 C2740 1.373 . S
C2741 C2757 1.377 . S
C2742 C2740 1.389 . S
C2742 C2743 1.524 . S
C2742 C2756 1.377 . S
C2743 C2742 1.524 . S
C2743 C2744 1.397 . S
C2743 C2748 1.363 . S
C2744 H2721 0.950 . S
C2744 C2743 1.397 . S
C2744 C2745 1.334 . S
C2745 H2722 0.950 . S
C2745 C2744 1.334 . S
C2745 C2746 1.287 . S
C2746 C2745 1.287 . S
C2746 C2747 1.524 . S
C2746 H2765 0.913 . S
C2747 H2723 0.950 . S
C2747 C2746 1.524 . S
C2747 C2748 1.415 . S
C2748 H2724 0.950 . S
C2748 C2743 1.363 . S
C2748 C2747 1.415 . S
C2749 H2725 0.951 . S
C2749 C2750 1.366 . S
C2749 C2751 1.388 . S
C2750 C2749 1.366 . S
C2750 C2754 1.385 . S
C2751 H2726 0.951 . S
C2751 C2749 1.388 . S
C2751 C2752 1.366 . S
C2752 C2751 1.366 . S
C2752 C2753 1.414 . S
C2752 C2755 1.499 . S
C2753 H2727 0.950 . S
C2753 C2752 1.414 . S
C2753 C2754 1.374 . S
C2754 H2728 0.950 . S
C2754 C2750 1.385 . S
C2754 C2753 1.374 . S
C2755 C2752 1.499 . S
C2755 C2756 1.373 . S
C2755 C2757 1.389 . S
C2756 H2729 0.950 . S
C2756 C2742 1.377 . S
C2756 C2755 1.373 . S
C2757 C2741 1.377 . S
C2757 C2755 1.389 . S
C2757 C2758 1.524 . S
C2758 C2757 1.524 . S
C2758 C2759 1.397 . S
C2758 C2763 1.363 . S
C2759 H2730 0.950 . S
C2759 C2758 1.397 . S
C2759 C2760 1.334 . S
C2760 H2731 0.950 . S
C2760 C2759 1.334 . S
C2760 C2761 1.287 . S
C2761 C2760 1.287 . S
C2761 C2762 1.524 . S
C2761 H2764 0.999 . S
C2762 H2732 0.950 . S
C2762 C2761 1.524 . S
C2762 C2763 1.415 . S
C2763 H2733 0.950 . S
C2763 C2758 1.363 . S
C2763 C2762 1.415 . S
H2764 C2761 0.999 . S
H2765 C2746 0.913 . S
H2766 C2784 0.951 . S
H2767 C2786 0.951 . S
H2768 C2788 0.950 . S
H2769 C2789 0.950 . S
H2770 C2791 0.950 . S
H2771 C2794 0.950 . S
H2772 C2795 0.950 . S
H2773 C2797 0.950 . S
H2774 C2798 0.950 . S
H2775 C2799 0.951 . S
H2776 C2801 0.951 . S
H2777 C2803 0.950 . S
H2778 C2804 0.950 . S
H2779 C2806 0.950 . S
H2780 C2809 0.950 . S
H2781 C2810 0.950 . S
H2782 C2812 0.950 . S
H2783 C2813 0.950 . S
C2784 H2766 0.951 . S
C2784 C2785 1.366 . S
C2784 C2786 1.388 . S
C2785 C2784 1.366 . S
C2785 C2789 1.385 . S
C2786 H2767 0.951 . S
C2786 C2784 1.388 . S
C2786 C2787 1.366 . S
C2787 C2786 1.366 . S
C2787 C2788 1.414 . S
C2787 C2790 1.499 . S
C2788 H2768 0.950 . S
C2788 C2787 1.414 . S
C2788 C2789 1.374 . S
C2789 H2769 0.950 . S
C2789 C2785 1.385 . S
C2789 C2788 1.374 . S
C2790 C2787 1.499 . S
C2790 C2791 1.373 . S
C2790 C2792 1.389 . S
C2791 H2770 0.950 . S
C2791 C2790 1.373 . S
C2791 C2807 1.377 . S
C2792 C2790 1.389 . S
C2792 C2793 1.524 . S
C2792 C2806 1.377 . S
C2793 C2792 1.524 . S
C2793 C2794 1.397 . S
C2793 C2798 1.363 . S
C2794 H2771 0.950 . S
C2794 C2793 1.397 . S
C2794 C2795 1.334 . S
C2795 H2772 0.950 . S
C2795 C2794 1.334 . S
C2795 C2796 1.287 . S
C2796 C2795 1.287 . S
C2796 C2797 1.524 . S
C2796 H2815 0.913 . S
C2797 H2773 0.950 . S
C2797 C2796 1.524 . S
C2797 C2798 1.415 . S
C2798 H2774 0.950 . S
C2798 C2793 1.363 . S
C2798 C2797 1.415 . S
C2799 H2775 0.951 . S
C2799 C2800 1.366 . S
C2799 C2801 1.388 . S
C2800 C2799 1.366 . S
C2800 C2804 1.385 . S
C2801 H2776 0.951 . S
C2801 C2799 1.388 . S
C2801 C2802 1.366 . S
C2802 C2801 1.366 . S
C2802 C2803 1.414 . S
C2802 C2805 1.499 1_556 S
C2803 H2777 0.950 . S
C2803 C2802 1.414 . S
C2803 C2804 1.374 . S
C2804 H2778 0.950 . S
C2804 C2800 1.385 . S
C2804 C2803 1.374 . S
C2805 C2802 1.499 1_554 S
C2805 C2806 1.373 . S
C2805 C2807 1.389 . S
C2806 H2779 0.950 . S
C2806 C2792 1.377 . S
C2806 C2805 1.373 . S
C2807 C2791 1.377 . S
C2807 C2805 1.389 . S
C2807 C2808 1.524 . S
C2808 C2807 1.524 . S
C2808 C2809 1.397 . S
C2808 C2813 1.363 . S
C2809 H2780 0.950 . S
C2809 C2808 1.397 . S
C2809 C2810 1.334 . S
C2810 H2781 0.950 . S
C2810 C2809 1.334 . S
C2810 C2811 1.287 . S
C2811 C2810 1.287 . S
C2811 C2812 1.524 . S
C2811 H2814 0.999 . S
C2812 H2782 0.950 . S
C2812 C2811 1.524 . S
C2812 C2813 1.415 . S
C2813 H2783 0.950 . S
C2813 C2808 1.363 . S
C2813 C2812 1.415 . S
H2814 C2811 0.999 . S
H2815 C2796 0.913 . S
H2816 C2834 0.951 . S
H2817 C2836 0.951 . S
H2818 C2838 0.950 . S
H2819 C2839 0.950 . S
H2820 C2841 0.950 . S
H2821 C2844 0.950 . S
H2822 C2845 0.950 1_556 S
H2823 C2847 0.950 . S
H2824 C2848 0.950 . S
H2825 C2849 0.951 . S
H2826 C2851 0.951 . S
H2827 C2853 0.950 . S
H2828 C2854 0.950 . S
H2829 C2856 0.950 . S
H2830 C2859 0.950 . S
H2831 C2860 0.950 . S
H2832 C2862 0.950 . S
H2833 C2863 0.950 . S
C2834 H2816 0.951 . S
C2834 C2835 1.366 . S
C2834 C2836 1.388 . S
C2835 C2834 1.366 . S
C2835 C2839 1.385 . S
C2836 H2817 0.951 . S
C2836 C2834 1.388 . S
C2836 C2837 1.366 . S
C2837 C2836 1.366 . S
C2837 C2838 1.414 . S
C2837 C2840 1.499 . S
C2838 H2818 0.950 . S
C2838 C2837 1.414 . S
C2838 C2839 1.374 . S
C2839 H2819 0.950 . S
C2839 C2835 1.385 . S
C2839 C2838 1.374 . S
C2840 C2837 1.499 . S
C2840 C2841 1.373 . S
C2840 C2842 1.389 . S
C2841 H2820 0.950 . S
C2841 C2840 1.373 . S
C2841 C2857 1.377 . S
C2842 C2840 1.389 . S
C2842 C2843 1.524 . S
C2842 C2856 1.377 . S
C2843 C2842 1.524 . S
C2843 C2844 1.397 . S
C2843 C2848 1.363 . S
C2844 H2821 0.950 . S
C2844 C2843 1.397 . S
C2844 C2845 1.334 . S
C2845 H2822 0.950 1_554 S
C2845 C2844 1.334 . S
C2845 C2846 1.287 . S
C2846 C2845 1.287 . S
C2846 C2847 1.524 . S
C2846 H2865 0.913 1_554 S
C2847 H2823 0.950 . S
C2847 C2846 1.524 . S
C2847 C2848 1.415 . S
C2848 H2824 0.950 . S
C2848 C2843 1.363 . S
C2848 C2847 1.415 . S
C2849 H2825 0.951 . S
C2849 C2850 1.366 . S
C2849 C2851 1.388 . S
C2850 C2849 1.366 . S
C2850 C2854 1.385 . S
C2851 H2826 0.951 . S
C2851 C2849 1.388 . S
C2851 C2852 1.366 . S
C2852 C2851 1.366 . S
C2852 C2853 1.414 . S
C2852 C2855 1.499 . S
C2853 H2827 0.950 . S
C2853 C2852 1.414 . S
C2853 C2854 1.374 . S
C2854 H2828 0.950 . S
C2854 C2850 1.385 . S
C2854 C2853 1.374 . S
C2855 C2852 1.499 . S
C2855 C2856 1.373 . S
C2855 C2857 1.389 . S
C2856 H2829 0.950 . S
C2856 C2842 1.377 . S
C2856 C2855 1.373 . S
C2857 C2841 1.377 . S
C2857 C2855 1.389 . S
C2857 C2858 1.524 . S
C2858 C2857 1.524 . S
C2858 C2859 1.397 . S
C2858 C2863 1.363 . S
C2859 H2830 0.950 . S
C2859 C2858 1.397 . S
C2859 C2860 1.334 . S
C2860 H2831 0.950 . S
C2860 C2859 1.334 . S
C2860 C2861 1.287 . S
C2861 C2860 1.287 . S
C2861 C2862 1.524 . S
C2861 H2864 0.999 . S
C2862 H2832 0.950 . S
C2862 C2861 1.524 . S
C2862 C2863 1.415 . S
C2863 H2833 0.950 . S
C2863 C2858 1.363 . S
C2863 C2862 1.415 . S
H2864 C2861 0.999 . S
H2865 C2846 0.913 1_556 S
H2866 C2884 0.951 . S
H2867 C2886 0.951 . S
H2868 C2888 0.950 . S
H2869 C2889 0.950 . S
H2870 C2891 0.950 . S
H2871 C2894 0.950 . S
H2872 C2895 0.950 . S
H2873 C2897 0.950 . S
H2874 C2898 0.950 . S
H2875 C2899 0.951 . S
H2876 C2901 0.951 . S
H2877 C2903 0.950 . S
H2878 C2904 0.950 . S
H2879 C2906 0.950 . S
H2880 C2909 0.950 . S
H2881 C2910 0.950 . S
H2882 C2912 0.950 . S
H2883 C2913 0.950 . S
C2884 H2866 0.951 . S
C2884 C2885 1.366 . S
C2884 C2886 1.388 . S
C2885 C2884 1.366 . S
C2885 C2889 1.385 . S
C2886 H2867 0.951 . S
C2886 C2884 1.388 . S
C2886 C2887 1.366 . S
C2887 C2886 1.366 . S
C2887 C2888 1.414 . S
C2887 C2890 1.499 . S
C2888 H2868 0.950 . S
C2888 C2887 1.414 . S
C2888 C2889 1.374 . S
C2889 H2869 0.950 . S
C2889 C2885 1.385 . S
C2889 C2888 1.374 . S
C2890 C2887 1.499 . S
C2890 C2891 1.373 . S
C2890 C2892 1.389 . S
C2891 H2870 0.950 . S
C2891 C2890 1.373 . S
C2891 C2907 1.377 . S
C2892 C2890 1.389 . S
C2892 C2893 1.524 . S
C2892 C2906 1.377 . S
C2893 C2892 1.524 . S
C2893 C2894 1.397 . S
C2893 C2898 1.363 . S
C2894 H2871 0.950 . S
C2894 C2893 1.397 . S
C2894 C2895 1.334 . S
C2895 H2872 0.950 . S
C2895 C2894 1.334 . S
C2895 C2896 1.287 . S
C2896 C2895 1.287 . S
C2896 C2897 1.524 . S
C2896 H2915 0.913 . S
C2897 H2873 0.950 . S
C2897 C2896 1.524 . S
C2897 C2898 1.415 . S
C2898 H2874 0.950 . S
C2898 C2893 1.363 . S
C2898 C2897 1.415 . S
C2899 H2875 0.951 . S
C2899 C2900 1.366 . S
C2899 C2901 1.388 . S
C2900 C2899 1.366 . S
C2900 C2904 1.385 . S
C2901 H2876 0.951 . S
C2901 C2899 1.388 . S
C2901 C2902 1.366 . S
C2902 C2901 1.366 . S
C2902 C2903 1.414 . S
C2902 C2905 1.499 . S
C2903 H2877 0.950 . S
C2903 C2902 1.414 . S
C2903 C2904 1.374 . S
C2904 H2878 0.950 . S
C2904 C2900 1.385 . S
C2904 C2903 1.374 . S
C2905 C2902 1.499 . S
C2905 C2906 1.373 . S
C2905 C2907 1.389 . S
C2906 H2879 0.950 . S
C2906 C2892 1.377 . S
C2906 C2905 1.373 . S
C2907 C2891 1.377 . S
C2907 C2905 1.389 . S
C2907 C2908 1.524 . S
C2908 C2907 1.524 . S
C2908 C2909 1.397 . S
C2908 C2913 1.363 . S
C2909 H2880 0.950 . S
C2909 C2908 1.397 . S
C2909 C2910 1.334 . S
C2910 H2881 0.950 . S
C2910 C2909 1.334 . S
C2910 C2911 1.287 . S
C2911 C2910 1.287 . S
C2911 C2912 1.524 . S
C2911 H2914 0.999 . S
C2912 H2882 0.950 . S
C2912 C2911 1.524 . S
C2912 C2913 1.415 . S
C2913 H2883 0.950 . S
C2913 C2908 1.363 . S
C2913 C2912 1.415 . S
H2914 C2911 0.999 . S
H2915 C2896 0.913 . S
H2916 C2934 0.951 . S
H2917 C2936 0.951 . S
H2918 C2938 0.950 . S
H2919 C2939 0.950 . S
H2920 C2941 0.950 . S
H2921 C2944 0.950 . S
H2922 C2945 0.950 . S
H2923 C2947 0.950 . S
H2924 C2948 0.950 . S
H2925 C2949 0.951 . S
H2926 C2951 0.951 . S
H2927 C2953 0.950 . S
H2928 C2954 0.950 . S
H2929 C2956 0.950 . S
H2930 C2959 0.950 . S
H2931 C2960 0.950 . S
H2932 C2962 0.950 . S
H2933 C2963 0.950 . S
C2934 H2916 0.951 . S
C2934 C2935 1.366 . S
C2934 C2936 1.388 . S
C2935 C2934 1.366 . S
C2935 C2939 1.385 . S
C2936 H2917 0.951 . S
C2936 C2934 1.388 . S
C2936 C2937 1.366 . S
C2937 C2936 1.366 . S
C2937 C2938 1.414 . S
C2937 C2940 1.499 . S
C2938 H2918 0.950 . S
C2938 C2937 1.414 . S
C2938 C2939 1.374 . S
C2939 H2919 0.950 . S
C2939 C2935 1.385 . S
C2939 C2938 1.374 . S
C2940 C2937 1.499 . S
C2940 C2941 1.373 . S
C2940 C2942 1.389 . S
C2941 H2920 0.950 . S
C2941 C2940 1.373 . S
C2941 C2957 1.377 . S
C2942 C2940 1.389 . S
C2942 C2943 1.524 . S
C2942 C2956 1.377 . S
C2943 C2942 1.524 . S
C2943 C2944 1.397 . S
C2943 C2948 1.363 . S
C2944 H2921 0.950 . S
C2944 C2943 1.397 . S
C2944 C2945 1.334 . S
C2945 H2922 0.950 . S
C2945 C2944 1.334 . S
C2945 C2946 1.287 . S
C2946 C2945 1.287 . S
C2946 C2947 1.524 . S
C2946 H2965 0.913 . S
C2947 H2923 0.950 . S
C2947 C2946 1.524 . S
C2947 C2948 1.415 . S
C2948 H2924 0.950 . S
C2948 C2943 1.363 . S
C2948 C2947 1.415 . S
C2949 H2925 0.951 . S
C2949 C2950 1.366 . S
C2949 C2951 1.388 . S
C2950 C2949 1.366 . S
C2950 C2954 1.385 . S
C2951 H2926 0.951 . S
C2951 C2949 1.388 . S
C2951 C2952 1.366 . S
C2952 C2951 1.366 . S
C2952 C2953 1.414 . S
C2952 C2955 1.499 . S
C2953 H2927 0.950 . S
C2953 C2952 1.414 . S
C2953 C2954 1.374 . S
C2954 H2928 0.950 . S
C2954 C2950 1.385 . S
C2954 C2953 1.374 . S
C2955 C2952 1.499 . S
C2955 C2956 1.373 . S
C2955 C2957 1.389 . S
C2956 H2929 0.950 . S
C2956 C2942 1.377 . S
C2956 C2955 1.373 . S
C2957 C2941 1.377 . S
C2957 C2955 1.389 . S
C2957 C2958 1.524 . S
C2958 C2957 1.524 . S
C2958 C2959 1.397 . S
C2958 C2963 1.363 . S
C2959 H2930 0.950 . S
C2959 C2958 1.397 . S
C2959 C2960 1.334 . S
C2960 H2931 0.950 . S
C2960 C2959 1.334 . S
C2960 C2961 1.287 . S
C2961 C2960 1.287 . S
C2961 C2962 1.524 . S
C2961 H2964 0.999 . S
C2962 H2932 0.950 . S
C2962 C2961 1.524 . S
C2962 C2963 1.415 . S
C2963 H2933 0.950 . S
C2963 C2958 1.363 . S
C2963 C2962 1.415 . S
H2964 C2961 0.999 . S
H2965 C2946 0.913 . S
H2966 C2984 0.951 . S
H2967 C2986 0.951 . S
H2968 C2988 0.950 . S
H2969 C2989 0.950 . S
H2970 C2991 0.950 . S
H2971 C2994 0.950 . S
H2972 C2995 0.950 . S
H2973 C2997 0.950 . S
H2974 C2998 0.950 . S
H2975 C2999 0.951 . S
H2976 C3001 0.951 . S
H2977 C3003 0.950 . S
H2978 C3004 0.950 . S
H2979 C3006 0.950 . S
H2980 C3009 0.950 . S
H2981 C3010 0.950 . S
H2982 C3012 0.950 . S
H2983 C3013 0.950 . S
C2984 H2966 0.951 . S
C2984 C2985 1.366 . S
C2984 C2986 1.388 . S
C2985 C2984 1.366 . S
C2985 C2989 1.385 . S
C2986 H2967 0.951 . S
C2986 C2984 1.388 . S
C2986 C2987 1.366 . S
C2987 C2986 1.366 . S
C2987 C2988 1.414 . S
C2987 C2990 1.499 . S
C2988 H2968 0.950 . S
C2988 C2987 1.414 . S
C2988 C2989 1.374 . S
C2989 H2969 0.950 . S
C2989 C2985 1.385 . S
C2989 C2988 1.374 . S
C2990 C2987 1.499 . S
C2990 C2991 1.373 . S
C2990 C2992 1.389 . S
C2991 H2970 0.950 . S
C2991 C2990 1.373 . S
C2991 C3007 1.377 . S
C2992 C2990 1.389 . S
C2992 C2993 1.524 . S
C2992 C3006 1.377 . S
C2993 C2992 1.524 . S
C2993 C2994 1.397 . S
C2993 C2998 1.363 . S
C2994 H2971 0.950 . S
C2994 C2993 1.397 . S
C2994 C2995 1.334 . S
C2995 H2972 0.950 . S
C2995 C2994 1.334 . S
C2995 C2996 1.287 . S
C2996 C2995 1.287 . S
C2996 C2997 1.524 . S
C2996 H3015 0.913 . S
C2997 H2973 0.950 . S
C2997 C2996 1.524 . S
C2997 C2998 1.415 . S
C2998 H2974 0.950 . S
C2998 C2993 1.363 . S
C2998 C2997 1.415 . S
C2999 H2975 0.951 . S
C2999 C3000 1.366 . S
C2999 C3001 1.388 . S
C3000 C2999 1.366 . S
C3000 C3004 1.385 . S
C3001 H2976 0.951 . S
C3001 C2999 1.388 . S
C3001 C3002 1.366 . S
C3002 C3001 1.366 . S
C3002 C3003 1.414 . S
C3002 C3005 1.499 . S
C3003 H2977 0.950 . S
C3003 C3002 1.414 . S
C3003 C3004 1.374 . S
C3004 H2978 0.950 . S
C3004 C3000 1.385 . S
C3004 C3003 1.374 . S
C3005 C3002 1.499 . S
C3005 C3006 1.373 . S
C3005 C3007 1.389 . S
C3006 H2979 0.950 . S
C3006 C2992 1.377 . S
C3006 C3005 1.373 . S
C3007 C2991 1.377 . S
C3007 C3005 1.389 . S
C3007 C3008 1.524 . S
C3008 C3007 1.524 . S
C3008 C3009 1.397 . S
C3008 C3013 1.363 . S
C3009 H2980 0.950 . S
C3009 C3008 1.397 . S
C3009 C3010 1.334 . S
C3010 H2981 0.950 . S
C3010 C3009 1.334 . S
C3010 C3011 1.287 . S
C3011 C3010 1.287 . S
C3011 C3012 1.524 . S
C3011 H3014 0.999 . S
C3012 H2982 0.950 . S
C3012 C3011 1.524 . S
C3012 C3013 1.415 . S
C3013 H2983 0.950 . S
C3013 C3008 1.363 . S
C3013 C3012 1.415 . S
H3014 C3011 0.999 . S
H3015 C2996 0.913 . S
H3016 C3034 0.951 . S
H3017 C3036 0.951 . S
H3018 C3038 0.950 . S
H3019 C3039 0.950 . S
H3020 C3041 0.950 . S
H3021 C3044 0.950 . S
H3022 C3045 0.950 . S
H3023 C3047 0.950 . S
H3024 C3048 0.950 . S
H3025 C3049 0.951 . S
H3026 C3051 0.951 . S
H3027 C3053 0.950 . S
H3028 C3054 0.950 . S
H3029 C3056 0.950 . S
H3030 C3059 0.950 . S
H3031 C3060 0.950 . S
H3032 C3062 0.950 . S
H3033 C3063 0.950 . S
C3034 H3016 0.951 . S
C3034 C3035 1.366 . S
C3034 C3036 1.388 . S
C3035 C3034 1.366 . S
C3035 C3039 1.385 . S
C3036 H3017 0.951 . S
C3036 C3034 1.388 . S
C3036 C3037 1.366 . S
C3037 C3036 1.366 . S
C3037 C3038 1.414 . S
C3037 C3040 1.499 . S
C3038 H3018 0.950 . S
C3038 C3037 1.414 . S
C3038 C3039 1.374 . S
C3039 H3019 0.950 . S
C3039 C3035 1.385 . S
C3039 C3038 1.374 . S
C3040 C3037 1.499 . S
C3040 C3041 1.373 . S
C3040 C3042 1.389 . S
C3041 H3020 0.950 . S
C3041 C3040 1.373 . S
C3041 C3057 1.377 . S
C3042 C3040 1.389 . S
C3042 C3043 1.524 . S
C3042 C3056 1.377 . S
C3043 C3042 1.524 . S
C3043 C3044 1.397 . S
C3043 C3048 1.363 . S
C3044 H3021 0.950 . S
C3044 C3043 1.397 . S
C3044 C3045 1.334 . S
C3045 H3022 0.950 . S
C3045 C3044 1.334 . S
C3045 C3046 1.287 . S
C3046 C3045 1.287 . S
C3046 C3047 1.524 . S
C3046 H3065 0.913 . S
C3047 H3023 0.950 . S
C3047 C3046 1.524 . S
C3047 C3048 1.415 . S
C3048 H3024 0.950 . S
C3048 C3043 1.363 . S
C3048 C3047 1.415 . S
C3049 H3025 0.951 . S
C3049 C3050 1.366 . S
C3049 C3051 1.388 . S
C3050 C3049 1.366 . S
C3050 C3054 1.385 . S
C3051 H3026 0.951 . S
C3051 C3049 1.388 . S
C3051 C3052 1.366 . S
C3052 C3051 1.366 . S
C3052 C3053 1.414 . S
C3052 C3055 1.499 . S
C3053 H3027 0.950 . S
C3053 C3052 1.414 . S
C3053 C3054 1.374 . S
C3054 H3028 0.950 . S
C3054 C3050 1.385 . S
C3054 C3053 1.374 . S
C3055 C3052 1.499 . S
C3055 C3056 1.373 . S
C3055 C3057 1.389 . S
C3056 H3029 0.950 . S
C3056 C3042 1.377 . S
C3056 C3055 1.373 . S
C3057 C3041 1.377 . S
C3057 C3055 1.389 . S
C3057 C3058 1.524 . S
C3058 C3057 1.524 . S
C3058 C3059 1.397 . S
C3058 C3063 1.363 . S
C3059 H3030 0.950 . S
C3059 C3058 1.397 . S
C3059 C3060 1.334 . S
C3060 H3031 0.950 . S
C3060 C3059 1.334 . S
C3060 C3061 1.287 . S
C3061 C3060 1.287 . S
C3061 C3062 1.524 . S
C3061 H3064 0.999 . S
C3062 H3032 0.950 . S
C3062 C3061 1.524 . S
C3062 C3063 1.415 . S
C3063 H3033 0.950 . S
C3063 C3058 1.363 . S
C3063 C3062 1.415 . S
H3064 C3061 0.999 . S
H3065 C3046 0.913 . S
H3066 C3084 0.951 . S
H3067 C3086 0.951 . S
H3068 C3088 0.950 . S
H3069 C3089 0.950 . S
H3070 C3091 0.950 . S
H3071 C3094 0.950 . S
H3072 C3095 0.950 . S
H3073 C3097 0.950 . S
H3074 C3098 0.950 . S
H3075 C3099 0.951 . S
H3076 C3101 0.951 . S
H3077 C3103 0.950 . S
H3078 C3104 0.950 . S
H3079 C3106 0.950 . S
H3080 C3109 0.950 . S
H3081 C3110 0.950 . S
H3082 C3112 0.950 . S
H3083 C3113 0.950 . S
C3084 H3066 0.951 . S
C3084 C3085 1.366 . S
C3084 C3086 1.388 . S
C3085 C3084 1.366 . S
C3085 C3089 1.385 . S
C3086 H3067 0.951 . S
C3086 C3084 1.388 . S
C3086 C3087 1.366 . S
C3087 C3086 1.366 . S
C3087 C3088 1.414 . S
C3087 C3090 1.499 . S
C3088 H3068 0.950 . S
C3088 C3087 1.414 . S
C3088 C3089 1.374 . S
C3089 H3069 0.950 . S
C3089 C3085 1.385 . S
C3089 C3088 1.374 . S
C3090 C3087 1.499 . S
C3090 C3091 1.373 . S
C3090 C3092 1.389 . S
C3091 H3070 0.950 . S
C3091 C3090 1.373 . S
C3091 C3107 1.377 . S
C3092 C3090 1.389 . S
C3092 C3093 1.524 . S
C3092 C3106 1.377 . S
C3093 C3092 1.524 . S
C3093 C3094 1.397 . S
C3093 C3098 1.363 . S
C3094 H3071 0.950 . S
C3094 C3093 1.397 . S
C3094 C3095 1.334 . S
C3095 H3072 0.950 . S
C3095 C3094 1.334 . S
C3095 C3096 1.287 . S
C3096 C3095 1.287 . S
C3096 C3097 1.524 . S
C3096 H3115 0.913 . S
C3097 H3073 0.950 . S
C3097 C3096 1.524 . S
C3097 C3098 1.415 . S
C3098 H3074 0.950 . S
C3098 C3093 1.363 . S
C3098 C3097 1.415 . S
C3099 H3075 0.951 . S
C3099 C3100 1.366 . S
C3099 C3101 1.388 . S
C3100 C3099 1.366 . S
C3100 C3104 1.385 . S
C3101 H3076 0.951 . S
C3101 C3099 1.388 . S
C3101 C3102 1.366 . S
C3102 C3101 1.366 . S
C3102 C3103 1.414 . S
C3102 C3105 1.499 . S
C3103 H3077 0.950 . S
C3103 C3102 1.414 . S
C3103 C3104 1.374 . S
C3104 H3078 0.950 . S
C3104 C3100 1.385 . S
C3104 C3103 1.374 . S
C3105 C3102 1.499 . S
C3105 C3106 1.373 . S
C3105 C3107 1.389 . S
C3106 H3079 0.950 . S
C3106 C3092 1.377 . S
C3106 C3105 1.373 . S
C3107 C3091 1.377 . S
C3107 C3105 1.389 . S
C3107 C3108 1.524 . S
C3108 C3107 1.524 . S
C3108 C3109 1.397 . S
C3108 C3113 1.363 . S
C3109 H3080 0.950 . S
C3109 C3108 1.397 . S
C3109 C3110 1.334 . S
C3110 H3081 0.950 . S
C3110 C3109 1.334 . S
C3110 C3111 1.287 . S
C3111 C3110 1.287 . S
C3111 C3112 1.524 . S
C3111 H3114 0.999 . S
C3112 H3082 0.950 . S
C3112 C3111 1.524 . S
C3112 C3113 1.415 . S
C3113 H3083 0.950 . S
C3113 C3108 1.363 . S
C3113 C3112 1.415 . S
H3114 C3111 0.999 . S
H3115 C3096 0.913 . S
H3116 C3134 0.951 . S
H3117 C3136 0.951 . S
H3118 C3138 0.950 . S
H3119 C3139 0.950 . S
H3120 C3141 0.950 . S
H3121 C3144 0.950 . S
H3122 C3145 0.950 . S
H3123 C3147 0.950 . S
H3124 C3148 0.950 . S
H3125 C3149 0.951 . S
H3126 C3151 0.951 . S
H3127 C3153 0.950 . S
H3128 C3154 0.950 . S
H3129 C3156 0.950 . S
H3130 C3159 0.950 . S
H3131 C3160 0.950 . S
H3132 C3162 0.950 1_554 S
H3133 C3163 0.950 . S
C3134 H3116 0.951 . S
C3134 C3135 1.366 . S
C3134 C3136 1.388 . S
C3135 C3134 1.366 . S
C3135 C3139 1.385 . S
C3136 H3117 0.951 . S
C3136 C3134 1.388 . S
C3136 C3137 1.366 . S
C3137 C3136 1.366 . S
C3137 C3138 1.414 . S
C3137 C3140 1.499 . S
C3138 H3118 0.950 . S
C3138 C3137 1.414 . S
C3138 C3139 1.374 . S
C3139 H3119 0.950 . S
C3139 C3135 1.385 . S
C3139 C3138 1.374 . S
C3140 C3137 1.499 . S
C3140 C3141 1.373 . S
C3140 C3142 1.389 . S
C3141 H3120 0.950 . S
C3141 C3140 1.373 . S
C3141 C3157 1.377 . S
C3142 C3140 1.389 . S
C3142 C3143 1.524 . S
C3142 C3156 1.377 . S
C3143 C3142 1.524 . S
C3143 C3144 1.397 . S
C3143 C3148 1.363 . S
C3144 H3121 0.950 . S
C3144 C3143 1.397 . S
C3144 C3145 1.334 . S
C3145 H3122 0.950 . S
C3145 C3144 1.334 . S
C3145 C3146 1.287 . S
C3146 C3145 1.287 . S
C3146 C3147 1.524 . S
C3146 H3165 0.913 . S
C3147 H3123 0.950 . S
C3147 C3146 1.524 . S
C3147 C3148 1.415 . S
C3148 H3124 0.950 . S
C3148 C3143 1.363 . S
C3148 C3147 1.415 . S
C3149 H3125 0.951 . S
C3149 C3150 1.366 . S
C3149 C3151 1.388 . S
C3150 C3149 1.366 . S
C3150 C3154 1.385 . S
C3151 H3126 0.951 . S
C3151 C3149 1.388 . S
C3151 C3152 1.366 . S
C3152 C3151 1.366 . S
C3152 C3153 1.414 . S
C3152 C3155 1.499 . S
C3153 H3127 0.950 . S
C3153 C3152 1.414 . S
C3153 C3154 1.374 . S
C3154 H3128 0.950 . S
C3154 C3150 1.385 . S
C3154 C3153 1.374 . S
C3155 C3152 1.499 . S
C3155 C3156 1.373 . S
C3155 C3157 1.389 . S
C3156 H3129 0.950 . S
C3156 C3142 1.377 . S
C3156 C3155 1.373 . S
C3157 C3141 1.377 . S
C3157 C3155 1.389 . S
C3157 C3158 1.524 . S
C3158 C3157 1.524 . S
C3158 C3159 1.397 . S
C3158 C3163 1.363 . S
C3159 H3130 0.950 . S
C3159 C3158 1.397 . S
C3159 C3160 1.334 . S
C3160 H3131 0.950 . S
C3160 C3159 1.334 . S
C3160 C3161 1.287 . S
C3161 C3160 1.287 . S
C3161 C3162 1.524 . S
C3161 H3164 0.999 . S
C3162 H3132 0.950 1_556 S
C3162 C3161 1.524 . S
C3162 C3163 1.415 . S
C3163 H3133 0.950 . S
C3163 C3158 1.363 . S
C3163 C3162 1.415 . S
H3164 C3161 0.999 . S
H3165 C3146 0.913 . S
H3166 C3184 0.951 . S
H3167 C3186 0.951 . S
H3168 C3188 0.950 . S
H3169 C3189 0.950 . S
H3170 C3191 0.950 . S
H3171 C3194 0.950 . S
H3172 C3195 0.950 . S
H3173 C3197 0.950 . S
H3174 C3198 0.950 . S
H3175 C3199 0.951 . S
H3176 C3201 0.951 . S
H3177 C3203 0.950 . S
H3178 C3204 0.950 . S
H3179 C3206 0.950 . S
H3180 C3209 0.950 . S
H3181 C3210 0.950 . S
H3182 C3212 0.950 . S
H3183 C3213 0.950 . S
C3184 H3166 0.951 . S
C3184 C3185 1.366 . S
C3184 C3186 1.388 . S
C3185 C3184 1.366 . S
C3185 C3189 1.385 . S
C3186 H3167 0.951 . S
C3186 C3184 1.388 . S
C3186 C3187 1.366 . S
C3187 C3186 1.366 . S
C3187 C3188 1.414 . S
C3187 C3190 1.499 . S
C3188 H3168 0.950 . S
C3188 C3187 1.414 . S
C3188 C3189 1.374 . S
C3189 H3169 0.950 . S
C3189 C3185 1.385 . S
C3189 C3188 1.374 . S
C3190 C3187 1.499 . S
C3190 C3191 1.373 . S
C3190 C3192 1.389 . S
C3191 H3170 0.950 . S
C3191 C3190 1.373 . S
C3191 C3207 1.377 . S
C3192 C3190 1.389 . S
C3192 C3193 1.524 . S
C3192 C3206 1.377 . S
C3193 C3192 1.524 . S
C3193 C3194 1.397 . S
C3193 C3198 1.363 . S
C3194 H3171 0.950 . S
C3194 C3193 1.397 . S
C3194 C3195 1.334 . S
C3195 H3172 0.950 . S
C3195 C3194 1.334 . S
C3195 C3196 1.287 . S
C3196 C3195 1.287 . S
C3196 C3197 1.524 . S
C3196 H3215 0.913 . S
C3197 H3173 0.950 . S
C3197 C3196 1.524 . S
C3197 C3198 1.415 . S
C3198 H3174 0.950 . S
C3198 C3193 1.363 . S
C3198 C3197 1.415 . S
C3199 H3175 0.951 . S
C3199 C3200 1.366 . S
C3199 C3201 1.388 . S
C3200 C3199 1.366 . S
C3200 C3204 1.385 . S
C3201 H3176 0.951 . S
C3201 C3199 1.388 . S
C3201 C3202 1.366 . S
C3202 C3201 1.366 . S
C3202 C3203 1.414 . S
C3202 C3205 1.499 . S
C3203 H3177 0.950 . S
C3203 C3202 1.414 . S
C3203 C3204 1.374 . S
C3204 H3178 0.950 . S
C3204 C3200 1.385 . S
C3204 C3203 1.374 . S
C3205 C3202 1.499 . S
C3205 C3206 1.373 . S
C3205 C3207 1.389 . S
C3206 H3179 0.950 . S
C3206 C3192 1.377 . S
C3206 C3205 1.373 . S
C3207 C3191 1.377 . S
C3207 C3205 1.389 . S
C3207 C3208 1.524 . S
C3208 C3207 1.524 . S
C3208 C3209 1.397 . S
C3208 C3213 1.363 . S
C3209 H3180 0.950 . S
C3209 C3208 1.397 . S
C3209 C3210 1.334 . S
C3210 H3181 0.950 . S
C3210 C3209 1.334 . S
C3210 C3211 1.287 . S
C3211 C3210 1.287 . S
C3211 C3212 1.524 . S
C3211 H3214 0.999 . S
C3212 H3182 0.950 . S
C3212 C3211 1.524 . S
C3212 C3213 1.415 . S
C3213 H3183 0.950 . S
C3213 C3208 1.363 . S
C3213 C3212 1.415 . S
H3214 C3211 0.999 . S
H3215 C3196 0.913 . S
H3216 C3234 0.951 . S
H3217 C3236 0.951 . S
H3218 C3238 0.950 . S
H3219 C3239 0.950 . S
H3220 C3241 0.950 . S
H3221 C3244 0.950 . S
H3222 C3245 0.950 . S
H3223 C3247 0.950 . S
H3224 C3248 0.950 . S
H3225 C3249 0.951 . S
H3226 C3251 0.951 . S
H3227 C3253 0.950 . S
H3228 C3254 0.950 . S
H3229 C3256 0.950 . S
H3230 C3259 0.950 . S
H3231 C3260 0.950 . S
H3232 C3262 0.950 . S
H3233 C3263 0.950 . S
C3234 H3216 0.951 . S
C3234 C3235 1.366 . S
C3234 C3236 1.388 . S
C3235 C3234 1.366 . S
C3235 C3239 1.385 . S
C3236 H3217 0.951 . S
C3236 C3234 1.388 . S
C3236 C3237 1.366 . S
C3237 C3236 1.366 . S
C3237 C3238 1.414 . S
C3237 C3240 1.499 . S
C3238 H3218 0.950 . S
C3238 C3237 1.414 . S
C3238 C3239 1.374 . S
C3239 H3219 0.950 . S
C3239 C3235 1.385 . S
C3239 C3238 1.374 . S
C3240 C3237 1.499 . S
C3240 C3241 1.373 . S
C3240 C3242 1.389 . S
C3241 H3220 0.950 . S
C3241 C3240 1.373 . S
C3241 C3257 1.377 . S
C3242 C3240 1.389 . S
C3242 C3243 1.524 . S
C3242 C3256 1.377 . S
C3243 C3242 1.524 . S
C3243 C3244 1.397 . S
C3243 C3248 1.363 . S
C3244 H3221 0.950 . S
C3244 C3243 1.397 . S
C3244 C3245 1.334 . S
C3245 H3222 0.950 . S
C3245 C3244 1.334 . S
C3245 C3246 1.287 . S
C3246 C3245 1.287 . S
C3246 C3247 1.524 . S
C3246 H3265 0.913 . S
C3247 H3223 0.950 . S
C3247 C3246 1.524 . S
C3247 C3248 1.415 . S
C3248 H3224 0.950 . S
C3248 C3243 1.363 . S
C3248 C3247 1.415 . S
C3249 H3225 0.951 . S
C3249 C3250 1.366 . S
C3249 C3251 1.388 . S
C3250 C3249 1.366 . S
C3250 C3254 1.385 . S
C3251 H3226 0.951 . S
C3251 C3249 1.388 . S
C3251 C3252 1.366 . S
C3252 C3251 1.366 . S
C3252 C3253 1.414 . S
C3252 C3255 1.499 . S
C3253 H3227 0.950 . S
C3253 C3252 1.414 . S
C3253 C3254 1.374 . S
C3254 H3228 0.950 . S
C3254 C3250 1.385 . S
C3254 C3253 1.374 . S
C3255 C3252 1.499 . S
C3255 C3256 1.373 . S
C3255 C3257 1.389 . S
C3256 H3229 0.950 . S
C3256 C3242 1.377 . S
C3256 C3255 1.373 . S
C3257 C3241 1.377 . S
C3257 C3255 1.389 . S
C3257 C3258 1.524 . S
C3258 C3257 1.524 . S
C3258 C3259 1.397 . S
C3258 C3263 1.363 . S
C3259 H3230 0.950 . S
C3259 C3258 1.397 . S
C3259 C3260 1.334 . S
C3260 H3231 0.950 . S
C3260 C3259 1.334 . S
C3260 C3261 1.287 . S
C3261 C3260 1.287 . S
C3261 C3262 1.524 . S
C3261 H3264 0.999 . S
C3262 H3232 0.950 . S
C3262 C3261 1.524 . S
C3262 C3263 1.415 . S
C3263 H3233 0.950 . S
C3263 C3258 1.363 . S
C3263 C3262 1.415 . S
H3264 C3261 0.999 . S
H3265 C3246 0.913 . S
H3266 C3284 0.951 . S
H3267 C3286 0.951 . S
H3268 C3288 0.950 . S
H3269 C3289 0.950 . S
H3270 C3291 0.950 . S
H3271 C3294 0.950 . S
H3272 C3295 0.950 . S
H3273 C3297 0.950 . S
H3274 C3298 0.950 . S
H3275 C3299 0.951 . S
H3276 C3301 0.951 . S
H3277 C3303 0.950 . S
H3278 C3304 0.950 . S
H3279 C3306 0.950 . S
H3280 C3309 0.950 . S
H3281 C3310 0.950 . S
H3282 C3312 0.950 . S
H3283 C3313 0.950 . S
C3284 H3266 0.951 . S
C3284 C3285 1.366 . S
C3284 C3286 1.388 . S
C3285 C3284 1.366 . S
C3285 C3289 1.385 . S
C3286 H3267 0.951 . S
C3286 C3284 1.388 . S
C3286 C3287 1.366 . S
C3287 C3286 1.366 . S
C3287 C3288 1.414 . S
C3287 C3290 1.499 . S
C3288 H3268 0.950 . S
C3288 C3287 1.414 . S
C3288 C3289 1.374 . S
C3289 H3269 0.950 . S
C3289 C3285 1.385 . S
C3289 C3288 1.374 . S
C3290 C3287 1.499 . S
C3290 C3291 1.373 . S
C3290 C3292 1.389 . S
C3291 H3270 0.950 . S
C3291 C3290 1.373 . S
C3291 C3307 1.377 . S
C3292 C3290 1.389 . S
C3292 C3293 1.524 . S
C3292 C3306 1.377 . S
C3293 C3292 1.524 . S
C3293 C3294 1.397 . S
C3293 C3298 1.363 . S
C3294 H3271 0.950 . S
C3294 C3293 1.397 . S
C3294 C3295 1.334 . S
C3295 H3272 0.950 . S
C3295 C3294 1.334 . S
C3295 C3296 1.287 . S
C3296 C3295 1.287 . S
C3296 C3297 1.524 . S
C3296 H3315 0.913 . S
C3297 H3273 0.950 . S
C3297 C3296 1.524 . S
C3297 C3298 1.415 . S
C3298 H3274 0.950 . S
C3298 C3293 1.363 . S
C3298 C3297 1.415 . S
C3299 H3275 0.951 . S
C3299 C3300 1.366 . S
C3299 C3301 1.388 . S
C3300 C3299 1.366 . S
C3300 C3304 1.385 . S
C3301 H3276 0.951 . S
C3301 C3299 1.388 . S
C3301 C3302 1.366 . S
C3302 C3301 1.366 . S
C3302 C3303 1.414 . S
C3302 C3305 1.499 . S
C3303 H3277 0.950 . S
C3303 C3302 1.414 . S
C3303 C3304 1.374 . S
C3304 H3278 0.950 . S
C3304 C3300 1.385 . S
C3304 C3303 1.374 . S
C3305 C3302 1.499 . S
C3305 C3306 1.373 . S
C3305 C3307 1.389 . S
C3306 H3279 0.950 . S
C3306 C3292 1.377 . S
C3306 C3305 1.373 . S
C3307 C3291 1.377 . S
C3307 C3305 1.389 . S
C3307 C3308 1.524 . S
C3308 C3307 1.524 . S
C3308 C3309 1.397 . S
C3308 C3313 1.363 . S
C3309 H3280 0.950 . S
C3309 C3308 1.397 . S
C3309 C3310 1.334 . S
C3310 H3281 0.950 . S
C3310 C3309 1.334 . S
C3310 C3311 1.287 . S
C3311 C3310 1.287 . S
C3311 C3312 1.524 . S
C3311 H3314 0.999 . S
C3312 H3282 0.950 . S
C3312 C3311 1.524 . S
C3312 C3313 1.415 . S
C3313 H3283 0.950 . S
C3313 C3308 1.363 . S
C3313 C3312 1.415 . S
H3314 C3311 0.999 . S
H3315 C3296 0.913 . S
H3316 C3334 0.951 . S
H3317 C3336 0.951 . S
H3318 C3338 0.950 . S
H3319 C3339 0.950 . S
H3320 C3341 0.950 . S
H3321 C3344 0.950 . S
H3322 C3345 0.950 . S
H3323 C3347 0.950 . S
H3324 C3348 0.950 . S
H3325 C3349 0.951 . S
H3326 C3351 0.951 . S
H3327 C3353 0.950 . S
H3328 C3354 0.950 . S
H3329 C3356 0.950 . S
H3330 C3359 0.950 . S
H3331 C3360 0.950 . S
H3332 C3362 0.950 . S
H3333 C3363 0.950 . S
C3334 H3316 0.951 . S
C3334 C3335 1.366 . S
C3334 C3336 1.388 . S
C3335 C3334 1.366 . S
C3335 C3339 1.385 . S
C3336 H3317 0.951 . S
C3336 C3334 1.388 . S
C3336 C3337 1.366 . S
C3337 C3336 1.366 . S
C3337 C3338 1.414 . S
C3337 C3340 1.499 . S
C3338 H3318 0.950 . S
C3338 C3337 1.414 . S
C3338 C3339 1.374 . S
C3339 H3319 0.950 . S
C3339 C3335 1.385 . S
C3339 C3338 1.374 . S
C3340 C3337 1.499 . S
C3340 C3341 1.373 . S
C3340 C3342 1.389 . S
C3341 H3320 0.950 . S
C3341 C3340 1.373 . S
C3341 C3357 1.377 . S
C3342 C3340 1.389 . S
C3342 C3343 1.524 . S
C3342 C3356 1.377 . S
C3343 C3342 1.524 . S
C3343 C3344 1.397 . S
C3343 C3348 1.363 . S
C3344 H3321 0.950 . S
C3344 C3343 1.397 . S
C3344 C3345 1.334 . S
C3345 H3322 0.950 . S
C3345 C3344 1.334 . S
C3345 C3346 1.287 . S
C3346 C3345 1.287 . S
C3346 C3347 1.524 . S
C3346 H3365 0.913 . S
C3347 H3323 0.950 . S
C3347 C3346 1.524 . S
C3347 C3348 1.415 . S
C3348 H3324 0.950 . S
C3348 C3343 1.363 . S
C3348 C3347 1.415 . S
C3349 H3325 0.951 . S
C3349 C3350 1.366 . S
C3349 C3351 1.388 . S
C3350 C3349 1.366 . S
C3350 C3354 1.385 . S
C3351 H3326 0.951 . S
C3351 C3349 1.388 . S
C3351 C3352 1.366 . S
C3352 C3351 1.366 . S
C3352 C3353 1.414 . S
C3352 C3355 1.499 . S
C3353 H3327 0.950 . S
C3353 C3352 1.414 . S
C3353 C3354 1.374 . S
C3354 H3328 0.950 . S
C3354 C3350 1.385 . S
C3354 C3353 1.374 . S
C3355 C3352 1.499 . S
C3355 C3356 1.373 . S
C3355 C3357 1.389 . S
C3356 H3329 0.950 . S
C3356 C3342 1.377 . S
C3356 C3355 1.373 . S
C3357 C3341 1.377 . S
C3357 C3355 1.389 . S
C3357 C3358 1.524 . S
C3358 C3357 1.524 . S
C3358 C3359 1.397 . S
C3358 C3363 1.363 . S
C3359 H3330 0.950 . S
C3359 C3358 1.397 . S
C3359 C3360 1.334 . S
C3360 H3331 0.950 . S
C3360 C3359 1.334 . S
C3360 C3361 1.287 . S
C3361 C3360 1.287 . S
C3361 C3362 1.524 . S
C3361 H3364 0.999 . S
C3362 H3332 0.950 . S
C3362 C3361 1.524 . S
C3362 C3363 1.415 . S
C3363 H3333 0.950 . S
C3363 C3358 1.363 . S
C3363 C3362 1.415 . S
H3364 C3361 0.999 . S
H3365 C3346 0.913 . S
H3366 C3384 0.951 . S
H3367 C3386 0.951 . S
H3368 C3388 0.950 . S
H3369 C3389 0.950 . S
H3370 C3391 0.950 . S
H3371 C3394 0.950 . S
H3372 C3395 0.950 . S
H3373 C3397 0.950 . S
H3374 C3398 0.950 . S
H3375 C3399 0.951 . S
H3376 C3401 0.951 . S
H3377 C3403 0.950 . S
H3378 C3404 0.950 . S
H3379 C3406 0.950 . S
H3380 C3409 0.950 . S
H3381 C3410 0.950 . S
H3382 C3412 0.950 . S
H3383 C3413 0.950 . S
C3384 H3366 0.951 . S
C3384 C3385 1.366 . S
C3384 C3386 1.388 . S
C3385 C3384 1.366 . S
C3385 C3389 1.385 . S
C3386 H3367 0.951 . S
C3386 C3384 1.388 . S
C3386 C3387 1.366 . S
C3387 C3386 1.366 . S
C3387 C3388 1.414 . S
C3387 C3390 1.499 . S
C3388 H3368 0.950 . S
C3388 C3387 1.414 . S
C3388 C3389 1.374 . S
C3389 H3369 0.950 . S
C3389 C3385 1.385 . S
C3389 C3388 1.374 . S
C3390 C3387 1.499 . S
C3390 C3391 1.373 . S
C3390 C3392 1.389 . S
C3391 H3370 0.950 . S
C3391 C3390 1.373 . S
C3391 C3407 1.377 . S
C3392 C3390 1.389 . S
C3392 C3393 1.524 . S
C3392 C3406 1.377 . S
C3393 C3392 1.524 . S
C3393 C3394 1.397 . S
C3393 C3398 1.363 . S
C3394 H3371 0.950 . S
C3394 C3393 1.397 . S
C3394 C3395 1.334 . S
C3395 H3372 0.950 . S
C3395 C3394 1.334 . S
C3395 C3396 1.287 . S
C3396 C3395 1.287 . S
C3396 C3397 1.524 . S
C3396 H3415 0.913 . S
C3397 H3373 0.950 . S
C3397 C3396 1.524 . S
C3397 C3398 1.415 . S
C3398 H3374 0.950 . S
C3398 C3393 1.363 . S
C3398 C3397 1.415 . S
C3399 H3375 0.951 . S
C3399 C3400 1.366 . S
C3399 C3401 1.388 . S
C3400 C3399 1.366 . S
C3400 C3404 1.385 . S
C3401 H3376 0.951 . S
C3401 C3399 1.388 . S
C3401 C3402 1.366 . S
C3402 C3401 1.366 . S
C3402 C3403 1.414 . S
C3402 C3405 1.499 . S
C3403 H3377 0.950 . S
C3403 C3402 1.414 . S
C3403 C3404 1.374 . S
C3404 H3378 0.950 . S
C3404 C3400 1.385 . S
C3404 C3403 1.374 . S
C3405 C3402 1.499 . S
C3405 C3406 1.373 . S
C3405 C3407 1.389 . S
C3406 H3379 0.950 . S
C3406 C3392 1.377 . S
C3406 C3405 1.373 . S
C3407 C3391 1.377 . S
C3407 C3405 1.389 . S
C3407 C3408 1.524 . S
C3408 C3407 1.524 . S
C3408 C3409 1.397 . S
C3408 C3413 1.363 . S
C3409 H3380 0.950 . S
C3409 C3408 1.397 . S
C3409 C3410 1.334 . S
C3410 H3381 0.950 . S
C3410 C3409 1.334 . S
C3410 C3411 1.287 . S
C3411 C3410 1.287 . S
C3411 C3412 1.524 . S
C3411 H3414 0.999 . S
C3412 H3382 0.950 . S
C3412 C3411 1.524 . S
C3412 C3413 1.415 . S
C3413 H3383 0.950 . S
C3413 C3408 1.363 . S
C3413 C3412 1.415 . S
H3414 C3411 0.999 . S
H3415 C3396 0.913 . S
H3416 C3434 0.951 . S
H3417 C3436 0.951 . S
H3418 C3438 0.950 . S
H3419 C3439 0.950 . S
H3420 C3441 0.950 . S
H3421 C3444 0.950 . S
H3422 C3445 0.950 . S
H3423 C3447 0.950 . S
H3424 C3448 0.950 . S
H3425 C3449 0.951 . S
H3426 C3451 0.951 . S
H3427 C3453 0.950 . S
H3428 C3454 0.950 . S
H3429 C3456 0.950 . S
H3430 C3459 0.950 . S
H3431 C3460 0.950 . S
H3432 C3462 0.950 . S
H3433 C3463 0.950 . S
C3434 H3416 0.951 . S
C3434 C3435 1.366 . S
C3434 C3436 1.388 . S
C3435 C3434 1.366 . S
C3435 C3439 1.385 . S
C3436 H3417 0.951 . S
C3436 C3434 1.388 . S
C3436 C3437 1.366 . S
C3437 C3436 1.366 . S
C3437 C3438 1.414 . S
C3437 C3440 1.499 . S
C3438 H3418 0.950 . S
C3438 C3437 1.414 . S
C3438 C3439 1.374 . S
C3439 H3419 0.950 . S
C3439 C3435 1.385 . S
C3439 C3438 1.374 . S
C3440 C3437 1.499 . S
C3440 C3441 1.373 . S
C3440 C3442 1.389 . S
C3441 H3420 0.950 . S
C3441 C3440 1.373 . S
C3441 C3457 1.377 . S
C3442 C3440 1.389 . S
C3442 C3443 1.524 . S
C3442 C3456 1.377 . S
C3443 C3442 1.524 . S
C3443 C3444 1.397 . S
C3443 C3448 1.363 . S
C3444 H3421 0.950 . S
C3444 C3443 1.397 . S
C3444 C3445 1.334 . S
C3445 H3422 0.950 . S
C3445 C3444 1.334 . S
C3445 C3446 1.287 . S
C3446 C3445 1.287 . S
C3446 C3447 1.524 . S
C3446 H3465 0.913 . S
C3447 H3423 0.950 . S
C3447 C3446 1.524 . S
C3447 C3448 1.415 . S
C3448 H3424 0.950 . S
C3448 C3443 1.363 . S
C3448 C3447 1.415 . S
C3449 H3425 0.951 . S
C3449 C3450 1.366 . S
C3449 C3451 1.388 . S
C3450 C3449 1.366 . S
C3450 C3454 1.385 . S
C3451 H3426 0.951 . S
C3451 C3449 1.388 . S
C3451 C3452 1.366 . S
C3452 C3451 1.366 . S
C3452 C3453 1.414 . S
C3452 C3455 1.499 . S
C3453 H3427 0.950 . S
C3453 C3452 1.414 . S
C3453 C3454 1.374 . S
C3454 H3428 0.950 . S
C3454 C3450 1.385 . S
C3454 C3453 1.374 . S
C3455 C3452 1.499 . S
C3455 C3456 1.373 . S
C3455 C3457 1.389 . S
C3456 H3429 0.950 . S
C3456 C3442 1.377 . S
C3456 C3455 1.373 . S
C3457 C3441 1.377 . S
C3457 C3455 1.389 . S
C3457 C3458 1.524 . S
C3458 C3457 1.524 . S
C3458 C3459 1.397 . S
C3458 C3463 1.363 . S
C3459 H3430 0.950 . S
C3459 C3458 1.397 . S
C3459 C3460 1.334 . S
C3460 H3431 0.950 . S
C3460 C3459 1.334 . S
C3460 C3461 1.287 . S
C3461 C3460 1.287 . S
C3461 C3462 1.524 . S
C3461 H3464 0.999 . S
C3462 H3432 0.950 . S
C3462 C3461 1.524 . S
C3462 C3463 1.415 . S
C3463 H3433 0.950 . S
C3463 C3458 1.363 . S
C3463 C3462 1.415 . S
H3464 C3461 0.999 . S
H3465 C3446 0.913 . S
H3466 C3484 0.951 . S
H3467 C3486 0.951 . S
H3468 C3488 0.950 . S
H3469 C3489 0.950 . S
H3470 C3491 0.950 . S
H3471 C3494 0.950 . S
H3472 C3495 0.950 . S
H3473 C3497 0.950 . S
H3474 C3498 0.950 . S
H3475 C3499 0.951 . S
H3476 C3501 0.951 . S
H3477 C3503 0.950 . S
H3478 C3504 0.950 . S
H3479 C3506 0.950 . S
H3480 C3509 0.950 . S
H3481 C3510 0.950 . S
H3482 C3512 0.950 . S
H3483 C3513 0.950 . S
C3484 H3466 0.951 . S
C3484 C3485 1.366 . S
C3484 C3486 1.388 . S
C3485 C3484 1.366 . S
C3485 C3489 1.385 . S
C3486 H3467 0.951 . S
C3486 C3484 1.388 . S
C3486 C3487 1.366 . S
C3487 C3486 1.366 . S
C3487 C3488 1.414 . S
C3487 C3490 1.499 . S
C3488 H3468 0.950 . S
C3488 C3487 1.414 . S
C3488 C3489 1.374 . S
C3489 H3469 0.950 . S
C3489 C3485 1.385 . S
C3489 C3488 1.374 . S
C3490 C3487 1.499 . S
C3490 C3491 1.373 . S
C3490 C3492 1.389 . S
C3491 H3470 0.950 . S
C3491 C3490 1.373 . S
C3491 C3507 1.377 . S
C3492 C3490 1.389 . S
C3492 C3493 1.524 . S
C3492 C3506 1.377 . S
C3493 C3492 1.524 . S
C3493 C3494 1.397 . S
C3493 C3498 1.363 . S
C3494 H3471 0.950 . S
C3494 C3493 1.397 . S
C3494 C3495 1.334 . S
C3495 H3472 0.950 . S
C3495 C3494 1.334 . S
C3495 C3496 1.287 . S
C3496 C3495 1.287 . S
C3496 C3497 1.524 . S
C3496 H3515 0.913 . S
C3497 H3473 0.950 . S
C3497 C3496 1.524 . S
C3497 C3498 1.415 . S
C3498 H3474 0.950 . S
C3498 C3493 1.363 . S
C3498 C3497 1.415 . S
C3499 H3475 0.951 . S
C3499 C3500 1.366 . S
C3499 C3501 1.388 . S
C3500 C3499 1.366 . S
C3500 C3504 1.385 . S
C3501 H3476 0.951 . S
C3501 C3499 1.388 . S
C3501 C3502 1.366 . S
C3502 C3501 1.366 . S
C3502 C3503 1.414 . S
C3502 C3505 1.499 . S
C3503 H3477 0.950 . S
C3503 C3502 1.414 . S
C3503 C3504 1.374 . S
C3504 H3478 0.950 . S
C3504 C3500 1.385 . S
C3504 C3503 1.374 . S
C3505 C3502 1.499 . S
C3505 C3506 1.373 . S
C3505 C3507 1.389 . S
C3506 H3479 0.950 . S
C3506 C3492 1.377 . S
C3506 C3505 1.373 . S
C3507 C3491 1.377 . S
C3507 C3505 1.389 . S
C3507 C3508 1.524 . S
C3508 C3507 1.524 . S
C3508 C3509 1.397 . S
C3508 C3513 1.363 . S
C3509 H3480 0.950 . S
C3509 C3508 1.397 . S
C3509 C3510 1.334 . S
C3510 H3481 0.950 . S
C3510 C3509 1.334 . S
C3510 C3511 1.287 . S
C3511 C3510 1.287 . S
C3511 C3512 1.524 . S
C3511 H3514 0.999 . S
C3512 H3482 0.950 . S
C3512 C3511 1.524 . S
C3512 C3513 1.415 . S
C3513 H3483 0.950 . S
C3513 C3508 1.363 . S
C3513 C3512 1.415 . S
H3514 C3511 0.999 . S
H3515 C3496 0.913 . S
H3516 C3534 0.951 . S
H3517 C3536 0.951 . S
H3518 C3538 0.950 . S
H3519 C3539 0.950 . S
H3520 C3541 0.950 . S
H3521 C3544 0.950 . S
H3522 C3545 0.950 . S
H3523 C3547 0.950 . S
H3524 C3548 0.950 . S
H3525 C3549 0.951 . S
H3526 C3551 0.951 . S
H3527 C3553 0.950 . S
H3528 C3554 0.950 . S
H3529 C3556 0.950 . S
H3530 C3559 0.950 . S
H3531 C3560 0.950 . S
H3532 C3562 0.950 . S
H3533 C3563 0.950 . S
C3534 H3516 0.951 . S
C3534 C3535 1.366 . S
C3534 C3536 1.388 . S
C3535 C3534 1.366 . S
C3535 C3539 1.385 . S
C3536 H3517 0.951 . S
C3536 C3534 1.388 . S
C3536 C3537 1.366 . S
C3537 C3536 1.366 . S
C3537 C3538 1.414 . S
C3537 C3540 1.499 . S
C3538 H3518 0.950 . S
C3538 C3537 1.414 . S
C3538 C3539 1.374 . S
C3539 H3519 0.950 . S
C3539 C3535 1.385 . S
C3539 C3538 1.374 . S
C3540 C3537 1.499 . S
C3540 C3541 1.373 . S
C3540 C3542 1.389 . S
C3541 H3520 0.950 . S
C3541 C3540 1.373 . S
C3541 C3557 1.377 . S
C3542 C3540 1.389 . S
C3542 C3543 1.524 . S
C3542 C3556 1.377 . S
C3543 C3542 1.524 . S
C3543 C3544 1.397 . S
C3543 C3548 1.363 . S
C3544 H3521 0.950 . S
C3544 C3543 1.397 . S
C3544 C3545 1.334 . S
C3545 H3522 0.950 . S
C3545 C3544 1.334 . S
C3545 C3546 1.287 . S
C3546 C3545 1.287 . S
C3546 C3547 1.524 . S
C3546 H3565 0.913 . S
C3547 H3523 0.950 . S
C3547 C3546 1.524 . S
C3547 C3548 1.415 . S
C3548 H3524 0.950 . S
C3548 C3543 1.363 . S
C3548 C3547 1.415 . S
C3549 H3525 0.951 . S
C3549 C3550 1.366 . S
C3549 C3551 1.388 . S
C3550 C3549 1.366 . S
C3550 C3554 1.385 . S
C3551 H3526 0.951 . S
C3551 C3549 1.388 . S
C3551 C3552 1.366 . S
C3552 C3551 1.366 . S
C3552 C3553 1.414 . S
C3552 C3555 1.499 . S
C3553 H3527 0.950 . S
C3553 C3552 1.414 . S
C3553 C3554 1.374 . S
C3554 H3528 0.950 . S
C3554 C3550 1.385 . S
C3554 C3553 1.374 . S
C3555 C3552 1.499 . S
C3555 C3556 1.373 . S
C3555 C3557 1.389 . S
C3556 H3529 0.950 . S
C3556 C3542 1.377 . S
C3556 C3555 1.373 . S
C3557 C3541 1.377 . S
C3557 C3555 1.389 . S
C3557 C3558 1.524 . S
C3558 C3557 1.524 . S
C3558 C3559 1.397 . S
C3558 C3563 1.363 . S
C3559 H3530 0.950 . S
C3559 C3558 1.397 . S
C3559 C3560 1.334 . S
C3560 H3531 0.950 . S
C3560 C3559 1.334 . S
C3560 C3561 1.287 . S
C3561 C3560 1.287 . S
C3561 C3562 1.524 . S
C3561 H3564 0.999 . S
C3562 H3532 0.950 . S
C3562 C3561 1.524 . S
C3562 C3563 1.415 . S
C3563 H3533 0.950 . S
C3563 C3558 1.363 . S
C3563 C3562 1.415 . S
H3564 C3561 0.999 . S
H3565 C3546 0.913 . S
H3566 C3584 0.951 . S
H3567 C3586 0.951 . S
H3568 C3588 0.950 . S
H3569 C3589 0.950 . S
H3570 C3591 0.950 . S
H3571 C3594 0.950 . S
H3572 C3595 0.950 . S
H3573 C3597 0.950 . S
H3574 C3598 0.950 . S
H3575 C3599 0.951 . S
H3576 C3601 0.951 . S
H3577 C3603 0.950 . S
H3578 C3604 0.950 . S
H3579 C3606 0.950 . S
H3580 C3609 0.950 . S
H3581 C3610 0.950 . S
H3582 C3612 0.950 . S
H3583 C3613 0.950 . S
C3584 H3566 0.951 . S
C3584 C3585 1.366 . S
C3584 C3586 1.388 . S
C3585 C3584 1.366 . S
C3585 C3589 1.385 . S
C3586 H3567 0.951 . S
C3586 C3584 1.388 . S
C3586 C3587 1.366 . S
C3587 C3586 1.366 . S
C3587 C3588 1.414 . S
C3587 C3590 1.499 . S
C3588 H3568 0.950 . S
C3588 C3587 1.414 . S
C3588 C3589 1.374 . S
C3589 H3569 0.950 . S
C3589 C3585 1.385 . S
C3589 C3588 1.374 . S
C3590 C3587 1.499 . S
C3590 C3591 1.373 . S
C3590 C3592 1.389 . S
C3591 H3570 0.950 . S
C3591 C3590 1.373 . S
C3591 C3607 1.377 . S
C3592 C3590 1.389 . S
C3592 C3593 1.524 . S
C3592 C3606 1.377 . S
C3593 C3592 1.524 . S
C3593 C3594 1.397 . S
C3593 C3598 1.363 . S
C3594 H3571 0.950 . S
C3594 C3593 1.397 . S
C3594 C3595 1.334 . S
C3595 H3572 0.950 . S
C3595 C3594 1.334 . S
C3595 C3596 1.287 . S
C3596 C3595 1.287 . S
C3596 C3597 1.524 . S
C3596 H3615 0.913 . S
C3597 H3573 0.950 . S
C3597 C3596 1.524 . S
C3597 C3598 1.415 . S
C3598 H3574 0.950 . S
C3598 C3593 1.363 . S
C3598 C3597 1.415 . S
C3599 H3575 0.951 . S
C3599 C3600 1.366 . S
C3599 C3601 1.388 . S
C3600 C3599 1.366 . S
C3600 C3604 1.385 . S
C3601 H3576 0.951 . S
C3601 C3599 1.388 . S
C3601 C3602 1.366 . S
C3602 C3601 1.366 . S
C3602 C3603 1.414 . S
C3602 C3605 1.499 . S
C3603 H3577 0.950 . S
C3603 C3602 1.414 . S
C3603 C3604 1.374 . S
C3604 H3578 0.950 . S
C3604 C3600 1.385 . S
C3604 C3603 1.374 . S
C3605 C3602 1.499 . S
C3605 C3606 1.373 . S
C3605 C3607 1.389 . S
C3606 H3579 0.950 . S
C3606 C3592 1.377 . S
C3606 C3605 1.373 . S
C3607 C3591 1.377 . S
C3607 C3605 1.389 . S
C3607 C3608 1.524 . S
C3608 C3607 1.524 . S
C3608 C3609 1.397 . S
C3608 C3613 1.363 . S
C3609 H3580 0.950 . S
C3609 C3608 1.397 . S
C3609 C3610 1.334 . S
C3610 H3581 0.950 . S
C3610 C3609 1.334 . S
C3610 C3611 1.287 . S
C3611 C3610 1.287 . S
C3611 C3612 1.524 . S
C3611 H3614 0.999 . S
C3612 H3582 0.950 . S
C3612 C3611 1.524 . S
C3612 C3613 1.415 . S
C3613 H3583 0.950 . S
C3613 C3608 1.363 . S
C3613 C3612 1.415 . S
H3614 C3611 0.999 . S
H3615 C3596 0.913 . S
C435 C81 1.505 . S
C450 C5 1.505 . S
C485 C16 1.505 . S
C500 C96 1.505 . S
C535 C57 1.505 . S
C550 C29 1.505 . S
C585 C42 1.505 . S
C600 C70 1.505 . S
C635 C187 1.505 . S
C650 C107 1.505 . S
C685 C198 1.505 . S
C700 C122 1.505 . S
C735 C135 1.505 . S
C750 C161 1.505 . S
C785 C148 1.505 . S
C800 C172 1.505 . S
C835 C213 1.505 . S
C850 C291 1.505 . S
C885 C226 1.505 . S
C900 C304 1.505 . S
C935 C263 1.506 . S
C950 C239 1.506 . S
C985 C278 1.505 . S
C1000 C252 1.505 . S
C1035 C317 1.505 . S
C1050 C395 1.505 . S
C1085 C408 1.505 . S
C1100 C330 1.505 . S
C1135 C367 1.505 . S
C1150 C343 1.505 . S
C1185 C356 1.506 . S
C1200 C380 1.506 . S
C1235 C3 1.300 . S
C1250 C400 1.305 . S
C1285 C199 1.306 . S
C1300 C18 1.301 . S
C1335 C31 1.300 . S
C1350 C368 1.305 . S
C1385 C44 1.300 . S
C1400 C173 1.306 . S
C1435 C348 1.306 . S
C1450 C55 1.301 . S
C1485 C153 1.306 . S
C1500 C68 1.300 . S
C1535 C83 1.300 . S
C1550 C322 1.305 . S
C1585 C127 1.306 . S
C1600 C94 1.300 . S
C1635 C109 1.300 . S
C1650 C296 1.305 . S
C1685 C101 1.306 . S
C1700 C120 1.300 . S
C1735 C133 1.300 . S
C1750 C264 1.305 . S
C1785 C146 1.301 . S
C1800 C75 1.306 . S
C1835 C244 1.306 . S
C1850 C159 1.301 . S
C1885 C174 1.300 . S
C1900 C43 1.306 . S
C1935 C185 1.300 . S
C1950 C218 1.305 . S
C1985 C17 1.306 . S
C2000 C200 1.300 . S
C2035 C211 1.301 . S
C2050 C192 1.306 . S
C2085 C224 1.300 . S
C2100 C413 1.306 . S
C2135 C166 1.305 . S
C2150 C237 1.300 . S
C2185 C250 1.301 . S
C2200 C381 1.306 . S
C2235 C140 1.305 . S
C2250 C265 1.300 . S
C2285 C361 1.305 . S
C2300 C276 1.300 . S
C2335 C108 1.306 . S
C2350 C289 1.300 . S
C2385 C335 1.306 . S
C2400 C302 1.301 . S
C2435 C315 1.301 . S
C2450 C82 1.306 . S
C2485 C309 1.306 . S
C2500 C328 1.300 . S
C2535 C62 1.305 . S
C2550 C341 1.300 . S
C2585 C354 1.300 . S
C2600 C283 1.306 . S
C2635 C369 1.300 . S
C2650 C30 1.305 . S
C2685 C382 1.300 . S
C2700 C257 1.305 . S
C2735 C10 1.306 . S
C2750 C393 1.300 . S
C2785 C406 1.301 . S
C2800 C231 1.306 . S
C2835 C4 1.437 . S
C2850 C277 1.437 . S
C2885 C290 1.437 . S
C2900 C23 1.437 . S
C2935 C36 1.438 . S
C2950 C303 1.438 . S
C2985 C270 1.437 . S
C3000 C49 1.437 . S
C3035 C251 1.437 . S
C3050 C56 1.437 . S
C3085 C212 1.437 . S
C3100 C69 1.437 . S
C3135 C225 1.438 . S
C3150 C88 1.438 . S
C3185 C238 1.437 . S
C3200 C95 1.437 . S
C3235 C114 1.437 . S
C3250 C387 1.437 . S
C3285 C394 1.438 . S
C3300 C121 1.438 . S
C3335 C407 1.438 . S
C3350 C134 1.438 . S
C3385 C374 1.437 . S
C3400 C147 1.437 . S
C3435 C355 1.437 . S
C3450 C160 1.437 . S
C3485 C316 1.438 . S
C3500 C179 1.437 . S
C3535 C186 1.438 . S
C3550 C329 1.438 . S
C3585 C205 1.437 . S
C3600 C342 1.437 . S
