# Generated by pormake.
# Topology umn, (4)-cn, num edge types: 1
# Building blocks:
#     Node 0, Type 0, BuildingBlock: GALJAG_clean_sbu_0, # of connection points: 4
#     Node 1, Type 0, BuildingBlock: GALJAG_clean_sbu_0, # of connection points: 4
#     Node 2, Type 0, BuildingBlock: GALJAG_clean_sbu_0, # of connection points: 4
#     Node 3, Type 0, BuildingBlock: GALJAG_clean_sbu_0, # of connection points: 4
#     Node 4, Type 0, BuildingBlock: GALJAG_clean_sbu_0, # of connection points: 4
#     Node 5, Type 0, BuildingBlock: GALJAG_clean_sbu_0, # of connection points: 4
#     Node 6, Type 0, BuildingBlock: GALJAG_clean_sbu_0, # of connection points: 4
#     Node 7, Type 0, BuildingBlock: GALJAG_clean_sbu_0, # of connection points: 4
#     Node 8, Type 0, BuildingBlock: GALJAG_clean_sbu_0, # of connection points: 4
#     Node 9, Type 0, BuildingBlock: GALJAG_clean_sbu_0, # of connection points: 4
#     Node 10, Type 0, BuildingBlock: GALJAG_clean_sbu_0, # of connection points: 4
#     Node 11, Type 0, BuildingBlock: GALJAG_clean_sbu_0, # of connection points: 4
#     Node 12, Type 0, BuildingBlock: GALJAG_clean_sbu_0, # of connection points: 4
#     Node 13, Type 0, BuildingBlock: GALJAG_clean_sbu_0, # of connection points: 4
#     Node 14, Type 0, BuildingBlock: GALJAG_clean_sbu_0, # of connection points: 4
#     Node 15, Type 0, BuildingBlock: GALJAG_clean_sbu_0, # of connection points: 4
#     Node 16, Type 0, BuildingBlock: GALJAG_clean_sbu_0, # of connection points: 4
#     Node 17, Type 0, BuildingBlock: GALJAG_clean_sbu_0, # of connection points: 4
#     Node 18, Type 0, BuildingBlock: GALJAG_clean_sbu_0, # of connection points: 4
#     Node 19, Type 0, BuildingBlock: GALJAG_clean_sbu_0, # of connection points: 4
#     Node 20, Type 0, BuildingBlock: GALJAG_clean_sbu_0, # of connection points: 4
#     Node 21, Type 0, BuildingBlock: GALJAG_clean_sbu_0, # of connection points: 4
#     Node 22, Type 0, BuildingBlock: GALJAG_clean_sbu_0, # of connection points: 4
#     Node 23, Type 0, BuildingBlock: GALJAG_clean_sbu_0, # of connection points: 4
#     Node 24, Type 0, BuildingBlock: GALJAG_clean_sbu_0, # of connection points: 4
#     Node 25, Type 0, BuildingBlock: GALJAG_clean_sbu_0, # of connection points: 4
#     Node 26, Type 0, BuildingBlock: GALJAG_clean_sbu_0, # of connection points: 4
#     Node 27, Type 0, BuildingBlock: GALJAG_clean_sbu_0, # of connection points: 4
#     Node 28, Type 0, BuildingBlock: GALJAG_clean_sbu_0, # of connection points: 4
#     Node 29, Type 0, BuildingBlock: GALJAG_clean_sbu_0, # of connection points: 4
#     Node 30, Type 0, BuildingBlock: GALJAG_clean_sbu_0, # of connection points: 4
#     Node 31, Type 0, BuildingBlock: GALJAG_clean_sbu_0, # of connection points: 4
#     Node 32, Type 0, BuildingBlock: GALJAG_clean_sbu_0, # of connection points: 4
#     Node 33, Type 0, BuildingBlock: GALJAG_clean_sbu_0, # of connection points: 4
#     Node 34, Type 0, BuildingBlock: GALJAG_clean_sbu_0, # of connection points: 4
#     Node 35, Type 0, BuildingBlock: GALJAG_clean_sbu_0, # of connection points: 4
#     Edge 36, Type (0, 0), BuildingBlock: ZUJKAS_clean_linker_0, # of connection points: 2
#     Edge 37, Type (0, 0), BuildingBlock: ZUJKAS_clean_linker_0, # of connection points: 2
#     Edge 38, Type (0, 0), BuildingBlock: ZUJKAS_clean_linker_0, # of connection points: 2
#     Edge 39, Type (0, 0), BuildingBlock: ZUJKAS_clean_linker_0, # of connection points: 2
#     Edge 40, Type (0, 0), BuildingBlock: ZUJKAS_clean_linker_0, # of connection points: 2
#     Edge 41, Type (0, 0), BuildingBlock: ZUJKAS_clean_linker_0, # of connection points: 2
#     Edge 42, Type (0, 0), BuildingBlock: ZUJKAS_clean_linker_0, # of connection points: 2
#     Edge 43, Type (0, 0), BuildingBlock: ZUJKAS_clean_linker_0, # of connection points: 2
#     Edge 44, Type (0, 0), BuildingBlock: ZUJKAS_clean_linker_0, # of connection points: 2
#     Edge 45, Type (0, 0), BuildingBlock: ZUJKAS_clean_linker_0, # of connection points: 2
#     Edge 46, Type (0, 0), BuildingBlock: ZUJKAS_clean_linker_0, # of connection points: 2
#     Edge 47, Type (0, 0), BuildingBlock: ZUJKAS_clean_linker_0, # of connection points: 2
#     Edge 48, Type (0, 0), BuildingBlock: ZUJKAS_clean_linker_0, # of connection points: 2
#     Edge 49, Type (0, 0), BuildingBlock: ZUJKAS_clean_linker_0, # of connection points: 2
#     Edge 50, Type (0, 0), BuildingBlock: ZUJKAS_clean_linker_0, # of connection points: 2
#     Edge 51, Type (0, 0), BuildingBlock: ZUJKAS_clean_linker_0, # of connection points: 2
#     Edge 52, Type (0, 0), BuildingBlock: ZUJKAS_clean_linker_0, # of connection points: 2
#     Edge 53, Type (0, 0), BuildingBlock: ZUJKAS_clean_linker_0, # of connection points: 2
#     Edge 54, Type (0, 0), BuildingBlock: ZUJKAS_clean_linker_0, # of connection points: 2
#     Edge 55, Type (0, 0), BuildingBlock: ZUJKAS_clean_linker_0, # of connection points: 2
#     Edge 56, Type (0, 0), BuildingBlock: ZUJKAS_clean_linker_0, # of connection points: 2
#     Edge 57, Type (0, 0), BuildingBlock: ZUJKAS_clean_linker_0, # of connection points: 2
#     Edge 58, Type (0, 0), BuildingBlock: ZUJKAS_clean_linker_0, # of connection points: 2
#     Edge 59, Type (0, 0), BuildingBlock: ZUJKAS_clean_linker_0, # of connection points: 2
#     Edge 60, Type (0, 0), BuildingBlock: ZUJKAS_clean_linker_0, # of connection points: 2
#     Edge 61, Type (0, 0), BuildingBlock: ZUJKAS_clean_linker_0, # of connection points: 2
#     Edge 62, Type (0, 0), BuildingBlock: ZUJKAS_clean_linker_0, # of connection points: 2
#     Edge 63, Type (0, 0), BuildingBlock: ZUJKAS_clean_linker_0, # of connection points: 2
#     Edge 64, Type (0, 0), BuildingBlock: ZUJKAS_clean_linker_0, # of connection points: 2
#     Edge 65, Type (0, 0), BuildingBlock: ZUJKAS_clean_linker_0, # of connection points: 2
#     Edge 66, Type (0, 0), BuildingBlock: ZUJKAS_clean_linker_0, # of connection points: 2
#     Edge 67, Type (0, 0), BuildingBlock: ZUJKAS_clean_linker_0, # of connection points: 2
#     Edge 68, Type (0, 0), BuildingBlock: ZUJKAS_clean_linker_0, # of connection points: 2
#     Edge 69, Type (0, 0), BuildingBlock: ZUJKAS_clean_linker_0, # of connection points: 2
#     Edge 70, Type (0, 0), BuildingBlock: ZUJKAS_clean_linker_0, # of connection points: 2
#     Edge 71, Type (0, 0), BuildingBlock: ZUJKAS_clean_linker_0, # of connection points: 2
#     Edge 72, Type (0, 0), BuildingBlock: ZUJKAS_clean_linker_0, # of connection points: 2
#     Edge 73, Type (0, 0), BuildingBlock: ZUJKAS_clean_linker_0, # of connection points: 2
#     Edge 74, Type (0, 0), BuildingBlock: ZUJKAS_clean_linker_0, # of connection points: 2
#     Edge 75, Type (0, 0), BuildingBlock: ZUJKAS_clean_linker_0, # of connection points: 2
#     Edge 76, Type (0, 0), BuildingBlock: ZUJKAS_clean_linker_0, # of connection points: 2
#     Edge 77, Type (0, 0), BuildingBlock: ZUJKAS_clean_linker_0, # of connection points: 2
#     Edge 78, Type (0, 0), BuildingBlock: ZUJKAS_clean_linker_0, # of connection points: 2
#     Edge 79, Type (0, 0), BuildingBlock: ZUJKAS_clean_linker_0, # of connection points: 2
#     Edge 80, Type (0, 0), BuildingBlock: ZUJKAS_clean_linker_0, # of connection points: 2
#     Edge 81, Type (0, 0), BuildingBlock: ZUJKAS_clean_linker_0, # of connection points: 2
#     Edge 82, Type (0, 0), BuildingBlock: ZUJKAS_clean_linker_0, # of connection points: 2
#     Edge 83, Type (0, 0), BuildingBlock: ZUJKAS_clean_linker_0, # of connection points: 2
#     Edge 84, Type (0, 0), BuildingBlock: ZUJKAS_clean_linker_0, # of connection points: 2
#     Edge 85, Type (0, 0), BuildingBlock: ZUJKAS_clean_linker_0, # of connection points: 2
#     Edge 86, Type (0, 0), BuildingBlock: ZUJKAS_clean_linker_0, # of connection points: 2
#     Edge 87, Type (0, 0), BuildingBlock: ZUJKAS_clean_linker_0, # of connection points: 2
#     Edge 88, Type (0, 0), BuildingBlock: ZUJKAS_clean_linker_0, # of connection points: 2
#     Edge 89, Type (0, 0), BuildingBlock: ZUJKAS_clean_linker_0, # of connection points: 2
#     Edge 90, Type (0, 0), BuildingBlock: ZUJKAS_clean_linker_0, # of connection points: 2
#     Edge 91, Type (0, 0), BuildingBlock: ZUJKAS_clean_linker_0, # of connection points: 2
#     Edge 92, Type (0, 0), BuildingBlock: ZUJKAS_clean_linker_0, # of connection points: 2
#     Edge 93, Type (0, 0), BuildingBlock: ZUJKAS_clean_linker_0, # of connection points: 2
#     Edge 94, Type (0, 0), BuildingBlock: ZUJKAS_clean_linker_0, # of connection points: 2
#     Edge 95, Type (0, 0), BuildingBlock: ZUJKAS_clean_linker_0, # of connection points: 2
#     Edge 96, Type (0, 0), BuildingBlock: ZUJKAS_clean_linker_0, # of connection points: 2
#     Edge 97, Type (0, 0), BuildingBlock: ZUJKAS_clean_linker_0, # of connection points: 2
#     Edge 98, Type (0, 0), BuildingBlock: ZUJKAS_clean_linker_0, # of connection points: 2
#     Edge 99, Type (0, 0), BuildingBlock: ZUJKAS_clean_linker_0, # of connection points: 2
#     Edge 100, Type (0, 0), BuildingBlock: ZUJKAS_clean_linker_0, # of connection points: 2
#     Edge 101, Type (0, 0), BuildingBlock: ZUJKAS_clean_linker_0, # of connection points: 2
#     Edge 102, Type (0, 0), BuildingBlock: ZUJKAS_clean_linker_0, # of connection points: 2
#     Edge 103, Type (0, 0), BuildingBlock: ZUJKAS_clean_linker_0, # of connection points: 2
#     Edge 104, Type (0, 0), BuildingBlock: ZUJKAS_clean_linker_0, # of connection points: 2
#     Edge 105, Type (0, 0), BuildingBlock: ZUJKAS_clean_linker_0, # of connection points: 2
#     Edge 106, Type (0, 0), BuildingBlock: ZUJKAS_clean_linker_0, # of connection points: 2
#     Edge 107, Type (0, 0), BuildingBlock: ZUJKAS_clean_linker_0, # of connection points: 2
# Relax obj value: 0.191
# Max RMSD: 0.184
# Mean RMSD: 0.184
data_MOF--net-umn--node1-GALJAG_clean_sbu_0--edge1-ZUJKAS_clean_linker_0
_symmetry_space_group_name_H-M    P1
_symmetry_Int_Tables_number       1
_symmetry_cell_setting            triclinic
loop_
_symmetry_equiv_pos_as_xyz
'x, y, z'
_cell_length_a     108.45025
_cell_length_b     108.48782
_cell_length_c     47.693957
_cell_angle_alpha  89.984501
_cell_angle_beta   90.00666
_cell_angle_gamma 119.99312
loop_
_atom_site_label
_atom_site_type_symbol
_atom_site_fract_x
_atom_site_fract_y
_atom_site_fract_z
_atom_type_partial_charge
In0 In 0.36407 0.09789 0.23176 0.0
O1 O 0.36209 0.08781 0.27479 0.0
O2 O 0.36775 0.10947 0.27413 0.0
C3 C 0.38699 0.10432 0.19885 0.0
C4 C 0.35386 0.11462 0.21493 0.0
C5 C 0.34406 0.07065 0.2226 0.0
O6 O 0.38653 0.10088 0.2243 0.0
O7 O 0.37634 0.10505 0.19079 0.0
O8 O 0.34107 0.07997 0.23027 0.0
O9 O 0.35714 0.0752 0.21857 0.0
C10 C 0.3642 0.09852 0.28878 0.0
O11 O 0.34805 0.10161 0.2085 0.0
O12 O 0.36504 0.1193 0.22958 0.0
In13 In 0.89517 0.26285 0.23148 0.0
O14 O 0.89488 0.26979 0.27714 0.0
O15 O 0.88541 0.24776 0.26817 0.0
C16 C 0.89574 0.28269 0.19614 0.0
C17 C 0.87643 0.23894 0.20528 0.0
C18 C 0.92211 0.26876 0.23829 0.0
O19 O 0.88762 0.27849 0.21733 0.0
O20 O 0.90342 0.27709 0.19355 0.0
O21 O 0.91296 0.25768 0.22574 0.0
O22 O 0.91773 0.27694 0.24655 0.0
C23 C 0.88911 0.25723 0.28665 0.0
O24 O 0.88971 0.24369 0.2045 0.0
O25 O 0.87261 0.24649 0.21885 0.0
In26 In 0.73058 0.62806 0.22405 0.0
O27 O 0.75044 0.64055 0.19834 0.0
O28 O 0.74846 0.62292 0.22218 0.0
C29 C 0.71805 0.64385 0.21876 0.0
C30 C 0.73696 0.63369 0.27897 0.0
C31 C 0.71358 0.60595 0.19063 0.0
O32 O 0.73061 0.64821 0.2104 0.0
O33 O 0.71176 0.63142 0.22873 0.0
O34 O 0.71215 0.60509 0.21707 0.0
O35 O 0.72362 0.6176 0.18173 0.0
C36 C 0.75593 0.63315 0.20571 0.0
O37 O 0.72803 0.62122 0.27075 0.0
O38 O 0.74259 0.64272 0.25964 0.0
In39 In 0.09503 0.36131 0.27758 0.0
O40 O 0.09717 0.36832 0.23115 0.0
O41 O 0.09975 0.35071 0.24201 0.0
C42 C 0.09434 0.3819 0.30851 0.0
C43 C 0.11549 0.35841 0.30276 0.0
C44 C 0.06792 0.34036 0.27485 0.0
O45 O 0.10341 0.38501 0.28914 0.0
O46 O 0.08585 0.36879 0.31147 0.0
O47 O 0.07705 0.33923 0.28943 0.0
O48 O 0.07247 0.35212 0.26236 0.0
C49 C 0.09922 0.35838 0.22277 0.0
O50 O 0.10255 0.35099 0.3096 0.0
O51 O 0.11813 0.36762 0.28399 0.0
In52 In 0.63045 0.73111 0.28542 0.0
O53 O 0.62291 0.72608 0.23916 0.0
O54 O 0.64223 0.74504 0.24852 0.0
C55 C 0.60878 0.71474 0.32048 0.0
C56 C 0.63682 0.75652 0.30569 0.0
C57 C 0.64684 0.71904 0.28786 0.0
O58 O 0.60698 0.71413 0.29414 0.0
O59 O 0.62117 0.72362 0.32852 0.0
O60 O 0.65141 0.7318 0.29494 0.0
O61 O 0.63399 0.71237 0.28034 0.0
C62 C 0.63375 0.73714 0.22991 0.0
O63 O 0.64414 0.75068 0.31106 0.0
O64 O 0.62596 0.74931 0.29041 0.0
In65 In 0.25904 0.89646 0.28785 0.0
O66 O 0.2598 0.89044 0.24138 0.0
O67 O 0.24731 0.8998 0.2527 0.0
C68 C 0.27636 0.89193 0.32169 0.0
C69 C 0.23361 0.87688 0.30733 0.0
C70 C 0.27222 0.92488 0.29067 0.0
O71 O 0.27755 0.89199 0.29522 0.0
O72 O 0.26639 0.89371 0.33038 0.0
O73 O 0.26013 0.91707 0.30159 0.0
O74 O 0.27778 0.91829 0.27945 0.0
C75 C 0.25163 0.895 0.23337 0.0
O76 O 0.23934 0.88992 0.31367 0.0
O77 O 0.24089 0.87363 0.29139 0.0
In78 In 0.6279 0.89595 0.78468 0.0
O79 O 0.62121 0.88995 0.73821 0.0
O80 O 0.64318 0.90039 0.74925 0.0
C81 C 0.60553 0.88899 0.81894 0.0
C82 C 0.63621 0.87804 0.80312 0.0
C83 C 0.64046 0.92429 0.78897 0.0
O84 O 0.60436 0.88944 0.79255 0.0
O85 O 0.61758 0.89153 0.82736 0.0
O86 O 0.64587 0.9174 0.79962 0.0
O87 O 0.62865 0.91681 0.77693 0.0
C88 C 0.63401 0.89518 0.73004 0.0
O89 O 0.64277 0.89115 0.80919 0.0
O90 O 0.62522 0.87389 0.78803 0.0
In91 In 0.09857 0.73368 0.78175 0.0
O92 O 0.10617 0.75354 0.80759 0.0
O93 O 0.12182 0.7509 0.78527 0.0
C94 C 0.0702 0.72144 0.78453 0.0
C95 C 0.09971 0.74096 0.72731 0.0
C96 C 0.10235 0.71579 0.81524 0.0
O97 O 0.07831 0.73334 0.79586 0.0
O98 O 0.07645 0.71565 0.77283 0.0
O99 O 0.10382 0.71573 0.78885 0.0
O100 O 0.09938 0.72494 0.8241 0.0
C101 C 0.11915 0.75861 0.80125 0.0
O102 O 0.10211 0.7311 0.73467 0.0
O103 O 0.09738 0.74713 0.74727 0.0
In104 In 0.26361 0.36559 0.7832 0.0
O105 O 0.26192 0.37093 0.73664 0.0
O106 O 0.25828 0.35032 0.74742 0.0
C107 C 0.2787 0.38921 0.81473 0.0
C108 C 0.23646 0.35536 0.79805 0.0
C109 C 0.27989 0.35411 0.79405 0.0
O110 O 0.28147 0.38893 0.78901 0.0
O111 O 0.26797 0.37806 0.82353 0.0
O112 O 0.26766 0.34922 0.80484 0.0
O113 O 0.28388 0.36491 0.77863 0.0
C114 C 0.25883 0.35859 0.72833 0.0
O115 O 0.24359 0.34962 0.80575 0.0
O116 O 0.24315 0.36643 0.78314 0.0
In117 In 0.89355 0.63275 0.72797 0.0
O118 O 0.887 0.64575 0.70161 0.0
O119 O 0.87056 0.62695 0.72124 0.0
C120 C 0.92193 0.64876 0.72965 0.0
C121 C 0.89023 0.63729 0.78233 0.0
C122 C 0.89068 0.61196 0.69298 0.0
O123 O 0.91431 0.65289 0.71738 0.0
O124 O 0.91522 0.63644 0.74009 0.0
O125 O 0.88781 0.60954 0.71889 0.0
O126 O 0.89471 0.62454 0.68538 0.0
C127 C 0.87382 0.63769 0.70593 0.0
O128 O 0.88827 0.6253 0.77411 0.0
O129 O 0.89324 0.64634 0.76314 0.0
In130 In 0.36189 0.25888 0.73644 0.0
O131 O 0.37007 0.25941 0.78141 0.0
O132 O 0.34849 0.24433 0.7709 0.0
C133 C 0.38075 0.27632 0.69794 0.0
C134 C 0.35442 0.23379 0.713 0.0
C135 C 0.34908 0.27388 0.74688 0.0
O136 O 0.38492 0.27464 0.72183 0.0
O137 O 0.36747 0.26921 0.69414 0.0
O138 O 0.34374 0.26342 0.73012 0.0
O139 O 0.36094 0.27689 0.75743 0.0
C140 C 0.35795 0.24953 0.78966 0.0
O141 O 0.34642 0.23921 0.7125 0.0
O142 O 0.36637 0.24127 0.72486 0.0
In143 In 0.73272 0.10141 0.729 0.0
O144 O 0.75282 0.10689 0.70529 0.0
O145 O 0.75103 0.12391 0.72379 0.0
C146 C 0.71681 0.07314 0.73057 0.0
C147 C 0.74041 0.10293 0.78306 0.0
C148 C 0.71654 0.10568 0.69184 0.0
O149 O 0.72868 0.07934 0.71798 0.0
O150 O 0.71294 0.08127 0.74155 0.0
O151 O 0.71686 0.109 0.71751 0.0
O152 O 0.72453 0.10073 0.68558 0.0
C153 C 0.75856 0.12011 0.71003 0.0
O154 O 0.73238 0.10772 0.77527 0.0
O155 O 0.74446 0.09788 0.76365 0.0
In156 In 0.02889 0.43143 0.55669 0.0
O157 O 0.01475 0.43781 0.53377 0.0
O158 O 0.03195 0.45374 0.55784 0.0
C159 C 0.01516 0.40357 0.54543 0.0
C160 C 0.02212 0.42913 0.61167 0.0
C161 C 0.05171 0.43835 0.52381 0.0
O162 O 0.01044 0.41158 0.53766 0.0
O163 O 0.02691 0.40973 0.55828 0.0
O164 O 0.05225 0.43698 0.55013 0.0
O165 O 0.04011 0.43694 0.51503 0.0
C166 C 0.02133 0.45054 0.54227 0.0
O167 O 0.03492 0.43685 0.6036 0.0
O168 O 0.0133 0.42291 0.59225 0.0
In169 In 0.55855 0.59369 0.55816 0.0
O170 O 0.55089 0.57378 0.53186 0.0
O171 O 0.53732 0.57352 0.56459 0.0
C172 C 0.58636 0.60713 0.54598 0.0
C173 C 0.56179 0.59043 0.61333 0.0
C174 C 0.55115 0.61007 0.52795 0.0
O175 O 0.57839 0.59396 0.54153 0.0
O176 O 0.58014 0.61345 0.55544 0.0
O177 O 0.55382 0.61207 0.55394 0.0
O178 O 0.55134 0.59938 0.5181 0.0
C179 C 0.53936 0.56679 0.54522 0.0
O180 O 0.55324 0.59446 0.60503 0.0
O181 O 0.5684 0.58827 0.59403 0.0
In182 In 0.39931 0.96691 0.56007 0.0
O183 O 0.39883 0.96082 0.60684 0.0
O184 O 0.4082 0.98265 0.59542 0.0
C185 C 0.38231 0.94379 0.52862 0.0
C186 C 0.42577 0.97408 0.54471 0.0
C187 C 0.38536 0.98099 0.55008 0.0
O188 O 0.38074 0.94385 0.55494 0.0
O189 O 0.39276 0.95493 0.51897 0.0
O190 O 0.39727 0.98464 0.53892 0.0
O191 O 0.38052 0.97019 0.56575 0.0
C192 C 0.40507 0.9737 0.61484 0.0
O193 O 0.41989 0.9811 0.53736 0.0
O194 O 0.41812 0.96313 0.55937 0.0
In195 In 0.75933 0.69463 0.61547 0.0
O196 O 0.76563 0.70092 0.56886 0.0
O197 O 0.75151 0.67926 0.57953 0.0
C198 C 0.76615 0.71764 0.64765 0.0
C199 C 0.77779 0.68658 0.63202 0.0
C200 C 0.73119 0.68101 0.62379 0.0
O201 O 0.76487 0.71796 0.62127 0.0
O202 O 0.76463 0.7061 0.65704 0.0
O203 O 0.73883 0.67591 0.63181 0.0
O204 O 0.73788 0.69317 0.6126 0.0
C205 C 0.75802 0.68818 0.56042 0.0
O206 O 0.76499 0.6804 0.64014 0.0
O207 O 0.7814 0.69709 0.61586 0.0
In208 In 0.29333 0.06439 0.60499 0.0
O209 O 0.28364 0.05934 0.56059 0.0
O210 O 0.30046 0.08027 0.56936 0.0
C211 C 0.27465 0.04466 0.64131 0.0
C212 C 0.30137 0.08891 0.6319 0.0
C213 C 0.31103 0.05498 0.59083 0.0
O214 O 0.27046 0.04981 0.62218 0.0
O215 O 0.28786 0.04932 0.64146 0.0
O216 O 0.31425 0.06429 0.60971 0.0
O217 O 0.29884 0.05018 0.5802 0.0
C218 C 0.29238 0.07158 0.55113 0.0
O219 O 0.30946 0.0837 0.62928 0.0
O220 O 0.28907 0.08153 0.62144 0.0
In221 In 0.92837 0.22728 0.60783 0.0
O222 O 0.90995 0.22446 0.63463 0.0
O223 O 0.91096 0.20588 0.62352 0.0
C224 C 0.93971 0.255 0.59666 0.0
C225 C 0.92012 0.22012 0.55407 0.0
C226 C 0.94737 0.22672 0.64366 0.0
O227 O 0.92867 0.24835 0.61165 0.0
O228 O 0.94509 0.24771 0.58814 0.0
O229 O 0.94252 0.21815 0.62313 0.0
O230 O 0.9427 0.23523 0.64543 0.0
C231 C 0.90427 0.21106 0.63598 0.0
O232 O 0.93215 0.22235 0.56254 0.0
O233 O 0.91221 0.22044 0.57303 0.0
In234 In 0.29272 0.22465 0.12104 0.0
O235 O 0.30544 0.21808 0.14811 0.0
O236 O 0.28782 0.2018 0.12523 0.0
C237 C 0.30776 0.25305 0.12473 0.0
C238 C 0.29956 0.22303 0.06725 0.0
C239 C 0.27026 0.22004 0.15302 0.0
O240 O 0.31185 0.24524 0.13635 0.0
O241 O 0.29598 0.24647 0.11213 0.0
O242 O 0.2698 0.22062 0.12651 0.0
O243 O 0.28163 0.22126 0.16268 0.0
C244 C 0.29814 0.20503 0.1418 0.0
O245 O 0.28678 0.21895 0.0742 0.0
O246 O 0.30832 0.22751 0.08723 0.0
In247 In 0.76642 0.0666 0.11791 0.0
O248 O 0.77352 0.06785 0.07167 0.0
O249 O 0.7615 0.07766 0.0839 0.0
C250 C 0.77251 0.05069 0.15244 0.0
C251 C 0.78401 0.09273 0.13692 0.0
C252 C 0.73819 0.04991 0.11809 0.0
O253 O 0.77317 0.04979 0.126 0.0
O254 O 0.76936 0.0598 0.16076 0.0
O255 O 0.7443 0.06115 0.13269 0.0
O256 O 0.74638 0.04702 0.1044 0.0
C257 C 0.76755 0.07489 0.06433 0.0
O258 O 0.77079 0.0862 0.1422 0.0
O259 O 0.7884 0.08585 0.12258 0.0
In260 In 0.92905 0.69843 0.11824 0.0
O261 O 0.90963 0.68268 0.14254 0.0
O262 O 0.90839 0.69891 0.11944 0.0
C263 C 0.94573 0.68712 0.12614 0.0
C264 C 0.92362 0.69184 0.06331 0.0
C265 C 0.94393 0.7217 0.15063 0.0
O266 O 0.9332 0.68136 0.13574 0.0
O267 O 0.94988 0.69872 0.11334 0.0
O268 O 0.94573 0.72217 0.1243 0.0
O269 O 0.93428 0.70989 0.15979 0.0
C270 C 0.90216 0.68805 0.13504 0.0
O271 O 0.92775 0.70437 0.07198 0.0
O272 O 0.92241 0.68317 0.08214 0.0
In273 In 0.55954 0.96172 0.06578 0.0
O274 O 0.55372 0.95558 0.11237 0.0
O275 O 0.56019 0.97673 0.09885 0.0
C276 C 0.55507 0.94029 0.03099 0.0
C277 C 0.5414 0.96879 0.04351 0.0
C278 C 0.58788 0.97469 0.06885 0.0
O279 O 0.55207 0.93802 0.05691 0.0
O280 O 0.5599 0.95301 0.02331 0.0
O281 O 0.58169 0.97937 0.0533 0.0
O282 O 0.57977 0.96342 0.08206 0.0
C283 C 0.55645 0.96805 0.11896 0.0
O284 O 0.55474 0.97623 0.04006 0.0
O285 O 0.53718 0.95755 0.05787 0.0
In286 In 0.03106 0.59589 0.06209 0.0
O287 O 0.01598 0.57621 0.03787 0.0
O288 O 0.03444 0.57709 0.05627 0.0
C289 C 0.01866 0.61182 0.06402 0.0
C290 C 0.0256 0.58802 0.11627 0.0
C291 C 0.05186 0.61166 0.02519 0.0
O292 O 0.0129 0.59991 0.05167 0.0
O293 O 0.03079 0.61577 0.07437 0.0
O294 O 0.05441 0.61234 0.05131 0.0
O295 O 0.03919 0.60295 0.01831 0.0
C296 C 0.02308 0.57003 0.04226 0.0
O297 O 0.0383 0.5962 0.10795 0.0
O298 O 0.01627 0.5839 0.09732 0.0
In299 In 0.3958 0.42971 0.06452 0.0
O300 O 0.3939 0.43457 0.11121 0.0
O301 O 0.4109 0.43134 0.0985 0.0
C302 C 0.3786 0.43385 0.02961 0.0
C303 C 0.42071 0.44808 0.04147 0.0
C304 C 0.3826 0.40129 0.06725 0.0
O305 O 0.37932 0.43687 0.05549 0.0
O306 O 0.38647 0.42899 0.02204 0.0
O307 O 0.39421 0.40849 0.05424 0.0
O308 O 0.37751 0.40844 0.07789 0.0
C309 C 0.40469 0.43365 0.11838 0.0
O310 O 0.41484 0.43477 0.03778 0.0
O311 O 0.41378 0.45218 0.05645 0.0
In312 In 0.69501 0.76557 0.89678 0.0
O313 O 0.68094 0.77163 0.87296 0.0
O314 O 0.70014 0.78844 0.89076 0.0
C315 C 0.67818 0.73717 0.8971 0.0
C316 C 0.69266 0.76884 0.95235 0.0
C317 C 0.71551 0.76953 0.85973 0.0
O318 O 0.6741 0.74529 0.88702 0.0
O319 O 0.6908 0.74338 0.90606 0.0
O320 O 0.71822 0.77181 0.88568 0.0
O321 O 0.70283 0.76552 0.85307 0.0
C322 C 0.68887 0.78486 0.8769 0.0
O323 O 0.70322 0.76829 0.94245 0.0
O324 O 0.68404 0.76848 0.93426 0.0
In325 In 0.22829 0.92997 0.89589 0.0
O326 O 0.22541 0.91086 0.87154 0.0
O327 O 0.20685 0.91036 0.88832 0.0
C328 C 0.25621 0.94775 0.90025 0.0
C329 C 0.2261 0.92147 0.94956 0.0
C330 C 0.22302 0.94551 0.85882 0.0
O331 O 0.25118 0.93663 0.88529 0.0
O332 O 0.24711 0.94999 0.91216 0.0
O333 O 0.21948 0.94488 0.88443 0.0
O334 O 0.22865 0.93814 0.85262 0.0
C335 C 0.21204 0.90396 0.87481 0.0
O336 O 0.22026 0.92852 0.94143 0.0
O337 O 0.23246 0.91869 0.93061 0.0
In338 In 0.06483 0.29446 0.89064 0.0
O339 O 0.08446 0.30864 0.86523 0.0
O340 O 0.0828 0.28987 0.88373 0.0
C341 C 0.04951 0.30747 0.89347 0.0
C342 C 0.07347 0.3009 0.94411 0.0
C343 C 0.04779 0.27346 0.85531 0.0
O344 O 0.06058 0.31227 0.87839 0.0
O345 O 0.0461 0.296 0.90625 0.0
O346 O 0.04885 0.2708 0.88088 0.0
O347 O 0.05536 0.28634 0.84835 0.0
C348 C 0.09008 0.30098 0.86919 0.0
O349 O 0.06448 0.2882 0.93707 0.0
O350 O 0.07813 0.30973 0.92419 0.0
In351 In 0.4338 0.03389 0.95154 0.0
O352 O 0.44038 0.04001 0.90522 0.0
O353 O 0.429 0.0181 0.91709 0.0
C354 C 0.44014 0.05586 0.98627 0.0
C355 C 0.45124 0.02513 0.97064 0.0
C356 C 0.40562 0.02285 0.95303 0.0
O357 O 0.44156 0.05766 0.9599 0.0
O358 O 0.43617 0.04337 0.99441 0.0
O359 O 0.41174 0.01753 0.96704 0.0
O360 O 0.41377 0.03374 0.93883 0.0
C361 C 0.43468 0.02706 0.8976 0.0
O362 O 0.43798 0.01839 0.9754 0.0
O363 O 0.45574 0.0365 0.9566 0.0
In364 In 0.96185 0.39855 0.9462 0.0
O365 O 0.97715 0.41836 0.96989 0.0
O366 O 0.95802 0.41696 0.95402 0.0
C367 C 0.97479 0.38315 0.94281 0.0
C368 C 0.96669 0.40655 0.89208 0.0
C369 C 0.94137 0.38224 0.98326 0.0
O370 O 0.97977 0.39432 0.95757 0.0
O371 O 0.96321 0.3797 0.93046 0.0
O372 O 0.93829 0.38306 0.95787 0.0
O373 O 0.9544 0.38967 0.98921 0.0
C374 C 0.96965 0.42423 0.96706 0.0
O375 O 0.95431 0.39735 0.90044 0.0
O376 O 0.97603 0.4117 0.91105 0.0
In377 In 0.59182 0.56029 0.9484 0.0
O378 O 0.59447 0.55553 0.90215 0.0
O379 O 0.57843 0.56058 0.91281 0.0
C380 C 0.6093 0.55635 0.98287 0.0
C381 C 0.56654 0.54088 0.96873 0.0
C382 C 0.60422 0.58871 0.94887 0.0
O383 O 0.60913 0.55422 0.95669 0.0
O384 O 0.60063 0.56011 0.99105 0.0
O385 O 0.59248 0.58084 0.96095 0.0
O386 O 0.60985 0.58222 0.93751 0.0
C387 C 0.5846 0.55768 0.89372 0.0
O388 O 0.5721 0.55402 0.97387 0.0
O389 O 0.57396 0.53742 0.95366 0.0
In390 In 0.96538 0.56604 0.45304 0.0
O391 O 0.97876 0.55978 0.47899 0.0
O392 O 0.96196 0.54365 0.45435 0.0
C393 C 0.97998 0.59429 0.46 0.0
C394 C 0.97215 0.56622 0.39846 0.0
C395 C 0.94229 0.55979 0.48458 0.0
O396 O 0.98429 0.5863 0.46987 0.0
O397 O 0.96806 0.58792 0.44784 0.0
O398 O 0.94239 0.56178 0.45837 0.0
O399 O 0.95346 0.5605 0.4941 0.0
C400 C 0.97218 0.54692 0.47115 0.0
O401 O 0.95925 0.55972 0.40643 0.0
O402 O 0.98108 0.57219 0.41783 0.0
In403 In 0.43063 0.39678 0.44313 0.0
O404 O 0.43476 0.4179 0.46021 0.0
O405 O 0.45126 0.41274 0.46482 0.0
C406 C 0.40357 0.38953 0.43258 0.0
C407 C 0.43898 0.40209 0.38879 0.0
C408 C 0.42889 0.37682 0.4798 0.0
O409 O 0.41064 0.39814 0.45192 0.0
O410 O 0.41003 0.3844 0.41934 0.0
O411 O 0.43812 0.38154 0.46043 0.0
O412 O 0.42077 0.38197 0.47997 0.0
C413 C 0.44715 0.42165 0.46889 0.0
O414 O 0.43268 0.38961 0.39873 0.0
O415 O 0.44234 0.41172 0.40685 0.0
In416 In 0.59564 0.03381 0.44349 0.0
O417 O 0.57669 0.01856 0.46945 0.0
O418 O 0.57835 0.03838 0.45789 0.0
C419 C 0.60352 0.01442 0.43383 0.0
C420 C 0.58986 0.03496 0.3886 0.0
C421 C 0.61487 0.05264 0.48034 0.0
O422 O 0.59217 0.01134 0.44675 0.0
O423 O 0.61096 0.02728 0.42662 0.0
O424 O 0.61066 0.05683 0.45955 0.0
O425 O 0.60951 0.03936 0.48187 0.0
C426 C 0.57128 0.02652 0.47026 0.0
O427 O 0.60233 0.04217 0.39833 0.0
O428 O 0.58042 0.0284 0.40686 0.0
In429 In 0.22566 0.29698 0.40035 0.0
O430 O 0.22592 0.28912 0.44529 0.0
O431 O 0.21536 0.30078 0.43843 0.0
C432 C 0.2229 0.27706 0.36258 0.0
C433 C 0.20892 0.30659 0.381 0.0
C434 C 0.25383 0.31533 0.40222 0.0
O435 O 0.21806 0.27365 0.38726 0.0
O436 O 0.2288 0.29017 0.35743 0.0
O437 O 0.2456 0.31749 0.38699 0.0
O438 O 0.24787 0.30392 0.41604 0.0
C439 C 0.21967 0.29516 0.45603 0.0
O440 O 0.22165 0.31476 0.38858 0.0
O441 O 0.20455 0.29339 0.38295 0.0
In442 In 0.69275 0.92781 0.39278 0.0
O443 O 0.69967 0.93096 0.43945 0.0
O444 O 0.67882 0.91459 0.42848 0.0
C445 C 0.71468 0.94573 0.35953 0.0
C446 C 0.68771 0.90259 0.37353 0.0
C447 C 0.67583 0.93916 0.38877 0.0
O448 O 0.716 0.94589 0.38596 0.0
O449 O 0.70265 0.93648 0.3505 0.0
O450 O 0.67268 0.92743 0.37753 0.0
O451 O 0.68765 0.94529 0.40129 0.0
C452 C 0.68768 0.92101 0.44776 0.0
O453 O 0.68004 0.90792 0.36734 0.0
O454 O 0.69828 0.9102 0.38916 0.0
In455 In 0.06106 0.76656 0.39863 0.0
O456 O 0.06927 0.77796 0.44094 0.0
O457 O 0.05169 0.75704 0.44154 0.0
C458 C 0.04438 0.77244 0.36508 0.0
C459 C 0.08783 0.78396 0.38169 0.0
C460 C 0.0547 0.7395 0.39035 0.0
O461 O 0.04136 0.76909 0.39056 0.0
O462 O 0.05587 0.77334 0.3573 0.0
O463 O 0.06659 0.74894 0.39969 0.0
O464 O 0.04622 0.74386 0.38418 0.0
C465 C 0.06086 0.7674 0.45559 0.0
O466 O 0.08116 0.77082 0.3761 0.0
O467 O 0.0809 0.7884 0.39565 0.0
H468 H 0.29832 0.94348 0.26979 0.0
H469 H 0.30741 0.96843 0.25774 0.0
H470 H 0.26941 0.96613 0.29143 0.0
H471 H 0.26024 0.9411 0.30387 0.0
H472 H 0.29232 0.97712 0.22035 0.0
H473 H 0.30271 0.00328 0.32506 0.0
H474 H 0.30116 0.98605 0.32017 0.0
H475 H 0.28554 0.98775 0.31957 0.0
C476 C 0.29201 0.94835 0.27515 0.0
C477 C 0.27857 0.94037 0.28771 0.0
C478 C 0.29719 0.96256 0.26815 0.0
C479 C 0.28905 0.96904 0.27369 0.0
C480 C 0.27588 0.96131 0.28727 0.0
H481 H 0.31632 0.05814 0.23904 0.0
H482 H 0.30024 0.03277 0.24781 0.0
C483 C 0.27068 0.94705 0.29436 0.0
C484 C 0.2941 0.98363 0.26355 0.0
H485 H 0.30792 0.01793 0.28538 0.0
C486 C 0.29562 0.98605 0.23452 0.0
C487 C 0.2982 0.99515 0.28214 0.0
C488 C 0.29694 0.99304 0.3135 0.0
C489 C 0.30162 -0.00016 0.22357 0.0
C490 C 0.30636 0.01144 0.24222 0.0
C491 C 0.30423 0.00896 0.27118 0.0
C492 C 0.31491 0.02629 0.23253 0.0
C493 C 0.30303 0.0019 0.19222 0.0
C494 C 0.32832 0.03092 0.22046 0.0
C495 C 0.33752 0.04536 0.21549 0.0
C496 C 0.33345 0.05538 0.22264 0.0
C497 C 0.31971 0.05063 0.23326 0.0
C498 C 0.31053 0.03618 0.23834 0.0
H499 H 0.2951 0.99217 0.18097 0.0
H500 H 0.30168 0.01098 0.18565 0.0
H501 H 0.3138 0.00419 0.18572 0.0
H502 H 0.33199 0.02347 0.21631 0.0
H503 H 0.34806 0.04873 0.20737 0.0
H504 H 0.05504 0.31413 0.30001 0.0
H505 H 0.03013 0.29513 0.29473 0.0
H506 H 0.02262 0.32177 0.23829 0.0
H507 H 0.04729 0.34058 0.24318 0.0
H508 H 0.00613 0.29661 0.30797 0.0
H509 H 0.00544 0.28432 0.19562 0.0
H510 H 0.02178 0.29377 0.21543 0.0
H511 H 0.01349 0.30315 0.20079 0.0
C512 C 0.04806 0.31584 0.28633 0.0
C513 C 0.05307 0.3288 0.27197 0.0
C514 C 0.0339 0.30499 0.28328 0.0
C515 C 0.02467 0.30694 0.2656 0.0
C516 C 0.02969 0.3199 0.25138 0.0
H517 H 0.94309 0.2918 0.26493 0.0
H518 H 0.96735 0.29713 0.27406 0.0
C519 C 0.04375 0.3307 0.25444 0.0
C520 C 0.00945 0.29612 0.26351 0.0
H521 H 0.98295 0.28063 0.21501 0.0
C522 C 0.00106 0.29275 0.28776 0.0
C523 C 0.00287 0.29078 0.23727 0.0
C524 C 0.01141 0.29307 0.21087 0.0
C525 C 0.98617 0.28545 0.286 0.0
C526 C 0.97964 0.28173 0.2593 0.0
C527 C 0.98799 0.28375 0.23543 0.0
C528 C 0.96459 0.27774 0.25524 0.0
C529 C 0.97761 0.28239 0.31261 0.0
C530 C 0.95512 0.26527 0.24082 0.0
C531 C 0.94123 0.26228 0.23522 0.0
C532 C 0.93672 0.27179 0.24379 0.0
C533 C 0.94625 0.28425 0.25815 0.0
C534 C 0.96007 0.28723 0.26369 0.0
H535 H 0.98322 0.28082 0.33055 0.0
H536 H 0.97623 0.29162 0.31764 0.0
H537 H 0.96692 0.27278 0.31043 0.0
H538 H 0.9585 0.25793 0.23378 0.0
H539 H 0.93407 0.25258 0.22413 0.0
H540 H 0.69041 0.63578 0.22874 0.0
H541 H 0.68075 0.65122 0.24017 0.0
H542 H 0.722 0.68822 0.22613 0.0
H543 H 0.73169 0.67278 0.21401 0.0
H544 H 0.69081 0.66977 0.28535 0.0
H545 H 0.69505 0.6986 0.186 0.0
H546 H 0.6961 0.6825 0.18691 0.0
H547 H 0.71108 0.69913 0.1976 0.0
C548 C 0.69734 0.6472 0.22743 0.0
C549 C 0.71179 0.65311 0.22056 0.0
C550 C 0.69183 0.656 0.23404 0.0
C551 C 0.70067 0.67083 0.23398 0.0
C552 C 0.71496 0.6768 0.22589 0.0
H553 H 0.67589 0.7328 0.28829 0.0
H554 H 0.69096 0.72236 0.27836 0.0
C555 C 0.72047 0.66798 0.219 0.0
C556 C 0.69509 0.67983 0.24475 0.0
H557 H 0.68654 0.70496 0.22583 0.0
C558 C 0.68995 0.67753 0.27239 0.0
C559 C 0.69417 0.69005 0.22786 0.0
C560 C 0.69928 0.6927 0.19787 0.0
C561 C 0.68344 0.68484 0.28331 0.0
C562 C 0.68204 0.69463 0.26609 0.0
C563 C 0.68773 0.69743 0.2389 0.0
C564 C 0.6733 0.70084 0.27477 0.0
C565 C 0.67782 0.68183 0.31293 0.0
C566 C 0.65849 0.6921 0.27626 0.0
C567 C 0.6499 0.698 0.28167 0.0
C568 C 0.65603 0.71272 0.2858 0.0
C569 C 0.67092 0.7214 0.28535 0.0
C570 C 0.67952 0.71549 0.2796 0.0
H571 H 0.68263 0.67667 0.32545 0.0
H572 H 0.67993 0.6918 0.32359 0.0
H573 H 0.66612 0.67456 0.31242 0.0
H574 H 0.65355 0.68078 0.27229 0.0
H575 H 0.63845 0.69108 0.28187 0.0
H576 H 0.66763 0.9429 0.80591 0.0
H577 H 0.68095 0.96865 0.79769 0.0
H578 H 0.64358 0.96654 0.761 0.0
H579 H 0.63027 0.94087 0.76884 0.0
H580 H 0.66825 0.97972 0.72704 0.0
H581 H 0.67837 0.00168 0.83535 0.0
H582 H 0.68301 0.98818 0.82878 0.0
H583 H 0.66468 0.98368 0.82737 0.0
C584 C 0.6622 0.94799 0.7966 0.0
C585 C 0.64795 0.93992 0.78791 0.0
C586 C 0.6698 0.96267 0.79197 0.0
C587 C 0.66319 0.96942 0.77884 0.0
C588 C 0.64883 0.96146 0.77115 0.0
H589 H 0.69117 0.05795 0.75633 0.0
H590 H 0.6784 0.0325 0.76669 0.0
C591 C 0.64125 0.94683 0.7757 0.0
C592 C 0.67145 0.98458 0.77115 0.0
H593 H 0.68957 0.01809 0.7983 0.0
C594 C 0.67294 0.98814 0.74257 0.0
C595 C 0.67745 0.99544 0.79156 0.0
C596 C 0.67574 0.99213 0.82251 0.0
C597 C 0.68025 0.00236 0.7338 0.0
C598 C 0.68635 0.01321 0.7542 0.0
C599 C 0.68491 0.00967 0.78278 0.0
C600 C 0.69381 0.02838 0.74641 0.0
C601 C 0.68111 0.00567 0.7029 0.0
C602 C 0.70662 0.03438 0.73131 0.0
C603 C 0.71393 0.04892 0.72524 0.0
C604 C 0.70854 0.05762 0.73436 0.0
C605 C 0.69557 0.0515 0.74901 0.0
C606 C 0.68829 0.03699 0.75503 0.0
H607 H 0.67337 0.99631 0.69049 0.0
H608 H 0.67909 0.0146 0.69903 0.0
H609 H 0.69197 0.00893 0.69517 0.0
H610 H 0.71111 0.02788 0.72482 0.0
H611 H 0.72396 0.0534 0.71408 0.0
H612 H 0.05123 0.69616 0.76117 0.0
H613 H 0.02598 0.68713 0.75252 0.0
H614 H 0.02882 0.72386 0.79363 0.0
H615 H 0.05425 0.73304 0.80255 0.0
H616 H 0.00447 0.69674 0.80859 0.0
H617 H 0.01122 0.70501 0.69367 0.0
H618 H 0.01948 0.69553 0.70763 0.0
H619 H 0.02587 0.71366 0.71803 0.0
C620 C 0.04648 0.70228 0.7686 0.0
C621 C 0.0547 0.71534 0.78238 0.0
C622 C 0.0321 0.69716 0.76345 0.0
C623 C 0.0257 0.70502 0.77188 0.0
C624 C 0.03368 0.71777 0.78672 0.0
H625 H 0.93868 0.67643 0.71309 0.0
H626 H 0.96398 0.69218 0.72391 0.0
C627 C 0.04814 0.72294 0.79188 0.0
C628 C 0.01063 0.69972 0.76511 0.0
H629 H 0.98753 0.68886 0.70998 0.0
C630 C 0.00075 0.69523 0.78708 0.0
C631 C 0.00589 0.69803 0.73701 0.0
C632 C 0.01618 0.70344 0.71271 0.0
C633 C 0.9861 0.68819 0.78158 0.0
C634 C 0.98135 0.68547 0.75346 0.0
C635 C 0.99125 0.69082 0.73152 0.0
C636 C 0.96621 0.6761 0.74647 0.0
C637 C 0.97584 0.68342 0.8059 0.0
C638 C 0.95934 0.66181 0.75486 0.0
C639 C 0.94502 0.65283 0.74863 0.0
C640 C 0.93735 0.65799 0.73376 0.0
C641 C 0.94436 0.6722 0.72459 0.0
C642 C 0.95874 0.6812 0.73083 0.0
H643 H 0.98089 0.6899 0.82495 0.0
H644 H 0.96623 0.68413 0.80068 0.0
H645 H 0.9724 0.67217 0.81094 0.0
H646 H 0.96506 0.65762 0.76634 0.0
H647 H 0.93991 0.64191 0.75586 0.0
H648 H 0.3289 0.27638 0.71729 0.0
H649 H 0.31753 0.29021 0.73052 0.0
H650 H 0.34092 0.30189 0.80845 0.0
H651 H 0.3528 0.28877 0.79467 0.0
H652 H 0.30082 0.28807 0.77257 0.0
H653 H 0.35061 0.34018 0.78005 0.0
H654 H 0.3502 0.32465 0.76556 0.0
H655 H 0.35061 0.3271 0.80298 0.0
C656 C 0.33164 0.282 0.73713 0.0
C657 C 0.34185 0.28175 0.75478 0.0
C658 C 0.32514 0.28984 0.74471 0.0
C659 C 0.32863 0.29734 0.7702 0.0
C660 C 0.33843 0.2966 0.78829 0.0
H661 H 0.27542 0.33226 0.82912 0.0
H662 H 0.28777 0.31851 0.82789 0.0
C663 C 0.34515 0.28904 0.78045 0.0
C664 C 0.32199 0.30591 0.77784 0.0
H665 H 0.32955 0.33935 0.79616 0.0
C666 C 0.30708 0.2993 0.77769 0.0
C667 C 0.33022 0.32057 0.78434 0.0
C668 C 0.34629 0.32857 0.78298 0.0
C669 C 0.30015 0.307 0.7833 0.0
C670 C 0.30838 0.3216 0.79035 0.0
C671 C 0.32328 0.32812 0.79112 0.0
C672 C 0.30191 0.33068 0.79392 0.0
C673 C 0.28416 0.29957 0.78032 0.0
C674 C 0.30635 0.34257 0.77647 0.0
C675 C 0.29962 0.35061 0.77767 0.0
C676 C 0.28819 0.34681 0.79612 0.0
C677 C 0.28414 0.33531 0.81453 0.0
C678 C 0.29108 0.32739 0.81366 0.0
H679 H 0.27994 0.28952 0.76818 0.0
H680 H 0.27921 0.29686 0.80144 0.0
H681 H 0.28081 0.30653 0.76971 0.0
H682 H 0.31473 0.34535 0.76117 0.0
H683 H 0.30299 0.35943 0.76323 0.0
H684 H 0.02378 0.38468 0.55825 0.0
H685 H 0.0089 0.35885 0.56174 0.0
H686 H 0.97275 0.36145 0.53168 0.0
H687 H 0.98764 0.38736 0.52781 0.0
H688 H 0.98453 0.34687 0.59759 0.0
H689 H 0.97123 0.32752 0.48753 0.0
H690 H 0.9864 0.34458 0.4963 0.0
H691 H 0.9688 0.34218 0.49738 0.0
C692 C 0.01274 0.37973 0.5518 0.0
C693 C 0.00682 0.38799 0.54293 0.0
C694 C 0.00427 0.365 0.55383 0.0
C695 C 0.98978 0.35832 0.54695 0.0
C696 C 0.98397 0.36644 0.53674 0.0
H697 H 0.9302 0.27314 0.61164 0.0
H698 H 0.94069 0.2983 0.59862 0.0
C699 C 0.99247 0.38122 0.53462 0.0
C700 C 0.98058 0.3431 0.55332 0.0
H701 H 0.96077 0.31037 0.52351 0.0
C702 C 0.97925 0.33886 0.58146 0.0
C703 C 0.97374 0.33281 0.53211 0.0
C704 C 0.97513 0.33691 0.50157 0.0
C705 C 0.97153 0.32449 0.58899 0.0
C706 C 0.96481 0.31415 0.56778 0.0
C707 C 0.96587 0.3184 0.53966 0.0
C708 C 0.95778 0.29884 0.57422 0.0
C709 C 0.9711 0.32043 0.61941 0.0
C710 C 0.9638 0.29088 0.56432 0.0
C711 C 0.95788 0.27661 0.57167 0.0
C712 C 0.9458 0.27006 0.589 0.0
C713 C 0.93959 0.27798 0.59846 0.0
C714 C 0.94554 0.2923 0.59106 0.0
H715 H 0.97893 0.3295 0.63233 0.0
H716 H 0.96032 0.31683 0.62799 0.0
H717 H 0.97331 0.31152 0.62152 0.0
H718 H 0.97327 0.29579 0.55134 0.0
H719 H 0.96283 0.27074 0.56392 0.0
H720 H 0.60518 0.63548 0.54634 0.0
H721 H 0.63039 0.64687 0.55862 0.0
H722 H 0.62774 0.60585 0.56006 0.0
H723 H 0.60258 0.59442 0.54707 0.0
H724 H 0.63797 0.64048 0.60937 0.0
H725 H 0.66597 0.63085 0.52186 0.0
H726 H 0.6486 0.62907 0.51775 0.0
H727 H 0.65041 0.61525 0.53461 0.0
C728 C 0.61011 0.62895 0.54833 0.0
C729 C 0.60197 0.61409 0.54591 0.0
C730 C 0.62446 0.63545 0.55545 0.0
C731 C 0.63088 0.62718 0.56032 0.0
C732 C 0.62303 0.61243 0.55598 0.0
H733 H 0.7145 0.65235 0.63068 0.0
H734 H 0.68912 0.63797 0.61936 0.0
C735 C 0.60867 0.60591 0.54856 0.0
C736 C 0.64514 0.63384 0.57326 0.0
H737 H 0.67916 0.64077 0.56355 0.0
C738 C 0.64699 0.64055 0.59934 0.0
C739 C 0.65678 0.63371 0.56027 0.0
C740 C 0.65543 0.62694 0.53197 0.0
C741 C 0.66028 0.64741 0.61259 0.0
C742 C 0.67197 0.64757 0.59931 0.0
C743 C 0.67007 0.64051 0.57365 0.0
C744 C 0.68652 0.65608 0.61037 0.0
C745 C 0.66177 0.65451 0.64056 0.0
C746 C 0.69324 0.67097 0.60968 0.0
C747 C 0.70768 0.67917 0.61596 0.0
C748 C 0.71557 0.67258 0.62306 0.0
C749 C 0.70862 0.65768 0.62542 0.0
C750 C 0.69418 0.64947 0.61885 0.0
H751 H 0.6513 0.6505 0.65107 0.0
H752 H 0.66893 0.6528 0.65466 0.0
H753 H 0.66651 0.66615 0.63733 0.0
H754 H 0.68749 0.67622 0.60287 0.0
H755 H 0.7128 0.69064 0.61395 0.0
H756 H 0.33242 0.05449 0.62005 0.0
H757 H 0.34694 0.04427 0.60447 0.0
H758 H 0.32639 0.03514 0.52351 0.0
H759 H 0.31139 0.04461 0.53955 0.0
H760 H 0.32585 0.01283 0.54211 0.0
H761 H 0.3808 0.05726 0.55534 0.0
H762 H 0.37112 0.054 0.58751 0.0
H763 H 0.3656 0.05982 0.557 0.0
C764 C 0.33118 0.05045 0.59885 0.0
C765 C 0.32076 0.05017 0.58106 0.0
C766 C 0.33956 0.04476 0.58984 0.0
C767 C 0.33792 0.03914 0.56263 0.0
C768 C 0.32786 0.03942 0.54455 0.0
H769 H 0.39293 0.00419 0.51657 0.0
H770 H 0.38128 0.01859 0.51393 0.0
C771 C 0.31928 0.04478 0.55375 0.0
C772 C 0.34547 0.03154 0.55412 0.0
H773 H 0.37786 0.03354 0.55529 0.0
C774 C 0.33727 0.01748 0.54448 0.0
C775 C 0.3604 0.03766 0.55659 0.0
C776 C 0.36998 0.05307 0.56437 0.0
C777 C 0.34346 0.00912 0.53883 0.0
C778 C 0.35816 0.01481 0.54391 0.0
C779 C 0.36653 0.02912 0.55185 0.0
C780 C 0.36472 0.00572 0.54372 0.0
C781 C 0.33413 0.99421 0.52789 0.0
C782 C 0.35927 0.9938 0.56137 0.0
C783 C 0.36577 0.98554 0.56269 0.0
C784 C 0.37801 0.9892 0.54676 0.0
C785 C 0.38347 0.00111 0.52898 0.0
C786 C 0.37686 0.00934 0.52749 0.0
H787 H 0.32505 0.9934 0.51559 0.0
H788 H 0.34021 0.99077 0.51443 0.0
H789 H 0.32964 0.98675 0.54585 0.0
H790 H 0.35016 0.99105 0.57467 0.0
H791 H 0.36141 0.9765 0.57679 0.0
H792 H 0.35787 0.38407 0.09455 0.0
H793 H 0.34798 0.35895 0.10605 0.0
H794 H 0.38278 0.35864 0.06288 0.0
H795 H 0.39273 0.38386 0.05098 0.0
H796 H 0.35595 0.3355 0.05013 0.0
H797 H 0.36399 0.34299 0.16492 0.0
H798 H 0.35477 0.35145 0.15061 0.0
H799 H 0.37285 0.35746 0.14023 0.0
C800 C 0.36339 0.37865 0.08738 0.0
C801 C 0.37609 0.3859 0.07197 0.0
C802 C 0.35781 0.36436 0.0942 0.0
C803 C 0.36487 0.35711 0.08589 0.0
C804 C 0.37731 0.36417 0.06974 0.0
H805 H 0.33511 0.26968 0.14322 0.0
H806 H 0.35068 0.29525 0.13459 0.0
C807 C 0.38292 0.3785 0.06288 0.0
C808 C 0.35889 0.34202 0.09342 0.0
H809 H 0.34726 0.31931 0.14923 0.0
C810 C 0.35424 0.33195 0.07178 0.0
C811 C 0.35693 0.33748 0.12169 0.0
C812 C 0.36253 0.34792 0.1457 0.0
C813 C 0.34688 0.31736 0.0777 0.0
C814 C 0.34397 0.31284 0.10594 0.0
C815 C 0.34937 0.32288 0.12761 0.0
C816 C 0.3345 0.29777 0.11312 0.0
C817 C 0.34201 0.3069 0.05371 0.0
C818 C 0.32021 0.29101 0.10481 0.0
C819 C 0.31135 0.27654 0.10973 0.0
C820 C 0.31664 0.26862 0.12318 0.0
C821 C 0.33079 0.27556 0.13277 0.0
C822 C 0.33968 0.2901 0.1278 0.0
H823 H 0.34838 0.31178 0.03446 0.0
H824 H 0.34276 0.29736 0.05925 0.0
H825 H 0.33071 0.30338 0.04885 0.0
H826 H 0.31599 0.29689 0.09397 0.0
H827 H 0.30046 0.27148 0.10229 0.0
H828 H 0.60828 0.99583 0.03641 0.0
H829 H 0.63412 0.00822 0.04384 0.0
H830 H 0.62797 0.98318 0.11834 0.0
H831 H 0.60236 0.97044 0.1104 0.0
H832 H 0.64969 0.02448 0.0862 0.0
H833 H 0.6574 0.97791 0.07843 0.0
H834 H 0.64099 0.97711 0.06837 0.0
H835 H 0.64447 0.9753 0.10464 0.0
C836 C 0.61251 0.9929 0.05416 0.0
C837 C 0.6034 0.9821 0.07265 0.0
C838 C 0.62722 -2e-05 0.05842 0.0
C839 C 0.63296 0.9964 0.08132 0.0
C840 C 0.62381 0.98579 0.10005 0.0
H841 H 0.71775 0.05082 0.15017 0.0
H842 H 0.69196 0.03764 0.14214 0.0
C843 C 0.60917 0.97858 0.09557 0.0
C844 C 0.64848 0.00404 0.08631 0.0
H845 H 0.67651 -0.0011 0.09893 0.0
C846 C 0.6556 0.01892 0.08874 0.0
C847 C 0.65617 0.99676 0.08925 0.0
C848 C 0.64938 0.98091 0.08473 0.0
C849 C 0.67022 0.02672 0.09446 0.0
C850 C 0.67776 0.01936 0.09884 0.0
C851 C 0.67065 0.0045 0.09603 0.0
C852 C 0.69319 0.02687 0.1049 0.0
C853 C 0.67747 0.04276 0.09507 0.0
C854 C 0.7023 0.02463 0.08747 0.0
C855 C 0.71689 0.03181 0.09247 0.0
C856 C 0.72266 0.04147 0.11482 0.0
C857 C 0.71354 0.04349 0.13269 0.0
C858 C 0.69886 0.03609 0.12795 0.0
H859 H 0.67125 0.04671 0.08346 0.0
H860 H 0.67844 0.04638 0.11712 0.0
H861 H 0.6883 0.04768 0.08582 0.0
H862 H 0.69814 0.01752 0.06965 0.0
H863 H 0.72368 0.03008 0.07829 0.0
H864 H 0.97284 0.6977 0.10741 0.0
H865 H 0.98523 0.68441 0.09942 0.0
H866 H 0.95006 0.647 0.13609 0.0
H867 H 0.93758 0.66026 0.14439 0.0
H868 H 0.9785 0.65234 0.15072 0.0
H869 H 0.96958 0.65354 0.03624 0.0
H870 H 0.97797 0.67064 0.05309 0.0
H871 H 0.96002 0.6576 0.0622 0.0
C872 C 0.96785 0.68672 0.11425 0.0
C873 C 0.95418 0.67993 0.1262 0.0
C874 C 0.97491 0.67915 0.10957 0.0
C875 C 0.96838 0.6647 0.11665 0.0
C876 C 0.95517 0.65814 0.13032 0.0
H877 H 0.9914 0.60429 0.04963 0.0
H878 H 0.97852 0.61666 0.06268 0.0
C879 C 0.94809 0.66572 0.13508 0.0
C880 C 0.97495 0.65626 0.10806 0.0
H881 H 0.98475 0.64473 0.05025 0.0
C882 C 0.97983 0.6506 0.1288 0.0
C883 C 0.97637 0.65384 0.07943 0.0
C884 C 0.9706 0.6591 0.0564 0.0
C885 C 0.98659 0.64291 0.12155 0.0
C886 C 0.9886 0.64106 0.09289 0.0
C887 C 0.98329 0.64633 0.07219 0.0
C888 C -0.00353 0.63393 0.08396 0.0
C889 C 0.99146 0.63679 0.14457 0.0
C890 C 0.01088 0.63985 0.09085 0.0
C891 C 0.01824 0.63288 0.08338 0.0
C892 C 0.0113 0.61991 0.06877 0.0
C893 C -0.003 0.61428 0.06088 0.0
C894 C 0.98963 0.62128 0.0684 0.0
H895 H 0.98588 0.6359 0.16466 0.0
H896 H 0.98964 0.6261 0.13872 0.0
H897 H 0.00304 0.64388 0.14808 0.0
H898 H 0.0164 0.64979 0.1023 0.0
H899 H 0.02929 0.63751 0.08962 0.0
H900 H 0.5933 0.60501 0.96814 0.0
H901 H 0.60252 0.6304 0.95901 0.0
H902 H 0.63792 0.63248 0.91363 0.0
H903 H 0.62879 0.60722 0.92247 0.0
H904 H 0.62965 0.65407 0.97263 0.0
H905 H 0.6201 0.64846 0.85801 0.0
H906 H 0.61166 0.63358 0.8819 0.0
H907 H 0.62964 0.63995 0.87038 0.0
C908 C 0.60309 0.61093 0.95638 0.0
C909 C 0.61031 0.60417 0.94588 0.0
C910 C 0.60829 0.62537 0.95111 0.0
C911 C 0.62069 0.63314 0.93513 0.0
C912 C 0.62814 0.62652 0.92544 0.0
H913 H 0.68483 0.71833 0.91992 0.0
H914 H 0.66878 0.69313 0.92933 0.0
C915 C 0.62298 0.61214 0.93071 0.0
C916 C 0.62617 0.64831 0.92895 0.0
H917 H 0.63679 0.67193 0.87473 0.0
C918 C 0.631 0.65799 0.95128 0.0
C919 C 0.62765 0.65331 0.90109 0.0
C920 C 0.62185 0.64327 0.87647 0.0
C921 C 0.63817 0.67268 0.94633 0.0
C922 C 0.64066 0.67768 0.91837 0.0
C923 C 0.63499 0.668 0.89612 0.0
C924 C 0.65022 0.69283 0.91186 0.0
C925 C 0.64337 0.68273 0.97099 0.0
C926 C 0.64513 0.70079 0.89796 0.0
C927 C 0.65431 0.71522 0.8924 0.0
C928 C 0.66868 0.72176 0.90048 0.0
C929 C 0.67379 0.71359 0.91355 0.0
C930 C 0.66463 0.69924 0.91915 0.0
H931 H 0.63717 0.67754 0.99027 0.0
H932 H 0.65468 0.68608 0.97515 0.0
H933 H 0.64265 0.69241 0.96663 0.0
H934 H 0.63404 0.69591 0.89193 0.0
H935 H 0.65012 0.72129 0.88228 0.0
H936 H 0.39051 0.02848 0.91509 0.0
H937 H 0.36474 0.01654 0.91002 0.0
H938 H 0.35978 0.9909 0.98299 0.0
H939 H 0.38574 0.00245 0.98743 0.0
H940 H 0.34387 0.97497 0.94184 0.0
H941 H 0.33526 0.02083 0.95141 0.0
H942 H 0.34798 0.02394 0.92441 0.0
H943 H 0.352 0.02203 0.96029 0.0
C944 C 0.38393 0.02043 0.93029 0.0
C945 C 0.39007 0.01638 0.9517 0.0
C946 C 0.3692 0.0137 0.9275 0.0
C947 C 0.36034 0.00306 0.94649 0.0
C948 C 0.36645 -0.00083 0.96823 0.0
H949 H 0.2686 0.96713 0.94193 0.0
H950 H 0.2938 0.98036 0.95422 0.0
C951 C 0.38124 0.00575 0.97077 0.0
C952 C 0.34476 0.99527 0.94214 0.0
H953 H 0.31653 -0.0 0.92871 0.0
C954 C 0.33784 0.98042 0.93936 0.0
C955 C 0.33688 0.00237 0.93931 0.0
C956 C 0.34341 0.01815 0.94433 0.0
C957 C 0.32331 0.9725 0.93294 0.0
C958 C 0.31567 0.97971 0.92813 0.0
C959 C 0.32248 0.99451 0.93183 0.0
C960 C 0.30052 0.97208 0.91981 0.0
C961 C 0.31632 0.95648 0.93176 0.0
C962 C 0.296 0.96333 0.89594 0.0
C963 C 0.28156 0.95557 0.88913 0.0
C964 C 0.27152 0.95675 0.9057 0.0
C965 C 0.27614 0.96604 0.92877 0.0
C966 C 0.29052 0.97359 0.93584 0.0
H967 H 0.32228 0.95257 0.94436 0.0
H968 H 0.30519 0.95129 0.93958 0.0
H969 H 0.31616 0.95313 0.90973 0.0
H970 H 0.30361 0.96238 0.88277 0.0
H971 H 0.27826 0.94857 0.87109 0.0
H972 H 0.05063 0.32897 0.86164 0.0
H973 H 0.03779 0.34189 0.86999 0.0
H974 H 0.01843 0.3164 0.9438 0.0
H975 H 0.03067 0.30311 0.93485 0.0
H976 H -0.00056 0.31888 0.91464 0.0
H977 H 0.04707 0.37234 0.9271 0.0
H978 H 0.04654 0.36445 0.89375 0.0
H979 H 0.04821 0.35633 0.92537 0.0
C980 C 0.04359 0.32614 0.87956 0.0
C981 C 0.04162 0.31508 0.89761 0.0
C982 C 0.03638 0.33359 0.88447 0.0
C983 C 0.0274 0.3303 0.90786 0.0
C984 C 0.02534 0.31914 0.92568 0.0
H985 H -0.0036 0.38446 0.97441 0.0
H986 H 0.00887 0.3711 0.96702 0.0
C987 C 0.03233 0.31155 0.92052 0.0
C988 C 0.01982 0.33818 0.91366 0.0
H989 H 0.0247 0.37141 0.92439 0.0
C990 C 0.00498 0.33036 0.91691 0.0
C991 C 0.02709 0.35314 0.91714 0.0
C992 C 0.04312 0.36204 0.91596 0.0
C993 C -0.00283 0.33708 0.92331 0.0
C994 C 0.00435 0.35209 0.92541 0.0
C995 C 0.01921 0.35991 0.92249 0.0
C996 C -0.00337 0.3599 0.93031 0.0
C997 C 0.98136 0.32796 0.92835 0.0
C998 C 0.98573 0.35811 0.912 0.0
C999 C 0.97846 0.36549 0.9165 0.0
C1000 C 0.98221 0.37506 0.93897 0.0
C1001 C 0.99329 0.37708 0.957 0.0
C1002 C 0.00042 0.3695 0.95276 0.0
H1003 H 0.97849 0.31705 0.9351 0.0
H1004 H 0.97762 0.33269 0.94456 0.0
H1005 H 0.97558 0.327 0.90853 0.0
H1006 H 0.98294 0.35111 0.89404 0.0
H1007 H 0.9701 0.36391 0.90202 0.0
H1008 H 0.06981 0.72737 0.40978 0.0
H1009 H 0.06055 0.70209 0.41956 0.0
H1010 H 0.02017 0.69218 0.38336 0.0
H1011 H 0.02936 0.71732 0.37327 0.0
H1012 H 0.03775 0.68748 0.45543 0.0
H1013 H 0.02618 0.66063 0.35231 0.0
H1014 H 0.03808 0.67954 0.3563 0.0
H1015 H 0.01911 0.67241 0.35512 0.0
C1016 C 0.0591 0.71974 0.40317 0.0
C1017 C 0.05025 0.72428 0.39091 0.0
C1018 C 0.05383 0.70534 0.40883 0.0
C1019 C 0.03973 0.6953 0.40202 0.0
C1020 C 0.03117 0.69973 0.38829 0.0
H1021 H 0.97265 0.61327 0.44058 0.0
H1022 H 0.98874 0.63826 0.42918 0.0
C1023 C 0.03641 0.71411 0.38267 0.0
C1024 C 0.03329 0.68055 0.41241 0.0
H1025 H 0.01301 0.64602 0.39175 0.0
C1026 C 0.03258 0.67837 0.44154 0.0
C1027 C 0.02658 0.66875 0.39418 0.0
C1028 C 0.02764 0.67043 0.36273 0.0
C1029 C 0.02459 0.66469 0.45298 0.0
C1030 C 0.01728 0.653 0.43474 0.0
C1031 C 0.01855 0.6551 0.40562 0.0
C1032 C 0.00754 0.63856 0.44527 0.0
C1033 C 0.02341 0.66288 0.4844 0.0
C1034 C 0.01279 0.63067 0.45887 0.0
C1035 C 0.0036 0.61639 0.46555 0.0
C1036 C 0.98909 0.60985 0.45847 0.0
C1037 C 0.98378 0.61803 0.44623 0.0
C1038 C 0.99295 0.63227 0.43962 0.0
H1039 H 0.02818 0.67324 0.49557 0.0
H1040 H 0.01207 0.65635 0.49071 0.0
H1041 H 0.029 0.65717 0.49127 0.0
H1042 H 0.02407 0.63537 0.46316 0.0
H1043 H 0.00798 0.61029 0.47484 0.0
H1044 H 0.26994 0.33853 0.36916 0.0
H1045 H 0.29592 0.354 0.37046 0.0
H1046 H 0.29819 0.33008 0.44057 0.0
H1047 H 0.27242 0.31448 0.43905 0.0
H1048 H 0.31477 0.37106 0.41361 0.0
H1049 H 0.32414 0.32733 0.38151 0.0
H1050 H 0.30696 0.32607 0.37853 0.0
H1051 H 0.31282 0.32291 0.41168 0.0
C1052 C 0.27601 0.33663 0.38486 0.0
C1053 C 0.26925 0.32522 0.40374 0.0
C1054 C 0.29079 0.34547 0.38562 0.0
C1055 C 0.29891 0.34297 0.40528 0.0
C1056 C 0.29209 0.33195 0.42487 0.0
H1057 H 0.38432 0.39157 0.46623 0.0
H1058 H 0.35898 0.38214 0.45648 0.0
C1059 C 0.27739 0.32308 0.424 0.0
C1060 C 0.31457 0.35147 0.40494 0.0
H1061 H 0.34402 0.34803 0.40069 0.0
C1062 C 0.32123 0.36612 0.41046 0.0
C1063 C 0.3229 0.345 0.40025 0.0
C1064 C 0.31635 0.32949 0.39237 0.0
C1065 C 0.3361 0.37438 0.41262 0.0
C1066 C 0.34437 0.36768 0.40972 0.0
C1067 C 0.33767 0.35314 0.40312 0.0
C1068 C 0.35992 0.37524 0.41429 0.0
C1069 C 0.34279 0.39014 0.41793 0.0
C1070 C 0.3688 0.37441 0.39391 0.0
C1071 C 0.38311 0.37941 0.39973 0.0
C1072 C 0.38881 0.38548 0.42592 0.0
C1073 C 0.38013 0.38697 0.44585 0.0
C1074 C 0.36571 0.38172 0.44019 0.0
H1075 H 0.33583 0.39426 0.41042 0.0
H1076 H 0.34433 0.39215 0.44083 0.0
H1077 H 0.35331 0.39619 0.40749 0.0
H1078 H 0.36454 0.36944 0.37381 0.0
H1079 H 0.38965 0.37829 0.3839 0.0
H1080 H 0.68028 0.96367 0.4131 0.0
H1081 H 0.66327 0.97202 0.418 0.0
H1082 H 0.63207 0.93572 0.37129 0.0
H1083 H 0.64913 0.92724 0.36614 0.0
H1084 H 0.635 0.96275 0.35559 0.0
H1085 H 0.62779 0.95283 0.46993 0.0
H1086 H 0.64619 0.96269 0.45979 0.0
H1087 H 0.63521 0.94472 0.44757 0.0
C1088 C 0.66984 0.95749 0.40371 0.0
C1089 C 0.66598 0.94477 0.38939 0.0
C1090 C 0.66012 0.96222 0.4067 0.0
C1091 C 0.64637 0.95429 0.39552 0.0
C1092 C 0.64261 0.94186 0.3803 0.0
H1093 H 0.58951 0.98606 0.44688 0.0
H1094 H 0.59679 0.96861 0.43491 0.0
C1095 C 0.65235 0.93708 0.37733 0.0
C1096 C 0.63612 0.95926 0.39974 0.0
H1097 H 0.62163 0.96971 0.45137 0.0
C1098 C 0.6318 0.96402 0.37644 0.0
C1099 C 0.63172 0.96057 0.42692 0.0
C1100 C 0.63534 0.95479 0.45247 0.0
C1101 C 0.62411 0.97115 0.37988 0.0
C1102 C 0.62093 0.97369 0.40729 0.0
C1103 C 0.62424 0.96788 0.43039 0.0
C1104 C 0.61581 0.98374 0.41272 0.0
C1105 C 0.61989 0.9763 0.35422 0.0
C1106 C 0.62423 -0.002 0.40455 0.0
C1107 C 0.62018 0.00793 0.41144 0.0
C1108 C 0.60767 0.0038 0.42683 0.0
C1109 C 0.59921 0.98951 0.43502 0.0
C1110 C 0.6033 0.97955 0.42811 0.0
H1111 H 0.61858 0.96952 0.33573 0.0
H1112 H 0.60982 0.9764 0.3577 0.0
H1113 H 0.62841 0.9873 0.34923 0.0
H1114 H 0.63413 0.00152 0.39336 0.0
H1115 H 0.62692 0.01887 0.40489 0.0
H1116 H 0.30616 0.09751 0.52594 0.0
H1117 H 0.31744 0.10294 0.47974 0.0
H1118 H 0.29893 0.05803 0.46316 0.0
H1119 H 0.28725 0.05258 0.50897 0.0
H1120 H 0.33739 0.09695 0.46536 0.0
H1121 H 0.29353 0.0713 0.38837 0.0
H1122 H 0.29047 0.07401 0.42446 0.0
H1123 H 0.29252 0.05908 0.4148 0.0
C1124 C 0.30405 0.0888 0.51198 0.0
C1125 C 0.29572 0.07462 0.52097 0.0
C1126 C 0.31061 0.09191 0.48565 0.0
C1127 C 0.30905 0.08092 0.46781 0.0
C1128 C 0.30007 0.06672 0.47616 0.0
H1129 H 0.35285 0.07483 0.32175 0.0
H1130 H 0.34041 0.0713 0.36637 0.0
C1131 C 0.29335 0.0636 0.50239 0.0
C1132 C 0.31799 0.08434 0.44209 0.0
H1133 H 0.31686 0.0778 0.37176 0.0
C1134 C 0.33286 0.09288 0.44485 0.0
C1135 C 0.31214 0.07902 0.41528 0.0
C1136 C 0.29628 0.07047 0.41046 0.0
C1137 C 0.342 0.09598 0.42174 0.0
C1138 C 0.33615 0.09041 0.39516 0.0
C1139 C 0.32132 0.08198 0.39227 0.0
C1140 C 0.34521 0.09312 0.36999 0.0
C1141 C 0.35787 0.1049 0.42597 0.0
C1142 C 0.35239 0.10668 0.35763 0.0
C1143 C 0.35953 0.10875 0.33204 0.0
C1144 C 0.35961 0.09729 0.31843 0.0
C1145 C 0.35307 0.08391 0.33172 0.0
C1146 C 0.34586 0.08184 0.35714 0.0
H1147 H 0.36082 0.10648 0.44853 0.0
H1148 H 0.3634 0.09985 0.41558 0.0
H1149 H 0.36176 0.1155 0.41622 0.0
H1150 H 0.35192 0.11551 0.36712 0.0
H1151 H 0.36435 0.11915 0.32225 0.0
H1152 H 0.9382 0.23062 0.50903 0.0
H1153 H 0.93246 0.23651 0.46287 0.0
H1154 H 0.88816 0.21634 0.48609 0.0
H1155 H 0.89381 0.21062 0.53214 0.0
H1156 H 0.91343 0.22105 0.41868 0.0
H1157 H 0.89886 0.25782 0.47022 0.0
H1158 H 0.90825 0.25035 0.48825 0.0
H1159 H 0.88929 0.23995 0.48347 0.0
C1160 C 0.92719 0.22707 0.50395 0.0
C1161 C 0.91646 0.22024 0.52423 0.0
C1162 C 0.92394 0.23055 0.47768 0.0
C1163 C 0.90994 0.22722 0.47139 0.0
C1164 C 0.89908 0.21934 0.49078 0.0
H1165 H 0.87466 0.23124 0.31144 0.0
H1166 H 0.87949 0.22447 0.35725 0.0
C1167 C 0.90231 0.21595 0.51698 0.0
C1168 C 0.90673 0.2326 0.44535 0.0
H1169 H 0.89333 0.25332 0.4217 0.0
C1170 C 0.90908 0.22813 0.41931 0.0
C1171 C 0.90132 0.24209 0.44621 0.0
C1172 C 0.89941 0.24796 0.47351 0.0
C1173 C 0.90574 0.23255 0.39412 0.0
C1174 C 0.89968 0.24147 0.39504 0.0
C1175 C 0.89776 0.2463 0.42105 0.0
C1176 C 0.89532 0.24589 0.36912 0.0
C1177 C 0.9089 0.22774 0.36671 0.0
C1178 C 0.90189 0.26031 0.36139 0.0
C1179 C 0.89898 0.26425 0.33529 0.0
C1180 C 0.88945 0.25382 0.31659 0.0
C1181 C 0.88211 0.23952 0.32533 0.0
C1182 C 0.88497 0.23561 0.35139 0.0
H1183 H 0.91689 0.22426 0.36934 0.0
H1184 H 0.89897 0.21857 0.35851 0.0
H1185 H 0.91292 0.23638 0.35084 0.0
H1186 H 0.9098 0.26843 0.37492 0.0
H1187 H 0.90487 0.27533 0.32907 0.0
H1188 H 0.73922 0.6622 0.53988 0.0
H1189 H 0.73671 0.65357 0.49199 0.0
H1190 H 0.77058 0.69465 0.46546 0.0
H1191 H 0.77325 0.70349 0.51397 0.0
H1192 H 0.73053 0.66422 0.44291 0.0
H1193 H 0.78259 0.66591 0.43654 0.0
H1194 H 0.77485 0.66678 0.46949 0.0
H1195 H 0.78313 0.6821 0.44706 0.0
C1196 C 0.74619 0.66947 0.52395 0.0
C1197 C 0.75651 0.68354 0.53078 0.0
C1198 C 0.74469 0.66448 0.49653 0.0
C1199 C 0.75354 0.67338 0.47522 0.0
C1200 C 0.76377 0.68754 0.48172 0.0
H1201 H 0.75835 0.6587 0.29869 0.0
H1202 H 0.7623 0.66766 0.34659 0.0
C1203 C 0.76524 0.6926 0.50935 0.0
C1204 C 0.75181 0.66764 0.44633 0.0
H1205 H 0.76805 0.65821 0.3962 0.0
C1206 C 0.73874 0.66292 0.43265 0.0
C1207 C 0.7625 0.66589 0.4331 0.0
C1208 C 0.77654 0.67032 0.44727 0.0
C1209 C 0.73612 0.65664 0.40594 0.0
C1210 C 0.74675 0.65474 0.3928 0.0
C1211 C 0.75986 0.65955 0.40642 0.0
C1212 C 0.74477 0.64857 0.36422 0.0
C1213 C 0.72211 0.6524 0.39175 0.0
C1214 C 0.73382 0.63463 0.35824 0.0
C1215 C 0.73152 0.62941 0.33066 0.0
C1216 C 0.74015 0.63807 0.30872 0.0
C1217 C 0.75145 0.65177 0.31508 0.0
C1218 C 0.75375 0.65693 0.34249 0.0
H1219 H 0.71653 0.65752 0.4017 0.0
H1220 H 0.72373 0.65531 0.36919 0.0
H1221 H 0.71509 0.6407 0.39331 0.0
H1222 H 0.72693 0.62789 0.37482 0.0
H1223 H 0.72276 0.61882 0.3264 0.0
H1224 H 0.1057 0.33901 0.20229 0.0
H1225 H 0.10261 0.32992 0.15465 0.0
H1226 H 0.08963 0.3597 0.12784 0.0
H1227 H 0.09245 0.36875 0.17609 0.0
H1228 H 0.07118 0.3322 0.11039 0.0
H1229 H 0.1266 0.34658 0.08511 0.0
H1230 H 0.12045 0.33682 0.11731 0.0
H1231 H 0.12224 0.35419 0.11447 0.0
C1232 C 0.10242 0.34383 0.18622 0.0
C1233 C 0.09936 0.35465 0.19295 0.0
C1234 C 0.10072 0.33864 0.1589 0.0
C1235 C 0.09605 0.34422 0.13756 0.0
C1236 C 0.09332 0.35528 0.14399 0.0
H1237 H 0.09439 0.32681 0.96107 0.0
H1238 H 0.09953 0.33649 0.00835 0.0
C1239 C 0.09502 0.36052 0.17148 0.0
C1240 C 0.09322 0.33781 0.10908 0.0
H1241 H 0.10847 0.32936 0.05532 0.0
C1242 C 0.07935 0.33167 0.09823 0.0
C1243 C 0.10389 0.33714 0.0932 0.0
C1244 C 0.11916 0.34416 0.10298 0.0
C1245 C 0.07582 0.32474 0.0721 0.0
C1246 C 0.0864 0.32366 0.05665 0.0
C1247 C 0.1003 0.32996 0.06738 0.0
C1248 C 0.08358 0.31712 0.02829 0.0
C1249 C 0.0609 0.31893 0.061 0.0
C1250 C 0.07314 0.30281 0.02372 0.0
C1251 C 0.07012 0.29718 0.99643 0.0
C1252 C 0.07756 0.30579 0.97341 0.0
C1253 C 0.0884 0.31989 0.97831 0.0
C1254 C 0.09137 0.32547 1.00538 0.0
H1255 H 0.05511 0.32349 0.07219 0.0
H1256 H 0.06104 0.32119 0.03826 0.0
H1257 H 0.05487 0.30721 0.06393 0.0
H1258 H 0.06719 0.29606 0.04117 0.0
H1259 H 0.06173 0.28628 0.99331 0.0
H1260 H 0.62564 0.71823 0.18609 0.0
H1261 H 0.63597 0.72323 0.13869 0.0
H1262 H 0.66062 0.76788 0.15897 0.0
H1263 H 0.65076 0.76289 0.20631 0.0
H1264 H 0.637 0.73935 0.09502 0.0
H1265 H 0.69162 0.76008 0.13542 0.0
H1266 H 0.67612 0.75105 0.15755 0.0
H1267 H 0.68357 0.76967 0.14961 0.0
C1268 C 0.63308 0.72912 0.18019 0.0
C1269 C 0.63749 0.74016 0.1999 0.0
C1270 C 0.63905 0.73197 0.1532 0.0
C1271 C 0.64945 0.74588 0.14555 0.0
C1272 C 0.65303 0.757 0.16466 0.0
H1273 H 0.67638 0.77799 0.97788 0.0
H1274 H 0.6666 0.77243 0.02529 0.0
C1275 C 0.64725 0.75415 0.19162 0.0
C1276 C 0.65675 0.74886 0.11787 0.0
H1277 H 0.68969 0.7652 0.08727 0.0
C1278 C 0.64851 0.7449 0.09334 0.0
C1279 C 0.67179 0.75579 0.11557 0.0
C1280 C 0.68128 0.75925 0.14095 0.0
C1281 C 0.65489 0.74817 0.06667 0.0
C1282 C 0.66994 0.75602 0.06443 0.0
C1283 C 0.67817 0.75946 0.08893 0.0
C1284 C 0.67728 0.76084 0.03687 0.0
C1285 C 0.64537 0.743 0.04118 0.0
C1286 C 0.68742 0.75714 0.02825 0.0
C1287 C 0.69337 0.76068 1.00128 0.0
C1288 C 0.68918 0.7679 0.98253 0.0
C1289 C 0.67972 0.77233 0.99183 0.0
C1290 C 0.67398 0.76899 0.01881 0.0
H1291 H 0.63489 0.73355 0.04615 0.0
H1292 H 0.64338 0.75154 0.03373 0.0
H1293 H 0.65036 0.74017 0.02388 0.0
H1294 H 0.69029 0.751 0.04194 0.0
H1295 H 0.70055 0.75703 0.99457 0.0
H1296 H 0.23345 0.90347 0.21472 0.0
H1297 H 0.22793 0.9064 0.16659 0.0
H1298 H 0.25535 0.89113 0.1364 0.0
H1299 H 0.26098 0.8881 0.18509 0.0
H1300 H 0.24829 0.92425 0.12608 0.0
H1301 H 0.21759 0.86781 0.09141 0.0
H1302 H 0.2205 0.87282 0.12797 0.0
H1303 H 0.23461 0.87336 0.10737 0.0
C1304 C 0.23825 0.90059 0.19794 0.0
C1305 C 0.24769 0.89555 0.20378 0.0
C1306 C 0.23507 0.9023 0.17038 0.0
C1307 C 0.24115 0.89893 0.1479 0.0
C1308 C 0.25039 0.89362 0.15349 0.0
H1309 H 0.23814 0.90642 0.96876 0.0
H1310 H 0.24095 0.90099 0.01697 0.0
C1311 C 0.25363 0.89193 0.18126 0.0
C1312 C 0.23824 0.90169 0.1188 0.0
H1313 H 0.22226 0.88542 0.05731 0.0
C1314 C 0.24258 0.91577 0.11102 0.0
C1315 C 0.23075 0.89061 0.09928 0.0
C1316 C 0.22547 0.87527 0.10684 0.0
C1317 C 0.23991 0.91911 0.08404 0.0
C1318 C 0.23235 0.90802 0.06448 0.0
C1319 C 0.22795 0.89392 0.07235 0.0
C1320 C 0.22978 0.9109 0.03514 0.0
C1321 C 0.24563 0.93454 0.0765 0.0
C1322 C 0.22227 0.91807 0.02906 0.0
C1323 C 0.2207 0.92132 1.00122 0.0
C1324 C 0.22651 0.91732 0.97905 0.0
C1325 C 0.23357 0.90972 0.98527 0.0
C1326 C 0.23517 0.90657 0.01291 0.0
H1327 H 0.25407 0.94181 0.09127 0.0
H1328 H 0.25006 0.93681 0.05492 0.0
H1329 H 0.23684 0.93698 0.07742 0.0
H1330 H 0.21773 0.92125 0.04583 0.0
H1331 H 0.21517 0.92712 0.9971 0.0
H1332 H 0.65992 0.90087 0.71149 0.0
H1333 H 0.66858 0.90425 0.6634 0.0
H1334 H 0.62727 0.89467 0.6331 0.0
H1335 H 0.61841 0.89123 0.68172 0.0
H1336 H 0.6583 0.8851 0.6167 0.0
H1337 H 0.65594 0.9346 0.59918 0.0
H1338 H 0.65521 0.92748 0.63377 0.0
H1339 H 0.63986 0.91932 0.6114 0.0
C1340 C 0.6526 0.89938 0.69465 0.0
C1341 C 0.63848 0.89584 0.70043 0.0
C1342 C 0.65759 0.90131 0.66714 0.0
C1343 C 0.64865 0.8999 0.64469 0.0
C1344 C 0.6344 0.89599 0.6502 0.0
H1345 H 0.6648 0.8972 0.46796 0.0
H1346 H 0.65609 0.89208 0.5161 0.0
C1347 C 0.62933 0.89393 0.6779 0.0
C1348 C 0.65451 0.90277 0.61575 0.0
H1349 H 0.66385 0.92631 0.56134 0.0
C1350 C 0.65945 0.89407 0.60453 0.0
C1351 C 0.65626 0.91464 0.60015 0.0
C1352 C 0.65166 0.92466 0.61169 0.0
C1353 C 0.66594 0.89681 0.57799 0.0
C1354 C 0.66747 0.90853 0.5622 0.0
C1355 C 0.66268 0.91734 0.57352 0.0
C1356 C 0.67343 0.91143 0.53334 0.0
C1357 C 0.67127 0.88725 0.56717 0.0
C1358 C 0.68614 0.92405 0.52697 0.0
C1359 C 0.69124 0.927 0.4993 0.0
C1360 C 0.68357 0.91746 0.47758 0.0
C1361 C 0.67099 0.90476 0.48421 0.0
C1362 C 0.66599 0.90178 0.51176 0.0
H1363 H 0.67242 0.88094 0.58427 0.0
H1364 H 0.66356 0.87971 0.55167 0.0
H1365 H 0.6817 0.89356 0.55649 0.0
H1366 H 0.69201 0.93167 0.54335 0.0
H1367 H 0.70089 0.93692 0.49479 0.0
H1368 H 0.08271 0.78658 0.48858 0.0
H1369 H 0.08959 0.78215 0.5348 0.0
H1370 H 0.0523 0.74036 0.53615 0.0
H1371 H 0.04527 0.74474 0.49013 0.0
H1372 H 0.05794 0.75419 0.58768 0.0
H1373 H 0.10622 0.75568 0.5447 0.0
H1374 H 0.10516 0.77139 0.53764 0.0
H1375 H 0.09221 0.75466 0.52263 0.0
C1376 C 0.07582 0.77656 0.49898 0.0
C1377 C 0.06347 0.76599 0.48563 0.0
C1378 C 0.07986 0.77398 0.52524 0.0
C1379 C 0.07166 0.76078 0.53859 0.0
C1380 C 0.05887 0.75056 0.52611 0.0
H1381 H 0.09653 0.72538 0.67939 0.0
H1382 H 0.09004 0.72976 0.63241 0.0
C1383 C 0.05483 0.75312 0.49985 0.0
C1384 C 0.07655 0.75746 0.56521 0.0
H1385 H 0.10368 0.7543 0.59434 0.0
C1386 C 0.06792 0.75418 0.5891 0.0
C1387 C 0.08944 0.75716 0.56692 0.0
C1388 C 0.09875 0.75977 0.54157 0.0
C1389 C 0.07203 0.75104 0.61484 0.0
C1390 C 0.08521 0.75134 0.61685 0.0
C1391 C 0.09365 0.7542 0.59279 0.0
C1392 C 0.09056 0.74929 0.64412 0.0
C1393 C 0.0622 0.74736 0.63971 0.0
C1394 C 0.09356 0.7591 0.6658 0.0
C1395 C 0.09727 0.75666 0.69238 0.0
C1396 C 0.09816 0.74438 0.69789 0.0
C1397 C 0.09596 0.73495 0.67575 0.0
C1398 C 0.0922 0.7374 0.64899 0.0
H1399 H 0.05112 0.74399 0.63315 0.0
H1400 H 0.06209 0.73871 0.65235 0.0
H1401 H 0.066 0.75687 0.65331 0.0
H1402 H 0.09264 0.76848 0.66236 0.0
H1403 H 0.09901 0.76421 0.7089 0.0
H1404 H 0.23312 0.28913 0.49807 0.0
H1405 H 0.23839 0.29933 0.54538 0.0
H1406 H 0.21382 0.31985 0.52886 0.0
H1407 H 0.20821 0.30941 0.48212 0.0
H1408 H 0.25348 0.3274 0.55609 0.0
H1409 H 0.2007 0.30554 0.60682 0.0
H1410 H 0.20329 0.29813 0.57498 0.0
H1411 H 0.20155 0.31379 0.57373 0.0
C1412 C 0.22844 0.29541 0.50489 0.0
C1413 C 0.22021 0.29841 0.48635 0.0
C1414 C 0.23155 0.30134 0.53186 0.0
C1415 C 0.22645 0.31032 0.54083 0.0
C1416 C 0.21765 0.31274 0.52278 0.0
H1417 H 0.24996 0.36902 0.68468 0.0
H1418 H 0.24245 0.35843 0.63757 0.0
C1419 C 0.21448 0.30677 0.49594 0.0
C1420 C 0.23142 0.31825 0.56778 0.0
H1421 H 0.22008 0.3255 0.6293 0.0
C1422 C 0.24615 0.3269 0.57212 0.0
C1423 C 0.22188 0.31774 0.58867 0.0
C1424 C 0.20598 0.30819 0.58598 0.0
C1425 C 0.25157 0.33502 0.59666 0.0
C1426 C 0.24205 0.33451 0.61742 0.0
C1427 C 0.22734 0.32601 0.61309 0.0
C1428 C 0.24722 0.34157 0.64497 0.0
C1429 C 0.26747 0.34408 0.60038 0.0
C1430 C 0.25244 0.33565 0.66443 0.0
C1431 C 0.25659 0.34155 0.69111 0.0
C1432 C 0.2557 0.35359 0.69892 0.0
C1433 C 0.25085 0.35981 0.67915 0.0
C1434 C 0.2465 0.35374 0.65237 0.0
H1435 H 0.27331 0.34535 0.58048 0.0
H1436 H 0.27028 0.35477 0.60845 0.0
H1437 H 0.27109 0.339 0.61604 0.0
H1438 H 0.25303 0.32624 0.65916 0.0
H1439 H 0.26031 0.33652 0.70584 0.0
H1440 H 0.91802 0.66645 0.04191 0.0
H1441 H 0.91134 0.65768 0.99423 0.0
H1442 H 0.91411 0.69728 0.9699 0.0
H1443 H 0.92114 0.70634 0.018 0.0
H1444 H 0.88809 0.65337 0.96432 0.0
H1445 H 0.93787 0.69213 0.90984 0.0
H1446 H 0.93678 0.69018 0.94748 0.0
H1447 H 0.92962 0.69996 0.93019 0.0
C1448 C 0.91732 0.67339 0.02645 0.0
C1449 C 0.92015 0.68713 0.03375 0.0
C1450 C 0.91345 0.66831 0.99915 0.0
C1451 C 0.91231 0.67682 0.97838 0.0
C1452 C 0.91516 0.6906 0.98547 0.0
H1453 H 0.89089 0.66104 0.80205 0.0
H1454 H 0.89496 0.66991 0.85006 0.0
C1455 C 0.91913 0.69576 0.01295 0.0
C1456 C 0.90787 0.67096 0.94961 0.0
H1457 H 0.91896 0.67562 0.88143 0.0
C1458 C 0.89484 0.65825 0.94618 0.0
C1459 C 0.9167 0.67728 0.92597 0.0
C1460 C 0.93108 0.69057 0.92845 0.0
C1461 C 0.89036 0.65174 0.91978 0.0
C1462 C 0.89922 0.65802 0.89621 0.0
C1463 C 0.91218 0.6708 0.89956 0.0
C1464 C 0.89524 0.6517 0.86771 0.0
C1465 C 0.8761 0.63831 0.91725 0.0
C1466 C 0.89375 0.63832 0.86168 0.0
C1467 C 0.89135 0.63314 0.83407 0.0
C1468 C 0.89052 0.64133 0.8121 0.0
C1469 C 0.89151 0.65447 0.81847 0.0
C1470 C 0.89388 0.65959 0.84592 0.0
H1471 H 0.8692 0.63673 0.93568 0.0
H1472 H 0.87046 0.63852 0.89798 0.0
H1473 H 0.87776 0.62903 0.91585 0.0
H1474 H 0.89498 0.63213 0.87813 0.0
H1475 H 0.89077 0.62306 0.82977 0.0
H1476 H 0.2855 0.22055 0.01747 0.0
H1477 H 0.2953 0.22345 0.96974 0.0
H1478 H 0.33471 0.22947 1.00409 0.0
H1479 H 0.3251 0.22659 0.0513 0.0
H1480 H 0.32072 0.2481 0.94924 0.0
H1481 H 0.32488 0.19926 0.94256 0.0
H1482 H 0.31365 0.20133 0.96786 0.0
H1483 H 0.3325 0.20953 0.97382 0.0
C1484 C 0.29615 0.22227 0.01473 0.0
C1485 C 0.3045 0.22331 0.03813 0.0
C1486 C 0.30177 0.22398 0.98752 0.0
C1487 C 0.3157 0.22653 0.98337 0.0
C1488 C 0.32388 0.22729 0.00672 0.0
H1489 H 0.37119 0.26463 0.8374 0.0
H1490 H 0.36168 0.25902 0.88547 0.0
C1491 C 0.31836 0.2257 0.03374 0.0
C1492 C 0.32211 0.22915 0.9549 0.0
H1493 H 0.33746 0.21705 0.90798 0.0
C1494 C 0.32431 0.24127 0.94012 0.0
C1495 C 0.32678 0.22023 0.94304 0.0
C1496 C 0.32424 0.20678 0.95749 0.0
C1497 C 0.33124 0.24483 0.91398 0.0
C1498 C 0.33627 0.23612 0.90248 0.0
C1499 C 0.33384 0.22386 0.91705 0.0
C1500 C 0.34309 0.23899 0.87437 0.0
C1501 C 0.33292 0.25774 0.89862 0.0
C1502 C 0.33617 0.22929 0.85255 0.0
C1503 C 0.34159 0.23243 0.82531 0.0
C1504 C 0.35413 0.24528 0.8193 0.0
C1505 C 0.36156 0.25462 0.84145 0.0
C1506 C 0.35605 0.2515 0.86881 0.0
H1507 H 0.326 0.26161 0.90754 0.0
H1508 H 0.34414 0.26646 0.90023 0.0
H1509 H 0.33033 0.25534 0.87604 0.0
H1510 H 0.32623 0.21954 0.85635 0.0
H1511 H 0.33564 0.225 0.8087 0.0
H1512 H 0.75784 0.09344 0.80136 0.0
H1513 H 0.76325 0.09024 0.84933 0.0
H1514 H 0.73792 0.10789 0.87998 0.0
H1515 H 0.7321 0.11083 0.83144 0.0
H1516 H 0.77647 0.10853 0.8919 0.0
H1517 H 0.72049 0.07008 0.92096 0.0
H1518 H 0.72588 0.07558 0.88522 0.0
H1519 H 0.72337 0.08701 0.90897 0.0
C1520 C 0.75341 0.09671 0.81823 0.0
C1521 C 0.74442 0.1023 0.81255 0.0
C1522 C 0.75656 0.09489 0.84572 0.0
C1523 C 0.75083 0.09859 0.86833 0.0
C1524 C 0.74223 0.10465 0.86285 0.0
H1525 H 0.75623 0.09092 0.04725 0.0
H1526 H 0.75314 0.09698 0.99966 0.0
C1527 C 0.73899 0.10644 0.83515 0.0
C1528 C 0.75376 0.09576 0.89741 0.0
H1529 H 0.73775 0.07682 0.95674 0.0
C1530 C 0.768 0.1016 0.90608 0.0
C1531 C 0.74272 0.08658 0.91582 0.0
C1532 C 0.72726 0.07933 0.90727 0.0
C1533 C 0.77147 0.09867 0.93274 0.0
C1534 C 0.76043 0.08957 0.95113 0.0
C1535 C 0.74621 0.08377 0.94253 0.0
C1536 C 0.76329 0.08642 0.97993 0.0
C1537 C 0.7869 0.10551 0.94127 0.0
C1538 C 0.77015 0.07851 0.98475 0.0
C1539 C 0.77195 0.07496 0.01221 0.0
C1540 C 0.76686 0.07925 0.03515 0.0
C1541 C 0.76026 0.08739 0.03011 0.0
C1542 C 0.75846 0.09088 1.00287 0.0
H1543 H 0.79397 0.11426 0.92683 0.0
H1544 H 0.78841 0.10982 0.9629 0.0
H1545 H 0.79025 0.09738 0.94102 0.0
H1546 H 0.77381 0.07481 0.96727 0.0
H1547 H 0.77701 0.06863 0.01542 0.0
H1548 H -0.0038 0.40976 0.63161 0.0
H1549 H 0.98715 0.40705 0.67923 0.0
H1550 H 0.02771 0.44149 0.70668 0.0
H1551 H 0.03696 0.44434 0.65847 0.0
H1552 H -0.00231 0.40131 0.72908 0.0
H1553 H -0.00193 0.45275 0.7337 0.0
H1554 H -0.00061 0.44503 0.70107 0.0
H1555 H 0.01453 0.45366 0.72388 0.0
C1556 C 0.00327 0.41679 0.64771 0.0
C1557 C 0.01731 0.42733 0.64123 0.0
C1558 C -0.00196 0.41519 0.67496 0.0
C1559 C 0.00667 0.42416 0.69642 0.0
C1560 C 0.0208 0.43458 0.69028 0.0
H1561 H 0.99108 0.42884 0.87233 0.0
H1562 H -4e-05 0.43315 0.82433 0.0
C1563 C 0.02611 0.43614 0.66284 0.0
C1564 C 0.00066 0.42238 0.72508 0.0
H1565 H 0.99042 0.43837 0.77428 0.0
C1566 C -0.00389 0.40941 0.73901 0.0
C1567 C -0.00147 0.43294 0.73786 0.0
C1568 C 0.00277 0.44686 0.72338 0.0
C1569 C 0.98966 0.40677 0.76555 0.0
C1570 C 0.9874 0.41727 0.77826 0.0
C1571 C 0.99202 0.43028 0.76438 0.0
C1572 C 0.98112 0.41528 0.80675 0.0
C1573 C 0.98566 0.3929 0.78007 0.0
C1574 C 0.96731 0.40408 0.81275 0.0
C1575 C 0.96215 0.40157 0.84037 0.0
C1576 C 0.97074 0.41025 0.86232 0.0
C1577 C 0.98422 0.42189 0.85592 0.0
C1578 C 0.98933 0.42439 0.82845 0.0
H1579 H 0.99102 0.38748 0.77048 0.0
H1580 H 0.98847 0.39465 0.80267 0.0
H1581 H 0.97399 0.38566 0.77836 0.0
H1582 H 0.96068 0.39708 0.79618 0.0
H1583 H 0.95173 0.39253 0.84467 0.0
H1584 H 0.56143 0.55801 0.87349 0.0
H1585 H 0.55695 0.56245 0.82551 0.0
H1586 H 0.5955 0.56372 0.79839 0.0
H1587 H 0.60002 0.55911 0.84672 0.0
H1588 H 0.57506 0.58688 0.79533 0.0
H1589 H 0.56609 0.53816 0.73939 0.0
H1590 H 0.56521 0.53899 0.77711 0.0
H1591 H 0.58217 0.54692 0.75974 0.0
C1592 C 0.56886 0.55899 0.85727 0.0
C1593 C 0.58111 0.55822 0.86389 0.0
C1594 C 0.56629 0.56156 0.82984 0.0
C1595 C 0.57585 0.56339 0.80834 0.0
C1596 C 0.58786 0.56214 0.8146 0.0
H1597 H 0.58287 0.58661 0.63399 0.0
H1598 H 0.58592 0.58057 0.68167 0.0
C1599 C 0.59044 0.55951 0.8422 0.0
C1600 C 0.57364 0.56755 0.77991 0.0
H1601 H 0.56777 0.557 0.71145 0.0
C1602 C 0.57341 0.58032 0.77697 0.0
C1603 C 0.57148 0.55898 0.75605 0.0
C1604 C 0.57111 0.54493 0.75812 0.0
C1605 C 0.57137 0.58492 0.75072 0.0
C1606 C 0.56922 0.57636 0.72681 0.0
C1607 C 0.56937 0.56354 0.7298 0.0
C1608 C 0.56746 0.58077 0.69825 0.0
C1609 C 0.57196 0.59908 0.74871 0.0
C1610 C 0.5561 0.58305 0.69164 0.0
C1611 C 0.55438 0.58666 0.66421 0.0
C1612 C 0.56389 0.58785 0.64297 0.0
C1613 C 0.57531 0.58573 0.64983 0.0
C1614 C 0.57707 0.58223 0.6771 0.0
H1615 H 0.57714 0.60585 0.76737 0.0
H1616 H 0.57783 0.60498 0.72966 0.0
H1617 H 0.56096 0.59727 0.74735 0.0
H1618 H 0.5484 0.58174 0.70752 0.0
H1619 H 0.54542 0.58812 0.65948 0.0
H1620 H 0.42557 0.00015 0.8798 0.0
H1621 H 0.42194 0.99128 0.83188 0.0
H1622 H 0.4377 0.03386 0.80055 0.0
H1623 H 0.44155 0.04294 0.84893 0.0
H1624 H 0.40394 0.99303 0.79305 0.0
H1625 H 0.45951 0.01931 0.75333 0.0
H1626 H 0.45534 0.01809 0.79024 0.0
H1627 H 0.45425 0.0311 0.7687 0.0
C1628 C 0.42844 0.00771 0.86277 0.0
C1629 C 0.43385 0.02228 0.86819 0.0
C1630 C 0.42632 0.00259 0.83535 0.0
C1631 C 0.4296 0.01188 0.8126 0.0
C1632 C 0.4353 0.02651 0.8178 0.0
H1633 H 0.4177 0.00081 0.63414 0.0
H1634 H 0.42344 0.00919 0.68226 0.0
C1635 C 0.43746 0.03169 0.84542 0.0
C1636 C 0.42627 0.00599 0.78367 0.0
H1637 H 0.44114 0.0067 0.72014 0.0
C1638 C 0.41208 0.99597 0.77712 0.0
C1639 C 0.4369 0.0098 0.76297 0.0
C1640 C 0.45238 0.02007 0.76911 0.0
C1641 C 0.40818 0.9899 0.75027 0.0
C1642 C 0.4188 0.99374 0.7295 0.0
C1643 C 0.43301 0.0037 0.73611 0.0
C1644 C 0.4153 0.98825 0.7003 0.0
C1645 C 0.39266 0.97975 0.74413 0.0
C1646 C 0.40887 0.97362 0.69426 0.0
C1647 C 0.40548 0.96872 0.66652 0.0
C1648 C 0.40856 0.9784 0.64442 0.0
C1649 C 0.41515 0.99303 0.65062 0.0
C1650 C 0.41849 -0.00213 0.67818 0.0
H1651 H 0.38559 0.98047 0.76011 0.0
H1652 H 0.38969 0.9819 0.72317 0.0
H1653 H 0.3907 0.96869 0.74419 0.0
H1654 H 0.40654 0.966 0.71097 0.0
H1655 H 0.40049 0.95741 0.66238 0.0
H1656 H 0.5619 0.95823 0.16786 0.0
H1657 H 0.56686 0.96986 0.21396 0.0
H1658 H 0.55669 0.00079 0.18116 0.0
H1659 H 0.55228 0.98956 0.13514 0.0
H1660 H 0.58133 0.01375 0.20724 0.0
H1661 H 0.54232 0.97068 0.27598 0.0
H1662 H 0.55354 0.9658 0.25709 0.0
H1663 H 0.54132 0.96942 0.23825 0.0
C1664 C 0.56038 0.96728 0.17078 0.0
C1665 C 0.55667 0.97297 0.14798 0.0
C1666 C 0.56322 0.97394 0.19713 0.0
C1667 C 0.56209 0.9862 0.20118 0.0
C1668 C 0.55771 0.99142 0.17864 0.0
H1669 H 0.5641 0.02388 0.36287 0.0
H1670 H 0.5578 0.01331 0.31611 0.0
C1671 C 0.55511 0.98493 0.15235 0.0
C1672 C 0.5664 0.9943 0.22808 0.0
H1673 H 0.56026 0.99146 0.29867 0.0
C1674 C 0.57666 0.00887 0.22722 0.0
C1675 C 0.56025 0.98802 0.25417 0.0
C1676 C 0.54865 0.97266 0.25649 0.0
C1677 C 0.58093 0.0173 0.25157 0.0
C1678 C 0.57508 0.01093 0.27776 0.0
C1679 C 0.56481 0.99637 0.27864 0.0
C1680 C 0.57934 0.0191 0.30456 0.0
C1681 C 0.59139 0.03302 0.24879 0.0
C1682 C 0.59362 0.02634 0.31343 0.0
C1683 C 0.59729 0.03267 0.34002 0.0
C1684 C 0.5867 0.03165 0.35844 0.0
C1685 C 0.57251 0.02494 0.34908 0.0
C1686 C 0.56888 0.01877 0.32243 0.0
H1687 H 0.59138 0.03691 0.22724 0.0
H1688 H 0.58896 0.03932 0.26384 0.0
H1689 H 0.60228 0.035 0.25319 0.0
H1690 H 0.60187 0.0265 0.30038 0.0
H1691 H 0.60826 0.03752 0.34683 0.0
H1692 H -0.00088 0.58189 0.37908 0.0
H1693 H 0.00771 0.58418 0.33124 0.0
H1694 H 0.96505 0.55499 0.30296 0.0
H1695 H 0.95621 0.55288 0.35128 0.0
H1696 H 0.0073 0.56447 0.29596 0.0
H1697 H 0.97698 0.5884 0.25011 0.0
H1698 H 0.97836 0.58668 0.28744 0.0
H1699 H 0.96616 0.57153 0.26696 0.0
C1700 C 0.99149 0.57595 0.36275 0.0
C1701 C 0.97694 0.56723 0.369 0.0
C1702 C -0.00354 0.57726 0.33535 0.0
C1703 C 0.98705 0.5699 0.31339 0.0
C1704 C 0.97249 0.56101 0.31949 0.0
H1705 H -0.00018 0.56772 0.13512 0.0
H1706 H 0.99119 0.56285 0.18323 0.0
C1707 C 0.96745 0.55974 0.34709 0.0
C1708 C 0.9927 0.57163 0.28434 0.0
H1709 H 0.99067 0.58322 0.21882 0.0
C1710 C 0.00366 0.56857 0.27908 0.0
C1711 C 0.98803 0.57708 0.26237 0.0
C1712 C 0.97683 0.58125 0.26695 0.0
C1713 C 0.00995 0.57067 0.25243 0.0
C1714 C 0.00526 0.57609 0.23051 0.0
C1715 C 0.99427 0.57908 0.2357 0.0
C1716 C 0.01123 0.57834 0.2017 0.0
C1717 C 0.02139 0.56685 0.24778 0.0
C1718 C 0.02551 0.58854 0.19604 0.0
C1719 C 0.03055 0.59137 0.1683 0.0
C1720 C 0.02133 0.58408 0.14591 0.0
C1721 C 0.0072 0.57358 0.15186 0.0
C1722 C 0.00222 0.57077 0.17938 0.0
H1723 H 0.02168 0.56005 0.26492 0.0
H1724 H 0.01975 0.56118 0.22753 0.0
H1725 H 0.03192 0.57674 0.24696 0.0
H1726 H 0.03261 0.59465 0.21296 0.0
H1727 H 0.04144 0.59959 0.16435 0.0
H1728 H 0.38854 0.42649 0.16647 0.0
H1729 H 0.39537 0.42197 0.21285 0.0
H1730 H 0.43778 0.43597 0.18226 0.0
H1731 H 0.43093 0.4401 0.13604 0.0
H1732 H 0.42683 0.41052 0.20705 0.0
H1733 H 0.41934 0.4473 0.27642 0.0
H1734 H 0.40386 0.43566 0.2562 0.0
H1735 H 0.41973 0.44878 0.2387 0.0
C1736 C 0.39941 0.42896 0.16994 0.0
C1737 C 0.4092 0.43367 0.14768 0.0
C1738 C 0.40332 0.42636 0.19644 0.0
C1739 C 0.41713 0.42866 0.20114 0.0
C1740 C 0.42706 0.43404 0.17919 0.0
H1741 H 0.4535 0.42786 0.36284 0.0
H1742 H 0.44903 0.43394 0.316 0.0
C1743 C 0.42314 0.43647 0.1528 0.0
C1744 C 0.42109 0.42453 0.22804 0.0
H1745 H 0.42373 0.43029 0.29875 0.0
C1746 C 0.42619 0.41489 0.2271 0.0
C1747 C 0.42039 0.4303 0.25419 0.0
C1748 C 0.41566 0.44118 0.25653 0.0
C1749 C 0.43057 0.41086 0.25148 0.0
C1750 C 0.42955 0.41635 0.27772 0.0
C1751 C 0.42449 0.42602 0.27866 0.0
C1752 C 0.43366 0.41229 0.3045 0.0
C1753 C 0.43656 0.40099 0.24876 0.0
C1754 C 0.42689 0.39802 0.31337 0.0
C1755 C 0.42962 0.39448 0.34004 0.0
C1756 C 0.439 0.40518 0.35851 0.0
C1757 C 0.44629 0.41936 0.34905 0.0
C1758 C 0.44364 0.42287 0.32235 0.0
H1759 H 0.44051 0.40115 0.22719 0.0
H1760 H 0.44542 0.40389 0.26377 0.0
H1761 H 0.42804 0.38994 0.25334 0.0
H1762 H 0.41895 0.38968 0.30026 0.0
H1763 H 0.42364 0.3835 0.34685 0.0
H1764 H 0.28539 0.17675 0.12872 0.0
H1765 H 0.2931 0.15992 0.14288 0.0
H1766 H 0.3274 0.19297 0.19091 0.0
H1767 H 0.3197 0.20974 0.17722 0.0
H1768 H 0.31985 0.16317 0.13138 0.0
H1769 H 0.3098 0.15959 0.24589 0.0
H1770 H 0.30191 0.16653 0.22178 0.0
H1771 H 0.32 0.17754 0.23329 0.0
C1772 C 0.29444 0.18035 0.14264 0.0
C1773 C 0.30194 0.19453 0.15192 0.0
C1774 C 0.29883 0.17075 0.15066 0.0
C1775 C 0.31069 0.17518 0.16821 0.0
C1776 C 0.31804 0.18927 0.17784 0.0
H1777 H 0.36377 0.14255 0.22763 0.0
H1778 H 0.3529 0.15692 0.2153 0.0
C1779 C 0.31368 0.19886 0.16985 0.0
C1780 C 0.31608 0.16543 0.1749 0.0
H1781 H 0.32477 0.15083 0.22935 0.0
C1782 C 0.32078 0.16031 0.15275 0.0
C1783 C 0.31731 0.16182 0.20283 0.0
C1784 C 0.31187 0.16654 0.22731 0.0
C1785 C 0.32714 0.15202 0.15787 0.0
C1786 C 0.3286 0.14863 0.18583 0.0
C1787 C 0.32369 0.15355 0.20795 0.0
C1788 C 0.33528 0.14002 0.19261 0.0
C1789 C 0.33262 0.14731 0.13342 0.0
C1790 C 0.3289 0.12579 0.18398 0.0
C1791 C 0.33508 0.11759 0.19091 0.0
C1792 C 0.3477 0.12349 0.20673 0.0
C1793 C 0.35408 0.13776 0.21533 0.0
C1794 C 0.34787 0.14595 0.20838 0.0
H1795 H 0.33364 0.15349 0.11412 0.0
H1796 H 0.34315 0.14846 0.13835 0.0
H1797 H 0.32508 0.13592 0.12898 0.0
H1798 H 0.31904 0.12098 0.17219 0.0
H1799 H 0.32989 0.10659 0.18415 0.0
H1800 H 0.81253 0.10918 0.12733 0.0
H1801 H 0.82776 0.13444 0.13844 0.0
H1802 H 0.7919 0.13529 0.17545 0.0
H1803 H 0.77667 0.11002 0.16483 0.0
H1804 H 0.82406 0.15682 0.11938 0.0
H1805 H 0.82272 0.15372 0.23569 0.0
H1806 H 0.81726 0.13831 0.21369 0.0
H1807 H 0.80549 0.14526 0.21936 0.0
C1808 C 0.80794 0.11471 0.13816 0.0
C1809 C 0.79344 0.10764 0.14533 0.0
C1810 C 0.81663 0.12913 0.14439 0.0
C1811 C 0.81097 0.13665 0.158 0.0
C1812 C 0.79652 0.12959 0.16541 0.0
H1813 H 0.84749 0.22478 0.21027 0.0
H1814 H 0.83086 0.20023 0.19609 0.0
C1815 C 0.78783 0.11518 0.15924 0.0
C1816 C 0.82004 0.15204 0.1634 0.0
H1817 H 0.83331 0.17678 0.21566 0.0
C1818 C 0.82613 0.16121 0.14041 0.0
C1819 C 0.82263 0.15767 0.19087 0.0
C1820 C 0.8168 0.14824 0.21636 0.0
C1821 C 0.8347 0.17594 0.14418 0.0
C1822 C 0.83734 0.18155 0.17165 0.0
C1823 C 0.83116 0.1724 0.19461 0.0
C1824 C 0.84705 0.1968 0.17727 0.0
C1825 C 0.84076 0.18539 0.11879 0.0
C1826 C 0.86158 0.20296 0.17104 0.0
C1827 C 0.87107 0.21693 0.17911 0.0
C1828 C 0.86617 0.22492 0.19364 0.0
C1829 C 0.85154 0.21888 0.19901 0.0
C1830 C 0.84205 0.20488 0.191 0.0
H1831 H 0.83481 0.18002 0.0994 0.0
H1832 H 0.84055 0.19545 0.12153 0.0
H1833 H 0.852 0.18814 0.11591 0.0
H1834 H 0.86566 0.1968 0.16088 0.0
H1835 H 0.8823 0.2213 0.17478 0.0
H1836 H 0.77087 0.62001 0.22073 0.0
H1837 H 0.79551 0.62728 0.20821 0.0
H1838 H 0.79811 0.66174 0.15853 0.0
H1839 H 0.77353 0.65447 0.1706 0.0
H1840 H 0.80967 0.64624 0.13244 0.0
H1841 H 0.83002 0.66328 0.24095 0.0
H1842 H 0.81556 0.64533 0.23721 0.0
H1843 H 0.81268 0.65994 0.22997 0.0
C1844 C 0.77668 0.62906 0.20698 0.0
C1845 C 0.77034 0.63674 0.19678 0.0
C1846 C 0.79074 0.63324 0.19999 0.0
C1847 C 0.79863 0.64516 0.18283 0.0
C1848 C 0.79218 0.65254 0.1719 0.0
H1849 H 0.8836 0.6969 0.11975 0.0
H1850 H 0.85827 0.68566 0.13136 0.0
C1851 C 0.77815 0.64839 0.17885 0.0
C1852 C 0.81375 0.65026 0.17663 0.0
H1853 H 0.84671 0.66572 0.20661 0.0
C1854 C 0.81778 0.65044 0.14863 0.0
C1855 C 0.82424 0.65572 0.19789 0.0
C1856 C 0.82049 0.6562 0.22819 0.0
C1857 C 0.83211 0.65603 0.14125 0.0
C1858 C 0.84262 0.66179 0.16242 0.0
C1859 C 0.83857 0.66131 0.19049 0.0
C1860 C 0.85793 0.66867 0.15577 0.0
C1861 C 0.83587 0.6557 0.11091 0.0
C1862 C 0.86614 0.66305 0.1664 0.0
C1863 C 0.8806 0.66949 0.15997 0.0
C1864 C 0.88707 0.6817 0.14295 0.0
C1865 C 0.87887 0.68748 0.13283 0.0
C1866 C 0.86441 0.68102 0.13926 0.0
H1867 H 0.82656 0.64773 0.09869 0.0
H1868 H 0.83955 0.66632 0.10139 0.0
H1869 H 0.84461 0.65322 0.109 0.0
H1870 H 0.86131 0.65358 0.17937 0.0
H1871 H 0.88668 0.66483 0.1681 0.0
H1872 H 0.13918 0.36279 0.27528 0.0
H1873 H 0.15527 0.35418 0.28861 0.0
H1874 H 0.13284 0.33883 0.36709 0.0
H1875 H 0.11605 0.34654 0.35279 0.0
H1876 H 0.17343 0.35937 0.3267 0.0
H1877 H 0.13081 0.30343 0.34072 0.0
H1878 H 0.12734 0.3168 0.32661 0.0
H1879 H 0.12846 0.31504 0.364 0.0
C1880 C 0.13776 0.35766 0.29547 0.0
C1881 C 0.12635 0.35519 0.31295 0.0
C1882 C 0.14694 0.35272 0.30306 0.0
C1883 C 0.14503 0.34547 0.32852 0.0
C1884 C 0.13418 0.34387 0.34686 0.0
H1885 H 0.21065 0.33116 0.39797 0.0
H1886 H 0.19509 0.34046 0.38499 0.0
C1887 C 0.12472 0.34844 0.33888 0.0
C1888 C 0.15433 0.33951 0.33551 0.0
H1889 H 0.15388 0.30929 0.35697 0.0
C1890 C 0.16913 0.34838 0.33312 0.0
C1891 C 0.14875 0.32507 0.34319 0.0
C1892 C 0.13297 0.31451 0.34346 0.0
C1893 C 0.1785 0.34329 0.33845 0.0
C1894 C 0.17296 0.32912 0.34797 0.0
C1895 C 0.15816 0.3202 0.35004 0.0
C1896 C 0.18228 0.32335 0.35611 0.0
C1897 C 0.19418 0.35308 0.33298 0.0
C1898 C 0.17982 0.31023 0.34536 0.0
C1899 C 0.18839 0.30463 0.35364 0.0
C1900 C 0.1997 0.31221 0.37231 0.0
C1901 C 0.20213 0.32526 0.38311 0.0
C1902 C 0.19333 0.33065 0.37551 0.0
H1903 H 0.19591 0.36111 0.31667 0.0
H1904 H 0.19939 0.35895 0.35249 0.0
H1905 H 0.19946 0.3471 0.32604 0.0
H1906 H 0.1713 0.30435 0.33052 0.0
H1907 H 0.18632 0.29451 0.34513 0.0
H1908 H 0.66579 0.88491 0.33971 0.0
H1909 H 0.65783 0.86007 0.32868 0.0
H1910 H 0.69283 0.86257 0.37629 0.0
H1911 H 0.7008 0.88748 0.38778 0.0
H1912 H 0.67218 0.84766 0.302 0.0
H1913 H 0.65721 0.82888 0.41189 0.0
H1914 H 0.66071 0.8462 0.4004 0.0
H1915 H 0.67522 0.84305 0.40697 0.0
C1916 C 0.67186 0.88021 0.3477 0.0
C1917 C 0.68386 0.88808 0.36477 0.0
C1918 C 0.6673 0.86604 0.34136 0.0
C1919 C 0.67461 0.85947 0.35208 0.0
C1920 C 0.68691 0.86742 0.36829 0.0
H1921 H 0.65938 0.7735 0.33899 0.0
H1922 H 0.66834 0.79851 0.35055 0.0
C1923 C 0.69149 0.88164 0.37466 0.0
C1924 C 0.66914 0.84422 0.34653 0.0
H1925 H 0.65475 0.81176 0.37834 0.0
C1926 C 0.66837 0.83979 0.31865 0.0
C1927 C 0.66414 0.83405 0.36837 0.0
C1928 C 0.66422 0.83821 0.39859 0.0
C1929 C 0.66283 0.82539 0.312 0.0
C1930 C 0.65775 0.81521 0.33382 0.0
C1931 C 0.65862 0.81964 0.36172 0.0
C1932 C 0.65175 0.7999 0.3281 0.0
C1933 C 0.66267 0.82121 0.28177 0.0
C1934 C 0.63924 0.79236 0.3123 0.0
C1935 C 0.63407 0.77807 0.30568 0.0
C1936 C 0.64134 0.77113 0.31486 0.0
C1937 C 0.65358 0.77859 0.33154 0.0
C1938 C 0.65872 0.79286 0.33817 0.0
H1939 H 0.66986 0.8305 0.26854 0.0
H1940 H 0.6659 0.81302 0.27992 0.0
H1941 H 0.65171 0.81664 0.27335 0.0
H1942 H 0.63359 0.7976 0.3048 0.0
H1943 H 0.62459 0.77255 0.29287 0.0
H1944 H 0.10481 0.81224 0.39298 0.0
H1945 H 0.12979 0.82749 0.37977 0.0
H1946 H 0.1294 0.79208 0.33783 0.0
H1947 H 0.10449 0.77671 0.35127 0.0
H1948 H 0.15282 0.80721 0.37333 0.0
H1949 H 0.14541 0.8433 0.30159 0.0
H1950 H 0.13777 0.84165 0.33575 0.0
H1951 H 0.13081 0.82641 0.31302 0.0
C1952 C 0.11003 0.80774 0.38079 0.0
C1953 C 0.10272 0.79332 0.37304 0.0
C1954 C 0.12425 0.81646 0.37317 0.0
C1955 C 0.13134 0.81093 0.35752 0.0
C1956 C 0.12407 0.79654 0.34981 0.0
H1957 H 0.21821 0.84857 0.29442 0.0
H1958 H 0.19344 0.83184 0.3072 0.0
C1959 C 0.10986 0.7878 0.35745 0.0
C1960 C 0.14645 0.82007 0.34985 0.0
H1961 H 0.16922 0.85027 0.31425 0.0
C1962 C 0.15643 0.81658 0.36026 0.0
C1963 C 0.15105 0.83223 0.33273 0.0
C1964 C 0.1407 0.83608 0.31988 0.0
C1965 C 0.171 0.8252 0.35462 0.0
C1966 C 0.1756 0.83748 0.3379 0.0
C1967 C 0.16561 0.84086 0.32719 0.0
C1968 C 0.19079 0.84718 0.3316 0.0
C1969 C 0.1814 0.82133 0.36715 0.0
C1970 C 0.1974 0.86129 0.34103 0.0
C1971 C 0.21147 0.87084 0.33373 0.0
C1972 C 0.21913 0.86644 0.31671 0.0
C1973 C 0.21257 0.85222 0.30766 0.0
C1974 C 0.19846 0.84266 0.31502 0.0
H1975 H 0.17648 0.81332 0.38418 0.0
H1976 H 0.1851 0.81677 0.35057 0.0
H1977 H 0.19086 0.83092 0.37567 0.0
H1978 H 0.1916 0.86496 0.35379 0.0
H1979 H 0.21625 0.88173 0.34099 0.0
H1980 H 0.62449 0.84969 0.79189 0.0
H1981 H 0.63393 0.83417 0.80493 0.0
H1982 H 0.66912 0.86921 0.84733 0.0
H1983 H 0.65984 0.88484 0.8342 0.0
H1984 H 0.67697 0.85392 0.81002 0.0
H1985 H 0.63408 0.81819 0.88337 0.0
H1986 H 0.62797 0.82021 0.84958 0.0
H1987 H 0.63661 0.83527 0.87265 0.0
C1988 C 0.63417 0.85405 0.80419 0.0
C1989 C 0.64141 0.86845 0.81211 0.0
C1990 C 0.63951 0.84517 0.81169 0.0
C1991 C 0.65212 0.85055 0.82732 0.0
C1992 C 0.65934 0.86489 0.83534 0.0
H1993 H 0.70238 0.81348 0.88713 0.0
H1994 H 0.69413 0.83004 0.8743 0.0
C1995 C 0.654 0.87377 0.82788 0.0
C1996 C 0.65805 0.84132 0.83451 0.0
H1997 H 0.65094 0.81134 0.87059 0.0
C1998 C 0.67134 0.84465 0.82339 0.0
C1999 C 0.65065 0.82927 0.85195 0.0
C2000 C 0.63659 0.82555 0.86532 0.0
C2001 C 0.6773 0.83601 0.82872 0.0
C2002 C 0.66983 0.82389 0.84597 0.0
C2003 C 0.6566 0.82064 0.85729 0.0
C2004 C 0.67539 0.81424 0.85228 0.0
C2005 C 0.69133 0.83969 0.81529 0.0
C2006 C 0.66754 0.79992 0.84426 0.0
C2007 C 0.67216 0.79047 0.85167 0.0
C2008 C 0.68471 0.79518 0.86733 0.0
C2009 C 0.69272 0.80959 0.87491 0.0
C2010 C 0.68805 0.81906 0.86752 0.0
H2011 H 0.69398 0.84725 0.79757 0.0
H2012 H 0.69993 0.84475 0.83114 0.0
H2013 H 0.69117 0.82997 0.80746 0.0
H2014 H 0.65773 0.79602 0.83254 0.0
H2015 H 0.66577 0.77941 0.84553 0.0
H2016 H 0.14746 0.77287 0.78779 0.0
H2017 H 0.16521 0.79728 0.80101 0.0
H2018 H 0.13325 0.80093 0.84818 0.0
H2019 H 0.11558 0.77661 0.83545 0.0
H2020 H 0.16376 0.82169 0.78865 0.0
H2021 H 0.16633 0.81542 0.90342 0.0
H2022 H 0.15874 0.80046 0.87966 0.0
H2023 H 0.14847 0.80843 0.89082 0.0
C2024 C 0.1443 0.77883 0.80131 0.0
C2025 C 0.13016 0.77285 0.81067 0.0
C2026 C 0.15442 0.79274 0.80878 0.0
C2027 C 0.15056 0.8008 0.82588 0.0
C2028 C 0.13651 0.79477 0.83548 0.0
H2029 H 0.18358 0.88632 0.88286 0.0
H2030 H 0.16936 0.86126 0.86941 0.0
C2031 C 0.12641 0.7809 0.82805 0.0
C2032 C 0.16091 0.81582 0.83231 0.0
H2033 H 0.1756 0.83924 0.88651 0.0
C2034 C 0.16654 0.82553 0.81 0.0
C2035 C 0.16446 0.82074 0.8602 0.0
C2036 C 0.1593 0.8107 0.88489 0.0
C2037 C 0.17518 0.84016 0.81494 0.0
C2038 C 0.17833 0.84511 0.84286 0.0
C2039 C 0.17303 0.83537 0.86513 0.0
C2040 C 0.18685 0.8604 0.84955 0.0
C2041 C 0.18044 0.85028 0.79038 0.0
C2042 C 0.20135 0.86815 0.84268 0.0
C2043 C 0.20949 0.88245 0.85033 0.0
C2044 C 0.20325 0.88917 0.86501 0.0
C2045 C 0.18867 0.88142 0.87148 0.0
C2046 C 0.18055 0.86712 0.8639 0.0
H2047 H 0.17488 0.84504 0.7706 0.0
H2048 H 0.17896 0.85955 0.79438 0.0
H2049 H 0.19199 0.85436 0.78743 0.0
H2050 H 0.20641 0.86306 0.83193 0.0
H2051 H 0.22072 0.88815 0.84517 0.0
H2052 H 0.10744 0.32403 0.83719 0.0
H2053 H 0.13199 0.332 0.82327 0.0
H2054 H 0.12984 0.29553 0.86425 0.0
H2055 H 0.10527 0.28751 0.87846 0.0
H2056 H 0.15358 0.32218 0.87945 0.0
H2057 H 0.14756 0.31561 0.76391 0.0
H2058 H 0.13977 0.32528 0.77912 0.0
H2059 H 0.13269 0.30682 0.78772 0.0
C2060 C 0.11213 0.31761 0.84294 0.0
C2061 C 0.10446 0.30515 0.8589 0.0
C2062 C 0.12612 0.32214 0.83485 0.0
C2063 C 0.13262 0.31425 0.84248 0.0
C2064 C 0.12493 0.30169 0.85805 0.0
H2065 H 0.21964 0.33109 0.82748 0.0
H2066 H 0.19436 0.32078 0.83853 0.0
C2067 C 0.11092 0.29713 0.8661 0.0
C2068 C 0.14776 0.31963 0.8358 0.0
H2069 H 0.17121 0.32881 0.78151 0.0
C2070 C 0.15745 0.32352 0.85806 0.0
C2071 C 0.1527 0.32142 0.80787 0.0
C2072 C 0.14264 0.31696 0.78324 0.0
C2073 C 0.17208 0.32951 0.85312 0.0
C2074 C 0.17705 0.33138 0.82517 0.0
C2075 C 0.16733 0.32737 0.8029 0.0
C2076 C 0.19232 0.3376 0.81858 0.0
C2077 C 0.18212 0.33415 0.87782 0.0
C2078 C 0.19943 0.3503 0.80321 0.0
C2079 C 0.21384 0.35616 0.79671 0.0
C2080 C 0.22133 0.34936 0.80541 0.0
C2081 C 0.21416 0.33661 0.8207 0.0
C2082 C 0.19975 0.33074 0.82712 0.0
H2083 H 0.17707 0.3353 0.89716 0.0
H2084 H 0.18527 0.32603 0.8819 0.0
H2085 H 0.19193 0.34444 0.87346 0.0
H2086 H 0.19384 0.3557 0.79635 0.0
H2087 H 0.21909 0.36597 0.78481 0.0
H2088 H 0.84528 0.62378 0.71674 0.0
H2089 H 0.82806 0.63086 0.702 0.0
H2090 H 0.86116 0.66655 0.65692 0.0
H2091 H 0.87839 0.65953 0.67137 0.0
H2092 H 0.83095 0.65784 0.71491 0.0
H2093 H 0.82803 0.64816 0.60012 0.0
H2094 H 0.83473 0.64011 0.62442 0.0
H2095 H 0.84578 0.65833 0.61385 0.0
C2096 C 0.84883 0.63301 0.70334 0.0
C2097 C 0.86316 0.64112 0.6952 0.0
C2098 C 0.839 0.63703 0.69499 0.0
C2099 C 0.84335 0.64912 0.67817 0.0
C2100 C 0.85758 0.65704 0.6695 0.0
H2101 H 0.80571 0.69786 0.61724 0.0
H2102 H 0.82161 0.6887 0.62933 0.0
C2103 C 0.8674 0.65306 0.6779 0.0
C2104 C 0.83331 0.65412 0.67142 0.0
H2105 H 0.81771 0.6616 0.617 0.0
C2106 C 0.82793 0.65855 0.69355 0.0
C2107 C 0.82955 0.65512 0.6435 0.0
C2108 C 0.83471 0.65007 0.61908 0.0
C2109 C 0.81909 0.66429 0.68845 0.0
C2110 C 0.81536 0.66534 0.66051 0.0
C2111 C 0.82066 0.66081 0.63838 0.0
C2112 C 0.80586 0.67102 0.65381 0.0
C2113 C 0.81414 0.66952 0.71292 0.0
C2114 C 0.79177 0.66404 0.6635 0.0
C2115 C 0.78272 0.66926 0.65678 0.0
C2116 C 0.78759 0.68149 0.64003 0.0
C2117 C 0.8017 0.68845 0.63029 0.0
C2118 C 0.81077 0.68322 0.63709 0.0
H2119 H 0.82084 0.67137 0.7318 0.0
H2120 H 0.81428 0.67956 0.70759 0.0
H2121 H 0.80304 0.66139 0.71831 0.0
H2122 H 0.78773 0.65444 0.67598 0.0
H2123 H 0.77186 0.66362 0.6644 0.0
H2124 H 0.36915 0.21947 0.71342 0.0
H2125 H 0.36048 0.1948 0.69914 0.0
H2126 H 0.32022 0.19071 0.67543 0.0
H2127 H 0.32885 0.21538 0.68926 0.0
H2128 H 0.3369 0.17079 0.72147 0.0
H2129 H 0.33061 0.17509 0.60702 0.0
H2130 H 0.34096 0.19045 0.62896 0.0
H2131 H 0.32187 0.18212 0.62819 0.0
C2132 C 0.35852 0.21337 0.70479 0.0
C2133 C 0.34969 0.21935 0.70236 0.0
C2134 C 0.35358 0.19929 0.69673 0.0
C2135 C 0.33978 0.19101 0.68597 0.0
C2136 C 0.331 0.19702 0.68318 0.0
H2137 H 0.28681 0.10332 0.63538 0.0
H2138 H 0.29605 0.12795 0.65064 0.0
C2139 C 0.33593 0.21109 0.6912 0.0
C2140 C 0.33425 0.17587 0.67903 0.0
H2141 H 0.3202 0.15169 0.62587 0.0
C2142 C 0.33334 0.16661 0.70054 0.0
C2143 C 0.32959 0.17049 0.65172 0.0
C2144 C 0.33091 0.18006 0.62757 0.0
C2145 C 0.32759 0.152 0.69557 0.0
C2146 C 0.32281 0.14662 0.66832 0.0
C2147 C 0.3238 0.15589 0.64679 0.0
C2148 C 0.31693 0.13142 0.66149 0.0
C2149 C 0.32638 0.1424 0.71958 0.0
C2150 C 0.3256 0.12525 0.66281 0.0
C2151 C 0.32036 0.11121 0.65413 0.0
C2152 C 0.30638 0.10316 0.64388 0.0
C2153 C 0.29761 0.10926 0.64326 0.0
C2154 C 0.30287 0.12331 0.65189 0.0
H2155 H 0.32737 0.14755 0.74023 0.0
H2156 H 0.31606 0.13227 0.71883 0.0
H2157 H 0.33504 0.13981 0.71792 0.0
H2158 H 0.33655 0.13143 0.66975 0.0
H2159 H 0.32738 0.1068 0.65472 0.0
H2160 H 0.88792 0.21976 0.66347 0.0
H2161 H 0.86348 0.20486 0.68012 0.0
H2162 H 0.86425 0.16729 0.65314 0.0
H2163 H 0.88874 0.18208 0.63689 0.0
H2164 H 0.84089 0.18737 0.64609 0.0
H2165 H 0.8471 0.15613 0.73131 0.0
H2166 H 0.86193 0.17216 0.71731 0.0
H2167 H 0.85526 0.15553 0.69899 0.0
C2168 C 0.88296 0.2083 0.66157 0.0
C2169 C 0.89021 0.20206 0.64889 0.0
C2170 C 0.86901 0.19982 0.67104 0.0
C2171 C 0.86213 0.18499 0.6681 0.0
C2172 C 0.86948 0.17871 0.65613 0.0
H2173 H 0.77713 0.11416 0.68318 0.0
H2174 H 0.80224 0.13061 0.67285 0.0
C2175 C 0.88344 0.18717 0.64673 0.0
C2176 C 0.84691 0.17616 0.67534 0.0
H2177 H 0.82348 0.14753 0.71412 0.0
C2178 C 0.83708 0.17876 0.6612 0.0
C2179 C 0.84201 0.16493 0.695 0.0
C2180 C 0.85213 0.16209 0.71173 0.0
C2181 C 0.8224 0.17013 0.66557 0.0
C2182 C 0.8175 0.15873 0.68479 0.0
C2183 C 0.82732 0.15626 0.69927 0.0
C2184 C 0.80219 0.14907 0.68989 0.0
C2185 C 0.81222 0.17297 0.64902 0.0
C2186 C 0.79391 0.15408 0.70274 0.0
C2187 C 0.77957 0.14472 0.70863 0.0
C2188 C 0.77335 0.13022 0.70183 0.0
C2189 C 0.78163 0.12529 0.68857 0.0
C2190 C 0.79596 0.13464 0.68274 0.0
H2191 H 0.81755 0.18023 0.63103 0.0
H2192 H 0.80319 0.16288 0.64098 0.0
H2193 H 0.8078 0.17802 0.66291 0.0
H2194 H 0.79862 0.16516 0.70872 0.0
H2195 H 0.77345 0.14879 0.719 0.0
H2196 H 0.03305 0.47822 0.5591 0.0
H2197 H 0.02463 0.49483 0.54795 0.0
H2198 H 0.99053 0.46241 0.49851 0.0
H2199 H -0.00107 0.44582 0.50927 0.0
H2200 H 0.00574 0.4893 0.47209 0.0
H2201 H 0.98839 0.49312 0.57988 0.0
H2202 H 0.0064 0.49668 0.57695 0.0
H2203 H 0.99189 0.47916 0.56945 0.0
C2204 C 0.02377 0.47466 0.54583 0.0
C2205 C 0.01661 0.46074 0.5351 0.0
C2206 C 0.01894 0.48411 0.53965 0.0
C2207 C 0.00685 0.47973 0.52278 0.0
C2208 C -0.00017 0.46592 0.5117 0.0
H2209 H 0.96026 0.51897 0.45632 0.0
H2210 H 0.96847 0.50242 0.46936 0.0
C2211 C 0.00465 0.45648 0.51786 0.0
C2212 C 0.00162 0.48959 0.51617 0.0
H2213 H 0.98738 0.50836 0.54552 0.0
C2214 C 0.00168 0.49345 0.48809 0.0
C2215 C -0.00363 0.49495 0.53719 0.0
C2216 C -0.00439 0.4907 0.56755 0.0
C2217 C -0.00322 0.50273 0.48044 0.0
C2218 C 0.99147 0.50803 0.50143 0.0
C2219 C 0.99145 0.50421 0.52954 0.0
C2220 C 0.98606 0.51773 0.49462 0.0
C2221 C -0.0024 0.50699 0.45008 0.0
C2222 C 0.99299 0.53163 0.5053 0.0
C2223 C 0.98829 0.54105 0.49805 0.0
C2224 C 0.97655 0.53668 0.4801 0.0
C2225 C 0.96939 0.52263 0.47006 0.0
C2226 C 0.97409 0.51321 0.47735 0.0
H2227 H 0.005 0.50476 0.43791 0.0
H2228 H 0.98687 0.50086 0.44048 0.0
H2229 H 0.00114 0.51849 0.44817 0.0
H2230 H 0.0022 0.53525 0.51879 0.0
H2231 H 0.99399 0.55181 0.50616 0.0
H2232 H 0.5207 0.54713 0.58186 0.0
H2233 H 0.50564 0.52153 0.57411 0.0
H2234 H 0.52017 0.52689 0.48832 0.0
H2235 H 0.53591 0.55233 0.49659 0.0
H2236 H 0.48432 0.50666 0.54284 0.0
H2237 H 0.5264 0.49531 0.51004 0.0
H2238 H 0.53045 0.5123 0.52438 0.0
H2239 H 0.52641 0.50854 0.4876 0.0
C2240 C 0.52067 0.5428 0.56138 0.0
C2241 C 0.52949 0.55162 0.53984 0.0
C2242 C 0.5121 0.52818 0.55698 0.0
C2243 C 0.51204 0.52219 0.53084 0.0
C2244 C 0.52044 0.53114 0.50898 0.0
H2245 H 0.44449 0.44504 0.46319 0.0
H2246 H 0.46027 0.46886 0.48129 0.0
C2247 C 0.52929 0.5457 0.5136 0.0
C2248 C 0.5028 0.50668 0.52612 0.0
H2249 H 0.50241 0.47771 0.49731 0.0
C2250 C 0.48833 0.5003 0.53325 0.0
C2251 C 0.50806 0.49822 0.51438 0.0
C2252 C 0.52371 0.50393 0.509 0.0
C2253 C 0.47888 0.48587 0.5278 0.0
C2254 C 0.48389 0.47777 0.51362 0.0
C2255 C 0.49848 0.48397 0.5077 0.0
C2256 C 0.47413 0.46313 0.50343 0.0
C2257 C 0.46366 0.47951 0.53755 0.0
C2258 C 0.47698 0.45206 0.5088 0.0
C2259 C 0.4682 0.43848 0.49766 0.0
C2260 C 0.45633 0.43577 0.48132 0.0
C2261 C 0.45345 0.44681 0.47612 0.0
C2262 C 0.46239 0.46041 0.48668 0.0
H2263 H 0.46296 0.48503 0.55659 0.0
H2264 H 0.45729 0.48087 0.52089 0.0
H2265 H 0.45883 0.468 0.54234 0.0
H2266 H 0.48605 0.45393 0.52146 0.0
H2267 H 0.47064 0.43013 0.50189 0.0
H2268 H 0.55504 0.0023 0.50016 0.0
H2269 H 0.5306 0.99308 0.51643 0.0
H2270 H 0.531 0.03038 0.4839 0.0
H2271 H 0.55557 0.03982 0.46801 0.0
H2272 H 0.5182 0.0219 0.53677 0.0
H2273 H 0.49693 0.97654 0.46202 0.0
H2274 H 0.51062 0.97774 0.48497 0.0
H2275 H 0.51479 0.9915 0.45951 0.0
C2276 C 0.54997 0.0086 0.49672 0.0
C2277 C 0.55714 0.02172 0.48261 0.0
C2278 C 0.53599 0.00328 0.50587 0.0
C2279 C 0.52893 0.01092 0.50079 0.0
C2280 C 0.53627 0.0243 0.48781 0.0
H2281 H 0.44444 -0.00191 0.51671 0.0
H2282 H 0.46962 0.00671 0.50746 0.0
C2283 C 0.55028 0.02967 0.47878 0.0
C2284 C 0.51376 0.00479 0.50825 0.0
H2285 H 0.48052 0.97715 0.4938 0.0
C2286 C 0.50996 0.01212 0.52742 0.0
C2287 C 0.50306 0.99202 0.49594 0.0
C2288 C 0.50649 0.98403 0.47428 0.0
C2289 C 0.49568 0.00698 0.53469 0.0
C2290 C 0.485 0.99429 0.52219 0.0
C2291 C 0.4888 0.98685 0.50336 0.0
C2292 C 0.46975 0.9889 0.52753 0.0
C2293 C 0.49211 0.0151 0.55576 0.0
C2294 C 0.46146 0.97583 0.54118 0.0
C2295 C 0.44705 0.97085 0.54645 0.0
C2296 C 0.44074 0.97882 0.53788 0.0
C2297 C 0.44903 0.99174 0.52362 0.0
C2298 C 0.46341 0.99673 0.51848 0.0
H2299 H 0.50157 0.02258 0.56827 0.0
H2300 H 0.48815 0.02139 0.54453 0.0
H2301 H 0.48362 0.0077 0.57028 0.0
H2302 H 0.46619 0.96961 0.54809 0.0
H2303 H 0.4409 0.96085 0.55746 0.0
H2304 H 0.44386 0.00086 0.99999 0.0
H2305 H 0.45919 0.99115 0.01261 0.0
H2306 H 0.49495 0.0271 0.97354 0.0
H2307 H 0.47974 0.03698 0.96109 0.0
H2308 H 0.47461 0.98388 0.97501 0.0
H2309 H 0.51013 0.02505 0.05137 0.0
H2310 H 0.49329 0.02307 0.04044 0.0
H2311 H 0.50864 0.03194 0.01809 0.0
C2312 C 0.45502 0.00677 0.99435 0.0
C2313 C 0.46064 0.0197 0.97965 0.0
C2314 C 0.46374 0.0012 1.00151 0.0
C2315 C 0.4782 0.00849 0.99424 0.0
C2316 C 0.48386 0.02145 0.97975 0.0
H2317 H 0.54809 0.99245 0.01271 0.0
H2318 H 0.53224 0.00139 0.99918 0.0
C2319 C 0.47516 0.02705 0.97258 0.0
C2320 C 0.48723 0.00226 1.00084 0.0
H2321 H 0.51679 0.00823 0.03717 0.0
C2322 C 0.4838 0.98914 0.98871 0.0
C2323 C 0.49918 0.0092 0.01868 0.0
C2324 C 0.503 0.02303 0.03313 0.0
C2325 C 0.49221 0.98289 0.99353 0.0
C2326 C 0.50421 0.98987 0.01125 0.0
C2327 C 0.5076 0.00295 0.02348 0.0
C2328 C 0.51342 0.9838 0.01757 0.0
C2329 C 0.4884 0.96904 0.97916 0.0
C2330 C 0.50802 0.9709 0.0322 0.0
C2331 C 0.51703 0.96574 0.03989 0.0
C2332 C 0.5316 0.97348 0.03323 0.0
C2333 C 0.5369 0.98625 0.0181 0.0
C2334 C 0.52789 0.99138 0.0104 0.0
H2335 H 0.48113 0.96692 0.9611 0.0
H2336 H 0.49809 0.96906 0.9716 0.0
H2337 H 0.48291 0.96017 0.99433 0.0
H2338 H 0.49692 0.96503 0.03835 0.0
H2339 H 0.51268 0.95591 0.05169 0.0
H2340 H -0.0013 0.55263 0.01372 0.0
H2341 H 0.9895 0.52769 1.0011 0.0
H2342 H 0.02658 0.52914 0.03766 0.0
H2343 H 0.03594 0.55416 0.05021 0.0
H2344 H 0.0185 0.51591 0.98356 0.0
H2345 H 0.97321 0.49461 0.05854 0.0
H2346 H 0.97452 0.50832 0.03549 0.0
H2347 H 0.98822 0.51246 0.06103 0.0
C2348 C 0.00493 0.54766 0.01896 0.0
C2349 C 0.01801 0.5553 0.03307 0.0
C2350 C -0.00038 0.53341 0.01189 0.0
C2351 C 0.00726 0.52658 0.01892 0.0
C2352 C 0.0205 0.53426 0.03228 0.0
H2353 H 0.99412 0.44168 0.99526 0.0
H2354 H 0.00314 0.46652 0.00842 0.0
C2355 C 0.02583 0.54852 0.03939 0.0
C2356 C 0.00144 0.51138 0.01228 0.0
H2357 H 0.97387 0.47815 0.0268 0.0
C2358 C 0.00878 0.50763 0.99306 0.0
C2359 C 0.98875 0.50068 0.02475 0.0
C2360 C 0.98074 0.50415 0.04629 0.0
C2361 C 0.00361 0.49339 0.98557 0.0
C2362 C 0.99093 0.48267 0.99809 0.0
C2363 C 0.98359 0.48643 0.0173 0.0
C2364 C 0.98513 0.46748 0.99147 0.0
C2365 C 0.01159 0.48995 0.9639 0.0
C2366 C 0.97179 0.4597 0.97853 0.0
C2367 C 0.96655 0.44548 0.97116 0.0
C2368 C 0.97458 0.43885 0.97676 0.0
C2369 C 0.98774 0.44655 0.99054 0.0
C2370 C 0.99295 0.46075 0.99792 0.0
H2371 H 0.01895 0.49947 0.95142 0.0
H2372 H 0.01801 0.48598 0.97462 0.0
H2373 H 0.0041 0.48152 0.94937 0.0
H2374 H 0.96557 0.46472 0.97359 0.0
H2375 H 0.95636 0.43978 0.96061 0.0
H2376 H 0.43733 0.44156 0.00914 0.0
H2377 H 0.46225 0.45726 0.9963 0.0
H2378 H 0.46169 0.49235 0.03752 0.0
H2379 H 0.43675 0.47668 0.05071 0.0
H2380 H 0.47556 0.48349 0.96579 0.0
H2381 H 0.4945 0.48953 0.07596 0.0
H2382 H 0.47698 0.4758 0.06527 0.0
H2383 H 0.48067 0.49375 0.07001 0.0
C2384 C 0.44247 0.45265 0.01526 0.0
C2385 C 0.43517 0.4579 0.03111 0.0
C2386 C 0.45669 0.46158 0.00791 0.0
C2387 C 0.46381 0.47585 0.01643 0.0
C2388 C 0.45639 0.48128 0.03123 0.0
H2389 H 0.54903 0.54615 1.00093 0.0
H2390 H 0.52413 0.5297 0.01253 0.0
C2391 C 0.44215 0.47236 0.03858 0.0
C2392 C 0.4791 0.48494 0.01037 0.0
H2393 H 0.51163 0.50355 0.0417 0.0
C2394 C 0.48348 0.48785 0.98232 0.0
C2395 C 0.48933 0.49049 0.03208 0.0
C2396 C 0.4852 0.48716 0.06253 0.0
C2397 C 0.49788 0.49653 0.97538 0.0
C2398 C 0.5081 0.50217 0.99712 0.0
C2399 C 0.50372 0.49916 0.02515 0.0
C2400 C 0.52335 0.51172 0.99122 0.0
C2401 C 0.502 0.4999 0.94494 0.0
C2402 C 0.5312 0.5069 0.97603 0.0
C2403 C 0.54544 0.51628 0.96935 0.0
C2404 C 0.552 0.53057 0.97791 0.0
C2405 C 0.54423 0.5352 0.99399 0.0
C2406 C 0.53003 0.52584 1.00063 0.0
H2407 H 0.49267 0.49733 0.93145 0.0
H2408 H 0.51004 0.51133 0.94221 0.0
H2409 H 0.50678 0.49352 0.93752 0.0
H2410 H 0.52626 0.49595 0.96907 0.0
H2411 H 0.55121 0.51242 0.95702 0.0
H2412 H 0.44317 0.05579 0.04264 0.0
H2413 H 0.43917 0.07004 0.07707 0.0
H2414 H 0.43472 0.09441 0.01044 0.0
H2415 H 0.43862 0.07999 0.97559 0.0
H2416 H 0.45116 0.09968 0.08981 0.0
H2417 H 0.39549 0.07449 0.05004 0.0
H2418 H 0.4074 0.0681 0.04041 0.0
H2419 H 0.40937 0.08405 0.02479 0.0
C2420 C 0.44166 0.0644 0.03527 0.0
C2421 C 0.44105 0.06668 0.00639 0.0
C2422 C 0.43941 0.07256 0.05502 0.0
C2423 C 0.4364 0.08312 0.04634 0.0
C2424 C 0.43684 0.08617 0.01756 0.0
H2425 H 0.39244 0.11623 0.14696 0.0
H2426 H 0.40685 0.11406 0.11008 0.0
C2427 C 0.43918 0.07801 0.99768 0.0
C2428 C 0.43127 0.08964 0.06737 0.0
H2429 H 0.40107 0.08908 0.0895 0.0
C2430 C 0.44027 0.09754 0.0896 0.0
C2431 C 0.41702 0.08673 0.06719 0.0
C2432 C 0.40668 0.0778 0.0445 0.0
C2433 C 0.43534 0.10252 0.11176 0.0
C2434 C 0.42096 0.09924 0.11197 0.0
C2435 C 0.41211 0.09165 0.08934 0.0
C2436 C 0.4145 0.10286 0.13586 0.0
C2437 C 0.44559 0.11124 0.13467 0.0
C2438 C 0.41431 0.09769 0.16301 0.0
C2439 C 0.40617 0.09908 0.18432 0.0
C2440 C 0.3979 0.10545 0.17869 0.0
C2441 C 0.39868 0.11125 0.15194 0.0
C2442 C 0.4069 0.10999 0.1308 0.0
H2443 H 0.45677 0.11668 0.12709 0.0
H2444 H 0.44318 0.11938 0.14294 0.0
H2445 H 0.44471 0.1041 0.15216 0.0
H2446 H 0.41978 0.09185 0.16735 0.0
H2447 H 0.40565 0.09437 0.20463 0.0
H2448 H 0.87773 0.29367 0.19021 0.0
H2449 H 0.87822 0.30949 0.15254 0.0
H2450 H 0.9154 0.31061 0.11736 0.0
H2451 H 0.91483 0.29484 0.15411 0.0
H2452 H 0.89859 0.3365 0.13687 0.0
H2453 H 0.8897 0.29978 0.04957 0.0
H2454 H 0.8864 0.29392 0.08563 0.0
H2455 H 0.90406 0.30157 0.07104 0.0
C2456 C 0.88598 0.29733 0.17439 0.0
C2457 C 0.89616 0.29291 0.17499 0.0
C2458 C 0.88622 0.30631 0.15286 0.0
C2459 C 0.8966 0.3109 0.13163 0.0
C2460 C 0.907 0.30683 0.13289 0.0
H2461 H 0.94611 0.38225 0.03888 0.0
H2462 H 0.93112 0.36499 0.07371 0.0
C2463 C 0.90673 0.29789 0.15414 0.0
C2464 C 0.89722 0.32041 0.10853 0.0
H2465 H 0.90326 0.32511 0.03807 0.0
C2466 C 0.89925 0.3339 0.11517 0.0
C2467 C 0.89761 0.31692 0.08005 0.0
C2468 C 0.89415 0.30218 0.07116 0.0
C2469 C 0.90309 0.34442 0.09444 0.0
C2470 C 0.90534 0.34147 0.06654 0.0
C2471 C 0.90185 0.32754 0.05949 0.0
C2472 C 0.91334 0.35299 0.04568 0.0
C2473 C 0.90518 0.35873 0.10291 0.0
C2474 C 0.90852 0.35201 0.01789 0.0
C2475 C 0.91728 0.3619 0.99753 0.0
C2476 C 0.93104 0.3728 1.00465 0.0
C2477 C 0.93557 0.374 0.03264 0.0
C2478 C 0.92689 0.36419 0.05279 0.0
H2479 H 0.8976 0.35754 0.11978 0.0
H2480 H 0.9161 0.36538 0.11138 0.0
H2481 H 0.90371 0.36436 0.08491 0.0
H2482 H 0.89816 0.34336 0.01179 0.0
H2483 H 0.91353 0.36066 0.97611 0.0
H2484 H 0.60745 0.55503 0.03957 0.0
H2485 H 0.62588 0.5583 0.07301 0.0
H2486 H 0.65287 0.56008 1.00494 0.0
H2487 H 0.63435 0.55679 0.97107 0.0
H2488 H 0.64241 0.5439 0.08332 0.0
H2489 H 0.67434 0.59976 0.04508 0.0
H2490 H 0.65567 0.58876 0.03707 0.0
H2491 H 0.66858 0.58583 0.01937 0.0
C2492 C 0.6172 0.55585 0.03167 0.0
C2493 C 0.61953 0.5558 1.00267 0.0
C2494 C 0.6277 0.55766 0.05086 0.0
C2495 C 0.64078 0.55959 0.04146 0.0
C2496 C 0.64286 0.55871 0.01259 0.0
H2497 H 0.71919 0.60106 0.13777 0.0
H2498 H 0.70197 0.58704 0.10146 0.0
C2499 C 0.63227 0.55678 0.99329 0.0
C2500 C 0.65261 0.56405 0.06182 0.0
H2501 H 0.68312 0.59334 0.08373 0.0
C2502 C 0.65144 0.55464 0.08327 0.0
C2503 C 0.6643 0.57809 0.06178 0.0
C2504 C 0.66585 0.58878 0.03976 0.0
C2505 C 0.66165 0.55897 0.10482 0.0
C2506 C 0.6731 0.57318 0.10529 0.0
C2507 C 0.67439 0.58243 0.0834 0.0
C2508 C 0.68359 0.57909 0.12869 0.0
C2509 C 0.66006 0.54826 0.12676 0.0
C2510 C 0.6791 0.57887 0.15647 0.0
C2511 C 0.68902 0.5867 0.17747 0.0
C2512 C 0.70352 0.5951 0.17084 0.0
C2513 C 0.70806 0.59469 0.14345 0.0
C2514 C 0.69822 0.5867 0.12265 0.0
H2515 H 0.65406 0.53723 0.11846 0.0
H2516 H 0.67058 0.55029 0.13444 0.0
H2517 H 0.65399 0.54898 0.14481 0.0
H2518 H 0.66788 0.57339 0.16161 0.0
H2519 H 0.68523 0.58699 0.19834 0.0
H2520 H 0.07126 0.37875 0.33609 0.0
H2521 H 0.07034 0.39362 0.37329 0.0
H2522 H 0.11531 0.42295 0.3634 0.0
H2523 H 0.11617 0.40814 0.32513 0.0
H2524 H 0.0847 0.39862 0.42232 0.0
H2525 H 0.09925 0.44983 0.36934 0.0
H2526 H 0.0941 0.43368 0.34998 0.0
H2527 H 0.11146 0.44328 0.36555 0.0
C2528 C 0.08092 0.38852 0.34141 0.0
C2529 C 0.09379 0.3923 0.32773 0.0
C2530 C 0.08039 0.39699 0.36278 0.0
C2531 C 0.09274 0.4094 0.37128 0.0
C2532 C 0.10559 0.41354 0.35699 0.0
H2533 H 0.07576 0.43657 0.53466 0.0
H2534 H 0.09033 0.43289 0.49986 0.0
C2535 C 0.10608 0.40509 0.33514 0.0
C2536 C 0.09197 0.41718 0.3963 0.0
H2537 H 0.09298 0.44781 0.41697 0.0
C2538 C 0.08669 0.40946 0.42132 0.0
C2539 C 0.09465 0.43133 0.39496 0.0
C2540 C 0.1001 0.44005 0.36852 0.0
C2541 C 0.08305 0.41507 0.4443 0.0
C2542 C 0.08522 0.42906 0.44268 0.0
C2543 C 0.09139 0.43713 0.41829 0.0
C2544 C 0.079 0.43448 0.46388 0.0
C2545 C 0.07588 0.40549 0.46918 0.0
C2546 C 0.06858 0.43772 0.45525 0.0
C2547 C 0.06051 0.44011 0.47496 0.0
C2548 C 0.06259 0.43922 0.50384 0.0
C2549 C 0.07383 0.4372 0.51256 0.0
C2550 C 0.08206 0.43496 0.49269 0.0
H2551 H 0.07257 0.39421 0.46469 0.0
H2552 H 0.0834 0.40902 0.48711 0.0
H2553 H 0.06631 0.40601 0.47562 0.0
H2554 H 0.06604 0.43753 0.43322 0.0
H2555 H 0.05203 0.4418 0.46748 0.0
H2556 H 0.55946 0.63787 0.53947 0.0
H2557 H 0.56441 0.65657 0.50503 0.0
H2558 H 0.54752 0.62511 0.43929 0.0
H2559 H 0.54255 0.60643 0.47348 0.0
H2560 H 0.58364 0.66048 0.46133 0.0
H2561 H 0.53259 0.6522 0.41783 0.0
H2562 H 0.5338 0.6452 0.45149 0.0
H2563 H 0.53404 0.63643 0.41973 0.0
C2564 C 0.55631 0.63488 0.51786 0.0
C2565 C 0.55066 0.62069 0.50916 0.0
C2566 C 0.55919 0.64558 0.49817 0.0
C2567 C 0.55627 0.64224 0.46959 0.0
C2568 C 0.54965 0.62794 0.46125 0.0
H2569 H 0.58682 0.68749 0.31192 0.0
H2570 H 0.57262 0.67016 0.34851 0.0
C2571 C 0.54687 0.61727 0.48084 0.0
C2572 C 0.56222 0.65369 0.44811 0.0
H2573 H 0.55365 0.6675 0.39184 0.0
C2574 C 0.57707 0.66215 0.4464 0.0
C2575 C 0.55364 0.65564 0.42828 0.0
C2576 C 0.53762 0.64697 0.42945 0.0
C2577 C 0.58362 0.6723 0.42509 0.0
C2578 C 0.57508 0.67439 0.40533 0.0
C2579 C 0.56019 0.66596 0.40706 0.0
C2580 C 0.58162 0.68521 0.38272 0.0
C2581 C 0.59969 0.6803 0.42338 0.0
C2582 C 0.59082 0.69954 0.38962 0.0
C2583 C 0.59903 0.70932 0.36893 0.0
C2584 C 0.59795 0.70507 0.34078 0.0
C2585 C 0.58782 0.69104 0.33345 0.0
C2586 C 0.57974 0.68115 0.35434 0.0
H2587 H 0.60438 0.67471 0.43486 0.0
H2588 H 0.60336 0.68176 0.40126 0.0
H2589 H 0.60387 0.69096 0.43302 0.0
H2590 H 0.59217 0.70301 0.41126 0.0
H2591 H 0.60665 0.72011 0.37512 0.0
H2592 H 0.35475 0.92343 0.54034 0.0
H2593 H 0.33607 0.9092 0.5061 0.0
H2594 H 0.36713 0.92574 0.43955 0.0
H2595 H 0.38574 0.93987 0.4735 0.0
H2596 H 0.32996 0.92297 0.46341 0.0
H2597 H 0.34275 0.88376 0.41752 0.0
H2598 H 0.34982 0.89235 0.45083 0.0
H2599 H 0.3576 0.9016 0.41861 0.0
C2600 C 0.35766 0.92365 0.51855 0.0
C2601 C 0.3717 0.93279 0.50961 0.0
C2602 C 0.34698 0.91556 0.49898 0.0
C2603 C 0.35021 0.91631 0.47025 0.0
C2604 C 0.36439 0.92475 0.4616 0.0
H2605 H 0.3045 0.90019 0.31309 0.0
H2606 H 0.32221 0.90437 0.34958 0.0
C2607 C 0.37503 0.93289 0.48107 0.0
C2608 C 0.33863 0.91008 0.44898 0.0
H2609 H 0.32646 0.88826 0.39162 0.0
C2610 C 0.32906 0.91521 0.44799 0.0
C2611 C 0.33764 0.90016 0.42854 0.0
C2612 C 0.34742 0.89404 0.42899 0.0
C2613 C 0.31878 0.91102 0.42676 0.0
C2614 C 0.31773 0.90108 0.40627 0.0
C2615 C 0.32723 0.89583 0.40735 0.0
C2616 C 0.30691 0.89629 0.38352 0.0
C2617 C 0.30948 0.91773 0.4259 0.0
C2618 C 0.29239 0.8897 0.39025 0.0
C2619 C 0.28236 0.88747 0.3696 0.0
C2620 C 0.28658 0.8915 0.34166 0.0
C2621 C 0.30095 0.89694 0.33443 0.0
C2622 C 0.31106 0.89937 0.35528 0.0
H2623 H 0.31414 0.92776 0.4382 0.0
H2624 H 0.30783 0.92009 0.40401 0.0
H2625 H 0.29893 0.91025 0.43509 0.0
H2626 H 0.28889 0.8869 0.41176 0.0
H2627 H 0.27133 0.88313 0.37574 0.0
H2628 H 0.60143 0.87831 0.87162 0.0
H2629 H 0.58729 0.88069 0.90881 0.0
H2630 H 0.57188 0.9002 0.85019 0.0
H2631 H 0.58557 0.89721 0.8126 0.0
H2632 H 0.59259 0.90516 0.92769 0.0
H2633 H 0.53632 0.87694 0.89402 0.0
H2634 H 0.54965 0.8742 0.8771 0.0
H2635 H 0.54763 0.88919 0.86774 0.0
C2636 C 0.59463 0.88265 0.86647 0.0
C2637 C 0.59456 0.88754 0.83922 0.0
C2638 C 0.58658 0.88406 0.88778 0.0
C2639 C 0.57842 0.89058 0.88246 0.0
C2640 C 0.57777 0.89481 0.85483 0.0
H2641 H 0.55353 0.94106 0.97444 0.0
H2642 H 0.55692 0.92622 0.94041 0.0
C2643 C 0.58564 0.89314 0.83331 0.0
C2644 C 0.57237 0.89471 0.90637 0.0
H2645 H 0.54269 0.8951 0.92948 0.0
C2646 C 0.58159 0.90267 0.92831 0.0
C2647 C 0.55802 0.89156 0.90728 0.0
C2648 C 0.54731 0.88238 0.8854 0.0
C2649 C 0.57708 0.90803 0.95037 0.0
C2650 C 0.56291 0.90534 0.95072 0.0
C2651 C 0.55354 0.89709 0.92924 0.0
C2652 C 0.55829 0.91243 0.97144 0.0
C2653 C 0.58772 0.91717 0.97245 0.0
C2654 C 0.55738 0.90926 1.00023 0.0
C2655 C 0.55533 0.91772 0.01988 0.0
C2656 C 0.55432 0.92952 0.01092 0.0
C2657 C 0.55437 0.93208 0.982 0.0
C2658 C 0.55626 0.92358 0.96248 0.0
H2659 H 0.59874 0.9198 0.9671 0.0
H2660 H 0.58756 0.92725 0.97529 0.0
H2661 H 0.58481 0.91143 0.99279 0.0
H2662 H 0.55885 0.90063 0.00756 0.0
H2663 H 0.55538 0.91553 0.04203 0.0
H2664 H 0.0523 0.60596 0.97013 0.0
H2665 H 0.06569 0.62279 0.93285 0.0
H2666 H 0.08714 0.65599 0.99436 0.0
H2667 H 0.07407 0.63892 0.03194 0.0
H2668 H 0.06234 0.64445 0.92121 0.0
H2669 H 0.11962 0.66538 0.94198 0.0
H2670 H 0.10586 0.64957 0.95891 0.0
H2671 H 0.11044 0.66693 0.97186 0.0
C2672 C 0.0602 0.61675 0.97577 0.0
C2673 C 0.06216 0.62114 1.00392 0.0
C2674 C 0.06783 0.62638 0.95442 0.0
C2675 C 0.07749 0.64069 0.96065 0.0
C2676 C 0.08001 0.64496 0.98895 0.0
H2677 H 0.10628 0.71833 0.87153 0.0
H2678 H 0.10221 0.69963 0.90504 0.0
C2679 C 0.07251 0.63521 0.01045 0.0
C2680 C 0.08334 0.65133 0.93747 0.0
H2681 H 0.11383 0.67908 0.9104 0.0
C2682 C 0.07363 0.65183 0.91862 0.0
C2683 C 0.09807 0.66106 0.93407 0.0
C2684 C 0.10911 0.66064 0.95262 0.0
C2685 C 0.07816 0.66199 0.89709 0.0
C2686 C 0.09282 0.67192 0.89412 0.0
C2687 C 0.1026 0.67137 0.91264 0.0
C2688 C 0.09783 0.68368 0.87345 0.0
C2689 C 0.06717 0.6624 0.87828 0.0
C2690 C 0.09722 0.68104 0.84448 0.0
C2691 C 0.09966 0.69179 0.82515 0.0
C2692 C 0.10258 0.70525 0.83462 0.0
C2693 C 0.10399 0.70804 0.8636 0.0
C2694 C 0.10171 0.69738 0.8828 0.0
H2695 H 0.05612 0.65507 0.88549 0.0
H2696 H 0.06885 0.67336 0.87731 0.0
H2697 H 0.06832 0.65929 0.85669 0.0
H2698 H 0.09424 0.6705 0.83687 0.0
H2699 H 0.09844 0.68932 0.80297 0.0
H2700 H 0.30756 0.40622 0.81033 0.0
H2701 H 0.32404 0.41886 0.84893 0.0
H2702 H 0.2885 0.40945 0.90294 0.0
H2703 H 0.27202 0.39632 0.86481 0.0
H2704 H 0.33047 0.44066 0.88612 0.0
H2705 H 0.30584 0.38887 0.94231 0.0
H2706 H 0.30179 0.39035 0.90626 0.0
H2707 H 0.29361 0.39493 0.9341 0.0
C2708 C 0.3033 0.40722 0.83019 0.0
C2709 C 0.28852 0.40017 0.83468 0.0
C2710 C 0.31272 0.41438 0.85231 0.0
C2711 C 0.30749 0.41472 0.87912 0.0
C2712 C 0.29277 0.40895 0.88272 0.0
H2713 H 0.35355 0.43369 0.04004 0.0
H2714 H 0.33591 0.4316 1.00497 0.0
C2715 C 0.28337 0.40158 0.86082 0.0
C2716 C 0.31727 0.41979 0.90372 0.0
H2717 H 0.32427 0.40851 0.96555 0.0
C2718 C 0.32905 0.43367 0.90359 0.0
C2719 C 0.31548 0.41065 0.92654 0.0
C2720 C 0.30358 0.39533 0.92731 0.0
C2721 C 0.33913 0.43855 0.92543 0.0
C2722 C 0.33743 0.42931 0.9479 0.0
C2723 C 0.32545 0.41563 0.94848 0.0
C2724 C 0.34875 0.43286 0.96915 0.0
C2725 C 0.35163 0.4535 0.92413 0.0
C2726 C 0.36182 0.43439 0.96065 0.0
C2727 C 0.37174 0.4354 0.9805 0.0
C2728 C 0.36887 0.43499 0.00935 0.0
C2729 C 0.35608 0.43416 0.01796 0.0
C2730 C 0.34601 0.43293 0.99797 0.0
H2731 H 0.34932 0.46045 0.91064 0.0
H2732 H 0.35461 0.45826 0.9454 0.0
H2733 H 0.36092 0.45323 0.91507 0.0
H2734 H 0.36406 0.43408 0.93861 0.0
H2735 H 0.3815 0.43603 0.97321 0.0
H2736 H 0.89035 0.58686 0.70397 0.0
H2737 H 0.89385 0.57189 0.66978 0.0
H2738 H 0.89433 0.59871 0.60258 0.0
H2739 H 0.89083 0.61358 0.6363 0.0
H2740 H 0.87934 0.56831 0.58998 0.0
H2741 H 0.93402 0.58901 0.63278 0.0
H2742 H 0.91945 0.58071 0.65715 0.0
H2743 H 0.9235 0.59721 0.64079 0.0
C2744 C 0.89091 0.58936 0.68185 0.0
C2745 C 0.89048 0.60147 0.67283 0.0
C2746 C 0.89297 0.58085 0.66237 0.0
C2747 C 0.89452 0.5843 0.63368 0.0
C2748 C 0.89317 0.59586 0.62459 0.0
H2749 H 0.92419 0.57026 0.47722 0.0
H2750 H 0.91011 0.57339 0.51376 0.0
C2751 C 0.89124 0.60438 0.64394 0.0
C2752 C 0.89895 0.57695 0.61322 0.0
H2753 H 0.92796 0.57484 0.59267 0.0
C2754 C 0.88989 0.56953 0.59072 0.0
C2755 C 0.91274 0.57864 0.61416 0.0
C2756 C 0.92308 0.58689 0.63735 0.0
C2757 C 0.89434 0.56389 0.56894 0.0
C2758 C 0.90835 0.56605 0.56934 0.0
C2759 C 0.91721 0.57312 0.59232 0.0
C2760 C 0.91449 0.56188 0.54571 0.0
C2761 C 0.88399 0.55568 0.54578 0.0
C2762 C 0.92152 0.55423 0.55122 0.0
C2763 C 0.92977 0.5527 0.53054 0.0
C2764 C 0.93106 0.55864 0.50377 0.0
C2765 C 0.92322 0.5654 0.49755 0.0
C2766 C 0.91512 0.56715 0.51845 0.0
H2767 H 0.8728 0.55077 0.5532 0.0
H2768 H 0.88536 0.56308 0.52844 0.0
H2769 H 0.88581 0.54718 0.53738 0.0
H2770 H 0.92121 0.55005 0.572 0.0
H2771 H 0.9357 0.54742 0.53591 0.0
H2772 H 0.40939 0.29655 0.70106 0.0
H2773 H 0.42375 0.31406 0.66472 0.0
H2774 H 0.38749 0.29589 0.60923 0.0
H2775 H 0.37337 0.27846 0.64474 0.0
H2776 H 0.41232 0.30259 0.5815 0.0
H2777 H 0.4187 0.34808 0.64653 0.0
H2778 H 0.4253 0.33718 0.66101 0.0
H2779 H 0.4065 0.32985 0.65605 0.0
C2780 C 0.40459 0.29623 0.68097 0.0
C2781 C 0.39021 0.2862 0.67591 0.0
C2782 C 0.41277 0.30627 0.66028 0.0
C2783 C 0.40665 0.30642 0.63432 0.0
C2784 C 0.39248 0.29603 0.62901 0.0
H2785 H 0.40854 0.36479 0.51976 0.0
H2786 H 0.40632 0.34844 0.55685 0.0
C2787 C 0.38438 0.28608 0.64949 0.0
C2788 C 0.41437 0.31773 0.61293 0.0
H2789 H 0.42558 0.35272 0.59954 0.0
C2790 C 0.41552 0.31363 0.58552 0.0
C2791 C 0.41846 0.33212 0.61817 0.0
C2792 C 0.41713 0.33715 0.64694 0.0
C2793 C 0.4198 0.32329 0.56298 0.0
C2794 C 0.42324 0.3375 0.56806 0.0
C2795 C 0.42296 0.34182 0.59572 0.0
C2796 C 0.42503 0.34744 0.54484 0.0
C2797 C 0.41966 0.31798 0.53369 0.0
C2798 C 0.4363 0.35233 0.52545 0.0
C2799 C 0.43757 0.36173 0.50384 0.0
C2800 C 0.42763 0.36642 0.50147 0.0
C2801 C 0.41639 0.36143 0.52091 0.0
C2802 C 0.41513 0.35209 0.54227 0.0
H2803 H 0.41483 0.30622 0.53292 0.0
H2804 H 0.41365 0.32112 0.51933 0.0
H2805 H 0.43075 0.32285 0.52578 0.0
H2806 H 0.44417 0.34902 0.5272 0.0
H2807 H 0.44638 0.36546 0.4893 0.0
H2808 H 0.62619 0.04491 0.52268 0.0
H2809 H 0.64238 0.05967 0.5593 0.0
H2810 H 0.64294 0.09663 0.52447 0.0
H2811 H 0.62668 0.08174 0.48688 0.0
H2812 H 0.66963 0.1021 0.53909 0.0
H2813 H 0.63342 0.07555 0.62776 0.0
H2814 H 0.6344 0.06256 0.60615 0.0
H2815 H 0.6272 0.07306 0.59195 0.0
C2816 C 0.62967 0.05617 0.52272 0.0
C2817 C 0.62505 0.06213 0.50192 0.0
C2818 C 0.63886 0.06459 0.54392 0.0
C2819 C 0.64358 0.0792 0.54521 0.0
C2820 C 0.63927 0.08533 0.52414 0.0
H2821 H 0.69498 0.11195 0.6991 0.0
H2822 H 0.67744 0.10977 0.66378 0.0
C2823 C 0.63002 0.07684 0.50267 0.0
C2824 C 0.65353 0.08786 0.568 0.0
H2825 H 0.65879 0.08653 0.63826 0.0
C2826 C 0.66716 0.09894 0.56087 0.0
C2827 C 0.65025 0.08411 0.59659 0.0
C2828 C 0.63545 0.07328 0.60606 0.0
C2829 C 0.67794 0.1054 0.5812 0.0
C2830 C 0.67512 0.10036 0.60923 0.0
C2831 C 0.66112 0.09026 0.61675 0.0
C2832 C 0.68673 0.10383 0.62989 0.0
C2833 C 0.69236 0.11728 0.57219 0.0
C2834 C 0.69784 0.10132 0.62269 0.0
C2835 C 0.70782 0.10264 0.64264 0.0
C2836 C 0.70688 0.10629 0.67054 0.0
C2837 C 0.69602 0.1092 0.67775 0.0
C2838 C 0.68599 0.10793 0.65758 0.0
H2839 H 0.69127 0.1237 0.55523 0.0
H2840 H 0.69828 0.12443 0.58992 0.0
H2841 H 0.69869 0.11266 0.56364 0.0
H2842 H 0.69845 0.09769 0.60187 0.0
H2843 H 0.71599 0.10026 0.63633 0.0
H2844 H 0.77317 0.72078 0.70291 0.0
H2845 H 0.76925 0.7352 0.73723 0.0
H2846 H 0.75675 0.75368 0.67091 0.0
H2847 H 0.76064 0.73922 0.63627 0.0
H2848 H 0.77825 0.76602 0.74377 0.0
H2849 H 0.72063 0.72987 0.72179 0.0
H2850 H 0.73411 0.72575 0.71095 0.0
H2851 H 0.73181 0.7388 0.69214 0.0
C2852 C 0.76995 0.7282 0.69551 0.0
C2853 C 0.76706 0.72876 0.66692 0.0
C2854 C 0.76775 0.73645 0.71517 0.0
C2855 C 0.76254 0.74536 0.70665 0.0
C2856 C 0.76069 0.74679 0.6779 0.0
H2857 H 0.71558 0.77521 0.80456 0.0
H2858 H 0.72922 0.77211 0.76734 0.0
C2859 C 0.76298 0.73857 0.65813 0.0
C2860 C 0.75727 0.75152 0.72809 0.0
H2861 H 0.72647 0.74715 0.75648 0.0
C2862 C 0.76694 0.76203 0.74646 0.0
C2863 C 0.74251 0.74615 0.73172 0.0
C2864 C 0.7316 0.73445 0.71331 0.0
C2865 C 0.76222 0.76744 0.76822 0.0
C2866 C 0.74742 0.76193 0.77205 0.0
C2867 C 0.73781 0.75146 0.7535 0.0
C2868 C 0.7414 0.76651 0.79522 0.0
C2869 C 0.77311 0.77911 0.78664 0.0
C2870 C 0.74404 0.76492 0.82352 0.0
C2871 C 0.73638 0.76695 0.845 0.0
C2872 C 0.72577 0.7703 0.8384 0.0
C2873 C 0.72367 0.77257 0.81024 0.0
C2874 C 0.73145 0.77079 0.78893 0.0
H2875 H 0.78359 0.78507 0.77596 0.0
H2876 H 0.76957 0.78672 0.79283 0.0
H2877 H 0.77462 0.77431 0.80596 0.0
H2878 H 0.75141 0.76132 0.82896 0.0
H2879 H 0.73808 0.76497 0.86653 0.0
H2880 H 0.28152 0.02964 0.67695 0.0
H2881 H 0.26731 0.01379 0.71461 0.0
H2882 H 0.23253 0.02063 0.69329 0.0
H2883 H 0.24679 0.03648 0.6547 0.0
H2884 H 0.25659 0.02055 0.76047 0.0
H2885 H 0.21299 0.97717 0.69847 0.0
H2886 H 0.22931 0.99053 0.68239 0.0
H2887 H 0.21613 0.99493 0.69323 0.0
C2888 C 0.27081 0.02772 0.68002 0.0
C2889 C 0.26528 0.03432 0.66279 0.0
C2890 C 0.26269 0.01867 0.70168 0.0
C2891 C 0.24883 0.01597 0.70685 0.0
C2892 C 0.24313 0.02239 0.6895 0.0
H2893 H 0.21797 0.96787 0.86662 0.0
H2894 H 0.22061 0.98557 0.83121 0.0
C2895 C 0.25128 0.03146 0.66751 0.0
C2896 C 0.24079 0.00661 0.73087 0.0
H2897 H 0.21353 0.97333 0.74671 0.0
C2898 C 0.24701 0.01032 0.75763 0.0
C2899 C 0.22829 0.99329 0.72709 0.0
C2900 C 0.22127 0.98862 0.69877 0.0
C2901 C 0.24171 0.00073 0.7802 0.0
C2902 C 0.22958 0.98712 0.77614 0.0
C2903 C 0.22278 0.98378 0.74985 0.0
C2904 C 0.22541 0.97548 0.79705 0.0
C2905 C 0.24982 0.00487 0.80754 0.0
C2906 C 0.22641 0.96353 0.78936 0.0
C2907 C 0.22476 0.95343 0.80932 0.0
C2908 C 0.22207 0.95499 0.83757 0.0
C2909 C 0.2201 0.96643 0.84505 0.0
C2910 C 0.22173 0.97659 0.82488 0.0
H2911 H 0.26025 0.01485 0.80566 0.0
H2912 H 0.24346 0.00657 0.8237 0.0
H2913 H 0.25175 0.99628 0.81498 0.0
H2914 H 0.22919 0.96236 0.76809 0.0
H2915 H 0.22621 0.94468 0.80275 0.0
H2916 H 0.96206 0.24739 0.68166 0.0
H2917 H 0.97777 0.24797 0.71852 0.0
H2918 H 0.97123 0.20716 0.69161 0.0
H2919 H 0.95549 0.20666 0.65374 0.0
H2920 H 0.97102 0.22904 0.76222 0.0
H2921 H 0.01475 0.23146 0.69685 0.0
H2922 H 0.00129 0.23471 0.68224 0.0
H2923 H -0.00301 0.21692 0.69101 0.0
C2924 C 0.96399 0.23854 0.68335 0.0
C2925 C 0.95752 0.22697 0.66475 0.0
C2926 C 0.97296 0.23887 0.70456 0.0
C2927 C 0.97571 0.22763 0.70791 0.0
C2928 C 0.9694 0.21604 0.68924 0.0
H2929 H 0.02632 0.24573 0.86448 0.0
H2930 H 0.00825 0.22995 0.83031 0.0
C2931 C 0.96041 0.21575 0.66766 0.0
C2932 C 0.98513 0.22841 0.73132 0.0
H2933 H 0.01901 0.23565 0.74496 0.0
C2934 C 0.98142 0.23018 0.75863 0.0
C2935 C -0.00135 0.22983 0.72654 0.0
C2936 C 0.00329 0.22822 0.69761 0.0
C2937 C 0.99125 0.23456 0.78079 0.0
C2938 C 0.0051 0.23684 0.77566 0.0
C2939 C 0.00839 0.23388 0.74887 0.0
C2940 C 0.01696 0.24489 0.79581 0.0
C2941 C 0.98709 0.23787 0.80881 0.0
C2942 C 0.02824 0.25815 0.78747 0.0
C2943 C 0.03855 0.26701 0.80668 0.0
C2944 C 0.03786 0.26287 0.83484 0.0
C2945 C 0.02706 0.24924 0.84297 0.0
C2946 C 0.01669 0.24027 0.82352 0.0
H2947 H 0.97668 0.23752 0.80796 0.0
H2948 H 0.98623 0.22993 0.82451 0.0
H2949 H 0.99529 0.24858 0.81618 0.0
H2950 H 0.02873 0.26199 0.76628 0.0
H2951 H 0.04679 0.27737 0.79959 0.0
H2952 H 0.26357 0.20875 0.2052 0.0
H2953 H 0.24997 0.21301 0.24088 0.0
H2954 H 0.24025 0.23663 0.18067 0.0
H2955 H 0.25332 0.23176 0.14455 0.0
H2956 H 0.25781 0.23794 0.26049 0.0
H2957 H 0.20307 0.21672 0.22047 0.0
H2958 H 0.21537 0.21207 0.20492 0.0
H2959 H 0.216 0.22847 0.19559 0.0
C2960 C 0.25809 0.21442 0.19934 0.0
C2961 C 0.25943 0.21987 0.1721 0.0
C2962 C 0.25037 0.21691 0.21979 0.0
C2963 C 0.24399 0.22511 0.21361 0.0
C2964 C 0.24472 0.22997 0.18594 0.0
H2965 H 0.22667 0.28137 0.30652 0.0
H2966 H 0.22957 0.2665 0.27172 0.0
C2967 C 0.25224 0.22722 0.16526 0.0
C2968 C 0.23837 0.23013 0.23685 0.0
H2969 H 0.21053 0.23458 0.25685 0.0
C2970 C 0.24734 0.23691 0.25989 0.0
C2971 C 0.22473 0.22889 0.23619 0.0
C2972 C 0.2142 0.22101 0.21308 0.0
C2973 C 0.24331 0.2429 0.28159 0.0
C2974 C 0.22993 0.24213 0.28036 0.0
C2975 C 0.22078 0.23511 0.25776 0.0
C2976 C 0.22603 0.24984 0.30099 0.0
C2977 C 0.25363 0.25058 0.30516 0.0
C2978 C 0.2227 0.24521 0.32893 0.0
C2979 C 0.22092 0.25368 0.34898 0.0
C2980 C 0.22263 0.26696 0.34134 0.0
C2981 C 0.22536 0.27123 0.31309 0.0
C2982 C 0.22697 0.26272 0.29313 0.0
H2983 H 0.26413 0.25136 0.30169 0.0
H2984 H 0.25527 0.26149 0.30754 0.0
H2985 H 0.24913 0.24482 0.32514 0.0
H2986 H 0.22194 0.23528 0.33539 0.0
H2987 H 0.21886 0.25014 0.37058 0.0
H2988 H 0.78141 0.05625 0.20634 0.0
H2989 H 0.77747 0.03897 0.24305 0.0
H2990 H 0.76007 0.00524 0.18168 0.0
H2991 H 0.76459 0.02268 0.14465 0.0
H2992 H 0.75189 0.01953 0.25753 0.0
H2993 H 0.78141 0.99193 0.22966 0.0
H2994 H 0.78503 0.00841 0.21325 0.0
H2995 H 0.77041 0.99171 0.20138 0.0
C2996 C 0.77722 0.04521 0.20054 0.0
C2997 C 0.77334 0.0408 0.17266 0.0
C2998 C 0.77492 0.03532 0.22157 0.0
C2999 C 0.76849 0.02075 0.21529 0.0
C3000 C 0.76534 0.01642 0.18711 0.0
H3001 H 0.7156 0.94375 0.30294 0.0
H3002 H 0.731 0.96234 0.26999 0.0
C3003 C 0.7679 0.02639 0.1659 0.0
C3004 C 0.76328 0.01013 0.23853 0.0
H3005 H 0.76214 0.97987 0.26267 0.0
C3006 C 0.75438 0.01103 0.2589 0.0
C3007 C 0.76641 -0.00105 0.24035 0.0
C3008 C 0.77646 -0.00224 0.22014 0.0
C3009 C 0.74817 0.00086 0.2803 0.0
C3010 C 0.75097 0.98948 0.28165 0.0
C3011 C 0.76007 0.98866 0.26168 0.0
C3012 C 0.7434 0.97767 0.30202 0.0
C3013 C 0.73812 0.00202 0.30061 0.0
C3014 C 0.74558 0.97994 0.33107 0.0
C3015 C 0.73678 0.96926 0.35009 0.0
C3016 C 0.72563 0.9562 0.34027 0.0
C3017 C 0.72404 0.95373 0.31118 0.0
C3018 C 0.73287 0.96433 0.29228 0.0
H3019 H 0.73537 0.01019 0.29406 0.0
H3020 H 0.72812 0.99163 0.30264 0.0
H3021 H 0.74317 0.005 0.32161 0.0
H3022 H 0.75373 0.99015 0.339 0.0
H3023 H 0.73825 0.97147 0.37236 0.0
H3024 H 0.01557 0.76156 0.37 0.0
H3025 H -0.00104 0.7583 0.3319 0.0
H3026 H 0.03437 0.78168 0.27583 0.0
H3027 H 0.05093 0.78464 0.31346 0.0
H3028 H 0.99475 0.77594 0.29314 0.0
H3029 H 0.01288 0.74216 0.24017 0.0
H3030 H 0.01741 0.74794 0.27602 0.0
H3031 H 0.02683 0.75994 0.2477 0.0
C3032 C 0.0198 0.76629 0.34973 0.0
C3033 C 0.03452 0.7732 0.34459 0.0
C3034 C 0.01031 0.7644 0.32796 0.0
C3035 C 0.01543 0.76946 0.30085 0.0
C3036 C 0.03017 0.77741 0.2964 0.0
H3037 H 0.97074 0.74401 0.14015 0.0
H3038 H 0.98854 0.75879 0.17538 0.0
C3039 C 0.03963 0.77915 0.31798 0.0
C3040 C 0.00544 0.76527 0.27674 0.0
H3041 H -0.0039 0.74587 0.21619 0.0
C3042 C 0.99508 0.76943 0.27623 0.0
C3043 C 0.00585 0.75675 0.25467 0.0
C3044 C 0.01624 0.75131 0.25467 0.0
C3045 C 0.98511 0.76525 0.25425 0.0
C3046 C 0.98542 0.75656 0.23244 0.0
C3047 C -0.00403 0.75268 0.23271 0.0
C3048 C 0.97414 0.75008 0.21065 0.0
C3049 C 0.97433 0.77016 0.25457 0.0
C3050 C 0.96005 0.74058 0.21865 0.0
C3051 C 0.94992 0.73215 0.19862 0.0
C3052 C 0.95367 0.733 0.17017 0.0
C3053 C 0.96751 0.7432 0.16187 0.0
C3054 C 0.9777 0.7516 0.18201 0.0
H3055 H 0.97824 0.78015 0.26679 0.0
H3056 H 0.9717 0.77194 0.23298 0.0
H3057 H 0.9644 0.76187 0.26467 0.0
H3058 H 0.95709 0.73897 0.24059 0.0
H3059 H 0.93934 0.72436 0.20568 0.0
loop_
_geom_bond_atom_site_label_1
_geom_bond_atom_site_label_2
_geom_bond_distance
_geom_bond_site_symmetry_2
_ccdc_geom_bond_type
In0 O1 2.294 . S
In0 O2 2.326 . S
In0 O6 2.266 . S
In0 O7 2.326 . S
In0 O8 2.266 . S
In0 O9 2.326 . S
In0 O11 2.294 . S
In0 O12 2.326 . S
O1 In0 2.294 . S
O1 C10 1.240 . S
O2 In0 2.326 . S
O2 C10 1.252 . S
C3 O6 1.252 . S
C3 O7 1.260 . S
C4 O11 1.240 . S
C4 O12 1.252 . S
C5 O8 1.252 . S
C5 O9 1.260 . S
O6 In0 2.266 . S
O6 C3 1.252 . S
O7 In0 2.326 . S
O7 C3 1.260 . S
O8 In0 2.266 . S
O8 C5 1.252 . S
O9 In0 2.326 . S
O9 C5 1.260 . S
C10 O1 1.240 . S
C10 O2 1.252 . S
O11 In0 2.294 . S
O11 C4 1.240 . S
O12 In0 2.326 . S
O12 C4 1.252 . S
In13 O14 2.294 . S
In13 O15 2.326 . S
In13 O19 2.266 . S
In13 O20 2.326 . S
In13 O21 2.266 . S
In13 O22 2.326 . S
In13 O24 2.294 . S
In13 O25 2.326 . S
O14 In13 2.294 . S
O14 C23 1.240 . S
O15 In13 2.326 . S
O15 C23 1.252 . S
C16 O19 1.252 . S
C16 O20 1.260 . S
C17 O24 1.240 . S
C17 O25 1.252 . S
C18 O21 1.252 . S
C18 O22 1.260 . S
O19 In13 2.266 . S
O19 C16 1.252 . S
O20 In13 2.326 . S
O20 C16 1.260 . S
O21 In13 2.266 . S
O21 C18 1.252 . S
O22 In13 2.326 . S
O22 C18 1.260 . S
C23 O14 1.240 . S
C23 O15 1.252 . S
O24 In13 2.294 . S
O24 C17 1.240 . S
O25 In13 2.326 . S
O25 C17 1.252 . S
In26 O27 2.294 . S
In26 O28 2.326 . S
In26 O32 2.266 . S
In26 O33 2.326 . S
In26 O34 2.266 . S
In26 O35 2.326 . S
In26 O37 2.294 . S
In26 O38 2.326 . S
O27 In26 2.294 . S
O27 C36 1.240 . S
O28 In26 2.326 . S
O28 C36 1.252 . S
C29 O32 1.252 . S
C29 O33 1.260 . S
C30 O37 1.240 . S
C30 O38 1.252 . S
C31 O34 1.252 . S
C31 O35 1.260 . S
O32 In26 2.266 . S
O32 C29 1.252 . S
O33 In26 2.326 . S
O33 C29 1.260 . S
O34 In26 2.266 . S
O34 C31 1.252 . S
O35 In26 2.326 . S
O35 C31 1.260 . S
C36 O27 1.240 . S
C36 O28 1.252 . S
O37 In26 2.294 . S
O37 C30 1.240 . S
O38 In26 2.326 . S
O38 C30 1.252 . S
In39 O40 2.294 . S
In39 O41 2.326 . S
In39 O45 2.266 . S
In39 O46 2.326 . S
In39 O47 2.266 . S
In39 O48 2.326 . S
In39 O50 2.294 . S
In39 O51 2.326 . S
O40 In39 2.294 . S
O40 C49 1.240 . S
O41 In39 2.326 . S
O41 C49 1.252 . S
C42 O45 1.252 . S
C42 O46 1.260 . S
C43 O50 1.240 . S
C43 O51 1.252 . S
C44 O47 1.252 . S
C44 O48 1.260 . S
O45 In39 2.266 . S
O45 C42 1.252 . S
O46 In39 2.326 . S
O46 C42 1.260 . S
O47 In39 2.266 . S
O47 C44 1.252 . S
O48 In39 2.326 . S
O48 C44 1.260 . S
C49 O40 1.240 . S
C49 O41 1.252 . S
O50 In39 2.294 . S
O50 C43 1.240 . S
O51 In39 2.326 . S
O51 C43 1.252 . S
In52 O53 2.294 . S
In52 O54 2.326 . S
In52 O58 2.266 . S
In52 O59 2.326 . S
In52 O60 2.266 . S
In52 O61 2.326 . S
In52 O63 2.294 . S
In52 O64 2.326 . S
O53 In52 2.294 . S
O53 C62 1.240 . S
O54 In52 2.326 . S
O54 C62 1.252 . S
C55 O58 1.252 . S
C55 O59 1.260 . S
C56 O63 1.240 . S
C56 O64 1.252 . S
C57 O60 1.252 . S
C57 O61 1.260 . S
O58 In52 2.266 . S
O58 C55 1.252 . S
O59 In52 2.326 . S
O59 C55 1.260 . S
O60 In52 2.266 . S
O60 C57 1.252 . S
O61 In52 2.326 . S
O61 C57 1.260 . S
C62 O53 1.240 . S
C62 O54 1.252 . S
O63 In52 2.294 . S
O63 C56 1.240 . S
O64 In52 2.326 . S
O64 C56 1.252 . S
In65 O66 2.294 . S
In65 O67 2.326 . S
In65 O71 2.266 . S
In65 O72 2.326 . S
In65 O73 2.266 . S
In65 O74 2.326 . S
In65 O76 2.294 . S
In65 O77 2.326 . S
O66 In65 2.294 . S
O66 C75 1.240 . S
O67 In65 2.326 . S
O67 C75 1.252 . S
C68 O71 1.252 . S
C68 O72 1.260 . S
C69 O76 1.240 . S
C69 O77 1.252 . S
C70 O73 1.252 . S
C70 O74 1.260 . S
O71 In65 2.266 . S
O71 C68 1.252 . S
O72 In65 2.326 . S
O72 C68 1.260 . S
O73 In65 2.266 . S
O73 C70 1.252 . S
O74 In65 2.326 . S
O74 C70 1.260 . S
C75 O66 1.240 . S
C75 O67 1.252 . S
O76 In65 2.294 . S
O76 C69 1.240 . S
O77 In65 2.326 . S
O77 C69 1.252 . S
In78 O79 2.294 . S
In78 O80 2.326 . S
In78 O84 2.266 . S
In78 O85 2.326 . S
In78 O86 2.266 . S
In78 O87 2.326 . S
In78 O89 2.294 . S
In78 O90 2.326 . S
O79 In78 2.294 . S
O79 C88 1.240 . S
O80 In78 2.326 . S
O80 C88 1.252 . S
C81 O84 1.252 . S
C81 O85 1.260 . S
C82 O89 1.240 . S
C82 O90 1.252 . S
C83 O86 1.252 . S
C83 O87 1.260 . S
O84 In78 2.266 . S
O84 C81 1.252 . S
O85 In78 2.326 . S
O85 C81 1.260 . S
O86 In78 2.266 . S
O86 C83 1.252 . S
O87 In78 2.326 . S
O87 C83 1.260 . S
C88 O79 1.240 . S
C88 O80 1.252 . S
O89 In78 2.294 . S
O89 C82 1.240 . S
O90 In78 2.326 . S
O90 C82 1.252 . S
In91 O92 2.294 . S
In91 O93 2.326 . S
In91 O97 2.266 . S
In91 O98 2.326 . S
In91 O99 2.266 . S
In91 O100 2.326 . S
In91 O102 2.294 . S
In91 O103 2.326 . S
O92 In91 2.294 . S
O92 C101 1.240 . S
O93 In91 2.326 . S
O93 C101 1.252 . S
C94 O97 1.252 . S
C94 O98 1.260 . S
C95 O102 1.240 . S
C95 O103 1.252 . S
C96 O99 1.252 . S
C96 O100 1.260 . S
O97 In91 2.266 . S
O97 C94 1.252 . S
O98 In91 2.326 . S
O98 C94 1.260 . S
O99 In91 2.266 . S
O99 C96 1.252 . S
O100 In91 2.326 . S
O100 C96 1.260 . S
C101 O92 1.240 . S
C101 O93 1.252 . S
O102 In91 2.294 . S
O102 C95 1.240 . S
O103 In91 2.326 . S
O103 C95 1.252 . S
In104 O105 2.294 . S
In104 O106 2.326 . S
In104 O110 2.266 . S
In104 O111 2.326 . S
In104 O112 2.266 . S
In104 O113 2.326 . S
In104 O115 2.294 . S
In104 O116 2.326 . S
O105 In104 2.294 . S
O105 C114 1.240 . S
O106 In104 2.326 . S
O106 C114 1.252 . S
C107 O110 1.252 . S
C107 O111 1.260 . S
C108 O115 1.240 . S
C108 O116 1.252 . S
C109 O112 1.252 . S
C109 O113 1.260 . S
O110 In104 2.266 . S
O110 C107 1.252 . S
O111 In104 2.326 . S
O111 C107 1.260 . S
O112 In104 2.266 . S
O112 C109 1.252 . S
O113 In104 2.326 . S
O113 C109 1.260 . S
C114 O105 1.240 . S
C114 O106 1.252 . S
O115 In104 2.294 . S
O115 C108 1.240 . S
O116 In104 2.326 . S
O116 C108 1.252 . S
In117 O118 2.294 . S
In117 O119 2.326 . S
In117 O123 2.266 . S
In117 O124 2.326 . S
In117 O125 2.266 . S
In117 O126 2.326 . S
In117 O128 2.294 . S
In117 O129 2.326 . S
O118 In117 2.294 . S
O118 C127 1.240 . S
O119 In117 2.326 . S
O119 C127 1.252 . S
C120 O123 1.252 . S
C120 O124 1.260 . S
C121 O128 1.240 . S
C121 O129 1.252 . S
C122 O125 1.252 . S
C122 O126 1.260 . S
O123 In117 2.266 . S
O123 C120 1.252 . S
O124 In117 2.326 . S
O124 C120 1.260 . S
O125 In117 2.266 . S
O125 C122 1.252 . S
O126 In117 2.326 . S
O126 C122 1.260 . S
C127 O118 1.240 . S
C127 O119 1.252 . S
O128 In117 2.294 . S
O128 C121 1.240 . S
O129 In117 2.326 . S
O129 C121 1.252 . S
In130 O131 2.294 . S
In130 O132 2.326 . S
In130 O136 2.266 . S
In130 O137 2.326 . S
In130 O138 2.266 . S
In130 O139 2.326 . S
In130 O141 2.294 . S
In130 O142 2.326 . S
O131 In130 2.294 . S
O131 C140 1.240 . S
O132 In130 2.326 . S
O132 C140 1.252 . S
C133 O136 1.252 . S
C133 O137 1.260 . S
C134 O141 1.240 . S
C134 O142 1.252 . S
C135 O138 1.252 . S
C135 O139 1.260 . S
O136 In130 2.266 . S
O136 C133 1.252 . S
O137 In130 2.326 . S
O137 C133 1.260 . S
O138 In130 2.266 . S
O138 C135 1.252 . S
O139 In130 2.326 . S
O139 C135 1.260 . S
C140 O131 1.240 . S
C140 O132 1.252 . S
O141 In130 2.294 . S
O141 C134 1.240 . S
O142 In130 2.326 . S
O142 C134 1.252 . S
In143 O144 2.294 . S
In143 O145 2.326 . S
In143 O149 2.266 . S
In143 O150 2.326 . S
In143 O151 2.266 . S
In143 O152 2.326 . S
In143 O154 2.294 . S
In143 O155 2.326 . S
O144 In143 2.294 . S
O144 C153 1.240 . S
O145 In143 2.326 . S
O145 C153 1.252 . S
C146 O149 1.252 . S
C146 O150 1.260 . S
C147 O154 1.240 . S
C147 O155 1.252 . S
C148 O151 1.252 . S
C148 O152 1.260 . S
O149 In143 2.266 . S
O149 C146 1.252 . S
O150 In143 2.326 . S
O150 C146 1.260 . S
O151 In143 2.266 . S
O151 C148 1.252 . S
O152 In143 2.326 . S
O152 C148 1.260 . S
C153 O144 1.240 . S
C153 O145 1.252 . S
O154 In143 2.294 . S
O154 C147 1.240 . S
O155 In143 2.326 . S
O155 C147 1.252 . S
In156 O157 2.294 . S
In156 O158 2.326 . S
In156 O162 2.266 . S
In156 O163 2.326 . S
In156 O164 2.266 . S
In156 O165 2.326 . S
In156 O167 2.294 . S
In156 O168 2.326 . S
O157 In156 2.294 . S
O157 C166 1.240 . S
O158 In156 2.326 . S
O158 C166 1.252 . S
C159 O162 1.252 . S
C159 O163 1.260 . S
C160 O167 1.240 . S
C160 O168 1.252 . S
C161 O164 1.252 . S
C161 O165 1.260 . S
O162 In156 2.266 . S
O162 C159 1.252 . S
O163 In156 2.326 . S
O163 C159 1.260 . S
O164 In156 2.266 . S
O164 C161 1.252 . S
O165 In156 2.326 . S
O165 C161 1.260 . S
C166 O157 1.240 . S
C166 O158 1.252 . S
O167 In156 2.294 . S
O167 C160 1.240 . S
O168 In156 2.326 . S
O168 C160 1.252 . S
In169 O170 2.294 . S
In169 O171 2.326 . S
In169 O175 2.266 . S
In169 O176 2.326 . S
In169 O177 2.266 . S
In169 O178 2.326 . S
In169 O180 2.294 . S
In169 O181 2.326 . S
O170 In169 2.294 . S
O170 C179 1.240 . S
O171 In169 2.326 . S
O171 C179 1.252 . S
C172 O175 1.252 . S
C172 O176 1.260 . S
C173 O180 1.240 . S
C173 O181 1.252 . S
C174 O177 1.252 . S
C174 O178 1.260 . S
O175 In169 2.266 . S
O175 C172 1.252 . S
O176 In169 2.326 . S
O176 C172 1.260 . S
O177 In169 2.266 . S
O177 C174 1.252 . S
O178 In169 2.326 . S
O178 C174 1.260 . S
C179 O170 1.240 . S
C179 O171 1.252 . S
O180 In169 2.294 . S
O180 C173 1.240 . S
O181 In169 2.326 . S
O181 C173 1.252 . S
In182 O183 2.294 . S
In182 O184 2.326 . S
In182 O188 2.266 . S
In182 O189 2.326 . S
In182 O190 2.266 . S
In182 O191 2.326 . S
In182 O193 2.294 . S
In182 O194 2.326 . S
O183 In182 2.294 . S
O183 C192 1.240 . S
O184 In182 2.326 . S
O184 C192 1.252 . S
C185 O188 1.252 . S
C185 O189 1.260 . S
C186 O193 1.240 . S
C186 O194 1.252 . S
C187 O190 1.252 . S
C187 O191 1.260 . S
O188 In182 2.266 . S
O188 C185 1.252 . S
O189 In182 2.326 . S
O189 C185 1.260 . S
O190 In182 2.266 . S
O190 C187 1.252 . S
O191 In182 2.326 . S
O191 C187 1.260 . S
C192 O183 1.240 . S
C192 O184 1.252 . S
O193 In182 2.294 . S
O193 C186 1.240 . S
O194 In182 2.326 . S
O194 C186 1.252 . S
In195 O196 2.294 . S
In195 O197 2.326 . S
In195 O201 2.266 . S
In195 O202 2.326 . S
In195 O203 2.266 . S
In195 O204 2.326 . S
In195 O206 2.294 . S
In195 O207 2.326 . S
O196 In195 2.294 . S
O196 C205 1.240 . S
O197 In195 2.326 . S
O197 C205 1.252 . S
C198 O201 1.252 . S
C198 O202 1.260 . S
C199 O206 1.240 . S
C199 O207 1.252 . S
C200 O203 1.252 . S
C200 O204 1.260 . S
O201 In195 2.266 . S
O201 C198 1.252 . S
O202 In195 2.326 . S
O202 C198 1.260 . S
O203 In195 2.266 . S
O203 C200 1.252 . S
O204 In195 2.326 . S
O204 C200 1.260 . S
C205 O196 1.240 . S
C205 O197 1.252 . S
O206 In195 2.294 . S
O206 C199 1.240 . S
O207 In195 2.326 . S
O207 C199 1.252 . S
In208 O209 2.294 . S
In208 O210 2.326 . S
In208 O214 2.266 . S
In208 O215 2.326 . S
In208 O216 2.266 . S
In208 O217 2.326 . S
In208 O219 2.294 . S
In208 O220 2.326 . S
O209 In208 2.294 . S
O209 C218 1.240 . S
O210 In208 2.326 . S
O210 C218 1.252 . S
C211 O214 1.252 . S
C211 O215 1.260 . S
C212 O219 1.240 . S
C212 O220 1.252 . S
C213 O216 1.252 . S
C213 O217 1.260 . S
O214 In208 2.266 . S
O214 C211 1.252 . S
O215 In208 2.326 . S
O215 C211 1.260 . S
O216 In208 2.266 . S
O216 C213 1.252 . S
O217 In208 2.326 . S
O217 C213 1.260 . S
C218 O209 1.240 . S
C218 O210 1.252 . S
O219 In208 2.294 . S
O219 C212 1.240 . S
O220 In208 2.326 . S
O220 C212 1.252 . S
In221 O222 2.294 . S
In221 O223 2.326 . S
In221 O227 2.266 . S
In221 O228 2.326 . S
In221 O229 2.266 . S
In221 O230 2.326 . S
In221 O232 2.294 . S
In221 O233 2.326 . S
O222 In221 2.294 . S
O222 C231 1.240 . S
O223 In221 2.326 . S
O223 C231 1.252 . S
C224 O227 1.252 . S
C224 O228 1.260 . S
C225 O232 1.240 . S
C225 O233 1.252 . S
C226 O229 1.252 . S
C226 O230 1.260 . S
O227 In221 2.266 . S
O227 C224 1.252 . S
O228 In221 2.326 . S
O228 C224 1.260 . S
O229 In221 2.266 . S
O229 C226 1.252 . S
O230 In221 2.326 . S
O230 C226 1.260 . S
C231 O222 1.240 . S
C231 O223 1.252 . S
O232 In221 2.294 . S
O232 C225 1.240 . S
O233 In221 2.326 . S
O233 C225 1.252 . S
In234 O235 2.294 . S
In234 O236 2.326 . S
In234 O240 2.266 . S
In234 O241 2.326 . S
In234 O242 2.266 . S
In234 O243 2.326 . S
In234 O245 2.294 . S
In234 O246 2.326 . S
O235 In234 2.294 . S
O235 C244 1.240 . S
O236 In234 2.326 . S
O236 C244 1.252 . S
C237 O240 1.252 . S
C237 O241 1.260 . S
C238 O245 1.240 . S
C238 O246 1.252 . S
C239 O242 1.252 . S
C239 O243 1.260 . S
O240 In234 2.266 . S
O240 C237 1.252 . S
O241 In234 2.326 . S
O241 C237 1.260 . S
O242 In234 2.266 . S
O242 C239 1.252 . S
O243 In234 2.326 . S
O243 C239 1.260 . S
C244 O235 1.240 . S
C244 O236 1.252 . S
O245 In234 2.294 . S
O245 C238 1.240 . S
O246 In234 2.326 . S
O246 C238 1.252 . S
In247 O248 2.294 . S
In247 O249 2.326 . S
In247 O253 2.266 . S
In247 O254 2.326 . S
In247 O255 2.266 . S
In247 O256 2.326 . S
In247 O258 2.294 . S
In247 O259 2.326 . S
O248 In247 2.294 . S
O248 C257 1.240 . S
O249 In247 2.326 . S
O249 C257 1.252 . S
C250 O253 1.252 . S
C250 O254 1.260 . S
C251 O258 1.240 . S
C251 O259 1.252 . S
C252 O255 1.252 . S
C252 O256 1.260 . S
O253 In247 2.266 . S
O253 C250 1.252 . S
O254 In247 2.326 . S
O254 C250 1.260 . S
O255 In247 2.266 . S
O255 C252 1.252 . S
O256 In247 2.326 . S
O256 C252 1.260 . S
C257 O248 1.240 . S
C257 O249 1.252 . S
O258 In247 2.294 . S
O258 C251 1.240 . S
O259 In247 2.326 . S
O259 C251 1.252 . S
In260 O261 2.294 . S
In260 O262 2.326 . S
In260 O266 2.266 . S
In260 O267 2.326 . S
In260 O268 2.266 . S
In260 O269 2.326 . S
In260 O271 2.294 . S
In260 O272 2.326 . S
O261 In260 2.294 . S
O261 C270 1.240 . S
O262 In260 2.326 . S
O262 C270 1.252 . S
C263 O266 1.252 . S
C263 O267 1.260 . S
C264 O271 1.240 . S
C264 O272 1.252 . S
C265 O268 1.252 . S
C265 O269 1.260 . S
O266 In260 2.266 . S
O266 C263 1.252 . S
O267 In260 2.326 . S
O267 C263 1.260 . S
O268 In260 2.266 . S
O268 C265 1.252 . S
O269 In260 2.326 . S
O269 C265 1.260 . S
C270 O261 1.240 . S
C270 O262 1.252 . S
O271 In260 2.294 . S
O271 C264 1.240 . S
O272 In260 2.326 . S
O272 C264 1.252 . S
In273 O274 2.294 . S
In273 O275 2.326 . S
In273 O279 2.266 . S
In273 O280 2.326 . S
In273 O281 2.266 . S
In273 O282 2.326 . S
In273 O284 2.294 . S
In273 O285 2.326 . S
O274 In273 2.294 . S
O274 C283 1.240 . S
O275 In273 2.326 . S
O275 C283 1.252 . S
C276 O279 1.252 . S
C276 O280 1.260 . S
C277 O284 1.240 . S
C277 O285 1.252 . S
C278 O281 1.252 . S
C278 O282 1.260 . S
O279 In273 2.266 . S
O279 C276 1.252 . S
O280 In273 2.326 . S
O280 C276 1.260 . S
O281 In273 2.266 . S
O281 C278 1.252 . S
O282 In273 2.326 . S
O282 C278 1.260 . S
C283 O274 1.240 . S
C283 O275 1.252 . S
O284 In273 2.294 . S
O284 C277 1.240 . S
O285 In273 2.326 . S
O285 C277 1.252 . S
In286 O287 2.294 . S
In286 O288 2.326 . S
In286 O292 2.266 . S
In286 O293 2.326 . S
In286 O294 2.266 . S
In286 O295 2.326 . S
In286 O297 2.294 . S
In286 O298 2.326 . S
O287 In286 2.294 . S
O287 C296 1.240 . S
O288 In286 2.326 . S
O288 C296 1.252 . S
C289 O292 1.252 . S
C289 O293 1.260 . S
C290 O297 1.240 . S
C290 O298 1.252 . S
C291 O294 1.252 . S
C291 O295 1.260 . S
O292 In286 2.266 . S
O292 C289 1.252 . S
O293 In286 2.326 . S
O293 C289 1.260 . S
O294 In286 2.266 . S
O294 C291 1.252 . S
O295 In286 2.326 . S
O295 C291 1.260 . S
C296 O287 1.240 . S
C296 O288 1.252 . S
O297 In286 2.294 . S
O297 C290 1.240 . S
O298 In286 2.326 . S
O298 C290 1.252 . S
In299 O300 2.294 . S
In299 O301 2.326 . S
In299 O305 2.266 . S
In299 O306 2.326 . S
In299 O307 2.266 . S
In299 O308 2.326 . S
In299 O310 2.294 . S
In299 O311 2.326 . S
O300 In299 2.294 . S
O300 C309 1.240 . S
O301 In299 2.326 . S
O301 C309 1.252 . S
C302 O305 1.252 . S
C302 O306 1.260 . S
C303 O310 1.240 . S
C303 O311 1.252 . S
C304 O307 1.252 . S
C304 O308 1.260 . S
O305 In299 2.266 . S
O305 C302 1.252 . S
O306 In299 2.326 . S
O306 C302 1.260 . S
O307 In299 2.266 . S
O307 C304 1.252 . S
O308 In299 2.326 . S
O308 C304 1.260 . S
C309 O300 1.240 . S
C309 O301 1.252 . S
O310 In299 2.294 . S
O310 C303 1.240 . S
O311 In299 2.326 . S
O311 C303 1.252 . S
In312 O313 2.294 . S
In312 O314 2.326 . S
In312 O318 2.266 . S
In312 O319 2.326 . S
In312 O320 2.266 . S
In312 O321 2.326 . S
In312 O323 2.294 . S
In312 O324 2.326 . S
O313 In312 2.294 . S
O313 C322 1.240 . S
O314 In312 2.326 . S
O314 C322 1.252 . S
C315 O318 1.252 . S
C315 O319 1.260 . S
C316 O323 1.240 . S
C316 O324 1.252 . S
C317 O320 1.252 . S
C317 O321 1.260 . S
O318 In312 2.266 . S
O318 C315 1.252 . S
O319 In312 2.326 . S
O319 C315 1.260 . S
O320 In312 2.266 . S
O320 C317 1.252 . S
O321 In312 2.326 . S
O321 C317 1.260 . S
C322 O313 1.240 . S
C322 O314 1.252 . S
O323 In312 2.294 . S
O323 C316 1.240 . S
O324 In312 2.326 . S
O324 C316 1.252 . S
In325 O326 2.294 . S
In325 O327 2.326 . S
In325 O331 2.266 . S
In325 O332 2.326 . S
In325 O333 2.266 . S
In325 O334 2.326 . S
In325 O336 2.294 . S
In325 O337 2.326 . S
O326 In325 2.294 . S
O326 C335 1.240 . S
O327 In325 2.326 . S
O327 C335 1.252 . S
C328 O331 1.252 . S
C328 O332 1.260 . S
C329 O336 1.240 . S
C329 O337 1.252 . S
C330 O333 1.252 . S
C330 O334 1.260 . S
O331 In325 2.266 . S
O331 C328 1.252 . S
O332 In325 2.326 . S
O332 C328 1.260 . S
O333 In325 2.266 . S
O333 C330 1.252 . S
O334 In325 2.326 . S
O334 C330 1.260 . S
C335 O326 1.240 . S
C335 O327 1.252 . S
O336 In325 2.294 . S
O336 C329 1.240 . S
O337 In325 2.326 . S
O337 C329 1.252 . S
In338 O339 2.294 . S
In338 O340 2.326 . S
In338 O344 2.266 . S
In338 O345 2.326 . S
In338 O346 2.266 . S
In338 O347 2.326 . S
In338 O349 2.294 . S
In338 O350 2.326 . S
O339 In338 2.294 . S
O339 C348 1.240 . S
O340 In338 2.326 . S
O340 C348 1.252 . S
C341 O344 1.252 . S
C341 O345 1.260 . S
C342 O349 1.240 . S
C342 O350 1.252 . S
C343 O346 1.252 . S
C343 O347 1.260 . S
O344 In338 2.266 . S
O344 C341 1.252 . S
O345 In338 2.326 . S
O345 C341 1.260 . S
O346 In338 2.266 . S
O346 C343 1.252 . S
O347 In338 2.326 . S
O347 C343 1.260 . S
C348 O339 1.240 . S
C348 O340 1.252 . S
O349 In338 2.294 . S
O349 C342 1.240 . S
O350 In338 2.326 . S
O350 C342 1.252 . S
In351 O352 2.294 . S
In351 O353 2.326 . S
In351 O357 2.266 . S
In351 O358 2.326 . S
In351 O359 2.266 . S
In351 O360 2.326 . S
In351 O362 2.294 . S
In351 O363 2.326 . S
O352 In351 2.294 . S
O352 C361 1.240 . S
O353 In351 2.326 . S
O353 C361 1.252 . S
C354 O357 1.252 . S
C354 O358 1.260 . S
C355 O362 1.240 . S
C355 O363 1.252 . S
C356 O359 1.252 . S
C356 O360 1.260 . S
O357 In351 2.266 . S
O357 C354 1.252 . S
O358 In351 2.326 . S
O358 C354 1.260 . S
O359 In351 2.266 . S
O359 C356 1.252 . S
O360 In351 2.326 . S
O360 C356 1.260 . S
C361 O352 1.240 . S
C361 O353 1.252 . S
O362 In351 2.294 . S
O362 C355 1.240 . S
O363 In351 2.326 . S
O363 C355 1.252 . S
In364 O365 2.294 . S
In364 O366 2.326 . S
In364 O370 2.266 . S
In364 O371 2.326 . S
In364 O372 2.266 . S
In364 O373 2.326 . S
In364 O375 2.294 . S
In364 O376 2.326 . S
O365 In364 2.294 . S
O365 C374 1.240 . S
O366 In364 2.326 . S
O366 C374 1.252 . S
C367 O370 1.252 . S
C367 O371 1.260 . S
C368 O375 1.240 . S
C368 O376 1.252 . S
C369 O372 1.252 . S
C369 O373 1.260 . S
O370 In364 2.266 . S
O370 C367 1.252 . S
O371 In364 2.326 . S
O371 C367 1.260 . S
O372 In364 2.266 . S
O372 C369 1.252 . S
O373 In364 2.326 . S
O373 C369 1.260 . S
C374 O365 1.240 . S
C374 O366 1.252 . S
O375 In364 2.294 . S
O375 C368 1.240 . S
O376 In364 2.326 . S
O376 C368 1.252 . S
In377 O378 2.294 . S
In377 O379 2.326 . S
In377 O383 2.266 . S
In377 O384 2.326 . S
In377 O385 2.266 . S
In377 O386 2.326 . S
In377 O388 2.294 . S
In377 O389 2.326 . S
O378 In377 2.294 . S
O378 C387 1.240 . S
O379 In377 2.326 . S
O379 C387 1.252 . S
C380 O383 1.252 . S
C380 O384 1.260 . S
C381 O388 1.240 . S
C381 O389 1.252 . S
C382 O385 1.252 . S
C382 O386 1.260 . S
O383 In377 2.266 . S
O383 C380 1.252 . S
O384 In377 2.326 . S
O384 C380 1.260 . S
O385 In377 2.266 . S
O385 C382 1.252 . S
O386 In377 2.326 . S
O386 C382 1.260 . S
C387 O378 1.240 . S
C387 O379 1.252 . S
O388 In377 2.294 . S
O388 C381 1.240 . S
O389 In377 2.326 . S
O389 C381 1.252 . S
In390 O391 2.294 . S
In390 O392 2.326 . S
In390 O396 2.266 . S
In390 O397 2.326 . S
In390 O398 2.266 . S
In390 O399 2.326 . S
In390 O401 2.294 . S
In390 O402 2.326 . S
O391 In390 2.294 . S
O391 C400 1.240 . S
O392 In390 2.326 . S
O392 C400 1.252 . S
C393 O396 1.252 . S
C393 O397 1.260 . S
C394 O401 1.240 . S
C394 O402 1.252 . S
C395 O398 1.252 . S
C395 O399 1.260 . S
O396 In390 2.266 . S
O396 C393 1.252 . S
O397 In390 2.326 . S
O397 C393 1.260 . S
O398 In390 2.266 . S
O398 C395 1.252 . S
O399 In390 2.326 . S
O399 C395 1.260 . S
C400 O391 1.240 . S
C400 O392 1.252 . S
O401 In390 2.294 . S
O401 C394 1.240 . S
O402 In390 2.326 . S
O402 C394 1.252 . S
In403 O404 2.294 . S
In403 O405 2.326 . S
In403 O409 2.266 . S
In403 O410 2.326 . S
In403 O411 2.266 . S
In403 O412 2.326 . S
In403 O414 2.294 . S
In403 O415 2.326 . S
O404 In403 2.294 . S
O404 C413 1.240 . S
O405 In403 2.326 . S
O405 C413 1.252 . S
C406 O409 1.252 . S
C406 O410 1.260 . S
C407 O414 1.240 . S
C407 O415 1.252 . S
C408 O411 1.252 . S
C408 O412 1.260 . S
O409 In403 2.266 . S
O409 C406 1.252 . S
O410 In403 2.326 . S
O410 C406 1.260 . S
O411 In403 2.266 . S
O411 C408 1.252 . S
O412 In403 2.326 . S
O412 C408 1.260 . S
C413 O404 1.240 . S
C413 O405 1.252 . S
O414 In403 2.294 . S
O414 C407 1.240 . S
O415 In403 2.326 . S
O415 C407 1.252 . S
In416 O417 2.294 . S
In416 O418 2.326 . S
In416 O422 2.266 . S
In416 O423 2.326 . S
In416 O424 2.266 . S
In416 O425 2.326 . S
In416 O427 2.294 . S
In416 O428 2.326 . S
O417 In416 2.294 . S
O417 C426 1.240 . S
O418 In416 2.326 . S
O418 C426 1.252 . S
C419 O422 1.252 . S
C419 O423 1.260 . S
C420 O427 1.240 . S
C420 O428 1.252 . S
C421 O424 1.252 . S
C421 O425 1.260 . S
O422 In416 2.266 . S
O422 C419 1.252 . S
O423 In416 2.326 . S
O423 C419 1.260 . S
O424 In416 2.266 . S
O424 C421 1.252 . S
O425 In416 2.326 . S
O425 C421 1.260 . S
C426 O417 1.240 . S
C426 O418 1.252 . S
O427 In416 2.294 . S
O427 C420 1.240 . S
O428 In416 2.326 . S
O428 C420 1.252 . S
In429 O430 2.294 . S
In429 O431 2.326 . S
In429 O435 2.266 . S
In429 O436 2.326 . S
In429 O437 2.266 . S
In429 O438 2.326 . S
In429 O440 2.294 . S
In429 O441 2.326 . S
O430 In429 2.294 . S
O430 C439 1.240 . S
O431 In429 2.326 . S
O431 C439 1.252 . S
C432 O435 1.252 . S
C432 O436 1.260 . S
C433 O440 1.240 . S
C433 O441 1.252 . S
C434 O437 1.252 . S
C434 O438 1.260 . S
O435 In429 2.266 . S
O435 C432 1.252 . S
O436 In429 2.326 . S
O436 C432 1.260 . S
O437 In429 2.266 . S
O437 C434 1.252 . S
O438 In429 2.326 . S
O438 C434 1.260 . S
C439 O430 1.240 . S
C439 O431 1.252 . S
O440 In429 2.294 . S
O440 C433 1.240 . S
O441 In429 2.326 . S
O441 C433 1.252 . S
In442 O443 2.294 . S
In442 O444 2.326 . S
In442 O448 2.266 . S
In442 O449 2.326 . S
In442 O450 2.266 . S
In442 O451 2.326 . S
In442 O453 2.294 . S
In442 O454 2.326 . S
O443 In442 2.294 . S
O443 C452 1.240 . S
O444 In442 2.326 . S
O444 C452 1.252 . S
C445 O448 1.252 . S
C445 O449 1.260 . S
C446 O453 1.240 . S
C446 O454 1.252 . S
C447 O450 1.252 . S
C447 O451 1.260 . S
O448 In442 2.266 . S
O448 C445 1.252 . S
O449 In442 2.326 . S
O449 C445 1.260 . S
O450 In442 2.266 . S
O450 C447 1.252 . S
O451 In442 2.326 . S
O451 C447 1.260 . S
C452 O443 1.240 . S
C452 O444 1.252 . S
O453 In442 2.294 . S
O453 C446 1.240 . S
O454 In442 2.326 . S
O454 C446 1.252 . S
In455 O456 2.294 . S
In455 O457 2.326 . S
In455 O461 2.266 . S
In455 O462 2.326 . S
In455 O463 2.266 . S
In455 O464 2.326 . S
In455 O466 2.294 . S
In455 O467 2.326 . S
O456 In455 2.294 . S
O456 C465 1.240 . S
O457 In455 2.326 . S
O457 C465 1.252 . S
C458 O461 1.252 . S
C458 O462 1.260 . S
C459 O466 1.240 . S
C459 O467 1.252 . S
C460 O463 1.252 . S
C460 O464 1.260 . S
O461 In455 2.266 . S
O461 C458 1.252 . S
O462 In455 2.326 . S
O462 C458 1.260 . S
O463 In455 2.266 . S
O463 C460 1.252 . S
O464 In455 2.326 . S
O464 C460 1.260 . S
C465 O456 1.240 . S
C465 O457 1.252 . S
O466 In455 2.294 . S
O466 C459 1.240 . S
O467 In455 2.326 . S
O467 C459 1.252 . S
H468 C476 0.929 . S
H469 C478 0.930 . S
H470 C480 0.930 . S
H471 C483 0.929 . S
H472 C486 0.930 . S
H473 C488 0.960 . S
H474 C488 0.960 . S
H475 C488 0.960 . S
C476 H468 0.929 . S
C476 C477 1.377 . S
C476 C478 1.384 . S
C477 C476 1.377 . S
C477 C483 1.390 . S
C478 H469 0.930 . S
C478 C476 1.384 . S
C478 C479 1.372 . S
C479 C478 1.372 . S
C479 C480 1.400 . S
C479 C484 1.490 . S
C480 H470 0.930 . S
C480 C479 1.400 . S
C480 C483 1.386 . S
H481 C497 0.930 . S
H482 C498 0.931 . S
C483 H471 0.929 . S
C483 C477 1.390 . S
C483 C480 1.386 . S
C484 C479 1.490 . S
C484 C486 1.395 . S
C484 C487 1.403 . S
H485 C491 0.930 . S
C486 H472 0.930 . S
C486 C484 1.395 . S
C486 C489 1.403 1_565 S
C487 C484 1.403 . S
C487 C488 1.524 . S
C487 C491 1.400 1_565 S
C488 H473 0.960 . S
C488 H474 0.960 . S
C488 H475 0.960 . S
C488 C487 1.524 . S
C489 C486 1.403 1_545 S
C489 C490 1.392 . S
C489 C493 1.495 . S
C490 C489 1.392 . S
C490 C491 1.385 . S
C490 C492 1.478 . S
C491 H485 0.930 . S
C491 C487 1.400 1_545 S
C491 C490 1.385 . S
C492 C490 1.478 . S
C492 C494 1.381 . S
C492 C498 1.383 . S
C493 C489 1.495 . S
C493 H499 0.959 . S
C493 H500 0.961 . S
C493 H501 0.960 . S
C494 C492 1.381 . S
C494 C495 1.394 . S
C494 H502 0.930 . S
C495 C494 1.394 . S
C495 C496 1.383 . S
C495 H503 0.929 . S
C496 C495 1.383 . S
C496 C497 1.377 . S
C497 H481 0.930 . S
C497 C496 1.377 . S
C497 C498 1.379 . S
C498 H482 0.931 . S
C498 C492 1.383 . S
C498 C497 1.379 . S
H499 C493 0.959 . S
H500 C493 0.961 . S
H501 C493 0.960 . S
H502 C494 0.930 . S
H503 C495 0.929 . S
H504 C512 0.929 . S
H505 C514 0.930 . S
H506 C516 0.930 . S
H507 C519 0.929 . S
H508 C522 0.930 . S
H509 C524 0.960 . S
H510 C524 0.960 . S
H511 C524 0.960 . S
C512 H504 0.929 . S
C512 C513 1.377 . S
C512 C514 1.384 . S
C513 C512 1.377 . S
C513 C519 1.390 . S
C514 H505 0.930 . S
C514 C512 1.384 . S
C514 C515 1.372 . S
C515 C514 1.372 . S
C515 C516 1.400 . S
C515 C520 1.490 . S
C516 H506 0.930 . S
C516 C515 1.400 . S
C516 C519 1.386 . S
H517 C533 0.930 . S
H518 C534 0.931 . S
C519 H507 0.929 . S
C519 C513 1.390 . S
C519 C516 1.386 . S
C520 C515 1.490 . S
C520 C522 1.395 . S
C520 C523 1.403 . S
H521 C527 0.930 . S
C522 H508 0.930 . S
C522 C520 1.395 . S
C522 C525 1.403 1_455 S
C523 C520 1.403 . S
C523 C524 1.524 . S
C523 C527 1.400 1_455 S
C524 H509 0.960 . S
C524 H510 0.960 . S
C524 H511 0.960 . S
C524 C523 1.524 . S
C525 C522 1.403 1_655 S
C525 C526 1.392 . S
C525 C529 1.495 . S
C526 C525 1.392 . S
C526 C527 1.385 . S
C526 C528 1.478 . S
C527 H521 0.930 . S
C527 C523 1.400 1_655 S
C527 C526 1.385 . S
C528 C526 1.478 . S
C528 C530 1.381 . S
C528 C534 1.383 . S
C529 C525 1.495 . S
C529 H535 0.959 . S
C529 H536 0.961 . S
C529 H537 0.960 . S
C530 C528 1.381 . S
C530 C531 1.394 . S
C530 H538 0.930 . S
C531 C530 1.394 . S
C531 C532 1.383 . S
C531 H539 0.929 . S
C532 C531 1.383 . S
C532 C533 1.377 . S
C533 H517 0.930 . S
C533 C532 1.377 . S
C533 C534 1.379 . S
C534 H518 0.931 . S
C534 C528 1.383 . S
C534 C533 1.379 . S
H535 C529 0.959 . S
H536 C529 0.961 . S
H537 C529 0.960 . S
H538 C530 0.930 . S
H539 C531 0.929 . S
H540 C548 0.929 . S
H541 C550 0.930 . S
H542 C552 0.930 . S
H543 C555 0.929 . S
H544 C558 0.930 . S
H545 C560 0.960 . S
H546 C560 0.960 . S
H547 C560 0.960 . S
C548 H540 0.929 . S
C548 C549 1.377 . S
C548 C550 1.384 . S
C549 C548 1.377 . S
C549 C555 1.390 . S
C550 H541 0.930 . S
C550 C548 1.384 . S
C550 C551 1.372 . S
C551 C550 1.372 . S
C551 C552 1.400 . S
C551 C556 1.490 . S
C552 H542 0.930 . S
C552 C551 1.400 . S
C552 C555 1.386 . S
H553 C569 0.930 . S
H554 C570 0.931 . S
C555 H543 0.929 . S
C555 C549 1.390 . S
C555 C552 1.386 . S
C556 C551 1.490 . S
C556 C558 1.395 . S
C556 C559 1.403 . S
H557 C563 0.930 . S
C558 H544 0.930 . S
C558 C556 1.395 . S
C558 C561 1.403 . S
C559 C556 1.403 . S
C559 C560 1.524 . S
C559 C563 1.400 . S
C560 H545 0.960 . S
C560 H546 0.960 . S
C560 H547 0.960 . S
C560 C559 1.524 . S
C561 C558 1.403 . S
C561 C562 1.392 . S
C561 C565 1.495 . S
C562 C561 1.392 . S
C562 C563 1.385 . S
C562 C564 1.478 . S
C563 H557 0.930 . S
C563 C559 1.400 . S
C563 C562 1.385 . S
C564 C562 1.478 . S
C564 C566 1.381 . S
C564 C570 1.383 . S
C565 C561 1.495 . S
C565 H571 0.959 . S
C565 H572 0.961 . S
C565 H573 0.960 . S
C566 C564 1.381 . S
C566 C567 1.394 . S
C566 H574 0.930 . S
C567 C566 1.394 . S
C567 C568 1.383 . S
C567 H575 0.929 . S
C568 C567 1.383 . S
C568 C569 1.377 . S
C569 H553 0.930 . S
C569 C568 1.377 . S
C569 C570 1.379 . S
C570 H554 0.931 . S
C570 C564 1.383 . S
C570 C569 1.379 . S
H571 C565 0.959 . S
H572 C565 0.961 . S
H573 C565 0.960 . S
H574 C566 0.930 . S
H575 C567 0.929 . S
H576 C584 0.929 . S
H577 C586 0.930 . S
H578 C588 0.930 . S
H579 C591 0.929 . S
H580 C594 0.930 . S
H581 C596 0.960 . S
H582 C596 0.960 . S
H583 C596 0.960 . S
C584 H576 0.929 . S
C584 C585 1.377 . S
C584 C586 1.384 . S
C585 C584 1.377 . S
C585 C591 1.390 . S
C586 H577 0.930 . S
C586 C584 1.384 . S
C586 C587 1.372 . S
C587 C586 1.372 . S
C587 C588 1.400 . S
C587 C592 1.490 . S
C588 H578 0.930 . S
C588 C587 1.400 . S
C588 C591 1.386 . S
H589 C605 0.930 . S
H590 C606 0.931 . S
C591 H579 0.929 . S
C591 C585 1.390 . S
C591 C588 1.386 . S
C592 C587 1.490 . S
C592 C594 1.395 . S
C592 C595 1.403 . S
H593 C599 0.930 . S
C594 H580 0.930 . S
C594 C592 1.395 . S
C594 C597 1.403 1_565 S
C595 C592 1.403 . S
C595 C596 1.524 . S
C595 C599 1.400 1_565 S
C596 H581 0.960 . S
C596 H582 0.960 . S
C596 H583 0.960 . S
C596 C595 1.524 . S
C597 C594 1.403 1_545 S
C597 C598 1.392 . S
C597 C601 1.495 . S
C598 C597 1.392 . S
C598 C599 1.385 . S
C598 C600 1.478 . S
C599 H593 0.930 . S
C599 C595 1.400 1_545 S
C599 C598 1.385 . S
C600 C598 1.478 . S
C600 C602 1.381 . S
C600 C606 1.383 . S
C601 C597 1.495 . S
C601 H607 0.959 . S
C601 H608 0.961 . S
C601 H609 0.960 . S
C602 C600 1.381 . S
C602 C603 1.394 . S
C602 H610 0.930 . S
C603 C602 1.394 . S
C603 C604 1.383 . S
C603 H611 0.929 . S
C604 C603 1.383 . S
C604 C605 1.377 . S
C605 H589 0.930 . S
C605 C604 1.377 . S
C605 C606 1.379 . S
C606 H590 0.931 . S
C606 C600 1.383 . S
C606 C605 1.379 . S
H607 C601 0.959 . S
H608 C601 0.961 . S
H609 C601 0.960 . S
H610 C602 0.930 . S
H611 C603 0.929 . S
H612 C620 0.929 . S
H613 C622 0.930 . S
H614 C624 0.930 . S
H615 C627 0.929 . S
H616 C630 0.930 . S
H617 C632 0.960 . S
H618 C632 0.960 . S
H619 C632 0.960 . S
C620 H612 0.929 . S
C620 C621 1.377 . S
C620 C622 1.384 . S
C621 C620 1.377 . S
C621 C627 1.390 . S
C622 H613 0.930 . S
C622 C620 1.384 . S
C622 C623 1.372 . S
C623 C622 1.372 . S
C623 C624 1.400 . S
C623 C628 1.490 . S
C624 H614 0.930 . S
C624 C623 1.400 . S
C624 C627 1.386 . S
H625 C641 0.930 . S
H626 C642 0.931 . S
C627 H615 0.929 . S
C627 C621 1.390 . S
C627 C624 1.386 . S
C628 C623 1.490 . S
C628 C630 1.395 . S
C628 C631 1.403 . S
H629 C635 0.930 . S
C630 H616 0.930 . S
C630 C628 1.395 . S
C630 C633 1.403 1_455 S
C631 C628 1.403 . S
C631 C632 1.524 . S
C631 C635 1.400 1_455 S
C632 H617 0.960 . S
C632 H618 0.960 . S
C632 H619 0.960 . S
C632 C631 1.524 . S
C633 C630 1.403 1_655 S
C633 C634 1.392 . S
C633 C637 1.495 . S
C634 C633 1.392 . S
C634 C635 1.385 . S
C634 C636 1.478 . S
C635 H629 0.930 . S
C635 C631 1.400 1_655 S
C635 C634 1.385 . S
C636 C634 1.478 . S
C636 C638 1.381 . S
C636 C642 1.383 . S
C637 C633 1.495 . S
C637 H643 0.959 . S
C637 H644 0.961 . S
C637 H645 0.960 . S
C638 C636 1.381 . S
C638 C639 1.394 . S
C638 H646 0.930 . S
C639 C638 1.394 . S
C639 C640 1.383 . S
C639 H647 0.929 . S
C640 C639 1.383 . S
C640 C641 1.377 . S
C641 H625 0.930 . S
C641 C640 1.377 . S
C641 C642 1.379 . S
C642 H626 0.931 . S
C642 C636 1.383 . S
C642 C641 1.379 . S
H643 C637 0.959 . S
H644 C637 0.961 . S
H645 C637 0.960 . S
H646 C638 0.930 . S
H647 C639 0.929 . S
H648 C656 0.929 . S
H649 C658 0.930 . S
H650 C660 0.930 . S
H651 C663 0.929 . S
H652 C666 0.930 . S
H653 C668 0.960 . S
H654 C668 0.960 . S
H655 C668 0.960 . S
C656 H648 0.929 . S
C656 C657 1.377 . S
C656 C658 1.384 . S
C657 C656 1.377 . S
C657 C663 1.390 . S
C658 H649 0.930 . S
C658 C656 1.384 . S
C658 C659 1.372 . S
C659 C658 1.372 . S
C659 C660 1.400 . S
C659 C664 1.490 . S
C660 H650 0.930 . S
C660 C659 1.400 . S
C660 C663 1.386 . S
H661 C677 0.930 . S
H662 C678 0.931 . S
C663 H651 0.929 . S
C663 C657 1.390 . S
C663 C660 1.386 . S
C664 C659 1.490 . S
C664 C666 1.395 . S
C664 C667 1.403 . S
H665 C671 0.930 . S
C666 H652 0.930 . S
C666 C664 1.395 . S
C666 C669 1.403 . S
C667 C664 1.403 . S
C667 C668 1.524 . S
C667 C671 1.400 . S
C668 H653 0.960 . S
C668 H654 0.960 . S
C668 H655 0.960 . S
C668 C667 1.524 . S
C669 C666 1.403 . S
C669 C670 1.392 . S
C669 C673 1.495 . S
C670 C669 1.392 . S
C670 C671 1.385 . S
C670 C672 1.478 . S
C671 H665 0.930 . S
C671 C667 1.400 . S
C671 C670 1.385 . S
C672 C670 1.478 . S
C672 C674 1.381 . S
C672 C678 1.383 . S
C673 C669 1.495 . S
C673 H679 0.959 . S
C673 H680 0.961 . S
C673 H681 0.960 . S
C674 C672 1.381 . S
C674 C675 1.394 . S
C674 H682 0.930 . S
C675 C674 1.394 . S
C675 C676 1.383 . S
C675 H683 0.929 . S
C676 C675 1.383 . S
C676 C677 1.377 . S
C677 H661 0.930 . S
C677 C676 1.377 . S
C677 C678 1.379 . S
C678 H662 0.931 . S
C678 C672 1.383 . S
C678 C677 1.379 . S
H679 C673 0.959 . S
H680 C673 0.961 . S
H681 C673 0.960 . S
H682 C674 0.930 . S
H683 C675 0.929 . S
H684 C692 0.929 . S
H685 C694 0.930 . S
H686 C696 0.930 . S
H687 C699 0.877 1_655 S
H688 C702 0.930 1_455 S
H689 C704 0.960 . S
H690 C704 0.960 . S
H691 C704 0.960 . S
C692 H684 0.929 . S
C692 C693 1.377 . S
C692 C694 1.384 . S
C693 C692 1.377 . S
C693 C699 1.446 . S
C694 H685 0.930 . S
C694 C692 1.384 . S
C694 C695 1.372 1_455 S
C695 C694 1.372 1_655 S
C695 C696 1.400 . S
C695 C700 1.490 . S
C696 H686 0.930 . S
C696 C695 1.400 . S
C696 C699 1.390 1_655 S
H697 C713 0.930 . S
H698 C714 0.931 . S
C699 H687 0.877 1_455 S
C699 C693 1.446 . S
C699 C696 1.390 1_455 S
C700 C695 1.490 . S
C700 C702 1.395 . S
C700 C703 1.403 . S
H701 C707 0.930 . S
C702 H688 0.930 1_655 S
C702 C700 1.395 . S
C702 C705 1.403 . S
C703 C700 1.403 . S
C703 C704 1.524 . S
C703 C707 1.400 . S
C704 H689 0.960 . S
C704 H690 0.960 . S
C704 H691 0.960 . S
C704 C703 1.524 . S
C705 C702 1.403 . S
C705 C706 1.392 . S
C705 C709 1.437 1_655 S
C706 C705 1.392 . S
C706 C707 1.385 . S
C706 C708 1.478 . S
C707 H701 0.930 . S
C707 C703 1.400 . S
C707 C706 1.385 . S
C708 C706 1.478 . S
C708 C710 1.381 . S
C708 C714 1.383 . S
C709 C705 1.437 1_455 S
C709 H715 1.006 . S
C709 H716 0.956 1_455 S
C709 H717 0.986 . S
C710 C708 1.381 . S
C710 C711 1.394 . S
C710 H718 0.930 . S
C711 C710 1.394 . S
C711 C712 1.383 . S
C711 H719 0.929 . S
C712 C711 1.383 . S
C712 C713 1.377 . S
C713 H697 0.930 . S
C713 C712 1.377 . S
C713 C714 1.379 . S
C714 H698 0.931 . S
C714 C708 1.383 . S
C714 C713 1.379 . S
H715 C709 1.006 . S
H716 C709 0.956 1_655 S
H717 C709 0.986 . S
H718 C710 0.930 . S
H719 C711 0.929 . S
H720 C728 0.929 . S
H721 C730 0.930 . S
H722 C732 0.930 . S
H723 C735 0.929 . S
H724 C738 0.930 . S
H725 C740 0.960 . S
H726 C740 0.960 . S
H727 C740 0.960 . S
C728 H720 0.929 . S
C728 C729 1.377 . S
C728 C730 1.384 . S
C729 C728 1.377 . S
C729 C735 1.390 . S
C730 H721 0.930 . S
C730 C728 1.384 . S
C730 C731 1.372 . S
C731 C730 1.372 . S
C731 C732 1.400 . S
C731 C736 1.490 . S
C732 H722 0.930 . S
C732 C731 1.400 . S
C732 C735 1.386 . S
H733 C749 0.930 . S
H734 C750 0.931 . S
C735 H723 0.929 . S
C735 C729 1.390 . S
C735 C732 1.386 . S
C736 C731 1.490 . S
C736 C738 1.395 . S
C736 C739 1.403 . S
H737 C743 0.930 . S
C738 H724 0.930 . S
C738 C736 1.395 . S
C738 C741 1.403 . S
C739 C736 1.403 . S
C739 C740 1.524 . S
C739 C743 1.400 . S
C740 H725 0.960 . S
C740 H726 0.960 . S
C740 H727 0.960 . S
C740 C739 1.524 . S
C741 C738 1.403 . S
C741 C742 1.392 . S
C741 C745 1.495 . S
C742 C741 1.392 . S
C742 C743 1.385 . S
C742 C744 1.478 . S
C743 H737 0.930 . S
C743 C739 1.400 . S
C743 C742 1.385 . S
C744 C742 1.478 . S
C744 C746 1.381 . S
C744 C750 1.383 . S
C745 C741 1.495 . S
C745 H751 0.959 . S
C745 H752 0.961 . S
C745 H753 0.960 . S
C746 C744 1.381 . S
C746 C747 1.394 . S
C746 H754 0.930 . S
C747 C746 1.394 . S
C747 C748 1.383 . S
C747 H755 0.929 . S
C748 C747 1.383 . S
C748 C749 1.377 . S
C749 H733 0.930 . S
C749 C748 1.377 . S
C749 C750 1.379 . S
C750 H734 0.931 . S
C750 C744 1.383 . S
C750 C749 1.379 . S
H751 C745 0.959 . S
H752 C745 0.961 . S
H753 C745 0.960 . S
H754 C746 0.930 . S
H755 C747 0.929 . S
H756 C764 0.929 . S
H757 C766 0.930 . S
H758 C768 0.930 . S
H759 C771 0.929 . S
H760 C774 0.930 . S
H761 C776 0.960 . S
H762 C776 0.960 . S
H763 C776 0.960 . S
C764 H756 0.929 . S
C764 C765 1.377 . S
C764 C766 1.384 . S
C765 C764 1.377 . S
C765 C771 1.390 . S
C766 H757 0.930 . S
C766 C764 1.384 . S
C766 C767 1.372 . S
C767 C766 1.372 . S
C767 C768 1.400 . S
C767 C772 1.490 . S
C768 H758 0.930 . S
C768 C767 1.400 . S
C768 C771 1.386 . S
H769 C785 0.930 . S
H770 C786 0.931 . S
C771 H759 0.929 . S
C771 C765 1.390 . S
C771 C768 1.386 . S
C772 C767 1.490 . S
C772 C774 1.395 . S
C772 C775 1.403 . S
H773 C779 0.930 . S
C774 H760 0.930 . S
C774 C772 1.395 . S
C774 C777 1.403 . S
C775 C772 1.403 . S
C775 C776 1.524 . S
C775 C779 1.400 . S
C776 H761 0.960 . S
C776 H762 0.960 . S
C776 H763 0.960 . S
C776 C775 1.524 . S
C777 C774 1.403 . S
C777 C778 1.392 . S
C777 C781 1.495 1_545 S
C778 C777 1.392 . S
C778 C779 1.385 . S
C778 C780 1.489 . S
C779 H773 0.930 . S
C779 C775 1.400 . S
C779 C778 1.385 . S
C780 C778 1.489 . S
C780 C782 1.371 1_545 S
C780 C786 1.381 . S
C781 C777 1.495 1_565 S
C781 H787 0.959 . S
C781 H788 0.961 . S
C781 H789 0.960 . S
C782 C780 1.371 1_565 S
C782 C783 1.394 . S
C782 H790 0.930 . S
C783 C782 1.394 . S
C783 C784 1.383 . S
C783 H791 0.929 . S
C784 C783 1.383 . S
C784 C785 1.377 . S
C785 H769 0.930 . S
C785 C784 1.377 . S
C785 C786 1.379 1_565 S
C786 H770 0.931 . S
C786 C780 1.381 . S
C786 C785 1.379 1_545 S
H787 C781 0.959 . S
H788 C781 0.961 . S
H789 C781 0.960 . S
H790 C782 0.930 . S
H791 C783 0.929 . S
H792 C800 0.929 . S
H793 C802 0.930 . S
H794 C804 0.930 . S
H795 C807 0.929 . S
H796 C810 0.930 . S
H797 C812 0.960 . S
H798 C812 0.960 . S
H799 C812 0.960 . S
C800 H792 0.929 . S
C800 C801 1.377 . S
C800 C802 1.384 . S
C801 C800 1.377 . S
C801 C807 1.390 . S
C802 H793 0.930 . S
C802 C800 1.384 . S
C802 C803 1.372 . S
C803 C802 1.372 . S
C803 C804 1.400 . S
C803 C808 1.490 . S
C804 H794 0.930 . S
C804 C803 1.400 . S
C804 C807 1.386 . S
H805 C821 0.930 . S
H806 C822 0.931 . S
C807 H795 0.929 . S
C807 C801 1.390 . S
C807 C804 1.386 . S
C808 C803 1.490 . S
C808 C810 1.395 . S
C808 C811 1.403 . S
H809 C815 0.930 . S
C810 H796 0.930 . S
C810 C808 1.395 . S
C810 C813 1.403 . S
C811 C808 1.403 . S
C811 C812 1.524 . S
C811 C815 1.400 . S
C812 H797 0.960 . S
C812 H798 0.960 . S
C812 H799 0.960 . S
C812 C811 1.524 . S
C813 C810 1.403 . S
C813 C814 1.392 . S
C813 C817 1.495 . S
C814 C813 1.392 . S
C814 C815 1.385 . S
C814 C816 1.478 . S
C815 H809 0.930 . S
C815 C811 1.400 . S
C815 C814 1.385 . S
C816 C814 1.478 . S
C816 C818 1.381 . S
C816 C822 1.383 . S
C817 C813 1.495 . S
C817 H823 0.959 . S
C817 H824 0.961 . S
C817 H825 0.960 . S
C818 C816 1.381 . S
C818 C819 1.394 . S
C818 H826 0.930 . S
C819 C818 1.394 . S
C819 C820 1.383 . S
C819 H827 0.929 . S
C820 C819 1.383 . S
C820 C821 1.377 . S
C821 H805 0.930 . S
C821 C820 1.377 . S
C821 C822 1.379 . S
C822 H806 0.931 . S
C822 C816 1.383 . S
C822 C821 1.379 . S
H823 C817 0.959 . S
H824 C817 0.961 . S
H825 C817 0.960 . S
H826 C818 0.930 . S
H827 C819 0.929 . S
H828 C836 0.929 . S
H829 C838 0.930 . S
H830 C840 0.930 . S
H831 C843 0.929 . S
H832 C846 0.930 . S
H833 C848 0.960 . S
H834 C848 0.960 . S
H835 C848 0.960 . S
C836 H828 0.929 . S
C836 C837 1.377 . S
C836 C838 1.384 1_565 S
C837 C836 1.377 . S
C837 C843 1.390 . S
C838 H829 0.930 . S
C838 C836 1.384 1_545 S
C838 C839 1.372 . S
C839 C838 1.372 . S
C839 C840 1.400 1_545 S
C839 C844 1.490 . S
C840 H830 0.930 . S
C840 C839 1.400 1_565 S
C840 C843 1.386 . S
H841 C857 0.930 . S
H842 C858 0.931 . S
C843 H831 0.929 . S
C843 C837 1.390 . S
C843 C840 1.386 . S
C844 C839 1.490 . S
C844 C846 1.395 . S
C844 C847 1.403 . S
H845 C851 0.930 . S
C846 H832 0.930 . S
C846 C844 1.395 . S
C846 C849 1.403 . S
C847 C844 1.403 . S
C847 C848 1.524 1_545 S
C847 C851 1.400 . S
C848 H833 0.960 . S
C848 H834 0.960 . S
C848 H835 0.960 . S
C848 C847 1.524 1_565 S
C849 C846 1.403 . S
C849 C850 1.392 . S
C849 C853 1.495 . S
C850 C849 1.392 . S
C850 C851 1.385 . S
C850 C852 1.478 . S
C851 H845 0.930 . S
C851 C847 1.400 . S
C851 C850 1.385 . S
C852 C850 1.478 . S
C852 C854 1.381 . S
C852 C858 1.383 . S
C853 C849 1.495 . S
C853 H859 0.959 . S
C853 H860 0.961 . S
C853 H861 0.960 . S
C854 C852 1.381 . S
C854 C855 1.394 . S
C854 H862 0.930 . S
C855 C854 1.394 . S
C855 C856 1.383 . S
C855 H863 0.929 . S
C856 C855 1.383 . S
C856 C857 1.377 . S
C857 H841 0.930 . S
C857 C856 1.377 . S
C857 C858 1.379 . S
C858 H842 0.931 . S
C858 C852 1.383 . S
C858 C857 1.379 . S
H859 C853 0.959 . S
H860 C853 0.961 . S
H861 C853 0.960 . S
H862 C854 0.930 . S
H863 C855 0.929 . S
H864 C872 0.929 . S
H865 C874 0.930 . S
H866 C876 0.930 . S
H867 C879 0.929 . S
H868 C882 0.930 . S
H869 C884 0.960 . S
H870 C884 0.960 . S
H871 C884 0.960 . S
C872 H864 0.929 . S
C872 C873 1.377 . S
C872 C874 1.384 . S
C873 C872 1.377 . S
C873 C879 1.390 . S
C874 H865 0.930 . S
C874 C872 1.384 . S
C874 C875 1.372 . S
C875 C874 1.372 . S
C875 C876 1.400 . S
C875 C880 1.490 . S
C876 H866 0.930 . S
C876 C875 1.400 . S
C876 C879 1.386 . S
H877 C893 0.930 . S
H878 C894 0.931 . S
C879 H867 0.929 . S
C879 C873 1.390 . S
C879 C876 1.386 . S
C880 C875 1.490 . S
C880 C882 1.395 . S
C880 C883 1.403 . S
H881 C887 0.930 . S
C882 H868 0.930 . S
C882 C880 1.395 . S
C882 C885 1.403 . S
C883 C880 1.403 . S
C883 C884 1.524 . S
C883 C887 1.400 . S
C884 H869 0.960 . S
C884 H870 0.960 . S
C884 H871 0.960 . S
C884 C883 1.524 . S
C885 C882 1.403 . S
C885 C886 1.392 . S
C885 C889 1.519 . S
C886 C885 1.392 . S
C886 C887 1.385 . S
C886 C888 1.478 . S
C887 H881 0.930 . S
C887 C883 1.400 . S
C887 C886 1.385 . S
C888 C886 1.478 . S
C888 C890 1.381 1_655 S
C888 C894 1.383 . S
C889 C885 1.519 . S
C889 H895 0.976 . S
C889 H896 0.957 . S
C889 H897 0.925 1_655 S
C890 C888 1.381 1_455 S
C890 C891 1.394 . S
C890 H898 0.930 . S
C891 C890 1.394 . S
C891 C892 1.383 . S
C891 H899 0.929 . S
C892 C891 1.383 . S
C892 C893 1.377 1_455 S
C893 H877 0.930 . S
C893 C892 1.377 1_655 S
C893 C894 1.379 . S
C894 H878 0.931 . S
C894 C888 1.383 . S
C894 C893 1.379 . S
H895 C889 0.976 . S
H896 C889 0.957 . S
H897 C889 0.925 1_455 S
H898 C890 0.930 . S
H899 C891 0.929 . S
H900 C908 0.929 . S
H901 C910 0.930 . S
H902 C912 0.930 . S
H903 C915 0.929 . S
H904 C918 0.930 . S
H905 C920 0.960 . S
H906 C920 0.960 . S
H907 C920 0.960 . S
C908 H900 0.929 . S
C908 C909 1.377 . S
C908 C910 1.384 . S
C909 C908 1.377 . S
C909 C915 1.390 . S
C910 H901 0.930 . S
C910 C908 1.384 . S
C910 C911 1.372 . S
C911 C910 1.372 . S
C911 C912 1.400 . S
C911 C916 1.490 . S
C912 H902 0.930 . S
C912 C911 1.400 . S
C912 C915 1.386 . S
H913 C929 0.930 . S
H914 C930 0.931 . S
C915 H903 0.929 . S
C915 C909 1.390 . S
C915 C912 1.386 . S
C916 C911 1.490 . S
C916 C918 1.395 . S
C916 C919 1.403 . S
H917 C923 0.930 . S
C918 H904 0.930 . S
C918 C916 1.395 . S
C918 C921 1.403 . S
C919 C916 1.403 . S
C919 C920 1.524 . S
C919 C923 1.400 . S
C920 H905 0.960 . S
C920 H906 0.960 . S
C920 H907 0.960 . S
C920 C919 1.524 . S
C921 C918 1.403 . S
C921 C922 1.392 . S
C921 C925 1.495 . S
C922 C921 1.392 . S
C922 C923 1.385 . S
C922 C924 1.478 . S
C923 H917 0.930 . S
C923 C919 1.400 . S
C923 C922 1.385 . S
C924 C922 1.478 . S
C924 C926 1.381 . S
C924 C930 1.383 . S
C925 C921 1.495 . S
C925 H931 0.959 . S
C925 H932 0.961 . S
C925 H933 0.960 . S
C926 C924 1.381 . S
C926 C927 1.394 . S
C926 H934 0.930 . S
C927 C926 1.394 . S
C927 C928 1.383 . S
C927 H935 0.929 . S
C928 C927 1.383 . S
C928 C929 1.377 . S
C929 H913 0.930 . S
C929 C928 1.377 . S
C929 C930 1.379 . S
C930 H914 0.931 . S
C930 C924 1.383 . S
C930 C929 1.379 . S
H931 C925 0.959 . S
H932 C925 0.961 . S
H933 C925 0.960 . S
H934 C926 0.930 . S
H935 C927 0.929 . S
H936 C944 0.929 . S
H937 C946 0.930 . S
H938 C948 0.930 . S
H939 C951 0.929 . S
H940 C954 0.930 . S
H941 C956 0.960 . S
H942 C956 0.960 . S
H943 C956 0.960 . S
C944 H936 0.929 . S
C944 C945 1.377 . S
C944 C946 1.384 . S
C945 C944 1.377 . S
C945 C951 1.390 . S
C946 H937 0.930 . S
C946 C944 1.384 . S
C946 C947 1.372 1_545 S
C947 C946 1.372 1_565 S
C947 C948 1.400 . S
C947 C952 1.490 . S
C948 H938 0.930 . S
C948 C947 1.400 . S
C948 C951 1.386 1_565 S
H949 C965 0.930 . S
H950 C966 0.931 . S
C951 H939 0.929 . S
C951 C945 1.390 . S
C951 C948 1.386 1_545 S
C952 C947 1.490 . S
C952 C954 1.395 . S
C952 C955 1.403 . S
H953 C959 0.930 . S
C954 H940 0.930 . S
C954 C952 1.395 . S
C954 C957 1.403 . S
C955 C952 1.403 . S
C955 C956 1.524 1_565 S
C955 C959 1.400 . S
C956 H941 0.960 . S
C956 H942 0.960 . S
C956 H943 0.960 . S
C956 C955 1.524 1_545 S
C957 C954 1.403 . S
C957 C958 1.392 . S
C957 C961 1.495 . S
C958 C957 1.392 . S
C958 C959 1.385 . S
C958 C960 1.478 . S
C959 H953 0.930 . S
C959 C955 1.400 . S
C959 C958 1.385 . S
C960 C958 1.478 . S
C960 C962 1.381 . S
C960 C966 1.383 . S
C961 C957 1.495 . S
C961 H967 0.959 . S
C961 H968 0.961 . S
C961 H969 0.960 . S
C962 C960 1.381 . S
C962 C963 1.394 . S
C962 H970 0.930 . S
C963 C962 1.394 . S
C963 C964 1.383 . S
C963 H971 0.929 . S
C964 C963 1.383 . S
C964 C965 1.377 . S
C965 H949 0.930 . S
C965 C964 1.377 . S
C965 C966 1.379 . S
C966 H950 0.931 . S
C966 C960 1.383 . S
C966 C965 1.379 . S
H967 C961 0.959 . S
H968 C961 0.961 . S
H969 C961 0.960 . S
H970 C962 0.930 . S
H971 C963 0.929 . S
H972 C980 0.929 . S
H973 C982 0.930 . S
H974 C984 0.930 . S
H975 C987 0.929 . S
H976 C990 0.930 . S
H977 C992 0.960 . S
H978 C992 0.960 . S
H979 C992 0.960 . S
C980 H972 0.929 . S
C980 C981 1.377 . S
C980 C982 1.384 . S
C981 C980 1.377 . S
C981 C987 1.390 . S
C982 H973 0.930 . S
C982 C980 1.384 . S
C982 C983 1.372 . S
C983 C982 1.372 . S
C983 C984 1.400 . S
C983 C988 1.490 . S
C984 H974 0.930 . S
C984 C983 1.400 . S
C984 C987 1.386 . S
H985 C1001 0.930 . S
H986 C1002 0.925 1_455 S
C987 H975 0.929 . S
C987 C981 1.390 . S
C987 C984 1.386 . S
C988 C983 1.490 . S
C988 C990 1.395 . S
C988 C991 1.403 . S
H989 C995 0.930 . S
C990 H976 0.930 . S
C990 C988 1.395 . S
C990 C993 1.403 . S
C991 C988 1.403 . S
C991 C992 1.524 . S
C991 C995 1.400 . S
C992 H977 0.960 . S
C992 H978 0.960 . S
C992 H979 0.960 . S
C992 C991 1.524 . S
C993 C990 1.403 . S
C993 C994 1.392 . S
C993 C997 1.495 1_455 S
C994 C993 1.392 . S
C994 C995 1.385 . S
C994 C996 1.491 . S
C995 H989 0.930 . S
C995 C991 1.400 . S
C995 C994 1.385 . S
C996 C994 1.491 . S
C996 C998 1.372 1_455 S
C996 C1002 1.377 1_455 S
C997 C993 1.495 1_655 S
C997 H1003 0.959 . S
C997 H1004 0.961 . S
C997 H1005 0.960 . S
C998 C996 1.372 1_655 S
C998 C999 1.394 . S
C998 H1006 0.930 . S
C999 C998 1.394 . S
C999 C1000 1.383 . S
C999 H1007 0.929 . S
C1000 C999 1.383 . S
C1000 C1001 1.377 . S
C1001 H985 0.930 . S
C1001 C1000 1.377 . S
C1001 C1002 1.388 . S
C1002 H986 0.925 1_655 S
C1002 C996 1.377 1_655 S
C1002 C1001 1.388 . S
H1003 C997 0.959 . S
H1004 C997 0.961 . S
H1005 C997 0.960 . S
H1006 C998 0.930 . S
H1007 C999 0.929 . S
H1008 C1016 0.929 . S
H1009 C1018 0.930 . S
H1010 C1020 0.930 . S
H1011 C1023 0.929 . S
H1012 C1026 0.930 . S
H1013 C1028 0.960 . S
H1014 C1028 0.960 . S
H1015 C1028 0.960 . S
C1016 H1008 0.929 . S
C1016 C1017 1.377 . S
C1016 C1018 1.384 . S
C1017 C1016 1.377 . S
C1017 C1023 1.390 . S
C1018 H1009 0.930 . S
C1018 C1016 1.384 . S
C1018 C1019 1.372 . S
C1019 C1018 1.372 . S
C1019 C1020 1.400 . S
C1019 C1024 1.490 . S
C1020 H1010 0.930 . S
C1020 C1019 1.400 . S
C1020 C1023 1.386 . S
H1021 C1037 0.930 . S
H1022 C1038 0.931 . S
C1023 H1011 0.929 . S
C1023 C1017 1.390 . S
C1023 C1020 1.386 . S
C1024 C1019 1.490 . S
C1024 C1026 1.395 . S
C1024 C1027 1.403 . S
H1025 C1031 0.930 . S
C1026 H1012 0.930 . S
C1026 C1024 1.395 . S
C1026 C1029 1.403 . S
C1027 C1024 1.403 . S
C1027 C1028 1.524 . S
C1027 C1031 1.400 . S
C1028 H1013 0.960 . S
C1028 H1014 0.960 . S
C1028 H1015 0.960 . S
C1028 C1027 1.524 . S
C1029 C1026 1.403 . S
C1029 C1030 1.392 . S
C1029 C1033 1.495 . S
C1030 C1029 1.392 . S
C1030 C1031 1.385 . S
C1030 C1032 1.478 . S
C1031 H1025 0.930 . S
C1031 C1027 1.400 . S
C1031 C1030 1.385 . S
C1032 C1030 1.478 . S
C1032 C1034 1.381 . S
C1032 C1038 1.383 1_455 S
C1033 C1029 1.495 . S
C1033 H1039 0.959 . S
C1033 H1040 1.041 . S
C1033 H1041 0.960 . S
C1034 C1032 1.381 . S
C1034 C1035 1.394 . S
C1034 H1042 0.930 . S
C1035 C1034 1.394 . S
C1035 C1036 1.383 1_455 S
C1035 H1043 0.929 . S
C1036 C1035 1.383 1_655 S
C1036 C1037 1.377 . S
C1037 H1021 0.930 . S
C1037 C1036 1.377 . S
C1037 C1038 1.379 . S
C1038 H1022 0.931 . S
C1038 C1032 1.383 1_655 S
C1038 C1037 1.379 . S
H1039 C1033 0.959 . S
H1040 C1033 1.041 . S
H1041 C1033 0.960 . S
H1042 C1034 0.930 . S
H1043 C1035 0.929 . S
H1044 C1052 0.929 . S
H1045 C1054 0.930 . S
H1046 C1056 0.930 . S
H1047 C1059 0.929 . S
H1048 C1062 0.930 . S
H1049 C1064 0.960 . S
H1050 C1064 0.960 . S
H1051 C1064 0.960 . S
C1052 H1044 0.929 . S
C1052 C1053 1.377 . S
C1052 C1054 1.384 . S
C1053 C1052 1.377 . S
C1053 C1059 1.390 . S
C1054 H1045 0.930 . S
C1054 C1052 1.384 . S
C1054 C1055 1.372 . S
C1055 C1054 1.372 . S
C1055 C1056 1.400 . S
C1055 C1060 1.490 . S
C1056 H1046 0.930 . S
C1056 C1055 1.400 . S
C1056 C1059 1.386 . S
H1057 C1073 0.930 . S
H1058 C1074 0.931 . S
C1059 H1047 0.929 . S
C1059 C1053 1.390 . S
C1059 C1056 1.386 . S
C1060 C1055 1.490 . S
C1060 C1062 1.395 . S
C1060 C1063 1.403 . S
H1061 C1067 0.930 . S
C1062 H1048 0.930 . S
C1062 C1060 1.395 . S
C1062 C1065 1.403 . S
C1063 C1060 1.403 . S
C1063 C1064 1.524 . S
C1063 C1067 1.400 . S
C1064 H1049 0.960 . S
C1064 H1050 0.960 . S
C1064 H1051 0.960 . S
C1064 C1063 1.524 . S
C1065 C1062 1.403 . S
C1065 C1066 1.392 . S
C1065 C1069 1.495 . S
C1066 C1065 1.392 . S
C1066 C1067 1.385 . S
C1066 C1068 1.478 . S
C1067 H1061 0.930 . S
C1067 C1063 1.400 . S
C1067 C1066 1.385 . S
C1068 C1066 1.478 . S
C1068 C1070 1.381 . S
C1068 C1074 1.383 . S
C1069 C1065 1.495 . S
C1069 H1075 0.959 . S
C1069 H1076 0.961 . S
C1069 H1077 0.960 . S
C1070 C1068 1.381 . S
C1070 C1071 1.394 . S
C1070 H1078 0.930 . S
C1071 C1070 1.394 . S
C1071 C1072 1.383 . S
C1071 H1079 0.929 . S
C1072 C1071 1.383 . S
C1072 C1073 1.377 . S
C1073 H1057 0.930 . S
C1073 C1072 1.377 . S
C1073 C1074 1.379 . S
C1074 H1058 0.931 . S
C1074 C1068 1.383 . S
C1074 C1073 1.379 . S
H1075 C1069 0.959 . S
H1076 C1069 0.961 . S
H1077 C1069 0.960 . S
H1078 C1070 0.930 . S
H1079 C1071 0.929 . S
H1080 C1088 0.929 . S
H1081 C1090 0.930 . S
H1082 C1092 0.930 . S
H1083 C1095 0.929 . S
H1084 C1098 0.930 . S
H1085 C1100 0.960 . S
H1086 C1100 0.960 . S
H1087 C1100 0.960 . S
C1088 H1080 0.929 . S
C1088 C1089 1.377 . S
C1088 C1090 1.384 . S
C1089 C1088 1.377 . S
C1089 C1095 1.390 . S
C1090 H1081 0.930 . S
C1090 C1088 1.384 . S
C1090 C1091 1.372 . S
C1091 C1090 1.372 . S
C1091 C1092 1.400 . S
C1091 C1096 1.490 . S
C1092 H1082 0.930 . S
C1092 C1091 1.400 . S
C1092 C1095 1.386 . S
H1093 C1109 0.930 . S
H1094 C1110 0.931 . S
C1095 H1083 0.929 . S
C1095 C1089 1.390 . S
C1095 C1092 1.386 . S
C1096 C1091 1.490 . S
C1096 C1098 1.395 . S
C1096 C1099 1.403 . S
H1097 C1103 0.930 . S
C1098 H1084 0.930 . S
C1098 C1096 1.395 . S
C1098 C1101 1.403 . S
C1099 C1096 1.403 . S
C1099 C1100 1.524 . S
C1099 C1103 1.400 . S
C1100 H1085 0.960 . S
C1100 H1086 0.960 . S
C1100 H1087 0.960 . S
C1100 C1099 1.524 . S
C1101 C1098 1.403 . S
C1101 C1102 1.392 . S
C1101 C1105 1.495 1_565 S
C1102 C1101 1.392 . S
C1102 C1103 1.385 . S
C1102 C1104 1.557 . S
C1103 H1097 0.930 . S
C1103 C1099 1.400 . S
C1103 C1102 1.385 . S
C1104 C1102 1.557 . S
C1104 C1106 1.306 1_565 S
C1104 C1110 1.383 . S
C1105 C1101 1.495 1_545 S
C1105 H1111 0.959 . S
C1105 H1112 0.961 . S
C1105 H1113 0.960 . S
C1106 C1104 1.306 1_545 S
C1106 C1107 1.394 . S
C1106 H1114 0.930 . S
C1107 C1106 1.394 . S
C1107 C1108 1.383 . S
C1107 H1115 0.929 . S
C1108 C1107 1.383 . S
C1108 C1109 1.377 1_545 S
C1109 H1093 0.930 . S
C1109 C1108 1.377 1_565 S
C1109 C1110 1.379 . S
C1110 H1094 0.931 . S
C1110 C1104 1.383 . S
C1110 C1109 1.379 . S
H1111 C1105 0.959 . S
H1112 C1105 0.961 . S
H1113 C1105 0.960 . S
H1114 C1106 0.930 . S
H1115 C1107 0.929 . S
H1116 C1124 0.929 . S
H1117 C1126 0.930 . S
H1118 C1128 0.930 . S
H1119 C1131 0.929 . S
H1120 C1134 0.930 . S
H1121 C1136 0.960 . S
H1122 C1136 0.960 . S
H1123 C1136 0.960 . S
C1124 H1116 0.929 . S
C1124 C1125 1.377 . S
C1124 C1126 1.384 . S
C1125 C1124 1.377 . S
C1125 C1131 1.390 . S
C1126 H1117 0.930 . S
C1126 C1124 1.384 . S
C1126 C1127 1.372 . S
C1127 C1126 1.372 . S
C1127 C1128 1.400 . S
C1127 C1132 1.490 . S
C1128 H1118 0.930 . S
C1128 C1127 1.400 . S
C1128 C1131 1.386 . S
H1129 C1145 0.930 . S
H1130 C1146 0.931 . S
C1131 H1119 0.929 . S
C1131 C1125 1.390 . S
C1131 C1128 1.386 . S
C1132 C1127 1.490 . S
C1132 C1134 1.395 . S
C1132 C1135 1.403 . S
H1133 C1139 0.930 . S
C1134 H1120 0.930 . S
C1134 C1132 1.395 . S
C1134 C1137 1.403 . S
C1135 C1132 1.403 . S
C1135 C1136 1.524 . S
C1135 C1139 1.400 . S
C1136 H1121 0.960 . S
C1136 H1122 0.960 . S
C1136 H1123 0.960 . S
C1136 C1135 1.524 . S
C1137 C1134 1.403 . S
C1137 C1138 1.392 . S
C1137 C1141 1.495 . S
C1138 C1137 1.392 . S
C1138 C1139 1.385 . S
C1138 C1140 1.478 . S
C1139 H1133 0.930 . S
C1139 C1135 1.400 . S
C1139 C1138 1.385 . S
C1140 C1138 1.478 . S
C1140 C1142 1.381 . S
C1140 C1146 1.383 . S
C1141 C1137 1.495 . S
C1141 H1147 0.959 . S
C1141 H1148 0.961 . S
C1141 H1149 0.960 . S
C1142 C1140 1.381 . S
C1142 C1143 1.394 . S
C1142 H1150 0.930 . S
C1143 C1142 1.394 . S
C1143 C1144 1.383 . S
C1143 H1151 0.929 . S
C1144 C1143 1.383 . S
C1144 C1145 1.377 . S
C1145 H1129 0.930 . S
C1145 C1144 1.377 . S
C1145 C1146 1.379 . S
C1146 H1130 0.931 . S
C1146 C1140 1.383 . S
C1146 C1145 1.379 . S
H1147 C1141 0.959 . S
H1148 C1141 0.961 . S
H1149 C1141 0.960 . S
H1150 C1142 0.930 . S
H1151 C1143 0.929 . S
H1152 C1160 0.929 . S
H1153 C1162 0.930 . S
H1154 C1164 0.930 . S
H1155 C1167 0.929 . S
H1156 C1170 0.930 . S
H1157 C1172 0.960 . S
H1158 C1172 0.960 . S
H1159 C1172 0.960 . S
C1160 H1152 0.929 . S
C1160 C1161 1.377 . S
C1160 C1162 1.384 . S
C1161 C1160 1.377 . S
C1161 C1167 1.390 . S
C1162 H1153 0.930 . S
C1162 C1160 1.384 . S
C1162 C1163 1.372 . S
C1163 C1162 1.372 . S
C1163 C1164 1.400 . S
C1163 C1168 1.490 . S
C1164 H1154 0.930 . S
C1164 C1163 1.400 . S
C1164 C1167 1.386 . S
H1165 C1181 0.930 . S
H1166 C1182 0.931 . S
C1167 H1155 0.929 . S
C1167 C1161 1.390 . S
C1167 C1164 1.386 . S
C1168 C1163 1.490 . S
C1168 C1170 1.395 . S
C1168 C1171 1.403 . S
H1169 C1175 0.930 . S
C1170 H1156 0.930 . S
C1170 C1168 1.395 . S
C1170 C1173 1.403 . S
C1171 C1168 1.403 . S
C1171 C1172 1.524 . S
C1171 C1175 1.400 . S
C1172 H1157 0.960 . S
C1172 H1158 0.960 . S
C1172 H1159 0.960 . S
C1172 C1171 1.524 . S
C1173 C1170 1.403 . S
C1173 C1174 1.392 . S
C1173 C1177 1.495 . S
C1174 C1173 1.392 . S
C1174 C1175 1.385 . S
C1174 C1176 1.478 . S
C1175 H1169 0.930 . S
C1175 C1171 1.400 . S
C1175 C1174 1.385 . S
C1176 C1174 1.478 . S
C1176 C1178 1.381 . S
C1176 C1182 1.383 . S
C1177 C1173 1.495 . S
C1177 H1183 0.959 . S
C1177 H1184 0.961 . S
C1177 H1185 0.960 . S
C1178 C1176 1.381 . S
C1178 C1179 1.394 . S
C1178 H1186 0.930 . S
C1179 C1178 1.394 . S
C1179 C1180 1.383 . S
C1179 H1187 0.929 . S
C1180 C1179 1.383 . S
C1180 C1181 1.377 . S
C1181 H1165 0.930 . S
C1181 C1180 1.377 . S
C1181 C1182 1.379 . S
C1182 H1166 0.931 . S
C1182 C1176 1.383 . S
C1182 C1181 1.379 . S
H1183 C1177 0.959 . S
H1184 C1177 0.961 . S
H1185 C1177 0.960 . S
H1186 C1178 0.930 . S
H1187 C1179 0.929 . S
H1188 C1196 0.929 . S
H1189 C1198 0.930 . S
H1190 C1200 0.930 . S
H1191 C1203 0.929 . S
H1192 C1206 0.930 . S
H1193 C1208 0.960 . S
H1194 C1208 0.960 . S
H1195 C1208 0.960 . S
C1196 H1188 0.929 . S
C1196 C1197 1.377 . S
C1196 C1198 1.384 . S
C1197 C1196 1.377 . S
C1197 C1203 1.390 . S
C1198 H1189 0.930 . S
C1198 C1196 1.384 . S
C1198 C1199 1.372 . S
C1199 C1198 1.372 . S
C1199 C1200 1.400 . S
C1199 C1204 1.490 . S
C1200 H1190 0.930 . S
C1200 C1199 1.400 . S
C1200 C1203 1.386 . S
H1201 C1217 0.930 . S
H1202 C1218 0.931 . S
C1203 H1191 0.929 . S
C1203 C1197 1.390 . S
C1203 C1200 1.386 . S
C1204 C1199 1.490 . S
C1204 C1206 1.395 . S
C1204 C1207 1.403 . S
H1205 C1211 0.930 . S
C1206 H1192 0.930 . S
C1206 C1204 1.395 . S
C1206 C1209 1.403 . S
C1207 C1204 1.403 . S
C1207 C1208 1.524 . S
C1207 C1211 1.400 . S
C1208 H1193 0.960 . S
C1208 H1194 0.960 . S
C1208 H1195 0.960 . S
C1208 C1207 1.524 . S
C1209 C1206 1.403 . S
C1209 C1210 1.392 . S
C1209 C1213 1.495 . S
C1210 C1209 1.392 . S
C1210 C1211 1.385 . S
C1210 C1212 1.478 . S
C1211 H1205 0.930 . S
C1211 C1207 1.400 . S
C1211 C1210 1.385 . S
C1212 C1210 1.478 . S
C1212 C1214 1.381 . S
C1212 C1218 1.383 . S
C1213 C1209 1.495 . S
C1213 H1219 0.959 . S
C1213 H1220 0.961 . S
C1213 H1221 0.960 . S
C1214 C1212 1.381 . S
C1214 C1215 1.394 . S
C1214 H1222 0.930 . S
C1215 C1214 1.394 . S
C1215 C1216 1.383 . S
C1215 H1223 0.929 . S
C1216 C1215 1.383 . S
C1216 C1217 1.377 . S
C1217 H1201 0.930 . S
C1217 C1216 1.377 . S
C1217 C1218 1.379 . S
C1218 H1202 0.931 . S
C1218 C1212 1.383 . S
C1218 C1217 1.379 . S
H1219 C1213 0.959 . S
H1220 C1213 0.961 . S
H1221 C1213 0.960 . S
H1222 C1214 0.930 . S
H1223 C1215 0.929 . S
H1224 C1232 0.929 . S
H1225 C1234 0.930 . S
H1226 C1236 0.930 . S
H1227 C1239 0.929 . S
H1228 C1242 0.930 . S
H1229 C1244 0.960 . S
H1230 C1244 0.960 . S
H1231 C1244 0.960 . S
C1232 H1224 0.929 . S
C1232 C1233 1.377 . S
C1232 C1234 1.384 . S
C1233 C1232 1.377 . S
C1233 C1239 1.390 . S
C1234 H1225 0.930 . S
C1234 C1232 1.384 . S
C1234 C1235 1.372 . S
C1235 C1234 1.372 . S
C1235 C1236 1.400 . S
C1235 C1240 1.490 . S
C1236 H1226 0.930 . S
C1236 C1235 1.400 . S
C1236 C1239 1.386 . S
H1237 C1253 0.930 . S
H1238 C1254 0.931 . S
C1239 H1227 0.929 . S
C1239 C1233 1.390 . S
C1239 C1236 1.386 . S
C1240 C1235 1.490 . S
C1240 C1242 1.395 . S
C1240 C1243 1.403 . S
H1241 C1247 0.930 . S
C1242 H1228 0.930 . S
C1242 C1240 1.395 . S
C1242 C1245 1.403 . S
C1243 C1240 1.403 . S
C1243 C1244 1.524 . S
C1243 C1247 1.400 . S
C1244 H1229 0.960 . S
C1244 H1230 0.960 . S
C1244 H1231 0.960 . S
C1244 C1243 1.524 . S
C1245 C1242 1.403 . S
C1245 C1246 1.392 . S
C1245 C1249 1.495 . S
C1246 C1245 1.392 . S
C1246 C1247 1.385 . S
C1246 C1248 1.478 . S
C1247 H1241 0.930 . S
C1247 C1243 1.400 . S
C1247 C1246 1.385 . S
C1248 C1246 1.478 . S
C1248 C1250 1.381 . S
C1248 C1254 1.383 . S
C1249 C1245 1.495 . S
C1249 H1255 0.959 . S
C1249 H1256 0.961 . S
C1249 H1257 0.960 . S
C1250 C1248 1.381 . S
C1250 C1251 1.394 . S
C1250 H1258 0.930 . S
C1251 C1250 1.394 . S
C1251 C1252 1.383 1_554 S
C1251 H1259 0.929 . S
C1252 C1251 1.383 1_556 S
C1252 C1253 1.377 . S
C1253 H1237 0.930 . S
C1253 C1252 1.377 . S
C1253 C1254 1.379 1_556 S
C1254 H1238 0.931 . S
C1254 C1248 1.383 . S
C1254 C1253 1.379 1_554 S
H1255 C1249 0.959 . S
H1256 C1249 0.961 . S
H1257 C1249 0.960 . S
H1258 C1250 0.930 . S
H1259 C1251 0.929 . S
H1260 C1268 0.929 . S
H1261 C1270 0.930 . S
H1262 C1272 0.930 . S
H1263 C1275 0.929 . S
H1264 C1278 0.930 . S
H1265 C1280 0.960 . S
H1266 C1280 0.960 . S
H1267 C1280 0.960 . S
C1268 H1260 0.929 . S
C1268 C1269 1.377 . S
C1268 C1270 1.384 . S
C1269 C1268 1.377 . S
C1269 C1275 1.390 . S
C1270 H1261 0.930 . S
C1270 C1268 1.384 . S
C1270 C1271 1.372 . S
C1271 C1270 1.372 . S
C1271 C1272 1.400 . S
C1271 C1276 1.490 . S
C1272 H1262 0.930 . S
C1272 C1271 1.400 . S
C1272 C1275 1.386 . S
H1273 C1289 0.930 . S
H1274 C1290 0.931 . S
C1275 H1263 0.929 . S
C1275 C1269 1.390 . S
C1275 C1272 1.386 . S
C1276 C1271 1.490 . S
C1276 C1278 1.395 . S
C1276 C1279 1.403 . S
H1277 C1283 0.930 . S
C1278 H1264 0.930 . S
C1278 C1276 1.395 . S
C1278 C1281 1.403 . S
C1279 C1276 1.403 . S
C1279 C1280 1.524 . S
C1279 C1283 1.400 . S
C1280 H1265 0.960 . S
C1280 H1266 0.960 . S
C1280 H1267 0.960 . S
C1280 C1279 1.524 . S
C1281 C1278 1.403 . S
C1281 C1282 1.392 . S
C1281 C1285 1.495 . S
C1282 C1281 1.392 . S
C1282 C1283 1.385 . S
C1282 C1284 1.478 . S
C1283 H1277 0.930 . S
C1283 C1279 1.400 . S
C1283 C1282 1.385 . S
C1284 C1282 1.478 . S
C1284 C1286 1.381 . S
C1284 C1290 1.383 . S
C1285 C1281 1.495 . S
C1285 H1291 0.959 . S
C1285 H1292 0.961 . S
C1285 H1293 0.960 . S
C1286 C1284 1.381 . S
C1286 C1287 1.394 1_554 S
C1286 H1294 0.930 . S
C1287 C1286 1.394 1_556 S
C1287 C1288 1.383 . S
C1287 H1295 0.929 . S
C1288 C1287 1.383 . S
C1288 C1289 1.377 . S
C1289 H1273 0.930 . S
C1289 C1288 1.377 . S
C1289 C1290 1.379 1_556 S
C1290 H1274 0.931 . S
C1290 C1284 1.383 . S
C1290 C1289 1.379 1_554 S
H1291 C1285 0.959 . S
H1292 C1285 0.961 . S
H1293 C1285 0.960 . S
H1294 C1286 0.930 . S
H1295 C1287 0.929 . S
H1296 C1304 0.929 . S
H1297 C1306 0.930 . S
H1298 C1308 0.930 . S
H1299 C1311 0.929 . S
H1300 C1314 0.930 . S
H1301 C1316 0.960 . S
H1302 C1316 0.960 . S
H1303 C1316 0.960 . S
C1304 H1296 0.929 . S
C1304 C1305 1.377 . S
C1304 C1306 1.384 . S
C1305 C1304 1.377 . S
C1305 C1311 1.390 . S
C1306 H1297 0.930 . S
C1306 C1304 1.384 . S
C1306 C1307 1.372 . S
C1307 C1306 1.372 . S
C1307 C1308 1.400 . S
C1307 C1312 1.490 . S
C1308 H1298 0.930 . S
C1308 C1307 1.400 . S
C1308 C1311 1.386 . S
H1309 C1325 0.930 . S
H1310 C1326 0.931 . S
C1311 H1299 0.929 . S
C1311 C1305 1.390 . S
C1311 C1308 1.386 . S
C1312 C1307 1.490 . S
C1312 C1314 1.395 . S
C1312 C1315 1.403 . S
H1313 C1319 0.930 . S
C1314 H1300 0.930 . S
C1314 C1312 1.395 . S
C1314 C1317 1.403 . S
C1315 C1312 1.403 . S
C1315 C1316 1.524 . S
C1315 C1319 1.400 . S
C1316 H1301 0.960 . S
C1316 H1302 0.960 . S
C1316 H1303 0.960 . S
C1316 C1315 1.524 . S
C1317 C1314 1.403 . S
C1317 C1318 1.392 . S
C1317 C1321 1.495 . S
C1318 C1317 1.392 . S
C1318 C1319 1.385 . S
C1318 C1320 1.478 . S
C1319 H1313 0.930 . S
C1319 C1315 1.400 . S
C1319 C1318 1.385 . S
C1320 C1318 1.478 . S
C1320 C1322 1.381 . S
C1320 C1326 1.383 . S
C1321 C1317 1.495 . S
C1321 H1327 0.959 . S
C1321 H1328 0.961 . S
C1321 H1329 0.960 . S
C1322 C1320 1.381 . S
C1322 C1323 1.394 . S
C1322 H1330 0.930 . S
C1323 C1322 1.394 . S
C1323 C1324 1.383 1_554 S
C1323 H1331 0.929 1_554 S
C1324 C1323 1.383 1_556 S
C1324 C1325 1.377 . S
C1325 H1309 0.930 . S
C1325 C1324 1.377 . S
C1325 C1326 1.379 1_556 S
C1326 H1310 0.931 . S
C1326 C1320 1.383 . S
C1326 C1325 1.379 1_554 S
H1327 C1321 0.959 . S
H1328 C1321 0.961 . S
H1329 C1321 0.960 . S
H1330 C1322 0.930 . S
H1331 C1323 0.929 1_556 S
H1332 C1340 0.929 . S
H1333 C1342 0.930 . S
H1334 C1344 0.930 . S
H1335 C1347 0.929 . S
H1336 C1350 0.930 . S
H1337 C1352 0.960 . S
H1338 C1352 0.960 . S
H1339 C1352 0.960 . S
C1340 H1332 0.929 . S
C1340 C1341 1.377 . S
C1340 C1342 1.384 . S
C1341 C1340 1.377 . S
C1341 C1347 1.390 . S
C1342 H1333 0.930 . S
C1342 C1340 1.384 . S
C1342 C1343 1.372 . S
C1343 C1342 1.372 . S
C1343 C1344 1.400 . S
C1343 C1348 1.490 . S
C1344 H1334 0.930 . S
C1344 C1343 1.400 . S
C1344 C1347 1.386 . S
H1345 C1361 0.930 . S
H1346 C1362 0.931 . S
C1347 H1335 0.929 . S
C1347 C1341 1.390 . S
C1347 C1344 1.386 . S
C1348 C1343 1.490 . S
C1348 C1350 1.395 . S
C1348 C1351 1.403 . S
H1349 C1355 0.930 . S
C1350 H1336 0.930 . S
C1350 C1348 1.395 . S
C1350 C1353 1.403 . S
C1351 C1348 1.403 . S
C1351 C1352 1.524 . S
C1351 C1355 1.400 . S
C1352 H1337 0.960 . S
C1352 H1338 0.960 . S
C1352 H1339 0.960 . S
C1352 C1351 1.524 . S
C1353 C1350 1.403 . S
C1353 C1354 1.392 . S
C1353 C1357 1.495 . S
C1354 C1353 1.392 . S
C1354 C1355 1.385 . S
C1354 C1356 1.478 . S
C1355 H1349 0.930 . S
C1355 C1351 1.400 . S
C1355 C1354 1.385 . S
C1356 C1354 1.478 . S
C1356 C1358 1.381 . S
C1356 C1362 1.383 . S
C1357 C1353 1.495 . S
C1357 H1363 0.959 . S
C1357 H1364 0.961 . S
C1357 H1365 0.960 . S
C1358 C1356 1.381 . S
C1358 C1359 1.394 . S
C1358 H1366 0.930 . S
C1359 C1358 1.394 . S
C1359 C1360 1.383 . S
C1359 H1367 0.929 . S
C1360 C1359 1.383 . S
C1360 C1361 1.377 . S
C1361 H1345 0.930 . S
C1361 C1360 1.377 . S
C1361 C1362 1.379 . S
C1362 H1346 0.931 . S
C1362 C1356 1.383 . S
C1362 C1361 1.379 . S
H1363 C1357 0.959 . S
H1364 C1357 0.961 . S
H1365 C1357 0.960 . S
H1366 C1358 0.930 . S
H1367 C1359 0.929 . S
H1368 C1376 0.929 . S
H1369 C1378 0.930 . S
H1370 C1380 0.930 . S
H1371 C1383 0.929 . S
H1372 C1386 0.930 . S
H1373 C1388 0.960 . S
H1374 C1388 0.960 . S
H1375 C1388 0.960 . S
C1376 H1368 0.929 . S
C1376 C1377 1.377 . S
C1376 C1378 1.384 . S
C1377 C1376 1.377 . S
C1377 C1383 1.390 . S
C1378 H1369 0.930 . S
C1378 C1376 1.384 . S
C1378 C1379 1.372 . S
C1379 C1378 1.372 . S
C1379 C1380 1.400 . S
C1379 C1384 1.490 . S
C1380 H1370 0.930 . S
C1380 C1379 1.400 . S
C1380 C1383 1.386 . S
H1381 C1397 0.930 . S
H1382 C1398 0.931 . S
C1383 H1371 0.929 . S
C1383 C1377 1.390 . S
C1383 C1380 1.386 . S
C1384 C1379 1.490 . S
C1384 C1386 1.395 . S
C1384 C1387 1.403 . S
H1385 C1391 0.930 . S
C1386 H1372 0.930 . S
C1386 C1384 1.395 . S
C1386 C1389 1.403 . S
C1387 C1384 1.403 . S
C1387 C1388 1.524 . S
C1387 C1391 1.400 . S
C1388 H1373 0.960 . S
C1388 H1374 0.960 . S
C1388 H1375 0.960 . S
C1388 C1387 1.524 . S
C1389 C1386 1.403 . S
C1389 C1390 1.392 . S
C1389 C1393 1.495 . S
C1390 C1389 1.392 . S
C1390 C1391 1.385 . S
C1390 C1392 1.478 . S
C1391 H1385 0.930 . S
C1391 C1387 1.400 . S
C1391 C1390 1.385 . S
C1392 C1390 1.478 . S
C1392 C1394 1.381 . S
C1392 C1398 1.383 . S
C1393 C1389 1.495 . S
C1393 H1399 0.959 . S
C1393 H1400 0.961 . S
C1393 H1401 0.960 . S
C1394 C1392 1.381 . S
C1394 C1395 1.394 . S
C1394 H1402 0.930 . S
C1395 C1394 1.394 . S
C1395 C1396 1.383 . S
C1395 H1403 0.929 . S
C1396 C1395 1.383 . S
C1396 C1397 1.377 . S
C1397 H1381 0.930 . S
C1397 C1396 1.377 . S
C1397 C1398 1.379 . S
C1398 H1382 0.931 . S
C1398 C1392 1.383 . S
C1398 C1397 1.379 . S
H1399 C1393 0.959 . S
H1400 C1393 0.961 . S
H1401 C1393 0.960 . S
H1402 C1394 0.930 . S
H1403 C1395 0.929 . S
H1404 C1412 0.929 . S
H1405 C1414 0.930 . S
H1406 C1416 0.930 . S
H1407 C1419 0.929 . S
H1408 C1422 0.930 . S
H1409 C1424 0.960 . S
H1410 C1424 0.960 . S
H1411 C1424 0.960 . S
C1412 H1404 0.929 . S
C1412 C1413 1.377 . S
C1412 C1414 1.384 . S
C1413 C1412 1.377 . S
C1413 C1419 1.390 . S
C1414 H1405 0.930 . S
C1414 C1412 1.384 . S
C1414 C1415 1.372 . S
C1415 C1414 1.372 . S
C1415 C1416 1.400 . S
C1415 C1420 1.490 . S
C1416 H1406 0.930 . S
C1416 C1415 1.400 . S
C1416 C1419 1.386 . S
H1417 C1433 0.930 . S
H1418 C1434 0.931 . S
C1419 H1407 0.929 . S
C1419 C1413 1.390 . S
C1419 C1416 1.386 . S
C1420 C1415 1.490 . S
C1420 C1422 1.395 . S
C1420 C1423 1.403 . S
H1421 C1427 0.930 . S
C1422 H1408 0.930 . S
C1422 C1420 1.395 . S
C1422 C1425 1.403 . S
C1423 C1420 1.403 . S
C1423 C1424 1.524 . S
C1423 C1427 1.400 . S
C1424 H1409 0.960 . S
C1424 H1410 0.960 . S
C1424 H1411 0.960 . S
C1424 C1423 1.524 . S
C1425 C1422 1.403 . S
C1425 C1426 1.392 . S
C1425 C1429 1.495 . S
C1426 C1425 1.392 . S
C1426 C1427 1.385 . S
C1426 C1428 1.478 . S
C1427 H1421 0.930 . S
C1427 C1423 1.400 . S
C1427 C1426 1.385 . S
C1428 C1426 1.478 . S
C1428 C1430 1.381 . S
C1428 C1434 1.383 . S
C1429 C1425 1.495 . S
C1429 H1435 0.959 . S
C1429 H1436 0.961 . S
C1429 H1437 0.960 . S
C1430 C1428 1.381 . S
C1430 C1431 1.394 . S
C1430 H1438 0.930 . S
C1431 C1430 1.394 . S
C1431 C1432 1.383 . S
C1431 H1439 0.929 . S
C1432 C1431 1.383 . S
C1432 C1433 1.377 . S
C1433 H1417 0.930 . S
C1433 C1432 1.377 . S
C1433 C1434 1.379 . S
C1434 H1418 0.931 . S
C1434 C1428 1.383 . S
C1434 C1433 1.379 . S
H1435 C1429 0.959 . S
H1436 C1429 0.961 . S
H1437 C1429 0.960 . S
H1438 C1430 0.930 . S
H1439 C1431 0.929 . S
H1440 C1448 0.929 . S
H1441 C1450 0.930 . S
H1442 C1452 0.930 . S
H1443 C1455 0.929 . S
H1444 C1458 0.930 . S
H1445 C1460 0.960 . S
H1446 C1460 0.960 . S
H1447 C1460 0.960 . S
C1448 H1440 0.929 . S
C1448 C1449 1.377 . S
C1448 C1450 1.384 1_554 S
C1449 C1448 1.377 . S
C1449 C1455 1.390 1_554 S
C1450 H1441 0.930 . S
C1450 C1448 1.384 1_556 S
C1450 C1451 1.372 . S
C1451 C1450 1.372 . S
C1451 C1452 1.400 . S
C1451 C1456 1.490 . S
C1452 H1442 0.930 . S
C1452 C1451 1.400 . S
C1452 C1455 1.386 . S
H1453 C1469 0.930 . S
H1454 C1470 0.931 . S
C1455 H1443 0.929 . S
C1455 C1449 1.390 1_556 S
C1455 C1452 1.386 . S
C1456 C1451 1.490 . S
C1456 C1458 1.395 . S
C1456 C1459 1.403 . S
H1457 C1463 0.930 . S
C1458 H1444 0.930 . S
C1458 C1456 1.395 . S
C1458 C1461 1.403 . S
C1459 C1456 1.403 . S
C1459 C1460 1.524 . S
C1459 C1463 1.400 . S
C1460 H1445 0.960 . S
C1460 H1446 0.960 . S
C1460 H1447 0.960 . S
C1460 C1459 1.524 . S
C1461 C1458 1.403 . S
C1461 C1462 1.392 . S
C1461 C1465 1.495 . S
C1462 C1461 1.392 . S
C1462 C1463 1.385 . S
C1462 C1464 1.478 . S
C1463 H1457 0.930 . S
C1463 C1459 1.400 . S
C1463 C1462 1.385 . S
C1464 C1462 1.478 . S
C1464 C1466 1.381 . S
C1464 C1470 1.383 . S
C1465 C1461 1.495 . S
C1465 H1471 0.959 . S
C1465 H1472 0.961 . S
C1465 H1473 0.960 . S
C1466 C1464 1.381 . S
C1466 C1467 1.394 . S
C1466 H1474 0.930 . S
C1467 C1466 1.394 . S
C1467 C1468 1.383 . S
C1467 H1475 0.929 . S
C1468 C1467 1.383 . S
C1468 C1469 1.377 . S
C1469 H1453 0.930 . S
C1469 C1468 1.377 . S
C1469 C1470 1.379 . S
C1470 H1454 0.931 . S
C1470 C1464 1.383 . S
C1470 C1469 1.379 . S
H1471 C1465 0.959 . S
H1472 C1465 0.961 . S
H1473 C1465 0.960 . S
H1474 C1466 0.930 . S
H1475 C1467 0.929 . S
H1476 C1484 0.929 . S
H1477 C1486 0.930 . S
H1478 C1488 0.930 . S
H1479 C1491 0.929 . S
H1480 C1494 0.930 . S
H1481 C1496 0.960 . S
H1482 C1496 0.960 . S
H1483 C1496 0.960 . S
C1484 H1476 0.929 . S
C1484 C1485 1.377 1_556 S
C1484 C1486 1.384 . S
C1485 C1484 1.377 1_554 S
C1485 C1491 1.390 . S
C1486 H1477 0.930 . S
C1486 C1484 1.384 . S
C1486 C1487 1.372 . S
C1487 C1486 1.372 . S
C1487 C1488 1.400 . S
C1487 C1492 1.490 . S
C1488 H1478 0.930 . S
C1488 C1487 1.400 . S
C1488 C1491 1.386 1_556 S
H1489 C1505 0.930 . S
H1490 C1506 0.931 . S
C1491 H1479 0.929 . S
C1491 C1485 1.390 . S
C1491 C1488 1.386 1_554 S
C1492 C1487 1.490 . S
C1492 C1494 1.395 . S
C1492 C1495 1.403 . S
H1493 C1499 0.930 . S
C1494 H1480 0.930 . S
C1494 C1492 1.395 . S
C1494 C1497 1.403 . S
C1495 C1492 1.403 . S
C1495 C1496 1.524 . S
C1495 C1499 1.400 . S
C1496 H1481 0.960 . S
C1496 H1482 0.960 . S
C1496 H1483 0.960 . S
C1496 C1495 1.524 . S
C1497 C1494 1.403 . S
C1497 C1498 1.392 . S
C1497 C1501 1.495 . S
C1498 C1497 1.392 . S
C1498 C1499 1.385 . S
C1498 C1500 1.478 . S
C1499 H1493 0.930 . S
C1499 C1495 1.400 . S
C1499 C1498 1.385 . S
C1500 C1498 1.478 . S
C1500 C1502 1.381 . S
C1500 C1506 1.383 . S
C1501 C1497 1.495 . S
C1501 H1507 0.959 . S
C1501 H1508 0.961 . S
C1501 H1509 0.960 . S
C1502 C1500 1.381 . S
C1502 C1503 1.394 . S
C1502 H1510 0.930 . S
C1503 C1502 1.394 . S
C1503 C1504 1.383 . S
C1503 H1511 0.929 . S
C1504 C1503 1.383 . S
C1504 C1505 1.377 . S
C1505 H1489 0.930 . S
C1505 C1504 1.377 . S
C1505 C1506 1.379 . S
C1506 H1490 0.931 . S
C1506 C1500 1.383 . S
C1506 C1505 1.379 . S
H1507 C1501 0.959 . S
H1508 C1501 0.961 . S
H1509 C1501 0.960 . S
H1510 C1502 0.930 . S
H1511 C1503 0.929 . S
H1512 C1520 0.929 . S
H1513 C1522 0.930 . S
H1514 C1524 0.930 . S
H1515 C1527 0.929 . S
H1516 C1530 0.930 . S
H1517 C1532 0.960 . S
H1518 C1532 0.960 . S
H1519 C1532 0.960 . S
C1520 H1512 0.929 . S
C1520 C1521 1.377 . S
C1520 C1522 1.384 . S
C1521 C1520 1.377 . S
C1521 C1527 1.390 . S
C1522 H1513 0.930 . S
C1522 C1520 1.384 . S
C1522 C1523 1.372 . S
C1523 C1522 1.372 . S
C1523 C1524 1.400 . S
C1523 C1528 1.490 . S
C1524 H1514 0.930 . S
C1524 C1523 1.400 . S
C1524 C1527 1.386 . S
H1525 C1541 0.930 . S
H1526 C1542 0.931 . S
C1527 H1515 0.929 . S
C1527 C1521 1.390 . S
C1527 C1524 1.386 . S
C1528 C1523 1.490 . S
C1528 C1530 1.395 . S
C1528 C1531 1.403 . S
H1529 C1535 0.930 . S
C1530 H1516 0.930 . S
C1530 C1528 1.395 . S
C1530 C1533 1.403 . S
C1531 C1528 1.403 . S
C1531 C1532 1.524 . S
C1531 C1535 1.400 . S
C1532 H1517 0.960 . S
C1532 H1518 0.960 . S
C1532 H1519 0.960 . S
C1532 C1531 1.524 . S
C1533 C1530 1.403 . S
C1533 C1534 1.392 . S
C1533 C1537 1.495 . S
C1534 C1533 1.392 . S
C1534 C1535 1.385 . S
C1534 C1536 1.478 . S
C1535 H1529 0.930 . S
C1535 C1531 1.400 . S
C1535 C1534 1.385 . S
C1536 C1534 1.478 . S
C1536 C1538 1.381 . S
C1536 C1542 1.383 . S
C1537 C1533 1.495 . S
C1537 H1543 0.959 . S
C1537 H1544 0.961 . S
C1537 H1545 0.960 . S
C1538 C1536 1.381 . S
C1538 C1539 1.394 . S
C1538 H1546 0.930 . S
C1539 C1538 1.394 . S
C1539 C1540 1.383 1_556 S
C1539 H1547 0.931 . S
C1540 C1539 1.383 1_554 S
C1540 C1541 1.377 . S
C1541 H1525 0.930 . S
C1541 C1540 1.377 . S
C1541 C1542 1.379 1_554 S
C1542 H1526 0.931 . S
C1542 C1536 1.383 . S
C1542 C1541 1.379 1_556 S
H1543 C1537 0.959 . S
H1544 C1537 0.961 . S
H1545 C1537 0.960 . S
H1546 C1538 0.930 . S
H1547 C1539 0.931 . S
H1548 C1556 0.929 . S
H1549 C1558 0.930 . S
H1550 C1560 0.930 . S
H1551 C1563 0.929 . S
H1552 C1566 0.930 . S
H1553 C1568 0.960 . S
H1554 C1568 0.960 . S
H1555 C1568 0.960 1_455 S
C1556 H1548 0.929 . S
C1556 C1557 1.377 . S
C1556 C1558 1.384 . S
C1557 C1556 1.377 . S
C1557 C1563 1.390 . S
C1558 H1549 0.930 . S
C1558 C1556 1.384 . S
C1558 C1559 1.372 . S
C1559 C1558 1.372 . S
C1559 C1560 1.400 . S
C1559 C1564 1.490 . S
C1560 H1550 0.930 . S
C1560 C1559 1.400 . S
C1560 C1563 1.386 . S
H1561 C1577 0.930 . S
H1562 C1578 0.931 . S
C1563 H1551 0.929 . S
C1563 C1557 1.390 . S
C1563 C1560 1.386 . S
C1564 C1559 1.490 . S
C1564 C1566 1.395 . S
C1564 C1567 1.403 1_455 S
H1565 C1571 0.930 . S
C1566 H1552 0.930 . S
C1566 C1564 1.395 . S
C1566 C1569 1.403 . S
C1567 C1564 1.403 1_655 S
C1567 C1568 1.524 . S
C1567 C1571 1.400 . S
C1568 H1553 0.960 . S
C1568 H1554 0.960 . S
C1568 H1555 0.960 1_655 S
C1568 C1567 1.524 . S
C1569 C1566 1.403 . S
C1569 C1570 1.392 1_455 S
C1569 C1573 1.495 . S
C1570 C1569 1.392 1_655 S
C1570 C1571 1.385 . S
C1570 C1572 1.478 . S
C1571 H1565 0.930 . S
C1571 C1567 1.400 . S
C1571 C1570 1.385 . S
C1572 C1570 1.478 . S
C1572 C1574 1.381 . S
C1572 C1578 1.383 . S
C1573 C1569 1.495 . S
C1573 H1579 0.959 . S
C1573 H1580 0.961 . S
C1573 H1581 0.960 1_455 S
C1574 C1572 1.381 . S
C1574 C1575 1.394 . S
C1574 H1582 0.930 . S
C1575 C1574 1.394 . S
C1575 C1576 1.383 . S
C1575 H1583 0.929 . S
C1576 C1575 1.383 . S
C1576 C1577 1.377 . S
C1577 H1561 0.930 . S
C1577 C1576 1.377 . S
C1577 C1578 1.379 . S
C1578 H1562 0.931 . S
C1578 C1572 1.383 . S
C1578 C1577 1.379 . S
H1579 C1573 0.959 . S
H1580 C1573 0.961 . S
H1581 C1573 0.960 1_655 S
H1582 C1574 0.930 . S
H1583 C1575 0.929 . S
H1584 C1592 0.929 . S
H1585 C1594 0.930 . S
H1586 C1596 0.930 . S
H1587 C1599 0.929 . S
H1588 C1602 0.930 . S
H1589 C1604 0.960 . S
H1590 C1604 0.960 . S
H1591 C1604 0.960 . S
C1592 H1584 0.929 . S
C1592 C1593 1.377 . S
C1592 C1594 1.384 . S
C1593 C1592 1.377 . S
C1593 C1599 1.390 . S
C1594 H1585 0.930 . S
C1594 C1592 1.384 . S
C1594 C1595 1.372 . S
C1595 C1594 1.372 . S
C1595 C1596 1.400 . S
C1595 C1600 1.490 . S
C1596 H1586 0.930 . S
C1596 C1595 1.400 . S
C1596 C1599 1.386 . S
H1597 C1613 0.930 . S
H1598 C1614 0.931 . S
C1599 H1587 0.929 . S
C1599 C1593 1.390 . S
C1599 C1596 1.386 . S
C1600 C1595 1.490 . S
C1600 C1602 1.395 . S
C1600 C1603 1.403 . S
H1601 C1607 0.930 . S
C1602 H1588 0.930 . S
C1602 C1600 1.395 . S
C1602 C1605 1.403 . S
C1603 C1600 1.403 . S
C1603 C1604 1.524 . S
C1603 C1607 1.400 . S
C1604 H1589 0.960 . S
C1604 H1590 0.960 . S
C1604 H1591 0.960 . S
C1604 C1603 1.524 . S
C1605 C1602 1.403 . S
C1605 C1606 1.392 . S
C1605 C1609 1.495 . S
C1606 C1605 1.392 . S
C1606 C1607 1.385 . S
C1606 C1608 1.478 . S
C1607 H1601 0.930 . S
C1607 C1603 1.400 . S
C1607 C1606 1.385 . S
C1608 C1606 1.478 . S
C1608 C1610 1.381 . S
C1608 C1614 1.383 . S
C1609 C1605 1.495 . S
C1609 H1615 0.959 . S
C1609 H1616 0.961 . S
C1609 H1617 0.960 . S
C1610 C1608 1.381 . S
C1610 C1611 1.394 . S
C1610 H1618 0.930 . S
C1611 C1610 1.394 . S
C1611 C1612 1.383 . S
C1611 H1619 0.929 . S
C1612 C1611 1.383 . S
C1612 C1613 1.377 . S
C1613 H1597 0.930 . S
C1613 C1612 1.377 . S
C1613 C1614 1.379 . S
C1614 H1598 0.931 . S
C1614 C1608 1.383 . S
C1614 C1613 1.379 . S
H1615 C1609 0.959 . S
H1616 C1609 0.961 . S
H1617 C1609 0.960 . S
H1618 C1610 0.930 . S
H1619 C1611 0.929 . S
H1620 C1628 0.929 . S
H1621 C1630 0.889 1_565 S
H1622 C1632 0.930 . S
H1623 C1635 0.929 . S
H1624 C1638 0.930 . S
H1625 C1640 0.960 . S
H1626 C1640 0.960 . S
H1627 C1640 0.960 . S
C1628 H1620 0.929 . S
C1628 C1629 1.377 . S
C1628 C1630 1.384 . S
C1629 C1628 1.377 . S
C1629 C1635 1.390 . S
C1630 H1621 0.889 1_545 S
C1630 C1628 1.384 . S
C1630 C1631 1.372 . S
C1631 C1630 1.372 . S
C1631 C1632 1.400 . S
C1631 C1636 1.490 . S
C1632 H1622 0.930 . S
C1632 C1631 1.400 . S
C1632 C1635 1.386 . S
H1633 C1649 0.930 . S
H1634 C1650 0.931 . S
C1635 H1623 0.929 . S
C1635 C1629 1.390 . S
C1635 C1632 1.386 . S
C1636 C1631 1.490 . S
C1636 C1638 1.395 1_545 S
C1636 C1639 1.403 . S
H1637 C1643 0.930 . S
C1638 H1624 0.930 . S
C1638 C1636 1.395 1_565 S
C1638 C1641 1.403 . S
C1639 C1636 1.403 . S
C1639 C1640 1.524 . S
C1639 C1643 1.400 . S
C1640 H1625 0.960 . S
C1640 H1626 0.960 . S
C1640 H1627 0.960 . S
C1640 C1639 1.524 . S
C1641 C1638 1.403 . S
C1641 C1642 1.392 . S
C1641 C1645 1.495 . S
C1642 C1641 1.392 . S
C1642 C1643 1.385 1_565 S
C1642 C1644 1.478 . S
C1643 H1637 0.930 . S
C1643 C1639 1.400 . S
C1643 C1642 1.385 1_545 S
C1644 C1642 1.478 . S
C1644 C1646 1.381 . S
C1644 C1650 1.383 . S
C1645 C1641 1.495 . S
C1645 H1651 0.959 . S
C1645 H1652 0.961 . S
C1645 H1653 0.960 . S
C1646 C1644 1.381 . S
C1646 C1647 1.394 . S
C1646 H1654 0.930 . S
C1647 C1646 1.394 . S
C1647 C1648 1.383 . S
C1647 H1655 0.929 . S
C1648 C1647 1.383 . S
C1648 C1649 1.377 . S
C1649 H1633 0.930 . S
C1649 C1648 1.377 . S
C1649 C1650 1.379 . S
C1650 H1634 0.931 . S
C1650 C1644 1.383 . S
C1650 C1649 1.379 . S
H1651 C1645 0.959 . S
H1652 C1645 0.961 . S
H1653 C1645 0.960 . S
H1654 C1646 0.930 . S
H1655 C1647 0.929 . S
H1656 C1664 0.929 . S
H1657 C1666 0.930 . S
H1658 C1668 0.930 . S
H1659 C1671 0.929 . S
H1660 C1674 0.930 . S
H1661 C1676 0.960 . S
H1662 C1676 0.960 . S
H1663 C1676 0.960 . S
C1664 H1656 0.929 . S
C1664 C1665 1.377 . S
C1664 C1666 1.384 . S
C1665 C1664 1.377 . S
C1665 C1671 1.390 . S
C1666 H1657 0.930 . S
C1666 C1664 1.384 . S
C1666 C1667 1.372 . S
C1667 C1666 1.372 . S
C1667 C1668 1.400 . S
C1667 C1672 1.490 . S
C1668 H1658 0.930 . S
C1668 C1667 1.400 . S
C1668 C1671 1.386 . S
H1669 C1685 0.930 . S
H1670 C1686 0.931 . S
C1671 H1659 0.929 . S
C1671 C1665 1.390 . S
C1671 C1668 1.386 . S
C1672 C1667 1.490 . S
C1672 C1674 1.395 1_565 S
C1672 C1675 1.403 . S
H1673 C1679 0.930 . S
C1674 H1660 0.930 . S
C1674 C1672 1.395 1_545 S
C1674 C1677 1.403 . S
C1675 C1672 1.403 . S
C1675 C1676 1.524 . S
C1675 C1679 1.400 . S
C1676 H1661 0.960 . S
C1676 H1662 0.960 . S
C1676 H1663 0.960 . S
C1676 C1675 1.524 . S
C1677 C1674 1.403 . S
C1677 C1678 1.392 . S
C1677 C1681 1.495 . S
C1678 C1677 1.392 . S
C1678 C1679 1.385 1_545 S
C1678 C1680 1.478 . S
C1679 H1673 0.930 . S
C1679 C1675 1.400 . S
C1679 C1678 1.385 1_565 S
C1680 C1678 1.478 . S
C1680 C1682 1.381 . S
C1680 C1686 1.383 . S
C1681 C1677 1.495 . S
C1681 H1687 0.959 . S
C1681 H1688 0.961 . S
C1681 H1689 0.960 . S
C1682 C1680 1.381 . S
C1682 C1683 1.394 . S
C1682 H1690 0.930 . S
C1683 C1682 1.394 . S
C1683 C1684 1.383 . S
C1683 H1691 0.929 . S
C1684 C1683 1.383 . S
C1684 C1685 1.377 . S
C1685 H1669 0.930 . S
C1685 C1684 1.377 . S
C1685 C1686 1.379 . S
C1686 H1670 0.931 . S
C1686 C1680 1.383 . S
C1686 C1685 1.379 . S
H1687 C1681 0.959 . S
H1688 C1681 0.961 . S
H1689 C1681 0.960 . S
H1690 C1682 0.930 . S
H1691 C1683 0.929 . S
H1692 C1700 0.929 . S
H1693 C1702 0.930 1_455 S
H1694 C1704 0.930 . S
H1695 C1707 0.929 . S
H1696 C1710 0.930 . S
H1697 C1712 0.960 . S
H1698 C1712 0.960 . S
H1699 C1712 0.960 . S
C1700 H1692 0.929 . S
C1700 C1701 1.377 . S
C1700 C1702 1.384 . S
C1701 C1700 1.377 . S
C1701 C1707 1.390 . S
C1702 H1693 0.930 1_655 S
C1702 C1700 1.384 . S
C1702 C1703 1.372 . S
C1703 C1702 1.372 . S
C1703 C1704 1.400 . S
C1703 C1708 1.490 . S
C1704 H1694 0.930 . S
C1704 C1703 1.400 . S
C1704 C1707 1.386 . S
H1705 C1721 0.930 . S
H1706 C1722 0.981 . S
C1707 H1695 0.929 . S
C1707 C1701 1.390 . S
C1707 C1704 1.386 . S
C1708 C1703 1.490 . S
C1708 C1710 1.395 1_655 S
C1708 C1711 1.403 . S
H1709 C1715 0.930 . S
C1710 H1696 0.930 . S
C1710 C1708 1.395 1_455 S
C1710 C1713 1.403 . S
C1711 C1708 1.403 . S
C1711 C1712 1.524 . S
C1711 C1715 1.400 . S
C1712 H1697 0.960 . S
C1712 H1698 0.960 . S
C1712 H1699 0.960 . S
C1712 C1711 1.524 . S
C1713 C1710 1.403 . S
C1713 C1714 1.392 . S
C1713 C1717 1.495 . S
C1714 C1713 1.392 . S
C1714 C1715 1.385 1_455 S
C1714 C1716 1.478 . S
C1715 H1709 0.930 . S
C1715 C1711 1.400 . S
C1715 C1714 1.385 1_655 S
C1716 C1714 1.478 . S
C1716 C1718 1.381 . S
C1716 C1722 1.383 . S
C1717 C1713 1.495 . S
C1717 H1723 0.959 . S
C1717 H1724 0.961 . S
C1717 H1725 0.960 . S
C1718 C1716 1.381 . S
C1718 C1719 1.394 . S
C1718 H1726 0.930 . S
C1719 C1718 1.394 . S
C1719 C1720 1.383 . S
C1719 H1727 0.929 . S
C1720 C1719 1.383 . S
C1720 C1721 1.377 . S
C1721 H1705 0.930 . S
C1721 C1720 1.377 . S
C1721 C1722 1.379 . S
C1722 H1706 0.981 . S
C1722 C1716 1.383 . S
C1722 C1721 1.379 . S
H1723 C1717 0.959 . S
H1724 C1717 0.961 . S
H1725 C1717 0.960 . S
H1726 C1718 0.930 . S
H1727 C1719 0.929 . S
H1728 C1736 0.929 . S
H1729 C1738 0.930 . S
H1730 C1740 0.930 . S
H1731 C1743 0.929 . S
H1732 C1746 0.930 . S
H1733 C1748 0.960 . S
H1734 C1748 0.960 . S
H1735 C1748 0.960 . S
C1736 H1728 0.929 . S
C1736 C1737 1.377 . S
C1736 C1738 1.384 . S
C1737 C1736 1.377 . S
C1737 C1743 1.390 . S
C1738 H1729 0.930 . S
C1738 C1736 1.384 . S
C1738 C1739 1.372 . S
C1739 C1738 1.372 . S
C1739 C1740 1.400 . S
C1739 C1744 1.490 . S
C1740 H1730 0.930 . S
C1740 C1739 1.400 . S
C1740 C1743 1.386 . S
H1741 C1757 0.930 . S
H1742 C1758 0.931 . S
C1743 H1731 0.929 . S
C1743 C1737 1.390 . S
C1743 C1740 1.386 . S
C1744 C1739 1.490 . S
C1744 C1746 1.395 . S
C1744 C1747 1.403 . S
H1745 C1751 0.930 . S
C1746 H1732 0.930 . S
C1746 C1744 1.395 . S
C1746 C1749 1.403 . S
C1747 C1744 1.403 . S
C1747 C1748 1.524 . S
C1747 C1751 1.400 . S
C1748 H1733 0.960 . S
C1748 H1734 0.960 . S
C1748 H1735 0.960 . S
C1748 C1747 1.524 . S
C1749 C1746 1.403 . S
C1749 C1750 1.392 . S
C1749 C1753 1.495 . S
C1750 C1749 1.392 . S
C1750 C1751 1.385 . S
C1750 C1752 1.478 . S
C1751 H1745 0.930 . S
C1751 C1747 1.400 . S
C1751 C1750 1.385 . S
C1752 C1750 1.478 . S
C1752 C1754 1.381 . S
C1752 C1758 1.383 . S
C1753 C1749 1.495 . S
C1753 H1759 0.959 . S
C1753 H1760 0.961 . S
C1753 H1761 0.960 . S
C1754 C1752 1.381 . S
C1754 C1755 1.394 . S
C1754 H1762 0.930 . S
C1755 C1754 1.394 . S
C1755 C1756 1.383 . S
C1755 H1763 0.929 . S
C1756 C1755 1.383 . S
C1756 C1757 1.377 . S
C1757 H1741 0.930 . S
C1757 C1756 1.377 . S
C1757 C1758 1.379 . S
C1758 H1742 0.931 . S
C1758 C1752 1.383 . S
C1758 C1757 1.379 . S
H1759 C1753 0.959 . S
H1760 C1753 0.961 . S
H1761 C1753 0.960 . S
H1762 C1754 0.930 . S
H1763 C1755 0.929 . S
H1764 C1772 0.929 . S
H1765 C1774 0.930 . S
H1766 C1776 0.930 . S
H1767 C1779 0.929 . S
H1768 C1782 0.930 . S
H1769 C1784 0.960 . S
H1770 C1784 0.960 . S
H1771 C1784 0.960 . S
C1772 H1764 0.929 . S
C1772 C1773 1.377 . S
C1772 C1774 1.384 . S
C1773 C1772 1.377 . S
C1773 C1779 1.390 . S
C1774 H1765 0.930 . S
C1774 C1772 1.384 . S
C1774 C1775 1.372 . S
C1775 C1774 1.372 . S
C1775 C1776 1.400 . S
C1775 C1780 1.490 . S
C1776 H1766 0.930 . S
C1776 C1775 1.400 . S
C1776 C1779 1.386 . S
H1777 C1793 0.930 . S
H1778 C1794 0.931 . S
C1779 H1767 0.929 . S
C1779 C1773 1.390 . S
C1779 C1776 1.386 . S
C1780 C1775 1.490 . S
C1780 C1782 1.395 . S
C1780 C1783 1.403 . S
H1781 C1787 0.930 . S
C1782 H1768 0.930 . S
C1782 C1780 1.395 . S
C1782 C1785 1.403 . S
C1783 C1780 1.403 . S
C1783 C1784 1.524 . S
C1783 C1787 1.400 . S
C1784 H1769 0.960 . S
C1784 H1770 0.960 . S
C1784 H1771 0.960 . S
C1784 C1783 1.524 . S
C1785 C1782 1.403 . S
C1785 C1786 1.392 . S
C1785 C1789 1.495 . S
C1786 C1785 1.392 . S
C1786 C1787 1.385 . S
C1786 C1788 1.478 . S
C1787 H1781 0.930 . S
C1787 C1783 1.400 . S
C1787 C1786 1.385 . S
C1788 C1786 1.478 . S
C1788 C1790 1.381 . S
C1788 C1794 1.383 . S
C1789 C1785 1.495 . S
C1789 H1795 0.959 . S
C1789 H1796 0.961 . S
C1789 H1797 0.960 . S
C1790 C1788 1.381 . S
C1790 C1791 1.394 . S
C1790 H1798 0.930 . S
C1791 C1790 1.394 . S
C1791 C1792 1.383 . S
C1791 H1799 0.929 . S
C1792 C1791 1.383 . S
C1792 C1793 1.377 . S
C1793 H1777 0.930 . S
C1793 C1792 1.377 . S
C1793 C1794 1.379 . S
C1794 H1778 0.931 . S
C1794 C1788 1.383 . S
C1794 C1793 1.379 . S
H1795 C1789 0.959 . S
H1796 C1789 0.961 . S
H1797 C1789 0.960 . S
H1798 C1790 0.930 . S
H1799 C1791 0.929 . S
H1800 C1808 0.929 . S
H1801 C1810 0.930 . S
H1802 C1812 0.930 . S
H1803 C1815 0.929 . S
H1804 C1818 0.930 . S
H1805 C1820 0.960 . S
H1806 C1820 0.960 . S
H1807 C1820 0.960 . S
C1808 H1800 0.929 . S
C1808 C1809 1.377 . S
C1808 C1810 1.384 . S
C1809 C1808 1.377 . S
C1809 C1815 1.390 . S
C1810 H1801 0.930 . S
C1810 C1808 1.384 . S
C1810 C1811 1.372 . S
C1811 C1810 1.372 . S
C1811 C1812 1.400 . S
C1811 C1816 1.490 . S
C1812 H1802 0.930 . S
C1812 C1811 1.400 . S
C1812 C1815 1.386 . S
H1813 C1829 0.930 . S
H1814 C1830 0.931 . S
C1815 H1803 0.929 . S
C1815 C1809 1.390 . S
C1815 C1812 1.386 . S
C1816 C1811 1.490 . S
C1816 C1818 1.395 . S
C1816 C1819 1.403 . S
H1817 C1823 0.930 . S
C1818 H1804 0.930 . S
C1818 C1816 1.395 . S
C1818 C1821 1.403 . S
C1819 C1816 1.403 . S
C1819 C1820 1.524 . S
C1819 C1823 1.400 . S
C1820 H1805 0.960 . S
C1820 H1806 0.960 . S
C1820 H1807 0.960 . S
C1820 C1819 1.524 . S
C1821 C1818 1.403 . S
C1821 C1822 1.392 . S
C1821 C1825 1.495 . S
C1822 C1821 1.392 . S
C1822 C1823 1.385 . S
C1822 C1824 1.478 . S
C1823 H1817 0.930 . S
C1823 C1819 1.400 . S
C1823 C1822 1.385 . S
C1824 C1822 1.478 . S
C1824 C1826 1.381 . S
C1824 C1830 1.383 . S
C1825 C1821 1.495 . S
C1825 H1831 0.959 . S
C1825 H1832 0.961 . S
C1825 H1833 0.960 . S
C1826 C1824 1.381 . S
C1826 C1827 1.394 . S
C1826 H1834 0.930 . S
C1827 C1826 1.394 . S
C1827 C1828 1.383 . S
C1827 H1835 0.929 . S
C1828 C1827 1.383 . S
C1828 C1829 1.377 . S
C1829 H1813 0.930 . S
C1829 C1828 1.377 . S
C1829 C1830 1.379 . S
C1830 H1814 0.931 . S
C1830 C1824 1.383 . S
C1830 C1829 1.379 . S
H1831 C1825 0.959 . S
H1832 C1825 0.961 . S
H1833 C1825 0.960 . S
H1834 C1826 0.930 . S
H1835 C1827 0.929 . S
H1836 C1844 0.929 . S
H1837 C1846 0.930 . S
H1838 C1848 0.930 . S
H1839 C1851 0.929 . S
H1840 C1854 0.930 . S
H1841 C1856 0.960 . S
H1842 C1856 0.960 . S
H1843 C1856 0.960 . S
C1844 H1836 0.929 . S
C1844 C1845 1.377 . S
C1844 C1846 1.384 . S
C1845 C1844 1.377 . S
C1845 C1851 1.390 . S
C1846 H1837 0.930 . S
C1846 C1844 1.384 . S
C1846 C1847 1.372 . S
C1847 C1846 1.372 . S
C1847 C1848 1.400 . S
C1847 C1852 1.490 . S
C1848 H1838 0.930 . S
C1848 C1847 1.400 . S
C1848 C1851 1.386 . S
H1849 C1865 0.930 . S
H1850 C1866 0.931 . S
C1851 H1839 0.929 . S
C1851 C1845 1.390 . S
C1851 C1848 1.386 . S
C1852 C1847 1.490 . S
C1852 C1854 1.395 . S
C1852 C1855 1.403 . S
H1853 C1859 0.930 . S
C1854 H1840 0.930 . S
C1854 C1852 1.395 . S
C1854 C1857 1.403 . S
C1855 C1852 1.403 . S
C1855 C1856 1.524 . S
C1855 C1859 1.400 . S
C1856 H1841 0.960 . S
C1856 H1842 0.960 . S
C1856 H1843 0.960 . S
C1856 C1855 1.524 . S
C1857 C1854 1.403 . S
C1857 C1858 1.392 . S
C1857 C1861 1.495 . S
C1858 C1857 1.392 . S
C1858 C1859 1.385 . S
C1858 C1860 1.478 . S
C1859 H1853 0.930 . S
C1859 C1855 1.400 . S
C1859 C1858 1.385 . S
C1860 C1858 1.478 . S
C1860 C1862 1.381 . S
C1860 C1866 1.383 . S
C1861 C1857 1.495 . S
C1861 H1867 0.959 . S
C1861 H1868 0.961 . S
C1861 H1869 0.960 . S
C1862 C1860 1.381 . S
C1862 C1863 1.394 . S
C1862 H1870 0.930 . S
C1863 C1862 1.394 . S
C1863 C1864 1.383 . S
C1863 H1871 0.929 . S
C1864 C1863 1.383 . S
C1864 C1865 1.377 . S
C1865 H1849 0.930 . S
C1865 C1864 1.377 . S
C1865 C1866 1.379 . S
C1866 H1850 0.931 . S
C1866 C1860 1.383 . S
C1866 C1865 1.379 . S
H1867 C1861 0.959 . S
H1868 C1861 0.961 . S
H1869 C1861 0.960 . S
H1870 C1862 0.930 . S
H1871 C1863 0.929 . S
H1872 C1880 0.929 . S
H1873 C1882 0.930 . S
H1874 C1884 0.930 . S
H1875 C1887 0.929 . S
H1876 C1890 0.930 . S
H1877 C1892 0.960 . S
H1878 C1892 0.960 . S
H1879 C1892 0.960 . S
C1880 H1872 0.929 . S
C1880 C1881 1.377 . S
C1880 C1882 1.384 . S
C1881 C1880 1.377 . S
C1881 C1887 1.390 . S
C1882 H1873 0.930 . S
C1882 C1880 1.384 . S
C1882 C1883 1.372 . S
C1883 C1882 1.372 . S
C1883 C1884 1.400 . S
C1883 C1888 1.490 . S
C1884 H1874 0.930 . S
C1884 C1883 1.400 . S
C1884 C1887 1.386 . S
H1885 C1901 0.930 . S
H1886 C1902 0.931 . S
C1887 H1875 0.929 . S
C1887 C1881 1.390 . S
C1887 C1884 1.386 . S
C1888 C1883 1.490 . S
C1888 C1890 1.395 . S
C1888 C1891 1.403 . S
H1889 C1895 0.930 . S
C1890 H1876 0.930 . S
C1890 C1888 1.395 . S
C1890 C1893 1.403 . S
C1891 C1888 1.403 . S
C1891 C1892 1.524 . S
C1891 C1895 1.400 . S
C1892 H1877 0.960 . S
C1892 H1878 0.960 . S
C1892 H1879 0.960 . S
C1892 C1891 1.524 . S
C1893 C1890 1.403 . S
C1893 C1894 1.392 . S
C1893 C1897 1.495 . S
C1894 C1893 1.392 . S
C1894 C1895 1.385 . S
C1894 C1896 1.478 . S
C1895 H1889 0.930 . S
C1895 C1891 1.400 . S
C1895 C1894 1.385 . S
C1896 C1894 1.478 . S
C1896 C1898 1.381 . S
C1896 C1902 1.383 . S
C1897 C1893 1.495 . S
C1897 H1903 0.959 . S
C1897 H1904 0.961 . S
C1897 H1905 0.960 . S
C1898 C1896 1.381 . S
C1898 C1899 1.394 . S
C1898 H1906 0.930 . S
C1899 C1898 1.394 . S
C1899 C1900 1.383 . S
C1899 H1907 0.929 . S
C1900 C1899 1.383 . S
C1900 C1901 1.377 . S
C1901 H1885 0.930 . S
C1901 C1900 1.377 . S
C1901 C1902 1.379 . S
C1902 H1886 0.931 . S
C1902 C1896 1.383 . S
C1902 C1901 1.379 . S
H1903 C1897 0.959 . S
H1904 C1897 0.961 . S
H1905 C1897 0.960 . S
H1906 C1898 0.930 . S
H1907 C1899 0.929 . S
H1908 C1916 0.929 . S
H1909 C1918 0.930 . S
H1910 C1920 0.930 . S
H1911 C1923 0.929 . S
H1912 C1926 0.930 . S
H1913 C1928 0.960 . S
H1914 C1928 0.960 . S
H1915 C1928 0.960 . S
C1916 H1908 0.929 . S
C1916 C1917 1.377 . S
C1916 C1918 1.384 . S
C1917 C1916 1.377 . S
C1917 C1923 1.390 . S
C1918 H1909 0.930 . S
C1918 C1916 1.384 . S
C1918 C1919 1.372 . S
C1919 C1918 1.372 . S
C1919 C1920 1.400 . S
C1919 C1924 1.490 . S
C1920 H1910 0.930 . S
C1920 C1919 1.400 . S
C1920 C1923 1.386 . S
H1921 C1937 0.930 . S
H1922 C1938 0.931 . S
C1923 H1911 0.929 . S
C1923 C1917 1.390 . S
C1923 C1920 1.386 . S
C1924 C1919 1.490 . S
C1924 C1926 1.395 . S
C1924 C1927 1.403 . S
H1925 C1931 0.930 . S
C1926 H1912 0.930 . S
C1926 C1924 1.395 . S
C1926 C1929 1.403 . S
C1927 C1924 1.403 . S
C1927 C1928 1.524 . S
C1927 C1931 1.400 . S
C1928 H1913 0.960 . S
C1928 H1914 0.960 . S
C1928 H1915 0.960 . S
C1928 C1927 1.524 . S
C1929 C1926 1.403 . S
C1929 C1930 1.392 . S
C1929 C1933 1.495 . S
C1930 C1929 1.392 . S
C1930 C1931 1.385 . S
C1930 C1932 1.478 . S
C1931 H1925 0.930 . S
C1931 C1927 1.400 . S
C1931 C1930 1.385 . S
C1932 C1930 1.478 . S
C1932 C1934 1.381 . S
C1932 C1938 1.383 . S
C1933 C1929 1.495 . S
C1933 H1939 0.959 . S
C1933 H1940 0.961 . S
C1933 H1941 0.960 . S
C1934 C1932 1.381 . S
C1934 C1935 1.394 . S
C1934 H1942 0.930 . S
C1935 C1934 1.394 . S
C1935 C1936 1.383 . S
C1935 H1943 0.929 . S
C1936 C1935 1.383 . S
C1936 C1937 1.377 . S
C1937 H1921 0.930 . S
C1937 C1936 1.377 . S
C1937 C1938 1.379 . S
C1938 H1922 0.931 . S
C1938 C1932 1.383 . S
C1938 C1937 1.379 . S
H1939 C1933 0.959 . S
H1940 C1933 0.961 . S
H1941 C1933 0.960 . S
H1942 C1934 0.930 . S
H1943 C1935 0.929 . S
H1944 C1952 0.929 . S
H1945 C1954 0.930 . S
H1946 C1956 0.930 . S
H1947 C1959 0.929 . S
H1948 C1962 0.930 . S
H1949 C1964 0.960 . S
H1950 C1964 0.960 . S
H1951 C1964 0.960 . S
C1952 H1944 0.929 . S
C1952 C1953 1.377 . S
C1952 C1954 1.384 . S
C1953 C1952 1.377 . S
C1953 C1959 1.390 . S
C1954 H1945 0.930 . S
C1954 C1952 1.384 . S
C1954 C1955 1.372 . S
C1955 C1954 1.372 . S
C1955 C1956 1.400 . S
C1955 C1960 1.490 . S
C1956 H1946 0.930 . S
C1956 C1955 1.400 . S
C1956 C1959 1.386 . S
H1957 C1973 0.930 . S
H1958 C1974 0.931 . S
C1959 H1947 0.929 . S
C1959 C1953 1.390 . S
C1959 C1956 1.386 . S
C1960 C1955 1.490 . S
C1960 C1962 1.395 . S
C1960 C1963 1.403 . S
H1961 C1967 0.930 . S
C1962 H1948 0.930 . S
C1962 C1960 1.395 . S
C1962 C1965 1.403 . S
C1963 C1960 1.403 . S
C1963 C1964 1.524 . S
C1963 C1967 1.400 . S
C1964 H1949 0.960 . S
C1964 H1950 0.960 . S
C1964 H1951 0.960 . S
C1964 C1963 1.524 . S
C1965 C1962 1.403 . S
C1965 C1966 1.392 . S
C1965 C1969 1.495 . S
C1966 C1965 1.392 . S
C1966 C1967 1.385 . S
C1966 C1968 1.478 . S
C1967 H1961 0.930 . S
C1967 C1963 1.400 . S
C1967 C1966 1.385 . S
C1968 C1966 1.478 . S
C1968 C1970 1.381 . S
C1968 C1974 1.383 . S
C1969 C1965 1.495 . S
C1969 H1975 0.959 . S
C1969 H1976 0.961 . S
C1969 H1977 0.960 . S
C1970 C1968 1.381 . S
C1970 C1971 1.394 . S
C1970 H1978 0.930 . S
C1971 C1970 1.394 . S
C1971 C1972 1.383 . S
C1971 H1979 0.929 . S
C1972 C1971 1.383 . S
C1972 C1973 1.377 . S
C1973 H1957 0.930 . S
C1973 C1972 1.377 . S
C1973 C1974 1.379 . S
C1974 H1958 0.931 . S
C1974 C1968 1.383 . S
C1974 C1973 1.379 . S
H1975 C1969 0.959 . S
H1976 C1969 0.961 . S
H1977 C1969 0.960 . S
H1978 C1970 0.930 . S
H1979 C1971 0.929 . S
H1980 C1988 0.929 . S
H1981 C1990 0.930 . S
H1982 C1992 0.930 . S
H1983 C1995 0.929 . S
H1984 C1998 0.930 . S
H1985 C2000 0.960 . S
H1986 C2000 0.960 . S
H1987 C2000 0.960 . S
C1988 H1980 0.929 . S
C1988 C1989 1.377 . S
C1988 C1990 1.384 . S
C1989 C1988 1.377 . S
C1989 C1995 1.390 . S
C1990 H1981 0.930 . S
C1990 C1988 1.384 . S
C1990 C1991 1.372 . S
C1991 C1990 1.372 . S
C1991 C1992 1.400 . S
C1991 C1996 1.490 . S
C1992 H1982 0.930 . S
C1992 C1991 1.400 . S
C1992 C1995 1.386 . S
H1993 C2009 0.930 . S
H1994 C2010 0.931 . S
C1995 H1983 0.929 . S
C1995 C1989 1.390 . S
C1995 C1992 1.386 . S
C1996 C1991 1.490 . S
C1996 C1998 1.395 . S
C1996 C1999 1.403 . S
H1997 C2003 0.930 . S
C1998 H1984 0.930 . S
C1998 C1996 1.395 . S
C1998 C2001 1.403 . S
C1999 C1996 1.403 . S
C1999 C2000 1.524 . S
C1999 C2003 1.400 . S
C2000 H1985 0.960 . S
C2000 H1986 0.960 . S
C2000 H1987 0.960 . S
C2000 C1999 1.524 . S
C2001 C1998 1.403 . S
C2001 C2002 1.392 . S
C2001 C2005 1.495 . S
C2002 C2001 1.392 . S
C2002 C2003 1.385 . S
C2002 C2004 1.478 . S
C2003 H1997 0.930 . S
C2003 C1999 1.400 . S
C2003 C2002 1.385 . S
C2004 C2002 1.478 . S
C2004 C2006 1.381 . S
C2004 C2010 1.383 . S
C2005 C2001 1.495 . S
C2005 H2011 0.959 . S
C2005 H2012 0.961 . S
C2005 H2013 0.960 . S
C2006 C2004 1.381 . S
C2006 C2007 1.394 . S
C2006 H2014 0.930 . S
C2007 C2006 1.394 . S
C2007 C2008 1.383 . S
C2007 H2015 0.929 . S
C2008 C2007 1.383 . S
C2008 C2009 1.377 . S
C2009 H1993 0.930 . S
C2009 C2008 1.377 . S
C2009 C2010 1.379 . S
C2010 H1994 0.931 . S
C2010 C2004 1.383 . S
C2010 C2009 1.379 . S
H2011 C2005 0.959 . S
H2012 C2005 0.961 . S
H2013 C2005 0.960 . S
H2014 C2006 0.930 . S
H2015 C2007 0.929 . S
H2016 C2024 0.929 . S
H2017 C2026 0.930 . S
H2018 C2028 0.930 . S
H2019 C2031 0.929 . S
H2020 C2034 0.930 . S
H2021 C2036 0.960 . S
H2022 C2036 0.960 . S
H2023 C2036 0.960 . S
C2024 H2016 0.929 . S
C2024 C2025 1.377 . S
C2024 C2026 1.384 . S
C2025 C2024 1.377 . S
C2025 C2031 1.390 . S
C2026 H2017 0.930 . S
C2026 C2024 1.384 . S
C2026 C2027 1.372 . S
C2027 C2026 1.372 . S
C2027 C2028 1.400 . S
C2027 C2032 1.490 . S
C2028 H2018 0.930 . S
C2028 C2027 1.400 . S
C2028 C2031 1.386 . S
H2029 C2045 0.930 . S
H2030 C2046 0.931 . S
C2031 H2019 0.929 . S
C2031 C2025 1.390 . S
C2031 C2028 1.386 . S
C2032 C2027 1.490 . S
C2032 C2034 1.395 . S
C2032 C2035 1.403 . S
H2033 C2039 0.930 . S
C2034 H2020 0.930 . S
C2034 C2032 1.395 . S
C2034 C2037 1.403 . S
C2035 C2032 1.403 . S
C2035 C2036 1.524 . S
C2035 C2039 1.400 . S
C2036 H2021 0.960 . S
C2036 H2022 0.960 . S
C2036 H2023 0.960 . S
C2036 C2035 1.524 . S
C2037 C2034 1.403 . S
C2037 C2038 1.392 . S
C2037 C2041 1.495 . S
C2038 C2037 1.392 . S
C2038 C2039 1.385 . S
C2038 C2040 1.478 . S
C2039 H2033 0.930 . S
C2039 C2035 1.400 . S
C2039 C2038 1.385 . S
C2040 C2038 1.478 . S
C2040 C2042 1.381 . S
C2040 C2046 1.383 . S
C2041 C2037 1.495 . S
C2041 H2047 0.959 . S
C2041 H2048 0.961 . S
C2041 H2049 0.960 . S
C2042 C2040 1.381 . S
C2042 C2043 1.394 . S
C2042 H2050 0.930 . S
C2043 C2042 1.394 . S
C2043 C2044 1.383 . S
C2043 H2051 0.929 . S
C2044 C2043 1.383 . S
C2044 C2045 1.377 . S
C2045 H2029 0.930 . S
C2045 C2044 1.377 . S
C2045 C2046 1.379 . S
C2046 H2030 0.931 . S
C2046 C2040 1.383 . S
C2046 C2045 1.379 . S
H2047 C2041 0.959 . S
H2048 C2041 0.961 . S
H2049 C2041 0.960 . S
H2050 C2042 0.930 . S
H2051 C2043 0.929 . S
H2052 C2060 0.929 . S
H2053 C2062 0.930 . S
H2054 C2064 0.930 . S
H2055 C2067 0.929 . S
H2056 C2070 0.930 . S
H2057 C2072 0.960 . S
H2058 C2072 0.960 . S
H2059 C2072 0.960 . S
C2060 H2052 0.929 . S
C2060 C2061 1.377 . S
C2060 C2062 1.384 . S
C2061 C2060 1.377 . S
C2061 C2067 1.390 . S
C2062 H2053 0.930 . S
C2062 C2060 1.384 . S
C2062 C2063 1.372 . S
C2063 C2062 1.372 . S
C2063 C2064 1.400 . S
C2063 C2068 1.490 . S
C2064 H2054 0.930 . S
C2064 C2063 1.400 . S
C2064 C2067 1.386 . S
H2065 C2081 0.930 . S
H2066 C2082 0.931 . S
C2067 H2055 0.929 . S
C2067 C2061 1.390 . S
C2067 C2064 1.386 . S
C2068 C2063 1.490 . S
C2068 C2070 1.395 . S
C2068 C2071 1.403 . S
H2069 C2075 0.930 . S
C2070 H2056 0.930 . S
C2070 C2068 1.395 . S
C2070 C2073 1.403 . S
C2071 C2068 1.403 . S
C2071 C2072 1.524 . S
C2071 C2075 1.400 . S
C2072 H2057 0.960 . S
C2072 H2058 0.960 . S
C2072 H2059 0.960 . S
C2072 C2071 1.524 . S
C2073 C2070 1.403 . S
C2073 C2074 1.392 . S
C2073 C2077 1.495 . S
C2074 C2073 1.392 . S
C2074 C2075 1.385 . S
C2074 C2076 1.478 . S
C2075 H2069 0.930 . S
C2075 C2071 1.400 . S
C2075 C2074 1.385 . S
C2076 C2074 1.478 . S
C2076 C2078 1.381 . S
C2076 C2082 1.383 . S
C2077 C2073 1.495 . S
C2077 H2083 0.959 . S
C2077 H2084 0.961 . S
C2077 H2085 0.960 . S
C2078 C2076 1.381 . S
C2078 C2079 1.394 . S
C2078 H2086 0.930 . S
C2079 C2078 1.394 . S
C2079 C2080 1.383 . S
C2079 H2087 0.929 . S
C2080 C2079 1.383 . S
C2080 C2081 1.377 . S
C2081 H2065 0.930 . S
C2081 C2080 1.377 . S
C2081 C2082 1.379 . S
C2082 H2066 0.931 . S
C2082 C2076 1.383 . S
C2082 C2081 1.379 . S
H2083 C2077 0.959 . S
H2084 C2077 0.961 . S
H2085 C2077 0.960 . S
H2086 C2078 0.930 . S
H2087 C2079 0.929 . S
H2088 C2096 0.929 . S
H2089 C2098 0.930 . S
H2090 C2100 0.930 . S
H2091 C2103 0.929 . S
H2092 C2106 0.930 . S
H2093 C2108 0.960 . S
H2094 C2108 0.960 . S
H2095 C2108 0.960 . S
C2096 H2088 0.929 . S
C2096 C2097 1.377 . S
C2096 C2098 1.384 . S
C2097 C2096 1.377 . S
C2097 C2103 1.390 . S
C2098 H2089 0.930 . S
C2098 C2096 1.384 . S
C2098 C2099 1.372 . S
C2099 C2098 1.372 . S
C2099 C2100 1.400 . S
C2099 C2104 1.490 . S
C2100 H2090 0.930 . S
C2100 C2099 1.400 . S
C2100 C2103 1.386 . S
H2101 C2117 0.930 . S
H2102 C2118 0.931 . S
C2103 H2091 0.929 . S
C2103 C2097 1.390 . S
C2103 C2100 1.386 . S
C2104 C2099 1.490 . S
C2104 C2106 1.395 . S
C2104 C2107 1.403 . S
H2105 C2111 0.930 . S
C2106 H2092 0.930 . S
C2106 C2104 1.395 . S
C2106 C2109 1.403 . S
C2107 C2104 1.403 . S
C2107 C2108 1.524 . S
C2107 C2111 1.400 . S
C2108 H2093 0.960 . S
C2108 H2094 0.960 . S
C2108 H2095 0.960 . S
C2108 C2107 1.524 . S
C2109 C2106 1.403 . S
C2109 C2110 1.392 . S
C2109 C2113 1.495 . S
C2110 C2109 1.392 . S
C2110 C2111 1.385 . S
C2110 C2112 1.478 . S
C2111 H2105 0.930 . S
C2111 C2107 1.400 . S
C2111 C2110 1.385 . S
C2112 C2110 1.478 . S
C2112 C2114 1.381 . S
C2112 C2118 1.383 . S
C2113 C2109 1.495 . S
C2113 H2119 0.959 . S
C2113 H2120 0.961 . S
C2113 H2121 0.960 . S
C2114 C2112 1.381 . S
C2114 C2115 1.394 . S
C2114 H2122 0.930 . S
C2115 C2114 1.394 . S
C2115 C2116 1.383 . S
C2115 H2123 0.929 . S
C2116 C2115 1.383 . S
C2116 C2117 1.377 . S
C2117 H2101 0.930 . S
C2117 C2116 1.377 . S
C2117 C2118 1.379 . S
C2118 H2102 0.931 . S
C2118 C2112 1.383 . S
C2118 C2117 1.379 . S
H2119 C2113 0.959 . S
H2120 C2113 0.961 . S
H2121 C2113 0.960 . S
H2122 C2114 0.930 . S
H2123 C2115 0.929 . S
H2124 C2132 0.929 . S
H2125 C2134 0.930 . S
H2126 C2136 0.930 . S
H2127 C2139 0.929 . S
H2128 C2142 0.930 . S
H2129 C2144 0.960 . S
H2130 C2144 0.960 . S
H2131 C2144 0.960 . S
C2132 H2124 0.929 . S
C2132 C2133 1.377 . S
C2132 C2134 1.384 . S
C2133 C2132 1.377 . S
C2133 C2139 1.390 . S
C2134 H2125 0.930 . S
C2134 C2132 1.384 . S
C2134 C2135 1.372 . S
C2135 C2134 1.372 . S
C2135 C2136 1.400 . S
C2135 C2140 1.490 . S
C2136 H2126 0.930 . S
C2136 C2135 1.400 . S
C2136 C2139 1.386 . S
H2137 C2153 0.930 . S
H2138 C2154 0.931 . S
C2139 H2127 0.929 . S
C2139 C2133 1.390 . S
C2139 C2136 1.386 . S
C2140 C2135 1.490 . S
C2140 C2142 1.395 . S
C2140 C2143 1.403 . S
H2141 C2147 0.930 . S
C2142 H2128 0.930 . S
C2142 C2140 1.395 . S
C2142 C2145 1.403 . S
C2143 C2140 1.403 . S
C2143 C2144 1.524 . S
C2143 C2147 1.400 . S
C2144 H2129 0.960 . S
C2144 H2130 0.960 . S
C2144 H2131 0.960 . S
C2144 C2143 1.524 . S
C2145 C2142 1.403 . S
C2145 C2146 1.392 . S
C2145 C2149 1.495 . S
C2146 C2145 1.392 . S
C2146 C2147 1.385 . S
C2146 C2148 1.478 . S
C2147 H2141 0.930 . S
C2147 C2143 1.400 . S
C2147 C2146 1.385 . S
C2148 C2146 1.478 . S
C2148 C2150 1.381 . S
C2148 C2154 1.383 . S
C2149 C2145 1.495 . S
C2149 H2155 0.959 . S
C2149 H2156 0.961 . S
C2149 H2157 0.960 . S
C2150 C2148 1.381 . S
C2150 C2151 1.394 . S
C2150 H2158 0.930 . S
C2151 C2150 1.394 . S
C2151 C2152 1.383 . S
C2151 H2159 0.929 . S
C2152 C2151 1.383 . S
C2152 C2153 1.377 . S
C2153 H2137 0.930 . S
C2153 C2152 1.377 . S
C2153 C2154 1.379 . S
C2154 H2138 0.931 . S
C2154 C2148 1.383 . S
C2154 C2153 1.379 . S
H2155 C2149 0.959 . S
H2156 C2149 0.961 . S
H2157 C2149 0.960 . S
H2158 C2150 0.930 . S
H2159 C2151 0.929 . S
H2160 C2168 0.929 . S
H2161 C2170 0.930 . S
H2162 C2172 0.930 . S
H2163 C2175 0.929 . S
H2164 C2178 0.930 . S
H2165 C2180 0.960 . S
H2166 C2180 0.960 . S
H2167 C2180 0.960 . S
C2168 H2160 0.929 . S
C2168 C2169 1.377 . S
C2168 C2170 1.384 . S
C2169 C2168 1.377 . S
C2169 C2175 1.390 . S
C2170 H2161 0.930 . S
C2170 C2168 1.384 . S
C2170 C2171 1.372 . S
C2171 C2170 1.372 . S
C2171 C2172 1.400 . S
C2171 C2176 1.490 . S
C2172 H2162 0.930 . S
C2172 C2171 1.400 . S
C2172 C2175 1.386 . S
H2173 C2189 0.930 . S
H2174 C2190 0.931 . S
C2175 H2163 0.929 . S
C2175 C2169 1.390 . S
C2175 C2172 1.386 . S
C2176 C2171 1.490 . S
C2176 C2178 1.395 . S
C2176 C2179 1.403 . S
H2177 C2183 0.930 . S
C2178 H2164 0.930 . S
C2178 C2176 1.395 . S
C2178 C2181 1.403 . S
C2179 C2176 1.403 . S
C2179 C2180 1.524 . S
C2179 C2183 1.400 . S
C2180 H2165 0.960 . S
C2180 H2166 0.960 . S
C2180 H2167 0.960 . S
C2180 C2179 1.524 . S
C2181 C2178 1.403 . S
C2181 C2182 1.392 . S
C2181 C2185 1.495 . S
C2182 C2181 1.392 . S
C2182 C2183 1.385 . S
C2182 C2184 1.478 . S
C2183 H2177 0.930 . S
C2183 C2179 1.400 . S
C2183 C2182 1.385 . S
C2184 C2182 1.478 . S
C2184 C2186 1.381 . S
C2184 C2190 1.383 . S
C2185 C2181 1.495 . S
C2185 H2191 0.959 . S
C2185 H2192 0.961 . S
C2185 H2193 0.960 . S
C2186 C2184 1.381 . S
C2186 C2187 1.394 . S
C2186 H2194 0.930 . S
C2187 C2186 1.394 . S
C2187 C2188 1.383 . S
C2187 H2195 0.929 . S
C2188 C2187 1.383 . S
C2188 C2189 1.377 . S
C2189 H2173 0.930 . S
C2189 C2188 1.377 . S
C2189 C2190 1.379 . S
C2190 H2174 0.931 . S
C2190 C2184 1.383 . S
C2190 C2189 1.379 . S
H2191 C2185 0.959 . S
H2192 C2185 0.961 . S
H2193 C2185 0.960 . S
H2194 C2186 0.930 . S
H2195 C2187 0.929 . S
H2196 C2204 0.929 . S
H2197 C2206 0.930 . S
H2198 C2208 0.930 1_655 S
H2199 C2211 0.931 . S
H2200 C2214 0.930 . S
H2201 C2216 0.960 . S
H2202 C2216 0.960 1_455 S
H2203 C2216 0.960 . S
C2204 H2196 0.929 . S
C2204 C2205 1.377 . S
C2204 C2206 1.384 . S
C2205 C2204 1.377 . S
C2205 C2211 1.390 . S
C2206 H2197 0.930 . S
C2206 C2204 1.384 . S
C2206 C2207 1.372 . S
C2207 C2206 1.372 . S
C2207 C2208 1.400 . S
C2207 C2212 1.490 . S
C2208 H2198 0.930 1_455 S
C2208 C2207 1.400 . S
C2208 C2211 1.386 . S
H2209 C2225 0.930 . S
H2210 C2226 0.931 . S
C2211 H2199 0.931 . S
C2211 C2205 1.390 . S
C2211 C2208 1.386 . S
C2212 C2207 1.490 . S
C2212 C2214 1.395 . S
C2212 C2215 1.370 1_455 S
H2213 C2219 0.930 . S
C2214 H2200 0.930 . S
C2214 C2212 1.395 . S
C2214 C2217 1.403 . S
C2215 C2212 1.370 1_655 S
C2215 C2216 1.526 . S
C2215 C2219 1.432 . S
C2216 H2201 0.960 . S
C2216 H2202 0.960 1_655 S
C2216 H2203 0.960 . S
C2216 C2215 1.526 . S
C2217 C2214 1.403 . S
C2217 C2218 1.392 1_455 S
C2217 C2221 1.495 . S
C2218 C2217 1.392 1_655 S
C2218 C2219 1.385 . S
C2218 C2220 1.478 . S
C2219 H2213 0.930 . S
C2219 C2215 1.432 . S
C2219 C2218 1.385 . S
C2220 C2218 1.478 . S
C2220 C2222 1.393 . S
C2220 C2226 1.383 . S
C2221 C2217 1.495 . S
C2221 H2227 0.959 . S
C2221 H2228 0.961 1_455 S
C2221 H2229 0.960 . S
C2222 C2220 1.393 . S
C2222 C2223 1.440 . S
C2222 H2230 0.874 1_655 S
C2223 C2222 1.440 . S
C2223 C2224 1.383 . S
C2223 H2231 0.927 1_655 S
C2224 C2223 1.383 . S
C2224 C2225 1.377 . S
C2225 H2209 0.930 . S
C2225 C2224 1.377 . S
C2225 C2226 1.379 . S
C2226 H2210 0.931 . S
C2226 C2220 1.383 . S
C2226 C2225 1.379 . S
H2227 C2221 0.959 . S
H2228 C2221 0.961 1_655 S
H2229 C2221 0.960 . S
H2230 C2222 0.874 1_455 S
H2231 C2223 0.927 1_455 S
H2232 C2240 0.929 . S
H2233 C2242 0.930 . S
H2234 C2244 0.930 . S
H2235 C2247 0.929 . S
H2236 C2250 0.930 . S
H2237 C2252 0.960 . S
H2238 C2252 0.960 . S
H2239 C2252 0.960 . S
C2240 H2232 0.929 . S
C2240 C2241 1.377 . S
C2240 C2242 1.384 . S
C2241 C2240 1.377 . S
C2241 C2247 1.390 . S
C2242 H2233 0.930 . S
C2242 C2240 1.384 . S
C2242 C2243 1.372 . S
C2243 C2242 1.372 . S
C2243 C2244 1.400 . S
C2243 C2248 1.490 . S
C2244 H2234 0.930 . S
C2244 C2243 1.400 . S
C2244 C2247 1.386 . S
H2245 C2261 0.930 . S
H2246 C2262 0.931 . S
C2247 H2235 0.929 . S
C2247 C2241 1.390 . S
C2247 C2244 1.386 . S
C2248 C2243 1.490 . S
C2248 C2250 1.395 . S
C2248 C2251 1.403 . S
H2249 C2255 0.930 . S
C2250 H2236 0.930 . S
C2250 C2248 1.395 . S
C2250 C2253 1.403 . S
C2251 C2248 1.403 . S
C2251 C2252 1.524 . S
C2251 C2255 1.400 . S
C2252 H2237 0.960 . S
C2252 H2238 0.960 . S
C2252 H2239 0.960 . S
C2252 C2251 1.524 . S
C2253 C2250 1.403 . S
C2253 C2254 1.392 . S
C2253 C2257 1.495 . S
C2254 C2253 1.392 . S
C2254 C2255 1.385 . S
C2254 C2256 1.478 . S
C2255 H2249 0.930 . S
C2255 C2251 1.400 . S
C2255 C2254 1.385 . S
C2256 C2254 1.478 . S
C2256 C2258 1.381 . S
C2256 C2262 1.383 . S
C2257 C2253 1.495 . S
C2257 H2263 0.959 . S
C2257 H2264 0.961 . S
C2257 H2265 0.960 . S
C2258 C2256 1.381 . S
C2258 C2259 1.394 . S
C2258 H2266 0.930 . S
C2259 C2258 1.394 . S
C2259 C2260 1.383 . S
C2259 H2267 0.929 . S
C2260 C2259 1.383 . S
C2260 C2261 1.377 . S
C2261 H2245 0.930 . S
C2261 C2260 1.377 . S
C2261 C2262 1.379 . S
C2262 H2246 0.931 . S
C2262 C2256 1.383 . S
C2262 C2261 1.379 . S
H2263 C2257 0.959 . S
H2264 C2257 0.961 . S
H2265 C2257 0.960 . S
H2266 C2258 0.930 . S
H2267 C2259 0.929 . S
H2268 C2276 0.929 . S
H2269 C2278 0.930 . S
H2270 C2280 0.930 . S
H2271 C2283 0.929 . S
H2272 C2286 0.930 . S
H2273 C2288 0.960 . S
H2274 C2288 0.960 . S
H2275 C2288 0.960 . S
C2276 H2268 0.929 . S
C2276 C2277 1.377 . S
C2276 C2278 1.384 . S
C2277 C2276 1.377 . S
C2277 C2283 1.390 . S
C2278 H2269 0.930 . S
C2278 C2276 1.384 . S
C2278 C2279 1.372 . S
C2279 C2278 1.372 . S
C2279 C2280 1.400 . S
C2279 C2284 1.490 . S
C2280 H2270 0.930 . S
C2280 C2279 1.400 . S
C2280 C2283 1.386 . S
H2281 C2297 0.930 . S
H2282 C2298 0.931 . S
C2283 H2271 0.929 . S
C2283 C2277 1.390 . S
C2283 C2280 1.386 . S
C2284 C2279 1.490 . S
C2284 C2286 1.395 . S
C2284 C2287 1.403 1_545 S
H2285 C2291 0.930 . S
C2286 H2272 0.930 . S
C2286 C2284 1.395 . S
C2286 C2289 1.403 . S
C2287 C2284 1.403 1_565 S
C2287 C2288 1.524 . S
C2287 C2291 1.400 . S
C2288 H2273 0.960 . S
C2288 H2274 0.960 . S
C2288 H2275 0.960 . S
C2288 C2287 1.524 . S
C2289 C2286 1.403 . S
C2289 C2290 1.392 1_545 S
C2289 C2293 1.495 . S
C2290 C2289 1.392 1_565 S
C2290 C2291 1.385 . S
C2290 C2292 1.478 . S
C2291 H2285 0.930 . S
C2291 C2287 1.400 . S
C2291 C2290 1.385 . S
C2292 C2290 1.478 . S
C2292 C2294 1.381 . S
C2292 C2298 1.383 . S
C2293 C2289 1.495 . S
C2293 H2299 0.959 . S
C2293 H2300 0.961 . S
C2293 H2301 0.960 . S
C2294 C2292 1.381 . S
C2294 C2295 1.394 . S
C2294 H2302 0.930 . S
C2295 C2294 1.394 . S
C2295 C2296 1.383 . S
C2295 H2303 0.929 . S
C2296 C2295 1.383 . S
C2296 C2297 1.377 . S
C2297 H2281 0.930 . S
C2297 C2296 1.377 . S
C2297 C2298 1.379 . S
C2298 H2282 0.931 . S
C2298 C2292 1.383 . S
C2298 C2297 1.379 . S
H2299 C2293 0.959 . S
H2300 C2293 0.961 . S
H2301 C2293 0.960 . S
H2302 C2294 0.930 . S
H2303 C2295 0.929 . S
H2304 C2312 0.929 . S
H2305 C2314 0.930 1_554 S
H2306 C2316 0.930 . S
H2307 C2319 0.929 . S
H2308 C2322 0.930 . S
H2309 C2324 0.960 1_554 S
H2310 C2324 0.960 1_554 S
H2311 C2324 0.960 . S
C2312 H2304 0.929 . S
C2312 C2313 1.377 . S
C2312 C2314 1.384 . S
C2313 C2312 1.377 . S
C2313 C2319 1.390 . S
C2314 H2305 0.930 1_556 S
C2314 C2312 1.384 . S
C2314 C2315 1.372 . S
C2315 C2314 1.372 . S
C2315 C2316 1.400 . S
C2315 C2320 1.490 . S
C2316 H2306 0.930 . S
C2316 C2315 1.400 . S
C2316 C2319 1.386 . S
H2317 C2333 0.930 . S
H2318 C2334 0.931 1_556 S
C2319 H2307 0.929 . S
C2319 C2313 1.390 . S
C2319 C2316 1.386 . S
C2320 C2315 1.490 . S
C2320 C2322 1.395 1_545 S
C2320 C2323 1.403 . S
H2321 C2327 0.930 . S
C2322 H2308 0.930 . S
C2322 C2320 1.395 1_565 S
C2322 C2325 1.403 1_556 S
C2323 C2320 1.403 . S
C2323 C2324 1.524 . S
C2323 C2327 1.400 1_556 S
C2324 H2309 0.960 1_556 S
C2324 H2310 0.960 1_556 S
C2324 H2311 0.960 . S
C2324 C2323 1.524 . S
C2325 C2322 1.403 1_554 S
C2325 C2326 1.392 . S
C2325 C2329 1.495 . S
C2326 C2325 1.392 . S
C2326 C2327 1.385 1_565 S
C2326 C2328 1.478 . S
C2327 H2321 0.930 . S
C2327 C2323 1.400 1_554 S
C2327 C2326 1.385 1_545 S
C2328 C2326 1.478 . S
C2328 C2330 1.381 . S
C2328 C2334 1.383 . S
C2329 C2325 1.495 . S
C2329 H2335 0.958 . S
C2329 H2336 0.961 1_554 S
C2329 H2337 0.960 . S
C2330 C2328 1.381 . S
C2330 C2331 1.394 . S
C2330 H2338 0.930 . S
C2331 C2330 1.394 . S
C2331 C2332 1.383 . S
C2331 H2339 0.929 . S
C2332 C2331 1.383 . S
C2332 C2333 1.377 . S
C2333 H2317 0.930 . S
C2333 C2332 1.377 . S
C2333 C2334 1.379 . S
C2334 H2318 0.931 1_554 S
C2334 C2328 1.383 . S
C2334 C2333 1.379 . S
H2335 C2329 0.958 . S
H2336 C2329 0.961 1_556 S
H2337 C2329 0.960 . S
H2338 C2330 0.930 . S
H2339 C2331 0.929 . S
H2340 C2348 0.929 . S
H2341 C2350 0.930 1_556 S
H2342 C2352 0.930 . S
H2343 C2355 0.929 . S
H2344 C2358 0.930 . S
H2345 C2360 0.960 . S
H2346 C2360 0.960 . S
H2347 C2360 0.960 . S
C2348 H2340 0.929 . S
C2348 C2349 1.377 . S
C2348 C2350 1.384 . S
C2349 C2348 1.377 . S
C2349 C2355 1.390 . S
C2350 H2341 0.930 1_554 S
C2350 C2348 1.384 . S
C2350 C2351 1.372 . S
C2351 C2350 1.372 . S
C2351 C2352 1.400 . S
C2351 C2356 1.490 . S
C2352 H2342 0.930 . S
C2352 C2351 1.400 . S
C2352 C2355 1.386 . S
H2353 C2369 0.930 . S
H2354 C2370 0.931 1_554 S
C2355 H2343 0.929 . S
C2355 C2349 1.390 . S
C2355 C2352 1.386 . S
C2356 C2351 1.490 . S
C2356 C2358 1.395 1_554 S
C2356 C2359 1.403 1_455 S
H2357 C2363 0.930 . S
C2358 H2344 0.930 . S
C2358 C2356 1.395 1_556 S
C2358 C2361 1.403 . S
C2359 C2356 1.403 1_655 S
C2359 C2360 1.524 . S
C2359 C2363 1.400 . S
C2360 H2345 0.960 . S
C2360 H2346 0.960 . S
C2360 H2347 0.960 . S
C2360 C2359 1.524 . S
C2361 C2358 1.403 . S
C2361 C2362 1.392 1_455 S
C2361 C2365 1.495 . S
C2362 C2361 1.392 1_655 S
C2362 C2363 1.385 1_556 S
C2362 C2364 1.478 . S
C2363 H2357 0.930 . S
C2363 C2359 1.400 . S
C2363 C2362 1.385 1_554 S
C2364 C2362 1.478 . S
C2364 C2366 1.381 . S
C2364 C2370 1.383 . S
C2365 C2361 1.495 . S
C2365 H2371 0.959 . S
C2365 H2372 0.961 . S
C2365 H2373 0.960 . S
C2366 C2364 1.381 . S
C2366 C2367 1.394 . S
C2366 H2374 0.930 . S
C2367 C2366 1.394 . S
C2367 C2368 1.383 . S
C2367 H2375 0.929 . S
C2368 C2367 1.383 . S
C2368 C2369 1.377 . S
C2369 H2353 0.930 . S
C2369 C2368 1.377 . S
C2369 C2370 1.379 . S
C2370 H2354 0.931 1_556 S
C2370 C2364 1.383 . S
C2370 C2369 1.379 . S
H2371 C2365 0.959 . S
H2372 C2365 0.961 . S
H2373 C2365 0.960 . S
H2374 C2366 0.930 . S
H2375 C2367 0.929 . S
H2376 C2384 0.929 . S
H2377 C2386 0.930 . S
H2378 C2388 0.930 . S
H2379 C2391 0.929 . S
H2380 C2394 0.930 . S
H2381 C2396 0.960 . S
H2382 C2396 0.960 . S
H2383 C2396 0.960 . S
C2384 H2376 0.929 . S
C2384 C2385 1.377 . S
C2384 C2386 1.384 . S
C2385 C2384 1.377 . S
C2385 C2391 1.390 . S
C2386 H2377 0.930 . S
C2386 C2384 1.384 . S
C2386 C2387 1.372 . S
C2387 C2386 1.372 . S
C2387 C2388 1.400 . S
C2387 C2392 1.490 . S
C2388 H2378 0.930 . S
C2388 C2387 1.400 . S
C2388 C2391 1.386 . S
H2389 C2405 0.930 . S
H2390 C2406 0.931 . S
C2391 H2379 0.929 . S
C2391 C2385 1.390 . S
C2391 C2388 1.386 . S
C2392 C2387 1.490 . S
C2392 C2394 1.395 1_554 S
C2392 C2395 1.403 . S
H2393 C2399 0.930 . S
C2394 H2380 0.930 . S
C2394 C2392 1.395 1_556 S
C2394 C2397 1.403 . S
C2395 C2392 1.403 . S
C2395 C2396 1.524 . S
C2395 C2399 1.400 . S
C2396 H2381 0.960 . S
C2396 H2382 0.960 . S
C2396 H2383 0.960 . S
C2396 C2395 1.524 . S
C2397 C2394 1.403 . S
C2397 C2398 1.392 . S
C2397 C2401 1.495 . S
C2398 C2397 1.392 . S
C2398 C2399 1.385 1_556 S
C2398 C2400 1.478 . S
C2399 H2393 0.930 . S
C2399 C2395 1.400 . S
C2399 C2398 1.385 1_554 S
C2400 C2398 1.478 . S
C2400 C2402 1.381 . S
C2400 C2406 1.383 . S
C2401 C2397 1.495 . S
C2401 H2407 0.959 . S
C2401 H2408 0.961 . S
C2401 H2409 0.960 . S
C2402 C2400 1.381 . S
C2402 C2403 1.394 . S
C2402 H2410 0.930 . S
C2403 C2402 1.394 . S
C2403 C2404 1.383 . S
C2403 H2411 0.929 . S
C2404 C2403 1.383 . S
C2404 C2405 1.377 . S
C2405 H2389 0.930 . S
C2405 C2404 1.377 . S
C2405 C2406 1.379 . S
C2406 H2390 0.931 . S
C2406 C2400 1.383 . S
C2406 C2405 1.379 . S
H2407 C2401 0.959 . S
H2408 C2401 0.961 . S
H2409 C2401 0.960 . S
H2410 C2402 0.930 . S
H2411 C2403 0.929 . S
H2412 C2420 0.929 . S
H2413 C2422 0.930 . S
H2414 C2424 0.930 . S
H2415 C2427 0.929 . S
H2416 C2430 0.930 . S
H2417 C2432 0.960 . S
H2418 C2432 0.960 . S
H2419 C2432 0.960 . S
C2420 H2412 0.929 . S
C2420 C2421 1.377 1_554 S
C2420 C2422 1.384 . S
C2421 C2420 1.377 1_556 S
C2421 C2427 1.390 . S
C2422 H2413 0.930 . S
C2422 C2420 1.384 . S
C2422 C2423 1.372 . S
C2423 C2422 1.372 . S
C2423 C2424 1.400 . S
C2423 C2428 1.490 . S
C2424 H2414 0.930 . S
C2424 C2423 1.400 . S
C2424 C2427 1.386 1_554 S
H2425 C2441 0.930 . S
H2426 C2442 0.931 . S
C2427 H2415 0.929 . S
C2427 C2421 1.390 . S
C2427 C2424 1.386 1_556 S
C2428 C2423 1.490 . S
C2428 C2430 1.395 . S
C2428 C2431 1.403 . S
H2429 C2435 0.930 . S
C2430 H2416 0.930 . S
C2430 C2428 1.395 . S
C2430 C2433 1.403 . S
C2431 C2428 1.403 . S
C2431 C2432 1.524 . S
C2431 C2435 1.400 . S
C2432 H2417 0.960 . S
C2432 H2418 0.960 . S
C2432 H2419 0.960 . S
C2432 C2431 1.524 . S
C2433 C2430 1.403 . S
C2433 C2434 1.392 . S
C2433 C2437 1.495 . S
C2434 C2433 1.392 . S
C2434 C2435 1.385 . S
C2434 C2436 1.478 . S
C2435 H2429 0.930 . S
C2435 C2431 1.400 . S
C2435 C2434 1.385 . S
C2436 C2434 1.478 . S
C2436 C2438 1.381 . S
C2436 C2442 1.383 . S
C2437 C2433 1.495 . S
C2437 H2443 0.959 . S
C2437 H2444 0.961 . S
C2437 H2445 0.960 . S
C2438 C2436 1.381 . S
C2438 C2439 1.394 . S
C2438 H2446 0.930 . S
C2439 C2438 1.394 . S
C2439 C2440 1.383 . S
C2439 H2447 0.929 . S
C2440 C2439 1.383 . S
C2440 C2441 1.377 . S
C2441 H2425 0.930 . S
C2441 C2440 1.377 . S
C2441 C2442 1.379 . S
C2442 H2426 0.931 . S
C2442 C2436 1.383 . S
C2442 C2441 1.379 . S
H2443 C2437 0.959 . S
H2444 C2437 0.961 . S
H2445 C2437 0.960 . S
H2446 C2438 0.930 . S
H2447 C2439 0.929 . S
H2448 C2456 0.929 . S
H2449 C2458 0.930 . S
H2450 C2460 0.930 . S
H2451 C2463 0.929 . S
H2452 C2466 0.930 . S
H2453 C2468 0.960 . S
H2454 C2468 0.960 . S
H2455 C2468 0.960 . S
C2456 H2448 0.929 . S
C2456 C2457 1.377 . S
C2456 C2458 1.384 . S
C2457 C2456 1.377 . S
C2457 C2463 1.390 . S
C2458 H2449 0.930 . S
C2458 C2456 1.384 . S
C2458 C2459 1.372 . S
C2459 C2458 1.372 . S
C2459 C2460 1.400 . S
C2459 C2464 1.490 . S
C2460 H2450 0.930 . S
C2460 C2459 1.400 . S
C2460 C2463 1.386 . S
H2461 C2477 0.941 . S
H2462 C2478 0.931 . S
C2463 H2451 0.929 . S
C2463 C2457 1.390 . S
C2463 C2460 1.386 . S
C2464 C2459 1.490 . S
C2464 C2466 1.395 . S
C2464 C2467 1.403 . S
H2465 C2471 0.930 . S
C2466 H2452 0.930 . S
C2466 C2464 1.395 . S
C2466 C2469 1.403 . S
C2467 C2464 1.403 . S
C2467 C2468 1.524 . S
C2467 C2471 1.400 . S
C2468 H2453 0.960 . S
C2468 H2454 0.960 . S
C2468 H2455 0.960 . S
C2468 C2467 1.524 . S
C2469 C2466 1.403 . S
C2469 C2470 1.392 . S
C2469 C2473 1.495 . S
C2470 C2469 1.392 . S
C2470 C2471 1.385 . S
C2470 C2472 1.478 . S
C2471 H2465 0.930 . S
C2471 C2467 1.400 . S
C2471 C2470 1.385 . S
C2472 C2470 1.478 . S
C2472 C2474 1.381 . S
C2472 C2478 1.383 . S
C2473 C2469 1.495 . S
C2473 H2479 0.959 . S
C2473 H2480 0.961 . S
C2473 H2481 0.960 . S
C2474 C2472 1.381 . S
C2474 C2475 1.394 . S
C2474 H2482 0.930 . S
C2475 C2474 1.394 . S
C2475 C2476 1.383 1_554 S
C2475 H2483 0.929 1_554 S
C2476 C2475 1.383 1_556 S
C2476 C2477 1.377 1_556 S
C2477 H2461 0.941 . S
C2477 C2476 1.377 1_554 S
C2477 C2478 1.379 . S
C2478 H2462 0.931 . S
C2478 C2472 1.383 . S
C2478 C2477 1.379 . S
H2479 C2473 0.959 . S
H2480 C2473 0.961 . S
H2481 C2473 0.960 . S
H2482 C2474 0.930 . S
H2483 C2475 0.929 1_556 S
H2484 C2492 0.929 . S
H2485 C2494 0.930 . S
H2486 C2496 0.930 . S
H2487 C2499 0.929 . S
H2488 C2502 0.930 . S
H2489 C2504 0.960 . S
H2490 C2504 0.960 . S
H2491 C2504 0.960 . S
C2492 H2484 0.929 . S
C2492 C2493 1.377 1_554 S
C2492 C2494 1.384 . S
C2493 C2492 1.377 1_556 S
C2493 C2499 1.390 . S
C2494 H2485 0.930 . S
C2494 C2492 1.384 . S
C2494 C2495 1.372 . S
C2495 C2494 1.372 . S
C2495 C2496 1.400 . S
C2495 C2500 1.490 . S
C2496 H2486 0.930 . S
C2496 C2495 1.400 . S
C2496 C2499 1.386 1_554 S
H2497 C2513 0.930 . S
H2498 C2514 0.931 . S
C2499 H2487 0.929 . S
C2499 C2493 1.390 . S
C2499 C2496 1.386 1_556 S
C2500 C2495 1.490 . S
C2500 C2502 1.395 . S
C2500 C2503 1.403 . S
H2501 C2507 0.930 . S
C2502 H2488 0.930 . S
C2502 C2500 1.395 . S
C2502 C2505 1.403 . S
C2503 C2500 1.403 . S
C2503 C2504 1.524 . S
C2503 C2507 1.400 . S
C2504 H2489 0.960 . S
C2504 H2490 0.960 . S
C2504 H2491 0.960 . S
C2504 C2503 1.524 . S
C2505 C2502 1.403 . S
C2505 C2506 1.392 . S
C2505 C2509 1.495 . S
C2506 C2505 1.392 . S
C2506 C2507 1.385 . S
C2506 C2508 1.478 . S
C2507 H2501 0.930 . S
C2507 C2503 1.400 . S
C2507 C2506 1.385 . S
C2508 C2506 1.478 . S
C2508 C2510 1.381 . S
C2508 C2514 1.383 . S
C2509 C2505 1.495 . S
C2509 H2515 0.959 . S
C2509 H2516 0.961 . S
C2509 H2517 0.960 . S
C2510 C2508 1.381 . S
C2510 C2511 1.394 . S
C2510 H2518 0.930 . S
C2511 C2510 1.394 . S
C2511 C2512 1.383 . S
C2511 H2519 0.929 . S
C2512 C2511 1.383 . S
C2512 C2513 1.377 . S
C2513 H2497 0.930 . S
C2513 C2512 1.377 . S
C2513 C2514 1.379 . S
C2514 H2498 0.931 . S
C2514 C2508 1.383 . S
C2514 C2513 1.379 . S
H2515 C2509 0.959 . S
H2516 C2509 0.961 . S
H2517 C2509 0.960 . S
H2518 C2510 0.930 . S
H2519 C2511 0.929 . S
H2520 C2528 0.929 . S
H2521 C2530 0.930 . S
H2522 C2532 0.930 . S
H2523 C2535 0.929 . S
H2524 C2538 0.930 . S
H2525 C2540 0.960 . S
H2526 C2540 0.960 . S
H2527 C2540 0.960 . S
C2528 H2520 0.929 . S
C2528 C2529 1.377 . S
C2528 C2530 1.384 . S
C2529 C2528 1.377 . S
C2529 C2535 1.390 . S
C2530 H2521 0.930 . S
C2530 C2528 1.384 . S
C2530 C2531 1.372 . S
C2531 C2530 1.372 . S
C2531 C2532 1.400 . S
C2531 C2536 1.490 . S
C2532 H2522 0.930 . S
C2532 C2531 1.400 . S
C2532 C2535 1.386 . S
H2533 C2549 0.930 . S
H2534 C2550 0.931 . S
C2535 H2523 0.929 . S
C2535 C2529 1.390 . S
C2535 C2532 1.386 . S
C2536 C2531 1.490 . S
C2536 C2538 1.395 . S
C2536 C2539 1.403 . S
H2537 C2543 0.930 . S
C2538 H2524 0.930 . S
C2538 C2536 1.395 . S
C2538 C2541 1.403 . S
C2539 C2536 1.403 . S
C2539 C2540 1.524 . S
C2539 C2543 1.400 . S
C2540 H2525 0.960 . S
C2540 H2526 0.960 . S
C2540 H2527 0.960 . S
C2540 C2539 1.524 . S
C2541 C2538 1.403 . S
C2541 C2542 1.392 . S
C2541 C2545 1.495 . S
C2542 C2541 1.392 . S
C2542 C2543 1.385 . S
C2542 C2544 1.478 . S
C2543 H2537 0.930 . S
C2543 C2539 1.400 . S
C2543 C2542 1.385 . S
C2544 C2542 1.478 . S
C2544 C2546 1.381 . S
C2544 C2550 1.383 . S
C2545 C2541 1.495 . S
C2545 H2551 0.959 . S
C2545 H2552 0.961 . S
C2545 H2553 0.960 . S
C2546 C2544 1.381 . S
C2546 C2547 1.394 . S
C2546 H2554 0.930 . S
C2547 C2546 1.394 . S
C2547 C2548 1.383 . S
C2547 H2555 0.929 . S
C2548 C2547 1.383 . S
C2548 C2549 1.377 . S
C2549 H2533 0.930 . S
C2549 C2548 1.377 . S
C2549 C2550 1.379 . S
C2550 H2534 0.931 . S
C2550 C2544 1.383 . S
C2550 C2549 1.379 . S
H2551 C2545 0.959 . S
H2552 C2545 0.961 . S
H2553 C2545 0.960 . S
H2554 C2546 0.930 . S
H2555 C2547 0.929 . S
H2556 C2564 0.929 . S
H2557 C2566 0.930 . S
H2558 C2568 0.930 . S
H2559 C2571 0.929 . S
H2560 C2574 0.930 . S
H2561 C2576 0.960 . S
H2562 C2576 0.960 . S
H2563 C2576 0.960 . S
C2564 H2556 0.929 . S
C2564 C2565 1.377 . S
C2564 C2566 1.384 . S
C2565 C2564 1.377 . S
C2565 C2571 1.390 . S
C2566 H2557 0.930 . S
C2566 C2564 1.384 . S
C2566 C2567 1.372 . S
C2567 C2566 1.372 . S
C2567 C2568 1.400 . S
C2567 C2572 1.490 . S
C2568 H2558 0.930 . S
C2568 C2567 1.400 . S
C2568 C2571 1.386 . S
H2569 C2585 0.930 . S
H2570 C2586 0.931 . S
C2571 H2559 0.929 . S
C2571 C2565 1.390 . S
C2571 C2568 1.386 . S
C2572 C2567 1.490 . S
C2572 C2574 1.395 . S
C2572 C2575 1.403 . S
H2573 C2579 0.930 . S
C2574 H2560 0.930 . S
C2574 C2572 1.395 . S
C2574 C2577 1.403 . S
C2575 C2572 1.403 . S
C2575 C2576 1.524 . S
C2575 C2579 1.400 . S
C2576 H2561 0.960 . S
C2576 H2562 0.960 . S
C2576 H2563 0.960 . S
C2576 C2575 1.524 . S
C2577 C2574 1.403 . S
C2577 C2578 1.392 . S
C2577 C2581 1.495 . S
C2578 C2577 1.392 . S
C2578 C2579 1.385 . S
C2578 C2580 1.478 . S
C2579 H2573 0.930 . S
C2579 C2575 1.400 . S
C2579 C2578 1.385 . S
C2580 C2578 1.478 . S
C2580 C2582 1.381 . S
C2580 C2586 1.383 . S
C2581 C2577 1.495 . S
C2581 H2587 0.959 . S
C2581 H2588 0.961 . S
C2581 H2589 0.960 . S
C2582 C2580 1.381 . S
C2582 C2583 1.394 . S
C2582 H2590 0.930 . S
C2583 C2582 1.394 . S
C2583 C2584 1.383 . S
C2583 H2591 0.929 . S
C2584 C2583 1.383 . S
C2584 C2585 1.377 . S
C2585 H2569 0.930 . S
C2585 C2584 1.377 . S
C2585 C2586 1.379 . S
C2586 H2570 0.931 . S
C2586 C2580 1.383 . S
C2586 C2585 1.379 . S
H2587 C2581 0.959 . S
H2588 C2581 0.961 . S
H2589 C2581 0.960 . S
H2590 C2582 0.930 . S
H2591 C2583 0.929 . S
H2592 C2600 0.929 . S
H2593 C2602 0.930 . S
H2594 C2604 0.930 . S
H2595 C2607 0.929 . S
H2596 C2610 0.930 . S
H2597 C2612 0.960 . S
H2598 C2612 0.960 . S
H2599 C2612 0.960 . S
C2600 H2592 0.929 . S
C2600 C2601 1.377 . S
C2600 C2602 1.384 . S
C2601 C2600 1.377 . S
C2601 C2607 1.390 . S
C2602 H2593 0.930 . S
C2602 C2600 1.384 . S
C2602 C2603 1.372 . S
C2603 C2602 1.372 . S
C2603 C2604 1.400 . S
C2603 C2608 1.490 . S
C2604 H2594 0.930 . S
C2604 C2603 1.400 . S
C2604 C2607 1.386 . S
H2605 C2621 0.930 . S
H2606 C2622 0.931 . S
C2607 H2595 0.929 . S
C2607 C2601 1.390 . S
C2607 C2604 1.386 . S
C2608 C2603 1.490 . S
C2608 C2610 1.395 . S
C2608 C2611 1.403 . S
H2609 C2615 0.930 . S
C2610 H2596 0.930 . S
C2610 C2608 1.395 . S
C2610 C2613 1.403 . S
C2611 C2608 1.403 . S
C2611 C2612 1.524 . S
C2611 C2615 1.400 . S
C2612 H2597 0.960 . S
C2612 H2598 0.960 . S
C2612 H2599 0.960 . S
C2612 C2611 1.524 . S
C2613 C2610 1.403 . S
C2613 C2614 1.392 . S
C2613 C2617 1.495 . S
C2614 C2613 1.392 . S
C2614 C2615 1.385 . S
C2614 C2616 1.478 . S
C2615 H2609 0.930 . S
C2615 C2611 1.400 . S
C2615 C2614 1.385 . S
C2616 C2614 1.478 . S
C2616 C2618 1.381 . S
C2616 C2622 1.383 . S
C2617 C2613 1.495 . S
C2617 H2623 0.959 . S
C2617 H2624 0.961 . S
C2617 H2625 0.960 . S
C2618 C2616 1.381 . S
C2618 C2619 1.394 . S
C2618 H2626 0.930 . S
C2619 C2618 1.394 . S
C2619 C2620 1.383 . S
C2619 H2627 0.929 . S
C2620 C2619 1.383 . S
C2620 C2621 1.377 . S
C2621 H2605 0.930 . S
C2621 C2620 1.377 . S
C2621 C2622 1.379 . S
C2622 H2606 0.931 . S
C2622 C2616 1.383 . S
C2622 C2621 1.379 . S
H2623 C2617 0.959 . S
H2624 C2617 0.961 . S
H2625 C2617 0.960 . S
H2626 C2618 0.930 . S
H2627 C2619 0.929 . S
H2628 C2636 0.929 . S
H2629 C2638 0.930 . S
H2630 C2640 0.930 . S
H2631 C2643 0.929 . S
H2632 C2646 0.930 . S
H2633 C2648 0.960 . S
H2634 C2648 0.960 . S
H2635 C2648 0.960 . S
C2636 H2628 0.929 . S
C2636 C2637 1.377 . S
C2636 C2638 1.384 . S
C2637 C2636 1.377 . S
C2637 C2643 1.390 . S
C2638 H2629 0.930 . S
C2638 C2636 1.384 . S
C2638 C2639 1.372 . S
C2639 C2638 1.372 . S
C2639 C2640 1.400 . S
C2639 C2644 1.490 . S
C2640 H2630 0.930 . S
C2640 C2639 1.400 . S
C2640 C2643 1.386 . S
H2641 C2657 0.930 . S
H2642 C2658 0.931 . S
C2643 H2631 0.929 . S
C2643 C2637 1.390 . S
C2643 C2640 1.386 . S
C2644 C2639 1.490 . S
C2644 C2646 1.395 . S
C2644 C2647 1.403 . S
H2645 C2651 0.930 . S
C2646 H2632 0.930 . S
C2646 C2644 1.395 . S
C2646 C2649 1.403 . S
C2647 C2644 1.403 . S
C2647 C2648 1.524 . S
C2647 C2651 1.400 . S
C2648 H2633 0.960 . S
C2648 H2634 0.960 . S
C2648 H2635 0.960 . S
C2648 C2647 1.524 . S
C2649 C2646 1.403 . S
C2649 C2650 1.392 . S
C2649 C2653 1.495 . S
C2650 C2649 1.392 . S
C2650 C2651 1.385 . S
C2650 C2652 1.478 . S
C2651 H2645 0.930 . S
C2651 C2647 1.400 . S
C2651 C2650 1.385 . S
C2652 C2650 1.478 . S
C2652 C2654 1.381 . S
C2652 C2658 1.383 . S
C2653 C2649 1.495 . S
C2653 H2659 0.959 . S
C2653 H2660 0.961 . S
C2653 H2661 0.960 . S
C2654 C2652 1.381 . S
C2654 C2655 1.394 1_556 S
C2654 H2662 0.930 . S
C2655 C2654 1.394 1_554 S
C2655 C2656 1.383 . S
C2655 H2663 0.929 . S
C2656 C2655 1.383 . S
C2656 C2657 1.377 1_554 S
C2657 H2641 0.930 . S
C2657 C2656 1.377 1_556 S
C2657 C2658 1.379 . S
C2658 H2642 0.931 . S
C2658 C2652 1.383 . S
C2658 C2657 1.379 . S
H2659 C2653 0.959 . S
H2660 C2653 0.961 . S
H2661 C2653 0.960 . S
H2662 C2654 0.930 . S
H2663 C2655 0.929 . S
H2664 C2672 0.929 . S
H2665 C2674 0.930 . S
H2666 C2676 0.930 . S
H2667 C2679 0.929 . S
H2668 C2682 0.930 . S
H2669 C2684 0.960 . S
H2670 C2684 0.960 . S
H2671 C2684 0.960 . S
C2672 H2664 0.929 . S
C2672 C2673 1.377 1_556 S
C2672 C2674 1.384 . S
C2673 C2672 1.377 1_554 S
C2673 C2679 1.390 . S
C2674 H2665 0.930 . S
C2674 C2672 1.384 . S
C2674 C2675 1.372 . S
C2675 C2674 1.372 . S
C2675 C2676 1.400 . S
C2675 C2680 1.490 . S
C2676 H2666 0.930 . S
C2676 C2675 1.400 . S
C2676 C2679 1.386 1_556 S
H2677 C2693 0.930 . S
H2678 C2694 0.931 . S
C2679 H2667 0.929 . S
C2679 C2673 1.390 . S
C2679 C2676 1.386 1_554 S
C2680 C2675 1.490 . S
C2680 C2682 1.395 . S
C2680 C2683 1.403 . S
H2681 C2687 0.930 . S
C2682 H2668 0.930 . S
C2682 C2680 1.395 . S
C2682 C2685 1.403 . S
C2683 C2680 1.403 . S
C2683 C2684 1.524 . S
C2683 C2687 1.400 . S
C2684 H2669 0.960 . S
C2684 H2670 0.960 . S
C2684 H2671 0.960 . S
C2684 C2683 1.524 . S
C2685 C2682 1.403 . S
C2685 C2686 1.392 . S
C2685 C2689 1.495 . S
C2686 C2685 1.392 . S
C2686 C2687 1.385 . S
C2686 C2688 1.478 . S
C2687 H2681 0.930 . S
C2687 C2683 1.400 . S
C2687 C2686 1.385 . S
C2688 C2686 1.478 . S
C2688 C2690 1.381 . S
C2688 C2694 1.383 . S
C2689 C2685 1.495 . S
C2689 H2695 0.959 . S
C2689 H2696 0.961 . S
C2689 H2697 0.960 . S
C2690 C2688 1.381 . S
C2690 C2691 1.394 . S
C2690 H2698 0.930 . S
C2691 C2690 1.394 . S
C2691 C2692 1.383 . S
C2691 H2699 0.929 . S
C2692 C2691 1.383 . S
C2692 C2693 1.377 . S
C2693 H2677 0.930 . S
C2693 C2692 1.377 . S
C2693 C2694 1.379 . S
C2694 H2678 0.931 . S
C2694 C2688 1.383 . S
C2694 C2693 1.379 . S
H2695 C2689 0.959 . S
H2696 C2689 0.961 . S
H2697 C2689 0.960 . S
H2698 C2690 0.930 . S
H2699 C2691 0.929 . S
H2700 C2708 0.929 . S
H2701 C2710 0.930 . S
H2702 C2712 0.930 . S
H2703 C2715 0.929 . S
H2704 C2718 0.930 . S
H2705 C2720 0.960 . S
H2706 C2720 0.960 . S
H2707 C2720 0.960 . S
C2708 H2700 0.929 . S
C2708 C2709 1.377 . S
C2708 C2710 1.384 . S
C2709 C2708 1.377 . S
C2709 C2715 1.390 . S
C2710 H2701 0.930 . S
C2710 C2708 1.384 . S
C2710 C2711 1.372 . S
C2711 C2710 1.372 . S
C2711 C2712 1.400 . S
C2711 C2716 1.490 . S
C2712 H2702 0.930 . S
C2712 C2711 1.400 . S
C2712 C2715 1.386 . S
H2713 C2729 0.930 . S
H2714 C2730 0.931 . S
C2715 H2703 0.929 . S
C2715 C2709 1.390 . S
C2715 C2712 1.386 . S
C2716 C2711 1.490 . S
C2716 C2718 1.395 . S
C2716 C2719 1.403 . S
H2717 C2723 0.930 . S
C2718 H2704 0.930 . S
C2718 C2716 1.395 . S
C2718 C2721 1.403 . S
C2719 C2716 1.403 . S
C2719 C2720 1.524 . S
C2719 C2723 1.400 . S
C2720 H2705 0.960 . S
C2720 H2706 0.960 . S
C2720 H2707 0.960 . S
C2720 C2719 1.524 . S
C2721 C2718 1.403 . S
C2721 C2722 1.392 . S
C2721 C2725 1.495 . S
C2722 C2721 1.392 . S
C2722 C2723 1.385 . S
C2722 C2724 1.478 . S
C2723 H2717 0.930 . S
C2723 C2719 1.400 . S
C2723 C2722 1.385 . S
C2724 C2722 1.478 . S
C2724 C2726 1.381 . S
C2724 C2730 1.383 . S
C2725 C2721 1.495 . S
C2725 H2731 0.959 . S
C2725 H2732 0.961 . S
C2725 H2733 0.960 . S
C2726 C2724 1.381 . S
C2726 C2727 1.394 . S
C2726 H2734 0.930 . S
C2727 C2726 1.394 . S
C2727 C2728 1.383 1_556 S
C2727 H2735 0.929 . S
C2728 C2727 1.383 1_554 S
C2728 C2729 1.377 . S
C2729 H2713 0.930 . S
C2729 C2728 1.377 . S
C2729 C2730 1.379 1_554 S
C2730 H2714 0.931 . S
C2730 C2724 1.383 . S
C2730 C2729 1.379 1_556 S
H2731 C2725 0.959 . S
H2732 C2725 0.961 . S
H2733 C2725 0.960 . S
H2734 C2726 0.930 . S
H2735 C2727 0.929 . S
H2736 C2744 0.929 . S
H2737 C2746 0.930 . S
H2738 C2748 0.930 . S
H2739 C2751 0.929 . S
H2740 C2754 0.930 . S
H2741 C2756 0.960 . S
H2742 C2756 0.960 . S
H2743 C2756 0.960 . S
C2744 H2736 0.929 . S
C2744 C2745 1.377 . S
C2744 C2746 1.384 . S
C2745 C2744 1.377 . S
C2745 C2751 1.390 . S
C2746 H2737 0.930 . S
C2746 C2744 1.384 . S
C2746 C2747 1.372 . S
C2747 C2746 1.372 . S
C2747 C2748 1.400 . S
C2747 C2752 1.490 . S
C2748 H2738 0.930 . S
C2748 C2747 1.400 . S
C2748 C2751 1.386 . S
H2749 C2765 0.930 . S
H2750 C2766 0.931 . S
C2751 H2739 0.929 . S
C2751 C2745 1.390 . S
C2751 C2748 1.386 . S
C2752 C2747 1.490 . S
C2752 C2754 1.395 . S
C2752 C2755 1.403 . S
H2753 C2759 0.930 . S
C2754 H2740 0.930 . S
C2754 C2752 1.395 . S
C2754 C2757 1.403 . S
C2755 C2752 1.403 . S
C2755 C2756 1.524 . S
C2755 C2759 1.400 . S
C2756 H2741 0.960 . S
C2756 H2742 0.960 . S
C2756 H2743 0.960 . S
C2756 C2755 1.524 . S
C2757 C2754 1.403 . S
C2757 C2758 1.392 . S
C2757 C2761 1.495 . S
C2758 C2757 1.392 . S
C2758 C2759 1.385 . S
C2758 C2760 1.478 . S
C2759 H2753 0.930 . S
C2759 C2755 1.400 . S
C2759 C2758 1.385 . S
C2760 C2758 1.478 . S
C2760 C2762 1.381 . S
C2760 C2766 1.383 . S
C2761 C2757 1.495 . S
C2761 H2767 0.959 . S
C2761 H2768 0.961 . S
C2761 H2769 0.960 . S
C2762 C2760 1.381 . S
C2762 C2763 1.394 . S
C2762 H2770 0.930 . S
C2763 C2762 1.394 . S
C2763 C2764 1.383 . S
C2763 H2771 0.929 . S
C2764 C2763 1.383 . S
C2764 C2765 1.377 . S
C2765 H2749 0.930 . S
C2765 C2764 1.377 . S
C2765 C2766 1.379 . S
C2766 H2750 0.931 . S
C2766 C2760 1.383 . S
C2766 C2765 1.379 . S
H2767 C2761 0.959 . S
H2768 C2761 0.961 . S
H2769 C2761 0.960 . S
H2770 C2762 0.930 . S
H2771 C2763 0.929 . S
H2772 C2780 0.929 . S
H2773 C2782 0.930 . S
H2774 C2784 0.930 . S
H2775 C2787 0.929 . S
H2776 C2790 0.930 . S
H2777 C2792 0.960 . S
H2778 C2792 0.960 . S
H2779 C2792 0.960 . S
C2780 H2772 0.929 . S
C2780 C2781 1.377 . S
C2780 C2782 1.384 . S
C2781 C2780 1.377 . S
C2781 C2787 1.390 . S
C2782 H2773 0.930 . S
C2782 C2780 1.384 . S
C2782 C2783 1.372 . S
C2783 C2782 1.372 . S
C2783 C2784 1.400 . S
C2783 C2788 1.490 . S
C2784 H2774 0.930 . S
C2784 C2783 1.400 . S
C2784 C2787 1.386 . S
H2785 C2801 0.930 . S
H2786 C2802 0.931 . S
C2787 H2775 0.929 . S
C2787 C2781 1.390 . S
C2787 C2784 1.386 . S
C2788 C2783 1.490 . S
C2788 C2790 1.395 . S
C2788 C2791 1.403 . S
H2789 C2795 0.930 . S
C2790 H2776 0.930 . S
C2790 C2788 1.395 . S
C2790 C2793 1.403 . S
C2791 C2788 1.403 . S
C2791 C2792 1.524 . S
C2791 C2795 1.400 . S
C2792 H2777 0.960 . S
C2792 H2778 0.960 . S
C2792 H2779 0.960 . S
C2792 C2791 1.524 . S
C2793 C2790 1.403 . S
C2793 C2794 1.392 . S
C2793 C2797 1.495 . S
C2794 C2793 1.392 . S
C2794 C2795 1.385 . S
C2794 C2796 1.478 . S
C2795 H2789 0.930 . S
C2795 C2791 1.400 . S
C2795 C2794 1.385 . S
C2796 C2794 1.478 . S
C2796 C2798 1.381 . S
C2796 C2802 1.383 . S
C2797 C2793 1.495 . S
C2797 H2803 0.959 . S
C2797 H2804 0.961 . S
C2797 H2805 0.960 . S
C2798 C2796 1.381 . S
C2798 C2799 1.394 . S
C2798 H2806 0.930 . S
C2799 C2798 1.394 . S
C2799 C2800 1.383 . S
C2799 H2807 0.929 . S
C2800 C2799 1.383 . S
C2800 C2801 1.377 . S
C2801 H2785 0.930 . S
C2801 C2800 1.377 . S
C2801 C2802 1.379 . S
C2802 H2786 0.931 . S
C2802 C2796 1.383 . S
C2802 C2801 1.379 . S
H2803 C2797 0.959 . S
H2804 C2797 0.961 . S
H2805 C2797 0.960 . S
H2806 C2798 0.930 . S
H2807 C2799 0.929 . S
H2808 C2816 0.929 . S
H2809 C2818 0.930 . S
H2810 C2820 0.930 . S
H2811 C2823 0.929 . S
H2812 C2826 0.930 . S
H2813 C2828 0.960 . S
H2814 C2828 0.960 . S
H2815 C2828 0.960 . S
C2816 H2808 0.929 . S
C2816 C2817 1.377 . S
C2816 C2818 1.384 . S
C2817 C2816 1.377 . S
C2817 C2823 1.390 . S
C2818 H2809 0.930 . S
C2818 C2816 1.384 . S
C2818 C2819 1.372 . S
C2819 C2818 1.372 . S
C2819 C2820 1.400 . S
C2819 C2824 1.490 . S
C2820 H2810 0.930 . S
C2820 C2819 1.400 . S
C2820 C2823 1.386 . S
H2821 C2837 0.930 . S
H2822 C2838 0.931 . S
C2823 H2811 0.929 . S
C2823 C2817 1.390 . S
C2823 C2820 1.386 . S
C2824 C2819 1.490 . S
C2824 C2826 1.395 . S
C2824 C2827 1.403 . S
H2825 C2831 0.930 . S
C2826 H2812 0.930 . S
C2826 C2824 1.395 . S
C2826 C2829 1.403 . S
C2827 C2824 1.403 . S
C2827 C2828 1.524 . S
C2827 C2831 1.400 . S
C2828 H2813 0.960 . S
C2828 H2814 0.960 . S
C2828 H2815 0.960 . S
C2828 C2827 1.524 . S
C2829 C2826 1.403 . S
C2829 C2830 1.392 . S
C2829 C2833 1.495 . S
C2830 C2829 1.392 . S
C2830 C2831 1.385 . S
C2830 C2832 1.478 . S
C2831 H2825 0.930 . S
C2831 C2827 1.400 . S
C2831 C2830 1.385 . S
C2832 C2830 1.478 . S
C2832 C2834 1.381 . S
C2832 C2838 1.383 . S
C2833 C2829 1.495 . S
C2833 H2839 0.959 . S
C2833 H2840 0.961 . S
C2833 H2841 0.960 . S
C2834 C2832 1.381 . S
C2834 C2835 1.394 . S
C2834 H2842 0.930 . S
C2835 C2834 1.394 . S
C2835 C2836 1.383 . S
C2835 H2843 0.929 . S
C2836 C2835 1.383 . S
C2836 C2837 1.377 . S
C2837 H2821 0.930 . S
C2837 C2836 1.377 . S
C2837 C2838 1.379 . S
C2838 H2822 0.931 . S
C2838 C2832 1.383 . S
C2838 C2837 1.379 . S
H2839 C2833 0.959 . S
H2840 C2833 0.961 . S
H2841 C2833 0.960 . S
H2842 C2834 0.930 . S
H2843 C2835 0.929 . S
H2844 C2852 0.929 . S
H2845 C2854 0.930 . S
H2846 C2856 0.930 . S
H2847 C2859 0.929 . S
H2848 C2862 0.930 . S
H2849 C2864 0.960 . S
H2850 C2864 0.960 . S
H2851 C2864 0.960 . S
C2852 H2844 0.929 . S
C2852 C2853 1.377 . S
C2852 C2854 1.384 . S
C2853 C2852 1.377 . S
C2853 C2859 1.390 . S
C2854 H2845 0.930 . S
C2854 C2852 1.384 . S
C2854 C2855 1.372 . S
C2855 C2854 1.372 . S
C2855 C2856 1.400 . S
C2855 C2860 1.490 . S
C2856 H2846 0.930 . S
C2856 C2855 1.400 . S
C2856 C2859 1.386 . S
H2857 C2873 0.930 . S
H2858 C2874 0.931 . S
C2859 H2847 0.929 . S
C2859 C2853 1.390 . S
C2859 C2856 1.386 . S
C2860 C2855 1.490 . S
C2860 C2862 1.395 . S
C2860 C2863 1.403 . S
H2861 C2867 0.930 . S
C2862 H2848 0.930 . S
C2862 C2860 1.395 . S
C2862 C2865 1.403 . S
C2863 C2860 1.403 . S
C2863 C2864 1.524 . S
C2863 C2867 1.400 . S
C2864 H2849 0.960 . S
C2864 H2850 0.960 . S
C2864 H2851 0.960 . S
C2864 C2863 1.524 . S
C2865 C2862 1.403 . S
C2865 C2866 1.392 . S
C2865 C2869 1.495 . S
C2866 C2865 1.392 . S
C2866 C2867 1.385 . S
C2866 C2868 1.478 . S
C2867 H2861 0.930 . S
C2867 C2863 1.400 . S
C2867 C2866 1.385 . S
C2868 C2866 1.478 . S
C2868 C2870 1.381 . S
C2868 C2874 1.383 . S
C2869 C2865 1.495 . S
C2869 H2875 0.959 . S
C2869 H2876 0.961 . S
C2869 H2877 0.960 . S
C2870 C2868 1.381 . S
C2870 C2871 1.394 . S
C2870 H2878 0.930 . S
C2871 C2870 1.394 . S
C2871 C2872 1.383 . S
C2871 H2879 0.929 . S
C2872 C2871 1.383 . S
C2872 C2873 1.377 . S
C2873 H2857 0.930 . S
C2873 C2872 1.377 . S
C2873 C2874 1.379 . S
C2874 H2858 0.931 . S
C2874 C2868 1.383 . S
C2874 C2873 1.379 . S
H2875 C2869 0.959 . S
H2876 C2869 0.961 . S
H2877 C2869 0.960 . S
H2878 C2870 0.930 . S
H2879 C2871 0.929 . S
H2880 C2888 0.929 . S
H2881 C2890 0.930 . S
H2882 C2892 0.930 . S
H2883 C2895 0.929 . S
H2884 C2898 0.930 . S
H2885 C2900 0.960 . S
H2886 C2900 0.960 . S
H2887 C2900 0.960 1_545 S
C2888 H2880 0.929 . S
C2888 C2889 1.377 . S
C2888 C2890 1.384 . S
C2889 C2888 1.377 . S
C2889 C2895 1.390 . S
C2890 H2881 0.930 . S
C2890 C2888 1.384 . S
C2890 C2891 1.372 . S
C2891 C2890 1.372 . S
C2891 C2892 1.400 . S
C2891 C2896 1.490 . S
C2892 H2882 0.930 . S
C2892 C2891 1.400 . S
C2892 C2895 1.386 . S
H2893 C2909 0.930 . S
H2894 C2910 0.931 . S
C2895 H2883 0.929 . S
C2895 C2889 1.390 . S
C2895 C2892 1.386 . S
C2896 C2891 1.490 . S
C2896 C2898 1.395 . S
C2896 C2899 1.403 1_545 S
H2897 C2903 0.930 . S
C2898 H2884 0.930 . S
C2898 C2896 1.395 . S
C2898 C2901 1.403 . S
C2899 C2896 1.403 1_565 S
C2899 C2900 1.524 . S
C2899 C2903 1.400 . S
C2900 H2885 0.960 . S
C2900 H2886 0.960 . S
C2900 H2887 0.960 1_565 S
C2900 C2899 1.524 . S
C2901 C2898 1.403 . S
C2901 C2902 1.392 1_545 S
C2901 C2905 1.495 . S
C2902 C2901 1.392 1_565 S
C2902 C2903 1.385 . S
C2902 C2904 1.478 . S
C2903 H2897 0.930 . S
C2903 C2899 1.400 . S
C2903 C2902 1.385 . S
C2904 C2902 1.478 . S
C2904 C2906 1.381 . S
C2904 C2910 1.383 . S
C2905 C2901 1.495 . S
C2905 H2911 0.959 . S
C2905 H2912 0.961 . S
C2905 H2913 0.960 1_545 S
C2906 C2904 1.381 . S
C2906 C2907 1.394 . S
C2906 H2914 0.930 . S
C2907 C2906 1.394 . S
C2907 C2908 1.383 . S
C2907 H2915 0.929 . S
C2908 C2907 1.383 . S
C2908 C2909 1.377 . S
C2909 H2893 0.930 . S
C2909 C2908 1.377 . S
C2909 C2910 1.379 . S
C2910 H2894 0.931 . S
C2910 C2904 1.383 . S
C2910 C2909 1.379 . S
H2911 C2905 0.959 . S
H2912 C2905 0.961 . S
H2913 C2905 0.960 1_565 S
H2914 C2906 0.930 . S
H2915 C2907 0.929 . S
H2916 C2924 0.929 . S
H2917 C2926 0.930 . S
H2918 C2928 0.930 . S
H2919 C2931 0.929 . S
H2920 C2934 0.930 . S
H2921 C2936 0.960 . S
H2922 C2936 0.960 . S
H2923 C2936 0.960 1_655 S
C2924 H2916 0.929 . S
C2924 C2925 1.377 . S
C2924 C2926 1.384 . S
C2925 C2924 1.377 . S
C2925 C2931 1.390 . S
C2926 H2917 0.930 . S
C2926 C2924 1.384 . S
C2926 C2927 1.372 . S
C2927 C2926 1.372 . S
C2927 C2928 1.400 . S
C2927 C2932 1.490 . S
C2928 H2918 0.930 . S
C2928 C2927 1.400 . S
C2928 C2931 1.386 . S
H2929 C2945 0.930 . S
H2930 C2946 0.931 . S
C2931 H2919 0.929 . S
C2931 C2925 1.390 . S
C2931 C2928 1.386 . S
C2932 C2927 1.490 . S
C2932 C2934 1.395 . S
C2932 C2935 1.347 1_655 S
H2933 C2939 0.930 . S
C2934 H2920 0.930 . S
C2934 C2932 1.395 . S
C2934 C2937 1.435 . S
C2935 C2932 1.347 1_455 S
C2935 C2936 1.554 . S
C2935 C2939 1.429 . S
C2936 H2921 0.960 . S
C2936 H2922 0.960 . S
C2936 H2923 0.960 1_455 S
C2936 C2935 1.554 . S
C2937 C2934 1.435 . S
C2937 C2938 1.332 1_655 S
C2937 C2941 1.527 . S
C2938 C2937 1.332 1_455 S
C2938 C2939 1.385 . S
C2938 C2940 1.478 . S
C2939 H2933 0.930 . S
C2939 C2935 1.429 . S
C2939 C2938 1.385 . S
C2940 C2938 1.478 . S
C2940 C2942 1.381 . S
C2940 C2946 1.383 . S
C2941 C2937 1.527 . S
C2941 H2947 0.959 . S
C2941 H2948 0.961 . S
C2941 H2949 0.960 1_655 S
C2942 C2940 1.381 . S
C2942 C2943 1.394 . S
C2942 H2950 0.930 . S
C2943 C2942 1.394 . S
C2943 C2944 1.383 . S
C2943 H2951 0.929 . S
C2944 C2943 1.383 . S
C2944 C2945 1.377 . S
C2945 H2929 0.930 . S
C2945 C2944 1.377 . S
C2945 C2946 1.379 . S
C2946 H2930 0.931 . S
C2946 C2940 1.383 . S
C2946 C2945 1.379 . S
H2947 C2941 0.959 . S
H2948 C2941 0.961 . S
H2949 C2941 0.960 1_455 S
H2950 C2942 0.930 . S
H2951 C2943 0.929 . S
H2952 C2960 0.929 . S
H2953 C2962 0.930 . S
H2954 C2964 0.930 . S
H2955 C2967 0.929 . S
H2956 C2970 0.930 . S
H2957 C2972 0.960 . S
H2958 C2972 0.960 . S
H2959 C2972 0.960 . S
C2960 H2952 0.929 . S
C2960 C2961 1.377 . S
C2960 C2962 1.384 . S
C2961 C2960 1.377 . S
C2961 C2967 1.390 . S
C2962 H2953 0.930 . S
C2962 C2960 1.384 . S
C2962 C2963 1.372 . S
C2963 C2962 1.372 . S
C2963 C2964 1.400 . S
C2963 C2968 1.490 . S
C2964 H2954 0.930 . S
C2964 C2963 1.400 . S
C2964 C2967 1.386 . S
H2965 C2981 0.930 . S
H2966 C2982 0.931 . S
C2967 H2955 0.929 . S
C2967 C2961 1.390 . S
C2967 C2964 1.386 . S
C2968 C2963 1.490 . S
C2968 C2970 1.395 . S
C2968 C2971 1.403 . S
H2969 C2975 0.930 . S
C2970 H2956 0.930 . S
C2970 C2968 1.395 . S
C2970 C2973 1.403 . S
C2971 C2968 1.403 . S
C2971 C2972 1.524 . S
C2971 C2975 1.400 . S
C2972 H2957 0.960 . S
C2972 H2958 0.960 . S
C2972 H2959 0.960 . S
C2972 C2971 1.524 . S
C2973 C2970 1.403 . S
C2973 C2974 1.392 . S
C2973 C2977 1.495 . S
C2974 C2973 1.392 . S
C2974 C2975 1.385 . S
C2974 C2976 1.478 . S
C2975 H2969 0.930 . S
C2975 C2971 1.400 . S
C2975 C2974 1.385 . S
C2976 C2974 1.478 . S
C2976 C2978 1.381 . S
C2976 C2982 1.383 . S
C2977 C2973 1.495 . S
C2977 H2983 0.959 . S
C2977 H2984 0.961 . S
C2977 H2985 0.960 . S
C2978 C2976 1.381 . S
C2978 C2979 1.394 . S
C2978 H2986 0.930 . S
C2979 C2978 1.394 . S
C2979 C2980 1.383 . S
C2979 H2987 0.929 . S
C2980 C2979 1.383 . S
C2980 C2981 1.377 . S
C2981 H2965 0.930 . S
C2981 C2980 1.377 . S
C2981 C2982 1.379 . S
C2982 H2966 0.931 . S
C2982 C2976 1.383 . S
C2982 C2981 1.379 . S
H2983 C2977 0.959 . S
H2984 C2977 0.961 . S
H2985 C2977 0.960 . S
H2986 C2978 0.930 . S
H2987 C2979 0.929 . S
H2988 C2996 0.929 . S
H2989 C2998 0.930 . S
H2990 C3000 0.930 . S
H2991 C3003 0.929 . S
H2992 C3006 0.930 . S
H2993 C3008 0.960 1_565 S
H2994 C3008 0.960 . S
H2995 C3008 0.957 1_565 S
C2996 H2988 0.929 . S
C2996 C2997 1.377 . S
C2996 C2998 1.384 . S
C2997 C2996 1.377 . S
C2997 C3003 1.390 . S
C2998 H2989 0.930 . S
C2998 C2996 1.384 . S
C2998 C2999 1.372 . S
C2999 C2998 1.372 . S
C2999 C3000 1.400 . S
C2999 C3004 1.490 . S
C3000 H2990 0.930 . S
C3000 C2999 1.400 . S
C3000 C3003 1.386 . S
H3001 C3017 0.930 . S
H3002 C3018 0.931 . S
C3003 H2991 0.929 . S
C3003 C2997 1.390 . S
C3003 C3000 1.386 . S
C3004 C2999 1.490 . S
C3004 C3006 1.395 . S
C3004 C3007 1.403 . S
H3005 C3011 0.930 . S
C3006 H2992 0.930 . S
C3006 C3004 1.395 . S
C3006 C3009 1.419 . S
C3007 C3004 1.403 . S
C3007 C3008 1.524 . S
C3007 C3011 1.400 1_545 S
C3008 H2993 0.960 1_545 S
C3008 H2994 0.960 . S
C3008 H2995 0.957 1_545 S
C3008 C3007 1.524 . S
C3009 C3006 1.419 . S
C3009 C3010 1.364 1_545 S
C3009 C3013 1.506 . S
C3010 C3009 1.364 1_565 S
C3010 C3011 1.385 . S
C3010 C3012 1.478 . S
C3011 H3005 0.930 . S
C3011 C3007 1.400 1_565 S
C3011 C3010 1.385 . S
C3012 C3010 1.478 . S
C3012 C3014 1.381 . S
C3012 C3018 1.383 . S
C3013 C3009 1.506 . S
C3013 H3019 0.966 . S
C3013 H3020 0.957 1_545 S
C3013 H3021 0.960 . S
C3014 C3012 1.381 . S
C3014 C3015 1.394 . S
C3014 H3022 0.930 . S
C3015 C3014 1.394 . S
C3015 C3016 1.383 . S
C3015 H3023 0.929 . S
C3016 C3015 1.383 . S
C3016 C3017 1.377 . S
C3017 H3001 0.930 . S
C3017 C3016 1.377 . S
C3017 C3018 1.379 . S
C3018 H3002 0.931 . S
C3018 C3012 1.383 . S
C3018 C3017 1.379 . S
H3019 C3013 0.966 . S
H3020 C3013 0.957 1_565 S
H3021 C3013 0.960 . S
H3022 C3014 0.930 . S
H3023 C3015 0.929 . S
H3024 C3032 0.929 . S
H3025 C3034 0.930 . S
H3026 C3036 0.930 . S
H3027 C3039 0.929 . S
H3028 C3042 0.960 . S
H3029 C3044 0.960 . S
H3030 C3044 0.960 . S
H3031 C3044 0.960 . S
C3032 H3024 0.929 . S
C3032 C3033 1.377 . S
C3032 C3034 1.384 . S
C3033 C3032 1.377 . S
C3033 C3039 1.390 . S
C3034 H3025 0.930 . S
C3034 C3032 1.384 . S
C3034 C3035 1.372 . S
C3035 C3034 1.372 . S
C3035 C3036 1.400 . S
C3035 C3040 1.490 . S
C3036 H3026 0.930 . S
C3036 C3035 1.400 . S
C3036 C3039 1.386 . S
H3037 C3053 0.930 . S
H3038 C3054 0.931 . S
C3039 H3027 0.929 . S
C3039 C3033 1.390 . S
C3039 C3036 1.386 . S
C3040 C3035 1.490 . S
C3040 C3042 1.387 . S
C3040 C3043 1.403 . S
H3041 C3047 0.930 . S
C3042 H3028 0.960 . S
C3042 C3040 1.387 . S
C3042 C3045 1.409 1_455 S
C3043 C3040 1.403 . S
C3043 C3044 1.524 . S
C3043 C3047 1.400 1_455 S
C3044 H3029 0.960 . S
C3044 H3030 0.960 . S
C3044 H3031 0.960 . S
C3044 C3043 1.524 . S
C3045 C3042 1.409 1_655 S
C3045 C3046 1.392 . S
C3045 C3049 1.495 . S
C3046 C3045 1.392 . S
C3046 C3047 1.385 . S
C3046 C3048 1.478 . S
C3047 H3041 0.930 . S
C3047 C3043 1.400 1_655 S
C3047 C3046 1.385 . S
C3048 C3046 1.478 . S
C3048 C3050 1.381 . S
C3048 C3054 1.383 . S
C3049 C3045 1.495 . S
C3049 H3055 0.959 . S
C3049 H3056 0.961 . S
C3049 H3057 0.960 . S
C3050 C3048 1.381 . S
C3050 C3051 1.394 . S
C3050 H3058 0.930 . S
C3051 C3050 1.394 . S
C3051 C3052 1.383 . S
C3051 H3059 0.929 . S
C3052 C3051 1.383 . S
C3052 C3053 1.377 . S
C3053 H3037 0.930 . S
C3053 C3052 1.377 . S
C3053 C3054 1.379 . S
C3054 H3038 0.931 . S
C3054 C3048 1.383 . S
C3054 C3053 1.379 . S
H3055 C3049 0.959 . S
H3056 C3049 0.961 . S
H3057 C3049 0.960 . S
H3058 C3050 0.930 . S
H3059 C3051 0.929 . S
C477 C70 0.999 . S
C496 C5 1.009 . S
C513 C44 1.000 . S
C532 C18 0.986 . S
C549 C29 1.002 . S
C568 C57 1.003 . S
C585 C83 1.002 . S
C604 C146 1.010 . S
C621 C94 0.997 . S
C640 C120 0.986 . S
C657 C135 1.002 . S
C676 C109 1.001 . S
C693 C159 1.002 . S
C712 C224 1.000 . S
C729 C172 1.002 . S
C748 C200 1.007 . S
C765 C213 1.002 . S
C784 C187 0.997 . S
C801 C304 0.997 . S
C820 C237 0.986 . S
C837 C278 1.001 . S
C856 C252 1.000 . S
C873 C263 0.998 . S
C892 C289 0.986 . S
C909 C382 0.998 . S
C928 C315 0.990 . S
C945 C356 0.998 . S
C964 C328 1.008 . S
C981 C341 1.002 . S
C1000 C367 0.994 . S
C1017 C460 1.001 . S
C1036 C393 1.009 . S
C1053 C434 1.000 . S
C1072 C406 0.991 . S
C1089 C447 0.997 . S
C1108 C419 0.986 . S
C1125 C218 1.306 . S
C1144 C10 1.330 . S
C1161 C225 1.294 . S
C1180 C23 1.266 . S
C1197 C205 1.293 . S
C1216 C30 1.266 . S
C1233 C49 1.296 . S
C1252 C342 1.286 . S
C1269 C62 1.293 . S
C1288 C316 1.264 . S
C1305 C75 1.304 . S
C1324 C329 1.321 . S
C1341 C88 1.292 . S
C1360 C452 1.316 . S
C1377 C465 1.299 . S
C1396 C95 1.266 . S
C1413 C439 1.305 . S
C1432 C114 1.305 . S
C1449 C264 1.294 . S
C1468 C121 1.328 . S
C1485 C238 1.306 . S
C1504 C140 1.272 . S
C1521 C147 1.296 . S
C1540 C257 1.331 . S
C1557 C160 1.293 . S
C1576 C368 1.268 . S
C1593 C387 1.305 . S
C1612 C173 1.327 . S
C1629 C361 1.301 . S
C1648 C192 1.311 . S
C1665 C283 1.303 . S
C1684 C420 1.316 . S
C1701 C394 1.294 . S
C1720 C290 1.327 . S
C1737 C309 1.302 . S
C1756 C407 1.322 . S
C1773 C244 1.689 . S
C1792 C4 1.679 . S
C1809 C251 1.692 . S
C1828 C17 1.688 . S
C1845 C36 1.692 . S
C1864 C270 1.689 . S
C1881 C43 1.689 . S
C1900 C433 1.680 . S
C1917 C446 1.689 . S
C1936 C56 1.685 . S
C1953 C459 1.692 . S
C1972 C69 1.691 . S
C1989 C82 1.692 . S
C2008 C322 1.690 . S
C2025 C101 1.692 . S
C2044 C335 1.686 . S
C2061 C348 1.689 . S
C2080 C108 1.680 . S
C2097 C127 1.689 . S
C2116 C199 1.679 . S
C2133 C134 1.692 . S
C2152 C212 1.686 . S
C2169 C231 1.689 . S
C2188 C153 1.689 . S
C2205 C166 1.692 . S
C2224 C400 1.688 . S
C2241 C179 1.689 . S
C2260 C413 1.679 . S
C2277 C426 1.689 . S
C2296 C186 1.680 . S
C2313 C355 1.690 . S
C2332 C277 1.694 . S
C2349 C296 1.688 . S
C2368 C374 1.681 . S
C2385 C303 1.689 . S
C2404 C381 1.690 . S
C2421 C354 1.588 . S
C2440 C3 1.602 . S
C2457 C16 1.591 . S
C2476 C369 1.590 . S
C2493 C380 1.586 . S
C2512 C31 1.598 . S
C2529 C42 1.589 . S
C2548 C161 1.579 . S
C2565 C174 1.593 . S
C2584 C55 1.567 . S
C2601 C185 1.594 . S
C2620 C68 1.569 . S
C2637 C81 1.593 . S
C2656 C276 1.578 . S
C2673 C291 1.589 . S
C2692 C96 1.568 . S
C2709 C107 1.586 . S
C2728 C302 1.593 . S
C2745 C122 1.590 . S
C2764 C395 1.605 . S
C2781 C133 1.593 . S
C2800 C408 1.597 . S
C2817 C421 1.588 . S
C2836 C148 1.570 . S
C2853 C198 1.587 . S
C2872 C317 1.605 . S
C2889 C211 1.590 . S
C2908 C330 1.574 . S
C2925 C226 1.591 . S
C2944 C343 1.573 . S
C2961 C239 1.593 . S
C2980 C432 1.581 . S
C2997 C250 1.592 . S
C3016 C445 1.570 . S
C3033 C458 1.588 . S
C3052 C265 1.603 . S
