# Generated by pormake.
# Topology uou, (4)-cn, num edge types: 1
# Building blocks:
#     Node 0, Type 0, BuildingBlock: QUQFOY_clean_sbu_3, # of connection points: 4
#     Node 1, Type 0, BuildingBlock: QUQFOY_clean_sbu_3, # of connection points: 4
#     Node 2, Type 0, BuildingBlock: QUQFOY_clean_sbu_3, # of connection points: 4
#     Node 3, Type 0, BuildingBlock: QUQFOY_clean_sbu_3, # of connection points: 4
#     Node 4, Type 0, BuildingBlock: QUQFOY_clean_sbu_3, # of connection points: 4
#     Node 5, Type 0, BuildingBlock: QUQFOY_clean_sbu_3, # of connection points: 4
#     Node 6, Type 0, BuildingBlock: QUQFOY_clean_sbu_3, # of connection points: 4
#     Node 7, Type 0, BuildingBlock: QUQFOY_clean_sbu_3, # of connection points: 4
#     Node 8, Type 0, BuildingBlock: QUQFOY_clean_sbu_3, # of connection points: 4
#     Node 9, Type 0, BuildingBlock: QUQFOY_clean_sbu_3, # of connection points: 4
#     Node 10, Type 0, BuildingBlock: QUQFOY_clean_sbu_3, # of connection points: 4
#     Node 11, Type 0, BuildingBlock: QUQFOY_clean_sbu_3, # of connection points: 4
#     Node 12, Type 0, BuildingBlock: QUQFOY_clean_sbu_3, # of connection points: 4
#     Node 13, Type 0, BuildingBlock: QUQFOY_clean_sbu_3, # of connection points: 4
#     Node 14, Type 0, BuildingBlock: QUQFOY_clean_sbu_3, # of connection points: 4
#     Node 15, Type 0, BuildingBlock: QUQFOY_clean_sbu_3, # of connection points: 4
#     Edge 16, Type (0, 0), BuildingBlock: AJUNOK_clean_linker_0, # of connection points: 2
#     Edge 17, Type (0, 0), BuildingBlock: AJUNOK_clean_linker_0, # of connection points: 2
#     Edge 18, Type (0, 0), BuildingBlock: AJUNOK_clean_linker_0, # of connection points: 2
#     Edge 19, Type (0, 0), BuildingBlock: AJUNOK_clean_linker_0, # of connection points: 2
#     Edge 20, Type (0, 0), BuildingBlock: AJUNOK_clean_linker_0, # of connection points: 2
#     Edge 21, Type (0, 0), BuildingBlock: AJUNOK_clean_linker_0, # of connection points: 2
#     Edge 22, Type (0, 0), BuildingBlock: AJUNOK_clean_linker_0, # of connection points: 2
#     Edge 23, Type (0, 0), BuildingBlock: AJUNOK_clean_linker_0, # of connection points: 2
#     Edge 24, Type (0, 0), BuildingBlock: AJUNOK_clean_linker_0, # of connection points: 2
#     Edge 25, Type (0, 0), BuildingBlock: AJUNOK_clean_linker_0, # of connection points: 2
#     Edge 26, Type (0, 0), BuildingBlock: AJUNOK_clean_linker_0, # of connection points: 2
#     Edge 27, Type (0, 0), BuildingBlock: AJUNOK_clean_linker_0, # of connection points: 2
#     Edge 28, Type (0, 0), BuildingBlock: AJUNOK_clean_linker_0, # of connection points: 2
#     Edge 29, Type (0, 0), BuildingBlock: AJUNOK_clean_linker_0, # of connection points: 2
#     Edge 30, Type (0, 0), BuildingBlock: AJUNOK_clean_linker_0, # of connection points: 2
#     Edge 31, Type (0, 0), BuildingBlock: AJUNOK_clean_linker_0, # of connection points: 2
#     Edge 32, Type (0, 0), BuildingBlock: AJUNOK_clean_linker_0, # of connection points: 2
#     Edge 33, Type (0, 0), BuildingBlock: AJUNOK_clean_linker_0, # of connection points: 2
#     Edge 34, Type (0, 0), BuildingBlock: AJUNOK_clean_linker_0, # of connection points: 2
#     Edge 35, Type (0, 0), BuildingBlock: AJUNOK_clean_linker_0, # of connection points: 2
#     Edge 36, Type (0, 0), BuildingBlock: AJUNOK_clean_linker_0, # of connection points: 2
#     Edge 37, Type (0, 0), BuildingBlock: AJUNOK_clean_linker_0, # of connection points: 2
#     Edge 38, Type (0, 0), BuildingBlock: AJUNOK_clean_linker_0, # of connection points: 2
#     Edge 39, Type (0, 0), BuildingBlock: AJUNOK_clean_linker_0, # of connection points: 2
#     Edge 40, Type (0, 0), BuildingBlock: AJUNOK_clean_linker_0, # of connection points: 2
#     Edge 41, Type (0, 0), BuildingBlock: AJUNOK_clean_linker_0, # of connection points: 2
#     Edge 42, Type (0, 0), BuildingBlock: AJUNOK_clean_linker_0, # of connection points: 2
#     Edge 43, Type (0, 0), BuildingBlock: AJUNOK_clean_linker_0, # of connection points: 2
#     Edge 44, Type (0, 0), BuildingBlock: AJUNOK_clean_linker_0, # of connection points: 2
#     Edge 45, Type (0, 0), BuildingBlock: AJUNOK_clean_linker_0, # of connection points: 2
#     Edge 46, Type (0, 0), BuildingBlock: AJUNOK_clean_linker_0, # of connection points: 2
#     Edge 47, Type (0, 0), BuildingBlock: AJUNOK_clean_linker_0, # of connection points: 2
# Relax obj value: 0.038
# Max RMSD: 0.066
# Mean RMSD: 0.066
data_MOF--net-uou--node1-QUQFOY_clean_sbu_3--edge1-AJUNOK_clean_linker_0
_symmetry_space_group_name_H-M    P1
_symmetry_Int_Tables_number       1
_symmetry_cell_setting            triclinic
loop_
_symmetry_equiv_pos_as_xyz
'x, y, z'
_cell_length_a     29.901597
_cell_length_b     29.723644
_cell_length_c     41.796686
_cell_angle_alpha  90.02345
_cell_angle_beta   90.035227
_cell_angle_gamma 90.085862
loop_
_atom_site_label
_atom_site_type_symbol
_atom_site_fract_x
_atom_site_fract_y
_atom_site_fract_z
_atom_type_partial_charge
C0 C -0.00302 0.01141 0.15217 0.0
O1 O 0.96175 0.0148 0.13536 0.0
Cd2 Cd 0.9643 0.04256 0.08165 0.0
O3 O 0.03486 0.02225 0.14079 0.0
Cd4 Cd 0.07287 0.04734 0.09294 0.0
C5 C 0.01597 0.14547 0.09449 0.0
O6 O 0.02644 0.00431 0.0587 0.0
O7 O 0.07138 0.04983 0.03463 0.0
O8 O 0.12894 0.9916 0.1047 0.0
C9 C 0.04158 0.01953 0.03265 0.0
O10 O 0.9812 0.12292 0.08697 0.0
C11 C 0.16167 0.01875 0.10378 0.0
O12 O 0.05317 0.12592 0.09949 0.0
O13 O 0.15285 0.0598 0.0981 0.0
C14 C 0.50338 0.96752 0.15432 0.0
O15 O 0.53967 0.96555 0.13866 0.0
Cd16 Cd 0.5392 0.9327 0.08634 0.0
O17 O 0.46716 0.95319 0.14213 0.0
Cd18 Cd 0.4324 0.92277 0.09472 0.0
C19 C 0.49291 0.82798 0.10159 0.0
O20 O 0.47723 0.96776 0.06021 0.0
O21 O 0.43563 0.9184 0.03662 0.0
O22 O 0.37691 0.97796 0.10764 0.0
C23 C 0.46285 0.951 0.03435 0.0
O24 O 0.52664 0.85203 0.09416 0.0
C25 C 0.34346 0.95216 0.10452 0.0
O26 O 0.45434 0.84553 0.10468 0.0
O27 O 0.35143 0.91141 0.09716 0.0
C28 C 0.49464 0.98015 0.28996 0.0
O29 O 0.45695 0.98042 0.30394 0.0
Cd30 Cd 0.44915 0.95091 0.35694 0.0
O31 O 0.52913 0.96557 0.30423 0.0
Cd32 Cd 0.55619 0.93776 0.35485 0.0
C33 C 0.49313 0.84445 0.34633 0.0
O34 O 0.5087 0.98459 0.38665 0.0
O35 O 0.54591 0.93348 0.41209 0.0
O36 O 0.61734 0.98921 0.34725 0.0
C37 C 0.51953 0.96684 0.41306 0.0
O38 O 0.45928 0.86936 0.35163 0.0
C39 C 0.64791 0.96007 0.35061 0.0
O40 O 0.53227 0.86122 0.34498 0.0
O41 O 0.63561 0.91984 0.35604 0.0
C42 C 0.99133 0.01112 0.28874 0.0
O43 O 0.02776 0.01404 0.30422 0.0
Cd44 Cd 0.03136 0.04165 0.35782 0.0
O45 O 0.95446 0.0217 0.30179 0.0
Cd46 Cd 0.92344 0.0459 0.3525 0.0
C47 C 0.97938 0.14439 0.34767 0.0
O48 O 0.97313 0.00279 0.38502 0.0
O49 O 0.93212 0.05084 0.41013 0.0
O50 O 0.86579 0.99024 0.3447 0.0
C51 C 0.96095 0.01966 0.41136 0.0
O52 O 0.01469 0.12206 0.35391 0.0
C53 C 0.83339 0.01721 0.3484 0.0
O54 O 0.94194 0.12452 0.34426 0.0
O55 O 0.84308 0.05826 0.35348 0.0
C56 C 0.99249 0.99535 0.78712 0.0
O57 O 0.02919 0.99362 0.80234 0.0
Cd58 Cd 0.03432 0.96315 0.85535 0.0
O59 O 0.95644 0.98224 0.80016 0.0
Cd60 Cd 0.92726 0.95398 0.85011 0.0
C61 C 0.98714 0.85852 0.84299 0.0
O62 O 0.97501 0.99595 0.88549 0.0
O63 O 0.93568 0.94254 0.9066 0.0
O64 O 0.86704 0.00751 0.84623 0.0
C65 C 0.96276 0.97492 0.91039 0.0
O66 O 0.02148 0.88212 0.84976 0.0
C67 C 0.8361 0.9783 0.84715 0.0
O68 O 0.94888 0.87677 0.83988 0.0
O69 O 0.84786 0.93733 0.84916 0.0
C70 C 0.49852 0.02316 0.79178 0.0
O71 O 0.46104 0.02103 0.80598 0.0
Cd72 Cd 0.45346 0.04614 0.86016 0.0
O73 O 0.53295 0.03726 0.80641 0.0
Cd74 Cd 0.56034 0.06098 0.85795 0.0
C75 C 0.49659 0.15404 0.85419 0.0
O76 O 0.51364 0.01072 0.8878 0.0
O77 O 0.55097 0.05981 0.9152 0.0
O78 O 0.6187 0.00863 0.84626 0.0
C79 C 0.52497 0.02606 0.91487 0.0
O80 O 0.46333 0.1279 0.85854 0.0
C81 C 0.65086 0.03531 0.85173 0.0
O82 O 0.53603 0.1383 0.85165 0.0
O83 O 0.64085 0.07527 0.85997 0.0
C84 C 0.50365 0.02671 0.65504 0.0
O85 O 0.53921 0.02868 0.63853 0.0
Cd86 Cd 0.53643 0.05672 0.58468 0.0
O87 O 0.46646 0.03846 0.64307 0.0
Cd88 Cd 0.42983 0.06412 0.59523 0.0
C89 C 0.48865 0.16093 0.5974 0.0
O90 O 0.47431 0.01898 0.56027 0.0
O91 O 0.43048 0.06724 0.53755 0.0
O92 O 0.3729 0.00941 0.60734 0.0
C93 C 0.45801 0.03508 0.53474 0.0
O94 O 0.52278 0.1377 0.58973 0.0
C95 C 0.34067 0.03706 0.60671 0.0
O96 O 0.45097 0.14214 0.60215 0.0
O97 O 0.3501 0.07797 0.60093 0.0
C98 C -0.00591 0.98945 0.65109 0.0
O99 O 0.95874 0.98681 0.63434 0.0
Cd100 Cd 0.96124 0.95586 0.58129 0.0
O101 O 0.03126 0.9758 0.64017 0.0
Cd102 Cd 0.06919 0.94604 0.5939 0.0
C103 C 0.00759 0.85087 0.59594 0.0
O104 O 0.02578 0.98954 0.55784 0.0
O105 O 0.0702 0.94158 0.53582 0.0
O106 O 0.12504 0.00057 0.60784 0.0
C107 C 0.04131 0.97239 0.53249 0.0
O108 O 0.97428 0.87497 0.58766 0.0
C109 C 0.15787 0.97374 0.60653 0.0
O110 O 0.04556 0.86867 0.60152 0.0
O111 O 0.14924 0.93294 0.59965 0.0
C112 C 0.49266 0.49733 0.16195 0.0
O113 O 0.45807 0.50058 0.14445 0.0
Cd114 Cd 0.46166 0.52924 0.09093 0.0
O115 O 0.53081 0.50906 0.15151 0.0
Cd116 Cd 0.56972 0.5363 0.10461 0.0
C117 C 0.51022 0.63314 0.10525 0.0
O118 O 0.52567 0.49359 0.06851 0.0
O119 O 0.57037 0.54121 0.04639 0.0
O120 O 0.62844 0.48302 0.1158 0.0
C121 C 0.54113 0.51063 0.04311 0.0
O122 O 0.47626 0.61012 0.09661 0.0
C123 C 0.65957 0.51206 0.11619 0.0
O124 O 0.54737 0.61408 0.11127 0.0
O125 O 0.64855 0.55282 0.11159 0.0
C126 C 0.00814 0.47515 0.15654 0.0
O127 O 0.04362 0.47508 0.13989 0.0
Cd128 Cd 0.03979 0.44751 0.08577 0.0
O129 O 0.97152 0.46135 0.14475 0.0
Cd130 Cd 0.93417 0.43371 0.09787 0.0
C131 C -0.00204 0.34035 0.09755 0.0
O132 O 0.97488 0.48244 0.06277 0.0
O133 O 0.93192 0.43301 0.0403 0.0
O134 O 0.87667 0.48492 0.11444 0.0
C135 C 0.95789 0.46649 0.03739 0.0
O136 O 0.03052 0.36572 0.08965 0.0
C137 C 0.84474 0.45702 0.11227 0.0
O138 O 0.95957 0.35684 0.10341 0.0
O139 O 0.85466 0.41721 0.10369 0.0
C140 C -0.00362 0.47589 0.29258 0.0
O141 O 0.95768 0.47591 0.30508 0.0
Cd142 Cd 0.94566 0.44489 0.35733 0.0
O143 O 0.0297 0.46155 0.30826 0.0
Cd144 Cd 0.05198 0.43487 0.36026 0.0
C145 C -0.00647 0.33971 0.34868 0.0
O146 O 0.00033 0.47869 0.39134 0.0
O147 O 0.03626 0.42612 0.41629 0.0
O148 O 0.1087 0.49142 0.35618 0.0
C149 C 0.00931 0.45898 0.41745 0.0
O150 O 0.95877 0.36384 0.35254 0.0
C151 C 0.14157 0.46518 0.36016 0.0
O152 O 0.03234 0.35742 0.34879 0.0
O153 O 0.13271 0.42374 0.36449 0.0
C154 C 0.48346 0.50782 0.29749 0.0
O155 O 0.5196 0.51189 0.31317 0.0
Cd156 Cd 0.52262 0.54699 0.36461 0.0
O157 O 0.44672 0.52148 0.30921 0.0
Cd158 Cd 0.4162 0.55395 0.35773 0.0
C159 C 0.47438 0.64979 0.34774 0.0
O160 O 0.46321 0.51402 0.39447 0.0
O161 O 0.42398 0.56834 0.41426 0.0
O162 O 0.35673 0.49939 0.35415 0.0
C163 C 0.45038 0.53569 0.41889 0.0
O164 O 0.50874 0.62721 0.35591 0.0
C165 C 0.32529 0.5279 0.35566 0.0
O166 O 0.43655 0.63064 0.34458 0.0
O167 O 0.3364 0.5691 0.35745 0.0
C168 C 0.47776 0.48364 0.80044 0.0
O169 O 0.51509 0.4822 0.8149 0.0
Cd170 Cd 0.52254 0.45332 0.86809 0.0
O171 O 0.44216 0.47095 0.81432 0.0
Cd172 Cd 0.41374 0.44426 0.86505 0.0
C173 C 0.47396 0.34858 0.8579 0.0
O174 O 0.4635 0.4879 0.89716 0.0
O175 O 0.42381 0.43884 0.92248 0.0
O176 O 0.35448 0.49797 0.85823 0.0
C177 C 0.45278 0.47001 0.92351 0.0
O178 O 0.50866 0.37233 0.8634 0.0
C179 C 0.32288 0.46974 0.86105 0.0
O180 O 0.43558 0.36681 0.85568 0.0
O181 O 0.33375 0.42895 0.86583 0.0
C182 C 0.9862 0.52708 0.79177 0.0
O183 O 0.94892 0.5308 0.80603 0.0
Cd184 Cd 0.94375 0.56181 0.85862 0.0
O185 O 0.02224 0.53834 0.80569 0.0
Cd186 Cd 0.05028 0.56432 0.85678 0.0
C187 C -0.00228 0.66328 0.84723 0.0
O188 O -0.00135 0.52218 0.88889 0.0
O189 O 0.03863 0.5718 0.91376 0.0
O190 O 0.10647 0.50693 0.85114 0.0
C191 C 0.01081 0.53961 0.91512 0.0
O192 O 0.96165 0.64183 0.8529 0.0
C193 C 0.13954 0.53287 0.85569 0.0
O194 O 0.0349 0.64268 0.84574 0.0
O195 O 0.13099 0.57428 0.86021 0.0
C196 C 0.98694 0.52484 0.65512 0.0
O197 O 0.02201 0.52285 0.63809 0.0
Cd198 Cd 0.01992 0.5484 0.58384 0.0
O199 O 0.95048 0.53927 0.6434 0.0
Cd200 Cd 0.91389 0.56553 0.59533 0.0
C201 C 0.98085 0.65689 0.59509 0.0
O202 O 0.95376 0.51402 0.56286 0.0
O203 O 0.91429 0.56253 0.53693 0.0
O204 O 0.85442 0.51678 0.61221 0.0
C205 C 0.9392 0.52803 0.5363 0.0
O206 O 0.01273 0.63042 0.58776 0.0
C207 C 0.82342 0.54541 0.60876 0.0
O208 O 0.94166 0.64176 0.60021 0.0
O209 O 0.83473 0.5845 0.59941 0.0
C210 C 0.47613 0.48801 0.66388 0.0
O211 O 0.44051 0.48353 0.64762 0.0
Cd212 Cd 0.44309 0.4582 0.59311 0.0
O213 O 0.51394 0.47913 0.65169 0.0
Cd214 Cd 0.55033 0.45682 0.60285 0.0
C215 C 0.49735 0.3565 0.60197 0.0
O216 O 0.50242 0.50029 0.56903 0.0
O217 O 0.54817 0.45504 0.54525 0.0
O218 O 0.60604 0.51329 0.61444 0.0
C219 C 0.51867 0.48549 0.54312 0.0
O220 O 0.46173 0.37799 0.59516 0.0
C221 C 0.63907 0.48675 0.61246 0.0
O222 O 0.53367 0.37735 0.60769 0.0
O223 O 0.6305 0.44567 0.60658 0.0
C224 C 0.2609 0.94012 0.1037 0.0
C225 C 0.29737 0.9695 0.10754 0.0
C226 C 0.21701 0.95628 0.10364 0.0
C227 C 0.20798 0.00246 0.10714 0.0
H228 H 0.26622 0.90446 0.10001 0.0
H229 H 0.19009 0.93245 0.09979 0.0
S230 S 0.29126 0.09298 0.12105 0.0
N231 N 0.32132 0.04675 0.11736 0.0
N232 N 0.2387 0.07699 0.11688 0.0
C233 C 0.24394 0.03203 0.11223 0.0
C234 C 0.28868 0.01558 0.11255 0.0
C235 C 0.70696 0.0191 0.34906 0.0
C236 C 0.69547 0.97318 0.34899 0.0
C237 C 0.75162 0.03294 0.34855 0.0
C238 C 0.78656 0.00142 0.34769 0.0
H239 H 0.68129 0.04475 0.34997 0.0
H240 H 0.75871 0.06869 0.349 0.0
S241 S 0.77433 0.87701 0.34592 0.0
N242 N 0.72255 0.89609 0.34718 0.0
N243 N 0.8067 0.92204 0.34602 0.0
C244 C 0.77559 0.95531 0.34703 0.0
C245 C 0.73 0.94121 0.34776 0.0
C246 C 0.77741 0.03739 0.85144 0.0
C247 C 0.78867 0.99187 0.84692 0.0
C248 C 0.73277 0.0512 0.85271 0.0
C249 C 0.69771 0.02006 0.84928 0.0
H250 H 0.80325 0.06261 0.85453 0.0
H251 H 0.72579 0.08653 0.8566 0.0
S252 S 0.70937 0.89704 0.83559 0.0
N253 N 0.76122 0.91579 0.83811 0.0
N254 N 0.67723 0.94164 0.84029 0.0
C255 C 0.70848 0.97448 0.84413 0.0
C256 C 0.75398 0.96041 0.84303 0.0
C257 C 0.24006 0.96012 0.60616 0.0
C258 C 0.20421 0.99 0.61054 0.0
C259 C 0.28424 0.97552 0.60619 0.0
C260 C 0.29417 0.02142 0.61037 0.0
H261 H 0.23402 0.92471 0.60172 0.0
H262 H 0.31064 0.95141 0.60172 0.0
S263 S 0.2129 0.11264 0.62684 0.0
N264 N 0.18187 0.06711 0.6223 0.0
N265 N 0.26508 0.09599 0.62195 0.0
C266 C 0.25889 0.05136 0.61634 0.0
C267 C 0.21385 0.03565 0.61656 0.0
C268 C 0.76319 0.43966 0.11343 0.0
C269 C 0.79793 0.47108 0.11735 0.0
C270 C 0.71842 0.45301 0.11451 0.0
C271 C 0.70673 0.49833 0.1193 0.0
H272 H 0.77053 0.40464 0.10855 0.0
H273 H 0.69288 0.42779 0.11031 0.0
S274 S 0.7848 0.59299 0.13477 0.0
N275 N 0.81749 0.54898 0.12923 0.0
N276 N 0.73318 0.574 0.13092 0.0
C277 C 0.74099 0.52976 0.12487 0.0
C278 C 0.78664 0.51614 0.124 0.0
C279 C 0.26802 0.46694 0.35723 0.0
C280 C 0.2781 0.5132 0.3563 0.0
C281 C 0.22381 0.45174 0.35873 0.0
C282 C 0.18796 0.4822 0.35919 0.0
H283 H 0.29448 0.44209 0.35699 0.0
H284 H 0.21778 0.41581 0.35936 0.0
S285 S 0.19626 0.60696 0.35731 0.0
N286 N 0.24857 0.58944 0.35604 0.0
N287 N 0.16538 0.56096 0.35877 0.0
C288 C 0.19749 0.52862 0.35823 0.0
C289 C 0.24258 0.5441 0.3568 0.0
C290 C 0.22181 0.54594 0.85718 0.0
C291 C 0.18579 0.51557 0.8563 0.0
C292 C 0.26593 0.53065 0.85847 0.0
C293 C 0.27579 0.48438 0.85917 0.0
H294 H 0.21598 0.5819 0.85689 0.0
H295 H 0.29248 0.55547 0.8592 0.0
S296 S 0.19353 0.39081 0.8571 0.0
N297 N 0.16282 0.43688 0.85595 0.0
N298 N 0.24593 0.40819 0.85856 0.0
C299 C 0.24014 0.45354 0.85818 0.0
C300 C 0.19511 0.46912 0.85667 0.0
C301 C 0.72078 0.47202 0.61583 0.0
C302 C 0.68553 0.50317 0.61501 0.0
C303 C 0.76527 0.48628 0.61507 0.0
C304 C 0.77625 0.53224 0.61315 0.0
H305 H 0.71406 0.4362 0.61636 0.0
H306 H 0.79118 0.46083 0.6149 0.0
S307 S 0.69646 0.62767 0.61333 0.0
N308 N 0.66453 0.58235 0.61453 0.0
N309 N 0.74845 0.60909 0.61277 0.0
C310 C 0.74144 0.56391 0.61363 0.0
C311 C 0.69599 0.54939 0.61468 0.0
C312 C 0.95255 0.00751 0.23614 0.0
C313 C 0.99171 0.00067 0.25425 0.0
C314 C 0.95368 0.00733 0.20276 0.0
C315 C -0.006 0.00025 0.18638 0.0
H316 H 0.9212 0.01589 0.24766 0.0
H317 H 0.9234 0.01586 0.18989 0.0
S318 S 0.10328 0.96948 0.22242 0.0
N319 N 0.07007 0.9785 0.25329 0.0
N320 N 0.07215 0.97793 0.19037 0.0
C321 C 0.0323 0.98853 0.20409 0.0
C322 C 0.03118 0.98878 0.23811 0.0
C323 C 0.46109 0.98608 0.20367 0.0
C324 C 0.5026 0.98258 0.18793 0.0
C325 C 0.45869 0.9897 0.23687 0.0
C326 C 0.49773 0.98997 0.25549 0.0
H327 H 0.42997 0.98314 0.19052 0.0
H328 H 0.42599 0.98881 0.248 0.0
S329 S 0.61452 0.99423 0.22535 0.0
N330 N 0.5835 0.98861 0.19291 0.0
N331 N 0.57905 0.99602 0.25557 0.0
C332 C 0.5394 0.99226 0.23983 0.0
C333 C 0.54184 0.98843 0.20592 0.0
C334 C 0.952 -0.00162 0.70189 0.0
C335 C 0.99205 0.00336 0.68483 0.0
C336 C 0.95185 -0.00017 0.73527 0.0
C337 C 0.9918 0.00618 0.75266 0.0
H338 H 0.92117 0.9899 0.68964 0.0
H339 H 0.92063 0.99272 0.74741 0.0
S340 S 0.10311 0.03337 0.7185 0.0
N341 N 0.0708 0.02422 0.68712 0.0
N342 N 0.07062 0.02657 0.75005 0.0
C343 C 0.031 0.01664 0.7357 0.0
C344 C 0.0311 0.01527 0.70168 0.0
C345 C 0.46396 0.01007 0.70579 0.0
C346 C 0.50475 0.01528 0.68934 0.0
C347 C 0.46247 0.00937 0.73911 0.0
C348 C 0.50173 0.01376 0.75722 0.0
H349 H 0.43249 0.00901 0.69294 0.0
H350 H 0.43003 0.0081 0.7506 0.0
S351 S 0.61792 0.01768 0.72569 0.0
N352 N 0.5859 0.0174 0.69351 0.0
N353 N 0.58332 0.01542 0.75639 0.0
C354 C 0.54318 0.01411 0.74111 0.0
C355 C 0.54465 0.01496 0.70706 0.0
C356 C 0.44747 0.49474 0.21171 0.0
C357 C 0.48828 0.48672 0.19618 0.0
C358 C 0.4455 0.49772 0.245 0.0
C359 C 0.48429 0.49283 0.26383 0.0
H360 H 0.41758 0.50239 0.19811 0.0
H361 H 0.4139 0.50714 0.25573 0.0
S362 S 0.59647 0.45859 0.23483 0.0
N363 N 0.56617 0.4644 0.20208 0.0
N364 N 0.56253 0.47022 0.26485 0.0
C365 C 0.52404 0.47921 0.24877 0.0
C366 C 0.52601 0.4761 0.21483 0.0
C367 C 0.9643 0.49484 0.23943 0.0
C368 C 0.0022 0.48719 0.25846 0.0
C369 C 0.96745 0.49482 0.20617 0.0
C370 C 0.00856 0.4871 0.19072 0.0
H371 H 0.93144 0.49793 0.2501 0.0
H372 H 0.93681 0.49814 0.19251 0.0
S373 S 0.11938 0.47625 0.2297 0.0
N374 N 0.08355 0.48022 0.25959 0.0
N375 N 0.08907 0.4795 0.19677 0.0
C376 C 0.04749 0.4846 0.20936 0.0
C377 C 0.04437 0.48476 0.24338 0.0
C378 C 0.43529 0.48752 0.71558 0.0
C379 C 0.4741 0.49803 0.6983 0.0
C380 C 0.43604 0.48609 0.74895 0.0
C381 C 0.47565 0.49506 0.76613 0.0
H382 H 0.405 0.47724 0.70334 0.0
H383 H 0.40598 0.4751 0.76113 0.0
S384 S 0.58299 0.53525 0.73196 0.0
N385 N 0.55074 0.52575 0.70061 0.0
N386 N 0.55222 0.52277 0.76352 0.0
C387 C 0.5133 0.51027 0.7492 0.0
C388 C 0.51249 0.51184 0.71519 0.0
C389 C 0.94736 0.51373 0.74009 0.0
C390 C 0.98748 0.51531 0.7575 0.0
C391 C 0.94773 0.51333 0.70676 0.0
C392 C 0.98822 0.51452 0.68959 0.0
H393 H 0.91533 0.5157 0.7521 0.0
H394 H 0.91586 0.51467 0.69444 0.0
S395 S 0.10238 0.50788 0.72404 0.0
N396 N 0.0688 0.50966 0.75534 0.0
N397 N 0.06936 0.50943 0.6924 0.0
C398 C 0.02854 0.51109 0.70666 0.0
C399 C 0.02819 0.5114 0.74073 0.0
C400 C 0.97057 0.21578 0.09789 0.0
C401 C 0.01286 0.19514 0.09687 0.0
C402 C 0.96625 0.2626 0.09884 0.0
C403 C 0.00404 0.29088 0.09852 0.0
H404 H 0.94033 0.19566 0.09779 0.0
H405 H 0.93285 0.27665 0.09917 0.0
S406 S 0.12263 0.2539 0.09717 0.0
N407 N 0.09352 0.20669 0.09655 0.0
N408 N 0.08537 0.29478 0.09821 0.0
C409 C 0.04664 0.27076 0.09807 0.0
C410 C 0.05106 0.22294 0.09731 0.0
C411 C 0.46042 0.7505 0.10288 0.0
C412 C 0.49814 0.77866 0.10511 0.0
C413 C 0.46463 0.70362 0.10362 0.0
C414 C 0.50669 0.6829 0.1069 0.0
H415 H 0.42736 0.76464 0.09964 0.0
H416 H 0.43457 0.68353 0.10114 0.0
S417 S 0.6157 0.74174 0.11636 0.0
N418 N 0.57876 0.78259 0.11264 0.0
N419 N 0.58676 0.69453 0.11417 0.0
C420 C 0.5446 0.71074 0.11034 0.0
C421 C 0.54031 0.75855 0.10937 0.0
C422 C 0.52042 0.72001 0.34696 0.0
C423 C 0.47826 0.6993 0.34398 0.0
C424 C 0.52493 0.76683 0.34666 0.0
C425 C 0.48745 0.79505 0.34354 0.0
H426 H 0.55031 0.7 0.35029 0.0
H427 H 0.55807 0.78092 0.34988 0.0
S428 S 0.36993 0.758 0.33168 0.0
N429 N 0.39848 0.71081 0.33536 0.0
N430 N 0.40704 0.7989 0.33489 0.0
C431 C 0.44525 0.7749 0.33919 0.0
C432 C 0.44064 0.72707 0.33935 0.0
C433 C 0.02704 0.26277 0.34947 0.0
C434 C 0.98906 0.29017 0.34583 0.0
C435 C 0.02358 0.21584 0.34939 0.0
C436 C 0.98201 0.19419 0.34553 0.0
H437 H 0.05975 0.27756 0.35322 0.0
H438 H 0.05385 0.19648 0.35292 0.0
S439 S 0.87265 0.25055 0.33236 0.0
N440 N 0.90875 0.29223 0.33629 0.0
N441 N 0.9022 0.204 0.33609 0.0
C442 C 0.94387 0.22117 0.34075 0.0
C443 C 0.9474 0.26909 0.34093 0.0
C444 C 0.95477 0.73525 0.84441 0.0
C445 C -0.00378 0.71291 0.84348 0.0
C446 C 0.95219 0.78219 0.84313 0.0
C447 C 0.99096 0.80889 0.84103 0.0
H448 H 0.92387 0.71647 0.84675 0.0
H449 H 0.91946 0.7976 0.84476 0.0
S450 S 0.10766 0.76717 0.83485 0.0
N451 N 0.07697 0.72121 0.83811 0.0
N452 N 0.07202 0.80949 0.8358 0.0
C453 C 0.0326 0.78706 0.83889 0.0
C454 C 0.03525 0.73912 0.84006 0.0
C455 C 0.52124 0.27927 0.85598 0.0
C456 C 0.47847 0.29899 0.85507 0.0
C457 C 0.5267 0.23255 0.85501 0.0
C458 C 0.48964 0.20344 0.85325 0.0
H459 H 0.55096 0.29999 0.85782 0.0
H460 H 0.56036 0.21925 0.85629 0.0
S461 S 0.37037 0.23779 0.8484 0.0
N462 N 0.39827 0.28558 0.85093 0.0
N463 N 0.40857 0.1978 0.84914 0.0
C464 C 0.44665 0.22263 0.85156 0.0
C465 C 0.44107 0.27033 0.85244 0.0
C466 C 0.45315 0.23682 0.60083 0.0
C467 C 0.49226 0.21056 0.59993 0.0
C468 C 0.45523 0.28382 0.60186 0.0
C469 C 0.4965 0.30661 0.60232 0.0
H470 H 0.42047 0.22108 0.60018 0.0
H471 H 0.42407 0.30237 0.60215 0.0
S472 S 0.60896 0.25356 0.60162 0.0
N473 N 0.57368 0.21084 0.60051 0.0
N474 N 0.57762 0.29919 0.60255 0.0
C475 C 0.53597 0.28078 0.60209 0.0
C476 C 0.53384 0.23282 0.60083 0.0
C477 C 0.95891 0.78248 0.59691 0.0
C478 C 0.0021 0.80133 0.59774 0.0
C479 C 0.95248 0.73586 0.59665 0.0
C480 C 0.98898 0.70604 0.59692 0.0
H481 H 0.92963 0.80387 0.59618 0.0
H482 H 0.91852 0.72322 0.59559 0.0
S483 S 0.10904 0.73792 0.60051 0.0
N484 N 0.08211 0.78633 0.59994 0.0
N485 N 0.06998 0.69867 0.59934 0.0
C486 C 0.0324 0.72432 0.59838 0.0
C487 C 0.03897 0.77191 0.59887 0.0
C488 C 0.01607 0.01803 0.94424 0.0
C489 C 0.98225 0.9853 0.94185 0.0
C490 C 0.03551 0.02844 0.97369 0.0
C491 C 0.02171 0.0066 0.0018 0.0
H492 H 0.02776 0.03583 0.92323 0.0
H493 H 0.06129 0.05408 0.97438 0.0
S494 S 0.93467 0.91779 0.00839 0.0
N495 N 0.93595 0.93072 0.97002 0.0
N496 N 0.97257 0.95026 0.02547 0.0
C497 C 0.98811 0.97353 -0.00024 0.0
C498 C 0.96832 0.9629 0.96974 0.0
C499 C 0.52453 0.02197 0.9741 0.0
C500 C 0.5082 0.00605 0.94471 0.0
C501 C 0.50969 0.00365 0.00288 0.0
C502 C 0.4779 0.96876 0.00336 0.0
H503 H 0.54913 0.04874 0.97502 0.0
H504 H 0.52336 0.01712 0.02491 0.0
S505 S 0.42416 0.9154 0.93284 0.0
N506 N 0.45822 0.95354 0.91763 0.0
N507 N 0.43021 0.91904 0.97201 0.0
C508 C 0.46117 0.95245 0.97415 0.0
C509 C 0.47635 0.97113 0.94474 0.0
C510 C 0.50605 0.98536 0.50173 0.0
C511 C 0.47211 0.01796 0.50333 0.0
C512 C 0.52079 0.96869 0.4724 0.0
C513 C 0.50217 0.98408 0.44357 0.0
H514 H 0.52175 0.97271 0.5233 0.0
H515 H 0.54731 0.94398 0.47238 0.0
S516 S 0.41072 0.06753 0.43469 0.0
N517 N 0.41907 0.06394 0.47364 0.0
N518 N 0.44687 0.03256 0.41828 0.0
C519 C 0.46772 0.01621 0.44475 0.0
C520 C 0.45264 0.03318 0.4747 0.0
C521 C 0.98731 0.0154 0.49949 0.0
C522 C 0.02261 0.9843 0.50109 0.0
C523 C 0.96756 0.02647 0.47033 0.0
C524 C 0.9824 0.00688 0.44168 0.0
H525 H 0.97444 0.03121 0.52094 0.0
H526 H 0.94034 0.05049 0.47036 0.0
S527 S 0.07462 0.92422 0.43276 0.0
N528 N 0.07227 0.93455 0.47152 0.0
N529 N 0.03504 0.95536 0.41647 0.0
C530 C 0.01794 0.97593 0.44282 0.0
C531 C 0.03812 0.96466 0.4726 0.0
C532 C 0.48545 0.46894 0.01059 0.0
C533 C 0.52076 0.50017 0.01195 0.0
C534 C 0.46363 0.45965 -0.01813 0.0
C535 C 0.47632 0.48117 0.95338 0.0
H536 H 0.47413 0.45169 0.03194 0.0
H537 H 0.4365 0.43545 -0.01789 0.0
S538 S 0.56765 0.56494 0.94385 0.0
N539 N 0.56815 0.5521 -0.01774 0.0
N540 N 0.52701 0.5346 0.92802 0.0
C541 C 0.5119 0.51222 0.95424 0.0
C542 C 0.53421 0.52167 -0.01641 0.0
C543 C 0.00176 0.51952 0.00391 0.0
C544 C 0.96919 0.48549 0.00594 0.0
C545 C 0.01428 0.53749 0.97443 0.0
C546 C -0.00528 0.52206 0.94591 0.0
H547 H 0.01825 0.5321 0.0252 0.0
H548 H 0.04008 0.56312 0.97404 0.0
S549 S 0.9056 0.43553 0.93837 0.0
N550 N 0.91599 0.43844 -0.02291 0.0
N551 N 0.93958 0.4723 0.92149 0.0
C552 C 0.96128 0.48879 0.94759 0.0
C553 C 0.94851 0.47046 -0.02233 0.0
C554 C 0.94756 0.531 0.47718 0.0
C555 C 0.9546 0.50808 0.50611 0.0
C556 C 0.96473 0.51433 0.44849 0.0
C557 C 0.98946 0.47413 0.44775 0.0
H558 H 0.92959 0.56261 0.47673 0.0
H559 H 0.95929 0.53365 0.42687 0.0
S560 S 0.01329 0.39905 0.51661 0.0
N561 N 0.98511 0.44149 0.53208 0.0
N562 N 0.01747 0.41013 0.47805 0.0
C563 C -0.00464 0.45 0.47635 0.0
C564 C 0.97788 0.46699 0.50557 0.0
C565 C 0.51653 0.47863 0.48399 0.0
C566 C 0.50143 0.50012 0.51189 0.0
C567 C 0.49985 0.49059 0.45405 0.0
C568 C 0.46757 0.52462 0.45087 0.0
H569 H 0.54115 0.45198 0.48521 0.0
H570 H 0.51237 0.47282 0.43327 0.0
S571 S 0.41795 0.59227 0.5165 0.0
N572 N 0.45303 0.55778 0.53454 0.0
N573 N 0.4216 0.58036 0.47803 0.0
C574 C 0.45253 0.54688 0.47851 0.0
C575 C 0.46949 0.5346 0.5091 0.0
loop_
_geom_bond_atom_site_label_1
_geom_bond_atom_site_label_2
_geom_bond_distance
_geom_bond_site_symmetry_2
_ccdc_geom_bond_type
C0 O1 1.306 1_455 S
C0 O3 1.160 . S
O1 C0 1.306 1_655 S
O1 Cd2 2.228 . S
Cd2 O1 2.228 . S
Cd2 O6 2.273 1_655 S
Cd2 O10 2.276 . S
O3 C0 1.160 . S
O3 Cd4 2.203 . S
Cd4 O3 2.203 . S
Cd4 O6 2.411 . S
Cd4 O7 2.333 . S
Cd4 O8 2.352 . S
Cd4 O12 2.277 . S
Cd4 O13 2.356 . S
C5 O10 1.209 1_455 S
C5 O12 1.226 . S
O6 Cd2 2.273 1_455 S
O6 Cd4 2.411 . S
O6 C9 1.320 . S
O7 Cd4 2.333 . S
O7 C9 1.214 . S
O8 Cd4 2.352 . S
O8 C11 1.258 . S
C9 O6 1.320 . S
C9 O7 1.214 . S
O10 Cd2 2.276 . S
O10 C5 1.209 1_655 S
C11 O8 1.258 . S
C11 O13 1.282 . S
O12 Cd4 2.277 . S
O12 C5 1.226 . S
O13 Cd4 2.356 . S
O13 C11 1.282 . S
C14 O15 1.306 . S
C14 O17 1.160 . S
O15 C14 1.306 . S
O15 Cd16 2.228 . S
Cd16 O15 2.228 . S
Cd16 O20 2.273 . S
Cd16 O24 2.277 . S
O17 C14 1.160 . S
O17 Cd18 2.203 . S
Cd18 O17 2.203 . S
Cd18 O20 2.411 . S
Cd18 O21 2.333 . S
Cd18 O22 2.352 . S
Cd18 O26 2.277 . S
Cd18 O27 2.356 . S
C19 O24 1.209 . S
C19 O26 1.226 . S
O20 Cd16 2.273 . S
O20 Cd18 2.411 . S
O20 C23 1.320 . S
O21 Cd18 2.333 . S
O21 C23 1.214 . S
O22 Cd18 2.352 . S
O22 C25 1.258 . S
C23 O20 1.320 . S
C23 O21 1.214 . S
O24 Cd16 2.277 . S
O24 C19 1.209 . S
C25 O22 1.258 . S
C25 O27 1.282 . S
O26 Cd18 2.277 . S
O26 C19 1.226 . S
O27 Cd18 2.356 . S
O27 C25 1.282 . S
C28 O29 1.306 . S
C28 O31 1.160 . S
O29 C28 1.306 . S
O29 Cd30 2.228 . S
Cd30 O29 2.228 . S
Cd30 O34 2.273 . S
Cd30 O38 2.277 . S
O31 C28 1.160 . S
O31 Cd32 2.203 . S
Cd32 O31 2.203 . S
Cd32 O34 2.411 . S
Cd32 O35 2.333 . S
Cd32 O36 2.352 . S
Cd32 O40 2.277 . S
Cd32 O41 2.356 . S
C33 O38 1.209 . S
C33 O40 1.226 . S
O34 Cd30 2.273 . S
O34 Cd32 2.411 . S
O34 C37 1.320 . S
O35 Cd32 2.333 . S
O35 C37 1.214 . S
O36 Cd32 2.352 . S
O36 C39 1.258 . S
C37 O34 1.320 . S
C37 O35 1.214 . S
O38 Cd30 2.277 . S
O38 C33 1.209 . S
C39 O36 1.258 . S
C39 O41 1.282 . S
O40 Cd32 2.277 . S
O40 C33 1.226 . S
O41 Cd32 2.356 . S
O41 C39 1.282 . S
C42 O43 1.306 1_655 S
C42 O45 1.160 . S
O43 C42 1.306 1_455 S
O43 Cd44 2.228 . S
Cd44 O43 2.228 . S
Cd44 O48 2.273 1_455 S
Cd44 O52 2.276 . S
O45 C42 1.160 . S
O45 Cd46 2.203 . S
Cd46 O45 2.203 . S
Cd46 O48 2.411 . S
Cd46 O49 2.333 . S
Cd46 O50 2.352 . S
Cd46 O54 2.277 . S
Cd46 O55 2.356 . S
C47 O52 1.209 1_655 S
C47 O54 1.226 . S
O48 Cd44 2.273 1_655 S
O48 Cd46 2.411 . S
O48 C51 1.320 . S
O49 Cd46 2.333 . S
O49 C51 1.214 . S
O50 Cd46 2.352 . S
O50 C53 1.258 . S
C51 O48 1.320 . S
C51 O49 1.214 . S
O52 Cd44 2.276 . S
O52 C47 1.209 1_455 S
C53 O50 1.258 . S
C53 O55 1.282 . S
O54 Cd46 2.277 . S
O54 C47 1.226 . S
O55 Cd46 2.356 . S
O55 C53 1.282 . S
C56 O57 1.306 1_655 S
C56 O59 1.160 . S
O57 C56 1.306 1_455 S
O57 Cd58 2.228 . S
Cd58 O57 2.228 . S
Cd58 O62 2.273 1_455 S
Cd58 O66 2.276 . S
O59 C56 1.160 . S
O59 Cd60 2.203 . S
Cd60 O59 2.203 . S
Cd60 O62 2.411 . S
Cd60 O63 2.333 . S
Cd60 O64 2.352 . S
Cd60 O68 2.277 . S
Cd60 O69 2.356 . S
C61 O66 1.209 1_655 S
C61 O68 1.226 . S
O62 Cd58 2.273 1_655 S
O62 Cd60 2.411 . S
O62 C65 1.320 . S
O63 Cd60 2.333 . S
O63 C65 1.214 . S
O64 Cd60 2.352 . S
O64 C67 1.258 . S
C65 O62 1.320 . S
C65 O63 1.214 . S
O66 Cd58 2.276 . S
O66 C61 1.209 1_455 S
C67 O64 1.258 . S
C67 O69 1.282 . S
O68 Cd60 2.277 . S
O68 C61 1.226 . S
O69 Cd60 2.356 . S
O69 C67 1.282 . S
C70 O71 1.306 . S
C70 O73 1.160 . S
O71 C70 1.306 . S
O71 Cd72 2.228 . S
Cd72 O71 2.228 . S
Cd72 O76 2.273 . S
Cd72 O80 2.277 . S
O73 C70 1.160 . S
O73 Cd74 2.203 . S
Cd74 O73 2.203 . S
Cd74 O76 2.411 . S
Cd74 O77 2.333 . S
Cd74 O78 2.352 . S
Cd74 O82 2.277 . S
Cd74 O83 2.356 . S
C75 O80 1.209 . S
C75 O82 1.226 . S
O76 Cd72 2.273 . S
O76 Cd74 2.411 . S
O76 C79 1.320 . S
O77 Cd74 2.333 . S
O77 C79 1.214 . S
O78 Cd74 2.352 . S
O78 C81 1.258 . S
C79 O76 1.320 . S
C79 O77 1.214 . S
O80 Cd72 2.277 . S
O80 C75 1.209 . S
C81 O78 1.258 . S
C81 O83 1.282 . S
O82 Cd74 2.277 . S
O82 C75 1.226 . S
O83 Cd74 2.356 . S
O83 C81 1.282 . S
C84 O85 1.306 . S
C84 O87 1.160 . S
O85 C84 1.306 . S
O85 Cd86 2.228 . S
Cd86 O85 2.228 . S
Cd86 O90 2.273 . S
Cd86 O94 2.277 . S
O87 C84 1.160 . S
O87 Cd88 2.203 . S
Cd88 O87 2.203 . S
Cd88 O90 2.411 . S
Cd88 O91 2.333 . S
Cd88 O92 2.352 . S
Cd88 O96 2.277 . S
Cd88 O97 2.356 . S
C89 O94 1.209 . S
C89 O96 1.226 . S
O90 Cd86 2.273 . S
O90 Cd88 2.411 . S
O90 C93 1.320 . S
O91 Cd88 2.333 . S
O91 C93 1.214 . S
O92 Cd88 2.352 . S
O92 C95 1.258 . S
C93 O90 1.320 . S
C93 O91 1.214 . S
O94 Cd86 2.277 . S
O94 C89 1.209 . S
C95 O92 1.258 . S
C95 O97 1.282 . S
O96 Cd88 2.277 . S
O96 C89 1.226 . S
O97 Cd88 2.356 . S
O97 C95 1.282 . S
C98 O99 1.306 1_455 S
C98 O101 1.160 . S
O99 C98 1.306 1_655 S
O99 Cd100 2.228 . S
Cd100 O99 2.228 . S
Cd100 O104 2.273 1_655 S
Cd100 O108 2.276 . S
O101 C98 1.160 . S
O101 Cd102 2.203 . S
Cd102 O101 2.203 . S
Cd102 O104 2.411 . S
Cd102 O105 2.333 . S
Cd102 O106 2.352 . S
Cd102 O110 2.277 . S
Cd102 O111 2.356 . S
C103 O108 1.209 1_455 S
C103 O110 1.226 . S
O104 Cd100 2.273 1_455 S
O104 Cd102 2.411 . S
O104 C107 1.320 . S
O105 Cd102 2.333 . S
O105 C107 1.214 . S
O106 Cd102 2.352 . S
O106 C109 1.258 . S
C107 O104 1.320 . S
C107 O105 1.214 . S
O108 Cd100 2.276 . S
O108 C103 1.209 1_655 S
C109 O106 1.258 . S
C109 O111 1.282 . S
O110 Cd102 2.277 . S
O110 C103 1.226 . S
O111 Cd102 2.356 . S
O111 C109 1.282 . S
C112 O113 1.306 . S
C112 O115 1.160 . S
O113 C112 1.306 . S
O113 Cd114 2.228 . S
Cd114 O113 2.228 . S
Cd114 O118 2.273 . S
Cd114 O122 2.277 . S
O115 C112 1.160 . S
O115 Cd116 2.203 . S
Cd116 O115 2.203 . S
Cd116 O118 2.411 . S
Cd116 O119 2.333 . S
Cd116 O120 2.352 . S
Cd116 O124 2.277 . S
Cd116 O125 2.356 . S
C117 O122 1.209 . S
C117 O124 1.226 . S
O118 Cd114 2.273 . S
O118 Cd116 2.411 . S
O118 C121 1.320 . S
O119 Cd116 2.333 . S
O119 C121 1.214 . S
O120 Cd116 2.352 . S
O120 C123 1.258 . S
C121 O118 1.320 . S
C121 O119 1.214 . S
O122 Cd114 2.277 . S
O122 C117 1.209 . S
C123 O120 1.258 . S
C123 O125 1.282 . S
O124 Cd116 2.277 . S
O124 C117 1.226 . S
O125 Cd116 2.356 . S
O125 C123 1.282 . S
C126 O127 1.306 1_655 S
C126 O129 1.160 . S
O127 C126 1.306 1_455 S
O127 Cd128 2.228 . S
Cd128 O127 2.228 . S
Cd128 O132 2.273 1_455 S
Cd128 O136 2.276 . S
O129 C126 1.160 . S
O129 Cd130 2.203 . S
Cd130 O129 2.203 . S
Cd130 O132 2.411 . S
Cd130 O133 2.333 . S
Cd130 O134 2.352 . S
Cd130 O138 2.277 . S
Cd130 O139 2.356 . S
C131 O136 1.209 1_655 S
C131 O138 1.226 . S
O132 Cd128 2.273 1_655 S
O132 Cd130 2.411 . S
O132 C135 1.320 . S
O133 Cd130 2.333 . S
O133 C135 1.214 . S
O134 Cd130 2.352 . S
O134 C137 1.258 . S
C135 O132 1.320 . S
C135 O133 1.214 . S
O136 Cd128 2.276 . S
O136 C131 1.209 1_455 S
C137 O134 1.258 . S
C137 O139 1.282 . S
O138 Cd130 2.277 . S
O138 C131 1.226 . S
O139 Cd130 2.356 . S
O139 C137 1.282 . S
C140 O141 1.306 1_455 S
C140 O143 1.160 . S
O141 C140 1.306 1_655 S
O141 Cd142 2.228 . S
Cd142 O141 2.228 . S
Cd142 O146 2.273 1_655 S
Cd142 O150 2.276 . S
O143 C140 1.160 . S
O143 Cd144 2.203 . S
Cd144 O143 2.203 . S
Cd144 O146 2.411 . S
Cd144 O147 2.333 . S
Cd144 O148 2.352 . S
Cd144 O152 2.277 . S
Cd144 O153 2.356 . S
C145 O150 1.209 1_455 S
C145 O152 1.226 . S
O146 Cd142 2.273 1_455 S
O146 Cd144 2.411 . S
O146 C149 1.320 . S
O147 Cd144 2.333 . S
O147 C149 1.214 . S
O148 Cd144 2.352 . S
O148 C151 1.258 . S
C149 O146 1.320 . S
C149 O147 1.214 . S
O150 Cd142 2.276 . S
O150 C145 1.209 1_655 S
C151 O148 1.258 . S
C151 O153 1.282 . S
O152 Cd144 2.277 . S
O152 C145 1.226 . S
O153 Cd144 2.356 . S
O153 C151 1.282 . S
C154 O155 1.306 . S
C154 O157 1.160 . S
O155 C154 1.306 . S
O155 Cd156 2.228 . S
Cd156 O155 2.228 . S
Cd156 O160 2.273 . S
Cd156 O164 2.277 . S
O157 C154 1.160 . S
O157 Cd158 2.203 . S
Cd158 O157 2.203 . S
Cd158 O160 2.411 . S
Cd158 O161 2.333 . S
Cd158 O162 2.352 . S
Cd158 O166 2.277 . S
Cd158 O167 2.356 . S
C159 O164 1.209 . S
C159 O166 1.226 . S
O160 Cd156 2.273 . S
O160 Cd158 2.411 . S
O160 C163 1.320 . S
O161 Cd158 2.333 . S
O161 C163 1.214 . S
O162 Cd158 2.352 . S
O162 C165 1.258 . S
C163 O160 1.320 . S
C163 O161 1.214 . S
O164 Cd156 2.277 . S
O164 C159 1.209 . S
C165 O162 1.258 . S
C165 O167 1.282 . S
O166 Cd158 2.277 . S
O166 C159 1.226 . S
O167 Cd158 2.356 . S
O167 C165 1.282 . S
C168 O169 1.306 . S
C168 O171 1.160 . S
O169 C168 1.306 . S
O169 Cd170 2.228 . S
Cd170 O169 2.228 . S
Cd170 O174 2.273 . S
Cd170 O178 2.277 . S
O171 C168 1.160 . S
O171 Cd172 2.203 . S
Cd172 O171 2.203 . S
Cd172 O174 2.411 . S
Cd172 O175 2.333 . S
Cd172 O176 2.352 . S
Cd172 O180 2.277 . S
Cd172 O181 2.356 . S
C173 O178 1.209 . S
C173 O180 1.226 . S
O174 Cd170 2.273 . S
O174 Cd172 2.411 . S
O174 C177 1.320 . S
O175 Cd172 2.333 . S
O175 C177 1.214 . S
O176 Cd172 2.352 . S
O176 C179 1.258 . S
C177 O174 1.320 . S
C177 O175 1.214 . S
O178 Cd170 2.277 . S
O178 C173 1.209 . S
C179 O176 1.258 . S
C179 O181 1.282 . S
O180 Cd172 2.277 . S
O180 C173 1.226 . S
O181 Cd172 2.356 . S
O181 C179 1.282 . S
C182 O183 1.306 1_455 S
C182 O185 1.160 . S
O183 C182 1.306 1_655 S
O183 Cd184 2.228 . S
Cd184 O183 2.228 . S
Cd184 O188 2.273 1_655 S
Cd184 O192 2.276 . S
O185 C182 1.160 . S
O185 Cd186 2.203 . S
Cd186 O185 2.203 . S
Cd186 O188 2.411 . S
Cd186 O189 2.333 . S
Cd186 O190 2.352 . S
Cd186 O194 2.277 . S
Cd186 O195 2.356 . S
C187 O192 1.209 1_455 S
C187 O194 1.226 . S
O188 Cd184 2.273 1_455 S
O188 Cd186 2.411 . S
O188 C191 1.320 . S
O189 Cd186 2.333 . S
O189 C191 1.214 . S
O190 Cd186 2.352 . S
O190 C193 1.258 . S
C191 O188 1.320 . S
C191 O189 1.214 . S
O192 Cd184 2.276 . S
O192 C187 1.209 1_655 S
C193 O190 1.258 . S
C193 O195 1.282 . S
O194 Cd186 2.277 . S
O194 C187 1.226 . S
O195 Cd186 2.356 . S
O195 C193 1.282 . S
C196 O197 1.306 1_655 S
C196 O199 1.160 . S
O197 C196 1.306 1_455 S
O197 Cd198 2.228 . S
Cd198 O197 2.228 . S
Cd198 O202 2.273 1_455 S
Cd198 O206 2.276 . S
O199 C196 1.160 . S
O199 Cd200 2.203 . S
Cd200 O199 2.203 . S
Cd200 O202 2.411 . S
Cd200 O203 2.333 . S
Cd200 O204 2.352 . S
Cd200 O208 2.277 . S
Cd200 O209 2.356 . S
C201 O206 1.209 1_655 S
C201 O208 1.226 . S
O202 Cd198 2.273 1_655 S
O202 Cd200 2.411 . S
O202 C205 1.320 . S
O203 Cd200 2.333 . S
O203 C205 1.214 . S
O204 Cd200 2.352 . S
O204 C207 1.258 . S
C205 O202 1.320 . S
C205 O203 1.214 . S
O206 Cd198 2.276 . S
O206 C201 1.209 1_455 S
C207 O204 1.258 . S
C207 O209 1.282 . S
O208 Cd200 2.277 . S
O208 C201 1.226 . S
O209 Cd200 2.356 . S
O209 C207 1.282 . S
C210 O211 1.306 . S
C210 O213 1.160 . S
O211 C210 1.306 . S
O211 Cd212 2.228 . S
Cd212 O211 2.228 . S
Cd212 O216 2.273 . S
Cd212 O220 2.277 . S
O213 C210 1.160 . S
O213 Cd214 2.203 . S
Cd214 O213 2.203 . S
Cd214 O216 2.411 . S
Cd214 O217 2.333 . S
Cd214 O218 2.352 . S
Cd214 O222 2.277 . S
Cd214 O223 2.356 . S
C215 O220 1.209 . S
C215 O222 1.226 . S
O216 Cd212 2.273 . S
O216 Cd214 2.411 . S
O216 C219 1.320 . S
O217 Cd214 2.333 . S
O217 C219 1.214 . S
O218 Cd214 2.352 . S
O218 C221 1.258 . S
C219 O216 1.320 . S
C219 O217 1.214 . S
O220 Cd212 2.277 . S
O220 C215 1.209 . S
C221 O218 1.258 . S
C221 O223 1.282 . S
O222 Cd214 2.277 . S
O222 C215 1.226 . S
O223 Cd214 2.356 . S
O223 C221 1.282 . S
C224 C225 1.369 . S
C224 C226 1.419 . S
C224 H228 0.930 . S
C225 C224 1.369 . S
C225 C234 1.429 1_565 S
C226 C224 1.419 . S
C226 C227 1.363 1_565 S
C226 H229 0.929 . S
C227 C226 1.363 1_545 S
C227 C233 1.428 . S
H228 C224 0.930 . S
H229 C226 0.929 . S
S230 N231 1.613 . S
S230 N232 1.610 . S
N231 S230 1.613 . S
N231 C234 1.350 . S
N232 S230 1.610 . S
N232 C233 1.351 . S
C233 C227 1.428 . S
C233 N232 1.351 . S
C233 C234 1.434 . S
C234 C225 1.429 1_545 S
C234 N231 1.350 . S
C234 C233 1.434 . S
C235 C236 1.369 1_545 S
C235 C237 1.419 . S
C235 H239 0.930 . S
C236 C235 1.369 1_565 S
C236 C245 1.429 . S
C237 C235 1.419 . S
C237 C238 1.363 . S
C237 H240 0.929 . S
C238 C237 1.363 . S
C238 C244 1.428 1_545 S
H239 C235 0.930 . S
H240 C237 0.929 . S
S241 N242 1.613 . S
S241 N243 1.610 . S
N242 S241 1.613 . S
N242 C245 1.350 . S
N243 S241 1.610 . S
N243 C244 1.351 . S
C244 C238 1.428 1_565 S
C244 N243 1.351 . S
C244 C245 1.434 . S
C245 C236 1.429 . S
C245 N242 1.350 . S
C245 C244 1.434 . S
C246 C247 1.369 1_545 S
C246 C248 1.419 . S
C246 H250 0.930 . S
C247 C246 1.369 1_565 S
C247 C256 1.429 . S
C248 C246 1.419 . S
C248 C249 1.363 . S
C248 H251 0.929 . S
C249 C248 1.363 . S
C249 C255 1.428 1_545 S
H250 C246 0.930 . S
H251 C248 0.929 . S
S252 N253 1.613 . S
S252 N254 1.610 . S
N253 S252 1.613 . S
N253 C256 1.350 . S
N254 S252 1.610 . S
N254 C255 1.351 . S
C255 C249 1.428 1_565 S
C255 N254 1.351 . S
C255 C256 1.434 . S
C256 C247 1.429 . S
C256 N253 1.350 . S
C256 C255 1.434 . S
C257 C258 1.369 . S
C257 C259 1.419 . S
C257 H261 0.930 . S
C258 C257 1.369 . S
C258 C267 1.429 1_565 S
C259 C257 1.419 . S
C259 C260 1.363 1_565 S
C259 H262 0.929 . S
C260 C259 1.363 1_545 S
C260 C266 1.428 . S
H261 C257 0.930 . S
H262 C259 0.929 . S
S263 N264 1.613 . S
S263 N265 1.610 . S
N264 S263 1.613 . S
N264 C267 1.350 . S
N265 S263 1.610 . S
N265 C266 1.351 . S
C266 C260 1.428 . S
C266 N265 1.351 . S
C266 C267 1.434 . S
C267 C258 1.429 1_545 S
C267 N264 1.350 . S
C267 C266 1.434 . S
C268 C269 1.369 . S
C268 C270 1.419 . S
C268 H272 0.930 . S
C269 C268 1.369 . S
C269 C278 1.429 . S
C270 C268 1.419 . S
C270 C271 1.363 . S
C270 H273 0.929 . S
C271 C270 1.363 . S
C271 C277 1.428 . S
H272 C268 0.930 . S
H273 C270 0.929 . S
S274 N275 1.613 . S
S274 N276 1.610 . S
N275 S274 1.613 . S
N275 C278 1.350 . S
N276 S274 1.610 . S
N276 C277 1.351 . S
C277 C271 1.428 . S
C277 N276 1.351 . S
C277 C278 1.434 . S
C278 C269 1.429 . S
C278 N275 1.350 . S
C278 C277 1.434 . S
C279 C280 1.369 . S
C279 C281 1.419 . S
C279 H283 0.930 . S
C280 C279 1.369 . S
C280 C289 1.429 . S
C281 C279 1.419 . S
C281 C282 1.363 . S
C281 H284 0.929 . S
C282 C281 1.363 . S
C282 C288 1.428 . S
H283 C279 0.930 . S
H284 C281 0.929 . S
S285 N286 1.613 . S
S285 N287 1.610 . S
N286 S285 1.613 . S
N286 C289 1.350 . S
N287 S285 1.610 . S
N287 C288 1.351 . S
C288 C282 1.428 . S
C288 N287 1.351 . S
C288 C289 1.434 . S
C289 C280 1.429 . S
C289 N286 1.350 . S
C289 C288 1.434 . S
C290 C291 1.369 . S
C290 C292 1.419 . S
C290 H294 0.930 . S
C291 C290 1.369 . S
C291 C300 1.429 . S
C292 C290 1.419 . S
C292 C293 1.363 . S
C292 H295 0.929 . S
C293 C292 1.363 . S
C293 C299 1.428 . S
H294 C290 0.930 . S
H295 C292 0.929 . S
S296 N297 1.613 . S
S296 N298 1.610 . S
N297 S296 1.613 . S
N297 C300 1.350 . S
N298 S296 1.610 . S
N298 C299 1.351 . S
C299 C293 1.428 . S
C299 N298 1.351 . S
C299 C300 1.434 . S
C300 C291 1.429 . S
C300 N297 1.350 . S
C300 C299 1.434 . S
C301 C302 1.369 . S
C301 C303 1.419 . S
C301 H305 0.930 . S
C302 C301 1.369 . S
C302 C311 1.429 . S
C303 C301 1.419 . S
C303 C304 1.363 . S
C303 H306 0.929 . S
C304 C303 1.363 . S
C304 C310 1.428 . S
H305 C301 0.930 . S
H306 C303 0.929 . S
S307 N308 1.613 . S
S307 N309 1.610 . S
N308 S307 1.613 . S
N308 C311 1.350 . S
N309 S307 1.610 . S
N309 C310 1.351 . S
C310 C304 1.428 . S
C310 N309 1.351 . S
C310 C311 1.434 . S
C311 C302 1.429 . S
C311 N308 1.350 . S
C311 C310 1.434 . S
C312 C313 1.369 . S
C312 C314 1.419 . S
C312 H316 0.930 . S
C313 C312 1.369 . S
C313 C322 1.429 1_655 S
C314 C312 1.419 . S
C314 C315 1.363 1_655 S
C314 H317 0.929 . S
C315 C314 1.363 1_455 S
C315 C321 1.428 . S
H316 C312 0.930 . S
H317 C314 0.929 . S
S318 N319 1.613 . S
S318 N320 1.610 . S
N319 S318 1.613 . S
N319 C322 1.350 . S
N320 S318 1.610 . S
N320 C321 1.351 . S
C321 C315 1.428 . S
C321 N320 1.351 . S
C321 C322 1.434 . S
C322 C313 1.429 1_455 S
C322 N319 1.350 . S
C322 C321 1.434 . S
C323 C324 1.369 . S
C323 C325 1.419 . S
C323 H327 0.930 . S
C324 C323 1.369 . S
C324 C333 1.429 . S
C325 C323 1.419 . S
C325 C326 1.363 . S
C325 H328 0.929 . S
C326 C325 1.363 . S
C326 C332 1.428 . S
H327 C323 0.930 . S
H328 C325 0.929 . S
S329 N330 1.613 . S
S329 N331 1.610 . S
N330 S329 1.613 . S
N330 C333 1.350 . S
N331 S329 1.610 . S
N331 C332 1.351 . S
C332 C326 1.428 . S
C332 N331 1.351 . S
C332 C333 1.434 . S
C333 C324 1.429 . S
C333 N330 1.350 . S
C333 C332 1.434 . S
C334 C335 1.369 1_655 S
C334 C336 1.419 . S
C334 H338 0.930 . S
C335 C334 1.369 1_455 S
C335 C344 1.429 . S
C336 C334 1.419 . S
C336 C337 1.363 . S
C336 H339 0.929 . S
C337 C336 1.363 . S
C337 C343 1.428 1_655 S
H338 C334 0.930 . S
H339 C336 0.929 . S
S340 N341 1.613 . S
S340 N342 1.610 . S
N341 S340 1.613 . S
N341 C344 1.350 . S
N342 S340 1.610 . S
N342 C343 1.351 . S
C343 C337 1.428 1_455 S
C343 N342 1.351 . S
C343 C344 1.434 . S
C344 C335 1.429 . S
C344 N341 1.350 . S
C344 C343 1.434 . S
C345 C346 1.369 . S
C345 C347 1.419 . S
C345 H349 0.930 1_545 S
C346 C345 1.369 . S
C346 C355 1.429 . S
C347 C345 1.419 . S
C347 C348 1.363 . S
C347 H350 0.929 1_545 S
C348 C347 1.363 . S
C348 C354 1.428 . S
H349 C345 0.930 1_565 S
H350 C347 0.929 1_565 S
S351 N352 1.613 . S
S351 N353 1.610 . S
N352 S351 1.613 . S
N352 C355 1.350 . S
N353 S351 1.610 . S
N353 C354 1.351 . S
C354 C348 1.428 . S
C354 N353 1.351 . S
C354 C355 1.434 . S
C355 C346 1.429 . S
C355 N352 1.350 . S
C355 C354 1.434 . S
C356 C357 1.369 . S
C356 C358 1.419 . S
C356 H360 0.930 . S
C357 C356 1.369 . S
C357 C366 1.429 . S
C358 C356 1.419 . S
C358 C359 1.363 . S
C358 H361 0.929 . S
C359 C358 1.363 . S
C359 C365 1.428 . S
H360 C356 0.930 . S
H361 C358 0.929 . S
S362 N363 1.613 . S
S362 N364 1.610 . S
N363 S362 1.613 . S
N363 C366 1.350 . S
N364 S362 1.610 . S
N364 C365 1.351 . S
C365 C359 1.428 . S
C365 N364 1.351 . S
C365 C366 1.434 . S
C366 C357 1.429 . S
C366 N363 1.350 . S
C366 C365 1.434 . S
C367 C368 1.369 1_655 S
C367 C369 1.419 . S
C367 H371 0.930 . S
C368 C367 1.369 1_455 S
C368 C377 1.429 . S
C369 C367 1.419 . S
C369 C370 1.363 . S
C369 H372 0.929 . S
C370 C369 1.363 . S
C370 C376 1.428 1_655 S
H371 C367 0.930 . S
H372 C369 0.929 . S
S373 N374 1.613 . S
S373 N375 1.610 . S
N374 S373 1.613 . S
N374 C377 1.350 . S
N375 S373 1.610 . S
N375 C376 1.351 . S
C376 C370 1.428 1_455 S
C376 N375 1.351 . S
C376 C377 1.434 . S
C377 C368 1.429 . S
C377 N374 1.350 . S
C377 C376 1.434 . S
C378 C379 1.369 . S
C378 C380 1.419 . S
C378 H382 0.930 . S
C379 C378 1.369 . S
C379 C388 1.429 . S
C380 C378 1.419 . S
C380 C381 1.363 . S
C380 H383 0.929 . S
C381 C380 1.363 . S
C381 C387 1.428 . S
H382 C378 0.930 . S
H383 C380 0.929 . S
S384 N385 1.613 . S
S384 N386 1.610 . S
N385 S384 1.613 . S
N385 C388 1.350 . S
N386 S384 1.610 . S
N386 C387 1.351 . S
C387 C381 1.428 . S
C387 N386 1.351 . S
C387 C388 1.434 . S
C388 C379 1.429 . S
C388 N385 1.350 . S
C388 C387 1.434 . S
C389 C390 1.369 1_655 S
C389 C391 1.419 . S
C389 H393 0.930 . S
C390 C389 1.369 1_455 S
C390 C399 1.429 . S
C391 C389 1.419 . S
C391 C392 1.363 . S
C391 H394 0.929 . S
C392 C391 1.363 . S
C392 C398 1.428 1_655 S
H393 C389 0.930 . S
H394 C391 0.929 . S
S395 N396 1.613 . S
S395 N397 1.610 . S
N396 S395 1.613 . S
N396 C399 1.350 . S
N397 S395 1.610 . S
N397 C398 1.351 . S
C398 C392 1.428 1_455 S
C398 N397 1.351 . S
C398 C399 1.434 . S
C399 C390 1.429 . S
C399 N396 1.350 . S
C399 C398 1.434 . S
C400 C401 1.369 1_655 S
C400 C402 1.419 . S
C400 H404 0.930 . S
C401 C400 1.369 1_455 S
C401 C410 1.429 . S
C402 C400 1.419 . S
C402 C403 1.363 . S
C402 H405 0.929 . S
C403 C402 1.363 . S
C403 C409 1.428 1_655 S
H404 C400 0.930 . S
H405 C402 0.929 . S
S406 N407 1.613 . S
S406 N408 1.610 . S
N407 S406 1.613 . S
N407 C410 1.350 . S
N408 S406 1.610 . S
N408 C409 1.351 . S
C409 C403 1.428 1_455 S
C409 N408 1.351 . S
C409 C410 1.434 . S
C410 C401 1.429 . S
C410 N407 1.350 . S
C410 C409 1.434 . S
C411 C412 1.369 . S
C411 C413 1.419 . S
C411 H415 0.930 . S
C412 C411 1.369 . S
C412 C421 1.429 . S
C413 C411 1.419 . S
C413 C414 1.363 . S
C413 H416 0.929 . S
C414 C413 1.363 . S
C414 C420 1.428 . S
H415 C411 0.930 . S
H416 C413 0.929 . S
S417 N418 1.613 . S
S417 N419 1.610 . S
N418 S417 1.613 . S
N418 C421 1.350 . S
N419 S417 1.610 . S
N419 C420 1.351 . S
C420 C414 1.428 . S
C420 N419 1.351 . S
C420 C421 1.434 . S
C421 C412 1.429 . S
C421 N418 1.350 . S
C421 C420 1.434 . S
C422 C423 1.369 . S
C422 C424 1.419 . S
C422 H426 0.930 . S
C423 C422 1.369 . S
C423 C432 1.429 . S
C424 C422 1.419 . S
C424 C425 1.363 . S
C424 H427 0.929 . S
C425 C424 1.363 . S
C425 C431 1.428 . S
H426 C422 0.930 . S
H427 C424 0.929 . S
S428 N429 1.613 . S
S428 N430 1.610 . S
N429 S428 1.613 . S
N429 C432 1.350 . S
N430 S428 1.610 . S
N430 C431 1.351 . S
C431 C425 1.428 . S
C431 N430 1.351 . S
C431 C432 1.434 . S
C432 C423 1.429 . S
C432 N429 1.350 . S
C432 C431 1.434 . S
C433 C434 1.369 . S
C433 C435 1.419 . S
C433 H437 0.930 . S
C434 C433 1.369 . S
C434 C443 1.429 1_455 S
C435 C433 1.419 . S
C435 C436 1.363 1_455 S
C435 H438 0.929 . S
C436 C435 1.363 1_655 S
C436 C442 1.428 . S
H437 C433 0.930 . S
H438 C435 0.929 . S
S439 N440 1.613 . S
S439 N441 1.610 . S
N440 S439 1.613 . S
N440 C443 1.350 . S
N441 S439 1.610 . S
N441 C442 1.351 . S
C442 C436 1.428 . S
C442 N441 1.351 . S
C442 C443 1.434 . S
C443 C434 1.429 1_655 S
C443 N440 1.350 . S
C443 C442 1.434 . S
C444 C445 1.369 1_655 S
C444 C446 1.419 . S
C444 H448 0.930 . S
C445 C444 1.369 1_455 S
C445 C454 1.429 . S
C446 C444 1.419 . S
C446 C447 1.363 . S
C446 H449 0.929 . S
C447 C446 1.363 . S
C447 C453 1.428 1_655 S
H448 C444 0.930 . S
H449 C446 0.929 . S
S450 N451 1.613 . S
S450 N452 1.610 . S
N451 S450 1.613 . S
N451 C454 1.350 . S
N452 S450 1.610 . S
N452 C453 1.351 . S
C453 C447 1.428 1_455 S
C453 N452 1.351 . S
C453 C454 1.434 . S
C454 C445 1.429 . S
C454 N451 1.350 . S
C454 C453 1.434 . S
C455 C456 1.369 . S
C455 C457 1.419 . S
C455 H459 0.930 . S
C456 C455 1.369 . S
C456 C465 1.429 . S
C457 C455 1.419 . S
C457 C458 1.363 . S
C457 H460 0.929 . S
C458 C457 1.363 . S
C458 C464 1.428 . S
H459 C455 0.930 . S
H460 C457 0.929 . S
S461 N462 1.613 . S
S461 N463 1.610 . S
N462 S461 1.613 . S
N462 C465 1.350 . S
N463 S461 1.610 . S
N463 C464 1.351 . S
C464 C458 1.428 . S
C464 N463 1.351 . S
C464 C465 1.434 . S
C465 C456 1.429 . S
C465 N462 1.350 . S
C465 C464 1.434 . S
C466 C467 1.369 . S
C466 C468 1.419 . S
C466 H470 0.930 . S
C467 C466 1.369 . S
C467 C476 1.429 . S
C468 C466 1.419 . S
C468 C469 1.363 . S
C468 H471 0.929 . S
C469 C468 1.363 . S
C469 C475 1.428 . S
H470 C466 0.930 . S
H471 C468 0.929 . S
S472 N473 1.613 . S
S472 N474 1.610 . S
N473 S472 1.613 . S
N473 C476 1.350 . S
N474 S472 1.610 . S
N474 C475 1.351 . S
C475 C469 1.428 . S
C475 N474 1.351 . S
C475 C476 1.434 . S
C476 C467 1.429 . S
C476 N473 1.350 . S
C476 C475 1.434 . S
C477 C478 1.369 1_655 S
C477 C479 1.419 . S
C477 H481 0.930 . S
C478 C477 1.369 1_455 S
C478 C487 1.429 . S
C479 C477 1.419 . S
C479 C480 1.363 . S
C479 H482 0.929 . S
C480 C479 1.363 . S
C480 C486 1.428 1_655 S
H481 C477 0.930 . S
H482 C479 0.929 . S
S483 N484 1.613 . S
S483 N485 1.610 . S
N484 S483 1.613 . S
N484 C487 1.350 . S
N485 S483 1.610 . S
N485 C486 1.351 . S
C486 C480 1.428 1_455 S
C486 N485 1.351 . S
C486 C487 1.434 . S
C487 C478 1.429 . S
C487 N484 1.350 . S
C487 C486 1.434 . S
C488 C489 1.369 1_445 S
C488 C490 1.419 1_556 S
C488 H492 0.930 . S
C489 C488 1.369 1_665 S
C489 C498 1.429 . S
C490 C488 1.419 1_554 S
C490 C491 1.363 . S
C490 H493 0.929 . S
C491 C490 1.363 . S
C491 C497 1.428 1_445 S
H492 C488 0.930 . S
H493 C490 0.929 . S
S494 N495 1.613 1_554 S
S494 N496 1.610 . S
N495 S494 1.613 1_556 S
N495 C498 1.350 . S
N496 S494 1.610 . S
N496 C497 1.351 . S
C497 C491 1.428 1_665 S
C497 N496 1.351 . S
C497 C498 1.434 1_554 S
C498 C489 1.429 . S
C498 N495 1.350 . S
C498 C497 1.434 1_556 S
C499 C500 1.369 . S
C499 C501 1.419 1_556 S
C499 H503 0.930 . S
C500 C499 1.369 . S
C500 C509 1.429 1_545 S
C501 C499 1.419 1_554 S
C501 C502 1.363 1_545 S
C501 H504 0.929 . S
C502 C501 1.363 1_565 S
C502 C508 1.428 . S
H503 C499 0.930 . S
H504 C501 0.929 . S
S505 N506 1.613 . S
S505 N507 1.610 1_556 S
N506 S505 1.613 . S
N506 C509 1.350 . S
N507 S505 1.610 1_554 S
N507 C508 1.351 . S
C508 C502 1.428 . S
C508 N507 1.351 . S
C508 C509 1.434 1_554 S
C509 C500 1.429 1_565 S
C509 N506 1.350 . S
C509 C508 1.434 1_556 S
C510 C511 1.369 . S
C510 C512 1.419 . S
C510 H514 0.930 . S
C511 C510 1.369 . S
C511 C520 1.429 1_545 S
C512 C510 1.419 . S
C512 C513 1.363 1_545 S
C512 H515 0.929 . S
C513 C512 1.363 1_565 S
C513 C519 1.428 . S
H514 C510 0.930 . S
H515 C512 0.929 . S
S516 N517 1.613 . S
S516 N518 1.610 . S
N517 S516 1.613 . S
N517 C520 1.350 . S
N518 S516 1.610 . S
N518 C519 1.351 . S
C519 C513 1.428 . S
C519 N518 1.351 . S
C519 C520 1.434 . S
C520 C511 1.429 1_565 S
C520 N517 1.350 . S
C520 C519 1.434 . S
C521 C522 1.369 1_545 S
C521 C523 1.419 . S
C521 H525 0.930 . S
C522 C521 1.369 1_565 S
C522 C531 1.429 1_455 S
C523 C521 1.419 . S
C523 C524 1.363 1_455 S
C523 H526 0.929 . S
C524 C523 1.363 1_655 S
C524 C530 1.428 1_545 S
H525 C521 0.930 . S
H526 C523 0.929 . S
S527 N528 1.613 . S
S527 N529 1.610 . S
N528 S527 1.613 . S
N528 C531 1.350 . S
N529 S527 1.610 . S
N529 C530 1.351 . S
C530 C524 1.428 1_565 S
C530 N529 1.351 . S
C530 C531 1.434 . S
C531 C522 1.429 1_655 S
C531 N528 1.350 . S
C531 C530 1.434 . S
C532 C533 1.369 . S
C532 C534 1.419 1_554 S
C532 H536 0.930 . S
C533 C532 1.369 . S
C533 C542 1.429 . S
C534 C532 1.419 1_556 S
C534 C535 1.363 . S
C534 H537 0.929 . S
C535 C534 1.363 . S
C535 C541 1.428 . S
H536 C532 0.930 . S
H537 C534 0.929 . S
S538 N539 1.613 1_556 S
S538 N540 1.610 . S
N539 S538 1.613 1_554 S
N539 C542 1.350 . S
N540 S538 1.610 . S
N540 C541 1.351 . S
C541 C535 1.428 . S
C541 N540 1.351 . S
C541 C542 1.434 1_556 S
C542 C533 1.429 . S
C542 N539 1.350 . S
C542 C541 1.434 1_554 S
C543 C544 1.369 1_455 S
C543 C545 1.419 1_554 S
C543 H547 0.930 . S
C544 C543 1.369 1_655 S
C544 C553 1.429 . S
C545 C543 1.419 1_556 S
C545 C546 1.363 . S
C545 H548 0.929 . S
C546 C545 1.363 . S
C546 C552 1.428 1_455 S
H547 C543 0.930 . S
H548 C545 0.929 . S
S549 N550 1.613 1_556 S
S549 N551 1.610 . S
N550 S549 1.613 1_554 S
N550 C553 1.350 . S
N551 S549 1.610 . S
N551 C552 1.351 . S
C552 C546 1.428 1_655 S
C552 N551 1.351 . S
C552 C553 1.434 1_556 S
C553 C544 1.429 . S
C553 N550 1.350 . S
C553 C552 1.434 1_554 S
C554 C555 1.364 1_455 S
C554 C556 1.423 . S
C554 H558 0.931 . S
C555 C554 1.364 1_655 S
C555 C564 1.429 . S
C556 C554 1.423 . S
C556 C557 1.363 . S
C556 H559 0.929 . S
C557 C556 1.363 . S
C557 C563 1.425 1_455 S
H558 C554 0.931 . S
H559 C556 0.929 . S
S560 N561 1.613 . S
S560 N562 1.610 . S
N561 S560 1.613 . S
N561 C564 1.350 . S
N562 S560 1.610 . S
N562 C563 1.351 . S
C563 C557 1.425 1_655 S
C563 N562 1.351 . S
C563 C564 1.437 . S
C564 C555 1.429 . S
C564 N561 1.350 . S
C564 C563 1.437 . S
C565 C566 1.369 . S
C565 C567 1.419 . S
C565 H569 0.930 . S
C566 C565 1.369 . S
C566 C575 1.429 . S
C567 C565 1.419 . S
C567 C568 1.363 . S
C567 H570 0.929 . S
C568 C567 1.363 . S
C568 C574 1.428 . S
H569 C565 0.930 . S
H570 C567 0.929 . S
S571 N572 1.613 . S
S571 N573 1.610 . S
N572 S571 1.613 . S
N572 C575 1.350 . S
N573 S571 1.610 . S
N573 C574 1.351 . S
C574 C568 1.428 . S
C574 N573 1.351 . S
C574 C575 1.434 . S
C575 C566 1.429 . S
C575 N572 1.350 . S
C575 C574 1.434 . S
C225 C25 1.506 . S
C227 C11 1.502 . S
C236 C39 1.503 . S
C238 C53 1.503 . S
C247 C67 1.502 . S
C249 C81 1.504 . S
C258 C109 1.505 . S
C260 C95 1.502 . S
C269 C137 1.506 . S
C271 C123 1.502 . S
C280 C165 1.502 . S
C282 C151 1.505 . S
C291 C193 1.505 . S
C293 C179 1.502 . S
C302 C221 1.505 . S
C304 C207 1.502 . S
C313 C42 1.429 . S
C315 C0 1.431 . S
C324 C14 1.430 . S
C326 C28 1.433 . S
C335 C98 1.432 . S
C337 C56 1.430 . S
C346 C84 1.429 . S
C348 C70 1.431 . S
C357 C112 1.434 . S
C359 C154 1.431 . S
C368 C140 1.433 . S
C370 C126 1.430 . S
C379 C210 1.434 . S
C381 C168 1.432 . S
C390 C182 1.432 . S
C392 C196 1.430 . S
C401 C5 1.508 . S
C403 C131 1.508 . S
C412 C19 1.508 . S
C414 C117 1.508 . S
C423 C159 1.507 . S
C425 C33 1.507 . S
C434 C145 1.507 . S
C436 C47 1.507 . S
C445 C187 1.507 . S
C447 C61 1.507 . S
C456 C173 1.507 . S
C458 C75 1.507 . S
C467 C89 1.507 . S
C469 C215 1.507 . S
C478 C103 1.508 . S
C480 C201 1.508 . S
C489 C65 1.379 . S
C491 C9 1.383 . S
C500 C79 1.383 . S
C502 C23 1.380 . S
C511 C93 1.381 . S
C513 C37 1.382 . S
C522 C107 1.381 . S
C524 C51 1.382 . S
C533 C121 1.379 . S
C535 C177 1.384 . S
C544 C135 1.379 . S
C546 C191 1.383 . S
C555 C205 1.383 . S
C557 C149 1.381 . S
C566 C219 1.384 . S
C568 C163 1.380 . S
