# Generated by pormake.
# Topology smu, (6)-cn, num edge types: 1
# Building blocks:
#     Node 0, Type 0, BuildingBlock: CUKXOW_clean_sbu_0, # of connection points: 6
#     Node 1, Type 0, BuildingBlock: CUKXOW_clean_sbu_0, # of connection points: 6
#     Node 2, Type 0, BuildingBlock: CUKXOW_clean_sbu_0, # of connection points: 6
#     Node 3, Type 0, BuildingBlock: CUKXOW_clean_sbu_0, # of connection points: 6
#     Node 4, Type 0, BuildingBlock: CUKXOW_clean_sbu_0, # of connection points: 6
#     Node 5, Type 0, BuildingBlock: CUKXOW_clean_sbu_0, # of connection points: 6
#     Edge 6, Type (0, 0), BuildingBlock: CIFDUS_clean_linker_0, # of connection points: 2
#     Edge 7, Type (0, 0), BuildingBlock: CIFDUS_clean_linker_0, # of connection points: 2
#     Edge 8, Type (0, 0), BuildingBlock: CIFDUS_clean_linker_0, # of connection points: 2
#     Edge 9, Type (0, 0), BuildingBlock: CIFDUS_clean_linker_0, # of connection points: 2
#     Edge 10, Type (0, 0), BuildingBlock: CIFDUS_clean_linker_0, # of connection points: 2
#     Edge 11, Type (0, 0), BuildingBlock: CIFDUS_clean_linker_0, # of connection points: 2
#     Edge 12, Type (0, 0), BuildingBlock: CIFDUS_clean_linker_0, # of connection points: 2
#     Edge 13, Type (0, 0), BuildingBlock: CIFDUS_clean_linker_0, # of connection points: 2
#     Edge 14, Type (0, 0), BuildingBlock: CIFDUS_clean_linker_0, # of connection points: 2
#     Edge 15, Type (0, 0), BuildingBlock: CIFDUS_clean_linker_0, # of connection points: 2
#     Edge 16, Type (0, 0), BuildingBlock: CIFDUS_clean_linker_0, # of connection points: 2
#     Edge 17, Type (0, 0), BuildingBlock: CIFDUS_clean_linker_0, # of connection points: 2
#     Edge 18, Type (0, 0), BuildingBlock: CIFDUS_clean_linker_0, # of connection points: 2
#     Edge 19, Type (0, 0), BuildingBlock: CIFDUS_clean_linker_0, # of connection points: 2
#     Edge 20, Type (0, 0), BuildingBlock: CIFDUS_clean_linker_0, # of connection points: 2
#     Edge 21, Type (0, 0), BuildingBlock: CIFDUS_clean_linker_0, # of connection points: 2
#     Edge 22, Type (0, 0), BuildingBlock: CIFDUS_clean_linker_0, # of connection points: 2
#     Edge 23, Type (0, 0), BuildingBlock: CIFDUS_clean_linker_0, # of connection points: 2
# Relax obj value: 0.193
# Max RMSD: 0.298
# Mean RMSD: 0.277
data_MOF--net-smu--node1-CUKXOW_clean_sbu_0--edge1-CIFDUS_clean_linker_0
_symmetry_space_group_name_H-M    P1
_symmetry_Int_Tables_number       1
_symmetry_cell_setting            triclinic
loop_
_symmetry_equiv_pos_as_xyz
'x, y, z'
_cell_length_a     26.748413
_cell_length_b     26.717853
_cell_length_c     25.070417
_cell_angle_alpha  92.869348
_cell_angle_beta   91.61031
_cell_angle_gamma 120.04238
loop_
_atom_site_label
_atom_site_type_symbol
_atom_site_fract_x
_atom_site_fract_y
_atom_site_fract_z
_atom_type_partial_charge
Tb0 Tb 0.41537 0.16815 0.25631 0.0
C1 C 0.3814 0.11133 0.36991 0.0
Tb2 Tb 0.32822 0.04116 0.26446 0.0
O3 O 0.34633 0.17525 0.21748 0.0
O4 O 0.32848 0.12088 0.2794 0.0
O5 O 0.42224 0.15356 0.3432 0.0
C6 C 0.22348 0.94731 0.25929 0.0
O7 O 0.33289 0.07007 0.34581 0.0
C8 C 0.43804 0.06952 0.27136 0.0
C9 C 0.36846 0.08208 0.15011 0.0
O10 O 0.26961 0.95159 0.28292 0.0
O11 O 0.23708 0.995 0.2373 0.0
O12 O 0.39743 1.02224 0.2897 0.0
O13 O 0.41451 0.09068 0.24417 0.0
O14 O 0.32781 0.0434 0.17847 0.0
O15 O 0.41158 0.13259 0.17293 0.0
C16 C 0.49498 0.28155 0.25985 0.0
O17 O 0.43954 0.25953 0.25724 0.0
O18 O 0.50633 0.2396 0.26104 0.0
C19 C 0.30644 0.14002 0.24676 0.0
Tb20 Tb 0.76881 0.73453 0.28569 0.0
C21 C 0.77092 0.68981 0.39743 0.0
Tb22 Tb 0.79783 0.64073 0.29072 0.0
O23 O 0.67869 0.67065 0.25487 0.0
O24 O 0.72528 0.64705 0.30466 0.0
O25 O 0.78345 0.73597 0.37137 0.0
C26 C 0.82505 0.55644 0.29 0.0
O27 O 0.76542 0.64202 0.37151 0.0
C28 C 0.8881 0.74641 0.29915 0.0
C29 C 0.7671 0.67666 0.17717 0.0
O30 O 0.84751 0.60277 0.32191 0.0
O31 O 0.78521 0.55614 0.2587 0.0
O32 O 0.88177 0.70433 0.32638 0.0
O33 O 0.84347 0.72797 0.26812 0.0
O34 O 0.77392 0.63734 0.20304 0.0
O35 O 0.77201 0.72365 0.20181 0.0
C36 C 0.78795 0.84227 0.29463 0.0
O37 O 0.73731 0.79578 0.29513 0.0
O38 O 0.8271 0.82788 0.28884 0.0
C39 C 0.67965 0.62744 0.27589 0.0
Tb40 Tb 0.88403 0.26966 0.26288 0.0
C41 C 0.94998 0.29022 0.37751 0.0
Tb42 Tb 1.01254 0.29301 0.27792 0.0
O43 O 0.83894 0.17598 0.26895 0.0
O44 O 0.92694 0.22288 0.27433 0.0
O45 O 0.91215 0.29891 0.349 0.0
C46 C 0.09231 0.26293 0.26443 0.0
O47 O 0.98034 0.26915 0.35515 0.0
C48 C 0.99733 0.38382 0.2838 0.0
C49 C 0.9653 0.29681 0.16149 0.0
O50 O 0.09384 0.29699 0.30438 0.0
O51 O 0.04721 0.24731 0.23271 0.0
O52 O 0.04337 0.38565 0.30561 0.0
O53 O 0.96884 0.33638 0.25743 0.0
O54 O 1.00618 0.29652 0.19235 0.0
O55 O 0.91564 0.28999 0.18024 0.0
C56 C 0.77924 0.25884 0.25522 0.0
O57 O 0.79997 0.23712 0.22083 0.0
O58 O 0.81985 0.2913 0.29205 0.0
C59 C 0.88487 0.17245 0.276 0.0
Tb60 Tb 0.05692 0.3139 0.76509 0.0
C61 C 0.11133 0.37061 0.66292 0.0
Tb62 Tb 0.18212 0.41161 0.77606 0.0
O63 O 1.02942 0.37434 0.73585 0.0
O64 O 0.10169 0.40362 0.78748 0.0
O65 O 0.07741 0.32051 0.6828 0.0
C66 C 0.29207 0.496 0.79744 0.0
O67 O 0.15317 0.41602 0.69301 0.0
C68 C 0.16647 0.30853 0.74627 0.0
C69 C 0.1085 0.36446 0.88088 0.0
O70 O 0.25309 0.50075 0.76936 0.0
O71 O 0.26827 0.44466 0.81495 0.0
O72 O 0.20482 0.35665 0.72864 0.0
O73 O 0.13889 0.31992 0.78014 0.0
O74 O 0.15653 0.40644 0.86101 0.0
O75 O 0.06719 0.32091 0.85042 0.0
C76 C 0.96702 0.20743 0.76849 0.0
O77 O 0.96833 0.25497 0.78539 0.0
O78 O 1.0153 0.22019 0.7473 0.0
C79 C 0.07375 0.4202 0.75996 0.0
Tb80 Tb 0.30241 0.99928 0.75223 0.0
C81 C 0.29822 0.9515 0.63611 0.0
Tb82 Tb 0.26902 0.87368 0.73477 0.0
O83 O 0.39084 1.02348 0.78328 0.0
O84 O 0.34389 0.95265 0.72811 0.0
O85 O 0.2835 0.98305 0.66663 0.0
C86 C 0.24479 0.76279 0.73291 0.0
O87 O 0.30282 0.90829 0.65625 0.0
C88 C 0.18193 0.8934 0.73249 0.0
C89 C 0.29813 0.94015 0.8542 0.0
O90 O 0.21756 0.78219 0.70507 0.0
O91 O 0.28761 0.8065 0.76055 0.0
O92 O 0.18501 0.85492 0.70178 0.0
O93 O 0.22689 0.91824 0.7634 0.0
O94 O 0.2876 0.89258 0.82389 0.0
O95 O 0.29854 0.985 0.83446 0.0
C96 C 0.28614 0.08978 0.75361 0.0
O97 O 0.33295 0.09059 0.73912 0.0
O98 O 0.24983 0.03883 0.76813 0.0
C99 C 0.38838 0.97788 0.75903 0.0
Tb100 Tb 0.7442 0.75406 0.79378 0.0
C101 C 0.68635 0.75288 0.68224 0.0
Tb102 Tb 0.64355 0.78375 0.79316 0.0
O103 O 0.68157 0.6629 0.81221 0.0
O104 O 0.65507 0.71332 0.7746 0.0
O105 O 0.72835 0.75063 0.70895 0.0
C106 C 0.55256 0.79941 0.78338 0.0
O107 O 0.64676 0.76169 0.70616 0.0
C108 C 0.74572 0.87942 0.80875 0.0
C109 C 0.69554 0.76131 0.89977 0.0
O110 O 0.59308 0.81393 0.75021 0.0
O111 O 0.56108 0.77214 0.82127 0.0
O112 O 0.69669 0.87755 0.80889 0.0
O113 O 0.7346 0.82783 0.80228 0.0
O114 O 0.64741 0.75468 0.87445 0.0
O115 O 0.74462 0.78112 0.87576 0.0
C116 C 0.84985 0.775 0.77464 0.0
O117 O 0.8204 0.74573 0.81381 0.0
O118 O 0.81978 0.7912 0.74685 0.0
C119 C 0.6367 0.66636 0.7954 0.0
H120 H 0.38566 0.03569 0.9039 0.0
H121 H 0.24554 0.86644 0.93377 0.0
H122 H 0.25797 0.89618 0.02996 0.0
H123 H 0.30031 0.97382 0.10207 0.0
H124 H 0.43677 0.14522 0.07081 0.0
H125 H 0.43324 0.11123 0.97736 0.0
C126 C 0.3586 1.00483 0.93173 0.0
C127 C 0.31455 0.94893 0.91202 0.0
C128 C 0.36431 1.02324 0.98596 0.0
C129 C 0.28003 0.90927 0.94813 0.0
C130 C 0.28662 0.92674 1.00285 0.0
C131 C 0.3295 1.00415 0.07508 0.0
C132 C 0.36822 0.06267 0.09344 0.0
C133 C 0.3271 0.98428 0.02168 0.0
C134 C 0.40621 0.10044 0.05777 0.0
C135 C 0.40431 0.08087 1.00446 0.0
H136 H 0.69884 0.6675 0.63636 0.0
H137 H 0.66916 0.80654 0.59862 0.0
H138 H 0.69131 0.79705 0.50538 0.0
H139 H 0.72988 0.75691 0.43872 0.0
H140 H 0.76178 0.61918 0.4772 0.0
H141 H 0.72865 0.62104 0.56723 0.0
C142 C 0.69601 0.69496 0.60736 0.0
C143 C 0.6826 0.73791 0.62417 0.0
C144 C 0.71066 0.69042 0.55481 0.0
C145 C 0.6787 0.77289 0.58644 0.0
C146 C 0.69226 0.76796 0.53347 0.0
C147 C 0.72987 0.72726 0.46673 0.0
C148 C 0.74975 0.68876 0.45168 0.0
C149 C 0.71031 0.72832 0.5179 0.0
C150 C 0.74758 0.64963 0.48801 0.0
C151 C 0.72844 0.65063 0.53931 0.0
H152 H 0.07408 0.35685 0.12828 0.0
H153 H 0.89485 0.27487 0.0704 0.0
H154 H 0.92536 0.29449 0.97858 0.0
H155 H 1.00211 0.32744 0.91535 0.0
H156 H 0.18112 0.40725 0.97286 0.0
H157 H 0.15126 0.39655 0.0655 0.0
C158 C 0.04133 0.34311 0.09572 0.0
C159 C 0.98184 0.31318 0.10617 0.0
C160 C 0.05927 0.35419 0.04342 0.0
C161 C 0.94057 0.29746 0.06353 0.0
C162 C 0.95813 0.30856 1.01112 0.0
C163 C 0.03488 0.34281 0.94812 0.0
C164 C 0.09395 0.36725 0.93725 0.0
C165 C 1.01723 0.33571 1.00068 0.0
C166 C 0.13566 0.38826 0.98012 0.0
C167 C 0.11842 0.38172 0.03292 0.0
H168 H 0.37975 1.01723 0.40256 0.0
H169 H 0.39533 0.17891 0.46174 0.0
H170 H 0.37301 0.14278 0.55129 0.0
H171 H 0.33636 0.061 0.60813 0.0
H172 H 0.31584 0.89699 0.54803 0.0
H173 H 0.35219 0.93809 0.46241 0.0
C174 C 0.38029 0.04532 0.43566 0.0
C175 C 0.39002 0.10109 0.4259 0.0
C176 C 0.36459 1.02301 0.48594 0.0
C177 C 0.38948 0.13664 0.46857 0.0
C178 C 0.37555 0.11538 0.51938 0.0
C179 C 0.33957 0.03381 0.57642 0.0
C180 C 0.32181 0.97513 0.58416 0.0
C181 C 0.36071 0.05786 0.52777 0.0
C182 C 0.32823 0.94169 0.54298 0.0
C183 C 0.34925 0.96536 0.49418 0.0
H184 H 0.76512 0.72208 0.93599 0.0
H185 H 0.62214 0.74368 0.98125 0.0
H186 H 0.62569 0.70804 0.069 0.0
H187 H 0.67632 0.68093 0.13534 0.0
H188 H 0.82085 0.66232 0.09058 0.0
H189 H 0.80863 0.68481 0.9989 0.0
C190 C 0.73463 0.71924 0.96498 0.0
C191 C 0.69431 0.73728 0.95249 0.0
C192 C 0.73679 0.69836 1.01491 0.0
C193 C 0.65407 0.73115 0.99001 0.0
C194 C 0.65608 0.71058 0.04006 0.0
C195 C 0.70399 0.67996 0.10494 0.0
C196 C 0.74921 0.66943 0.11952 0.0
C197 C 0.69799 0.6952 0.05322 0.0
C198 C 0.78514 0.66898 0.08015 0.0
C199 C 0.7787 0.68294 0.02806 0.0
H200 H 0.05978 0.35872 0.41559 0.0
H201 H 0.88455 0.27553 0.46458 0.0
H202 H 0.9212 0.30083 0.5589 0.0
H203 H 1.0027 0.3348 0.6261 0.0
H204 H 0.17793 0.41658 0.57714 0.0
H205 H 0.14178 0.40454 0.48332 0.0
C206 C 1.02959 0.34701 0.44699 0.0
C207 C 0.96946 0.31463 0.43344 0.0
C208 C 0.05111 0.36114 0.50067 0.0
C209 C 0.9308 0.30038 0.47414 0.0
C210 C 0.95187 0.31452 0.52791 0.0
C211 C 1.03311 0.35097 0.59492 0.0
C212 C 0.09297 0.37593 0.60823 0.0
C213 C 1.01184 0.34312 0.54149 0.0
C214 C 0.1319 0.39738 0.56781 0.0
C215 C 0.11108 0.39001 0.51428 0.0
H216 H 0.52283 0.17078 0.319 0.0
H217 H 0.49343 1.01899 0.22356 0.0
H218 H 0.59683 0.0663 0.20724 0.0
H219 H 0.69416 0.15303 0.21597 0.0
H220 H 0.72421 0.30447 0.31311 0.0
H221 H 0.62131 0.25595 0.33171 0.0
C222 C 0.53927 0.14797 0.29509 0.0
C223 C 0.50085 0.09148 0.27264 0.0
C224 C 0.59838 0.17605 0.28508 0.0
C225 C 0.52252 0.06202 0.24209 0.0
C226 C 0.58139 0.08947 0.23211 0.0
C227 C 0.67804 0.17579 0.24061 0.0
C228 C 0.71645 0.23282 0.26223 0.0
C229 C 0.61942 0.14694 0.25239 0.0
C230 C 0.69529 0.26102 0.29534 0.0
C231 C 0.63663 0.23311 0.30626 0.0
H232 H 0.69502 0.54046 0.30484 0.0
H233 H 0.56995 0.57328 0.22642 0.0
H234 H 0.50125 0.46829 0.21462 0.0
H235 H 0.47705 0.36734 0.22844 0.0
H236 H 0.60745 0.33647 0.29833 0.0
H237 H 0.6751 0.44106 0.31028 0.0
C238 C 0.65319 0.5248 0.28422 0.0
C239 C 0.63765 0.56459 0.26631 0.0
C240 C 0.61524 0.46485 0.276 0.0
C241 C 0.58286 0.54351 0.24051 0.0
C242 C 0.54374 0.48356 0.23378 0.0
C243 C 0.52044 0.38366 0.24601 0.0
C244 C 0.53724 0.34442 0.26307 0.0
C245 C 0.55944 0.44386 0.25161 0.0
C246 C 0.59364 0.36584 0.28509 0.0
C247 C 0.63214 0.42558 0.29208 0.0
H248 H 0.90395 0.37552 0.23284 0.0
H249 H 0.0399 0.48236 0.3531 0.0
H250 H 0.99669 0.54428 0.36687 0.0
H251 H 0.91962 0.56702 0.34416 0.0
H252 H 0.78342 0.45729 0.22489 0.0
H253 H 0.82657 0.39581 0.21232 0.0
C254 C 0.92422 0.41219 0.26236 0.0
C255 C 0.97509 0.42433 0.29206 0.0
C256 C 0.89859 0.44638 0.27051 0.0
C257 C 1.00096 0.47234 0.32964 0.0
C258 C 0.97601 0.50739 0.33763 0.0
C259 C 0.89917 0.52935 0.3157 0.0
C260 C 0.84829 0.51656 0.28539 0.0
C261 C 0.92468 0.49462 0.30836 0.0
C262 C 0.82243 0.46791 0.24858 0.0
C263 C 0.84726 0.433 0.24127 0.0
H264 H 0.16895 0.51357 0.80672 0.0
H265 H 1.03055 0.46469 0.68693 0.0
H266 H 0.07288 0.56651 0.66625 0.0
H267 H 0.1495 0.66963 0.68297 0.0
H268 H 0.29009 0.71635 0.79994 0.0
H269 H 0.24794 0.61467 0.8196 0.0
C270 C 0.14831 0.52506 0.77566 0.0
C271 C 0.09672 0.48162 0.74828 0.0
C272 C 0.1738 0.58317 0.76311 0.0
C273 C 0.07003 0.49734 0.70878 0.0
C274 C 0.09448 0.55548 0.69677 0.0
C275 C 0.17122 0.65741 0.71234 0.0
C276 C 0.22292 0.70053 0.74002 0.0
C277 C 0.14646 0.59877 0.72362 0.0
C278 C 0.25045 0.68407 0.77804 0.0
C279 C 0.22612 0.62599 0.78952 0.0
H280 H 0.38153 0.89485 0.82186 0.0
H281 H 0.4861 1.012 0.70675 0.0
H282 H 0.54466 0.96493 0.70243 0.0
H283 H 0.56284 0.88776 0.7282 0.0
H284 H 0.45826 0.76968 0.84304 0.0
H285 H 0.401 0.81831 0.84928 0.0
C286 C 0.41738 0.91036 0.79623 0.0
C287 C 0.42997 0.95723 0.76502 0.0
C288 C 0.4497 0.88197 0.79302 0.0
C289 C 0.47652 0.97681 0.7319 0.0
C290 C 0.5094 0.94939 0.72895 0.0
C291 C 0.5272 0.87228 0.75433 0.0
C292 C 0.5143 0.82471 0.78474 0.0
C293 C 0.49571 0.90133 0.75861 0.0
C294 C 0.46867 0.80587 0.81901 0.0
C295 C 0.43629 0.83394 0.8228 0.0
H296 H 0.37828 0.48147 0.84088 0.0
H297 H 0.34754 0.60178 0.75723 0.0
H298 H 0.45151 0.66404 0.74943 0.0
H299 H 0.54956 0.68092 0.76092 0.0
H300 H 0.58379 0.56448 0.84689 0.0
H301 H 0.47944 0.50277 0.85816 0.0
C302 C 0.39451 0.52174 0.8216 0.0
C303 C 0.35524 0.537 0.79949 0.0
C304 C 0.45456 0.55716 0.81684 0.0
C305 C 0.37678 0.58912 0.77451 0.0
C306 C 0.43619 0.62453 0.76978 0.0
C307 C 0.53451 0.64247 0.78283 0.0
C308 C 0.57441 0.62735 0.8032 0.0
C309 C 0.47521 0.60841 0.78992 0.0
C310 C 0.55393 0.57689 0.83069 0.0
C311 C 0.49436 0.54187 0.83726 0.0
H312 H 0.25138 0.17135 0.1776 0.0
H313 H 0.25585 0.13314 0.34202 0.0
H314 H 0.19194 0.17161 0.36362 0.0
H315 H 0.13948 0.22211 0.33592 0.0
H316 H 0.13361 0.25591 0.1702 0.0
H317 H 0.19466 0.21467 0.14898 0.0
C318 C 0.23743 0.1705 0.21796 0.0
C319 C 0.25812 0.14966 0.25814 0.0
C320 C 0.20184 0.19345 0.23005 0.0
C321 C 0.23989 0.14855 0.31031 0.0
C322 C 0.20406 0.17127 0.32278 0.0
C323 C 0.15247 0.22102 0.29548 0.0
C324 C 0.13364 0.24313 0.25478 0.0
C325 C 0.18597 0.19524 0.28319 0.0
C326 C 0.14869 0.2399 0.20212 0.0
C327 C 0.18308 0.21594 0.18991 0.0
H328 H 0.98753 0.75513 0.3358 0.0
H329 H 0.92068 0.83572 0.233 0.0
H330 H 1.01957 0.90405 0.2092 0.0
H331 H 0.12492 0.94012 0.21839 0.0
H332 H 0.18838 0.85424 0.31814 0.0
H333 H 0.08984 0.78685 0.34115 0.0
C334 C 0.99428 0.78769 0.30824 0.0
C335 C 0.9469 0.79082 0.28653 0.0
C336 C 0.05037 0.82493 0.29355 0.0
C337 C 0.95657 0.83295 0.25061 0.0
C338 C 1.01295 0.87159 0.23676 0.0
C339 C 0.11693 0.90609 0.24459 0.0
C340 C 0.16364 0.90192 0.26662 0.0
C341 C 0.06013 0.8677 0.25785 0.0
C342 C 0.15303 0.85797 0.30057 0.0
C343 C 0.09683 0.81982 0.31404 0.0
H344 H 0.79232 0.07839 0.30341 0.0
H345 H 0.97132 0.14373 0.27155 0.0
H346 H 0.95734 0.04574 0.27768 0.0
H347 H 0.89085 0.94025 0.28507 0.0
H348 H 0.71123 0.87804 0.31309 0.0
H349 H 0.72873 0.97695 0.31522 0.0
C350 C 0.82863 0.0715 0.2981 0.0
C351 C 0.88262 0.11775 0.28637 0.0
C352 C 0.81977 1.01573 0.30053 0.0
C353 C 0.92939 0.10853 0.28045 0.0
C354 C 0.92118 0.05258 0.28366 0.0
C355 C 0.85576 0.94863 0.29197 0.0
C356 C 0.79965 0.9022 0.29853 0.0
C357 C 0.8661 1.00564 0.2925 0.0
C358 C 0.75451 0.91317 0.30761 0.0
C359 C 0.76454 0.96959 0.30889 0.0
H360 H 0.25513 0.30163 0.70553 0.0
H361 H 0.10201 0.20591 0.79235 0.0
H362 H 0.12589 0.12925 0.80212 0.0
H363 H 0.1925 0.09173 0.78859 0.0
H364 H 0.34842 0.19117 0.70658 0.0
H365 H 0.3219 0.26527 0.69327 0.0
C366 C 0.22662 0.26379 0.72627 0.0
C367 C 0.1766 0.25915 0.74792 0.0
C368 C 0.24176 0.2213 0.73334 0.0
C369 C 0.14041 0.21012 0.77495 0.0
C370 C 0.15434 0.16661 0.78088 0.0
C371 C 0.22077 0.12983 0.76804 0.0
C372 C 0.27246 0.13635 0.74871 0.0
C373 C 0.20531 0.17219 0.76082 0.0
C374 C 0.30871 0.18563 0.72211 0.0
C375 C 0.29336 0.2277 0.71424 0.0
H376 H 0.08269 0.83715 0.67182 0.0
H377 H 0.15356 0.92528 0.82759 0.0
H378 H 0.05565 0.89194 0.85665 0.0
H379 H 0.949 0.83424 0.83801 0.0
H380 H 0.88041 0.75063 0.68048 0.0
H381 H 0.97819 0.78412 0.65206 0.0
C382 C 0.07667 0.84964 0.71194 0.0
C383 C 0.12496 0.88337 0.74755 0.0
C384 C 1.02063 0.82975 0.72837 0.0
C385 C 0.11686 0.89958 0.79935 0.0
C386 C 0.06093 0.87997 0.81614 0.0
C387 C 0.95586 0.82261 0.79793 0.0
C388 C 0.90816 0.78872 0.76165 0.0
C389 C 1.0124 0.84405 0.78128 0.0
C390 C 0.91691 0.77559 0.70916 0.0
C391 C 0.97264 0.7952 0.6928 0.0
H392 H 0.96566 0.10555 0.74631 0.0
H393 H 0.87088 0.17876 0.82129 0.0
H394 H 0.80021 0.08379 0.84867 0.0
H395 H 0.76262 0.98058 0.8474 0.0
H396 H 0.84967 0.90239 0.76702 0.0
H397 H 0.92803 0.99919 0.74763 0.0
C398 C 0.92923 0.10038 0.76832 0.0
C399 C 0.92287 0.14883 0.78121 0.0
C400 C 0.88841 0.04527 0.78385 0.0
C401 C 0.87617 0.142 0.81035 0.0
C402 C 0.83607 0.08785 0.82639 0.0
C403 C 0.79927 0.98466 0.82636 0.0
C404 C 0.80058 0.93468 0.80856 0.0
C405 C 0.84162 0.03938 0.81306 0.0
C406 C 0.84822 0.94039 0.78165 0.0
C407 C 0.89235 0.99563 0.76985 0.0
loop_
_geom_bond_atom_site_label_1
_geom_bond_atom_site_label_2
_geom_bond_distance
_geom_bond_site_symmetry_2
_ccdc_geom_bond_type
Tb0 O3 2.453 . S
Tb0 O4 2.596 . S
Tb0 O5 2.374 . S
Tb0 O13 2.343 . S
Tb0 O15 2.353 . S
Tb0 O17 2.427 . S
Tb0 O18 2.513 . S
C1 O5 1.251 . S
C1 O7 1.263 . S
Tb2 O4 2.343 . S
Tb2 O7 2.353 . S
Tb2 O10 2.427 1_545 S
Tb2 O11 2.513 1_545 S
Tb2 O12 2.453 . S
Tb2 O13 2.596 . S
Tb2 O14 2.374 . S
O3 Tb0 2.453 . S
O3 C19 1.245 . S
O4 Tb0 2.596 . S
O4 Tb2 2.343 . S
O4 C19 1.259 . S
O5 Tb0 2.374 . S
O5 C1 1.251 . S
C6 O10 1.275 . S
C6 O11 1.246 . S
O7 C1 1.263 . S
O7 Tb2 2.353 . S
C8 O12 1.245 . S
C8 O13 1.259 . S
C9 O14 1.250 . S
C9 O15 1.263 . S
O10 Tb2 2.427 1_565 S
O10 C6 1.275 . S
O11 Tb2 2.513 1_565 S
O11 C6 1.246 . S
O12 Tb2 2.453 . S
O12 C8 1.245 . S
O13 Tb0 2.343 . S
O13 Tb2 2.596 . S
O13 C8 1.259 . S
O14 Tb2 2.374 . S
O14 C9 1.250 . S
O15 Tb0 2.353 . S
O15 C9 1.263 . S
C16 O17 1.275 . S
C16 O18 1.246 . S
O17 Tb0 2.427 . S
O17 C16 1.275 . S
O18 Tb0 2.513 . S
O18 C16 1.246 . S
C19 O3 1.245 . S
C19 O4 1.259 . S
Tb20 O23 2.453 . S
Tb20 O24 2.596 . S
Tb20 O25 2.374 . S
Tb20 O33 2.343 . S
Tb20 O35 2.353 . S
Tb20 O37 2.427 . S
Tb20 O38 2.513 . S
C21 O25 1.251 . S
C21 O27 1.263 . S
Tb22 O24 2.343 . S
Tb22 O27 2.353 . S
Tb22 O30 2.427 . S
Tb22 O31 2.513 . S
Tb22 O32 2.453 . S
Tb22 O33 2.596 . S
Tb22 O34 2.374 . S
O23 Tb20 2.453 . S
O23 C39 1.245 . S
O24 Tb20 2.596 . S
O24 Tb22 2.343 . S
O24 C39 1.259 . S
O25 Tb20 2.374 . S
O25 C21 1.251 . S
C26 O30 1.275 . S
C26 O31 1.246 . S
O27 C21 1.263 . S
O27 Tb22 2.353 . S
C28 O32 1.245 . S
C28 O33 1.259 . S
C29 O34 1.250 . S
C29 O35 1.263 . S
O30 Tb22 2.427 . S
O30 C26 1.275 . S
O31 Tb22 2.513 . S
O31 C26 1.246 . S
O32 Tb22 2.453 . S
O32 C28 1.245 . S
O33 Tb20 2.343 . S
O33 Tb22 2.596 . S
O33 C28 1.259 . S
O34 Tb22 2.374 . S
O34 C29 1.250 . S
O35 Tb20 2.353 . S
O35 C29 1.263 . S
C36 O37 1.275 . S
C36 O38 1.246 . S
O37 Tb20 2.427 . S
O37 C36 1.275 . S
O38 Tb20 2.513 . S
O38 C36 1.246 . S
C39 O23 1.245 . S
C39 O24 1.259 . S
Tb40 O43 2.453 . S
Tb40 O44 2.596 . S
Tb40 O45 2.374 . S
Tb40 O53 2.343 . S
Tb40 O55 2.353 . S
Tb40 O57 2.427 . S
Tb40 O58 2.513 . S
C41 O45 1.251 . S
C41 O47 1.263 . S
Tb42 O44 2.343 . S
Tb42 O47 2.353 . S
Tb42 O50 2.427 1_655 S
Tb42 O51 2.513 1_655 S
Tb42 O52 2.453 . S
Tb42 O53 2.596 . S
Tb42 O54 2.374 . S
O43 Tb40 2.453 . S
O43 C59 1.245 . S
O44 Tb40 2.596 . S
O44 Tb42 2.343 . S
O44 C59 1.259 . S
O45 Tb40 2.374 . S
O45 C41 1.251 . S
C46 O50 1.275 . S
C46 O51 1.246 . S
O47 C41 1.263 . S
O47 Tb42 2.353 . S
C48 O52 1.245 . S
C48 O53 1.259 . S
C49 O54 1.250 . S
C49 O55 1.263 . S
O50 Tb42 2.427 1_455 S
O50 C46 1.275 . S
O51 Tb42 2.513 1_455 S
O51 C46 1.246 . S
O52 Tb42 2.453 . S
O52 C48 1.245 . S
O53 Tb40 2.343 . S
O53 Tb42 2.596 . S
O53 C48 1.259 . S
O54 Tb42 2.374 . S
O54 C49 1.250 . S
O55 Tb40 2.353 . S
O55 C49 1.263 . S
C56 O57 1.275 . S
C56 O58 1.246 . S
O57 Tb40 2.427 . S
O57 C56 1.275 . S
O58 Tb40 2.513 . S
O58 C56 1.246 . S
C59 O43 1.245 . S
C59 O44 1.259 . S
Tb60 O63 2.453 . S
Tb60 O64 2.596 . S
Tb60 O65 2.374 . S
Tb60 O73 2.343 . S
Tb60 O75 2.353 . S
Tb60 O77 2.427 1_455 S
Tb60 O78 2.513 1_455 S
C61 O65 1.251 . S
C61 O67 1.263 . S
Tb62 O64 2.343 . S
Tb62 O67 2.353 . S
Tb62 O70 2.427 . S
Tb62 O71 2.513 . S
Tb62 O72 2.453 . S
Tb62 O73 2.596 . S
Tb62 O74 2.374 . S
O63 Tb60 2.453 . S
O63 C79 1.245 . S
O64 Tb60 2.596 . S
O64 Tb62 2.343 . S
O64 C79 1.259 . S
O65 Tb60 2.374 . S
O65 C61 1.251 . S
C66 O70 1.275 . S
C66 O71 1.246 . S
O67 C61 1.263 . S
O67 Tb62 2.353 . S
C68 O72 1.245 . S
C68 O73 1.259 . S
C69 O74 1.250 . S
C69 O75 1.263 . S
O70 Tb62 2.427 . S
O70 C66 1.275 . S
O71 Tb62 2.513 . S
O71 C66 1.246 . S
O72 Tb62 2.453 . S
O72 C68 1.245 . S
O73 Tb60 2.343 . S
O73 Tb62 2.596 . S
O73 C68 1.259 . S
O74 Tb62 2.374 . S
O74 C69 1.250 . S
O75 Tb60 2.353 . S
O75 C69 1.263 . S
C76 O77 1.275 . S
C76 O78 1.246 . S
O77 Tb60 2.427 1_655 S
O77 C76 1.275 . S
O78 Tb60 2.513 1_655 S
O78 C76 1.246 . S
C79 O63 1.245 . S
C79 O64 1.259 . S
Tb80 O83 2.453 . S
Tb80 O84 2.596 . S
Tb80 O85 2.374 . S
Tb80 O93 2.343 . S
Tb80 O95 2.353 . S
Tb80 O97 2.427 1_565 S
Tb80 O98 2.513 1_565 S
C81 O85 1.251 . S
C81 O87 1.263 . S
Tb82 O84 2.343 . S
Tb82 O87 2.353 . S
Tb82 O90 2.427 . S
Tb82 O91 2.513 . S
Tb82 O92 2.453 . S
Tb82 O93 2.596 . S
Tb82 O94 2.374 . S
O83 Tb80 2.453 . S
O83 C99 1.245 . S
O84 Tb80 2.596 . S
O84 Tb82 2.343 . S
O84 C99 1.259 . S
O85 Tb80 2.374 . S
O85 C81 1.251 . S
C86 O90 1.275 . S
C86 O91 1.246 . S
O87 C81 1.263 . S
O87 Tb82 2.353 . S
C88 O92 1.245 . S
C88 O93 1.259 . S
C89 O94 1.250 . S
C89 O95 1.263 . S
O90 Tb82 2.427 . S
O90 C86 1.275 . S
O91 Tb82 2.513 . S
O91 C86 1.246 . S
O92 Tb82 2.453 . S
O92 C88 1.245 . S
O93 Tb80 2.343 . S
O93 Tb82 2.596 . S
O93 C88 1.259 . S
O94 Tb82 2.374 . S
O94 C89 1.250 . S
O95 Tb80 2.353 . S
O95 C89 1.263 . S
C96 O97 1.275 . S
C96 O98 1.246 . S
O97 Tb80 2.427 1_545 S
O97 C96 1.275 . S
O98 Tb80 2.513 1_545 S
O98 C96 1.246 . S
C99 O83 1.245 . S
C99 O84 1.259 . S
Tb100 O103 2.453 . S
Tb100 O104 2.596 . S
Tb100 O105 2.374 . S
Tb100 O113 2.343 . S
Tb100 O115 2.353 . S
Tb100 O117 2.427 . S
Tb100 O118 2.513 . S
C101 O105 1.251 . S
C101 O107 1.263 . S
Tb102 O104 2.343 . S
Tb102 O107 2.353 . S
Tb102 O110 2.427 . S
Tb102 O111 2.513 . S
Tb102 O112 2.453 . S
Tb102 O113 2.596 . S
Tb102 O114 2.374 . S
O103 Tb100 2.453 . S
O103 C119 1.245 . S
O104 Tb100 2.596 . S
O104 Tb102 2.343 . S
O104 C119 1.259 . S
O105 Tb100 2.374 . S
O105 C101 1.251 . S
C106 O110 1.275 . S
C106 O111 1.246 . S
O107 C101 1.263 . S
O107 Tb102 2.353 . S
C108 O112 1.245 . S
C108 O113 1.259 . S
C109 O114 1.250 . S
C109 O115 1.263 . S
O110 Tb102 2.427 . S
O110 C106 1.275 . S
O111 Tb102 2.513 . S
O111 C106 1.246 . S
O112 Tb102 2.453 . S
O112 C108 1.245 . S
O113 Tb100 2.343 . S
O113 Tb102 2.596 . S
O113 C108 1.259 . S
O114 Tb102 2.374 . S
O114 C109 1.250 . S
O115 Tb100 2.353 . S
O115 C109 1.263 . S
C116 O117 1.275 . S
C116 O118 1.246 . S
O117 Tb100 2.427 . S
O117 C116 1.275 . S
O118 Tb100 2.513 . S
O118 C116 1.246 . S
C119 O103 1.245 . S
C119 O104 1.259 . S
H120 C126 0.930 . S
H121 C129 0.930 . S
H122 C130 0.930 1_554 S
H123 C131 0.930 . S
H124 C134 0.930 . S
H125 C135 0.930 1_556 S
C126 H120 0.930 . S
C126 C127 1.355 . S
C126 C128 1.415 1_565 S
C127 C126 1.355 . S
C127 C129 1.419 . S
C128 C126 1.415 1_545 S
C128 C133 1.429 1_546 S
C128 C135 1.409 1_556 S
C129 H121 0.930 . S
C129 C127 1.419 . S
C129 C130 1.362 . S
C130 H122 0.930 1_556 S
C130 C129 1.362 . S
C130 C133 1.411 1_556 S
C131 H123 0.930 . S
C131 C132 1.355 . S
C131 C133 1.410 1_545 S
C132 C131 1.355 . S
C132 C134 1.419 . S
C133 C128 1.429 1_564 S
C133 C130 1.411 1_554 S
C133 C131 1.410 1_565 S
C134 H124 0.930 . S
C134 C132 1.419 . S
C134 C135 1.362 . S
C135 H125 0.930 1_554 S
C135 C128 1.409 1_554 S
C135 C134 1.362 . S
H136 C142 0.930 . S
H137 C145 0.930 . S
H138 C146 0.930 . S
H139 C147 0.930 . S
H140 C150 0.930 . S
H141 C151 0.930 . S
C142 H136 0.930 . S
C142 C143 1.355 . S
C142 C144 1.415 . S
C143 C142 1.355 . S
C143 C145 1.419 . S
C144 C142 1.415 . S
C144 C149 1.425 . S
C144 C151 1.409 . S
C145 H137 0.930 . S
C145 C143 1.419 . S
C145 C146 1.362 . S
C146 H138 0.930 . S
C146 C145 1.362 . S
C146 C149 1.409 . S
C147 H139 0.930 . S
C147 C148 1.355 . S
C147 C149 1.415 . S
C148 C147 1.355 . S
C148 C150 1.419 . S
C149 C144 1.425 . S
C149 C146 1.409 . S
C149 C147 1.415 . S
C150 H140 0.930 . S
C150 C148 1.419 . S
C150 C151 1.362 . S
C151 H141 0.930 . S
C151 C144 1.409 . S
C151 C150 1.362 . S
H152 C158 0.930 1_455 S
H153 C161 0.930 . S
H154 C162 0.930 . S
H155 C163 0.930 1_655 S
H156 C166 0.930 . S
H157 C167 0.930 . S
C158 H152 0.930 1_655 S
C158 C159 1.355 . S
C158 C160 1.415 1_655 S
C159 C158 1.355 . S
C159 C161 1.419 . S
C160 C158 1.415 1_455 S
C160 C165 1.425 1_454 S
C160 C167 1.409 . S
C161 H153 0.930 . S
C161 C159 1.419 . S
C161 C162 1.362 1_554 S
C162 H154 0.930 . S
C162 C161 1.362 1_556 S
C162 C165 1.409 . S
C163 H155 0.930 1_455 S
C163 C164 1.355 . S
C163 C165 1.415 1_455 S
C164 C163 1.355 . S
C164 C166 1.419 . S
C165 C160 1.425 1_656 S
C165 C162 1.409 . S
C165 C163 1.415 1_655 S
C166 H156 0.930 . S
C166 C164 1.419 . S
C166 C167 1.362 1_556 S
C167 H157 0.930 . S
C167 C160 1.409 . S
C167 C166 1.362 1_554 S
H168 C174 0.930 . S
H169 C177 0.930 . S
H170 C178 0.930 . S
H171 C179 0.930 . S
H172 C182 0.930 . S
H173 C183 0.930 . S
C174 H168 0.930 . S
C174 C175 1.355 . S
C174 C176 1.415 1_545 S
C175 C174 1.355 . S
C175 C177 1.419 . S
C176 C174 1.415 1_565 S
C176 C181 1.429 1_565 S
C176 C183 1.409 . S
C177 H169 0.930 . S
C177 C175 1.419 . S
C177 C178 1.362 . S
C178 H170 0.930 . S
C178 C177 1.362 . S
C178 C181 1.411 . S
C179 H171 0.930 . S
C179 C180 1.355 . S
C179 C181 1.409 1_565 S
C180 C179 1.355 . S
C180 C182 1.419 . S
C181 C176 1.429 1_545 S
C181 C178 1.411 . S
C181 C179 1.409 1_545 S
C182 H172 0.930 . S
C182 C180 1.419 . S
C182 C183 1.362 . S
C183 H173 0.930 . S
C183 C176 1.409 . S
C183 C182 1.362 . S
H184 C190 0.930 . S
H185 C193 0.930 . S
H186 C194 0.930 . S
H187 C195 0.930 . S
H188 C198 0.930 . S
H189 C199 0.930 . S
C190 H184 0.930 . S
C190 C191 1.355 . S
C190 C192 1.415 . S
C191 C190 1.355 . S
C191 C193 1.419 . S
C192 C190 1.415 . S
C192 C197 1.425 1_556 S
C192 C199 1.409 . S
C193 H185 0.930 . S
C193 C191 1.419 . S
C193 C194 1.362 1_556 S
C194 H186 0.930 . S
C194 C193 1.362 1_554 S
C194 C197 1.409 . S
C195 H187 0.930 . S
C195 C196 1.355 . S
C195 C197 1.415 . S
C196 C195 1.355 . S
C196 C198 1.419 . S
C197 C192 1.425 1_554 S
C197 C194 1.409 . S
C197 C195 1.415 . S
C198 H188 0.930 . S
C198 C196 1.419 . S
C198 C199 1.362 1_554 S
C199 H189 0.930 . S
C199 C192 1.409 . S
C199 C198 1.362 1_556 S
H200 C206 0.930 . S
H201 C209 0.930 . S
H202 C210 0.930 . S
H203 C211 0.930 . S
H204 C214 0.930 . S
H205 C215 0.930 . S
C206 H200 0.930 . S
C206 C207 1.355 . S
C206 C208 1.415 . S
C207 C206 1.355 . S
C207 C209 1.419 . S
C208 C206 1.415 . S
C208 C213 1.425 1_655 S
C208 C215 1.409 . S
C209 H201 0.930 . S
C209 C207 1.419 . S
C209 C210 1.362 1_655 S
C210 H202 0.930 . S
C210 C209 1.362 1_455 S
C210 C213 1.409 . S
C211 H203 0.930 . S
C211 C212 1.355 . S
C211 C213 1.415 . S
C212 C211 1.355 . S
C212 C214 1.419 . S
C213 C208 1.425 1_455 S
C213 C210 1.409 . S
C213 C211 1.415 . S
C214 H204 0.930 . S
C214 C212 1.419 . S
C214 C215 1.362 1_455 S
C215 H205 0.930 . S
C215 C208 1.409 . S
C215 C214 1.362 1_655 S
H216 C222 0.930 . S
H217 C225 0.930 . S
H218 C226 0.930 . S
H219 C227 0.930 . S
H220 C230 0.930 . S
H221 C231 0.930 . S
C222 H216 0.930 . S
C222 C223 1.355 . S
C222 C224 1.415 . S
C223 C222 1.355 . S
C223 C225 1.419 . S
C224 C222 1.415 . S
C224 C229 1.425 . S
C224 C231 1.409 . S
C225 H217 0.930 . S
C225 C223 1.419 . S
C225 C226 1.362 . S
C226 H218 0.930 . S
C226 C225 1.362 . S
C226 C229 1.409 . S
C227 H219 0.930 . S
C227 C228 1.355 . S
C227 C229 1.415 . S
C228 C227 1.355 . S
C228 C230 1.419 . S
C229 C224 1.425 . S
C229 C226 1.409 . S
C229 C227 1.415 . S
C230 H220 0.930 . S
C230 C228 1.419 . S
C230 C231 1.362 . S
C231 H221 0.930 . S
C231 C224 1.409 . S
C231 C230 1.362 . S
H232 C238 0.930 . S
H233 C241 0.930 . S
H234 C242 0.930 . S
H235 C243 0.930 . S
H236 C246 0.930 . S
H237 C247 0.930 . S
C238 H232 0.930 . S
C238 C239 1.355 . S
C238 C240 1.415 . S
C239 C238 1.355 . S
C239 C241 1.419 . S
C240 C238 1.415 . S
C240 C245 1.425 . S
C240 C247 1.409 . S
C241 H233 0.930 . S
C241 C239 1.419 . S
C241 C242 1.362 . S
C242 H234 0.930 . S
C242 C241 1.362 . S
C242 C245 1.409 . S
C243 H235 0.930 . S
C243 C244 1.355 . S
C243 C245 1.415 . S
C244 C243 1.355 . S
C244 C246 1.419 . S
C245 C240 1.425 . S
C245 C242 1.409 . S
C245 C243 1.415 . S
C246 H236 0.930 . S
C246 C244 1.419 . S
C246 C247 1.362 . S
C247 H237 0.930 . S
C247 C240 1.409 . S
C247 C246 1.362 . S
H248 C254 0.930 . S
H249 C257 0.930 . S
H250 C258 0.930 . S
H251 C259 0.930 . S
H252 C262 0.930 . S
H253 C263 0.930 . S
C254 H248 0.930 . S
C254 C255 1.355 . S
C254 C256 1.415 . S
C255 C254 1.355 . S
C255 C257 1.419 . S
C256 C254 1.415 . S
C256 C261 1.425 . S
C256 C263 1.409 . S
C257 H249 0.930 . S
C257 C255 1.419 . S
C257 C258 1.362 . S
C258 H250 0.930 . S
C258 C257 1.362 . S
C258 C261 1.409 . S
C259 H251 0.930 . S
C259 C260 1.355 . S
C259 C261 1.415 . S
C260 C259 1.355 . S
C260 C262 1.419 . S
C261 C256 1.425 . S
C261 C258 1.409 . S
C261 C259 1.415 . S
C262 H252 0.930 . S
C262 C260 1.419 . S
C262 C263 1.362 . S
C263 H253 0.930 . S
C263 C256 1.409 . S
C263 C262 1.362 . S
H264 C270 0.930 . S
H265 C273 0.930 . S
H266 C274 0.930 . S
H267 C275 0.930 . S
H268 C278 0.930 . S
H269 C279 0.930 . S
C270 H264 0.930 . S
C270 C271 1.355 . S
C270 C272 1.415 . S
C271 C270 1.355 . S
C271 C273 1.419 . S
C272 C270 1.415 . S
C272 C277 1.425 . S
C272 C279 1.409 . S
C273 H265 0.930 . S
C273 C271 1.419 . S
C273 C274 1.362 . S
C274 H266 0.930 . S
C274 C273 1.362 . S
C274 C277 1.409 . S
C275 H267 0.930 . S
C275 C276 1.355 . S
C275 C277 1.415 . S
C276 C275 1.355 . S
C276 C278 1.419 . S
C277 C272 1.425 . S
C277 C274 1.409 . S
C277 C275 1.415 . S
C278 H268 0.930 . S
C278 C276 1.419 . S
C278 C279 1.362 . S
C279 H269 0.930 . S
C279 C272 1.409 . S
C279 C278 1.362 . S
H280 C286 0.930 . S
H281 C289 0.930 . S
H282 C290 0.930 . S
H283 C291 0.930 . S
H284 C294 0.930 . S
H285 C295 0.930 . S
C286 H280 0.930 . S
C286 C287 1.355 . S
C286 C288 1.415 . S
C287 C286 1.355 . S
C287 C289 1.419 . S
C288 C286 1.415 . S
C288 C293 1.425 . S
C288 C295 1.409 . S
C289 H281 0.930 . S
C289 C287 1.419 . S
C289 C290 1.362 . S
C290 H282 0.930 . S
C290 C289 1.362 . S
C290 C293 1.409 . S
C291 H283 0.930 . S
C291 C292 1.355 . S
C291 C293 1.415 . S
C292 C291 1.355 . S
C292 C294 1.419 . S
C293 C288 1.425 . S
C293 C290 1.409 . S
C293 C291 1.415 . S
C294 H284 0.930 . S
C294 C292 1.419 . S
C294 C295 1.362 . S
C295 H285 0.930 . S
C295 C288 1.409 . S
C295 C294 1.362 . S
H296 C302 0.930 . S
H297 C305 0.930 . S
H298 C306 0.930 . S
H299 C307 0.930 . S
H300 C310 0.930 . S
H301 C311 0.930 . S
C302 H296 0.930 . S
C302 C303 1.355 . S
C302 C304 1.415 . S
C303 C302 1.355 . S
C303 C305 1.419 . S
C304 C302 1.415 . S
C304 C309 1.425 . S
C304 C311 1.409 . S
C305 H297 0.930 . S
C305 C303 1.419 . S
C305 C306 1.362 . S
C306 H298 0.930 . S
C306 C305 1.362 . S
C306 C309 1.409 . S
C307 H299 0.930 . S
C307 C308 1.355 . S
C307 C309 1.415 . S
C308 C307 1.355 . S
C308 C310 1.419 . S
C309 C304 1.425 . S
C309 C306 1.409 . S
C309 C307 1.415 . S
C310 H300 0.930 . S
C310 C308 1.419 . S
C310 C311 1.362 . S
C311 H301 0.930 . S
C311 C304 1.409 . S
C311 C310 1.362 . S
H312 C318 0.930 . S
H313 C321 0.930 . S
H314 C322 0.930 . S
H315 C323 0.930 . S
H316 C326 0.930 . S
H317 C327 0.930 . S
C318 H312 0.930 . S
C318 C319 1.355 . S
C318 C320 1.415 . S
C319 C318 1.355 . S
C319 C321 1.419 . S
C320 C318 1.415 . S
C320 C325 1.425 . S
C320 C327 1.409 . S
C321 H313 0.930 . S
C321 C319 1.419 . S
C321 C322 1.362 . S
C322 H314 0.930 . S
C322 C321 1.362 . S
C322 C325 1.409 . S
C323 H315 0.930 . S
C323 C324 1.355 . S
C323 C325 1.415 . S
C324 C323 1.355 . S
C324 C326 1.419 . S
C325 C320 1.425 . S
C325 C322 1.409 . S
C325 C323 1.415 . S
C326 H316 0.930 . S
C326 C324 1.419 . S
C326 C327 1.362 . S
C327 H317 0.930 . S
C327 C320 1.409 . S
C327 C326 1.362 . S
H328 C334 0.930 . S
H329 C337 0.930 . S
H330 C338 0.930 . S
H331 C339 0.930 . S
H332 C342 0.930 . S
H333 C343 0.930 . S
C334 H328 0.930 . S
C334 C335 1.355 . S
C334 C336 1.415 1_655 S
C335 C334 1.355 . S
C335 C337 1.419 . S
C336 C334 1.415 1_455 S
C336 C341 1.425 . S
C336 C343 1.409 . S
C337 H329 0.930 . S
C337 C335 1.419 . S
C337 C338 1.362 . S
C338 H330 0.930 . S
C338 C337 1.362 . S
C338 C341 1.409 1_655 S
C339 H331 0.930 . S
C339 C340 1.355 . S
C339 C341 1.415 . S
C340 C339 1.355 . S
C340 C342 1.419 . S
C341 C336 1.425 . S
C341 C338 1.409 1_455 S
C341 C339 1.415 . S
C342 H332 0.930 . S
C342 C340 1.419 . S
C342 C343 1.362 . S
C343 H333 0.930 . S
C343 C336 1.409 . S
C343 C342 1.362 . S
H344 C350 0.930 . S
H345 C353 0.930 . S
H346 C354 0.930 . S
H347 C355 0.930 . S
H348 C358 0.930 . S
H349 C359 0.930 . S
C350 H344 0.930 . S
C350 C351 1.355 . S
C350 C352 1.415 1_545 S
C351 C350 1.355 . S
C351 C353 1.419 . S
C352 C350 1.415 1_565 S
C352 C357 1.425 . S
C352 C359 1.409 . S
C353 H345 0.930 . S
C353 C351 1.419 . S
C353 C354 1.362 . S
C354 H346 0.930 . S
C354 C353 1.362 . S
C354 C357 1.409 1_545 S
C355 H347 0.930 . S
C355 C356 1.355 . S
C355 C357 1.415 . S
C356 C355 1.355 . S
C356 C358 1.419 . S
C357 C352 1.425 . S
C357 C354 1.409 1_565 S
C357 C355 1.415 . S
C358 H348 0.930 . S
C358 C356 1.419 . S
C358 C359 1.362 . S
C359 H349 0.930 . S
C359 C352 1.409 . S
C359 C358 1.362 . S
H360 C366 0.930 . S
H361 C369 0.930 . S
H362 C370 0.930 . S
H363 C371 0.930 . S
H364 C374 0.929 1_565 S
H365 C375 0.930 . S
C366 H360 0.930 . S
C366 C367 1.355 . S
C366 C368 1.415 . S
C367 C366 1.355 . S
C367 C369 1.419 . S
C368 C366 1.415 . S
C368 C373 1.425 . S
C368 C375 1.409 . S
C369 H361 0.930 . S
C369 C367 1.419 . S
C369 C370 1.362 . S
C370 H362 0.930 . S
C370 C369 1.362 . S
C370 C373 1.409 . S
C371 H363 0.930 . S
C371 C372 1.355 . S
C371 C373 1.415 . S
C372 C371 1.355 . S
C372 C374 1.419 . S
C373 C368 1.425 . S
C373 C370 1.409 . S
C373 C371 1.415 . S
C374 H364 0.929 1_545 S
C374 C372 1.419 . S
C374 C375 1.362 . S
C375 H365 0.930 . S
C375 C368 1.409 . S
C375 C374 1.362 . S
H376 C382 0.930 . S
H377 C385 0.930 . S
H378 C386 0.930 1_655 S
H379 C387 0.930 . S
H380 C390 0.930 . S
H381 C391 0.930 . S
C382 H376 0.930 . S
C382 C383 1.355 . S
C382 C384 1.415 1_455 S
C383 C382 1.355 . S
C383 C385 1.419 . S
C384 C382 1.415 1_655 S
C384 C389 1.425 . S
C384 C391 1.409 . S
C385 H377 0.930 . S
C385 C383 1.419 . S
C385 C386 1.362 . S
C386 H378 0.930 1_455 S
C386 C385 1.362 . S
C386 C389 1.409 1_455 S
C387 H379 0.930 . S
C387 C388 1.355 . S
C387 C389 1.415 . S
C388 C387 1.355 . S
C388 C390 1.419 . S
C389 C384 1.425 . S
C389 C386 1.409 1_655 S
C389 C387 1.415 . S
C390 H380 0.930 . S
C390 C388 1.419 . S
C390 C391 1.362 . S
C391 H381 0.930 . S
C391 C384 1.409 . S
C391 C390 1.362 . S
H392 C398 0.930 . S
H393 C401 0.930 . S
H394 C402 0.930 . S
H395 C403 0.930 . S
H396 C406 0.930 . S
H397 C407 0.930 . S
C398 H392 0.930 . S
C398 C399 1.355 . S
C398 C400 1.415 . S
C399 C398 1.355 . S
C399 C401 1.419 . S
C400 C398 1.415 . S
C400 C405 1.425 . S
C400 C407 1.409 1_545 S
C401 H393 0.930 . S
C401 C399 1.419 . S
C401 C402 1.362 . S
C402 H394 0.930 . S
C402 C401 1.362 . S
C402 C405 1.409 . S
C403 H395 0.930 . S
C403 C404 1.355 . S
C403 C405 1.415 1_565 S
C404 C403 1.355 . S
C404 C406 1.419 . S
C405 C400 1.425 . S
C405 C402 1.409 . S
C405 C403 1.415 1_545 S
C406 H396 0.930 . S
C406 C404 1.419 . S
C406 C407 1.362 . S
C407 H397 0.930 . S
C407 C400 1.409 1_565 S
C407 C406 1.362 . S
C127 C89 1.923 . S
C132 C9 1.898 . S
C143 C101 2.041 . S
C148 C21 2.085 . S
C159 C49 2.245 . S
C164 C69 2.281 . S
C175 C1 2.313 . S
C180 C81 2.268 . S
C191 C109 2.168 . S
C196 C29 2.174 . S
C207 C41 1.914 . S
C212 C61 1.881 . S
C223 C8 1.781 . S
C228 C56 1.611 . S
C239 C39 1.763 . S
C244 C16 1.683 . S
C255 C48 1.759 . S
C260 C26 1.667 . S
C271 C79 1.777 . S
C276 C86 1.696 . S
C287 C99 1.773 . S
C292 C106 1.704 . S
C303 C66 1.728 . S
C308 C119 1.782 . S
C319 C19 1.028 . S
C324 C46 1.226 . S
C335 C28 1.118 . S
C340 C6 1.219 . S
C351 C59 1.104 . S
C356 C36 1.220 . S
C367 C68 1.011 . S
C372 C96 1.216 . S
C383 C88 1.003 . S
C388 C116 1.207 . S
C399 C76 1.246 . S
C404 C108 1.086 . S
