# Generated by pormake.
# Topology lta, (4)-cn, num edge types: 1
# Building blocks:
#     Node 0, Type 0, BuildingBlock: NAHDIM_clean_sbu_0, # of connection points: 4
#     Node 1, Type 0, BuildingBlock: NAHDIM_clean_sbu_0, # of connection points: 4
#     Node 2, Type 0, BuildingBlock: NAHDIM_clean_sbu_0, # of connection points: 4
#     Node 3, Type 0, BuildingBlock: NAHDIM_clean_sbu_0, # of connection points: 4
#     Node 4, Type 0, BuildingBlock: NAHDIM_clean_sbu_0, # of connection points: 4
#     Node 5, Type 0, BuildingBlock: NAHDIM_clean_sbu_0, # of connection points: 4
#     Node 6, Type 0, BuildingBlock: NAHDIM_clean_sbu_0, # of connection points: 4
#     Node 7, Type 0, BuildingBlock: NAHDIM_clean_sbu_0, # of connection points: 4
#     Node 8, Type 0, BuildingBlock: NAHDIM_clean_sbu_0, # of connection points: 4
#     Node 9, Type 0, BuildingBlock: NAHDIM_clean_sbu_0, # of connection points: 4
#     Node 10, Type 0, BuildingBlock: NAHDIM_clean_sbu_0, # of connection points: 4
#     Node 11, Type 0, BuildingBlock: NAHDIM_clean_sbu_0, # of connection points: 4
#     Node 12, Type 0, BuildingBlock: NAHDIM_clean_sbu_0, # of connection points: 4
#     Node 13, Type 0, BuildingBlock: NAHDIM_clean_sbu_0, # of connection points: 4
#     Node 14, Type 0, BuildingBlock: NAHDIM_clean_sbu_0, # of connection points: 4
#     Node 15, Type 0, BuildingBlock: NAHDIM_clean_sbu_0, # of connection points: 4
#     Node 16, Type 0, BuildingBlock: NAHDIM_clean_sbu_0, # of connection points: 4
#     Node 17, Type 0, BuildingBlock: NAHDIM_clean_sbu_0, # of connection points: 4
#     Node 18, Type 0, BuildingBlock: NAHDIM_clean_sbu_0, # of connection points: 4
#     Node 19, Type 0, BuildingBlock: NAHDIM_clean_sbu_0, # of connection points: 4
#     Node 20, Type 0, BuildingBlock: NAHDIM_clean_sbu_0, # of connection points: 4
#     Node 21, Type 0, BuildingBlock: NAHDIM_clean_sbu_0, # of connection points: 4
#     Node 22, Type 0, BuildingBlock: NAHDIM_clean_sbu_0, # of connection points: 4
#     Node 23, Type 0, BuildingBlock: NAHDIM_clean_sbu_0, # of connection points: 4
#     Edge 24, Type (0, 0), BuildingBlock: AJUNOK_clean_linker_0, # of connection points: 2
#     Edge 25, Type (0, 0), BuildingBlock: AJUNOK_clean_linker_0, # of connection points: 2
#     Edge 26, Type (0, 0), BuildingBlock: AJUNOK_clean_linker_0, # of connection points: 2
#     Edge 27, Type (0, 0), BuildingBlock: AJUNOK_clean_linker_0, # of connection points: 2
#     Edge 28, Type (0, 0), BuildingBlock: AJUNOK_clean_linker_0, # of connection points: 2
#     Edge 29, Type (0, 0), BuildingBlock: AJUNOK_clean_linker_0, # of connection points: 2
#     Edge 30, Type (0, 0), BuildingBlock: AJUNOK_clean_linker_0, # of connection points: 2
#     Edge 31, Type (0, 0), BuildingBlock: AJUNOK_clean_linker_0, # of connection points: 2
#     Edge 32, Type (0, 0), BuildingBlock: AJUNOK_clean_linker_0, # of connection points: 2
#     Edge 33, Type (0, 0), BuildingBlock: AJUNOK_clean_linker_0, # of connection points: 2
#     Edge 34, Type (0, 0), BuildingBlock: AJUNOK_clean_linker_0, # of connection points: 2
#     Edge 35, Type (0, 0), BuildingBlock: AJUNOK_clean_linker_0, # of connection points: 2
#     Edge 36, Type (0, 0), BuildingBlock: AJUNOK_clean_linker_0, # of connection points: 2
#     Edge 37, Type (0, 0), BuildingBlock: AJUNOK_clean_linker_0, # of connection points: 2
#     Edge 38, Type (0, 0), BuildingBlock: AJUNOK_clean_linker_0, # of connection points: 2
#     Edge 39, Type (0, 0), BuildingBlock: AJUNOK_clean_linker_0, # of connection points: 2
#     Edge 40, Type (0, 0), BuildingBlock: AJUNOK_clean_linker_0, # of connection points: 2
#     Edge 41, Type (0, 0), BuildingBlock: AJUNOK_clean_linker_0, # of connection points: 2
#     Edge 42, Type (0, 0), BuildingBlock: AJUNOK_clean_linker_0, # of connection points: 2
#     Edge 43, Type (0, 0), BuildingBlock: AJUNOK_clean_linker_0, # of connection points: 2
#     Edge 44, Type (0, 0), BuildingBlock: AJUNOK_clean_linker_0, # of connection points: 2
#     Edge 45, Type (0, 0), BuildingBlock: AJUNOK_clean_linker_0, # of connection points: 2
#     Edge 46, Type (0, 0), BuildingBlock: AJUNOK_clean_linker_0, # of connection points: 2
#     Edge 47, Type (0, 0), BuildingBlock: AJUNOK_clean_linker_0, # of connection points: 2
#     Edge 48, Type (0, 0), BuildingBlock: AJUNOK_clean_linker_0, # of connection points: 2
#     Edge 49, Type (0, 0), BuildingBlock: AJUNOK_clean_linker_0, # of connection points: 2
#     Edge 50, Type (0, 0), BuildingBlock: AJUNOK_clean_linker_0, # of connection points: 2
#     Edge 51, Type (0, 0), BuildingBlock: AJUNOK_clean_linker_0, # of connection points: 2
#     Edge 52, Type (0, 0), BuildingBlock: AJUNOK_clean_linker_0, # of connection points: 2
#     Edge 53, Type (0, 0), BuildingBlock: AJUNOK_clean_linker_0, # of connection points: 2
#     Edge 54, Type (0, 0), BuildingBlock: AJUNOK_clean_linker_0, # of connection points: 2
#     Edge 55, Type (0, 0), BuildingBlock: AJUNOK_clean_linker_0, # of connection points: 2
#     Edge 56, Type (0, 0), BuildingBlock: AJUNOK_clean_linker_0, # of connection points: 2
#     Edge 57, Type (0, 0), BuildingBlock: AJUNOK_clean_linker_0, # of connection points: 2
#     Edge 58, Type (0, 0), BuildingBlock: AJUNOK_clean_linker_0, # of connection points: 2
#     Edge 59, Type (0, 0), BuildingBlock: AJUNOK_clean_linker_0, # of connection points: 2
#     Edge 60, Type (0, 0), BuildingBlock: AJUNOK_clean_linker_0, # of connection points: 2
#     Edge 61, Type (0, 0), BuildingBlock: AJUNOK_clean_linker_0, # of connection points: 2
#     Edge 62, Type (0, 0), BuildingBlock: AJUNOK_clean_linker_0, # of connection points: 2
#     Edge 63, Type (0, 0), BuildingBlock: AJUNOK_clean_linker_0, # of connection points: 2
#     Edge 64, Type (0, 0), BuildingBlock: AJUNOK_clean_linker_0, # of connection points: 2
#     Edge 65, Type (0, 0), BuildingBlock: AJUNOK_clean_linker_0, # of connection points: 2
#     Edge 66, Type (0, 0), BuildingBlock: AJUNOK_clean_linker_0, # of connection points: 2
#     Edge 67, Type (0, 0), BuildingBlock: AJUNOK_clean_linker_0, # of connection points: 2
#     Edge 68, Type (0, 0), BuildingBlock: AJUNOK_clean_linker_0, # of connection points: 2
#     Edge 69, Type (0, 0), BuildingBlock: AJUNOK_clean_linker_0, # of connection points: 2
#     Edge 70, Type (0, 0), BuildingBlock: AJUNOK_clean_linker_0, # of connection points: 2
#     Edge 71, Type (0, 0), BuildingBlock: AJUNOK_clean_linker_0, # of connection points: 2
# Relax obj value: 0.178
# Max RMSD: 0.072
# Mean RMSD: 0.072
data_MOF--net-lta--node1-NAHDIM_clean_sbu_0--edge1-AJUNOK_clean_linker_0
_symmetry_space_group_name_H-M    P1
_symmetry_Int_Tables_number       1
_symmetry_cell_setting            triclinic
loop_
_symmetry_equiv_pos_as_xyz
'x, y, z'
_cell_length_a     42.500441
_cell_length_b     42.523614
_cell_length_c     42.454712
_cell_angle_alpha  90.001779
_cell_angle_beta   89.896554
_cell_angle_gamma 90.001535
loop_
_atom_site_label
_atom_site_type_symbol
_atom_site_fract_x
_atom_site_fract_y
_atom_site_fract_z
_atom_type_partial_charge
C0 C 0.18727 0.27983 0.49054 0.0
O1 O 0.19496 0.30972 0.49127 0.0
O2 O 0.12788 0.33103 0.52884 0.0
Zn3 Zn 0.12742 0.30804 0.48724 0.0
O4 O 0.13954 0.33879 0.45332 0.0
C5 C 0.06618 0.28343 0.50187 0.0
O6 O 0.07831 0.28162 0.53024 0.0
O7 O 0.15838 0.2725 0.4884 0.0
C8 C 0.1252 0.34172 0.42728 0.0
O9 O 0.10152 0.32291 0.42096 0.0
C10 C 0.144 0.35596 0.53242 0.0
O11 O 0.16098 0.3663 0.50873 0.0
O12 O 0.08347 0.2928 0.47932 0.0
C13 C 0.71473 0.18361 0.50193 0.0
O14 O 0.68521 0.19202 0.50574 0.0
O15 O 0.66097 0.12999 0.5413 0.0
Zn16 Zn 0.6847 0.12481 0.50048 0.0
O17 O 0.65498 0.13474 0.46498 0.0
C18 C 0.70169 0.06157 0.5194 0.0
O19 O 0.6975 0.07276 0.54795 0.0
O20 O 0.7211 0.15458 0.49912 0.0
C21 C 0.65608 0.1205 0.43869 0.0
O22 O 0.67858 0.09989 0.43376 0.0
C23 C 0.63206 0.1224 0.54156 0.0
O24 O 0.61926 0.11165 0.51555 0.0
O25 O 0.69858 0.07988 0.49599 0.0
C26 C 0.80172 0.71585 0.50313 0.0
O27 O 0.79515 0.68628 0.50932 0.0
O28 O 0.85896 0.66369 0.53451 0.0
Zn29 Zn 0.86069 0.68753 0.49357 0.0
O30 O 0.84941 0.6576 0.45853 0.0
C31 C 0.92231 0.71003 0.51043 0.0
O32 O 0.90995 0.7099 0.5388 0.0
O33 O 0.82965 0.72296 0.4952 0.0
C34 C 0.86282 0.65843 0.43176 0.0
O35 O 0.8835 0.68068 0.42606 0.0
C36 C 0.86791 0.6352 0.53483 0.0
O37 O 0.87765 0.6223 0.50844 0.0
O38 O 0.90505 0.70272 0.48714 0.0
C39 C 0.27582 0.80655 0.49653 0.0
O40 O 0.30438 0.80277 0.50764 0.0
O41 O 0.32935 0.86668 0.51759 0.0
Zn42 Zn 0.30184 0.86588 0.47871 0.0
O43 O 0.33006 0.85956 0.44108 0.0
C44 C 0.27552 0.92578 0.49705 0.0
O45 O 0.28004 0.9148 0.52562 0.0
O46 O 0.26914 0.83201 0.48239 0.0
C47 C 0.3484 0.88253 0.43551 0.0
O48 O 0.34608 0.90779 0.4532 0.0
C49 C 0.35688 0.85495 0.51711 0.0
O50 O 0.36706 0.84107 0.49141 0.0
O51 O 0.28162 0.90822 0.47365 0.0
C52 C 0.17871 0.71073 0.51002 0.0
O53 O 0.1853 0.68232 0.52016 0.0
O54 O 0.11835 0.66022 0.45953 0.0
Zn55 Zn 0.11859 0.68209 0.50153 0.0
O56 O 0.13017 0.64955 0.5338 0.0
C57 C 0.05715 0.7077 0.48895 0.0
O58 O 0.06807 0.70862 0.45999 0.0
O59 O 0.15085 0.71671 0.50094 0.0
C60 C 0.11981 0.6483 0.56183 0.0
O61 O 0.09967 0.66968 0.57151 0.0
C62 C 0.13955 0.64004 0.45344 0.0
O63 O 0.16173 0.63504 0.47434 0.0
O64 O 0.07509 0.6982 0.51087 0.0
C65 C 0.28165 0.18058 0.49518 0.0
O66 O 0.31137 0.18648 0.50114 0.0
O67 O 0.3299 0.11821 0.44864 0.0
Zn68 Zn 0.30697 0.11918 0.49026 0.0
O69 O 0.33855 0.12876 0.52407 0.0
C70 C 0.27685 0.06018 0.4766 0.0
O71 O 0.27415 0.07278 0.44849 0.0
O72 O 0.27343 0.15238 0.4897 0.0
C73 C 0.33557 0.12022 0.55259 0.0
O74 O 0.31027 0.10463 0.56111 0.0
C75 C 0.35382 0.1356 0.44423 0.0
O76 O 0.36255 0.15487 0.46677 0.0
O77 O 0.28902 0.07638 0.49856 0.0
C78 C 0.81063 0.28146 0.49945 0.0
O79 O 0.80214 0.31044 0.506 0.0
O80 O 0.86964 0.33523 0.45277 0.0
Zn81 Zn 0.87026 0.31148 0.49387 0.0
O82 O 0.85904 0.34185 0.52837 0.0
C83 C 0.93177 0.28639 0.47951 0.0
O84 O 0.92084 0.28608 0.45058 0.0
O85 O 0.83932 0.27591 0.49315 0.0
C86 C 0.8709 0.34113 0.55578 0.0
O87 O 0.89142 0.31911 0.56276 0.0
C88 C 0.85066 0.35802 0.44899 0.0
O89 O 0.83071 0.3647 0.47167 0.0
O90 O 0.91396 0.29559 0.50171 0.0
C91 C 0.70078 0.80814 0.51298 0.0
O92 O 0.67255 0.79835 0.521 0.0
O93 O 0.64892 0.87026 0.4648 0.0
Zn94 Zn 0.66849 0.86722 0.50768 0.0
O95 O 0.63497 0.85332 0.53824 0.0
C96 C 0.69753 0.92683 0.49843 0.0
O97 O 0.70407 0.91386 0.47112 0.0
O98 O 0.70476 0.83704 0.5066 0.0
C99 C 0.63456 0.8623 0.56678 0.0
O100 O 0.65727 0.88059 0.57702 0.0
C101 C 0.63316 0.84806 0.45257 0.0
O102 O 0.63006 0.82155 0.46818 0.0
O103 O 0.68319 0.91058 0.51906 0.0
C104 C 0.49518 0.17236 0.28307 0.0
O105 O 0.49049 0.18001 0.31269 0.0
O106 O 0.54255 0.11302 0.33358 0.0
Zn107 Zn 0.50081 0.11199 0.31118 0.0
O108 O 0.46662 0.12253 0.34243 0.0
C109 C 0.48063 0.04801 0.31148 0.0
O110 O 0.47173 0.05602 0.34001 0.0
O111 O 0.50035 0.14375 0.27621 0.0
C112 C 0.43748 0.11864 0.33702 0.0
O113 O 0.42856 0.10772 0.30951 0.0
C114 C 0.54715 0.13167 0.35651 0.0
O115 O 0.52447 0.15094 0.36489 0.0
O116 O 0.49423 0.06823 0.29412 0.0
C117 C 0.80942 0.49158 0.27805 0.0
O118 O 0.80075 0.48688 0.30739 0.0
O119 O 0.86746 0.54323 0.32862 0.0
Zn120 Zn 0.8686 0.50048 0.30813 0.0
O121 O 0.85768 0.46829 0.34109 0.0
C122 C 0.93059 0.51364 0.28344 0.0
O123 O 0.91999 0.54265 0.28247 0.0
O124 O 0.83801 0.49811 0.27228 0.0
C125 C 0.86828 0.44037 0.34076 0.0
O126 O 0.88695 0.43164 0.31765 0.0
C127 C 0.84782 0.54929 0.35039 0.0
O128 O 0.82727 0.52763 0.35844 0.0
O129 O 0.91245 0.49188 0.29292 0.0
C130 C 0.49354 0.79744 0.27726 0.0
O131 O 0.48856 0.79076 0.30707 0.0
O132 O 0.46006 0.8533 0.33079 0.0
Zn133 Zn 0.49953 0.85711 0.30481 0.0
O134 O 0.53573 0.84845 0.33418 0.0
C135 C 0.47533 0.91549 0.28305 0.0
O136 O 0.44934 0.89881 0.28194 0.0
O137 O 0.49907 0.8258 0.26968 0.0
C138 C 0.55553 0.86947 0.34189 0.0
O139 O 0.55348 0.89741 0.32888 0.0
C140 C 0.45684 0.87398 0.35215 0.0
O141 O 0.47921 0.89498 0.35591 0.0
O142 O 0.50114 0.90177 0.28924 0.0
C143 C 0.18597 0.51004 0.28072 0.0
O144 O 0.1926 0.51719 0.31005 0.0
O145 O 0.12526 0.4595 0.32894 0.0
Zn146 Zn 0.12544 0.50206 0.30821 0.0
O147 O 0.13571 0.53392 0.3416 0.0
C148 C 0.06458 0.48889 0.28186 0.0
O149 O 0.07628 0.46038 0.27977 0.0
O150 O 0.15777 0.50307 0.27366 0.0
C151 C 0.12405 0.56139 0.34235 0.0
O152 O 0.10461 0.5701 0.31996 0.0
C153 C 0.14552 0.45275 0.34985 0.0
O154 O 0.16718 0.47362 0.35685 0.0
O155 O 0.08202 0.51091 0.29201 0.0
C156 C 0.49001 0.82913 0.73125 0.0
O157 O 0.51838 0.83876 0.72358 0.0
O158 O 0.51486 0.86739 0.66134 0.0
Zn159 Zn 0.47187 0.87096 0.68125 0.0
O160 O 0.43898 0.86352 0.64805 0.0
C161 C 0.48926 0.93013 0.70889 0.0
O162 O 0.51652 0.91595 0.71221 0.0
O163 O 0.46652 0.83986 0.71628 0.0
C164 C 0.44397 0.87392 0.62043 0.0
O165 O 0.4703 0.88897 0.61444 0.0
C166 C 0.52207 0.84489 0.64301 0.0
O167 O 0.50146 0.82239 0.63817 0.0
O168 O 0.46637 0.91491 0.69721 0.0
C169 C 0.1903 0.48155 0.7083 0.0
O170 O 0.1969 0.47501 0.6788 0.0
O171 O 0.12742 0.53199 0.66157 0.0
Zn172 Zn 0.12916 0.48935 0.68204 0.0
O173 O 0.13917 0.45805 0.64805 0.0
C174 C 0.06988 0.50119 0.71192 0.0
O175 O 0.0817 0.52962 0.71456 0.0
O176 O 0.16214 0.48841 0.71566 0.0
C177 C 0.12733 0.43071 0.64612 0.0
O178 O 0.10754 0.42127 0.66796 0.0
C179 C 0.14626 0.53854 0.63925 0.0
O180 O 0.16768 0.51776 0.63126 0.0
O181 O 0.08659 0.47965 0.69969 0.0
C182 C 0.48351 0.18523 0.71105 0.0
O183 O 0.47426 0.19348 0.68273 0.0
O184 O 0.44731 0.12524 0.65983 0.0
Zn185 Zn 0.48953 0.12479 0.68142 0.0
O186 O 0.52258 0.13219 0.64846 0.0
C187 C 0.47403 0.06524 0.70938 0.0
O188 O 0.44579 0.07776 0.71075 0.0
O189 O 0.49149 0.15688 0.71595 0.0
C190 C 0.55193 0.12856 0.65264 0.0
O191 O 0.56232 0.12122 0.68082 0.0
C192 C 0.44359 0.14022 0.63421 0.0
O193 O 0.46714 0.15689 0.62307 0.0
O194 O 0.49665 0.08157 0.69869 0.0
C195 C 0.81733 0.50921 0.70847 0.0
O196 O 0.80961 0.51785 0.6798 0.0
O197 O 0.87569 0.45435 0.65878 0.0
Zn198 Zn 0.87716 0.49698 0.67915 0.0
O199 O 0.86974 0.5286 0.64485 0.0
C200 C 0.93556 0.48187 0.70928 0.0
O201 O 0.92184 0.45445 0.71305 0.0
O202 O 0.84516 0.49977 0.7137 0.0
C203 C 0.87065 0.55825 0.64826 0.0
O204 O 0.8756 0.57005 0.67641 0.0
C205 C 0.85435 0.44867 0.63865 0.0
O206 O 0.83297 0.47028 0.63322 0.0
O207 O 0.92035 0.50402 0.69625 0.0
C208 C 0.28271 0.5015 0.18373 0.0
O209 O 0.31272 0.5001 0.19086 0.0
O210 O 0.33627 0.53357 0.12207 0.0
Zn211 Zn 0.30982 0.49406 0.12374 0.0
O212 O 0.33773 0.45852 0.13754 0.0
C213 C 0.28675 0.50621 0.06109 0.0
O214 O 0.2879 0.53558 0.07065 0.0
O215 O 0.27474 0.49931 0.15498 0.0
C216 C 0.33738 0.43096 0.12604 0.0
O217 O 0.31685 0.42406 0.10399 0.0
C218 C 0.36166 0.53542 0.13778 0.0
O219 O 0.36995 0.51158 0.15556 0.0
O220 O 0.29389 0.48451 0.08032 0.0
C221 C 0.2862 0.48519 0.80603 0.0
O222 O 0.31635 0.48282 0.79959 0.0
O223 O 0.33962 0.45511 0.86426 0.0
Zn224 Zn 0.31302 0.49442 0.86525 0.0
O225 O 0.33997 0.53104 0.85224 0.0
C226 C 0.2893 0.47924 0.92724 0.0
O227 O 0.28969 0.45042 0.91611 0.0
O228 O 0.27791 0.49019 0.83435 0.0
C229 C 0.33769 0.55816 0.8646 0.0
O230 O 0.31584 0.56321 0.88591 0.0
C231 C 0.36931 0.45736 0.86699 0.0
O232 O 0.38187 0.48524 0.87127 0.0
O233 O 0.29729 0.50173 0.90923 0.0
C234 C 0.48944 0.28092 0.80917 0.0
O235 O 0.48156 0.30993 0.80205 0.0
O236 O 0.54921 0.3272 0.86581 0.0
Zn237 Zn 0.50552 0.30937 0.86857 0.0
O238 O 0.47603 0.34538 0.861 0.0
C239 C 0.51881 0.29244 0.93308 0.0
O240 O 0.54768 0.29961 0.9247 0.0
O241 O 0.4999 0.27506 0.83656 0.0
C242 C 0.44693 0.34448 0.8677 0.0
O243 O 0.43476 0.31814 0.87836 0.0
C244 C 0.55646 0.34548 0.84327 0.0
O245 O 0.53563 0.35065 0.82106 0.0
O246 O 0.49713 0.29367 0.91254 0.0
C247 C 0.71955 0.50262 0.80441 0.0
O248 O 0.69013 0.50528 0.79529 0.0
O249 O 0.65953 0.53198 0.8529 0.0
Zn250 Zn 0.68662 0.49378 0.86026 0.0
O251 O 0.66191 0.45584 0.84686 0.0
C252 C 0.69431 0.51599 0.92337 0.0
O253 O 0.69013 0.54312 0.90921 0.0
O254 O 0.72511 0.4973 0.83331 0.0
C255 C 0.66198 0.4298 0.86146 0.0
O256 O 0.68034 0.42641 0.88609 0.0
C257 C 0.62978 0.52974 0.85103 0.0
O258 O 0.61663 0.5019 0.85336 0.0
O259 O 0.69592 0.49113 0.90681 0.0
C260 C 0.47606 0.73126 0.8261 0.0
O261 O 0.44987 0.72679 0.84195 0.0
O262 O 0.45186 0.66061 0.86401 0.0
Zn263 Zn 0.49571 0.67791 0.86209 0.0
O264 O 0.52377 0.64212 0.84998 0.0
C265 C 0.48917 0.70337 0.92479 0.0
O266 O 0.45983 0.70762 0.91606 0.0
O267 O 0.49923 0.71306 0.83098 0.0
C268 C 0.55328 0.64302 0.85435 0.0
O269 O 0.56597 0.66897 0.86532 0.0
C270 C 0.44234 0.64284 0.84198 0.0
O271 O 0.46087 0.63796 0.81765 0.0
O272 O 0.50863 0.69196 0.90518 0.0
C273 C 0.71382 0.48533 0.18017 0.0
O274 O 0.6842 0.48712 0.18889 0.0
O275 O 0.65851 0.44287 0.1259 0.0
Zn276 Zn 0.68329 0.48312 0.12147 0.0
O277 O 0.65503 0.51938 0.13289 0.0
C278 C 0.67589 0.49862 0.05743 0.0
O279 O 0.64746 0.50427 0.06822 0.0
O280 O 0.72014 0.48302 0.151 0.0
C281 C 0.66035 0.54768 0.12492 0.0
O282 O 0.68622 0.55443 0.10935 0.0
C283 C 0.63437 0.44168 0.14362 0.0
O284 O 0.62626 0.46687 0.15956 0.0
O285 O 0.69673 0.48809 0.07609 0.0
C286 C 0.49514 0.70101 0.17976 0.0
O287 O 0.48745 0.67168 0.18561 0.0
O288 O 0.54823 0.65354 0.11945 0.0
Zn289 Zn 0.50585 0.6746 0.11908 0.0
O290 O 0.47351 0.64138 0.12822 0.0
C291 C 0.52016 0.69932 0.05755 0.0
O292 O 0.54914 0.69807 0.06816 0.0
O293 O 0.50389 0.7084 0.15209 0.0
C294 C 0.44541 0.6421 0.11813 0.0
O295 O 0.43635 0.66581 0.10049 0.0
C296 C 0.5543 0.63248 0.13976 0.0
O297 O 0.53299 0.6258 0.16119 0.0
O298 O 0.49771 0.69174 0.07582 0.0
C299 C 0.49402 0.27225 0.18926 0.0
O300 O 0.49717 0.3014 0.199 0.0
O301 O 0.44855 0.32559 0.13012 0.0
Zn302 Zn 0.49069 0.3039 0.13043 0.0
O303 O 0.52317 0.33554 0.14357 0.0
C304 C 0.48214 0.28579 0.06483 0.0
O305 O 0.452 0.28648 0.07174 0.0
O306 O 0.4907 0.26709 0.15999 0.0
C307 C 0.55176 0.33304 0.13522 0.0
O308 O 0.56055 0.30832 0.11886 0.0
C309 C 0.44301 0.34753 0.14971 0.0
O310 O 0.46451 0.35443 0.17077 0.0
O311 O 0.50204 0.29099 0.08647 0.0
C312 C 0.1174 0.40253 0.36234 0.0
C313 C 0.14283 0.423 0.36797 0.0
C314 C 0.11256 0.37573 0.3809 0.0
C315 C 0.13289 0.36828 0.40592 0.0
H316 H 0.10053 0.4076 0.34393 0.0
H317 H 0.09212 0.3613 0.3761 0.0
S318 S 0.20489 0.41235 0.42859 0.0
N319 N 0.18999 0.43261 0.39901 0.0
N320 N 0.1809 0.38228 0.43383 0.0
C321 C 0.15921 0.38777 0.41098 0.0
C322 C 0.16417 0.41509 0.39204 0.0
C323 C 0.60569 0.14598 0.42231 0.0
C324 C 0.63028 0.12483 0.41554 0.0
C325 C 0.57947 0.14859 0.4026 0.0
C326 C 0.57659 0.13014 0.37525 0.0
H327 H 0.60625 0.16023 0.44345 0.0
H328 H 0.56096 0.16476 0.4094 0.0
S329 S 0.63557 0.07291 0.34534 0.0
N330 N 0.65094 0.0864 0.37836 0.0
N331 N 0.60161 0.09129 0.34131 0.0
C332 C 0.60153 0.10971 0.36748 0.0
C333 C 0.62835 0.10708 0.3876 0.0
C334 C 0.83553 0.6088 0.41586 0.0
C335 C 0.85738 0.63267 0.40874 0.0
C336 C 0.8319 0.58257 0.39627 0.0
C337 C 0.85004 0.57894 0.36875 0.0
H338 H 0.82152 0.60992 0.43716 0.0
H339 H 0.8153 0.56457 0.40336 0.0
S340 S 0.90866 0.63598 0.33783 0.0
N341 N 0.896 0.65194 0.37095 0.0
N342 N 0.88922 0.60258 0.3342 0.0
C343 C 0.8711 0.60321 0.36061 0.0
C344 C 0.87473 0.63006 0.38056 0.0
C345 C 0.39592 0.90497 0.40939 0.0
C346 C 0.3744 0.87998 0.41229 0.0
C347 C 0.42222 0.90275 0.38972 0.0
C348 C 0.4281 0.87553 0.37187 0.0
H349 H 0.39285 0.9264 0.42284 0.0
H350 H 0.43812 0.92264 0.38865 0.0
S351 S 0.37834 0.80381 0.36964 0.0
N352 N 0.36021 0.82736 0.39471 0.0
N353 N 0.40969 0.8233 0.35746 0.0
C354 C 0.40639 0.8506 0.37378 0.0
C355 C 0.37956 0.85279 0.39404 0.0
C356 C 0.11801 0.58918 0.62883 0.0
C357 C 0.14199 0.56781 0.62065 0.0
C358 C 0.11161 0.61563 0.61021 0.0
C359 C 0.12882 0.62171 0.58254 0.0
H360 H 0.10353 0.58519 0.64947 0.0
H361 H 0.09242 0.63091 0.61716 0.0
S362 S 0.19588 0.5746 0.55194 0.0
N363 N 0.18438 0.55571 0.5839 0.0
N364 N 0.17232 0.60528 0.54896 0.0
C365 C 0.15363 0.60117 0.57466 0.0
C366 C 0.16022 0.57429 0.59369 0.0
C367 C 0.38643 0.14627 0.56607 0.0
C368 C 0.36136 0.12664 0.57522 0.0
C369 C 0.4123 0.15122 0.58575 0.0
C370 C 0.41437 0.13668 0.61544 0.0
H371 H 0.3864 0.15763 0.54324 0.0
H372 H 0.43116 0.16609 0.57718 0.0
S373 S 0.35418 0.08444 0.65149 0.0
N374 N 0.33954 0.09363 0.6167 0.0
N375 N 0.38828 0.10289 0.65374 0.0
C376 C 0.38902 0.11774 0.6254 0.0
C377 C 0.36252 0.11275 0.6053 0.0
C378 C 0.8799 0.39754 0.6244 0.0
C379 C 0.85577 0.41965 0.61925 0.0
C380 C 0.88388 0.37158 0.60447 0.0
C381 C 0.86401 0.36674 0.57846 0.0
H382 H 0.89644 0.40067 0.64352 0.0
H383 H 0.90338 0.3558 0.60894 0.0
S384 S 0.79516 0.41576 0.55638 0.0
N385 N 0.81013 0.43349 0.58751 0.0
N386 N 0.81771 0.38481 0.55006 0.0
C387 C 0.83892 0.38785 0.57381 0.0
C388 C 0.83477 0.41423 0.5942 0.0
C389 C 0.57546 0.86779 0.63366 0.0
C390 C 0.55192 0.84623 0.62486 0.0
C391 C 0.6026 0.87193 0.61535 0.0
C392 C 0.60722 0.85492 0.5873 0.0
H393 H 0.57268 0.88211 0.65458 0.0
H394 H 0.61959 0.88939 0.62283 0.0
S395 S 0.55381 0.79389 0.55483 0.0
N396 N 0.5359 0.80632 0.58704 0.0
N397 N 0.58681 0.81423 0.55257 0.0
C398 C 0.58443 0.83245 0.57877 0.0
C399 C 0.55685 0.82805 0.59758 0.0
C400 C 0.40246 0.14811 0.41361 0.0
C401 C 0.3733 0.13249 0.41534 0.0
C402 C 0.42265 0.14394 0.38789 0.0
C403 C 0.41442 0.12426 0.36259 0.0
H404 H 0.41023 0.16319 0.43263 0.0
H405 H 0.44508 0.15605 0.38802 0.0
S406 S 0.34028 0.07882 0.35476 0.0
N407 N 0.3368 0.09715 0.38887 0.0
N408 N 0.37476 0.08954 0.34037 0.0
C409 C 0.38497 0.10918 0.36345 0.0
C410 C 0.36444 0.11321 0.38985 0.0
C411 C 0.87482 0.37101 0.39671 0.0
C412 C 0.85282 0.3782 0.4205 0.0
C413 C 0.87903 0.39079 0.37064 0.0
C414 C 0.86154 0.41869 0.36732 0.0
H415 H 0.88939 0.35018 0.39843 0.0
H416 H 0.89672 0.38447 0.35338 0.0
S417 S 0.79926 0.44729 0.42175 0.0
N418 N 0.81206 0.41449 0.43807 0.0
N419 N 0.82004 0.45162 0.38918 0.0
C420 C 0.83877 0.42572 0.39041 0.0
C421 C 0.83438 0.4055 0.41693 0.0
C422 C 0.57651 0.83504 0.3848 0.0
C423 C 0.57808 0.86349 0.3679 0.0
C424 C 0.59512 0.82991 0.4115 0.0
C425 C 0.61613 0.853 0.42247 0.0
H426 H 0.56011 0.81678 0.37795 0.0
H427 H 0.59231 0.80793 0.42409 0.0
S428 S 0.6317 0.93039 0.38484 0.0
N429 N 0.60421 0.9142 0.36273 0.0
N430 N 0.63919 0.90456 0.41285 0.0
C431 C 0.61901 0.88103 0.40499 0.0
C432 C 0.60002 0.88627 0.37775 0.0
C433 C 0.11511 0.62799 0.40122 0.0
C434 C 0.13787 0.62095 0.42422 0.0
C435 C 0.11147 0.60915 0.3744 0.0
C436 C 0.13028 0.58236 0.36956 0.0
H437 H 0.09956 0.64797 0.40411 0.0
H438 H 0.09316 0.61527 0.35776 0.0
S439 S 0.19475 0.55462 0.4216 0.0
N440 N 0.18063 0.58604 0.43953 0.0
N441 N 0.17371 0.55066 0.38922 0.0
C442 C 0.15379 0.57553 0.39188 0.0
C443 C 0.1576 0.59482 0.41915 0.0
C444 C 0.41091 0.86057 0.53887 0.0
C445 C 0.37828 0.85891 0.54417 0.0
C446 C 0.43189 0.86557 0.56373 0.0
C447 C 0.4211 0.86837 0.59491 0.0
H448 H 0.42034 0.85863 0.51522 0.0
H449 H 0.45681 0.86698 0.55848 0.0
S450 S 0.33798 0.86488 0.6215 0.0
N451 N 0.3361 0.86021 0.58292 0.0
N452 N 0.37572 0.86876 0.62989 0.0
C453 C 0.38858 0.8662 0.60067 0.0
C454 C 0.36712 0.86174 0.57523 0.0
C455 C 0.1163 0.38322 0.61306 0.0
C456 C 0.13386 0.4108 0.61815 0.0
C457 C 0.12027 0.36527 0.58566 0.0
C458 C 0.14198 0.37415 0.56219 0.0
H459 H 0.09876 0.37572 0.63001 0.0
H460 H 0.10565 0.34463 0.58261 0.0
S461 S 0.1958 0.44296 0.56528 0.0
N462 N 0.1753 0.44507 0.59825 0.0
N463 N 0.18272 0.41142 0.54683 0.0
C464 C 0.16049 0.40111 0.56746 0.0
C465 C 0.15645 0.41938 0.59539 0.0
C466 C 0.56049 0.12745 0.59451 0.0
C467 C 0.57334 0.12904 0.62501 0.0
C468 C 0.57974 0.12556 0.56784 0.0
C469 C 0.6127 0.12558 0.57042 0.0
H470 H 0.53523 0.12693 0.59108 0.0
H471 H 0.56856 0.12397 0.54499 0.0
S472 S 0.6584 0.13086 0.64468 0.0
N473 N 0.62127 0.13149 0.65619 0.0
N474 N 0.65755 0.12831 0.60588 0.0
C475 C 0.62601 0.12799 0.60067 0.0
C476 C 0.60632 0.12959 0.62798 0.0
C477 C 0.87008 0.56513 0.58986 0.0
C478 C 0.86851 0.57877 0.62005 0.0
C479 C 0.86972 0.58361 0.56262 0.0
C480 C 0.86743 0.61654 0.56431 0.0
H481 H 0.87211 0.53988 0.58709 0.0
H482 H 0.87126 0.57186 0.54003 0.0
S483 S 0.86177 0.66408 0.63747 0.0
N484 N 0.86399 0.62739 0.64998 0.0
N485 N 0.86303 0.66217 0.59865 0.0
C486 C 0.86527 0.63058 0.59427 0.0
C487 C 0.86591 0.61171 0.62215 0.0
C488 C 0.3673 0.3812 0.11635 0.0
C489 C 0.36223 0.40814 0.1349 0.0
C490 C 0.39284 0.36115 0.12201 0.0
C491 C 0.41429 0.36715 0.14653 0.0
H492 H 0.35209 0.37605 0.09656 0.0
H493 H 0.39622 0.34127 0.10641 0.0
S494 S 0.40943 0.43271 0.20425 0.0
N495 N 0.37926 0.43833 0.18052 0.0
N496 N 0.42717 0.40074 0.19117 0.0
C497 C 0.40858 0.39317 0.16627 0.0
C498 C 0.38259 0.41363 0.16045 0.0
C499 C 0.40793 0.59788 0.8265 0.0
C500 C 0.41308 0.62425 0.84581 0.0
C501 C 0.38281 0.57735 0.83211 0.0
C502 C 0.36162 0.58244 0.85713 0.0
H503 H 0.4241 0.59225 0.80758 0.0
H504 H 0.38054 0.55685 0.81715 0.0
S505 S 0.36266 0.65007 0.9125 0.0
N506 N 0.39343 0.65583 0.88943 0.0
N507 N 0.34607 0.61731 0.89991 0.0
C508 C 0.36546 0.60968 0.87559 0.0
C509 C 0.39123 0.63053 0.86998 0.0
C510 C 0.39476 0.37178 0.87034 0.0
C511 C 0.42753 0.37344 0.86573 0.0
C512 C 0.37607 0.39895 0.87022 0.0
C513 C 0.38944 0.42891 0.86582 0.0
H514 H 0.38339 0.34933 0.87433 0.0
H515 H 0.35101 0.39644 0.8742 0.0
S516 S 0.47392 0.4462 0.85139 0.0
N517 N 0.47241 0.40765 0.85554 0.0
N518 N 0.43734 0.45856 0.85556 0.0
C519 C 0.4221 0.43091 0.86068 0.0
C520 C 0.44111 0.40324 0.86053 0.0
C521 C 0.63147 0.38149 0.87543 0.0
C522 C 0.63812 0.40557 0.85371 0.0
C523 C 0.6059 0.36118 0.87105 0.0
C524 C 0.58599 0.36407 0.84472 0.0
H525 H 0.64522 0.37909 0.89675 0.0
H526 H 0.60107 0.34389 0.88915 0.0
S527 S 0.59617 0.42021 0.77844 0.0
N528 N 0.62486 0.42891 0.80308 0.0
N529 N 0.57687 0.39075 0.79481 0.0
C530 C 0.59365 0.38669 0.82174 0.0
C531 C 0.61968 0.40743 0.82624 0.0
C532 C 0.62358 0.58804 0.85529 0.0
C533 C 0.61016 0.55846 0.84893 0.0
C534 C 0.60515 0.61533 0.85606 0.0
C535 C 0.57258 0.61421 0.85033 0.0
H536 H 0.64841 0.59012 0.86063 0.0
H537 H 0.61653 0.63736 0.86188 0.0
S538 S 0.52639 0.54287 0.8297 0.0
N539 N 0.56263 0.52991 0.83477 0.0
N540 N 0.52798 0.58112 0.83605 0.0
C541 C 0.55904 0.58492 0.84267 0.0
C542 C 0.57782 0.55709 0.84205 0.0
C543 C 0.61249 0.56633 0.15328 0.0
C544 C 0.63573 0.57171 0.13028 0.0
C545 C 0.58697 0.5868 0.15689 0.0
C546 C 0.58341 0.61335 0.13743 0.0
H547 H 0.61366 0.54578 0.16831 0.0
H548 H 0.56942 0.58113 0.17453 0.0
S549 S 0.63862 0.63879 0.07441 0.0
N550 N 0.65434 0.60622 0.08852 0.0
N551 N 0.60625 0.64469 0.09513 0.0
C552 C 0.60706 0.61961 0.11496 0.0
C553 C 0.63325 0.59881 0.11145 0.0
C554 C 0.37502 0.58727 0.11306 0.0
C555 C 0.38249 0.56329 0.13465 0.0
C556 C 0.39516 0.61296 0.10834 0.0
C557 C 0.42365 0.61568 0.12495 0.0
H558 H 0.35367 0.58602 0.09922 0.0
H559 H 0.38858 0.63046 0.09104 0.0
S560 S 0.4532 0.56051 0.18599 0.0
N561 N 0.41973 0.54488 0.17412 0.0
N562 N 0.45749 0.59302 0.16522 0.0
C563 C 0.43103 0.59232 0.14727 0.0
C564 C 0.4105 0.56619 0.15213 0.0
C565 C 0.622 0.38715 0.12515 0.0
C566 C 0.61437 0.41306 0.14434 0.0
C567 C 0.60221 0.36087 0.12329 0.0
C568 C 0.5739 0.35946 0.14046 0.0
H569 H 0.64308 0.38739 0.11077 0.0
H570 H 0.60874 0.342 0.10744 0.0
S571 S 0.54448 0.41957 0.19672 0.0
N572 N 0.57753 0.43451 0.18279 0.0
N573 N 0.54038 0.38519 0.17919 0.0
C574 C 0.56659 0.38458 0.16078 0.0
C575 C 0.58679 0.41133 0.16276 0.0
C576 C 0.0197 0.28095 0.46594 0.0
C577 C 0.03191 0.27915 0.49671 0.0
C578 C 0.98722 0.28158 0.46049 0.0
C579 C 0.96562 0.28067 0.4856 0.0
H580 H 0.03531 0.283 0.44585 0.0
H581 H 0.97912 0.28424 0.43646 0.0
S582 S 0.98514 0.27165 0.57034 0.0
N583 N 0.01962 0.27322 0.55245 0.0
N584 N 0.9586 0.27457 0.54217 0.0
C585 C 0.97741 0.27694 0.51634 0.0
C586 C 0.01053 0.2761 0.5219 0.0
C587 C 0.69882 0.00625 0.53909 0.0
C588 C 0.70527 0.02725 0.51431 0.0
C589 C 0.69763 0.97373 0.53397 0.0
C590 C 0.70309 0.96085 0.50391 0.0
H591 H 0.69333 0.01496 0.56244 0.0
H592 H 0.69145 0.95869 0.55362 0.0
S593 S 0.72466 0.00548 0.43179 0.0
N594 N 0.71992 0.03268 0.45912 0.0
N595 N 0.71782 0.97161 0.4495 0.0
C596 C 0.71138 0.98146 0.47928 0.0
C597 C 0.71242 0.01463 0.48447 0.0
C598 C 0.9693 0.714 0.47509 0.0
C599 C 0.95671 0.7142 0.50579 0.0
C600 C 0.00185 0.71354 0.46989 0.0
C601 C 0.0232 0.71303 0.49517 0.0
H602 H 0.95393 0.71315 0.45478 0.0
H603 H 0.0102 0.71221 0.44581 0.0
S604 S 0.00264 0.71735 0.58012 0.0
N605 N 0.96838 0.71694 0.56187 0.0
N606 N 0.02953 0.71589 0.55205 0.0
C607 C 0.01103 0.71505 0.52597 0.0
C608 C 0.97783 0.71571 0.53129 0.0
C609 C 0.27402 0.01345 0.5122 0.0
C610 C 0.2706 0.02623 0.4818 0.0
C611 C 0.27348 0.98092 0.51723 0.0
C612 C 0.26967 0.9598 0.49203 0.0
H613 H 0.27849 0.02859 0.53223 0.0
H614 H 0.27775 0.97234 0.54086 0.0
S615 S 0.25471 0.98119 0.40856 0.0
N616 N 0.25945 0.01521 0.42665 0.0
N617 N 0.25853 0.95407 0.4361 0.0
C618 C 0.26387 0.97228 0.46186 0.0
C619 C 0.26429 0.00548 0.45675 0.0
C620 C 0.49875 0.96874 0.27513 0.0
C621 C 0.47372 0.95 0.28599 0.0
C622 C 0.49999 0.00098 0.28201 0.0
C623 C 0.47674 0.01525 0.30081 0.0
H624 H 0.51789 0.95823 0.26193 0.0
H625 H 0.52008 0.01444 0.27391 0.0
S626 S 0.40578 0.97676 0.33407 0.0
N627 N 0.42443 0.94836 0.31522 0.0
N628 N 0.42728 0.00869 0.32887 0.0
C629 C 0.45116 -0.00302 0.31102 0.0
C630 C 0.4495 0.96439 0.30341 0.0
C631 C 0.98638 0.53168 0.27944 0.0
C632 C 0.96439 0.50701 0.27804 0.0
C633 C 0.01876 0.52565 0.27913 0.0
C634 C 0.03049 0.49473 0.27715 0.0
H635 H 0.97862 0.55578 0.28227 0.0
H636 H 0.03468 0.54539 0.28157 0.0
S637 S 0.98261 0.42217 0.26834 0.0
N638 N 0.9565 0.45075 0.27128 0.0
N639 N 0.01735 0.43937 0.27047 0.0
C640 C 0.00874 0.47 0.27358 0.0
C641 C 0.97571 0.47615 0.27412 0.0
C642 C 0.45593 0.97826 0.71358 0.0
C643 C 0.48601 0.9644 0.71441 0.0
C644 C 0.45219 0.01096 0.71393 0.0
C645 C 0.47839 0.03113 0.71481 0.0
H646 H 0.43506 0.9638 0.71152 0.0
H647 H 0.42861 0.02041 0.71187 0.0
S648 S 0.56202 0.00688 0.72157 0.0
N649 N 0.54234 0.97347 0.71953 0.0
N650 N 0.53527 0.03497 0.71994 0.0
C651 C 0.50849 0.01763 0.71769 0.0
C652 C 0.51231 0.98427 0.71759 0.0
C653 C 0.98243 0.51655 0.71587 0.0
C654 C 0.96952 0.48606 0.71579 0.0
C655 C 0.01499 0.52128 0.71679 0.0
C656 C 0.03593 0.4957 0.71729 0.0
H657 H 0.96732 0.53698 0.714 0.0
H658 H 0.02374 0.54516 0.71533 0.0
S659 S 0.01422 0.41128 0.72189 0.0
N660 N 0.98023 0.42995 0.71984 0.0
N661 N 0.0415 0.4389 0.72125 0.0
C662 C 0.02336 0.46516 0.71939 0.0
C663 C 0.99013 0.46033 0.71876 0.0
C664 C 0.28469 0.51657 0.97251 0.0
C665 C 0.28378 0.48543 0.96123 0.0
C666 C 0.2839 0.52313 0.00481 0.0
C667 C 0.28232 0.49883 0.02723 0.0
H668 H 0.28715 0.53613 0.95635 0.0
H669 H 0.28595 0.54743 0.01219 0.0
S670 S 0.27497 0.41349 0.01009 0.0
N671 N 0.27787 0.43018 0.9751 0.0
N672 N 0.27647 0.44253 0.03582 0.0
C673 C 0.2794 0.4677 0.01629 0.0
C674 C 0.28009 0.461 0.98331 0.0
C675 C 0.47919 0.2822 0.97557 0.0
C676 C 0.51079 0.28683 0.96667 0.0
C677 C 0.47034 0.28054 0.00733 0.0
C678 C 0.4927 0.28341 0.03155 0.0
H679 H 0.46087 0.28082 0.95793 0.0
H680 H 0.44557 0.27797 0.01285 0.0
S681 S 0.57905 0.29281 0.02092 0.0
N682 N 0.56488 0.29199 0.98478 0.0
N683 N 0.54831 0.28879 0.04435 0.0
C684 C 0.52463 0.28648 0.02299 0.0
C685 C 0.53364 0.28821 0.99061 0.0
C686 C 0.70545 0.48767 0.97389 0.0
C687 C 0.69244 0.51374 0.95813 0.0
C688 C 0.70124 0.48354 0.00644 0.0
C689 C 0.68317 0.50491 0.02408 0.0
H690 H 0.71858 0.47008 0.96091 0.0
H691 H 0.71109 0.46286 0.0176 0.0
S692 S 0.64552 0.57784 0.99472 0.0
N693 N 0.66217 0.56214 0.96327 0.0
N694 N 0.65364 0.55378 0.02411 0.0
C695 C 0.67075 0.53143 0.00887 0.0
C696 C 0.67557 0.53603 0.97596 0.0
C697 C 0.47489 0.71015 0.9815 0.0
C698 C 0.49833 0.70717 0.95825 0.0
C699 C 0.4824 0.70902 0.01357 0.0
C700 C 0.51367 0.70515 0.02374 0.0
H701 H 0.45033 0.71197 0.97498 0.0
H702 H 0.46333 0.7102 0.0305 0.0
S703 S 0.5843 0.70017 0.9723 0.0
N704 N 0.55449 0.7031 0.94761 0.0
N705 N 0.56862 0.70112 0.00788 0.0
C706 C 0.53758 0.70413 0.00077 0.0
C707 C 0.52991 0.70509 0.96805 0.0
C708 C 0.20363 0.22339 0.48724 0.0
C709 C 0.2118 0.25509 0.4921 0.0
C710 C 0.22632 0.19954 0.48835 0.0
C711 C 0.25814 0.20636 0.49448 0.0
H712 H 0.1795 0.21685 0.48233 0.0
H713 H 0.21877 0.17555 0.4843 0.0
S714 S 0.29181 0.28557 0.50967 0.0
N715 N 0.25399 0.292 0.50382 0.0
N716 N 0.29658 0.24725 0.50595 0.0
C717 C 0.26664 0.23796 0.49963 0.0
C718 C 0.24352 0.26228 0.49842 0.0
C719 C 0.73221 0.23948 0.50648 0.0
C720 C 0.73989 0.20776 0.50102 0.0
C721 C 0.75523 0.26298 0.50587 0.0
C722 C 0.78697 0.25582 0.4997 0.0
H723 H 0.70815 0.24637 0.51138 0.0
H724 H 0.74794 0.28698 0.51029 0.0
S725 S 0.81962 0.17638 0.48354 0.0
N726 N 0.78164 0.17038 0.48903 0.0
N727 N 0.82494 0.21458 0.48784 0.0
C728 C 0.79507 0.22419 0.49408 0.0
C729 C 0.77156 0.20018 0.49477 0.0
C730 C 0.74625 0.73138 0.51492 0.0
C731 C 0.77679 0.74018 0.50558 0.0
C732 C 0.72203 0.75354 0.51741 0.0
C733 C 0.72726 0.78551 0.51066 0.0
H734 H 0.74082 0.70709 0.52036 0.0
H735 H 0.69897 0.74539 0.5246 0.0
S736 S 0.80313 0.82103 0.48543 0.0
N737 N 0.81104 0.78327 0.48971 0.0
N738 N 0.76553 0.82496 0.49437 0.0
C739 C 0.75776 0.79475 0.50142 0.0
C740 C 0.78249 0.77211 0.49888 0.0
C741 C 0.19772 0.76339 0.49185 0.0
C742 C 0.20369 0.73499 0.50775 0.0
C743 C 0.22116 0.78628 0.48837 0.0
C744 C 0.25155 0.7818 0.50072 0.0
H745 H 0.17483 0.76795 0.48165 0.0
H746 H 0.21532 0.80763 0.47576 0.0
S747 S 0.27905 0.71198 0.54554 0.0
N748 N 0.24211 0.70398 0.53677 0.0
N749 N 0.2861 0.74696 0.53026 0.0
C750 C 0.25777 0.75364 0.51704 0.0
C751 C 0.23388 0.73028 0.52054 0.0
C752 C 0.49364 0.22886 0.26726 0.0
C753 C 0.49478 0.197 0.25837 0.0
C754 C 0.49345 0.25285 0.24473 0.0
C755 C 0.49419 0.24606 0.21231 0.0
H756 H 0.49307 0.23547 0.29189 0.0
H757 H 0.4926 0.27696 0.25294 0.0
S758 S 0.49697 0.16642 0.17644 0.0
N759 N 0.49649 0.15986 0.21475 0.0
N760 N 0.496 0.20501 0.17236 0.0
C761 C 0.49517 0.21428 0.20299 0.0
C762 C 0.49553 0.18978 0.22601 0.0
C763 C 0.75385 0.48673 0.25986 0.0
C764 C 0.78595 0.48964 0.25232 0.0
C765 C 0.7309 0.48524 0.23634 0.0
C766 C 0.73904 0.4864 0.20423 0.0
H767 H 0.74619 0.48584 0.28419 0.0
H768 H 0.70652 0.48316 0.24356 0.0
S769 S 0.81993 0.4933 0.17171 0.0
N770 N 0.82484 0.49321 0.21027 0.0
N771 N 0.78164 0.49029 0.16602 0.0
C772 C 0.7711 0.489 0.19623 0.0
C773 C 0.79454 0.49068 0.22027 0.0
C774 C 0.50162 0.75653 0.19816 0.0
C775 C 0.49405 0.72506 0.20506 0.0
C776 C 0.50119 0.77971 0.22158 0.0
C777 C 0.49325 0.7724 0.25294 0.0
H778 H 0.50804 0.76344 0.17445 0.0
H779 H 0.50735 0.80354 0.21498 0.0
S780 S 0.47102 0.69355 0.28344 0.0
N781 N 0.47798 0.68784 0.24562 0.0
N782 N 0.4772 0.73136 0.28959 0.0
C783 C 0.48544 0.74104 0.26019 0.0
C784 C 0.48582 0.71741 0.23629 0.0
C785 C 0.2032 0.50395 0.22464 0.0
C786 C 0.21107 0.50901 0.25643 0.0
C787 C 0.22645 0.50194 0.2013 0.0
C788 C 0.25858 0.50474 0.2088 0.0
H789 H 0.17884 0.50137 0.21762 0.0
H790 H 0.21912 0.49781 0.17724 0.0
S791 S 0.29179 0.51887 0.28847 0.0
N792 N 0.2534 0.51734 0.29411 0.0
N793 N 0.29704 0.51351 0.25033 0.0
C794 C 0.2668 0.51014 0.24046 0.0
C795 C 0.2431 0.51231 0.26423 0.0
C796 C 0.50841 0.76439 0.78979 0.0
C797 C 0.47876 0.75692 0.80261 0.0
C798 C 0.5118 0.78806 0.76713 0.0
C799 C 0.48567 0.80506 0.75612 0.0
H800 H 0.52929 0.75186 0.79726 0.0
H801 H 0.53512 0.79268 0.75789 0.0
S802 S 0.40287 0.79522 0.78252 0.0
N803 N 0.42276 0.7689 0.80298 0.0
N804 N 0.42912 0.81329 0.76027 0.0
C805 C 0.45588 0.79807 0.76891 0.0
C806 C 0.45244 0.77406 0.79218 0.0
C807 C 0.23036 0.48807 0.78785 0.0
C808 C 0.26232 0.48318 0.78068 0.0
C809 C 0.20733 0.48728 0.76434 0.0
C810 C 0.21525 0.4815 0.73267 0.0
H811 H 0.22295 0.49283 0.8118 0.0
H812 H 0.1831 0.4914 0.77116 0.0
S813 S 0.29557 0.46643 0.70143 0.0
N814 N 0.30069 0.47177 0.73957 0.0
N815 N 0.25742 0.47028 0.69542 0.0
C816 C 0.2471 0.47619 0.72516 0.0
C817 C 0.2706 0.47704 0.74914 0.0
C818 C 0.47717 0.2404 0.73046 0.0
C819 C 0.48473 0.20881 0.7368 0.0
C820 C 0.47845 0.26335 0.75406 0.0
C821 C 0.48736 0.25574 0.78505 0.0
H822 H 0.47036 0.24764 0.70698 0.0
H823 H 0.47264 0.28735 0.74777 0.0
S824 S 0.50848 0.17618 0.8144 0.0
N825 N 0.50076 0.17093 0.77669 0.0
N826 N 0.50316 0.21404 0.82102 0.0
C827 C 0.49464 0.22415 0.79188 0.0
C828 C 0.49333 0.20073 0.76779 0.0
C829 C 0.73811 0.51242 0.74948 0.0
C830 C 0.74535 0.50526 0.78101 0.0
C831 C 0.7616 0.51419 0.72643 0.0
C832 C 0.79336 0.50875 0.73387 0.0
H833 H 0.71399 0.5165 0.74232 0.0
H834 H 0.75461 0.51941 0.70247 0.0
S835 S 0.82517 0.49049 0.81327 0.0
N836 N 0.78684 0.49368 0.81872 0.0
N837 N 0.83105 0.49695 0.77538 0.0
C838 C 0.80109 0.50211 0.76543 0.0
C839 C 0.77711 0.50039 0.78899 0.0
loop_
_geom_bond_atom_site_label_1
_geom_bond_atom_site_label_2
_geom_bond_distance
_geom_bond_site_symmetry_2
_ccdc_geom_bond_type
C0 O1 1.160 . S
C0 O7 1.185 . S
O1 C0 1.160 . S
O2 Zn3 1.899 . S
O2 C10 1.284 . S
Zn3 O2 1.899 . S
Zn3 O4 2.032 . S
Zn3 O7 2.086 . S
Zn3 O12 1.977 . S
O4 Zn3 2.032 . S
O4 C8 1.278 . S
C5 O6 1.203 . S
C5 O12 1.267 . S
O6 C5 1.203 . S
O7 C0 1.185 . S
O7 Zn3 2.086 . S
C8 O4 1.278 . S
C8 O9 1.211 . S
O9 C8 1.211 . S
C10 O2 1.284 . S
C10 O11 1.273 . S
O11 C10 1.273 . S
O12 Zn3 1.977 . S
O12 C5 1.267 . S
C13 O14 1.160 . S
C13 O20 1.185 . S
O14 C13 1.160 . S
O15 Zn16 1.899 . S
O15 C23 1.284 . S
Zn16 O15 1.899 . S
Zn16 O17 2.032 . S
Zn16 O20 2.086 . S
Zn16 O25 1.977 . S
O17 Zn16 2.032 . S
O17 C21 1.278 . S
C18 O19 1.203 . S
C18 O25 1.267 . S
O19 C18 1.203 . S
O20 C13 1.185 . S
O20 Zn16 2.086 . S
C21 O17 1.278 . S
C21 O22 1.211 . S
O22 C21 1.211 . S
C23 O15 1.284 . S
C23 O24 1.273 . S
O24 C23 1.273 . S
O25 Zn16 1.977 . S
O25 C18 1.267 . S
C26 O27 1.160 . S
C26 O33 1.185 . S
O27 C26 1.160 . S
O28 Zn29 1.899 . S
O28 C36 1.284 . S
Zn29 O28 1.899 . S
Zn29 O30 2.032 . S
Zn29 O33 2.086 . S
Zn29 O38 1.977 . S
O30 Zn29 2.032 . S
O30 C34 1.278 . S
C31 O32 1.203 . S
C31 O38 1.267 . S
O32 C31 1.203 . S
O33 C26 1.185 . S
O33 Zn29 2.086 . S
C34 O30 1.278 . S
C34 O35 1.211 . S
O35 C34 1.211 . S
C36 O28 1.284 . S
C36 O37 1.273 . S
O37 C36 1.273 . S
O38 Zn29 1.977 . S
O38 C31 1.267 . S
C39 O40 1.160 . S
C39 O46 1.185 . S
O40 C39 1.160 . S
O41 Zn42 1.899 . S
O41 C49 1.284 . S
Zn42 O41 1.899 . S
Zn42 O43 2.032 . S
Zn42 O46 2.086 . S
Zn42 O51 1.977 . S
O43 Zn42 2.032 . S
O43 C47 1.278 . S
C44 O45 1.203 . S
C44 O51 1.267 . S
O45 C44 1.203 . S
O46 C39 1.185 . S
O46 Zn42 2.086 . S
C47 O43 1.278 . S
C47 O48 1.211 . S
O48 C47 1.211 . S
C49 O41 1.284 . S
C49 O50 1.273 . S
O50 C49 1.273 . S
O51 Zn42 1.977 . S
O51 C44 1.267 . S
C52 O53 1.160 . S
C52 O59 1.185 . S
O53 C52 1.160 . S
O54 Zn55 1.899 . S
O54 C62 1.284 . S
Zn55 O54 1.899 . S
Zn55 O56 2.032 . S
Zn55 O59 2.086 . S
Zn55 O64 1.977 . S
O56 Zn55 2.032 . S
O56 C60 1.278 . S
C57 O58 1.203 . S
C57 O64 1.267 . S
O58 C57 1.203 . S
O59 C52 1.185 . S
O59 Zn55 2.086 . S
C60 O56 1.278 . S
C60 O61 1.211 . S
O61 C60 1.211 . S
C62 O54 1.284 . S
C62 O63 1.273 . S
O63 C62 1.273 . S
O64 Zn55 1.977 . S
O64 C57 1.267 . S
C65 O66 1.160 . S
C65 O72 1.185 . S
O66 C65 1.160 . S
O67 Zn68 1.899 . S
O67 C75 1.284 . S
Zn68 O67 1.899 . S
Zn68 O69 2.032 . S
Zn68 O72 2.086 . S
Zn68 O77 1.977 . S
O69 Zn68 2.032 . S
O69 C73 1.278 . S
C70 O71 1.203 . S
C70 O77 1.267 . S
O71 C70 1.203 . S
O72 C65 1.185 . S
O72 Zn68 2.086 . S
C73 O69 1.278 . S
C73 O74 1.211 . S
O74 C73 1.211 . S
C75 O67 1.284 . S
C75 O76 1.273 . S
O76 C75 1.273 . S
O77 Zn68 1.977 . S
O77 C70 1.267 . S
C78 O79 1.160 . S
C78 O85 1.185 . S
O79 C78 1.160 . S
O80 Zn81 1.899 . S
O80 C88 1.284 . S
Zn81 O80 1.899 . S
Zn81 O82 2.032 . S
Zn81 O85 2.086 . S
Zn81 O90 1.977 . S
O82 Zn81 2.032 . S
O82 C86 1.278 . S
C83 O84 1.203 . S
C83 O90 1.267 . S
O84 C83 1.203 . S
O85 C78 1.185 . S
O85 Zn81 2.086 . S
C86 O82 1.278 . S
C86 O87 1.211 . S
O87 C86 1.211 . S
C88 O80 1.284 . S
C88 O89 1.273 . S
O89 C88 1.273 . S
O90 Zn81 1.977 . S
O90 C83 1.267 . S
C91 O92 1.160 . S
C91 O98 1.185 . S
O92 C91 1.160 . S
O93 Zn94 1.899 . S
O93 C101 1.284 . S
Zn94 O93 1.899 . S
Zn94 O95 2.032 . S
Zn94 O98 2.086 . S
Zn94 O103 1.977 . S
O95 Zn94 2.032 . S
O95 C99 1.278 . S
C96 O97 1.203 . S
C96 O103 1.267 . S
O97 C96 1.203 . S
O98 C91 1.185 . S
O98 Zn94 2.086 . S
C99 O95 1.278 . S
C99 O100 1.211 . S
O100 C99 1.211 . S
C101 O93 1.284 . S
C101 O102 1.273 . S
O102 C101 1.273 . S
O103 Zn94 1.977 . S
O103 C96 1.267 . S
C104 O105 1.160 . S
C104 O111 1.185 . S
O105 C104 1.160 . S
O106 Zn107 1.899 . S
O106 C114 1.284 . S
Zn107 O106 1.899 . S
Zn107 O108 2.032 . S
Zn107 O111 2.086 . S
Zn107 O116 1.977 . S
O108 Zn107 2.032 . S
O108 C112 1.278 . S
C109 O110 1.203 . S
C109 O116 1.267 . S
O110 C109 1.203 . S
O111 C104 1.185 . S
O111 Zn107 2.086 . S
C112 O108 1.278 . S
C112 O113 1.211 . S
O113 C112 1.211 . S
C114 O106 1.284 . S
C114 O115 1.273 . S
O115 C114 1.273 . S
O116 Zn107 1.977 . S
O116 C109 1.267 . S
C117 O118 1.160 . S
C117 O124 1.185 . S
O118 C117 1.160 . S
O119 Zn120 1.899 . S
O119 C127 1.284 . S
Zn120 O119 1.899 . S
Zn120 O121 2.032 . S
Zn120 O124 2.086 . S
Zn120 O129 1.977 . S
O121 Zn120 2.032 . S
O121 C125 1.278 . S
C122 O123 1.203 . S
C122 O129 1.267 . S
O123 C122 1.203 . S
O124 C117 1.185 . S
O124 Zn120 2.086 . S
C125 O121 1.278 . S
C125 O126 1.211 . S
O126 C125 1.211 . S
C127 O119 1.284 . S
C127 O128 1.273 . S
O128 C127 1.273 . S
O129 Zn120 1.977 . S
O129 C122 1.267 . S
C130 O131 1.160 . S
C130 O137 1.185 . S
O131 C130 1.160 . S
O132 Zn133 1.899 . S
O132 C140 1.284 . S
Zn133 O132 1.899 . S
Zn133 O134 2.032 . S
Zn133 O137 2.086 . S
Zn133 O142 1.977 . S
O134 Zn133 2.032 . S
O134 C138 1.278 . S
C135 O136 1.203 . S
C135 O142 1.267 . S
O136 C135 1.203 . S
O137 C130 1.185 . S
O137 Zn133 2.086 . S
C138 O134 1.278 . S
C138 O139 1.211 . S
O139 C138 1.211 . S
C140 O132 1.284 . S
C140 O141 1.273 . S
O141 C140 1.273 . S
O142 Zn133 1.977 . S
O142 C135 1.267 . S
C143 O144 1.160 . S
C143 O150 1.185 . S
O144 C143 1.160 . S
O145 Zn146 1.899 . S
O145 C153 1.284 . S
Zn146 O145 1.899 . S
Zn146 O147 2.032 . S
Zn146 O150 2.086 . S
Zn146 O155 1.977 . S
O147 Zn146 2.032 . S
O147 C151 1.278 . S
C148 O149 1.203 . S
C148 O155 1.267 . S
O149 C148 1.203 . S
O150 C143 1.185 . S
O150 Zn146 2.086 . S
C151 O147 1.278 . S
C151 O152 1.211 . S
O152 C151 1.211 . S
C153 O145 1.284 . S
C153 O154 1.273 . S
O154 C153 1.273 . S
O155 Zn146 1.977 . S
O155 C148 1.267 . S
C156 O157 1.160 . S
C156 O163 1.185 . S
O157 C156 1.160 . S
O158 Zn159 1.899 . S
O158 C166 1.284 . S
Zn159 O158 1.899 . S
Zn159 O160 2.032 . S
Zn159 O163 2.086 . S
Zn159 O168 1.977 . S
O160 Zn159 2.032 . S
O160 C164 1.278 . S
C161 O162 1.203 . S
C161 O168 1.267 . S
O162 C161 1.203 . S
O163 C156 1.185 . S
O163 Zn159 2.086 . S
C164 O160 1.278 . S
C164 O165 1.211 . S
O165 C164 1.211 . S
C166 O158 1.284 . S
C166 O167 1.273 . S
O167 C166 1.273 . S
O168 Zn159 1.977 . S
O168 C161 1.267 . S
C169 O170 1.160 . S
C169 O176 1.185 . S
O170 C169 1.160 . S
O171 Zn172 1.899 . S
O171 C179 1.284 . S
Zn172 O171 1.899 . S
Zn172 O173 2.032 . S
Zn172 O176 2.086 . S
Zn172 O181 1.977 . S
O173 Zn172 2.032 . S
O173 C177 1.278 . S
C174 O175 1.203 . S
C174 O181 1.267 . S
O175 C174 1.203 . S
O176 C169 1.185 . S
O176 Zn172 2.086 . S
C177 O173 1.278 . S
C177 O178 1.211 . S
O178 C177 1.211 . S
C179 O171 1.284 . S
C179 O180 1.273 . S
O180 C179 1.273 . S
O181 Zn172 1.977 . S
O181 C174 1.267 . S
C182 O183 1.160 . S
C182 O189 1.185 . S
O183 C182 1.160 . S
O184 Zn185 1.899 . S
O184 C192 1.284 . S
Zn185 O184 1.899 . S
Zn185 O186 2.032 . S
Zn185 O189 2.086 . S
Zn185 O194 1.977 . S
O186 Zn185 2.032 . S
O186 C190 1.278 . S
C187 O188 1.203 . S
C187 O194 1.267 . S
O188 C187 1.203 . S
O189 C182 1.185 . S
O189 Zn185 2.086 . S
C190 O186 1.278 . S
C190 O191 1.211 . S
O191 C190 1.211 . S
C192 O184 1.284 . S
C192 O193 1.273 . S
O193 C192 1.273 . S
O194 Zn185 1.977 . S
O194 C187 1.267 . S
C195 O196 1.160 . S
C195 O202 1.185 . S
O196 C195 1.160 . S
O197 Zn198 1.899 . S
O197 C205 1.284 . S
Zn198 O197 1.899 . S
Zn198 O199 2.032 . S
Zn198 O202 2.086 . S
Zn198 O207 1.977 . S
O199 Zn198 2.032 . S
O199 C203 1.278 . S
C200 O201 1.203 . S
C200 O207 1.267 . S
O201 C200 1.203 . S
O202 C195 1.185 . S
O202 Zn198 2.086 . S
C203 O199 1.278 . S
C203 O204 1.211 . S
O204 C203 1.211 . S
C205 O197 1.284 . S
C205 O206 1.273 . S
O206 C205 1.273 . S
O207 Zn198 1.977 . S
O207 C200 1.267 . S
C208 O209 1.160 . S
C208 O215 1.185 . S
O209 C208 1.160 . S
O210 Zn211 1.899 . S
O210 C218 1.284 . S
Zn211 O210 1.899 . S
Zn211 O212 2.032 . S
Zn211 O215 2.086 . S
Zn211 O220 1.977 . S
O212 Zn211 2.032 . S
O212 C216 1.278 . S
C213 O214 1.203 . S
C213 O220 1.267 . S
O214 C213 1.203 . S
O215 C208 1.185 . S
O215 Zn211 2.086 . S
C216 O212 1.278 . S
C216 O217 1.211 . S
O217 C216 1.211 . S
C218 O210 1.284 . S
C218 O219 1.273 . S
O219 C218 1.273 . S
O220 Zn211 1.977 . S
O220 C213 1.267 . S
C221 O222 1.160 . S
C221 O228 1.185 . S
O222 C221 1.160 . S
O223 Zn224 1.899 . S
O223 C231 1.284 . S
Zn224 O223 1.899 . S
Zn224 O225 2.032 . S
Zn224 O228 2.086 . S
Zn224 O233 1.977 . S
O225 Zn224 2.032 . S
O225 C229 1.278 . S
C226 O227 1.203 . S
C226 O233 1.267 . S
O227 C226 1.203 . S
O228 C221 1.185 . S
O228 Zn224 2.086 . S
C229 O225 1.278 . S
C229 O230 1.211 . S
O230 C229 1.211 . S
C231 O223 1.284 . S
C231 O232 1.273 . S
O232 C231 1.273 . S
O233 Zn224 1.977 . S
O233 C226 1.267 . S
C234 O235 1.160 . S
C234 O241 1.185 . S
O235 C234 1.160 . S
O236 Zn237 1.899 . S
O236 C244 1.284 . S
Zn237 O236 1.899 . S
Zn237 O238 2.032 . S
Zn237 O241 2.086 . S
Zn237 O246 1.977 . S
O238 Zn237 2.032 . S
O238 C242 1.278 . S
C239 O240 1.203 . S
C239 O246 1.267 . S
O240 C239 1.203 . S
O241 C234 1.185 . S
O241 Zn237 2.086 . S
C242 O238 1.278 . S
C242 O243 1.211 . S
O243 C242 1.211 . S
C244 O236 1.284 . S
C244 O245 1.273 . S
O245 C244 1.273 . S
O246 Zn237 1.977 . S
O246 C239 1.267 . S
C247 O248 1.160 . S
C247 O254 1.185 . S
O248 C247 1.160 . S
O249 Zn250 1.899 . S
O249 C257 1.284 . S
Zn250 O249 1.899 . S
Zn250 O251 2.032 . S
Zn250 O254 2.086 . S
Zn250 O259 1.977 . S
O251 Zn250 2.032 . S
O251 C255 1.278 . S
C252 O253 1.203 . S
C252 O259 1.267 . S
O253 C252 1.203 . S
O254 C247 1.185 . S
O254 Zn250 2.086 . S
C255 O251 1.278 . S
C255 O256 1.211 . S
O256 C255 1.211 . S
C257 O249 1.284 . S
C257 O258 1.273 . S
O258 C257 1.273 . S
O259 Zn250 1.977 . S
O259 C252 1.267 . S
C260 O261 1.160 . S
C260 O267 1.185 . S
O261 C260 1.160 . S
O262 Zn263 1.899 . S
O262 C270 1.284 . S
Zn263 O262 1.899 . S
Zn263 O264 2.032 . S
Zn263 O267 2.086 . S
Zn263 O272 1.977 . S
O264 Zn263 2.032 . S
O264 C268 1.278 . S
C265 O266 1.203 . S
C265 O272 1.267 . S
O266 C265 1.203 . S
O267 C260 1.185 . S
O267 Zn263 2.086 . S
C268 O264 1.278 . S
C268 O269 1.211 . S
O269 C268 1.211 . S
C270 O262 1.284 . S
C270 O271 1.273 . S
O271 C270 1.273 . S
O272 Zn263 1.977 . S
O272 C265 1.267 . S
C273 O274 1.160 . S
C273 O280 1.185 . S
O274 C273 1.160 . S
O275 Zn276 1.899 . S
O275 C283 1.284 . S
Zn276 O275 1.899 . S
Zn276 O277 2.032 . S
Zn276 O280 2.086 . S
Zn276 O285 1.977 . S
O277 Zn276 2.032 . S
O277 C281 1.278 . S
C278 O279 1.203 . S
C278 O285 1.267 . S
O279 C278 1.203 . S
O280 C273 1.185 . S
O280 Zn276 2.086 . S
C281 O277 1.278 . S
C281 O282 1.211 . S
O282 C281 1.211 . S
C283 O275 1.284 . S
C283 O284 1.273 . S
O284 C283 1.273 . S
O285 Zn276 1.977 . S
O285 C278 1.267 . S
C286 O287 1.160 . S
C286 O293 1.185 . S
O287 C286 1.160 . S
O288 Zn289 1.899 . S
O288 C296 1.284 . S
Zn289 O288 1.899 . S
Zn289 O290 2.032 . S
Zn289 O293 2.086 . S
Zn289 O298 1.977 . S
O290 Zn289 2.032 . S
O290 C294 1.278 . S
C291 O292 1.203 . S
C291 O298 1.267 . S
O292 C291 1.203 . S
O293 C286 1.185 . S
O293 Zn289 2.086 . S
C294 O290 1.278 . S
C294 O295 1.211 . S
O295 C294 1.211 . S
C296 O288 1.284 . S
C296 O297 1.273 . S
O297 C296 1.273 . S
O298 Zn289 1.977 . S
O298 C291 1.267 . S
C299 O300 1.160 . S
C299 O306 1.185 . S
O300 C299 1.160 . S
O301 Zn302 1.899 . S
O301 C309 1.284 . S
Zn302 O301 1.899 . S
Zn302 O303 2.032 . S
Zn302 O306 2.086 . S
Zn302 O311 1.977 . S
O303 Zn302 2.032 . S
O303 C307 1.278 . S
C304 O305 1.203 . S
C304 O311 1.267 . S
O305 C304 1.203 . S
O306 C299 1.185 . S
O306 Zn302 2.086 . S
C307 O303 1.278 . S
C307 O308 1.211 . S
O308 C307 1.211 . S
C309 O301 1.284 . S
C309 O310 1.273 . S
O310 C309 1.273 . S
O311 Zn302 1.977 . S
O311 C304 1.267 . S
C312 C313 1.369 . S
C312 C314 1.419 . S
C312 H316 0.930 . S
C313 C312 1.369 . S
C313 C322 1.429 . S
C314 C312 1.419 . S
C314 C315 1.363 . S
C314 H317 0.929 . S
C315 C314 1.363 . S
C315 C321 1.428 . S
H316 C312 0.930 . S
H317 C314 0.929 . S
S318 N319 1.613 . S
S318 N320 1.610 . S
N319 S318 1.613 . S
N319 C322 1.350 . S
N320 S318 1.610 . S
N320 C321 1.351 . S
C321 C315 1.428 . S
C321 N320 1.351 . S
C321 C322 1.434 . S
C322 C313 1.429 . S
C322 N319 1.350 . S
C322 C321 1.434 . S
C323 C324 1.369 . S
C323 C325 1.419 . S
C323 H327 0.930 . S
C324 C323 1.369 . S
C324 C333 1.429 . S
C325 C323 1.419 . S
C325 C326 1.363 . S
C325 H328 0.929 . S
C326 C325 1.363 . S
C326 C332 1.428 . S
H327 C323 0.930 . S
H328 C325 0.929 . S
S329 N330 1.613 . S
S329 N331 1.610 . S
N330 S329 1.613 . S
N330 C333 1.350 . S
N331 S329 1.610 . S
N331 C332 1.351 . S
C332 C326 1.428 . S
C332 N331 1.351 . S
C332 C333 1.434 . S
C333 C324 1.429 . S
C333 N330 1.350 . S
C333 C332 1.434 . S
C334 C335 1.369 . S
C334 C336 1.419 . S
C334 H338 0.930 . S
C335 C334 1.369 . S
C335 C344 1.429 . S
C336 C334 1.419 . S
C336 C337 1.363 . S
C336 H339 0.929 . S
C337 C336 1.363 . S
C337 C343 1.428 . S
H338 C334 0.930 . S
H339 C336 0.929 . S
S340 N341 1.613 . S
S340 N342 1.610 . S
N341 S340 1.613 . S
N341 C344 1.350 . S
N342 S340 1.610 . S
N342 C343 1.351 . S
C343 C337 1.428 . S
C343 N342 1.351 . S
C343 C344 1.434 . S
C344 C335 1.429 . S
C344 N341 1.350 . S
C344 C343 1.434 . S
C345 C346 1.369 . S
C345 C347 1.419 . S
C345 H349 0.930 . S
C346 C345 1.369 . S
C346 C355 1.429 . S
C347 C345 1.419 . S
C347 C348 1.363 . S
C347 H350 0.929 . S
C348 C347 1.363 . S
C348 C354 1.428 . S
H349 C345 0.930 . S
H350 C347 0.929 . S
S351 N352 1.613 . S
S351 N353 1.610 . S
N352 S351 1.613 . S
N352 C355 1.350 . S
N353 S351 1.610 . S
N353 C354 1.351 . S
C354 C348 1.428 . S
C354 N353 1.351 . S
C354 C355 1.434 . S
C355 C346 1.429 . S
C355 N352 1.350 . S
C355 C354 1.434 . S
C356 C357 1.369 . S
C356 C358 1.419 . S
C356 H360 0.930 . S
C357 C356 1.369 . S
C357 C366 1.429 . S
C358 C356 1.419 . S
C358 C359 1.363 . S
C358 H361 0.929 . S
C359 C358 1.363 . S
C359 C365 1.428 . S
H360 C356 0.930 . S
H361 C358 0.929 . S
S362 N363 1.613 . S
S362 N364 1.610 . S
N363 S362 1.613 . S
N363 C366 1.350 . S
N364 S362 1.610 . S
N364 C365 1.351 . S
C365 C359 1.428 . S
C365 N364 1.351 . S
C365 C366 1.434 . S
C366 C357 1.429 . S
C366 N363 1.350 . S
C366 C365 1.434 . S
C367 C368 1.369 . S
C367 C369 1.419 . S
C367 H371 0.930 . S
C368 C367 1.369 . S
C368 C377 1.429 . S
C369 C367 1.419 . S
C369 C370 1.363 . S
C369 H372 0.929 . S
C370 C369 1.363 . S
C370 C376 1.428 . S
H371 C367 0.930 . S
H372 C369 0.929 . S
S373 N374 1.613 . S
S373 N375 1.610 . S
N374 S373 1.613 . S
N374 C377 1.350 . S
N375 S373 1.610 . S
N375 C376 1.351 . S
C376 C370 1.428 . S
C376 N375 1.351 . S
C376 C377 1.434 . S
C377 C368 1.429 . S
C377 N374 1.350 . S
C377 C376 1.434 . S
C378 C379 1.369 . S
C378 C380 1.419 . S
C378 H382 0.930 . S
C379 C378 1.369 . S
C379 C388 1.429 . S
C380 C378 1.419 . S
C380 C381 1.363 . S
C380 H383 0.929 . S
C381 C380 1.363 . S
C381 C387 1.428 . S
H382 C378 0.930 . S
H383 C380 0.929 . S
S384 N385 1.613 . S
S384 N386 1.610 . S
N385 S384 1.613 . S
N385 C388 1.350 . S
N386 S384 1.610 . S
N386 C387 1.351 . S
C387 C381 1.428 . S
C387 N386 1.351 . S
C387 C388 1.434 . S
C388 C379 1.429 . S
C388 N385 1.350 . S
C388 C387 1.434 . S
C389 C390 1.369 . S
C389 C391 1.419 . S
C389 H393 0.930 . S
C390 C389 1.369 . S
C390 C399 1.429 . S
C391 C389 1.419 . S
C391 C392 1.363 . S
C391 H394 0.929 . S
C392 C391 1.363 . S
C392 C398 1.428 . S
H393 C389 0.930 . S
H394 C391 0.929 . S
S395 N396 1.613 . S
S395 N397 1.610 . S
N396 S395 1.613 . S
N396 C399 1.350 . S
N397 S395 1.610 . S
N397 C398 1.351 . S
C398 C392 1.428 . S
C398 N397 1.351 . S
C398 C399 1.434 . S
C399 C390 1.429 . S
C399 N396 1.350 . S
C399 C398 1.434 . S
C400 C401 1.369 . S
C400 C402 1.419 . S
C400 H404 0.930 . S
C401 C400 1.369 . S
C401 C410 1.429 . S
C402 C400 1.419 . S
C402 C403 1.363 . S
C402 H405 0.929 . S
C403 C402 1.363 . S
C403 C409 1.428 . S
H404 C400 0.930 . S
H405 C402 0.929 . S
S406 N407 1.613 . S
S406 N408 1.610 . S
N407 S406 1.613 . S
N407 C410 1.350 . S
N408 S406 1.610 . S
N408 C409 1.351 . S
C409 C403 1.428 . S
C409 N408 1.351 . S
C409 C410 1.434 . S
C410 C401 1.429 . S
C410 N407 1.350 . S
C410 C409 1.434 . S
C411 C412 1.369 . S
C411 C413 1.419 . S
C411 H415 0.930 . S
C412 C411 1.369 . S
C412 C421 1.429 . S
C413 C411 1.419 . S
C413 C414 1.363 . S
C413 H416 0.929 . S
C414 C413 1.363 . S
C414 C420 1.428 . S
H415 C411 0.930 . S
H416 C413 0.929 . S
S417 N418 1.613 . S
S417 N419 1.610 . S
N418 S417 1.613 . S
N418 C421 1.350 . S
N419 S417 1.610 . S
N419 C420 1.351 . S
C420 C414 1.428 . S
C420 N419 1.351 . S
C420 C421 1.434 . S
C421 C412 1.429 . S
C421 N418 1.350 . S
C421 C420 1.434 . S
C422 C423 1.369 . S
C422 C424 1.419 . S
C422 H426 0.930 . S
C423 C422 1.369 . S
C423 C432 1.429 . S
C424 C422 1.419 . S
C424 C425 1.363 . S
C424 H427 0.929 . S
C425 C424 1.363 . S
C425 C431 1.428 . S
H426 C422 0.930 . S
H427 C424 0.929 . S
S428 N429 1.613 . S
S428 N430 1.610 . S
N429 S428 1.613 . S
N429 C432 1.350 . S
N430 S428 1.610 . S
N430 C431 1.351 . S
C431 C425 1.428 . S
C431 N430 1.351 . S
C431 C432 1.434 . S
C432 C423 1.429 . S
C432 N429 1.350 . S
C432 C431 1.434 . S
C433 C434 1.369 . S
C433 C435 1.419 . S
C433 H437 0.930 . S
C434 C433 1.369 . S
C434 C443 1.429 . S
C435 C433 1.419 . S
C435 C436 1.363 . S
C435 H438 0.929 . S
C436 C435 1.363 . S
C436 C442 1.428 . S
H437 C433 0.930 . S
H438 C435 0.929 . S
S439 N440 1.613 . S
S439 N441 1.610 . S
N440 S439 1.613 . S
N440 C443 1.350 . S
N441 S439 1.610 . S
N441 C442 1.351 . S
C442 C436 1.428 . S
C442 N441 1.351 . S
C442 C443 1.434 . S
C443 C434 1.429 . S
C443 N440 1.350 . S
C443 C442 1.434 . S
C444 C445 1.369 . S
C444 C446 1.419 . S
C444 H448 0.930 . S
C445 C444 1.369 . S
C445 C454 1.429 . S
C446 C444 1.419 . S
C446 C447 1.363 . S
C446 H449 0.929 . S
C447 C446 1.363 . S
C447 C453 1.428 . S
H448 C444 0.930 . S
H449 C446 0.929 . S
S450 N451 1.613 . S
S450 N452 1.610 . S
N451 S450 1.613 . S
N451 C454 1.350 . S
N452 S450 1.610 . S
N452 C453 1.351 . S
C453 C447 1.428 . S
C453 N452 1.351 . S
C453 C454 1.434 . S
C454 C445 1.429 . S
C454 N451 1.350 . S
C454 C453 1.434 . S
C455 C456 1.369 . S
C455 C457 1.419 . S
C455 H459 0.930 . S
C456 C455 1.369 . S
C456 C465 1.429 . S
C457 C455 1.419 . S
C457 C458 1.363 . S
C457 H460 0.929 . S
C458 C457 1.363 . S
C458 C464 1.428 . S
H459 C455 0.930 . S
H460 C457 0.929 . S
S461 N462 1.613 . S
S461 N463 1.610 . S
N462 S461 1.613 . S
N462 C465 1.350 . S
N463 S461 1.610 . S
N463 C464 1.351 . S
C464 C458 1.428 . S
C464 N463 1.351 . S
C464 C465 1.434 . S
C465 C456 1.429 . S
C465 N462 1.350 . S
C465 C464 1.434 . S
C466 C467 1.369 . S
C466 C468 1.419 . S
C466 H470 0.930 . S
C467 C466 1.369 . S
C467 C476 1.429 . S
C468 C466 1.419 . S
C468 C469 1.363 . S
C468 H471 0.929 . S
C469 C468 1.363 . S
C469 C475 1.428 . S
H470 C466 0.930 . S
H471 C468 0.929 . S
S472 N473 1.613 . S
S472 N474 1.610 . S
N473 S472 1.613 . S
N473 C476 1.350 . S
N474 S472 1.610 . S
N474 C475 1.351 . S
C475 C469 1.428 . S
C475 N474 1.351 . S
C475 C476 1.434 . S
C476 C467 1.429 . S
C476 N473 1.350 . S
C476 C475 1.434 . S
C477 C478 1.369 . S
C477 C479 1.419 . S
C477 H481 0.930 . S
C478 C477 1.369 . S
C478 C487 1.429 . S
C479 C477 1.419 . S
C479 C480 1.363 . S
C479 H482 0.929 . S
C480 C479 1.363 . S
C480 C486 1.428 . S
H481 C477 0.930 . S
H482 C479 0.929 . S
S483 N484 1.613 . S
S483 N485 1.610 . S
N484 S483 1.613 . S
N484 C487 1.350 . S
N485 S483 1.610 . S
N485 C486 1.351 . S
C486 C480 1.428 . S
C486 N485 1.351 . S
C486 C487 1.434 . S
C487 C478 1.429 . S
C487 N484 1.350 . S
C487 C486 1.434 . S
C488 C489 1.369 . S
C488 C490 1.419 . S
C488 H492 0.930 . S
C489 C488 1.369 . S
C489 C498 1.429 . S
C490 C488 1.419 . S
C490 C491 1.363 . S
C490 H493 0.929 . S
C491 C490 1.363 . S
C491 C497 1.428 . S
H492 C488 0.930 . S
H493 C490 0.929 . S
S494 N495 1.613 . S
S494 N496 1.610 . S
N495 S494 1.613 . S
N495 C498 1.350 . S
N496 S494 1.610 . S
N496 C497 1.351 . S
C497 C491 1.428 . S
C497 N496 1.351 . S
C497 C498 1.434 . S
C498 C489 1.429 . S
C498 N495 1.350 . S
C498 C497 1.434 . S
C499 C500 1.369 . S
C499 C501 1.419 . S
C499 H503 0.930 . S
C500 C499 1.369 . S
C500 C509 1.429 . S
C501 C499 1.419 . S
C501 C502 1.363 . S
C501 H504 0.929 . S
C502 C501 1.363 . S
C502 C508 1.428 . S
H503 C499 0.930 . S
H504 C501 0.929 . S
S505 N506 1.613 . S
S505 N507 1.610 . S
N506 S505 1.613 . S
N506 C509 1.350 . S
N507 S505 1.610 . S
N507 C508 1.351 . S
C508 C502 1.428 . S
C508 N507 1.351 . S
C508 C509 1.434 . S
C509 C500 1.429 . S
C509 N506 1.350 . S
C509 C508 1.434 . S
C510 C511 1.369 . S
C510 C512 1.419 . S
C510 H514 0.930 . S
C511 C510 1.369 . S
C511 C520 1.429 . S
C512 C510 1.419 . S
C512 C513 1.363 . S
C512 H515 0.929 . S
C513 C512 1.363 . S
C513 C519 1.428 . S
H514 C510 0.930 . S
H515 C512 0.929 . S
S516 N517 1.613 . S
S516 N518 1.610 . S
N517 S516 1.613 . S
N517 C520 1.350 . S
N518 S516 1.610 . S
N518 C519 1.351 . S
C519 C513 1.428 . S
C519 N518 1.351 . S
C519 C520 1.434 . S
C520 C511 1.429 . S
C520 N517 1.350 . S
C520 C519 1.434 . S
C521 C522 1.369 . S
C521 C523 1.419 . S
C521 H525 0.930 . S
C522 C521 1.369 . S
C522 C531 1.429 . S
C523 C521 1.419 . S
C523 C524 1.363 . S
C523 H526 0.929 . S
C524 C523 1.363 . S
C524 C530 1.428 . S
H525 C521 0.930 . S
H526 C523 0.929 . S
S527 N528 1.613 . S
S527 N529 1.610 . S
N528 S527 1.613 . S
N528 C531 1.350 . S
N529 S527 1.610 . S
N529 C530 1.351 . S
C530 C524 1.428 . S
C530 N529 1.351 . S
C530 C531 1.434 . S
C531 C522 1.429 . S
C531 N528 1.350 . S
C531 C530 1.434 . S
C532 C533 1.369 . S
C532 C534 1.419 . S
C532 H536 0.930 . S
C533 C532 1.369 . S
C533 C542 1.429 . S
C534 C532 1.419 . S
C534 C535 1.363 . S
C534 H537 0.929 . S
C535 C534 1.363 . S
C535 C541 1.428 . S
H536 C532 0.930 . S
H537 C534 0.929 . S
S538 N539 1.613 . S
S538 N540 1.610 . S
N539 S538 1.613 . S
N539 C542 1.350 . S
N540 S538 1.610 . S
N540 C541 1.351 . S
C541 C535 1.428 . S
C541 N540 1.351 . S
C541 C542 1.434 . S
C542 C533 1.429 . S
C542 N539 1.350 . S
C542 C541 1.434 . S
C543 C544 1.369 . S
C543 C545 1.419 . S
C543 H547 0.930 . S
C544 C543 1.369 . S
C544 C553 1.429 . S
C545 C543 1.419 . S
C545 C546 1.363 . S
C545 H548 0.929 . S
C546 C545 1.363 . S
C546 C552 1.428 . S
H547 C543 0.930 . S
H548 C545 0.929 . S
S549 N550 1.613 . S
S549 N551 1.610 . S
N550 S549 1.613 . S
N550 C553 1.350 . S
N551 S549 1.610 . S
N551 C552 1.351 . S
C552 C546 1.428 . S
C552 N551 1.351 . S
C552 C553 1.434 . S
C553 C544 1.429 . S
C553 N550 1.350 . S
C553 C552 1.434 . S
C554 C555 1.369 . S
C554 C556 1.419 . S
C554 H558 0.930 . S
C555 C554 1.369 . S
C555 C564 1.429 . S
C556 C554 1.419 . S
C556 C557 1.363 . S
C556 H559 0.929 . S
C557 C556 1.363 . S
C557 C563 1.428 . S
H558 C554 0.930 . S
H559 C556 0.929 . S
S560 N561 1.613 . S
S560 N562 1.610 . S
N561 S560 1.613 . S
N561 C564 1.350 . S
N562 S560 1.610 . S
N562 C563 1.351 . S
C563 C557 1.428 . S
C563 N562 1.351 . S
C563 C564 1.434 . S
C564 C555 1.429 . S
C564 N561 1.350 . S
C564 C563 1.434 . S
C565 C566 1.369 . S
C565 C567 1.419 . S
C565 H569 0.930 . S
C566 C565 1.369 . S
C566 C575 1.429 . S
C567 C565 1.419 . S
C567 C568 1.363 . S
C567 H570 0.929 . S
C568 C567 1.363 . S
C568 C574 1.428 . S
H569 C565 0.930 . S
H570 C567 0.929 . S
S571 N572 1.613 . S
S571 N573 1.610 . S
N572 S571 1.613 . S
N572 C575 1.350 . S
N573 S571 1.610 . S
N573 C574 1.351 . S
C574 C568 1.428 . S
C574 N573 1.351 . S
C574 C575 1.434 . S
C575 C566 1.429 . S
C575 N572 1.350 . S
C575 C574 1.434 . S
C576 C577 1.369 . S
C576 C578 1.419 1_455 S
C576 H580 0.930 . S
C577 C576 1.369 . S
C577 C586 1.429 . S
C578 C576 1.419 1_655 S
C578 C579 1.363 . S
C578 H581 0.929 . S
C579 C578 1.363 . S
C579 C585 1.428 . S
H580 C576 0.930 . S
H581 C578 0.929 . S
S582 N583 1.613 1_655 S
S582 N584 1.610 . S
N583 S582 1.613 1_455 S
N583 C586 1.350 . S
N584 S582 1.610 . S
N584 C585 1.351 . S
C585 C579 1.428 . S
C585 N584 1.351 . S
C585 C586 1.434 1_655 S
C586 C577 1.429 . S
C586 N583 1.350 . S
C586 C585 1.434 1_455 S
C587 C588 1.369 . S
C587 C589 1.419 1_545 S
C587 H591 0.930 . S
C588 C587 1.369 . S
C588 C597 1.429 . S
C589 C587 1.419 1_565 S
C589 C590 1.363 . S
C589 H592 0.929 . S
C590 C589 1.363 . S
C590 C596 1.428 . S
H591 C587 0.930 . S
H592 C589 0.929 . S
S593 N594 1.613 . S
S593 N595 1.610 1_545 S
N594 S593 1.613 . S
N594 C597 1.350 . S
N595 S593 1.610 1_565 S
N595 C596 1.351 . S
C596 C590 1.428 . S
C596 N595 1.351 . S
C596 C597 1.434 1_565 S
C597 C588 1.429 . S
C597 N594 1.350 . S
C597 C596 1.434 1_545 S
C598 C599 1.369 . S
C598 C600 1.419 1_655 S
C598 H602 0.930 . S
C599 C598 1.369 . S
C599 C608 1.429 . S
C600 C598 1.419 1_455 S
C600 C601 1.363 . S
C600 H603 0.929 . S
C601 C600 1.363 . S
C601 C607 1.428 . S
H602 C598 0.930 . S
H603 C600 0.929 . S
S604 N605 1.613 1_455 S
S604 N606 1.610 . S
N605 S604 1.613 1_655 S
N605 C608 1.350 . S
N606 S604 1.610 . S
N606 C607 1.351 . S
C607 C601 1.428 . S
C607 N606 1.351 . S
C607 C608 1.434 1_455 S
C608 C599 1.429 . S
C608 N605 1.350 . S
C608 C607 1.434 1_655 S
C609 C610 1.369 . S
C609 C611 1.419 1_545 S
C609 H613 0.930 . S
C610 C609 1.369 . S
C610 C619 1.429 . S
C611 C609 1.419 1_565 S
C611 C612 1.363 . S
C611 H614 0.929 . S
C612 C611 1.363 . S
C612 C618 1.428 . S
H613 C609 0.930 . S
H614 C611 0.929 . S
S615 N616 1.613 1_565 S
S615 N617 1.610 . S
N616 S615 1.613 1_545 S
N616 C619 1.350 . S
N617 S615 1.610 . S
N617 C618 1.351 . S
C618 C612 1.428 . S
C618 N617 1.351 . S
C618 C619 1.434 1_565 S
C619 C610 1.429 . S
C619 N616 1.350 . S
C619 C618 1.434 1_545 S
C620 C621 1.369 . S
C620 C622 1.419 1_565 S
C620 H624 0.930 . S
C621 C620 1.369 . S
C621 C630 1.429 . S
C622 C620 1.419 1_545 S
C622 C623 1.363 . S
C622 H625 0.929 . S
C623 C622 1.363 . S
C623 C629 1.428 . S
H624 C620 0.930 . S
H625 C622 0.929 . S
S626 N627 1.613 . S
S626 N628 1.610 1_565 S
N627 S626 1.613 . S
N627 C630 1.350 . S
N628 S626 1.610 1_545 S
N628 C629 1.351 . S
C629 C623 1.428 . S
C629 N628 1.351 . S
C629 C630 1.434 1_545 S
C630 C621 1.429 . S
C630 N627 1.350 . S
C630 C629 1.434 1_565 S
C631 C632 1.369 . S
C631 C633 1.419 1_655 S
C631 H635 0.930 . S
C632 C631 1.369 . S
C632 C641 1.429 . S
C633 C631 1.419 1_455 S
C633 C634 1.363 . S
C633 H636 0.929 . S
C634 C633 1.363 . S
C634 C640 1.428 . S
H635 C631 0.930 . S
H636 C633 0.929 . S
S637 N638 1.613 . S
S637 N639 1.610 1_655 S
N638 S637 1.613 . S
N638 C641 1.350 . S
N639 S637 1.610 1_455 S
N639 C640 1.351 . S
C640 C634 1.428 . S
C640 N639 1.351 . S
C640 C641 1.434 1_455 S
C641 C632 1.429 . S
C641 N638 1.350 . S
C641 C640 1.434 1_655 S
C642 C643 1.369 . S
C642 C644 1.419 1_565 S
C642 H646 0.930 . S
C643 C642 1.369 . S
C643 C652 1.429 . S
C644 C642 1.419 1_545 S
C644 C645 1.363 . S
C644 H647 0.929 . S
C645 C644 1.363 . S
C645 C651 1.428 . S
H646 C642 0.930 . S
H647 C644 0.929 . S
S648 N649 1.613 1_545 S
S648 N650 1.610 . S
N649 S648 1.613 1_565 S
N649 C652 1.350 . S
N650 S648 1.610 . S
N650 C651 1.351 . S
C651 C645 1.428 . S
C651 N650 1.351 . S
C651 C652 1.434 1_545 S
C652 C643 1.429 . S
C652 N649 1.350 . S
C652 C651 1.434 1_565 S
C653 C654 1.369 . S
C653 C655 1.419 1_655 S
C653 H657 0.930 . S
C654 C653 1.369 . S
C654 C663 1.429 . S
C655 C653 1.419 1_455 S
C655 C656 1.363 . S
C655 H658 0.929 . S
C656 C655 1.363 . S
C656 C662 1.428 . S
H657 C653 0.930 . S
H658 C655 0.929 . S
S659 N660 1.613 1_455 S
S659 N661 1.610 . S
N660 S659 1.613 1_655 S
N660 C663 1.350 . S
N661 S659 1.610 . S
N661 C662 1.351 . S
C662 C656 1.428 . S
C662 N661 1.351 . S
C662 C663 1.434 1_455 S
C663 C654 1.429 . S
C663 N660 1.350 . S
C663 C662 1.434 1_655 S
C664 C665 1.369 . S
C664 C666 1.419 1_556 S
C664 H668 0.930 . S
C665 C664 1.369 . S
C665 C674 1.429 . S
C666 C664 1.419 1_554 S
C666 C667 1.363 . S
C666 H669 0.929 . S
C667 C666 1.363 . S
C667 C673 1.428 . S
H668 C664 0.930 . S
H669 C666 0.929 . S
S670 N671 1.613 1_554 S
S670 N672 1.610 . S
N671 S670 1.613 1_556 S
N671 C674 1.350 . S
N672 S670 1.610 . S
N672 C673 1.351 . S
C673 C667 1.428 . S
C673 N672 1.351 . S
C673 C674 1.434 1_554 S
C674 C665 1.429 . S
C674 N671 1.350 . S
C674 C673 1.434 1_556 S
C675 C676 1.369 . S
C675 C677 1.419 1_556 S
C675 H679 0.930 . S
C676 C675 1.369 . S
C676 C685 1.429 . S
C677 C675 1.419 1_554 S
C677 C678 1.363 . S
C677 H680 0.929 . S
C678 C677 1.363 . S
C678 C684 1.428 . S
H679 C675 0.930 . S
H680 C677 0.929 . S
S681 N682 1.613 1_554 S
S681 N683 1.610 . S
N682 S681 1.613 1_556 S
N682 C685 1.350 . S
N683 S681 1.610 . S
N683 C684 1.351 . S
C684 C678 1.428 . S
C684 N683 1.351 . S
C684 C685 1.434 1_554 S
C685 C676 1.429 . S
C685 N682 1.350 . S
C685 C684 1.434 1_556 S
C686 C687 1.369 . S
C686 C688 1.419 1_556 S
C686 H690 0.930 . S
C687 C686 1.369 . S
C687 C696 1.429 . S
C688 C686 1.419 1_554 S
C688 C689 1.363 . S
C688 H691 0.929 . S
C689 C688 1.363 . S
C689 C695 1.428 . S
H690 C686 0.930 . S
H691 C688 0.929 . S
S692 N693 1.613 1_554 S
S692 N694 1.610 . S
N693 S692 1.613 1_556 S
N693 C696 1.350 . S
N694 S692 1.610 . S
N694 C695 1.351 . S
C695 C689 1.428 . S
C695 N694 1.351 . S
C695 C696 1.434 1_554 S
C696 C687 1.429 . S
C696 N693 1.350 . S
C696 C695 1.434 1_556 S
C697 C698 1.369 . S
C697 C699 1.419 1_556 S
C697 H701 0.930 . S
C698 C697 1.369 . S
C698 C707 1.429 . S
C699 C697 1.419 1_554 S
C699 C700 1.363 . S
C699 H702 0.929 . S
C700 C699 1.363 . S
C700 C706 1.428 . S
H701 C697 0.930 . S
H702 C699 0.929 . S
S703 N704 1.613 . S
S703 N705 1.610 1_556 S
N704 S703 1.613 . S
N704 C707 1.350 . S
N705 S703 1.610 1_554 S
N705 C706 1.351 . S
C706 C700 1.428 . S
C706 N705 1.351 . S
C706 C707 1.434 1_554 S
C707 C698 1.429 . S
C707 N704 1.350 . S
C707 C706 1.434 1_556 S
C708 C709 1.369 . S
C708 C710 1.419 . S
C708 H712 0.930 . S
C709 C708 1.369 . S
C709 C718 1.429 . S
C710 C708 1.419 . S
C710 C711 1.363 . S
C710 H713 0.929 . S
C711 C710 1.363 . S
C711 C717 1.428 . S
H712 C708 0.930 . S
H713 C710 0.929 . S
S714 N715 1.613 . S
S714 N716 1.610 . S
N715 S714 1.613 . S
N715 C718 1.350 . S
N716 S714 1.610 . S
N716 C717 1.351 . S
C717 C711 1.428 . S
C717 N716 1.351 . S
C717 C718 1.434 . S
C718 C709 1.429 . S
C718 N715 1.350 . S
C718 C717 1.434 . S
C719 C720 1.369 . S
C719 C721 1.419 . S
C719 H723 0.930 . S
C720 C719 1.369 . S
C720 C729 1.429 . S
C721 C719 1.419 . S
C721 C722 1.363 . S
C721 H724 0.929 . S
C722 C721 1.363 . S
C722 C728 1.428 . S
H723 C719 0.930 . S
H724 C721 0.929 . S
S725 N726 1.613 . S
S725 N727 1.610 . S
N726 S725 1.613 . S
N726 C729 1.350 . S
N727 S725 1.610 . S
N727 C728 1.351 . S
C728 C722 1.428 . S
C728 N727 1.351 . S
C728 C729 1.434 . S
C729 C720 1.429 . S
C729 N726 1.350 . S
C729 C728 1.434 . S
C730 C731 1.369 . S
C730 C732 1.419 . S
C730 H734 0.930 . S
C731 C730 1.369 . S
C731 C740 1.429 . S
C732 C730 1.419 . S
C732 C733 1.363 . S
C732 H735 0.929 . S
C733 C732 1.363 . S
C733 C739 1.428 . S
H734 C730 0.930 . S
H735 C732 0.929 . S
S736 N737 1.613 . S
S736 N738 1.610 . S
N737 S736 1.613 . S
N737 C740 1.350 . S
N738 S736 1.610 . S
N738 C739 1.351 . S
C739 C733 1.428 . S
C739 N738 1.351 . S
C739 C740 1.434 . S
C740 C731 1.429 . S
C740 N737 1.350 . S
C740 C739 1.434 . S
C741 C742 1.369 . S
C741 C743 1.419 . S
C741 H745 0.930 . S
C742 C741 1.369 . S
C742 C751 1.429 . S
C743 C741 1.419 . S
C743 C744 1.363 . S
C743 H746 0.929 . S
C744 C743 1.363 . S
C744 C750 1.428 . S
H745 C741 0.930 . S
H746 C743 0.929 . S
S747 N748 1.613 . S
S747 N749 1.610 . S
N748 S747 1.613 . S
N748 C751 1.350 . S
N749 S747 1.610 . S
N749 C750 1.351 . S
C750 C744 1.428 . S
C750 N749 1.351 . S
C750 C751 1.434 . S
C751 C742 1.429 . S
C751 N748 1.350 . S
C751 C750 1.434 . S
C752 C753 1.369 . S
C752 C754 1.419 . S
C752 H756 0.930 . S
C753 C752 1.369 . S
C753 C762 1.429 . S
C754 C752 1.419 . S
C754 C755 1.363 . S
C754 H757 0.929 . S
C755 C754 1.363 . S
C755 C761 1.428 . S
H756 C752 0.930 . S
H757 C754 0.929 . S
S758 N759 1.613 . S
S758 N760 1.610 . S
N759 S758 1.613 . S
N759 C762 1.350 . S
N760 S758 1.610 . S
N760 C761 1.351 . S
C761 C755 1.428 . S
C761 N760 1.351 . S
C761 C762 1.434 . S
C762 C753 1.429 . S
C762 N759 1.350 . S
C762 C761 1.434 . S
C763 C764 1.369 . S
C763 C765 1.419 . S
C763 H767 0.930 . S
C764 C763 1.369 . S
C764 C773 1.429 . S
C765 C763 1.419 . S
C765 C766 1.363 . S
C765 H768 0.929 . S
C766 C765 1.363 . S
C766 C772 1.428 . S
H767 C763 0.930 . S
H768 C765 0.929 . S
S769 N770 1.613 . S
S769 N771 1.610 . S
N770 S769 1.613 . S
N770 C773 1.350 . S
N771 S769 1.610 . S
N771 C772 1.351 . S
C772 C766 1.428 . S
C772 N771 1.351 . S
C772 C773 1.434 . S
C773 C764 1.429 . S
C773 N770 1.350 . S
C773 C772 1.434 . S
C774 C775 1.369 . S
C774 C776 1.419 . S
C774 H778 0.930 . S
C775 C774 1.369 . S
C775 C784 1.429 . S
C776 C774 1.419 . S
C776 C777 1.363 . S
C776 H779 0.929 . S
C777 C776 1.363 . S
C777 C783 1.428 . S
H778 C774 0.930 . S
H779 C776 0.929 . S
S780 N781 1.613 . S
S780 N782 1.610 . S
N781 S780 1.613 . S
N781 C784 1.350 . S
N782 S780 1.610 . S
N782 C783 1.351 . S
C783 C777 1.428 . S
C783 N782 1.351 . S
C783 C784 1.434 . S
C784 C775 1.429 . S
C784 N781 1.350 . S
C784 C783 1.434 . S
C785 C786 1.369 . S
C785 C787 1.419 . S
C785 H789 0.930 . S
C786 C785 1.369 . S
C786 C795 1.429 . S
C787 C785 1.419 . S
C787 C788 1.363 . S
C787 H790 0.929 . S
C788 C787 1.363 . S
C788 C794 1.428 . S
H789 C785 0.930 . S
H790 C787 0.929 . S
S791 N792 1.613 . S
S791 N793 1.610 . S
N792 S791 1.613 . S
N792 C795 1.350 . S
N793 S791 1.610 . S
N793 C794 1.351 . S
C794 C788 1.428 . S
C794 N793 1.351 . S
C794 C795 1.434 . S
C795 C786 1.429 . S
C795 N792 1.350 . S
C795 C794 1.434 . S
C796 C797 1.369 . S
C796 C798 1.419 . S
C796 H800 0.930 . S
C797 C796 1.369 . S
C797 C806 1.429 . S
C798 C796 1.419 . S
C798 C799 1.363 . S
C798 H801 0.929 . S
C799 C798 1.363 . S
C799 C805 1.428 . S
H800 C796 0.930 . S
H801 C798 0.929 . S
S802 N803 1.613 . S
S802 N804 1.610 . S
N803 S802 1.613 . S
N803 C806 1.350 . S
N804 S802 1.610 . S
N804 C805 1.351 . S
C805 C799 1.428 . S
C805 N804 1.351 . S
C805 C806 1.434 . S
C806 C797 1.429 . S
C806 N803 1.350 . S
C806 C805 1.434 . S
C807 C808 1.369 . S
C807 C809 1.419 . S
C807 H811 0.930 . S
C808 C807 1.369 . S
C808 C817 1.429 . S
C809 C807 1.419 . S
C809 C810 1.363 . S
C809 H812 0.929 . S
C810 C809 1.363 . S
C810 C816 1.428 . S
H811 C807 0.930 . S
H812 C809 0.929 . S
S813 N814 1.613 . S
S813 N815 1.610 . S
N814 S813 1.613 . S
N814 C817 1.350 . S
N815 S813 1.610 . S
N815 C816 1.351 . S
C816 C810 1.428 . S
C816 N815 1.351 . S
C816 C817 1.434 . S
C817 C808 1.429 . S
C817 N814 1.350 . S
C817 C816 1.434 . S
C818 C819 1.369 . S
C818 C820 1.419 . S
C818 H822 0.930 . S
C819 C818 1.369 . S
C819 C828 1.429 . S
C820 C818 1.419 . S
C820 C821 1.363 . S
C820 H823 0.929 . S
C821 C820 1.363 . S
C821 C827 1.428 . S
H822 C818 0.930 . S
H823 C820 0.929 . S
S824 N825 1.613 . S
S824 N826 1.610 . S
N825 S824 1.613 . S
N825 C828 1.350 . S
N826 S824 1.610 . S
N826 C827 1.351 . S
C827 C821 1.428 . S
C827 N826 1.351 . S
C827 C828 1.434 . S
C828 C819 1.429 . S
C828 N825 1.350 . S
C828 C827 1.434 . S
C829 C830 1.369 . S
C829 C831 1.419 . S
C829 H833 0.930 . S
C830 C829 1.369 . S
C830 C839 1.429 . S
C831 C829 1.419 . S
C831 C832 1.363 . S
C831 H834 0.929 . S
C832 C831 1.363 . S
C832 C838 1.428 . S
H833 C829 0.930 . S
H834 C831 0.929 . S
S835 N836 1.613 . S
S835 N837 1.610 . S
N836 S835 1.613 . S
N836 C839 1.350 . S
N837 S835 1.610 . S
N837 C838 1.351 . S
C838 C832 1.428 . S
C838 N837 1.351 . S
C838 C839 1.434 . S
C839 C830 1.429 . S
C839 N836 1.350 . S
C839 C838 1.434 . S
C313 C153 1.442 . S
C315 C8 1.417 . S
C324 C21 1.417 . S
C326 C114 1.444 . S
C335 C34 1.414 . S
C337 C127 1.444 . S
C346 C47 1.418 . S
C348 C140 1.443 . S
C357 C179 1.444 . S
C359 C60 1.417 . S
C368 C73 1.414 . S
C370 C192 1.444 . S
C379 C205 1.442 . S
C381 C86 1.417 . S
C390 C166 1.437 . S
C392 C99 1.412 . S
C401 C75 1.442 . S
C403 C112 1.410 . S
C412 C88 1.438 . S
C414 C125 1.414 . S
C423 C138 1.408 . S
C425 C101 1.442 . S
C434 C62 1.437 . S
C436 C151 1.412 . S
C445 C49 1.445 . S
C447 C164 1.415 . S
C456 C177 1.416 . S
C458 C10 1.439 . S
C467 C190 1.418 . S
C469 C23 1.443 . S
C478 C203 1.416 . S
C480 C36 1.444 . S
C489 C216 1.412 . S
C491 C309 1.438 . S
C500 C270 1.438 . S
C502 C229 1.410 . S
C511 C242 1.408 . S
C513 C231 1.439 . S
C522 C255 1.414 . S
C524 C244 1.439 . S
C533 C257 1.437 . S
C535 C268 1.413 . S
C544 C281 1.418 . S
C546 C296 1.444 . S
C555 C218 1.437 . S
C557 C294 1.412 . S
C566 C283 1.438 . S
C568 C307 1.414 . S
C577 C5 1.383 . S
C579 C83 1.383 . S
C588 C18 1.380 . S
C590 C96 1.380 . S
C599 C31 1.384 . S
C601 C57 1.384 . S
C610 C70 1.379 . S
C612 C44 1.380 . S
C621 C135 1.375 . S
C623 C109 1.376 . S
C632 C122 1.381 . S
C634 C148 1.380 . S
C643 C161 1.377 . S
C645 C187 1.378 . S
C654 C200 1.385 . S
C656 C174 1.384 . S
C665 C226 1.380 . S
C667 C213 1.381 . S
C676 C239 1.376 . S
C678 C304 1.378 . S
C687 C252 1.375 . S
C689 C278 1.377 . S
C698 C265 1.375 . S
C700 C291 1.376 . S
C709 C0 1.108 . S
C711 C65 1.109 . S
C720 C13 1.113 . S
C722 C78 1.113 . S
C731 C26 1.115 . S
C733 C91 1.111 . S
C742 C52 1.115 . S
C744 C39 1.108 . S
C753 C104 1.114 . S
C755 C299 1.112 . S
C764 C117 1.112 . S
C766 C273 1.114 . S
C775 C286 1.107 . S
C777 C130 1.110 . S
C786 C143 1.110 . S
C788 C208 1.108 . S
C797 C260 1.106 . S
C799 C156 1.113 . S
C808 C221 1.113 . S
C810 C169 1.107 . S
C819 C182 1.115 . S
C821 C234 1.112 . S
C830 C247 1.111 . S
C832 C195 1.114 . S
