# Generated by pormake.
# Topology wgu, (5)-cn, num edge types: 1
# Building blocks:
#     Node 0, Type 0, BuildingBlock: XOMCOT_clean_sbu_1, # of connection points: 5
#     Node 1, Type 0, BuildingBlock: XOMCOT_clean_sbu_1, # of connection points: 5
#     Node 2, Type 0, BuildingBlock: XOMCOT_clean_sbu_1, # of connection points: 5
#     Node 3, Type 0, BuildingBlock: XOMCOT_clean_sbu_1, # of connection points: 5
#     Node 4, Type 0, BuildingBlock: XOMCOT_clean_sbu_1, # of connection points: 5
#     Node 5, Type 0, BuildingBlock: XOMCOT_clean_sbu_1, # of connection points: 5
#     Node 6, Type 0, BuildingBlock: XOMCOT_clean_sbu_1, # of connection points: 5
#     Node 7, Type 0, BuildingBlock: XOMCOT_clean_sbu_1, # of connection points: 5
#     Edge 8, Type (0, 0), BuildingBlock: XIVTED_clean_linker_0, # of connection points: 2
#     Edge 9, Type (0, 0), BuildingBlock: XIVTED_clean_linker_0, # of connection points: 2
#     Edge 10, Type (0, 0), BuildingBlock: XIVTED_clean_linker_0, # of connection points: 2
#     Edge 11, Type (0, 0), BuildingBlock: XIVTED_clean_linker_0, # of connection points: 2
#     Edge 12, Type (0, 0), BuildingBlock: XIVTED_clean_linker_0, # of connection points: 2
#     Edge 13, Type (0, 0), BuildingBlock: XIVTED_clean_linker_0, # of connection points: 2
#     Edge 14, Type (0, 0), BuildingBlock: XIVTED_clean_linker_0, # of connection points: 2
#     Edge 15, Type (0, 0), BuildingBlock: XIVTED_clean_linker_0, # of connection points: 2
#     Edge 16, Type (0, 0), BuildingBlock: XIVTED_clean_linker_0, # of connection points: 2
#     Edge 17, Type (0, 0), BuildingBlock: XIVTED_clean_linker_0, # of connection points: 2
#     Edge 18, Type (0, 0), BuildingBlock: XIVTED_clean_linker_0, # of connection points: 2
#     Edge 19, Type (0, 0), BuildingBlock: XIVTED_clean_linker_0, # of connection points: 2
#     Edge 20, Type (0, 0), BuildingBlock: XIVTED_clean_linker_0, # of connection points: 2
#     Edge 21, Type (0, 0), BuildingBlock: XIVTED_clean_linker_0, # of connection points: 2
#     Edge 22, Type (0, 0), BuildingBlock: XIVTED_clean_linker_0, # of connection points: 2
#     Edge 23, Type (0, 0), BuildingBlock: XIVTED_clean_linker_0, # of connection points: 2
#     Edge 24, Type (0, 0), BuildingBlock: XIVTED_clean_linker_0, # of connection points: 2
#     Edge 25, Type (0, 0), BuildingBlock: XIVTED_clean_linker_0, # of connection points: 2
#     Edge 26, Type (0, 0), BuildingBlock: XIVTED_clean_linker_0, # of connection points: 2
#     Edge 27, Type (0, 0), BuildingBlock: XIVTED_clean_linker_0, # of connection points: 2
# Relax obj value: 0.210
# Max RMSD: 0.184
# Mean RMSD: 0.172
data_MOF--net-wgu--node1-XOMCOT_clean_sbu_1--edge1-XIVTED_clean_linker_0
_symmetry_space_group_name_H-M    P1
_symmetry_Int_Tables_number       1
_symmetry_cell_setting            triclinic
loop_
_symmetry_equiv_pos_as_xyz
'x, y, z'
_cell_length_a     33.094374
_cell_length_b     32.883552
_cell_length_c     28.947209
_cell_angle_alpha  94.550081
_cell_angle_beta   92.317183
_cell_angle_gamma 89.975886
loop_
_atom_site_label
_atom_site_type_symbol
_atom_site_fract_x
_atom_site_fract_y
_atom_site_fract_z
_atom_type_partial_charge
C0 C 0.24587 0.36542 0.02404 0.0
C1 C 0.22898 0.40203 0.01428 0.0
N2 N 0.24971 0.43226 0.039 0.0
N3 N 0.27732 0.37221 0.0547 0.0
C4 C 0.27877 0.41322 0.06354 0.0
H5 H 0.2359 0.33554 0.00971 0.0
Co6 Co 0.30894 0.33064 0.0782 0.0
C7 C 0.39082 0.36481 0.06958 0.0
O8 O 0.40113 0.33077 0.04613 0.0
N9 N 0.33872 0.28808 0.1038 0.0
C10 C 0.38002 0.24674 0.14117 0.0
C11 C 0.37655 0.28402 0.1226 0.0
C12 C 0.31945 0.25398 0.11424 0.0
N13 N 0.34381 0.22823 0.13603 0.0
O14 O 0.29165 0.34528 0.13915 0.0
H15 H 0.39983 0.30707 0.12563 0.0
H16 H 0.28771 0.24807 0.10592 0.0
O17 O 0.35546 0.36839 0.08583 0.0
C18 C 0.25724 0.32828 0.14193 0.0
O19 O 0.23821 0.3143 0.10319 0.0
N20 N 0.32215 0.31265 0.01694 0.0
C21 C 0.3147 0.28591 0.92318 0.0
C22 C 0.32703 0.32603 0.93686 0.0
C23 C 0.33079 0.33881 0.98413 0.0
C24 C 0.31219 0.27309 1.00371 0.0
C25 C 0.30926 0.2589 0.9573 0.0
H26 H 0.337 0.37064 0.99413 0.0
H27 H 0.30232 0.25294 0.02837 0.0
H28 H 0.30088 0.42874 0.0872 0.0
H29 H 0.20296 0.40587 0.9912 0.0
H30 H 0.40646 0.23495 0.15883 0.0
H31 H 0.33101 0.34794 0.91138 0.0
H32 H 0.29844 0.22807 0.94834 0.0
C33 C 0.5652 0.34976 0.53011 0.0
C34 C 0.52769 0.33246 0.52417 0.0
N35 N 0.5299 0.29407 0.53691 0.0
N36 N 0.59156 0.32297 0.54737 0.0
C37 C 0.56904 0.28892 0.55122 0.0
H38 H 0.57307 0.37948 0.51981 0.0
Co39 Co 0.64731 0.33512 0.55135 0.0
C40 C 0.68127 0.3123 0.64043 0.0
O41 O 0.69855 0.34843 0.6442 0.0
N42 N 0.70381 0.34726 0.55262 0.0
C43 C 0.76556 0.37469 0.55316 0.0
C44 C 0.72489 0.38275 0.55549 0.0
C45 C 0.73287 0.31826 0.54856 0.0
N46 N 0.77054 0.33403 0.54859 0.0
O47 O 0.65722 0.28837 0.50932 0.0
H48 H 0.71246 0.41301 0.55897 0.0
H49 H 0.7265 0.28589 0.54614 0.0
O50 O 0.65672 0.30245 0.60582 0.0
C51 C 0.6491 0.29667 0.46772 0.0
O52 O 0.63359 0.33254 0.4606 0.0
N53 N 0.63549 0.38332 0.58842 0.0
C54 C 0.59699 0.45516 0.62133 0.0
C55 C 0.59696 0.42036 0.64662 0.0
C56 C 0.61606 0.38453 0.62932 0.0
C57 C 0.63602 0.41703 0.5639 0.0
C58 C 0.61789 0.45336 0.58011 0.0
H59 H 0.61224 0.35709 0.64686 0.0
H60 H 0.64756 0.41467 0.52936 0.0
H61 H 0.5815 0.26036 0.56133 0.0
H62 H 0.50095 0.34662 0.50982 0.0
H63 H 0.78947 0.39717 0.55348 0.0
H64 H 0.58052 0.42014 0.67819 0.0
H65 H 0.61735 0.4787 0.55837 0.0
C66 C 0.69562 0.58468 0.90305 0.0
C67 C 0.71775 0.54959 0.89922 0.0
N68 N 0.74626 0.55138 0.93385 0.0
N69 N 0.71002 0.60882 0.93974 0.0
C70 C 0.7408 0.58762 0.95837 0.0
H71 H 0.67003 0.59198 0.88085 0.0
Co72 Co 0.68622 0.65882 0.95245 0.0
C73 C 0.71602 0.69383 0.04492 0.0
O74 O 0.67944 0.70789 0.05186 0.0
N75 N 0.66088 0.70988 0.9621 0.0
C76 C 0.61744 0.76146 0.96961 0.0
C77 C 0.62139 0.71978 0.96571 0.0
C78 C 0.68008 0.74627 0.96342 0.0
N79 N 0.65445 0.77808 0.96812 0.0
O80 O 0.7244 0.68261 0.91372 0.0
H81 H 0.59649 0.69869 0.96532 0.0
H82 H 0.7124 0.7493 0.96054 0.0
O83 O 0.7232 0.67182 0.00752 0.0
C84 C 0.71408 0.68132 0.87076 0.0
O85 O 0.67848 0.66629 0.85688 0.0
N86 N 0.64806 0.63284 0.98713 0.0
C87 C 0.59084 0.58252 0.02307 0.0
C88 C 0.62761 0.59187 0.04743 0.0
C89 C 0.65609 0.61659 0.02857 0.0
C90 C 0.61314 0.62269 0.96229 0.0
C91 C 0.58373 0.59851 0.98003 0.0
H92 H 0.68524 0.6205 0.04634 0.0
H93 H 0.60851 0.63278 0.9278 0.0
H94 H 0.75871 0.59839 0.98901 0.0
H95 H 0.71235 0.52404 0.87378 0.0
H96 H 0.58943 0.77812 0.97353 0.0
H97 H 0.63482 0.57926 0.08021 0.0
H98 H 0.55651 0.59079 0.95915 0.0
C99 C 0.44052 0.84029 0.63438 0.0
C100 C 0.47874 0.8508 0.62275 0.0
N101 N 0.49444 0.81913 0.59708 0.0
N102 N 0.43207 0.80203 0.61641 0.0
C103 C 0.46557 0.78984 0.59394 0.0
H104 H 0.41979 0.85999 0.65336 0.0
Co105 Co 0.38207 0.77622 0.61705 0.0
C106 C 0.40104 0.68608 0.62009 0.0
O107 O 0.36403 0.6745 0.60734 0.0
N108 N 0.33082 0.75181 0.61813 0.0
C109 C 0.2758 0.72192 0.64177 0.0
C110 C 0.31552 0.73208 0.65279 0.0
C111 C 0.29933 0.75448 0.58728 0.0
N112 N 0.2657 0.73618 0.60057 0.0
O113 O 0.38244 0.78524 0.68379 0.0
H114 H 0.33218 0.72539 0.68419 0.0
H115 H 0.30074 0.76993 0.5558 0.0
O116 O 0.41057 0.72396 0.62305 0.0
C117 C 0.36216 0.81618 0.69878 0.0
O118 O 0.34513 0.83928 0.6685 0.0
N119 N 0.38027 0.77059 0.55152 0.0
C120 C 0.36369 0.77305 0.45621 0.0
C121 C 0.3737 0.73616 0.47518 0.0
C122 C 0.38217 0.73558 0.52294 0.0
C123 C 0.37241 0.80692 0.53336 0.0
C124 C 0.36422 0.8089 0.48587 0.0
H125 H 0.38877 0.70676 0.53647 0.0
H126 H 0.37065 0.83439 0.55637 0.0
H127 H 0.46787 0.76088 0.57368 0.0
H128 H 0.49353 0.87984 0.6319 0.0
H129 H 0.25563 0.7063 0.66302 0.0
H130 H 0.37411 0.70782 0.45342 0.0
H131 H 0.35625 0.83799 0.47296 0.0
C132 C 0.71605 0.13824 0.02872 0.0
C133 C 0.69606 0.10151 0.02328 0.0
N134 N 0.72141 0.07336 1.00444 0.0
N135 N 0.75379 0.13322 0.01339 0.0
C136 C 0.75619 0.0934 0.99862 0.0
H137 H 0.70411 0.16683 0.04339 0.0
Co138 Co 0.79149 0.17482 0.01391 0.0
C139 C 0.86482 0.12677 0.04273 0.0
O140 O 0.86851 0.14876 0.08258 0.0
N141 N 0.82822 0.21833 0.0131 0.0
C142 C 0.87761 0.26487 0.01996 0.0
C143 C 0.86757 0.22508 0.02618 0.0
C144 C 0.81569 0.25408 0.99766 0.0
N145 N 0.84485 0.28277 1.00187 0.0
O146 O 0.78832 0.17141 0.94662 0.0
H147 H 0.88835 0.20328 0.03924 0.0
H148 H 0.78501 0.25948 0.98528 0.0
O149 O 0.83627 0.13427 0.01334 0.0
C150 C 0.7551 0.18547 0.93032 0.0
O151 O 0.72784 0.19894 0.9595 0.0
N152 N 0.7903 0.18085 0.07977 0.0
C153 C 0.76546 0.19345 0.17111 0.0
C154 C 0.77689 0.1545 0.15314 0.0
C155 C 0.78855 0.14869 0.10703 0.0
C156 C 0.7804 0.21905 0.09761 0.0
C157 C 0.76843 0.22605 0.14312 0.0
H158 H 0.79401 0.11797 0.09247 0.0
H159 H 0.77873 0.24406 0.07571 0.0
H160 H 0.78274 0.07945 0.98363 0.0
H161 H 0.6656 0.09577 0.03346 0.0
H162 H 0.9067 0.27943 0.02774 0.0
H163 H 0.77422 0.1284 0.17341 0.0
H164 H 0.75956 0.25656 0.15559 0.0
C165 C 0.92981 0.70122 0.42146 0.0
C166 C 0.96902 0.68939 0.43065 0.0
N167 N 0.98916 0.72147 0.45237 0.0
N168 N 0.9253 0.7406 0.43723 0.0
C169 C 0.96197 0.75201 0.45602 0.0
H170 H 0.9059 0.68182 0.40574 0.0
Co171 Co 0.87733 0.76998 0.4388 0.0
C172 C 0.90546 0.85804 0.45904 0.0
O173 O 0.87241 0.86971 0.47996 0.0
N174 N 0.82828 0.79859 0.43998 0.0
C175 C 0.77676 0.83871 0.42196 0.0
C176 C 0.81619 0.82835 0.41301 0.0
C177 C 0.79535 0.79066 0.46397 0.0
N178 N 0.76369 0.81476 0.45396 0.0
O179 O 0.87535 0.76965 0.37212 0.0
H180 H 0.8347 0.84133 0.38792 0.0
H181 H 0.79423 0.76735 0.48807 0.0
O182 O 0.90929 0.82088 0.44316 0.0
C183 C 0.85521 0.73963 0.35228 0.0
O184 O 0.83931 0.71329 0.37821 0.0
N185 N 0.87731 0.76624 0.50345 0.0
C186 C 0.86268 0.74798 0.59421 0.0
C187 C 0.88226 0.78446 0.58564 0.0
C188 C 0.88969 0.7929 0.53989 0.0
C189 C 0.86074 0.7297 0.51141 0.0
C190 C 0.85266 0.72019 0.55613 0.0
H191 H 0.9051 0.82076 0.53441 0.0
H192 H 0.85166 0.70859 0.48226 0.0
H193 H 0.96818 0.78151 0.47422 0.0
H194 H 0.98154 0.65937 0.42262 0.0
H195 H 0.7588 0.86125 0.40521 0.0
H196 H 0.89162 0.80637 0.61393 0.0
H197 H 0.83708 0.69187 0.56035 0.0
C198 C 0.16875 0.9218 0.1258 0.0
C199 C 0.18311 0.95779 0.1474 0.0
N200 N 0.22364 0.95838 0.14466 0.0
N201 N 0.1998 0.89984 0.10824 0.0
C202 C 0.23304 0.92224 0.12199 0.0
H203 H 0.13739 0.91262 0.12263 0.0
Co204 Co 0.19389 0.84853 0.07573 0.0
C205 C 0.25692 0.88576 0.01399 0.0
O206 O 0.25483 0.92417 0.02999 0.0
N207 N 0.18754 0.79674 0.04417 0.0
C208 C 0.18269 0.7477 0.98674 0.0
C209 C 0.18156 0.78909 0.9979 0.0
C210 C 0.19201 0.75942 0.06035 0.0
N211 N 0.18951 0.72898 0.02606 0.0
O212 O 0.23547 0.82825 0.1162 0.0
H213 H 0.17826 0.81224 0.9735 0.0
H214 H 0.19777 0.75453 0.09645 0.0
O215 O 0.23468 0.85898 0.03032 0.0
C216 C 0.22207 0.8182 0.15439 0.0
O217 O 0.1829 0.82001 0.16018 0.0
N218 N 0.15079 0.86916 0.03896 0.0
C219 C 0.08337 0.91528 0.01403 0.0
C220 C 0.12151 0.92282 0.997 0.0
C221 C 0.15481 0.89955 0.00992 0.0
C222 C 0.11321 0.85833 0.05155 0.0
C223 C 0.079 0.88108 0.03957 0.0
H224 H 0.18387 0.90846 0.9992 0.0
H225 H 0.11029 0.83451 0.07493 0.0
H226 H 0.26353 0.91238 0.11503 0.0
H227 H 0.16471 0.98238 0.16208 0.0
H228 H 0.18053 0.73279 0.95203 0.0
H229 H 0.12616 0.94828 0.97622 0.0
H230 H 0.05019 0.87405 0.05354 0.0
C231 C 0.0714 0.15513 0.42989 0.0
C232 C 0.03217 0.16846 0.43037 0.0
N233 N 0.02724 0.19143 0.47027 0.0
N234 N 0.09165 0.16953 0.46929 0.0
C235 C 0.0637 0.1918 0.49317 0.0
H236 H 0.08407 0.13532 0.40263 0.0
Co237 Co 0.14576 0.15484 0.48347 0.0
C238 C 0.12567 0.06839 0.44838 0.0
O239 O 0.1452 0.0703 0.41 0.0
N240 N 0.1995 0.13986 0.497 0.0
C241 C 0.25637 0.10842 0.51733 0.0
C242 C 0.21512 0.10412 0.5092 0.0
C243 C 0.2317 0.16525 0.49807 0.0
N244 N 0.26671 0.14692 0.50999 0.0
O245 O 0.15767 0.1545 0.41934 0.0
H246 H 0.19778 0.07672 0.51243 0.0
H247 H 0.22947 0.19698 0.49103 0.0
O248 O 0.12662 0.09868 0.4788 0.0
C249 C 0.16753 0.19147 0.41495 0.0
O250 O 0.16377 0.21843 0.4505 0.0
N251 N 0.13752 0.16039 0.54639 0.0
C252 C 0.15693 0.18073 0.63948 0.0
C253 C 0.14859 0.14 0.62346 0.0
C254 C 0.1387 0.13033 0.57635 0.0
C255 C 0.14317 0.20014 0.56201 0.0
C256 C 0.15218 0.2111 0.60847 0.0
H257 H 0.13586 0.09865 0.56363 0.0
H258 H 0.14381 0.22326 0.53752 0.0
H259 H 0.06919 0.20688 0.52734 0.0
H260 H 0.00903 0.16163 0.40337 0.0
H261 H 0.27718 0.08489 0.5271 0.0
H262 H 0.15221 0.11571 0.64645 0.0
H263 H 0.1592 0.24275 0.61894 0.0
H264 H 0.29592 0.97476 0.10782 0.0
H265 H 0.27578 0.20929 0.17773 0.0
H266 H 0.21061 0.02288 0.20694 0.0
H267 H 0.38605 0.15801 0.12479 0.0
H268 H 0.25256 0.14071 0.19111 0.0
H269 H 0.33177 0.03998 0.1164 0.0
C270 C 0.28511 0.99861 0.1321 0.0
C271 C 0.2495 0.99344 0.15588 0.0
C272 C 0.28213 0.14437 0.17723 0.0
C273 C 0.29007 0.06853 0.16509 0.0
C274 C 0.29522 0.18343 0.16947 0.0
C275 C 0.33264 0.18896 0.14987 0.0
C276 C 0.30624 0.1105 0.16423 0.0
C277 C 0.35703 0.15474 0.14006 0.0
C278 C 0.30557 0.03598 0.13682 0.0
C279 C 0.2371 0.02575 0.18677 0.0
N280 N 0.34309 0.11676 0.14652 0.0
N281 N 0.25688 0.06208 0.18984 0.0
H282 H 0.95088 0.16496 0.44803 0.0
H283 H 0.84637 0.35905 0.57759 0.0
H284 H 0.0186 0.26047 0.52737 0.0
H285 H 0.78054 0.25903 0.50404 0.0
H286 H 0.90968 0.3231 0.56182 0.0
H287 H 0.88823 0.19851 0.47039 0.0
C288 C 0.95259 0.19312 0.47007 0.0
C289 C 0.99013 0.21014 0.48544 0.0
C290 C 0.88135 0.30894 0.54937 0.0
C291 C 0.91818 0.24875 0.51163 0.0
C292 C 0.84517 0.32955 0.55815 0.0
C293 C 0.80796 0.31218 0.54196 0.0
C294 C 0.88038 0.27073 0.52397 0.0
C295 C 0.80831 0.27352 0.51761 0.0
C296 C 0.91673 0.21217 0.4831 0.0
C297 C 0.99036 0.24622 0.51486 0.0
N298 N 0.8439 0.25428 0.50915 0.0
N299 N 0.95493 0.2645 0.52675 0.0
H300 H 0.77526 0.01126 0.00674 0.0
H301 H 0.60547 0.84035 0.94558 0.0
H302 H 0.64913 0.03779 0.98036 0.0
H303 H 0.72649 0.8137 0.99576 0.0
H304 H 0.62265 0.91264 0.95109 0.0
H305 H 0.75987 0.93834 0.99457 0.0
C306 C 0.74441 1.00173 0.99793 0.0
C307 C 0.71335 0.03054 0.9948 0.0
C308 C 0.64547 0.89095 0.96084 0.0
C309 C 0.69549 0.94739 0.98125 0.0
C310 C 0.6356 0.84964 0.95796 0.0
C311 C 0.66449 0.8208 0.97042 0.0
C312 C 0.68456 0.90362 0.97619 0.0
C313 C 0.70336 0.8347 0.98529 0.0
C314 C 0.7356 0.96015 0.99132 0.0
C315 C 0.67383 0.01655 0.9838 0.0
N316 N 0.71223 0.87515 0.98784 0.0
N317 N 0.66602 0.97596 0.97748 0.0
H318 H 0.03141 0.65867 0.48566 0.0
H319 H 0.23217 0.79096 0.54512 0.0
H320 H 0.0403 0.78618 0.46212 0.0
H321 H 0.21015 0.67581 0.60143 0.0
H322 H 0.16516 0.78667 0.50608 0.0
H323 H 0.10027 0.66136 0.51978 0.0
C324 C 0.048 0.68714 0.4873 0.0
C325 C 0.03012 0.72228 0.47112 0.0
C326 C 0.17502 0.76234 0.52697 0.0
C327 C 0.1088 0.72565 0.51027 0.0
C328 C 0.21335 0.76464 0.54898 0.0
C329 C 0.22668 0.73372 0.57666 0.0
C330 C 0.15002 0.72867 0.53225 0.0
C331 C 0.20083 0.70053 0.58091 0.0
C332 C 0.08717 0.68874 0.50708 0.0
C333 C 0.05282 0.75853 0.47467 0.0
N334 N 0.16377 0.69882 0.55885 0.0
N335 N 0.09103 0.75927 0.49378 0.0
H336 H 0.77999 0.49816 0.87117 0.0
H337 H 0.86838 0.35027 0.05567 0.0
H338 H 0.77463 0.53 0.0182 0.0
H339 H 0.81101 0.30935 0.92402 0.0
H340 H 0.85415 0.42151 0.03919 0.0
H341 H 0.81357 0.43447 0.88726 0.0
C342 C 0.78639 0.49193 0.9069 0.0
C343 C 0.77359 0.51881 0.94344 0.0
C344 C 0.84524 0.39686 0.01379 0.0
C345 C 0.81229 0.44624 0.962 0.0
C346 C 0.85347 0.35651 0.02301 0.0
C347 C 0.84059 0.32435 0.99109 0.0
C348 C 0.825 0.40471 0.9719 0.0
C349 C 0.82106 0.33352 0.94946 0.0
C350 C 0.80556 0.45567 0.916 0.0
C351 C 0.78375 0.50989 0.98909 0.0
N352 N 0.81391 0.37289 0.94099 0.0
N353 N 0.80208 0.47389 0.9972 0.0
H354 H 0.53508 0.88347 0.56822 0.0
H355 H 0.72558 0.75043 0.487 0.0
H356 H 0.5412 0.753 0.57472 0.0
H357 H 0.71104 0.87783 0.46448 0.0
H358 H 0.65921 0.75081 0.52105 0.0
H359 H 0.60038 0.88203 0.53216 0.0
C360 C 0.55027 0.85449 0.56232 0.0
C361 C 0.53271 0.81831 0.57487 0.0
C362 C 0.67049 0.77866 0.50855 0.0
C363 C 0.60764 0.81639 0.53303 0.0
C364 C 0.70855 0.77855 0.48937 0.0
C365 C 0.72408 0.81425 0.473 0.0
C366 C 0.64778 0.81477 0.51172 0.0
C367 C 0.70019 0.84956 0.47625 0.0
C368 C 0.58749 0.85366 0.54137 0.0
C369 C 0.55351 0.78156 0.56539 0.0
N370 N 0.66338 0.84897 0.49542 0.0
N371 N 0.58998 0.78156 0.54526 0.0
H372 H 0.27126 0.49277 0.10566 0.0
H373 H 0.16235 0.66625 0.96627 0.0
H374 H 0.21059 0.47131 0.97108 0.0
H375 H 0.23258 0.69276 0.094 0.0
H376 H 0.17745 0.59409 0.97007 0.0
H377 H 0.25603 0.5656 0.10415 0.0
C378 C 0.25493 0.50323 0.07574 0.0
C379 C 0.24199 0.47553 0.03859 0.0
C380 C 0.18956 0.61564 0.99736 0.0
C381 C 0.22407 0.55891 0.0369 0.0
C382 C 0.18102 0.65699 0.99511 0.0
C383 C 0.19635 0.6859 0.02968 0.0
C384 C 0.21366 0.60275 0.0345 0.0
C385 C 0.21976 0.67171 0.06674 0.0
C386 C 0.24605 0.54484 0.07502 0.0
C387 C 0.22057 0.49109 1.00096 0.0
N388 N 0.22781 0.63119 0.06808 0.0
N389 N 0.21229 0.53154 1.00116 0.0
H390 H 0.29433 0.20469 0.45771 0.0
H391 H 0.50796 0.23703 0.59497 0.0
H392 H 0.33068 0.12963 0.56755 0.0
H393 H 0.47661 0.28522 0.46417 0.0
H394 H 0.44469 0.19658 0.58767 0.0
H395 H 0.36138 0.23555 0.46247 0.0
C396 C 0.31643 0.19483 0.48304 0.0
C397 C 0.30674 0.1647 0.51244 0.0
C398 C 0.45202 0.2157 0.56039 0.0
C399 C 0.38425 0.1999 0.51809 0.0
C400 C 0.48816 0.23849 0.56445 0.0
C401 C 0.49717 0.26491 0.53046 0.0
C402 C 0.42495 0.21964 0.52215 0.0
C403 C 0.47044 0.26591 0.49165 0.0
C404 C 0.35494 0.21223 0.48554 0.0
C405 C 0.33698 0.15263 0.54408 0.0
N406 N 0.43558 0.24407 0.48882 0.0
N407 N 0.37431 0.1705 0.54638 0.0
H408 H 0.60708 0.50984 0.05987 0.0
H409 H 0.37479 0.44707 0.07986 0.0
H410 H 0.50803 0.58829 0.02413 0.0
H411 H 0.4728 0.36085 0.06808 0.0
H412 H 0.42367 0.50295 0.07642 0.0
H413 H 0.55842 0.45899 0.08033 0.0
C414 C 0.5751 0.51667 0.05706 0.0
C415 C 0.56161 0.55332 0.04005 0.0
C416 C 0.43441 0.47178 0.07512 0.0
C417 C 0.50568 0.49502 0.0631 0.0
C418 C 0.40661 0.43996 0.07741 0.0
C419 C 0.41978 0.39929 0.07397 0.0
C420 C 0.47562 0.46278 0.0701 0.0
C421 C 0.46132 0.39175 0.07043 0.0
C422 C 0.54733 0.48749 0.06842 0.0
C423 C 0.51971 0.56023 0.03658 0.0
N424 N 0.48771 0.42313 0.0685 0.0
N425 N 0.49321 0.53131 0.04785 0.0
H426 H 0.51946 0.45535 0.65109 0.0
H427 H 0.48413 0.69408 0.62578 0.0
H428 H 0.61429 0.5367 0.61749 0.0
H429 H 0.38848 0.60579 0.63241 0.0
H430 H 0.53394 0.63955 0.63468 0.0
H431 H 0.47325 0.51317 0.65814 0.0
C432 C 0.53088 0.4855 0.64621 0.0
C433 C 0.57086 0.49105 0.63347 0.0
C434 C 0.50202 0.63226 0.63445 0.0
C435 C 0.51765 0.5575 0.64048 0.0
C436 C 0.47359 0.66336 0.62945 0.0
C437 C 0.43202 0.65446 0.62794 0.0
C438 C 0.48877 0.59209 0.63845 0.0
C439 C 0.42015 0.61408 0.63288 0.0
C440 C 0.50429 0.51851 0.64972 0.0
C441 C 0.5836 0.53091 0.62682 0.0
N442 N 0.44831 0.5845 0.63781 0.0
N443 N 0.55703 0.56254 0.63006 0.0
H444 H 0.09068 0.99792 0.027 0.0
H445 H 0.85744 0.05435 0.98715 0.0
H446 H 1.001 0.90346 0.99565 0.0
H447 H 0.94301 0.12743 0.07412 0.0
H448 H 0.91004 1.00157 0.97518 0.0
H449 H 0.03731 0.04884 0.02818 0.0
C450 C 0.05978 0.98785 0.01953 0.0
C451 C 0.05047 0.94619 0.01092 0.0
C452 C 0.91712 0.02931 0.99668 0.0
C453 C 0.98872 0.00485 0.01296 0.0
C454 C 0.8873 0.05946 1.00328 0.0
C455 C 0.89586 0.09526 0.03181 0.0
C456 C 0.95585 0.03564 0.0179 0.0
C457 C 0.93493 0.10023 0.05216 0.0
C458 C 0.02922 0.01702 0.02068 0.0
C459 C 0.00956 0.93519 1.00261 0.0
N460 N 0.96337 0.07097 0.04464 0.0
N461 N 0.98012 0.96436 1.00376 0.0
H462 H 0.97589 0.84823 0.41166 0.0
H463 H 0.06948 0.06292 0.51454 0.0
H464 H 0.91352 0.93448 0.50357 0.0
H465 H 0.11515 0.99651 0.39304 0.0
H466 H 0.01763 0.01069 0.51796 0.0
H467 H 0.03181 0.89722 0.41061 0.0
C468 C 0.97388 0.87741 0.43159 0.0
C469 C 0.9397 0.88725 0.45755 0.0
C470 C 0.0391 0.00737 0.49066 0.0
C471 C 1.00392 0.94323 0.45692 0.0
C472 C 0.06899 0.03712 0.48882 0.0
C473 C 0.09687 0.03431 0.45332 0.0
C474 C 0.03697 0.97413 0.45705 0.0
C475 C 0.09433 1.00007 0.42095 0.0
C476 C 0.00583 0.90535 0.43093 0.0
C477 C 0.939 0.92553 0.48282 0.0
N478 N 0.06491 0.97136 0.42355 0.0
N479 N 0.97057 0.95193 0.48198 0.0
H480 H 0.29929 0.32852 0.22626 0.0
H481 H 0.14673 0.16971 0.32336 0.0
H482 H 0.18678 0.2897 0.15559 0.0
H483 H 0.22871 0.24504 0.4126 0.0
H484 H 0.1705 0.20346 0.2564 0.0
H485 H 0.28107 0.29043 0.2921 0.0
C486 C 0.27052 0.3127 0.22492 0.0
C487 C 0.24446 0.3125 0.18547 0.0
C488 C 0.18349 0.21223 0.29069 0.0
C489 C 0.22427 0.26781 0.25951 0.0
C490 C 0.17025 0.1927 0.3286 0.0
C491 C 0.18558 0.20502 0.37324 0.0
C492 C 0.21251 0.24368 0.29781 0.0
C493 C 0.21584 0.23514 0.37856 0.0
C494 C 0.26037 0.2906 0.26217 0.0
C495 C 0.20785 0.29077 0.18526 0.0
N496 N 0.22825 0.25357 0.34132 0.0
N497 N 0.19902 0.26905 0.22146 0.0
H498 H 0.80958 0.20281 0.86509 0.0
H499 H 0.63552 0.25225 0.67549 0.0
H500 H 0.68265 0.18259 0.88283 0.0
H501 H 0.7542 0.30707 0.68515 0.0
H502 H 0.65554 0.21155 0.74069 0.0
H503 H 0.79291 0.22553 0.78763 0.0
C504 C 0.77838 0.20212 0.8522 0.0
C505 C 0.74744 0.19106 0.88043 0.0
C506 C 0.67727 0.23218 0.72804 0.0
C507 C 0.72807 0.21717 0.79231 0.0
C508 C 0.66588 0.25522 0.69081 0.0
C509 C 0.69303 0.28345 0.67544 0.0
C510 C 0.71626 0.23698 0.74926 0.0
C511 C 0.73207 0.28615 0.69649 0.0
C512 C 0.7688 0.21541 0.80822 0.0
C513 C 0.7074 0.19122 0.86225 0.0
N514 N 0.74244 0.26342 0.73229 0.0
N515 N 0.69883 0.20431 0.81955 0.0
H516 H 0.84499 0.79952 0.29173 0.0
H517 H 0.77498 0.64258 0.0765 0.0
H518 H 0.8448 0.66896 0.29791 0.0
H519 H 0.72717 0.76417 0.09913 0.0
H520 H 0.81843 0.65519 0.14742 0.0
H521 H 0.81948 0.78995 0.21048 0.0
C522 C 0.8405 0.76888 0.27566 0.0
C523 C 0.84668 0.73499 0.30154 0.0
C524 C 0.79889 0.67928 0.13629 0.0
C525 C 0.81787 0.72382 0.20903 0.0
C526 C 0.77436 0.67218 0.09579 0.0
C527 C 0.74733 0.70229 0.08233 0.0
C528 C 0.79681 0.71699 0.16274 0.0
C529 C 0.74737 0.74003 0.1087 0.0
C530 C 0.82573 0.76343 0.2295 0.0
C531 C 0.84003 0.69591 0.27921 0.0
N532 N 0.77158 0.74629 0.14766 0.0
N533 N 0.82588 0.69138 0.23435 0.0
H534 H 0.29548 0.93707 0.96005 0.0
H535 H 0.36173 0.76326 0.76805 0.0
H536 H 0.27027 0.80943 0.9708 0.0
H537 H 0.34512 0.88979 0.74278 0.0
H538 H 0.34132 0.7792 0.8484 0.0
H539 H 0.3272 0.91949 0.88653 0.0
C540 C 0.29692 0.90527 0.94725 0.0
C541 C 0.27974 0.87476 0.9716 0.0
C542 C 0.34257 0.80345 0.82527 0.0
C543 C 0.31627 0.8544 0.88705 0.0
C544 C 0.35446 0.79444 0.77961 0.0
C545 C 0.35495 0.82524 0.74871 0.0
C546 C 0.33183 0.84363 0.84015 0.0
C547 C 0.3449 0.86506 0.76533 0.0
C548 C 0.31496 0.89528 0.9051 0.0
C549 C 0.28278 0.83403 0.95309 0.0
N550 N 0.33379 0.87307 0.80978 0.0
N551 N 0.30053 0.82504 0.91184 0.0
H552 H 0.76544 0.74751 0.87272 0.0
H553 H 0.86125 0.67395 0.6322 0.0
H554 H 0.72721 0.63901 0.78905 0.0
H555 H 0.83654 0.80172 0.66524 0.0
H556 H 0.83027 0.65834 0.70375 0.0
H557 H 0.80873 0.76545 0.80953 0.0
C558 C 0.76662 0.72731 0.84137 0.0
C559 C 0.7427 0.69189 0.83574 0.0
C560 C 0.83209 0.68983 0.69548 0.0
C561 C 0.7923 0.71151 0.76465 0.0
C562 C 0.84956 0.69885 0.65448 0.0
C563 C 0.85063 0.7392 0.6417 0.0
C564 C 0.81616 0.72133 0.72472 0.0
C565 C 0.83635 0.77017 0.67334 0.0
C566 C 0.79104 0.7376 0.80545 0.0
C567 C 0.74497 0.66676 0.7945 0.0
N568 N 0.81937 0.76057 0.71326 0.0
N569 N 0.76947 0.67689 0.76071 0.0
H570 H 0.31079 0.7206 0.40706 0.0
H571 H 0.30059 0.84197 0.17724 0.0
H572 H 0.38298 0.82784 0.39321 0.0
H573 H 0.20438 0.76629 0.21905 0.0
H574 H 0.34051 0.82682 0.24755 0.0
H575 H 0.2814 0.72651 0.32905 0.0
C576 C 0.32102 0.74498 0.3873 0.0
C577 C 0.3493 0.77387 0.40685 0.0
C578 C 0.31084 0.81322 0.24091 0.0
C579 C 0.31542 0.781 0.31747 0.0
C580 C 0.28824 0.8216 0.20074 0.0
C581 C 0.2491 0.8055 0.19256 0.0
C582 C 0.29436 0.788 0.27245 0.0
C583 C 0.2343 0.7796 0.22427 0.0
C584 C 0.30397 0.74852 0.34289 0.0
C585 C 0.36094 0.80517 0.3797 0.0
N586 N 0.25688 0.77169 0.26273 0.0
N587 N 0.34387 0.808 0.33644 0.0
H588 H 0.21951 0.14135 0.68113 0.0
H589 H 0.26348 0.32869 0.86952 0.0
H590 H 0.14179 0.24621 0.70062 0.0
H591 H 0.3283 0.21485 0.87006 0.0
H592 H 0.22408 0.30156 0.80092 0.0
H593 H 0.26213 0.16826 0.74754 0.0
C594 C 0.21081 0.16949 0.70013 0.0
C595 C 0.17708 0.19163 0.68534 0.0
C596 C 0.24725 0.28264 0.81569 0.0
C597 C 0.2265 0.22329 0.76006 0.0
C598 C 0.27027 0.2984 0.85434 0.0
C599 C 0.29914 0.27392 0.87547 0.0
C600 C 0.25318 0.24214 0.79805 0.0
C601 C 0.30611 0.23458 0.85487 0.0
C602 C 0.23551 0.18515 0.73756 0.0
C603 C 0.16774 0.22838 0.71064 0.0
N604 N 0.283 0.21972 0.81748 0.0
N605 N 0.19254 0.24324 0.74648 0.0
H606 H 0.79189 0.16982 0.25674 0.0
H607 H 0.61142 0.29013 0.38303 0.0
H608 H 0.69426 0.23131 0.18812 0.0
H609 H 0.71309 0.24301 0.45967 0.0
H610 H 0.63658 0.25706 0.31183 0.0
H611 H 0.75986 0.18609 0.33149 0.0
C612 C 0.76361 0.18639 0.25742 0.0
C613 C 0.74602 0.19991 0.21642 0.0
C614 C 0.65337 0.25344 0.34413 0.0
C615 C 0.70919 0.21812 0.30108 0.0
C616 C 0.63885 0.27221 0.38488 0.0
C617 C 0.66041 0.26959 0.42716 0.0
C618 C 0.69025 0.23231 0.34525 0.0
C619 C 0.69561 0.24572 0.42765 0.0
C620 C 0.74541 0.19569 0.29995 0.0
C621 C 0.7093 0.22108 0.21902 0.0
N622 N 0.70989 0.22847 0.38707 0.0
N623 N 0.69231 0.22961 0.26048 0.0
loop_
_geom_bond_atom_site_label_1
_geom_bond_atom_site_label_2
_geom_bond_distance
_geom_bond_site_symmetry_2
_ccdc_geom_bond_type
C0 C1 1.351 . S
C0 N3 1.368 . S
C0 H5 0.931 . S
C1 C0 1.351 . S
C1 N2 1.373 . S
C1 H29 0.930 . S
N2 C1 1.373 . S
N2 C4 1.340 . S
N3 C0 1.368 . S
N3 C4 1.321 . S
N3 Co6 2.135 . S
C4 N2 1.340 . S
C4 N3 1.321 . S
C4 H28 0.930 . S
H5 C0 0.931 . S
Co6 N3 2.135 . S
Co6 N9 2.121 . S
Co6 O14 2.055 . S
Co6 O17 2.039 . S
Co6 N20 2.140 . S
C7 O8 1.227 . S
C7 O17 1.265 . S
O8 C7 1.227 . S
N9 Co6 2.121 . S
N9 C11 1.375 . S
N9 C12 1.313 . S
C10 C11 1.338 . S
C10 N13 1.377 . S
C10 H30 0.930 . S
C11 N9 1.375 . S
C11 C10 1.338 . S
C11 H15 0.931 . S
C12 N9 1.313 . S
C12 N13 1.344 . S
C12 H16 0.930 . S
N13 C10 1.377 . S
N13 C12 1.344 . S
O14 Co6 2.055 . S
O14 C18 1.253 . S
H15 C11 0.931 . S
H16 C12 0.930 . S
O17 Co6 2.039 . S
O17 C7 1.265 . S
C18 O14 1.253 . S
C18 O19 1.227 . S
O19 C18 1.227 . S
N20 Co6 2.140 . S
N20 C23 1.346 1_554 S
N20 C24 1.345 1_554 S
C21 C22 1.387 . S
C21 C25 1.391 . S
C22 C21 1.387 . S
C22 C23 1.369 . S
C22 H31 0.929 . S
C23 N20 1.346 1_556 S
C23 C22 1.369 . S
C23 H26 0.928 . S
C24 N20 1.345 1_556 S
C24 C25 1.371 . S
C24 H27 0.931 1_556 S
C25 C21 1.391 . S
C25 C24 1.371 . S
C25 H32 0.930 . S
H26 C23 0.928 . S
H27 C24 0.931 1_554 S
H28 C4 0.930 . S
H29 C1 0.930 . S
H30 C10 0.930 . S
H31 C22 0.929 . S
H32 C25 0.930 . S
C33 C34 1.351 . S
C33 N36 1.368 . S
C33 H38 0.931 . S
C34 C33 1.351 . S
C34 N35 1.373 . S
C34 H62 0.930 . S
N35 C34 1.373 . S
N35 C37 1.340 . S
N36 C33 1.368 . S
N36 C37 1.321 . S
N36 Co39 2.135 . S
C37 N35 1.340 . S
C37 N36 1.321 . S
C37 H61 0.930 . S
H38 C33 0.931 . S
Co39 N36 2.135 . S
Co39 N42 2.121 . S
Co39 O47 2.055 . S
Co39 O50 2.039 . S
Co39 N53 2.140 . S
C40 O41 1.227 . S
C40 O50 1.265 . S
O41 C40 1.227 . S
N42 Co39 2.121 . S
N42 C44 1.375 . S
N42 C45 1.313 . S
C43 C44 1.338 . S
C43 N46 1.377 . S
C43 H63 0.930 . S
C44 N42 1.375 . S
C44 C43 1.338 . S
C44 H48 0.931 . S
C45 N42 1.313 . S
C45 N46 1.344 . S
C45 H49 0.930 . S
N46 C43 1.377 . S
N46 C45 1.344 . S
O47 Co39 2.055 . S
O47 C51 1.253 . S
H48 C44 0.931 . S
H49 C45 0.930 . S
O50 Co39 2.039 . S
O50 C40 1.265 . S
C51 O47 1.253 . S
C51 O52 1.227 . S
O52 C51 1.227 . S
N53 Co39 2.140 . S
N53 C56 1.346 . S
N53 C57 1.345 . S
C54 C55 1.387 . S
C54 C58 1.391 . S
C55 C54 1.387 . S
C55 C56 1.369 . S
C55 H64 0.929 . S
C56 N53 1.346 . S
C56 C55 1.369 . S
C56 H59 0.928 . S
C57 N53 1.345 . S
C57 C58 1.371 . S
C57 H60 0.931 . S
C58 C54 1.391 . S
C58 C57 1.371 . S
C58 H65 0.930 . S
H59 C56 0.928 . S
H60 C57 0.931 . S
H61 C37 0.930 . S
H62 C34 0.930 . S
H63 C43 0.930 . S
H64 C55 0.929 . S
H65 C58 0.930 . S
C66 C67 1.351 . S
C66 N69 1.368 1_556 S
C66 H71 0.931 . S
C67 C66 1.351 . S
C67 N68 1.373 1_556 S
C67 H95 0.930 . S
N68 C67 1.373 1_554 S
N68 C70 1.340 . S
N69 C66 1.368 1_554 S
N69 C70 1.321 . S
N69 Co72 2.135 . S
C70 N68 1.340 . S
C70 N69 1.321 . S
C70 H94 0.930 . S
H71 C66 0.931 . S
Co72 N69 2.135 . S
Co72 N75 2.121 . S
Co72 O80 2.055 1_554 S
Co72 O83 2.039 . S
Co72 N86 2.140 . S
C73 O74 1.227 . S
C73 O83 1.265 . S
O74 C73 1.227 . S
N75 Co72 2.121 . S
N75 C77 1.375 . S
N75 C78 1.313 . S
C76 C77 1.338 . S
C76 N79 1.377 . S
C76 H96 0.930 . S
C77 N75 1.375 . S
C77 C76 1.338 . S
C77 H81 0.931 . S
C78 N75 1.313 . S
C78 N79 1.344 . S
C78 H82 0.930 1_554 S
N79 C76 1.377 . S
N79 C78 1.344 . S
O80 Co72 2.055 1_556 S
O80 C84 1.253 . S
H81 C77 0.931 . S
H82 C78 0.930 1_556 S
O83 Co72 2.039 . S
O83 C73 1.265 . S
C84 O80 1.253 . S
C84 O85 1.227 . S
O85 C84 1.227 . S
N86 Co72 2.140 . S
N86 C89 1.346 . S
N86 C90 1.354 . S
C87 C88 1.387 . S
C87 C91 1.391 . S
C88 C87 1.387 . S
C88 C89 1.369 . S
C88 H97 0.929 . S
C89 N86 1.346 . S
C89 C88 1.369 . S
C89 H92 0.928 . S
C90 N86 1.354 . S
C90 C91 1.373 . S
C90 H93 0.920 1_554 S
C91 C87 1.391 . S
C91 C90 1.373 . S
C91 H98 0.930 1_554 S
H92 C89 0.928 . S
H93 C90 0.920 1_556 S
H94 C70 0.930 . S
H95 C67 0.930 . S
H96 C76 0.930 . S
H97 C88 0.929 . S
H98 C91 0.930 1_556 S
C99 C100 1.351 . S
C99 N102 1.368 . S
C99 H104 0.931 . S
C100 C99 1.351 . S
C100 N101 1.373 . S
C100 H128 0.930 . S
N101 C100 1.373 . S
N101 C103 1.340 . S
N102 C99 1.368 . S
N102 C103 1.321 . S
N102 Co105 2.135 . S
C103 N101 1.340 . S
C103 N102 1.321 . S
C103 H127 0.930 . S
H104 C99 0.931 . S
Co105 N102 2.135 . S
Co105 N108 2.121 . S
Co105 O113 2.055 . S
Co105 O116 2.039 . S
Co105 N119 2.140 . S
C106 O107 1.227 . S
C106 O116 1.265 . S
O107 C106 1.227 . S
N108 Co105 2.121 . S
N108 C110 1.375 . S
N108 C111 1.313 . S
C109 C110 1.338 . S
C109 N112 1.377 . S
C109 H129 0.930 . S
C110 N108 1.375 . S
C110 C109 1.338 . S
C110 H114 0.931 . S
C111 N108 1.313 . S
C111 N112 1.344 . S
C111 H115 0.930 . S
N112 C109 1.377 . S
N112 C111 1.344 . S
O113 Co105 2.055 . S
O113 C117 1.253 . S
H114 C110 0.931 . S
H115 C111 0.930 . S
O116 Co105 2.039 . S
O116 C106 1.265 . S
C117 O113 1.253 . S
C117 O118 1.227 . S
O118 C117 1.227 . S
N119 Co105 2.140 . S
N119 C122 1.346 . S
N119 C123 1.345 . S
C120 C121 1.387 . S
C120 C124 1.391 . S
C121 C120 1.387 . S
C121 C122 1.369 . S
C121 H130 0.929 . S
C122 N119 1.346 . S
C122 C121 1.369 . S
C122 H125 0.928 . S
C123 N119 1.345 . S
C123 C124 1.371 . S
C123 H126 0.931 . S
C124 C120 1.391 . S
C124 C123 1.371 . S
C124 H131 0.930 . S
H125 C122 0.928 . S
H126 C123 0.931 . S
H127 C103 0.930 . S
H128 C100 0.930 . S
H129 C109 0.930 . S
H130 C121 0.929 . S
H131 C124 0.930 . S
C132 C133 1.351 1_545 S
C132 N135 1.368 . S
C132 H137 0.931 . S
C133 C132 1.351 1_565 S
C133 N134 1.373 . S
C133 H161 0.930 . S
N134 C133 1.373 . S
N134 C136 1.340 . S
N135 C132 1.368 . S
N135 C136 1.321 1_545 S
N135 Co138 2.135 . S
C136 N134 1.340 . S
C136 N135 1.321 1_565 S
C136 H160 0.930 . S
H137 C132 0.931 . S
Co138 N135 2.135 . S
Co138 N141 2.121 . S
Co138 O146 2.055 . S
Co138 O149 2.039 . S
Co138 N152 2.140 1_556 S
C139 O140 1.227 . S
C139 O149 1.265 1_554 S
O140 C139 1.227 . S
N141 Co138 2.121 . S
N141 C143 1.375 1_556 S
N141 C144 1.313 . S
C142 C143 1.338 . S
C142 N145 1.377 1_554 S
C142 H162 0.930 . S
C143 N141 1.375 1_554 S
C143 C142 1.338 . S
C143 H147 0.931 . S
C144 N141 1.313 . S
C144 N145 1.344 . S
C144 H148 0.930 . S
N145 C142 1.377 1_556 S
N145 C144 1.344 . S
O146 Co138 2.055 . S
O146 C150 1.253 . S
H147 C143 0.931 . S
H148 C144 0.930 . S
O149 Co138 2.039 . S
O149 C139 1.265 1_556 S
C150 O146 1.253 . S
C150 O151 1.227 . S
O151 C150 1.227 . S
N152 Co138 2.140 1_554 S
N152 C155 1.346 . S
N152 C156 1.345 . S
C153 C154 1.387 . S
C153 C157 1.391 . S
C154 C153 1.387 . S
C154 C155 1.369 . S
C154 H163 0.929 . S
C155 N152 1.346 . S
C155 C154 1.369 . S
C155 H158 0.928 . S
C156 N152 1.345 . S
C156 C157 1.371 . S
C156 H159 0.931 . S
C157 C153 1.391 . S
C157 C156 1.371 . S
C157 H164 0.930 . S
H158 C155 0.928 . S
H159 C156 0.931 . S
H160 C136 0.930 . S
H161 C133 0.930 . S
H162 C142 0.930 . S
H163 C154 0.929 . S
H164 C157 0.930 . S
C165 C166 1.347 1_655 S
C165 N168 1.369 . S
C165 H170 0.933 . S
C166 C165 1.347 1_455 S
C166 N167 1.373 . S
C166 H194 0.930 . S
N167 C166 1.373 . S
N167 C169 1.340 . S
N168 C165 1.369 . S
N168 C169 1.321 1_655 S
N168 Co171 2.135 . S
C169 N167 1.340 . S
C169 N168 1.321 1_455 S
C169 H193 0.930 . S
H170 C165 0.933 . S
Co171 N168 2.135 . S
Co171 N174 2.121 . S
Co171 O179 2.055 . S
Co171 O182 2.039 . S
Co171 N185 2.140 . S
C172 O173 1.227 . S
C172 O182 1.265 . S
O173 C172 1.227 . S
N174 Co171 2.121 . S
N174 C176 1.375 . S
N174 C177 1.313 . S
C175 C176 1.338 . S
C175 N178 1.377 . S
C175 H195 0.930 . S
C176 N174 1.375 . S
C176 C175 1.338 . S
C176 H180 0.931 . S
C177 N174 1.313 . S
C177 N178 1.344 . S
C177 H181 0.930 . S
N178 C175 1.377 . S
N178 C177 1.344 . S
O179 Co171 2.055 . S
O179 C183 1.253 . S
H180 C176 0.931 . S
H181 C177 0.930 . S
O182 Co171 2.039 . S
O182 C172 1.265 . S
C183 O179 1.253 . S
C183 O184 1.227 . S
O184 C183 1.227 . S
N185 Co171 2.140 . S
N185 C188 1.346 . S
N185 C189 1.345 . S
C186 C187 1.387 . S
C186 C190 1.391 . S
C187 C186 1.387 . S
C187 C188 1.369 . S
C187 H196 0.929 . S
C188 N185 1.346 . S
C188 C187 1.369 . S
C188 H191 0.928 . S
C189 N185 1.345 . S
C189 C190 1.371 . S
C189 H192 0.931 . S
C190 C186 1.391 . S
C190 C189 1.371 . S
C190 H197 0.930 . S
H191 C188 0.928 . S
H192 C189 0.931 . S
H193 C169 0.930 . S
H194 C166 0.930 . S
H195 C175 0.930 . S
H196 C187 0.929 . S
H197 C190 0.930 . S
C198 C199 1.351 . S
C198 N201 1.368 1_545 S
C198 H203 0.931 . S
C199 C198 1.351 . S
C199 N200 1.373 . S
C199 H227 0.930 . S
N200 C199 1.373 . S
N200 C202 1.340 . S
N201 C198 1.368 1_565 S
N201 C202 1.321 1_565 S
N201 Co204 2.135 . S
C202 N200 1.340 . S
C202 N201 1.321 1_545 S
C202 H226 0.930 1_554 S
H203 C198 0.931 . S
Co204 N201 2.135 . S
Co204 N207 2.121 . S
Co204 O212 2.055 . S
Co204 O215 2.039 1_554 S
Co204 N218 2.140 . S
C205 O206 1.227 . S
C205 O215 1.265 . S
O206 C205 1.227 . S
N207 Co204 2.121 . S
N207 C209 1.375 1_554 S
N207 C210 1.313 . S
C208 C209 1.338 . S
C208 N211 1.377 1_556 S
C208 H228 0.930 . S
C209 N207 1.375 1_556 S
C209 C208 1.338 . S
C209 H213 0.931 . S
C210 N207 1.313 . S
C210 N211 1.344 . S
C210 H214 0.930 . S
N211 C208 1.377 1_554 S
N211 C210 1.344 . S
O212 Co204 2.055 . S
O212 C216 1.253 . S
H213 C209 0.931 . S
H214 C210 0.930 . S
O215 Co204 2.039 1_556 S
O215 C205 1.265 . S
C216 O212 1.253 . S
C216 O217 1.227 . S
O217 C216 1.227 . S
N218 Co204 2.140 . S
N218 C221 1.346 . S
N218 C222 1.345 . S
C219 C220 1.387 . S
C219 C223 1.391 . S
C220 C219 1.387 . S
C220 C221 1.369 . S
C220 H229 0.913 1_564 S
C221 N218 1.346 . S
C221 C220 1.369 . S
C221 H224 0.928 1_554 S
C222 N218 1.345 . S
C222 C223 1.371 . S
C222 H225 0.931 . S
C223 C219 1.391 . S
C223 C222 1.371 . S
C223 H230 0.930 . S
H224 C221 0.928 1_556 S
H225 C222 0.931 . S
H226 C202 0.930 1_556 S
H227 C199 0.930 . S
H228 C208 0.930 . S
H229 C220 0.913 1_546 S
H230 C223 0.930 . S
C231 C232 1.351 1_455 S
C231 N234 1.368 . S
C231 H236 0.931 . S
C232 C231 1.351 1_655 S
C232 N233 1.373 . S
C232 H260 0.930 . S
N233 C232 1.373 . S
N233 C235 1.340 . S
N234 C231 1.368 . S
N234 C235 1.321 1_455 S
N234 Co237 2.135 . S
C235 N233 1.340 . S
C235 N234 1.321 1_655 S
C235 H259 0.930 . S
H236 C231 0.931 . S
Co237 N234 2.135 . S
Co237 N240 2.121 . S
Co237 O245 2.055 . S
Co237 O248 2.039 . S
Co237 N251 2.140 . S
C238 O239 1.227 . S
C238 O248 1.265 . S
O239 C238 1.227 . S
N240 Co237 2.121 . S
N240 C242 1.375 . S
N240 C243 1.313 . S
C241 C242 1.338 . S
C241 N244 1.377 . S
C241 H261 0.930 . S
C242 N240 1.375 . S
C242 C241 1.338 . S
C242 H246 0.931 . S
C243 N240 1.313 . S
C243 N244 1.344 . S
C243 H247 0.930 . S
N244 C241 1.377 . S
N244 C243 1.344 . S
O245 Co237 2.055 . S
O245 C249 1.253 . S
H246 C242 0.931 . S
H247 C243 0.930 . S
O248 Co237 2.039 . S
O248 C238 1.265 . S
C249 O245 1.253 . S
C249 O250 1.227 . S
O250 C249 1.227 . S
N251 Co237 2.140 . S
N251 C254 1.346 . S
N251 C255 1.345 . S
C252 C253 1.387 . S
C252 C256 1.391 . S
C253 C252 1.387 . S
C253 C254 1.369 . S
C253 H262 0.929 . S
C254 N251 1.346 . S
C254 C253 1.369 . S
C254 H257 0.928 . S
C255 N251 1.345 . S
C255 C256 1.371 . S
C255 H258 0.931 . S
C256 C252 1.391 . S
C256 C255 1.371 . S
C256 H263 0.930 . S
H257 C254 0.928 . S
H258 C255 0.931 . S
H259 C235 0.930 . S
H260 C232 0.930 . S
H261 C241 0.930 . S
H262 C253 0.929 . S
H263 C256 0.930 . S
H264 C270 0.930 1_556 S
H265 C274 0.930 . S
H266 C279 0.929 . S
H267 C277 0.929 . S
H268 C272 0.929 . S
H269 C278 0.929 1_556 S
C270 H264 0.930 1_554 S
C270 C271 1.367 . S
C270 C278 1.378 . S
C271 C270 1.367 . S
C271 C279 1.433 . S
C272 H268 0.929 . S
C272 C274 1.378 . S
C272 C276 1.350 . S
C273 C276 1.463 . S
C273 C278 1.350 . S
C273 N281 1.427 . S
C274 H265 0.930 . S
C274 C272 1.378 . S
C274 C275 1.367 . S
C275 C274 1.367 . S
C275 C277 1.433 . S
C276 C272 1.350 . S
C276 C273 1.463 . S
C276 N280 1.427 . S
C277 H267 0.929 . S
C277 C275 1.433 . S
C277 N280 1.384 . S
C278 H269 0.929 1_554 S
C278 C270 1.378 . S
C278 C273 1.350 . S
C279 H266 0.929 . S
C279 C271 1.433 . S
C279 N281 1.384 . S
N280 C276 1.427 . S
N280 C277 1.384 . S
N281 C273 1.427 . S
N281 C279 1.384 . S
H282 C288 0.930 . S
H283 C292 0.930 . S
H284 C297 0.929 . S
H285 C295 0.929 . S
H286 C290 0.929 . S
H287 C296 0.929 . S
C288 H282 0.930 . S
C288 C289 1.367 . S
C288 C296 1.378 . S
C289 C288 1.367 . S
C289 C297 1.433 . S
C290 H286 0.929 . S
C290 C292 1.378 . S
C290 C294 1.350 . S
C291 C294 1.463 . S
C291 C296 1.350 . S
C291 N299 1.427 . S
C292 H283 0.930 . S
C292 C290 1.378 . S
C292 C293 1.367 . S
C293 C292 1.367 . S
C293 C295 1.433 . S
C294 C290 1.350 . S
C294 C291 1.463 . S
C294 N298 1.427 . S
C295 H285 0.929 . S
C295 C293 1.433 . S
C295 N298 1.384 . S
C296 H287 0.929 . S
C296 C288 1.378 . S
C296 C291 1.350 . S
C297 H284 0.929 . S
C297 C289 1.433 . S
C297 N299 1.384 . S
N298 C294 1.427 . S
N298 C295 1.384 . S
N299 C291 1.427 . S
N299 C297 1.384 . S
H300 C306 0.930 . S
H301 C310 0.931 1_556 S
H302 C315 0.929 . S
H303 C313 0.929 . S
H304 C308 0.929 . S
H305 C314 0.929 1_554 S
C306 H300 0.930 . S
C306 C307 1.367 . S
C306 C314 1.378 . S
C307 C306 1.367 . S
C307 C315 1.433 . S
C308 H304 0.929 . S
C308 C310 1.378 1_556 S
C308 C312 1.350 1_556 S
C309 C312 1.463 1_556 S
C309 C314 1.350 . S
C309 N317 1.427 . S
C310 H301 0.931 1_554 S
C310 C308 1.378 1_554 S
C310 C311 1.367 . S
C311 C310 1.367 . S
C311 C313 1.433 . S
C312 C308 1.350 1_554 S
C312 C309 1.463 1_554 S
C312 N316 1.427 . S
C313 H303 0.929 . S
C313 C311 1.433 . S
C313 N316 1.384 . S
C314 H305 0.929 1_556 S
C314 C306 1.378 . S
C314 C309 1.350 . S
C315 H302 0.929 . S
C315 C307 1.433 . S
C315 N317 1.384 . S
N316 C312 1.427 . S
N316 C313 1.384 . S
N317 C309 1.427 . S
N317 C315 1.384 . S
H318 C324 0.930 . S
H319 C328 0.930 . S
H320 C333 0.929 . S
H321 C331 0.929 . S
H322 C326 0.929 . S
H323 C332 0.929 . S
C324 H318 0.930 . S
C324 C325 1.367 . S
C324 C332 1.378 . S
C325 C324 1.367 . S
C325 C333 1.433 . S
C326 H322 0.929 . S
C326 C328 1.378 . S
C326 C330 1.350 . S
C327 C330 1.463 . S
C327 C332 1.350 . S
C327 N335 1.427 . S
C328 H319 0.930 . S
C328 C326 1.378 . S
C328 C329 1.367 . S
C329 C328 1.367 . S
C329 C331 1.433 . S
C330 C326 1.350 . S
C330 C327 1.463 . S
C330 N334 1.427 . S
C331 H321 0.929 . S
C331 C329 1.433 . S
C331 N334 1.384 . S
C332 H323 0.929 . S
C332 C324 1.378 . S
C332 C327 1.350 . S
C333 H320 0.929 . S
C333 C325 1.433 . S
C333 N335 1.384 . S
N334 C330 1.427 . S
N334 C331 1.384 . S
N335 C327 1.427 . S
N335 C333 1.384 . S
H336 C342 0.930 . S
H337 C346 0.930 . S
H338 C351 0.929 . S
H339 C349 0.929 . S
H340 C344 0.929 . S
H341 C350 0.929 . S
C342 H336 0.930 . S
C342 C343 1.367 1_556 S
C342 C350 1.378 . S
C343 C342 1.367 1_554 S
C343 C351 1.433 . S
C344 H340 0.929 . S
C344 C346 1.378 . S
C344 C348 1.350 1_554 S
C345 C348 1.463 1_554 S
C345 C350 1.350 1_554 S
C345 N353 1.427 . S
C346 H337 0.930 . S
C346 C344 1.378 . S
C346 C347 1.367 1_554 S
C347 C346 1.367 1_556 S
C347 C349 1.433 . S
C348 C344 1.350 1_556 S
C348 C345 1.463 1_556 S
C348 N352 1.427 . S
C349 H339 0.929 . S
C349 C347 1.433 . S
C349 N352 1.384 . S
C350 H341 0.929 . S
C350 C342 1.378 . S
C350 C345 1.350 1_556 S
C351 H338 0.929 . S
C351 C343 1.433 . S
C351 N353 1.384 . S
N352 C348 1.427 . S
N352 C349 1.384 . S
N353 C345 1.427 . S
N353 C351 1.384 . S
H354 C360 0.930 . S
H355 C364 0.930 . S
H356 C369 0.929 . S
H357 C367 0.929 . S
H358 C362 0.929 . S
H359 C368 0.929 . S
C360 H354 0.930 . S
C360 C361 1.367 . S
C360 C368 1.378 . S
C361 C360 1.367 . S
C361 C369 1.433 . S
C362 H358 0.929 . S
C362 C364 1.378 . S
C362 C366 1.350 . S
C363 C366 1.463 . S
C363 C368 1.350 . S
C363 N371 1.427 . S
C364 H355 0.930 . S
C364 C362 1.378 . S
C364 C365 1.367 . S
C365 C364 1.367 . S
C365 C367 1.433 . S
C366 C362 1.350 . S
C366 C363 1.463 . S
C366 N370 1.427 . S
C367 H357 0.929 . S
C367 C365 1.433 . S
C367 N370 1.384 . S
C368 H359 0.929 . S
C368 C360 1.378 . S
C368 C363 1.350 . S
C369 H356 0.929 . S
C369 C361 1.433 . S
C369 N371 1.384 . S
N370 C366 1.427 . S
N370 C367 1.384 . S
N371 C363 1.427 . S
N371 C369 1.384 . S
H372 C378 0.930 . S
H373 C382 0.930 1_556 S
H374 C387 0.929 . S
H375 C385 0.929 . S
H376 C380 0.929 . S
H377 C386 0.929 . S
C378 H372 0.930 . S
C378 C379 1.367 . S
C378 C386 1.378 . S
C379 C378 1.367 . S
C379 C387 1.433 . S
C380 H376 0.929 . S
C380 C382 1.378 . S
C380 C384 1.350 . S
C381 C384 1.463 . S
C381 C386 1.350 . S
C381 N389 1.427 . S
C382 H373 0.930 1_554 S
C382 C380 1.378 . S
C382 C383 1.367 . S
C383 C382 1.367 . S
C383 C385 1.433 . S
C384 C380 1.350 . S
C384 C381 1.463 . S
C384 N388 1.427 . S
C385 H375 0.929 . S
C385 C383 1.433 . S
C385 N388 1.384 . S
C386 H377 0.929 . S
C386 C378 1.378 . S
C386 C381 1.350 . S
C387 H374 0.929 . S
C387 C379 1.433 . S
C387 N389 1.384 . S
N388 C384 1.427 . S
N388 C385 1.384 . S
N389 C381 1.427 . S
N389 C387 1.384 . S
H390 C396 0.930 . S
H391 C400 0.930 . S
H392 C405 0.929 . S
H393 C403 0.929 . S
H394 C398 0.929 . S
H395 C404 0.929 . S
C396 H390 0.930 . S
C396 C397 1.367 . S
C396 C404 1.378 . S
C397 C396 1.367 . S
C397 C405 1.433 . S
C398 H394 0.929 . S
C398 C400 1.378 . S
C398 C402 1.350 . S
C399 C402 1.463 . S
C399 C404 1.350 . S
C399 N407 1.427 . S
C400 H391 0.930 . S
C400 C398 1.378 . S
C400 C401 1.367 . S
C401 C400 1.367 . S
C401 C403 1.433 . S
C402 C398 1.350 . S
C402 C399 1.463 . S
C402 N406 1.427 . S
C403 H393 0.929 . S
C403 C401 1.433 . S
C403 N406 1.384 . S
C404 H395 0.929 . S
C404 C396 1.378 . S
C404 C399 1.350 . S
C405 H392 0.929 . S
C405 C397 1.433 . S
C405 N407 1.384 . S
N406 C402 1.427 . S
N406 C403 1.384 . S
N407 C399 1.427 . S
N407 C405 1.384 . S
H408 C414 0.930 . S
H409 C418 0.930 . S
H410 C423 0.929 1_556 S
H411 C421 0.929 . S
H412 C416 0.929 . S
H413 C422 0.929 . S
C414 H408 0.930 . S
C414 C415 1.367 . S
C414 C422 1.378 . S
C415 C414 1.367 . S
C415 C423 1.433 . S
C416 H412 0.929 . S
C416 C418 1.378 . S
C416 C420 1.350 . S
C417 C420 1.463 . S
C417 C422 1.350 . S
C417 N425 1.427 . S
C418 H409 0.930 . S
C418 C416 1.378 . S
C418 C419 1.367 . S
C419 C418 1.367 . S
C419 C421 1.433 . S
C420 C416 1.350 . S
C420 C417 1.463 . S
C420 N424 1.427 . S
C421 H411 0.929 . S
C421 C419 1.433 . S
C421 N424 1.384 . S
C422 H413 0.929 . S
C422 C414 1.378 . S
C422 C417 1.350 . S
C423 H410 0.929 1_554 S
C423 C415 1.433 . S
C423 N425 1.384 . S
N424 C420 1.427 . S
N424 C421 1.384 . S
N425 C417 1.427 . S
N425 C423 1.384 . S
H426 C432 0.930 . S
H427 C436 0.930 . S
H428 C441 0.929 . S
H429 C439 0.929 . S
H430 C434 0.929 . S
H431 C440 0.929 . S
C432 H426 0.930 . S
C432 C433 1.367 . S
C432 C440 1.378 . S
C433 C432 1.367 . S
C433 C441 1.433 . S
C434 H430 0.929 . S
C434 C436 1.378 . S
C434 C438 1.350 . S
C435 C438 1.463 . S
C435 C440 1.350 . S
C435 N443 1.427 . S
C436 H427 0.930 . S
C436 C434 1.378 . S
C436 C437 1.367 . S
C437 C436 1.367 . S
C437 C439 1.433 . S
C438 C434 1.350 . S
C438 C435 1.463 . S
C438 N442 1.427 . S
C439 H429 0.929 . S
C439 C437 1.433 . S
C439 N442 1.384 . S
C440 H431 0.929 . S
C440 C432 1.378 . S
C440 C435 1.350 . S
C441 H428 0.929 . S
C441 C433 1.433 . S
C441 N443 1.384 . S
N442 C438 1.427 . S
N442 C439 1.384 . S
N443 C435 1.427 . S
N443 C441 1.384 . S
H444 C450 0.930 . S
H445 C454 0.930 1_565 S
H446 C459 0.929 . S
H447 C457 0.929 . S
H448 C452 0.929 . S
H449 C458 0.929 . S
C450 H444 0.930 . S
C450 C451 1.367 1_545 S
C450 C458 1.378 . S
C451 C450 1.367 1_565 S
C451 C459 1.433 1_554 S
C452 H448 0.929 . S
C452 C454 1.378 1_565 S
C452 C456 1.350 1_566 S
C453 C456 1.464 . S
C453 C458 1.353 1_655 S
C453 N461 1.423 1_644 S
C454 H445 0.930 1_545 S
C454 C452 1.378 1_545 S
C454 C455 1.367 1_556 S
C455 C454 1.367 1_554 S
C455 C457 1.433 . S
C456 C452 1.350 1_544 S
C456 C453 1.464 . S
C456 N460 1.427 . S
C457 H447 0.929 . S
C457 C455 1.433 . S
C457 N460 1.384 . S
C458 H449 0.929 . S
C458 C450 1.378 . S
C458 C453 1.353 1_455 S
C459 H446 0.929 . S
C459 C451 1.433 1_556 S
C459 N461 1.384 . S
N460 C456 1.427 . S
N460 C457 1.384 . S
N461 C453 1.423 1_466 S
N461 C459 1.384 . S
H462 C468 0.930 . S
H463 C472 0.930 . S
H464 C477 0.929 . S
H465 C475 0.929 . S
H466 C470 0.929 . S
H467 C476 0.929 . S
C468 H462 0.930 . S
C468 C469 1.367 1_455 S
C468 C476 1.378 . S
C469 C468 1.367 1_655 S
C469 C477 1.433 . S
C470 H466 0.929 . S
C470 C472 1.378 . S
C470 C474 1.350 1_655 S
C471 C474 1.463 1_665 S
C471 C476 1.350 1_655 S
C471 N479 1.427 . S
C472 H463 0.930 . S
C472 C470 1.378 . S
C472 C473 1.367 1_655 S
C473 C472 1.367 1_455 S
C473 C475 1.433 . S
C474 C470 1.350 1_455 S
C474 C471 1.463 1_445 S
C474 N478 1.427 . S
C475 H465 0.929 . S
C475 C473 1.433 . S
C475 N478 1.384 . S
C476 H467 0.929 . S
C476 C468 1.378 . S
C476 C471 1.350 1_455 S
C477 H464 0.929 . S
C477 C469 1.433 . S
C477 N479 1.384 . S
N478 C474 1.427 . S
N478 C475 1.384 . S
N479 C471 1.427 . S
N479 C477 1.384 . S
H480 C486 0.930 . S
H481 C490 0.930 . S
H482 C495 0.929 . S
H483 C493 0.929 . S
H484 C488 0.929 . S
H485 C494 0.929 . S
C486 H480 0.930 . S
C486 C487 1.367 . S
C486 C494 1.378 . S
C487 C486 1.367 . S
C487 C495 1.433 . S
C488 H484 0.929 . S
C488 C490 1.378 . S
C488 C492 1.350 . S
C489 C492 1.463 . S
C489 C494 1.350 . S
C489 N497 1.427 . S
C490 H481 0.930 . S
C490 C488 1.378 . S
C490 C491 1.367 . S
C491 C490 1.367 . S
C491 C493 1.433 . S
C492 C488 1.350 . S
C492 C489 1.463 . S
C492 N496 1.427 . S
C493 H483 0.929 . S
C493 C491 1.433 . S
C493 N496 1.384 . S
C494 H485 0.929 . S
C494 C486 1.378 . S
C494 C489 1.350 . S
C495 H482 0.929 . S
C495 C487 1.433 . S
C495 N497 1.384 . S
N496 C492 1.427 . S
N496 C493 1.384 . S
N497 C489 1.427 . S
N497 C495 1.384 . S
H498 C504 0.930 . S
H499 C508 0.930 . S
H500 C513 0.929 . S
H501 C511 0.929 . S
H502 C506 0.929 . S
H503 C512 0.929 . S
C504 H498 0.930 . S
C504 C505 1.367 . S
C504 C512 1.378 . S
C505 C504 1.367 . S
C505 C513 1.433 . S
C506 H502 0.929 . S
C506 C508 1.378 . S
C506 C510 1.350 . S
C507 C510 1.463 . S
C507 C512 1.350 . S
C507 N515 1.427 . S
C508 H499 0.930 . S
C508 C506 1.378 . S
C508 C509 1.367 . S
C509 C508 1.367 . S
C509 C511 1.433 . S
C510 C506 1.350 . S
C510 C507 1.463 . S
C510 N514 1.427 . S
C511 H501 0.929 . S
C511 C509 1.433 . S
C511 N514 1.384 . S
C512 H503 0.929 . S
C512 C504 1.378 . S
C512 C507 1.350 . S
C513 H500 0.929 . S
C513 C505 1.433 . S
C513 N515 1.384 . S
N514 C510 1.427 . S
N514 C511 1.384 . S
N515 C507 1.427 . S
N515 C513 1.384 . S
H516 C522 0.930 . S
H517 C526 0.930 . S
H518 C531 0.929 . S
H519 C529 0.929 . S
H520 C524 0.929 . S
H521 C530 0.929 . S
C522 H516 0.930 . S
C522 C523 1.367 . S
C522 C530 1.378 . S
C523 C522 1.367 . S
C523 C531 1.433 . S
C524 H520 0.929 . S
C524 C526 1.378 . S
C524 C528 1.350 . S
C525 C528 1.463 . S
C525 C530 1.350 . S
C525 N533 1.427 . S
C526 H517 0.930 . S
C526 C524 1.378 . S
C526 C527 1.367 . S
C527 C526 1.367 . S
C527 C529 1.433 . S
C528 C524 1.350 . S
C528 C525 1.463 . S
C528 N532 1.427 . S
C529 H519 0.929 . S
C529 C527 1.433 . S
C529 N532 1.384 . S
C530 H521 0.929 . S
C530 C522 1.378 . S
C530 C525 1.350 . S
C531 H518 0.929 . S
C531 C523 1.433 . S
C531 N533 1.384 . S
N532 C528 1.427 . S
N532 C529 1.384 . S
N533 C525 1.427 . S
N533 C531 1.384 . S
H534 C540 0.930 . S
H535 C544 0.930 . S
H536 C549 0.929 . S
H537 C547 0.929 . S
H538 C542 0.929 . S
H539 C548 0.929 . S
C540 H534 0.930 . S
C540 C541 1.367 . S
C540 C548 1.378 . S
C541 C540 1.367 . S
C541 C549 1.433 . S
C542 H538 0.929 . S
C542 C544 1.378 . S
C542 C546 1.350 . S
C543 C546 1.463 . S
C543 C548 1.350 . S
C543 N551 1.427 . S
C544 H535 0.930 . S
C544 C542 1.378 . S
C544 C545 1.367 . S
C545 C544 1.367 . S
C545 C547 1.433 . S
C546 C542 1.350 . S
C546 C543 1.463 . S
C546 N550 1.427 . S
C547 H537 0.929 . S
C547 C545 1.433 . S
C547 N550 1.384 . S
C548 H539 0.929 . S
C548 C540 1.378 . S
C548 C543 1.350 . S
C549 H536 0.929 . S
C549 C541 1.433 . S
C549 N551 1.384 . S
N550 C546 1.427 . S
N550 C547 1.384 . S
N551 C543 1.427 . S
N551 C549 1.384 . S
H552 C558 0.930 . S
H553 C562 0.930 . S
H554 C567 0.929 . S
H555 C565 0.929 . S
H556 C560 0.929 . S
H557 C566 0.929 . S
C558 H552 0.930 . S
C558 C559 1.367 . S
C558 C566 1.378 . S
C559 C558 1.367 . S
C559 C567 1.433 . S
C560 H556 0.929 . S
C560 C562 1.378 . S
C560 C564 1.350 . S
C561 C564 1.463 . S
C561 C566 1.350 . S
C561 N569 1.427 . S
C562 H553 0.930 . S
C562 C560 1.378 . S
C562 C563 1.367 . S
C563 C562 1.367 . S
C563 C565 1.433 . S
C564 C560 1.350 . S
C564 C561 1.463 . S
C564 N568 1.427 . S
C565 H555 0.929 . S
C565 C563 1.433 . S
C565 N568 1.384 . S
C566 H557 0.929 . S
C566 C558 1.378 . S
C566 C561 1.350 . S
C567 H554 0.929 . S
C567 C559 1.433 . S
C567 N569 1.384 . S
N568 C564 1.427 . S
N568 C565 1.384 . S
N569 C561 1.427 . S
N569 C567 1.384 . S
H570 C576 0.930 . S
H571 C580 0.930 . S
H572 C585 0.929 . S
H573 C583 0.929 . S
H574 C578 0.929 . S
H575 C584 0.929 . S
C576 H570 0.930 . S
C576 C577 1.367 . S
C576 C584 1.378 . S
C577 C576 1.367 . S
C577 C585 1.433 . S
C578 H574 0.929 . S
C578 C580 1.378 . S
C578 C582 1.350 . S
C579 C582 1.463 . S
C579 C584 1.350 . S
C579 N587 1.427 . S
C580 H571 0.930 . S
C580 C578 1.378 . S
C580 C581 1.367 . S
C581 C580 1.367 . S
C581 C583 1.433 . S
C582 C578 1.350 . S
C582 C579 1.463 . S
C582 N586 1.427 . S
C583 H573 0.929 . S
C583 C581 1.433 . S
C583 N586 1.384 . S
C584 H575 0.929 . S
C584 C576 1.378 . S
C584 C579 1.350 . S
C585 H572 0.929 . S
C585 C577 1.433 . S
C585 N587 1.384 . S
N586 C582 1.427 . S
N586 C583 1.384 . S
N587 C579 1.427 . S
N587 C585 1.384 . S
H588 C594 0.930 . S
H589 C598 0.930 . S
H590 C603 0.929 . S
H591 C601 0.929 . S
H592 C596 0.929 . S
H593 C602 0.929 . S
C594 H588 0.930 . S
C594 C595 1.367 . S
C594 C602 1.378 . S
C595 C594 1.367 . S
C595 C603 1.433 . S
C596 H592 0.929 . S
C596 C598 1.378 . S
C596 C600 1.350 . S
C597 C600 1.463 . S
C597 C602 1.350 . S
C597 N605 1.427 . S
C598 H589 0.930 . S
C598 C596 1.378 . S
C598 C599 1.367 . S
C599 C598 1.367 . S
C599 C601 1.433 . S
C600 C596 1.350 . S
C600 C597 1.463 . S
C600 N604 1.427 . S
C601 H591 0.929 . S
C601 C599 1.433 . S
C601 N604 1.384 . S
C602 H593 0.929 . S
C602 C594 1.378 . S
C602 C597 1.350 . S
C603 H590 0.929 . S
C603 C595 1.433 . S
C603 N605 1.384 . S
N604 C600 1.427 . S
N604 C601 1.384 . S
N605 C597 1.427 . S
N605 C603 1.384 . S
H606 C612 0.930 . S
H607 C616 0.930 . S
H608 C621 0.929 . S
H609 C619 0.929 . S
H610 C614 0.929 . S
H611 C620 0.929 . S
C612 H606 0.930 . S
C612 C613 1.367 . S
C612 C620 1.378 . S
C613 C612 1.367 . S
C613 C621 1.433 . S
C614 H610 0.929 . S
C614 C616 1.378 . S
C614 C618 1.350 . S
C615 C618 1.463 . S
C615 C620 1.350 . S
C615 N623 1.427 . S
C616 H607 0.930 . S
C616 C614 1.378 . S
C616 C617 1.367 . S
C617 C616 1.367 . S
C617 C619 1.433 . S
C618 C614 1.350 . S
C618 C615 1.463 . S
C618 N622 1.427 . S
C619 H609 0.929 . S
C619 C617 1.433 . S
C619 N622 1.384 . S
C620 H611 0.929 . S
C620 C612 1.378 . S
C620 C615 1.350 . S
C621 H608 0.929 . S
C621 C613 1.433 . S
C621 N623 1.384 . S
N622 C618 1.427 . S
N622 C619 1.384 . S
N623 C615 1.427 . S
N623 C621 1.384 . S
C271 N200 0.690 . S
C275 N13 0.675 . S
C289 N233 0.764 . S
C293 N46 0.761 . S
C307 N134 0.771 . S
C311 N79 0.766 . S
C325 N167 0.837 . S
C329 N112 0.824 . S
C343 N68 0.767 . S
C347 N145 0.776 . S
C361 N101 0.857 . S
C365 N178 0.851 . S
C379 N2 0.808 . S
C383 N211 0.801 . S
C397 N244 0.775 . S
C401 N35 0.779 . S
C415 C87 2.011 . S
C419 C7 1.997 . S
C433 C54 2.187 . S
C437 C106 2.183 . S
C451 C219 2.072 . S
C455 C139 2.063 . S
C469 C172 2.383 . S
C473 C238 2.373 . S
C487 C18 1.825 . S
C491 C249 1.839 . S
C505 C150 1.969 . S
C509 C40 1.976 . S
C523 C183 1.789 . S
C527 C73 1.793 . S
C541 C205 1.915 . S
C545 C117 1.897 . S
C559 C84 1.515 . S
C563 C186 1.489 . S
C577 C120 1.322 . S
C581 C216 1.345 . S
C595 C252 1.093 . S
C599 C21 1.099 . S
C613 C153 1.322 . S
C617 C51 1.326 . S
