# Generated by pormake.
# Topology uov, (4)-cn, num edge types: 1
# Building blocks:
#     Node 0, Type 0, BuildingBlock: UXUYUI_clean_sbu_0, # of connection points: 4
#     Node 1, Type 0, BuildingBlock: UXUYUI_clean_sbu_0, # of connection points: 4
#     Node 2, Type 0, BuildingBlock: UXUYUI_clean_sbu_0, # of connection points: 4
#     Node 3, Type 0, BuildingBlock: UXUYUI_clean_sbu_0, # of connection points: 4
#     Node 4, Type 0, BuildingBlock: UXUYUI_clean_sbu_0, # of connection points: 4
#     Node 5, Type 0, BuildingBlock: UXUYUI_clean_sbu_0, # of connection points: 4
#     Node 6, Type 0, BuildingBlock: UXUYUI_clean_sbu_0, # of connection points: 4
#     Node 7, Type 0, BuildingBlock: UXUYUI_clean_sbu_0, # of connection points: 4
#     Edge 8, Type (0, 0), BuildingBlock: XUDNAN_clean_linker_2, # of connection points: 2
#     Edge 9, Type (0, 0), BuildingBlock: XUDNAN_clean_linker_2, # of connection points: 2
#     Edge 10, Type (0, 0), BuildingBlock: XUDNAN_clean_linker_2, # of connection points: 2
#     Edge 11, Type (0, 0), BuildingBlock: XUDNAN_clean_linker_2, # of connection points: 2
#     Edge 12, Type (0, 0), BuildingBlock: XUDNAN_clean_linker_2, # of connection points: 2
#     Edge 13, Type (0, 0), BuildingBlock: XUDNAN_clean_linker_2, # of connection points: 2
#     Edge 14, Type (0, 0), BuildingBlock: XUDNAN_clean_linker_2, # of connection points: 2
#     Edge 15, Type (0, 0), BuildingBlock: XUDNAN_clean_linker_2, # of connection points: 2
#     Edge 16, Type (0, 0), BuildingBlock: XUDNAN_clean_linker_2, # of connection points: 2
#     Edge 17, Type (0, 0), BuildingBlock: XUDNAN_clean_linker_2, # of connection points: 2
#     Edge 18, Type (0, 0), BuildingBlock: XUDNAN_clean_linker_2, # of connection points: 2
#     Edge 19, Type (0, 0), BuildingBlock: XUDNAN_clean_linker_2, # of connection points: 2
#     Edge 20, Type (0, 0), BuildingBlock: XUDNAN_clean_linker_2, # of connection points: 2
#     Edge 21, Type (0, 0), BuildingBlock: XUDNAN_clean_linker_2, # of connection points: 2
#     Edge 22, Type (0, 0), BuildingBlock: XUDNAN_clean_linker_2, # of connection points: 2
#     Edge 23, Type (0, 0), BuildingBlock: XUDNAN_clean_linker_2, # of connection points: 2
# Relax obj value: 0.339
# Max RMSD: 0.266
# Mean RMSD: 0.265
data_MOF--net-uov--node1-UXUYUI_clean_sbu_0--edge1-XUDNAN_clean_linker_2
_symmetry_space_group_name_H-M    P1
_symmetry_Int_Tables_number       1
_symmetry_cell_setting            triclinic
loop_
_symmetry_equiv_pos_as_xyz
'x, y, z'
_cell_length_a     43.503568
_cell_length_b     43.523322
_cell_length_c     62.083871
_cell_angle_alpha  89.99993
_cell_angle_beta   90.015064
_cell_angle_gamma 90.210465
loop_
_atom_site_label
_atom_site_type_symbol
_atom_site_fract_x
_atom_site_fract_y
_atom_site_fract_z
_atom_type_partial_charge
Li0 Li 0.0348 0.23356 0.62871 0.0
Li1 Li 0.02185 0.28276 0.61252 0.0
Li2 Li 0.99443 0.236 0.6024 0.0
Li3 Li 0.04739 0.24489 0.59106 0.0
C4 C 0.96523 0.25689 0.63561 0.0
N5 N 0.90251 0.25748 0.64267 0.0
C6 C 0.94852 0.28392 0.63255 0.0
C7 C 0.95004 0.23018 0.6423 0.0
C8 C 0.91683 0.28375 0.63622 0.0
C9 C 0.91832 0.23094 0.64575 0.0
C10 C 0.07909 0.28935 0.6254 0.0
C11 C 0.10293 0.33909 0.62101 0.0
N12 N 0.10834 0.34022 0.64257 0.0
C13 C 0.08495 0.29097 0.64751 0.0
C14 C 0.08825 0.31354 0.61201 0.0
C15 C 0.09977 0.31689 0.65588 0.0
C16 C 0.07927 0.20564 0.65521 0.0
N17 N 0.04903 0.21319 0.65391 0.0
C18 C 0.03843 0.18707 0.68692 0.0
C19 C 0.02873 0.2048 0.66948 0.0
C20 C 0.06937 0.17822 0.68841 0.0
C21 C 0.09003 0.18812 0.67245 0.0
H22 H 0.09486 0.21259 0.64252 0.0
H23 H 0.0049 0.21131 0.66813 0.0
C24 C 0.01265 0.34545 0.60202 0.0
N25 N 0.01783 0.32537 0.61836 0.0
C26 C 0.01092 0.37691 0.60619 0.0
C27 C 0.01926 0.36628 0.64397 0.0
C28 C 0.02054 0.33502 0.63909 0.0
C29 C 0.0146 0.38766 0.62737 0.0
H30 H 0.01009 0.33708 0.58574 0.0
H31 H 0.02406 0.31841 0.6518 0.0
C32 C 0.04138 0.18024 0.61037 0.0
N33 N 0.06809 0.12781 0.62702 0.0
C34 C 0.07168 0.17276 0.60506 0.0
C35 C 0.0247 0.16103 0.62418 0.0
C36 C 0.08474 0.14612 0.6136 0.0
C37 C 0.03862 0.13467 0.63244 0.0
C38 C 0.01427 0.27168 0.56179 0.0
C39 C -0.00097 0.25156 0.54782 0.0
C40 C 0.03476 0.29345 0.55344 0.0
C41 C 0.00461 0.25351 0.5257 0.0
C42 C 0.03976 0.29462 0.53123 0.0
N43 N 0.02471 0.2748 0.51794 0.0
C44 C 0.93402 0.23912 0.58558 0.0
C45 C 0.95168 0.18884 0.5933 0.0
C46 C 0.90641 0.22739 0.57746 0.0
N47 N 0.95598 0.21975 0.59315 0.0
C48 C 0.92437 0.17616 0.58557 0.0
C49 C 0.90144 0.19549 0.5773 0.0
H50 H 0.93825 0.26362 0.58546 0.0
H51 H 0.96974 0.17396 0.59894 0.0
C52 C 0.10234 0.25253 0.56609 0.0
N53 N 0.07536 0.23699 0.56819 0.0
C54 C 0.12258 0.24524 0.54938 0.0
C55 C 0.08675 0.20623 0.5374 0.0
C56 C 0.06723 0.21433 0.55424 0.0
C57 C 0.11499 0.2216 0.53485 0.0
H58 H 0.10833 0.27029 0.5775 0.0
H59 H 0.04574 0.20217 0.55648 0.0
O60 O 0.99616 0.25641 0.63164 0.0
O61 O 0.06413 0.26441 0.61695 0.0
O62 O 0.02843 0.20665 0.60261 0.0
O63 O 0.00973 0.26961 0.58355 0.0
H64 H 0.95978 0.30474 0.62721 0.0
H65 H 0.96247 0.2089 0.64435 0.0
H66 H 0.9036 0.30447 0.63386 0.0
H67 H 0.90624 0.21038 0.65076 0.0
H68 H 0.1099 0.35808 0.61086 0.0
H69 H 0.07783 0.2726 0.65814 0.0
H70 H 0.08355 0.31286 0.59491 0.0
H71 H 0.10434 0.31851 0.67297 0.0
H72 H 0.02189 0.18024 0.69906 0.0
H73 H 0.11402 0.18159 0.67293 0.0
H74 H 0.00744 0.39268 0.59292 0.0
H75 H 0.02176 0.37363 0.66055 0.0
H76 H 0.08518 0.18752 0.59472 0.0
H77 H 0.00151 0.1668 0.62893 0.0
H78 H 0.10819 0.14013 0.60968 0.0
H79 H 0.02606 0.11977 0.6433 0.0
H80 H 0.98338 0.23432 0.55397 0.0
H81 H 0.04707 0.30894 0.56402 0.0
H82 H 0.99308 0.23799 0.51472 0.0
H83 H 0.05571 0.31121 0.52457 0.0
H84 H 0.88928 0.24302 0.57119 0.0
H85 H 0.92171 0.15141 0.58531 0.0
H86 H 0.14399 0.25783 0.54795 0.0
H87 H 0.08016 0.18742 0.52694 0.0
Li88 Li 0.24045 0.00327 0.39639 0.0
Li89 Li 0.28467 0.97386 0.3832 0.0
Li90 Li 0.22967 0.96015 0.3733 0.0
Li91 Li 0.24868 0.95259 0.40939 0.0
C92 C 0.24928 0.02634 0.35825 0.0
N93 N 0.23937 0.08572 0.34431 0.0
C94 C 0.27403 0.04661 0.35591 0.0
C95 C 0.21952 0.03613 0.35338 0.0
C96 C 0.26853 0.07658 0.34886 0.0
C97 C 0.21498 0.06629 0.3464 0.0
C98 C 0.28558 0.99006 0.43335 0.0
C99 C 0.3206 0.97549 0.46167 0.0
N100 N 0.30403 0.99239 0.47594 0.0
C101 C 0.2691 0.00757 0.44826 0.0
C102 C 0.31173 0.97414 0.44006 0.0
C103 C 0.27871 0.00834 0.46972 0.0
C104 C 0.19937 0.04815 0.41138 0.0
N105 N 0.22881 0.04331 0.40507 0.0
C106 C 0.24398 0.09279 0.41795 0.0
C107 C 0.25092 0.06512 0.4077 0.0
C108 C 0.21415 0.09773 0.42594 0.0
C109 C 0.19148 0.07528 0.42195 0.0
H110 H 0.1824 0.03023 0.40926 0.0
H111 H 0.27429 0.06038 0.4028 0.0
C112 C 0.33782 0.96006 0.35804 0.0
N113 N 0.32596 0.97743 0.3742 0.0
C114 C 0.36881 0.96308 0.3524 0.0
C115 C 0.37436 0.00201 0.37995 0.0
C116 C 0.34339 0.99828 0.38501 0.0
C117 C 0.38754 0.9841 0.36358 0.0
H118 H 0.3233 0.94366 0.34974 0.0
H119 H 0.33317 0.01195 0.39766 0.0
C120 C 0.18559 0.95049 0.40428 0.0
N121 N 0.13898 0.90857 0.41206 0.0
C122 C 0.18974 0.9194 0.39948 0.0
C123 C 0.15773 0.96021 0.41313 0.0
C124 C 0.16592 0.89858 0.4035 0.0
C125 C 0.13444 0.93868 0.41692 0.0
C126 C 0.27983 0.90602 0.38544 0.0
C127 C 0.26702 0.87813 0.37867 0.0
C128 C 0.30894 0.90634 0.39495 0.0
C129 C 0.28346 0.85097 0.38177 0.0
C130 C 0.32467 0.87871 0.39774 0.0
N131 N 0.3117 0.85182 0.39117 0.0
C132 C 0.21607 0.92254 0.33771 0.0
C133 C 0.17449 0.95318 0.3497 0.0
C134 C 0.19746 0.90876 0.32211 0.0
N135 N 0.20425 0.94405 0.35119 0.0
C136 C 0.15502 0.93995 0.33437 0.0
C137 C 0.1664 0.91723 0.32043 0.0
H138 H 0.23986 0.91577 0.33931 0.0
H139 H 0.16576 0.97043 0.36062 0.0
C140 C 0.22763 0.94406 0.45065 0.0
N141 N 0.24351 0.92879 0.43515 0.0
C142 C 0.22036 0.92977 0.47006 0.0
C143 C 0.24476 0.88357 0.45706 0.0
C144 C 0.25221 0.89905 0.438 0.0
C145 C 0.22867 0.89908 0.47333 0.0
H146 H 0.21987 0.96723 0.44767 0.0
H147 H 0.26416 0.88694 0.42543 0.0
O148 O 0.25409 0.99716 0.36556 0.0
O149 O 0.27647 0.98892 0.41225 0.0
O150 O 0.20873 0.97136 0.40075 0.0
O151 O 0.26409 0.93283 0.38241 0.0
H152 H 0.29718 0.03933 0.35967 0.0
H153 H 0.20014 0.02069 0.3552 0.0
H154 H 0.28743 0.09259 0.34707 0.0
H155 H 0.19207 0.07427 0.34268 0.0
H156 H 0.34072 0.96316 0.46709 0.0
H157 H 0.24881 0.02007 0.44342 0.0
H158 H 0.32513 0.96095 0.42874 0.0
H159 H 0.266 0.02157 0.48145 0.0
H160 H 0.2621 0.10956 0.42035 0.0
H161 H 0.16831 0.07768 0.42806 0.0
H162 H 0.37815 0.94868 0.33978 0.0
H163 H 0.38782 0.01885 0.38872 0.0
H164 H 0.21109 0.91134 0.39277 0.0
H165 H 0.15411 0.98411 0.41711 0.0
H166 H 0.16888 0.87447 0.39984 0.0
H167 H 0.11277 0.94591 0.42375 0.0
H168 H 0.24459 0.87742 0.37115 0.0
H169 H 0.31928 0.92766 0.40013 0.0
H170 H 0.27378 0.82922 0.37669 0.0
H171 H 0.34719 0.87864 0.40514 0.0
H172 H 0.2071 0.89113 0.31185 0.0
H173 H 0.13135 0.94744 0.33344 0.0
H174 H 0.20724 0.9422 0.48204 0.0
H175 H 0.25118 0.85971 0.459 0.0
Li176 Li 0.9559 0.76691 0.62296 0.0
Li177 Li 0.974 0.71368 0.61041 0.0
Li178 Li 0.00084 0.76067 0.59987 0.0
Li179 Li 0.95163 0.75004 0.58548 0.0
C180 C 0.02081 0.75597 0.63928 0.0
N181 N 0.074 0.77969 0.65715 0.0
C182 C 0.04776 0.73859 0.63937 0.0
C183 C 0.02089 0.78539 0.64831 0.0
C184 C 0.07443 0.75101 0.64846 0.0
C185 C 0.04801 0.79697 0.65728 0.0
C186 C 0.90311 0.72661 0.60288 0.0
C187 C 0.86781 0.69644 0.58161 0.0
N188 N 0.84625 0.71879 0.58383 0.0
C189 C 0.88061 0.74922 0.60505 0.0
C190 C 0.8967 0.69996 0.59113 0.0
C191 C 0.852 0.74485 0.59526 0.0
C192 C 0.92401 0.81688 0.64034 0.0
N193 N 0.93761 0.78978 0.6454 0.0
C194 C 0.92709 0.79731 0.68278 0.0
C195 C 0.93913 0.77957 0.66605 0.0
C196 C 0.91364 0.82584 0.67811 0.0
C197 C 0.91193 0.83547 0.65655 0.0
H198 H 0.92284 0.82418 0.62371 0.0
H199 H 0.9502 0.7579 0.66953 0.0
C200 C 0.00882 0.66117 0.61628 0.0
N201 N 0.97984 0.67229 0.61835 0.0
C202 C 0.01511 0.63067 0.62141 0.0
C203 C 0.96139 0.62338 0.63019 0.0
C204 C 0.95621 0.65426 0.6252 0.0
C205 C 0.9912 0.61137 0.62837 0.0
H206 H 0.02694 0.67596 0.61034 0.0
H207 H 0.93338 0.66378 0.62662 0.0
C208 C 0.97635 0.81437 0.58516 0.0
N209 N 0.99754 0.86399 0.56165 0.0
C210 C 0.98435 0.81074 0.56352 0.0
C211 C 0.97894 0.84327 0.59483 0.0
C212 C 0.99506 0.83609 0.55191 0.0
C213 C 0.98976 0.86806 0.58267 0.0
C214 C 0.98995 0.70952 0.56307 0.0
C215 C 0.00262 0.723 0.54464 0.0
C216 C 0.97853 0.67948 0.56206 0.0
C217 C 0.00311 0.70639 0.52539 0.0
C218 C 0.97952 0.6636 0.54252 0.0
N219 N 0.99164 0.67729 0.52473 0.0
C220 C 0.0594 0.75754 0.58137 0.0
C221 C 0.04957 0.80516 0.59847 0.0
C222 C 0.08735 0.76854 0.57345 0.0
N223 N 0.04077 0.77617 0.59306 0.0
C224 C 0.07726 0.81719 0.59078 0.0
C225 C 0.0962 0.79905 0.5776 0.0
H226 H 0.05215 0.73435 0.57769 0.0
H227 H 0.03469 0.81931 0.60819 0.0
C228 C 0.91164 0.78386 0.55985 0.0
N229 N 0.92549 0.75594 0.56077 0.0
C230 C 0.89452 0.79227 0.54184 0.0
C231 C 0.90453 0.74237 0.52641 0.0
C232 C 0.9214 0.73487 0.54482 0.0
C233 C 0.89136 0.77166 0.52458 0.0
H234 H 0.91451 0.79997 0.57295 0.0
H235 H 0.93135 0.71236 0.54616 0.0
O236 O 0.99466 0.74456 0.62997 0.0
O237 O 0.93155 0.73094 0.61173 0.0
O238 O 0.96619 0.78974 0.59691 0.0
O239 O 0.98966 0.7253 0.58213 0.0
H240 H 0.04816 0.71586 0.63237 0.0
H241 H 0.00037 0.79934 0.64812 0.0
H242 H 0.09549 0.73786 0.64857 0.0
H243 H 0.04844 0.81975 0.66423 0.0
H244 H 0.86257 0.67602 0.57236 0.0
H245 H 0.88532 0.77007 0.61399 0.0
H246 H 0.91399 0.68237 0.58916 0.0
H247 H 0.8344 0.76223 0.59669 0.0
H248 H 0.92902 0.7892 0.69922 0.0
H249 H 0.90135 0.85711 0.65227 0.0
H250 H 0.03827 0.62205 0.61947 0.0
H251 H 0.94241 0.60912 0.63553 0.0
H252 H 0.98229 0.7886 0.5558 0.0
H253 H 0.97308 0.84643 0.61162 0.0
H254 H 0.0014 0.83359 0.53516 0.0
H255 H 0.99205 0.89052 0.58997 0.0
H256 H 0.01214 0.74597 0.54519 0.0
H257 H 0.96867 0.66861 0.57611 0.0
H258 H 0.01272 0.71659 0.51099 0.0
H259 H 0.97058 0.64042 0.54148 0.0
H260 H 0.10153 0.75351 0.56377 0.0
H261 H 0.08299 0.84088 0.59433 0.0
H262 H 0.88492 0.81517 0.54111 0.0
H263 H 0.90209 0.72556 0.51365 0.0
Li264 Li 0.7689 0.03998 0.37123 0.0
Li265 Li 0.75102 0.04515 0.4078 0.0
Li266 Li 0.76043 0.99537 0.39361 0.0
Li267 Li 0.71473 0.02389 0.38206 0.0
C268 C 0.81442 0.04834 0.40171 0.0
N269 N 0.86185 0.08913 0.40978 0.0
C270 C 0.81016 0.07982 0.39854 0.0
C271 C 0.84277 0.0376 0.40906 0.0
C272 C 0.83441 0.10008 0.40268 0.0
C273 C 0.86649 0.05859 0.41302 0.0
C274 C 0.71834 0.09224 0.38541 0.0
C275 C 0.67322 0.11892 0.39789 0.0
N276 N 0.68655 0.14617 0.39251 0.0
C277 C 0.73149 0.1205 0.37983 0.0
C278 C 0.68888 0.09141 0.39438 0.0
C279 C 0.7151 0.14751 0.38362 0.0
C280 C 0.78116 0.08022 0.33666 0.0
N281 N 0.7934 0.05795 0.34932 0.0
C282 C 0.84249 0.06412 0.33261 0.0
C283 C 0.8233 0.04941 0.34742 0.0
C284 C 0.83067 0.08765 0.31955 0.0
C285 C 0.79947 0.09542 0.32153 0.0
H286 H 0.75729 0.08653 0.33858 0.0
H287 H 0.83236 0.0315 0.35766 0.0
C288 C 0.77515 0.05363 0.44827 0.0
N289 N 0.75656 0.06815 0.43394 0.0
C290 C 0.78234 0.06723 0.46793 0.0
C291 C 0.75213 0.11132 0.45763 0.0
C292 C 0.74494 0.0965 0.43826 0.0
C293 C 0.77094 0.09649 0.47272 0.0
H294 H 0.78477 0.03149 0.44426 0.0
H295 H 0.73054 0.10797 0.4267 0.0
C296 C 0.75024 0.97343 0.35567 0.0
N297 N 0.76085 0.91416 0.34178 0.0
C298 C 0.72705 0.95125 0.35724 0.0
C299 C 0.77875 0.96559 0.34695 0.0
C300 C 0.73289 0.92137 0.35014 0.0
C301 C 0.78368 0.93546 0.34004 0.0
C302 C 0.71634 0.00751 0.4319 0.0
C303 C 0.73395 0.99148 0.44699 0.0
C304 C 0.69016 0.02333 0.43866 0.0
C305 C 0.72536 0.99198 0.46866 0.0
C306 C 0.68232 0.02328 0.46048 0.0
N307 N 0.69995 0.00777 0.47491 0.0
C308 C 0.80534 0.9494 0.39856 0.0
C309 C 0.75484 0.93459 0.4087 0.0
C310 C 0.81706 0.9216 0.40611 0.0
N311 N 0.77486 0.95552 0.40042 0.0
C312 C 0.76561 0.90666 0.41667 0.0
C313 C 0.79719 0.90021 0.41585 0.0
H314 H 0.82065 0.96658 0.39191 0.0
H315 H 0.73069 0.94017 0.40992 0.0
C316 C 0.66104 0.03616 0.35721 0.0
N317 N 0.67326 0.01947 0.3736 0.0
C318 C 0.63006 0.03255 0.35172 0.0
C319 C 0.62524 0.99445 0.3799 0.0
C320 C 0.6562 -0.00124 0.3848 0.0
C321 C 0.61171 0.01161 0.36327 0.0
H322 H 0.67529 0.05247 0.3486 0.0
H323 H 0.6667 0.98561 0.39761 0.0
O324 O 0.79097 0.02798 0.39792 0.0
O325 O 0.73396 0.06556 0.38161 0.0
O326 O 0.74531 0.00251 0.36316 0.0
O327 O 0.72458 0.00757 0.41062 0.0
H328 H 0.78837 0.08853 0.39299 0.0
H329 H 0.8464 0.0133 0.4117 0.0
H330 H 0.83141 0.1245 0.40028 0.0
H331 H 0.88857 0.0506 0.4187 0.0
H332 H 0.65045 0.1186 0.4049 0.0
H333 H 0.75413 0.12162 0.37265 0.0
H334 H 0.67823 0.06983 0.39863 0.0
H335 H 0.72505 0.16954 0.37947 0.0
H336 H 0.86629 0.05714 0.33138 0.0
H337 H 0.78952 0.11358 0.31189 0.0
H338 H 0.79746 0.05538 0.479 0.0
H339 H 0.74316 0.13406 0.46079 0.0
H340 H 0.70492 0.95698 0.36408 0.0
H341 H 0.79697 0.98251 0.34577 0.0
H342 H 0.71523 0.9039 0.35135 0.0
H343 H 0.80569 0.92898 0.33336 0.0
H344 H 0.75438 0.97923 0.4421 0.0
H345 H 0.67599 0.03547 0.42721 0.0
H346 H 0.73895 0.97991 0.48053 0.0
H347 H 0.66219 0.03554 0.46594 0.0
H348 H 0.8416 0.91762 0.40539 0.0
H349 H 0.74959 0.89065 0.42397 0.0
H350 H 0.62045 0.04639 0.33891 0.0
H351 H 0.61207 0.97771 0.38897 0.0
Li352 Li 0.94434 0.23808 0.09455 0.0
Li353 Li 0.95959 0.23345 0.13137 0.0
Li354 Li 0.96592 0.28306 0.11185 0.0
Li355 Li 0.99818 0.23726 0.10283 0.0
C356 C 0.89897 0.25139 0.12606 0.0
N357 N 0.84217 0.2314 0.14035 0.0
C358 C 0.88959 0.22107 0.12243 0.0
C359 C 0.87946 0.27154 0.13695 0.0
C360 C 0.8608 0.21141 0.12979 0.0
C361 C 0.85083 0.261 0.14405 0.0
C362 C 0.98036 0.17765 0.11549 0.0
C363 C 0.01819 0.15234 0.13757 0.0
N364 N 0.00604 0.12465 0.13194 0.0
C365 C 0.96824 0.14896 0.1099 0.0
C366 C 0.00551 0.1794 0.12944 0.0
C367 C 0.98155 0.12242 0.11839 0.0
C368 C 0.92324 0.19994 0.06158 0.0
N369 N 0.91565 0.22515 0.07329 0.0
C370 C 0.86938 0.23158 0.05308 0.0
C371 C 0.88934 0.24101 0.06945 0.0
C372 C 0.87677 0.20574 0.04057 0.0
C373 C 0.90407 0.18981 0.04504 0.0
H374 H 0.9444 0.18791 0.065 0.0
H375 H 0.88411 0.26119 0.07891 0.0
C376 C 0.95649 0.23133 0.17698 0.0
N377 N 0.94958 0.21589 0.15856 0.0
C378 C 0.94812 0.21914 0.19699 0.0
C379 C 0.92572 0.1755 0.17862 0.0
C380 C 0.93465 0.1884 0.15905 0.0
C381 C 0.93227 0.19097 0.19793 0.0
H382 H 0.96817 0.25328 0.17609 0.0
H383 H 0.92933 0.17659 0.1442 0.0
C384 C 0.96971 0.26634 0.06208 0.0
N385 N 0.95297 0.26511 0.01915 0.0
C386 C 0.98425 0.24622 0.04783 0.0
C387 C 0.94676 0.28596 0.05447 0.0
C388 C 0.97544 0.24593 0.02619 0.0
C389 C 0.9386 0.28495 0.03271 0.0
C390 C 0.02253 0.27161 0.13927 0.0
C391 C 0.03581 0.29871 0.13149 0.0
C392 C 0.03628 0.25616 0.15648 0.0
C393 C 0.06304 0.30955 0.14075 0.0
C394 C 0.0635 0.26774 0.16531 0.0
N395 N 0.07622 0.29395 0.15731 0.0
C396 C 0.95817 0.34103 0.13228 0.0
C397 C 0.97251 0.34226 0.09543 0.0
C398 C 0.9573 0.37315 0.13297 0.0
N399 N 0.96545 0.32641 0.11362 0.0
C400 C 0.97141 0.37421 0.09528 0.0
C401 C 0.96353 0.38998 0.11417 0.0
H402 H 0.95286 0.32773 0.14654 0.0
H403 H 0.97896 0.33007 0.08098 0.0
C404 C 0.04064 0.19725 0.08265 0.0
N405 N 0.03744 0.22553 0.09167 0.0
C406 C 0.06727 0.18978 0.07133 0.0
C407 C 0.08715 0.24053 0.07887 0.0
C408 C 0.06007 0.24704 0.09003 0.0
C409 C 0.09077 0.21175 0.06898 0.0
H410 H 0.02185 0.181 0.08312 0.0
H411 H 0.05656 0.26978 0.09641 0.0
O412 O 0.92716 0.26141 0.11922 0.0
O413 O 0.9672 0.2038 0.10754 0.0
O414 O 0.97737 0.26629 0.08346 0.0
O415 O 0.99553 0.26093 0.13072 0.0
H416 H 0.90443 0.20509 0.11413 0.0
H417 H 0.88643 0.29507 0.13991 0.0
H418 H 0.85329 0.18799 0.12713 0.0
H419 H 0.8355 0.27635 0.15251 0.0
H420 H 0.0377 0.15337 0.14836 0.0
H421 H 0.94866 0.14727 0.09919 0.0
H422 H 0.01524 0.20136 0.13379 0.0
H423 H 0.97238 0.10006 0.11423 0.0
H424 H 0.84867 0.24461 0.05004 0.0
H425 H 0.9104 0.1695 0.03602 0.0
H426 H 0.95337 0.23192 0.2115 0.0
H427 H 0.9139 0.15355 0.17863 0.0
H428 H 0.00192 0.23078 0.05344 0.0
H429 H 0.93494 0.30135 0.06533 0.0
H430 H 0.98639 0.23036 0.01501 0.0
H431 H 0.9207 0.29982 0.02664 0.0
H432 H 0.02547 0.31105 0.11824 0.0
H433 H 0.02598 0.23553 0.16305 0.0
H434 H 0.0737 0.33035 0.13476 0.0
H435 H 0.07445 0.25595 0.17858 0.0
H436 H 0.95117 0.38467 0.14782 0.0
H437 H 0.97683 0.38652 0.08059 0.0
H438 H 0.0686 0.16761 0.06347 0.0
H439 H 0.10464 0.25819 0.07744 0.0
Li440 Li 0.24271 0.05058 0.90359 0.0
Li441 Li 0.23435 0.997 0.89313 0.0
Li442 Li 0.28007 0.02501 0.88102 0.0
Li443 Li 0.22915 0.03667 0.86658 0.0
C444 C 0.27347 0.01828 0.93195 0.0
N445 N 0.28235 0.02853 0.97542 0.0
C446 C 0.25318 0.00562 0.94701 0.0
C447 C 0.29839 0.03596 0.93899 0.0
C448 C 0.25804 0.01111 0.96892 0.0
C449 C 0.30245 0.04093 0.96104 0.0
C450 C 0.17675 0.04115 0.88643 0.0
C451 C 0.12909 0.03375 0.86725 0.0
N452 N 0.12186 0.06372 0.87075 0.0
C453 C 0.16885 0.07186 0.88987 0.0
C454 C 0.15671 0.02189 0.87508 0.0
C455 C 0.14097 0.08283 0.88182 0.0
C456 C 0.25063 0.10528 0.9293 0.0
N457 N 0.23514 0.07838 0.92657 0.0
C458 C 0.20332 0.08895 0.95696 0.0
C459 C 0.21202 0.06991 0.94003 0.0
C460 C 0.2186 0.11709 0.96017 0.0
C461 C 0.24275 0.12507 0.94615 0.0
H462 H 0.26875 0.11162 0.91827 0.0
H463 H 0.19993 0.04849 0.93732 0.0
C464 C 0.2419 0.93707 0.90921 0.0
N465 N 0.22067 0.95899 0.90469 0.0
C466 C 0.23354 0.91092 0.92088 0.0
C467 C 0.18159 0.93032 0.92278 0.0
C468 C 0.19089 0.95596 0.91093 0.0
C469 C 0.2032 0.90772 0.92827 0.0
H470 H 0.26562 0.94058 0.90459 0.0
H471 H 0.17469 0.9741 0.90759 0.0
C472 C 0.28417 0.08457 0.86958 0.0
N473 N 0.33224 0.12042 0.85472 0.0
C474 C 0.28436 0.09497 0.84827 0.0
C475 C 0.30838 0.09247 0.88333 0.0
C476 C 0.30888 0.11308 0.84107 0.0
C477 C 0.3325 0.11056 0.87551 0.0
C478 C 0.25251 0.96761 0.85884 0.0
C479 C 0.28006 0.9512 0.85853 0.0
C480 C 0.22477 0.95232 0.85484 0.0
C481 C 0.27937 0.91965 0.8544 0.0
C482 C 0.22504 0.92075 0.85082 0.0
N483 N 0.2521 0.9052 0.85069 0.0
C484 C 0.33958 0.0042 0.88924 0.0
C485 C 0.33478 0.0304 0.85599 0.0
C486 C 0.37055 0.99837 0.8852 0.0
N487 N 0.32248 0.02008 0.87476 0.0
C488 C 0.36588 0.02585 0.85154 0.0
C489 C 0.3843 0.00945 0.86619 0.0
H490 H 0.32897 0.99544 0.90375 0.0
H491 H 0.32045 0.04204 0.84439 0.0
C492 C 0.20055 0.08075 0.84041 0.0
N493 N 0.2068 0.05027 0.84207 0.0
C494 C 0.18298 0.09174 0.82329 0.0
C495 C 0.17861 0.03974 0.80987 0.0
C496 C 0.19649 0.02979 0.82719 0.0
C497 C 0.1716 0.07109 0.80782 0.0
H498 H 0.2089 0.09645 0.85261 0.0
H499 H 0.20185 0.0057 0.82889 0.0
O500 O 0.26865 0.01388 0.9104 0.0
O501 O 0.20435 0.03022 0.89361 0.0
O502 O 0.26041 0.06676 0.8769 0.0
O503 O 0.25267 -0.00156 0.86312 0.0
H504 H 0.23364 0.99206 0.94185 0.0
H505 H 0.31437 0.04582 0.92755 0.0
H506 H 0.24241 0.00163 0.98075 0.0
H507 H 0.32157 0.05468 0.96672 0.0
H508 H 0.11345 0.01917 0.85831 0.0
H509 H 0.18425 0.0872 0.89837 0.0
H510 H 0.16263 0.99815 0.87208 0.0
H511 H 0.13462 0.10658 0.88426 0.0
H512 H 0.18413 0.08207 0.96699 0.0
H513 H 0.25526 0.14644 0.94809 0.0
H514 H 0.25098 0.89425 0.92507 0.0
H515 H 0.15795 0.92861 0.92812 0.0
H516 H 0.26595 0.08891 0.83735 0.0
H517 H 0.30875 0.08436 0.89978 0.0
H518 H 0.30937 0.12121 0.82461 0.0
H519 H 0.35146 0.1167 0.88594 0.0
H520 H 0.30175 0.96264 0.8615 0.0
H521 H 0.20321 0.96461 0.8552 0.0
H522 H 0.30051 0.90664 0.85419 0.0
H523 H 0.20372 0.90858 0.84787 0.0
H524 H 0.38329 0.9848 0.89673 0.0
H525 H 0.37526 0.03524 0.83679 0.0
H526 H 0.17779 0.11603 0.82242 0.0
H527 H 0.17051 0.02314 0.79816 0.0
Li528 Li 0.00291 0.76172 0.10478 0.0
Li529 Li 0.02581 0.71469 0.1175 0.0
Li530 Li 0.04075 0.76358 0.13394 0.0
Li531 Li 0.05733 0.74919 0.09823 0.0
C532 C 0.97949 0.76062 0.14593 0.0
N533 N 0.9394 0.79491 0.17058 0.0
C534 C 0.95855 0.74599 0.15959 0.0
C535 C 0.98001 0.79271 0.14475 0.0
C536 C 0.93847 0.76372 0.17194 0.0
C537 C 0.95957 0.80962 0.15736 0.0
C538 C 0.01327 0.70122 0.07698 0.0
C539 C 0.02722 0.65011 0.06557 0.0
N540 N 0.99825 0.64571 0.05792 0.0
C541 C 0.98379 0.69633 0.06868 0.0
C542 C 0.03529 0.67806 0.07513 0.0
C543 C 0.97659 0.66808 0.05921 0.0
C544 C 0.96203 0.80604 0.08499 0.0
N545 N 0.96498 0.77774 0.09402 0.0
C546 C 0.9133 0.7649 0.08439 0.0
C547 C 0.94086 0.75784 0.09475 0.0
C548 C 0.91049 0.79286 0.07328 0.0
C549 C 0.93496 0.81402 0.07433 0.0
H550 H 0.98086 0.82217 0.08535 0.0
H551 H 0.94354 0.73582 0.10259 0.0
C552 C 0.03549 0.65035 0.12508 0.0
N553 N 0.01462 0.67324 0.12256 0.0
C554 C 0.02579 0.61969 0.1251 0.0
C555 C 0.97335 0.63709 0.12104 0.0
C556 C 0.98402 0.66729 0.12116 0.0
C557 C 0.99441 0.61282 0.12244 0.0
H558 H 0.0597 0.65583 0.12606 0.0
H559 H 0.96805 0.68605 0.11913 0.0
C560 C 0.04115 0.81068 0.09157 0.0
N561 N 0.04632 0.8531 0.05859 0.0
C562 C 0.03606 0.80176 0.07019 0.0
C563 C 0.04881 0.84121 0.09612 0.0
C564 C 0.03884 0.82353 0.05377 0.0
C565 C 0.05127 0.86231 0.07924 0.0
C566 C 0.09882 0.72683 0.12395 0.0
C567 C 0.1174 0.74958 0.13315 0.0
C568 C 0.11241 0.70288 0.1124 0.0
C569 C 0.14924 0.74825 0.13037 0.0
C570 C 0.14433 0.70237 0.10996 0.0
N571 N 0.16193 0.72489 0.1189 0.0
C572 C 0.04375 0.77036 0.17903 0.0
C573 C 0.06598 0.81135 0.15921 0.0
C574 C 0.05138 0.78468 0.19845 0.0
N575 N 0.05117 0.78384 0.15998 0.0
C576 C 0.07423 0.82639 0.17822 0.0
C577 C 0.06697 0.81301 0.19819 0.0
H578 H 0.03201 0.7484 0.17911 0.0
H579 H 0.07172 0.8214 0.1438 0.0
C580 C 0.08899 0.7404 0.05849 0.0
N581 N 0.08949 0.75533 0.07772 0.0
C582 C 0.10823 0.74992 0.04175 0.0
C583 C 0.12887 0.78926 0.0652 0.0
C584 C 0.10944 0.77883 0.08152 0.0
C585 C 0.1277 0.77533 0.04481 0.0
H586 H 0.07231 0.72247 0.05561 0.0
H587 H 0.10882 0.79079 0.09678 0.0
O588 O -0.00074 0.74344 0.13379 0.0
O589 O 0.02052 0.72842 0.08694 0.0
O590 O 0.03994 0.78954 0.1079 0.0
O591 O 0.06754 0.72807 0.12617 0.0
H592 H 0.95785 0.72116 0.16063 0.0
H593 H 0.99599 0.80449 0.13425 0.0
H594 H 0.92215 0.7527 0.1826 0.0
H595 H 0.95974 0.83446 0.15663 0.0
H596 H 0.04397 0.63189 0.06431 0.0
H597 H 0.96662 0.71412 0.06943 0.0
H598 H 0.05824 0.68146 0.08131 0.0
H599 H 0.95379 0.66395 0.05287 0.0
H600 H 0.89478 0.74821 0.0845 0.0
H601 H 0.93392 0.83589 0.06606 0.0
H602 H 0.04276 0.6016 0.12607 0.0
H603 H 0.94895 0.63276 0.11925 0.0
H604 H 0.03007 0.77832 0.06625 0.0
H605 H 0.05289 0.84856 0.11252 0.0
H606 H 0.03506 0.8169 0.03718 0.0
H607 H 0.0572 0.886 0.08255 0.0
H608 H 0.10739 0.76824 0.14216 0.0
H609 H 0.09854 0.68489 0.10535 0.0
H610 H 0.16384 0.76583 0.13729 0.0
H611 H 0.15511 0.68406 0.10097 0.0
H612 H 0.04566 0.77342 0.21349 0.0
H613 H 0.08598 0.84833 0.1773 0.0
H614 H 0.10633 0.73889 0.02616 0.0
H615 H 0.14365 0.80888 0.06819 0.0
Li616 Li 0.75692 0.99447 0.89148 0.0
Li617 Li 0.75271 0.94102 0.90324 0.0
Li618 Li 0.76398 0.95398 0.86563 0.0
Li619 Li 0.71277 0.96255 0.88081 0.0
C620 C 0.81778 0.95565 0.88485 0.0
N621 N 0.87517 0.93957 0.86963 0.0
C622 C 0.82987 0.92667 0.88945 0.0
C623 C 0.83493 0.97651 0.87263 0.0
C624 C 0.85893 0.91898 0.8816 0.0
C625 C 0.86387 0.96792 0.86503 0.0
C626 C 0.72005 0.97154 0.93122 0.0
C627 C 0.69318 0.94686 0.96048 0.0
N628 N 0.71244 0.96082 0.97474 0.0
C629 C 0.73948 0.98577 0.94615 0.0
C630 C 0.69662 0.95203 0.93841 0.0
C631 C 0.73528 0.98001 0.96809 0.0
C632 C 0.74681 0.05552 0.9051 0.0
N633 N 0.76859 0.03362 0.90212 0.0
C634 C 0.80531 0.06306 0.92195 0.0
C635 C 0.79756 0.03712 0.9099 0.0
C636 C 0.78302 0.08568 0.92601 0.0
C637 C 0.7537 0.08208 0.91677 0.0
H638 H 0.72367 0.05168 0.89932 0.0
H639 H 0.8141 0.01888 0.90791 0.0
C640 C 0.747 0.88887 0.93149 0.0
N641 N 0.76261 0.91516 0.92688 0.0
C642 C 0.75568 0.87083 0.94909 0.0
C643 C 0.7962 0.90737 0.95677 0.0
C644 C 0.7866 0.92474 0.93919 0.0
C645 C 0.78078 0.8799 0.96193 0.0
H646 H 0.72792 0.88182 0.92149 0.0
H647 H 0.79853 0.94582 0.93516 0.0
C648 C 0.73548 0.02051 0.85636 0.0
N649 N 0.73133 0.08183 0.84527 0.0
C650 C 0.70687 0.03502 0.85596 0.0
C651 C 0.76193 0.0371 0.85093 0.0
C652 C 0.70527 0.06606 0.85034 0.0
C653 C 0.75937 0.06811 0.84544 0.0
C654 C 0.71347 0.90259 0.86944 0.0
C655 C 0.71512 0.89215 0.84818 0.0
C656 C 0.6894 0.89274 0.88268 0.0
C657 C 0.69251 0.87208 0.84048 0.0
C658 C 0.6672 0.87272 0.87436 0.0
N659 N 0.66921 0.86289 0.85362 0.0
C660 C 0.79957 0.91375 0.84004 0.0
C661 C 0.78704 0.96111 0.82346 0.0
C662 C 0.81607 0.90459 0.82187 0.0
N663 N 0.78577 0.9417 0.84056 0.0
C664 C 0.80304 0.9528 0.80489 0.0
C665 C 0.81801 0.92425 0.80394 0.0
H666 H 0.79781 0.8986 0.8538 0.0
H667 H 0.77544 0.98299 0.82418 0.0
C668 C 0.65239 0.98038 0.88921 0.0
N669 N 0.66995 0.96443 0.87505 0.0
C670 C 0.62116 0.98472 0.88523 0.0
C671 C 0.62647 0.95544 0.85238 0.0
C672 C 0.65779 0.95243 0.85671 0.0
C673 C 0.60762 0.97206 0.86662 0.0
H674 H 0.66286 0.99052 0.90333 0.0
H675 H 0.67243 0.94078 0.84532 0.0
O676 O 0.78914 0.96343 0.89206 0.0
O677 O 0.72438 0.97611 0.90965 0.0
O678 O 0.73757 0.99021 0.86201 0.0
O679 O 0.73543 0.9222 0.87725 0.0
H680 H 0.81679 0.91013 0.89872 0.0
H681 H 0.8259 -0.00097 0.86893 0.0
H682 H 0.86852 0.89658 0.88493 0.0
H683 H 0.87734 0.98378 0.85545 0.0
H684 H 0.67525 0.93169 0.96628 0.0
H685 H 0.75785 0.00078 0.94086 0.0
H686 H 0.68141 0.94084 0.92704 0.0
H687 H 0.75026 0.99072 0.97983 0.0
H688 H 0.82798 0.06429 0.92909 0.0
H689 H 0.73586 0.09899 0.91924 0.0
H690 H 0.74289 0.85003 0.95258 0.0
H691 H 0.81604 0.91506 0.96585 0.0
H692 H 0.68614 0.02253 0.85999 0.0
H693 H 0.78423 0.02621 0.85114 0.0
H694 H 0.6833 0.07762 0.85004 0.0
H695 H 0.77967 0.08128 0.84133 0.0
H696 H 0.73356 0.89958 0.83769 0.0
H697 H 0.68759 0.90085 0.89909 0.0
H698 H 0.69345 0.86387 0.82405 0.0
H699 H 0.64833 0.86507 0.88439 0.0
H700 H 0.82745 0.88251 0.822 0.0
H701 H 0.8033 0.96844 0.79133 0.0
H702 H 0.60807 -0.00148 0.89642 0.0
H703 H 0.61729 0.94486 0.83797 0.0
H704 H 0.96 0.56123 0.61322 0.0
H705 H 0.03696 0.58803 0.65355 0.0
H706 H 0.04959 0.53329 0.65945 0.0
H707 H 0.93807 0.49182 0.6432 0.0
H708 H 0.92889 0.47064 0.61908 0.0
H709 H 0.92438 0.51177 0.61965 0.0
H710 H 0.95975 0.51669 0.58622 0.0
H711 H 0.96451 0.47564 0.58562 0.0
H712 H 0.99777 0.50037 0.58703 0.0
H713 H 0.05515 0.47594 0.65958 0.0
H714 H 0.05432 0.41993 0.653 0.0
H715 H 0.97431 0.43069 0.61197 0.0
C716 C 0.97911 0.55549 0.62364 0.0
C717 C 0.9974 0.57869 0.6331 0.0
C718 C 0.02272 0.57046 0.64619 0.0
C719 C 0.02996 0.53951 0.64968 0.0
C720 C 0.01172 0.51715 0.63988 0.0
C721 C 0.98685 0.52473 0.6271 0.0
C722 C 0.97215 0.49638 0.61735 0.0
C723 C 0.9389 0.49243 0.6253 0.0
C724 C 0.97365 0.49734 0.59259 0.0
C725 C 0.99288 0.47172 0.62641 0.0
C726 C 0.01535 0.48413 0.63957 0.0
C727 C 0.03752 0.46591 0.64945 0.0
C728 C 0.03681 0.43416 0.64569 0.0
C729 C 0.01423 0.42103 0.63202 0.0
C730 C 0.99194 0.44013 0.62239 0.0
H731 H 0.56447 0.00673 0.39208 0.0
H732 H 0.58394 0.00823 0.32354 0.0
H733 H 0.52854 0.00093 0.31583 0.0
H734 H 0.50643 0.94806 0.39035 0.0
H735 H 0.4833 0.96562 0.41101 0.0
H736 H 0.52432 0.9713 0.41091 0.0
H737 H 0.5165 0.03033 0.41051 0.0
H738 H 0.47546 0.02484 0.41063 0.0
H739 H 0.49326 0.04742 0.3897 0.0
H740 H 0.47066 0.99252 0.31592 0.0
H741 H 0.41522 0.98589 0.32378 0.0
H742 H 0.43493 0.98914 0.39226 0.0
C743 C 0.55716 0.00529 0.37543 0.0
C744 C 0.57851 0.0079 0.3584 0.0
C745 C 0.56791 0.00652 0.33684 0.0
C746 C 0.53655 0.0022 0.33231 0.0
C747 C 0.51617 -0.00057 0.34954 0.0
C748 C 0.52609 0.00105 0.37066 0.0
C749 C 0.49969 0.99767 0.38631 0.0
C750 C 0.50368 0.96895 0.40047 0.0
C751 C 0.49602 0.0268 0.40009 0.0
C752 C 0.47327 0.99387 0.37073 0.0
C753 C 0.48315 0.99483 0.34958 0.0
C754 C 0.46269 0.99173 0.33242 0.0
C755 C 0.43131 0.9878 0.33703 0.0
C756 C 0.42076 0.98715 0.35862 0.0
C757 C 0.44219 0.99001 0.37559 0.0
H758 H 0.99221 0.43094 0.1411 0.0
H759 H 0.93088 0.42501 0.08618 0.0
H760 H 0.92989 0.48166 0.08374 0.0
H761 H 0.95958 0.50108 0.16484 0.0
H762 H 0.99663 0.51596 0.17273 0.0
H763 H 0.99034 0.47505 0.1714 0.0
H764 H 0.03657 0.46987 0.14535 0.0
H765 H 0.04289 0.51074 0.14651 0.0
H766 H 0.03725 0.49213 0.12087 0.0
H767 H 0.93752 0.53817 0.08599 0.0
H768 H 0.95413 0.59163 0.09225 0.0
H769 H 0.01146 0.56144 0.14539 0.0
C770 C 0.97815 0.4417 0.12886 0.0
C771 C 0.96144 0.42383 0.11389 0.0
C772 C 0.94381 0.43847 0.09775 0.0
C773 C 0.94304 0.47055 0.0963 0.0
C774 C 0.96014 0.48758 0.11106 0.0
C775 C 0.97741 0.47375 0.12703 0.0
C776 C 0.99518 0.49742 0.13997 0.0
C777 C 0.9848 0.49737 0.16364 0.0
C778 C 0.03003 0.49222 0.13805 0.0
C779 C 0.98547 0.52662 0.1286 0.0
C780 C 0.96501 0.52038 0.11213 0.0
C781 C 0.95327 0.54342 0.09899 0.0
C782 C 0.96273 0.57372 0.10274 0.0
C783 C 0.98384 0.5807 0.11944 0.0
C784 C 0.9953 0.55677 0.13252 0.0
H785 H 0.43199 0.00421 0.8953 0.0
H786 H 0.41217 0.00086 0.82666 0.0
H787 H 0.46699 0.992 0.81928 0.0
H788 H 0.50521 0.04011 0.89264 0.0
H789 H 0.5218 0.01703 0.91372 0.0
H790 H 0.48113 0.02459 0.91365 0.0
H791 H 0.46974 0.96609 0.91449 0.0
H792 H 0.51038 0.95835 0.91471 0.0
H793 H 0.48628 0.9416 0.89418 0.0
H794 H 0.5245 0.98517 0.81935 0.0
H795 H 0.57943 0.97746 0.82692 0.0
H796 H 0.55985 0.97808 0.89562 0.0
C797 C 0.43885 0.00121 0.87868 0.0
C798 C 0.41743 0.0036 0.8616 0.0
C799 C 0.42798 2e-05 0.8401 0.0
C800 C 0.45912 0.99467 0.83571 0.0
C801 C 0.47942 0.9924 0.85296 0.0
C802 C 0.46964 0.99517 0.87402 0.0
C803 C 0.49588 0.99071 0.88969 0.0
C804 C 0.50132 0.01985 0.90322 0.0
C805 C 0.49023 0.96251 0.90411 0.0
C806 C 0.52204 0.98527 0.87413 0.0
C807 C 0.51216 0.98663 0.85302 0.0
C808 C 0.53244 0.98354 0.83583 0.0
C809 C 0.56365 0.97885 0.84035 0.0
C810 C 0.57433 0.97677 0.86192 0.0
C811 C 0.55291 0.97988 0.87894 0.0
H812 H 0.16044 0.13089 0.42918 0.0
H813 H 0.25212 0.12339 0.45636 0.0
H814 H 0.23868 0.16148 0.48397 0.0
H815 H 0.14733 0.21393 0.44277 0.0
H816 H 0.10764 0.20671 0.44947 0.0
H817 H 0.12631 0.184 0.42904 0.0
H818 H 0.11147 0.13433 0.44964 0.0
H819 H 0.093 0.1568 0.47014 0.0
H820 H 0.12283 0.1301 0.47742 0.0
H821 H 0.2132 0.19328 0.51206 0.0
H822 H 0.17759 0.21624 0.53832 0.0
H823 H 0.10208 0.20292 0.49351 0.0
C824 C 0.17793 0.13769 0.44065 0.0
C825 C 0.20745 0.1242 0.44037 0.0
C826 C 0.22959 0.13382 0.45577 0.0
C827 C 0.22212 0.1554 0.47166 0.0
C828 C 0.19247 0.16733 0.47194 0.0
C829 C 0.17077 0.15901 0.45674 0.0
C830 C 0.13959 0.17239 0.46206 0.0
C831 C 0.12964 0.19565 0.44481 0.0
C832 C 0.11531 0.14689 0.465 0.0
C833 C 0.14684 0.18825 0.48317 0.0
C834 C 0.17759 0.18559 0.48837 0.0
C835 C 0.18921 0.19616 0.50794 0.0
C836 C 0.16878 0.20929 0.52275 0.0
C837 C 0.13701 0.21155 0.51798 0.0
C838 C 0.1262 0.2015 0.49768 0.0
H839 H 0.19451 0.84673 0.47536 0.0
H840 H 0.23742 0.91653 0.51512 0.0
H841 H 0.21318 0.8938 0.54752 0.0
H842 H 0.12432 0.8493 0.50042 0.0
H843 H 0.11577 0.80886 0.49827 0.0
H844 H 0.14097 0.82678 0.47904 0.0
H845 H 0.18359 0.78737 0.48811 0.0
H846 H 0.15839 0.76917 0.50735 0.0
H847 H 0.19579 0.78262 0.51566 0.0
H848 H 0.17952 0.86732 0.57468 0.0
H849 H 0.13813 0.84022 0.5943 0.0
H850 H 0.11546 0.78951 0.53618 0.0
C851 C 0.19966 0.85645 0.49102 0.0
C852 C 0.21818 0.88295 0.49293 0.0
C853 C 0.22351 0.89596 0.51349 0.0
C854 C 0.20994 0.88316 0.53193 0.0
C855 C 0.19104 0.85746 0.52946 0.0
C856 C 0.18594 0.84421 0.50951 0.0
C857 C 0.16185 0.81911 0.51077 0.0
C858 C 0.1341 0.82648 0.49627 0.0
C859 C 0.17575 0.7877 0.50514 0.0
C860 C 0.15351 0.82093 0.53439 0.0
C861 C 0.17095 0.84279 0.54499 0.0
C862 C 0.16598 0.84989 0.5666 0.0
C863 C 0.14226 0.83455 0.57757 0.0
C864 C 0.12358 0.81262 0.56684 0.0
C865 C 0.12976 0.80552 0.54505 0.0
H866 H 0.78384 0.88094 0.45649 0.0
H867 H 0.84028 0.85949 0.401 0.0
H868 H 0.86598 0.81841 0.42182 0.0
H869 H 0.84121 0.87525 0.49388 0.0
H870 H 0.81805 0.85873 0.51502 0.0
H871 H 0.80042 0.88236 0.49479 0.0
H872 H 0.76251 0.83829 0.48535 0.0
H873 H 0.77993 0.81451 0.50572 0.0
H874 H 0.77729 0.80096 0.47834 0.0
H875 H 0.88955 0.78428 0.44992 0.0
H876 H 0.91053 0.76146 0.4832 0.0
H877 H 0.83863 0.80551 0.52034 0.0
C878 C 0.80083 0.86684 0.44849 0.0
C879 C 0.80983 0.87301 0.42707 0.0
C880 C 0.833 0.85494 0.41738 0.0
C881 C 0.84756 0.83149 0.42903 0.0
C882 C 0.83862 0.82647 0.45032 0.0
C883 C 0.81571 0.8436 0.45993 0.0
C884 C 0.81273 0.83614 0.48365 0.0
C885 C 0.81846 0.86482 0.49764 0.0
C886 C 0.78124 0.8216 0.48854 0.0
C887 C 0.8383 0.81295 0.4861 0.0
C888 C 0.85258 0.8072 0.46663 0.0
C889 C 0.87819 0.78817 0.46517 0.0
C890 C 0.88987 0.7752 0.48416 0.0
C891 C 0.87615 0.78162 0.50436 0.0
C892 C 0.84962 0.80019 0.50515 0.0
H893 H 0.79845 0.15252 0.47682 0.0
H894 H 0.76675 0.07394 0.51356 0.0
H895 H 0.79038 0.09573 0.54644 0.0
H896 H 0.86977 0.15566 0.49913 0.0
H897 H 0.87364 0.19691 0.49946 0.0
H898 H 0.84887 0.1788 0.48005 0.0
H899 H 0.80307 0.21165 0.49332 0.0
H900 H 0.82782 0.23006 0.51277 0.0
H901 H 0.79292 0.21139 0.52147 0.0
H902 H 0.8238 0.12149 0.57353 0.0
H903 H 0.86516 0.14906 0.59287 0.0
H904 H 0.87616 0.21053 0.53842 0.0
C905 C 0.79549 0.14061 0.492 0.0
C906 C 0.78047 0.11186 0.49286 0.0
C907 C 0.77799 0.09617 0.51274 0.0
C908 C 0.7912 0.10843 0.53146 0.0
C909 C 0.80678 0.13639 0.52999 0.0
C910 C 0.80885 0.15241 0.51079 0.0
C911 C 0.83017 0.17985 0.51288 0.0
C912 C 0.85721 0.17764 0.49694 0.0
C913 C 0.81243 0.21003 0.50994 0.0
C914 C 0.84078 0.17599 0.53595 0.0
C915 C 0.82657 0.15113 0.54566 0.0
C916 C 0.83464 0.14135 0.56626 0.0
C917 C 0.85826 0.15701 0.57707 0.0
C918 C 0.87365 0.18202 0.56718 0.0
C919 C 0.86424 0.19199 0.54657 0.0
H920 H 0.83753 0.11685 0.93253 0.0
H921 H 0.74351 0.11057 0.95573 0.0
H922 H 0.75591 0.14688 0.98481 0.0
H923 H 0.87099 0.11287 0.98258 0.0
H924 H 0.90226 0.13896 0.97699 0.0
H925 H 0.88482 0.11759 0.9554 0.0
H926 H 0.87343 0.16824 0.93498 0.0
H927 H 0.89107 0.18983 0.9565 0.0
H928 H 0.85227 0.19831 0.94828 0.0
H929 H 0.77994 0.17793 0.01429 0.0
H930 H 0.814 0.2008 0.04185 0.0
H931 H 0.89268 0.18537 0.00034 0.0
C932 C 0.81936 0.12346 0.94348 0.0
C933 C 0.78944 0.11091 0.9416 0.0
C934 C 0.76642 0.12032 0.95636 0.0
C935 C 0.77328 0.14086 0.97308 0.0
C936 C 0.80324 0.1519 0.97488 0.0
C937 C 0.82589 0.14365 0.9604 0.0
C938 C 0.85698 0.15602 0.9672 0.0
C939 C 0.8801 0.1298 0.97076 0.0
C940 C 0.86915 0.1795 0.95076 0.0
C941 C 0.84848 0.17143 0.98821 0.0
C942 C 0.81729 0.16933 0.99215 0.0
C943 C 0.80432 0.18021 0.0112 0.0
C944 C 0.82383 0.19321 0.02675 0.0
C945 C 0.85596 0.19488 0.02323 0.0
C946 C 0.86822 0.18431 0.00352 0.0
H947 H 0.19843 0.10266 0.00086 0.0
H948 H 0.21339 0.17984 0.95778 0.0
H949 H 0.18905 0.21435 0.9842 0.0
H950 H 0.12507 0.12217 0.0151 0.0
H951 H 0.12754 0.10975 0.04274 0.0
H952 H 0.15156 0.09229 0.02267 0.0
H953 H 0.20008 0.1064 0.04487 0.0
H954 H 0.17613 0.12384 0.06513 0.0
H955 H 0.20656 0.14577 0.05272 0.0
H956 H 0.15624 0.23881 0.01243 0.0
H957 H 0.11735 0.25111 0.03993 0.0
H958 H 0.12305 0.15796 0.06454 0.0
C959 C 0.19709 0.12692 0.99711 0.0
C960 C 0.20795 0.13851 0.97724 0.0
C961 C 0.2058 0.17044 0.97303 0.0
C962 C 0.1919 0.19024 0.98793 0.0
C963 C 0.18047 0.17782 0.00702 0.0
C964 C 0.18312 0.14691 0.01172 0.0
C965 C 0.1661 0.13869 0.0322 0.0
C966 C 0.14109 0.1143 0.0279 0.0
C967 C 0.18856 0.12805 0.04977 0.0
C968 C 0.15222 0.16951 0.03775 0.0
C969 C 0.16128 0.19193 0.02329 0.0
C970 C 0.14953 0.22163 0.02414 0.0
C971 C 0.12751 0.22844 0.03991 0.0
C972 C 0.11727 0.20556 0.05453 0.0
C973 C 0.13042 0.17596 0.05365 0.0
H974 H 0.12879 0.83587 0.03394 0.0
H975 H 0.16161 0.7466 0.01337 0.0
H976 H 0.18519 0.7706 0.9811 0.0
H977 H 0.10842 0.86286 0.98222 0.0
H978 H 0.12005 0.90198 0.98732 0.0
H979 H 0.10746 0.87797 0.00925 0.0
H980 H 0.15866 0.88818 0.02944 0.0
H981 H 0.17131 0.91248 0.00767 0.0
H982 H 0.19463 0.88051 0.01609 0.0
H983 H 0.20466 0.80498 0.9508 0.0
H984 H 0.21752 0.84644 0.92491 0.0
H985 H 0.1706 0.9123 0.96562 0.0
C986 C 0.14149 0.82144 0.02288 0.0
C987 C 0.1438 0.78947 0.02625 0.0
C988 C 0.15973 0.77119 0.01107 0.0
C989 C 0.17319 0.78462 0.99276 0.0
C990 C 0.17024 0.81626 0.98985 0.0
C991 C 0.15474 0.83438 0.00453 0.0
C992 C 0.15375 0.86757 0.99741 0.0
C993 C 0.12044 0.8782 0.99384 0.0
C994 C 0.1706 0.88841 0.01361 0.0
C995 C 0.17107 0.86539 0.97638 0.0
C996 C 0.18058 0.83569 0.97229 0.0
C997 C 0.19728 0.8283 0.95384 0.0
C998 C 0.20452 0.85194 0.93927 0.0
C999 C 0.19478 0.88246 0.94318 0.0
C1000 C 0.17784 0.88908 0.96199 0.0
H1001 H 0.8044 0.89848 0.00095 0.0
H1002 H 0.78378 0.81691 0.96326 0.0
H1003 H 0.80815 0.78482 0.99108 0.0
H1004 H 0.87787 0.87721 0.01458 0.0
H1005 H 0.87745 0.89322 0.04135 0.0
H1006 H 0.85324 0.90924 0.02079 0.0
H1007 H 0.80535 0.9005 0.04488 0.0
H1008 H 0.8295 0.8845 0.06563 0.0
H1009 H 0.79741 0.86266 0.05535 0.0
H1010 H 0.84111 0.76246 0.01995 0.0
H1011 H 0.88061 0.75164 0.04727 0.0
H1012 H 0.88064 0.8477 0.06617 0.0
C1013 C 0.80458 0.87382 0.99865 0.0
C1014 C 0.79201 0.86028 0.97988 0.0
C1015 C 0.79266 0.82788 0.97763 0.0
C1016 C 0.80657 0.80942 0.99334 0.0
C1017 C 0.8196 0.82365 0.01128 0.0
C1018 C 0.81858 0.85512 0.01407 0.0
C1019 C 0.83705 0.86503 0.03357 0.0
C1020 C 0.86293 0.88748 0.02718 0.0
C1021 C 0.81607 0.87899 0.05088 0.0
C1022 C 0.84974 0.83437 0.04075 0.0
C1023 C 0.83892 0.81072 0.02794 0.0
C1024 C 0.84922 0.78067 0.0304 0.0
C1025 C 0.8716 0.77473 0.04608 0.0
C1026 C 0.88365 0.79876 0.05904 0.0
C1027 C 0.87194 0.82881 0.05657 0.0
H1028 H 0.12141 0.18437 0.71304 0.0
H1029 H 0.04103 0.12654 0.70378 0.0
H1030 H 0.05859 0.09252 0.73315 0.0
H1031 H 0.17481 0.12343 0.72444 0.0
H1032 H 0.19551 0.14506 0.74455 0.0
H1033 H 0.17663 0.16475 0.72275 0.0
H1034 H 0.14625 0.1976 0.75025 0.0
H1035 H 0.16503 0.178 0.77213 0.0
H1036 H 0.12365 0.17872 0.77072 0.0
H1037 H 0.08529 0.06447 0.76316 0.0
H1038 H 0.11825 0.04548 0.79271 0.0
H1039 H 0.18102 0.1218 0.78243 0.0
C1040 C 0.10761 0.16445 0.71713 0.0
C1041 C 0.07984 0.15808 0.70618 0.0
C1042 C 0.0622 0.13201 0.71215 0.0
C1043 C 0.07207 0.11248 0.7287 0.0
C1044 C 0.09956 0.11941 0.73917 0.0
C1045 C 0.11702 0.14483 0.73369 0.0
C1046 C 0.14542 0.14738 0.74768 0.0
C1047 C 0.17483 0.14501 0.73404 0.0
C1048 C 0.14505 0.17719 0.76098 0.0
C1049 C 0.14123 0.1194 0.76187 0.0
C1050 C 0.11472 0.10348 0.75663 0.0
C1051 C 0.1061 0.07673 0.76741 0.0
C1052 C 0.12503 0.06604 0.78407 0.0
C1053 C 0.15215 0.08217 0.78984 0.0
C1054 C 0.16026 0.10917 0.77851 0.0
H1055 H 0.12186 0.84109 0.20761 0.0
H1056 H 0.03258 0.81932 0.23492 0.0
H1057 H 0.04797 0.84423 0.26906 0.0
H1058 H 0.1656 0.82775 0.25532 0.0
H1059 H 0.1921 0.85894 0.25053 0.0
H1060 H 0.17381 0.83992 0.22816 0.0
H1061 H 0.15285 0.89213 0.21461 0.0
H1062 H 0.17114 0.91134 0.23691 0.0
H1063 H 0.13043 0.91571 0.23253 0.0
H1064 H 0.07331 0.87135 0.30026 0.0
H1065 H 0.10708 0.89762 0.32647 0.0
H1066 H 0.17948 0.90216 0.27846 0.0
C1067 C 0.10541 0.84186 0.22069 0.0
C1068 C 0.07599 0.82833 0.2186 0.0
C1069 C 0.05534 0.8293 0.23624 0.0
C1070 C 0.06381 0.84354 0.25564 0.0
C1071 C 0.09302 0.85662 0.25714 0.0
C1072 C 0.11351 0.85586 0.24015 0.0
C1073 C 0.1437 0.87111 0.24604 0.0
C1074 C 0.17037 0.84805 0.24495 0.0
C1075 C 0.14988 0.89925 0.23167 0.0
C1076 C 0.13702 0.88052 0.26902 0.0
C1077 C 0.10763 0.87207 0.27511 0.0
C1078 C 0.09632 0.8782 0.29564 0.0
C1079 C 0.11561 0.89329 0.31038 0.0
C1080 C 0.1459 0.90201 0.30452 0.0
C1081 C 0.15657 0.89554 0.28351 0.0
H1082 H 0.87793 0.80933 0.7127 0.0
H1083 H 0.92338 0.88748 0.68302 0.0
H1084 H 0.90441 0.92106 0.71219 0.0
H1085 H 0.81048 0.84993 0.72979 0.0
H1086 H 0.80673 0.82897 0.75469 0.0
H1087 H 0.82434 0.81103 0.73168 0.0
H1088 H 0.87302 0.79965 0.75436 0.0
H1089 H 0.85557 0.81763 0.77743 0.0
H1090 H 0.89248 0.83078 0.76791 0.0
H1091 H 0.8812 0.94589 0.74478 0.0
H1092 H 0.85372 0.96079 0.77787 0.0
H1093 H 0.82169 0.86676 0.78555 0.0
C1094 C 0.88404 0.83348 0.71245 0.0
C1095 C 0.90212 0.84585 0.69563 0.0
C1096 C 0.9093 0.87763 0.69566 0.0
C1097 C 0.89879 0.89682 0.7122 0.0
C1098 C 0.881 0.8839 0.72853 0.0
C1099 C 0.87353 0.85301 0.72874 0.0
C1100 C 0.8535 0.84507 0.74791 0.0
C1101 C 0.82189 0.83305 0.74057 0.0
C1102 C 0.86961 0.82192 0.76278 0.0
C1103 C 0.85094 0.87632 0.75846 0.0
C1104 C 0.86709 0.89836 0.74708 0.0
C1105 C 0.86829 0.92888 0.75376 0.0
C1106 C 0.85241 0.93715 0.77251 0.0
C1107 C 0.83532 0.91504 0.78432 0.0
C1108 C 0.83477 0.8842 0.77711 0.0
H1109 H 0.81777 0.10403 0.27786 0.0
H1110 H 0.88919 0.10886 0.32656 0.0
H1111 H 0.92285 0.13664 0.30101 0.0
H1112 H 0.86754 0.0914 0.23297 0.0
H1113 H 0.84526 0.1145 0.21466 0.0
H1114 H 0.8267 0.0955 0.23692 0.0
H1115 H 0.80503 0.14766 0.25003 0.0
H1116 H 0.8235 0.16682 0.22779 0.0
H1117 H 0.83104 0.17921 0.25499 0.0
H1118 H 0.9486 0.16416 0.27004 0.0
H1119 H 0.96512 0.18752 0.23558 0.0
H1120 H 0.87663 0.16467 0.20743 0.0
C1121 C 0.84039 0.11115 0.28321 0.0
C1122 C 0.85088 0.10429 0.30419 0.0
C1123 C 0.88082 0.11359 0.31047 0.0
C1124 C 0.90002 0.12954 0.29613 0.0
C1125 C 0.88895 0.13594 0.27556 0.0
C1126 C 0.85987 0.12695 0.26909 0.0
C1127 C 0.85368 0.13612 0.24599 0.0
C1128 C 0.84797 0.10768 0.2318 0.0
C1129 C 0.82672 0.1588 0.24463 0.0
C1130 C 0.88385 0.15159 0.24044 0.0
C1131 C 0.90385 0.15144 0.25773 0.0
C1132 C 0.93312 0.16445 0.2564 0.0
C1133 C 0.94224 0.17779 0.23682 0.0
C1134 C 0.92221 0.17781 0.21883 0.0
C1135 C 0.8926 0.16466 0.22081 0.0
loop_
_geom_bond_atom_site_label_1
_geom_bond_atom_site_label_2
_geom_bond_distance
_geom_bond_site_symmetry_2
_ccdc_geom_bond_type
Li0 N17 1.990 . S
Li0 O60 1.956 . S
Li0 O61 1.970 . S
Li0 O62 1.961 . S
Li1 N25 1.990 . S
Li1 O60 1.970 . S
Li1 O61 1.956 . S
Li1 O63 1.961 . S
Li2 N47 1.990 1_455 S
Li2 O60 1.961 . S
Li2 O62 1.956 . S
Li2 O63 1.970 . S
Li3 N53 1.990 . S
Li3 O61 1.961 . S
Li3 O62 1.970 . S
Li3 O63 1.956 . S
C4 C6 1.348 . S
C4 C7 1.356 . S
C4 O60 1.325 1_655 S
N5 C8 1.314 . S
N5 C9 1.279 . S
C6 C4 1.348 . S
C6 C8 1.353 . S
C6 H64 0.929 1_655 S
C7 C4 1.356 . S
C7 C9 1.358 . S
C7 H65 0.930 . S
C8 N5 1.314 . S
C8 C6 1.353 . S
C8 H66 0.930 . S
C9 N5 1.279 . S
C9 C7 1.358 . S
C9 H67 0.930 . S
C10 C13 1.348 . S
C10 C14 1.356 . S
C10 O61 1.325 . S
C11 N12 1.279 . S
C11 C14 1.358 . S
C11 H68 0.930 . S
N12 C11 1.279 . S
N12 C15 1.314 . S
C13 C10 1.348 . S
C13 C15 1.353 . S
C13 H69 0.929 . S
C14 C10 1.356 . S
C14 C11 1.358 . S
C14 H70 0.930 . S
C15 N12 1.314 . S
C15 C13 1.353 . S
C15 H71 0.930 . S
C16 N17 1.314 . S
C16 C21 1.353 . S
C16 H22 0.930 . S
N17 Li0 1.990 . S
N17 C16 1.314 . S
N17 C19 1.279 . S
C18 C19 1.358 . S
C18 C20 1.356 . S
C18 H72 0.930 . S
C19 N17 1.279 . S
C19 C18 1.358 . S
C19 H23 0.930 . S
C20 C18 1.356 . S
C20 C21 1.348 . S
C21 C16 1.353 . S
C21 C20 1.348 . S
C21 H73 0.929 . S
H22 C16 0.930 . S
H23 C19 0.930 . S
C24 N25 1.314 . S
C24 C26 1.353 . S
C24 H30 0.930 . S
N25 Li1 1.990 . S
N25 C24 1.314 . S
N25 C28 1.279 . S
C26 C24 1.353 . S
C26 C29 1.348 . S
C26 H74 0.929 . S
C27 C28 1.358 . S
C27 C29 1.356 . S
C27 H75 0.930 . S
C28 N25 1.279 . S
C28 C27 1.358 . S
C28 H31 0.930 . S
C29 C26 1.348 . S
C29 C27 1.356 . S
H30 C24 0.930 . S
H31 C28 0.930 . S
C32 C34 1.348 . S
C32 C35 1.356 . S
C32 O62 1.325 . S
N33 C36 1.314 . S
N33 C37 1.279 . S
C34 C32 1.348 . S
C34 C36 1.353 . S
C34 H76 0.929 . S
C35 C32 1.356 . S
C35 C37 1.358 . S
C35 H77 0.930 . S
C36 N33 1.314 . S
C36 C34 1.353 . S
C36 H78 0.930 . S
C37 N33 1.279 . S
C37 C35 1.358 . S
C37 H79 0.930 . S
C38 C39 1.348 . S
C38 C40 1.356 . S
C38 O63 1.325 . S
C39 C38 1.348 . S
C39 C41 1.353 . S
C39 H80 0.929 1_455 S
C40 C38 1.356 . S
C40 C42 1.358 . S
C40 H81 0.930 . S
C41 C39 1.353 . S
C41 N43 1.314 . S
C41 H82 0.930 1_455 S
C42 C40 1.358 . S
C42 N43 1.279 . S
C42 H83 0.930 . S
N43 C41 1.314 . S
N43 C42 1.279 . S
C44 C46 1.353 . S
C44 N47 1.314 . S
C44 H50 0.930 . S
C45 N47 1.279 . S
C45 C48 1.358 . S
C45 H51 0.930 . S
C46 C44 1.353 . S
C46 C49 1.348 . S
C46 H84 0.929 . S
N47 Li2 1.990 1_655 S
N47 C44 1.314 . S
N47 C45 1.279 . S
C48 C45 1.358 . S
C48 C49 1.356 . S
C48 H85 0.930 . S
C49 C46 1.348 . S
C49 C48 1.356 . S
H50 C44 0.930 . S
H51 C45 0.930 . S
C52 N53 1.314 . S
C52 C54 1.353 . S
C52 H58 0.930 . S
N53 Li3 1.990 . S
N53 C52 1.314 . S
N53 C56 1.279 . S
C54 C52 1.353 . S
C54 C57 1.348 . S
C54 H86 0.929 . S
C55 C56 1.358 . S
C55 C57 1.356 . S
C55 H87 0.930 . S
C56 N53 1.279 . S
C56 C55 1.358 . S
C56 H59 0.930 . S
C57 C54 1.348 . S
C57 C55 1.356 . S
H58 C52 0.930 . S
H59 C56 0.930 . S
O60 Li0 1.956 . S
O60 Li1 1.970 . S
O60 Li2 1.961 . S
O60 C4 1.325 1_455 S
O61 Li0 1.970 . S
O61 Li1 1.956 . S
O61 Li3 1.961 . S
O61 C10 1.325 . S
O62 Li0 1.961 . S
O62 Li2 1.956 . S
O62 Li3 1.970 . S
O62 C32 1.325 . S
O63 Li1 1.961 . S
O63 Li2 1.970 . S
O63 Li3 1.956 . S
O63 C38 1.325 . S
H64 C6 0.929 1_455 S
H65 C7 0.930 . S
H66 C8 0.930 . S
H67 C9 0.930 . S
H68 C11 0.930 . S
H69 C13 0.929 . S
H70 C14 0.930 . S
H71 C15 0.930 . S
H72 C18 0.930 . S
H73 C21 0.929 . S
H74 C26 0.929 . S
H75 C27 0.930 . S
H76 C34 0.929 . S
H77 C35 0.930 . S
H78 C36 0.930 . S
H79 C37 0.930 . S
H80 C39 0.929 1_655 S
H81 C40 0.930 . S
H82 C41 0.930 1_655 S
H83 C42 0.930 . S
H84 C46 0.929 . S
H85 C48 0.930 . S
H86 C54 0.929 . S
H87 C55 0.930 . S
Li88 N105 1.990 1_565 S
Li88 O148 1.956 . S
Li88 O149 1.970 . S
Li88 O150 1.961 . S
Li89 N113 1.990 . S
Li89 O148 1.970 . S
Li89 O149 1.956 . S
Li89 O151 1.961 . S
Li90 N135 1.990 . S
Li90 O148 1.961 . S
Li90 O150 1.956 . S
Li90 O151 1.970 . S
Li91 N141 1.990 . S
Li91 O149 1.961 . S
Li91 O150 1.970 . S
Li91 O151 1.956 . S
C92 C94 1.348 . S
C92 C95 1.356 . S
C92 O148 1.325 1_545 S
N93 C96 1.314 . S
N93 C97 1.279 . S
C94 C92 1.348 . S
C94 C96 1.353 . S
C94 H152 0.929 . S
C95 C92 1.356 . S
C95 C97 1.358 . S
C95 H153 0.930 . S
C96 N93 1.314 . S
C96 C94 1.353 . S
C96 H154 0.930 . S
C97 N93 1.279 . S
C97 C95 1.358 . S
C97 H155 0.930 . S
C98 C101 1.348 1_565 S
C98 C102 1.356 . S
C98 O149 1.325 . S
C99 N100 1.279 . S
C99 C102 1.358 . S
C99 H156 0.930 . S
N100 C99 1.279 . S
N100 C103 1.314 1_565 S
C101 C98 1.348 1_545 S
C101 C103 1.353 . S
C101 H157 0.929 . S
C102 C98 1.356 . S
C102 C99 1.358 . S
C102 H158 0.930 . S
C103 N100 1.314 1_545 S
C103 C101 1.353 . S
C103 H159 0.930 . S
C104 N105 1.314 . S
C104 C109 1.353 . S
C104 H110 0.930 . S
N105 Li88 1.990 1_545 S
N105 C104 1.314 . S
N105 C107 1.279 . S
C106 C107 1.358 . S
C106 C108 1.356 . S
C106 H160 0.930 . S
C107 N105 1.279 . S
C107 C106 1.358 . S
C107 H111 0.930 . S
C108 C106 1.356 . S
C108 C109 1.348 . S
C109 C104 1.353 . S
C109 C108 1.348 . S
C109 H161 0.929 . S
H110 C104 0.930 . S
H111 C107 0.930 . S
C112 N113 1.314 . S
C112 C114 1.353 . S
C112 H118 0.930 . S
N113 Li89 1.990 . S
N113 C112 1.314 . S
N113 C116 1.279 . S
C114 C112 1.353 . S
C114 C117 1.348 . S
C114 H162 0.929 . S
C115 C116 1.358 . S
C115 C117 1.356 . S
C115 H163 0.930 . S
C116 N113 1.279 . S
C116 C115 1.358 . S
C116 H119 0.930 . S
C117 C114 1.348 . S
C117 C115 1.356 . S
H118 C112 0.930 . S
H119 C116 0.930 . S
C120 C122 1.348 . S
C120 C123 1.356 . S
C120 O150 1.325 . S
N121 C124 1.314 . S
N121 C125 1.279 . S
C122 C120 1.348 . S
C122 C124 1.353 . S
C122 H164 0.929 . S
C123 C120 1.356 . S
C123 C125 1.358 . S
C123 H165 0.930 . S
C124 N121 1.314 . S
C124 C122 1.353 . S
C124 H166 0.930 . S
C125 N121 1.279 . S
C125 C123 1.358 . S
C125 H167 0.930 . S
C126 C127 1.348 . S
C126 C128 1.356 . S
C126 O151 1.325 . S
C127 C126 1.348 . S
C127 C129 1.353 . S
C127 H168 0.929 . S
C128 C126 1.356 . S
C128 C130 1.358 . S
C128 H169 0.930 . S
C129 C127 1.353 . S
C129 N131 1.314 . S
C129 H170 0.930 . S
C130 C128 1.358 . S
C130 N131 1.279 . S
C130 H171 0.930 . S
N131 C129 1.314 . S
N131 C130 1.279 . S
C132 C134 1.353 . S
C132 N135 1.314 . S
C132 H138 0.930 . S
C133 N135 1.279 . S
C133 C136 1.358 . S
C133 H139 0.930 . S
C134 C132 1.353 . S
C134 C137 1.348 . S
C134 H172 0.929 . S
N135 Li90 1.990 . S
N135 C132 1.314 . S
N135 C133 1.279 . S
C136 C133 1.358 . S
C136 C137 1.356 . S
C136 H173 0.930 . S
C137 C134 1.348 . S
C137 C136 1.356 . S
H138 C132 0.930 . S
H139 C133 0.930 . S
C140 N141 1.314 . S
C140 C142 1.353 . S
C140 H146 0.930 . S
N141 Li91 1.990 . S
N141 C140 1.314 . S
N141 C144 1.279 . S
C142 C140 1.353 . S
C142 C145 1.348 . S
C142 H174 0.929 . S
C143 C144 1.358 . S
C143 C145 1.356 . S
C143 H175 0.930 . S
C144 N141 1.279 . S
C144 C143 1.358 . S
C144 H147 0.930 . S
C145 C142 1.348 . S
C145 C143 1.356 . S
H146 C140 0.930 . S
H147 C144 0.930 . S
O148 Li88 1.956 . S
O148 Li89 1.970 . S
O148 Li90 1.961 . S
O148 C92 1.325 1_565 S
O149 Li88 1.970 . S
O149 Li89 1.956 . S
O149 Li91 1.961 . S
O149 C98 1.325 . S
O150 Li88 1.961 . S
O150 Li90 1.956 . S
O150 Li91 1.970 . S
O150 C120 1.325 . S
O151 Li89 1.961 . S
O151 Li90 1.970 . S
O151 Li91 1.956 . S
O151 C126 1.325 . S
H152 C94 0.929 . S
H153 C95 0.930 . S
H154 C96 0.930 . S
H155 C97 0.930 . S
H156 C99 0.930 . S
H157 C101 0.929 . S
H158 C102 0.930 . S
H159 C103 0.930 . S
H160 C106 0.930 . S
H161 C109 0.929 . S
H162 C114 0.929 . S
H163 C115 0.930 . S
H164 C122 0.929 . S
H165 C123 0.930 . S
H166 C124 0.930 . S
H167 C125 0.930 . S
H168 C127 0.929 . S
H169 C128 0.930 . S
H170 C129 0.930 . S
H171 C130 0.930 . S
H172 C134 0.929 . S
H173 C136 0.930 . S
H174 C142 0.929 . S
H175 C143 0.930 . S
Li176 N193 1.990 . S
Li176 O236 1.956 . S
Li176 O237 1.970 . S
Li176 O238 1.961 . S
Li177 N201 1.990 . S
Li177 O236 1.970 . S
Li177 O237 1.956 . S
Li177 O239 1.961 . S
Li178 N223 1.990 1_655 S
Li178 O236 1.961 . S
Li178 O238 1.956 . S
Li178 O239 1.970 . S
Li179 N229 1.990 . S
Li179 O237 1.961 . S
Li179 O238 1.970 . S
Li179 O239 1.956 . S
C180 C182 1.348 . S
C180 C183 1.356 . S
C180 O236 1.325 1_455 S
N181 C184 1.314 . S
N181 C185 1.279 . S
C182 C180 1.348 . S
C182 C184 1.353 . S
C182 H240 0.929 1_455 S
C183 C180 1.356 . S
C183 C185 1.358 . S
C183 H241 0.930 . S
C184 N181 1.314 . S
C184 C182 1.353 . S
C184 H242 0.930 . S
C185 N181 1.279 . S
C185 C183 1.358 . S
C185 H243 0.930 . S
C186 C189 1.348 . S
C186 C190 1.356 . S
C186 O237 1.325 . S
C187 N188 1.279 . S
C187 C190 1.358 . S
C187 H244 0.930 . S
N188 C187 1.279 . S
N188 C191 1.314 . S
C189 C186 1.348 . S
C189 C191 1.353 . S
C189 H245 0.929 . S
C190 C186 1.356 . S
C190 C187 1.358 . S
C190 H246 0.930 . S
C191 N188 1.314 . S
C191 C189 1.353 . S
C191 H247 0.930 . S
C192 N193 1.314 . S
C192 C197 1.353 . S
C192 H198 0.930 . S
N193 Li176 1.990 . S
N193 C192 1.314 . S
N193 C195 1.279 . S
C194 C195 1.358 . S
C194 C196 1.356 . S
C194 H248 0.930 . S
C195 N193 1.279 . S
C195 C194 1.358 . S
C195 H199 0.930 . S
C196 C194 1.356 . S
C196 C197 1.348 . S
C197 C192 1.353 . S
C197 C196 1.348 . S
C197 H249 0.929 . S
H198 C192 0.930 . S
H199 C195 0.930 . S
C200 N201 1.314 . S
C200 C202 1.353 . S
C200 H206 0.930 . S
N201 Li177 1.990 . S
N201 C200 1.314 . S
N201 C204 1.279 . S
C202 C200 1.353 . S
C202 C205 1.348 . S
C202 H250 0.929 . S
C203 C204 1.358 . S
C203 C205 1.356 . S
C203 H251 0.930 . S
C204 N201 1.279 . S
C204 C203 1.358 . S
C204 H207 0.930 . S
C205 C202 1.348 . S
C205 C203 1.356 . S
H206 C200 0.930 . S
H207 C204 0.930 . S
C208 C210 1.348 . S
C208 C211 1.356 . S
C208 O238 1.325 . S
N209 C212 1.314 . S
N209 C213 1.279 . S
C210 C208 1.348 . S
C210 C212 1.353 . S
C210 H252 0.929 . S
C211 C208 1.356 . S
C211 C213 1.358 . S
C211 H253 0.930 . S
C212 N209 1.314 . S
C212 C210 1.353 . S
C212 H254 0.930 . S
C213 N209 1.279 . S
C213 C211 1.358 . S
C213 H255 0.930 . S
C214 C215 1.348 . S
C214 C216 1.356 . S
C214 O239 1.325 . S
C215 C214 1.348 . S
C215 C217 1.353 . S
C215 H256 0.929 1_655 S
C216 C214 1.356 . S
C216 C218 1.358 . S
C216 H257 0.930 . S
C217 C215 1.353 . S
C217 N219 1.314 . S
C217 H258 0.930 1_655 S
C218 C216 1.358 . S
C218 N219 1.279 . S
C218 H259 0.930 . S
N219 C217 1.314 . S
N219 C218 1.279 . S
C220 C222 1.353 . S
C220 N223 1.314 . S
C220 H226 0.930 . S
C221 N223 1.279 . S
C221 C224 1.358 . S
C221 H227 0.930 . S
C222 C220 1.353 . S
C222 C225 1.348 . S
C222 H260 0.929 . S
N223 Li178 1.990 1_455 S
N223 C220 1.314 . S
N223 C221 1.279 . S
C224 C221 1.358 . S
C224 C225 1.356 . S
C224 H261 0.930 . S
C225 C222 1.348 . S
C225 C224 1.356 . S
H226 C220 0.930 . S
H227 C221 0.930 . S
C228 N229 1.314 . S
C228 C230 1.353 . S
C228 H234 0.930 . S
N229 Li179 1.990 . S
N229 C228 1.314 . S
N229 C232 1.279 . S
C230 C228 1.353 . S
C230 C233 1.348 . S
C230 H262 0.929 . S
C231 C232 1.358 . S
C231 C233 1.356 . S
C231 H263 0.930 . S
C232 N229 1.279 . S
C232 C231 1.358 . S
C232 H235 0.930 . S
C233 C230 1.348 . S
C233 C231 1.356 . S
H234 C228 0.930 . S
H235 C232 0.930 . S
O236 Li176 1.956 . S
O236 Li177 1.970 . S
O236 Li178 1.961 . S
O236 C180 1.325 1_655 S
O237 Li176 1.970 . S
O237 Li177 1.956 . S
O237 Li179 1.961 . S
O237 C186 1.325 . S
O238 Li176 1.961 . S
O238 Li178 1.956 . S
O238 Li179 1.970 . S
O238 C208 1.325 . S
O239 Li177 1.961 . S
O239 Li178 1.970 . S
O239 Li179 1.956 . S
O239 C214 1.325 . S
H240 C182 0.929 1_655 S
H241 C183 0.930 . S
H242 C184 0.930 . S
H243 C185 0.930 . S
H244 C187 0.930 . S
H245 C189 0.929 . S
H246 C190 0.930 . S
H247 C191 0.930 . S
H248 C194 0.930 . S
H249 C197 0.929 . S
H250 C202 0.929 . S
H251 C203 0.930 . S
H252 C210 0.929 . S
H253 C211 0.930 . S
H254 C212 0.930 . S
H255 C213 0.930 . S
H256 C215 0.929 1_455 S
H257 C216 0.930 . S
H258 C217 0.930 1_455 S
H259 C218 0.930 . S
H260 C222 0.929 . S
H261 C224 0.930 . S
H262 C230 0.929 . S
H263 C231 0.930 . S
Li264 N281 1.990 . S
Li264 O324 1.956 . S
Li264 O325 1.970 . S
Li264 O326 1.961 . S
Li265 N289 1.990 . S
Li265 O324 1.970 . S
Li265 O325 1.956 . S
Li265 O327 1.961 . S
Li266 N311 1.990 1_545 S
Li266 O324 1.961 . S
Li266 O326 1.956 . S
Li266 O327 1.970 . S
Li267 N317 1.990 . S
Li267 O325 1.961 . S
Li267 O326 1.970 . S
Li267 O327 1.956 . S
C268 C270 1.348 . S
C268 C271 1.356 . S
C268 O324 1.325 . S
N269 C272 1.314 . S
N269 C273 1.279 . S
C270 C268 1.348 . S
C270 C272 1.353 . S
C270 H328 0.929 . S
C271 C268 1.356 . S
C271 C273 1.358 . S
C271 H329 0.930 . S
C272 N269 1.314 . S
C272 C270 1.353 . S
C272 H330 0.930 . S
C273 N269 1.279 . S
C273 C271 1.358 . S
C273 H331 0.930 . S
C274 C277 1.348 . S
C274 C278 1.356 . S
C274 O325 1.325 . S
C275 N276 1.279 . S
C275 C278 1.358 . S
C275 H332 0.930 . S
N276 C275 1.279 . S
N276 C279 1.314 . S
C277 C274 1.348 . S
C277 C279 1.353 . S
C277 H333 0.929 . S
C278 C274 1.356 . S
C278 C275 1.358 . S
C278 H334 0.930 . S
C279 N276 1.314 . S
C279 C277 1.353 . S
C279 H335 0.930 . S
C280 N281 1.314 . S
C280 C285 1.353 . S
C280 H286 0.930 . S
N281 Li264 1.990 . S
N281 C280 1.314 . S
N281 C283 1.279 . S
C282 C283 1.358 . S
C282 C284 1.356 . S
C282 H336 0.930 . S
C283 N281 1.279 . S
C283 C282 1.358 . S
C283 H287 0.930 . S
C284 C282 1.356 . S
C284 C285 1.348 . S
C285 C280 1.353 . S
C285 C284 1.348 . S
C285 H337 0.929 . S
H286 C280 0.930 . S
H287 C283 0.930 . S
C288 N289 1.314 . S
C288 C290 1.353 . S
C288 H294 0.930 . S
N289 Li265 1.990 . S
N289 C288 1.314 . S
N289 C292 1.279 . S
C290 C288 1.353 . S
C290 C293 1.348 . S
C290 H338 0.929 . S
C291 C292 1.358 . S
C291 C293 1.356 . S
C291 H339 0.930 . S
C292 N289 1.279 . S
C292 C291 1.358 . S
C292 H295 0.930 . S
C293 C290 1.348 . S
C293 C291 1.356 . S
H294 C288 0.930 . S
H295 C292 0.930 . S
C296 C298 1.348 . S
C296 C299 1.356 . S
C296 O326 1.325 1_565 S
N297 C300 1.314 . S
N297 C301 1.279 . S
C298 C296 1.348 . S
C298 C300 1.353 . S
C298 H340 0.929 . S
C299 C296 1.356 . S
C299 C301 1.358 . S
C299 H341 0.930 . S
C300 N297 1.314 . S
C300 C298 1.353 . S
C300 H342 0.930 . S
C301 N297 1.279 . S
C301 C299 1.358 . S
C301 H343 0.930 . S
C302 C303 1.348 1_545 S
C302 C304 1.356 . S
C302 O327 1.325 . S
C303 C302 1.348 1_565 S
C303 C305 1.353 . S
C303 H344 0.929 . S
C304 C302 1.356 . S
C304 C306 1.358 . S
C304 H345 0.930 . S
C305 C303 1.353 . S
C305 N307 1.314 1_565 S
C305 H346 0.930 . S
C306 C304 1.358 . S
C306 N307 1.279 . S
C306 H347 0.930 . S
N307 C305 1.314 1_545 S
N307 C306 1.279 . S
C308 C310 1.353 . S
C308 N311 1.314 . S
C308 H314 0.930 . S
C309 N311 1.279 . S
C309 C312 1.358 . S
C309 H315 0.930 . S
C310 C308 1.353 . S
C310 C313 1.348 . S
C310 H348 0.929 . S
N311 Li266 1.990 1_565 S
N311 C308 1.314 . S
N311 C309 1.279 . S
C312 C309 1.358 . S
C312 C313 1.356 . S
C312 H349 0.930 . S
C313 C310 1.348 . S
C313 C312 1.356 . S
H314 C308 0.930 . S
H315 C309 0.930 . S
C316 N317 1.314 . S
C316 C318 1.353 . S
C316 H322 0.930 . S
N317 Li267 1.990 . S
N317 C316 1.314 . S
N317 C320 1.279 . S
C318 C316 1.353 . S
C318 C321 1.348 . S
C318 H350 0.929 . S
C319 C320 1.358 . S
C319 C321 1.356 . S
C319 H351 0.930 . S
C320 N317 1.279 . S
C320 C319 1.358 . S
C320 H323 0.930 . S
C321 C318 1.348 . S
C321 C319 1.356 . S
H322 C316 0.930 . S
H323 C320 0.930 . S
O324 Li264 1.956 . S
O324 Li265 1.970 . S
O324 Li266 1.961 . S
O324 C268 1.325 . S
O325 Li264 1.970 . S
O325 Li265 1.956 . S
O325 Li267 1.961 . S
O325 C274 1.325 . S
O326 Li264 1.961 . S
O326 Li266 1.956 . S
O326 Li267 1.970 . S
O326 C296 1.325 1_545 S
O327 Li265 1.961 . S
O327 Li266 1.970 . S
O327 Li267 1.956 . S
O327 C302 1.325 . S
H328 C270 0.929 . S
H329 C271 0.930 . S
H330 C272 0.930 . S
H331 C273 0.930 . S
H332 C275 0.930 . S
H333 C277 0.929 . S
H334 C278 0.930 . S
H335 C279 0.930 . S
H336 C282 0.930 . S
H337 C285 0.929 . S
H338 C290 0.929 . S
H339 C291 0.930 . S
H340 C298 0.929 . S
H341 C299 0.930 . S
H342 C300 0.930 . S
H343 C301 0.930 . S
H344 C303 0.929 . S
H345 C304 0.930 . S
H346 C305 0.930 . S
H347 C306 0.930 . S
H348 C310 0.929 . S
H349 C312 0.930 . S
H350 C318 0.929 . S
H351 C319 0.930 . S
Li352 N369 1.990 . S
Li352 O412 1.956 . S
Li352 O413 1.970 . S
Li352 O414 1.961 . S
Li353 N377 1.990 . S
Li353 O412 1.970 . S
Li353 O413 1.956 . S
Li353 O415 1.961 . S
Li354 N399 1.990 . S
Li354 O412 1.961 . S
Li354 O414 1.956 . S
Li354 O415 1.970 . S
Li355 N405 1.990 1_655 S
Li355 O413 1.961 . S
Li355 O414 1.970 . S
Li355 O415 1.956 . S
C356 C358 1.348 . S
C356 C359 1.356 . S
C356 O412 1.325 . S
N357 C360 1.314 . S
N357 C361 1.279 . S
C358 C356 1.348 . S
C358 C360 1.353 . S
C358 H416 0.929 . S
C359 C356 1.356 . S
C359 C361 1.358 . S
C359 H417 0.930 . S
C360 N357 1.314 . S
C360 C358 1.353 . S
C360 H418 0.930 . S
C361 N357 1.279 . S
C361 C359 1.358 . S
C361 H419 0.930 . S
C362 C365 1.348 . S
C362 C366 1.356 . S
C362 O413 1.325 . S
C363 N364 1.279 . S
C363 C366 1.358 . S
C363 H420 0.930 . S
N364 C363 1.279 . S
N364 C367 1.314 . S
C365 C362 1.348 . S
C365 C367 1.353 . S
C365 H421 0.929 . S
C366 C362 1.356 . S
C366 C363 1.358 . S
C366 H422 0.930 . S
C367 N364 1.314 . S
C367 C365 1.353 . S
C367 H423 0.930 . S
C368 N369 1.314 . S
C368 C373 1.353 . S
C368 H374 0.930 . S
N369 Li352 1.990 . S
N369 C368 1.314 . S
N369 C371 1.279 . S
C370 C371 1.358 . S
C370 C372 1.356 . S
C370 H424 0.930 . S
C371 N369 1.279 . S
C371 C370 1.358 . S
C371 H375 0.930 . S
C372 C370 1.356 . S
C372 C373 1.348 . S
C373 C368 1.353 . S
C373 C372 1.348 . S
C373 H425 0.929 . S
H374 C368 0.930 . S
H375 C371 0.930 . S
C376 N377 1.314 . S
C376 C378 1.353 . S
C376 H382 0.930 . S
N377 Li353 1.990 . S
N377 C376 1.314 . S
N377 C380 1.279 . S
C378 C376 1.353 . S
C378 C381 1.348 . S
C378 H426 0.929 . S
C379 C380 1.358 . S
C379 C381 1.356 . S
C379 H427 0.930 . S
C380 N377 1.279 . S
C380 C379 1.358 . S
C380 H383 0.930 . S
C381 C378 1.348 . S
C381 C379 1.356 . S
H382 C376 0.930 . S
H383 C380 0.930 . S
C384 C386 1.348 1_655 S
C384 C387 1.356 . S
C384 O414 1.325 . S
N385 C388 1.314 1_655 S
N385 C389 1.279 . S
C386 C384 1.348 1_455 S
C386 C388 1.353 . S
C386 H428 0.929 . S
C387 C384 1.356 . S
C387 C389 1.358 . S
C387 H429 0.930 . S
C388 N385 1.314 1_455 S
C388 C386 1.353 . S
C388 H430 0.930 . S
C389 N385 1.279 . S
C389 C387 1.358 . S
C389 H431 0.930 . S
C390 C391 1.348 . S
C390 C392 1.356 . S
C390 O415 1.325 1_455 S
C391 C390 1.348 . S
C391 C393 1.353 . S
C391 H432 0.929 . S
C392 C390 1.356 . S
C392 C394 1.358 . S
C392 H433 0.930 . S
C393 C391 1.353 . S
C393 N395 1.314 . S
C393 H434 0.930 . S
C394 C392 1.358 . S
C394 N395 1.279 . S
C394 H435 0.930 . S
N395 C393 1.314 . S
N395 C394 1.279 . S
C396 C398 1.353 . S
C396 N399 1.314 . S
C396 H402 0.930 . S
C397 N399 1.279 . S
C397 C400 1.358 . S
C397 H403 0.930 . S
C398 C396 1.353 . S
C398 C401 1.348 . S
C398 H436 0.929 . S
N399 Li354 1.990 . S
N399 C396 1.314 . S
N399 C397 1.279 . S
C400 C397 1.358 . S
C400 C401 1.356 . S
C400 H437 0.930 . S
C401 C398 1.348 . S
C401 C400 1.356 . S
H402 C396 0.930 . S
H403 C397 0.930 . S
C404 N405 1.314 . S
C404 C406 1.353 . S
C404 H410 0.930 . S
N405 Li355 1.990 1_455 S
N405 C404 1.314 . S
N405 C408 1.279 . S
C406 C404 1.353 . S
C406 C409 1.348 . S
C406 H438 0.929 . S
C407 C408 1.358 . S
C407 C409 1.356 . S
C407 H439 0.930 . S
C408 N405 1.279 . S
C408 C407 1.358 . S
C408 H411 0.930 . S
C409 C406 1.348 . S
C409 C407 1.356 . S
H410 C404 0.930 . S
H411 C408 0.930 . S
O412 Li352 1.956 . S
O412 Li353 1.970 . S
O412 Li354 1.961 . S
O412 C356 1.325 . S
O413 Li352 1.970 . S
O413 Li353 1.956 . S
O413 Li355 1.961 . S
O413 C362 1.325 . S
O414 Li352 1.961 . S
O414 Li354 1.956 . S
O414 Li355 1.970 . S
O414 C384 1.325 . S
O415 Li353 1.961 . S
O415 Li354 1.970 . S
O415 Li355 1.956 . S
O415 C390 1.325 1_655 S
H416 C358 0.929 . S
H417 C359 0.930 . S
H418 C360 0.930 . S
H419 C361 0.930 . S
H420 C363 0.930 . S
H421 C365 0.929 . S
H422 C366 0.930 . S
H423 C367 0.930 . S
H424 C370 0.930 . S
H425 C373 0.929 . S
H426 C378 0.929 . S
H427 C379 0.930 . S
H428 C386 0.929 . S
H429 C387 0.930 . S
H430 C388 0.930 . S
H431 C389 0.930 . S
H432 C391 0.929 . S
H433 C392 0.930 . S
H434 C393 0.930 . S
H435 C394 0.930 . S
H436 C398 0.929 . S
H437 C400 0.930 . S
H438 C406 0.929 . S
H439 C407 0.930 . S
Li440 N457 1.990 . S
Li440 O500 1.956 . S
Li440 O501 1.970 . S
Li440 O502 1.961 . S
Li441 N465 1.990 1_545 S
Li441 O500 1.970 . S
Li441 O501 1.956 . S
Li441 O503 1.961 . S
Li442 N487 1.990 . S
Li442 O500 1.961 . S
Li442 O502 1.956 . S
Li442 O503 1.970 . S
Li443 N493 1.990 . S
Li443 O501 1.961 . S
Li443 O502 1.970 . S
Li443 O503 1.956 . S
C444 C446 1.348 . S
C444 C447 1.356 . S
C444 O500 1.325 . S
N445 C448 1.314 . S
N445 C449 1.279 . S
C446 C444 1.348 . S
C446 C448 1.353 . S
C446 H504 0.929 1_545 S
C447 C444 1.356 . S
C447 C449 1.358 . S
C447 H505 0.930 . S
C448 N445 1.314 . S
C448 C446 1.353 . S
C448 H506 0.930 1_545 S
C449 N445 1.279 . S
C449 C447 1.358 . S
C449 H507 0.930 . S
C450 C453 1.348 . S
C450 C454 1.356 . S
C450 O501 1.325 . S
C451 N452 1.279 . S
C451 C454 1.358 . S
C451 H508 0.930 . S
N452 C451 1.279 . S
N452 C455 1.314 . S
C453 C450 1.348 . S
C453 C455 1.353 . S
C453 H509 0.929 . S
C454 C450 1.356 . S
C454 C451 1.358 . S
C454 H510 0.930 . S
C455 N452 1.314 . S
C455 C453 1.353 . S
C455 H511 0.930 . S
C456 N457 1.314 . S
C456 C461 1.353 . S
C456 H462 0.930 . S
N457 Li440 1.990 . S
N457 C456 1.314 . S
N457 C459 1.279 . S
C458 C459 1.358 . S
C458 C460 1.356 . S
C458 H512 0.930 . S
C459 N457 1.279 . S
C459 C458 1.358 . S
C459 H463 0.930 . S
C460 C458 1.356 . S
C460 C461 1.348 . S
C461 C456 1.353 . S
C461 C460 1.348 . S
C461 H513 0.929 . S
H462 C456 0.930 . S
H463 C459 0.930 . S
C464 N465 1.314 . S
C464 C466 1.353 . S
C464 H470 0.930 . S
N465 Li441 1.990 1_565 S
N465 C464 1.314 . S
N465 C468 1.279 . S
C466 C464 1.353 . S
C466 C469 1.348 . S
C466 H514 0.929 . S
C467 C468 1.358 . S
C467 C469 1.356 . S
C467 H515 0.930 . S
C468 N465 1.279 . S
C468 C467 1.358 . S
C468 H471 0.930 . S
C469 C466 1.348 . S
C469 C467 1.356 . S
H470 C464 0.930 . S
H471 C468 0.930 . S
C472 C474 1.348 . S
C472 C475 1.356 . S
C472 O502 1.325 . S
N473 C476 1.314 . S
N473 C477 1.279 . S
C474 C472 1.348 . S
C474 C476 1.353 . S
C474 H516 0.929 . S
C475 C472 1.356 . S
C475 C477 1.358 . S
C475 H517 0.930 . S
C476 N473 1.314 . S
C476 C474 1.353 . S
C476 H518 0.930 . S
C477 N473 1.279 . S
C477 C475 1.358 . S
C477 H519 0.930 . S
C478 C479 1.348 . S
C478 C480 1.356 . S
C478 O503 1.325 1_565 S
C479 C478 1.348 . S
C479 C481 1.353 . S
C479 H520 0.929 1_565 S
C480 C478 1.356 . S
C480 C482 1.358 . S
C480 H521 0.930 . S
C481 C479 1.353 . S
C481 N483 1.314 . S
C481 H522 0.930 . S
C482 C480 1.358 . S
C482 N483 1.279 . S
C482 H523 0.930 . S
N483 C481 1.314 . S
N483 C482 1.279 . S
C484 C486 1.353 . S
C484 N487 1.314 . S
C484 H490 0.930 . S
C485 N487 1.279 . S
C485 C488 1.358 . S
C485 H491 0.930 . S
C486 C484 1.353 . S
C486 C489 1.348 . S
C486 H524 0.929 . S
N487 Li442 1.990 . S
N487 C484 1.314 . S
N487 C485 1.279 . S
C488 C485 1.358 . S
C488 C489 1.356 . S
C488 H525 0.930 . S
C489 C486 1.348 . S
C489 C488 1.356 . S
H490 C484 0.930 . S
H491 C485 0.930 . S
C492 N493 1.314 . S
C492 C494 1.353 . S
C492 H498 0.930 . S
N493 Li443 1.990 . S
N493 C492 1.314 . S
N493 C496 1.279 . S
C494 C492 1.353 . S
C494 C497 1.348 . S
C494 H526 0.929 . S
C495 C496 1.358 . S
C495 C497 1.356 . S
C495 H527 0.930 . S
C496 N493 1.279 . S
C496 C495 1.358 . S
C496 H499 0.930 . S
C497 C494 1.348 . S
C497 C495 1.356 . S
H498 C492 0.930 . S
H499 C496 0.930 . S
O500 Li440 1.956 . S
O500 Li441 1.970 . S
O500 Li442 1.961 . S
O500 C444 1.325 . S
O501 Li440 1.970 . S
O501 Li441 1.956 . S
O501 Li443 1.961 . S
O501 C450 1.325 . S
O502 Li440 1.961 . S
O502 Li442 1.956 . S
O502 Li443 1.970 . S
O502 C472 1.325 . S
O503 Li441 1.961 . S
O503 Li442 1.970 . S
O503 Li443 1.956 . S
O503 C478 1.325 1_545 S
H504 C446 0.929 1_565 S
H505 C447 0.930 . S
H506 C448 0.930 1_565 S
H507 C449 0.930 . S
H508 C451 0.930 . S
H509 C453 0.929 . S
H510 C454 0.930 . S
H511 C455 0.930 . S
H512 C458 0.930 . S
H513 C461 0.929 . S
H514 C466 0.929 . S
H515 C467 0.930 . S
H516 C474 0.929 . S
H517 C475 0.930 . S
H518 C476 0.930 . S
H519 C477 0.930 . S
H520 C479 0.929 1_545 S
H521 C480 0.930 . S
H522 C481 0.930 . S
H523 C482 0.930 . S
H524 C486 0.929 . S
H525 C488 0.930 . S
H526 C494 0.929 . S
H527 C495 0.930 . S
Li528 N545 1.990 1_455 S
Li528 O588 1.956 . S
Li528 O589 1.970 . S
Li528 O590 1.961 . S
Li529 N553 1.990 . S
Li529 O588 1.970 . S
Li529 O589 1.956 . S
Li529 O591 1.961 . S
Li530 N575 1.990 . S
Li530 O588 1.961 . S
Li530 O590 1.956 . S
Li530 O591 1.970 . S
Li531 N581 1.990 . S
Li531 O589 1.961 . S
Li531 O590 1.970 . S
Li531 O591 1.956 . S
C532 C534 1.348 . S
C532 C535 1.356 . S
C532 O588 1.325 1_655 S
N533 C536 1.314 . S
N533 C537 1.279 . S
C534 C532 1.348 . S
C534 C536 1.353 . S
C534 H592 0.929 . S
C535 C532 1.356 . S
C535 C537 1.358 . S
C535 H593 0.930 . S
C536 N533 1.314 . S
C536 C534 1.353 . S
C536 H594 0.930 . S
C537 N533 1.279 . S
C537 C535 1.358 . S
C537 H595 0.930 . S
C538 C541 1.348 1_455 S
C538 C542 1.356 . S
C538 O589 1.325 . S
C539 N540 1.279 . S
C539 C542 1.358 . S
C539 H596 0.930 . S
N540 C539 1.279 . S
N540 C543 1.314 1_455 S
C541 C538 1.348 1_655 S
C541 C543 1.353 . S
C541 H597 0.929 . S
C542 C538 1.356 . S
C542 C539 1.358 . S
C542 H598 0.930 . S
C543 N540 1.314 1_655 S
C543 C541 1.353 . S
C543 H599 0.930 . S
C544 N545 1.314 . S
C544 C549 1.353 . S
C544 H550 0.930 . S
N545 Li528 1.990 1_655 S
N545 C544 1.314 . S
N545 C547 1.279 . S
C546 C547 1.358 . S
C546 C548 1.356 . S
C546 H600 0.930 . S
C547 N545 1.279 . S
C547 C546 1.358 . S
C547 H551 0.930 . S
C548 C546 1.356 . S
C548 C549 1.348 . S
C549 C544 1.353 . S
C549 C548 1.348 . S
C549 H601 0.929 . S
H550 C544 0.930 . S
H551 C547 0.930 . S
C552 N553 1.314 . S
C552 C554 1.353 . S
C552 H558 0.930 . S
N553 Li529 1.990 . S
N553 C552 1.314 . S
N553 C556 1.279 . S
C554 C552 1.353 . S
C554 C557 1.348 . S
C554 H602 0.929 . S
C555 C556 1.358 . S
C555 C557 1.356 . S
C555 H603 0.930 . S
C556 N553 1.279 . S
C556 C555 1.358 . S
C556 H559 0.930 . S
C557 C554 1.348 . S
C557 C555 1.356 . S
H558 C552 0.930 . S
H559 C556 0.930 . S
C560 C562 1.348 . S
C560 C563 1.356 . S
C560 O590 1.325 . S
N561 C564 1.314 . S
N561 C565 1.279 . S
C562 C560 1.348 . S
C562 C564 1.353 . S
C562 H604 0.929 . S
C563 C560 1.356 . S
C563 C565 1.358 . S
C563 H605 0.930 . S
C564 N561 1.314 . S
C564 C562 1.353 . S
C564 H606 0.930 . S
C565 N561 1.279 . S
C565 C563 1.358 . S
C565 H607 0.930 . S
C566 C567 1.348 . S
C566 C568 1.356 . S
C566 O591 1.325 . S
C567 C566 1.348 . S
C567 C569 1.353 . S
C567 H608 0.929 . S
C568 C566 1.356 . S
C568 C570 1.358 . S
C568 H609 0.930 . S
C569 C567 1.353 . S
C569 N571 1.314 . S
C569 H610 0.930 . S
C570 C568 1.358 . S
C570 N571 1.279 . S
C570 H611 0.930 . S
N571 C569 1.314 . S
N571 C570 1.279 . S
C572 C574 1.353 . S
C572 N575 1.314 . S
C572 H578 0.930 . S
C573 N575 1.279 . S
C573 C576 1.358 . S
C573 H579 0.930 . S
C574 C572 1.353 . S
C574 C577 1.348 . S
C574 H612 0.929 . S
N575 Li530 1.990 . S
N575 C572 1.314 . S
N575 C573 1.279 . S
C576 C573 1.358 . S
C576 C577 1.356 . S
C576 H613 0.930 . S
C577 C574 1.348 . S
C577 C576 1.356 . S
H578 C572 0.930 . S
H579 C573 0.930 . S
C580 N581 1.314 . S
C580 C582 1.353 . S
C580 H586 0.930 . S
N581 Li531 1.990 . S
N581 C580 1.314 . S
N581 C584 1.279 . S
C582 C580 1.353 . S
C582 C585 1.348 . S
C582 H614 0.929 . S
C583 C584 1.358 . S
C583 C585 1.356 . S
C583 H615 0.930 . S
C584 N581 1.279 . S
C584 C583 1.358 . S
C584 H587 0.930 . S
C585 C582 1.348 . S
C585 C583 1.356 . S
H586 C580 0.930 . S
H587 C584 0.930 . S
O588 Li528 1.956 . S
O588 Li529 1.970 . S
O588 Li530 1.961 . S
O588 C532 1.325 1_455 S
O589 Li528 1.970 . S
O589 Li529 1.956 . S
O589 Li531 1.961 . S
O589 C538 1.325 . S
O590 Li528 1.961 . S
O590 Li530 1.956 . S
O590 Li531 1.970 . S
O590 C560 1.325 . S
O591 Li529 1.961 . S
O591 Li530 1.970 . S
O591 Li531 1.956 . S
O591 C566 1.325 . S
H592 C534 0.929 . S
H593 C535 0.930 . S
H594 C536 0.930 . S
H595 C537 0.930 . S
H596 C539 0.930 . S
H597 C541 0.929 . S
H598 C542 0.930 . S
H599 C543 0.930 . S
H600 C546 0.930 . S
H601 C549 0.929 . S
H602 C554 0.929 . S
H603 C555 0.930 . S
H604 C562 0.929 . S
H605 C563 0.930 . S
H606 C564 0.930 . S
H607 C565 0.930 . S
H608 C567 0.929 . S
H609 C568 0.930 . S
H610 C569 0.930 . S
H611 C570 0.930 . S
H612 C574 0.929 . S
H613 C576 0.930 . S
H614 C582 0.929 . S
H615 C583 0.930 . S
Li616 N633 1.990 1_565 S
Li616 O676 1.956 . S
Li616 O677 1.970 . S
Li616 O678 1.961 . S
Li617 N641 1.990 . S
Li617 O676 1.970 . S
Li617 O677 1.956 . S
Li617 O679 1.961 . S
Li618 N663 1.990 . S
Li618 O676 1.961 . S
Li618 O678 1.956 . S
Li618 O679 1.970 . S
Li619 N669 1.990 . S
Li619 O677 1.961 . S
Li619 O678 1.970 . S
Li619 O679 1.956 . S
C620 C622 1.348 . S
C620 C623 1.356 . S
C620 O676 1.325 . S
N621 C624 1.314 . S
N621 C625 1.279 . S
C622 C620 1.348 . S
C622 C624 1.353 . S
C622 H680 0.929 . S
C623 C620 1.356 . S
C623 C625 1.358 . S
C623 H681 0.930 . S
C624 N621 1.314 . S
C624 C622 1.353 . S
C624 H682 0.930 . S
C625 N621 1.279 . S
C625 C623 1.358 . S
C625 H683 0.930 . S
C626 C629 1.348 . S
C626 C630 1.356 . S
C626 O677 1.325 . S
C627 N628 1.279 . S
C627 C630 1.358 . S
C627 H684 0.930 . S
N628 C627 1.279 . S
N628 C631 1.314 . S
C629 C626 1.348 . S
C629 C631 1.353 . S
C629 H685 0.929 1_565 S
C630 C626 1.356 . S
C630 C627 1.358 . S
C630 H686 0.930 . S
C631 N628 1.314 . S
C631 C629 1.353 . S
C631 H687 0.930 1_565 S
C632 N633 1.314 . S
C632 C637 1.353 . S
C632 H638 0.930 . S
N633 Li616 1.990 1_545 S
N633 C632 1.314 . S
N633 C635 1.279 . S
C634 C635 1.358 . S
C634 C636 1.356 . S
C634 H688 0.930 . S
C635 N633 1.279 . S
C635 C634 1.358 . S
C635 H639 0.930 . S
C636 C634 1.356 . S
C636 C637 1.348 . S
C637 C632 1.353 . S
C637 C636 1.348 . S
C637 H689 0.929 . S
H638 C632 0.930 . S
H639 C635 0.930 . S
C640 N641 1.314 . S
C640 C642 1.353 . S
C640 H646 0.930 . S
N641 Li617 1.990 . S
N641 C640 1.314 . S
N641 C644 1.279 . S
C642 C640 1.353 . S
C642 C645 1.348 . S
C642 H690 0.929 . S
C643 C644 1.358 . S
C643 C645 1.356 . S
C643 H691 0.930 . S
C644 N641 1.279 . S
C644 C643 1.358 . S
C644 H647 0.930 . S
C645 C642 1.348 . S
C645 C643 1.356 . S
H646 C640 0.930 . S
H647 C644 0.930 . S
C648 C650 1.348 . S
C648 C651 1.356 . S
C648 O678 1.325 1_545 S
N649 C652 1.314 . S
N649 C653 1.279 . S
C650 C648 1.348 . S
C650 C652 1.353 . S
C650 H692 0.929 1_545 S
C651 C648 1.356 . S
C651 C653 1.358 . S
C651 H693 0.930 . S
C652 N649 1.314 . S
C652 C650 1.353 . S
C652 H694 0.930 . S
C653 N649 1.279 . S
C653 C651 1.358 . S
C653 H695 0.930 . S
C654 C655 1.348 . S
C654 C656 1.356 . S
C654 O679 1.325 . S
C655 C654 1.348 . S
C655 C657 1.353 . S
C655 H696 0.929 . S
C656 C654 1.356 . S
C656 C658 1.358 . S
C656 H697 0.930 . S
C657 C655 1.353 . S
C657 N659 1.314 . S
C657 H698 0.930 . S
C658 C656 1.358 . S
C658 N659 1.279 . S
C658 H699 0.930 . S
N659 C657 1.314 . S
N659 C658 1.279 . S
C660 C662 1.353 . S
C660 N663 1.314 . S
C660 H666 0.930 . S
C661 N663 1.279 . S
C661 C664 1.358 . S
C661 H667 0.930 . S
C662 C660 1.353 . S
C662 C665 1.348 . S
C662 H700 0.929 . S
N663 Li618 1.990 . S
N663 C660 1.314 . S
N663 C661 1.279 . S
C664 C661 1.358 . S
C664 C665 1.356 . S
C664 H701 0.930 . S
C665 C662 1.348 . S
C665 C664 1.356 . S
H666 C660 0.930 . S
H667 C661 0.930 . S
C668 N669 1.314 . S
C668 C670 1.353 . S
C668 H674 0.930 . S
N669 Li619 1.990 . S
N669 C668 1.314 . S
N669 C672 1.279 . S
C670 C668 1.353 . S
C670 C673 1.348 . S
C670 H702 0.929 . S
C671 C672 1.358 . S
C671 C673 1.356 . S
C671 H703 0.930 . S
C672 N669 1.279 . S
C672 C671 1.358 . S
C672 H675 0.930 . S
C673 C670 1.348 . S
C673 C671 1.356 . S
H674 C668 0.930 . S
H675 C672 0.930 . S
O676 Li616 1.956 . S
O676 Li617 1.970 . S
O676 Li618 1.961 . S
O676 C620 1.325 . S
O677 Li616 1.970 . S
O677 Li617 1.956 . S
O677 Li619 1.961 . S
O677 C626 1.325 . S
O678 Li616 1.961 . S
O678 Li618 1.956 . S
O678 Li619 1.970 . S
O678 C648 1.325 1_565 S
O679 Li617 1.961 . S
O679 Li618 1.970 . S
O679 Li619 1.956 . S
O679 C654 1.325 . S
H680 C622 0.929 . S
H681 C623 0.930 . S
H682 C624 0.930 . S
H683 C625 0.930 . S
H684 C627 0.930 . S
H685 C629 0.929 1_545 S
H686 C630 0.930 . S
H687 C631 0.930 1_545 S
H688 C634 0.930 . S
H689 C637 0.929 . S
H690 C642 0.929 . S
H691 C643 0.930 . S
H692 C650 0.929 1_565 S
H693 C651 0.930 . S
H694 C652 0.930 . S
H695 C653 0.930 . S
H696 C655 0.929 . S
H697 C656 0.930 . S
H698 C657 0.930 . S
H699 C658 0.930 . S
H700 C662 0.929 . S
H701 C664 0.930 . S
H702 C670 0.929 . S
H703 C671 0.930 . S
H704 C716 0.930 . S
H705 C718 0.920 1_455 S
H706 C719 0.930 . S
H707 C723 0.959 . S
H708 C723 0.959 . S
H709 C723 0.961 . S
H710 C724 0.960 . S
H711 C724 0.961 . S
H712 C724 0.959 . S
H713 C727 0.929 . S
H714 C728 0.931 . S
H715 C730 0.930 1_655 S
C716 H704 0.930 . S
C716 C717 1.399 . S
C716 C721 1.399 . S
C717 C716 1.399 . S
C717 C718 1.405 . S
C718 H705 0.920 1_655 S
C718 C717 1.405 . S
C718 C719 1.370 1_655 S
C719 H706 0.930 . S
C719 C718 1.370 1_455 S
C719 C720 1.390 . S
C720 C719 1.390 . S
C720 C721 1.394 1_455 S
C720 C726 1.465 . S
C721 C716 1.399 . S
C721 C720 1.394 1_655 S
C721 C722 1.516 . S
C722 C721 1.516 . S
C722 C723 1.502 . S
C722 C724 1.561 . S
C722 C725 1.504 1_655 S
C723 H707 0.959 . S
C723 H708 0.959 . S
C723 H709 0.961 . S
C723 C722 1.502 . S
C724 H710 0.960 . S
C724 H711 0.961 . S
C724 H712 0.959 . S
C724 C722 1.561 . S
C725 C722 1.504 1_455 S
C725 C726 1.413 . S
C725 C730 1.396 . S
C726 C720 1.465 . S
C726 C725 1.413 . S
C726 C727 1.399 . S
C727 H713 0.929 . S
C727 C726 1.399 . S
C727 C728 1.385 . S
C728 H714 0.931 . S
C728 C727 1.385 . S
C728 C729 1.389 . S
C729 C728 1.389 . S
C729 C730 1.387 . S
C730 H715 0.930 1_455 S
C730 C725 1.396 . S
C730 C729 1.387 . S
H731 C743 0.930 . S
H732 C745 0.930 . S
H733 C746 0.930 . S
H734 C750 0.959 . S
H735 C750 0.959 . S
H736 C750 0.961 . S
H737 C751 0.960 . S
H738 C751 0.961 . S
H739 C751 0.959 . S
H740 C754 0.943 . S
H741 C755 0.931 . S
H742 C757 0.930 . S
C743 H731 0.930 . S
C743 C744 1.399 . S
C743 C748 1.399 . S
C744 C743 1.399 . S
C744 C745 1.376 . S
C745 H732 0.930 . S
C745 C744 1.376 . S
C745 C746 1.388 . S
C746 H733 0.930 . S
C746 C745 1.388 . S
C746 C747 1.390 . S
C747 C746 1.390 . S
C747 C748 1.394 . S
C747 C753 1.465 . S
C748 C743 1.399 . S
C748 C747 1.394 . S
C748 C749 1.516 1_545 S
C749 C748 1.516 1_565 S
C749 C750 1.502 . S
C749 C751 1.561 1_565 S
C749 C752 1.526 . S
C750 H734 0.959 . S
C750 H735 0.959 . S
C750 H736 0.961 . S
C750 C749 1.502 . S
C751 H737 0.960 . S
C751 H738 0.961 . S
C751 H739 0.959 . S
C751 C749 1.561 1_545 S
C752 C749 1.526 . S
C752 C753 1.396 1_565 S
C752 C757 1.390 . S
C753 C747 1.465 . S
C753 C752 1.396 1_545 S
C753 C754 1.399 . S
C754 H740 0.943 . S
C754 C753 1.399 . S
C754 C755 1.372 1_545 S
C755 H741 0.931 . S
C755 C754 1.372 1_565 S
C755 C756 1.389 . S
C756 C755 1.389 . S
C756 C757 1.387 . S
C757 H742 0.930 . S
C757 C752 1.390 . S
C757 C756 1.387 . S
H758 C770 0.930 . S
H759 C772 0.930 . S
H760 C773 0.918 1_455 S
H761 C777 0.959 . S
H762 C777 0.959 . S
H763 C777 0.961 . S
H764 C778 0.960 . S
H765 C778 0.961 . S
H766 C778 0.959 . S
H767 C781 0.929 . S
H768 C782 0.931 . S
H769 C784 0.930 . S
C770 H758 0.930 . S
C770 C771 1.399 . S
C770 C775 1.399 . S
C771 C770 1.399 . S
C771 C772 1.376 . S
C772 H759 0.930 . S
C772 C771 1.376 . S
C772 C773 1.403 . S
C773 H760 0.918 1_655 S
C773 C772 1.403 . S
C773 C774 1.389 1_655 S
C774 C773 1.389 1_455 S
C774 C775 1.384 1_455 S
C774 C780 1.474 . S
C775 C770 1.399 . S
C775 C774 1.384 1_655 S
C775 C776 1.516 . S
C776 C775 1.516 . S
C776 C777 1.502 . S
C776 C778 1.561 1_655 S
C776 C779 1.526 1_655 S
C777 H761 0.959 . S
C777 H762 0.959 . S
C777 H763 0.961 . S
C777 C776 1.502 . S
C778 H764 0.960 . S
C778 H765 0.961 . S
C778 H766 0.959 . S
C778 C776 1.561 1_455 S
C779 C776 1.526 1_455 S
C779 C780 1.396 . S
C779 C784 1.390 . S
C780 C774 1.474 . S
C780 C779 1.396 . S
C780 C781 1.399 . S
C781 H767 0.929 . S
C781 C780 1.399 . S
C781 C782 1.385 . S
C782 H768 0.931 . S
C782 C781 1.385 . S
C782 C783 1.389 . S
C783 C782 1.389 . S
C783 C784 1.387 . S
C784 H769 0.930 . S
C784 C779 1.390 . S
C784 C783 1.387 . S
H785 C797 0.930 . S
H786 C799 0.930 . S
H787 C800 0.930 . S
H788 C804 0.959 1_545 S
H789 C804 0.959 . S
H790 C804 0.961 . S
H791 C805 0.960 . S
H792 C805 0.961 . S
H793 C805 0.959 . S
H794 C808 0.929 . S
H795 C809 0.931 . S
H796 C811 0.930 . S
C797 H785 0.930 . S
C797 C798 1.399 . S
C797 C802 1.399 . S
C798 C797 1.399 . S
C798 C799 1.376 . S
C799 H786 0.930 . S
C799 C798 1.376 . S
C799 C800 1.388 . S
C800 H787 0.930 . S
C800 C799 1.388 . S
C800 C801 1.390 . S
C801 C800 1.390 . S
C801 C802 1.394 . S
C801 C807 1.457 1_545 S
C802 C797 1.399 . S
C802 C801 1.394 . S
C802 C803 1.516 1_545 S
C803 C802 1.516 1_565 S
C803 C804 1.502 . S
C803 C805 1.561 . S
C803 C806 1.526 . S
C804 H788 0.959 1_565 S
C804 H789 0.959 . S
C804 H790 0.961 . S
C804 C803 1.502 . S
C805 H791 0.960 . S
C805 H792 0.961 . S
C805 H793 0.959 . S
C805 C803 1.561 . S
C806 C803 1.526 . S
C806 C807 1.409 . S
C806 C811 1.390 . S
C807 C801 1.457 1_565 S
C807 C806 1.409 . S
C807 C808 1.396 1_565 S
C808 H794 0.929 . S
C808 C807 1.396 1_545 S
C808 C809 1.385 1_545 S
C809 H795 0.931 . S
C809 C808 1.385 1_565 S
C809 C810 1.389 . S
C810 C809 1.389 . S
C810 C811 1.387 . S
C811 H796 0.930 . S
C811 C806 1.390 . S
C811 C810 1.387 . S
H812 C824 0.930 . S
H813 C826 0.930 . S
H814 C827 0.930 . S
H815 C831 0.959 . S
H816 C831 0.959 . S
H817 C831 0.961 . S
H818 C832 0.960 . S
H819 C832 0.961 . S
H820 C832 0.959 . S
H821 C835 0.929 . S
H822 C836 0.931 . S
H823 C838 0.930 . S
C824 H812 0.930 . S
C824 C825 1.399 . S
C824 C829 1.399 . S
C825 C824 1.399 . S
C825 C826 1.376 . S
C826 H813 0.930 . S
C826 C825 1.376 . S
C826 C827 1.388 . S
C827 H814 0.930 . S
C827 C826 1.388 . S
C827 C828 1.390 . S
C828 C827 1.390 . S
C828 C829 1.394 . S
C828 C834 1.465 . S
C829 C824 1.399 . S
C829 C828 1.394 . S
C829 C830 1.516 . S
C830 C829 1.516 . S
C830 C831 1.502 . S
C830 C832 1.561 . S
C830 C833 1.526 . S
C831 H815 0.959 . S
C831 H816 0.959 . S
C831 H817 0.961 . S
C831 C830 1.502 . S
C832 H818 0.960 . S
C832 H819 0.961 . S
C832 H820 0.959 . S
C832 C830 1.561 . S
C833 C830 1.526 . S
C833 C834 1.396 . S
C833 C838 1.390 . S
C834 C828 1.465 . S
C834 C833 1.396 . S
C834 C835 1.399 . S
C835 H821 0.929 . S
C835 C834 1.399 . S
C835 C836 1.385 . S
C836 H822 0.931 . S
C836 C835 1.385 . S
C836 C837 1.389 . S
C837 C836 1.389 . S
C837 C838 1.387 . S
C838 H823 0.930 . S
C838 C833 1.390 . S
C838 C837 1.387 . S
H839 C851 0.930 . S
H840 C853 0.930 . S
H841 C854 0.930 . S
H842 C858 0.959 . S
H843 C858 0.959 . S
H844 C858 0.961 . S
H845 C859 0.960 . S
H846 C859 0.961 . S
H847 C859 0.959 . S
H848 C862 0.929 . S
H849 C863 0.931 . S
H850 C865 0.930 . S
C851 H839 0.930 . S
C851 C852 1.399 . S
C851 C856 1.399 . S
C852 C851 1.399 . S
C852 C853 1.376 . S
C853 H840 0.930 . S
C853 C852 1.376 . S
C853 C854 1.388 . S
C854 H841 0.930 . S
C854 C853 1.388 . S
C854 C855 1.390 . S
C855 C854 1.390 . S
C855 C856 1.394 . S
C855 C861 1.465 . S
C856 C851 1.399 . S
C856 C855 1.394 . S
C856 C857 1.516 . S
C857 C856 1.516 . S
C857 C858 1.502 . S
C857 C859 1.561 . S
C857 C860 1.526 . S
C858 H842 0.959 . S
C858 H843 0.959 . S
C858 H844 0.961 . S
C858 C857 1.502 . S
C859 H845 0.960 . S
C859 H846 0.961 . S
C859 H847 0.959 . S
C859 C857 1.561 . S
C860 C857 1.526 . S
C860 C861 1.396 . S
C860 C865 1.390 . S
C861 C855 1.465 . S
C861 C860 1.396 . S
C861 C862 1.399 . S
C862 H848 0.929 . S
C862 C861 1.399 . S
C862 C863 1.385 . S
C863 H849 0.931 . S
C863 C862 1.385 . S
C863 C864 1.389 . S
C864 C863 1.389 . S
C864 C865 1.387 . S
C865 H850 0.930 . S
C865 C860 1.390 . S
C865 C864 1.387 . S
H866 C878 0.930 . S
H867 C880 0.930 . S
H868 C881 0.930 . S
H869 C885 0.959 . S
H870 C885 0.959 . S
H871 C885 0.961 . S
H872 C886 0.960 . S
H873 C886 0.961 . S
H874 C886 0.959 . S
H875 C889 0.929 . S
H876 C890 0.931 . S
H877 C892 0.930 . S
C878 H866 0.930 . S
C878 C879 1.399 . S
C878 C883 1.399 . S
C879 C878 1.399 . S
C879 C880 1.376 . S
C880 H867 0.930 . S
C880 C879 1.376 . S
C880 C881 1.388 . S
C881 H868 0.930 . S
C881 C880 1.388 . S
C881 C882 1.390 . S
C882 C881 1.390 . S
C882 C883 1.394 . S
C882 C888 1.465 . S
C883 C878 1.399 . S
C883 C882 1.394 . S
C883 C884 1.516 . S
C884 C883 1.516 . S
C884 C885 1.502 . S
C884 C886 1.561 . S
C884 C887 1.526 . S
C885 H869 0.959 . S
C885 H870 0.959 . S
C885 H871 0.961 . S
C885 C884 1.502 . S
C886 H872 0.960 . S
C886 H873 0.961 . S
C886 H874 0.959 . S
C886 C884 1.561 . S
C887 C884 1.526 . S
C887 C888 1.396 . S
C887 C892 1.390 . S
C888 C882 1.465 . S
C888 C887 1.396 . S
C888 C889 1.399 . S
C889 H875 0.929 . S
C889 C888 1.399 . S
C889 C890 1.385 . S
C890 H876 0.931 . S
C890 C889 1.385 . S
C890 C891 1.389 . S
C891 C890 1.389 . S
C891 C892 1.387 . S
C892 H877 0.930 . S
C892 C887 1.390 . S
C892 C891 1.387 . S
H893 C905 0.930 . S
H894 C907 0.930 . S
H895 C908 0.930 . S
H896 C912 0.959 . S
H897 C912 0.959 . S
H898 C912 0.961 . S
H899 C913 0.960 . S
H900 C913 0.961 . S
H901 C913 0.959 . S
H902 C916 0.929 . S
H903 C917 0.931 . S
H904 C919 0.930 . S
C905 H893 0.930 . S
C905 C906 1.399 . S
C905 C910 1.399 . S
C906 C905 1.399 . S
C906 C907 1.376 . S
C907 H894 0.930 . S
C907 C906 1.376 . S
C907 C908 1.388 . S
C908 H895 0.930 . S
C908 C907 1.388 . S
C908 C909 1.390 . S
C909 C908 1.390 . S
C909 C910 1.394 . S
C909 C915 1.465 . S
C910 C905 1.399 . S
C910 C909 1.394 . S
C910 C911 1.516 . S
C911 C910 1.516 . S
C911 C912 1.502 . S
C911 C913 1.561 . S
C911 C914 1.526 . S
C912 H896 0.959 . S
C912 H897 0.959 . S
C912 H898 0.961 . S
C912 C911 1.502 . S
C913 H899 0.960 . S
C913 H900 0.961 . S
C913 H901 0.959 . S
C913 C911 1.561 . S
C914 C911 1.526 . S
C914 C915 1.396 . S
C914 C919 1.390 . S
C915 C909 1.465 . S
C915 C914 1.396 . S
C915 C916 1.399 . S
C916 H902 0.929 . S
C916 C915 1.399 . S
C916 C917 1.385 . S
C917 H903 0.931 . S
C917 C916 1.385 . S
C917 C918 1.389 . S
C918 C917 1.389 . S
C918 C919 1.387 . S
C919 H904 0.930 . S
C919 C914 1.390 . S
C919 C918 1.387 . S
H920 C932 0.930 . S
H921 C934 0.930 . S
H922 C935 0.930 . S
H923 C939 0.959 . S
H924 C939 0.959 . S
H925 C939 0.961 . S
H926 C940 0.960 . S
H927 C940 0.961 . S
H928 C940 0.959 . S
H929 C943 0.929 . S
H930 C944 0.931 . S
H931 C946 0.930 1_556 S
C932 H920 0.930 . S
C932 C933 1.399 . S
C932 C937 1.399 . S
C933 C932 1.399 . S
C933 C934 1.376 . S
C934 H921 0.930 . S
C934 C933 1.376 . S
C934 C935 1.388 . S
C935 H922 0.930 . S
C935 C934 1.388 . S
C935 C936 1.390 . S
C936 C935 1.390 . S
C936 C937 1.394 . S
C936 C942 1.465 . S
C937 C932 1.399 . S
C937 C936 1.394 . S
C937 C938 1.516 . S
C938 C937 1.516 . S
C938 C939 1.502 . S
C938 C940 1.561 . S
C938 C941 1.526 . S
C939 H923 0.959 . S
C939 H924 0.959 . S
C939 H925 0.961 . S
C939 C938 1.502 . S
C940 H926 0.960 . S
C940 H927 0.961 . S
C940 H928 0.959 . S
C940 C938 1.561 . S
C941 C938 1.526 . S
C941 C942 1.396 . S
C941 C946 1.390 1_556 S
C942 C936 1.465 . S
C942 C941 1.396 . S
C942 C943 1.399 1_556 S
C943 H929 0.929 . S
C943 C942 1.399 1_554 S
C943 C944 1.385 . S
C944 H930 0.931 . S
C944 C943 1.385 . S
C944 C945 1.389 . S
C945 C944 1.389 . S
C945 C946 1.387 . S
C946 H931 0.930 1_554 S
C946 C941 1.390 1_554 S
C946 C945 1.387 . S
H947 C959 0.919 1_554 S
H948 C961 0.930 . S
H949 C962 0.930 . S
H950 C966 0.959 . S
H951 C966 0.959 . S
H952 C966 0.961 . S
H953 C967 0.960 . S
H954 C967 0.961 . S
H955 C967 0.959 . S
H956 C970 0.929 . S
H957 C971 0.931 . S
H958 C973 0.930 . S
C959 H947 0.919 1_556 S
C959 C960 1.399 . S
C959 C964 1.399 1_556 S
C960 C959 1.399 . S
C960 C961 1.376 . S
C961 H948 0.930 . S
C961 C960 1.376 . S
C961 C962 1.388 . S
C962 H949 0.930 . S
C962 C961 1.388 . S
C962 C963 1.390 1_556 S
C963 C962 1.390 1_554 S
C963 C964 1.394 . S
C963 C969 1.465 . S
C964 C959 1.399 1_554 S
C964 C963 1.394 . S
C964 C965 1.516 . S
C965 C964 1.516 . S
C965 C966 1.502 . S
C965 C967 1.561 . S
C965 C968 1.526 . S
C966 H950 0.959 . S
C966 H951 0.959 . S
C966 H952 0.961 . S
C966 C965 1.502 . S
C967 H953 0.960 . S
C967 H954 0.961 . S
C967 H955 0.959 . S
C967 C965 1.561 . S
C968 C965 1.526 . S
C968 C969 1.396 . S
C968 C973 1.390 . S
C969 C963 1.465 . S
C969 C968 1.396 . S
C969 C970 1.399 . S
C970 H956 0.929 . S
C970 C969 1.399 . S
C970 C971 1.385 . S
C971 H957 0.931 . S
C971 C970 1.385 . S
C971 C972 1.389 . S
C972 C971 1.389 . S
C972 C973 1.387 . S
C973 H958 0.930 . S
C973 C968 1.390 . S
C973 C972 1.387 . S
H974 C986 0.930 . S
H975 C988 0.930 . S
H976 C989 0.930 . S
H977 C993 0.959 1_556 S
H978 C993 0.959 . S
H979 C993 0.961 . S
H980 C994 0.960 . S
H981 C994 0.961 . S
H982 C994 0.971 . S
H983 C997 0.929 . S
H984 C998 0.931 . S
H985 C1000 0.930 . S
C986 H974 0.930 . S
C986 C987 1.399 . S
C986 C991 1.399 . S
C987 C986 1.399 . S
C987 C988 1.376 . S
C988 H975 0.930 . S
C988 C987 1.376 . S
C988 C989 1.388 1_554 S
C989 H976 0.930 . S
C989 C988 1.388 1_556 S
C989 C990 1.390 . S
C990 C989 1.390 . S
C990 C991 1.394 1_556 S
C990 C996 1.465 . S
C991 C986 1.399 . S
C991 C990 1.394 1_554 S
C991 C992 1.516 1_554 S
C992 C991 1.516 1_556 S
C992 C993 1.502 1_556 S
C992 C994 1.561 1_556 S
C992 C995 1.526 . S
C993 H977 0.959 1_554 S
C993 H978 0.959 . S
C993 H979 0.961 . S
C993 C992 1.502 1_554 S
C994 H980 0.960 . S
C994 H981 0.961 . S
C994 H982 0.971 . S
C994 C992 1.561 1_554 S
C995 C992 1.526 . S
C995 C996 1.396 . S
C995 C1000 1.390 . S
C996 C990 1.465 . S
C996 C995 1.396 . S
C996 C997 1.399 . S
C997 H983 0.929 . S
C997 C996 1.399 . S
C997 C998 1.385 . S
C998 H984 0.931 . S
C998 C997 1.385 . S
C998 C999 1.389 . S
C999 C998 1.389 . S
C999 C1000 1.387 . S
C1000 H985 0.930 . S
C1000 C995 1.390 . S
C1000 C999 1.387 . S
H1001 C1013 0.930 1_554 S
H1002 C1015 0.930 . S
H1003 C1016 0.930 . S
H1004 C1020 0.959 . S
H1005 C1020 0.959 . S
H1006 C1020 0.961 . S
H1007 C1021 0.960 . S
H1008 C1021 0.961 . S
H1009 C1021 0.959 . S
H1010 C1024 0.929 . S
H1011 C1025 0.931 . S
H1012 C1027 0.930 . S
C1013 H1001 0.930 1_556 S
C1013 C1014 1.399 . S
C1013 C1018 1.399 1_556 S
C1014 C1013 1.399 . S
C1014 C1015 1.376 . S
C1015 H1002 0.930 . S
C1015 C1014 1.376 . S
C1015 C1016 1.388 . S
C1016 H1003 0.930 . S
C1016 C1015 1.388 . S
C1016 C1017 1.390 1_556 S
C1017 C1016 1.390 1_554 S
C1017 C1018 1.394 . S
C1017 C1023 1.465 . S
C1018 C1013 1.399 1_554 S
C1018 C1017 1.394 . S
C1018 C1019 1.516 . S
C1019 C1018 1.516 . S
C1019 C1020 1.502 . S
C1019 C1021 1.561 . S
C1019 C1022 1.526 . S
C1020 H1004 0.959 . S
C1020 H1005 0.959 . S
C1020 H1006 0.961 . S
C1020 C1019 1.502 . S
C1021 H1007 0.960 . S
C1021 H1008 0.961 . S
C1021 H1009 0.959 . S
C1021 C1019 1.561 . S
C1022 C1019 1.526 . S
C1022 C1023 1.396 . S
C1022 C1027 1.390 . S
C1023 C1017 1.465 . S
C1023 C1022 1.396 . S
C1023 C1024 1.399 . S
C1024 H1010 0.929 . S
C1024 C1023 1.399 . S
C1024 C1025 1.385 . S
C1025 H1011 0.931 . S
C1025 C1024 1.385 . S
C1025 C1026 1.389 . S
C1026 C1025 1.389 . S
C1026 C1027 1.387 . S
C1027 H1012 0.930 . S
C1027 C1022 1.390 . S
C1027 C1026 1.387 . S
H1028 C1040 0.930 . S
H1029 C1042 0.930 . S
H1030 C1043 0.930 . S
H1031 C1047 0.959 . S
H1032 C1047 0.959 . S
H1033 C1047 0.961 . S
H1034 C1048 0.960 . S
H1035 C1048 0.961 . S
H1036 C1048 0.959 . S
H1037 C1051 0.929 . S
H1038 C1052 0.931 . S
H1039 C1054 0.930 . S
C1040 H1028 0.930 . S
C1040 C1041 1.399 . S
C1040 C1045 1.399 . S
C1041 C1040 1.399 . S
C1041 C1042 1.376 . S
C1042 H1029 0.930 . S
C1042 C1041 1.376 . S
C1042 C1043 1.388 . S
C1043 H1030 0.930 . S
C1043 C1042 1.388 . S
C1043 C1044 1.390 . S
C1044 C1043 1.390 . S
C1044 C1045 1.394 . S
C1044 C1050 1.465 . S
C1045 C1040 1.399 . S
C1045 C1044 1.394 . S
C1045 C1046 1.516 . S
C1046 C1045 1.516 . S
C1046 C1047 1.502 . S
C1046 C1048 1.561 . S
C1046 C1049 1.526 . S
C1047 H1031 0.959 . S
C1047 H1032 0.959 . S
C1047 H1033 0.961 . S
C1047 C1046 1.502 . S
C1048 H1034 0.960 . S
C1048 H1035 0.961 . S
C1048 H1036 0.959 . S
C1048 C1046 1.561 . S
C1049 C1046 1.526 . S
C1049 C1050 1.396 . S
C1049 C1054 1.390 . S
C1050 C1044 1.465 . S
C1050 C1049 1.396 . S
C1050 C1051 1.399 . S
C1051 H1037 0.929 . S
C1051 C1050 1.399 . S
C1051 C1052 1.385 . S
C1052 H1038 0.931 . S
C1052 C1051 1.385 . S
C1052 C1053 1.389 . S
C1053 C1052 1.389 . S
C1053 C1054 1.387 . S
C1054 H1039 0.930 . S
C1054 C1049 1.390 . S
C1054 C1053 1.387 . S
H1055 C1067 0.930 . S
H1056 C1069 0.930 . S
H1057 C1070 0.930 . S
H1058 C1074 0.959 . S
H1059 C1074 0.959 . S
H1060 C1074 0.961 . S
H1061 C1075 0.960 . S
H1062 C1075 0.961 . S
H1063 C1075 0.959 . S
H1064 C1078 0.929 . S
H1065 C1079 0.931 . S
H1066 C1081 0.930 . S
C1067 H1055 0.930 . S
C1067 C1068 1.399 . S
C1067 C1072 1.399 . S
C1068 C1067 1.399 . S
C1068 C1069 1.376 . S
C1069 H1056 0.930 . S
C1069 C1068 1.376 . S
C1069 C1070 1.388 . S
C1070 H1057 0.930 . S
C1070 C1069 1.388 . S
C1070 C1071 1.390 . S
C1071 C1070 1.390 . S
C1071 C1072 1.394 . S
C1071 C1077 1.465 . S
C1072 C1067 1.399 . S
C1072 C1071 1.394 . S
C1072 C1073 1.516 . S
C1073 C1072 1.516 . S
C1073 C1074 1.502 . S
C1073 C1075 1.561 . S
C1073 C1076 1.526 . S
C1074 H1058 0.959 . S
C1074 H1059 0.959 . S
C1074 H1060 0.961 . S
C1074 C1073 1.502 . S
C1075 H1061 0.960 . S
C1075 H1062 0.961 . S
C1075 H1063 0.959 . S
C1075 C1073 1.561 . S
C1076 C1073 1.526 . S
C1076 C1077 1.396 . S
C1076 C1081 1.390 . S
C1077 C1071 1.465 . S
C1077 C1076 1.396 . S
C1077 C1078 1.399 . S
C1078 H1064 0.929 . S
C1078 C1077 1.399 . S
C1078 C1079 1.385 . S
C1079 H1065 0.931 . S
C1079 C1078 1.385 . S
C1079 C1080 1.389 . S
C1080 C1079 1.389 . S
C1080 C1081 1.387 . S
C1081 H1066 0.930 . S
C1081 C1076 1.390 . S
C1081 C1080 1.387 . S
H1082 C1094 0.930 . S
H1083 C1096 0.930 . S
H1084 C1097 0.930 . S
H1085 C1101 0.959 . S
H1086 C1101 0.959 . S
H1087 C1101 0.961 . S
H1088 C1102 0.960 . S
H1089 C1102 0.961 . S
H1090 C1102 0.959 . S
H1091 C1105 0.929 . S
H1092 C1106 0.931 . S
H1093 C1108 0.930 . S
C1094 H1082 0.930 . S
C1094 C1095 1.399 . S
C1094 C1099 1.399 . S
C1095 C1094 1.399 . S
C1095 C1096 1.376 . S
C1096 H1083 0.930 . S
C1096 C1095 1.376 . S
C1096 C1097 1.388 . S
C1097 H1084 0.930 . S
C1097 C1096 1.388 . S
C1097 C1098 1.390 . S
C1098 C1097 1.390 . S
C1098 C1099 1.394 . S
C1098 C1104 1.465 . S
C1099 C1094 1.399 . S
C1099 C1098 1.394 . S
C1099 C1100 1.516 . S
C1100 C1099 1.516 . S
C1100 C1101 1.502 . S
C1100 C1102 1.561 . S
C1100 C1103 1.526 . S
C1101 H1085 0.959 . S
C1101 H1086 0.959 . S
C1101 H1087 0.961 . S
C1101 C1100 1.502 . S
C1102 H1088 0.960 . S
C1102 H1089 0.961 . S
C1102 H1090 0.959 . S
C1102 C1100 1.561 . S
C1103 C1100 1.526 . S
C1103 C1104 1.396 . S
C1103 C1108 1.390 . S
C1104 C1098 1.465 . S
C1104 C1103 1.396 . S
C1104 C1105 1.399 . S
C1105 H1091 0.929 . S
C1105 C1104 1.399 . S
C1105 C1106 1.385 . S
C1106 H1092 0.931 . S
C1106 C1105 1.385 . S
C1106 C1107 1.389 . S
C1107 C1106 1.389 . S
C1107 C1108 1.387 . S
C1108 H1093 0.930 . S
C1108 C1103 1.390 . S
C1108 C1107 1.387 . S
H1109 C1121 0.930 . S
H1110 C1123 0.930 . S
H1111 C1124 0.930 . S
H1112 C1128 0.959 . S
H1113 C1128 0.959 . S
H1114 C1128 0.961 . S
H1115 C1129 0.960 . S
H1116 C1129 0.961 . S
H1117 C1129 0.959 . S
H1118 C1132 0.929 . S
H1119 C1133 0.931 . S
H1120 C1135 0.930 . S
C1121 H1109 0.930 . S
C1121 C1122 1.399 . S
C1121 C1126 1.399 . S
C1122 C1121 1.399 . S
C1122 C1123 1.376 . S
C1123 H1110 0.930 . S
C1123 C1122 1.376 . S
C1123 C1124 1.388 . S
C1124 H1111 0.930 . S
C1124 C1123 1.388 . S
C1124 C1125 1.390 . S
C1125 C1124 1.390 . S
C1125 C1126 1.394 . S
C1125 C1131 1.465 . S
C1126 C1121 1.399 . S
C1126 C1125 1.394 . S
C1126 C1127 1.516 . S
C1127 C1126 1.516 . S
C1127 C1128 1.502 . S
C1127 C1129 1.561 . S
C1127 C1130 1.526 . S
C1128 H1112 0.959 . S
C1128 H1113 0.959 . S
C1128 H1114 0.961 . S
C1128 C1127 1.502 . S
C1129 H1115 0.960 . S
C1129 H1116 0.961 . S
C1129 H1117 0.959 . S
C1129 C1127 1.561 . S
C1130 C1127 1.526 . S
C1130 C1131 1.396 . S
C1130 C1135 1.390 . S
C1131 C1125 1.465 . S
C1131 C1130 1.396 . S
C1131 C1132 1.399 . S
C1132 H1118 0.929 . S
C1132 C1131 1.399 . S
C1132 C1133 1.385 . S
C1133 H1119 0.931 . S
C1133 C1132 1.385 . S
C1133 C1134 1.389 . S
C1134 C1133 1.389 . S
C1134 C1135 1.387 . S
C1135 H1120 0.930 . S
C1135 C1130 1.390 . S
C1135 C1134 1.387 . S
C717 C205 1.103 . S
C729 C29 1.168 . S
C744 C321 1.153 . S
C756 C117 1.111 . S
C771 C401 1.101 . S
C783 C557 1.140 . S
C798 C489 1.144 . S
C810 C673 1.121 . S
C825 C108 0.665 . S
C837 C57 0.718 . S
C852 C145 0.687 . S
C864 C225 0.783 . S
C879 C313 0.777 . S
C891 C233 0.646 . S
C906 C293 0.675 . S
C918 C49 0.776 . S
C933 C636 0.662 . S
C945 C372 0.763 . S
C960 C460 0.795 . S
C972 C409 0.658 . S
C987 C585 0.760 . S
C999 C469 0.795 . S
C1014 C645 0.772 . S
C1026 C548 0.649 . S
C1041 C20 2.092 . S
C1053 C497 2.128 . S
C1068 C577 2.130 . S
C1080 C137 2.080 . S
C1095 C196 2.116 . S
C1107 C665 2.108 . S
C1122 C284 2.078 . S
C1134 C381 2.134 . S
