# Generated by pormake.
# Topology qtz-e, (6)-cn, num edge types: 1
# Building blocks:
#     Node 0, Type 0, BuildingBlock: BETGAK_clean_sbu_0, # of connection points: 6
#     Node 1, Type 0, BuildingBlock: BETGAK_clean_sbu_0, # of connection points: 6
#     Node 2, Type 0, BuildingBlock: BETGAK_clean_sbu_0, # of connection points: 6
#     Node 3, Type 0, BuildingBlock: BETGAK_clean_sbu_0, # of connection points: 6
#     Node 4, Type 0, BuildingBlock: BETGAK_clean_sbu_0, # of connection points: 6
#     Node 5, Type 0, BuildingBlock: BETGAK_clean_sbu_0, # of connection points: 6
#     Edge 6, Type (0, 0), BuildingBlock: ZUJKAS_clean_linker_0, # of connection points: 2
#     Edge 7, Type (0, 0), BuildingBlock: ZUJKAS_clean_linker_0, # of connection points: 2
#     Edge 8, Type (0, 0), BuildingBlock: ZUJKAS_clean_linker_0, # of connection points: 2
#     Edge 9, Type (0, 0), BuildingBlock: ZUJKAS_clean_linker_0, # of connection points: 2
#     Edge 10, Type (0, 0), BuildingBlock: ZUJKAS_clean_linker_0, # of connection points: 2
#     Edge 11, Type (0, 0), BuildingBlock: ZUJKAS_clean_linker_0, # of connection points: 2
#     Edge 12, Type (0, 0), BuildingBlock: ZUJKAS_clean_linker_0, # of connection points: 2
#     Edge 13, Type (0, 0), BuildingBlock: ZUJKAS_clean_linker_0, # of connection points: 2
#     Edge 14, Type (0, 0), BuildingBlock: ZUJKAS_clean_linker_0, # of connection points: 2
#     Edge 15, Type (0, 0), BuildingBlock: ZUJKAS_clean_linker_0, # of connection points: 2
#     Edge 16, Type (0, 0), BuildingBlock: ZUJKAS_clean_linker_0, # of connection points: 2
#     Edge 17, Type (0, 0), BuildingBlock: ZUJKAS_clean_linker_0, # of connection points: 2
#     Edge 18, Type (0, 0), BuildingBlock: ZUJKAS_clean_linker_0, # of connection points: 2
#     Edge 19, Type (0, 0), BuildingBlock: ZUJKAS_clean_linker_0, # of connection points: 2
#     Edge 20, Type (0, 0), BuildingBlock: ZUJKAS_clean_linker_0, # of connection points: 2
#     Edge 21, Type (0, 0), BuildingBlock: ZUJKAS_clean_linker_0, # of connection points: 2
#     Edge 22, Type (0, 0), BuildingBlock: ZUJKAS_clean_linker_0, # of connection points: 2
#     Edge 23, Type (0, 0), BuildingBlock: ZUJKAS_clean_linker_0, # of connection points: 2
# Relax obj value: 0.168
# Max RMSD: 0.200
# Mean RMSD: 0.200
data_MOF--net-qtz-e--node1-BETGAK_clean_sbu_0--edge1-ZUJKAS_clean_linker_0
_symmetry_space_group_name_H-M    P1
_symmetry_Int_Tables_number       1
_symmetry_cell_setting            triclinic
loop_
_symmetry_equiv_pos_as_xyz
'x, y, z'
_cell_length_a     32.792921
_cell_length_b     32.752746
_cell_length_c     63.501511
_cell_angle_alpha  89.908931
_cell_angle_beta   89.991374
_cell_angle_gamma 119.97191
loop_
_atom_site_label
_atom_site_type_symbol
_atom_site_fract_x
_atom_site_fract_y
_atom_site_fract_z
_atom_type_partial_charge
La0 La 0.19997 0.46345 0.15896 0.0
La1 La 0.15366 0.36867 0.13607 0.0
C2 C 0.20943 0.5341 0.17877 0.0
C3 C 0.20515 0.54381 0.20092 0.0
C4 C 0.20699 0.51526 0.21697 0.0
C5 C 0.20288 0.52491 0.23804 0.0
C6 C 0.19642 0.56297 0.24331 0.0
C7 C 0.19389 0.59098 0.22712 0.0
C8 C 0.1983 0.58147 0.20608 0.0
C9 C 0.24797 0.41974 0.16137 0.0
C10 C 0.12258 0.36821 0.18255 0.0
C11 C 0.13937 0.29921 0.11359 0.0
C12 C 0.15238 0.29272 0.09194 0.0
C13 C 0.11678 0.26486 0.07754 0.0
C14 C 0.12797 0.25816 0.05702 0.0
C15 C 0.17518 0.27906 0.05036 0.0
C16 C 0.21083 0.30717 0.06481 0.0
C17 C 0.19959 0.31383 0.08534 0.0
C18 C 0.11141 0.41909 0.13366 0.0
C19 C 0.23346 0.46287 0.11328 0.0
O20 O 0.24448 0.52718 0.17422 0.0
O21 O 0.17014 0.50327 0.1697 0.0
O22 O 0.26619 0.46494 0.16301 0.0
O23 O 0.20352 0.39997 0.16099 0.0
O24 O 0.1477 0.41495 0.1818 0.0
O25 O 0.12304 0.34145 0.16699 0.0
O26 O 0.10992 0.31507 0.11497 0.0
O27 O 0.17317 0.31875 0.12756 0.0
O28 O 0.08874 0.37337 0.13435 0.0
O29 O 0.15453 0.43349 0.13316 0.0
O30 O 0.20956 0.41624 0.1144 0.0
O31 O 0.22921 0.48952 0.12778 0.0
H32 H 0.21169 0.48561 0.2132 0.0
H33 H 0.20445 0.50248 0.25018 0.0
H34 H 0.18943 0.62082 0.23075 0.0
H35 H 0.19655 0.60364 0.19384 0.0
H36 H 0.08011 0.24825 0.08216 0.0
H37 H 0.09948 0.23688 0.0463 0.0
H38 H 0.24758 0.32337 0.0604 0.0
H39 H 0.22797 0.33528 0.09601 0.0
La40 La 0.79734 0.26913 0.40096 0.0
La41 La 0.83852 0.21271 0.42221 0.0
C42 C 0.78524 0.32862 0.38091 0.0
C43 C 0.79489 0.34895 0.35966 0.0
C44 C 0.76659 0.36608 0.3516 0.0
C45 C 0.77213 0.38188 0.33082 0.0
C46 C 0.80596 0.38053 0.31768 0.0
C47 C 0.83493 0.36407 0.32593 0.0
C48 C 0.8296 0.34864 0.34684 0.0
C49 C 0.73693 0.18053 0.40875 0.0
C50 C 0.85563 0.2316 0.37395 0.0
C51 C 0.84593 0.15282 0.4445 0.0
C52 C 0.82826 0.13059 0.46536 0.0
C53 C 0.85675 0.11999 0.47804 0.0
C54 C 0.84194 0.10088 0.49821 0.0
C55 C 0.79827 0.09211 0.50628 0.0
C56 C 0.76963 0.10265 0.49346 0.0
C57 C 0.78433 0.12141 0.47317 0.0
C58 C 0.89613 0.30364 0.41666 0.0
C59 C 0.78214 0.252 0.44908 0.0
O60 O 0.75395 0.28371 0.38195 0.0
O61 O 0.82167 0.33985 0.39303 0.0
O62 O 0.72649 0.21378 0.40795 0.0
O63 O 0.77925 0.19686 0.40306 0.0
O64 O 0.83693 0.25928 0.37558 0.0
O65 O 0.85662 0.20584 0.3899 0.0
O66 O 0.87649 0.198 0.44471 0.0
O67 O 0.81485 0.14164 0.42942 0.0
O68 O 0.91014 0.27293 0.41759 0.0
O69 O 0.8534 0.28357 0.42145 0.0
O70 O 0.79695 0.22122 0.44708 0.0
O71 O 0.785 0.28021 0.4335 0.0
H72 H 0.73943 0.36627 0.36126 0.0
H73 H 0.74888 0.39377 0.32485 0.0
H74 H 0.86155 0.36302 0.31622 0.0
H75 H 0.85205 0.33588 0.35289 0.0
H76 H 0.89085 0.127 0.47242 0.0
H77 H 0.86529 0.09394 0.50768 0.0
H78 H 0.73571 0.09615 0.49906 0.0
H79 H 0.76155 0.12914 0.46369 0.0
La80 La 0.53829 0.7302 0.82618 0.0
La81 La 0.63321 0.79912 0.80535 0.0
C82 C 0.47349 0.65945 0.8445 0.0
C83 C 0.46055 0.64554 0.86667 0.0
C84 C 0.41677 0.63739 0.87404 0.0
C85 C 0.40451 0.62664 0.89519 0.0
C86 C 0.43567 0.62341 0.90937 0.0
C87 C 0.4792 0.63075 0.90195 0.0
C88 C 0.49166 0.64192 0.88079 0.0
C89 C 0.56019 0.81886 0.82753 0.0
C90 C 0.63538 0.77105 0.85236 0.0
C91 C 0.69709 0.86573 0.78411 0.0
C92 C 0.70084 0.88482 0.76252 0.0
C93 C 0.73801 0.89095 0.74946 0.0
C94 C 0.74158 0.90711 0.72874 0.0
C95 C 0.70792 0.91747 0.72045 0.0
C96 C 0.67094 0.91188 0.73368 0.0
C97 C 0.66752 0.89588 0.75449 0.0
C98 C 0.60419 0.70805 0.80286 0.0
C99 C 0.53598 0.76171 0.78031 0.0
O100 O 0.46948 0.69533 0.83811 0.0
O101 O 0.5121 0.66138 0.83753 0.0
O102 O 0.51791 0.78331 0.82952 0.0
O103 O 0.58868 0.8035 0.82849 0.0
O104 O 0.58968 0.74046 0.8506 0.0
O105 O 0.66002 0.80135 0.83714 0.0
O106 O 0.69195 0.82355 0.78531 0.0
O107 O 0.67003 0.87126 0.7976 0.0
O108 O 0.64817 0.74057 0.80317 0.0
O109 O 0.57995 0.72759 0.80164 0.0
O110 O 0.58038 0.79525 0.78295 0.0
O111 O 0.51429 0.72657 0.79391 0.0
H112 H 0.39218 0.63983 0.86343 0.0
H113 H 0.37045 0.62047 0.90043 0.0
H114 H 0.50395 0.62871 0.91258 0.0
H115 H 0.52577 0.64818 0.87559 0.0
H116 H 0.76431 0.88297 0.75528 0.0
H117 H 0.77108 0.91182 0.71926 0.0
H118 H 0.6441 0.91904 0.72786 0.0
H119 H 0.63863 0.89185 0.76423 0.0
La120 La 0.73096 0.53541 0.06742 0.0
La121 La 0.79348 0.63086 0.08926 0.0
C122 C 0.66054 0.46815 0.05021 0.0
C123 C 0.64582 0.45659 0.02823 0.0
C124 C 0.67658 0.48287 1.01186 0.0
C125 C 0.66306 0.47093 0.99091 0.0
C126 C 0.61856 0.43249 0.986 0.0
C127 C 0.58764 0.40673 1.00252 0.0
C128 C 0.60122 0.41874 0.02348 0.0
C129 C 0.82138 0.56753 0.06282 0.0
C130 C 0.76044 0.63334 0.04326 0.0
C131 C 0.85686 0.69766 0.11038 0.0
C132 C 0.87623 0.70281 0.13198 0.0
C133 C 0.87153 0.73274 0.14635 0.0
C134 C 0.88857 0.73763 0.16693 0.0
C135 C 0.91102 0.71286 0.17369 0.0
C136 C 0.91621 0.68321 0.15922 0.0
C137 C 0.89901 0.67823 0.1386 0.0
C138 C 0.7014 0.58997 0.09492 0.0
C139 C 0.77093 0.53409 0.11201 0.0
O140 O 0.6986 0.46688 0.05534 0.0
O141 O 0.66074 0.50563 0.05758 0.0
O142 O 0.78875 0.52448 0.05902 0.0
O143 O 0.80144 0.59198 0.0644 0.0
O144 O 0.7328 0.5869 0.04467 0.0
O145 O 0.79123 0.65836 0.05818 0.0
O146 O 0.81351 0.68926 0.10907 0.0
O147 O 0.86512 0.67236 0.09694 0.0
O148 O 0.72876 0.6353 0.09394 0.0
O149 O 0.72614 0.571 0.09397 0.0
O150 O 0.79862 0.58035 0.11021 0.0
O151 O 0.73645 0.50953 0.09844 0.0
H152 H 0.71119 0.51234 0.01531 0.0
H153 H 0.68741 0.4918 0.97855 0.0
H154 H 0.55336 0.37659 0.99926 0.0
H155 H 0.57715 0.39814 0.03598 0.0
H156 H 0.8545 0.7524 0.14164 0.0
H157 H 0.88464 0.76137 0.1775 0.0
H158 H 0.93295 0.66331 0.16392 0.0
H159 H 0.90334 0.6549 0.12792 0.0
La160 La 0.2494 0.78279 0.49407 0.0
La161 La 0.21141 0.83795 0.47046 0.0
C162 C 0.30307 0.76423 0.51515 0.0
C163 C 0.31586 0.76594 0.53741 0.0
C164 C 0.32344 0.73048 0.54548 0.0
C165 C 0.33541 0.73106 0.5666 0.0
C166 C 0.34 0.76721 0.58003 0.0
C167 C 0.33215 0.80267 0.57191 0.0
C168 C 0.32011 0.802 0.55077 0.0
C169 C 0.15785 0.73775 0.49107 0.0
C170 C 0.23235 0.85986 0.51829 0.0
C171 C 0.16612 0.861 0.44571 0.0
C172 C 0.14367 0.84369 0.42475 0.0
C173 C 0.16938 0.86416 0.4062 0.0
C174 C 0.14898 0.8481 0.3864 0.0
C175 C 0.10212 0.81135 0.38453 0.0
C176 C 0.07618 0.79104 0.40306 0.0
C177 C 0.09668 0.80704 0.42293 0.0
C178 C 0.30352 0.87666 0.47295 0.0
C179 C 0.22256 0.75678 0.44746 0.0
O180 O 0.25971 0.73284 0.51035 0.0
O181 O 0.31691 0.80482 0.50584 0.0
O182 O 0.18293 0.71761 0.49357 0.0
O183 O 0.18359 0.78203 0.49296 0.0
O184 O 0.24935 0.8306 0.51824 0.0
O185 O 0.2122 0.86647 0.50152 0.0
O186 O 0.21208 0.88167 0.44618 0.0
O187 O 0.14698 0.83326 0.46202 0.0
O188 O 0.2818 0.90062 0.47354 0.0
O189 O 0.27412 0.83407 0.47004 0.0
O190 O 0.20117 0.7819 0.44857 0.0
O191 O 0.25084 0.7579 0.46256 0.0
H192 H 0.32031 0.70239 0.53538 0.0
H193 H 0.34192 0.70366 0.57232 0.0
H194 H 0.33504 0.83074 0.58193 0.0
H195 H 0.31429 0.82971 0.54488 0.0
H196 H 0.20544 0.89284 0.40694 0.0
H197 H 0.16977 0.8652 0.37251 0.0
H198 H 0.04009 0.76247 0.40222 0.0
H199 H 0.07569 0.79063 0.43685 0.0
La200 La 0.46296 0.2108 0.73443 0.0
La201 La 0.36663 0.16023 0.75553 0.0
C202 C 0.53593 0.22633 0.71481 0.0
C203 C 0.54869 0.22617 0.69254 0.0
C204 C 0.58108 0.26881 0.68288 0.0
C205 C 0.59352 0.26976 0.6618 0.0
C206 C 0.57424 0.22796 0.65004 0.0
C207 C 0.54195 0.18519 0.65968 0.0
C208 C 0.52909 0.18429 0.68073 0.0
C209 C 0.41932 0.25882 0.73437 0.0
C210 C 0.37077 0.1362 0.70836 0.0
C211 C 0.2957 0.14366 0.7774 0.0
C212 C 0.28831 0.15725 0.79882 0.0
C213 C 0.27158 0.12369 0.81512 0.0
C214 C 0.26449 0.13569 0.83541 0.0
C215 C 0.27363 0.18157 0.83995 0.0
C216 C 0.29032 0.21517 0.82359 0.0
C217 C 0.29744 0.20315 0.80328 0.0
C218 C 0.41655 0.11743 0.75649 0.0
C219 C 0.45813 0.23638 0.78094 0.0
O220 O 0.52665 0.25944 0.72014 0.0
O221 O 0.5065 0.18557 0.72336 0.0
O222 O 0.46461 0.2775 0.73386 0.0
O223 O 0.39958 0.21454 0.73246 0.0
O224 O 0.41725 0.16293 0.70971 0.0
O225 O 0.34232 0.13245 0.72402 0.0
O226 O 0.31329 0.11556 0.77654 0.0
O227 O 0.31415 0.17687 0.76304 0.0
O228 O 0.37095 0.09509 0.75513 0.0
O229 O 0.43113 0.16049 0.75854 0.0
O230 O 0.41174 0.21303 0.77882 0.0
O231 O 0.48608 0.23445 0.76643 0.0
H232 H 0.59687 0.3015 0.69168 0.0
H233 H 0.61897 0.3031 0.65481 0.0
H234 H 0.52642 0.15252 0.65088 0.0
H235 H 0.50387 0.15083 0.68769 0.0
H236 H 0.26405 0.088 0.81221 0.0
H237 H 0.25226 0.10899 0.8476 0.0
H238 H 0.29713 0.25065 0.82636 0.0
H239 H 0.30987 0.22985 0.7911 0.0
H240 H 0.15467 0.73296 0.41774 0.0
H241 H 0.1452 0.69082 0.3849 0.0
H242 H 0.26414 0.67441 0.40074 0.0
H243 H 0.27358 0.71617 0.43399 0.0
H244 H 0.21282 0.72229 0.35396 0.0
H245 H 0.16583 0.54263 0.38045 0.0
H246 H 0.16631 0.58601 0.39811 0.0
H247 H 0.22042 0.58812 0.39115 0.0
C248 C 0.17865 0.72008 0.41438 0.0
C249 C 0.21523 0.72828 0.42837 0.0
C250 C 0.17302 0.69583 0.39562 0.0
C251 C 0.20376 0.67927 0.39046 0.0
C252 C 0.23956 0.68623 0.40462 0.0
H253 H 0.25282 0.56718 0.27585 0.0
H254 H 0.25242 0.59279 0.31204 0.0
C255 C 0.24509 0.71033 0.42353 0.0
C256 C 0.20073 0.65863 0.36943 0.0
H257 H 0.18445 0.55996 0.34389 0.0
C258 C 0.2063 0.68667 0.35174 0.0
C259 C 0.19266 0.61234 0.36666 0.0
C260 C 0.18553 0.58035 0.3851 0.0
C261 C 0.20459 0.66997 0.3313 0.0
C262 C 0.19604 0.62351 0.32847 0.0
C263 C 0.1907 0.59545 0.34615 0.0
C264 C 0.19341 0.60398 0.3072 0.0
C265 C 0.21315 0.7027 0.31295 0.0
C266 C 0.15949 0.60052 0.29273 0.0
C267 C 0.15981 0.5862 0.27208 0.0
C268 C 0.19367 0.57447 0.26563 0.0
C269 C 0.2262 0.57582 0.28043 0.0
C270 C 0.22607 0.5905 0.30106 0.0
H271 H 0.23143 0.74023 0.31793 0.0
H272 H 0.23457 0.69836 0.30056 0.0
H273 H 0.17886 0.69443 0.30596 0.0
H274 H 0.13329 0.60972 0.29733 0.0
H275 H 0.1338 0.58464 0.26109 0.0
H276 H 0.60224 0.17085 0.63167 0.0
H277 H 0.63266 0.17665 0.59592 0.0
H278 H 0.60908 0.29252 0.58277 0.0
H279 H 0.57964 0.28754 0.61869 0.0
H280 H 0.59433 0.16944 0.55713 0.0
H281 H 0.74703 0.34941 0.56865 0.0
H282 H 0.71046 0.31421 0.5902 0.0
H283 H 0.69095 0.34501 0.57318 0.0
C284 C 0.60321 0.19728 0.62107 0.0
C285 C 0.58907 0.22906 0.62795 0.0
C286 C 0.62065 0.20063 0.6007 0.0
C287 C 0.62402 0.23565 0.58686 0.0
C288 C 0.608 0.26611 0.5934 0.0
H289 H 0.74089 0.30458 0.45923 0.0
H290 H 0.69951 0.301 0.49197 0.0
C291 C 0.59106 0.26313 0.61386 0.0
C292 C 0.64521 0.24067 0.56575 0.0
H293 H 0.73703 0.31672 0.53463 0.0
C294 C 0.62544 0.20167 0.55218 0.0
C295 C 0.68587 0.2828 0.55937 0.0
C296 C 0.71014 0.32512 0.57366 0.0
C297 C 0.64543 0.20356 0.53243 0.0
C298 C 0.68632 0.24547 0.5262 0.0
C299 C 0.70548 0.2848 0.5395 0.0
C300 C 0.71147 0.24814 0.50653 0.0
C301 C 0.62287 0.16068 0.5184 0.0
C302 C 0.73272 0.22046 0.50423 0.0
C303 C 0.75661 0.2227 0.48574 0.0
C304 C 0.75969 0.25266 0.46916 0.0
C305 C 0.73917 0.28116 0.47169 0.0
C306 C 0.7154 0.27905 0.49032 0.0
H307 H 0.58571 0.13616 0.52294 0.0
H308 H 0.62391 0.17094 0.50164 0.0
H309 H 0.64258 0.14141 0.51979 0.0
H310 H 0.73087 0.19713 0.51677 0.0
H311 H 0.77236 0.20063 0.48446 0.0
H312 H 0.25973 0.54937 0.0961 0.0
H313 H 0.29997 0.5804 0.06233 0.0
H314 H 0.31319 0.4567 0.05437 0.0
H315 H 0.27191 0.42501 0.08755 0.0
H316 H 0.38597 0.60207 0.04662 0.0
H317 H 0.24511 0.4543 1.00129 0.0
H318 H 0.23836 0.4641 0.02869 0.0
H319 H 0.27018 0.43474 0.02123 0.0
C320 C 0.27155 0.52904 0.08718 0.0
C321 C 0.26205 0.48448 0.09426 0.0
C322 C 0.29446 0.54673 0.06792 0.0
C323 C 0.30843 0.52024 0.0556 0.0
C324 C 0.30138 0.47704 0.06329 0.0
H325 H 0.44301 0.55879 0.93386 0.0
H326 H 0.41596 0.53648 0.9703 0.0
C327 C 0.27797 0.45909 0.08232 0.0
C328 C 0.32925 0.53702 0.03445 0.0
H329 H 0.31519 0.50558 0.98257 0.0
C330 C 0.3704 0.58111 0.0326 0.0
C331 C 0.30868 0.50964 0.01616 0.0
C332 C 0.2629 0.4633 0.01687 0.0
C333 C 0.39199 0.59815 1.01296 0.0
C334 C 0.37181 0.57037 0.99483 0.0
C335 C 0.3307 0.52645 0.99663 0.0
C336 C 0.39186 0.58673 0.97363 0.0
C337 C 0.43648 0.6454 1.01165 0.0
C338 C 0.38721 0.62233 0.96362 0.0
C339 C 0.40226 0.63486 0.94283 0.0
C340 C 0.42236 0.61206 0.93179 0.0
C341 C 0.42801 0.57717 0.94207 0.0
C342 C 0.41252 0.56435 0.9628 0.0
H343 H 0.45173 0.65911 0.02744 0.0
H344 H 0.46317 0.64285 1.00184 0.0
H345 H 0.42859 0.67115 1.00399 0.0
H346 H 0.37087 0.63959 0.97171 0.0
H347 H 0.39787 0.66214 0.93533 0.0
H348 H 0.81318 0.33482 0.28306 0.0
H349 H 0.81037 0.35406 0.24596 0.0
H350 H 0.80286 0.47669 0.26467 0.0
H351 H 0.80551 0.45764 0.30169 0.0
H352 H 0.7327 0.41866 0.2367 0.0
H353 H 0.90926 0.45871 0.20814 0.0
H354 H 0.87544 0.40315 0.22143 0.0
H355 H 0.89556 0.45705 0.23579 0.0
C356 C 0.8119 0.3664 0.27923 0.0
C357 C 0.80938 0.39466 0.29526 0.0
C358 C 0.8103 0.37733 0.25804 0.0
C359 C 0.80665 0.41692 0.25259 0.0
C360 C 0.80556 0.4459 0.26857 0.0
H361 H 0.84171 0.57277 0.14083 0.0
H362 H 0.84885 0.53788 0.17344 0.0
C363 C 0.80696 0.43493 0.28969 0.0
C364 C 0.8009 0.42689 0.23038 0.0
H365 H 0.85696 0.45975 0.18286 0.0
C366 C 0.7597 0.42735 0.22486 0.0
C367 C 0.8363 0.43828 0.21506 0.0
C368 C 0.88185 0.43971 0.22034 0.0
C369 C 0.75337 0.44011 0.20456 0.0
C370 C 0.78883 0.45173 0.18923 0.0
C371 C 0.82963 0.45027 0.19461 0.0
C372 C 0.78631 0.47027 0.16829 0.0
C373 C 0.70977 0.44317 0.20002 0.0
C374 C 0.74939 0.44339 0.15425 0.0
C375 C 0.74481 0.46353 0.13558 0.0
C376 C 0.77729 0.51075 0.13066 0.0
C377 C 0.81555 0.5366 0.14427 0.0
C378 C 0.81994 0.5166 0.16289 0.0
H379 H 0.69089 0.44249 0.21467 0.0
H380 H 0.71881 0.47592 0.1912 0.0
H381 H 0.68532 0.41267 0.19021 0.0
H382 H 0.72356 0.40723 0.15796 0.0
H383 H 0.71526 0.44253 0.12531 0.0
H384 H 0.45792 0.68921 0.76187 0.0
H385 H 0.42077 0.6919 0.72877 0.0
H386 H 0.52045 0.84055 0.72306 0.0
H387 H 0.55796 0.83799 0.75576 0.0
H388 H 0.37997 0.74544 0.71632 0.0
H389 H 0.53716 0.78794 0.66773 0.0
H390 H 0.53104 0.76786 0.69463 0.0
H391 H 0.54879 0.82832 0.68899 0.0
C392 C 0.47176 0.72244 0.75356 0.0
C393 C 0.51139 0.76319 0.76116 0.0
C394 C 0.45054 0.72393 0.7347 0.0
C395 C 0.46858 0.7662 0.72328 0.0
C396 C 0.50683 0.80732 0.73134 0.0
H397 H 0.40455 0.84352 0.60234 0.0
H398 H 0.43239 0.84443 0.63819 0.0
C399 C 0.52823 0.80577 0.75003 0.0
C400 C 0.44801 0.76729 0.70273 0.0
H401 H 0.47471 0.79136 0.65063 0.0
C402 C 0.40055 0.75531 0.70193 0.0
C403 C 0.47511 0.78023 0.68403 0.0
C404 C 0.52572 0.7914 0.68378 0.0
C405 C 0.37956 0.7566 0.68287 0.0
C406 C 0.40672 0.76965 0.66421 0.0
C407 C 0.45416 0.78168 0.66504 0.0
C408 C 0.38646 0.76974 0.64346 0.0
C409 C 0.3288 0.74473 0.68287 0.0
C410 C 0.35129 0.72746 0.63468 0.0
C411 C 0.33526 0.72684 0.61426 0.0
C412 C 0.35432 0.76849 0.60225 0.0
C413 C 0.38883 0.81099 0.61129 0.0
C414 C 0.40491 0.81154 0.6317 0.0
H415 H 0.31663 0.74716 0.69891 0.0
H416 H 0.32358 0.76859 0.67217 0.0
H417 H 0.30638 0.70808 0.67719 0.0
H418 H 0.33719 0.69471 0.6434 0.0
H419 H 0.30834 0.69366 0.60777 0.0
H420 H 0.53342 0.40482 0.96743 0.0
H421 H 0.50953 0.37636 0.93142 0.0
H422 H 0.64872 0.40007 0.91829 0.0
H423 H 0.67284 0.42801 0.95437 0.0
H424 H 0.60651 0.43177 0.88577 0.0
H425 H 0.49122 0.24635 0.91178 0.0
H426 H 0.48171 0.28947 0.92492 0.0
H427 H 0.53651 0.29038 0.92837 0.0
C428 C 0.55891 0.40384 0.95691 0.0
C429 C 0.60489 0.41829 0.96379 0.0
C430 C 0.54526 0.38775 0.93635 0.0
C431 C 0.57728 0.38568 0.92237 0.0
C432 C 0.62359 0.40146 0.92892 0.0
H433 H 0.55021 0.28092 0.79395 0.0
H434 H 0.58148 0.32029 0.82773 0.0
C435 C 0.6373 0.41754 0.94949 0.0
C436 C 0.56183 0.36544 0.90115 0.0
H437 H 0.48789 0.26296 0.87579 0.0
C438 C 0.58075 0.39486 0.8835 0.0
C439 C 0.52839 0.31725 0.89838 0.0
C440 C 0.50845 0.28379 0.91682 0.0
C441 C 0.56599 0.37745 0.86305 0.0
C442 C 0.53215 0.32933 0.86032 0.0
C443 C 0.51373 0.29989 0.87799 0.0
C444 C 0.51441 0.30862 0.83933 0.0
C445 C 0.58567 0.41082 0.84459 0.0
C446 C 0.46639 0.28881 0.8348 0.0
C447 C 0.44842 0.26613 0.81566 0.0
C448 C 0.47813 0.26255 0.8007 0.0
C449 C 0.52645 0.28314 0.80512 0.0
C450 C 0.54442 0.30588 0.82435 0.0
H451 H 0.60306 0.44827 0.84963 0.0
H452 H 0.61223 0.40504 0.83638 0.0
H453 H 0.55745 0.40426 0.83314 0.0
H454 H 0.44267 0.29048 0.84621 0.0
H455 H 0.41106 0.25093 0.81275 0.0
H456 H 0.26231 0.38874 0.12408 0.0
H457 H 0.3381 0.40019 0.11381 0.0
H458 H 0.38035 0.41795 0.17908 0.0
H459 H 0.30487 0.41028 0.18905 0.0
H460 H 0.43479 0.49262 0.15946 0.0
H461 H 0.42321 0.34923 0.11014 0.0
H462 H 0.38376 0.3673 0.10002 0.0
H463 H 0.37426 0.34169 0.12601 0.0
C464 C 0.28647 0.39244 0.13634 0.0
C465 C 0.27762 0.39881 0.1573 0.0
C466 C 0.3303 0.39895 0.13044 0.0
C467 C 0.36549 0.41037 0.14562 0.0
C468 C 0.35398 0.40959 0.16701 0.0
H469 H 0.65202 0.4993 0.10768 0.0
H470 H 0.57123 0.45599 0.12006 0.0
C471 C 0.31052 0.40444 0.17277 0.0
C472 C 0.41563 0.43315 0.13899 0.0
H473 H 0.4899 0.42753 0.10299 0.0
C474 C 0.44697 0.47774 0.14743 0.0
C475 C 0.43186 0.41421 0.12323 0.0
C476 C 0.40148 0.36524 0.11454 0.0
C477 C 0.49351 0.5042 0.14031 0.0
C478 C 0.50877 0.48665 0.12358 0.0
C479 C 0.47792 0.44156 0.11549 0.0
C480 C 0.55737 0.51333 0.11507 0.0
C481 C 0.52589 0.55034 0.1511 0.0
C482 C 0.57654 0.55998 0.10774 0.0
C483 C 0.6235 0.58543 0.101 0.0
C484 C 0.65139 0.56406 0.10104 0.0
C485 C 0.63147 0.51685 0.10754 0.0
C486 C 0.58512 0.49188 0.11458 0.0
H487 H 0.51339 0.55151 0.16723 0.0
H488 H 0.56229 0.55639 0.15223 0.0
H489 H 0.52679 0.57967 0.14195 0.0
H490 H 0.55534 0.57683 0.10737 0.0
H491 H 0.63794 0.62159 0.09583 0.0
H492 H 0.1172 0.7487 0.45514 0.0
H493 H 0.05406 0.68263 0.43646 0.0
H494 H 0.02652 0.59557 0.49163 0.0
H495 H 0.08959 0.66162 0.51018 0.0
H496 H 0.0709 0.61226 0.42941 0.0
H497 H 0.89717 0.53586 0.46719 0.0
H498 H 0.9426 0.59619 0.4717 0.0
H499 H 0.94075 0.54883 0.48702 0.0
C500 C 0.09599 0.71659 0.46374 0.0
C501 C 0.10863 0.71035 0.48411 0.0
C502 C 0.05989 0.67845 0.45293 0.0
C503 C 0.03557 0.63392 0.46256 0.0
C504 C 0.04402 0.62961 0.48389 0.0
H505 H 0.94456 0.35009 0.45124 0.0
H506 H 0.97812 0.43453 0.45823 0.0
C507 C 0.0802 0.66756 0.49456 0.0
C508 C 0.01068 0.59052 0.44969 0.0
H509 H 0.91737 0.47855 0.45222 0.0
C510 C 0.03654 0.58344 0.43386 0.0
C511 C 0.96594 0.55292 0.45546 0.0
C512 C 0.93493 0.55912 0.47113 0.0
C513 C 0.02082 0.53865 0.42515 0.0
C514 C 0.97828 0.50023 0.43249 0.0
C515 C 0.95054 0.50805 0.44696 0.0
C516 C 0.96398 0.45104 0.42701 0.0
C517 C 0.05135 0.53193 0.40938 0.0
C518 C 0.94648 0.43293 0.40694 0.0
C519 C 0.92789 0.38486 0.40291 0.0
C520 C 0.92655 0.35461 0.4189 0.0
C521 C 0.94618 0.37314 0.4386 0.0
C522 C 0.96477 0.42109 0.44264 0.0
H523 H 0.08416 0.56543 0.40578 0.0
H524 H 0.06082 0.50598 0.41551 0.0
H525 H 0.03159 0.51765 0.39449 0.0
H526 H 0.94528 0.45546 0.39474 0.0
H527 H 0.91256 0.37093 0.38764 0.0
H528 H 0.39135 0.02439 0.75368 0.0
H529 H 0.44164 0.98997 0.76059 0.0
H530 H 0.56002 0.12874 0.77159 0.0
H531 H 0.51003 0.16311 0.76517 0.0
H532 H 0.53256 0.00975 0.74189 0.0
H533 H 0.54385 0.05527 0.82714 0.0
H534 H 0.50006 0.05568 0.81008 0.0
H535 H 0.5603 0.10192 0.80826 0.0
C536 C 0.42815 0.04744 0.75742 0.0
C537 C 0.44674 0.09627 0.759 0.0
C538 C 0.45686 0.02788 0.76125 0.0
C539 C 0.50439 0.0569 0.76675 0.0
C540 C 0.52336 0.10579 0.76756 0.0
H541 H 0.63539 0.90992 0.82892 0.0
H542 H 0.64061 0.97912 0.81059 0.0
C543 C 0.49472 0.1253 0.76383 0.0
C544 C 0.53286 0.03545 0.77312 0.0
H545 H 0.5732 0.00645 0.8169 0.0
C546 C 0.54239 0.00979 0.7582 0.0
C547 C 0.54657 0.03646 0.79433 0.0
C548 C 0.53712 0.06356 0.81099 0.0
C549 C 0.56212 0.9822 0.76427 0.0
C550 C 0.57142 0.97952 0.78583 0.0
C551 C 0.56609 0.00866 0.80038 0.0
C552 C 0.57424 0.9389 0.79422 0.0
C553 C 0.57019 0.95389 0.74777 0.0
C554 C 0.53534 0.89395 0.79115 0.0
C555 C 0.53197 0.85541 0.80176 0.0
C556 C 0.56769 0.86056 0.81555 0.0
C557 C 0.60766 0.90518 0.81821 0.0
C558 C 0.6107 0.94444 0.80772 0.0
H559 H 0.58035 0.97302 0.73249 0.0
H560 H 0.59802 0.94594 0.75265 0.0
H561 H 0.53702 0.9201 0.74522 0.0
H562 H 0.50616 0.88892 0.78133 0.0
H563 H 0.50063 0.82147 0.79938 0.0
H564 H 0.57561 0.62889 0.82617 0.0
H565 H 0.52946 0.5472 0.81342 0.0
H566 H 0.54224 0.59865 0.74978 0.0
H567 H 0.58825 0.67989 0.76252 0.0
H568 H 0.442 0.50952 0.79024 0.0
H569 H 0.58114 0.49697 0.74571 0.0
H570 H 0.59444 0.5414 0.7655 0.0
H571 H 0.57639 0.548 0.7396 0.0
C572 C 0.56967 0.62237 0.80942 0.0
C573 C 0.58629 0.66006 0.79517 0.0
C574 C 0.54294 0.57599 0.8022 0.0
C575 C 0.53276 0.56702 0.78066 0.0
C576 C 0.55037 0.60484 0.7664 0.0
H577 H 0.41052 0.31634 0.70692 0.0
H578 H 0.4236 0.39348 0.71763 0.0
C579 C 0.57687 0.65106 0.77363 0.0
C580 C 0.5025 0.51833 0.773 0.0
H581 H 0.50304 0.43546 0.74091 0.0
C582 C 0.45519 0.49314 0.77946 0.0
C583 C 0.51988 0.49734 0.75891 0.0
C584 C 0.57083 0.52206 0.75213 0.0
C585 C 0.42457 0.44743 0.77195 0.0
C586 C 0.44201 0.42648 0.75782 0.0
C587 C 0.48935 0.45189 0.75141 0.0
C588 C 0.41407 0.37676 0.75088 0.0
C589 C 0.37392 0.42217 0.77906 0.0
C590 C 0.39971 0.34043 0.76578 0.0
C591 C 0.39099 0.29589 0.75953 0.0
C592 C 0.39751 0.28761 0.73845 0.0
C593 C 0.40464 0.32163 0.72324 0.0
C594 C 0.41275 0.36598 0.7294 0.0
H595 H 0.36247 0.44747 0.78391 0.0
H596 H 0.35017 0.39915 0.76644 0.0
H597 H 0.37015 0.39977 0.79289 0.0
H598 H 0.40093 0.34784 0.78245 0.0
H599 H 0.38598 0.27065 0.77163 0.0
H600 H 0.01859 0.39521 0.13459 0.0
H601 H 0.98661 0.44799 0.12859 0.0
H602 H 0.12746 0.56592 0.12185 0.0
H603 H 0.15936 0.5135 0.12715 0.0
H604 H 0.00382 0.53365 0.14972 0.0
H605 H 0.06386 0.56449 0.06601 0.0
H606 H 0.06234 0.51749 0.08146 0.0
H607 H 0.10749 0.57739 0.08597 0.0
C608 C 0.04258 0.4324 0.1319 0.0
C609 C 0.09131 0.45024 0.13126 0.0
C610 C 0.02442 0.46252 0.1286 0.0
C611 C 0.05477 0.51076 0.1246 0.0
C612 C 0.10348 0.52878 0.12464 0.0
H613 H 0.90955 0.64739 0.06567 0.0
H614 H 0.97804 0.65393 0.08515 0.0
C615 C 0.12157 0.49873 0.12776 0.0
C616 C 0.035 0.54123 0.11906 0.0
H617 H 0.01321 0.59127 0.07658 0.0
C618 C 0.00676 0.5473 0.13387 0.0
C619 C 0.03979 0.55999 0.09852 0.0
C620 C 0.06977 0.55448 0.08197 0.0
C621 C 0.97981 0.56789 0.12811 0.0
C622 C 0.98062 0.58182 0.10695 0.0
C623 C 0.01279 0.5806 0.0928 0.0
C624 C 0.93984 0.58312 0.09788 0.0
C625 C 0.94765 0.57087 0.14424 0.0
C626 C 0.89652 0.54124 0.0984 0.0
C627 C 0.8587 0.53715 0.08704 0.0
C628 C 0.86265 0.57518 0.07515 0.0
C629 C 0.90561 0.61785 0.07494 0.0
C630 C 0.94442 0.62163 0.08609 0.0
H631 H 0.96414 0.57857 0.1601 0.0
H632 H 0.93866 0.59838 0.14009 0.0
H633 H 0.91463 0.53632 0.14518 0.0
H634 H 0.89247 0.51062 0.10683 0.0
H635 H 0.8262 0.5036 0.08749 0.0
H636 H 0.37234 0.96803 0.47881 0.0
H637 H 0.45736 0.00125 0.47383 0.0
H638 H 0.43514 0.86285 0.45968 0.0
H639 H 0.35028 0.82958 0.46435 0.0
H640 H 0.52568 0.9752 0.49269 0.0
H641 H 0.49789 0.94528 0.40608 0.0
H642 H 0.45317 0.94429 0.42298 0.0
H643 H 0.46492 0.89638 0.42361 0.0
C644 C 0.38571 0.94472 0.47486 0.0
C645 C 0.35486 0.8964 0.47184 0.0
C646 C 0.43416 0.96359 0.47214 0.0
C647 C 0.45231 0.93443 0.46629 0.0
C648 C 0.42172 0.88588 0.46409 0.0
H649 H 0.72563 0.09181 0.40421 0.0
H650 H 0.6658 0.01974 0.42225 0.0
C651 C 0.37332 0.86701 0.46679 0.0
C652 C 0.5026 0.95589 0.46065 0.0
H653 H 0.57479 0.99343 0.41778 0.0
C654 C 0.53665 0.97836 0.47637 0.0
C655 C 0.51682 0.95898 0.43941 0.0
C656 C 0.4815 0.93518 0.42194 0.0
C657 C 0.58436 0.00697 0.47117 0.0
C658 C 0.59787 0.01422 0.44971 0.0
C659 C 0.56444 0.98795 0.43423 0.0
C660 C 0.6418 0.05643 0.44267 0.0
C661 C 0.61949 0.03118 0.48862 0.0
C662 C 0.64873 0.10071 0.44847 0.0
C663 C 0.68177 0.14106 0.43806 0.0
C664 C 0.70907 0.13828 0.42171 0.0
C665 C 0.70498 0.09464 0.41684 0.0
C666 C 0.67103 0.05368 0.42715 0.0
H667 H 0.60982 0.00814 0.50275 0.0
H668 H 0.65567 0.04083 0.48364 0.0
H669 H 0.61924 0.0637 0.49328 0.0
H670 H 0.62593 0.10391 0.45988 0.0
H671 H 0.6842 0.17429 0.44216 0.0
H672 H 0.2015 0.12723 0.86724 0.0
H673 H 0.18837 0.14705 0.90274 0.0
H674 H 0.31278 0.28387 0.89731 0.0
H675 H 0.32682 0.26409 0.86187 0.0
H676 H 0.25013 0.17373 0.93811 0.0
H677 H 0.20957 0.31386 0.91588 0.0
H678 H 0.20841 0.27198 0.89708 0.0
H679 H 0.26363 0.32058 0.90554 0.0
C680 C 0.22639 0.16144 0.87359 0.0
C681 C 0.26527 0.19402 0.86157 0.0
C682 C 0.21862 0.17281 0.89389 0.0
C683 C 0.24922 0.21714 0.90262 0.0
C684 C 0.28815 0.24977 0.89076 0.0
H685 H 0.24498 0.3422 0.02394 0.0
H686 H 0.2651 0.32783 0.98863 0.0
C687 C 0.29607 0.23839 0.87045 0.0
C688 C 0.2408 0.22855 0.92431 0.0
H689 H 0.21344 0.30086 0.95225 0.0
C690 C 0.24208 0.20151 0.9412 0.0
C691 C 0.23063 0.26503 0.92837 0.0
C692 C 0.22756 0.29441 0.91079 0.0
C693 C 0.23369 0.21002 0.96202 0.0
C694 C 0.22249 0.24584 0.96606 0.0
C695 C 0.22188 0.27335 0.94919 0.0
C696 C 0.21033 0.25457 0.9876 0.0
C697 C 0.23775 0.18103 0.97952 0.0
C698 C 0.1724 0.21846 0.99873 0.0
C699 C 0.16109 0.22641 0.019 0.0
C700 C 0.18711 0.2709 0.0286 0.0
C701 C 0.22462 0.30729 0.01725 0.0
C702 C 0.23599 0.29923 0.99696 0.0
H703 H 0.26013 0.16595 0.97482 0.0
H704 H 0.25278 0.20241 0.99398 0.0
H705 H 0.20222 0.15126 0.98334 0.0
H706 H 0.15135 0.18399 0.99171 0.0
H707 H 0.13225 0.19739 0.02724 0.0
H708 H 0.91735 0.19959 0.36527 0.0
H709 H 0.961 0.21 0.33239 0.0
H710 H 0.8901 0.27711 0.30395 0.0
H711 H 0.84547 0.2654 0.33619 0.0
H712 H 0.89885 0.21856 0.27642 0.0
H713 H 0.07086 0.33658 0.31467 0.0
H714 H 0.0381 0.27858 0.32587 0.0
H715 H 0.01544 0.31836 0.32764 0.0
C716 C 0.91059 0.21595 0.35191 0.0
C717 C 0.8784 0.23236 0.35355 0.0
C718 C 0.93592 0.2223 0.33317 0.0
C719 C 0.92969 0.24535 0.3158 0.0
C720 C 0.89591 0.25958 0.31713 0.0
H721 H 0.11125 0.41276 0.21649 0.0
H722 H 0.06468 0.37783 0.2481 0.0
C723 C 0.87058 0.25313 0.33572 0.0
C724 C 0.95923 0.25667 0.29644 0.0
H725 H 0.07206 0.32334 0.27839 0.0
C726 C 0.9368 0.24107 0.27685 0.0
C727 C 0.00873 0.28656 0.29697 0.0
C728 C 0.03483 0.30641 0.31736 0.0
C729 C 0.96221 0.25541 0.25782 0.0
C730 C 0.01167 0.28549 0.25836 0.0
C731 C 0.03423 0.30006 0.27797 0.0
C732 C 0.0402 0.3057 0.23885 0.0
C733 C 0.93557 0.24004 0.2373 0.0
C734 C 0.04244 0.27688 0.22303 0.0
C735 C 0.06907 0.29686 0.20468 0.0
C736 C 0.09431 0.34611 0.2019 0.0
C737 C 0.09237 0.37472 0.21796 0.0
C738 C 0.06573 0.35478 0.23615 0.0
H739 H 0.89721 0.22586 0.23957 0.0
H740 H 0.94897 0.26986 0.22598 0.0
H741 H 0.94045 0.21184 0.23021 0.0
H742 H 0.02384 0.23894 0.2249 0.0
H743 H 0.06996 0.27375 0.19274 0.0
H744 H 0.68935 0.98489 0.70452 0.0
H745 H 0.69741 0.01258 0.66806 0.0
H746 H 0.74475 0.91657 0.64947 0.0
H747 H 0.73514 0.8875 0.68557 0.0
H748 H 0.77644 0.05566 0.64341 0.0
H749 H 0.64514 0.88923 0.60556 0.0
H750 H 0.64817 0.89733 0.63374 0.0
H751 H 0.6878 0.88265 0.6206 0.0
C752 C 0.7007 0.96904 0.69262 0.0
C753 C 0.71157 0.93385 0.69811 0.0
C754 C 0.70561 0.98518 0.67177 0.0
C755 C 0.72106 0.96627 0.65587 0.0
C756 C 0.73184 0.93114 0.66129 0.0
H757 H 0.80851 0.02287 0.52574 0.0
H758 H 0.78782 0.99379 0.56188 0.0
C759 C 0.72694 0.91497 0.68208 0.0
C760 C 0.72791 0.98453 0.6338 0.0
H761 H 0.6992 0.95019 0.58251 0.0
C762 C 0.75911 0.03269 0.63012 0.0
C763 C 0.70532 0.95465 0.61639 0.0
C764 C 0.66938 0.90319 0.61924 0.0
C765 C 0.76961 0.05136 0.60955 0.0
C766 C 0.74787 0.02125 0.59213 0.0
C767 C 0.71602 0.97328 0.59583 0.0
C768 C 0.75907 0.03849 0.56995 0.0
C769 C 0.80518 0.1029 0.6066 0.0
C770 C 0.74907 0.07279 0.56223 0.0
C771 C 0.76101 0.08966 0.54151 0.0
C772 C 0.78327 0.07261 0.52804 0.0
C773 C 0.7922 0.03746 0.53572 0.0
C774 C 0.78009 0.02052 0.55638 0.0
H775 H 0.82612 0.1188 0.6211 0.0
H776 H 0.82967 0.1079 0.59348 0.0
H777 H 0.78652 0.12229 0.60258 0.0
H778 H 0.73216 0.08668 0.57226 0.0
H779 H 0.75374 0.11683 0.53621 0.0
H780 H 0.59224 0.73104 0.88947 0.0
H781 H 0.62734 0.72282 0.92172 0.0
H782 H 0.76539 0.8006 0.89381 0.0
H783 H 0.73011 0.80868 0.86096 0.0
H784 H 0.74759 0.71601 0.91292 0.0
H785 H 0.70185 0.81805 0.96766 0.0
H786 H 0.65175 0.77583 0.95295 0.0
H787 H 0.7005 0.82361 0.93939 0.0
C788 C 0.63016 0.74687 0.89011 0.0
C789 C 0.65833 0.77048 0.8725 0.0
C790 C 0.65024 0.74247 0.90873 0.0
C791 C 0.69909 0.76169 0.91038 0.0
C792 C 0.72761 0.78585 0.89297 0.0
H793 H 0.80523 0.72844 0.03387 0.0
H794 H 0.79835 0.76554 1.0014 0.0
C795 C 0.70744 0.79056 0.87423 0.0
C796 C 0.71917 0.75313 0.92983 0.0
H797 H 0.71706 0.75987 0.98353 0.0
C798 C 0.74174 0.7264 0.92833 0.0
C799 C 0.71214 0.7671 0.94998 0.0
C800 C 0.69067 0.79816 0.95261 0.0
C801 C 0.75468 0.71078 0.94645 0.0
C802 C 0.74429 0.72168 0.96661 0.0
C803 C 0.72453 0.75098 0.9681 0.0
C804 C 0.74998 0.69981 0.98617 0.0
C805 C 0.77852 0.68188 0.94381 0.0
C806 C 0.72458 0.65067 0.98856 0.0
C807 C 0.72822 0.62947 1.00703 0.0
C808 C 0.75733 0.65686 0.0237 0.0
C809 C 0.78267 0.70622 0.02135 0.0
C810 C 0.77877 0.7275 1.0028 0.0
H811 H 0.79713 0.68918 0.92844 0.0
H812 H 0.8042 0.68899 0.95665 0.0
H813 H 0.75155 0.64389 0.94424 0.0
H814 H 0.7013 0.62856 0.97619 0.0
H815 H 0.70791 0.59142 1.00818 0.0
H816 H 0.01346 0.78926 0.37173 0.0
H817 H 0.97953 0.76716 0.3364 0.0
H818 H 0.10799 0.77689 0.31368 0.0
H819 H 0.14171 0.79776 0.34905 0.0
H820 H 0.01408 0.82122 0.29995 0.0
H821 H 0.00779 0.64983 0.29023 0.0
H822 H 0.01571 0.67781 0.31556 0.0
H823 H 0.06447 0.69769 0.29764 0.0
C824 C 0.03421 0.78584 0.35932 0.0
C825 C 0.08036 0.79531 0.36329 0.0
C826 C 0.01485 0.77348 0.33908 0.0
C827 C 0.04096 0.76983 0.32239 0.0
C828 C 0.0868 0.77866 0.32634 0.0
H829 H 0.99462 0.72144 0.18719 0.0
H830 H 0.02549 0.73438 0.2232 0.0
C831 C 0.10624 0.79114 0.34655 0.0
C832 C 0.02121 0.7594 0.30066 0.0
H833 H 0.9922 0.68196 0.25974 0.0
C834 C 0.00901 0.7906 0.29121 0.0
C835 C 0.01497 0.71965 0.28917 0.0
C836 C 0.02601 0.68405 0.29869 0.0
C837 C 0.99147 0.78363 0.27053 0.0
C838 C 0.98485 0.74369 0.25907 0.0
C839 C -0.00282 0.71251 0.2685 0.0
C840 C 0.96512 0.73376 0.23731 0.0
C841 C 0.9814 0.8199 0.26097 0.0
C842 C 0.9204 0.72789 0.23327 0.0
C843 C 0.9027 0.72056 0.21272 0.0
C844 C 0.9291 0.7184 0.1957 0.0
C845 C 0.97323 0.72268 0.19989 0.0
C846 C 0.99102 0.73025 0.22048 0.0
H847 H 0.00061 0.85425 0.26928 0.0
H848 H 0.9913 0.82567 0.24405 0.0
H849 H 0.94317 0.8073 0.26226 0.0
H850 H 0.89913 0.7291 0.24603 0.0
H851 H 0.86816 0.71637 0.21016 0.0
H852 H 0.41503 0.15171 0.67036 0.0
H853 H 0.38528 0.10641 0.63804 0.0
H854 H 0.25297 0.0145 0.66871 0.0
H855 H 0.28213 0.06092 0.70109 0.0
H856 H 0.3614 0.0188 0.63129 0.0
H857 H 0.20602 0.03775 0.61429 0.0
H858 H 0.24939 0.07317 0.63377 0.0
H859 H 0.20396 0.01406 0.64001 0.0
C860 C 0.37933 0.12223 0.67023 0.0
C861 C 0.35093 0.11007 0.68838 0.0
C862 C 0.36234 0.09626 0.65167 0.0
C863 C 0.3166 0.0572 0.65072 0.0
C864 C 0.28792 0.04513 0.66877 0.0
H865 H 0.24219 0.83536 0.5582 0.0
H866 H 0.25929 0.88207 0.59023 0.0
C867 C 0.30476 0.07156 0.68736 0.0
C868 C 0.30062 0.02772 0.63126 0.0
H869 H 0.21355 0.98045 0.5941 0.0
C870 C 0.32913 0.01065 0.62315 0.0
C871 C 0.25883 0.01743 0.62038 0.0
C872 C 0.22802 0.03694 0.62742 0.0
C873 C 0.31704 0.98349 0.6047 0.0
C874 C 0.27429 0.97153 0.59428 0.0
C875 C 0.24599 0.98905 0.60219 0.0
C876 C 0.25882 0.94113 0.57513 0.0
C877 C 0.35096 0.96891 0.5963 0.0
C878 C 0.25 0.95738 0.5561 0.0
C879 C 0.2393 0.93019 0.5377 0.0
C880 C 0.2375 0.88638 0.53801 0.0
C881 C 0.24415 0.86933 0.5573 0.0
C882 C 0.2542 0.89615 0.57566 0.0
H883 H 0.38733 0.99245 0.6021 0.0
H884 H 0.33989 0.93264 0.60177 0.0
H885 H 0.35163 0.96926 0.57882 0.0
H886 H 0.25294 0.99179 0.55531 0.0
H887 H 0.23436 0.94431 0.5231 0.0
loop_
_geom_bond_atom_site_label_1
_geom_bond_atom_site_label_2
_geom_bond_distance
_geom_bond_site_symmetry_2
_ccdc_geom_bond_type
La0 C2 2.928 . S
La0 O20 2.521 . S
La0 O21 2.628 . S
La0 O22 2.554 . S
La0 O23 2.757 . S
La0 O24 2.470 . S
La0 O29 2.482 . S
La0 O31 2.503 . S
La1 C11 2.928 . S
La1 O23 2.482 . S
La1 O25 2.503 . S
La1 O26 2.521 . S
La1 O27 2.628 . S
La1 O28 2.554 . S
La1 O29 2.757 . S
La1 O30 2.470 . S
C2 La0 2.928 . S
C2 C3 1.503 . S
C2 O20 1.261 . S
C2 O21 1.243 . S
C3 C2 1.503 . S
C3 C4 1.394 . S
C3 C8 1.373 . S
C4 C3 1.394 . S
C4 C5 1.380 . S
C4 H32 0.930 . S
C5 C4 1.380 . S
C5 C6 1.376 . S
C5 H33 0.930 . S
C6 C5 1.376 . S
C6 C7 1.370 . S
C7 C6 1.370 . S
C7 C8 1.396 . S
C7 H34 0.929 . S
C8 C3 1.373 . S
C8 C7 1.396 . S
C8 H35 0.929 . S
C9 O22 1.240 . S
C9 O23 1.289 . S
C10 O24 1.258 . S
C10 O25 1.256 . S
C11 La1 2.928 . S
C11 C12 1.503 . S
C11 O26 1.261 . S
C11 O27 1.243 . S
C12 C11 1.503 . S
C12 C13 1.394 . S
C12 C17 1.373 . S
C13 C12 1.394 . S
C13 C14 1.380 . S
C13 H36 0.930 . S
C14 C13 1.380 . S
C14 C15 1.376 . S
C14 H37 0.930 . S
C15 C14 1.376 . S
C15 C16 1.370 . S
C16 C15 1.370 . S
C16 C17 1.396 . S
C16 H38 0.929 . S
C17 C12 1.373 . S
C17 C16 1.396 . S
C17 H39 0.929 . S
C18 O28 1.240 . S
C18 O29 1.289 . S
C19 O30 1.258 . S
C19 O31 1.256 . S
O20 La0 2.521 . S
O20 C2 1.261 . S
O21 La0 2.628 . S
O21 C2 1.243 . S
O22 La0 2.554 . S
O22 C9 1.240 . S
O23 La0 2.757 . S
O23 La1 2.482 . S
O23 C9 1.289 . S
O24 La0 2.470 . S
O24 C10 1.258 . S
O25 La1 2.503 . S
O25 C10 1.256 . S
O26 La1 2.521 . S
O26 C11 1.261 . S
O27 La1 2.628 . S
O27 C11 1.243 . S
O28 La1 2.554 . S
O28 C18 1.240 . S
O29 La0 2.482 . S
O29 La1 2.757 . S
O29 C18 1.289 . S
O30 La1 2.470 . S
O30 C19 1.258 . S
O31 La0 2.503 . S
O31 C19 1.256 . S
H32 C4 0.930 . S
H33 C5 0.930 . S
H34 C7 0.929 . S
H35 C8 0.929 . S
H36 C13 0.930 . S
H37 C14 0.930 . S
H38 C16 0.929 . S
H39 C17 0.929 . S
La40 C42 2.928 . S
La40 O60 2.521 . S
La40 O61 2.628 . S
La40 O62 2.554 . S
La40 O63 2.757 . S
La40 O64 2.470 . S
La40 O69 2.482 . S
La40 O71 2.503 . S
La41 C51 2.928 . S
La41 O63 2.482 . S
La41 O65 2.503 . S
La41 O66 2.521 . S
La41 O67 2.628 . S
La41 O68 2.554 . S
La41 O69 2.757 . S
La41 O70 2.470 . S
C42 La40 2.928 . S
C42 C43 1.503 . S
C42 O60 1.261 . S
C42 O61 1.243 . S
C43 C42 1.503 . S
C43 C44 1.394 . S
C43 C48 1.373 . S
C44 C43 1.394 . S
C44 C45 1.380 . S
C44 H72 0.930 . S
C45 C44 1.380 . S
C45 C46 1.376 . S
C45 H73 0.930 . S
C46 C45 1.376 . S
C46 C47 1.370 . S
C47 C46 1.370 . S
C47 C48 1.396 . S
C47 H74 0.929 . S
C48 C43 1.373 . S
C48 C47 1.396 . S
C48 H75 0.929 . S
C49 O62 1.240 . S
C49 O63 1.289 . S
C50 O64 1.258 . S
C50 O65 1.256 . S
C51 La41 2.928 . S
C51 C52 1.503 . S
C51 O66 1.261 . S
C51 O67 1.243 . S
C52 C51 1.503 . S
C52 C53 1.394 . S
C52 C57 1.373 . S
C53 C52 1.394 . S
C53 C54 1.380 . S
C53 H76 0.930 . S
C54 C53 1.380 . S
C54 C55 1.376 . S
C54 H77 0.930 . S
C55 C54 1.376 . S
C55 C56 1.370 . S
C56 C55 1.370 . S
C56 C57 1.396 . S
C56 H78 0.929 . S
C57 C52 1.373 . S
C57 C56 1.396 . S
C57 H79 0.929 . S
C58 O68 1.240 . S
C58 O69 1.289 . S
C59 O70 1.258 . S
C59 O71 1.256 . S
O60 La40 2.521 . S
O60 C42 1.261 . S
O61 La40 2.628 . S
O61 C42 1.243 . S
O62 La40 2.554 . S
O62 C49 1.240 . S
O63 La40 2.757 . S
O63 La41 2.482 . S
O63 C49 1.289 . S
O64 La40 2.470 . S
O64 C50 1.258 . S
O65 La41 2.503 . S
O65 C50 1.256 . S
O66 La41 2.521 . S
O66 C51 1.261 . S
O67 La41 2.628 . S
O67 C51 1.243 . S
O68 La41 2.554 . S
O68 C58 1.240 . S
O69 La40 2.482 . S
O69 La41 2.757 . S
O69 C58 1.289 . S
O70 La41 2.470 . S
O70 C59 1.258 . S
O71 La40 2.503 . S
O71 C59 1.256 . S
H72 C44 0.930 . S
H73 C45 0.930 . S
H74 C47 0.929 . S
H75 C48 0.929 . S
H76 C53 0.930 . S
H77 C54 0.930 . S
H78 C56 0.929 . S
H79 C57 0.929 . S
La80 C82 2.928 . S
La80 O100 2.521 . S
La80 O101 2.628 . S
La80 O102 2.554 . S
La80 O103 2.757 . S
La80 O104 2.470 . S
La80 O109 2.482 . S
La80 O111 2.503 . S
La81 C91 2.928 . S
La81 O103 2.482 . S
La81 O105 2.503 . S
La81 O106 2.521 . S
La81 O107 2.628 . S
La81 O108 2.554 . S
La81 O109 2.757 . S
La81 O110 2.470 . S
C82 La80 2.928 . S
C82 C83 1.503 . S
C82 O100 1.261 . S
C82 O101 1.243 . S
C83 C82 1.503 . S
C83 C84 1.394 . S
C83 C88 1.373 . S
C84 C83 1.394 . S
C84 C85 1.380 . S
C84 H112 0.930 . S
C85 C84 1.380 . S
C85 C86 1.376 . S
C85 H113 0.930 . S
C86 C85 1.376 . S
C86 C87 1.370 . S
C87 C86 1.370 . S
C87 C88 1.396 . S
C87 H114 0.929 . S
C88 C83 1.373 . S
C88 C87 1.396 . S
C88 H115 0.929 . S
C89 O102 1.240 . S
C89 O103 1.289 . S
C90 O104 1.258 . S
C90 O105 1.256 . S
C91 La81 2.928 . S
C91 C92 1.503 . S
C91 O106 1.261 . S
C91 O107 1.243 . S
C92 C91 1.503 . S
C92 C93 1.394 . S
C92 C97 1.373 . S
C93 C92 1.394 . S
C93 C94 1.380 . S
C93 H116 0.930 . S
C94 C93 1.380 . S
C94 C95 1.376 . S
C94 H117 0.930 . S
C95 C94 1.376 . S
C95 C96 1.370 . S
C96 C95 1.370 . S
C96 C97 1.396 . S
C96 H118 0.929 . S
C97 C92 1.373 . S
C97 C96 1.396 . S
C97 H119 0.929 . S
C98 O108 1.240 . S
C98 O109 1.289 . S
C99 O110 1.258 . S
C99 O111 1.256 . S
O100 La80 2.521 . S
O100 C82 1.261 . S
O101 La80 2.628 . S
O101 C82 1.243 . S
O102 La80 2.554 . S
O102 C89 1.240 . S
O103 La80 2.757 . S
O103 La81 2.482 . S
O103 C89 1.289 . S
O104 La80 2.470 . S
O104 C90 1.258 . S
O105 La81 2.503 . S
O105 C90 1.256 . S
O106 La81 2.521 . S
O106 C91 1.261 . S
O107 La81 2.628 . S
O107 C91 1.243 . S
O108 La81 2.554 . S
O108 C98 1.240 . S
O109 La80 2.482 . S
O109 La81 2.757 . S
O109 C98 1.289 . S
O110 La81 2.470 . S
O110 C99 1.258 . S
O111 La80 2.503 . S
O111 C99 1.256 . S
H112 C84 0.930 . S
H113 C85 0.930 . S
H114 C87 0.929 . S
H115 C88 0.929 . S
H116 C93 0.930 . S
H117 C94 0.930 . S
H118 C96 0.929 . S
H119 C97 0.929 . S
La120 C122 2.928 . S
La120 O140 2.521 . S
La120 O141 2.628 . S
La120 O142 2.554 . S
La120 O143 2.757 . S
La120 O144 2.470 . S
La120 O149 2.482 . S
La120 O151 2.503 . S
La121 C131 2.928 . S
La121 O143 2.482 . S
La121 O145 2.503 . S
La121 O146 2.521 . S
La121 O147 2.628 . S
La121 O148 2.554 . S
La121 O149 2.757 . S
La121 O150 2.470 . S
C122 La120 2.928 . S
C122 C123 1.503 1_554 S
C122 O140 1.261 . S
C122 O141 1.243 . S
C123 C122 1.503 1_556 S
C123 C124 1.394 . S
C123 C128 1.373 . S
C124 C123 1.394 . S
C124 C125 1.380 . S
C124 H152 0.930 . S
C125 C124 1.380 . S
C125 C126 1.376 . S
C125 H153 0.930 . S
C126 C125 1.376 . S
C126 C127 1.370 . S
C127 C126 1.370 . S
C127 C128 1.396 . S
C127 H154 0.929 . S
C128 C123 1.373 . S
C128 C127 1.396 . S
C128 H155 0.929 . S
C129 O142 1.240 . S
C129 O143 1.289 . S
C130 O144 1.258 . S
C130 O145 1.256 . S
C131 La121 2.928 . S
C131 C132 1.503 . S
C131 O146 1.261 . S
C131 O147 1.243 . S
C132 C131 1.503 . S
C132 C133 1.394 . S
C132 C137 1.373 . S
C133 C132 1.394 . S
C133 C134 1.380 . S
C133 H156 0.930 . S
C134 C133 1.380 . S
C134 C135 1.376 . S
C134 H157 0.930 . S
C135 C134 1.376 . S
C135 C136 1.370 . S
C136 C135 1.370 . S
C136 C137 1.396 . S
C136 H158 0.929 . S
C137 C132 1.373 . S
C137 C136 1.396 . S
C137 H159 0.929 . S
C138 O148 1.240 . S
C138 O149 1.289 . S
C139 O150 1.258 . S
C139 O151 1.256 . S
O140 La120 2.521 . S
O140 C122 1.261 . S
O141 La120 2.628 . S
O141 C122 1.243 . S
O142 La120 2.554 . S
O142 C129 1.240 . S
O143 La120 2.757 . S
O143 La121 2.482 . S
O143 C129 1.289 . S
O144 La120 2.470 . S
O144 C130 1.258 . S
O145 La121 2.503 . S
O145 C130 1.256 . S
O146 La121 2.521 . S
O146 C131 1.261 . S
O147 La121 2.628 . S
O147 C131 1.243 . S
O148 La121 2.554 . S
O148 C138 1.240 . S
O149 La120 2.482 . S
O149 La121 2.757 . S
O149 C138 1.289 . S
O150 La121 2.470 . S
O150 C139 1.258 . S
O151 La120 2.503 . S
O151 C139 1.256 . S
H152 C124 0.930 . S
H153 C125 0.930 . S
H154 C127 0.929 . S
H155 C128 0.929 . S
H156 C133 0.930 . S
H157 C134 0.930 . S
H158 C136 0.929 . S
H159 C137 0.929 . S
La160 C162 2.928 . S
La160 O180 2.521 . S
La160 O181 2.628 . S
La160 O182 2.554 . S
La160 O183 2.757 . S
La160 O184 2.470 . S
La160 O189 2.482 . S
La160 O191 2.503 . S
La161 C171 2.928 . S
La161 O183 2.482 . S
La161 O185 2.503 . S
La161 O186 2.521 . S
La161 O187 2.628 . S
La161 O188 2.554 . S
La161 O189 2.757 . S
La161 O190 2.470 . S
C162 La160 2.928 . S
C162 C163 1.503 . S
C162 O180 1.261 . S
C162 O181 1.243 . S
C163 C162 1.503 . S
C163 C164 1.394 . S
C163 C168 1.373 . S
C164 C163 1.394 . S
C164 C165 1.380 . S
C164 H192 0.930 . S
C165 C164 1.380 . S
C165 C166 1.376 . S
C165 H193 0.930 . S
C166 C165 1.376 . S
C166 C167 1.370 . S
C167 C166 1.370 . S
C167 C168 1.396 . S
C167 H194 0.929 . S
C168 C163 1.373 . S
C168 C167 1.396 . S
C168 H195 0.929 . S
C169 O182 1.240 . S
C169 O183 1.289 . S
C170 O184 1.258 . S
C170 O185 1.256 . S
C171 La161 2.928 . S
C171 C172 1.503 . S
C171 O186 1.261 . S
C171 O187 1.243 . S
C172 C171 1.503 . S
C172 C173 1.394 . S
C172 C177 1.373 . S
C173 C172 1.394 . S
C173 C174 1.380 . S
C173 H196 0.930 . S
C174 C173 1.380 . S
C174 C175 1.376 . S
C174 H197 0.930 . S
C175 C174 1.376 . S
C175 C176 1.370 . S
C176 C175 1.370 . S
C176 C177 1.396 . S
C176 H198 0.929 . S
C177 C172 1.373 . S
C177 C176 1.396 . S
C177 H199 0.929 . S
C178 O188 1.240 . S
C178 O189 1.289 . S
C179 O190 1.258 . S
C179 O191 1.256 . S
O180 La160 2.521 . S
O180 C162 1.261 . S
O181 La160 2.628 . S
O181 C162 1.243 . S
O182 La160 2.554 . S
O182 C169 1.240 . S
O183 La160 2.757 . S
O183 La161 2.482 . S
O183 C169 1.289 . S
O184 La160 2.470 . S
O184 C170 1.258 . S
O185 La161 2.503 . S
O185 C170 1.256 . S
O186 La161 2.521 . S
O186 C171 1.261 . S
O187 La161 2.628 . S
O187 C171 1.243 . S
O188 La161 2.554 . S
O188 C178 1.240 . S
O189 La160 2.482 . S
O189 La161 2.757 . S
O189 C178 1.289 . S
O190 La161 2.470 . S
O190 C179 1.258 . S
O191 La160 2.503 . S
O191 C179 1.256 . S
H192 C164 0.930 . S
H193 C165 0.930 . S
H194 C167 0.929 . S
H195 C168 0.929 . S
H196 C173 0.930 . S
H197 C174 0.930 . S
H198 C176 0.929 . S
H199 C177 0.929 . S
La200 C202 2.928 . S
La200 O220 2.521 . S
La200 O221 2.628 . S
La200 O222 2.554 . S
La200 O223 2.757 . S
La200 O224 2.470 . S
La200 O229 2.482 . S
La200 O231 2.503 . S
La201 C211 2.928 . S
La201 O223 2.482 . S
La201 O225 2.503 . S
La201 O226 2.521 . S
La201 O227 2.628 . S
La201 O228 2.554 . S
La201 O229 2.757 . S
La201 O230 2.470 . S
C202 La200 2.928 . S
C202 C203 1.503 . S
C202 O220 1.261 . S
C202 O221 1.243 . S
C203 C202 1.503 . S
C203 C204 1.394 . S
C203 C208 1.373 . S
C204 C203 1.394 . S
C204 C205 1.380 . S
C204 H232 0.930 . S
C205 C204 1.380 . S
C205 C206 1.376 . S
C205 H233 0.930 . S
C206 C205 1.376 . S
C206 C207 1.370 . S
C207 C206 1.370 . S
C207 C208 1.396 . S
C207 H234 0.929 . S
C208 C203 1.373 . S
C208 C207 1.396 . S
C208 H235 0.929 . S
C209 O222 1.240 . S
C209 O223 1.289 . S
C210 O224 1.258 . S
C210 O225 1.256 . S
C211 La201 2.928 . S
C211 C212 1.503 . S
C211 O226 1.261 . S
C211 O227 1.243 . S
C212 C211 1.503 . S
C212 C213 1.394 . S
C212 C217 1.373 . S
C213 C212 1.394 . S
C213 C214 1.380 . S
C213 H236 0.930 . S
C214 C213 1.380 . S
C214 C215 1.376 . S
C214 H237 0.930 . S
C215 C214 1.376 . S
C215 C216 1.370 . S
C216 C215 1.370 . S
C216 C217 1.396 . S
C216 H238 0.929 . S
C217 C212 1.373 . S
C217 C216 1.396 . S
C217 H239 0.929 . S
C218 O228 1.240 . S
C218 O229 1.289 . S
C219 O230 1.258 . S
C219 O231 1.256 . S
O220 La200 2.521 . S
O220 C202 1.261 . S
O221 La200 2.628 . S
O221 C202 1.243 . S
O222 La200 2.554 . S
O222 C209 1.240 . S
O223 La200 2.757 . S
O223 La201 2.482 . S
O223 C209 1.289 . S
O224 La200 2.470 . S
O224 C210 1.258 . S
O225 La201 2.503 . S
O225 C210 1.256 . S
O226 La201 2.521 . S
O226 C211 1.261 . S
O227 La201 2.628 . S
O227 C211 1.243 . S
O228 La201 2.554 . S
O228 C218 1.240 . S
O229 La200 2.482 . S
O229 La201 2.757 . S
O229 C218 1.289 . S
O230 La201 2.470 . S
O230 C219 1.258 . S
O231 La200 2.503 . S
O231 C219 1.256 . S
H232 C204 0.930 . S
H233 C205 0.930 . S
H234 C207 0.929 . S
H235 C208 0.929 . S
H236 C213 0.930 . S
H237 C214 0.930 . S
H238 C216 0.929 . S
H239 C217 0.929 . S
H240 C248 0.929 . S
H241 C250 0.930 . S
H242 C252 0.930 . S
H243 C255 0.929 . S
H244 C258 0.930 . S
H245 C260 0.960 . S
H246 C260 0.960 . S
H247 C260 0.960 . S
C248 H240 0.929 . S
C248 C249 1.377 . S
C248 C250 1.384 . S
C249 C248 1.377 . S
C249 C255 1.390 . S
C250 H241 0.930 . S
C250 C248 1.384 . S
C250 C251 1.372 . S
C251 C250 1.372 . S
C251 C252 1.400 . S
C251 C256 1.490 . S
C252 H242 0.930 . S
C252 C251 1.400 . S
C252 C255 1.386 . S
H253 C269 0.930 . S
H254 C270 0.931 . S
C255 H243 0.929 . S
C255 C249 1.390 . S
C255 C252 1.386 . S
C256 C251 1.490 . S
C256 C258 1.395 . S
C256 C259 1.403 . S
H257 C263 0.930 . S
C258 H244 0.930 . S
C258 C256 1.395 . S
C258 C261 1.403 . S
C259 C256 1.403 . S
C259 C260 1.524 . S
C259 C263 1.400 . S
C260 H245 0.960 . S
C260 H246 0.960 . S
C260 H247 0.960 . S
C260 C259 1.524 . S
C261 C258 1.403 . S
C261 C262 1.392 . S
C261 C265 1.495 . S
C262 C261 1.392 . S
C262 C263 1.385 . S
C262 C264 1.478 . S
C263 H257 0.930 . S
C263 C259 1.400 . S
C263 C262 1.385 . S
C264 C262 1.478 . S
C264 C266 1.381 . S
C264 C270 1.383 . S
C265 C261 1.495 . S
C265 H271 0.959 . S
C265 H272 0.961 . S
C265 H273 0.960 . S
C266 C264 1.381 . S
C266 C267 1.394 . S
C266 H274 0.930 . S
C267 C266 1.394 . S
C267 C268 1.383 . S
C267 H275 0.929 . S
C268 C267 1.383 . S
C268 C269 1.377 . S
C269 H253 0.930 . S
C269 C268 1.377 . S
C269 C270 1.379 . S
C270 H254 0.931 . S
C270 C264 1.383 . S
C270 C269 1.379 . S
H271 C265 0.959 . S
H272 C265 0.961 . S
H273 C265 0.960 . S
H274 C266 0.930 . S
H275 C267 0.929 . S
H276 C284 0.929 . S
H277 C286 0.930 . S
H278 C288 0.930 . S
H279 C291 0.929 . S
H280 C294 0.930 . S
H281 C296 0.960 . S
H282 C296 0.960 . S
H283 C296 0.960 . S
C284 H276 0.929 . S
C284 C285 1.377 . S
C284 C286 1.384 . S
C285 C284 1.377 . S
C285 C291 1.390 . S
C286 H277 0.930 . S
C286 C284 1.384 . S
C286 C287 1.372 . S
C287 C286 1.372 . S
C287 C288 1.400 . S
C287 C292 1.490 . S
C288 H278 0.930 . S
C288 C287 1.400 . S
C288 C291 1.386 . S
H289 C305 0.930 . S
H290 C306 0.931 . S
C291 H279 0.929 . S
C291 C285 1.390 . S
C291 C288 1.386 . S
C292 C287 1.490 . S
C292 C294 1.395 . S
C292 C295 1.403 . S
H293 C299 0.930 . S
C294 H280 0.930 . S
C294 C292 1.395 . S
C294 C297 1.403 . S
C295 C292 1.403 . S
C295 C296 1.524 . S
C295 C299 1.400 . S
C296 H281 0.960 . S
C296 H282 0.960 . S
C296 H283 0.960 . S
C296 C295 1.524 . S
C297 C294 1.403 . S
C297 C298 1.392 . S
C297 C301 1.495 . S
C298 C297 1.392 . S
C298 C299 1.385 . S
C298 C300 1.478 . S
C299 H293 0.930 . S
C299 C295 1.400 . S
C299 C298 1.385 . S
C300 C298 1.478 . S
C300 C302 1.381 . S
C300 C306 1.383 . S
C301 C297 1.495 . S
C301 H307 0.959 . S
C301 H308 0.961 . S
C301 H309 0.960 . S
C302 C300 1.381 . S
C302 C303 1.394 . S
C302 H310 0.930 . S
C303 C302 1.394 . S
C303 C304 1.383 . S
C303 H311 0.929 . S
C304 C303 1.383 . S
C304 C305 1.377 . S
C305 H289 0.930 . S
C305 C304 1.377 . S
C305 C306 1.379 . S
C306 H290 0.931 . S
C306 C300 1.383 . S
C306 C305 1.379 . S
H307 C301 0.959 . S
H308 C301 0.961 . S
H309 C301 0.960 . S
H310 C302 0.930 . S
H311 C303 0.929 . S
H312 C320 0.929 . S
H313 C322 0.930 . S
H314 C324 0.930 . S
H315 C327 0.929 . S
H316 C330 0.930 . S
H317 C332 0.960 . S
H318 C332 0.960 . S
H319 C332 0.972 . S
C320 H312 0.929 . S
C320 C321 1.377 . S
C320 C322 1.384 . S
C321 C320 1.377 . S
C321 C327 1.390 . S
C322 H313 0.930 . S
C322 C320 1.384 . S
C322 C323 1.372 . S
C323 C322 1.372 . S
C323 C324 1.400 . S
C323 C328 1.490 . S
C324 H314 0.930 . S
C324 C323 1.400 . S
C324 C327 1.386 . S
H325 C341 0.930 . S
H326 C342 0.931 . S
C327 H315 0.929 . S
C327 C321 1.390 . S
C327 C324 1.386 . S
C328 C323 1.490 . S
C328 C330 1.395 . S
C328 C331 1.403 1_554 S
H329 C335 0.930 . S
C330 H316 0.930 . S
C330 C328 1.395 . S
C330 C333 1.403 1_554 S
C331 C328 1.403 1_556 S
C331 C332 1.524 . S
C331 C335 1.400 . S
C332 H317 0.960 . S
C332 H318 0.960 . S
C332 H319 0.972 . S
C332 C331 1.524 . S
C333 C330 1.403 1_556 S
C333 C334 1.392 . S
C333 C337 1.492 1_556 S
C334 C333 1.392 . S
C334 C335 1.385 . S
C334 C336 1.478 . S
C335 H329 0.930 . S
C335 C331 1.400 . S
C335 C334 1.385 . S
C336 C334 1.478 . S
C336 C338 1.381 . S
C336 C342 1.383 . S
C337 C333 1.492 1_554 S
C337 H343 0.994 . S
C337 H344 0.950 1_554 S
C337 H345 0.941 1_554 S
C338 C336 1.381 . S
C338 C339 1.394 . S
C338 H346 0.930 . S
C339 C338 1.394 . S
C339 C340 1.383 . S
C339 H347 0.929 . S
C340 C339 1.383 . S
C340 C341 1.377 . S
C341 H325 0.930 . S
C341 C340 1.377 . S
C341 C342 1.379 . S
C342 H326 0.931 . S
C342 C336 1.383 . S
C342 C341 1.379 . S
H343 C337 0.994 . S
H344 C337 0.950 1_556 S
H345 C337 0.941 1_556 S
H346 C338 0.930 . S
H347 C339 0.929 . S
H348 C356 0.929 . S
H349 C358 0.930 . S
H350 C360 0.930 . S
H351 C363 0.929 . S
H352 C366 0.930 . S
H353 C368 0.960 . S
H354 C368 0.960 . S
H355 C368 0.960 . S
C356 H348 0.929 . S
C356 C357 1.377 . S
C356 C358 1.384 . S
C357 C356 1.377 . S
C357 C363 1.390 . S
C358 H349 0.930 . S
C358 C356 1.384 . S
C358 C359 1.372 . S
C359 C358 1.372 . S
C359 C360 1.400 . S
C359 C364 1.490 . S
C360 H350 0.930 . S
C360 C359 1.400 . S
C360 C363 1.386 . S
H361 C377 0.930 . S
H362 C378 0.931 . S
C363 H351 0.929 . S
C363 C357 1.390 . S
C363 C360 1.386 . S
C364 C359 1.490 . S
C364 C366 1.395 . S
C364 C367 1.403 . S
H365 C371 0.930 . S
C366 H352 0.930 . S
C366 C364 1.395 . S
C366 C369 1.403 . S
C367 C364 1.403 . S
C367 C368 1.524 . S
C367 C371 1.400 . S
C368 H353 0.960 . S
C368 H354 0.960 . S
C368 H355 0.960 . S
C368 C367 1.524 . S
C369 C366 1.403 . S
C369 C370 1.392 . S
C369 C373 1.495 . S
C370 C369 1.392 . S
C370 C371 1.385 . S
C370 C372 1.478 . S
C371 H365 0.930 . S
C371 C367 1.400 . S
C371 C370 1.385 . S
C372 C370 1.478 . S
C372 C374 1.381 . S
C372 C378 1.383 . S
C373 C369 1.495 . S
C373 H379 0.959 . S
C373 H380 0.961 . S
C373 H381 0.960 . S
C374 C372 1.381 . S
C374 C375 1.394 . S
C374 H382 0.930 . S
C375 C374 1.394 . S
C375 C376 1.383 . S
C375 H383 0.929 . S
C376 C375 1.383 . S
C376 C377 1.377 . S
C377 H361 0.930 . S
C377 C376 1.377 . S
C377 C378 1.379 . S
C378 H362 0.931 . S
C378 C372 1.383 . S
C378 C377 1.379 . S
H379 C373 0.959 . S
H380 C373 0.961 . S
H381 C373 0.960 . S
H382 C374 0.930 . S
H383 C375 0.929 . S
H384 C392 0.929 . S
H385 C394 0.930 . S
H386 C396 0.930 . S
H387 C399 0.929 . S
H388 C402 0.930 . S
H389 C404 0.960 . S
H390 C404 0.960 . S
H391 C404 0.960 . S
C392 H384 0.929 . S
C392 C393 1.377 . S
C392 C394 1.384 . S
C393 C392 1.377 . S
C393 C399 1.390 . S
C394 H385 0.930 . S
C394 C392 1.384 . S
C394 C395 1.372 . S
C395 C394 1.372 . S
C395 C396 1.400 . S
C395 C400 1.490 . S
C396 H386 0.930 . S
C396 C395 1.400 . S
C396 C399 1.386 . S
H397 C413 0.930 . S
H398 C414 0.931 . S
C399 H387 0.929 . S
C399 C393 1.390 . S
C399 C396 1.386 . S
C400 C395 1.490 . S
C400 C402 1.395 . S
C400 C403 1.403 . S
H401 C407 0.930 . S
C402 H388 0.930 . S
C402 C400 1.395 . S
C402 C405 1.403 . S
C403 C400 1.403 . S
C403 C404 1.524 . S
C403 C407 1.400 . S
C404 H389 0.960 . S
C404 H390 0.960 . S
C404 H391 0.960 . S
C404 C403 1.524 . S
C405 C402 1.403 . S
C405 C406 1.392 . S
C405 C409 1.495 . S
C406 C405 1.392 . S
C406 C407 1.385 . S
C406 C408 1.478 . S
C407 H401 0.930 . S
C407 C403 1.400 . S
C407 C406 1.385 . S
C408 C406 1.478 . S
C408 C410 1.381 . S
C408 C414 1.383 . S
C409 C405 1.495 . S
C409 H415 0.959 . S
C409 H416 0.961 . S
C409 H417 0.960 . S
C410 C408 1.381 . S
C410 C411 1.394 . S
C410 H418 0.930 . S
C411 C410 1.394 . S
C411 C412 1.383 . S
C411 H419 0.929 . S
C412 C411 1.383 . S
C412 C413 1.377 . S
C413 H397 0.930 . S
C413 C412 1.377 . S
C413 C414 1.379 . S
C414 H398 0.931 . S
C414 C408 1.383 . S
C414 C413 1.379 . S
H415 C409 0.959 . S
H416 C409 0.961 . S
H417 C409 0.960 . S
H418 C410 0.930 . S
H419 C411 0.929 . S
H420 C428 0.929 . S
H421 C430 0.930 . S
H422 C432 0.930 . S
H423 C435 0.929 . S
H424 C438 0.930 . S
H425 C440 0.960 . S
H426 C440 0.960 . S
H427 C440 0.960 . S
C428 H420 0.929 . S
C428 C429 1.377 . S
C428 C430 1.384 . S
C429 C428 1.377 . S
C429 C435 1.390 . S
C430 H421 0.930 . S
C430 C428 1.384 . S
C430 C431 1.372 . S
C431 C430 1.372 . S
C431 C432 1.400 . S
C431 C436 1.490 . S
C432 H422 0.930 . S
C432 C431 1.400 . S
C432 C435 1.386 . S
H433 C449 0.930 . S
H434 C450 0.931 . S
C435 H423 0.929 . S
C435 C429 1.390 . S
C435 C432 1.386 . S
C436 C431 1.490 . S
C436 C438 1.395 . S
C436 C439 1.403 . S
H437 C443 0.930 . S
C438 H424 0.930 . S
C438 C436 1.395 . S
C438 C441 1.403 . S
C439 C436 1.403 . S
C439 C440 1.524 . S
C439 C443 1.400 . S
C440 H425 0.960 . S
C440 H426 0.960 . S
C440 H427 0.960 . S
C440 C439 1.524 . S
C441 C438 1.403 . S
C441 C442 1.392 . S
C441 C445 1.495 . S
C442 C441 1.392 . S
C442 C443 1.385 . S
C442 C444 1.478 . S
C443 H437 0.930 . S
C443 C439 1.400 . S
C443 C442 1.385 . S
C444 C442 1.478 . S
C444 C446 1.381 . S
C444 C450 1.383 . S
C445 C441 1.495 . S
C445 H451 0.959 . S
C445 H452 0.961 . S
C445 H453 0.960 . S
C446 C444 1.381 . S
C446 C447 1.394 . S
C446 H454 0.930 . S
C447 C446 1.394 . S
C447 C448 1.383 . S
C447 H455 0.929 . S
C448 C447 1.383 . S
C448 C449 1.377 . S
C449 H433 0.930 . S
C449 C448 1.377 . S
C449 C450 1.379 . S
C450 H434 0.931 . S
C450 C444 1.383 . S
C450 C449 1.379 . S
H451 C445 0.959 . S
H452 C445 0.961 . S
H453 C445 0.960 . S
H454 C446 0.930 . S
H455 C447 0.929 . S
H456 C464 0.929 . S
H457 C466 0.930 . S
H458 C468 0.930 . S
H459 C471 0.929 . S
H460 C474 0.930 . S
H461 C476 0.960 . S
H462 C476 0.960 . S
H463 C476 0.960 . S
C464 H456 0.929 . S
C464 C465 1.377 . S
C464 C466 1.384 . S
C465 C464 1.377 . S
C465 C471 1.390 . S
C466 H457 0.930 . S
C466 C464 1.384 . S
C466 C467 1.372 . S
C467 C466 1.372 . S
C467 C468 1.400 . S
C467 C472 1.490 . S
C468 H458 0.930 . S
C468 C467 1.400 . S
C468 C471 1.386 . S
H469 C485 0.930 . S
H470 C486 0.931 . S
C471 H459 0.929 . S
C471 C465 1.390 . S
C471 C468 1.386 . S
C472 C467 1.490 . S
C472 C474 1.395 . S
C472 C475 1.403 . S
H473 C479 0.930 . S
C474 H460 0.930 . S
C474 C472 1.395 . S
C474 C477 1.403 . S
C475 C472 1.403 . S
C475 C476 1.524 . S
C475 C479 1.400 . S
C476 H461 0.960 . S
C476 H462 0.960 . S
C476 H463 0.960 . S
C476 C475 1.524 . S
C477 C474 1.403 . S
C477 C478 1.392 . S
C477 C481 1.495 . S
C478 C477 1.392 . S
C478 C479 1.385 . S
C478 C480 1.478 . S
C479 H473 0.930 . S
C479 C475 1.400 . S
C479 C478 1.385 . S
C480 C478 1.478 . S
C480 C482 1.381 . S
C480 C486 1.383 . S
C481 C477 1.495 . S
C481 H487 0.959 . S
C481 H488 0.961 . S
C481 H489 0.960 . S
C482 C480 1.381 . S
C482 C483 1.394 . S
C482 H490 0.930 . S
C483 C482 1.394 . S
C483 C484 1.383 . S
C483 H491 0.929 . S
C484 C483 1.383 . S
C484 C485 1.377 . S
C485 H469 0.930 . S
C485 C484 1.377 . S
C485 C486 1.379 . S
C486 H470 0.931 . S
C486 C480 1.383 . S
C486 C485 1.379 . S
H487 C481 0.959 . S
H488 C481 0.961 . S
H489 C481 0.960 . S
H490 C482 0.930 . S
H491 C483 0.929 . S
H492 C500 0.929 . S
H493 C502 0.930 . S
H494 C504 0.930 . S
H495 C507 0.929 . S
H496 C510 0.930 . S
H497 C512 0.960 . S
H498 C512 0.960 . S
H499 C512 0.960 . S
C500 H492 0.929 . S
C500 C501 1.377 . S
C500 C502 1.384 . S
C501 C500 1.377 . S
C501 C507 1.390 . S
C502 H493 0.930 . S
C502 C500 1.384 . S
C502 C503 1.372 . S
C503 C502 1.372 . S
C503 C504 1.400 . S
C503 C508 1.490 . S
C504 H494 0.930 . S
C504 C503 1.400 . S
C504 C507 1.386 . S
H505 C521 0.930 . S
H506 C522 0.931 . S
C507 H495 0.929 . S
C507 C501 1.390 . S
C507 C504 1.386 . S
C508 C503 1.490 . S
C508 C510 1.395 . S
C508 C511 1.403 . S
H509 C515 0.930 . S
C510 H496 0.930 . S
C510 C508 1.395 . S
C510 C513 1.403 . S
C511 C508 1.403 . S
C511 C512 1.524 . S
C511 C515 1.400 . S
C512 H497 0.960 . S
C512 H498 0.960 . S
C512 H499 0.960 . S
C512 C511 1.524 . S
C513 C510 1.403 . S
C513 C514 1.392 . S
C513 C517 1.495 . S
C514 C513 1.392 . S
C514 C515 1.385 . S
C514 C516 1.478 . S
C515 H509 0.930 . S
C515 C511 1.400 . S
C515 C514 1.385 . S
C516 C514 1.478 . S
C516 C518 1.381 1_455 S
C516 C522 1.383 . S
C517 C513 1.495 . S
C517 H523 0.959 . S
C517 H524 0.961 . S
C517 H525 0.960 . S
C518 C516 1.381 1_655 S
C518 C519 1.394 . S
C518 H526 0.930 . S
C519 C518 1.394 . S
C519 C520 1.383 . S
C519 H527 0.929 . S
C520 C519 1.383 . S
C520 C521 1.377 . S
C521 H505 0.930 . S
C521 C520 1.377 . S
C521 C522 1.379 1_655 S
C522 H506 0.931 . S
C522 C516 1.383 . S
C522 C521 1.379 1_455 S
H523 C517 0.959 . S
H524 C517 0.961 . S
H525 C517 0.960 . S
H526 C518 0.930 . S
H527 C519 0.929 . S
H528 C536 0.929 . S
H529 C538 0.930 . S
H530 C540 0.930 . S
H531 C543 0.929 . S
H532 C546 0.930 . S
H533 C548 0.960 . S
H534 C548 0.960 . S
H535 C548 0.960 1_545 S
C536 H528 0.929 . S
C536 C537 1.377 1_565 S
C536 C538 1.384 . S
C537 C536 1.377 1_545 S
C537 C543 1.390 . S
C538 H529 0.930 . S
C538 C536 1.384 . S
C538 C539 1.372 . S
C539 C538 1.372 . S
C539 C540 1.400 1_565 S
C539 C544 1.490 . S
C540 H530 0.930 . S
C540 C539 1.400 1_545 S
C540 C543 1.386 . S
H541 C557 0.930 . S
H542 C558 0.931 . S
C543 H531 0.929 . S
C543 C537 1.390 . S
C543 C540 1.386 . S
C544 C539 1.490 . S
C544 C546 1.395 . S
C544 C547 1.403 . S
H545 C551 0.930 . S
C546 H532 0.930 . S
C546 C544 1.395 . S
C546 C549 1.403 . S
C547 C544 1.403 . S
C547 C548 1.524 . S
C547 C551 1.400 . S
C548 H533 0.960 . S
C548 H534 0.960 . S
C548 H535 0.960 1_565 S
C548 C547 1.524 . S
C549 C546 1.403 . S
C549 C550 1.392 . S
C549 C553 1.495 . S
C550 C549 1.392 . S
C550 C551 1.385 . S
C550 C552 1.478 . S
C551 H545 0.930 . S
C551 C547 1.400 . S
C551 C550 1.385 . S
C552 C550 1.478 . S
C552 C554 1.381 . S
C552 C558 1.383 . S
C553 C549 1.495 . S
C553 H559 0.959 . S
C553 H560 0.961 . S
C553 H561 0.960 . S
C554 C552 1.381 . S
C554 C555 1.394 . S
C554 H562 0.930 . S
C555 C554 1.394 . S
C555 C556 1.383 . S
C555 H563 0.929 . S
C556 C555 1.383 . S
C556 C557 1.377 . S
C557 H541 0.930 . S
C557 C556 1.377 . S
C557 C558 1.379 . S
C558 H542 0.931 . S
C558 C552 1.383 . S
C558 C557 1.379 . S
H559 C553 0.959 . S
H560 C553 0.961 . S
H561 C553 0.960 . S
H562 C554 0.930 . S
H563 C555 0.929 . S
H564 C572 0.929 . S
H565 C574 0.930 . S
H566 C576 0.930 . S
H567 C579 0.929 . S
H568 C582 0.930 . S
H569 C584 0.960 . S
H570 C584 0.960 . S
H571 C584 0.960 . S
C572 H564 0.929 . S
C572 C573 1.377 . S
C572 C574 1.384 . S
C573 C572 1.377 . S
C573 C579 1.390 . S
C574 H565 0.930 . S
C574 C572 1.384 . S
C574 C575 1.372 . S
C575 C574 1.372 . S
C575 C576 1.400 . S
C575 C580 1.490 . S
C576 H566 0.930 . S
C576 C575 1.400 . S
C576 C579 1.386 . S
H577 C593 0.930 . S
H578 C594 0.931 . S
C579 H567 0.929 . S
C579 C573 1.390 . S
C579 C576 1.386 . S
C580 C575 1.490 . S
C580 C582 1.395 . S
C580 C583 1.403 . S
H581 C587 0.930 . S
C582 H568 0.930 . S
C582 C580 1.395 . S
C582 C585 1.403 . S
C583 C580 1.403 . S
C583 C584 1.524 . S
C583 C587 1.400 . S
C584 H569 0.960 . S
C584 H570 0.960 . S
C584 H571 0.960 . S
C584 C583 1.524 . S
C585 C582 1.403 . S
C585 C586 1.392 . S
C585 C589 1.495 . S
C586 C585 1.392 . S
C586 C587 1.385 . S
C586 C588 1.478 . S
C587 H581 0.930 . S
C587 C583 1.400 . S
C587 C586 1.385 . S
C588 C586 1.478 . S
C588 C590 1.381 . S
C588 C594 1.383 . S
C589 C585 1.495 . S
C589 H595 0.959 . S
C589 H596 0.961 . S
C589 H597 0.960 . S
C590 C588 1.381 . S
C590 C591 1.394 . S
C590 H598 0.930 . S
C591 C590 1.394 . S
C591 C592 1.383 . S
C591 H599 0.929 . S
C592 C591 1.383 . S
C592 C593 1.377 . S
C593 H577 0.930 . S
C593 C592 1.377 . S
C593 C594 1.379 . S
C594 H578 0.931 . S
C594 C588 1.383 . S
C594 C593 1.379 . S
H595 C589 0.959 . S
H596 C589 0.961 . S
H597 C589 0.960 . S
H598 C590 0.930 . S
H599 C591 0.929 . S
H600 C608 0.929 . S
H601 C610 0.930 . S
H602 C612 0.930 . S
H603 C615 0.929 . S
H604 C618 0.930 . S
H605 C620 0.960 . S
H606 C620 0.960 . S
H607 C620 0.960 . S
C608 H600 0.929 . S
C608 C609 1.377 1_655 S
C608 C610 1.384 . S
C609 C608 1.377 1_455 S
C609 C615 1.390 . S
C610 H601 0.930 . S
C610 C608 1.384 . S
C610 C611 1.372 . S
C611 C610 1.372 . S
C611 C612 1.400 1_655 S
C611 C616 1.490 . S
C612 H602 0.930 . S
C612 C611 1.400 1_455 S
C612 C615 1.386 . S
H613 C629 0.930 . S
H614 C630 0.931 . S
C615 H603 0.929 . S
C615 C609 1.390 . S
C615 C612 1.386 . S
C616 C611 1.490 . S
C616 C618 1.395 . S
C616 C619 1.403 . S
H617 C623 0.930 . S
C618 H604 0.930 . S
C618 C616 1.395 . S
C618 C621 1.403 . S
C619 C616 1.403 . S
C619 C620 1.524 . S
C619 C623 1.400 . S
C620 H605 0.960 . S
C620 H606 0.960 . S
C620 H607 0.960 . S
C620 C619 1.524 . S
C621 C618 1.403 . S
C621 C622 1.392 . S
C621 C625 1.495 . S
C622 C621 1.392 . S
C622 C623 1.385 . S
C622 C624 1.478 . S
C623 H617 0.930 . S
C623 C619 1.400 . S
C623 C622 1.385 . S
C624 C622 1.478 . S
C624 C626 1.381 . S
C624 C630 1.383 . S
C625 C621 1.495 . S
C625 H631 0.959 . S
C625 H632 0.961 . S
C625 H633 0.960 . S
C626 C624 1.381 . S
C626 C627 1.394 . S
C626 H634 0.930 . S
C627 C626 1.394 . S
C627 C628 1.383 . S
C627 H635 0.929 . S
C628 C627 1.383 . S
C628 C629 1.377 . S
C629 H613 0.930 . S
C629 C628 1.377 . S
C629 C630 1.379 . S
C630 H614 0.931 . S
C630 C624 1.383 . S
C630 C629 1.379 . S
H631 C625 0.959 . S
H632 C625 0.961 . S
H633 C625 0.960 . S
H634 C626 0.930 . S
H635 C627 0.929 . S
H636 C644 0.929 . S
H637 C646 0.930 . S
H638 C648 0.930 . S
H639 C651 0.929 . S
H640 C654 0.930 . S
H641 C656 0.960 . S
H642 C656 0.960 . S
H643 C656 0.960 . S
C644 H636 0.929 . S
C644 C645 1.377 1_545 S
C644 C646 1.384 . S
C645 C644 1.377 1_565 S
C645 C651 1.390 . S
C646 H637 0.930 . S
C646 C644 1.384 . S
C646 C647 1.372 . S
C647 C646 1.372 . S
C647 C648 1.400 1_545 S
C647 C652 1.490 . S
C648 H638 0.930 . S
C648 C647 1.400 1_565 S
C648 C651 1.386 . S
H649 C665 0.930 . S
H650 C666 0.931 . S
C651 H639 0.929 . S
C651 C645 1.390 . S
C651 C648 1.386 . S
C652 C647 1.490 . S
C652 C654 1.395 . S
C652 C655 1.403 . S
H653 C659 0.930 . S
C654 H640 0.930 . S
C654 C652 1.395 . S
C654 C657 1.403 . S
C655 C652 1.403 . S
C655 C656 1.524 . S
C655 C659 1.400 . S
C656 H641 0.960 . S
C656 H642 0.960 . S
C656 H643 0.960 . S
C656 C655 1.524 . S
C657 C654 1.403 . S
C657 C658 1.392 . S
C657 C661 1.495 . S
C658 C657 1.392 . S
C658 C659 1.385 . S
C658 C660 1.478 . S
C659 H653 0.930 . S
C659 C655 1.400 . S
C659 C658 1.385 . S
C660 C658 1.478 . S
C660 C662 1.381 . S
C660 C666 1.383 . S
C661 C657 1.495 . S
C661 H667 0.959 . S
C661 H668 0.961 . S
C661 H669 0.960 . S
C662 C660 1.381 . S
C662 C663 1.394 . S
C662 H670 0.930 . S
C663 C662 1.394 . S
C663 C664 1.383 . S
C663 H671 0.929 . S
C664 C663 1.383 . S
C664 C665 1.377 . S
C665 H649 0.930 . S
C665 C664 1.377 . S
C665 C666 1.379 . S
C666 H650 0.931 . S
C666 C660 1.383 . S
C666 C665 1.379 . S
H667 C661 0.959 . S
H668 C661 0.961 . S
H669 C661 0.960 . S
H670 C662 0.930 . S
H671 C663 0.929 . S
H672 C680 0.929 . S
H673 C682 0.930 . S
H674 C684 0.930 . S
H675 C687 0.929 . S
H676 C690 0.930 . S
H677 C692 0.960 . S
H678 C692 0.960 . S
H679 C692 0.960 . S
C680 H672 0.929 . S
C680 C681 1.377 . S
C680 C682 1.384 . S
C681 C680 1.377 . S
C681 C687 1.390 . S
C682 H673 0.930 . S
C682 C680 1.384 . S
C682 C683 1.372 . S
C683 C682 1.372 . S
C683 C684 1.400 . S
C683 C688 1.490 . S
C684 H674 0.930 . S
C684 C683 1.400 . S
C684 C687 1.386 . S
H685 C701 0.930 . S
H686 C702 0.931 . S
C687 H675 0.929 . S
C687 C681 1.390 . S
C687 C684 1.386 . S
C688 C683 1.490 . S
C688 C690 1.395 . S
C688 C691 1.403 . S
H689 C695 0.930 . S
C690 H676 0.930 . S
C690 C688 1.395 . S
C690 C693 1.403 . S
C691 C688 1.403 . S
C691 C692 1.524 . S
C691 C695 1.400 . S
C692 H677 0.960 . S
C692 H678 0.960 . S
C692 H679 0.960 . S
C692 C691 1.524 . S
C693 C690 1.403 . S
C693 C694 1.392 . S
C693 C697 1.495 . S
C694 C693 1.392 . S
C694 C695 1.385 . S
C694 C696 1.478 . S
C695 H689 0.930 . S
C695 C691 1.400 . S
C695 C694 1.385 . S
C696 C694 1.478 . S
C696 C698 1.381 . S
C696 C702 1.383 . S
C697 C693 1.495 . S
C697 H703 0.959 . S
C697 H704 0.961 . S
C697 H705 0.960 . S
C698 C696 1.381 . S
C698 C699 1.440 . S
C698 H706 0.930 . S
C699 C698 1.440 . S
C699 C700 1.372 1_556 S
C699 H707 0.898 1_556 S
C700 C699 1.372 1_554 S
C700 C701 1.377 1_554 S
C701 H685 0.930 . S
C701 C700 1.377 1_556 S
C701 C702 1.379 . S
C702 H686 0.931 . S
C702 C696 1.383 . S
C702 C701 1.379 . S
H703 C697 0.959 . S
H704 C697 0.961 . S
H705 C697 0.960 . S
H706 C698 0.930 . S
H707 C699 0.898 1_554 S
H708 C716 0.929 . S
H709 C718 0.930 . S
H710 C720 0.930 . S
H711 C723 0.929 . S
H712 C726 0.930 . S
H713 C728 0.960 . S
H714 C728 0.960 . S
H715 C728 0.960 . S
C716 H708 0.929 . S
C716 C717 1.377 . S
C716 C718 1.384 . S
C717 C716 1.377 . S
C717 C723 1.390 . S
C718 H709 0.930 . S
C718 C716 1.384 . S
C718 C719 1.372 . S
C719 C718 1.372 . S
C719 C720 1.400 . S
C719 C724 1.490 . S
C720 H710 0.930 . S
C720 C719 1.400 . S
C720 C723 1.386 . S
H721 C737 0.930 . S
H722 C738 0.931 . S
C723 H711 0.929 . S
C723 C717 1.390 . S
C723 C720 1.386 . S
C724 C719 1.490 . S
C724 C726 1.395 . S
C724 C727 1.403 1_655 S
H725 C731 0.930 . S
C726 H712 0.930 . S
C726 C724 1.395 . S
C726 C729 1.403 . S
C727 C724 1.403 1_455 S
C727 C728 1.524 . S
C727 C731 1.400 . S
C728 H713 0.960 . S
C728 H714 0.960 . S
C728 H715 0.960 . S
C728 C727 1.524 . S
C729 C726 1.403 . S
C729 C730 1.392 1_655 S
C729 C733 1.495 . S
C730 C729 1.392 1_455 S
C730 C731 1.385 . S
C730 C732 1.478 . S
C731 H725 0.930 . S
C731 C727 1.400 . S
C731 C730 1.385 . S
C732 C730 1.478 . S
C732 C734 1.381 . S
C732 C738 1.383 . S
C733 C729 1.495 . S
C733 H739 0.959 . S
C733 H740 0.961 . S
C733 H741 0.960 1_655 S
C734 C732 1.381 . S
C734 C735 1.394 . S
C734 H742 0.930 . S
C735 C734 1.394 . S
C735 C736 1.383 . S
C735 H743 0.929 . S
C736 C735 1.383 . S
C736 C737 1.377 . S
C737 H721 0.930 . S
C737 C736 1.377 . S
C737 C738 1.379 . S
C738 H722 0.931 . S
C738 C732 1.383 . S
C738 C737 1.379 . S
H739 C733 0.959 . S
H740 C733 0.961 . S
H741 C733 0.960 1_455 S
H742 C734 0.930 . S
H743 C735 0.929 . S
H744 C752 0.929 . S
H745 C754 0.930 . S
H746 C756 0.930 . S
H747 C759 0.929 . S
H748 C762 0.930 . S
H749 C764 0.960 . S
H750 C764 0.960 . S
H751 C764 0.960 . S
C752 H744 0.929 . S
C752 C753 1.377 . S
C752 C754 1.384 . S
C753 C752 1.377 . S
C753 C759 1.390 . S
C754 H745 0.930 . S
C754 C752 1.384 . S
C754 C755 1.372 . S
C755 C754 1.372 . S
C755 C756 1.400 . S
C755 C760 1.490 . S
C756 H746 0.930 . S
C756 C755 1.400 . S
C756 C759 1.386 . S
H757 C773 0.930 . S
H758 C774 0.931 . S
C759 H747 0.929 . S
C759 C753 1.390 . S
C759 C756 1.386 . S
C760 C755 1.490 . S
C760 C762 1.395 1_565 S
C760 C763 1.403 . S
H761 C767 0.930 . S
C762 H748 0.930 . S
C762 C760 1.395 1_545 S
C762 C765 1.403 . S
C763 C760 1.403 . S
C763 C764 1.524 . S
C763 C767 1.400 . S
C764 H749 0.960 . S
C764 H750 0.960 . S
C764 H751 0.960 . S
C764 C763 1.524 . S
C765 C762 1.403 . S
C765 C766 1.392 . S
C765 C769 1.495 . S
C766 C765 1.392 . S
C766 C767 1.385 1_545 S
C766 C768 1.478 . S
C767 H761 0.930 . S
C767 C763 1.400 . S
C767 C766 1.385 1_565 S
C768 C766 1.478 . S
C768 C770 1.381 . S
C768 C774 1.383 . S
C769 C765 1.495 . S
C769 H775 0.959 . S
C769 H776 0.961 . S
C769 H777 0.960 . S
C770 C768 1.381 . S
C770 C771 1.394 . S
C770 H778 0.930 . S
C771 C770 1.394 . S
C771 C772 1.383 . S
C771 H779 0.929 . S
C772 C771 1.383 . S
C772 C773 1.377 . S
C773 H757 0.930 . S
C773 C772 1.377 . S
C773 C774 1.379 . S
C774 H758 0.931 . S
C774 C768 1.383 . S
C774 C773 1.379 . S
H775 C769 0.959 . S
H776 C769 0.961 . S
H777 C769 0.960 . S
H778 C770 0.930 . S
H779 C771 0.929 . S
H780 C788 0.929 . S
H781 C790 0.930 . S
H782 C792 0.930 . S
H783 C795 0.929 . S
H784 C798 0.930 . S
H785 C800 0.960 . S
H786 C800 0.960 . S
H787 C800 0.960 . S
C788 H780 0.929 . S
C788 C789 1.377 . S
C788 C790 1.384 . S
C789 C788 1.377 . S
C789 C795 1.390 . S
C790 H781 0.930 . S
C790 C788 1.384 . S
C790 C791 1.372 . S
C791 C790 1.372 . S
C791 C792 1.400 . S
C791 C796 1.490 . S
C792 H782 0.930 . S
C792 C791 1.400 . S
C792 C795 1.386 . S
H793 C809 0.930 . S
H794 C810 0.931 . S
C795 H783 0.929 . S
C795 C789 1.390 . S
C795 C792 1.386 . S
C796 C791 1.490 . S
C796 C798 1.395 . S
C796 C799 1.403 . S
H797 C803 0.930 . S
C798 H784 0.930 . S
C798 C796 1.395 . S
C798 C801 1.403 . S
C799 C796 1.403 . S
C799 C800 1.524 . S
C799 C803 1.400 . S
C800 H785 0.960 . S
C800 H786 0.960 . S
C800 H787 0.960 . S
C800 C799 1.524 . S
C801 C798 1.403 . S
C801 C802 1.392 . S
C801 C805 1.495 . S
C802 C801 1.392 . S
C802 C803 1.385 . S
C802 C804 1.478 . S
C803 H797 0.930 . S
C803 C799 1.400 . S
C803 C802 1.385 . S
C804 C802 1.478 . S
C804 C806 1.381 . S
C804 C810 1.383 . S
C805 C801 1.495 . S
C805 H811 0.959 . S
C805 H812 0.961 . S
C805 H813 0.960 . S
C806 C804 1.381 . S
C806 C807 1.394 1_556 S
C806 H814 0.930 . S
C807 C806 1.394 1_554 S
C807 C808 1.383 . S
C807 H815 0.929 . S
C808 C807 1.383 . S
C808 C809 1.377 1_554 S
C809 H793 0.930 . S
C809 C808 1.377 1_556 S
C809 C810 1.379 . S
C810 H794 0.931 . S
C810 C804 1.383 . S
C810 C809 1.379 . S
H811 C805 0.959 . S
H812 C805 0.961 . S
H813 C805 0.960 . S
H814 C806 0.930 . S
H815 C807 0.929 . S
H816 C824 0.929 . S
H817 C826 0.930 . S
H818 C828 0.930 . S
H819 C831 0.929 . S
H820 C834 0.930 . S
H821 C836 0.960 . S
H822 C836 0.960 . S
H823 C836 0.960 . S
C824 H816 0.929 . S
C824 C825 1.377 . S
C824 C826 1.384 . S
C825 C824 1.377 . S
C825 C831 1.390 . S
C826 H817 0.930 . S
C826 C824 1.384 . S
C826 C827 1.372 . S
C827 C826 1.372 . S
C827 C828 1.400 . S
C827 C832 1.490 . S
C828 H818 0.930 . S
C828 C827 1.400 . S
C828 C831 1.386 . S
H829 C845 0.930 . S
H830 C846 0.931 . S
C831 H819 0.929 . S
C831 C825 1.390 . S
C831 C828 1.386 . S
C832 C827 1.490 . S
C832 C834 1.395 1_455 S
C832 C835 1.403 . S
H833 C839 0.930 . S
C834 H820 0.930 . S
C834 C832 1.395 1_655 S
C834 C837 1.403 . S
C835 C832 1.403 . S
C835 C836 1.524 . S
C835 C839 1.400 . S
C836 H821 0.960 . S
C836 H822 0.960 . S
C836 H823 0.960 . S
C836 C835 1.524 . S
C837 C834 1.403 . S
C837 C838 1.392 . S
C837 C841 1.495 . S
C838 C837 1.392 . S
C838 C839 1.385 1_655 S
C838 C840 1.478 . S
C839 H833 0.930 . S
C839 C835 1.400 . S
C839 C838 1.385 1_455 S
C840 C838 1.478 . S
C840 C842 1.381 . S
C840 C846 1.383 . S
C841 C837 1.495 . S
C841 H847 0.959 . S
C841 H848 0.961 . S
C841 H849 0.960 . S
C842 C840 1.381 . S
C842 C843 1.394 . S
C842 H850 0.930 . S
C843 C842 1.394 . S
C843 C844 1.383 . S
C843 H851 0.929 . S
C844 C843 1.383 . S
C844 C845 1.377 . S
C845 H829 0.930 . S
C845 C844 1.377 . S
C845 C846 1.379 . S
C846 H830 0.931 . S
C846 C840 1.383 . S
C846 C845 1.379 . S
H847 C841 0.959 . S
H848 C841 0.961 . S
H849 C841 0.960 . S
H850 C842 0.930 . S
H851 C843 0.929 . S
H852 C860 0.929 . S
H853 C862 0.930 . S
H854 C864 0.930 1_565 S
H855 C867 0.929 . S
H856 C870 0.930 . S
H857 C872 0.960 1_565 S
H858 C872 0.960 . S
H859 C872 0.960 1_565 S
C860 H852 0.929 . S
C860 C861 1.377 . S
C860 C862 1.384 . S
C861 C860 1.377 . S
C861 C867 1.390 . S
C862 H853 0.930 . S
C862 C860 1.384 . S
C862 C863 1.372 . S
C863 C862 1.372 . S
C863 C864 1.400 . S
C863 C868 1.490 . S
C864 H854 0.930 1_545 S
C864 C863 1.400 . S
C864 C867 1.386 . S
H865 C881 0.930 . S
H866 C882 0.931 . S
C867 H855 0.929 . S
C867 C861 1.390 . S
C867 C864 1.386 . S
C868 C863 1.490 . S
C868 C870 1.395 . S
C868 C871 1.403 . S
H869 C875 0.930 . S
C870 H856 0.930 . S
C870 C868 1.395 . S
C870 C873 1.403 . S
C871 C868 1.403 . S
C871 C872 1.524 . S
C871 C875 1.400 1_545 S
C872 H857 0.960 1_545 S
C872 H858 0.960 . S
C872 H859 0.960 1_545 S
C872 C871 1.524 . S
C873 C870 1.403 . S
C873 C874 1.392 1_545 S
C873 C877 1.495 . S
C874 C873 1.392 1_565 S
C874 C875 1.385 . S
C874 C876 1.478 . S
C875 H869 0.930 . S
C875 C871 1.400 1_565 S
C875 C874 1.385 . S
C876 C874 1.478 . S
C876 C878 1.381 . S
C876 C882 1.383 . S
C877 C873 1.495 . S
C877 H883 0.959 . S
C877 H884 0.961 1_545 S
C877 H885 0.960 . S
C878 C876 1.381 . S
C878 C879 1.394 . S
C878 H886 0.930 1_565 S
C879 C878 1.394 . S
C879 C880 1.383 . S
C879 H887 0.929 . S
C880 C879 1.383 . S
C880 C881 1.377 . S
C881 H865 0.930 . S
C881 C880 1.377 . S
C881 C882 1.379 . S
C882 H866 0.931 . S
C882 C876 1.383 . S
C882 C881 1.379 . S
H883 C877 0.959 . S
H884 C877 0.961 1_565 S
H885 C877 0.960 . S
H886 C878 0.930 1_545 S
H887 C879 0.929 . S
C249 C179 1.324 . S
C268 C6 1.323 . S
C285 C206 1.314 . S
C304 C59 1.322 . S
C321 C19 1.324 . S
C340 C86 1.313 . S
C357 C46 1.316 . S
C376 C139 1.322 . S
C393 C99 1.323 . S
C412 C166 1.308 . S
C429 C126 1.317 . S
C448 C219 1.323 . S
C465 C9 0.802 . S
C484 C138 0.821 . S
C501 C169 0.812 . S
C520 C58 0.848 . S
C537 C218 0.820 . S
C556 C89 0.793 . S
C573 C98 0.828 . S
C592 C209 0.868 . S
C609 C18 0.821 . S
C628 C129 0.805 . S
C645 C178 0.821 . S
C664 C49 0.804 . S
C681 C215 0.750 . S
C700 C15 0.733 . S
C717 C50 1.684 . S
C736 C10 1.684 . S
C753 C95 0.741 . S
C772 C55 0.772 . S
C789 C90 1.681 . S
C808 C130 1.679 . S
C825 C175 0.740 . S
C844 C135 0.777 . S
C861 C210 1.681 . S
C880 C170 1.679 . S
