# Generated by pormake.
# Topology whp, (6)-cn, num edge types: 1
# Building blocks:
#     Node 0, Type 0, BuildingBlock: OJICUG_clean_sbu_0, # of connection points: 6
#     Node 1, Type 0, BuildingBlock: OJICUG_clean_sbu_0, # of connection points: 6
#     Node 2, Type 0, BuildingBlock: OJICUG_clean_sbu_0, # of connection points: 6
#     Node 3, Type 0, BuildingBlock: OJICUG_clean_sbu_0, # of connection points: 6
#     Node 4, Type 0, BuildingBlock: OJICUG_clean_sbu_0, # of connection points: 6
#     Node 5, Type 0, BuildingBlock: OJICUG_clean_sbu_0, # of connection points: 6
#     Node 6, Type 0, BuildingBlock: OJICUG_clean_sbu_0, # of connection points: 6
#     Node 7, Type 0, BuildingBlock: OJICUG_clean_sbu_0, # of connection points: 6
#     Node 8, Type 0, BuildingBlock: OJICUG_clean_sbu_0, # of connection points: 6
#     Node 9, Type 0, BuildingBlock: OJICUG_clean_sbu_0, # of connection points: 6
#     Node 10, Type 0, BuildingBlock: OJICUG_clean_sbu_0, # of connection points: 6
#     Node 11, Type 0, BuildingBlock: OJICUG_clean_sbu_0, # of connection points: 6
#     Node 12, Type 0, BuildingBlock: OJICUG_clean_sbu_0, # of connection points: 6
#     Node 13, Type 0, BuildingBlock: OJICUG_clean_sbu_0, # of connection points: 6
#     Node 14, Type 0, BuildingBlock: OJICUG_clean_sbu_0, # of connection points: 6
#     Node 15, Type 0, BuildingBlock: OJICUG_clean_sbu_0, # of connection points: 6
#     Edge 16, Type (0, 0), BuildingBlock: CIFDUS_clean_linker_0, # of connection points: 2
#     Edge 17, Type (0, 0), BuildingBlock: CIFDUS_clean_linker_0, # of connection points: 2
#     Edge 18, Type (0, 0), BuildingBlock: CIFDUS_clean_linker_0, # of connection points: 2
#     Edge 19, Type (0, 0), BuildingBlock: CIFDUS_clean_linker_0, # of connection points: 2
#     Edge 20, Type (0, 0), BuildingBlock: CIFDUS_clean_linker_0, # of connection points: 2
#     Edge 21, Type (0, 0), BuildingBlock: CIFDUS_clean_linker_0, # of connection points: 2
#     Edge 22, Type (0, 0), BuildingBlock: CIFDUS_clean_linker_0, # of connection points: 2
#     Edge 23, Type (0, 0), BuildingBlock: CIFDUS_clean_linker_0, # of connection points: 2
#     Edge 24, Type (0, 0), BuildingBlock: CIFDUS_clean_linker_0, # of connection points: 2
#     Edge 25, Type (0, 0), BuildingBlock: CIFDUS_clean_linker_0, # of connection points: 2
#     Edge 26, Type (0, 0), BuildingBlock: CIFDUS_clean_linker_0, # of connection points: 2
#     Edge 27, Type (0, 0), BuildingBlock: CIFDUS_clean_linker_0, # of connection points: 2
#     Edge 28, Type (0, 0), BuildingBlock: CIFDUS_clean_linker_0, # of connection points: 2
#     Edge 29, Type (0, 0), BuildingBlock: CIFDUS_clean_linker_0, # of connection points: 2
#     Edge 30, Type (0, 0), BuildingBlock: CIFDUS_clean_linker_0, # of connection points: 2
#     Edge 31, Type (0, 0), BuildingBlock: CIFDUS_clean_linker_0, # of connection points: 2
#     Edge 32, Type (0, 0), BuildingBlock: CIFDUS_clean_linker_0, # of connection points: 2
#     Edge 33, Type (0, 0), BuildingBlock: CIFDUS_clean_linker_0, # of connection points: 2
#     Edge 34, Type (0, 0), BuildingBlock: CIFDUS_clean_linker_0, # of connection points: 2
#     Edge 35, Type (0, 0), BuildingBlock: CIFDUS_clean_linker_0, # of connection points: 2
#     Edge 36, Type (0, 0), BuildingBlock: CIFDUS_clean_linker_0, # of connection points: 2
#     Edge 37, Type (0, 0), BuildingBlock: CIFDUS_clean_linker_0, # of connection points: 2
#     Edge 38, Type (0, 0), BuildingBlock: CIFDUS_clean_linker_0, # of connection points: 2
#     Edge 39, Type (0, 0), BuildingBlock: CIFDUS_clean_linker_0, # of connection points: 2
#     Edge 40, Type (0, 0), BuildingBlock: CIFDUS_clean_linker_0, # of connection points: 2
#     Edge 41, Type (0, 0), BuildingBlock: CIFDUS_clean_linker_0, # of connection points: 2
#     Edge 42, Type (0, 0), BuildingBlock: CIFDUS_clean_linker_0, # of connection points: 2
#     Edge 43, Type (0, 0), BuildingBlock: CIFDUS_clean_linker_0, # of connection points: 2
#     Edge 44, Type (0, 0), BuildingBlock: CIFDUS_clean_linker_0, # of connection points: 2
#     Edge 45, Type (0, 0), BuildingBlock: CIFDUS_clean_linker_0, # of connection points: 2
#     Edge 46, Type (0, 0), BuildingBlock: CIFDUS_clean_linker_0, # of connection points: 2
#     Edge 47, Type (0, 0), BuildingBlock: CIFDUS_clean_linker_0, # of connection points: 2
#     Edge 48, Type (0, 0), BuildingBlock: CIFDUS_clean_linker_0, # of connection points: 2
#     Edge 49, Type (0, 0), BuildingBlock: CIFDUS_clean_linker_0, # of connection points: 2
#     Edge 50, Type (0, 0), BuildingBlock: CIFDUS_clean_linker_0, # of connection points: 2
#     Edge 51, Type (0, 0), BuildingBlock: CIFDUS_clean_linker_0, # of connection points: 2
#     Edge 52, Type (0, 0), BuildingBlock: CIFDUS_clean_linker_0, # of connection points: 2
#     Edge 53, Type (0, 0), BuildingBlock: CIFDUS_clean_linker_0, # of connection points: 2
#     Edge 54, Type (0, 0), BuildingBlock: CIFDUS_clean_linker_0, # of connection points: 2
#     Edge 55, Type (0, 0), BuildingBlock: CIFDUS_clean_linker_0, # of connection points: 2
#     Edge 56, Type (0, 0), BuildingBlock: CIFDUS_clean_linker_0, # of connection points: 2
#     Edge 57, Type (0, 0), BuildingBlock: CIFDUS_clean_linker_0, # of connection points: 2
#     Edge 58, Type (0, 0), BuildingBlock: CIFDUS_clean_linker_0, # of connection points: 2
#     Edge 59, Type (0, 0), BuildingBlock: CIFDUS_clean_linker_0, # of connection points: 2
#     Edge 60, Type (0, 0), BuildingBlock: CIFDUS_clean_linker_0, # of connection points: 2
#     Edge 61, Type (0, 0), BuildingBlock: CIFDUS_clean_linker_0, # of connection points: 2
#     Edge 62, Type (0, 0), BuildingBlock: CIFDUS_clean_linker_0, # of connection points: 2
#     Edge 63, Type (0, 0), BuildingBlock: CIFDUS_clean_linker_0, # of connection points: 2
# Relax obj value: 0.276
# Max RMSD: 0.243
# Mean RMSD: 0.243
data_MOF--net-whp--node1-OJICUG_clean_sbu_0--edge1-CIFDUS_clean_linker_0
_symmetry_space_group_name_H-M    P1
_symmetry_Int_Tables_number       1
_symmetry_cell_setting            triclinic
loop_
_symmetry_equiv_pos_as_xyz
'x, y, z'
_cell_length_a     42.742936
_cell_length_b     42.741607
_cell_length_c     27.082861
_cell_angle_alpha  90.010877
_cell_angle_beta   90.003094
_cell_angle_gamma 89.916805
loop_
_atom_site_label
_atom_site_type_symbol
_atom_site_fract_x
_atom_site_fract_y
_atom_site_fract_z
_atom_type_partial_charge
Sc0 Sc 0.28837 0.56608 0.37192 0.0
Sc1 Sc 0.33962 0.51837 0.30448 0.0
Sc2 Sc 0.26177 0.49453 0.32574 0.0
O3 O 0.29672 0.52622 0.33396 0.0
C4 C 0.24922 0.51578 0.43432 0.0
C5 C 0.35452 0.54474 0.41258 0.0
C6 C 0.32111 0.44954 0.33734 0.0
C7 C 0.33519 0.59155 0.28884 0.0
C8 C 0.22643 0.56063 0.31172 0.0
C9 C 0.29225 0.49744 0.21864 0.0
O10 O 0.25844 0.54339 0.42498 0.0
O11 O 0.36312 0.53219 0.37205 0.0
O12 O 0.29173 0.45377 0.33411 0.0
O13 O 0.31637 0.59542 0.32456 0.0
O14 O 0.22668 0.53082 0.31448 0.0
O15 O 0.31959 0.50438 0.23412 0.0
O16 O 0.24904 0.57744 0.32648 0.0
O17 O 0.34433 0.56472 0.27491 0.0
O18 O 0.26885 0.4941 0.24726 0.0
O19 O 0.32752 0.55662 0.4194 0.0
O20 O 0.25232 0.49315 0.40421 0.0
O21 O 0.34093 0.47115 0.33061 0.0
Sc22 Sc 0.93146 0.29948 0.86181 0.0
Sc23 Sc 0.98685 0.34372 0.79647 0.0
Sc24 Sc 0.00544 0.2669 0.83431 0.0
O25 O 0.97463 0.3034 0.83108 0.0
C26 C 0.97364 0.26162 0.93976 0.0
C27 C 0.95155 0.36816 0.89323 0.0
C28 C 0.05029 0.32524 0.85119 0.0
C29 C 0.91563 0.34126 0.76642 0.0
C30 C 0.93959 0.23384 0.8096 0.0
C31 C 0.01345 0.29109 0.7235 0.0
O32 O 0.94827 0.27427 0.92556 0.0
O33 O 0.96915 0.37271 0.85596 0.0
O34 O 0.04498 0.29607 0.85487 0.0
O35 O 0.90761 0.32412 0.80266 0.0
O36 O 0.96935 0.23384 0.81304 0.0
O37 O 0.00394 0.31873 0.73255 0.0
O38 O 0.92246 0.25637 0.82411 0.0
O39 O 0.94376 0.34867 0.75803 0.0
O40 O 0.01614 0.27029 0.75679 0.0
O41 O 0.93749 0.34251 0.90178 0.0
O42 O 0.99755 0.25903 0.91216 0.0
O43 O 0.03152 0.34439 0.83128 0.0
Sc44 Sc 0.2386 0.01132 0.32591 0.0
Sc45 Sc 0.16123 0.98752 0.29894 0.0
Sc46 Sc 0.20878 0.94123 0.37488 0.0
O47 O 0.20278 0.98012 0.33344 0.0
C48 C 0.27464 0.94539 0.32287 0.0
C49 C 0.21207 0.00569 0.21693 0.0
C50 C 0.16724 0.91414 0.28638 0.0
C51 C 0.17891 0.05655 0.33118 0.0
C52 C 0.24413 0.99417 0.43838 0.0
C53 C 0.13951 0.9607 0.40377 0.0
O54 O 0.27383 0.9751 0.31994 0.0
O55 O 0.18399 0.00035 0.23026 0.0
O56 O 0.18507 0.91061 0.32354 0.0
O57 O 0.20837 0.05231 0.32994 0.0
O58 O 0.23272 0.96703 0.43159 0.0
O59 O 0.13374 0.97411 0.36278 0.0
O60 O 0.24635 0.01459 0.40441 0.0
O61 O 0.15922 0.03491 0.32372 0.0
O62 O 0.1661 0.9493 0.41471 0.0
O63 O 0.23451 0.00921 0.24718 0.0
O64 O 0.25182 0.9293 0.33869 0.0
O65 O 0.15807 0.94073 0.27134 0.0
Sc66 Sc 0.49166 0.22906 0.84348 0.0
Sc67 Sc 0.50699 0.15385 0.79522 0.0
Sc68 Sc 0.56423 0.19301 0.86494 0.0
O69 O 0.52091 0.19183 0.83475 0.0
C70 C 0.55851 0.26162 0.82462 0.0
C71 C 0.48752 0.21212 0.72817 0.0
C72 C 0.57958 0.15214 0.76915 0.0
C73 C 0.44259 0.17345 0.84641 0.0
C74 C 0.52335 0.22845 0.94802 0.0
C75 C 0.53809 0.12512 0.89211 0.0
O76 O 0.52895 0.26234 0.83064 0.0
O77 O 0.49571 0.18351 0.73265 0.0
O78 O 0.58772 0.17009 0.80418 0.0
O79 O 0.45062 0.20091 0.85878 0.0
O80 O 0.54843 0.21645 0.93117 0.0
O81 O 0.51893 0.12276 0.85608 0.0
O82 O 0.49882 0.23179 0.92205 0.0
O83 O 0.46021 0.15511 0.82257 0.0
O84 O 0.55569 0.1487 0.89956 0.0
O85 O 0.48323 0.23023 0.76498 0.0
O86 O 0.57488 0.23717 0.83157 0.0
O87 O 0.55133 0.14486 0.76144 0.0
Sc88 Sc 0.80024 0.43801 0.13515 0.0
Sc89 Sc 0.84545 0.49161 0.20234 0.0
Sc90 Sc 0.76765 0.51041 0.16973 0.0
O91 O 0.80449 0.48003 0.16897 0.0
C92 C 0.76258 0.48389 0.06176 0.0
C93 C 0.86844 0.45827 0.10291 0.0
C94 C 0.8257 0.55636 0.15437 0.0
C95 C 0.84361 0.4198 0.22802 0.0
C96 C 0.73411 0.44378 0.18646 0.0
C97 C 0.79358 0.51478 0.27939 0.0
O98 O 0.77492 0.45776 0.07324 0.0
O99 O 0.8738 0.47432 0.14162 0.0
O100 O 0.79637 0.55143 0.15518 0.0
O101 O 0.82636 0.41267 0.19133 0.0
O102 O 0.73409 0.47355 0.1838 0.0
O103 O 0.82182 0.50866 0.26786 0.0
O104 O 0.75751 0.42716 0.17388 0.0
O105 O 0.85022 0.44782 0.23903 0.0
O106 O 0.77154 0.51583 0.24798 0.0
O107 O 0.84232 0.44535 0.09383 0.0
O108 O 0.75984 0.50652 0.09182 0.0
O109 O 0.84582 0.53651 0.16843 0.0
Sc110 Sc 0.9941 0.77163 0.66441 0.0
Sc111 Sc 0.01862 0.84489 0.70771 0.0
Sc112 Sc 0.0672 0.80113 0.63049 0.0
O113 O 0.02662 0.80587 0.66775 0.0
C114 C 0.05949 0.734 0.67424 0.0
C115 C 0.99176 0.79018 0.77699 0.0
C116 C 0.08972 0.83803 0.72837 0.0
C117 C 0.95234 0.83366 0.65979 0.0
C118 C 0.01781 0.77041 0.55571 0.0
C119 C 0.05141 0.87114 0.60928 0.0
O120 O 0.02974 0.73496 0.66937 0.0
O121 O 0.99832 0.81885 0.76896 0.0
O122 O 0.09492 0.82556 0.68635 0.0
O123 O 0.95467 0.80396 0.65932 0.0
O124 O 0.04579 0.77672 0.5684 0.0
O125 O 0.03952 0.87525 0.65202 0.0
O126 O 0.99497 0.7713 0.58551 0.0
O127 O 0.97438 0.85167 0.67288 0.0
O128 O 0.05918 0.84442 0.59263 0.0
O129 O 0.99096 0.76981 0.74291 0.0
O130 O 0.07687 0.75765 0.66668 0.0
O131 O 0.06232 0.84187 0.7452 0.0
Sc132 Sc 0.72999 0.99445 0.1753 0.0
Sc133 Sc 0.64994 0.01238 0.19241 0.0
Sc134 Sc 0.69893 0.06612 0.13259 0.0
O135 O 0.69298 0.02433 0.16678 0.0
C136 C 0.76249 0.06141 0.19187 0.0
C137 C 0.69647 0.99484 0.28095 0.0
C138 C 0.64829 0.08582 0.21306 0.0
C139 C 0.67518 0.94593 0.15684 0.0
C140 C 0.74001 0.01882 0.06638 0.0
C141 C 0.63461 0.04055 0.08697 0.0
O142 O 0.76191 0.03169 0.19293 0.0
O143 O 0.66958 0.00258 0.26443 0.0
O144 O 0.67133 0.09274 0.1854 0.0
O145 O 0.70405 0.95253 0.15744 0.0
O146 O 0.72615 0.04469 0.07458 0.0
O147 O 0.62754 0.02225 0.12233 0.0
O148 O 0.7428 0.99734 0.09857 0.0
O149 O 0.65398 0.96507 0.16897 0.0
O150 O 0.65875 0.05792 0.08683 0.0
O151 O 0.72008 0.99011 0.25313 0.0
O152 O 0.74031 0.07781 0.17425 0.0
O153 O 0.63855 0.05807 0.21826 0.0
Sc154 Sc 0.44326 0.6912 0.61796 0.0
Sc155 Sc 0.48598 0.64729 0.70069 0.0
Sc156 Sc 0.50702 0.72485 0.6758 0.0
O157 O 0.47889 0.68786 0.66544 0.0
C158 C 0.49463 0.73198 0.56344 0.0
C159 C 0.46799 0.62633 0.59035 0.0
C160 C 0.55476 0.66724 0.67518 0.0
C161 C 0.41426 0.64605 0.70013 0.0
C162 C 0.43732 0.75345 0.67493 0.0
C163 C 0.50145 0.69861 0.78414 0.0
O164 O 0.46625 0.72432 0.57 0.0
O165 O 0.4726 0.61979 0.63583 0.0
O166 O 0.54917 0.69639 0.67973 0.0
O167 O 0.41405 0.65811 0.65723 0.0
O168 O 0.46706 0.75715 0.67454 0.0
O169 O 0.499 0.67034 0.7694 0.0
O170 O 0.42403 0.72839 0.66084 0.0
O171 O 0.43854 0.64574 0.72709 0.0
O172 O 0.50155 0.72178 0.75457 0.0
O173 O 0.46275 0.65399 0.57527 0.0
O174 O 0.51506 0.72952 0.59726 0.0
O175 O 0.53368 0.64631 0.67647 0.0
Sc176 Sc 0.73595 0.4911 0.66081 0.0
Sc177 Sc 0.66021 0.47395 0.70744 0.0
Sc178 Sc 0.69395 0.42655 0.61563 0.0
O179 O 0.69665 0.46393 0.66132 0.0
C180 C 0.72875 0.47634 0.54669 0.0
C181 C 0.68111 0.54142 0.66928 0.0
C182 C 0.62515 0.45424 0.60811 0.0
C183 C 0.71959 0.48733 0.77575 0.0
C184 C 0.76358 0.42157 0.65565 0.0
C185 C 0.66027 0.39987 0.71228 0.0
O186 O 0.73888 0.49329 0.58162 0.0
O187 O 0.66154 0.5224 0.68769 0.0
O188 O 0.64865 0.44015 0.58993 0.0
O189 O 0.73836 0.4916 0.74005 0.0
O190 O 0.73878 0.40936 0.63859 0.0
O191 O 0.6545 0.4264 0.73139 0.0
O192 O 0.76651 0.45078 0.66372 0.0
O193 O 0.69069 0.48142 0.76987 0.0
O194 O 0.67394 0.39658 0.67099 0.0
O195 O 0.70892 0.53399 0.65733 0.0
O196 O 0.7129 0.45166 0.55377 0.0
O197 O 0.62505 0.46663 0.65084 0.0
Sc198 Sc 0.99422 0.74273 0.17471 0.0
Sc199 Sc 0.01778 0.66362 0.18726 0.0
Sc200 Sc 0.06301 0.71534 0.11679 0.0
O201 O 0.02492 0.70721 0.15947 0.0
C202 C 0.00868 0.75414 0.06191 0.0
C203 C 0.9476 0.68508 0.16506 0.0
C204 C 0.0393 0.6489 0.07734 0.0
C205 C 0.00418 0.70935 0.27882 0.0
C206 C 0.06034 0.7782 0.17806 0.0
C207 C 0.09208 0.66737 0.19448 0.0
O208 O 0.98981 0.75567 0.09811 0.0
O209 O 0.96881 0.66468 0.17098 0.0
O210 O 0.05378 0.67469 0.0727 0.0
O211 O 0.99688 0.73295 0.25252 0.0
O212 O 0.07589 0.75687 0.15654 0.0
O213 O 0.06573 0.65606 0.20624 0.0
O214 O 0.03095 0.77665 0.18485 0.0
O215 O 0.01142 0.68277 0.26067 0.0
O216 O 0.09505 0.68959 0.16364 0.0
O217 O 0.95267 0.71429 0.16685 0.0
O218 O 0.03557 0.74146 0.0643 0.0
O219 O 0.02504 0.64085 0.11662 0.0
Sc220 Sc 0.79987 0.06526 0.61516 0.0
Sc221 Sc 0.8356 0.02293 0.70808 0.0
Sc222 Sc 0.76115 0.00126 0.66627 0.0
O223 O 0.79874 0.02956 0.66315 0.0
C224 C 0.73257 0.07089 0.65973 0.0
C225 C 0.83417 0.0946 0.70956 0.0
C226 C 0.77812 0.00724 0.77902 0.0
C227 C 0.86763 0.0428 0.60535 0.0
C228 C 0.76296 0.01347 0.55282 0.0
C229 C 0.81973 0.95446 0.67387 0.0
O230 O 0.75809 0.08392 0.64708 0.0
O231 O 0.83294 0.06986 0.73527 0.0
O232 O 0.7581 0.00647 0.74452 0.0
O233 O 0.84185 0.04718 0.58303 0.0
O234 O 0.76045 0.994 0.58786 0.0
O235 O 0.83961 0.97586 0.68263 0.0
O236 O 0.77341 0.04104 0.55861 0.0
O237 O 0.86912 0.03762 0.65171 0.0
O238 O 0.79021 0.95914 0.67208 0.0
O239 O 0.82722 0.09522 0.66386 0.0
O240 O 0.72908 0.04116 0.66162 0.0
O241 O 0.80742 0.00898 0.7711 0.0
Sc242 Sc 0.43623 0.79586 0.1258 0.0
Sc243 Sc 0.48483 0.84105 0.20152 0.0
Sc244 Sc 0.50559 0.76257 0.17427 0.0
O245 O 0.47564 0.79982 0.16709 0.0
C246 C 0.43904 0.72831 0.17501 0.0
C247 C 0.41047 0.83784 0.21349 0.0
C248 C 0.4997 0.78956 0.28416 0.0
C249 C 0.46005 0.865 0.09828 0.0
C250 C 0.48807 0.76124 0.05987 0.0
C251 C 0.55373 0.81901 0.17183 0.0
O252 O 0.42371 0.75103 0.15678 0.0
O253 O 0.43726 0.8487 0.22417 0.0
O254 O 0.50582 0.76718 0.25443 0.0
O255 O 0.44406 0.84041 0.09029 0.0
O256 O 0.50718 0.75508 0.09475 0.0
O257 O 0.53352 0.83957 0.18291 0.0
O258 O 0.46197 0.77489 0.06642 0.0
O259 O 0.47682 0.86891 0.1365 0.0
O260 O 0.54758 0.79014 0.16792 0.0
O261 O 0.4063 0.81721 0.18037 0.0
O262 O 0.4684 0.72915 0.18182 0.0
O263 O 0.49233 0.81698 0.27 0.0
Sc264 Sc 0.23288 0.49684 0.82929 0.0
Sc265 Sc 0.15554 0.51822 0.79673 0.0
Sc266 Sc 0.20001 0.56734 0.87278 0.0
O267 O 0.19616 0.5274 0.83288 0.0
C268 C 0.23247 0.51737 0.94288 0.0
C269 C 0.17584 0.44998 0.83476 0.0
C270 C 0.12965 0.54604 0.89627 0.0
C271 C 0.20716 0.49773 0.71804 0.0
C272 C 0.26818 0.5622 0.82537 0.0
C273 C 0.16134 0.59261 0.78177 0.0
O274 O 0.24205 0.49967 0.90816 0.0
O275 O 0.15659 0.46947 0.81649 0.0
O276 O 0.15364 0.56307 0.90238 0.0
O277 O 0.22753 0.49068 0.75054 0.0
O278 O 0.24713 0.57693 0.84894 0.0
O279 O 0.14865 0.56619 0.7736 0.0
O280 O 0.26575 0.53361 0.8132 0.0
O281 O 0.18055 0.5094 0.72876 0.0
O282 O 0.18299 0.5964 0.81346 0.0
O283 O 0.20427 0.45635 0.84372 0.0
O284 O 0.21618 0.54182 0.93574 0.0
O285 O 0.12683 0.52649 0.8612 0.0
Sc286 Sc 0.93308 0.20422 0.38428 0.0
Sc287 Sc 0.97679 0.16001 0.30015 0.0
Sc288 Sc 0.00119 0.23666 0.33116 0.0
O289 O 0.97046 0.20031 0.33862 0.0
C290 C 0.9332 0.26863 0.32621 0.0
C291 C 0.90327 0.16418 0.29583 0.0
C292 C 0.99744 0.21105 0.22043 0.0
C293 C 0.9552 0.13518 0.40666 0.0
C294 C 0.98396 0.2436 0.44466 0.0
C295 C 0.04592 0.17719 0.33713 0.0
O296 O 0.91921 0.24659 0.34858 0.0
O297 O 0.92915 0.15676 0.27612 0.0
O298 O 0.00457 0.23169 0.25217 0.0
O299 O 0.94458 0.16136 0.42163 0.0
O300 O 0.00258 0.24745 0.4088 0.0
O301 O 0.02506 0.15849 0.32151 0.0
O302 O 0.95811 0.22931 0.44083 0.0
O303 O 0.96599 0.13087 0.36333 0.0
O304 O 0.04148 0.20645 0.34299 0.0
O305 O 0.90139 0.18 0.3354 0.0
O306 O 0.96275 0.26935 0.31897 0.0
O307 O 0.98665 0.18435 0.23199 0.0
Sc308 Sc 0.3132 0.92441 0.87108 0.0
Sc309 Sc 0.34718 0.97973 0.79217 0.0
Sc310 Sc 0.26996 0.99053 0.83668 0.0
O311 O 0.31023 0.96504 0.83334 0.0
C312 C 0.24507 0.91982 0.82774 0.0
C313 C 0.3523 0.90722 0.77333 0.0
C314 C 0.28781 0.99456 0.72332 0.0
C315 C 0.37986 0.95322 0.89034 0.0
C316 C 0.27505 0.96816 0.94675 0.0
C317 C 0.32255 0.04379 0.83729 0.0
O318 O 0.27108 0.9071 0.83817 0.0
O319 O 0.35482 0.93515 0.75798 0.0
O320 O 0.26814 0.99354 0.75835 0.0
O321 O 0.35577 0.9387 0.90529 0.0
O322 O 0.26805 0.98926 0.91571 0.0
O323 O 0.34429 0.02592 0.82231 0.0
O324 O 0.28904 0.94296 0.93489 0.0
O325 O 0.38126 0.96754 0.84907 0.0
O326 O 0.29421 0.03514 0.84181 0.0
O327 O 0.33886 0.90028 0.81375 0.0
O328 O 0.24042 0.94925 0.83049 0.0
O329 O 0.31727 0.99202 0.72984 0.0
Sc330 Sc 0.4974 0.26763 0.33353 0.0
Sc331 Sc 0.52012 0.34411 0.29982 0.0
Sc332 Sc 0.56445 0.30197 0.3864 0.0
O333 O 0.52735 0.30461 0.34005 0.0
C334 C 0.51444 0.26253 0.44786 0.0
C335 C 0.45135 0.3255 0.33759 0.0
C336 C 0.53973 0.37132 0.40508 0.0
C337 C 0.50077 0.2921 0.22227 0.0
C338 C 0.5653 0.23627 0.3298 0.0
C339 C 0.59441 0.34132 0.29731 0.0
O340 O 0.49827 0.25519 0.41044 0.0
O341 O 0.47101 0.34365 0.31711 0.0
O342 O 0.55335 0.34639 0.4192 0.0
O343 O 0.49143 0.27312 0.25505 0.0
O344 O 0.57823 0.2576 0.35554 0.0
O345 O 0.56831 0.3499 0.27948 0.0
O346 O 0.53629 0.23643 0.31841 0.0
O347 O 0.51383 0.31799 0.23235 0.0
O348 O 0.5966 0.32385 0.33514 0.0
O349 O 0.45729 0.29719 0.34899 0.0
O350 O 0.53816 0.28029 0.44534 0.0
O351 O 0.52719 0.3745 0.36273 0.0
H352 H 0.41502 0.56209 0.40411 0.0
H353 H 0.34471 0.53631 0.51061 0.0
H354 H 0.37917 0.55224 0.57813 0.0
H355 H 0.42456 0.58253 0.60515 0.0
H356 H 0.49042 0.61657 0.49762 0.0
H357 H 0.46341 0.58754 0.43234 0.0
C358 C 0.40775 0.55914 0.4422 0.0
C359 C 0.3775 0.54822 0.45265 0.0
C360 C 0.42701 0.56994 0.48057 0.0
C361 C 0.36792 0.54488 0.50195 0.0
C362 C 0.38758 0.554 0.54047 0.0
C363 C 0.43366 0.58244 0.56773 0.0
C364 C 0.45949 0.60122 0.55596 0.0
C365 C 0.41658 0.56781 0.53008 0.0
C366 C 0.47074 0.60185 0.5073 0.0
C367 C 0.45505 0.58561 0.47 0.0
H368 H 0.87189 0.46679 0.00437 0.0
H369 H 0.9219 0.42882 0.12879 0.0
H370 H 0.95632 0.39957 0.07313 0.0
H371 H 0.96512 0.37754 0.98976 0.0
H372 H 0.91656 0.41731 0.86532 0.0
H373 H 0.88888 0.45361 0.91993 0.0
C374 C 0.89114 0.45304 0.019 0.0
C375 C 0.89449 0.44974 0.07026 0.0
C376 C 0.91072 0.43634 0.9868 0.0
C377 C 0.91925 0.43183 0.08927 0.0
C378 C 0.93865 0.41484 0.05751 0.0
C379 C 0.94931 0.39498 0.9747 0.0
C380 C 0.94265 0.39494 0.92399 0.0
C381 C 0.93364 0.41582 0.00632 0.0
C382 C 0.92207 0.41731 0.90438 0.0
C383 C 0.90609 0.43783 0.9356 0.0
H384 H 0.03754 0.88506 0.51433 0.0
H385 H 0.09029 0.91678 0.64023 0.0
H386 H 0.12046 0.95209 0.58746 0.0
H387 H 0.13788 0.9661 0.50343 0.0
H388 H 0.08347 0.93636 0.37798 0.0
H389 H 0.04731 0.90868 0.43255 0.0
C390 C 0.05487 0.9006 0.53026 0.0
C391 C 0.06194 0.89838 0.58075 0.0
C392 C 0.07199 0.92088 0.49972 0.0
C393 C 0.0844 0.91841 0.60139 0.0
C394 C 0.10184 0.93834 0.57117 0.0
C395 C 0.11746 0.95445 0.48837 0.0
C396 C 0.11338 0.95292 0.43696 0.0
C397 C 0.09675 0.93868 0.51999 0.0
C398 C 0.08689 0.93792 0.41756 0.0
C399 C 0.06642 0.92183 0.44869 0.0
H400 H 0.58192 0.08115 0.88444 0.0
H401 H 0.50656 0.11304 0.97697 0.0
H402 H 0.52732 0.08261 0.04644 0.0
H403 H 0.57332 0.05691 0.08445 0.0
H404 H 0.65131 0.03063 0.99253 0.0
H405 H 0.6232 0.0481 0.91903 0.0
C406 C 0.56936 0.08014 0.91926 0.0
C407 C 0.5427 0.09877 0.92586 0.0
C408 C 0.5824 0.06404 0.95936 0.0
C409 C 0.52686 0.09828 0.97119 0.0
C410 C 0.539 0.08126 0.01098 0.0
C411 C 0.58349 0.05399 0.04803 0.0
C412 C 0.6142 0.04267 0.04349 0.0
C413 C 0.56769 0.06547 0.00618 0.0
C414 C 0.62763 0.03939 0.9965 0.0
C415 C 0.61164 0.0495 0.9546 0.0
H416 H 0.52677 0.37693 0.50242 0.0
H417 H 0.56403 0.42685 0.37745 0.0
H418 H 0.5896 0.46413 0.43263 0.0
H419 H 0.61187 0.47306 0.5154 0.0
H420 H 0.57401 0.42376 0.64044 0.0
H421 H 0.53725 0.3963 0.58665 0.0
C422 C 0.53934 0.39683 0.48747 0.0
C423 C 0.54403 0.39906 0.43631 0.0
C424 C 0.55412 0.41799 0.51945 0.0
C425 C 0.56018 0.42484 0.41687 0.0
C426 C 0.57506 0.44594 0.44841 0.0
C427 C 0.59439 0.45753 0.53098 0.0
C428 C 0.59562 0.4501 0.5814 0.0
C429 C 0.57376 0.4415 0.49968 0.0
C430 C 0.57318 0.4299 0.60163 0.0
C431 C 0.55251 0.41385 0.57077 0.0
H432 H 0.08446 0.58817 0.88269 0.0
H433 H 0.11869 0.5195 0.98557 0.0
H434 H 0.08647 0.54233 0.05131 0.0
H435 H 0.05786 0.58849 0.08244 0.0
H436 H 0.02949 0.66053 0.98049 0.0
H437 H 0.04921 0.62965 0.91121 0.0
C438 C 0.08367 0.57749 0.91904 0.0
C439 C 0.10332 0.55207 0.92952 0.0
C440 C 0.06646 0.59179 0.95694 0.0
C441 C 0.10314 0.53876 0.97683 0.0
C442 C 0.08504 0.55207 0.01443 0.0
C443 C 0.05496 0.59672 0.04482 0.0
C444 C 0.04234 0.6266 0.03627 0.0
C445 C 0.06788 0.57954 0.00548 0.0
C446 C 0.03917 0.63752 0.98764 0.0
C447 C 0.05062 0.61998 0.94814 0.0
H448 H 0.96299 0.13012 0.50582 0.0
H449 H 0.93219 0.07933 0.3772 0.0
H450 H 0.90616 0.0409 0.42966 0.0
H451 H 0.8829 0.02911 0.51074 0.0
H452 H 0.91532 0.07841 0.63974 0.0
H453 H 0.95064 0.10958 0.58881 0.0
C454 C 0.95151 0.10999 0.48952 0.0
C455 C 0.94899 0.10772 0.43793 0.0
C456 C 0.93659 0.08798 0.51992 0.0
C457 C 0.93439 0.08148 0.41692 0.0
C458 C 0.91925 0.05967 0.44688 0.0
C459 C 0.89865 0.04582 0.5278 0.0
C460 C 0.89614 0.05201 0.57856 0.0
C461 C 0.91882 0.06368 0.49825 0.0
C462 C 0.91677 0.07342 0.6006 0.0
C463 C 0.93675 0.09147 0.57142 0.0
H464 H 0.39217 0.97021 0.98423 0.0
H465 H 0.42943 0.91944 0.86013 0.0
H466 H 0.46275 0.88871 0.91526 0.0
H467 H 0.47119 0.86857 -0.00011 0.0
H468 H 0.43525 0.92058 0.12382 0.0
H469 H 0.41176 0.95893 0.06792 0.0
C470 C 0.40887 0.95359 0.96923 0.0
C471 C 0.40849 0.94696 0.91849 0.0
C472 C 0.42751 0.93571 0.00127 0.0
C473 C 0.42977 0.92514 0.89913 0.0
C474 C 0.44839 0.90718 0.93074 0.0
C475 C 0.45919 0.88898 0.01442 0.0
C476 C 0.45454 0.8918 0.06552 0.0
C477 C 0.44597 0.91102 0.98205 0.0
C478 C 0.43907 0.91817 0.08443 0.0
C479 C 0.42549 0.93995 0.05252 0.0
H480 H 0.362 0.43009 0.40625 0.0
H481 H 0.3099 0.39893 0.27947 0.0
H482 H 0.34349 0.35258 0.27262 0.0
H483 H 0.39423 0.3273 0.29317 0.0
H484 H 0.44578 0.35923 0.42014 0.0
H485 H 0.40564 0.39843 0.43743 0.0
C486 C 0.35734 0.41245 0.37837 0.0
C487 C 0.33378 0.41775 0.34331 0.0
C488 C 0.37691 0.3862 0.37445 0.0
C489 C 0.32784 0.39503 0.30708 0.0
C490 C 0.34726 0.36875 0.30285 0.0
C491 C 0.39581 0.34199 0.32573 0.0
C492 C 0.42263 0.34049 0.35559 0.0
C493 C 0.37281 0.3649 0.33492 0.0
C494 C 0.42502 0.35992 0.39715 0.0
C495 C 0.40227 0.38251 0.40673 0.0
H496 H 0.10707 0.32383 0.80805 0.0
H497 H 0.05664 0.35968 0.93351 0.0
H498 H 0.09619 0.40016 0.94556 0.0
H499 H 0.13761 0.43214 0.90808 0.0
H500 H 0.18685 0.39807 0.78027 0.0
H501 H 0.15575 0.34991 0.78136 0.0
C502 C 0.10578 0.33953 0.83948 0.0
C503 C 0.07934 0.33883 0.87016 0.0
C504 C 0.12796 0.36355 0.84477 0.0
C505 C 0.07718 0.35968 0.91003 0.0
C506 C 0.09952 0.38309 0.91642 0.0
C507 C 0.1422 0.41355 0.88173 0.0
C508 C 0.16419 0.41831 0.84412 0.0
C509 C 0.1239 0.38634 0.88222 0.0
C510 C 0.17003 0.39452 0.80968 0.0
C511 C 0.15212 0.36717 0.81013 0.0
H512 H 0.13877 0.07458 0.40154 0.0
H513 H 0.18859 0.10796 0.27397 0.0
H514 H 0.15394 0.1537 0.26931 0.0
H515 H 0.10284 0.17763 0.29192 0.0
H516 H 0.05289 0.14234 0.41828 0.0
H517 H 0.09443 0.1044 0.43406 0.0
C518 C 0.14271 0.09258 0.37396 0.0
C519 C 0.16594 0.08812 0.33811 0.0
C520 C 0.12238 0.11826 0.37106 0.0
C521 C 0.17093 0.11124 0.3022 0.0
C522 C 0.15089 0.13716 0.29923 0.0
C523 C 0.10188 0.16246 0.32399 0.0
C524 C 0.07511 0.16263 0.35409 0.0
C525 C 0.12557 0.14007 0.33203 0.0
C526 C 0.07354 0.14259 0.39501 0.0
C527 C 0.09711 0.12075 0.40376 0.0
H528 H 0.35531 0.06834 0.91288 0.0
H529 H 0.31081 0.09165 0.77513 0.0
H530 H 0.34077 0.14034 0.7706 0.0
H531 H 0.38814 0.16901 0.79651 0.0
H532 H 0.43311 0.14504 0.9336 0.0
H533 H 0.39403 0.10445 0.94886 0.0
C534 C 0.35122 0.08489 0.88318 0.0
C535 C 0.331 0.07674 0.84446 0.0
C536 C 0.36893 0.1125 0.88052 0.0
C537 C 0.32606 0.09784 0.80558 0.0
C538 C 0.34345 0.12546 0.80273 0.0
C539 C 0.38829 0.15593 0.83084 0.0
C540 C 0.41313 0.15996 0.86413 0.0
C541 C 0.36616 0.13213 0.83864 0.0
C542 C 0.41378 0.14253 0.908 0.0
C543 C 0.39171 0.11905 0.91634 0.0
H544 H 0.92756 0.64826 0.09166 0.0
H545 H 0.89722 0.69451 0.2245 0.0
H546 H 0.85012 0.66179 0.22689 0.0
H547 H 0.82475 0.61233 0.20101 0.0
H548 H 0.85719 0.56533 0.06996 0.0
H549 H 0.89564 0.60652 0.05569 0.0
C550 C 0.90995 0.65189 0.11998 0.0
C551 C 0.91564 0.67338 0.158 0.0
C552 C 0.88344 0.63267 0.12146 0.0
C553 C 0.893 0.67809 0.19476 0.0
C554 C 0.86629 0.65919 0.19633 0.0
C555 C 0.83923 0.6121 0.1681 0.0
C556 C 0.83826 0.58613 0.13637 0.0
C557 C 0.86213 0.63531 0.16128 0.0
C558 C 0.85748 0.58541 0.09442 0.0
C559 C 0.87971 0.60872 0.08665 0.0
H560 H 0.8954 0.83194 0.70449 0.0
H561 H 0.94562 0.8713 0.58141 0.0
H562 H 0.90395 0.90951 0.56827 0.0
H563 H 0.85948 0.9381 0.60259 0.0
H564 H 0.81025 0.90168 0.72863 0.0
H565 H 0.84467 0.8556 0.72962 0.0
C566 C 0.89643 0.84812 0.67368 0.0
C567 C 0.92329 0.84897 0.64379 0.0
C568 C 0.87282 0.87083 0.66755 0.0
C569 C 0.92494 0.87031 0.60455 0.0
C570 C 0.90128 0.89227 0.59731 0.0
C571 C 0.85565 0.91942 0.62906 0.0
C572 C 0.83262 0.92302 0.66548 0.0
C573 C 0.87599 0.89373 0.63012 0.0
C574 C 0.82776 0.89905 0.69999 0.0
C575 C 0.84766 0.87295 0.70085 0.0
H576 H 0.57727 0.85053 0.09485 0.0
H577 H 0.60095 0.81292 0.23744 0.0
H578 H 0.64825 0.84521 0.24007 0.0
H579 H 0.67482 0.8928 0.2102 0.0
H580 H 0.64888 0.93201 0.06962 0.0
H581 H 0.61129 0.88984 0.05645 0.0
C582 C 0.5936 0.84857 0.12541 0.0
C583 C 0.58599 0.82973 0.16593 0.0
C584 C 0.62019 0.86768 0.127 0.0
C585 C 0.60676 0.82729 0.20579 0.0
C586 C 0.63359 0.84592 0.20743 0.0
C587 C 0.66207 0.89101 0.17566 0.0
C588 C 0.66446 0.91511 0.14076 0.0
C589 C 0.63955 0.86744 0.16946 0.0
C590 C 0.64747 0.91331 0.09656 0.0
C591 C 0.6257 0.88949 0.08939 0.0
H592 H 0.58438 0.63815 0.6004 0.0
H593 H 0.59624 0.66997 0.75004 0.0
H594 H 0.64267 0.63684 0.75924 0.0
H595 H 0.67209 0.59067 0.7299 0.0
H596 H 0.66023 0.55916 0.5801 0.0
H597 H 0.62215 0.60083 0.56487 0.0
C598 C 0.598 0.63869 0.6342 0.0
C599 C 0.58719 0.65616 0.67456 0.0
C600 C 0.6244 0.61942 0.63921 0.0
C601 C 0.60454 0.65675 0.71849 0.0
C602 C 0.63084 0.63761 0.72387 0.0
C603 C 0.6622 0.594 0.69338 0.0
C604 C 0.66879 0.57224 0.65603 0.0
C605 C 0.63998 0.61768 0.68528 0.0
C606 C 0.65562 0.57609 0.60901 0.0
C607 C 0.6336 0.59963 0.60053 0.0
H608 H 0.28859 0.50266 0.98498 0.0
H609 H 0.1903 0.51392 0.01614 0.0
H610 H 0.1999 0.50544 0.10395 0.0
H611 H 0.2363 0.49929 0.17207 0.0
H612 H 0.33545 0.49238 0.14368 0.0
H613 H 0.32554 0.49459 0.05468 0.0
C614 C 0.26937 0.50272 0.01113 0.0
C615 C 0.23881 0.5088 0.9945 0.0
C616 C 0.27524 0.49892 0.06196 0.0
C617 C 0.214 0.50934 0.02843 0.0
C618 C 0.21948 0.50454 0.07854 0.0
C619 C 0.25582 0.49781 0.14656 0.0
C620 C 0.28659 0.49568 0.16466 0.0
C621 C 0.25004 0.49998 0.09579 0.0
C622 C 0.31152 0.49413 0.13082 0.0
C623 C 0.30587 0.49541 0.0799 0.0
H624 H 0.99086 0.32031 0.64179 0.0
H625 H 0.04316 0.23891 0.68788 0.0
H626 H 0.04067 0.21788 0.60409 0.0
H627 H 0.01901 0.22019 0.5194 0.0
H628 H 0.96451 0.30025 0.47531 0.0
H629 H 0.97239 0.32429 0.55649 0.0
C630 C 0.00234 0.2983 0.63338 0.0
C631 C 0.01713 0.28123 0.67125 0.0
C632 C 0.0 0.28589 0.58551 0.0
C633 C 0.03154 0.25254 0.65956 0.0
C634 C 0.03 0.24039 0.61167 0.0
C635 C 0.00929 0.24306 0.52768 0.0
C636 C 0.99127 0.25861 0.492 0.0
C637 C 0.01355 0.25644 0.57468 0.0
C638 C 0.97849 0.28807 0.50262 0.0
C639 C 0.98299 0.30174 0.5489 0.0
H640 H 0.22504 0.99932 0.98484 0.0
H641 H 0.30858 0.94891 0.02615 0.0
H642 H 0.29742 0.95831 0.11332 0.0
H643 H 0.26356 0.97978 0.17763 0.0
H644 H 0.1774 0.02595 0.138 0.0
H645 H 0.18994 0.01952 0.0501 0.0
C646 C 0.24078 0.9905 0.01303 0.0
C647 C 0.2676 0.97351 0.99925 0.0
C648 C 0.23379 0.99534 0.06317 0.0
C649 C 0.28767 0.96185 0.03598 0.0
C650 C 0.28139 0.96734 0.08575 0.0
C651 C 0.24772 0.98881 0.14971 0.0
C652 C 0.21987 0.00377 0.164 0.0
C653 C 0.25451 0.98397 0.09971 0.0
C654 C 0.19909 0.01457 0.12765 0.0
C655 C 0.20623 0.01082 0.07754 0.0
H656 H 0.51231 0.29194 0.53644 0.0
H657 H 0.49687 0.20265 0.46679 0.0
H658 H 0.48533 0.17898 0.54711 0.0
H659 H 0.48247 0.18324 0.63802 0.0
H660 H 0.49439 0.27383 0.70614 0.0
H661 H 0.5038 0.29737 0.62583 0.0
C662 C 0.5063 0.26733 0.539 0.0
C663 C 0.50582 0.24893 0.4961 0.0
C664 C 0.49886 0.25412 0.58505 0.0
C665 C 0.49744 0.21722 0.49952 0.0
C666 C 0.49089 0.20369 0.54539 0.0
C667 C 0.48665 0.2082 0.63519 0.0
C668 C 0.48781 0.22658 0.67828 0.0
C669 C 0.49185 0.22184 0.58855 0.0
C670 C 0.49311 0.25899 0.67377 0.0
C671 C 0.49879 0.27255 0.62778 0.0
H672 H 0.7379 0.49913 0.3184 0.0
H673 H 0.83029 0.53057 0.3589 0.0
H674 H 0.81729 0.52399 0.44649 0.0
H675 H 0.78091 0.5049 0.51086 0.0
H676 H 0.69082 0.4686 0.46763 0.0
H677 H 0.70166 0.48149 0.38158 0.0
C678 C 0.75505 0.50521 0.34633 0.0
C679 C 0.78494 0.51558 0.33222 0.0
C680 C 0.74791 0.50005 0.39607 0.0
C681 C 0.80707 0.52266 0.36891 0.0
C682 C 0.79969 0.51876 0.4189 0.0
C683 C 0.76361 0.50015 0.48253 0.0
C684 C 0.73518 0.48574 0.49535 0.0
C685 C 0.7704 0.50677 0.43283 0.0
C686 C 0.713 0.47939 0.45846 0.0
C687 C 0.71912 0.48685 0.40934 0.0
H688 H 0.98725 0.82507 0.86183 0.0
H689 H 0.98888 0.72975 0.80836 0.0
H690 H 0.99187 0.71038 0.89238 0.0
H691 H 0.9997 0.72027 0.98043 0.0
H692 H 0.99651 0.81455 0.03605 0.0
H693 H 0.98828 0.83462 0.95196 0.0
C694 C 0.98778 0.80007 0.86859 0.0
C695 C 0.98831 0.77903 0.82856 0.0
C696 C 0.98946 0.78887 0.91738 0.0
C697 C 0.98863 0.74664 0.83818 0.0
C698 C 0.99047 0.73541 0.88633 0.0
C699 C 0.99662 0.74515 0.974 0.0
C700 C 0.99879 0.76604 0.01365 0.0
C701 C 0.99177 0.7563 0.92601 0.0
C702 C 0.99474 0.7982 0.00561 0.0
C703 C 0.99022 0.8096 0.95766 0.0
H704 H 0.74701 0.97267 0.33155 0.0
H705 H 0.65783 0.01849 0.35242 0.0
H706 H 0.67008 0.0271 0.43928 0.0
H707 H 0.70812 0.0258 0.50783 0.0
H708 H 0.79686 0.97981 0.48737 0.0
H709 H 0.78293 0.96714 0.40178 0.0
C710 C 0.73004 0.98416 0.35518 0.0
C711 C 0.70165 0.99512 0.33516 0.0
C712 C 0.73733 0.98933 0.40508 0.0
C713 C 0.67985 0.00972 0.36663 0.0
C714 C 0.68691 0.01489 0.41634 0.0
C715 C 0.72414 0.01273 0.48453 0.0
C716 C 0.75344 0.00382 0.50311 0.0
C717 C 0.71587 0.00548 0.43565 0.0
C718 C 0.77419 0.98685 0.47328 0.0
C719 C 0.76623 0.97967 0.42453 0.0
H720 H 0.50122 0.70457 0.01828 0.0
H721 H 0.49215 0.8029 0.9861 0.0
H722 H 0.49771 0.79244 0.89788 0.0
H723 H 0.50065 0.75527 0.82982 0.0
H724 H 0.50654 0.65627 0.8602 0.0
H725 H 0.50669 0.66698 0.94887 0.0
C726 C 0.50119 0.72362 0.99182 0.0
C727 C 0.49664 0.75445 0.00833 0.0
C728 C 0.50332 0.71728 0.94083 0.0
C729 C 0.49589 0.77901 0.97395 0.0
C730 C 0.49888 0.77303 0.92358 0.0
C731 C 0.50224 0.73595 0.85566 0.0
C732 C 0.50339 0.70498 0.83808 0.0
C733 C 0.50186 0.74222 0.90653 0.0
C734 C 0.50541 0.68036 0.87248 0.0
C735 C 0.50555 0.68645 0.92331 0.0
H736 H 0.69177 0.50684 0.86066 0.0
H737 H 0.77662 0.4658 0.8035 0.0
H738 H 0.79729 0.4605 0.88716 0.0
H739 H 0.79063 0.46616 0.9769 0.0
H740 H 0.70794 0.51123 0.03399 0.0
H741 H 0.68695 0.5164 0.9502 0.0
C742 C 0.71483 0.49691 0.86667 0.0
C743 C 0.73261 0.48661 0.82617 0.0
C744 C 0.72685 0.49454 0.91481 0.0
C745 C 0.7626 0.47407 0.83419 0.0
C746 C 0.77436 0.47087 0.88198 0.0
C747 C 0.76802 0.4771 0.97079 0.0
C748 C 0.75062 0.488 0.01122 0.0
C749 C 0.75659 0.48078 0.92258 0.0
C750 C 0.72165 0.50267 0.00316 0.0
C751 C 0.70965 0.50556 0.95538 0.0
H752 H 0.97334 0.75137 0.33618 0.0
H753 H 0.04356 0.67884 0.3418 0.0
H754 H 0.05489 0.69198 0.42779 0.0
H755 H 0.04646 0.72591 0.50053 0.0
H756 H 0.97366 0.7957 0.49646 0.0
H757 H 0.96191 0.78216 0.4106 0.0
C758 C 0.99088 0.73823 0.35642 0.0
C759 C 0.00763 0.71425 0.33261 0.0
C760 C 0.99711 0.74575 0.4059 0.0
C761 C 0.03013 0.69724 0.3594 0.0
C762 C 0.03684 0.70493 0.40844 0.0
C763 C 0.02813 0.73812 0.48057 0.0
C764 C 0.01122 0.76203 0.50409 0.0
C765 C 0.02083 0.72947 0.43183 0.0
C766 C 0.98704 0.77734 0.47865 0.0
C767 C 0.9803 0.76957 0.42973 0.0
H768 H 0.71177 0.03495 0.98166 0.0
H769 H 0.79404 0.98918 0.03875 0.0
H770 H 0.81353 0.98121 0.95436 0.0
H771 H 0.8073 0.98858 0.86408 0.0
H772 H 0.72254 0.03107 0.80875 0.0
H773 H 0.70374 0.03874 0.89267 0.0
C774 C 0.734 0.02328 0.97555 0.0
C775 C 0.75171 0.01304 0.01604 0.0
C776 C 0.74449 0.01808 0.92728 0.0
C777 C 0.78013 0.99734 0.00789 0.0
C778 C 0.79124 0.99284 0.95976 0.0
C779 C 0.78468 0.99935 0.87054 0.0
C780 C 0.76641 0.0093 0.83026 0.0
C781 C 0.77366 0.00327 0.91911 0.0
C782 C 0.73698 0.02298 0.83906 0.0
C783 C 0.72625 0.02757 0.88705 0.0
H784 H 0.53773 0.75331 0.3429 0.0
H785 H 0.45524 0.81165 0.34508 0.0
H786 H 0.44749 0.80047 0.4323 0.0
H787 H 0.46229 0.77218 0.50698 0.0
H788 H 0.54623 0.71634 0.50888 0.0
H789 H 0.5557 0.72881 0.42156 0.0
C790 C 0.51821 0.76358 0.36273 0.0
C791 C 0.49697 0.78309 0.33758 0.0
C792 C 0.51425 0.75766 0.4136 0.0
C793 C 0.47196 0.79664 0.36368 0.0
C794 C 0.46744 0.79023 0.41355 0.0
C795 C 0.48289 0.76312 0.48837 0.0
C796 C 0.50347 0.74334 0.51396 0.0
C797 C 0.48822 0.77058 0.43872 0.0
C798 C 0.53022 0.73186 0.48982 0.0
C799 C 0.53545 0.73876 0.43985 0.0
H800 H 0.1812 0.52665 0.6386 0.0
H801 H 0.2525 0.45981 0.67906 0.0
H802 H 0.26942 0.45639 0.59305 0.0
H803 H 0.26685 0.47585 0.50713 0.0
H804 H 0.1985 0.54597 0.46912 0.0
H805 H 0.17719 0.54433 0.55289 0.0
C806 C 0.20015 0.51099 0.62855 0.0
C807 C 0.21558 0.4936 0.66531 0.0
C808 C 0.2103 0.50974 0.57927 0.0
C809 C 0.24033 0.47365 0.65159 0.0
C810 C 0.25002 0.47163 0.60237 0.0
C811 C 0.24686 0.49017 0.51717 0.0
C812 C 0.23393 0.51074 0.48229 0.0
C813 C 0.23557 0.49001 0.566 0.0
C814 C 0.20856 0.52983 0.4956 0.0
C815 C 0.1965 0.529 0.54345 0.0
H816 H 0.9543 0.2006 0.14963 0.0
H817 H 0.04494 0.24174 0.17413 0.0
H818 H 0.04677 0.25927 0.08796 0.0
H819 H 0.02124 0.26495 0.00643 0.0
H820 H 0.92801 0.22889 0.98576 0.0
H821 H 0.92839 0.20734 0.06934 0.0
C822 C 0.9746 0.21304 0.13577 0.0
C823 C 0.99963 0.21955 0.16772 0.0
C824 C 0.97484 0.22417 0.08696 0.0
C825 C 0.0255 0.23635 0.14992 0.0
C826 C 0.0265 0.24641 0.10077 0.0
C827 C 0.00116 0.25219 0.0203 0.0
C828 C 0.97468 0.24838 0.99011 0.0
C829 C 0.00113 0.24078 0.06907 0.0
C830 C 0.94858 0.23221 0.00854 0.0
C831 C 0.94882 0.21982 0.05623 0.0
H832 H 0.21584 0.97871 0.52289 0.0
H833 H 0.2972 0.02569 0.46559 0.0
H834 H 0.3184 0.03072 0.5496 0.0
H835 H 0.3149 0.01819 0.63919 0.0
H836 H 0.23155 0.97289 0.69406 0.0
H837 H 0.21007 0.97078 0.61124 0.0
C838 C 0.23808 0.99034 0.52892 0.0
C839 C 0.25514 0.00155 0.4885 0.0
C840 C 0.24985 0.99321 0.57684 0.0
C841 C 0.28368 0.01697 0.49649 0.0
C842 C 0.29586 0.01962 0.54437 0.0
C843 C 0.29201 0.00805 0.63286 0.0
C844 C 0.27497 0.9956 0.67271 0.0
C845 C 0.27939 0.00725 0.58482 0.0
C846 C 0.24514 0.98281 0.66414 0.0
C847 C 0.2328 0.98146 0.61674 0.0
H848 H 0.47424 0.23497 0.01163 0.0
H849 H 0.57352 0.25102 0.99802 0.0
H850 H 0.57465 0.27472 0.07992 0.0
H851 H 0.5477 0.29031 0.15616 0.0
H852 H 0.44973 0.26974 0.17388 0.0
H853 H 0.44757 0.2488 0.08958 0.0
C854 C 0.49608 0.24364 0.0267 0.0
C855 C 0.52373 0.24122 0.9988 0.0
C856 C 0.49671 0.2567 0.07438 0.0
C857 C 0.55195 0.25232 0.01892 0.0
C858 C 0.5526 0.26608 0.06564 0.0
C859 C 0.52583 0.28162 0.14113 0.0
C860 C 0.49878 0.28201 0.17042 0.0
C861 C 0.52515 0.26841 0.09367 0.0
C862 C 0.47073 0.26991 0.15146 0.0
C863 C 0.46955 0.25784 0.10348 0.0
H864 H 0.2224 0.62012 0.2761 0.0
H865 H 0.16775 0.53661 0.30044 0.0
H866 H 0.12147 0.56276 0.26754 0.0
H867 H 0.09659 0.60896 0.23197 0.0
H868 H 0.1511 0.69201 0.20387 0.0
H869 H 0.19751 0.66633 0.23835 0.0
C870 C 0.20034 0.60766 0.27436 0.0
C871 C 0.19854 0.57646 0.29097 0.0
C872 C 0.17386 0.62273 0.25483 0.0
C873 C 0.16985 0.56056 0.28784 0.0
C874 C 0.14334 0.57553 0.26915 0.0
C875 C 0.11855 0.62161 0.23367 0.0
C876 C 0.12032 0.65249 0.2158 0.0
C877 C 0.14509 0.60658 0.25266 0.0
C878 C 0.14911 0.66826 0.21745 0.0
C879 C 0.17562 0.65359 0.23718 0.0
H880 H 0.88754 0.12224 0.68151 0.0
H881 H 0.81335 0.12758 0.78875 0.0
H882 H 0.8393 0.17202 0.82899 0.0
H883 H 0.88375 0.2085 0.83417 0.0
H884 H 0.9606 0.1993 0.73198 0.0
H885 H 0.93331 0.1568 0.68939 0.0
C886 C 0.87707 0.13341 0.71346 0.0
C887 C 0.8485 0.12232 0.73193 0.0
C888 C 0.89278 0.15786 0.73745 0.0
C889 C 0.83523 0.13622 0.77388 0.0
C890 C 0.8501 0.16142 0.79686 0.0
C891 C 0.89448 0.1971 0.80262 0.0
C892 C 0.92403 0.20694 0.78605 0.0
C893 C 0.87899 0.17229 0.77913 0.0
C894 C 0.93795 0.19186 0.74554 0.0
C895 C 0.92229 0.16776 0.72104 0.0
H896 H 0.27998 0.88464 0.29396 0.0
H897 H 0.33361 0.96914 0.3149 0.0
H898 H 0.38074 0.94238 0.28643 0.0
H899 H 0.40626 0.89583 0.25274 0.0
H900 H 0.35237 0.81216 0.22649 0.0
H901 H 0.30576 0.83771 0.26037 0.0
C902 C 0.30203 0.89713 0.29264 0.0
C903 C 0.30327 0.92885 0.30661 0.0
C904 C 0.32895 0.88177 0.27534 0.0
C905 C 0.33196 0.94479 0.30413 0.0
C906 C 0.35895 0.92949 0.28798 0.0
C907 C 0.38443 0.883 0.25504 0.0
C908 C 0.38281 0.85207 0.23746 0.0
C909 C 0.35765 0.89808 0.27318 0.0
C910 C 0.3542 0.83599 0.23983 0.0
C911 C 0.32757 0.8506 0.25911 0.0
H912 H 0.61593 0.26686 0.78239 0.0
H913 H 0.53698 0.32156 0.8322 0.0
H914 H 0.5631 0.36949 0.80606 0.0
H915 H 0.60723 0.39564 0.76585 0.0
H916 H 0.68454 0.34085 0.71075 0.0
H917 H 0.66039 0.29312 0.74289 0.0
C918 C 0.60452 0.28928 0.78781 0.0
C919 C 0.57454 0.29061 0.80915 0.0
C920 C 0.61943 0.31671 0.77197 0.0
C921 C 0.55995 0.31984 0.81552 0.0
C922 C 0.57492 0.34728 0.80079 0.0
C923 C 0.61903 0.3733 0.76166 0.0
C924 C 0.64768 0.37169 0.7364 0.0
C925 C 0.60453 0.34596 0.77866 0.0
C926 C 0.66245 0.34258 0.73022 0.0
C927 C 0.64863 0.31533 0.74841 0.0
H928 H 0.72852 0.3854 0.22688 0.0
H929 H 0.67473 0.46678 0.18508 0.0
H930 H 0.62684 0.44135 0.21272 0.0
H931 H 0.60023 0.39674 0.25022 0.0
H932 H 0.65362 0.31647 0.29759 0.0
H933 H 0.70163 0.34061 0.26602 0.0
C934 C 0.7063 0.39749 0.22367 0.0
C935 C 0.70527 0.42797 0.20384 0.0
C936 C 0.67876 0.38291 0.24051 0.0
C937 C 0.67629 0.44343 0.20044 0.0
C938 C 0.64883 0.42886 0.21607 0.0
C939 C 0.6223 0.38431 0.25313 0.0
C940 C 0.62331 0.3547 0.27574 0.0
C941 C 0.6498 0.39868 0.23626 0.0
C942 C 0.65222 0.33925 0.28018 0.0
C943 C 0.67966 0.35307 0.26221 0.0
H944 H 0.12 0.72522 0.70289 0.0
H945 H 0.03309 0.6757 0.6809 0.0
H946 H 0.05779 0.62717 0.70835 0.0
H947 H 0.10333 0.59927 0.74192 0.0
H948 H 0.18943 0.64938 0.76758 0.0
H949 H 0.16579 0.69714 0.73475 0.0
C950 C 0.10642 0.70382 0.70376 0.0
C951 C 0.07463 0.70426 0.68982 0.0
C952 C 0.12066 0.67605 0.72013 0.0
C953 C 0.0575 0.6762 0.69156 0.0
C954 C 0.07164 0.64838 0.70717 0.0
C955 C 0.11712 0.6205 0.73964 0.0
C956 C 0.1482 0.62066 0.75699 0.0
C957 C 0.10313 0.64808 0.72189 0.0
C958 C 0.16549 0.64857 0.75448 0.0
C959 C 0.15196 0.67591 0.73583 0.0
H960 H 0.76866 0.12085 0.228 0.0
H961 H 0.82112 0.03722 0.19358 0.0
H962 H 0.86939 0.06265 0.21913 0.0
H963 H 0.89675 0.10794 0.25267 0.0
H964 H 0.84482 0.19044 0.2939 0.0
H965 H 0.79634 0.16634 0.26388 0.0
C966 C 0.79069 0.10828 0.2261 0.0
C967 C 0.79127 0.07719 0.209 0.0
C968 C 0.81845 0.12287 0.24179 0.0
C969 C 0.81995 0.06107 0.20706 0.0
C970 C 0.84763 0.07562 0.22139 0.0
C971 C 0.87487 0.12081 0.25446 0.0
C972 C 0.87432 0.15101 0.27478 0.0
C973 C 0.84715 0.10644 0.23887 0.0
C974 C 0.84574 0.16716 0.2781 0.0
C975 C 0.81807 0.15338 0.26108 0.0
H976 H 0.34068 0.8447 0.7758 0.0
H977 H 0.40156 0.91361 0.7102 0.0
H978 H 0.4335 0.87219 0.67402 0.0
H979 H 0.44592 0.81615 0.66478 0.0
H980 H 0.38342 0.74743 0.72669 0.0
H981 H 0.3505 0.78891 0.76069 0.0
C982 C 0.36075 0.85064 0.75316 0.0
C983 C 0.36878 0.88218 0.74598 0.0
C984 C 0.37896 0.82672 0.73221 0.0
C985 C 0.39471 0.88952 0.71614 0.0
C986 C 0.41317 0.86584 0.69571 0.0
C987 C 0.42507 0.81037 0.68569 0.0
C988 C 0.41723 0.77889 0.69369 0.0
C989 C 0.40584 0.83435 0.70421 0.0
C990 C 0.3899 0.77158 0.72009 0.0
C991 C 0.37108 0.79525 0.73958 0.0
H992 H 0.85445 0.32408 0.75457 0.0
H993 H 0.92215 0.39366 0.71062 0.0
H994 H 0.88138 0.4239 0.67022 0.0
H995 H 0.82582 0.43314 0.65338 0.0
H996 H 0.75809 0.36286 0.69317 0.0
H997 H 0.79946 0.33036 0.72873 0.0
C998 C 0.86029 0.34564 0.73562 0.0
C999 C 0.89125 0.35667 0.73618 0.0
C1000 C 0.8367 0.36298 0.71193 0.0
C1001 C 0.89853 0.38452 0.71089 0.0
C1002 C 0.87519 0.40201 0.68791 0.0
C1003 C 0.82025 0.41055 0.66937 0.0
C1004 C 0.78907 0.40051 0.67112 0.0
C1005 C 0.84412 0.39185 0.68917 0.0
C1006 C 0.78205 0.37103 0.69131 0.0
C1007 C 0.80564 0.35251 0.71188 0.0
H1008 H 0.10988 0.90969 0.24646 0.0
H1009 H 0.19308 0.85572 0.27632 0.0
H1010 H 0.16771 0.80876 0.24304 0.0
H1011 H 0.12089 0.78291 0.20838 0.0
H1012 H 0.03671 0.83694 0.18566 0.0
H1013 H 0.06346 0.88414 0.21341 0.0
C1014 C 0.12265 0.88775 0.24502 0.0
C1015 C 0.15341 0.88617 0.26317 0.0
C1016 C 0.10761 0.86087 0.2276 0.0
C1017 C 0.16941 0.85745 0.26228 0.0
C1018 C 0.15489 0.83066 0.2434 0.0
C1019 C 0.10852 0.80508 0.20933 0.0
C1020 C 0.07691 0.80649 0.19499 0.0
C1021 C 0.12386 0.83204 0.22643 0.0
C1022 C 0.06099 0.83524 0.19687 0.0
C1023 C 0.07628 0.86225 0.21252 0.0
H1024 H 0.6699 0.05889 0.65816 0.0
H1025 H 0.73753 0.12895 0.69985 0.0
H1026 H 0.69611 0.16132 0.73491 0.0
H1027 H 0.64103 0.16826 0.75868 0.0
H1028 H 0.57308 0.0992 0.71393 0.0
H1029 H 0.61407 0.06834 0.67475 0.0
C1030 C 0.67548 0.08135 0.6746 0.0
C1031 C 0.70675 0.09135 0.67666 0.0
C1032 C 0.65147 0.10011 0.69424 0.0
C1033 C 0.71362 0.1207 0.69758 0.0
C1034 C 0.68996 0.13922 0.71787 0.0
C1035 C 0.63515 0.14665 0.73988 0.0
C1036 C 0.60403 0.13603 0.7397 0.0
C1037 C 0.65885 0.12896 0.71708 0.0
C1038 C 0.5968 0.10807 0.71468 0.0
C1039 C 0.62027 0.09022 0.69243 0.0
H1040 H 0.37934 0.7233 0.2093 0.0
H1041 H 0.46149 0.66891 0.17414 0.0
H1042 H 0.43555 0.6214 0.20258 0.0
H1043 H 0.3908 0.59575 0.2415 0.0
H1044 H 0.30993 0.65028 0.28285 0.0
H1045 H 0.33396 0.69723 0.24777 0.0
C1046 C 0.39136 0.70096 0.20742 0.0
C1047 C 0.42225 0.69958 0.18965 0.0
C1048 C 0.3766 0.6738 0.22514 0.0
C1049 C 0.43776 0.67058 0.18796 0.0
C1050 C 0.42294 0.6434 0.20414 0.0
C1051 C 0.37825 0.61782 0.2423 0.0
C1052 C 0.3486 0.61951 0.26458 0.0
C1053 C 0.39254 0.6448 0.22339 0.0
C1054 C 0.33284 0.64839 0.26599 0.0
C1055 C 0.34656 0.67524 0.24596 0.0
H1056 H 0.38939 0.64383 0.79256 0.0
H1057 H 0.37647 0.60996 0.64395 0.0
H1058 H 0.33112 0.57953 0.67015 0.0
H1059 H 0.29489 0.56264 0.73529 0.0
H1060 H 0.30395 0.60064 0.88193 0.0
H1061 H 0.35097 0.62938 0.85688 0.0
C1062 C 0.37654 0.62978 0.7661 0.0
C1063 C 0.38622 0.62896 0.71657 0.0
C1064 C 0.34986 0.6131 0.78112 0.0
C1065 C 0.36929 0.61102 0.68229 0.0
C1066 C 0.34345 0.59354 0.69724 0.0
C1067 C 0.30733 0.57714 0.76167 0.0
C1068 C 0.29642 0.57938 0.81038 0.0
C1069 C 0.33353 0.59439 0.74653 0.0
C1070 C 0.31216 0.59864 0.84421 0.0
C1071 C 0.33898 0.615 0.82992 0.0
H1072 H 0.83545 0.35647 0.22112 0.0
H1073 H 0.89034 0.42691 0.29578 0.0
H1074 H 0.92362 0.38664 0.33116 0.0
H1075 H 0.9391 0.33131 0.33813 0.0
H1076 H 0.88253 0.26065 0.26836 0.0
H1077 H 0.84835 0.30096 0.23345 0.0
C1078 C 0.85444 0.36301 0.24559 0.0
C1079 C 0.86037 0.39476 0.25527 0.0
C1080 C 0.87361 0.33967 0.26616 0.0
C1081 C 0.88506 0.4027 0.28745 0.0
C1082 C 0.90436 0.37968 0.30757 0.0
C1083 C 0.91934 0.32493 0.3151 0.0
C1084 C 0.91344 0.29335 0.30508 0.0
C1085 C 0.89924 0.34814 0.29649 0.0
C1086 C 0.88747 0.28503 0.27615 0.0
C1087 C 0.86792 0.308 0.25634 0.0
H1088 H 0.15277 0.82767 0.71847 0.0
H1089 H 0.08524 0.88225 0.80028 0.0
H1090 H 0.12707 0.9121 0.83838 0.0
H1091 H 0.18279 0.92527 0.84502 0.0
H1092 H 0.2509 0.86901 0.76809 0.0
H1093 H 0.2091 0.83745 0.73175 0.0
C1094 C 0.14726 0.84583 0.74506 0.0
C1095 C 0.11583 0.85272 0.75606 0.0
C1096 C 0.17156 0.86291 0.76751 0.0
C1097 C 0.10916 0.87624 0.79102 0.0
C1098 C 0.13309 0.89357 0.81274 0.0
C1099 C 0.1884 0.90599 0.82049 0.0
C1100 C 0.21974 0.89963 0.80886 0.0
C1101 C 0.16433 0.88752 0.80062 0.0
C1102 C 0.22685 0.87431 0.77761 0.0
C1103 C 0.20298 0.85631 0.75672 0.0
H1104 H 0.66702 0.14482 0.23999 0.0
H1105 H 0.58724 0.08294 0.23925 0.0
H1106 H 0.5547 0.12367 0.27502 0.0
H1107 H 0.54815 0.17719 0.30519 0.0
H1108 H 0.6279 0.23882 0.31053 0.0
H1109 H 0.66099 0.19804 0.27472 0.0
C1110 C 0.64256 0.14031 0.24784 0.0
C1111 C 0.62969 0.11086 0.23692 0.0
C1112 C 0.62384 0.16381 0.26928 0.0
C1113 C 0.59793 0.10529 0.24762 0.0
C1114 C 0.57916 0.12862 0.26793 0.0
C1115 C 0.57278 0.18166 0.29858 0.0
C1116 C 0.58548 0.21097 0.31033 0.0
C1117 C 0.59178 0.158 0.27871 0.0
C1118 C 0.61754 0.21633 0.30205 0.0
C1119 C 0.63649 0.19307 0.28138 0.0
loop_
_geom_bond_atom_site_label_1
_geom_bond_atom_site_label_2
_geom_bond_distance
_geom_bond_site_symmetry_2
_ccdc_geom_bond_type
Sc0 O3 2.025 . S
Sc0 O10 2.105 . S
Sc0 O13 2.105 . S
Sc0 O16 2.105 . S
Sc0 O19 2.105 . S
Sc1 O3 2.025 . S
Sc1 O11 2.105 . S
Sc1 O15 2.105 . S
Sc1 O17 2.105 . S
Sc1 O21 2.105 . S
Sc2 O3 2.025 . S
Sc2 O12 2.105 . S
Sc2 O14 2.105 . S
Sc2 O18 2.105 . S
Sc2 O20 2.105 . S
O3 Sc0 2.025 . S
O3 Sc1 2.025 . S
O3 Sc2 2.025 . S
C4 O10 1.268 . S
C4 O20 1.268 . S
C5 O11 1.268 . S
C5 O19 1.268 . S
C6 O12 1.268 . S
C6 O21 1.268 . S
C7 O13 1.268 . S
C7 O17 1.268 . S
C8 O14 1.268 . S
C8 O16 1.268 . S
C9 O15 1.268 . S
C9 O18 1.268 . S
O10 Sc0 2.105 . S
O10 C4 1.268 . S
O11 Sc1 2.105 . S
O11 C5 1.268 . S
O12 Sc2 2.105 . S
O12 C6 1.268 . S
O13 Sc0 2.105 . S
O13 C7 1.268 . S
O14 Sc2 2.105 . S
O14 C8 1.268 . S
O15 Sc1 2.105 . S
O15 C9 1.268 . S
O16 Sc0 2.105 . S
O16 C8 1.268 . S
O17 Sc1 2.105 . S
O17 C7 1.268 . S
O18 Sc2 2.105 . S
O18 C9 1.268 . S
O19 Sc0 2.105 . S
O19 C5 1.268 . S
O20 Sc2 2.105 . S
O20 C4 1.268 . S
O21 Sc1 2.105 . S
O21 C6 1.268 . S
Sc22 O25 2.025 . S
Sc22 O32 2.105 . S
Sc22 O35 2.105 . S
Sc22 O38 2.105 . S
Sc22 O41 2.105 . S
Sc23 O25 2.025 . S
Sc23 O33 2.105 . S
Sc23 O37 2.105 . S
Sc23 O39 2.105 . S
Sc23 O43 2.105 1_655 S
Sc24 O25 2.024 1_455 S
Sc24 O34 2.106 . S
Sc24 O36 2.104 1_455 S
Sc24 O40 2.105 . S
Sc24 O42 2.105 . S
O25 Sc22 2.025 . S
O25 Sc23 2.025 . S
O25 Sc24 2.024 1_655 S
C26 O32 1.268 . S
C26 O42 1.268 1_655 S
C27 O33 1.268 . S
C27 O41 1.268 . S
C28 O34 1.268 . S
C28 O43 1.268 . S
C29 O35 1.268 . S
C29 O39 1.268 . S
C30 O36 1.268 . S
C30 O38 1.268 . S
C31 O37 1.268 . S
C31 O40 1.268 1_655 S
O32 Sc22 2.105 . S
O32 C26 1.268 . S
O33 Sc23 2.105 . S
O33 C27 1.268 . S
O34 Sc24 2.106 . S
O34 C28 1.268 . S
O35 Sc22 2.105 . S
O35 C29 1.268 . S
O36 Sc24 2.104 1_655 S
O36 C30 1.268 . S
O37 Sc23 2.105 . S
O37 C31 1.268 . S
O38 Sc22 2.105 . S
O38 C30 1.268 . S
O39 Sc23 2.105 . S
O39 C29 1.268 . S
O40 Sc24 2.105 . S
O40 C31 1.268 1_455 S
O41 Sc22 2.105 . S
O41 C27 1.268 . S
O42 Sc24 2.105 . S
O42 C26 1.268 1_455 S
O43 Sc23 2.105 1_455 S
O43 C28 1.268 . S
Sc44 O47 2.024 1_545 S
Sc44 O54 2.104 1_545 S
Sc44 O57 2.106 . S
Sc44 O60 2.105 . S
Sc44 O63 2.105 . S
Sc45 O47 2.025 . S
Sc45 O55 2.105 . S
Sc45 O59 2.105 . S
Sc45 O61 2.105 1_565 S
Sc45 O65 2.105 . S
Sc46 O47 2.025 . S
Sc46 O56 2.105 . S
Sc46 O58 2.105 . S
Sc46 O62 2.105 . S
Sc46 O64 2.105 . S
O47 Sc44 2.024 1_565 S
O47 Sc45 2.025 . S
O47 Sc46 2.025 . S
C48 O54 1.268 . S
C48 O64 1.268 . S
C49 O55 1.268 . S
C49 O63 1.268 1_565 S
C50 O56 1.268 . S
C50 O65 1.268 . S
C51 O57 1.268 . S
C51 O61 1.268 . S
C52 O58 1.268 . S
C52 O60 1.268 1_565 S
C53 O59 1.268 . S
C53 O62 1.268 . S
O54 Sc44 2.104 1_565 S
O54 C48 1.268 . S
O55 Sc45 2.105 . S
O55 C49 1.268 . S
O56 Sc46 2.105 . S
O56 C50 1.268 . S
O57 Sc44 2.106 . S
O57 C51 1.268 . S
O58 Sc46 2.105 . S
O58 C52 1.268 . S
O59 Sc45 2.105 . S
O59 C53 1.268 . S
O60 Sc44 2.105 . S
O60 C52 1.268 1_545 S
O61 Sc45 2.105 1_545 S
O61 C51 1.268 . S
O62 Sc46 2.105 . S
O62 C53 1.268 . S
O63 Sc44 2.105 . S
O63 C49 1.268 1_545 S
O64 Sc46 2.105 . S
O64 C48 1.268 . S
O65 Sc45 2.105 . S
O65 C50 1.268 . S
Sc66 O69 2.025 . S
Sc66 O76 2.105 . S
Sc66 O79 2.105 . S
Sc66 O82 2.105 . S
Sc66 O85 2.105 . S
Sc67 O69 2.025 . S
Sc67 O77 2.105 . S
Sc67 O81 2.105 . S
Sc67 O83 2.105 . S
Sc67 O87 2.105 . S
Sc68 O69 2.025 . S
Sc68 O78 2.105 . S
Sc68 O80 2.105 . S
Sc68 O84 2.105 . S
Sc68 O86 2.105 . S
O69 Sc66 2.025 . S
O69 Sc67 2.025 . S
O69 Sc68 2.025 . S
C70 O76 1.268 . S
C70 O86 1.268 . S
C71 O77 1.268 . S
C71 O85 1.268 . S
C72 O78 1.268 . S
C72 O87 1.268 . S
C73 O79 1.268 . S
C73 O83 1.268 . S
C74 O80 1.268 . S
C74 O82 1.268 . S
C75 O81 1.268 . S
C75 O84 1.268 . S
O76 Sc66 2.105 . S
O76 C70 1.268 . S
O77 Sc67 2.105 . S
O77 C71 1.268 . S
O78 Sc68 2.105 . S
O78 C72 1.268 . S
O79 Sc66 2.105 . S
O79 C73 1.268 . S
O80 Sc68 2.105 . S
O80 C74 1.268 . S
O81 Sc67 2.105 . S
O81 C75 1.268 . S
O82 Sc66 2.105 . S
O82 C74 1.268 . S
O83 Sc67 2.105 . S
O83 C73 1.268 . S
O84 Sc68 2.105 . S
O84 C75 1.268 . S
O85 Sc66 2.105 . S
O85 C71 1.268 . S
O86 Sc68 2.105 . S
O86 C70 1.268 . S
O87 Sc67 2.105 . S
O87 C72 1.268 . S
Sc88 O91 2.025 . S
Sc88 O98 2.105 . S
Sc88 O101 2.105 . S
Sc88 O104 2.105 . S
Sc88 O107 2.105 . S
Sc89 O91 2.025 . S
Sc89 O99 2.105 . S
Sc89 O103 2.105 . S
Sc89 O105 2.105 . S
Sc89 O109 2.105 . S
Sc90 O91 2.025 . S
Sc90 O100 2.105 . S
Sc90 O102 2.105 . S
Sc90 O106 2.105 . S
Sc90 O108 2.105 . S
O91 Sc88 2.025 . S
O91 Sc89 2.025 . S
O91 Sc90 2.025 . S
C92 O98 1.268 . S
C92 O108 1.268 . S
C93 O99 1.268 . S
C93 O107 1.268 . S
C94 O100 1.268 . S
C94 O109 1.268 . S
C95 O101 1.268 . S
C95 O105 1.268 . S
C96 O102 1.268 . S
C96 O104 1.268 . S
C97 O103 1.268 . S
C97 O106 1.268 . S
O98 Sc88 2.105 . S
O98 C92 1.268 . S
O99 Sc89 2.105 . S
O99 C93 1.268 . S
O100 Sc90 2.105 . S
O100 C94 1.268 . S
O101 Sc88 2.105 . S
O101 C95 1.268 . S
O102 Sc90 2.105 . S
O102 C96 1.268 . S
O103 Sc89 2.105 . S
O103 C97 1.268 . S
O104 Sc88 2.105 . S
O104 C96 1.268 . S
O105 Sc89 2.105 . S
O105 C95 1.268 . S
O106 Sc90 2.105 . S
O106 C97 1.268 . S
O107 Sc88 2.105 . S
O107 C93 1.268 . S
O108 Sc90 2.105 . S
O108 C92 1.268 . S
O109 Sc89 2.105 . S
O109 C94 1.268 . S
Sc110 O113 2.024 1_655 S
Sc110 O120 2.104 1_655 S
Sc110 O123 2.106 . S
Sc110 O126 2.105 . S
Sc110 O129 2.105 . S
Sc111 O113 2.025 . S
Sc111 O121 2.105 . S
Sc111 O125 2.105 . S
Sc111 O127 2.105 1_455 S
Sc111 O131 2.105 . S
Sc112 O113 2.025 . S
Sc112 O122 2.105 . S
Sc112 O124 2.105 . S
Sc112 O128 2.105 . S
Sc112 O130 2.105 . S
O113 Sc110 2.024 1_455 S
O113 Sc111 2.025 . S
O113 Sc112 2.025 . S
C114 O120 1.268 . S
C114 O130 1.268 . S
C115 O121 1.268 . S
C115 O129 1.268 1_455 S
C116 O122 1.268 . S
C116 O131 1.268 . S
C117 O123 1.268 . S
C117 O127 1.268 . S
C118 O124 1.268 . S
C118 O126 1.268 1_455 S
C119 O125 1.268 . S
C119 O128 1.268 . S
O120 Sc110 2.104 1_455 S
O120 C114 1.268 . S
O121 Sc111 2.105 . S
O121 C115 1.268 . S
O122 Sc112 2.105 . S
O122 C116 1.268 . S
O123 Sc110 2.106 . S
O123 C117 1.268 . S
O124 Sc112 2.105 . S
O124 C118 1.268 . S
O125 Sc111 2.105 . S
O125 C119 1.268 . S
O126 Sc110 2.105 . S
O126 C118 1.268 1_655 S
O127 Sc111 2.105 1_655 S
O127 C117 1.268 . S
O128 Sc112 2.105 . S
O128 C119 1.268 . S
O129 Sc110 2.105 . S
O129 C115 1.268 1_655 S
O130 Sc112 2.105 . S
O130 C114 1.268 . S
O131 Sc111 2.105 . S
O131 C116 1.268 . S
Sc132 O135 2.024 1_565 S
Sc132 O142 2.104 1_565 S
Sc132 O145 2.106 . S
Sc132 O148 2.105 . S
Sc132 O151 2.105 . S
Sc133 O135 2.025 . S
Sc133 O143 2.105 . S
Sc133 O147 2.105 . S
Sc133 O149 2.105 1_545 S
Sc133 O153 2.105 . S
Sc134 O135 2.025 . S
Sc134 O144 2.105 . S
Sc134 O146 2.105 . S
Sc134 O150 2.105 . S
Sc134 O152 2.105 . S
O135 Sc132 2.024 1_545 S
O135 Sc133 2.025 . S
O135 Sc134 2.025 . S
C136 O142 1.268 . S
C136 O152 1.268 . S
C137 O143 1.268 . S
C137 O151 1.268 1_545 S
C138 O144 1.268 . S
C138 O153 1.268 . S
C139 O145 1.268 . S
C139 O149 1.268 . S
C140 O146 1.268 . S
C140 O148 1.268 1_545 S
C141 O147 1.268 . S
C141 O150 1.268 . S
O142 Sc132 2.104 1_545 S
O142 C136 1.268 . S
O143 Sc133 2.105 . S
O143 C137 1.268 . S
O144 Sc134 2.105 . S
O144 C138 1.268 . S
O145 Sc132 2.106 . S
O145 C139 1.268 . S
O146 Sc134 2.105 . S
O146 C140 1.268 . S
O147 Sc133 2.105 . S
O147 C141 1.268 . S
O148 Sc132 2.105 . S
O148 C140 1.268 1_565 S
O149 Sc133 2.105 1_565 S
O149 C139 1.268 . S
O150 Sc134 2.105 . S
O150 C141 1.268 . S
O151 Sc132 2.105 . S
O151 C137 1.268 1_565 S
O152 Sc134 2.105 . S
O152 C136 1.268 . S
O153 Sc133 2.105 . S
O153 C138 1.268 . S
Sc154 O157 2.025 . S
Sc154 O164 2.105 . S
Sc154 O167 2.105 . S
Sc154 O170 2.105 . S
Sc154 O173 2.105 . S
Sc155 O157 2.025 . S
Sc155 O165 2.105 . S
Sc155 O169 2.105 . S
Sc155 O171 2.105 . S
Sc155 O175 2.105 . S
Sc156 O157 2.025 . S
Sc156 O166 2.105 . S
Sc156 O168 2.105 . S
Sc156 O172 2.105 . S
Sc156 O174 2.105 . S
O157 Sc154 2.025 . S
O157 Sc155 2.025 . S
O157 Sc156 2.025 . S
C158 O164 1.268 . S
C158 O174 1.268 . S
C159 O165 1.268 . S
C159 O173 1.268 . S
C160 O166 1.268 . S
C160 O175 1.268 . S
C161 O167 1.268 . S
C161 O171 1.268 . S
C162 O168 1.268 . S
C162 O170 1.268 . S
C163 O169 1.268 . S
C163 O172 1.268 . S
O164 Sc154 2.105 . S
O164 C158 1.268 . S
O165 Sc155 2.105 . S
O165 C159 1.268 . S
O166 Sc156 2.105 . S
O166 C160 1.268 . S
O167 Sc154 2.105 . S
O167 C161 1.268 . S
O168 Sc156 2.105 . S
O168 C162 1.268 . S
O169 Sc155 2.105 . S
O169 C163 1.268 . S
O170 Sc154 2.105 . S
O170 C162 1.268 . S
O171 Sc155 2.105 . S
O171 C161 1.268 . S
O172 Sc156 2.105 . S
O172 C163 1.268 . S
O173 Sc154 2.105 . S
O173 C159 1.268 . S
O174 Sc156 2.105 . S
O174 C158 1.268 . S
O175 Sc155 2.105 . S
O175 C160 1.268 . S
Sc176 O179 2.025 . S
Sc176 O186 2.105 . S
Sc176 O189 2.105 . S
Sc176 O192 2.105 . S
Sc176 O195 2.105 . S
Sc177 O179 2.025 . S
Sc177 O187 2.105 . S
Sc177 O191 2.105 . S
Sc177 O193 2.105 . S
Sc177 O197 2.105 . S
Sc178 O179 2.025 . S
Sc178 O188 2.105 . S
Sc178 O190 2.105 . S
Sc178 O194 2.105 . S
Sc178 O196 2.105 . S
O179 Sc176 2.025 . S
O179 Sc177 2.025 . S
O179 Sc178 2.025 . S
C180 O186 1.268 . S
C180 O196 1.268 . S
C181 O187 1.268 . S
C181 O195 1.268 . S
C182 O188 1.268 . S
C182 O197 1.268 . S
C183 O189 1.268 . S
C183 O193 1.268 . S
C184 O190 1.268 . S
C184 O192 1.268 . S
C185 O191 1.268 . S
C185 O194 1.268 . S
O186 Sc176 2.105 . S
O186 C180 1.268 . S
O187 Sc177 2.105 . S
O187 C181 1.268 . S
O188 Sc178 2.105 . S
O188 C182 1.268 . S
O189 Sc176 2.105 . S
O189 C183 1.268 . S
O190 Sc178 2.105 . S
O190 C184 1.268 . S
O191 Sc177 2.105 . S
O191 C185 1.268 . S
O192 Sc176 2.105 . S
O192 C184 1.268 . S
O193 Sc177 2.105 . S
O193 C183 1.268 . S
O194 Sc178 2.105 . S
O194 C185 1.268 . S
O195 Sc176 2.105 . S
O195 C181 1.268 . S
O196 Sc178 2.105 . S
O196 C180 1.268 . S
O197 Sc177 2.105 . S
O197 C182 1.268 . S
Sc198 O201 2.024 1_655 S
Sc198 O208 2.105 . S
Sc198 O211 2.105 . S
Sc198 O214 2.104 1_655 S
Sc198 O217 2.106 . S
Sc199 O201 2.025 . S
Sc199 O209 2.105 1_455 S
Sc199 O213 2.105 . S
Sc199 O215 2.105 . S
Sc199 O219 2.105 . S
Sc200 O201 2.025 . S
Sc200 O210 2.105 . S
Sc200 O212 2.105 . S
Sc200 O216 2.105 . S
Sc200 O218 2.105 . S
O201 Sc198 2.024 1_455 S
O201 Sc199 2.025 . S
O201 Sc200 2.025 . S
C202 O208 1.268 1_455 S
C202 O218 1.268 . S
C203 O209 1.268 . S
C203 O217 1.268 . S
C204 O210 1.268 . S
C204 O219 1.268 . S
C205 O211 1.268 1_455 S
C205 O215 1.268 . S
C206 O212 1.268 . S
C206 O214 1.268 . S
C207 O213 1.268 . S
C207 O216 1.268 . S
O208 Sc198 2.105 . S
O208 C202 1.268 1_655 S
O209 Sc199 2.105 1_655 S
O209 C203 1.268 . S
O210 Sc200 2.105 . S
O210 C204 1.268 . S
O211 Sc198 2.105 . S
O211 C205 1.268 1_655 S
O212 Sc200 2.105 . S
O212 C206 1.268 . S
O213 Sc199 2.105 . S
O213 C207 1.268 . S
O214 Sc198 2.104 1_455 S
O214 C206 1.268 . S
O215 Sc199 2.105 . S
O215 C205 1.268 . S
O216 Sc200 2.105 . S
O216 C207 1.268 . S
O217 Sc198 2.106 . S
O217 C203 1.268 . S
O218 Sc200 2.105 . S
O218 C202 1.268 . S
O219 Sc199 2.105 . S
O219 C204 1.268 . S
Sc220 O223 2.025 . S
Sc220 O230 2.105 . S
Sc220 O233 2.105 . S
Sc220 O236 2.105 . S
Sc220 O239 2.105 . S
Sc221 O223 2.025 . S
Sc221 O231 2.105 . S
Sc221 O235 2.105 1_545 S
Sc221 O237 2.105 . S
Sc221 O241 2.105 . S
Sc222 O223 2.024 1_565 S
Sc222 O232 2.105 . S
Sc222 O234 2.105 . S
Sc222 O238 2.106 . S
Sc222 O240 2.104 1_565 S
O223 Sc220 2.025 . S
O223 Sc221 2.025 . S
O223 Sc222 2.024 1_545 S
C224 O230 1.268 . S
C224 O240 1.268 . S
C225 O231 1.268 . S
C225 O239 1.268 . S
C226 O232 1.268 1_545 S
C226 O241 1.268 . S
C227 O233 1.268 . S
C227 O237 1.268 . S
C228 O234 1.268 1_545 S
C228 O236 1.268 . S
C229 O235 1.268 . S
C229 O238 1.268 . S
O230 Sc220 2.105 . S
O230 C224 1.268 . S
O231 Sc221 2.105 . S
O231 C225 1.268 . S
O232 Sc222 2.105 . S
O232 C226 1.268 1_565 S
O233 Sc220 2.105 . S
O233 C227 1.268 . S
O234 Sc222 2.105 . S
O234 C228 1.268 1_565 S
O235 Sc221 2.105 1_565 S
O235 C229 1.268 . S
O236 Sc220 2.105 . S
O236 C228 1.268 . S
O237 Sc221 2.105 . S
O237 C227 1.268 . S
O238 Sc222 2.106 . S
O238 C229 1.268 . S
O239 Sc220 2.105 . S
O239 C225 1.268 . S
O240 Sc222 2.104 1_545 S
O240 C224 1.268 . S
O241 Sc221 2.105 . S
O241 C226 1.268 . S
Sc242 O245 2.025 . S
Sc242 O252 2.105 . S
Sc242 O255 2.105 . S
Sc242 O258 2.105 . S
Sc242 O261 2.105 . S
Sc243 O245 2.025 . S
Sc243 O253 2.105 . S
Sc243 O257 2.105 . S
Sc243 O259 2.105 . S
Sc243 O263 2.105 . S
Sc244 O245 2.025 . S
Sc244 O254 2.105 . S
Sc244 O256 2.105 . S
Sc244 O260 2.105 . S
Sc244 O262 2.105 . S
O245 Sc242 2.025 . S
O245 Sc243 2.025 . S
O245 Sc244 2.025 . S
C246 O252 1.268 . S
C246 O262 1.268 . S
C247 O253 1.268 . S
C247 O261 1.268 . S
C248 O254 1.268 . S
C248 O263 1.268 . S
C249 O255 1.268 . S
C249 O259 1.268 . S
C250 O256 1.268 . S
C250 O258 1.268 . S
C251 O257 1.268 . S
C251 O260 1.268 . S
O252 Sc242 2.105 . S
O252 C246 1.268 . S
O253 Sc243 2.105 . S
O253 C247 1.268 . S
O254 Sc244 2.105 . S
O254 C248 1.268 . S
O255 Sc242 2.105 . S
O255 C249 1.268 . S
O256 Sc244 2.105 . S
O256 C250 1.268 . S
O257 Sc243 2.105 . S
O257 C251 1.268 . S
O258 Sc242 2.105 . S
O258 C250 1.268 . S
O259 Sc243 2.105 . S
O259 C249 1.268 . S
O260 Sc244 2.105 . S
O260 C251 1.268 . S
O261 Sc242 2.105 . S
O261 C247 1.268 . S
O262 Sc244 2.105 . S
O262 C246 1.268 . S
O263 Sc243 2.105 . S
O263 C248 1.268 . S
Sc264 O267 2.025 . S
Sc264 O274 2.105 . S
Sc264 O277 2.105 . S
Sc264 O280 2.105 . S
Sc264 O283 2.105 . S
Sc265 O267 2.025 . S
Sc265 O275 2.105 . S
Sc265 O279 2.105 . S
Sc265 O281 2.105 . S
Sc265 O285 2.105 . S
Sc266 O267 2.025 . S
Sc266 O276 2.105 . S
Sc266 O278 2.105 . S
Sc266 O282 2.105 . S
Sc266 O284 2.105 . S
O267 Sc264 2.025 . S
O267 Sc265 2.025 . S
O267 Sc266 2.025 . S
C268 O274 1.268 . S
C268 O284 1.268 . S
C269 O275 1.268 . S
C269 O283 1.268 . S
C270 O276 1.268 . S
C270 O285 1.268 . S
C271 O277 1.268 . S
C271 O281 1.268 . S
C272 O278 1.268 . S
C272 O280 1.268 . S
C273 O279 1.268 . S
C273 O282 1.268 . S
O274 Sc264 2.105 . S
O274 C268 1.268 . S
O275 Sc265 2.105 . S
O275 C269 1.268 . S
O276 Sc266 2.105 . S
O276 C270 1.268 . S
O277 Sc264 2.105 . S
O277 C271 1.268 . S
O278 Sc266 2.105 . S
O278 C272 1.268 . S
O279 Sc265 2.105 . S
O279 C273 1.268 . S
O280 Sc264 2.105 . S
O280 C272 1.268 . S
O281 Sc265 2.105 . S
O281 C271 1.268 . S
O282 Sc266 2.105 . S
O282 C273 1.268 . S
O283 Sc264 2.105 . S
O283 C269 1.268 . S
O284 Sc266 2.105 . S
O284 C268 1.268 . S
O285 Sc265 2.105 . S
O285 C270 1.268 . S
Sc286 O289 2.025 . S
Sc286 O296 2.105 . S
Sc286 O299 2.105 . S
Sc286 O302 2.105 . S
Sc286 O305 2.105 . S
Sc287 O289 2.025 . S
Sc287 O297 2.105 . S
Sc287 O301 2.105 1_655 S
Sc287 O303 2.105 . S
Sc287 O307 2.105 . S
Sc288 O289 2.024 1_455 S
Sc288 O298 2.105 . S
Sc288 O300 2.105 . S
Sc288 O304 2.106 . S
Sc288 O306 2.104 1_455 S
O289 Sc286 2.025 . S
O289 Sc287 2.025 . S
O289 Sc288 2.024 1_655 S
C290 O296 1.268 . S
C290 O306 1.268 . S
C291 O297 1.268 . S
C291 O305 1.268 . S
C292 O298 1.268 1_655 S
C292 O307 1.268 . S
C293 O299 1.268 . S
C293 O303 1.268 . S
C294 O300 1.268 1_655 S
C294 O302 1.268 . S
C295 O301 1.268 . S
C295 O304 1.268 . S
O296 Sc286 2.105 . S
O296 C290 1.268 . S
O297 Sc287 2.105 . S
O297 C291 1.268 . S
O298 Sc288 2.105 . S
O298 C292 1.268 1_455 S
O299 Sc286 2.105 . S
O299 C293 1.268 . S
O300 Sc288 2.105 . S
O300 C294 1.268 1_455 S
O301 Sc287 2.105 1_455 S
O301 C295 1.268 . S
O302 Sc286 2.105 . S
O302 C294 1.268 . S
O303 Sc287 2.105 . S
O303 C293 1.268 . S
O304 Sc288 2.106 . S
O304 C295 1.268 . S
O305 Sc286 2.105 . S
O305 C291 1.268 . S
O306 Sc288 2.104 1_655 S
O306 C290 1.268 . S
O307 Sc287 2.105 . S
O307 C292 1.268 . S
Sc308 O311 2.025 . S
Sc308 O318 2.105 . S
Sc308 O321 2.105 . S
Sc308 O324 2.105 . S
Sc308 O327 2.105 . S
Sc309 O311 2.025 . S
Sc309 O319 2.105 . S
Sc309 O323 2.105 1_565 S
Sc309 O325 2.105 . S
Sc309 O329 2.105 . S
Sc310 O311 2.024 1_545 S
Sc310 O320 2.105 . S
Sc310 O322 2.105 . S
Sc310 O326 2.106 . S
Sc310 O328 2.104 1_545 S
O311 Sc308 2.025 . S
O311 Sc309 2.025 . S
O311 Sc310 2.024 1_565 S
C312 O318 1.268 . S
C312 O328 1.268 . S
C313 O319 1.268 . S
C313 O327 1.268 . S
C314 O320 1.268 1_565 S
C314 O329 1.268 . S
C315 O321 1.268 . S
C315 O325 1.268 . S
C316 O322 1.268 1_565 S
C316 O324 1.268 . S
C317 O323 1.268 . S
C317 O326 1.268 . S
O318 Sc308 2.105 . S
O318 C312 1.268 . S
O319 Sc309 2.105 . S
O319 C313 1.268 . S
O320 Sc310 2.105 . S
O320 C314 1.268 1_545 S
O321 Sc308 2.105 . S
O321 C315 1.268 . S
O322 Sc310 2.105 . S
O322 C316 1.268 1_545 S
O323 Sc309 2.105 1_545 S
O323 C317 1.268 . S
O324 Sc308 2.105 . S
O324 C316 1.268 . S
O325 Sc309 2.105 . S
O325 C315 1.268 . S
O326 Sc310 2.106 . S
O326 C317 1.268 . S
O327 Sc308 2.105 . S
O327 C313 1.268 . S
O328 Sc310 2.104 1_565 S
O328 C312 1.268 . S
O329 Sc309 2.105 . S
O329 C314 1.268 . S
Sc330 O333 2.025 . S
Sc330 O340 2.105 . S
Sc330 O343 2.105 . S
Sc330 O346 2.105 . S
Sc330 O349 2.105 . S
Sc331 O333 2.025 . S
Sc331 O341 2.105 . S
Sc331 O345 2.105 . S
Sc331 O347 2.105 . S
Sc331 O351 2.105 . S
Sc332 O333 2.025 . S
Sc332 O342 2.105 . S
Sc332 O344 2.105 . S
Sc332 O348 2.105 . S
Sc332 O350 2.105 . S
O333 Sc330 2.025 . S
O333 Sc331 2.025 . S
O333 Sc332 2.025 . S
C334 O340 1.268 . S
C334 O350 1.268 . S
C335 O341 1.268 . S
C335 O349 1.268 . S
C336 O342 1.268 . S
C336 O351 1.268 . S
C337 O343 1.268 . S
C337 O347 1.268 . S
C338 O344 1.268 . S
C338 O346 1.268 . S
C339 O345 1.268 . S
C339 O348 1.268 . S
O340 Sc330 2.105 . S
O340 C334 1.268 . S
O341 Sc331 2.105 . S
O341 C335 1.268 . S
O342 Sc332 2.105 . S
O342 C336 1.268 . S
O343 Sc330 2.105 . S
O343 C337 1.268 . S
O344 Sc332 2.105 . S
O344 C338 1.268 . S
O345 Sc331 2.105 . S
O345 C339 1.268 . S
O346 Sc330 2.105 . S
O346 C338 1.268 . S
O347 Sc331 2.105 . S
O347 C337 1.268 . S
O348 Sc332 2.105 . S
O348 C339 1.268 . S
O349 Sc330 2.105 . S
O349 C335 1.268 . S
O350 Sc332 2.105 . S
O350 C334 1.268 . S
O351 Sc331 2.105 . S
O351 C336 1.268 . S
H352 C358 0.930 . S
H353 C361 0.930 . S
H354 C362 0.930 . S
H355 C363 0.930 . S
H356 C366 0.930 . S
H357 C367 0.930 . S
C358 H352 0.930 . S
C358 C359 1.355 . S
C358 C360 1.415 . S
C359 C358 1.355 . S
C359 C361 1.419 . S
C360 C358 1.415 . S
C360 C365 1.425 . S
C360 C367 1.409 . S
C361 H353 0.930 . S
C361 C359 1.419 . S
C361 C362 1.362 . S
C362 H354 0.930 . S
C362 C361 1.362 . S
C362 C365 1.409 . S
C363 H355 0.930 . S
C363 C364 1.355 . S
C363 C365 1.415 . S
C364 C363 1.355 . S
C364 C366 1.419 . S
C365 C360 1.425 . S
C365 C362 1.409 . S
C365 C363 1.415 . S
C366 H356 0.930 . S
C366 C364 1.419 . S
C366 C367 1.362 . S
C367 H357 0.930 . S
C367 C360 1.409 . S
C367 C366 1.362 . S
H368 C374 0.930 . S
H369 C377 0.930 . S
H370 C378 0.930 . S
H371 C379 0.930 . S
H372 C382 0.930 . S
H373 C383 0.930 . S
C374 H368 0.930 . S
C374 C375 1.355 . S
C374 C376 1.422 . S
C375 C374 1.355 . S
C375 C377 1.419 . S
C376 C374 1.422 . S
C376 C381 1.425 1_554 S
C376 C383 1.402 1_554 S
C377 H369 0.930 . S
C377 C375 1.419 . S
C377 C378 1.362 . S
C378 H370 0.930 . S
C378 C377 1.362 . S
C378 C381 1.402 1_554 S
C379 H371 0.930 . S
C379 C380 1.355 . S
C379 C381 1.422 . S
C380 C379 1.355 . S
C380 C382 1.419 . S
C381 C376 1.425 1_556 S
C381 C378 1.402 1_556 S
C381 C379 1.422 . S
C382 H372 0.930 . S
C382 C380 1.419 . S
C382 C383 1.362 . S
C383 H373 0.930 . S
C383 C376 1.402 1_556 S
C383 C382 1.362 . S
H384 C390 0.930 . S
H385 C393 0.930 . S
H386 C394 0.930 . S
H387 C395 0.930 . S
H388 C398 0.930 . S
H389 C399 0.930 . S
C390 H384 0.930 . S
C390 C391 1.355 . S
C390 C392 1.415 . S
C391 C390 1.355 . S
C391 C393 1.419 . S
C392 C390 1.415 . S
C392 C397 1.425 . S
C392 C399 1.409 . S
C393 H385 0.930 . S
C393 C391 1.419 . S
C393 C394 1.362 . S
C394 H386 0.930 . S
C394 C393 1.362 . S
C394 C397 1.409 . S
C395 H387 0.930 . S
C395 C396 1.355 . S
C395 C397 1.415 . S
C396 C395 1.355 . S
C396 C398 1.419 . S
C397 C392 1.425 . S
C397 C394 1.409 . S
C397 C395 1.415 . S
C398 H388 0.930 . S
C398 C396 1.419 . S
C398 C399 1.362 . S
C399 H389 0.930 . S
C399 C392 1.409 . S
C399 C398 1.362 . S
H400 C406 0.930 . S
H401 C409 0.930 . S
H402 C410 0.930 . S
H403 C411 0.930 . S
H404 C414 0.930 . S
H405 C415 0.930 . S
C406 H400 0.930 . S
C406 C407 1.355 . S
C406 C408 1.415 . S
C407 C406 1.355 . S
C407 C409 1.419 . S
C408 C406 1.415 . S
C408 C413 1.425 1_556 S
C408 C415 1.409 . S
C409 H401 0.930 . S
C409 C407 1.419 . S
C409 C410 1.362 1_556 S
C410 H402 0.930 . S
C410 C409 1.362 1_554 S
C410 C413 1.409 . S
C411 H403 0.930 . S
C411 C412 1.355 . S
C411 C413 1.415 . S
C412 C411 1.355 . S
C412 C414 1.419 . S
C413 C408 1.425 1_554 S
C413 C410 1.409 . S
C413 C411 1.415 . S
C414 H404 0.930 . S
C414 C412 1.419 . S
C414 C415 1.362 1_554 S
C415 H405 0.930 . S
C415 C408 1.409 . S
C415 C414 1.362 1_556 S
H416 C422 0.930 . S
H417 C425 0.930 . S
H418 C426 0.930 . S
H419 C427 0.930 . S
H420 C430 0.930 . S
H421 C431 0.930 . S
C422 H416 0.930 . S
C422 C423 1.355 . S
C422 C424 1.415 . S
C423 C422 1.355 . S
C423 C425 1.419 . S
C424 C422 1.415 . S
C424 C429 1.425 . S
C424 C431 1.409 . S
C425 H417 0.930 . S
C425 C423 1.419 . S
C425 C426 1.362 . S
C426 H418 0.930 . S
C426 C425 1.362 . S
C426 C429 1.409 . S
C427 H419 0.930 . S
C427 C428 1.355 . S
C427 C429 1.415 . S
C428 C427 1.355 . S
C428 C430 1.419 . S
C429 C424 1.425 . S
C429 C426 1.409 . S
C429 C427 1.415 . S
C430 H420 0.930 . S
C430 C428 1.419 . S
C430 C431 1.362 . S
C431 H421 0.930 . S
C431 C424 1.409 . S
C431 C430 1.362 . S
H432 C438 0.930 . S
H433 C441 0.930 . S
H434 C442 0.930 . S
H435 C443 0.930 . S
H436 C446 0.930 . S
H437 C447 0.930 . S
C438 H432 0.930 . S
C438 C439 1.355 . S
C438 C440 1.415 . S
C439 C438 1.355 . S
C439 C441 1.419 . S
C440 C438 1.415 . S
C440 C445 1.425 1_556 S
C440 C447 1.409 . S
C441 H433 0.930 . S
C441 C439 1.419 . S
C441 C442 1.362 1_556 S
C442 H434 0.930 . S
C442 C441 1.362 1_554 S
C442 C445 1.409 . S
C443 H435 0.930 . S
C443 C444 1.355 . S
C443 C445 1.415 . S
C444 C443 1.355 . S
C444 C446 1.419 . S
C445 C440 1.425 1_554 S
C445 C442 1.409 . S
C445 C443 1.415 . S
C446 H436 0.930 . S
C446 C444 1.419 . S
C446 C447 1.362 1_554 S
C447 H437 0.930 . S
C447 C440 1.409 . S
C447 C446 1.362 1_556 S
H448 C454 0.930 . S
H449 C457 0.930 . S
H450 C458 0.930 . S
H451 C459 0.930 . S
H452 C462 0.930 . S
H453 C463 0.930 . S
C454 H448 0.930 . S
C454 C455 1.355 . S
C454 C456 1.415 . S
C455 C454 1.355 . S
C455 C457 1.419 . S
C456 C454 1.415 . S
C456 C461 1.425 . S
C456 C463 1.409 . S
C457 H449 0.930 . S
C457 C455 1.419 . S
C457 C458 1.362 . S
C458 H450 0.930 . S
C458 C457 1.362 . S
C458 C461 1.409 . S
C459 H451 0.930 . S
C459 C460 1.355 . S
C459 C461 1.415 . S
C460 C459 1.355 . S
C460 C462 1.419 . S
C461 C456 1.425 . S
C461 C458 1.409 . S
C461 C459 1.415 . S
C462 H452 0.930 . S
C462 C460 1.419 . S
C462 C463 1.362 . S
C463 H453 0.930 . S
C463 C456 1.409 . S
C463 C462 1.362 . S
H464 C470 0.932 . S
H465 C473 0.930 . S
H466 C474 0.930 . S
H467 C475 0.932 . S
H468 C478 0.930 . S
H469 C479 0.930 . S
C470 H464 0.932 . S
C470 C471 1.355 . S
C470 C472 1.415 1_556 S
C471 C470 1.355 . S
C471 C473 1.419 . S
C472 C470 1.415 1_554 S
C472 C477 1.425 1_554 S
C472 C479 1.409 . S
C473 H465 0.930 . S
C473 C471 1.419 . S
C473 C474 1.362 . S
C474 H466 0.930 . S
C474 C473 1.362 . S
C474 C477 1.409 . S
C475 H467 0.932 . S
C475 C476 1.355 . S
C475 C477 1.415 1_554 S
C476 C475 1.355 . S
C476 C478 1.419 . S
C477 C472 1.425 1_556 S
C477 C474 1.409 . S
C477 C475 1.415 1_556 S
C478 H468 0.930 . S
C478 C476 1.419 . S
C478 C479 1.362 . S
C479 H469 0.930 . S
C479 C472 1.409 . S
C479 C478 1.362 . S
H480 C486 0.930 . S
H481 C489 0.930 . S
H482 C490 0.930 . S
H483 C491 0.930 . S
H484 C494 0.930 . S
H485 C495 0.930 . S
C486 H480 0.930 . S
C486 C487 1.355 . S
C486 C488 1.415 . S
C487 C486 1.355 . S
C487 C489 1.419 . S
C488 C486 1.415 . S
C488 C493 1.425 . S
C488 C495 1.409 . S
C489 H481 0.930 . S
C489 C487 1.419 . S
C489 C490 1.362 . S
C490 H482 0.930 . S
C490 C489 1.362 . S
C490 C493 1.409 . S
C491 H483 0.930 . S
C491 C492 1.355 . S
C491 C493 1.415 . S
C492 C491 1.355 . S
C492 C494 1.419 . S
C493 C488 1.425 . S
C493 C490 1.409 . S
C493 C491 1.415 . S
C494 H484 0.930 . S
C494 C492 1.419 . S
C494 C495 1.362 . S
C495 H485 0.930 . S
C495 C488 1.409 . S
C495 C494 1.362 . S
H496 C502 0.930 . S
H497 C505 0.930 . S
H498 C506 0.930 . S
H499 C507 0.930 . S
H500 C510 0.930 . S
H501 C511 0.930 . S
C502 H496 0.930 . S
C502 C503 1.355 . S
C502 C504 1.415 . S
C503 C502 1.355 . S
C503 C505 1.419 . S
C504 C502 1.415 . S
C504 C509 1.425 . S
C504 C511 1.409 . S
C505 H497 0.930 . S
C505 C503 1.419 . S
C505 C506 1.362 . S
C506 H498 0.930 . S
C506 C505 1.362 . S
C506 C509 1.409 . S
C507 H499 0.930 . S
C507 C508 1.355 . S
C507 C509 1.415 . S
C508 C507 1.355 . S
C508 C510 1.419 . S
C509 C504 1.425 . S
C509 C506 1.409 . S
C509 C507 1.415 . S
C510 H500 0.930 . S
C510 C508 1.419 . S
C510 C511 1.362 . S
C511 H501 0.930 . S
C511 C504 1.409 . S
C511 C510 1.362 . S
H512 C518 0.930 . S
H513 C521 0.930 . S
H514 C522 0.930 . S
H515 C523 0.930 . S
H516 C526 0.930 . S
H517 C527 0.930 . S
C518 H512 0.930 . S
C518 C519 1.355 . S
C518 C520 1.415 . S
C519 C518 1.355 . S
C519 C521 1.419 . S
C520 C518 1.415 . S
C520 C525 1.425 . S
C520 C527 1.409 . S
C521 H513 0.930 . S
C521 C519 1.419 . S
C521 C522 1.362 . S
C522 H514 0.930 . S
C522 C521 1.362 . S
C522 C525 1.409 . S
C523 H515 0.930 . S
C523 C524 1.355 . S
C523 C525 1.415 . S
C524 C523 1.355 . S
C524 C526 1.419 . S
C525 C520 1.425 . S
C525 C522 1.409 . S
C525 C523 1.415 . S
C526 H516 0.930 . S
C526 C524 1.419 . S
C526 C527 1.362 . S
C527 H517 0.930 . S
C527 C520 1.409 . S
C527 C526 1.362 . S
H528 C534 0.930 . S
H529 C537 0.930 . S
H530 C538 0.930 . S
H531 C539 0.930 . S
H532 C542 0.930 . S
H533 C543 0.930 . S
C534 H528 0.930 . S
C534 C535 1.355 . S
C534 C536 1.415 . S
C535 C534 1.355 . S
C535 C537 1.419 . S
C536 C534 1.415 . S
C536 C541 1.425 . S
C536 C543 1.409 . S
C537 H529 0.930 . S
C537 C535 1.419 . S
C537 C538 1.362 . S
C538 H530 0.930 . S
C538 C537 1.362 . S
C538 C541 1.409 . S
C539 H531 0.930 . S
C539 C540 1.355 . S
C539 C541 1.415 . S
C540 C539 1.355 . S
C540 C542 1.419 . S
C541 C536 1.425 . S
C541 C538 1.409 . S
C541 C539 1.415 . S
C542 H532 0.930 . S
C542 C540 1.419 . S
C542 C543 1.362 . S
C543 H533 0.930 . S
C543 C536 1.409 . S
C543 C542 1.362 . S
H544 C550 0.930 . S
H545 C553 0.930 . S
H546 C554 0.930 . S
H547 C555 0.930 . S
H548 C558 0.930 . S
H549 C559 0.930 . S
C550 H544 0.930 . S
C550 C551 1.355 . S
C550 C552 1.415 . S
C551 C550 1.355 . S
C551 C553 1.419 . S
C552 C550 1.415 . S
C552 C557 1.425 . S
C552 C559 1.409 . S
C553 H545 0.930 . S
C553 C551 1.419 . S
C553 C554 1.362 . S
C554 H546 0.930 . S
C554 C553 1.362 . S
C554 C557 1.409 . S
C555 H547 0.930 . S
C555 C556 1.355 . S
C555 C557 1.415 . S
C556 C555 1.355 . S
C556 C558 1.419 . S
C557 C552 1.425 . S
C557 C554 1.409 . S
C557 C555 1.415 . S
C558 H548 0.930 . S
C558 C556 1.419 . S
C558 C559 1.362 . S
C559 H549 0.930 . S
C559 C552 1.409 . S
C559 C558 1.362 . S
H560 C566 0.930 . S
H561 C569 0.930 . S
H562 C570 0.930 . S
H563 C571 0.930 . S
H564 C574 0.930 . S
H565 C575 0.930 . S
C566 H560 0.930 . S
C566 C567 1.355 . S
C566 C568 1.415 . S
C567 C566 1.355 . S
C567 C569 1.419 . S
C568 C566 1.415 . S
C568 C573 1.425 . S
C568 C575 1.409 . S
C569 H561 0.930 . S
C569 C567 1.419 . S
C569 C570 1.362 . S
C570 H562 0.930 . S
C570 C569 1.362 . S
C570 C573 1.409 . S
C571 H563 0.930 . S
C571 C572 1.355 . S
C571 C573 1.415 . S
C572 C571 1.355 . S
C572 C574 1.419 . S
C573 C568 1.425 . S
C573 C570 1.409 . S
C573 C571 1.415 . S
C574 H564 0.930 . S
C574 C572 1.419 . S
C574 C575 1.362 . S
C575 H565 0.930 . S
C575 C568 1.409 . S
C575 C574 1.362 . S
H576 C582 0.930 . S
H577 C585 0.930 . S
H578 C586 0.930 . S
H579 C587 0.930 . S
H580 C590 0.930 . S
H581 C591 0.930 . S
C582 H576 0.930 . S
C582 C583 1.355 . S
C582 C584 1.415 . S
C583 C582 1.355 . S
C583 C585 1.419 . S
C584 C582 1.415 . S
C584 C589 1.425 . S
C584 C591 1.409 . S
C585 H577 0.930 . S
C585 C583 1.419 . S
C585 C586 1.362 . S
C586 H578 0.930 . S
C586 C585 1.362 . S
C586 C589 1.409 . S
C587 H579 0.930 . S
C587 C588 1.355 . S
C587 C589 1.415 . S
C588 C587 1.355 . S
C588 C590 1.419 . S
C589 C584 1.425 . S
C589 C586 1.409 . S
C589 C587 1.415 . S
C590 H580 0.930 . S
C590 C588 1.419 . S
C590 C591 1.362 . S
C591 H581 0.930 . S
C591 C584 1.409 . S
C591 C590 1.362 . S
H592 C598 0.930 . S
H593 C601 0.930 . S
H594 C602 0.930 . S
H595 C603 0.930 . S
H596 C606 0.930 . S
H597 C607 0.930 . S
C598 H592 0.930 . S
C598 C599 1.355 . S
C598 C600 1.415 . S
C599 C598 1.355 . S
C599 C601 1.419 . S
C600 C598 1.415 . S
C600 C605 1.425 . S
C600 C607 1.409 . S
C601 H593 0.930 . S
C601 C599 1.419 . S
C601 C602 1.362 . S
C602 H594 0.930 . S
C602 C601 1.362 . S
C602 C605 1.409 . S
C603 H595 0.930 . S
C603 C604 1.355 . S
C603 C605 1.415 . S
C604 C603 1.355 . S
C604 C606 1.419 . S
C605 C600 1.425 . S
C605 C602 1.409 . S
C605 C603 1.415 . S
C606 H596 0.930 . S
C606 C604 1.419 . S
C606 C607 1.362 . S
C607 H597 0.930 . S
C607 C600 1.409 . S
C607 C606 1.362 . S
H608 C614 0.930 . S
H609 C617 0.930 1_556 S
H610 C618 0.930 . S
H611 C619 0.930 . S
H612 C622 0.930 . S
H613 C623 0.930 . S
C614 H608 0.930 . S
C614 C615 1.355 1_554 S
C614 C616 1.415 . S
C615 C614 1.355 1_556 S
C615 C617 1.419 1_556 S
C616 C614 1.415 . S
C616 C621 1.425 . S
C616 C623 1.409 . S
C617 H609 0.930 1_554 S
C617 C615 1.419 1_554 S
C617 C618 1.362 . S
C618 H610 0.930 . S
C618 C617 1.362 . S
C618 C621 1.409 . S
C619 H611 0.930 . S
C619 C620 1.355 . S
C619 C621 1.415 . S
C620 C619 1.355 . S
C620 C622 1.419 . S
C621 C616 1.425 . S
C621 C618 1.409 . S
C621 C619 1.415 . S
C622 H612 0.930 . S
C622 C620 1.419 . S
C622 C623 1.362 . S
C623 H613 0.930 . S
C623 C616 1.409 . S
C623 C622 1.362 . S
H624 C630 0.930 . S
H625 C633 0.930 . S
H626 C634 0.930 . S
H627 C635 0.930 . S
H628 C638 0.930 . S
H629 C639 0.930 . S
C630 H624 0.930 . S
C630 C631 1.355 . S
C630 C632 1.415 . S
C631 C630 1.355 . S
C631 C633 1.419 1_655 S
C632 C630 1.415 . S
C632 C637 1.425 1_655 S
C632 C639 1.409 . S
C633 H625 0.930 . S
C633 C631 1.419 1_455 S
C633 C634 1.362 . S
C634 H626 0.930 . S
C634 C633 1.362 . S
C634 C637 1.409 . S
C635 H627 0.930 . S
C635 C636 1.355 1_455 S
C635 C637 1.415 . S
C636 C635 1.355 1_655 S
C636 C638 1.419 . S
C637 C632 1.425 1_455 S
C637 C634 1.409 . S
C637 C635 1.415 . S
C638 H628 0.930 . S
C638 C636 1.419 . S
C638 C639 1.362 . S
C639 H629 0.930 . S
C639 C632 1.409 . S
C639 C638 1.362 . S
H640 C646 0.921 1_556 S
H641 C649 0.930 . S
H642 C650 0.930 . S
H643 C651 0.930 . S
H644 C654 0.930 . S
H645 C655 0.930 . S
C646 H640 0.921 1_554 S
C646 C647 1.355 1_544 S
C646 C648 1.415 . S
C647 C646 1.355 1_566 S
C647 C649 1.419 1_556 S
C648 C646 1.415 . S
C648 C653 1.425 1_545 S
C648 C655 1.409 . S
C649 H641 0.930 . S
C649 C647 1.419 1_554 S
C649 C650 1.362 . S
C650 H642 0.930 . S
C650 C649 1.362 . S
C650 C653 1.409 . S
C651 H643 0.930 . S
C651 C652 1.355 . S
C651 C653 1.415 . S
C652 C651 1.355 . S
C652 C654 1.419 1_565 S
C653 C648 1.425 1_565 S
C653 C650 1.409 . S
C653 C651 1.415 . S
C654 H644 0.930 . S
C654 C652 1.419 1_545 S
C654 C655 1.362 . S
C655 H645 0.930 . S
C655 C648 1.409 . S
C655 C654 1.362 . S
H656 C662 0.930 . S
H657 C665 0.930 . S
H658 C666 0.930 . S
H659 C667 0.930 . S
H660 C670 0.930 . S
H661 C671 0.930 . S
C662 H656 0.930 . S
C662 C663 1.355 . S
C662 C664 1.415 . S
C663 C662 1.355 . S
C663 C665 1.419 . S
C664 C662 1.415 . S
C664 C669 1.425 . S
C664 C671 1.409 . S
C665 H657 0.930 . S
C665 C663 1.419 . S
C665 C666 1.362 . S
C666 H658 0.930 . S
C666 C665 1.362 . S
C666 C669 1.409 . S
C667 H659 0.930 . S
C667 C668 1.355 . S
C667 C669 1.415 . S
C668 C667 1.355 . S
C668 C670 1.419 . S
C669 C664 1.425 . S
C669 C666 1.409 . S
C669 C667 1.415 . S
C670 H660 0.930 . S
C670 C668 1.419 . S
C670 C671 1.362 . S
C671 H661 0.930 . S
C671 C664 1.409 . S
C671 C670 1.362 . S
H672 C678 0.930 . S
H673 C681 0.930 . S
H674 C682 0.930 . S
H675 C683 0.930 . S
H676 C686 0.930 . S
H677 C687 0.930 . S
C678 H672 0.930 . S
C678 C679 1.355 . S
C678 C680 1.415 . S
C679 C678 1.355 . S
C679 C681 1.419 . S
C680 C678 1.415 . S
C680 C685 1.425 . S
C680 C687 1.409 . S
C681 H673 0.930 . S
C681 C679 1.419 . S
C681 C682 1.362 . S
C682 H674 0.930 . S
C682 C681 1.362 . S
C682 C685 1.409 . S
C683 H675 0.930 . S
C683 C684 1.355 . S
C683 C685 1.415 . S
C684 C683 1.355 . S
C684 C686 1.419 . S
C685 C680 1.425 . S
C685 C682 1.409 . S
C685 C683 1.415 . S
C686 H676 0.930 . S
C686 C684 1.419 . S
C686 C687 1.362 . S
C687 H677 0.930 . S
C687 C680 1.409 . S
C687 C686 1.362 . S
H688 C694 0.930 . S
H689 C697 0.930 . S
H690 C698 0.930 . S
H691 C699 0.930 . S
H692 C702 0.930 . S
H693 C703 0.930 . S
C694 H688 0.930 . S
C694 C695 1.355 1_655 S
C694 C696 1.415 . S
C695 C694 1.355 1_455 S
C695 C697 1.419 . S
C696 C694 1.415 . S
C696 C701 1.425 1_655 S
C696 C703 1.409 . S
C697 H689 0.930 . S
C697 C695 1.419 . S
C697 C698 1.362 . S
C698 H690 0.930 . S
C698 C697 1.362 . S
C698 C701 1.409 . S
C699 H691 0.930 . S
C699 C700 1.355 1_556 S
C699 C701 1.415 . S
C700 C699 1.355 1_554 S
C700 C702 1.419 1_455 S
C701 C696 1.425 1_455 S
C701 C698 1.409 . S
C701 C699 1.415 . S
C702 H692 0.930 . S
C702 C700 1.419 1_655 S
C702 C703 1.362 1_554 S
C703 H693 0.930 . S
C703 C696 1.409 . S
C703 C702 1.362 1_556 S
H704 C710 0.930 . S
H705 C713 0.930 . S
H706 C714 0.930 . S
H707 C715 0.930 . S
H708 C718 0.930 . S
H709 C719 0.930 . S
C710 H704 0.930 . S
C710 C711 1.355 1_565 S
C710 C712 1.415 . S
C711 C710 1.355 1_545 S
C711 C713 1.419 . S
C712 C710 1.415 . S
C712 C717 1.425 1_565 S
C712 C719 1.409 . S
C713 H705 0.930 . S
C713 C711 1.419 . S
C713 C714 1.362 . S
C714 H706 0.930 . S
C714 C713 1.362 . S
C714 C717 1.409 . S
C715 H707 0.930 . S
C715 C716 1.355 . S
C715 C717 1.415 . S
C716 C715 1.355 . S
C716 C718 1.419 1_545 S
C717 C712 1.425 1_545 S
C717 C714 1.409 . S
C717 C715 1.415 . S
C718 H708 0.930 . S
C718 C716 1.419 1_565 S
C718 C719 1.362 . S
C719 H709 0.930 . S
C719 C712 1.409 . S
C719 C718 1.362 . S
H720 C726 0.930 1_554 S
H721 C729 0.930 . S
H722 C730 0.930 . S
H723 C731 0.930 . S
H724 C734 0.930 . S
H725 C735 0.930 . S
C726 H720 0.930 1_556 S
C726 C727 1.355 1_556 S
C726 C728 1.415 . S
C727 C726 1.355 1_554 S
C727 C729 1.419 1_554 S
C728 C726 1.415 . S
C728 C733 1.425 . S
C728 C735 1.409 . S
C729 H721 0.930 . S
C729 C727 1.419 1_556 S
C729 C730 1.362 . S
C730 H722 0.930 . S
C730 C729 1.362 . S
C730 C733 1.409 . S
C731 H723 0.930 . S
C731 C732 1.355 . S
C731 C733 1.415 . S
C732 C731 1.355 . S
C732 C734 1.419 . S
C733 C728 1.425 . S
C733 C730 1.409 . S
C733 C731 1.415 . S
C734 H724 0.930 . S
C734 C732 1.419 . S
C734 C735 1.362 . S
C735 H725 0.930 . S
C735 C728 1.409 . S
C735 C734 1.362 . S
H736 C742 0.930 . S
H737 C745 0.930 . S
H738 C746 0.930 . S
H739 C747 0.930 . S
H740 C750 0.930 . S
H741 C751 0.930 . S
C742 H736 0.930 . S
C742 C743 1.355 . S
C742 C744 1.415 . S
C743 C742 1.355 . S
C743 C745 1.419 . S
C744 C742 1.415 . S
C744 C749 1.425 . S
C744 C751 1.409 . S
C745 H737 0.930 . S
C745 C743 1.419 . S
C745 C746 1.362 . S
C746 H738 0.930 . S
C746 C745 1.362 . S
C746 C749 1.409 . S
C747 H739 0.930 . S
C747 C748 1.355 1_556 S
C747 C749 1.415 . S
C748 C747 1.355 1_554 S
C748 C750 1.419 . S
C749 C744 1.425 . S
C749 C746 1.409 . S
C749 C747 1.415 . S
C750 H740 0.930 . S
C750 C748 1.419 . S
C750 C751 1.362 1_554 S
C751 H741 0.930 . S
C751 C744 1.409 . S
C751 C750 1.362 1_556 S
H752 C758 0.930 . S
H753 C761 0.930 . S
H754 C762 0.930 . S
H755 C763 0.930 . S
H756 C766 0.930 . S
H757 C767 0.930 . S
C758 H752 0.930 . S
C758 C759 1.355 1_655 S
C758 C760 1.415 . S
C759 C758 1.355 1_455 S
C759 C761 1.419 . S
C760 C758 1.415 . S
C760 C765 1.425 1_655 S
C760 C767 1.409 . S
C761 H753 0.930 . S
C761 C759 1.419 . S
C761 C762 1.362 . S
C762 H754 0.930 . S
C762 C761 1.362 . S
C762 C765 1.409 . S
C763 H755 0.930 . S
C763 C764 1.355 . S
C763 C765 1.415 . S
C764 C763 1.355 . S
C764 C766 1.419 1_455 S
C765 C760 1.425 1_455 S
C765 C762 1.409 . S
C765 C763 1.415 . S
C766 H756 0.930 . S
C766 C764 1.419 1_655 S
C766 C767 1.362 . S
C767 H757 0.930 . S
C767 C760 1.409 . S
C767 C766 1.362 . S
H768 C774 0.930 . S
H769 C777 0.930 . S
H770 C778 0.930 . S
H771 C779 0.930 . S
H772 C782 0.930 . S
H773 C783 0.930 . S
C774 H768 0.930 . S
C774 C775 1.355 1_556 S
C774 C776 1.415 . S
C775 C774 1.355 1_554 S
C775 C777 1.419 1_545 S
C776 C774 1.415 . S
C776 C781 1.425 1_545 S
C776 C783 1.409 . S
C777 H769 0.930 . S
C777 C775 1.419 1_565 S
C777 C778 1.362 1_554 S
C778 H770 0.930 . S
C778 C777 1.362 1_556 S
C778 C781 1.409 . S
C779 H771 0.930 . S
C779 C780 1.355 1_565 S
C779 C781 1.415 . S
C780 C779 1.355 1_545 S
C780 C782 1.419 . S
C781 C776 1.425 1_565 S
C781 C778 1.409 . S
C781 C779 1.415 . S
C782 H772 0.930 . S
C782 C780 1.419 . S
C782 C783 1.362 . S
C783 H773 0.930 . S
C783 C776 1.409 . S
C783 C782 1.362 . S
H784 C790 0.930 . S
H785 C793 0.930 . S
H786 C794 0.930 . S
H787 C795 0.930 . S
H788 C798 0.930 . S
H789 C799 0.930 . S
C790 H784 0.930 . S
C790 C791 1.355 . S
C790 C792 1.415 . S
C791 C790 1.355 . S
C791 C793 1.419 . S
C792 C790 1.415 . S
C792 C797 1.425 . S
C792 C799 1.409 . S
C793 H785 0.930 . S
C793 C791 1.419 . S
C793 C794 1.362 . S
C794 H786 0.930 . S
C794 C793 1.362 . S
C794 C797 1.409 . S
C795 H787 0.930 . S
C795 C796 1.355 . S
C795 C797 1.415 . S
C796 C795 1.355 . S
C796 C798 1.419 . S
C797 C792 1.425 . S
C797 C794 1.409 . S
C797 C795 1.415 . S
C798 H788 0.930 . S
C798 C796 1.419 . S
C798 C799 1.362 . S
C799 H789 0.930 . S
C799 C792 1.409 . S
C799 C798 1.362 . S
H800 C806 0.930 . S
H801 C809 0.930 . S
H802 C810 0.930 . S
H803 C811 0.930 . S
H804 C814 0.930 . S
H805 C815 0.930 . S
C806 H800 0.930 . S
C806 C807 1.355 . S
C806 C808 1.415 . S
C807 C806 1.355 . S
C807 C809 1.419 . S
C808 C806 1.415 . S
C808 C813 1.425 . S
C808 C815 1.409 . S
C809 H801 0.930 . S
C809 C807 1.419 . S
C809 C810 1.362 . S
C810 H802 0.930 . S
C810 C809 1.362 . S
C810 C813 1.409 . S
C811 H803 0.930 . S
C811 C812 1.355 . S
C811 C813 1.415 . S
C812 C811 1.355 . S
C812 C814 1.419 . S
C813 C808 1.425 . S
C813 C810 1.409 . S
C813 C811 1.415 . S
C814 H804 0.930 . S
C814 C812 1.419 . S
C814 C815 1.362 . S
C815 H805 0.930 . S
C815 C808 1.409 . S
C815 C814 1.362 . S
H816 C822 0.930 . S
H817 C825 0.930 . S
H818 C826 0.930 . S
H819 C827 0.930 . S
H820 C830 0.930 1_556 S
H821 C831 0.930 . S
C822 H816 0.930 . S
C822 C823 1.355 . S
C822 C824 1.415 . S
C823 C822 1.355 . S
C823 C825 1.419 1_655 S
C824 C822 1.415 . S
C824 C829 1.425 1_655 S
C824 C831 1.409 . S
C825 H817 0.930 . S
C825 C823 1.419 1_455 S
C825 C826 1.362 . S
C826 H818 0.930 . S
C826 C825 1.362 . S
C826 C829 1.409 . S
C827 H819 0.930 . S
C827 C828 1.355 1_454 S
C827 C829 1.415 . S
C828 C827 1.355 1_656 S
C828 C830 1.419 1_556 S
C829 C824 1.425 1_455 S
C829 C826 1.409 . S
C829 C827 1.415 . S
C830 H820 0.930 1_554 S
C830 C828 1.419 1_554 S
C830 C831 1.362 . S
C831 H821 0.930 . S
C831 C824 1.409 . S
C831 C830 1.362 . S
H832 C838 0.930 . S
H833 C841 0.930 . S
H834 C842 0.930 . S
H835 C843 0.930 . S
H836 C846 0.930 . S
H837 C847 0.930 . S
C838 H832 0.930 . S
C838 C839 1.355 . S
C838 C840 1.415 . S
C839 C838 1.355 . S
C839 C841 1.419 1_565 S
C840 C838 1.415 . S
C840 C845 1.425 . S
C840 C847 1.409 . S
C841 H833 0.930 . S
C841 C839 1.419 1_545 S
C841 C842 1.362 . S
C842 H834 0.930 . S
C842 C841 1.362 . S
C842 C845 1.409 1_545 S
C843 H835 0.930 . S
C843 C844 1.355 1_545 S
C843 C845 1.415 1_545 S
C844 C843 1.355 1_565 S
C844 C846 1.419 . S
C845 C840 1.425 . S
C845 C842 1.409 1_565 S
C845 C843 1.415 1_565 S
C846 H836 0.930 . S
C846 C844 1.419 . S
C846 C847 1.362 . S
C847 H837 0.930 . S
C847 C840 1.409 . S
C847 C846 1.362 . S
H848 C854 0.930 . S
H849 C857 0.930 1_556 S
H850 C858 0.930 . S
H851 C859 0.930 . S
H852 C862 0.930 . S
H853 C863 0.930 . S
C854 H848 0.930 . S
C854 C855 1.355 1_554 S
C854 C856 1.415 . S
C855 C854 1.355 1_556 S
C855 C857 1.419 1_556 S
C856 C854 1.415 . S
C856 C861 1.425 . S
C856 C863 1.409 . S
C857 H849 0.930 1_554 S
C857 C855 1.419 1_554 S
C857 C858 1.362 . S
C858 H850 0.930 . S
C858 C857 1.362 . S
C858 C861 1.409 . S
C859 H851 0.930 . S
C859 C860 1.355 . S
C859 C861 1.415 . S
C860 C859 1.355 . S
C860 C862 1.419 . S
C861 C856 1.425 . S
C861 C858 1.409 . S
C861 C859 1.415 . S
C862 H852 0.930 . S
C862 C860 1.419 . S
C862 C863 1.362 . S
C863 H853 0.930 . S
C863 C856 1.409 . S
C863 C862 1.362 . S
H864 C870 0.930 . S
H865 C873 0.930 . S
H866 C874 0.930 . S
H867 C875 0.930 . S
H868 C878 0.930 . S
H869 C879 0.930 . S
C870 H864 0.930 . S
C870 C871 1.355 . S
C870 C872 1.415 . S
C871 C870 1.355 . S
C871 C873 1.419 . S
C872 C870 1.415 . S
C872 C877 1.425 . S
C872 C879 1.409 . S
C873 H865 0.930 . S
C873 C871 1.419 . S
C873 C874 1.362 . S
C874 H866 0.930 . S
C874 C873 1.362 . S
C874 C877 1.409 . S
C875 H867 0.930 . S
C875 C876 1.355 . S
C875 C877 1.415 . S
C876 C875 1.355 . S
C876 C878 1.419 . S
C877 C872 1.425 . S
C877 C874 1.409 . S
C877 C875 1.415 . S
C878 H868 0.930 . S
C878 C876 1.419 . S
C878 C879 1.362 . S
C879 H869 0.930 . S
C879 C872 1.409 . S
C879 C878 1.362 . S
H880 C886 0.930 . S
H881 C889 0.930 . S
H882 C890 0.930 . S
H883 C891 0.930 . S
H884 C894 0.930 . S
H885 C895 0.930 . S
C886 H880 0.930 . S
C886 C887 1.355 . S
C886 C888 1.415 . S
C887 C886 1.355 . S
C887 C889 1.419 . S
C888 C886 1.415 . S
C888 C893 1.425 . S
C888 C895 1.409 . S
C889 H881 0.930 . S
C889 C887 1.419 . S
C889 C890 1.362 . S
C890 H882 0.930 . S
C890 C889 1.362 . S
C890 C893 1.409 . S
C891 H883 0.930 . S
C891 C892 1.355 . S
C891 C893 1.415 . S
C892 C891 1.355 . S
C892 C894 1.419 . S
C893 C888 1.425 . S
C893 C890 1.409 . S
C893 C891 1.415 . S
C894 H884 0.930 . S
C894 C892 1.419 . S
C894 C895 1.362 . S
C895 H885 0.930 . S
C895 C888 1.409 . S
C895 C894 1.362 . S
H896 C902 0.930 . S
H897 C905 0.930 . S
H898 C906 0.930 . S
H899 C907 0.930 . S
H900 C910 0.930 . S
H901 C911 0.930 . S
C902 H896 0.930 . S
C902 C903 1.355 . S
C902 C904 1.415 . S
C903 C902 1.355 . S
C903 C905 1.419 . S
C904 C902 1.415 . S
C904 C909 1.425 . S
C904 C911 1.409 . S
C905 H897 0.930 . S
C905 C903 1.419 . S
C905 C906 1.362 . S
C906 H898 0.930 . S
C906 C905 1.362 . S
C906 C909 1.409 . S
C907 H899 0.930 . S
C907 C908 1.355 . S
C907 C909 1.415 . S
C908 C907 1.355 . S
C908 C910 1.419 . S
C909 C904 1.425 . S
C909 C906 1.409 . S
C909 C907 1.415 . S
C910 H900 0.930 . S
C910 C908 1.419 . S
C910 C911 1.362 . S
C911 H901 0.930 . S
C911 C904 1.409 . S
C911 C910 1.362 . S
H912 C918 0.930 . S
H913 C921 0.930 . S
H914 C922 0.930 . S
H915 C923 0.930 . S
H916 C926 0.930 . S
H917 C927 0.930 . S
C918 H912 0.930 . S
C918 C919 1.355 . S
C918 C920 1.415 . S
C919 C918 1.355 . S
C919 C921 1.419 . S
C920 C918 1.415 . S
C920 C925 1.425 . S
C920 C927 1.409 . S
C921 H913 0.930 . S
C921 C919 1.419 . S
C921 C922 1.362 . S
C922 H914 0.930 . S
C922 C921 1.362 . S
C922 C925 1.409 . S
C923 H915 0.930 . S
C923 C924 1.355 . S
C923 C925 1.415 . S
C924 C923 1.355 . S
C924 C926 1.419 . S
C925 C920 1.425 . S
C925 C922 1.409 . S
C925 C923 1.415 . S
C926 H916 0.930 . S
C926 C924 1.419 . S
C926 C927 1.362 . S
C927 H917 0.930 . S
C927 C920 1.409 . S
C927 C926 1.362 . S
H928 C934 0.930 . S
H929 C937 0.930 . S
H930 C938 0.930 . S
H931 C939 0.930 . S
H932 C942 0.930 . S
H933 C943 0.930 . S
C934 H928 0.930 . S
C934 C935 1.355 . S
C934 C936 1.415 . S
C935 C934 1.355 . S
C935 C937 1.419 . S
C936 C934 1.415 . S
C936 C941 1.425 . S
C936 C943 1.409 . S
C937 H929 0.930 . S
C937 C935 1.419 . S
C937 C938 1.362 . S
C938 H930 0.930 . S
C938 C937 1.362 . S
C938 C941 1.409 . S
C939 H931 0.930 . S
C939 C940 1.355 . S
C939 C941 1.415 . S
C940 C939 1.355 . S
C940 C942 1.419 . S
C941 C936 1.425 . S
C941 C938 1.409 . S
C941 C939 1.415 . S
C942 H932 0.930 . S
C942 C940 1.419 . S
C942 C943 1.362 . S
C943 H933 0.930 . S
C943 C936 1.409 . S
C943 C942 1.362 . S
H944 C950 0.930 . S
H945 C953 0.930 . S
H946 C954 0.930 . S
H947 C955 0.930 . S
H948 C958 0.930 . S
H949 C959 0.930 . S
C950 H944 0.930 . S
C950 C951 1.355 . S
C950 C952 1.415 . S
C951 C950 1.355 . S
C951 C953 1.419 . S
C952 C950 1.415 . S
C952 C957 1.425 . S
C952 C959 1.409 . S
C953 H945 0.930 . S
C953 C951 1.419 . S
C953 C954 1.362 . S
C954 H946 0.930 . S
C954 C953 1.362 . S
C954 C957 1.409 . S
C955 H947 0.930 . S
C955 C956 1.355 . S
C955 C957 1.415 . S
C956 C955 1.355 . S
C956 C958 1.419 . S
C957 C952 1.425 . S
C957 C954 1.409 . S
C957 C955 1.415 . S
C958 H948 0.930 . S
C958 C956 1.419 . S
C958 C959 1.362 . S
C959 H949 0.930 . S
C959 C952 1.409 . S
C959 C958 1.362 . S
H960 C966 0.930 . S
H961 C969 0.930 . S
H962 C970 0.930 . S
H963 C971 0.930 . S
H964 C974 0.930 . S
H965 C975 0.930 . S
C966 H960 0.930 . S
C966 C967 1.355 . S
C966 C968 1.415 . S
C967 C966 1.355 . S
C967 C969 1.419 . S
C968 C966 1.415 . S
C968 C973 1.425 . S
C968 C975 1.409 . S
C969 H961 0.930 . S
C969 C967 1.419 . S
C969 C970 1.362 . S
C970 H962 0.930 . S
C970 C969 1.362 . S
C970 C973 1.409 . S
C971 H963 0.930 . S
C971 C972 1.355 . S
C971 C973 1.415 . S
C972 C971 1.355 . S
C972 C974 1.419 . S
C973 C968 1.425 . S
C973 C970 1.409 . S
C973 C971 1.415 . S
C974 H964 0.930 . S
C974 C972 1.419 . S
C974 C975 1.362 . S
C975 H965 0.930 . S
C975 C968 1.409 . S
C975 C974 1.362 . S
H976 C982 0.930 . S
H977 C985 0.930 . S
H978 C986 0.930 . S
H979 C987 0.930 . S
H980 C990 0.930 . S
H981 C991 0.930 . S
C982 H976 0.930 . S
C982 C983 1.355 . S
C982 C984 1.415 . S
C983 C982 1.355 . S
C983 C985 1.419 . S
C984 C982 1.415 . S
C984 C989 1.425 . S
C984 C991 1.409 . S
C985 H977 0.930 . S
C985 C983 1.419 . S
C985 C986 1.362 . S
C986 H978 0.930 . S
C986 C985 1.362 . S
C986 C989 1.409 . S
C987 H979 0.930 . S
C987 C988 1.355 . S
C987 C989 1.415 . S
C988 C987 1.355 . S
C988 C990 1.419 . S
C989 C984 1.425 . S
C989 C986 1.409 . S
C989 C987 1.415 . S
C990 H980 0.930 . S
C990 C988 1.419 . S
C990 C991 1.362 . S
C991 H981 0.930 . S
C991 C984 1.409 . S
C991 C990 1.362 . S
H992 C998 0.930 . S
H993 C1001 0.930 . S
H994 C1002 0.930 . S
H995 C1003 0.930 . S
H996 C1006 0.930 . S
H997 C1007 0.930 . S
C998 H992 0.930 . S
C998 C999 1.355 . S
C998 C1000 1.415 . S
C999 C998 1.355 . S
C999 C1001 1.419 . S
C1000 C998 1.415 . S
C1000 C1005 1.425 . S
C1000 C1007 1.409 . S
C1001 H993 0.930 . S
C1001 C999 1.419 . S
C1001 C1002 1.362 . S
C1002 H994 0.930 . S
C1002 C1001 1.362 . S
C1002 C1005 1.409 . S
C1003 H995 0.930 . S
C1003 C1004 1.355 . S
C1003 C1005 1.415 . S
C1004 C1003 1.355 . S
C1004 C1006 1.419 . S
C1005 C1000 1.425 . S
C1005 C1002 1.409 . S
C1005 C1003 1.415 . S
C1006 H996 0.930 . S
C1006 C1004 1.419 . S
C1006 C1007 1.362 . S
C1007 H997 0.930 . S
C1007 C1000 1.409 . S
C1007 C1006 1.362 . S
H1008 C1014 0.930 . S
H1009 C1017 0.930 . S
H1010 C1018 0.930 . S
H1011 C1019 0.930 . S
H1012 C1022 0.930 . S
H1013 C1023 0.930 . S
C1014 H1008 0.930 . S
C1014 C1015 1.355 . S
C1014 C1016 1.415 . S
C1015 C1014 1.355 . S
C1015 C1017 1.419 . S
C1016 C1014 1.415 . S
C1016 C1021 1.425 . S
C1016 C1023 1.409 . S
C1017 H1009 0.930 . S
C1017 C1015 1.419 . S
C1017 C1018 1.362 . S
C1018 H1010 0.930 . S
C1018 C1017 1.362 . S
C1018 C1021 1.409 . S
C1019 H1011 0.930 . S
C1019 C1020 1.355 . S
C1019 C1021 1.415 . S
C1020 C1019 1.355 . S
C1020 C1022 1.419 . S
C1021 C1016 1.425 . S
C1021 C1018 1.409 . S
C1021 C1019 1.415 . S
C1022 H1012 0.930 . S
C1022 C1020 1.419 . S
C1022 C1023 1.362 . S
C1023 H1013 0.930 . S
C1023 C1016 1.409 . S
C1023 C1022 1.362 . S
H1024 C1030 0.930 . S
H1025 C1033 0.930 . S
H1026 C1034 0.930 . S
H1027 C1035 0.930 . S
H1028 C1038 0.930 . S
H1029 C1039 0.930 . S
C1030 H1024 0.930 . S
C1030 C1031 1.355 . S
C1030 C1032 1.415 . S
C1031 C1030 1.355 . S
C1031 C1033 1.419 . S
C1032 C1030 1.415 . S
C1032 C1037 1.425 . S
C1032 C1039 1.409 . S
C1033 H1025 0.930 . S
C1033 C1031 1.419 . S
C1033 C1034 1.362 . S
C1034 H1026 0.930 . S
C1034 C1033 1.362 . S
C1034 C1037 1.409 . S
C1035 H1027 0.930 . S
C1035 C1036 1.355 . S
C1035 C1037 1.415 . S
C1036 C1035 1.355 . S
C1036 C1038 1.419 . S
C1037 C1032 1.425 . S
C1037 C1034 1.409 . S
C1037 C1035 1.415 . S
C1038 H1028 0.930 . S
C1038 C1036 1.419 . S
C1038 C1039 1.362 . S
C1039 H1029 0.930 . S
C1039 C1032 1.409 . S
C1039 C1038 1.362 . S
H1040 C1046 0.930 . S
H1041 C1049 0.930 . S
H1042 C1050 0.930 . S
H1043 C1051 0.930 . S
H1044 C1054 0.930 . S
H1045 C1055 0.930 . S
C1046 H1040 0.930 . S
C1046 C1047 1.355 . S
C1046 C1048 1.415 . S
C1047 C1046 1.355 . S
C1047 C1049 1.419 . S
C1048 C1046 1.415 . S
C1048 C1053 1.425 . S
C1048 C1055 1.409 . S
C1049 H1041 0.930 . S
C1049 C1047 1.419 . S
C1049 C1050 1.362 . S
C1050 H1042 0.930 . S
C1050 C1049 1.362 . S
C1050 C1053 1.409 . S
C1051 H1043 0.930 . S
C1051 C1052 1.355 . S
C1051 C1053 1.415 . S
C1052 C1051 1.355 . S
C1052 C1054 1.419 . S
C1053 C1048 1.425 . S
C1053 C1050 1.409 . S
C1053 C1051 1.415 . S
C1054 H1044 0.930 . S
C1054 C1052 1.419 . S
C1054 C1055 1.362 . S
C1055 H1045 0.930 . S
C1055 C1048 1.409 . S
C1055 C1054 1.362 . S
H1056 C1062 0.930 . S
H1057 C1065 0.930 . S
H1058 C1066 0.930 . S
H1059 C1067 0.930 . S
H1060 C1070 0.930 . S
H1061 C1071 0.930 . S
C1062 H1056 0.930 . S
C1062 C1063 1.355 . S
C1062 C1064 1.415 . S
C1063 C1062 1.355 . S
C1063 C1065 1.419 . S
C1064 C1062 1.415 . S
C1064 C1069 1.425 . S
C1064 C1071 1.409 . S
C1065 H1057 0.930 . S
C1065 C1063 1.419 . S
C1065 C1066 1.362 . S
C1066 H1058 0.930 . S
C1066 C1065 1.362 . S
C1066 C1069 1.409 . S
C1067 H1059 0.930 . S
C1067 C1068 1.355 . S
C1067 C1069 1.415 . S
C1068 C1067 1.355 . S
C1068 C1070 1.419 . S
C1069 C1064 1.425 . S
C1069 C1066 1.409 . S
C1069 C1067 1.415 . S
C1070 H1060 0.930 . S
C1070 C1068 1.419 . S
C1070 C1071 1.362 . S
C1071 H1061 0.930 . S
C1071 C1064 1.409 . S
C1071 C1070 1.362 . S
H1072 C1078 0.930 . S
H1073 C1081 0.930 . S
H1074 C1082 0.930 . S
H1075 C1083 0.930 . S
H1076 C1086 0.930 . S
H1077 C1087 0.930 . S
C1078 H1072 0.930 . S
C1078 C1079 1.355 . S
C1078 C1080 1.415 . S
C1079 C1078 1.355 . S
C1079 C1081 1.419 . S
C1080 C1078 1.415 . S
C1080 C1085 1.425 . S
C1080 C1087 1.409 . S
C1081 H1073 0.930 . S
C1081 C1079 1.419 . S
C1081 C1082 1.362 . S
C1082 H1074 0.930 . S
C1082 C1081 1.362 . S
C1082 C1085 1.409 . S
C1083 H1075 0.930 . S
C1083 C1084 1.355 . S
C1083 C1085 1.415 . S
C1084 C1083 1.355 . S
C1084 C1086 1.419 . S
C1085 C1080 1.425 . S
C1085 C1082 1.409 . S
C1085 C1083 1.415 . S
C1086 H1076 0.930 . S
C1086 C1084 1.419 . S
C1086 C1087 1.362 . S
C1087 H1077 0.930 . S
C1087 C1080 1.409 . S
C1087 C1086 1.362 . S
H1088 C1094 0.930 . S
H1089 C1097 0.930 . S
H1090 C1098 0.930 . S
H1091 C1099 0.930 . S
H1092 C1102 0.930 . S
H1093 C1103 0.930 . S
C1094 H1088 0.930 . S
C1094 C1095 1.355 . S
C1094 C1096 1.415 . S
C1095 C1094 1.355 . S
C1095 C1097 1.419 . S
C1096 C1094 1.415 . S
C1096 C1101 1.425 . S
C1096 C1103 1.409 . S
C1097 H1089 0.930 . S
C1097 C1095 1.419 . S
C1097 C1098 1.362 . S
C1098 H1090 0.930 . S
C1098 C1097 1.362 . S
C1098 C1101 1.409 . S
C1099 H1091 0.930 . S
C1099 C1100 1.355 . S
C1099 C1101 1.415 . S
C1100 C1099 1.355 . S
C1100 C1102 1.419 . S
C1101 C1096 1.425 . S
C1101 C1098 1.409 . S
C1101 C1099 1.415 . S
C1102 H1092 0.930 . S
C1102 C1100 1.419 . S
C1102 C1103 1.362 . S
C1103 H1093 0.930 . S
C1103 C1096 1.409 . S
C1103 C1102 1.362 . S
H1104 C1110 0.930 . S
H1105 C1113 0.930 . S
H1106 C1114 0.930 . S
H1107 C1115 0.930 . S
H1108 C1118 0.930 . S
H1109 C1119 0.930 . S
C1110 H1104 0.930 . S
C1110 C1111 1.355 . S
C1110 C1112 1.415 . S
C1111 C1110 1.355 . S
C1111 C1113 1.419 . S
C1112 C1110 1.415 . S
C1112 C1117 1.425 . S
C1112 C1119 1.409 . S
C1113 H1105 0.930 . S
C1113 C1111 1.419 . S
C1113 C1114 1.362 . S
C1114 H1106 0.930 . S
C1114 C1113 1.362 . S
C1114 C1117 1.409 . S
C1115 H1107 0.930 . S
C1115 C1116 1.355 . S
C1115 C1117 1.415 . S
C1116 C1115 1.355 . S
C1116 C1118 1.419 . S
C1117 C1112 1.425 . S
C1117 C1114 1.409 . S
C1117 C1115 1.415 . S
C1118 H1108 0.930 . S
C1118 C1116 1.419 . S
C1118 C1119 1.362 . S
C1119 H1109 0.930 . S
C1119 C1112 1.409 . S
C1119 C1118 1.362 . S
C359 C5 0.979 . S
C364 C159 1.034 . S
C375 C93 0.934 . S
C380 C27 1.032 . S
C391 C119 0.929 . S
C396 C53 0.985 . S
C407 C75 1.019 . S
C412 C141 1.005 . S
C423 C336 0.924 . S
C428 C182 1.006 . S
C439 C270 0.951 . S
C444 C204 1.039 . S
C455 C293 0.989 . S
C460 C227 0.928 . S
C471 C315 0.962 . S
C476 C249 0.944 . S
C487 C6 1.368 . S
C492 C335 1.423 . S
C503 C28 1.427 . S
C508 C269 1.363 . S
C519 C51 1.404 . S
C524 C295 1.387 . S
C535 C317 1.429 . S
C540 C73 1.361 . S
C551 C203 1.423 . S
C556 C94 1.368 . S
C567 C117 1.423 . S
C572 C229 1.368 . S
C583 C251 1.425 . S
C588 C139 1.366 . S
C599 C160 1.402 . S
C604 C181 1.389 . S
C615 C268 1.606 . S
C620 C9 1.618 . S
C631 C31 1.625 . S
C636 C294 1.572 . S
C647 C316 1.596 . S
C652 C49 1.638 . S
C663 C334 1.609 . S
C668 C71 1.620 . S
C679 C97 1.635 . S
C684 C180 1.624 . S
C695 C115 1.622 . S
C700 C202 1.613 . S
C711 C137 1.620 . S
C716 C228 1.609 . S
C727 C250 1.601 . S
C732 C163 1.640 . S
C743 C183 1.614 . S
C748 C92 1.590 . S
C759 C205 1.615 . S
C764 C118 1.594 . S
C775 C140 1.610 . S
C780 C226 1.620 . S
C791 C248 1.640 . S
C796 C158 1.616 . S
C807 C271 1.618 . S
C812 C4 1.571 . S
C823 C292 1.632 . S
C828 C26 1.579 . S
C839 C52 1.605 . S
C844 C314 1.618 . S
C855 C74 1.571 . S
C860 C337 1.623 . S
C871 C8 1.511 . S
C876 C207 1.433 . S
C887 C225 1.412 . S
C892 C30 1.504 . S
C903 C48 1.491 . S
C908 C247 1.384 . S
C919 C70 1.519 . S
C924 C185 1.451 . S
C935 C96 1.521 . S
C940 C339 1.456 . S
C951 C114 1.507 . S
C956 C273 1.424 . S
C967 C136 1.492 . S
C972 C291 1.387 . S
C983 C313 1.411 . S
C988 C162 1.504 . S
C999 C29 1.387 . S
C1004 C184 1.493 . S
C1015 C50 1.458 . S
C1020 C206 1.522 . S
C1031 C224 1.495 . S
C1036 C72 1.392 . S
C1047 C246 1.521 . S
C1052 C7 1.457 . S
C1063 C161 1.371 . S
C1068 C272 1.486 . S
C1079 C95 1.398 . S
C1084 C290 1.498 . S
C1095 C116 1.396 . S
C1100 C312 1.497 . S
C1111 C138 1.388 . S
C1116 C338 1.494 . S
