# Generated by pormake.
# Topology umb, (4)-cn, num edge types: 1
# Building blocks:
#     Node 0, Type 0, BuildingBlock: QUQFOY_clean_sbu_3, # of connection points: 4
#     Node 1, Type 0, BuildingBlock: QUQFOY_clean_sbu_3, # of connection points: 4
#     Node 2, Type 0, BuildingBlock: QUQFOY_clean_sbu_3, # of connection points: 4
#     Node 3, Type 0, BuildingBlock: QUQFOY_clean_sbu_3, # of connection points: 4
#     Node 4, Type 0, BuildingBlock: QUQFOY_clean_sbu_3, # of connection points: 4
#     Node 5, Type 0, BuildingBlock: QUQFOY_clean_sbu_3, # of connection points: 4
#     Node 6, Type 0, BuildingBlock: QUQFOY_clean_sbu_3, # of connection points: 4
#     Node 7, Type 0, BuildingBlock: QUQFOY_clean_sbu_3, # of connection points: 4
#     Node 8, Type 0, BuildingBlock: QUQFOY_clean_sbu_3, # of connection points: 4
#     Node 9, Type 0, BuildingBlock: QUQFOY_clean_sbu_3, # of connection points: 4
#     Node 10, Type 0, BuildingBlock: QUQFOY_clean_sbu_3, # of connection points: 4
#     Node 11, Type 0, BuildingBlock: QUQFOY_clean_sbu_3, # of connection points: 4
#     Edge 12, Type (0, 0), BuildingBlock: AJUNOK_clean_linker_0, # of connection points: 2
#     Edge 13, Type (0, 0), BuildingBlock: AJUNOK_clean_linker_0, # of connection points: 2
#     Edge 14, Type (0, 0), BuildingBlock: AJUNOK_clean_linker_0, # of connection points: 2
#     Edge 15, Type (0, 0), BuildingBlock: AJUNOK_clean_linker_0, # of connection points: 2
#     Edge 16, Type (0, 0), BuildingBlock: AJUNOK_clean_linker_0, # of connection points: 2
#     Edge 17, Type (0, 0), BuildingBlock: AJUNOK_clean_linker_0, # of connection points: 2
#     Edge 18, Type (0, 0), BuildingBlock: AJUNOK_clean_linker_0, # of connection points: 2
#     Edge 19, Type (0, 0), BuildingBlock: AJUNOK_clean_linker_0, # of connection points: 2
#     Edge 20, Type (0, 0), BuildingBlock: AJUNOK_clean_linker_0, # of connection points: 2
#     Edge 21, Type (0, 0), BuildingBlock: AJUNOK_clean_linker_0, # of connection points: 2
#     Edge 22, Type (0, 0), BuildingBlock: AJUNOK_clean_linker_0, # of connection points: 2
#     Edge 23, Type (0, 0), BuildingBlock: AJUNOK_clean_linker_0, # of connection points: 2
#     Edge 24, Type (0, 0), BuildingBlock: AJUNOK_clean_linker_0, # of connection points: 2
#     Edge 25, Type (0, 0), BuildingBlock: AJUNOK_clean_linker_0, # of connection points: 2
#     Edge 26, Type (0, 0), BuildingBlock: AJUNOK_clean_linker_0, # of connection points: 2
#     Edge 27, Type (0, 0), BuildingBlock: AJUNOK_clean_linker_0, # of connection points: 2
#     Edge 28, Type (0, 0), BuildingBlock: AJUNOK_clean_linker_0, # of connection points: 2
#     Edge 29, Type (0, 0), BuildingBlock: AJUNOK_clean_linker_0, # of connection points: 2
#     Edge 30, Type (0, 0), BuildingBlock: AJUNOK_clean_linker_0, # of connection points: 2
#     Edge 31, Type (0, 0), BuildingBlock: AJUNOK_clean_linker_0, # of connection points: 2
#     Edge 32, Type (0, 0), BuildingBlock: AJUNOK_clean_linker_0, # of connection points: 2
#     Edge 33, Type (0, 0), BuildingBlock: AJUNOK_clean_linker_0, # of connection points: 2
#     Edge 34, Type (0, 0), BuildingBlock: AJUNOK_clean_linker_0, # of connection points: 2
#     Edge 35, Type (0, 0), BuildingBlock: AJUNOK_clean_linker_0, # of connection points: 2
# Relax obj value: 0.254
# Max RMSD: 0.249
# Mean RMSD: 0.249
data_MOF--net-umb--node1-QUQFOY_clean_sbu_3--edge1-AJUNOK_clean_linker_0
_symmetry_space_group_name_H-M    P1
_symmetry_Int_Tables_number       1
_symmetry_cell_setting            triclinic
loop_
_symmetry_equiv_pos_as_xyz
'x, y, z'
_cell_length_a     37.65426
_cell_length_b     37.796005
_cell_length_c     28.773851
_cell_angle_alpha  90.130324
_cell_angle_beta   89.764741
_cell_angle_gamma 120.48383
loop_
_atom_site_label
_atom_site_type_symbol
_atom_site_fract_x
_atom_site_fract_y
_atom_site_fract_z
_atom_type_partial_charge
C0 C 0.43884 0.17759 0.25313 0.0
O1 O 0.43129 0.18755 0.29245 0.0
Cd2 Cd 0.46231 0.18056 0.36331 0.0
O3 O 0.45894 0.15904 0.25062 0.0
Cd4 Cd 0.48723 0.1318 0.30802 0.0
C5 C 0.56238 0.22366 0.32602 0.0
O6 O 0.46837 0.12398 0.39195 0.0
O7 O 0.53067 0.14023 0.37033 0.0
O8 O 0.44134 0.0604 0.29809 0.0
C9 C 0.50438 0.13066 0.40255 0.0
O10 O 0.53452 0.22439 0.3505 0.0
C11 C 0.46707 0.05353 0.27732 0.0
O12 O 0.55377 0.19353 0.29913 0.0
O13 O 0.50238 0.08424 0.26789 0.0
C14 C 0.23928 0.45434 0.57697 0.0
O15 O 0.22077 0.43105 0.61114 0.0
Cd16 Cd 0.25862 0.472 0.67882 0.0
O17 O 0.27594 0.48362 0.58217 0.0
Cd18 Cd 0.32777 0.50057 0.64299 0.0
C19 C 0.31083 0.57199 0.64193 0.0
O20 O 0.31511 0.48151 0.72729 0.0
O21 O 0.35618 0.54516 0.70581 0.0
O22 O 0.35172 0.45359 0.62748 0.0
C23 C 0.34194 0.51864 0.73784 0.0
O24 O 0.27932 0.5424 0.66135 0.0
C25 C 0.3872 0.48135 0.61389 0.0
O26 O 0.33962 0.56726 0.62599 0.0
O27 O 0.39374 0.51777 0.61145 0.0
C28 C 0.75033 0.24572 0.91818 0.0
O29 O 0.73374 0.2272 0.95585 0.0
Cd30 Cd 0.74118 0.26653 0.027 0.0
O31 O 0.77364 0.2844 0.91859 0.0
Cd32 Cd 0.79763 0.3383 0.97782 0.0
C33 C 0.70785 0.32715 0.98252 0.0
O34 O 0.80119 0.3243 0.06206 0.0
O35 O 0.78753 0.37159 0.04076 0.0
O36 O 0.86999 0.36875 0.95938 0.0
C37 C 0.79705 0.35503 0.07266 0.0
O38 O 0.70237 0.29969 0.01182 0.0
C39 C 0.87334 0.40242 0.9463 0.0
O40 O 0.73954 0.34432 0.95662 0.0
O41 O 0.84112 0.40511 0.9464 0.0
C42 C 0.47758 0.77312 0.24796 0.0
O43 O 0.49934 0.77745 0.28331 0.0
Cd44 Cd 0.46285 0.77902 0.35323 0.0
O45 O 0.44919 0.78164 0.25088 0.0
Cd46 Cd 0.42943 0.81593 0.30832 0.0
C47 C 0.36149 0.72341 0.32108 0.0
O48 O 0.44822 0.827 0.39287 0.0
O49 O 0.3844 0.80086 0.37028 0.0
O50 O 0.47139 0.88665 0.28374 0.0
C51 C 0.41027 0.81406 0.40301 0.0
O52 O 0.39202 0.72597 0.34293 0.0
C53 C 0.44047 0.88984 0.27282 0.0
O54 O 0.36579 0.75337 0.29667 0.0
O55 O 0.40496 0.85792 0.27575 0.0
C56 C 0.67837 0.48936 0.57649 0.0
O57 O 0.70008 0.50783 0.61165 0.0
Cd58 Cd 0.66187 0.47384 0.68309 0.0
O59 O 0.64011 0.46514 0.58207 0.0
Cd60 Cd 0.5895 0.44415 0.6438 0.0
C61 C 0.60906 0.37319 0.65316 0.0
O62 O 0.6018 0.46299 0.72794 0.0
O63 O 0.55689 0.40034 0.70553 0.0
O64 O 0.55971 0.48597 0.62736 0.0
C65 C 0.57208 0.42663 0.73778 0.0
O66 O 0.63957 0.40259 0.67389 0.0
C67 C 0.52563 0.4558 0.61374 0.0
O68 O 0.58405 0.37939 0.63012 0.0
O69 O 0.52295 0.42099 0.61106 0.0
C70 C 0.17118 0.70071 0.92469 0.0
O71 O 0.18554 0.71801 0.96371 0.0
Cd72 Cd 0.17754 0.68049 0.03622 0.0
O73 O 0.14854 0.6619 0.92177 0.0
Cd74 Cd 0.1153 0.59779 0.96617 0.0
C75 C 0.19869 0.6087 0.97893 0.0
O76 O 0.1159 0.61523 0.05139 0.0
O77 O 0.11288 0.55896 0.0285 0.0
O78 O 0.04388 0.57529 0.95372 0.0
C79 C 0.11659 0.58247 0.06167 0.0
O80 O 0.19121 0.63381 -0.00105 0.0
C81 C 0.0364 0.54253 0.93286 0.0
O82 O 0.17212 0.5836 0.95043 0.0
O83 O 0.0669 0.538 0.92379 0.0
C84 C 0.75204 0.49331 0.39729 0.0
O85 O 0.73467 0.49093 0.35881 0.0
Cd86 Cd 0.74527 0.46083 0.28878 0.0
O87 O 0.77843 0.48206 0.39996 0.0
Cd88 Cd 0.80366 0.45136 0.34338 0.0
C89 C 0.71493 0.36937 0.34037 0.0
O90 O 0.80688 0.46465 0.25787 0.0
O91 O 0.79077 0.40408 0.28321 0.0
O92 O 0.87685 0.49291 0.35636 0.0
C93 C 0.80051 0.42856 0.24937 0.0
O94 O 0.70881 0.38912 0.30873 0.0
C95 C 0.87895 0.46305 0.37342 0.0
O96 O 0.74627 0.38647 0.3666 0.0
O97 O 0.84572 0.42919 0.37912 0.0
C98 C 0.2385 0.77071 0.74471 0.0
O99 O 0.21799 0.76556 0.70796 0.0
Cd100 Cd 0.25454 0.76845 0.63616 0.0
O101 O 0.2769 0.78442 0.74145 0.0
Cd102 Cd 0.32934 0.8119 0.68015 0.0
C103 C 0.30635 0.71974 0.66961 0.0
O104 O 0.31618 0.82057 0.59704 0.0
O105 O 0.36087 0.80203 0.61555 0.0
O106 O 0.35571 0.88274 0.69774 0.0
C107 C 0.34467 0.8132 0.5848 0.0
O108 O 0.27724 0.72045 0.64811 0.0
C109 C 0.39033 0.88901 0.71195 0.0
O110 O 0.33279 0.75091 0.69226 0.0
O111 O 0.39559 0.85833 0.71344 0.0
C112 C 0.43907 0.25253 0.07706 0.0
O113 O 0.42362 0.2313 0.04067 0.0
Cd114 Cd 0.45507 0.26914 0.96839 0.0
O115 O 0.46197 0.29102 0.0731 0.0
Cd116 Cd 0.48553 0.34297 0.01318 0.0
C117 C 0.55625 0.32198 0.00028 0.0
O118 O 0.46717 0.33161 0.92886 0.0
O119 O 0.53034 0.37309 0.95172 0.0
O120 O 0.44437 0.37367 0.03049 0.0
C121 C 0.50469 0.35879 0.91881 0.0
O122 O 0.52678 0.29265 0.97819 0.0
C123 C 0.47504 0.40758 0.04349 0.0
O124 O 0.55007 0.34614 0.02532 0.0
O125 O 0.50986 0.40991 0.04568 0.0
C126 C 0.16682 0.45911 0.401 0.0
O127 O 0.17461 0.4459 0.36411 0.0
Cd128 Cd 0.17201 0.48257 0.29464 0.0
O129 O 0.1491 0.47989 0.39813 0.0
Cd130 Cd 0.11783 0.50107 0.33914 0.0
C131 C 0.20696 0.57788 0.34123 0.0
O132 O 0.11935 0.48993 0.2548 0.0
O133 O 0.13047 0.5491 0.2809 0.0
O134 O 0.04556 0.45248 0.34552 0.0
C135 C 0.12526 0.52599 0.24654 0.0
O136 O 0.21313 0.5533 0.31697 0.0
C137 C 0.03781 0.4777 0.36589 0.0
O138 O 0.17243 0.56696 0.36016 0.0
O139 O 0.06802 0.51274 0.37646 0.0
C140 C 0.68265 0.17937 0.73676 0.0
O141 O 0.7019 0.19332 0.69875 0.0
Cd142 Cd 0.66193 0.18758 0.629 0.0
O143 O 0.64361 0.15811 0.73614 0.0
Cd144 Cd 0.58931 0.13229 0.67687 0.0
C145 C 0.60043 0.22118 0.67428 0.0
O146 O 0.60365 0.12914 0.59247 0.0
O147 O 0.55865 0.14622 0.61359 0.0
O148 O 0.56079 0.05993 0.69018 0.0
C149 C 0.57493 0.13634 0.58143 0.0
O150 O 0.62933 0.22683 0.6467 0.0
C151 C 0.52702 0.05451 0.70667 0.0
O152 O 0.58083 0.18867 0.69828 0.0
O153 O 0.52336 0.08595 0.71074 0.0
C154 C 0.47242 0.69184 0.075 0.0
O155 O 0.49141 0.71262 0.03942 0.0
Cd156 Cd 0.44965 0.67371 0.97282 0.0
O157 O 0.44671 0.65391 0.07038 0.0
Cd158 Cd 0.4259 0.60208 0.00992 0.0
C159 C 0.35123 0.61637 0.01594 0.0
O160 O 0.445 0.61775 0.92646 0.0
O161 O 0.38141 0.57397 0.94677 0.0
O162 O 0.47431 0.57944 0.02236 0.0
C163 C 0.40845 0.58979 0.91518 0.0
O164 O 0.37845 0.64844 -0.00505 0.0
C165 C 0.44749 0.54405 0.03689 0.0
O166 O 0.35906 0.58933 0.03024 0.0
O167 O 0.41068 0.53661 0.04082 0.0
C168 C 0.51696 0.09637 0.4687 0.0
C169 C 0.51822 0.13146 0.45036 0.0
C170 C 0.53784 0.09846 0.50996 0.0
C171 C 0.56112 0.13588 0.53358 0.0
H172 H 0.50027 0.06729 0.45059 0.0
H173 H 0.53492 0.07055 0.52407 0.0
S174 S 0.57698 0.23724 0.49772 0.0
N175 N 0.5466 0.2051 0.45728 0.0
N176 N 0.58541 0.20905 0.53491 0.0
C177 C 0.5632 0.17132 0.51505 0.0
C178 C 0.54199 0.16916 0.47326 0.0
C179 C 0.38401 0.52552 0.80717 0.0
C180 C 0.35518 0.533 0.78529 0.0
C181 C 0.40389 0.54654 0.84802 0.0
C182 C 0.39563 0.57573 0.86758 0.0
H183 H 0.39193 0.50414 0.79202 0.0
H184 H 0.42498 0.5392 0.86502 0.0
S185 S 0.32267 0.60626 0.82321 0.0
N186 N 0.31981 0.57189 0.78546 0.0
N187 N 0.35624 0.61043 0.86286 0.0
C188 C 0.36674 0.58328 0.84604 0.0
C189 C 0.34681 0.56221 0.80455 0.0
C190 C 0.76665 0.37306 0.19093 0.0
C191 C 0.79959 0.41238 0.20248 0.0
C192 C 0.76726 0.35298 0.15018 0.0
C193 C 0.80113 0.37144 0.11985 0.0
H194 H 0.74004 0.35783 0.21356 0.0
H195 H 0.7406 0.3235 0.14165 0.0
S196 S 0.89452 0.47423 0.13329 0.0
N197 N 0.86663 0.46905 0.18006 0.0
N198 N 0.86756 0.43168 0.10276 0.0
C199 C 0.83391 0.41095 0.13054 0.0
C200 C 0.83324 0.4314 0.17205 0.0
C201 C 0.41652 0.84532 0.48165 0.0
C202 C 0.39466 0.81284 0.45045 0.0
C203 C 0.39884 0.84646 0.52433 0.0
C204 C 0.35868 0.8155 0.5367 0.0
H205 H 0.447 0.87028 0.47271 0.0
H206 H 0.41689 0.87144 0.54818 0.0
S207 S 0.2914 0.72044 0.47046 0.0
N208 N 0.3324 0.74661 0.43704 0.0
N209 N 0.29964 0.74916 0.51712 0.0
C210 C 0.33715 0.78212 0.50662 0.0
C211 C 0.35505 0.78074 0.46344 0.0
C212 C 0.56322 0.39607 0.86354 0.0
C213 C 0.52012 0.37483 0.87156 0.0
C214 C 0.58025 0.41507 0.82095 0.0
C215 C 0.55481 0.41329 0.78465 0.0
H216 H 0.58421 0.398 0.89042 0.0
H217 H 0.61331 0.42996 0.8159 0.0
S218 S 0.44046 0.36032 0.78621 0.0
N219 N 0.45266 0.35258 0.83881 0.0
N220 N 0.48459 0.38748 0.75811 0.0
C221 C 0.51176 0.39146 0.79159 0.0
C222 C 0.49439 0.37235 0.83515 0.0
C223 C 0.12209 0.57666 0.19314 0.0
C224 C 0.12589 0.54155 0.19925 0.0
C225 C 0.12057 0.5911 0.14868 0.0
C226 C 0.12319 0.57111 0.10885 0.0
H227 H 0.1191 0.59253 0.22294 0.0
H228 H 0.11612 0.61715 0.14556 0.0
S229 S 0.14284 0.48364 0.1065 0.0
N230 N 0.13815 0.49108 0.16213 0.0
N231 N 0.13682 0.5184 0.0788 0.0
C232 C 0.13048 0.53803 0.11478 0.0
C233 C 0.13135 0.52312 0.15989 0.0
C234 C 0.65203 0.31798 0.37789 0.0
C235 C 0.68376 0.32668 0.3466 0.0
C236 C 0.61332 0.28349 0.37156 0.0
C237 C 0.60523 0.25662 0.33371 0.0
H238 H 0.65598 0.3399 0.40468 0.0
H239 H 0.58911 0.27926 0.39534 0.0
S240 S 0.68259 0.26189 0.24928 0.0
N241 N 0.70822 0.30313 0.28215 0.0
N242 N 0.63489 0.23748 0.2697 0.0
C243 C 0.63838 0.26267 0.30538 0.0
C244 C 0.67796 0.29802 0.31207 0.0
C245 C 0.27587 0.64767 0.64576 0.0
C246 C 0.31021 0.68324 0.66345 0.0
C247 C 0.27783 0.61291 0.6354 0.0
C248 C 0.31406 0.61203 0.64254 0.0
H249 H 0.24676 0.64631 0.64012 0.0
H250 H 0.25014 0.58586 0.62321 0.0
S251 S 0.41351 0.69689 0.68678 0.0
N252 N 0.38255 0.71601 0.68628 0.0
N253 N 0.38575 0.6493 0.66732 0.0
C254 C 0.34928 0.6474 0.65911 0.0
C255 C 0.34737 0.68329 0.66983 0.0
C256 C 0.63004 0.35285 0.02324 0.0
C257 C 0.59829 0.33061 -0.0088 0.0
C258 C 0.66841 0.35593 0.0174 0.0
C259 C 0.67594 0.33765 0.97899 0.0
H260 H 0.62442 0.36545 0.05439 0.0
H261 H 0.69118 0.36993 0.0447 0.0
S262 S 0.60581 0.28264 0.8817 0.0
N263 N 0.5792 0.29553 0.91628 0.0
N264 N 0.65143 0.30129 0.90615 0.0
C265 C 0.64626 0.31936 0.94444 0.0
C266 C 0.60721 0.31581 0.95039 0.0
C267 C 0.28581 0.68292 0.30517 0.0
C268 C 0.32018 0.688 0.33019 0.0
C269 C 0.24672 0.64865 0.31286 0.0
C270 C 0.24117 0.61922 0.34615 0.0
H271 H 0.28934 0.70452 0.2783 0.0
H272 H 0.22145 0.64366 0.29052 0.0
S273 S 0.3187 0.62045 0.42514 0.0
N274 N 0.34437 0.66225 0.39325 0.0
N275 N 0.27066 0.59826 0.4069 0.0
C276 C 0.27412 0.62534 0.37363 0.0
C277 C 0.31384 0.65967 0.36576 0.0
C278 C 0.57798 0.2997 0.63016 0.0
C279 C 0.59964 0.33124 0.66254 0.0
C280 C 0.57356 0.26106 0.6371 0.0
C281 C 0.59014 0.2532 0.67673 0.0
H282 H 0.5668 0.3056 0.59816 0.0
H283 H 0.55986 0.23824 0.60986 0.0
S284 S 0.64217 0.32285 0.77531 0.0
N285 N 0.63175 0.34997 0.73895 0.0
N286 N 0.62371 0.27723 0.75109 0.0
C287 C 0.60772 0.28283 0.71141 0.0
C288 C 0.61251 0.3221 0.70443 0.0
C289 C 0.24168 0.57513 0.98057 0.0
C290 C 0.23604 0.60805 -0.00735 0.0
C291 C 0.27799 0.57565 -0.00719 0.0
C292 C 0.3094 0.60915 0.0172 0.0
H293 H 0.21854 0.54948 0.96061 0.0
H294 H 0.28272 0.55124 0.98039 0.0
S295 S 0.30787 0.70002 0.06233 0.0
N296 N 0.26369 0.67301 0.03485 0.0
N297 N 0.33147 0.6735 0.05693 0.0
C298 C 0.30303 0.64064 0.03212 0.0
C299 C 0.26641 0.64024 0.02001 0.0
C300 C 0.43086 -0.01896 0.30253 0.0
C301 C 0.45787 0.01111 0.27091 0.0
C302 C 0.4243 0.9413 0.30123 0.0
C303 C 0.44458 0.93026 0.26842 0.0
H304 H 0.41582 -0.01139 0.32973 0.0
H305 H 0.40449 0.91949 0.32737 0.0
S306 S 0.51513 -0.00401 0.17529 0.0
N307 N 0.50279 0.02632 0.20375 0.0
N308 N 0.49066 0.95104 0.20189 0.0
C309 C 0.4708 0.95941 0.23581 0.0
C310 C 0.47737 5e-05 0.23689 0.0
C311 C 0.46141 0.50583 0.60033 0.0
C312 C 0.42095 0.47278 0.60649 0.0
C313 C 0.49504 0.49975 0.60055 0.0
C314 C 0.48947 0.46036 0.60641 0.0
H315 H 0.46748 0.53699 0.59733 0.0
H316 H 0.52574 0.52634 0.59755 0.0
S317 S 0.38967 0.3631 0.62183 0.0
N318 N 0.37703 0.39884 0.61681 0.0
N319 N 0.44035 0.38743 0.61699 0.0
C320 C 0.44907 0.4267 0.61057 0.0
C321 C 0.41476 0.43291 0.61068 0.0
C322 C 0.92191 0.47708 0.95185 0.0
C323 C 0.91357 0.43843 0.93612 0.0
C324 C -0.03865 0.51142 0.94769 0.0
C325 C -0.00628 0.50828 0.92734 0.0
H326 H 0.89834 0.48045 0.96959 0.0
H327 H -0.03315 0.54011 0.96264 0.0
S328 S -0.01428 0.4143 0.87562 0.0
N329 N 0.93918 0.39907 0.89634 0.0
N330 N 0.0135 0.46386 0.88731 0.0
C331 C -0.01503 0.47009 0.90898 0.0
C332 C 0.94484 0.435 0.91387 0.0
C333 C -0.01366 0.48963 0.40622 0.0
C334 C -0.0045 0.46919 0.37141 0.0
C335 C 0.94797 0.48713 0.40769 0.0
C336 C 0.91797 0.464 0.37445 0.0
H337 H 0.00935 0.5085 0.43173 0.0
H338 H 0.94196 0.50375 0.43432 0.0
S339 S 0.92729 0.40742 0.27442 0.0
N340 N -0.02827 0.42651 0.30187 0.0
N341 N 0.89959 0.42181 0.30502 0.0
C342 C 0.92643 0.44321 0.33979 0.0
C343 C -0.03472 0.44567 0.33822 0.0
C344 C 0.49855 -0.0207 0.71372 0.0
C345 C 0.49231 0.01292 0.71643 0.0
C346 C 0.46537 0.93905 0.71565 0.0
C347 C 0.42472 0.931 0.7199 0.0
H348 H 0.52913 -0.01602 0.70821 0.0
H349 H 0.47153 0.91419 0.71109 0.0
S350 S 0.392 0.0081 0.73348 0.0
N351 N 0.44261 0.0355 0.72778 0.0
N352 N 0.38014 0.95966 0.73096 0.0
C353 C 0.41815 0.96424 0.72538 0.0
C354 C 0.45201 0.0053 0.72378 0.0
C355 C 0.42731 0.47329 0.06247 0.0
C356 C 0.45769 0.51162 0.04481 0.0
C357 C 0.43389 0.44006 0.06419 0.0
C358 C 0.47128 0.44419 0.049 0.0
H359 H 0.39758 0.46838 0.07345 0.0
H360 H 0.4091 0.41062 0.07622 0.0
S361 S 0.56082 0.5377 -0.00042 0.0
N362 N 0.52684 0.55168 0.012 0.0
N363 N 0.5392 0.48926 0.01589 0.0
C364 C 0.50255 0.48264 0.03288 0.0
C365 C 0.49576 0.5164 0.03064 0.0
C366 C 0.4131 0.17184 0.17141 0.0
C367 C 0.43346 0.196 0.21049 0.0
C368 C 0.4132 0.19014 0.12876 0.0
C369 C 0.43449 0.23323 0.12354 0.0
H370 H 0.39778 0.13868 0.1736 0.0
H371 H 0.39774 0.17039 0.09934 0.0
S372 S 0.4956 0.30964 0.21532 0.0
N373 N 0.47657 0.26467 0.24121 0.0
N374 N 0.47776 0.29925 0.16175 0.0
C375 C 0.45491 0.25752 0.16284 0.0
C376 C 0.45418 0.23886 0.2061 0.0
C377 C 0.18551 0.42154 0.45977 0.0
C378 C 0.18324 0.45628 0.44677 0.0
C379 C 0.20185 0.41982 0.50321 0.0
C380 C 0.2173 0.45321 0.53417 0.0
H381 H 0.17458 0.39563 0.43634 0.0
H382 H 0.20365 0.3929 0.51194 0.0
S383 S 0.22019 0.55185 0.51602 0.0
N384 N 0.19855 0.52499 0.46855 0.0
N385 N 0.22986 0.52196 0.54885 0.0
C386 C 0.21535 0.48804 0.52144 0.0
C387 C 0.1982 0.48954 0.47805 0.0
C388 C 0.69811 0.1892 0.86771 0.0
C389 C 0.73761 0.22402 0.87268 0.0
C390 C 0.68173 0.17352 0.82364 0.0
C391 C 0.70421 0.19174 0.78254 0.0
H392 H 0.67859 0.17541 0.89788 0.0
H393 H 0.65034 0.14798 0.82183 0.0
S394 S 0.81162 0.28014 0.77711 0.0
N395 N 0.80059 0.27367 0.83315 0.0
N396 N 0.77008 0.24422 0.75042 0.0
C397 C 0.74498 0.22477 0.78725 0.0
C398 C 0.76154 0.2409 0.83222 0.0
C399 C 0.51147 0.74765 0.13429 0.0
C400 C 0.47539 0.71148 0.12059 0.0
C401 C 0.51322 0.76684 0.17698 0.0
C402 C 0.47863 0.7508 0.20649 0.0
H403 H 0.53832 0.76129 0.11182 0.0
H404 H 0.5411 0.79504 0.18613 0.0
S405 S 0.37668 0.65751 0.18668 0.0
N406 N 0.40428 0.66071 0.14049 0.0
N407 N 0.40769 0.69695 0.21969 0.0
C408 C 0.44266 0.71461 0.1934 0.0
C409 C 0.44097 0.69489 0.15066 0.0
C410 C 0.73682 0.52435 0.51841 0.0
C411 C 0.69678 0.49232 0.52976 0.0
C412 C 0.75454 0.52581 0.47466 0.0
C413 C 0.73248 0.4957 0.44076 0.0
H414 H 0.75473 0.54808 0.54362 0.0
H415 H 0.78575 0.55023 0.4675 0.0
S416 S 0.62939 0.40253 0.45483 0.0
N417 N 0.63753 0.42763 0.50428 0.0
N418 N 0.67047 0.4313 0.42259 0.0
C419 C 0.69286 0.46339 0.45182 0.0
C420 C 0.67508 0.46148 0.49617 0.0
C421 C 0.22717 0.75426 0.87527 0.0
C422 C 0.18538 0.72442 0.88088 0.0
C423 C 0.24341 0.7705 0.83132 0.0
C424 C 0.21845 0.75793 0.79123 0.0
H425 H 0.24807 0.76322 0.90448 0.0
H426 H 0.27624 0.79195 0.82859 0.0
S427 S 0.10567 0.68369 0.78878 0.0
N428 N 0.11854 0.68518 0.84385 0.0
N429 N 0.14869 0.71603 0.76122 0.0
C430 C 0.17595 0.72996 0.79698 0.0
C431 C 0.15956 0.71309 0.84178 0.0
loop_
_geom_bond_atom_site_label_1
_geom_bond_atom_site_label_2
_geom_bond_distance
_geom_bond_site_symmetry_2
_ccdc_geom_bond_type
C0 O1 1.306 . S
C0 O3 1.160 . S
O1 C0 1.306 . S
O1 Cd2 2.228 . S
Cd2 O1 2.228 . S
Cd2 O6 2.273 . S
Cd2 O10 2.277 . S
O3 C0 1.160 . S
O3 Cd4 2.203 . S
Cd4 O3 2.203 . S
Cd4 O6 2.411 . S
Cd4 O7 2.333 . S
Cd4 O8 2.352 . S
Cd4 O12 2.277 . S
Cd4 O13 2.356 . S
C5 O10 1.209 . S
C5 O12 1.226 . S
O6 Cd2 2.273 . S
O6 Cd4 2.411 . S
O6 C9 1.320 . S
O7 Cd4 2.333 . S
O7 C9 1.214 . S
O8 Cd4 2.352 . S
O8 C11 1.258 . S
C9 O6 1.320 . S
C9 O7 1.214 . S
O10 Cd2 2.277 . S
O10 C5 1.209 . S
C11 O8 1.258 . S
C11 O13 1.282 . S
O12 Cd4 2.277 . S
O12 C5 1.226 . S
O13 Cd4 2.356 . S
O13 C11 1.282 . S
C14 O15 1.306 . S
C14 O17 1.160 . S
O15 C14 1.306 . S
O15 Cd16 2.228 . S
Cd16 O15 2.228 . S
Cd16 O20 2.273 . S
Cd16 O24 2.277 . S
O17 C14 1.160 . S
O17 Cd18 2.203 . S
Cd18 O17 2.203 . S
Cd18 O20 2.411 . S
Cd18 O21 2.333 . S
Cd18 O22 2.352 . S
Cd18 O26 2.277 . S
Cd18 O27 2.356 . S
C19 O24 1.209 . S
C19 O26 1.226 . S
O20 Cd16 2.273 . S
O20 Cd18 2.411 . S
O20 C23 1.320 . S
O21 Cd18 2.333 . S
O21 C23 1.214 . S
O22 Cd18 2.352 . S
O22 C25 1.258 . S
C23 O20 1.320 . S
C23 O21 1.214 . S
O24 Cd16 2.277 . S
O24 C19 1.209 . S
C25 O22 1.258 . S
C25 O27 1.282 . S
O26 Cd18 2.277 . S
O26 C19 1.226 . S
O27 Cd18 2.356 . S
O27 C25 1.282 . S
C28 O29 1.306 . S
C28 O31 1.160 . S
O29 C28 1.306 . S
O29 Cd30 2.228 1_556 S
Cd30 O29 2.228 1_554 S
Cd30 O34 2.273 . S
Cd30 O38 2.277 . S
O31 C28 1.160 . S
O31 Cd32 2.203 . S
Cd32 O31 2.203 . S
Cd32 O34 2.411 1_556 S
Cd32 O35 2.333 1_556 S
Cd32 O36 2.352 . S
Cd32 O40 2.277 . S
Cd32 O41 2.356 . S
C33 O38 1.209 1_556 S
C33 O40 1.226 . S
O34 Cd30 2.273 . S
O34 Cd32 2.411 1_554 S
O34 C37 1.320 . S
O35 Cd32 2.333 1_554 S
O35 C37 1.214 . S
O36 Cd32 2.352 . S
O36 C39 1.258 . S
C37 O34 1.320 . S
C37 O35 1.214 . S
O38 Cd30 2.277 . S
O38 C33 1.209 1_554 S
C39 O36 1.258 . S
C39 O41 1.282 . S
O40 Cd32 2.277 . S
O40 C33 1.226 . S
O41 Cd32 2.356 . S
O41 C39 1.282 . S
C42 O43 1.306 . S
C42 O45 1.160 . S
O43 C42 1.306 . S
O43 Cd44 2.228 . S
Cd44 O43 2.228 . S
Cd44 O48 2.273 . S
Cd44 O52 2.277 . S
O45 C42 1.160 . S
O45 Cd46 2.203 . S
Cd46 O45 2.203 . S
Cd46 O48 2.411 . S
Cd46 O49 2.333 . S
Cd46 O50 2.352 . S
Cd46 O54 2.277 . S
Cd46 O55 2.356 . S
C47 O52 1.209 . S
C47 O54 1.226 . S
O48 Cd44 2.273 . S
O48 Cd46 2.411 . S
O48 C51 1.320 . S
O49 Cd46 2.333 . S
O49 C51 1.214 . S
O50 Cd46 2.352 . S
O50 C53 1.258 . S
C51 O48 1.320 . S
C51 O49 1.214 . S
O52 Cd44 2.277 . S
O52 C47 1.209 . S
C53 O50 1.258 . S
C53 O55 1.282 . S
O54 Cd46 2.277 . S
O54 C47 1.226 . S
O55 Cd46 2.356 . S
O55 C53 1.282 . S
C56 O57 1.306 . S
C56 O59 1.160 . S
O57 C56 1.306 . S
O57 Cd58 2.228 . S
Cd58 O57 2.228 . S
Cd58 O62 2.273 . S
Cd58 O66 2.277 . S
O59 C56 1.160 . S
O59 Cd60 2.203 . S
Cd60 O59 2.203 . S
Cd60 O62 2.411 . S
Cd60 O63 2.333 . S
Cd60 O64 2.352 . S
Cd60 O68 2.277 . S
Cd60 O69 2.356 . S
C61 O66 1.209 . S
C61 O68 1.226 . S
O62 Cd58 2.273 . S
O62 Cd60 2.411 . S
O62 C65 1.320 . S
O63 Cd60 2.333 . S
O63 C65 1.214 . S
O64 Cd60 2.352 . S
O64 C67 1.258 . S
C65 O62 1.320 . S
C65 O63 1.214 . S
O66 Cd58 2.277 . S
O66 C61 1.209 . S
C67 O64 1.258 . S
C67 O69 1.282 . S
O68 Cd60 2.277 . S
O68 C61 1.226 . S
O69 Cd60 2.356 . S
O69 C67 1.282 . S
C70 O71 1.306 . S
C70 O73 1.160 . S
O71 C70 1.306 . S
O71 Cd72 2.228 1_556 S
Cd72 O71 2.228 1_554 S
Cd72 O76 2.273 . S
Cd72 O80 2.277 . S
O73 C70 1.160 . S
O73 Cd74 2.203 . S
Cd74 O73 2.203 . S
Cd74 O76 2.411 1_556 S
Cd74 O77 2.333 1_556 S
Cd74 O78 2.352 . S
Cd74 O82 2.277 . S
Cd74 O83 2.356 . S
C75 O80 1.209 1_556 S
C75 O82 1.226 . S
O76 Cd72 2.273 . S
O76 Cd74 2.411 1_554 S
O76 C79 1.320 . S
O77 Cd74 2.333 1_554 S
O77 C79 1.214 . S
O78 Cd74 2.352 . S
O78 C81 1.258 . S
C79 O76 1.320 . S
C79 O77 1.214 . S
O80 Cd72 2.277 . S
O80 C75 1.209 1_554 S
C81 O78 1.258 . S
C81 O83 1.282 . S
O82 Cd74 2.277 . S
O82 C75 1.226 . S
O83 Cd74 2.356 . S
O83 C81 1.282 . S
C84 O85 1.306 . S
C84 O87 1.160 . S
O85 C84 1.306 . S
O85 Cd86 2.228 . S
Cd86 O85 2.228 . S
Cd86 O90 2.273 . S
Cd86 O94 2.277 . S
O87 C84 1.160 . S
O87 Cd88 2.203 . S
Cd88 O87 2.203 . S
Cd88 O90 2.411 . S
Cd88 O91 2.333 . S
Cd88 O92 2.352 . S
Cd88 O96 2.277 . S
Cd88 O97 2.356 . S
C89 O94 1.209 . S
C89 O96 1.226 . S
O90 Cd86 2.273 . S
O90 Cd88 2.411 . S
O90 C93 1.320 . S
O91 Cd88 2.333 . S
O91 C93 1.214 . S
O92 Cd88 2.352 . S
O92 C95 1.258 . S
C93 O90 1.320 . S
C93 O91 1.214 . S
O94 Cd86 2.277 . S
O94 C89 1.209 . S
C95 O92 1.258 . S
C95 O97 1.282 . S
O96 Cd88 2.277 . S
O96 C89 1.226 . S
O97 Cd88 2.356 . S
O97 C95 1.282 . S
C98 O99 1.306 . S
C98 O101 1.160 . S
O99 C98 1.306 . S
O99 Cd100 2.228 . S
Cd100 O99 2.228 . S
Cd100 O104 2.273 . S
Cd100 O108 2.277 . S
O101 C98 1.160 . S
O101 Cd102 2.203 . S
Cd102 O101 2.203 . S
Cd102 O104 2.411 . S
Cd102 O105 2.333 . S
Cd102 O106 2.352 . S
Cd102 O110 2.277 . S
Cd102 O111 2.356 . S
C103 O108 1.209 . S
C103 O110 1.226 . S
O104 Cd100 2.273 . S
O104 Cd102 2.411 . S
O104 C107 1.320 . S
O105 Cd102 2.333 . S
O105 C107 1.214 . S
O106 Cd102 2.352 . S
O106 C109 1.258 . S
C107 O104 1.320 . S
C107 O105 1.214 . S
O108 Cd100 2.277 . S
O108 C103 1.209 . S
C109 O106 1.258 . S
C109 O111 1.282 . S
O110 Cd102 2.277 . S
O110 C103 1.226 . S
O111 Cd102 2.356 . S
O111 C109 1.282 . S
C112 O113 1.306 . S
C112 O115 1.160 . S
O113 C112 1.306 . S
O113 Cd114 2.228 1_554 S
Cd114 O113 2.228 1_556 S
Cd114 O118 2.273 . S
Cd114 O122 2.277 1_556 S
O115 C112 1.160 . S
O115 Cd116 2.203 . S
Cd116 O115 2.203 . S
Cd116 O118 2.411 1_554 S
Cd116 O119 2.333 1_554 S
Cd116 O120 2.352 . S
Cd116 O124 2.277 . S
Cd116 O125 2.356 . S
C117 O122 1.209 . S
C117 O124 1.226 . S
O118 Cd114 2.273 . S
O118 Cd116 2.411 1_556 S
O118 C121 1.320 . S
O119 Cd116 2.333 1_556 S
O119 C121 1.214 . S
O120 Cd116 2.352 . S
O120 C123 1.258 . S
C121 O118 1.320 . S
C121 O119 1.214 . S
O122 Cd114 2.277 1_554 S
O122 C117 1.209 . S
C123 O120 1.258 . S
C123 O125 1.282 . S
O124 Cd116 2.277 . S
O124 C117 1.226 . S
O125 Cd116 2.356 . S
O125 C123 1.282 . S
C126 O127 1.306 . S
C126 O129 1.160 . S
O127 C126 1.306 . S
O127 Cd128 2.228 . S
Cd128 O127 2.228 . S
Cd128 O132 2.273 . S
Cd128 O136 2.277 . S
O129 C126 1.160 . S
O129 Cd130 2.203 . S
Cd130 O129 2.203 . S
Cd130 O132 2.411 . S
Cd130 O133 2.333 . S
Cd130 O134 2.352 . S
Cd130 O138 2.277 . S
Cd130 O139 2.356 . S
C131 O136 1.209 . S
C131 O138 1.226 . S
O132 Cd128 2.273 . S
O132 Cd130 2.411 . S
O132 C135 1.320 . S
O133 Cd130 2.333 . S
O133 C135 1.214 . S
O134 Cd130 2.352 . S
O134 C137 1.258 . S
C135 O132 1.320 . S
C135 O133 1.214 . S
O136 Cd128 2.277 . S
O136 C131 1.209 . S
C137 O134 1.258 . S
C137 O139 1.282 . S
O138 Cd130 2.277 . S
O138 C131 1.226 . S
O139 Cd130 2.356 . S
O139 C137 1.282 . S
C140 O141 1.306 . S
C140 O143 1.160 . S
O141 C140 1.306 . S
O141 Cd142 2.228 . S
Cd142 O141 2.228 . S
Cd142 O146 2.273 . S
Cd142 O150 2.277 . S
O143 C140 1.160 . S
O143 Cd144 2.203 . S
Cd144 O143 2.203 . S
Cd144 O146 2.411 . S
Cd144 O147 2.333 . S
Cd144 O148 2.352 . S
Cd144 O152 2.277 . S
Cd144 O153 2.356 . S
C145 O150 1.209 . S
C145 O152 1.226 . S
O146 Cd142 2.273 . S
O146 Cd144 2.411 . S
O146 C149 1.320 . S
O147 Cd144 2.333 . S
O147 C149 1.214 . S
O148 Cd144 2.352 . S
O148 C151 1.258 . S
C149 O146 1.320 . S
C149 O147 1.214 . S
O150 Cd142 2.277 . S
O150 C145 1.209 . S
C151 O148 1.258 . S
C151 O153 1.282 . S
O152 Cd144 2.277 . S
O152 C145 1.226 . S
O153 Cd144 2.356 . S
O153 C151 1.282 . S
C154 O155 1.306 . S
C154 O157 1.160 . S
O155 C154 1.306 . S
O155 Cd156 2.228 1_554 S
Cd156 O155 2.228 1_556 S
Cd156 O160 2.273 . S
Cd156 O164 2.277 1_556 S
O157 C154 1.160 . S
O157 Cd158 2.203 . S
Cd158 O157 2.203 . S
Cd158 O160 2.411 1_554 S
Cd158 O161 2.333 1_554 S
Cd158 O162 2.352 . S
Cd158 O166 2.277 . S
Cd158 O167 2.356 . S
C159 O164 1.209 . S
C159 O166 1.226 . S
O160 Cd156 2.273 . S
O160 Cd158 2.411 1_556 S
O160 C163 1.320 . S
O161 Cd158 2.333 1_556 S
O161 C163 1.214 . S
O162 Cd158 2.352 . S
O162 C165 1.258 . S
C163 O160 1.320 . S
C163 O161 1.214 . S
O164 Cd156 2.277 1_554 S
O164 C159 1.209 . S
C165 O162 1.258 . S
C165 O167 1.282 . S
O166 Cd158 2.277 . S
O166 C159 1.226 . S
O167 Cd158 2.356 . S
O167 C165 1.282 . S
C168 C169 1.369 . S
C168 C170 1.419 . S
C168 H172 0.930 . S
C169 C168 1.369 . S
C169 C178 1.429 . S
C170 C168 1.419 . S
C170 C171 1.363 . S
C170 H173 0.929 . S
C171 C170 1.363 . S
C171 C177 1.428 . S
H172 C168 0.930 . S
H173 C170 0.929 . S
S174 N175 1.613 . S
S174 N176 1.610 . S
N175 S174 1.613 . S
N175 C178 1.350 . S
N176 S174 1.610 . S
N176 C177 1.351 . S
C177 C171 1.428 . S
C177 N176 1.351 . S
C177 C178 1.434 . S
C178 C169 1.429 . S
C178 N175 1.350 . S
C178 C177 1.434 . S
C179 C180 1.369 . S
C179 C181 1.419 . S
C179 H183 0.930 . S
C180 C179 1.369 . S
C180 C189 1.429 . S
C181 C179 1.419 . S
C181 C182 1.363 . S
C181 H184 0.929 . S
C182 C181 1.363 . S
C182 C188 1.428 . S
H183 C179 0.930 . S
H184 C181 0.929 . S
S185 N186 1.613 . S
S185 N187 1.610 . S
N186 S185 1.613 . S
N186 C189 1.350 . S
N187 S185 1.610 . S
N187 C188 1.351 . S
C188 C182 1.428 . S
C188 N187 1.351 . S
C188 C189 1.434 . S
C189 C180 1.429 . S
C189 N186 1.350 . S
C189 C188 1.434 . S
C190 C191 1.369 . S
C190 C192 1.419 . S
C190 H194 0.930 . S
C191 C190 1.369 . S
C191 C200 1.429 . S
C192 C190 1.419 . S
C192 C193 1.363 . S
C192 H195 0.929 . S
C193 C192 1.363 . S
C193 C199 1.428 . S
H194 C190 0.930 . S
H195 C192 0.929 . S
S196 N197 1.613 . S
S196 N198 1.610 . S
N197 S196 1.613 . S
N197 C200 1.350 . S
N198 S196 1.610 . S
N198 C199 1.351 . S
C199 C193 1.428 . S
C199 N198 1.351 . S
C199 C200 1.434 . S
C200 C191 1.429 . S
C200 N197 1.350 . S
C200 C199 1.434 . S
C201 C202 1.369 . S
C201 C203 1.419 . S
C201 H205 0.930 . S
C202 C201 1.369 . S
C202 C211 1.429 . S
C203 C201 1.419 . S
C203 C204 1.363 . S
C203 H206 0.929 . S
C204 C203 1.363 . S
C204 C210 1.428 . S
H205 C201 0.930 . S
H206 C203 0.929 . S
S207 N208 1.613 . S
S207 N209 1.610 . S
N208 S207 1.613 . S
N208 C211 1.350 . S
N209 S207 1.610 . S
N209 C210 1.351 . S
C210 C204 1.428 . S
C210 N209 1.351 . S
C210 C211 1.434 . S
C211 C202 1.429 . S
C211 N208 1.350 . S
C211 C210 1.434 . S
C212 C213 1.369 . S
C212 C214 1.419 . S
C212 H216 0.930 . S
C213 C212 1.369 . S
C213 C222 1.429 . S
C214 C212 1.419 . S
C214 C215 1.363 . S
C214 H217 0.929 . S
C215 C214 1.363 . S
C215 C221 1.428 . S
H216 C212 0.930 . S
H217 C214 0.929 . S
S218 N219 1.613 . S
S218 N220 1.610 . S
N219 S218 1.613 . S
N219 C222 1.350 . S
N220 S218 1.610 . S
N220 C221 1.351 . S
C221 C215 1.428 . S
C221 N220 1.351 . S
C221 C222 1.434 . S
C222 C213 1.429 . S
C222 N219 1.350 . S
C222 C221 1.434 . S
C223 C224 1.369 . S
C223 C225 1.419 . S
C223 H227 0.930 . S
C224 C223 1.369 . S
C224 C233 1.429 . S
C225 C223 1.419 . S
C225 C226 1.363 . S
C225 H228 0.929 . S
C226 C225 1.363 . S
C226 C232 1.428 . S
H227 C223 0.930 . S
H228 C225 0.929 . S
S229 N230 1.613 . S
S229 N231 1.610 . S
N230 S229 1.613 . S
N230 C233 1.350 . S
N231 S229 1.610 . S
N231 C232 1.351 . S
C232 C226 1.428 . S
C232 N231 1.351 . S
C232 C233 1.434 . S
C233 C224 1.429 . S
C233 N230 1.350 . S
C233 C232 1.434 . S
C234 C235 1.369 . S
C234 C236 1.419 . S
C234 H238 0.930 . S
C235 C234 1.369 . S
C235 C244 1.429 . S
C236 C234 1.419 . S
C236 C237 1.363 . S
C236 H239 0.929 . S
C237 C236 1.363 . S
C237 C243 1.428 . S
H238 C234 0.930 . S
H239 C236 0.929 . S
S240 N241 1.613 . S
S240 N242 1.610 . S
N241 S240 1.613 . S
N241 C244 1.350 . S
N242 S240 1.610 . S
N242 C243 1.351 . S
C243 C237 1.428 . S
C243 N242 1.351 . S
C243 C244 1.434 . S
C244 C235 1.429 . S
C244 N241 1.350 . S
C244 C243 1.434 . S
C245 C246 1.369 . S
C245 C247 1.419 . S
C245 H249 0.930 . S
C246 C245 1.369 . S
C246 C255 1.429 . S
C247 C245 1.419 . S
C247 C248 1.363 . S
C247 H250 0.929 . S
C248 C247 1.363 . S
C248 C254 1.428 . S
H249 C245 0.930 . S
H250 C247 0.929 . S
S251 N252 1.613 . S
S251 N253 1.610 . S
N252 S251 1.613 . S
N252 C255 1.350 . S
N253 S251 1.610 . S
N253 C254 1.351 . S
C254 C248 1.428 . S
C254 N253 1.351 . S
C254 C255 1.434 . S
C255 C246 1.429 . S
C255 N252 1.350 . S
C255 C254 1.434 . S
C256 C257 1.369 . S
C256 C258 1.419 . S
C256 H260 0.930 . S
C257 C256 1.369 . S
C257 C266 1.429 1_554 S
C258 C256 1.419 . S
C258 C259 1.363 1_554 S
C258 H261 0.929 . S
C259 C258 1.363 1_556 S
C259 C265 1.428 . S
H260 C256 0.930 . S
H261 C258 0.929 . S
S262 N263 1.613 . S
S262 N264 1.610 . S
N263 S262 1.613 . S
N263 C266 1.350 . S
N264 S262 1.610 . S
N264 C265 1.351 . S
C265 C259 1.428 . S
C265 N264 1.351 . S
C265 C266 1.434 . S
C266 C257 1.429 1_556 S
C266 N263 1.350 . S
C266 C265 1.434 . S
C267 C268 1.369 . S
C267 C269 1.419 . S
C267 H271 0.930 . S
C268 C267 1.369 . S
C268 C277 1.429 . S
C269 C267 1.419 . S
C269 C270 1.363 . S
C269 H272 0.929 . S
C270 C269 1.363 . S
C270 C276 1.428 . S
H271 C267 0.930 . S
H272 C269 0.929 . S
S273 N274 1.613 . S
S273 N275 1.610 . S
N274 S273 1.613 . S
N274 C277 1.350 . S
N275 S273 1.610 . S
N275 C276 1.351 . S
C276 C270 1.428 . S
C276 N275 1.351 . S
C276 C277 1.434 . S
C277 C268 1.429 . S
C277 N274 1.350 . S
C277 C276 1.434 . S
C278 C279 1.369 . S
C278 C280 1.419 . S
C278 H282 0.930 . S
C279 C278 1.369 . S
C279 C288 1.429 . S
C280 C278 1.419 . S
C280 C281 1.363 . S
C280 H283 0.929 . S
C281 C280 1.363 . S
C281 C287 1.428 . S
H282 C278 0.930 . S
H283 C280 0.929 . S
S284 N285 1.613 . S
S284 N286 1.610 . S
N285 S284 1.613 . S
N285 C288 1.350 . S
N286 S284 1.610 . S
N286 C287 1.351 . S
C287 C281 1.428 . S
C287 N286 1.351 . S
C287 C288 1.434 . S
C288 C279 1.429 . S
C288 N285 1.350 . S
C288 C287 1.434 . S
C289 C290 1.369 . S
C289 C291 1.419 . S
C289 H293 0.930 . S
C290 C289 1.369 . S
C290 C299 1.429 1_556 S
C291 C289 1.419 . S
C291 C292 1.363 1_556 S
C291 H294 0.929 . S
C292 C291 1.363 1_554 S
C292 C298 1.428 . S
H293 C289 0.930 . S
H294 C291 0.929 . S
S295 N296 1.613 . S
S295 N297 1.610 . S
N296 S295 1.613 . S
N296 C299 1.350 . S
N297 S295 1.610 . S
N297 C298 1.351 . S
C298 C292 1.428 . S
C298 N297 1.351 . S
C298 C299 1.434 . S
C299 C290 1.429 1_554 S
C299 N296 1.350 . S
C299 C298 1.434 . S
C300 C301 1.369 . S
C300 C302 1.419 1_545 S
C300 H304 0.930 . S
C301 C300 1.369 . S
C301 C310 1.429 . S
C302 C300 1.419 1_565 S
C302 C303 1.363 . S
C302 H305 0.929 . S
C303 C302 1.363 . S
C303 C309 1.428 . S
H304 C300 0.930 . S
H305 C302 0.929 . S
S306 N307 1.613 . S
S306 N308 1.610 1_545 S
N307 S306 1.613 . S
N307 C310 1.350 . S
N308 S306 1.610 1_565 S
N308 C309 1.351 . S
C309 C303 1.428 . S
C309 N308 1.351 . S
C309 C310 1.434 1_565 S
C310 C301 1.429 . S
C310 N307 1.350 . S
C310 C309 1.434 1_545 S
C311 C312 1.369 . S
C311 C313 1.419 . S
C311 H315 0.930 . S
C312 C311 1.369 . S
C312 C321 1.429 . S
C313 C311 1.419 . S
C313 C314 1.363 . S
C313 H316 0.929 . S
C314 C313 1.363 . S
C314 C320 1.428 . S
H315 C311 0.930 . S
H316 C313 0.929 . S
S317 N318 1.613 . S
S317 N319 1.610 . S
N318 S317 1.613 . S
N318 C321 1.350 . S
N319 S317 1.610 . S
N319 C320 1.351 . S
C320 C314 1.428 . S
C320 N319 1.351 . S
C320 C321 1.434 . S
C321 C312 1.429 . S
C321 N318 1.350 . S
C321 C320 1.434 . S
C322 C323 1.369 . S
C322 C324 1.419 1_655 S
C322 H326 0.930 1_556 S
C323 C322 1.369 . S
C323 C332 1.429 . S
C324 C322 1.419 1_455 S
C324 C325 1.363 . S
C324 H327 0.929 1_556 S
C325 C324 1.363 . S
C325 C331 1.428 . S
H326 C322 0.930 1_554 S
H327 C324 0.929 1_554 S
S328 N329 1.613 1_455 S
S328 N330 1.610 . S
N329 S328 1.613 1_655 S
N329 C332 1.350 . S
N330 S328 1.610 . S
N330 C331 1.351 . S
C331 C325 1.428 . S
C331 N330 1.351 . S
C331 C332 1.434 1_455 S
C332 C323 1.429 . S
C332 N329 1.350 . S
C332 C331 1.434 1_655 S
C333 C334 1.369 . S
C333 C335 1.419 1_455 S
C333 H337 0.930 . S
C334 C333 1.369 . S
C334 C343 1.429 . S
C335 C333 1.419 1_655 S
C335 C336 1.363 . S
C335 H338 0.929 . S
C336 C335 1.363 . S
C336 C342 1.428 . S
H337 C333 0.930 . S
H338 C335 0.929 . S
S339 N340 1.613 1_655 S
S339 N341 1.610 . S
N340 S339 1.613 1_455 S
N340 C343 1.350 . S
N341 S339 1.610 . S
N341 C342 1.351 . S
C342 C336 1.428 . S
C342 N341 1.351 . S
C342 C343 1.434 1_655 S
C343 C334 1.429 . S
C343 N340 1.350 . S
C343 C342 1.434 1_455 S
C344 C345 1.369 . S
C344 C346 1.419 1_545 S
C344 H348 0.930 . S
C345 C344 1.369 . S
C345 C354 1.429 . S
C346 C344 1.419 1_565 S
C346 C347 1.363 . S
C346 H349 0.929 . S
C347 C346 1.363 . S
C347 C353 1.428 . S
H348 C344 0.930 . S
H349 C346 0.929 . S
S350 N351 1.613 . S
S350 N352 1.610 1_545 S
N351 S350 1.613 . S
N351 C354 1.350 . S
N352 S350 1.610 1_565 S
N352 C353 1.351 . S
C353 C347 1.428 . S
C353 N352 1.351 . S
C353 C354 1.434 1_565 S
C354 C345 1.429 . S
C354 N351 1.350 . S
C354 C353 1.434 1_545 S
C355 C356 1.369 . S
C355 C357 1.419 . S
C355 H359 0.930 . S
C356 C355 1.369 . S
C356 C365 1.429 . S
C357 C355 1.419 . S
C357 C358 1.363 . S
C357 H360 0.929 . S
C358 C357 1.363 . S
C358 C364 1.428 . S
H359 C355 0.930 . S
H360 C357 0.929 . S
S361 N362 1.613 1_556 S
S361 N363 1.610 1_556 S
N362 S361 1.613 1_554 S
N362 C365 1.350 . S
N363 S361 1.610 1_554 S
N363 C364 1.351 . S
C364 C358 1.428 . S
C364 N363 1.351 . S
C364 C365 1.434 . S
C365 C356 1.429 . S
C365 N362 1.350 . S
C365 C364 1.434 . S
C366 C367 1.369 . S
C366 C368 1.419 . S
C366 H370 0.930 . S
C367 C366 1.369 . S
C367 C376 1.429 . S
C368 C366 1.419 . S
C368 C369 1.363 . S
C368 H371 0.929 . S
C369 C368 1.363 . S
C369 C375 1.428 . S
H370 C366 0.930 . S
H371 C368 0.929 . S
S372 N373 1.613 . S
S372 N374 1.610 . S
N373 S372 1.613 . S
N373 C376 1.350 . S
N374 S372 1.610 . S
N374 C375 1.351 . S
C375 C369 1.428 . S
C375 N374 1.351 . S
C375 C376 1.434 . S
C376 C367 1.429 . S
C376 N373 1.350 . S
C376 C375 1.434 . S
C377 C378 1.369 . S
C377 C379 1.419 . S
C377 H381 0.930 . S
C378 C377 1.369 . S
C378 C387 1.429 . S
C379 C377 1.419 . S
C379 C380 1.363 . S
C379 H382 0.929 . S
C380 C379 1.363 . S
C380 C386 1.428 . S
H381 C377 0.930 . S
H382 C379 0.929 . S
S383 N384 1.613 . S
S383 N385 1.610 . S
N384 S383 1.613 . S
N384 C387 1.350 . S
N385 S383 1.610 . S
N385 C386 1.351 . S
C386 C380 1.428 . S
C386 N385 1.351 . S
C386 C387 1.434 . S
C387 C378 1.429 . S
C387 N384 1.350 . S
C387 C386 1.434 . S
C388 C389 1.369 . S
C388 C390 1.419 . S
C388 H392 0.930 . S
C389 C388 1.369 . S
C389 C398 1.429 . S
C390 C388 1.419 . S
C390 C391 1.363 . S
C390 H393 0.929 . S
C391 C390 1.363 . S
C391 C397 1.428 . S
H392 C388 0.930 . S
H393 C390 0.929 . S
S394 N395 1.613 . S
S394 N396 1.610 . S
N395 S394 1.613 . S
N395 C398 1.350 . S
N396 S394 1.610 . S
N396 C397 1.351 . S
C397 C391 1.428 . S
C397 N396 1.351 . S
C397 C398 1.434 . S
C398 C389 1.429 . S
C398 N395 1.350 . S
C398 C397 1.434 . S
C399 C400 1.369 . S
C399 C401 1.419 . S
C399 H403 0.930 . S
C400 C399 1.369 . S
C400 C409 1.429 . S
C401 C399 1.419 . S
C401 C402 1.363 . S
C401 H404 0.929 . S
C402 C401 1.363 . S
C402 C408 1.428 . S
H403 C399 0.930 . S
H404 C401 0.929 . S
S405 N406 1.613 . S
S405 N407 1.610 . S
N406 S405 1.613 . S
N406 C409 1.350 . S
N407 S405 1.610 . S
N407 C408 1.351 . S
C408 C402 1.428 . S
C408 N407 1.351 . S
C408 C409 1.434 . S
C409 C400 1.429 . S
C409 N406 1.350 . S
C409 C408 1.434 . S
C410 C411 1.369 . S
C410 C412 1.419 . S
C410 H414 0.930 . S
C411 C410 1.369 . S
C411 C420 1.429 . S
C412 C410 1.419 . S
C412 C413 1.363 . S
C412 H415 0.929 . S
C413 C412 1.363 . S
C413 C419 1.428 . S
H414 C410 0.930 . S
H415 C412 0.929 . S
S416 N417 1.613 . S
S416 N418 1.610 . S
N417 S416 1.613 . S
N417 C420 1.350 . S
N418 S416 1.610 . S
N418 C419 1.351 . S
C419 C413 1.428 . S
C419 N418 1.351 . S
C419 C420 1.434 . S
C420 C411 1.429 . S
C420 N417 1.350 . S
C420 C419 1.434 . S
C421 C422 1.369 . S
C421 C423 1.419 . S
C421 H425 0.930 . S
C422 C421 1.369 . S
C422 C431 1.429 . S
C423 C421 1.419 . S
C423 C424 1.363 . S
C423 H426 0.929 . S
C424 C423 1.363 . S
C424 C430 1.428 . S
H425 C421 0.930 . S
H426 C423 0.929 . S
S427 N428 1.613 . S
S427 N429 1.610 . S
N428 S427 1.613 . S
N428 C431 1.350 . S
N429 S427 1.610 . S
N429 C430 1.351 . S
C430 C424 1.428 . S
C430 N429 1.351 . S
C430 C431 1.434 . S
C431 C422 1.429 . S
C431 N428 1.350 . S
C431 C430 1.434 . S
C169 C9 1.704 . S
C171 C149 1.706 . S
C180 C23 1.703 . S
C182 C163 1.707 . S
C191 C93 1.710 . S
C193 C37 1.701 . S
C202 C51 1.700 . S
C204 C107 1.709 . S
C213 C121 1.711 . S
C215 C65 1.700 . S
C224 C135 1.711 . S
C226 C79 1.700 . S
C235 C89 0.742 . S
C237 C5 0.753 . S
C246 C103 0.748 . S
C248 C19 0.749 . S
C257 C117 0.741 . S
C259 C33 0.749 . S
C268 C47 0.743 . S
C270 C131 0.748 . S
C279 C61 0.742 . S
C281 C145 0.749 . S
C290 C75 0.744 . S
C292 C159 0.747 . S
C301 C11 1.462 . S
C303 C53 1.462 . S
C312 C25 1.462 . S
C314 C67 1.458 . S
C323 C39 1.463 . S
C325 C81 1.459 . S
C334 C137 1.458 . S
C336 C95 1.458 . S
C345 C151 1.459 . S
C347 C109 1.463 . S
C356 C165 1.460 . S
C358 C123 1.457 . S
C367 C0 1.582 . S
C369 C112 1.583 . S
C378 C126 1.580 . S
C380 C14 1.581 . S
C389 C28 1.584 . S
C391 C140 1.583 . S
C400 C154 1.580 . S
C402 C42 1.581 . S
C411 C56 1.580 . S
C413 C84 1.581 . S
C422 C70 1.586 . S
C424 C98 1.584 . S
