# Generated by pormake.
# Topology unp, (4)-cn, num edge types: 1
# Building blocks:
#     Node 0, Type 0, BuildingBlock: QUQFOY_clean_sbu_1, # of connection points: 4
#     Node 1, Type 0, BuildingBlock: QUQFOY_clean_sbu_1, # of connection points: 4
#     Node 2, Type 0, BuildingBlock: QUQFOY_clean_sbu_1, # of connection points: 4
#     Node 3, Type 0, BuildingBlock: QUQFOY_clean_sbu_1, # of connection points: 4
#     Node 4, Type 0, BuildingBlock: QUQFOY_clean_sbu_1, # of connection points: 4
#     Node 5, Type 0, BuildingBlock: QUQFOY_clean_sbu_1, # of connection points: 4
#     Node 6, Type 0, BuildingBlock: QUQFOY_clean_sbu_1, # of connection points: 4
#     Node 7, Type 0, BuildingBlock: QUQFOY_clean_sbu_1, # of connection points: 4
#     Node 8, Type 0, BuildingBlock: QUQFOY_clean_sbu_1, # of connection points: 4
#     Node 9, Type 0, BuildingBlock: QUQFOY_clean_sbu_1, # of connection points: 4
#     Node 10, Type 0, BuildingBlock: QUQFOY_clean_sbu_1, # of connection points: 4
#     Node 11, Type 0, BuildingBlock: QUQFOY_clean_sbu_1, # of connection points: 4
#     Node 12, Type 0, BuildingBlock: QUQFOY_clean_sbu_1, # of connection points: 4
#     Node 13, Type 0, BuildingBlock: QUQFOY_clean_sbu_1, # of connection points: 4
#     Node 14, Type 0, BuildingBlock: QUQFOY_clean_sbu_1, # of connection points: 4
#     Node 15, Type 0, BuildingBlock: QUQFOY_clean_sbu_1, # of connection points: 4
#     Node 16, Type 0, BuildingBlock: QUQFOY_clean_sbu_1, # of connection points: 4
#     Node 17, Type 0, BuildingBlock: QUQFOY_clean_sbu_1, # of connection points: 4
#     Edge 18, Type (0, 0), BuildingBlock: EZIPEK_clean_linker_0, # of connection points: 2
#     Edge 19, Type (0, 0), BuildingBlock: EZIPEK_clean_linker_0, # of connection points: 2
#     Edge 20, Type (0, 0), BuildingBlock: EZIPEK_clean_linker_0, # of connection points: 2
#     Edge 21, Type (0, 0), BuildingBlock: EZIPEK_clean_linker_0, # of connection points: 2
#     Edge 22, Type (0, 0), BuildingBlock: EZIPEK_clean_linker_0, # of connection points: 2
#     Edge 23, Type (0, 0), BuildingBlock: EZIPEK_clean_linker_0, # of connection points: 2
#     Edge 24, Type (0, 0), BuildingBlock: EZIPEK_clean_linker_0, # of connection points: 2
#     Edge 25, Type (0, 0), BuildingBlock: EZIPEK_clean_linker_0, # of connection points: 2
#     Edge 26, Type (0, 0), BuildingBlock: EZIPEK_clean_linker_0, # of connection points: 2
#     Edge 27, Type (0, 0), BuildingBlock: EZIPEK_clean_linker_0, # of connection points: 2
#     Edge 28, Type (0, 0), BuildingBlock: EZIPEK_clean_linker_0, # of connection points: 2
#     Edge 29, Type (0, 0), BuildingBlock: EZIPEK_clean_linker_0, # of connection points: 2
#     Edge 30, Type (0, 0), BuildingBlock: EZIPEK_clean_linker_0, # of connection points: 2
#     Edge 31, Type (0, 0), BuildingBlock: EZIPEK_clean_linker_0, # of connection points: 2
#     Edge 32, Type (0, 0), BuildingBlock: EZIPEK_clean_linker_0, # of connection points: 2
#     Edge 33, Type (0, 0), BuildingBlock: EZIPEK_clean_linker_0, # of connection points: 2
#     Edge 34, Type (0, 0), BuildingBlock: EZIPEK_clean_linker_0, # of connection points: 2
#     Edge 35, Type (0, 0), BuildingBlock: EZIPEK_clean_linker_0, # of connection points: 2
#     Edge 36, Type (0, 0), BuildingBlock: EZIPEK_clean_linker_0, # of connection points: 2
#     Edge 37, Type (0, 0), BuildingBlock: EZIPEK_clean_linker_0, # of connection points: 2
#     Edge 38, Type (0, 0), BuildingBlock: EZIPEK_clean_linker_0, # of connection points: 2
#     Edge 39, Type (0, 0), BuildingBlock: EZIPEK_clean_linker_0, # of connection points: 2
#     Edge 40, Type (0, 0), BuildingBlock: EZIPEK_clean_linker_0, # of connection points: 2
#     Edge 41, Type (0, 0), BuildingBlock: EZIPEK_clean_linker_0, # of connection points: 2
#     Edge 42, Type (0, 0), BuildingBlock: EZIPEK_clean_linker_0, # of connection points: 2
#     Edge 43, Type (0, 0), BuildingBlock: EZIPEK_clean_linker_0, # of connection points: 2
#     Edge 44, Type (0, 0), BuildingBlock: EZIPEK_clean_linker_0, # of connection points: 2
#     Edge 45, Type (0, 0), BuildingBlock: EZIPEK_clean_linker_0, # of connection points: 2
#     Edge 46, Type (0, 0), BuildingBlock: EZIPEK_clean_linker_0, # of connection points: 2
#     Edge 47, Type (0, 0), BuildingBlock: EZIPEK_clean_linker_0, # of connection points: 2
#     Edge 48, Type (0, 0), BuildingBlock: EZIPEK_clean_linker_0, # of connection points: 2
#     Edge 49, Type (0, 0), BuildingBlock: EZIPEK_clean_linker_0, # of connection points: 2
#     Edge 50, Type (0, 0), BuildingBlock: EZIPEK_clean_linker_0, # of connection points: 2
#     Edge 51, Type (0, 0), BuildingBlock: EZIPEK_clean_linker_0, # of connection points: 2
#     Edge 52, Type (0, 0), BuildingBlock: EZIPEK_clean_linker_0, # of connection points: 2
#     Edge 53, Type (0, 0), BuildingBlock: EZIPEK_clean_linker_0, # of connection points: 2
# Relax obj value: 0.363
# Max RMSD: 0.184
# Mean RMSD: 0.184
data_MOF--net-unp--node1-QUQFOY_clean_sbu_1--edge1-EZIPEK_clean_linker_0
_symmetry_space_group_name_H-M    P1
_symmetry_Int_Tables_number       1
_symmetry_cell_setting            triclinic
loop_
_symmetry_equiv_pos_as_xyz
'x, y, z'
_cell_length_a     35.767649
_cell_length_b     35.798147
_cell_length_c     54.954819
_cell_angle_alpha  89.997873
_cell_angle_beta   89.999273
_cell_angle_gamma 119.98859
loop_
_atom_site_label
_atom_site_type_symbol
_atom_site_fract_x
_atom_site_fract_y
_atom_site_fract_z
_atom_type_partial_charge
O0 O 0.14462 0.08833 0.13709 0.0
Cd1 Cd 0.16521 0.15303 0.14087 0.0
Cd2 Cd 0.17251 0.15262 0.09172 0.0
O3 O 0.17996 0.10104 0.10264 0.0
O4 O 0.20284 0.17787 0.16988 0.0
O5 O 0.22626 0.1932 0.13157 0.0
C6 C 0.23435 0.19752 0.15466 0.0
C7 C 0.19626 0.17659 0.05205 0.0
C8 C 0.15934 0.07554 0.11998 0.0
C9 C 0.10136 0.16554 0.11631 0.0
O10 O 0.11608 0.15443 0.09833 0.0
O11 O 0.11934 0.17082 0.13689 0.0
O12 O 0.16336 0.13944 0.05636 0.0
O13 O 0.21742 0.20045 0.07032 0.0
O14 O 0.90534 0.06397 0.13105 0.0
Cd15 Cd 0.84037 0.01937 0.13473 0.0
Cd16 Cd 0.84821 0.01723 0.08745 0.0
O17 O 0.89708 0.07975 0.09367 0.0
O18 O 0.81605 0.03509 0.16272 0.0
O19 O 0.79592 0.03396 0.12421 0.0
C20 C 0.79296 0.04144 0.14698 0.0
C21 C 0.8182 0.00374 0.04841 0.0
C22 C 0.92086 0.08731 0.11223 0.0
C23 C 0.8454 0.94675 0.12013 0.0
O24 O 0.85859 0.96872 0.10065 0.0
O25 O 0.8274 0.95712 0.13657 0.0
O26 O 0.85714 0.01244 0.05215 0.0
O27 O 0.79545 0.00288 0.06684 0.0
O28 O 0.95144 0.84506 0.14128 0.0
Cd29 Cd 0.99655 0.82563 0.14064 0.0
Cd30 Cd 0.99381 0.83563 0.09177 0.0
O31 O 0.94406 0.84607 0.10143 0.0
O32 O 0.98528 0.78842 0.16958 0.0
O33 O 0.97649 0.76459 0.1314 0.0
C34 C 0.97267 0.75667 0.15451 0.0
C35 C 0.98976 0.80827 0.05254 0.0
C36 C 0.93389 0.85119 0.1228 0.0
C37 C 0.0764 0.89641 0.12008 0.0
O38 O 0.05452 0.88499 0.10051 0.0
O39 O 0.05985 0.87503 0.13941 0.0
O40 O 0.99548 0.84616 0.05615 0.0
O41 O 0.9856 0.78471 0.07122 0.0
O42 O 0.10123 0.16153 0.86613 0.0
Cd43 Cd 0.16476 0.17571 0.86764 0.0
Cd44 Cd 0.1436 0.15594 0.91378 0.0
O45 O 0.09132 0.16295 0.90532 0.0
O46 O 0.19095 0.20973 0.83766 0.0
O47 O 0.21049 0.23653 0.87493 0.0
C48 C 0.21354 0.24233 0.85163 0.0
C49 C 0.17664 0.17973 0.9516 0.0
C50 C 0.07791 0.16105 0.88369 0.0
C51 C 0.15513 0.09353 0.88193 0.0
O52 O 0.13926 0.09965 0.90117 0.0
O53 O 0.17414 0.1236 0.8665 0.0
O54 O 0.13868 0.14662 0.94954 0.0
O55 O 0.19633 0.20039 0.93214 0.0
O56 O 0.82729 0.92387 0.85981 0.0
Cd57 Cd 0.81792 0.97593 0.86422 0.0
Cd58 Cd 0.8364 0.96957 0.91002 0.0
O59 O 0.82627 0.91025 0.89872 0.0
O60 O 0.77648 0.97067 0.83855 0.0
O61 O 0.76158 0.96406 0.87817 0.0
C62 C 0.74898 0.96198 0.8559 0.0
C63 C 0.81127 0.97447 0.94833 0.0
C64 C 0.82605 0.89913 0.87674 0.0
C65 C 0.90045 0.04735 0.88102 0.0
O66 O 0.8934 0.02365 0.89963 0.0
O67 O 0.87162 0.03672 0.86477 0.0
O68 O 0.84339 0.96807 0.94581 0.0
O69 O 0.79212 0.97705 0.92903 0.0
O70 O 0.05066 0.88523 0.86474 0.0
Cd71 Cd 0.00419 0.82088 0.86674 0.0
Cd72 Cd 0.99902 0.84252 0.91267 0.0
O73 O 0.05319 0.89972 0.90393 0.0
O74 O 0.01606 0.79467 0.83813 0.0
O75 O 0.02316 0.77891 0.87635 0.0
C76 C 0.02743 0.77472 0.85332 0.0
C77 C 0.9953 0.81405 0.95136 0.0
C78 C 0.06657 0.91157 0.88236 0.0
C79 C 0.92456 0.82168 0.87887 0.0
O80 O 0.94304 0.83723 0.89907 0.0
O81 O 0.94102 0.8072 0.86372 0.0
O82 O 0.99273 0.84827 0.94817 0.0
O83 O 7e-05 0.79533 0.93251 0.0
O84 O 0.82369 0.4388 0.47811 0.0
Cd85 Cd 0.83864 0.50143 0.47127 0.0
Cd86 Cd 0.82605 0.47029 0.42754 0.0
O87 O 0.84999 0.43433 0.44317 0.0
O88 O 0.87807 0.53801 0.49745 0.0
O89 O 0.89802 0.53966 0.45883 0.0
C90 C 0.90825 0.55164 0.48124 0.0
C91 C 0.83101 0.4795 0.38494 0.0
C92 C 0.83716 0.41945 0.46439 0.0
C93 C 0.75703 0.4803 0.45275 0.0
O94 O 0.76569 0.45681 0.43922 0.0
O95 O 0.78683 0.51033 0.46516 0.0
O96 O 0.8128 0.44216 0.39501 0.0
O97 O 0.8494 0.51246 0.3992 0.0
O98 O 0.55827 0.36755 0.47222 0.0
Cd99 Cd 0.49314 0.32588 0.4765 0.0
Cd100 Cd 0.49437 0.33396 0.42758 0.0
O101 O 0.5485 0.39153 0.43744 0.0
O102 O 0.47217 0.33939 0.50683 0.0
O103 O 0.45315 0.3481 0.46954 0.0
C104 C 0.45178 0.35234 0.49286 0.0
C105 C 0.47056 0.33642 0.3881 0.0
C106 C 0.57319 0.39426 0.45476 0.0
C107 C 0.48278 0.25054 0.45249 0.0
O108 O 0.49333 0.27611 0.43438 0.0
O109 O 0.47532 0.26239 0.47278 0.0
O110 O 0.50647 0.33766 0.39204 0.0
O111 O 0.44726 0.33395 0.40661 0.0
O112 O 0.60794 0.18419 0.47319 0.0
Cd113 Cd 0.65353 0.16539 0.47824 0.0
Cd114 Cd 0.66023 0.17973 0.42897 0.0
O115 O 0.59549 0.15759 0.43629 0.0
O116 O 0.63974 0.13045 0.5084 0.0
O117 O 0.63642 0.10428 0.47122 0.0
C118 C 0.63098 0.09804 0.49445 0.0
C119 C 0.6751 0.1769 0.38723 0.0
C120 C 0.5848 0.17277 0.45413 0.0
C121 C 0.72896 0.24318 0.46385 0.0
O122 O 0.70765 0.23743 0.44432 0.0
O123 O 0.71662 0.21318 0.47939 0.0
O124 O 0.65924 0.1996 0.39535 0.0
O125 O 0.68187 0.15414 0.4029 0.0
O126 O 0.75502 0.49766 0.18992 0.0
Cd127 Cd 0.81752 0.50912 0.19196 0.0
Cd128 Cd 0.79368 0.48143 0.23824 0.0
O129 O 0.74612 0.49575 0.22936 0.0
O130 O 0.85073 0.553 0.16676 0.0
O131 O 0.86244 0.56476 0.20653 0.0
C132 C 0.87096 0.57912 0.18444 0.0
C133 C 0.81082 0.48653 0.28004 0.0
C134 C 0.73296 0.49721 0.20812 0.0
C135 C 0.8089 0.4253 0.20269 0.0
O136 O 0.79141 0.42783 0.2223 0.0
O137 O 0.82666 0.45713 0.18822 0.0
O138 O 0.77292 0.46064 0.27177 0.0
O139 O 0.83958 0.5111 0.26444 0.0
O140 O 0.50881 0.27849 0.20455 0.0
Cd141 Cd 0.48115 0.31709 0.20189 0.0
Cd142 Cd 0.49458 0.32181 0.24845 0.0
O143 O 0.48782 0.2618 0.24234 0.0
O144 O 0.44131 0.29848 0.17367 0.0
O145 O 0.41988 0.29352 0.21217 0.0
C146 C 0.41042 0.28687 0.18927 0.0
C147 C 0.47183 0.33055 0.28686 0.0
C148 C 0.50436 0.25601 0.22335 0.0
C149 C 0.55519 0.39555 0.21525 0.0
O150 O 0.55049 0.3748 0.23488 0.0
O151 O 0.52471 0.38162 0.19988 0.0
O152 O 0.50632 0.32834 0.28401 0.0
O153 O 0.44982 0.32843 0.26778 0.0
O154 O 0.7186 0.23005 0.18869 0.0
Cd155 Cd 0.67483 0.16632 0.19638 0.0
Cd156 Cd 0.69735 0.19805 0.23967 0.0
O157 O 0.75465 0.23691 0.22192 0.0
O158 O 0.67645 0.13197 0.16858 0.0
O159 O 0.70009 0.12989 0.20582 0.0
C160 C 0.69579 0.11875 0.18314 0.0
C161 C 0.69852 0.1887 0.28211 0.0
C162 C 0.75289 0.25123 0.20108 0.0
C163 C 0.61308 0.18204 0.21868 0.0
O164 O 0.64653 0.20756 0.23082 0.0
O165 O 0.61354 0.153 0.20565 0.0
O166 O 0.71476 0.22606 0.27218 0.0
O167 O 0.6841 0.156 0.26767 0.0
O168 O 0.48075 0.77707 0.82097 0.0
Cd169 Cd 0.50112 0.84145 0.8155 0.0
Cd170 Cd 0.49082 0.81506 0.76953 0.0
O171 O 0.50076 0.76829 0.7846 0.0
O172 O 0.54038 0.87436 0.84256 0.0
O173 O 0.56152 0.87825 0.804 0.0
C174 C 0.57109 0.88848 0.82665 0.0
C175 C 0.49974 0.82441 0.72674 0.0
C176 C 0.4858 0.75352 0.80556 0.0
C177 C 0.42384 0.83075 0.79405 0.0
O178 O 0.43258 0.80951 0.7788 0.0
O179 O 0.45207 0.85494 0.80947 0.0
O180 O 0.52074 0.85662 0.74118 0.0
O181 O 0.47664 0.78755 0.7368 0.0
O182 O 0.22733 0.71158 0.80118 0.0
Cd183 Cd 0.16197 0.66731 0.80125 0.0
Cd184 Cd 0.1768 0.67516 0.75459 0.0
O185 O 0.2209 0.73685 0.76624 0.0
O186 O 0.13508 0.67672 0.8304 0.0
O187 O 0.12184 0.6884 0.79233 0.0
C188 C 0.11604 0.68971 0.81548 0.0
C189 C 0.15193 0.66925 0.71468 0.0
C190 C 0.24334 0.74055 0.78488 0.0
C191 C 0.16766 0.59739 0.7821 0.0
O192 O 0.1861 0.62422 0.76488 0.0
O193 O 0.14596 0.60429 0.79786 0.0
O194 O 0.19106 0.67938 0.71936 0.0
O195 O 0.12628 0.66303 0.73268 0.0
O196 O 0.26458 0.49296 0.8026 0.0
Cd197 Cd 0.3178 0.48505 0.80437 0.0
Cd198 Cd 0.32758 0.51334 0.75832 0.0
O199 O 0.26615 0.50332 0.76329 0.0
O200 O 0.30402 0.44354 0.83139 0.0
O201 O 0.31162 0.42917 0.79293 0.0
C202 C 0.30171 0.41639 0.81522 0.0
C203 C 0.34205 0.49868 0.71911 0.0
C204 C 0.24707 0.49746 0.7836 0.0
C205 C 0.3914 0.57116 0.7971 0.0
O206 O 0.37609 0.56696 0.77576 0.0
O207 O 0.37544 0.53974 0.8119 0.0
O208 O 0.33802 0.5317 0.72367 0.0
O209 O 0.33875 0.47374 0.73694 0.0
O210 O 0.44324 0.83009 0.52683 0.0
Cd211 Cd 0.50708 0.8498 0.53334 0.0
Cd212 Cd 0.47833 0.8219 0.57817 0.0
O213 O 0.42602 0.82541 0.56562 0.0
O214 O 0.54072 0.89484 0.5089 0.0
O215 O 0.54271 0.90751 0.54871 0.0
C216 C 0.55386 0.92187 0.52675 0.0
C217 C 0.49059 0.82925 0.62075 0.0
C218 C 0.41568 0.82302 0.54335 0.0
C219 C 0.50339 0.76926 0.54621 0.0
O220 O 0.48216 0.77037 0.56445 0.0
O221 O 0.5228 0.80174 0.53226 0.0
O222 O 0.45448 0.80144 0.61129 0.0
O223 O 0.52016 0.85481 0.60585 0.0
O224 O 0.16697 0.59803 0.52602 0.0
Cd225 Cd 0.15246 0.64711 0.5283 0.0
Cd226 Cd 0.17443 0.64732 0.57448 0.0
O227 O 0.17026 0.58959 0.56527 0.0
O228 O 0.11482 0.6389 0.49993 0.0
O229 O 0.09273 0.63216 0.5383 0.0
C230 C 0.08413 0.62946 0.51531 0.0
C231 C 0.15059 0.65219 0.61325 0.0
C232 C 0.17031 0.57698 0.54367 0.0
C233 C 0.23417 0.72205 0.54199 0.0
O234 O 0.22891 0.70143 0.56169 0.0
O235 O 0.20416 0.70873 0.52633 0.0
O236 O 0.18521 0.6503 0.61011 0.0
O237 O 0.12876 0.65125 0.59434 0.0
O238 O 0.41128 0.56917 0.52738 0.0
Cd239 Cd 0.36018 0.50726 0.53179 0.0
Cd240 Cd 0.36193 0.53313 0.5775 0.0
O241 O 0.42007 0.5842 0.56632 0.0
O242 O 0.36831 0.47174 0.50694 0.0
O243 O 0.37211 0.46345 0.54681 0.0
C244 C 0.37615 0.45322 0.52478 0.0
C245 C 0.35962 0.50931 0.61729 0.0
C246 C 0.43319 0.59433 0.54454 0.0
C247 C 0.28526 0.51518 0.54569 0.0
O248 O 0.30635 0.53139 0.56519 0.0
O249 O 0.29889 0.49882 0.52995 0.0
O250 O 0.36204 0.54568 0.61274 0.0
O251 O 0.35873 0.48587 0.59922 0.0
C252 C 0.3479 0.22239 0.1703 0.0
C253 C 0.36494 0.26391 0.181 0.0
C254 C 0.29678 0.2629 0.17328 0.0
C255 C 0.27935 0.2208 0.16349 0.0
N256 N 0.28509 0.15773 0.15523 0.0
N257 N 0.35549 0.32253 0.19497 0.0
C258 C 0.30411 0.19986 0.16259 0.0
C259 C 0.33924 0.28377 0.18326 0.0
N260 N 0.37369 0.20451 0.16752 0.0
N261 N 0.27318 0.28337 0.17218 0.0
H262 H 0.38721 0.33994 0.20123 0.0
H263 H 0.33716 0.33661 0.1997 0.0
H264 H 0.24186 0.2687 0.16522 0.0
H265 H 0.28524 0.31564 0.17662 0.0
H266 H 0.3654 0.17727 0.15702 0.0
H267 H 0.40463 0.21795 0.17486 0.0
H268 H 0.2994 0.13871 0.15682 0.0
H269 H 0.25341 0.14044 0.14887 0.0
C270 C 0.77883 0.10303 0.14868 0.0
C271 C 0.76591 0.05975 0.15486 0.0
C272 C 0.70409 0.05356 0.17783 0.0
C273 C 0.71901 0.09772 0.17316 0.0
N274 N 0.77368 0.16663 0.15747 0.0
N275 N 0.7185 0.99407 0.17637 0.0
C276 C 0.75702 0.12298 0.15931 0.0
C277 C 0.72915 0.03506 0.16978 0.0
N278 N 0.81223 0.12528 0.13278 0.0
N279 N 0.66537 0.02918 0.18931 0.0
H280 H 0.73444 0.97856 0.16958 0.0
H281 H 0.6953 0.97601 0.1894 0.0
H282 H 0.64662 0.04205 0.19558 0.0
H283 H 0.65026 0.99585 0.19121 0.0
H284 H 0.81947 0.15472 0.12508 0.0
H285 H 0.83133 0.11328 0.12593 0.0
H286 H 0.80396 0.18767 0.15022 0.0
H287 H 0.75894 0.18275 0.16501 0.0
C288 C 0.93956 0.63942 0.16696 0.0
C289 C 0.89986 0.62544 0.1793 0.0
C290 C 0.90782 0.69712 0.17476 0.0
C291 C 0.94859 0.7118 0.16355 0.0
N292 N 0.00662 0.69974 0.152 0.0
N293 N 0.84899 0.64199 0.1984 0.0
C294 C 0.96545 0.68371 0.16046 0.0
C295 C 0.8851 0.65475 0.18447 0.0
N296 N 0.95215 0.61017 0.16122 0.0
N297 N 0.88939 0.7227 0.17468 0.0
H298 H 0.82956 0.61053 0.20461 0.0
H299 H 0.83987 0.66333 0.20533 0.0
H300 H 0.90433 0.75369 0.16732 0.0
H301 H 0.85762 0.71196 0.17986 0.0
H302 H 0.97801 0.61696 0.14981 0.0
H303 H 0.93527 0.57812 0.16698 0.0
H304 H 0.02259 0.68215 0.15155 0.0
H305 H 0.02621 0.73199 0.14705 0.0
C306 C 0.30436 0.35577 0.83661 0.0
C307 C 0.28179 0.37035 0.82175 0.0
C308 C 0.2147 0.30192 0.8275 0.0
C309 C 0.23768 0.28616 0.84112 0.0
N310 N 0.30519 0.29482 0.85551 0.0
N311 N 0.2176 0.3552 0.79933 0.0
C312 C 0.28282 0.31219 0.84483 0.0
C313 C 0.23774 0.34256 0.81583 0.0
N314 N 0.34612 0.38381 0.84312 0.0
N315 N 0.1705 0.27948 0.82714 0.0
H316 H 0.23242 0.38557 0.79121 0.0
H317 H 0.18719 0.33431 0.79215 0.0
H318 H 0.15193 0.25035 0.83625 0.0
H319 H 0.15192 0.29174 0.81991 0.0
H320 H 0.36289 0.37684 0.85614 0.0
H321 H 0.36343 0.41518 0.83631 0.0
H322 H 0.33872 0.31069 0.85662 0.0
H323 H 0.29033 0.26298 0.86161 0.0
C324 C 0.67363 0.90003 0.85393 0.0
C325 C 0.70286 0.94462 0.85006 0.0
C326 C 0.64456 0.95353 0.83258 0.0
C327 C 0.61634 0.90849 0.83487 0.0
N328 N 0.60456 0.83752 0.8442 0.0
N329 N 0.71818 0.01371 0.83437 0.0
C330 C 0.63092 0.8814 0.84476 0.0
C331 C 0.6889 0.97139 0.83897 0.0
N332 N 0.68674 0.87529 0.8662 0.0
N333 N 0.62861 0.97915 0.82487 0.0
H334 H 0.75026 0.02832 0.84006 0.0
H335 H 0.71145 0.03392 0.82397 0.0
H336 H 0.59645 0.96674 0.81974 0.0
H337 H 0.64619 0.01269 0.82499 0.0
H338 H 0.6656 0.84428 0.87247 0.0
H339 H 0.71852 0.88638 0.87157 0.0
H340 H 0.6149 0.81572 0.84824 0.0
H341 H 0.57289 0.82236 0.83779 0.0
C342 C 0.114 0.75653 0.82522 0.0
C343 C 0.09266 0.71084 0.82495 0.0
C344 C 0.02996 0.70678 0.84569 0.0
C345 C 0.05007 0.75238 0.84438 0.0
N346 N 0.10985 0.82122 0.832 0.0
N347 N 0.0298 0.64176 0.83262 0.0
C348 C 0.09167 0.77739 0.83382 0.0
C349 C 0.05052 0.6857 0.83467 0.0
N350 N 0.15636 0.77997 0.81822 0.0
N351 N 0.99138 0.68382 0.85754 0.0
H352 H 0.04425 0.62551 0.82482 0.0
H353 H 0.99755 0.62141 0.83709 0.0
H354 H 0.97466 0.69812 0.86487 0.0
H355 H 0.97695 0.65105 0.86141 0.0
H356 H 0.17556 0.81308 0.82075 0.0
H357 H 0.17368 0.766 0.81131 0.0
H358 H 0.13703 0.84063 0.82154 0.0
H359 H 0.09674 0.83846 0.84008 0.0
C360 C 0.97528 0.54863 0.48892 0.0
C361 C 0.95384 0.57299 0.48907 0.0
C362 C 0.01672 0.6336 0.50848 0.0
C363 C 0.03916 0.61035 0.50662 0.0
N364 N 0.04202 0.54751 0.49321 0.0
N365 N 0.95425 0.63938 0.49657 0.0
C366 C 0.01914 0.5685 0.49615 0.0
C367 C 0.97453 0.61569 0.49828 0.0
N368 N 0.95291 0.50563 0.48325 0.0
N369 N 0.0357 0.67257 0.52011 0.0
H370 H 0.92336 0.62694 0.48925 0.0
H371 H 0.96882 0.67203 0.50077 0.0
H372 H 0.06717 0.68731 0.52683 0.0
H373 H 0.0197 0.68928 0.52438 0.0
H374 H 0.96501 0.48482 0.48578 0.0
H375 H 0.92066 0.48948 0.47791 0.0
H376 H 0.03141 0.51996 0.48258 0.0
H377 H 0.07288 0.55872 0.50028 0.0
C378 C 0.3676 0.38454 0.50734 0.0
C379 C 0.39345 0.42411 0.51973 0.0
C380 C 0.45712 0.41596 0.51487 0.0
C381 C 0.43104 0.37566 0.50322 0.0
N382 N 0.36075 0.31772 0.49195 0.0
N383 N 0.46101 0.47441 0.53895 0.0
C384 C 0.386 0.35881 0.50046 0.0
C385 C 0.43751 0.43857 0.52488 0.0
N386 N 0.32561 0.37189 0.50191 0.0
N387 N 0.5011 0.4342 0.51486 0.0
H388 H 0.44929 0.49408 0.5452 0.0
H389 H 0.49135 0.48313 0.54594 0.0
H390 H 0.51705 0.41924 0.50742 0.0
H391 H 0.52223 0.46578 0.52027 0.0
H392 H 0.30645 0.34628 0.49039 0.0
H393 H 0.31032 0.38842 0.50812 0.0
H394 H 0.32718 0.30176 0.49167 0.0
H395 H 0.37331 0.29809 0.48689 0.0
C396 C 0.63668 0.03209 0.50284 0.0
C397 C 0.61308 0.05422 0.5048 0.0
C398 C 0.55205 0.99033 0.52311 0.0
C399 C 0.57595 0.96853 0.52155 0.0
N400 N 0.64247 0.96931 0.51384 0.0
N401 N 0.55107 0.05727 0.51976 0.0
C402 C 0.61876 0.98964 0.51252 0.0
C403 C 0.57179 0.03432 0.51607 0.0
N404 N 0.67607 0.05164 0.4916 0.0
N405 N 0.50949 0.96815 0.52986 0.0
H406 H 0.56218 0.08821 0.51298 0.0
H407 H 0.52396 0.04667 0.53078 0.0
H408 H 0.49374 0.93605 0.5355 0.0
H409 H 0.48862 0.98038 0.5283 0.0
H410 H 0.6928 0.03583 0.48696 0.0
H411 H 0.69157 0.08371 0.48587 0.0
H412 H 0.67517 0.98396 0.50969 0.0
H413 H 0.63006 0.93831 0.52095 0.0
C414 C 0.03488 0.16552 0.13386 0.0
C415 C 0.05886 0.16423 0.11357 0.0
C416 C 0.99296 0.12267 0.09027 0.0
C417 C 0.9679 0.11946 0.11118 0.0
N418 N 0.96509 0.15105 0.14939 0.0
N419 N 0.06086 0.16711 0.06979 0.0
C420 C 0.98894 0.14516 0.13198 0.0
C421 C 0.03788 0.15164 0.09081 0.0
N422 N 0.05582 0.18663 0.15456 0.0
N423 N 0.97556 0.09572 0.07075 0.0
H424 H 0.09345 0.19086 0.06994 0.0
H425 H 0.04624 0.16067 0.0527 0.0
H426 H 0.94398 0.07028 0.06995 0.0
H427 H 0.99442 0.09544 0.05635 0.0
H428 H 0.04038 0.18347 0.17112 0.0
H429 H 0.08891 0.20844 0.15484 0.0
H430 H 0.97842 0.17164 0.16421 0.0
H431 H 0.93184 0.1384 0.14771 0.0
C432 C 0.84384 0.87671 0.11337 0.0
C433 C 0.86121 0.91672 0.12569 0.0
C434 C 0.92477 0.91231 0.13746 0.0
C435 C 0.90687 0.87143 0.12588 0.0
N436 N 0.84589 0.81053 0.10728 0.0
N437 N 0.91256 0.96748 0.15451 0.0
C438 C 0.86517 0.85224 0.11524 0.0
C439 C 0.89949 0.93244 0.13967 0.0
N440 N 0.80771 0.86281 0.09937 0.0
N441 N 0.96724 0.93394 0.14439 0.0
H442 H 0.89623 0.98464 0.156 0.0
H443 H 0.9375 0.97715 0.1671 0.0
H444 H 0.98823 0.92197 0.14206 0.0
H445 H 0.98317 0.96596 0.15013 0.0
H446 H 0.79621 0.83652 0.08764 0.0
H447 H 0.79032 0.87908 0.09868 0.0
H448 H 0.81405 0.79338 0.10126 0.0
H449 H 0.86063 0.79177 0.10872 0.0
C450 C 0.13907 0.00595 0.09756 0.0
C451 C 0.15046 0.03013 0.11963 0.0
C452 C 0.13207 0.96395 0.14249 0.0
C453 C 0.11633 0.94013 0.12059 0.0
N454 N 0.13081 0.9418 0.07784 0.0
N455 N 0.17365 0.03462 0.16134 0.0
C456 C 0.12948 0.96261 0.09832 0.0
C457 C 0.15199 0.00989 0.14166 0.0
N458 N 0.13296 0.0221 0.07634 0.0
N459 N 0.12822 0.94289 0.16384 0.0
H460 H 0.19055 0.06823 0.16074 0.0
H461 H 0.1786 0.02221 0.17736 0.0
H462 H 0.12103 0.91084 0.16425 0.0
H463 H 0.13303 0.95727 0.18088 0.0
H464 H 0.12116 0.00349 0.06061 0.0
H465 H 0.1342 0.05165 0.07489 0.0
H466 H 0.14274 0.95758 0.06128 0.0
H467 H 0.12465 0.91004 0.07849 0.0
C468 C 0.0832 0.98076 0.86173 0.0
C469 C 0.09629 0.95795 0.87754 0.0
C470 C 0.15706 0.02631 0.89177 0.0
C471 C 0.14371 0.04877 0.87603 0.0
N472 N 0.10326 0.04718 0.84041 0.0
N473 N 0.15145 0.95792 0.90267 0.0
C474 C 0.11032 0.02586 0.85887 0.0
C475 C 0.13529 0.98045 0.89094 0.0
N476 N 0.04312 0.9605 0.85123 0.0
N477 N 0.18958 0.0489 0.90804 0.0
H478 H 0.13638 0.92433 0.90196 0.0
H479 H 0.18151 0.97246 0.91114 0.0
H480 H 0.20759 0.08256 0.90799 0.0
H481 H 0.19751 0.03451 0.92205 0.0
H482 H 0.03024 0.97697 0.84205 0.0
H483 H 0.02054 0.92803 0.85369 0.0
H484 H 0.08202 0.03128 0.82611 0.0
H485 H 0.12174 0.08034 0.8378 0.0
C486 C 0.00511 0.14706 0.899 0.0
C487 C 0.0317 0.14884 0.87935 0.0
C488 C 0.96913 0.09364 0.85747 0.0
C489 C 0.94328 0.08696 0.87846 0.0
N490 N 0.93241 0.11581 0.91568 0.0
N491 N 0.03337 0.14457 0.83566 0.0
C492 C 0.95996 0.11665 0.89816 0.0
C493 C 0.01188 0.12899 0.8571 0.0
N494 N 0.02322 0.17471 0.91813 0.0
N495 N 0.95455 0.06485 0.83865 0.0
H496 H 0.06293 0.17327 0.83484 0.0
H497 H 0.01912 0.13279 0.81875 0.0
H498 H 0.92407 0.03742 0.83821 0.0
H499 H 0.9744 0.06635 0.82435 0.0
H500 H 0.00741 0.1726 0.93439 0.0
H501 H 0.05463 0.2009 0.91727 0.0
H502 H 0.94161 0.13738 0.93013 0.0
H503 H 0.89911 0.09497 0.91479 0.0
C504 C 0.8863 0.84912 0.85182 0.0
C505 C 0.88612 0.82528 0.87262 0.0
C506 C 0.82663 0.83192 0.89013 0.0
C507 C 0.83258 0.8617 0.87143 0.0
N508 N 0.84569 0.8741 0.82842 0.0
N509 N 0.84711 0.78168 0.90702 0.0
C510 C 0.85494 0.86214 0.85015 0.0
C511 C 0.85282 0.81225 0.89023 0.0
N512 N 0.9181 0.86265 0.83466 0.0
N513 N 0.79625 0.82312 0.90764 0.0
H514 H 0.86543 0.76634 0.9067 0.0
H515 H 0.82287 0.7694 0.9201 0.0
H516 H 0.77399 0.83378 0.90609 0.0
H517 H 0.79239 0.805 0.9232 0.0
H518 H 0.92213 0.88468 0.82107 0.0
H519 H 0.94225 0.85455 0.8347 0.0
H520 H 0.85936 0.8723 0.81202 0.0
H521 H 0.81972 0.87943 0.82642 0.0
C522 C 0.68876 0.46029 0.43123 0.0
C523 C 0.71164 0.47093 0.4535 0.0
C524 C 0.64327 0.44618 0.47501 0.0
C525 C 0.62037 0.4255 0.45345 0.0
N526 N 0.62427 0.40735 0.41114 0.0
N527 N 0.70941 0.47088 0.49762 0.0
C528 C 0.64367 0.43161 0.43138 0.0
C529 C 0.68878 0.46383 0.47576 0.0
N530 N 0.71038 0.47664 0.40987 0.0
N531 N 0.62168 0.44927 0.49469 0.0
H532 H 0.74248 0.48324 0.49937 0.0
H533 H 0.69291 0.46121 0.51412 0.0
H534 H 0.58862 0.43819 0.49433 0.0
H535 H 0.63732 0.46714 0.51016 0.0
H536 H 0.69463 0.47235 0.39326 0.0
H537 H 0.74353 0.49845 0.40933 0.0
H538 H 0.64153 0.4085 0.3956 0.0
H539 H 0.59244 0.3823 0.41061 0.0
C540 C 0.50711 0.20716 0.42894 0.0
C541 C 0.48984 0.2126 0.45083 0.0
C542 C 0.51926 0.17228 0.47182 0.0
C543 C 0.54793 0.18098 0.45188 0.0
N544 N 0.571 0.21259 0.41155 0.0
N545 N 0.467 0.18686 0.49165 0.0
C546 C 0.54179 0.199 0.43015 0.0
C547 C 0.49172 0.1906 0.4719 0.0
N548 N 0.49114 0.21098 0.40713 0.0
N549 N 0.51754 0.14559 0.49009 0.0
H550 H 0.44159 0.19324 0.49059 0.0
H551 H 0.47098 0.17672 0.50872 0.0
H552 H 0.53561 0.13004 0.48969 0.0
H553 H 0.49555 0.13558 0.50438 0.0
H554 H 0.50123 0.20479 0.39057 0.0
H555 H 0.46415 0.21493 0.40612 0.0
H556 H 0.56875 0.22892 0.3964 0.0
H557 H 0.60019 0.21299 0.41247 0.0
C558 C 0.80165 0.35408 0.4911 0.0
C559 C 0.82689 0.37453 0.47035 0.0
C560 C 0.80098 0.30429 0.45104 0.0
C561 C 0.7673 0.28597 0.46862 0.0
N562 N 0.73599 0.29352 0.5062 0.0
N563 N 0.86775 0.36753 0.43791 0.0
C564 C 0.76843 0.3104 0.48934 0.0
C565 C 0.83211 0.34903 0.4525 0.0
N566 N 0.8102 0.37635 0.51244 0.0
N567 N 0.80211 0.27916 0.43265 0.0
H568 H 0.89252 0.39922 0.44067 0.0
H569 H 0.87513 0.35086 0.42506 0.0
H570 H 0.78161 0.2458 0.43217 0.0
H571 H 0.8226 0.29113 0.4177 0.0
H572 H 0.79501 0.36225 0.52881 0.0
H573 H 0.83658 0.4075 0.51418 0.0
H574 H 0.73298 0.31194 0.51991 0.0
H575 H 0.71012 0.26209 0.50557 0.0
C576 C 0.77558 0.31618 0.17453 0.0
C577 C 0.78435 0.2971 0.1946 0.0
C578 C 0.82649 0.36792 0.21363 0.0
C579 C 0.80781 0.38433 0.19698 0.0
N580 N 0.76628 0.37498 0.16039 0.0
N581 N 0.83718 0.30811 0.22488 0.0
C582 C 0.78395 0.35923 0.1766 0.0
C583 C 0.81607 0.32413 0.21162 0.0
N584 N 0.76039 0.29335 0.15345 0.0
N585 N 0.85272 0.39381 0.23181 0.0
H586 H 0.83242 0.27728 0.22167 0.0
H587 H 0.86243 0.32638 0.2368 0.0
H588 H 0.86312 0.4267 0.23272 0.0
H589 H 0.86329 0.38271 0.24628 0.0
H590 H 0.75624 0.30644 0.13744 0.0
H591 H 0.75734 0.26296 0.15132 0.0
H592 H 0.74428 0.35608 0.14702 0.0
H593 H 0.77131 0.40624 0.16117 0.0
C594 C 0.66375 0.46607 0.18446 0.0
C595 C 0.68781 0.48903 0.20508 0.0
C596 C 0.61989 0.46592 0.22701 0.0
C597 C 0.59832 0.43287 0.2094 0.0
N598 N 0.60147 0.40066 0.171 0.0
N599 N 0.68849 0.52303 0.24285 0.0
C600 C 0.62027 0.43324 0.18767 0.0
C601 C 0.66557 0.4932 0.22535 0.0
N602 N 0.68208 0.47593 0.1619 0.0
N603 N 0.5965 0.47091 0.24509 0.0
H604 H 0.72092 0.54621 0.24035 0.0
H605 H 0.67579 0.52524 0.25946 0.0
H606 H 0.56294 0.45198 0.24607 0.0
H607 H 0.60947 0.49543 0.25799 0.0
H608 H 0.66475 0.46166 0.14605 0.0
H609 H 0.71247 0.50277 0.15888 0.0
H610 H 0.6185 0.39777 0.15641 0.0
H611 H 0.57046 0.37436 0.17268 0.0
C612 C 0.54686 0.22583 0.24439 0.0
C613 C 0.52331 0.2272 0.2238 0.0
C614 C 0.55241 0.18999 0.19955 0.0
C615 C 0.57471 0.18773 0.22043 0.0
N616 N 0.57708 0.18667 0.26424 0.0
N617 N 0.49174 0.19602 0.18491 0.0
C618 C 0.56594 0.19952 0.24339 0.0
C619 C 0.52203 0.20431 0.2024 0.0
N620 N 0.55513 0.25242 0.26397 0.0
N621 N 0.56183 0.18151 0.17684 0.0
H622 H 0.46786 0.2044 0.187 0.0
H623 H 0.48731 0.17649 0.16987 0.0
H624 H 0.58404 0.17148 0.17346 0.0
H625 H 0.54975 0.18774 0.16104 0.0
H626 H 0.5755 0.25447 0.27812 0.0
H627 H 0.54685 0.27637 0.26496 0.0
H628 H 0.56855 0.19202 0.2815 0.0
H629 H 0.59031 0.16644 0.26399 0.0
C630 C 0.30679 0.79215 0.81019 0.0
C631 C 0.28926 0.77577 0.7868 0.0
C632 C 0.36151 0.82031 0.76974 0.0
C633 C 0.37964 0.82484 0.79313 0.0
N634 N 0.36845 0.81565 0.83671 0.0
N635 N 0.3038 0.77161 0.74373 0.0
C636 C 0.35215 0.81187 0.81381 0.0
C637 C 0.31732 0.78989 0.76619 0.0
N638 N 0.2802 0.78914 0.82885 0.0
N639 N 0.38726 0.8434 0.75071 0.0
H640 H 0.27326 0.74595 0.73994 0.0
H641 H 0.32495 0.77866 0.72915 0.0
H642 H 0.41995 0.86588 0.75312 0.0
H643 H 0.37511 0.84358 0.73349 0.0
H644 H 0.29169 0.80354 0.84576 0.0
H645 H 0.24712 0.7767 0.82643 0.0
H646 H 0.34893 0.80133 0.85187 0.0
H647 H 0.40129 0.83124 0.84055 0.0
C648 C 0.1882 0.50698 0.76419 0.0
C649 C 0.2094 0.50479 0.78551 0.0
C650 C 0.19162 0.55352 0.8067 0.0
C651 C 0.17511 0.56036 0.78462 0.0
N652 N 0.14476 0.53376 0.74496 0.0
N653 N 0.20505 0.5035 0.82929 0.0
C654 C 0.16907 0.53369 0.76413 0.0
C655 C 0.20236 0.52052 0.8076 0.0
N656 N 0.18649 0.48344 0.74424 0.0
N657 N 0.20051 0.58031 0.82623 0.0
H658 H 0.20819 0.47609 0.83022 0.0
H659 H 0.19756 0.51239 0.84586 0.0
H660 H 0.19575 0.6067 0.82639 0.0
H661 H 0.21677 0.57869 0.84158 0.0
H662 H 0.17619 0.48688 0.72712 0.0
H663 H 0.19526 0.45969 0.74517 0.0
H664 H 0.13703 0.51365 0.72989 0.0
H665 H 0.12929 0.55194 0.74503 0.0
C666 C 0.41978 0.68239 0.81496 0.0
C667 C 0.46466 0.70625 0.80937 0.0
C668 C 0.46381 0.63875 0.80002 0.0
C669 C 0.41948 0.61545 0.80619 0.0
N670 N 0.35897 0.61376 0.82666 0.0
N671 N 0.5314 0.70684 0.80222 0.0
C672 C 0.39905 0.63689 0.81644 0.0
C673 C 0.48741 0.68422 0.80379 0.0
N674 N 0.39556 0.70223 0.81631 0.0
N675 N 0.48284 0.61758 0.78986 0.0
H676 H 0.54932 0.74002 0.80533 0.0
H677 H 0.55018 0.69231 0.80009 0.0
H678 H 0.4666 0.58408 0.78798 0.0
H679 H 0.51372 0.63324 0.78239 0.0
H680 H 0.36199 0.68528 0.8175 0.0
H681 H 0.4076 0.735 0.81344 0.0
H682 H 0.34457 0.62808 0.83653 0.0
H683 H 0.34197 0.58018 0.82745 0.0
C684 C 0.48082 0.70442 0.51946 0.0
C685 C 0.50202 0.72811 0.54076 0.0
C686 C 0.49749 0.66334 0.55876 0.0
C687 C 0.46957 0.63891 0.5395 0.0
N688 N 0.45891 0.63919 0.49624 0.0
N689 N 0.54179 0.73417 0.57722 0.0
C690 C 0.46922 0.66039 0.51799 0.0
C691 C 0.51456 0.70883 0.5592 0.0
N692 N 0.46859 0.72255 0.50154 0.0
N693 N 0.50698 0.64252 0.57641 0.0
H694 H 0.55544 0.76766 0.57716 0.0
H695 H 0.5525 0.72289 0.59149 0.0
H696 H 0.49755 0.6099 0.57481 0.0
H697 H 0.52501 0.65712 0.59193 0.0
H698 H 0.44818 0.70471 0.48731 0.0
H699 H 0.47638 0.75473 0.50158 0.0
H700 H 0.46082 0.65432 0.47972 0.0
H701 H 0.45487 0.60839 0.49442 0.0
C702 C 0.30288 0.74456 0.52021 0.0
C703 C 0.27846 0.756 0.53563 0.0
C704 C 0.34494 0.82075 0.54829 0.0
C705 C 0.36936 0.80406 0.53717 0.0
N706 N 0.37013 0.74531 0.51543 0.0
N707 N 0.27514 0.80534 0.564 0.0
C708 C 0.34818 0.76523 0.52338 0.0
C709 C 0.29918 0.7946 0.54936 0.0
N710 N 0.2828 0.71265 0.50325 0.0
N711 N 0.36562 0.86149 0.55774 0.0
H712 H 0.24145 0.78781 0.56407 0.0
H713 H 0.2885 0.83029 0.57667 0.0
H714 H 0.39907 0.88141 0.55674 0.0
H715 H 0.34956 0.87685 0.56444 0.0
H716 H 0.29962 0.70617 0.49 0.0
H717 H 0.24952 0.69573 0.50067 0.0
H718 H 0.35485 0.71438 0.50801 0.0
H719 H 0.40283 0.75696 0.51842 0.0
C720 C 0.242 0.53874 0.52013 0.0
C721 C 0.24565 0.51773 0.54121 0.0
C722 C 0.18256 0.5174 0.55904 0.0
C723 C 0.18324 0.54355 0.53944 0.0
N724 N 0.1943 0.55374 0.49615 0.0
N725 N 0.21156 0.47474 0.57677 0.0
C726 C 0.20655 0.54586 0.51818 0.0
C727 C 0.21311 0.50284 0.55942 0.0
N728 N 0.27365 0.55493 0.50281 0.0
N729 N 0.15276 0.5069 0.57713 0.0
H730 H 0.23283 0.46275 0.5768 0.0
H731 H 0.18766 0.46077 0.58999 0.0
H732 H 0.12717 0.51295 0.57546 0.0
H733 H 0.15289 0.49212 0.59339 0.0
H734 H 0.27425 0.57463 0.48867 0.0
H735 H 0.30119 0.55208 0.50357 0.0
H736 H 0.20886 0.55308 0.47985 0.0
H737 H 0.16559 0.55424 0.49392 0.0
C738 C 0.22214 0.16908 0.01143 0.0
C739 C 0.20721 0.19094 0.02652 0.0
C740 C 0.19036 0.22028 0.99054 0.0
C741 C 0.19697 0.19158 0.9759 0.0
N742 N 0.22259 0.14137 0.97112 0.0
N743 N 0.17958 0.23959 0.03128 0.0
C744 C 0.2148 0.16743 0.98592 0.0
C745 C 0.19312 0.2182 0.0163 0.0
N746 N 0.24279 0.14962 0.02175 0.0
N747 N 0.18064 0.24873 0.97971 0.0
H748 H 0.18253 0.23973 0.05016 0.0
H749 H 0.16401 0.25582 0.0252 0.0
H750 H 0.17825 0.25035 0.96085 0.0
H751 H 0.17854 0.27292 0.98903 0.0
H752 H 0.25726 0.13546 0.01187 0.0
H753 H 0.24855 0.15093 0.04045 0.0
H754 H 0.23088 0.11906 0.97742 0.0
H755 H 0.21939 0.14122 0.95223 0.0
C756 C 0.8124 0.02228 0.9819 0.0
C757 C 0.79851 0.98012 0.97303 0.0
C758 C 0.78346 0.95129 0.01449 0.0
C759 C 0.80084 0.99391 0.02341 0.0
N760 N 0.82019 0.06766 0.01671 0.0
N761 N 0.75984 0.90348 0.97939 0.0
C762 C 0.81107 0.02863 0.00737 0.0
C763 C 0.7801 0.94419 0.98893 0.0
N764 N 0.82949 0.05643 0.96615 0.0
N765 N 0.77252 0.91819 0.0305 0.0
H766 H 0.75695 0.89787 0.96065 0.0
H767 H 0.74288 0.87559 0.98973 0.0
H768 H 0.77294 0.92239 0.04932 0.0
H769 H 0.76442 0.88707 0.02534 0.0
H770 H 0.84497 0.08853 0.97165 0.0
H771 H 0.82977 0.05266 0.94735 0.0
H772 H 0.82483 0.09375 0.00612 0.0
H773 H 0.81937 0.07264 0.03538 0.0
C774 C 0.95155 0.77835 0.98837 0.0
C775 C 0.99199 0.79722 0.9763 0.0
C776 C 0.02945 0.80859 0.01521 0.0
C777 C 0.98951 0.79392 0.02732 0.0
N778 N 0.91208 0.75428 0.0266 0.0
N779 N 0.06743 0.81921 0.97682 0.0
C780 C 0.95026 0.77485 0.01418 0.0
C781 C 0.03031 0.80821 0.98931 0.0
N782 N 0.91483 0.76574 0.97507 0.0
N783 N 0.0666 0.82509 0.02857 0.0
H784 H 0.06866 0.81947 0.95785 0.0
H785 H 0.09602 0.8248 0.98498 0.0
H786 H 0.06642 0.82384 0.04755 0.0
H787 H 0.09745 0.84095 0.02111 0.0
H788 H 0.88468 0.75601 0.98263 0.0
H789 H 0.91488 0.76601 0.95607 0.0
H790 H 0.88198 0.73721 0.01832 0.0
H791 H 0.91088 0.75155 0.04553 0.0
C792 C 0.85134 0.52313 0.31942 0.0
C793 C 0.82006 0.48596 0.30656 0.0
C794 C 0.79212 0.44986 0.34536 0.0
C795 C 0.82777 0.48333 0.35801 0.0
N796 N 0.89843 0.54744 0.35449 0.0
N797 N 0.77323 0.40823 0.30864 0.0
C798 C 0.85968 0.51881 0.34435 0.0
C799 C 0.79441 0.44746 0.31989 0.0
N800 N 0.87166 0.56281 0.30868 0.0
N801 N 0.75488 0.42165 0.35711 0.0
H802 H 0.77803 0.40393 0.29037 0.0
H803 H 0.75602 0.37953 0.31839 0.0
H804 H 0.74873 0.4256 0.37519 0.0
H805 H 0.7278 0.39837 0.34777 0.0
H806 H 0.89196 0.59086 0.31833 0.0
H807 H 0.86444 0.56869 0.29126 0.0
H808 H 0.92349 0.57167 0.34438 0.0
H809 H 0.90758 0.54379 0.37192 0.0
C810 C 0.48512 0.37567 0.32388 0.0
C811 C 0.45927 0.33603 0.31166 0.0
C812 C 0.42894 0.29968 0.35045 0.0
C813 C 0.45789 0.33833 0.36272 0.0
N814 N 0.50385 0.41525 0.36211 0.0
N815 N 0.39847 0.26393 0.31187 0.0
C816 C 0.48259 0.37719 0.34965 0.0
C817 C 0.42804 0.2993 0.32453 0.0
N818 N 0.51341 0.41118 0.31081 0.0
N819 N 0.40463 0.26286 0.36358 0.0
H820 H 0.39771 0.26295 0.2929 0.0
H821 H 0.37271 0.23711 0.31993 0.0
H822 H 0.4037 0.26269 0.38255 0.0
H823 H 0.38662 0.23237 0.35588 0.0
H824 H 0.53686 0.43992 0.31859 0.0
H825 H 0.51408 0.41135 0.29182 0.0
H826 H 0.52027 0.44539 0.35385 0.0
H827 H 0.50192 0.41672 0.38102 0.0
C828 C 0.69649 0.21788 0.34817 0.0
C829 C 0.68615 0.17937 0.3608 0.0
C830 C 0.69376 0.14958 0.32203 0.0
C831 C 0.69402 0.18431 0.3092 0.0
N832 N 0.67888 0.24333 0.31213 0.0
N833 N 0.66674 0.10407 0.35764 0.0
C834 C 0.69062 0.21624 0.32279 0.0
C835 C 0.68257 0.14377 0.34724 0.0
N836 N 0.7127 0.25636 0.36009 0.0
N837 N 0.7056 0.1231 0.31076 0.0
H838 H 0.65567 0.09718 0.37548 0.0
H839 H 0.66023 0.07678 0.34756 0.0
H840 H 0.71737 0.12809 0.29302 0.0
H841 H 0.70891 0.09958 0.32013 0.0
H842 H 0.72249 0.28531 0.35089 0.0
H843 H 0.7218 0.26005 0.37837 0.0
H844 H 0.67413 0.26532 0.32222 0.0
H845 H 0.66747 0.23942 0.29433 0.0
C846 C 0.52767 0.86686 0.6609 0.0
C847 C 0.49692 0.8297 0.64775 0.0
C848 C 0.46403 0.79596 0.68629 0.0
C849 C 0.4993 0.82855 0.69961 0.0
N850 N 0.57183 0.89047 0.69714 0.0
N851 N 0.44859 0.75217 0.65072 0.0
C852 C 0.53345 0.86282 0.68629 0.0
C853 C 0.46908 0.79206 0.66124 0.0
N854 N 0.54999 0.90628 0.64998 0.0
N855 N 0.42483 0.76998 0.69686 0.0
H856 H 0.45593 0.74639 0.63326 0.0
H857 H 0.42942 0.72428 0.66081 0.0
H858 H 0.41688 0.7757 0.71418 0.0
H859 H 0.39843 0.74716 0.68685 0.0
H860 H 0.57008 0.93426 0.65974 0.0
H861 H 0.54454 0.91226 0.6322 0.0
H862 H 0.59821 0.91368 0.68731 0.0
H863 H 0.57934 0.88684 0.71494 0.0
C864 C 0.15344 0.69717 0.64875 0.0
C865 C 0.13739 0.65579 0.63822 0.0
C866 C 0.11826 0.62196 0.67845 0.0
C867 C 0.13752 0.66359 0.68908 0.0
N868 N 0.16262 0.73931 0.6853 0.0
N869 N 0.09448 0.57871 0.64153 0.0
C870 C 0.1513 0.70075 0.67444 0.0
C871 C 0.11614 0.61806 0.65265 0.0
N872 N 0.17271 0.73296 0.63424 0.0
N873 N 0.10447 0.58655 0.69306 0.0
H874 H 0.09269 0.5754 0.62262 0.0
H875 H 0.07545 0.54987 0.65074 0.0
H876 H 0.10407 0.58836 0.712 0.0
H877 H 0.0949 0.55572 0.68662 0.0
H878 H 0.18954 0.76439 0.64083 0.0
H879 H 0.17306 0.73104 0.6153 0.0
H880 H 0.17008 0.76734 0.67581 0.0
H881 H 0.16102 0.74228 0.70412 0.0
C882 C 0.39557 0.52024 0.65747 0.0
C883 C 0.35846 0.49601 0.64288 0.0
C884 C 0.3157 0.4607 0.67931 0.0
C885 C 0.35053 0.49083 0.69383 0.0
N886 N 0.42457 0.54715 0.69774 0.0
N887 N 0.28348 0.44185 0.63902 0.0
C888 C 0.39105 0.51951 0.68319 0.0
C889 C 0.31879 0.465 0.65351 0.0
N890 N 0.43495 0.54386 0.64654 0.0
N891 N 0.27951 0.42874 0.69028 0.0
H892 H 0.28503 0.44347 0.62007 0.0
H893 H 0.25232 0.42249 0.64563 0.0
H894 H 0.27632 0.42545 0.70914 0.0
H895 H 0.25425 0.40351 0.68089 0.0
H896 H 0.46401 0.55982 0.65598 0.0
H897 H 0.43884 0.54442 0.62768 0.0
H898 H 0.45346 0.57248 0.6912 0.0
H899 H 0.4228 0.54548 0.7167 0.0
loop_
_geom_bond_atom_site_label_1
_geom_bond_atom_site_label_2
_geom_bond_distance
_geom_bond_site_symmetry_2
_ccdc_geom_bond_type
O0 Cd1 2.223 . S
O0 C8 1.315 . S
Cd1 O0 2.223 . S
Cd1 O4 2.297 . S
Cd1 O5 2.439 . S
Cd1 O11 2.240 . S
Cd2 O3 2.240 . S
Cd2 O10 2.223 . S
Cd2 O12 2.297 . S
Cd2 O13 2.439 . S
O3 Cd2 2.240 . S
O3 C8 1.279 . S
O4 Cd1 2.297 . S
O4 C6 1.247 . S
O5 Cd1 2.439 . S
O5 C6 1.208 . S
C6 O4 1.247 . S
C6 O5 1.208 . S
C7 O12 1.247 . S
C7 O13 1.208 . S
C8 O0 1.315 . S
C8 O3 1.279 . S
C9 O10 1.315 . S
C9 O11 1.279 . S
O10 Cd2 2.223 . S
O10 C9 1.315 . S
O11 Cd1 2.240 . S
O11 C9 1.279 . S
O12 Cd2 2.297 . S
O12 C7 1.247 . S
O13 Cd2 2.439 . S
O13 C7 1.208 . S
O14 Cd15 2.223 1_545 S
O14 C22 1.315 . S
Cd15 O14 2.223 1_565 S
Cd15 O18 2.297 1_565 S
Cd15 O19 2.439 1_565 S
Cd15 O25 2.240 . S
Cd16 O17 2.240 . S
Cd16 O24 2.223 1_545 S
Cd16 O26 2.297 1_545 S
Cd16 O27 2.439 1_545 S
O17 Cd16 2.240 . S
O17 C22 1.279 . S
O18 Cd15 2.297 1_545 S
O18 C20 1.247 . S
O19 Cd15 2.439 1_545 S
O19 C20 1.208 . S
C20 O18 1.247 . S
C20 O19 1.208 . S
C21 O26 1.247 . S
C21 O27 1.208 . S
C22 O14 1.315 . S
C22 O17 1.279 . S
C23 O24 1.315 . S
C23 O25 1.279 . S
O24 Cd16 2.223 1_565 S
O24 C23 1.315 . S
O25 Cd15 2.240 . S
O25 C23 1.279 . S
O26 Cd16 2.297 1_565 S
O26 C21 1.247 . S
O27 Cd16 2.439 1_565 S
O27 C21 1.208 . S
O28 Cd29 2.223 1_655 S
O28 C36 1.315 . S
Cd29 O28 2.223 1_455 S
Cd29 O32 2.297 1_455 S
Cd29 O33 2.439 1_455 S
Cd29 O39 2.240 . S
Cd30 O31 2.240 . S
Cd30 O38 2.223 1_655 S
Cd30 O40 2.297 1_655 S
Cd30 O41 2.439 1_655 S
O31 Cd30 2.240 . S
O31 C36 1.279 . S
O32 Cd29 2.297 1_655 S
O32 C34 1.247 . S
O33 Cd29 2.439 1_655 S
O33 C34 1.208 . S
C34 O32 1.247 . S
C34 O33 1.208 . S
C35 O40 1.247 . S
C35 O41 1.208 . S
C36 O28 1.315 . S
C36 O31 1.279 . S
C37 O38 1.315 . S
C37 O39 1.279 . S
O38 Cd30 2.223 1_455 S
O38 C37 1.315 . S
O39 Cd29 2.240 . S
O39 C37 1.279 . S
O40 Cd30 2.297 1_455 S
O40 C35 1.247 . S
O41 Cd30 2.439 1_455 S
O41 C35 1.208 . S
O42 Cd43 2.223 . S
O42 C50 1.315 . S
Cd43 O42 2.223 . S
Cd43 O46 2.297 . S
Cd43 O47 2.439 . S
Cd43 O53 2.240 . S
Cd44 O45 2.240 . S
Cd44 O52 2.223 . S
Cd44 O54 2.297 . S
Cd44 O55 2.439 . S
O45 Cd44 2.240 . S
O45 C50 1.279 . S
O46 Cd43 2.297 . S
O46 C48 1.247 . S
O47 Cd43 2.439 . S
O47 C48 1.208 . S
C48 O46 1.247 . S
C48 O47 1.208 . S
C49 O54 1.247 . S
C49 O55 1.208 . S
C50 O42 1.315 . S
C50 O45 1.279 . S
C51 O52 1.315 . S
C51 O53 1.279 . S
O52 Cd44 2.223 . S
O52 C51 1.315 . S
O53 Cd43 2.240 . S
O53 C51 1.279 . S
O54 Cd44 2.297 . S
O54 C49 1.247 . S
O55 Cd44 2.439 . S
O55 C49 1.208 . S
O56 Cd57 2.223 1_565 S
O56 C64 1.315 . S
Cd57 O56 2.223 1_545 S
Cd57 O60 2.297 1_545 S
Cd57 O61 2.439 1_545 S
Cd57 O67 2.240 . S
Cd58 O59 2.240 . S
Cd58 O66 2.223 1_565 S
Cd58 O68 2.297 1_565 S
Cd58 O69 2.439 1_565 S
O59 Cd58 2.240 . S
O59 C64 1.279 . S
O60 Cd57 2.297 1_565 S
O60 C62 1.247 . S
O61 Cd57 2.439 1_565 S
O61 C62 1.208 . S
C62 O60 1.247 . S
C62 O61 1.208 . S
C63 O68 1.247 . S
C63 O69 1.208 . S
C64 O56 1.315 . S
C64 O59 1.279 . S
C65 O66 1.315 . S
C65 O67 1.279 . S
O66 Cd58 2.223 1_545 S
O66 C65 1.315 . S
O67 Cd57 2.240 . S
O67 C65 1.279 . S
O68 Cd58 2.297 1_545 S
O68 C63 1.247 . S
O69 Cd58 2.439 1_545 S
O69 C63 1.208 . S
O70 Cd71 2.223 1_455 S
O70 C78 1.315 . S
Cd71 O70 2.223 1_655 S
Cd71 O74 2.297 1_655 S
Cd71 O75 2.439 1_655 S
Cd71 O81 2.240 . S
Cd72 O73 2.240 . S
Cd72 O80 2.223 1_455 S
Cd72 O82 2.297 1_455 S
Cd72 O83 2.439 1_455 S
O73 Cd72 2.240 . S
O73 C78 1.279 . S
O74 Cd71 2.297 1_455 S
O74 C76 1.247 . S
O75 Cd71 2.439 1_455 S
O75 C76 1.208 . S
C76 O74 1.247 . S
C76 O75 1.208 . S
C77 O82 1.247 . S
C77 O83 1.208 . S
C78 O70 1.315 . S
C78 O73 1.279 . S
C79 O80 1.315 . S
C79 O81 1.279 . S
O80 Cd72 2.223 1_655 S
O80 C79 1.315 . S
O81 Cd71 2.240 . S
O81 C79 1.279 . S
O82 Cd72 2.297 1_655 S
O82 C77 1.247 . S
O83 Cd72 2.439 1_655 S
O83 C77 1.208 . S
O84 Cd85 2.223 . S
O84 C92 1.315 . S
Cd85 O84 2.223 . S
Cd85 O88 2.297 . S
Cd85 O89 2.439 . S
Cd85 O95 2.240 . S
Cd86 O87 2.240 . S
Cd86 O94 2.223 . S
Cd86 O96 2.297 . S
Cd86 O97 2.439 . S
O87 Cd86 2.240 . S
O87 C92 1.279 . S
O88 Cd85 2.297 . S
O88 C90 1.247 . S
O89 Cd85 2.439 . S
O89 C90 1.208 . S
C90 O88 1.247 . S
C90 O89 1.208 . S
C91 O96 1.247 . S
C91 O97 1.208 . S
C92 O84 1.315 . S
C92 O87 1.279 . S
C93 O94 1.315 . S
C93 O95 1.279 . S
O94 Cd86 2.223 . S
O94 C93 1.315 . S
O95 Cd85 2.240 . S
O95 C93 1.279 . S
O96 Cd86 2.297 . S
O96 C91 1.247 . S
O97 Cd86 2.439 . S
O97 C91 1.208 . S
O98 Cd99 2.223 . S
O98 C106 1.315 . S
Cd99 O98 2.223 . S
Cd99 O102 2.297 . S
Cd99 O103 2.439 . S
Cd99 O109 2.240 . S
Cd100 O101 2.240 . S
Cd100 O108 2.223 . S
Cd100 O110 2.297 . S
Cd100 O111 2.439 . S
O101 Cd100 2.240 . S
O101 C106 1.279 . S
O102 Cd99 2.297 . S
O102 C104 1.247 . S
O103 Cd99 2.439 . S
O103 C104 1.208 . S
C104 O102 1.247 . S
C104 O103 1.208 . S
C105 O110 1.247 . S
C105 O111 1.208 . S
C106 O98 1.315 . S
C106 O101 1.279 . S
C107 O108 1.315 . S
C107 O109 1.279 . S
O108 Cd100 2.223 . S
O108 C107 1.315 . S
O109 Cd99 2.240 . S
O109 C107 1.279 . S
O110 Cd100 2.297 . S
O110 C105 1.247 . S
O111 Cd100 2.439 . S
O111 C105 1.208 . S
O112 Cd113 2.223 . S
O112 C120 1.315 . S
Cd113 O112 2.223 . S
Cd113 O116 2.297 . S
Cd113 O117 2.439 . S
Cd113 O123 2.240 . S
Cd114 O115 2.240 . S
Cd114 O122 2.223 . S
Cd114 O124 2.297 . S
Cd114 O125 2.439 . S
O115 Cd114 2.240 . S
O115 C120 1.279 . S
O116 Cd113 2.297 . S
O116 C118 1.247 . S
O117 Cd113 2.439 . S
O117 C118 1.208 . S
C118 O116 1.247 . S
C118 O117 1.208 . S
C119 O124 1.247 . S
C119 O125 1.208 . S
C120 O112 1.315 . S
C120 O115 1.279 . S
C121 O122 1.315 . S
C121 O123 1.279 . S
O122 Cd114 2.223 . S
O122 C121 1.315 . S
O123 Cd113 2.240 . S
O123 C121 1.279 . S
O124 Cd114 2.297 . S
O124 C119 1.247 . S
O125 Cd114 2.439 . S
O125 C119 1.208 . S
O126 Cd127 2.223 . S
O126 C134 1.315 . S
Cd127 O126 2.223 . S
Cd127 O130 2.297 . S
Cd127 O131 2.439 . S
Cd127 O137 2.240 . S
Cd128 O129 2.240 . S
Cd128 O136 2.223 . S
Cd128 O138 2.297 . S
Cd128 O139 2.439 . S
O129 Cd128 2.240 . S
O129 C134 1.279 . S
O130 Cd127 2.297 . S
O130 C132 1.247 . S
O131 Cd127 2.439 . S
O131 C132 1.208 . S
C132 O130 1.247 . S
C132 O131 1.208 . S
C133 O138 1.247 . S
C133 O139 1.208 . S
C134 O126 1.315 . S
C134 O129 1.279 . S
C135 O136 1.315 . S
C135 O137 1.279 . S
O136 Cd128 2.223 . S
O136 C135 1.315 . S
O137 Cd127 2.240 . S
O137 C135 1.279 . S
O138 Cd128 2.297 . S
O138 C133 1.247 . S
O139 Cd128 2.439 . S
O139 C133 1.208 . S
O140 Cd141 2.223 . S
O140 C148 1.315 . S
Cd141 O140 2.223 . S
Cd141 O144 2.297 . S
Cd141 O145 2.439 . S
Cd141 O151 2.240 . S
Cd142 O143 2.240 . S
Cd142 O150 2.223 . S
Cd142 O152 2.297 . S
Cd142 O153 2.439 . S
O143 Cd142 2.240 . S
O143 C148 1.279 . S
O144 Cd141 2.297 . S
O144 C146 1.247 . S
O145 Cd141 2.439 . S
O145 C146 1.208 . S
C146 O144 1.247 . S
C146 O145 1.208 . S
C147 O152 1.247 . S
C147 O153 1.208 . S
C148 O140 1.315 . S
C148 O143 1.279 . S
C149 O150 1.315 . S
C149 O151 1.279 . S
O150 Cd142 2.223 . S
O150 C149 1.315 . S
O151 Cd141 2.240 . S
O151 C149 1.279 . S
O152 Cd142 2.297 . S
O152 C147 1.247 . S
O153 Cd142 2.439 . S
O153 C147 1.208 . S
O154 Cd155 2.223 . S
O154 C162 1.315 . S
Cd155 O154 2.223 . S
Cd155 O158 2.297 . S
Cd155 O159 2.439 . S
Cd155 O165 2.240 . S
Cd156 O157 2.240 . S
Cd156 O164 2.223 . S
Cd156 O166 2.297 . S
Cd156 O167 2.439 . S
O157 Cd156 2.240 . S
O157 C162 1.279 . S
O158 Cd155 2.297 . S
O158 C160 1.247 . S
O159 Cd155 2.439 . S
O159 C160 1.208 . S
C160 O158 1.247 . S
C160 O159 1.208 . S
C161 O166 1.247 . S
C161 O167 1.208 . S
C162 O154 1.315 . S
C162 O157 1.279 . S
C163 O164 1.315 . S
C163 O165 1.279 . S
O164 Cd156 2.223 . S
O164 C163 1.315 . S
O165 Cd155 2.240 . S
O165 C163 1.279 . S
O166 Cd156 2.297 . S
O166 C161 1.247 . S
O167 Cd156 2.439 . S
O167 C161 1.208 . S
O168 Cd169 2.223 . S
O168 C176 1.315 . S
Cd169 O168 2.223 . S
Cd169 O172 2.297 . S
Cd169 O173 2.439 . S
Cd169 O179 2.240 . S
Cd170 O171 2.240 . S
Cd170 O178 2.223 . S
Cd170 O180 2.297 . S
Cd170 O181 2.439 . S
O171 Cd170 2.240 . S
O171 C176 1.279 . S
O172 Cd169 2.297 . S
O172 C174 1.247 . S
O173 Cd169 2.439 . S
O173 C174 1.208 . S
C174 O172 1.247 . S
C174 O173 1.208 . S
C175 O180 1.247 . S
C175 O181 1.208 . S
C176 O168 1.315 . S
C176 O171 1.279 . S
C177 O178 1.315 . S
C177 O179 1.279 . S
O178 Cd170 2.223 . S
O178 C177 1.315 . S
O179 Cd169 2.240 . S
O179 C177 1.279 . S
O180 Cd170 2.297 . S
O180 C175 1.247 . S
O181 Cd170 2.439 . S
O181 C175 1.208 . S
O182 Cd183 2.223 . S
O182 C190 1.315 . S
Cd183 O182 2.223 . S
Cd183 O186 2.297 . S
Cd183 O187 2.439 . S
Cd183 O193 2.240 . S
Cd184 O185 2.240 . S
Cd184 O192 2.223 . S
Cd184 O194 2.297 . S
Cd184 O195 2.439 . S
O185 Cd184 2.240 . S
O185 C190 1.279 . S
O186 Cd183 2.297 . S
O186 C188 1.247 . S
O187 Cd183 2.439 . S
O187 C188 1.208 . S
C188 O186 1.247 . S
C188 O187 1.208 . S
C189 O194 1.247 . S
C189 O195 1.208 . S
C190 O182 1.315 . S
C190 O185 1.279 . S
C191 O192 1.315 . S
C191 O193 1.279 . S
O192 Cd184 2.223 . S
O192 C191 1.315 . S
O193 Cd183 2.240 . S
O193 C191 1.279 . S
O194 Cd184 2.297 . S
O194 C189 1.247 . S
O195 Cd184 2.439 . S
O195 C189 1.208 . S
O196 Cd197 2.223 . S
O196 C204 1.315 . S
Cd197 O196 2.223 . S
Cd197 O200 2.297 . S
Cd197 O201 2.439 . S
Cd197 O207 2.240 . S
Cd198 O199 2.240 . S
Cd198 O206 2.223 . S
Cd198 O208 2.297 . S
Cd198 O209 2.439 . S
O199 Cd198 2.240 . S
O199 C204 1.279 . S
O200 Cd197 2.297 . S
O200 C202 1.247 . S
O201 Cd197 2.439 . S
O201 C202 1.208 . S
C202 O200 1.247 . S
C202 O201 1.208 . S
C203 O208 1.247 . S
C203 O209 1.208 . S
C204 O196 1.315 . S
C204 O199 1.279 . S
C205 O206 1.315 . S
C205 O207 1.279 . S
O206 Cd198 2.223 . S
O206 C205 1.315 . S
O207 Cd197 2.240 . S
O207 C205 1.279 . S
O208 Cd198 2.297 . S
O208 C203 1.247 . S
O209 Cd198 2.439 . S
O209 C203 1.208 . S
O210 Cd211 2.223 . S
O210 C218 1.315 . S
Cd211 O210 2.223 . S
Cd211 O214 2.297 . S
Cd211 O215 2.439 . S
Cd211 O221 2.240 . S
Cd212 O213 2.240 . S
Cd212 O220 2.223 . S
Cd212 O222 2.297 . S
Cd212 O223 2.439 . S
O213 Cd212 2.240 . S
O213 C218 1.279 . S
O214 Cd211 2.297 . S
O214 C216 1.247 . S
O215 Cd211 2.439 . S
O215 C216 1.208 . S
C216 O214 1.247 . S
C216 O215 1.208 . S
C217 O222 1.247 . S
C217 O223 1.208 . S
C218 O210 1.315 . S
C218 O213 1.279 . S
C219 O220 1.315 . S
C219 O221 1.279 . S
O220 Cd212 2.223 . S
O220 C219 1.315 . S
O221 Cd211 2.240 . S
O221 C219 1.279 . S
O222 Cd212 2.297 . S
O222 C217 1.247 . S
O223 Cd212 2.439 . S
O223 C217 1.208 . S
O224 Cd225 2.223 . S
O224 C232 1.315 . S
Cd225 O224 2.223 . S
Cd225 O228 2.297 . S
Cd225 O229 2.439 . S
Cd225 O235 2.240 . S
Cd226 O227 2.240 . S
Cd226 O234 2.223 . S
Cd226 O236 2.297 . S
Cd226 O237 2.439 . S
O227 Cd226 2.240 . S
O227 C232 1.279 . S
O228 Cd225 2.297 . S
O228 C230 1.247 . S
O229 Cd225 2.439 . S
O229 C230 1.208 . S
C230 O228 1.247 . S
C230 O229 1.208 . S
C231 O236 1.247 . S
C231 O237 1.208 . S
C232 O224 1.315 . S
C232 O227 1.279 . S
C233 O234 1.315 . S
C233 O235 1.279 . S
O234 Cd226 2.223 . S
O234 C233 1.315 . S
O235 Cd225 2.240 . S
O235 C233 1.279 . S
O236 Cd226 2.297 . S
O236 C231 1.247 . S
O237 Cd226 2.439 . S
O237 C231 1.208 . S
O238 Cd239 2.223 . S
O238 C246 1.315 . S
Cd239 O238 2.223 . S
Cd239 O242 2.297 . S
Cd239 O243 2.439 . S
Cd239 O249 2.240 . S
Cd240 O241 2.240 . S
Cd240 O248 2.223 . S
Cd240 O250 2.297 . S
Cd240 O251 2.439 . S
O241 Cd240 2.240 . S
O241 C246 1.279 . S
O242 Cd239 2.297 . S
O242 C244 1.247 . S
O243 Cd239 2.439 . S
O243 C244 1.208 . S
C244 O242 1.247 . S
C244 O243 1.208 . S
C245 O250 1.247 . S
C245 O251 1.208 . S
C246 O238 1.315 . S
C246 O241 1.279 . S
C247 O248 1.315 . S
C247 O249 1.279 . S
O248 Cd240 2.223 . S
O248 C247 1.315 . S
O249 Cd239 2.240 . S
O249 C247 1.279 . S
O250 Cd240 2.297 . S
O250 C245 1.247 . S
O251 Cd240 2.439 . S
O251 C245 1.208 . S
C252 C253 1.363 . S
C252 C258 1.379 . S
C252 N260 1.356 . S
C253 C252 1.363 . S
C253 C259 1.363 . S
C254 C255 1.363 . S
C254 C259 1.379 . S
C254 N261 1.356 . S
C255 C254 1.363 . S
C255 C258 1.363 . S
N256 C258 1.356 . S
N256 H268 0.984 . S
N256 H269 0.985 . S
N257 C259 1.356 . S
N257 H262 0.984 . S
N257 H263 0.985 . S
C258 C252 1.379 . S
C258 C255 1.363 . S
C258 N256 1.356 . S
C259 C253 1.363 . S
C259 C254 1.379 . S
C259 N257 1.356 . S
N260 C252 1.356 . S
N260 H266 0.984 . S
N260 H267 0.984 . S
N261 C254 1.356 . S
N261 H264 0.984 . S
N261 H265 0.985 . S
H262 N257 0.984 . S
H263 N257 0.985 . S
H264 N261 0.984 . S
H265 N261 0.985 . S
H266 N260 0.984 . S
H267 N260 0.984 . S
H268 N256 0.984 . S
H269 N256 0.985 . S
C270 C271 1.363 . S
C270 C276 1.379 . S
C270 N278 1.356 . S
C271 C270 1.363 . S
C271 C277 1.363 . S
C272 C273 1.363 . S
C272 C277 1.379 . S
C272 N279 1.356 . S
C273 C272 1.363 . S
C273 C276 1.363 . S
N274 C276 1.356 . S
N274 H286 0.984 . S
N274 H287 0.985 . S
N275 C277 1.356 . S
N275 H280 0.984 . S
N275 H281 0.985 1_545 S
C276 C270 1.379 . S
C276 C273 1.363 . S
C276 N274 1.356 . S
C277 C271 1.363 . S
C277 C272 1.379 . S
C277 N275 1.356 . S
N278 C270 1.356 . S
N278 H284 0.984 . S
N278 H285 0.984 . S
N279 C272 1.356 . S
N279 H282 0.984 . S
N279 H283 0.985 . S
H280 N275 0.984 . S
H281 N275 0.985 1_565 S
H282 N279 0.984 . S
H283 N279 0.985 . S
H284 N278 0.984 . S
H285 N278 0.984 . S
H286 N274 0.984 . S
H287 N274 0.985 . S
C288 C289 1.363 . S
C288 C294 1.379 . S
C288 N296 1.356 . S
C289 C288 1.363 . S
C289 C295 1.363 . S
C290 C291 1.363 . S
C290 C295 1.379 . S
C290 N297 1.356 . S
C291 C290 1.363 . S
C291 C294 1.363 . S
N292 C294 1.356 . S
N292 H304 0.984 . S
N292 H305 0.985 . S
N293 C295 1.356 . S
N293 H298 0.984 . S
N293 H299 0.985 . S
C294 C288 1.379 . S
C294 C291 1.363 . S
C294 N292 1.356 . S
C295 C289 1.363 . S
C295 C290 1.379 . S
C295 N293 1.356 . S
N296 C288 1.356 . S
N296 H302 0.984 . S
N296 H303 0.984 . S
N297 C290 1.356 . S
N297 H300 0.984 . S
N297 H301 0.985 . S
H298 N293 0.984 . S
H299 N293 0.985 . S
H300 N297 0.984 . S
H301 N297 0.985 . S
H302 N296 0.984 . S
H303 N296 0.984 . S
H304 N292 0.984 . S
H305 N292 0.985 . S
C306 C307 1.363 . S
C306 C312 1.379 . S
C306 N314 1.356 . S
C307 C306 1.363 . S
C307 C313 1.363 . S
C308 C309 1.363 . S
C308 C313 1.379 . S
C308 N315 1.356 . S
C309 C308 1.363 . S
C309 C312 1.363 . S
N310 C312 1.356 . S
N310 H322 0.984 . S
N310 H323 0.985 . S
N311 C313 1.356 . S
N311 H316 0.984 . S
N311 H317 0.985 . S
C312 C306 1.379 . S
C312 C309 1.363 . S
C312 N310 1.356 . S
C313 C307 1.363 . S
C313 C308 1.379 . S
C313 N311 1.356 . S
N314 C306 1.356 . S
N314 H320 0.984 . S
N314 H321 0.984 . S
N315 C308 1.356 . S
N315 H318 0.984 . S
N315 H319 0.985 . S
H316 N311 0.984 . S
H317 N311 0.985 . S
H318 N315 0.984 . S
H319 N315 0.985 . S
H320 N314 0.984 . S
H321 N314 0.984 . S
H322 N310 0.984 . S
H323 N310 0.985 . S
C324 C325 1.363 . S
C324 C330 1.379 . S
C324 N332 1.356 . S
C325 C324 1.363 . S
C325 C331 1.363 . S
C326 C327 1.363 . S
C326 C331 1.379 . S
C326 N333 1.356 . S
C327 C326 1.363 . S
C327 C330 1.363 . S
N328 C330 1.356 . S
N328 H340 0.984 . S
N328 H341 0.985 . S
N329 C331 1.364 . S
N329 H334 0.988 1_565 S
N329 H335 0.974 1_565 S
C330 C324 1.379 . S
C330 C327 1.363 . S
C330 N328 1.356 . S
C331 C325 1.363 . S
C331 C326 1.379 . S
C331 N329 1.364 . S
N332 C324 1.356 . S
N332 H338 0.984 . S
N332 H339 0.984 . S
N333 C326 1.356 . S
N333 H336 0.984 . S
N333 H337 0.985 . S
H334 N329 0.988 1_545 S
H335 N329 0.974 1_545 S
H336 N333 0.984 . S
H337 N333 0.985 . S
H338 N332 0.984 . S
H339 N332 0.984 . S
H340 N328 0.984 . S
H341 N328 0.985 . S
C342 C343 1.363 . S
C342 C348 1.379 . S
C342 N350 1.356 . S
C343 C342 1.363 . S
C343 C349 1.363 . S
C344 C345 1.363 . S
C344 C349 1.379 . S
C344 N351 1.356 . S
C345 C344 1.363 . S
C345 C348 1.363 . S
N346 C348 1.356 . S
N346 H358 0.984 . S
N346 H359 0.985 . S
N347 C349 1.356 . S
N347 H352 0.984 . S
N347 H353 0.985 . S
C348 C342 1.379 . S
C348 C345 1.363 . S
C348 N346 1.356 . S
C349 C343 1.363 . S
C349 C344 1.379 . S
C349 N347 1.356 . S
N350 C342 1.356 . S
N350 H356 0.984 . S
N350 H357 0.984 . S
N351 C344 1.356 . S
N351 H354 0.984 . S
N351 H355 0.985 . S
H352 N347 0.984 . S
H353 N347 0.985 . S
H354 N351 0.984 . S
H355 N351 0.985 . S
H356 N350 0.984 . S
H357 N350 0.984 . S
H358 N346 0.984 . S
H359 N346 0.985 . S
C360 C361 1.363 . S
C360 C366 1.379 1_655 S
C360 N368 1.356 . S
C361 C360 1.363 . S
C361 C367 1.363 . S
C362 C363 1.363 . S
C362 C367 1.379 1_455 S
C362 N369 1.356 . S
C363 C362 1.363 . S
C363 C366 1.363 . S
N364 C366 1.356 . S
N364 H376 0.984 . S
N364 H377 0.985 . S
N365 C367 1.356 . S
N365 H370 0.984 . S
N365 H371 0.985 . S
C366 C360 1.379 1_455 S
C366 C363 1.363 . S
C366 N364 1.356 . S
C367 C361 1.363 . S
C367 C362 1.379 1_655 S
C367 N365 1.356 . S
N368 C360 1.356 . S
N368 H374 0.984 . S
N368 H375 0.984 . S
N369 C362 1.356 . S
N369 H372 0.984 . S
N369 H373 0.985 . S
H370 N365 0.984 . S
H371 N365 0.985 . S
H372 N369 0.984 . S
H373 N369 0.985 . S
H374 N368 0.984 . S
H375 N368 0.984 . S
H376 N364 0.984 . S
H377 N364 0.985 . S
C378 C379 1.363 . S
C378 C384 1.379 . S
C378 N386 1.356 . S
C379 C378 1.363 . S
C379 C385 1.363 . S
C380 C381 1.363 . S
C380 C385 1.379 . S
C380 N387 1.356 . S
C381 C380 1.363 . S
C381 C384 1.363 . S
N382 C384 1.356 . S
N382 H394 0.984 . S
N382 H395 0.985 . S
N383 C385 1.356 . S
N383 H388 0.984 . S
N383 H389 0.985 . S
C384 C378 1.379 . S
C384 C381 1.363 . S
C384 N382 1.356 . S
C385 C379 1.363 . S
C385 C380 1.379 . S
C385 N383 1.356 . S
N386 C378 1.356 . S
N386 H392 0.984 . S
N386 H393 0.984 . S
N387 C380 1.356 . S
N387 H390 0.984 . S
N387 H391 0.985 . S
H388 N383 0.984 . S
H389 N383 0.985 . S
H390 N387 0.984 . S
H391 N387 0.985 . S
H392 N386 0.984 . S
H393 N386 0.984 . S
H394 N382 0.984 . S
H395 N382 0.985 . S
C396 C397 1.363 . S
C396 C402 1.379 1_545 S
C396 N404 1.356 . S
C397 C396 1.363 . S
C397 C403 1.363 . S
C398 C399 1.363 . S
C398 C403 1.379 1_565 S
C398 N405 1.356 . S
C399 C398 1.363 . S
C399 C402 1.363 . S
N400 C402 1.356 . S
N400 H412 0.984 . S
N400 H413 0.985 . S
N401 C403 1.356 . S
N401 H406 0.984 . S
N401 H407 0.985 . S
C402 C396 1.379 1_565 S
C402 C399 1.363 . S
C402 N400 1.356 . S
C403 C397 1.363 . S
C403 C398 1.379 1_545 S
C403 N401 1.356 . S
N404 C396 1.356 . S
N404 H410 0.984 . S
N404 H411 0.984 . S
N405 C398 1.356 . S
N405 H408 0.984 . S
N405 H409 0.985 . S
H406 N401 0.984 . S
H407 N401 0.985 . S
H408 N405 0.984 . S
H409 N405 0.985 . S
H410 N404 0.984 . S
H411 N404 0.984 . S
H412 N400 0.984 . S
H413 N400 0.985 . S
C414 C415 1.363 . S
C414 C420 1.379 1_455 S
C414 N422 1.356 . S
C415 C414 1.363 . S
C415 C421 1.363 . S
C416 C417 1.363 . S
C416 C421 1.379 1_655 S
C416 N423 1.356 . S
C417 C416 1.363 . S
C417 C420 1.363 . S
N418 C420 1.356 . S
N418 H430 0.984 . S
N418 H431 0.985 . S
N419 C421 1.356 . S
N419 H424 0.984 . S
N419 H425 0.985 . S
C420 C414 1.379 1_655 S
C420 C417 1.363 . S
C420 N418 1.356 . S
C421 C415 1.363 . S
C421 C416 1.379 1_455 S
C421 N419 1.356 . S
N422 C414 1.356 . S
N422 H428 0.984 . S
N422 H429 0.984 . S
N423 C416 1.356 . S
N423 H426 0.984 . S
N423 H427 0.985 . S
H424 N419 0.984 . S
H425 N419 0.985 . S
H426 N423 0.984 . S
H427 N423 0.985 . S
H428 N422 0.984 . S
H429 N422 0.984 . S
H430 N418 0.984 . S
H431 N418 0.985 . S
C432 C433 1.363 . S
C432 C438 1.379 . S
C432 N440 1.356 . S
C433 C432 1.363 . S
C433 C439 1.363 . S
C434 C435 1.363 . S
C434 C439 1.379 . S
C434 N441 1.356 . S
C435 C434 1.363 . S
C435 C438 1.363 . S
N436 C438 1.356 . S
N436 H448 0.984 . S
N436 H449 0.985 . S
N437 C439 1.356 . S
N437 H442 0.984 . S
N437 H443 0.985 1_565 S
C438 C432 1.379 . S
C438 C435 1.363 . S
C438 N436 1.356 . S
C439 C433 1.363 . S
C439 C434 1.379 . S
C439 N437 1.356 . S
N440 C432 1.356 . S
N440 H446 0.984 . S
N440 H447 0.984 . S
N441 C434 1.356 . S
N441 H444 0.984 . S
N441 H445 0.985 . S
H442 N437 0.984 . S
H443 N437 0.985 1_545 S
H444 N441 0.984 . S
H445 N441 0.985 . S
H446 N440 0.984 . S
H447 N440 0.984 . S
H448 N436 0.984 . S
H449 N436 0.985 . S
C450 C451 1.363 . S
C450 C456 1.379 1_545 S
C450 N458 1.356 . S
C451 C450 1.363 . S
C451 C457 1.363 . S
C452 C453 1.363 . S
C452 C457 1.379 1_565 S
C452 N459 1.356 . S
C453 C452 1.363 . S
C453 C456 1.363 . S
N454 C456 1.356 . S
N454 H466 0.984 . S
N454 H467 0.985 . S
N455 C457 1.356 . S
N455 H460 0.984 . S
N455 H461 0.985 . S
C456 C450 1.379 1_565 S
C456 C453 1.363 . S
C456 N454 1.356 . S
C457 C451 1.363 . S
C457 C452 1.379 1_545 S
C457 N455 1.356 . S
N458 C450 1.356 . S
N458 H464 0.984 . S
N458 H465 0.984 . S
N459 C452 1.356 . S
N459 H462 0.984 . S
N459 H463 0.985 . S
H460 N455 0.984 . S
H461 N455 0.985 . S
H462 N459 0.984 . S
H463 N459 0.985 . S
H464 N458 0.984 . S
H465 N458 0.984 . S
H466 N454 0.984 . S
H467 N454 0.985 . S
C468 C469 1.363 . S
C468 C474 1.379 1_565 S
C468 N476 1.356 . S
C469 C468 1.363 . S
C469 C475 1.363 . S
C470 C471 1.363 . S
C470 C475 1.379 1_545 S
C470 N477 1.356 . S
C471 C470 1.363 . S
C471 C474 1.363 . S
N472 C474 1.356 . S
N472 H484 0.984 . S
N472 H485 0.985 . S
N473 C475 1.356 . S
N473 H478 0.984 . S
N473 H479 0.985 . S
C474 C468 1.379 1_545 S
C474 C471 1.363 . S
C474 N472 1.356 . S
C475 C469 1.363 . S
C475 C470 1.379 1_565 S
C475 N473 1.356 . S
N476 C468 1.356 . S
N476 H482 0.984 . S
N476 H483 0.984 . S
N477 C470 1.356 . S
N477 H480 0.984 . S
N477 H481 0.985 . S
H478 N473 0.984 . S
H479 N473 0.985 . S
H480 N477 0.984 . S
H481 N477 0.985 . S
H482 N476 0.984 . S
H483 N476 0.984 . S
H484 N472 0.984 . S
H485 N472 0.985 . S
C486 C487 1.363 . S
C486 C492 1.379 1_455 S
C486 N494 1.356 . S
C487 C486 1.363 . S
C487 C493 1.363 . S
C488 C489 1.363 . S
C488 C493 1.379 1_655 S
C488 N495 1.356 . S
C489 C488 1.363 . S
C489 C492 1.363 . S
N490 C492 1.356 . S
N490 H502 0.984 . S
N490 H503 0.985 . S
N491 C493 1.356 . S
N491 H496 0.984 . S
N491 H497 0.985 . S
C492 C486 1.379 1_655 S
C492 C489 1.363 . S
C492 N490 1.356 . S
C493 C487 1.363 . S
C493 C488 1.379 1_455 S
C493 N491 1.356 . S
N494 C486 1.356 . S
N494 H500 0.984 . S
N494 H501 0.984 . S
N495 C488 1.356 . S
N495 H498 0.984 . S
N495 H499 0.985 . S
H496 N491 0.984 . S
H497 N491 0.985 . S
H498 N495 0.984 . S
H499 N495 0.985 . S
H500 N494 0.984 . S
H501 N494 0.984 . S
H502 N490 0.984 . S
H503 N490 0.985 . S
C504 C505 1.363 . S
C504 C510 1.379 . S
C504 N512 1.356 . S
C505 C504 1.363 . S
C505 C511 1.363 . S
C506 C507 1.363 . S
C506 C511 1.379 . S
C506 N513 1.356 . S
C507 C506 1.363 . S
C507 C510 1.363 . S
N508 C510 1.356 . S
N508 H520 0.984 . S
N508 H521 0.985 . S
N509 C511 1.356 . S
N509 H514 0.984 . S
N509 H515 0.985 . S
C510 C504 1.379 . S
C510 C507 1.363 . S
C510 N508 1.356 . S
C511 C505 1.363 . S
C511 C506 1.379 . S
C511 N509 1.356 . S
N512 C504 1.356 . S
N512 H518 0.984 . S
N512 H519 0.984 . S
N513 C506 1.356 . S
N513 H516 0.984 . S
N513 H517 0.985 . S
H514 N509 0.984 . S
H515 N509 0.985 . S
H516 N513 0.984 . S
H517 N513 0.985 . S
H518 N512 0.984 . S
H519 N512 0.984 . S
H520 N508 0.984 . S
H521 N508 0.985 . S
C522 C523 1.363 . S
C522 C528 1.379 . S
C522 N530 1.356 . S
C523 C522 1.363 . S
C523 C529 1.363 . S
C524 C525 1.363 . S
C524 C529 1.379 . S
C524 N531 1.356 . S
C525 C524 1.363 . S
C525 C528 1.363 . S
N526 C528 1.356 . S
N526 H538 0.984 . S
N526 H539 0.985 . S
N527 C529 1.356 . S
N527 H532 0.984 . S
N527 H533 0.985 . S
C528 C522 1.379 . S
C528 C525 1.363 . S
C528 N526 1.356 . S
C529 C523 1.363 . S
C529 C524 1.379 . S
C529 N527 1.356 . S
N530 C522 1.356 . S
N530 H536 0.984 . S
N530 H537 0.984 . S
N531 C524 1.356 . S
N531 H534 0.984 . S
N531 H535 0.985 . S
H532 N527 0.984 . S
H533 N527 0.985 . S
H534 N531 0.984 . S
H535 N531 0.985 . S
H536 N530 0.984 . S
H537 N530 0.984 . S
H538 N526 0.984 . S
H539 N526 0.985 . S
C540 C541 1.363 . S
C540 C546 1.379 . S
C540 N548 1.356 . S
C541 C540 1.363 . S
C541 C547 1.363 . S
C542 C543 1.363 . S
C542 C547 1.379 . S
C542 N549 1.356 . S
C543 C542 1.363 . S
C543 C546 1.363 . S
N544 C546 1.356 . S
N544 H556 0.984 . S
N544 H557 0.985 . S
N545 C547 1.356 . S
N545 H550 0.984 . S
N545 H551 0.985 . S
C546 C540 1.379 . S
C546 C543 1.363 . S
C546 N544 1.356 . S
C547 C541 1.363 . S
C547 C542 1.379 . S
C547 N545 1.356 . S
N548 C540 1.356 . S
N548 H554 0.984 . S
N548 H555 0.984 . S
N549 C542 1.356 . S
N549 H552 0.984 . S
N549 H553 0.985 . S
H550 N545 0.984 . S
H551 N545 0.985 . S
H552 N549 0.984 . S
H553 N549 0.985 . S
H554 N548 0.984 . S
H555 N548 0.984 . S
H556 N544 0.984 . S
H557 N544 0.985 . S
C558 C559 1.363 . S
C558 C564 1.379 . S
C558 N566 1.356 . S
C559 C558 1.363 . S
C559 C565 1.363 . S
C560 C561 1.363 . S
C560 C565 1.379 . S
C560 N567 1.356 . S
C561 C560 1.363 . S
C561 C564 1.363 . S
N562 C564 1.356 . S
N562 H574 0.984 . S
N562 H575 0.985 . S
N563 C565 1.356 . S
N563 H568 0.984 . S
N563 H569 0.985 . S
C564 C558 1.379 . S
C564 C561 1.363 . S
C564 N562 1.356 . S
C565 C559 1.363 . S
C565 C560 1.379 . S
C565 N563 1.356 . S
N566 C558 1.356 . S
N566 H572 0.984 . S
N566 H573 0.984 . S
N567 C560 1.356 . S
N567 H570 0.984 . S
N567 H571 0.985 . S
H568 N563 0.984 . S
H569 N563 0.985 . S
H570 N567 0.984 . S
H571 N567 0.985 . S
H572 N566 0.984 . S
H573 N566 0.984 . S
H574 N562 0.984 . S
H575 N562 0.985 . S
C576 C577 1.363 . S
C576 C582 1.379 . S
C576 N584 1.356 . S
C577 C576 1.363 . S
C577 C583 1.363 . S
C578 C579 1.363 . S
C578 C583 1.379 . S
C578 N585 1.356 . S
C579 C578 1.363 . S
C579 C582 1.363 . S
N580 C582 1.356 . S
N580 H592 0.984 . S
N580 H593 0.985 . S
N581 C583 1.356 . S
N581 H586 0.984 . S
N581 H587 0.985 . S
C582 C576 1.379 . S
C582 C579 1.363 . S
C582 N580 1.356 . S
C583 C577 1.363 . S
C583 C578 1.379 . S
C583 N581 1.356 . S
N584 C576 1.356 . S
N584 H590 0.984 . S
N584 H591 0.984 . S
N585 C578 1.356 . S
N585 H588 0.984 . S
N585 H589 0.985 . S
H586 N581 0.984 . S
H587 N581 0.985 . S
H588 N585 0.984 . S
H589 N585 0.985 . S
H590 N584 0.984 . S
H591 N584 0.984 . S
H592 N580 0.984 . S
H593 N580 0.985 . S
C594 C595 1.363 . S
C594 C600 1.379 . S
C594 N602 1.356 . S
C595 C594 1.363 . S
C595 C601 1.363 . S
C596 C597 1.363 . S
C596 C601 1.379 . S
C596 N603 1.356 . S
C597 C596 1.363 . S
C597 C600 1.363 . S
N598 C600 1.356 . S
N598 H610 0.984 . S
N598 H611 0.985 . S
N599 C601 1.356 . S
N599 H604 0.984 . S
N599 H605 0.985 . S
C600 C594 1.379 . S
C600 C597 1.363 . S
C600 N598 1.356 . S
C601 C595 1.363 . S
C601 C596 1.379 . S
C601 N599 1.356 . S
N602 C594 1.356 . S
N602 H608 0.984 . S
N602 H609 0.984 . S
N603 C596 1.356 . S
N603 H606 0.984 . S
N603 H607 0.985 . S
H604 N599 0.984 . S
H605 N599 0.985 . S
H606 N603 0.984 . S
H607 N603 0.985 . S
H608 N602 0.984 . S
H609 N602 0.984 . S
H610 N598 0.984 . S
H611 N598 0.985 . S
C612 C613 1.363 . S
C612 C618 1.379 . S
C612 N620 1.356 . S
C613 C612 1.363 . S
C613 C619 1.363 . S
C614 C615 1.363 . S
C614 C619 1.379 . S
C614 N621 1.356 . S
C615 C614 1.363 . S
C615 C618 1.363 . S
N616 C618 1.356 . S
N616 H628 0.984 . S
N616 H629 0.985 . S
N617 C619 1.356 . S
N617 H622 0.984 . S
N617 H623 0.985 . S
C618 C612 1.379 . S
C618 C615 1.363 . S
C618 N616 1.356 . S
C619 C613 1.363 . S
C619 C614 1.379 . S
C619 N617 1.356 . S
N620 C612 1.356 . S
N620 H626 0.984 . S
N620 H627 0.984 . S
N621 C614 1.356 . S
N621 H624 0.984 . S
N621 H625 0.985 . S
H622 N617 0.984 . S
H623 N617 0.985 . S
H624 N621 0.984 . S
H625 N621 0.985 . S
H626 N620 0.984 . S
H627 N620 0.984 . S
H628 N616 0.984 . S
H629 N616 0.985 . S
C630 C631 1.363 . S
C630 C636 1.379 . S
C630 N638 1.356 . S
C631 C630 1.363 . S
C631 C637 1.363 . S
C632 C633 1.363 . S
C632 C637 1.379 . S
C632 N639 1.356 . S
C633 C632 1.363 . S
C633 C636 1.363 . S
N634 C636 1.356 . S
N634 H646 0.984 . S
N634 H647 0.985 . S
N635 C637 1.356 . S
N635 H640 0.984 . S
N635 H641 0.985 . S
C636 C630 1.379 . S
C636 C633 1.363 . S
C636 N634 1.356 . S
C637 C631 1.363 . S
C637 C632 1.379 . S
C637 N635 1.356 . S
N638 C630 1.356 . S
N638 H644 0.984 . S
N638 H645 0.984 . S
N639 C632 1.356 . S
N639 H642 0.984 . S
N639 H643 0.985 . S
H640 N635 0.984 . S
H641 N635 0.985 . S
H642 N639 0.984 . S
H643 N639 0.985 . S
H644 N638 0.984 . S
H645 N638 0.984 . S
H646 N634 0.984 . S
H647 N634 0.985 . S
C648 C649 1.363 . S
C648 C654 1.379 . S
C648 N656 1.356 . S
C649 C648 1.363 . S
C649 C655 1.363 . S
C650 C651 1.363 . S
C650 C655 1.379 . S
C650 N657 1.356 . S
C651 C650 1.363 . S
C651 C654 1.363 . S
N652 C654 1.356 . S
N652 H664 0.984 . S
N652 H665 0.985 . S
N653 C655 1.356 . S
N653 H658 0.984 . S
N653 H659 0.985 . S
C654 C648 1.379 . S
C654 C651 1.363 . S
C654 N652 1.356 . S
C655 C649 1.363 . S
C655 C650 1.379 . S
C655 N653 1.356 . S
N656 C648 1.356 . S
N656 H662 0.984 . S
N656 H663 0.984 . S
N657 C650 1.356 . S
N657 H660 0.984 . S
N657 H661 0.985 . S
H658 N653 0.984 . S
H659 N653 0.985 . S
H660 N657 0.984 . S
H661 N657 0.985 . S
H662 N656 0.984 . S
H663 N656 0.984 . S
H664 N652 0.984 . S
H665 N652 0.985 . S
C666 C667 1.363 . S
C666 C672 1.379 . S
C666 N674 1.356 . S
C667 C666 1.363 . S
C667 C673 1.363 . S
C668 C669 1.363 . S
C668 C673 1.379 . S
C668 N675 1.356 . S
C669 C668 1.363 . S
C669 C672 1.363 . S
N670 C672 1.356 . S
N670 H682 0.984 . S
N670 H683 0.985 . S
N671 C673 1.356 . S
N671 H676 0.984 . S
N671 H677 0.985 . S
C672 C666 1.379 . S
C672 C669 1.363 . S
C672 N670 1.356 . S
C673 C667 1.363 . S
C673 C668 1.379 . S
C673 N671 1.356 . S
N674 C666 1.356 . S
N674 H680 0.984 . S
N674 H681 0.984 . S
N675 C668 1.356 . S
N675 H678 0.984 . S
N675 H679 0.985 . S
H676 N671 0.984 . S
H677 N671 0.985 . S
H678 N675 0.984 . S
H679 N675 0.985 . S
H680 N674 0.984 . S
H681 N674 0.984 . S
H682 N670 0.984 . S
H683 N670 0.985 . S
C684 C685 1.363 . S
C684 C690 1.379 . S
C684 N692 1.356 . S
C685 C684 1.363 . S
C685 C691 1.363 . S
C686 C687 1.363 . S
C686 C691 1.379 . S
C686 N693 1.356 . S
C687 C686 1.363 . S
C687 C690 1.363 . S
N688 C690 1.356 . S
N688 H700 0.984 . S
N688 H701 0.985 . S
N689 C691 1.356 . S
N689 H694 0.984 . S
N689 H695 0.985 . S
C690 C684 1.379 . S
C690 C687 1.363 . S
C690 N688 1.356 . S
C691 C685 1.363 . S
C691 C686 1.379 . S
C691 N689 1.356 . S
N692 C684 1.356 . S
N692 H698 0.984 . S
N692 H699 0.984 . S
N693 C686 1.356 . S
N693 H696 0.984 . S
N693 H697 0.985 . S
H694 N689 0.984 . S
H695 N689 0.985 . S
H696 N693 0.984 . S
H697 N693 0.985 . S
H698 N692 0.984 . S
H699 N692 0.984 . S
H700 N688 0.984 . S
H701 N688 0.985 . S
C702 C703 1.363 . S
C702 C708 1.379 . S
C702 N710 1.356 . S
C703 C702 1.363 . S
C703 C709 1.363 . S
C704 C705 1.363 . S
C704 C709 1.379 . S
C704 N711 1.356 . S
C705 C704 1.363 . S
C705 C708 1.363 . S
N706 C708 1.356 . S
N706 H718 0.984 . S
N706 H719 0.985 . S
N707 C709 1.356 . S
N707 H712 0.984 . S
N707 H713 0.985 . S
C708 C702 1.379 . S
C708 C705 1.363 . S
C708 N706 1.356 . S
C709 C703 1.363 . S
C709 C704 1.379 . S
C709 N707 1.356 . S
N710 C702 1.356 . S
N710 H716 0.984 . S
N710 H717 0.984 . S
N711 C704 1.356 . S
N711 H714 0.984 . S
N711 H715 0.985 . S
H712 N707 0.984 . S
H713 N707 0.985 . S
H714 N711 0.984 . S
H715 N711 0.985 . S
H716 N710 0.984 . S
H717 N710 0.984 . S
H718 N706 0.984 . S
H719 N706 0.985 . S
C720 C721 1.363 . S
C720 C726 1.379 . S
C720 N728 1.356 . S
C721 C720 1.363 . S
C721 C727 1.363 . S
C722 C723 1.363 . S
C722 C727 1.379 . S
C722 N729 1.356 . S
C723 C722 1.363 . S
C723 C726 1.363 . S
N724 C726 1.356 . S
N724 H736 0.984 . S
N724 H737 0.985 . S
N725 C727 1.356 . S
N725 H730 0.984 . S
N725 H731 0.985 . S
C726 C720 1.379 . S
C726 C723 1.363 . S
C726 N724 1.356 . S
C727 C721 1.363 . S
C727 C722 1.379 . S
C727 N725 1.356 . S
N728 C720 1.356 . S
N728 H734 0.984 . S
N728 H735 0.984 . S
N729 C722 1.356 . S
N729 H732 0.984 . S
N729 H733 0.985 . S
H730 N725 0.984 . S
H731 N725 0.985 . S
H732 N729 0.984 . S
H733 N729 0.985 . S
H734 N728 0.984 . S
H735 N728 0.984 . S
H736 N724 0.984 . S
H737 N724 0.985 . S
C738 C739 1.363 . S
C738 C744 1.379 1_554 S
C738 N746 1.356 . S
C739 C738 1.363 . S
C739 C745 1.363 . S
C740 C741 1.363 . S
C740 C745 1.379 1_556 S
C740 N747 1.356 . S
C741 C740 1.363 . S
C741 C744 1.363 . S
N742 C744 1.356 . S
N742 H754 0.984 . S
N742 H755 0.985 . S
N743 C745 1.356 . S
N743 H748 0.984 . S
N743 H749 0.985 . S
C744 C738 1.379 1_556 S
C744 C741 1.363 . S
C744 N742 1.356 . S
C745 C739 1.363 . S
C745 C740 1.379 1_554 S
C745 N743 1.356 . S
N746 C738 1.356 . S
N746 H752 0.984 . S
N746 H753 0.984 . S
N747 C740 1.356 . S
N747 H750 0.984 . S
N747 H751 0.985 . S
H748 N743 0.984 . S
H749 N743 0.985 . S
H750 N747 0.984 . S
H751 N747 0.985 . S
H752 N746 0.984 . S
H753 N746 0.984 . S
H754 N742 0.984 . S
H755 N742 0.985 . S
C756 C757 1.363 . S
C756 C762 1.379 1_556 S
C756 N764 1.356 . S
C757 C756 1.363 . S
C757 C763 1.363 1_545 S
C758 C759 1.363 . S
C758 C763 1.379 1_554 S
C758 N765 1.356 . S
C759 C758 1.363 . S
C759 C762 1.363 1_565 S
N760 C762 1.356 . S
N760 H772 0.984 . S
N760 H773 0.985 1_545 S
N761 C763 1.356 . S
N761 H766 0.986 1_565 S
N761 H767 0.985 . S
C762 C756 1.379 1_554 S
C762 C759 1.363 1_545 S
C762 N760 1.356 . S
C763 C757 1.363 1_565 S
C763 C758 1.379 1_556 S
C763 N761 1.356 . S
N764 C756 1.356 . S
N764 H770 0.984 . S
N764 H771 0.984 . S
N765 C758 1.356 . S
N765 H768 0.984 . S
N765 H769 0.985 . S
H766 N761 0.986 1_545 S
H767 N761 0.985 . S
H768 N765 0.984 . S
H769 N765 0.985 . S
H770 N764 0.984 . S
H771 N764 0.984 . S
H772 N760 0.984 . S
H773 N760 0.985 1_565 S
C774 C775 1.363 . S
C774 C780 1.379 1_556 S
C774 N782 1.356 . S
C775 C774 1.363 . S
C775 C781 1.363 1_655 S
C776 C777 1.363 . S
C776 C781 1.379 1_554 S
C776 N783 1.356 . S
C777 C776 1.363 . S
C777 C780 1.363 1_455 S
N778 C780 1.356 . S
N778 H790 0.984 . S
N778 H791 0.985 . S
N779 C781 1.356 . S
N779 H784 0.984 . S
N779 H785 0.985 . S
C780 C774 1.379 1_554 S
C780 C777 1.363 1_655 S
C780 N778 1.356 . S
C781 C775 1.363 1_455 S
C781 C776 1.379 1_556 S
C781 N779 1.356 . S
N782 C774 1.356 . S
N782 H788 0.984 . S
N782 H789 0.984 . S
N783 C776 1.356 . S
N783 H786 0.984 . S
N783 H787 0.985 . S
H784 N779 0.984 . S
H785 N779 0.985 . S
H786 N783 0.984 . S
H787 N783 0.985 . S
H788 N782 0.984 . S
H789 N782 0.984 . S
H790 N778 0.984 . S
H791 N778 0.985 . S
C792 C793 1.363 . S
C792 C798 1.379 . S
C792 N800 1.356 . S
C793 C792 1.363 . S
C793 C799 1.363 . S
C794 C795 1.363 . S
C794 C799 1.379 . S
C794 N801 1.356 . S
C795 C794 1.363 . S
C795 C798 1.363 . S
N796 C798 1.356 . S
N796 H808 0.984 . S
N796 H809 0.985 . S
N797 C799 1.356 . S
N797 H802 0.984 . S
N797 H803 0.985 . S
C798 C792 1.379 . S
C798 C795 1.363 . S
C798 N796 1.356 . S
C799 C793 1.363 . S
C799 C794 1.379 . S
C799 N797 1.356 . S
N800 C792 1.356 . S
N800 H806 0.984 . S
N800 H807 0.984 . S
N801 C794 1.356 . S
N801 H804 0.984 . S
N801 H805 0.985 . S
H802 N797 0.984 . S
H803 N797 0.985 . S
H804 N801 0.984 . S
H805 N801 0.985 . S
H806 N800 0.984 . S
H807 N800 0.984 . S
H808 N796 0.984 . S
H809 N796 0.985 . S
C810 C811 1.363 . S
C810 C816 1.379 . S
C810 N818 1.356 . S
C811 C810 1.363 . S
C811 C817 1.363 . S
C812 C813 1.363 . S
C812 C817 1.379 . S
C812 N819 1.356 . S
C813 C812 1.363 . S
C813 C816 1.363 . S
N814 C816 1.356 . S
N814 H826 0.984 . S
N814 H827 0.985 . S
N815 C817 1.356 . S
N815 H820 0.984 . S
N815 H821 0.985 . S
C816 C810 1.379 . S
C816 C813 1.363 . S
C816 N814 1.356 . S
C817 C811 1.363 . S
C817 C812 1.379 . S
C817 N815 1.356 . S
N818 C810 1.356 . S
N818 H824 0.984 . S
N818 H825 0.984 . S
N819 C812 1.356 . S
N819 H822 0.984 . S
N819 H823 0.985 . S
H820 N815 0.984 . S
H821 N815 0.985 . S
H822 N819 0.984 . S
H823 N819 0.985 . S
H824 N818 0.984 . S
H825 N818 0.984 . S
H826 N814 0.984 . S
H827 N814 0.985 . S
C828 C829 1.363 . S
C828 C834 1.379 . S
C828 N836 1.356 . S
C829 C828 1.363 . S
C829 C835 1.363 . S
C830 C831 1.363 . S
C830 C835 1.379 . S
C830 N837 1.356 . S
C831 C830 1.363 . S
C831 C834 1.363 . S
N832 C834 1.356 . S
N832 H844 0.984 . S
N832 H845 0.985 . S
N833 C835 1.356 . S
N833 H838 0.984 . S
N833 H839 0.985 . S
C834 C828 1.379 . S
C834 C831 1.363 . S
C834 N832 1.356 . S
C835 C829 1.363 . S
C835 C830 1.379 . S
C835 N833 1.356 . S
N836 C828 1.356 . S
N836 H842 0.984 . S
N836 H843 0.984 . S
N837 C830 1.356 . S
N837 H840 0.984 . S
N837 H841 0.985 . S
H838 N833 0.984 . S
H839 N833 0.985 . S
H840 N837 0.984 . S
H841 N837 0.985 . S
H842 N836 0.984 . S
H843 N836 0.984 . S
H844 N832 0.984 . S
H845 N832 0.985 . S
C846 C847 1.363 . S
C846 C852 1.379 . S
C846 N854 1.356 . S
C847 C846 1.363 . S
C847 C853 1.363 . S
C848 C849 1.363 . S
C848 C853 1.379 . S
C848 N855 1.356 . S
C849 C848 1.363 . S
C849 C852 1.363 . S
N850 C852 1.356 . S
N850 H862 0.984 . S
N850 H863 0.985 . S
N851 C853 1.356 . S
N851 H856 0.984 . S
N851 H857 0.985 . S
C852 C846 1.379 . S
C852 C849 1.363 . S
C852 N850 1.356 . S
C853 C847 1.363 . S
C853 C848 1.379 . S
C853 N851 1.356 . S
N854 C846 1.356 . S
N854 H860 0.984 . S
N854 H861 0.984 . S
N855 C848 1.356 . S
N855 H858 0.984 . S
N855 H859 0.985 . S
H856 N851 0.984 . S
H857 N851 0.985 . S
H858 N855 0.984 . S
H859 N855 0.985 . S
H860 N854 0.984 . S
H861 N854 0.984 . S
H862 N850 0.984 . S
H863 N850 0.985 . S
C864 C865 1.363 . S
C864 C870 1.379 . S
C864 N872 1.356 . S
C865 C864 1.363 . S
C865 C871 1.363 . S
C866 C867 1.363 . S
C866 C871 1.379 . S
C866 N873 1.356 . S
C867 C866 1.363 . S
C867 C870 1.363 . S
N868 C870 1.356 . S
N868 H880 0.984 . S
N868 H881 0.985 . S
N869 C871 1.356 . S
N869 H874 0.984 . S
N869 H875 0.985 . S
C870 C864 1.379 . S
C870 C867 1.363 . S
C870 N868 1.356 . S
C871 C865 1.363 . S
C871 C866 1.379 . S
C871 N869 1.356 . S
N872 C864 1.356 . S
N872 H878 0.984 . S
N872 H879 0.984 . S
N873 C866 1.356 . S
N873 H876 0.984 . S
N873 H877 0.985 . S
H874 N869 0.984 . S
H875 N869 0.985 . S
H876 N873 0.984 . S
H877 N873 0.985 . S
H878 N872 0.984 . S
H879 N872 0.984 . S
H880 N868 0.984 . S
H881 N868 0.985 . S
C882 C883 1.363 . S
C882 C888 1.379 . S
C882 N890 1.356 . S
C883 C882 1.363 . S
C883 C889 1.363 . S
C884 C885 1.363 . S
C884 C889 1.379 . S
C884 N891 1.356 . S
C885 C884 1.363 . S
C885 C888 1.363 . S
N886 C888 1.356 . S
N886 H898 0.984 . S
N886 H899 0.985 . S
N887 C889 1.356 . S
N887 H892 0.984 . S
N887 H893 0.985 . S
C888 C882 1.379 . S
C888 C885 1.363 . S
C888 N886 1.356 . S
C889 C883 1.363 . S
C889 C884 1.379 . S
C889 N887 1.356 . S
N890 C882 1.356 . S
N890 H896 0.984 . S
N890 H897 0.984 . S
N891 C884 1.356 . S
N891 H894 0.984 . S
N891 H895 0.985 . S
H892 N887 0.984 . S
H893 N887 0.985 . S
H894 N891 0.984 . S
H895 N891 0.985 . S
H896 N890 0.984 . S
H897 N890 0.984 . S
H898 N886 0.984 . S
H899 N886 0.985 . S
C253 C146 1.284 . S
C255 C6 1.284 . S
C271 C20 1.284 . S
C273 C160 1.284 . S
C289 C132 1.284 . S
C291 C34 1.284 . S
C307 C202 1.284 . S
C309 C48 1.284 . S
C325 C62 1.284 . S
C327 C174 1.284 . S
C343 C188 1.284 . S
C345 C76 1.284 . S
C361 C90 1.284 . S
C363 C230 1.284 . S
C379 C244 1.284 . S
C381 C104 1.284 . S
C397 C118 1.284 . S
C399 C216 1.284 . S
C415 C9 1.362 . S
C417 C22 1.402 . S
C433 C23 1.363 . S
C435 C36 1.402 . S
C451 C8 1.402 . S
C453 C37 1.362 . S
C469 C78 1.402 . S
C471 C51 1.362 . S
C487 C50 1.402 . S
C489 C65 1.362 . S
C505 C79 1.363 . S
C507 C64 1.402 . S
C523 C93 1.362 . S
C525 C106 1.402 . S
C541 C107 1.362 . S
C543 C120 1.402 . S
C559 C92 1.402 . S
C561 C121 1.363 . S
C577 C162 1.402 . S
C579 C135 1.363 . S
C595 C134 1.402 . S
C597 C149 1.362 . S
C613 C148 1.402 . S
C615 C163 1.362 . S
C631 C190 1.402 . S
C633 C177 1.363 . S
C649 C204 1.402 . S
C651 C191 1.362 . S
C667 C176 1.402 . S
C669 C205 1.362 . S
C685 C219 1.362 . S
C687 C246 1.402 . S
C703 C233 1.363 . S
C705 C218 1.402 . S
C721 C247 1.362 . S
C723 C232 1.402 . S
C739 C7 1.701 . S
C741 C49 1.701 . S
C757 C63 1.702 . S
C759 C21 1.701 . S
C775 C77 1.701 . S
C777 C35 1.702 . S
C793 C133 1.702 . S
C795 C91 1.702 . S
C811 C147 1.701 . S
C813 C105 1.701 . S
C829 C119 1.702 . S
C831 C161 1.702 . S
C847 C217 1.702 . S
C849 C175 1.702 . S
C865 C231 1.701 . S
C867 C189 1.702 . S
C883 C245 1.701 . S
C885 C203 1.701 . S
