# Generated by pormake.
# Topology und, (4)-cn, num edge types: 1
# Building blocks:
#     Node 0, Type 0, BuildingBlock: GALJAG_clean_sbu_0, # of connection points: 4
#     Node 1, Type 0, BuildingBlock: GALJAG_clean_sbu_0, # of connection points: 4
#     Node 2, Type 0, BuildingBlock: GALJAG_clean_sbu_0, # of connection points: 4
#     Node 3, Type 0, BuildingBlock: GALJAG_clean_sbu_0, # of connection points: 4
#     Node 4, Type 0, BuildingBlock: GALJAG_clean_sbu_0, # of connection points: 4
#     Node 5, Type 0, BuildingBlock: GALJAG_clean_sbu_0, # of connection points: 4
#     Node 6, Type 0, BuildingBlock: GALJAG_clean_sbu_0, # of connection points: 4
#     Node 7, Type 0, BuildingBlock: GALJAG_clean_sbu_0, # of connection points: 4
#     Node 8, Type 0, BuildingBlock: GALJAG_clean_sbu_0, # of connection points: 4
#     Node 9, Type 0, BuildingBlock: GALJAG_clean_sbu_0, # of connection points: 4
#     Node 10, Type 0, BuildingBlock: GALJAG_clean_sbu_0, # of connection points: 4
#     Node 11, Type 0, BuildingBlock: GALJAG_clean_sbu_0, # of connection points: 4
#     Node 12, Type 0, BuildingBlock: GALJAG_clean_sbu_0, # of connection points: 4
#     Node 13, Type 0, BuildingBlock: GALJAG_clean_sbu_0, # of connection points: 4
#     Node 14, Type 0, BuildingBlock: GALJAG_clean_sbu_0, # of connection points: 4
#     Node 15, Type 0, BuildingBlock: GALJAG_clean_sbu_0, # of connection points: 4
#     Edge 16, Type (0, 0), BuildingBlock: CIFDUS_clean_linker_0, # of connection points: 2
#     Edge 17, Type (0, 0), BuildingBlock: CIFDUS_clean_linker_0, # of connection points: 2
#     Edge 18, Type (0, 0), BuildingBlock: CIFDUS_clean_linker_0, # of connection points: 2
#     Edge 19, Type (0, 0), BuildingBlock: CIFDUS_clean_linker_0, # of connection points: 2
#     Edge 20, Type (0, 0), BuildingBlock: CIFDUS_clean_linker_0, # of connection points: 2
#     Edge 21, Type (0, 0), BuildingBlock: CIFDUS_clean_linker_0, # of connection points: 2
#     Edge 22, Type (0, 0), BuildingBlock: CIFDUS_clean_linker_0, # of connection points: 2
#     Edge 23, Type (0, 0), BuildingBlock: CIFDUS_clean_linker_0, # of connection points: 2
#     Edge 24, Type (0, 0), BuildingBlock: CIFDUS_clean_linker_0, # of connection points: 2
#     Edge 25, Type (0, 0), BuildingBlock: CIFDUS_clean_linker_0, # of connection points: 2
#     Edge 26, Type (0, 0), BuildingBlock: CIFDUS_clean_linker_0, # of connection points: 2
#     Edge 27, Type (0, 0), BuildingBlock: CIFDUS_clean_linker_0, # of connection points: 2
#     Edge 28, Type (0, 0), BuildingBlock: CIFDUS_clean_linker_0, # of connection points: 2
#     Edge 29, Type (0, 0), BuildingBlock: CIFDUS_clean_linker_0, # of connection points: 2
#     Edge 30, Type (0, 0), BuildingBlock: CIFDUS_clean_linker_0, # of connection points: 2
#     Edge 31, Type (0, 0), BuildingBlock: CIFDUS_clean_linker_0, # of connection points: 2
#     Edge 32, Type (0, 0), BuildingBlock: CIFDUS_clean_linker_0, # of connection points: 2
#     Edge 33, Type (0, 0), BuildingBlock: CIFDUS_clean_linker_0, # of connection points: 2
#     Edge 34, Type (0, 0), BuildingBlock: CIFDUS_clean_linker_0, # of connection points: 2
#     Edge 35, Type (0, 0), BuildingBlock: CIFDUS_clean_linker_0, # of connection points: 2
#     Edge 36, Type (0, 0), BuildingBlock: CIFDUS_clean_linker_0, # of connection points: 2
#     Edge 37, Type (0, 0), BuildingBlock: CIFDUS_clean_linker_0, # of connection points: 2
#     Edge 38, Type (0, 0), BuildingBlock: CIFDUS_clean_linker_0, # of connection points: 2
#     Edge 39, Type (0, 0), BuildingBlock: CIFDUS_clean_linker_0, # of connection points: 2
#     Edge 40, Type (0, 0), BuildingBlock: CIFDUS_clean_linker_0, # of connection points: 2
#     Edge 41, Type (0, 0), BuildingBlock: CIFDUS_clean_linker_0, # of connection points: 2
#     Edge 42, Type (0, 0), BuildingBlock: CIFDUS_clean_linker_0, # of connection points: 2
#     Edge 43, Type (0, 0), BuildingBlock: CIFDUS_clean_linker_0, # of connection points: 2
#     Edge 44, Type (0, 0), BuildingBlock: CIFDUS_clean_linker_0, # of connection points: 2
#     Edge 45, Type (0, 0), BuildingBlock: CIFDUS_clean_linker_0, # of connection points: 2
#     Edge 46, Type (0, 0), BuildingBlock: CIFDUS_clean_linker_0, # of connection points: 2
#     Edge 47, Type (0, 0), BuildingBlock: CIFDUS_clean_linker_0, # of connection points: 2
# Relax obj value: 0.013
# Max RMSD: 0.034
# Mean RMSD: 0.034
data_MOF--net-und--node1-GALJAG_clean_sbu_0--edge1-CIFDUS_clean_linker_0
_symmetry_space_group_name_H-M    P1
_symmetry_Int_Tables_number       1
_symmetry_cell_setting            triclinic
loop_
_symmetry_equiv_pos_as_xyz
'x, y, z'
_cell_length_a     55.216397
_cell_length_b     55.197733
_cell_length_c     17.77321
_cell_angle_alpha  90.253597
_cell_angle_beta   89.950877
_cell_angle_gamma 90.039199
loop_
_atom_site_label
_atom_site_type_symbol
_atom_site_fract_x
_atom_site_fract_y
_atom_site_fract_z
_atom_type_partial_charge
In0 In 0.26104 0.34553 0.0436 0.0
O1 O 0.22598 0.36769 0.02818 0.0
O2 O 0.24243 0.3669 0.13622 0.0
C3 C 0.26268 0.31261 0.93152 0.0
C4 C 0.29493 0.37779 0.00024 0.0
C5 C 0.26359 0.31114 0.14948 0.0
O6 O 0.24325 0.32358 0.9485 0.0
O7 O 0.28096 0.31887 0.96947 0.0
O8 O 0.28061 0.32617 0.13914 0.0
O9 O 0.24539 0.3139 0.10748 0.0
C10 C 0.22526 0.37451 0.09621 0.0
O11 O 0.29525 0.36813 0.06458 0.0
O12 O 0.2774 0.37154 0.95905 0.0
In13 In 0.90776 0.99229 0.22367 0.0
O14 O 0.88549 0.02706 0.23097 0.0
O15 O 0.88506 0.00736 0.12768 0.0
C16 C 0.93836 0.99738 0.34093 0.0
C17 C 0.87715 0.95722 0.27101 0.0
C18 C 0.9414 0.99021 0.11432 0.0
O19 O 0.92505 0.01454 0.31881 0.0
O20 O 0.93549 0.97773 0.30574 0.0
O21 O 0.92588 0.97359 0.12333 0.0
O22 O 0.93953 0.00782 0.1594 0.0
C23 C 0.87782 0.02567 0.16408 0.0
O24 O 0.89522 0.95269 0.22974 0.0
O25 O 0.87438 0.9793 0.28716 0.0
In26 In 0.26161 0.6686 0.50799 0.0
O27 O 0.30035 0.65434 0.50101 0.0
O28 O 0.27507 0.63507 0.56881 0.0
C29 C 0.26256 0.70245 0.40028 0.0
C30 C 0.22705 0.63916 0.45116 0.0
C31 C 0.26183 0.69959 0.62606 0.0
O32 O 0.27904 0.68664 0.40612 0.0
O33 O 0.24576 0.70089 0.44816 0.0
O34 O 0.2425 0.68972 0.60296 0.0
O35 O 0.28068 0.69291 0.59195 0.0
C36 C 0.29652 0.63677 0.54478 0.0
O37 O 0.22727 0.64533 0.51988 0.0
O38 O 0.24416 0.64767 0.41235 0.0
In39 In 0.58838 0.00563 0.74592 0.0
O40 O 0.61448 0.03635 0.71406 0.0
O41 O 0.61021 0.02814 0.82976 0.0
C42 C 0.55457 0.01032 0.6375 0.0
C43 C 0.61791 0.96833 0.70792 0.0
C44 C 0.55581 0.00287 0.85832 0.0
O45 O 0.56901 0.02728 0.65445 0.0
O46 O 0.55766 0.991 0.67393 0.0
O47 O 0.5688 0.98501 0.8392 0.0
O48 O 0.55973 0.02205 0.82192 0.0
C49 C 0.62044 0.04112 0.78106 0.0
O50 O 0.61291 0.97344 0.77544 0.0
O51 O 0.60801 0.98189 0.66018 0.0
In52 In 0.75483 0.66094 0.96906 0.0
O53 O 0.71569 0.64716 0.96246 0.0
O54 O 0.7401 0.62898 0.0355 0.0
C55 C 0.75668 0.69562 0.8635 0.0
C56 C 0.78824 0.62988 0.9142 0.0
C57 C 0.75568 0.69226 0.08587 0.0
O58 O 0.73863 0.68161 0.86998 0.0
O59 O 0.77388 0.69146 0.90832 0.0
O60 O 0.77371 0.67904 0.07007 0.0
O61 O 0.73737 0.68877 0.04509 0.0
C62 C 0.71885 0.6305 0.00999 0.0
O63 O 0.78931 0.63836 0.98041 0.0
O64 O 0.7703 0.637 0.87616 0.0
In65 In 0.08625 1.00058 0.72265 0.0
O66 O 0.10901 0.03484 0.7422 0.0
O67 O 0.10677 0.02069 0.63113 0.0
C68 C 0.05347 0.00319 0.83429 0.0
C69 C 0.11892 0.967 0.76612 0.0
C70 C 0.05213 0.99472 0.61637 0.0
O71 O 0.0664 0.02119 0.81609 0.0
O72 O 0.05762 0.98404 0.7975 0.0
O73 O 0.06665 0.97793 0.63382 0.0
O74 O 0.05537 0.01446 0.65106 0.0
C75 C 0.11527 0.03677 0.67413 0.0
O76 O 0.11148 0.96839 0.69912 0.0
O77 O 0.10986 0.98236 0.81049 0.0
In78 In 0.75357 0.34163 0.49852 0.0
O79 O 0.71558 0.35853 0.50128 0.0
O80 O 0.74407 0.37827 0.449 0.0
C81 C 0.75049 0.30835 0.60847 0.0
C82 C 0.79193 0.36833 0.54244 0.0
C83 C 0.75009 0.31172 0.37832 0.0
O84 O 0.73595 0.32601 0.6045 0.0
O85 O 0.76663 0.30795 0.55829 0.0
O86 O 0.77026 0.31932 0.40233 0.0
O87 O 0.73197 0.32009 0.4127 0.0
C88 C 0.72199 0.37743 0.46667 0.0
O89 O 0.78947 0.36074 0.47558 0.0
O90 O 0.77527 0.36209 0.58712 0.0
In91 In 0.40921 0.00983 0.24578 0.0
O92 O 0.386 0.97529 0.25462 0.0
O93 O 0.38727 0.99354 0.14982 0.0
C94 C 0.44149 0.00503 0.35832 0.0
C95 C 0.37814 0.04466 0.2932 0.0
C96 C 0.44399 0.01389 0.14053 0.0
O97 O 0.42751 0.98791 0.33896 0.0
O98 O 0.43856 0.02448 0.32243 0.0
O99 O 0.43052 0.03152 0.15865 0.0
O100 O 0.43953 0.99437 0.17453 0.0
C101 C 0.37916 0.97589 0.18679 0.0
O102 O 0.38711 0.04447 0.22783 0.0
O103 O 0.38475 0.02734 0.33428 0.0
In104 In 0.73898 0.83895 0.47032 0.0
O105 O 0.70344 0.85915 0.45449 0.0
O106 O 0.72205 0.86366 0.5588 0.0
C107 C 0.73946 0.80715 0.35467 0.0
C108 C 0.77227 0.8722 0.42935 0.0
C109 C 0.73758 0.80559 0.58002 0.0
O110 O 0.72111 0.81995 0.36986 0.0
O111 O 0.75764 0.81125 0.39556 0.0
O112 O 0.75559 0.81956 0.57173 0.0
O113 O 0.72034 0.80918 0.53495 0.0
C114 C 0.70397 0.86914 0.51871 0.0
O115 O 0.77744 0.85508 0.47356 0.0
O116 O 0.7507 0.87239 0.40645 0.0
In117 In 0.41711 0.49928 0.73332 0.0
O118 O 0.40212 0.53806 0.72656 0.0
O119 O 0.38159 0.50951 0.67756 0.0
C120 C 0.45047 0.50301 0.84278 0.0
C121 C 0.3886 0.46394 0.78851 0.0
C122 C 0.44773 0.49687 0.61508 0.0
O123 O 0.43385 0.51857 0.83482 0.0
O124 O 0.44965 0.48546 0.79717 0.0
O125 O 0.43566 0.47876 0.63693 0.0
O126 O 0.44348 0.51619 0.65064 0.0
C127 C 0.38325 0.53183 0.69139 0.0
O128 O 0.39648 0.4637 0.72166 0.0
O129 O 0.39549 0.48177 0.82787 0.0
In130 In 0.75328 0.16289 0.99634 0.0
O131 O 0.78589 0.13741 0.98287 0.0
O132 O 0.76768 0.13866 0.08848 0.0
C133 C 0.75648 0.19429 0.88162 0.0
C134 C 0.7156 0.13407 0.95834 0.0
C135 C 0.75745 0.19839 0.09949 0.0
O136 O 0.77291 0.17882 0.8942 0.0
O137 O 0.73846 0.19317 0.92515 0.0
O138 O 0.73731 0.18838 0.08514 0.0
O139 O 0.77528 0.18997 0.06343 0.0
C140 C 0.78466 0.12975 0.04979 0.0
O141 O 0.71667 0.14489 0.02112 0.0
O142 O 0.73338 0.13788 0.91542 0.0
In143 In 0.09711 0.50845 0.26784 0.0
O144 O 0.11753 0.47224 0.27604 0.0
O145 O 0.12205 0.49358 0.1775 0.0
C146 C 0.0625 0.50929 0.37436 0.0
C147 C 0.12885 0.54055 0.32647 0.0
C148 C 0.06429 0.51022 0.15671 0.0
O149 O 0.07435 0.49018 0.35945 0.0
O150 O 0.0687 0.52771 0.33713 0.0
O151 O 0.07836 0.52787 0.17027 0.0
O152 O 0.06731 0.49194 0.19804 0.0
C153 C 0.1273 0.47436 0.2119 0.0
O154 O 0.11923 0.54362 0.26257 0.0
O155 O 0.12269 0.5213 0.35947 0.0
In156 In 0.25115 0.16667 0.53903 0.0
O157 O 0.28618 0.14535 0.5614 0.0
O158 O 0.26972 0.14224 0.45369 0.0
C159 C 0.24899 0.20152 0.6453 0.0
C160 C 0.21728 0.13507 0.58668 0.0
C161 C 0.24998 0.19866 0.42581 0.0
O162 O 0.26844 0.19027 0.63081 0.0
O163 O 0.23084 0.19467 0.60775 0.0
O164 O 0.23258 0.18427 0.43828 0.0
O165 O 0.26789 0.19638 0.46928 0.0
C166 C 0.28688 0.13609 0.49621 0.0
O167 O 0.21653 0.14446 0.52194 0.0
O168 O 0.23513 0.14146 0.62634 0.0
In169 In 0.59544 0.50037 0.23239 0.0
O170 O 0.60738 0.461 0.24285 0.0
O171 O 0.62355 0.48711 0.31607 0.0
C172 C 0.56521 0.49802 0.11378 0.0
C173 C 0.62965 0.53081 0.17926 0.0
C174 C 0.56224 0.50497 0.34276 0.0
O175 O 0.57989 0.48114 0.12857 0.0
O176 O 0.56661 0.51616 0.15679 0.0
O177 O 0.57797 0.52122 0.33084 0.0
O178 O 0.56393 0.48661 0.30078 0.0
C179 C 0.6222 0.46521 0.29551 0.0
O180 O 0.61229 0.5382 0.21968 0.0
O181 O 0.62968 0.50835 0.16596 0.0
In182 In 0.24649 0.84667 0.01145 0.0
O183 O 0.21142 0.86773 0.03009 0.0
O184 O 0.23067 0.87328 0.92764 0.0
C185 C 0.24497 0.81301 0.11946 0.0
C186 C 0.28114 0.87666 0.06552 0.0
C187 C 0.24547 0.81314 0.90104 0.0
O188 O 0.22752 0.82745 0.10859 0.0
O189 O 0.26297 0.81592 0.07663 0.0
O190 O 0.2648 0.82417 0.91873 0.0
O191 O 0.22689 0.81975 0.937 0.0
C192 C 0.21241 0.87842 0.96739 0.0
O193 O 0.28144 0.86922 0.99803 0.0
O194 O 0.26351 0.86918 0.10396 0.0
In195 In 0.91843 0.49441 0.76952 0.0
O196 O 0.89557 0.52872 0.74882 0.0
O197 O 0.8963 0.51378 0.85876 0.0
C198 C 0.95153 0.49287 0.65817 0.0
C199 C 0.88642 0.45955 0.7307 0.0
C200 C 0.95245 0.4935 0.87755 0.0
O201 O 0.94013 0.51211 0.67436 0.0
O202 O 0.94558 0.4746 0.6964 0.0
O203 O 0.93822 0.47586 0.86625 0.0
O204 O 0.94912 0.51151 0.83536 0.0
C205 C 0.8884 0.53018 0.81631 0.0
O206 O 0.89625 0.4603 0.79486 0.0
O207 O 0.8926 0.47638 0.68691 0.0
H208 H 0.23011 0.27621 0.17412 0.0
H209 H 0.30011 0.30157 0.2485 0.0
H210 H 0.30229 0.26843 0.3391 0.0
H211 H 0.28411 0.23264 0.39776 0.0
H212 H 0.21401 0.20738 0.32402 0.0
H213 H 0.21213 0.24011 0.23184 0.0
C214 C 0.24583 0.27451 0.21024 0.0
C215 C 0.26489 0.29135 0.2049 0.0
C216 C 0.24697 0.25543 0.26192 0.0
C217 C 0.28518 0.28887 0.25176 0.0
C218 C 0.28645 0.26992 0.30343 0.0
C219 C 0.26846 0.23421 0.36127 0.0
C220 C 0.24922 0.21762 0.3676 0.0
C221 C 0.26744 0.25313 0.309 0.0
C222 C 0.22905 0.21993 0.32012 0.0
C223 C 0.22795 0.23865 0.26758 0.0
H224 H 0.97169 0.96422 0.38304 0.0
H225 H 0.94792 0.03739 0.42706 0.0
H226 H 0.98127 0.04303 0.51603 0.0
H227 H 0.01763 0.02741 0.57889 0.0
H228 H 0.04156 0.95436 0.53348 0.0
H229 H 0.00771 0.94848 0.44672 0.0
C230 C 0.97369 0.98136 0.41252 0.0
C231 C 0.95734 1.00036 0.3987 0.0
C232 C 0.99303 0.98454 0.46268 0.0
C233 C 0.96024 0.02248 0.43695 0.0
C234 C 0.97934 0.02573 0.48756 0.0
C235 C 0.01548 0.01022 0.54983 0.0
C236 C 0.03212 0.99137 0.56228 0.0
C237 C 0.99595 0.00695 0.50033 0.0
C238 C 0.02904 0.96917 0.52459 0.0
C239 C 0.00966 0.96578 0.47517 0.0
H240 H 0.22371 0.72445 0.68573 0.0
H241 H 0.30166 0.71947 0.69136 0.0
H242 H 0.30367 0.75472 0.77441 0.0
H243 H 0.28338 0.78756 0.84379 0.0
H244 H 0.20543 0.79245 0.83911 0.0
H245 H 0.20335 0.75695 0.75688 0.0
C246 C 0.24109 0.73093 0.70589 0.0
C247 C 0.26247 0.71931 0.6826 0.0
C248 C 0.24216 0.75144 0.75303 0.0
C249 C 0.2849 0.72806 0.7086 0.0
C250 C 0.2861 0.7483 0.75583 0.0
C251 C 0.26597 0.78096 0.82419 0.0
C252 C 0.24463 0.79271 0.84704 0.0
C253 C 0.26487 0.7603 0.77779 0.0
C254 C 0.22216 0.78377 0.82205 0.0
C255 C 0.22093 0.76341 0.77525 0.0
H256 H 0.47616 0.97903 0.10135 0.0
H257 H 0.45666 0.0533 0.05679 0.0
H258 H 0.49006 0.05657 0.9669 0.0
H259 H 0.5245 0.0382 0.90042 0.0
H260 H 0.54388 0.96389 0.9448 0.0
H261 H 0.51084 0.96081 0.03597 0.0
C262 C 0.47919 0.99593 0.07188 0.0
C263 C 0.46392 0.01588 0.08545 0.0
C264 C 0.49843 0.99769 0.02061 0.0
C265 C 0.46813 0.03768 0.04713 0.0
C266 C 0.48723 0.03956 0.99586 0.0
C267 C 0.52157 0.02136 0.93031 0.0
C268 C 0.53661 1.0013 0.91599 0.0
C269 C 0.50247 0.01968 0.98217 0.0
C270 C 0.53256 0.97959 0.95495 0.0
C271 C 0.51365 0.97781 0.00692 0.0
H272 H 0.27889 0.77856 0.1423 0.0
H273 H 0.20993 0.80428 0.22454 0.0
H274 H 0.20932 0.77208 0.31871 0.0
H275 H 0.22846 0.7368 0.37734 0.0
H276 H 0.29725 0.71092 0.29413 0.0
H277 H 0.29783 0.74311 0.20007 0.0
C278 C 0.26373 0.77716 0.18092 0.0
C279 C 0.2445 0.79379 0.17675 0.0
C280 C 0.26347 0.7586 0.23442 0.0
C281 C 0.22494 0.79169 0.22681 0.0
C282 C 0.22459 0.7733 0.28056 0.0
C283 C 0.24358 0.73819 0.33856 0.0
C284 C 0.26281 0.72155 0.3426 0.0
C285 C 0.24376 0.75668 0.28479 0.0
C286 C 0.28224 0.72353 0.29202 0.0
C287 C 0.28259 0.74192 0.23836 0.0
H288 H 0.47533 0.03829 0.39765 0.0
H289 H 0.4512 0.96562 0.44591 0.0
H290 H 0.48433 0.96078 0.53597 0.0
H291 H 0.52033 0.97711 0.59991 0.0
H292 H 0.54447 0.04973 0.55085 0.0
H293 H 0.51118 0.05463 0.46163 0.0
C294 C 0.47723 0.02142 0.42814 0.0
C295 C 0.46079 1.00235 0.41531 0.0
C296 C 0.4964 0.01872 0.47923 0.0
C297 C 0.46358 0.98058 0.45495 0.0
C298 C 0.48255 0.97779 0.50627 0.0
C299 C 0.51835 0.99399 0.56951 0.0
C300 C 0.53489 0.01302 0.58181 0.0
C301 C 0.49912 0.9967 0.51858 0.0
C302 C 0.53203 0.0348 0.54224 0.0
C303 C 0.51297 0.03762 0.49136 0.0
H304 H 0.28618 0.22453 0.71607 0.0
H305 H 0.20839 0.22486 0.69339 0.0
H306 H 0.20566 0.25986 0.77743 0.0
H307 H 0.22537 0.29037 0.85825 0.0
H308 H 0.30319 0.28997 0.88041 0.0
H309 H 0.30589 0.25529 0.79538 0.0
C310 C 0.26864 0.23219 0.72989 0.0
C311 C 0.24754 0.22204 0.69888 0.0
C312 C 0.26719 0.25247 0.77777 0.0
C313 C 0.22493 0.2323 0.71674 0.0
C314 C 0.22334 0.25236 0.76465 0.0
C315 C 0.24291 0.2828 0.84393 0.0
C316 C 0.26402 0.29276 0.87553 0.0
C317 C 0.24435 0.26265 0.7954 0.0
C318 C 0.28663 0.28265 0.85683 0.0
C319 C 0.28821 0.26276 0.80835 0.0
H320 H 0.01995 0.96889 0.86516 0.0
H321 H 0.0434 0.04051 0.93085 0.0
H322 H 0.01054 0.04282 0.02309 0.0
H323 H 0.97515 0.0245 0.08435 0.0
H324 H 0.95131 0.95316 0.01682 0.0
H325 H 0.98435 0.95077 0.92536 0.0
C326 C 0.01794 0.98498 0.89989 0.0
C327 C 0.03412 0.00448 0.89153 0.0
C328 C 0.9989 0.98626 0.95202 0.0
C329 C 0.03119 0.02526 0.93642 0.0
C330 C 0.0124 0.02659 0.98903 0.0
C331 C 0.97714 0.00844 0.04949 0.0
C332 C 0.96082 0.98902 0.05727 0.0
C333 C 0.99613 0.00722 0.99712 0.0
C334 C 0.96362 0.96836 0.01174 0.0
C335 C 0.98252 0.96697 0.95961 0.0
H336 H 0.7196 0.71316 0.7796 0.0
H337 H 0.79498 0.72497 0.832 0.0
H338 H 0.7956 0.7607 0.75149 0.0
H339 H 0.7747 0.78866 0.66576 0.0
H340 H 0.69928 0.77674 0.61396 0.0
H341 H 0.69865 0.74126 0.69518 0.0
C342 C 0.73619 0.72347 0.77295 0.0
C343 C 0.75722 0.71636 0.81131 0.0
C344 C 0.73637 0.74415 0.72721 0.0
C345 C 0.77854 0.73003 0.80279 0.0
C346 C 0.77891 0.75052 0.75697 0.0
C347 C 0.7581 0.7784 0.67284 0.0
C348 C 0.73708 0.78534 0.63406 0.0
C349 C 0.7579 0.75781 0.71911 0.0
C350 C 0.71572 0.77178 0.64329 0.0
C351 C 0.71535 0.75143 0.68952 0.0
H352 H 0.78612 0.28571 0.31188 0.0
H353 H 0.70846 0.29422 0.31699 0.0
H354 H 0.70376 0.25961 0.23235 0.0
H355 H 0.72161 0.22605 0.1599 0.0
H356 H 0.79927 0.21768 0.15401 0.0
H357 H 0.80404 0.2529 0.23629 0.0
C358 C 0.7682 0.28015 0.29374 0.0
C359 C 0.74769 0.29252 0.32063 0.0
C360 C 0.76559 0.26005 0.24565 0.0
C361 C 0.72456 0.28502 0.297 0.0
C362 C 0.72183 0.26515 0.24886 0.0
C363 C 0.73955 0.23188 0.17699 0.0
C364 C 0.76003 0.21919 0.15144 0.0
C365 C 0.7422 0.25233 0.22361 0.0
C366 C 0.7832 0.22711 0.17321 0.0
C367 C 0.78596 0.24729 0.22009 0.0
H368 H 0.72658 0.23249 0.862 0.0
H369 H 0.79118 0.19906 0.77271 0.0
H370 H 0.79509 0.23168 0.68056 0.0
H371 H 0.78024 0.26976 0.62639 0.0
H372 H 0.71602 0.30346 0.7176 0.0
H373 H 0.71194 0.27063 0.80869 0.0
C374 C 0.74145 0.23225 0.82211 0.0
C375 C 0.75852 0.21333 0.82384 0.0
C376 C 0.74372 0.25116 0.77014 0.0
C377 C 0.77779 0.21339 0.77229 0.0
C378 C 0.78005 0.23205 0.71977 0.0
C379 C 0.76538 0.26996 0.66634 0.0
C380 C 0.74845 0.28902 0.66535 0.0
C381 C 0.76316 0.25106 0.71843 0.0
C382 C 0.72931 0.28903 0.71739 0.0
C383 C 0.72694 0.27024 0.7693 0.0
H384 H 0.72055 0.72507 0.11446 0.0
H385 H 0.7924 0.7039 0.18309 0.0
H386 H 0.79397 0.73822 0.27081 0.0
H387 H 0.77495 0.77435 0.32688 0.0
H388 H 0.70312 0.79535 0.25731 0.0
H389 H 0.70164 0.76104 0.16999 0.0
C390 C 0.73652 0.72785 0.14894 0.0
C391 C 0.7563 0.71191 0.1426 0.0
C392 C 0.73737 0.7477 0.19833 0.0
C393 C 0.7769 0.71586 0.18725 0.0
C394 C 0.77784 0.73552 0.23711 0.0
C395 C 0.75903 0.77152 0.2922 0.0
C396 C 0.73919 0.78742 0.29825 0.0
C397 C 0.75822 0.75163 0.24274 0.0
C398 C 0.71864 0.78342 0.25343 0.0
C399 C 0.71775 0.76377 0.20376 0.0
H400 H 0.52824 0.52911 0.08953 0.0
H401 H 0.55947 0.46225 0.00848 0.0
H402 H 0.52643 0.45785 0.91775 0.0
H403 H 0.48837 0.47265 0.86349 0.0
H404 H 0.45685 0.53919 0.94615 0.0
H405 H 0.49031 0.54397 0.03507 0.0
C406 C 0.52793 0.51366 0.05161 0.0
C407 C 0.54631 0.49606 0.0554 0.0
C408 C 0.50875 0.51109 0.00056 0.0
C409 C 0.54557 0.47606 0.00639 0.0
C410 C 0.52665 0.47351 0.95477 0.0
C411 C 0.48877 0.48817 0.90114 0.0
C412 C 0.47014 0.50552 0.89848 0.0
C413 C 0.50806 0.49082 0.95181 0.0
C414 C 0.47095 0.52556 0.94735 0.0
C415 C 0.49009 0.52833 0.99799 0.0
H416 H 0.04065 0.47142 0.44517 0.0
H417 H 0.03804 0.54917 0.42244 0.0
H418 H 0.00293 0.55099 0.50564 0.0
H419 H 0.97288 0.53055 0.58537 0.0
H420 H 0.97546 0.45282 0.60839 0.0
H421 H 0.01037 0.45094 0.52426 0.0
C422 C 0.03247 0.48875 0.45884 0.0
C423 C 0.04201 0.51011 0.42793 0.0
C424 C 0.0121 0.48968 0.50634 0.0
C425 C 0.03108 0.53244 0.44564 0.0
C426 C 0.01095 0.53351 0.49308 0.0
C427 C 0.98098 0.5132 0.57146 0.0
C428 C 0.97155 0.49188 0.60293 0.0
C429 C 1.00123 0.51225 0.52358 0.0
C430 C 0.98235 0.46952 0.58482 0.0
C431 C 1.00237 0.46842 0.53688 0.0
H432 H 0.03131 0.47527 0.12697 0.0
H433 H 0.05381 0.54672 0.05815 0.0
H434 H 0.02091 0.54787 0.96592 0.0
H435 H 0.98568 0.52859 0.90579 0.0
H436 H 0.96328 0.45719 0.97558 0.0
H437 H 0.99627 0.45605 0.06709 0.0
C438 C 0.02909 0.49109 0.09164 0.0
C439 C 0.045 0.51088 0.09921 0.0
C440 C 0.01013 0.49165 0.03931 0.0
C441 C 0.04182 0.53125 0.05324 0.0
C442 C 0.023 0.53192 0.00066 0.0
C443 C 0.98798 0.5128 0.94116 0.0
C444 C 0.97204 0.49301 0.93408 0.0
C445 C 0.00701 0.51225 0.99343 0.0
C446 C 0.97528 0.47266 0.98009 0.0
C447 C 0.99416 0.47199 0.0323 0.0
H448 H 0.48152 0.53084 0.58172 0.0
H449 H 0.45749 0.45895 0.52104 0.0
H450 H 0.4911 0.45517 0.43209 0.0
H451 H 0.52753 0.47195 0.37358 0.0
H452 H 0.55226 0.54349 0.43543 0.0
H453 H 0.51818 0.54768 0.52286 0.0
C454 C 0.48352 0.51442 0.54853 0.0
C455 C 0.46698 0.49523 0.55756 0.0
C456 C 0.5031 0.51224 0.49849 0.0
C457 C 0.46994 0.47398 0.51485 0.0
C458 C 0.48919 0.47179 0.46423 0.0
C459 C 0.52554 0.48846 0.40633 0.0
C460 C 0.54242 0.50738 0.39822 0.0
C461 C 0.50595 0.49073 0.45607 0.0
C462 C 0.53955 0.52865 0.44094 0.0
C463 C 0.52004 0.53107 0.49066 0.0
H464 H 0.15224 0.43881 0.28413 0.0
H465 H 0.13909 0.46888 0.06442 0.0
H466 H 0.16692 0.43962 0.00794 0.0
H467 H 0.19635 0.40634 0.02144 0.0
H468 H 0.21169 0.37834 0.24241 0.0
H469 H 0.18172 0.40567 0.29768 0.0
C470 C 0.15538 0.43882 0.22388 0.0
C471 C 0.14363 0.45595 0.17857 0.0
C472 C 0.17188 0.42229 0.19191 0.0
C473 C 0.14801 0.45592 0.1006 0.0
C474 C 0.1639 0.43917 0.06819 0.0
C475 C 0.19293 0.40613 0.08154 0.0
C476 C 0.20614 0.39034 0.12774 0.0
C477 C 0.17613 0.42239 0.11332 0.0
C478 C 0.20178 0.39041 0.20569 0.0
C479 C 0.18465 0.40603 0.23738 0.0
H480 H 0.81978 0.86618 0.39302 0.0
H481 H 0.76335 0.91982 0.41071 0.0
H482 H 0.79108 0.9511 0.36557 0.0
H483 H 0.831 0.96302 0.31811 0.0
H484 H 0.88658 0.90901 0.28832 0.0
H485 H 0.85964 0.87798 0.34036 0.0
C486 C 0.81375 0.88478 0.38752 0.0
C487 C 0.78974 0.89086 0.40577 0.0
C488 C 0.82955 0.9025 0.35869 0.0
C489 C 0.78183 0.91484 0.3971 0.0
C490 C 0.79764 0.93269 0.37122 0.0
C491 C 0.8372 0.94445 0.32309 0.0
C492 C 0.86071 0.93828 0.29977 0.0
C493 C 0.82146 0.9267 0.3513 0.0
C494 C 0.86847 0.91413 0.30568 0.0
C495 C 0.85312 0.89643 0.33569 0.0
H496 H 0.29094 0.59097 0.59496 0.0
H497 H 0.34517 0.64506 0.54778 0.0
H498 H 0.37692 0.61783 0.59313 0.0
H499 H 0.38919 0.57843 0.64659 0.0
H500 H 0.33512 0.5233 0.68255 0.0
H501 H 0.30333 0.5511 0.64178 0.0
C502 C 0.30973 0.59674 0.59458 0.0
C503 C 0.31576 0.61995 0.56853 0.0
C504 C 0.32786 0.58083 0.61908 0.0
C505 C 0.34015 0.62719 0.5674 0.0
C506 C 0.35827 0.61168 0.5936 0.0
C507 C 0.37041 0.57266 0.64578 0.0
C508 C 0.36436 0.54904 0.6681 0.0
C509 C 0.35234 0.58847 0.61978 0.0
C510 C 0.3401 0.54147 0.66564 0.0
C511 C 0.32195 0.55733 0.64235 0.0
H512 H 0.70509 0.11709 0.81884 0.0
H513 H 0.6811 0.11439 0.0497 0.0
H514 H 0.64926 0.08557 0.01493 0.0
H515 H 0.62911 0.06019 0.91943 0.0
H516 H 0.6522 0.0641 0.68785 0.0
H517 H 0.6835 0.09349 0.72228 0.0
C518 C 0.69284 0.11024 0.8615 0.0
C519 C 0.69553 0.11771 0.93683 0.0
C520 C 0.67447 0.09389 0.84095 0.0
C521 C 0.67938 0.1089 0.99136 0.0
C522 C 0.66123 0.09239 0.97153 0.0
C523 C 0.64095 0.06755 0.87649 0.0
C524 C 0.63847 0.05987 0.80127 0.0
C525 C 0.65874 0.08461 0.89661 0.0
C526 C 0.65376 0.06972 0.74611 0.0
C527 C 0.67169 0.08648 0.7658 0.0
H528 H 0.15475 0.57598 0.25702 0.0
H529 H 0.14093 0.5443 0.47424 0.0
H530 H 0.16903 0.57283 0.53311 0.0
H531 H 0.1984 0.60631 0.52259 0.0
H532 H 0.21432 0.636 0.30405 0.0
H533 H 0.18461 0.60893 0.24617 0.0
C534 C 0.15785 0.57542 0.31724 0.0
C535 C 0.14576 0.55811 0.3612 0.0
C536 C 0.17446 0.59155 0.35056 0.0
C537 C 0.1501 0.55742 0.43911 0.0
C538 C 0.16614 0.57375 0.47288 0.0
C539 C 0.19521 0.60691 0.46242 0.0
C540 C 0.20843 0.62316 0.41771 0.0
C541 C 0.17853 0.59083 0.42916 0.0
C542 C 0.20437 0.62359 0.33965 0.0
C543 C 0.18739 0.60813 0.30648 0.0
H544 H 0.62344 0.94857 0.56925 0.0
H545 H 0.64941 0.94351 0.79745 0.0
H546 H 0.67819 0.91203 0.75936 0.0
H547 H 0.69679 0.88683 0.66007 0.0
H548 H 0.66961 0.89105 0.43296 0.0
H549 H 0.64042 0.9219 0.47177 0.0
C550 C 0.63536 0.94053 0.61068 0.0
C551 C 0.63444 0.94845 0.68592 0.0
C552 C 0.65165 0.92231 0.58853 0.0
C553 C 0.6498 0.93771 0.73916 0.0
C554 C 0.66628 0.91976 0.71738 0.0
C555 C 0.6844 0.89446 0.6192 0.0
C556 C 0.68544 0.88678 0.54367 0.0
C557 C 0.66749 0.91205 0.64208 0.0
C558 C 0.66916 0.89665 0.49144 0.0
C559 C 0.6525 0.91433 0.51354 0.0
H560 H 0.37739 0.45424 0.93432 0.0
H561 H 0.36102 0.43282 0.7062 0.0
H562 H 0.33031 0.40457 0.75179 0.0
H563 H 0.3074 0.38672 0.85613 0.0
H564 H 0.32522 0.40599 0.08481 0.0
H565 H 0.35609 0.43437 0.03956 0.0
C566 C 0.36715 0.44328 0.89473 0.0
C567 C 0.37135 0.44568 0.81701 0.0
C568 C 0.34974 0.42682 0.92143 0.0
C569 C 0.35815 0.43124 0.76629 0.0
C570 C 0.34053 0.41517 0.79229 0.0
C571 C 0.31803 0.39717 0.89601 0.0
C572 C 0.31392 0.39453 0.97358 0.0
C573 C 0.33604 0.41296 0.86964 0.0
C574 C 0.32807 0.40782 0.02478 0.0
C575 C 0.34568 0.42403 -0.00107 0.0
H576 H 0.81332 0.09762 0.97431 0.0
H577 H 0.79406 0.122 0.19737 0.0
H578 H 0.8217 0.09251 0.25245 0.0
H579 H 0.85095 0.05938 0.23764 0.0
H580 H 0.86849 0.03306 0.01539 0.0
H581 H 0.84198 0.06359 0.95963 0.0
C582 C 0.8153 0.09649 0.0349 0.0
C583 C 0.80177 0.11199 0.08169 0.0
C584 C 0.83086 0.07909 0.06637 0.0
C585 C 0.80426 0.1102 0.16017 0.0
C586 C 0.82007 0.09337 0.19175 0.0
C587 C 0.849 0.06039 0.17701 0.0
C588 C 0.86169 0.04408 0.1307 0.0
C589 C 0.83339 0.07766 0.14546 0.0
C590 C 0.85884 0.04541 0.05225 0.0
C591 C 0.84373 0.06289 0.02031 0.0
H592 H 0.82177 0.60415 0.99178 0.0
H593 H 0.79528 0.61717 0.7674 0.0
H594 H 0.8248 0.58848 0.71619 0.0
H595 H 0.85761 0.55873 0.73567 0.0
H596 H 0.88215 0.54418 0.96133 0.0
H597 H 0.85413 0.57438 0.01134 0.0
C598 C 0.82254 0.60078 0.93165 0.0
C599 C 0.80641 0.61279 0.88348 0.0
C600 C 0.83925 0.58393 0.90276 0.0
C601 C 0.80748 0.60809 0.80573 0.0
C602 C 0.82438 0.59171 0.77637 0.0
C603 C 0.8569 0.56234 0.79567 0.0
C604 C 0.87195 0.5493 0.84468 0.0
C605 C 0.84029 0.5794 0.82438 0.0
C606 C 0.87068 0.55394 0.92242 0.0
C607 C 0.85467 0.57122 0.95113 0.0
H608 H 0.18349 0.11052 0.50529 0.0
H609 H 0.20963 0.1215 0.73155 0.0
H610 H 0.17944 0.09312 0.77937 0.0
H611 H 0.14626 0.06428 0.75663 0.0
H612 H 0.12175 0.05139 0.52963 0.0
H613 H 0.15047 0.08142 0.48242 0.0
C614 C 0.18248 0.10674 0.56505 0.0
C615 C 0.19872 0.11808 0.61479 0.0
C616 C 0.16535 0.09005 0.59205 0.0
C617 C 0.19736 0.11291 0.69205 0.0
C618 C 0.18008 0.09672 0.7195 0.0
C619 C 0.14711 0.06821 0.69694 0.0
C620 C 0.13189 0.05575 0.64672 0.0
C621 C 0.16407 0.08508 0.67 0.0
C622 C 0.13333 0.06077 0.56939 0.0
C623 C 0.14975 0.07792 0.54234 0.0
H624 H 0.67569 0.37233 0.41858 0.0
H625 H 0.73092 0.4256 0.464 0.0
H626 H 0.70418 0.45785 0.41967 0.0
H627 H 0.66583 0.47061 0.36234 0.0
H628 H 0.61223 0.41695 0.30373 0.0
H629 H 0.63746 0.38509 0.35849 0.0
C630 C 0.68164 0.39106 0.41954 0.0
C631 C 0.70503 0.39675 0.44511 0.0
C632 C 0.66654 0.40934 0.39097 0.0
C633 C 0.7129 0.42093 0.4447 0.0
C634 C 0.69766 0.43932 0.41927 0.0
C635 C 0.65964 0.45195 0.36208 0.0
C636 C 0.63722 0.44607 0.3295 0.0
C637 C 0.67456 0.43371 0.39141 0.0
C638 C 0.6295 0.42183 0.32841 0.0
C639 C 0.64388 0.40365 0.35982 0.0
H640 H 0.35092 0.94284 0.25857 0.0
H641 H 0.3709 0.96807 0.03777 0.0
H642 H 0.34344 0.9387 0.97992 0.0
H643 H 0.31261 0.90655 0.99212 0.0
H644 H 0.291 0.8832 0.21352 0.0
H645 H 0.32016 0.91089 0.27081 0.0
C646 C 0.34934 0.94179 0.19782 0.0
C647 C 0.36292 0.95758 0.15259 0.0
C648 C 0.33314 0.92518 0.16491 0.0
C649 C 0.36056 0.95616 0.0739 0.0
C650 C 0.34488 0.93935 0.04071 0.0
C651 C 0.31445 0.90745 0.05282 0.0
C652 C 0.2997 0.89285 0.09846 0.0
C653 C 0.33092 0.92386 0.08563 0.0
C654 C 0.30209 0.89434 0.17712 0.0
C655 C 0.31878 0.91016 0.21001 0.0
H656 H 0.80625 0.37922 0.68481 0.0
H657 H 0.82209 0.39418 0.45185 0.0
H658 H 0.85281 0.42371 0.48971 0.0
H659 H 0.87409 0.44637 0.58898 0.0
H660 H 0.8598 0.43012 0.82195 0.0
H661 H 0.82956 0.39996 0.78426 0.0
C662 C 0.81654 0.38886 0.6424 0.0
C663 C 0.81183 0.38465 0.56567 0.0
C664 C 0.83435 0.40563 0.66459 0.0
C665 C 0.82542 0.39708 0.51127 0.0
C666 C 0.84292 0.41403 0.53287 0.0
C667 C 0.86436 0.43618 0.63146 0.0
C668 C 0.86895 0.44059 0.70811 0.0
C669 C 0.84734 0.41864 0.60933 0.0
C670 C 0.85652 0.42705 0.76259 0.0
C671 C 0.83922 0.40985 0.74106 0.0
H672 H 0.2992 0.12509 0.35279 0.0
H673 H 0.31722 0.10897 0.58322 0.0
H674 H 0.34708 0.07906 0.5407 0.0
H675 H 0.36724 0.05675 0.4376 0.0
H676 H 0.35072 0.07475 0.20737 0.0
H677 H 0.32108 0.10472 0.25011 0.0
C678 C 0.30972 0.11506 0.39369 0.0
C679 C 0.30591 0.11905 0.47102 0.0
C680 C 0.32705 0.09822 0.3688 0.0
C681 C 0.31986 0.10619 0.5234 0.0
C682 C 0.33685 0.08905 0.4991 0.0
C683 C 0.35715 0.06728 0.39688 0.0
C684 C 0.36098 0.06344 0.31944 0.0
C685 C 0.34047 0.08479 0.42193 0.0
C686 C 0.34806 0.07739 0.26725 0.0
C687 C 0.33109 0.09449 0.29165 0.0
H688 H 0.62499 0.57693 0.12794 0.0
H689 H 0.67722 0.52023 0.1649 0.0
H690 H 0.70959 0.54619 0.11683 0.0
H691 H 0.72306 0.58503 0.06432 0.0
H692 H 0.67051 0.64046 0.01538 0.0
H693 H 0.63818 0.61504 0.06724 0.0
C694 C 0.6435 0.5704 0.12561 0.0
C695 C 0.64887 0.54688 0.15055 0.0
C696 C 0.66187 0.58513 0.09531 0.0
C697 C 0.67276 0.53833 0.14607 0.0
C698 C 0.69124 0.55315 0.11862 0.0
C699 C 0.7045 0.59147 0.06485 0.0
C700 C 0.69913 0.61457 0.03655 0.0
C701 C 0.68601 0.57656 0.09301 0.0
C702 C 0.67502 0.62266 0.03665 0.0
C703 C 0.65657 0.60819 0.06661 0.0
H704 H 0.20285 0.89182 0.82404 0.0
H705 H 0.17948 0.90269 0.05335 0.0
H706 H 0.1485 0.93121 0.01109 0.0
H707 H 0.12837 0.9533 0.90905 0.0
H708 H 0.1501 0.94071 0.67902 0.0
H709 H 0.18138 0.91247 0.72131 0.0
C710 C 0.19098 0.90049 0.86468 0.0
C711 C 0.19352 0.89536 0.9417 0.0
C712 C 0.17293 0.91646 0.83981 0.0
C713 C 0.17785 0.9064 0.99377 0.0
C714 C 0.16017 0.92271 0.96965 0.0
C715 C 0.13995 0.94434 0.86821 0.0
C716 C 0.13708 0.94915 0.79111 0.0
C717 C 0.15759 0.9279 0.89285 0.0
C718 C 0.15198 0.93725 0.73868 0.0
C719 C 0.16989 0.92117 0.76284 0.0
loop_
_geom_bond_atom_site_label_1
_geom_bond_atom_site_label_2
_geom_bond_distance
_geom_bond_site_symmetry_2
_ccdc_geom_bond_type
In0 O1 2.294 1_554 S
In0 O2 2.326 . S
In0 O6 2.266 1_554 S
In0 O7 2.326 1_554 S
In0 O8 2.266 . S
In0 O9 2.326 . S
In0 O11 2.294 . S
In0 O12 2.326 1_554 S
O1 In0 2.294 1_556 S
O1 C10 1.240 1_556 S
O2 In0 2.326 . S
O2 C10 1.252 . S
C3 O6 1.252 . S
C3 O7 1.260 . S
C4 O11 1.240 1_556 S
C4 O12 1.252 . S
C5 O8 1.252 . S
C5 O9 1.260 . S
O6 In0 2.266 1_556 S
O6 C3 1.252 . S
O7 In0 2.326 1_556 S
O7 C3 1.260 . S
O8 In0 2.266 . S
O8 C5 1.252 . S
O9 In0 2.326 . S
O9 C5 1.260 . S
C10 O1 1.240 1_554 S
C10 O2 1.252 . S
O11 In0 2.294 . S
O11 C4 1.240 1_554 S
O12 In0 2.326 1_556 S
O12 C4 1.252 . S
In13 O14 2.294 . S
In13 O15 2.326 . S
In13 O19 2.266 . S
In13 O20 2.326 1_545 S
In13 O21 2.266 1_545 S
In13 O22 2.326 . S
In13 O24 2.294 1_545 S
In13 O25 2.326 1_545 S
O14 In13 2.294 . S
O14 C23 1.240 . S
O15 In13 2.326 . S
O15 C23 1.252 . S
C16 O19 1.253 . S
C16 O20 1.259 1_545 S
C17 O24 1.240 . S
C17 O25 1.252 . S
C18 O21 1.253 1_545 S
C18 O22 1.259 . S
O19 In13 2.266 . S
O19 C16 1.253 . S
O20 In13 2.326 1_565 S
O20 C16 1.259 1_565 S
O21 In13 2.266 1_565 S
O21 C18 1.253 1_565 S
O22 In13 2.326 . S
O22 C18 1.259 . S
C23 O14 1.240 . S
C23 O15 1.252 . S
O24 In13 2.294 1_565 S
O24 C17 1.240 . S
O25 In13 2.326 1_565 S
O25 C17 1.252 . S
In26 O27 2.294 . S
In26 O28 2.326 . S
In26 O32 2.266 . S
In26 O33 2.326 . S
In26 O34 2.266 . S
In26 O35 2.326 . S
In26 O37 2.294 . S
In26 O38 2.326 . S
O27 In26 2.294 . S
O27 C36 1.240 . S
O28 In26 2.326 . S
O28 C36 1.252 . S
C29 O32 1.252 . S
C29 O33 1.260 . S
C30 O37 1.240 . S
C30 O38 1.252 . S
C31 O34 1.252 . S
C31 O35 1.260 . S
O32 In26 2.266 . S
O32 C29 1.252 . S
O33 In26 2.326 . S
O33 C29 1.260 . S
O34 In26 2.266 . S
O34 C31 1.252 . S
O35 In26 2.326 . S
O35 C31 1.260 . S
C36 O27 1.240 . S
C36 O28 1.252 . S
O37 In26 2.294 . S
O37 C30 1.240 . S
O38 In26 2.326 . S
O38 C30 1.252 . S
In39 O40 2.294 . S
In39 O41 2.326 . S
In39 O45 2.266 . S
In39 O46 2.326 1_545 S
In39 O47 2.266 1_545 S
In39 O48 2.326 . S
In39 O50 2.294 1_545 S
In39 O51 2.326 1_545 S
O40 In39 2.294 . S
O40 C49 1.240 . S
O41 In39 2.326 . S
O41 C49 1.252 . S
C42 O45 1.253 . S
C42 O46 1.259 1_545 S
C43 O50 1.240 . S
C43 O51 1.252 . S
C44 O47 1.253 1_545 S
C44 O48 1.259 . S
O45 In39 2.266 . S
O45 C42 1.253 . S
O46 In39 2.326 1_565 S
O46 C42 1.259 1_565 S
O47 In39 2.266 1_565 S
O47 C44 1.253 1_565 S
O48 In39 2.326 . S
O48 C44 1.259 . S
C49 O40 1.240 . S
C49 O41 1.252 . S
O50 In39 2.294 1_565 S
O50 C43 1.240 . S
O51 In39 2.326 1_565 S
O51 C43 1.252 . S
In52 O53 2.294 1_554 S
In52 O54 2.326 . S
In52 O58 2.266 1_554 S
In52 O59 2.326 1_554 S
In52 O60 2.266 . S
In52 O61 2.326 . S
In52 O63 2.294 . S
In52 O64 2.326 1_554 S
O53 In52 2.294 1_556 S
O53 C62 1.240 1_556 S
O54 In52 2.326 . S
O54 C62 1.252 . S
C55 O58 1.252 . S
C55 O59 1.260 . S
C56 O63 1.240 1_556 S
C56 O64 1.252 . S
C57 O60 1.252 . S
C57 O61 1.260 . S
O58 In52 2.266 1_556 S
O58 C55 1.252 . S
O59 In52 2.326 1_556 S
O59 C55 1.260 . S
O60 In52 2.266 . S
O60 C57 1.252 . S
O61 In52 2.326 . S
O61 C57 1.260 . S
C62 O53 1.240 1_554 S
C62 O54 1.252 . S
O63 In52 2.294 . S
O63 C56 1.240 1_554 S
O64 In52 2.326 1_556 S
O64 C56 1.252 . S
In65 O66 2.294 . S
In65 O67 2.326 . S
In65 O71 2.266 . S
In65 O72 2.326 1_545 S
In65 O73 2.266 1_545 S
In65 O74 2.326 . S
In65 O76 2.294 1_545 S
In65 O77 2.326 1_545 S
O66 In65 2.294 . S
O66 C75 1.240 . S
O67 In65 2.326 . S
O67 C75 1.252 . S
C68 O71 1.253 . S
C68 O72 1.259 1_545 S
C69 O76 1.240 . S
C69 O77 1.252 . S
C70 O73 1.253 1_545 S
C70 O74 1.259 . S
O71 In65 2.266 . S
O71 C68 1.253 . S
O72 In65 2.326 1_565 S
O72 C68 1.259 1_565 S
O73 In65 2.266 1_565 S
O73 C70 1.253 1_565 S
O74 In65 2.326 . S
O74 C70 1.259 . S
C75 O66 1.240 . S
C75 O67 1.252 . S
O76 In65 2.294 1_565 S
O76 C69 1.240 . S
O77 In65 2.326 1_565 S
O77 C69 1.252 . S
In78 O79 2.294 . S
In78 O80 2.326 . S
In78 O84 2.266 . S
In78 O85 2.326 . S
In78 O86 2.266 . S
In78 O87 2.326 . S
In78 O89 2.294 . S
In78 O90 2.326 . S
O79 In78 2.294 . S
O79 C88 1.240 . S
O80 In78 2.326 . S
O80 C88 1.252 . S
C81 O84 1.252 . S
C81 O85 1.260 . S
C82 O89 1.240 . S
C82 O90 1.252 . S
C83 O86 1.252 . S
C83 O87 1.260 . S
O84 In78 2.266 . S
O84 C81 1.252 . S
O85 In78 2.326 . S
O85 C81 1.260 . S
O86 In78 2.266 . S
O86 C83 1.252 . S
O87 In78 2.326 . S
O87 C83 1.260 . S
C88 O79 1.240 . S
C88 O80 1.252 . S
O89 In78 2.294 . S
O89 C82 1.240 . S
O90 In78 2.326 . S
O90 C82 1.252 . S
In91 O92 2.294 1_545 S
In91 O93 2.326 1_545 S
In91 O97 2.266 1_545 S
In91 O98 2.326 . S
In91 O99 2.266 . S
In91 O100 2.326 1_545 S
In91 O102 2.294 . S
In91 O103 2.326 . S
O92 In91 2.294 1_565 S
O92 C101 1.240 . S
O93 In91 2.326 1_565 S
O93 C101 1.252 . S
C94 O97 1.253 1_545 S
C94 O98 1.259 . S
C95 O102 1.240 . S
C95 O103 1.252 . S
C96 O99 1.253 . S
C96 O100 1.259 1_545 S
O97 In91 2.266 1_565 S
O97 C94 1.253 1_565 S
O98 In91 2.326 . S
O98 C94 1.259 . S
O99 In91 2.266 . S
O99 C96 1.253 . S
O100 In91 2.326 1_565 S
O100 C96 1.259 1_565 S
C101 O92 1.240 . S
C101 O93 1.252 . S
O102 In91 2.294 . S
O102 C95 1.240 . S
O103 In91 2.326 . S
O103 C95 1.252 . S
In104 O105 2.294 . S
In104 O106 2.326 . S
In104 O110 2.266 . S
In104 O111 2.326 . S
In104 O112 2.266 . S
In104 O113 2.326 . S
In104 O115 2.294 . S
In104 O116 2.326 . S
O105 In104 2.294 . S
O105 C114 1.240 . S
O106 In104 2.326 . S
O106 C114 1.252 . S
C107 O110 1.252 . S
C107 O111 1.260 . S
C108 O115 1.240 . S
C108 O116 1.252 . S
C109 O112 1.252 . S
C109 O113 1.260 . S
O110 In104 2.266 . S
O110 C107 1.252 . S
O111 In104 2.326 . S
O111 C107 1.260 . S
O112 In104 2.266 . S
O112 C109 1.252 . S
O113 In104 2.326 . S
O113 C109 1.260 . S
C114 O105 1.240 . S
C114 O106 1.252 . S
O115 In104 2.294 . S
O115 C108 1.240 . S
O116 In104 2.326 . S
O116 C108 1.252 . S
In117 O118 2.294 . S
In117 O119 2.326 . S
In117 O123 2.266 . S
In117 O124 2.326 . S
In117 O125 2.266 . S
In117 O126 2.326 . S
In117 O128 2.294 . S
In117 O129 2.326 . S
O118 In117 2.294 . S
O118 C127 1.240 . S
O119 In117 2.326 . S
O119 C127 1.252 . S
C120 O123 1.252 . S
C120 O124 1.260 . S
C121 O128 1.240 . S
C121 O129 1.252 . S
C122 O125 1.252 . S
C122 O126 1.260 . S
O123 In117 2.266 . S
O123 C120 1.252 . S
O124 In117 2.326 . S
O124 C120 1.260 . S
O125 In117 2.266 . S
O125 C122 1.252 . S
O126 In117 2.326 . S
O126 C122 1.260 . S
C127 O118 1.240 . S
C127 O119 1.252 . S
O128 In117 2.294 . S
O128 C121 1.240 . S
O129 In117 2.326 . S
O129 C121 1.252 . S
In130 O131 2.294 1_554 S
In130 O132 2.326 . S
In130 O136 2.266 1_554 S
In130 O137 2.326 1_554 S
In130 O138 2.266 . S
In130 O139 2.326 . S
In130 O141 2.294 . S
In130 O142 2.326 1_554 S
O131 In130 2.294 1_556 S
O131 C140 1.240 1_556 S
O132 In130 2.326 . S
O132 C140 1.252 . S
C133 O136 1.252 . S
C133 O137 1.260 . S
C134 O141 1.240 1_556 S
C134 O142 1.252 . S
C135 O138 1.252 . S
C135 O139 1.260 . S
O136 In130 2.266 1_556 S
O136 C133 1.252 . S
O137 In130 2.326 1_556 S
O137 C133 1.260 . S
O138 In130 2.266 . S
O138 C135 1.252 . S
O139 In130 2.326 . S
O139 C135 1.260 . S
C140 O131 1.240 1_554 S
C140 O132 1.252 . S
O141 In130 2.294 . S
O141 C134 1.240 1_554 S
O142 In130 2.326 1_556 S
O142 C134 1.252 . S
In143 O144 2.294 . S
In143 O145 2.326 . S
In143 O149 2.266 . S
In143 O150 2.326 . S
In143 O151 2.266 . S
In143 O152 2.326 . S
In143 O154 2.294 . S
In143 O155 2.326 . S
O144 In143 2.294 . S
O144 C153 1.240 . S
O145 In143 2.326 . S
O145 C153 1.252 . S
C146 O149 1.252 . S
C146 O150 1.260 . S
C147 O154 1.240 . S
C147 O155 1.252 . S
C148 O151 1.252 . S
C148 O152 1.260 . S
O149 In143 2.266 . S
O149 C146 1.252 . S
O150 In143 2.326 . S
O150 C146 1.260 . S
O151 In143 2.266 . S
O151 C148 1.252 . S
O152 In143 2.326 . S
O152 C148 1.260 . S
C153 O144 1.240 . S
C153 O145 1.252 . S
O154 In143 2.294 . S
O154 C147 1.240 . S
O155 In143 2.326 . S
O155 C147 1.252 . S
In156 O157 2.294 . S
In156 O158 2.326 . S
In156 O162 2.266 . S
In156 O163 2.326 . S
In156 O164 2.266 . S
In156 O165 2.326 . S
In156 O167 2.294 . S
In156 O168 2.326 . S
O157 In156 2.294 . S
O157 C166 1.240 . S
O158 In156 2.326 . S
O158 C166 1.252 . S
C159 O162 1.252 . S
C159 O163 1.260 . S
C160 O167 1.240 . S
C160 O168 1.252 . S
C161 O164 1.252 . S
C161 O165 1.260 . S
O162 In156 2.266 . S
O162 C159 1.252 . S
O163 In156 2.326 . S
O163 C159 1.260 . S
O164 In156 2.266 . S
O164 C161 1.252 . S
O165 In156 2.326 . S
O165 C161 1.260 . S
C166 O157 1.240 . S
C166 O158 1.252 . S
O167 In156 2.294 . S
O167 C160 1.240 . S
O168 In156 2.326 . S
O168 C160 1.252 . S
In169 O170 2.294 . S
In169 O171 2.326 . S
In169 O175 2.266 . S
In169 O176 2.326 . S
In169 O177 2.266 . S
In169 O178 2.326 . S
In169 O180 2.294 . S
In169 O181 2.326 . S
O170 In169 2.294 . S
O170 C179 1.240 . S
O171 In169 2.326 . S
O171 C179 1.252 . S
C172 O175 1.252 . S
C172 O176 1.260 . S
C173 O180 1.240 . S
C173 O181 1.252 . S
C174 O177 1.252 . S
C174 O178 1.260 . S
O175 In169 2.266 . S
O175 C172 1.252 . S
O176 In169 2.326 . S
O176 C172 1.260 . S
O177 In169 2.266 . S
O177 C174 1.252 . S
O178 In169 2.326 . S
O178 C174 1.260 . S
C179 O170 1.240 . S
C179 O171 1.252 . S
O180 In169 2.294 . S
O180 C173 1.240 . S
O181 In169 2.326 . S
O181 C173 1.252 . S
In182 O183 2.294 . S
In182 O184 2.326 1_554 S
In182 O188 2.266 . S
In182 O189 2.326 . S
In182 O190 2.266 1_554 S
In182 O191 2.326 1_554 S
In182 O193 2.294 1_554 S
In182 O194 2.326 . S
O183 In182 2.294 . S
O183 C192 1.240 1_554 S
O184 In182 2.326 1_556 S
O184 C192 1.252 . S
C185 O188 1.252 . S
C185 O189 1.260 . S
C186 O193 1.240 1_554 S
C186 O194 1.252 . S
C187 O190 1.252 . S
C187 O191 1.260 . S
O188 In182 2.266 . S
O188 C185 1.252 . S
O189 In182 2.326 . S
O189 C185 1.260 . S
O190 In182 2.266 1_556 S
O190 C187 1.252 . S
O191 In182 2.326 1_556 S
O191 C187 1.260 . S
C192 O183 1.240 1_556 S
C192 O184 1.252 . S
O193 In182 2.294 1_556 S
O193 C186 1.240 1_556 S
O194 In182 2.326 . S
O194 C186 1.252 . S
In195 O196 2.294 . S
In195 O197 2.326 . S
In195 O201 2.266 . S
In195 O202 2.326 . S
In195 O203 2.266 . S
In195 O204 2.326 . S
In195 O206 2.294 . S
In195 O207 2.326 . S
O196 In195 2.294 . S
O196 C205 1.240 . S
O197 In195 2.326 . S
O197 C205 1.252 . S
C198 O201 1.252 . S
C198 O202 1.260 . S
C199 O206 1.240 . S
C199 O207 1.252 . S
C200 O203 1.252 . S
C200 O204 1.260 . S
O201 In195 2.266 . S
O201 C198 1.252 . S
O202 In195 2.326 . S
O202 C198 1.260 . S
O203 In195 2.266 . S
O203 C200 1.252 . S
O204 In195 2.326 . S
O204 C200 1.260 . S
C205 O196 1.240 . S
C205 O197 1.252 . S
O206 In195 2.294 . S
O206 C199 1.240 . S
O207 In195 2.326 . S
O207 C199 1.252 . S
H208 C214 0.930 . S
H209 C217 0.930 . S
H210 C218 0.930 . S
H211 C219 0.930 . S
H212 C222 0.930 . S
H213 C223 0.930 . S
C214 H208 0.930 . S
C214 C215 1.355 . S
C214 C216 1.415 . S
C215 C214 1.355 . S
C215 C217 1.419 . S
C216 C214 1.415 . S
C216 C221 1.425 . S
C216 C223 1.409 . S
C217 H209 0.930 . S
C217 C215 1.419 . S
C217 C218 1.362 . S
C218 H210 0.930 . S
C218 C217 1.362 . S
C218 C221 1.409 . S
C219 H211 0.930 . S
C219 C220 1.355 . S
C219 C221 1.415 . S
C220 C219 1.355 . S
C220 C222 1.419 . S
C221 C216 1.425 . S
C221 C218 1.409 . S
C221 C219 1.415 . S
C222 H212 0.930 . S
C222 C220 1.419 . S
C222 C223 1.362 . S
C223 H213 0.930 . S
C223 C216 1.409 . S
C223 C222 1.362 . S
H224 C230 0.930 . S
H225 C233 0.930 . S
H226 C234 0.930 . S
H227 C235 0.930 . S
H228 C238 0.930 . S
H229 C239 0.930 . S
C230 H224 0.930 . S
C230 C231 1.344 1_565 S
C230 C232 1.415 1_655 S
C231 C230 1.344 1_545 S
C231 C233 1.433 . S
C232 C230 1.415 1_455 S
C232 C237 1.425 1_465 S
C232 C239 1.409 . S
C233 H225 0.930 . S
C233 C231 1.433 . S
C233 C234 1.362 . S
C234 H226 0.930 . S
C234 C233 1.362 . S
C234 C237 1.409 . S
C235 H227 0.930 . S
C235 C236 1.347 1_545 S
C235 C237 1.415 1_455 S
C236 C235 1.347 1_565 S
C236 C238 1.428 . S
C237 C232 1.425 1_645 S
C237 C234 1.409 . S
C237 C235 1.415 1_655 S
C238 H228 0.930 . S
C238 C236 1.428 . S
C238 C239 1.362 . S
C239 H229 0.930 . S
C239 C232 1.409 . S
C239 C238 1.362 . S
H240 C246 0.930 . S
H241 C249 0.930 . S
H242 C250 0.930 . S
H243 C251 0.930 . S
H244 C254 0.930 . S
H245 C255 0.930 . S
C246 H240 0.930 . S
C246 C247 1.355 . S
C246 C248 1.415 . S
C247 C246 1.355 . S
C247 C249 1.419 . S
C248 C246 1.415 . S
C248 C253 1.425 . S
C248 C255 1.409 . S
C249 H241 0.930 . S
C249 C247 1.419 . S
C249 C250 1.362 . S
C250 H242 0.930 . S
C250 C249 1.362 . S
C250 C253 1.409 . S
C251 H243 0.930 . S
C251 C252 1.355 . S
C251 C253 1.415 . S
C252 C251 1.355 . S
C252 C254 1.419 . S
C253 C248 1.425 . S
C253 C250 1.409 . S
C253 C251 1.415 . S
C254 H244 0.930 . S
C254 C252 1.419 . S
C254 C255 1.362 . S
C255 H245 0.930 . S
C255 C248 1.409 . S
C255 C254 1.362 . S
H256 C262 0.930 1_556 S
H257 C265 0.930 . S
H258 C266 0.930 . S
H259 C267 0.930 1_554 S
H260 C270 0.933 . S
H261 C271 0.932 . S
C262 H256 0.930 1_554 S
C262 C263 1.355 . S
C262 C264 1.416 1_554 S
C263 C262 1.355 . S
C263 C265 1.419 1_565 S
C264 C262 1.416 1_556 S
C264 C269 1.424 1_566 S
C264 C271 1.409 . S
C265 H257 0.930 . S
C265 C263 1.419 1_545 S
C265 C266 1.362 . S
C266 H258 0.930 . S
C266 C265 1.362 . S
C266 C269 1.410 . S
C267 H259 0.930 1_556 S
C267 C268 1.355 . S
C267 C269 1.416 1_556 S
C268 C267 1.355 . S
C268 C270 1.417 1_545 S
C269 C264 1.424 1_544 S
C269 C266 1.410 . S
C269 C267 1.416 1_554 S
C270 H260 0.933 . S
C270 C268 1.417 1_565 S
C270 C271 1.362 . S
C271 H261 0.932 . S
C271 C264 1.409 . S
C271 C270 1.362 . S
H272 C278 0.930 . S
H273 C281 0.930 . S
H274 C282 0.930 . S
H275 C283 0.930 . S
H276 C286 0.930 . S
H277 C287 0.930 . S
C278 H272 0.930 . S
C278 C279 1.355 . S
C278 C280 1.415 . S
C279 C278 1.355 . S
C279 C281 1.419 . S
C280 C278 1.415 . S
C280 C285 1.425 . S
C280 C287 1.409 . S
C281 H273 0.930 . S
C281 C279 1.419 . S
C281 C282 1.362 . S
C282 H274 0.930 . S
C282 C281 1.362 . S
C282 C285 1.409 . S
C283 H275 0.930 . S
C283 C284 1.355 . S
C283 C285 1.415 . S
C284 C283 1.355 . S
C284 C286 1.419 . S
C285 C280 1.425 . S
C285 C282 1.409 . S
C285 C283 1.415 . S
C286 H276 0.930 . S
C286 C284 1.419 . S
C286 C287 1.362 . S
C287 H277 0.930 . S
C287 C280 1.409 . S
C287 C286 1.362 . S
H288 C294 0.930 . S
H289 C297 0.930 . S
H290 C298 0.930 . S
H291 C299 0.930 . S
H292 C302 0.930 . S
H293 C303 0.930 . S
C294 H288 0.930 . S
C294 C295 1.354 1_545 S
C294 C296 1.415 . S
C295 C294 1.354 1_565 S
C295 C297 1.420 . S
C296 C294 1.415 . S
C296 C301 1.425 1_545 S
C296 C303 1.409 . S
C297 H289 0.930 . S
C297 C295 1.420 . S
C297 C298 1.362 . S
C298 H290 0.930 . S
C298 C297 1.362 . S
C298 C301 1.409 . S
C299 H291 0.930 . S
C299 C300 1.351 1_565 S
C299 C301 1.415 . S
C300 C299 1.351 1_545 S
C300 C302 1.424 . S
C301 C296 1.425 1_565 S
C301 C298 1.409 . S
C301 C299 1.415 . S
C302 H292 0.930 . S
C302 C300 1.424 . S
C302 C303 1.362 . S
C303 H293 0.930 . S
C303 C296 1.409 . S
C303 C302 1.362 . S
H304 C310 0.930 . S
H305 C313 0.930 . S
H306 C314 0.930 . S
H307 C315 0.930 . S
H308 C318 0.930 . S
H309 C319 0.930 . S
C310 H304 0.930 . S
C310 C311 1.355 . S
C310 C312 1.415 . S
C311 C310 1.355 . S
C311 C313 1.419 . S
C312 C310 1.415 . S
C312 C317 1.425 . S
C312 C319 1.409 . S
C313 H305 0.930 . S
C313 C311 1.419 . S
C313 C314 1.362 . S
C314 H306 0.930 . S
C314 C313 1.362 . S
C314 C317 1.409 . S
C315 H307 0.930 . S
C315 C316 1.355 . S
C315 C317 1.415 . S
C316 C315 1.355 . S
C316 C318 1.419 . S
C317 C312 1.425 . S
C317 C314 1.409 . S
C317 C315 1.415 . S
C318 H308 0.930 . S
C318 C316 1.419 . S
C318 C319 1.362 . S
C319 H309 0.930 . S
C319 C312 1.409 . S
C319 C318 1.362 . S
H320 C326 0.930 . S
H321 C329 0.930 . S
H322 C330 0.930 1_554 S
H323 C331 0.930 . S
H324 C334 0.930 . S
H325 C335 0.930 1_556 S
C326 H320 0.930 . S
C326 C327 1.355 1_565 S
C326 C328 1.432 . S
C327 C326 1.355 1_545 S
C327 C329 1.419 . S
C328 C326 1.432 . S
C328 C333 1.424 1_466 S
C328 C335 1.393 1_456 S
C329 H321 0.930 . S
C329 C327 1.419 . S
C329 C330 1.363 . S
C330 H322 0.930 1_556 S
C330 C329 1.363 . S
C330 C333 1.393 1_456 S
C331 H323 0.930 . S
C331 C332 1.355 1_545 S
C331 C333 1.432 . S
C332 C331 1.355 1_565 S
C332 C334 1.419 . S
C333 C328 1.424 1_644 S
C333 C330 1.393 1_654 S
C333 C331 1.432 . S
C334 H324 0.930 . S
C334 C332 1.419 . S
C334 C335 1.363 . S
C335 H325 0.930 1_554 S
C335 C328 1.393 1_654 S
C335 C334 1.363 . S
H336 C342 0.930 . S
H337 C345 0.930 . S
H338 C346 0.930 . S
H339 C347 0.930 . S
H340 C350 0.930 . S
H341 C351 0.930 . S
C342 H336 0.930 . S
C342 C343 1.355 . S
C342 C344 1.415 . S
C343 C342 1.355 . S
C343 C345 1.419 . S
C344 C342 1.415 . S
C344 C349 1.425 . S
C344 C351 1.409 . S
C345 H337 0.930 . S
C345 C343 1.419 . S
C345 C346 1.362 . S
C346 H338 0.930 . S
C346 C345 1.362 . S
C346 C349 1.409 . S
C347 H339 0.930 . S
C347 C348 1.355 . S
C347 C349 1.415 . S
C348 C347 1.355 . S
C348 C350 1.419 . S
C349 C344 1.425 . S
C349 C346 1.409 . S
C349 C347 1.415 . S
C350 H340 0.930 . S
C350 C348 1.419 . S
C350 C351 1.362 . S
C351 H341 0.930 . S
C351 C344 1.409 . S
C351 C350 1.362 . S
H352 C358 0.930 . S
H353 C361 0.930 . S
H354 C362 0.930 . S
H355 C363 0.930 . S
H356 C366 0.930 . S
H357 C367 0.930 . S
C358 H352 0.930 . S
C358 C359 1.355 . S
C358 C360 1.415 . S
C359 C358 1.355 . S
C359 C361 1.419 . S
C360 C358 1.415 . S
C360 C365 1.425 . S
C360 C367 1.409 . S
C361 H353 0.930 . S
C361 C359 1.419 . S
C361 C362 1.362 . S
C362 H354 0.930 . S
C362 C361 1.362 . S
C362 C365 1.409 . S
C363 H355 0.930 . S
C363 C364 1.355 . S
C363 C365 1.415 . S
C364 C363 1.355 . S
C364 C366 1.419 . S
C365 C360 1.425 . S
C365 C362 1.409 . S
C365 C363 1.415 . S
C366 H356 0.930 . S
C366 C364 1.419 . S
C366 C367 1.362 . S
C367 H357 0.930 . S
C367 C360 1.409 . S
C367 C366 1.362 . S
H368 C374 0.930 . S
H369 C377 0.930 . S
H370 C378 0.930 . S
H371 C379 0.930 . S
H372 C382 0.930 . S
H373 C383 0.930 . S
C374 H368 0.930 . S
C374 C375 1.355 . S
C374 C376 1.415 . S
C375 C374 1.355 . S
C375 C377 1.419 . S
C376 C374 1.415 . S
C376 C381 1.425 . S
C376 C383 1.409 . S
C377 H369 0.930 . S
C377 C375 1.419 . S
C377 C378 1.362 . S
C378 H370 0.930 . S
C378 C377 1.362 . S
C378 C381 1.409 . S
C379 H371 0.930 . S
C379 C380 1.355 . S
C379 C381 1.415 . S
C380 C379 1.355 . S
C380 C382 1.419 . S
C381 C376 1.425 . S
C381 C378 1.409 . S
C381 C379 1.415 . S
C382 H372 0.930 . S
C382 C380 1.419 . S
C382 C383 1.362 . S
C383 H373 0.930 . S
C383 C376 1.409 . S
C383 C382 1.362 . S
H384 C390 0.930 . S
H385 C393 0.930 . S
H386 C394 0.930 . S
H387 C395 0.930 . S
H388 C398 0.930 . S
H389 C399 0.930 . S
C390 H384 0.930 . S
C390 C391 1.355 . S
C390 C392 1.415 . S
C391 C390 1.355 . S
C391 C393 1.419 . S
C392 C390 1.415 . S
C392 C397 1.425 . S
C392 C399 1.409 . S
C393 H385 0.930 . S
C393 C391 1.419 . S
C393 C394 1.362 . S
C394 H386 0.930 . S
C394 C393 1.362 . S
C394 C397 1.409 . S
C395 H387 0.930 . S
C395 C396 1.355 . S
C395 C397 1.415 . S
C396 C395 1.355 . S
C396 C398 1.419 . S
C397 C392 1.425 . S
C397 C394 1.409 . S
C397 C395 1.415 . S
C398 H388 0.930 . S
C398 C396 1.419 . S
C398 C399 1.362 . S
C399 H389 0.930 . S
C399 C392 1.409 . S
C399 C398 1.362 . S
H400 C406 0.930 . S
H401 C409 0.930 . S
H402 C410 0.930 . S
H403 C411 0.930 . S
H404 C414 0.930 . S
H405 C415 0.930 . S
C406 H400 0.930 . S
C406 C407 1.355 . S
C406 C408 1.415 . S
C407 C406 1.355 . S
C407 C409 1.419 . S
C408 C406 1.415 . S
C408 C413 1.425 1_554 S
C408 C415 1.409 . S
C409 H401 0.930 . S
C409 C407 1.419 . S
C409 C410 1.362 1_554 S
C410 H402 0.930 . S
C410 C409 1.362 1_556 S
C410 C413 1.409 . S
C411 H403 0.930 . S
C411 C412 1.355 . S
C411 C413 1.415 . S
C412 C411 1.355 . S
C412 C414 1.419 . S
C413 C408 1.425 1_556 S
C413 C410 1.409 . S
C413 C411 1.415 . S
C414 H404 0.930 . S
C414 C412 1.419 . S
C414 C415 1.362 1_556 S
C415 H405 0.930 . S
C415 C408 1.409 . S
C415 C414 1.362 1_554 S
H416 C422 0.930 . S
H417 C425 0.930 . S
H418 C426 0.930 . S
H419 C427 0.930 . S
H420 C430 0.930 . S
H421 C431 0.930 . S
C422 H416 0.930 . S
C422 C423 1.355 . S
C422 C424 1.415 1_455 S
C423 C422 1.355 . S
C423 C425 1.419 . S
C424 C422 1.415 1_655 S
C424 C429 1.425 1_655 S
C424 C431 1.409 . S
C425 H417 0.930 . S
C425 C423 1.419 . S
C425 C426 1.362 . S
C426 H418 0.930 . S
C426 C425 1.362 . S
C426 C429 1.409 . S
C427 H419 0.930 . S
C427 C428 1.355 . S
C427 C429 1.415 1_655 S
C428 C427 1.355 . S
C428 C430 1.419 . S
C429 C424 1.425 1_455 S
C429 C426 1.409 . S
C429 C427 1.415 1_455 S
C430 H420 0.930 . S
C430 C428 1.419 . S
C430 C431 1.362 . S
C431 H421 0.930 . S
C431 C424 1.409 . S
C431 C430 1.362 . S
H432 C438 0.930 . S
H433 C441 0.930 . S
H434 C442 0.930 . S
H435 C443 0.930 . S
H436 C446 0.930 . S
H437 C447 0.930 . S
C438 H432 0.930 . S
C438 C439 1.355 . S
C438 C440 1.437 . S
C439 C438 1.355 . S
C439 C441 1.419 . S
C440 C438 1.437 . S
C440 C445 1.423 1_454 S
C440 C447 1.388 1_455 S
C441 H433 0.930 . S
C441 C439 1.419 . S
C441 C442 1.362 1_554 S
C442 H434 0.930 . S
C442 C441 1.362 1_556 S
C442 C445 1.388 1_455 S
C443 H435 0.930 . S
C443 C444 1.355 . S
C443 C445 1.437 . S
C444 C443 1.355 . S
C444 C446 1.419 . S
C445 C440 1.423 1_656 S
C445 C442 1.388 1_655 S
C445 C443 1.437 . S
C446 H436 0.930 . S
C446 C444 1.419 . S
C446 C447 1.362 1_556 S
C447 H437 0.930 . S
C447 C440 1.388 1_655 S
C447 C446 1.362 1_554 S
H448 C454 0.930 . S
H449 C457 0.930 . S
H450 C458 0.930 . S
H451 C459 0.930 . S
H452 C462 0.930 . S
H453 C463 0.930 . S
C454 H448 0.930 . S
C454 C455 1.355 . S
C454 C456 1.415 . S
C455 C454 1.355 . S
C455 C457 1.419 . S
C456 C454 1.415 . S
C456 C461 1.425 . S
C456 C463 1.409 . S
C457 H449 0.930 . S
C457 C455 1.419 . S
C457 C458 1.362 . S
C458 H450 0.930 . S
C458 C457 1.362 . S
C458 C461 1.409 . S
C459 H451 0.930 . S
C459 C460 1.355 . S
C459 C461 1.415 . S
C460 C459 1.355 . S
C460 C462 1.419 . S
C461 C456 1.425 . S
C461 C458 1.409 . S
C461 C459 1.415 . S
C462 H452 0.930 . S
C462 C460 1.419 . S
C462 C463 1.362 . S
C463 H453 0.930 . S
C463 C456 1.409 . S
C463 C462 1.362 . S
H464 C470 0.930 . S
H465 C473 0.930 . S
H466 C474 0.930 . S
H467 C475 0.930 . S
H468 C478 0.930 . S
H469 C479 0.930 . S
C470 H464 0.930 . S
C470 C471 1.355 . S
C470 C472 1.415 . S
C471 C470 1.355 . S
C471 C473 1.419 . S
C472 C470 1.415 . S
C472 C477 1.425 . S
C472 C479 1.409 . S
C473 H465 0.930 . S
C473 C471 1.419 . S
C473 C474 1.362 . S
C474 H466 0.930 . S
C474 C473 1.362 . S
C474 C477 1.409 . S
C475 H467 0.930 . S
C475 C476 1.355 . S
C475 C477 1.415 . S
C476 C475 1.355 . S
C476 C478 1.419 . S
C477 C472 1.425 . S
C477 C474 1.409 . S
C477 C475 1.415 . S
C478 H468 0.930 . S
C478 C476 1.419 . S
C478 C479 1.362 . S
C479 H469 0.930 . S
C479 C472 1.409 . S
C479 C478 1.362 . S
H480 C486 0.930 . S
H481 C489 0.930 . S
H482 C490 0.930 . S
H483 C491 0.930 . S
H484 C494 0.930 . S
H485 C495 0.930 . S
C486 H480 0.930 . S
C486 C487 1.355 . S
C486 C488 1.415 . S
C487 C486 1.355 . S
C487 C489 1.419 . S
C488 C486 1.415 . S
C488 C493 1.425 . S
C488 C495 1.409 . S
C489 H481 0.930 . S
C489 C487 1.419 . S
C489 C490 1.362 . S
C490 H482 0.930 . S
C490 C489 1.362 . S
C490 C493 1.409 . S
C491 H483 0.930 . S
C491 C492 1.355 . S
C491 C493 1.415 . S
C492 C491 1.355 . S
C492 C494 1.419 . S
C493 C488 1.425 . S
C493 C490 1.409 . S
C493 C491 1.415 . S
C494 H484 0.930 . S
C494 C492 1.419 . S
C494 C495 1.362 . S
C495 H485 0.930 . S
C495 C488 1.409 . S
C495 C494 1.362 . S
H496 C502 0.930 . S
H497 C505 0.930 . S
H498 C506 0.930 . S
H499 C507 0.930 . S
H500 C510 0.930 . S
H501 C511 0.930 . S
C502 H496 0.930 . S
C502 C503 1.355 . S
C502 C504 1.415 . S
C503 C502 1.355 . S
C503 C505 1.419 . S
C504 C502 1.415 . S
C504 C509 1.425 . S
C504 C511 1.409 . S
C505 H497 0.930 . S
C505 C503 1.419 . S
C505 C506 1.362 . S
C506 H498 0.930 . S
C506 C505 1.362 . S
C506 C509 1.409 . S
C507 H499 0.930 . S
C507 C508 1.355 . S
C507 C509 1.415 . S
C508 C507 1.355 . S
C508 C510 1.419 . S
C509 C504 1.425 . S
C509 C506 1.409 . S
C509 C507 1.415 . S
C510 H500 0.930 . S
C510 C508 1.419 . S
C510 C511 1.362 . S
C511 H501 0.930 . S
C511 C504 1.409 . S
C511 C510 1.362 . S
H512 C518 0.930 . S
H513 C521 0.930 1_554 S
H514 C522 0.930 1_554 S
H515 C523 0.930 . S
H516 C526 0.930 . S
H517 C527 0.930 . S
C518 H512 0.930 . S
C518 C519 1.355 . S
C518 C520 1.415 . S
C519 C518 1.355 . S
C519 C521 1.419 . S
C520 C518 1.415 . S
C520 C525 1.425 . S
C520 C527 1.409 . S
C521 H513 0.930 1_556 S
C521 C519 1.419 . S
C521 C522 1.362 . S
C522 H514 0.930 1_556 S
C522 C521 1.362 . S
C522 C525 1.409 . S
C523 H515 0.930 . S
C523 C524 1.355 . S
C523 C525 1.415 . S
C524 C523 1.355 . S
C524 C526 1.419 . S
C525 C520 1.425 . S
C525 C522 1.409 . S
C525 C523 1.415 . S
C526 H516 0.930 . S
C526 C524 1.419 . S
C526 C527 1.362 . S
C527 H517 0.930 . S
C527 C520 1.409 . S
C527 C526 1.362 . S
H528 C534 0.930 . S
H529 C537 0.930 . S
H530 C538 0.930 . S
H531 C539 0.930 . S
H532 C542 0.930 . S
H533 C543 0.930 . S
C534 H528 0.930 . S
C534 C535 1.355 . S
C534 C536 1.415 . S
C535 C534 1.355 . S
C535 C537 1.419 . S
C536 C534 1.415 . S
C536 C541 1.425 . S
C536 C543 1.409 . S
C537 H529 0.930 . S
C537 C535 1.419 . S
C537 C538 1.362 . S
C538 H530 0.930 . S
C538 C537 1.362 . S
C538 C541 1.409 . S
C539 H531 0.930 . S
C539 C540 1.355 . S
C539 C541 1.415 . S
C540 C539 1.355 . S
C540 C542 1.419 . S
C541 C536 1.425 . S
C541 C538 1.409 . S
C541 C539 1.415 . S
C542 H532 0.930 . S
C542 C540 1.419 . S
C542 C543 1.362 . S
C543 H533 0.930 . S
C543 C536 1.409 . S
C543 C542 1.362 . S
H544 C550 0.930 . S
H545 C553 0.930 . S
H546 C554 0.930 . S
H547 C555 0.930 . S
H548 C558 0.930 . S
H549 C559 0.930 . S
C550 H544 0.930 . S
C550 C551 1.355 . S
C550 C552 1.415 . S
C551 C550 1.355 . S
C551 C553 1.419 . S
C552 C550 1.415 . S
C552 C557 1.425 . S
C552 C559 1.409 . S
C553 H545 0.930 . S
C553 C551 1.419 . S
C553 C554 1.362 . S
C554 H546 0.930 . S
C554 C553 1.362 . S
C554 C557 1.409 . S
C555 H547 0.930 . S
C555 C556 1.355 . S
C555 C557 1.415 . S
C556 C555 1.355 . S
C556 C558 1.419 . S
C557 C552 1.425 . S
C557 C554 1.409 . S
C557 C555 1.415 . S
C558 H548 0.930 . S
C558 C556 1.419 . S
C558 C559 1.362 . S
C559 H549 0.930 . S
C559 C552 1.409 . S
C559 C558 1.362 . S
H560 C566 0.930 . S
H561 C569 0.930 . S
H562 C570 0.930 . S
H563 C571 0.930 . S
H564 C574 0.930 . S
H565 C575 0.930 . S
C566 H560 0.930 . S
C566 C567 1.355 . S
C566 C568 1.415 . S
C567 C566 1.355 . S
C567 C569 1.419 . S
C568 C566 1.415 . S
C568 C573 1.425 . S
C568 C575 1.409 . S
C569 H561 0.930 . S
C569 C567 1.419 . S
C569 C570 1.362 . S
C570 H562 0.930 . S
C570 C569 1.362 . S
C570 C573 1.409 . S
C571 H563 0.930 . S
C571 C572 1.355 . S
C571 C573 1.415 . S
C572 C571 1.355 . S
C572 C574 1.419 . S
C573 C568 1.425 . S
C573 C570 1.409 . S
C573 C571 1.415 . S
C574 H564 0.930 . S
C574 C572 1.419 . S
C574 C575 1.362 . S
C575 H565 0.930 . S
C575 C568 1.409 . S
C575 C574 1.362 . S
H576 C582 0.930 . S
H577 C585 0.930 . S
H578 C586 0.930 . S
H579 C587 0.930 . S
H580 C590 0.930 . S
H581 C591 0.930 . S
C582 H576 0.930 . S
C582 C583 1.355 . S
C582 C584 1.415 . S
C583 C582 1.355 . S
C583 C585 1.419 . S
C584 C582 1.415 . S
C584 C589 1.425 . S
C584 C591 1.409 . S
C585 H577 0.930 . S
C585 C583 1.419 . S
C585 C586 1.362 . S
C586 H578 0.930 . S
C586 C585 1.362 . S
C586 C589 1.409 . S
C587 H579 0.930 . S
C587 C588 1.355 . S
C587 C589 1.415 . S
C588 C587 1.355 . S
C588 C590 1.419 . S
C589 C584 1.425 . S
C589 C586 1.409 . S
C589 C587 1.415 . S
C590 H580 0.930 . S
C590 C588 1.419 . S
C590 C591 1.362 . S
C591 H581 0.930 . S
C591 C584 1.409 . S
C591 C590 1.362 . S
H592 C598 0.930 . S
H593 C601 0.930 . S
H594 C602 0.930 . S
H595 C603 0.930 . S
H596 C606 0.930 . S
H597 C607 0.930 . S
C598 H592 0.930 . S
C598 C599 1.355 . S
C598 C600 1.415 . S
C599 C598 1.355 . S
C599 C601 1.419 . S
C600 C598 1.415 . S
C600 C605 1.425 . S
C600 C607 1.409 . S
C601 H593 0.930 . S
C601 C599 1.419 . S
C601 C602 1.362 . S
C602 H594 0.930 . S
C602 C601 1.362 . S
C602 C605 1.409 . S
C603 H595 0.930 . S
C603 C604 1.355 . S
C603 C605 1.415 . S
C604 C603 1.355 . S
C604 C606 1.419 . S
C605 C600 1.425 . S
C605 C602 1.409 . S
C605 C603 1.415 . S
C606 H596 0.930 . S
C606 C604 1.419 . S
C606 C607 1.362 . S
C607 H597 0.930 . S
C607 C600 1.409 . S
C607 C606 1.362 . S
H608 C614 0.930 . S
H609 C617 0.930 . S
H610 C618 0.930 . S
H611 C619 0.930 . S
H612 C622 0.930 . S
H613 C623 0.930 . S
C614 H608 0.930 . S
C614 C615 1.355 . S
C614 C616 1.415 . S
C615 C614 1.355 . S
C615 C617 1.419 . S
C616 C614 1.415 . S
C616 C621 1.425 . S
C616 C623 1.409 . S
C617 H609 0.930 . S
C617 C615 1.419 . S
C617 C618 1.362 . S
C618 H610 0.930 . S
C618 C617 1.362 . S
C618 C621 1.409 . S
C619 H611 0.930 . S
C619 C620 1.355 . S
C619 C621 1.415 . S
C620 C619 1.355 . S
C620 C622 1.419 . S
C621 C616 1.425 . S
C621 C618 1.409 . S
C621 C619 1.415 . S
C622 H612 0.930 . S
C622 C620 1.419 . S
C622 C623 1.362 . S
C623 H613 0.930 . S
C623 C616 1.409 . S
C623 C622 1.362 . S
H624 C630 0.930 . S
H625 C633 0.930 . S
H626 C634 0.930 . S
H627 C635 0.930 . S
H628 C638 0.930 . S
H629 C639 0.930 . S
C630 H624 0.930 . S
C630 C631 1.355 . S
C630 C632 1.415 . S
C631 C630 1.355 . S
C631 C633 1.419 . S
C632 C630 1.415 . S
C632 C637 1.425 . S
C632 C639 1.409 . S
C633 H625 0.930 . S
C633 C631 1.419 . S
C633 C634 1.362 . S
C634 H626 0.930 . S
C634 C633 1.362 . S
C634 C637 1.409 . S
C635 H627 0.930 . S
C635 C636 1.355 . S
C635 C637 1.415 . S
C636 C635 1.355 . S
C636 C638 1.419 . S
C637 C632 1.425 . S
C637 C634 1.409 . S
C637 C635 1.415 . S
C638 H628 0.930 . S
C638 C636 1.419 . S
C638 C639 1.362 . S
C639 H629 0.930 . S
C639 C632 1.409 . S
C639 C638 1.362 . S
H640 C646 0.930 . S
H641 C649 0.930 . S
H642 C650 0.927 1_556 S
H643 C651 0.930 1_556 S
H644 C654 0.930 . S
H645 C655 0.930 . S
C646 H640 0.930 . S
C646 C647 1.355 . S
C646 C648 1.415 . S
C647 C646 1.355 . S
C647 C649 1.419 . S
C648 C646 1.415 . S
C648 C653 1.425 . S
C648 C655 1.409 . S
C649 H641 0.930 . S
C649 C647 1.419 . S
C649 C650 1.362 . S
C650 H642 0.927 1_554 S
C650 C649 1.362 . S
C650 C653 1.409 . S
C651 H643 0.930 1_554 S
C651 C652 1.355 . S
C651 C653 1.415 . S
C652 C651 1.355 . S
C652 C654 1.419 . S
C653 C648 1.425 . S
C653 C650 1.409 . S
C653 C651 1.415 . S
C654 H644 0.930 . S
C654 C652 1.419 . S
C654 C655 1.362 . S
C655 H645 0.930 . S
C655 C648 1.409 . S
C655 C654 1.362 . S
H656 C662 0.930 . S
H657 C665 0.930 . S
H658 C666 0.930 . S
H659 C667 0.930 . S
H660 C670 0.930 . S
H661 C671 0.930 . S
C662 H656 0.930 . S
C662 C663 1.355 . S
C662 C664 1.415 . S
C663 C662 1.355 . S
C663 C665 1.419 . S
C664 C662 1.415 . S
C664 C669 1.425 . S
C664 C671 1.409 . S
C665 H657 0.930 . S
C665 C663 1.419 . S
C665 C666 1.362 . S
C666 H658 0.930 . S
C666 C665 1.362 . S
C666 C669 1.409 . S
C667 H659 0.930 . S
C667 C668 1.355 . S
C667 C669 1.415 . S
C668 C667 1.355 . S
C668 C670 1.419 . S
C669 C664 1.425 . S
C669 C666 1.409 . S
C669 C667 1.415 . S
C670 H660 0.930 . S
C670 C668 1.419 . S
C670 C671 1.362 . S
C671 H661 0.930 . S
C671 C664 1.409 . S
C671 C670 1.362 . S
H672 C678 0.930 . S
H673 C681 0.930 . S
H674 C682 0.930 . S
H675 C683 0.930 . S
H676 C686 0.930 . S
H677 C687 0.930 . S
C678 H672 0.930 . S
C678 C679 1.355 . S
C678 C680 1.415 . S
C679 C678 1.355 . S
C679 C681 1.419 . S
C680 C678 1.415 . S
C680 C685 1.425 . S
C680 C687 1.409 . S
C681 H673 0.930 . S
C681 C679 1.419 . S
C681 C682 1.362 . S
C682 H674 0.930 . S
C682 C681 1.362 . S
C682 C685 1.409 . S
C683 H675 0.930 . S
C683 C684 1.355 . S
C683 C685 1.415 . S
C684 C683 1.355 . S
C684 C686 1.419 . S
C685 C680 1.425 . S
C685 C682 1.409 . S
C685 C683 1.415 . S
C686 H676 0.930 . S
C686 C684 1.419 . S
C686 C687 1.362 . S
C687 H677 0.930 . S
C687 C680 1.409 . S
C687 C686 1.362 . S
H688 C694 0.930 . S
H689 C697 0.930 . S
H690 C698 0.930 . S
H691 C699 0.930 . S
H692 C702 0.930 . S
H693 C703 0.930 . S
C694 H688 0.930 . S
C694 C695 1.355 . S
C694 C696 1.415 . S
C695 C694 1.355 . S
C695 C697 1.419 . S
C696 C694 1.415 . S
C696 C701 1.425 . S
C696 C703 1.409 . S
C697 H689 0.930 . S
C697 C695 1.419 . S
C697 C698 1.362 . S
C698 H690 0.930 . S
C698 C697 1.362 . S
C698 C701 1.409 . S
C699 H691 0.930 . S
C699 C700 1.355 . S
C699 C701 1.415 . S
C700 C699 1.355 . S
C700 C702 1.419 . S
C701 C696 1.425 . S
C701 C698 1.409 . S
C701 C699 1.415 . S
C702 H692 0.930 . S
C702 C700 1.419 . S
C702 C703 1.362 . S
C703 H693 0.930 . S
C703 C696 1.409 . S
C703 C702 1.362 . S
H704 C710 0.930 . S
H705 C713 0.930 1_554 S
H706 C714 0.930 1_554 S
H707 C715 0.930 . S
H708 C718 0.930 . S
H709 C719 0.930 . S
C710 H704 0.930 . S
C710 C711 1.355 . S
C710 C712 1.415 . S
C711 C710 1.355 . S
C711 C713 1.419 . S
C712 C710 1.415 . S
C712 C717 1.425 . S
C712 C719 1.409 . S
C713 H705 0.930 1_556 S
C713 C711 1.419 . S
C713 C714 1.362 . S
C714 H706 0.930 1_556 S
C714 C713 1.362 . S
C714 C717 1.409 . S
C715 H707 0.930 . S
C715 C716 1.355 . S
C715 C717 1.415 . S
C716 C715 1.355 . S
C716 C718 1.419 . S
C717 C712 1.425 . S
C717 C714 1.409 . S
C717 C715 1.415 . S
C718 H708 0.930 . S
C718 C716 1.419 . S
C718 C719 1.362 . S
C719 H709 0.930 . S
C719 C712 1.409 . S
C719 C718 1.362 . S
C215 C5 1.460 . S
C220 C161 1.459 . S
C231 C16 1.469 . S
C236 C70 1.469 1_565 S
C247 C31 1.461 . S
C252 C187 1.462 . S
C263 C96 1.455 1_565 S
C268 C44 1.455 . S
C279 C185 1.465 . S
C284 C29 1.464 . S
C295 C94 1.456 1_565 S
C300 C42 1.456 . S
C311 C159 1.459 . S
C316 C3 1.460 . S
C327 C68 1.466 . S
C332 C18 1.466 1_565 S
C343 C55 1.457 . S
C348 C109 1.458 . S
C359 C83 1.456 . S
C364 C135 1.455 . S
C375 C133 1.461 . S
C380 C81 1.462 . S
C391 C57 1.456 . S
C396 C107 1.455 . S
C407 C172 1.470 . S
C412 C120 1.470 . S
C423 C146 1.462 . S
C428 C198 1.462 . S
C439 C148 1.469 . S
C444 C200 1.469 . S
C455 C122 1.467 . S
C460 C174 1.467 . S
C471 C153 1.542 . S
C476 C10 1.540 . S
C487 C108 1.545 . S
C492 C17 1.547 . S
C503 C36 1.543 . S
C508 C127 1.544 . S
C519 C134 1.545 . S
C524 C49 1.543 . S
C535 C147 1.540 . S
C540 C30 1.541 . S
C551 C43 1.546 . S
C556 C114 1.549 . S
C567 C121 1.545 . S
C572 C4 1.545 . S
C583 C140 1.541 . S
C588 C23 1.538 . S
C599 C56 1.541 . S
C604 C205 1.543 . S
C615 C160 1.542 . S
C620 C75 1.539 . S
C631 C88 1.541 . S
C636 C179 1.541 . S
C647 C101 1.541 . S
C652 C186 1.544 . S
C663 C82 1.546 . S
C668 C199 1.546 . S
C679 C166 1.546 . S
C684 C95 1.542 . S
C695 C173 1.543 . S
C700 C62 1.541 . S
C711 C192 1.545 . S
C716 C69 1.549 . S
