# Generated by pormake.
# Topology bcu-k, (6)-cn, num edge types: 1
# Building blocks:
#     Node 0, Type 0, BuildingBlock: OJICUG_clean_sbu_0, # of connection points: 6
#     Node 1, Type 0, BuildingBlock: OJICUG_clean_sbu_0, # of connection points: 6
#     Node 2, Type 0, BuildingBlock: OJICUG_clean_sbu_0, # of connection points: 6
#     Node 3, Type 0, BuildingBlock: OJICUG_clean_sbu_0, # of connection points: 6
#     Node 4, Type 0, BuildingBlock: OJICUG_clean_sbu_0, # of connection points: 6
#     Node 5, Type 0, BuildingBlock: OJICUG_clean_sbu_0, # of connection points: 6
#     Node 6, Type 0, BuildingBlock: OJICUG_clean_sbu_0, # of connection points: 6
#     Node 7, Type 0, BuildingBlock: OJICUG_clean_sbu_0, # of connection points: 6
#     Node 8, Type 0, BuildingBlock: OJICUG_clean_sbu_0, # of connection points: 6
#     Node 9, Type 0, BuildingBlock: OJICUG_clean_sbu_0, # of connection points: 6
#     Node 10, Type 0, BuildingBlock: OJICUG_clean_sbu_0, # of connection points: 6
#     Node 11, Type 0, BuildingBlock: OJICUG_clean_sbu_0, # of connection points: 6
#     Node 12, Type 0, BuildingBlock: OJICUG_clean_sbu_0, # of connection points: 6
#     Node 13, Type 0, BuildingBlock: OJICUG_clean_sbu_0, # of connection points: 6
#     Node 14, Type 0, BuildingBlock: OJICUG_clean_sbu_0, # of connection points: 6
#     Node 15, Type 0, BuildingBlock: OJICUG_clean_sbu_0, # of connection points: 6
#     Node 16, Type 0, BuildingBlock: OJICUG_clean_sbu_0, # of connection points: 6
#     Node 17, Type 0, BuildingBlock: OJICUG_clean_sbu_0, # of connection points: 6
#     Node 18, Type 0, BuildingBlock: OJICUG_clean_sbu_0, # of connection points: 6
#     Node 19, Type 0, BuildingBlock: OJICUG_clean_sbu_0, # of connection points: 6
#     Node 20, Type 0, BuildingBlock: OJICUG_clean_sbu_0, # of connection points: 6
#     Node 21, Type 0, BuildingBlock: OJICUG_clean_sbu_0, # of connection points: 6
#     Node 22, Type 0, BuildingBlock: OJICUG_clean_sbu_0, # of connection points: 6
#     Node 23, Type 0, BuildingBlock: OJICUG_clean_sbu_0, # of connection points: 6
#     Node 24, Type 0, BuildingBlock: OJICUG_clean_sbu_0, # of connection points: 6
#     Node 25, Type 0, BuildingBlock: OJICUG_clean_sbu_0, # of connection points: 6
#     Node 26, Type 0, BuildingBlock: OJICUG_clean_sbu_0, # of connection points: 6
#     Node 27, Type 0, BuildingBlock: OJICUG_clean_sbu_0, # of connection points: 6
#     Node 28, Type 0, BuildingBlock: OJICUG_clean_sbu_0, # of connection points: 6
#     Node 29, Type 0, BuildingBlock: OJICUG_clean_sbu_0, # of connection points: 6
#     Node 30, Type 0, BuildingBlock: OJICUG_clean_sbu_0, # of connection points: 6
#     Node 31, Type 0, BuildingBlock: OJICUG_clean_sbu_0, # of connection points: 6
#     Node 32, Type 0, BuildingBlock: OJICUG_clean_sbu_0, # of connection points: 6
#     Node 33, Type 0, BuildingBlock: OJICUG_clean_sbu_0, # of connection points: 6
#     Node 34, Type 0, BuildingBlock: OJICUG_clean_sbu_0, # of connection points: 6
#     Node 35, Type 0, BuildingBlock: OJICUG_clean_sbu_0, # of connection points: 6
#     Node 36, Type 0, BuildingBlock: OJICUG_clean_sbu_0, # of connection points: 6
#     Node 37, Type 0, BuildingBlock: OJICUG_clean_sbu_0, # of connection points: 6
#     Node 38, Type 0, BuildingBlock: OJICUG_clean_sbu_0, # of connection points: 6
#     Node 39, Type 0, BuildingBlock: OJICUG_clean_sbu_0, # of connection points: 6
#     Node 40, Type 0, BuildingBlock: OJICUG_clean_sbu_0, # of connection points: 6
#     Node 41, Type 0, BuildingBlock: OJICUG_clean_sbu_0, # of connection points: 6
#     Node 42, Type 0, BuildingBlock: OJICUG_clean_sbu_0, # of connection points: 6
#     Node 43, Type 0, BuildingBlock: OJICUG_clean_sbu_0, # of connection points: 6
#     Node 44, Type 0, BuildingBlock: OJICUG_clean_sbu_0, # of connection points: 6
#     Node 45, Type 0, BuildingBlock: OJICUG_clean_sbu_0, # of connection points: 6
#     Node 46, Type 0, BuildingBlock: OJICUG_clean_sbu_0, # of connection points: 6
#     Node 47, Type 0, BuildingBlock: OJICUG_clean_sbu_0, # of connection points: 6
#     Edge 48, Type (0, 0), BuildingBlock: XIVTED_clean_linker_0, # of connection points: 2
#     Edge 49, Type (0, 0), BuildingBlock: XIVTED_clean_linker_0, # of connection points: 2
#     Edge 50, Type (0, 0), BuildingBlock: XIVTED_clean_linker_0, # of connection points: 2
#     Edge 51, Type (0, 0), BuildingBlock: XIVTED_clean_linker_0, # of connection points: 2
#     Edge 52, Type (0, 0), BuildingBlock: XIVTED_clean_linker_0, # of connection points: 2
#     Edge 53, Type (0, 0), BuildingBlock: XIVTED_clean_linker_0, # of connection points: 2
#     Edge 54, Type (0, 0), BuildingBlock: XIVTED_clean_linker_0, # of connection points: 2
#     Edge 55, Type (0, 0), BuildingBlock: XIVTED_clean_linker_0, # of connection points: 2
#     Edge 56, Type (0, 0), BuildingBlock: XIVTED_clean_linker_0, # of connection points: 2
#     Edge 57, Type (0, 0), BuildingBlock: XIVTED_clean_linker_0, # of connection points: 2
#     Edge 58, Type (0, 0), BuildingBlock: XIVTED_clean_linker_0, # of connection points: 2
#     Edge 59, Type (0, 0), BuildingBlock: XIVTED_clean_linker_0, # of connection points: 2
#     Edge 60, Type (0, 0), BuildingBlock: XIVTED_clean_linker_0, # of connection points: 2
#     Edge 61, Type (0, 0), BuildingBlock: XIVTED_clean_linker_0, # of connection points: 2
#     Edge 62, Type (0, 0), BuildingBlock: XIVTED_clean_linker_0, # of connection points: 2
#     Edge 63, Type (0, 0), BuildingBlock: XIVTED_clean_linker_0, # of connection points: 2
#     Edge 64, Type (0, 0), BuildingBlock: XIVTED_clean_linker_0, # of connection points: 2
#     Edge 65, Type (0, 0), BuildingBlock: XIVTED_clean_linker_0, # of connection points: 2
#     Edge 66, Type (0, 0), BuildingBlock: XIVTED_clean_linker_0, # of connection points: 2
#     Edge 67, Type (0, 0), BuildingBlock: XIVTED_clean_linker_0, # of connection points: 2
#     Edge 68, Type (0, 0), BuildingBlock: XIVTED_clean_linker_0, # of connection points: 2
#     Edge 69, Type (0, 0), BuildingBlock: XIVTED_clean_linker_0, # of connection points: 2
#     Edge 70, Type (0, 0), BuildingBlock: XIVTED_clean_linker_0, # of connection points: 2
#     Edge 71, Type (0, 0), BuildingBlock: XIVTED_clean_linker_0, # of connection points: 2
#     Edge 72, Type (0, 0), BuildingBlock: XIVTED_clean_linker_0, # of connection points: 2
#     Edge 73, Type (0, 0), BuildingBlock: XIVTED_clean_linker_0, # of connection points: 2
#     Edge 74, Type (0, 0), BuildingBlock: XIVTED_clean_linker_0, # of connection points: 2
#     Edge 75, Type (0, 0), BuildingBlock: XIVTED_clean_linker_0, # of connection points: 2
#     Edge 76, Type (0, 0), BuildingBlock: XIVTED_clean_linker_0, # of connection points: 2
#     Edge 77, Type (0, 0), BuildingBlock: XIVTED_clean_linker_0, # of connection points: 2
#     Edge 78, Type (0, 0), BuildingBlock: XIVTED_clean_linker_0, # of connection points: 2
#     Edge 79, Type (0, 0), BuildingBlock: XIVTED_clean_linker_0, # of connection points: 2
#     Edge 80, Type (0, 0), BuildingBlock: XIVTED_clean_linker_0, # of connection points: 2
#     Edge 81, Type (0, 0), BuildingBlock: XIVTED_clean_linker_0, # of connection points: 2
#     Edge 82, Type (0, 0), BuildingBlock: XIVTED_clean_linker_0, # of connection points: 2
#     Edge 83, Type (0, 0), BuildingBlock: XIVTED_clean_linker_0, # of connection points: 2
#     Edge 84, Type (0, 0), BuildingBlock: XIVTED_clean_linker_0, # of connection points: 2
#     Edge 85, Type (0, 0), BuildingBlock: XIVTED_clean_linker_0, # of connection points: 2
#     Edge 86, Type (0, 0), BuildingBlock: XIVTED_clean_linker_0, # of connection points: 2
#     Edge 87, Type (0, 0), BuildingBlock: XIVTED_clean_linker_0, # of connection points: 2
#     Edge 88, Type (0, 0), BuildingBlock: XIVTED_clean_linker_0, # of connection points: 2
#     Edge 89, Type (0, 0), BuildingBlock: XIVTED_clean_linker_0, # of connection points: 2
#     Edge 90, Type (0, 0), BuildingBlock: XIVTED_clean_linker_0, # of connection points: 2
#     Edge 91, Type (0, 0), BuildingBlock: XIVTED_clean_linker_0, # of connection points: 2
#     Edge 92, Type (0, 0), BuildingBlock: XIVTED_clean_linker_0, # of connection points: 2
#     Edge 93, Type (0, 0), BuildingBlock: XIVTED_clean_linker_0, # of connection points: 2
#     Edge 94, Type (0, 0), BuildingBlock: XIVTED_clean_linker_0, # of connection points: 2
#     Edge 95, Type (0, 0), BuildingBlock: XIVTED_clean_linker_0, # of connection points: 2
#     Edge 96, Type (0, 0), BuildingBlock: XIVTED_clean_linker_0, # of connection points: 2
#     Edge 97, Type (0, 0), BuildingBlock: XIVTED_clean_linker_0, # of connection points: 2
#     Edge 98, Type (0, 0), BuildingBlock: XIVTED_clean_linker_0, # of connection points: 2
#     Edge 99, Type (0, 0), BuildingBlock: XIVTED_clean_linker_0, # of connection points: 2
#     Edge 100, Type (0, 0), BuildingBlock: XIVTED_clean_linker_0, # of connection points: 2
#     Edge 101, Type (0, 0), BuildingBlock: XIVTED_clean_linker_0, # of connection points: 2
#     Edge 102, Type (0, 0), BuildingBlock: XIVTED_clean_linker_0, # of connection points: 2
#     Edge 103, Type (0, 0), BuildingBlock: XIVTED_clean_linker_0, # of connection points: 2
#     Edge 104, Type (0, 0), BuildingBlock: XIVTED_clean_linker_0, # of connection points: 2
#     Edge 105, Type (0, 0), BuildingBlock: XIVTED_clean_linker_0, # of connection points: 2
#     Edge 106, Type (0, 0), BuildingBlock: XIVTED_clean_linker_0, # of connection points: 2
#     Edge 107, Type (0, 0), BuildingBlock: XIVTED_clean_linker_0, # of connection points: 2
#     Edge 108, Type (0, 0), BuildingBlock: XIVTED_clean_linker_0, # of connection points: 2
#     Edge 109, Type (0, 0), BuildingBlock: XIVTED_clean_linker_0, # of connection points: 2
#     Edge 110, Type (0, 0), BuildingBlock: XIVTED_clean_linker_0, # of connection points: 2
#     Edge 111, Type (0, 0), BuildingBlock: XIVTED_clean_linker_0, # of connection points: 2
#     Edge 112, Type (0, 0), BuildingBlock: XIVTED_clean_linker_0, # of connection points: 2
#     Edge 113, Type (0, 0), BuildingBlock: XIVTED_clean_linker_0, # of connection points: 2
#     Edge 114, Type (0, 0), BuildingBlock: XIVTED_clean_linker_0, # of connection points: 2
#     Edge 115, Type (0, 0), BuildingBlock: XIVTED_clean_linker_0, # of connection points: 2
#     Edge 116, Type (0, 0), BuildingBlock: XIVTED_clean_linker_0, # of connection points: 2
#     Edge 117, Type (0, 0), BuildingBlock: XIVTED_clean_linker_0, # of connection points: 2
#     Edge 118, Type (0, 0), BuildingBlock: XIVTED_clean_linker_0, # of connection points: 2
#     Edge 119, Type (0, 0), BuildingBlock: XIVTED_clean_linker_0, # of connection points: 2
#     Edge 120, Type (0, 0), BuildingBlock: XIVTED_clean_linker_0, # of connection points: 2
#     Edge 121, Type (0, 0), BuildingBlock: XIVTED_clean_linker_0, # of connection points: 2
#     Edge 122, Type (0, 0), BuildingBlock: XIVTED_clean_linker_0, # of connection points: 2
#     Edge 123, Type (0, 0), BuildingBlock: XIVTED_clean_linker_0, # of connection points: 2
#     Edge 124, Type (0, 0), BuildingBlock: XIVTED_clean_linker_0, # of connection points: 2
#     Edge 125, Type (0, 0), BuildingBlock: XIVTED_clean_linker_0, # of connection points: 2
#     Edge 126, Type (0, 0), BuildingBlock: XIVTED_clean_linker_0, # of connection points: 2
#     Edge 127, Type (0, 0), BuildingBlock: XIVTED_clean_linker_0, # of connection points: 2
#     Edge 128, Type (0, 0), BuildingBlock: XIVTED_clean_linker_0, # of connection points: 2
#     Edge 129, Type (0, 0), BuildingBlock: XIVTED_clean_linker_0, # of connection points: 2
#     Edge 130, Type (0, 0), BuildingBlock: XIVTED_clean_linker_0, # of connection points: 2
#     Edge 131, Type (0, 0), BuildingBlock: XIVTED_clean_linker_0, # of connection points: 2
#     Edge 132, Type (0, 0), BuildingBlock: XIVTED_clean_linker_0, # of connection points: 2
#     Edge 133, Type (0, 0), BuildingBlock: XIVTED_clean_linker_0, # of connection points: 2
#     Edge 134, Type (0, 0), BuildingBlock: XIVTED_clean_linker_0, # of connection points: 2
#     Edge 135, Type (0, 0), BuildingBlock: XIVTED_clean_linker_0, # of connection points: 2
#     Edge 136, Type (0, 0), BuildingBlock: XIVTED_clean_linker_0, # of connection points: 2
#     Edge 137, Type (0, 0), BuildingBlock: XIVTED_clean_linker_0, # of connection points: 2
#     Edge 138, Type (0, 0), BuildingBlock: XIVTED_clean_linker_0, # of connection points: 2
#     Edge 139, Type (0, 0), BuildingBlock: XIVTED_clean_linker_0, # of connection points: 2
#     Edge 140, Type (0, 0), BuildingBlock: XIVTED_clean_linker_0, # of connection points: 2
#     Edge 141, Type (0, 0), BuildingBlock: XIVTED_clean_linker_0, # of connection points: 2
#     Edge 142, Type (0, 0), BuildingBlock: XIVTED_clean_linker_0, # of connection points: 2
#     Edge 143, Type (0, 0), BuildingBlock: XIVTED_clean_linker_0, # of connection points: 2
#     Edge 144, Type (0, 0), BuildingBlock: XIVTED_clean_linker_0, # of connection points: 2
#     Edge 145, Type (0, 0), BuildingBlock: XIVTED_clean_linker_0, # of connection points: 2
#     Edge 146, Type (0, 0), BuildingBlock: XIVTED_clean_linker_0, # of connection points: 2
#     Edge 147, Type (0, 0), BuildingBlock: XIVTED_clean_linker_0, # of connection points: 2
#     Edge 148, Type (0, 0), BuildingBlock: XIVTED_clean_linker_0, # of connection points: 2
#     Edge 149, Type (0, 0), BuildingBlock: XIVTED_clean_linker_0, # of connection points: 2
#     Edge 150, Type (0, 0), BuildingBlock: XIVTED_clean_linker_0, # of connection points: 2
#     Edge 151, Type (0, 0), BuildingBlock: XIVTED_clean_linker_0, # of connection points: 2
#     Edge 152, Type (0, 0), BuildingBlock: XIVTED_clean_linker_0, # of connection points: 2
#     Edge 153, Type (0, 0), BuildingBlock: XIVTED_clean_linker_0, # of connection points: 2
#     Edge 154, Type (0, 0), BuildingBlock: XIVTED_clean_linker_0, # of connection points: 2
#     Edge 155, Type (0, 0), BuildingBlock: XIVTED_clean_linker_0, # of connection points: 2
#     Edge 156, Type (0, 0), BuildingBlock: XIVTED_clean_linker_0, # of connection points: 2
#     Edge 157, Type (0, 0), BuildingBlock: XIVTED_clean_linker_0, # of connection points: 2
#     Edge 158, Type (0, 0), BuildingBlock: XIVTED_clean_linker_0, # of connection points: 2
#     Edge 159, Type (0, 0), BuildingBlock: XIVTED_clean_linker_0, # of connection points: 2
#     Edge 160, Type (0, 0), BuildingBlock: XIVTED_clean_linker_0, # of connection points: 2
#     Edge 161, Type (0, 0), BuildingBlock: XIVTED_clean_linker_0, # of connection points: 2
#     Edge 162, Type (0, 0), BuildingBlock: XIVTED_clean_linker_0, # of connection points: 2
#     Edge 163, Type (0, 0), BuildingBlock: XIVTED_clean_linker_0, # of connection points: 2
#     Edge 164, Type (0, 0), BuildingBlock: XIVTED_clean_linker_0, # of connection points: 2
#     Edge 165, Type (0, 0), BuildingBlock: XIVTED_clean_linker_0, # of connection points: 2
#     Edge 166, Type (0, 0), BuildingBlock: XIVTED_clean_linker_0, # of connection points: 2
#     Edge 167, Type (0, 0), BuildingBlock: XIVTED_clean_linker_0, # of connection points: 2
#     Edge 168, Type (0, 0), BuildingBlock: XIVTED_clean_linker_0, # of connection points: 2
#     Edge 169, Type (0, 0), BuildingBlock: XIVTED_clean_linker_0, # of connection points: 2
#     Edge 170, Type (0, 0), BuildingBlock: XIVTED_clean_linker_0, # of connection points: 2
#     Edge 171, Type (0, 0), BuildingBlock: XIVTED_clean_linker_0, # of connection points: 2
#     Edge 172, Type (0, 0), BuildingBlock: XIVTED_clean_linker_0, # of connection points: 2
#     Edge 173, Type (0, 0), BuildingBlock: XIVTED_clean_linker_0, # of connection points: 2
#     Edge 174, Type (0, 0), BuildingBlock: XIVTED_clean_linker_0, # of connection points: 2
#     Edge 175, Type (0, 0), BuildingBlock: XIVTED_clean_linker_0, # of connection points: 2
#     Edge 176, Type (0, 0), BuildingBlock: XIVTED_clean_linker_0, # of connection points: 2
#     Edge 177, Type (0, 0), BuildingBlock: XIVTED_clean_linker_0, # of connection points: 2
#     Edge 178, Type (0, 0), BuildingBlock: XIVTED_clean_linker_0, # of connection points: 2
#     Edge 179, Type (0, 0), BuildingBlock: XIVTED_clean_linker_0, # of connection points: 2
#     Edge 180, Type (0, 0), BuildingBlock: XIVTED_clean_linker_0, # of connection points: 2
#     Edge 181, Type (0, 0), BuildingBlock: XIVTED_clean_linker_0, # of connection points: 2
#     Edge 182, Type (0, 0), BuildingBlock: XIVTED_clean_linker_0, # of connection points: 2
#     Edge 183, Type (0, 0), BuildingBlock: XIVTED_clean_linker_0, # of connection points: 2
#     Edge 184, Type (0, 0), BuildingBlock: XIVTED_clean_linker_0, # of connection points: 2
#     Edge 185, Type (0, 0), BuildingBlock: XIVTED_clean_linker_0, # of connection points: 2
#     Edge 186, Type (0, 0), BuildingBlock: XIVTED_clean_linker_0, # of connection points: 2
#     Edge 187, Type (0, 0), BuildingBlock: XIVTED_clean_linker_0, # of connection points: 2
#     Edge 188, Type (0, 0), BuildingBlock: XIVTED_clean_linker_0, # of connection points: 2
#     Edge 189, Type (0, 0), BuildingBlock: XIVTED_clean_linker_0, # of connection points: 2
#     Edge 190, Type (0, 0), BuildingBlock: XIVTED_clean_linker_0, # of connection points: 2
#     Edge 191, Type (0, 0), BuildingBlock: XIVTED_clean_linker_0, # of connection points: 2
# Relax obj value: 0.432
# Max RMSD: 0.178
# Mean RMSD: 0.178
data_MOF--net-bcu-k--node1-OJICUG_clean_sbu_0--edge1-XIVTED_clean_linker_0
_symmetry_space_group_name_H-M    P1
_symmetry_Int_Tables_number       1
_symmetry_cell_setting            triclinic
loop_
_symmetry_equiv_pos_as_xyz
'x, y, z'
_cell_length_a     59.721387
_cell_length_b     59.717286
_cell_length_c     59.715434
_cell_angle_alpha  89.985543
_cell_angle_beta   90.002565
_cell_angle_gamma 89.997695
loop_
_atom_site_label
_atom_site_type_symbol
_atom_site_fract_x
_atom_site_fract_y
_atom_site_fract_z
_atom_type_partial_charge
Sc0 Sc 0.16258 0.16204 0.3414 0.0
Sc1 Sc 0.12412 0.12335 0.36383 0.0
Sc2 Sc 0.12911 0.12936 0.30522 0.0
O3 O 0.13862 0.13826 0.33678 0.0
C4 C 0.1351 0.18242 0.30024 0.0
C5 C 0.12744 0.17382 0.37994 0.0
C6 C 0.08244 0.12986 0.33107 0.0
C7 C 0.17485 0.12641 0.37931 0.0
C8 C 0.18207 0.13519 0.29939 0.0
C9 C 0.12997 0.08224 0.3303 0.0
O10 O 0.14811 0.18443 0.317 0.0
O11 O 0.11845 0.15461 0.38075 0.0
O12 O 0.09385 0.13083 0.31312 0.0
O13 O 0.17969 0.14243 0.36618 0.0
O14 O 0.16321 0.12713 0.29363 0.0
O15 O 0.12773 0.09071 0.34966 0.0
O16 O 0.18449 0.14793 0.3163 0.0
O17 O 0.1556 0.1175 0.38033 0.0
O18 O 0.1305 0.09394 0.31251 0.0
O19 O 0.14339 0.17878 0.36677 0.0
O20 O 0.12687 0.16371 0.29422 0.0
O21 O 0.09122 0.12712 0.35023 0.0
Sc22 Sc 0.86845 0.12719 0.30334 0.0
Sc23 Sc 0.87331 0.12239 0.36209 0.0
Sc24 Sc 0.8346 0.16028 0.33876 0.0
O25 O 0.85878 0.13662 0.3347 0.0
C26 C 0.86217 0.18005 0.29736 0.0
C27 C 0.91504 0.12863 0.32937 0.0
C28 C 0.86933 0.1732 0.37726 0.0
C29 C 0.86802 0.08055 0.32927 0.0
C30 C 0.81548 0.13252 0.29723 0.0
C31 C 0.82242 0.12516 0.37717 0.0
O32 O 0.87057 0.1613 0.29174 0.0
O33 O 0.90624 0.12635 0.34858 0.0
O34 O 0.85345 0.17772 0.36385 0.0
O35 O 0.86719 0.09195 0.3113 0.0
O36 O 0.81295 0.14547 0.31394 0.0
O37 O 0.84173 0.11639 0.37842 0.0
O38 O 0.83441 0.12455 0.29158 0.0
O39 O 0.87028 0.0894 0.34847 0.0
O40 O 0.81755 0.14099 0.36383 0.0
O41 O 0.90365 0.12899 0.31138 0.0
O42 O 0.84901 0.18228 0.31397 0.0
O43 O 0.87847 0.15406 0.37855 0.0
Sc44 Sc 0.86683 0.8662 0.30513 0.0
Sc45 Sc 0.87272 0.87132 0.36375 0.0
Sc46 Sc 0.83338 0.83353 0.34138 0.0
O47 O 0.85764 0.857 0.33671 0.0
C48 C 0.81376 0.86098 0.29982 0.0
C49 C 0.86703 0.91298 0.33077 0.0
C50 C 0.82205 0.86915 0.37957 0.0
C51 C 0.91385 0.86473 0.33039 0.0
C52 C 0.86022 0.81325 0.29974 0.0
C53 C 0.86859 0.82076 0.37953 0.0
O54 O 0.83264 0.86885 0.29387 0.0
O55 O 0.86966 0.90418 0.34994 0.0
O56 O 0.81683 0.85324 0.36645 0.0
O57 O 0.90218 0.8644 0.31259 0.0
O58 O 0.84734 0.81122 0.3166 0.0
O59 O 0.87791 0.83982 0.38041 0.0
O60 O 0.86862 0.83192 0.29381 0.0
O61 O 0.90536 0.86703 0.34975 0.0
O62 O 0.85247 0.8162 0.36643 0.0
O63 O 0.8658 0.90155 0.31285 0.0
O64 O 0.81141 0.84817 0.31669 0.0
O65 O 0.84146 0.8777 0.38049 0.0
Sc66 Sc 0.16129 0.83479 0.33995 0.0
Sc67 Sc 0.12304 0.87296 0.36349 0.0
Sc68 Sc 0.12766 0.86834 0.30471 0.0
O69 O 0.13734 0.85869 0.33601 0.0
C70 C 0.18057 0.86255 0.29848 0.0
C71 C 0.17396 0.86969 0.37837 0.0
C72 C 0.12875 0.91484 0.33082 0.0
C73 C 0.12646 0.82203 0.37839 0.0
C74 C 0.13342 0.81545 0.29856 0.0
C75 C 0.08117 0.86713 0.33089 0.0
O76 O 0.18301 0.84953 0.31516 0.0
O77 O 0.15473 0.87862 0.37971 0.0
O78 O 0.12929 0.90354 0.31278 0.0
O79 O 0.14227 0.81739 0.36496 0.0
O80 O 0.12517 0.83429 0.29301 0.0
O81 O 0.09006 0.86932 0.35007 0.0
O82 O 0.14661 0.81305 0.31511 0.0
O83 O 0.11756 0.84126 0.37981 0.0
O84 O 0.09247 0.86679 0.31285 0.0
O85 O 0.17861 0.85381 0.36502 0.0
O86 O 0.1617 0.87069 0.29286 0.0
O87 O 0.12645 0.90595 0.34999 0.0
Sc88 Sc 0.12889 0.86653 0.69055 0.0
Sc89 Sc 0.12356 0.87211 0.6319 0.0
Sc90 Sc 0.16167 0.83313 0.65435 0.0
O91 O 0.13804 0.85724 0.65898 0.0
C92 C 0.18183 0.86006 0.696 0.0
C93 C 0.13013 0.91342 0.66503 0.0
C94 C 0.17418 0.86849 0.61625 0.0
C95 C 0.08204 0.86628 0.66497 0.0
C96 C 0.13436 0.81343 0.69597 0.0
C97 C 0.12624 0.82153 0.61603 0.0
O98 O 0.16315 0.86848 0.70187 0.0
O99 O 0.12765 0.90479 0.64578 0.0
O100 O 0.17888 0.85243 0.6294 0.0
O101 O 0.09353 0.86535 0.68289 0.0
O102 O 0.14709 0.8111 0.67904 0.0
O103 O 0.11746 0.84084 0.61516 0.0
O104 O 0.12644 0.8323 0.70191 0.0
O105 O 0.09076 0.86877 0.64576 0.0
O106 O 0.14217 0.81646 0.62918 0.0
O107 O 0.13061 0.90189 0.68294 0.0
O108 O 0.18388 0.84714 0.67918 0.0
O109 O 0.155 0.87755 0.61524 0.0
Sc110 Sc 0.12788 0.12749 0.69146 0.0
Sc111 Sc 0.12354 0.12241 0.63269 0.0
Sc112 Sc 0.16148 0.16096 0.65616 0.0
O113 O 0.13763 0.13696 0.66013 0.0
C114 C 0.13358 0.18041 0.69746 0.0
C115 C 0.08151 0.12828 0.66511 0.0
C116 C 0.1268 0.17326 0.61743 0.0
C117 C 0.12915 0.08078 0.66569 0.0
C118 C 0.18075 0.13331 0.69773 0.0
C119 C 0.17446 0.12596 0.61793 0.0
O120 O 0.12547 0.16155 0.70311 0.0
O121 O 0.0905 0.12581 0.64601 0.0
O122 O 0.14251 0.17807 0.63092 0.0
O123 O 0.12942 0.09227 0.6836 0.0
O124 O 0.18316 0.14643 0.68112 0.0
O125 O 0.1553 0.11691 0.61656 0.0
O126 O 0.16191 0.12506 0.70328 0.0
O127 O 0.12713 0.08948 0.64639 0.0
O128 O 0.17899 0.14189 0.63126 0.0
O129 O 0.09273 0.12907 0.68319 0.0
O130 O 0.14664 0.18282 0.6808 0.0
O131 O 0.11794 0.154 0.61613 0.0
Sc132 Sc 0.83407 0.16266 0.65525 0.0
Sc133 Sc 0.87252 0.12397 0.6328 0.0
Sc134 Sc 0.86725 0.12963 0.69139 0.0
O135 O 0.85794 0.13877 0.65984 0.0
C136 C 0.86143 0.18264 0.69667 0.0
C137 C 0.86937 0.17459 0.61691 0.0
C138 C 0.91405 0.13002 0.66581 0.0
C139 C 0.82184 0.1272 0.61717 0.0
C140 C 0.81427 0.13552 0.6969 0.0
C141 C 0.86635 0.08268 0.6661 0.0
O142 O 0.84847 0.18485 0.6799 0.0
O143 O 0.87833 0.15536 0.61603 0.0
O144 O 0.90254 0.13098 0.6837 0.0
O145 O 0.81699 0.14322 0.6303 0.0
O146 O 0.83307 0.12742 0.70277 0.0
O147 O 0.86874 0.09122 0.64677 0.0
O148 O 0.812 0.14841 0.68008 0.0
O149 O 0.84108 0.11827 0.61619 0.0
O150 O 0.86575 0.09432 0.68391 0.0
O151 O 0.85339 0.17951 0.63006 0.0
O152 O 0.86957 0.16386 0.70257 0.0
O153 O 0.90535 0.1275 0.64659 0.0
Sc154 Sc 0.83461 0.83525 0.6562 0.0
Sc155 Sc 0.87293 0.87368 0.63317 0.0
Sc156 Sc 0.86782 0.86874 0.69187 0.0
O157 O 0.85845 0.85921 0.66045 0.0
C158 C 0.81493 0.86272 0.69772 0.0
C159 C 0.8221 0.87028 0.61788 0.0
C160 C 0.8667 0.91536 0.6659 0.0
C161 C 0.8698 0.82292 0.61788 0.0
C162 C 0.86218 0.81574 0.69768 0.0
C163 C 0.91457 0.86801 0.66618 0.0
O164 O 0.81269 0.8496 0.68109 0.0
O165 O 0.84137 0.87911 0.61657 0.0
O166 O 0.86627 0.904 0.68391 0.0
O167 O 0.85377 0.81819 0.63103 0.0
O168 O 0.87016 0.83462 0.70351 0.0
O169 O 0.90584 0.87038 0.64694 0.0
O170 O 0.84932 0.81335 0.68087 0.0
O171 O 0.87882 0.84211 0.61684 0.0
O172 O 0.90309 0.86726 0.68409 0.0
O173 O 0.81732 0.85447 0.63127 0.0
O174 O 0.8337 0.87107 0.70336 0.0
O175 O 0.86904 0.90655 0.6467 0.0
Sc176 Sc 0.34088 0.16307 0.16081 0.0
Sc177 Sc 0.36334 0.12382 0.12299 0.0
Sc178 Sc 0.30473 0.12956 0.12812 0.0
O179 O 0.33627 0.13883 0.13732 0.0
C180 C 0.29939 0.13607 0.18112 0.0
C181 C 0.37917 0.12792 0.17348 0.0
C182 C 0.33008 0.08261 0.12957 0.0
C183 C 0.379 0.17453 0.12517 0.0
C184 C 0.29914 0.18257 0.1335 0.0
C185 C 0.33042 0.12959 0.08135 0.0
O186 O 0.31628 0.14891 0.18318 0.0
O187 O 0.37995 0.11853 0.15446 0.0
O188 O 0.31225 0.09424 0.12998 0.0
O189 O 0.36577 0.17978 0.14098 0.0
O190 O 0.29337 0.16371 0.12545 0.0
O191 O 0.34958 0.12703 0.09017 0.0
O192 O 0.31595 0.18495 0.14637 0.0
O193 O 0.38008 0.15508 0.11674 0.0
O194 O 0.31246 0.13061 0.09274 0.0
O195 O 0.36613 0.1441 0.17803 0.0
O196 O 0.29341 0.12778 0.1624 0.0
O197 O 0.3494 0.09113 0.12717 0.0
Sc198 Sc 0.83337 0.34018 0.1611 0.0
Sc199 Sc 0.87216 0.36369 0.12342 0.0
Sc200 Sc 0.86719 0.30492 0.1278 0.0
O201 O 0.85757 0.33623 0.13745 0.0
C202 C 0.86095 0.29872 0.18068 0.0
C203 C 0.86811 0.37863 0.17423 0.0
C204 C 0.91384 0.33081 0.12932 0.0
C205 C 0.82124 0.37876 0.12621 0.0
C206 C 0.81425 0.29871 0.13315 0.0
C207 C 0.86663 0.33123 0.08137 0.0
O208 O 0.84789 0.3154 0.18301 0.0
O209 O 0.87743 0.37986 0.15519 0.0
O210 O 0.9024 0.31286 0.12966 0.0
O211 O 0.81628 0.36521 0.14183 0.0
O212 O 0.83316 0.29321 0.12504 0.0
O213 O 0.86891 0.35036 0.09036 0.0
O214 O 0.81173 0.3153 0.14628 0.0
O215 O 0.84062 0.38019 0.11762 0.0
O216 O 0.86593 0.31315 0.0926 0.0
O217 O 0.85211 0.36532 0.17863 0.0
O218 O 0.86925 0.29311 0.16187 0.0
O219 O 0.90509 0.35006 0.12714 0.0
Sc220 Sc 0.69132 0.86713 0.12818 0.0
Sc221 Sc 0.63262 0.8719 0.12301 0.0
Sc222 Sc 0.65571 0.83382 0.16167 0.0
O223 O 0.65992 0.8576 0.13762 0.0
C224 C 0.69727 0.81418 0.13425 0.0
C225 C 0.66559 0.86601 0.08142 0.0
C226 C 0.61739 0.82115 0.12662 0.0
C227 C 0.6653 0.91371 0.12886 0.0
C228 C 0.69715 0.86151 0.18116 0.0
C229 C 0.61731 0.86892 0.17383 0.0
O230 O 0.70296 0.833 0.12601 0.0
O231 O 0.64634 0.86827 0.09015 0.0
O232 O 0.63063 0.81653 0.14261 0.0
O233 O 0.68332 0.90239 0.12955 0.0
O234 O 0.68049 0.84845 0.18352 0.0
O235 O 0.61608 0.87765 0.1545 0.0
O236 O 0.70285 0.86964 0.16231 0.0
O237 O 0.64613 0.90484 0.12649 0.0
O238 O 0.63066 0.85311 0.17874 0.0
O239 O 0.68351 0.86549 0.0929 0.0
O240 O 0.68053 0.81187 0.14723 0.0
O241 O 0.61625 0.84029 0.11749 0.0
Sc242 Sc 0.12736 0.69152 0.12872 0.0
Sc243 Sc 0.12279 0.63276 0.1237 0.0
Sc244 Sc 0.1614 0.65614 0.16164 0.0
O245 O 0.13718 0.66017 0.13803 0.0
C246 C 0.18029 0.69786 0.13399 0.0
C247 C 0.12808 0.66578 0.082 0.0
C248 C 0.17375 0.61785 0.1265 0.0
C249 C 0.08089 0.66529 0.1299 0.0
C250 C 0.13362 0.69731 0.18158 0.0
C251 C 0.12688 0.61741 0.17446 0.0
O252 O 0.16131 0.70349 0.12612 0.0
O253 O 0.12592 0.64651 0.09074 0.0
O254 O 0.17857 0.63122 0.14231 0.0
O255 O 0.0922 0.68331 0.13043 0.0
O256 O 0.14687 0.68076 0.18372 0.0
O257 O 0.11765 0.61618 0.15536 0.0
O258 O 0.12516 0.70298 0.16287 0.0
O259 O 0.08978 0.64612 0.12756 0.0
O260 O 0.1427 0.63087 0.179 0.0
O261 O 0.12871 0.6837 0.09348 0.0
O262 O 0.18292 0.68108 0.14686 0.0
O263 O 0.15444 0.61651 0.11775 0.0
Sc264 Sc 0.34124 0.83296 0.83355 0.0
Sc265 Sc 0.36458 0.87198 0.87115 0.0
Sc266 Sc 0.30587 0.86681 0.8667 0.0
O267 O 0.3372 0.85724 0.85712 0.0
C268 C 0.29966 0.86032 0.81384 0.0
C269 C 0.37977 0.86762 0.82042 0.0
C270 C 0.33169 0.91353 0.86489 0.0
C271 C 0.37972 0.82109 0.86872 0.0
C272 C 0.2998 0.81383 0.86153 0.0
C273 C 0.33204 0.86683 0.9132 0.0
O274 O 0.31635 0.84726 0.81153 0.0
O275 O 0.38099 0.8769 0.83947 0.0
O276 O 0.31376 0.90204 0.86474 0.0
O277 O 0.36636 0.81606 0.85295 0.0
O278 O 0.29423 0.83276 0.86955 0.0
O279 O 0.35116 0.86918 0.90421 0.0
O280 O 0.31642 0.81129 0.84845 0.0
O281 O 0.38096 0.84048 0.87731 0.0
O282 O 0.31401 0.86575 0.90193 0.0
O283 O 0.36636 0.85173 0.81596 0.0
O284 O 0.29411 0.86873 0.83262 0.0
O285 O 0.35097 0.90485 0.86701 0.0
Sc286 Sc 0.16107 0.33834 0.83511 0.0
Sc287 Sc 0.12295 0.36241 0.87308 0.0
Sc288 Sc 0.12739 0.30355 0.86902 0.0
O289 O 0.13714 0.33473 0.85907 0.0
C290 C 0.13302 0.29694 0.81614 0.0
C291 C 0.12654 0.377 0.8221 0.0
C292 C 0.08095 0.32984 0.86776 0.0
C293 C 0.17397 0.37703 0.8696 0.0
C294 C 0.18022 0.29696 0.86318 0.0
C295 C 0.12858 0.33014 0.91529 0.0
O296 O 0.14616 0.31351 0.81358 0.0
O297 O 0.1175 0.3785 0.84127 0.0
O298 O 0.09224 0.31179 0.86743 0.0
O299 O 0.17856 0.3634 0.85394 0.0
O300 O 0.16136 0.29158 0.87151 0.0
O301 O 0.12638 0.34923 0.9062 0.0
O302 O 0.18268 0.31347 0.84993 0.0
O303 O 0.15473 0.37863 0.87847 0.0
O304 O 0.12904 0.31199 0.90416 0.0
O305 O 0.1423 0.36346 0.8176 0.0
O306 O 0.12487 0.29148 0.83506 0.0
O307 O 0.08987 0.34903 0.86975 0.0
Sc308 Sc 0.69039 0.12839 0.86653 0.0
Sc309 Sc 0.63171 0.12356 0.87189 0.0
Sc310 Sc 0.65466 0.16262 0.83412 0.0
O311 O 0.65896 0.1382 0.85751 0.0
C312 C 0.69663 0.18142 0.86149 0.0
C313 C 0.66497 0.12849 0.91341 0.0
C314 C 0.61672 0.17449 0.86985 0.0
C315 C 0.66424 0.08184 0.86498 0.0
C316 C 0.69576 0.13513 0.81364 0.0
C317 C 0.61591 0.1281 0.82135 0.0
O318 O 0.70231 0.1624 0.86923 0.0
O319 O 0.6457 0.12622 0.90473 0.0
O320 O 0.62987 0.17952 0.8539 0.0
O321 O 0.68227 0.09317 0.86464 0.0
O322 O 0.67917 0.14836 0.81171 0.0
O323 O 0.61485 0.11878 0.8404 0.0
O324 O 0.70155 0.1265 0.83225 0.0
O325 O 0.64507 0.09067 0.86741 0.0
O326 O 0.62931 0.14398 0.81679 0.0
O327 O 0.68284 0.12947 0.90187 0.0
O328 O 0.67972 0.18411 0.8488 0.0
O329 O 0.61554 0.15509 0.87841 0.0
Sc330 Sc 0.83474 0.65702 0.83492 0.0
Sc331 Sc 0.87297 0.63367 0.87328 0.0
Sc332 Sc 0.86789 0.69241 0.86874 0.0
O333 O 0.85853 0.66107 0.85897 0.0
C334 C 0.86243 0.6986 0.81578 0.0
C335 C 0.86969 0.61859 0.82242 0.0
C336 C 0.91461 0.66662 0.86774 0.0
C337 C 0.82213 0.61854 0.8698 0.0
C338 C 0.815 0.69833 0.86264 0.0
C339 C 0.86696 0.66623 0.9152 0.0
O340 O 0.84946 0.68189 0.81323 0.0
O341 O 0.8786 0.61729 0.84165 0.0
O342 O 0.90314 0.68456 0.86734 0.0
O343 O 0.81746 0.63191 0.85393 0.0
O344 O 0.83376 0.70396 0.87102 0.0
O345 O 0.86943 0.64709 0.90629 0.0
O346 O 0.81278 0.68176 0.84945 0.0
O347 O 0.84133 0.61727 0.8788 0.0
O348 O 0.86622 0.68426 0.90391 0.0
O349 O 0.85387 0.63199 0.81768 0.0
O350 O 0.8704 0.70423 0.83472 0.0
O351 O 0.90588 0.64734 0.86979 0.0
Sc352 Sc 0.12796 0.30565 0.12982 0.0
Sc353 Sc 0.12309 0.36428 0.12401 0.0
Sc354 Sc 0.1613 0.34165 0.16283 0.0
O355 O 0.13746 0.33716 0.1389 0.0
C356 C 0.13377 0.3003 0.18282 0.0
C357 C 0.08132 0.33166 0.13036 0.0
C358 C 0.12625 0.3802 0.17463 0.0
C359 C 0.12888 0.33084 0.08278 0.0
C360 C 0.18096 0.2999 0.13577 0.0
C361 C 0.17385 0.37957 0.12725 0.0
O362 O 0.12552 0.2945 0.16405 0.0
O363 O 0.09017 0.35082 0.12782 0.0
O364 O 0.14199 0.36682 0.1797 0.0
O365 O 0.12954 0.31305 0.09446 0.0
O366 O 0.18328 0.31681 0.14852 0.0
O367 O 0.1547 0.38051 0.11812 0.0
O368 O 0.16212 0.29402 0.12772 0.0
O369 O 0.12655 0.35017 0.09128 0.0
O370 O 0.17849 0.36661 0.14348 0.0
O371 O 0.09268 0.31366 0.13115 0.0
O372 O 0.14686 0.31698 0.185 0.0
O373 O 0.11752 0.38125 0.1553 0.0
Sc374 Sc 0.12883 0.69091 0.86781 0.0
Sc375 Sc 0.12348 0.63224 0.87299 0.0
Sc376 Sc 0.16175 0.65494 0.83431 0.0
O377 O 0.13803 0.6594 0.85836 0.0
C378 C 0.13442 0.69664 0.81478 0.0
C379 C 0.082 0.66529 0.86705 0.0
C380 C 0.12649 0.61663 0.82231 0.0
C381 C 0.1297 0.66516 0.91455 0.0
C382 C 0.1818 0.69639 0.86162 0.0
C383 C 0.1741 0.61662 0.86952 0.0
O384 O 0.12639 0.70242 0.83366 0.0
O385 O 0.09069 0.64604 0.86935 0.0
O386 O 0.14232 0.62993 0.81733 0.0
O387 O 0.13045 0.68312 0.90313 0.0
O388 O 0.18392 0.67961 0.84866 0.0
O389 O 0.15494 0.61567 0.87863 0.0
O390 O 0.16307 0.70227 0.86991 0.0
O391 O 0.12716 0.64598 0.90579 0.0
O392 O 0.17884 0.62977 0.85349 0.0
O393 O 0.09349 0.68322 0.8665 0.0
O394 O 0.14729 0.67982 0.81239 0.0
O395 O 0.11772 0.61556 0.84161 0.0
Sc396 Sc 0.34055 0.16132 0.83402 0.0
Sc397 Sc 0.36406 0.12312 0.87231 0.0
Sc398 Sc 0.30529 0.12727 0.86706 0.0
O399 O 0.3366 0.13725 0.8578 0.0
C400 C 0.29882 0.18021 0.86165 0.0
C401 C 0.37883 0.17406 0.86907 0.0
C402 C 0.33088 0.12827 0.91387 0.0
C403 C 0.37928 0.12676 0.82146 0.0
C404 C 0.2994 0.13341 0.81422 0.0
C405 C 0.33185 0.08098 0.86602 0.0
O406 O 0.31561 0.18286 0.8488 0.0
O407 O 0.38012 0.15489 0.87812 0.0
O408 O 0.31302 0.12868 0.90231 0.0
O409 O 0.36572 0.14244 0.81672 0.0
O410 O 0.29382 0.12493 0.83294 0.0
O411 O 0.35092 0.09002 0.86854 0.0
O412 O 0.31588 0.14673 0.81204 0.0
O413 O 0.38067 0.11786 0.84071 0.0
O414 O 0.31373 0.09215 0.86537 0.0
O415 O 0.36553 0.17864 0.85313 0.0
O416 O 0.29321 0.16122 0.86954 0.0
O417 O 0.35022 0.12632 0.90523 0.0
Sc418 Sc 0.86676 0.30581 0.86689 0.0
Sc419 Sc 0.87185 0.36446 0.87254 0.0
Sc420 Sc 0.83317 0.34187 0.83419 0.0
O421 O 0.85724 0.33734 0.85787 0.0
C422 C 0.86059 0.3006 0.81393 0.0
C423 C 0.91347 0.33165 0.86615 0.0
C424 C 0.86824 0.38031 0.82194 0.0
C425 C 0.86611 0.3311 0.91387 0.0
C426 C 0.81373 0.29998 0.86125 0.0
C427 C 0.82114 0.38 0.86967 0.0
O428 O 0.86901 0.29473 0.83261 0.0
O429 O 0.9047 0.35085 0.86862 0.0
O430 O 0.8523 0.36707 0.81713 0.0
O431 O 0.86533 0.31327 0.90225 0.0
O432 O 0.81128 0.31697 0.84862 0.0
O433 O 0.84041 0.38097 0.87854 0.0
O434 O 0.83265 0.29412 0.86913 0.0
O435 O 0.86849 0.35041 0.9053 0.0
O436 O 0.81623 0.36685 0.85369 0.0
O437 O 0.90204 0.3137 0.86545 0.0
O438 O 0.84746 0.31726 0.81192 0.0
O439 O 0.87729 0.38127 0.84113 0.0
Sc440 Sc 0.69031 0.8676 0.86736 0.0
Sc441 Sc 0.63161 0.87287 0.87211 0.0
Sc442 Sc 0.65468 0.83429 0.83394 0.0
O443 O 0.6589 0.85825 0.8578 0.0
C444 C 0.6963 0.86167 0.81443 0.0
C445 C 0.66467 0.91441 0.86625 0.0
C446 C 0.61648 0.86947 0.82127 0.0
C447 C 0.66426 0.86686 0.91394 0.0
C448 C 0.69606 0.81465 0.86163 0.0
C449 C 0.61621 0.82207 0.86894 0.0
O450 O 0.70201 0.86982 0.83327 0.0
O451 O 0.64539 0.90575 0.86853 0.0
O452 O 0.62969 0.85346 0.81663 0.0
O453 O 0.68226 0.86617 0.90259 0.0
O454 O 0.67939 0.81234 0.84857 0.0
O455 O 0.61501 0.84135 0.87777 0.0
O456 O 0.70177 0.83347 0.86981 0.0
O457 O 0.64509 0.86929 0.90508 0.0
O458 O 0.62956 0.81722 0.85312 0.0
O459 O 0.68256 0.90287 0.86574 0.0
O460 O 0.67953 0.84874 0.81207 0.0
O461 O 0.61531 0.87851 0.84046 0.0
Sc462 Sc 0.83329 0.6536 0.16263 0.0
Sc463 Sc 0.87173 0.63059 0.12427 0.0
Sc464 Sc 0.86676 0.68927 0.12938 0.0
O465 O 0.85725 0.65786 0.13877 0.0
C466 C 0.81378 0.6952 0.13517 0.0
C467 C 0.82099 0.61524 0.12748 0.0
C468 C 0.86591 0.66354 0.08265 0.0
C469 C 0.86829 0.61515 0.175 0.0
C470 C 0.86079 0.69513 0.18231 0.0
C471 C 0.91342 0.66336 0.13029 0.0
O472 O 0.81139 0.6784 0.14806 0.0
O473 O 0.84022 0.61415 0.11854 0.0
O474 O 0.86524 0.68147 0.09411 0.0
O475 O 0.85245 0.62851 0.1798 0.0
O476 O 0.86909 0.70076 0.16351 0.0
O477 O 0.90463 0.64416 0.12796 0.0
O478 O 0.84771 0.67846 0.18461 0.0
O479 O 0.87724 0.614 0.15578 0.0
O480 O 0.90202 0.68134 0.13087 0.0
O481 O 0.81618 0.62849 0.14341 0.0
O482 O 0.83264 0.70093 0.12709 0.0
O483 O 0.86826 0.6443 0.09139 0.0
Sc484 Sc 0.3387 0.83488 0.1607 0.0
Sc485 Sc 0.3628 0.87328 0.123 0.0
Sc486 Sc 0.30395 0.869 0.1272 0.0
O487 O 0.33512 0.85905 0.13696 0.0
C488 C 0.29726 0.81611 0.13254 0.0
C489 C 0.37722 0.82222 0.12588 0.0
C490 C 0.33031 0.86845 0.08083 0.0
C491 C 0.37753 0.86907 0.17394 0.0
C492 C 0.29739 0.86289 0.18001 0.0
C493 C 0.33047 0.9153 0.12907 0.0
O494 O 0.31382 0.81347 0.14567 0.0
O495 O 0.37874 0.84148 0.11703 0.0
O496 O 0.31225 0.86763 0.09206 0.0
O497 O 0.36381 0.85344 0.17838 0.0
O498 O 0.29201 0.87128 0.16118 0.0
O499 O 0.34964 0.90634 0.12705 0.0
O500 O 0.31386 0.84959 0.18243 0.0
O501 O 0.37916 0.87812 0.15479 0.0
O502 O 0.31237 0.9041 0.12907 0.0
O503 O 0.36376 0.81757 0.14168 0.0
O504 O 0.29185 0.83508 0.12447 0.0
O505 O 0.34944 0.8706 0.08986 0.0
Sc506 Sc 0.69098 0.12808 0.12737 0.0
Sc507 Sc 0.63225 0.12253 0.12298 0.0
Sc508 Sc 0.65537 0.16115 0.16104 0.0
O509 O 0.65957 0.13726 0.13713 0.0
C510 C 0.69714 0.13381 0.1803 0.0
C511 C 0.66555 0.08116 0.12857 0.0
C512 C 0.61726 0.12593 0.17384 0.0
C513 C 0.66467 0.12863 0.08096 0.0
C514 C 0.69658 0.18104 0.13327 0.0
C515 C 0.61669 0.17324 0.12623 0.0
O516 O 0.70284 0.1258 0.1614 0.0
O517 O 0.64621 0.08974 0.12652 0.0
O518 O 0.63048 0.14195 0.17841 0.0
O519 O 0.68274 0.12954 0.09218 0.0
O520 O 0.67996 0.1832 0.14641 0.0
O521 O 0.61549 0.15397 0.11739 0.0
O522 O 0.70234 0.16229 0.12496 0.0
O523 O 0.64558 0.12607 0.08995 0.0
O524 O 0.63014 0.17815 0.14196 0.0
O525 O 0.6834 0.09276 0.12891 0.0
O526 O 0.68032 0.14666 0.18279 0.0
O527 O 0.61606 0.11684 0.15468 0.0
Sc528 Sc 0.6602 0.66166 0.83828 0.0
Sc529 Sc 0.62251 0.62316 0.86231 0.0
Sc530 Sc 0.62628 0.62793 0.80352 0.0
O531 O 0.63634 0.6376 0.83467 0.0
C532 C 0.63177 0.68083 0.79715 0.0
C533 C 0.62562 0.67413 0.87707 0.0
C534 C 0.58013 0.62849 0.83023 0.0
C535 C 0.67353 0.62702 0.87672 0.0
C536 C 0.67911 0.63387 0.79667 0.0
C537 C 0.62812 0.58138 0.82958 0.0
O538 O 0.64514 0.6833 0.81356 0.0
O539 O 0.61686 0.65484 0.87856 0.0
O540 O 0.59119 0.62929 0.81206 0.0
O541 O 0.67796 0.64284 0.86322 0.0
O542 O 0.66017 0.62569 0.79137 0.0
O543 O 0.6262 0.5902 0.84883 0.0
O544 O 0.68178 0.64699 0.81325 0.0
O545 O 0.65439 0.61796 0.87829 0.0
O546 O 0.62815 0.59275 0.81158 0.0
O547 O 0.6413 0.67891 0.86351 0.0
O548 O 0.62352 0.66195 0.79176 0.0
O549 O 0.58931 0.62623 0.84926 0.0
Sc550 Sc 0.36548 0.62975 0.8055 0.0
Sc551 Sc 0.37129 0.62383 0.86404 0.0
Sc552 Sc 0.33326 0.66322 0.8421 0.0
O553 O 0.35666 0.63893 0.83718 0.0
C554 C 0.36038 0.68287 0.80037 0.0
C555 C 0.41256 0.62931 0.83056 0.0
C556 C 0.36934 0.67448 0.87992 0.0
C557 C 0.36415 0.58272 0.83078 0.0
C558 C 0.31252 0.63647 0.80061 0.0
C559 C 0.32091 0.62803 0.88038 0.0
O560 O 0.36809 0.66397 0.79427 0.0
O561 O 0.40399 0.62668 0.84983 0.0
O562 O 0.35321 0.67968 0.86706 0.0
O563 O 0.36369 0.5944 0.81298 0.0
O564 O 0.31067 0.64938 0.81747 0.0
O565 O 0.34 0.61878 0.88114 0.0
O566 O 0.33112 0.62803 0.79454 0.0
O567 O 0.36667 0.59118 0.85011 0.0
O568 O 0.31616 0.64407 0.86724 0.0
O569 O 0.4009 0.63068 0.81279 0.0
O570 O 0.34775 0.68522 0.81736 0.0
O571 O 0.37798 0.65509 0.88064 0.0
Sc572 Sc 0.36801 0.36902 0.8044 0.0
Sc573 Sc 0.37293 0.37335 0.86321 0.0
Sc574 Sc 0.3348 0.33508 0.83962 0.0
O575 O 0.35858 0.35914 0.83571 0.0
C576 C 0.31513 0.363 0.79841 0.0
C577 C 0.36663 0.41537 0.83086 0.0
C578 C 0.32214 0.36949 0.87846 0.0
C579 C 0.41469 0.36819 0.83025 0.0
C580 C 0.36248 0.31611 0.79793 0.0
C581 C 0.36985 0.32237 0.87792 0.0
O582 O 0.33391 0.37135 0.7928 0.0
O583 O 0.36898 0.4064 0.84999 0.0
O584 O 0.31745 0.35385 0.86484 0.0
O585 O 0.40326 0.36759 0.8123 0.0
O586 O 0.34954 0.31354 0.81466 0.0
O587 O 0.37883 0.34158 0.87927 0.0
O588 O 0.37052 0.33505 0.79238 0.0
O589 O 0.40589 0.37031 0.84949 0.0
O590 O 0.35394 0.31775 0.86459 0.0
O591 O 0.36627 0.40416 0.81276 0.0
O592 O 0.31287 0.34978 0.81496 0.0
O593 O 0.34134 0.37847 0.87985 0.0
Sc594 Sc 0.66242 0.33416 0.84156 0.0
Sc595 Sc 0.62385 0.37243 0.86446 0.0
Sc596 Sc 0.62891 0.36727 0.80577 0.0
O597 O 0.63841 0.35795 0.83722 0.0
C598 C 0.68193 0.36166 0.79996 0.0
C599 C 0.67452 0.36917 0.88007 0.0
C600 C 0.62979 0.41401 0.83153 0.0
C601 C 0.62717 0.32169 0.87979 0.0
C602 C 0.63508 0.31434 0.80005 0.0
C603 C 0.5822 0.36647 0.83154 0.0
O604 O 0.68435 0.34874 0.81674 0.0
O605 O 0.65525 0.37802 0.88117 0.0
O606 O 0.63027 0.40256 0.81359 0.0
O607 O 0.64321 0.31697 0.86663 0.0
O608 O 0.62675 0.33309 0.79428 0.0
O609 O 0.59099 0.36895 0.85072 0.0
O610 O 0.64808 0.31215 0.81678 0.0
O611 O 0.61813 0.34088 0.88085 0.0
O612 O 0.59362 0.36568 0.81358 0.0
O613 O 0.67944 0.35339 0.86668 0.0
O614 O 0.66305 0.3697 0.79423 0.0
O615 O 0.62756 0.40529 0.85079 0.0
Sc616 Sc 0.62769 0.36762 0.19195 0.0
Sc617 Sc 0.62281 0.37187 0.13317 0.0
Sc618 Sc 0.6619 0.33458 0.15683 0.0
O619 O 0.63748 0.35803 0.16069 0.0
C620 C 0.68067 0.3626 0.19839 0.0
C621 C 0.62777 0.41401 0.16566 0.0
C622 C 0.67379 0.36966 0.11829 0.0
C623 C 0.58113 0.36556 0.16587 0.0
C624 C 0.63421 0.31482 0.19815 0.0
C625 C 0.62743 0.32107 0.11827 0.0
O626 O 0.66165 0.37046 0.2039 0.0
O627 O 0.6254 0.40495 0.14657 0.0
O628 O 0.67884 0.35397 0.13174 0.0
O629 O 0.59252 0.36565 0.18386 0.0
O630 O 0.64752 0.3126 0.18165 0.0
O631 O 0.61809 0.34009 0.11687 0.0
O632 O 0.62566 0.33354 0.20365 0.0
O633 O 0.5899 0.36756 0.14661 0.0
O634 O 0.64334 0.3168 0.13173 0.0
O635 O 0.62886 0.40282 0.18374 0.0
O636 O 0.68336 0.34964 0.18169 0.0
O637 O 0.65437 0.37815 0.11691 0.0
Sc638 Sc 0.62919 0.62852 0.19129 0.0
Sc639 Sc 0.62354 0.62311 0.1327 0.0
Sc640 Sc 0.66315 0.66064 0.15506 0.0
O641 O 0.63864 0.63743 0.15972 0.0
C642 C 0.63621 0.68141 0.19636 0.0
C643 C 0.58233 0.63042 0.16577 0.0
C644 C 0.6283 0.67353 0.11663 0.0
C645 C 0.62853 0.5816 0.16599 0.0
C646 C 0.68228 0.63325 0.1969 0.0
C647 C 0.67431 0.62467 0.11714 0.0
O648 O 0.62764 0.66284 0.20235 0.0
O649 O 0.59085 0.62793 0.14646 0.0
O650 O 0.64437 0.67801 0.12982 0.0
O651 O 0.62992 0.59315 0.18382 0.0
O652 O 0.68485 0.64595 0.17998 0.0
O653 O 0.65482 0.61627 0.11619 0.0
O654 O 0.66329 0.62559 0.20277 0.0
O655 O 0.62605 0.59029 0.14675 0.0
O656 O 0.67962 0.64061 0.13018 0.0
O657 O 0.59393 0.63065 0.18362 0.0
O658 O 0.64925 0.68324 0.17961 0.0
O659 O 0.61882 0.65455 0.11578 0.0
Sc660 Sc 0.33419 0.66018 0.15725 0.0
Sc661 Sc 0.37309 0.62289 0.13323 0.0
Sc662 Sc 0.36892 0.62735 0.19204 0.0
O663 O 0.35873 0.63681 0.16087 0.0
C664 C 0.36201 0.68018 0.19825 0.0
C665 C 0.36807 0.6736 0.11813 0.0
C666 C 0.41511 0.6298 0.16548 0.0
C667 C 0.32187 0.62495 0.11904 0.0
C668 C 0.31606 0.63182 0.19888 0.0
C669 C 0.36898 0.58083 0.1659 0.0
O670 O 0.3489 0.68239 0.18161 0.0
O671 O 0.37761 0.65467 0.11683 0.0
O672 O 0.40394 0.63001 0.1836 0.0
O673 O 0.31694 0.64056 0.13261 0.0
O674 O 0.33509 0.62375 0.20399 0.0
O675 O 0.37067 0.58979 0.1467 0.0
O676 O 0.31318 0.64525 0.1826 0.0
O677 O 0.34133 0.61659 0.1173 0.0
O678 O 0.36836 0.59215 0.18392 0.0
O679 O 0.35225 0.67784 0.13169 0.0
O680 O 0.37041 0.66143 0.20392 0.0
O681 O 0.40615 0.62727 0.14636 0.0
Sc682 Sc 0.33366 0.33334 0.15425 0.0
Sc683 Sc 0.37223 0.37161 0.13135 0.0
Sc684 Sc 0.36713 0.36647 0.19003 0.0
O685 O 0.35766 0.35713 0.15859 0.0
C686 C 0.31416 0.36079 0.19587 0.0
C687 C 0.32139 0.36893 0.11624 0.0
C688 C 0.36691 0.41324 0.16438 0.0
C689 C 0.36844 0.32101 0.11563 0.0
C690 C 0.36108 0.31349 0.19573 0.0
C691 C 0.41382 0.36504 0.16411 0.0
O692 O 0.31181 0.34787 0.17909 0.0
O693 O 0.34064 0.37786 0.11521 0.0
O694 O 0.36584 0.40181 0.18232 0.0
O695 O 0.35272 0.31613 0.1291 0.0
O696 O 0.36932 0.33229 0.20146 0.0
O697 O 0.4051 0.36731 0.14486 0.0
O698 O 0.34806 0.31123 0.17901 0.0
O699 O 0.37733 0.34025 0.11447 0.0
O700 O 0.40239 0.36481 0.18208 0.0
O701 O 0.31662 0.35278 0.12924 0.0
O702 O 0.333 0.36889 0.20164 0.0
O703 O 0.36935 0.40444 0.14521 0.0
Sc704 Sc 0.8397 0.66237 0.6616 0.0
Sc705 Sc 0.86335 0.62403 0.62348 0.0
Sc706 Sc 0.80462 0.62858 0.62814 0.0
O707 O 0.83586 0.63834 0.63774 0.0
C708 C 0.79843 0.63426 0.68095 0.0
C709 C 0.87824 0.6277 0.67446 0.0
C710 C 0.83091 0.58208 0.62911 0.0
C711 C 0.87823 0.67492 0.62669 0.0
C712 C 0.79821 0.68154 0.63397 0.0
C713 C 0.83055 0.62968 0.5816 0.0
O714 O 0.81459 0.64795 0.68332 0.0
O715 O 0.87982 0.61886 0.6552 0.0
O716 O 0.81288 0.5934 0.62928 0.0
O717 O 0.86498 0.67955 0.64267 0.0
O718 O 0.79248 0.66257 0.62613 0.0
O719 O 0.84974 0.62714 0.59044 0.0
O720 O 0.8151 0.68413 0.64667 0.0
O721 O 0.87942 0.65574 0.61765 0.0
O722 O 0.81259 0.63057 0.59298 0.0
O723 O 0.86459 0.64334 0.6791 0.0
O724 O 0.79323 0.62563 0.66219 0.0
O725 O 0.85011 0.59098 0.62726 0.0
Sc726 Sc 0.33367 0.84132 0.66259 0.0
Sc727 Sc 0.37136 0.86345 0.623 0.0
Sc728 Sc 0.36598 0.80488 0.62903 0.0
O729 O 0.35699 0.83652 0.63822 0.0
C730 C 0.36124 0.79982 0.68217 0.0
C731 C 0.36956 0.8794 0.67362 0.0
C732 C 0.4129 0.83025 0.62813 0.0
C733 C 0.32093 0.87953 0.62747 0.0
C734 C 0.31307 0.79959 0.63617 0.0
C735 C 0.36404 0.8301 0.58201 0.0
O736 O 0.34844 0.81668 0.68456 0.0
O737 O 0.37818 0.88013 0.65422 0.0
O738 O 0.40138 0.81241 0.62964 0.0
O739 O 0.31629 0.86633 0.64349 0.0
O740 O 0.33167 0.79361 0.62764 0.0
O741 O 0.36654 0.84946 0.59042 0.0
O742 O 0.31118 0.81653 0.64896 0.0
O743 O 0.33999 0.88041 0.61817 0.0
O744 O 0.36381 0.8123 0.5937 0.0
O745 O 0.35353 0.86646 0.67888 0.0
O746 O 0.36896 0.79379 0.66325 0.0
O747 O 0.40416 0.84945 0.62558 0.0
Sc748 Sc 0.19166 0.36922 0.62751 0.0
Sc749 Sc 0.13283 0.37288 0.62268 0.0
Sc750 Sc 0.15697 0.33523 0.66115 0.0
O751 O 0.16051 0.35912 0.63713 0.0
C752 C 0.19863 0.31644 0.63334 0.0
C753 C 0.16566 0.3674 0.58093 0.0
C754 C 0.11862 0.32175 0.62649 0.0
C755 C 0.16483 0.41533 0.62816 0.0
C756 C 0.19799 0.36368 0.68041 0.0
C757 C 0.11795 0.36953 0.67362 0.0
O758 O 0.20394 0.33538 0.62516 0.0
O759 O 0.14638 0.36929 0.58969 0.0
O760 O 0.13214 0.31743 0.64232 0.0
O761 O 0.18299 0.40425 0.62897 0.0
O762 O 0.18158 0.35033 0.68284 0.0
O763 O 0.11644 0.37839 0.65436 0.0
O764 O 0.20342 0.37194 0.66153 0.0
O765 O 0.14578 0.40617 0.62583 0.0
O766 O 0.13163 0.35395 0.67836 0.0
O767 O 0.18362 0.36739 0.59234 0.0
O768 O 0.18207 0.31379 0.64648 0.0
O769 O 0.11696 0.34089 0.61741 0.0
Sc770 Sc 0.62991 0.19203 0.62851 0.0
Sc771 Sc 0.62407 0.13344 0.6233 0.0
Sc772 Sc 0.66259 0.15579 0.66194 0.0
O773 O 0.63887 0.16046 0.63793 0.0
C774 C 0.68288 0.19716 0.63475 0.0
C775 C 0.63061 0.1664 0.58176 0.0
C776 C 0.67463 0.11748 0.62667 0.0
C777 C 0.58287 0.16688 0.62905 0.0
C778 C 0.63542 0.19753 0.68153 0.0
C779 C 0.627 0.11779 0.674 0.0
O780 O 0.66418 0.20316 0.62648 0.0
O781 O 0.6279 0.14719 0.59047 0.0
O782 O 0.67952 0.13061 0.64268 0.0
O783 O 0.59455 0.18467 0.6297 0.0
O784 O 0.64824 0.18067 0.68391 0.0
O785 O 0.61811 0.11685 0.65474 0.0
O786 O 0.62747 0.20341 0.66266 0.0
O787 O 0.59137 0.14753 0.62682 0.0
O788 O 0.64304 0.13087 0.67889 0.0
O789 O 0.63154 0.1843 0.59324 0.0
O790 O 0.68492 0.18036 0.64768 0.0
O791 O 0.65541 0.11661 0.61768 0.0
Sc792 Sc 0.84024 0.33413 0.335 0.0
Sc793 Sc 0.86388 0.37216 0.3733 0.0
Sc794 Sc 0.80505 0.36751 0.36883 0.0
O795 O 0.83635 0.35793 0.35904 0.0
C796 C 0.79866 0.3619 0.31589 0.0
C797 C 0.87869 0.369 0.32236 0.0
C798 C 0.83118 0.41406 0.36784 0.0
C799 C 0.8789 0.32132 0.36959 0.0
C800 C 0.79887 0.31461 0.3628 0.0
C801 C 0.83139 0.36631 0.41529 0.0
O802 O 0.81537 0.34892 0.31338 0.0
O803 O 0.88008 0.37789 0.3416 0.0
O804 O 0.81313 0.40276 0.36731 0.0
O805 O 0.86537 0.31671 0.35384 0.0
O806 O 0.79329 0.33341 0.37117 0.0
O807 O 0.85054 0.36849 0.40632 0.0
O808 O 0.81547 0.31233 0.34965 0.0
O809 O 0.88029 0.34049 0.37861 0.0
O810 O 0.8133 0.3659 0.40405 0.0
O811 O 0.86526 0.3532 0.31768 0.0
O812 O 0.79308 0.36998 0.33481 0.0
O813 O 0.85035 0.40513 0.37002 0.0
Sc814 Sc 0.6628 0.84081 0.33337 0.0
Sc815 Sc 0.6245 0.86375 0.37191 0.0
Sc816 Sc 0.62918 0.80509 0.36643 0.0
O817 O 0.63884 0.83651 0.35723 0.0
C818 C 0.63512 0.79952 0.3135 0.0
C819 C 0.62767 0.87922 0.32116 0.0
C820 C 0.58262 0.83117 0.36598 0.0
C821 C 0.67526 0.87903 0.36859 0.0
C822 C 0.68217 0.79903 0.36063 0.0
C823 C 0.63037 0.83055 0.41331 0.0
O824 O 0.64832 0.8161 0.31131 0.0
O825 O 0.61879 0.88032 0.34042 0.0
O826 O 0.59392 0.81315 0.36507 0.0
O827 O 0.68003 0.8658 0.35264 0.0
O828 O 0.66326 0.79332 0.36863 0.0
O829 O 0.62819 0.84988 0.40472 0.0
O830 O 0.68466 0.81589 0.34784 0.0
O831 O 0.65604 0.88016 0.37752 0.0
O832 O 0.63077 0.81269 0.40173 0.0
O833 O 0.6436 0.86596 0.31631 0.0
O834 O 0.62674 0.79383 0.33224 0.0
O835 O 0.59155 0.85029 0.36847 0.0
Sc836 Sc 0.19274 0.62678 0.37038 0.0
Sc837 Sc 0.13392 0.62226 0.37421 0.0
Sc838 Sc 0.15813 0.65962 0.33548 0.0
O839 O 0.16163 0.63622 0.36001 0.0
C840 C 0.19921 0.67947 0.36346 0.0
C841 C 0.16595 0.62873 0.41646 0.0
C842 C 0.11931 0.67319 0.3696 0.0
C843 C 0.16661 0.58025 0.3699 0.0
C844 C 0.19971 0.63125 0.31743 0.0
C845 C 0.11956 0.62479 0.32308 0.0
O846 O 0.20452 0.66085 0.37234 0.0
O847 O 0.14688 0.62638 0.40737 0.0
O848 O 0.13299 0.67752 0.35389 0.0
O849 O 0.18463 0.59157 0.36936 0.0
O850 O 0.18309 0.64423 0.31433 0.0
O851 O 0.11799 0.61611 0.34241 0.0
O852 O 0.20502 0.62369 0.33663 0.0
O853 O 0.14739 0.58917 0.37166 0.0
O854 O 0.13309 0.64047 0.31831 0.0
O855 O 0.18411 0.62901 0.40537 0.0
O856 O 0.18291 0.68155 0.34991 0.0
O857 O 0.11768 0.65412 0.37881 0.0
Sc858 Sc 0.33385 0.15353 0.33272 0.0
Sc859 Sc 0.37236 0.13059 0.37106 0.0
Sc860 Sc 0.36751 0.18928 0.36566 0.0
O861 O 0.35789 0.15783 0.35648 0.0
C862 C 0.36128 0.1949 0.3127 0.0
C863 C 0.36886 0.11504 0.32041 0.0
C864 C 0.41413 0.16328 0.36482 0.0
C865 C 0.3216 0.11524 0.36796 0.0
C866 C 0.31452 0.1953 0.36005 0.0
C867 C 0.36669 0.16369 0.41255 0.0
O868 O 0.34826 0.17817 0.31057 0.0
O869 O 0.37791 0.11399 0.33959 0.0
O870 O 0.40278 0.18128 0.36401 0.0
O871 O 0.31674 0.12856 0.35209 0.0
O872 O 0.33342 0.20097 0.3681 0.0
O873 O 0.36884 0.1444 0.40388 0.0
O874 O 0.31205 0.17849 0.34719 0.0
O875 O 0.34086 0.11409 0.37681 0.0
O876 O 0.3662 0.18159 0.40101 0.0
O877 O 0.35292 0.12831 0.31564 0.0
O878 O 0.36964 0.20068 0.33143 0.0
O879 O 0.40527 0.14413 0.3674 0.0
Sc880 Sc 0.62696 0.80506 0.62716 0.0
Sc881 Sc 0.62277 0.86385 0.62229 0.0
Sc882 Sc 0.66048 0.84017 0.66092 0.0
O883 O 0.63673 0.83632 0.6368 0.0
C884 C 0.63226 0.79897 0.68014 0.0
C885 C 0.58059 0.83139 0.62732 0.0
C886 C 0.62554 0.87875 0.67319 0.0
C887 C 0.62898 0.83117 0.5806 0.0
C888 C 0.67975 0.7985 0.63339 0.0
C889 C 0.67372 0.8786 0.62631 0.0
O890 O 0.62424 0.79332 0.66123 0.0
O891 O 0.58965 0.85048 0.62497 0.0
O892 O 0.64146 0.86547 0.67796 0.0
O893 O 0.62886 0.81314 0.59194 0.0
O894 O 0.68218 0.81509 0.64654 0.0
O895 O 0.65453 0.88019 0.61736 0.0
O896 O 0.66093 0.7931 0.625 0.0
O897 O 0.62698 0.85041 0.5894 0.0
O898 O 0.67824 0.86499 0.64201 0.0
O899 O 0.59179 0.81332 0.62841 0.0
O900 O 0.64536 0.81558 0.68261 0.0
O901 O 0.61666 0.87998 0.65394 0.0
Sc902 Sc 0.62816 0.19051 0.36774 0.0
Sc903 Sc 0.62351 0.13176 0.37265 0.0
Sc904 Sc 0.66223 0.15517 0.33481 0.0
O905 O 0.63797 0.15918 0.35839 0.0
C906 C 0.63447 0.19631 0.31485 0.0
C907 C 0.58164 0.16438 0.36649 0.0
C908 C 0.62763 0.11648 0.32194 0.0
C909 C 0.62895 0.16459 0.41439 0.0
C910 C 0.68108 0.19695 0.36246 0.0
C911 C 0.67451 0.11688 0.36996 0.0
O912 O 0.62606 0.20202 0.33358 0.0
O913 O 0.59049 0.14519 0.36887 0.0
O914 O 0.64359 0.12981 0.31746 0.0
O915 O 0.62947 0.18258 0.403 0.0
O916 O 0.68373 0.18025 0.3495 0.0
O917 O 0.65513 0.11541 0.37854 0.0
O918 O 0.66211 0.20244 0.37043 0.0
O919 O 0.62677 0.14537 0.40559 0.0
O920 O 0.67942 0.13036 0.35426 0.0
O921 O 0.59301 0.18237 0.36593 0.0
O922 O 0.64765 0.17972 0.31269 0.0
O923 O 0.61829 0.11535 0.34098 0.0
Sc924 Sc 0.84183 0.66136 0.33389 0.0
Sc925 Sc 0.86441 0.62297 0.37254 0.0
Sc926 Sc 0.80576 0.62863 0.36744 0.0
O927 O 0.83729 0.63766 0.35795 0.0
C928 C 0.80032 0.68156 0.36101 0.0
C929 C 0.8802 0.6736 0.36898 0.0
C930 C 0.83162 0.62965 0.41414 0.0
C931 C 0.87997 0.62587 0.32186 0.0
C932 C 0.80017 0.63404 0.31437 0.0
C933 C 0.83105 0.58162 0.36704 0.0
O934 O 0.81709 0.68361 0.34803 0.0
O935 O 0.88126 0.65437 0.37793 0.0
O936 O 0.81365 0.63037 0.40273 0.0
O937 O 0.8669 0.64193 0.31701 0.0
O938 O 0.79425 0.62615 0.33327 0.0
O939 O 0.85038 0.59019 0.36927 0.0
O940 O 0.81707 0.64679 0.31198 0.0
O941 O 0.88087 0.61689 0.34109 0.0
O942 O 0.81324 0.59325 0.36629 0.0
O943 O 0.86689 0.67846 0.35311 0.0
O944 O 0.79448 0.66288 0.36943 0.0
O945 O 0.85079 0.62699 0.40536 0.0
Sc946 Sc 0.36847 0.80449 0.36837 0.0
Sc947 Sc 0.3732 0.86325 0.37303 0.0
Sc948 Sc 0.3353 0.83976 0.33443 0.0
O949 O 0.359 0.8358 0.35859 0.0
C950 C 0.36323 0.79825 0.31542 0.0
C951 C 0.41507 0.83046 0.36796 0.0
C952 C 0.37034 0.87821 0.32211 0.0
C953 C 0.3667 0.83067 0.41483 0.0
C954 C 0.31564 0.79834 0.36202 0.0
C955 C 0.32234 0.87829 0.36908 0.0
O956 O 0.37124 0.7927 0.33437 0.0
O957 O 0.40623 0.84968 0.37009 0.0
O958 O 0.3545 0.86485 0.31733 0.0
O959 O 0.36645 0.81263 0.40352 0.0
O960 O 0.31336 0.81495 0.34888 0.0
O961 O 0.34152 0.87968 0.37811 0.0
O962 O 0.33441 0.79277 0.37041 0.0
O963 O 0.3691 0.84985 0.40598 0.0
O964 O 0.31777 0.86481 0.35328 0.0
O965 O 0.40368 0.8125 0.36721 0.0
O966 O 0.35019 0.81491 0.31284 0.0
O967 O 0.3792 0.87949 0.34138 0.0
Sc968 Sc 0.19082 0.3659 0.367 0.0
Sc969 Sc 0.13214 0.37095 0.37212 0.0
Sc970 Sc 0.15507 0.33337 0.3329 0.0
O971 O 0.15939 0.35673 0.35733 0.0
C972 C 0.19678 0.36107 0.31395 0.0
C973 C 0.16514 0.41266 0.3673 0.0
C974 C 0.11695 0.36903 0.32127 0.0
C975 C 0.1649 0.36397 0.41365 0.0
C976 C 0.1965 0.31302 0.36004 0.0
C977 C 0.11648 0.32041 0.36754 0.0
O978 O 0.20248 0.36885 0.33295 0.0
O979 O 0.14595 0.40382 0.36956 0.0
O980 O 0.13009 0.3531 0.31615 0.0
O981 O 0.18288 0.36378 0.40224 0.0
O982 O 0.17977 0.31103 0.34698 0.0
O983 O 0.11539 0.33946 0.37683 0.0
O984 O 0.20225 0.33166 0.36864 0.0
O985 O 0.14567 0.36636 0.40492 0.0
O986 O 0.12986 0.31587 0.35164 0.0
O987 O 0.18309 0.40125 0.3662 0.0
O988 O 0.17998 0.34823 0.31132 0.0
O989 O 0.11586 0.37755 0.34069 0.0
Sc990 Sc 0.33576 0.1575 0.66045 0.0
Sc991 Sc 0.37376 0.13398 0.62203 0.0
Sc992 Sc 0.36897 0.19276 0.6265 0.0
O993 O 0.35949 0.16145 0.63633 0.0
C994 C 0.31606 0.19868 0.63256 0.0
C995 C 0.32299 0.11883 0.62582 0.0
C996 C 0.36784 0.1665 0.58005 0.0
C997 C 0.37081 0.11923 0.67306 0.0
C998 C 0.36342 0.19923 0.6794 0.0
C999 C 0.41553 0.16674 0.62754 0.0
O1000 O 0.31382 0.18207 0.6457 0.0
O1001 O 0.34211 0.11762 0.61665 0.0
O1002 O 0.36728 0.18455 0.59133 0.0
O1003 O 0.35505 0.13268 0.67783 0.0
O1004 O 0.37152 0.20472 0.66047 0.0
O1005 O 0.40667 0.14754 0.62541 0.0
O1006 O 0.35041 0.18256 0.68197 0.0
O1007 O 0.37949 0.11773 0.65373 0.0
O1008 O 0.40421 0.18476 0.62795 0.0
O1009 O 0.31843 0.13218 0.64173 0.0
O1010 O 0.33484 0.20438 0.62426 0.0
O1011 O 0.37015 0.14735 0.58899 0.0
Sc1012 Sc 0.84175 0.33447 0.66288 0.0
Sc1013 Sc 0.86479 0.37265 0.62427 0.0
Sc1014 Sc 0.80609 0.36808 0.6298 0.0
O1015 O 0.83751 0.3584 0.639 0.0
C1016 C 0.80011 0.31513 0.63541 0.0
C1017 C 0.87988 0.32181 0.62762 0.0
C1018 C 0.83156 0.36711 0.58285 0.0
C1019 C 0.88035 0.36937 0.675 0.0
C1020 C 0.80037 0.36197 0.68278 0.0
C1021 C 0.83225 0.41457 0.63049 0.0
O1022 O 0.81683 0.31268 0.64839 0.0
O1023 O 0.88106 0.34099 0.61858 0.0
O1024 O 0.81371 0.36675 0.59446 0.0
O1025 O 0.86696 0.35359 0.6799 0.0
O1026 O 0.79461 0.37026 0.66401 0.0
O1027 O 0.85137 0.40566 0.62784 0.0
O1028 O 0.81711 0.34897 0.68497 0.0
O1029 O 0.88149 0.37823 0.65573 0.0
O1030 O 0.81422 0.40328 0.63143 0.0
O1031 O 0.86668 0.3172 0.64365 0.0
O1032 O 0.79443 0.33401 0.62733 0.0
O1033 O 0.85089 0.36912 0.59145 0.0
Sc1034 Sc 0.18825 0.6295 0.63061 0.0
Sc1035 Sc 0.12957 0.62474 0.62532 0.0
Sc1036 Sc 0.15265 0.66305 0.66381 0.0
O1037 O 0.15685 0.6391 0.63993 0.0
C1038 C 0.19402 0.63538 0.68357 0.0
C1039 C 0.16224 0.58289 0.63107 0.0
C1040 C 0.11412 0.628 0.67601 0.0
C1041 C 0.16257 0.63072 0.58381 0.0
C1042 C 0.19442 0.68245 0.63654 0.0
C1043 C 0.11427 0.67549 0.62874 0.0
O1044 O 0.19966 0.62707 0.66478 0.0
O1045 O 0.14308 0.59177 0.62865 0.0
O1046 O 0.12741 0.6439 0.68083 0.0
O1047 O 0.18048 0.63113 0.59532 0.0
O1048 O 0.17762 0.68492 0.64942 0.0
O1049 O 0.11308 0.65625 0.61984 0.0
O1050 O 0.20001 0.66357 0.6284 0.0
O1051 O 0.14329 0.62849 0.59248 0.0
O1052 O 0.12765 0.68029 0.64457 0.0
O1053 O 0.18022 0.59425 0.63196 0.0
O1054 O 0.17737 0.6485 0.68584 0.0
O1055 O 0.11306 0.61902 0.65679 0.0
H1056 H 0.12773 0.05538 0.29277 0.0
H1057 H 0.13635 0.94335 0.36555 0.0
H1058 H 0.13686 0.05294 0.36451 0.0
H1059 H 0.12648 0.94247 0.29387 0.0
H1060 H 0.1387 0.9838 0.36442 0.0
H1061 H 0.12935 0.01432 0.29178 0.0
C1062 C 0.13018 0.04627 0.30826 0.0
C1063 C 0.13192 0.05763 0.32878 0.0
C1064 C 0.13604 0.97485 0.34888 0.0
C1065 C 0.13381 0.01088 0.32774 0.0
C1066 C 0.13463 0.95166 0.34951 0.0
C1067 C 0.13097 0.93945 0.32979 0.0
C1068 C 0.13367 0.98611 0.32838 0.0
C1069 C 0.12923 0.95124 0.30949 0.0
C1070 C 0.13107 0.02286 0.30767 0.0
C1071 C 0.13514 0.04497 0.34832 0.0
N1072 N 0.13045 0.97399 0.30932 0.0
N1073 N 0.1359 0.02235 0.34729 0.0
H1074 H 0.05366 0.13636 0.36582 0.0
H1075 H 0.94228 0.12789 0.29208 0.0
H1076 H 0.05505 0.12826 0.29393 0.0
H1077 H 0.94398 0.13463 0.36412 0.0
H1078 H 0.98328 0.13021 0.29149 0.0
H1079 H 0.01316 0.13807 0.36454 0.0
C1080 C 0.04545 0.13492 0.3497 0.0
C1081 C 0.05782 0.13191 0.32996 0.0
C1082 C 0.97459 0.13125 0.30737 0.0
C1083 C 0.01113 0.13387 0.32839 0.0
C1084 C 0.95122 0.12994 0.30773 0.0
C1085 C 0.93965 0.13085 0.3282 0.0
C1086 C 0.98637 0.13355 0.3276 0.0
C1087 C 0.9521 0.13359 0.34794 0.0
C1088 C 0.02224 0.13595 0.34898 0.0
C1089 C 0.04617 0.13049 0.30957 0.0
N1090 N 0.97471 0.13477 0.34712 0.0
N1091 N 0.0234 0.13134 0.30931 0.0
H1092 H 0.86788 0.05339 0.29189 0.0
H1093 H 0.86205 0.94184 0.36568 0.0
H1094 H 0.86408 0.0514 0.36414 0.0
H1095 H 0.86798 0.94042 0.29357 0.0
H1096 H 0.86071 0.98231 0.36448 0.0
H1097 H 0.86601 0.01235 0.29126 0.0
C1098 C 0.86659 0.04438 0.30758 0.0
C1099 C 0.8663 0.05589 0.32811 0.0
C1100 C 0.86229 0.97325 0.34885 0.0
C1101 C 0.86412 0.00913 0.32746 0.0
C1102 C 0.8631 0.95003 0.34952 0.0
C1103 C 0.86536 0.93764 0.32969 0.0
C1104 C 0.86382 0.98437 0.32821 0.0
C1105 C 0.86632 0.94931 0.30927 0.0
C1106 C 0.86554 0.02099 0.3072 0.0
C1107 C 0.86456 0.04335 0.3479 0.0
N1108 N 0.86567 0.97209 0.30906 0.0
N1109 N 0.86359 0.02072 0.34706 0.0
H1110 H 0.9407 0.86731 0.29291 0.0
H1111 H 0.05275 0.85904 0.3656 0.0
H1112 H 0.94312 0.85727 0.36453 0.0
H1113 H 0.0535 0.86937 0.29398 0.0
H1114 H 0.01233 0.85621 0.36447 0.0
H1115 H 0.98175 0.86589 0.29191 0.0
C1116 C 0.94981 0.86468 0.30837 0.0
C1117 C 0.93845 0.86266 0.32887 0.0
C1118 C 0.02124 0.85907 0.34894 0.0
C1119 C 0.98519 0.86102 0.32782 0.0
C1120 C 0.04441 0.86076 0.34958 0.0
C1121 C 0.05658 0.8647 0.32987 0.0
C1122 C 0.00995 0.86143 0.32847 0.0
C1123 C 0.04477 0.86643 0.30959 0.0
C1124 C 0.97321 0.86391 0.30778 0.0
C1125 C 0.9511 0.85922 0.34836 0.0
N1126 N 0.02203 0.86493 0.30942 0.0
N1127 N 0.97372 0.8586 0.34734 0.0
H1128 H 0.13922 0.94193 0.6307 0.0
H1129 H 0.12741 0.05383 0.70315 0.0
H1130 H 0.1267 0.94097 0.70196 0.0
H1131 H 0.13599 0.05156 0.63133 0.0
H1132 H 0.12984 0.01284 0.70417 0.0
H1133 H 0.14108 0.98242 0.63185 0.0
C1134 C 0.13683 0.95025 0.64665 0.0
C1135 C 0.1325 0.93801 0.66623 0.0
C1136 C 0.13125 0.0214 0.68825 0.0
C1137 C 0.1346 0.98469 0.66764 0.0
C1138 C 0.12988 0.04477 0.68763 0.0
C1139 C 0.13129 0.05616 0.66709 0.0
C1140 C 0.13415 0.00946 0.6682 0.0
C1141 C 0.13456 0.04356 0.64754 0.0
C1142 C 0.13795 0.97345 0.64729 0.0
C1143 C 0.12996 0.94977 0.68644 0.0
N1144 N 0.13581 0.02095 0.6486 0.0
N1145 N 0.13088 0.97254 0.68661 0.0
H1146 H 0.05292 0.13343 0.62996 0.0
H1147 H 0.94104 0.12972 0.70331 0.0
H1148 H 0.05388 0.12803 0.70213 0.0
H1149 H 0.94332 0.13431 0.63112 0.0
H1150 H 0.98209 0.13098 0.70409 0.0
H1151 H 0.01247 0.13566 0.63096 0.0
C1152 C 0.04463 0.13268 0.64608 0.0
C1153 C 0.05687 0.13033 0.66599 0.0
C1154 C 0.97351 0.13178 0.68813 0.0
C1155 C 0.01021 0.13291 0.66724 0.0
C1156 C 0.95011 0.13109 0.68766 0.0
C1157 C 0.93869 0.13171 0.6671 0.0
C1158 C 0.98545 0.13318 0.66791 0.0
C1159 C 0.95131 0.13354 0.64737 0.0
C1160 C 0.02144 0.13402 0.64664 0.0
C1161 C 0.0451 0.12975 0.68636 0.0
N1162 N 0.97394 0.13414 0.64829 0.0
N1163 N 0.02235 0.13091 0.68647 0.0
H1164 H 0.86816 0.05588 0.70366 0.0
H1165 H 0.85821 0.94375 0.63129 0.0
H1166 H 0.85955 0.05337 0.63185 0.0
H1167 H 0.86954 0.94304 0.70276 0.0
H1168 H 0.85596 0.98422 0.63233 0.0
H1169 H 0.86614 0.01486 0.70476 0.0
C1170 C 0.86575 0.04675 0.68817 0.0
C1171 C 0.86426 0.05808 0.6676 0.0
C1172 C 0.85892 0.9753 0.64785 0.0
C1173 C 0.86188 0.01137 0.66878 0.0
C1174 C 0.86026 0.95211 0.64726 0.0
C1175 C 0.86435 0.93995 0.66694 0.0
C1176 C 0.86177 0.98661 0.66824 0.0
C1177 C 0.86648 0.95177 0.68717 0.0
C1178 C 0.86462 0.02337 0.68882 0.0
C1179 C 0.86108 0.04542 0.64808 0.0
N1180 N 0.86532 0.97453 0.68728 0.0
N1181 N 0.86007 0.02281 0.64917 0.0
H1182 H 0.94163 0.86858 0.70362 0.0
H1183 H 0.05326 0.85948 0.63033 0.0
H1184 H 0.94373 0.86268 0.63153 0.0
H1185 H 0.0546 0.86859 0.7021 0.0
H1186 H 0.01278 0.8581 0.63154 0.0
H1187 H 0.98265 0.8663 0.70442 0.0
C1188 C 0.95066 0.86674 0.688 0.0
C1189 C 0.9392 0.86602 0.66746 0.0
C1190 C 0.02183 0.86038 0.64708 0.0
C1191 C 0.98592 0.86333 0.6683 0.0
C1192 C 0.04504 0.86122 0.64641 0.0
C1193 C 0.0574 0.86442 0.66613 0.0
C1194 C 0.01069 0.86284 0.66762 0.0
C1195 C 0.04572 0.86621 0.68648 0.0
C1196 C 0.97404 0.86545 0.68848 0.0
C1197 C 0.95176 0.86355 0.64776 0.0
N1198 N 0.02294 0.86554 0.68669 0.0
N1199 N 0.97437 0.86235 0.6487 0.0
H1200 H 0.36521 0.13706 0.05295 0.0
H1201 H 0.29323 0.1271 0.94058 0.0
H1202 H 0.2936 0.12676 0.05354 0.0
H1203 H 0.36522 0.13392 0.94339 0.0
H1204 H 0.292 0.12928 0.98158 0.0
H1205 H 0.36441 0.13851 0.01247 0.0
C1206 C 0.34925 0.13506 0.04456 0.0
C1207 C 0.32946 0.13151 0.05671 0.0
C1208 C 0.308 0.13035 0.97313 0.0
C1209 C 0.32844 0.13317 0.00999 0.0
C1210 C 0.30874 0.12912 0.94976 0.0
C1211 C 0.32938 0.13015 0.9385 0.0
C1212 C 0.32803 0.13271 0.98522 0.0
C1213 C 0.34892 0.13282 0.95126 0.0
C1214 C 0.34881 0.13595 0.02135 0.0
C1215 C 0.30927 0.12943 0.04482 0.0
N1216 N 0.34774 0.13396 0.97387 0.0
N1217 N 0.30928 0.13014 0.02203 0.0
H1218 H 0.86718 0.29351 0.94073 0.0
H1219 H 0.86017 0.36624 0.05288 0.0
H1220 H 0.86067 0.36554 0.94325 0.0
H1221 H 0.86831 0.29434 0.05363 0.0
H1222 H 0.85818 0.36531 0.0124 0.0
H1223 H 0.86553 0.29251 0.98178 0.0
C1224 C 0.86532 0.30907 0.94986 0.0
C1225 C 0.86428 0.32966 0.93851 0.0
C1226 C 0.86038 0.34967 0.02133 0.0
C1227 C 0.86235 0.3286 0.98526 0.0
C1228 C 0.86158 0.35019 0.04454 0.0
C1229 C 0.86465 0.33035 0.05672 0.0
C1230 C 0.86235 0.32917 0.01003 0.0
C1231 C 0.86603 0.31006 0.04489 0.0
C1232 C 0.8644 0.30848 0.97325 0.0
C1233 C 0.8618 0.34928 0.95119 0.0
N1234 N 0.865 0.30999 0.02212 0.0
N1235 N 0.86099 0.34824 0.97381 0.0
H1236 H 0.62945 0.86018 0.94262 0.0
H1237 H 0.70295 0.86727 0.05428 0.0
H1238 H 0.70133 0.86841 0.94145 0.0
H1239 H 0.63097 0.86016 0.05232 0.0
H1240 H 0.70364 0.8656 0.01324 0.0
H1241 H 0.63067 0.858 0.9831 0.0
C1242 C 0.64555 0.86156 0.95088 0.0
C1243 C 0.66531 0.86472 0.93857 0.0
C1244 C 0.68775 0.86433 0.02188 0.0
C1245 C 0.66681 0.8622 0.98525 0.0
C1246 C 0.68733 0.86526 0.04528 0.0
C1247 C 0.66685 0.86407 0.05678 0.0
C1248 C 0.66756 0.86213 0.01002 0.0
C1249 C 0.64715 0.86142 0.04425 0.0
C1250 C 0.64623 0.86025 0.97408 0.0
C1251 C 0.68568 0.86606 0.95028 0.0
N1252 N 0.64802 0.86061 0.02162 0.0
N1253 N 0.6859 0.86493 0.97304 0.0
H1254 H 0.13704 0.63047 0.94316 0.0
H1255 H 0.12733 0.70327 0.05504 0.0
H1256 H 0.12719 0.70214 0.94213 0.0
H1257 H 0.13348 0.6312 0.05274 0.0
H1258 H 0.12968 0.70421 0.01404 0.0
H1259 H 0.13846 0.63152 0.98366 0.0
C1260 C 0.13515 0.64649 0.95145 0.0
C1261 C 0.13172 0.66623 0.93918 0.0
C1262 C 0.13057 0.68824 0.0226 0.0
C1263 C 0.13334 0.66753 0.98589 0.0
C1264 C 0.12924 0.68768 0.04597 0.0
C1265 C 0.13003 0.6671 0.05737 0.0
C1266 C 0.13279 0.66811 0.01066 0.0
C1267 C 0.13257 0.64745 0.04476 0.0
C1268 C 0.13601 0.64708 0.97467 0.0
C1269 C 0.12976 0.68651 0.95094 0.0
N1270 N 0.13381 0.64847 0.02215 0.0
N1271 N 0.13045 0.68663 0.97373 0.0
H1272 H 0.36717 0.86317 0.94208 0.0
H1273 H 0.2931 0.86747 0.0535 0.0
H1274 H 0.29493 0.86713 0.94069 0.0
H1275 H 0.36542 0.86564 0.0518 0.0
H1276 H 0.29267 0.86563 0.01248 0.0
H1277 H 0.36604 0.8622 0.98259 0.0
C1278 C 0.351 0.86385 0.95028 0.0
C1279 C 0.3311 0.86543 0.93789 0.0
C1280 C 0.30858 0.86559 0.02117 0.0
C1281 C 0.32971 0.86431 0.98463 0.0
C1282 C 0.30886 0.86663 0.04456 0.0
C1283 C 0.32933 0.86685 0.05615 0.0
C1284 C 0.32892 0.8647 0.00939 0.0
C1285 C 0.34922 0.86568 0.04368 0.0
C1286 C 0.35038 0.86326 0.97351 0.0
C1287 C 0.31068 0.86599 0.94957 0.0
N1288 N 0.34848 0.8647 0.02105 0.0
N1289 N 0.31051 0.86553 0.97235 0.0
H1290 H 0.1355 0.36523 0.94355 0.0
H1291 H 0.12772 0.29315 0.05611 0.0
H1292 H 0.12663 0.29342 0.94325 0.0
H1293 H 0.13456 0.36513 0.05325 0.0
H1294 H 0.1295 0.29195 0.01508 0.0
H1295 H 0.13747 0.36451 0.98404 0.0
C1296 C 0.13393 0.34925 0.952 0.0
C1297 C 0.13065 0.32936 0.93993 0.0
C1298 C 0.13067 0.30795 0.02352 0.0
C1299 C 0.13292 0.32844 0.98664 0.0
C1300 C 0.12968 0.30866 0.04691 0.0
C1301 C 0.13078 0.32929 0.05815 0.0
C1302 C 0.13286 0.328 0.01141 0.0
C1303 C 0.13338 0.34884 0.04538 0.0
C1304 C 0.13512 0.34885 0.97521 0.0
C1305 C 0.12908 0.30916 0.95189 0.0
N1306 N 0.13427 0.34769 0.02276 0.0
N1307 N 0.13009 0.30922 0.97466 0.0
H1308 H 0.70253 0.12829 0.94033 0.0
H1309 H 0.62956 0.13415 0.0524 0.0
H1310 H 0.63033 0.13256 0.94279 0.0
H1311 H 0.70161 0.1276 0.05325 0.0
H1312 H 0.63047 0.13573 0.01191 0.0
H1313 H 0.70344 0.13001 0.98138 0.0
C1314 C 0.68691 0.12965 0.94944 0.0
C1315 C 0.66632 0.1301 0.93807 0.0
C1316 C 0.64614 0.13397 0.02086 0.0
C1317 C 0.66727 0.13212 0.98482 0.0
C1318 C 0.64563 0.13302 0.04408 0.0
C1319 C 0.66554 0.13051 0.0563 0.0
C1320 C 0.66668 0.13233 0.00959 0.0
C1321 C 0.68586 0.12946 0.04449 0.0
C1322 C 0.68745 0.13062 0.97284 0.0
C1323 C 0.64661 0.13193 0.95074 0.0
N1324 N 0.68591 0.13024 0.02171 0.0
N1325 N 0.64761 0.13282 0.97336 0.0
H1326 H 0.86742 0.70336 0.94266 0.0
H1327 H 0.85936 0.62895 0.05367 0.0
H1328 H 0.86161 0.63124 0.94399 0.0
H1329 H 0.86774 0.7008 0.05544 0.0
H1330 H 0.85771 0.63046 0.01317 0.0
H1331 H 0.86525 0.7037 0.98367 0.0
C1332 C 0.86561 0.68764 0.95152 0.0
C1333 C 0.8649 0.66723 0.93984 0.0
C1334 C 0.85988 0.64595 0.02233 0.0
C1335 C 0.86236 0.66753 0.98658 0.0
C1336 C 0.86088 0.6451 0.04554 0.0
C1337 C 0.86394 0.66477 0.05802 0.0
C1338 C 0.86205 0.6666 0.01133 0.0
C1339 C 0.86546 0.68522 0.04647 0.0
C1340 C 0.86439 0.68785 0.9749 0.0
C1341 C 0.86248 0.64738 0.95219 0.0
N1342 N 0.86464 0.6856 0.0237 0.0
N1343 N 0.86136 0.64806 0.97482 0.0
H1344 H 0.9409 0.29339 0.12861 0.0
H1345 H 0.0527 0.36649 0.13713 0.0
H1346 H 0.94301 0.36544 0.13502 0.0
H1347 H 0.05372 0.29466 0.12848 0.0
H1348 H 0.01221 0.36542 0.13882 0.0
H1349 H 0.9819 0.29257 0.13083 0.0
C1350 C 0.94993 0.309 0.13056 0.0
C1351 C 0.93847 0.32953 0.13143 0.0
C1352 C 0.0212 0.34983 0.13658 0.0
C1353 C 0.9852 0.32867 0.13401 0.0
C1354 C 0.04441 0.35043 0.13556 0.0
C1355 C 0.05668 0.33064 0.13241 0.0
C1356 C 0.00997 0.32932 0.13434 0.0
C1357 C 0.04492 0.31033 0.13083 0.0
C1358 C 0.9733 0.3085 0.13181 0.0
C1359 C 0.95104 0.34922 0.13403 0.0
N1360 N 0.02215 0.31019 0.13167 0.0
N1361 N 0.97366 0.34827 0.13517 0.0
H1362 H 0.0533 0.63085 0.85905 0.0
H1363 H 0.94169 0.704 0.86934 0.0
H1364 H 0.05458 0.70236 0.86999 0.0
H1365 H 0.94372 0.63211 0.86136 0.0
H1366 H 0.98271 0.70481 0.86719 0.0
H1367 H 0.01282 0.63213 0.85725 0.0
C1368 C 0.04506 0.64688 0.86111 0.0
C1369 C 0.05739 0.6665 0.86495 0.0
C1370 C 0.97409 0.68892 0.86585 0.0
C1371 C 0.01071 0.66808 0.8629 0.0
C1372 C 0.95071 0.68843 0.86706 0.0
C1373 C 0.93923 0.66793 0.86573 0.0
C1374 C 0.98595 0.66878 0.86322 0.0
C1375 C 0.95177 0.64829 0.86272 0.0
C1376 C 0.02186 0.64761 0.86003 0.0
C1377 C 0.04571 0.68681 0.86711 0.0
N1378 N 0.97438 0.64923 0.86162 0.0
N1379 N 0.02294 0.68707 0.86621 0.0
H1380 H 0.36696 0.05262 0.85944 0.0
H1381 H 0.29422 0.94048 0.86608 0.0
H1382 H 0.29503 0.05317 0.8672 0.0
H1383 H 0.36618 0.9428 0.85884 0.0
H1384 H 0.2933 0.98149 0.86439 0.0
H1385 H 0.36609 0.01213 0.85707 0.0
C1386 C 0.35092 0.04423 0.86067 0.0
C1387 C 0.33104 0.05636 0.86376 0.0
C1388 C 0.30924 0.97294 0.86309 0.0
C1389 C 0.32994 0.00968 0.86102 0.0
C1390 C 0.30979 0.94955 0.86403 0.0
C1391 C 0.33033 0.93816 0.86282 0.0
C1392 C 0.32936 0.98491 0.86087 0.0
C1393 C 0.34996 0.95079 0.8601 0.0
C1394 C 0.35044 0.02103 0.85925 0.0
C1395 C 0.31077 0.04448 0.86491 0.0
N1396 N 0.34896 0.97342 0.8593 0.0
N1397 N 0.31074 0.02173 0.86368 0.0
H1398 H 0.94229 0.36633 0.85944 0.0
H1399 H 0.05365 0.2926 0.8684 0.0
H1400 H 0.94086 0.29452 0.86819 0.0
H1401 H 0.05198 0.3647 0.86239 0.0
H1402 H 0.01266 0.29203 0.8661 0.0
H1403 H 0.9828 0.36505 0.85803 0.0
C1404 C 0.95049 0.35023 0.86108 0.0
C1405 C 0.9381 0.33051 0.86419 0.0
C1406 C 0.02135 0.30792 0.86523 0.0
C1407 C 0.98481 0.32895 0.86258 0.0
C1408 C 0.04472 0.30827 0.86653 0.0
C1409 C 0.0563 0.32874 0.86577 0.0
C1410 C 0.00957 0.32817 0.86307 0.0
C1411 C 0.04385 0.34852 0.86327 0.0
C1412 C 0.97371 0.34952 0.86023 0.0
C1413 C 0.94975 0.31014 0.86587 0.0
N1414 N 0.02123 0.34771 0.86207 0.0
N1415 N 0.97253 0.30989 0.86519 0.0
H1416 H 0.70217 0.94134 0.8672 0.0
H1417 H 0.62956 0.05335 0.857 0.0
H1418 H 0.63019 0.94366 0.86016 0.0
H1419 H 0.70113 0.05416 0.86754 0.0
H1420 H 0.63057 0.01284 0.85528 0.0
H1421 H 0.70315 0.98234 0.86475 0.0
C1422 C 0.68661 0.95042 0.86507 0.0
C1423 C 0.66605 0.93903 0.86409 0.0
C1424 C 0.64611 0.02179 0.85794 0.0
C1425 C 0.66709 0.98574 0.86122 0.0
C1426 C 0.64555 0.04501 0.85896 0.0
C1427 C 0.66527 0.05722 0.86269 0.0
C1428 C 0.66653 0.01051 0.86075 0.0
C1429 C 0.68551 0.04541 0.86475 0.0
C1430 C 0.68719 0.97379 0.86369 0.0
C1431 C 0.64643 0.95164 0.86125 0.0
N1432 N 0.68561 0.02263 0.86391 0.0
N1433 N 0.64746 0.97425 0.85998 0.0
H1434 H 0.05359 0.70253 0.12944 0.0
H1435 H 0.94225 0.62861 0.13667 0.0
H1436 H 0.05194 0.63041 0.13512 0.0
H1437 H 0.94081 0.70053 0.12877 0.0
H1438 H 0.98273 0.62991 0.13849 0.0
H1439 H 0.01257 0.70305 0.13142 0.0
C1440 C 0.04466 0.68684 0.13119 0.0
C1441 C 0.05625 0.66638 0.13192 0.0
C1442 C 0.97365 0.64547 0.13639 0.0
C1443 C 0.00951 0.66689 0.13423 0.0
C1444 C 0.95044 0.64474 0.1353 0.0
C1445 C 0.93806 0.66448 0.13233 0.0
C1446 C 0.98475 0.66608 0.13441 0.0
C1447 C 0.9497 0.68488 0.13098 0.0
C1448 C 0.02128 0.68716 0.1323 0.0
C1449 C 0.04381 0.64658 0.13425 0.0
N1450 N 0.97247 0.68515 0.13189 0.0
N1451 N 0.02118 0.64736 0.13526 0.0
H1452 H 0.36517 0.94368 0.13748 0.0
H1453 H 0.29259 0.05572 0.12773 0.0
H1454 H 0.29367 0.94301 0.12641 0.0
H1455 H 0.36434 0.05341 0.13677 0.0
H1456 H 0.2916 0.01471 0.12977 0.0
H1457 H 0.3641 0.98416 0.13988 0.0
C1458 C 0.34919 0.95204 0.13552 0.0
C1459 C 0.3295 0.93989 0.13148 0.0
C1460 C 0.3075 0.02326 0.13138 0.0
C1461 C 0.32817 0.98655 0.13422 0.0
C1462 C 0.30809 0.04664 0.13025 0.0
C1463 C 0.32861 0.05802 0.13183 0.0
C1464 C 0.32757 0.01131 0.13421 0.0
C1465 C 0.34815 0.04541 0.13516 0.0
C1466 C 0.34859 0.97524 0.13696 0.0
C1467 C 0.30927 0.95173 0.12944 0.0
N1468 N 0.34713 0.0228 0.13616 0.0
N1469 N 0.30914 0.97447 0.13069 0.0
H1470 H 0.70309 0.05429 0.12696 0.0
H1471 H 0.63052 0.94221 0.13622 0.0
H1472 H 0.63122 0.05183 0.13493 0.0
H1473 H 0.70221 0.94139 0.12647 0.0
H1474 H 0.63153 0.98269 0.13809 0.0
H1475 H 0.70413 0.01326 0.12894 0.0
C1476 C 0.68758 0.04518 0.12921 0.0
C1477 C 0.66701 0.05654 0.13057 0.0
C1478 C 0.6471 0.97375 0.13557 0.0
C1479 C 0.66812 0.0098 0.13289 0.0
C1480 C 0.64653 0.95055 0.13444 0.0
C1481 C 0.66629 0.93834 0.13093 0.0
C1482 C 0.66755 0.98504 0.13307 0.0
C1483 C 0.68656 0.95015 0.12909 0.0
C1484 C 0.68819 0.0218 0.13032 0.0
C1485 C 0.64745 0.04388 0.13355 0.0
N1486 N 0.68666 0.97293 0.13004 0.0
N1487 N 0.64851 0.02126 0.13454 0.0
H1488 H 0.63751 0.44284 0.86598 0.0
H1489 H 0.62652 0.5541 0.79237 0.0
H1490 H 0.62696 0.44133 0.79441 0.0
H1491 H 0.63506 0.5525 0.86421 0.0
H1492 H 0.62899 0.51311 0.79176 0.0
H1493 H 0.63915 0.48334 0.86457 0.0
C1494 C 0.63551 0.45103 0.84991 0.0
C1495 C 0.63183 0.43863 0.8303 0.0
C1496 C 0.63038 0.52182 0.8076 0.0
C1497 C 0.63369 0.48532 0.82858 0.0
C1498 C 0.62899 0.54519 0.80797 0.0
C1499 C 0.63036 0.55677 0.8284 0.0
C1500 C 0.63325 0.51007 0.82777 0.0
C1501 C 0.63365 0.54436 0.84808 0.0
C1502 C 0.6365 0.47424 0.84911 0.0
C1503 C 0.62972 0.45024 0.80995 0.0
N1504 N 0.63491 0.52175 0.84725 0.0
N1505 N 0.63053 0.47301 0.80962 0.0
H1506 H 0.43933 0.62975 0.79287 0.0
H1507 H 0.55168 0.63272 0.86562 0.0
H1508 H 0.4421 0.63237 0.86514 0.0
H1509 H 0.55226 0.62841 0.79338 0.0
H1510 H 0.5112 0.63444 0.86488 0.0
H1511 H 0.48039 0.63103 0.79186 0.0
C1512 C 0.44851 0.63066 0.80848 0.0
C1513 C 0.43722 0.63077 0.82913 0.0
C1514 C 0.52009 0.63314 0.84913 0.0
C1515 C 0.48398 0.63227 0.82806 0.0
C1516 C 0.54331 0.63211 0.84954 0.0
C1517 C 0.55546 0.63023 0.82953 0.0
C1518 C 0.50875 0.63221 0.82858 0.0
C1519 C 0.54356 0.62977 0.80922 0.0
C1520 C 0.47191 0.63137 0.80788 0.0
C1521 C 0.44997 0.63203 0.84882 0.0
N1522 N 0.52079 0.63065 0.80926 0.0
N1523 N 0.47259 0.63267 0.84777 0.0
H1524 H 0.36618 0.55593 0.79323 0.0
H1525 H 0.35883 0.44367 0.86575 0.0
H1526 H 0.35707 0.55338 0.86496 0.0
H1527 H 0.36837 0.44317 0.79402 0.0
H1528 H 0.3559 0.48411 0.86476 0.0
H1529 H 0.36471 0.51489 0.79217 0.0
C1530 C 0.36374 0.54679 0.8087 0.0
C1531 C 0.362 0.55812 0.82925 0.0
C1532 C 0.3586 0.47524 0.84918 0.0
C1533 C 0.3603 0.51136 0.82813 0.0
C1534 C 0.36035 0.45206 0.84973 0.0
C1535 C 0.3641 0.43997 0.82995 0.0
C1536 C 0.36073 0.4866 0.82872 0.0
C1537 C 0.36558 0.45184 0.80969 0.0
C1538 C 0.36294 0.52339 0.80808 0.0
C1539 C 0.35879 0.54543 0.84876 0.0
N1540 N 0.36404 0.47458 0.8096 0.0
N1541 N 0.35814 0.5228 0.8477 0.0
H1542 H 0.55343 0.3598 0.86625 0.0
H1543 H 0.44182 0.36873 0.79286 0.0
H1544 H 0.55473 0.36864 0.79444 0.0
H1545 H 0.44383 0.36311 0.86498 0.0
H1546 H 0.48283 0.36647 0.79213 0.0
H1547 H 0.51293 0.35849 0.86506 0.0
C1548 C 0.5452 0.36149 0.85017 0.0
C1549 C 0.55755 0.36459 0.83043 0.0
C1550 C 0.47421 0.36568 0.80806 0.0
C1551 C 0.51083 0.36311 0.82896 0.0
C1552 C 0.45082 0.36696 0.8085 0.0
C1553 C 0.43934 0.36628 0.82903 0.0
C1554 C 0.48607 0.36363 0.82827 0.0
C1555 C 0.45188 0.36392 0.84876 0.0
C1556 C 0.52198 0.3607 0.8495 0.0
C1557 C 0.54586 0.36632 0.81008 0.0
N1558 N 0.47449 0.36273 0.84786 0.0
N1559 N 0.52308 0.3657 0.80988 0.0
H1560 H 0.63144 0.44265 0.13037 0.0
H1561 H 0.62907 0.55468 0.20358 0.0
H1562 H 0.62787 0.44169 0.20265 0.0
H1563 H 0.63113 0.55218 0.13128 0.0
H1564 H 0.63024 0.51361 0.20444 0.0
H1565 H 0.63301 0.48312 0.13127 0.0
C1566 C 0.63096 0.45094 0.1465 0.0
C1567 C 0.62933 0.43868 0.16648 0.0
C1568 C 0.63048 0.52215 0.18844 0.0
C1569 C 0.63116 0.4854 0.16761 0.0
C1570 C 0.62983 0.54556 0.18792 0.0
C1571 C 0.62984 0.55693 0.16732 0.0
C1572 C 0.63121 0.51016 0.16822 0.0
C1573 C 0.63089 0.54424 0.14757 0.0
C1574 C 0.6319 0.47415 0.147 0.0
C1575 C 0.62903 0.45048 0.18684 0.0
N1576 N 0.63149 0.52162 0.14855 0.0
N1577 N 0.62983 0.47326 0.18689 0.0
H1578 H 0.55544 0.6288 0.20324 0.0
H1579 H 0.44338 0.63821 0.13068 0.0
H1580 H 0.55319 0.63792 0.13149 0.0
H1581 H 0.44285 0.62774 0.20227 0.0
H1582 H 0.48387 0.64086 0.13169 0.0
H1583 H 0.51445 0.63104 0.20423 0.0
C1584 C 0.54638 0.6314 0.18774 0.0
C1585 C 0.55777 0.63292 0.16722 0.0
C1586 C 0.47497 0.63803 0.14723 0.0
C1587 C 0.51107 0.63551 0.16826 0.0
C1588 C 0.45178 0.63645 0.14666 0.0
C1589 C 0.43967 0.63248 0.1664 0.0
C1590 C 0.48631 0.6355 0.16766 0.0
C1591 C 0.45153 0.63071 0.18664 0.0
C1592 C 0.52301 0.63264 0.18833 0.0
C1593 C 0.54518 0.63635 0.14768 0.0
N1594 N 0.47427 0.63206 0.18674 0.0
N1595 N 0.52257 0.63743 0.1487 0.0
H1596 H 0.36868 0.55363 0.20326 0.0
H1597 H 0.36201 0.44215 0.1295 0.0
H1598 H 0.36575 0.55167 0.13097 0.0
H1599 H 0.36827 0.44065 0.20158 0.0
H1600 H 0.36123 0.48264 0.13068 0.0
H1601 H 0.36669 0.5126 0.20387 0.0
C1602 C 0.36759 0.54463 0.18755 0.0
C1603 C 0.36752 0.55615 0.16702 0.0
C1604 C 0.36276 0.47355 0.1463 0.0
C1605 C 0.36516 0.5094 0.16766 0.0
C1606 C 0.36324 0.45033 0.14564 0.0
C1607 C 0.36543 0.43791 0.16547 0.0
C1608 C 0.36454 0.48465 0.16692 0.0
C1609 C 0.36664 0.44956 0.18588 0.0
C1610 C 0.36646 0.52124 0.18793 0.0
C1611 C 0.36602 0.54361 0.14721 0.0
N1612 N 0.3663 0.47236 0.18608 0.0
N1613 N 0.36493 0.521 0.14806 0.0
H1614 H 0.55389 0.36748 0.20308 0.0
H1615 H 0.44249 0.35641 0.12973 0.0
H1616 H 0.55225 0.358 0.13136 0.0
H1617 H 0.44122 0.36793 0.20115 0.0
H1618 H 0.48298 0.35425 0.13111 0.0
H1619 H 0.5129 0.36509 0.20376 0.0
C1620 C 0.54496 0.3648 0.18752 0.0
C1621 C 0.55653 0.36318 0.1671 0.0
C1622 C 0.47393 0.35721 0.14654 0.0
C1623 C 0.50983 0.3604 0.16779 0.0
C1624 C 0.45073 0.35851 0.14576 0.0
C1625 C 0.43841 0.36264 0.16533 0.0
C1626 C 0.48507 0.36017 0.16701 0.0
C1627 C 0.45007 0.36484 0.18564 0.0
C1628 C 0.52159 0.36346 0.18793 0.0
C1629 C 0.54411 0.35963 0.14748 0.0
N1630 N 0.47282 0.36374 0.18594 0.0
N1631 N 0.52149 0.35845 0.14833 0.0
H1632 H 0.86643 0.63661 0.44273 0.0
H1633 H 0.79318 0.62938 0.55451 0.0
H1634 H 0.79459 0.62806 0.44172 0.0
H1635 H 0.86532 0.63457 0.55244 0.0
H1636 H 0.79243 0.63137 0.5135 0.0
H1637 H 0.86534 0.63856 0.48321 0.0
C1638 C 0.85036 0.63512 0.45102 0.0
C1639 C 0.83058 0.6319 0.43876 0.0
C1640 C 0.80837 0.63213 0.52211 0.0
C1641 C 0.82923 0.63414 0.48545 0.0
C1642 C 0.80883 0.63102 0.54549 0.0
C1643 C 0.82937 0.63162 0.55696 0.0
C1644 C 0.82858 0.63394 0.51022 0.0
C1645 C 0.8491 0.63381 0.5444 0.0
C1646 C 0.84975 0.63629 0.47422 0.0
C1647 C 0.81025 0.63045 0.45051 0.0
N1648 N 0.84819 0.63483 0.52177 0.0
N1649 N 0.81011 0.63143 0.47328 0.0
H1650 H 0.36671 0.79265 0.55517 0.0
H1651 H 0.35766 0.86525 0.44311 0.0
H1652 H 0.35577 0.86413 0.55282 0.0
H1653 H 0.36905 0.7938 0.44249 0.0
H1654 H 0.35441 0.86406 0.48354 0.0
H1655 H 0.36503 0.79163 0.51413 0.0
C1656 C 0.36381 0.80807 0.54607 0.0
C1657 C 0.36166 0.82854 0.55744 0.0
C1658 C 0.35758 0.84858 0.47464 0.0
C1659 C 0.35972 0.82748 0.51071 0.0
C1660 C 0.35952 0.84926 0.45148 0.0
C1661 C 0.36391 0.82962 0.43937 0.0
C1662 C 0.36017 0.82814 0.48595 0.0
C1663 C 0.36578 0.80936 0.45119 0.0
C1664 C 0.36289 0.80748 0.52268 0.0
C1665 C 0.35785 0.84799 0.54482 0.0
N1666 N 0.36406 0.80916 0.47391 0.0
N1667 N 0.35711 0.84697 0.52219 0.0
H1668 H 0.13052 0.35502 0.44221 0.0
H1669 H 0.20303 0.36858 0.55389 0.0
H1670 H 0.20176 0.36757 0.44119 0.0
H1671 H 0.13117 0.36041 0.55187 0.0
H1672 H 0.20398 0.36539 0.51297 0.0
H1673 H 0.13163 0.35373 0.48276 0.0
C1674 C 0.14646 0.3575 0.45051 0.0
C1675 C 0.16605 0.3617 0.43825 0.0
C1676 C 0.18806 0.36424 0.52156 0.0
C1677 C 0.16741 0.36028 0.48496 0.0
C1678 C 0.18749 0.36606 0.5449 0.0
C1679 C 0.16696 0.36497 0.55634 0.0
C1680 C 0.16798 0.36122 0.5097 0.0
C1681 C 0.14737 0.3616 0.54382 0.0
C1682 C 0.14708 0.35673 0.47374 0.0
C1683 C 0.18624 0.3644 0.45 0.0
N1684 N 0.14838 0.35991 0.52124 0.0
N1685 N 0.18639 0.36382 0.47278 0.0
H1686 H 0.63605 0.12993 0.44314 0.0
H1687 H 0.62913 0.2037 0.55457 0.0
H1688 H 0.62713 0.20173 0.44177 0.0
H1689 H 0.63671 0.13177 0.55277 0.0
H1690 H 0.6306 0.20431 0.51352 0.0
H1691 H 0.63854 0.1313 0.48358 0.0
C1692 C 0.63457 0.14604 0.45134 0.0
C1693 C 0.63114 0.16573 0.439 0.0
C1694 C 0.63202 0.18845 0.5222 0.0
C1695 C 0.63401 0.16741 0.48563 0.0
C1696 C 0.63121 0.18809 0.5456 0.0
C1697 C 0.63256 0.16763 0.55714 0.0
C1698 C 0.63428 0.16824 0.51039 0.0
C1699 C 0.63531 0.14792 0.54466 0.0
C1700 C 0.63606 0.14681 0.47452 0.0
C1701 C 0.62968 0.18612 0.45064 0.0
N1702 N 0.636 0.14874 0.52203 0.0
N1703 N 0.631 0.18643 0.47339 0.0
H1704 H 0.86628 0.35907 0.44373 0.0
H1705 H 0.79397 0.36843 0.55602 0.0
H1706 H 0.79458 0.36874 0.44311 0.0
H1707 H 0.86591 0.36113 0.55343 0.0
H1708 H 0.79286 0.36636 0.515 0.0
H1709 H 0.86541 0.35742 0.48424 0.0
C1710 C 0.85029 0.36087 0.45211 0.0
C1711 C 0.83049 0.36429 0.43995 0.0
C1712 C 0.80883 0.36516 0.5235 0.0
C1713 C 0.82939 0.36242 0.48668 0.0
C1714 C 0.80949 0.36632 0.54689 0.0
C1715 C 0.83008 0.36516 0.55821 0.0
C1716 C 0.8289 0.36273 0.51146 0.0
C1717 C 0.84965 0.36235 0.54551 0.0
C1718 C 0.84981 0.35988 0.47534 0.0
C1719 C 0.81026 0.36617 0.45183 0.0
N1720 N 0.84855 0.3613 0.52289 0.0
N1721 N 0.81024 0.36535 0.47461 0.0
H1722 H 0.62802 0.7931 0.44021 0.0
H1723 H 0.6383 0.8656 0.55223 0.0
H1724 H 0.63759 0.86479 0.44254 0.0
H1725 H 0.62582 0.79433 0.55296 0.0
H1726 H 0.6409 0.86444 0.51177 0.0
H1727 H 0.62987 0.7921 0.48124 0.0
C1728 C 0.63061 0.80858 0.4493 0.0
C1729 C 0.63242 0.82909 0.43791 0.0
C1730 C 0.63762 0.849 0.52069 0.0
C1731 C 0.63458 0.82802 0.48464 0.0
C1732 C 0.63607 0.84965 0.54387 0.0
C1733 C 0.63156 0.83006 0.55603 0.0
C1734 C 0.63453 0.82863 0.5094 0.0
C1735 C 0.62921 0.80985 0.54423 0.0
C1736 C 0.63164 0.80799 0.47268 0.0
C1737 C 0.63583 0.84861 0.45053 0.0
N1738 N 0.63057 0.80967 0.52148 0.0
N1739 N 0.63672 0.84757 0.47315 0.0
H1740 H 0.12815 0.63785 0.55474 0.0
H1741 H 0.20287 0.62824 0.44413 0.0
H1742 H 0.19987 0.62852 0.55673 0.0
H1743 H 0.13082 0.63484 0.44496 0.0
H1744 H 0.20302 0.63085 0.48509 0.0
H1745 H 0.12979 0.63946 0.51423 0.0
C1746 C 0.1443 0.63612 0.54666 0.0
C1747 C 0.16389 0.63278 0.5592 0.0
C1748 C 0.18723 0.63179 0.47623 0.0
C1749 C 0.16587 0.63462 0.51252 0.0
C1750 C 0.18712 0.63032 0.45287 0.0
C1751 C 0.16678 0.63111 0.44108 0.0
C1752 C 0.16688 0.63414 0.48777 0.0
C1753 C 0.1469 0.6339 0.45328 0.0
C1754 C 0.14522 0.63709 0.52345 0.0
C1755 C 0.18434 0.631 0.54772 0.0
N1756 N 0.14747 0.63524 0.4759 0.0
N1757 N 0.18479 0.6318 0.52495 0.0
H1758 H 0.35986 0.12923 0.44162 0.0
H1759 H 0.36864 0.20362 0.55256 0.0
H1760 H 0.3689 0.20099 0.43971 0.0
H1761 H 0.36218 0.13156 0.55128 0.0
H1762 H 0.36649 0.20397 0.51153 0.0
H1763 H 0.35827 0.13079 0.4821 0.0
C1764 C 0.36154 0.14538 0.44971 0.0
C1765 C 0.36476 0.165 0.43719 0.0
C1766 C 0.36549 0.18814 0.52032 0.0
C1767 C 0.36295 0.16689 0.48389 0.0
C1768 C 0.36669 0.18792 0.54371 0.0
C1769 C 0.36579 0.16751 0.5554 0.0
C1770 C 0.36328 0.16784 0.50865 0.0
C1771 C 0.3632 0.14769 0.54306 0.0
C1772 C 0.36058 0.14626 0.47292 0.0
C1773 C 0.36649 0.18544 0.4487 0.0
N1774 N 0.3621 0.14838 0.52043 0.0
N1775 N 0.3657 0.18586 0.47148 0.0
H1776 H 0.44002 0.79279 0.62953 0.0
H1777 H 0.55172 0.86663 0.62973 0.0
H1778 H 0.44221 0.86513 0.62957 0.0
H1779 H 0.55306 0.79428 0.62837 0.0
H1780 H 0.51126 0.86555 0.63116 0.0
H1781 H 0.48111 0.79217 0.63055 0.0
C1782 C 0.44907 0.8085 0.62981 0.0
C1783 C 0.4376 0.82904 0.62932 0.0
C1784 C 0.52031 0.84985 0.63057 0.0
C1785 C 0.4844 0.82841 0.63051 0.0
C1786 C 0.54352 0.85045 0.62972 0.0
C1787 C 0.55589 0.8305 0.62878 0.0
C1788 C 0.50917 0.82916 0.63043 0.0
C1789 C 0.5442 0.81008 0.62902 0.0
C1790 C 0.4725 0.80812 0.63037 0.0
C1791 C 0.45021 0.84887 0.62976 0.0
N1792 N 0.52142 0.80992 0.62974 0.0
N1793 N 0.47284 0.84802 0.63028 0.0
H1794 H 0.44281 0.12839 0.35853 0.0
H1795 H 0.5545 0.20173 0.36646 0.0
H1796 H 0.44171 0.20031 0.3664 0.0
H1797 H 0.55254 0.12957 0.36148 0.0
H1798 H 0.51351 0.20244 0.36411 0.0
H1799 H 0.48332 0.12947 0.35705 0.0
C1800 C 0.45108 0.14447 0.35996 0.0
C1801 C 0.43878 0.16428 0.36284 0.0
C1802 C 0.52214 0.1865 0.36347 0.0
C1803 C 0.48551 0.16561 0.36115 0.0
C1804 C 0.54551 0.18607 0.3648 0.0
C1805 C 0.55701 0.16554 0.36436 0.0
C1806 C 0.51028 0.16628 0.36161 0.0
C1807 C 0.54448 0.14579 0.36212 0.0
C1808 C 0.4743 0.14507 0.35907 0.0
C1809 C 0.45053 0.18462 0.36426 0.0
N1810 N 0.52186 0.14668 0.36089 0.0
N1811 N 0.47331 0.18476 0.36355 0.0
H1812 H 0.79345 0.55479 0.36838 0.0
H1813 H 0.86607 0.44256 0.36094 0.0
H1814 H 0.86544 0.55217 0.36159 0.0
H1815 H 0.79427 0.44181 0.36983 0.0
H1816 H 0.86511 0.48303 0.35895 0.0
H1817 H 0.79241 0.51373 0.36684 0.0
C1818 C 0.80899 0.54564 0.36648 0.0
C1819 C 0.82958 0.55696 0.36532 0.0
C1820 C 0.8495 0.47411 0.36132 0.0
C1821 C 0.82847 0.51019 0.3635 0.0
C1822 C 0.85004 0.4509 0.36251 0.0
C1823 C 0.83023 0.43871 0.36579 0.0
C1824 C 0.82903 0.48542 0.3635 0.0
C1825 C 0.80996 0.45055 0.36738 0.0
C1826 C 0.80837 0.52223 0.36563 0.0
C1827 C 0.84918 0.54425 0.36281 0.0
N1828 N 0.80988 0.47332 0.36635 0.0
N1829 N 0.84811 0.52163 0.36204 0.0
H1830 H 0.44211 0.79302 0.36764 0.0
H1831 H 0.55397 0.86618 0.3604 0.0
H1832 H 0.44434 0.86527 0.36409 0.0
H1833 H 0.55499 0.79417 0.36747 0.0
H1834 H 0.51346 0.86521 0.35933 0.0
H1835 H 0.48311 0.79222 0.36545 0.0
C1836 C 0.45116 0.80868 0.36635 0.0
C1837 C 0.43973 0.82925 0.3662 0.0
C1838 C 0.52245 0.84957 0.3611 0.0
C1839 C 0.48646 0.82841 0.36363 0.0
C1840 C 0.54568 0.8501 0.36174 0.0
C1841 C 0.55796 0.83023 0.36426 0.0
C1842 C 0.51122 0.82903 0.36305 0.0
C1843 C 0.54618 0.8099 0.3656 0.0
C1844 C 0.47454 0.8082 0.36511 0.0
C1845 C 0.45234 0.849 0.36445 0.0
N1846 N 0.5234 0.80982 0.36511 0.0
N1847 N 0.47495 0.84806 0.36328 0.0
H1848 H 0.13025 0.44159 0.36261 0.0
H1849 H 0.20397 0.55306 0.36968 0.0
H1850 H 0.20232 0.44009 0.36885 0.0
H1851 H 0.13171 0.55109 0.36633 0.0
H1852 H 0.2046 0.51204 0.36762 0.0
H1853 H 0.13142 0.48207 0.36195 0.0
C1854 C 0.14639 0.44976 0.36387 0.0
C1855 C 0.16622 0.43735 0.36601 0.0
C1856 C 0.18866 0.52068 0.3673 0.0
C1857 C 0.16766 0.48408 0.36525 0.0
C1858 C 0.18827 0.54406 0.36848 0.0
C1859 C 0.16775 0.55557 0.36831 0.0
C1860 C 0.1684 0.50883 0.36589 0.0
C1861 C 0.14795 0.54304 0.36667 0.0
C1862 C 0.14704 0.47298 0.36345 0.0
C1863 C 0.18662 0.449 0.36726 0.0
N1864 N 0.1488 0.52042 0.36556 0.0
N1865 N 0.18682 0.47179 0.36698 0.0
H1866 H 0.44395 0.13201 0.63536 0.0
H1867 H 0.55613 0.20448 0.62699 0.0
H1868 H 0.44322 0.20363 0.62507 0.0
H1869 H 0.55347 0.13266 0.63542 0.0
H1870 H 0.51507 0.20559 0.62849 0.0
H1871 H 0.48438 0.13304 0.63772 0.0
C1872 C 0.4523 0.14801 0.63355 0.0
C1873 C 0.44014 0.16775 0.62976 0.0
C1874 C 0.52357 0.18965 0.63008 0.0
C1875 C 0.48678 0.16904 0.63247 0.0
C1876 C 0.54697 0.18899 0.62925 0.0
C1877 C 0.55826 0.16842 0.63086 0.0
C1878 C 0.51153 0.1696 0.63262 0.0
C1879 C 0.54555 0.14889 0.63384 0.0
C1880 C 0.47548 0.14859 0.63496 0.0
C1881 C 0.45196 0.188 0.62791 0.0
N1882 N 0.52294 0.14999 0.63455 0.0
N1883 N 0.47471 0.18812 0.62914 0.0
H1884 H 0.79363 0.55484 0.62864 0.0
H1885 H 0.86721 0.44329 0.63627 0.0
H1886 H 0.86575 0.55305 0.63429 0.0
H1887 H 0.79521 0.44211 0.62921 0.0
H1888 H 0.8661 0.48381 0.63771 0.0
H1889 H 0.79302 0.51385 0.63083 0.0
C1890 C 0.8093 0.54589 0.6304 0.0
C1891 C 0.82978 0.55743 0.63109 0.0
C1892 C 0.85049 0.47477 0.63588 0.0
C1893 C 0.82916 0.5107 0.63365 0.0
C1894 C 0.85111 0.45154 0.63501 0.0
C1895 C 0.83128 0.43922 0.63238 0.0
C1896 C 0.8299 0.48594 0.63403 0.0
C1897 C 0.81091 0.45094 0.63116 0.0
C1898 C 0.80892 0.52251 0.63165 0.0
C1899 C 0.84955 0.54495 0.63346 0.0
N1900 N 0.81075 0.47372 0.63186 0.0
N1901 N 0.84872 0.52233 0.63459 0.0
H1902 H 0.12733 0.55389 0.63568 0.0
H1903 H 0.20185 0.44288 0.62927 0.0
H1904 H 0.19945 0.55557 0.63014 0.0
H1905 H 0.12954 0.44412 0.63155 0.0
H1906 H 0.20207 0.48385 0.63167 0.0
H1907 H 0.12864 0.51335 0.63651 0.0
C1908 C 0.1435 0.54574 0.63464 0.0
C1909 C 0.16331 0.55822 0.63262 0.0
C1910 C 0.1862 0.47507 0.63169 0.0
C1911 C 0.16491 0.51148 0.63356 0.0
C1912 C 0.18605 0.45171 0.63032 0.0
C1913 C 0.16564 0.44 0.63006 0.0
C1914 C 0.16581 0.48673 0.63287 0.0
C1915 C 0.14569 0.45234 0.63152 0.0
C1916 C 0.14423 0.52251 0.63514 0.0
C1917 C 0.18376 0.54662 0.63162 0.0
N1918 N 0.14631 0.47496 0.63282 0.0
N1919 N 0.18403 0.52384 0.63198 0.0
H1920 H 0.15253 0.22486 0.30451 0.0
H1921 H 0.10515 0.26451 0.18585 0.0
H1922 H 0.10772 0.18561 0.26347 0.0
H1923 H 0.15242 0.3029 0.22488 0.0
H1924 H 0.10177 0.23807 0.21675 0.0
H1925 H 0.14856 0.25597 0.27824 0.0
C1926 C 0.14165 0.22282 0.29014 0.0
C1927 C 0.13069 0.20238 0.28609 0.0
C1928 C 0.11273 0.25238 0.21865 0.0
C1929 C 0.12618 0.23801 0.25586 0.0
C1930 C 0.11467 0.26755 0.20099 0.0
C1931 C 0.12935 0.28586 0.20257 0.0
C1932 C 0.12563 0.25541 0.23808 0.0
C1933 C 0.14104 0.28896 0.22277 0.0
C1934 C 0.13944 0.24062 0.27511 0.0
C1935 C 0.11672 0.20089 0.26721 0.0
N1936 N 0.13912 0.27375 0.23962 0.0
N1937 N 0.11505 0.21835 0.25273 0.0
H1938 H 0.6929 0.1499 0.22324 0.0
H1939 H 0.8134 0.10526 0.26028 0.0
H1940 H 0.73477 0.10751 0.18221 0.0
H1941 H 0.77282 0.14947 0.30069 0.0
H1942 H 0.78248 0.10175 0.23387 0.0
H1943 H 0.71961 0.14578 0.25392 0.0
C1944 C 0.70756 0.13953 0.22071 0.0
C1945 C 0.71169 0.1293 0.19993 0.0
C1946 C 0.78026 0.11206 0.24862 0.0
C1947 C 0.74243 0.12461 0.23506 0.0
C1948 C 0.79793 0.11407 0.26376 0.0
C1949 C 0.79589 0.12794 0.28264 0.0
C1950 C 0.76037 0.12407 0.25226 0.0
C1951 C 0.7753 0.13874 0.28629 0.0
C1952 C 0.72284 0.13722 0.23827 0.0
C1953 C 0.73095 0.11594 0.1978 0.0
N1954 N 0.75844 0.13677 0.27112 0.0
N1955 N 0.74568 0.11417 0.21505 0.0
H1956 H 0.8425 0.77092 0.30392 0.0
H1957 H 0.88918 0.73113 0.18502 0.0
H1958 H 0.88715 0.81011 0.26264 0.0
H1959 H 0.84222 0.69272 0.22442 0.0
H1960 H 0.89255 0.75774 0.21575 0.0
H1961 H 0.8461 0.73988 0.27753 0.0
C1962 C 0.85326 0.77297 0.28947 0.0
C1963 C 0.86431 0.79335 0.28541 0.0
C1964 C 0.88165 0.74339 0.21777 0.0
C1965 C 0.86842 0.7578 0.25503 0.0
C1966 C 0.87972 0.72813 0.2002 0.0
C1967 C 0.86515 0.70974 0.20194 0.0
C1968 C 0.86887 0.74039 0.23728 0.0
C1969 C 0.85353 0.70671 0.22219 0.0
C1970 C 0.85527 0.75521 0.27437 0.0
C1971 C 0.87811 0.79486 0.2664 0.0
N1972 N 0.85546 0.722 0.23896 0.0
N1973 N 0.8796 0.77743 0.25186 0.0
H1974 H 0.22346 0.84638 0.30279 0.0
H1975 H 0.26075 0.89054 0.18217 0.0
H1976 H 0.18257 0.88877 0.26076 0.0
H1977 H 0.30055 0.84563 0.22258 0.0
H1978 H 0.23439 0.89431 0.21311 0.0
H1979 H 0.25411 0.8502 0.27602 0.0
C1980 C 0.22096 0.8567 0.28808 0.0
C1981 C 0.20021 0.86701 0.28392 0.0
C1982 C 0.24899 0.88379 0.21529 0.0
C1983 C 0.23532 0.87135 0.25311 0.0
C1984 C 0.2641 0.88162 0.1976 0.0
C1985 C 0.2828 0.86748 0.19959 0.0
C1986 C 0.25249 0.87168 0.23514 0.0
C1987 C 0.28629 0.85655 0.22015 0.0
C1988 C 0.2385 0.85884 0.27277 0.0
C1989 C 0.19812 0.8803 0.26461 0.0
N1990 N 0.27116 0.8587 0.23702 0.0
N1991 N 0.21536 0.8819 0.24984 0.0
H1992 H 0.15124 0.77075 0.69186 0.0
H1993 H 0.10658 0.73312 0.81227 0.0
H1994 H 0.10786 0.81102 0.73344 0.0
H1995 H 0.15208 0.69354 0.77233 0.0
H1996 H 0.10288 0.75939 0.78125 0.0
H1997 H 0.1477 0.74008 0.71871 0.0
C1998 C 0.14075 0.7731 0.70647 0.0
C1999 C 0.13007 0.79369 0.71049 0.0
C2000 C 0.11353 0.74486 0.77918 0.0
C2001 C 0.12607 0.75857 0.74139 0.0
C2002 C 0.11565 0.72979 0.79692 0.0
C2003 C 0.12991 0.71117 0.7951 0.0
C2004 C 0.1258 0.74141 0.75942 0.0
C2005 C 0.14103 0.70772 0.77463 0.0
C2006 C 0.13879 0.75555 0.72184 0.0
C2007 C 0.11662 0.7956 0.7297 0.0
N2008 N 0.13892 0.72282 0.7577 0.0
N2009 N 0.11519 0.77837 0.7445 0.0
H2010 H 0.30336 0.15045 0.77162 0.0
H2011 H 0.18319 0.10541 0.73418 0.0
H2012 H 0.26231 0.10641 0.81174 0.0
H2013 H 0.22321 0.15077 0.69448 0.0
H2014 H 0.21429 0.10156 0.76033 0.0
H2015 H 0.2766 0.14668 0.74094 0.0
C2016 C 0.28888 0.13978 0.77394 0.0
C2017 C 0.28497 0.12899 0.79448 0.0
C2018 C 0.21635 0.1122 0.74579 0.0
C2019 C 0.25417 0.12472 0.75937 0.0
C2020 C 0.19857 0.11442 0.73081 0.0
C2021 C 0.2004 0.1287 0.7122 0.0
C2022 C 0.23614 0.12442 0.74227 0.0
C2023 C 0.22089 0.13973 0.70867 0.0
C2024 C 0.27358 0.13767 0.75638 0.0
C2025 C 0.26595 0.11527 0.79635 0.0
N2026 N 0.23786 0.13755 0.72369 0.0
N2027 N 0.25118 0.11371 0.77912 0.0
H2028 H 0.88996 0.18568 0.73253 0.0
H2029 H 0.84291 0.30461 0.77157 0.0
H2030 H 0.84294 0.22475 0.69385 0.0
H2031 H 0.88803 0.26388 0.81082 0.0
H2032 H 0.84673 0.27816 0.74061 0.0
H2033 H 0.89345 0.21668 0.75881 0.0
C2034 C 0.88051 0.20084 0.7294 0.0
C2035 C 0.86588 0.20241 0.71105 0.0
C2036 C 0.85596 0.27514 0.75592 0.0
C2037 C 0.86973 0.23805 0.7413 0.0
C2038 C 0.85383 0.29027 0.77364 0.0
C2039 C 0.86492 0.28635 0.79403 0.0
C2040 C 0.86927 0.25593 0.75858 0.0
C2041 C 0.87893 0.26752 0.79557 0.0
C2042 C 0.88252 0.21857 0.74447 0.0
C2043 C 0.85428 0.22265 0.70783 0.0
N2044 N 0.88052 0.25293 0.77819 0.0
N2045 N 0.85627 0.23957 0.72294 0.0
H2046 H 0.69234 0.84481 0.77175 0.0
H2047 H 0.81223 0.89063 0.73411 0.0
H2048 H 0.73359 0.88842 0.81213 0.0
H2049 H 0.77264 0.84477 0.69459 0.0
H2050 H 0.7812 0.89409 0.76039 0.0
H2051 H 0.71909 0.8487 0.74107 0.0
C2052 C 0.70687 0.85541 0.77413 0.0
C2053 C 0.71082 0.86606 0.79474 0.0
C2054 C 0.77921 0.88342 0.74587 0.0
C2055 C 0.7416 0.87048 0.75961 0.0
C2056 C 0.79695 0.88143 0.7308 0.0
C2057 C 0.79523 0.86713 0.71221 0.0
C2058 C 0.75957 0.87095 0.74244 0.0
C2059 C 0.77487 0.85584 0.70876 0.0
C2060 C 0.72217 0.85759 0.75658 0.0
C2061 C 0.72991 0.87967 0.79669 0.0
N2062 N 0.75794 0.85781 0.72386 0.0
N2063 N 0.74466 0.88131 0.77944 0.0
H2064 H 0.30363 0.15363 0.2235 0.0
H2065 H 0.18465 0.10706 0.26319 0.0
H2066 H 0.26227 0.10915 0.18421 0.0
H2067 H 0.22422 0.15365 0.30184 0.0
H2068 H 0.21534 0.10376 0.23652 0.0
H2069 H 0.27725 0.14997 0.25455 0.0
C2070 C 0.28916 0.14289 0.22144 0.0
C2071 C 0.28508 0.13191 0.20102 0.0
C2072 C 0.21741 0.11456 0.25093 0.0
C2073 C 0.25472 0.12774 0.23658 0.0
C2074 C 0.19986 0.11646 0.26622 0.0
C2075 C 0.20166 0.1309 0.2847 0.0
C2076 C 0.23696 0.12726 0.254 0.0
C2077 C 0.22195 0.14244 0.28778 0.0
C2078 C 0.27407 0.14085 0.2392 0.0
C2079 C 0.26606 0.11814 0.19948 0.0
N2080 N 0.2387 0.14056 0.27246 0.0
N2081 N 0.25153 0.11662 0.21692 0.0
H2082 H 0.84403 0.30261 0.22334 0.0
H2083 H 0.89011 0.18282 0.26099 0.0
H2084 H 0.88783 0.26152 0.18301 0.0
H2085 H 0.84415 0.22232 0.3005 0.0
H2086 H 0.89355 0.21388 0.23474 0.0
H2087 H 0.84798 0.27588 0.25403 0.0
C2088 C 0.85468 0.28812 0.22097 0.0
C2089 C 0.86536 0.28421 0.20037 0.0
C2090 C 0.88286 0.21584 0.24925 0.0
C2091 C 0.86986 0.25344 0.23551 0.0
C2092 C 0.88089 0.19808 0.2643 0.0
C2093 C 0.86656 0.19977 0.28288 0.0
C2094 C 0.87036 0.23546 0.25268 0.0
C2095 C 0.85524 0.22012 0.28633 0.0
C2096 C 0.85689 0.27283 0.23853 0.0
C2097 C 0.87905 0.26517 0.19844 0.0
N2098 N 0.8572 0.23706 0.27124 0.0
N2099 N 0.88072 0.25042 0.21569 0.0
H2100 H 0.73362 0.88935 0.18368 0.0
H2101 H 0.77099 0.84439 0.30401 0.0
H2102 H 0.69385 0.84402 0.22365 0.0
H2103 H 0.81144 0.88768 0.26249 0.0
H2104 H 0.74028 0.84825 0.27726 0.0
H2105 H 0.75982 0.89307 0.21476 0.0
C2106 C 0.73024 0.88033 0.19905 0.0
C2107 C 0.7116 0.86609 0.20086 0.0
C2108 C 0.75581 0.85708 0.27413 0.0
C2109 C 0.74174 0.87021 0.23659 0.0
C2110 C 0.77337 0.85493 0.28943 0.0
C2111 C 0.79402 0.86547 0.28539 0.0
C2112 C 0.75888 0.86984 0.2546 0.0
C2113 C 0.79598 0.87901 0.26624 0.0
C2114 C 0.74526 0.88246 0.21682 0.0
C2115 C 0.70807 0.85503 0.22135 0.0
N2116 N 0.77874 0.88062 0.25149 0.0
N2117 N 0.72312 0.85714 0.23831 0.0
H2118 H 0.15061 0.69313 0.22418 0.0
H2119 H 0.10535 0.81303 0.26225 0.0
H2120 H 0.10668 0.73445 0.1842 0.0
H2121 H 0.15099 0.77301 0.30163 0.0
H2122 H 0.10154 0.78204 0.23597 0.0
H2123 H 0.1468 0.71972 0.25499 0.0
C2124 C 0.13996 0.70764 0.22192 0.0
C2125 C 0.12921 0.71167 0.20137 0.0
C2126 C 0.11223 0.77995 0.25047 0.0
C2127 C 0.12488 0.74227 0.23665 0.0
C2128 C 0.11442 0.79767 0.26553 0.0
C2129 C 0.12878 0.79581 0.28407 0.0
C2130 C 0.12455 0.7602 0.25385 0.0
C2131 C 0.13989 0.77534 0.28748 0.0
C2132 C 0.13782 0.72284 0.23955 0.0
C2133 C 0.11551 0.73072 0.19958 0.0
N2134 N 0.13773 0.75844 0.27239 0.0
N2135 N 0.11393 0.74539 0.21689 0.0
H2136 H 0.22415 0.84231 0.69194 0.0
H2137 H 0.26358 0.88862 0.81113 0.0
H2138 H 0.18489 0.88695 0.73315 0.0
H2139 H 0.30208 0.84174 0.77174 0.0
H2140 H 0.23703 0.89205 0.78034 0.0
H2141 H 0.25508 0.84577 0.71849 0.0
C2142 C 0.22207 0.85304 0.70641 0.0
C2143 C 0.20169 0.86413 0.7104 0.0
C2144 C 0.25138 0.88115 0.77833 0.0
C2145 C 0.23711 0.86806 0.74096 0.0
C2146 C 0.2666 0.87918 0.79595 0.0
C2147 C 0.28501 0.86463 0.79422 0.0
C2148 C 0.25445 0.86842 0.7588 0.0
C2149 C 0.28808 0.85303 0.77396 0.0
C2150 C 0.23977 0.85497 0.7216 0.0
C2151 C 0.20013 0.87788 0.72943 0.0
N2152 N 0.27283 0.85501 0.75715 0.0
N2153 N 0.2175 0.87929 0.74406 0.0
H2154 H 0.1058 0.25993 0.81416 0.0
H2155 H 0.14972 0.22334 0.69327 0.0
H2156 H 0.1497 0.30049 0.77339 0.0
H2157 H 0.10716 0.18233 0.73501 0.0
H2158 H 0.14576 0.25392 0.72011 0.0
H2159 H 0.10202 0.23366 0.78315 0.0
C2160 C 0.11449 0.26347 0.79864 0.0
C2161 C 0.12835 0.28236 0.79656 0.0
C2162 C 0.13711 0.2383 0.72328 0.0
C2163 C 0.12416 0.25215 0.76093 0.0
C2164 C 0.13933 0.2208 0.70793 0.0
C2165 C 0.12902 0.20005 0.71199 0.0
C2166 C 0.12453 0.23505 0.74289 0.0
C2167 C 0.11565 0.1979 0.73124 0.0
C2168 C 0.11232 0.24841 0.78091 0.0
C2169 C 0.139 0.28608 0.7759 0.0
N2170 N 0.11399 0.21508 0.74605 0.0
N2171 N 0.13686 0.271 0.75899 0.0
H2172 H 0.69195 0.15321 0.77143 0.0
H2173 H 0.81129 0.10696 0.73274 0.0
H2174 H 0.73246 0.10768 0.81043 0.0
H2175 H 0.77212 0.15388 0.69403 0.0
H2176 H 0.78018 0.10316 0.75885 0.0
H2177 H 0.71859 0.14974 0.74059 0.0
C2178 C 0.70628 0.14227 0.77346 0.0
C2179 C 0.71008 0.13097 0.79376 0.0
C2180 C 0.77829 0.11415 0.74454 0.0
C2181 C 0.74074 0.12704 0.75846 0.0
C2182 C 0.79609 0.11634 0.72958 0.0
C2183 C 0.79451 0.13102 0.71127 0.0
C2184 C 0.75873 0.1268 0.74131 0.0
C2185 C 0.77422 0.1425 0.70799 0.0
C2186 C 0.72152 0.14034 0.75582 0.0
C2187 C 0.72891 0.11694 0.79526 0.0
N2188 N 0.75723 0.14033 0.723 0.0
N2189 N 0.74361 0.11555 0.77796 0.0
H2190 H 0.89007 0.73525 0.81372 0.0
H2191 H 0.846 0.77287 0.69319 0.0
H2192 H 0.84536 0.69542 0.77313 0.0
H2193 H 0.88846 0.81355 0.73533 0.0
H2194 H 0.84986 0.74209 0.71983 0.0
H2195 H 0.89391 0.76164 0.78283 0.0
C2196 C 0.88121 0.7319 0.79826 0.0
C2197 C 0.8671 0.71319 0.79621 0.0
C2198 C 0.8585 0.75769 0.72313 0.0
C2199 C 0.87136 0.74354 0.7607 0.0
C2200 C 0.85635 0.7753 0.70789 0.0
C2201 C 0.86666 0.79602 0.71213 0.0
C2202 C 0.87104 0.76078 0.74279 0.0
C2203 C 0.87997 0.79802 0.73143 0.0
C2204 C 0.88341 0.74703 0.78059 0.0
C2205 C 0.85626 0.70969 0.77561 0.0
N2206 N 0.88159 0.78072 0.74612 0.0
N2207 N 0.85843 0.72485 0.75876 0.0
H2208 H 0.26259 0.18503 0.10577 0.0
H2209 H 0.22368 0.30423 0.15244 0.0
H2210 H 0.30196 0.22487 0.15154 0.0
H2211 H 0.18347 0.26253 0.10913 0.0
H2212 H 0.25467 0.27786 0.14828 0.0
H2213 H 0.23585 0.21571 0.10274 0.0
C2214 C 0.26578 0.2003 0.11503 0.0
C2215 C 0.28447 0.20218 0.12918 0.0
C2216 C 0.23913 0.2746 0.13953 0.0
C2217 C 0.25369 0.23744 0.12587 0.0
C2218 C 0.22139 0.28968 0.14187 0.0
C2219 C 0.20075 0.2855 0.13135 0.0
C2220 C 0.23624 0.25516 0.12661 0.0
C2221 C 0.19893 0.26639 0.11776 0.0
C2222 C 0.25044 0.21784 0.11329 0.0
C2223 C 0.28774 0.22253 0.14056 0.0
N2224 N 0.21635 0.25186 0.11595 0.0
N2225 N 0.27237 0.23926 0.13884 0.0
H2226 H 0.22441 0.69187 0.84471 0.0
H2227 H 0.26343 0.8117 0.88954 0.0
H2228 H 0.18458 0.73386 0.88809 0.0
H2229 H 0.30253 0.7713 0.84403 0.0
H2230 H 0.23683 0.78098 0.89328 0.0
H2231 H 0.2554 0.7183 0.84835 0.0
C2232 C 0.22221 0.70649 0.8552 0.0
C2233 C 0.20166 0.71074 0.86587 0.0
C2234 C 0.25133 0.77874 0.88263 0.0
C2235 C 0.23715 0.74117 0.87 0.0
C2236 C 0.26659 0.79631 0.88049 0.0
C2237 C 0.28516 0.79427 0.86619 0.0
C2238 C 0.25454 0.75896 0.87033 0.0
C2239 C 0.28839 0.77376 0.85509 0.0
C2240 C 0.23994 0.72161 0.85724 0.0
C2241 C 0.19996 0.72995 0.87935 0.0
N2242 N 0.2731 0.75701 0.85721 0.0
N2243 N 0.21737 0.74452 0.88085 0.0
H2244 H 0.30311 0.22335 0.84613 0.0
H2245 H 0.18221 0.25983 0.89023 0.0
H2246 H 0.2609 0.18172 0.8876 0.0
H2247 H 0.22292 0.30047 0.84636 0.0
H2248 H 0.21313 0.23339 0.8937 0.0
H2249 H 0.27628 0.2539 0.8503 0.0
C2250 C 0.28834 0.22066 0.85631 0.0
C2251 C 0.28416 0.19974 0.86627 0.0
C2252 C 0.21538 0.2482 0.88348 0.0
C2253 C 0.25328 0.23474 0.87102 0.0
C2254 C 0.1977 0.26336 0.88149 0.0
C2255 C 0.19978 0.28232 0.86771 0.0
C2256 C 0.23531 0.25192 0.87156 0.0
C2257 C 0.22041 0.28601 0.85699 0.0
C2258 C 0.273 0.23815 0.85866 0.0
C2259 C 0.26477 0.19741 0.8794 0.0
N2260 N 0.23727 0.27084 0.85896 0.0
N2261 N 0.24998 0.2146 0.8812 0.0
H2262 H 0.73381 0.18322 0.88846 0.0
H2263 H 0.77083 0.30425 0.84498 0.0
H2264 H 0.69327 0.22422 0.84476 0.0
H2265 H 0.81176 0.26207 0.88718 0.0
H2266 H 0.74022 0.27737 0.84864 0.0
H2267 H 0.76031 0.21406 0.89208 0.0
C2268 C 0.73033 0.19876 0.87978 0.0
C2269 C 0.71135 0.20094 0.86604 0.0
C2270 C 0.75583 0.27411 0.85727 0.0
C2271 C 0.74184 0.2364 0.87004 0.0
C2272 C 0.77335 0.28949 0.85523 0.0
C2273 C 0.79409 0.28534 0.86555 0.0
C2274 C 0.75903 0.25439 0.86969 0.0
C2275 C 0.79621 0.26594 0.87871 0.0
C2276 C 0.74552 0.21639 0.88185 0.0
C2277 C 0.70772 0.22163 0.85539 0.0
N2278 N 0.779 0.25113 0.88022 0.0
N2279 N 0.72294 0.23846 0.85743 0.0
H2280 H 0.81219 0.7347 0.89059 0.0
H2281 H 0.69223 0.77199 0.84469 0.0
H2282 H 0.77269 0.69503 0.84478 0.0
H2283 H 0.73313 0.81229 0.88868 0.0
H2284 H 0.71903 0.74135 0.84863 0.0
H2285 H 0.78103 0.76082 0.89414 0.0
C2286 C 0.79691 0.73132 0.88142 0.0
C2287 C 0.79525 0.71274 0.8671 0.0
C2288 C 0.72202 0.75683 0.85759 0.0
C2289 C 0.75944 0.74278 0.87103 0.0
C2290 C 0.70668 0.77436 0.85539 0.0
C2291 C 0.71053 0.79494 0.86612 0.0
C2292 C 0.74138 0.75988 0.87058 0.0
C2293 C 0.72953 0.79687 0.87986 0.0
C2294 C 0.77909 0.74629 0.88346 0.0
C2295 C 0.77487 0.7092 0.85586 0.0
N2296 N 0.74432 0.77967 0.88152 0.0
N2297 N 0.75787 0.72421 0.85788 0.0
H2298 H 0.77108 0.69134 0.15203 0.0
H2299 H 0.73386 0.81156 0.10658 0.0
H2300 H 0.81157 0.73255 0.10848 0.0
H2301 H 0.694 0.77181 0.15202 0.0
H2302 H 0.7601 0.78049 0.10312 0.0
H2303 H 0.74049 0.71822 0.14823 0.0
C2304 C 0.7735 0.70588 0.14146 0.0
C2305 C 0.79412 0.70978 0.1308 0.0
C2306 C 0.74552 0.77848 0.1137 0.0
C2307 C 0.7591 0.74072 0.12648 0.0
C2308 C 0.73047 0.79624 0.11568 0.0
C2309 C 0.71178 0.79448 0.12986 0.0
C2310 C 0.74198 0.75877 0.12604 0.0
C2311 C 0.70825 0.77406 0.14104 0.0
C2312 C 0.756 0.72126 0.13933 0.0
C2313 C 0.79612 0.7289 0.11722 0.0
N2314 N 0.72332 0.75711 0.13907 0.0
N2315 N 0.77893 0.74373 0.11564 0.0
H2316 H 0.25996 0.81446 0.10571 0.0
H2317 H 0.22348 0.6934 0.14931 0.0
H2318 H 0.30087 0.77323 0.14886 0.0
H2319 H 0.1818 0.73582 0.1081 0.0
H2320 H 0.25409 0.72014 0.14505 0.0
H2321 H 0.23345 0.78361 0.10213 0.0
C2322 C 0.26353 0.79886 0.11426 0.0
C2323 C 0.28258 0.79662 0.12788 0.0
C2324 C 0.23831 0.72349 0.13676 0.0
C2325 C 0.25211 0.76118 0.12392 0.0
C2326 C 0.22079 0.70819 0.13916 0.0
C2327 C 0.19985 0.71246 0.12931 0.0
C2328 C 0.23491 0.74325 0.12447 0.0
C2329 C 0.19751 0.73188 0.11622 0.0
C2330 C 0.24834 0.78123 0.11221 0.0
C2331 C 0.28634 0.77587 0.13836 0.0
N2332 N 0.21474 0.74663 0.11438 0.0
N2333 N 0.27113 0.75906 0.13634 0.0
H2334 H 0.69209 0.22374 0.14991 0.0
H2335 H 0.81216 0.26224 0.10528 0.0
H2336 H 0.73404 0.18362 0.10674 0.0
H2337 H 0.77169 0.30159 0.15051 0.0
H2338 H 0.78137 0.23571 0.1015 0.0
H2339 H 0.71861 0.25464 0.14617 0.0
C2340 C 0.70672 0.22146 0.13944 0.0
C2341 C 0.71094 0.20086 0.12887 0.0
C2342 C 0.77913 0.25026 0.1121 0.0
C2343 C 0.74146 0.23625 0.12463 0.0
C2344 C 0.79674 0.26547 0.11426 0.0
C2345 C 0.7947 0.28409 0.12849 0.0
C2346 C 0.75931 0.25357 0.12431 0.0
C2347 C 0.77416 0.28741 0.1395 0.0
C2348 C 0.72189 0.23915 0.13734 0.0
C2349 C 0.73015 0.19906 0.1154 0.0
N2350 N 0.75737 0.27217 0.13736 0.0
N2351 N 0.74477 0.21642 0.11386 0.0
H2352 H 0.64788 0.80357 0.7232 0.0
H2353 H 0.60412 0.68283 0.76048 0.0
H2354 H 0.60612 0.76119 0.68206 0.0
H2355 H 0.64861 0.72355 0.80043 0.0
H2356 H 0.60024 0.71374 0.7341 0.0
H2357 H 0.64385 0.77693 0.75393 0.0
C2358 C 0.63766 0.78881 0.72065 0.0
C2359 C 0.62759 0.78451 0.69982 0.0
C2360 C 0.61069 0.71599 0.74874 0.0
C2361 C 0.62302 0.75384 0.73503 0.0
C2362 C 0.61291 0.69833 0.76387 0.0
C2363 C 0.62699 0.70041 0.78261 0.0
C2364 C 0.62267 0.73592 0.75226 0.0
C2365 C 0.63775 0.72104 0.78614 0.0
C2366 C 0.63539 0.77357 0.73825 0.0
C2367 C 0.6144 0.76514 0.69769 0.0
N2368 N 0.63555 0.73789 0.77098 0.0
N2369 N 0.61269 0.75044 0.71497 0.0
H2370 H 0.27035 0.65462 0.80471 0.0
H2371 H 0.22988 0.60683 0.68647 0.0
H2372 H 0.30898 0.60905 0.76393 0.0
H2373 H 0.19171 0.65421 0.72557 0.0
H2374 H 0.25655 0.60361 0.71719 0.0
H2375 H 0.23916 0.65089 0.77848 0.0
C2376 C 0.27223 0.64363 0.79041 0.0
C2377 C 0.29251 0.63236 0.78643 0.0
C2378 C 0.24223 0.61457 0.71915 0.0
C2379 C 0.2568 0.6281 0.75625 0.0
C2380 C 0.22694 0.61641 0.70158 0.0
C2381 C 0.20861 0.63105 0.70324 0.0
C2382 C 0.23932 0.62753 0.73855 0.0
C2383 C 0.20565 0.64284 0.72341 0.0
C2384 C 0.25439 0.64155 0.7754 0.0
C2385 C 0.29382 0.61828 0.76762 0.0
N2386 N 0.22098 0.64101 0.74016 0.0
N2387 N 0.27632 0.61672 0.75318 0.0
H2388 H 0.34677 0.27305 0.80225 0.0
H2389 H 0.3904 0.23641 0.68123 0.0
H2390 H 0.38837 0.31448 0.75997 0.0
H2391 H 0.34669 0.19581 0.72215 0.0
H2392 H 0.39398 0.26288 0.71209 0.0
H2393 H 0.35073 0.24249 0.7754 0.0
C2394 C 0.35694 0.2757 0.78746 0.0
C2395 C 0.367 0.29656 0.78327 0.0
C2396 C 0.38376 0.24808 0.7144 0.0
C2397 C 0.3715 0.26155 0.75236 0.0
C2398 C 0.38171 0.2329 0.69676 0.0
C2399 C 0.36796 0.21393 0.69892 0.0
C2400 C 0.37193 0.24437 0.73439 0.0
C2401 C 0.35731 0.21026 0.71959 0.0
C2402 C 0.35916 0.2582 0.77211 0.0
C2403 C 0.3801 0.29883 0.76385 0.0
N2404 N 0.35934 0.22546 0.73642 0.0
N2405 N 0.38178 0.28164 0.74905 0.0
H2406 H 0.80452 0.34486 0.72536 0.0
H2407 H 0.68435 0.38961 0.76356 0.0
H2408 H 0.7629 0.38849 0.68537 0.0
H2409 H 0.72438 0.34394 0.80287 0.0
H2410 H 0.71525 0.39333 0.73717 0.0
H2411 H 0.77777 0.34831 0.75611 0.0
C2412 C 0.78992 0.35538 0.72308 0.0
C2413 C 0.78587 0.36617 0.70255 0.0
C2414 C 0.71737 0.38264 0.75167 0.0
C2415 C 0.75508 0.37007 0.73777 0.0
C2416 C 0.69969 0.3805 0.7668 0.0
C2417 C 0.70157 0.36619 0.78538 0.0
C2418 C 0.73712 0.37032 0.755 0.0
C2419 C 0.72203 0.35503 0.78872 0.0
C2420 C 0.77461 0.3573 0.74068 0.0
C2421 C 0.76667 0.37966 0.70075 0.0
N2422 N 0.7389 0.35715 0.77356 0.0
N2423 N 0.75193 0.38104 0.71802 0.0
H2424 H 0.65175 0.19233 0.27236 0.0
H2425 H 0.60579 0.31195 0.23412 0.0
H2426 H 0.60735 0.23331 0.31213 0.0
H2427 H 0.65245 0.27263 0.19527 0.0
H2428 H 0.60204 0.28085 0.26029 0.0
H2429 H 0.64802 0.21899 0.24158 0.0
C2430 C 0.64101 0.20677 0.27458 0.0
C2431 C 0.6301 0.2107 0.29506 0.0
C2432 C 0.61296 0.27894 0.24593 0.0
C2433 C 0.62587 0.24137 0.25983 0.0
C2434 C 0.61511 0.29672 0.23094 0.0
C2435 C 0.62972 0.2951 0.21258 0.0
C2436 C 0.62556 0.25936 0.24266 0.0
C2437 C 0.64115 0.27478 0.20927 0.0
C2438 C 0.63892 0.22202 0.25697 0.0
C2439 C 0.6163 0.22967 0.2968 0.0
N2440 N 0.639 0.25781 0.2243 0.0
N2441 N 0.61476 0.24438 0.27951 0.0
H2442 H 0.68438 0.60571 0.23362 0.0
H2443 H 0.80468 0.65024 0.27148 0.0
H2444 H 0.72493 0.65036 0.19369 0.0
H2445 H 0.76253 0.60775 0.31213 0.0
H2446 H 0.77812 0.6463 0.24064 0.0
H2447 H 0.7152 0.60209 0.26012 0.0
C2448 C 0.69982 0.6146 0.23027 0.0
C2449 C 0.70187 0.62862 0.21148 0.0
C2450 C 0.7748 0.63767 0.25624 0.0
C2451 C 0.73731 0.62463 0.24199 0.0
C2452 C 0.78999 0.63987 0.27389 0.0
C2453 C 0.78574 0.62956 0.29462 0.0
C2454 C 0.75517 0.62508 0.25929 0.0
C2455 C 0.76645 0.61623 0.29659 0.0
C2456 C 0.71745 0.61253 0.24546 0.0
C2457 C 0.72245 0.63951 0.208 0.0
N2458 N 0.75182 0.61456 0.27925 0.0
N2459 N 0.73926 0.63748 0.22323 0.0
H2460 H 0.39086 0.76158 0.31346 0.0
H2461 H 0.34552 0.72293 0.19374 0.0
H2462 H 0.34598 0.80121 0.27284 0.0
H2463 H 0.38853 0.68264 0.23572 0.0
H2464 H 0.34961 0.75391 0.22009 0.0
H2465 H 0.39434 0.73488 0.28279 0.0
C2466 C 0.3819 0.76483 0.29803 0.0
C2467 C 0.36784 0.78357 0.29592 0.0
C2468 C 0.35832 0.73836 0.22342 0.0
C2469 C 0.37168 0.75286 0.26068 0.0
C2470 C 0.35602 0.72063 0.20836 0.0
C2471 C 0.36645 0.69996 0.21262 0.0
C2472 C 0.37111 0.73545 0.24295 0.0
C2473 C 0.37996 0.69813 0.2318 0.0
C2474 C 0.38389 0.74952 0.2805 0.0
C2475 C 0.35685 0.78693 0.27537 0.0
N2476 N 0.38172 0.71554 0.24632 0.0
N2477 N 0.35881 0.77159 0.25865 0.0
H2478 H 0.23364 0.38846 0.31203 0.0
H2479 H 0.27131 0.34448 0.19145 0.0
H2480 H 0.19356 0.34419 0.27121 0.0
H2481 H 0.31195 0.38696 0.2336 0.0
H2482 H 0.24054 0.34826 0.21812 0.0
H2483 H 0.26015 0.39216 0.28122 0.0
C2484 C 0.23025 0.37967 0.29653 0.0
C2485 C 0.21142 0.36574 0.2944 0.0
C2486 C 0.25612 0.35692 0.22142 0.0
C2487 C 0.24193 0.36983 0.25898 0.0
C2488 C 0.27373 0.35481 0.20616 0.0
C2489 C 0.29444 0.36517 0.21038 0.0
C2490 C 0.2592 0.36946 0.24108 0.0
C2491 C 0.29643 0.37845 0.2297 0.0
C2492 C 0.24545 0.38179 0.27892 0.0
C2493 C 0.2079 0.35497 0.27376 0.0
N2494 N 0.27914 0.38003 0.2444 0.0
N2495 N 0.22313 0.35706 0.25696 0.0
H2496 H 0.68054 0.60628 0.76008 0.0
H2497 H 0.76914 0.59942 0.68619 0.0
H2498 H 0.72192 0.65077 0.79929 0.0
H2499 H 0.7945 0.65795 0.72017 0.0
H2500 H 0.7421 0.59417 0.7161 0.0
H2501 H 0.71077 0.60208 0.73348 0.0
C2502 C 0.69618 0.61487 0.76334 0.0
C2503 C 0.69853 0.62905 0.78194 0.0
C2504 C 0.75327 0.60837 0.71702 0.0
C2505 C 0.7339 0.62392 0.75148 0.0
C2506 C 0.76896 0.61123 0.69996 0.0
C2507 C 0.78385 0.62941 0.70042 0.0
C2508 C 0.75208 0.62411 0.73451 0.0
C2509 C 0.78321 0.64382 0.71898 0.0
C2510 C 0.71369 0.6123 0.74812 0.0
C2511 C 0.71925 0.63973 0.78516 0.0
N2512 N 0.76739 0.64101 0.73513 0.0
N2513 N 0.73601 0.63713 0.76996 0.0
H2514 H 0.34401 0.72571 0.8048 0.0
H2515 H 0.3892 0.76346 0.68472 0.0
H2516 H 0.38704 0.68526 0.76303 0.0
H2517 H 0.3439 0.80321 0.72472 0.0
H2518 H 0.39289 0.73721 0.71574 0.0
H2519 H 0.34807 0.75658 0.77826 0.0
C2520 C 0.35452 0.72335 0.79021 0.0
C2521 C 0.36494 0.70266 0.78603 0.0
C2522 C 0.3823 0.75178 0.71783 0.0
C2523 C 0.36955 0.738 0.7555 0.0
C2524 C 0.38018 0.76683 0.70009 0.0
C2525 C 0.36594 0.78547 0.70192 0.0
C2526 C 0.37002 0.75525 0.73758 0.0
C2527 C 0.35491 0.789 0.72241 0.0
C2528 C 0.35679 0.74102 0.77503 0.0
C2529 C 0.37846 0.70076 0.76687 0.0
N2530 N 0.35699 0.7739 0.73934 0.0
N2531 N 0.38019 0.71809 0.75225 0.0
H2532 H 0.27234 0.34656 0.80273 0.0
H2533 H 0.23451 0.39151 0.6826 0.0
H2534 H 0.31281 0.38967 0.76103 0.0
H2535 H 0.19479 0.34652 0.723 0.0
H2536 H 0.2609 0.39525 0.71352 0.0
H2537 H 0.24153 0.35059 0.77617 0.0
C2538 C 0.27472 0.35708 0.78814 0.0
C2539 C 0.29539 0.36753 0.78401 0.0
C2540 C 0.2463 0.38472 0.7157 0.0
C2541 C 0.26011 0.37211 0.75343 0.0
C2542 C 0.23117 0.38258 0.69803 0.0
C2543 C 0.2125 0.36841 0.70001 0.0
C2544 C 0.24285 0.37255 0.73553 0.0
C2545 C 0.20903 0.35747 0.72057 0.0
C2546 C 0.25708 0.35934 0.77295 0.0
C2547 C 0.29732 0.38107 0.76485 0.0
N2548 N 0.22419 0.35958 0.73742 0.0
N2549 N 0.28 0.38278 0.7502 0.0
H2550 H 0.65233 0.27183 0.80413 0.0
H2551 H 0.60726 0.23371 0.68413 0.0
H2552 H 0.60834 0.31168 0.76276 0.0
H2553 H 0.65325 0.19452 0.72391 0.0
H2554 H 0.60345 0.25994 0.71514 0.0
H2555 H 0.64881 0.24107 0.77742 0.0
C2556 C 0.64172 0.27407 0.78959 0.0
C2557 C 0.63086 0.29457 0.78559 0.0
C2558 C 0.61423 0.2455 0.71718 0.0
C2559 C 0.62687 0.25935 0.75485 0.0
C2560 C 0.61642 0.23047 0.69944 0.0
C2561 C 0.63086 0.21198 0.70123 0.0
C2562 C 0.62663 0.24216 0.73688 0.0
C2563 C 0.64207 0.20861 0.72165 0.0
C2564 C 0.63976 0.25647 0.77431 0.0
C2565 C 0.61724 0.29633 0.76648 0.0
N2566 N 0.63991 0.22369 0.73858 0.0
N2567 N 0.61582 0.27906 0.75175 0.0
H2568 H 0.68223 0.38957 0.23558 0.0
H2569 H 0.80323 0.34632 0.2728 0.0
H2570 H 0.72355 0.34615 0.19509 0.0
H2571 H 0.76057 0.38761 0.31412 0.0
H2572 H 0.77653 0.35026 0.24211 0.0
H2573 H 0.71294 0.39321 0.26223 0.0
C2574 C 0.69782 0.38096 0.23213 0.0
C2575 C 0.70013 0.36727 0.21314 0.0
C2576 C 0.77312 0.35863 0.25782 0.0
C2577 C 0.73543 0.3713 0.2438 0.0
C2578 C 0.78839 0.35642 0.2754 0.0
C2579 C 0.78406 0.3664 0.29627 0.0
C2580 C 0.75331 0.37088 0.26109 0.0
C2581 C 0.76457 0.37941 0.29847 0.0
C2582 C 0.71538 0.38305 0.24741 0.0
C2583 C 0.72087 0.35673 0.20956 0.0
N2584 N 0.74985 0.38108 0.28119 0.0
N2585 N 0.73761 0.35878 0.22485 0.0
H2586 H 0.65441 0.72355 0.19231 0.0
H2587 H 0.60631 0.76389 0.31041 0.0
H2588 H 0.60857 0.68497 0.23287 0.0
H2589 H 0.65404 0.80193 0.27157 0.0
H2590 H 0.60299 0.73739 0.27958 0.0
H2591 H 0.65056 0.75474 0.2185 0.0
C2592 C 0.64334 0.72168 0.20656 0.0
C2593 C 0.63203 0.70142 0.21051 0.0
C2594 C 0.61404 0.75164 0.2777 0.0
C2595 C 0.62765 0.73712 0.24063 0.0
C2596 C 0.61595 0.76683 0.29533 0.0
C2597 C 0.63073 0.78506 0.29378 0.0
C2598 C 0.62709 0.75455 0.25834 0.0
C2599 C 0.64257 0.78805 0.27365 0.0
C2600 C 0.64119 0.73952 0.22154 0.0
C2601 C 0.61784 0.70012 0.22922 0.0
N2602 N 0.64068 0.77281 0.25683 0.0
N2603 N 0.61622 0.71762 0.24365 0.0
H2604 H 0.31241 0.59805 0.22972 0.0
H2605 H 0.23678 0.60424 0.31705 0.0
H2606 H 0.27571 0.65365 0.20166 0.0
H2607 H 0.19696 0.64663 0.27406 0.0
H2608 H 0.26373 0.59978 0.2872 0.0
H2609 H 0.28256 0.5924 0.25673 0.0
C2610 C 0.29805 0.60913 0.22929 0.0
C2611 C 0.29681 0.62662 0.21364 0.0
C2612 C 0.24892 0.60959 0.28386 0.0
C2613 C 0.26269 0.62088 0.24532 0.0
C2614 C 0.23347 0.61231 0.30115 0.0
C2615 C 0.2146 0.62602 0.29824 0.0
C2616 C 0.24551 0.62062 0.26331 0.0
C2617 C 0.2113 0.636 0.27718 0.0
C2618 C 0.281 0.60605 0.24496 0.0
C2619 C 0.27753 0.64008 0.21355 0.0
N2620 N 0.22673 0.6333 0.26065 0.0
N2621 N 0.26139 0.63709 0.22932 0.0
H2622 H 0.34376 0.19094 0.27027 0.0
H2623 H 0.38943 0.31066 0.23177 0.0
H2624 H 0.38819 0.23206 0.30986 0.0
H2625 H 0.34281 0.27128 0.19295 0.0
H2626 H 0.39312 0.27965 0.25803 0.0
H2627 H 0.3472 0.21767 0.2395 0.0
C2628 C 0.35445 0.20542 0.27245 0.0
C2629 C 0.36546 0.20935 0.29289 0.0
C2630 C 0.38222 0.27769 0.24367 0.0
C2631 C 0.36937 0.24012 0.25765 0.0
C2632 C 0.3801 0.29543 0.22861 0.0
C2633 C 0.36554 0.29377 0.21021 0.0
C2634 C 0.36963 0.2581 0.24045 0.0
C2635 C 0.3541 0.27345 0.20696 0.0
C2636 C 0.35637 0.22072 0.25485 0.0
C2637 C 0.37917 0.22839 0.29457 0.0
N2638 N 0.3562 0.25652 0.22206 0.0
N2639 N 0.38056 0.24313 0.27729 0.0
H2640 H 0.68186 0.76174 0.60591 0.0
H2641 H 0.80261 0.72452 0.64985 0.0
H2642 H 0.72229 0.80158 0.65076 0.0
H2643 H 0.76024 0.68334 0.60811 0.0
H2644 H 0.7758 0.75514 0.64605 0.0
H2645 H 0.71273 0.7353 0.60227 0.0
C2646 C 0.69729 0.76508 0.61485 0.0
C2647 C 0.6993 0.78383 0.62892 0.0
C2648 C 0.77248 0.73947 0.63755 0.0
C2649 C 0.73478 0.75341 0.62487 0.0
C2650 C 0.78781 0.72195 0.63968 0.0
C2651 C 0.78358 0.70114 0.62953 0.0
C2652 C 0.75272 0.73621 0.62522 0.0
C2653 C 0.76415 0.69895 0.61645 0.0
C2654 C 0.71493 0.74992 0.61276 0.0
C2655 C 0.71984 0.78729 0.63988 0.0
N2656 N 0.74937 0.71618 0.61485 0.0
N2657 N 0.73668 0.77212 0.6378 0.0
H2658 H 0.68282 0.2337 0.38999 0.0
H2659 H 0.80343 0.27181 0.34651 0.0
H2660 H 0.72379 0.19405 0.34546 0.0
H2661 H 0.761 0.31235 0.3888 0.0
H2662 H 0.7768 0.24101 0.35009 0.0
H2663 H 0.71352 0.26031 0.39384 0.0
C2664 C 0.69833 0.23043 0.38117 0.0
C2665 C 0.70054 0.21169 0.36712 0.0
C2666 C 0.77343 0.25658 0.35876 0.0
C2667 C 0.73583 0.2423 0.37141 0.0
C2668 C 0.78866 0.2742 0.35675 0.0
C2669 C 0.78436 0.29489 0.36712 0.0
C2670 C 0.75369 0.25961 0.37119 0.0
C2671 C 0.76497 0.29684 0.3803 0.0
C2672 C 0.71588 0.24569 0.38338 0.0
C2673 C 0.72118 0.20832 0.35633 0.0
N2674 N 0.75028 0.27952 0.38177 0.0
N2675 N 0.73793 0.2236 0.35852 0.0
H2676 H 0.80439 0.72396 0.34341 0.0
H2677 H 0.68455 0.76263 0.38858 0.0
H2678 H 0.76309 0.68448 0.38778 0.0
H2679 H 0.72454 0.8018 0.34276 0.0
H2680 H 0.71541 0.73619 0.39226 0.0
H2681 H 0.77772 0.75479 0.34679 0.0
C2682 C 0.78988 0.72182 0.35407 0.0
C2683 C 0.78589 0.7014 0.3651 0.0
C2684 C 0.71753 0.75067 0.38154 0.0
C2685 C 0.75518 0.7367 0.36892 0.0
C2686 C 0.69988 0.76583 0.37943 0.0
C2687 C 0.70176 0.78439 0.3651 0.0
C2688 C 0.73726 0.75395 0.36917 0.0
C2689 C 0.7222 0.78767 0.35387 0.0
C2690 C 0.77461 0.73946 0.35595 0.0
C2691 C 0.7668 0.69976 0.37876 0.0
N2692 N 0.73904 0.77248 0.35596 0.0
N2693 N 0.7521 0.71706 0.38011 0.0
H2694 H 0.2731 0.80198 0.34477 0.0
H2695 H 0.23548 0.68243 0.39154 0.0
H2696 H 0.31325 0.76137 0.38921 0.0
H2697 H 0.19615 0.72158 0.34512 0.0
H2698 H 0.26167 0.71356 0.39489 0.0
H2699 H 0.24247 0.77518 0.34875 0.0
C2700 C 0.27544 0.78758 0.35556 0.0
C2701 C 0.29597 0.78381 0.36642 0.0
C2702 C 0.24721 0.71542 0.38412 0.0
C2703 C 0.26091 0.75298 0.37094 0.0
C2704 C 0.23219 0.69763 0.3822 0.0
C2705 C 0.21368 0.6992 0.36778 0.0
C2706 C 0.2438 0.73496 0.37148 0.0
C2707 C 0.21026 0.71947 0.35629 0.0
C2708 C 0.25791 0.77226 0.35779 0.0
C2709 C 0.29786 0.76489 0.38029 0.0
N2710 N 0.2253 0.73645 0.35821 0.0
N2711 N 0.28066 0.75011 0.38197 0.0
H2712 H 0.19256 0.27071 0.3422 0.0
H2713 H 0.3121 0.2317 0.38798 0.0
H2714 H 0.23367 0.31001 0.38691 0.0
H2715 H 0.2722 0.19262 0.34202 0.0
H2716 H 0.2813 0.25825 0.39146 0.0
H2717 H 0.2192 0.23985 0.34562 0.0
C2718 C 0.20703 0.27282 0.35294 0.0
C2719 C 0.21096 0.29318 0.36406 0.0
C2720 C 0.27919 0.24377 0.38076 0.0
C2721 C 0.24163 0.25784 0.36794 0.0
C2722 C 0.2968 0.22855 0.37876 0.0
C2723 C 0.29493 0.20997 0.36445 0.0
C2724 C 0.25951 0.24054 0.36829 0.0
C2725 C 0.27454 0.20675 0.35313 0.0
C2726 C 0.22227 0.25516 0.35484 0.0
C2727 C 0.22999 0.29477 0.37782 0.0
N2728 N 0.25773 0.222 0.35511 0.0
N2729 N 0.24467 0.27744 0.3792 0.0
H2730 H 0.27327 0.19402 0.64885 0.0
H2731 H 0.23524 0.31471 0.60563 0.0
H2732 H 0.31371 0.23643 0.60641 0.0
H2733 H 0.19574 0.27374 0.6503 0.0
H2734 H 0.26171 0.28393 0.60152 0.0
H2735 H 0.24246 0.22062 0.64527 0.0
C2736 C 0.27564 0.20878 0.63857 0.0
C2737 C 0.29631 0.2131 0.62818 0.0
C2738 C 0.24715 0.28159 0.61207 0.0
C2739 C 0.26102 0.24372 0.62413 0.0
C2740 C 0.23198 0.29919 0.61443 0.0
C2741 C 0.21333 0.29699 0.62861 0.0
C2742 C 0.24377 0.26161 0.62401 0.0
C2743 C 0.20996 0.27633 0.63937 0.0
C2744 C 0.258 0.22399 0.63657 0.0
C2745 C 0.29822 0.23246 0.61494 0.0
N2746 N 0.22515 0.25954 0.63702 0.0
N2747 N 0.2809 0.24714 0.61349 0.0
H2748 H 0.76405 0.31265 0.60706 0.0
H2749 H 0.7253 0.19288 0.65219 0.0
H2750 H 0.80293 0.27275 0.65323 0.0
H2751 H 0.68589 0.23427 0.60781 0.0
H2752 H 0.75622 0.21942 0.64869 0.0
H2753 H 0.73777 0.2817 0.60312 0.0
C2754 C 0.76722 0.29733 0.61624 0.0
C2755 C 0.78562 0.29549 0.63076 0.0
C2756 C 0.74088 0.22257 0.63955 0.0
C2757 C 0.75539 0.25991 0.62638 0.0
C2758 C 0.72319 0.20739 0.6415 0.0
C2759 C 0.70277 0.21146 0.63053 0.0
C2760 C 0.73815 0.242 0.62657 0.0
C2761 C 0.70117 0.23051 0.61681 0.0
C2762 C 0.75215 0.27962 0.61396 0.0
C2763 C 0.7889 0.27506 0.64199 0.0
N2764 N 0.71852 0.24514 0.6154 0.0
N2765 N 0.77379 0.25817 0.63974 0.0
H2766 H 0.27093 0.80381 0.65434 0.0
H2767 H 0.23048 0.68487 0.6082 0.0
H2768 H 0.30964 0.76239 0.60941 0.0
H2769 H 0.1923 0.7246 0.65506 0.0
H2770 H 0.25726 0.71545 0.60474 0.0
H2771 H 0.23983 0.77742 0.65111 0.0
C2772 C 0.27286 0.78932 0.64359 0.0
C2773 C 0.29313 0.78523 0.63234 0.0
C2774 C 0.24293 0.71758 0.61564 0.0
C2775 C 0.25751 0.75486 0.62867 0.0
C2776 C 0.22757 0.70009 0.61763 0.0
C2777 C 0.20918 0.70198 0.63218 0.0
C2778 C 0.24003 0.73715 0.62836 0.0
C2779 C 0.20628 0.72227 0.64376 0.0
C2780 C 0.25506 0.77423 0.6418 0.0
C2781 C 0.29448 0.76619 0.61859 0.0
N2782 N 0.22166 0.73896 0.64178 0.0
N2783 N 0.27702 0.75166 0.61731 0.0
H2784 H 0.14728 0.20434 0.40718 0.0
H2785 H 0.09071 0.28942 0.34649 0.0
H2786 H 0.08383 0.18602 0.37817 0.0
H2787 H 0.11632 0.30827 0.41126 0.0
H2788 H 0.08239 0.25211 0.36104 0.0
H2789 H 0.1327 0.24183 0.41454 0.0
C2790 C 0.12995 0.20802 0.40325 0.0
C2791 C 0.11677 0.1924 0.39183 0.0
C2792 C 0.08893 0.26466 0.37239 0.0
C2793 C 0.10038 0.23525 0.39916 0.0
C2794 C 0.09373 0.28589 0.36404 0.0
C2795 C 0.10445 0.30161 0.37768 0.0
C2796 C 0.09596 0.25897 0.39411 0.0
C2797 C 0.10815 0.29639 0.40026 0.0
C2798 C 0.12158 0.22936 0.40748 0.0
C2799 C 0.09447 0.19782 0.38692 0.0
N2800 N 0.10472 0.27513 0.40762 0.0
N2801 N 0.08718 0.21917 0.3898 0.0
H2802 H 0.68821 0.12046 0.41299 0.0
H2803 H 0.80891 0.08199 0.37426 0.0
H2804 H 0.70378 0.08808 0.35043 0.0
H2805 H 0.79301 0.14498 0.40562 0.0
H2806 H 0.77076 0.06887 0.38224 0.0
H2807 H 0.72651 0.11294 0.42593 0.0
C2808 C 0.69936 0.11073 0.40248 0.0
C2809 C 0.69318 0.10508 0.38057 0.0
C2810 C 0.77603 0.08513 0.38831 0.0
C2811 C 0.73647 0.09642 0.39518 0.0
C2812 C 0.79773 0.09259 0.38385 0.0
C2813 C 0.80376 0.11465 0.38908 0.0
C2814 C 0.76065 0.09982 0.39829 0.0
C2815 C 0.78873 0.12793 0.40118 0.0
C2816 C 0.72114 0.10654 0.40983 0.0
C2817 C 0.70816 0.09283 0.36738 0.0
N2818 N 0.76766 0.12042 0.4051 0.0
N2819 N 0.72933 0.08918 0.37477 0.0
H2820 H 0.90755 0.70381 0.34885 0.0
H2821 H 0.84791 0.79024 0.40612 0.0
H2822 H 0.8783 0.68635 0.41244 0.0
H2823 H 0.91215 0.80809 0.37858 0.0
H2824 H 0.86217 0.75278 0.41423 0.0
H2825 H 0.91509 0.74142 0.36302 0.0
C2826 C 0.90361 0.7077 0.36613 0.0
C2827 C 0.8921 0.69227 0.37948 0.0
C2828 C 0.8735 0.76513 0.4073 0.0
C2829 C 0.89963 0.73528 0.3954 0.0
C2830 C 0.86531 0.78646 0.40263 0.0
C2831 C 0.87885 0.80195 0.39145 0.0
C2832 C 0.89493 0.75912 0.39969 0.0
C2833 C 0.90124 0.7964 0.38713 0.0
C2834 C 0.90792 0.72912 0.37427 0.0
C2835 C 0.88714 0.69798 0.40169 0.0
N2836 N 0.9084 0.77506 0.39048 0.0
N2837 N 0.89015 0.71939 0.40875 0.0
H2838 H 0.18734 0.91282 0.37489 0.0
H2839 H 0.30904 0.87586 0.41233 0.0
H2840 H 0.20398 0.85006 0.40638 0.0
H2841 H 0.2922 0.90572 0.34882 0.0
H2842 H 0.27079 0.88326 0.42547 0.0
H2843 H 0.22567 0.92598 0.38183 0.0
C2844 C 0.19874 0.9023 0.38432 0.0
C2845 C 0.19283 0.88028 0.38988 0.0
C2846 C 0.27586 0.88915 0.40907 0.0
C2847 C 0.23614 0.89517 0.39793 0.0
C2848 C 0.29762 0.88502 0.4016 0.0
C2849 C 0.30345 0.88998 0.37942 0.0
C2850 C 0.26023 0.89857 0.39429 0.0
C2851 C 0.2881 0.90151 0.36598 0.0
C2852 C 0.22054 0.90978 0.38818 0.0
C2853 C 0.20814 0.86709 0.40172 0.0
N2854 N 0.26699 0.90514 0.37353 0.0
N2855 N 0.2293 0.87462 0.40508 0.0
H2856 H 0.08797 0.70642 0.64915 0.0
H2857 H 0.14589 0.7909 0.58881 0.0
H2858 H 0.11476 0.68734 0.58494 0.0
H2859 H 0.08249 0.80971 0.61763 0.0
H2860 H 0.131 0.75359 0.58125 0.0
H2861 H 0.07985 0.74365 0.63431 0.0
C2862 C 0.09129 0.70989 0.63165 0.0
C2863 C 0.1023 0.69413 0.61827 0.0
C2864 C 0.11996 0.76613 0.58832 0.0
C2865 C 0.09405 0.73669 0.60152 0.0
C2866 C 0.12851 0.78737 0.59266 0.0
C2867 C 0.11543 0.80306 0.6041 0.0
C2868 C 0.09868 0.7604 0.59653 0.0
C2869 C 0.09306 0.79784 0.60888 0.0
C2870 C 0.08661 0.73107 0.62312 0.0
C2871 C 0.10637 0.69926 0.59574 0.0
N2872 N 0.08559 0.77657 0.60588 0.0
N2873 N 0.10305 0.72048 0.58824 0.0
H2874 H 0.30923 0.1214 0.58273 0.0
H2875 H 0.18837 0.08298 0.62128 0.0
H2876 H 0.29339 0.09092 0.64618 0.0
H2877 H 0.20403 0.14595 0.58972 0.0
H2878 H 0.22674 0.0702 0.61388 0.0
H2879 H 0.27095 0.11361 0.5699 0.0
C2880 C 0.29802 0.11204 0.5935 0.0
C2881 C 0.30413 0.107 0.61559 0.0
C2882 C 0.22138 0.08637 0.60762 0.0
C2883 C 0.26088 0.09797 0.60108 0.0
C2884 C 0.19956 0.09363 0.61176 0.0
C2885 C 0.19337 0.1156 0.6063 0.0
C2886 C 0.23673 0.10114 0.59772 0.0
C2887 C 0.20842 0.12896 0.59431 0.0
C2888 C 0.27626 0.10768 0.5862 0.0
C2889 C 0.28907 0.09519 0.62909 0.0
N2890 N 0.22961 0.12164 0.59069 0.0
N2891 N 0.26793 0.09135 0.62173 0.0
H2892 H 0.88074 0.31071 0.5835 0.0
H2893 H 0.84946 0.2039 0.58847 0.0
H2894 H 0.90447 0.28965 0.64833 0.0
H2895 H 0.91251 0.18814 0.61974 0.0
H2896 H 0.86325 0.24149 0.58031 0.0
H2897 H 0.88774 0.27282 0.56912 0.0
C2898 C 0.8884 0.29838 0.5944 0.0
C2899 C 0.89163 0.30294 0.61721 0.0
C2900 C 0.87456 0.22953 0.58793 0.0
C2901 C 0.8994 0.26003 0.60108 0.0
C2902 C 0.8666 0.20813 0.59267 0.0
C2903 C 0.87987 0.19319 0.60488 0.0
C2904 C 0.89549 0.23617 0.59641 0.0
C2905 C 0.90185 0.19936 0.61027 0.0
C2906 C 0.89222 0.2768 0.58624 0.0
C2907 C 0.90143 0.28652 0.63073 0.0
N2908 N 0.9087 0.22077 0.60681 0.0
N2909 N 0.90465 0.26559 0.62254 0.0
H2910 H 0.80863 0.91338 0.62129 0.0
H2911 H 0.68727 0.87606 0.58315 0.0
H2912 H 0.79238 0.85065 0.58957 0.0
H2913 H 0.70368 0.90614 0.64664 0.0
H2914 H 0.72557 0.88356 0.57018 0.0
H2915 H 0.77032 0.92647 0.61408 0.0
C2916 C 0.79732 0.90285 0.61176 0.0
C2917 C 0.80333 0.88086 0.60621 0.0
C2918 C 0.72039 0.88947 0.58653 0.0
C2919 C 0.76004 0.89566 0.59787 0.0
C2920 C 0.69862 0.88528 0.5939 0.0
C2921 C 0.69265 0.89029 0.61604 0.0
C2922 C 0.73592 0.89899 0.60137 0.0
C2923 C 0.70788 0.9019 0.62952 0.0
C2924 C 0.77554 0.91029 0.60774 0.0
C2925 C 0.78814 0.86766 0.59422 0.0
N2926 N 0.72903 0.90558 0.62208 0.0
N2927 N 0.76698 0.87515 0.59072 0.0
H2928 H 0.40534 0.14865 0.20435 0.0
H2929 H 0.34873 0.08797 0.28994 0.0
H2930 H 0.37878 0.08421 0.1857 0.0
H2931 H 0.41236 0.1169 0.30779 0.0
H2932 H 0.36297 0.08076 0.25229 0.0
H2933 H 0.41365 0.13403 0.24164 0.0
C2934 C 0.40209 0.13115 0.20792 0.0
C2935 C 0.39112 0.11764 0.19226 0.0
C2936 C 0.3742 0.08778 0.26468 0.0
C2937 C 0.39962 0.10113 0.23487 0.0
C2938 C 0.36603 0.09191 0.28612 0.0
C2939 C 0.37936 0.10326 0.30167 0.0
C2940 C 0.39535 0.0961 0.25863 0.0
C2941 C 0.4016 0.1082 0.29606 0.0
C2942 C 0.40689 0.12275 0.22913 0.0
C2943 C 0.38715 0.09512 0.19753 0.0
N2944 N 0.4087 0.10539 0.27463 0.0
N2945 N 0.3906 0.08773 0.21877 0.0
H2946 H 0.9064 0.34883 0.29255 0.0
H2947 H 0.84708 0.40541 0.20432 0.0
H2948 H 0.87601 0.41219 0.30882 0.0
H2949 H 0.91141 0.37731 0.18773 0.0
H2950 H 0.86073 0.41354 0.24201 0.0
H2951 H 0.91389 0.36252 0.25473 0.0
C2952 C 0.90218 0.36598 0.28835 0.0
C2953 C 0.89043 0.37939 0.30352 0.0
C2954 C 0.87222 0.40646 0.22989 0.0
C2955 C 0.8979 0.39474 0.26027 0.0
C2956 C 0.86439 0.4018 0.20843 0.0
C2957 C 0.87813 0.3905 0.1932 0.0
C2958 C 0.8935 0.39876 0.23631 0.0
C2959 C 0.90036 0.38599 0.19919 0.0
C2960 C 0.90646 0.37383 0.26681 0.0
C2961 C 0.88508 0.40141 0.2974 0.0
N2962 N 0.90717 0.38937 0.22064 0.0
N2963 N 0.8881 0.40817 0.27589 0.0
H2964 H 0.5842 0.87667 0.30868 0.0
H2965 H 0.62007 0.91238 0.18628 0.0
H2966 H 0.64725 0.90677 0.29066 0.0
H2967 H 0.58961 0.8495 0.20428 0.0
H2968 H 0.61301 0.92621 0.22434 0.0
H2969 H 0.57039 0.88381 0.27062 0.0
C2970 C 0.59468 0.88584 0.29704 0.0
C2971 C 0.61695 0.89089 0.30246 0.0
C2972 C 0.60689 0.90982 0.21955 0.0
C2973 C 0.60131 0.8992 0.25947 0.0
C2974 C 0.61083 0.90195 0.19791 0.0
C2975 C 0.60565 0.87972 0.19248 0.0
C2976 C 0.59744 0.89537 0.23549 0.0
C2977 C 0.59402 0.86667 0.20808 0.0
C2978 C 0.58682 0.88983 0.2754 0.0
C2979 C 0.63005 0.90245 0.28686 0.0
N2980 N 0.59059 0.87459 0.22909 0.0
N2981 N 0.62214 0.90594 0.26585 0.0
H2982 H 0.09065 0.64493 0.29446 0.0
H2983 H 0.1481 0.58934 0.20316 0.0
H2984 H 0.12297 0.582 0.30847 0.0
H2985 H 0.08401 0.61932 0.18918 0.0
H2986 H 0.13546 0.58071 0.24108 0.0
H2987 H 0.08239 0.63192 0.25658 0.0
C2988 C 0.09515 0.62799 0.28976 0.0
C2989 C 0.10761 0.61452 0.30431 0.0
C2990 C 0.12377 0.58832 0.22949 0.0
C2991 C 0.09927 0.59995 0.26093 0.0
C2992 C 0.13102 0.59324 0.20788 0.0
C2993 C 0.1171 0.60519 0.19332 0.0
C2994 C 0.1029 0.59641 0.23675 0.0
C2995 C 0.09519 0.61011 0.20011 0.0
C2996 C 0.09045 0.62052 0.26817 0.0
C2997 C 0.11332 0.5928 0.29755 0.0
N2998 N 0.08898 0.60643 0.22169 0.0
N2999 N 0.10982 0.58643 0.27599 0.0
H3000 H 0.40574 0.84622 0.78988 0.0
H3001 H 0.35067 0.908 0.70343 0.0
H3002 H 0.37999 0.91121 0.80771 0.0
H3003 H 0.41299 0.87606 0.68617 0.0
H3004 H 0.36516 0.91523 0.74097 0.0
H3005 H 0.41447 0.86031 0.7525 0.0
C3006 C 0.40275 0.86372 0.7861 0.0
C3007 C 0.3919 0.87755 0.80157 0.0
C3008 C 0.3761 0.90753 0.72873 0.0
C3009 C 0.40087 0.89349 0.75882 0.0
C3010 C 0.36779 0.9034 0.70734 0.0
C3011 C 0.38062 0.89122 0.69201 0.0
C3012 C 0.39685 0.89837 0.73496 0.0
C3013 C 0.40262 0.88543 0.69773 0.0
C3014 C 0.40779 0.87182 0.76483 0.0
C3015 C 0.38827 0.90007 0.79604 0.0
N3016 N 0.4098 0.88828 0.71912 0.0
N3017 N 0.39196 0.90718 0.77474 0.0
H3018 H 0.14747 0.40475 0.79288 0.0
H3019 H 0.08968 0.34887 0.70254 0.0
H3020 H 0.08352 0.37495 0.80786 0.0
H3021 H 0.12048 0.41244 0.688 0.0
H3022 H 0.08163 0.36181 0.7405 0.0
H3023 H 0.1343 0.41327 0.7551 0.0
C3024 C 0.13032 0.40085 0.7884 0.0
C3025 C 0.11657 0.389 0.8032 0.0
C3026 C 0.08928 0.37334 0.72877 0.0
C3027 C 0.10176 0.39768 0.75997 0.0
C3028 C 0.09387 0.36592 0.70714 0.0
C3029 C 0.10589 0.3796 0.69242 0.0
C3030 C 0.09779 0.3941 0.73586 0.0
C3031 C 0.1112 0.40146 0.69905 0.0
C3032 C 0.12276 0.40572 0.76689 0.0
C3033 C 0.09456 0.38408 0.79674 0.0
N3034 N 0.10785 0.40781 0.72064 0.0
N3035 N 0.08805 0.38771 0.77524 0.0
H3036 H 0.58927 0.1492 0.79115 0.0
H3037 H 0.64672 0.09006 0.70412 0.0
H3038 H 0.61668 0.08468 0.80823 0.0
H3039 H 0.58355 0.12025 0.68675 0.0
H3040 H 0.63235 0.08233 0.74162 0.0
H3041 H 0.58127 0.13546 0.75347 0.0
C3042 C 0.59273 0.13184 0.78715 0.0
C3043 C 0.60385 0.11808 0.8025 0.0
C3044 C 0.62123 0.08977 0.72936 0.0
C3045 C 0.59577 0.1026 0.75942 0.0
C3046 C 0.62948 0.09419 0.708 0.0
C3047 C 0.61632 0.10598 0.69263 0.0
C3048 C 0.60016 0.09822 0.73553 0.0
C3049 C 0.59416 0.11118 0.69833 0.0
C3050 C 0.58814 0.12395 0.7657 0.0
C3051 C 0.60816 0.09576 0.79666 0.0
N3052 N 0.58699 0.10803 0.71969 0.0
N3053 N 0.60489 0.0889 0.77522 0.0
H3054 H 0.87914 0.58378 0.68628 0.0
H3055 H 0.8495 0.58979 0.79369 0.0
H3056 H 0.9032 0.6489 0.70594 0.0
H3057 H 0.91248 0.62188 0.80793 0.0
H3058 H 0.86264 0.58143 0.75591 0.0
H3059 H 0.88651 0.57003 0.72436 0.0
C3060 C 0.88695 0.59486 0.69834 0.0
C3061 C 0.8902 0.61757 0.69333 0.0
C3062 C 0.87409 0.58929 0.76758 0.0
C3063 C 0.89836 0.60218 0.73646 0.0
C3064 C 0.8665 0.59414 0.78909 0.0
C3065 C 0.87994 0.60659 0.80367 0.0
C3066 C 0.89482 0.59788 0.76046 0.0
C3067 C 0.90172 0.6122 0.797 0.0
C3068 C 0.89097 0.58707 0.72002 0.0
C3069 C 0.90017 0.63136 0.70942 0.0
N3070 N 0.9082 0.60859 0.7755 0.0
N3071 N 0.90359 0.62353 0.73046 0.0
H3072 H 0.18633 0.37708 0.08375 0.0
H3073 H 0.30891 0.41236 0.11947 0.0
H3074 H 0.20457 0.4068 0.14692 0.0
H3075 H 0.29078 0.34974 0.08855 0.0
H3076 H 0.27081 0.42624 0.1127 0.0
H3077 H 0.22438 0.38416 0.06991 0.0
C3078 C 0.19802 0.38614 0.09426 0.0
C3079 C 0.19266 0.3911 0.11656 0.0
C3080 C 0.27557 0.4099 0.10642 0.0
C3081 C 0.23564 0.39936 0.10088 0.0
C3082 C 0.29724 0.402 0.1102 0.0
C3083 C 0.30264 0.37982 0.10481 0.0
C3084 C 0.25961 0.39554 0.09692 0.0
C3085 C 0.287 0.36687 0.09313 0.0
C3086 C 0.21966 0.3901 0.08639 0.0
C3087 C 0.20832 0.40254 0.1297 0.0
N3088 N 0.26598 0.37482 0.08986 0.0
N3089 N 0.22932 0.406 0.12176 0.0
H3090 H 0.20454 0.58956 0.84936 0.0
H3091 H 0.29049 0.64867 0.90712 0.0
H3092 H 0.18664 0.61826 0.91308 0.0
H3093 H 0.30845 0.58441 0.87969 0.0
H3094 H 0.25306 0.63436 0.91525 0.0
H3095 H 0.24202 0.5818 0.86377 0.0
C3096 C 0.20831 0.59336 0.8667 0.0
C3097 C 0.19281 0.60477 0.88002 0.0
C3098 C 0.26544 0.62303 0.90835 0.0
C3099 C 0.23565 0.59697 0.89624 0.0
C3100 C 0.28675 0.63125 0.90368 0.0
C3101 C 0.30225 0.61773 0.89249 0.0
C3102 C 0.25946 0.6016 0.90073 0.0
C3103 C 0.29675 0.59532 0.88824 0.0
C3104 C 0.22964 0.5889 0.87497 0.0
C3105 C 0.19835 0.60951 0.90233 0.0
N3106 N 0.27543 0.58813 0.89157 0.0
N3107 N 0.21969 0.60638 0.90954 0.0
H3108 H 0.40678 0.20337 0.84853 0.0
H3109 H 0.34939 0.29307 0.90594 0.0
H3110 H 0.37635 0.18814 0.91213 0.0
H3111 H 0.41291 0.30833 0.87538 0.0
H3112 H 0.36273 0.25528 0.91407 0.0
H3113 H 0.4149 0.24118 0.86181 0.0
C3114 C 0.40266 0.2078 0.86564 0.0
C3115 C 0.39073 0.19292 0.87924 0.0
C3116 C 0.37415 0.26712 0.90644 0.0
C3117 C 0.39894 0.2362 0.89416 0.0
C3118 C 0.36649 0.28866 0.9018 0.0
C3119 C 0.38005 0.30353 0.88983 0.0
C3120 C 0.39503 0.26027 0.89804 0.0
C3121 C 0.40201 0.29715 0.88461 0.0
C3122 C 0.4073 0.22934 0.87327 0.0
C3123 C 0.38555 0.19932 0.9012 0.0
N3124 N 0.4086 0.27564 0.88801 0.0
N3125 N 0.38894 0.22084 0.90776 0.0
H3126 H 0.79112 0.40761 0.84966 0.0
H3127 H 0.70457 0.34873 0.90733 0.0
H3128 H 0.80847 0.37813 0.91318 0.0
H3129 H 0.68713 0.41273 0.87897 0.0
H3130 H 0.74197 0.36298 0.91567 0.0
H3131 H 0.75368 0.41564 0.86398 0.0
C3132 C 0.78724 0.40369 0.86695 0.0
C3133 C 0.80257 0.39198 0.88023 0.0
C3134 C 0.72971 0.37428 0.90851 0.0
C3135 C 0.75974 0.40008 0.89634 0.0
C3136 C 0.70842 0.36609 0.90372 0.0
C3137 C 0.69308 0.37955 0.89223 0.0
C3138 C 0.73587 0.3956 0.90069 0.0
C3139 C 0.69871 0.40188 0.88776 0.0
C3140 C 0.76593 0.4083 0.87518 0.0
C3141 C 0.7969 0.3871 0.90247 0.0
N3142 N 0.72003 0.40902 0.89122 0.0
N3143 N 0.77556 0.3904 0.90963 0.0
H3144 H 0.61947 0.80874 0.91211 0.0
H3145 H 0.58232 0.68723 0.87452 0.0
H3146 H 0.58793 0.79231 0.84934 0.0
H3147 H 0.64557 0.70416 0.90483 0.0
H3148 H 0.56893 0.72535 0.88216 0.0
H3149 H 0.61236 0.77043 0.92524 0.0
C3150 C 0.60998 0.7974 0.90159 0.0
C3151 C 0.60448 0.80335 0.87956 0.0
C3152 C 0.58532 0.72032 0.88809 0.0
C3153 C 0.59626 0.76005 0.89441 0.0
C3154 C 0.59294 0.69864 0.88382 0.0
C3155 C 0.61512 0.69289 0.88885 0.0
C3156 C 0.59997 0.73596 0.89771 0.0
C3157 C 0.62841 0.7082 0.90057 0.0
C3158 C 0.60603 0.77561 0.90905 0.0
C3159 C 0.59255 0.78811 0.86637 0.0
N3160 N 0.62073 0.72925 0.90433 0.0
N3161 N 0.58912 0.76695 0.87388 0.0
H3162 H 0.68666 0.58128 0.12105 0.0
H3163 H 0.80857 0.6168 0.08389 0.0
H3164 H 0.70419 0.64308 0.0882 0.0
H3165 H 0.79063 0.58793 0.14756 0.0
H3166 H 0.77069 0.60883 0.07008 0.0
H3167 H 0.72464 0.56723 0.114 0.0
C3168 C 0.69816 0.59138 0.1113 0.0
C3169 C 0.69266 0.61343 0.10545 0.0
C3170 C 0.77546 0.60326 0.08667 0.0
C3171 C 0.73557 0.59755 0.09729 0.0
C3172 C 0.79699 0.60775 0.09455 0.0
C3173 C 0.80235 0.6033 0.11695 0.0
C3174 C 0.75957 0.59403 0.10131 0.0
C3175 C 0.78685 0.59183 0.13025 0.0
C3176 C 0.71976 0.58339 0.10735 0.0
C3177 C 0.70807 0.62606 0.09314 0.0
N3178 N 0.76595 0.58788 0.12232 0.0
N3179 N 0.72905 0.61807 0.08976 0.0
H3180 H 0.40561 0.79298 0.14593 0.0
H3181 H 0.3462 0.7032 0.09148 0.0
H3182 H 0.37375 0.80801 0.08299 0.0
H3183 H 0.41118 0.68774 0.11874 0.0
H3184 H 0.3592 0.741 0.08279 0.0
H3185 H 0.41316 0.75502 0.13268 0.0
C3186 C 0.40108 0.78848 0.12895 0.0
C3187 C 0.38893 0.80335 0.11554 0.0
C3188 C 0.37096 0.72911 0.08981 0.0
C3189 C 0.39646 0.75993 0.10071 0.0
C3190 C 0.3635 0.70758 0.09479 0.0
C3191 C 0.37763 0.69264 0.10599 0.0
C3192 C 0.39227 0.73588 0.09711 0.0
C3193 C 0.39983 0.69898 0.11013 0.0
C3194 C 0.40539 0.76686 0.12135 0.0
C3195 C 0.38316 0.79685 0.09375 0.0
N3196 N 0.40629 0.72048 0.10644 0.0
N3197 N 0.38623 0.77526 0.08726 0.0
H3198 H 0.5876 0.20201 0.14596 0.0
H3199 H 0.58343 0.30964 0.11608 0.0
H3200 H 0.62052 0.18754 0.08346 0.0
H3201 H 0.64913 0.28887 0.09459 0.0
H3202 H 0.56938 0.27177 0.10829 0.0
H3203 H 0.57991 0.23993 0.13276 0.0
C3204 C 0.59224 0.20658 0.12902 0.0
C3205 C 0.60476 0.19191 0.11576 0.0
C3206 C 0.58665 0.27583 0.10448 0.0
C3207 C 0.59687 0.23525 0.10087 0.0
C3208 C 0.59463 0.29738 0.10877 0.0
C3209 C 0.61753 0.30202 0.10637 0.0
C3210 C 0.60174 0.25916 0.09763 0.0
C3211 C 0.63144 0.28568 0.09699 0.0
C3212 C 0.58779 0.22818 0.12141 0.0
C3213 C 0.61077 0.19854 0.09408 0.0
N3214 N 0.62338 0.26479 0.09326 0.0
N3215 N 0.60758 0.22012 0.08761 0.0
H3216 H 0.91299 0.80961 0.621 0.0
H3217 H 0.87557 0.6882 0.58344 0.0
H3218 H 0.85011 0.79308 0.58974 0.0
H3219 H 0.90603 0.70488 0.64669 0.0
H3220 H 0.88313 0.72638 0.5702 0.0
H3221 H 0.92621 0.77138 0.61366 0.0
C3222 C 0.90245 0.79826 0.61155 0.0
C3223 C 0.88037 0.80415 0.60619 0.0
C3224 C 0.88912 0.72128 0.58655 0.0
C3225 C 0.89533 0.76096 0.59768 0.0
C3226 C 0.88488 0.69957 0.59408 0.0
C3227 C 0.88995 0.69373 0.61624 0.0
C3228 C 0.89874 0.73687 0.60124 0.0
C3229 C 0.90171 0.709 0.62956 0.0
C3230 C 0.90996 0.77653 0.60745 0.0
C3231 C 0.86716 0.78892 0.59427 0.0
N3232 N 0.90543 0.73008 0.62196 0.0
N3233 N 0.87473 0.76781 0.5907 0.0
H3234 H 0.29101 0.90682 0.64811 0.0
H3235 H 0.18482 0.91268 0.61557 0.0
H3236 H 0.30784 0.87812 0.58411 0.0
H3237 H 0.20655 0.84817 0.59159 0.0
H3238 H 0.22261 0.92743 0.60888 0.0
H3239 H 0.25357 0.91528 0.6341 0.0
C3240 C 0.28704 0.90322 0.63078 0.0
C3241 C 0.30222 0.89162 0.61725 0.0
C3242 C 0.21878 0.91032 0.60422 0.0
C3243 C 0.25944 0.90046 0.60135 0.0
C3244 C 0.19727 0.90194 0.6079 0.0
C3245 C 0.19295 0.8791 0.60455 0.0
C3246 C 0.23571 0.89567 0.59706 0.0
C3247 C 0.20952 0.86579 0.59473 0.0
C3248 C 0.26574 0.90816 0.62269 0.0
C3249 C 0.2964 0.88706 0.59498 0.0
N3250 N 0.23037 0.87419 0.59166 0.0
N3251 N 0.27507 0.89065 0.58796 0.0
H3252 H 0.14692 0.2017 0.58829 0.0
H3253 H 0.11781 0.3096 0.58263 0.0
H3254 H 0.08416 0.18808 0.6211 0.0
H3255 H 0.09407 0.2901 0.64793 0.0
H3256 H 0.11047 0.27146 0.56906 0.0
H3257 H 0.13408 0.23965 0.58016 0.0
C3258 C 0.13001 0.20647 0.59282 0.0
C3259 C 0.11655 0.192 0.6054 0.0
C3260 C 0.1061 0.27583 0.58611 0.0
C3261 C 0.10206 0.23541 0.59697 0.0
C3262 C 0.1101 0.29756 0.5938 0.0
C3263 C 0.10689 0.30265 0.61649 0.0
C3264 C 0.09876 0.25944 0.60129 0.0
C3265 C 0.09705 0.28656 0.6304 0.0
C3266 C 0.1226 0.22809 0.58812 0.0
C3267 C 0.09493 0.1989 0.61129 0.0
N3268 N 0.09363 0.2655 0.62265 0.0
N3269 N 0.08864 0.22049 0.6078 0.0
H3270 H 0.80925 0.08376 0.61981 0.0
H3271 H 0.68727 0.11999 0.58323 0.0
H3272 H 0.79157 0.14675 0.58937 0.0
H3273 H 0.70481 0.08962 0.6463 0.0
H3274 H 0.72533 0.11262 0.56958 0.0
H3275 H 0.77123 0.06999 0.61239 0.0
C3276 C 0.7977 0.09423 0.61051 0.0
C3277 C 0.80319 0.11648 0.60544 0.0
C3278 C 0.72044 0.10659 0.58598 0.0
C3279 C 0.76025 0.10088 0.59682 0.0
C3280 C 0.6988 0.11071 0.59375 0.0
C3281 C 0.69326 0.10566 0.61599 0.0
C3282 C 0.73625 0.0971 0.60052 0.0
C3283 C 0.70871 0.09395 0.62913 0.0
C3284 C 0.77609 0.08639 0.60636 0.0
C3285 C 0.78771 0.12957 0.59371 0.0
N3286 N 0.72972 0.09035 0.6213 0.0
N3287 N 0.76673 0.12168 0.59008 0.0
H3288 H 0.91326 0.18495 0.37836 0.0
H3289 H 0.90753 0.29261 0.34913 0.0
H3290 H 0.84805 0.20481 0.40203 0.0
H3291 H 0.87569 0.3066 0.4123 0.0
H3292 H 0.91572 0.2547 0.36201 0.0
H3293 H 0.9271 0.22295 0.38592 0.0
C3294 C 0.90217 0.19704 0.38611 0.0
C3295 C 0.87942 0.19211 0.3892 0.0
C3296 C 0.90795 0.26633 0.37355 0.0
C3297 C 0.89493 0.23513 0.39762 0.0
C3298 C 0.90321 0.28792 0.36612 0.0
C3299 C 0.89087 0.30248 0.37969 0.0
C3300 C 0.89937 0.25912 0.39426 0.0
C3301 C 0.88529 0.2957 0.40144 0.0
C3302 C 0.91001 0.21867 0.39026 0.0
C3303 C 0.86562 0.20823 0.39912 0.0
N3304 N 0.88878 0.27412 0.40777 0.0
N3305 N 0.87351 0.22921 0.40266 0.0
H3306 H 0.68748 0.87733 0.41221 0.0
H3307 H 0.80982 0.9126 0.37609 0.0
H3308 H 0.70594 0.90612 0.34867 0.0
H3309 H 0.79187 0.85045 0.40805 0.0
H3310 H 0.7718 0.92663 0.38296 0.0
H3311 H 0.72536 0.88501 0.42622 0.0
C3312 C 0.69918 0.88631 0.40163 0.0
C3313 C 0.69395 0.89082 0.3792 0.0
C3314 C 0.7766 0.91039 0.38946 0.0
C3315 C 0.73671 0.89979 0.39507 0.0
C3316 C 0.79822 0.90241 0.38563 0.0
C3317 C 0.80362 0.88028 0.39126 0.0
C3318 C 0.76067 0.89615 0.39923 0.0
C3319 C 0.78808 0.86753 0.40328 0.0
C3320 C 0.7207 0.89063 0.40961 0.0
C3321 C 0.7096 0.90219 0.36599 0.0
N3322 N 0.76708 0.87553 0.40657 0.0
N3323 N 0.73049 0.906 0.37403 0.0
H3324 H 0.08357 0.80816 0.3743 0.0
H3325 H 0.1211 0.68689 0.41276 0.0
H3326 H 0.14599 0.79241 0.40687 0.0
H3327 H 0.09233 0.70326 0.34863 0.0
H3328 H 0.11327 0.72518 0.42556 0.0
H3329 H 0.07081 0.76966 0.38108 0.0
C3330 C 0.09408 0.79691 0.38394 0.0
C3331 C 0.11591 0.80313 0.38987 0.0
C3332 C 0.10773 0.71999 0.40909 0.0
C3333 C 0.10148 0.75963 0.39772 0.0
C3334 C 0.11211 0.69822 0.4018 0.0
C3335 C 0.10755 0.69225 0.37957 0.0
C3336 C 0.09845 0.73549 0.39407 0.0
C3337 C 0.09623 0.70748 0.36584 0.0
C3338 C 0.08683 0.77502 0.3877 0.0
C3339 C 0.1291 0.78801 0.40195 0.0
N3340 N 0.09232 0.7286 0.37322 0.0
N3341 N 0.1218 0.76675 0.40521 0.0
H3342 H 0.20512 0.14643 0.40664 0.0
H3343 H 0.29131 0.08809 0.34771 0.0
H3344 H 0.18741 0.08285 0.37753 0.0
H3345 H 0.30906 0.11664 0.41153 0.0
H3346 H 0.25389 0.08007 0.36207 0.0
H3347 H 0.24256 0.13203 0.41452 0.0
C3348 C 0.20892 0.12912 0.40277 0.0
C3349 C 0.19349 0.11584 0.3912 0.0
C3350 C 0.26621 0.0872 0.37331 0.0
C3351 C 0.23631 0.09963 0.39914 0.0
C3352 C 0.28752 0.09181 0.36506 0.0
C3353 C 0.30296 0.10326 0.37843 0.0
C3354 C 0.26015 0.09515 0.39461 0.0
C3355 C 0.2974 0.10788 0.40075 0.0
C3356 C 0.23024 0.12084 0.40729 0.0
C3357 C 0.19906 0.09356 0.38639 0.0
N3358 N 0.27607 0.10458 0.40795 0.0
N3359 N 0.2204 0.08636 0.3896 0.0
H3360 H 0.61928 0.91274 0.80808 0.0
H3361 H 0.58233 0.87552 0.68637 0.0
H3362 H 0.58876 0.84959 0.79116 0.0
H3363 H 0.64513 0.90679 0.7032 0.0
H3364 H 0.569 0.88268 0.72461 0.0
H3365 H 0.61195 0.92604 0.76986 0.0
C3366 C 0.61 0.90214 0.79664 0.0
C3367 C 0.60484 0.87999 0.80243 0.0
C3368 C 0.58526 0.88893 0.71953 0.0
C3369 C 0.59633 0.89505 0.75926 0.0
C3370 C 0.59283 0.88494 0.69779 0.0
C3371 C 0.61491 0.89036 0.69197 0.0
C3372 C 0.59984 0.89865 0.73518 0.0
C3373 C 0.62807 0.90222 0.70729 0.0
C3374 C 0.60591 0.9097 0.77491 0.0
C3375 C 0.59314 0.86671 0.78709 0.0
N3376 N 0.62044 0.90569 0.72841 0.0
N3377 N 0.58956 0.87434 0.76599 0.0
H3378 H 0.08734 0.64829 0.70661 0.0
H3379 H 0.1465 0.58968 0.79169 0.0
H3380 H 0.11521 0.58433 0.68825 0.0
H3381 H 0.08275 0.6178 0.81037 0.0
H3382 H 0.13166 0.58166 0.75444 0.0
H3383 H 0.07954 0.63376 0.74403 0.0
C3384 C 0.09095 0.63088 0.71027 0.0
C3385 C 0.10217 0.61752 0.69466 0.0
C3386 C 0.12055 0.58869 0.76694 0.0
C3387 C 0.09433 0.60115 0.73744 0.0
C3388 C 0.12907 0.5933 0.78814 0.0
C3389 C 0.11585 0.60465 0.80378 0.0
C3390 C 0.09913 0.59654 0.76119 0.0
C3391 C 0.09342 0.60913 0.79854 0.0
C3392 C 0.08646 0.62254 0.73157 0.0
C3393 C 0.10664 0.59512 0.70005 0.0
N3394 N 0.08595 0.60586 0.77731 0.0
N3395 N 0.1035 0.58783 0.72136 0.0
H3396 H 0.41388 0.12279 0.68663 0.0
H3397 H 0.37642 0.08371 0.80766 0.0
H3398 H 0.35125 0.09081 0.70271 0.0
H3399 H 0.40742 0.14694 0.79196 0.0
H3400 H 0.38384 0.07103 0.76926 0.0
H3401 H 0.42703 0.11531 0.72487 0.0
C3402 C 0.40339 0.11317 0.69788 0.0
C3403 C 0.38141 0.10759 0.69184 0.0
C3404 C 0.38997 0.08724 0.77461 0.0
C3405 C 0.39628 0.09893 0.73507 0.0
C3406 C 0.38585 0.09444 0.79645 0.0
C3407 C 0.39113 0.11645 0.80265 0.0
C3408 C 0.39968 0.10212 0.75923 0.0
C3409 C 0.40298 0.12991 0.78758 0.0
C3410 C 0.41086 0.10899 0.71963 0.0
C3411 C 0.36824 0.09548 0.70697 0.0
N3412 N 0.40658 0.12265 0.76636 0.0
N3413 N 0.37577 0.09182 0.72809 0.0
H3414 H 0.84787 0.40713 0.79141 0.0
H3415 H 0.90756 0.34928 0.70536 0.0
H3416 H 0.91186 0.37918 0.80953 0.0
H3417 H 0.87855 0.41289 0.68759 0.0
H3418 H 0.91504 0.36355 0.74294 0.0
H3419 H 0.86232 0.41512 0.75399 0.0
C3420 C 0.86526 0.40354 0.7877 0.0
C3421 C 0.87867 0.39229 0.80326 0.0
C3422 C 0.90794 0.37478 0.73058 0.0
C3423 C 0.89496 0.40036 0.76047 0.0
C3424 C 0.90366 0.36658 0.70918 0.0
C3425 C 0.89224 0.37991 0.69367 0.0
C3426 C 0.8997 0.39596 0.73665 0.0
C3427 C 0.88733 0.40215 0.69929 0.0
C3428 C 0.87356 0.40813 0.7664 0.0
C3429 C 0.90105 0.38781 0.79779 0.0
N3430 N 0.8903 0.40928 0.72069 0.0
N3431 N 0.9083 0.39108 0.77648 0.0
H3432 H 0.58962 0.14616 0.20368 0.0
H3433 H 0.64869 0.08958 0.29197 0.0
H3434 H 0.61991 0.08274 0.18744 0.0
H3435 H 0.58433 0.11769 0.30844 0.0
H3436 H 0.63509 0.08139 0.25428 0.0
H3437 H 0.58205 0.13248 0.24148 0.0
C3438 C 0.59381 0.12901 0.20788 0.0
C3439 C 0.60556 0.11557 0.19272 0.0
C3440 C 0.62358 0.08848 0.26638 0.0
C3441 C 0.59798 0.10022 0.23595 0.0
C3442 C 0.63139 0.09317 0.28784 0.0
C3443 C 0.61763 0.1045 0.30303 0.0
C3444 C 0.60231 0.09619 0.25992 0.0
C3445 C 0.5954 0.10899 0.29701 0.0
C3446 C 0.58948 0.12116 0.22941 0.0
C3447 C 0.61085 0.09355 0.19884 0.0
N3448 N 0.58862 0.10558 0.27556 0.0
N3449 N 0.60778 0.08678 0.22035 0.0
H3450 H 0.84782 0.58825 0.20538 0.0
H3451 H 0.90743 0.64581 0.29164 0.0
H3452 H 0.91188 0.6162 0.18753 0.0
H3453 H 0.87796 0.58236 0.30922 0.0
H3454 H 0.91508 0.6315 0.25411 0.0
H3455 H 0.86218 0.58007 0.24278 0.0
C3456 C 0.86521 0.59181 0.20915 0.0
C3457 C 0.87867 0.60312 0.19368 0.0
C3458 C 0.90783 0.62031 0.26642 0.0
C3459 C 0.89485 0.59483 0.23646 0.0
C3460 C 0.90344 0.62853 0.28779 0.0
C3461 C 0.89183 0.61528 0.30322 0.0
C3462 C 0.89951 0.59918 0.2603 0.0
C3463 C 0.88685 0.59306 0.29758 0.0
C3464 C 0.87346 0.58711 0.23044 0.0
C3465 C 0.90104 0.60754 0.19921 0.0
N3466 N 0.88994 0.58591 0.2762 0.0
N3467 N 0.90824 0.60416 0.22052 0.0
H3468 H 0.35052 0.90762 0.29376 0.0
H3469 H 0.37926 0.91294 0.18591 0.0
H3470 H 0.41291 0.87407 0.30725 0.0
H3471 H 0.40197 0.84727 0.20545 0.0
H3472 H 0.38717 0.92651 0.22394 0.0
H3473 H 0.36342 0.91572 0.25583 0.0
C3474 C 0.36738 0.90291 0.28896 0.0
C3475 C 0.38069 0.89013 0.30338 0.0
C3476 C 0.39121 0.90937 0.21959 0.0
C3477 C 0.39526 0.89851 0.26 0.0
C3478 C 0.38687 0.90167 0.19793 0.0
C3479 C 0.3896 0.8789 0.19291 0.0
C3480 C 0.39839 0.8941 0.23597 0.0
C3481 C 0.39933 0.86487 0.20895 0.0
C3482 C 0.37482 0.90759 0.26736 0.0
C3483 C 0.40225 0.88403 0.29646 0.0
N3484 N 0.40308 0.87263 0.22995 0.0
N3485 N 0.40857 0.8875 0.27488 0.0
H3486 H 0.11982 0.41263 0.30927 0.0
H3487 H 0.08276 0.37788 0.18709 0.0
H3488 H 0.0889 0.3501 0.29085 0.0
H3489 H 0.14584 0.40807 0.20479 0.0
H3490 H 0.06909 0.38509 0.22517 0.0
H3491 H 0.11225 0.42702 0.2715 0.0
C3492 C 0.1104 0.40239 0.29762 0.0
C3493 C 0.10523 0.3801 0.3028 0.0
C3494 C 0.08549 0.39114 0.22031 0.0
C3495 C 0.09642 0.39639 0.26016 0.0
C3496 C 0.09327 0.38711 0.19865 0.0
C3497 C 0.11552 0.39212 0.19316 0.0
C3498 C 0.10006 0.40048 0.23619 0.0
C3499 C 0.12866 0.40377 0.20866 0.0
C3500 C 0.10615 0.41058 0.27615 0.0
C3501 C 0.09333 0.36731 0.28721 0.0
N3502 N 0.12084 0.40726 0.22969 0.0
N3503 N 0.0896 0.37554 0.26637 0.0
H3504 H 0.80821 0.62211 0.91274 0.0
H3505 H 0.68723 0.58388 0.8743 0.0
H3506 H 0.79269 0.59008 0.84999 0.0
H3507 H 0.70341 0.64749 0.90425 0.0
H3508 H 0.72546 0.57093 0.88218 0.0
H3509 H 0.76976 0.61496 0.92542 0.0
C3510 C 0.79703 0.61252 0.90214 0.0
C3511 C 0.80328 0.60687 0.88024 0.0
C3512 C 0.72024 0.58731 0.88796 0.0
C3513 C 0.75983 0.5986 0.89457 0.0
C3514 C 0.69851 0.59468 0.88355 0.0
C3515 C 0.6925 0.61683 0.88843 0.0
C3516 C 0.73568 0.60216 0.89758 0.0
C3517 C 0.70765 0.63036 0.90009 0.0
C3518 C 0.77516 0.60854 0.90934 0.0
C3519 C 0.78826 0.59481 0.86693 0.0
N3520 N 0.72875 0.62291 0.90401 0.0
N3521 N 0.76701 0.59135 0.87418 0.0
H3522 H 0.80796 0.37579 0.083 0.0
H3523 H 0.68679 0.41295 0.12137 0.0
H3524 H 0.79167 0.40716 0.14589 0.0
H3525 H 0.70346 0.35027 0.0898 0.0
H3526 H 0.72482 0.42651 0.11358 0.0
H3527 H 0.76974 0.38331 0.06983 0.0
C3528 C 0.79667 0.38532 0.09355 0.0
C3529 C 0.80262 0.39065 0.11561 0.0
C3530 C 0.71974 0.41022 0.10741 0.0
C3531 C 0.75942 0.39932 0.10074 0.0
C3532 C 0.69812 0.40252 0.11177 0.0
C3533 C 0.69234 0.38041 0.10644 0.0
C3534 C 0.73531 0.39573 0.09743 0.0
C3535 C 0.70754 0.36735 0.09432 0.0
C3536 C 0.77493 0.38951 0.08607 0.0
C3537 C 0.78747 0.40265 0.12884 0.0
N3538 N 0.72854 0.37509 0.0905 0.0
N3539 N 0.76635 0.4063 0.12132 0.0
H3540 H 0.64934 0.70383 0.09005 0.0
H3541 H 0.59016 0.79095 0.14693 0.0
H3542 H 0.58485 0.68655 0.11739 0.0
H3543 H 0.61947 0.80804 0.08327 0.0
H3544 H 0.58258 0.75327 0.13296 0.0
H3545 H 0.63543 0.74141 0.08187 0.0
C3546 C 0.63196 0.70776 0.09347 0.0
C3547 C 0.61825 0.69238 0.10461 0.0
C3548 C 0.58978 0.76551 0.12166 0.0
C3549 C 0.60257 0.73535 0.09631 0.0
C3550 C 0.59413 0.78696 0.12968 0.0
C3551 C 0.60563 0.80231 0.11625 0.0
C3552 C 0.59804 0.75923 0.10055 0.0
C3553 C 0.61062 0.79647 0.09408 0.0
C3554 C 0.62397 0.72916 0.08878 0.0
C3555 C 0.5959 0.69814 0.10886 0.0
N3556 N 0.60757 0.77503 0.08713 0.0
N3557 N 0.58893 0.71953 0.10549 0.0
H3558 H 0.18766 0.62097 0.08347 0.0
H3559 H 0.30793 0.58204 0.12311 0.0
H3560 H 0.20286 0.58917 0.14643 0.0
H3561 H 0.29284 0.64428 0.08989 0.0
H3562 H 0.26965 0.56914 0.11543 0.0
H3563 H 0.22591 0.61296 0.07068 0.0
C3564 C 0.19872 0.61128 0.09412 0.0
C3565 C 0.19245 0.60593 0.11608 0.0
C3566 C 0.27512 0.58516 0.10889 0.0
C3567 C 0.23569 0.59671 0.10165 0.0
C3568 C 0.29689 0.59248 0.11318 0.0
C3569 C 0.3032 0.6143 0.1073 0.0
C3570 C 0.25991 0.59975 0.09849 0.0
C3571 C 0.28835 0.62741 0.0948 0.0
C3572 C 0.22047 0.60681 0.08686 0.0
C3573 C 0.20731 0.5937 0.12945 0.0
N3574 N 0.26718 0.62006 0.09108 0.0
N3575 N 0.22846 0.58979 0.12214 0.0
H3576 H 0.3755 0.18666 0.08169 0.0
H3577 H 0.41209 0.30888 0.11665 0.0
H3578 H 0.40754 0.20471 0.14377 0.0
H3579 H 0.34821 0.29048 0.08861 0.0
H3580 H 0.42603 0.27104 0.10867 0.0
H3581 H 0.38251 0.2246 0.06751 0.0
C3582 C 0.38508 0.19826 0.09184 0.0
C3583 C 0.39069 0.19293 0.11399 0.0
C3584 C 0.40935 0.27571 0.10327 0.0
C3585 C 0.39884 0.23577 0.09794 0.0
C3586 C 0.40141 0.29721 0.10776 0.0
C3587 C 0.37891 0.30242 0.10357 0.0
C3588 C 0.3947 0.25971 0.09427 0.0
C3589 C 0.36558 0.28682 0.09231 0.0
C3590 C 0.389 0.21983 0.08377 0.0
C3591 C 0.40278 0.20846 0.12667 0.0
N3592 N 0.37358 0.26594 0.08833 0.0
N3593 N 0.40616 0.22941 0.11858 0.0
H3594 H 0.18592 0.37769 0.91348 0.0
H3595 H 0.29366 0.34883 0.90717 0.0
H3596 H 0.20539 0.4021 0.84842 0.0
H3597 H 0.30731 0.41218 0.87552 0.0
H3598 H 0.25575 0.36156 0.9156 0.0
H3599 H 0.22399 0.38517 0.9272 0.0
C3600 C 0.19793 0.38559 0.90241 0.0
C3601 C 0.19287 0.38894 0.87973 0.0
C3602 C 0.26731 0.37318 0.90783 0.0
C3603 C 0.23598 0.39724 0.89509 0.0
C3604 C 0.2889 0.36583 0.90295 0.0
C3605 C 0.30336 0.3795 0.8906 0.0
C3606 C 0.26 0.3939 0.89937 0.0
C3607 C 0.29649 0.40125 0.88513 0.0
C3608 C 0.21961 0.38968 0.91019 0.0
C3609 C 0.20891 0.39902 0.86594 0.0
N3610 N 0.27492 0.4075 0.88876 0.0
N3611 N 0.22993 0.40251 0.87376 0.0
H3612 H 0.62036 0.18697 0.91324 0.0
H3613 H 0.58366 0.30914 0.87775 0.0
H3614 H 0.5884 0.20471 0.85103 0.0
H3615 H 0.6471 0.29121 0.9071 0.0
H3616 H 0.56992 0.27114 0.88529 0.0
H3617 H 0.61339 0.22501 0.92717 0.0
C3618 C 0.61082 0.19854 0.903 0.0
C3619 C 0.60518 0.19306 0.8809 0.0
C3620 C 0.58644 0.27593 0.89105 0.0
C3621 C 0.5971 0.23603 0.89666 0.0
C3622 C 0.59427 0.29753 0.88683 0.0
C3623 C 0.61661 0.30295 0.89154 0.0
C3624 C 0.60104 0.26002 0.90032 0.0
C3625 C 0.62985 0.2874 0.90301 0.0
C3626 C 0.60693 0.22017 0.91093 0.0
C3627 C 0.59316 0.20856 0.8681 0.0
N3628 N 0.62197 0.26643 0.90673 0.0
N3629 N 0.58981 0.22957 0.87605 0.0
H3630 H 0.41284 0.68661 0.87641 0.0
H3631 H 0.37764 0.809 0.91235 0.0
H3632 H 0.35076 0.70476 0.90835 0.0
H3633 H 0.40724 0.79057 0.84919 0.0
H3634 H 0.38518 0.77113 0.92647 0.0
H3635 H 0.42702 0.72456 0.88333 0.0
C3636 C 0.40268 0.69824 0.88594 0.0
C3637 C 0.38053 0.69292 0.89156 0.0
C3638 C 0.39101 0.77578 0.90993 0.0
C3639 C 0.39658 0.7358 0.89959 0.0
C3640 C 0.38678 0.79732 0.9019 0.0
C3641 C 0.39156 0.80254 0.87953 0.0
C3642 C 0.40032 0.75976 0.8955 0.0
C3643 C 0.40311 0.78691 0.86647 0.0
C3644 C 0.41075 0.71983 0.88981 0.0
C3645 C 0.36785 0.7085 0.90359 0.0
N3646 N 0.40681 0.766 0.87455 0.0
N3647 N 0.37593 0.72946 0.90691 0.0
loop_
_geom_bond_atom_site_label_1
_geom_bond_atom_site_label_2
_geom_bond_distance
_geom_bond_site_symmetry_2
_ccdc_geom_bond_type
Sc0 O3 2.025 . S
Sc0 O10 2.105 . S
Sc0 O13 2.105 . S
Sc0 O16 2.105 . S
Sc0 O19 2.105 . S
Sc1 O3 2.025 . S
Sc1 O11 2.105 . S
Sc1 O15 2.105 . S
Sc1 O17 2.105 . S
Sc1 O21 2.105 . S
Sc2 O3 2.025 . S
Sc2 O12 2.105 . S
Sc2 O14 2.105 . S
Sc2 O18 2.105 . S
Sc2 O20 2.105 . S
O3 Sc0 2.025 . S
O3 Sc1 2.025 . S
O3 Sc2 2.025 . S
C4 O10 1.268 . S
C4 O20 1.268 . S
C5 O11 1.268 . S
C5 O19 1.268 . S
C6 O12 1.268 . S
C6 O21 1.268 . S
C7 O13 1.268 . S
C7 O17 1.268 . S
C8 O14 1.268 . S
C8 O16 1.268 . S
C9 O15 1.268 . S
C9 O18 1.268 . S
O10 Sc0 2.105 . S
O10 C4 1.268 . S
O11 Sc1 2.105 . S
O11 C5 1.268 . S
O12 Sc2 2.105 . S
O12 C6 1.268 . S
O13 Sc0 2.105 . S
O13 C7 1.268 . S
O14 Sc2 2.105 . S
O14 C8 1.268 . S
O15 Sc1 2.105 . S
O15 C9 1.268 . S
O16 Sc0 2.105 . S
O16 C8 1.268 . S
O17 Sc1 2.105 . S
O17 C7 1.268 . S
O18 Sc2 2.105 . S
O18 C9 1.268 . S
O19 Sc0 2.105 . S
O19 C5 1.268 . S
O20 Sc2 2.105 . S
O20 C4 1.268 . S
O21 Sc1 2.105 . S
O21 C6 1.268 . S
Sc22 O25 2.025 . S
Sc22 O32 2.105 . S
Sc22 O35 2.105 . S
Sc22 O38 2.105 . S
Sc22 O41 2.105 . S
Sc23 O25 2.025 . S
Sc23 O33 2.105 . S
Sc23 O37 2.105 . S
Sc23 O39 2.105 . S
Sc23 O43 2.105 . S
Sc24 O25 2.025 . S
Sc24 O34 2.105 . S
Sc24 O36 2.105 . S
Sc24 O40 2.105 . S
Sc24 O42 2.105 . S
O25 Sc22 2.025 . S
O25 Sc23 2.025 . S
O25 Sc24 2.025 . S
C26 O32 1.268 . S
C26 O42 1.268 . S
C27 O33 1.268 . S
C27 O41 1.268 . S
C28 O34 1.268 . S
C28 O43 1.268 . S
C29 O35 1.268 . S
C29 O39 1.268 . S
C30 O36 1.268 . S
C30 O38 1.268 . S
C31 O37 1.268 . S
C31 O40 1.268 . S
O32 Sc22 2.105 . S
O32 C26 1.268 . S
O33 Sc23 2.105 . S
O33 C27 1.268 . S
O34 Sc24 2.105 . S
O34 C28 1.268 . S
O35 Sc22 2.105 . S
O35 C29 1.268 . S
O36 Sc24 2.105 . S
O36 C30 1.268 . S
O37 Sc23 2.105 . S
O37 C31 1.268 . S
O38 Sc22 2.105 . S
O38 C30 1.268 . S
O39 Sc23 2.105 . S
O39 C29 1.268 . S
O40 Sc24 2.105 . S
O40 C31 1.268 . S
O41 Sc22 2.105 . S
O41 C27 1.268 . S
O42 Sc24 2.105 . S
O42 C26 1.268 . S
O43 Sc23 2.105 . S
O43 C28 1.268 . S
Sc44 O47 2.025 . S
Sc44 O54 2.105 . S
Sc44 O57 2.105 . S
Sc44 O60 2.105 . S
Sc44 O63 2.105 . S
Sc45 O47 2.025 . S
Sc45 O55 2.105 . S
Sc45 O59 2.105 . S
Sc45 O61 2.105 . S
Sc45 O65 2.105 . S
Sc46 O47 2.025 . S
Sc46 O56 2.105 . S
Sc46 O58 2.105 . S
Sc46 O62 2.105 . S
Sc46 O64 2.105 . S
O47 Sc44 2.025 . S
O47 Sc45 2.025 . S
O47 Sc46 2.025 . S
C48 O54 1.268 . S
C48 O64 1.268 . S
C49 O55 1.268 . S
C49 O63 1.268 . S
C50 O56 1.268 . S
C50 O65 1.268 . S
C51 O57 1.268 . S
C51 O61 1.268 . S
C52 O58 1.268 . S
C52 O60 1.268 . S
C53 O59 1.268 . S
C53 O62 1.268 . S
O54 Sc44 2.105 . S
O54 C48 1.268 . S
O55 Sc45 2.105 . S
O55 C49 1.268 . S
O56 Sc46 2.105 . S
O56 C50 1.268 . S
O57 Sc44 2.105 . S
O57 C51 1.268 . S
O58 Sc46 2.105 . S
O58 C52 1.268 . S
O59 Sc45 2.105 . S
O59 C53 1.268 . S
O60 Sc44 2.105 . S
O60 C52 1.268 . S
O61 Sc45 2.105 . S
O61 C51 1.268 . S
O62 Sc46 2.105 . S
O62 C53 1.268 . S
O63 Sc44 2.105 . S
O63 C49 1.268 . S
O64 Sc46 2.105 . S
O64 C48 1.268 . S
O65 Sc45 2.105 . S
O65 C50 1.268 . S
Sc66 O69 2.025 . S
Sc66 O76 2.105 . S
Sc66 O79 2.105 . S
Sc66 O82 2.105 . S
Sc66 O85 2.105 . S
Sc67 O69 2.025 . S
Sc67 O77 2.105 . S
Sc67 O81 2.105 . S
Sc67 O83 2.105 . S
Sc67 O87 2.105 . S
Sc68 O69 2.025 . S
Sc68 O78 2.105 . S
Sc68 O80 2.105 . S
Sc68 O84 2.105 . S
Sc68 O86 2.105 . S
O69 Sc66 2.025 . S
O69 Sc67 2.025 . S
O69 Sc68 2.025 . S
C70 O76 1.268 . S
C70 O86 1.268 . S
C71 O77 1.268 . S
C71 O85 1.268 . S
C72 O78 1.268 . S
C72 O87 1.268 . S
C73 O79 1.268 . S
C73 O83 1.268 . S
C74 O80 1.268 . S
C74 O82 1.268 . S
C75 O81 1.268 . S
C75 O84 1.268 . S
O76 Sc66 2.105 . S
O76 C70 1.268 . S
O77 Sc67 2.105 . S
O77 C71 1.268 . S
O78 Sc68 2.105 . S
O78 C72 1.268 . S
O79 Sc66 2.105 . S
O79 C73 1.268 . S
O80 Sc68 2.105 . S
O80 C74 1.268 . S
O81 Sc67 2.105 . S
O81 C75 1.268 . S
O82 Sc66 2.105 . S
O82 C74 1.268 . S
O83 Sc67 2.105 . S
O83 C73 1.268 . S
O84 Sc68 2.105 . S
O84 C75 1.268 . S
O85 Sc66 2.105 . S
O85 C71 1.268 . S
O86 Sc68 2.105 . S
O86 C70 1.268 . S
O87 Sc67 2.105 . S
O87 C72 1.268 . S
Sc88 O91 2.025 . S
Sc88 O98 2.105 . S
Sc88 O101 2.105 . S
Sc88 O104 2.105 . S
Sc88 O107 2.105 . S
Sc89 O91 2.025 . S
Sc89 O99 2.105 . S
Sc89 O103 2.105 . S
Sc89 O105 2.105 . S
Sc89 O109 2.105 . S
Sc90 O91 2.025 . S
Sc90 O100 2.105 . S
Sc90 O102 2.105 . S
Sc90 O106 2.105 . S
Sc90 O108 2.105 . S
O91 Sc88 2.025 . S
O91 Sc89 2.025 . S
O91 Sc90 2.025 . S
C92 O98 1.268 . S
C92 O108 1.268 . S
C93 O99 1.268 . S
C93 O107 1.268 . S
C94 O100 1.268 . S
C94 O109 1.268 . S
C95 O101 1.268 . S
C95 O105 1.268 . S
C96 O102 1.268 . S
C96 O104 1.268 . S
C97 O103 1.268 . S
C97 O106 1.268 . S
O98 Sc88 2.105 . S
O98 C92 1.268 . S
O99 Sc89 2.105 . S
O99 C93 1.268 . S
O100 Sc90 2.105 . S
O100 C94 1.268 . S
O101 Sc88 2.105 . S
O101 C95 1.268 . S
O102 Sc90 2.105 . S
O102 C96 1.268 . S
O103 Sc89 2.105 . S
O103 C97 1.268 . S
O104 Sc88 2.105 . S
O104 C96 1.268 . S
O105 Sc89 2.105 . S
O105 C95 1.268 . S
O106 Sc90 2.105 . S
O106 C97 1.268 . S
O107 Sc88 2.105 . S
O107 C93 1.268 . S
O108 Sc90 2.105 . S
O108 C92 1.268 . S
O109 Sc89 2.105 . S
O109 C94 1.268 . S
Sc110 O113 2.025 . S
Sc110 O120 2.105 . S
Sc110 O123 2.105 . S
Sc110 O126 2.105 . S
Sc110 O129 2.105 . S
Sc111 O113 2.025 . S
Sc111 O121 2.105 . S
Sc111 O125 2.105 . S
Sc111 O127 2.105 . S
Sc111 O131 2.105 . S
Sc112 O113 2.025 . S
Sc112 O122 2.105 . S
Sc112 O124 2.105 . S
Sc112 O128 2.105 . S
Sc112 O130 2.105 . S
O113 Sc110 2.025 . S
O113 Sc111 2.025 . S
O113 Sc112 2.025 . S
C114 O120 1.268 . S
C114 O130 1.268 . S
C115 O121 1.268 . S
C115 O129 1.268 . S
C116 O122 1.268 . S
C116 O131 1.268 . S
C117 O123 1.268 . S
C117 O127 1.268 . S
C118 O124 1.268 . S
C118 O126 1.268 . S
C119 O125 1.268 . S
C119 O128 1.268 . S
O120 Sc110 2.105 . S
O120 C114 1.268 . S
O121 Sc111 2.105 . S
O121 C115 1.268 . S
O122 Sc112 2.105 . S
O122 C116 1.268 . S
O123 Sc110 2.105 . S
O123 C117 1.268 . S
O124 Sc112 2.105 . S
O124 C118 1.268 . S
O125 Sc111 2.105 . S
O125 C119 1.268 . S
O126 Sc110 2.105 . S
O126 C118 1.268 . S
O127 Sc111 2.105 . S
O127 C117 1.268 . S
O128 Sc112 2.105 . S
O128 C119 1.268 . S
O129 Sc110 2.105 . S
O129 C115 1.268 . S
O130 Sc112 2.105 . S
O130 C114 1.268 . S
O131 Sc111 2.105 . S
O131 C116 1.268 . S
Sc132 O135 2.025 . S
Sc132 O142 2.105 . S
Sc132 O145 2.105 . S
Sc132 O148 2.105 . S
Sc132 O151 2.105 . S
Sc133 O135 2.025 . S
Sc133 O143 2.105 . S
Sc133 O147 2.105 . S
Sc133 O149 2.105 . S
Sc133 O153 2.105 . S
Sc134 O135 2.025 . S
Sc134 O144 2.105 . S
Sc134 O146 2.105 . S
Sc134 O150 2.105 . S
Sc134 O152 2.105 . S
O135 Sc132 2.025 . S
O135 Sc133 2.025 . S
O135 Sc134 2.025 . S
C136 O142 1.268 . S
C136 O152 1.268 . S
C137 O143 1.268 . S
C137 O151 1.268 . S
C138 O144 1.268 . S
C138 O153 1.268 . S
C139 O145 1.268 . S
C139 O149 1.268 . S
C140 O146 1.268 . S
C140 O148 1.268 . S
C141 O147 1.268 . S
C141 O150 1.268 . S
O142 Sc132 2.105 . S
O142 C136 1.268 . S
O143 Sc133 2.105 . S
O143 C137 1.268 . S
O144 Sc134 2.105 . S
O144 C138 1.268 . S
O145 Sc132 2.105 . S
O145 C139 1.268 . S
O146 Sc134 2.105 . S
O146 C140 1.268 . S
O147 Sc133 2.105 . S
O147 C141 1.268 . S
O148 Sc132 2.105 . S
O148 C140 1.268 . S
O149 Sc133 2.105 . S
O149 C139 1.268 . S
O150 Sc134 2.105 . S
O150 C141 1.268 . S
O151 Sc132 2.105 . S
O151 C137 1.268 . S
O152 Sc134 2.105 . S
O152 C136 1.268 . S
O153 Sc133 2.105 . S
O153 C138 1.268 . S
Sc154 O157 2.025 . S
Sc154 O164 2.105 . S
Sc154 O167 2.105 . S
Sc154 O170 2.105 . S
Sc154 O173 2.105 . S
Sc155 O157 2.025 . S
Sc155 O165 2.105 . S
Sc155 O169 2.105 . S
Sc155 O171 2.105 . S
Sc155 O175 2.105 . S
Sc156 O157 2.025 . S
Sc156 O166 2.105 . S
Sc156 O168 2.105 . S
Sc156 O172 2.105 . S
Sc156 O174 2.105 . S
O157 Sc154 2.025 . S
O157 Sc155 2.025 . S
O157 Sc156 2.025 . S
C158 O164 1.268 . S
C158 O174 1.268 . S
C159 O165 1.268 . S
C159 O173 1.268 . S
C160 O166 1.268 . S
C160 O175 1.268 . S
C161 O167 1.268 . S
C161 O171 1.268 . S
C162 O168 1.268 . S
C162 O170 1.268 . S
C163 O169 1.268 . S
C163 O172 1.268 . S
O164 Sc154 2.105 . S
O164 C158 1.268 . S
O165 Sc155 2.105 . S
O165 C159 1.268 . S
O166 Sc156 2.105 . S
O166 C160 1.268 . S
O167 Sc154 2.105 . S
O167 C161 1.268 . S
O168 Sc156 2.105 . S
O168 C162 1.268 . S
O169 Sc155 2.105 . S
O169 C163 1.268 . S
O170 Sc154 2.105 . S
O170 C162 1.268 . S
O171 Sc155 2.105 . S
O171 C161 1.268 . S
O172 Sc156 2.105 . S
O172 C163 1.268 . S
O173 Sc154 2.105 . S
O173 C159 1.268 . S
O174 Sc156 2.105 . S
O174 C158 1.268 . S
O175 Sc155 2.105 . S
O175 C160 1.268 . S
Sc176 O179 2.025 . S
Sc176 O186 2.105 . S
Sc176 O189 2.105 . S
Sc176 O192 2.105 . S
Sc176 O195 2.105 . S
Sc177 O179 2.025 . S
Sc177 O187 2.105 . S
Sc177 O191 2.105 . S
Sc177 O193 2.105 . S
Sc177 O197 2.105 . S
Sc178 O179 2.025 . S
Sc178 O188 2.105 . S
Sc178 O190 2.105 . S
Sc178 O194 2.105 . S
Sc178 O196 2.105 . S
O179 Sc176 2.025 . S
O179 Sc177 2.025 . S
O179 Sc178 2.025 . S
C180 O186 1.268 . S
C180 O196 1.268 . S
C181 O187 1.268 . S
C181 O195 1.268 . S
C182 O188 1.268 . S
C182 O197 1.268 . S
C183 O189 1.268 . S
C183 O193 1.268 . S
C184 O190 1.268 . S
C184 O192 1.268 . S
C185 O191 1.268 . S
C185 O194 1.268 . S
O186 Sc176 2.105 . S
O186 C180 1.268 . S
O187 Sc177 2.105 . S
O187 C181 1.268 . S
O188 Sc178 2.105 . S
O188 C182 1.268 . S
O189 Sc176 2.105 . S
O189 C183 1.268 . S
O190 Sc178 2.105 . S
O190 C184 1.268 . S
O191 Sc177 2.105 . S
O191 C185 1.268 . S
O192 Sc176 2.105 . S
O192 C184 1.268 . S
O193 Sc177 2.105 . S
O193 C183 1.268 . S
O194 Sc178 2.105 . S
O194 C185 1.268 . S
O195 Sc176 2.105 . S
O195 C181 1.268 . S
O196 Sc178 2.105 . S
O196 C180 1.268 . S
O197 Sc177 2.105 . S
O197 C182 1.268 . S
Sc198 O201 2.025 . S
Sc198 O208 2.105 . S
Sc198 O211 2.105 . S
Sc198 O214 2.105 . S
Sc198 O217 2.105 . S
Sc199 O201 2.025 . S
Sc199 O209 2.105 . S
Sc199 O213 2.105 . S
Sc199 O215 2.105 . S
Sc199 O219 2.105 . S
Sc200 O201 2.025 . S
Sc200 O210 2.105 . S
Sc200 O212 2.105 . S
Sc200 O216 2.105 . S
Sc200 O218 2.105 . S
O201 Sc198 2.025 . S
O201 Sc199 2.025 . S
O201 Sc200 2.025 . S
C202 O208 1.268 . S
C202 O218 1.268 . S
C203 O209 1.268 . S
C203 O217 1.268 . S
C204 O210 1.268 . S
C204 O219 1.268 . S
C205 O211 1.268 . S
C205 O215 1.268 . S
C206 O212 1.268 . S
C206 O214 1.268 . S
C207 O213 1.268 . S
C207 O216 1.268 . S
O208 Sc198 2.105 . S
O208 C202 1.268 . S
O209 Sc199 2.105 . S
O209 C203 1.268 . S
O210 Sc200 2.105 . S
O210 C204 1.268 . S
O211 Sc198 2.105 . S
O211 C205 1.268 . S
O212 Sc200 2.105 . S
O212 C206 1.268 . S
O213 Sc199 2.105 . S
O213 C207 1.268 . S
O214 Sc198 2.105 . S
O214 C206 1.268 . S
O215 Sc199 2.105 . S
O215 C205 1.268 . S
O216 Sc200 2.105 . S
O216 C207 1.268 . S
O217 Sc198 2.105 . S
O217 C203 1.268 . S
O218 Sc200 2.105 . S
O218 C202 1.268 . S
O219 Sc199 2.105 . S
O219 C204 1.268 . S
Sc220 O223 2.025 . S
Sc220 O230 2.105 . S
Sc220 O233 2.105 . S
Sc220 O236 2.105 . S
Sc220 O239 2.105 . S
Sc221 O223 2.025 . S
Sc221 O231 2.105 . S
Sc221 O235 2.105 . S
Sc221 O237 2.105 . S
Sc221 O241 2.105 . S
Sc222 O223 2.025 . S
Sc222 O232 2.105 . S
Sc222 O234 2.105 . S
Sc222 O238 2.105 . S
Sc222 O240 2.105 . S
O223 Sc220 2.025 . S
O223 Sc221 2.025 . S
O223 Sc222 2.025 . S
C224 O230 1.268 . S
C224 O240 1.268 . S
C225 O231 1.268 . S
C225 O239 1.268 . S
C226 O232 1.268 . S
C226 O241 1.268 . S
C227 O233 1.268 . S
C227 O237 1.268 . S
C228 O234 1.268 . S
C228 O236 1.268 . S
C229 O235 1.268 . S
C229 O238 1.268 . S
O230 Sc220 2.105 . S
O230 C224 1.268 . S
O231 Sc221 2.105 . S
O231 C225 1.268 . S
O232 Sc222 2.105 . S
O232 C226 1.268 . S
O233 Sc220 2.105 . S
O233 C227 1.268 . S
O234 Sc222 2.105 . S
O234 C228 1.268 . S
O235 Sc221 2.105 . S
O235 C229 1.268 . S
O236 Sc220 2.105 . S
O236 C228 1.268 . S
O237 Sc221 2.105 . S
O237 C227 1.268 . S
O238 Sc222 2.105 . S
O238 C229 1.268 . S
O239 Sc220 2.105 . S
O239 C225 1.268 . S
O240 Sc222 2.105 . S
O240 C224 1.268 . S
O241 Sc221 2.105 . S
O241 C226 1.268 . S
Sc242 O245 2.025 . S
Sc242 O252 2.105 . S
Sc242 O255 2.105 . S
Sc242 O258 2.105 . S
Sc242 O261 2.105 . S
Sc243 O245 2.025 . S
Sc243 O253 2.105 . S
Sc243 O257 2.105 . S
Sc243 O259 2.105 . S
Sc243 O263 2.105 . S
Sc244 O245 2.025 . S
Sc244 O254 2.105 . S
Sc244 O256 2.105 . S
Sc244 O260 2.105 . S
Sc244 O262 2.105 . S
O245 Sc242 2.025 . S
O245 Sc243 2.025 . S
O245 Sc244 2.025 . S
C246 O252 1.268 . S
C246 O262 1.268 . S
C247 O253 1.268 . S
C247 O261 1.268 . S
C248 O254 1.268 . S
C248 O263 1.268 . S
C249 O255 1.268 . S
C249 O259 1.268 . S
C250 O256 1.268 . S
C250 O258 1.268 . S
C251 O257 1.268 . S
C251 O260 1.268 . S
O252 Sc242 2.105 . S
O252 C246 1.268 . S
O253 Sc243 2.105 . S
O253 C247 1.268 . S
O254 Sc244 2.105 . S
O254 C248 1.268 . S
O255 Sc242 2.105 . S
O255 C249 1.268 . S
O256 Sc244 2.105 . S
O256 C250 1.268 . S
O257 Sc243 2.105 . S
O257 C251 1.268 . S
O258 Sc242 2.105 . S
O258 C250 1.268 . S
O259 Sc243 2.105 . S
O259 C249 1.268 . S
O260 Sc244 2.105 . S
O260 C251 1.268 . S
O261 Sc242 2.105 . S
O261 C247 1.268 . S
O262 Sc244 2.105 . S
O262 C246 1.268 . S
O263 Sc243 2.105 . S
O263 C248 1.268 . S
Sc264 O267 2.025 . S
Sc264 O274 2.105 . S
Sc264 O277 2.105 . S
Sc264 O280 2.105 . S
Sc264 O283 2.105 . S
Sc265 O267 2.025 . S
Sc265 O275 2.105 . S
Sc265 O279 2.105 . S
Sc265 O281 2.105 . S
Sc265 O285 2.105 . S
Sc266 O267 2.025 . S
Sc266 O276 2.105 . S
Sc266 O278 2.105 . S
Sc266 O282 2.105 . S
Sc266 O284 2.105 . S
O267 Sc264 2.025 . S
O267 Sc265 2.025 . S
O267 Sc266 2.025 . S
C268 O274 1.268 . S
C268 O284 1.268 . S
C269 O275 1.268 . S
C269 O283 1.268 . S
C270 O276 1.268 . S
C270 O285 1.268 . S
C271 O277 1.268 . S
C271 O281 1.268 . S
C272 O278 1.268 . S
C272 O280 1.268 . S
C273 O279 1.268 . S
C273 O282 1.268 . S
O274 Sc264 2.105 . S
O274 C268 1.268 . S
O275 Sc265 2.105 . S
O275 C269 1.268 . S
O276 Sc266 2.105 . S
O276 C270 1.268 . S
O277 Sc264 2.105 . S
O277 C271 1.268 . S
O278 Sc266 2.105 . S
O278 C272 1.268 . S
O279 Sc265 2.105 . S
O279 C273 1.268 . S
O280 Sc264 2.105 . S
O280 C272 1.268 . S
O281 Sc265 2.105 . S
O281 C271 1.268 . S
O282 Sc266 2.105 . S
O282 C273 1.268 . S
O283 Sc264 2.105 . S
O283 C269 1.268 . S
O284 Sc266 2.105 . S
O284 C268 1.268 . S
O285 Sc265 2.105 . S
O285 C270 1.268 . S
Sc286 O289 2.025 . S
Sc286 O296 2.105 . S
Sc286 O299 2.105 . S
Sc286 O302 2.105 . S
Sc286 O305 2.105 . S
Sc287 O289 2.025 . S
Sc287 O297 2.105 . S
Sc287 O301 2.105 . S
Sc287 O303 2.105 . S
Sc287 O307 2.105 . S
Sc288 O289 2.025 . S
Sc288 O298 2.105 . S
Sc288 O300 2.105 . S
Sc288 O304 2.105 . S
Sc288 O306 2.105 . S
O289 Sc286 2.025 . S
O289 Sc287 2.025 . S
O289 Sc288 2.025 . S
C290 O296 1.268 . S
C290 O306 1.268 . S
C291 O297 1.268 . S
C291 O305 1.268 . S
C292 O298 1.268 . S
C292 O307 1.268 . S
C293 O299 1.268 . S
C293 O303 1.268 . S
C294 O300 1.268 . S
C294 O302 1.268 . S
C295 O301 1.268 . S
C295 O304 1.268 . S
O296 Sc286 2.105 . S
O296 C290 1.268 . S
O297 Sc287 2.105 . S
O297 C291 1.268 . S
O298 Sc288 2.105 . S
O298 C292 1.268 . S
O299 Sc286 2.105 . S
O299 C293 1.268 . S
O300 Sc288 2.105 . S
O300 C294 1.268 . S
O301 Sc287 2.105 . S
O301 C295 1.268 . S
O302 Sc286 2.105 . S
O302 C294 1.268 . S
O303 Sc287 2.105 . S
O303 C293 1.268 . S
O304 Sc288 2.105 . S
O304 C295 1.268 . S
O305 Sc286 2.105 . S
O305 C291 1.268 . S
O306 Sc288 2.105 . S
O306 C290 1.268 . S
O307 Sc287 2.105 . S
O307 C292 1.268 . S
Sc308 O311 2.025 . S
Sc308 O318 2.105 . S
Sc308 O321 2.105 . S
Sc308 O324 2.105 . S
Sc308 O327 2.105 . S
Sc309 O311 2.025 . S
Sc309 O319 2.105 . S
Sc309 O323 2.105 . S
Sc309 O325 2.105 . S
Sc309 O329 2.105 . S
Sc310 O311 2.025 . S
Sc310 O320 2.105 . S
Sc310 O322 2.105 . S
Sc310 O326 2.105 . S
Sc310 O328 2.105 . S
O311 Sc308 2.025 . S
O311 Sc309 2.025 . S
O311 Sc310 2.025 . S
C312 O318 1.268 . S
C312 O328 1.268 . S
C313 O319 1.268 . S
C313 O327 1.268 . S
C314 O320 1.268 . S
C314 O329 1.268 . S
C315 O321 1.268 . S
C315 O325 1.268 . S
C316 O322 1.268 . S
C316 O324 1.268 . S
C317 O323 1.268 . S
C317 O326 1.268 . S
O318 Sc308 2.105 . S
O318 C312 1.268 . S
O319 Sc309 2.105 . S
O319 C313 1.268 . S
O320 Sc310 2.105 . S
O320 C314 1.268 . S
O321 Sc308 2.105 . S
O321 C315 1.268 . S
O322 Sc310 2.105 . S
O322 C316 1.268 . S
O323 Sc309 2.105 . S
O323 C317 1.268 . S
O324 Sc308 2.105 . S
O324 C316 1.268 . S
O325 Sc309 2.105 . S
O325 C315 1.268 . S
O326 Sc310 2.105 . S
O326 C317 1.268 . S
O327 Sc308 2.105 . S
O327 C313 1.268 . S
O328 Sc310 2.105 . S
O328 C312 1.268 . S
O329 Sc309 2.105 . S
O329 C314 1.268 . S
Sc330 O333 2.025 . S
Sc330 O340 2.105 . S
Sc330 O343 2.105 . S
Sc330 O346 2.105 . S
Sc330 O349 2.105 . S
Sc331 O333 2.025 . S
Sc331 O341 2.105 . S
Sc331 O345 2.105 . S
Sc331 O347 2.105 . S
Sc331 O351 2.105 . S
Sc332 O333 2.025 . S
Sc332 O342 2.105 . S
Sc332 O344 2.105 . S
Sc332 O348 2.105 . S
Sc332 O350 2.105 . S
O333 Sc330 2.025 . S
O333 Sc331 2.025 . S
O333 Sc332 2.025 . S
C334 O340 1.268 . S
C334 O350 1.268 . S
C335 O341 1.268 . S
C335 O349 1.268 . S
C336 O342 1.268 . S
C336 O351 1.268 . S
C337 O343 1.268 . S
C337 O347 1.268 . S
C338 O344 1.268 . S
C338 O346 1.268 . S
C339 O345 1.268 . S
C339 O348 1.268 . S
O340 Sc330 2.105 . S
O340 C334 1.268 . S
O341 Sc331 2.105 . S
O341 C335 1.268 . S
O342 Sc332 2.105 . S
O342 C336 1.268 . S
O343 Sc330 2.105 . S
O343 C337 1.268 . S
O344 Sc332 2.105 . S
O344 C338 1.268 . S
O345 Sc331 2.105 . S
O345 C339 1.268 . S
O346 Sc330 2.105 . S
O346 C338 1.268 . S
O347 Sc331 2.105 . S
O347 C337 1.268 . S
O348 Sc332 2.105 . S
O348 C339 1.268 . S
O349 Sc330 2.105 . S
O349 C335 1.268 . S
O350 Sc332 2.105 . S
O350 C334 1.268 . S
O351 Sc331 2.105 . S
O351 C336 1.268 . S
Sc352 O355 2.025 . S
Sc352 O362 2.105 . S
Sc352 O365 2.105 . S
Sc352 O368 2.105 . S
Sc352 O371 2.105 . S
Sc353 O355 2.025 . S
Sc353 O363 2.105 . S
Sc353 O367 2.105 . S
Sc353 O369 2.105 . S
Sc353 O373 2.105 . S
Sc354 O355 2.025 . S
Sc354 O364 2.105 . S
Sc354 O366 2.105 . S
Sc354 O370 2.105 . S
Sc354 O372 2.105 . S
O355 Sc352 2.025 . S
O355 Sc353 2.025 . S
O355 Sc354 2.025 . S
C356 O362 1.268 . S
C356 O372 1.268 . S
C357 O363 1.268 . S
C357 O371 1.268 . S
C358 O364 1.268 . S
C358 O373 1.268 . S
C359 O365 1.268 . S
C359 O369 1.268 . S
C360 O366 1.268 . S
C360 O368 1.268 . S
C361 O367 1.268 . S
C361 O370 1.268 . S
O362 Sc352 2.105 . S
O362 C356 1.268 . S
O363 Sc353 2.105 . S
O363 C357 1.268 . S
O364 Sc354 2.105 . S
O364 C358 1.268 . S
O365 Sc352 2.105 . S
O365 C359 1.268 . S
O366 Sc354 2.105 . S
O366 C360 1.268 . S
O367 Sc353 2.105 . S
O367 C361 1.268 . S
O368 Sc352 2.105 . S
O368 C360 1.268 . S
O369 Sc353 2.105 . S
O369 C359 1.268 . S
O370 Sc354 2.105 . S
O370 C361 1.268 . S
O371 Sc352 2.105 . S
O371 C357 1.268 . S
O372 Sc354 2.105 . S
O372 C356 1.268 . S
O373 Sc353 2.105 . S
O373 C358 1.268 . S
Sc374 O377 2.025 . S
Sc374 O384 2.105 . S
Sc374 O387 2.105 . S
Sc374 O390 2.105 . S
Sc374 O393 2.105 . S
Sc375 O377 2.025 . S
Sc375 O385 2.105 . S
Sc375 O389 2.105 . S
Sc375 O391 2.105 . S
Sc375 O395 2.105 . S
Sc376 O377 2.025 . S
Sc376 O386 2.105 . S
Sc376 O388 2.105 . S
Sc376 O392 2.105 . S
Sc376 O394 2.105 . S
O377 Sc374 2.025 . S
O377 Sc375 2.025 . S
O377 Sc376 2.025 . S
C378 O384 1.268 . S
C378 O394 1.268 . S
C379 O385 1.268 . S
C379 O393 1.268 . S
C380 O386 1.268 . S
C380 O395 1.268 . S
C381 O387 1.268 . S
C381 O391 1.268 . S
C382 O388 1.268 . S
C382 O390 1.268 . S
C383 O389 1.268 . S
C383 O392 1.268 . S
O384 Sc374 2.105 . S
O384 C378 1.268 . S
O385 Sc375 2.105 . S
O385 C379 1.268 . S
O386 Sc376 2.105 . S
O386 C380 1.268 . S
O387 Sc374 2.105 . S
O387 C381 1.268 . S
O388 Sc376 2.105 . S
O388 C382 1.268 . S
O389 Sc375 2.105 . S
O389 C383 1.268 . S
O390 Sc374 2.105 . S
O390 C382 1.268 . S
O391 Sc375 2.105 . S
O391 C381 1.268 . S
O392 Sc376 2.105 . S
O392 C383 1.268 . S
O393 Sc374 2.105 . S
O393 C379 1.268 . S
O394 Sc376 2.105 . S
O394 C378 1.268 . S
O395 Sc375 2.105 . S
O395 C380 1.268 . S
Sc396 O399 2.025 . S
Sc396 O406 2.105 . S
Sc396 O409 2.105 . S
Sc396 O412 2.105 . S
Sc396 O415 2.105 . S
Sc397 O399 2.025 . S
Sc397 O407 2.105 . S
Sc397 O411 2.105 . S
Sc397 O413 2.105 . S
Sc397 O417 2.105 . S
Sc398 O399 2.025 . S
Sc398 O408 2.105 . S
Sc398 O410 2.105 . S
Sc398 O414 2.105 . S
Sc398 O416 2.105 . S
O399 Sc396 2.025 . S
O399 Sc397 2.025 . S
O399 Sc398 2.025 . S
C400 O406 1.268 . S
C400 O416 1.268 . S
C401 O407 1.268 . S
C401 O415 1.268 . S
C402 O408 1.268 . S
C402 O417 1.268 . S
C403 O409 1.268 . S
C403 O413 1.268 . S
C404 O410 1.268 . S
C404 O412 1.268 . S
C405 O411 1.268 . S
C405 O414 1.268 . S
O406 Sc396 2.105 . S
O406 C400 1.268 . S
O407 Sc397 2.105 . S
O407 C401 1.268 . S
O408 Sc398 2.105 . S
O408 C402 1.268 . S
O409 Sc396 2.105 . S
O409 C403 1.268 . S
O410 Sc398 2.105 . S
O410 C404 1.268 . S
O411 Sc397 2.105 . S
O411 C405 1.268 . S
O412 Sc396 2.105 . S
O412 C404 1.268 . S
O413 Sc397 2.105 . S
O413 C403 1.268 . S
O414 Sc398 2.105 . S
O414 C405 1.268 . S
O415 Sc396 2.105 . S
O415 C401 1.268 . S
O416 Sc398 2.105 . S
O416 C400 1.268 . S
O417 Sc397 2.105 . S
O417 C402 1.268 . S
Sc418 O421 2.025 . S
Sc418 O428 2.105 . S
Sc418 O431 2.105 . S
Sc418 O434 2.105 . S
Sc418 O437 2.105 . S
Sc419 O421 2.025 . S
Sc419 O429 2.105 . S
Sc419 O433 2.105 . S
Sc419 O435 2.105 . S
Sc419 O439 2.105 . S
Sc420 O421 2.025 . S
Sc420 O430 2.105 . S
Sc420 O432 2.105 . S
Sc420 O436 2.105 . S
Sc420 O438 2.105 . S
O421 Sc418 2.025 . S
O421 Sc419 2.025 . S
O421 Sc420 2.025 . S
C422 O428 1.268 . S
C422 O438 1.268 . S
C423 O429 1.268 . S
C423 O437 1.268 . S
C424 O430 1.268 . S
C424 O439 1.268 . S
C425 O431 1.268 . S
C425 O435 1.268 . S
C426 O432 1.268 . S
C426 O434 1.268 . S
C427 O433 1.268 . S
C427 O436 1.268 . S
O428 Sc418 2.105 . S
O428 C422 1.268 . S
O429 Sc419 2.105 . S
O429 C423 1.268 . S
O430 Sc420 2.105 . S
O430 C424 1.268 . S
O431 Sc418 2.105 . S
O431 C425 1.268 . S
O432 Sc420 2.105 . S
O432 C426 1.268 . S
O433 Sc419 2.105 . S
O433 C427 1.268 . S
O434 Sc418 2.105 . S
O434 C426 1.268 . S
O435 Sc419 2.105 . S
O435 C425 1.268 . S
O436 Sc420 2.105 . S
O436 C427 1.268 . S
O437 Sc418 2.105 . S
O437 C423 1.268 . S
O438 Sc420 2.105 . S
O438 C422 1.268 . S
O439 Sc419 2.105 . S
O439 C424 1.268 . S
Sc440 O443 2.025 . S
Sc440 O450 2.105 . S
Sc440 O453 2.105 . S
Sc440 O456 2.105 . S
Sc440 O459 2.105 . S
Sc441 O443 2.025 . S
Sc441 O451 2.105 . S
Sc441 O455 2.105 . S
Sc441 O457 2.105 . S
Sc441 O461 2.105 . S
Sc442 O443 2.025 . S
Sc442 O452 2.105 . S
Sc442 O454 2.105 . S
Sc442 O458 2.105 . S
Sc442 O460 2.105 . S
O443 Sc440 2.025 . S
O443 Sc441 2.025 . S
O443 Sc442 2.025 . S
C444 O450 1.268 . S
C444 O460 1.268 . S
C445 O451 1.268 . S
C445 O459 1.268 . S
C446 O452 1.268 . S
C446 O461 1.268 . S
C447 O453 1.268 . S
C447 O457 1.268 . S
C448 O454 1.268 . S
C448 O456 1.268 . S
C449 O455 1.268 . S
C449 O458 1.268 . S
O450 Sc440 2.105 . S
O450 C444 1.268 . S
O451 Sc441 2.105 . S
O451 C445 1.268 . S
O452 Sc442 2.105 . S
O452 C446 1.268 . S
O453 Sc440 2.105 . S
O453 C447 1.268 . S
O454 Sc442 2.105 . S
O454 C448 1.268 . S
O455 Sc441 2.105 . S
O455 C449 1.268 . S
O456 Sc440 2.105 . S
O456 C448 1.268 . S
O457 Sc441 2.105 . S
O457 C447 1.268 . S
O458 Sc442 2.105 . S
O458 C449 1.268 . S
O459 Sc440 2.105 . S
O459 C445 1.268 . S
O460 Sc442 2.105 . S
O460 C444 1.268 . S
O461 Sc441 2.105 . S
O461 C446 1.268 . S
Sc462 O465 2.025 . S
Sc462 O472 2.105 . S
Sc462 O475 2.105 . S
Sc462 O478 2.105 . S
Sc462 O481 2.105 . S
Sc463 O465 2.025 . S
Sc463 O473 2.105 . S
Sc463 O477 2.105 . S
Sc463 O479 2.105 . S
Sc463 O483 2.105 . S
Sc464 O465 2.025 . S
Sc464 O474 2.105 . S
Sc464 O476 2.105 . S
Sc464 O480 2.105 . S
Sc464 O482 2.105 . S
O465 Sc462 2.025 . S
O465 Sc463 2.025 . S
O465 Sc464 2.025 . S
C466 O472 1.268 . S
C466 O482 1.268 . S
C467 O473 1.268 . S
C467 O481 1.268 . S
C468 O474 1.268 . S
C468 O483 1.268 . S
C469 O475 1.268 . S
C469 O479 1.268 . S
C470 O476 1.268 . S
C470 O478 1.268 . S
C471 O477 1.268 . S
C471 O480 1.268 . S
O472 Sc462 2.105 . S
O472 C466 1.268 . S
O473 Sc463 2.105 . S
O473 C467 1.268 . S
O474 Sc464 2.105 . S
O474 C468 1.268 . S
O475 Sc462 2.105 . S
O475 C469 1.268 . S
O476 Sc464 2.105 . S
O476 C470 1.268 . S
O477 Sc463 2.105 . S
O477 C471 1.268 . S
O478 Sc462 2.105 . S
O478 C470 1.268 . S
O479 Sc463 2.105 . S
O479 C469 1.268 . S
O480 Sc464 2.105 . S
O480 C471 1.268 . S
O481 Sc462 2.105 . S
O481 C467 1.268 . S
O482 Sc464 2.105 . S
O482 C466 1.268 . S
O483 Sc463 2.105 . S
O483 C468 1.268 . S
Sc484 O487 2.025 . S
Sc484 O494 2.105 . S
Sc484 O497 2.105 . S
Sc484 O500 2.105 . S
Sc484 O503 2.105 . S
Sc485 O487 2.025 . S
Sc485 O495 2.105 . S
Sc485 O499 2.105 . S
Sc485 O501 2.105 . S
Sc485 O505 2.105 . S
Sc486 O487 2.025 . S
Sc486 O496 2.105 . S
Sc486 O498 2.105 . S
Sc486 O502 2.105 . S
Sc486 O504 2.105 . S
O487 Sc484 2.025 . S
O487 Sc485 2.025 . S
O487 Sc486 2.025 . S
C488 O494 1.268 . S
C488 O504 1.268 . S
C489 O495 1.268 . S
C489 O503 1.268 . S
C490 O496 1.268 . S
C490 O505 1.268 . S
C491 O497 1.268 . S
C491 O501 1.268 . S
C492 O498 1.268 . S
C492 O500 1.268 . S
C493 O499 1.268 . S
C493 O502 1.268 . S
O494 Sc484 2.105 . S
O494 C488 1.268 . S
O495 Sc485 2.105 . S
O495 C489 1.268 . S
O496 Sc486 2.105 . S
O496 C490 1.268 . S
O497 Sc484 2.105 . S
O497 C491 1.268 . S
O498 Sc486 2.105 . S
O498 C492 1.268 . S
O499 Sc485 2.105 . S
O499 C493 1.268 . S
O500 Sc484 2.105 . S
O500 C492 1.268 . S
O501 Sc485 2.105 . S
O501 C491 1.268 . S
O502 Sc486 2.105 . S
O502 C493 1.268 . S
O503 Sc484 2.105 . S
O503 C489 1.268 . S
O504 Sc486 2.105 . S
O504 C488 1.268 . S
O505 Sc485 2.105 . S
O505 C490 1.268 . S
Sc506 O509 2.025 . S
Sc506 O516 2.105 . S
Sc506 O519 2.105 . S
Sc506 O522 2.105 . S
Sc506 O525 2.105 . S
Sc507 O509 2.025 . S
Sc507 O517 2.105 . S
Sc507 O521 2.105 . S
Sc507 O523 2.105 . S
Sc507 O527 2.105 . S
Sc508 O509 2.025 . S
Sc508 O518 2.105 . S
Sc508 O520 2.105 . S
Sc508 O524 2.105 . S
Sc508 O526 2.105 . S
O509 Sc506 2.025 . S
O509 Sc507 2.025 . S
O509 Sc508 2.025 . S
C510 O516 1.268 . S
C510 O526 1.268 . S
C511 O517 1.268 . S
C511 O525 1.268 . S
C512 O518 1.268 . S
C512 O527 1.268 . S
C513 O519 1.268 . S
C513 O523 1.268 . S
C514 O520 1.268 . S
C514 O522 1.268 . S
C515 O521 1.268 . S
C515 O524 1.268 . S
O516 Sc506 2.105 . S
O516 C510 1.268 . S
O517 Sc507 2.105 . S
O517 C511 1.268 . S
O518 Sc508 2.105 . S
O518 C512 1.268 . S
O519 Sc506 2.105 . S
O519 C513 1.268 . S
O520 Sc508 2.105 . S
O520 C514 1.268 . S
O521 Sc507 2.105 . S
O521 C515 1.268 . S
O522 Sc506 2.105 . S
O522 C514 1.268 . S
O523 Sc507 2.105 . S
O523 C513 1.268 . S
O524 Sc508 2.105 . S
O524 C515 1.268 . S
O525 Sc506 2.105 . S
O525 C511 1.268 . S
O526 Sc508 2.105 . S
O526 C510 1.268 . S
O527 Sc507 2.105 . S
O527 C512 1.268 . S
Sc528 O531 2.025 . S
Sc528 O538 2.105 . S
Sc528 O541 2.105 . S
Sc528 O544 2.105 . S
Sc528 O547 2.105 . S
Sc529 O531 2.025 . S
Sc529 O539 2.105 . S
Sc529 O543 2.105 . S
Sc529 O545 2.105 . S
Sc529 O549 2.105 . S
Sc530 O531 2.025 . S
Sc530 O540 2.105 . S
Sc530 O542 2.105 . S
Sc530 O546 2.105 . S
Sc530 O548 2.105 . S
O531 Sc528 2.025 . S
O531 Sc529 2.025 . S
O531 Sc530 2.025 . S
C532 O538 1.268 . S
C532 O548 1.268 . S
C533 O539 1.268 . S
C533 O547 1.268 . S
C534 O540 1.268 . S
C534 O549 1.268 . S
C535 O541 1.268 . S
C535 O545 1.268 . S
C536 O542 1.268 . S
C536 O544 1.268 . S
C537 O543 1.268 . S
C537 O546 1.268 . S
O538 Sc528 2.105 . S
O538 C532 1.268 . S
O539 Sc529 2.105 . S
O539 C533 1.268 . S
O540 Sc530 2.105 . S
O540 C534 1.268 . S
O541 Sc528 2.105 . S
O541 C535 1.268 . S
O542 Sc530 2.105 . S
O542 C536 1.268 . S
O543 Sc529 2.105 . S
O543 C537 1.268 . S
O544 Sc528 2.105 . S
O544 C536 1.268 . S
O545 Sc529 2.105 . S
O545 C535 1.268 . S
O546 Sc530 2.105 . S
O546 C537 1.268 . S
O547 Sc528 2.105 . S
O547 C533 1.268 . S
O548 Sc530 2.105 . S
O548 C532 1.268 . S
O549 Sc529 2.105 . S
O549 C534 1.268 . S
Sc550 O553 2.025 . S
Sc550 O560 2.105 . S
Sc550 O563 2.105 . S
Sc550 O566 2.105 . S
Sc550 O569 2.105 . S
Sc551 O553 2.025 . S
Sc551 O561 2.105 . S
Sc551 O565 2.105 . S
Sc551 O567 2.105 . S
Sc551 O571 2.105 . S
Sc552 O553 2.025 . S
Sc552 O562 2.105 . S
Sc552 O564 2.105 . S
Sc552 O568 2.105 . S
Sc552 O570 2.105 . S
O553 Sc550 2.025 . S
O553 Sc551 2.025 . S
O553 Sc552 2.025 . S
C554 O560 1.268 . S
C554 O570 1.268 . S
C555 O561 1.268 . S
C555 O569 1.268 . S
C556 O562 1.268 . S
C556 O571 1.268 . S
C557 O563 1.268 . S
C557 O567 1.268 . S
C558 O564 1.268 . S
C558 O566 1.268 . S
C559 O565 1.268 . S
C559 O568 1.268 . S
O560 Sc550 2.105 . S
O560 C554 1.268 . S
O561 Sc551 2.105 . S
O561 C555 1.268 . S
O562 Sc552 2.105 . S
O562 C556 1.268 . S
O563 Sc550 2.105 . S
O563 C557 1.268 . S
O564 Sc552 2.105 . S
O564 C558 1.268 . S
O565 Sc551 2.105 . S
O565 C559 1.268 . S
O566 Sc550 2.105 . S
O566 C558 1.268 . S
O567 Sc551 2.105 . S
O567 C557 1.268 . S
O568 Sc552 2.105 . S
O568 C559 1.268 . S
O569 Sc550 2.105 . S
O569 C555 1.268 . S
O570 Sc552 2.105 . S
O570 C554 1.268 . S
O571 Sc551 2.105 . S
O571 C556 1.268 . S
Sc572 O575 2.025 . S
Sc572 O582 2.105 . S
Sc572 O585 2.105 . S
Sc572 O588 2.105 . S
Sc572 O591 2.105 . S
Sc573 O575 2.025 . S
Sc573 O583 2.105 . S
Sc573 O587 2.105 . S
Sc573 O589 2.105 . S
Sc573 O593 2.105 . S
Sc574 O575 2.025 . S
Sc574 O584 2.105 . S
Sc574 O586 2.105 . S
Sc574 O590 2.105 . S
Sc574 O592 2.105 . S
O575 Sc572 2.025 . S
O575 Sc573 2.025 . S
O575 Sc574 2.025 . S
C576 O582 1.268 . S
C576 O592 1.268 . S
C577 O583 1.268 . S
C577 O591 1.268 . S
C578 O584 1.268 . S
C578 O593 1.268 . S
C579 O585 1.268 . S
C579 O589 1.268 . S
C580 O586 1.268 . S
C580 O588 1.268 . S
C581 O587 1.268 . S
C581 O590 1.268 . S
O582 Sc572 2.105 . S
O582 C576 1.268 . S
O583 Sc573 2.105 . S
O583 C577 1.268 . S
O584 Sc574 2.105 . S
O584 C578 1.268 . S
O585 Sc572 2.105 . S
O585 C579 1.268 . S
O586 Sc574 2.105 . S
O586 C580 1.268 . S
O587 Sc573 2.105 . S
O587 C581 1.268 . S
O588 Sc572 2.105 . S
O588 C580 1.268 . S
O589 Sc573 2.105 . S
O589 C579 1.268 . S
O590 Sc574 2.105 . S
O590 C581 1.268 . S
O591 Sc572 2.105 . S
O591 C577 1.268 . S
O592 Sc574 2.105 . S
O592 C576 1.268 . S
O593 Sc573 2.105 . S
O593 C578 1.268 . S
Sc594 O597 2.025 . S
Sc594 O604 2.105 . S
Sc594 O607 2.105 . S
Sc594 O610 2.105 . S
Sc594 O613 2.105 . S
Sc595 O597 2.025 . S
Sc595 O605 2.105 . S
Sc595 O609 2.105 . S
Sc595 O611 2.105 . S
Sc595 O615 2.105 . S
Sc596 O597 2.025 . S
Sc596 O606 2.105 . S
Sc596 O608 2.105 . S
Sc596 O612 2.105 . S
Sc596 O614 2.105 . S
O597 Sc594 2.025 . S
O597 Sc595 2.025 . S
O597 Sc596 2.025 . S
C598 O604 1.268 . S
C598 O614 1.268 . S
C599 O605 1.268 . S
C599 O613 1.268 . S
C600 O606 1.268 . S
C600 O615 1.268 . S
C601 O607 1.268 . S
C601 O611 1.268 . S
C602 O608 1.268 . S
C602 O610 1.268 . S
C603 O609 1.268 . S
C603 O612 1.268 . S
O604 Sc594 2.105 . S
O604 C598 1.268 . S
O605 Sc595 2.105 . S
O605 C599 1.268 . S
O606 Sc596 2.105 . S
O606 C600 1.268 . S
O607 Sc594 2.105 . S
O607 C601 1.268 . S
O608 Sc596 2.105 . S
O608 C602 1.268 . S
O609 Sc595 2.105 . S
O609 C603 1.268 . S
O610 Sc594 2.105 . S
O610 C602 1.268 . S
O611 Sc595 2.105 . S
O611 C601 1.268 . S
O612 Sc596 2.105 . S
O612 C603 1.268 . S
O613 Sc594 2.105 . S
O613 C599 1.268 . S
O614 Sc596 2.105 . S
O614 C598 1.268 . S
O615 Sc595 2.105 . S
O615 C600 1.268 . S
Sc616 O619 2.025 . S
Sc616 O626 2.105 . S
Sc616 O629 2.105 . S
Sc616 O632 2.105 . S
Sc616 O635 2.105 . S
Sc617 O619 2.025 . S
Sc617 O627 2.105 . S
Sc617 O631 2.105 . S
Sc617 O633 2.105 . S
Sc617 O637 2.105 . S
Sc618 O619 2.025 . S
Sc618 O628 2.105 . S
Sc618 O630 2.105 . S
Sc618 O634 2.105 . S
Sc618 O636 2.105 . S
O619 Sc616 2.025 . S
O619 Sc617 2.025 . S
O619 Sc618 2.025 . S
C620 O626 1.268 . S
C620 O636 1.268 . S
C621 O627 1.268 . S
C621 O635 1.268 . S
C622 O628 1.268 . S
C622 O637 1.268 . S
C623 O629 1.268 . S
C623 O633 1.268 . S
C624 O630 1.268 . S
C624 O632 1.268 . S
C625 O631 1.268 . S
C625 O634 1.268 . S
O626 Sc616 2.105 . S
O626 C620 1.268 . S
O627 Sc617 2.105 . S
O627 C621 1.268 . S
O628 Sc618 2.105 . S
O628 C622 1.268 . S
O629 Sc616 2.105 . S
O629 C623 1.268 . S
O630 Sc618 2.105 . S
O630 C624 1.268 . S
O631 Sc617 2.105 . S
O631 C625 1.268 . S
O632 Sc616 2.105 . S
O632 C624 1.268 . S
O633 Sc617 2.105 . S
O633 C623 1.268 . S
O634 Sc618 2.105 . S
O634 C625 1.268 . S
O635 Sc616 2.105 . S
O635 C621 1.268 . S
O636 Sc618 2.105 . S
O636 C620 1.268 . S
O637 Sc617 2.105 . S
O637 C622 1.268 . S
Sc638 O641 2.025 . S
Sc638 O648 2.105 . S
Sc638 O651 2.105 . S
Sc638 O654 2.105 . S
Sc638 O657 2.105 . S
Sc639 O641 2.025 . S
Sc639 O649 2.105 . S
Sc639 O653 2.105 . S
Sc639 O655 2.105 . S
Sc639 O659 2.105 . S
Sc640 O641 2.025 . S
Sc640 O650 2.105 . S
Sc640 O652 2.105 . S
Sc640 O656 2.105 . S
Sc640 O658 2.105 . S
O641 Sc638 2.025 . S
O641 Sc639 2.025 . S
O641 Sc640 2.025 . S
C642 O648 1.268 . S
C642 O658 1.268 . S
C643 O649 1.268 . S
C643 O657 1.268 . S
C644 O650 1.268 . S
C644 O659 1.268 . S
C645 O651 1.268 . S
C645 O655 1.268 . S
C646 O652 1.268 . S
C646 O654 1.268 . S
C647 O653 1.268 . S
C647 O656 1.268 . S
O648 Sc638 2.105 . S
O648 C642 1.268 . S
O649 Sc639 2.105 . S
O649 C643 1.268 . S
O650 Sc640 2.105 . S
O650 C644 1.268 . S
O651 Sc638 2.105 . S
O651 C645 1.268 . S
O652 Sc640 2.105 . S
O652 C646 1.268 . S
O653 Sc639 2.105 . S
O653 C647 1.268 . S
O654 Sc638 2.105 . S
O654 C646 1.268 . S
O655 Sc639 2.105 . S
O655 C645 1.268 . S
O656 Sc640 2.105 . S
O656 C647 1.268 . S
O657 Sc638 2.105 . S
O657 C643 1.268 . S
O658 Sc640 2.105 . S
O658 C642 1.268 . S
O659 Sc639 2.105 . S
O659 C644 1.268 . S
Sc660 O663 2.025 . S
Sc660 O670 2.105 . S
Sc660 O673 2.105 . S
Sc660 O676 2.105 . S
Sc660 O679 2.105 . S
Sc661 O663 2.025 . S
Sc661 O671 2.105 . S
Sc661 O675 2.105 . S
Sc661 O677 2.105 . S
Sc661 O681 2.105 . S
Sc662 O663 2.025 . S
Sc662 O672 2.105 . S
Sc662 O674 2.105 . S
Sc662 O678 2.105 . S
Sc662 O680 2.105 . S
O663 Sc660 2.025 . S
O663 Sc661 2.025 . S
O663 Sc662 2.025 . S
C664 O670 1.268 . S
C664 O680 1.268 . S
C665 O671 1.268 . S
C665 O679 1.268 . S
C666 O672 1.268 . S
C666 O681 1.268 . S
C667 O673 1.268 . S
C667 O677 1.268 . S
C668 O674 1.268 . S
C668 O676 1.268 . S
C669 O675 1.268 . S
C669 O678 1.268 . S
O670 Sc660 2.105 . S
O670 C664 1.268 . S
O671 Sc661 2.105 . S
O671 C665 1.268 . S
O672 Sc662 2.105 . S
O672 C666 1.268 . S
O673 Sc660 2.105 . S
O673 C667 1.268 . S
O674 Sc662 2.105 . S
O674 C668 1.268 . S
O675 Sc661 2.105 . S
O675 C669 1.268 . S
O676 Sc660 2.105 . S
O676 C668 1.268 . S
O677 Sc661 2.105 . S
O677 C667 1.268 . S
O678 Sc662 2.105 . S
O678 C669 1.268 . S
O679 Sc660 2.105 . S
O679 C665 1.268 . S
O680 Sc662 2.105 . S
O680 C664 1.268 . S
O681 Sc661 2.105 . S
O681 C666 1.268 . S
Sc682 O685 2.025 . S
Sc682 O692 2.105 . S
Sc682 O695 2.105 . S
Sc682 O698 2.105 . S
Sc682 O701 2.105 . S
Sc683 O685 2.025 . S
Sc683 O693 2.105 . S
Sc683 O697 2.105 . S
Sc683 O699 2.105 . S
Sc683 O703 2.105 . S
Sc684 O685 2.025 . S
Sc684 O694 2.105 . S
Sc684 O696 2.105 . S
Sc684 O700 2.105 . S
Sc684 O702 2.105 . S
O685 Sc682 2.025 . S
O685 Sc683 2.025 . S
O685 Sc684 2.025 . S
C686 O692 1.268 . S
C686 O702 1.268 . S
C687 O693 1.268 . S
C687 O701 1.268 . S
C688 O694 1.268 . S
C688 O703 1.268 . S
C689 O695 1.268 . S
C689 O699 1.268 . S
C690 O696 1.268 . S
C690 O698 1.268 . S
C691 O697 1.268 . S
C691 O700 1.268 . S
O692 Sc682 2.105 . S
O692 C686 1.268 . S
O693 Sc683 2.105 . S
O693 C687 1.268 . S
O694 Sc684 2.105 . S
O694 C688 1.268 . S
O695 Sc682 2.105 . S
O695 C689 1.268 . S
O696 Sc684 2.105 . S
O696 C690 1.268 . S
O697 Sc683 2.105 . S
O697 C691 1.268 . S
O698 Sc682 2.105 . S
O698 C690 1.268 . S
O699 Sc683 2.105 . S
O699 C689 1.268 . S
O700 Sc684 2.105 . S
O700 C691 1.268 . S
O701 Sc682 2.105 . S
O701 C687 1.268 . S
O702 Sc684 2.105 . S
O702 C686 1.268 . S
O703 Sc683 2.105 . S
O703 C688 1.268 . S
Sc704 O707 2.025 . S
Sc704 O714 2.105 . S
Sc704 O717 2.105 . S
Sc704 O720 2.105 . S
Sc704 O723 2.105 . S
Sc705 O707 2.025 . S
Sc705 O715 2.105 . S
Sc705 O719 2.105 . S
Sc705 O721 2.105 . S
Sc705 O725 2.105 . S
Sc706 O707 2.025 . S
Sc706 O716 2.105 . S
Sc706 O718 2.105 . S
Sc706 O722 2.105 . S
Sc706 O724 2.105 . S
O707 Sc704 2.025 . S
O707 Sc705 2.025 . S
O707 Sc706 2.025 . S
C708 O714 1.268 . S
C708 O724 1.268 . S
C709 O715 1.268 . S
C709 O723 1.268 . S
C710 O716 1.268 . S
C710 O725 1.268 . S
C711 O717 1.268 . S
C711 O721 1.268 . S
C712 O718 1.268 . S
C712 O720 1.268 . S
C713 O719 1.268 . S
C713 O722 1.268 . S
O714 Sc704 2.105 . S
O714 C708 1.268 . S
O715 Sc705 2.105 . S
O715 C709 1.268 . S
O716 Sc706 2.105 . S
O716 C710 1.268 . S
O717 Sc704 2.105 . S
O717 C711 1.268 . S
O718 Sc706 2.105 . S
O718 C712 1.268 . S
O719 Sc705 2.105 . S
O719 C713 1.268 . S
O720 Sc704 2.105 . S
O720 C712 1.268 . S
O721 Sc705 2.105 . S
O721 C711 1.268 . S
O722 Sc706 2.105 . S
O722 C713 1.268 . S
O723 Sc704 2.105 . S
O723 C709 1.268 . S
O724 Sc706 2.105 . S
O724 C708 1.268 . S
O725 Sc705 2.105 . S
O725 C710 1.268 . S
Sc726 O729 2.025 . S
Sc726 O736 2.105 . S
Sc726 O739 2.105 . S
Sc726 O742 2.105 . S
Sc726 O745 2.105 . S
Sc727 O729 2.025 . S
Sc727 O737 2.105 . S
Sc727 O741 2.105 . S
Sc727 O743 2.105 . S
Sc727 O747 2.105 . S
Sc728 O729 2.025 . S
Sc728 O738 2.105 . S
Sc728 O740 2.105 . S
Sc728 O744 2.105 . S
Sc728 O746 2.105 . S
O729 Sc726 2.025 . S
O729 Sc727 2.025 . S
O729 Sc728 2.025 . S
C730 O736 1.268 . S
C730 O746 1.268 . S
C731 O737 1.268 . S
C731 O745 1.268 . S
C732 O738 1.268 . S
C732 O747 1.268 . S
C733 O739 1.268 . S
C733 O743 1.268 . S
C734 O740 1.268 . S
C734 O742 1.268 . S
C735 O741 1.268 . S
C735 O744 1.268 . S
O736 Sc726 2.105 . S
O736 C730 1.268 . S
O737 Sc727 2.105 . S
O737 C731 1.268 . S
O738 Sc728 2.105 . S
O738 C732 1.268 . S
O739 Sc726 2.105 . S
O739 C733 1.268 . S
O740 Sc728 2.105 . S
O740 C734 1.268 . S
O741 Sc727 2.105 . S
O741 C735 1.268 . S
O742 Sc726 2.105 . S
O742 C734 1.268 . S
O743 Sc727 2.105 . S
O743 C733 1.268 . S
O744 Sc728 2.105 . S
O744 C735 1.268 . S
O745 Sc726 2.105 . S
O745 C731 1.268 . S
O746 Sc728 2.105 . S
O746 C730 1.268 . S
O747 Sc727 2.105 . S
O747 C732 1.268 . S
Sc748 O751 2.025 . S
Sc748 O758 2.105 . S
Sc748 O761 2.105 . S
Sc748 O764 2.105 . S
Sc748 O767 2.105 . S
Sc749 O751 2.025 . S
Sc749 O759 2.105 . S
Sc749 O763 2.105 . S
Sc749 O765 2.105 . S
Sc749 O769 2.105 . S
Sc750 O751 2.025 . S
Sc750 O760 2.105 . S
Sc750 O762 2.105 . S
Sc750 O766 2.105 . S
Sc750 O768 2.105 . S
O751 Sc748 2.025 . S
O751 Sc749 2.025 . S
O751 Sc750 2.025 . S
C752 O758 1.268 . S
C752 O768 1.268 . S
C753 O759 1.268 . S
C753 O767 1.268 . S
C754 O760 1.268 . S
C754 O769 1.268 . S
C755 O761 1.268 . S
C755 O765 1.268 . S
C756 O762 1.268 . S
C756 O764 1.268 . S
C757 O763 1.268 . S
C757 O766 1.268 . S
O758 Sc748 2.105 . S
O758 C752 1.268 . S
O759 Sc749 2.105 . S
O759 C753 1.268 . S
O760 Sc750 2.105 . S
O760 C754 1.268 . S
O761 Sc748 2.105 . S
O761 C755 1.268 . S
O762 Sc750 2.105 . S
O762 C756 1.268 . S
O763 Sc749 2.105 . S
O763 C757 1.268 . S
O764 Sc748 2.105 . S
O764 C756 1.268 . S
O765 Sc749 2.105 . S
O765 C755 1.268 . S
O766 Sc750 2.105 . S
O766 C757 1.268 . S
O767 Sc748 2.105 . S
O767 C753 1.268 . S
O768 Sc750 2.105 . S
O768 C752 1.268 . S
O769 Sc749 2.105 . S
O769 C754 1.268 . S
Sc770 O773 2.025 . S
Sc770 O780 2.105 . S
Sc770 O783 2.105 . S
Sc770 O786 2.105 . S
Sc770 O789 2.105 . S
Sc771 O773 2.025 . S
Sc771 O781 2.105 . S
Sc771 O785 2.105 . S
Sc771 O787 2.105 . S
Sc771 O791 2.105 . S
Sc772 O773 2.025 . S
Sc772 O782 2.105 . S
Sc772 O784 2.105 . S
Sc772 O788 2.105 . S
Sc772 O790 2.105 . S
O773 Sc770 2.025 . S
O773 Sc771 2.025 . S
O773 Sc772 2.025 . S
C774 O780 1.268 . S
C774 O790 1.268 . S
C775 O781 1.268 . S
C775 O789 1.268 . S
C776 O782 1.268 . S
C776 O791 1.268 . S
C777 O783 1.268 . S
C777 O787 1.268 . S
C778 O784 1.268 . S
C778 O786 1.268 . S
C779 O785 1.268 . S
C779 O788 1.268 . S
O780 Sc770 2.105 . S
O780 C774 1.268 . S
O781 Sc771 2.105 . S
O781 C775 1.268 . S
O782 Sc772 2.105 . S
O782 C776 1.268 . S
O783 Sc770 2.105 . S
O783 C777 1.268 . S
O784 Sc772 2.105 . S
O784 C778 1.268 . S
O785 Sc771 2.105 . S
O785 C779 1.268 . S
O786 Sc770 2.105 . S
O786 C778 1.268 . S
O787 Sc771 2.105 . S
O787 C777 1.268 . S
O788 Sc772 2.105 . S
O788 C779 1.268 . S
O789 Sc770 2.105 . S
O789 C775 1.268 . S
O790 Sc772 2.105 . S
O790 C774 1.268 . S
O791 Sc771 2.105 . S
O791 C776 1.268 . S
Sc792 O795 2.025 . S
Sc792 O802 2.105 . S
Sc792 O805 2.105 . S
Sc792 O808 2.105 . S
Sc792 O811 2.105 . S
Sc793 O795 2.025 . S
Sc793 O803 2.105 . S
Sc793 O807 2.105 . S
Sc793 O809 2.105 . S
Sc793 O813 2.105 . S
Sc794 O795 2.025 . S
Sc794 O804 2.105 . S
Sc794 O806 2.105 . S
Sc794 O810 2.105 . S
Sc794 O812 2.105 . S
O795 Sc792 2.025 . S
O795 Sc793 2.025 . S
O795 Sc794 2.025 . S
C796 O802 1.268 . S
C796 O812 1.268 . S
C797 O803 1.268 . S
C797 O811 1.268 . S
C798 O804 1.268 . S
C798 O813 1.268 . S
C799 O805 1.268 . S
C799 O809 1.268 . S
C800 O806 1.268 . S
C800 O808 1.268 . S
C801 O807 1.268 . S
C801 O810 1.268 . S
O802 Sc792 2.105 . S
O802 C796 1.268 . S
O803 Sc793 2.105 . S
O803 C797 1.268 . S
O804 Sc794 2.105 . S
O804 C798 1.268 . S
O805 Sc792 2.105 . S
O805 C799 1.268 . S
O806 Sc794 2.105 . S
O806 C800 1.268 . S
O807 Sc793 2.105 . S
O807 C801 1.268 . S
O808 Sc792 2.105 . S
O808 C800 1.268 . S
O809 Sc793 2.105 . S
O809 C799 1.268 . S
O810 Sc794 2.105 . S
O810 C801 1.268 . S
O811 Sc792 2.105 . S
O811 C797 1.268 . S
O812 Sc794 2.105 . S
O812 C796 1.268 . S
O813 Sc793 2.105 . S
O813 C798 1.268 . S
Sc814 O817 2.025 . S
Sc814 O824 2.105 . S
Sc814 O827 2.105 . S
Sc814 O830 2.105 . S
Sc814 O833 2.105 . S
Sc815 O817 2.025 . S
Sc815 O825 2.105 . S
Sc815 O829 2.105 . S
Sc815 O831 2.105 . S
Sc815 O835 2.105 . S
Sc816 O817 2.025 . S
Sc816 O826 2.105 . S
Sc816 O828 2.105 . S
Sc816 O832 2.105 . S
Sc816 O834 2.105 . S
O817 Sc814 2.025 . S
O817 Sc815 2.025 . S
O817 Sc816 2.025 . S
C818 O824 1.268 . S
C818 O834 1.268 . S
C819 O825 1.268 . S
C819 O833 1.268 . S
C820 O826 1.268 . S
C820 O835 1.268 . S
C821 O827 1.268 . S
C821 O831 1.268 . S
C822 O828 1.268 . S
C822 O830 1.268 . S
C823 O829 1.268 . S
C823 O832 1.268 . S
O824 Sc814 2.105 . S
O824 C818 1.268 . S
O825 Sc815 2.105 . S
O825 C819 1.268 . S
O826 Sc816 2.105 . S
O826 C820 1.268 . S
O827 Sc814 2.105 . S
O827 C821 1.268 . S
O828 Sc816 2.105 . S
O828 C822 1.268 . S
O829 Sc815 2.105 . S
O829 C823 1.268 . S
O830 Sc814 2.105 . S
O830 C822 1.268 . S
O831 Sc815 2.105 . S
O831 C821 1.268 . S
O832 Sc816 2.105 . S
O832 C823 1.268 . S
O833 Sc814 2.105 . S
O833 C819 1.268 . S
O834 Sc816 2.105 . S
O834 C818 1.268 . S
O835 Sc815 2.105 . S
O835 C820 1.268 . S
Sc836 O839 2.025 . S
Sc836 O846 2.105 . S
Sc836 O849 2.105 . S
Sc836 O852 2.105 . S
Sc836 O855 2.105 . S
Sc837 O839 2.025 . S
Sc837 O847 2.105 . S
Sc837 O851 2.105 . S
Sc837 O853 2.105 . S
Sc837 O857 2.105 . S
Sc838 O839 2.025 . S
Sc838 O848 2.105 . S
Sc838 O850 2.105 . S
Sc838 O854 2.105 . S
Sc838 O856 2.105 . S
O839 Sc836 2.025 . S
O839 Sc837 2.025 . S
O839 Sc838 2.025 . S
C840 O846 1.268 . S
C840 O856 1.268 . S
C841 O847 1.268 . S
C841 O855 1.268 . S
C842 O848 1.268 . S
C842 O857 1.268 . S
C843 O849 1.268 . S
C843 O853 1.268 . S
C844 O850 1.268 . S
C844 O852 1.268 . S
C845 O851 1.268 . S
C845 O854 1.268 . S
O846 Sc836 2.105 . S
O846 C840 1.268 . S
O847 Sc837 2.105 . S
O847 C841 1.268 . S
O848 Sc838 2.105 . S
O848 C842 1.268 . S
O849 Sc836 2.105 . S
O849 C843 1.268 . S
O850 Sc838 2.105 . S
O850 C844 1.268 . S
O851 Sc837 2.105 . S
O851 C845 1.268 . S
O852 Sc836 2.105 . S
O852 C844 1.268 . S
O853 Sc837 2.105 . S
O853 C843 1.268 . S
O854 Sc838 2.105 . S
O854 C845 1.268 . S
O855 Sc836 2.105 . S
O855 C841 1.268 . S
O856 Sc838 2.105 . S
O856 C840 1.268 . S
O857 Sc837 2.105 . S
O857 C842 1.268 . S
Sc858 O861 2.025 . S
Sc858 O868 2.105 . S
Sc858 O871 2.105 . S
Sc858 O874 2.105 . S
Sc858 O877 2.105 . S
Sc859 O861 2.025 . S
Sc859 O869 2.105 . S
Sc859 O873 2.105 . S
Sc859 O875 2.105 . S
Sc859 O879 2.105 . S
Sc860 O861 2.025 . S
Sc860 O870 2.105 . S
Sc860 O872 2.105 . S
Sc860 O876 2.105 . S
Sc860 O878 2.105 . S
O861 Sc858 2.025 . S
O861 Sc859 2.025 . S
O861 Sc860 2.025 . S
C862 O868 1.268 . S
C862 O878 1.268 . S
C863 O869 1.268 . S
C863 O877 1.268 . S
C864 O870 1.268 . S
C864 O879 1.268 . S
C865 O871 1.268 . S
C865 O875 1.268 . S
C866 O872 1.268 . S
C866 O874 1.268 . S
C867 O873 1.268 . S
C867 O876 1.268 . S
O868 Sc858 2.105 . S
O868 C862 1.268 . S
O869 Sc859 2.105 . S
O869 C863 1.268 . S
O870 Sc860 2.105 . S
O870 C864 1.268 . S
O871 Sc858 2.105 . S
O871 C865 1.268 . S
O872 Sc860 2.105 . S
O872 C866 1.268 . S
O873 Sc859 2.105 . S
O873 C867 1.268 . S
O874 Sc858 2.105 . S
O874 C866 1.268 . S
O875 Sc859 2.105 . S
O875 C865 1.268 . S
O876 Sc860 2.105 . S
O876 C867 1.268 . S
O877 Sc858 2.105 . S
O877 C863 1.268 . S
O878 Sc860 2.105 . S
O878 C862 1.268 . S
O879 Sc859 2.105 . S
O879 C864 1.268 . S
Sc880 O883 2.025 . S
Sc880 O890 2.105 . S
Sc880 O893 2.105 . S
Sc880 O896 2.105 . S
Sc880 O899 2.105 . S
Sc881 O883 2.025 . S
Sc881 O891 2.105 . S
Sc881 O895 2.105 . S
Sc881 O897 2.105 . S
Sc881 O901 2.105 . S
Sc882 O883 2.025 . S
Sc882 O892 2.105 . S
Sc882 O894 2.105 . S
Sc882 O898 2.105 . S
Sc882 O900 2.105 . S
O883 Sc880 2.025 . S
O883 Sc881 2.025 . S
O883 Sc882 2.025 . S
C884 O890 1.268 . S
C884 O900 1.268 . S
C885 O891 1.268 . S
C885 O899 1.268 . S
C886 O892 1.268 . S
C886 O901 1.268 . S
C887 O893 1.268 . S
C887 O897 1.268 . S
C888 O894 1.268 . S
C888 O896 1.268 . S
C889 O895 1.268 . S
C889 O898 1.268 . S
O890 Sc880 2.105 . S
O890 C884 1.268 . S
O891 Sc881 2.105 . S
O891 C885 1.268 . S
O892 Sc882 2.105 . S
O892 C886 1.268 . S
O893 Sc880 2.105 . S
O893 C887 1.268 . S
O894 Sc882 2.105 . S
O894 C888 1.268 . S
O895 Sc881 2.105 . S
O895 C889 1.268 . S
O896 Sc880 2.105 . S
O896 C888 1.268 . S
O897 Sc881 2.105 . S
O897 C887 1.268 . S
O898 Sc882 2.105 . S
O898 C889 1.268 . S
O899 Sc880 2.105 . S
O899 C885 1.268 . S
O900 Sc882 2.105 . S
O900 C884 1.268 . S
O901 Sc881 2.105 . S
O901 C886 1.268 . S
Sc902 O905 2.025 . S
Sc902 O912 2.105 . S
Sc902 O915 2.105 . S
Sc902 O918 2.105 . S
Sc902 O921 2.105 . S
Sc903 O905 2.025 . S
Sc903 O913 2.105 . S
Sc903 O917 2.105 . S
Sc903 O919 2.105 . S
Sc903 O923 2.105 . S
Sc904 O905 2.025 . S
Sc904 O914 2.105 . S
Sc904 O916 2.105 . S
Sc904 O920 2.105 . S
Sc904 O922 2.105 . S
O905 Sc902 2.025 . S
O905 Sc903 2.025 . S
O905 Sc904 2.025 . S
C906 O912 1.268 . S
C906 O922 1.268 . S
C907 O913 1.268 . S
C907 O921 1.268 . S
C908 O914 1.268 . S
C908 O923 1.268 . S
C909 O915 1.268 . S
C909 O919 1.268 . S
C910 O916 1.268 . S
C910 O918 1.268 . S
C911 O917 1.268 . S
C911 O920 1.268 . S
O912 Sc902 2.105 . S
O912 C906 1.268 . S
O913 Sc903 2.105 . S
O913 C907 1.268 . S
O914 Sc904 2.105 . S
O914 C908 1.268 . S
O915 Sc902 2.105 . S
O915 C909 1.268 . S
O916 Sc904 2.105 . S
O916 C910 1.268 . S
O917 Sc903 2.105 . S
O917 C911 1.268 . S
O918 Sc902 2.105 . S
O918 C910 1.268 . S
O919 Sc903 2.105 . S
O919 C909 1.268 . S
O920 Sc904 2.105 . S
O920 C911 1.268 . S
O921 Sc902 2.105 . S
O921 C907 1.268 . S
O922 Sc904 2.105 . S
O922 C906 1.268 . S
O923 Sc903 2.105 . S
O923 C908 1.268 . S
Sc924 O927 2.025 . S
Sc924 O934 2.105 . S
Sc924 O937 2.105 . S
Sc924 O940 2.105 . S
Sc924 O943 2.105 . S
Sc925 O927 2.025 . S
Sc925 O935 2.105 . S
Sc925 O939 2.105 . S
Sc925 O941 2.105 . S
Sc925 O945 2.105 . S
Sc926 O927 2.025 . S
Sc926 O936 2.105 . S
Sc926 O938 2.105 . S
Sc926 O942 2.105 . S
Sc926 O944 2.105 . S
O927 Sc924 2.025 . S
O927 Sc925 2.025 . S
O927 Sc926 2.025 . S
C928 O934 1.268 . S
C928 O944 1.268 . S
C929 O935 1.268 . S
C929 O943 1.268 . S
C930 O936 1.268 . S
C930 O945 1.268 . S
C931 O937 1.268 . S
C931 O941 1.268 . S
C932 O938 1.268 . S
C932 O940 1.268 . S
C933 O939 1.268 . S
C933 O942 1.268 . S
O934 Sc924 2.105 . S
O934 C928 1.268 . S
O935 Sc925 2.105 . S
O935 C929 1.268 . S
O936 Sc926 2.105 . S
O936 C930 1.268 . S
O937 Sc924 2.105 . S
O937 C931 1.268 . S
O938 Sc926 2.105 . S
O938 C932 1.268 . S
O939 Sc925 2.105 . S
O939 C933 1.268 . S
O940 Sc924 2.105 . S
O940 C932 1.268 . S
O941 Sc925 2.105 . S
O941 C931 1.268 . S
O942 Sc926 2.105 . S
O942 C933 1.268 . S
O943 Sc924 2.105 . S
O943 C929 1.268 . S
O944 Sc926 2.105 . S
O944 C928 1.268 . S
O945 Sc925 2.105 . S
O945 C930 1.268 . S
Sc946 O949 2.025 . S
Sc946 O956 2.105 . S
Sc946 O959 2.105 . S
Sc946 O962 2.105 . S
Sc946 O965 2.105 . S
Sc947 O949 2.025 . S
Sc947 O957 2.105 . S
Sc947 O961 2.105 . S
Sc947 O963 2.105 . S
Sc947 O967 2.105 . S
Sc948 O949 2.025 . S
Sc948 O958 2.105 . S
Sc948 O960 2.105 . S
Sc948 O964 2.105 . S
Sc948 O966 2.105 . S
O949 Sc946 2.025 . S
O949 Sc947 2.025 . S
O949 Sc948 2.025 . S
C950 O956 1.268 . S
C950 O966 1.268 . S
C951 O957 1.268 . S
C951 O965 1.268 . S
C952 O958 1.268 . S
C952 O967 1.268 . S
C953 O959 1.268 . S
C953 O963 1.268 . S
C954 O960 1.268 . S
C954 O962 1.268 . S
C955 O961 1.268 . S
C955 O964 1.268 . S
O956 Sc946 2.105 . S
O956 C950 1.268 . S
O957 Sc947 2.105 . S
O957 C951 1.268 . S
O958 Sc948 2.105 . S
O958 C952 1.268 . S
O959 Sc946 2.105 . S
O959 C953 1.268 . S
O960 Sc948 2.105 . S
O960 C954 1.268 . S
O961 Sc947 2.105 . S
O961 C955 1.268 . S
O962 Sc946 2.105 . S
O962 C954 1.268 . S
O963 Sc947 2.105 . S
O963 C953 1.268 . S
O964 Sc948 2.105 . S
O964 C955 1.268 . S
O965 Sc946 2.105 . S
O965 C951 1.268 . S
O966 Sc948 2.105 . S
O966 C950 1.268 . S
O967 Sc947 2.105 . S
O967 C952 1.268 . S
Sc968 O971 2.025 . S
Sc968 O978 2.105 . S
Sc968 O981 2.105 . S
Sc968 O984 2.105 . S
Sc968 O987 2.105 . S
Sc969 O971 2.025 . S
Sc969 O979 2.105 . S
Sc969 O983 2.105 . S
Sc969 O985 2.105 . S
Sc969 O989 2.105 . S
Sc970 O971 2.025 . S
Sc970 O980 2.105 . S
Sc970 O982 2.105 . S
Sc970 O986 2.105 . S
Sc970 O988 2.105 . S
O971 Sc968 2.025 . S
O971 Sc969 2.025 . S
O971 Sc970 2.025 . S
C972 O978 1.268 . S
C972 O988 1.268 . S
C973 O979 1.268 . S
C973 O987 1.268 . S
C974 O980 1.268 . S
C974 O989 1.268 . S
C975 O981 1.268 . S
C975 O985 1.268 . S
C976 O982 1.268 . S
C976 O984 1.268 . S
C977 O983 1.268 . S
C977 O986 1.268 . S
O978 Sc968 2.105 . S
O978 C972 1.268 . S
O979 Sc969 2.105 . S
O979 C973 1.268 . S
O980 Sc970 2.105 . S
O980 C974 1.268 . S
O981 Sc968 2.105 . S
O981 C975 1.268 . S
O982 Sc970 2.105 . S
O982 C976 1.268 . S
O983 Sc969 2.105 . S
O983 C977 1.268 . S
O984 Sc968 2.105 . S
O984 C976 1.268 . S
O985 Sc969 2.105 . S
O985 C975 1.268 . S
O986 Sc970 2.105 . S
O986 C977 1.268 . S
O987 Sc968 2.105 . S
O987 C973 1.268 . S
O988 Sc970 2.105 . S
O988 C972 1.268 . S
O989 Sc969 2.105 . S
O989 C974 1.268 . S
Sc990 O993 2.025 . S
Sc990 O1000 2.105 . S
Sc990 O1003 2.105 . S
Sc990 O1006 2.105 . S
Sc990 O1009 2.105 . S
Sc991 O993 2.025 . S
Sc991 O1001 2.105 . S
Sc991 O1005 2.105 . S
Sc991 O1007 2.105 . S
Sc991 O1011 2.105 . S
Sc992 O993 2.025 . S
Sc992 O1002 2.105 . S
Sc992 O1004 2.105 . S
Sc992 O1008 2.105 . S
Sc992 O1010 2.105 . S
O993 Sc990 2.025 . S
O993 Sc991 2.025 . S
O993 Sc992 2.025 . S
C994 O1000 1.268 . S
C994 O1010 1.268 . S
C995 O1001 1.268 . S
C995 O1009 1.268 . S
C996 O1002 1.268 . S
C996 O1011 1.268 . S
C997 O1003 1.268 . S
C997 O1007 1.268 . S
C998 O1004 1.268 . S
C998 O1006 1.268 . S
C999 O1005 1.268 . S
C999 O1008 1.268 . S
O1000 Sc990 2.105 . S
O1000 C994 1.268 . S
O1001 Sc991 2.105 . S
O1001 C995 1.268 . S
O1002 Sc992 2.105 . S
O1002 C996 1.268 . S
O1003 Sc990 2.105 . S
O1003 C997 1.268 . S
O1004 Sc992 2.105 . S
O1004 C998 1.268 . S
O1005 Sc991 2.105 . S
O1005 C999 1.268 . S
O1006 Sc990 2.105 . S
O1006 C998 1.268 . S
O1007 Sc991 2.105 . S
O1007 C997 1.268 . S
O1008 Sc992 2.105 . S
O1008 C999 1.268 . S
O1009 Sc990 2.105 . S
O1009 C995 1.268 . S
O1010 Sc992 2.105 . S
O1010 C994 1.268 . S
O1011 Sc991 2.105 . S
O1011 C996 1.268 . S
Sc1012 O1015 2.025 . S
Sc1012 O1022 2.105 . S
Sc1012 O1025 2.105 . S
Sc1012 O1028 2.105 . S
Sc1012 O1031 2.105 . S
Sc1013 O1015 2.025 . S
Sc1013 O1023 2.105 . S
Sc1013 O1027 2.105 . S
Sc1013 O1029 2.105 . S
Sc1013 O1033 2.105 . S
Sc1014 O1015 2.025 . S
Sc1014 O1024 2.105 . S
Sc1014 O1026 2.105 . S
Sc1014 O1030 2.105 . S
Sc1014 O1032 2.105 . S
O1015 Sc1012 2.025 . S
O1015 Sc1013 2.025 . S
O1015 Sc1014 2.025 . S
C1016 O1022 1.268 . S
C1016 O1032 1.268 . S
C1017 O1023 1.268 . S
C1017 O1031 1.268 . S
C1018 O1024 1.268 . S
C1018 O1033 1.268 . S
C1019 O1025 1.268 . S
C1019 O1029 1.268 . S
C1020 O1026 1.268 . S
C1020 O1028 1.268 . S
C1021 O1027 1.268 . S
C1021 O1030 1.268 . S
O1022 Sc1012 2.105 . S
O1022 C1016 1.268 . S
O1023 Sc1013 2.105 . S
O1023 C1017 1.268 . S
O1024 Sc1014 2.105 . S
O1024 C1018 1.268 . S
O1025 Sc1012 2.105 . S
O1025 C1019 1.268 . S
O1026 Sc1014 2.105 . S
O1026 C1020 1.268 . S
O1027 Sc1013 2.105 . S
O1027 C1021 1.268 . S
O1028 Sc1012 2.105 . S
O1028 C1020 1.268 . S
O1029 Sc1013 2.105 . S
O1029 C1019 1.268 . S
O1030 Sc1014 2.105 . S
O1030 C1021 1.268 . S
O1031 Sc1012 2.105 . S
O1031 C1017 1.268 . S
O1032 Sc1014 2.105 . S
O1032 C1016 1.268 . S
O1033 Sc1013 2.105 . S
O1033 C1018 1.268 . S
Sc1034 O1037 2.025 . S
Sc1034 O1044 2.105 . S
Sc1034 O1047 2.105 . S
Sc1034 O1050 2.105 . S
Sc1034 O1053 2.105 . S
Sc1035 O1037 2.025 . S
Sc1035 O1045 2.105 . S
Sc1035 O1049 2.105 . S
Sc1035 O1051 2.105 . S
Sc1035 O1055 2.105 . S
Sc1036 O1037 2.025 . S
Sc1036 O1046 2.105 . S
Sc1036 O1048 2.105 . S
Sc1036 O1052 2.105 . S
Sc1036 O1054 2.105 . S
O1037 Sc1034 2.025 . S
O1037 Sc1035 2.025 . S
O1037 Sc1036 2.025 . S
C1038 O1044 1.268 . S
C1038 O1054 1.268 . S
C1039 O1045 1.268 . S
C1039 O1053 1.268 . S
C1040 O1046 1.268 . S
C1040 O1055 1.268 . S
C1041 O1047 1.268 . S
C1041 O1051 1.268 . S
C1042 O1048 1.268 . S
C1042 O1050 1.268 . S
C1043 O1049 1.268 . S
C1043 O1052 1.268 . S
O1044 Sc1034 2.105 . S
O1044 C1038 1.268 . S
O1045 Sc1035 2.105 . S
O1045 C1039 1.268 . S
O1046 Sc1036 2.105 . S
O1046 C1040 1.268 . S
O1047 Sc1034 2.105 . S
O1047 C1041 1.268 . S
O1048 Sc1036 2.105 . S
O1048 C1042 1.268 . S
O1049 Sc1035 2.105 . S
O1049 C1043 1.268 . S
O1050 Sc1034 2.105 . S
O1050 C1042 1.268 . S
O1051 Sc1035 2.105 . S
O1051 C1041 1.268 . S
O1052 Sc1036 2.105 . S
O1052 C1043 1.268 . S
O1053 Sc1034 2.105 . S
O1053 C1039 1.268 . S
O1054 Sc1036 2.105 . S
O1054 C1038 1.268 . S
O1055 Sc1035 2.105 . S
O1055 C1040 1.268 . S
H1056 C1062 0.930 . S
H1057 C1066 0.930 . S
H1058 C1071 0.929 . S
H1059 C1069 0.929 . S
H1060 C1064 0.929 . S
H1061 C1070 0.929 . S
C1062 H1056 0.930 . S
C1062 C1063 1.367 . S
C1062 C1070 1.378 . S
C1063 C1062 1.367 . S
C1063 C1071 1.433 . S
C1064 H1060 0.929 . S
C1064 C1066 1.378 . S
C1064 C1068 1.350 . S
C1065 C1068 1.463 1_545 S
C1065 C1070 1.350 . S
C1065 N1073 1.427 . S
C1066 H1057 0.930 . S
C1066 C1064 1.378 . S
C1066 C1067 1.367 . S
C1067 C1066 1.367 . S
C1067 C1069 1.433 . S
C1068 C1064 1.350 . S
C1068 C1065 1.463 1_565 S
C1068 N1072 1.427 . S
C1069 H1059 0.929 . S
C1069 C1067 1.433 . S
C1069 N1072 1.384 . S
C1070 H1061 0.929 . S
C1070 C1062 1.378 . S
C1070 C1065 1.350 . S
C1071 H1058 0.929 . S
C1071 C1063 1.433 . S
C1071 N1073 1.384 . S
N1072 C1068 1.427 . S
N1072 C1069 1.384 . S
N1073 C1065 1.427 . S
N1073 C1071 1.384 . S
H1074 C1080 0.930 . S
H1075 C1084 0.930 . S
H1076 C1089 0.929 . S
H1077 C1087 0.929 . S
H1078 C1082 0.929 . S
H1079 C1088 0.929 . S
C1080 H1074 0.930 . S
C1080 C1081 1.367 . S
C1080 C1088 1.378 . S
C1081 C1080 1.367 . S
C1081 C1089 1.433 . S
C1082 H1078 0.929 . S
C1082 C1084 1.378 . S
C1082 C1086 1.350 . S
C1083 C1086 1.463 1_455 S
C1083 C1088 1.350 . S
C1083 N1091 1.427 . S
C1084 H1075 0.930 . S
C1084 C1082 1.378 . S
C1084 C1085 1.367 . S
C1085 C1084 1.367 . S
C1085 C1087 1.433 . S
C1086 C1082 1.350 . S
C1086 C1083 1.463 1_655 S
C1086 N1090 1.427 . S
C1087 H1077 0.929 . S
C1087 C1085 1.433 . S
C1087 N1090 1.384 . S
C1088 H1079 0.929 . S
C1088 C1080 1.378 . S
C1088 C1083 1.350 . S
C1089 H1076 0.929 . S
C1089 C1081 1.433 . S
C1089 N1091 1.384 . S
N1090 C1086 1.427 . S
N1090 C1087 1.384 . S
N1091 C1083 1.427 . S
N1091 C1089 1.384 . S
H1092 C1098 0.930 . S
H1093 C1102 0.930 . S
H1094 C1107 0.929 . S
H1095 C1105 0.929 . S
H1096 C1100 0.929 . S
H1097 C1106 0.929 . S
C1098 H1092 0.930 . S
C1098 C1099 1.367 . S
C1098 C1106 1.378 . S
C1099 C1098 1.367 . S
C1099 C1107 1.433 . S
C1100 H1096 0.929 . S
C1100 C1102 1.378 . S
C1100 C1104 1.350 . S
C1101 C1104 1.463 1_545 S
C1101 C1106 1.350 . S
C1101 N1109 1.427 . S
C1102 H1093 0.930 . S
C1102 C1100 1.378 . S
C1102 C1103 1.367 . S
C1103 C1102 1.367 . S
C1103 C1105 1.433 . S
C1104 C1100 1.350 . S
C1104 C1101 1.463 1_565 S
C1104 N1108 1.427 . S
C1105 H1095 0.929 . S
C1105 C1103 1.433 . S
C1105 N1108 1.384 . S
C1106 H1097 0.929 . S
C1106 C1098 1.378 . S
C1106 C1101 1.350 . S
C1107 H1094 0.929 . S
C1107 C1099 1.433 . S
C1107 N1109 1.384 . S
N1108 C1104 1.427 . S
N1108 C1105 1.384 . S
N1109 C1101 1.427 . S
N1109 C1107 1.384 . S
H1110 C1116 0.930 . S
H1111 C1120 0.930 . S
H1112 C1125 0.929 . S
H1113 C1123 0.929 . S
H1114 C1118 0.929 . S
H1115 C1124 0.929 . S
C1116 H1110 0.930 . S
C1116 C1117 1.367 . S
C1116 C1124 1.378 . S
C1117 C1116 1.367 . S
C1117 C1125 1.433 . S
C1118 H1114 0.929 . S
C1118 C1120 1.378 . S
C1118 C1122 1.350 . S
C1119 C1122 1.463 1_655 S
C1119 C1124 1.350 . S
C1119 N1127 1.427 . S
C1120 H1111 0.930 . S
C1120 C1118 1.378 . S
C1120 C1121 1.367 . S
C1121 C1120 1.367 . S
C1121 C1123 1.433 . S
C1122 C1118 1.350 . S
C1122 C1119 1.463 1_455 S
C1122 N1126 1.427 . S
C1123 H1113 0.929 . S
C1123 C1121 1.433 . S
C1123 N1126 1.384 . S
C1124 H1115 0.929 . S
C1124 C1116 1.378 . S
C1124 C1119 1.350 . S
C1125 H1112 0.929 . S
C1125 C1117 1.433 . S
C1125 N1127 1.384 . S
N1126 C1122 1.427 . S
N1126 C1123 1.384 . S
N1127 C1119 1.427 . S
N1127 C1125 1.384 . S
H1128 C1134 0.930 . S
H1129 C1138 0.930 . S
H1130 C1143 0.929 . S
H1131 C1141 0.929 . S
H1132 C1136 0.929 . S
H1133 C1142 0.929 . S
C1134 H1128 0.930 . S
C1134 C1135 1.367 . S
C1134 C1142 1.378 . S
C1135 C1134 1.367 . S
C1135 C1143 1.433 . S
C1136 H1132 0.929 . S
C1136 C1138 1.378 . S
C1136 C1140 1.350 . S
C1137 C1140 1.463 1_565 S
C1137 C1142 1.350 . S
C1137 N1145 1.427 . S
C1138 H1129 0.930 . S
C1138 C1136 1.378 . S
C1138 C1139 1.367 . S
C1139 C1138 1.367 . S
C1139 C1141 1.433 . S
C1140 C1136 1.350 . S
C1140 C1137 1.463 1_545 S
C1140 N1144 1.427 . S
C1141 H1131 0.929 . S
C1141 C1139 1.433 . S
C1141 N1144 1.384 . S
C1142 H1133 0.929 . S
C1142 C1134 1.378 . S
C1142 C1137 1.350 . S
C1143 H1130 0.929 . S
C1143 C1135 1.433 . S
C1143 N1145 1.384 . S
N1144 C1140 1.427 . S
N1144 C1141 1.384 . S
N1145 C1137 1.427 . S
N1145 C1143 1.384 . S
H1146 C1152 0.930 . S
H1147 C1156 0.930 . S
H1148 C1161 0.929 . S
H1149 C1159 0.929 . S
H1150 C1154 0.929 . S
H1151 C1160 0.929 . S
C1152 H1146 0.930 . S
C1152 C1153 1.367 . S
C1152 C1160 1.378 . S
C1153 C1152 1.367 . S
C1153 C1161 1.433 . S
C1154 H1150 0.929 . S
C1154 C1156 1.378 . S
C1154 C1158 1.350 . S
C1155 C1158 1.463 1_455 S
C1155 C1160 1.350 . S
C1155 N1163 1.427 . S
C1156 H1147 0.930 . S
C1156 C1154 1.378 . S
C1156 C1157 1.367 . S
C1157 C1156 1.367 . S
C1157 C1159 1.433 . S
C1158 C1154 1.350 . S
C1158 C1155 1.463 1_655 S
C1158 N1162 1.427 . S
C1159 H1149 0.929 . S
C1159 C1157 1.433 . S
C1159 N1162 1.384 . S
C1160 H1151 0.929 . S
C1160 C1152 1.378 . S
C1160 C1155 1.350 . S
C1161 H1148 0.929 . S
C1161 C1153 1.433 . S
C1161 N1163 1.384 . S
N1162 C1158 1.427 . S
N1162 C1159 1.384 . S
N1163 C1155 1.427 . S
N1163 C1161 1.384 . S
H1164 C1170 0.930 . S
H1165 C1174 0.930 . S
H1166 C1179 0.929 . S
H1167 C1177 0.929 . S
H1168 C1172 0.929 . S
H1169 C1178 0.929 . S
C1170 H1164 0.930 . S
C1170 C1171 1.367 . S
C1170 C1178 1.378 . S
C1171 C1170 1.367 . S
C1171 C1179 1.433 . S
C1172 H1168 0.929 . S
C1172 C1174 1.378 . S
C1172 C1176 1.350 . S
C1173 C1176 1.463 1_545 S
C1173 C1178 1.350 . S
C1173 N1181 1.427 . S
C1174 H1165 0.930 . S
C1174 C1172 1.378 . S
C1174 C1175 1.367 . S
C1175 C1174 1.367 . S
C1175 C1177 1.433 . S
C1176 C1172 1.350 . S
C1176 C1173 1.463 1_565 S
C1176 N1180 1.427 . S
C1177 H1167 0.929 . S
C1177 C1175 1.433 . S
C1177 N1180 1.384 . S
C1178 H1169 0.929 . S
C1178 C1170 1.378 . S
C1178 C1173 1.350 . S
C1179 H1166 0.929 . S
C1179 C1171 1.433 . S
C1179 N1181 1.384 . S
N1180 C1176 1.427 . S
N1180 C1177 1.384 . S
N1181 C1173 1.427 . S
N1181 C1179 1.384 . S
H1182 C1188 0.930 . S
H1183 C1192 0.930 . S
H1184 C1197 0.929 . S
H1185 C1195 0.929 . S
H1186 C1190 0.929 . S
H1187 C1196 0.929 . S
C1188 H1182 0.930 . S
C1188 C1189 1.367 . S
C1188 C1196 1.378 . S
C1189 C1188 1.367 . S
C1189 C1197 1.433 . S
C1190 H1186 0.929 . S
C1190 C1192 1.378 . S
C1190 C1194 1.350 . S
C1191 C1194 1.463 1_655 S
C1191 C1196 1.350 . S
C1191 N1199 1.427 . S
C1192 H1183 0.930 . S
C1192 C1190 1.378 . S
C1192 C1193 1.367 . S
C1193 C1192 1.367 . S
C1193 C1195 1.433 . S
C1194 C1190 1.350 . S
C1194 C1191 1.463 1_455 S
C1194 N1198 1.427 . S
C1195 H1185 0.929 . S
C1195 C1193 1.433 . S
C1195 N1198 1.384 . S
C1196 H1187 0.929 . S
C1196 C1188 1.378 . S
C1196 C1191 1.350 . S
C1197 H1184 0.929 . S
C1197 C1189 1.433 . S
C1197 N1199 1.384 . S
N1198 C1194 1.427 . S
N1198 C1195 1.384 . S
N1199 C1191 1.427 . S
N1199 C1197 1.384 . S
H1200 C1206 0.930 . S
H1201 C1210 0.930 . S
H1202 C1215 0.929 . S
H1203 C1213 0.929 . S
H1204 C1208 0.929 . S
H1205 C1214 0.929 . S
C1206 H1200 0.930 . S
C1206 C1207 1.367 . S
C1206 C1214 1.378 . S
C1207 C1206 1.367 . S
C1207 C1215 1.433 . S
C1208 H1204 0.929 . S
C1208 C1210 1.378 . S
C1208 C1212 1.350 . S
C1209 C1212 1.463 1_554 S
C1209 C1214 1.350 . S
C1209 N1217 1.427 . S
C1210 H1201 0.930 . S
C1210 C1208 1.378 . S
C1210 C1211 1.367 . S
C1211 C1210 1.367 . S
C1211 C1213 1.433 . S
C1212 C1208 1.350 . S
C1212 C1209 1.463 1_556 S
C1212 N1216 1.427 . S
C1213 H1203 0.929 . S
C1213 C1211 1.433 . S
C1213 N1216 1.384 . S
C1214 H1205 0.929 . S
C1214 C1206 1.378 . S
C1214 C1209 1.350 . S
C1215 H1202 0.929 . S
C1215 C1207 1.433 . S
C1215 N1217 1.384 . S
N1216 C1212 1.427 . S
N1216 C1213 1.384 . S
N1217 C1209 1.427 . S
N1217 C1215 1.384 . S
H1218 C1224 0.930 . S
H1219 C1228 0.930 . S
H1220 C1233 0.929 . S
H1221 C1231 0.929 . S
H1222 C1226 0.929 . S
H1223 C1232 0.929 . S
C1224 H1218 0.930 . S
C1224 C1225 1.367 . S
C1224 C1232 1.378 . S
C1225 C1224 1.367 . S
C1225 C1233 1.433 . S
C1226 H1222 0.929 . S
C1226 C1228 1.378 . S
C1226 C1230 1.350 . S
C1227 C1230 1.463 1_556 S
C1227 C1232 1.350 . S
C1227 N1235 1.427 . S
C1228 H1219 0.930 . S
C1228 C1226 1.378 . S
C1228 C1229 1.367 . S
C1229 C1228 1.367 . S
C1229 C1231 1.433 . S
C1230 C1226 1.350 . S
C1230 C1227 1.463 1_554 S
C1230 N1234 1.427 . S
C1231 H1221 0.929 . S
C1231 C1229 1.433 . S
C1231 N1234 1.384 . S
C1232 H1223 0.929 . S
C1232 C1224 1.378 . S
C1232 C1227 1.350 . S
C1233 H1220 0.929 . S
C1233 C1225 1.433 . S
C1233 N1235 1.384 . S
N1234 C1230 1.427 . S
N1234 C1231 1.384 . S
N1235 C1227 1.427 . S
N1235 C1233 1.384 . S
H1236 C1242 0.930 . S
H1237 C1246 0.930 . S
H1238 C1251 0.929 . S
H1239 C1249 0.929 . S
H1240 C1244 0.929 . S
H1241 C1250 0.929 . S
C1242 H1236 0.930 . S
C1242 C1243 1.367 . S
C1242 C1250 1.378 . S
C1243 C1242 1.367 . S
C1243 C1251 1.433 . S
C1244 H1240 0.929 . S
C1244 C1246 1.378 . S
C1244 C1248 1.350 . S
C1245 C1248 1.463 1_556 S
C1245 C1250 1.350 . S
C1245 N1253 1.427 . S
C1246 H1237 0.930 . S
C1246 C1244 1.378 . S
C1246 C1247 1.367 . S
C1247 C1246 1.367 . S
C1247 C1249 1.433 . S
C1248 C1244 1.350 . S
C1248 C1245 1.463 1_554 S
C1248 N1252 1.427 . S
C1249 H1239 0.929 . S
C1249 C1247 1.433 . S
C1249 N1252 1.384 . S
C1250 H1241 0.929 . S
C1250 C1242 1.378 . S
C1250 C1245 1.350 . S
C1251 H1238 0.929 . S
C1251 C1243 1.433 . S
C1251 N1253 1.384 . S
N1252 C1248 1.427 . S
N1252 C1249 1.384 . S
N1253 C1245 1.427 . S
N1253 C1251 1.384 . S
H1254 C1260 0.930 . S
H1255 C1264 0.930 . S
H1256 C1269 0.929 . S
H1257 C1267 0.929 . S
H1258 C1262 0.929 . S
H1259 C1268 0.929 . S
C1260 H1254 0.930 . S
C1260 C1261 1.367 . S
C1260 C1268 1.378 . S
C1261 C1260 1.367 . S
C1261 C1269 1.433 . S
C1262 H1258 0.929 . S
C1262 C1264 1.378 . S
C1262 C1266 1.350 . S
C1263 C1266 1.463 1_556 S
C1263 C1268 1.350 . S
C1263 N1271 1.427 . S
C1264 H1255 0.930 . S
C1264 C1262 1.378 . S
C1264 C1265 1.367 . S
C1265 C1264 1.367 . S
C1265 C1267 1.433 . S
C1266 C1262 1.350 . S
C1266 C1263 1.463 1_554 S
C1266 N1270 1.427 . S
C1267 H1257 0.929 . S
C1267 C1265 1.433 . S
C1267 N1270 1.384 . S
C1268 H1259 0.929 . S
C1268 C1260 1.378 . S
C1268 C1263 1.350 . S
C1269 H1256 0.929 . S
C1269 C1261 1.433 . S
C1269 N1271 1.384 . S
N1270 C1266 1.427 . S
N1270 C1267 1.384 . S
N1271 C1263 1.427 . S
N1271 C1269 1.384 . S
H1272 C1278 0.930 . S
H1273 C1282 0.930 . S
H1274 C1287 0.929 . S
H1275 C1285 0.929 . S
H1276 C1280 0.929 . S
H1277 C1286 0.929 . S
C1278 H1272 0.930 . S
C1278 C1279 1.367 . S
C1278 C1286 1.378 . S
C1279 C1278 1.367 . S
C1279 C1287 1.433 . S
C1280 H1276 0.929 . S
C1280 C1282 1.378 . S
C1280 C1284 1.350 . S
C1281 C1284 1.463 1_556 S
C1281 C1286 1.350 . S
C1281 N1289 1.427 . S
C1282 H1273 0.930 . S
C1282 C1280 1.378 . S
C1282 C1283 1.367 . S
C1283 C1282 1.367 . S
C1283 C1285 1.433 . S
C1284 C1280 1.350 . S
C1284 C1281 1.463 1_554 S
C1284 N1288 1.427 . S
C1285 H1275 0.929 . S
C1285 C1283 1.433 . S
C1285 N1288 1.384 . S
C1286 H1277 0.929 . S
C1286 C1278 1.378 . S
C1286 C1281 1.350 . S
C1287 H1274 0.929 . S
C1287 C1279 1.433 . S
C1287 N1289 1.384 . S
N1288 C1284 1.427 . S
N1288 C1285 1.384 . S
N1289 C1281 1.427 . S
N1289 C1287 1.384 . S
H1290 C1296 0.930 . S
H1291 C1300 0.930 . S
H1292 C1305 0.929 . S
H1293 C1303 0.929 . S
H1294 C1298 0.929 . S
H1295 C1304 0.929 . S
C1296 H1290 0.930 . S
C1296 C1297 1.367 . S
C1296 C1304 1.378 . S
C1297 C1296 1.367 . S
C1297 C1305 1.433 . S
C1298 H1294 0.929 . S
C1298 C1300 1.378 . S
C1298 C1302 1.350 . S
C1299 C1302 1.463 1_556 S
C1299 C1304 1.350 . S
C1299 N1307 1.427 . S
C1300 H1291 0.930 . S
C1300 C1298 1.378 . S
C1300 C1301 1.367 . S
C1301 C1300 1.367 . S
C1301 C1303 1.433 . S
C1302 C1298 1.350 . S
C1302 C1299 1.463 1_554 S
C1302 N1306 1.427 . S
C1303 H1293 0.929 . S
C1303 C1301 1.433 . S
C1303 N1306 1.384 . S
C1304 H1295 0.929 . S
C1304 C1296 1.378 . S
C1304 C1299 1.350 . S
C1305 H1292 0.929 . S
C1305 C1297 1.433 . S
C1305 N1307 1.384 . S
N1306 C1302 1.427 . S
N1306 C1303 1.384 . S
N1307 C1299 1.427 . S
N1307 C1305 1.384 . S
H1308 C1314 0.930 . S
H1309 C1318 0.930 . S
H1310 C1323 0.929 . S
H1311 C1321 0.929 . S
H1312 C1316 0.929 . S
H1313 C1322 0.929 . S
C1314 H1308 0.930 . S
C1314 C1315 1.367 . S
C1314 C1322 1.378 . S
C1315 C1314 1.367 . S
C1315 C1323 1.433 . S
C1316 H1312 0.929 . S
C1316 C1318 1.378 . S
C1316 C1320 1.350 . S
C1317 C1320 1.463 1_556 S
C1317 C1322 1.350 . S
C1317 N1325 1.427 . S
C1318 H1309 0.930 . S
C1318 C1316 1.378 . S
C1318 C1319 1.367 . S
C1319 C1318 1.367 . S
C1319 C1321 1.433 . S
C1320 C1316 1.350 . S
C1320 C1317 1.463 1_554 S
C1320 N1324 1.427 . S
C1321 H1311 0.929 . S
C1321 C1319 1.433 . S
C1321 N1324 1.384 . S
C1322 H1313 0.929 . S
C1322 C1314 1.378 . S
C1322 C1317 1.350 . S
C1323 H1310 0.929 . S
C1323 C1315 1.433 . S
C1323 N1325 1.384 . S
N1324 C1320 1.427 . S
N1324 C1321 1.384 . S
N1325 C1317 1.427 . S
N1325 C1323 1.384 . S
H1326 C1332 0.930 . S
H1327 C1336 0.930 . S
H1328 C1341 0.929 . S
H1329 C1339 0.929 . S
H1330 C1334 0.929 . S
H1331 C1340 0.929 . S
C1332 H1326 0.930 . S
C1332 C1333 1.367 . S
C1332 C1340 1.378 . S
C1333 C1332 1.367 . S
C1333 C1341 1.433 . S
C1334 H1330 0.929 . S
C1334 C1336 1.378 . S
C1334 C1338 1.350 . S
C1335 C1338 1.463 1_556 S
C1335 C1340 1.350 . S
C1335 N1343 1.427 . S
C1336 H1327 0.930 . S
C1336 C1334 1.378 . S
C1336 C1337 1.367 . S
C1337 C1336 1.367 . S
C1337 C1339 1.433 . S
C1338 C1334 1.350 . S
C1338 C1335 1.463 1_554 S
C1338 N1342 1.427 . S
C1339 H1329 0.929 . S
C1339 C1337 1.433 . S
C1339 N1342 1.384 . S
C1340 H1331 0.929 . S
C1340 C1332 1.378 . S
C1340 C1335 1.350 . S
C1341 H1328 0.929 . S
C1341 C1333 1.433 . S
C1341 N1343 1.384 . S
N1342 C1338 1.427 . S
N1342 C1339 1.384 . S
N1343 C1335 1.427 . S
N1343 C1341 1.384 . S
H1344 C1350 0.930 . S
H1345 C1354 0.930 . S
H1346 C1359 0.929 . S
H1347 C1357 0.929 . S
H1348 C1352 0.929 . S
H1349 C1358 0.929 . S
C1350 H1344 0.930 . S
C1350 C1351 1.367 . S
C1350 C1358 1.378 . S
C1351 C1350 1.367 . S
C1351 C1359 1.433 . S
C1352 H1348 0.929 . S
C1352 C1354 1.378 . S
C1352 C1356 1.350 . S
C1353 C1356 1.463 1_655 S
C1353 C1358 1.350 . S
C1353 N1361 1.427 . S
C1354 H1345 0.930 . S
C1354 C1352 1.378 . S
C1354 C1355 1.367 . S
C1355 C1354 1.367 . S
C1355 C1357 1.433 . S
C1356 C1352 1.350 . S
C1356 C1353 1.463 1_455 S
C1356 N1360 1.427 . S
C1357 H1347 0.929 . S
C1357 C1355 1.433 . S
C1357 N1360 1.384 . S
C1358 H1349 0.929 . S
C1358 C1350 1.378 . S
C1358 C1353 1.350 . S
C1359 H1346 0.929 . S
C1359 C1351 1.433 . S
C1359 N1361 1.384 . S
N1360 C1356 1.427 . S
N1360 C1357 1.384 . S
N1361 C1353 1.427 . S
N1361 C1359 1.384 . S
H1362 C1368 0.930 . S
H1363 C1372 0.930 . S
H1364 C1377 0.929 . S
H1365 C1375 0.929 . S
H1366 C1370 0.929 . S
H1367 C1376 0.929 . S
C1368 H1362 0.930 . S
C1368 C1369 1.367 . S
C1368 C1376 1.378 . S
C1369 C1368 1.367 . S
C1369 C1377 1.433 . S
C1370 H1366 0.929 . S
C1370 C1372 1.378 . S
C1370 C1374 1.350 . S
C1371 C1374 1.463 1_455 S
C1371 C1376 1.350 . S
C1371 N1379 1.427 . S
C1372 H1363 0.930 . S
C1372 C1370 1.378 . S
C1372 C1373 1.367 . S
C1373 C1372 1.367 . S
C1373 C1375 1.433 . S
C1374 C1370 1.350 . S
C1374 C1371 1.463 1_655 S
C1374 N1378 1.427 . S
C1375 H1365 0.929 . S
C1375 C1373 1.433 . S
C1375 N1378 1.384 . S
C1376 H1367 0.929 . S
C1376 C1368 1.378 . S
C1376 C1371 1.350 . S
C1377 H1364 0.929 . S
C1377 C1369 1.433 . S
C1377 N1379 1.384 . S
N1378 C1374 1.427 . S
N1378 C1375 1.384 . S
N1379 C1371 1.427 . S
N1379 C1377 1.384 . S
H1380 C1386 0.930 . S
H1381 C1390 0.930 . S
H1382 C1395 0.929 . S
H1383 C1393 0.929 . S
H1384 C1388 0.929 . S
H1385 C1394 0.929 . S
C1386 H1380 0.930 . S
C1386 C1387 1.367 . S
C1386 C1394 1.378 . S
C1387 C1386 1.367 . S
C1387 C1395 1.433 . S
C1388 H1384 0.929 . S
C1388 C1390 1.378 . S
C1388 C1392 1.350 . S
C1389 C1392 1.463 1_545 S
C1389 C1394 1.350 . S
C1389 N1397 1.427 . S
C1390 H1381 0.930 . S
C1390 C1388 1.378 . S
C1390 C1391 1.367 . S
C1391 C1390 1.367 . S
C1391 C1393 1.433 . S
C1392 C1388 1.350 . S
C1392 C1389 1.463 1_565 S
C1392 N1396 1.427 . S
C1393 H1383 0.929 . S
C1393 C1391 1.433 . S
C1393 N1396 1.384 . S
C1394 H1385 0.929 . S
C1394 C1386 1.378 . S
C1394 C1389 1.350 . S
C1395 H1382 0.929 . S
C1395 C1387 1.433 . S
C1395 N1397 1.384 . S
N1396 C1392 1.427 . S
N1396 C1393 1.384 . S
N1397 C1389 1.427 . S
N1397 C1395 1.384 . S
H1398 C1404 0.930 . S
H1399 C1408 0.930 . S
H1400 C1413 0.929 . S
H1401 C1411 0.929 . S
H1402 C1406 0.929 . S
H1403 C1412 0.929 . S
C1404 H1398 0.930 . S
C1404 C1405 1.367 . S
C1404 C1412 1.378 . S
C1405 C1404 1.367 . S
C1405 C1413 1.433 . S
C1406 H1402 0.929 . S
C1406 C1408 1.378 . S
C1406 C1410 1.350 . S
C1407 C1410 1.463 1_655 S
C1407 C1412 1.350 . S
C1407 N1415 1.427 . S
C1408 H1399 0.930 . S
C1408 C1406 1.378 . S
C1408 C1409 1.367 . S
C1409 C1408 1.367 . S
C1409 C1411 1.433 . S
C1410 C1406 1.350 . S
C1410 C1407 1.463 1_455 S
C1410 N1414 1.427 . S
C1411 H1401 0.929 . S
C1411 C1409 1.433 . S
C1411 N1414 1.384 . S
C1412 H1403 0.929 . S
C1412 C1404 1.378 . S
C1412 C1407 1.350 . S
C1413 H1400 0.929 . S
C1413 C1405 1.433 . S
C1413 N1415 1.384 . S
N1414 C1410 1.427 . S
N1414 C1411 1.384 . S
N1415 C1407 1.427 . S
N1415 C1413 1.384 . S
H1416 C1422 0.930 . S
H1417 C1426 0.930 . S
H1418 C1431 0.929 . S
H1419 C1429 0.929 . S
H1420 C1424 0.929 . S
H1421 C1430 0.929 . S
C1422 H1416 0.930 . S
C1422 C1423 1.367 . S
C1422 C1430 1.378 . S
C1423 C1422 1.367 . S
C1423 C1431 1.433 . S
C1424 H1420 0.929 . S
C1424 C1426 1.378 . S
C1424 C1428 1.350 . S
C1425 C1428 1.463 1_565 S
C1425 C1430 1.350 . S
C1425 N1433 1.427 . S
C1426 H1417 0.930 . S
C1426 C1424 1.378 . S
C1426 C1427 1.367 . S
C1427 C1426 1.367 . S
C1427 C1429 1.433 . S
C1428 C1424 1.350 . S
C1428 C1425 1.463 1_545 S
C1428 N1432 1.427 . S
C1429 H1419 0.929 . S
C1429 C1427 1.433 . S
C1429 N1432 1.384 . S
C1430 H1421 0.929 . S
C1430 C1422 1.378 . S
C1430 C1425 1.350 . S
C1431 H1418 0.929 . S
C1431 C1423 1.433 . S
C1431 N1433 1.384 . S
N1432 C1428 1.427 . S
N1432 C1429 1.384 . S
N1433 C1425 1.427 . S
N1433 C1431 1.384 . S
H1434 C1440 0.930 . S
H1435 C1444 0.930 . S
H1436 C1449 0.929 . S
H1437 C1447 0.929 . S
H1438 C1442 0.929 . S
H1439 C1448 0.929 . S
C1440 H1434 0.930 . S
C1440 C1441 1.367 . S
C1440 C1448 1.378 . S
C1441 C1440 1.367 . S
C1441 C1449 1.433 . S
C1442 H1438 0.929 . S
C1442 C1444 1.378 . S
C1442 C1446 1.350 . S
C1443 C1446 1.463 1_455 S
C1443 C1448 1.350 . S
C1443 N1451 1.427 . S
C1444 H1435 0.930 . S
C1444 C1442 1.378 . S
C1444 C1445 1.367 . S
C1445 C1444 1.367 . S
C1445 C1447 1.433 . S
C1446 C1442 1.350 . S
C1446 C1443 1.463 1_655 S
C1446 N1450 1.427 . S
C1447 H1437 0.929 . S
C1447 C1445 1.433 . S
C1447 N1450 1.384 . S
C1448 H1439 0.929 . S
C1448 C1440 1.378 . S
C1448 C1443 1.350 . S
C1449 H1436 0.929 . S
C1449 C1441 1.433 . S
C1449 N1451 1.384 . S
N1450 C1446 1.427 . S
N1450 C1447 1.384 . S
N1451 C1443 1.427 . S
N1451 C1449 1.384 . S
H1452 C1458 0.930 . S
H1453 C1462 0.930 . S
H1454 C1467 0.929 . S
H1455 C1465 0.929 . S
H1456 C1460 0.929 . S
H1457 C1466 0.929 . S
C1458 H1452 0.930 . S
C1458 C1459 1.367 . S
C1458 C1466 1.378 . S
C1459 C1458 1.367 . S
C1459 C1467 1.433 . S
C1460 H1456 0.929 . S
C1460 C1462 1.378 . S
C1460 C1464 1.350 . S
C1461 C1464 1.463 1_565 S
C1461 C1466 1.350 . S
C1461 N1469 1.427 . S
C1462 H1453 0.930 . S
C1462 C1460 1.378 . S
C1462 C1463 1.367 . S
C1463 C1462 1.367 . S
C1463 C1465 1.433 . S
C1464 C1460 1.350 . S
C1464 C1461 1.463 1_545 S
C1464 N1468 1.427 . S
C1465 H1455 0.929 . S
C1465 C1463 1.433 . S
C1465 N1468 1.384 . S
C1466 H1457 0.929 . S
C1466 C1458 1.378 . S
C1466 C1461 1.350 . S
C1467 H1454 0.929 . S
C1467 C1459 1.433 . S
C1467 N1469 1.384 . S
N1468 C1464 1.427 . S
N1468 C1465 1.384 . S
N1469 C1461 1.427 . S
N1469 C1467 1.384 . S
H1470 C1476 0.930 . S
H1471 C1480 0.930 . S
H1472 C1485 0.929 . S
H1473 C1483 0.929 . S
H1474 C1478 0.929 . S
H1475 C1484 0.929 . S
C1476 H1470 0.930 . S
C1476 C1477 1.367 . S
C1476 C1484 1.378 . S
C1477 C1476 1.367 . S
C1477 C1485 1.433 . S
C1478 H1474 0.929 . S
C1478 C1480 1.378 . S
C1478 C1482 1.350 . S
C1479 C1482 1.463 1_545 S
C1479 C1484 1.350 . S
C1479 N1487 1.427 . S
C1480 H1471 0.930 . S
C1480 C1478 1.378 . S
C1480 C1481 1.367 . S
C1481 C1480 1.367 . S
C1481 C1483 1.433 . S
C1482 C1478 1.350 . S
C1482 C1479 1.463 1_565 S
C1482 N1486 1.427 . S
C1483 H1473 0.929 . S
C1483 C1481 1.433 . S
C1483 N1486 1.384 . S
C1484 H1475 0.929 . S
C1484 C1476 1.378 . S
C1484 C1479 1.350 . S
C1485 H1472 0.929 . S
C1485 C1477 1.433 . S
C1485 N1487 1.384 . S
N1486 C1482 1.427 . S
N1486 C1483 1.384 . S
N1487 C1479 1.427 . S
N1487 C1485 1.384 . S
H1488 C1494 0.930 . S
H1489 C1498 0.930 . S
H1490 C1503 0.929 . S
H1491 C1501 0.929 . S
H1492 C1496 0.929 . S
H1493 C1502 0.929 . S
C1494 H1488 0.930 . S
C1494 C1495 1.367 . S
C1494 C1502 1.378 . S
C1495 C1494 1.367 . S
C1495 C1503 1.433 . S
C1496 H1492 0.929 . S
C1496 C1498 1.378 . S
C1496 C1500 1.350 . S
C1497 C1500 1.463 . S
C1497 C1502 1.350 . S
C1497 N1505 1.427 . S
C1498 H1489 0.930 . S
C1498 C1496 1.378 . S
C1498 C1499 1.367 . S
C1499 C1498 1.367 . S
C1499 C1501 1.433 . S
C1500 C1496 1.350 . S
C1500 C1497 1.463 . S
C1500 N1504 1.427 . S
C1501 H1491 0.929 . S
C1501 C1499 1.433 . S
C1501 N1504 1.384 . S
C1502 H1493 0.929 . S
C1502 C1494 1.378 . S
C1502 C1497 1.350 . S
C1503 H1490 0.929 . S
C1503 C1495 1.433 . S
C1503 N1505 1.384 . S
N1504 C1500 1.427 . S
N1504 C1501 1.384 . S
N1505 C1497 1.427 . S
N1505 C1503 1.384 . S
H1506 C1512 0.930 . S
H1507 C1516 0.930 . S
H1508 C1521 0.929 . S
H1509 C1519 0.929 . S
H1510 C1514 0.929 . S
H1511 C1520 0.929 . S
C1512 H1506 0.930 . S
C1512 C1513 1.367 . S
C1512 C1520 1.378 . S
C1513 C1512 1.367 . S
C1513 C1521 1.433 . S
C1514 H1510 0.929 . S
C1514 C1516 1.378 . S
C1514 C1518 1.350 . S
C1515 C1518 1.463 . S
C1515 C1520 1.350 . S
C1515 N1523 1.427 . S
C1516 H1507 0.930 . S
C1516 C1514 1.378 . S
C1516 C1517 1.367 . S
C1517 C1516 1.367 . S
C1517 C1519 1.433 . S
C1518 C1514 1.350 . S
C1518 C1515 1.463 . S
C1518 N1522 1.427 . S
C1519 H1509 0.929 . S
C1519 C1517 1.433 . S
C1519 N1522 1.384 . S
C1520 H1511 0.929 . S
C1520 C1512 1.378 . S
C1520 C1515 1.350 . S
C1521 H1508 0.929 . S
C1521 C1513 1.433 . S
C1521 N1523 1.384 . S
N1522 C1518 1.427 . S
N1522 C1519 1.384 . S
N1523 C1515 1.427 . S
N1523 C1521 1.384 . S
H1524 C1530 0.930 . S
H1525 C1534 0.930 . S
H1526 C1539 0.929 . S
H1527 C1537 0.929 . S
H1528 C1532 0.929 . S
H1529 C1538 0.929 . S
C1530 H1524 0.930 . S
C1530 C1531 1.367 . S
C1530 C1538 1.378 . S
C1531 C1530 1.367 . S
C1531 C1539 1.433 . S
C1532 H1528 0.929 . S
C1532 C1534 1.378 . S
C1532 C1536 1.350 . S
C1533 C1536 1.463 . S
C1533 C1538 1.350 . S
C1533 N1541 1.427 . S
C1534 H1525 0.930 . S
C1534 C1532 1.378 . S
C1534 C1535 1.367 . S
C1535 C1534 1.367 . S
C1535 C1537 1.433 . S
C1536 C1532 1.350 . S
C1536 C1533 1.463 . S
C1536 N1540 1.427 . S
C1537 H1527 0.929 . S
C1537 C1535 1.433 . S
C1537 N1540 1.384 . S
C1538 H1529 0.929 . S
C1538 C1530 1.378 . S
C1538 C1533 1.350 . S
C1539 H1526 0.929 . S
C1539 C1531 1.433 . S
C1539 N1541 1.384 . S
N1540 C1536 1.427 . S
N1540 C1537 1.384 . S
N1541 C1533 1.427 . S
N1541 C1539 1.384 . S
H1542 C1548 0.930 . S
H1543 C1552 0.930 . S
H1544 C1557 0.929 . S
H1545 C1555 0.929 . S
H1546 C1550 0.929 . S
H1547 C1556 0.929 . S
C1548 H1542 0.930 . S
C1548 C1549 1.367 . S
C1548 C1556 1.378 . S
C1549 C1548 1.367 . S
C1549 C1557 1.433 . S
C1550 H1546 0.929 . S
C1550 C1552 1.378 . S
C1550 C1554 1.350 . S
C1551 C1554 1.463 . S
C1551 C1556 1.350 . S
C1551 N1559 1.427 . S
C1552 H1543 0.930 . S
C1552 C1550 1.378 . S
C1552 C1553 1.367 . S
C1553 C1552 1.367 . S
C1553 C1555 1.433 . S
C1554 C1550 1.350 . S
C1554 C1551 1.463 . S
C1554 N1558 1.427 . S
C1555 H1545 0.929 . S
C1555 C1553 1.433 . S
C1555 N1558 1.384 . S
C1556 H1547 0.929 . S
C1556 C1548 1.378 . S
C1556 C1551 1.350 . S
C1557 H1544 0.929 . S
C1557 C1549 1.433 . S
C1557 N1559 1.384 . S
N1558 C1554 1.427 . S
N1558 C1555 1.384 . S
N1559 C1551 1.427 . S
N1559 C1557 1.384 . S
H1560 C1566 0.930 . S
H1561 C1570 0.930 . S
H1562 C1575 0.929 . S
H1563 C1573 0.929 . S
H1564 C1568 0.929 . S
H1565 C1574 0.929 . S
C1566 H1560 0.930 . S
C1566 C1567 1.367 . S
C1566 C1574 1.378 . S
C1567 C1566 1.367 . S
C1567 C1575 1.433 . S
C1568 H1564 0.929 . S
C1568 C1570 1.378 . S
C1568 C1572 1.350 . S
C1569 C1572 1.463 . S
C1569 C1574 1.350 . S
C1569 N1577 1.427 . S
C1570 H1561 0.930 . S
C1570 C1568 1.378 . S
C1570 C1571 1.367 . S
C1571 C1570 1.367 . S
C1571 C1573 1.433 . S
C1572 C1568 1.350 . S
C1572 C1569 1.463 . S
C1572 N1576 1.427 . S
C1573 H1563 0.929 . S
C1573 C1571 1.433 . S
C1573 N1576 1.384 . S
C1574 H1565 0.929 . S
C1574 C1566 1.378 . S
C1574 C1569 1.350 . S
C1575 H1562 0.929 . S
C1575 C1567 1.433 . S
C1575 N1577 1.384 . S
N1576 C1572 1.427 . S
N1576 C1573 1.384 . S
N1577 C1569 1.427 . S
N1577 C1575 1.384 . S
H1578 C1584 0.930 . S
H1579 C1588 0.930 . S
H1580 C1593 0.929 . S
H1581 C1591 0.929 . S
H1582 C1586 0.929 . S
H1583 C1592 0.929 . S
C1584 H1578 0.930 . S
C1584 C1585 1.367 . S
C1584 C1592 1.378 . S
C1585 C1584 1.367 . S
C1585 C1593 1.433 . S
C1586 H1582 0.929 . S
C1586 C1588 1.378 . S
C1586 C1590 1.350 . S
C1587 C1590 1.463 . S
C1587 C1592 1.350 . S
C1587 N1595 1.427 . S
C1588 H1579 0.930 . S
C1588 C1586 1.378 . S
C1588 C1589 1.367 . S
C1589 C1588 1.367 . S
C1589 C1591 1.433 . S
C1590 C1586 1.350 . S
C1590 C1587 1.463 . S
C1590 N1594 1.427 . S
C1591 H1581 0.929 . S
C1591 C1589 1.433 . S
C1591 N1594 1.384 . S
C1592 H1583 0.929 . S
C1592 C1584 1.378 . S
C1592 C1587 1.350 . S
C1593 H1580 0.929 . S
C1593 C1585 1.433 . S
C1593 N1595 1.384 . S
N1594 C1590 1.427 . S
N1594 C1591 1.384 . S
N1595 C1587 1.427 . S
N1595 C1593 1.384 . S
H1596 C1602 0.930 . S
H1597 C1606 0.930 . S
H1598 C1611 0.929 . S
H1599 C1609 0.929 . S
H1600 C1604 0.929 . S
H1601 C1610 0.929 . S
C1602 H1596 0.930 . S
C1602 C1603 1.367 . S
C1602 C1610 1.378 . S
C1603 C1602 1.367 . S
C1603 C1611 1.433 . S
C1604 H1600 0.929 . S
C1604 C1606 1.378 . S
C1604 C1608 1.350 . S
C1605 C1608 1.463 . S
C1605 C1610 1.350 . S
C1605 N1613 1.427 . S
C1606 H1597 0.930 . S
C1606 C1604 1.378 . S
C1606 C1607 1.367 . S
C1607 C1606 1.367 . S
C1607 C1609 1.433 . S
C1608 C1604 1.350 . S
C1608 C1605 1.463 . S
C1608 N1612 1.427 . S
C1609 H1599 0.929 . S
C1609 C1607 1.433 . S
C1609 N1612 1.384 . S
C1610 H1601 0.929 . S
C1610 C1602 1.378 . S
C1610 C1605 1.350 . S
C1611 H1598 0.929 . S
C1611 C1603 1.433 . S
C1611 N1613 1.384 . S
N1612 C1608 1.427 . S
N1612 C1609 1.384 . S
N1613 C1605 1.427 . S
N1613 C1611 1.384 . S
H1614 C1620 0.930 . S
H1615 C1624 0.930 . S
H1616 C1629 0.929 . S
H1617 C1627 0.929 . S
H1618 C1622 0.929 . S
H1619 C1628 0.929 . S
C1620 H1614 0.930 . S
C1620 C1621 1.367 . S
C1620 C1628 1.378 . S
C1621 C1620 1.367 . S
C1621 C1629 1.433 . S
C1622 H1618 0.929 . S
C1622 C1624 1.378 . S
C1622 C1626 1.350 . S
C1623 C1626 1.463 . S
C1623 C1628 1.350 . S
C1623 N1631 1.427 . S
C1624 H1615 0.930 . S
C1624 C1622 1.378 . S
C1624 C1625 1.367 . S
C1625 C1624 1.367 . S
C1625 C1627 1.433 . S
C1626 C1622 1.350 . S
C1626 C1623 1.463 . S
C1626 N1630 1.427 . S
C1627 H1617 0.929 . S
C1627 C1625 1.433 . S
C1627 N1630 1.384 . S
C1628 H1619 0.929 . S
C1628 C1620 1.378 . S
C1628 C1623 1.350 . S
C1629 H1616 0.929 . S
C1629 C1621 1.433 . S
C1629 N1631 1.384 . S
N1630 C1626 1.427 . S
N1630 C1627 1.384 . S
N1631 C1623 1.427 . S
N1631 C1629 1.384 . S
H1632 C1638 0.930 . S
H1633 C1642 0.930 . S
H1634 C1647 0.929 . S
H1635 C1645 0.929 . S
H1636 C1640 0.929 . S
H1637 C1646 0.929 . S
C1638 H1632 0.930 . S
C1638 C1639 1.367 . S
C1638 C1646 1.378 . S
C1639 C1638 1.367 . S
C1639 C1647 1.433 . S
C1640 H1636 0.929 . S
C1640 C1642 1.378 . S
C1640 C1644 1.350 . S
C1641 C1644 1.463 . S
C1641 C1646 1.350 . S
C1641 N1649 1.427 . S
C1642 H1633 0.930 . S
C1642 C1640 1.378 . S
C1642 C1643 1.367 . S
C1643 C1642 1.367 . S
C1643 C1645 1.433 . S
C1644 C1640 1.350 . S
C1644 C1641 1.463 . S
C1644 N1648 1.427 . S
C1645 H1635 0.929 . S
C1645 C1643 1.433 . S
C1645 N1648 1.384 . S
C1646 H1637 0.929 . S
C1646 C1638 1.378 . S
C1646 C1641 1.350 . S
C1647 H1634 0.929 . S
C1647 C1639 1.433 . S
C1647 N1649 1.384 . S
N1648 C1644 1.427 . S
N1648 C1645 1.384 . S
N1649 C1641 1.427 . S
N1649 C1647 1.384 . S
H1650 C1656 0.930 . S
H1651 C1660 0.930 . S
H1652 C1665 0.929 . S
H1653 C1663 0.929 . S
H1654 C1658 0.929 . S
H1655 C1664 0.929 . S
C1656 H1650 0.930 . S
C1656 C1657 1.367 . S
C1656 C1664 1.378 . S
C1657 C1656 1.367 . S
C1657 C1665 1.433 . S
C1658 H1654 0.929 . S
C1658 C1660 1.378 . S
C1658 C1662 1.350 . S
C1659 C1662 1.463 . S
C1659 C1664 1.350 . S
C1659 N1667 1.427 . S
C1660 H1651 0.930 . S
C1660 C1658 1.378 . S
C1660 C1661 1.367 . S
C1661 C1660 1.367 . S
C1661 C1663 1.433 . S
C1662 C1658 1.350 . S
C1662 C1659 1.463 . S
C1662 N1666 1.427 . S
C1663 H1653 0.929 . S
C1663 C1661 1.433 . S
C1663 N1666 1.384 . S
C1664 H1655 0.929 . S
C1664 C1656 1.378 . S
C1664 C1659 1.350 . S
C1665 H1652 0.929 . S
C1665 C1657 1.433 . S
C1665 N1667 1.384 . S
N1666 C1662 1.427 . S
N1666 C1663 1.384 . S
N1667 C1659 1.427 . S
N1667 C1665 1.384 . S
H1668 C1674 0.930 . S
H1669 C1678 0.930 . S
H1670 C1683 0.929 . S
H1671 C1681 0.929 . S
H1672 C1676 0.929 . S
H1673 C1682 0.929 . S
C1674 H1668 0.930 . S
C1674 C1675 1.367 . S
C1674 C1682 1.378 . S
C1675 C1674 1.367 . S
C1675 C1683 1.433 . S
C1676 H1672 0.929 . S
C1676 C1678 1.378 . S
C1676 C1680 1.350 . S
C1677 C1680 1.463 . S
C1677 C1682 1.350 . S
C1677 N1685 1.427 . S
C1678 H1669 0.930 . S
C1678 C1676 1.378 . S
C1678 C1679 1.367 . S
C1679 C1678 1.367 . S
C1679 C1681 1.433 . S
C1680 C1676 1.350 . S
C1680 C1677 1.463 . S
C1680 N1684 1.427 . S
C1681 H1671 0.929 . S
C1681 C1679 1.433 . S
C1681 N1684 1.384 . S
C1682 H1673 0.929 . S
C1682 C1674 1.378 . S
C1682 C1677 1.350 . S
C1683 H1670 0.929 . S
C1683 C1675 1.433 . S
C1683 N1685 1.384 . S
N1684 C1680 1.427 . S
N1684 C1681 1.384 . S
N1685 C1677 1.427 . S
N1685 C1683 1.384 . S
H1686 C1692 0.930 . S
H1687 C1696 0.930 . S
H1688 C1701 0.929 . S
H1689 C1699 0.929 . S
H1690 C1694 0.929 . S
H1691 C1700 0.929 . S
C1692 H1686 0.930 . S
C1692 C1693 1.367 . S
C1692 C1700 1.378 . S
C1693 C1692 1.367 . S
C1693 C1701 1.433 . S
C1694 H1690 0.929 . S
C1694 C1696 1.378 . S
C1694 C1698 1.350 . S
C1695 C1698 1.463 . S
C1695 C1700 1.350 . S
C1695 N1703 1.427 . S
C1696 H1687 0.930 . S
C1696 C1694 1.378 . S
C1696 C1697 1.367 . S
C1697 C1696 1.367 . S
C1697 C1699 1.433 . S
C1698 C1694 1.350 . S
C1698 C1695 1.463 . S
C1698 N1702 1.427 . S
C1699 H1689 0.929 . S
C1699 C1697 1.433 . S
C1699 N1702 1.384 . S
C1700 H1691 0.929 . S
C1700 C1692 1.378 . S
C1700 C1695 1.350 . S
C1701 H1688 0.929 . S
C1701 C1693 1.433 . S
C1701 N1703 1.384 . S
N1702 C1698 1.427 . S
N1702 C1699 1.384 . S
N1703 C1695 1.427 . S
N1703 C1701 1.384 . S
H1704 C1710 0.930 . S
H1705 C1714 0.930 . S
H1706 C1719 0.929 . S
H1707 C1717 0.929 . S
H1708 C1712 0.929 . S
H1709 C1718 0.929 . S
C1710 H1704 0.930 . S
C1710 C1711 1.367 . S
C1710 C1718 1.378 . S
C1711 C1710 1.367 . S
C1711 C1719 1.433 . S
C1712 H1708 0.929 . S
C1712 C1714 1.378 . S
C1712 C1716 1.350 . S
C1713 C1716 1.463 . S
C1713 C1718 1.350 . S
C1713 N1721 1.427 . S
C1714 H1705 0.930 . S
C1714 C1712 1.378 . S
C1714 C1715 1.367 . S
C1715 C1714 1.367 . S
C1715 C1717 1.433 . S
C1716 C1712 1.350 . S
C1716 C1713 1.463 . S
C1716 N1720 1.427 . S
C1717 H1707 0.929 . S
C1717 C1715 1.433 . S
C1717 N1720 1.384 . S
C1718 H1709 0.929 . S
C1718 C1710 1.378 . S
C1718 C1713 1.350 . S
C1719 H1706 0.929 . S
C1719 C1711 1.433 . S
C1719 N1721 1.384 . S
N1720 C1716 1.427 . S
N1720 C1717 1.384 . S
N1721 C1713 1.427 . S
N1721 C1719 1.384 . S
H1722 C1728 0.930 . S
H1723 C1732 0.930 . S
H1724 C1737 0.929 . S
H1725 C1735 0.929 . S
H1726 C1730 0.929 . S
H1727 C1736 0.929 . S
C1728 H1722 0.930 . S
C1728 C1729 1.367 . S
C1728 C1736 1.378 . S
C1729 C1728 1.367 . S
C1729 C1737 1.433 . S
C1730 H1726 0.929 . S
C1730 C1732 1.378 . S
C1730 C1734 1.350 . S
C1731 C1734 1.463 . S
C1731 C1736 1.350 . S
C1731 N1739 1.427 . S
C1732 H1723 0.930 . S
C1732 C1730 1.378 . S
C1732 C1733 1.367 . S
C1733 C1732 1.367 . S
C1733 C1735 1.433 . S
C1734 C1730 1.350 . S
C1734 C1731 1.463 . S
C1734 N1738 1.427 . S
C1735 H1725 0.929 . S
C1735 C1733 1.433 . S
C1735 N1738 1.384 . S
C1736 H1727 0.929 . S
C1736 C1728 1.378 . S
C1736 C1731 1.350 . S
C1737 H1724 0.929 . S
C1737 C1729 1.433 . S
C1737 N1739 1.384 . S
N1738 C1734 1.427 . S
N1738 C1735 1.384 . S
N1739 C1731 1.427 . S
N1739 C1737 1.384 . S
H1740 C1746 0.930 . S
H1741 C1750 0.930 . S
H1742 C1755 0.929 . S
H1743 C1753 0.929 . S
H1744 C1748 0.929 . S
H1745 C1754 0.929 . S
C1746 H1740 0.930 . S
C1746 C1747 1.367 . S
C1746 C1754 1.378 . S
C1747 C1746 1.367 . S
C1747 C1755 1.433 . S
C1748 H1744 0.929 . S
C1748 C1750 1.378 . S
C1748 C1752 1.350 . S
C1749 C1752 1.463 . S
C1749 C1754 1.350 . S
C1749 N1757 1.427 . S
C1750 H1741 0.930 . S
C1750 C1748 1.378 . S
C1750 C1751 1.367 . S
C1751 C1750 1.367 . S
C1751 C1753 1.433 . S
C1752 C1748 1.350 . S
C1752 C1749 1.463 . S
C1752 N1756 1.427 . S
C1753 H1743 0.929 . S
C1753 C1751 1.433 . S
C1753 N1756 1.384 . S
C1754 H1745 0.929 . S
C1754 C1746 1.378 . S
C1754 C1749 1.350 . S
C1755 H1742 0.929 . S
C1755 C1747 1.433 . S
C1755 N1757 1.384 . S
N1756 C1752 1.427 . S
N1756 C1753 1.384 . S
N1757 C1749 1.427 . S
N1757 C1755 1.384 . S
H1758 C1764 0.930 . S
H1759 C1768 0.930 . S
H1760 C1773 0.929 . S
H1761 C1771 0.929 . S
H1762 C1766 0.929 . S
H1763 C1772 0.929 . S
C1764 H1758 0.930 . S
C1764 C1765 1.367 . S
C1764 C1772 1.378 . S
C1765 C1764 1.367 . S
C1765 C1773 1.433 . S
C1766 H1762 0.929 . S
C1766 C1768 1.378 . S
C1766 C1770 1.350 . S
C1767 C1770 1.463 . S
C1767 C1772 1.350 . S
C1767 N1775 1.427 . S
C1768 H1759 0.930 . S
C1768 C1766 1.378 . S
C1768 C1769 1.367 . S
C1769 C1768 1.367 . S
C1769 C1771 1.433 . S
C1770 C1766 1.350 . S
C1770 C1767 1.463 . S
C1770 N1774 1.427 . S
C1771 H1761 0.929 . S
C1771 C1769 1.433 . S
C1771 N1774 1.384 . S
C1772 H1763 0.929 . S
C1772 C1764 1.378 . S
C1772 C1767 1.350 . S
C1773 H1760 0.929 . S
C1773 C1765 1.433 . S
C1773 N1775 1.384 . S
N1774 C1770 1.427 . S
N1774 C1771 1.384 . S
N1775 C1767 1.427 . S
N1775 C1773 1.384 . S
H1776 C1782 0.930 . S
H1777 C1786 0.930 . S
H1778 C1791 0.929 . S
H1779 C1789 0.929 . S
H1780 C1784 0.929 . S
H1781 C1790 0.929 . S
C1782 H1776 0.930 . S
C1782 C1783 1.367 . S
C1782 C1790 1.378 . S
C1783 C1782 1.367 . S
C1783 C1791 1.433 . S
C1784 H1780 0.929 . S
C1784 C1786 1.378 . S
C1784 C1788 1.350 . S
C1785 C1788 1.463 . S
C1785 C1790 1.350 . S
C1785 N1793 1.427 . S
C1786 H1777 0.930 . S
C1786 C1784 1.378 . S
C1786 C1787 1.367 . S
C1787 C1786 1.367 . S
C1787 C1789 1.433 . S
C1788 C1784 1.350 . S
C1788 C1785 1.463 . S
C1788 N1792 1.427 . S
C1789 H1779 0.929 . S
C1789 C1787 1.433 . S
C1789 N1792 1.384 . S
C1790 H1781 0.929 . S
C1790 C1782 1.378 . S
C1790 C1785 1.350 . S
C1791 H1778 0.929 . S
C1791 C1783 1.433 . S
C1791 N1793 1.384 . S
N1792 C1788 1.427 . S
N1792 C1789 1.384 . S
N1793 C1785 1.427 . S
N1793 C1791 1.384 . S
H1794 C1800 0.930 . S
H1795 C1804 0.930 . S
H1796 C1809 0.929 . S
H1797 C1807 0.929 . S
H1798 C1802 0.929 . S
H1799 C1808 0.929 . S
C1800 H1794 0.930 . S
C1800 C1801 1.367 . S
C1800 C1808 1.378 . S
C1801 C1800 1.367 . S
C1801 C1809 1.433 . S
C1802 H1798 0.929 . S
C1802 C1804 1.378 . S
C1802 C1806 1.350 . S
C1803 C1806 1.463 . S
C1803 C1808 1.350 . S
C1803 N1811 1.427 . S
C1804 H1795 0.930 . S
C1804 C1802 1.378 . S
C1804 C1805 1.367 . S
C1805 C1804 1.367 . S
C1805 C1807 1.433 . S
C1806 C1802 1.350 . S
C1806 C1803 1.463 . S
C1806 N1810 1.427 . S
C1807 H1797 0.929 . S
C1807 C1805 1.433 . S
C1807 N1810 1.384 . S
C1808 H1799 0.929 . S
C1808 C1800 1.378 . S
C1808 C1803 1.350 . S
C1809 H1796 0.929 . S
C1809 C1801 1.433 . S
C1809 N1811 1.384 . S
N1810 C1806 1.427 . S
N1810 C1807 1.384 . S
N1811 C1803 1.427 . S
N1811 C1809 1.384 . S
H1812 C1818 0.930 . S
H1813 C1822 0.930 . S
H1814 C1827 0.929 . S
H1815 C1825 0.929 . S
H1816 C1820 0.929 . S
H1817 C1826 0.929 . S
C1818 H1812 0.930 . S
C1818 C1819 1.367 . S
C1818 C1826 1.378 . S
C1819 C1818 1.367 . S
C1819 C1827 1.433 . S
C1820 H1816 0.929 . S
C1820 C1822 1.378 . S
C1820 C1824 1.350 . S
C1821 C1824 1.463 . S
C1821 C1826 1.350 . S
C1821 N1829 1.427 . S
C1822 H1813 0.930 . S
C1822 C1820 1.378 . S
C1822 C1823 1.367 . S
C1823 C1822 1.367 . S
C1823 C1825 1.433 . S
C1824 C1820 1.350 . S
C1824 C1821 1.463 . S
C1824 N1828 1.427 . S
C1825 H1815 0.929 . S
C1825 C1823 1.433 . S
C1825 N1828 1.384 . S
C1826 H1817 0.929 . S
C1826 C1818 1.378 . S
C1826 C1821 1.350 . S
C1827 H1814 0.929 . S
C1827 C1819 1.433 . S
C1827 N1829 1.384 . S
N1828 C1824 1.427 . S
N1828 C1825 1.384 . S
N1829 C1821 1.427 . S
N1829 C1827 1.384 . S
H1830 C1836 0.930 . S
H1831 C1840 0.930 . S
H1832 C1845 0.929 . S
H1833 C1843 0.929 . S
H1834 C1838 0.929 . S
H1835 C1844 0.929 . S
C1836 H1830 0.930 . S
C1836 C1837 1.367 . S
C1836 C1844 1.378 . S
C1837 C1836 1.367 . S
C1837 C1845 1.433 . S
C1838 H1834 0.929 . S
C1838 C1840 1.378 . S
C1838 C1842 1.350 . S
C1839 C1842 1.463 . S
C1839 C1844 1.350 . S
C1839 N1847 1.427 . S
C1840 H1831 0.930 . S
C1840 C1838 1.378 . S
C1840 C1841 1.367 . S
C1841 C1840 1.367 . S
C1841 C1843 1.433 . S
C1842 C1838 1.350 . S
C1842 C1839 1.463 . S
C1842 N1846 1.427 . S
C1843 H1833 0.929 . S
C1843 C1841 1.433 . S
C1843 N1846 1.384 . S
C1844 H1835 0.929 . S
C1844 C1836 1.378 . S
C1844 C1839 1.350 . S
C1845 H1832 0.929 . S
C1845 C1837 1.433 . S
C1845 N1847 1.384 . S
N1846 C1842 1.427 . S
N1846 C1843 1.384 . S
N1847 C1839 1.427 . S
N1847 C1845 1.384 . S
H1848 C1854 0.930 . S
H1849 C1858 0.930 . S
H1850 C1863 0.929 . S
H1851 C1861 0.929 . S
H1852 C1856 0.929 . S
H1853 C1862 0.929 . S
C1854 H1848 0.930 . S
C1854 C1855 1.367 . S
C1854 C1862 1.378 . S
C1855 C1854 1.367 . S
C1855 C1863 1.433 . S
C1856 H1852 0.929 . S
C1856 C1858 1.378 . S
C1856 C1860 1.350 . S
C1857 C1860 1.463 . S
C1857 C1862 1.350 . S
C1857 N1865 1.427 . S
C1858 H1849 0.930 . S
C1858 C1856 1.378 . S
C1858 C1859 1.367 . S
C1859 C1858 1.367 . S
C1859 C1861 1.433 . S
C1860 C1856 1.350 . S
C1860 C1857 1.463 . S
C1860 N1864 1.427 . S
C1861 H1851 0.929 . S
C1861 C1859 1.433 . S
C1861 N1864 1.384 . S
C1862 H1853 0.929 . S
C1862 C1854 1.378 . S
C1862 C1857 1.350 . S
C1863 H1850 0.929 . S
C1863 C1855 1.433 . S
C1863 N1865 1.384 . S
N1864 C1860 1.427 . S
N1864 C1861 1.384 . S
N1865 C1857 1.427 . S
N1865 C1863 1.384 . S
H1866 C1872 0.930 . S
H1867 C1876 0.930 . S
H1868 C1881 0.929 . S
H1869 C1879 0.929 . S
H1870 C1874 0.929 . S
H1871 C1880 0.929 . S
C1872 H1866 0.930 . S
C1872 C1873 1.367 . S
C1872 C1880 1.378 . S
C1873 C1872 1.367 . S
C1873 C1881 1.433 . S
C1874 H1870 0.929 . S
C1874 C1876 1.378 . S
C1874 C1878 1.350 . S
C1875 C1878 1.463 . S
C1875 C1880 1.350 . S
C1875 N1883 1.427 . S
C1876 H1867 0.930 . S
C1876 C1874 1.378 . S
C1876 C1877 1.367 . S
C1877 C1876 1.367 . S
C1877 C1879 1.433 . S
C1878 C1874 1.350 . S
C1878 C1875 1.463 . S
C1878 N1882 1.427 . S
C1879 H1869 0.929 . S
C1879 C1877 1.433 . S
C1879 N1882 1.384 . S
C1880 H1871 0.929 . S
C1880 C1872 1.378 . S
C1880 C1875 1.350 . S
C1881 H1868 0.929 . S
C1881 C1873 1.433 . S
C1881 N1883 1.384 . S
N1882 C1878 1.427 . S
N1882 C1879 1.384 . S
N1883 C1875 1.427 . S
N1883 C1881 1.384 . S
H1884 C1890 0.930 . S
H1885 C1894 0.930 . S
H1886 C1899 0.929 . S
H1887 C1897 0.929 . S
H1888 C1892 0.929 . S
H1889 C1898 0.929 . S
C1890 H1884 0.930 . S
C1890 C1891 1.367 . S
C1890 C1898 1.378 . S
C1891 C1890 1.367 . S
C1891 C1899 1.433 . S
C1892 H1888 0.929 . S
C1892 C1894 1.378 . S
C1892 C1896 1.350 . S
C1893 C1896 1.463 . S
C1893 C1898 1.350 . S
C1893 N1901 1.427 . S
C1894 H1885 0.930 . S
C1894 C1892 1.378 . S
C1894 C1895 1.367 . S
C1895 C1894 1.367 . S
C1895 C1897 1.433 . S
C1896 C1892 1.350 . S
C1896 C1893 1.463 . S
C1896 N1900 1.427 . S
C1897 H1887 0.929 . S
C1897 C1895 1.433 . S
C1897 N1900 1.384 . S
C1898 H1889 0.929 . S
C1898 C1890 1.378 . S
C1898 C1893 1.350 . S
C1899 H1886 0.929 . S
C1899 C1891 1.433 . S
C1899 N1901 1.384 . S
N1900 C1896 1.427 . S
N1900 C1897 1.384 . S
N1901 C1893 1.427 . S
N1901 C1899 1.384 . S
H1902 C1908 0.930 . S
H1903 C1912 0.930 . S
H1904 C1917 0.929 . S
H1905 C1915 0.929 . S
H1906 C1910 0.929 . S
H1907 C1916 0.929 . S
C1908 H1902 0.930 . S
C1908 C1909 1.367 . S
C1908 C1916 1.378 . S
C1909 C1908 1.367 . S
C1909 C1917 1.433 . S
C1910 H1906 0.929 . S
C1910 C1912 1.378 . S
C1910 C1914 1.350 . S
C1911 C1914 1.463 . S
C1911 C1916 1.350 . S
C1911 N1919 1.427 . S
C1912 H1903 0.930 . S
C1912 C1910 1.378 . S
C1912 C1913 1.367 . S
C1913 C1912 1.367 . S
C1913 C1915 1.433 . S
C1914 C1910 1.350 . S
C1914 C1911 1.463 . S
C1914 N1918 1.427 . S
C1915 H1905 0.929 . S
C1915 C1913 1.433 . S
C1915 N1918 1.384 . S
C1916 H1907 0.929 . S
C1916 C1908 1.378 . S
C1916 C1911 1.350 . S
C1917 H1904 0.929 . S
C1917 C1909 1.433 . S
C1917 N1919 1.384 . S
N1918 C1914 1.427 . S
N1918 C1915 1.384 . S
N1919 C1911 1.427 . S
N1919 C1917 1.384 . S
H1920 C1926 0.930 . S
H1921 C1930 0.930 . S
H1922 C1935 0.929 . S
H1923 C1933 0.929 . S
H1924 C1928 0.929 . S
H1925 C1934 0.929 . S
C1926 H1920 0.930 . S
C1926 C1927 1.367 . S
C1926 C1934 1.378 . S
C1927 C1926 1.367 . S
C1927 C1935 1.433 . S
C1928 H1924 0.929 . S
C1928 C1930 1.378 . S
C1928 C1932 1.350 . S
C1929 C1932 1.463 . S
C1929 C1934 1.350 . S
C1929 N1937 1.427 . S
C1930 H1921 0.930 . S
C1930 C1928 1.378 . S
C1930 C1931 1.367 . S
C1931 C1930 1.367 . S
C1931 C1933 1.433 . S
C1932 C1928 1.350 . S
C1932 C1929 1.463 . S
C1932 N1936 1.427 . S
C1933 H1923 0.929 . S
C1933 C1931 1.433 . S
C1933 N1936 1.384 . S
C1934 H1925 0.929 . S
C1934 C1926 1.378 . S
C1934 C1929 1.350 . S
C1935 H1922 0.929 . S
C1935 C1927 1.433 . S
C1935 N1937 1.384 . S
N1936 C1932 1.427 . S
N1936 C1933 1.384 . S
N1937 C1929 1.427 . S
N1937 C1935 1.384 . S
H1938 C1944 0.930 . S
H1939 C1948 0.930 . S
H1940 C1953 0.929 . S
H1941 C1951 0.929 . S
H1942 C1946 0.929 . S
H1943 C1952 0.929 . S
C1944 H1938 0.930 . S
C1944 C1945 1.367 . S
C1944 C1952 1.378 . S
C1945 C1944 1.367 . S
C1945 C1953 1.433 . S
C1946 H1942 0.929 . S
C1946 C1948 1.378 . S
C1946 C1950 1.350 . S
C1947 C1950 1.463 . S
C1947 C1952 1.350 . S
C1947 N1955 1.427 . S
C1948 H1939 0.930 . S
C1948 C1946 1.378 . S
C1948 C1949 1.367 . S
C1949 C1948 1.367 . S
C1949 C1951 1.433 . S
C1950 C1946 1.350 . S
C1950 C1947 1.463 . S
C1950 N1954 1.427 . S
C1951 H1941 0.929 . S
C1951 C1949 1.433 . S
C1951 N1954 1.384 . S
C1952 H1943 0.929 . S
C1952 C1944 1.378 . S
C1952 C1947 1.350 . S
C1953 H1940 0.929 . S
C1953 C1945 1.433 . S
C1953 N1955 1.384 . S
N1954 C1950 1.427 . S
N1954 C1951 1.384 . S
N1955 C1947 1.427 . S
N1955 C1953 1.384 . S
H1956 C1962 0.930 . S
H1957 C1966 0.930 . S
H1958 C1971 0.929 . S
H1959 C1969 0.929 . S
H1960 C1964 0.929 . S
H1961 C1970 0.929 . S
C1962 H1956 0.930 . S
C1962 C1963 1.367 . S
C1962 C1970 1.378 . S
C1963 C1962 1.367 . S
C1963 C1971 1.433 . S
C1964 H1960 0.929 . S
C1964 C1966 1.378 . S
C1964 C1968 1.350 . S
C1965 C1968 1.463 . S
C1965 C1970 1.350 . S
C1965 N1973 1.427 . S
C1966 H1957 0.930 . S
C1966 C1964 1.378 . S
C1966 C1967 1.367 . S
C1967 C1966 1.367 . S
C1967 C1969 1.433 . S
C1968 C1964 1.350 . S
C1968 C1965 1.463 . S
C1968 N1972 1.427 . S
C1969 H1959 0.929 . S
C1969 C1967 1.433 . S
C1969 N1972 1.384 . S
C1970 H1961 0.929 . S
C1970 C1962 1.378 . S
C1970 C1965 1.350 . S
C1971 H1958 0.929 . S
C1971 C1963 1.433 . S
C1971 N1973 1.384 . S
N1972 C1968 1.427 . S
N1972 C1969 1.384 . S
N1973 C1965 1.427 . S
N1973 C1971 1.384 . S
H1974 C1980 0.930 . S
H1975 C1984 0.930 . S
H1976 C1989 0.929 . S
H1977 C1987 0.929 . S
H1978 C1982 0.929 . S
H1979 C1988 0.929 . S
C1980 H1974 0.930 . S
C1980 C1981 1.367 . S
C1980 C1988 1.378 . S
C1981 C1980 1.367 . S
C1981 C1989 1.433 . S
C1982 H1978 0.929 . S
C1982 C1984 1.378 . S
C1982 C1986 1.350 . S
C1983 C1986 1.463 . S
C1983 C1988 1.350 . S
C1983 N1991 1.427 . S
C1984 H1975 0.930 . S
C1984 C1982 1.378 . S
C1984 C1985 1.367 . S
C1985 C1984 1.367 . S
C1985 C1987 1.433 . S
C1986 C1982 1.350 . S
C1986 C1983 1.463 . S
C1986 N1990 1.427 . S
C1987 H1977 0.929 . S
C1987 C1985 1.433 . S
C1987 N1990 1.384 . S
C1988 H1979 0.929 . S
C1988 C1980 1.378 . S
C1988 C1983 1.350 . S
C1989 H1976 0.929 . S
C1989 C1981 1.433 . S
C1989 N1991 1.384 . S
N1990 C1986 1.427 . S
N1990 C1987 1.384 . S
N1991 C1983 1.427 . S
N1991 C1989 1.384 . S
H1992 C1998 0.930 . S
H1993 C2002 0.930 . S
H1994 C2007 0.929 . S
H1995 C2005 0.929 . S
H1996 C2000 0.929 . S
H1997 C2006 0.929 . S
C1998 H1992 0.930 . S
C1998 C1999 1.367 . S
C1998 C2006 1.378 . S
C1999 C1998 1.367 . S
C1999 C2007 1.433 . S
C2000 H1996 0.929 . S
C2000 C2002 1.378 . S
C2000 C2004 1.350 . S
C2001 C2004 1.463 . S
C2001 C2006 1.350 . S
C2001 N2009 1.427 . S
C2002 H1993 0.930 . S
C2002 C2000 1.378 . S
C2002 C2003 1.367 . S
C2003 C2002 1.367 . S
C2003 C2005 1.433 . S
C2004 C2000 1.350 . S
C2004 C2001 1.463 . S
C2004 N2008 1.427 . S
C2005 H1995 0.929 . S
C2005 C2003 1.433 . S
C2005 N2008 1.384 . S
C2006 H1997 0.929 . S
C2006 C1998 1.378 . S
C2006 C2001 1.350 . S
C2007 H1994 0.929 . S
C2007 C1999 1.433 . S
C2007 N2009 1.384 . S
N2008 C2004 1.427 . S
N2008 C2005 1.384 . S
N2009 C2001 1.427 . S
N2009 C2007 1.384 . S
H2010 C2016 0.930 . S
H2011 C2020 0.930 . S
H2012 C2025 0.929 . S
H2013 C2023 0.929 . S
H2014 C2018 0.929 . S
H2015 C2024 0.929 . S
C2016 H2010 0.930 . S
C2016 C2017 1.367 . S
C2016 C2024 1.378 . S
C2017 C2016 1.367 . S
C2017 C2025 1.433 . S
C2018 H2014 0.929 . S
C2018 C2020 1.378 . S
C2018 C2022 1.350 . S
C2019 C2022 1.463 . S
C2019 C2024 1.350 . S
C2019 N2027 1.427 . S
C2020 H2011 0.930 . S
C2020 C2018 1.378 . S
C2020 C2021 1.367 . S
C2021 C2020 1.367 . S
C2021 C2023 1.433 . S
C2022 C2018 1.350 . S
C2022 C2019 1.463 . S
C2022 N2026 1.427 . S
C2023 H2013 0.929 . S
C2023 C2021 1.433 . S
C2023 N2026 1.384 . S
C2024 H2015 0.929 . S
C2024 C2016 1.378 . S
C2024 C2019 1.350 . S
C2025 H2012 0.929 . S
C2025 C2017 1.433 . S
C2025 N2027 1.384 . S
N2026 C2022 1.427 . S
N2026 C2023 1.384 . S
N2027 C2019 1.427 . S
N2027 C2025 1.384 . S
H2028 C2034 0.930 . S
H2029 C2038 0.930 . S
H2030 C2043 0.929 . S
H2031 C2041 0.929 . S
H2032 C2036 0.929 . S
H2033 C2042 0.929 . S
C2034 H2028 0.930 . S
C2034 C2035 1.367 . S
C2034 C2042 1.378 . S
C2035 C2034 1.367 . S
C2035 C2043 1.433 . S
C2036 H2032 0.929 . S
C2036 C2038 1.378 . S
C2036 C2040 1.350 . S
C2037 C2040 1.463 . S
C2037 C2042 1.350 . S
C2037 N2045 1.427 . S
C2038 H2029 0.930 . S
C2038 C2036 1.378 . S
C2038 C2039 1.367 . S
C2039 C2038 1.367 . S
C2039 C2041 1.433 . S
C2040 C2036 1.350 . S
C2040 C2037 1.463 . S
C2040 N2044 1.427 . S
C2041 H2031 0.929 . S
C2041 C2039 1.433 . S
C2041 N2044 1.384 . S
C2042 H2033 0.929 . S
C2042 C2034 1.378 . S
C2042 C2037 1.350 . S
C2043 H2030 0.929 . S
C2043 C2035 1.433 . S
C2043 N2045 1.384 . S
N2044 C2040 1.427 . S
N2044 C2041 1.384 . S
N2045 C2037 1.427 . S
N2045 C2043 1.384 . S
H2046 C2052 0.930 . S
H2047 C2056 0.930 . S
H2048 C2061 0.929 . S
H2049 C2059 0.929 . S
H2050 C2054 0.929 . S
H2051 C2060 0.929 . S
C2052 H2046 0.930 . S
C2052 C2053 1.367 . S
C2052 C2060 1.378 . S
C2053 C2052 1.367 . S
C2053 C2061 1.433 . S
C2054 H2050 0.929 . S
C2054 C2056 1.378 . S
C2054 C2058 1.350 . S
C2055 C2058 1.463 . S
C2055 C2060 1.350 . S
C2055 N2063 1.427 . S
C2056 H2047 0.930 . S
C2056 C2054 1.378 . S
C2056 C2057 1.367 . S
C2057 C2056 1.367 . S
C2057 C2059 1.433 . S
C2058 C2054 1.350 . S
C2058 C2055 1.463 . S
C2058 N2062 1.427 . S
C2059 H2049 0.929 . S
C2059 C2057 1.433 . S
C2059 N2062 1.384 . S
C2060 H2051 0.929 . S
C2060 C2052 1.378 . S
C2060 C2055 1.350 . S
C2061 H2048 0.929 . S
C2061 C2053 1.433 . S
C2061 N2063 1.384 . S
N2062 C2058 1.427 . S
N2062 C2059 1.384 . S
N2063 C2055 1.427 . S
N2063 C2061 1.384 . S
H2064 C2070 0.930 . S
H2065 C2074 0.930 . S
H2066 C2079 0.929 . S
H2067 C2077 0.929 . S
H2068 C2072 0.929 . S
H2069 C2078 0.929 . S
C2070 H2064 0.930 . S
C2070 C2071 1.367 . S
C2070 C2078 1.378 . S
C2071 C2070 1.367 . S
C2071 C2079 1.433 . S
C2072 H2068 0.929 . S
C2072 C2074 1.378 . S
C2072 C2076 1.350 . S
C2073 C2076 1.463 . S
C2073 C2078 1.350 . S
C2073 N2081 1.427 . S
C2074 H2065 0.930 . S
C2074 C2072 1.378 . S
C2074 C2075 1.367 . S
C2075 C2074 1.367 . S
C2075 C2077 1.433 . S
C2076 C2072 1.350 . S
C2076 C2073 1.463 . S
C2076 N2080 1.427 . S
C2077 H2067 0.929 . S
C2077 C2075 1.433 . S
C2077 N2080 1.384 . S
C2078 H2069 0.929 . S
C2078 C2070 1.378 . S
C2078 C2073 1.350 . S
C2079 H2066 0.929 . S
C2079 C2071 1.433 . S
C2079 N2081 1.384 . S
N2080 C2076 1.427 . S
N2080 C2077 1.384 . S
N2081 C2073 1.427 . S
N2081 C2079 1.384 . S
H2082 C2088 0.930 . S
H2083 C2092 0.930 . S
H2084 C2097 0.929 . S
H2085 C2095 0.929 . S
H2086 C2090 0.929 . S
H2087 C2096 0.929 . S
C2088 H2082 0.930 . S
C2088 C2089 1.367 . S
C2088 C2096 1.378 . S
C2089 C2088 1.367 . S
C2089 C2097 1.433 . S
C2090 H2086 0.929 . S
C2090 C2092 1.378 . S
C2090 C2094 1.350 . S
C2091 C2094 1.463 . S
C2091 C2096 1.350 . S
C2091 N2099 1.427 . S
C2092 H2083 0.930 . S
C2092 C2090 1.378 . S
C2092 C2093 1.367 . S
C2093 C2092 1.367 . S
C2093 C2095 1.433 . S
C2094 C2090 1.350 . S
C2094 C2091 1.463 . S
C2094 N2098 1.427 . S
C2095 H2085 0.929 . S
C2095 C2093 1.433 . S
C2095 N2098 1.384 . S
C2096 H2087 0.929 . S
C2096 C2088 1.378 . S
C2096 C2091 1.350 . S
C2097 H2084 0.929 . S
C2097 C2089 1.433 . S
C2097 N2099 1.384 . S
N2098 C2094 1.427 . S
N2098 C2095 1.384 . S
N2099 C2091 1.427 . S
N2099 C2097 1.384 . S
H2100 C2106 0.930 . S
H2101 C2110 0.930 . S
H2102 C2115 0.929 . S
H2103 C2113 0.929 . S
H2104 C2108 0.929 . S
H2105 C2114 0.929 . S
C2106 H2100 0.930 . S
C2106 C2107 1.367 . S
C2106 C2114 1.378 . S
C2107 C2106 1.367 . S
C2107 C2115 1.433 . S
C2108 H2104 0.929 . S
C2108 C2110 1.378 . S
C2108 C2112 1.350 . S
C2109 C2112 1.463 . S
C2109 C2114 1.350 . S
C2109 N2117 1.427 . S
C2110 H2101 0.930 . S
C2110 C2108 1.378 . S
C2110 C2111 1.367 . S
C2111 C2110 1.367 . S
C2111 C2113 1.433 . S
C2112 C2108 1.350 . S
C2112 C2109 1.463 . S
C2112 N2116 1.427 . S
C2113 H2103 0.929 . S
C2113 C2111 1.433 . S
C2113 N2116 1.384 . S
C2114 H2105 0.929 . S
C2114 C2106 1.378 . S
C2114 C2109 1.350 . S
C2115 H2102 0.929 . S
C2115 C2107 1.433 . S
C2115 N2117 1.384 . S
N2116 C2112 1.427 . S
N2116 C2113 1.384 . S
N2117 C2109 1.427 . S
N2117 C2115 1.384 . S
H2118 C2124 0.930 . S
H2119 C2128 0.930 . S
H2120 C2133 0.929 . S
H2121 C2131 0.929 . S
H2122 C2126 0.929 . S
H2123 C2132 0.929 . S
C2124 H2118 0.930 . S
C2124 C2125 1.367 . S
C2124 C2132 1.378 . S
C2125 C2124 1.367 . S
C2125 C2133 1.433 . S
C2126 H2122 0.929 . S
C2126 C2128 1.378 . S
C2126 C2130 1.350 . S
C2127 C2130 1.463 . S
C2127 C2132 1.350 . S
C2127 N2135 1.427 . S
C2128 H2119 0.930 . S
C2128 C2126 1.378 . S
C2128 C2129 1.367 . S
C2129 C2128 1.367 . S
C2129 C2131 1.433 . S
C2130 C2126 1.350 . S
C2130 C2127 1.463 . S
C2130 N2134 1.427 . S
C2131 H2121 0.929 . S
C2131 C2129 1.433 . S
C2131 N2134 1.384 . S
C2132 H2123 0.929 . S
C2132 C2124 1.378 . S
C2132 C2127 1.350 . S
C2133 H2120 0.929 . S
C2133 C2125 1.433 . S
C2133 N2135 1.384 . S
N2134 C2130 1.427 . S
N2134 C2131 1.384 . S
N2135 C2127 1.427 . S
N2135 C2133 1.384 . S
H2136 C2142 0.930 . S
H2137 C2146 0.930 . S
H2138 C2151 0.929 . S
H2139 C2149 0.929 . S
H2140 C2144 0.929 . S
H2141 C2150 0.929 . S
C2142 H2136 0.930 . S
C2142 C2143 1.367 . S
C2142 C2150 1.378 . S
C2143 C2142 1.367 . S
C2143 C2151 1.433 . S
C2144 H2140 0.929 . S
C2144 C2146 1.378 . S
C2144 C2148 1.350 . S
C2145 C2148 1.463 . S
C2145 C2150 1.350 . S
C2145 N2153 1.427 . S
C2146 H2137 0.930 . S
C2146 C2144 1.378 . S
C2146 C2147 1.367 . S
C2147 C2146 1.367 . S
C2147 C2149 1.433 . S
C2148 C2144 1.350 . S
C2148 C2145 1.463 . S
C2148 N2152 1.427 . S
C2149 H2139 0.929 . S
C2149 C2147 1.433 . S
C2149 N2152 1.384 . S
C2150 H2141 0.929 . S
C2150 C2142 1.378 . S
C2150 C2145 1.350 . S
C2151 H2138 0.929 . S
C2151 C2143 1.433 . S
C2151 N2153 1.384 . S
N2152 C2148 1.427 . S
N2152 C2149 1.384 . S
N2153 C2145 1.427 . S
N2153 C2151 1.384 . S
H2154 C2160 0.930 . S
H2155 C2164 0.930 . S
H2156 C2169 0.929 . S
H2157 C2167 0.929 . S
H2158 C2162 0.929 . S
H2159 C2168 0.929 . S
C2160 H2154 0.930 . S
C2160 C2161 1.367 . S
C2160 C2168 1.378 . S
C2161 C2160 1.367 . S
C2161 C2169 1.433 . S
C2162 H2158 0.929 . S
C2162 C2164 1.378 . S
C2162 C2166 1.350 . S
C2163 C2166 1.463 . S
C2163 C2168 1.350 . S
C2163 N2171 1.427 . S
C2164 H2155 0.930 . S
C2164 C2162 1.378 . S
C2164 C2165 1.367 . S
C2165 C2164 1.367 . S
C2165 C2167 1.433 . S
C2166 C2162 1.350 . S
C2166 C2163 1.463 . S
C2166 N2170 1.427 . S
C2167 H2157 0.929 . S
C2167 C2165 1.433 . S
C2167 N2170 1.384 . S
C2168 H2159 0.929 . S
C2168 C2160 1.378 . S
C2168 C2163 1.350 . S
C2169 H2156 0.929 . S
C2169 C2161 1.433 . S
C2169 N2171 1.384 . S
N2170 C2166 1.427 . S
N2170 C2167 1.384 . S
N2171 C2163 1.427 . S
N2171 C2169 1.384 . S
H2172 C2178 0.930 . S
H2173 C2182 0.930 . S
H2174 C2187 0.929 . S
H2175 C2185 0.929 . S
H2176 C2180 0.929 . S
H2177 C2186 0.929 . S
C2178 H2172 0.930 . S
C2178 C2179 1.367 . S
C2178 C2186 1.378 . S
C2179 C2178 1.367 . S
C2179 C2187 1.433 . S
C2180 H2176 0.929 . S
C2180 C2182 1.378 . S
C2180 C2184 1.350 . S
C2181 C2184 1.463 . S
C2181 C2186 1.350 . S
C2181 N2189 1.427 . S
C2182 H2173 0.930 . S
C2182 C2180 1.378 . S
C2182 C2183 1.367 . S
C2183 C2182 1.367 . S
C2183 C2185 1.433 . S
C2184 C2180 1.350 . S
C2184 C2181 1.463 . S
C2184 N2188 1.427 . S
C2185 H2175 0.929 . S
C2185 C2183 1.433 . S
C2185 N2188 1.384 . S
C2186 H2177 0.929 . S
C2186 C2178 1.378 . S
C2186 C2181 1.350 . S
C2187 H2174 0.929 . S
C2187 C2179 1.433 . S
C2187 N2189 1.384 . S
N2188 C2184 1.427 . S
N2188 C2185 1.384 . S
N2189 C2181 1.427 . S
N2189 C2187 1.384 . S
H2190 C2196 0.930 . S
H2191 C2200 0.930 . S
H2192 C2205 0.929 . S
H2193 C2203 0.929 . S
H2194 C2198 0.929 . S
H2195 C2204 0.929 . S
C2196 H2190 0.930 . S
C2196 C2197 1.367 . S
C2196 C2204 1.378 . S
C2197 C2196 1.367 . S
C2197 C2205 1.433 . S
C2198 H2194 0.929 . S
C2198 C2200 1.378 . S
C2198 C2202 1.350 . S
C2199 C2202 1.463 . S
C2199 C2204 1.350 . S
C2199 N2207 1.427 . S
C2200 H2191 0.930 . S
C2200 C2198 1.378 . S
C2200 C2201 1.367 . S
C2201 C2200 1.367 . S
C2201 C2203 1.433 . S
C2202 C2198 1.350 . S
C2202 C2199 1.463 . S
C2202 N2206 1.427 . S
C2203 H2193 0.929 . S
C2203 C2201 1.433 . S
C2203 N2206 1.384 . S
C2204 H2195 0.929 . S
C2204 C2196 1.378 . S
C2204 C2199 1.350 . S
C2205 H2192 0.929 . S
C2205 C2197 1.433 . S
C2205 N2207 1.384 . S
N2206 C2202 1.427 . S
N2206 C2203 1.384 . S
N2207 C2199 1.427 . S
N2207 C2205 1.384 . S
H2208 C2214 0.930 . S
H2209 C2218 0.930 . S
H2210 C2223 0.929 . S
H2211 C2221 0.929 . S
H2212 C2216 0.929 . S
H2213 C2222 0.929 . S
C2214 H2208 0.930 . S
C2214 C2215 1.367 . S
C2214 C2222 1.378 . S
C2215 C2214 1.367 . S
C2215 C2223 1.433 . S
C2216 H2212 0.929 . S
C2216 C2218 1.378 . S
C2216 C2220 1.350 . S
C2217 C2220 1.463 . S
C2217 C2222 1.350 . S
C2217 N2225 1.427 . S
C2218 H2209 0.930 . S
C2218 C2216 1.378 . S
C2218 C2219 1.367 . S
C2219 C2218 1.367 . S
C2219 C2221 1.433 . S
C2220 C2216 1.350 . S
C2220 C2217 1.463 . S
C2220 N2224 1.427 . S
C2221 H2211 0.929 . S
C2221 C2219 1.433 . S
C2221 N2224 1.384 . S
C2222 H2213 0.929 . S
C2222 C2214 1.378 . S
C2222 C2217 1.350 . S
C2223 H2210 0.929 . S
C2223 C2215 1.433 . S
C2223 N2225 1.384 . S
N2224 C2220 1.427 . S
N2224 C2221 1.384 . S
N2225 C2217 1.427 . S
N2225 C2223 1.384 . S
H2226 C2232 0.930 . S
H2227 C2236 0.930 . S
H2228 C2241 0.929 . S
H2229 C2239 0.929 . S
H2230 C2234 0.929 . S
H2231 C2240 0.929 . S
C2232 H2226 0.930 . S
C2232 C2233 1.367 . S
C2232 C2240 1.378 . S
C2233 C2232 1.367 . S
C2233 C2241 1.433 . S
C2234 H2230 0.929 . S
C2234 C2236 1.378 . S
C2234 C2238 1.350 . S
C2235 C2238 1.463 . S
C2235 C2240 1.350 . S
C2235 N2243 1.427 . S
C2236 H2227 0.930 . S
C2236 C2234 1.378 . S
C2236 C2237 1.367 . S
C2237 C2236 1.367 . S
C2237 C2239 1.433 . S
C2238 C2234 1.350 . S
C2238 C2235 1.463 . S
C2238 N2242 1.427 . S
C2239 H2229 0.929 . S
C2239 C2237 1.433 . S
C2239 N2242 1.384 . S
C2240 H2231 0.929 . S
C2240 C2232 1.378 . S
C2240 C2235 1.350 . S
C2241 H2228 0.929 . S
C2241 C2233 1.433 . S
C2241 N2243 1.384 . S
N2242 C2238 1.427 . S
N2242 C2239 1.384 . S
N2243 C2235 1.427 . S
N2243 C2241 1.384 . S
H2244 C2250 0.930 . S
H2245 C2254 0.930 . S
H2246 C2259 0.929 . S
H2247 C2257 0.929 . S
H2248 C2252 0.929 . S
H2249 C2258 0.929 . S
C2250 H2244 0.930 . S
C2250 C2251 1.367 . S
C2250 C2258 1.378 . S
C2251 C2250 1.367 . S
C2251 C2259 1.433 . S
C2252 H2248 0.929 . S
C2252 C2254 1.378 . S
C2252 C2256 1.350 . S
C2253 C2256 1.463 . S
C2253 C2258 1.350 . S
C2253 N2261 1.427 . S
C2254 H2245 0.930 . S
C2254 C2252 1.378 . S
C2254 C2255 1.367 . S
C2255 C2254 1.367 . S
C2255 C2257 1.433 . S
C2256 C2252 1.350 . S
C2256 C2253 1.463 . S
C2256 N2260 1.427 . S
C2257 H2247 0.929 . S
C2257 C2255 1.433 . S
C2257 N2260 1.384 . S
C2258 H2249 0.929 . S
C2258 C2250 1.378 . S
C2258 C2253 1.350 . S
C2259 H2246 0.929 . S
C2259 C2251 1.433 . S
C2259 N2261 1.384 . S
N2260 C2256 1.427 . S
N2260 C2257 1.384 . S
N2261 C2253 1.427 . S
N2261 C2259 1.384 . S
H2262 C2268 0.930 . S
H2263 C2272 0.930 . S
H2264 C2277 0.929 . S
H2265 C2275 0.929 . S
H2266 C2270 0.929 . S
H2267 C2276 0.929 . S
C2268 H2262 0.930 . S
C2268 C2269 1.367 . S
C2268 C2276 1.378 . S
C2269 C2268 1.367 . S
C2269 C2277 1.433 . S
C2270 H2266 0.929 . S
C2270 C2272 1.378 . S
C2270 C2274 1.350 . S
C2271 C2274 1.463 . S
C2271 C2276 1.350 . S
C2271 N2279 1.427 . S
C2272 H2263 0.930 . S
C2272 C2270 1.378 . S
C2272 C2273 1.367 . S
C2273 C2272 1.367 . S
C2273 C2275 1.433 . S
C2274 C2270 1.350 . S
C2274 C2271 1.463 . S
C2274 N2278 1.427 . S
C2275 H2265 0.929 . S
C2275 C2273 1.433 . S
C2275 N2278 1.384 . S
C2276 H2267 0.929 . S
C2276 C2268 1.378 . S
C2276 C2271 1.350 . S
C2277 H2264 0.929 . S
C2277 C2269 1.433 . S
C2277 N2279 1.384 . S
N2278 C2274 1.427 . S
N2278 C2275 1.384 . S
N2279 C2271 1.427 . S
N2279 C2277 1.384 . S
H2280 C2286 0.930 . S
H2281 C2290 0.930 . S
H2282 C2295 0.929 . S
H2283 C2293 0.929 . S
H2284 C2288 0.929 . S
H2285 C2294 0.929 . S
C2286 H2280 0.930 . S
C2286 C2287 1.367 . S
C2286 C2294 1.378 . S
C2287 C2286 1.367 . S
C2287 C2295 1.433 . S
C2288 H2284 0.929 . S
C2288 C2290 1.378 . S
C2288 C2292 1.350 . S
C2289 C2292 1.463 . S
C2289 C2294 1.350 . S
C2289 N2297 1.427 . S
C2290 H2281 0.930 . S
C2290 C2288 1.378 . S
C2290 C2291 1.367 . S
C2291 C2290 1.367 . S
C2291 C2293 1.433 . S
C2292 C2288 1.350 . S
C2292 C2289 1.463 . S
C2292 N2296 1.427 . S
C2293 H2283 0.929 . S
C2293 C2291 1.433 . S
C2293 N2296 1.384 . S
C2294 H2285 0.929 . S
C2294 C2286 1.378 . S
C2294 C2289 1.350 . S
C2295 H2282 0.929 . S
C2295 C2287 1.433 . S
C2295 N2297 1.384 . S
N2296 C2292 1.427 . S
N2296 C2293 1.384 . S
N2297 C2289 1.427 . S
N2297 C2295 1.384 . S
H2298 C2304 0.930 . S
H2299 C2308 0.930 . S
H2300 C2313 0.929 . S
H2301 C2311 0.929 . S
H2302 C2306 0.929 . S
H2303 C2312 0.929 . S
C2304 H2298 0.930 . S
C2304 C2305 1.367 . S
C2304 C2312 1.378 . S
C2305 C2304 1.367 . S
C2305 C2313 1.433 . S
C2306 H2302 0.929 . S
C2306 C2308 1.378 . S
C2306 C2310 1.350 . S
C2307 C2310 1.463 . S
C2307 C2312 1.350 . S
C2307 N2315 1.427 . S
C2308 H2299 0.930 . S
C2308 C2306 1.378 . S
C2308 C2309 1.367 . S
C2309 C2308 1.367 . S
C2309 C2311 1.433 . S
C2310 C2306 1.350 . S
C2310 C2307 1.463 . S
C2310 N2314 1.427 . S
C2311 H2301 0.929 . S
C2311 C2309 1.433 . S
C2311 N2314 1.384 . S
C2312 H2303 0.929 . S
C2312 C2304 1.378 . S
C2312 C2307 1.350 . S
C2313 H2300 0.929 . S
C2313 C2305 1.433 . S
C2313 N2315 1.384 . S
N2314 C2310 1.427 . S
N2314 C2311 1.384 . S
N2315 C2307 1.427 . S
N2315 C2313 1.384 . S
H2316 C2322 0.930 . S
H2317 C2326 0.930 . S
H2318 C2331 0.929 . S
H2319 C2329 0.929 . S
H2320 C2324 0.929 . S
H2321 C2330 0.929 . S
C2322 H2316 0.930 . S
C2322 C2323 1.367 . S
C2322 C2330 1.378 . S
C2323 C2322 1.367 . S
C2323 C2331 1.433 . S
C2324 H2320 0.929 . S
C2324 C2326 1.378 . S
C2324 C2328 1.350 . S
C2325 C2328 1.463 . S
C2325 C2330 1.350 . S
C2325 N2333 1.427 . S
C2326 H2317 0.930 . S
C2326 C2324 1.378 . S
C2326 C2327 1.367 . S
C2327 C2326 1.367 . S
C2327 C2329 1.433 . S
C2328 C2324 1.350 . S
C2328 C2325 1.463 . S
C2328 N2332 1.427 . S
C2329 H2319 0.929 . S
C2329 C2327 1.433 . S
C2329 N2332 1.384 . S
C2330 H2321 0.929 . S
C2330 C2322 1.378 . S
C2330 C2325 1.350 . S
C2331 H2318 0.929 . S
C2331 C2323 1.433 . S
C2331 N2333 1.384 . S
N2332 C2328 1.427 . S
N2332 C2329 1.384 . S
N2333 C2325 1.427 . S
N2333 C2331 1.384 . S
H2334 C2340 0.930 . S
H2335 C2344 0.930 . S
H2336 C2349 0.929 . S
H2337 C2347 0.929 . S
H2338 C2342 0.929 . S
H2339 C2348 0.929 . S
C2340 H2334 0.930 . S
C2340 C2341 1.367 . S
C2340 C2348 1.378 . S
C2341 C2340 1.367 . S
C2341 C2349 1.433 . S
C2342 H2338 0.929 . S
C2342 C2344 1.378 . S
C2342 C2346 1.350 . S
C2343 C2346 1.463 . S
C2343 C2348 1.350 . S
C2343 N2351 1.427 . S
C2344 H2335 0.930 . S
C2344 C2342 1.378 . S
C2344 C2345 1.367 . S
C2345 C2344 1.367 . S
C2345 C2347 1.433 . S
C2346 C2342 1.350 . S
C2346 C2343 1.463 . S
C2346 N2350 1.427 . S
C2347 H2337 0.929 . S
C2347 C2345 1.433 . S
C2347 N2350 1.384 . S
C2348 H2339 0.929 . S
C2348 C2340 1.378 . S
C2348 C2343 1.350 . S
C2349 H2336 0.929 . S
C2349 C2341 1.433 . S
C2349 N2351 1.384 . S
N2350 C2346 1.427 . S
N2350 C2347 1.384 . S
N2351 C2343 1.427 . S
N2351 C2349 1.384 . S
H2352 C2358 0.930 . S
H2353 C2362 0.930 . S
H2354 C2367 0.929 . S
H2355 C2365 0.929 . S
H2356 C2360 0.929 . S
H2357 C2366 0.929 . S
C2358 H2352 0.930 . S
C2358 C2359 1.367 . S
C2358 C2366 1.378 . S
C2359 C2358 1.367 . S
C2359 C2367 1.433 . S
C2360 H2356 0.929 . S
C2360 C2362 1.378 . S
C2360 C2364 1.350 . S
C2361 C2364 1.463 . S
C2361 C2366 1.350 . S
C2361 N2369 1.427 . S
C2362 H2353 0.930 . S
C2362 C2360 1.378 . S
C2362 C2363 1.367 . S
C2363 C2362 1.367 . S
C2363 C2365 1.433 . S
C2364 C2360 1.350 . S
C2364 C2361 1.463 . S
C2364 N2368 1.427 . S
C2365 H2355 0.929 . S
C2365 C2363 1.433 . S
C2365 N2368 1.384 . S
C2366 H2357 0.929 . S
C2366 C2358 1.378 . S
C2366 C2361 1.350 . S
C2367 H2354 0.929 . S
C2367 C2359 1.433 . S
C2367 N2369 1.384 . S
N2368 C2364 1.427 . S
N2368 C2365 1.384 . S
N2369 C2361 1.427 . S
N2369 C2367 1.384 . S
H2370 C2376 0.930 . S
H2371 C2380 0.930 . S
H2372 C2385 0.929 . S
H2373 C2383 0.929 . S
H2374 C2378 0.929 . S
H2375 C2384 0.929 . S
C2376 H2370 0.930 . S
C2376 C2377 1.367 . S
C2376 C2384 1.378 . S
C2377 C2376 1.367 . S
C2377 C2385 1.433 . S
C2378 H2374 0.929 . S
C2378 C2380 1.378 . S
C2378 C2382 1.350 . S
C2379 C2382 1.463 . S
C2379 C2384 1.350 . S
C2379 N2387 1.427 . S
C2380 H2371 0.930 . S
C2380 C2378 1.378 . S
C2380 C2381 1.367 . S
C2381 C2380 1.367 . S
C2381 C2383 1.433 . S
C2382 C2378 1.350 . S
C2382 C2379 1.463 . S
C2382 N2386 1.427 . S
C2383 H2373 0.929 . S
C2383 C2381 1.433 . S
C2383 N2386 1.384 . S
C2384 H2375 0.929 . S
C2384 C2376 1.378 . S
C2384 C2379 1.350 . S
C2385 H2372 0.929 . S
C2385 C2377 1.433 . S
C2385 N2387 1.384 . S
N2386 C2382 1.427 . S
N2386 C2383 1.384 . S
N2387 C2379 1.427 . S
N2387 C2385 1.384 . S
H2388 C2394 0.930 . S
H2389 C2398 0.930 . S
H2390 C2403 0.929 . S
H2391 C2401 0.929 . S
H2392 C2396 0.929 . S
H2393 C2402 0.929 . S
C2394 H2388 0.930 . S
C2394 C2395 1.367 . S
C2394 C2402 1.378 . S
C2395 C2394 1.367 . S
C2395 C2403 1.433 . S
C2396 H2392 0.929 . S
C2396 C2398 1.378 . S
C2396 C2400 1.350 . S
C2397 C2400 1.463 . S
C2397 C2402 1.350 . S
C2397 N2405 1.427 . S
C2398 H2389 0.930 . S
C2398 C2396 1.378 . S
C2398 C2399 1.367 . S
C2399 C2398 1.367 . S
C2399 C2401 1.433 . S
C2400 C2396 1.350 . S
C2400 C2397 1.463 . S
C2400 N2404 1.427 . S
C2401 H2391 0.929 . S
C2401 C2399 1.433 . S
C2401 N2404 1.384 . S
C2402 H2393 0.929 . S
C2402 C2394 1.378 . S
C2402 C2397 1.350 . S
C2403 H2390 0.929 . S
C2403 C2395 1.433 . S
C2403 N2405 1.384 . S
N2404 C2400 1.427 . S
N2404 C2401 1.384 . S
N2405 C2397 1.427 . S
N2405 C2403 1.384 . S
H2406 C2412 0.930 . S
H2407 C2416 0.930 . S
H2408 C2421 0.929 . S
H2409 C2419 0.929 . S
H2410 C2414 0.929 . S
H2411 C2420 0.929 . S
C2412 H2406 0.930 . S
C2412 C2413 1.367 . S
C2412 C2420 1.378 . S
C2413 C2412 1.367 . S
C2413 C2421 1.433 . S
C2414 H2410 0.929 . S
C2414 C2416 1.378 . S
C2414 C2418 1.350 . S
C2415 C2418 1.463 . S
C2415 C2420 1.350 . S
C2415 N2423 1.427 . S
C2416 H2407 0.930 . S
C2416 C2414 1.378 . S
C2416 C2417 1.367 . S
C2417 C2416 1.367 . S
C2417 C2419 1.433 . S
C2418 C2414 1.350 . S
C2418 C2415 1.463 . S
C2418 N2422 1.427 . S
C2419 H2409 0.929 . S
C2419 C2417 1.433 . S
C2419 N2422 1.384 . S
C2420 H2411 0.929 . S
C2420 C2412 1.378 . S
C2420 C2415 1.350 . S
C2421 H2408 0.929 . S
C2421 C2413 1.433 . S
C2421 N2423 1.384 . S
N2422 C2418 1.427 . S
N2422 C2419 1.384 . S
N2423 C2415 1.427 . S
N2423 C2421 1.384 . S
H2424 C2430 0.930 . S
H2425 C2434 0.930 . S
H2426 C2439 0.929 . S
H2427 C2437 0.929 . S
H2428 C2432 0.929 . S
H2429 C2438 0.929 . S
C2430 H2424 0.930 . S
C2430 C2431 1.367 . S
C2430 C2438 1.378 . S
C2431 C2430 1.367 . S
C2431 C2439 1.433 . S
C2432 H2428 0.929 . S
C2432 C2434 1.378 . S
C2432 C2436 1.350 . S
C2433 C2436 1.463 . S
C2433 C2438 1.350 . S
C2433 N2441 1.427 . S
C2434 H2425 0.930 . S
C2434 C2432 1.378 . S
C2434 C2435 1.367 . S
C2435 C2434 1.367 . S
C2435 C2437 1.433 . S
C2436 C2432 1.350 . S
C2436 C2433 1.463 . S
C2436 N2440 1.427 . S
C2437 H2427 0.929 . S
C2437 C2435 1.433 . S
C2437 N2440 1.384 . S
C2438 H2429 0.929 . S
C2438 C2430 1.378 . S
C2438 C2433 1.350 . S
C2439 H2426 0.929 . S
C2439 C2431 1.433 . S
C2439 N2441 1.384 . S
N2440 C2436 1.427 . S
N2440 C2437 1.384 . S
N2441 C2433 1.427 . S
N2441 C2439 1.384 . S
H2442 C2448 0.930 . S
H2443 C2452 0.930 . S
H2444 C2457 0.929 . S
H2445 C2455 0.929 . S
H2446 C2450 0.929 . S
H2447 C2456 0.929 . S
C2448 H2442 0.930 . S
C2448 C2449 1.367 . S
C2448 C2456 1.378 . S
C2449 C2448 1.367 . S
C2449 C2457 1.433 . S
C2450 H2446 0.929 . S
C2450 C2452 1.378 . S
C2450 C2454 1.350 . S
C2451 C2454 1.463 . S
C2451 C2456 1.350 . S
C2451 N2459 1.427 . S
C2452 H2443 0.930 . S
C2452 C2450 1.378 . S
C2452 C2453 1.367 . S
C2453 C2452 1.367 . S
C2453 C2455 1.433 . S
C2454 C2450 1.350 . S
C2454 C2451 1.463 . S
C2454 N2458 1.427 . S
C2455 H2445 0.929 . S
C2455 C2453 1.433 . S
C2455 N2458 1.384 . S
C2456 H2447 0.929 . S
C2456 C2448 1.378 . S
C2456 C2451 1.350 . S
C2457 H2444 0.929 . S
C2457 C2449 1.433 . S
C2457 N2459 1.384 . S
N2458 C2454 1.427 . S
N2458 C2455 1.384 . S
N2459 C2451 1.427 . S
N2459 C2457 1.384 . S
H2460 C2466 0.930 . S
H2461 C2470 0.930 . S
H2462 C2475 0.929 . S
H2463 C2473 0.929 . S
H2464 C2468 0.929 . S
H2465 C2474 0.929 . S
C2466 H2460 0.930 . S
C2466 C2467 1.367 . S
C2466 C2474 1.378 . S
C2467 C2466 1.367 . S
C2467 C2475 1.433 . S
C2468 H2464 0.929 . S
C2468 C2470 1.378 . S
C2468 C2472 1.350 . S
C2469 C2472 1.463 . S
C2469 C2474 1.350 . S
C2469 N2477 1.427 . S
C2470 H2461 0.930 . S
C2470 C2468 1.378 . S
C2470 C2471 1.367 . S
C2471 C2470 1.367 . S
C2471 C2473 1.433 . S
C2472 C2468 1.350 . S
C2472 C2469 1.463 . S
C2472 N2476 1.427 . S
C2473 H2463 0.929 . S
C2473 C2471 1.433 . S
C2473 N2476 1.384 . S
C2474 H2465 0.929 . S
C2474 C2466 1.378 . S
C2474 C2469 1.350 . S
C2475 H2462 0.929 . S
C2475 C2467 1.433 . S
C2475 N2477 1.384 . S
N2476 C2472 1.427 . S
N2476 C2473 1.384 . S
N2477 C2469 1.427 . S
N2477 C2475 1.384 . S
H2478 C2484 0.930 . S
H2479 C2488 0.930 . S
H2480 C2493 0.929 . S
H2481 C2491 0.929 . S
H2482 C2486 0.929 . S
H2483 C2492 0.929 . S
C2484 H2478 0.930 . S
C2484 C2485 1.367 . S
C2484 C2492 1.378 . S
C2485 C2484 1.367 . S
C2485 C2493 1.433 . S
C2486 H2482 0.929 . S
C2486 C2488 1.378 . S
C2486 C2490 1.350 . S
C2487 C2490 1.463 . S
C2487 C2492 1.350 . S
C2487 N2495 1.427 . S
C2488 H2479 0.930 . S
C2488 C2486 1.378 . S
C2488 C2489 1.367 . S
C2489 C2488 1.367 . S
C2489 C2491 1.433 . S
C2490 C2486 1.350 . S
C2490 C2487 1.463 . S
C2490 N2494 1.427 . S
C2491 H2481 0.929 . S
C2491 C2489 1.433 . S
C2491 N2494 1.384 . S
C2492 H2483 0.929 . S
C2492 C2484 1.378 . S
C2492 C2487 1.350 . S
C2493 H2480 0.929 . S
C2493 C2485 1.433 . S
C2493 N2495 1.384 . S
N2494 C2490 1.427 . S
N2494 C2491 1.384 . S
N2495 C2487 1.427 . S
N2495 C2493 1.384 . S
H2496 C2502 0.930 . S
H2497 C2506 0.930 . S
H2498 C2511 0.929 . S
H2499 C2509 0.929 . S
H2500 C2504 0.929 . S
H2501 C2510 0.929 . S
C2502 H2496 0.930 . S
C2502 C2503 1.367 . S
C2502 C2510 1.378 . S
C2503 C2502 1.367 . S
C2503 C2511 1.433 . S
C2504 H2500 0.929 . S
C2504 C2506 1.378 . S
C2504 C2508 1.350 . S
C2505 C2508 1.463 . S
C2505 C2510 1.350 . S
C2505 N2513 1.427 . S
C2506 H2497 0.930 . S
C2506 C2504 1.378 . S
C2506 C2507 1.367 . S
C2507 C2506 1.367 . S
C2507 C2509 1.433 . S
C2508 C2504 1.350 . S
C2508 C2505 1.463 . S
C2508 N2512 1.427 . S
C2509 H2499 0.929 . S
C2509 C2507 1.433 . S
C2509 N2512 1.384 . S
C2510 H2501 0.929 . S
C2510 C2502 1.378 . S
C2510 C2505 1.350 . S
C2511 H2498 0.929 . S
C2511 C2503 1.433 . S
C2511 N2513 1.384 . S
N2512 C2508 1.427 . S
N2512 C2509 1.384 . S
N2513 C2505 1.427 . S
N2513 C2511 1.384 . S
H2514 C2520 0.930 . S
H2515 C2524 0.930 . S
H2516 C2529 0.929 . S
H2517 C2527 0.929 . S
H2518 C2522 0.929 . S
H2519 C2528 0.929 . S
C2520 H2514 0.930 . S
C2520 C2521 1.367 . S
C2520 C2528 1.378 . S
C2521 C2520 1.367 . S
C2521 C2529 1.433 . S
C2522 H2518 0.929 . S
C2522 C2524 1.378 . S
C2522 C2526 1.350 . S
C2523 C2526 1.463 . S
C2523 C2528 1.350 . S
C2523 N2531 1.427 . S
C2524 H2515 0.930 . S
C2524 C2522 1.378 . S
C2524 C2525 1.367 . S
C2525 C2524 1.367 . S
C2525 C2527 1.433 . S
C2526 C2522 1.350 . S
C2526 C2523 1.463 . S
C2526 N2530 1.427 . S
C2527 H2517 0.929 . S
C2527 C2525 1.433 . S
C2527 N2530 1.384 . S
C2528 H2519 0.929 . S
C2528 C2520 1.378 . S
C2528 C2523 1.350 . S
C2529 H2516 0.929 . S
C2529 C2521 1.433 . S
C2529 N2531 1.384 . S
N2530 C2526 1.427 . S
N2530 C2527 1.384 . S
N2531 C2523 1.427 . S
N2531 C2529 1.384 . S
H2532 C2538 0.930 . S
H2533 C2542 0.930 . S
H2534 C2547 0.929 . S
H2535 C2545 0.929 . S
H2536 C2540 0.929 . S
H2537 C2546 0.929 . S
C2538 H2532 0.930 . S
C2538 C2539 1.367 . S
C2538 C2546 1.378 . S
C2539 C2538 1.367 . S
C2539 C2547 1.433 . S
C2540 H2536 0.929 . S
C2540 C2542 1.378 . S
C2540 C2544 1.350 . S
C2541 C2544 1.463 . S
C2541 C2546 1.350 . S
C2541 N2549 1.427 . S
C2542 H2533 0.930 . S
C2542 C2540 1.378 . S
C2542 C2543 1.367 . S
C2543 C2542 1.367 . S
C2543 C2545 1.433 . S
C2544 C2540 1.350 . S
C2544 C2541 1.463 . S
C2544 N2548 1.427 . S
C2545 H2535 0.929 . S
C2545 C2543 1.433 . S
C2545 N2548 1.384 . S
C2546 H2537 0.929 . S
C2546 C2538 1.378 . S
C2546 C2541 1.350 . S
C2547 H2534 0.929 . S
C2547 C2539 1.433 . S
C2547 N2549 1.384 . S
N2548 C2544 1.427 . S
N2548 C2545 1.384 . S
N2549 C2541 1.427 . S
N2549 C2547 1.384 . S
H2550 C2556 0.930 . S
H2551 C2560 0.930 . S
H2552 C2565 0.929 . S
H2553 C2563 0.929 . S
H2554 C2558 0.929 . S
H2555 C2564 0.929 . S
C2556 H2550 0.930 . S
C2556 C2557 1.367 . S
C2556 C2564 1.378 . S
C2557 C2556 1.367 . S
C2557 C2565 1.433 . S
C2558 H2554 0.929 . S
C2558 C2560 1.378 . S
C2558 C2562 1.350 . S
C2559 C2562 1.463 . S
C2559 C2564 1.350 . S
C2559 N2567 1.427 . S
C2560 H2551 0.930 . S
C2560 C2558 1.378 . S
C2560 C2561 1.367 . S
C2561 C2560 1.367 . S
C2561 C2563 1.433 . S
C2562 C2558 1.350 . S
C2562 C2559 1.463 . S
C2562 N2566 1.427 . S
C2563 H2553 0.929 . S
C2563 C2561 1.433 . S
C2563 N2566 1.384 . S
C2564 H2555 0.929 . S
C2564 C2556 1.378 . S
C2564 C2559 1.350 . S
C2565 H2552 0.929 . S
C2565 C2557 1.433 . S
C2565 N2567 1.384 . S
N2566 C2562 1.427 . S
N2566 C2563 1.384 . S
N2567 C2559 1.427 . S
N2567 C2565 1.384 . S
H2568 C2574 0.930 . S
H2569 C2578 0.930 . S
H2570 C2583 0.929 . S
H2571 C2581 0.929 . S
H2572 C2576 0.929 . S
H2573 C2582 0.929 . S
C2574 H2568 0.930 . S
C2574 C2575 1.367 . S
C2574 C2582 1.378 . S
C2575 C2574 1.367 . S
C2575 C2583 1.433 . S
C2576 H2572 0.929 . S
C2576 C2578 1.378 . S
C2576 C2580 1.350 . S
C2577 C2580 1.463 . S
C2577 C2582 1.350 . S
C2577 N2585 1.427 . S
C2578 H2569 0.930 . S
C2578 C2576 1.378 . S
C2578 C2579 1.367 . S
C2579 C2578 1.367 . S
C2579 C2581 1.433 . S
C2580 C2576 1.350 . S
C2580 C2577 1.463 . S
C2580 N2584 1.427 . S
C2581 H2571 0.929 . S
C2581 C2579 1.433 . S
C2581 N2584 1.384 . S
C2582 H2573 0.929 . S
C2582 C2574 1.378 . S
C2582 C2577 1.350 . S
C2583 H2570 0.929 . S
C2583 C2575 1.433 . S
C2583 N2585 1.384 . S
N2584 C2580 1.427 . S
N2584 C2581 1.384 . S
N2585 C2577 1.427 . S
N2585 C2583 1.384 . S
H2586 C2592 0.930 . S
H2587 C2596 0.930 . S
H2588 C2601 0.929 . S
H2589 C2599 0.929 . S
H2590 C2594 0.929 . S
H2591 C2600 0.929 . S
C2592 H2586 0.930 . S
C2592 C2593 1.367 . S
C2592 C2600 1.378 . S
C2593 C2592 1.367 . S
C2593 C2601 1.433 . S
C2594 H2590 0.929 . S
C2594 C2596 1.378 . S
C2594 C2598 1.350 . S
C2595 C2598 1.463 . S
C2595 C2600 1.350 . S
C2595 N2603 1.427 . S
C2596 H2587 0.930 . S
C2596 C2594 1.378 . S
C2596 C2597 1.367 . S
C2597 C2596 1.367 . S
C2597 C2599 1.433 . S
C2598 C2594 1.350 . S
C2598 C2595 1.463 . S
C2598 N2602 1.427 . S
C2599 H2589 0.929 . S
C2599 C2597 1.433 . S
C2599 N2602 1.384 . S
C2600 H2591 0.929 . S
C2600 C2592 1.378 . S
C2600 C2595 1.350 . S
C2601 H2588 0.929 . S
C2601 C2593 1.433 . S
C2601 N2603 1.384 . S
N2602 C2598 1.427 . S
N2602 C2599 1.384 . S
N2603 C2595 1.427 . S
N2603 C2601 1.384 . S
H2604 C2610 0.930 . S
H2605 C2614 0.930 . S
H2606 C2619 0.929 . S
H2607 C2617 0.929 . S
H2608 C2612 0.929 . S
H2609 C2618 0.929 . S
C2610 H2604 0.930 . S
C2610 C2611 1.367 . S
C2610 C2618 1.378 . S
C2611 C2610 1.367 . S
C2611 C2619 1.433 . S
C2612 H2608 0.929 . S
C2612 C2614 1.378 . S
C2612 C2616 1.350 . S
C2613 C2616 1.463 . S
C2613 C2618 1.350 . S
C2613 N2621 1.427 . S
C2614 H2605 0.930 . S
C2614 C2612 1.378 . S
C2614 C2615 1.367 . S
C2615 C2614 1.367 . S
C2615 C2617 1.433 . S
C2616 C2612 1.350 . S
C2616 C2613 1.463 . S
C2616 N2620 1.427 . S
C2617 H2607 0.929 . S
C2617 C2615 1.433 . S
C2617 N2620 1.384 . S
C2618 H2609 0.929 . S
C2618 C2610 1.378 . S
C2618 C2613 1.350 . S
C2619 H2606 0.929 . S
C2619 C2611 1.433 . S
C2619 N2621 1.384 . S
N2620 C2616 1.427 . S
N2620 C2617 1.384 . S
N2621 C2613 1.427 . S
N2621 C2619 1.384 . S
H2622 C2628 0.930 . S
H2623 C2632 0.930 . S
H2624 C2637 0.929 . S
H2625 C2635 0.929 . S
H2626 C2630 0.929 . S
H2627 C2636 0.929 . S
C2628 H2622 0.930 . S
C2628 C2629 1.367 . S
C2628 C2636 1.378 . S
C2629 C2628 1.367 . S
C2629 C2637 1.433 . S
C2630 H2626 0.929 . S
C2630 C2632 1.378 . S
C2630 C2634 1.350 . S
C2631 C2634 1.463 . S
C2631 C2636 1.350 . S
C2631 N2639 1.427 . S
C2632 H2623 0.930 . S
C2632 C2630 1.378 . S
C2632 C2633 1.367 . S
C2633 C2632 1.367 . S
C2633 C2635 1.433 . S
C2634 C2630 1.350 . S
C2634 C2631 1.463 . S
C2634 N2638 1.427 . S
C2635 H2625 0.929 . S
C2635 C2633 1.433 . S
C2635 N2638 1.384 . S
C2636 H2627 0.929 . S
C2636 C2628 1.378 . S
C2636 C2631 1.350 . S
C2637 H2624 0.929 . S
C2637 C2629 1.433 . S
C2637 N2639 1.384 . S
N2638 C2634 1.427 . S
N2638 C2635 1.384 . S
N2639 C2631 1.427 . S
N2639 C2637 1.384 . S
H2640 C2646 0.930 . S
H2641 C2650 0.930 . S
H2642 C2655 0.929 . S
H2643 C2653 0.929 . S
H2644 C2648 0.929 . S
H2645 C2654 0.929 . S
C2646 H2640 0.930 . S
C2646 C2647 1.367 . S
C2646 C2654 1.378 . S
C2647 C2646 1.367 . S
C2647 C2655 1.433 . S
C2648 H2644 0.929 . S
C2648 C2650 1.378 . S
C2648 C2652 1.350 . S
C2649 C2652 1.463 . S
C2649 C2654 1.350 . S
C2649 N2657 1.427 . S
C2650 H2641 0.930 . S
C2650 C2648 1.378 . S
C2650 C2651 1.367 . S
C2651 C2650 1.367 . S
C2651 C2653 1.433 . S
C2652 C2648 1.350 . S
C2652 C2649 1.463 . S
C2652 N2656 1.427 . S
C2653 H2643 0.929 . S
C2653 C2651 1.433 . S
C2653 N2656 1.384 . S
C2654 H2645 0.929 . S
C2654 C2646 1.378 . S
C2654 C2649 1.350 . S
C2655 H2642 0.929 . S
C2655 C2647 1.433 . S
C2655 N2657 1.384 . S
N2656 C2652 1.427 . S
N2656 C2653 1.384 . S
N2657 C2649 1.427 . S
N2657 C2655 1.384 . S
H2658 C2664 0.930 . S
H2659 C2668 0.930 . S
H2660 C2673 0.929 . S
H2661 C2671 0.929 . S
H2662 C2666 0.929 . S
H2663 C2672 0.929 . S
C2664 H2658 0.930 . S
C2664 C2665 1.367 . S
C2664 C2672 1.378 . S
C2665 C2664 1.367 . S
C2665 C2673 1.433 . S
C2666 H2662 0.929 . S
C2666 C2668 1.378 . S
C2666 C2670 1.350 . S
C2667 C2670 1.463 . S
C2667 C2672 1.350 . S
C2667 N2675 1.427 . S
C2668 H2659 0.930 . S
C2668 C2666 1.378 . S
C2668 C2669 1.367 . S
C2669 C2668 1.367 . S
C2669 C2671 1.433 . S
C2670 C2666 1.350 . S
C2670 C2667 1.463 . S
C2670 N2674 1.427 . S
C2671 H2661 0.929 . S
C2671 C2669 1.433 . S
C2671 N2674 1.384 . S
C2672 H2663 0.929 . S
C2672 C2664 1.378 . S
C2672 C2667 1.350 . S
C2673 H2660 0.929 . S
C2673 C2665 1.433 . S
C2673 N2675 1.384 . S
N2674 C2670 1.427 . S
N2674 C2671 1.384 . S
N2675 C2667 1.427 . S
N2675 C2673 1.384 . S
H2676 C2682 0.930 . S
H2677 C2686 0.930 . S
H2678 C2691 0.929 . S
H2679 C2689 0.929 . S
H2680 C2684 0.929 . S
H2681 C2690 0.929 . S
C2682 H2676 0.930 . S
C2682 C2683 1.367 . S
C2682 C2690 1.378 . S
C2683 C2682 1.367 . S
C2683 C2691 1.433 . S
C2684 H2680 0.929 . S
C2684 C2686 1.378 . S
C2684 C2688 1.350 . S
C2685 C2688 1.463 . S
C2685 C2690 1.350 . S
C2685 N2693 1.427 . S
C2686 H2677 0.930 . S
C2686 C2684 1.378 . S
C2686 C2687 1.367 . S
C2687 C2686 1.367 . S
C2687 C2689 1.433 . S
C2688 C2684 1.350 . S
C2688 C2685 1.463 . S
C2688 N2692 1.427 . S
C2689 H2679 0.929 . S
C2689 C2687 1.433 . S
C2689 N2692 1.384 . S
C2690 H2681 0.929 . S
C2690 C2682 1.378 . S
C2690 C2685 1.350 . S
C2691 H2678 0.929 . S
C2691 C2683 1.433 . S
C2691 N2693 1.384 . S
N2692 C2688 1.427 . S
N2692 C2689 1.384 . S
N2693 C2685 1.427 . S
N2693 C2691 1.384 . S
H2694 C2700 0.930 . S
H2695 C2704 0.930 . S
H2696 C2709 0.929 . S
H2697 C2707 0.929 . S
H2698 C2702 0.929 . S
H2699 C2708 0.929 . S
C2700 H2694 0.930 . S
C2700 C2701 1.367 . S
C2700 C2708 1.378 . S
C2701 C2700 1.367 . S
C2701 C2709 1.433 . S
C2702 H2698 0.929 . S
C2702 C2704 1.378 . S
C2702 C2706 1.350 . S
C2703 C2706 1.463 . S
C2703 C2708 1.350 . S
C2703 N2711 1.427 . S
C2704 H2695 0.930 . S
C2704 C2702 1.378 . S
C2704 C2705 1.367 . S
C2705 C2704 1.367 . S
C2705 C2707 1.433 . S
C2706 C2702 1.350 . S
C2706 C2703 1.463 . S
C2706 N2710 1.427 . S
C2707 H2697 0.929 . S
C2707 C2705 1.433 . S
C2707 N2710 1.384 . S
C2708 H2699 0.929 . S
C2708 C2700 1.378 . S
C2708 C2703 1.350 . S
C2709 H2696 0.929 . S
C2709 C2701 1.433 . S
C2709 N2711 1.384 . S
N2710 C2706 1.427 . S
N2710 C2707 1.384 . S
N2711 C2703 1.427 . S
N2711 C2709 1.384 . S
H2712 C2718 0.930 . S
H2713 C2722 0.930 . S
H2714 C2727 0.929 . S
H2715 C2725 0.929 . S
H2716 C2720 0.929 . S
H2717 C2726 0.929 . S
C2718 H2712 0.930 . S
C2718 C2719 1.367 . S
C2718 C2726 1.378 . S
C2719 C2718 1.367 . S
C2719 C2727 1.433 . S
C2720 H2716 0.929 . S
C2720 C2722 1.378 . S
C2720 C2724 1.350 . S
C2721 C2724 1.463 . S
C2721 C2726 1.350 . S
C2721 N2729 1.427 . S
C2722 H2713 0.930 . S
C2722 C2720 1.378 . S
C2722 C2723 1.367 . S
C2723 C2722 1.367 . S
C2723 C2725 1.433 . S
C2724 C2720 1.350 . S
C2724 C2721 1.463 . S
C2724 N2728 1.427 . S
C2725 H2715 0.929 . S
C2725 C2723 1.433 . S
C2725 N2728 1.384 . S
C2726 H2717 0.929 . S
C2726 C2718 1.378 . S
C2726 C2721 1.350 . S
C2727 H2714 0.929 . S
C2727 C2719 1.433 . S
C2727 N2729 1.384 . S
N2728 C2724 1.427 . S
N2728 C2725 1.384 . S
N2729 C2721 1.427 . S
N2729 C2727 1.384 . S
H2730 C2736 0.930 . S
H2731 C2740 0.930 . S
H2732 C2745 0.929 . S
H2733 C2743 0.929 . S
H2734 C2738 0.929 . S
H2735 C2744 0.929 . S
C2736 H2730 0.930 . S
C2736 C2737 1.367 . S
C2736 C2744 1.378 . S
C2737 C2736 1.367 . S
C2737 C2745 1.433 . S
C2738 H2734 0.929 . S
C2738 C2740 1.378 . S
C2738 C2742 1.350 . S
C2739 C2742 1.463 . S
C2739 C2744 1.350 . S
C2739 N2747 1.427 . S
C2740 H2731 0.930 . S
C2740 C2738 1.378 . S
C2740 C2741 1.367 . S
C2741 C2740 1.367 . S
C2741 C2743 1.433 . S
C2742 C2738 1.350 . S
C2742 C2739 1.463 . S
C2742 N2746 1.427 . S
C2743 H2733 0.929 . S
C2743 C2741 1.433 . S
C2743 N2746 1.384 . S
C2744 H2735 0.929 . S
C2744 C2736 1.378 . S
C2744 C2739 1.350 . S
C2745 H2732 0.929 . S
C2745 C2737 1.433 . S
C2745 N2747 1.384 . S
N2746 C2742 1.427 . S
N2746 C2743 1.384 . S
N2747 C2739 1.427 . S
N2747 C2745 1.384 . S
H2748 C2754 0.930 . S
H2749 C2758 0.930 . S
H2750 C2763 0.929 . S
H2751 C2761 0.929 . S
H2752 C2756 0.929 . S
H2753 C2762 0.929 . S
C2754 H2748 0.930 . S
C2754 C2755 1.367 . S
C2754 C2762 1.378 . S
C2755 C2754 1.367 . S
C2755 C2763 1.433 . S
C2756 H2752 0.929 . S
C2756 C2758 1.378 . S
C2756 C2760 1.350 . S
C2757 C2760 1.463 . S
C2757 C2762 1.350 . S
C2757 N2765 1.427 . S
C2758 H2749 0.930 . S
C2758 C2756 1.378 . S
C2758 C2759 1.367 . S
C2759 C2758 1.367 . S
C2759 C2761 1.433 . S
C2760 C2756 1.350 . S
C2760 C2757 1.463 . S
C2760 N2764 1.427 . S
C2761 H2751 0.929 . S
C2761 C2759 1.433 . S
C2761 N2764 1.384 . S
C2762 H2753 0.929 . S
C2762 C2754 1.378 . S
C2762 C2757 1.350 . S
C2763 H2750 0.929 . S
C2763 C2755 1.433 . S
C2763 N2765 1.384 . S
N2764 C2760 1.427 . S
N2764 C2761 1.384 . S
N2765 C2757 1.427 . S
N2765 C2763 1.384 . S
H2766 C2772 0.930 . S
H2767 C2776 0.930 . S
H2768 C2781 0.929 . S
H2769 C2779 0.929 . S
H2770 C2774 0.929 . S
H2771 C2780 0.929 . S
C2772 H2766 0.930 . S
C2772 C2773 1.367 . S
C2772 C2780 1.378 . S
C2773 C2772 1.367 . S
C2773 C2781 1.433 . S
C2774 H2770 0.929 . S
C2774 C2776 1.378 . S
C2774 C2778 1.350 . S
C2775 C2778 1.463 . S
C2775 C2780 1.350 . S
C2775 N2783 1.427 . S
C2776 H2767 0.930 . S
C2776 C2774 1.378 . S
C2776 C2777 1.367 . S
C2777 C2776 1.367 . S
C2777 C2779 1.433 . S
C2778 C2774 1.350 . S
C2778 C2775 1.463 . S
C2778 N2782 1.427 . S
C2779 H2769 0.929 . S
C2779 C2777 1.433 . S
C2779 N2782 1.384 . S
C2780 H2771 0.929 . S
C2780 C2772 1.378 . S
C2780 C2775 1.350 . S
C2781 H2768 0.929 . S
C2781 C2773 1.433 . S
C2781 N2783 1.384 . S
N2782 C2778 1.427 . S
N2782 C2779 1.384 . S
N2783 C2775 1.427 . S
N2783 C2781 1.384 . S
H2784 C2790 0.930 . S
H2785 C2794 0.930 . S
H2786 C2799 0.929 . S
H2787 C2797 0.929 . S
H2788 C2792 0.929 . S
H2789 C2798 0.929 . S
C2790 H2784 0.930 . S
C2790 C2791 1.367 . S
C2790 C2798 1.378 . S
C2791 C2790 1.367 . S
C2791 C2799 1.433 . S
C2792 H2788 0.929 . S
C2792 C2794 1.378 . S
C2792 C2796 1.350 . S
C2793 C2796 1.463 . S
C2793 C2798 1.350 . S
C2793 N2801 1.427 . S
C2794 H2785 0.930 . S
C2794 C2792 1.378 . S
C2794 C2795 1.367 . S
C2795 C2794 1.367 . S
C2795 C2797 1.433 . S
C2796 C2792 1.350 . S
C2796 C2793 1.463 . S
C2796 N2800 1.427 . S
C2797 H2787 0.929 . S
C2797 C2795 1.433 . S
C2797 N2800 1.384 . S
C2798 H2789 0.929 . S
C2798 C2790 1.378 . S
C2798 C2793 1.350 . S
C2799 H2786 0.929 . S
C2799 C2791 1.433 . S
C2799 N2801 1.384 . S
N2800 C2796 1.427 . S
N2800 C2797 1.384 . S
N2801 C2793 1.427 . S
N2801 C2799 1.384 . S
H2802 C2808 0.930 . S
H2803 C2812 0.930 . S
H2804 C2817 0.929 . S
H2805 C2815 0.929 . S
H2806 C2810 0.929 . S
H2807 C2816 0.929 . S
C2808 H2802 0.930 . S
C2808 C2809 1.367 . S
C2808 C2816 1.378 . S
C2809 C2808 1.367 . S
C2809 C2817 1.433 . S
C2810 H2806 0.929 . S
C2810 C2812 1.378 . S
C2810 C2814 1.350 . S
C2811 C2814 1.463 . S
C2811 C2816 1.350 . S
C2811 N2819 1.427 . S
C2812 H2803 0.930 . S
C2812 C2810 1.378 . S
C2812 C2813 1.367 . S
C2813 C2812 1.367 . S
C2813 C2815 1.433 . S
C2814 C2810 1.350 . S
C2814 C2811 1.463 . S
C2814 N2818 1.427 . S
C2815 H2805 0.929 . S
C2815 C2813 1.433 . S
C2815 N2818 1.384 . S
C2816 H2807 0.929 . S
C2816 C2808 1.378 . S
C2816 C2811 1.350 . S
C2817 H2804 0.929 . S
C2817 C2809 1.433 . S
C2817 N2819 1.384 . S
N2818 C2814 1.427 . S
N2818 C2815 1.384 . S
N2819 C2811 1.427 . S
N2819 C2817 1.384 . S
H2820 C2826 0.930 . S
H2821 C2830 0.930 . S
H2822 C2835 0.929 . S
H2823 C2833 0.929 . S
H2824 C2828 0.929 . S
H2825 C2834 0.929 . S
C2826 H2820 0.930 . S
C2826 C2827 1.367 . S
C2826 C2834 1.378 . S
C2827 C2826 1.367 . S
C2827 C2835 1.433 . S
C2828 H2824 0.929 . S
C2828 C2830 1.378 . S
C2828 C2832 1.350 . S
C2829 C2832 1.463 . S
C2829 C2834 1.350 . S
C2829 N2837 1.427 . S
C2830 H2821 0.930 . S
C2830 C2828 1.378 . S
C2830 C2831 1.367 . S
C2831 C2830 1.367 . S
C2831 C2833 1.433 . S
C2832 C2828 1.350 . S
C2832 C2829 1.463 . S
C2832 N2836 1.427 . S
C2833 H2823 0.929 . S
C2833 C2831 1.433 . S
C2833 N2836 1.384 . S
C2834 H2825 0.929 . S
C2834 C2826 1.378 . S
C2834 C2829 1.350 . S
C2835 H2822 0.929 . S
C2835 C2827 1.433 . S
C2835 N2837 1.384 . S
N2836 C2832 1.427 . S
N2836 C2833 1.384 . S
N2837 C2829 1.427 . S
N2837 C2835 1.384 . S
H2838 C2844 0.930 . S
H2839 C2848 0.930 . S
H2840 C2853 0.929 . S
H2841 C2851 0.929 . S
H2842 C2846 0.929 . S
H2843 C2852 0.929 . S
C2844 H2838 0.930 . S
C2844 C2845 1.367 . S
C2844 C2852 1.378 . S
C2845 C2844 1.367 . S
C2845 C2853 1.433 . S
C2846 H2842 0.929 . S
C2846 C2848 1.378 . S
C2846 C2850 1.350 . S
C2847 C2850 1.463 . S
C2847 C2852 1.350 . S
C2847 N2855 1.427 . S
C2848 H2839 0.930 . S
C2848 C2846 1.378 . S
C2848 C2849 1.367 . S
C2849 C2848 1.367 . S
C2849 C2851 1.433 . S
C2850 C2846 1.350 . S
C2850 C2847 1.463 . S
C2850 N2854 1.427 . S
C2851 H2841 0.929 . S
C2851 C2849 1.433 . S
C2851 N2854 1.384 . S
C2852 H2843 0.929 . S
C2852 C2844 1.378 . S
C2852 C2847 1.350 . S
C2853 H2840 0.929 . S
C2853 C2845 1.433 . S
C2853 N2855 1.384 . S
N2854 C2850 1.427 . S
N2854 C2851 1.384 . S
N2855 C2847 1.427 . S
N2855 C2853 1.384 . S
H2856 C2862 0.930 . S
H2857 C2866 0.930 . S
H2858 C2871 0.929 . S
H2859 C2869 0.929 . S
H2860 C2864 0.929 . S
H2861 C2870 0.929 . S
C2862 H2856 0.930 . S
C2862 C2863 1.367 . S
C2862 C2870 1.378 . S
C2863 C2862 1.367 . S
C2863 C2871 1.433 . S
C2864 H2860 0.929 . S
C2864 C2866 1.378 . S
C2864 C2868 1.350 . S
C2865 C2868 1.463 . S
C2865 C2870 1.350 . S
C2865 N2873 1.427 . S
C2866 H2857 0.930 . S
C2866 C2864 1.378 . S
C2866 C2867 1.367 . S
C2867 C2866 1.367 . S
C2867 C2869 1.433 . S
C2868 C2864 1.350 . S
C2868 C2865 1.463 . S
C2868 N2872 1.427 . S
C2869 H2859 0.929 . S
C2869 C2867 1.433 . S
C2869 N2872 1.384 . S
C2870 H2861 0.929 . S
C2870 C2862 1.378 . S
C2870 C2865 1.350 . S
C2871 H2858 0.929 . S
C2871 C2863 1.433 . S
C2871 N2873 1.384 . S
N2872 C2868 1.427 . S
N2872 C2869 1.384 . S
N2873 C2865 1.427 . S
N2873 C2871 1.384 . S
H2874 C2880 0.930 . S
H2875 C2884 0.930 . S
H2876 C2889 0.929 . S
H2877 C2887 0.929 . S
H2878 C2882 0.929 . S
H2879 C2888 0.929 . S
C2880 H2874 0.930 . S
C2880 C2881 1.367 . S
C2880 C2888 1.378 . S
C2881 C2880 1.367 . S
C2881 C2889 1.433 . S
C2882 H2878 0.929 . S
C2882 C2884 1.378 . S
C2882 C2886 1.350 . S
C2883 C2886 1.463 . S
C2883 C2888 1.350 . S
C2883 N2891 1.427 . S
C2884 H2875 0.930 . S
C2884 C2882 1.378 . S
C2884 C2885 1.367 . S
C2885 C2884 1.367 . S
C2885 C2887 1.433 . S
C2886 C2882 1.350 . S
C2886 C2883 1.463 . S
C2886 N2890 1.427 . S
C2887 H2877 0.929 . S
C2887 C2885 1.433 . S
C2887 N2890 1.384 . S
C2888 H2879 0.929 . S
C2888 C2880 1.378 . S
C2888 C2883 1.350 . S
C2889 H2876 0.929 . S
C2889 C2881 1.433 . S
C2889 N2891 1.384 . S
N2890 C2886 1.427 . S
N2890 C2887 1.384 . S
N2891 C2883 1.427 . S
N2891 C2889 1.384 . S
H2892 C2898 0.930 . S
H2893 C2902 0.930 . S
H2894 C2907 0.929 . S
H2895 C2905 0.929 . S
H2896 C2900 0.929 . S
H2897 C2906 0.929 . S
C2898 H2892 0.930 . S
C2898 C2899 1.367 . S
C2898 C2906 1.378 . S
C2899 C2898 1.367 . S
C2899 C2907 1.433 . S
C2900 H2896 0.929 . S
C2900 C2902 1.378 . S
C2900 C2904 1.350 . S
C2901 C2904 1.463 . S
C2901 C2906 1.350 . S
C2901 N2909 1.427 . S
C2902 H2893 0.930 . S
C2902 C2900 1.378 . S
C2902 C2903 1.367 . S
C2903 C2902 1.367 . S
C2903 C2905 1.433 . S
C2904 C2900 1.350 . S
C2904 C2901 1.463 . S
C2904 N2908 1.427 . S
C2905 H2895 0.929 . S
C2905 C2903 1.433 . S
C2905 N2908 1.384 . S
C2906 H2897 0.929 . S
C2906 C2898 1.378 . S
C2906 C2901 1.350 . S
C2907 H2894 0.929 . S
C2907 C2899 1.433 . S
C2907 N2909 1.384 . S
N2908 C2904 1.427 . S
N2908 C2905 1.384 . S
N2909 C2901 1.427 . S
N2909 C2907 1.384 . S
H2910 C2916 0.930 . S
H2911 C2920 0.930 . S
H2912 C2925 0.929 . S
H2913 C2923 0.929 . S
H2914 C2918 0.929 . S
H2915 C2924 0.929 . S
C2916 H2910 0.930 . S
C2916 C2917 1.367 . S
C2916 C2924 1.378 . S
C2917 C2916 1.367 . S
C2917 C2925 1.433 . S
C2918 H2914 0.929 . S
C2918 C2920 1.378 . S
C2918 C2922 1.350 . S
C2919 C2922 1.463 . S
C2919 C2924 1.350 . S
C2919 N2927 1.427 . S
C2920 H2911 0.930 . S
C2920 C2918 1.378 . S
C2920 C2921 1.367 . S
C2921 C2920 1.367 . S
C2921 C2923 1.433 . S
C2922 C2918 1.350 . S
C2922 C2919 1.463 . S
C2922 N2926 1.427 . S
C2923 H2913 0.929 . S
C2923 C2921 1.433 . S
C2923 N2926 1.384 . S
C2924 H2915 0.929 . S
C2924 C2916 1.378 . S
C2924 C2919 1.350 . S
C2925 H2912 0.929 . S
C2925 C2917 1.433 . S
C2925 N2927 1.384 . S
N2926 C2922 1.427 . S
N2926 C2923 1.384 . S
N2927 C2919 1.427 . S
N2927 C2925 1.384 . S
H2928 C2934 0.930 . S
H2929 C2938 0.930 . S
H2930 C2943 0.929 . S
H2931 C2941 0.929 . S
H2932 C2936 0.929 . S
H2933 C2942 0.929 . S
C2934 H2928 0.930 . S
C2934 C2935 1.367 . S
C2934 C2942 1.378 . S
C2935 C2934 1.367 . S
C2935 C2943 1.433 . S
C2936 H2932 0.929 . S
C2936 C2938 1.378 . S
C2936 C2940 1.350 . S
C2937 C2940 1.463 . S
C2937 C2942 1.350 . S
C2937 N2945 1.427 . S
C2938 H2929 0.930 . S
C2938 C2936 1.378 . S
C2938 C2939 1.367 . S
C2939 C2938 1.367 . S
C2939 C2941 1.433 . S
C2940 C2936 1.350 . S
C2940 C2937 1.463 . S
C2940 N2944 1.427 . S
C2941 H2931 0.929 . S
C2941 C2939 1.433 . S
C2941 N2944 1.384 . S
C2942 H2933 0.929 . S
C2942 C2934 1.378 . S
C2942 C2937 1.350 . S
C2943 H2930 0.929 . S
C2943 C2935 1.433 . S
C2943 N2945 1.384 . S
N2944 C2940 1.427 . S
N2944 C2941 1.384 . S
N2945 C2937 1.427 . S
N2945 C2943 1.384 . S
H2946 C2952 0.930 . S
H2947 C2956 0.930 . S
H2948 C2961 0.929 . S
H2949 C2959 0.929 . S
H2950 C2954 0.929 . S
H2951 C2960 0.929 . S
C2952 H2946 0.930 . S
C2952 C2953 1.367 . S
C2952 C2960 1.378 . S
C2953 C2952 1.367 . S
C2953 C2961 1.433 . S
C2954 H2950 0.929 . S
C2954 C2956 1.378 . S
C2954 C2958 1.350 . S
C2955 C2958 1.463 . S
C2955 C2960 1.350 . S
C2955 N2963 1.427 . S
C2956 H2947 0.930 . S
C2956 C2954 1.378 . S
C2956 C2957 1.367 . S
C2957 C2956 1.367 . S
C2957 C2959 1.433 . S
C2958 C2954 1.350 . S
C2958 C2955 1.463 . S
C2958 N2962 1.427 . S
C2959 H2949 0.929 . S
C2959 C2957 1.433 . S
C2959 N2962 1.384 . S
C2960 H2951 0.929 . S
C2960 C2952 1.378 . S
C2960 C2955 1.350 . S
C2961 H2948 0.929 . S
C2961 C2953 1.433 . S
C2961 N2963 1.384 . S
N2962 C2958 1.427 . S
N2962 C2959 1.384 . S
N2963 C2955 1.427 . S
N2963 C2961 1.384 . S
H2964 C2970 0.930 . S
H2965 C2974 0.930 . S
H2966 C2979 0.929 . S
H2967 C2977 0.929 . S
H2968 C2972 0.929 . S
H2969 C2978 0.929 . S
C2970 H2964 0.930 . S
C2970 C2971 1.367 . S
C2970 C2978 1.378 . S
C2971 C2970 1.367 . S
C2971 C2979 1.433 . S
C2972 H2968 0.929 . S
C2972 C2974 1.378 . S
C2972 C2976 1.350 . S
C2973 C2976 1.463 . S
C2973 C2978 1.350 . S
C2973 N2981 1.427 . S
C2974 H2965 0.930 . S
C2974 C2972 1.378 . S
C2974 C2975 1.367 . S
C2975 C2974 1.367 . S
C2975 C2977 1.433 . S
C2976 C2972 1.350 . S
C2976 C2973 1.463 . S
C2976 N2980 1.427 . S
C2977 H2967 0.929 . S
C2977 C2975 1.433 . S
C2977 N2980 1.384 . S
C2978 H2969 0.929 . S
C2978 C2970 1.378 . S
C2978 C2973 1.350 . S
C2979 H2966 0.929 . S
C2979 C2971 1.433 . S
C2979 N2981 1.384 . S
N2980 C2976 1.427 . S
N2980 C2977 1.384 . S
N2981 C2973 1.427 . S
N2981 C2979 1.384 . S
H2982 C2988 0.930 . S
H2983 C2992 0.930 . S
H2984 C2997 0.929 . S
H2985 C2995 0.929 . S
H2986 C2990 0.929 . S
H2987 C2996 0.929 . S
C2988 H2982 0.930 . S
C2988 C2989 1.367 . S
C2988 C2996 1.378 . S
C2989 C2988 1.367 . S
C2989 C2997 1.433 . S
C2990 H2986 0.929 . S
C2990 C2992 1.378 . S
C2990 C2994 1.350 . S
C2991 C2994 1.463 . S
C2991 C2996 1.350 . S
C2991 N2999 1.427 . S
C2992 H2983 0.930 . S
C2992 C2990 1.378 . S
C2992 C2993 1.367 . S
C2993 C2992 1.367 . S
C2993 C2995 1.433 . S
C2994 C2990 1.350 . S
C2994 C2991 1.463 . S
C2994 N2998 1.427 . S
C2995 H2985 0.929 . S
C2995 C2993 1.433 . S
C2995 N2998 1.384 . S
C2996 H2987 0.929 . S
C2996 C2988 1.378 . S
C2996 C2991 1.350 . S
C2997 H2984 0.929 . S
C2997 C2989 1.433 . S
C2997 N2999 1.384 . S
N2998 C2994 1.427 . S
N2998 C2995 1.384 . S
N2999 C2991 1.427 . S
N2999 C2997 1.384 . S
H3000 C3006 0.930 . S
H3001 C3010 0.930 . S
H3002 C3015 0.929 . S
H3003 C3013 0.929 . S
H3004 C3008 0.929 . S
H3005 C3014 0.929 . S
C3006 H3000 0.930 . S
C3006 C3007 1.367 . S
C3006 C3014 1.378 . S
C3007 C3006 1.367 . S
C3007 C3015 1.433 . S
C3008 H3004 0.929 . S
C3008 C3010 1.378 . S
C3008 C3012 1.350 . S
C3009 C3012 1.463 . S
C3009 C3014 1.350 . S
C3009 N3017 1.427 . S
C3010 H3001 0.930 . S
C3010 C3008 1.378 . S
C3010 C3011 1.367 . S
C3011 C3010 1.367 . S
C3011 C3013 1.433 . S
C3012 C3008 1.350 . S
C3012 C3009 1.463 . S
C3012 N3016 1.427 . S
C3013 H3003 0.929 . S
C3013 C3011 1.433 . S
C3013 N3016 1.384 . S
C3014 H3005 0.929 . S
C3014 C3006 1.378 . S
C3014 C3009 1.350 . S
C3015 H3002 0.929 . S
C3015 C3007 1.433 . S
C3015 N3017 1.384 . S
N3016 C3012 1.427 . S
N3016 C3013 1.384 . S
N3017 C3009 1.427 . S
N3017 C3015 1.384 . S
H3018 C3024 0.930 . S
H3019 C3028 0.930 . S
H3020 C3033 0.929 . S
H3021 C3031 0.929 . S
H3022 C3026 0.929 . S
H3023 C3032 0.929 . S
C3024 H3018 0.930 . S
C3024 C3025 1.367 . S
C3024 C3032 1.378 . S
C3025 C3024 1.367 . S
C3025 C3033 1.433 . S
C3026 H3022 0.929 . S
C3026 C3028 1.378 . S
C3026 C3030 1.350 . S
C3027 C3030 1.463 . S
C3027 C3032 1.350 . S
C3027 N3035 1.427 . S
C3028 H3019 0.930 . S
C3028 C3026 1.378 . S
C3028 C3029 1.367 . S
C3029 C3028 1.367 . S
C3029 C3031 1.433 . S
C3030 C3026 1.350 . S
C3030 C3027 1.463 . S
C3030 N3034 1.427 . S
C3031 H3021 0.929 . S
C3031 C3029 1.433 . S
C3031 N3034 1.384 . S
C3032 H3023 0.929 . S
C3032 C3024 1.378 . S
C3032 C3027 1.350 . S
C3033 H3020 0.929 . S
C3033 C3025 1.433 . S
C3033 N3035 1.384 . S
N3034 C3030 1.427 . S
N3034 C3031 1.384 . S
N3035 C3027 1.427 . S
N3035 C3033 1.384 . S
H3036 C3042 0.930 . S
H3037 C3046 0.930 . S
H3038 C3051 0.929 . S
H3039 C3049 0.929 . S
H3040 C3044 0.929 . S
H3041 C3050 0.929 . S
C3042 H3036 0.930 . S
C3042 C3043 1.367 . S
C3042 C3050 1.378 . S
C3043 C3042 1.367 . S
C3043 C3051 1.433 . S
C3044 H3040 0.929 . S
C3044 C3046 1.378 . S
C3044 C3048 1.350 . S
C3045 C3048 1.463 . S
C3045 C3050 1.350 . S
C3045 N3053 1.427 . S
C3046 H3037 0.930 . S
C3046 C3044 1.378 . S
C3046 C3047 1.367 . S
C3047 C3046 1.367 . S
C3047 C3049 1.433 . S
C3048 C3044 1.350 . S
C3048 C3045 1.463 . S
C3048 N3052 1.427 . S
C3049 H3039 0.929 . S
C3049 C3047 1.433 . S
C3049 N3052 1.384 . S
C3050 H3041 0.929 . S
C3050 C3042 1.378 . S
C3050 C3045 1.350 . S
C3051 H3038 0.929 . S
C3051 C3043 1.433 . S
C3051 N3053 1.384 . S
N3052 C3048 1.427 . S
N3052 C3049 1.384 . S
N3053 C3045 1.427 . S
N3053 C3051 1.384 . S
H3054 C3060 0.930 . S
H3055 C3064 0.930 . S
H3056 C3069 0.929 . S
H3057 C3067 0.929 . S
H3058 C3062 0.929 . S
H3059 C3068 0.929 . S
C3060 H3054 0.930 . S
C3060 C3061 1.367 . S
C3060 C3068 1.378 . S
C3061 C3060 1.367 . S
C3061 C3069 1.433 . S
C3062 H3058 0.929 . S
C3062 C3064 1.378 . S
C3062 C3066 1.350 . S
C3063 C3066 1.463 . S
C3063 C3068 1.350 . S
C3063 N3071 1.427 . S
C3064 H3055 0.930 . S
C3064 C3062 1.378 . S
C3064 C3065 1.367 . S
C3065 C3064 1.367 . S
C3065 C3067 1.433 . S
C3066 C3062 1.350 . S
C3066 C3063 1.463 . S
C3066 N3070 1.427 . S
C3067 H3057 0.929 . S
C3067 C3065 1.433 . S
C3067 N3070 1.384 . S
C3068 H3059 0.929 . S
C3068 C3060 1.378 . S
C3068 C3063 1.350 . S
C3069 H3056 0.929 . S
C3069 C3061 1.433 . S
C3069 N3071 1.384 . S
N3070 C3066 1.427 . S
N3070 C3067 1.384 . S
N3071 C3063 1.427 . S
N3071 C3069 1.384 . S
H3072 C3078 0.930 . S
H3073 C3082 0.930 . S
H3074 C3087 0.929 . S
H3075 C3085 0.929 . S
H3076 C3080 0.929 . S
H3077 C3086 0.929 . S
C3078 H3072 0.930 . S
C3078 C3079 1.367 . S
C3078 C3086 1.378 . S
C3079 C3078 1.367 . S
C3079 C3087 1.433 . S
C3080 H3076 0.929 . S
C3080 C3082 1.378 . S
C3080 C3084 1.350 . S
C3081 C3084 1.463 . S
C3081 C3086 1.350 . S
C3081 N3089 1.427 . S
C3082 H3073 0.930 . S
C3082 C3080 1.378 . S
C3082 C3083 1.367 . S
C3083 C3082 1.367 . S
C3083 C3085 1.433 . S
C3084 C3080 1.350 . S
C3084 C3081 1.463 . S
C3084 N3088 1.427 . S
C3085 H3075 0.929 . S
C3085 C3083 1.433 . S
C3085 N3088 1.384 . S
C3086 H3077 0.929 . S
C3086 C3078 1.378 . S
C3086 C3081 1.350 . S
C3087 H3074 0.929 . S
C3087 C3079 1.433 . S
C3087 N3089 1.384 . S
N3088 C3084 1.427 . S
N3088 C3085 1.384 . S
N3089 C3081 1.427 . S
N3089 C3087 1.384 . S
H3090 C3096 0.930 . S
H3091 C3100 0.930 . S
H3092 C3105 0.929 . S
H3093 C3103 0.929 . S
H3094 C3098 0.929 . S
H3095 C3104 0.929 . S
C3096 H3090 0.930 . S
C3096 C3097 1.367 . S
C3096 C3104 1.378 . S
C3097 C3096 1.367 . S
C3097 C3105 1.433 . S
C3098 H3094 0.929 . S
C3098 C3100 1.378 . S
C3098 C3102 1.350 . S
C3099 C3102 1.463 . S
C3099 C3104 1.350 . S
C3099 N3107 1.427 . S
C3100 H3091 0.930 . S
C3100 C3098 1.378 . S
C3100 C3101 1.367 . S
C3101 C3100 1.367 . S
C3101 C3103 1.433 . S
C3102 C3098 1.350 . S
C3102 C3099 1.463 . S
C3102 N3106 1.427 . S
C3103 H3093 0.929 . S
C3103 C3101 1.433 . S
C3103 N3106 1.384 . S
C3104 H3095 0.929 . S
C3104 C3096 1.378 . S
C3104 C3099 1.350 . S
C3105 H3092 0.929 . S
C3105 C3097 1.433 . S
C3105 N3107 1.384 . S
N3106 C3102 1.427 . S
N3106 C3103 1.384 . S
N3107 C3099 1.427 . S
N3107 C3105 1.384 . S
H3108 C3114 0.930 . S
H3109 C3118 0.930 . S
H3110 C3123 0.929 . S
H3111 C3121 0.929 . S
H3112 C3116 0.929 . S
H3113 C3122 0.929 . S
C3114 H3108 0.930 . S
C3114 C3115 1.367 . S
C3114 C3122 1.378 . S
C3115 C3114 1.367 . S
C3115 C3123 1.433 . S
C3116 H3112 0.929 . S
C3116 C3118 1.378 . S
C3116 C3120 1.350 . S
C3117 C3120 1.463 . S
C3117 C3122 1.350 . S
C3117 N3125 1.427 . S
C3118 H3109 0.930 . S
C3118 C3116 1.378 . S
C3118 C3119 1.367 . S
C3119 C3118 1.367 . S
C3119 C3121 1.433 . S
C3120 C3116 1.350 . S
C3120 C3117 1.463 . S
C3120 N3124 1.427 . S
C3121 H3111 0.929 . S
C3121 C3119 1.433 . S
C3121 N3124 1.384 . S
C3122 H3113 0.929 . S
C3122 C3114 1.378 . S
C3122 C3117 1.350 . S
C3123 H3110 0.929 . S
C3123 C3115 1.433 . S
C3123 N3125 1.384 . S
N3124 C3120 1.427 . S
N3124 C3121 1.384 . S
N3125 C3117 1.427 . S
N3125 C3123 1.384 . S
H3126 C3132 0.930 . S
H3127 C3136 0.930 . S
H3128 C3141 0.929 . S
H3129 C3139 0.929 . S
H3130 C3134 0.929 . S
H3131 C3140 0.929 . S
C3132 H3126 0.930 . S
C3132 C3133 1.367 . S
C3132 C3140 1.378 . S
C3133 C3132 1.367 . S
C3133 C3141 1.433 . S
C3134 H3130 0.929 . S
C3134 C3136 1.378 . S
C3134 C3138 1.350 . S
C3135 C3138 1.463 . S
C3135 C3140 1.350 . S
C3135 N3143 1.427 . S
C3136 H3127 0.930 . S
C3136 C3134 1.378 . S
C3136 C3137 1.367 . S
C3137 C3136 1.367 . S
C3137 C3139 1.433 . S
C3138 C3134 1.350 . S
C3138 C3135 1.463 . S
C3138 N3142 1.427 . S
C3139 H3129 0.929 . S
C3139 C3137 1.433 . S
C3139 N3142 1.384 . S
C3140 H3131 0.929 . S
C3140 C3132 1.378 . S
C3140 C3135 1.350 . S
C3141 H3128 0.929 . S
C3141 C3133 1.433 . S
C3141 N3143 1.384 . S
N3142 C3138 1.427 . S
N3142 C3139 1.384 . S
N3143 C3135 1.427 . S
N3143 C3141 1.384 . S
H3144 C3150 0.930 . S
H3145 C3154 0.930 . S
H3146 C3159 0.929 . S
H3147 C3157 0.929 . S
H3148 C3152 0.929 . S
H3149 C3158 0.929 . S
C3150 H3144 0.930 . S
C3150 C3151 1.367 . S
C3150 C3158 1.378 . S
C3151 C3150 1.367 . S
C3151 C3159 1.433 . S
C3152 H3148 0.929 . S
C3152 C3154 1.378 . S
C3152 C3156 1.350 . S
C3153 C3156 1.463 . S
C3153 C3158 1.350 . S
C3153 N3161 1.427 . S
C3154 H3145 0.930 . S
C3154 C3152 1.378 . S
C3154 C3155 1.367 . S
C3155 C3154 1.367 . S
C3155 C3157 1.433 . S
C3156 C3152 1.350 . S
C3156 C3153 1.463 . S
C3156 N3160 1.427 . S
C3157 H3147 0.929 . S
C3157 C3155 1.433 . S
C3157 N3160 1.384 . S
C3158 H3149 0.929 . S
C3158 C3150 1.378 . S
C3158 C3153 1.350 . S
C3159 H3146 0.929 . S
C3159 C3151 1.433 . S
C3159 N3161 1.384 . S
N3160 C3156 1.427 . S
N3160 C3157 1.384 . S
N3161 C3153 1.427 . S
N3161 C3159 1.384 . S
H3162 C3168 0.930 . S
H3163 C3172 0.930 . S
H3164 C3177 0.929 . S
H3165 C3175 0.929 . S
H3166 C3170 0.929 . S
H3167 C3176 0.929 . S
C3168 H3162 0.930 . S
C3168 C3169 1.367 . S
C3168 C3176 1.378 . S
C3169 C3168 1.367 . S
C3169 C3177 1.433 . S
C3170 H3166 0.929 . S
C3170 C3172 1.378 . S
C3170 C3174 1.350 . S
C3171 C3174 1.463 . S
C3171 C3176 1.350 . S
C3171 N3179 1.427 . S
C3172 H3163 0.930 . S
C3172 C3170 1.378 . S
C3172 C3173 1.367 . S
C3173 C3172 1.367 . S
C3173 C3175 1.433 . S
C3174 C3170 1.350 . S
C3174 C3171 1.463 . S
C3174 N3178 1.427 . S
C3175 H3165 0.929 . S
C3175 C3173 1.433 . S
C3175 N3178 1.384 . S
C3176 H3167 0.929 . S
C3176 C3168 1.378 . S
C3176 C3171 1.350 . S
C3177 H3164 0.929 . S
C3177 C3169 1.433 . S
C3177 N3179 1.384 . S
N3178 C3174 1.427 . S
N3178 C3175 1.384 . S
N3179 C3171 1.427 . S
N3179 C3177 1.384 . S
H3180 C3186 0.930 . S
H3181 C3190 0.930 . S
H3182 C3195 0.929 . S
H3183 C3193 0.929 . S
H3184 C3188 0.929 . S
H3185 C3194 0.929 . S
C3186 H3180 0.930 . S
C3186 C3187 1.367 . S
C3186 C3194 1.378 . S
C3187 C3186 1.367 . S
C3187 C3195 1.433 . S
C3188 H3184 0.929 . S
C3188 C3190 1.378 . S
C3188 C3192 1.350 . S
C3189 C3192 1.463 . S
C3189 C3194 1.350 . S
C3189 N3197 1.427 . S
C3190 H3181 0.930 . S
C3190 C3188 1.378 . S
C3190 C3191 1.367 . S
C3191 C3190 1.367 . S
C3191 C3193 1.433 . S
C3192 C3188 1.350 . S
C3192 C3189 1.463 . S
C3192 N3196 1.427 . S
C3193 H3183 0.929 . S
C3193 C3191 1.433 . S
C3193 N3196 1.384 . S
C3194 H3185 0.929 . S
C3194 C3186 1.378 . S
C3194 C3189 1.350 . S
C3195 H3182 0.929 . S
C3195 C3187 1.433 . S
C3195 N3197 1.384 . S
N3196 C3192 1.427 . S
N3196 C3193 1.384 . S
N3197 C3189 1.427 . S
N3197 C3195 1.384 . S
H3198 C3204 0.930 . S
H3199 C3208 0.930 . S
H3200 C3213 0.929 . S
H3201 C3211 0.929 . S
H3202 C3206 0.929 . S
H3203 C3212 0.929 . S
C3204 H3198 0.930 . S
C3204 C3205 1.367 . S
C3204 C3212 1.378 . S
C3205 C3204 1.367 . S
C3205 C3213 1.433 . S
C3206 H3202 0.929 . S
C3206 C3208 1.378 . S
C3206 C3210 1.350 . S
C3207 C3210 1.463 . S
C3207 C3212 1.350 . S
C3207 N3215 1.427 . S
C3208 H3199 0.930 . S
C3208 C3206 1.378 . S
C3208 C3209 1.367 . S
C3209 C3208 1.367 . S
C3209 C3211 1.433 . S
C3210 C3206 1.350 . S
C3210 C3207 1.463 . S
C3210 N3214 1.427 . S
C3211 H3201 0.929 . S
C3211 C3209 1.433 . S
C3211 N3214 1.384 . S
C3212 H3203 0.929 . S
C3212 C3204 1.378 . S
C3212 C3207 1.350 . S
C3213 H3200 0.929 . S
C3213 C3205 1.433 . S
C3213 N3215 1.384 . S
N3214 C3210 1.427 . S
N3214 C3211 1.384 . S
N3215 C3207 1.427 . S
N3215 C3213 1.384 . S
H3216 C3222 0.930 . S
H3217 C3226 0.930 . S
H3218 C3231 0.929 . S
H3219 C3229 0.929 . S
H3220 C3224 0.929 . S
H3221 C3230 0.929 . S
C3222 H3216 0.930 . S
C3222 C3223 1.367 . S
C3222 C3230 1.378 . S
C3223 C3222 1.367 . S
C3223 C3231 1.433 . S
C3224 H3220 0.929 . S
C3224 C3226 1.378 . S
C3224 C3228 1.350 . S
C3225 C3228 1.463 . S
C3225 C3230 1.350 . S
C3225 N3233 1.427 . S
C3226 H3217 0.930 . S
C3226 C3224 1.378 . S
C3226 C3227 1.367 . S
C3227 C3226 1.367 . S
C3227 C3229 1.433 . S
C3228 C3224 1.350 . S
C3228 C3225 1.463 . S
C3228 N3232 1.427 . S
C3229 H3219 0.929 . S
C3229 C3227 1.433 . S
C3229 N3232 1.384 . S
C3230 H3221 0.929 . S
C3230 C3222 1.378 . S
C3230 C3225 1.350 . S
C3231 H3218 0.929 . S
C3231 C3223 1.433 . S
C3231 N3233 1.384 . S
N3232 C3228 1.427 . S
N3232 C3229 1.384 . S
N3233 C3225 1.427 . S
N3233 C3231 1.384 . S
H3234 C3240 0.930 . S
H3235 C3244 0.930 . S
H3236 C3249 0.929 . S
H3237 C3247 0.929 . S
H3238 C3242 0.929 . S
H3239 C3248 0.929 . S
C3240 H3234 0.930 . S
C3240 C3241 1.367 . S
C3240 C3248 1.378 . S
C3241 C3240 1.367 . S
C3241 C3249 1.433 . S
C3242 H3238 0.929 . S
C3242 C3244 1.378 . S
C3242 C3246 1.350 . S
C3243 C3246 1.463 . S
C3243 C3248 1.350 . S
C3243 N3251 1.427 . S
C3244 H3235 0.930 . S
C3244 C3242 1.378 . S
C3244 C3245 1.367 . S
C3245 C3244 1.367 . S
C3245 C3247 1.433 . S
C3246 C3242 1.350 . S
C3246 C3243 1.463 . S
C3246 N3250 1.427 . S
C3247 H3237 0.929 . S
C3247 C3245 1.433 . S
C3247 N3250 1.384 . S
C3248 H3239 0.929 . S
C3248 C3240 1.378 . S
C3248 C3243 1.350 . S
C3249 H3236 0.929 . S
C3249 C3241 1.433 . S
C3249 N3251 1.384 . S
N3250 C3246 1.427 . S
N3250 C3247 1.384 . S
N3251 C3243 1.427 . S
N3251 C3249 1.384 . S
H3252 C3258 0.930 . S
H3253 C3262 0.930 . S
H3254 C3267 0.929 . S
H3255 C3265 0.929 . S
H3256 C3260 0.929 . S
H3257 C3266 0.929 . S
C3258 H3252 0.930 . S
C3258 C3259 1.367 . S
C3258 C3266 1.378 . S
C3259 C3258 1.367 . S
C3259 C3267 1.433 . S
C3260 H3256 0.929 . S
C3260 C3262 1.378 . S
C3260 C3264 1.350 . S
C3261 C3264 1.463 . S
C3261 C3266 1.350 . S
C3261 N3269 1.427 . S
C3262 H3253 0.930 . S
C3262 C3260 1.378 . S
C3262 C3263 1.367 . S
C3263 C3262 1.367 . S
C3263 C3265 1.433 . S
C3264 C3260 1.350 . S
C3264 C3261 1.463 . S
C3264 N3268 1.427 . S
C3265 H3255 0.929 . S
C3265 C3263 1.433 . S
C3265 N3268 1.384 . S
C3266 H3257 0.929 . S
C3266 C3258 1.378 . S
C3266 C3261 1.350 . S
C3267 H3254 0.929 . S
C3267 C3259 1.433 . S
C3267 N3269 1.384 . S
N3268 C3264 1.427 . S
N3268 C3265 1.384 . S
N3269 C3261 1.427 . S
N3269 C3267 1.384 . S
H3270 C3276 0.930 . S
H3271 C3280 0.930 . S
H3272 C3285 0.929 . S
H3273 C3283 0.929 . S
H3274 C3278 0.929 . S
H3275 C3284 0.929 . S
C3276 H3270 0.930 . S
C3276 C3277 1.367 . S
C3276 C3284 1.378 . S
C3277 C3276 1.367 . S
C3277 C3285 1.433 . S
C3278 H3274 0.929 . S
C3278 C3280 1.378 . S
C3278 C3282 1.350 . S
C3279 C3282 1.463 . S
C3279 C3284 1.350 . S
C3279 N3287 1.427 . S
C3280 H3271 0.930 . S
C3280 C3278 1.378 . S
C3280 C3281 1.367 . S
C3281 C3280 1.367 . S
C3281 C3283 1.433 . S
C3282 C3278 1.350 . S
C3282 C3279 1.463 . S
C3282 N3286 1.427 . S
C3283 H3273 0.929 . S
C3283 C3281 1.433 . S
C3283 N3286 1.384 . S
C3284 H3275 0.929 . S
C3284 C3276 1.378 . S
C3284 C3279 1.350 . S
C3285 H3272 0.929 . S
C3285 C3277 1.433 . S
C3285 N3287 1.384 . S
N3286 C3282 1.427 . S
N3286 C3283 1.384 . S
N3287 C3279 1.427 . S
N3287 C3285 1.384 . S
H3288 C3294 0.930 . S
H3289 C3298 0.930 . S
H3290 C3303 0.929 . S
H3291 C3301 0.929 . S
H3292 C3296 0.929 . S
H3293 C3302 0.929 . S
C3294 H3288 0.930 . S
C3294 C3295 1.367 . S
C3294 C3302 1.378 . S
C3295 C3294 1.367 . S
C3295 C3303 1.433 . S
C3296 H3292 0.929 . S
C3296 C3298 1.378 . S
C3296 C3300 1.350 . S
C3297 C3300 1.463 . S
C3297 C3302 1.350 . S
C3297 N3305 1.427 . S
C3298 H3289 0.930 . S
C3298 C3296 1.378 . S
C3298 C3299 1.367 . S
C3299 C3298 1.367 . S
C3299 C3301 1.433 . S
C3300 C3296 1.350 . S
C3300 C3297 1.463 . S
C3300 N3304 1.427 . S
C3301 H3291 0.929 . S
C3301 C3299 1.433 . S
C3301 N3304 1.384 . S
C3302 H3293 0.929 . S
C3302 C3294 1.378 . S
C3302 C3297 1.350 . S
C3303 H3290 0.929 . S
C3303 C3295 1.433 . S
C3303 N3305 1.384 . S
N3304 C3300 1.427 . S
N3304 C3301 1.384 . S
N3305 C3297 1.427 . S
N3305 C3303 1.384 . S
H3306 C3312 0.930 . S
H3307 C3316 0.930 . S
H3308 C3321 0.929 . S
H3309 C3319 0.929 . S
H3310 C3314 0.929 . S
H3311 C3320 0.929 . S
C3312 H3306 0.930 . S
C3312 C3313 1.367 . S
C3312 C3320 1.378 . S
C3313 C3312 1.367 . S
C3313 C3321 1.433 . S
C3314 H3310 0.929 . S
C3314 C3316 1.378 . S
C3314 C3318 1.350 . S
C3315 C3318 1.463 . S
C3315 C3320 1.350 . S
C3315 N3323 1.427 . S
C3316 H3307 0.930 . S
C3316 C3314 1.378 . S
C3316 C3317 1.367 . S
C3317 C3316 1.367 . S
C3317 C3319 1.433 . S
C3318 C3314 1.350 . S
C3318 C3315 1.463 . S
C3318 N3322 1.427 . S
C3319 H3309 0.929 . S
C3319 C3317 1.433 . S
C3319 N3322 1.384 . S
C3320 H3311 0.929 . S
C3320 C3312 1.378 . S
C3320 C3315 1.350 . S
C3321 H3308 0.929 . S
C3321 C3313 1.433 . S
C3321 N3323 1.384 . S
N3322 C3318 1.427 . S
N3322 C3319 1.384 . S
N3323 C3315 1.427 . S
N3323 C3321 1.384 . S
H3324 C3330 0.930 . S
H3325 C3334 0.930 . S
H3326 C3339 0.929 . S
H3327 C3337 0.929 . S
H3328 C3332 0.929 . S
H3329 C3338 0.929 . S
C3330 H3324 0.930 . S
C3330 C3331 1.367 . S
C3330 C3338 1.378 . S
C3331 C3330 1.367 . S
C3331 C3339 1.433 . S
C3332 H3328 0.929 . S
C3332 C3334 1.378 . S
C3332 C3336 1.350 . S
C3333 C3336 1.463 . S
C3333 C3338 1.350 . S
C3333 N3341 1.427 . S
C3334 H3325 0.930 . S
C3334 C3332 1.378 . S
C3334 C3335 1.367 . S
C3335 C3334 1.367 . S
C3335 C3337 1.433 . S
C3336 C3332 1.350 . S
C3336 C3333 1.463 . S
C3336 N3340 1.427 . S
C3337 H3327 0.929 . S
C3337 C3335 1.433 . S
C3337 N3340 1.384 . S
C3338 H3329 0.929 . S
C3338 C3330 1.378 . S
C3338 C3333 1.350 . S
C3339 H3326 0.929 . S
C3339 C3331 1.433 . S
C3339 N3341 1.384 . S
N3340 C3336 1.427 . S
N3340 C3337 1.384 . S
N3341 C3333 1.427 . S
N3341 C3339 1.384 . S
H3342 C3348 0.930 . S
H3343 C3352 0.930 . S
H3344 C3357 0.929 . S
H3345 C3355 0.929 . S
H3346 C3350 0.929 . S
H3347 C3356 0.929 . S
C3348 H3342 0.930 . S
C3348 C3349 1.367 . S
C3348 C3356 1.378 . S
C3349 C3348 1.367 . S
C3349 C3357 1.433 . S
C3350 H3346 0.929 . S
C3350 C3352 1.378 . S
C3350 C3354 1.350 . S
C3351 C3354 1.463 . S
C3351 C3356 1.350 . S
C3351 N3359 1.427 . S
C3352 H3343 0.930 . S
C3352 C3350 1.378 . S
C3352 C3353 1.367 . S
C3353 C3352 1.367 . S
C3353 C3355 1.433 . S
C3354 C3350 1.350 . S
C3354 C3351 1.463 . S
C3354 N3358 1.427 . S
C3355 H3345 0.929 . S
C3355 C3353 1.433 . S
C3355 N3358 1.384 . S
C3356 H3347 0.929 . S
C3356 C3348 1.378 . S
C3356 C3351 1.350 . S
C3357 H3344 0.929 . S
C3357 C3349 1.433 . S
C3357 N3359 1.384 . S
N3358 C3354 1.427 . S
N3358 C3355 1.384 . S
N3359 C3351 1.427 . S
N3359 C3357 1.384 . S
H3360 C3366 0.930 . S
H3361 C3370 0.930 . S
H3362 C3375 0.929 . S
H3363 C3373 0.929 . S
H3364 C3368 0.929 . S
H3365 C3374 0.929 . S
C3366 H3360 0.930 . S
C3366 C3367 1.367 . S
C3366 C3374 1.378 . S
C3367 C3366 1.367 . S
C3367 C3375 1.433 . S
C3368 H3364 0.929 . S
C3368 C3370 1.378 . S
C3368 C3372 1.350 . S
C3369 C3372 1.463 . S
C3369 C3374 1.350 . S
C3369 N3377 1.427 . S
C3370 H3361 0.930 . S
C3370 C3368 1.378 . S
C3370 C3371 1.367 . S
C3371 C3370 1.367 . S
C3371 C3373 1.433 . S
C3372 C3368 1.350 . S
C3372 C3369 1.463 . S
C3372 N3376 1.427 . S
C3373 H3363 0.929 . S
C3373 C3371 1.433 . S
C3373 N3376 1.384 . S
C3374 H3365 0.929 . S
C3374 C3366 1.378 . S
C3374 C3369 1.350 . S
C3375 H3362 0.929 . S
C3375 C3367 1.433 . S
C3375 N3377 1.384 . S
N3376 C3372 1.427 . S
N3376 C3373 1.384 . S
N3377 C3369 1.427 . S
N3377 C3375 1.384 . S
H3378 C3384 0.930 . S
H3379 C3388 0.930 . S
H3380 C3393 0.929 . S
H3381 C3391 0.929 . S
H3382 C3386 0.929 . S
H3383 C3392 0.929 . S
C3384 H3378 0.930 . S
C3384 C3385 1.367 . S
C3384 C3392 1.378 . S
C3385 C3384 1.367 . S
C3385 C3393 1.433 . S
C3386 H3382 0.929 . S
C3386 C3388 1.378 . S
C3386 C3390 1.350 . S
C3387 C3390 1.463 . S
C3387 C3392 1.350 . S
C3387 N3395 1.427 . S
C3388 H3379 0.930 . S
C3388 C3386 1.378 . S
C3388 C3389 1.367 . S
C3389 C3388 1.367 . S
C3389 C3391 1.433 . S
C3390 C3386 1.350 . S
C3390 C3387 1.463 . S
C3390 N3394 1.427 . S
C3391 H3381 0.929 . S
C3391 C3389 1.433 . S
C3391 N3394 1.384 . S
C3392 H3383 0.929 . S
C3392 C3384 1.378 . S
C3392 C3387 1.350 . S
C3393 H3380 0.929 . S
C3393 C3385 1.433 . S
C3393 N3395 1.384 . S
N3394 C3390 1.427 . S
N3394 C3391 1.384 . S
N3395 C3387 1.427 . S
N3395 C3393 1.384 . S
H3396 C3402 0.930 . S
H3397 C3406 0.930 . S
H3398 C3411 0.929 . S
H3399 C3409 0.929 . S
H3400 C3404 0.929 . S
H3401 C3410 0.929 . S
C3402 H3396 0.930 . S
C3402 C3403 1.367 . S
C3402 C3410 1.378 . S
C3403 C3402 1.367 . S
C3403 C3411 1.433 . S
C3404 H3400 0.929 . S
C3404 C3406 1.378 . S
C3404 C3408 1.350 . S
C3405 C3408 1.463 . S
C3405 C3410 1.350 . S
C3405 N3413 1.427 . S
C3406 H3397 0.930 . S
C3406 C3404 1.378 . S
C3406 C3407 1.367 . S
C3407 C3406 1.367 . S
C3407 C3409 1.433 . S
C3408 C3404 1.350 . S
C3408 C3405 1.463 . S
C3408 N3412 1.427 . S
C3409 H3399 0.929 . S
C3409 C3407 1.433 . S
C3409 N3412 1.384 . S
C3410 H3401 0.929 . S
C3410 C3402 1.378 . S
C3410 C3405 1.350 . S
C3411 H3398 0.929 . S
C3411 C3403 1.433 . S
C3411 N3413 1.384 . S
N3412 C3408 1.427 . S
N3412 C3409 1.384 . S
N3413 C3405 1.427 . S
N3413 C3411 1.384 . S
H3414 C3420 0.930 . S
H3415 C3424 0.930 . S
H3416 C3429 0.929 . S
H3417 C3427 0.929 . S
H3418 C3422 0.929 . S
H3419 C3428 0.929 . S
C3420 H3414 0.930 . S
C3420 C3421 1.367 . S
C3420 C3428 1.378 . S
C3421 C3420 1.367 . S
C3421 C3429 1.433 . S
C3422 H3418 0.929 . S
C3422 C3424 1.378 . S
C3422 C3426 1.350 . S
C3423 C3426 1.463 . S
C3423 C3428 1.350 . S
C3423 N3431 1.427 . S
C3424 H3415 0.930 . S
C3424 C3422 1.378 . S
C3424 C3425 1.367 . S
C3425 C3424 1.367 . S
C3425 C3427 1.433 . S
C3426 C3422 1.350 . S
C3426 C3423 1.463 . S
C3426 N3430 1.427 . S
C3427 H3417 0.929 . S
C3427 C3425 1.433 . S
C3427 N3430 1.384 . S
C3428 H3419 0.929 . S
C3428 C3420 1.378 . S
C3428 C3423 1.350 . S
C3429 H3416 0.929 . S
C3429 C3421 1.433 . S
C3429 N3431 1.384 . S
N3430 C3426 1.427 . S
N3430 C3427 1.384 . S
N3431 C3423 1.427 . S
N3431 C3429 1.384 . S
H3432 C3438 0.930 . S
H3433 C3442 0.930 . S
H3434 C3447 0.929 . S
H3435 C3445 0.929 . S
H3436 C3440 0.929 . S
H3437 C3446 0.929 . S
C3438 H3432 0.930 . S
C3438 C3439 1.367 . S
C3438 C3446 1.378 . S
C3439 C3438 1.367 . S
C3439 C3447 1.433 . S
C3440 H3436 0.929 . S
C3440 C3442 1.378 . S
C3440 C3444 1.350 . S
C3441 C3444 1.463 . S
C3441 C3446 1.350 . S
C3441 N3449 1.427 . S
C3442 H3433 0.930 . S
C3442 C3440 1.378 . S
C3442 C3443 1.367 . S
C3443 C3442 1.367 . S
C3443 C3445 1.433 . S
C3444 C3440 1.350 . S
C3444 C3441 1.463 . S
C3444 N3448 1.427 . S
C3445 H3435 0.929 . S
C3445 C3443 1.433 . S
C3445 N3448 1.384 . S
C3446 H3437 0.929 . S
C3446 C3438 1.378 . S
C3446 C3441 1.350 . S
C3447 H3434 0.929 . S
C3447 C3439 1.433 . S
C3447 N3449 1.384 . S
N3448 C3444 1.427 . S
N3448 C3445 1.384 . S
N3449 C3441 1.427 . S
N3449 C3447 1.384 . S
H3450 C3456 0.930 . S
H3451 C3460 0.930 . S
H3452 C3465 0.929 . S
H3453 C3463 0.929 . S
H3454 C3458 0.929 . S
H3455 C3464 0.929 . S
C3456 H3450 0.930 . S
C3456 C3457 1.367 . S
C3456 C3464 1.378 . S
C3457 C3456 1.367 . S
C3457 C3465 1.433 . S
C3458 H3454 0.929 . S
C3458 C3460 1.378 . S
C3458 C3462 1.350 . S
C3459 C3462 1.463 . S
C3459 C3464 1.350 . S
C3459 N3467 1.427 . S
C3460 H3451 0.930 . S
C3460 C3458 1.378 . S
C3460 C3461 1.367 . S
C3461 C3460 1.367 . S
C3461 C3463 1.433 . S
C3462 C3458 1.350 . S
C3462 C3459 1.463 . S
C3462 N3466 1.427 . S
C3463 H3453 0.929 . S
C3463 C3461 1.433 . S
C3463 N3466 1.384 . S
C3464 H3455 0.929 . S
C3464 C3456 1.378 . S
C3464 C3459 1.350 . S
C3465 H3452 0.929 . S
C3465 C3457 1.433 . S
C3465 N3467 1.384 . S
N3466 C3462 1.427 . S
N3466 C3463 1.384 . S
N3467 C3459 1.427 . S
N3467 C3465 1.384 . S
H3468 C3474 0.930 . S
H3469 C3478 0.930 . S
H3470 C3483 0.929 . S
H3471 C3481 0.929 . S
H3472 C3476 0.929 . S
H3473 C3482 0.929 . S
C3474 H3468 0.930 . S
C3474 C3475 1.367 . S
C3474 C3482 1.378 . S
C3475 C3474 1.367 . S
C3475 C3483 1.433 . S
C3476 H3472 0.929 . S
C3476 C3478 1.378 . S
C3476 C3480 1.350 . S
C3477 C3480 1.463 . S
C3477 C3482 1.350 . S
C3477 N3485 1.427 . S
C3478 H3469 0.930 . S
C3478 C3476 1.378 . S
C3478 C3479 1.367 . S
C3479 C3478 1.367 . S
C3479 C3481 1.433 . S
C3480 C3476 1.350 . S
C3480 C3477 1.463 . S
C3480 N3484 1.427 . S
C3481 H3471 0.929 . S
C3481 C3479 1.433 . S
C3481 N3484 1.384 . S
C3482 H3473 0.929 . S
C3482 C3474 1.378 . S
C3482 C3477 1.350 . S
C3483 H3470 0.929 . S
C3483 C3475 1.433 . S
C3483 N3485 1.384 . S
N3484 C3480 1.427 . S
N3484 C3481 1.384 . S
N3485 C3477 1.427 . S
N3485 C3483 1.384 . S
H3486 C3492 0.930 . S
H3487 C3496 0.930 . S
H3488 C3501 0.929 . S
H3489 C3499 0.929 . S
H3490 C3494 0.929 . S
H3491 C3500 0.929 . S
C3492 H3486 0.930 . S
C3492 C3493 1.367 . S
C3492 C3500 1.378 . S
C3493 C3492 1.367 . S
C3493 C3501 1.433 . S
C3494 H3490 0.929 . S
C3494 C3496 1.378 . S
C3494 C3498 1.350 . S
C3495 C3498 1.463 . S
C3495 C3500 1.350 . S
C3495 N3503 1.427 . S
C3496 H3487 0.930 . S
C3496 C3494 1.378 . S
C3496 C3497 1.367 . S
C3497 C3496 1.367 . S
C3497 C3499 1.433 . S
C3498 C3494 1.350 . S
C3498 C3495 1.463 . S
C3498 N3502 1.427 . S
C3499 H3489 0.929 . S
C3499 C3497 1.433 . S
C3499 N3502 1.384 . S
C3500 H3491 0.929 . S
C3500 C3492 1.378 . S
C3500 C3495 1.350 . S
C3501 H3488 0.929 . S
C3501 C3493 1.433 . S
C3501 N3503 1.384 . S
N3502 C3498 1.427 . S
N3502 C3499 1.384 . S
N3503 C3495 1.427 . S
N3503 C3501 1.384 . S
H3504 C3510 0.930 . S
H3505 C3514 0.930 . S
H3506 C3519 0.929 . S
H3507 C3517 0.929 . S
H3508 C3512 0.929 . S
H3509 C3518 0.929 . S
C3510 H3504 0.930 . S
C3510 C3511 1.367 . S
C3510 C3518 1.378 . S
C3511 C3510 1.367 . S
C3511 C3519 1.433 . S
C3512 H3508 0.929 . S
C3512 C3514 1.378 . S
C3512 C3516 1.350 . S
C3513 C3516 1.463 . S
C3513 C3518 1.350 . S
C3513 N3521 1.427 . S
C3514 H3505 0.930 . S
C3514 C3512 1.378 . S
C3514 C3515 1.367 . S
C3515 C3514 1.367 . S
C3515 C3517 1.433 . S
C3516 C3512 1.350 . S
C3516 C3513 1.463 . S
C3516 N3520 1.427 . S
C3517 H3507 0.929 . S
C3517 C3515 1.433 . S
C3517 N3520 1.384 . S
C3518 H3509 0.929 . S
C3518 C3510 1.378 . S
C3518 C3513 1.350 . S
C3519 H3506 0.929 . S
C3519 C3511 1.433 . S
C3519 N3521 1.384 . S
N3520 C3516 1.427 . S
N3520 C3517 1.384 . S
N3521 C3513 1.427 . S
N3521 C3519 1.384 . S
H3522 C3528 0.930 . S
H3523 C3532 0.930 . S
H3524 C3537 0.929 . S
H3525 C3535 0.929 . S
H3526 C3530 0.929 . S
H3527 C3536 0.929 . S
C3528 H3522 0.930 . S
C3528 C3529 1.367 . S
C3528 C3536 1.378 . S
C3529 C3528 1.367 . S
C3529 C3537 1.433 . S
C3530 H3526 0.929 . S
C3530 C3532 1.378 . S
C3530 C3534 1.350 . S
C3531 C3534 1.463 . S
C3531 C3536 1.350 . S
C3531 N3539 1.427 . S
C3532 H3523 0.930 . S
C3532 C3530 1.378 . S
C3532 C3533 1.367 . S
C3533 C3532 1.367 . S
C3533 C3535 1.433 . S
C3534 C3530 1.350 . S
C3534 C3531 1.463 . S
C3534 N3538 1.427 . S
C3535 H3525 0.929 . S
C3535 C3533 1.433 . S
C3535 N3538 1.384 . S
C3536 H3527 0.929 . S
C3536 C3528 1.378 . S
C3536 C3531 1.350 . S
C3537 H3524 0.929 . S
C3537 C3529 1.433 . S
C3537 N3539 1.384 . S
N3538 C3534 1.427 . S
N3538 C3535 1.384 . S
N3539 C3531 1.427 . S
N3539 C3537 1.384 . S
H3540 C3546 0.930 . S
H3541 C3550 0.930 . S
H3542 C3555 0.929 . S
H3543 C3553 0.929 . S
H3544 C3548 0.929 . S
H3545 C3554 0.929 . S
C3546 H3540 0.930 . S
C3546 C3547 1.367 . S
C3546 C3554 1.378 . S
C3547 C3546 1.367 . S
C3547 C3555 1.433 . S
C3548 H3544 0.929 . S
C3548 C3550 1.378 . S
C3548 C3552 1.350 . S
C3549 C3552 1.463 . S
C3549 C3554 1.350 . S
C3549 N3557 1.427 . S
C3550 H3541 0.930 . S
C3550 C3548 1.378 . S
C3550 C3551 1.367 . S
C3551 C3550 1.367 . S
C3551 C3553 1.433 . S
C3552 C3548 1.350 . S
C3552 C3549 1.463 . S
C3552 N3556 1.427 . S
C3553 H3543 0.929 . S
C3553 C3551 1.433 . S
C3553 N3556 1.384 . S
C3554 H3545 0.929 . S
C3554 C3546 1.378 . S
C3554 C3549 1.350 . S
C3555 H3542 0.929 . S
C3555 C3547 1.433 . S
C3555 N3557 1.384 . S
N3556 C3552 1.427 . S
N3556 C3553 1.384 . S
N3557 C3549 1.427 . S
N3557 C3555 1.384 . S
H3558 C3564 0.930 . S
H3559 C3568 0.930 . S
H3560 C3573 0.929 . S
H3561 C3571 0.929 . S
H3562 C3566 0.929 . S
H3563 C3572 0.929 . S
C3564 H3558 0.930 . S
C3564 C3565 1.367 . S
C3564 C3572 1.378 . S
C3565 C3564 1.367 . S
C3565 C3573 1.433 . S
C3566 H3562 0.929 . S
C3566 C3568 1.378 . S
C3566 C3570 1.350 . S
C3567 C3570 1.463 . S
C3567 C3572 1.350 . S
C3567 N3575 1.427 . S
C3568 H3559 0.930 . S
C3568 C3566 1.378 . S
C3568 C3569 1.367 . S
C3569 C3568 1.367 . S
C3569 C3571 1.433 . S
C3570 C3566 1.350 . S
C3570 C3567 1.463 . S
C3570 N3574 1.427 . S
C3571 H3561 0.929 . S
C3571 C3569 1.433 . S
C3571 N3574 1.384 . S
C3572 H3563 0.929 . S
C3572 C3564 1.378 . S
C3572 C3567 1.350 . S
C3573 H3560 0.929 . S
C3573 C3565 1.433 . S
C3573 N3575 1.384 . S
N3574 C3570 1.427 . S
N3574 C3571 1.384 . S
N3575 C3567 1.427 . S
N3575 C3573 1.384 . S
H3576 C3582 0.930 . S
H3577 C3586 0.930 . S
H3578 C3591 0.929 . S
H3579 C3589 0.929 . S
H3580 C3584 0.929 . S
H3581 C3590 0.929 . S
C3582 H3576 0.930 . S
C3582 C3583 1.367 . S
C3582 C3590 1.378 . S
C3583 C3582 1.367 . S
C3583 C3591 1.433 . S
C3584 H3580 0.929 . S
C3584 C3586 1.378 . S
C3584 C3588 1.350 . S
C3585 C3588 1.463 . S
C3585 C3590 1.350 . S
C3585 N3593 1.427 . S
C3586 H3577 0.930 . S
C3586 C3584 1.378 . S
C3586 C3587 1.367 . S
C3587 C3586 1.367 . S
C3587 C3589 1.433 . S
C3588 C3584 1.350 . S
C3588 C3585 1.463 . S
C3588 N3592 1.427 . S
C3589 H3579 0.929 . S
C3589 C3587 1.433 . S
C3589 N3592 1.384 . S
C3590 H3581 0.929 . S
C3590 C3582 1.378 . S
C3590 C3585 1.350 . S
C3591 H3578 0.929 . S
C3591 C3583 1.433 . S
C3591 N3593 1.384 . S
N3592 C3588 1.427 . S
N3592 C3589 1.384 . S
N3593 C3585 1.427 . S
N3593 C3591 1.384 . S
H3594 C3600 0.930 . S
H3595 C3604 0.930 . S
H3596 C3609 0.929 . S
H3597 C3607 0.929 . S
H3598 C3602 0.929 . S
H3599 C3608 0.929 . S
C3600 H3594 0.930 . S
C3600 C3601 1.367 . S
C3600 C3608 1.378 . S
C3601 C3600 1.367 . S
C3601 C3609 1.433 . S
C3602 H3598 0.929 . S
C3602 C3604 1.378 . S
C3602 C3606 1.350 . S
C3603 C3606 1.463 . S
C3603 C3608 1.350 . S
C3603 N3611 1.427 . S
C3604 H3595 0.930 . S
C3604 C3602 1.378 . S
C3604 C3605 1.367 . S
C3605 C3604 1.367 . S
C3605 C3607 1.433 . S
C3606 C3602 1.350 . S
C3606 C3603 1.463 . S
C3606 N3610 1.427 . S
C3607 H3597 0.929 . S
C3607 C3605 1.433 . S
C3607 N3610 1.384 . S
C3608 H3599 0.929 . S
C3608 C3600 1.378 . S
C3608 C3603 1.350 . S
C3609 H3596 0.929 . S
C3609 C3601 1.433 . S
C3609 N3611 1.384 . S
N3610 C3606 1.427 . S
N3610 C3607 1.384 . S
N3611 C3603 1.427 . S
N3611 C3609 1.384 . S
H3612 C3618 0.930 . S
H3613 C3622 0.930 . S
H3614 C3627 0.929 . S
H3615 C3625 0.929 . S
H3616 C3620 0.929 . S
H3617 C3626 0.929 . S
C3618 H3612 0.930 . S
C3618 C3619 1.367 . S
C3618 C3626 1.378 . S
C3619 C3618 1.367 . S
C3619 C3627 1.433 . S
C3620 H3616 0.929 . S
C3620 C3622 1.378 . S
C3620 C3624 1.350 . S
C3621 C3624 1.463 . S
C3621 C3626 1.350 . S
C3621 N3629 1.427 . S
C3622 H3613 0.930 . S
C3622 C3620 1.378 . S
C3622 C3623 1.367 . S
C3623 C3622 1.367 . S
C3623 C3625 1.433 . S
C3624 C3620 1.350 . S
C3624 C3621 1.463 . S
C3624 N3628 1.427 . S
C3625 H3615 0.929 . S
C3625 C3623 1.433 . S
C3625 N3628 1.384 . S
C3626 H3617 0.929 . S
C3626 C3618 1.378 . S
C3626 C3621 1.350 . S
C3627 H3614 0.929 . S
C3627 C3619 1.433 . S
C3627 N3629 1.384 . S
N3628 C3624 1.427 . S
N3628 C3625 1.384 . S
N3629 C3621 1.427 . S
N3629 C3627 1.384 . S
H3630 C3636 0.930 . S
H3631 C3640 0.930 . S
H3632 C3645 0.929 . S
H3633 C3643 0.929 . S
H3634 C3638 0.929 . S
H3635 C3644 0.929 . S
C3636 H3630 0.930 . S
C3636 C3637 1.367 . S
C3636 C3644 1.378 . S
C3637 C3636 1.367 . S
C3637 C3645 1.433 . S
C3638 H3634 0.929 . S
C3638 C3640 1.378 . S
C3638 C3642 1.350 . S
C3639 C3642 1.463 . S
C3639 C3644 1.350 . S
C3639 N3647 1.427 . S
C3640 H3631 0.930 . S
C3640 C3638 1.378 . S
C3640 C3641 1.367 . S
C3641 C3640 1.367 . S
C3641 C3643 1.433 . S
C3642 C3638 1.350 . S
C3642 C3639 1.463 . S
C3642 N3646 1.427 . S
C3643 H3633 0.929 . S
C3643 C3641 1.433 . S
C3643 N3646 1.384 . S
C3644 H3635 0.929 . S
C3644 C3636 1.378 . S
C3644 C3639 1.350 . S
C3645 H3632 0.929 . S
C3645 C3637 1.433 . S
C3645 N3647 1.384 . S
N3646 C3642 1.427 . S
N3646 C3643 1.384 . S
N3647 C3639 1.427 . S
N3647 C3645 1.384 . S
C1063 C9 1.356 . S
C1067 C72 1.364 . S
C1081 C6 1.358 . S
C1085 C27 1.361 . S
C1099 C29 1.364 . S
C1103 C49 1.355 . S
C1117 C51 1.355 . S
C1121 C75 1.364 . S
C1135 C93 1.364 . S
C1139 C117 1.355 . S
C1153 C115 1.355 . S
C1157 C138 1.364 . S
C1171 C141 1.357 . S
C1175 C160 1.362 . S
C1189 C163 1.356 . S
C1193 C95 1.363 . S
C1207 C185 1.364 . S
C1211 C402 1.355 . S
C1225 C425 1.356 . S
C1229 C207 1.363 . S
C1243 C447 1.362 . S
C1247 C225 1.357 . S
C1261 C381 1.364 . S
C1265 C247 1.355 . S
C1279 C273 1.364 . S
C1283 C490 1.355 . S
C1297 C295 1.357 . S
C1301 C359 1.362 . S
C1315 C313 1.355 . S
C1319 C513 1.364 . S
C1333 C339 1.362 . S
C1337 C468 1.358 . S
C1351 C204 1.355 . S
C1355 C357 1.364 . S
C1369 C379 1.363 . S
C1373 C336 1.356 . S
C1387 C405 1.364 . S
C1391 C270 1.355 . S
C1405 C423 1.355 . S
C1409 C292 1.364 . S
C1423 C445 1.356 . S
C1427 C315 1.363 . S
C1441 C249 1.364 . S
C1445 C471 1.356 . S
C1459 C493 1.364 . S
C1463 C182 1.355 . S
C1477 C511 1.356 . S
C1481 C227 1.363 . S
C1495 C600 1.364 . S
C1499 C537 1.356 . S
C1513 C555 1.361 . S
C1517 C534 1.358 . S
C1531 C557 1.362 . S
C1535 C577 1.357 . S
C1549 C603 1.364 . S
C1553 C579 1.355 . S
C1567 C621 1.361 . S
C1571 C645 1.359 . S
C1585 C643 1.355 . S
C1589 C666 1.364 . S
C1603 C669 1.355 . S
C1607 C688 1.364 . S
C1621 C623 1.358 . S
C1625 C691 1.362 . S
C1639 C930 1.364 . S
C1643 C713 1.355 . S
C1657 C735 1.359 . S
C1661 C953 1.360 . S
C1675 C975 1.356 . S
C1679 C753 1.364 . S
C1693 C909 1.359 . S
C1697 C775 1.360 . S
C1711 C801 1.364 . S
C1715 C1018 1.355 . S
C1729 C823 1.361 . S
C1733 C887 1.358 . S
C1747 C1041 1.357 . S
C1751 C841 1.362 . S
C1765 C867 1.358 . S
C1769 C996 1.361 . S
C1783 C732 1.356 . S
C1787 C885 1.364 . S
C1801 C864 1.364 . S
C1805 C907 1.356 . S
C1819 C933 1.356 . S
C1823 C798 1.364 . S
C1837 C951 1.355 . S
C1841 C820 1.364 . S
C1855 C973 1.364 . S
C1859 C843 1.355 . S
C1873 C999 1.364 . S
C1877 C777 1.355 . S
C1891 C710 1.362 . S
C1895 C1021 1.358 . S
C1909 C1039 1.364 . S
C1913 C755 1.356 . S
C1927 C4 1.260 . S
C1931 C356 1.265 . S
C1945 C510 1.257 . S
C1949 C30 1.269 . S
C1963 C52 1.257 . S
C1967 C470 1.269 . S
C1981 C70 1.271 . S
C1985 C492 1.255 . S
C1999 C96 1.255 . S
C2003 C378 1.270 . S
C2017 C404 1.261 . S
C2021 C118 1.265 . S
C2035 C136 1.262 . S
C2039 C422 1.264 . S
C2053 C444 1.272 . S
C2057 C158 1.254 . S
C2071 C180 1.270 . S
C2075 C8 1.256 . S
C2089 C202 1.262 . S
C2093 C26 1.264 . S
C2107 C228 1.272 . S
C2111 C48 1.254 . S
C2125 C250 1.259 . S
C2129 C74 1.266 . S
C2143 C92 1.256 . S
C2147 C268 1.270 . S
C2161 C290 1.262 . S
C2165 C114 1.263 . S
C2179 C316 1.254 . S
C2183 C140 1.272 . S
C2197 C334 1.265 . S
C2201 C162 1.261 . S
C2215 C184 1.254 . S
C2219 C360 1.271 . S
C2233 C382 1.258 . S
C2237 C272 1.268 . S
C2251 C400 1.271 . S
C2255 C294 1.254 . S
C2269 C312 1.270 . S
C2273 C426 1.256 . S
C2287 C338 1.267 . S
C2291 C448 1.258 . S
C2305 C466 1.270 . S
C2309 C224 1.256 . S
C2323 C488 1.267 . S
C2327 C246 1.259 . S
C2341 C514 1.266 . S
C2345 C206 1.260 . S
C2359 C884 1.271 . S
C2363 C532 1.255 . S
C2377 C558 1.255 . S
C2381 C1038 1.271 . S
C2395 C580 1.258 . S
C2399 C998 1.267 . S
C2413 C1020 1.268 . S
C2417 C598 1.258 . S
C2431 C906 1.256 . S
C2435 C624 1.270 . S
C2449 C646 1.256 . S
C2453 C932 1.270 . S
C2467 C950 1.255 . S
C2471 C664 1.270 . S
C2485 C972 1.255 . S
C2489 C686 1.271 . S
C2503 C536 1.254 . S
C2507 C708 1.272 . S
C2521 C554 1.270 . S
C2525 C730 1.256 . S
C2539 C576 1.262 . S
C2543 C756 1.264 . S
C2557 C602 1.270 . S
C2561 C778 1.256 . S
C2575 C620 1.255 . S
C2579 C796 1.270 . S
C2593 C642 1.255 . S
C2597 C818 1.270 . S
C2611 C668 1.272 . S
C2615 C844 1.254 . S
C2629 C862 1.256 . S
C2633 C690 1.270 . S
C2647 C888 1.255 . S
C2651 C712 1.271 . S
C2665 C910 1.272 . S
C2669 C800 1.254 . S
C2683 C928 1.254 . S
C2687 C822 1.272 . S
C2701 C954 1.267 . S
C2705 C840 1.259 . S
C2719 C976 1.264 . S
C2723 C866 1.262 . S
C2737 C994 1.255 . S
C2741 C752 1.270 . S
C2755 C1016 1.255 . S
C2759 C774 1.271 . S
C2773 C734 1.256 . S
C2777 C1042 1.269 . S
C2791 C5 0.846 . S
C2795 C977 0.843 . S
C2809 C911 0.860 . S
C2813 C31 0.841 . S
C2827 C929 0.857 . S
C2831 C53 0.835 . S
C2845 C71 0.861 . S
C2849 C955 0.840 . S
C2863 C1043 0.859 . S
C2867 C97 0.835 . S
C2881 C995 0.837 . S
C2885 C119 0.862 . S
C2899 C1017 0.861 . S
C2903 C137 0.836 . S
C2917 C159 0.838 . S
C2921 C889 0.861 . S
C2935 C181 0.835 . S
C2939 C863 0.858 . S
C2953 C797 0.861 . S
C2957 C203 0.835 . S
C2971 C819 0.841 . S
C2975 C229 0.860 . S
C2989 C845 0.836 . S
C2993 C251 0.855 . S
C3007 C269 0.835 . S
C3011 C731 0.860 . S
C3025 C291 0.841 . S
C3029 C757 0.848 . S
C3043 C317 0.861 . S
C3047 C779 0.835 . S
C3061 C709 0.861 . S
C3065 C335 0.835 . S
C3079 C361 0.855 . S
C3083 C687 0.848 . S
C3097 C383 0.846 . S
C3101 C559 0.843 . S
C3115 C401 0.834 . S
C3119 C581 0.859 . S
C3133 C427 0.851 . S
C3137 C599 0.838 . S
C3151 C449 0.858 . S
C3155 C533 0.845 . S
C3169 C647 0.848 . S
C3173 C467 0.855 . S
C3187 C489 0.834 . S
C3191 C665 0.859 . S
C3205 C515 0.835 . S
C3209 C625 0.861 . S
C3223 C161 0.861 . S
C3227 C711 0.837 . S
C3241 C733 0.835 . S
C3245 C94 0.861 . S
C3259 C116 0.835 . S
C3263 C754 0.861 . S
C3277 C139 0.862 . S
C3281 C776 0.836 . S
C3295 C28 0.860 . S
C3299 C799 0.834 . S
C3313 C821 0.861 . S
C3317 C50 0.837 . S
C3331 C73 0.835 . S
C3335 C842 0.861 . S
C3349 C7 0.835 . S
C3353 C865 0.859 . S
C3367 C446 0.855 . S
C3371 C886 0.849 . S
C3385 C1040 0.842 . S
C3389 C380 0.847 . S
C3403 C997 0.861 . S
C3407 C403 0.836 . S
C3421 C424 0.859 . S
C3425 C1019 0.834 . S
C3439 C512 0.843 . S
C3443 C908 0.846 . S
C3457 C469 0.858 . S
C3461 C931 0.835 . S
C3475 C952 0.860 . S
C3479 C491 0.834 . S
C3493 C974 0.855 . S
C3497 C358 0.848 . S
C3511 C337 0.862 . S
C3515 C535 0.837 . S
C3529 C205 0.860 . S
C3533 C622 0.841 . S
C3547 C644 0.861 . S
C3551 C226 0.835 . S
C3565 C248 0.836 . S
C3569 C667 0.861 . S
C3583 C183 0.852 . S
C3587 C689 0.851 . S
C3601 C293 0.862 . S
C3605 C578 0.836 . S
C3619 C314 0.862 . S
C3623 C601 0.836 . S
C3637 C556 0.837 . S
C3641 C271 0.862 . S
