# Generated by pormake.
# Topology sra, (4)-cn, num edge types: 1
# Building blocks:
#     Node 0, Type 0, BuildingBlock: UXUYUI_clean_sbu_0, # of connection points: 4
#     Node 1, Type 0, BuildingBlock: UXUYUI_clean_sbu_0, # of connection points: 4
#     Node 2, Type 0, BuildingBlock: UXUYUI_clean_sbu_0, # of connection points: 4
#     Node 3, Type 0, BuildingBlock: UXUYUI_clean_sbu_0, # of connection points: 4
#     Node 4, Type 0, BuildingBlock: UXUYUI_clean_sbu_0, # of connection points: 4
#     Node 5, Type 0, BuildingBlock: UXUYUI_clean_sbu_0, # of connection points: 4
#     Node 6, Type 0, BuildingBlock: UXUYUI_clean_sbu_0, # of connection points: 4
#     Node 7, Type 0, BuildingBlock: UXUYUI_clean_sbu_0, # of connection points: 4
#     Edge 8, Type (0, 0), BuildingBlock: ZUJKAS_clean_linker_0, # of connection points: 2
#     Edge 9, Type (0, 0), BuildingBlock: ZUJKAS_clean_linker_0, # of connection points: 2
#     Edge 10, Type (0, 0), BuildingBlock: ZUJKAS_clean_linker_0, # of connection points: 2
#     Edge 11, Type (0, 0), BuildingBlock: ZUJKAS_clean_linker_0, # of connection points: 2
#     Edge 12, Type (0, 0), BuildingBlock: ZUJKAS_clean_linker_0, # of connection points: 2
#     Edge 13, Type (0, 0), BuildingBlock: ZUJKAS_clean_linker_0, # of connection points: 2
#     Edge 14, Type (0, 0), BuildingBlock: ZUJKAS_clean_linker_0, # of connection points: 2
#     Edge 15, Type (0, 0), BuildingBlock: ZUJKAS_clean_linker_0, # of connection points: 2
#     Edge 16, Type (0, 0), BuildingBlock: ZUJKAS_clean_linker_0, # of connection points: 2
#     Edge 17, Type (0, 0), BuildingBlock: ZUJKAS_clean_linker_0, # of connection points: 2
#     Edge 18, Type (0, 0), BuildingBlock: ZUJKAS_clean_linker_0, # of connection points: 2
#     Edge 19, Type (0, 0), BuildingBlock: ZUJKAS_clean_linker_0, # of connection points: 2
#     Edge 20, Type (0, 0), BuildingBlock: ZUJKAS_clean_linker_0, # of connection points: 2
#     Edge 21, Type (0, 0), BuildingBlock: ZUJKAS_clean_linker_0, # of connection points: 2
#     Edge 22, Type (0, 0), BuildingBlock: ZUJKAS_clean_linker_0, # of connection points: 2
#     Edge 23, Type (0, 0), BuildingBlock: ZUJKAS_clean_linker_0, # of connection points: 2
# Relax obj value: 0.133
# Max RMSD: 0.099
# Mean RMSD: 0.099
data_MOF--net-sra--node1-UXUYUI_clean_sbu_0--edge1-ZUJKAS_clean_linker_0
_symmetry_space_group_name_H-M    P1
_symmetry_Int_Tables_number       1
_symmetry_cell_setting            triclinic
loop_
_symmetry_equiv_pos_as_xyz
'x, y, z'
_cell_length_a     45.424639
_cell_length_b     75.73529
_cell_length_c     75.450542
_cell_angle_alpha  90.009043
_cell_angle_beta   89.998268
_cell_angle_gamma 90.001428
loop_
_atom_site_label
_atom_site_type_symbol
_atom_site_fract_x
_atom_site_fract_y
_atom_site_fract_z
_atom_type_partial_charge
Li0 Li 0.99885 0.0941 0.15719 0.0
Li1 Li 0.0253 0.06957 0.17134 0.0
Li2 Li 0.99745 0.0657 0.14267 0.0
Li3 Li 0.97088 0.06872 0.17066 0.0
C4 C 0.05064 0.09297 0.1404 0.0
N5 N 0.0862 0.11888 0.12598 0.0
C6 C 0.07749 0.09721 0.14839 0.0
C7 C 0.04211 0.10173 0.12492 0.0
C8 C 0.0951 0.11039 0.14093 0.0
C9 C 0.06031 0.11484 0.11789 0.0
C10 C 0.00125 0.08927 0.19995 0.0
C11 C 0.99879 0.07939 0.23031 0.0
N12 N 0.00959 0.09524 0.23575 0.0
C13 C 0.01191 0.10556 0.20586 0.0
C14 C 0.99431 0.07616 0.21229 0.0
C15 C 0.01615 0.10828 0.224 0.0
C16 C 0.9763 0.12726 0.14633 0.0
N17 N 0.99937 0.11903 0.15427 0.0
C18 C 0.02346 0.14663 0.15916 0.0
C19 C 0.02267 0.12829 0.16069 0.0
C20 C -0.00014 0.15558 0.15113 0.0
C21 C 0.97609 0.14562 0.14459 0.0
H22 H 0.95785 0.11959 0.14158 0.0
H23 H 0.04058 0.12142 0.16712 0.0
C24 C 0.07202 0.04754 0.18347 0.0
N25 N 0.05988 0.06393 0.18442 0.0
C26 C 0.09816 0.0438 0.19252 0.0
C27 C 0.0988 0.07389 0.2032 0.0
C28 C 0.07276 0.07703 0.19397 0.0
C29 C 0.11202 0.05714 0.20244 0.0
H30 H 0.06165 0.03746 0.17547 0.0
H31 H 0.06324 0.09008 0.19404 0.0
C32 C 0.94533 0.07965 0.13382 0.0
N33 N 0.90894 0.07523 0.10479 0.0
C34 C 0.9202 0.06908 0.1351 0.0
C35 C 0.9517 0.08819 0.11785 0.0
C36 C 0.90213 0.06696 0.12026 0.0
C37 C 0.93312 0.08572 0.1033 0.0
C38 C 0.99322 0.03393 0.17166 0.0
C39 C 0.97979 0.02036 0.16205 0.0
C40 C 0.00115 0.03105 0.18932 0.0
C41 C 0.9738 0.0043 0.17041 0.0
C42 C 0.99483 0.0148 0.19721 0.0
N43 N 0.98134 0.00188 0.18768 0.0
C44 C 0.02024 0.05726 0.10892 0.0
C45 C 0.97481 0.04341 0.11559 0.0
C46 C 0.02054 0.04958 0.09211 0.0
N47 N 0.99746 0.05421 0.12019 0.0
C48 C 0.97419 0.03545 0.0989 0.0
C49 C 0.99722 0.03857 0.08686 0.0
H50 H 0.03814 0.06574 0.11294 0.0
H51 H 0.9571 0.04104 0.12484 0.0
C52 C 0.92589 0.07562 0.19488 0.0
N53 N 0.9362 0.06299 0.18369 0.0
C54 C 0.90018 0.0728 0.20457 0.0
C55 C 0.89552 0.04418 0.19068 0.0
C56 C 0.92155 0.04749 0.18137 0.0
C57 C 0.88458 0.05693 0.20248 0.0
H58 H 0.93749 0.08802 0.19613 0.0
H59 H 0.9296 0.03788 0.17201 0.0
O60 O 0.03292 0.08025 0.14763 0.0
O61 O 0.99704 0.08639 0.1822 0.0
O62 O 0.96347 0.0817 0.14815 0.0
O63 O 0.99926 0.04974 0.16364 0.0
H64 H 0.08466 0.09043 0.16022 0.0
H65 H 0.0216 0.09849 0.11846 0.0
H66 H 0.11586 0.11386 0.14704 0.0
H67 H 0.05385 0.1218 0.10599 0.0
H68 H 0.99355 0.06933 0.23998 0.0
H69 H 0.01704 0.11596 0.19656 0.0
H70 H 0.9851 0.06372 0.20804 0.0
H71 H 0.02461 0.12077 0.22874 0.0
H72 H 0.04241 0.15372 0.1642 0.0
H73 H 0.95721 0.15196 0.13857 0.0
H74 H 0.10782 0.03078 0.19136 0.0
H75 H 0.10855 0.08453 0.21078 0.0
H76 H 0.9148 0.06247 0.14736 0.0
H77 H 0.9708 0.09659 0.11668 0.0
H78 H 0.88272 0.05872 0.12104 0.0
H79 H 0.93791 0.09215 0.09083 0.0
H80 H 0.97387 0.02223 0.14831 0.0
H81 H 0.01243 0.04114 0.19681 0.0
H82 H 0.96319 0.99374 0.16316 0.0
H83 H 0.00077 0.01244 0.21089 0.0
H84 H 0.03862 0.05248 0.08322 0.0
H85 H 0.95599 0.02685 0.09553 0.0
H86 H 0.89217 0.08312 0.21327 0.0
H87 H 0.88409 0.03179 0.18866 0.0
Li88 Li 0.9991 0.43521 0.14307 0.0
Li89 Li 0.02769 0.43209 0.17027 0.0
Li90 Li 0.99901 0.4069 0.15743 0.0
Li91 Li 0.97337 0.43127 0.17236 0.0
C92 C 0.05098 0.42204 0.13304 0.0
N93 N 0.08584 0.42795 0.10362 0.0
C94 C 0.07644 0.43231 0.13447 0.0
C95 C 0.04343 0.41461 0.1167 0.0
C96 C 0.09374 0.43517 0.11943 0.0
C97 C 0.06127 0.41781 0.10196 0.0
C98 C 0.00316 0.46716 0.1719 0.0
C99 C 0.99903 0.4866 0.19712 0.0
N100 N 0.01116 0.49988 0.18743 0.0
C101 C 0.01521 0.48108 0.16213 0.0
C102 C 0.99468 0.47 0.18948 0.0
C103 C 0.01923 0.49748 0.17024 0.0
C104 C 0.97476 0.44363 0.10967 0.0
N105 N 0.99774 0.44686 0.12074 0.0
C106 C 0.02037 0.46558 0.09921 0.0
C107 C 0.0201 0.4578 0.11596 0.0
C108 C 0.99721 0.46223 0.08735 0.0
C109 C 0.97403 0.45124 0.09282 0.0
H110 H 0.95715 0.43499 0.11384 0.0
H111 H 0.038 0.46025 0.12506 0.0
C112 C 0.0772 0.42328 0.18959 0.0
N113 N 0.06327 0.43745 0.18241 0.0
C114 C 0.10372 0.42542 0.19862 0.0
C115 C 0.10134 0.45674 0.19261 0.0
C116 C 0.0748 0.45398 0.18365 0.0
C117 C 0.11618 0.44232 0.2002 0.0
H118 H 0.0676 0.41028 0.18828 0.0
H119 H 0.06374 0.46499 0.17754 0.0
C120 C 0.94624 0.40732 0.14293 0.0
N121 N 0.91081 0.38 0.13135 0.0
C122 C 0.92154 0.40232 0.15277 0.0
C123 C 0.95273 0.39856 0.12709 0.0
C124 C 0.90394 0.38845 0.14671 0.0
C125 C 0.93461 0.38473 0.1215 0.0
C126 C 0.00308 0.41197 0.20037 0.0
C127 C 0.99639 0.39544 0.20757 0.0
C128 C 0.01124 0.4258 0.21161 0.0
C129 C 0.99742 0.39313 0.22593 0.0
C130 C 0.01207 0.42296 0.22989 0.0
N131 N 0.00516 0.40683 0.23662 0.0
C132 C 0.01893 0.37403 0.14401 0.0
C133 C 0.97742 0.37249 0.16299 0.0
C134 C 0.01883 0.35571 0.14193 0.0
N135 N 0.99839 0.38199 0.15439 0.0
C136 C 0.97639 0.35416 0.16121 0.0
C137 C 0.99736 0.34553 0.15062 0.0
H138 H 0.03552 0.38189 0.13745 0.0
H139 H 0.96157 0.37916 0.17132 0.0
C140 C 0.92494 0.45228 0.18281 0.0
N141 N 0.93982 0.43708 0.1862 0.0
C142 C 0.89935 0.45633 0.19225 0.0
C143 C 0.90502 0.42903 0.20849 0.0
C144 C 0.93035 0.42548 0.19869 0.0
C145 C 0.88906 0.44458 0.20527 0.0
H146 H 0.93281 0.46116 0.17263 0.0
H147 H 0.94197 0.41322 0.20073 0.0
O148 O 0.03358 0.41927 0.14757 0.0
O149 O 0.9989 0.45104 0.16408 0.0
O150 O 0.96404 0.42066 0.1488 0.0
O151 O 0.00224 0.4144 0.18239 0.0
H152 H 0.08266 0.43812 0.14701 0.0
H153 H 0.02384 0.4066 0.11537 0.0
H154 H 0.11342 0.44316 0.12032 0.0
H155 H 0.05556 0.41227 0.08921 0.0
H156 H 0.99264 0.48894 0.21073 0.0
H157 H 0.02155 0.47923 0.14845 0.0
H158 H 0.98452 0.4596 0.19712 0.0
H159 H 0.02873 0.50832 0.16286 0.0
H160 H 0.03847 0.47417 0.0956 0.0
H161 H 0.95585 0.44823 0.08404 0.0
H162 H 0.11422 0.41397 0.20444 0.0
H163 H 0.11039 0.46995 0.19331 0.0
H164 H 0.91611 0.409 0.165 0.0
H165 H 0.97171 0.40228 0.1193 0.0
H166 H 0.88485 0.38438 0.15424 0.0
H167 H 0.93951 0.37775 0.10934 0.0
H168 H 0.99036 0.38452 0.19908 0.0
H169 H 0.01732 0.43851 0.20629 0.0
H170 H 0.99213 0.38044 0.23168 0.0
H171 H 0.01835 0.43357 0.23872 0.0
H172 H 0.03528 0.34958 0.13355 0.0
H173 H 0.95974 0.34681 0.16836 0.0
H174 H 0.88771 0.46849 0.18939 0.0
H175 H 0.8975 0.41941 0.2181 0.0
Li176 Li 0.99972 0.93391 0.85692 0.0
Li177 Li 0.9739 0.93135 0.82847 0.0
Li178 Li 0.001 0.90544 0.84192 0.0
Li179 Li 0.02807 0.92996 0.82837 0.0
C180 C 0.94625 0.91913 0.86454 0.0
N181 N 0.90669 0.92103 0.89231 0.0
C182 C 0.92124 0.9298 0.86319 0.0
C183 C 0.95086 0.9092 0.8799 0.0
C184 C 0.90158 0.93064 0.8774 0.0
C185 C 0.9307 0.9104 0.89383 0.0
C186 C 0.99503 0.96602 0.82904 0.0
C187 C 0.99163 0.9859 0.80414 0.0
N188 N 0.97972 0.99841 0.8149 0.0
C189 C 0.9831 0.97916 0.83989 0.0
C190 C 0.99965 0.96948 0.81106 0.0
C191 C 0.97538 0.99542 0.83248 0.0
C192 C 0.02285 0.94328 0.8904 0.0
N193 N 0.99921 0.94517 0.87952 0.0
C194 C 0.97444 0.96274 0.90121 0.0
C195 C 0.9754 0.95485 0.88451 0.0
C196 C 0.99832 0.96075 0.91287 0.0
C197 C 0.02284 0.95093 0.90723 0.0
H198 H 0.04181 0.93587 0.886 0.0
H199 H 0.95711 0.95646 0.87551 0.0
C200 C 0.92942 0.92525 0.80371 0.0
N201 N 0.93966 0.93758 0.81525 0.0
C202 C 0.90369 0.9283 0.79409 0.0
C203 C 0.8993 0.9567 0.80845 0.0
C204 C 0.92515 0.95308 0.81781 0.0
C205 C 0.88815 0.94417 0.79646 0.0
H206 H 0.94101 0.91287 0.80221 0.0
H207 H 0.93313 0.96247 0.82743 0.0
C208 C 0.05158 0.90679 0.86084 0.0
N209 N 0.08511 0.882 0.87858 0.0
C210 C 0.07929 0.90201 0.85437 0.0
C211 C 0.04114 0.89915 0.87648 0.0
C212 C 0.09586 0.88941 0.86349 0.0
C213 C 0.05835 0.88659 0.88522 0.0
C214 C 0.00721 0.91044 0.79968 0.0
C215 C 0.02085 0.8946 0.7949 0.0
C216 C 0.00084 0.92297 0.78663 0.0
C217 C 0.02864 0.89176 0.77721 0.0
C218 C 0.00893 0.91964 0.76909 0.0
N219 N 0.0226 0.90425 0.76478 0.0
C220 C 0.97563 0.87245 0.85045 0.0
C221 C 0.02488 0.87097 0.8402 0.0
C222 C 0.97441 0.85408 0.85193 0.0
N223 N 0.00061 0.88047 0.84468 0.0
C224 C 0.02468 0.8526 0.84153 0.0
C225 C 0.99912 0.84389 0.84735 0.0
H226 H 0.95645 0.88029 0.85359 0.0
H227 H 0.0443 0.87765 0.83536 0.0
C228 C 0.0724 0.95245 0.81388 0.0
N229 N 0.06288 0.9355 0.81546 0.0
C230 C 0.09799 0.95624 0.8043 0.0
C231 C 0.10368 0.92504 0.79848 0.0
C232 C 0.07812 0.92188 0.80819 0.0
C233 C 0.11388 0.94242 0.79636 0.0
H234 H 0.06023 0.96303 0.82011 0.0
H235 H 0.07067 0.90848 0.81017 0.0
O236 O 0.9658 0.91819 0.85076 0.0
O237 O 0.00253 0.94998 0.83607 0.0
O238 O 0.03489 0.91899 0.85199 0.0
O239 O 0.99964 0.91349 0.81697 0.0
H240 H 0.91717 0.93746 0.85137 0.0
H241 H 0.9697 0.90058 0.88104 0.0
H242 H 0.88225 0.93895 0.87658 0.0
H243 H 0.93409 0.90285 0.90582 0.0
H244 H 0.99499 0.98871 0.79024 0.0
H245 H 0.97973 0.97683 0.85387 0.0
H246 H 0.00959 0.95967 0.80257 0.0
H247 H 0.96594 0.00566 0.84071 0.0
H248 H 0.95502 0.97011 0.90504 0.0
H249 H 0.04196 0.94935 0.91565 0.0
H250 H 0.89562 0.9181 0.78528 0.0
H251 H 0.88812 0.96913 0.81067 0.0
H252 H 0.08792 0.90795 0.84243 0.0
H253 H 0.02002 0.90292 0.88184 0.0
H254 H 0.11727 0.88552 0.85857 0.0
H255 H 0.05045 0.88052 0.89729 0.0
H256 H 0.02563 0.88465 0.80475 0.0
H257 H 0.98949 0.93505 0.78997 0.0
H258 H 0.03946 0.87963 0.77337 0.0
H259 H 0.00422 0.92926 0.75888 0.0
H260 H 0.95408 0.84793 0.85618 0.0
H261 H 0.04434 0.84531 0.83802 0.0
H262 H 0.10508 0.96983 0.80299 0.0
H263 H 0.11564 0.91396 0.79297 0.0
Li264 Li 0.97217 0.5673 0.82773 0.0
Li265 Li 0.99905 0.5925 0.84126 0.0
Li266 Li 0.02593 0.56731 0.82922 0.0
Li267 Li 0.99909 0.56483 0.85661 0.0
C268 C 0.01585 0.58869 0.80203 0.0
N269 N 0.05129 0.59721 0.77353 0.0
C270 C 0.03342 0.60384 0.80255 0.0
C271 C 0.01611 0.57796 0.78696 0.0
C272 C 0.05122 0.6079 0.78801 0.0
C273 C 0.03425 0.58246 0.77271 0.0
C274 C 0.9464 0.59312 0.85549 0.0
C275 C 0.93446 0.61729 0.87503 0.0
N276 N 0.91154 0.6217 0.86431 0.0
C277 C 0.92266 0.59784 0.8447 0.0
C278 C 0.95228 0.60285 0.87083 0.0
C279 C 0.9053 0.61234 0.84938 0.0
C280 C 0.91888 0.54903 0.82191 0.0
N281 N 0.93805 0.5609 0.8149 0.0
C282 C 0.9074 0.56492 0.78954 0.0
C283 C 0.93292 0.56881 0.79905 0.0
C284 C 0.88693 0.55286 0.79649 0.0
C285 C 0.89297 0.5448 0.81288 0.0
H286 H 0.92362 0.54301 0.83459 0.0
H287 H 0.94847 0.57834 0.79392 0.0
C288 C 0.0171 0.62577 0.8548 0.0
N289 N 0.9984 0.61752 0.84345 0.0
C290 C 0.01651 0.64412 0.85649 0.0
C291 C 0.97765 0.64513 0.83461 0.0
C292 C 0.97908 0.62677 0.8333 0.0
C293 C 0.99653 0.65404 0.84634 0.0
H294 H 0.03253 0.61812 0.86251 0.0
H295 H 0.9648 0.61984 0.82417 0.0
C296 C 0.00165 0.53258 0.82723 0.0
N297 N 0.00715 0.50102 0.80912 0.0
C298 C 0.01415 0.51789 0.83554 0.0
C299 C 0.99178 0.53118 0.80973 0.0
C300 C 0.0168 0.50207 0.82615 0.0
C301 C 0.99478 0.51512 0.8008 0.0
C302 C 0.05024 0.57754 0.86609 0.0
C303 C 0.07462 0.56632 0.86517 0.0
C304 C 0.04289 0.5855 0.88222 0.0
C305 C 0.09121 0.5632 0.88045 0.0
C306 C 0.05999 0.582 0.8972 0.0
N307 N 0.08359 0.57102 0.89601 0.0
C308 C 0.08242 0.57486 0.81781 0.0
C309 C 0.06683 0.54682 0.80754 0.0
C310 C 0.10913 0.57313 0.80888 0.0
N311 N 0.06179 0.56188 0.81691 0.0
C312 C 0.0934 0.54447 0.79852 0.0
C313 C 0.11486 0.5578 0.79903 0.0
H314 H 0.07797 0.58667 0.82541 0.0
H315 H 0.05035 0.53666 0.80684 0.0
C316 C 0.97708 0.55842 0.89107 0.0
N317 N 0.99816 0.55371 0.8792 0.0
C318 C 0.97663 0.55086 0.90794 0.0
C319 C 0.01935 0.53357 0.89995 0.0
C320 C 0.01887 0.5414 0.88322 0.0
C321 C 0.9981 0.53833 0.91261 0.0
H322 H 0.96061 0.56805 0.88745 0.0
H323 H 0.03533 0.53788 0.8735 0.0
O324 O 0.99888 0.58423 0.81633 0.0
O325 O 0.96405 0.57921 0.85092 0.0
O326 O 0.99847 0.54807 0.83637 0.0
O327 O 0.03347 0.58058 0.85134 0.0
H328 H 0.03366 0.61223 0.81414 0.0
H329 H 0.00266 0.56621 0.78632 0.0
H330 H 0.06507 0.61951 0.78828 0.0
H331 H 0.03482 0.57422 0.761 0.0
H332 H 0.9389 0.62502 0.88679 0.0
H333 H 0.9178 0.59049 0.83276 0.0
H334 H 0.97067 0.59945 0.87927 0.0
H335 H 0.88694 0.6162 0.84112 0.0
H336 H 0.90338 0.57165 0.77711 0.0
H337 H 0.87785 0.53535 0.81864 0.0
H338 H 0.03133 0.65045 0.86576 0.0
H339 H 0.96226 0.65228 0.82633 0.0
H340 H 0.02171 0.51868 0.84911 0.0
H341 H 0.98227 0.54237 0.80301 0.0
H342 H 0.0265 0.49062 0.83242 0.0
H343 H 0.98736 0.51388 0.78723 0.0
H344 H 0.08048 0.55989 0.85287 0.0
H345 H 0.02392 0.59407 0.88323 0.0
H346 H 0.11006 0.55448 0.87995 0.0
H347 H 0.05442 0.58797 0.90979 0.0
H348 H 0.12524 0.58364 0.8098 0.0
H349 H 0.09689 0.5325 0.79095 0.0
H350 H 0.95951 0.55469 0.91716 0.0
H351 H 0.03652 0.52413 0.90302 0.0
Li352 Li 0.5265 0.5686 0.67197 0.0
Li353 Li 0.50053 0.59347 0.65823 0.0
Li354 Li 0.47361 0.56781 0.67215 0.0
Li355 Li 0.4984 0.56418 0.64366 0.0
C356 C 0.5137 0.59021 0.69869 0.0
N357 N 0.54406 0.59878 0.72925 0.0
C358 C 0.52748 0.60663 0.70026 0.0
C359 C 0.515 0.57825 0.71279 0.0
C360 C 0.5428 0.6107 0.71579 0.0
C361 C 0.53057 0.58279 0.72809 0.0
C362 C 0.55002 0.58792 0.63581 0.0
C363 C 0.55494 0.60099 0.6068 0.0
N364 N 0.58335 0.60524 0.61055 0.0
C365 C 0.57941 0.59221 0.63928 0.0
C366 C 0.53781 0.59217 0.61936 0.0
C367 C 0.59583 0.60105 0.62638 0.0
C368 C 0.56692 0.54656 0.69073 0.0
N369 N 0.56145 0.56314 0.68467 0.0
C370 C 0.60609 0.57381 0.69746 0.0
C371 C 0.58049 0.57663 0.68771 0.0
C372 C 0.61229 0.55688 0.70408 0.0
C373 C 0.59243 0.5431 0.70052 0.0
H374 H 0.55145 0.53605 0.68805 0.0
H375 H 0.57562 0.58966 0.68266 0.0
C376 C 0.47464 0.6271 0.65456 0.0
N377 N 0.50078 0.61836 0.65488 0.0
C378 C 0.47399 0.64543 0.65262 0.0
C379 C 0.52718 0.64546 0.65168 0.0
C380 C 0.52679 0.62715 0.65361 0.0
C381 C 0.50053 0.65486 0.65121 0.0
H382 H 0.4543 0.61981 0.65597 0.0
H383 H 0.54728 0.61999 0.65445 0.0
C384 C 0.48687 0.53369 0.67075 0.0
N385 N 0.45734 0.50413 0.68278 0.0
C386 C 0.47254 0.52255 0.65877 0.0
C387 C 0.48652 0.52967 0.68883 0.0
C388 C 0.45766 0.50769 0.66511 0.0
C389 C 0.47136 0.51471 0.69466 0.0
C390 C 0.44666 0.5842 0.63582 0.0
C391 C 0.41921 0.57592 0.63471 0.0
C392 C 0.45447 0.59678 0.62311 0.0
C393 C 0.40043 0.57998 0.62062 0.0
C394 C 0.43508 0.6005 0.60923 0.0
N395 N 0.40871 0.59206 0.60826 0.0
C396 C 0.43561 0.56951 0.70153 0.0
C397 C 0.4192 0.55029 0.6788 0.0
C398 C 0.4104 0.56606 0.71151 0.0
N399 N 0.4395 0.56168 0.6855 0.0
C400 C 0.39354 0.54655 0.68827 0.0
C401 C 0.38883 0.55457 0.70481 0.0
H402 H 0.45182 0.57873 0.70645 0.0
H403 H 0.42277 0.54426 0.666 0.0
C404 C 0.52409 0.54968 0.61294 0.0
N405 N 0.49798 0.55245 0.6213 0.0
C406 C 0.52478 0.5419 0.59618 0.0
C407 C 0.47182 0.53905 0.59732 0.0
C408 C 0.47214 0.54704 0.614 0.0
C409 C 0.49837 0.53661 0.58811 0.0
H410 H 0.54441 0.55364 0.61924 0.0
H411 H 0.45178 0.54883 0.62113 0.0
O412 O 0.49906 0.58586 0.68345 0.0
O413 O 0.53359 0.57933 0.64837 0.0
O414 O 0.50129 0.5484 0.66479 0.0
O415 O 0.46526 0.58042 0.64962 0.0
H416 H 0.52655 0.6161 0.68957 0.0
H417 H 0.50427 0.56555 0.71187 0.0
H418 H 0.55373 0.62332 0.71713 0.0
H419 H 0.53194 0.5736 0.73903 0.0
H420 H 0.54571 0.60435 0.59402 0.0
H421 H 0.58946 0.58879 0.65179 0.0
H422 H 0.51552 0.58841 0.61618 0.0
H423 H 0.61853 0.60454 0.62895 0.0
H424 H 0.62103 0.58474 0.69963 0.0
H425 H 0.59633 0.52988 0.70545 0.0
H426 H 0.45296 0.65218 0.65263 0.0
H427 H 0.54814 0.65218 0.65058 0.0
H428 H 0.47279 0.52537 0.64473 0.0
H429 H 0.49767 0.53805 0.69826 0.0
H430 H 0.44634 0.49901 0.65599 0.0
H431 H 0.47073 0.51151 0.70862 0.0
H432 H 0.41252 0.56636 0.64453 0.0
H433 H 0.47506 0.60383 0.62404 0.0
H434 H 0.37926 0.57353 0.61953 0.0
H435 H 0.44094 0.61017 0.59929 0.0
H436 H 0.4074 0.57273 0.72407 0.0
H437 H 0.37753 0.53752 0.6827 0.0
H438 H 0.54576 0.53994 0.58965 0.0
H439 H 0.45098 0.53511 0.59158 0.0
Li440 Li 0.50186 0.93534 0.64321 0.0
Li441 Li 0.52637 0.93134 0.67196 0.0
Li442 Li 0.49922 0.90594 0.65751 0.0
Li443 Li 0.47335 0.93076 0.67112 0.0
C444 C 0.55557 0.91564 0.63669 0.0
N445 N 0.59823 0.90874 0.61147 0.0
C446 C 0.5826 0.92445 0.63726 0.0
C447 C 0.55047 0.90309 0.62344 0.0
C448 C 0.60382 0.92085 0.62435 0.0
C449 C 0.57224 0.89985 0.61078 0.0
C450 C 0.51309 0.96592 0.66978 0.0
C451 C 0.52827 0.98603 0.69282 0.0
N452 N 0.54153 0.99637 0.68043 0.0
C453 C 0.52669 0.9768 0.65726 0.0
C454 C 0.51367 0.97062 0.68769 0.0
C455 C 0.54101 0.99213 0.66292 0.0
C456 C 0.47545 0.95276 0.61467 0.0
N457 N 0.50197 0.94734 0.621 0.0
C458 C 0.5263 0.95855 0.59528 0.0
C459 C 0.52722 0.9503 0.6118 0.0
C460 C 0.49915 0.96401 0.58821 0.0
C461 C 0.47351 0.96113 0.59823 0.0
H462 H 0.45575 0.95046 0.62238 0.0
H463 H 0.5481 0.94627 0.61722 0.0
C464 C 0.56563 0.92641 0.70013 0.0
N465 N 0.56046 0.93673 0.68573 0.0
C466 C 0.59098 0.92883 0.71028 0.0
C467 C 0.6052 0.95262 0.69074 0.0
C468 C 0.57962 0.94967 0.6809 0.0
C469 C 0.61128 0.94199 0.70554 0.0
H470 H 0.55028 0.91606 0.70358 0.0
H471 H 0.57545 0.95744 0.66917 0.0
C472 C 0.45218 0.91191 0.63381 0.0
N473 N 0.42306 0.89525 0.60633 0.0
C474 C 0.42257 0.9072 0.63563 0.0
C475 C 0.46683 0.90836 0.61793 0.0
C476 C 0.40828 0.89871 0.62161 0.0
C477 C 0.45177 0.89989 0.60421 0.0
C478 C 0.48537 0.9098 0.69812 0.0
C479 C 0.4694 0.89413 0.69986 0.0
C480 C 0.486 0.92188 0.71212 0.0
C481 C 0.45389 0.89093 0.71553 0.0
C482 C 0.47017 0.91821 0.72756 0.0
N483 N 0.45456 0.90294 0.72892 0.0
C484 C 0.52512 0.87241 0.65373 0.0
C485 C 0.47298 0.87232 0.6527 0.0
C486 C 0.52583 0.85408 0.65182 0.0
N487 N 0.49897 0.88111 0.65401 0.0
C488 C 0.47264 0.85399 0.6508 0.0
C489 C 0.49933 0.84461 0.65039 0.0
H490 H 0.54545 0.87971 0.65512 0.0
H491 H 0.45247 0.87948 0.65355 0.0
C492 C 0.43291 0.95271 0.68993 0.0
N493 N 0.43796 0.9363 0.68331 0.0
C494 C 0.40663 0.95638 0.69885 0.0
C495 C 0.39139 0.92619 0.69391 0.0
C496 C 0.41784 0.92315 0.68506 0.0
C497 C 0.38541 0.94301 0.7009 0.0
H498 H 0.44918 0.96298 0.6882 0.0
H499 H 0.42249 0.91022 0.67965 0.0
O500 O 0.53462 0.91896 0.64931 0.0
O501 O 0.49898 0.95086 0.66449 0.0
O502 O 0.4665 0.92015 0.64747 0.0
O503 O 0.50023 0.91334 0.68276 0.0
H504 H 0.58709 0.93408 0.64746 0.0
H505 H 0.53009 0.89575 0.62302 0.0
H506 H 0.62473 0.92768 0.62457 0.0
H507 H 0.56852 0.89021 0.60044 0.0
H508 H 0.52905 0.98977 0.70665 0.0
H509 H 0.52631 0.97343 0.64334 0.0
H510 H 0.50312 0.9624 0.69754 0.0
H511 H 0.55174 0.00063 0.65338 0.0
H512 H 0.54663 0.96035 0.588 0.0
H513 H 0.45216 0.9654 0.59349 0.0
H514 H 0.59471 0.92044 0.72168 0.0
H515 H 0.62048 0.96274 0.68647 0.0
H516 H 0.41077 0.90999 0.64775 0.0
H517 H 0.48945 0.91229 0.61611 0.0
H518 H 0.38543 0.89491 0.62288 0.0
H519 H 0.46289 0.89705 0.59185 0.0
H520 H 0.46878 0.88461 0.68918 0.0
H521 H 0.49844 0.934 0.71102 0.0
H522 H 0.44128 0.8789 0.71702 0.0
H523 H 0.4703 0.92749 0.73845 0.0
H524 H 0.54691 0.84742 0.65144 0.0
H525 H 0.45168 0.8472 0.65014 0.0
H526 H 0.40279 0.96958 0.70385 0.0
H527 H 0.37596 0.9154 0.69542 0.0
Li528 Li 0.4735 0.43082 0.3296 0.0
Li529 Li 0.50012 0.43398 0.35757 0.0
Li530 Li 0.52784 0.43014 0.3289 0.0
Li531 Li 0.50178 0.40555 0.34308 0.0
C532 C 0.49522 0.46566 0.3285 0.0
N533 N 0.48226 0.49748 0.31233 0.0
C534 C 0.48287 0.47946 0.33831 0.0
C535 C 0.50149 0.46818 0.31055 0.0
C536 C 0.47634 0.49541 0.32987 0.0
C537 C 0.49464 0.48432 0.30259 0.0
C538 C 0.44771 0.42011 0.3662 0.0
C539 C 0.43398 0.41405 0.39648 0.0
N540 N 0.4103 0.4249 0.39469 0.0
C541 C 0.42309 0.43106 0.36461 0.0
C542 C 0.45306 0.4114 0.38221 0.0
C543 C 0.40449 0.43336 0.37918 0.0
C544 C 0.42787 0.42272 0.30656 0.0
N545 N 0.43877 0.43616 0.31652 0.0
C546 C 0.39876 0.45482 0.30795 0.0
C547 C 0.42476 0.452 0.31745 0.0
C548 C 0.38701 0.44115 0.29753 0.0
C549 C 0.40205 0.42496 0.29684 0.0
H550 H 0.43923 0.41017 0.30626 0.0
H551 H 0.43326 0.46232 0.32587 0.0
C552 C 0.52243 0.44232 0.39146 0.0
N553 N 0.49992 0.44549 0.38003 0.0
C554 C 0.52257 0.45006 0.40824 0.0
C555 C 0.47665 0.46451 0.40108 0.0
C556 C 0.47739 0.45645 0.38445 0.0
C557 C 0.4994 0.46129 0.41328 0.0
H558 H 0.54027 0.43373 0.38759 0.0
H559 H 0.45989 0.4589 0.37507 0.0
C560 C 0.50456 0.4102 0.30043 0.0
N561 N 0.51421 0.40395 0.26479 0.0
C562 C 0.51717 0.39429 0.29487 0.0
C563 C 0.49629 0.42275 0.2878 0.0
C564 C 0.52206 0.39143 0.27682 0.0
C565 C 0.50148 0.41939 0.26986 0.0
C566 C 0.5532 0.40694 0.36026 0.0
C567 C 0.58063 0.40288 0.35293 0.0
C568 C 0.54381 0.39813 0.37553 0.0
C569 C 0.598 0.38984 0.36082 0.0
C570 C 0.56178 0.38516 0.38302 0.0
N571 N 0.58827 0.38131 0.37556 0.0
C572 C 0.57274 0.45258 0.3149 0.0
C573 C 0.5759 0.42234 0.30706 0.0
C574 C 0.59799 0.45637 0.305 0.0
N575 N 0.56208 0.43581 0.31555 0.0
C576 C 0.60109 0.42552 0.29702 0.0
C577 C 0.61241 0.44273 0.29582 0.0
H578 H 0.56171 0.463 0.3221 0.0
H579 H 0.56768 0.40903 0.30838 0.0
C580 C 0.47865 0.37237 0.35325 0.0
N581 N 0.50231 0.38061 0.34597 0.0
C582 C 0.47816 0.35399 0.35476 0.0
C583 C 0.5265 0.35298 0.3414 0.0
C584 C 0.52598 0.37134 0.34007 0.0
C585 C 0.50225 0.34402 0.34867 0.0
H586 H 0.45994 0.38005 0.35759 0.0
H587 H 0.54437 0.37822 0.33416 0.0
O588 O 0.50164 0.44993 0.33656 0.0
O589 O 0.46633 0.41785 0.35213 0.0
O590 O 0.4997 0.41322 0.31809 0.0
O591 O 0.53573 0.41953 0.3526 0.0
H592 H 0.47826 0.47788 0.35226 0.0
H593 H 0.51188 0.45789 0.30287 0.0
H594 H 0.46658 0.50615 0.33728 0.0
H595 H 0.4993 0.48641 0.28868 0.0
H596 H 0.43797 0.40748 0.40898 0.0
H597 H 0.41852 0.43785 0.35232 0.0
H598 H 0.47175 0.40269 0.38362 0.0
H599 H 0.38547 0.44189 0.37816 0.0
H600 H 0.38761 0.46741 0.30912 0.0
H601 H 0.394 0.41411 0.28884 0.0
H602 H 0.54042 0.44705 0.41726 0.0
H603 H 0.45859 0.47328 0.40427 0.0
H604 H 0.52334 0.3843 0.3044 0.0
H605 H 0.48559 0.43485 0.29174 0.0
H606 H 0.53205 0.37925 0.27237 0.0
H607 H 0.49526 0.42903 0.25997 0.0
H608 H 0.58846 0.40972 0.34127 0.0
H609 H 0.5228 0.40122 0.38147 0.0
H610 H 0.61921 0.38651 0.35523 0.0
H611 H 0.55467 0.37817 0.39476 0.0
H612 H 0.60601 0.46983 0.30445 0.0
H613 H 0.61195 0.41452 0.29059 0.0
H614 H 0.4588 0.34765 0.36019 0.0
H615 H 0.54571 0.34589 0.33675 0.0
Li616 Li 0.49869 0.09243 0.34186 0.0
Li617 Li 0.47148 0.06743 0.32732 0.0
Li618 Li 0.49779 0.06451 0.35675 0.0
Li619 Li 0.52493 0.06727 0.32997 0.0
C620 C 0.44486 0.093 0.35494 0.0
N621 N 0.40879 0.1212 0.36326 0.0
C622 C 0.42141 0.09748 0.34382 0.0
C623 C 0.44981 0.10279 0.37037 0.0
C624 C 0.40345 0.11179 0.34824 0.0
C625 C 0.43139 0.11703 0.37431 0.0
C626 C 0.51702 0.08906 0.30311 0.0
C627 C 0.53499 0.08434 0.2734 0.0
N628 N 0.55477 0.09763 0.27572 0.0
C629 C 0.53747 0.10269 0.30518 0.0
C630 C 0.5157 0.07982 0.28709 0.0
C631 C 0.55638 0.10682 0.29118 0.0
C632 C 0.51819 0.1256 0.35495 0.0
N633 N 0.49847 0.11745 0.34416 0.0
C634 C 0.47783 0.14521 0.33568 0.0
C635 C 0.47875 0.12683 0.33442 0.0
C636 C 0.49776 0.15401 0.34685 0.0
C637 C 0.5182 0.14397 0.35653 0.0
H638 H 0.53409 0.11787 0.36222 0.0
H639 H 0.4638 0.12001 0.32562 0.0
C640 C 0.4173 0.05037 0.32067 0.0
N641 N 0.43786 0.06146 0.3138 0.0
C642 C 0.39136 0.0469 0.31132 0.0
C643 C 0.40868 0.06606 0.2879 0.0
C644 C 0.4341 0.06926 0.29776 0.0
C645 C 0.38665 0.05494 0.29475 0.0
H646 H 0.4208 0.04454 0.33358 0.0
H647 H 0.45058 0.07826 0.29277 0.0
C648 C 0.54723 0.07734 0.3679 0.0
N649 N 0.576 0.07131 0.39962 0.0
C650 C 0.57092 0.06558 0.36863 0.0
C651 C 0.53824 0.08607 0.38331 0.0
C652 C 0.58519 0.06273 0.38479 0.0
C653 C 0.55301 0.08281 0.39922 0.0
C654 C 0.50791 0.03298 0.32879 0.0
C655 C 0.53394 0.02554 0.33526 0.0
C656 C 0.49311 0.02487 0.31473 0.0
C657 C 0.54488 0.01016 0.32745 0.0
C658 C 0.50474 0.00947 0.3073 0.0
N659 N 0.53017 0.00251 0.31375 0.0
C660 C 0.47342 0.05846 0.39076 0.0
C661 C 0.51523 0.04096 0.38414 0.0
C662 C 0.47194 0.05134 0.40781 0.0
N663 N 0.4951 0.05338 0.37943 0.0
C664 C 0.5148 0.03365 0.40111 0.0
C665 C 0.49309 0.03895 0.41322 0.0
H666 H 0.45745 0.06819 0.38664 0.0
H667 H 0.53201 0.03696 0.37487 0.0
C668 C 0.58481 0.07071 0.32169 0.0
N669 N 0.56024 0.06152 0.31715 0.0
C670 C 0.61108 0.06822 0.31246 0.0
C671 C 0.58629 0.04707 0.29372 0.0
C672 C 0.56042 0.05007 0.30325 0.0
C673 C 0.61212 0.05622 0.29827 0.0
H674 H 0.58382 0.08032 0.33227 0.0
H675 H 0.54039 0.04353 0.29927 0.0
O676 O 0.46303 0.07923 0.35066 0.0
O677 O 0.49896 0.08448 0.31686 0.0
O678 O 0.53267 0.08013 0.35226 0.0
O679 O 0.49666 0.04795 0.3363 0.0
H680 H 0.41723 0.0901 0.33181 0.0
H681 H 0.46788 0.09956 0.37911 0.0
H682 H 0.38531 0.11545 0.33971 0.0
H683 H 0.43511 0.12479 0.38614 0.0
H684 H 0.53437 0.07722 0.26098 0.0
H685 H 0.53902 0.10985 0.31755 0.0
H686 H 0.50035 0.06902 0.28536 0.0
H687 H 0.57243 0.11727 0.29263 0.0
H688 H 0.46209 0.15247 0.32774 0.0
H689 H 0.5339 0.15023 0.36532 0.0
H690 H 0.37486 0.03845 0.31725 0.0
H691 H 0.40628 0.07236 0.2751 0.0
H692 H 0.57795 0.05848 0.35695 0.0
H693 H 0.51979 0.09507 0.38306 0.0
H694 H 0.60346 0.05359 0.38555 0.0
H695 H 0.54614 0.08939 0.41126 0.0
H696 H 0.54593 0.03178 0.34593 0.0
H697 H 0.47291 0.03042 0.30957 0.0
H698 H 0.56513 0.00434 0.33223 0.0
H699 H 0.49356 0.00308 0.29638 0.0
H700 H 0.45489 0.05579 0.41679 0.0
H701 H 0.53126 0.02394 0.4047 0.0
H702 H 0.63015 0.07597 0.31614 0.0
H703 H 0.58598 0.0377 0.28287 0.0
H704 H 0.94993 0.32373 0.14601 0.0
H705 H 0.94972 0.29143 0.14481 0.0
H706 H 0.04418 0.2909 0.15055 0.0
H707 H 0.04459 0.32318 0.15172 0.0
H708 H 0.02415 0.26771 0.12476 0.0
H709 H 0.96228 0.25938 0.18768 0.0
H710 H 0.94406 0.273 0.17158 0.0
H711 H 0.9783 0.28018 0.18112 0.0
C712 C 0.97064 0.31672 0.1471 0.0
C713 C 0.99726 0.32599 0.14908 0.0
C714 C 0.97047 0.29828 0.14642 0.0
C715 C 0.99688 0.28878 0.14789 0.0
C716 C 0.02355 0.298 0.14943 0.0
H717 H 0.01846 0.17918 0.17621 0.0
H718 H 0.01835 0.21136 0.17448 0.0
C719 C 0.02375 0.31643 0.15004 0.0
C720 C 0.99677 0.26922 0.148 0.0
H721 H 0.97128 0.2335 0.17092 0.0
C722 C 0.0126 0.2602 0.13483 0.0
C723 C 0.98199 0.2595 0.16131 0.0
C724 C 0.96591 0.26847 0.17633 0.0
C725 C 0.01391 0.24168 0.13456 0.0
C726 C 0.99854 0.23196 0.14763 0.0
C727 C 0.98283 0.241 0.16083 0.0
C728 C 0.99922 0.21241 0.14824 0.0
C729 C 0.03234 0.23272 0.12055 0.0
C730 C 0.98834 0.20231 0.13409 0.0
C731 C 0.98871 0.18386 0.13494 0.0
C732 C 0.99973 0.17518 0.15004 0.0
C733 C 0.01034 0.1854 0.16425 0.0
C734 C 0.01007 0.20381 0.16335 0.0
H735 H 0.04852 0.24194 0.11453 0.0
H736 H 0.04441 0.22126 0.12616 0.0
H737 H 0.01773 0.22783 0.10984 0.0
H738 H 0.97935 0.20868 0.12244 0.0
H739 H 0.98054 0.17642 0.12372 0.0
H740 H 0.02224 0.82028 0.82366 0.0
H741 H 0.02016 0.78809 0.82483 0.0
H742 H 0.9706 0.79081 0.8735 0.0
H743 H 0.97349 0.82309 0.8728 0.0
H744 H 0.0157 0.7661 0.87455 0.0
H745 H 0.94801 0.75782 0.81397 0.0
H746 H 0.98074 0.77063 0.81042 0.0
H747 H 0.95244 0.77886 0.8249 0.0
C748 C 0.01114 0.81406 0.83472 0.0
C749 C 0.99798 0.82428 0.84813 0.0
C750 C 0.00965 0.79565 0.83524 0.0
C751 C 0.99477 0.78709 0.84907 0.0
C752 C 0.98197 0.79719 0.86262 0.0
H753 H 0.94799 0.67544 0.84735 0.0
H754 H 0.94673 0.70771 0.84911 0.0
C755 C 0.98347 0.81563 0.86213 0.0
C756 C 0.99304 0.76756 0.84953 0.0
H757 H 0.97016 0.73179 0.82569 0.0
C758 C 0.00558 0.75858 0.86394 0.0
C759 C 0.97943 0.75781 0.83579 0.0
C760 C 0.96412 0.76676 0.82048 0.0
C761 C 0.00562 0.74006 0.86473 0.0
C762 C 0.99321 0.73031 0.85059 0.0
C763 C 0.97993 0.7393 0.83643 0.0
C764 C 0.99406 0.71076 0.85008 0.0
C765 C 0.01872 0.73112 0.88076 0.0
C766 C 0.0211 0.7018 0.84987 0.0
C767 C 0.0219 0.68339 0.84882 0.0
C768 C 0.99565 0.67359 0.8478 0.0
C769 C 0.96859 0.68262 0.84795 0.0
C770 C 0.96782 0.70104 0.84904 0.0
H771 H 0.01956 0.74015 0.89236 0.0
H772 H 0.00591 0.71919 0.88447 0.0
H773 H 0.04158 0.72697 0.87769 0.0
H774 H 0.04162 0.70907 0.85022 0.0
H775 H 0.04309 0.67686 0.84842 0.0
H776 H 0.46382 0.67564 0.6313 0.0
H777 H 0.46356 0.70792 0.62925 0.0
H778 H 0.53656 0.71051 0.66569 0.0
H779 H 0.53687 0.67834 0.66792 0.0
H780 H 0.45582 0.73243 0.65656 0.0
H781 H 0.56454 0.74105 0.62425 0.0
H782 H 0.54583 0.72004 0.62508 0.0
H783 H 0.56585 0.72794 0.64405 0.0
C784 C 0.47977 0.68309 0.63891 0.0
C785 C 0.50049 0.67442 0.64969 0.0
C786 C 0.47968 0.70151 0.63765 0.0
C787 C 0.50037 0.71157 0.64707 0.0
C788 C 0.52089 0.70297 0.65796 0.0
H789 H 0.5346 0.82124 0.66813 0.0
H790 H 0.53411 0.78902 0.66632 0.0
C791 C 0.52103 0.68458 0.65921 0.0
C792 C 0.49985 0.73109 0.64609 0.0
H793 H 0.54213 0.76699 0.63604 0.0
C794 C 0.47455 0.74 0.65191 0.0
C795 C 0.52436 0.7409 0.64002 0.0
C796 C 0.55159 0.73201 0.63283 0.0
C797 C 0.47345 0.75852 0.65236 0.0
C798 C 0.49815 0.76832 0.64659 0.0
C799 C 0.52328 0.75941 0.64051 0.0
C800 C 0.49867 0.78784 0.64722 0.0
C801 C 0.44624 0.76745 0.65955 0.0
C802 C 0.47919 0.79783 0.63685 0.0
C803 C 0.47952 0.81627 0.63777 0.0
C804 C 0.49945 0.82503 0.64901 0.0
C805 C 0.51923 0.81494 0.65917 0.0
C806 C 0.51889 0.79652 0.65823 0.0
H807 H 0.43198 0.75811 0.66698 0.0
H808 H 0.45226 0.77856 0.66844 0.0
H809 H 0.43324 0.77289 0.64836 0.0
H810 H 0.46381 0.79137 0.62801 0.0
H811 H 0.46434 0.82366 0.62955 0.0
H812 H 0.48063 0.32279 0.37516 0.0
H813 H 0.47884 0.29051 0.37578 0.0
H814 H 0.52162 0.28858 0.32478 0.0
H815 H 0.52234 0.32078 0.32368 0.0
H816 H 0.47411 0.26658 0.32665 0.0
H817 H 0.54692 0.2568 0.38493 0.0
H818 H 0.51595 0.27095 0.38904 0.0
H819 H 0.5439 0.2777 0.37359 0.0
C820 C 0.4895 0.3155 0.36402 0.0
C821 C 0.50177 0.3244 0.34941 0.0
C822 C 0.48879 0.29705 0.3645 0.0
C823 C 0.50054 0.28715 0.35046 0.0
C824 C 0.51263 0.29597 0.33583 0.0
H825 H 0.54515 0.17626 0.347 0.0
H826 H 0.54485 0.20854 0.34824 0.0
C827 C 0.51326 0.31439 0.3353 0.0
C828 C 0.49959 0.26759 0.3507 0.0
H829 H 0.52304 0.23133 0.37358 0.0
C830 C 0.4848 0.25886 0.33691 0.0
C831 C 0.51385 0.25757 0.36399 0.0
C832 C 0.5313 0.26619 0.37865 0.0
C833 C 0.48381 0.24036 0.33606 0.0
C834 C 0.49747 0.23034 0.34957 0.0
C835 C 0.51236 0.23906 0.36333 0.0
C836 C 0.4974 0.21078 0.34935 0.0
C837 C 0.46881 0.23174 0.32044 0.0
C838 C 0.47082 0.20134 0.34986 0.0
C839 C 0.47092 0.1829 0.34912 0.0
C840 C 0.49763 0.17356 0.34807 0.0
C841 C 0.52423 0.18306 0.34797 0.0
C842 C 0.5241 0.2015 0.34861 0.0
H843 H 0.46625 0.24104 0.30916 0.0
H844 H 0.48136 0.22003 0.31582 0.0
H845 H 0.44653 0.22729 0.32448 0.0
H846 H 0.45 0.20823 0.35084 0.0
H847 H 0.45011 0.17593 0.34953 0.0
H848 H 0.35358 0.02462 0.29172 0.0
H849 H 0.30701 0.02081 0.27571 0.0
H850 H 0.30989 0.07532 0.25942 0.0
H851 H 0.35567 0.07947 0.27576 0.0
H852 H 0.25222 0.04302 0.28052 0.0
H853 H 0.29974 0.04474 0.21272 0.0
H854 H 0.3212 0.03913 0.23209 0.0
H855 H 0.31243 0.06178 0.22745 0.0
C856 C 0.3442 0.03584 0.28485 0.0
C857 C 0.35857 0.05233 0.28493 0.0
C858 C 0.31771 0.03359 0.27564 0.0
C859 C 0.30535 0.04773 0.26623 0.0
C860 C 0.31943 0.06418 0.26638 0.0
H861 H 0.15951 0.07916 0.20416 0.0
H862 H 0.20576 0.0745 0.21989 0.0
C863 C 0.3457 0.06649 0.27565 0.0
C864 C 0.27734 0.04562 0.2565 0.0
H865 H 0.24784 0.04841 0.21503 0.0
C866 C 0.25116 0.0439 0.26619 0.0
C867 C 0.27623 0.04678 0.23783 0.0
C868 C 0.30389 0.04807 0.22684 0.0
C869 C 0.22363 0.04429 0.2577 0.0
C870 C 0.22247 0.04609 0.23904 0.0
C871 C 0.24879 0.04707 0.22933 0.0
C872 C 0.1943 0.04845 0.22944 0.0
C873 C 0.19605 0.04371 0.26884 0.0
C874 C 0.1726 0.03525 0.22943 0.0
C875 C 0.1459 0.03796 0.22057 0.0
C876 C 0.14054 0.05389 0.21153 0.0
C877 C 0.16265 0.06689 0.21129 0.0
C878 C 0.18921 0.06419 0.22015 0.0
H879 H 0.20077 0.04592 0.28312 0.0
H880 H 0.18001 0.05383 0.26433 0.0
H881 H 0.18556 0.03056 0.26745 0.0
H882 H 0.17631 0.02288 0.23627 0.0
H883 H 0.1293 0.02771 0.22104 0.0
H884 H 0.65923 0.46375 0.30477 0.0
H885 H 0.70563 0.46727 0.28863 0.0
H886 H 0.67355 0.43279 0.24745 0.0
H887 H 0.62709 0.4293 0.2634 0.0
H888 H 0.72815 0.42304 0.26106 0.0
H889 H 0.72633 0.49406 0.24271 0.0
H890 H 0.71951 0.48958 0.26575 0.0
H891 H 0.69366 0.48216 0.24934 0.0
C892 C 0.66182 0.45722 0.2921 0.0
C893 C 0.63954 0.44617 0.2854 0.0
C894 C 0.68833 0.45926 0.28289 0.0
C895 C 0.6929 0.4504 0.26679 0.0
C896 C 0.67042 0.43975 0.25986 0.0
H897 H 0.83698 0.45672 0.19172 0.0
H898 H 0.7897 0.45936 0.20711 0.0
C899 C 0.64397 0.43769 0.26904 0.0
C900 C 0.72188 0.45103 0.25784 0.0
H901 H 0.77124 0.47863 0.23787 0.0
C902 C 0.73755 0.43519 0.25595 0.0
C903 C 0.73392 0.46688 0.25109 0.0
C904 C 0.71743 0.48414 0.25215 0.0
C905 C 0.76511 0.43475 0.24762 0.0
C906 C 0.77754 0.45067 0.24128 0.0
C907 C 0.76174 0.46651 0.24294 0.0
C908 C 0.80668 0.4509 0.23252 0.0
C909 C 0.78046 0.41721 0.24542 0.0
C910 C 0.83198 0.4458 0.24186 0.0
C911 C 0.85896 0.44429 0.23313 0.0
C912 C 0.86116 0.44797 0.21491 0.0
C913 C 0.83603 0.45391 0.20578 0.0
C914 C 0.80901 0.45537 0.21453 0.0
H915 H 0.76505 0.40594 0.24713 0.0
H916 H 0.79087 0.41619 0.23214 0.0
H917 H 0.79801 0.41599 0.25557 0.0
H918 H 0.83071 0.44263 0.25584 0.0
H919 H 0.87804 0.44 0.24058 0.0
H920 H 0.13081 0.92762 0.76496 0.0
H921 H 0.17729 0.93184 0.74917 0.0
H922 H 0.20501 0.96959 0.78856 0.0
H923 H 0.15876 0.96516 0.80471 0.0
H924 H 0.2034 0.96401 0.73544 0.0
H925 H 0.27129 0.93165 0.78762 0.0
H926 H 0.23181 0.92914 0.78657 0.0
H927 H 0.24756 0.94931 0.79469 0.0
C928 C 0.14684 0.93678 0.77031 0.0
C929 C 0.14123 0.94593 0.78618 0.0
C930 C 0.17327 0.93926 0.76121 0.0
C931 C 0.19466 0.95086 0.76783 0.0
C932 C 0.18887 0.96042 0.78337 0.0
H933 H 0.37642 0.9626 0.73102 0.0
H934 H 0.33007 0.96718 0.74694 0.0
C935 C 0.16236 0.95798 0.79248 0.0
C936 C 0.22328 0.95249 0.75861 0.0
H937 H 0.29604 0.9419 0.76229 0.0
C938 C 0.22373 0.95931 0.74133 0.0
C939 C 0.24971 0.94641 0.7664 0.0
C940 C 0.25026 0.93859 0.7848 0.0
C941 C 0.24994 0.96001 0.7315 0.0
C942 C 0.2762 0.95333 0.73905 0.0
C943 C 0.27588 0.947 0.75653 0.0
C944 C 0.30383 0.95172 0.72871 0.0
C945 C 0.24923 0.96791 0.71315 0.0
C946 C 0.30446 0.94149 0.71321 0.0
C947 C 0.3308 0.93898 0.70402 0.0
C948 C 0.35718 0.94647 0.71025 0.0
C949 C 0.35645 0.95683 0.72573 0.0
C950 C 0.33003 0.95938 0.7349 0.0
H951 H 0.23074 0.97741 0.71169 0.0
H952 H 0.27016 0.97482 0.71002 0.0
H953 H 0.24595 0.95722 0.70329 0.0
H954 H 0.28467 0.93511 0.70841 0.0
H955 H 0.33048 0.93108 0.69205 0.0
H956 H 0.63565 0.57776 0.73 0.0
H957 H 0.68248 0.57392 0.74549 0.0
H958 H 0.69729 0.52512 0.71743 0.0
H959 H 0.65045 0.52892 0.70173 0.0
H960 H 0.71113 0.52409 0.75472 0.0
H961 H 0.76246 0.58096 0.7201 0.0
H962 H 0.72812 0.58604 0.73075 0.0
H963 H 0.72882 0.57075 0.71253 0.0
C964 C 0.6489 0.56623 0.72708 0.0
C965 C 0.63955 0.55376 0.71447 0.0
C966 C 0.67559 0.56405 0.73596 0.0
C967 C 0.6935 0.5494 0.73235 0.0
C968 C 0.68377 0.53655 0.72032 0.0
H969 H 0.87904 0.54753 0.76095 0.0
H970 H 0.83243 0.54437 0.74502 0.0
C971 C 0.65699 0.53872 0.71142 0.0
C972 C 0.72279 0.54789 0.74078 0.0
H973 H 0.78879 0.56904 0.74452 0.0
C974 C 0.72824 0.53382 0.75243 0.0
C975 C 0.74516 0.56046 0.73752 0.0
C976 C 0.74105 0.57532 0.72442 0.0
C977 C 0.75525 0.53233 0.76138 0.0
C978 C 0.77711 0.54537 0.75871 0.0
C979 C 0.77193 0.55911 0.74664 0.0
C980 C 0.80531 0.5454 0.76857 0.0
C981 C 0.7602 0.51678 0.77351 0.0
C982 C 0.80552 0.54693 0.78711 0.0
C983 C 0.83211 0.54878 0.79625 0.0
C984 C 0.85896 0.5493 0.78698 0.0
C985 C 0.8587 0.54737 0.76844 0.0
C986 C 0.83212 0.54547 0.75933 0.0
H987 H 0.74536 0.5056 0.77018 0.0
H988 H 0.78336 0.51213 0.77282 0.0
H989 H 0.75554 0.52082 0.78736 0.0
H990 H 0.78506 0.54735 0.79447 0.0
H991 H 0.83155 0.5505 0.81049 0.0
H992 H 0.64803 0.91607 0.71739 0.0
H993 H 0.6941 0.91946 0.73372 0.0
H994 H 0.68393 0.97607 0.73262 0.0
H995 H 0.63774 0.97278 0.71612 0.0
H996 H 0.73984 0.96566 0.72392 0.0
H997 H 0.70403 0.93232 0.78555 0.0
H998 H 0.69859 0.91885 0.76627 0.0
H999 H 0.67841 0.93917 0.7686 0.0
C1000 C 0.65538 0.92924 0.72083 0.0
C1001 C 0.63911 0.94416 0.71562 0.0
C1002 C 0.6817 0.93116 0.73018 0.0
C1003 C 0.69213 0.948 0.7347 0.0
C1004 C 0.67616 0.96295 0.72935 0.0
H1005 H 0.83768 0.9591 0.80952 0.0
H1006 H 0.7904 0.96258 0.79444 0.0
C1007 C 0.64985 0.96105 0.71989 0.0
C1008 C 0.72018 0.94993 0.74455 0.0
H1009 H 0.75594 0.93636 0.78191 0.0
C1010 C 0.74329 0.95942 0.73669 0.0
C1011 C 0.72449 0.94205 0.76135 0.0
C1012 C 0.69996 0.93268 0.77103 0.0
C1013 C 0.77099 0.96063 0.74486 0.0
C1014 C 0.7758 0.95183 0.76115 0.0
C1015 C 0.75234 0.94294 0.76933 0.0
C1016 C 0.80516 0.95115 0.76971 0.0
C1017 C 0.79479 0.97136 0.73599 0.0
C1018 C 0.8292 0.94362 0.76079 0.0
C1019 C 0.85633 0.94177 0.76931 0.0
C1020 C 0.8599 0.94725 0.78699 0.0
C1021 C 0.83585 0.95499 0.79582 0.0
C1022 C 0.80874 0.95688 0.78726 0.0
H1023 H 0.78531 0.98151 0.72702 0.0
H1024 H 0.80901 0.97804 0.74591 0.0
H1025 H 0.80878 0.96247 0.72788 0.0
H1026 H 0.8268 0.93876 0.74737 0.0
H1027 H 0.87445 0.93591 0.76207 0.0
H1028 H 0.38214 0.54844 0.7403 0.0
H1029 H 0.33602 0.54585 0.75689 0.0
H1030 H 0.28683 0.55217 0.7084 0.0
H1031 H 0.3328 0.55454 0.69174 0.0
H1032 H 0.29416 0.57055 0.76012 0.0
H1033 H 0.24534 0.51047 0.73042 0.0
H1034 H 0.28343 0.51647 0.72721 0.0
H1035 H 0.25504 0.52663 0.71406 0.0
C1036 C 0.36147 0.54911 0.73317 0.0
C1037 C 0.36106 0.55165 0.71472 0.0
C1038 C 0.33517 0.54758 0.74265 0.0
C1039 C 0.30798 0.54856 0.73386 0.0
C1040 C 0.30752 0.55089 0.7154 0.0
H1041 H 0.14253 0.58231 0.77845 0.0
H1042 H 0.18966 0.57939 0.76307 0.0
C1043 C 0.33382 0.55229 0.7059 0.0
C1044 C 0.28015 0.54852 0.74414 0.0
H1045 H 0.21266 0.5289 0.74719 0.0
C1046 C 0.27646 0.56133 0.7574 0.0
C1047 C 0.2572 0.53634 0.74075 0.0
C1048 C 0.26052 0.52159 0.72746 0.0
C1049 C 0.25014 0.56262 0.76703 0.0
C1050 C 0.22661 0.55107 0.76297 0.0
C1051 C 0.23059 0.5379 0.7501 0.0
C1052 C 0.19762 0.5526 0.77184 0.0
C1053 C 0.24793 0.57628 0.78154 0.0
C1054 C 0.18594 0.53828 0.78133 0.0
C1055 C 0.15886 0.53987 0.79001 0.0
C1056 C 0.14305 0.55581 0.78934 0.0
C1057 C 0.15452 0.56999 0.77949 0.0
C1058 C 0.18145 0.56835 0.77073 0.0
H1059 H 0.27002 0.58024 0.78646 0.0
H1060 H 0.23695 0.58826 0.77625 0.0
H1061 H 0.2348 0.57129 0.7929 0.0
H1062 H 0.198 0.52598 0.78227 0.0
H1063 H 0.15062 0.52876 0.79756 0.0
H1064 H 0.61838 0.05177 0.26238 0.0
H1065 H 0.66402 0.04843 0.24558 0.0
H1066 H 0.71417 0.05278 0.29392 0.0
H1067 H 0.66866 0.05518 0.31092 0.0
H1068 H 0.70798 0.07184 0.24238 0.0
H1069 H 0.75207 0.01023 0.27162 0.0
H1070 H 0.71459 0.01735 0.27506 0.0
H1071 H 0.74399 0.02658 0.28811 0.0
C1072 C 0.63907 0.0516 0.26951 0.0
C1073 C 0.6398 0.05367 0.28804 0.0
C1074 C 0.66516 0.04982 0.25985 0.0
C1075 C 0.6925 0.05006 0.26851 0.0
C1076 C 0.69333 0.05213 0.28699 0.0
H1077 H 0.87304 0.06357 0.23738 0.0
H1078 H 0.8258 0.06075 0.25281 0.0
C1079 C 0.66726 0.05378 0.29667 0.0
C1080 C 0.72021 0.04927 0.25813 0.0
H1081 H 0.78605 0.0277 0.25475 0.0
C1082 C 0.72488 0.06205 0.24494 0.0
C1083 C 0.74225 0.03647 0.26147 0.0
C1084 C 0.73788 0.02178 0.27471 0.0
C1085 C 0.75134 0.0627 0.23538 0.0
C1086 C 0.77361 0.05022 0.23908 0.0
C1087 C 0.76887 0.03728 0.25204 0.0
C1088 C 0.80234 0.05085 0.22994 0.0
C1089 C 0.75573 0.077 0.22171 0.0
C1090 C 0.80473 0.04592 0.21209 0.0
C1091 C 0.83166 0.04747 0.20325 0.0
C1092 C 0.85655 0.05408 0.21214 0.0
C1093 C 0.85416 0.05863 0.23015 0.0
C1094 C 0.82729 0.05694 0.239 0.0
H1095 H 0.73787 0.08701 0.22204 0.0
H1096 H 0.77715 0.08374 0.22385 0.0
H1097 H 0.75623 0.07098 0.2083 0.0
H1098 H 0.78565 0.04112 0.20494 0.0
H1099 H 0.83279 0.044 0.18934 0.0
H1100 H 0.16528 0.4216 0.19823 0.0
H1101 H 0.21106 0.42464 0.21496 0.0
H1102 H 0.17765 0.47186 0.23977 0.0
H1103 H 0.13133 0.46865 0.22342 0.0
H1104 H 0.25181 0.45282 0.21606 0.0
H1105 H 0.20072 0.43985 0.2818 0.0
H1106 H 0.18212 0.43509 0.26121 0.0
H1107 H 0.18452 0.45741 0.2691 0.0
C1108 C 0.16756 0.43257 0.20734 0.0
C1109 C 0.14455 0.44477 0.20965 0.0
C1110 C 0.19381 0.43436 0.21677 0.0
C1111 C 0.19755 0.44834 0.22874 0.0
C1112 C 0.17499 0.46084 0.23076 0.0
H1113 H 0.36832 0.47024 0.27897 0.0
H1114 H 0.32211 0.47375 0.26259 0.0
C1115 C 0.14868 0.45907 0.2213 0.0
C1116 C 0.22493 0.44951 0.23931 0.0
H1117 H 0.25161 0.44584 0.28144 0.0
C1118 C 0.25183 0.45144 0.23037 0.0
C1119 C 0.22477 0.44751 0.25794 0.0
C1120 C 0.19656 0.4447 0.26813 0.0
C1121 C 0.27869 0.45118 0.23956 0.0
C1122 C 0.27852 0.44917 0.2582 0.0
C1123 C 0.2516 0.4475 0.26716 0.0
C1124 C 0.3061 0.4475 0.26852 0.0
C1125 C 0.30704 0.45238 0.2292 0.0
C1126 C 0.31199 0.43177 0.27765 0.0
C1127 C 0.33813 0.42979 0.28714 0.0
C1128 C 0.35893 0.44353 0.28773 0.0
C1129 C 0.35271 0.45943 0.27883 0.0
C1130 C 0.32647 0.4614 0.26933 0.0
H1131 H 0.30351 0.45018 0.21479 0.0
H1132 H 0.31666 0.46573 0.23095 0.0
H1133 H 0.32328 0.44256 0.23408 0.0
H1134 H 0.29643 0.42092 0.27728 0.0
H1135 H 0.34195 0.41751 0.29413 0.0
H1136 H 0.04347 0.02416 0.0686 0.0
H1137 H 0.04295 0.01136 0.03884 0.0
H1138 H 0.94981 0.02158 0.03484 0.0
H1139 H 0.95014 0.03461 0.06452 0.0
H1140 H 0.96686 0.9871 0.02434 0.0
H1141 H 0.0345 0.03893 0.99187 0.0
H1142 H 0.05068 0.02946 0.01142 0.0
H1143 H 0.01732 0.04208 0.01322 0.0
C1144 C 0.02292 0.02387 0.06133 0.0
C1145 C 0.99687 0.03049 0.06891 0.0
C1146 C 0.02268 0.01654 0.04434 0.0
C1147 C 0.99643 0.01576 0.03458 0.0
C1148 C 0.97031 0.02211 0.04217 0.0
H1149 H 0.97828 0.99357 0.92216 0.0
H1150 H 0.97673 0.00669 0.95179 0.0
C1151 C 0.97052 0.02946 0.05916 0.0
C1152 C 0.99613 0.00807 0.01655 0.0
H1153 H 0.02421 0.01325 0.97491 0.0
C1154 C 0.97931 0.99282 0.0135 0.0
C1155 C 0.01213 0.01572 0.00243 0.0
C1156 C 0.02949 0.03254 0.00478 0.0
C1157 C 0.97851 0.98481 0.99674 0.0
C1158 C 0.99525 0.99215 0.98275 0.0
C1159 C 0.01162 0.00758 0.98572 0.0
C1160 C 0.99595 0.98406 0.9649 0.0
C1161 C 0.95948 0.9687 0.99406 0.0
C1162 C 0.00755 0.96707 0.96247 0.0
C1163 C 0.00834 0.9595 0.94558 0.0
C1164 C 0.99765 0.96883 0.9308 0.0
C1165 C 0.98629 0.98594 0.93329 0.0
C1166 C 0.98555 0.9935 0.95018 0.0
H1167 H 0.94264 0.96738 0.00466 0.0
H1168 H 0.94815 0.96918 0.98103 0.0
H1169 H 0.97354 0.95672 0.99434 0.0
H1170 H 0.01613 0.95968 0.97362 0.0
H1171 H 0.01703 0.94626 0.94414 0.0
H1172 H 0.9871 0.55458 0.94437 0.0
H1173 H 0.98721 0.54133 0.97389 0.0
H1174 H 0.01088 0.49101 0.95126 0.0
H1175 H 0.00959 0.50395 0.92159 0.0
H1176 H 0.96668 0.48824 0.97576 0.0
H1177 H 0.0592 0.5277 0.00281 0.0
H1178 H 0.02987 0.54094 0.99401 0.0
H1179 H 0.05077 0.52692 0.97945 0.0
C1180 C 0.99208 0.54065 0.94564 0.0
C1181 C 0.99841 0.53034 0.9306 0.0
C1182 C 0.99252 0.53316 0.96255 0.0
C1183 C 0.99958 0.51527 0.96478 0.0
C1184 C 0.00562 0.50489 0.94982 0.0
H1185 H 0.04367 0.46446 0.06447 0.0
H1186 H 0.04402 0.47693 0.03456 0.0
C1187 C 0.00509 0.51234 0.93289 0.0
C1188 C -1e-05 0.50726 0.98269 0.0
H1189 H 0.03187 0.51057 0.02352 0.0
C1190 C 0.98101 0.49307 0.98619 0.0
C1191 C 0.01901 0.51343 0.99619 0.0
C1192 C 0.04108 0.52797 0.99292 0.0
C1193 C 0.98016 0.48505 0.00295 0.0
C1194 C 0.99835 0.49166 0.01664 0.0
C1195 C 0.01771 0.50566 0.01305 0.0
C1196 C 0.99792 0.48413 0.03475 0.0
C1197 C 0.96015 0.46938 0.00573 0.0
C1198 C 0.97197 0.48426 0.04485 0.0
C1199 C 0.9717 0.47713 0.06193 0.0
C1200 C 0.99748 0.46994 0.06929 0.0
C1201 C 0.02354 0.47006 0.05923 0.0
C1202 C 0.02375 0.47711 0.04212 0.0
H1203 H 0.95409 0.46303 0.99297 0.0
H1204 H 0.97069 0.45934 0.01438 0.0
H1205 H 0.93956 0.47386 0.01223 0.0
H1206 H 0.95198 0.49001 0.03957 0.0
H1207 H 0.95142 0.47747 0.06947 0.0
H1208 H 0.45195 0.46621 0.43518 0.0
H1209 H 0.45148 0.47955 0.46471 0.0
H1210 H 0.54522 0.48786 0.46166 0.0
H1211 H 0.5459 0.47492 0.43196 0.0
H1212 H 0.52344 0.47101 0.49398 0.0
H1213 H 0.46448 0.53307 0.47672 0.0
H1214 H 0.44779 0.51289 0.46916 0.0
H1215 H 0.48273 0.51958 0.46031 0.0
C1216 C 0.47242 0.47111 0.44066 0.0
C1217 C 0.49896 0.46953 0.43116 0.0
C1218 C 0.4721 0.47867 0.45755 0.0
C1219 C 0.49828 0.48479 0.46525 0.0
C1220 C 0.5248 0.48319 0.4559 0.0
H1221 H 0.5286 0.54803 0.55904 0.0
H1222 H 0.52869 0.5351 0.52926 0.0
C1223 C 0.52515 0.47571 0.43898 0.0
C1224 C 0.49813 0.49252 0.48323 0.0
H1225 H 0.47383 0.5279 0.50716 0.0
C1226 C 0.51262 0.48344 0.49689 0.0
C1227 C 0.48415 0.5088 0.48688 0.0
C1228 C 0.46906 0.51928 0.47251 0.0
C1229 C 0.51316 0.49014 0.51423 0.0
C1230 C 0.49882 0.50627 0.51791 0.0
C1231 C 0.48463 0.51546 0.50423 0.0
C1232 C 0.49872 0.51394 0.5359 0.0
C1233 C 0.52929 0.48007 0.52848 0.0
C1234 C 0.48167 0.50631 0.54937 0.0
C1235 C 0.48149 0.51368 0.56636 0.0
C1236 C 0.49852 0.52872 0.57013 0.0
C1237 C 0.51556 0.53631 0.55656 0.0
C1238 C 0.51551 0.52903 0.53956 0.0
H1239 H 0.5429 0.4692 0.52295 0.0
H1240 H 0.54375 0.48911 0.53615 0.0
H1241 H 0.51309 0.47429 0.53784 0.0
H1242 H 0.46844 0.49471 0.54671 0.0
H1243 H 0.46831 0.5075 0.57658 0.0
H1244 H 0.45727 0.95921 0.56249 0.0
H1245 H 0.45534 0.97273 0.53304 0.0
H1246 H 0.53579 0.00085 0.54393 0.0
H1247 H 0.53754 0.98789 0.57362 0.0
H1248 H 0.4627 0.01484 0.52568 0.0
H1249 H 0.5432 0.96816 0.49544 0.0
H1250 H 0.52032 0.96189 0.514 0.0
H1251 H 0.55043 0.97682 0.51727 0.0
C1252 C 0.47434 0.96848 0.55876 0.0
C1253 C 0.4976 0.97244 0.57044 0.0
C1254 C 0.47326 0.97609 0.5419 0.0
C1255 C 0.49549 0.98767 0.5364 0.0
C1256 C 0.51856 0.99183 0.54799 0.0
H1257 H 0.53969 0.03528 0.43569 0.0
H1258 H 0.53944 0.02339 0.46584 0.0
C1259 C 0.51959 0.98431 0.56489 0.0
C1260 C 0.49481 0.99527 0.51841 0.0
H1261 H 0.52494 0.9909 0.47726 0.0
C1262 C 0.47621 0.00964 0.51504 0.0
C1263 C 0.51265 0.98845 0.50472 0.0
C1264 C 0.53279 0.97293 0.50787 0.0
C1265 C 0.47525 0.01758 0.49823 0.0
C1266 C 0.49284 0.01061 0.48439 0.0
C1267 C 0.51144 0.9962 0.48786 0.0
C1268 C 0.4926 0.01814 0.46625 0.0
C1269 C 0.45604 0.03363 0.49561 0.0
C1270 C 0.4664 0.019 0.45642 0.0
C1271 C 0.46646 0.0259 0.43923 0.0
C1272 C 0.49284 0.03177 0.43149 0.0
C1273 C 0.51909 0.03071 0.44128 0.0
C1274 C 0.51896 0.02397 0.45851 0.0
H1275 H 0.45094 0.04021 0.50841 0.0
H1276 H 0.46672 0.04337 0.48669 0.0
H1277 H 0.43489 0.02951 0.48953 0.0
H1278 H 0.44594 0.01413 0.46194 0.0
H1279 H 0.44599 0.02634 0.43188 0.0
loop_
_geom_bond_atom_site_label_1
_geom_bond_atom_site_label_2
_geom_bond_distance
_geom_bond_site_symmetry_2
_ccdc_geom_bond_type
Li0 N17 1.990 . S
Li0 O60 1.956 . S
Li0 O61 1.970 1_455 S
Li0 O62 1.961 1_455 S
Li1 N25 1.990 . S
Li1 O60 1.970 . S
Li1 O61 1.946 1_455 S
Li1 O63 1.961 . S
Li2 N47 1.990 . S
Li2 O60 1.951 1_655 S
Li2 O62 1.966 . S
Li2 O63 1.970 1_655 S
Li3 N53 1.990 . S
Li3 O61 1.970 . S
Li3 O62 1.970 . S
Li3 O63 1.956 1_655 S
C4 C6 1.348 . S
C4 C7 1.356 . S
C4 O60 1.325 . S
N5 C8 1.314 . S
N5 C9 1.279 . S
C6 C4 1.348 . S
C6 C8 1.353 . S
C6 H64 0.929 . S
C7 C4 1.356 . S
C7 C9 1.358 . S
C7 H65 0.930 . S
C8 N5 1.314 . S
C8 C6 1.353 . S
C8 H66 0.930 . S
C9 N5 1.279 . S
C9 C7 1.358 . S
C9 H67 0.930 . S
C10 C13 1.351 . S
C10 C14 1.354 1_455 S
C10 O61 1.324 1_455 S
C11 N12 1.279 1_655 S
C11 C14 1.358 . S
C11 H68 0.930 . S
N12 C11 1.279 1_455 S
N12 C15 1.314 . S
C13 C10 1.351 . S
C13 C15 1.353 . S
C13 H69 0.929 . S
C14 C10 1.354 1_655 S
C14 C11 1.358 . S
C14 H70 0.930 . S
C15 N12 1.314 . S
C15 C13 1.353 . S
C15 H71 0.930 . S
C16 N17 1.314 1_655 S
C16 C21 1.353 . S
C16 H22 0.930 . S
N17 Li0 1.990 . S
N17 C16 1.314 1_455 S
N17 C19 1.279 . S
C18 C19 1.358 . S
C18 C20 1.370 . S
C18 H72 0.930 . S
C19 N17 1.279 . S
C19 C18 1.358 . S
C19 H23 0.930 . S
C20 C18 1.370 . S
C20 C21 1.334 1_455 S
C21 C16 1.353 . S
C21 C20 1.334 1_655 S
C21 H73 0.929 . S
H22 C16 0.930 . S
H23 C19 0.930 . S
C24 N25 1.314 . S
C24 C26 1.353 . S
C24 H30 0.930 . S
N25 Li1 1.990 . S
N25 C24 1.314 . S
N25 C28 1.279 . S
C26 C24 1.353 . S
C26 C29 1.348 . S
C26 H74 0.929 . S
C27 C28 1.358 . S
C27 C29 1.356 . S
C27 H75 0.930 . S
C28 N25 1.279 . S
C28 C27 1.358 . S
C28 H31 0.930 . S
C29 C26 1.348 . S
C29 C27 1.356 . S
H30 C24 0.930 . S
H31 C28 0.930 . S
C32 C34 1.348 . S
C32 C35 1.356 . S
C32 O62 1.325 . S
N33 C36 1.314 . S
N33 C37 1.279 . S
C34 C32 1.348 . S
C34 C36 1.353 . S
C34 H76 0.929 . S
C35 C32 1.356 . S
C35 C37 1.358 . S
C35 H77 0.930 . S
C36 N33 1.314 . S
C36 C34 1.353 . S
C36 H78 0.930 . S
C37 N33 1.279 . S
C37 C35 1.358 . S
C37 H79 0.930 . S
C38 C39 1.342 1_455 S
C38 C40 1.359 . S
C38 O63 1.325 . S
C39 C38 1.342 1_655 S
C39 C41 1.353 . S
C39 H80 0.929 . S
C40 C38 1.359 . S
C40 C42 1.358 . S
C40 H81 0.930 . S
C41 C39 1.353 . S
C41 N43 1.314 1_545 S
C41 H82 0.930 1_545 S
C42 C40 1.358 . S
C42 N43 1.279 1_445 S
C42 H83 0.930 . S
N43 C41 1.314 1_565 S
N43 C42 1.279 1_665 S
C44 C46 1.353 . S
C44 N47 1.286 1_455 S
C44 H50 0.930 . S
C45 N47 1.307 . S
C45 C48 1.358 . S
C45 H51 0.930 . S
C46 C44 1.353 . S
C46 C49 1.358 . S
C46 H84 0.929 . S
N47 Li2 1.990 . S
N47 C44 1.286 1_655 S
N47 C45 1.307 . S
C48 C45 1.358 . S
C48 C49 1.346 1_655 S
C48 H85 0.930 . S
C49 C46 1.358 . S
C49 C48 1.346 1_455 S
H50 C44 0.930 . S
H51 C45 0.930 . S
C52 N53 1.314 . S
C52 C54 1.353 . S
C52 H58 0.930 . S
N53 Li3 1.990 . S
N53 C52 1.314 . S
N53 C56 1.279 . S
C54 C52 1.353 . S
C54 C57 1.348 . S
C54 H86 0.929 . S
C55 C56 1.358 . S
C55 C57 1.356 . S
C55 H87 0.930 . S
C56 N53 1.279 . S
C56 C55 1.358 . S
C56 H59 0.930 . S
C57 C54 1.348 . S
C57 C55 1.356 . S
H58 C52 0.930 . S
H59 C56 0.930 . S
O60 Li0 1.956 . S
O60 Li1 1.970 . S
O60 Li2 1.951 1_455 S
O60 C4 1.325 . S
O61 Li0 1.970 1_655 S
O61 Li1 1.946 1_655 S
O61 Li3 1.970 . S
O61 C10 1.324 1_655 S
O62 Li0 1.961 1_655 S
O62 Li2 1.966 . S
O62 Li3 1.970 . S
O62 C32 1.325 . S
O63 Li1 1.961 . S
O63 Li2 1.970 1_455 S
O63 Li3 1.956 1_455 S
O63 C38 1.325 . S
H64 C6 0.929 . S
H65 C7 0.930 . S
H66 C8 0.930 . S
H67 C9 0.930 . S
H68 C11 0.930 . S
H69 C13 0.929 . S
H70 C14 0.930 . S
H71 C15 0.930 . S
H72 C18 0.930 . S
H73 C21 0.929 . S
H74 C26 0.929 . S
H75 C27 0.930 . S
H76 C34 0.929 . S
H77 C35 0.930 . S
H78 C36 0.930 . S
H79 C37 0.930 . S
H80 C39 0.929 . S
H81 C40 0.930 . S
H82 C41 0.930 1_565 S
H83 C42 0.930 . S
H84 C46 0.929 . S
H85 C48 0.930 . S
H86 C54 0.929 . S
H87 C55 0.930 . S
Li88 N105 1.991 . S
Li88 O148 1.985 . S
Li88 O149 1.969 1_455 S
Li88 O150 1.931 1_455 S
Li89 N113 1.990 . S
Li89 O148 1.970 . S
Li89 O149 1.938 1_455 S
Li89 O151 1.987 . S
Li90 N135 1.991 . S
Li90 O148 1.941 1_655 S
Li90 O150 1.975 . S
Li90 O151 1.969 1_655 S
Li91 N141 1.990 . S
Li91 O149 1.978 . S
Li91 O150 1.970 . S
Li91 O151 1.928 1_655 S
C92 C94 1.348 . S
C92 C95 1.356 . S
C92 O148 1.325 . S
N93 C96 1.314 . S
N93 C97 1.279 . S
C94 C92 1.348 . S
C94 C96 1.353 . S
C94 H152 0.929 . S
C95 C92 1.356 . S
C95 C97 1.358 . S
C95 H153 0.930 . S
C96 N93 1.314 . S
C96 C94 1.353 . S
C96 H154 0.930 . S
C97 N93 1.279 . S
C97 C95 1.358 . S
C97 H155 0.930 . S
C98 C101 1.347 . S
C98 C102 1.356 1_455 S
C98 O149 1.324 1_455 S
C99 N100 1.279 1_655 S
C99 C102 1.358 . S
C99 H156 0.930 . S
N100 C99 1.279 1_455 S
N100 C103 1.314 . S
C101 C98 1.347 . S
C101 C103 1.353 . S
C101 H157 0.929 . S
C102 C98 1.356 1_655 S
C102 C99 1.358 . S
C102 H158 0.930 . S
C103 N100 1.314 . S
C103 C101 1.353 . S
C103 H159 0.930 . S
C104 N105 1.314 1_655 S
C104 C109 1.353 . S
C104 H110 0.930 . S
N105 Li88 1.991 . S
N105 C104 1.314 1_455 S
N105 C107 1.279 . S
C106 C107 1.358 . S
C106 C108 1.360 . S
C106 H160 0.930 . S
C107 N105 1.279 . S
C107 C106 1.358 . S
C107 H111 0.930 . S
C108 C106 1.360 . S
C108 C109 1.344 1_455 S
C109 C104 1.353 . S
C109 C108 1.344 1_655 S
C109 H161 0.929 . S
H110 C104 0.930 . S
H111 C107 0.930 . S
C112 N113 1.314 . S
C112 C114 1.353 . S
C112 H118 0.930 . S
N113 Li89 1.990 . S
N113 C112 1.314 . S
N113 C116 1.279 . S
C114 C112 1.353 . S
C114 C117 1.348 . S
C114 H162 0.929 . S
C115 C116 1.358 . S
C115 C117 1.356 . S
C115 H163 0.930 . S
C116 N113 1.279 . S
C116 C115 1.358 . S
C116 H119 0.930 . S
C117 C114 1.348 . S
C117 C115 1.356 . S
H118 C112 0.930 . S
H119 C116 0.930 . S
C120 C122 1.348 . S
C120 C123 1.356 . S
C120 O150 1.325 . S
N121 C124 1.314 . S
N121 C125 1.279 . S
C122 C120 1.348 . S
C122 C124 1.353 . S
C122 H164 0.929 . S
C123 C120 1.356 . S
C123 C125 1.358 . S
C123 H165 0.930 . S
C124 N121 1.314 . S
C124 C122 1.353 . S
C124 H166 0.930 . S
C125 N121 1.279 . S
C125 C123 1.358 . S
C125 H167 0.930 . S
C126 C127 1.346 1_455 S
C126 C128 1.357 . S
C126 O151 1.324 . S
C127 C126 1.346 1_655 S
C127 C129 1.353 . S
C127 H168 0.929 . S
C128 C126 1.357 . S
C128 C130 1.358 . S
C128 H169 0.930 . S
C129 C127 1.353 . S
C129 N131 1.314 . S
C129 H170 0.930 . S
C130 C128 1.358 . S
C130 N131 1.279 1_455 S
C130 H171 0.930 . S
N131 C129 1.314 . S
N131 C130 1.279 1_655 S
C132 C134 1.353 . S
C132 N135 1.314 1_455 S
C132 H138 0.930 . S
C133 N135 1.279 . S
C133 C136 1.358 . S
C133 H139 0.930 . S
C134 C132 1.353 . S
C134 C137 1.348 . S
C134 H172 0.929 . S
N135 Li90 1.991 . S
N135 C132 1.314 1_655 S
N135 C133 1.279 . S
C136 C133 1.358 . S
C136 C137 1.356 1_655 S
C136 H173 0.930 . S
C137 C134 1.348 . S
C137 C136 1.356 1_455 S
H138 C132 0.930 . S
H139 C133 0.930 . S
C140 N141 1.314 . S
C140 C142 1.353 . S
C140 H146 0.930 . S
N141 Li91 1.990 . S
N141 C140 1.314 . S
N141 C144 1.279 . S
C142 C140 1.353 . S
C142 C145 1.348 . S
C142 H174 0.929 . S
C143 C144 1.358 . S
C143 C145 1.356 . S
C143 H175 0.930 . S
C144 N141 1.279 . S
C144 C143 1.358 . S
C144 H147 0.930 . S
C145 C142 1.348 . S
C145 C143 1.356 . S
H146 C140 0.930 . S
H147 C144 0.930 . S
O148 Li88 1.985 . S
O148 Li89 1.970 . S
O148 Li90 1.941 1_455 S
O148 C92 1.325 . S
O149 Li88 1.969 1_655 S
O149 Li89 1.938 1_655 S
O149 Li91 1.978 . S
O149 C98 1.324 1_655 S
O150 Li88 1.931 1_655 S
O150 Li90 1.975 . S
O150 Li91 1.970 . S
O150 C120 1.325 . S
O151 Li89 1.987 . S
O151 Li90 1.969 1_455 S
O151 Li91 1.928 1_455 S
O151 C126 1.324 . S
H152 C94 0.929 . S
H153 C95 0.930 . S
H154 C96 0.930 . S
H155 C97 0.930 . S
H156 C99 0.930 . S
H157 C101 0.929 . S
H158 C102 0.930 . S
H159 C103 0.930 . S
H160 C106 0.930 . S
H161 C109 0.929 . S
H162 C114 0.929 . S
H163 C115 0.930 . S
H164 C122 0.929 . S
H165 C123 0.930 . S
H166 C124 0.930 . S
H167 C125 0.930 . S
H168 C127 0.929 . S
H169 C128 0.930 . S
H170 C129 0.930 . S
H171 C130 0.930 . S
H172 C134 0.929 . S
H173 C136 0.930 . S
H174 C142 0.929 . S
H175 C143 0.930 . S
Li176 N193 1.990 . S
Li176 O236 1.966 . S
Li176 O237 1.970 1_655 S
Li176 O238 1.951 1_655 S
Li177 N201 1.990 . S
Li177 O236 1.970 . S
Li177 O237 1.956 1_655 S
Li177 O239 1.970 . S
Li178 N223 1.990 . S
Li178 O236 1.961 1_455 S
Li178 O238 1.956 . S
Li178 O239 1.970 1_455 S
Li179 N229 1.990 . S
Li179 O237 1.961 . S
Li179 O238 1.970 . S
Li179 O239 1.946 1_455 S
C180 C182 1.348 . S
C180 C183 1.356 . S
C180 O236 1.325 . S
N181 C184 1.314 . S
N181 C185 1.279 . S
C182 C180 1.348 . S
C182 C184 1.353 . S
C182 H240 0.929 . S
C183 C180 1.356 . S
C183 C185 1.358 . S
C183 H241 0.930 . S
C184 N181 1.314 . S
C184 C182 1.353 . S
C184 H242 0.930 . S
C185 N181 1.279 . S
C185 C183 1.358 . S
C185 H243 0.930 . S
C186 C189 1.342 1_455 S
C186 C190 1.359 . S
C186 O237 1.325 . S
C187 N188 1.279 1_465 S
C187 C190 1.358 . S
C187 H244 0.930 . S
N188 C187 1.279 1_645 S
N188 C191 1.314 1_545 S
C189 C186 1.342 1_655 S
C189 C191 1.353 . S
C189 H245 0.929 . S
C190 C186 1.359 . S
C190 C187 1.358 . S
C190 H246 0.930 . S
C191 N188 1.314 1_565 S
C191 C189 1.353 . S
C191 H247 0.930 1_565 S
C192 N193 1.286 1_455 S
C192 C197 1.353 . S
C192 H198 0.930 . S
N193 Li176 1.990 . S
N193 C192 1.286 1_655 S
N193 C195 1.307 . S
C194 C195 1.358 . S
C194 C196 1.346 1_655 S
C194 H248 0.930 . S
C195 N193 1.307 . S
C195 C194 1.358 . S
C195 H199 0.930 . S
C196 C194 1.346 1_455 S
C196 C197 1.358 . S
C197 C192 1.353 . S
C197 C196 1.358 . S
C197 H249 0.929 . S
H198 C192 0.930 . S
H199 C195 0.930 . S
C200 N201 1.314 . S
C200 C202 1.353 . S
C200 H206 0.930 . S
N201 Li177 1.990 . S
N201 C200 1.314 . S
N201 C204 1.279 . S
C202 C200 1.353 . S
C202 C205 1.348 . S
C202 H250 0.929 . S
C203 C204 1.358 . S
C203 C205 1.356 . S
C203 H251 0.930 . S
C204 N201 1.279 . S
C204 C203 1.358 . S
C204 H207 0.930 . S
C205 C202 1.348 . S
C205 C203 1.356 . S
H206 C200 0.930 . S
H207 C204 0.930 . S
C208 C210 1.348 . S
C208 C211 1.356 . S
C208 O238 1.325 . S
N209 C212 1.314 . S
N209 C213 1.279 . S
C210 C208 1.348 . S
C210 C212 1.353 . S
C210 H252 0.929 . S
C211 C208 1.356 . S
C211 C213 1.358 . S
C211 H253 0.930 . S
C212 N209 1.314 . S
C212 C210 1.353 . S
C212 H254 0.930 . S
C213 N209 1.279 . S
C213 C211 1.358 . S
C213 H255 0.930 . S
C214 C215 1.351 . S
C214 C216 1.354 1_455 S
C214 O239 1.324 1_455 S
C215 C214 1.351 . S
C215 C217 1.353 . S
C215 H256 0.929 . S
C216 C214 1.354 1_655 S
C216 C218 1.358 . S
C216 H257 0.930 . S
C217 C215 1.353 . S
C217 N219 1.314 . S
C217 H258 0.930 . S
C218 C216 1.358 . S
C218 N219 1.279 1_655 S
C218 H259 0.930 . S
N219 C217 1.314 . S
N219 C218 1.279 1_455 S
C220 C222 1.353 . S
C220 N223 1.314 1_655 S
C220 H226 0.930 . S
C221 N223 1.279 . S
C221 C224 1.358 . S
C221 H227 0.930 . S
C222 C220 1.353 . S
C222 C225 1.334 1_655 S
C222 H260 0.929 . S
N223 Li178 1.990 . S
N223 C220 1.314 1_455 S
N223 C221 1.279 . S
C224 C221 1.358 . S
C224 C225 1.370 . S
C224 H261 0.930 . S
C225 C222 1.334 1_455 S
C225 C224 1.370 . S
H226 C220 0.930 . S
H227 C221 0.930 . S
C228 N229 1.314 . S
C228 C230 1.353 . S
C228 H234 0.930 . S
N229 Li179 1.990 . S
N229 C228 1.314 . S
N229 C232 1.279 . S
C230 C228 1.353 . S
C230 C233 1.348 . S
C230 H262 0.929 . S
C231 C232 1.358 . S
C231 C233 1.356 . S
C231 H263 0.930 . S
C232 N229 1.279 . S
C232 C231 1.358 . S
C232 H235 0.930 . S
C233 C230 1.348 . S
C233 C231 1.356 . S
H234 C228 0.930 . S
H235 C232 0.930 . S
O236 Li176 1.966 . S
O236 Li177 1.970 . S
O236 Li178 1.961 1_655 S
O236 C180 1.325 . S
O237 Li176 1.970 1_455 S
O237 Li177 1.956 1_455 S
O237 Li179 1.961 . S
O237 C186 1.325 . S
O238 Li176 1.951 1_455 S
O238 Li178 1.956 . S
O238 Li179 1.970 . S
O238 C208 1.325 . S
O239 Li177 1.970 . S
O239 Li178 1.970 1_655 S
O239 Li179 1.946 1_655 S
O239 C214 1.324 1_655 S
H240 C182 0.929 . S
H241 C183 0.930 . S
H242 C184 0.930 . S
H243 C185 0.930 . S
H244 C187 0.930 . S
H245 C189 0.929 . S
H246 C190 0.930 . S
H247 C191 0.930 1_545 S
H248 C194 0.930 . S
H249 C197 0.929 . S
H250 C202 0.929 . S
H251 C203 0.930 . S
H252 C210 0.929 . S
H253 C211 0.930 . S
H254 C212 0.930 . S
H255 C213 0.930 . S
H256 C215 0.929 . S
H257 C216 0.930 . S
H258 C217 0.930 . S
H259 C218 0.930 . S
H260 C222 0.929 . S
H261 C224 0.930 . S
H262 C230 0.929 . S
H263 C231 0.930 . S
Li264 N281 1.990 . S
Li264 O324 1.928 1_655 S
Li264 O325 1.970 . S
Li264 O326 1.978 . S
Li265 N289 1.991 . S
Li265 O324 1.969 1_655 S
Li265 O325 1.975 . S
Li265 O327 1.941 1_655 S
Li266 N311 1.990 . S
Li266 O324 1.987 . S
Li266 O326 1.938 1_455 S
Li266 O327 1.970 . S
Li267 N317 1.991 . S
Li267 O325 1.931 1_455 S
Li267 O326 1.969 1_455 S
Li267 O327 1.985 . S
C268 C270 1.346 1_455 S
C268 C271 1.357 . S
C268 O324 1.324 . S
N269 C272 1.314 . S
N269 C273 1.279 1_655 S
C270 C268 1.346 1_655 S
C270 C272 1.353 . S
C270 H328 0.929 . S
C271 C268 1.357 . S
C271 C273 1.358 . S
C271 H329 0.930 . S
C272 N269 1.314 . S
C272 C270 1.353 . S
C272 H330 0.930 . S
C273 N269 1.279 1_455 S
C273 C271 1.358 . S
C273 H331 0.930 . S
C274 C277 1.348 . S
C274 C278 1.356 . S
C274 O325 1.325 . S
C275 N276 1.279 . S
C275 C278 1.358 . S
C275 H332 0.930 . S
N276 C275 1.279 . S
N276 C279 1.314 . S
C277 C274 1.348 . S
C277 C279 1.353 . S
C277 H333 0.929 . S
C278 C274 1.356 . S
C278 C275 1.358 . S
C278 H334 0.930 . S
C279 N276 1.314 . S
C279 C277 1.353 . S
C279 H335 0.930 . S
C280 N281 1.314 . S
C280 C285 1.353 . S
C280 H286 0.930 . S
N281 Li264 1.990 . S
N281 C280 1.314 . S
N281 C283 1.279 . S
C282 C283 1.358 . S
C282 C284 1.356 . S
C282 H336 0.930 . S
C283 N281 1.279 . S
C283 C282 1.358 . S
C283 H287 0.930 . S
C284 C282 1.356 . S
C284 C285 1.348 . S
C285 C280 1.353 . S
C285 C284 1.348 . S
C285 H337 0.929 . S
H286 C280 0.930 . S
H287 C283 0.930 . S
C288 N289 1.314 1_455 S
C288 C290 1.353 . S
C288 H294 0.930 . S
N289 Li265 1.991 . S
N289 C288 1.314 1_655 S
N289 C292 1.279 . S
C290 C288 1.353 . S
C290 C293 1.348 . S
C290 H338 0.929 . S
C291 C292 1.358 . S
C291 C293 1.356 1_655 S
C291 H339 0.930 . S
C292 N289 1.279 . S
C292 C291 1.358 . S
C292 H295 0.930 . S
C293 C290 1.348 . S
C293 C291 1.356 1_455 S
H294 C288 0.930 . S
H295 C292 0.930 . S
C296 C298 1.347 . S
C296 C299 1.356 1_455 S
C296 O326 1.324 1_455 S
N297 C300 1.314 . S
N297 C301 1.279 1_455 S
C298 C296 1.347 . S
C298 C300 1.353 . S
C298 H340 0.929 . S
C299 C296 1.356 1_655 S
C299 C301 1.358 . S
C299 H341 0.930 . S
C300 N297 1.314 . S
C300 C298 1.353 . S
C300 H342 0.930 . S
C301 N297 1.279 1_655 S
C301 C299 1.358 . S
C301 H343 0.930 . S
C302 C303 1.348 . S
C302 C304 1.356 . S
C302 O327 1.325 . S
C303 C302 1.348 . S
C303 C305 1.353 . S
C303 H344 0.929 . S
C304 C302 1.356 . S
C304 C306 1.358 . S
C304 H345 0.930 . S
C305 C303 1.353 . S
C305 N307 1.314 . S
C305 H346 0.930 . S
C306 C304 1.358 . S
C306 N307 1.279 . S
C306 H347 0.930 . S
N307 C305 1.314 . S
N307 C306 1.279 . S
C308 C310 1.353 . S
C308 N311 1.314 . S
C308 H314 0.930 . S
C309 N311 1.279 . S
C309 C312 1.358 . S
C309 H315 0.930 . S
C310 C308 1.353 . S
C310 C313 1.348 . S
C310 H348 0.929 . S
N311 Li266 1.990 . S
N311 C308 1.314 . S
N311 C309 1.279 . S
C312 C309 1.358 . S
C312 C313 1.356 . S
C312 H349 0.930 . S
C313 C310 1.348 . S
C313 C312 1.356 . S
H314 C308 0.930 . S
H315 C309 0.930 . S
C316 N317 1.314 1_655 S
C316 C318 1.353 . S
C316 H322 0.930 . S
N317 Li267 1.991 . S
N317 C316 1.314 1_455 S
N317 C320 1.279 . S
C318 C316 1.353 . S
C318 C321 1.344 1_655 S
C318 H350 0.929 . S
C319 C320 1.358 . S
C319 C321 1.360 . S
C319 H351 0.930 . S
C320 N317 1.279 . S
C320 C319 1.358 . S
C320 H323 0.930 . S
C321 C318 1.344 1_455 S
C321 C319 1.360 . S
H322 C316 0.930 . S
H323 C320 0.930 . S
O324 Li264 1.928 1_455 S
O324 Li265 1.969 1_455 S
O324 Li266 1.987 . S
O324 C268 1.324 . S
O325 Li264 1.970 . S
O325 Li265 1.975 . S
O325 Li267 1.931 1_655 S
O325 C274 1.325 . S
O326 Li264 1.978 . S
O326 Li266 1.938 1_655 S
O326 Li267 1.969 1_655 S
O326 C296 1.324 1_655 S
O327 Li265 1.941 1_455 S
O327 Li266 1.970 . S
O327 Li267 1.985 . S
O327 C302 1.325 . S
H328 C270 0.929 . S
H329 C271 0.930 . S
H330 C272 0.930 . S
H331 C273 0.930 . S
H332 C275 0.930 . S
H333 C277 0.929 . S
H334 C278 0.930 . S
H335 C279 0.930 . S
H336 C282 0.930 . S
H337 C285 0.929 . S
H338 C290 0.929 . S
H339 C291 0.930 . S
H340 C298 0.929 . S
H341 C299 0.930 . S
H342 C300 0.930 . S
H343 C301 0.930 . S
H344 C303 0.929 . S
H345 C304 0.930 . S
H346 C305 0.930 . S
H347 C306 0.930 . S
H348 C310 0.929 . S
H349 C312 0.930 . S
H350 C318 0.929 . S
H351 C319 0.930 . S
Li352 N369 1.990 . S
Li352 O412 1.956 . S
Li352 O413 1.970 . S
Li352 O414 1.961 . S
Li353 N377 1.990 . S
Li353 O412 1.970 . S
Li353 O413 1.956 . S
Li353 O415 1.961 . S
Li354 N399 1.990 . S
Li354 O412 1.961 . S
Li354 O414 1.956 . S
Li354 O415 1.970 . S
Li355 N405 1.990 . S
Li355 O413 1.961 . S
Li355 O414 1.970 . S
Li355 O415 1.956 . S
C356 C358 1.348 . S
C356 C359 1.356 . S
C356 O412 1.325 . S
N357 C360 1.314 . S
N357 C361 1.279 . S
C358 C356 1.348 . S
C358 C360 1.353 . S
C358 H416 0.929 . S
C359 C356 1.356 . S
C359 C361 1.358 . S
C359 H417 0.930 . S
C360 N357 1.314 . S
C360 C358 1.353 . S
C360 H418 0.930 . S
C361 N357 1.279 . S
C361 C359 1.358 . S
C361 H419 0.930 . S
C362 C365 1.348 . S
C362 C366 1.356 . S
C362 O413 1.325 . S
C363 N364 1.279 . S
C363 C366 1.358 . S
C363 H420 0.930 . S
N364 C363 1.279 . S
N364 C367 1.314 . S
C365 C362 1.348 . S
C365 C367 1.353 . S
C365 H421 0.929 . S
C366 C362 1.356 . S
C366 C363 1.358 . S
C366 H422 0.930 . S
C367 N364 1.314 . S
C367 C365 1.353 . S
C367 H423 0.930 . S
C368 N369 1.314 . S
C368 C373 1.353 . S
C368 H374 0.930 . S
N369 Li352 1.990 . S
N369 C368 1.314 . S
N369 C371 1.279 . S
C370 C371 1.358 . S
C370 C372 1.356 . S
C370 H424 0.930 . S
C371 N369 1.279 . S
C371 C370 1.358 . S
C371 H375 0.930 . S
C372 C370 1.356 . S
C372 C373 1.348 . S
C373 C368 1.353 . S
C373 C372 1.348 . S
C373 H425 0.929 . S
H374 C368 0.930 . S
H375 C371 0.930 . S
C376 N377 1.314 . S
C376 C378 1.353 . S
C376 H382 0.930 . S
N377 Li353 1.990 . S
N377 C376 1.314 . S
N377 C380 1.279 . S
C378 C376 1.353 . S
C378 C381 1.348 . S
C378 H426 0.929 . S
C379 C380 1.358 . S
C379 C381 1.356 . S
C379 H427 0.930 . S
C380 N377 1.279 . S
C380 C379 1.358 . S
C380 H383 0.930 . S
C381 C378 1.348 . S
C381 C379 1.356 . S
H382 C376 0.930 . S
H383 C380 0.930 . S
C384 C386 1.348 . S
C384 C387 1.356 . S
C384 O414 1.325 . S
N385 C388 1.314 . S
N385 C389 1.279 . S
C386 C384 1.348 . S
C386 C388 1.353 . S
C386 H428 0.929 . S
C387 C384 1.356 . S
C387 C389 1.358 . S
C387 H429 0.930 . S
C388 N385 1.314 . S
C388 C386 1.353 . S
C388 H430 0.930 . S
C389 N385 1.279 . S
C389 C387 1.358 . S
C389 H431 0.930 . S
C390 C391 1.348 . S
C390 C392 1.356 . S
C390 O415 1.325 . S
C391 C390 1.348 . S
C391 C393 1.353 . S
C391 H432 0.929 . S
C392 C390 1.356 . S
C392 C394 1.358 . S
C392 H433 0.930 . S
C393 C391 1.353 . S
C393 N395 1.314 . S
C393 H434 0.930 . S
C394 C392 1.358 . S
C394 N395 1.279 . S
C394 H435 0.930 . S
N395 C393 1.314 . S
N395 C394 1.279 . S
C396 C398 1.353 . S
C396 N399 1.314 . S
C396 H402 0.930 . S
C397 N399 1.279 . S
C397 C400 1.358 . S
C397 H403 0.930 . S
C398 C396 1.353 . S
C398 C401 1.348 . S
C398 H436 0.929 . S
N399 Li354 1.990 . S
N399 C396 1.314 . S
N399 C397 1.279 . S
C400 C397 1.358 . S
C400 C401 1.356 . S
C400 H437 0.930 . S
C401 C398 1.348 . S
C401 C400 1.356 . S
H402 C396 0.930 . S
H403 C397 0.930 . S
C404 N405 1.314 . S
C404 C406 1.353 . S
C404 H410 0.930 . S
N405 Li355 1.990 . S
N405 C404 1.314 . S
N405 C408 1.279 . S
C406 C404 1.353 . S
C406 C409 1.348 . S
C406 H438 0.929 . S
C407 C408 1.358 . S
C407 C409 1.356 . S
C407 H439 0.930 . S
C408 N405 1.279 . S
C408 C407 1.358 . S
C408 H411 0.930 . S
C409 C406 1.348 . S
C409 C407 1.356 . S
H410 C404 0.930 . S
H411 C408 0.930 . S
O412 Li352 1.956 . S
O412 Li353 1.970 . S
O412 Li354 1.961 . S
O412 C356 1.325 . S
O413 Li352 1.970 . S
O413 Li353 1.956 . S
O413 Li355 1.961 . S
O413 C362 1.325 . S
O414 Li352 1.961 . S
O414 Li354 1.956 . S
O414 Li355 1.970 . S
O414 C384 1.325 . S
O415 Li353 1.961 . S
O415 Li354 1.970 . S
O415 Li355 1.956 . S
O415 C390 1.325 . S
H416 C358 0.929 . S
H417 C359 0.930 . S
H418 C360 0.930 . S
H419 C361 0.930 . S
H420 C363 0.930 . S
H421 C365 0.929 . S
H422 C366 0.930 . S
H423 C367 0.930 . S
H424 C370 0.930 . S
H425 C373 0.929 . S
H426 C378 0.929 . S
H427 C379 0.930 . S
H428 C386 0.929 . S
H429 C387 0.930 . S
H430 C388 0.930 . S
H431 C389 0.930 . S
H432 C391 0.929 . S
H433 C392 0.930 . S
H434 C393 0.930 . S
H435 C394 0.930 . S
H436 C398 0.929 . S
H437 C400 0.930 . S
H438 C406 0.929 . S
H439 C407 0.930 . S
Li440 N457 1.990 . S
Li440 O500 1.956 . S
Li440 O501 1.970 . S
Li440 O502 1.961 . S
Li441 N465 1.990 . S
Li441 O500 1.970 . S
Li441 O501 1.956 . S
Li441 O503 1.961 . S
Li442 N487 1.990 . S
Li442 O500 1.961 . S
Li442 O502 1.956 . S
Li442 O503 1.970 . S
Li443 N493 1.990 . S
Li443 O501 1.961 . S
Li443 O502 1.970 . S
Li443 O503 1.956 . S
C444 C446 1.348 . S
C444 C447 1.356 . S
C444 O500 1.325 . S
N445 C448 1.314 . S
N445 C449 1.279 . S
C446 C444 1.348 . S
C446 C448 1.353 . S
C446 H504 0.929 . S
C447 C444 1.356 . S
C447 C449 1.358 . S
C447 H505 0.930 . S
C448 N445 1.314 . S
C448 C446 1.353 . S
C448 H506 0.930 . S
C449 N445 1.279 . S
C449 C447 1.358 . S
C449 H507 0.930 . S
C450 C453 1.348 . S
C450 C454 1.356 . S
C450 O501 1.325 . S
C451 N452 1.279 1_565 S
C451 C454 1.358 . S
C451 H508 0.930 . S
N452 C451 1.279 1_545 S
N452 C455 1.314 1_545 S
C453 C450 1.348 . S
C453 C455 1.353 . S
C453 H509 0.929 . S
C454 C450 1.356 . S
C454 C451 1.358 . S
C454 H510 0.930 . S
C455 N452 1.314 1_565 S
C455 C453 1.353 . S
C455 H511 0.930 1_565 S
C456 N457 1.314 . S
C456 C461 1.353 . S
C456 H462 0.930 . S
N457 Li440 1.990 . S
N457 C456 1.314 . S
N457 C459 1.279 . S
C458 C459 1.358 . S
C458 C460 1.356 . S
C458 H512 0.930 . S
C459 N457 1.279 . S
C459 C458 1.358 . S
C459 H463 0.930 . S
C460 C458 1.356 . S
C460 C461 1.348 . S
C461 C456 1.353 . S
C461 C460 1.348 . S
C461 H513 0.929 . S
H462 C456 0.930 . S
H463 C459 0.930 . S
C464 N465 1.314 . S
C464 C466 1.353 . S
C464 H470 0.930 . S
N465 Li441 1.990 . S
N465 C464 1.314 . S
N465 C468 1.279 . S
C466 C464 1.353 . S
C466 C469 1.348 . S
C466 H514 0.929 . S
C467 C468 1.358 . S
C467 C469 1.356 . S
C467 H515 0.930 . S
C468 N465 1.279 . S
C468 C467 1.358 . S
C468 H471 0.930 . S
C469 C466 1.348 . S
C469 C467 1.356 . S
H470 C464 0.930 . S
H471 C468 0.930 . S
C472 C474 1.348 . S
C472 C475 1.356 . S
C472 O502 1.325 . S
N473 C476 1.314 . S
N473 C477 1.279 . S
C474 C472 1.348 . S
C474 C476 1.353 . S
C474 H516 0.929 . S
C475 C472 1.356 . S
C475 C477 1.358 . S
C475 H517 0.930 . S
C476 N473 1.314 . S
C476 C474 1.353 . S
C476 H518 0.930 . S
C477 N473 1.279 . S
C477 C475 1.358 . S
C477 H519 0.930 . S
C478 C479 1.348 . S
C478 C480 1.356 . S
C478 O503 1.325 . S
C479 C478 1.348 . S
C479 C481 1.353 . S
C479 H520 0.929 . S
C480 C478 1.356 . S
C480 C482 1.358 . S
C480 H521 0.930 . S
C481 C479 1.353 . S
C481 N483 1.314 . S
C481 H522 0.930 . S
C482 C480 1.358 . S
C482 N483 1.279 . S
C482 H523 0.930 . S
N483 C481 1.314 . S
N483 C482 1.279 . S
C484 C486 1.353 . S
C484 N487 1.314 . S
C484 H490 0.930 . S
C485 N487 1.279 . S
C485 C488 1.358 . S
C485 H491 0.930 . S
C486 C484 1.353 . S
C486 C489 1.348 . S
C486 H524 0.929 . S
N487 Li442 1.990 . S
N487 C484 1.314 . S
N487 C485 1.279 . S
C488 C485 1.358 . S
C488 C489 1.356 . S
C488 H525 0.930 . S
C489 C486 1.348 . S
C489 C488 1.356 . S
H490 C484 0.930 . S
H491 C485 0.930 . S
C492 N493 1.314 . S
C492 C494 1.353 . S
C492 H498 0.930 . S
N493 Li443 1.990 . S
N493 C492 1.314 . S
N493 C496 1.279 . S
C494 C492 1.353 . S
C494 C497 1.348 . S
C494 H526 0.929 . S
C495 C496 1.358 . S
C495 C497 1.356 . S
C495 H527 0.930 . S
C496 N493 1.279 . S
C496 C495 1.358 . S
C496 H499 0.930 . S
C497 C494 1.348 . S
C497 C495 1.356 . S
H498 C492 0.930 . S
H499 C496 0.930 . S
O500 Li440 1.956 . S
O500 Li441 1.970 . S
O500 Li442 1.961 . S
O500 C444 1.325 . S
O501 Li440 1.970 . S
O501 Li441 1.956 . S
O501 Li443 1.961 . S
O501 C450 1.325 . S
O502 Li440 1.961 . S
O502 Li442 1.956 . S
O502 Li443 1.970 . S
O502 C472 1.325 . S
O503 Li441 1.961 . S
O503 Li442 1.970 . S
O503 Li443 1.956 . S
O503 C478 1.325 . S
H504 C446 0.929 . S
H505 C447 0.930 . S
H506 C448 0.930 . S
H507 C449 0.930 . S
H508 C451 0.930 . S
H509 C453 0.929 . S
H510 C454 0.930 . S
H511 C455 0.930 1_545 S
H512 C458 0.930 . S
H513 C461 0.929 . S
H514 C466 0.929 . S
H515 C467 0.930 . S
H516 C474 0.929 . S
H517 C475 0.930 . S
H518 C476 0.930 . S
H519 C477 0.930 . S
H520 C479 0.929 . S
H521 C480 0.930 . S
H522 C481 0.930 . S
H523 C482 0.930 . S
H524 C486 0.929 . S
H525 C488 0.930 . S
H526 C494 0.929 . S
H527 C495 0.930 . S
Li528 N545 1.990 . S
Li528 O588 1.956 . S
Li528 O589 1.970 . S
Li528 O590 1.961 . S
Li529 N553 1.990 . S
Li529 O588 1.970 . S
Li529 O589 1.956 . S
Li529 O591 1.961 . S
Li530 N575 1.990 . S
Li530 O588 1.961 . S
Li530 O590 1.956 . S
Li530 O591 1.970 . S
Li531 N581 1.990 . S
Li531 O589 1.961 . S
Li531 O590 1.970 . S
Li531 O591 1.956 . S
C532 C534 1.348 . S
C532 C535 1.356 . S
C532 O588 1.325 . S
N533 C536 1.314 . S
N533 C537 1.279 . S
C534 C532 1.348 . S
C534 C536 1.353 . S
C534 H592 0.929 . S
C535 C532 1.356 . S
C535 C537 1.358 . S
C535 H593 0.930 . S
C536 N533 1.314 . S
C536 C534 1.353 . S
C536 H594 0.930 . S
C537 N533 1.279 . S
C537 C535 1.358 . S
C537 H595 0.930 . S
C538 C541 1.348 . S
C538 C542 1.356 . S
C538 O589 1.325 . S
C539 N540 1.279 . S
C539 C542 1.358 . S
C539 H596 0.930 . S
N540 C539 1.279 . S
N540 C543 1.314 . S
C541 C538 1.348 . S
C541 C543 1.353 . S
C541 H597 0.929 . S
C542 C538 1.356 . S
C542 C539 1.358 . S
C542 H598 0.930 . S
C543 N540 1.314 . S
C543 C541 1.353 . S
C543 H599 0.930 . S
C544 N545 1.314 . S
C544 C549 1.353 . S
C544 H550 0.930 . S
N545 Li528 1.990 . S
N545 C544 1.314 . S
N545 C547 1.279 . S
C546 C547 1.358 . S
C546 C548 1.356 . S
C546 H600 0.930 . S
C547 N545 1.279 . S
C547 C546 1.358 . S
C547 H551 0.930 . S
C548 C546 1.356 . S
C548 C549 1.348 . S
C549 C544 1.353 . S
C549 C548 1.348 . S
C549 H601 0.929 . S
H550 C544 0.930 . S
H551 C547 0.930 . S
C552 N553 1.314 . S
C552 C554 1.353 . S
C552 H558 0.930 . S
N553 Li529 1.990 . S
N553 C552 1.314 . S
N553 C556 1.279 . S
C554 C552 1.353 . S
C554 C557 1.348 . S
C554 H602 0.929 . S
C555 C556 1.358 . S
C555 C557 1.356 . S
C555 H603 0.930 . S
C556 N553 1.279 . S
C556 C555 1.358 . S
C556 H559 0.930 . S
C557 C554 1.348 . S
C557 C555 1.356 . S
H558 C552 0.930 . S
H559 C556 0.930 . S
C560 C562 1.348 . S
C560 C563 1.356 . S
C560 O590 1.325 . S
N561 C564 1.314 . S
N561 C565 1.279 . S
C562 C560 1.348 . S
C562 C564 1.353 . S
C562 H604 0.929 . S
C563 C560 1.356 . S
C563 C565 1.358 . S
C563 H605 0.930 . S
C564 N561 1.314 . S
C564 C562 1.353 . S
C564 H606 0.930 . S
C565 N561 1.279 . S
C565 C563 1.358 . S
C565 H607 0.930 . S
C566 C567 1.348 . S
C566 C568 1.356 . S
C566 O591 1.325 . S
C567 C566 1.348 . S
C567 C569 1.353 . S
C567 H608 0.929 . S
C568 C566 1.356 . S
C568 C570 1.358 . S
C568 H609 0.930 . S
C569 C567 1.353 . S
C569 N571 1.314 . S
C569 H610 0.930 . S
C570 C568 1.358 . S
C570 N571 1.279 . S
C570 H611 0.930 . S
N571 C569 1.314 . S
N571 C570 1.279 . S
C572 C574 1.353 . S
C572 N575 1.314 . S
C572 H578 0.930 . S
C573 N575 1.279 . S
C573 C576 1.358 . S
C573 H579 0.930 . S
C574 C572 1.353 . S
C574 C577 1.348 . S
C574 H612 0.929 . S
N575 Li530 1.990 . S
N575 C572 1.314 . S
N575 C573 1.279 . S
C576 C573 1.358 . S
C576 C577 1.356 . S
C576 H613 0.930 . S
C577 C574 1.348 . S
C577 C576 1.356 . S
H578 C572 0.930 . S
H579 C573 0.930 . S
C580 N581 1.314 . S
C580 C582 1.353 . S
C580 H586 0.930 . S
N581 Li531 1.990 . S
N581 C580 1.314 . S
N581 C584 1.279 . S
C582 C580 1.353 . S
C582 C585 1.348 . S
C582 H614 0.929 . S
C583 C584 1.358 . S
C583 C585 1.356 . S
C583 H615 0.930 . S
C584 N581 1.279 . S
C584 C583 1.358 . S
C584 H587 0.930 . S
C585 C582 1.348 . S
C585 C583 1.356 . S
H586 C580 0.930 . S
H587 C584 0.930 . S
O588 Li528 1.956 . S
O588 Li529 1.970 . S
O588 Li530 1.961 . S
O588 C532 1.325 . S
O589 Li528 1.970 . S
O589 Li529 1.956 . S
O589 Li531 1.961 . S
O589 C538 1.325 . S
O590 Li528 1.961 . S
O590 Li530 1.956 . S
O590 Li531 1.970 . S
O590 C560 1.325 . S
O591 Li529 1.961 . S
O591 Li530 1.970 . S
O591 Li531 1.956 . S
O591 C566 1.325 . S
H592 C534 0.929 . S
H593 C535 0.930 . S
H594 C536 0.930 . S
H595 C537 0.930 . S
H596 C539 0.930 . S
H597 C541 0.929 . S
H598 C542 0.930 . S
H599 C543 0.930 . S
H600 C546 0.930 . S
H601 C549 0.929 . S
H602 C554 0.929 . S
H603 C555 0.930 . S
H604 C562 0.929 . S
H605 C563 0.930 . S
H606 C564 0.930 . S
H607 C565 0.930 . S
H608 C567 0.929 . S
H609 C568 0.930 . S
H610 C569 0.930 . S
H611 C570 0.930 . S
H612 C574 0.929 . S
H613 C576 0.930 . S
H614 C582 0.929 . S
H615 C583 0.930 . S
Li616 N633 1.990 . S
Li616 O676 1.956 . S
Li616 O677 1.970 . S
Li616 O678 1.961 . S
Li617 N641 1.990 . S
Li617 O676 1.970 . S
Li617 O677 1.956 . S
Li617 O679 1.961 . S
Li618 N663 1.990 . S
Li618 O676 1.961 . S
Li618 O678 1.956 . S
Li618 O679 1.970 . S
Li619 N669 1.990 . S
Li619 O677 1.961 . S
Li619 O678 1.970 . S
Li619 O679 1.956 . S
C620 C622 1.348 . S
C620 C623 1.356 . S
C620 O676 1.325 . S
N621 C624 1.314 . S
N621 C625 1.279 . S
C622 C620 1.348 . S
C622 C624 1.353 . S
C622 H680 0.929 . S
C623 C620 1.356 . S
C623 C625 1.358 . S
C623 H681 0.930 . S
C624 N621 1.314 . S
C624 C622 1.353 . S
C624 H682 0.930 . S
C625 N621 1.279 . S
C625 C623 1.358 . S
C625 H683 0.930 . S
C626 C629 1.348 . S
C626 C630 1.356 . S
C626 O677 1.325 . S
C627 N628 1.279 . S
C627 C630 1.358 . S
C627 H684 0.930 . S
N628 C627 1.279 . S
N628 C631 1.314 . S
C629 C626 1.348 . S
C629 C631 1.353 . S
C629 H685 0.929 . S
C630 C626 1.356 . S
C630 C627 1.358 . S
C630 H686 0.930 . S
C631 N628 1.314 . S
C631 C629 1.353 . S
C631 H687 0.930 . S
C632 N633 1.314 . S
C632 C637 1.353 . S
C632 H638 0.930 . S
N633 Li616 1.990 . S
N633 C632 1.314 . S
N633 C635 1.279 . S
C634 C635 1.358 . S
C634 C636 1.356 . S
C634 H688 0.930 . S
C635 N633 1.279 . S
C635 C634 1.358 . S
C635 H639 0.930 . S
C636 C634 1.356 . S
C636 C637 1.348 . S
C637 C632 1.353 . S
C637 C636 1.348 . S
C637 H689 0.929 . S
H638 C632 0.930 . S
H639 C635 0.930 . S
C640 N641 1.314 . S
C640 C642 1.353 . S
C640 H646 0.930 . S
N641 Li617 1.990 . S
N641 C640 1.314 . S
N641 C644 1.279 . S
C642 C640 1.353 . S
C642 C645 1.348 . S
C642 H690 0.929 . S
C643 C644 1.358 . S
C643 C645 1.356 . S
C643 H691 0.930 . S
C644 N641 1.279 . S
C644 C643 1.358 . S
C644 H647 0.930 . S
C645 C642 1.348 . S
C645 C643 1.356 . S
H646 C640 0.930 . S
H647 C644 0.930 . S
C648 C650 1.348 . S
C648 C651 1.356 . S
C648 O678 1.325 . S
N649 C652 1.314 . S
N649 C653 1.279 . S
C650 C648 1.348 . S
C650 C652 1.353 . S
C650 H692 0.929 . S
C651 C648 1.356 . S
C651 C653 1.358 . S
C651 H693 0.930 . S
C652 N649 1.314 . S
C652 C650 1.353 . S
C652 H694 0.930 . S
C653 N649 1.279 . S
C653 C651 1.358 . S
C653 H695 0.930 . S
C654 C655 1.348 . S
C654 C656 1.356 . S
C654 O679 1.325 . S
C655 C654 1.348 . S
C655 C657 1.353 . S
C655 H696 0.929 . S
C656 C654 1.356 . S
C656 C658 1.358 . S
C656 H697 0.930 . S
C657 C655 1.353 . S
C657 N659 1.314 1_545 S
C657 H698 0.930 1_545 S
C658 C656 1.358 . S
C658 N659 1.279 1_545 S
C658 H699 0.930 . S
N659 C657 1.314 1_565 S
N659 C658 1.279 1_565 S
C660 C662 1.353 . S
C660 N663 1.314 . S
C660 H666 0.930 . S
C661 N663 1.279 . S
C661 C664 1.358 . S
C661 H667 0.930 . S
C662 C660 1.353 . S
C662 C665 1.348 . S
C662 H700 0.929 . S
N663 Li618 1.990 . S
N663 C660 1.314 . S
N663 C661 1.279 . S
C664 C661 1.358 . S
C664 C665 1.356 . S
C664 H701 0.930 . S
C665 C662 1.348 . S
C665 C664 1.356 . S
H666 C660 0.930 . S
H667 C661 0.930 . S
C668 N669 1.314 . S
C668 C670 1.353 . S
C668 H674 0.930 . S
N669 Li619 1.990 . S
N669 C668 1.314 . S
N669 C672 1.279 . S
C670 C668 1.353 . S
C670 C673 1.348 . S
C670 H702 0.929 . S
C671 C672 1.358 . S
C671 C673 1.356 . S
C671 H703 0.930 . S
C672 N669 1.279 . S
C672 C671 1.358 . S
C672 H675 0.930 . S
C673 C670 1.348 . S
C673 C671 1.356 . S
H674 C668 0.930 . S
H675 C672 0.930 . S
O676 Li616 1.956 . S
O676 Li617 1.970 . S
O676 Li618 1.961 . S
O676 C620 1.325 . S
O677 Li616 1.970 . S
O677 Li617 1.956 . S
O677 Li619 1.961 . S
O677 C626 1.325 . S
O678 Li616 1.961 . S
O678 Li618 1.956 . S
O678 Li619 1.970 . S
O678 C648 1.325 . S
O679 Li617 1.961 . S
O679 Li618 1.970 . S
O679 Li619 1.956 . S
O679 C654 1.325 . S
H680 C622 0.929 . S
H681 C623 0.930 . S
H682 C624 0.930 . S
H683 C625 0.930 . S
H684 C627 0.930 . S
H685 C629 0.929 . S
H686 C630 0.930 . S
H687 C631 0.930 . S
H688 C634 0.930 . S
H689 C637 0.929 . S
H690 C642 0.929 . S
H691 C643 0.930 . S
H692 C650 0.929 . S
H693 C651 0.930 . S
H694 C652 0.930 . S
H695 C653 0.930 . S
H696 C655 0.929 . S
H697 C656 0.930 . S
H698 C657 0.930 1_565 S
H699 C658 0.930 . S
H700 C662 0.929 . S
H701 C664 0.930 . S
H702 C670 0.929 . S
H703 C671 0.930 . S
H704 C712 0.929 . S
H705 C714 0.930 . S
H706 C716 0.930 . S
H707 C719 0.929 . S
H708 C722 0.930 . S
H709 C724 0.960 . S
H710 C724 0.960 . S
H711 C724 0.960 1_455 S
C712 H704 0.929 . S
C712 C713 1.378 . S
C712 C714 1.384 . S
C713 C712 1.378 . S
C713 C719 1.389 1_655 S
C714 H705 0.930 . S
C714 C712 1.384 . S
C714 C715 1.372 . S
C715 C714 1.372 . S
C715 C716 1.400 1_655 S
C715 C720 1.491 . S
C716 H706 0.930 . S
C716 C715 1.400 1_455 S
C716 C719 1.386 . S
H717 C733 0.930 . S
H718 C734 0.931 . S
C719 H707 0.929 . S
C719 C713 1.389 1_455 S
C719 C716 1.386 . S
C720 C715 1.491 . S
C720 C722 1.389 1_655 S
C720 C723 1.409 . S
H721 C727 0.930 . S
C722 H708 0.930 . S
C722 C720 1.389 1_455 S
C722 C725 1.403 . S
C723 C720 1.409 . S
C723 C724 1.524 . S
C723 C727 1.400 . S
C724 H709 0.960 . S
C724 H710 0.960 . S
C724 H711 0.960 1_655 S
C724 C723 1.524 . S
C725 C722 1.403 . S
C725 C726 1.395 . S
C725 C729 1.495 . S
C726 C725 1.395 . S
C726 C727 1.382 1_455 S
C726 C728 1.478 . S
C727 H721 0.930 . S
C727 C723 1.400 . S
C727 C726 1.382 1_655 S
C728 C726 1.478 . S
C728 C730 1.381 1_455 S
C728 C734 1.383 . S
C729 C725 1.495 . S
C729 H735 0.959 . S
C729 H736 0.961 . S
C729 H737 0.960 1_455 S
C730 C728 1.381 1_655 S
C730 C731 1.394 . S
C730 H738 0.930 . S
C731 C730 1.394 . S
C731 C732 1.359 1_655 S
C731 H739 0.929 . S
C732 C731 1.359 1_455 S
C732 C733 1.401 . S
C733 H717 0.930 . S
C733 C732 1.401 . S
C733 C734 1.379 . S
C734 H718 0.931 . S
C734 C728 1.383 . S
C734 C733 1.379 . S
H735 C729 0.959 . S
H736 C729 0.961 . S
H737 C729 0.960 1_655 S
H738 C730 0.930 . S
H739 C731 0.929 . S
H740 C748 0.929 . S
H741 C750 0.930 . S
H742 C752 0.930 . S
H743 C755 0.929 . S
H744 C758 0.930 . S
H745 C760 0.960 . S
H746 C760 0.960 . S
H747 C760 0.960 . S
C748 H740 0.929 . S
C748 C749 1.388 . S
C748 C750 1.384 . S
C749 C748 1.388 . S
C749 C755 1.379 1_455 S
C750 H741 0.930 . S
C750 C748 1.384 . S
C750 C751 1.372 . S
C751 C750 1.372 . S
C751 C752 1.400 1_455 S
C751 C756 1.490 . S
C752 H742 0.930 . S
C752 C751 1.400 1_655 S
C752 C755 1.386 . S
H753 C769 0.930 . S
H754 C770 0.931 . S
C755 H743 0.929 . S
C755 C749 1.379 1_655 S
C755 C752 1.386 . S
C756 C751 1.490 . S
C756 C758 1.395 . S
C756 C759 1.403 1_455 S
H757 C763 0.930 . S
C758 H744 0.930 . S
C758 C756 1.395 . S
C758 C761 1.403 . S
C759 C756 1.403 1_655 S
C759 C760 1.524 . S
C759 C763 1.400 . S
C760 H745 0.960 . S
C760 H746 0.960 . S
C760 H747 0.960 . S
C760 C759 1.524 . S
C761 C758 1.403 . S
C761 C762 1.392 . S
C761 C765 1.495 . S
C762 C761 1.392 . S
C762 C763 1.385 1_455 S
C762 C764 1.478 . S
C763 H757 0.930 . S
C763 C759 1.400 . S
C763 C762 1.385 1_655 S
C764 C762 1.478 . S
C764 C766 1.381 . S
C764 C770 1.383 1_455 S
C765 C761 1.495 . S
C765 H771 0.959 . S
C765 H772 0.961 . S
C765 H773 0.960 . S
C766 C764 1.381 . S
C766 C767 1.394 . S
C766 H774 0.930 . S
C767 C766 1.394 . S
C767 C768 1.383 . S
C767 H775 0.929 . S
C768 C767 1.383 . S
C768 C769 1.377 1_455 S
C769 H753 0.930 . S
C769 C768 1.377 1_655 S
C769 C770 1.379 . S
C770 H754 0.931 . S
C770 C764 1.383 1_655 S
C770 C769 1.379 . S
H771 C765 0.959 . S
H772 C765 0.961 . S
H773 C765 0.960 . S
H774 C766 0.930 . S
H775 C767 0.929 . S
H776 C784 0.929 . S
H777 C786 0.930 . S
H778 C788 0.930 . S
H779 C791 0.929 . S
H780 C794 0.930 . S
H781 C796 0.960 . S
H782 C796 0.960 . S
H783 C796 0.960 . S
C784 H776 0.929 . S
C784 C785 1.377 . S
C784 C786 1.384 . S
C785 C784 1.377 . S
C785 C791 1.390 . S
C786 H777 0.930 . S
C786 C784 1.384 . S
C786 C787 1.372 . S
C787 C786 1.372 . S
C787 C788 1.400 . S
C787 C792 1.490 . S
C788 H778 0.930 . S
C788 C787 1.400 . S
C788 C791 1.386 . S
H789 C805 0.930 . S
H790 C806 0.931 . S
C791 H779 0.929 . S
C791 C785 1.390 . S
C791 C788 1.386 . S
C792 C787 1.490 . S
C792 C794 1.395 . S
C792 C795 1.403 . S
H793 C799 0.930 . S
C794 H780 0.930 . S
C794 C792 1.395 . S
C794 C797 1.403 . S
C795 C792 1.403 . S
C795 C796 1.524 . S
C795 C799 1.400 . S
C796 H781 0.960 . S
C796 H782 0.960 . S
C796 H783 0.960 . S
C796 C795 1.524 . S
C797 C794 1.403 . S
C797 C798 1.392 . S
C797 C801 1.495 . S
C798 C797 1.392 . S
C798 C799 1.385 . S
C798 C800 1.478 . S
C799 H793 0.930 . S
C799 C795 1.400 . S
C799 C798 1.385 . S
C800 C798 1.478 . S
C800 C802 1.381 . S
C800 C806 1.383 . S
C801 C797 1.495 . S
C801 H807 0.959 . S
C801 H808 0.961 . S
C801 H809 0.960 . S
C802 C800 1.381 . S
C802 C803 1.394 . S
C802 H810 0.930 . S
C803 C802 1.394 . S
C803 C804 1.383 . S
C803 H811 0.929 . S
C804 C803 1.383 . S
C804 C805 1.377 . S
C805 H789 0.930 . S
C805 C804 1.377 . S
C805 C806 1.379 . S
C806 H790 0.931 . S
C806 C800 1.383 . S
C806 C805 1.379 . S
H807 C801 0.959 . S
H808 C801 0.961 . S
H809 C801 0.960 . S
H810 C802 0.930 . S
H811 C803 0.929 . S
H812 C820 0.929 . S
H813 C822 0.930 . S
H814 C824 0.930 . S
H815 C827 0.929 . S
H816 C830 0.930 . S
H817 C832 0.960 . S
H818 C832 0.960 . S
H819 C832 0.960 . S
C820 H812 0.929 . S
C820 C821 1.377 . S
C820 C822 1.384 . S
C821 C820 1.377 . S
C821 C827 1.390 . S
C822 H813 0.930 . S
C822 C820 1.384 . S
C822 C823 1.372 . S
C823 C822 1.372 . S
C823 C824 1.400 . S
C823 C828 1.490 . S
C824 H814 0.930 . S
C824 C823 1.400 . S
C824 C827 1.386 . S
H825 C841 0.930 . S
H826 C842 0.931 . S
C827 H815 0.929 . S
C827 C821 1.390 . S
C827 C824 1.386 . S
C828 C823 1.490 . S
C828 C830 1.395 . S
C828 C831 1.403 . S
H829 C835 0.930 . S
C830 H816 0.930 . S
C830 C828 1.395 . S
C830 C833 1.403 . S
C831 C828 1.403 . S
C831 C832 1.524 . S
C831 C835 1.400 . S
C832 H817 0.960 . S
C832 H818 0.960 . S
C832 H819 0.960 . S
C832 C831 1.524 . S
C833 C830 1.403 . S
C833 C834 1.392 . S
C833 C837 1.495 . S
C834 C833 1.392 . S
C834 C835 1.385 . S
C834 C836 1.478 . S
C835 H829 0.930 . S
C835 C831 1.400 . S
C835 C834 1.385 . S
C836 C834 1.478 . S
C836 C838 1.381 . S
C836 C842 1.383 . S
C837 C833 1.495 . S
C837 H843 0.959 . S
C837 H844 0.961 . S
C837 H845 0.960 . S
C838 C836 1.381 . S
C838 C839 1.394 . S
C838 H846 0.930 . S
C839 C838 1.394 . S
C839 C840 1.383 . S
C839 H847 0.929 . S
C840 C839 1.383 . S
C840 C841 1.377 . S
C841 H825 0.930 . S
C841 C840 1.377 . S
C841 C842 1.379 . S
C842 H826 0.931 . S
C842 C836 1.383 . S
C842 C841 1.379 . S
H843 C837 0.959 . S
H844 C837 0.961 . S
H845 C837 0.960 . S
H846 C838 0.930 . S
H847 C839 0.929 . S
H848 C856 0.929 . S
H849 C858 0.930 . S
H850 C860 0.930 . S
H851 C863 0.929 . S
H852 C866 0.930 . S
H853 C868 0.960 . S
H854 C868 0.960 . S
H855 C868 0.960 . S
C856 H848 0.929 . S
C856 C857 1.377 . S
C856 C858 1.384 . S
C857 C856 1.377 . S
C857 C863 1.390 . S
C858 H849 0.930 . S
C858 C856 1.384 . S
C858 C859 1.372 . S
C859 C858 1.372 . S
C859 C860 1.400 . S
C859 C864 1.490 . S
C860 H850 0.930 . S
C860 C859 1.400 . S
C860 C863 1.386 . S
H861 C877 0.930 . S
H862 C878 0.931 . S
C863 H851 0.929 . S
C863 C857 1.390 . S
C863 C860 1.386 . S
C864 C859 1.490 . S
C864 C866 1.395 . S
C864 C867 1.403 . S
H865 C871 0.930 . S
C866 H852 0.930 . S
C866 C864 1.395 . S
C866 C869 1.403 . S
C867 C864 1.403 . S
C867 C868 1.524 . S
C867 C871 1.400 . S
C868 H853 0.960 . S
C868 H854 0.960 . S
C868 H855 0.960 . S
C868 C867 1.524 . S
C869 C866 1.403 . S
C869 C870 1.392 . S
C869 C873 1.495 . S
C870 C869 1.392 . S
C870 C871 1.385 . S
C870 C872 1.478 . S
C871 H865 0.930 . S
C871 C867 1.400 . S
C871 C870 1.385 . S
C872 C870 1.478 . S
C872 C874 1.381 . S
C872 C878 1.383 . S
C873 C869 1.495 . S
C873 H879 0.959 . S
C873 H880 0.961 . S
C873 H881 0.960 . S
C874 C872 1.381 . S
C874 C875 1.394 . S
C874 H882 0.930 . S
C875 C874 1.394 . S
C875 C876 1.383 . S
C875 H883 0.929 . S
C876 C875 1.383 . S
C876 C877 1.377 . S
C877 H861 0.930 . S
C877 C876 1.377 . S
C877 C878 1.379 . S
C878 H862 0.931 . S
C878 C872 1.383 . S
C878 C877 1.379 . S
H879 C873 0.959 . S
H880 C873 0.961 . S
H881 C873 0.960 . S
H882 C874 0.930 . S
H883 C875 0.929 . S
H884 C892 0.929 . S
H885 C894 0.930 . S
H886 C896 0.930 . S
H887 C899 0.929 . S
H888 C902 0.930 . S
H889 C904 0.960 . S
H890 C904 0.960 . S
H891 C904 0.960 . S
C892 H884 0.929 . S
C892 C893 1.377 . S
C892 C894 1.384 . S
C893 C892 1.377 . S
C893 C899 1.390 . S
C894 H885 0.930 . S
C894 C892 1.384 . S
C894 C895 1.372 . S
C895 C894 1.372 . S
C895 C896 1.400 . S
C895 C900 1.490 . S
C896 H886 0.930 . S
C896 C895 1.400 . S
C896 C899 1.386 . S
H897 C913 0.930 . S
H898 C914 0.931 . S
C899 H887 0.929 . S
C899 C893 1.390 . S
C899 C896 1.386 . S
C900 C895 1.490 . S
C900 C902 1.395 . S
C900 C903 1.403 . S
H901 C907 0.930 . S
C902 H888 0.930 . S
C902 C900 1.395 . S
C902 C905 1.403 . S
C903 C900 1.403 . S
C903 C904 1.524 . S
C903 C907 1.400 . S
C904 H889 0.960 . S
C904 H890 0.960 . S
C904 H891 0.960 . S
C904 C903 1.524 . S
C905 C902 1.403 . S
C905 C906 1.392 . S
C905 C909 1.495 . S
C906 C905 1.392 . S
C906 C907 1.385 . S
C906 C908 1.478 . S
C907 H901 0.930 . S
C907 C903 1.400 . S
C907 C906 1.385 . S
C908 C906 1.478 . S
C908 C910 1.381 . S
C908 C914 1.383 . S
C909 C905 1.495 . S
C909 H915 0.959 . S
C909 H916 0.961 . S
C909 H917 0.960 . S
C910 C908 1.381 . S
C910 C911 1.394 . S
C910 H918 0.930 . S
C911 C910 1.394 . S
C911 C912 1.383 . S
C911 H919 0.929 . S
C912 C911 1.383 . S
C912 C913 1.377 . S
C913 H897 0.930 . S
C913 C912 1.377 . S
C913 C914 1.379 . S
C914 H898 0.931 . S
C914 C908 1.383 . S
C914 C913 1.379 . S
H915 C909 0.959 . S
H916 C909 0.961 . S
H917 C909 0.960 . S
H918 C910 0.930 . S
H919 C911 0.929 . S
H920 C928 0.929 . S
H921 C930 0.930 . S
H922 C932 0.930 . S
H923 C935 0.929 . S
H924 C938 0.930 . S
H925 C940 0.960 . S
H926 C940 0.960 . S
H927 C940 0.960 . S
C928 H920 0.929 . S
C928 C929 1.377 . S
C928 C930 1.384 . S
C929 C928 1.377 . S
C929 C935 1.390 . S
C930 H921 0.930 . S
C930 C928 1.384 . S
C930 C931 1.372 . S
C931 C930 1.372 . S
C931 C932 1.400 . S
C931 C936 1.490 . S
C932 H922 0.930 . S
C932 C931 1.400 . S
C932 C935 1.386 . S
H933 C949 0.930 . S
H934 C950 0.931 . S
C935 H923 0.929 . S
C935 C929 1.390 . S
C935 C932 1.386 . S
C936 C931 1.490 . S
C936 C938 1.395 . S
C936 C939 1.403 . S
H937 C943 0.930 . S
C938 H924 0.930 . S
C938 C936 1.395 . S
C938 C941 1.403 . S
C939 C936 1.403 . S
C939 C940 1.524 . S
C939 C943 1.400 . S
C940 H925 0.960 . S
C940 H926 0.960 . S
C940 H927 0.960 . S
C940 C939 1.524 . S
C941 C938 1.403 . S
C941 C942 1.392 . S
C941 C945 1.495 . S
C942 C941 1.392 . S
C942 C943 1.385 . S
C942 C944 1.478 . S
C943 H937 0.930 . S
C943 C939 1.400 . S
C943 C942 1.385 . S
C944 C942 1.478 . S
C944 C946 1.381 . S
C944 C950 1.383 . S
C945 C941 1.495 . S
C945 H951 0.959 . S
C945 H952 0.961 . S
C945 H953 0.960 . S
C946 C944 1.381 . S
C946 C947 1.394 . S
C946 H954 0.930 . S
C947 C946 1.394 . S
C947 C948 1.383 . S
C947 H955 0.929 . S
C948 C947 1.383 . S
C948 C949 1.377 . S
C949 H933 0.930 . S
C949 C948 1.377 . S
C949 C950 1.379 . S
C950 H934 0.931 . S
C950 C944 1.383 . S
C950 C949 1.379 . S
H951 C945 0.959 . S
H952 C945 0.961 . S
H953 C945 0.960 . S
H954 C946 0.930 . S
H955 C947 0.929 . S
H956 C964 0.929 . S
H957 C966 0.930 . S
H958 C968 0.930 . S
H959 C971 0.929 . S
H960 C974 0.930 . S
H961 C976 0.960 . S
H962 C976 0.960 . S
H963 C976 0.960 . S
C964 H956 0.929 . S
C964 C965 1.377 . S
C964 C966 1.384 . S
C965 C964 1.377 . S
C965 C971 1.390 . S
C966 H957 0.930 . S
C966 C964 1.384 . S
C966 C967 1.372 . S
C967 C966 1.372 . S
C967 C968 1.400 . S
C967 C972 1.490 . S
C968 H958 0.930 . S
C968 C967 1.400 . S
C968 C971 1.386 . S
H969 C985 0.930 . S
H970 C986 0.931 . S
C971 H959 0.929 . S
C971 C965 1.390 . S
C971 C968 1.386 . S
C972 C967 1.490 . S
C972 C974 1.395 . S
C972 C975 1.403 . S
H973 C979 0.930 . S
C974 H960 0.930 . S
C974 C972 1.395 . S
C974 C977 1.403 . S
C975 C972 1.403 . S
C975 C976 1.524 . S
C975 C979 1.400 . S
C976 H961 0.960 . S
C976 H962 0.960 . S
C976 H963 0.960 . S
C976 C975 1.524 . S
C977 C974 1.403 . S
C977 C978 1.392 . S
C977 C981 1.495 . S
C978 C977 1.392 . S
C978 C979 1.385 . S
C978 C980 1.478 . S
C979 H973 0.930 . S
C979 C975 1.400 . S
C979 C978 1.385 . S
C980 C978 1.478 . S
C980 C982 1.381 . S
C980 C986 1.383 . S
C981 C977 1.495 . S
C981 H987 0.959 . S
C981 H988 0.961 . S
C981 H989 0.960 . S
C982 C980 1.381 . S
C982 C983 1.394 . S
C982 H990 0.930 . S
C983 C982 1.394 . S
C983 C984 1.383 . S
C983 H991 0.929 . S
C984 C983 1.383 . S
C984 C985 1.377 . S
C985 H969 0.930 . S
C985 C984 1.377 . S
C985 C986 1.379 . S
C986 H970 0.931 . S
C986 C980 1.383 . S
C986 C985 1.379 . S
H987 C981 0.959 . S
H988 C981 0.961 . S
H989 C981 0.960 . S
H990 C982 0.930 . S
H991 C983 0.929 . S
H992 C1000 0.929 . S
H993 C1002 0.930 . S
H994 C1004 0.930 . S
H995 C1007 0.929 . S
H996 C1010 0.930 . S
H997 C1012 0.960 . S
H998 C1012 0.960 . S
H999 C1012 0.960 . S
C1000 H992 0.929 . S
C1000 C1001 1.377 . S
C1000 C1002 1.384 . S
C1001 C1000 1.377 . S
C1001 C1007 1.390 . S
C1002 H993 0.930 . S
C1002 C1000 1.384 . S
C1002 C1003 1.372 . S
C1003 C1002 1.372 . S
C1003 C1004 1.400 . S
C1003 C1008 1.490 . S
C1004 H994 0.930 . S
C1004 C1003 1.400 . S
C1004 C1007 1.386 . S
H1005 C1021 0.930 . S
H1006 C1022 0.931 . S
C1007 H995 0.929 . S
C1007 C1001 1.390 . S
C1007 C1004 1.386 . S
C1008 C1003 1.490 . S
C1008 C1010 1.395 . S
C1008 C1011 1.403 . S
H1009 C1015 0.930 . S
C1010 H996 0.930 . S
C1010 C1008 1.395 . S
C1010 C1013 1.403 . S
C1011 C1008 1.403 . S
C1011 C1012 1.524 . S
C1011 C1015 1.400 . S
C1012 H997 0.960 . S
C1012 H998 0.960 . S
C1012 H999 0.960 . S
C1012 C1011 1.524 . S
C1013 C1010 1.403 . S
C1013 C1014 1.392 . S
C1013 C1017 1.495 . S
C1014 C1013 1.392 . S
C1014 C1015 1.385 . S
C1014 C1016 1.478 . S
C1015 H1009 0.930 . S
C1015 C1011 1.400 . S
C1015 C1014 1.385 . S
C1016 C1014 1.478 . S
C1016 C1018 1.381 . S
C1016 C1022 1.383 . S
C1017 C1013 1.495 . S
C1017 H1023 0.959 . S
C1017 H1024 0.961 . S
C1017 H1025 0.960 . S
C1018 C1016 1.381 . S
C1018 C1019 1.394 . S
C1018 H1026 0.930 . S
C1019 C1018 1.394 . S
C1019 C1020 1.383 . S
C1019 H1027 0.929 . S
C1020 C1019 1.383 . S
C1020 C1021 1.377 . S
C1021 H1005 0.930 . S
C1021 C1020 1.377 . S
C1021 C1022 1.379 . S
C1022 H1006 0.931 . S
C1022 C1016 1.383 . S
C1022 C1021 1.379 . S
H1023 C1017 0.959 . S
H1024 C1017 0.961 . S
H1025 C1017 0.960 . S
H1026 C1018 0.930 . S
H1027 C1019 0.929 . S
H1028 C1036 0.929 . S
H1029 C1038 0.930 . S
H1030 C1040 0.930 . S
H1031 C1043 0.929 . S
H1032 C1046 0.930 . S
H1033 C1048 0.960 . S
H1034 C1048 0.960 . S
H1035 C1048 0.960 . S
C1036 H1028 0.929 . S
C1036 C1037 1.377 . S
C1036 C1038 1.384 . S
C1037 C1036 1.377 . S
C1037 C1043 1.390 . S
C1038 H1029 0.930 . S
C1038 C1036 1.384 . S
C1038 C1039 1.372 . S
C1039 C1038 1.372 . S
C1039 C1040 1.400 . S
C1039 C1044 1.490 . S
C1040 H1030 0.930 . S
C1040 C1039 1.400 . S
C1040 C1043 1.386 . S
H1041 C1057 0.930 . S
H1042 C1058 0.931 . S
C1043 H1031 0.929 . S
C1043 C1037 1.390 . S
C1043 C1040 1.386 . S
C1044 C1039 1.490 . S
C1044 C1046 1.395 . S
C1044 C1047 1.403 . S
H1045 C1051 0.930 . S
C1046 H1032 0.930 . S
C1046 C1044 1.395 . S
C1046 C1049 1.403 . S
C1047 C1044 1.403 . S
C1047 C1048 1.524 . S
C1047 C1051 1.400 . S
C1048 H1033 0.960 . S
C1048 H1034 0.960 . S
C1048 H1035 0.960 . S
C1048 C1047 1.524 . S
C1049 C1046 1.403 . S
C1049 C1050 1.392 . S
C1049 C1053 1.495 . S
C1050 C1049 1.392 . S
C1050 C1051 1.385 . S
C1050 C1052 1.478 . S
C1051 H1045 0.930 . S
C1051 C1047 1.400 . S
C1051 C1050 1.385 . S
C1052 C1050 1.478 . S
C1052 C1054 1.381 . S
C1052 C1058 1.383 . S
C1053 C1049 1.495 . S
C1053 H1059 0.959 . S
C1053 H1060 0.961 . S
C1053 H1061 0.960 . S
C1054 C1052 1.381 . S
C1054 C1055 1.394 . S
C1054 H1062 0.930 . S
C1055 C1054 1.394 . S
C1055 C1056 1.383 . S
C1055 H1063 0.929 . S
C1056 C1055 1.383 . S
C1056 C1057 1.377 . S
C1057 H1041 0.930 . S
C1057 C1056 1.377 . S
C1057 C1058 1.379 . S
C1058 H1042 0.931 . S
C1058 C1052 1.383 . S
C1058 C1057 1.379 . S
H1059 C1053 0.959 . S
H1060 C1053 0.961 . S
H1061 C1053 0.960 . S
H1062 C1054 0.930 . S
H1063 C1055 0.929 . S
H1064 C1072 0.929 . S
H1065 C1074 0.930 . S
H1066 C1076 0.930 . S
H1067 C1079 0.929 . S
H1068 C1082 0.930 . S
H1069 C1084 0.960 . S
H1070 C1084 0.960 . S
H1071 C1084 0.960 . S
C1072 H1064 0.929 . S
C1072 C1073 1.377 . S
C1072 C1074 1.384 . S
C1073 C1072 1.377 . S
C1073 C1079 1.390 . S
C1074 H1065 0.930 . S
C1074 C1072 1.384 . S
C1074 C1075 1.372 . S
C1075 C1074 1.372 . S
C1075 C1076 1.400 . S
C1075 C1080 1.490 . S
C1076 H1066 0.930 . S
C1076 C1075 1.400 . S
C1076 C1079 1.386 . S
H1077 C1093 0.930 . S
H1078 C1094 0.931 . S
C1079 H1067 0.929 . S
C1079 C1073 1.390 . S
C1079 C1076 1.386 . S
C1080 C1075 1.490 . S
C1080 C1082 1.395 . S
C1080 C1083 1.403 . S
H1081 C1087 0.930 . S
C1082 H1068 0.930 . S
C1082 C1080 1.395 . S
C1082 C1085 1.403 . S
C1083 C1080 1.403 . S
C1083 C1084 1.524 . S
C1083 C1087 1.400 . S
C1084 H1069 0.960 . S
C1084 H1070 0.960 . S
C1084 H1071 0.960 . S
C1084 C1083 1.524 . S
C1085 C1082 1.403 . S
C1085 C1086 1.392 . S
C1085 C1089 1.495 . S
C1086 C1085 1.392 . S
C1086 C1087 1.385 . S
C1086 C1088 1.478 . S
C1087 H1081 0.930 . S
C1087 C1083 1.400 . S
C1087 C1086 1.385 . S
C1088 C1086 1.478 . S
C1088 C1090 1.381 . S
C1088 C1094 1.383 . S
C1089 C1085 1.495 . S
C1089 H1095 0.959 . S
C1089 H1096 0.961 . S
C1089 H1097 0.960 . S
C1090 C1088 1.381 . S
C1090 C1091 1.394 . S
C1090 H1098 0.930 . S
C1091 C1090 1.394 . S
C1091 C1092 1.383 . S
C1091 H1099 0.929 . S
C1092 C1091 1.383 . S
C1092 C1093 1.377 . S
C1093 H1077 0.930 . S
C1093 C1092 1.377 . S
C1093 C1094 1.379 . S
C1094 H1078 0.931 . S
C1094 C1088 1.383 . S
C1094 C1093 1.379 . S
H1095 C1089 0.959 . S
H1096 C1089 0.961 . S
H1097 C1089 0.960 . S
H1098 C1090 0.930 . S
H1099 C1091 0.929 . S
H1100 C1108 0.929 . S
H1101 C1110 0.930 . S
H1102 C1112 0.930 . S
H1103 C1115 0.929 . S
H1104 C1118 0.930 . S
H1105 C1120 0.960 . S
H1106 C1120 0.960 . S
H1107 C1120 0.960 . S
C1108 H1100 0.929 . S
C1108 C1109 1.377 . S
C1108 C1110 1.384 . S
C1109 C1108 1.377 . S
C1109 C1115 1.390 . S
C1110 H1101 0.930 . S
C1110 C1108 1.384 . S
C1110 C1111 1.372 . S
C1111 C1110 1.372 . S
C1111 C1112 1.400 . S
C1111 C1116 1.490 . S
C1112 H1102 0.930 . S
C1112 C1111 1.400 . S
C1112 C1115 1.386 . S
H1113 C1129 0.930 . S
H1114 C1130 0.931 . S
C1115 H1103 0.929 . S
C1115 C1109 1.390 . S
C1115 C1112 1.386 . S
C1116 C1111 1.490 . S
C1116 C1118 1.395 . S
C1116 C1119 1.403 . S
H1117 C1123 0.930 . S
C1118 H1104 0.930 . S
C1118 C1116 1.395 . S
C1118 C1121 1.403 . S
C1119 C1116 1.403 . S
C1119 C1120 1.524 . S
C1119 C1123 1.400 . S
C1120 H1105 0.960 . S
C1120 H1106 0.960 . S
C1120 H1107 0.960 . S
C1120 C1119 1.524 . S
C1121 C1118 1.403 . S
C1121 C1122 1.392 . S
C1121 C1125 1.495 . S
C1122 C1121 1.392 . S
C1122 C1123 1.385 . S
C1122 C1124 1.478 . S
C1123 H1117 0.930 . S
C1123 C1119 1.400 . S
C1123 C1122 1.385 . S
C1124 C1122 1.478 . S
C1124 C1126 1.381 . S
C1124 C1130 1.383 . S
C1125 C1121 1.495 . S
C1125 H1131 0.959 . S
C1125 H1132 0.961 . S
C1125 H1133 0.960 . S
C1126 C1124 1.381 . S
C1126 C1127 1.394 . S
C1126 H1134 0.930 . S
C1127 C1126 1.394 . S
C1127 C1128 1.383 . S
C1127 H1135 0.929 . S
C1128 C1127 1.383 . S
C1128 C1129 1.377 . S
C1129 H1113 0.930 . S
C1129 C1128 1.377 . S
C1129 C1130 1.379 . S
C1130 H1114 0.931 . S
C1130 C1124 1.383 . S
C1130 C1129 1.379 . S
H1131 C1125 0.959 . S
H1132 C1125 0.961 . S
H1133 C1125 0.960 . S
H1134 C1126 0.930 . S
H1135 C1127 0.929 . S
H1136 C1144 0.929 1_565 S
H1137 C1146 0.948 . S
H1138 C1148 0.930 . S
H1139 C1151 0.929 . S
H1140 C1154 0.930 . S
H1141 C1156 0.970 . S
H1142 C1156 0.960 . S
H1143 C1156 0.960 . S
C1144 H1136 0.929 1_545 S
C1144 C1145 1.379 . S
C1144 C1146 1.378 1_545 S
C1145 C1144 1.379 . S
C1145 C1151 1.390 . S
C1146 H1137 0.948 . S
C1146 C1144 1.378 1_565 S
C1146 C1147 1.362 1_565 S
C1147 C1146 1.362 1_545 S
C1147 C1148 1.400 . S
C1147 C1152 1.489 . S
C1148 H1138 0.930 . S
C1148 C1147 1.400 . S
C1148 C1151 1.386 . S
H1149 C1165 0.930 1_545 S
H1150 C1166 0.931 1_545 S
C1151 H1139 0.929 . S
C1151 C1145 1.390 . S
C1151 C1148 1.386 . S
C1152 C1147 1.489 . S
C1152 C1154 1.398 1_445 S
C1152 C1155 1.400 . S
H1153 C1159 0.930 . S
C1154 H1140 0.930 . S
C1154 C1152 1.398 1_665 S
C1154 C1157 1.403 1_554 S
C1155 C1152 1.400 . S
C1155 C1156 1.524 . S
C1155 C1159 1.400 1_554 S
C1156 H1141 0.970 . S
C1156 H1142 0.960 . S
C1156 H1143 0.960 . S
C1156 C1155 1.524 . S
C1157 C1154 1.403 1_556 S
C1157 C1158 1.392 . S
C1157 C1161 1.495 . S
C1158 C1157 1.392 . S
C1158 C1159 1.385 1_665 S
C1158 C1160 1.478 . S
C1159 H1153 0.930 . S
C1159 C1155 1.400 1_556 S
C1159 C1158 1.385 1_445 S
C1160 C1158 1.478 . S
C1160 C1162 1.383 . S
C1160 C1166 1.383 . S
C1161 C1157 1.495 . S
C1161 H1167 0.947 1_556 S
C1161 H1168 0.961 . S
C1161 H1169 0.960 . S
C1162 C1160 1.383 . S
C1162 C1163 1.393 1_655 S
C1162 H1170 0.929 1_655 S
C1163 C1162 1.393 1_455 S
C1163 C1164 1.383 1_455 S
C1163 H1171 0.929 . S
C1164 C1163 1.383 1_655 S
C1164 C1165 1.377 . S
C1165 H1149 0.930 1_565 S
C1165 C1164 1.377 . S
C1165 C1166 1.379 . S
C1166 H1150 0.931 1_565 S
C1166 C1160 1.383 . S
C1166 C1165 1.379 . S
H1167 C1161 0.947 1_554 S
H1168 C1161 0.961 . S
H1169 C1161 0.960 . S
H1170 C1162 0.929 1_455 S
H1171 C1163 0.929 . S
H1172 C1180 0.929 . S
H1173 C1182 0.930 . S
H1174 C1184 0.930 . S
H1175 C1187 0.929 . S
H1176 C1190 0.930 . S
H1177 C1192 0.960 1_554 S
H1178 C1192 0.960 . S
H1179 C1192 0.960 . S
C1180 H1172 0.929 . S
C1180 C1181 1.383 . S
C1180 C1182 1.384 . S
C1181 C1180 1.383 . S
C1181 C1187 1.384 1_655 S
C1182 H1173 0.930 . S
C1182 C1180 1.384 . S
C1182 C1183 1.372 . S
C1183 C1182 1.372 . S
C1183 C1184 1.400 1_655 S
C1183 C1188 1.490 . S
C1184 H1174 0.930 . S
C1184 C1183 1.400 1_455 S
C1184 C1187 1.386 . S
H1185 C1201 0.930 . S
H1186 C1202 0.931 . S
C1187 H1175 0.929 . S
C1187 C1181 1.384 1_455 S
C1187 C1184 1.386 . S
C1188 C1183 1.490 . S
C1188 C1190 1.395 . S
C1188 C1191 1.403 1_655 S
H1189 C1195 0.930 . S
C1190 H1176 0.930 . S
C1190 C1188 1.395 . S
C1190 C1193 1.403 1_556 S
C1191 C1188 1.403 1_455 S
C1191 C1192 1.524 . S
C1191 C1195 1.400 1_556 S
C1192 H1177 0.960 1_556 S
C1192 H1178 0.960 . S
C1192 H1179 0.960 . S
C1192 C1191 1.524 . S
C1193 C1190 1.403 1_554 S
C1193 C1194 1.392 . S
C1193 C1197 1.495 . S
C1194 C1193 1.392 . S
C1194 C1195 1.385 1_655 S
C1194 C1196 1.478 . S
C1195 H1189 0.930 . S
C1195 C1191 1.400 1_554 S
C1195 C1194 1.385 1_455 S
C1196 C1194 1.478 . S
C1196 C1198 1.381 . S
C1196 C1202 1.383 1_655 S
C1197 C1193 1.495 . S
C1197 H1203 0.959 1_554 S
C1197 H1204 0.961 . S
C1197 H1205 0.960 . S
C1198 C1196 1.381 . S
C1198 C1199 1.394 . S
C1198 H1206 0.930 . S
C1199 C1198 1.394 . S
C1199 C1200 1.383 . S
C1199 H1207 0.929 . S
C1200 C1199 1.383 . S
C1200 C1201 1.377 1_655 S
C1201 H1185 0.930 . S
C1201 C1200 1.377 1_455 S
C1201 C1202 1.379 . S
C1202 H1186 0.931 . S
C1202 C1196 1.383 1_455 S
C1202 C1201 1.379 . S
H1203 C1197 0.959 1_556 S
H1204 C1197 0.961 . S
H1205 C1197 0.960 . S
H1206 C1198 0.930 . S
H1207 C1199 0.929 . S
H1208 C1216 0.929 . S
H1209 C1218 0.930 . S
H1210 C1220 0.930 . S
H1211 C1223 0.929 . S
H1212 C1226 0.930 . S
H1213 C1228 0.960 . S
H1214 C1228 0.960 . S
H1215 C1228 0.960 . S
C1216 H1208 0.929 . S
C1216 C1217 1.377 . S
C1216 C1218 1.384 . S
C1217 C1216 1.377 . S
C1217 C1223 1.390 . S
C1218 H1209 0.930 . S
C1218 C1216 1.384 . S
C1218 C1219 1.372 . S
C1219 C1218 1.372 . S
C1219 C1220 1.400 . S
C1219 C1224 1.490 . S
C1220 H1210 0.930 . S
C1220 C1219 1.400 . S
C1220 C1223 1.386 . S
H1221 C1237 0.930 . S
H1222 C1238 0.931 . S
C1223 H1211 0.929 . S
C1223 C1217 1.390 . S
C1223 C1220 1.386 . S
C1224 C1219 1.490 . S
C1224 C1226 1.395 . S
C1224 C1227 1.403 . S
H1225 C1231 0.930 . S
C1226 H1212 0.930 . S
C1226 C1224 1.395 . S
C1226 C1229 1.403 . S
C1227 C1224 1.403 . S
C1227 C1228 1.524 . S
C1227 C1231 1.400 . S
C1228 H1213 0.960 . S
C1228 H1214 0.960 . S
C1228 H1215 0.960 . S
C1228 C1227 1.524 . S
C1229 C1226 1.403 . S
C1229 C1230 1.392 . S
C1229 C1233 1.495 . S
C1230 C1229 1.392 . S
C1230 C1231 1.385 . S
C1230 C1232 1.478 . S
C1231 H1225 0.930 . S
C1231 C1227 1.400 . S
C1231 C1230 1.385 . S
C1232 C1230 1.478 . S
C1232 C1234 1.381 . S
C1232 C1238 1.383 . S
C1233 C1229 1.495 . S
C1233 H1239 0.959 . S
C1233 H1240 0.961 . S
C1233 H1241 0.960 . S
C1234 C1232 1.381 . S
C1234 C1235 1.394 . S
C1234 H1242 0.930 . S
C1235 C1234 1.394 . S
C1235 C1236 1.383 . S
C1235 H1243 0.929 . S
C1236 C1235 1.383 . S
C1236 C1237 1.377 . S
C1237 H1221 0.930 . S
C1237 C1236 1.377 . S
C1237 C1238 1.379 . S
C1238 H1222 0.931 . S
C1238 C1232 1.383 . S
C1238 C1237 1.379 . S
H1239 C1233 0.959 . S
H1240 C1233 0.961 . S
H1241 C1233 0.960 . S
H1242 C1234 0.930 . S
H1243 C1235 0.929 . S
H1244 C1252 0.929 . S
H1245 C1254 0.930 . S
H1246 C1256 0.922 1_545 S
H1247 C1259 0.929 . S
H1248 C1262 0.930 . S
H1249 C1264 0.960 . S
H1250 C1264 0.960 . S
H1251 C1264 0.960 . S
C1252 H1244 0.929 . S
C1252 C1253 1.377 . S
C1252 C1254 1.384 . S
C1253 C1252 1.377 . S
C1253 C1259 1.390 . S
C1254 H1245 0.930 . S
C1254 C1252 1.384 . S
C1254 C1255 1.372 . S
C1255 C1254 1.372 . S
C1255 C1256 1.400 . S
C1255 C1260 1.490 . S
C1256 H1246 0.922 1_565 S
C1256 C1255 1.400 . S
C1256 C1259 1.386 . S
H1257 C1273 0.930 . S
H1258 C1274 0.931 . S
C1259 H1247 0.929 . S
C1259 C1253 1.390 . S
C1259 C1256 1.386 . S
C1260 C1255 1.490 . S
C1260 C1262 1.395 1_565 S
C1260 C1263 1.403 . S
H1261 C1267 0.930 . S
C1262 H1248 0.930 . S
C1262 C1260 1.395 1_545 S
C1262 C1265 1.403 . S
C1263 C1260 1.403 . S
C1263 C1264 1.524 . S
C1263 C1267 1.400 . S
C1264 H1249 0.960 . S
C1264 H1250 0.960 . S
C1264 H1251 0.960 . S
C1264 C1263 1.524 . S
C1265 C1262 1.403 . S
C1265 C1266 1.392 . S
C1265 C1269 1.495 . S
C1266 C1265 1.392 . S
C1266 C1267 1.385 1_545 S
C1266 C1268 1.478 . S
C1267 H1261 0.930 . S
C1267 C1263 1.400 . S
C1267 C1266 1.385 1_565 S
C1268 C1266 1.478 . S
C1268 C1270 1.381 . S
C1268 C1274 1.383 . S
C1269 C1265 1.495 . S
C1269 H1275 0.959 . S
C1269 H1276 0.961 . S
C1269 H1277 0.960 . S
C1270 C1268 1.381 . S
C1270 C1271 1.394 . S
C1270 H1278 0.930 1_545 S
C1271 C1270 1.394 . S
C1271 C1272 1.383 . S
C1271 H1279 0.929 . S
C1272 C1271 1.383 . S
C1272 C1273 1.377 . S
C1273 H1257 0.930 . S
C1273 C1272 1.377 . S
C1273 C1274 1.379 . S
C1274 H1258 0.931 . S
C1274 C1268 1.383 . S
C1274 C1273 1.379 . S
H1275 C1269 0.959 . S
H1276 C1269 0.961 . S
H1277 C1269 0.960 . S
H1278 C1270 0.930 1_565 S
H1279 C1271 0.929 . S
C713 C137 1.514 1_655 S
C732 C20 1.517 . S
C749 C225 1.514 . S
C768 C293 1.517 . S
C785 C381 1.516 . S
C804 C489 1.508 . S
C821 C585 1.516 . S
C840 C636 1.508 . S
C857 C645 1.376 . S
C876 C29 1.367 . S
C893 C577 1.376 . S
C912 C145 1.361 . S
C929 C233 1.370 . S
C948 C497 1.374 . S
C965 C372 1.370 . S
C984 C284 1.380 . S
C1001 C469 1.378 . S
C1020 C205 1.386 . S
C1037 C401 1.383 . S
C1056 C313 1.366 . S
C1073 C673 1.383 . S
C1092 C57 1.374 . S
C1109 C117 1.379 . S
C1128 C548 1.376 . S
C1145 C49 1.095 . S
C1164 C196 1.084 1_655 S
C1181 C321 1.091 1_655 S
C1200 C108 1.080 1_655 S
C1217 C557 1.092 . S
C1236 C409 1.099 . S
C1253 C460 1.091 . S
C1272 C665 1.085 . S
