# Generated by pormake.
# Topology zfl, (5)-cn, num edge types: 1
# Building blocks:
#     Node 0, Type 0, BuildingBlock: XOMCOT_clean_sbu_0, # of connection points: 5
#     Node 1, Type 0, BuildingBlock: XOMCOT_clean_sbu_0, # of connection points: 5
#     Node 2, Type 0, BuildingBlock: XOMCOT_clean_sbu_0, # of connection points: 5
#     Node 3, Type 0, BuildingBlock: XOMCOT_clean_sbu_0, # of connection points: 5
#     Node 4, Type 0, BuildingBlock: XOMCOT_clean_sbu_0, # of connection points: 5
#     Node 5, Type 0, BuildingBlock: XOMCOT_clean_sbu_0, # of connection points: 5
#     Node 6, Type 0, BuildingBlock: XOMCOT_clean_sbu_0, # of connection points: 5
#     Node 7, Type 0, BuildingBlock: XOMCOT_clean_sbu_0, # of connection points: 5
#     Node 8, Type 0, BuildingBlock: XOMCOT_clean_sbu_0, # of connection points: 5
#     Node 9, Type 0, BuildingBlock: XOMCOT_clean_sbu_0, # of connection points: 5
#     Node 10, Type 0, BuildingBlock: XOMCOT_clean_sbu_0, # of connection points: 5
#     Node 11, Type 0, BuildingBlock: XOMCOT_clean_sbu_0, # of connection points: 5
#     Node 12, Type 0, BuildingBlock: XOMCOT_clean_sbu_0, # of connection points: 5
#     Node 13, Type 0, BuildingBlock: XOMCOT_clean_sbu_0, # of connection points: 5
#     Node 14, Type 0, BuildingBlock: XOMCOT_clean_sbu_0, # of connection points: 5
#     Node 15, Type 0, BuildingBlock: XOMCOT_clean_sbu_0, # of connection points: 5
#     Edge 16, Type (0, 0), BuildingBlock: UVAHIK_clean_linker_0, # of connection points: 2
#     Edge 17, Type (0, 0), BuildingBlock: UVAHIK_clean_linker_0, # of connection points: 2
#     Edge 18, Type (0, 0), BuildingBlock: UVAHIK_clean_linker_0, # of connection points: 2
#     Edge 19, Type (0, 0), BuildingBlock: UVAHIK_clean_linker_0, # of connection points: 2
#     Edge 20, Type (0, 0), BuildingBlock: UVAHIK_clean_linker_0, # of connection points: 2
#     Edge 21, Type (0, 0), BuildingBlock: UVAHIK_clean_linker_0, # of connection points: 2
#     Edge 22, Type (0, 0), BuildingBlock: UVAHIK_clean_linker_0, # of connection points: 2
#     Edge 23, Type (0, 0), BuildingBlock: UVAHIK_clean_linker_0, # of connection points: 2
#     Edge 24, Type (0, 0), BuildingBlock: UVAHIK_clean_linker_0, # of connection points: 2
#     Edge 25, Type (0, 0), BuildingBlock: UVAHIK_clean_linker_0, # of connection points: 2
#     Edge 26, Type (0, 0), BuildingBlock: UVAHIK_clean_linker_0, # of connection points: 2
#     Edge 27, Type (0, 0), BuildingBlock: UVAHIK_clean_linker_0, # of connection points: 2
#     Edge 28, Type (0, 0), BuildingBlock: UVAHIK_clean_linker_0, # of connection points: 2
#     Edge 29, Type (0, 0), BuildingBlock: UVAHIK_clean_linker_0, # of connection points: 2
#     Edge 30, Type (0, 0), BuildingBlock: UVAHIK_clean_linker_0, # of connection points: 2
#     Edge 31, Type (0, 0), BuildingBlock: UVAHIK_clean_linker_0, # of connection points: 2
#     Edge 32, Type (0, 0), BuildingBlock: UVAHIK_clean_linker_0, # of connection points: 2
#     Edge 33, Type (0, 0), BuildingBlock: UVAHIK_clean_linker_0, # of connection points: 2
#     Edge 34, Type (0, 0), BuildingBlock: UVAHIK_clean_linker_0, # of connection points: 2
#     Edge 35, Type (0, 0), BuildingBlock: UVAHIK_clean_linker_0, # of connection points: 2
#     Edge 36, Type (0, 0), BuildingBlock: UVAHIK_clean_linker_0, # of connection points: 2
#     Edge 37, Type (0, 0), BuildingBlock: UVAHIK_clean_linker_0, # of connection points: 2
#     Edge 38, Type (0, 0), BuildingBlock: UVAHIK_clean_linker_0, # of connection points: 2
#     Edge 39, Type (0, 0), BuildingBlock: UVAHIK_clean_linker_0, # of connection points: 2
#     Edge 40, Type (0, 0), BuildingBlock: UVAHIK_clean_linker_0, # of connection points: 2
#     Edge 41, Type (0, 0), BuildingBlock: UVAHIK_clean_linker_0, # of connection points: 2
#     Edge 42, Type (0, 0), BuildingBlock: UVAHIK_clean_linker_0, # of connection points: 2
#     Edge 43, Type (0, 0), BuildingBlock: UVAHIK_clean_linker_0, # of connection points: 2
#     Edge 44, Type (0, 0), BuildingBlock: UVAHIK_clean_linker_0, # of connection points: 2
#     Edge 45, Type (0, 0), BuildingBlock: UVAHIK_clean_linker_0, # of connection points: 2
#     Edge 46, Type (0, 0), BuildingBlock: UVAHIK_clean_linker_0, # of connection points: 2
#     Edge 47, Type (0, 0), BuildingBlock: UVAHIK_clean_linker_0, # of connection points: 2
#     Edge 48, Type (0, 0), BuildingBlock: UVAHIK_clean_linker_0, # of connection points: 2
#     Edge 49, Type (0, 0), BuildingBlock: UVAHIK_clean_linker_0, # of connection points: 2
#     Edge 50, Type (0, 0), BuildingBlock: UVAHIK_clean_linker_0, # of connection points: 2
#     Edge 51, Type (0, 0), BuildingBlock: UVAHIK_clean_linker_0, # of connection points: 2
#     Edge 52, Type (0, 0), BuildingBlock: UVAHIK_clean_linker_0, # of connection points: 2
#     Edge 53, Type (0, 0), BuildingBlock: UVAHIK_clean_linker_0, # of connection points: 2
#     Edge 54, Type (0, 0), BuildingBlock: UVAHIK_clean_linker_0, # of connection points: 2
#     Edge 55, Type (0, 0), BuildingBlock: UVAHIK_clean_linker_0, # of connection points: 2
# Relax obj value: 0.213
# Max RMSD: 0.258
# Mean RMSD: 0.258
data_MOF--net-zfl--node1-XOMCOT_clean_sbu_0--edge1-UVAHIK_clean_linker_0
_symmetry_space_group_name_H-M    P1
_symmetry_Int_Tables_number       1
_symmetry_cell_setting            triclinic
loop_
_symmetry_equiv_pos_as_xyz
'x, y, z'
_cell_length_a     40.503494
_cell_length_b     40.504642
_cell_length_c     75.72032
_cell_angle_alpha  90.002571
_cell_angle_beta   89.991839
_cell_angle_gamma 90.012469
loop_
_atom_site_label
_atom_site_type_symbol
_atom_site_fract_x
_atom_site_fract_y
_atom_site_fract_z
_atom_type_partial_charge
Co0 Co 0.55281 0.11383 0.10178 0.0
C1 C 0.57562 0.04832 0.11327 0.0
C2 C 0.61524 0.07667 0.10232 0.0
C3 C 0.62633 0.04495 0.10524 0.0
N4 N 0.58347 0.07879 0.10754 0.0
N5 N 0.60124 0.02721 0.11211 0.0
H6 H 0.55086 0.04061 0.11643 0.0
H7 H 0.62873 0.09619 0.09576 0.0
C8 C 0.6079 0.146 0.12189 0.0
O9 O 0.60693 0.12135 0.13316 0.0
N10 N 0.52165 0.14839 0.09567 0.0
C11 C 0.49399 0.14478 0.08588 0.0
C12 C 0.47708 0.17402 0.08565 0.0
C13 C 0.52084 0.17997 0.10143 0.0
N14 N 0.49386 0.19614 0.09542 0.0
C15 C 0.50934 0.08601 0.12749 0.0
C16 C 0.52352 0.12774 0.15524 0.0
C17 C 0.50359 0.09996 0.15835 0.0
C18 C 0.49528 0.08004 0.14392 0.0
C19 C 0.53662 0.1332 0.13834 0.0
N20 N 0.53176 0.1108 0.12505 0.0
H21 H 0.50249 0.06982 0.11683 0.0
H22 H 0.55083 0.15529 0.13619 0.0
H23 H 0.48565 0.1223 0.07967 0.0
H24 H 0.53923 0.19076 0.11002 0.0
O25 O 0.52614 0.08186 0.08941 0.0
O26 O 0.5667 0.11051 0.07724 0.0
O27 O 0.58662 0.14791 0.10942 0.0
C28 C 0.54367 0.08834 0.0755 0.0
H29 H 0.65032 0.03529 0.10165 0.0
H30 H 0.45345 0.17821 0.07936 0.0
H31 H 0.52975 0.14465 0.1658 0.0
H32 H 0.47836 0.0595 0.14531 0.0
Co33 Co 0.38721 0.5504 0.60556 0.0
C34 C 0.45212 0.58248 0.611 0.0
C35 C 0.41834 0.61354 0.597 0.0
C36 C 0.44927 0.62766 0.59621 0.0
N37 N 0.42017 0.58507 0.60624 0.0
N38 N 0.47022 0.60809 0.60516 0.0
H39 H 0.46307 0.56086 0.61681 0.0
H40 H 0.39663 0.62192 0.58999 0.0
C41 C 0.3553 0.60768 0.62311 0.0
O42 O 0.3817 0.6095 0.63315 0.0
N43 N 0.35495 0.51558 0.60436 0.0
C44 C 0.36185 0.48317 0.60596 0.0
C45 C 0.33335 0.46546 0.60347 0.0
C46 C 0.32229 0.51734 0.60108 0.0
N47 N 0.30861 0.48693 0.60042 0.0
C48 C 0.42285 0.51975 0.6338 0.0
C49 C 0.37603 0.52879 0.65986 0.0
C50 C 0.40518 0.51187 0.66393 0.0
C51 C 0.42854 0.50705 0.65061 0.0
C52 C 0.371 0.54053 0.64269 0.0
N53 N 0.3951 0.53765 0.63009 0.0
H54 H 0.44043 0.51389 0.62361 0.0
H55 H 0.34724 0.55092 0.63948 0.0
H56 H 0.38602 0.47307 0.60871 0.0
H57 H 0.30895 0.54014 0.59898 0.0
O58 O 0.41887 0.52174 0.59427 0.0
O59 O 0.38513 0.5556 0.58011 0.0
O60 O 0.35222 0.58407 0.61199 0.0
C61 C 0.40864 0.53373 0.57934 0.0
H62 H 0.4563 0.64919 0.58862 0.0
H63 H 0.33083 0.43888 0.60415 0.0
H64 H 0.35684 0.53185 0.6697 0.0
H65 H 0.45102 0.49335 0.65315 0.0
Co66 Co 0.94896 0.39351 0.11205 0.0
C67 C 0.91917 0.45757 0.12157 0.0
C68 C 0.88507 0.42699 0.10747 0.0
C69 C 0.87124 0.4579 0.10947 0.0
N70 N 0.91515 0.42683 0.11515 0.0
N71 N 0.89282 0.47693 0.11841 0.0
H72 H 0.94199 0.46695 0.12682 0.0
H73 H 0.87485 0.40672 0.09995 0.0
C74 C 0.89234 0.35966 0.12973 0.0
O75 O 0.8907 0.38466 0.14076 0.0
N76 N 0.98315 0.36091 0.10868 0.0
C77 C 0.01554 0.36766 0.10661 0.0
C78 C 0.03266 0.33854 0.10552 0.0
C79 C 0.98104 0.32768 0.10909 0.0
N80 N 0.01101 0.31347 0.10712 0.0
C81 C 0.98433 0.42528 0.13992 0.0
C82 C 0.97249 0.37951 0.16615 0.0
C83 C 0.99004 0.40835 0.17039 0.0
C84 C 0.99679 0.43076 0.15678 0.0
C85 C 0.96081 0.37478 0.1489 0.0
N86 N 0.96469 0.39873 0.13632 0.0
H87 H 0.99087 0.44265 0.12974 0.0
H88 H 0.94905 0.35164 0.14576 0.0
H89 H 0.02629 0.39208 0.10643 0.0
H90 H 0.9583 0.31413 0.111 0.0
O91 O 0.9764 0.42626 0.10067 0.0
O92 O 0.94059 0.39424 0.08681 0.0
O93 O 0.91561 0.35814 0.11832 0.0
C94 C 0.96259 0.4176 0.08592 0.0
H95 H 0.84806 0.46624 0.10394 0.0
H96 H 0.05918 0.33598 0.10437 0.0
H97 H 0.96757 0.36084 0.17603 0.0
H98 H 0.01197 0.45237 0.15902 0.0
Co99 Co 0.11162 0.94989 0.60615 0.0
C100 C 0.04749 0.92173 0.61697 0.0
C101 C 0.07903 0.88492 0.60579 0.0
C102 C 0.04809 0.87136 0.60821 0.0
N103 N 0.07868 0.91653 0.61144 0.0
N104 N 0.02842 0.89469 0.61528 0.0
H105 H 0.03756 0.94557 0.62021 0.0
H106 H 0.0996 0.87328 0.59915 0.0
C107 C 0.14764 0.89648 0.62525 0.0
O108 O 0.12435 0.89742 0.63733 0.0
N109 N 0.14389 0.98351 0.60053 0.0
C110 C 0.13689 0.01525 0.59662 0.0
C111 C 0.16584 0.03246 0.59486 0.0
C112 C 0.17715 0.98196 0.60134 0.0
N113 N 0.1911 0.0116 0.59789 0.0
C114 C 0.08226 0.98694 0.63425 0.0
C115 C 0.13423 0.98324 0.65771 0.0
C116 C 0.10542 -9e-05 0.66286 0.0
C117 C 0.07939 0.00188 0.65073 0.0
C118 C 0.13589 0.96829 0.64106 0.0
N119 N 0.1093 0.96855 0.62991 0.0
H120 H 0.06282 0.99113 0.62484 0.0
H121 H 0.15892 0.95721 0.63707 0.0
H122 H 0.11242 0.02574 0.59576 0.0
H123 H 0.19087 0.95998 0.60476 0.0
O124 O 0.07769 0.97604 0.59491 0.0
O125 O 0.10817 0.93841 0.58138 0.0
O126 O 0.14755 0.91728 0.61253 0.0
C127 C 0.08485 0.96043 0.58043 0.0
H128 H 0.04018 0.84705 0.60405 0.0
H129 H 0.16808 0.05869 0.59241 0.0
H130 H 0.15558 0.98229 0.6663 0.0
H131 H 0.05675 0.01482 0.65385 0.0
Co132 Co 0.55253 0.38951 0.89407 0.0
C133 C 0.57955 0.45392 0.88322 0.0
C134 C 0.61592 0.42484 0.89657 0.0
C135 C 0.62859 0.45608 0.8939 0.0
N136 N 0.58517 0.42352 0.88974 0.0
N137 N 0.60556 0.47419 0.88547 0.0
H138 H 0.5559 0.46237 0.8786 0.0
H139 H 0.62749 0.40513 0.90396 0.0
C140 C 0.60854 0.35645 0.87539 0.0
O141 O 0.6091 0.38146 0.86434 0.0
N142 N 0.51938 0.35612 0.8987 0.0
C143 C 0.4887 0.36173 0.90501 0.0
C144 C 0.47168 0.33252 0.90549 0.0
C145 C 0.52033 0.32345 0.89515 0.0
N146 N 0.49149 0.30849 0.89928 0.0
C147 C 0.51348 0.41946 0.86706 0.0
C148 C 0.52759 0.37611 0.84001 0.0
C149 C 0.50913 0.4046 0.83625 0.0
C150 C 0.50091 0.42549 0.8503 0.0
C151 C 0.53922 0.37067 0.85722 0.0
N152 N 0.5345 0.39376 0.87018 0.0
H153 H 0.50648 0.43616 0.87747 0.0
H154 H 0.55201 0.34792 0.85993 0.0
H155 H 0.47867 0.3855 0.90861 0.0
H156 H 0.54136 0.31091 0.88946 0.0
O157 O 0.5257 0.42224 0.90577 0.0
O158 O 0.56322 0.39144 0.91908 0.0
O159 O 0.58608 0.35461 0.88726 0.0
C160 C 0.54101 0.41456 0.92023 0.0
H161 H 0.65207 0.46524 0.89866 0.0
H162 H 0.44618 0.32944 0.90945 0.0
H163 H 0.53358 0.35845 0.82977 0.0
H164 H 0.48494 0.44664 0.84841 0.0
Co165 Co 0.11047 0.55679 0.39821 0.0
C166 C 0.04497 0.57629 0.38501 0.0
C167 C 0.07117 0.61759 0.39571 0.0
C168 C 0.03919 0.6272 0.39225 0.0
N169 N 0.07484 0.58568 0.39101 0.0
N170 N 0.02277 0.60105 0.38559 0.0
H171 H 0.03835 0.55104 0.38223 0.0
H172 H 0.08971 0.63213 0.40244 0.0
C173 C 0.14265 0.61252 0.37854 0.0
O174 O 0.11932 0.6103 0.36653 0.0
N175 N 0.14571 0.52751 0.40576 0.0
C176 C 0.1427 0.50074 0.41627 0.0
C177 C 0.1722 0.48422 0.41671 0.0
C178 C 0.17724 0.52671 0.39993 0.0
N179 N 0.19391 0.5004 0.40638 0.0
C180 C 0.08734 0.5115 0.37194 0.0
C181 C 0.13266 0.52595 0.34586 0.0
C182 C 0.10675 0.50419 0.34206 0.0
C183 C 0.08458 0.49618 0.35553 0.0
C184 C 0.13489 0.54026 0.36264 0.0
N185 N 0.11098 0.53487 0.3751 0.0
H186 H 0.06976 0.50475 0.38198 0.0
H187 H 0.15591 0.55565 0.36536 0.0
H188 H 0.12038 0.49254 0.42271 0.0
H189 H 0.18758 0.54453 0.39087 0.0
O190 O 0.07832 0.52915 0.40996 0.0
O191 O 0.10383 0.57154 0.42237 0.0
O192 O 0.1439 0.59174 0.39127 0.0
C193 C 0.08234 0.54779 0.42375 0.0
H194 H 0.02834 0.65084 0.39552 0.0
H195 H 0.17669 0.46105 0.42341 0.0
H196 H 0.15101 0.53184 0.33594 0.0
H197 H 0.06447 0.47907 0.35324 0.0
Co198 Co 0.94781 0.1074 0.89175 0.0
C199 C 0.91852 0.04341 0.88124 0.0
C200 C 0.88347 0.07403 0.89458 0.0
C201 C 0.86967 0.04317 0.89221 0.0
N202 N 0.91415 0.07416 0.8876 0.0
N203 N 0.89185 0.02414 0.88373 0.0
H204 H 0.94165 0.03379 0.8766 0.0
H205 H 0.87275 0.09424 0.90195 0.0
C206 C 0.8928 0.14226 0.87338 0.0
O207 O 0.89259 0.11813 0.86178 0.0
N208 N 0.98169 0.13999 0.89622 0.0
C209 C 0.01379 0.13333 0.89938 0.0
C210 C 0.03086 0.16247 0.9006 0.0
C211 C 0.97977 0.17322 0.8953 0.0
N212 N 0.00952 0.18749 0.89797 0.0
C213 C 0.98303 0.07678 0.8634 0.0
C214 C 0.97625 0.12684 0.83893 0.0
C215 C 0.99185 0.09744 0.83392 0.0
C216 C 0.99579 0.07255 0.8465 0.0
C217 C 0.96321 0.12977 0.85601 0.0
N218 N 0.96474 0.10395 0.86766 0.0
H219 H 0.98848 0.05816 0.87311 0.0
H220 H 0.95237 0.15301 0.85984 0.0
H221 H 0.02452 0.10895 0.90014 0.0
H222 H 0.95737 0.1867 0.89241 0.0
O223 O 0.97483 0.07404 0.90288 0.0
O224 O 0.93819 0.10509 0.9168 0.0
O225 O 0.91468 0.14295 0.88556 0.0
C226 C 0.9603 0.08182 0.91758 0.0
H227 H 0.84607 0.03484 0.89723 0.0
H228 H 0.05724 0.16502 0.90245 0.0
H229 H 0.97391 0.14717 0.82972 0.0
H230 H 0.00926 0.05018 0.84339 0.0
Co231 Co 0.39118 0.9524 0.39142 0.0
C232 C 0.45468 0.92114 0.3821 0.0
C233 C 0.42335 0.8879 0.3963 0.0
C234 C 0.45394 0.87334 0.39435 0.0
N235 N 0.42387 0.91789 0.38853 0.0
N236 N 0.47344 0.89439 0.38534 0.0
H237 H 0.46456 0.94365 0.37673 0.0
H238 H 0.40282 0.87819 0.40383 0.0
C239 C 0.35692 0.89659 0.37333 0.0
O240 O 0.38224 0.8947 0.36253 0.0
N241 N 0.35909 0.98718 0.39458 0.0
C242 C 0.36603 0.01921 0.39777 0.0
C243 C 0.33713 0.03689 0.39782 0.0
C244 C 0.32603 0.98589 0.39248 0.0
N245 N 0.31206 0.01596 0.39443 0.0
C246 C 0.42442 0.98736 0.36389 0.0
C247 C 0.37924 0.97658 0.33725 0.0
C248 C 0.40856 0.99356 0.3333 0.0
C249 C 0.43067 0.99981 0.34711 0.0
C250 C 0.37376 0.96486 0.35443 0.0
N251 N 0.39741 0.96817 0.36722 0.0
H252 H 0.44166 0.99345 0.37421 0.0
H253 H 0.35032 0.95349 0.35733 0.0
H254 H 0.39049 0.02944 0.39937 0.0
H255 H 0.31248 0.96366 0.38932 0.0
O256 O 0.42437 0.9789 0.40299 0.0
O257 O 0.39101 0.94401 0.41668 0.0
O258 O 0.3554 0.91974 0.38481 0.0
C259 C 0.41512 0.96517 0.41765 0.0
H260 H 0.46175 0.85002 0.39994 0.0
H261 H 0.33488 0.06334 0.39946 0.0
H262 H 0.36081 0.97207 0.32718 0.0
H263 H 0.45267 0.01451 0.34507 0.0
Co264 Co 0.44972 0.89039 0.89033 0.0
C265 C 0.42131 0.95397 0.87923 0.0
C266 C 0.38566 0.92438 0.89282 0.0
C267 C 0.37256 0.95549 0.89031 0.0
N268 N 0.41626 0.92348 0.88578 0.0
N269 N 0.39516 0.97394 0.88174 0.0
H270 H 0.44477 0.96279 0.87452 0.0
H271 H 0.37462 0.9046 0.90039 0.0
C272 C 0.39416 0.85524 0.87242 0.0
O273 O 0.39323 0.87942 0.86086 0.0
N274 N 0.48366 0.85799 0.89517 0.0
C275 C 0.51491 0.86471 0.90022 0.0
C276 C 0.5323 0.83575 0.90128 0.0
C277 C 0.48266 0.82493 0.89295 0.0
N278 N 0.51208 0.81081 0.89667 0.0
C279 C 0.48763 0.91978 0.8627 0.0
C280 C 0.47714 0.87264 0.83703 0.0
C281 C 0.4958 0.90077 0.83275 0.0
C282 C 0.50176 0.92389 0.84612 0.0
C283 C 0.46386 0.86922 0.85404 0.0
N284 N 0.46724 0.8938 0.86631 0.0
H285 H 0.49364 0.93774 0.87267 0.0
H286 H 0.45134 0.84652 0.85724 0.0
H287 H 0.52498 0.88903 0.90251 0.0
H288 H 0.46116 0.81149 0.88847 0.0
O289 O 0.47606 0.92428 0.90142 0.0
O290 O 0.43964 0.89301 0.91538 0.0
O291 O 0.41677 0.85452 0.88423 0.0
C292 C 0.46127 0.91673 0.91606 0.0
H293 H 0.34922 0.9644 0.89537 0.0
H294 H 0.55823 0.83338 0.90449 0.0
H295 H 0.47264 0.85346 0.82736 0.0
H296 H 0.51765 0.945 0.84393 0.0
Co297 Co 0.60617 0.44099 0.3929 0.0
C298 C 0.54206 0.41626 0.38003 0.0
C299 C 0.56984 0.37817 0.3928 0.0
C300 C 0.53845 0.36647 0.38954 0.0
N301 N 0.57209 0.40944 0.38675 0.0
N302 N 0.52113 0.39057 0.38151 0.0
H303 H 0.53421 0.4405 0.37599 0.0
H304 H 0.58887 0.36567 0.40026 0.0
C305 C 0.64048 0.38593 0.37409 0.0
O306 O 0.61702 0.3869 0.36211 0.0
N307 N 0.6396 0.47298 0.39932 0.0
C308 C 0.63379 0.504 0.40505 0.0
C309 C 0.66324 0.52037 0.40662 0.0
C310 C 0.67267 0.47112 0.39726 0.0
N311 N 0.68767 0.49978 0.40168 0.0
C312 C 0.58039 0.48229 0.36556 0.0
C313 C 0.62949 0.47186 0.3409 0.0
C314 C 0.60254 0.49183 0.33645 0.0
C315 C 0.57827 0.49768 0.34917 0.0
C316 C 0.631 0.45748 0.35769 0.0
N317 N 0.60542 0.46082 0.36937 0.0
H318 H 0.56165 0.48794 0.37518 0.0
H319 H 0.65301 0.4441 0.3612 0.0
H320 H 0.60975 0.51475 0.40732 0.0
H321 H 0.68547 0.44963 0.39227 0.0
O322 O 0.57272 0.46777 0.4041 0.0
O323 O 0.60122 0.42849 0.41748 0.0
O324 O 0.64109 0.40723 0.38657 0.0
C325 C 0.57854 0.45117 0.41843 0.0
H326 H 0.52851 0.34298 0.39382 0.0
H327 H 0.66625 0.54602 0.4103 0.0
H328 H 0.64937 0.46779 0.33157 0.0
H329 H 0.55736 0.5135 0.34635 0.0
Co330 Co 0.05234 0.61116 0.89755 0.0
C331 C 0.07619 0.5464 0.88548 0.0
C332 C 0.1149 0.57413 0.89774 0.0
C333 C 0.12624 0.54257 0.89455 0.0
N334 N 0.08353 0.57652 0.89189 0.0
N335 N 0.10173 0.52525 0.88684 0.0
H336 H 0.05173 0.53883 0.88163 0.0
H337 H 0.12786 0.59331 0.90486 0.0
C338 C 0.10778 0.64384 0.87804 0.0
O339 O 0.10728 0.61918 0.86676 0.0
N340 N 0.02062 0.64527 0.90355 0.0
C341 C 0.99272 0.64121 0.91308 0.0
C342 C 0.97553 0.67031 0.91333 0.0
C343 C 0.0197 0.67695 0.89796 0.0
N344 N 0.9924 0.69279 0.90383 0.0
C345 C 0.00935 0.58354 0.87155 0.0
C346 C 0.02384 0.6256 0.84399 0.0
C347 C 0.00355 0.59812 0.84075 0.0
C348 C 0.99522 0.57796 0.85509 0.0
C349 C 0.03698 0.63068 0.86092 0.0
N350 N 0.03188 0.60818 0.87412 0.0
H351 H 0.0024 0.56721 0.88213 0.0
H352 H 0.05125 0.6527 0.86316 0.0
H353 H 0.98448 0.61851 0.91912 0.0
H354 H 0.03828 0.68807 0.88961 0.0
O355 O 0.02593 0.57855 0.90964 0.0
O356 O 0.06551 0.60782 0.92221 0.0
O357 O 0.08602 0.64568 0.89028 0.0
C358 C 0.04299 0.58507 0.92371 0.0
H359 H 0.14992 0.53265 0.89852 0.0
H360 H 0.95172 0.67419 0.91948 0.0
H361 H 0.03015 0.64269 0.83354 0.0
H362 H 0.97803 0.55766 0.85366 0.0
Co363 Co 0.88913 0.04682 0.39237 0.0
C364 C 0.9529 0.07255 0.37958 0.0
C365 C 0.92399 0.11052 0.39171 0.0
C366 C 0.95497 0.12302 0.38818 0.0
N367 N 0.92267 0.07889 0.38616 0.0
N368 N 0.97304 0.09898 0.38056 0.0
H369 H 0.96137 0.04833 0.37589 0.0
H370 H 0.90454 0.12294 0.39889 0.0
C371 C 0.85388 0.10117 0.37341 0.0
O372 O 0.8773 0.10044 0.36139 0.0
N373 N 0.85606 0.01443 0.39895 0.0
C374 C 0.86161 0.98534 0.40715 0.0
C375 C 0.8325 0.9682 0.40828 0.0
C376 C 0.82353 0.01432 0.39503 0.0
N377 N 0.80863 0.98633 0.40061 0.0
C378 C 0.91589 0.00581 0.36506 0.0
C379 C 0.86715 0.01568 0.34015 0.0
C380 C 0.89451 0.99621 0.33575 0.0
C381 C 0.91863 0.99067 0.3486 0.0
C382 C 0.86509 0.0299 0.35697 0.0
N383 N 0.8904 0.02678 0.36883 0.0
H384 H 0.93456 0.00041 0.37477 0.0
H385 H 0.84286 0.04303 0.36032 0.0
H386 H 0.88526 0.97633 0.41162 0.0
H387 H 0.81108 0.03393 0.38801 0.0
O388 O 0.92301 0.02073 0.40369 0.0
O389 O 0.89382 0.05974 0.4169 0.0
O390 O 0.85364 0.07995 0.38594 0.0
C391 C 0.91686 0.03745 0.41796 0.0
H392 H 0.96402 0.1472 0.39186 0.0
H393 H 0.82945 0.94362 0.41365 0.0
H394 H 0.84732 0.01947 0.33077 0.0
H395 H 0.93985 0.97521 0.34586 0.0
Co396 Co 0.4473 0.60909 0.10767 0.0
C397 C 0.41759 0.5453 0.11785 0.0
C398 C 0.38342 0.57534 0.10348 0.0
C399 C 0.36956 0.54453 0.10587 0.0
N400 N 0.41357 0.57577 0.11107 0.0
N401 N 0.39118 0.52586 0.11499 0.0
H402 H 0.44041 0.5361 0.12318 0.0
H403 H 0.37313 0.59535 0.09579 0.0
C404 C 0.39131 0.64276 0.12589 0.0
O405 O 0.39005 0.61758 0.13681 0.0
N406 N 0.48143 0.64162 0.10403 0.0
C407 C 0.51385 0.63475 0.1023 0.0
C408 C 0.53101 0.66378 0.10084 0.0
C409 C 0.47931 0.67486 0.10386 0.0
N410 N 0.50935 0.68894 0.10185 0.0
C411 C 0.48358 0.57742 0.13519 0.0
C412 C 0.47206 0.62283 0.16163 0.0
C413 C 0.48963 0.59392 0.16567 0.0
C414 C 0.49633 0.57177 0.15195 0.0
C415 C 0.46014 0.62777 0.14444 0.0
N416 N 0.46374 0.60391 0.13179 0.0
H417 H 0.4899 0.56011 0.12494 0.0
H418 H 0.44833 0.65093 0.14143 0.0
H419 H 0.52455 0.61031 0.1026 0.0
H420 H 0.45652 0.68849 0.10535 0.0
O421 O 0.47441 0.57635 0.09614 0.0
O422 O 0.43826 0.60825 0.08247 0.0
O423 O 0.41417 0.64446 0.11425 0.0
C424 C 0.46024 0.58489 0.08148 0.0
H425 H 0.34632 0.53597 0.10049 0.0
H426 H 0.55756 0.66625 0.09983 0.0
H427 H 0.46725 0.64134 0.17161 0.0
H428 H 0.51156 0.55015 0.15404 0.0
Co429 Co 0.88695 0.45225 0.60911 0.0
C430 C 0.95285 0.42194 0.61201 0.0
C431 C 0.91888 0.38948 0.59916 0.0
C432 C 0.95011 0.37593 0.59807 0.0
N433 N 0.92066 0.41829 0.60808 0.0
N434 N 0.97131 0.3965 0.60625 0.0
H435 H 0.96346 0.44419 0.61724 0.0
H436 H 0.89682 0.38006 0.59288 0.0
C437 C 0.85645 0.39253 0.62518 0.0
O438 O 0.88331 0.38976 0.63481 0.0
N439 N 0.85412 0.48653 0.60983 0.0
C440 C 0.85994 0.51763 0.61535 0.0
C441 C 0.83073 0.53468 0.61549 0.0
C442 C 0.82149 0.48509 0.60636 0.0
N443 N 0.80673 0.51427 0.60984 0.0
C444 C 0.92394 0.47972 0.63784 0.0
C445 C 0.87873 0.46743 0.66429 0.0
C446 C 0.90807 0.4841 0.66855 0.0
C447 C 0.93054 0.49051 0.65492 0.0
C448 C 0.87294 0.45733 0.64686 0.0
N449 N 0.89622 0.46191 0.63398 0.0
H450 H 0.94049 0.48763 0.62757 0.0
H451 H 0.84913 0.44696 0.64372 0.0
H452 H 0.88376 0.52706 0.61936 0.0
H453 H 0.80872 0.4631 0.60196 0.0
O454 O 0.91752 0.48283 0.59839 0.0
O455 O 0.88348 0.45025 0.58357 0.0
O456 O 0.85277 0.41731 0.61487 0.0
C457 C 0.90688 0.47228 0.58324 0.0
H458 H 0.95691 0.3537 0.59101 0.0
H459 H 0.82724 0.5601 0.61952 0.0
H460 H 0.86012 0.4626 0.67422 0.0
H461 H 0.95256 0.50506 0.6572 0.0
Co462 Co 0.05169 0.8902 0.10618 0.0
C463 C 0.07615 0.95448 0.11864 0.0
C464 C 0.11468 0.92648 0.1064 0.0
C465 C 0.12634 0.95788 0.10971 0.0
N466 N 0.08321 0.92436 0.11214 0.0
N467 N 0.10193 0.97537 0.1174 0.0
H468 H 0.05173 0.96228 0.12241 0.0
H469 H 0.12748 0.90727 0.09921 0.0
C470 C 0.10674 0.85632 0.12535 0.0
O471 O 0.10627 0.88035 0.13702 0.0
N472 N 0.01971 0.85655 0.09987 0.0
C473 C 0.9915 0.86118 0.09068 0.0
C474 C 0.97423 0.83212 0.09015 0.0
C475 C 0.0189 0.8246 0.10497 0.0
N476 N 0.99137 0.80915 0.09916 0.0
C477 C 0.00932 0.91728 0.13269 0.0
C478 C 0.02183 0.8723 0.1592 0.0
C479 C 0.00166 0.89964 0.16294 0.0
C480 C 0.99456 0.9215 0.14913 0.0
C481 C 0.03566 0.86868 0.14233 0.0
N482 N 0.03134 0.89238 0.12966 0.0
H483 H 0.00296 0.93457 0.12244 0.0
H484 H 0.04967 0.84666 0.13967 0.0
H485 H 0.98313 0.88423 0.0851 0.0
H486 H 0.03772 0.81299 0.11297 0.0
O487 O 0.02547 0.9234 0.09439 0.0
O488 O 0.06486 0.89415 0.0816 0.0
O489 O 0.08508 0.85524 0.11305 0.0
C490 C 0.04246 0.91704 0.08026 0.0
H491 H 0.15014 0.9676 0.10581 0.0
H492 H 0.95018 0.82858 0.08421 0.0
H493 H 0.02734 0.85404 0.1692 0.0
H494 H 0.97759 0.94189 0.15091 0.0
Co495 Co 0.61271 0.05055 0.60422 0.0
C496 C 0.54791 0.07682 0.61491 0.0
C497 C 0.57839 0.11458 0.60375 0.0
C498 C 0.54713 0.12725 0.60623 0.0
N499 N 0.57888 0.08296 0.60935 0.0
N500 N 0.52807 0.10332 0.61324 0.0
H501 H 0.53886 0.05264 0.61828 0.0
H502 H 0.5987 0.12685 0.59718 0.0
C503 C 0.64671 0.1049 0.62389 0.0
O504 O 0.6225 0.10426 0.63544 0.0
N505 N 0.64589 0.01765 0.59879 0.0
C506 C 0.63961 0.98646 0.59349 0.0
C507 C 0.66878 0.96958 0.59213 0.0
C508 C 0.67898 0.0191 0.6009 0.0
N509 N 0.6935 0.99001 0.59681 0.0
C510 C 0.58295 0.01038 0.63081 0.0
C511 C 0.62934 0.01947 0.65703 0.0
C512 C 0.60099 0.00077 0.66081 0.0
C513 C 0.57833 0.99541 0.64714 0.0
C514 C 0.63332 0.03354 0.64024 0.0
N515 N 0.60904 0.03096 0.62775 0.0
H516 H 0.56533 0.00493 0.62058 0.0
H517 H 0.65609 0.04624 0.63739 0.0
H518 H 0.61542 0.97599 0.59129 0.0
H519 H 0.69215 0.04061 0.60558 0.0
O520 O 0.57993 0.02426 0.59217 0.0
O521 O 0.61023 0.06304 0.57948 0.0
O522 O 0.6478 0.08359 0.61141 0.0
C523 C 0.58741 0.04059 0.578 0.0
H524 H 0.53864 0.15144 0.6022 0.0
H525 H 0.67146 0.94376 0.58872 0.0
H526 H 0.64819 0.02355 0.66692 0.0
H527 H 0.55713 0.97946 0.64892 0.0
C528 C 0.48377 0.11451 0.18911 0.0
C529 C 0.49239 0.09062 0.17643 0.0
C530 C 0.47361 0.10495 0.20606 0.0
C531 C 0.47723 0.0332 0.23663 0.0
H532 H 0.40846 0.07993 0.26197 0.0
C533 C 0.44947 0.00385 0.3091 0.0
C534 C 0.4166 0.0048 0.31507 0.0
C535 C 0.45779 0.01524 0.29232 0.0
C536 C 0.42744 0.06637 0.25499 0.0
H537 H 0.49762 0.03789 0.17192 0.0
H538 H 0.47851 0.02145 0.2008 0.0
H539 H 0.42432 0.09818 0.23243 0.0
H540 H 0.36659 0.01833 0.30781 0.0
H541 H 0.38095 0.03691 0.27809 0.0
H542 H 0.47957 0.0006 0.25869 0.0
C543 C 0.48012 0.04758 0.1979 0.0
C544 C 0.4369 0.07716 0.23815 0.0
C545 C 0.49057 0.05707 0.18114 0.0
C546 C 0.39211 0.01696 0.30362 0.0
C547 C 0.40043 0.02808 0.28666 0.0
C548 C 0.46757 0.02225 0.2533 0.0
C549 C 0.47179 0.07132 0.21067 0.0
C550 C 0.4619 0.06065 0.22875 0.0
C551 C 0.43343 0.02736 0.28082 0.0
C552 C 0.44271 0.03876 0.26278 0.0
H553 H 0.48463 0.14055 0.18593 0.0
H554 H 0.46767 0.12394 0.21561 0.0
H555 H 0.49696 0.02014 0.22998 0.0
H556 H 0.46898 0.99414 0.31739 0.0
H557 H 0.48353 0.01475 0.28846 0.0
C558 C 0.48938 0.389 0.80564 0.0
C559 C 0.49873 0.41329 0.81794 0.0
C560 C 0.47897 0.39795 0.78865 0.0
C561 C 0.47954 0.46931 0.75732 0.0
H562 H 0.40871 0.42124 0.73438 0.0
C563 C 0.41052 0.51967 0.69654 0.0
C564 C 0.41128 0.49864 0.68182 0.0
C565 C 0.41981 0.50792 0.71317 0.0
C566 C 0.42855 0.43478 0.74067 0.0
H567 H 0.50549 0.46607 0.82164 0.0
H568 H 0.48571 0.48156 0.79276 0.0
H569 H 0.42879 0.40295 0.76323 0.0
H570 H 0.42068 0.44868 0.67293 0.0
H571 H 0.43608 0.42788 0.7022 0.0
H572 H 0.47838 0.50175 0.73499 0.0
C573 C 0.487 0.45554 0.79594 0.0
C574 C 0.44028 0.4242 0.75711 0.0
C575 C 0.4978 0.44661 0.81273 0.0
C576 C 0.42006 0.46535 0.68412 0.0
C577 C 0.4287 0.45345 0.70081 0.0
C578 C 0.46739 0.48018 0.74109 0.0
C579 C 0.47748 0.4314 0.78361 0.0
C580 C 0.46583 0.44148 0.76572 0.0
C581 C 0.42934 0.47482 0.71539 0.0
C582 C 0.44173 0.46313 0.73266 0.0
H583 H 0.48959 0.36311 0.80919 0.0
H584 H 0.47226 0.37861 0.77946 0.0
H585 H 0.49982 0.48277 0.76322 0.0
H586 H 0.40397 0.54545 0.69504 0.0
H587 H 0.41997 0.52479 0.72428 0.0
C588 C 0.00196 0.44814 0.19493 0.0
C589 C 0.00163 0.41544 0.18868 0.0
C590 C 0.01428 0.45562 0.21163 0.0
C591 C 0.06666 0.42202 0.24776 0.0
H592 H 0.02863 0.49555 0.2735 0.0
C593 C 0.09434 0.45781 0.32112 0.0
C594 C 0.10129 0.4914 0.32398 0.0
C595 C 0.08471 0.44668 0.30441 0.0
C596 C 0.03961 0.47509 0.26639 0.0
H597 H 0.01349 0.36478 0.1955 0.0
H598 H 0.03353 0.37766 0.22511 0.0
H599 H 0.00436 0.47862 0.24557 0.0
H600 H 0.10452 0.53949 0.31158 0.0
H601 H 0.08709 0.52012 0.28242 0.0
H602 H 0.10121 0.41808 0.26919 0.0
C603 C 0.0251 0.39769 0.21679 0.0
C604 C 0.02583 0.46541 0.25033 0.0
C605 C 0.01313 0.39022 0.19988 0.0
C606 C 0.09958 0.51344 0.3097 0.0
C607 C 0.08938 0.50243 0.29309 0.0
C608 C 0.0801 0.43138 0.26405 0.0
C609 C 0.02604 0.43057 0.22284 0.0
C610 C 0.03948 0.43912 0.2406 0.0
C611 C 0.08127 0.46909 0.29038 0.0
C612 C 0.06697 0.45834 0.27335 0.0
H613 H 0.99273 0.46821 0.18687 0.0
H614 H 0.01504 0.48129 0.2156 0.0
H615 H 0.07812 0.40192 0.2406 0.0
H616 H 0.09557 0.44033 0.33193 0.0
H617 H 0.0785 0.42087 0.30264 0.0
C618 C 0.11498 0.99922 0.69572 0.0
C619 C 0.10205 0.01504 0.68071 0.0
C620 C 0.10841 0.01142 0.71264 0.0
C621 C 0.07182 0.08333 0.73703 0.0
H622 H 0.05177 0.01591 0.7717 0.0
C623 C 0.0274 0.11407 0.80827 0.0
C624 C 0.00453 0.09222 0.81584 0.0
C625 C 0.04195 0.1067 0.79195 0.0
C626 C 0.05691 0.03512 0.76214 0.0
H627 H 0.07427 0.05775 0.67179 0.0
H628 H 0.06131 0.07782 0.70111 0.0
H629 H 0.07361 -8e-05 0.74322 0.0
H630 H 0.9775 0.04668 0.81208 0.0
H631 H 0.00156 0.03446 0.78338 0.0
H632 H 0.05312 0.11834 0.7557 0.0
C633 C 0.07693 0.05625 0.69993 0.0
C634 C 0.07014 0.02596 0.74585 0.0
C635 C 0.08389 0.04433 0.68303 0.0
C636 C 0.99539 0.0637 0.80656 0.0
C637 C 0.00947 0.05658 0.7902 0.0
C638 C 0.05814 0.09248 0.75329 0.0
C639 C 0.08841 0.03952 0.71499 0.0
C640 C 0.07738 0.04986 0.73295 0.0
C641 C 0.03355 0.07753 0.78285 0.0
C642 C 0.04998 0.0684 0.76594 0.0
H643 H 0.12906 0.97662 0.69448 0.0
H644 H 0.11838 0.9983 0.72389 0.0
H645 H 0.0776 0.10253 0.72757 0.0
H646 H 0.03497 0.13611 0.81529 0.0
H647 H 0.06052 0.12331 0.78676 0.0
C648 C 0.5207 0.87998 0.80417 0.0
C649 C 0.50946 0.90634 0.8147 0.0
C650 C 0.53444 0.88597 0.78748 0.0
C651 C 0.577 0.94922 0.76174 0.0
H652 H 0.53782 0.90948 0.72013 0.0
C653 C 0.62045 0.97558 0.68961 0.0
C654 C 0.59457 0.98675 0.67871 0.0
C655 C 0.61372 0.96203 0.70626 0.0
C656 C 0.54923 0.92043 0.73167 0.0
H657 H 0.50271 0.95959 0.81542 0.0
H658 H 0.52775 0.96984 0.78681 0.0
H659 H 0.51949 0.89206 0.74955 0.0
H660 H 0.54134 0.99336 0.6773 0.0
H661 H 0.52984 0.96863 0.70583 0.0
H662 H 0.60623 0.9781 0.74387 0.0
C663 C 0.5262 0.94465 0.79156 0.0
C664 C 0.53888 0.91037 0.74845 0.0
C665 C 0.51196 0.93869 0.80801 0.0
C666 C 0.56192 0.98417 0.68498 0.0
C667 C 0.55524 0.97011 0.70139 0.0
C668 C 0.58777 0.95884 0.74498 0.0
C669 C 0.53769 0.91842 0.78118 0.0
C670 C 0.55203 0.92536 0.7636 0.0
C671 C 0.58101 0.95888 0.71217 0.0
C672 C 0.57332 0.94518 0.72981 0.0
H673 H 0.5195 0.85479 0.8089 0.0
H674 H 0.54307 0.86533 0.77963 0.0
H675 H 0.58756 0.96102 0.77327 0.0
H676 H 0.64585 0.97681 0.68521 0.0
H677 H 0.63401 0.95359 0.71441 0.0
C678 C 0.59115 0.53911 0.31607 0.0
C679 C 0.59857 0.50551 0.31849 0.0
C680 C 0.58242 0.55099 0.29938 0.0
C681 C 0.5388 0.52425 0.26097 0.0
H682 H 0.57778 0.59799 0.23583 0.0
C683 C 0.50123 0.5535 0.18989 0.0
C684 C 0.50114 0.58636 0.1839 0.0
C685 C 0.51354 0.54551 0.20651 0.0
C686 C 0.5662 0.57774 0.24282 0.0
H687 H 0.60383 0.45824 0.30545 0.0
H688 H 0.58779 0.47892 0.27627 0.0
H689 H 0.60082 0.58075 0.26427 0.0
H690 H 0.51328 0.63678 0.19108 0.0
H691 H 0.53327 0.623 0.22059 0.0
H692 H 0.5034 0.5217 0.2402 0.0
C693 C 0.58911 0.49602 0.28725 0.0
C694 C 0.57962 0.56775 0.259 0.0
C695 C 0.59845 0.48427 0.30386 0.0
C696 C 0.51278 0.61123 0.19527 0.0
C697 C 0.52471 0.60325 0.21211 0.0
C698 C 0.52501 0.53457 0.24504 0.0
C699 C 0.58036 0.52931 0.28498 0.0
C700 C 0.56631 0.54058 0.26803 0.0
C701 C 0.52545 0.57021 0.21789 0.0
C702 C 0.53885 0.56107 0.23556 0.0
H703 H 0.59114 0.55592 0.3272 0.0
H704 H 0.57565 0.57672 0.29792 0.0
H705 H 0.52771 0.50365 0.26792 0.0
H706 H 0.49185 0.5337 0.18169 0.0
H707 H 0.51416 0.51973 0.21027 0.0
C708 C 0.9834 0.6143 0.81027 0.0
C709 C 0.99145 0.58969 0.82269 0.0
C710 C 0.97179 0.60566 0.79345 0.0
C711 C 0.92962 0.53959 0.7695 0.0
H712 H 0.97496 0.57119 0.72767 0.0
C713 C 0.88926 0.50878 0.6975 0.0
C714 C 0.91483 0.49651 0.68674 0.0
C715 C 0.89624 0.5222 0.71413 0.0
C716 C 0.96198 0.56236 0.73926 0.0
H717 H 0.99474 0.5366 0.82665 0.0
H718 H 0.97336 0.52192 0.79778 0.0
H719 H 0.9911 0.59204 0.75681 0.0
H720 H 0.96769 0.48762 0.68552 0.0
H721 H 0.97976 0.51194 0.71419 0.0
H722 H 0.90074 0.50964 0.75197 0.0
C723 C 0.97574 0.54782 0.80114 0.0
C724 C 0.97104 0.57444 0.75586 0.0
C725 C 0.98785 0.55634 0.81775 0.0
C726 C 0.94742 0.49753 0.69319 0.0
C727 C 0.9544 0.5114 0.70964 0.0
C728 C 0.92018 0.52795 0.75287 0.0
C729 C 0.96754 0.57233 0.78885 0.0
C730 C 0.95541 0.56262 0.77115 0.0
C731 C 0.92895 0.52405 0.72021 0.0
C732 C 0.93675 0.5387 0.73764 0.0
H733 H 0.98556 0.6402 0.8136 0.0
H734 H 0.96563 0.62501 0.78414 0.0
H735 H 0.91713 0.53022 0.78111 0.0
H736 H 0.86394 0.50889 0.69293 0.0
H737 H 0.87618 0.53184 0.72207 0.0
C738 C 0.97896 0.87966 0.19224 0.0
C739 C 0.98807 0.90581 0.18097 0.0
C740 C 0.96577 0.88608 0.20901 0.0
C741 C 0.9203 0.94826 0.2339 0.0
H742 H 0.96183 0.9124 0.27582 0.0
C743 C 0.89609 0.00272 0.30293 0.0
C744 C 0.89854 0.98223 0.3178 0.0
C745 C 0.90352 0.99053 0.28612 0.0
C746 C 0.94936 0.92212 0.26429 0.0
H747 H 0.9915 0.95928 0.17906 0.0
H748 H 0.96733 0.97017 0.20782 0.0
H749 H 0.9813 0.89553 0.2467 0.0
H750 H 0.90896 0.93255 0.32675 0.0
H751 H 0.92063 0.91076 0.29736 0.0
H752 H 0.88806 0.97452 0.25125 0.0
C753 C 0.97021 0.94478 0.20358 0.0
C754 C 0.96069 0.9125 0.24761 0.0
C755 C 0.98391 0.93844 0.18703 0.0
C756 C 0.90722 0.94895 0.31549 0.0
C757 C 0.91414 0.93657 0.29865 0.0
C758 C 0.90857 0.95745 0.25054 0.0
C759 C 0.96094 0.91872 0.21471 0.0
C760 C 0.94672 0.92603 0.23229 0.0
C761 C 0.91307 0.95736 0.28376 0.0
C762 C 0.92341 0.94509 0.266 0.0
H763 H 0.98143 0.85424 0.18803 0.0
H764 H 0.95876 0.86557 0.21739 0.0
H765 H 0.90889 0.95875 0.22224 0.0
H766 H 0.88982 0.02858 0.30439 0.0
H767 H 0.90295 0.00754 0.2751 0.0
C768 C 0.64648 0.18674 0.10792 0.0
C769 C 0.63497 0.17046 0.12312 0.0
C770 C 0.67432 0.2072 0.10877 0.0
C771 C 0.72299 0.25956 0.13753 0.0
H772 H 0.79766 0.23765 0.10772 0.0
C773 C 0.84647 0.32931 0.14482 0.0
C774 C 0.86555 0.3348 0.12963 0.0
C775 C 0.8192 0.30811 0.14432 0.0
C776 C 0.77695 0.24464 0.11594 0.0
H777 H 0.64278 0.16378 0.15121 0.0
H778 H 0.69067 0.20063 0.15278 0.0
H779 H 0.74713 0.20513 0.10579 0.0
H780 H 0.87116 0.32228 0.10199 0.0
H781 H 0.82288 0.28664 0.1008 0.0
H782 H 0.75174 0.29985 0.1472 0.0
C783 C 0.67844 0.19707 0.1402 0.0
C784 C 0.74804 0.22579 0.11487 0.0
C785 C 0.65111 0.17598 0.13928 0.0
C786 C 0.85713 0.31823 0.11398 0.0
C787 C 0.8294 0.29762 0.11335 0.0
C788 C 0.75159 0.2789 0.13834 0.0
C789 C 0.69064 0.21239 0.1249 0.0
C790 C 0.72088 0.23299 0.12571 0.0
C791 C 0.80975 0.29246 0.12848 0.0
C792 C 0.77917 0.27165 0.12763 0.0
H793 H 0.6347 0.18275 0.09525 0.0
H794 H 0.68319 0.21889 0.0968 0.0
H795 H 0.70225 0.26572 0.14595 0.0
H796 H 0.85252 0.34157 0.15712 0.0
H797 H 0.80548 0.3042 0.15641 0.0
C798 C 0.18577 0.85766 0.60952 0.0
C799 C 0.17176 0.86903 0.62539 0.0
C800 C 0.20554 0.82931 0.60935 0.0
C801 C 0.25977 0.77807 0.63582 0.0
H802 H 0.23296 0.70561 0.60558 0.0
C803 C 0.32665 0.65281 0.63955 0.0
C804 C 0.33057 0.63449 0.62396 0.0
C805 C 0.30595 0.68042 0.63997 0.0
C806 C 0.24127 0.72569 0.6139 0.0
H807 H 0.16845 0.86038 0.65358 0.0
H808 H 0.20412 0.81153 0.65334 0.0
H809 H 0.20162 0.75702 0.60536 0.0
H810 H 0.31567 0.63043 0.5966 0.0
H811 H 0.28075 0.6794 0.59698 0.0
H812 H 0.30015 0.74781 0.64389 0.0
C813 C 0.19932 0.82431 0.64104 0.0
C814 C 0.22312 0.75511 0.61381 0.0
C815 C 0.17892 0.8522 0.64116 0.0
C816 C 0.31281 0.6439 0.60887 0.0
C817 C 0.29267 0.67202 0.60914 0.0
C818 C 0.27836 0.74896 0.63565 0.0
C819 C 0.2123 0.81226 0.62509 0.0
C820 C 0.23211 0.78148 0.62484 0.0
C821 C 0.28926 0.69101 0.62466 0.0
C822 C 0.26929 0.72216 0.62478 0.0
H823 H 0.18047 0.86994 0.59713 0.0
H824 H 0.21543 0.82059 0.5969 0.0
H825 H 0.26734 0.79818 0.64434 0.0
H826 H 0.33984 0.64594 0.65145 0.0
H827 H 0.30333 0.69356 0.65233 0.0
C828 C 0.85588 0.18258 0.88887 0.0
C829 C 0.86587 0.16696 0.87317 0.0
C830 C 0.82812 0.20318 0.88905 0.0
C831 C 0.77682 0.25675 0.86222 0.0
H832 H 0.70538 0.2342 0.89409 0.0
C833 C 0.65279 0.32631 0.85893 0.0
C834 C 0.63531 0.33162 0.87468 0.0
C835 C 0.68008 0.30517 0.85855 0.0
C836 C 0.72521 0.24135 0.88531 0.0
H837 H 0.8554 0.16164 0.84524 0.0
H838 H 0.80761 0.19871 0.84545 0.0
H839 H 0.75595 0.20155 0.89424 0.0
H840 H 0.63254 0.31882 0.9024 0.0
H841 H 0.68093 0.28319 0.90204 0.0
H842 H 0.74716 0.29729 0.85372 0.0
C843 C 0.821 0.19453 0.85764 0.0
C844 C 0.75414 0.22244 0.88536 0.0
C845 C 0.84827 0.17332 0.85754 0.0
C846 C 0.64533 0.31491 0.89001 0.0
C847 C 0.67311 0.29432 0.88975 0.0
C848 C 0.74822 0.27613 0.86242 0.0
C849 C 0.81032 0.20916 0.87345 0.0
C850 C 0.78011 0.22986 0.87374 0.0
C851 C 0.69117 0.28938 0.87404 0.0
C852 C 0.72181 0.26862 0.87388 0.0
H853 H 0.86879 0.17796 0.90115 0.0
H854 H 0.82044 0.21433 0.90139 0.0
H855 H 0.79664 0.26311 0.85323 0.0
H856 H 0.64546 0.33867 0.84686 0.0
H857 H 0.69253 0.3014 0.84607 0.0
C858 C 0.17317 0.65585 0.36149 0.0
C859 C 0.16663 0.64004 0.37765 0.0
C860 C 0.19407 0.68333 0.36081 0.0
C861 C 0.22119 0.75349 0.3864 0.0
H862 H 0.29684 0.75677 0.35512 0.0
C863 C 0.31438 0.86186 0.38854 0.0
C864 C 0.33168 0.87017 0.3731 0.0
C865 C 0.29347 0.83434 0.38889 0.0
C866 C 0.27545 0.75673 0.36369 0.0
H867 H 0.1769 0.64057 0.40574 0.0
H868 H 0.21272 0.68931 0.40459 0.0
H869 H 0.26253 0.70738 0.35599 0.0
H870 H 0.3394 0.85724 0.34566 0.0
H871 H 0.30156 0.81056 0.34588 0.0
H872 H 0.2329 0.8031 0.39365 0.0
C873 C 0.20194 0.68007 0.39246 0.0
C874 C 0.256 0.72819 0.36427 0.0
C875 C 0.18165 0.65211 0.39309 0.0
C876 C 0.32658 0.85126 0.35781 0.0
C877 C 0.30511 0.8242 0.35802 0.0
C878 C 0.24018 0.78232 0.38555 0.0
C879 C 0.20821 0.69601 0.37633 0.0
C880 C 0.22884 0.72624 0.37571 0.0
C881 C 0.28877 0.81482 0.37368 0.0
C882 C 0.26777 0.78437 0.37425 0.0
H883 H 0.16196 0.64708 0.34938 0.0
H884 H 0.19847 0.69526 0.34822 0.0
H885 H 0.20009 0.7527 0.39519 0.0
H886 H 0.31811 0.87577 0.4006 0.0
H887 H 0.28191 0.82786 0.4013 0.0
C888 C 0.15154 0.67378 0.86108 0.0
C889 C 0.13489 0.6683 0.87707 0.0
C890 C 0.17913 0.69453 0.86042 0.0
C891 C 0.22677 0.75699 0.88687 0.0
H892 H 0.2959 0.73516 0.8534 0.0
C893 C 0.35806 0.8148 0.88841 0.0
C894 C 0.36726 0.83046 0.87259 0.0
C895 C 0.3302 0.79434 0.889 0.0
C896 C 0.27674 0.74153 0.86278 0.0
H897 H 0.13391 0.6804 0.90492 0.0
H898 H 0.18281 0.71534 0.90403 0.0
H899 H 0.24603 0.70159 0.85452 0.0
H900 H 0.35527 0.83598 0.84485 0.0
H901 H 0.30732 0.79917 0.84575 0.0
H902 H 0.25856 0.7962 0.89552 0.0
C903 C 0.17412 0.70464 0.89179 0.0
C904 C 0.2479 0.72251 0.86335 0.0
C905 C 0.14604 0.68446 0.89235 0.0
C906 C 0.34879 0.82425 0.85723 0.0
C907 C 0.3214 0.80319 0.85773 0.0
C908 C 0.25594 0.77554 0.88654 0.0
C909 C 0.19136 0.70974 0.87583 0.0
C910 C 0.22229 0.73007 0.87531 0.0
C911 C 0.31148 0.78854 0.87368 0.0
C912 C 0.28109 0.76811 0.87442 0.0
H913 H 0.14334 0.66186 0.84905 0.0
H914 H 0.19091 0.69844 0.84776 0.0
H915 H 0.20759 0.76418 0.89605 0.0
H916 H 0.37166 0.81932 0.90049 0.0
H917 H 0.32314 0.78318 0.90144 0.0
C918 C 0.81393 0.13873 0.3887 0.0
C919 C 0.82924 0.12814 0.37306 0.0
C920 C 0.79342 0.16654 0.3887 0.0
C921 C 0.77326 0.24094 0.36137 0.0
H922 H 0.70076 0.24913 0.39452 0.0
C923 C 0.67113 0.34159 0.35789 0.0
C924 C 0.66498 0.35884 0.37366 0.0
C925 C 0.69227 0.31428 0.35774 0.0
C926 C 0.72108 0.24721 0.38527 0.0
H927 H 0.83389 0.13737 0.345 0.0
H928 H 0.79679 0.18462 0.34473 0.0
H929 H 0.73338 0.19856 0.39397 0.0
H930 H 0.67635 0.36116 0.40161 0.0
H931 H 0.71268 0.31281 0.4014 0.0
H932 H 0.75976 0.28927 0.35227 0.0
C933 C 0.80159 0.17251 0.35721 0.0
C934 C 0.73996 0.21827 0.38498 0.0
C935 C 0.82263 0.14513 0.35729 0.0
C936 C 0.68077 0.34848 0.38924 0.0
C937 C 0.70135 0.32072 0.38916 0.0
C938 C 0.75394 0.26957 0.36144 0.0
C939 C 0.78717 0.18409 0.37297 0.0
C940 C 0.76646 0.21471 0.37307 0.0
C941 C 0.70711 0.30325 0.37343 0.0
C942 C 0.72779 0.27303 0.37344 0.0
H943 H 0.81885 0.12634 0.4011 0.0
H944 H 0.78335 0.17479 0.40118 0.0
H945 H 0.79383 0.23969 0.35228 0.0
H946 H 0.65934 0.349 0.34567 0.0
H947 H 0.69625 0.30115 0.34545 0.0
C948 C 0.14467 0.81647 0.11027 0.0
C949 C 0.13384 0.83184 0.12585 0.0
C950 C 0.17263 0.79616 0.11038 0.0
C951 C 0.24676 0.77628 0.1381 0.0
H952 H 0.25611 0.70428 0.10473 0.0
C953 C 0.34639 0.67294 0.14185 0.0
C954 C 0.36472 0.66779 0.12633 0.0
C955 C 0.31928 0.69434 0.14189 0.0
C956 C 0.25385 0.72447 0.11404 0.0
H957 H 0.14281 0.83681 0.15391 0.0
H958 H 0.19025 0.79996 0.15439 0.0
H959 H 0.20538 0.73665 0.10505 0.0
H960 H 0.36919 0.68117 0.09871 0.0
H961 H 0.32107 0.7179 0.09869 0.0
H962 H 0.29488 0.76274 0.14753 0.0
C963 C 0.17825 0.80459 0.14187 0.0
C964 C 0.22483 0.74322 0.1142 0.0
C965 C 0.15075 0.82549 0.14166 0.0
C966 C 0.35568 0.68486 0.1109 0.0
C967 C 0.32807 0.70566 0.11085 0.0
C968 C 0.27545 0.75704 0.13818 0.0
C969 C 0.19009 0.79012 0.12616 0.0
C970 C 0.22084 0.76955 0.12619 0.0
C971 C 0.3095 0.71039 0.12631 0.0
C972 C 0.27932 0.73109 0.12609 0.0
H973 H 0.13234 0.82122 0.09783 0.0
H974 H 0.18105 0.78609 0.09793 0.0
H975 H 0.24524 0.79673 0.14726 0.0
H976 H 0.35279 0.66012 0.15393 0.0
H977 H 0.30529 0.69753 0.15397 0.0
C978 C 0.67743 0.14892 0.6403 0.0
C979 C 0.67088 0.13231 0.62441 0.0
C980 C 0.6979 0.17677 0.64053 0.0
C981 C 0.7574 0.22538 0.61255 0.0
H982 H 0.73859 0.29368 0.64702 0.0
C983 C 0.81324 0.35781 0.61043 0.0
C984 C 0.83173 0.36564 0.62557 0.0
C985 C 0.79274 0.32994 0.61023 0.0
C986 C 0.74406 0.27476 0.63733 0.0
H987 H 0.68064 0.13178 0.59629 0.0
H988 H 0.71492 0.18107 0.59646 0.0
H989 H 0.7053 0.24357 0.64662 0.0
H990 H 0.84229 0.35129 0.65256 0.0
H991 H 0.80535 0.3034 0.65241 0.0
H992 H 0.79535 0.25771 0.6029 0.0
C993 C 0.70542 0.17215 0.60894 0.0
C994 C 0.72523 0.24578 0.63718 0.0
C995 C 0.68559 0.14383 0.60879 0.0
C996 C 0.82833 0.34583 0.64071 0.0
C997 C 0.80721 0.3185 0.64065 0.0
C998 C 0.77568 0.25472 0.61247 0.0
C999 C 0.71168 0.1893 0.6248 0.0
C1000 C 0.73175 0.22043 0.62488 0.0
C1001 C 0.78972 0.30995 0.62531 0.0
C1002 C 0.76932 0.27956 0.62493 0.0
H1003 H 0.66659 0.14046 0.65257 0.0
H1004 H 0.70272 0.18847 0.65312 0.0
H1005 H 0.76383 0.20643 0.60309 0.0
H1006 H 0.8156 0.37248 0.59853 0.0
H1007 H 0.77939 0.32386 0.59827 0.0
C1008 C 0.54491 0.73492 0.09244 0.0
C1009 C 0.51771 0.72341 0.10217 0.0
C1010 C 0.55521 0.76764 0.09391 0.0
C1011 C 0.55376 0.83771 0.12434 0.0
H1012 H 0.57817 0.88861 0.08297 0.0
C1013 C 0.57578 0.97825 0.12575 0.0
C1014 C 0.59894 0.99193 0.11403 0.0
C1015 C 0.569 0.9445 0.12549 0.0
C1016 C 0.57206 0.87455 0.09469 0.0
H1017 H 0.47954 0.73717 0.12079 0.0
H1018 H 0.49749 0.79474 0.12333 0.0
H1019 H 0.55794 0.83238 0.07944 0.0
H1020 H 0.63482 0.98052 0.09368 0.0
H1021 H 0.62372 0.92137 0.09357 0.0
H1022 H 0.56799 0.87983 0.13961 0.0
C1023 C 0.51092 0.77826 0.11466 0.0
C1024 C 0.56026 0.84241 0.09264 0.0
C1025 C 0.50042 0.7455 0.11306 0.0
C1026 C 0.61689 0.97078 0.10289 0.0
C1027 C 0.61018 0.93694 0.10267 0.0
C1028 C 0.56576 0.86982 0.1264 0.0
C1029 C 0.53864 0.78952 0.10523 0.0
C1030 C 0.55082 0.82374 0.10743 0.0
C1031 C 0.5854 0.9236 0.11356 0.0
C1032 C 0.57488 0.88868 0.11159 0.0
H1033 H 0.55847 0.71845 0.08383 0.0
H1034 H 0.57673 0.77557 0.08655 0.0
H1035 H 0.54718 0.82365 0.13599 0.0
H1036 H 0.56195 0.99389 0.13468 0.0
H1037 H 0.54969 0.93513 0.13403 0.0
C1038 C 0.75444 0.51633 0.59328 0.0
C1039 C 0.77239 0.52241 0.60876 0.0
C1040 C 0.72212 0.52815 0.59158 0.0
C1041 C 0.66491 0.58967 0.61199 0.0
H1042 H 0.59796 0.54151 0.58601 0.0
C1043 C 0.52375 0.60408 0.62 0.0
C1044 C 0.50551 0.60826 0.60444 0.0
C1045 C 0.55765 0.59814 0.61921 0.0
C1046 C 0.61661 0.55536 0.59311 0.0
H1047 H 0.77069 0.54365 0.63491 0.0
H1048 H 0.71387 0.5626 0.63252 0.0
H1049 H 0.654 0.51958 0.58761 0.0
H1050 H 0.5078 0.60992 0.57592 0.0
H1051 H 0.56738 0.59858 0.57446 0.0
H1052 H 0.62669 0.62437 0.61829 0.0
C1053 C 0.72485 0.55024 0.62129 0.0
C1054 C 0.64873 0.54289 0.59401 0.0
C1055 C 0.75724 0.53908 0.62279 0.0
C1056 C 0.5217 0.60738 0.58806 0.0
C1057 C 0.55551 0.60063 0.58723 0.0
C1058 C 0.63266 0.60171 0.61138 0.0
C1059 C 0.70708 0.54572 0.6055 0.0
C1060 C 0.67323 0.55967 0.60367 0.0
C1061 C 0.57356 0.59543 0.60281 0.0
C1062 C 0.60825 0.58451 0.60207 0.0
H1063 H 0.76596 0.50374 0.58227 0.0
H1064 H 0.70939 0.52439 0.57918 0.0
H1065 H 0.68323 0.60384 0.61912 0.0
H1066 H 0.51143 0.60423 0.63269 0.0
H1067 H 0.5711 0.59392 0.63137 0.0
C1068 C 0.90882 0.52655 0.13498 0.0
C1069 C 0.89251 0.51218 0.12054 0.0
C1070 C 0.91504 0.56041 0.13534 0.0
C1071 C 0.89629 0.64025 0.11351 0.0
H1072 H 0.98786 0.65958 0.12448 0.0
C1073 C 0.95948 0.75973 0.09085 0.0
C1074 C 0.98064 0.77594 0.10273 0.0
C1075 C 0.947 0.7285 0.09474 0.0
C1076 C 0.9621 0.65474 0.12165 0.0
H1077 H 0.86796 0.52215 0.09571 0.0
H1078 H 0.87887 0.58139 0.09624 0.0
H1079 H 0.96659 0.60404 0.129 0.0
H1080 H 0.00562 0.77186 0.12795 0.0
H1081 H 0.98395 0.71696 0.13473 0.0
H1082 H 0.8921 0.69088 0.10576 0.0
C1083 C 0.88665 0.56656 0.10738 0.0
C1084 C 0.94985 0.62292 0.12428 0.0
C1085 C 0.88031 0.53264 0.10707 0.0
C1086 C 0.98968 0.75985 0.11845 0.0
C1087 C 0.97717 0.7285 0.12235 0.0
C1088 C 0.90856 0.6721 0.11088 0.0
C1089 C 0.90517 0.58057 0.12121 0.0
C1090 C 0.91693 0.61519 0.12001 0.0
C1091 C 0.9554 0.71267 0.11061 0.0
C1092 C 0.94174 0.67954 0.11465 0.0
H1093 H 0.91806 0.51128 0.14563 0.0
H1094 H 0.9287 0.57059 0.14637 0.0
H1095 H 0.87073 0.63515 0.11031 0.0
H1096 H 0.95257 0.77121 0.07849 0.0
H1097 H 0.93096 0.71663 0.08522 0.0
C1098 C 0.74098 0.95669 0.5872 0.0
C1099 C 0.72767 0.98089 0.59842 0.0
C1100 C 0.77309 0.94523 0.58966 0.0
C1101 C 0.83732 0.93697 0.62356 0.0
H1102 H 0.89477 0.92172 0.58341 0.0
C1103 C 0.9775 0.91501 0.62919 0.0
C1104 C 0.993 0.89475 0.61663 0.0
C1105 C 0.94367 0.92114 0.62825 0.0
C1106 C 0.87883 0.92521 0.59474 0.0
H1107 H 0.73778 0.01263 0.62079 0.0
H1108 H 0.79438 0.99288 0.62501 0.0
H1109 H 0.83964 0.94387 0.57868 0.0
H1110 H 0.98486 0.86295 0.59404 0.0
H1111 H 0.92546 0.87301 0.59259 0.0
H1112 H 0.87672 0.91853 0.63964 0.0
C1113 C 0.77969 0.98253 0.61442 0.0
C1114 C 0.84731 0.93811 0.59203 0.0
C1115 C 0.7475 0.99414 0.61188 0.0
C1116 C 0.97358 0.87859 0.60393 0.0
C1117 C 0.93965 0.88472 0.60297 0.0
C1118 C 0.86889 0.92398 0.62628 0.0
C1119 C 0.79266 0.95769 0.60343 0.0
C1120 C 0.82627 0.94429 0.60641 0.0
C1121 C 0.92459 0.90704 0.61472 0.0
C1122 C 0.89006 0.91812 0.6119 0.0
H1123 H 0.72636 0.9463 0.5766 0.0
H1124 H 0.78227 0.92596 0.58105 0.0
H1125 H 0.82144 0.94095 0.63487 0.0
H1126 H 0.99192 0.92747 0.63922 0.0
H1127 H 0.93292 0.93851 0.63748 0.0
C1128 C 0.61909 0.53073 0.89533 0.0
C1129 C 0.6047 0.50935 0.88291 0.0
C1130 C 0.61238 0.56458 0.89478 0.0
C1131 C 0.54594 0.61945 0.88077 0.0
H1132 H 0.60777 0.68957 0.89168 0.0
C1133 C 0.50757 0.7569 0.88161 0.0
C1134 C 0.5214 0.77673 0.89489 0.0
C1135 C 0.51875 0.72459 0.87906 0.0
C1136 C 0.59014 0.6702 0.88879 0.0
H1137 H 0.57467 0.50682 0.85929 0.0
H1138 H 0.56305 0.56589 0.85827 0.0
H1139 H 0.62782 0.63306 0.88834 0.0
H1140 H 0.55663 0.77796 0.9164 0.0
H1141 H 0.5757 0.7215 0.91223 0.0
H1142 H 0.50813 0.65622 0.88165 0.0
C1143 C 0.57886 0.55646 0.86864 0.0
C1144 C 0.60167 0.63791 0.88681 0.0
C1145 C 0.58558 0.52273 0.86919 0.0
C1146 C 0.54593 0.76337 0.90587 0.0
C1147 C 0.55696 0.7311 0.90342 0.0
C1148 C 0.53438 0.65166 0.88284 0.0
C1149 C 0.5912 0.57755 0.88179 0.0
C1150 C 0.57965 0.61219 0.88286 0.0
C1151 C 0.54383 0.71145 0.88984 0.0
C1152 C 0.55629 0.67738 0.88701 0.0
H1153 H 0.63369 0.52109 0.90612 0.0
H1154 H 0.62214 0.58024 0.90513 0.0
H1155 H 0.52827 0.60002 0.87806 0.0
H1156 H 0.48892 0.76671 0.87281 0.0
H1157 H 0.50832 0.71021 0.86837 0.0
C1158 C 0.74201 0.49381 0.38706 0.0
C1159 C 0.72203 0.50835 0.40009 0.0
C1160 C 0.77459 0.50439 0.38467 0.0
C1161 C 0.84209 0.54948 0.40708 0.0
H1162 H 0.87489 0.56362 0.35955 0.0
C1163 C 0.96597 0.61365 0.39532 0.0
C1164 C 0.98762 0.59699 0.38389 0.0
C1165 C 0.93259 0.60512 0.39591 0.0
C1166 C 0.86608 0.55964 0.37289 0.0
H1167 H 0.72093 0.54435 0.42126 0.0
H1168 H 0.77729 0.56315 0.41694 0.0
H1169 H 0.8192 0.54181 0.36393 0.0
H1170 H 0.99088 0.56031 0.36315 0.0
H1171 H 0.93256 0.54521 0.36424 0.0
H1172 H 0.88882 0.56727 0.41608 0.0
C1173 C 0.768 0.5435 0.40861 0.0
C1174 C 0.8343 0.547 0.3754 0.0
C1175 C 0.73556 0.53296 0.41097 0.0
C1176 C 0.97477 0.57325 0.37222 0.0
C1177 C 0.94138 0.56478 0.37277 0.0
C1178 C 0.87373 0.5622 0.40458 0.0
C1179 C 0.78782 0.52958 0.39533 0.0
C1180 C 0.82194 0.54187 0.39254 0.0
C1181 C 0.92019 0.57987 0.38503 0.0
C1182 C 0.88605 0.56751 0.38747 0.0
H1183 H 0.7322 0.47499 0.37838 0.0
H1184 H 0.78939 0.49292 0.37446 0.0
H1185 H 0.83354 0.54527 0.42045 0.0
H1186 H 0.9751 0.63191 0.40454 0.0
H1187 H 0.91668 0.61755 0.40529 0.0
C1188 C 0.87935 0.9683 0.89486 0.0
C1189 C 0.89168 0.98891 0.88151 0.0
C1190 C 0.886 0.93442 0.89456 0.0
C1191 C 0.94991 0.87848 0.87773 0.0
H1192 H 0.89271 0.81027 0.89651 0.0
C1193 C 0.99042 0.74159 0.88413 0.0
C1194 C 0.98167 0.72593 0.90002 0.0
C1195 C 0.97778 0.77283 0.88003 0.0
C1196 C 0.909 0.82911 0.8913 0.0
H1197 H 0.91785 0.99018 0.85661 0.0
H1198 H 0.9289 0.93095 0.85581 0.0
H1199 H 0.87092 0.86577 0.89182 0.0
H1200 H 0.9541 0.73144 0.9244 0.0
H1201 H 0.93221 0.78567 0.9173 0.0
H1202 H 0.98815 0.84203 0.87754 0.0
C1203 C 0.91493 0.94094 0.86678 0.0
C1204 C 0.8965 0.86086 0.8886 0.0
C1205 C 0.90844 0.97475 0.86715 0.0
C1206 C 0.96075 0.7425 0.91188 0.0
C1207 C 0.94811 0.77356 0.90779 0.0
C1208 C 0.96238 0.84674 0.8804 0.0
C1209 C 0.90494 0.92061 0.88083 0.0
C1210 C 0.91695 0.88604 0.88204 0.0
C1211 C 0.95615 0.78893 0.89175 0.0
C1212 C 0.94223 0.82187 0.88751 0.0
H1213 H 0.86667 0.97866 0.90616 0.0
H1214 H 0.87811 0.9195 0.90565 0.0
H1215 H 0.96652 0.89743 0.87295 0.0
H1216 H 0.00621 0.72934 0.87465 0.0
H1217 H 0.98433 0.78405 0.86753 0.0
C1218 C 0.52321 0.90902 0.36856 0.0
C1219 C 0.50864 0.89321 0.38311 0.0
C1220 C 0.55717 0.91456 0.3681 0.0
C1221 C 0.63695 0.89446 0.38943 0.0
H1222 H 0.65735 0.98591 0.37872 0.0
C1223 C 0.75973 0.9545 0.40979 0.0
C1224 C 0.77502 0.97612 0.39781 0.0
C1225 C 0.72796 0.94267 0.4066 0.0
C1226 C 0.65222 0.96017 0.38147 0.0
H1227 H 0.51832 0.8687 0.40799 0.0
H1228 H 0.57783 0.87835 0.40725 0.0
H1229 H 0.60131 0.96565 0.37475 0.0
H1230 H 0.76893 0.00245 0.37312 0.0
H1231 H 0.71327 0.98178 0.36749 0.0
H1232 H 0.68787 0.88918 0.39641 0.0
C1233 C 0.56302 0.88632 0.39613 0.0
C1234 C 0.6201 0.94852 0.37917 0.0
C1235 C 0.52896 0.8807 0.39655 0.0
C1236 C 0.75761 0.98618 0.3827 0.0
C1237 C 0.72579 0.97424 0.37946 0.0
C1238 C 0.66915 0.9061 0.39169 0.0
C1239 C 0.57724 0.90444 0.38222 0.0
C1240 C 0.61203 0.91564 0.38329 0.0
C1241 C 0.71073 0.95213 0.39132 0.0
C1242 C 0.67703 0.93921 0.38795 0.0
H1243 H 0.50804 0.91847 0.35793 0.0
H1244 H 0.56754 0.92793 0.35702 0.0
H1245 H 0.63152 0.86893 0.39255 0.0
H1246 H 0.77234 0.94676 0.42169 0.0
H1247 H 0.71678 0.92631 0.41621 0.0
C1248 C 0.45871 0.25983 0.90776 0.0
C1249 C 0.48217 0.27459 0.89661 0.0
C1250 C 0.44736 0.22794 0.90447 0.0
C1251 C 0.46745 0.15103 0.88084 0.0
H1252 H 0.37432 0.13261 0.88787 0.0
C1253 C 0.4144 0.02322 0.86583 0.0
C1254 C 0.3959 0.00921 0.87962 0.0
C1255 C 0.42137 0.05693 0.86571 0.0
C1256 C 0.40037 0.13739 0.88589 0.0
H1257 H 0.51257 0.2673 0.8734 0.0
H1258 H 0.49267 0.21135 0.86755 0.0
H1259 H 0.39515 0.18856 0.89228 0.0
H1260 H 0.36829 0.01985 0.90345 0.0
H1261 H 0.38027 0.07891 0.90323 0.0
H1262 H 0.47274 0.09982 0.87464 0.0
C1263 C 0.48327 0.22443 0.87896 0.0
C1264 C 0.41236 0.16937 0.88847 0.0
C1265 C 0.49475 0.25641 0.88232 0.0
C1266 C 0.38235 0.03 0.89258 0.0
C1267 C 0.38933 0.06381 0.89247 0.0
C1268 C 0.45544 0.1191 0.8782 0.0
C1269 C 0.45911 0.21003 0.88989 0.0
C1270 C 0.44612 0.17645 0.8862 0.0
C1271 C 0.40992 0.07737 0.87938 0.0
C1272 C 0.42185 0.11187 0.88087 0.0
H1273 H 0.44904 0.27304 0.91906 0.0
H1274 H 0.42941 0.21728 0.91341 0.0
H1275 H 0.49363 0.15554 0.87921 0.0
H1276 H 0.42472 0.00776 0.85555 0.0
H1277 H 0.43671 0.06682 0.85525 0.0
C1278 C 0.24392 0.46816 0.41335 0.0
C1279 C 0.22667 0.48932 0.40188 0.0
C1280 C 0.27438 0.45499 0.4085 0.0
C1281 C 0.34593 0.46833 0.38015 0.0
H1282 H 0.36244 0.37547 0.38914 0.0
C1283 C 0.47278 0.41211 0.36561 0.0
C1284 C 0.48596 0.39276 0.37928 0.0
C1285 C 0.43923 0.41997 0.36536 0.0
C1286 C 0.35828 0.40145 0.38661 0.0
H1287 H 0.22848 0.51374 0.37638 0.0
H1288 H 0.28228 0.49122 0.36808 0.0
H1289 H 0.30788 0.39856 0.39501 0.0
H1290 H 0.47418 0.36497 0.40288 0.0
H1291 H 0.41572 0.37891 0.40265 0.0
H1292 H 0.39652 0.47168 0.37242 0.0
C1293 C 0.27191 0.48479 0.38081 0.0
C1294 C 0.32705 0.41465 0.38996 0.0
C1295 C 0.2412 0.49783 0.38562 0.0
C1296 C 0.4646 0.3796 0.39207 0.0
C1297 C 0.43107 0.38767 0.39192 0.0
C1298 C 0.37723 0.4552 0.37692 0.0
C1299 C 0.28853 0.46286 0.39211 0.0
C1300 C 0.32075 0.44834 0.38707 0.0
C1301 C 0.41821 0.40885 0.37889 0.0
C1302 C 0.38395 0.42171 0.3804 0.0
H1303 H 0.23384 0.46165 0.42611 0.0
H1304 H 0.287 0.43877 0.41765 0.0
H1305 H 0.34183 0.49443 0.37794 0.0
H1306 H 0.48876 0.42224 0.35551 0.0
H1307 H 0.42999 0.4357 0.3549 0.0
C1308 C 0.04428 0.23462 0.90665 0.0
C1309 C 0.01807 0.22185 0.89663 0.0
C1310 C 0.05462 0.26718 0.90438 0.0
C1311 C 0.02851 0.34785 0.8864 0.0
H1312 H 0.1225 0.36638 0.88752 0.0
C1313 C 0.07788 0.47727 0.87153 0.0
C1314 C 0.09952 0.49012 0.8843 0.0
C1315 C 0.07064 0.44363 0.87112 0.0
C1316 C 0.0962 0.36155 0.88723 0.0
H1317 H 0.98186 0.23318 0.87648 0.0
H1318 H 5e-05 0.29014 0.87234 0.0
H1319 H 0.10309 0.3097 0.89105 0.0
H1320 H 0.13219 0.47745 0.90593 0.0
H1321 H 0.11978 0.4185 0.90513 0.0
H1322 H 0.02164 0.39969 0.88259 0.0
C1323 C 0.01234 0.27511 0.88217 0.0
C1324 C 0.08504 0.32915 0.88933 0.0
C1325 C 0.00185 0.24253 0.88455 0.0
C1326 C 0.11562 0.46827 0.89585 0.0
C1327 C 0.10842 0.43452 0.89542 0.0
C1328 C 0.03968 0.38018 0.88419 0.0
C1329 C 0.03912 0.28769 0.89192 0.0
C1330 C 0.05103 0.32197 0.8891 0.0
C1331 C 0.08501 0.42208 0.88344 0.0
C1332 C 0.07361 0.3874 0.88471 0.0
H1333 H 0.05688 0.21933 0.91625 0.0
H1334 H 0.07478 0.27629 0.91242 0.0
H1335 H 0.00216 0.34328 0.88642 0.0
H1336 H 0.0656 0.4935 0.86226 0.0
H1337 H 0.05303 0.4346 0.86149 0.0
C1338 C 0.26453 0.05161 0.40136 0.0
C1339 C 0.278 0.02486 0.39202 0.0
C1340 C 0.23202 0.06154 0.39841 0.0
C1341 C 0.15261 0.03245 0.38025 0.0
H1342 H 0.13124 0.12584 0.3802 0.0
C1343 C 0.02162 0.07665 0.36513 0.0
C1344 C 0.00817 0.09815 0.37779 0.0
C1345 C 0.05552 0.07078 0.36458 0.0
C1346 C 0.13688 0.0997 0.38021 0.0
H1347 H 0.26807 0.98756 0.37222 0.0
H1348 H 0.21128 0.00501 0.36689 0.0
H1349 H 0.18848 0.10833 0.38408 0.0
H1350 H 0.01996 0.13207 0.39902 0.0
H1351 H 0.07932 0.12202 0.39798 0.0
H1352 H 0.10104 0.02381 0.37647 0.0
C1353 C 0.22568 0.01801 0.37673 0.0
C1354 C 0.16959 0.08964 0.38251 0.0
C1355 C 0.25818 0.00795 0.37979 0.0
C1356 C 0.02958 0.11556 0.38904 0.0
C1357 C 0.06358 0.10973 0.38847 0.0
C1358 C 0.11999 0.04252 0.37785 0.0
C1359 C 0.21228 0.04505 0.38595 0.0
C1360 C 0.17778 0.05587 0.38274 0.0
C1361 C 0.0767 0.08641 0.37664 0.0
C1362 C 0.11174 0.07622 0.37794 0.0
H1363 H 0.27913 0.06478 0.41105 0.0
H1364 H 0.22228 0.08197 0.40602 0.0
H1365 H 0.15794 0.00626 0.38064 0.0
H1366 H 0.00571 0.06339 0.35609 0.0
H1367 H 0.06506 0.0532 0.35508 0.0
C1368 C 0.49113 0.24421 0.11559 0.0
C1369 C 0.48312 0.22918 0.09942 0.0
C1370 C 0.47814 0.27521 0.11991 0.0
C1371 C 0.40922 0.33106 0.1086 0.0
H1372 H 0.46549 0.39979 0.12759 0.0
C1373 C 0.37911 0.46972 0.1042 0.0
C1374 C 0.3909 0.49071 0.11752 0.0
C1375 C 0.38574 0.43588 0.10486 0.0
C1376 C 0.4492 0.3807 0.12265 0.0
H1377 H 0.45667 0.23559 0.07476 0.0
H1378 H 0.43414 0.28938 0.08225 0.0
H1379 H 0.48782 0.34463 0.12305 0.0
H1380 H 0.41596 0.49269 0.14273 0.0
H1381 H 0.42701 0.43349 0.14412 0.0
H1382 H 0.37078 0.36731 0.10784 0.0
C1383 C 0.44971 0.27695 0.09179 0.0
C1384 C 0.46208 0.34912 0.12 0.0
C1385 C 0.46271 0.24616 0.08748 0.0
C1386 C 0.40701 0.47697 0.1322 0.0
C1387 C 0.41349 0.44318 0.13292 0.0
C1388 C 0.39631 0.36262 0.11129 0.0
C1389 C 0.45689 0.29162 0.10813 0.0
C1390 C 0.44242 0.32417 0.1126 0.0
C1391 C 0.40411 0.42247 0.11892 0.0
C1392 C 0.41633 0.38797 0.11803 0.0
H1393 H 0.50654 0.23161 0.12512 0.0
H1394 H 0.48406 0.28595 0.13262 0.0
H1395 H 0.39331 0.3121 0.10317 0.0
H1396 H 0.36693 0.47973 0.09266 0.0
H1397 H 0.37835 0.42066 0.09378 0.0
C1398 C 0.24961 0.49671 0.60614 0.0
C1399 C 0.27457 0.47844 0.59786 0.0
C1400 C 0.21684 0.48606 0.60535 0.0
C1401 C 0.16734 0.41039 0.59675 0.0
H1402 H 0.09463 0.47247 0.59886 0.0
C1403 C 0.02424 0.38399 0.59129 0.0
C1404 C 0.00683 0.39636 0.60594 0.0
C1405 C 0.05808 0.39032 0.58947 0.0
C1406 C 0.1148 0.45493 0.59822 0.0
H1407 H 0.28501 0.43603 0.58142 0.0
H1408 H 0.22767 0.41808 0.57931 0.0
H1409 H 0.15087 0.49306 0.59571 0.0
H1410 H 0.01166 0.42209 0.63091 0.0
H1411 H 0.07037 0.43381 0.62747 0.0
H1412 H 0.13059 0.37231 0.59891 0.0
C1413 C 0.23332 0.43988 0.58702 0.0
C1414 C 0.14701 0.46666 0.59655 0.0
C1415 C 0.26611 0.45023 0.5881 0.0
C1416 C 0.02432 0.41289 0.61931 0.0
C1417 C 0.05782 0.41956 0.61738 0.0
C1418 C 0.13497 0.39866 0.59809 0.0
C1419 C 0.20832 0.45722 0.59596 0.0
C1420 C 0.17381 0.4446 0.59617 0.0
C1421 C 0.07467 0.40925 0.60221 0.0
C1422 C 0.10862 0.42092 0.59919 0.0
H1423 H 0.25569 0.51832 0.6139 0.0
H1424 H 0.19844 0.49981 0.61266 0.0
H1425 H 0.1873 0.39262 0.59676 0.0
H1426 H 0.0114 0.37133 0.58074 0.0
H1427 H 0.07081 0.38213 0.57767 0.0
C1428 C 0.00226 0.25778 0.11949 0.0
C1429 C 0.01931 0.27904 0.10805 0.0
C1430 C 0.01258 0.22509 0.12161 0.0
C1431 C 0.08584 0.1715 0.11502 0.0
H1432 H 0.02228 0.10071 0.12053 0.0
C1433 C 0.11639 0.03225 0.10845 0.0
C1434 C 0.09999 0.01051 0.11995 0.0
C1435 C 0.1093 0.06602 0.10879 0.0
C1436 C 0.04033 0.1203 0.11925 0.0
H1437 H 0.05935 0.28253 0.08919 0.0
H1438 H 0.0769 0.22534 0.09248 0.0
H1439 H 0.00286 0.15712 0.11666 0.0
H1440 H 0.0657 0.00735 0.14185 0.0
H1441 H 0.05325 0.06628 0.14242 0.0
H1442 H 0.12326 0.1343 0.11715 0.0
C1443 C 0.05626 0.23406 0.10028 0.0
C1444 C 0.02921 0.15263 0.11703 0.0
C1445 C 0.04612 0.26674 0.09831 0.0
C1446 C 0.07821 0.02349 0.13262 0.0
C1447 C 0.07103 0.05714 0.13292 0.0
C1448 C 0.09695 0.13909 0.1171 0.0
C1449 C 0.03998 0.21297 0.11217 0.0
C1450 C 0.05181 0.17862 0.11482 0.0
C1451 C 0.08567 0.07856 0.12063 0.0
C1452 C 0.07429 0.11319 0.11921 0.0
H1453 H 0.98177 0.26678 0.12731 0.0
H1454 H 0.99968 0.20962 0.13101 0.0
H1455 H 0.10394 0.19102 0.11368 0.0
H1456 H 0.13309 0.02297 0.09846 0.0
H1457 H 0.12087 0.08199 0.09913 0.0
C1458 C 0.47274 0.11992 0.60274 0.0
C1459 C 0.49266 0.10257 0.61476 0.0
C1460 C 0.43876 0.11404 0.60206 0.0
C1461 C 0.36896 0.07336 0.6255 0.0
H1462 H 0.3359 0.05957 0.57799 0.0
C1463 C 0.24633 0.00561 0.61135 0.0
C1464 C 0.22535 0.02067 0.59898 0.0
C1465 C 0.27871 0.01686 0.61353 0.0
C1466 C 0.34467 0.06362 0.59133 0.0
H1467 H 0.49236 0.06775 0.63646 0.0
H1468 H 0.43331 0.057 0.6351 0.0
H1469 H 0.39177 0.08023 0.58227 0.0
H1470 H 0.22211 0.05825 0.5787 0.0
H1471 H 0.27853 0.07792 0.58248 0.0
H1472 H 0.3219 0.05606 0.63451 0.0
C1473 C 0.44373 0.07517 0.62622 0.0
C1474 C 0.37661 0.07567 0.5938 0.0
C1475 C 0.47762 0.0811 0.6269 0.0
C1476 C 0.23767 0.04642 0.58845 0.0
C1477 C 0.27002 0.05751 0.59053 0.0
C1478 C 0.33702 0.06118 0.62302 0.0
C1479 C 0.42409 0.09074 0.61339 0.0
C1480 C 0.38921 0.08051 0.61091 0.0
C1481 C 0.29075 0.04316 0.60325 0.0
C1482 C 0.32463 0.05602 0.60591 0.0
H1483 H 0.4836 0.13655 0.59318 0.0
H1484 H 0.42416 0.1269 0.59225 0.0
H1485 H 0.3778 0.07715 0.63884 0.0
H1486 H 0.23739 0.98592 0.61975 0.0
H1487 H 0.2943 0.00508 0.62329 0.0
C1488 C 0.48123 0.96699 0.93159 0.0
C1489 C 0.46894 0.93461 0.93248 0.0
C1490 C 0.4894 0.98406 0.94699 0.0
C1491 C 0.51974 0.97409 0.99106 0.0
H1492 H 0.47712 0.05747 0.00195 0.0
C1493 C 0.56074 0.06857 0.04548 0.0
C1494 C 0.53642 0.07199 0.05857 0.0
C1495 C 0.55355 0.05187 0.02974 0.0
C1496 C 0.48931 0.03433 0.99894 0.0
H1497 H 0.4557 0.89449 0.95002 0.0
H1498 H 0.47115 0.9242 0.97711 0.0
H1499 H 0.4618 0.02737 0.97503 0.0
H1500 H 0.48551 0.06138 0.06543 0.0
H1501 H 0.47273 0.03341 0.03768 0.0
H1502 H 0.5477 0.98146 0.01484 0.0
C1503 C 0.47397 0.93634 0.96445 0.0
C1504 C 0.48057 0.01718 0.98364 0.0
C1505 C 0.465 0.9195 0.94903 0.0
C1506 C 0.50474 0.05901 0.05557 0.0
C1507 C 0.49737 0.04311 0.03973 0.0
C1508 C 0.52904 0.99165 0.00617 0.0
C1509 C 0.48615 0.96877 0.9635 0.0
C1510 C 0.4955 0.98681 0.97968 0.0
C1511 C 0.52175 0.03921 0.02677 0.0
C1512 C 0.51367 0.02173 0.01026 0.0
H1513 H 0.48435 0.97923 0.91898 0.0
H1514 H 0.49879 0.00904 0.94598 0.0
H1515 H 0.53168 0.95078 0.98815 0.0
H1516 H 0.58538 0.07823 0.04754 0.0
H1517 H 0.57264 0.04907 0.01983 0.0
C1518 C 0.44867 0.49924 0.56245 0.0
C1519 C 0.42402 0.52364 0.56251 0.0
C1520 C 0.46444 0.49042 0.54676 0.0
C1521 C 0.45646 0.49387 0.4982 0.0
H1522 H 0.55124 0.48027 0.49934 0.0
C1523 C 0.53517 0.48205 0.43501 0.0
C1524 C 0.56027 0.4581 0.43488 0.0
C1525 C 0.51793 0.48907 0.45052 0.0
C1526 C 0.52472 0.48357 0.49884 0.0
H1527 H 0.39631 0.55774 0.54619 0.0
H1528 H 0.42415 0.54255 0.51872 0.0
H1529 H 0.5221 0.4947 0.52641 0.0
H1530 H 0.58686 0.42254 0.45085 0.0
H1531 H 0.55661 0.43475 0.47802 0.0
H1532 H 0.4592 0.48299 0.47057 0.0
C1533 C 0.43099 0.52996 0.53079 0.0
C1534 C 0.508 0.49186 0.51435 0.0
C1535 C 0.41514 0.53876 0.54652 0.0
C1536 C 0.5677 0.44118 0.45057 0.0
C1537 C 0.5505 0.44829 0.46613 0.0
C1538 C 0.4732 0.48564 0.48267 0.0
C1539 C 0.45601 0.50585 0.53077 0.0
C1540 C 0.47367 0.49709 0.51422 0.0
C1541 C 0.52546 0.47236 0.46627 0.0
C1542 C 0.50753 0.48043 0.48282 0.0
H1543 H 0.45598 0.487 0.57455 0.0
H1544 H 0.48319 0.47137 0.54717 0.0
H1545 H 0.42995 0.49727 0.49769 0.0
H1546 H 0.52889 0.49554 0.42313 0.0
H1547 H 0.49909 0.50802 0.45024 0.0
C1548 C 0.9556 0.42549 0.05329 0.0
C1549 C 0.97148 0.43393 0.06914 0.0
C1550 C 0.96389 0.44155 0.03754 0.0
C1551 C 0.02992 0.49105 0.01655 0.0
H1552 H 0.96007 0.51819 0.98472 0.0
C1553 C 0.05315 0.57581 0.95606 0.0
C1554 C 0.03616 0.56774 0.94048 0.0
C1555 C 0.04583 0.55947 0.97189 0.0
C1556 C 0.97991 0.51047 0.99337 0.0
H1557 H 0.00857 0.4657 0.08093 0.0
H1558 H 0.02282 0.49377 0.05355 0.0
H1559 H 0.9462 0.48904 0.01187 0.0
H1560 H 0.99857 0.53592 0.92919 0.0
H1561 H 0.98616 0.50731 0.95659 0.0
H1562 H 0.06364 0.51248 0.99802 0.0
C1563 C 0.00425 0.47454 0.0532 0.0
C1564 C 0.97195 0.49373 0.00892 0.0
C1565 C 0.99592 0.45856 0.06892 0.0
C1566 C 0.01198 0.54288 0.94099 0.0
C1567 C 0.0047 0.52659 0.95674 0.0
C1568 C 0.0379 0.50778 0.00097 0.0
C1569 C 0.98829 0.4663 0.03733 0.0
C1570 C 0.99685 0.48378 0.02069 0.0
C1571 C 0.02136 0.53479 0.97241 0.0
C1572 C 0.01299 0.51761 0.98918 0.0
H1573 H 0.93671 0.40657 0.05304 0.0
H1574 H 0.9514 0.43438 0.02549 0.0
H1575 H 0.04972 0.48337 0.02524 0.0
H1576 H 0.07188 0.5949 0.95606 0.0
H1577 H 0.05892 0.56655 0.98377 0.0
C1578 C 0.95927 0.00618 0.43505 0.0
C1579 C 0.93459 0.03052 0.43459 0.0
C1580 C 0.97562 0.99885 0.4508 0.0
C1581 C 0.9946 0.03242 0.49498 0.0
H1582 H 0.01209 0.94075 0.50648 0.0
C1583 C 0.04276 0.99216 0.56333 0.0
C1584 C 0.0675 0.96787 0.56374 0.0
C1585 C 0.02656 0.99974 0.54757 0.0
C1586 C 0.00773 0.96648 0.50337 0.0
H1587 H 0.9078 0.06647 0.45023 0.0
H1588 H 0.9362 0.05347 0.47783 0.0
H1589 H 0.98374 0.95442 0.47903 0.0
H1590 H 0.0946 0.93233 0.54799 0.0
H1591 H 0.06642 0.94572 0.52038 0.0
H1592 H 0.01855 0.04446 0.51934 0.0
C1593 C 0.94315 0.04028 0.46596 0.0
C1594 C 0.99148 0.97433 0.48764 0.0
C1595 C 0.92677 0.04763 0.45018 0.0
C1596 C 0.07559 0.95113 0.54809 0.0
C1597 C 0.05934 0.9587 0.5323 0.0
C1598 C 0.01084 0.02456 0.51071 0.0
C1599 C 0.96765 0.01568 0.46646 0.0
C1600 C 0.98475 0.00739 0.48325 0.0
C1601 C 0.03471 0.98318 0.53186 0.0
C1602 C 0.01759 0.9915 0.51509 0.0
H1603 H 0.96596 0.99266 0.42324 0.0
H1604 H 0.99472 0.98014 0.45067 0.0
H1605 H 0.99024 0.05815 0.49187 0.0
H1606 H 0.03587 0.00542 0.5752 0.0
H1607 H 0.00738 0.01837 0.54774 0.0
C1608 C 0.5089 0.45633 0.93723 0.0
C1609 C 0.53317 0.43155 0.93697 0.0
C1610 C 0.5012 0.47278 0.95288 0.0
C1611 C 0.53421 0.49274 0.99693 0.0
H1612 H 0.44262 0.5122 0.00772 0.0
C1613 C 0.49304 0.54355 0.06453 0.0
C1614 C 0.46873 0.5683 0.06472 0.0
C1615 C 0.50105 0.52725 0.04887 0.0
C1616 C 0.46833 0.50732 0.00479 0.0
H1617 H 0.56844 0.40453 0.95291 0.0
H1618 H 0.55476 0.43317 0.98042 0.0
H1619 H 0.45631 0.48216 0.9808 0.0
H1620 H 0.43381 0.5955 0.04865 0.0
H1621 H 0.44799 0.5671 0.02115 0.0
H1622 H 0.54621 0.51788 0.02095 0.0
C1623 C 0.54193 0.44007 0.96843 0.0
C1624 C 0.47619 0.49005 0.98938 0.0
C1625 C 0.54964 0.42355 0.95272 0.0
C1626 C 0.45262 0.57651 0.0489 0.0
C1627 C 0.46062 0.56012 0.03319 0.0
C1628 C 0.52635 0.51 0.01235 0.0
C1629 C 0.51756 0.46485 0.96867 0.0
C1630 C 0.50923 0.4826 0.98526 0.0
C1631 C 0.48493 0.53528 0.03302 0.0
C1632 C 0.49331 0.51749 0.01646 0.0
H1633 H 0.49584 0.46319 0.9253 0.0
H1634 H 0.4827 0.49207 0.95254 0.0
H1635 H 0.55992 0.48786 0.99401 0.0
H1636 H 0.50584 0.53656 0.07652 0.0
H1637 H 0.51953 0.50794 0.04926 0.0
C1638 C 0.05842 0.5668 0.45253 0.0
C1639 C 0.06381 0.5415 0.44017 0.0
C1640 C 0.04006 0.56063 0.46785 0.0
C1641 C 0.0204 0.49741 0.49926 0.0
H1642 H 0.93944 0.54486 0.50968 0.0
C1643 C 0.95519 0.49532 0.56707 0.0
C1644 C 0.92281 0.48287 0.56665 0.0
C1645 C 0.97153 0.50343 0.55144 0.0
C1646 C 0.96201 0.5315 0.50687 0.0
H1647 H 0.05473 0.48994 0.43418 0.0
H1648 H 0.02379 0.47894 0.46129 0.0
H1649 H 0.97066 0.55783 0.48267 0.0
H1650 H 0.88179 0.4699 0.54965 0.0
H1651 H 0.91022 0.48534 0.52215 0.0
H1652 H 0.01231 0.47169 0.52363 0.0
C1653 C 0.03327 0.50357 0.45896 0.0
C1654 C 0.97987 0.539 0.49155 0.0
C1655 C 0.05089 0.50991 0.44347 0.0
C1656 C 0.90674 0.47946 0.55031 0.0
C1657 C 0.92289 0.48834 0.53465 0.0
C1658 C 0.003 0.49047 0.51475 0.0
C1659 C 0.02758 0.52889 0.47121 0.0
C1660 C 0.00909 0.52185 0.48761 0.0
C1661 C 0.95556 0.49993 0.53511 0.0
C1662 C 0.9736 0.50733 0.51862 0.0
H1663 H 0.06796 0.59141 0.45022 0.0
H1664 H 0.03602 0.58047 0.4772 0.0
H1665 H 0.0429 0.48393 0.49646 0.0
H1666 H 0.96828 0.49796 0.57947 0.0
H1667 H 0.99672 0.51237 0.55207 0.0
C1668 C 0.05269 0.92625 0.04796 0.0
C1669 C 0.03569 0.93446 0.06351 0.0
C1670 C 0.04544 0.94247 0.0321 0.0
C1671 C 0.00704 0.01844 0.01438 0.0
H1672 H 0.99875 0.96736 0.9713 0.0
C1673 C 0.95309 0.07356 0.95017 0.0
C1674 C 0.96889 0.06509 0.93429 0.0
C1675 C 0.96161 0.05771 0.96594 0.0
C1676 C 0.00134 0.98205 0.98318 0.0
H1677 H 0.99797 0.96621 0.07472 0.0
H1678 H 0.98524 0.99424 0.04713 0.0
H1679 H 0.01388 0.93977 0.99876 0.0
H1680 H 0.00601 0.03342 0.92247 0.0
H1681 H 0.02105 0.00607 0.94994 0.0
H1682 H 0.99445 0.06071 0.99882 0.0
C1683 C 0.00439 0.97558 0.04716 0.0
C1684 C 0.01004 0.96623 0.9989 0.0
C1685 C 0.01156 0.95935 0.06295 0.0
C1686 C 0.9933 0.04044 0.93448 0.0
C1687 C 0.0018 0.02461 0.95022 0.0
C1688 C 0.99836 0.03426 0.99865 0.0
C1689 C 0.02115 0.96728 0.03153 0.0
C1690 C 0.01288 0.98423 0.0147 0.0
C1691 C 0.98609 0.03306 0.96614 0.0
C1692 C 0.99532 0.01624 0.98287 0.0
H1693 H 0.07145 0.9072 0.048 0.0
H1694 H 0.05903 0.93576 0.02032 0.0
H1695 H 0.0095 0.0331 0.02627 0.0
H1696 H 0.93412 0.0924 0.95042 0.0
H1697 H 0.94875 0.06451 0.97794 0.0
C1698 C 0.41626 0.96891 0.45068 0.0
C1699 C 0.4322 0.97272 0.43434 0.0
C1700 C 0.43275 0.97688 0.46637 0.0
C1701 C 0.51261 0.97882 0.4866 0.0
H1702 H 0.48065 0.04847 0.51739 0.0
C1703 C 0.55708 0.00199 0.55827 0.0
C1704 C 0.57072 0.03342 0.56115 0.0
C1705 C 0.54057 0.99492 0.54255 0.0
C1706 C 0.48976 0.02903 0.50886 0.0
H1707 H 0.47788 0.98706 0.4215 0.0
H1708 H 0.50698 0.99978 0.44896 0.0
H1709 H 0.44969 0.03431 0.49049 0.0
H1710 H 0.57759 0.08224 0.55006 0.0
H1711 H 0.54749 0.07007 0.5226 0.0
H1712 H 0.55215 0.97288 0.50519 0.0
C1713 C 0.48164 0.99126 0.44959 0.0
C1714 C 0.47203 0.02082 0.49362 0.0
C1715 C 0.46496 0.98409 0.43393 0.0
C1716 C 0.56743 0.05777 0.54807 0.0
C1717 C 0.55015 0.05091 0.53248 0.0
C1718 C 0.52988 0.98648 0.50203 0.0
C1719 C 0.46562 0.98791 0.4659 0.0
C1720 C 0.48347 0.99579 0.48235 0.0
C1721 C 0.53674 0.01938 0.52962 0.0
C1722 C 0.5187 0.01177 0.5132 0.0
H1723 H 0.39098 0.96026 0.45131 0.0
H1724 H 0.42004 0.97405 0.47887 0.0
H1725 H 0.52181 0.95944 0.47806 0.0
H1726 H 0.55936 0.98276 0.56814 0.0
H1727 H 0.53033 0.97048 0.54059 0.0
loop_
_geom_bond_atom_site_label_1
_geom_bond_atom_site_label_2
_geom_bond_distance
_geom_bond_site_symmetry_2
_ccdc_geom_bond_type
Co0 N4 2.148 . S
Co0 N10 2.128 . S
Co0 N20 2.194 . S
Co0 O25 2.351 . S
Co0 O26 2.155 . S
Co0 O27 2.096 . S
C1 N4 1.301 . S
C1 N5 1.328 . S
C1 H6 0.930 . S
C2 C3 1.333 . S
C2 N4 1.317 . S
C2 H7 0.930 . S
C3 C2 1.333 . S
C3 N5 1.350 . S
C3 H29 0.931 . S
N4 Co0 2.148 . S
N4 C1 1.301 . S
N4 C2 1.317 . S
N5 C1 1.328 . S
N5 C3 1.350 . S
H6 C1 0.930 . S
H7 C2 0.930 . S
C8 O9 1.224 . S
C8 O27 1.247 . S
O9 C8 1.224 . S
N10 Co0 2.128 . S
N10 C11 1.355 . S
N10 C13 1.311 . S
C11 N10 1.355 . S
C11 C12 1.363 . S
C11 H23 0.929 . S
C12 C11 1.363 . S
C12 N14 1.375 . S
C12 H30 0.931 . S
C13 N10 1.311 . S
C13 N14 1.347 . S
C13 H24 0.929 . S
N14 C12 1.375 . S
N14 C13 1.347 . S
C15 C18 1.365 . S
C15 N20 1.328 . S
C15 H21 0.929 . S
C16 C17 1.362 . S
C16 C19 1.378 . S
C16 H31 0.929 . S
C17 C16 1.362 . S
C17 C18 1.366 . S
C18 C15 1.365 . S
C18 C17 1.366 . S
C18 H32 0.930 . S
C19 C16 1.378 . S
C19 N20 1.315 . S
C19 H22 0.930 . S
N20 Co0 2.194 . S
N20 C15 1.328 . S
N20 C19 1.315 . S
H21 C15 0.929 . S
H22 C19 0.930 . S
H23 C11 0.929 . S
H24 C13 0.929 . S
O25 Co0 2.351 . S
O25 C28 1.244 . S
O26 Co0 2.155 . S
O26 C28 1.240 . S
O27 Co0 2.096 . S
O27 C8 1.247 . S
C28 O25 1.244 . S
C28 O26 1.240 . S
H29 C3 0.931 . S
H30 C12 0.931 . S
H31 C16 0.929 . S
H32 C18 0.930 . S
Co33 N37 2.148 . S
Co33 N43 2.128 . S
Co33 N53 2.194 . S
Co33 O58 2.351 . S
Co33 O59 2.155 . S
Co33 O60 2.096 . S
C34 N37 1.301 . S
C34 N38 1.328 . S
C34 H39 0.930 . S
C35 C36 1.333 . S
C35 N37 1.317 . S
C35 H40 0.930 . S
C36 C35 1.333 . S
C36 N38 1.350 . S
C36 H62 0.931 . S
N37 Co33 2.148 . S
N37 C34 1.301 . S
N37 C35 1.317 . S
N38 C34 1.328 . S
N38 C36 1.350 . S
H39 C34 0.930 . S
H40 C35 0.930 . S
C41 O42 1.224 . S
C41 O60 1.247 . S
O42 C41 1.224 . S
N43 Co33 2.128 . S
N43 C44 1.355 . S
N43 C46 1.311 . S
C44 N43 1.355 . S
C44 C45 1.363 . S
C44 H56 0.929 . S
C45 C44 1.363 . S
C45 N47 1.375 . S
C45 H63 0.931 . S
C46 N43 1.311 . S
C46 N47 1.347 . S
C46 H57 0.929 . S
N47 C45 1.375 . S
N47 C46 1.347 . S
C48 C51 1.365 . S
C48 N53 1.328 . S
C48 H54 0.929 . S
C49 C50 1.362 . S
C49 C52 1.378 . S
C49 H64 0.929 . S
C50 C49 1.362 . S
C50 C51 1.366 . S
C51 C48 1.365 . S
C51 C50 1.366 . S
C51 H65 0.930 . S
C52 C49 1.378 . S
C52 N53 1.315 . S
C52 H55 0.930 . S
N53 Co33 2.194 . S
N53 C48 1.328 . S
N53 C52 1.315 . S
H54 C48 0.929 . S
H55 C52 0.930 . S
H56 C44 0.929 . S
H57 C46 0.929 . S
O58 Co33 2.351 . S
O58 C61 1.244 . S
O59 Co33 2.155 . S
O59 C61 1.240 . S
O60 Co33 2.096 . S
O60 C41 1.247 . S
C61 O58 1.244 . S
C61 O59 1.240 . S
H62 C36 0.931 . S
H63 C45 0.931 . S
H64 C49 0.929 . S
H65 C51 0.930 . S
Co66 N70 2.148 . S
Co66 N76 2.128 . S
Co66 N86 2.178 1_655 S
Co66 O91 2.351 1_655 S
Co66 O92 2.155 . S
Co66 O93 2.096 . S
C67 N70 1.301 . S
C67 N71 1.328 . S
C67 H72 0.930 . S
C68 C69 1.333 . S
C68 N70 1.317 . S
C68 H73 0.930 . S
C69 C68 1.333 . S
C69 N71 1.350 . S
C69 H95 0.931 . S
N70 Co66 2.148 . S
N70 C67 1.301 . S
N70 C68 1.317 . S
N71 C67 1.328 . S
N71 C69 1.350 . S
H72 C67 0.930 . S
H73 C68 0.930 . S
C74 O75 1.224 . S
C74 O93 1.247 . S
O75 C74 1.224 . S
N76 Co66 2.128 . S
N76 C77 1.355 1_655 S
N76 C79 1.311 . S
C77 N76 1.355 1_455 S
C77 C78 1.363 . S
C77 H89 0.929 . S
C78 C77 1.363 . S
C78 N80 1.375 . S
C78 H96 0.931 . S
C79 N76 1.311 . S
C79 N80 1.347 1_655 S
C79 H90 0.929 . S
N80 C78 1.375 . S
N80 C79 1.347 1_455 S
C81 C84 1.365 . S
C81 N86 1.359 . S
C81 H87 0.929 . S
C82 C83 1.362 . S
C82 C85 1.378 1_455 S
C82 H97 0.929 1_455 S
C83 C82 1.362 . S
C83 C84 1.366 . S
C84 C81 1.365 . S
C84 C83 1.366 . S
C84 H98 0.930 . S
C85 C82 1.378 1_655 S
C85 N86 1.302 1_655 S
C85 H88 0.930 . S
N86 Co66 2.178 1_455 S
N86 C81 1.359 . S
N86 C85 1.302 1_455 S
H87 C81 0.929 . S
H88 C85 0.930 . S
H89 C77 0.929 . S
H90 C79 0.929 . S
O91 Co66 2.351 1_455 S
O91 C94 1.244 . S
O92 Co66 2.155 . S
O92 C94 1.240 1_655 S
O93 Co66 2.096 . S
O93 C74 1.247 . S
C94 O91 1.244 . S
C94 O92 1.240 1_455 S
H95 C69 0.931 . S
H96 C78 0.931 . S
H97 C82 0.929 1_655 S
H98 C84 0.930 . S
Co99 N103 2.148 . S
Co99 N109 2.128 . S
Co99 N119 2.178 1_565 S
Co99 O124 2.351 1_565 S
Co99 O125 2.155 . S
Co99 O126 2.096 . S
C100 N103 1.301 . S
C100 N104 1.328 . S
C100 H105 0.930 . S
C101 C102 1.333 . S
C101 N103 1.317 . S
C101 H106 0.930 . S
C102 C101 1.333 . S
C102 N104 1.350 . S
C102 H128 0.931 . S
N103 Co99 2.148 . S
N103 C100 1.301 . S
N103 C101 1.317 . S
N104 C100 1.328 . S
N104 C102 1.350 . S
H105 C100 0.930 . S
H106 C101 0.930 . S
C107 O108 1.224 . S
C107 O126 1.247 . S
O108 C107 1.224 . S
N109 Co99 2.128 . S
N109 C110 1.355 1_565 S
N109 C112 1.311 . S
C110 N109 1.355 1_545 S
C110 C111 1.363 . S
C110 H122 0.929 . S
C111 C110 1.363 . S
C111 N113 1.375 . S
C111 H129 0.931 . S
C112 N109 1.311 . S
C112 N113 1.347 1_565 S
C112 H123 0.929 . S
N113 C111 1.375 . S
N113 C112 1.347 1_545 S
C114 C117 1.365 . S
C114 N119 1.359 . S
C114 H120 0.929 . S
C115 C116 1.362 . S
C115 C118 1.378 1_545 S
C115 H130 0.929 1_545 S
C116 C115 1.362 . S
C116 C117 1.366 . S
C117 C114 1.365 . S
C117 C116 1.366 . S
C117 H131 0.930 . S
C118 C115 1.378 1_565 S
C118 N119 1.302 1_565 S
C118 H121 0.930 . S
N119 Co99 2.178 1_545 S
N119 C114 1.359 . S
N119 C118 1.302 1_545 S
H120 C114 0.929 . S
H121 C118 0.930 . S
H122 C110 0.929 . S
H123 C112 0.929 . S
O124 Co99 2.351 1_545 S
O124 C127 1.244 . S
O125 Co99 2.155 . S
O125 C127 1.240 1_565 S
O126 Co99 2.096 . S
O126 C107 1.247 . S
C127 O124 1.244 . S
C127 O125 1.240 1_545 S
H128 C102 0.931 . S
H129 C111 0.931 . S
H130 C115 0.929 1_565 S
H131 C117 0.930 . S
Co132 N136 2.148 . S
Co132 N142 2.128 . S
Co132 N152 2.194 . S
Co132 O157 2.351 . S
Co132 O158 2.155 . S
Co132 O159 2.096 . S
C133 N136 1.301 . S
C133 N137 1.328 . S
C133 H138 0.930 . S
C134 C135 1.333 . S
C134 N136 1.317 . S
C134 H139 0.930 . S
C135 C134 1.333 . S
C135 N137 1.350 . S
C135 H161 0.931 . S
N136 Co132 2.148 . S
N136 C133 1.301 . S
N136 C134 1.317 . S
N137 C133 1.328 . S
N137 C135 1.350 . S
H138 C133 0.930 . S
H139 C134 0.930 . S
C140 O141 1.224 . S
C140 O159 1.247 . S
O141 C140 1.224 . S
N142 Co132 2.128 . S
N142 C143 1.355 . S
N142 C145 1.311 . S
C143 N142 1.355 . S
C143 C144 1.363 . S
C143 H155 0.929 . S
C144 C143 1.363 . S
C144 N146 1.375 . S
C144 H162 0.931 . S
C145 N142 1.311 . S
C145 N146 1.347 . S
C145 H156 0.929 . S
N146 C144 1.375 . S
N146 C145 1.347 . S
C147 C150 1.365 . S
C147 N152 1.328 . S
C147 H153 0.929 . S
C148 C149 1.362 . S
C148 C151 1.378 . S
C148 H163 0.929 . S
C149 C148 1.362 . S
C149 C150 1.366 . S
C150 C147 1.365 . S
C150 C149 1.366 . S
C150 H164 0.930 . S
C151 C148 1.378 . S
C151 N152 1.315 . S
C151 H154 0.930 . S
N152 Co132 2.194 . S
N152 C147 1.328 . S
N152 C151 1.315 . S
H153 C147 0.929 . S
H154 C151 0.930 . S
H155 C143 0.929 . S
H156 C145 0.929 . S
O157 Co132 2.351 . S
O157 C160 1.244 . S
O158 Co132 2.155 . S
O158 C160 1.240 . S
O159 Co132 2.096 . S
O159 C140 1.247 . S
C160 O157 1.244 . S
C160 O158 1.240 . S
H161 C135 0.931 . S
H162 C144 0.931 . S
H163 C148 0.929 . S
H164 C150 0.930 . S
Co165 N169 2.148 . S
Co165 N175 2.128 . S
Co165 N185 2.194 . S
Co165 O190 2.351 . S
Co165 O191 2.155 . S
Co165 O192 2.096 . S
C166 N169 1.301 . S
C166 N170 1.328 . S
C166 H171 0.930 . S
C167 C168 1.333 . S
C167 N169 1.317 . S
C167 H172 0.930 . S
C168 C167 1.333 . S
C168 N170 1.350 . S
C168 H194 0.931 . S
N169 Co165 2.148 . S
N169 C166 1.301 . S
N169 C167 1.317 . S
N170 C166 1.328 . S
N170 C168 1.350 . S
H171 C166 0.930 . S
H172 C167 0.930 . S
C173 O174 1.224 . S
C173 O192 1.247 . S
O174 C173 1.224 . S
N175 Co165 2.128 . S
N175 C176 1.355 . S
N175 C178 1.311 . S
C176 N175 1.355 . S
C176 C177 1.363 . S
C176 H188 0.929 . S
C177 C176 1.363 . S
C177 N179 1.375 . S
C177 H195 0.931 . S
C178 N175 1.311 . S
C178 N179 1.347 . S
C178 H189 0.929 . S
N179 C177 1.375 . S
N179 C178 1.347 . S
C180 C183 1.365 . S
C180 N185 1.328 . S
C180 H186 0.929 . S
C181 C182 1.362 . S
C181 C184 1.378 . S
C181 H196 0.929 . S
C182 C181 1.362 . S
C182 C183 1.366 . S
C183 C180 1.365 . S
C183 C182 1.366 . S
C183 H197 0.930 . S
C184 C181 1.378 . S
C184 N185 1.315 . S
C184 H187 0.930 . S
N185 Co165 2.194 . S
N185 C180 1.328 . S
N185 C184 1.315 . S
H186 C180 0.929 . S
H187 C184 0.930 . S
H188 C176 0.929 . S
H189 C178 0.929 . S
O190 Co165 2.351 . S
O190 C193 1.244 . S
O191 Co165 2.155 . S
O191 C193 1.240 . S
O192 Co165 2.096 . S
O192 C173 1.247 . S
C193 O190 1.244 . S
C193 O191 1.240 . S
H194 C168 0.931 . S
H195 C177 0.931 . S
H196 C181 0.929 . S
H197 C183 0.930 . S
Co198 N202 2.148 . S
Co198 N208 2.128 . S
Co198 N218 2.178 1_655 S
Co198 O223 2.351 1_655 S
Co198 O224 2.155 . S
Co198 O225 2.096 . S
C199 N202 1.301 . S
C199 N203 1.328 . S
C199 H204 0.930 . S
C200 C201 1.333 . S
C200 N202 1.317 . S
C200 H205 0.930 . S
C201 C200 1.333 . S
C201 N203 1.350 . S
C201 H227 0.931 . S
N202 Co198 2.148 . S
N202 C199 1.301 . S
N202 C200 1.317 . S
N203 C199 1.328 . S
N203 C201 1.350 . S
H204 C199 0.930 . S
H205 C200 0.930 . S
C206 O207 1.224 . S
C206 O225 1.247 . S
O207 C206 1.224 . S
N208 Co198 2.128 . S
N208 C209 1.355 1_655 S
N208 C211 1.311 . S
C209 N208 1.355 1_455 S
C209 C210 1.363 . S
C209 H221 0.929 . S
C210 C209 1.363 . S
C210 N212 1.375 . S
C210 H228 0.931 . S
C211 N208 1.311 . S
C211 N212 1.347 1_655 S
C211 H222 0.929 . S
N212 C210 1.375 . S
N212 C211 1.347 1_455 S
C213 C216 1.365 . S
C213 N218 1.359 . S
C213 H219 0.929 . S
C214 C215 1.362 . S
C214 C217 1.378 1_455 S
C214 H229 0.929 1_455 S
C215 C214 1.362 . S
C215 C216 1.366 . S
C216 C213 1.365 . S
C216 C215 1.366 . S
C216 H230 0.930 . S
C217 C214 1.378 1_655 S
C217 N218 1.302 1_655 S
C217 H220 0.930 . S
N218 Co198 2.178 1_455 S
N218 C213 1.359 . S
N218 C217 1.302 1_455 S
H219 C213 0.929 . S
H220 C217 0.930 . S
H221 C209 0.929 . S
H222 C211 0.929 . S
O223 Co198 2.351 1_455 S
O223 C226 1.244 . S
O224 Co198 2.155 . S
O224 C226 1.240 1_655 S
O225 Co198 2.096 . S
O225 C206 1.247 . S
C226 O223 1.244 . S
C226 O224 1.240 1_455 S
H227 C201 0.931 . S
H228 C210 0.931 . S
H229 C214 0.929 1_655 S
H230 C216 0.930 . S
Co231 N235 2.148 . S
Co231 N241 2.128 . S
Co231 N251 2.178 1_565 S
Co231 O256 2.351 1_565 S
Co231 O257 2.155 . S
Co231 O258 2.096 . S
C232 N235 1.301 . S
C232 N236 1.328 . S
C232 H237 0.930 . S
C233 C234 1.333 . S
C233 N235 1.317 . S
C233 H238 0.930 . S
C234 C233 1.333 . S
C234 N236 1.350 . S
C234 H260 0.931 . S
N235 Co231 2.148 . S
N235 C232 1.301 . S
N235 C233 1.317 . S
N236 C232 1.328 . S
N236 C234 1.350 . S
H237 C232 0.930 . S
H238 C233 0.930 . S
C239 O240 1.224 . S
C239 O258 1.247 . S
O240 C239 1.224 . S
N241 Co231 2.128 . S
N241 C242 1.355 1_565 S
N241 C244 1.311 . S
C242 N241 1.355 1_545 S
C242 C243 1.363 . S
C242 H254 0.929 . S
C243 C242 1.363 . S
C243 N245 1.375 . S
C243 H261 0.931 . S
C244 N241 1.311 . S
C244 N245 1.347 1_565 S
C244 H255 0.929 . S
N245 C243 1.375 . S
N245 C244 1.347 1_545 S
C246 C249 1.365 . S
C246 N251 1.359 . S
C246 H252 0.929 . S
C247 C248 1.362 . S
C247 C250 1.378 1_545 S
C247 H262 0.929 1_545 S
C248 C247 1.362 . S
C248 C249 1.366 . S
C249 C246 1.365 . S
C249 C248 1.366 . S
C249 H263 0.930 . S
C250 C247 1.378 1_565 S
C250 N251 1.302 1_565 S
C250 H253 0.930 . S
N251 Co231 2.178 1_545 S
N251 C246 1.359 . S
N251 C250 1.302 1_545 S
H252 C246 0.929 . S
H253 C250 0.930 . S
H254 C242 0.929 . S
H255 C244 0.929 . S
O256 Co231 2.351 1_545 S
O256 C259 1.244 . S
O257 Co231 2.155 . S
O257 C259 1.240 1_565 S
O258 Co231 2.096 . S
O258 C239 1.247 . S
C259 O256 1.244 . S
C259 O257 1.240 1_545 S
H260 C234 0.931 . S
H261 C243 0.931 . S
H262 C247 0.929 1_565 S
H263 C249 0.930 . S
Co264 N268 2.148 . S
Co264 N274 2.128 . S
Co264 N284 2.194 . S
Co264 O289 2.351 . S
Co264 O290 2.155 . S
Co264 O291 2.096 . S
C265 N268 1.301 . S
C265 N269 1.328 . S
C265 H270 0.930 . S
C266 C267 1.333 . S
C266 N268 1.317 . S
C266 H271 0.930 . S
C267 C266 1.333 . S
C267 N269 1.350 . S
C267 H293 0.931 . S
N268 Co264 2.148 . S
N268 C265 1.301 . S
N268 C266 1.317 . S
N269 C265 1.328 . S
N269 C267 1.350 . S
H270 C265 0.930 . S
H271 C266 0.930 . S
C272 O273 1.224 . S
C272 O291 1.247 . S
O273 C272 1.224 . S
N274 Co264 2.128 . S
N274 C275 1.355 . S
N274 C277 1.311 . S
C275 N274 1.355 . S
C275 C276 1.363 . S
C275 H287 0.929 . S
C276 C275 1.363 . S
C276 N278 1.375 . S
C276 H294 0.931 . S
C277 N274 1.311 . S
C277 N278 1.347 . S
C277 H288 0.929 . S
N278 C276 1.375 . S
N278 C277 1.347 . S
C279 C282 1.365 . S
C279 N284 1.328 . S
C279 H285 0.929 . S
C280 C281 1.362 . S
C280 C283 1.378 . S
C280 H295 0.929 . S
C281 C280 1.362 . S
C281 C282 1.366 . S
C282 C279 1.365 . S
C282 C281 1.366 . S
C282 H296 0.930 . S
C283 C280 1.378 . S
C283 N284 1.315 . S
C283 H286 0.930 . S
N284 Co264 2.194 . S
N284 C279 1.328 . S
N284 C283 1.315 . S
H285 C279 0.929 . S
H286 C283 0.930 . S
H287 C275 0.929 . S
H288 C277 0.929 . S
O289 Co264 2.351 . S
O289 C292 1.244 . S
O290 Co264 2.155 . S
O290 C292 1.240 . S
O291 Co264 2.096 . S
O291 C272 1.247 . S
C292 O289 1.244 . S
C292 O290 1.240 . S
H293 C267 0.931 . S
H294 C276 0.931 . S
H295 C280 0.929 . S
H296 C282 0.930 . S
Co297 N301 2.148 . S
Co297 N307 2.128 . S
Co297 N317 2.194 . S
Co297 O322 2.351 . S
Co297 O323 2.155 . S
Co297 O324 2.096 . S
C298 N301 1.301 . S
C298 N302 1.328 . S
C298 H303 0.930 . S
C299 C300 1.333 . S
C299 N301 1.317 . S
C299 H304 0.930 . S
C300 C299 1.333 . S
C300 N302 1.350 . S
C300 H326 0.931 . S
N301 Co297 2.148 . S
N301 C298 1.301 . S
N301 C299 1.317 . S
N302 C298 1.328 . S
N302 C300 1.350 . S
H303 C298 0.930 . S
H304 C299 0.930 . S
C305 O306 1.224 . S
C305 O324 1.247 . S
O306 C305 1.224 . S
N307 Co297 2.128 . S
N307 C308 1.355 . S
N307 C310 1.311 . S
C308 N307 1.355 . S
C308 C309 1.363 . S
C308 H320 0.929 . S
C309 C308 1.363 . S
C309 N311 1.375 . S
C309 H327 0.931 . S
C310 N307 1.311 . S
C310 N311 1.347 . S
C310 H321 0.929 . S
N311 C309 1.375 . S
N311 C310 1.347 . S
C312 C315 1.365 . S
C312 N317 1.328 . S
C312 H318 0.929 . S
C313 C314 1.362 . S
C313 C316 1.378 . S
C313 H328 0.929 . S
C314 C313 1.362 . S
C314 C315 1.366 . S
C315 C312 1.365 . S
C315 C314 1.366 . S
C315 H329 0.930 . S
C316 C313 1.378 . S
C316 N317 1.315 . S
C316 H319 0.930 . S
N317 Co297 2.194 . S
N317 C312 1.328 . S
N317 C316 1.315 . S
H318 C312 0.929 . S
H319 C316 0.930 . S
H320 C308 0.929 . S
H321 C310 0.929 . S
O322 Co297 2.351 . S
O322 C325 1.244 . S
O323 Co297 2.155 . S
O323 C325 1.240 . S
O324 Co297 2.096 . S
O324 C305 1.247 . S
C325 O322 1.244 . S
C325 O323 1.240 . S
H326 C300 0.931 . S
H327 C309 0.931 . S
H328 C313 0.929 . S
H329 C315 0.930 . S
Co330 N334 2.148 . S
Co330 N340 2.128 . S
Co330 N350 2.178 1_455 S
Co330 O355 2.351 1_455 S
Co330 O356 2.155 . S
Co330 O357 2.096 . S
C331 N334 1.301 . S
C331 N335 1.328 . S
C331 H336 0.930 . S
C332 C333 1.333 . S
C332 N334 1.317 . S
C332 H337 0.930 . S
C333 C332 1.333 . S
C333 N335 1.350 . S
C333 H359 0.931 . S
N334 Co330 2.148 . S
N334 C331 1.301 . S
N334 C332 1.317 . S
N335 C331 1.328 . S
N335 C333 1.350 . S
H336 C331 0.930 . S
H337 C332 0.930 . S
C338 O339 1.224 . S
C338 O357 1.247 . S
O339 C338 1.224 . S
N340 Co330 2.128 . S
N340 C341 1.355 1_455 S
N340 C343 1.311 . S
C341 N340 1.355 1_655 S
C341 C342 1.363 . S
C341 H353 0.929 . S
C342 C341 1.363 . S
C342 N344 1.375 . S
C342 H360 0.931 . S
C343 N340 1.311 . S
C343 N344 1.347 1_455 S
C343 H354 0.929 . S
N344 C342 1.375 . S
N344 C343 1.347 1_655 S
C345 C348 1.365 . S
C345 N350 1.359 . S
C345 H351 0.929 . S
C346 C347 1.362 . S
C346 C349 1.378 1_655 S
C346 H361 0.929 1_655 S
C347 C346 1.362 . S
C347 C348 1.366 . S
C348 C345 1.365 . S
C348 C347 1.366 . S
C348 H362 0.930 . S
C349 C346 1.378 1_455 S
C349 N350 1.302 1_455 S
C349 H352 0.930 . S
N350 Co330 2.178 1_655 S
N350 C345 1.359 . S
N350 C349 1.302 1_655 S
H351 C345 0.929 . S
H352 C349 0.930 . S
H353 C341 0.929 . S
H354 C343 0.929 . S
O355 Co330 2.351 1_655 S
O355 C358 1.244 . S
O356 Co330 2.155 . S
O356 C358 1.240 1_455 S
O357 Co330 2.096 . S
O357 C338 1.247 . S
C358 O355 1.244 . S
C358 O356 1.240 1_655 S
H359 C333 0.931 . S
H360 C342 0.931 . S
H361 C346 0.929 1_455 S
H362 C348 0.930 . S
Co363 N367 2.148 . S
Co363 N373 2.128 . S
Co363 N383 2.178 1_545 S
Co363 O388 2.351 1_545 S
Co363 O389 2.155 . S
Co363 O390 2.096 . S
C364 N367 1.301 . S
C364 N368 1.328 . S
C364 H369 0.930 . S
C365 C366 1.333 . S
C365 N367 1.317 . S
C365 H370 0.930 . S
C366 C365 1.333 . S
C366 N368 1.350 . S
C366 H392 0.931 . S
N367 Co363 2.148 . S
N367 C364 1.301 . S
N367 C365 1.317 . S
N368 C364 1.328 . S
N368 C366 1.350 . S
H369 C364 0.930 . S
H370 C365 0.930 . S
C371 O372 1.224 . S
C371 O390 1.247 . S
O372 C371 1.224 . S
N373 Co363 2.128 . S
N373 C374 1.355 1_545 S
N373 C376 1.311 . S
C374 N373 1.355 1_565 S
C374 C375 1.363 . S
C374 H386 0.929 . S
C375 C374 1.363 . S
C375 N377 1.375 . S
C375 H393 0.931 . S
C376 N373 1.311 . S
C376 N377 1.347 1_545 S
C376 H387 0.929 . S
N377 C375 1.375 . S
N377 C376 1.347 1_565 S
C378 C381 1.365 . S
C378 N383 1.359 . S
C378 H384 0.929 . S
C379 C380 1.362 . S
C379 C382 1.378 1_565 S
C379 H394 0.929 1_565 S
C380 C379 1.362 . S
C380 C381 1.366 . S
C381 C378 1.365 . S
C381 C380 1.366 . S
C381 H395 0.930 . S
C382 C379 1.378 1_545 S
C382 N383 1.302 1_545 S
C382 H385 0.930 . S
N383 Co363 2.178 1_565 S
N383 C378 1.359 . S
N383 C382 1.302 1_565 S
H384 C378 0.929 . S
H385 C382 0.930 . S
H386 C374 0.929 . S
H387 C376 0.929 . S
O388 Co363 2.351 1_565 S
O388 C391 1.244 . S
O389 Co363 2.155 . S
O389 C391 1.240 1_545 S
O390 Co363 2.096 . S
O390 C371 1.247 . S
C391 O388 1.244 . S
C391 O389 1.240 1_565 S
H392 C366 0.931 . S
H393 C375 0.931 . S
H394 C379 0.929 1_545 S
H395 C381 0.930 . S
Co396 N400 2.148 . S
Co396 N406 2.128 . S
Co396 N416 2.194 . S
Co396 O421 2.351 . S
Co396 O422 2.155 . S
Co396 O423 2.096 . S
C397 N400 1.301 . S
C397 N401 1.328 . S
C397 H402 0.930 . S
C398 C399 1.333 . S
C398 N400 1.317 . S
C398 H403 0.930 . S
C399 C398 1.333 . S
C399 N401 1.350 . S
C399 H425 0.931 . S
N400 Co396 2.148 . S
N400 C397 1.301 . S
N400 C398 1.317 . S
N401 C397 1.328 . S
N401 C399 1.350 . S
H402 C397 0.930 . S
H403 C398 0.930 . S
C404 O405 1.224 . S
C404 O423 1.247 . S
O405 C404 1.224 . S
N406 Co396 2.128 . S
N406 C407 1.355 . S
N406 C409 1.311 . S
C407 N406 1.355 . S
C407 C408 1.363 . S
C407 H419 0.929 . S
C408 C407 1.363 . S
C408 N410 1.375 . S
C408 H426 0.931 . S
C409 N406 1.311 . S
C409 N410 1.347 . S
C409 H420 0.929 . S
N410 C408 1.375 . S
N410 C409 1.347 . S
C411 C414 1.365 . S
C411 N416 1.328 . S
C411 H417 0.929 . S
C412 C413 1.362 . S
C412 C415 1.378 . S
C412 H427 0.929 . S
C413 C412 1.362 . S
C413 C414 1.366 . S
C414 C411 1.365 . S
C414 C413 1.366 . S
C414 H428 0.930 . S
C415 C412 1.378 . S
C415 N416 1.315 . S
C415 H418 0.930 . S
N416 Co396 2.194 . S
N416 C411 1.328 . S
N416 C415 1.315 . S
H417 C411 0.929 . S
H418 C415 0.930 . S
H419 C407 0.929 . S
H420 C409 0.929 . S
O421 Co396 2.351 . S
O421 C424 1.244 . S
O422 Co396 2.155 . S
O422 C424 1.240 . S
O423 Co396 2.096 . S
O423 C404 1.247 . S
C424 O421 1.244 . S
C424 O422 1.240 . S
H425 C399 0.931 . S
H426 C408 0.931 . S
H427 C412 0.929 . S
H428 C414 0.930 . S
Co429 N433 2.148 . S
Co429 N439 2.128 . S
Co429 N449 2.194 . S
Co429 O454 2.351 . S
Co429 O455 2.155 . S
Co429 O456 2.096 . S
C430 N433 1.301 . S
C430 N434 1.328 . S
C430 H435 0.930 . S
C431 C432 1.333 . S
C431 N433 1.317 . S
C431 H436 0.930 . S
C432 C431 1.333 . S
C432 N434 1.350 . S
C432 H458 0.931 . S
N433 Co429 2.148 . S
N433 C430 1.301 . S
N433 C431 1.317 . S
N434 C430 1.328 . S
N434 C432 1.350 . S
H435 C430 0.930 . S
H436 C431 0.930 . S
C437 O438 1.224 . S
C437 O456 1.247 . S
O438 C437 1.224 . S
N439 Co429 2.128 . S
N439 C440 1.355 . S
N439 C442 1.311 . S
C440 N439 1.355 . S
C440 C441 1.363 . S
C440 H452 0.929 . S
C441 C440 1.363 . S
C441 N443 1.375 . S
C441 H459 0.931 . S
C442 N439 1.311 . S
C442 N443 1.347 . S
C442 H453 0.929 . S
N443 C441 1.375 . S
N443 C442 1.347 . S
C444 C447 1.365 . S
C444 N449 1.328 . S
C444 H450 0.929 . S
C445 C446 1.362 . S
C445 C448 1.378 . S
C445 H460 0.929 . S
C446 C445 1.362 . S
C446 C447 1.366 . S
C447 C444 1.365 . S
C447 C446 1.366 . S
C447 H461 0.930 . S
C448 C445 1.378 . S
C448 N449 1.315 . S
C448 H451 0.930 . S
N449 Co429 2.194 . S
N449 C444 1.328 . S
N449 C448 1.315 . S
H450 C444 0.929 . S
H451 C448 0.930 . S
H452 C440 0.929 . S
H453 C442 0.929 . S
O454 Co429 2.351 . S
O454 C457 1.244 . S
O455 Co429 2.155 . S
O455 C457 1.240 . S
O456 Co429 2.096 . S
O456 C437 1.247 . S
C457 O454 1.244 . S
C457 O455 1.240 . S
H458 C432 0.931 . S
H459 C441 0.931 . S
H460 C445 0.929 . S
H461 C447 0.930 . S
Co462 N466 2.148 . S
Co462 N472 2.128 . S
Co462 N482 2.178 1_455 S
Co462 O487 2.351 1_455 S
Co462 O488 2.155 . S
Co462 O489 2.096 . S
C463 N466 1.301 . S
C463 N467 1.328 . S
C463 H468 0.930 . S
C464 C465 1.333 . S
C464 N466 1.317 . S
C464 H469 0.930 . S
C465 C464 1.333 . S
C465 N467 1.350 . S
C465 H491 0.931 . S
N466 Co462 2.148 . S
N466 C463 1.301 . S
N466 C464 1.317 . S
N467 C463 1.328 . S
N467 C465 1.350 . S
H468 C463 0.930 . S
H469 C464 0.930 . S
C470 O471 1.224 . S
C470 O489 1.247 . S
O471 C470 1.224 . S
N472 Co462 2.128 . S
N472 C473 1.355 1_455 S
N472 C475 1.311 . S
C473 N472 1.355 1_655 S
C473 C474 1.363 . S
C473 H485 0.929 . S
C474 C473 1.363 . S
C474 N476 1.375 . S
C474 H492 0.931 . S
C475 N472 1.311 . S
C475 N476 1.347 1_455 S
C475 H486 0.929 . S
N476 C474 1.375 . S
N476 C475 1.347 1_655 S
C477 C480 1.365 . S
C477 N482 1.359 . S
C477 H483 0.929 . S
C478 C479 1.362 . S
C478 C481 1.378 1_655 S
C478 H493 0.929 1_655 S
C479 C478 1.362 . S
C479 C480 1.366 . S
C480 C477 1.365 . S
C480 C479 1.366 . S
C480 H494 0.930 . S
C481 C478 1.378 1_455 S
C481 N482 1.302 1_455 S
C481 H484 0.930 . S
N482 Co462 2.178 1_655 S
N482 C477 1.359 . S
N482 C481 1.302 1_655 S
H483 C477 0.929 . S
H484 C481 0.930 . S
H485 C473 0.929 . S
H486 C475 0.929 . S
O487 Co462 2.351 1_655 S
O487 C490 1.244 . S
O488 Co462 2.155 . S
O488 C490 1.240 1_455 S
O489 Co462 2.096 . S
O489 C470 1.247 . S
C490 O487 1.244 . S
C490 O488 1.240 1_655 S
H491 C465 0.931 . S
H492 C474 0.931 . S
H493 C478 0.929 1_455 S
H494 C480 0.930 . S
Co495 N499 2.148 . S
Co495 N505 2.128 . S
Co495 N515 2.178 1_545 S
Co495 O520 2.351 1_545 S
Co495 O521 2.155 . S
Co495 O522 2.096 . S
C496 N499 1.301 . S
C496 N500 1.328 . S
C496 H501 0.930 . S
C497 C498 1.333 . S
C497 N499 1.317 . S
C497 H502 0.930 . S
C498 C497 1.333 . S
C498 N500 1.350 . S
C498 H524 0.931 . S
N499 Co495 2.148 . S
N499 C496 1.301 . S
N499 C497 1.317 . S
N500 C496 1.328 . S
N500 C498 1.350 . S
H501 C496 0.930 . S
H502 C497 0.930 . S
C503 O504 1.224 . S
C503 O522 1.247 . S
O504 C503 1.224 . S
N505 Co495 2.128 . S
N505 C506 1.355 1_545 S
N505 C508 1.311 . S
C506 N505 1.355 1_565 S
C506 C507 1.363 . S
C506 H518 0.929 . S
C507 C506 1.363 . S
C507 N509 1.375 . S
C507 H525 0.931 . S
C508 N505 1.311 . S
C508 N509 1.347 1_545 S
C508 H519 0.929 . S
N509 C507 1.375 . S
N509 C508 1.347 1_565 S
C510 C513 1.365 . S
C510 N515 1.359 . S
C510 H516 0.929 . S
C511 C512 1.362 . S
C511 C514 1.378 1_565 S
C511 H526 0.929 1_565 S
C512 C511 1.362 . S
C512 C513 1.366 . S
C513 C510 1.365 . S
C513 C512 1.366 . S
C513 H527 0.930 . S
C514 C511 1.378 1_545 S
C514 N515 1.302 1_545 S
C514 H517 0.930 . S
N515 Co495 2.178 1_565 S
N515 C510 1.359 . S
N515 C514 1.302 1_565 S
H516 C510 0.929 . S
H517 C514 0.930 . S
H518 C506 0.929 . S
H519 C508 0.929 . S
O520 Co495 2.351 1_565 S
O520 C523 1.244 . S
O521 Co495 2.155 . S
O521 C523 1.240 1_545 S
O522 Co495 2.096 . S
O522 C503 1.247 . S
C523 O520 1.244 . S
C523 O521 1.240 1_565 S
H524 C498 0.931 . S
H525 C507 0.931 . S
H526 C511 0.929 1_545 S
H527 C513 0.930 . S
C528 C529 1.349 . S
C528 C530 1.327 . S
C528 H553 0.950 . S
C529 C528 1.349 . S
C529 C545 1.349 . S
C530 C528 1.327 . S
C530 C549 1.429 . S
C530 H554 0.950 . S
C531 C548 1.574 . S
C531 C550 1.368 . S
C531 H555 0.949 . S
H532 C536 0.949 . S
C533 C534 1.349 . S
C533 C535 1.327 . S
C533 H556 0.950 . S
C534 C533 1.349 . S
C534 C546 1.349 . S
C535 C533 1.327 . S
C535 C551 1.429 . S
C535 H557 0.950 . S
C536 H532 0.949 . S
C536 C544 1.574 . S
C536 C552 1.368 . S
H537 C545 0.950 . S
H538 C543 0.950 . S
H539 C544 0.949 . S
H540 C546 0.950 . S
H541 C547 0.950 . S
H542 C548 0.949 . S
C543 H538 0.950 . S
C543 C545 1.327 . S
C543 C549 1.429 . S
C544 C536 1.574 . S
C544 H539 0.949 . S
C544 C550 1.368 . S
C545 C529 1.349 . S
C545 H537 0.950 . S
C545 C543 1.327 . S
C546 C534 1.349 . S
C546 H540 0.950 . S
C546 C547 1.327 . S
C547 H541 0.950 . S
C547 C546 1.327 . S
C547 C551 1.429 . S
C548 C531 1.574 . S
C548 H542 0.949 . S
C548 C552 1.368 . S
C549 C530 1.429 . S
C549 C543 1.429 . S
C549 C550 1.523 . S
C550 C531 1.368 . S
C550 C544 1.368 . S
C550 C549 1.523 . S
C551 C535 1.429 . S
C551 C547 1.429 . S
C551 C552 1.523 . S
C552 C536 1.368 . S
C552 C548 1.368 . S
C552 C551 1.523 . S
H553 C528 0.950 . S
H554 C530 0.950 . S
H555 C531 0.949 . S
H556 C533 0.950 . S
H557 C535 0.950 . S
C558 C559 1.349 . S
C558 C560 1.327 . S
C558 H583 0.950 . S
C559 C558 1.349 . S
C559 C575 1.349 . S
C560 C558 1.327 . S
C560 C579 1.429 . S
C560 H584 0.950 . S
C561 C578 1.574 . S
C561 C580 1.368 . S
C561 H585 0.949 . S
H562 C566 0.949 . S
C563 C564 1.349 . S
C563 C565 1.327 . S
C563 H586 0.950 . S
C564 C563 1.349 . S
C564 C576 1.349 . S
C565 C563 1.327 . S
C565 C581 1.429 . S
C565 H587 0.950 . S
C566 H562 0.949 . S
C566 C574 1.574 . S
C566 C582 1.368 . S
H567 C575 0.950 . S
H568 C573 0.950 . S
H569 C574 0.949 . S
H570 C576 0.950 . S
H571 C577 0.950 . S
H572 C578 0.949 . S
C573 H568 0.950 . S
C573 C575 1.327 . S
C573 C579 1.429 . S
C574 C566 1.574 . S
C574 H569 0.949 . S
C574 C580 1.368 . S
C575 C559 1.349 . S
C575 H567 0.950 . S
C575 C573 1.327 . S
C576 C564 1.349 . S
C576 H570 0.950 . S
C576 C577 1.327 . S
C577 H571 0.950 . S
C577 C576 1.327 . S
C577 C581 1.429 . S
C578 C561 1.574 . S
C578 H572 0.949 . S
C578 C582 1.368 . S
C579 C560 1.429 . S
C579 C573 1.429 . S
C579 C580 1.523 . S
C580 C561 1.368 . S
C580 C574 1.368 . S
C580 C579 1.523 . S
C581 C565 1.429 . S
C581 C577 1.429 . S
C581 C582 1.523 . S
C582 C566 1.368 . S
C582 C578 1.368 . S
C582 C581 1.523 . S
H583 C558 0.950 . S
H584 C560 0.950 . S
H585 C561 0.949 . S
H586 C563 0.950 . S
H587 C565 0.950 . S
C588 C589 1.349 . S
C588 C590 1.327 . S
C588 H613 0.950 . S
C589 C588 1.349 . S
C589 C605 1.349 . S
C590 C588 1.327 . S
C590 C609 1.429 . S
C590 H614 0.950 . S
C591 C608 1.574 . S
C591 C610 1.368 . S
C591 H615 0.949 . S
H592 C596 0.949 . S
C593 C594 1.349 . S
C593 C595 1.327 . S
C593 H616 0.950 . S
C594 C593 1.349 . S
C594 C606 1.349 . S
C595 C593 1.327 . S
C595 C611 1.429 . S
C595 H617 0.950 . S
C596 H592 0.949 . S
C596 C604 1.574 . S
C596 C612 1.368 . S
H597 C605 0.950 . S
H598 C603 0.950 . S
H599 C604 0.949 . S
H600 C606 0.950 . S
H601 C607 0.950 . S
H602 C608 0.949 . S
C603 H598 0.950 . S
C603 C605 1.327 . S
C603 C609 1.429 . S
C604 C596 1.574 . S
C604 H599 0.949 . S
C604 C610 1.368 . S
C605 C589 1.349 . S
C605 H597 0.950 . S
C605 C603 1.327 . S
C606 C594 1.349 . S
C606 H600 0.950 . S
C606 C607 1.327 . S
C607 H601 0.950 . S
C607 C606 1.327 . S
C607 C611 1.429 . S
C608 C591 1.574 . S
C608 H602 0.949 . S
C608 C612 1.368 . S
C609 C590 1.429 . S
C609 C603 1.429 . S
C609 C610 1.523 . S
C610 C591 1.368 . S
C610 C604 1.368 . S
C610 C609 1.523 . S
C611 C595 1.429 . S
C611 C607 1.429 . S
C611 C612 1.523 . S
C612 C596 1.368 . S
C612 C608 1.368 . S
C612 C611 1.523 . S
H613 C588 0.950 . S
H614 C590 0.950 . S
H615 C591 0.949 . S
H616 C593 0.950 . S
H617 C595 0.950 . S
C618 C619 1.349 . S
C618 C620 1.327 . S
C618 H643 0.950 . S
C619 C618 1.349 . S
C619 C635 1.349 . S
C620 C618 1.327 . S
C620 C639 1.429 . S
C620 H644 0.950 . S
C621 C638 1.574 . S
C621 C640 1.368 . S
C621 H645 0.949 . S
H622 C626 0.949 . S
C623 C624 1.349 . S
C623 C625 1.327 . S
C623 H646 0.950 . S
C624 C623 1.349 . S
C624 C636 1.349 . S
C625 C623 1.327 . S
C625 C641 1.429 . S
C625 H647 0.950 . S
C626 H622 0.949 . S
C626 C634 1.574 . S
C626 C642 1.368 . S
H627 C635 0.950 . S
H628 C633 0.950 . S
H629 C634 0.949 . S
H630 C636 0.950 . S
H631 C637 0.950 . S
H632 C638 0.949 . S
C633 H628 0.950 . S
C633 C635 1.327 . S
C633 C639 1.429 . S
C634 C626 1.574 . S
C634 H629 0.949 . S
C634 C640 1.368 . S
C635 C619 1.349 . S
C635 H627 0.950 . S
C635 C633 1.327 . S
C636 C624 1.349 . S
C636 H630 0.950 . S
C636 C637 1.327 . S
C637 H631 0.950 . S
C637 C636 1.327 . S
C637 C641 1.429 . S
C638 C621 1.574 . S
C638 H632 0.949 . S
C638 C642 1.368 . S
C639 C620 1.429 . S
C639 C633 1.429 . S
C639 C640 1.523 . S
C640 C621 1.368 . S
C640 C634 1.368 . S
C640 C639 1.523 . S
C641 C625 1.429 . S
C641 C637 1.429 . S
C641 C642 1.523 . S
C642 C626 1.368 . S
C642 C638 1.368 . S
C642 C641 1.523 . S
H643 C618 0.950 . S
H644 C620 0.950 . S
H645 C621 0.949 . S
H646 C623 0.950 . S
H647 C625 0.950 . S
C648 C649 1.349 . S
C648 C650 1.327 . S
C648 H673 0.950 . S
C649 C648 1.349 . S
C649 C665 1.349 . S
C650 C648 1.327 . S
C650 C669 1.429 . S
C650 H674 0.950 . S
C651 C668 1.574 . S
C651 C670 1.368 . S
C651 H675 0.949 . S
H652 C656 0.949 . S
C653 C654 1.349 . S
C653 C655 1.327 . S
C653 H676 0.950 . S
C654 C653 1.349 . S
C654 C666 1.349 . S
C655 C653 1.327 . S
C655 C671 1.429 . S
C655 H677 0.950 . S
C656 H652 0.949 . S
C656 C664 1.574 . S
C656 C672 1.368 . S
H657 C665 0.950 . S
H658 C663 0.950 . S
H659 C664 0.949 . S
H660 C666 0.950 . S
H661 C667 0.950 . S
H662 C668 0.949 . S
C663 H658 0.950 . S
C663 C665 1.327 . S
C663 C669 1.429 . S
C664 C656 1.574 . S
C664 H659 0.949 . S
C664 C670 1.368 . S
C665 C649 1.349 . S
C665 H657 0.950 . S
C665 C663 1.327 . S
C666 C654 1.349 . S
C666 H660 0.950 . S
C666 C667 1.327 . S
C667 H661 0.950 . S
C667 C666 1.327 . S
C667 C671 1.429 . S
C668 C651 1.574 . S
C668 H662 0.949 . S
C668 C672 1.368 . S
C669 C650 1.429 . S
C669 C663 1.429 . S
C669 C670 1.523 . S
C670 C651 1.368 . S
C670 C664 1.368 . S
C670 C669 1.523 . S
C671 C655 1.429 . S
C671 C667 1.429 . S
C671 C672 1.523 . S
C672 C656 1.368 . S
C672 C668 1.368 . S
C672 C671 1.523 . S
H673 C648 0.950 . S
H674 C650 0.950 . S
H675 C651 0.949 . S
H676 C653 0.950 . S
H677 C655 0.950 . S
C678 C679 1.349 . S
C678 C680 1.327 . S
C678 H703 0.950 . S
C679 C678 1.349 . S
C679 C695 1.349 . S
C680 C678 1.327 . S
C680 C699 1.429 . S
C680 H704 0.950 . S
C681 C698 1.574 . S
C681 C700 1.368 . S
C681 H705 0.949 . S
H682 C686 0.949 . S
C683 C684 1.349 . S
C683 C685 1.327 . S
C683 H706 0.950 . S
C684 C683 1.349 . S
C684 C696 1.349 . S
C685 C683 1.327 . S
C685 C701 1.429 . S
C685 H707 0.950 . S
C686 H682 0.949 . S
C686 C694 1.574 . S
C686 C702 1.368 . S
H687 C695 0.950 . S
H688 C693 0.950 . S
H689 C694 0.949 . S
H690 C696 0.950 . S
H691 C697 0.950 . S
H692 C698 0.949 . S
C693 H688 0.950 . S
C693 C695 1.327 . S
C693 C699 1.429 . S
C694 C686 1.574 . S
C694 H689 0.949 . S
C694 C700 1.368 . S
C695 C679 1.349 . S
C695 H687 0.950 . S
C695 C693 1.327 . S
C696 C684 1.349 . S
C696 H690 0.950 . S
C696 C697 1.327 . S
C697 H691 0.950 . S
C697 C696 1.327 . S
C697 C701 1.429 . S
C698 C681 1.574 . S
C698 H692 0.949 . S
C698 C702 1.368 . S
C699 C680 1.429 . S
C699 C693 1.429 . S
C699 C700 1.523 . S
C700 C681 1.368 . S
C700 C694 1.368 . S
C700 C699 1.523 . S
C701 C685 1.429 . S
C701 C697 1.429 . S
C701 C702 1.523 . S
C702 C686 1.368 . S
C702 C698 1.368 . S
C702 C701 1.523 . S
H703 C678 0.950 . S
H704 C680 0.950 . S
H705 C681 0.949 . S
H706 C683 0.950 . S
H707 C685 0.950 . S
C708 C709 1.349 . S
C708 C710 1.327 . S
C708 H733 0.950 . S
C709 C708 1.349 . S
C709 C725 1.349 . S
C710 C708 1.327 . S
C710 C729 1.429 . S
C710 H734 0.950 . S
C711 C728 1.574 . S
C711 C730 1.368 . S
C711 H735 0.949 . S
H712 C716 0.949 . S
C713 C714 1.349 . S
C713 C715 1.327 . S
C713 H736 0.950 . S
C714 C713 1.349 . S
C714 C726 1.349 . S
C715 C713 1.327 . S
C715 C731 1.429 . S
C715 H737 0.950 . S
C716 H712 0.949 . S
C716 C724 1.574 . S
C716 C732 1.368 . S
H717 C725 0.950 . S
H718 C723 0.950 . S
H719 C724 0.949 . S
H720 C726 0.950 . S
H721 C727 0.950 . S
H722 C728 0.949 . S
C723 H718 0.950 . S
C723 C725 1.327 . S
C723 C729 1.429 . S
C724 C716 1.574 . S
C724 H719 0.949 . S
C724 C730 1.368 . S
C725 C709 1.349 . S
C725 H717 0.950 . S
C725 C723 1.327 . S
C726 C714 1.349 . S
C726 H720 0.950 . S
C726 C727 1.327 . S
C727 H721 0.950 . S
C727 C726 1.327 . S
C727 C731 1.429 . S
C728 C711 1.574 . S
C728 H722 0.949 . S
C728 C732 1.368 . S
C729 C710 1.429 . S
C729 C723 1.429 . S
C729 C730 1.523 . S
C730 C711 1.368 . S
C730 C724 1.368 . S
C730 C729 1.523 . S
C731 C715 1.429 . S
C731 C727 1.429 . S
C731 C732 1.523 . S
C732 C716 1.368 . S
C732 C728 1.368 . S
C732 C731 1.523 . S
H733 C708 0.950 . S
H734 C710 0.950 . S
H735 C711 0.949 . S
H736 C713 0.950 . S
H737 C715 0.950 . S
C738 C739 1.349 . S
C738 C740 1.327 . S
C738 H763 0.950 . S
C739 C738 1.349 . S
C739 C755 1.349 . S
C740 C738 1.327 . S
C740 C759 1.429 . S
C740 H764 0.950 . S
C741 C758 1.574 . S
C741 C760 1.368 . S
C741 H765 0.949 . S
H742 C746 0.949 . S
C743 C744 1.349 . S
C743 C745 1.327 . S
C743 H766 0.950 . S
C744 C743 1.349 . S
C744 C756 1.349 . S
C745 C743 1.327 . S
C745 C761 1.429 . S
C745 H767 0.950 . S
C746 H742 0.949 . S
C746 C754 1.574 . S
C746 C762 1.368 . S
H747 C755 0.950 . S
H748 C753 0.950 . S
H749 C754 0.949 . S
H750 C756 0.950 . S
H751 C757 0.950 . S
H752 C758 0.949 . S
C753 H748 0.950 . S
C753 C755 1.327 . S
C753 C759 1.429 . S
C754 C746 1.574 . S
C754 H749 0.949 . S
C754 C760 1.368 . S
C755 C739 1.349 . S
C755 H747 0.950 . S
C755 C753 1.327 . S
C756 C744 1.349 . S
C756 H750 0.950 . S
C756 C757 1.327 . S
C757 H751 0.950 . S
C757 C756 1.327 . S
C757 C761 1.429 . S
C758 C741 1.574 . S
C758 H752 0.949 . S
C758 C762 1.368 . S
C759 C740 1.429 . S
C759 C753 1.429 . S
C759 C760 1.523 . S
C760 C741 1.368 . S
C760 C754 1.368 . S
C760 C759 1.523 . S
C761 C745 1.429 . S
C761 C757 1.429 . S
C761 C762 1.523 . S
C762 C746 1.368 . S
C762 C758 1.368 . S
C762 C761 1.523 . S
H763 C738 0.950 . S
H764 C740 0.950 . S
H765 C741 0.949 . S
H766 C743 0.950 . S
H767 C745 0.950 . S
C768 C769 1.349 . S
C768 C770 1.327 . S
C768 H793 0.950 . S
C769 C768 1.349 . S
C769 C785 1.349 . S
C770 C768 1.327 . S
C770 C789 1.429 . S
C770 H794 0.950 . S
C771 C788 1.574 . S
C771 C790 1.368 . S
C771 H795 0.949 . S
H772 C776 0.949 . S
C773 C774 1.349 . S
C773 C775 1.327 . S
C773 H796 0.950 . S
C774 C773 1.349 . S
C774 C786 1.349 . S
C775 C773 1.327 . S
C775 C791 1.429 . S
C775 H797 0.950 . S
C776 H772 0.949 . S
C776 C784 1.574 . S
C776 C792 1.368 . S
H777 C785 0.950 . S
H778 C783 0.950 . S
H779 C784 0.949 . S
H780 C786 0.950 . S
H781 C787 0.950 . S
H782 C788 0.949 . S
C783 H778 0.950 . S
C783 C785 1.327 . S
C783 C789 1.429 . S
C784 C776 1.574 . S
C784 H779 0.949 . S
C784 C790 1.368 . S
C785 C769 1.349 . S
C785 H777 0.950 . S
C785 C783 1.327 . S
C786 C774 1.349 . S
C786 H780 0.950 . S
C786 C787 1.327 . S
C787 H781 0.950 . S
C787 C786 1.327 . S
C787 C791 1.429 . S
C788 C771 1.574 . S
C788 H782 0.949 . S
C788 C792 1.368 . S
C789 C770 1.429 . S
C789 C783 1.429 . S
C789 C790 1.523 . S
C790 C771 1.368 . S
C790 C784 1.368 . S
C790 C789 1.523 . S
C791 C775 1.429 . S
C791 C787 1.429 . S
C791 C792 1.523 . S
C792 C776 1.368 . S
C792 C788 1.368 . S
C792 C791 1.523 . S
H793 C768 0.950 . S
H794 C770 0.950 . S
H795 C771 0.949 . S
H796 C773 0.950 . S
H797 C775 0.950 . S
C798 C799 1.349 . S
C798 C800 1.327 . S
C798 H823 0.950 . S
C799 C798 1.349 . S
C799 C815 1.349 . S
C800 C798 1.327 . S
C800 C819 1.429 . S
C800 H824 0.950 . S
C801 C818 1.574 . S
C801 C820 1.368 . S
C801 H825 0.949 . S
H802 C806 0.949 . S
C803 C804 1.349 . S
C803 C805 1.327 . S
C803 H826 0.950 . S
C804 C803 1.349 . S
C804 C816 1.349 . S
C805 C803 1.327 . S
C805 C821 1.429 . S
C805 H827 0.950 . S
C806 H802 0.949 . S
C806 C814 1.574 . S
C806 C822 1.368 . S
H807 C815 0.950 . S
H808 C813 0.950 . S
H809 C814 0.949 . S
H810 C816 0.950 . S
H811 C817 0.950 . S
H812 C818 0.949 . S
C813 H808 0.950 . S
C813 C815 1.327 . S
C813 C819 1.429 . S
C814 C806 1.574 . S
C814 H809 0.949 . S
C814 C820 1.368 . S
C815 C799 1.349 . S
C815 H807 0.950 . S
C815 C813 1.327 . S
C816 C804 1.349 . S
C816 H810 0.950 . S
C816 C817 1.327 . S
C817 H811 0.950 . S
C817 C816 1.327 . S
C817 C821 1.429 . S
C818 C801 1.574 . S
C818 H812 0.949 . S
C818 C822 1.368 . S
C819 C800 1.429 . S
C819 C813 1.429 . S
C819 C820 1.523 . S
C820 C801 1.368 . S
C820 C814 1.368 . S
C820 C819 1.523 . S
C821 C805 1.429 . S
C821 C817 1.429 . S
C821 C822 1.523 . S
C822 C806 1.368 . S
C822 C818 1.368 . S
C822 C821 1.523 . S
H823 C798 0.950 . S
H824 C800 0.950 . S
H825 C801 0.949 . S
H826 C803 0.950 . S
H827 C805 0.950 . S
C828 C829 1.349 . S
C828 C830 1.327 . S
C828 H853 0.950 . S
C829 C828 1.349 . S
C829 C845 1.349 . S
C830 C828 1.327 . S
C830 C849 1.429 . S
C830 H854 0.950 . S
C831 C848 1.574 . S
C831 C850 1.368 . S
C831 H855 0.949 . S
H832 C836 0.949 . S
C833 C834 1.349 . S
C833 C835 1.327 . S
C833 H856 0.950 . S
C834 C833 1.349 . S
C834 C846 1.349 . S
C835 C833 1.327 . S
C835 C851 1.429 . S
C835 H857 0.950 . S
C836 H832 0.949 . S
C836 C844 1.574 . S
C836 C852 1.368 . S
H837 C845 0.950 . S
H838 C843 0.950 . S
H839 C844 0.949 . S
H840 C846 0.950 . S
H841 C847 0.950 . S
H842 C848 0.949 . S
C843 H838 0.950 . S
C843 C845 1.327 . S
C843 C849 1.429 . S
C844 C836 1.574 . S
C844 H839 0.949 . S
C844 C850 1.368 . S
C845 C829 1.349 . S
C845 H837 0.950 . S
C845 C843 1.327 . S
C846 C834 1.349 . S
C846 H840 0.950 . S
C846 C847 1.327 . S
C847 H841 0.950 . S
C847 C846 1.327 . S
C847 C851 1.429 . S
C848 C831 1.574 . S
C848 H842 0.949 . S
C848 C852 1.368 . S
C849 C830 1.429 . S
C849 C843 1.429 . S
C849 C850 1.523 . S
C850 C831 1.368 . S
C850 C844 1.368 . S
C850 C849 1.523 . S
C851 C835 1.429 . S
C851 C847 1.429 . S
C851 C852 1.523 . S
C852 C836 1.368 . S
C852 C848 1.368 . S
C852 C851 1.523 . S
H853 C828 0.950 . S
H854 C830 0.950 . S
H855 C831 0.949 . S
H856 C833 0.950 . S
H857 C835 0.950 . S
C858 C859 1.349 . S
C858 C860 1.327 . S
C858 H883 0.950 . S
C859 C858 1.349 . S
C859 C875 1.349 . S
C860 C858 1.327 . S
C860 C879 1.429 . S
C860 H884 0.950 . S
C861 C878 1.574 . S
C861 C880 1.368 . S
C861 H885 0.949 . S
H862 C866 0.949 . S
C863 C864 1.349 . S
C863 C865 1.327 . S
C863 H886 0.950 . S
C864 C863 1.349 . S
C864 C876 1.349 . S
C865 C863 1.327 . S
C865 C881 1.429 . S
C865 H887 0.950 . S
C866 H862 0.949 . S
C866 C874 1.574 . S
C866 C882 1.368 . S
H867 C875 0.950 . S
H868 C873 0.950 . S
H869 C874 0.949 . S
H870 C876 0.950 . S
H871 C877 0.950 . S
H872 C878 0.949 . S
C873 H868 0.950 . S
C873 C875 1.327 . S
C873 C879 1.429 . S
C874 C866 1.574 . S
C874 H869 0.949 . S
C874 C880 1.368 . S
C875 C859 1.349 . S
C875 H867 0.950 . S
C875 C873 1.327 . S
C876 C864 1.349 . S
C876 H870 0.950 . S
C876 C877 1.327 . S
C877 H871 0.950 . S
C877 C876 1.327 . S
C877 C881 1.429 . S
C878 C861 1.574 . S
C878 H872 0.949 . S
C878 C882 1.368 . S
C879 C860 1.429 . S
C879 C873 1.429 . S
C879 C880 1.523 . S
C880 C861 1.368 . S
C880 C874 1.368 . S
C880 C879 1.523 . S
C881 C865 1.429 . S
C881 C877 1.429 . S
C881 C882 1.523 . S
C882 C866 1.368 . S
C882 C878 1.368 . S
C882 C881 1.523 . S
H883 C858 0.950 . S
H884 C860 0.950 . S
H885 C861 0.949 . S
H886 C863 0.950 . S
H887 C865 0.950 . S
C888 C889 1.349 . S
C888 C890 1.327 . S
C888 H913 0.950 . S
C889 C888 1.349 . S
C889 C905 1.349 . S
C890 C888 1.327 . S
C890 C909 1.429 . S
C890 H914 0.950 . S
C891 C908 1.574 . S
C891 C910 1.368 . S
C891 H915 0.949 . S
H892 C896 0.949 . S
C893 C894 1.349 . S
C893 C895 1.327 . S
C893 H916 0.950 . S
C894 C893 1.349 . S
C894 C906 1.349 . S
C895 C893 1.327 . S
C895 C911 1.429 . S
C895 H917 0.950 . S
C896 H892 0.949 . S
C896 C904 1.574 . S
C896 C912 1.368 . S
H897 C905 0.950 . S
H898 C903 0.950 . S
H899 C904 0.949 . S
H900 C906 0.950 . S
H901 C907 0.950 . S
H902 C908 0.949 . S
C903 H898 0.950 . S
C903 C905 1.327 . S
C903 C909 1.429 . S
C904 C896 1.574 . S
C904 H899 0.949 . S
C904 C910 1.368 . S
C905 C889 1.349 . S
C905 H897 0.950 . S
C905 C903 1.327 . S
C906 C894 1.349 . S
C906 H900 0.950 . S
C906 C907 1.327 . S
C907 H901 0.950 . S
C907 C906 1.327 . S
C907 C911 1.429 . S
C908 C891 1.574 . S
C908 H902 0.949 . S
C908 C912 1.368 . S
C909 C890 1.429 . S
C909 C903 1.429 . S
C909 C910 1.523 . S
C910 C891 1.368 . S
C910 C904 1.368 . S
C910 C909 1.523 . S
C911 C895 1.429 . S
C911 C907 1.429 . S
C911 C912 1.523 . S
C912 C896 1.368 . S
C912 C908 1.368 . S
C912 C911 1.523 . S
H913 C888 0.950 . S
H914 C890 0.950 . S
H915 C891 0.949 . S
H916 C893 0.950 . S
H917 C895 0.950 . S
C918 C919 1.349 . S
C918 C920 1.327 . S
C918 H943 0.950 . S
C919 C918 1.349 . S
C919 C935 1.349 . S
C920 C918 1.327 . S
C920 C939 1.429 . S
C920 H944 0.950 . S
C921 C938 1.574 . S
C921 C940 1.368 . S
C921 H945 0.949 . S
H922 C926 0.949 . S
C923 C924 1.349 . S
C923 C925 1.327 . S
C923 H946 0.950 . S
C924 C923 1.349 . S
C924 C936 1.349 . S
C925 C923 1.327 . S
C925 C941 1.429 . S
C925 H947 0.950 . S
C926 H922 0.949 . S
C926 C934 1.574 . S
C926 C942 1.368 . S
H927 C935 0.950 . S
H928 C933 0.950 . S
H929 C934 0.949 . S
H930 C936 0.950 . S
H931 C937 0.950 . S
H932 C938 0.949 . S
C933 H928 0.950 . S
C933 C935 1.327 . S
C933 C939 1.429 . S
C934 C926 1.574 . S
C934 H929 0.949 . S
C934 C940 1.368 . S
C935 C919 1.349 . S
C935 H927 0.950 . S
C935 C933 1.327 . S
C936 C924 1.349 . S
C936 H930 0.950 . S
C936 C937 1.327 . S
C937 H931 0.950 . S
C937 C936 1.327 . S
C937 C941 1.429 . S
C938 C921 1.574 . S
C938 H932 0.949 . S
C938 C942 1.368 . S
C939 C920 1.429 . S
C939 C933 1.429 . S
C939 C940 1.523 . S
C940 C921 1.368 . S
C940 C934 1.368 . S
C940 C939 1.523 . S
C941 C925 1.429 . S
C941 C937 1.429 . S
C941 C942 1.523 . S
C942 C926 1.368 . S
C942 C938 1.368 . S
C942 C941 1.523 . S
H943 C918 0.950 . S
H944 C920 0.950 . S
H945 C921 0.949 . S
H946 C923 0.950 . S
H947 C925 0.950 . S
C948 C949 1.349 . S
C948 C950 1.327 . S
C948 H973 0.950 . S
C949 C948 1.349 . S
C949 C965 1.349 . S
C950 C948 1.327 . S
C950 C969 1.429 . S
C950 H974 0.950 . S
C951 C968 1.574 . S
C951 C970 1.368 . S
C951 H975 0.949 . S
H952 C956 0.949 . S
C953 C954 1.349 . S
C953 C955 1.327 . S
C953 H976 0.950 . S
C954 C953 1.349 . S
C954 C966 1.349 . S
C955 C953 1.327 . S
C955 C971 1.429 . S
C955 H977 0.950 . S
C956 H952 0.949 . S
C956 C964 1.574 . S
C956 C972 1.368 . S
H957 C965 0.950 . S
H958 C963 0.950 . S
H959 C964 0.949 . S
H960 C966 0.950 . S
H961 C967 0.950 . S
H962 C968 0.949 . S
C963 H958 0.950 . S
C963 C965 1.327 . S
C963 C969 1.429 . S
C964 C956 1.574 . S
C964 H959 0.949 . S
C964 C970 1.368 . S
C965 C949 1.349 . S
C965 H957 0.950 . S
C965 C963 1.327 . S
C966 C954 1.349 . S
C966 H960 0.950 . S
C966 C967 1.327 . S
C967 H961 0.950 . S
C967 C966 1.327 . S
C967 C971 1.429 . S
C968 C951 1.574 . S
C968 H962 0.949 . S
C968 C972 1.368 . S
C969 C950 1.429 . S
C969 C963 1.429 . S
C969 C970 1.523 . S
C970 C951 1.368 . S
C970 C964 1.368 . S
C970 C969 1.523 . S
C971 C955 1.429 . S
C971 C967 1.429 . S
C971 C972 1.523 . S
C972 C956 1.368 . S
C972 C968 1.368 . S
C972 C971 1.523 . S
H973 C948 0.950 . S
H974 C950 0.950 . S
H975 C951 0.949 . S
H976 C953 0.950 . S
H977 C955 0.950 . S
C978 C979 1.349 . S
C978 C980 1.327 . S
C978 H1003 0.950 . S
C979 C978 1.349 . S
C979 C995 1.349 . S
C980 C978 1.327 . S
C980 C999 1.429 . S
C980 H1004 0.950 . S
C981 C998 1.574 . S
C981 C1000 1.368 . S
C981 H1005 0.949 . S
H982 C986 0.949 . S
C983 C984 1.349 . S
C983 C985 1.327 . S
C983 H1006 0.950 . S
C984 C983 1.349 . S
C984 C996 1.349 . S
C985 C983 1.327 . S
C985 C1001 1.429 . S
C985 H1007 0.950 . S
C986 H982 0.949 . S
C986 C994 1.574 . S
C986 C1002 1.368 . S
H987 C995 0.950 . S
H988 C993 0.950 . S
H989 C994 0.949 . S
H990 C996 0.950 . S
H991 C997 0.950 . S
H992 C998 0.949 . S
C993 H988 0.950 . S
C993 C995 1.327 . S
C993 C999 1.429 . S
C994 C986 1.574 . S
C994 H989 0.949 . S
C994 C1000 1.368 . S
C995 C979 1.349 . S
C995 H987 0.950 . S
C995 C993 1.327 . S
C996 C984 1.349 . S
C996 H990 0.950 . S
C996 C997 1.327 . S
C997 H991 0.950 . S
C997 C996 1.327 . S
C997 C1001 1.429 . S
C998 C981 1.574 . S
C998 H992 0.949 . S
C998 C1002 1.368 . S
C999 C980 1.429 . S
C999 C993 1.429 . S
C999 C1000 1.523 . S
C1000 C981 1.368 . S
C1000 C994 1.368 . S
C1000 C999 1.523 . S
C1001 C985 1.429 . S
C1001 C997 1.429 . S
C1001 C1002 1.523 . S
C1002 C986 1.368 . S
C1002 C998 1.368 . S
C1002 C1001 1.523 . S
H1003 C978 0.950 . S
H1004 C980 0.950 . S
H1005 C981 0.949 . S
H1006 C983 0.950 . S
H1007 C985 0.950 . S
C1008 C1009 1.349 . S
C1008 C1010 1.327 . S
C1008 H1033 0.950 . S
C1009 C1008 1.349 . S
C1009 C1025 1.349 . S
C1010 C1008 1.327 . S
C1010 C1029 1.429 . S
C1010 H1034 0.950 . S
C1011 C1028 1.574 . S
C1011 C1030 1.368 . S
C1011 H1035 0.949 . S
H1012 C1016 0.949 . S
C1013 C1014 1.349 1_565 S
C1013 C1015 1.327 . S
C1013 H1036 0.962 . S
C1014 C1013 1.349 1_545 S
C1014 C1026 1.349 1_545 S
C1015 C1013 1.327 . S
C1015 C1031 1.429 . S
C1015 H1037 0.950 . S
C1016 H1012 0.949 . S
C1016 C1024 1.574 . S
C1016 C1032 1.368 . S
H1017 C1025 0.950 . S
H1018 C1023 0.950 . S
H1019 C1024 0.949 . S
H1020 C1026 0.950 1_545 S
H1021 C1027 0.950 . S
H1022 C1028 0.949 . S
C1023 H1018 0.950 . S
C1023 C1025 1.327 . S
C1023 C1029 1.429 . S
C1024 C1016 1.574 . S
C1024 H1019 0.949 . S
C1024 C1030 1.368 . S
C1025 C1009 1.349 . S
C1025 H1017 0.950 . S
C1025 C1023 1.327 . S
C1026 C1014 1.349 1_565 S
C1026 H1020 0.950 1_565 S
C1026 C1027 1.327 . S
C1027 H1021 0.950 . S
C1027 C1026 1.327 . S
C1027 C1031 1.429 . S
C1028 C1011 1.574 . S
C1028 H1022 0.949 . S
C1028 C1032 1.368 . S
C1029 C1010 1.429 . S
C1029 C1023 1.429 . S
C1029 C1030 1.523 . S
C1030 C1011 1.368 . S
C1030 C1024 1.368 . S
C1030 C1029 1.523 . S
C1031 C1015 1.429 . S
C1031 C1027 1.429 . S
C1031 C1032 1.523 . S
C1032 C1016 1.368 . S
C1032 C1028 1.368 . S
C1032 C1031 1.523 . S
H1033 C1008 0.950 . S
H1034 C1010 0.950 . S
H1035 C1011 0.949 . S
H1036 C1013 0.962 . S
H1037 C1015 0.950 . S
C1038 C1039 1.349 . S
C1038 C1040 1.327 . S
C1038 H1063 0.950 . S
C1039 C1038 1.349 . S
C1039 C1055 1.349 . S
C1040 C1038 1.327 . S
C1040 C1059 1.429 . S
C1040 H1064 0.950 . S
C1041 C1058 1.574 . S
C1041 C1060 1.368 . S
C1041 H1065 0.949 . S
H1042 C1046 0.949 . S
C1043 C1044 1.349 . S
C1043 C1045 1.327 . S
C1043 H1066 0.950 . S
C1044 C1043 1.349 . S
C1044 C1056 1.349 . S
C1045 C1043 1.327 . S
C1045 C1061 1.429 . S
C1045 H1067 0.950 . S
C1046 H1042 0.949 . S
C1046 C1054 1.574 . S
C1046 C1062 1.368 . S
H1047 C1055 0.950 . S
H1048 C1053 0.950 . S
H1049 C1054 0.949 . S
H1050 C1056 0.950 . S
H1051 C1057 0.950 . S
H1052 C1058 0.949 . S
C1053 H1048 0.950 . S
C1053 C1055 1.327 . S
C1053 C1059 1.429 . S
C1054 C1046 1.574 . S
C1054 H1049 0.949 . S
C1054 C1060 1.368 . S
C1055 C1039 1.349 . S
C1055 H1047 0.950 . S
C1055 C1053 1.327 . S
C1056 C1044 1.349 . S
C1056 H1050 0.950 . S
C1056 C1057 1.327 . S
C1057 H1051 0.950 . S
C1057 C1056 1.327 . S
C1057 C1061 1.429 . S
C1058 C1041 1.574 . S
C1058 H1052 0.949 . S
C1058 C1062 1.368 . S
C1059 C1040 1.429 . S
C1059 C1053 1.429 . S
C1059 C1060 1.523 . S
C1060 C1041 1.368 . S
C1060 C1054 1.368 . S
C1060 C1059 1.523 . S
C1061 C1045 1.429 . S
C1061 C1057 1.429 . S
C1061 C1062 1.523 . S
C1062 C1046 1.368 . S
C1062 C1058 1.368 . S
C1062 C1061 1.523 . S
H1063 C1038 0.950 . S
H1064 C1040 0.950 . S
H1065 C1041 0.949 . S
H1066 C1043 0.950 . S
H1067 C1045 0.950 . S
C1068 C1069 1.349 . S
C1068 C1070 1.327 . S
C1068 H1093 0.950 . S
C1069 C1068 1.349 . S
C1069 C1085 1.349 . S
C1070 C1068 1.327 . S
C1070 C1089 1.429 . S
C1070 H1094 0.950 . S
C1071 C1088 1.574 . S
C1071 C1090 1.368 . S
C1071 H1095 0.949 . S
H1072 C1076 0.949 1_455 S
C1073 C1074 1.349 1_655 S
C1073 C1075 1.327 . S
C1073 H1096 0.950 . S
C1074 C1073 1.349 1_455 S
C1074 C1086 1.349 . S
C1075 C1073 1.327 . S
C1075 C1091 1.429 . S
C1075 H1097 0.950 . S
C1076 H1072 0.949 1_655 S
C1076 C1084 1.574 . S
C1076 C1092 1.368 . S
H1077 C1085 0.950 . S
H1078 C1083 0.950 . S
H1079 C1084 0.959 . S
H1080 C1086 0.950 . S
H1081 C1087 0.950 . S
H1082 C1088 0.949 . S
C1083 H1078 0.950 . S
C1083 C1085 1.327 . S
C1083 C1089 1.429 . S
C1084 C1076 1.574 . S
C1084 H1079 0.959 . S
C1084 C1090 1.368 . S
C1085 C1069 1.349 . S
C1085 H1077 0.950 . S
C1085 C1083 1.327 . S
C1086 C1074 1.349 . S
C1086 H1080 0.950 . S
C1086 C1087 1.327 . S
C1087 H1081 0.950 . S
C1087 C1086 1.327 . S
C1087 C1091 1.429 1_455 S
C1088 C1071 1.574 . S
C1088 H1082 0.949 . S
C1088 C1092 1.368 . S
C1089 C1070 1.429 . S
C1089 C1083 1.429 . S
C1089 C1090 1.523 . S
C1090 C1071 1.368 . S
C1090 C1084 1.368 . S
C1090 C1089 1.523 . S
C1091 C1075 1.429 . S
C1091 C1087 1.429 1_655 S
C1091 C1092 1.523 . S
C1092 C1076 1.368 . S
C1092 C1088 1.368 . S
C1092 C1091 1.523 . S
H1093 C1068 0.950 . S
H1094 C1070 0.950 . S
H1095 C1071 0.949 . S
H1096 C1073 0.950 . S
H1097 C1075 0.950 . S
C1098 C1099 1.349 . S
C1098 C1100 1.327 . S
C1098 H1123 0.950 . S
C1099 C1098 1.349 . S
C1099 C1115 1.349 1_545 S
C1100 C1098 1.327 . S
C1100 C1119 1.429 1_545 S
C1100 H1124 0.950 . S
C1101 C1118 1.574 . S
C1101 C1120 1.368 . S
C1101 H1125 0.949 . S
H1102 C1106 0.949 1_545 S
C1103 C1104 1.349 1_655 S
C1103 C1105 1.327 . S
C1103 H1126 0.950 . S
C1104 C1103 1.349 1_455 S
C1104 C1116 1.349 1_455 S
C1105 C1103 1.327 . S
C1105 C1121 1.429 . S
C1105 H1127 0.950 . S
C1106 H1102 0.949 1_565 S
C1106 C1114 1.574 1_565 S
C1106 C1122 1.368 . S
H1107 C1115 0.950 . S
H1108 C1113 0.950 . S
H1109 C1114 0.949 . S
H1110 C1116 0.950 1_455 S
H1111 C1117 0.950 . S
H1112 C1118 0.949 . S
C1113 H1108 0.950 . S
C1113 C1115 1.327 . S
C1113 C1119 1.429 . S
C1114 C1106 1.574 1_545 S
C1114 H1109 0.949 . S
C1114 C1120 1.368 1_545 S
C1115 C1099 1.349 1_565 S
C1115 H1107 0.950 . S
C1115 C1113 1.327 . S
C1116 C1104 1.349 1_655 S
C1116 H1110 0.950 1_655 S
C1116 C1117 1.327 . S
C1117 H1111 0.950 . S
C1117 C1116 1.327 . S
C1117 C1121 1.429 . S
C1118 C1101 1.574 . S
C1118 H1112 0.949 . S
C1118 C1122 1.368 . S
C1119 C1100 1.429 1_565 S
C1119 C1113 1.429 . S
C1119 C1120 1.523 . S
C1120 C1101 1.368 . S
C1120 C1114 1.368 1_565 S
C1120 C1119 1.523 . S
C1121 C1105 1.429 . S
C1121 C1117 1.429 . S
C1121 C1122 1.523 . S
C1122 C1106 1.368 . S
C1122 C1118 1.368 . S
C1122 C1121 1.523 . S
H1123 C1098 0.950 . S
H1124 C1100 0.950 . S
H1125 C1101 0.949 . S
H1126 C1103 0.950 . S
H1127 C1105 0.950 . S
C1128 C1129 1.349 . S
C1128 C1130 1.327 . S
C1128 H1153 0.950 . S
C1129 C1128 1.349 . S
C1129 C1145 1.349 . S
C1130 C1128 1.327 . S
C1130 C1149 1.429 . S
C1130 H1154 0.950 . S
C1131 C1148 1.574 . S
C1131 C1150 1.368 . S
C1131 H1155 0.949 . S
H1132 C1136 0.949 . S
C1133 C1134 1.349 . S
C1133 C1135 1.327 . S
C1133 H1156 0.950 . S
C1134 C1133 1.349 . S
C1134 C1146 1.349 . S
C1135 C1133 1.327 . S
C1135 C1151 1.429 . S
C1135 H1157 0.950 . S
C1136 H1132 0.949 . S
C1136 C1144 1.574 . S
C1136 C1152 1.368 . S
H1137 C1145 0.950 . S
H1138 C1143 0.950 . S
H1139 C1144 0.949 . S
H1140 C1146 0.950 . S
H1141 C1147 0.950 . S
H1142 C1148 0.949 . S
C1143 H1138 0.950 . S
C1143 C1145 1.327 . S
C1143 C1149 1.429 . S
C1144 C1136 1.574 . S
C1144 H1139 0.949 . S
C1144 C1150 1.368 . S
C1145 C1129 1.349 . S
C1145 H1137 0.950 . S
C1145 C1143 1.327 . S
C1146 C1134 1.349 . S
C1146 H1140 0.950 . S
C1146 C1147 1.327 . S
C1147 H1141 0.950 . S
C1147 C1146 1.327 . S
C1147 C1151 1.429 . S
C1148 C1131 1.574 . S
C1148 H1142 0.949 . S
C1148 C1152 1.368 . S
C1149 C1130 1.429 . S
C1149 C1143 1.429 . S
C1149 C1150 1.523 . S
C1150 C1131 1.368 . S
C1150 C1144 1.368 . S
C1150 C1149 1.523 . S
C1151 C1135 1.429 . S
C1151 C1147 1.429 . S
C1151 C1152 1.523 . S
C1152 C1136 1.368 . S
C1152 C1148 1.368 . S
C1152 C1151 1.523 . S
H1153 C1128 0.950 . S
H1154 C1130 0.950 . S
H1155 C1131 0.949 . S
H1156 C1133 0.950 . S
H1157 C1135 0.950 . S
C1158 C1159 1.349 . S
C1158 C1160 1.327 . S
C1158 H1183 0.950 . S
C1159 C1158 1.349 . S
C1159 C1175 1.349 . S
C1160 C1158 1.327 . S
C1160 C1179 1.429 . S
C1160 H1184 0.950 . S
C1161 C1178 1.574 . S
C1161 C1180 1.368 . S
C1161 H1185 0.949 . S
H1162 C1166 0.949 . S
C1163 C1164 1.349 1_655 S
C1163 C1165 1.327 . S
C1163 H1186 0.950 1_655 S
C1164 C1163 1.349 1_455 S
C1164 C1176 1.349 1_455 S
C1165 C1163 1.327 . S
C1165 C1181 1.429 . S
C1165 H1187 0.950 . S
C1166 H1162 0.949 . S
C1166 C1174 1.574 . S
C1166 C1182 1.368 . S
H1167 C1175 0.950 . S
H1168 C1173 0.950 . S
H1169 C1174 0.949 . S
H1170 C1176 0.949 1_455 S
H1171 C1177 0.950 . S
H1172 C1178 0.949 . S
C1173 H1168 0.950 . S
C1173 C1175 1.327 . S
C1173 C1179 1.429 . S
C1174 C1166 1.574 . S
C1174 H1169 0.949 . S
C1174 C1180 1.368 . S
C1175 C1159 1.349 . S
C1175 H1167 0.950 . S
C1175 C1173 1.327 . S
C1176 C1164 1.349 1_655 S
C1176 H1170 0.949 1_655 S
C1176 C1177 1.327 . S
C1177 H1171 0.950 . S
C1177 C1176 1.327 . S
C1177 C1181 1.429 . S
C1178 C1161 1.574 . S
C1178 H1172 0.949 . S
C1178 C1182 1.368 . S
C1179 C1160 1.429 . S
C1179 C1173 1.429 . S
C1179 C1180 1.523 . S
C1180 C1161 1.368 . S
C1180 C1174 1.368 . S
C1180 C1179 1.523 . S
C1181 C1165 1.429 . S
C1181 C1177 1.429 . S
C1181 C1182 1.523 . S
C1182 C1166 1.368 . S
C1182 C1178 1.368 . S
C1182 C1181 1.523 . S
H1183 C1158 0.950 . S
H1184 C1160 0.950 . S
H1185 C1161 0.949 . S
H1186 C1163 0.950 1_455 S
H1187 C1165 0.950 . S
C1188 C1189 1.349 1_565 S
C1188 C1190 1.327 . S
C1188 H1213 0.950 1_565 S
C1189 C1188 1.349 1_545 S
C1189 C1205 1.349 1_545 S
C1190 C1188 1.327 . S
C1190 C1209 1.429 . S
C1190 H1214 0.950 . S
C1191 C1208 1.574 . S
C1191 C1210 1.368 . S
C1191 H1215 0.949 . S
H1192 C1196 0.949 . S
C1193 C1194 1.349 . S
C1193 C1195 1.327 . S
C1193 H1216 0.950 . S
C1194 C1193 1.349 . S
C1194 C1206 1.349 1_455 S
C1195 C1193 1.327 . S
C1195 C1211 1.429 1_455 S
C1195 H1217 0.950 . S
C1196 H1192 0.949 . S
C1196 C1204 1.574 . S
C1196 C1212 1.368 . S
H1197 C1205 0.950 1_545 S
H1198 C1203 0.950 . S
H1199 C1204 0.949 . S
H1200 C1206 0.950 . S
H1201 C1207 0.950 . S
H1202 C1208 0.949 1_455 S
C1203 H1198 0.950 . S
C1203 C1205 1.327 . S
C1203 C1209 1.429 . S
C1204 C1196 1.574 . S
C1204 H1199 0.949 . S
C1204 C1210 1.368 . S
C1205 C1189 1.349 1_565 S
C1205 H1197 0.950 1_565 S
C1205 C1203 1.327 . S
C1206 C1194 1.349 1_655 S
C1206 H1200 0.950 . S
C1206 C1207 1.327 . S
C1207 H1201 0.950 . S
C1207 C1206 1.327 . S
C1207 C1211 1.429 . S
C1208 C1191 1.574 . S
C1208 H1202 0.949 1_655 S
C1208 C1212 1.368 . S
C1209 C1190 1.429 . S
C1209 C1203 1.429 . S
C1209 C1210 1.523 . S
C1210 C1191 1.368 . S
C1210 C1204 1.368 . S
C1210 C1209 1.523 . S
C1211 C1195 1.429 1_655 S
C1211 C1207 1.429 . S
C1211 C1212 1.523 . S
C1212 C1196 1.368 . S
C1212 C1208 1.368 . S
C1212 C1211 1.523 . S
H1213 C1188 0.950 1_545 S
H1214 C1190 0.950 . S
H1215 C1191 0.949 . S
H1216 C1193 0.950 . S
H1217 C1195 0.950 . S
C1218 C1219 1.349 . S
C1218 C1220 1.327 . S
C1218 H1243 0.950 . S
C1219 C1218 1.349 . S
C1219 C1235 1.349 . S
C1220 C1218 1.327 . S
C1220 C1239 1.429 . S
C1220 H1244 0.950 . S
C1221 C1238 1.574 . S
C1221 C1240 1.368 . S
C1221 H1245 0.949 . S
H1222 C1226 0.949 . S
C1223 C1224 1.349 1_565 S
C1223 C1225 1.327 . S
C1223 H1246 0.950 . S
C1224 C1223 1.349 1_545 S
C1224 C1236 1.349 . S
C1225 C1223 1.327 . S
C1225 C1241 1.429 . S
C1225 H1247 0.950 . S
C1226 H1222 0.949 . S
C1226 C1234 1.574 1_545 S
C1226 C1242 1.368 1_545 S
H1227 C1235 0.950 . S
H1228 C1233 0.950 . S
H1229 C1234 0.949 1_545 S
H1230 C1236 0.950 . S
H1231 C1237 0.950 . S
H1232 C1238 0.949 . S
C1233 H1228 0.950 . S
C1233 C1235 1.327 . S
C1233 C1239 1.429 . S
C1234 C1226 1.574 1_565 S
C1234 H1229 0.949 1_565 S
C1234 C1240 1.368 . S
C1235 C1219 1.349 . S
C1235 H1227 0.950 . S
C1235 C1233 1.327 . S
C1236 C1224 1.349 . S
C1236 H1230 0.950 . S
C1236 C1237 1.327 . S
C1237 H1231 0.950 . S
C1237 C1236 1.327 . S
C1237 C1241 1.429 1_545 S
C1238 C1221 1.574 . S
C1238 H1232 0.949 . S
C1238 C1242 1.368 . S
C1239 C1220 1.429 . S
C1239 C1233 1.429 . S
C1239 C1240 1.523 . S
C1240 C1221 1.368 . S
C1240 C1234 1.368 . S
C1240 C1239 1.523 . S
C1241 C1225 1.429 . S
C1241 C1237 1.429 1_565 S
C1241 C1242 1.523 . S
C1242 C1226 1.368 1_565 S
C1242 C1238 1.368 . S
C1242 C1241 1.523 . S
H1243 C1218 0.950 . S
H1244 C1220 0.950 . S
H1245 C1221 0.949 . S
H1246 C1223 0.950 . S
H1247 C1225 0.950 . S
C1248 C1249 1.349 . S
C1248 C1250 1.327 . S
C1248 H1273 0.950 . S
C1249 C1248 1.349 . S
C1249 C1265 1.349 . S
C1250 C1248 1.327 . S
C1250 C1269 1.429 . S
C1250 H1274 0.950 . S
C1251 C1268 1.574 . S
C1251 C1270 1.368 . S
C1251 H1275 0.949 . S
H1252 C1256 0.949 . S
C1253 C1254 1.349 1_545 S
C1253 C1255 1.327 . S
C1253 H1276 0.950 1_545 S
C1254 C1253 1.349 1_565 S
C1254 C1266 1.349 1_565 S
C1255 C1253 1.327 . S
C1255 C1271 1.429 . S
C1255 H1277 0.950 . S
C1256 H1252 0.949 . S
C1256 C1264 1.574 . S
C1256 C1272 1.368 . S
H1257 C1265 0.950 . S
H1258 C1263 0.950 . S
H1259 C1264 0.949 . S
H1260 C1266 0.950 1_565 S
H1261 C1267 0.950 . S
H1262 C1268 0.949 . S
C1263 H1258 0.950 . S
C1263 C1265 1.327 . S
C1263 C1269 1.429 . S
C1264 C1256 1.574 . S
C1264 H1259 0.949 . S
C1264 C1270 1.368 . S
C1265 C1249 1.349 . S
C1265 H1257 0.950 . S
C1265 C1263 1.327 . S
C1266 C1254 1.349 1_545 S
C1266 H1260 0.950 1_545 S
C1266 C1267 1.327 . S
C1267 H1261 0.950 . S
C1267 C1266 1.327 . S
C1267 C1271 1.429 . S
C1268 C1251 1.574 . S
C1268 H1262 0.949 . S
C1268 C1272 1.368 . S
C1269 C1250 1.429 . S
C1269 C1263 1.429 . S
C1269 C1270 1.523 . S
C1270 C1251 1.368 . S
C1270 C1264 1.368 . S
C1270 C1269 1.523 . S
C1271 C1255 1.429 . S
C1271 C1267 1.429 . S
C1271 C1272 1.523 . S
C1272 C1256 1.368 . S
C1272 C1268 1.368 . S
C1272 C1271 1.523 . S
H1273 C1248 0.950 . S
H1274 C1250 0.950 . S
H1275 C1251 0.949 . S
H1276 C1253 0.950 1_565 S
H1277 C1255 0.950 . S
C1278 C1279 1.349 . S
C1278 C1280 1.327 . S
C1278 H1303 0.950 . S
C1279 C1278 1.349 . S
C1279 C1295 1.349 . S
C1280 C1278 1.327 . S
C1280 C1299 1.429 . S
C1280 H1304 0.950 . S
C1281 C1298 1.574 . S
C1281 C1300 1.368 . S
C1281 H1305 0.949 . S
H1282 C1286 0.949 . S
C1283 C1284 1.349 . S
C1283 C1285 1.327 . S
C1283 H1306 0.950 . S
C1284 C1283 1.349 . S
C1284 C1296 1.349 . S
C1285 C1283 1.327 . S
C1285 C1301 1.429 . S
C1285 H1307 0.950 . S
C1286 H1282 0.949 . S
C1286 C1294 1.574 . S
C1286 C1302 1.368 . S
H1287 C1295 0.950 . S
H1288 C1293 0.950 . S
H1289 C1294 0.949 . S
H1290 C1296 0.950 . S
H1291 C1297 0.950 . S
H1292 C1298 0.949 . S
C1293 H1288 0.950 . S
C1293 C1295 1.327 . S
C1293 C1299 1.429 . S
C1294 C1286 1.574 . S
C1294 H1289 0.949 . S
C1294 C1300 1.368 . S
C1295 C1279 1.349 . S
C1295 H1287 0.950 . S
C1295 C1293 1.327 . S
C1296 C1284 1.349 . S
C1296 H1290 0.950 . S
C1296 C1297 1.327 . S
C1297 H1291 0.950 . S
C1297 C1296 1.327 . S
C1297 C1301 1.429 . S
C1298 C1281 1.574 . S
C1298 H1292 0.949 . S
C1298 C1302 1.368 . S
C1299 C1280 1.429 . S
C1299 C1293 1.429 . S
C1299 C1300 1.523 . S
C1300 C1281 1.368 . S
C1300 C1294 1.368 . S
C1300 C1299 1.523 . S
C1301 C1285 1.429 . S
C1301 C1297 1.429 . S
C1301 C1302 1.523 . S
C1302 C1286 1.368 . S
C1302 C1298 1.368 . S
C1302 C1301 1.523 . S
H1303 C1278 0.950 . S
H1304 C1280 0.950 . S
H1305 C1281 0.949 . S
H1306 C1283 0.950 . S
H1307 C1285 0.950 . S
C1308 C1309 1.349 1_455 S
C1308 C1310 1.327 . S
C1308 H1333 0.950 . S
C1309 C1308 1.349 1_655 S
C1309 C1325 1.349 . S
C1310 C1308 1.327 . S
C1310 C1329 1.429 . S
C1310 H1334 0.950 . S
C1311 C1328 1.574 . S
C1311 C1330 1.368 . S
C1311 H1335 0.949 1_455 S
H1312 C1316 0.949 . S
C1313 C1314 1.349 . S
C1313 C1315 1.327 . S
C1313 H1336 0.950 . S
C1314 C1313 1.349 . S
C1314 C1326 1.349 . S
C1315 C1313 1.327 . S
C1315 C1331 1.429 . S
C1315 H1337 0.950 . S
C1316 H1312 0.949 . S
C1316 C1324 1.574 . S
C1316 C1332 1.368 . S
H1317 C1325 0.950 . S
H1318 C1323 0.950 . S
H1319 C1324 0.949 . S
H1320 C1326 0.950 . S
H1321 C1327 0.950 . S
H1322 C1328 0.942 1_655 S
C1323 H1318 0.950 . S
C1323 C1325 1.327 . S
C1323 C1329 1.429 1_655 S
C1324 C1316 1.574 . S
C1324 H1319 0.949 . S
C1324 C1330 1.368 . S
C1325 C1309 1.349 . S
C1325 H1317 0.950 . S
C1325 C1323 1.327 . S
C1326 C1314 1.349 . S
C1326 H1320 0.950 . S
C1326 C1327 1.327 . S
C1327 H1321 0.950 . S
C1327 C1326 1.327 . S
C1327 C1331 1.429 . S
C1328 C1311 1.574 . S
C1328 H1322 0.942 1_455 S
C1328 C1332 1.368 . S
C1329 C1310 1.429 . S
C1329 C1323 1.429 1_455 S
C1329 C1330 1.523 . S
C1330 C1311 1.368 . S
C1330 C1324 1.368 . S
C1330 C1329 1.523 . S
C1331 C1315 1.429 . S
C1331 C1327 1.429 . S
C1331 C1332 1.523 . S
C1332 C1316 1.368 . S
C1332 C1328 1.368 . S
C1332 C1331 1.523 . S
H1333 C1308 0.950 . S
H1334 C1310 0.950 . S
H1335 C1311 0.949 1_655 S
H1336 C1313 0.950 . S
H1337 C1315 0.950 . S
C1338 C1339 1.349 1_545 S
C1338 C1340 1.327 . S
C1338 H1363 0.950 . S
C1339 C1338 1.349 1_565 S
C1339 C1355 1.349 . S
C1340 C1338 1.327 . S
C1340 C1359 1.429 . S
C1340 H1364 0.950 . S
C1341 C1358 1.574 . S
C1341 C1360 1.368 . S
C1341 H1365 0.949 1_545 S
H1342 C1346 0.949 . S
C1343 C1344 1.349 1_455 S
C1343 C1345 1.327 . S
C1343 H1366 0.950 1_455 S
C1344 C1343 1.349 1_655 S
C1344 C1356 1.349 1_655 S
C1345 C1343 1.327 . S
C1345 C1361 1.429 . S
C1345 H1367 0.950 . S
C1346 H1342 0.949 . S
C1346 C1354 1.574 . S
C1346 C1362 1.368 . S
H1347 C1355 0.950 . S
H1348 C1353 0.950 . S
H1349 C1354 0.949 . S
H1350 C1356 0.950 1_655 S
H1351 C1357 0.950 . S
H1352 C1358 0.949 . S
C1353 H1348 0.950 . S
C1353 C1355 1.327 . S
C1353 C1359 1.429 1_565 S
C1354 C1346 1.574 . S
C1354 H1349 0.949 . S
C1354 C1360 1.368 . S
C1355 C1339 1.349 . S
C1355 H1347 0.950 . S
C1355 C1353 1.327 . S
C1356 C1344 1.349 1_455 S
C1356 H1350 0.950 1_455 S
C1356 C1357 1.327 . S
C1357 H1351 0.950 . S
C1357 C1356 1.327 . S
C1357 C1361 1.429 . S
C1358 C1341 1.574 . S
C1358 H1352 0.949 . S
C1358 C1362 1.368 . S
C1359 C1340 1.429 . S
C1359 C1353 1.429 1_545 S
C1359 C1360 1.523 . S
C1360 C1341 1.368 . S
C1360 C1354 1.368 . S
C1360 C1359 1.523 . S
C1361 C1345 1.429 . S
C1361 C1357 1.429 . S
C1361 C1362 1.523 . S
C1362 C1346 1.368 . S
C1362 C1358 1.368 . S
C1362 C1361 1.523 . S
H1363 C1338 0.950 . S
H1364 C1340 0.950 . S
H1365 C1341 0.949 1_565 S
H1366 C1343 0.950 1_655 S
H1367 C1345 0.950 . S
C1368 C1369 1.349 . S
C1368 C1370 1.327 . S
C1368 H1393 0.950 . S
C1369 C1368 1.349 . S
C1369 C1385 1.349 . S
C1370 C1368 1.327 . S
C1370 C1389 1.429 . S
C1370 H1394 0.950 . S
C1371 C1388 1.574 . S
C1371 C1390 1.368 . S
C1371 H1395 0.949 . S
H1372 C1376 0.949 . S
C1373 C1374 1.349 . S
C1373 C1375 1.327 . S
C1373 H1396 0.950 . S
C1374 C1373 1.349 . S
C1374 C1386 1.349 . S
C1375 C1373 1.327 . S
C1375 C1391 1.429 . S
C1375 H1397 0.950 . S
C1376 H1372 0.949 . S
C1376 C1384 1.574 . S
C1376 C1392 1.368 . S
H1377 C1385 0.950 . S
H1378 C1383 0.950 . S
H1379 C1384 0.949 . S
H1380 C1386 0.950 . S
H1381 C1387 0.950 . S
H1382 C1388 0.949 . S
C1383 H1378 0.950 . S
C1383 C1385 1.327 . S
C1383 C1389 1.429 . S
C1384 C1376 1.574 . S
C1384 H1379 0.949 . S
C1384 C1390 1.368 . S
C1385 C1369 1.349 . S
C1385 H1377 0.950 . S
C1385 C1383 1.327 . S
C1386 C1374 1.349 . S
C1386 H1380 0.950 . S
C1386 C1387 1.327 . S
C1387 H1381 0.950 . S
C1387 C1386 1.327 . S
C1387 C1391 1.429 . S
C1388 C1371 1.574 . S
C1388 H1382 0.949 . S
C1388 C1392 1.368 . S
C1389 C1370 1.429 . S
C1389 C1383 1.429 . S
C1389 C1390 1.523 . S
C1390 C1371 1.368 . S
C1390 C1384 1.368 . S
C1390 C1389 1.523 . S
C1391 C1375 1.429 . S
C1391 C1387 1.429 . S
C1391 C1392 1.523 . S
C1392 C1376 1.368 . S
C1392 C1388 1.368 . S
C1392 C1391 1.523 . S
H1393 C1368 0.950 . S
H1394 C1370 0.950 . S
H1395 C1371 0.949 . S
H1396 C1373 0.950 . S
H1397 C1375 0.950 . S
C1398 C1399 1.349 . S
C1398 C1400 1.327 . S
C1398 H1423 0.950 . S
C1399 C1398 1.349 . S
C1399 C1415 1.349 . S
C1400 C1398 1.327 . S
C1400 C1419 1.429 . S
C1400 H1424 0.950 . S
C1401 C1418 1.574 . S
C1401 C1420 1.368 . S
C1401 H1425 0.949 . S
H1402 C1406 0.949 . S
C1403 C1404 1.349 1_455 S
C1403 C1405 1.327 . S
C1403 H1426 0.950 1_455 S
C1404 C1403 1.349 1_655 S
C1404 C1416 1.349 1_655 S
C1405 C1403 1.327 . S
C1405 C1421 1.429 . S
C1405 H1427 0.950 . S
C1406 H1402 0.949 . S
C1406 C1414 1.574 . S
C1406 C1422 1.368 . S
H1407 C1415 0.950 . S
H1408 C1413 0.950 . S
H1409 C1414 0.949 . S
H1410 C1416 0.950 1_655 S
H1411 C1417 0.950 . S
H1412 C1418 0.949 . S
C1413 H1408 0.950 . S
C1413 C1415 1.327 . S
C1413 C1419 1.429 . S
C1414 C1406 1.574 . S
C1414 H1409 0.949 . S
C1414 C1420 1.368 . S
C1415 C1399 1.349 . S
C1415 H1407 0.950 . S
C1415 C1413 1.327 . S
C1416 C1404 1.349 1_455 S
C1416 H1410 0.950 1_455 S
C1416 C1417 1.327 . S
C1417 H1411 0.950 . S
C1417 C1416 1.327 . S
C1417 C1421 1.429 . S
C1418 C1401 1.574 . S
C1418 H1412 0.949 . S
C1418 C1422 1.368 . S
C1419 C1400 1.429 . S
C1419 C1413 1.429 . S
C1419 C1420 1.523 . S
C1420 C1401 1.368 . S
C1420 C1414 1.368 . S
C1420 C1419 1.523 . S
C1421 C1405 1.429 . S
C1421 C1417 1.429 . S
C1421 C1422 1.523 . S
C1422 C1406 1.368 . S
C1422 C1418 1.368 . S
C1422 C1421 1.523 . S
H1423 C1398 0.950 . S
H1424 C1400 0.950 . S
H1425 C1401 0.949 . S
H1426 C1403 0.950 1_655 S
H1427 C1405 0.950 . S
C1428 C1429 1.349 . S
C1428 C1430 1.327 . S
C1428 H1453 0.950 . S
C1429 C1428 1.349 . S
C1429 C1445 1.349 1_655 S
C1430 C1428 1.327 . S
C1430 C1449 1.429 1_655 S
C1430 H1454 0.950 . S
C1431 C1448 1.574 . S
C1431 C1450 1.368 . S
C1431 H1455 0.949 . S
H1432 C1436 0.956 . S
C1433 C1434 1.349 1_545 S
C1433 C1435 1.327 . S
C1433 H1456 0.950 1_545 S
C1434 C1433 1.349 1_565 S
C1434 C1446 1.349 1_565 S
C1435 C1433 1.327 . S
C1435 C1451 1.429 . S
C1435 H1457 0.950 . S
C1436 H1432 0.956 . S
C1436 C1444 1.574 . S
C1436 C1452 1.368 . S
H1437 C1445 0.950 . S
H1438 C1443 0.950 . S
H1439 C1444 0.949 1_655 S
H1440 C1446 0.950 1_565 S
H1441 C1447 0.950 . S
H1442 C1448 0.949 . S
C1443 H1438 0.950 . S
C1443 C1445 1.327 . S
C1443 C1449 1.429 . S
C1444 C1436 1.574 . S
C1444 H1439 0.949 1_455 S
C1444 C1450 1.368 . S
C1445 C1429 1.349 1_455 S
C1445 H1437 0.950 . S
C1445 C1443 1.327 . S
C1446 C1434 1.349 1_545 S
C1446 H1440 0.950 1_545 S
C1446 C1447 1.327 . S
C1447 H1441 0.950 . S
C1447 C1446 1.327 . S
C1447 C1451 1.429 . S
C1448 C1431 1.574 . S
C1448 H1442 0.949 . S
C1448 C1452 1.368 . S
C1449 C1430 1.429 1_455 S
C1449 C1443 1.429 . S
C1449 C1450 1.523 . S
C1450 C1431 1.368 . S
C1450 C1444 1.368 . S
C1450 C1449 1.523 . S
C1451 C1435 1.429 . S
C1451 C1447 1.429 . S
C1451 C1452 1.523 . S
C1452 C1436 1.368 . S
C1452 C1448 1.368 . S
C1452 C1451 1.523 . S
H1453 C1428 0.950 . S
H1454 C1430 0.950 . S
H1455 C1431 0.949 . S
H1456 C1433 0.950 1_565 S
H1457 C1435 0.950 . S
C1458 C1459 1.349 . S
C1458 C1460 1.327 . S
C1458 H1483 0.950 . S
C1459 C1458 1.349 . S
C1459 C1475 1.349 . S
C1460 C1458 1.327 . S
C1460 C1479 1.429 . S
C1460 H1484 0.950 . S
C1461 C1478 1.574 . S
C1461 C1480 1.368 . S
C1461 H1485 0.949 . S
H1462 C1466 0.949 1_565 S
C1463 C1464 1.349 1_545 S
C1463 C1465 1.327 . S
C1463 H1486 0.950 . S
C1464 C1463 1.349 1_565 S
C1464 C1476 1.349 . S
C1465 C1463 1.327 . S
C1465 C1481 1.429 . S
C1465 H1487 0.950 . S
C1466 H1462 0.949 1_545 S
C1466 C1474 1.574 . S
C1466 C1482 1.368 . S
H1467 C1475 0.950 . S
H1468 C1473 0.950 . S
H1469 C1474 0.949 . S
H1470 C1476 0.950 . S
H1471 C1477 0.950 . S
H1472 C1478 0.949 . S
C1473 H1468 0.950 . S
C1473 C1475 1.327 . S
C1473 C1479 1.429 . S
C1474 C1466 1.574 . S
C1474 H1469 0.949 . S
C1474 C1480 1.368 . S
C1475 C1459 1.349 . S
C1475 H1467 0.950 . S
C1475 C1473 1.327 . S
C1476 C1464 1.349 . S
C1476 H1470 0.950 . S
C1476 C1477 1.327 . S
C1477 H1471 0.950 . S
C1477 C1476 1.327 . S
C1477 C1481 1.429 1_565 S
C1478 C1461 1.574 . S
C1478 H1472 0.949 . S
C1478 C1482 1.368 . S
C1479 C1460 1.429 . S
C1479 C1473 1.429 . S
C1479 C1480 1.523 . S
C1480 C1461 1.368 . S
C1480 C1474 1.368 . S
C1480 C1479 1.523 . S
C1481 C1465 1.429 . S
C1481 C1477 1.429 1_545 S
C1481 C1482 1.523 . S
C1482 C1466 1.368 . S
C1482 C1478 1.368 . S
C1482 C1481 1.523 . S
H1483 C1458 0.950 . S
H1484 C1460 0.950 . S
H1485 C1461 0.949 . S
H1486 C1463 0.950 . S
H1487 C1465 0.950 . S
C1488 C1489 1.349 . S
C1488 C1490 1.327 . S
C1488 H1513 0.950 . S
C1489 C1488 1.349 . S
C1489 C1505 1.349 . S
C1490 C1488 1.327 . S
C1490 C1509 1.429 . S
C1490 H1514 0.950 . S
C1491 C1508 1.592 . S
C1491 C1510 1.350 1_554 S
C1491 H1515 0.949 . S
H1492 C1496 0.949 . S
C1493 C1494 1.349 . S
C1493 C1495 1.327 . S
C1493 H1516 0.950 . S
C1494 C1493 1.349 . S
C1494 C1506 1.349 . S
C1495 C1493 1.327 . S
C1495 C1511 1.429 . S
C1495 H1517 0.950 . S
C1496 H1492 0.949 . S
C1496 C1504 1.592 . S
C1496 C1512 1.350 1_556 S
H1497 C1505 0.950 . S
H1498 C1503 0.950 . S
H1499 C1504 0.949 . S
H1500 C1506 0.950 . S
H1501 C1507 0.950 . S
H1502 C1508 0.949 . S
C1503 H1498 0.950 . S
C1503 C1505 1.327 . S
C1503 C1509 1.429 . S
C1504 C1496 1.592 . S
C1504 H1499 0.949 . S
C1504 C1510 1.368 1_545 S
C1505 C1489 1.349 . S
C1505 H1497 0.950 . S
C1505 C1503 1.327 . S
C1506 C1494 1.349 . S
C1506 H1500 0.950 . S
C1506 C1507 1.327 . S
C1507 H1501 0.950 . S
C1507 C1506 1.327 . S
C1507 C1511 1.429 . S
C1508 C1491 1.592 . S
C1508 H1502 0.949 . S
C1508 C1512 1.368 1_565 S
C1509 C1490 1.429 . S
C1509 C1503 1.429 . S
C1509 C1510 1.523 . S
C1510 C1491 1.350 1_556 S
C1510 C1504 1.368 1_565 S
C1510 C1509 1.523 . S
C1511 C1495 1.429 . S
C1511 C1507 1.429 . S
C1511 C1512 1.523 . S
C1512 C1496 1.350 1_554 S
C1512 C1508 1.368 1_545 S
C1512 C1511 1.523 . S
H1513 C1488 0.950 . S
H1514 C1490 0.950 . S
H1515 C1491 0.949 . S
H1516 C1493 0.950 . S
H1517 C1495 0.950 . S
C1518 C1519 1.349 . S
C1518 C1520 1.327 . S
C1518 H1543 0.950 . S
C1519 C1518 1.349 . S
C1519 C1535 1.349 . S
C1520 C1518 1.327 . S
C1520 C1539 1.429 . S
C1520 H1544 0.950 . S
C1521 C1538 1.574 . S
C1521 C1540 1.368 . S
C1521 H1545 0.949 . S
H1522 C1526 0.949 . S
C1523 C1524 1.349 . S
C1523 C1525 1.327 . S
C1523 H1546 0.950 . S
C1524 C1523 1.349 . S
C1524 C1536 1.349 . S
C1525 C1523 1.327 . S
C1525 C1541 1.429 . S
C1525 H1547 0.950 . S
C1526 H1522 0.949 . S
C1526 C1534 1.574 . S
C1526 C1542 1.368 . S
H1527 C1535 0.950 . S
H1528 C1533 0.950 . S
H1529 C1534 0.949 . S
H1530 C1536 0.950 . S
H1531 C1537 0.950 . S
H1532 C1538 0.949 . S
C1533 H1528 0.950 . S
C1533 C1535 1.327 . S
C1533 C1539 1.429 . S
C1534 C1526 1.574 . S
C1534 H1529 0.949 . S
C1534 C1540 1.368 . S
C1535 C1519 1.349 . S
C1535 H1527 0.950 . S
C1535 C1533 1.327 . S
C1536 C1524 1.349 . S
C1536 H1530 0.950 . S
C1536 C1537 1.327 . S
C1537 H1531 0.950 . S
C1537 C1536 1.327 . S
C1537 C1541 1.429 . S
C1538 C1521 1.574 . S
C1538 H1532 0.949 . S
C1538 C1542 1.368 . S
C1539 C1520 1.429 . S
C1539 C1533 1.429 . S
C1539 C1540 1.523 . S
C1540 C1521 1.368 . S
C1540 C1534 1.368 . S
C1540 C1539 1.523 . S
C1541 C1525 1.429 . S
C1541 C1537 1.429 . S
C1541 C1542 1.523 . S
C1542 C1526 1.368 . S
C1542 C1538 1.368 . S
C1542 C1541 1.523 . S
H1543 C1518 0.950 . S
H1544 C1520 0.950 . S
H1545 C1521 0.949 . S
H1546 C1523 0.950 . S
H1547 C1525 0.950 . S
C1548 C1549 1.349 1_655 S
C1548 C1550 1.327 . S
C1548 H1573 0.950 . S
C1549 C1548 1.349 1_455 S
C1549 C1565 1.349 . S
C1550 C1548 1.327 . S
C1550 C1569 1.429 1_655 S
C1550 H1574 0.950 . S
C1551 C1568 1.574 1_554 S
C1551 C1570 1.368 . S
C1551 H1575 0.949 . S
H1552 C1556 0.949 . S
C1553 C1554 1.349 1_455 S
C1553 C1555 1.327 . S
C1553 H1576 0.950 . S
C1554 C1553 1.349 1_655 S
C1554 C1566 1.349 . S
C1555 C1553 1.327 . S
C1555 C1571 1.429 1_455 S
C1555 H1577 0.950 . S
C1556 H1552 0.949 . S
C1556 C1564 1.574 1_556 S
C1556 C1572 1.368 . S
H1557 C1565 0.950 . S
H1558 C1563 0.950 . S
H1559 C1564 0.949 . S
H1560 C1566 0.950 . S
H1561 C1567 0.950 . S
H1562 C1568 0.949 . S
C1563 H1558 0.950 . S
C1563 C1565 1.327 . S
C1563 C1569 1.429 . S
C1564 C1556 1.574 1_554 S
C1564 H1559 0.949 . S
C1564 C1570 1.368 1_655 S
C1565 C1549 1.349 . S
C1565 H1557 0.950 . S
C1565 C1563 1.327 . S
C1566 C1554 1.349 . S
C1566 H1560 0.950 . S
C1566 C1567 1.327 . S
C1567 H1561 0.950 . S
C1567 C1566 1.327 . S
C1567 C1571 1.429 . S
C1568 C1551 1.574 1_556 S
C1568 H1562 0.949 . S
C1568 C1572 1.368 1_455 S
C1569 C1550 1.429 1_455 S
C1569 C1563 1.429 . S
C1569 C1570 1.523 . S
C1570 C1551 1.368 . S
C1570 C1564 1.368 1_455 S
C1570 C1569 1.523 . S
C1571 C1555 1.429 1_655 S
C1571 C1567 1.429 . S
C1571 C1572 1.523 . S
C1572 C1556 1.368 . S
C1572 C1568 1.368 1_655 S
C1572 C1571 1.523 . S
H1573 C1548 0.950 . S
H1574 C1550 0.950 . S
H1575 C1551 0.949 . S
H1576 C1553 0.950 . S
H1577 C1555 0.950 . S
C1578 C1579 1.349 . S
C1578 C1580 1.327 . S
C1578 H1603 0.950 . S
C1579 C1578 1.349 . S
C1579 C1595 1.349 1_565 S
C1580 C1578 1.327 . S
C1580 C1599 1.429 . S
C1580 H1604 0.950 . S
C1581 C1598 1.574 . S
C1581 C1600 1.368 1_545 S
C1581 H1605 0.949 . S
H1582 C1586 0.949 . S
C1583 C1584 1.349 . S
C1583 C1585 1.327 . S
C1583 H1606 0.950 . S
C1584 C1583 1.349 . S
C1584 C1596 1.349 1_545 S
C1585 C1583 1.327 . S
C1585 C1601 1.429 . S
C1585 H1607 0.950 . S
C1586 H1582 0.949 . S
C1586 C1594 1.574 . S
C1586 C1602 1.368 1_565 S
H1587 C1595 0.950 . S
H1588 C1593 0.950 . S
H1589 C1594 0.949 . S
H1590 C1596 0.950 . S
H1591 C1597 0.950 . S
H1592 C1598 0.949 . S
C1593 H1588 0.950 . S
C1593 C1595 1.327 . S
C1593 C1599 1.429 1_545 S
C1594 C1586 1.574 . S
C1594 H1589 0.949 . S
C1594 C1600 1.368 1_455 S
C1595 C1579 1.349 1_545 S
C1595 H1587 0.950 . S
C1595 C1593 1.327 . S
C1596 C1584 1.349 1_565 S
C1596 H1590 0.950 . S
C1596 C1597 1.327 . S
C1597 H1591 0.950 . S
C1597 C1596 1.327 . S
C1597 C1601 1.429 1_565 S
C1598 C1581 1.574 . S
C1598 H1592 0.949 . S
C1598 C1602 1.368 1_655 S
C1599 C1580 1.429 . S
C1599 C1593 1.429 1_565 S
C1599 C1600 1.523 . S
C1600 C1581 1.368 1_565 S
C1600 C1594 1.368 1_655 S
C1600 C1599 1.523 . S
C1601 C1585 1.429 . S
C1601 C1597 1.429 1_545 S
C1601 C1602 1.523 . S
C1602 C1586 1.368 1_545 S
C1602 C1598 1.368 1_455 S
C1602 C1601 1.523 . S
H1603 C1578 0.950 . S
H1604 C1580 0.950 . S
H1605 C1581 0.949 . S
H1606 C1583 0.950 . S
H1607 C1585 0.950 . S
C1608 C1609 1.349 . S
C1608 C1610 1.327 . S
C1608 H1633 0.950 . S
C1609 C1608 1.349 . S
C1609 C1625 1.349 . S
C1610 C1608 1.327 . S
C1610 C1629 1.429 . S
C1610 H1634 0.950 . S
C1611 C1628 1.534 1_556 S
C1611 C1630 1.405 . S
C1611 H1635 0.954 . S
H1612 C1616 0.954 . S
C1613 C1614 1.349 . S
C1613 C1615 1.327 . S
C1613 H1636 0.950 . S
C1614 C1613 1.349 . S
C1614 C1626 1.349 . S
C1615 C1613 1.327 . S
C1615 C1631 1.429 . S
C1615 H1637 0.950 . S
C1616 H1612 0.954 . S
C1616 C1624 1.534 1_554 S
C1616 C1632 1.405 . S
H1617 C1625 0.950 . S
H1618 C1623 0.950 . S
H1619 C1624 0.949 . S
H1620 C1626 0.950 . S
H1621 C1627 0.950 . S
H1622 C1628 0.949 . S
C1623 H1618 0.950 . S
C1623 C1625 1.327 . S
C1623 C1629 1.429 . S
C1624 C1616 1.534 1_556 S
C1624 H1619 0.949 . S
C1624 C1630 1.368 . S
C1625 C1609 1.349 . S
C1625 H1617 0.950 . S
C1625 C1623 1.327 . S
C1626 C1614 1.349 . S
C1626 H1620 0.950 . S
C1626 C1627 1.327 . S
C1627 H1621 0.950 . S
C1627 C1626 1.327 . S
C1627 C1631 1.429 . S
C1628 C1611 1.534 1_554 S
C1628 H1622 0.949 . S
C1628 C1632 1.368 . S
C1629 C1610 1.429 . S
C1629 C1623 1.429 . S
C1629 C1630 1.523 . S
C1630 C1611 1.405 . S
C1630 C1624 1.368 . S
C1630 C1629 1.523 . S
C1631 C1615 1.429 . S
C1631 C1627 1.429 . S
C1631 C1632 1.523 . S
C1632 C1616 1.405 . S
C1632 C1628 1.368 . S
C1632 C1631 1.523 . S
H1633 C1608 0.950 . S
H1634 C1610 0.950 . S
H1635 C1611 0.954 . S
H1636 C1613 0.950 . S
H1637 C1615 0.950 . S
C1638 C1639 1.349 . S
C1638 C1640 1.327 . S
C1638 H1663 0.950 . S
C1639 C1638 1.349 . S
C1639 C1655 1.349 . S
C1640 C1638 1.327 . S
C1640 C1659 1.429 . S
C1640 H1664 0.950 . S
C1641 C1658 1.574 . S
C1641 C1660 1.368 . S
C1641 H1665 0.949 . S
H1642 C1646 0.949 . S
C1643 C1644 1.349 . S
C1643 C1645 1.327 . S
C1643 H1666 0.950 . S
C1644 C1643 1.349 . S
C1644 C1656 1.349 . S
C1645 C1643 1.327 . S
C1645 C1661 1.429 . S
C1645 H1667 0.950 . S
C1646 H1642 0.949 . S
C1646 C1654 1.574 . S
C1646 C1662 1.368 . S
H1647 C1655 0.950 . S
H1648 C1653 0.950 . S
H1649 C1654 0.949 . S
H1650 C1656 0.950 . S
H1651 C1657 0.950 . S
H1652 C1658 0.949 . S
C1653 H1648 0.950 . S
C1653 C1655 1.327 . S
C1653 C1659 1.429 . S
C1654 C1646 1.574 . S
C1654 H1649 0.949 . S
C1654 C1660 1.368 1_655 S
C1655 C1639 1.349 . S
C1655 H1647 0.950 . S
C1655 C1653 1.327 . S
C1656 C1644 1.349 . S
C1656 H1650 0.950 . S
C1656 C1657 1.327 . S
C1657 H1651 0.950 . S
C1657 C1656 1.327 . S
C1657 C1661 1.429 . S
C1658 C1641 1.574 . S
C1658 H1652 0.949 . S
C1658 C1662 1.368 1_455 S
C1659 C1640 1.429 . S
C1659 C1653 1.429 . S
C1659 C1660 1.523 . S
C1660 C1641 1.368 . S
C1660 C1654 1.368 1_455 S
C1660 C1659 1.523 . S
C1661 C1645 1.429 . S
C1661 C1657 1.429 . S
C1661 C1662 1.523 . S
C1662 C1646 1.368 . S
C1662 C1658 1.368 1_655 S
C1662 C1661 1.523 . S
H1663 C1638 0.950 . S
H1664 C1640 0.950 . S
H1665 C1641 0.949 . S
H1666 C1643 0.950 . S
H1667 C1645 0.950 . S
C1668 C1669 1.349 . S
C1668 C1670 1.327 . S
C1668 H1693 0.950 . S
C1669 C1668 1.349 . S
C1669 C1685 1.349 . S
C1670 C1668 1.327 . S
C1670 C1689 1.429 . S
C1670 H1694 0.950 . S
C1671 C1688 1.574 1_655 S
C1671 C1690 1.368 1_545 S
C1671 H1695 0.949 . S
H1672 C1676 0.949 . S
C1673 C1674 1.349 . S
C1673 C1675 1.327 . S
C1673 H1696 0.950 . S
C1674 C1673 1.349 . S
C1674 C1686 1.349 . S
C1675 C1673 1.327 . S
C1675 C1691 1.429 . S
C1675 H1697 0.950 . S
C1676 H1672 0.949 . S
C1676 C1684 1.574 1_455 S
C1676 C1692 1.368 1_565 S
H1677 C1685 0.950 . S
H1678 C1683 0.950 . S
H1679 C1684 0.949 . S
H1680 C1686 0.950 . S
H1681 C1687 0.950 . S
H1682 C1688 0.949 . S
C1683 H1678 0.950 . S
C1683 C1685 1.327 . S
C1683 C1689 1.429 . S
C1684 C1676 1.574 1_655 S
C1684 H1679 0.949 . S
C1684 C1690 1.368 1_556 S
C1685 C1669 1.349 . S
C1685 H1677 0.950 . S
C1685 C1683 1.327 . S
C1686 C1674 1.349 . S
C1686 H1680 0.950 . S
C1686 C1687 1.327 . S
C1687 H1681 0.950 . S
C1687 C1686 1.327 . S
C1687 C1691 1.429 . S
C1688 C1671 1.574 1_455 S
C1688 H1682 0.949 . S
C1688 C1692 1.368 1_554 S
C1689 C1670 1.429 . S
C1689 C1683 1.429 . S
C1689 C1690 1.523 . S
C1690 C1671 1.368 1_565 S
C1690 C1684 1.368 1_554 S
C1690 C1689 1.523 . S
C1691 C1675 1.429 . S
C1691 C1687 1.429 . S
C1691 C1692 1.523 . S
C1692 C1676 1.368 1_545 S
C1692 C1688 1.368 1_556 S
C1692 C1691 1.523 . S
H1693 C1668 0.950 . S
H1694 C1670 0.950 . S
H1695 C1671 0.949 . S
H1696 C1673 0.950 . S
H1697 C1675 0.950 . S
C1698 C1699 1.349 . S
C1698 C1700 1.327 . S
C1698 H1723 0.950 . S
C1699 C1698 1.349 . S
C1699 C1715 1.349 1_545 S
C1700 C1698 1.327 . S
C1700 C1719 1.429 . S
C1700 H1724 0.950 . S
C1701 C1718 1.574 . S
C1701 C1720 1.368 1_565 S
C1701 H1725 0.949 . S
H1702 C1706 0.949 . S
C1703 C1704 1.349 . S
C1703 C1705 1.327 . S
C1703 H1726 0.950 . S
C1704 C1703 1.349 . S
C1704 C1716 1.349 1_565 S
C1705 C1703 1.327 . S
C1705 C1721 1.429 . S
C1705 H1727 0.950 . S
C1706 H1702 0.949 . S
C1706 C1714 1.574 . S
C1706 C1722 1.368 1_545 S
H1707 C1715 0.950 . S
H1708 C1713 0.950 . S
H1709 C1714 0.949 . S
H1710 C1716 0.950 . S
H1711 C1717 0.950 . S
H1712 C1718 0.949 . S
C1713 H1708 0.950 . S
C1713 C1715 1.327 . S
C1713 C1719 1.429 1_565 S
C1714 C1706 1.574 . S
C1714 H1709 0.949 . S
C1714 C1720 1.368 . S
C1715 C1699 1.349 1_565 S
C1715 H1707 0.950 . S
C1715 C1713 1.327 . S
C1716 C1704 1.349 1_545 S
C1716 H1710 0.950 . S
C1716 C1717 1.327 . S
C1717 H1711 0.950 . S
C1717 C1716 1.327 . S
C1717 C1721 1.429 1_545 S
C1718 C1701 1.574 . S
C1718 H1712 0.949 . S
C1718 C1722 1.368 . S
C1719 C1700 1.429 . S
C1719 C1713 1.429 1_545 S
C1719 C1720 1.523 . S
C1720 C1701 1.368 1_545 S
C1720 C1714 1.368 . S
C1720 C1719 1.523 . S
C1721 C1705 1.429 . S
C1721 C1717 1.429 1_565 S
C1721 C1722 1.523 . S
C1722 C1706 1.368 1_565 S
C1722 C1718 1.368 . S
C1722 C1721 1.523 . S
H1723 C1698 0.950 . S
H1724 C1700 0.950 . S
H1725 C1701 0.949 . S
H1726 C1703 0.950 . S
H1727 C1705 0.950 . S
C529 C17 1.529 . S
C534 C248 1.529 . S
C559 C149 1.529 . S
C564 C50 1.529 . S
C589 C83 1.529 . S
C594 C182 1.529 . S
C619 C116 1.529 . S
C624 C215 1.529 . S
C649 C281 1.529 . S
C654 C512 1.529 . S
C679 C314 1.529 . S
C684 C413 1.529 . S
C709 C347 1.529 . S
C714 C446 1.529 . S
C739 C479 1.529 . S
C744 C380 1.529 . S
C769 C8 2.178 . S
C774 C74 2.178 . S
C799 C107 2.178 . S
C804 C41 2.178 . S
C829 C206 2.178 . S
C834 C140 2.178 . S
C859 C173 2.178 . S
C864 C239 2.178 . S
C889 C338 2.178 . S
C894 C272 2.178 . S
C919 C371 2.178 . S
C924 C305 2.178 . S
C949 C470 2.178 . S
C954 C404 2.178 . S
C979 C503 2.178 . S
C984 C437 2.178 . S
C1009 N410 0.521 . S
C1014 N5 0.486 . S
C1039 N443 0.521 . S
C1044 N38 0.486 . S
C1069 N71 0.486 . S
C1074 N476 0.521 1_455 S
C1099 N509 0.521 1_545 S
C1104 N104 0.486 . S
C1129 N137 0.486 . S
C1134 N278 0.521 . S
C1159 N311 0.521 . S
C1164 N170 0.486 . S
C1189 N203 0.486 . S
C1194 N344 0.521 1_455 S
C1219 N236 0.486 . S
C1224 N377 0.521 1_545 S
C1249 N146 0.521 . S
C1254 N269 0.486 . S
C1279 N179 0.521 . S
C1284 N302 0.486 . S
C1309 N212 0.521 1_655 S
C1314 N335 0.486 . S
C1339 N245 0.521 1_565 S
C1344 N368 0.486 . S
C1369 N14 0.521 . S
C1374 N401 0.486 . S
C1399 N47 0.521 . S
C1404 N434 0.486 . S
C1429 N80 0.521 1_655 S
C1434 N467 0.486 . S
C1459 N500 0.486 . S
C1464 N113 0.521 1_565 S
C1489 C292 1.582 . S
C1494 C28 1.582 . S
C1519 C61 1.582 . S
C1524 C325 1.582 . S
C1549 C94 1.582 . S
C1554 C358 1.582 . S
C1579 C391 1.582 . S
C1584 C127 1.582 . S
C1609 C160 1.582 . S
C1614 C424 1.582 . S
C1639 C193 1.582 . S
C1644 C457 1.582 . S
C1669 C490 1.582 . S
C1674 C226 1.582 . S
C1699 C259 1.582 . S
C1704 C523 1.582 . S
