# Generated by pormake.
# Topology ukg, (4)-cn, num edge types: 1
# Building blocks:
#     Node 0, Type 0, BuildingBlock: ESEHIV_clean_sbu_0, # of connection points: 4
#     Node 1, Type 0, BuildingBlock: ESEHIV_clean_sbu_0, # of connection points: 4
#     Node 2, Type 0, BuildingBlock: ESEHIV_clean_sbu_0, # of connection points: 4
#     Node 3, Type 0, BuildingBlock: ESEHIV_clean_sbu_0, # of connection points: 4
#     Node 4, Type 0, BuildingBlock: ESEHIV_clean_sbu_0, # of connection points: 4
#     Node 5, Type 0, BuildingBlock: ESEHIV_clean_sbu_0, # of connection points: 4
#     Node 6, Type 0, BuildingBlock: ESEHIV_clean_sbu_0, # of connection points: 4
#     Node 7, Type 0, BuildingBlock: ESEHIV_clean_sbu_0, # of connection points: 4
#     Edge 8, Type (0, 0), BuildingBlock: AJUNOK_clean_linker_0, # of connection points: 2
#     Edge 9, Type (0, 0), BuildingBlock: AJUNOK_clean_linker_0, # of connection points: 2
#     Edge 10, Type (0, 0), BuildingBlock: AJUNOK_clean_linker_0, # of connection points: 2
#     Edge 11, Type (0, 0), BuildingBlock: AJUNOK_clean_linker_0, # of connection points: 2
#     Edge 12, Type (0, 0), BuildingBlock: AJUNOK_clean_linker_0, # of connection points: 2
#     Edge 13, Type (0, 0), BuildingBlock: AJUNOK_clean_linker_0, # of connection points: 2
#     Edge 14, Type (0, 0), BuildingBlock: AJUNOK_clean_linker_0, # of connection points: 2
#     Edge 15, Type (0, 0), BuildingBlock: AJUNOK_clean_linker_0, # of connection points: 2
#     Edge 16, Type (0, 0), BuildingBlock: AJUNOK_clean_linker_0, # of connection points: 2
#     Edge 17, Type (0, 0), BuildingBlock: AJUNOK_clean_linker_0, # of connection points: 2
#     Edge 18, Type (0, 0), BuildingBlock: AJUNOK_clean_linker_0, # of connection points: 2
#     Edge 19, Type (0, 0), BuildingBlock: AJUNOK_clean_linker_0, # of connection points: 2
#     Edge 20, Type (0, 0), BuildingBlock: AJUNOK_clean_linker_0, # of connection points: 2
#     Edge 21, Type (0, 0), BuildingBlock: AJUNOK_clean_linker_0, # of connection points: 2
#     Edge 22, Type (0, 0), BuildingBlock: AJUNOK_clean_linker_0, # of connection points: 2
#     Edge 23, Type (0, 0), BuildingBlock: AJUNOK_clean_linker_0, # of connection points: 2
# Relax obj value: 0.138
# Max RMSD: 0.198
# Mean RMSD: 0.179
data_MOF--net-ukg--node1-ESEHIV_clean_sbu_0--edge1-AJUNOK_clean_linker_0
_symmetry_space_group_name_H-M    P1
_symmetry_Int_Tables_number       1
_symmetry_cell_setting            triclinic
loop_
_symmetry_equiv_pos_as_xyz
'x, y, z'
_cell_length_a     23.573046
_cell_length_b     22.899631
_cell_length_c     31.766367
_cell_angle_alpha  90.976088
_cell_angle_beta   91.047372
_cell_angle_gamma 89.892444
loop_
_atom_site_label
_atom_site_type_symbol
_atom_site_fract_x
_atom_site_fract_y
_atom_site_fract_z
_atom_type_partial_charge
Cu0 Cu 0.08082 0.6897 0.20422 0.0
N1 N 1.03315 0.75362 0.21639 0.0
N2 N 0.97621 0.81223 0.25389 0.0
C3 C 1.00537 0.76152 0.25291 0.0
C4 C 0.98561 0.8372 0.21649 0.0
C5 C 1.02064 0.801 0.19343 0.0
O6 O 0.05293 0.63055 0.24261 0.0
C7 C 0.17797 0.7582 0.1893 0.0
O8 O 0.14291 0.77886 0.16063 0.0
H9 H 1.00779 0.73146 0.27882 0.0
H10 H 1.03624 0.80919 0.16231 0.0
N11 N 0.06844 0.6595 0.14922 0.0
N12 N 0.05901 0.59348 0.09627 0.0
C13 C 0.08349 0.60606 0.13432 0.0
C14 C 1.03301 0.68126 0.11978 0.0
C15 C 1.02691 0.64089 0.08744 0.0
C16 C 1.00199 0.61385 0.23452 0.0
O17 O 0.97701 0.63283 0.2001 0.0
H18 H 0.11 0.57612 0.15191 0.0
H19 H 1.00987 0.7218 0.12287 0.0
O20 O 0.16079 0.71611 0.21189 0.0
H21 H 0.96848 0.87877 0.20659 0.0
H22 H 0.99779 0.64496 0.06098 0.0
Cu23 Cu 0.35935 0.58636 0.63897 0.0
N24 N 0.29065 0.54904 0.64841 0.0
N25 N 0.22455 0.50666 0.68658 0.0
C26 C 0.27606 0.53175 0.68681 0.0
C27 C 0.20541 0.50817 0.64638 0.0
C28 C 0.24639 0.53479 0.62277 0.0
O29 O 0.4124 0.54927 0.67907 0.0
C30 C 0.30026 0.69499 0.64088 0.0
O31 O 0.26341 0.66428 0.61839 0.0
H32 H 0.30291 0.53758 0.71458 0.0
H33 H 0.24329 0.54444 0.58962 0.0
N34 N 0.38357 0.57116 0.58371 0.0
N35 N 0.43873 0.56629 0.52693 0.0
C36 C 0.43044 0.59163 0.56522 0.0
C37 C 0.36202 0.53107 0.55634 0.0
C38 C 0.39571 0.5281 0.52141 0.0
C39 C 0.41738 0.49353 0.67868 0.0
O40 O 0.39089 0.46354 0.64872 0.0
H41 H 0.45968 0.62174 0.58073 0.0
H42 H 0.32613 0.50335 0.56217 0.0
O43 O 0.34741 0.67088 0.65134 0.0
H44 H 0.16429 0.49294 0.63523 0.0
H45 H 0.39007 0.49866 0.49464 0.0
Cu46 Cu 0.50276 0.93097 0.17491 0.0
N47 N 0.55481 0.87079 0.18541 0.0
N48 N 0.61845 0.82021 0.22325 0.0
C49 C 0.57735 0.86122 0.22398 0.0
C50 C 0.62129 0.80245 0.18259 0.0
C51 C 0.58234 0.83418 0.1592 0.0
O52 O 0.53146 0.99223 0.21378 0.0
C53 C 0.41107 0.85143 0.19609 0.0
O54 O 0.452 0.81377 0.20335 0.0
H55 H 0.56375 0.88429 0.25205 0.0
H56 H 0.57574 0.83164 0.12547 0.0
N57 N 0.50597 0.95753 0.11885 0.0
N58 N 0.50355 1.01692 0.06303 0.0
C59 C 0.50537 1.0134 0.10568 0.0
C60 C 0.50457 0.92467 0.0833 0.0
C61 C 0.50355 0.96098 0.049 0.0
C62 C 0.58331 1.00706 0.20918 0.0
O63 O 0.60941 0.98767 0.17552 0.0
H64 H 0.50602 1.05064 0.12709 0.0
H65 H 0.50267 0.8775 0.08233 0.0
O66 O 0.42417 0.90352 0.18562 0.0
H67 H 0.65039 0.76991 0.17049 0.0
H68 H 0.50088 0.94724 1.01625 0.0
Cu69 Cu 0.16467 1.03799 0.6865 0.0
N70 N 0.21951 0.09298 0.70461 0.0
N71 N 0.25494 0.16774 0.74318 0.0
C72 C 0.21839 0.12265 0.74164 0.0
C73 C 0.28125 0.16614 0.70581 0.0
C74 C 0.25902 0.12024 0.68198 0.0
O75 O 0.09948 0.05648 0.72222 0.0
C76 C 0.24129 0.93925 0.68095 0.0
O77 O 0.27976 0.97881 0.67309 0.0
H78 H 0.18957 0.11359 0.76655 0.0
H79 H 0.26947 0.10916 0.64985 0.0
N80 N 0.14619 1.05125 0.6295 0.0
N81 N 0.09833 0.0669 0.56893 0.0
C82 C 0.09527 0.0631 0.61142 0.0
C83 C 0.18255 1.04751 0.59737 0.0
C84 C 0.1534 0.05746 0.56015 0.0
C85 C 0.10093 1.04733 0.7618 0.0
O86 O 0.14002 1.01186 0.77667 0.0
H87 H 0.05649 0.0674 0.62895 0.0
H88 H 0.22723 1.03752 0.60071 0.0
O89 O 0.1911 0.95612 0.69004 0.0
H90 H 0.31388 0.19605 0.69623 0.0
H91 H 0.17161 0.05815 0.52916 0.0
Cu92 Cu 1.02175 0.34265 0.91307 0.0
N93 N 0.95387 0.37349 0.89184 0.0
N94 N 0.86261 0.39996 0.89142 0.0
C95 C 0.90225 0.36381 0.90774 0.0
C96 C 0.89043 0.43398 0.86439 0.0
C97 C 0.94677 0.41784 0.86494 0.0
O98 O 1.01933 0.36957 0.97185 0.0
C99 C 1.01249 0.24402 0.8601 0.0
O100 O 0.98632 0.283 0.8369 0.0
H101 H 0.89437 0.3323 0.93197 0.0
H102 H 0.98051 0.43946 0.84878 0.0
N103 N 0.08231 0.37971 0.8878 0.0
N104 N 0.13675 0.41771 0.83866 0.0
C105 C 0.08849 0.38863 0.84637 0.0
C106 C 0.12863 0.40331 0.9067 0.0
C107 C 0.16217 0.4269 0.87652 0.0
C108 C 0.05805 0.37497 1.00013 0.0
O109 O 0.10396 0.34256 0.99822 0.0
H110 H 0.05722 0.37602 0.82261 0.0
H111 H 0.13735 0.4046 0.94009 0.0
O112 O 1.02853 0.25912 0.89748 0.0
H113 H 0.87209 0.47005 0.84724 0.0
H114 H 0.20187 0.44973 0.882 0.0
Cu115 Cu 0.75581 0.57174 0.41186 0.0
N116 N 0.78072 0.52971 0.45875 0.0
N117 N 0.78479 0.44786 0.49618 0.0
C118 C 0.76067 0.47534 0.46335 0.0
C119 C 0.82196 0.48675 0.51336 0.0
C120 C 0.81904 0.53772 0.49028 0.0
O121 O 0.67336 0.56105 0.41225 0.0
C122 C 0.85277 0.54955 0.36887 0.0
O123 O 0.8721 0.56587 0.40628 0.0
H124 H 0.73055 0.4552 0.44145 0.0
H125 H 0.84426 0.57672 0.49526 0.0
N126 N 0.76518 0.65295 0.40832 0.0
N127 N 0.73808 0.72773 0.36744 0.0
C128 C 0.7617 0.67405 0.36903 0.0
C129 C 0.74619 0.69667 0.43326 0.0
C130 C 0.72942 0.74269 0.40817 0.0
C131 C 0.65298 0.57967 0.44703 0.0
O132 O 0.68789 0.59936 0.47658 0.0
H133 H 0.76889 0.64679 0.34154 0.0
H134 H 0.7379 0.69307 0.46644 0.0
O135 O 0.79917 0.54289 0.36391 0.0
H136 H 0.8499 0.47865 0.54005 0.0
H137 H 0.70605 0.78062 0.41894 0.0
Cu138 Cu 0.48633 0.31098 0.90124 0.0
N139 N 0.54164 0.35655 0.92853 0.0
N140 N 0.62888 0.39323 0.93488 0.0
C141 C 0.59437 0.3564 0.91345 0.0
C142 C 0.59714 0.41707 0.96565 0.0
C143 C 0.5426 0.39462 0.96138 0.0
O144 O 0.49502 0.23075 0.92302 0.0
C145 C 0.49646 0.38216 0.83288 0.0
O146 O 0.49442 0.41915 0.86489 0.0
H147 H 0.60705 0.32985 0.88668 0.0
H148 H 0.50641 0.40563 0.98042 0.0
N149 N 0.41006 0.33167 0.90861 0.0
N150 N 0.32344 0.31368 0.88071 0.0
C151 C 0.37675 0.33157 0.87376 0.0
C152 C 0.37536 0.31622 0.93976 0.0
C153 C 0.32199 0.30507 0.92262 0.0
C154 C 0.4945 0.22789 0.96328 0.0
O155 O 0.49286 0.27697 0.98517 0.0
H156 H 0.39391 0.33225 0.84253 0.0
H157 H 0.38928 0.3047 0.97111 0.0
O158 O 0.49726 0.32732 0.84083 0.0
H159 H 0.6119 0.44916 0.98872 0.0
H160 H 0.28749 0.28436 0.9387 0.0
Cu161 Cu 0.80366 0.07224 0.41522 0.0
N162 N 0.76544 0.11876 0.45482 0.0
N163 N 0.75301 0.20244 0.49086 0.0
C164 C 0.78322 0.17393 0.46149 0.0
C165 C 0.71318 0.16409 0.50278 0.0
C166 C 0.72147 0.11183 0.4808 0.0
O167 O 0.88416 0.08861 0.42815 0.0
C168 C 0.71594 0.07872 0.35785 0.0
O169 O 0.69055 0.06471 0.39271 0.0
H170 H 0.81751 0.19322 0.4443 0.0
H171 H 0.697 0.07217 0.48331 0.0
N172 N 0.80087 0.99064 0.41602 0.0
N173 N 0.8404 0.91219 0.3849 0.0
C174 C 0.81445 0.96398 0.37947 0.0
C175 C 0.8173 0.95303 0.4461 0.0
C176 C 0.84149 0.90437 0.42688 0.0
C177 C 0.89577 0.08381 0.46753 0.0
O178 O 0.85502 0.06971 0.49304 0.0
H179 H 0.81385 0.98643 0.34975 0.0
H180 H 0.81931 0.96341 0.47941 0.0
O181 O 0.76928 0.08939 0.35988 0.0
H182 H 0.68062 0.17319 0.52557 0.0
H183 H 0.8647 0.87003 0.4427 0.0
C184 C 0.07061 0.43181 0.06873 0.0
C185 C 0.05925 0.43051 1.02511 0.0
C186 C 0.0711 0.48508 0.09184 0.0
C187 C 0.06149 0.53914 0.07199 0.0
H188 H 0.07793 0.39138 0.08521 0.0
H189 H 0.07798 0.48369 0.12556 0.0
S190 S 0.03898 0.55922 0.95697 0.0
N191 N 0.0428 0.48782 0.96244 0.0
N192 N 0.04709 0.58726 1.00488 0.0
C193 C 0.05292 0.53809 1.02795 0.0
C194 C 0.05102 0.48407 1.0048 0.0
C195 C 0.51038 0.52308 0.4792 0.0
C196 C 0.48745 0.57224 0.50037 0.0
C197 C 0.562 0.52653 0.45778 0.0
C198 C 0.59208 0.57929 0.45674 0.0
H199 H 0.49014 0.48089 0.48132 0.0
H200 H 0.58038 0.48693 0.44474 0.0
S201 S 0.54619 0.7223 0.50087 0.0
N202 N 0.49557 0.67662 0.51392 0.0
N203 N 0.59272 0.68281 0.4745 0.0
C204 C 0.56767 0.6294 0.47511 0.0
C205 C 0.51535 0.62598 0.49675 0.0
C206 C 0.5254 0.07113 0.99777 0.0
C207 C 0.49928 0.06882 1.03744 0.0
C208 C 0.5223 0.12163 0.97282 0.0
C209 C 0.49304 0.17182 0.98666 0.0
H210 H 0.54953 1.03404 0.98635 0.0
H211 H 0.54441 0.12198 0.94324 0.0
S212 S 0.41022 0.18545 0.08486 0.0
N213 N 0.43802 0.11934 0.08674 0.0
N214 N 0.43281 0.21371 1.04078 0.0
C215 C 0.46492 0.16906 1.02543 0.0
C216 C 0.46791 0.11787 0.05058 0.0
C217 C 0.95836 0.12 0.52556 0.0
C218 C 0.9532 0.09044 0.48646 0.0
C219 C 1.00675 0.1139 0.55141 0.0
C220 C 0.052 0.07757 0.53945 0.0
H221 H 0.92326 0.14578 0.53733 0.0
H222 H 1.00797 0.13644 0.58164 0.0
S223 S 0.05987 0.9916 0.4393 0.0
N224 N 0.99793 1.02525 0.43614 0.0
N225 N 0.08903 1.01285 0.48471 0.0
C226 C 0.04857 1.04984 0.49937 0.0
C227 C 0.99913 0.05653 0.47287 0.0
C228 C 0.28179 0.75251 0.21169 0.0
C229 C 0.23632 0.78426 0.19405 0.0
C230 C 0.33752 0.77515 0.21301 0.0
C231 C 0.35044 0.83096 0.19728 0.0
H232 H 0.27467 0.70908 0.22348 0.0
H233 H 0.37096 0.74805 0.22603 0.0
S234 S 0.24575 0.93411 0.1511 0.0
N235 N 0.20773 0.87632 0.1627 0.0
N236 N 0.31157 0.91847 0.16554 0.0
C237 C 0.30491 0.86399 0.18101 0.0
C238 C 0.24831 0.84078 0.17929 0.0
C239 C 0.32705 0.79854 0.66297 0.0
C240 C 0.28508 0.75612 0.65433 0.0
C241 C 0.31252 0.85711 0.67253 0.0
C242 C 0.25538 0.8757 0.67472 0.0
H243 H 0.37149 0.78688 0.66108 0.0
H244 H 0.34654 0.88827 0.67774 0.0
S245 S 0.12917 0.78073 0.65802 0.0
N246 N 0.18363 0.73652 0.65084 0.0
N247 N 0.15675 0.84545 0.66924 0.0
C248 C 0.21311 0.83313 0.66773 0.0
C249 C 0.22783 0.77383 0.65742 0.0
C250 C 0.73006 0.39641 0.95585 0.0
C251 C 0.6872 0.40369 0.92514 0.0
C252 C 0.78751 0.39611 0.94476 0.0
C253 C 0.80378 0.40381 0.90272 0.0
H254 H 0.71894 0.38822 0.98813 0.0
H255 H 0.81941 0.38913 0.96911 0.0
S256 S 0.707 0.42828 0.81135 0.0
N257 N 0.66444 0.4219 0.85172 0.0
N258 N 0.77205 0.42106 0.83077 0.0
C259 C 0.76114 0.41349 0.87216 0.0
C260 C 0.70292 0.41346 0.88341 0.0
C261 C 0.72178 0.36241 0.5014 0.0
C262 C 0.77655 0.3869 0.50522 0.0
C263 C 0.71356 0.30161 0.50031 0.0
C264 C 0.75996 0.26319 0.50244 0.0
H265 H 0.68529 0.39061 0.49702 0.0
H266 H 0.67121 0.28462 0.4947 0.0
S267 S 0.91108 0.30442 0.51768 0.0
N268 N 0.87721 0.36753 0.51508 0.0
N269 N 0.86176 0.25347 0.51306 0.0
C270 C 0.81441 0.28701 0.50931 0.0
C271 C 0.82274 0.34882 0.51077 0.0
C272 C 0.95014 0.56413 0.34058 0.0
C273 C 0.89198 0.55273 0.33268 0.0
C274 C 0.98665 0.57997 0.30828 0.0
C275 C 0.96668 0.58484 0.26656 0.0
H276 H 0.96728 0.56386 0.37245 0.0
H277 H 1.03001 0.59156 0.31657 0.0
S278 S 0.82047 0.5499 0.22772 0.0
N279 N 0.81799 0.54063 0.27906 0.0
N280 N 0.88638 0.56915 0.21818 0.0
C281 C 0.90978 0.56862 0.25761 0.0
C282 C 0.87253 0.55283 0.29064 0.0
C283 C 0.47103 0.49446 0.74787 0.0
C284 C 0.44561 0.46229 0.71453 0.0
C285 C 0.49094 0.46711 0.78451 0.0
C286 C 0.48614 0.40622 0.78992 0.0
H287 H 0.47386 0.54158 0.74643 0.0
H288 H 0.50821 0.49466 0.80965 0.0
S289 S 0.42951 0.30047 0.71016 0.0
N290 N 0.42218 0.36463 0.68767 0.0
N291 N 0.45857 0.3139 0.757 0.0
C292 C 0.4641 0.37289 0.75589 0.0
C293 C 0.44405 0.40073 0.71822 0.0
C294 C 0.59131 1.04969 0.28268 0.0
C295 C 0.61719 1.03518 0.24437 0.0
C296 C 0.6236 0.06748 0.31824 0.0
C297 C 0.68335 0.07158 0.31731 0.0
H298 H 0.54588 1.04505 0.28586 0.0
H299 H 0.60144 0.07583 0.34731 0.0
S300 S 0.7721 1.04329 0.22401 0.0
N301 N 0.70664 1.03044 0.20697 0.0
N302 N 0.76672 0.06316 0.27396 0.0
C303 C 0.70962 0.06041 0.27869 0.0
C304 C 0.67675 1.04234 0.24229 0.0
C305 C 1.0067 0.17245 0.79938 0.0
C306 C 1.0293 0.18727 0.83964 0.0
C307 C 1.0277 0.12511 0.77556 0.0
C308 C 0.07207 0.08977 0.79089 0.0
H309 H 0.97376 0.19909 0.78518 0.0
H310 H 1.01033 0.11755 0.74413 0.0
S311 S 0.14394 0.10702 0.89569 0.0
N312 N 0.09685 0.16045 0.89464 0.0
N313 N 0.1359 0.0712 0.85044 0.0
C314 C 0.09301 0.10199 0.83215 0.0
C315 C 0.07178 0.15066 0.85633 0.0
C316 C 0.18088 0.49542 0.79845 0.0
C317 C 0.15476 0.44041 0.79923 0.0
C318 C 0.2014 0.51763 0.76109 0.0
C319 C 0.19642 0.48582 0.72303 0.0
H320 H 0.18577 0.52145 0.82705 0.0
H321 H 0.22211 0.55981 0.76202 0.0
S322 S 0.13213 0.3393 0.70808 0.0
N323 N 0.12515 0.35428 0.75878 0.0
N324 N 0.16329 0.39683 0.688 0.0
C325 C 0.16884 0.43155 0.72292 0.0
C326 C 0.1482 0.40856 0.76121 0.0
C327 C 0.69329 0.71679 0.29627 0.0
C328 C 0.71145 0.75308 0.33037 0.0
C329 C 0.66433 0.73925 0.26118 0.0
C330 C 0.65134 0.79888 0.25863 0.0
H331 H 0.69952 0.67006 0.29693 0.0
H332 H 0.65025 0.70929 0.23642 0.0
S333 S 0.69208 0.91384 0.33705 0.0
N334 N 0.71668 0.85284 0.35762 0.0
N335 N 0.66152 0.89478 0.29175 0.0
C336 C 0.67003 0.83612 0.29178 0.0
C337 C 0.7001 0.81331 0.32755 0.0
C338 C 0.27403 0.22514 0.85418 0.0
C339 C 0.29067 0.28341 0.84831 0.0
C340 C 0.26028 0.1884 0.81973 0.0
C341 C 0.26309 0.20827 0.77809 0.0
H342 H 0.27609 0.20633 0.88519 0.0
H343 H 0.25081 0.14306 0.82564 0.0
S344 S 0.29319 0.36014 0.74657 0.0
N345 N 0.30038 0.36164 0.79837 0.0
N346 N 0.27539 0.29239 0.7335 0.0
C347 C 0.27478 0.26769 0.77205 0.0
C348 C 0.28795 0.30529 0.80719 0.0
C349 C 0.90531 0.80201 0.31023 0.0
C350 C 0.94446 0.83638 0.28851 0.0
C351 C 0.87219 0.82633 0.34271 0.0
C352 C 0.87765 0.88553 0.35456 0.0
H353 H 0.89923 0.7566 0.30122 0.0
H354 H 0.84122 0.79934 0.35787 0.0
S355 S 0.98007 0.99119 0.312 0.0
N356 N 0.99044 0.9307 0.28414 0.0
N357 N 0.92936 0.9759 0.34522 0.0
C358 C 0.91861 0.91926 0.33444 0.0
C359 C 0.95167 0.89484 0.30138 0.0
loop_
_geom_bond_atom_site_label_1
_geom_bond_atom_site_label_2
_geom_bond_distance
_geom_bond_site_symmetry_2
_ccdc_geom_bond_type
Cu0 N1 1.999 . S
Cu0 O6 1.974 . S
Cu0 N11 1.985 1_655 S
Cu0 O20 1.959 1_655 S
N1 Cu0 1.999 . S
N1 C3 1.263 . S
N1 C5 1.389 . S
N2 C3 1.358 . S
N2 C4 1.400 . S
C3 N1 1.263 . S
C3 N2 1.358 . S
C3 H9 0.930 . S
C4 N2 1.400 . S
C4 C5 1.351 . S
C4 H21 0.930 . S
C5 N1 1.389 . S
C5 C4 1.351 . S
C5 H10 0.930 1_655 S
O6 Cu0 1.974 . S
O6 C16 1.282 . S
C7 O8 1.261 . S
C7 O20 1.251 . S
O8 C7 1.261 . S
H9 C3 0.930 . S
H10 C5 0.930 1_455 S
N11 Cu0 1.985 1_455 S
N11 C13 1.335 . S
N11 C14 1.390 1_455 S
N12 C13 1.345 . S
N12 C15 1.336 . S
C13 N11 1.335 . S
C13 N12 1.345 . S
C13 H18 0.930 . S
C14 N11 1.390 1_655 S
C14 C15 1.346 1_655 S
C14 H19 0.930 . S
C15 N12 1.336 . S
C15 C14 1.346 1_455 S
C15 H22 0.929 1_455 S
C16 O6 1.282 . S
C16 O17 1.216 . S
O17 C16 1.216 . S
H18 C13 0.930 . S
H19 C14 0.930 . S
O20 Cu0 1.959 1_455 S
O20 C7 1.251 . S
H21 C4 0.930 . S
H22 C15 0.929 1_655 S
Cu23 N24 1.999 . S
Cu23 O29 1.974 . S
Cu23 N34 1.985 . S
Cu23 O43 1.959 . S
N24 Cu23 1.999 . S
N24 C26 1.263 . S
N24 C28 1.389 . S
N25 C26 1.358 . S
N25 C27 1.400 . S
C26 N24 1.263 . S
C26 N25 1.358 . S
C26 H32 0.930 . S
C27 N25 1.400 . S
C27 C28 1.351 . S
C27 H44 0.930 . S
C28 N24 1.389 . S
C28 C27 1.351 . S
C28 H33 0.930 . S
O29 Cu23 1.974 . S
O29 C39 1.282 . S
C30 O31 1.261 . S
C30 O43 1.251 . S
O31 C30 1.261 . S
H32 C26 0.930 . S
H33 C28 0.930 . S
N34 Cu23 1.985 . S
N34 C36 1.335 . S
N34 C37 1.390 . S
N35 C36 1.345 . S
N35 C38 1.336 . S
C36 N34 1.335 . S
C36 N35 1.345 . S
C36 H41 0.930 . S
C37 N34 1.390 . S
C37 C38 1.346 . S
C37 H42 0.930 . S
C38 N35 1.336 . S
C38 C37 1.346 . S
C38 H45 0.929 . S
C39 O29 1.282 . S
C39 O40 1.216 . S
O40 C39 1.216 . S
H41 C36 0.930 . S
H42 C37 0.930 . S
O43 Cu23 1.959 . S
O43 C30 1.251 . S
H44 C27 0.930 . S
H45 C38 0.929 . S
Cu46 N47 1.999 . S
Cu46 O52 1.974 . S
Cu46 N57 1.985 . S
Cu46 O66 1.959 . S
N47 Cu46 1.999 . S
N47 C49 1.263 . S
N47 C51 1.389 . S
N48 C49 1.358 . S
N48 C50 1.400 . S
C49 N47 1.263 . S
C49 N48 1.358 . S
C49 H55 0.930 . S
C50 N48 1.400 . S
C50 C51 1.351 . S
C50 H67 0.930 . S
C51 N47 1.389 . S
C51 C50 1.351 . S
C51 H56 0.930 . S
O52 Cu46 1.974 . S
O52 C62 1.282 . S
C53 O54 1.261 . S
C53 O66 1.251 . S
O54 C53 1.261 . S
H55 C49 0.930 . S
H56 C51 0.930 . S
N57 Cu46 1.985 . S
N57 C59 1.335 . S
N57 C60 1.390 . S
N58 C59 1.345 . S
N58 C61 1.336 1_565 S
C59 N57 1.335 . S
C59 N58 1.345 . S
C59 H64 0.930 . S
C60 N57 1.390 . S
C60 C61 1.346 1_565 S
C60 H65 0.930 . S
C61 N58 1.336 1_545 S
C61 C60 1.346 1_545 S
C61 H68 0.929 . S
C62 O52 1.282 . S
C62 O63 1.216 . S
O63 C62 1.216 . S
H64 C59 0.930 . S
H65 C60 0.930 . S
O66 Cu46 1.959 . S
O66 C53 1.251 . S
H67 C50 0.930 . S
H68 C61 0.929 . S
Cu69 N70 1.999 . S
Cu69 O75 1.974 . S
Cu69 N80 1.985 1_545 S
Cu69 O89 1.959 1_545 S
N70 Cu69 1.999 . S
N70 C72 1.263 . S
N70 C74 1.389 . S
N71 C72 1.358 . S
N71 C73 1.400 . S
C72 N70 1.263 . S
C72 N71 1.358 . S
C72 H78 0.930 . S
C73 N71 1.400 . S
C73 C74 1.351 . S
C73 H90 0.930 . S
C74 N70 1.389 . S
C74 C73 1.351 . S
C74 H79 0.930 1_545 S
O75 Cu69 1.974 . S
O75 C85 1.282 . S
C76 O77 1.261 . S
C76 O89 1.251 . S
O77 C76 1.261 . S
H78 C72 0.930 . S
H79 C74 0.930 1_565 S
N80 Cu69 1.985 1_565 S
N80 C82 1.335 . S
N80 C83 1.390 1_565 S
N81 C82 1.345 . S
N81 C84 1.336 1_455 S
C82 N80 1.335 . S
C82 N81 1.345 . S
C82 H87 0.930 . S
C83 N80 1.390 1_545 S
C83 C84 1.346 1_445 S
C83 H88 0.930 . S
C84 N81 1.336 1_655 S
C84 C83 1.346 1_665 S
C84 H91 0.929 1_565 S
C85 O75 1.282 . S
C85 O86 1.216 . S
O86 C85 1.216 . S
H87 C82 0.930 . S
H88 C83 0.930 . S
O89 Cu69 1.959 1_565 S
O89 C76 1.251 . S
H90 C73 0.930 . S
H91 C84 0.929 1_545 S
Cu92 N93 1.999 . S
Cu92 O98 1.974 . S
Cu92 N103 1.985 1_655 S
Cu92 O112 1.960 . S
N93 Cu92 1.999 . S
N93 C95 1.263 . S
N93 C97 1.389 . S
N94 C95 1.358 . S
N94 C96 1.400 . S
C95 N93 1.263 . S
C95 N94 1.358 . S
C95 H101 0.930 . S
C96 N94 1.400 . S
C96 C97 1.351 . S
C96 H113 0.930 . S
C97 N93 1.389 . S
C97 C96 1.351 . S
C97 H102 0.930 . S
O98 Cu92 1.974 . S
O98 C108 1.282 . S
C99 O100 1.261 . S
C99 O112 1.248 1_455 S
O100 C99 1.261 . S
H101 C95 0.930 . S
H102 C97 0.930 . S
N103 Cu92 1.985 1_455 S
N103 C105 1.335 . S
N103 C106 1.390 . S
N104 C105 1.345 . S
N104 C107 1.336 . S
C105 N103 1.335 . S
C105 N104 1.345 . S
C105 H110 0.930 . S
C106 N103 1.390 . S
C106 C107 1.346 . S
C106 H111 0.930 . S
C107 N104 1.336 . S
C107 C106 1.346 . S
C107 H114 0.929 . S
C108 O98 1.282 . S
C108 O109 1.216 1_655 S
O109 C108 1.216 1_455 S
H110 C105 0.930 . S
H111 C106 0.930 . S
O112 Cu92 1.960 . S
O112 C99 1.248 1_655 S
H113 C96 0.930 . S
H114 C107 0.929 . S
Cu115 N116 1.999 . S
Cu115 O121 1.974 . S
Cu115 N126 1.985 . S
Cu115 O135 1.959 . S
N116 Cu115 1.999 . S
N116 C118 1.263 . S
N116 C120 1.389 . S
N117 C118 1.358 . S
N117 C119 1.400 . S
C118 N116 1.263 . S
C118 N117 1.358 . S
C118 H124 0.930 . S
C119 N117 1.400 . S
C119 C120 1.351 . S
C119 H136 0.930 . S
C120 N116 1.389 . S
C120 C119 1.351 . S
C120 H125 0.930 . S
O121 Cu115 1.974 . S
O121 C131 1.282 . S
C122 O123 1.261 . S
C122 O135 1.251 . S
O123 C122 1.261 . S
H124 C118 0.930 . S
H125 C120 0.930 . S
N126 Cu115 1.985 . S
N126 C128 1.335 . S
N126 C129 1.390 . S
N127 C128 1.345 . S
N127 C130 1.336 . S
C128 N126 1.335 . S
C128 N127 1.345 . S
C128 H133 0.930 . S
C129 N126 1.390 . S
C129 C130 1.346 . S
C129 H134 0.930 . S
C130 N127 1.336 . S
C130 C129 1.346 . S
C130 H137 0.929 . S
C131 O121 1.282 . S
C131 O132 1.216 . S
O132 C131 1.216 . S
H133 C128 0.930 . S
H134 C129 0.930 . S
O135 Cu115 1.959 . S
O135 C122 1.251 . S
H136 C119 0.930 . S
H137 C130 0.929 . S
Cu138 N139 1.999 . S
Cu138 O144 1.974 . S
Cu138 N149 1.985 . S
Cu138 O158 1.959 . S
N139 Cu138 1.999 . S
N139 C141 1.263 . S
N139 C143 1.389 . S
N140 C141 1.358 . S
N140 C142 1.400 . S
C141 N139 1.263 . S
C141 N140 1.358 . S
C141 H147 0.930 . S
C142 N140 1.400 . S
C142 C143 1.351 . S
C142 H159 0.930 . S
C143 N139 1.389 . S
C143 C142 1.351 . S
C143 H148 0.930 . S
O144 Cu138 1.974 . S
O144 C154 1.282 . S
C145 O146 1.261 . S
C145 O158 1.251 . S
O146 C145 1.261 . S
H147 C141 0.930 . S
H148 C143 0.930 . S
N149 Cu138 1.985 . S
N149 C151 1.335 . S
N149 C152 1.390 . S
N150 C151 1.345 . S
N150 C153 1.336 . S
C151 N149 1.335 . S
C151 N150 1.345 . S
C151 H156 0.930 . S
C152 N149 1.390 . S
C152 C153 1.346 . S
C152 H157 0.930 . S
C153 N150 1.336 . S
C153 C152 1.346 . S
C153 H160 0.929 . S
C154 O144 1.282 . S
C154 O155 1.216 . S
O155 C154 1.216 . S
H156 C151 0.930 . S
H157 C152 0.930 . S
O158 Cu138 1.959 . S
O158 C145 1.251 . S
H159 C142 0.930 . S
H160 C153 0.929 . S
Cu161 N162 1.999 . S
Cu161 O167 1.974 . S
Cu161 N172 1.985 1_545 S
Cu161 O181 1.959 . S
N162 Cu161 1.999 . S
N162 C164 1.263 . S
N162 C166 1.389 . S
N163 C164 1.358 . S
N163 C165 1.400 . S
C164 N162 1.263 . S
C164 N163 1.358 . S
C164 H170 0.930 . S
C165 N163 1.400 . S
C165 C166 1.351 . S
C165 H182 0.930 . S
C166 N162 1.389 . S
C166 C165 1.351 . S
C166 H171 0.930 . S
O167 Cu161 1.974 . S
O167 C177 1.282 . S
C168 O169 1.261 . S
C168 O181 1.251 1_565 S
O169 C168 1.261 . S
H170 C164 0.930 . S
H171 C166 0.930 . S
N172 Cu161 1.985 1_565 S
N172 C174 1.335 . S
N172 C175 1.390 . S
N173 C174 1.345 . S
N173 C176 1.336 . S
C174 N172 1.335 . S
C174 N173 1.345 . S
C174 H179 0.930 . S
C175 N172 1.390 . S
C175 C176 1.346 . S
C175 H180 0.930 . S
C176 N173 1.336 . S
C176 C175 1.346 . S
C176 H183 0.929 . S
C177 O167 1.282 . S
C177 O178 1.216 1_545 S
O178 C177 1.216 1_565 S
H179 C174 0.930 . S
H180 C175 0.930 . S
O181 Cu161 1.959 . S
O181 C168 1.251 1_545 S
H182 C165 0.930 . S
H183 C176 0.929 . S
C184 C185 1.369 1_455 S
C184 C186 1.419 1_556 S
C184 H188 0.930 1_556 S
C185 C184 1.369 1_655 S
C185 C194 1.429 . S
C186 C184 1.419 1_554 S
C186 C187 1.363 . S
C186 H189 0.929 . S
C187 C186 1.363 . S
C187 C193 1.428 1_454 S
H188 C184 0.930 1_554 S
H189 C186 0.929 . S
S190 N191 1.613 . S
S190 N192 1.610 . S
N191 S190 1.613 . S
N191 C194 1.350 . S
N192 S190 1.610 . S
N192 C193 1.351 . S
C193 C187 1.428 1_656 S
C193 N192 1.351 . S
C193 C194 1.434 . S
C194 C185 1.429 . S
C194 N191 1.350 . S
C194 C193 1.434 . S
C195 C196 1.369 . S
C195 C197 1.419 . S
C195 H199 0.930 . S
C196 C195 1.369 . S
C196 C205 1.429 . S
C197 C195 1.419 . S
C197 C198 1.363 . S
C197 H200 0.929 . S
C198 C197 1.363 . S
C198 C204 1.428 . S
H199 C195 0.930 . S
H200 C197 0.929 . S
S201 N202 1.613 . S
S201 N203 1.610 . S
N202 S201 1.613 . S
N202 C205 1.350 . S
N203 S201 1.610 . S
N203 C204 1.351 . S
C204 C198 1.428 . S
C204 N203 1.351 . S
C204 C205 1.434 . S
C205 C196 1.429 . S
C205 N202 1.350 . S
C205 C204 1.434 . S
C206 C207 1.369 1_556 S
C206 C208 1.419 . S
C206 H210 0.930 1_556 S
C207 C206 1.369 1_554 S
C207 C216 1.429 . S
C208 C206 1.419 . S
C208 C209 1.363 . S
C208 H211 0.929 . S
C209 C208 1.363 . S
C209 C215 1.428 . S
H210 C206 0.930 1_554 S
H211 C208 0.929 . S
S212 N213 1.613 1_556 S
S212 N214 1.610 . S
N213 S212 1.613 1_554 S
N213 C216 1.350 . S
N214 S212 1.610 . S
N214 C215 1.351 . S
C215 C209 1.428 . S
C215 N214 1.351 . S
C215 C216 1.434 1_556 S
C216 C207 1.429 . S
C216 N213 1.350 . S
C216 C215 1.434 1_554 S
C217 C218 1.369 1_565 S
C217 C219 1.419 . S
C217 H221 0.930 . S
C218 C217 1.369 1_545 S
C218 C227 1.429 . S
C219 C217 1.419 . S
C219 C220 1.363 . S
C219 H222 0.929 . S
C220 C219 1.363 . S
C220 C226 1.428 1_565 S
H221 C217 0.930 . S
H222 C219 0.929 . S
S223 N224 1.613 1_455 S
S223 N225 1.610 . S
N224 S223 1.613 1_655 S
N224 C227 1.350 . S
N225 S223 1.610 . S
N225 C226 1.351 1_455 S
C226 C220 1.428 1_545 S
C226 N225 1.351 1_655 S
C226 C227 1.434 . S
C227 C218 1.429 . S
C227 N224 1.350 . S
C227 C226 1.434 . S
C228 C229 1.369 . S
C228 C230 1.419 . S
C228 H232 0.930 . S
C229 C228 1.369 . S
C229 C238 1.429 . S
C230 C228 1.419 . S
C230 C231 1.363 . S
C230 H233 0.929 . S
C231 C230 1.363 . S
C231 C237 1.428 . S
H232 C228 0.930 . S
H233 C230 0.929 . S
S234 N235 1.613 . S
S234 N236 1.610 . S
N235 S234 1.613 . S
N235 C238 1.350 . S
N236 S234 1.610 . S
N236 C237 1.351 . S
C237 C231 1.428 . S
C237 N236 1.351 . S
C237 C238 1.434 . S
C238 C229 1.429 . S
C238 N235 1.350 . S
C238 C237 1.434 . S
C239 C240 1.369 . S
C239 C241 1.419 . S
C239 H243 0.930 . S
C240 C239 1.369 . S
C240 C249 1.429 . S
C241 C239 1.419 . S
C241 C242 1.363 . S
C241 H244 0.929 . S
C242 C241 1.363 . S
C242 C248 1.428 . S
H243 C239 0.930 . S
H244 C241 0.929 . S
S245 N246 1.613 . S
S245 N247 1.610 . S
N246 S245 1.613 . S
N246 C249 1.350 . S
N247 S245 1.610 . S
N247 C248 1.351 . S
C248 C242 1.428 . S
C248 N247 1.351 . S
C248 C249 1.434 . S
C249 C240 1.429 . S
C249 N246 1.350 . S
C249 C248 1.434 . S
C250 C251 1.369 . S
C250 C252 1.419 . S
C250 H254 0.930 . S
C251 C250 1.369 . S
C251 C260 1.429 . S
C252 C250 1.419 . S
C252 C253 1.363 . S
C252 H255 0.929 . S
C253 C252 1.363 . S
C253 C259 1.428 . S
H254 C250 0.930 . S
H255 C252 0.929 . S
S256 N257 1.613 . S
S256 N258 1.610 . S
N257 S256 1.613 . S
N257 C260 1.350 . S
N258 S256 1.610 . S
N258 C259 1.351 . S
C259 C253 1.428 . S
C259 N258 1.351 . S
C259 C260 1.434 . S
C260 C251 1.429 . S
C260 N257 1.350 . S
C260 C259 1.434 . S
C261 C262 1.369 . S
C261 C263 1.419 . S
C261 H265 0.930 . S
C262 C261 1.369 . S
C262 C271 1.429 . S
C263 C261 1.419 . S
C263 C264 1.363 . S
C263 H266 0.929 . S
C264 C263 1.363 . S
C264 C270 1.428 . S
H265 C261 0.930 . S
H266 C263 0.929 . S
S267 N268 1.613 . S
S267 N269 1.610 . S
N268 S267 1.613 . S
N268 C271 1.350 . S
N269 S267 1.610 . S
N269 C270 1.351 . S
C270 C264 1.428 . S
C270 N269 1.351 . S
C270 C271 1.434 . S
C271 C262 1.429 . S
C271 N268 1.350 . S
C271 C270 1.434 . S
C272 C273 1.369 . S
C272 C274 1.419 . S
C272 H276 0.930 . S
C273 C272 1.369 . S
C273 C282 1.429 . S
C274 C272 1.419 . S
C274 C275 1.363 . S
C274 H277 0.929 . S
C275 C274 1.363 . S
C275 C281 1.428 . S
H276 C272 0.930 . S
H277 C274 0.929 . S
S278 N279 1.613 . S
S278 N280 1.610 . S
N279 S278 1.613 . S
N279 C282 1.350 . S
N280 S278 1.610 . S
N280 C281 1.351 . S
C281 C275 1.428 . S
C281 N280 1.351 . S
C281 C282 1.434 . S
C282 C273 1.429 . S
C282 N279 1.350 . S
C282 C281 1.434 . S
C283 C284 1.369 . S
C283 C285 1.419 . S
C283 H287 0.930 . S
C284 C283 1.369 . S
C284 C293 1.429 . S
C285 C283 1.419 . S
C285 C286 1.363 . S
C285 H288 0.929 . S
C286 C285 1.363 . S
C286 C292 1.428 . S
H287 C283 0.930 . S
H288 C285 0.929 . S
S289 N290 1.613 . S
S289 N291 1.610 . S
N290 S289 1.613 . S
N290 C293 1.350 . S
N291 S289 1.610 . S
N291 C292 1.351 . S
C292 C286 1.428 . S
C292 N291 1.351 . S
C292 C293 1.434 . S
C293 C284 1.429 . S
C293 N290 1.350 . S
C293 C292 1.434 . S
C294 C295 1.369 . S
C294 C296 1.419 . S
C294 H298 0.930 1_565 S
C295 C294 1.369 . S
C295 C304 1.429 . S
C296 C294 1.419 . S
C296 C297 1.363 . S
C296 H299 0.929 1_565 S
C297 C296 1.363 . S
C297 C303 1.428 . S
H298 C294 0.930 1_545 S
H299 C296 0.929 1_545 S
S300 N301 1.613 . S
S300 N302 1.610 . S
N301 S300 1.613 . S
N301 C304 1.350 . S
N302 S300 1.610 . S
N302 C303 1.351 . S
C303 C297 1.428 . S
C303 N302 1.351 . S
C303 C304 1.434 . S
C304 C295 1.429 . S
C304 N301 1.350 . S
C304 C303 1.434 . S
C305 C306 1.369 . S
C305 C307 1.419 . S
C305 H309 0.930 . S
C306 C305 1.369 . S
C306 C315 1.429 . S
C307 C305 1.419 . S
C307 C308 1.363 . S
C307 H310 0.929 . S
C308 C307 1.363 . S
C308 C314 1.428 . S
H309 C305 0.930 . S
H310 C307 0.929 . S
S311 N312 1.612 1_655 S
S311 N313 1.610 1_655 S
N312 S311 1.612 1_455 S
N312 C315 1.356 . S
N313 S311 1.610 1_455 S
N313 C314 1.351 . S
C314 C308 1.428 . S
C314 N313 1.351 . S
C314 C315 1.434 . S
C315 C306 1.429 . S
C315 N312 1.356 . S
C315 C314 1.434 . S
C316 C317 1.369 . S
C316 C318 1.419 . S
C316 H320 0.930 . S
C317 C316 1.369 . S
C317 C326 1.429 . S
C318 C316 1.419 . S
C318 C319 1.363 . S
C318 H321 0.929 . S
C319 C318 1.363 . S
C319 C325 1.428 . S
H320 C316 0.930 . S
H321 C318 0.929 . S
S322 N323 1.613 . S
S322 N324 1.610 . S
N323 S322 1.613 . S
N323 C326 1.350 . S
N324 S322 1.610 . S
N324 C325 1.351 . S
C325 C319 1.428 . S
C325 N324 1.351 . S
C325 C326 1.434 . S
C326 C317 1.429 . S
C326 N323 1.350 . S
C326 C325 1.434 . S
C327 C328 1.369 . S
C327 C329 1.419 . S
C327 H331 0.930 . S
C328 C327 1.369 . S
C328 C337 1.429 . S
C329 C327 1.419 . S
C329 C330 1.363 . S
C329 H332 0.929 . S
C330 C329 1.363 . S
C330 C336 1.428 . S
H331 C327 0.930 . S
H332 C329 0.929 . S
S333 N334 1.613 . S
S333 N335 1.610 . S
N334 S333 1.613 . S
N334 C337 1.350 . S
N335 S333 1.610 . S
N335 C336 1.351 . S
C336 C330 1.428 . S
C336 N335 1.351 . S
C336 C337 1.434 . S
C337 C328 1.429 . S
C337 N334 1.350 . S
C337 C336 1.434 . S
C338 C339 1.369 . S
C338 C340 1.419 . S
C338 H342 0.930 . S
C339 C338 1.369 . S
C339 C348 1.429 . S
C340 C338 1.419 . S
C340 C341 1.363 . S
C340 H343 0.929 . S
C341 C340 1.363 . S
C341 C347 1.428 . S
H342 C338 0.930 . S
H343 C340 0.929 . S
S344 N345 1.613 . S
S344 N346 1.610 . S
N345 S344 1.613 . S
N345 C348 1.350 . S
N346 S344 1.610 . S
N346 C347 1.351 . S
C347 C341 1.428 . S
C347 N346 1.351 . S
C347 C348 1.434 . S
C348 C339 1.429 . S
C348 N345 1.350 . S
C348 C347 1.434 . S
C349 C350 1.369 . S
C349 C351 1.419 . S
C349 H353 0.930 . S
C350 C349 1.369 . S
C350 C359 1.429 . S
C351 C349 1.419 . S
C351 C352 1.363 . S
C351 H354 0.929 . S
C352 C351 1.363 . S
C352 C358 1.428 . S
H353 C349 0.930 . S
H354 C351 0.929 . S
S355 N356 1.613 . S
S355 N357 1.610 . S
N356 S355 1.613 . S
N356 C359 1.350 . S
N357 S355 1.610 . S
N357 C358 1.351 . S
C358 C352 1.428 . S
C358 N357 1.351 . S
C358 C359 1.434 . S
C359 C350 1.429 . S
C359 N356 1.350 . S
C359 C358 1.434 . S
C185 C108 1.845 . S
C187 N12 1.742 . S
C196 N35 1.709 . S
C198 C131 1.815 . S
C207 N58 1.675 1_545 S
C209 C154 1.772 . S
C218 C177 1.809 . S
C220 N81 1.706 1_655 S
C229 C7 2.585 . S
C231 C53 2.585 . S
C240 C30 2.584 . S
C242 C76 2.591 . S
C251 N140 1.816 . S
C253 N94 1.812 . S
C262 N117 1.812 . S
C264 N163 1.823 . S
C273 C122 1.818 . S
C275 C16 1.721 . S
C284 C39 1.738 . S
C286 C145 1.843 . S
C295 C62 1.696 . S
C297 C168 1.803 . S
C306 C99 1.777 . S
C308 C85 1.683 . S
C317 N104 1.355 . S
C319 N25 1.465 . S
C328 N127 1.394 . S
C330 N48 1.518 . S
C339 N150 1.382 . S
C341 N71 1.502 . S
C350 N2 1.454 . S
C352 N173 1.336 . S
