# Generated by pormake.
# Topology smc, (6)-cn, num edge types: 1
# Building blocks:
#     Node 0, Type 0, BuildingBlock: CUWYAW_clean_sbu_0, # of connection points: 6
#     Node 1, Type 0, BuildingBlock: CUWYAW_clean_sbu_0, # of connection points: 6
#     Node 2, Type 0, BuildingBlock: CUWYAW_clean_sbu_0, # of connection points: 6
#     Node 3, Type 0, BuildingBlock: CUWYAW_clean_sbu_0, # of connection points: 6
#     Node 4, Type 0, BuildingBlock: CUWYAW_clean_sbu_0, # of connection points: 6
#     Node 5, Type 0, BuildingBlock: CUWYAW_clean_sbu_0, # of connection points: 6
#     Node 6, Type 0, BuildingBlock: CUWYAW_clean_sbu_0, # of connection points: 6
#     Node 7, Type 0, BuildingBlock: CUWYAW_clean_sbu_0, # of connection points: 6
#     Node 8, Type 0, BuildingBlock: CUWYAW_clean_sbu_0, # of connection points: 6
#     Edge 9, Type (0, 0), BuildingBlock: OJICUG_clean_linker_0, # of connection points: 2
#     Edge 10, Type (0, 0), BuildingBlock: OJICUG_clean_linker_0, # of connection points: 2
#     Edge 11, Type (0, 0), BuildingBlock: OJICUG_clean_linker_0, # of connection points: 2
#     Edge 12, Type (0, 0), BuildingBlock: OJICUG_clean_linker_0, # of connection points: 2
#     Edge 13, Type (0, 0), BuildingBlock: OJICUG_clean_linker_0, # of connection points: 2
#     Edge 14, Type (0, 0), BuildingBlock: OJICUG_clean_linker_0, # of connection points: 2
#     Edge 15, Type (0, 0), BuildingBlock: OJICUG_clean_linker_0, # of connection points: 2
#     Edge 16, Type (0, 0), BuildingBlock: OJICUG_clean_linker_0, # of connection points: 2
#     Edge 17, Type (0, 0), BuildingBlock: OJICUG_clean_linker_0, # of connection points: 2
#     Edge 18, Type (0, 0), BuildingBlock: OJICUG_clean_linker_0, # of connection points: 2
#     Edge 19, Type (0, 0), BuildingBlock: OJICUG_clean_linker_0, # of connection points: 2
#     Edge 20, Type (0, 0), BuildingBlock: OJICUG_clean_linker_0, # of connection points: 2
#     Edge 21, Type (0, 0), BuildingBlock: OJICUG_clean_linker_0, # of connection points: 2
#     Edge 22, Type (0, 0), BuildingBlock: OJICUG_clean_linker_0, # of connection points: 2
#     Edge 23, Type (0, 0), BuildingBlock: OJICUG_clean_linker_0, # of connection points: 2
#     Edge 24, Type (0, 0), BuildingBlock: OJICUG_clean_linker_0, # of connection points: 2
#     Edge 25, Type (0, 0), BuildingBlock: OJICUG_clean_linker_0, # of connection points: 2
#     Edge 26, Type (0, 0), BuildingBlock: OJICUG_clean_linker_0, # of connection points: 2
#     Edge 27, Type (0, 0), BuildingBlock: OJICUG_clean_linker_0, # of connection points: 2
#     Edge 28, Type (0, 0), BuildingBlock: OJICUG_clean_linker_0, # of connection points: 2
#     Edge 29, Type (0, 0), BuildingBlock: OJICUG_clean_linker_0, # of connection points: 2
#     Edge 30, Type (0, 0), BuildingBlock: OJICUG_clean_linker_0, # of connection points: 2
#     Edge 31, Type (0, 0), BuildingBlock: OJICUG_clean_linker_0, # of connection points: 2
#     Edge 32, Type (0, 0), BuildingBlock: OJICUG_clean_linker_0, # of connection points: 2
#     Edge 33, Type (0, 0), BuildingBlock: OJICUG_clean_linker_0, # of connection points: 2
#     Edge 34, Type (0, 0), BuildingBlock: OJICUG_clean_linker_0, # of connection points: 2
#     Edge 35, Type (0, 0), BuildingBlock: OJICUG_clean_linker_0, # of connection points: 2
# Relax obj value: 0.207
# Max RMSD: 0.344
# Mean RMSD: 0.344
data_MOF--net-smc--node1-CUWYAW_clean_sbu_0--edge1-OJICUG_clean_linker_0
_symmetry_space_group_name_H-M    P1
_symmetry_Int_Tables_number       1
_symmetry_cell_setting            triclinic
loop_
_symmetry_equiv_pos_as_xyz
'x, y, z'
_cell_length_a     31.295132
_cell_length_b     31.332862
_cell_length_c     28.359108
_cell_angle_alpha  89.840899
_cell_angle_beta   90.001251
_cell_angle_gamma 120.04827
loop_
_atom_site_label
_atom_site_type_symbol
_atom_site_fract_x
_atom_site_fract_y
_atom_site_fract_z
_atom_type_partial_charge
C0 C 0.9338 0.30724 0.02881 0.0
Eu1 Eu 1.00171 0.39993 0.02527 0.0
C2 C 0.879 0.28168 0.02733 0.0
C3 C 0.85165 0.25761 0.06791 0.0
C4 C 0.80003 0.23387 0.06776 0.0
C5 C 0.77434 0.23342 0.0269 0.0
C6 C 0.80178 0.25825 0.98645 0.0
C7 C 0.85348 0.28223 0.98667 0.0
C8 C 0.05417 0.44852 0.10456 0.0
C9 C 0.9639 0.47778 0.02772 0.0
C10 C 0.12984 0.59531 0.99572 0.0
Eu11 Eu 0.07254 0.50056 1.00135 0.0
C12 C 0.16266 0.64926 0.99297 0.0
C13 C 0.16138 0.67585 0.95361 0.0
C14 C 0.1894 0.7274 0.95285 0.0
C15 C 0.21969 0.75348 0.99129 0.0
C16 C 0.22204 0.72636 0.02997 0.0
C17 C 0.19354 0.67493 0.03094 0.0
C18 C 1.02829 0.44097 0.92468 0.0
C19 C 0.11701 0.43174 0.99948 0.0
O20 O 0.95808 0.32883 0.99021 0.0
O21 O 0.95423 0.33388 0.06622 0.0
O22 O 1.00646 0.42275 0.1016 0.0
O23 O 0.07091 0.45338 0.06294 0.0
O24 O 0.94965 0.43079 0.02268 0.0
O25 O 1.01071 0.51128 0.02687 0.0
O26 O 0.11817 0.57143 0.03589 0.0
O27 O 0.1111 0.56767 0.95839 0.0
O28 O 0.07507 0.47257 0.92795 0.0
O29 O 1.00676 0.44263 0.96187 0.0
O30 O 0.12808 0.47753 1.0055 0.0
O31 O 0.07043 0.39462 1.00202 0.0
H32 H 0.87027 0.25695 0.09988 0.0
H33 H 0.78023 0.21478 0.0994 0.0
H34 H 0.78327 0.25929 0.95456 0.0
H35 H 0.87333 0.30113 0.95497 0.0
H36 H 0.13765 0.65691 0.92393 0.0
H37 H 0.18629 0.74676 0.92257 0.0
H38 H 0.24603 0.74475 0.05962 0.0
H39 H 0.19552 0.65527 0.06159 0.0
C40 C 0.76503 0.65057 0.02679 0.0
Eu41 Eu 0.67211 0.62558 0.02488 0.0
C42 C 0.79081 0.6216 0.02611 0.0
C43 C 0.81604 0.62015 0.06653 0.0
C44 C 0.8403 0.59283 0.06703 0.0
C45 C 0.84014 0.56637 0.02698 0.0
C46 C 0.81411 0.56711 0.98675 0.0
C47 C 0.78962 0.59427 0.98633 0.0
C48 C 0.62572 0.62854 0.10584 0.0
C49 C 0.59362 0.50996 0.02627 0.0
C50 C 0.47724 0.55897 0.99893 0.0
Eu51 Eu 0.57234 0.59755 1.0029 0.0
C52 C 0.42305 0.53703 0.99686 0.0
C53 C 0.39738 0.51546 0.95507 0.0
C54 C 0.34577 0.49099 0.95408 0.0
C55 C 0.31848 0.48809 0.99472 0.0
C56 C 0.34464 0.51085 0.0363 0.0
C57 C 0.39623 0.53459 0.03743 0.0
C58 C 0.63071 0.61211 0.9249 0.0
C59 C 0.64107 0.71019 1.00216 0.0
O60 O 0.74246 0.65163 0.98833 0.0
O61 O 0.73918 0.64563 0.06456 0.0
O62 O 0.64978 0.60508 0.10088 0.0
O63 O 0.61996 0.64173 0.06504 0.0
O64 O 0.64096 0.54256 0.02271 0.0
O65 O 0.5606 0.52382 0.02521 0.0
O66 O 0.50105 0.56656 0.03876 0.0
O67 O 0.5052 0.57373 0.96127 0.0
O68 O 0.60027 0.62859 0.9292 0.0
O69 O 0.62881 0.58857 0.9619 0.0
O70 O 0.59535 0.67579 1.00965 0.0
O71 O 0.67773 0.70002 1.00241 0.0
H72 H 0.81723 0.64046 0.09783 0.0
H73 H 0.86029 0.59355 0.09846 0.0
H74 H 0.81254 0.54655 0.95553 0.0
H75 H 0.76986 0.59384 0.9548 0.0
H76 H 0.41712 0.51633 0.92337 0.0
H77 H 0.32739 0.47356 0.9215 0.0
H78 H 0.32546 0.51086 0.06805 0.0
H79 H 0.41513 0.55099 0.07017 0.0
C80 C 0.4198 0.13797 0.02678 0.0
Eu81 Eu 0.44551 0.07077 0.02379 0.0
C82 C 0.44897 0.19285 0.02553 0.0
C83 C 0.45973 0.21986 0.06772 0.0
C84 C 0.48737 0.27145 0.06731 0.0
C85 C 0.50477 0.29747 0.02464 0.0
C86 C 0.49469 0.27048 0.98247 0.0
C87 C 0.46715 0.21885 0.98289 0.0
C88 C 0.44247 1.01885 0.10319 0.0
C89 C 0.56182 0.1101 0.0266 0.0
C90 C 0.51645 0.94481 0.9986 0.0
Eu91 Eu 0.47728 1.00071 1.0012 0.0
C92 C 0.53875 0.91292 0.9972 0.0
C93 C 0.56299 0.91073 0.95645 0.0
C94 C 0.58693 0.88314 0.95606 0.0
C95 C 0.5867 0.8565 0.99626 0.0
C96 C 0.56136 0.85805 0.03675 0.0
C97 C 0.53806 0.88626 0.03731 0.0
C98 C 0.46213 0.04425 0.92363 0.0
C99 C 0.36355 0.95514 0.99748 0.0
O100 O 0.41779 0.11416 0.98823 0.0
O101 O 0.42537 0.11705 0.0643 0.0
O102 O 0.46339 0.06643 0.10046 0.0
O103 O 0.43063 1.00206 0.06168 0.0
O104 O 0.52847 0.12361 0.02133 0.0
O105 O 0.54929 0.06356 0.02612 0.0
O106 O 0.50468 0.95784 0.03814 0.0
O107 O 0.50601 0.96128 0.96042 0.0
O108 O 0.44992 0.99818 0.92632 0.0
O109 O 0.48405 0.06593 0.96119 0.0
O110 O 0.39865 0.94462 1.00415 0.0
O111 O 0.37231 1.00144 0.99991 0.0
H112 H 0.44642 0.20108 0.10121 0.0
H113 H 0.4939 0.29099 0.10036 0.0
H114 H 0.50803 0.28933 0.94902 0.0
H115 H 0.45995 0.19945 0.94971 0.0
H116 H 0.56441 0.93123 0.92509 0.0
H117 H 0.60636 0.88354 0.92434 0.0
H118 H 0.55894 0.83709 0.06805 0.0
H119 H 0.51946 0.88713 0.0692 0.0
C120 C 0.6017 0.64151 0.36036 0.0
Eu121 Eu 0.66922 0.7344 0.35812 0.0
C122 C 0.54684 0.61589 0.35934 0.0
C123 C 0.51974 0.5932 0.40047 0.0
C124 C 0.4681 0.5693 0.40053 0.0
C125 C 0.44214 0.56723 0.35932 0.0
C126 C 0.46928 0.59064 0.31831 0.0
C127 C 0.52098 0.6148 0.31831 0.0
C128 C 0.72167 0.78267 0.43746 0.0
C129 C 0.63056 0.81193 0.36058 0.0
C130 C 0.79616 0.93046 0.33113 0.0
Eu131 Eu 0.73991 0.83545 0.3345 0.0
C132 C 0.82827 0.98462 0.32936 0.0
C133 C 0.83186 1.01076 0.28791 0.0
C134 C 0.85925 0.0623 0.28715 0.0
C135 C 0.88433 0.08903 0.32769 0.0
C136 C 0.88141 0.06244 0.36893 0.0
C137 C 0.85337 1.01091 0.36983 0.0
C138 C 0.69636 0.77608 0.2576 0.0
C139 C 0.785 0.76718 0.3323 0.0
O140 O 0.62555 0.66403 0.32189 0.0
O141 O 0.62257 0.66729 0.39813 0.0
O142 O 0.67398 0.75638 0.4347 0.0
O143 O 0.73834 0.78791 0.39576 0.0
O144 O 0.61661 0.76477 0.35819 0.0
O145 O 0.67708 0.84578 0.35709 0.0
O146 O 0.7814 0.90601 0.37091 0.0
O147 O 0.78142 0.9032 0.29315 0.0
O148 O 0.74282 0.80899 0.2606 0.0
O149 O 0.67445 0.77718 0.29478 0.0
O150 O 0.79584 0.81288 0.33861 0.0
O151 O 0.73847 0.72988 0.33483 0.0
H152 H 0.53857 0.59371 0.43271 0.0
H153 H 0.44848 0.55131 0.4326 0.0
H154 H 0.45052 0.59037 0.28612 0.0
H155 H 0.54057 0.6325 0.28612 0.0
H156 H 0.8125 0.99144 0.25628 0.0
H157 H 0.85991 0.08109 0.25485 0.0
H158 H 0.90114 0.08123 0.40055 0.0
H159 H 0.85134 0.99165 0.40229 0.0
C160 C 0.43212 0.9849 0.37844 0.0
Eu161 Eu 0.34042 0.96124 0.36449 0.0
C162 C 0.45892 0.95713 0.3739 0.0
C163 C 0.48483 0.95393 0.4129 0.0
C164 C 0.50888 0.92644 0.41056 0.0
C165 C 0.50777 0.90149 0.369 0.0
C166 C 0.4812 0.90413 0.33009 0.0
C167 C 0.45677 0.93132 0.33261 0.0
C168 C 0.28716 0.96347 0.44069 0.0
C169 C 0.2634 0.84544 0.36118 0.0
C170 C 0.14537 0.89223 0.33125 0.0
Eu171 Eu 0.24053 0.93087 0.33613 0.0
C172 C 0.09112 0.87037 0.32913 0.0
C173 C 0.06515 0.84788 0.28768 0.0
C174 C 1.01353 0.82403 0.28676 0.0
C175 C 0.98654 0.82254 0.32714 0.0
C176 C 1.01296 0.84623 0.3683 0.0
C177 C 0.06453 0.86948 0.36936 0.0
C178 C 0.3025 0.94778 0.26086 0.0
C179 C 0.30986 0.04485 0.33523 0.0
O180 O 0.41709 0.99656 0.34003 0.0
O181 O 0.39897 0.96943 0.41175 0.0
O182 O 0.31097 0.93961 0.43889 0.0
O183 O 0.28502 0.97629 0.39876 0.0
O184 O 0.31025 0.87878 0.35545 0.0
O185 O 0.22977 0.85843 0.362 0.0
O186 O 0.16943 0.90387 0.3712 0.0
O187 O 0.1731 0.90249 0.29365 0.0
O188 O 0.26705 0.95787 0.26147 0.0
O189 O 0.30165 0.92564 0.29876 0.0
O190 O 0.26369 1.00961 0.33801 0.0
O191 O 0.34704 0.03592 0.34143 0.0
H192 H 0.4864 0.97273 0.44542 0.0
H193 H 0.52924 0.92561 0.44109 0.0
H194 H 0.47888 0.88476 0.29775 0.0
H195 H 0.43602 0.93171 0.30234 0.0
H196 H 0.08465 0.84771 0.25619 0.0
H197 H 0.99486 0.80597 0.25448 0.0
H198 H 0.99399 0.84733 0.39979 0.0
H199 H 0.08357 0.88671 0.4018 0.0
C200 C 0.0882 0.47319 0.36261 0.0
Eu201 Eu 0.11334 0.40544 0.35872 0.0
C202 C 0.11683 0.52802 0.36129 0.0
C203 C 0.11579 0.55483 0.40045 0.0
C204 C 0.14307 0.60646 0.40061 0.0
C205 C 0.17222 0.63276 0.36152 0.0
C206 C 0.17383 0.60581 0.32256 0.0
C207 C 0.14656 0.55414 0.32247 0.0
C208 C 0.10943 0.35343 0.43857 0.0
C209 C 0.22952 0.4439 0.36006 0.0
C210 C 0.18275 0.27825 0.33413 0.0
Eu211 Eu 0.14376 0.33443 0.33631 0.0
C212 C 0.20504 0.24629 0.33266 0.0
C213 C 0.22875 0.24375 0.29166 0.0
C214 C 0.25316 0.2166 0.29116 0.0
C215 C 0.25392 0.19058 0.33151 0.0
C216 C 0.22916 0.19252 0.37231 0.0
C217 C 0.20543 0.22038 0.37297 0.0
C218 C 0.12828 0.37734 0.2583 0.0
C219 C 1.03027 0.29011 0.33315 0.0
O220 O 0.08564 0.44926 0.32398 0.0
O221 O 0.09494 0.45279 0.39985 0.0
O222 O 0.13188 0.40106 0.43502 0.0
O223 O 0.09757 0.33645 0.3971 0.0
O224 O 0.19638 0.45778 0.35561 0.0
O225 O 0.21659 0.39727 0.35947 0.0
O226 O 0.1723 0.29259 0.37364 0.0
O227 O 0.17069 0.29321 0.29592 0.0
O228 O 0.11607 0.33129 0.26143 0.0
O229 O 0.15066 0.39947 0.2956 0.0
O230 O 0.06497 0.27905 0.34003 0.0
O231 O 0.03961 0.33661 0.33522 0.0
H232 H 0.09363 0.53575 0.43106 0.0
H233 H 0.14039 0.62574 0.43107 0.0
H234 H 0.19645 0.62463 0.29213 0.0
H235 H 0.14895 0.53487 0.29198 0.0
H236 H 0.2295 0.26377 0.26017 0.0
H237 H 0.27218 0.21687 0.2592 0.0
H238 H 0.22751 0.17213 0.40378 0.0
H239 H 0.18737 0.22162 0.4051 0.0
C240 C 0.26796 0.97526 0.69566 0.0
Eu241 Eu 0.33549 0.0682 0.69228 0.0
C242 C 0.21309 0.94919 0.69417 0.0
C243 C 0.18582 0.9258 0.735 0.0
C244 C 0.13417 0.90172 0.73481 0.0
C245 C 0.10835 0.90031 0.69369 0.0
C246 C 0.1357 0.9243 0.65295 0.0
C247 C 0.18739 0.94841 0.65316 0.0
C248 C 0.38777 0.11671 0.77159 0.0
C249 C 0.29689 0.14559 0.69377 0.0
C250 C 0.4627 0.26447 0.66581 0.0
Eu251 Eu 0.40638 0.16944 0.66896 0.0
C252 C 0.49481 0.31863 0.66405 0.0
C253 C 0.49933 0.34462 0.62225 0.0
C254 C 0.52676 0.39615 0.62136 0.0
C255 C 0.551 0.42302 0.66212 0.0
C256 C 0.54714 0.39657 0.70374 0.0
C257 C 0.51902 0.34505 0.70476 0.0
C258 C 0.36248 0.11072 0.59175 0.0
C259 C 0.45088 0.10058 0.66641 0.0
O260 O 0.29216 0.99708 0.65711 0.0
O261 O 0.28824 1.00192 0.73309 0.0
O262 O 0.34006 0.09098 0.76856 0.0
O263 O 0.40456 0.1217 0.73001 0.0
O264 O 0.28297 0.09855 0.68988 0.0
O265 O 0.34355 0.17943 0.69224 0.0
O266 O 0.44723 0.24003 0.70553 0.0
O267 O 0.44864 0.2372 0.62784 0.0
O268 O 0.40879 0.14414 0.59431 0.0
O269 O 0.34083 0.11139 0.62923 0.0
O270 O 0.46192 0.14631 0.67298 0.0
O271 O 0.40434 0.06339 0.66876 0.0
H272 H 0.20452 0.92596 0.76721 0.0
H273 H 0.11447 0.8832 0.76668 0.0
H274 H 0.11715 0.9246 0.62081 0.0
H275 H 0.20703 0.96629 0.62114 0.0
H276 H 0.48068 0.3252 0.59041 0.0
H277 H 0.52813 0.41481 0.58875 0.0
H278 H 0.5662 0.41546 0.73559 0.0
H279 H 0.51626 0.3259 0.73749 0.0
C280 C 0.09989 0.3201 0.69301 0.0
Eu281 Eu 1.00687 0.29455 0.69022 0.0
C282 C 0.1257 0.29115 0.69192 0.0
C283 C 0.14945 0.28798 0.73274 0.0
C284 C 0.17321 0.2602 0.73307 0.0
C285 C 0.17399 0.23492 0.69247 0.0
C286 C 0.14954 0.23747 0.65178 0.0
C287 C 0.12564 0.26518 0.6515 0.0
C288 C 0.96112 0.29541 0.77213 0.0
C289 C 0.93068 0.17935 0.69541 0.0
C290 C 0.81051 0.22375 0.66694 0.0
Eu291 Eu 0.90583 0.2631 0.67113 0.0
C292 C 0.75624 0.20144 0.66485 0.0
C293 C 0.73024 0.17777 0.62377 0.0
C294 C 0.67867 0.15425 0.6227 0.0
C295 C 0.6518 0.15424 0.66256 0.0
C296 C 0.67822 0.179 0.70337 0.0
C297 C 0.72975 0.202 0.70457 0.0
C298 C 0.96296 0.27909 0.59167 0.0
C299 C 0.97276 0.37655 0.66773 0.0
O300 O 0.07797 0.32224 0.6545 0.0
O301 O 0.07336 0.31402 0.73055 0.0
O302 O 0.98555 0.2725 0.76609 0.0
O303 O 0.95431 0.30895 0.73194 0.0
O304 O 0.97613 0.2119 0.68316 0.0
O305 O 0.89799 0.19315 0.70147 0.0
O306 O 0.83521 0.23915 0.70635 0.0
O307 O 0.83762 0.23025 0.62961 0.0
O308 O 0.9307 0.29319 0.59656 0.0
O309 O 0.96278 0.25609 0.62843 0.0
O310 O 0.92747 0.3413 0.67563 0.0
O311 O 1.01034 0.3678 0.6676 0.0
H312 H 0.14981 0.30725 0.76454 0.0
H313 H 0.19206 0.25958 0.76487 0.0
H314 H 0.14877 0.21791 0.62007 0.0
H315 H 0.10724 0.26622 0.61959 0.0
H316 H 0.74967 0.1766 0.59263 0.0
H317 H 0.65993 0.13536 0.59074 0.0
H318 H 0.65926 0.18118 0.73439 0.0
H319 H 0.74883 0.22024 0.73668 0.0
C320 C 0.75427 0.80699 0.69653 0.0
Eu321 Eu 0.77982 0.73962 0.69188 0.0
C322 C 0.78277 0.8617 0.6953 0.0
C323 C 0.77609 0.8883 0.73141 0.0
C324 C 0.80325 0.9399 0.73193 0.0
C325 C 0.83816 0.96641 0.69638 0.0
C326 C 0.84544 0.93952 0.66063 0.0
C327 C 0.81822 0.88784 0.6602 0.0
C328 C 0.77776 0.69066 0.77256 0.0
C329 C 0.89565 0.77823 0.69396 0.0
C330 C 0.84866 0.61255 0.66699 0.0
Eu331 Eu 0.81022 0.66922 0.67053 0.0
C332 C 0.87052 0.58024 0.66508 0.0
C333 C 0.89456 0.57804 0.62415 0.0
C334 C 0.91796 0.54992 0.62331 0.0
C335 C 0.91742 0.52278 0.66324 0.0
C336 C 0.89223 0.52429 0.70386 0.0
C337 C 0.86944 0.55297 0.70486 0.0
C338 C 0.79486 0.71164 0.59193 0.0
C339 C 0.6969 0.62418 0.66769 0.0
O340 O 0.75164 0.78328 0.65775 0.0
O341 O 0.76147 0.78668 0.73355 0.0
O342 O 0.80133 0.73813 0.76743 0.0
O343 O 0.76444 0.67139 0.73199 0.0
O344 O 0.86271 0.79192 0.68664 0.0
O345 O 0.88236 0.73155 0.696 0.0
O346 O 0.83686 0.62523 0.70669 0.0
O347 O 0.8388 0.62993 0.62914 0.0
O348 O 0.78177 0.66543 0.59575 0.0
O349 O 0.8174 0.73403 0.62902 0.0
O350 O 0.73171 0.61344 0.675 0.0
O351 O 0.70616 0.67064 0.66877 0.0
H352 H 0.74966 0.86907 0.75936 0.0
H353 H 0.79601 0.95892 0.75985 0.0
H354 H 0.87262 0.95829 0.63317 0.0
H355 H 0.82536 0.86855 0.63258 0.0
H356 H 0.89624 0.59893 0.59301 0.0
H357 H 0.93724 0.55029 0.5915 0.0
H358 H 0.88957 0.50295 0.73494 0.0
H359 H 0.85092 0.55375 0.73685 0.0
C360 C 0.23872 0.46374 0.95211 0.0
C361 C 0.26325 0.46273 0.99338 0.0
H362 H 0.17091 0.45078 0.92116 0.0
C363 C 0.23454 0.43961 0.03384 0.0
H364 H 0.25911 0.48211 0.92051 0.0
C365 C 0.18352 0.4216 0.03395 0.0
C366 C 0.15994 0.4254 0.99342 0.0
H367 H 0.25165 0.43731 0.06618 0.0
H368 H 0.16339 0.40892 0.0669 0.0
C369 C 0.18775 0.44505 0.95214 0.0
C370 C 0.61259 0.8022 0.95406 0.0
C371 C 0.61159 0.82627 0.99558 0.0
H372 H 0.62651 0.74802 0.92322 0.0
C373 C 0.63221 0.8189 0.03688 0.0
H374 H 0.59615 0.8057 0.92177 0.0
C375 C 0.64977 0.78563 0.03741 0.0
C376 C 0.648 0.7597 0.99654 0.0
H377 H 0.63286 0.83712 0.06947 0.0
H378 H 0.66048 0.77683 0.07079 0.0
C379 C 0.63076 0.76952 0.95457 0.0
C380 C 0.29057 0.88619 0.03416 0.0
C381 C 0.31424 0.91182 0.99281 0.0
H382 H 0.24186 0.81663 0.06626 0.0
C383 C 0.30272 0.88593 0.9501 0.0
H384 H 0.30064 0.90456 0.06795 0.0
C385 C 0.27047 0.83489 0.94916 0.0
C386 C 0.24905 0.80856 0.99108 0.0
H387 H 0.32243 0.90434 0.91814 0.0
H388 H 0.26524 0.81579 0.91604 0.0
C389 C 0.2581 0.83527 0.03331 0.0
C390 C 0.51852 0.37693 0.98946 0.0
C391 C 0.53077 0.35247 0.02384 0.0
H392 H 0.52898 0.44584 0.96375 0.0
C393 C 0.56628 0.38093 0.0582 0.0
H394 H 0.4909 0.35632 0.96294 0.0
C395 C 0.58872 0.4326 0.05819 0.0
C396 C 0.5753 0.45647 0.02439 0.0
H397 H 0.57656 0.36323 0.08517 0.0
H398 H 0.61515 0.45367 0.08544 0.0
C399 C 0.54017 0.42819 0.99003 0.0
C400 C 0.63934 0.17564 0.06461 0.0
C401 C 0.61501 0.14644 0.02537 0.0
H402 H 0.70899 0.22639 0.09595 0.0
C403 C 0.64286 0.14722 0.98625 0.0
H404 H 0.61855 0.17466 0.09555 0.0
C405 C 0.69429 0.17653 0.98629 0.0
C406 C 0.71921 0.2052 0.02586 0.0
H407 H 0.62479 0.12417 0.95594 0.0
H408 H 0.71462 0.17522 0.95595 0.0
C409 C 0.69104 0.20469 0.06494 0.0
C410 C 0.92614 0.52073 0.98677 0.0
C411 C 0.928 0.49513 0.02667 0.0
H412 H 0.897 0.563 0.95548 0.0
C413 C 0.89981 0.49157 0.06644 0.0
H414 H 0.94837 0.52465 0.95599 0.0
C415 C 0.87058 0.51396 0.06644 0.0
C416 C 0.86885 0.54002 0.02651 0.0
H417 H 0.90158 0.47285 0.09791 0.0
H418 H 0.84957 0.51112 0.09781 0.0
C419 C 0.89664 0.54259 0.98651 0.0
C420 C 0.8558 0.78024 0.28494 0.0
C421 C 0.8281 0.76104 0.32637 0.0
H422 H 0.92708 0.81631 0.25293 0.0
C423 C 0.8518 0.75749 0.36694 0.0
H424 H 0.8389 0.78579 0.25391 0.0
C425 C 0.90276 0.77518 0.36668 0.0
C426 C 0.93133 0.79764 0.32599 0.0
H427 H 0.8318 0.74518 0.39999 0.0
H428 H 0.91998 0.77313 0.39905 0.0
C429 C 0.90672 0.79846 0.28471 0.0
C430 C 0.28001 0.13666 0.28881 0.0
C431 C 0.27904 0.16047 0.33052 0.0
H432 H 0.29429 0.08308 0.25724 0.0
C433 C 0.29995 0.15295 0.37159 0.0
H434 H 0.26334 0.14013 0.25668 0.0
C435 C 0.31786 0.11987 0.37162 0.0
C436 C 0.31611 0.09428 0.33047 0.0
H437 H 0.30065 0.17092 0.40434 0.0
H438 H 0.32884 0.11098 0.4048 0.0
C439 C 0.2985 0.10426 0.28882 0.0
C440 C 0.97266 0.21983 0.28559 0.0
C441 C 0.98097 0.24722 0.32702 0.0
H442 H 0.93776 0.14883 0.2536 0.0
C443 C 0.95356 0.22333 0.36752 0.0
H444 H 0.99526 0.2369 0.25464 0.0
C445 C 0.92033 0.17243 0.36722 0.0
C446 C 0.91448 0.14416 0.32657 0.0
H447 H 0.96115 0.24312 0.40057 0.0
H448 H 0.90094 0.15504 0.39954 0.0
C449 C 0.94004 0.16897 0.28534 0.0
C450 C 0.24499 0.76702 0.40164 0.0
C451 C 0.24635 0.79225 0.36029 0.0
H452 H 0.2212 0.69692 0.43448 0.0
C453 C 0.22452 0.76525 0.31918 0.0
H454 H 0.26049 0.78713 0.43404 0.0
C455 C 0.20162 0.71374 0.31931 0.0
C456 C 0.19945 0.68795 0.36083 0.0
H457 H 0.22402 0.78399 0.28718 0.0
H458 H 0.18403 0.69408 0.28725 0.0
C459 C 0.22186 0.71537 0.40192 0.0
C460 C 0.30716 0.51104 0.39664 0.0
C461 C 0.28283 0.47991 0.35849 0.0
H462 H 0.37689 0.56324 0.42699 0.0
C463 C 0.31069 0.47877 0.32023 0.0
H464 H 0.28638 0.51161 0.42694 0.0
C465 C 0.36211 0.50812 0.32002 0.0
C466 C 0.38703 0.53873 0.35853 0.0
H467 H 0.29264 0.4543 0.29076 0.0
H468 H 0.38245 0.50545 0.29037 0.0
C469 C 0.35889 0.54005 0.39679 0.0
C470 C 0.56332 0.8787 0.32507 0.0
C471 C 0.53578 0.87449 0.36578 0.0
H472 H 0.61481 0.862 0.29195 0.0
C473 C 0.53717 0.84621 0.40393 0.0
H474 H 0.5638 0.9007 0.29533 0.0
C475 C 0.56599 0.82341 0.40162 0.0
C476 C 0.59426 0.82889 0.36133 0.0
H477 H 0.51632 0.84206 0.43577 0.0
H478 H 0.56765 0.80314 0.43189 0.0
C479 C 0.59257 0.85659 0.32311 0.0
C480 C 0.5724 0.13028 0.61959 0.0
C481 C 0.59671 0.1298 0.6612 0.0
H482 H 0.5049 0.11783 0.58821 0.0
C483 C 0.56802 0.10816 0.70198 0.0
H484 H 0.59297 0.14753 0.58773 0.0
C485 C 0.51716 0.09086 0.70194 0.0
C486 C 0.49377 0.09409 0.661 0.0
H487 H 0.58509 0.10647 0.7346 0.0
H488 H 0.49705 0.07917 0.73498 0.0
C489 C 0.52158 0.11252 0.61954 0.0
C490 C 0.9606 0.43529 0.62078 0.0
C491 C 0.97835 0.4256 0.66248 0.0
H492 H 0.92598 0.47173 0.58845 0.0
C493 C 0.98031 0.45143 0.7035 0.0
H494 H 0.95621 0.41386 0.58934 0.0
C495 C 0.96275 0.4847 0.70331 0.0
C496 C 0.94195 0.49222 0.66221 0.0
H497 H 0.99139 0.44269 0.73671 0.0
H498 H 0.96365 0.50292 0.73598 0.0
C499 C 0.94255 0.46808 0.62058 0.0
C500 C 0.64013 0.55359 0.62005 0.0
C501 C 0.64777 0.58116 0.66124 0.0
H502 H 0.60577 0.48247 0.58837 0.0
C503 C 0.61975 0.55747 0.70149 0.0
H504 H 0.66321 0.57052 0.58933 0.0
C505 C 0.58647 0.50659 0.70121 0.0
C506 C 0.58125 0.47813 0.66086 0.0
H507 H 0.62683 0.57741 0.7344 0.0
H508 H 0.56652 0.48937 0.73334 0.0
C509 C 0.60752 0.50274 0.61985 0.0
C510 C 0.87745 0.04829 0.65339 0.0
C511 C 0.86587 1.0217 0.69616 0.0
H512 H 0.9079 0.11926 0.61994 0.0
C513 C 0.87939 0.0485 0.73872 0.0
H514 H 0.86676 0.02928 0.61991 0.0
C515 C 0.90225 0.10007 0.73851 0.0
C516 C 0.91333 0.1261 0.69583 0.0
H517 H 0.87191 0.0297 0.77237 0.0
H518 H 0.91057 0.11959 0.77175 0.0
C519 C 0.90104 0.0999 0.65328 0.0
C520 C 0.97657 0.81428 0.65343 0.0
C521 C 0.94894 0.81405 0.6925 0.0
H522 H 0.0482 0.84154 0.62309 0.0
C523 C 0.9735 0.84334 0.73161 0.0
H524 H 0.95829 0.79109 0.62325 0.0
C525 C 1.02521 0.8721 0.73181 0.0
C526 C 0.0532 0.87214 0.69279 0.0
H527 H 0.95287 0.84275 0.76252 0.0
H528 H 0.04329 0.89401 0.76269 0.0
C529 C 1.02804 0.84325 0.65338 0.0
C530 C 0.26039 0.18967 0.65289 0.0
C531 C 0.26077 0.16263 0.69225 0.0
H532 H 0.23274 0.23337 0.62199 0.0
C533 C 0.23129 0.1578 0.73135 0.0
H534 H 0.28364 0.19458 0.62267 0.0
C535 C 0.20234 0.1805 0.73128 0.0
C536 C 0.20219 0.20808 0.69193 0.0
H537 H 0.23197 0.13802 0.76246 0.0
H538 H 0.1804 0.17678 0.76218 0.0
C539 C 0.23116 0.21179 0.65253 0.0
C540 C 0.08669 0.36788 0.17986 0.0
C541 C 0.1132 0.3984 0.21796 0.0
H542 H 0.04852 0.36015 0.11474 0.0
C543 C 0.12288 0.44751 0.21719 0.0
H544 H 0.07871 0.33003 0.17868 0.0
C545 C 0.1047 0.46482 0.18038 0.0
C546 C 0.07708 0.43352 0.14305 0.0
H547 H 0.144 0.47227 0.24535 0.0
H548 H 0.11174 0.50235 0.18142 0.0
C549 C 0.06921 0.38517 0.14307 0.0
C550 C 0.70779 0.72461 0.19676 0.0
C551 C 0.6758 0.73698 0.21998 0.0
H552 H 0.71711 0.68098 0.14442 0.0
C553 C 0.62579 0.71245 0.20589 0.0
H554 H 0.74643 0.74247 0.20644 0.0
C555 C 0.60882 0.67727 0.16884 0.0
C556 C 0.64107 0.66452 0.14627 0.0
H557 H 0.6001 0.72123 0.22275 0.0
H558 H 0.57055 0.65994 0.15805 0.0
C559 C 0.69073 0.68885 0.16113 0.0
C560 C 0.3565 0.98148 0.13629 0.0
C561 C 0.40623 0.99453 0.14275 0.0
H562 H 0.2854 0.95676 0.16786 0.0
C563 C 0.42097 0.9892 0.1882 0.0
H564 H 0.34402 0.98623 0.10209 0.0
C565 C 0.38675 0.97111 0.22592 0.0
C566 C 0.33753 0.95999 0.2199 0.0
H567 H 0.45909 0.99972 0.19476 0.0
H568 H 0.39932 0.96757 0.26012 0.0
C569 C 0.32288 0.96493 0.17422 0.0
C570 C 0.45776 0.11515 0.88292 0.0
C571 C 0.44677 0.06558 0.88387 0.0
H572 H 0.44785 0.17071 0.84708 0.0
C573 C 0.41873 0.03486 0.84648 0.0
H574 H 0.47983 0.14006 0.91071 0.0
C575 C 0.40111 0.05242 0.81014 0.0
C576 C 0.41049 0.10129 0.8098 0.0
H577 H 0.40963 0.99666 0.84556 0.0
H578 H 0.37924 0.02726 0.78234 0.0
C579 C 0.43964 0.13279 0.84638 0.0
C580 C 0.96351 0.38799 0.86331 0.0
C581 C 1.0072 0.40073 0.88843 0.0
H582 H 0.91504 0.34578 0.80609 0.0
C583 C 1.03324 0.37653 0.8766 0.0
H584 H 0.94284 0.40636 0.87115 0.0
C585 C 1.01647 0.34076 0.84092 0.0
C586 C 0.97377 0.32886 0.81438 0.0
H587 H 0.06709 0.38549 0.89494 0.0
H588 H 0.03847 0.32384 0.83293 0.0
C589 C 0.94752 0.35319 0.82608 0.0
C590 C 0.73612 0.70063 0.84476 0.0
C591 C 0.74381 0.6692 0.81471 0.0
H592 H 0.69428 0.70736 0.90137 0.0
C593 C 0.71478 0.61793 0.82282 0.0
H594 H 0.75682 0.74021 0.83973 0.0
C595 C 0.67946 0.59906 0.85981 0.0
C596 C 0.67099 0.63086 0.88845 0.0
H597 H 0.71881 0.59242 0.80013 0.0
H598 H 0.65744 0.55954 0.86481 0.0
C599 C 0.69989 0.6818 0.88028 0.0
C600 C 0.73999 0.7208 0.47444 0.0
C601 C 0.7451 0.76807 0.47575 0.0
H602 H 0.75116 0.66633 0.50937 0.0
C603 C 0.76983 0.79838 0.51459 0.0
H604 H 0.72148 0.69657 0.44495 0.0
C605 C 0.7879 0.78115 0.55152 0.0
C606 C 0.78064 0.73291 0.5511 0.0
H607 H 0.77461 0.83502 0.51675 0.0
H608 H 0.80673 0.80519 0.58082 0.0
C609 C 0.75711 0.70343 0.5115 0.0
C610 C 0.35354 0.03907 0.48009 0.0
C611 C 0.30356 1.0018 0.47866 0.0
H612 H 0.41075 0.10162 0.51616 0.0
C613 C 0.27186 1.00173 0.51399 0.0
H614 H 0.37894 0.04058 0.4533 0.0
C615 C 0.29028 0.03754 0.55034 0.0
C616 C 0.34076 0.0739 0.55231 0.0
H617 H 0.23314 0.9738 0.51385 0.0
H618 H 0.2652 0.03663 0.5771 0.0
C619 C 0.3718 0.0743 0.51621 0.0
C620 C 0.99935 0.32668 0.51648 0.0
C621 C 0.99947 0.29492 0.55157 0.0
H622 H 1.03311 0.36903 0.45399 0.0
C623 C 1.03544 0.28038 0.54814 0.0
H624 H 0.97233 0.33864 0.5175 0.0
C625 C 0.07101 0.29832 0.51134 0.0
C626 C 0.07134 0.33117 0.4771 0.0
H627 H 1.03631 0.2555 0.57415 0.0
H628 H 0.09853 0.28705 0.51008 0.0
C629 C 1.03448 0.34435 0.47999 0.0
loop_
_geom_bond_atom_site_label_1
_geom_bond_atom_site_label_2
_geom_bond_distance
_geom_bond_site_symmetry_2
_ccdc_geom_bond_type
C0 Eu1 2.835 . S
C0 C2 1.500 . S
C0 O20 1.257 1_554 S
C0 O21 1.260 . S
Eu1 C0 2.835 . S
Eu1 O20 2.473 1_554 S
Eu1 O21 2.480 . S
Eu1 O22 2.430 . S
Eu1 O23 2.670 1_655 S
Eu1 O24 2.394 . S
Eu1 O29 2.355 1_554 S
Eu1 O31 2.374 1_654 S
C2 C0 1.500 . S
C2 C3 1.377 . S
C2 C7 1.377 1_554 S
C3 C2 1.377 . S
C3 C4 1.395 . S
C3 H32 0.931 . S
C4 C3 1.395 . S
C4 C5 1.383 . S
C4 H33 0.931 . S
C5 C4 1.383 . S
C5 C6 1.394 1_554 S
C6 C5 1.394 1_556 S
C6 C7 1.378 . S
C6 H34 0.931 . S
C7 C2 1.377 1_556 S
C7 C6 1.378 . S
C7 H35 0.931 . S
C8 O22 1.259 1_455 S
C8 O23 1.270 . S
C9 O24 1.251 . S
C9 O25 1.251 . S
C10 Eu11 2.835 . S
C10 C12 1.500 . S
C10 O26 1.257 1_556 S
C10 O27 1.260 . S
Eu11 C10 2.835 . S
Eu11 O23 2.355 1_556 S
Eu11 O25 2.374 1_456 S
Eu11 O26 2.473 1_556 S
Eu11 O27 2.480 . S
Eu11 O28 2.430 . S
Eu11 O29 2.670 1_455 S
Eu11 O30 2.394 . S
C12 C10 1.500 . S
C12 C13 1.377 . S
C12 C17 1.377 1_556 S
C13 C12 1.377 . S
C13 C14 1.395 . S
C13 H36 0.931 . S
C14 C13 1.395 . S
C14 C15 1.383 . S
C14 H37 0.931 . S
C15 C14 1.383 . S
C15 C16 1.394 1_556 S
C16 C15 1.394 1_554 S
C16 C17 1.378 . S
C16 H38 0.931 . S
C17 C12 1.377 1_554 S
C17 C16 1.378 . S
C17 H39 0.931 . S
C18 O28 1.259 1_655 S
C18 O29 1.270 . S
C19 O30 1.251 . S
C19 O31 1.251 . S
O20 C0 1.257 1_556 S
O20 Eu1 2.473 1_556 S
O21 C0 1.260 . S
O21 Eu1 2.480 . S
O22 Eu1 2.430 . S
O22 C8 1.259 1_655 S
O23 Eu1 2.670 1_455 S
O23 C8 1.270 . S
O23 Eu11 2.355 1_554 S
O24 Eu1 2.394 . S
O24 C9 1.251 . S
O25 C9 1.251 . S
O25 Eu11 2.374 1_654 S
O26 C10 1.257 1_554 S
O26 Eu11 2.473 1_554 S
O27 C10 1.260 . S
O27 Eu11 2.480 . S
O28 Eu11 2.430 . S
O28 C18 1.259 1_455 S
O29 Eu1 2.355 1_556 S
O29 Eu11 2.670 1_655 S
O29 C18 1.270 . S
O30 Eu11 2.394 . S
O30 C19 1.251 . S
O31 Eu1 2.374 1_456 S
O31 C19 1.251 . S
H32 C3 0.931 . S
H33 C4 0.931 . S
H34 C6 0.931 . S
H35 C7 0.931 . S
H36 C13 0.931 . S
H37 C14 0.931 . S
H38 C16 0.931 . S
H39 C17 0.931 . S
C40 Eu41 2.835 . S
C40 C42 1.500 . S
C40 O60 1.257 1_554 S
C40 O61 1.260 . S
Eu41 C40 2.835 . S
Eu41 O60 2.473 1_554 S
Eu41 O61 2.480 . S
Eu41 O62 2.430 . S
Eu41 O63 2.670 . S
Eu41 O64 2.394 . S
Eu41 O69 2.355 1_554 S
Eu41 O71 2.374 1_554 S
C42 C40 1.500 . S
C42 C43 1.377 . S
C42 C47 1.377 1_554 S
C43 C42 1.377 . S
C43 C44 1.395 . S
C43 H72 0.931 . S
C44 C43 1.395 . S
C44 C45 1.383 . S
C44 H73 0.931 . S
C45 C44 1.383 . S
C45 C46 1.394 1_554 S
C46 C45 1.394 1_556 S
C46 C47 1.378 . S
C46 H74 0.931 . S
C47 C42 1.377 1_556 S
C47 C46 1.378 . S
C47 H75 0.931 . S
C48 O62 1.259 . S
C48 O63 1.270 . S
C49 O64 1.251 . S
C49 O65 1.251 . S
C50 Eu51 2.835 . S
C50 C52 1.500 . S
C50 O66 1.257 1_556 S
C50 O67 1.260 . S
Eu51 C50 2.835 . S
Eu51 O63 2.355 1_556 S
Eu51 O65 2.374 1_556 S
Eu51 O66 2.473 1_556 S
Eu51 O67 2.480 . S
Eu51 O68 2.430 . S
Eu51 O69 2.670 . S
Eu51 O70 2.394 . S
C52 C50 1.500 . S
C52 C53 1.377 . S
C52 C57 1.377 1_556 S
C53 C52 1.377 . S
C53 C54 1.395 . S
C53 H76 0.931 . S
C54 C53 1.395 . S
C54 C55 1.383 . S
C54 H77 0.931 . S
C55 C54 1.383 . S
C55 C56 1.394 1_556 S
C56 C55 1.394 1_554 S
C56 C57 1.378 . S
C56 H78 0.931 . S
C57 C52 1.377 1_554 S
C57 C56 1.378 . S
C57 H79 0.931 . S
C58 O68 1.259 . S
C58 O69 1.270 . S
C59 O70 1.251 . S
C59 O71 1.251 . S
O60 C40 1.257 1_556 S
O60 Eu41 2.473 1_556 S
O61 C40 1.260 . S
O61 Eu41 2.480 . S
O62 Eu41 2.430 . S
O62 C48 1.259 . S
O63 Eu41 2.670 . S
O63 C48 1.270 . S
O63 Eu51 2.355 1_554 S
O64 Eu41 2.394 . S
O64 C49 1.251 . S
O65 C49 1.251 . S
O65 Eu51 2.374 1_554 S
O66 C50 1.257 1_554 S
O66 Eu51 2.473 1_554 S
O67 C50 1.260 . S
O67 Eu51 2.480 . S
O68 Eu51 2.430 . S
O68 C58 1.259 . S
O69 Eu41 2.355 1_556 S
O69 Eu51 2.670 . S
O69 C58 1.270 . S
O70 Eu51 2.394 . S
O70 C59 1.251 . S
O71 Eu41 2.374 1_556 S
O71 C59 1.251 . S
H72 C43 0.931 . S
H73 C44 0.931 . S
H74 C46 0.931 . S
H75 C47 0.931 . S
H76 C53 0.931 . S
H77 C54 0.931 . S
H78 C56 0.931 . S
H79 C57 0.931 . S
C80 Eu81 2.835 . S
C80 C82 1.500 . S
C80 O100 1.257 1_554 S
C80 O101 1.260 . S
Eu81 C80 2.835 . S
Eu81 O100 2.473 1_554 S
Eu81 O101 2.480 . S
Eu81 O102 2.430 . S
Eu81 O103 2.670 1_545 S
Eu81 O104 2.394 . S
Eu81 O109 2.355 1_554 S
Eu81 O111 2.374 1_544 S
C82 C80 1.500 . S
C82 C83 1.377 . S
C82 C87 1.377 1_554 S
C83 C82 1.377 . S
C83 C84 1.395 . S
C83 H112 0.931 . S
C84 C83 1.395 . S
C84 C85 1.383 . S
C84 H113 0.931 . S
C85 C84 1.383 . S
C85 C86 1.394 1_554 S
C86 C85 1.394 1_556 S
C86 C87 1.378 . S
C86 H114 0.931 . S
C87 C82 1.377 1_556 S
C87 C86 1.378 . S
C87 H115 0.931 . S
C88 O102 1.270 . S
C88 O103 1.265 1_545 S
C89 O104 1.251 . S
C89 O105 1.251 . S
C90 Eu91 2.835 . S
C90 C92 1.500 . S
C90 O106 1.257 1_556 S
C90 O107 1.260 . S
Eu91 C90 2.835 . S
Eu91 O103 2.355 1_556 S
Eu91 O105 2.374 1_566 S
Eu91 O106 2.473 1_556 S
Eu91 O107 2.480 . S
Eu91 O108 2.430 . S
Eu91 O109 2.670 1_565 S
Eu91 O110 2.394 . S
C92 C90 1.500 . S
C92 C93 1.377 . S
C92 C97 1.377 1_556 S
C93 C92 1.377 . S
C93 C94 1.395 . S
C93 H116 0.931 . S
C94 C93 1.395 . S
C94 C95 1.383 . S
C94 H117 0.931 . S
C95 C94 1.383 . S
C95 C96 1.394 1_556 S
C96 C95 1.394 1_554 S
C96 C97 1.378 . S
C96 H118 0.931 . S
C97 C92 1.377 1_554 S
C97 C96 1.378 . S
C97 H119 0.931 . S
C98 O108 1.259 1_545 S
C98 O109 1.270 . S
C99 O110 1.251 . S
C99 O111 1.251 . S
O100 C80 1.257 1_556 S
O100 Eu81 2.473 1_556 S
O101 C80 1.260 . S
O101 Eu81 2.480 . S
O102 Eu81 2.430 . S
O102 C88 1.270 . S
O103 Eu81 2.670 1_565 S
O103 C88 1.265 1_565 S
O103 Eu91 2.355 1_554 S
O104 Eu81 2.394 . S
O104 C89 1.251 . S
O105 C89 1.251 . S
O105 Eu91 2.374 1_544 S
O106 C90 1.257 1_554 S
O106 Eu91 2.473 1_554 S
O107 C90 1.260 . S
O107 Eu91 2.480 . S
O108 Eu91 2.430 . S
O108 C98 1.259 1_565 S
O109 Eu81 2.355 1_556 S
O109 Eu91 2.670 1_545 S
O109 C98 1.270 . S
O110 Eu91 2.394 . S
O110 C99 1.251 . S
O111 Eu81 2.374 1_566 S
O111 C99 1.251 . S
H112 C83 0.931 . S
H113 C84 0.931 . S
H114 C86 0.931 . S
H115 C87 0.931 . S
H116 C93 0.931 . S
H117 C94 0.931 . S
H118 C96 0.931 . S
H119 C97 0.931 . S
C120 Eu121 2.835 . S
C120 C122 1.500 . S
C120 O140 1.257 . S
C120 O141 1.260 . S
Eu121 C120 2.835 . S
Eu121 O140 2.473 . S
Eu121 O141 2.480 . S
Eu121 O142 2.430 . S
Eu121 O143 2.670 . S
Eu121 O144 2.394 . S
Eu121 O149 2.355 . S
Eu121 O151 2.374 . S
C122 C120 1.500 . S
C122 C123 1.377 . S
C122 C127 1.377 . S
C123 C122 1.377 . S
C123 C124 1.395 . S
C123 H152 0.931 . S
C124 C123 1.395 . S
C124 C125 1.383 . S
C124 H153 0.931 . S
C125 C124 1.383 . S
C125 C126 1.394 . S
C126 C125 1.394 . S
C126 C127 1.378 . S
C126 H154 0.931 . S
C127 C122 1.377 . S
C127 C126 1.378 . S
C127 H155 0.931 . S
C128 O142 1.259 . S
C128 O143 1.270 . S
C129 O144 1.251 . S
C129 O145 1.251 . S
C130 Eu131 2.835 . S
C130 C132 1.500 . S
C130 O146 1.257 . S
C130 O147 1.260 . S
Eu131 C130 2.835 . S
Eu131 O143 2.355 . S
Eu131 O145 2.374 . S
Eu131 O146 2.473 . S
Eu131 O147 2.480 . S
Eu131 O148 2.430 . S
Eu131 O149 2.670 . S
Eu131 O150 2.394 . S
C132 C130 1.500 . S
C132 C133 1.377 . S
C132 C137 1.377 . S
C133 C132 1.377 . S
C133 C134 1.395 1_565 S
C133 H156 0.931 . S
C134 C133 1.395 1_545 S
C134 C135 1.383 . S
C134 H157 0.931 . S
C135 C134 1.383 . S
C135 C136 1.394 . S
C136 C135 1.394 . S
C136 C137 1.378 1_545 S
C136 H158 0.931 . S
C137 C132 1.377 . S
C137 C136 1.378 1_565 S
C137 H159 0.931 . S
C138 O148 1.259 . S
C138 O149 1.270 . S
C139 O150 1.251 . S
C139 O151 1.251 . S
O140 C120 1.257 . S
O140 Eu121 2.473 . S
O141 C120 1.260 . S
O141 Eu121 2.480 . S
O142 Eu121 2.430 . S
O142 C128 1.259 . S
O143 Eu121 2.670 . S
O143 C128 1.270 . S
O143 Eu131 2.355 . S
O144 Eu121 2.394 . S
O144 C129 1.251 . S
O145 C129 1.251 . S
O145 Eu131 2.374 . S
O146 C130 1.257 . S
O146 Eu131 2.473 . S
O147 C130 1.260 . S
O147 Eu131 2.480 . S
O148 Eu131 2.430 . S
O148 C138 1.259 . S
O149 Eu121 2.355 . S
O149 Eu131 2.670 . S
O149 C138 1.270 . S
O150 Eu131 2.394 . S
O150 C139 1.251 . S
O151 Eu121 2.374 . S
O151 C139 1.251 . S
H152 C123 0.931 . S
H153 C124 0.931 . S
H154 C126 0.931 . S
H155 C127 0.931 . S
H156 C133 0.931 . S
H157 C134 0.931 . S
H158 C136 0.931 . S
H159 C137 0.931 . S
C160 Eu161 2.835 . S
C160 C162 1.500 . S
C160 O180 1.257 . S
C160 O181 1.260 . S
Eu161 C160 2.835 . S
Eu161 O180 2.473 . S
Eu161 O181 2.480 . S
Eu161 O182 2.430 . S
Eu161 O183 2.670 . S
Eu161 O184 2.394 . S
Eu161 O189 2.355 . S
Eu161 O191 2.374 . S
C162 C160 1.500 . S
C162 C163 1.377 . S
C162 C167 1.377 . S
C163 C162 1.377 . S
C163 C164 1.395 . S
C163 H192 0.931 . S
C164 C163 1.395 . S
C164 C165 1.383 . S
C164 H193 0.931 . S
C165 C164 1.383 . S
C165 C166 1.394 . S
C166 C165 1.394 . S
C166 C167 1.378 . S
C166 H194 0.931 . S
C167 C162 1.377 . S
C167 C166 1.378 . S
C167 H195 0.931 . S
C168 O182 1.259 . S
C168 O183 1.270 . S
C169 O184 1.251 . S
C169 O185 1.251 . S
C170 Eu171 2.835 . S
C170 C172 1.500 . S
C170 O186 1.257 . S
C170 O187 1.260 . S
Eu171 C170 2.835 . S
Eu171 O183 2.355 . S
Eu171 O185 2.374 . S
Eu171 O186 2.473 . S
Eu171 O187 2.480 . S
Eu171 O188 2.430 . S
Eu171 O189 2.670 . S
Eu171 O190 2.394 . S
C172 C170 1.500 . S
C172 C173 1.377 . S
C172 C177 1.377 . S
C173 C172 1.377 . S
C173 C174 1.395 1_455 S
C173 H196 0.931 . S
C174 C173 1.395 1_655 S
C174 C175 1.383 . S
C174 H197 0.931 . S
C175 C174 1.383 . S
C175 C176 1.394 . S
C176 C175 1.394 . S
C176 C177 1.378 1_655 S
C176 H198 0.931 . S
C177 C172 1.377 . S
C177 C176 1.378 1_455 S
C177 H199 0.931 . S
C178 O188 1.259 . S
C178 O189 1.270 . S
C179 O190 1.251 . S
C179 O191 1.251 . S
O180 C160 1.257 . S
O180 Eu161 2.473 . S
O181 C160 1.260 . S
O181 Eu161 2.480 . S
O182 Eu161 2.430 . S
O182 C168 1.259 . S
O183 Eu161 2.670 . S
O183 C168 1.270 . S
O183 Eu171 2.355 . S
O184 Eu161 2.394 . S
O184 C169 1.251 . S
O185 C169 1.251 . S
O185 Eu171 2.374 . S
O186 C170 1.257 . S
O186 Eu171 2.473 . S
O187 C170 1.260 . S
O187 Eu171 2.480 . S
O188 Eu171 2.430 . S
O188 C178 1.259 . S
O189 Eu161 2.355 . S
O189 Eu171 2.670 . S
O189 C178 1.270 . S
O190 Eu171 2.394 . S
O190 C179 1.251 . S
O191 Eu161 2.374 . S
O191 C179 1.251 . S
H192 C163 0.931 . S
H193 C164 0.931 . S
H194 C166 0.931 . S
H195 C167 0.931 . S
H196 C173 0.931 . S
H197 C174 0.931 . S
H198 C176 0.931 . S
H199 C177 0.931 . S
C200 Eu201 2.835 . S
C200 C202 1.500 . S
C200 O220 1.257 . S
C200 O221 1.260 . S
Eu201 C200 2.835 . S
Eu201 O220 2.473 . S
Eu201 O221 2.480 . S
Eu201 O222 2.430 . S
Eu201 O223 2.670 . S
Eu201 O224 2.394 . S
Eu201 O229 2.355 . S
Eu201 O231 2.374 . S
C202 C200 1.500 . S
C202 C203 1.377 . S
C202 C207 1.377 . S
C203 C202 1.377 . S
C203 C204 1.395 . S
C203 H232 0.931 . S
C204 C203 1.395 . S
C204 C205 1.383 . S
C204 H233 0.931 . S
C205 C204 1.383 . S
C205 C206 1.394 . S
C206 C205 1.394 . S
C206 C207 1.378 . S
C206 H234 0.931 . S
C207 C202 1.377 . S
C207 C206 1.378 . S
C207 H235 0.931 . S
C208 O222 1.259 . S
C208 O223 1.270 . S
C209 O224 1.251 . S
C209 O225 1.251 . S
C210 Eu211 2.835 . S
C210 C212 1.500 . S
C210 O226 1.257 . S
C210 O227 1.260 . S
Eu211 C210 2.835 . S
Eu211 O223 2.355 . S
Eu211 O225 2.374 . S
Eu211 O226 2.473 . S
Eu211 O227 2.480 . S
Eu211 O228 2.430 . S
Eu211 O229 2.670 . S
Eu211 O230 2.394 . S
C212 C210 1.500 . S
C212 C213 1.377 . S
C212 C217 1.377 . S
C213 C212 1.377 . S
C213 C214 1.395 . S
C213 H236 0.931 . S
C214 C213 1.395 . S
C214 C215 1.383 . S
C214 H237 0.931 . S
C215 C214 1.383 . S
C215 C216 1.394 . S
C216 C215 1.394 . S
C216 C217 1.378 . S
C216 H238 0.931 . S
C217 C212 1.377 . S
C217 C216 1.378 . S
C217 H239 0.931 . S
C218 O228 1.259 . S
C218 O229 1.270 . S
C219 O230 1.251 . S
C219 O231 1.251 . S
O220 C200 1.257 . S
O220 Eu201 2.473 . S
O221 C200 1.260 . S
O221 Eu201 2.480 . S
O222 Eu201 2.430 . S
O222 C208 1.259 . S
O223 Eu201 2.670 . S
O223 C208 1.270 . S
O223 Eu211 2.355 . S
O224 Eu201 2.394 . S
O224 C209 1.251 . S
O225 C209 1.251 . S
O225 Eu211 2.374 . S
O226 C210 1.257 . S
O226 Eu211 2.473 . S
O227 C210 1.260 . S
O227 Eu211 2.480 . S
O228 Eu211 2.430 . S
O228 C218 1.259 . S
O229 Eu201 2.355 . S
O229 Eu211 2.670 . S
O229 C218 1.270 . S
O230 Eu211 2.394 . S
O230 C219 1.251 . S
O231 Eu201 2.374 . S
O231 C219 1.251 . S
H232 C203 0.931 . S
H233 C204 0.931 . S
H234 C206 0.931 . S
H235 C207 0.931 . S
H236 C213 0.931 . S
H237 C214 0.931 . S
H238 C216 0.931 . S
H239 C217 0.931 . S
C240 Eu241 2.835 1_565 S
C240 C242 1.500 . S
C240 O260 1.257 1_565 S
C240 O261 1.260 . S
Eu241 C240 2.835 1_545 S
Eu241 O260 2.473 . S
Eu241 O261 2.480 1_545 S
Eu241 O262 2.430 . S
Eu241 O263 2.670 . S
Eu241 O264 2.394 . S
Eu241 O269 2.355 . S
Eu241 O271 2.374 . S
C242 C240 1.500 . S
C242 C243 1.377 . S
C242 C247 1.377 . S
C243 C242 1.377 . S
C243 C244 1.395 . S
C243 H272 0.931 . S
C244 C243 1.395 . S
C244 C245 1.383 . S
C244 H273 0.931 . S
C245 C244 1.383 . S
C245 C246 1.394 . S
C246 C245 1.394 . S
C246 C247 1.378 . S
C246 H274 0.931 . S
C247 C242 1.377 . S
C247 C246 1.378 . S
C247 H275 0.931 . S
C248 O262 1.259 . S
C248 O263 1.270 . S
C249 O264 1.251 . S
C249 O265 1.251 . S
C250 Eu251 2.835 . S
C250 C252 1.500 . S
C250 O266 1.257 . S
C250 O267 1.260 . S
Eu251 C250 2.835 . S
Eu251 O263 2.355 . S
Eu251 O265 2.374 . S
Eu251 O266 2.473 . S
Eu251 O267 2.480 . S
Eu251 O268 2.430 . S
Eu251 O269 2.670 . S
Eu251 O270 2.394 . S
C252 C250 1.500 . S
C252 C253 1.377 . S
C252 C257 1.377 . S
C253 C252 1.377 . S
C253 C254 1.395 . S
C253 H276 0.931 . S
C254 C253 1.395 . S
C254 C255 1.383 . S
C254 H277 0.931 . S
C255 C254 1.383 . S
C255 C256 1.394 . S
C256 C255 1.394 . S
C256 C257 1.378 . S
C256 H278 0.931 . S
C257 C252 1.377 . S
C257 C256 1.378 . S
C257 H279 0.931 . S
C258 O268 1.259 . S
C258 O269 1.270 . S
C259 O270 1.251 . S
C259 O271 1.251 . S
O260 C240 1.257 1_545 S
O260 Eu241 2.473 . S
O261 C240 1.260 . S
O261 Eu241 2.480 1_565 S
O262 Eu241 2.430 . S
O262 C248 1.259 . S
O263 Eu241 2.670 . S
O263 C248 1.270 . S
O263 Eu251 2.355 . S
O264 Eu241 2.394 . S
O264 C249 1.251 . S
O265 C249 1.251 . S
O265 Eu251 2.374 . S
O266 C250 1.257 . S
O266 Eu251 2.473 . S
O267 C250 1.260 . S
O267 Eu251 2.480 . S
O268 Eu251 2.430 . S
O268 C258 1.259 . S
O269 Eu241 2.355 . S
O269 Eu251 2.670 . S
O269 C258 1.270 . S
O270 Eu251 2.394 . S
O270 C259 1.251 . S
O271 Eu241 2.374 . S
O271 C259 1.251 . S
H272 C243 0.931 . S
H273 C244 0.931 . S
H274 C246 0.931 . S
H275 C247 0.931 . S
H276 C253 0.931 . S
H277 C254 0.931 . S
H278 C256 0.931 . S
H279 C257 0.931 . S
C280 Eu281 2.835 1_455 S
C280 C282 1.500 . S
C280 O300 1.257 . S
C280 O301 1.260 . S
Eu281 C280 2.835 1_655 S
Eu281 O300 2.473 1_655 S
Eu281 O301 2.480 1_655 S
Eu281 O302 2.430 . S
Eu281 O303 2.670 . S
Eu281 O304 2.394 . S
Eu281 O309 2.355 . S
Eu281 O311 2.374 . S
C282 C280 1.500 . S
C282 C283 1.377 . S
C282 C287 1.377 . S
C283 C282 1.377 . S
C283 C284 1.395 . S
C283 H312 0.931 . S
C284 C283 1.395 . S
C284 C285 1.383 . S
C284 H313 0.931 . S
C285 C284 1.383 . S
C285 C286 1.394 . S
C286 C285 1.394 . S
C286 C287 1.378 . S
C286 H314 0.931 . S
C287 C282 1.377 . S
C287 C286 1.378 . S
C287 H315 0.931 . S
C288 O302 1.259 . S
C288 O303 1.270 . S
C289 O304 1.251 . S
C289 O305 1.251 . S
C290 Eu291 2.835 . S
C290 C292 1.500 . S
C290 O306 1.257 . S
C290 O307 1.260 . S
Eu291 C290 2.835 . S
Eu291 O303 2.355 . S
Eu291 O305 2.374 . S
Eu291 O306 2.473 . S
Eu291 O307 2.480 . S
Eu291 O308 2.430 . S
Eu291 O309 2.670 . S
Eu291 O310 2.394 . S
C292 C290 1.500 . S
C292 C293 1.377 . S
C292 C297 1.377 . S
C293 C292 1.377 . S
C293 C294 1.395 . S
C293 H316 0.931 . S
C294 C293 1.395 . S
C294 C295 1.383 . S
C294 H317 0.931 . S
C295 C294 1.383 . S
C295 C296 1.394 . S
C296 C295 1.394 . S
C296 C297 1.378 . S
C296 H318 0.931 . S
C297 C292 1.377 . S
C297 C296 1.378 . S
C297 H319 0.931 . S
C298 O308 1.259 . S
C298 O309 1.270 . S
C299 O310 1.251 . S
C299 O311 1.251 . S
O300 C280 1.257 . S
O300 Eu281 2.473 1_455 S
O301 C280 1.260 . S
O301 Eu281 2.480 1_455 S
O302 Eu281 2.430 . S
O302 C288 1.259 . S
O303 Eu281 2.670 . S
O303 C288 1.270 . S
O303 Eu291 2.355 . S
O304 Eu281 2.394 . S
O304 C289 1.251 . S
O305 C289 1.251 . S
O305 Eu291 2.374 . S
O306 C290 1.257 . S
O306 Eu291 2.473 . S
O307 C290 1.260 . S
O307 Eu291 2.480 . S
O308 Eu291 2.430 . S
O308 C298 1.259 . S
O309 Eu281 2.355 . S
O309 Eu291 2.670 . S
O309 C298 1.270 . S
O310 Eu291 2.394 . S
O310 C299 1.251 . S
O311 Eu281 2.374 . S
O311 C299 1.251 . S
H312 C283 0.931 . S
H313 C284 0.931 . S
H314 C286 0.931 . S
H315 C287 0.931 . S
H316 C293 0.931 . S
H317 C294 0.931 . S
H318 C296 0.931 . S
H319 C297 0.931 . S
C320 Eu321 2.835 . S
C320 C322 1.500 . S
C320 O340 1.257 . S
C320 O341 1.260 . S
Eu321 C320 2.835 . S
Eu321 O340 2.473 . S
Eu321 O341 2.480 . S
Eu321 O342 2.430 . S
Eu321 O343 2.670 . S
Eu321 O344 2.394 . S
Eu321 O349 2.355 . S
Eu321 O351 2.374 . S
C322 C320 1.500 . S
C322 C323 1.377 . S
C322 C327 1.377 . S
C323 C322 1.377 . S
C323 C324 1.395 . S
C323 H352 0.931 . S
C324 C323 1.395 . S
C324 C325 1.383 . S
C324 H353 0.931 . S
C325 C324 1.383 . S
C325 C326 1.394 . S
C326 C325 1.394 . S
C326 C327 1.378 . S
C326 H354 0.931 . S
C327 C322 1.377 . S
C327 C326 1.378 . S
C327 H355 0.931 . S
C328 O342 1.259 . S
C328 O343 1.270 . S
C329 O344 1.251 . S
C329 O345 1.251 . S
C330 Eu331 2.835 . S
C330 C332 1.500 . S
C330 O346 1.257 . S
C330 O347 1.260 . S
Eu331 C330 2.835 . S
Eu331 O343 2.355 . S
Eu331 O345 2.374 . S
Eu331 O346 2.473 . S
Eu331 O347 2.480 . S
Eu331 O348 2.430 . S
Eu331 O349 2.670 . S
Eu331 O350 2.394 . S
C332 C330 1.500 . S
C332 C333 1.377 . S
C332 C337 1.377 . S
C333 C332 1.377 . S
C333 C334 1.395 . S
C333 H356 0.931 . S
C334 C333 1.395 . S
C334 C335 1.383 . S
C334 H357 0.931 . S
C335 C334 1.383 . S
C335 C336 1.394 . S
C336 C335 1.394 . S
C336 C337 1.378 . S
C336 H358 0.931 . S
C337 C332 1.377 . S
C337 C336 1.378 . S
C337 H359 0.931 . S
C338 O348 1.259 . S
C338 O349 1.270 . S
C339 O350 1.251 . S
C339 O351 1.251 . S
O340 C320 1.257 . S
O340 Eu321 2.473 . S
O341 C320 1.260 . S
O341 Eu321 2.480 . S
O342 Eu321 2.430 . S
O342 C328 1.259 . S
O343 Eu321 2.670 . S
O343 C328 1.270 . S
O343 Eu331 2.355 . S
O344 Eu321 2.394 . S
O344 C329 1.251 . S
O345 C329 1.251 . S
O345 Eu331 2.374 . S
O346 C330 1.257 . S
O346 Eu331 2.473 . S
O347 C330 1.260 . S
O347 Eu331 2.480 . S
O348 Eu331 2.430 . S
O348 C338 1.259 . S
O349 Eu321 2.355 . S
O349 Eu331 2.670 . S
O349 C338 1.270 . S
O350 Eu331 2.394 . S
O350 C339 1.251 . S
O351 Eu321 2.374 . S
O351 C339 1.251 . S
H352 C323 0.931 . S
H353 C324 0.931 . S
H354 C326 0.931 . S
H355 C327 0.931 . S
H356 C333 0.931 . S
H357 C334 0.931 . S
H358 C336 0.931 . S
H359 C337 0.931 . S
C360 C361 1.387 . S
C360 H364 0.950 . S
C360 C369 1.390 . S
C361 C360 1.387 . S
C361 C363 1.387 1_556 S
H362 C369 0.950 . S
C363 C361 1.387 1_554 S
C363 C365 1.390 . S
C363 H367 0.950 . S
H364 C360 0.950 . S
C365 C363 1.390 . S
C365 C366 1.387 1_554 S
C365 H368 0.950 . S
C366 C365 1.387 1_556 S
C366 C369 1.387 . S
H367 C363 0.950 . S
H368 C365 0.950 . S
C369 C360 1.390 . S
C369 H362 0.950 . S
C369 C366 1.387 . S
C370 C371 1.387 . S
C370 H374 0.950 . S
C370 C379 1.390 . S
C371 C370 1.387 . S
C371 C373 1.387 1_556 S
H372 C379 0.950 . S
C373 C371 1.387 1_554 S
C373 C375 1.390 . S
C373 H377 0.950 . S
H374 C370 0.950 . S
C375 C373 1.390 . S
C375 C376 1.387 1_554 S
C375 H378 0.950 . S
C376 C375 1.387 1_556 S
C376 C379 1.387 . S
H377 C373 0.950 . S
H378 C375 0.950 . S
C379 C370 1.390 . S
C379 H372 0.950 . S
C379 C376 1.387 . S
C380 C381 1.387 1_554 S
C380 H384 0.950 . S
C380 C389 1.390 . S
C381 C380 1.387 1_556 S
C381 C383 1.387 . S
H382 C389 0.950 . S
C383 C381 1.387 . S
C383 C385 1.390 . S
C383 H387 0.950 . S
H384 C380 0.950 . S
C385 C383 1.390 . S
C385 C386 1.387 . S
C385 H388 0.950 . S
C386 C385 1.387 . S
C386 C389 1.387 1_556 S
H387 C383 0.950 . S
H388 C385 0.950 . S
C389 C380 1.390 . S
C389 H382 0.950 . S
C389 C386 1.387 1_554 S
C390 C391 1.387 1_556 S
C390 H394 0.950 . S
C390 C399 1.390 . S
C391 C390 1.387 1_554 S
C391 C393 1.387 . S
H392 C399 0.950 . S
C393 C391 1.387 . S
C393 C395 1.390 . S
C393 H397 0.950 . S
H394 C390 0.950 . S
C395 C393 1.390 . S
C395 C396 1.387 . S
C395 H398 0.950 . S
C396 C395 1.387 . S
C396 C399 1.387 1_554 S
H397 C393 0.950 . S
H398 C395 0.950 . S
C399 C390 1.390 . S
C399 H392 0.950 . S
C399 C396 1.387 1_556 S
C400 C401 1.387 . S
C400 H404 0.950 . S
C400 C409 1.390 . S
C401 C400 1.387 . S
C401 C403 1.387 1_554 S
H402 C409 0.950 . S
C403 C401 1.387 1_556 S
C403 C405 1.390 . S
C403 H407 0.950 . S
H404 C400 0.950 . S
C405 C403 1.390 . S
C405 C406 1.387 1_556 S
C405 H408 0.950 . S
C406 C405 1.387 1_554 S
C406 C409 1.387 . S
H407 C403 0.950 . S
H408 C405 0.950 . S
C409 C400 1.390 . S
C409 H402 0.950 . S
C409 C406 1.387 . S
C410 C411 1.387 1_556 S
C410 H414 0.950 . S
C410 C419 1.390 . S
C411 C410 1.387 1_554 S
C411 C413 1.387 . S
H412 C419 0.950 . S
C413 C411 1.387 . S
C413 C415 1.390 . S
C413 H417 0.950 . S
H414 C410 0.950 . S
C415 C413 1.390 . S
C415 C416 1.387 . S
C415 H418 0.950 . S
C416 C415 1.387 . S
C416 C419 1.387 1_554 S
H417 C413 0.950 . S
H418 C415 0.950 . S
C419 C410 1.390 . S
C419 H412 0.950 . S
C419 C416 1.387 1_556 S
C420 C421 1.387 . S
C420 H424 0.950 . S
C420 C429 1.390 . S
C421 C420 1.387 . S
C421 C423 1.387 . S
H422 C429 0.950 . S
C423 C421 1.387 . S
C423 C425 1.390 . S
C423 H427 0.950 . S
H424 C420 0.950 . S
C425 C423 1.390 . S
C425 C426 1.387 . S
C425 H428 0.950 . S
C426 C425 1.387 . S
C426 C429 1.387 . S
H427 C423 0.950 . S
H428 C425 0.950 . S
C429 C420 1.390 . S
C429 H422 0.950 . S
C429 C426 1.387 . S
C430 C431 1.387 . S
C430 H434 0.950 . S
C430 C439 1.390 . S
C431 C430 1.387 . S
C431 C433 1.387 . S
H432 C439 0.950 . S
C433 C431 1.387 . S
C433 C435 1.390 . S
C433 H437 0.950 . S
H434 C430 0.950 . S
C435 C433 1.390 . S
C435 C436 1.387 . S
C435 H438 0.950 . S
C436 C435 1.387 . S
C436 C439 1.387 . S
H437 C433 0.950 . S
H438 C435 0.950 . S
C439 C430 1.390 . S
C439 H432 0.950 . S
C439 C436 1.387 . S
C440 C441 1.387 1_655 S
C440 H444 0.950 1_655 S
C440 C449 1.390 . S
C441 C440 1.387 1_455 S
C441 C443 1.387 1_455 S
H442 C449 0.950 . S
C443 C441 1.387 1_655 S
C443 C445 1.390 . S
C443 H447 0.949 1_655 S
H444 C440 0.950 1_455 S
C445 C443 1.390 . S
C445 C446 1.387 . S
C445 H448 0.950 . S
C446 C445 1.387 . S
C446 C449 1.387 . S
H447 C443 0.949 1_455 S
H448 C445 0.950 . S
C449 C440 1.390 . S
C449 H442 0.950 . S
C449 C446 1.387 . S
C450 C451 1.387 . S
C450 H454 0.950 . S
C450 C459 1.390 . S
C451 C450 1.387 . S
C451 C453 1.387 . S
H452 C459 0.950 . S
C453 C451 1.387 . S
C453 C455 1.390 . S
C453 H457 0.950 . S
H454 C450 0.950 . S
C455 C453 1.390 . S
C455 C456 1.387 . S
C455 H458 0.950 . S
C456 C455 1.387 . S
C456 C459 1.387 . S
H457 C453 0.950 . S
H458 C455 0.950 . S
C459 C450 1.390 . S
C459 H452 0.950 . S
C459 C456 1.387 . S
C460 C461 1.387 . S
C460 H464 0.950 . S
C460 C469 1.390 . S
C461 C460 1.387 . S
C461 C463 1.387 . S
H462 C469 0.950 . S
C463 C461 1.387 . S
C463 C465 1.390 . S
C463 H467 0.950 . S
H464 C460 0.950 . S
C465 C463 1.390 . S
C465 C466 1.387 . S
C465 H468 0.950 . S
C466 C465 1.387 . S
C466 C469 1.387 . S
H467 C463 0.950 . S
H468 C465 0.950 . S
C469 C460 1.390 . S
C469 H462 0.950 . S
C469 C466 1.387 . S
C470 C471 1.387 . S
C470 H474 0.950 . S
C470 C479 1.390 . S
C471 C470 1.387 . S
C471 C473 1.387 . S
H472 C479 0.950 . S
C473 C471 1.387 . S
C473 C475 1.390 . S
C473 H477 0.950 . S
H474 C470 0.950 . S
C475 C473 1.390 . S
C475 C476 1.387 . S
C475 H478 0.950 . S
C476 C475 1.387 . S
C476 C479 1.387 . S
H477 C473 0.950 . S
H478 C475 0.950 . S
C479 C470 1.390 . S
C479 H472 0.950 . S
C479 C476 1.387 . S
C480 C481 1.387 . S
C480 H484 0.950 . S
C480 C489 1.390 . S
C481 C480 1.387 . S
C481 C483 1.387 . S
H482 C489 0.950 . S
C483 C481 1.387 . S
C483 C485 1.390 . S
C483 H487 0.950 . S
H484 C480 0.950 . S
C485 C483 1.390 . S
C485 C486 1.387 . S
C485 H488 0.950 . S
C486 C485 1.387 . S
C486 C489 1.387 . S
H487 C483 0.950 . S
H488 C485 0.950 . S
C489 C480 1.390 . S
C489 H482 0.950 . S
C489 C486 1.387 . S
C490 C491 1.387 . S
C490 H494 0.950 . S
C490 C499 1.390 . S
C491 C490 1.387 . S
C491 C493 1.387 . S
H492 C499 0.950 . S
C493 C491 1.387 . S
C493 C495 1.390 . S
C493 H497 0.950 . S
H494 C490 0.950 . S
C495 C493 1.390 . S
C495 C496 1.387 . S
C495 H498 0.950 . S
C496 C495 1.387 . S
C496 C499 1.387 . S
H497 C493 0.950 . S
H498 C495 0.950 . S
C499 C490 1.390 . S
C499 H492 0.950 . S
C499 C496 1.387 . S
C500 C501 1.387 . S
C500 H504 0.950 . S
C500 C509 1.390 . S
C501 C500 1.387 . S
C501 C503 1.387 . S
H502 C509 0.950 . S
C503 C501 1.387 . S
C503 C505 1.390 . S
C503 H507 0.950 . S
H504 C500 0.950 . S
C505 C503 1.390 . S
C505 C506 1.387 . S
C505 H508 0.950 . S
C506 C505 1.387 . S
C506 C509 1.387 . S
H507 C503 0.950 . S
H508 C505 0.950 . S
C509 C500 1.390 . S
C509 H502 0.950 . S
C509 C506 1.387 . S
C510 C511 1.385 1_545 S
C510 H514 0.950 . S
C510 C519 1.390 . S
C511 C510 1.385 1_565 S
C511 C513 1.385 1_565 S
H512 C519 0.950 . S
C513 C511 1.385 1_545 S
C513 C515 1.390 . S
C513 H517 0.950 . S
H514 C510 0.950 . S
C515 C513 1.390 . S
C515 C516 1.387 . S
C515 H518 0.950 . S
C516 C515 1.387 . S
C516 C519 1.387 . S
H517 C513 0.950 . S
H518 C515 0.950 . S
C519 C510 1.390 . S
C519 H512 0.950 . S
C519 C516 1.387 . S
C520 C521 1.387 . S
C520 H524 0.950 . S
C520 C529 1.390 . S
C521 C520 1.387 . S
C521 C523 1.387 . S
H522 C529 0.950 1_455 S
C523 C521 1.387 . S
C523 C525 1.390 . S
C523 H527 0.950 . S
H524 C520 0.950 . S
C525 C523 1.390 . S
C525 C526 1.387 1_655 S
C525 H528 0.950 1_655 S
C526 C525 1.387 1_455 S
C526 C529 1.387 1_455 S
H527 C523 0.950 . S
H528 C525 0.950 1_455 S
C529 C520 1.390 . S
C529 H522 0.950 1_655 S
C529 C526 1.387 1_655 S
C530 C531 1.387 . S
C530 H534 0.950 . S
C530 C539 1.390 . S
C531 C530 1.387 . S
C531 C533 1.387 . S
H532 C539 0.950 . S
C533 C531 1.387 . S
C533 C535 1.390 . S
C533 H537 0.950 . S
H534 C530 0.950 . S
C535 C533 1.390 . S
C535 C536 1.387 . S
C535 H538 0.950 . S
C536 C535 1.387 . S
C536 C539 1.387 . S
H537 C533 0.950 . S
H538 C535 0.950 . S
C539 C530 1.390 . S
C539 H532 0.950 . S
C539 C536 1.387 . S
C540 C541 1.387 . S
C540 H544 0.950 . S
C540 C549 1.390 . S
C541 C540 1.387 . S
C541 C543 1.387 . S
H542 C549 0.950 . S
C543 C541 1.387 . S
C543 C545 1.390 . S
C543 H547 0.950 . S
H544 C540 0.950 . S
C545 C543 1.390 . S
C545 C546 1.387 . S
C545 H548 0.950 . S
C546 C545 1.387 . S
C546 C549 1.387 . S
H547 C543 0.950 . S
H548 C545 0.950 . S
C549 C540 1.390 . S
C549 H542 0.950 . S
C549 C546 1.387 . S
C550 C551 1.387 . S
C550 H554 0.950 . S
C550 C559 1.390 . S
C551 C550 1.387 . S
C551 C553 1.387 . S
H552 C559 0.950 . S
C553 C551 1.387 . S
C553 C555 1.390 . S
C553 H557 0.950 . S
H554 C550 0.950 . S
C555 C553 1.390 . S
C555 C556 1.387 . S
C555 H558 0.950 . S
C556 C555 1.387 . S
C556 C559 1.387 . S
H557 C553 0.950 . S
H558 C555 0.950 . S
C559 C550 1.390 . S
C559 H552 0.950 . S
C559 C556 1.387 . S
C560 C561 1.387 . S
C560 H564 0.950 . S
C560 C569 1.390 . S
C561 C560 1.387 . S
C561 C563 1.387 . S
H562 C569 0.950 . S
C563 C561 1.387 . S
C563 C565 1.390 . S
C563 H567 0.950 . S
H564 C560 0.950 . S
C565 C563 1.390 . S
C565 C566 1.387 . S
C565 H568 0.950 . S
C566 C565 1.387 . S
C566 C569 1.387 . S
H567 C563 0.950 . S
H568 C565 0.950 . S
C569 C560 1.390 . S
C569 H562 0.950 . S
C569 C566 1.387 . S
C570 C571 1.387 . S
C570 H574 0.950 . S
C570 C579 1.390 . S
C571 C570 1.387 . S
C571 C573 1.387 . S
H572 C579 0.950 . S
C573 C571 1.387 . S
C573 C575 1.390 . S
C573 H577 0.950 . S
H574 C570 0.950 . S
C575 C573 1.390 . S
C575 C576 1.387 . S
C575 H578 0.950 . S
C576 C575 1.387 . S
C576 C579 1.387 . S
H577 C573 0.950 . S
H578 C575 0.950 . S
C579 C570 1.390 . S
C579 H572 0.950 . S
C579 C576 1.387 . S
C580 C581 1.387 . S
C580 H584 0.950 . S
C580 C589 1.390 . S
C581 C580 1.387 . S
C581 C583 1.387 . S
H582 C589 0.950 . S
C583 C581 1.387 . S
C583 C585 1.390 . S
C583 H587 0.939 1_655 S
H584 C580 0.950 . S
C585 C583 1.390 . S
C585 C586 1.387 . S
C585 H588 0.950 . S
C586 C585 1.387 . S
C586 C589 1.387 . S
H587 C583 0.939 1_455 S
H588 C585 0.950 . S
C589 C580 1.390 . S
C589 H582 0.950 . S
C589 C586 1.387 . S
C590 C591 1.387 . S
C590 H594 0.950 . S
C590 C599 1.390 . S
C591 C590 1.387 . S
C591 C593 1.387 . S
H592 C599 0.950 . S
C593 C591 1.387 . S
C593 C595 1.390 . S
C593 H597 0.950 . S
H594 C590 0.950 . S
C595 C593 1.390 . S
C595 C596 1.387 . S
C595 H598 0.950 . S
C596 C595 1.387 . S
C596 C599 1.387 . S
H597 C593 0.950 . S
H598 C595 0.950 . S
C599 C590 1.390 . S
C599 H592 0.950 . S
C599 C596 1.387 . S
C600 C601 1.387 . S
C600 H604 0.950 . S
C600 C609 1.390 . S
C601 C600 1.387 . S
C601 C603 1.387 . S
H602 C609 0.950 . S
C603 C601 1.387 . S
C603 C605 1.390 . S
C603 H607 0.950 . S
H604 C600 0.950 . S
C605 C603 1.390 . S
C605 C606 1.387 . S
C605 H608 0.950 . S
C606 C605 1.387 . S
C606 C609 1.387 . S
H607 C603 0.950 . S
H608 C605 0.950 . S
C609 C600 1.390 . S
C609 H602 0.950 . S
C609 C606 1.387 . S
C610 C611 1.387 . S
C610 H614 0.950 . S
C610 C619 1.390 1_565 S
C611 C610 1.387 . S
C611 C613 1.387 . S
H612 C619 0.950 . S
C613 C611 1.387 . S
C613 C615 1.390 1_565 S
C613 H617 0.950 . S
H614 C610 0.950 . S
C615 C613 1.390 1_545 S
C615 C616 1.387 . S
C615 H618 0.950 . S
C616 C615 1.387 . S
C616 C619 1.387 . S
H617 C613 0.950 . S
H618 C615 0.950 . S
C619 C610 1.390 1_545 S
C619 H612 0.950 . S
C619 C616 1.387 . S
C620 C621 1.387 . S
C620 H624 0.950 . S
C620 C629 1.390 1_655 S
C621 C620 1.387 . S
C621 C623 1.387 . S
H622 C629 0.950 . S
C623 C621 1.387 . S
C623 C625 1.390 1_655 S
C623 H627 0.950 . S
H624 C620 0.950 . S
C625 C623 1.390 1_455 S
C625 C626 1.387 . S
C625 H628 0.950 . S
C626 C625 1.387 . S
C626 C629 1.387 . S
H627 C623 0.950 . S
H628 C625 0.950 . S
C629 C620 1.390 1_455 S
C629 H622 0.950 . S
C629 C626 1.387 . S
C361 C55 1.717 . S
C366 C19 1.773 . S
C371 C95 1.716 . S
C376 C59 1.773 . S
C381 C99 1.770 . S
C386 C15 1.713 . S
C391 C85 1.526 . S
C396 C49 1.474 . S
C401 C89 1.479 . S
C406 C5 1.529 . S
C411 C9 1.474 . S
C416 C45 1.526 . S
C421 C139 1.773 . S
C426 C175 1.717 . S
C431 C215 1.716 . S
C436 C179 1.773 1_545 S
C441 C219 1.773 . S
C446 C135 1.716 . S
C451 C169 1.478 . S
C456 C205 1.529 . S
C461 C209 1.479 . S
C466 C125 1.529 . S
C471 C165 1.526 . S
C476 C129 1.474 . S
C481 C295 1.717 . S
C486 C259 1.773 . S
C491 C299 1.773 . S
C496 C335 1.716 . S
C501 C339 1.773 . S
C506 C255 1.716 . S
C511 C325 1.532 . S
C516 C289 1.474 . S
C521 C329 1.474 . S
C526 C245 1.526 . S
C531 C249 1.474 . S
C536 C285 1.526 . S
C541 C218 2.710 . S
C546 C8 2.236 . S
C551 C138 2.710 . S
C556 C48 2.238 . S
C561 C88 2.233 1_565 S
C566 C178 2.710 . S
C571 C98 2.709 . S
C576 C248 2.235 . S
C581 C18 2.709 . S
C586 C288 2.234 . S
C591 C328 2.238 . S
C596 C58 2.710 . S
C601 C128 2.236 . S
C606 C338 2.710 . S
C611 C168 2.237 . S
C616 C258 2.710 . S
C621 C298 2.710 . S
C626 C208 2.237 . S
