# Generated by pormake.
# Topology vby, (6)-cn, num edge types: 1
# Building blocks:
#     Node 0, Type 0, BuildingBlock: BETDEL_clean_sbu_0, # of connection points: 6
#     Node 1, Type 0, BuildingBlock: BETDEL_clean_sbu_0, # of connection points: 6
#     Node 2, Type 0, BuildingBlock: BETDEL_clean_sbu_0, # of connection points: 6
#     Node 3, Type 0, BuildingBlock: BETDEL_clean_sbu_0, # of connection points: 6
#     Node 4, Type 0, BuildingBlock: BETDEL_clean_sbu_0, # of connection points: 6
#     Node 5, Type 0, BuildingBlock: BETDEL_clean_sbu_0, # of connection points: 6
#     Node 6, Type 0, BuildingBlock: BETDEL_clean_sbu_0, # of connection points: 6
#     Node 7, Type 0, BuildingBlock: BETDEL_clean_sbu_0, # of connection points: 6
#     Edge 8, Type (0, 0), BuildingBlock: MIFKUJ_clean_linker_0, # of connection points: 2
#     Edge 9, Type (0, 0), BuildingBlock: MIFKUJ_clean_linker_0, # of connection points: 2
#     Edge 10, Type (0, 0), BuildingBlock: MIFKUJ_clean_linker_0, # of connection points: 2
#     Edge 11, Type (0, 0), BuildingBlock: MIFKUJ_clean_linker_0, # of connection points: 2
#     Edge 12, Type (0, 0), BuildingBlock: MIFKUJ_clean_linker_0, # of connection points: 2
#     Edge 13, Type (0, 0), BuildingBlock: MIFKUJ_clean_linker_0, # of connection points: 2
#     Edge 14, Type (0, 0), BuildingBlock: MIFKUJ_clean_linker_0, # of connection points: 2
#     Edge 15, Type (0, 0), BuildingBlock: MIFKUJ_clean_linker_0, # of connection points: 2
#     Edge 16, Type (0, 0), BuildingBlock: MIFKUJ_clean_linker_0, # of connection points: 2
#     Edge 17, Type (0, 0), BuildingBlock: MIFKUJ_clean_linker_0, # of connection points: 2
#     Edge 18, Type (0, 0), BuildingBlock: MIFKUJ_clean_linker_0, # of connection points: 2
#     Edge 19, Type (0, 0), BuildingBlock: MIFKUJ_clean_linker_0, # of connection points: 2
#     Edge 20, Type (0, 0), BuildingBlock: MIFKUJ_clean_linker_0, # of connection points: 2
#     Edge 21, Type (0, 0), BuildingBlock: MIFKUJ_clean_linker_0, # of connection points: 2
#     Edge 22, Type (0, 0), BuildingBlock: MIFKUJ_clean_linker_0, # of connection points: 2
#     Edge 23, Type (0, 0), BuildingBlock: MIFKUJ_clean_linker_0, # of connection points: 2
#     Edge 24, Type (0, 0), BuildingBlock: MIFKUJ_clean_linker_0, # of connection points: 2
#     Edge 25, Type (0, 0), BuildingBlock: MIFKUJ_clean_linker_0, # of connection points: 2
#     Edge 26, Type (0, 0), BuildingBlock: MIFKUJ_clean_linker_0, # of connection points: 2
#     Edge 27, Type (0, 0), BuildingBlock: MIFKUJ_clean_linker_0, # of connection points: 2
#     Edge 28, Type (0, 0), BuildingBlock: MIFKUJ_clean_linker_0, # of connection points: 2
#     Edge 29, Type (0, 0), BuildingBlock: MIFKUJ_clean_linker_0, # of connection points: 2
#     Edge 30, Type (0, 0), BuildingBlock: MIFKUJ_clean_linker_0, # of connection points: 2
#     Edge 31, Type (0, 0), BuildingBlock: MIFKUJ_clean_linker_0, # of connection points: 2
# Relax obj value: 0.118
# Max RMSD: 0.160
# Mean RMSD: 0.160
data_MOF--net-vby--node1-BETDEL_clean_sbu_0--edge1-MIFKUJ_clean_linker_0
_symmetry_space_group_name_H-M    P1
_symmetry_Int_Tables_number       1
_symmetry_cell_setting            triclinic
loop_
_symmetry_equiv_pos_as_xyz
'x, y, z'
_cell_length_a     20.004166
_cell_length_b     88.404958
_cell_length_c     37.594343
_cell_angle_alpha  89.659769
_cell_angle_beta   86.355876
_cell_angle_gamma 89.955511
loop_
_atom_site_label
_atom_site_type_symbol
_atom_site_fract_x
_atom_site_fract_y
_atom_site_fract_z
_atom_type_partial_charge
Dy0 Dy 0.07216 0.40154 0.01369 0.0
C1 C 0.09902 0.33622 0.03047 0.0
C2 C 0.04863 0.43195 1.008 0.0
Dy3 Dy 0.07646 0.36575 0.01251 0.0
O4 O 0.02272 0.42309 0.03284 0.0
O5 O 0.08735 0.42416 0.98576 0.0
O6 O 0.1124 0.40043 0.06787 0.0
O7 O 0.04944 0.38311 0.05241 0.0
C8 C 0.08487 0.38757 0.07694 0.0
C9 C 0.08578 0.37697 0.9453 0.0
O10 O 0.96572 0.36962 0.01948 0.0
O11 O 0.96728 0.39507 1.00225 0.0
O12 O 0.05542 0.34077 1.00843 0.0
O13 O 0.12766 0.34788 0.04394 0.0
O14 O 0.08745 0.36263 0.95268 0.0
O15 O 0.08107 0.38406 0.97421 0.0
O16 O 0.18154 0.39794 1.00044 0.0
O17 O 0.18331 0.37259 0.01753 0.0
C18 C 0.93485 0.38223 1.01004 0.0
C19 C 0.21426 0.38537 1.00792 0.0
Dy20 Dy 0.93333 0.65997 0.02239 0.0
C21 C 0.96104 0.59395 0.01793 0.0
C22 C 0.91347 0.6902 1.01047 0.0
Dy23 Dy 0.93851 0.62451 0.01588 0.0
O24 O 0.94351 0.68445 0.03705 0.0
O25 O 0.89683 0.67941 0.98934 0.0
O26 O 0.92079 0.66155 0.08248 0.0
O27 O 0.92755 0.64068 0.05829 0.0
C28 C 0.92246 0.64708 0.08817 0.0
C29 C 0.92915 0.64017 0.95417 0.0
O30 O 0.82873 0.62779 0.02879 0.0
O31 O 0.82668 0.65351 0.01542 0.0
O32 O 0.98808 0.60329 0.99444 0.0
O33 O 0.92179 0.60133 0.04069 0.0
O34 O 0.90029 0.62728 0.9614 0.0
O35 O 0.96364 0.64379 0.97988 0.0
O36 O 0.04429 0.6565 0.01774 0.0
O37 O 0.0425 0.63056 0.0302 0.0
C38 C 0.79581 0.64052 0.02303 0.0
C39 C 0.07483 0.64365 0.02564 0.0
Dy40 Dy 0.07896 0.65712 0.51071 0.0
C41 C 0.0504 0.59113 0.50945 0.0
C42 C 0.10361 0.6866 0.5276 0.0
Dy43 Dy 0.0738 0.62158 0.51379 0.0
O44 O 0.05771 0.68217 0.5069 0.0
O45 O 0.13337 0.67486 0.54032 0.0
O46 O 0.08971 0.66019 0.4508 0.0
O47 O 0.08399 0.63875 0.47281 0.0
C48 C 0.08827 0.64586 0.44364 0.0
C49 C 0.08405 0.63584 0.57689 0.0
O50 O 0.18344 0.62486 0.5007 0.0
O51 O 0.18541 0.65014 0.51721 0.0
O52 O 0.02392 0.60008 0.53372 0.0
O53 O 0.08952 0.59886 0.4871 0.0
O54 O 0.11249 0.62304 0.56849 0.0
O55 O 0.04955 0.64012 0.55166 0.0
O56 O 0.96801 0.65343 0.51715 0.0
O57 O 0.96995 0.62807 0.50012 0.0
C58 C 0.21639 0.63734 0.50814 0.0
C59 C 0.93738 0.64093 0.50718 0.0
Dy60 Dy 0.94529 0.39826 0.51367 0.0
C61 C 0.91492 0.33417 0.51883 0.0
C62 C 0.96604 0.42894 0.51619 0.0
Dy63 Dy 0.94515 0.36446 0.51961 0.0
O64 O 0.98584 0.42015 0.49013 0.0
O65 O 0.93496 0.42096 0.54123 0.0
O66 O 0.89601 0.39661 0.46196 0.0
O67 O 0.96492 0.38 0.4748 0.0
C68 C 0.92489 0.38406 0.4519 0.0
C69 C 0.9748 0.37842 0.57959 0.0
O70 O 0.05372 0.36732 0.50355 0.0
O71 O 0.05402 0.39267 0.51914 0.0
O72 O 0.91239 0.34273 0.54673 0.0
O73 O 0.936 0.34208 0.49102 0.0
O74 O 1.00071 0.36566 0.56883 0.0
O75 O 0.93033 0.38274 0.55915 0.0
O76 O 0.83603 0.39545 0.5278 0.0
O77 O 0.83654 0.36994 0.51492 0.0
C78 C 0.08621 0.37998 0.51007 0.0
C79 C 0.80403 0.38265 0.52261 0.0
Dy80 Dy 0.56433 0.90083 1.00981 0.0
C81 C 0.59648 0.83677 1.00461 0.0
C82 C 0.54207 0.93151 1.00885 0.0
Dy83 Dy 0.56767 0.86712 1.00198 0.0
O84 O 0.52627 0.92245 0.03528 0.0
O85 O 0.56992 0.9238 0.98254 0.0
O86 O 0.61366 0.89846 0.06157 0.0
O87 O 0.54598 0.88194 0.04744 0.0
C88 C 0.58529 0.88572 0.07079 0.0
C89 C 0.53613 0.88149 0.94242 0.0
O90 O 0.45817 0.86934 0.01612 0.0
O91 O 0.45543 0.89529 1.00582 0.0
O92 O 0.60574 0.84548 0.97687 0.0
O93 O 0.57011 0.84459 0.03115 0.0
O94 O 0.51293 0.86835 0.95265 0.0
O95 O 0.57984 0.886 0.96312 0.0
O96 O 0.67406 0.89879 0.99679 0.0
O97 O 0.67651 0.87284 1.00534 0.0
C98 C 0.42489 0.88216 0.01234 0.0
C99 C 0.70722 0.88597 0.9997 0.0
Dy100 Dy 0.43326 0.15981 0.02267 0.0
C101 C 0.45907 0.09363 0.02328 0.0
C102 C 0.4096 0.18946 1.0062 0.0
Dy103 Dy 0.43657 0.12417 0.01967 0.0
O104 O 0.45449 0.18477 0.02734 0.0
O105 O 0.38027 0.17789 0.99278 0.0
O106 O 0.42616 0.16264 0.08245 0.0
O107 O 0.4304 0.14122 0.06059 0.0
C108 C 0.42786 0.14828 0.08964 0.0
C109 C 0.42096 0.13878 0.95728 0.0
O110 O 0.32771 0.12768 0.03441 0.0
O111 O 0.32576 0.15319 0.01889 0.0
O112 O 0.48152 0.10258 0.99775 0.0
O113 O 0.42453 0.10141 0.04736 0.0
O114 O 0.39335 0.1259 0.96618 0.0
O115 O 0.45786 0.14287 0.98152 0.0
O116 O 0.54381 0.15592 0.01379 0.0
O117 O 0.54264 0.13029 0.02933 0.0
C118 C 0.29487 0.14035 0.02802 0.0
C119 C 0.57499 0.14317 0.02191 0.0
Dy120 Dy 0.57098 0.15705 0.51635 0.0
C121 C 0.56694 0.09105 0.5052 0.0
C122 C 0.6021 0.1872 0.51808 0.0
Dy123 Dy 0.57108 0.12143 0.51826 0.0
O124 O 0.61169 0.17839 0.49077 0.0
O125 O 0.5738 0.17959 0.54482 0.0
O126 O 0.51564 0.1561 0.46703 0.0
O127 O 0.58523 0.13882 0.47631 0.0
C128 C 0.54118 0.14336 0.4558 0.0
C129 C 0.56686 0.13236 0.58559 0.0
O130 O 0.68059 0.12584 0.50663 0.0
O131 O 0.67933 0.15138 0.52112 0.0
O132 O 0.60489 0.09761 0.52718 0.0
O133 O 0.53192 0.10118 0.48922 0.0
O134 O 0.56725 0.11809 0.57795 0.0
O135 O 0.56898 0.13966 0.5567 0.0
O136 O 0.46399 0.15291 0.53483 0.0
O137 O 0.46169 0.12743 0.51834 0.0
C138 C 0.71186 0.13864 0.51329 0.0
C139 C 0.43105 0.14019 0.5288 0.0
Dy140 Dy 0.44568 0.89898 0.50854 0.0
C141 C 0.4133 0.83374 0.49992 0.0
C142 C 0.46788 0.92953 0.5099 0.0
Dy143 Dy 0.44065 0.8633 0.51452 0.0
O144 O 0.48034 0.92082 0.48262 0.0
O145 O 0.44363 0.92152 0.5369 0.0
O146 O 0.40543 0.89635 0.45458 0.0
O147 O 0.47019 0.87982 0.47255 0.0
C148 C 0.43496 0.88356 0.44722 0.0
C149 C 0.43088 0.87584 0.58016 0.0
O150 O 0.55165 0.86683 0.50707 0.0
O151 O 0.5513 0.89273 0.5197 0.0
O152 O 0.38482 0.84543 0.4862 0.0
O153 O 0.45954 0.83823 0.52037 0.0
O154 O 0.4296 0.86136 0.57481 0.0
O155 O 0.43543 0.88227 0.55023 0.0
O156 O 0.33642 0.89579 0.52262 0.0
O157 O 0.33457 0.87039 0.50695 0.0
C158 C 0.58298 0.8796 0.51459 0.0
C159 C 0.30359 0.88326 0.51547 0.0
H160 H 0.30013 0.40956 0.99775 0.0
H161 H 0.42268 0.40921 0.99714 0.0
H162 H 0.41878 0.36087 0.01342 0.0
H163 H 0.29707 0.36113 0.01473 0.0
H164 H 0.50209 0.37351 0.05615 0.0
H165 H 0.46324 0.37699 0.93124 0.0
H166 H 0.41639 0.38813 0.87791 0.0
H167 H 0.52048 0.42969 0.89474 0.0
H168 H 0.56726 0.41885 0.94846 0.0
H169 H 0.84791 0.35817 0.01764 0.0
H170 H 0.72583 0.35871 0.01586 0.0
H171 H 0.73235 0.40697 0.99829 0.0
H172 H 0.85389 0.40651 0.99919 0.0
H173 H 0.64772 0.39459 0.95625 0.0
H174 H 0.68642 0.39129 0.08098 0.0
H175 H 0.73339 0.38031 0.13447 0.0
H176 H 0.62935 0.33868 0.11836 0.0
H177 H 0.58248 0.34935 0.06448 0.0
C178 C 0.32539 0.39886 1.00106 0.0
C179 C 0.28858 0.38539 1.00631 0.0
C180 C 0.39549 0.39866 1.0006 0.0
C181 C 0.43004 0.38498 1.00498 0.0
C182 C 0.39333 0.37156 1.01009 0.0
C183 C 0.32353 0.37175 0.01074 0.0
C184 C 0.50437 0.38456 1.00484 0.0
C185 C 0.53392 0.37796 0.03409 0.0
C186 C 0.54601 0.39066 0.97647 0.0
C187 C 0.51821 0.39716 0.94407 0.0
C188 C 0.47574 0.38854 0.92371 0.0
C189 C 0.44926 0.39479 0.89339 0.0
C190 C 0.4653 0.40962 0.883 0.0
C191 C 0.50802 0.41821 0.90285 0.0
C192 C 0.53457 0.41201 0.93322 0.0
C193 C 0.82339 0.36889 0.01336 0.0
C194 C 0.86088 0.38229 1.00868 0.0
C195 C 0.75352 0.3692 0.01248 0.0
C196 C 0.71974 0.38292 1.00737 0.0
C197 C 0.75718 0.39625 1.00225 0.0
C198 C 0.82686 0.39595 1.00288 0.0
C199 C 0.64542 0.38349 1.0075 0.0
C200 C 0.61589 0.39014 0.9783 0.0
C201 C 0.60375 0.37746 0.03596 0.0
C202 C 0.63147 0.37107 0.06851 0.0
C203 C 0.67393 0.37976 0.08871 0.0
C204 C 0.70048 0.3736 0.11912 0.0
C205 C 0.6845 0.3588 0.12976 0.0
C206 C 0.64176 0.35014 0.11006 0.0
C207 C 0.61515 0.35624 0.07961 0.0
H208 H 0.70512 0.35405 0.1533 0.0
H209 H 0.44475 0.41444 0.85952 0.0
H210 H 0.1614 0.66778 0.02008 0.0
H211 H 0.28325 0.6673 0.02252 0.0
H212 H 0.27689 0.61904 0.0401 0.0
H213 H 0.15533 0.61945 0.03856 0.0
H214 H 0.36439 0.63159 0.08097 0.0
H215 H 0.31804 0.63468 0.95685 0.0
H216 H 0.26737 0.64581 0.90456 0.0
H217 H 0.37348 0.6873 0.91891 0.0
H218 H 0.42402 0.67651 0.97161 0.0
H219 H 0.71007 0.61635 0.03421 0.0
H220 H 0.58739 0.61673 0.03667 0.0
H221 H 0.59077 0.665 0.0191 0.0
H222 H 0.71258 0.66471 0.016 0.0
H223 H 0.50455 0.65224 0.97841 0.0
H224 H 0.55131 0.64929 0.1021 0.0
H225 H 0.6009 0.6385 0.15503 0.0
H226 H 0.49417 0.59699 0.14187 0.0
H227 H 0.44466 0.60746 0.08853 0.0
C228 C 0.18583 0.65707 0.02463 0.0
C229 C 0.14844 0.64364 0.02871 0.0
C230 C 0.25559 0.6568 0.0259 0.0
C231 C 0.28942 0.64308 0.03084 0.0
C232 C 0.25202 0.62975 0.03609 0.0
C233 C 0.18236 0.63002 0.03504 0.0
C234 C 0.36382 0.64249 0.02959 0.0
C235 C 0.39506 0.63594 0.05835 0.0
C236 C 0.40394 0.64841 1.00038 0.0
C237 C 0.37431 0.65483 0.96838 0.0
C238 C 0.33025 0.64621 0.94899 0.0
C239 C 0.30158 0.65245 0.91927 0.0
C240 C 0.31708 0.66726 0.9085 0.0
C241 C 0.36146 0.67584 0.92733 0.0
C242 C 0.39016 0.66966 0.95711 0.0
C243 C 0.68471 0.62704 0.03092 0.0
C244 C 0.72142 0.64048 0.02491 0.0
C245 C 0.61452 0.62726 0.03249 0.0
C246 C 0.57975 0.64093 0.02839 0.0
C247 C 0.61636 0.65431 0.0223 0.0
C248 C 0.68625 0.65411 0.02061 0.0
C249 C 0.50528 0.64137 0.02984 0.0
C250 C 0.47398 0.64788 1.00105 0.0
C251 C 0.46519 0.63541 0.05901 0.0
C252 C 0.49487 0.6291 0.09109 0.0
C253 C 0.53886 0.63781 0.11031 0.0
C254 C 0.56687 0.63176 0.14042 0.0
C255 C 0.55085 0.61705 0.15174 0.0
C256 C 0.50663 0.60837 0.13303 0.0
C257 C 0.47856 0.61436 0.10287 0.0
H258 H 0.57257 0.61239 0.17507 0.0
H259 H 0.29482 0.67208 0.88554 0.0
H260 H 0.84761 0.66343 0.52658 0.0
H261 H 0.72559 0.66269 0.52467 0.0
H262 H 0.73826 0.61786 0.48009 0.0
H263 H 0.85988 0.61858 0.48127 0.0
H264 H 0.64774 0.63422 0.44792 0.0
H265 H 0.69628 0.62317 0.56842 0.0
H266 H 0.74747 0.62762 0.62536 0.0
H267 H 0.63752 0.66914 0.6388 0.0
H268 H 0.58647 0.66507 0.58157 0.0
H269 H 0.3028 0.61443 0.48636 0.0
H270 H 0.42556 0.61472 0.48467 0.0
H271 H 0.42078 0.66022 0.52551 0.0
H272 H 0.29894 0.66003 0.52755 0.0
H273 H 0.50749 0.64278 0.55963 0.0
H274 H 0.45927 0.65342 0.43798 0.0
H275 H 0.40955 0.64852 0.38081 0.0
H276 H 0.51928 0.60686 0.37004 0.0
H277 H 0.56893 0.6114 0.42744 0.0
C278 C 0.82452 0.65345 0.51616 0.0
C279 C 0.86366 0.641 0.50448 0.0
C280 C 0.75468 0.65302 0.51523 0.0
C281 C 0.72262 0.64011 0.50279 0.0
C282 C 0.76175 0.6279 0.48998 0.0
C283 C 0.83143 0.62832 0.49088 0.0
C284 C 0.64828 0.63913 0.50395 0.0
C285 C 0.6171 0.63591 0.47243 0.0
C286 C 0.60818 0.6415 0.53585 0.0
C287 C 0.63806 0.64389 0.57052 0.0
C288 C 0.68335 0.6333 0.58339 0.0
C289 C 0.71231 0.63575 0.61574 0.0
C290 C 0.69589 0.64867 0.63566 0.0
C291 C 0.65027 0.65915 0.62332 0.0
C292 C 0.62128 0.65677 0.59093 0.0
C293 C 0.32787 0.62449 0.495 0.0
C294 C 0.29078 0.63721 0.50701 0.0
C295 C 0.39807 0.62466 0.49389 0.0
C296 C 0.43242 0.63754 0.50473 0.0
C297 C 0.39545 0.65015 0.51703 0.0
C298 C 0.32558 0.65002 0.51804 0.0
C299 C 0.50686 0.63799 0.50353 0.0
C300 C 0.53811 0.64107 0.53511 0.0
C301 C 0.54696 0.63539 0.47175 0.0
C302 C 0.51719 0.63266 0.43722 0.0
C303 C 0.47233 0.64314 0.42358 0.0
C304 C 0.44425 0.64045 0.3911 0.0
C305 C 0.46107 0.62737 0.37186 0.0
C306 C 0.50618 0.61698 0.38501 0.0
C307 C 0.53433 0.61961 0.41751 0.0
H308 H 0.4393 0.6253 0.34671 0.0
H309 H 0.71843 0.65056 0.66067 0.0
H310 H 0.72335 0.35819 0.5145 0.0
H311 H 0.60187 0.35764 0.51341 0.0
H312 H 0.59376 0.40572 0.53198 0.0
H313 H 0.71615 0.4064 0.53347 0.0
H314 H 0.49484 0.38994 0.57206 0.0
H315 H 0.58019 0.39256 0.44909 0.0
H316 H 0.65178 0.38427 0.39699 0.0
H317 H 0.55896 0.34046 0.40265 0.0
H318 H 0.48741 0.34844 0.45509 0.0
H319 H 0.16841 0.40391 0.52099 0.0
H320 H 0.28978 0.40382 0.52325 0.0
H321 H 0.29435 0.35607 0.50034 0.0
H322 H 0.17226 0.35606 0.4976 0.0
H323 H 0.39502 0.37109 0.46316 0.0
H324 H 0.30757 0.3679 0.58373 0.0
H325 H 0.23536 0.37528 0.63637 0.0
H326 H 0.33194 0.41862 0.6372 0.0
H327 H 0.40383 0.41162 0.58407 0.0
C328 C 0.69603 0.36869 0.51851 0.0
C329 C 0.72976 0.38239 0.5238 0.0
C330 C 0.6264 0.36833 0.51779 0.0
C331 C 0.58883 0.38167 0.52209 0.0
C332 C 0.62191 0.3953 0.52847 0.0
C333 C 0.69185 0.39568 0.52922 0.0
C334 C 0.51522 0.38135 0.519 0.0
C335 C 0.47296 0.38603 0.5481 0.0
C336 C 0.48673 0.37578 0.48812 0.0
C337 C 0.5288 0.37106 0.45616 0.0
C338 C 0.57529 0.38113 0.43933 0.0
C339 C 0.61584 0.37649 0.40973 0.0
C340 C 0.61003 0.36184 0.39656 0.0
C341 C 0.56347 0.35181 0.4129 0.0
C342 C 0.52283 0.35639 0.44252 0.0
C343 C 0.19499 0.39337 0.51626 0.0
C344 C 0.16038 0.37995 0.50935 0.0
C345 C 0.26451 0.39334 0.51769 0.0
C346 C 0.30104 0.37989 0.51254 0.0
C347 C 0.26706 0.36656 0.50455 0.0
C348 C 0.19728 0.36657 0.50306 0.0
C349 C 0.37453 0.3798 0.51611 0.0
C350 C 0.41679 0.37501 0.48715 0.0
C351 C 0.40296 0.38512 0.54727 0.0
C352 C 0.36071 0.38928 0.57967 0.0
C353 C 0.31312 0.37905 0.59497 0.0
C354 C 0.27224 0.38316 0.62491 0.0
C355 C 0.27897 0.39742 0.64007 0.0
C356 C 0.32674 0.40758 0.62539 0.0
C357 C 0.36758 0.40355 0.59536 0.0
H358 H 0.24725 0.40058 0.66324 0.0
H359 H 0.64151 0.35826 0.37367 0.0
H360 H 0.7921 0.86462 0.97113 0.0
H361 H 0.9142 0.8641 0.97111 0.0
H362 H 0.91071 0.90663 0.02719 0.0
H363 H 0.78871 0.90764 0.02482 0.0
H364 H 0.01103 0.90698 0.98283 0.0
H365 H 0.92845 0.86793 0.06776 0.0
H366 H 0.87072 0.84431 0.08707 0.0
H367 H 0.9891 0.81942 1.00811 0.0
H368 H 0.047 0.84286 0.98816 0.0
H369 H 0.33943 0.9033 0.0412 0.0
H370 H 0.21728 0.90376 0.04019 0.0
H371 H 0.22312 0.8615 0.98299 0.0
H372 H 0.34489 0.86055 0.98627 0.0
H373 H 0.12241 0.86104 0.02691 0.0
H374 H 0.21129 0.8984 0.94455 0.0
H375 H 0.27957 0.92078 0.92782 0.0
H376 H 0.15237 0.94845 0.99679 0.0
H377 H 0.08559 0.92604 0.01579 0.0
C378 C 0.8176 0.8739 0.9832 0.0
C379 C 0.78113 0.88614 0.99811 0.0
C380 C 0.88742 0.87353 0.98353 0.0
C381 C 0.92203 0.88508 1.00018 0.0
C382 C 0.88548 0.89751 0.01435 0.0
C383 C 0.81575 0.89811 0.01301 0.0
C384 C 0.99604 0.88427 1.00296 0.0
C385 C 0.03519 0.89699 0.99291 0.0
C386 C 0.02844 0.87108 0.01496 0.0
C387 C 0.99167 0.85716 0.02634 0.0
C388 C 0.94167 0.85744 0.05434 0.0
C389 C 0.90903 0.84407 0.06542 0.0
C390 C 0.92634 0.83038 0.04879 0.0
C391 C 0.97584 0.83003 0.02094 0.0
C392 C 0.00856 0.84333 1.00977 0.0
C393 C 0.31432 0.89405 0.02877 0.0
C394 C 0.35122 0.8819 0.01373 0.0
C395 C 0.24463 0.89437 0.02793 0.0
C396 C 0.21085 0.88288 1.01062 0.0
C397 C 0.24783 0.87055 0.99637 0.0
C398 C 0.31736 0.86999 0.99823 0.0
C399 C 0.13722 0.88373 1.00701 0.0
C400 C 0.09823 0.87104 0.01683 0.0
C401 C 0.10527 0.89686 0.99437 0.0
C402 C 0.14368 0.91047 0.98184 0.0
C403 C 0.19801 0.90922 0.95636 0.0
C404 C 0.23656 0.92192 0.94651 0.0
C405 C 0.21995 0.93605 0.96093 0.0
C406 C 0.16508 0.93749 0.98557 0.0
C407 C 0.1271 0.92477 0.99609 0.0
H408 H 0.24966 0.94586 0.95299 0.0
H409 H 0.9019 0.82 0.05753 0.0
H410 H 0.20916 0.11618 0.03905 0.0
H411 H 0.08661 0.11644 0.0394 0.0
H412 H 0.09009 0.16464 0.02096 0.0
H413 H 0.21175 0.16455 0.021 0.0
H414 H 0.99299 0.15723 0.07032 0.0
H415 H 0.06837 0.14017 0.95333 0.0
H416 H 0.1302 0.12375 0.90983 0.0
H417 H 0.01895 0.0852 0.9507 0.0
H418 H 0.9571 0.10137 0.99482 0.0
H419 H 0.66254 0.1671 0.01304 0.0
H420 H 0.78468 0.16647 0.01507 0.0
H421 H 0.7771 0.11837 0.03467 0.0
H422 H 0.65575 0.11882 0.03239 0.0
H423 H 0.87597 0.12546 0.98544 0.0
H424 H 0.79949 0.14263 0.10195 0.0
H425 H 0.73741 0.15912 0.1452 0.0
H426 H 0.85047 0.19752 0.10498 0.0
H427 H 0.9126 0.18128 0.06112 0.0
C428 C 0.18384 0.12684 0.03526 0.0
C429 C 0.22052 0.14032 0.02982 0.0
C430 C 0.11379 0.12697 0.03531 0.0
C431 C 0.07919 0.14055 0.02982 0.0
C432 C 0.11562 0.15403 0.02522 0.0
C433 C 0.1854 0.15393 0.02512 0.0
C434 C 1.00513 0.14079 0.0283 0.0
C435 C 0.96748 0.1504 0.05149 0.0
C436 C 0.97166 0.13169 1.00419 0.0
C437 C 0.00864 0.12196 0.97763 0.0
C438 C 0.05748 0.12817 0.95324 0.0
C439 C 0.09246 0.11891 0.92844 0.0
C440 C 0.07865 0.10343 0.92757 0.0
C441 C 0.02968 0.09719 0.95145 0.0
C442 C 0.99463 0.1064 0.97634 0.0
C443 C 0.68683 0.15638 0.01775 0.0
C444 C 0.64909 0.14303 0.02269 0.0
C445 C 0.75665 0.15605 0.01903 0.0
C446 C 0.78997 0.14239 0.02535 0.0
C447 C 0.75251 0.12904 0.02978 0.0
C448 C 0.68292 0.12936 0.02859 0.0
C449 C 0.86387 0.14191 0.02741 0.0
C450 C 0.90149 0.13227 1.00431 0.0
C451 C 0.8973 0.15098 0.05158 0.0
C452 C 0.86021 0.16076 0.07801 0.0
C453 C 0.81074 0.15461 0.10213 0.0
C454 C 0.77561 0.16391 0.12679 0.0
C455 C 0.78986 0.17936 0.12778 0.0
C456 C 0.83941 0.18555 0.10416 0.0
C457 C 0.87463 0.1763 0.07941 0.0
H458 H 0.76262 0.18654 0.14689 0.0
H459 H 0.10577 0.09628 0.90834 0.0
H460 H 0.3466 0.11591 0.52834 0.0
H461 H 0.22499 0.11607 0.52683 0.0
H462 H 0.22453 0.16479 0.53241 0.0
H463 H 0.34659 0.16472 0.53475 0.0
H464 H 0.12163 0.15361 0.57216 0.0
H465 H 0.21167 0.14637 0.45298 0.0
H466 H 0.28273 0.13441 0.40506 0.0
H467 H 0.17932 0.09229 0.42393 0.0
H468 H 0.1084 0.10393 0.47243 0.0
H469 H 0.79379 0.16335 0.51499 0.0
H470 H 0.91519 0.16386 0.51758 0.0
H471 H 0.92059 0.1151 0.51435 0.0
H472 H 0.79875 0.11449 0.5109 0.0
H473 H 0.0213 0.12687 0.47281 0.0
H474 H 0.93043 0.13544 0.5934 0.0
H475 H 0.86044 0.14866 0.63984 0.0
H476 H 0.96667 0.19002 0.61558 0.0
H477 H 0.03636 0.17712 0.56857 0.0
C478 C 0.32079 0.12668 0.52951 0.0
C479 C 0.35664 0.14032 0.53131 0.0
C480 C 0.25109 0.12675 0.52847 0.0
C481 C 0.21556 0.14046 0.52868 0.0
C482 C 0.25082 0.15407 0.53199 0.0
C483 C 0.32069 0.15401 0.53331 0.0
C484 C 0.14196 0.14055 0.52455 0.0
C485 C 0.09979 0.14793 0.55019 0.0
C486 C 0.11318 0.13299 0.49609 0.0
C487 C 0.1551 0.12599 0.46658 0.0
C488 C 0.20436 0.13453 0.44708 0.0
C489 C 0.2446 0.12781 0.41979 0.0
C490 C 0.23562 0.11259 0.4115 0.0
C491 C 0.18626 0.10407 0.43041 0.0
C492 C 0.146 0.11073 0.4578 0.0
C493 C 0.82061 0.1527 0.51473 0.0
C494 C 0.78621 0.13885 0.513 0.0
C495 C 0.89021 0.15302 0.51637 0.0
C496 C 0.92712 0.13951 0.5169 0.0
C497 C 0.89323 0.12568 0.51417 0.0
C498 C 0.8235 0.12535 0.51222 0.0
C499 C 1.00086 0.13982 0.52062 0.0
C500 C 0.04312 0.13254 0.49482 0.0
C501 C 0.02975 0.14764 0.54868 0.0
C502 C 0.98823 0.15534 0.57725 0.0
C503 C 0.93852 0.14738 0.59781 0.0
C504 C 0.89888 0.15482 0.62424 0.0
C505 C 0.90889 0.17019 0.63057 0.0
C506 C 0.95874 0.17813 0.61058 0.0
C507 C 0.99835 0.17076 0.58406 0.0
H508 H 0.87815 0.17593 0.65104 0.0
H509 H 0.26683 0.1074 0.39037 0.0
H510 H 0.65908 0.90038 0.54691 0.0
H511 H 0.78056 0.9009 0.54925 0.0
H512 H 0.79584 0.85933 0.48974 0.0
H513 H 0.6736 0.85851 0.48816 0.0
H514 H 0.87993 0.85891 0.54143 0.0
H515 H 0.82831 0.89452 0.44989 0.0
H516 H 0.77078 0.9165 0.42504 0.0
H517 H 0.85484 0.94549 0.50181 0.0
H518 H 0.91218 0.92364 0.52744 0.0
H519 H 0.22259 0.86241 0.48689 0.0
H520 H 0.10084 0.86212 0.48839 0.0
H521 H 0.09362 0.90388 0.54731 0.0
H522 H 0.21642 0.90449 0.54497 0.0
H523 H 0.00526 0.9045 0.49784 0.0
H524 H 0.05955 0.86877 0.58833 0.0
H525 H 0.11768 0.84672 0.6124 0.0
H526 H 0.02904 0.81784 0.53695 0.0
H527 H 0.97102 0.83977 0.51212 0.0
C528 C 0.68818 0.89133 0.53427 0.0
C529 C 0.65665 0.87948 0.51698 0.0
C530 C 0.75777 0.89168 0.53556 0.0
C531 C 0.79762 0.88034 0.519 0.0
C532 C 0.7662 0.86825 0.50255 0.0
C533 C 0.69633 0.8678 0.50163 0.0
C534 C 0.87198 0.88118 0.51856 0.0
C535 C 0.90737 0.86881 0.53149 0.0
C536 C 0.90786 0.89424 0.50642 0.0
C537 C 0.87405 0.90742 0.49078 0.0
C538 C 0.8342 0.90557 0.46161 0.0
C539 C 0.80166 0.918 0.44737 0.0
C540 C 0.80902 0.93237 0.46189 0.0
C541 C 0.84913 0.93435 0.49062 0.0
C542 C 0.88171 0.92195 0.50498 0.0
C543 C 0.19532 0.87155 0.50027 0.0
C544 C 0.22938 0.88343 0.5161 0.0
C545 C 0.12548 0.87132 0.50123 0.0
C546 C 0.0878 0.8828 0.51865 0.0
C547 C 0.12158 0.89485 0.5339 0.0
C548 C 0.19176 0.89518 0.53258 0.0
C549 C 0.01327 0.88221 0.52057 0.0
C550 C 0.97783 0.89463 0.50792 0.0
C551 C 0.97736 0.86918 0.53291 0.0
C552 C 0.01133 0.85594 0.5482 0.0
C553 C 0.05272 0.85773 0.57675 0.0
C554 C 0.08562 0.84525 0.59054 0.0
C555 C 0.07716 0.83089 0.57616 0.0
C556 C 0.03557 0.82897 0.54805 0.0
C557 C 1.00259 0.84142 0.53414 0.0
H558 H 0.10275 0.82125 0.58684 0.0
H559 H 0.78375 0.94198 0.45085 0.0
H560 H 0.04054 0.57772 0.9707 0.0
H561 H 0.05561 0.55028 0.96845 0.0
H562 H 0.91953 0.54519 0.06146 0.0
H563 H 0.90499 0.57275 0.06405 0.0
H564 H 0.02736 0.52723 0.06596 0.0
H565 H 0.86984 0.53752 0.97787 0.0
H566 H 0.82763 0.55005 0.92498 0.0
H567 H 0.99481 0.53287 0.86012 0.0
H568 H 0.03854 0.5204 0.91275 0.0
H569 H 0.96873 0.44875 0.05362 0.0
H570 H 0.95466 0.4762 0.05432 0.0
H571 H 0.09147 0.4802 0.96131 0.0
H572 H 0.10495 0.45257 0.96022 0.0
H573 H 0.98505 0.49874 0.95631 0.0
H574 H 0.14211 0.48827 0.04429 0.0
H575 H 0.18418 0.47569 0.09715 0.0
H576 H 0.01799 0.49322 0.16221 0.0
H577 H 0.97439 0.50574 0.10961 0.0
C578 C 0.01394 0.57076 0.99073 0.0
C579 C 0.97139 0.57736 0.01749 0.0
C580 C 0.02233 0.55506 0.9893 0.0
C581 C 0.98797 0.54561 0.01447 0.0
C582 C 0.94641 0.55223 0.04167 0.0
C583 C 0.93803 0.56796 0.04311 0.0
C584 C 0.9956 0.52885 0.01242 0.0
C585 C 0.0172 0.52099 0.04215 0.0
C586 C 0.98407 0.5207 0.98104 0.0
C587 C 0.95781 0.52815 0.94933 0.0
C588 C 0.89789 0.53652 0.95239 0.0
C589 C 0.87364 0.54359 0.92244 0.0
C590 C 0.90861 0.54229 0.88923 0.0
C591 C 0.96783 0.53388 0.88587 0.0
C592 C 0.99234 0.5268 0.91575 0.0
C593 C 0.99564 0.45546 0.03321 0.0
C594 C 0.03822 0.44853 1.00696 0.0
C595 C 0.98781 0.47117 0.03375 0.0
C596 C 0.02287 0.48033 1.00824 0.0
C597 C 0.06413 0.47339 0.98138 0.0
C598 C 0.0719 0.45762 0.9808 0.0
C599 C 0.01658 0.49712 1.00989 0.0
C600 C 0.99528 0.50499 0.9801 0.0
C601 C 0.02841 0.50529 0.04122 0.0
C602 C 0.05466 0.49783 0.07293 0.0
C603 C 0.11426 0.48935 0.06981 0.0
C604 C 0.13843 0.48225 0.09974 0.0
C605 C 0.10369 0.48362 0.133 0.0
C606 C 0.0448 0.49215 0.13642 0.0
C607 C 0.02037 0.49926 0.10656 0.0
H608 H 0.12249 0.47811 0.15614 0.0
H609 H 0.88975 0.54778 0.86607 0.0
H610 H 0.91825 0.44926 0.56632 0.0
H611 H 0.93225 0.47686 0.56507 0.0
H612 H 0.04943 0.4736 0.46505 0.0
H613 H 0.03572 0.44609 0.46626 0.0
H614 H 0.10629 0.49294 0.51039 0.0
H615 H 0.88824 0.48499 0.46691 0.0
H616 H 0.77281 0.47511 0.46906 0.0
H617 H 0.72436 0.49993 0.56509 0.0
H618 H 0.83985 0.5098 0.56379 0.0
H619 H 0.10322 0.57073 0.46083 0.0
H620 H 0.08841 0.54318 0.46161 0.0
H621 H 0.96045 0.54662 0.55804 0.0
H622 H 0.97411 0.57412 0.55692 0.0
H623 H 0.90906 0.52709 0.51462 0.0
H624 H 0.12565 0.53496 0.559 0.0
H625 H 0.24112 0.54477 0.5581 0.0
H626 H 0.29263 0.52004 0.46226 0.0
H627 H 0.17714 0.51025 0.46232 0.0
C628 C 0.94712 0.45446 0.54415 0.0
C629 C 0.97576 0.44555 0.51635 0.0
C630 C 0.95488 0.47022 0.54337 0.0
C631 C 0.99142 0.47734 0.51478 0.0
C632 C 0.02104 0.46839 0.48736 0.0
C633 C 0.01302 0.45267 0.48805 0.0
C634 C 0.99858 0.49412 0.51323 0.0
C635 C 0.06317 0.5004 0.51087 0.0
C636 C 0.94238 0.50389 0.51467 0.0
C637 C 0.87288 0.49801 0.51545 0.0
C638 C 0.85313 0.48824 0.48865 0.0
C639 C 0.78766 0.48266 0.48968 0.0
C640 C 0.74133 0.48685 0.51725 0.0
C641 C 0.76034 0.49667 0.54379 0.0
C642 C 0.82577 0.50227 0.5429 0.0
C643 C 0.07174 0.56559 0.48207 0.0
C644 C 0.04 0.57456 0.50886 0.0
C645 C 0.06357 0.54984 0.48264 0.0
C646 C 0.024 0.54275 0.51019 0.0
C647 C 0.99127 0.55178 0.53654 0.0
C648 C 0.99925 0.5675 0.53591 0.0
C649 C 0.01686 0.52595 0.51178 0.0
C650 C 0.95225 0.51965 0.51415 0.0
C651 C 0.07306 0.51616 0.51054 0.0
C652 C 0.14256 0.522 0.51047 0.0
C653 C 0.16146 0.53171 0.53757 0.0
C654 C 0.22694 0.53725 0.53724 0.0
C655 C 0.27413 0.53306 0.51009 0.0
C656 C 0.25599 0.52329 0.48325 0.0
C657 C 0.19054 0.51774 0.48343 0.0
H658 H 0.32481 0.53736 0.50988 0.0
H659 H 0.69067 0.48252 0.518 0.0
H660 H 0.48271 0.94814 0.06268 0.0
H661 H 0.46825 0.97558 0.0653 0.0
H662 H 0.56367 0.9799 0.95956 0.0
H663 H 0.57884 0.95234 0.95699 0.0
H664 H 0.61138 1.0006 1.0044 0.0
H665 H 0.39412 0.98412 0.9735 0.0
H666 H 0.29051 0.96903 0.97988 0.0
H667 H 0.2457 0.98745 0.08408 0.0
H668 H 0.34945 1.00261 0.07843 0.0
H669 H 0.52246 0.07664 0.97145 0.0
H670 H 0.53617 0.04921 0.96993 0.0
H671 H 0.43255 0.04554 0.07384 0.0
H672 H 0.4173 0.07312 0.07505 0.0
H673 H 0.38926 0.02442 0.03091 0.0
H674 H 0.60535 0.04134 0.06148 0.0
H675 H 0.70903 0.05645 0.05517 0.0
H676 H 0.7569 0.03704 0.95226 0.0
H677 H 0.65299 0.02196 0.95773 0.0
C678 C 0.50035 0.95492 0.03991 0.0
C679 C 0.53176 0.9481 1.00958 0.0
C680 C 0.49182 0.97062 0.04139 0.0
C681 C 0.51423 0.97984 0.0125 0.0
C682 C 0.54586 0.97303 0.98217 0.0
C683 C 0.5543 0.95729 0.98066 0.0
C684 C 0.50571 0.99658 0.01431 0.0
C685 C 0.56269 1.00582 1.00968 0.0
C686 C 0.44246 1.00341 0.02224 0.0
C687 C 0.37987 0.99439 0.02567 0.0
C688 C 0.36242 0.98487 0.99788 0.0
C689 C 0.30362 0.97632 1.00134 0.0
C690 C 0.26166 0.97722 0.03242 0.0
C691 C 0.2783 0.98674 0.06004 0.0
C692 C 0.33703 0.99534 0.0567 0.0
C693 C 0.50286 0.07001 0.99408 0.0
C694 C 0.46904 0.07703 0.02345 0.0
C695 C 0.51099 0.0543 0.99324 0.0
C696 C 0.48629 0.04525 0.02198 0.0
C697 C 0.45224 0.05226 0.05137 0.0
C698 C 0.44375 0.06801 0.05212 0.0
C699 C 0.49496 0.02848 0.02088 0.0
C700 C 0.43801 0.01922 0.02568 0.0
C701 C 0.55831 0.02163 0.01318 0.0
C702 C 0.62105 0.03062 1.00989 0.0
C703 C 0.63773 0.04038 0.03739 0.0
C704 C 0.69659 0.04892 0.03398 0.0
C705 C 0.73944 0.04773 1.0033 0.0
C706 C 0.72362 0.03796 0.976 0.0
C707 C 0.66479 0.0294 0.97925 0.0
H708 H 0.78498 0.05436 1.00071 0.0
H709 H 0.21619 0.97057 0.03505 0.0
H710 H 0.59944 0.07032 0.5543 0.0
H711 H 0.58197 0.04311 0.55373 0.0
H712 H 0.50168 0.04677 0.45007 0.0
H713 H 0.51491 0.0744 0.45192 0.0
H714 H 0.43165 0.02759 0.48472 0.0
H715 H 0.66808 0.03222 0.4662 0.0
H716 H 0.7821 0.04089 0.47703 0.0
H717 H 0.76888 0.01918 0.5797 0.0
H718 H 0.65441 1.01054 0.5697 0.0
H719 H 0.48548 0.94774 0.45165 0.0
H720 H 0.50107 0.97524 0.44994 0.0
H721 H 0.49037 0.97623 0.56478 0.0
H722 H 0.47261 0.94868 0.5667 0.0
H723 H 0.60799 0.99238 0.52173 0.0
H724 H 0.36521 0.98829 0.53602 0.0
H725 H 0.25586 0.97882 0.51903 0.0
H726 H 0.28998 0.99877 0.41504 0.0
H727 H 0.40006 1.00816 0.43127 0.0
C728 C 0.57843 0.06533 0.53125 0.0
C729 C 0.55911 0.07445 0.50297 0.0
C730 C 0.56889 0.04969 0.53081 0.0
C731 C 0.54217 0.04266 0.50142 0.0
C732 C 0.52273 0.05182 0.47303 0.0
C733 C 0.53057 0.0676 0.47396 0.0
C734 C 0.53289 0.02587 0.50107 0.0
C735 C 0.47083 0.01995 0.4923 0.0
C736 C 0.58345 0.0157 0.51121 0.0
C737 C 0.65241 0.02084 0.5173 0.0
C738 C 0.68931 0.02938 0.49119 0.0
C739 C 0.75405 0.03428 0.49716 0.0
C740 C 0.78266 0.03062 0.52906 0.0
C741 C 0.74664 0.02202 0.55502 0.0
C742 C 0.68185 0.0171 0.54919 0.0
C743 C 0.48631 0.95382 0.47655 0.0
C744 C 0.47781 0.9461 0.50933 0.0
C745 C 0.4951 0.96952 0.47551 0.0
C746 C 0.49675 0.97774 0.50721 0.0
C747 C 0.48917 0.97005 0.54003 0.0
C748 C 0.47891 0.95436 0.5411 0.0
C749 C 0.50703 0.99436 0.5059 0.0
C750 C 0.56929 1.00015 0.51416 0.0
C751 C 0.45748 1.00434 0.49439 0.0
C752 C 0.39116 0.99878 0.48473 0.0
C753 C 0.34969 0.99053 0.50942 0.0
C754 C 0.28751 0.98521 0.49996 0.0
C755 C 0.26606 0.98815 0.46594 0.0
C756 C 0.30669 0.99647 0.44136 0.0
C757 C 0.36895 1.00181 0.45069 0.0
H758 H 0.21791 0.98402 0.45866 0.0
H759 H 0.83278 0.03443 0.53364 0.0
H760 H 0.05433 0.31109 0.99726 0.0
H761 H 0.10681 0.28605 0.99436 0.0
H762 H 0.25345 0.30084 0.06595 0.0
H763 H 0.20142 0.32594 0.06866 0.0
H764 H 0.31309 0.28728 1.00879 0.0
H765 H 0.13073 0.27559 0.09291 0.0
H766 H 0.01279 0.27439 0.11616 0.0
H767 H 0.96494 0.24665 0.02793 0.0
H768 H 0.08247 0.24787 1.00384 0.0
H769 H 0.45503 0.21438 0.04003 0.0
H770 H 0.40256 0.23941 0.04413 0.0
H771 H 0.25396 0.22505 0.97321 0.0
H772 H 0.30587 0.19997 0.96938 0.0
H773 H 0.19558 0.23842 0.03067 0.0
H774 H 0.37786 0.25036 0.94628 0.0
H775 H 0.49582 0.2516 0.92307 0.0
H776 H 0.54383 0.27889 0.01203 0.0
H777 H 0.42627 0.27764 0.03605 0.0
C778 C 0.09692 0.30891 0.01295 0.0
C779 C 0.12363 0.32046 0.03327 0.0
C780 C 0.12698 0.29458 0.01126 0.0
C781 C 0.18419 0.29151 0.02997 0.0
C782 C 0.20956 0.30293 0.05118 0.0
C783 C 0.17946 0.31724 0.05292 0.0
C784 C 0.21952 0.27668 0.02596 0.0
C785 C 0.2876 0.2766 0.01412 0.0
C786 C 0.18604 0.2627 0.03197 0.0
C787 C 0.1153 0.26195 0.04638 0.0
C788 C 0.09495 0.26934 0.07829 0.0
C789 C 0.02819 0.26864 0.09166 0.0
C790 C 0.98136 0.26048 0.07348 0.0
C791 C 1.00125 0.25298 0.04195 0.0
C792 C 0.06795 0.25366 0.02844 0.0
C793 C 0.41197 0.21666 0.02477 0.0
C794 C 0.38473 0.20523 1.00427 0.0
C795 C 0.38192 0.23098 0.02715 0.0
C796 C 0.32422 0.23418 1.00893 0.0
C797 C 0.29823 0.22287 0.98761 0.0
C798 C 0.32827 0.20857 0.98521 0.0
C799 C 0.28912 0.24902 0.01343 0.0
C800 C 0.22108 0.2491 0.02537 0.0
C801 C 0.32264 0.263 1.00753 0.0
C802 C 0.39337 0.26377 0.99315 0.0
C803 C 0.41368 0.25652 0.96105 0.0
C804 C 0.48045 0.25725 0.94772 0.0
C805 C 0.52733 0.26529 0.96611 0.0
C806 C 0.50748 0.27265 0.99784 0.0
C807 C 0.44077 0.27195 0.01131 0.0
H808 H 0.579 0.26584 0.95574 0.0
H809 H 0.9297 0.25995 0.08388 0.0
H810 H 0.57809 0.81634 0.05977 0.0
H811 H 0.62415 0.7906 0.06267 0.0
H812 H 0.71516 0.79598 0.95619 0.0
H813 H 0.66755 0.82134 0.9528 0.0
H814 H 0.66177 0.76808 0.96614 0.0
H815 H 0.79087 0.80289 0.03771 0.0
H816 H 0.79466 0.81989 0.08942 0.0
H817 H 0.74446 0.7829 0.16044 0.0
H818 H 0.73573 0.76589 0.10927 0.0
H819 H 0.89524 0.70858 0.95291 0.0
H820 H 0.84091 0.73346 0.95325 0.0
H821 H 0.80675 0.73043 0.06776 0.0
H822 H 0.86718 0.70648 0.06746 0.0
H823 H 0.82369 0.7568 0.05718 0.0
H824 H 0.68075 0.72313 1.00055 0.0
H825 H 0.64653 0.70404 0.95774 0.0
H826 H 0.69429 0.73479 0.871 0.0
H827 H 0.72961 0.75401 0.91328 0.0
C828 C 0.6073 0.81192 0.0369 0.0
C829 C 0.61953 0.82086 1.00613 0.0
C830 C 0.63383 0.79724 0.0386 0.0
C831 C 0.67429 0.79141 1.00986 0.0
C832 C 0.68444 0.8002 0.97877 0.0
C833 C 0.6573 0.81473 0.97689 0.0
C834 C 0.70852 0.77646 0.01206 0.0
C835 C 0.69762 0.76563 0.98588 0.0
C836 C 0.75278 0.77292 0.03891 0.0
C837 C 0.76201 0.78312 0.06952 0.0
C838 C 0.78022 0.79838 0.06431 0.0
C839 C 0.78306 0.80804 0.09353 0.0
C840 C 0.77042 0.80245 0.12812 0.0
C841 C 0.75433 0.78722 0.13362 0.0
C842 C 0.7499 0.77759 0.10451 0.0
C843 C 0.87707 0.71344 0.97809 0.0
C844 C 0.88564 0.70569 1.01014 0.0
C845 C 0.84498 0.72756 0.97834 0.0
C846 C 0.81734 0.73382 1.01046 0.0
C847 C 0.82729 0.72607 0.04251 0.0
C848 C 0.86187 0.71231 0.04237 0.0
C849 C 0.77771 0.74828 0.01087 0.0
C850 C 0.78771 0.75908 0.03744 0.0
C851 C 0.72963 0.75145 0.98563 0.0
C852 C 0.70846 0.73995 0.96006 0.0
C853 C 0.68436 0.72578 0.97232 0.0
C854 C 0.66472 0.71494 0.94816 0.0
C855 C 0.6684 0.71818 0.91166 0.0
C856 C 0.69157 0.73229 0.89927 0.0
C857 C 0.71135 0.74316 0.92332 0.0
H858 H 0.65317 0.70978 0.89299 0.0
H859 H 0.77299 0.80993 0.15066 0.0
H860 H 0.21608 0.69609 0.55792 0.0
H861 H 0.26741 0.72113 0.55372 0.0
H862 H 0.10022 0.73773 0.49771 0.0
H863 H 0.04984 0.71243 0.50078 0.0
H864 H 0.21081 0.74672 0.46438 0.0
H865 H 0.12945 0.74775 0.58721 0.0
H866 H 0.11417 0.7383 0.64905 0.0
H867 H 0.32686 0.73955 0.65856 0.0
H868 H 0.3435 0.74883 0.59661 0.0
H869 H 0.29925 0.8245 0.47083 0.0
H870 H 0.24609 0.79968 0.47609 0.0
H871 H 0.41295 0.78278 0.53191 0.0
H872 H 0.46516 0.80789 0.52786 0.0
H873 H 0.30179 0.77404 0.56547 0.0
H874 H 0.38286 0.77286 0.44232 0.0
H875 H 0.39768 0.78237 0.38051 0.0
H876 H 0.18476 0.78146 0.37172 0.0
H877 H 0.1686 0.77212 0.43364 0.0
C878 C 0.18961 0.70514 0.54529 0.0
C879 C 0.12872 0.70231 0.52984 0.0
C880 C 0.219 0.71951 0.54295 0.0
C881 C 0.18758 0.73147 0.52569 0.0
C882 C 0.12563 0.72874 0.51115 0.0
C883 C 0.09656 0.7143 0.51314 0.0
C884 C 0.22108 0.74654 0.52108 0.0
C885 C 0.22971 0.75279 0.48663 0.0
C886 C 0.24768 0.75435 0.54982 0.0
C887 C 0.23773 0.74886 0.58716 0.0
C888 C 0.17299 0.74592 0.60241 0.0
C889 C 0.16409 0.7406 0.6375 0.0
C890 C 0.21952 0.73829 0.65769 0.0
C891 C 0.28397 0.74133 0.64287 0.0
C892 C 0.29316 0.74664 0.6078 0.0
C893 C 0.32522 0.81543 0.48369 0.0
C894 C 0.38666 0.81812 0.49871 0.0
C895 C 0.29476 0.80119 0.48664 0.0
C896 C 0.32566 0.7892 0.50405 0.0
C897 C 0.38795 0.7918 0.51834 0.0
C898 C 0.41807 0.80612 0.51578 0.0
C899 C 0.29158 0.7742 0.50877 0.0
C900 C 0.28285 0.76796 0.54324 0.0
C901 C 0.26482 0.76641 0.48005 0.0
C902 C 0.27452 0.77191 0.44272 0.0
C903 C 0.33919 0.77478 0.42727 0.0
C904 C 0.34782 0.78012 0.39221 0.0
C905 C 0.29219 0.78255 0.37223 0.0
C906 C 0.2278 0.77959 0.38724 0.0
C907 C 0.21888 0.77425 0.4223 0.0
H908 H 0.29898 0.78669 0.34509 0.0
H909 H 0.21252 0.73417 0.68484 0.0
H910 H 0.90304 0.3154 0.46166 0.0
H911 H 0.84956 0.2904 0.46191 0.0
H912 H 0.81185 0.29295 0.576 0.0
H913 H 0.86618 0.31769 0.5759 0.0
H914 H 0.84937 0.26528 0.5585 0.0
H915 H 0.68844 0.30059 0.51845 0.0
H916 H 0.64637 0.3209 0.48052 0.0
H917 H 0.67672 0.29262 0.38845 0.0
H918 H 0.71988 0.2722 0.42577 0.0
H919 H 0.60561 0.20625 0.57546 0.0
H920 H 0.65667 0.23153 0.57635 0.0
H921 H 0.70689 0.22873 0.46328 0.0
H922 H 0.65571 0.20368 0.46226 0.0
H923 H 0.66114 0.25667 0.48125 0.0
H924 H 0.82349 0.22128 0.52368 0.0
H925 H 0.86127 0.20122 0.5637 0.0
H926 H 0.82288 0.23023 0.65391 0.0
H927 H 0.7841 0.25039 0.61449 0.0
C928 C 0.88404 0.31052 0.48679 0.0
C929 C 0.88867 0.3185 0.51873 0.0
C930 C 0.85303 0.29628 0.48692 0.0
C931 C 0.8256 0.28984 0.51895 0.0
C932 C 0.83238 0.29763 0.55095 0.0
C933 C 0.86342 0.3118 0.55084 0.0
C934 C 0.78849 0.27519 0.51921 0.0
C935 C 0.80775 0.26348 0.54186 0.0
C936 C 0.73441 0.27271 0.49735 0.0
C937 C 0.70804 0.28492 0.47486 0.0
C938 C 0.6866 0.29874 0.49008 0.0
C939 C 0.66249 0.31027 0.4687 0.0
C940 C 0.65905 0.30806 0.43209 0.0
C941 C 0.67951 0.29431 0.41681 0.0
C942 C 0.70376 0.28276 0.43806 0.0
C943 C 0.62687 0.21114 0.55079 0.0
C944 C 0.62684 0.20298 0.51883 0.0
C945 C 0.65637 0.22553 0.55132 0.0
C946 C 0.68645 0.23198 0.51992 0.0
C947 C 0.68418 0.22403 0.48784 0.0
C948 C 0.65498 0.20967 0.48732 0.0
C949 C 0.72227 0.24677 0.52039 0.0
C950 C 0.70275 0.25849 0.49786 0.0
C951 C 0.77568 0.24932 0.54261 0.0
C952 C 0.80027 0.23729 0.56619 0.0
C953 C 0.82277 0.22335 0.55208 0.0
C954 C 0.8444 0.21196 0.57464 0.0
C955 C 0.84422 0.21443 0.61133 0.0
C956 C 0.82285 0.22832 0.62549 0.0
C957 C 0.80112 0.23974 0.60306 0.0
H958 H 0.86064 0.2056 0.6288 0.0
H959 H 0.64042 0.317 0.41558 0.0
H960 H 0.15895 0.39577 0.13159 0.0
H961 H 0.134 0.39127 0.19523 0.0
H962 H 0.9611 0.36486 0.17167 0.0
H963 H 0.98731 0.36899 0.10772 0.0
H964 H 0.03206 0.40097 0.23343 0.0
H965 H 0.91891 0.34062 0.24137 0.0
H966 H 0.93205 0.31624 0.21009 0.0
H967 H 0.13531 0.32756 0.17692 0.0
H968 H 0.12372 0.3519 0.20843 0.0
H969 H 0.85215 0.39412 0.39772 0.0
H970 H 0.87775 0.39085 0.33375 0.0
H971 H 0.04303 0.3616 0.35558 0.0
H972 H 0.01698 0.36468 0.4198 0.0
H973 H 0.98069 0.35234 0.29579 0.0
H974 H 0.07261 0.39804 0.34057 0.0
H975 H 0.06898 0.42226 0.37284 0.0
H976 H 0.92844 0.43988 0.30144 0.0
H977 H 0.93042 0.41566 0.26908 0.0
C978 C 0.1164 0.38874 0.13996 0.0
C979 C 0.07499 0.38277 0.11472 0.0
C980 C 0.10194 0.38624 0.17638 0.0
C981 C 0.04549 0.37776 0.18848 0.0
C982 C 0.00543 0.37127 0.16316 0.0
C983 C 0.02036 0.37366 0.12658 0.0
C984 C 0.02624 0.37678 0.22748 0.0
C985 C 0.02092 0.3903 0.24691 0.0
C986 C 0.01219 0.36288 0.24546 0.0
C987 C 0.02016 0.34815 0.22699 0.0
C988 C 0.9665 0.33787 0.22755 0.0
C989 C 0.97367 0.32407 0.20975 0.0
C990 C 0.03441 0.32037 0.19143 0.0
C991 C 0.08822 0.33046 0.19101 0.0
C992 C 0.08134 0.34426 0.2088 0.0
C993 C 0.89313 0.38675 0.38892 0.0
C994 C 0.93313 0.37983 0.41377 0.0
C995 C 0.9078 0.38491 0.35233 0.0
C996 C 0.96313 0.37621 0.3398 0.0
C997 C 1.00026 0.36841 0.36458 0.0
C998 C 0.98541 0.3702 0.40128 0.0
C999 C 0.98591 0.37653 0.30127 0.0
C1000 C 0.99177 0.36296 0.28206 0.0
C1001 C 1.00194 0.39035 0.28348 0.0
C1002 C 1.00118 0.40499 0.30263 0.0
C1003 C 0.04058 0.40704 0.33191 0.0
C1004 C 0.03885 0.42078 0.35019 0.0
C1005 C 0.99838 0.43259 0.33925 0.0
C1006 C 0.95969 0.43071 0.30992 0.0
C1007 C 0.96111 0.41699 0.29159 0.0
H1008 H 0.9971 0.44322 0.35344 0.0
H1009 H 0.03982 0.30969 0.17761 0.0
H1010 H 0.87605 0.65913 0.15042 0.0
H1011 H 0.90255 0.65168 0.21039 0.0
H1012 H 0.01043 0.61284 0.1679 0.0
H1013 H 0.98347 0.62038 0.10714 0.0
H1014 H 0.88482 0.62794 0.25549 0.0
H1015 H 0.15362 0.61001 0.2164 0.0
H1016 H 0.23752 0.61242 0.16556 0.0
H1017 H 0.15359 0.65526 0.13755 0.0
H1018 H 0.07004 0.65322 0.18855 0.0
H1019 H 0.03495 0.61867 0.42287 0.0
H1020 H 0.00891 0.61167 0.36183 0.0
H1021 H 0.10016 0.65309 0.32171 0.0
H1022 H 0.12584 0.66001 0.38198 0.0
H1023 H 0.1274 0.63044 0.27524 0.0
H1024 H 0.9328 0.6508 0.34358 0.0
H1025 H 0.84812 0.65057 0.39427 0.0
H1026 H 0.78172 0.60665 0.36347 0.0
H1027 H 0.86687 0.60652 0.31293 0.0
C1028 C 0.90403 0.64878 0.15386 0.0
C1029 C 0.9278 0.64036 0.1241 0.0
C1030 C 0.91902 0.64449 0.18827 0.0
C1031 C 0.95908 0.63177 0.19387 0.0
C1032 C 0.97974 0.62277 0.16432 0.0
C1033 C 0.96401 0.62701 0.12964 0.0
C1034 C 0.98429 0.62922 0.23006 0.0
C1035 C 0.93795 0.62816 0.25973 0.0
C1036 C 0.05357 0.6297 0.2359 0.0
C1037 C 0.10513 0.63135 0.206 0.0
C1038 C 0.15336 0.61998 0.19948 0.0
C1039 C 0.20081 0.62128 0.17064 0.0
C1040 C 0.2007 0.63396 0.14825 0.0
C1041 C 0.1535 0.64542 0.15484 0.0
C1042 C 0.10613 0.6442 0.18372 0.0
C1043 C 0.05079 0.62605 0.40082 0.0
C1044 C 0.08222 0.63991 0.40716 0.0
C1045 C 0.03563 0.6221 0.36598 0.0
C1046 C 0.05206 0.63191 0.33702 0.0
C1047 C 0.08705 0.64528 0.34336 0.0
C1048 C 0.10151 0.64926 0.37795 0.0
C1049 C 0.02789 0.62931 0.30069 0.0
C1050 C 0.07441 0.62958 0.271 0.0
C1051 C 0.95871 0.62836 0.29484 0.0
C1052 C 0.90669 0.62857 0.32476 0.0
C1053 C 0.90039 0.64106 0.34776 0.0
C1054 C 0.85234 0.64099 0.37645 0.0
C1055 C 0.8097 0.62858 0.38215 0.0
C1056 C 0.81489 0.61624 0.35908 0.0
C1057 C 0.86305 0.61623 0.33042 0.0
H1058 H 0.77253 0.62855 0.40438 0.0
H1059 H 0.23725 0.63491 0.12584 0.0
H1060 H 0.05294 0.64195 0.91975 0.0
H1061 H 0.0793 0.64439 0.85563 0.0
H1062 H 0.86936 0.65104 0.8395 0.0
H1063 H 0.84298 0.64722 0.90348 0.0
H1064 H 0.90916 0.63412 0.79206 0.0
H1065 H 0.00618 0.68016 0.82953 0.0
H1066 H 0.07663 0.69668 0.86424 0.0
H1067 H 0.25295 0.67338 0.8228 0.0
H1068 H 0.18351 0.65652 0.78845 0.0
H1069 H 0.97885 0.65234 0.60714 0.0
H1070 H 0.95229 0.6568 0.67098 0.0
H1071 H 0.13545 0.63448 0.6957 0.0
H1072 H 0.16144 0.62973 0.63213 0.0
H1073 H 0.10544 0.66163 0.7367 0.0
H1074 H 0.99999 0.61481 0.70245 0.0
H1075 H 0.92599 0.59978 0.66631 0.0
H1076 H 0.75875 0.62773 0.70064 0.0
H1077 H 0.8321 0.64311 0.73648 0.0
C1078 C 0.0127 0.64426 0.90252 0.0
C1079 C 0.946 0.64464 0.9166 0.0
C1080 C 0.02776 0.64574 0.86568 0.0
C1081 C 0.97669 0.64822 0.84208 0.0
C1082 C 0.91008 0.64911 0.85664 0.0
C1083 C 0.89489 0.6471 0.89333 0.0
C1084 C 0.99192 0.64881 0.8023 0.0
C1085 C 0.95135 0.64047 0.7802 0.0
C1086 C 0.04755 0.65682 0.78603 0.0
C1087 C 0.08951 0.66698 0.80663 0.0
C1088 C 0.05993 0.67848 0.82803 0.0
C1089 C 0.09971 0.68791 0.84766 0.0
C1090 C 0.16921 0.68605 0.84585 0.0
C1091 C 0.1991 0.67478 0.82431 0.0
C1092 C 0.15956 0.66529 0.80473 0.0
C1093 C 0.01398 0.64862 0.62615 0.0
C1094 C 0.07221 0.64064 0.61462 0.0
C1095 C 0.99863 0.65112 0.66265 0.0
C1096 C 0.04168 0.64589 0.68825 0.0
C1097 C 0.10149 0.63863 0.67654 0.0
C1098 C 0.11625 0.63591 0.64019 0.0
C1099 C 0.02268 0.64704 0.72725 0.0
C1100 C 0.06273 0.65558 0.74897 0.0
C1101 C 0.9658 0.63952 0.74313 0.0
C1102 C 0.92167 0.6302 0.72183 0.0
C1103 C 0.94756 0.61783 0.70204 0.0
C1104 C 0.90573 0.60924 0.68163 0.0
C1105 C 0.83776 0.61283 0.68108 0.0
C1106 C 0.81145 0.62499 0.70101 0.0
C1107 C 0.85312 0.63365 0.72137 0.0
H1108 H 0.80544 0.60616 0.6653 0.0
H1109 H 0.19992 0.69335 0.86107 0.0
H1110 H 0.08444 0.37392 0.61609 0.0
H1111 H 0.0992 0.37952 0.6785 0.0
H1112 H 0.90775 0.40209 0.68668 0.0
H1113 H 0.89279 0.39656 0.62336 0.0
H1114 H 0.02258 0.41527 0.72944 0.0
H1115 H 0.89481 0.36981 0.71216 0.0
H1116 H 0.87235 0.34575 0.68228 0.0
H1117 H 0.06083 0.32808 0.71227 0.0
H1118 H 0.0849 0.35214 0.74181 0.0
H1119 H 0.01079 0.40074 0.92195 0.0
H1120 H 0.98768 0.40618 0.85957 0.0
H1121 H 0.13094 0.37197 0.82454 0.0
H1122 H 0.1511 0.36612 0.88635 0.0
H1123 H 0.02041 0.36674 0.7965 0.0
H1124 H 0.15263 0.41202 0.81081 0.0
H1125 H 0.17986 0.43616 0.83913 0.0
H1126 H 0.98845 0.45419 0.81502 0.0
H1127 H 0.95976 0.43009 0.78694 0.0
C1128 C 0.04598 0.38036 0.6309 0.0
C1129 C 0.98697 0.3846 0.61509 0.0
C1130 C 0.05466 0.38361 0.66655 0.0
C1131 C 1.0043 0.39107 0.68734 0.0
C1132 C 0.94729 0.39636 0.67103 0.0
C1133 C 0.93869 0.39316 0.63497 0.0
C1134 C 0.00817 0.39119 0.7267 0.0
C1135 C 0.02096 0.40473 0.7444 0.0
C1136 C 0.00681 0.37742 0.74605 0.0
C1137 C 0.99181 0.36281 0.72899 0.0
C1138 C 0.93164 0.36083 0.71218 0.0
C1139 C 0.9186 0.34719 0.69533 0.0
C1140 C 0.96518 0.3354 0.69533 0.0
C1141 C 0.0248 0.33722 0.71228 0.0
C1142 C 0.03813 0.35085 0.72912 0.0
C1143 C 0.03845 0.39472 0.90074 0.0
C1144 C 0.08269 0.38301 0.90878 0.0
C1145 C 0.02521 0.3978 0.86509 0.0
C1146 C 0.05723 0.38942 0.83712 0.0
C1147 C 0.10486 0.37848 0.84546 0.0
C1148 C 0.11682 0.37521 0.88081 0.0
C1149 C 0.03771 0.39077 0.7995 0.0
C1150 C 0.02143 0.3774 0.78199 0.0
C1151 C 0.03625 0.40469 0.78057 0.0
C1152 C 0.05377 0.4192 0.79714 0.0
C1153 C 0.11617 0.4211 0.81178 0.0
C1154 C 0.13189 0.43478 0.82775 0.0
C1155 C 0.08583 0.44668 0.82898 0.0
C1156 C 0.02404 0.44495 0.81411 0.0
C1157 C 0.00804 0.43129 0.79814 0.0
H1158 H 0.09807 0.45726 0.84137 0.0
H1159 H 0.95502 0.32485 0.68224 0.0
H1160 H 0.66677 0.89158 0.12456 0.0
H1161 H 0.64284 0.88704 0.18864 0.0
H1162 H 0.45635 0.86565 0.16695 0.0
H1163 H 0.4808 0.86975 0.10286 0.0
H1164 H 0.4516 0.89162 0.21793 0.0
H1165 H 0.56387 0.84383 0.19397 0.0
H1166 H 0.65897 0.82816 0.17099 0.0
H1167 H 0.78733 0.84993 0.24234 0.0
H1168 H 0.69328 0.86589 0.26535 0.0
H1169 H 0.34676 0.87817 0.3967 0.0
H1170 H 0.37235 0.87409 0.33289 0.0
H1171 H 0.58384 0.87655 0.3493 0.0
H1172 H 0.55785 0.87925 0.41345 0.0
H1173 H 0.57461 0.85889 0.29917 0.0
H1174 H 0.48017 0.90804 0.31907 0.0
H1175 H 0.39677 0.92689 0.34109 0.0
H1176 H 0.2499 0.90705 0.27716 0.0
H1177 H 0.33225 0.88796 0.25508 0.0
C1178 C 0.62138 0.88562 0.13344 0.0
C1179 C 0.57567 0.88103 0.10872 0.0
C1180 C 0.60775 0.88305 0.17001 0.0
C1181 C 0.54774 0.87605 0.18254 0.0
C1182 C 0.50296 0.87106 0.15783 0.0
C1183 C 0.51716 0.87336 0.12122 0.0
C1184 C 0.52939 0.875 0.22145 0.0
C1185 C 0.47761 0.88427 0.2357 0.0
C1186 C 0.56534 0.86591 0.24471 0.0
C1187 C 0.62162 0.85615 0.23117 0.0
C1188 C 0.61249 0.84536 0.20456 0.0
C1189 C 0.66619 0.83641 0.19156 0.0
C1190 C 0.72917 0.83808 0.20514 0.0
C1191 C 0.73853 0.84866 0.23183 0.0
C1192 C 0.68503 0.85765 0.24488 0.0
C1193 C 0.39862 0.87747 0.38663 0.0
C1194 C 0.45031 0.87899 0.40986 0.0
C1195 C 0.4134 0.87535 0.35007 0.0
C1196 C 0.48021 0.87554 0.33567 0.0
C1197 C 0.53188 0.87641 0.35933 0.0
C1198 C 0.51706 0.87796 0.39608 0.0
C1199 C 0.49621 0.87555 0.29612 0.0
C1200 C 0.54787 0.86617 0.28161 0.0
C1201 C 0.46172 0.88498 0.27262 0.0
C1202 C 0.41214 0.89647 0.28574 0.0
C1203 C 0.42996 0.90765 0.30988 0.0
C1204 C 0.3829 0.91838 0.32235 0.0
C1205 C 0.31802 0.91814 0.31061 0.0
C1206 C 0.30014 0.9072 0.28628 0.0
C1207 C 0.34699 0.89643 0.27376 0.0
H1208 H 0.28165 0.92646 0.3203 0.0
H1209 H 0.77073 0.83116 0.19506 0.0
H1210 H 0.49266 0.12251 0.11169 0.0
H1211 H 0.5185 0.11632 0.17345 0.0
H1212 H 0.40106 0.15465 0.2111 0.0
H1213 H 0.37748 0.16101 0.15011 0.0
H1214 H 0.5181 0.15596 0.23658 0.0
H1215 H 0.3527 0.11639 0.22526 0.0
H1216 H 0.30659 0.09366 0.19806 0.0
H1217 H 0.48337 0.06863 0.22025 0.0
H1218 H 0.53089 0.09129 0.2472 0.0
H1219 H 0.43712 0.15019 0.41662 0.0
H1220 H 0.42504 0.14514 0.35373 0.0
H1221 H 0.60646 0.11871 0.34934 0.0
H1222 H 0.6192 0.12384 0.41311 0.0
H1223 H 0.48015 0.10832 0.30531 0.0
H1224 H 0.64071 0.14836 0.3209 0.0
H1225 H 0.68046 0.17129 0.35002 0.0
H1226 H 0.50686 0.19562 0.31977 0.0
H1227 H 0.46552 0.17274 0.291 0.0
C1228 C 0.47124 0.12934 0.13337 0.0
C1229 C 0.43315 0.14225 0.12619 0.0
C1230 C 0.48612 0.12584 0.16865 0.0
C1231 C 0.46222 0.13509 0.19715 0.0
C1232 C 0.42094 0.14742 0.18978 0.0
C1233 C 0.40705 0.15101 0.15484 0.0
C1234 C 0.48309 0.13294 0.23439 0.0
C1235 C 0.50968 0.14549 0.25141 0.0
C1236 C 0.47442 0.11919 0.25381 0.0
C1237 C 0.44567 0.10557 0.23783 0.0
C1238 C 0.38196 0.10607 0.22408 0.0
C1239 C 0.35552 0.09319 0.20876 0.0
C1240 C 0.39213 0.07972 0.20732 0.0
C1241 C 0.45514 0.07908 0.22132 0.0
C1242 C 0.48182 0.09193 0.23663 0.0
C1243 C 0.47396 0.14305 0.40256 0.0
C1244 C 0.52966 0.13759 0.4197 0.0
C1245 C 0.46674 0.14012 0.3666 0.0
C1246 C 0.51498 0.13163 0.34675 0.0
C1247 C 0.56847 0.12523 0.36424 0.0
C1248 C 0.5758 0.12819 0.40059 0.0
C1249 C 0.5129 0.13147 0.30722 0.0
C1250 C 0.48988 0.1186 0.28997 0.0
C1251 C 0.5245 0.14494 0.28735 0.0
C1252 C 0.54983 0.1588 0.30403 0.0
C1253 C 0.61078 0.15857 0.32069 0.0
C1254 C 0.63363 0.17156 0.3371 0.0
C1255 C 0.59615 0.1849 0.33681 0.0
C1256 C 0.53583 0.18528 0.32 0.0
C1257 C 0.51271 0.17231 0.3036 0.0
H1258 H 0.6139 0.19495 0.34954 0.0
H1259 H 0.37159 0.06976 0.19544 0.0
H1260 H 0.35585 0.12831 0.90109 0.0
H1261 H 0.38174 0.13344 0.83784 0.0
H1262 H 0.5305 0.16608 0.86447 0.0
H1263 H 0.50548 0.16072 0.92811 0.0
H1264 H 0.38205 0.15628 0.79156 0.0
H1265 H 0.66505 0.1627 0.80408 0.0
H1266 H 0.75128 0.15608 0.84571 0.0
H1267 H 0.6353 0.11761 0.88279 0.0
H1268 H 0.54893 0.12389 0.84107 0.0
H1269 H 0.52676 0.16067 0.61037 0.0
H1270 H 0.50528 0.16802 0.67339 0.0
H1271 H 0.57071 0.1239 0.70652 0.0
H1272 H 0.59207 0.11669 0.64459 0.0
H1273 H 0.6163 0.14476 0.74908 0.0
H1274 H 0.40473 0.13222 0.69966 0.0
H1275 H 0.31634 0.13568 0.65746 0.0
H1276 H 0.28482 0.18125 0.69375 0.0
H1277 H 0.3738 0.17811 0.73582 0.0
C1278 C 0.39338 0.13676 0.89354 0.0
C1279 C 0.42927 0.14395 0.9196 0.0
C1280 C 0.40795 0.13974 0.85728 0.0
C1281 C 0.45883 0.14998 0.84615 0.0
C1282 C 0.49172 0.15795 0.87226 0.0
C1283 C 0.47722 0.15493 0.90866 0.0
C1284 C 0.48114 0.15107 0.80749 0.0
C1285 C 0.43353 0.15399 0.78232 0.0
C1286 C 0.54811 0.14794 0.79511 0.0
C1287 C 0.60024 0.14389 0.81982 0.0
C1288 C 0.65813 0.15281 0.82106 0.0
C1289 C 0.70699 0.14912 0.84467 0.0
C1290 C 0.69863 0.13647 0.86699 0.0
C1291 C 0.64159 0.12743 0.8656 0.0
C1292 C 0.59267 0.13106 0.84199 0.0
C1293 C 0.53755 0.15271 0.63125 0.0
C1294 C 0.56085 0.1381 0.62261 0.0
C1295 C 0.52498 0.15686 0.6672 0.0
C1296 C 0.53599 0.14647 0.69485 0.0
C1297 C 0.562 0.13216 0.68591 0.0
C1298 C 0.57393 0.12802 0.65036 0.0
C1299 C 0.51709 0.14975 0.73313 0.0
C1300 C 0.56532 0.14757 0.75828 0.0
C1301 C 0.45041 0.15319 0.74542 0.0
C1302 C 0.3964 0.155 0.72053 0.0
C1303 C 0.37923 0.14301 0.69846 0.0
C1304 C 0.32902 0.1449 0.67458 0.0
C1305 C 0.29513 0.15869 0.67284 0.0
C1306 C 0.31123 0.17059 0.69507 0.0
C1307 C 0.36154 0.16876 0.71892 0.0
H1308 H 0.2563 0.16014 0.65432 0.0
H1309 H 0.73644 0.13365 0.8853 0.0
H1310 H 0.49626 0.90188 0.59811 0.0
H1311 H 0.51659 0.91034 0.659 0.0
H1312 H 0.39601 0.87342 0.70254 0.0
H1313 H 0.37737 0.8648 0.64239 0.0
H1314 H 0.37202 0.90228 0.73722 0.0
H1315 H 0.55622 0.86874 0.69468 0.0
H1316 H 0.65127 0.86266 0.65211 0.0
H1317 H 0.74708 0.9044 0.67699 0.0
H1318 H 0.652 0.91081 0.71935 0.0
H1319 H 0.43549 0.87369 0.90223 0.0
H1320 H 0.41926 0.88032 0.84076 0.0
H1321 H 0.59149 0.90975 0.83873 0.0
H1322 H 0.60908 0.90269 0.90112 0.0
H1323 H 0.59777 0.89318 0.7806 0.0
H1324 H 0.42745 0.92477 0.83147 0.0
H1325 H 0.33038 0.93338 0.86978 0.0
H1326 H 0.20856 0.8986 0.82784 0.0
H1327 H 0.30486 0.88977 0.78929 0.0
C1328 C 0.47312 0.89581 0.62078 0.0
C1329 C 0.43504 0.88273 0.61568 0.0
C1330 C 0.48507 0.90058 0.65546 0.0
C1331 C 0.45794 0.89247 0.68532 0.0
C1332 C 0.41729 0.87987 0.67998 0.0
C1333 C 0.40666 0.87495 0.64559 0.0
C1334 C 0.47397 0.89628 0.72235 0.0
C1335 C 0.42137 0.90036 0.74679 0.0
C1336 C 0.53898 0.8944 0.73453 0.0
C1337 C 0.59674 0.89033 0.70983 0.0
C1338 C 0.59737 0.87666 0.69089 0.0
C1339 C 0.65125 0.87315 0.66683 0.0
C1340 C 0.70508 0.88316 0.66175 0.0
C1341 C 0.70529 0.89667 0.68088 0.0
C1342 C 0.65144 0.90024 0.70493 0.0
C1343 C 0.46962 0.88174 0.88899 0.0
C1344 C 0.52376 0.88761 0.90656 0.0
C1345 C 0.45984 0.88566 0.85373 0.0
C1346 C 0.50336 0.89576 0.8349 0.0
C1347 C 0.55686 0.90201 0.85263 0.0
C1348 C 0.56675 0.89804 0.88831 0.0
C1349 C 0.4948 0.89855 0.79612 0.0
C1350 C 0.54872 0.89562 0.77121 0.0
C1351 C 0.431 0.90174 0.78335 0.0
C1352 C 0.3735 0.9066 0.80751 0.0
C1353 C 0.38012 0.91888 0.83063 0.0
C1354 C 0.32514 0.92384 0.85228 0.0
C1355 C 0.26331 0.91656 0.85118 0.0
C1356 C 0.25642 0.90426 0.82857 0.0
C1357 C 0.31112 0.89931 0.80672 0.0
H1358 H 0.22067 0.92046 0.8678 0.0
H1359 H 0.74668 0.88044 0.64305 0.0
loop_
_geom_bond_atom_site_label_1
_geom_bond_atom_site_label_2
_geom_bond_distance
_geom_bond_site_symmetry_2
_ccdc_geom_bond_type
Dy0 O4 2.398 . S
Dy0 O5 2.490 1_554 S
Dy0 O6 2.403 . S
Dy0 O7 2.664 . S
Dy0 O11 2.326 1_455 S
Dy0 O15 2.310 1_554 S
Dy0 O16 2.351 . S
C1 O12 1.185 1_554 S
C1 O13 1.355 . S
C2 O4 1.185 1_655 S
C2 O5 1.356 1_654 S
Dy3 O7 2.310 1_556 S
Dy3 O10 2.351 1_456 S
Dy3 O12 2.398 . S
Dy3 O13 2.491 1_556 S
Dy3 O14 2.403 . S
Dy3 O15 2.664 . S
Dy3 O17 2.326 . S
O4 Dy0 2.398 . S
O4 C2 1.185 1_455 S
O5 Dy0 2.490 1_556 S
O5 C2 1.356 1_456 S
O6 Dy0 2.403 . S
O6 C8 1.254 . S
O7 Dy0 2.664 . S
O7 Dy3 2.310 1_554 S
O7 C8 1.268 . S
C8 O6 1.254 . S
C8 O7 1.268 . S
C9 O14 1.254 . S
C9 O15 1.268 . S
O10 Dy3 2.351 1_654 S
O10 C18 1.249 . S
O11 Dy0 2.326 1_655 S
O11 C18 1.267 . S
O12 C1 1.185 1_556 S
O12 Dy3 2.398 . S
O13 C1 1.355 . S
O13 Dy3 2.491 1_554 S
O14 Dy3 2.403 . S
O14 C9 1.254 . S
O15 Dy0 2.310 1_556 S
O15 Dy3 2.664 . S
O15 C9 1.268 . S
O16 Dy0 2.351 . S
O16 C19 1.249 1_554 S
O17 Dy3 2.326 . S
O17 C19 1.267 . S
C18 O10 1.249 . S
C18 O11 1.267 . S
C19 O16 1.249 1_556 S
C19 O17 1.267 . S
Dy20 O24 2.398 . S
Dy20 O25 2.491 1_554 S
Dy20 O26 2.403 . S
Dy20 O27 2.664 . S
Dy20 O31 2.326 . S
Dy20 O35 2.310 1_554 S
Dy20 O36 2.351 1_655 S
C21 O32 1.185 1_454 S
C21 O33 1.356 1_455 S
C22 O24 1.185 . S
C22 O25 1.355 1_554 S
Dy23 O27 2.314 . S
Dy23 O30 2.351 . S
Dy23 O32 2.396 1_554 S
Dy23 O33 2.494 . S
Dy23 O34 2.397 1_554 S
Dy23 O35 2.661 1_554 S
Dy23 O37 2.325 1_654 S
O24 Dy20 2.398 . S
O24 C22 1.185 . S
O25 Dy20 2.491 1_556 S
O25 C22 1.355 1_556 S
O26 Dy20 2.403 . S
O26 C28 1.254 . S
O27 Dy20 2.664 . S
O27 Dy23 2.314 . S
O27 C28 1.268 . S
C28 O26 1.254 . S
C28 O27 1.268 . S
C29 O34 1.254 . S
C29 O35 1.268 . S
O30 Dy23 2.351 . S
O30 C38 1.249 . S
O31 Dy20 2.326 . S
O31 C38 1.267 . S
O32 C21 1.185 1_656 S
O32 Dy23 2.396 1_556 S
O33 C21 1.356 1_655 S
O33 Dy23 2.494 . S
O34 Dy23 2.397 1_556 S
O34 C29 1.254 . S
O35 Dy20 2.310 1_556 S
O35 Dy23 2.661 1_556 S
O35 C29 1.268 . S
O36 Dy20 2.351 1_455 S
O36 C39 1.249 . S
O37 Dy23 2.325 1_456 S
O37 C39 1.267 1_556 S
C38 O30 1.249 . S
C38 O31 1.267 . S
C39 O36 1.249 . S
C39 O37 1.267 1_554 S
Dy40 O44 2.398 . S
Dy40 O45 2.491 . S
Dy40 O46 2.403 . S
Dy40 O47 2.664 . S
Dy40 O51 2.326 . S
Dy40 O55 2.310 . S
Dy40 O56 2.351 1_455 S
C41 O52 1.185 1_655 S
C41 O53 1.356 1_655 S
C42 O44 1.185 . S
C42 O45 1.355 . S
Dy43 O47 2.310 . S
Dy43 O50 2.351 . S
Dy43 O52 2.398 . S
Dy43 O53 2.490 . S
Dy43 O54 2.403 . S
Dy43 O55 2.664 . S
Dy43 O57 2.326 1_455 S
O44 Dy40 2.398 . S
O44 C42 1.185 . S
O45 Dy40 2.491 . S
O45 C42 1.355 . S
O46 Dy40 2.403 . S
O46 C48 1.254 . S
O47 Dy40 2.664 . S
O47 Dy43 2.310 . S
O47 C48 1.268 . S
C48 O46 1.254 . S
C48 O47 1.268 . S
C49 O54 1.254 . S
C49 O55 1.268 . S
O50 Dy43 2.351 . S
O50 C58 1.249 . S
O51 Dy40 2.326 . S
O51 C58 1.267 . S
O52 C41 1.185 1_455 S
O52 Dy43 2.398 . S
O53 C41 1.356 1_455 S
O53 Dy43 2.490 . S
O54 Dy43 2.403 . S
O54 C49 1.254 . S
O55 Dy40 2.310 . S
O55 Dy43 2.664 . S
O55 C49 1.268 . S
O56 Dy40 2.351 1_655 S
O56 C59 1.249 . S
O57 Dy43 2.326 1_655 S
O57 C59 1.267 . S
C58 O50 1.249 . S
C58 O51 1.267 . S
C59 O56 1.249 . S
C59 O57 1.267 . S
Dy60 O64 2.398 . S
Dy60 O65 2.490 . S
Dy60 O66 2.403 . S
Dy60 O67 2.664 . S
Dy60 O71 2.326 1_655 S
Dy60 O75 2.310 . S
Dy60 O76 2.351 . S
C61 O72 1.185 . S
C61 O73 1.355 . S
C62 O64 1.185 1_455 S
C62 O65 1.356 1_455 S
Dy63 O67 2.310 . S
Dy63 O70 2.351 1_655 S
Dy63 O72 2.398 . S
Dy63 O73 2.491 . S
Dy63 O74 2.403 . S
Dy63 O75 2.664 . S
Dy63 O77 2.326 . S
O64 Dy60 2.398 . S
O64 C62 1.185 1_655 S
O65 Dy60 2.490 . S
O65 C62 1.356 1_655 S
O66 Dy60 2.403 . S
O66 C68 1.254 . S
O67 Dy60 2.664 . S
O67 Dy63 2.310 . S
O67 C68 1.268 . S
C68 O66 1.254 . S
C68 O67 1.268 . S
C69 O74 1.254 . S
C69 O75 1.268 . S
O70 Dy63 2.351 1_455 S
O70 C78 1.249 . S
O71 Dy60 2.326 1_455 S
O71 C78 1.267 . S
O72 C61 1.185 . S
O72 Dy63 2.398 . S
O73 C61 1.355 . S
O73 Dy63 2.491 . S
O74 Dy63 2.403 . S
O74 C69 1.254 . S
O75 Dy60 2.310 . S
O75 Dy63 2.664 . S
O75 C69 1.268 . S
O76 Dy60 2.351 . S
O76 C79 1.249 . S
O77 Dy63 2.326 . S
O77 C79 1.267 . S
C78 O70 1.249 . S
C78 O71 1.267 . S
C79 O76 1.249 . S
C79 O77 1.267 . S
Dy80 O84 2.398 . S
Dy80 O85 2.491 1_554 S
Dy80 O86 2.403 . S
Dy80 O87 2.664 . S
Dy80 O91 2.326 . S
Dy80 O95 2.310 1_554 S
Dy80 O96 2.351 . S
C81 O92 1.185 1_554 S
C81 O93 1.355 . S
C82 O84 1.185 . S
C82 O85 1.355 1_554 S
Dy83 O87 2.310 1_556 S
Dy83 O90 2.351 1_556 S
Dy83 O92 2.398 . S
Dy83 O93 2.491 1_556 S
Dy83 O94 2.403 . S
Dy83 O95 2.664 . S
Dy83 O97 2.326 . S
O84 Dy80 2.398 . S
O84 C82 1.185 . S
O85 Dy80 2.491 1_556 S
O85 C82 1.355 1_556 S
O86 Dy80 2.403 . S
O86 C88 1.254 . S
O87 Dy80 2.664 . S
O87 Dy83 2.310 1_554 S
O87 C88 1.268 . S
C88 O86 1.254 . S
C88 O87 1.268 . S
C89 O94 1.254 . S
C89 O95 1.268 . S
O90 Dy83 2.351 1_554 S
O90 C98 1.249 . S
O91 Dy80 2.326 . S
O91 C98 1.267 . S
O92 C81 1.185 1_556 S
O92 Dy83 2.398 . S
O93 C81 1.355 . S
O93 Dy83 2.491 1_554 S
O94 Dy83 2.403 . S
O94 C89 1.254 . S
O95 Dy80 2.310 1_556 S
O95 Dy83 2.664 . S
O95 C89 1.268 . S
O96 Dy80 2.351 . S
O96 C99 1.249 1_554 S
O97 Dy83 2.326 . S
O97 C99 1.267 . S
C98 O90 1.249 . S
C98 O91 1.267 . S
C99 O96 1.249 1_556 S
C99 O97 1.267 . S
Dy100 O104 2.398 . S
Dy100 O105 2.491 1_554 S
Dy100 O106 2.403 . S
Dy100 O107 2.664 . S
Dy100 O111 2.326 . S
Dy100 O115 2.310 1_554 S
Dy100 O116 2.351 . S
C101 O112 1.185 1_554 S
C101 O113 1.355 . S
C102 O104 1.185 . S
C102 O105 1.355 1_554 S
Dy103 O107 2.314 . S
Dy103 O110 2.351 . S
Dy103 O112 2.396 1_554 S
Dy103 O113 2.495 . S
Dy103 O114 2.397 1_554 S
Dy103 O115 2.661 1_554 S
Dy103 O117 2.325 1_554 S
O104 Dy100 2.398 . S
O104 C102 1.185 . S
O105 Dy100 2.491 1_556 S
O105 C102 1.355 1_556 S
O106 Dy100 2.403 . S
O106 C108 1.254 . S
O107 Dy100 2.664 . S
O107 Dy103 2.314 . S
O107 C108 1.268 . S
C108 O106 1.254 . S
C108 O107 1.268 . S
C109 O114 1.254 . S
C109 O115 1.268 . S
O110 Dy103 2.351 . S
O110 C118 1.249 . S
O111 Dy100 2.326 . S
O111 C118 1.267 . S
O112 C101 1.185 1_556 S
O112 Dy103 2.396 1_556 S
O113 C101 1.355 . S
O113 Dy103 2.495 . S
O114 Dy103 2.397 1_556 S
O114 C109 1.254 . S
O115 Dy100 2.310 1_556 S
O115 Dy103 2.661 1_556 S
O115 C109 1.268 . S
O116 Dy100 2.351 . S
O116 C119 1.249 . S
O117 Dy103 2.325 1_556 S
O117 C119 1.267 1_556 S
C118 O110 1.249 . S
C118 O111 1.267 . S
C119 O116 1.249 . S
C119 O117 1.267 1_554 S
Dy120 O124 2.398 . S
Dy120 O125 2.491 . S
Dy120 O126 2.403 . S
Dy120 O127 2.664 . S
Dy120 O131 2.326 . S
Dy120 O135 2.310 . S
Dy120 O136 2.351 . S
C121 O132 1.185 . S
C121 O133 1.355 . S
C122 O124 1.185 . S
C122 O125 1.355 . S
Dy123 O127 2.310 . S
Dy123 O130 2.351 . S
Dy123 O132 2.398 . S
Dy123 O133 2.491 . S
Dy123 O134 2.403 . S
Dy123 O135 2.664 . S
Dy123 O137 2.326 . S
O124 Dy120 2.398 . S
O124 C122 1.185 . S
O125 Dy120 2.491 . S
O125 C122 1.355 . S
O126 Dy120 2.403 . S
O126 C128 1.254 . S
O127 Dy120 2.664 . S
O127 Dy123 2.310 . S
O127 C128 1.268 . S
C128 O126 1.254 . S
C128 O127 1.268 . S
C129 O134 1.254 . S
C129 O135 1.268 . S
O130 Dy123 2.351 . S
O130 C138 1.249 . S
O131 Dy120 2.326 . S
O131 C138 1.267 . S
O132 C121 1.185 . S
O132 Dy123 2.398 . S
O133 C121 1.355 . S
O133 Dy123 2.491 . S
O134 Dy123 2.403 . S
O134 C129 1.254 . S
O135 Dy120 2.310 . S
O135 Dy123 2.664 . S
O135 C129 1.268 . S
O136 Dy120 2.351 . S
O136 C139 1.249 . S
O137 Dy123 2.326 . S
O137 C139 1.267 . S
C138 O130 1.249 . S
C138 O131 1.267 . S
C139 O136 1.249 . S
C139 O137 1.267 . S
Dy140 O144 2.398 . S
Dy140 O145 2.491 . S
Dy140 O146 2.403 . S
Dy140 O147 2.664 . S
Dy140 O151 2.326 . S
Dy140 O155 2.310 . S
Dy140 O156 2.351 . S
C141 O152 1.185 . S
C141 O153 1.355 . S
C142 O144 1.185 . S
C142 O145 1.355 . S
Dy143 O147 2.310 . S
Dy143 O150 2.351 . S
Dy143 O152 2.398 . S
Dy143 O153 2.491 . S
Dy143 O154 2.403 . S
Dy143 O155 2.664 . S
Dy143 O157 2.326 . S
O144 Dy140 2.398 . S
O144 C142 1.185 . S
O145 Dy140 2.491 . S
O145 C142 1.355 . S
O146 Dy140 2.403 . S
O146 C148 1.254 . S
O147 Dy140 2.664 . S
O147 Dy143 2.310 . S
O147 C148 1.268 . S
C148 O146 1.254 . S
C148 O147 1.268 . S
C149 O154 1.254 . S
C149 O155 1.268 . S
O150 Dy143 2.351 . S
O150 C158 1.249 . S
O151 Dy140 2.326 . S
O151 C158 1.267 . S
O152 C141 1.185 . S
O152 Dy143 2.398 . S
O153 C141 1.355 . S
O153 Dy143 2.491 . S
O154 Dy143 2.403 . S
O154 C149 1.254 . S
O155 Dy140 2.310 . S
O155 Dy143 2.664 . S
O155 C149 1.268 . S
O156 Dy140 2.351 . S
O156 C159 1.249 . S
O157 Dy143 2.326 . S
O157 C159 1.267 . S
C158 O150 1.249 . S
C158 O151 1.267 . S
C159 O156 1.249 . S
C159 O157 1.267 . S
H160 C178 0.951 . S
H161 C180 0.951 . S
H162 C182 0.950 . S
H163 C183 0.950 . S
H164 C185 0.950 . S
H165 C188 0.950 . S
H166 C189 0.950 1_556 S
H167 C191 0.950 . S
H168 C192 0.950 . S
H169 C193 0.951 . S
H170 C195 0.951 . S
H171 C197 0.950 . S
H172 C198 0.950 . S
H173 C200 0.950 . S
H174 C203 0.950 . S
H175 C204 0.950 . S
H176 C206 0.950 . S
H177 C207 0.950 . S
C178 H160 0.951 . S
C178 C179 1.366 . S
C178 C180 1.388 . S
C179 C178 1.366 . S
C179 C183 1.385 1_554 S
C180 H161 0.951 . S
C180 C178 1.388 . S
C180 C181 1.366 . S
C181 C180 1.366 . S
C181 C182 1.414 1_554 S
C181 C184 1.499 . S
C182 H162 0.950 . S
C182 C181 1.414 1_556 S
C182 C183 1.374 . S
C183 H163 0.950 . S
C183 C179 1.385 1_556 S
C183 C182 1.374 . S
C184 C181 1.499 . S
C184 C185 1.373 1_554 S
C184 C186 1.389 . S
C185 H164 0.950 . S
C185 C184 1.373 1_556 S
C185 C201 1.377 . S
C186 C184 1.389 . S
C186 C187 1.524 . S
C186 C200 1.377 . S
C187 C186 1.524 . S
C187 C188 1.397 1_554 S
C187 C192 1.363 . S
C188 H165 0.950 . S
C188 C187 1.397 1_556 S
C188 C189 1.334 1_556 S
C189 H166 0.950 1_554 S
C189 C188 1.334 1_554 S
C189 C190 1.287 . S
C190 C189 1.287 . S
C190 C191 1.524 . S
C190 H209 0.913 . S
C191 H167 0.950 . S
C191 C190 1.524 . S
C191 C192 1.415 . S
C192 H168 0.950 . S
C192 C187 1.363 . S
C192 C191 1.415 . S
C193 H169 0.951 . S
C193 C194 1.366 1_556 S
C193 C195 1.388 . S
C194 C193 1.366 1_554 S
C194 C198 1.385 . S
C195 H170 0.951 . S
C195 C193 1.388 . S
C195 C196 1.366 1_556 S
C196 C195 1.366 1_554 S
C196 C197 1.414 . S
C196 C199 1.499 . S
C197 H171 0.950 . S
C197 C196 1.414 . S
C197 C198 1.374 . S
C198 H172 0.950 . S
C198 C194 1.385 . S
C198 C197 1.374 . S
C199 C196 1.499 . S
C199 C200 1.373 . S
C199 C201 1.389 1_554 S
C200 H173 0.950 . S
C200 C186 1.377 . S
C200 C199 1.373 . S
C201 C185 1.377 . S
C201 C199 1.389 1_556 S
C201 C202 1.524 . S
C202 C201 1.524 . S
C202 C203 1.397 1_556 S
C202 C207 1.363 . S
C203 H174 0.950 . S
C203 C202 1.397 1_554 S
C203 C204 1.334 . S
C204 H175 0.950 . S
C204 C203 1.334 . S
C204 C205 1.287 1_554 S
C205 C204 1.287 1_556 S
C205 C206 1.524 . S
C205 H208 0.999 . S
C206 H176 0.950 . S
C206 C205 1.524 . S
C206 C207 1.415 . S
C207 H177 0.950 . S
C207 C202 1.363 . S
C207 C206 1.415 . S
H208 C205 0.999 . S
H209 C190 0.913 . S
H210 C228 0.951 . S
H211 C230 0.951 . S
H212 C232 0.950 . S
H213 C233 0.950 . S
H214 C235 0.950 . S
H215 C238 0.950 . S
H216 C239 0.950 . S
H217 C241 0.950 1_554 S
H218 C242 0.950 . S
H219 C243 0.951 . S
H220 C245 0.951 . S
H221 C247 0.950 . S
H222 C248 0.950 . S
H223 C250 0.950 1_556 S
H224 C253 0.950 . S
H225 C254 0.950 . S
H226 C256 0.950 . S
H227 C257 0.950 1_556 S
C228 H210 0.951 . S
C228 C229 1.366 . S
C228 C230 1.388 . S
C229 C228 1.366 . S
C229 C233 1.385 1_554 S
C230 H211 0.951 . S
C230 C228 1.388 . S
C230 C231 1.366 . S
C231 C230 1.366 . S
C231 C232 1.414 1_554 S
C231 C234 1.499 . S
C232 H212 0.950 . S
C232 C231 1.414 1_556 S
C232 C233 1.374 . S
C233 H213 0.950 . S
C233 C229 1.385 1_556 S
C233 C232 1.374 . S
C234 C231 1.499 . S
C234 C235 1.373 . S
C234 C236 1.389 1_554 S
C235 H214 0.950 . S
C235 C234 1.373 . S
C235 C251 1.377 . S
C236 C234 1.389 1_556 S
C236 C237 1.524 . S
C236 C250 1.376 1_556 S
C237 C236 1.524 . S
C237 C238 1.397 . S
C237 C242 1.363 1_556 S
C238 H215 0.950 . S
C238 C237 1.397 . S
C238 C239 1.334 . S
C239 H216 0.950 . S
C239 C238 1.334 . S
C239 C240 1.287 . S
C240 C239 1.287 . S
C240 C241 1.524 . S
C240 H259 0.913 . S
C241 H217 0.950 1_556 S
C241 C240 1.524 . S
C241 C242 1.415 1_556 S
C242 H218 0.950 . S
C242 C237 1.363 1_554 S
C242 C241 1.415 1_554 S
C243 H219 0.951 . S
C243 C244 1.366 1_556 S
C243 C245 1.388 . S
C244 C243 1.366 1_554 S
C244 C248 1.385 . S
C245 H220 0.951 . S
C245 C243 1.388 . S
C245 C246 1.366 1_556 S
C246 C245 1.366 1_554 S
C246 C247 1.414 . S
C246 C249 1.499 . S
C247 H221 0.950 . S
C247 C246 1.414 . S
C247 C248 1.374 . S
C248 H222 0.950 . S
C248 C244 1.385 . S
C248 C247 1.374 . S
C249 C246 1.499 . S
C249 C250 1.375 . S
C249 C251 1.389 . S
C250 H223 0.950 1_554 S
C250 C236 1.376 1_554 S
C250 C249 1.375 . S
C251 C235 1.377 . S
C251 C249 1.389 . S
C251 C252 1.524 . S
C252 C251 1.524 . S
C252 C253 1.397 . S
C252 C257 1.363 . S
C253 H224 0.950 . S
C253 C252 1.397 . S
C253 C254 1.334 . S
C254 H225 0.950 . S
C254 C253 1.334 . S
C254 C255 1.287 . S
C255 C254 1.287 . S
C255 C256 1.524 . S
C255 H258 0.999 . S
C256 H226 0.950 . S
C256 C255 1.524 . S
C256 C257 1.415 . S
C257 H227 0.950 1_554 S
C257 C252 1.363 . S
C257 C256 1.415 . S
H258 C255 0.999 . S
H259 C240 0.913 . S
H260 C278 0.951 . S
H261 C280 0.951 . S
H262 C282 0.950 . S
H263 C283 0.950 . S
H264 C285 0.950 . S
H265 C288 0.950 . S
H266 C289 0.950 . S
H267 C291 0.950 . S
H268 C292 0.950 . S
H269 C293 0.951 . S
H270 C295 0.951 . S
H271 C297 0.950 . S
H272 C298 0.950 . S
H273 C300 0.950 . S
H274 C303 0.950 . S
H275 C304 0.950 . S
H276 C306 0.950 . S
H277 C307 0.950 . S
C278 H260 0.951 . S
C278 C279 1.366 . S
C278 C280 1.388 . S
C279 C278 1.366 . S
C279 C283 1.385 . S
C280 H261 0.951 . S
C280 C278 1.388 . S
C280 C281 1.366 . S
C281 C280 1.366 . S
C281 C282 1.414 . S
C281 C284 1.499 . S
C282 H262 0.950 . S
C282 C281 1.414 . S
C282 C283 1.374 . S
C283 H263 0.950 . S
C283 C279 1.385 . S
C283 C282 1.374 . S
C284 C281 1.499 . S
C284 C285 1.373 . S
C284 C286 1.389 . S
C285 H264 0.950 . S
C285 C284 1.373 . S
C285 C301 1.377 . S
C286 C284 1.389 . S
C286 C287 1.524 . S
C286 C300 1.377 . S
C287 C286 1.524 . S
C287 C288 1.397 . S
C287 C292 1.363 . S
C288 H265 0.950 . S
C288 C287 1.397 . S
C288 C289 1.334 . S
C289 H266 0.950 . S
C289 C288 1.334 . S
C289 C290 1.287 . S
C290 C289 1.287 . S
C290 C291 1.524 . S
C290 H309 0.913 . S
C291 H267 0.950 . S
C291 C290 1.524 . S
C291 C292 1.415 . S
C292 H268 0.950 . S
C292 C287 1.363 . S
C292 C291 1.415 . S
C293 H269 0.951 . S
C293 C294 1.366 . S
C293 C295 1.388 . S
C294 C293 1.366 . S
C294 C298 1.385 . S
C295 H270 0.951 . S
C295 C293 1.388 . S
C295 C296 1.366 . S
C296 C295 1.366 . S
C296 C297 1.414 . S
C296 C299 1.499 . S
C297 H271 0.950 . S
C297 C296 1.414 . S
C297 C298 1.374 . S
C298 H272 0.950 . S
C298 C294 1.385 . S
C298 C297 1.374 . S
C299 C296 1.499 . S
C299 C300 1.373 . S
C299 C301 1.389 . S
C300 H273 0.950 . S
C300 C286 1.377 . S
C300 C299 1.373 . S
C301 C285 1.377 . S
C301 C299 1.389 . S
C301 C302 1.524 . S
C302 C301 1.524 . S
C302 C303 1.397 . S
C302 C307 1.363 . S
C303 H274 0.950 . S
C303 C302 1.397 . S
C303 C304 1.334 . S
C304 H275 0.950 . S
C304 C303 1.334 . S
C304 C305 1.287 . S
C305 C304 1.287 . S
C305 C306 1.524 . S
C305 H308 0.999 . S
C306 H276 0.950 . S
C306 C305 1.524 . S
C306 C307 1.415 . S
C307 H277 0.950 . S
C307 C302 1.363 . S
C307 C306 1.415 . S
H308 C305 0.999 . S
H309 C290 0.913 . S
H310 C328 0.951 . S
H311 C330 0.951 . S
H312 C332 0.950 . S
H313 C333 0.950 . S
H314 C335 0.950 . S
H315 C338 0.950 . S
H316 C339 0.950 . S
H317 C341 0.950 . S
H318 C342 0.950 . S
H319 C343 0.951 . S
H320 C345 0.951 . S
H321 C347 0.950 . S
H322 C348 0.950 . S
H323 C350 0.950 . S
H324 C353 0.950 . S
H325 C354 0.950 . S
H326 C356 0.950 . S
H327 C357 0.950 . S
C328 H310 0.951 . S
C328 C329 1.366 . S
C328 C330 1.388 . S
C329 C328 1.366 . S
C329 C333 1.385 . S
C330 H311 0.951 . S
C330 C328 1.388 . S
C330 C331 1.366 . S
C331 C330 1.366 . S
C331 C332 1.414 . S
C331 C334 1.499 . S
C332 H312 0.950 . S
C332 C331 1.414 . S
C332 C333 1.374 . S
C333 H313 0.950 . S
C333 C329 1.385 . S
C333 C332 1.374 . S
C334 C331 1.499 . S
C334 C335 1.373 . S
C334 C336 1.389 . S
C335 H314 0.950 . S
C335 C334 1.373 . S
C335 C351 1.377 . S
C336 C334 1.389 . S
C336 C337 1.524 . S
C336 C350 1.377 . S
C337 C336 1.524 . S
C337 C338 1.397 . S
C337 C342 1.363 . S
C338 H315 0.950 . S
C338 C337 1.397 . S
C338 C339 1.334 . S
C339 H316 0.950 . S
C339 C338 1.334 . S
C339 C340 1.287 . S
C340 C339 1.287 . S
C340 C341 1.524 . S
C340 H359 0.913 . S
C341 H317 0.950 . S
C341 C340 1.524 . S
C341 C342 1.415 . S
C342 H318 0.950 . S
C342 C337 1.363 . S
C342 C341 1.415 . S
C343 H319 0.951 . S
C343 C344 1.366 . S
C343 C345 1.388 . S
C344 C343 1.366 . S
C344 C348 1.385 . S
C345 H320 0.951 . S
C345 C343 1.388 . S
C345 C346 1.366 . S
C346 C345 1.366 . S
C346 C347 1.414 . S
C346 C349 1.499 . S
C347 H321 0.950 . S
C347 C346 1.414 . S
C347 C348 1.374 . S
C348 H322 0.950 . S
C348 C344 1.385 . S
C348 C347 1.374 . S
C349 C346 1.499 . S
C349 C350 1.373 . S
C349 C351 1.389 . S
C350 H323 0.950 . S
C350 C336 1.377 . S
C350 C349 1.373 . S
C351 C335 1.377 . S
C351 C349 1.389 . S
C351 C352 1.524 . S
C352 C351 1.524 . S
C352 C353 1.397 . S
C352 C357 1.363 . S
C353 H324 0.950 . S
C353 C352 1.397 . S
C353 C354 1.334 . S
C354 H325 0.950 . S
C354 C353 1.334 . S
C354 C355 1.287 . S
C355 C354 1.287 . S
C355 C356 1.524 . S
C355 H358 0.999 . S
C356 H326 0.950 . S
C356 C355 1.524 . S
C356 C357 1.415 . S
C357 H327 0.950 . S
C357 C352 1.363 . S
C357 C356 1.415 . S
H358 C355 0.999 . S
H359 C340 0.913 . S
H360 C378 0.951 . S
H361 C380 0.951 . S
H362 C382 0.950 . S
H363 C383 0.950 . S
H364 C385 0.950 1_655 S
H365 C388 0.950 . S
H366 C389 0.950 . S
H367 C391 0.950 . S
H368 C392 0.950 . S
H369 C393 0.951 . S
H370 C395 0.951 . S
H371 C397 0.950 . S
H372 C398 0.950 . S
H373 C400 0.950 . S
H374 C403 0.950 . S
H375 C404 0.950 . S
H376 C406 0.950 . S
H377 C407 0.950 . S
C378 H360 0.951 . S
C378 C379 1.366 1_556 S
C378 C380 1.388 . S
C379 C378 1.366 1_554 S
C379 C383 1.385 . S
C380 H361 0.951 . S
C380 C378 1.388 . S
C380 C381 1.366 1_556 S
C381 C380 1.366 1_554 S
C381 C382 1.414 . S
C381 C384 1.499 . S
C382 H362 0.950 . S
C382 C381 1.414 . S
C382 C383 1.374 . S
C383 H363 0.950 . S
C383 C379 1.385 . S
C383 C382 1.374 . S
C384 C381 1.499 . S
C384 C385 1.373 1_655 S
C384 C386 1.389 1_655 S
C385 H364 0.950 1_455 S
C385 C384 1.373 1_455 S
C385 C401 1.377 . S
C386 C384 1.389 1_455 S
C386 C387 1.524 . S
C386 C400 1.377 . S
C387 C386 1.524 . S
C387 C388 1.397 1_455 S
C387 C392 1.363 1_554 S
C388 H365 0.950 . S
C388 C387 1.397 1_655 S
C388 C389 1.334 . S
C389 H366 0.950 . S
C389 C388 1.334 . S
C389 C390 1.287 . S
C390 C389 1.287 . S
C390 C391 1.524 1_654 S
C390 H409 0.913 . S
C391 H367 0.950 . S
C391 C390 1.524 1_456 S
C391 C392 1.415 . S
C392 H368 0.950 . S
C392 C387 1.363 1_556 S
C392 C391 1.415 . S
C393 H369 0.951 . S
C393 C394 1.366 . S
C393 C395 1.388 . S
C394 C393 1.366 . S
C394 C398 1.385 1_554 S
C395 H370 0.951 . S
C395 C393 1.388 . S
C395 C396 1.366 . S
C396 C395 1.366 . S
C396 C397 1.414 1_554 S
C396 C399 1.499 . S
C397 H371 0.950 . S
C397 C396 1.414 1_556 S
C397 C398 1.374 . S
C398 H372 0.950 . S
C398 C394 1.385 1_556 S
C398 C397 1.374 . S
C399 C396 1.499 . S
C399 C400 1.373 . S
C399 C401 1.389 . S
C400 H373 0.950 . S
C400 C386 1.377 . S
C400 C399 1.373 . S
C401 C385 1.377 . S
C401 C399 1.389 . S
C401 C402 1.524 1_554 S
C402 C401 1.524 1_556 S
C402 C403 1.397 . S
C402 C407 1.363 1_556 S
C403 H374 0.950 . S
C403 C402 1.397 . S
C403 C404 1.334 . S
C404 H375 0.950 . S
C404 C403 1.334 . S
C404 C405 1.287 . S
C405 C404 1.287 . S
C405 C406 1.524 1_556 S
C405 H408 0.999 . S
C406 H376 0.950 . S
C406 C405 1.524 1_554 S
C406 C407 1.415 . S
C407 H377 0.950 . S
C407 C402 1.363 1_554 S
C407 C406 1.415 . S
H408 C405 0.999 . S
H409 C390 0.913 . S
H410 C428 0.951 . S
H411 C430 0.951 . S
H412 C432 0.950 . S
H413 C433 0.950 . S
H414 C435 0.950 . S
H415 C438 0.950 . S
H416 C439 0.950 . S
H417 C441 0.950 . S
H418 C442 0.950 1_655 S
H419 C443 0.951 . S
H420 C445 0.951 . S
H421 C447 0.950 . S
H422 C448 0.950 . S
H423 C450 0.950 . S
H424 C453 0.950 . S
H425 C454 0.950 . S
H426 C456 0.950 . S
H427 C457 0.950 . S
C428 H410 0.951 . S
C428 C429 1.366 1_556 S
C428 C430 1.388 . S
C429 C428 1.366 1_554 S
C429 C433 1.385 . S
C430 H411 0.951 . S
C430 C428 1.388 . S
C430 C431 1.366 1_556 S
C431 C430 1.366 1_554 S
C431 C432 1.414 . S
C431 C434 1.499 . S
C432 H412 0.950 . S
C432 C431 1.414 . S
C432 C433 1.374 . S
C433 H413 0.950 . S
C433 C429 1.385 . S
C433 C432 1.374 . S
C434 C431 1.499 . S
C434 C435 1.373 1_455 S
C434 C436 1.389 1_454 S
C435 H414 0.950 . S
C435 C434 1.373 1_655 S
C435 C451 1.377 . S
C436 C434 1.389 1_656 S
C436 C437 1.524 1_655 S
C436 C450 1.377 . S
C437 C436 1.524 1_455 S
C437 C438 1.397 . S
C437 C442 1.363 . S
C438 H415 0.950 . S
C438 C437 1.397 . S
C438 C439 1.334 . S
C439 H416 0.950 . S
C439 C438 1.334 . S
C439 C440 1.287 . S
C440 C439 1.287 . S
C440 C441 1.524 . S
C440 H459 0.913 . S
C441 H417 0.950 . S
C441 C440 1.524 . S
C441 C442 1.415 . S
C442 H418 0.950 1_455 S
C442 C437 1.363 . S
C442 C441 1.415 . S
C443 H419 0.951 . S
C443 C444 1.366 . S
C443 C445 1.388 . S
C444 C443 1.366 . S
C444 C448 1.385 1_554 S
C445 H420 0.951 . S
C445 C443 1.388 . S
C445 C446 1.366 . S
C446 C445 1.366 . S
C446 C447 1.414 1_554 S
C446 C449 1.499 . S
C447 H421 0.950 . S
C447 C446 1.414 1_556 S
C447 C448 1.374 . S
C448 H422 0.950 . S
C448 C444 1.385 1_556 S
C448 C447 1.374 . S
C449 C446 1.499 . S
C449 C450 1.373 1_554 S
C449 C451 1.389 . S
C450 H423 0.950 . S
C450 C436 1.377 . S
C450 C449 1.373 1_556 S
C451 C435 1.377 . S
C451 C449 1.389 . S
C451 C452 1.524 . S
C452 C451 1.524 . S
C452 C453 1.397 . S
C452 C457 1.363 . S
C453 H424 0.950 . S
C453 C452 1.397 . S
C453 C454 1.334 . S
C454 H425 0.950 . S
C454 C453 1.334 . S
C454 C455 1.287 . S
C455 C454 1.287 . S
C455 C456 1.524 . S
C455 H458 0.999 . S
C456 H426 0.950 . S
C456 C455 1.524 . S
C456 C457 1.415 . S
C457 H427 0.950 . S
C457 C452 1.363 . S
C457 C456 1.415 . S
H458 C455 0.999 . S
H459 C440 0.913 . S
H460 C478 0.951 . S
H461 C480 0.951 . S
H462 C482 0.950 . S
H463 C483 0.950 . S
H464 C485 0.950 . S
H465 C488 0.950 . S
H466 C489 0.950 . S
H467 C491 0.950 . S
H468 C492 0.950 . S
H469 C493 0.951 . S
H470 C495 0.951 . S
H471 C497 0.950 . S
H472 C498 0.950 . S
H473 C500 0.950 1_655 S
H474 C503 0.950 . S
H475 C504 0.950 . S
H476 C506 0.950 . S
H477 C507 0.950 . S
C478 H460 0.951 . S
C478 C479 1.366 . S
C478 C480 1.388 . S
C479 C478 1.366 . S
C479 C483 1.385 . S
C480 H461 0.951 . S
C480 C478 1.388 . S
C480 C481 1.366 . S
C481 C480 1.366 . S
C481 C482 1.414 . S
C481 C484 1.499 . S
C482 H462 0.950 . S
C482 C481 1.414 . S
C482 C483 1.374 . S
C483 H463 0.950 . S
C483 C479 1.385 . S
C483 C482 1.374 . S
C484 C481 1.499 . S
C484 C485 1.373 . S
C484 C486 1.389 . S
C485 H464 0.950 . S
C485 C484 1.373 . S
C485 C501 1.377 . S
C486 C484 1.389 . S
C486 C487 1.524 . S
C486 C500 1.377 . S
C487 C486 1.524 . S
C487 C488 1.397 . S
C487 C492 1.363 . S
C488 H465 0.950 . S
C488 C487 1.397 . S
C488 C489 1.334 . S
C489 H466 0.950 . S
C489 C488 1.334 . S
C489 C490 1.287 . S
C490 C489 1.287 . S
C490 C491 1.524 . S
C490 H509 0.913 . S
C491 H467 0.950 . S
C491 C490 1.524 . S
C491 C492 1.415 . S
C492 H468 0.950 . S
C492 C487 1.363 . S
C492 C491 1.415 . S
C493 H469 0.951 . S
C493 C494 1.366 . S
C493 C495 1.388 . S
C494 C493 1.366 . S
C494 C498 1.385 . S
C495 H470 0.951 . S
C495 C493 1.388 . S
C495 C496 1.366 . S
C496 C495 1.366 . S
C496 C497 1.414 . S
C496 C499 1.499 . S
C497 H471 0.950 . S
C497 C496 1.414 . S
C497 C498 1.374 . S
C498 H472 0.950 . S
C498 C494 1.385 . S
C498 C497 1.374 . S
C499 C496 1.499 . S
C499 C500 1.373 1_655 S
C499 C501 1.389 1_655 S
C500 H473 0.950 1_455 S
C500 C486 1.377 . S
C500 C499 1.373 1_455 S
C501 C485 1.377 . S
C501 C499 1.389 1_455 S
C501 C502 1.524 . S
C502 C501 1.524 . S
C502 C503 1.397 1_455 S
C502 C507 1.363 . S
C503 H474 0.950 . S
C503 C502 1.397 1_655 S
C503 C504 1.334 . S
C504 H475 0.950 . S
C504 C503 1.334 . S
C504 C505 1.287 . S
C505 C504 1.287 . S
C505 C506 1.524 1_655 S
C505 H508 0.999 . S
C506 H476 0.950 . S
C506 C505 1.524 1_455 S
C506 C507 1.415 . S
C507 H477 0.950 . S
C507 C502 1.363 . S
C507 C506 1.415 . S
H508 C505 0.999 . S
H509 C490 0.913 . S
H510 C528 0.951 . S
H511 C530 0.951 . S
H512 C532 0.950 . S
H513 C533 0.950 . S
H514 C535 0.950 . S
H515 C538 0.950 . S
H516 C539 0.950 . S
H517 C541 0.950 . S
H518 C542 0.950 . S
H519 C543 0.951 . S
H520 C545 0.951 . S
H521 C547 0.950 . S
H522 C548 0.950 . S
H523 C550 0.950 . S
H524 C553 0.950 . S
H525 C554 0.950 . S
H526 C556 0.950 . S
H527 C557 0.950 . S
C528 H510 0.951 . S
C528 C529 1.366 . S
C528 C530 1.388 . S
C529 C528 1.366 . S
C529 C533 1.385 . S
C530 H511 0.951 . S
C530 C528 1.388 . S
C530 C531 1.366 . S
C531 C530 1.366 . S
C531 C532 1.414 . S
C531 C534 1.499 . S
C532 H512 0.950 . S
C532 C531 1.414 . S
C532 C533 1.374 . S
C533 H513 0.950 . S
C533 C529 1.385 . S
C533 C532 1.374 . S
C534 C531 1.499 . S
C534 C535 1.373 . S
C534 C536 1.389 . S
C535 H514 0.950 . S
C535 C534 1.373 . S
C535 C551 1.377 . S
C536 C534 1.389 . S
C536 C537 1.524 . S
C536 C550 1.377 . S
C537 C536 1.524 . S
C537 C538 1.397 . S
C537 C542 1.363 . S
C538 H515 0.950 . S
C538 C537 1.397 . S
C538 C539 1.334 . S
C539 H516 0.950 . S
C539 C538 1.334 . S
C539 C540 1.287 . S
C540 C539 1.287 . S
C540 C541 1.524 . S
C540 H559 0.913 . S
C541 H517 0.950 . S
C541 C540 1.524 . S
C541 C542 1.415 . S
C542 H518 0.950 . S
C542 C537 1.363 . S
C542 C541 1.415 . S
C543 H519 0.951 . S
C543 C544 1.366 . S
C543 C545 1.388 . S
C544 C543 1.366 . S
C544 C548 1.385 . S
C545 H520 0.951 . S
C545 C543 1.388 . S
C545 C546 1.366 . S
C546 C545 1.366 . S
C546 C547 1.414 . S
C546 C549 1.499 . S
C547 H521 0.950 . S
C547 C546 1.414 . S
C547 C548 1.374 . S
C548 H522 0.950 . S
C548 C544 1.385 . S
C548 C547 1.374 . S
C549 C546 1.499 . S
C549 C550 1.373 1_455 S
C549 C551 1.389 1_455 S
C550 H523 0.950 . S
C550 C536 1.377 . S
C550 C549 1.373 1_655 S
C551 C535 1.377 . S
C551 C549 1.389 1_655 S
C551 C552 1.524 1_655 S
C552 C551 1.524 1_455 S
C552 C553 1.397 . S
C552 C557 1.363 1_455 S
C553 H524 0.950 . S
C553 C552 1.397 . S
C553 C554 1.334 . S
C554 H525 0.950 . S
C554 C553 1.334 . S
C554 C555 1.287 . S
C555 C554 1.287 . S
C555 C556 1.524 . S
C555 H558 0.999 . S
C556 H526 0.950 . S
C556 C555 1.524 . S
C556 C557 1.415 1_455 S
C557 H527 0.950 . S
C557 C552 1.363 1_655 S
C557 C556 1.415 1_655 S
H558 C555 0.999 . S
H559 C540 0.913 . S
H560 C578 0.951 . S
H561 C580 0.951 . S
H562 C582 0.950 . S
H563 C583 0.950 . S
H564 C585 0.950 . S
H565 C588 0.950 . S
H566 C589 0.950 . S
H567 C591 0.950 . S
H568 C592 0.950 . S
H569 C593 0.951 . S
H570 C595 0.951 . S
H571 C597 0.950 . S
H572 C598 0.950 . S
H573 C600 0.950 . S
H574 C603 0.950 . S
H575 C604 0.950 . S
H576 C606 0.950 . S
H577 C607 0.950 . S
C578 H560 0.951 . S
C578 C579 1.366 1_556 S
C578 C580 1.388 . S
C579 C578 1.366 1_554 S
C579 C583 1.385 1_455 S
C580 H561 0.951 . S
C580 C578 1.388 . S
C580 C581 1.366 1_556 S
C581 C580 1.366 1_554 S
C581 C582 1.414 1_455 S
C581 C584 1.499 . S
C582 H562 0.950 . S
C582 C581 1.414 1_655 S
C582 C583 1.374 . S
C583 H563 0.950 . S
C583 C579 1.385 1_655 S
C583 C582 1.374 . S
C584 C581 1.499 . S
C584 C585 1.373 . S
C584 C586 1.389 1_454 S
C585 H564 0.950 . S
C585 C584 1.373 . S
C585 C601 1.377 . S
C586 C584 1.389 1_656 S
C586 C587 1.524 . S
C586 C600 1.377 . S
C587 C586 1.524 . S
C587 C588 1.397 . S
C587 C592 1.363 1_655 S
C588 H565 0.950 . S
C588 C587 1.397 . S
C588 C589 1.334 . S
C589 H566 0.950 . S
C589 C588 1.334 . S
C589 C590 1.287 . S
C590 C589 1.287 . S
C590 C591 1.524 1_655 S
C590 H609 0.913 . S
C591 H567 0.950 . S
C591 C590 1.524 1_455 S
C591 C592 1.415 . S
C592 H568 0.950 . S
C592 C587 1.363 1_455 S
C592 C591 1.415 . S
C593 H569 0.951 . S
C593 C594 1.375 . S
C593 C595 1.388 . S
C594 C593 1.375 . S
C594 C598 1.376 1_654 S
C595 H570 0.951 . S
C595 C593 1.388 . S
C595 C596 1.366 . S
C596 C595 1.366 . S
C596 C597 1.414 1_654 S
C596 C599 1.499 . S
C597 H571 0.950 . S
C597 C596 1.414 1_456 S
C597 C598 1.374 . S
C598 H572 0.950 . S
C598 C594 1.376 1_456 S
C598 C597 1.374 . S
C599 C596 1.499 . S
C599 C600 1.373 1_554 S
C599 C601 1.389 1_655 S
C600 H573 0.950 . S
C600 C586 1.377 . S
C600 C599 1.373 1_556 S
C601 C585 1.377 . S
C601 C599 1.389 1_455 S
C601 C602 1.524 . S
C602 C601 1.524 . S
C602 C603 1.397 . S
C602 C607 1.363 1_455 S
C603 H574 0.950 . S
C603 C602 1.397 . S
C603 C604 1.334 . S
C604 H575 0.950 . S
C604 C603 1.334 . S
C604 C605 1.287 . S
C605 C604 1.287 . S
C605 C606 1.524 1_455 S
C605 H608 0.999 . S
C606 H576 0.950 . S
C606 C605 1.524 1_655 S
C606 C607 1.415 . S
C607 H577 0.950 . S
C607 C602 1.363 1_655 S
C607 C606 1.415 . S
H608 C605 0.999 . S
H609 C590 0.913 . S
H610 C628 0.951 . S
H611 C630 0.951 . S
H612 C632 0.950 . S
H613 C633 0.950 . S
H614 C635 0.950 . S
H615 C638 0.950 . S
H616 C639 0.950 . S
H617 C641 0.950 . S
H618 C642 0.950 . S
H619 C643 0.951 . S
H620 C645 0.951 . S
H621 C647 0.950 . S
H622 C648 0.950 . S
H623 C650 0.950 . S
H624 C653 0.950 . S
H625 C654 0.950 . S
H626 C656 0.950 . S
H627 C657 0.950 . S
C628 H610 0.951 . S
C628 C629 1.366 1_655 S
C628 C630 1.388 . S
C629 C628 1.366 1_455 S
C629 C633 1.385 . S
C630 H611 0.951 . S
C630 C628 1.388 . S
C630 C631 1.366 1_655 S
C631 C630 1.366 1_455 S
C631 C632 1.414 . S
C631 C634 1.499 . S
C632 H612 0.950 . S
C632 C631 1.414 . S
C632 C633 1.374 . S
C633 H613 0.950 . S
C633 C629 1.385 . S
C633 C632 1.374 . S
C634 C631 1.499 . S
C634 C635 1.373 . S
C634 C636 1.389 1_455 S
C635 H614 0.950 . S
C635 C634 1.373 . S
C635 C651 1.377 . S
C636 C634 1.389 1_655 S
C636 C637 1.524 . S
C636 C650 1.377 . S
C637 C636 1.524 . S
C637 C638 1.397 . S
C637 C642 1.363 . S
C638 H615 0.950 . S
C638 C637 1.397 . S
C638 C639 1.334 . S
C639 H616 0.950 . S
C639 C638 1.334 . S
C639 C640 1.287 . S
C640 C639 1.287 . S
C640 C641 1.524 . S
C640 H659 0.913 . S
C641 H617 0.950 . S
C641 C640 1.524 . S
C641 C642 1.415 . S
C642 H618 0.950 . S
C642 C637 1.363 . S
C642 C641 1.415 . S
C643 H619 0.951 . S
C643 C644 1.366 1_455 S
C643 C645 1.388 . S
C644 C643 1.366 1_655 S
C644 C648 1.385 . S
C645 H620 0.951 . S
C645 C643 1.388 . S
C645 C646 1.366 1_455 S
C646 C645 1.366 1_655 S
C646 C647 1.414 . S
C646 C649 1.499 . S
C647 H621 0.950 . S
C647 C646 1.414 . S
C647 C648 1.374 . S
C648 H622 0.950 . S
C648 C644 1.385 . S
C648 C647 1.374 . S
C649 C646 1.499 . S
C649 C650 1.373 . S
C649 C651 1.389 1_655 S
C650 H623 0.950 . S
C650 C636 1.377 . S
C650 C649 1.373 . S
C651 C635 1.377 . S
C651 C649 1.389 1_455 S
C651 C652 1.524 . S
C652 C651 1.524 . S
C652 C653 1.397 . S
C652 C657 1.363 . S
C653 H624 0.950 . S
C653 C652 1.397 . S
C653 C654 1.334 . S
C654 H625 0.950 . S
C654 C653 1.334 . S
C654 C655 1.287 . S
C655 C654 1.287 . S
C655 C656 1.524 . S
C655 H658 0.999 . S
C656 H626 0.950 . S
C656 C655 1.524 . S
C656 C657 1.415 . S
C657 H627 0.950 . S
C657 C652 1.363 . S
C657 C656 1.415 . S
H658 C655 0.999 . S
H659 C640 0.913 . S
H660 C678 0.951 . S
H661 C680 0.951 . S
H662 C682 0.950 . S
H663 C683 0.950 . S
H664 C685 0.950 . S
H665 C688 0.950 . S
H666 C689 0.950 . S
H667 C691 0.950 . S
H668 C692 0.950 . S
H669 C693 0.951 . S
H670 C695 0.951 . S
H671 C697 0.950 . S
H672 C698 0.950 . S
H673 C700 0.950 . S
H674 C703 0.948 1_554 S
H675 C704 0.950 . S
H676 C706 0.950 . S
H677 C707 0.950 . S
C678 H660 0.951 . S
C678 C679 1.379 . S
C678 C680 1.388 . S
C679 C678 1.379 . S
C679 C683 1.372 1_554 S
C680 H661 0.951 . S
C680 C678 1.388 . S
C680 C681 1.366 . S
C681 C680 1.366 . S
C681 C682 1.414 1_554 S
C681 C684 1.499 . S
C682 H662 0.950 . S
C682 C681 1.414 1_556 S
C682 C683 1.374 . S
C683 H663 0.950 . S
C683 C679 1.372 1_556 S
C683 C682 1.374 . S
C684 C681 1.499 . S
C684 C685 1.373 1_554 S
C684 C686 1.389 . S
C685 H664 0.950 . S
C685 C684 1.373 1_556 S
C685 C701 1.377 1_565 S
C686 C684 1.389 . S
C686 C687 1.524 . S
C686 C700 1.377 1_565 S
C687 C686 1.524 . S
C687 C688 1.397 . S
C687 C692 1.363 . S
C688 H665 0.950 . S
C688 C687 1.397 . S
C688 C689 1.334 . S
C689 H666 0.950 . S
C689 C688 1.334 . S
C689 C690 1.287 . S
C690 C689 1.287 . S
C690 C691 1.524 . S
C690 H709 0.913 . S
C691 H667 0.950 . S
C691 C690 1.524 . S
C691 C692 1.415 . S
C692 H668 0.950 . S
C692 C687 1.363 . S
C692 C691 1.415 . S
C693 H669 0.951 . S
C693 C694 1.366 1_556 S
C693 C695 1.388 . S
C694 C693 1.366 1_554 S
C694 C698 1.385 . S
C695 H670 0.951 . S
C695 C693 1.388 . S
C695 C696 1.366 1_556 S
C696 C695 1.366 1_554 S
C696 C697 1.414 . S
C696 C699 1.499 . S
C697 H671 0.950 . S
C697 C696 1.414 . S
C697 C698 1.374 . S
C698 H672 0.950 . S
C698 C694 1.385 . S
C698 C697 1.374 . S
C699 C696 1.499 . S
C699 C700 1.373 . S
C699 C701 1.389 1_554 S
C700 H673 0.950 . S
C700 C686 1.377 1_545 S
C700 C699 1.373 . S
C701 C685 1.377 1_545 S
C701 C699 1.389 1_556 S
C701 C702 1.524 . S
C702 C701 1.524 . S
C702 C703 1.397 . S
C702 C707 1.363 . S
C703 H674 0.948 1_556 S
C703 C702 1.397 . S
C703 C704 1.334 . S
C704 H675 0.950 . S
C704 C703 1.334 . S
C704 C705 1.287 . S
C705 C704 1.287 . S
C705 C706 1.524 . S
C705 H708 0.999 . S
C706 H676 0.950 . S
C706 C705 1.524 . S
C706 C707 1.415 . S
C707 H677 0.950 . S
C707 C702 1.363 . S
C707 C706 1.415 . S
H708 C705 0.999 . S
H709 C690 0.913 . S
H710 C728 0.951 . S
H711 C730 0.951 . S
H712 C732 0.950 . S
H713 C733 0.950 . S
H714 C735 0.950 . S
H715 C738 0.950 . S
H716 C739 0.950 . S
H717 C741 0.950 . S
H718 C742 0.950 . S
H719 C743 0.951 . S
H720 C745 0.951 . S
H721 C747 0.950 . S
H722 C748 0.950 . S
H723 C750 0.950 . S
H724 C753 0.950 . S
H725 C754 0.950 . S
H726 C756 0.950 . S
H727 C757 0.950 . S
C728 H710 0.951 . S
C728 C729 1.366 . S
C728 C730 1.388 . S
C729 C728 1.366 . S
C729 C733 1.385 . S
C730 H711 0.951 . S
C730 C728 1.388 . S
C730 C731 1.366 . S
C731 C730 1.366 . S
C731 C732 1.414 . S
C731 C734 1.499 . S
C732 H712 0.950 . S
C732 C731 1.414 . S
C732 C733 1.374 . S
C733 H713 0.950 . S
C733 C729 1.385 . S
C733 C732 1.374 . S
C734 C731 1.499 . S
C734 C735 1.373 . S
C734 C736 1.389 . S
C735 H714 0.950 . S
C735 C734 1.373 . S
C735 C751 1.377 1_545 S
C736 C734 1.389 . S
C736 C737 1.524 . S
C736 C750 1.377 1_545 S
C737 C736 1.524 . S
C737 C738 1.397 . S
C737 C742 1.363 . S
C738 H715 0.950 . S
C738 C737 1.397 . S
C738 C739 1.334 . S
C739 H716 0.950 . S
C739 C738 1.334 . S
C739 C740 1.287 . S
C740 C739 1.287 . S
C740 C741 1.524 . S
C740 H759 0.913 . S
C741 H717 0.950 . S
C741 C740 1.524 . S
C741 C742 1.415 . S
C742 H718 0.950 . S
C742 C737 1.363 . S
C742 C741 1.415 . S
C743 H719 0.951 . S
C743 C744 1.366 . S
C743 C745 1.388 . S
C744 C743 1.366 . S
C744 C748 1.385 . S
C745 H720 0.951 . S
C745 C743 1.388 . S
C745 C746 1.366 . S
C746 C745 1.366 . S
C746 C747 1.414 . S
C746 C749 1.499 . S
C747 H721 0.950 . S
C747 C746 1.414 . S
C747 C748 1.374 . S
C748 H722 0.950 . S
C748 C744 1.385 . S
C748 C747 1.374 . S
C749 C746 1.499 . S
C749 C750 1.373 . S
C749 C751 1.389 . S
C750 H723 0.950 . S
C750 C736 1.377 1_565 S
C750 C749 1.373 . S
C751 C735 1.377 1_565 S
C751 C749 1.389 . S
C751 C752 1.524 . S
C752 C751 1.524 . S
C752 C753 1.397 . S
C752 C757 1.363 . S
C753 H724 0.950 . S
C753 C752 1.397 . S
C753 C754 1.334 . S
C754 H725 0.950 . S
C754 C753 1.334 . S
C754 C755 1.287 . S
C755 C754 1.287 . S
C755 C756 1.524 . S
C755 H758 0.999 . S
C756 H726 0.950 . S
C756 C755 1.524 . S
C756 C757 1.415 . S
C757 H727 0.950 . S
C757 C752 1.363 . S
C757 C756 1.415 . S
H758 C755 0.999 . S
H759 C740 0.913 . S
H760 C778 0.951 . S
H761 C780 0.951 . S
H762 C782 0.948 1_556 S
H763 C783 0.950 1_556 S
H764 C785 0.950 . S
H765 C788 0.950 . S
H766 C789 0.950 . S
H767 C791 0.950 . S
H768 C792 0.950 . S
H769 C793 0.951 . S
H770 C795 0.951 . S
H771 C797 0.950 . S
H772 C798 0.950 . S
H773 C800 0.950 . S
H774 C803 0.950 . S
H775 C804 0.950 . S
H776 C806 0.950 . S
H777 C807 0.950 . S
C778 H760 0.951 . S
C778 C779 1.366 . S
C778 C780 1.388 . S
C779 C778 1.366 . S
C779 C783 1.385 . S
C780 H761 0.951 . S
C780 C778 1.388 . S
C780 C781 1.366 . S
C781 C780 1.366 . S
C781 C782 1.418 . S
C781 C784 1.499 . S
C782 H762 0.948 1_554 S
C782 C781 1.418 . S
C782 C783 1.374 . S
C783 H763 0.950 1_554 S
C783 C779 1.385 . S
C783 C782 1.374 . S
C784 C781 1.499 . S
C784 C785 1.373 1_554 S
C784 C786 1.389 . S
C785 H764 0.950 . S
C785 C784 1.373 1_556 S
C785 C801 1.377 . S
C786 C784 1.389 . S
C786 C787 1.524 . S
C786 C800 1.377 . S
C787 C786 1.524 . S
C787 C788 1.397 . S
C787 C792 1.363 . S
C788 H765 0.950 . S
C788 C787 1.397 . S
C788 C789 1.334 . S
C789 H766 0.950 . S
C789 C788 1.334 . S
C789 C790 1.287 . S
C790 C789 1.287 . S
C790 C791 1.524 . S
C790 H809 0.913 . S
C791 H767 0.950 . S
C791 C790 1.524 . S
C791 C792 1.415 . S
C792 H768 0.950 . S
C792 C787 1.363 . S
C792 C791 1.415 . S
C793 H769 0.951 . S
C793 C794 1.366 1_556 S
C793 C795 1.388 . S
C794 C793 1.366 1_554 S
C794 C798 1.385 . S
C795 H770 0.951 . S
C795 C793 1.388 . S
C795 C796 1.366 1_556 S
C796 C795 1.366 1_554 S
C796 C797 1.414 . S
C796 C799 1.499 . S
C797 H771 0.950 . S
C797 C796 1.414 . S
C797 C798 1.374 . S
C798 H772 0.950 . S
C798 C794 1.385 . S
C798 C797 1.374 . S
C799 C796 1.499 . S
C799 C800 1.373 . S
C799 C801 1.389 1_554 S
C800 H773 0.950 . S
C800 C786 1.377 . S
C800 C799 1.373 . S
C801 C785 1.377 . S
C801 C799 1.389 1_556 S
C801 C802 1.524 . S
C802 C801 1.524 . S
C802 C803 1.397 . S
C802 C807 1.363 . S
C803 H774 0.950 . S
C803 C802 1.397 . S
C803 C804 1.334 . S
C804 H775 0.950 . S
C804 C803 1.334 . S
C804 C805 1.287 . S
C805 C804 1.287 . S
C805 C806 1.524 . S
C805 H808 0.999 . S
C806 H776 0.950 . S
C806 C805 1.524 . S
C806 C807 1.415 . S
C807 H777 0.950 . S
C807 C802 1.363 . S
C807 C806 1.415 . S
H808 C805 0.999 . S
H809 C790 0.913 . S
H810 C828 0.951 . S
H811 C830 0.951 . S
H812 C832 0.950 . S
H813 C833 0.950 . S
H814 C835 0.950 . S
H815 C838 0.950 . S
H816 C839 0.950 . S
H817 C841 0.950 . S
H818 C842 0.950 . S
H819 C843 0.951 . S
H820 C845 0.951 . S
H821 C847 0.950 . S
H822 C848 0.950 . S
H823 C850 0.950 . S
H824 C853 0.950 . S
H825 C854 0.950 . S
H826 C856 0.950 . S
H827 C857 0.950 . S
C828 H810 0.951 . S
C828 C829 1.366 . S
C828 C830 1.388 . S
C829 C828 1.366 . S
C829 C833 1.385 1_554 S
C830 H811 0.951 . S
C830 C828 1.388 . S
C830 C831 1.366 . S
C831 C830 1.366 . S
C831 C832 1.414 1_554 S
C831 C834 1.499 . S
C832 H812 0.950 . S
C832 C831 1.414 1_556 S
C832 C833 1.374 . S
C833 H813 0.950 . S
C833 C829 1.385 1_556 S
C833 C832 1.374 . S
C834 C831 1.499 . S
C834 C835 1.373 1_554 S
C834 C836 1.389 . S
C835 H814 0.950 . S
C835 C834 1.373 1_556 S
C835 C851 1.377 . S
C836 C834 1.389 . S
C836 C837 1.524 . S
C836 C850 1.377 . S
C837 C836 1.524 . S
C837 C838 1.397 . S
C837 C842 1.363 . S
C838 H815 0.950 . S
C838 C837 1.397 . S
C838 C839 1.334 . S
C839 H816 0.950 . S
C839 C838 1.334 . S
C839 C840 1.287 . S
C840 C839 1.287 . S
C840 C841 1.524 . S
C840 H859 0.913 . S
C841 H817 0.950 . S
C841 C840 1.524 . S
C841 C842 1.415 . S
C842 H818 0.950 . S
C842 C837 1.363 . S
C842 C841 1.415 . S
C843 H819 0.951 . S
C843 C844 1.366 1_556 S
C843 C845 1.388 . S
C844 C843 1.366 1_554 S
C844 C848 1.385 . S
C845 H820 0.951 . S
C845 C843 1.388 . S
C845 C846 1.366 1_556 S
C846 C845 1.366 1_554 S
C846 C847 1.414 . S
C846 C849 1.499 . S
C847 H821 0.950 . S
C847 C846 1.414 . S
C847 C848 1.374 . S
C848 H822 0.950 . S
C848 C844 1.385 . S
C848 C847 1.374 . S
C849 C846 1.499 . S
C849 C850 1.373 . S
C849 C851 1.389 1_554 S
C850 H823 0.950 . S
C850 C836 1.377 . S
C850 C849 1.373 . S
C851 C835 1.377 . S
C851 C849 1.389 1_556 S
C851 C852 1.524 . S
C852 C851 1.524 . S
C852 C853 1.397 . S
C852 C857 1.363 . S
C853 H824 0.950 . S
C853 C852 1.397 . S
C853 C854 1.334 . S
C854 H825 0.950 . S
C854 C853 1.334 . S
C854 C855 1.287 . S
C855 C854 1.287 . S
C855 C856 1.524 . S
C855 H858 0.999 . S
C856 H826 0.950 . S
C856 C855 1.524 . S
C856 C857 1.415 . S
C857 H827 0.950 . S
C857 C852 1.363 . S
C857 C856 1.415 . S
H858 C855 0.999 . S
H859 C840 0.913 . S
H860 C878 0.951 . S
H861 C880 0.951 . S
H862 C882 0.950 . S
H863 C883 0.950 . S
H864 C885 0.950 . S
H865 C888 0.950 . S
H866 C889 0.950 . S
H867 C891 0.950 . S
H868 C892 0.950 . S
H869 C893 0.951 . S
H870 C895 0.951 . S
H871 C897 0.950 . S
H872 C898 0.950 . S
H873 C900 0.950 . S
H874 C903 0.950 . S
H875 C904 0.950 . S
H876 C906 0.950 . S
H877 C907 0.950 . S
C878 H860 0.951 . S
C878 C879 1.366 . S
C878 C880 1.388 . S
C879 C878 1.366 . S
C879 C883 1.385 . S
C880 H861 0.951 . S
C880 C878 1.388 . S
C880 C881 1.366 . S
C881 C880 1.366 . S
C881 C882 1.414 . S
C881 C884 1.499 . S
C882 H862 0.950 . S
C882 C881 1.414 . S
C882 C883 1.374 . S
C883 H863 0.950 . S
C883 C879 1.385 . S
C883 C882 1.374 . S
C884 C881 1.499 . S
C884 C885 1.373 . S
C884 C886 1.389 . S
C885 H864 0.950 . S
C885 C884 1.373 . S
C885 C901 1.377 . S
C886 C884 1.389 . S
C886 C887 1.524 . S
C886 C900 1.377 . S
C887 C886 1.524 . S
C887 C888 1.397 . S
C887 C892 1.363 . S
C888 H865 0.950 . S
C888 C887 1.397 . S
C888 C889 1.334 . S
C889 H866 0.950 . S
C889 C888 1.334 . S
C889 C890 1.287 . S
C890 C889 1.287 . S
C890 C891 1.524 . S
C890 H909 0.913 . S
C891 H867 0.950 . S
C891 C890 1.524 . S
C891 C892 1.415 . S
C892 H868 0.950 . S
C892 C887 1.363 . S
C892 C891 1.415 . S
C893 H869 0.951 . S
C893 C894 1.366 . S
C893 C895 1.388 . S
C894 C893 1.366 . S
C894 C898 1.385 . S
C895 H870 0.951 . S
C895 C893 1.388 . S
C895 C896 1.366 . S
C896 C895 1.366 . S
C896 C897 1.414 . S
C896 C899 1.499 . S
C897 H871 0.950 . S
C897 C896 1.414 . S
C897 C898 1.374 . S
C898 H872 0.950 . S
C898 C894 1.385 . S
C898 C897 1.374 . S
C899 C896 1.499 . S
C899 C900 1.373 . S
C899 C901 1.389 . S
C900 H873 0.950 . S
C900 C886 1.377 . S
C900 C899 1.373 . S
C901 C885 1.377 . S
C901 C899 1.389 . S
C901 C902 1.524 . S
C902 C901 1.524 . S
C902 C903 1.397 . S
C902 C907 1.363 . S
C903 H874 0.950 . S
C903 C902 1.397 . S
C903 C904 1.334 . S
C904 H875 0.950 . S
C904 C903 1.334 . S
C904 C905 1.287 . S
C905 C904 1.287 . S
C905 C906 1.524 . S
C905 H908 0.999 . S
C906 H876 0.950 . S
C906 C905 1.524 . S
C906 C907 1.415 . S
C907 H877 0.950 . S
C907 C902 1.363 . S
C907 C906 1.415 . S
H908 C905 0.999 . S
H909 C890 0.913 . S
H910 C928 0.951 . S
H911 C930 0.951 . S
H912 C932 0.950 . S
H913 C933 0.950 . S
H914 C935 0.950 . S
H915 C938 0.950 . S
H916 C939 0.950 . S
H917 C941 0.950 . S
H918 C942 0.950 . S
H919 C943 0.951 . S
H920 C945 0.951 . S
H921 C947 0.950 . S
H922 C948 0.950 . S
H923 C950 0.950 . S
H924 C953 0.950 . S
H925 C954 0.950 . S
H926 C956 0.950 . S
H927 C957 0.950 . S
C928 H910 0.951 . S
C928 C929 1.366 . S
C928 C930 1.388 . S
C929 C928 1.366 . S
C929 C933 1.385 . S
C930 H911 0.951 . S
C930 C928 1.388 . S
C930 C931 1.366 . S
C931 C930 1.366 . S
C931 C932 1.414 . S
C931 C934 1.499 . S
C932 H912 0.950 . S
C932 C931 1.414 . S
C932 C933 1.374 . S
C933 H913 0.950 . S
C933 C929 1.385 . S
C933 C932 1.374 . S
C934 C931 1.499 . S
C934 C935 1.373 . S
C934 C936 1.389 . S
C935 H914 0.950 . S
C935 C934 1.373 . S
C935 C951 1.377 . S
C936 C934 1.389 . S
C936 C937 1.524 . S
C936 C950 1.377 . S
C937 C936 1.524 . S
C937 C938 1.397 . S
C937 C942 1.363 . S
C938 H915 0.950 . S
C938 C937 1.397 . S
C938 C939 1.334 . S
C939 H916 0.950 . S
C939 C938 1.334 . S
C939 C940 1.287 . S
C940 C939 1.287 . S
C940 C941 1.524 . S
C940 H959 0.913 . S
C941 H917 0.950 . S
C941 C940 1.524 . S
C941 C942 1.415 . S
C942 H918 0.950 . S
C942 C937 1.363 . S
C942 C941 1.415 . S
C943 H919 0.951 . S
C943 C944 1.366 . S
C943 C945 1.388 . S
C944 C943 1.366 . S
C944 C948 1.385 . S
C945 H920 0.951 . S
C945 C943 1.388 . S
C945 C946 1.366 . S
C946 C945 1.366 . S
C946 C947 1.414 . S
C946 C949 1.499 . S
C947 H921 0.950 . S
C947 C946 1.414 . S
C947 C948 1.374 . S
C948 H922 0.950 . S
C948 C944 1.385 . S
C948 C947 1.374 . S
C949 C946 1.499 . S
C949 C950 1.373 . S
C949 C951 1.389 . S
C950 H923 0.950 . S
C950 C936 1.377 . S
C950 C949 1.373 . S
C951 C935 1.377 . S
C951 C949 1.389 . S
C951 C952 1.524 . S
C952 C951 1.524 . S
C952 C953 1.397 . S
C952 C957 1.363 . S
C953 H924 0.950 . S
C953 C952 1.397 . S
C953 C954 1.334 . S
C954 H925 0.950 . S
C954 C953 1.334 . S
C954 C955 1.287 . S
C955 C954 1.287 . S
C955 C956 1.524 . S
C955 H958 0.999 . S
C956 H926 0.950 . S
C956 C955 1.524 . S
C956 C957 1.415 . S
C957 H927 0.950 . S
C957 C952 1.363 . S
C957 C956 1.415 . S
H958 C955 0.999 . S
H959 C940 0.913 . S
H960 C978 0.951 . S
H961 C980 0.951 . S
H962 C982 0.950 . S
H963 C983 0.950 . S
H964 C985 0.950 . S
H965 C988 0.950 1_655 S
H966 C989 0.950 1_655 S
H967 C991 0.950 . S
H968 C992 0.950 . S
H969 C993 0.951 . S
H970 C995 0.951 . S
H971 C997 0.950 . S
H972 C998 0.950 . S
H973 C1000 0.950 . S
H974 C1003 0.950 1_455 S
H975 C1004 0.950 1_455 S
H976 C1006 0.950 . S
H977 C1007 0.950 . S
C978 H960 0.951 . S
C978 C979 1.366 . S
C978 C980 1.388 . S
C979 C978 1.366 . S
C979 C983 1.385 1_455 S
C980 H961 0.951 . S
C980 C978 1.388 . S
C980 C981 1.366 . S
C981 C980 1.366 . S
C981 C982 1.414 1_455 S
C981 C984 1.499 . S
C982 H962 0.950 . S
C982 C981 1.414 1_655 S
C982 C983 1.374 . S
C983 H963 0.950 . S
C983 C979 1.385 1_655 S
C983 C982 1.374 . S
C984 C981 1.499 . S
C984 C985 1.373 1_455 S
C984 C986 1.389 . S
C985 H964 0.950 . S
C985 C984 1.373 1_655 S
C985 C1001 1.377 . S
C986 C984 1.389 . S
C986 C987 1.524 . S
C986 C1000 1.377 . S
C987 C986 1.524 . S
C987 C988 1.397 . S
C987 C992 1.363 . S
C988 H965 0.950 1_455 S
C988 C987 1.397 . S
C988 C989 1.334 . S
C989 H966 0.950 1_455 S
C989 C988 1.334 . S
C989 C990 1.287 . S
C990 C989 1.287 . S
C990 C991 1.524 . S
C990 H1009 0.913 . S
C991 H967 0.950 . S
C991 C990 1.524 . S
C991 C992 1.415 . S
C992 H968 0.950 . S
C992 C987 1.363 . S
C992 C991 1.415 . S
C993 H969 0.951 . S
C993 C994 1.366 . S
C993 C995 1.388 . S
C994 C993 1.366 . S
C994 C998 1.385 1_655 S
C995 H970 0.951 . S
C995 C993 1.388 . S
C995 C996 1.366 . S
C996 C995 1.366 . S
C996 C997 1.414 1_655 S
C996 C999 1.499 . S
C997 H971 0.950 . S
C997 C996 1.414 1_455 S
C997 C998 1.374 . S
C998 H972 0.950 . S
C998 C994 1.385 1_455 S
C998 C997 1.374 . S
C999 C996 1.499 . S
C999 C1000 1.373 1_655 S
C999 C1001 1.389 . S
C1000 H973 0.950 . S
C1000 C986 1.377 . S
C1000 C999 1.373 1_455 S
C1001 C985 1.377 . S
C1001 C999 1.389 . S
C1001 C1002 1.524 . S
C1002 C1001 1.524 . S
C1002 C1003 1.397 . S
C1002 C1007 1.363 . S
C1003 H974 0.950 1_655 S
C1003 C1002 1.397 . S
C1003 C1004 1.334 . S
C1004 H975 0.950 1_655 S
C1004 C1003 1.334 . S
C1004 C1005 1.287 . S
C1005 C1004 1.287 . S
C1005 C1006 1.524 . S
C1005 H1008 0.999 . S
C1006 H976 0.950 . S
C1006 C1005 1.524 . S
C1006 C1007 1.415 . S
C1007 H977 0.950 . S
C1007 C1002 1.363 . S
C1007 C1006 1.415 . S
H1008 C1005 0.999 . S
H1009 C990 0.913 . S
H1010 C1028 0.951 . S
H1011 C1030 0.951 . S
H1012 C1032 0.950 . S
H1013 C1033 0.950 . S
H1014 C1035 0.950 . S
H1015 C1038 0.950 . S
H1016 C1039 0.950 . S
H1017 C1041 0.950 . S
H1018 C1042 0.950 . S
H1019 C1043 0.951 . S
H1020 C1045 0.951 . S
H1021 C1047 0.950 . S
H1022 C1048 0.950 . S
H1023 C1050 0.950 . S
H1024 C1053 0.950 . S
H1025 C1054 0.950 . S
H1026 C1056 0.950 . S
H1027 C1057 0.950 . S
C1028 H1010 0.951 . S
C1028 C1029 1.366 . S
C1028 C1030 1.388 . S
C1029 C1028 1.366 . S
C1029 C1033 1.385 . S
C1030 H1011 0.951 . S
C1030 C1028 1.388 . S
C1030 C1031 1.366 . S
C1031 C1030 1.366 . S
C1031 C1032 1.414 . S
C1031 C1034 1.499 . S
C1032 H1012 0.950 . S
C1032 C1031 1.414 . S
C1032 C1033 1.374 . S
C1033 H1013 0.950 . S
C1033 C1029 1.385 . S
C1033 C1032 1.374 . S
C1034 C1031 1.499 . S
C1034 C1035 1.373 . S
C1034 C1036 1.389 1_655 S
C1035 H1014 0.950 . S
C1035 C1034 1.373 . S
C1035 C1051 1.377 . S
C1036 C1034 1.389 1_455 S
C1036 C1037 1.524 . S
C1036 C1050 1.377 . S
C1037 C1036 1.524 . S
C1037 C1038 1.397 . S
C1037 C1042 1.363 . S
C1038 H1015 0.950 . S
C1038 C1037 1.397 . S
C1038 C1039 1.334 . S
C1039 H1016 0.950 . S
C1039 C1038 1.334 . S
C1039 C1040 1.287 . S
C1040 C1039 1.287 . S
C1040 C1041 1.524 . S
C1040 H1059 0.913 . S
C1041 H1017 0.950 . S
C1041 C1040 1.524 . S
C1041 C1042 1.415 . S
C1042 H1018 0.950 . S
C1042 C1037 1.363 . S
C1042 C1041 1.415 . S
C1043 H1019 0.951 . S
C1043 C1044 1.366 . S
C1043 C1045 1.388 . S
C1044 C1043 1.366 . S
C1044 C1048 1.385 . S
C1045 H1020 0.951 . S
C1045 C1043 1.388 . S
C1045 C1046 1.366 . S
C1046 C1045 1.366 . S
C1046 C1047 1.414 . S
C1046 C1049 1.499 . S
C1047 H1021 0.950 . S
C1047 C1046 1.414 . S
C1047 C1048 1.374 . S
C1048 H1022 0.950 . S
C1048 C1044 1.385 . S
C1048 C1047 1.374 . S
C1049 C1046 1.499 . S
C1049 C1050 1.373 . S
C1049 C1051 1.389 1_455 S
C1050 H1023 0.950 . S
C1050 C1036 1.377 . S
C1050 C1049 1.373 . S
C1051 C1035 1.377 . S
C1051 C1049 1.389 1_655 S
C1051 C1052 1.524 . S
C1052 C1051 1.524 . S
C1052 C1053 1.397 . S
C1052 C1057 1.363 . S
C1053 H1024 0.950 . S
C1053 C1052 1.397 . S
C1053 C1054 1.334 . S
C1054 H1025 0.950 . S
C1054 C1053 1.334 . S
C1054 C1055 1.287 . S
C1055 C1054 1.287 . S
C1055 C1056 1.524 . S
C1055 H1058 0.999 . S
C1056 H1026 0.950 . S
C1056 C1055 1.524 . S
C1056 C1057 1.415 . S
C1057 H1027 0.950 . S
C1057 C1052 1.363 . S
C1057 C1056 1.415 . S
H1058 C1055 0.999 . S
H1059 C1040 0.913 . S
H1060 C1078 0.951 . S
H1061 C1080 0.951 . S
H1062 C1082 0.950 . S
H1063 C1083 0.950 . S
H1064 C1085 0.950 . S
H1065 C1088 0.950 1_655 S
H1066 C1089 0.950 . S
H1067 C1091 0.950 . S
H1068 C1092 0.950 . S
H1069 C1093 0.951 . S
H1070 C1095 0.951 . S
H1071 C1097 0.950 . S
H1072 C1098 0.950 . S
H1073 C1100 0.950 . S
H1074 C1103 0.950 1_455 S
H1075 C1104 0.950 . S
H1076 C1106 0.950 . S
H1077 C1107 0.950 . S
C1078 H1060 0.951 . S
C1078 C1079 1.366 1_455 S
C1078 C1080 1.388 . S
C1079 C1078 1.366 1_655 S
C1079 C1083 1.385 . S
C1080 H1061 0.951 . S
C1080 C1078 1.388 . S
C1080 C1081 1.366 1_455 S
C1081 C1080 1.366 1_655 S
C1081 C1082 1.414 . S
C1081 C1084 1.499 . S
C1082 H1062 0.950 . S
C1082 C1081 1.414 . S
C1082 C1083 1.374 . S
C1083 H1063 0.950 . S
C1083 C1079 1.385 . S
C1083 C1082 1.374 . S
C1084 C1081 1.499 . S
C1084 C1085 1.373 . S
C1084 C1086 1.389 1_655 S
C1085 H1064 0.950 . S
C1085 C1084 1.373 . S
C1085 C1101 1.377 . S
C1086 C1084 1.389 1_455 S
C1086 C1087 1.524 . S
C1086 C1100 1.377 . S
C1087 C1086 1.524 . S
C1087 C1088 1.397 . S
C1087 C1092 1.363 . S
C1088 H1065 0.950 1_455 S
C1088 C1087 1.397 . S
C1088 C1089 1.334 . S
C1089 H1066 0.950 . S
C1089 C1088 1.334 . S
C1089 C1090 1.287 . S
C1090 C1089 1.287 . S
C1090 C1091 1.524 . S
C1090 H1109 0.913 . S
C1091 H1067 0.950 . S
C1091 C1090 1.524 . S
C1091 C1092 1.415 . S
C1092 H1068 0.950 . S
C1092 C1087 1.363 . S
C1092 C1091 1.415 . S
C1093 H1069 0.951 . S
C1093 C1094 1.366 1_655 S
C1093 C1095 1.388 . S
C1094 C1093 1.366 1_455 S
C1094 C1098 1.385 . S
C1095 H1070 0.951 . S
C1095 C1093 1.388 . S
C1095 C1096 1.366 1_655 S
C1096 C1095 1.366 1_455 S
C1096 C1097 1.414 . S
C1096 C1099 1.499 . S
C1097 H1071 0.950 . S
C1097 C1096 1.414 . S
C1097 C1098 1.374 . S
C1098 H1072 0.950 . S
C1098 C1094 1.385 . S
C1098 C1097 1.374 . S
C1099 C1096 1.499 . S
C1099 C1100 1.373 . S
C1099 C1101 1.389 1_455 S
C1100 H1073 0.950 . S
C1100 C1086 1.377 . S
C1100 C1099 1.373 . S
C1101 C1085 1.377 . S
C1101 C1099 1.389 1_655 S
C1101 C1102 1.524 . S
C1102 C1101 1.524 . S
C1102 C1103 1.397 . S
C1102 C1107 1.363 . S
C1103 H1074 0.950 1_655 S
C1103 C1102 1.397 . S
C1103 C1104 1.334 . S
C1104 H1075 0.950 . S
C1104 C1103 1.334 . S
C1104 C1105 1.287 . S
C1105 C1104 1.287 . S
C1105 C1106 1.524 . S
C1105 H1108 0.999 . S
C1106 H1076 0.950 . S
C1106 C1105 1.524 . S
C1106 C1107 1.415 . S
C1107 H1077 0.950 . S
C1107 C1102 1.363 . S
C1107 C1106 1.415 . S
H1108 C1105 0.999 . S
H1109 C1090 0.913 . S
H1110 C1128 0.951 . S
H1111 C1130 0.951 . S
H1112 C1132 0.950 . S
H1113 C1133 0.950 . S
H1114 C1135 0.950 . S
H1115 C1138 0.950 . S
H1116 C1139 0.950 1_655 S
H1117 C1141 0.950 . S
H1118 C1142 0.950 . S
H1119 C1143 0.951 . S
H1120 C1145 0.951 . S
H1121 C1147 0.950 . S
H1122 C1148 0.950 . S
H1123 C1150 0.950 . S
H1124 C1153 0.950 . S
H1125 C1154 0.950 1_455 S
H1126 C1156 0.950 . S
H1127 C1157 0.950 . S
C1128 H1110 0.951 . S
C1128 C1129 1.366 1_455 S
C1128 C1130 1.388 . S
C1129 C1128 1.366 1_655 S
C1129 C1133 1.385 . S
C1130 H1111 0.951 . S
C1130 C1128 1.388 . S
C1130 C1131 1.366 1_455 S
C1131 C1130 1.366 1_655 S
C1131 C1132 1.414 . S
C1131 C1134 1.499 . S
C1132 H1112 0.950 . S
C1132 C1131 1.414 . S
C1132 C1133 1.374 . S
C1133 H1113 0.950 . S
C1133 C1129 1.385 . S
C1133 C1132 1.374 . S
C1134 C1131 1.499 . S
C1134 C1135 1.373 . S
C1134 C1136 1.389 1_655 S
C1135 H1114 0.950 . S
C1135 C1134 1.373 . S
C1135 C1151 1.377 . S
C1136 C1134 1.389 1_455 S
C1136 C1137 1.524 . S
C1136 C1150 1.377 . S
C1137 C1136 1.524 . S
C1137 C1138 1.397 1_455 S
C1137 C1142 1.363 . S
C1138 H1115 0.950 . S
C1138 C1137 1.397 1_655 S
C1138 C1139 1.334 1_655 S
C1139 H1116 0.950 1_455 S
C1139 C1138 1.334 1_455 S
C1139 C1140 1.287 . S
C1140 C1139 1.287 . S
C1140 C1141 1.524 . S
C1140 H1159 0.913 . S
C1141 H1117 0.950 . S
C1141 C1140 1.524 . S
C1141 C1142 1.415 . S
C1142 H1118 0.950 . S
C1142 C1137 1.363 . S
C1142 C1141 1.415 . S
C1143 H1119 0.951 . S
C1143 C1144 1.366 1_655 S
C1143 C1145 1.388 . S
C1144 C1143 1.366 1_455 S
C1144 C1148 1.385 . S
C1145 H1120 0.951 . S
C1145 C1143 1.388 . S
C1145 C1146 1.366 1_655 S
C1146 C1145 1.366 1_455 S
C1146 C1147 1.414 . S
C1146 C1149 1.499 . S
C1147 H1121 0.950 . S
C1147 C1146 1.414 . S
C1147 C1148 1.374 . S
C1148 H1122 0.950 . S
C1148 C1144 1.385 . S
C1148 C1147 1.374 . S
C1149 C1146 1.499 . S
C1149 C1150 1.373 . S
C1149 C1151 1.389 1_455 S
C1150 H1123 0.950 . S
C1150 C1136 1.377 . S
C1150 C1149 1.373 . S
C1151 C1135 1.377 . S
C1151 C1149 1.389 1_655 S
C1151 C1152 1.524 . S
C1152 C1151 1.524 . S
C1152 C1153 1.397 1_655 S
C1152 C1157 1.363 . S
C1153 H1124 0.950 . S
C1153 C1152 1.397 1_455 S
C1153 C1154 1.334 1_455 S
C1154 H1125 0.950 1_655 S
C1154 C1153 1.334 1_655 S
C1154 C1155 1.287 . S
C1155 C1154 1.287 . S
C1155 C1156 1.524 . S
C1155 H1158 0.999 . S
C1156 H1126 0.950 . S
C1156 C1155 1.524 . S
C1156 C1157 1.415 . S
C1157 H1127 0.950 . S
C1157 C1152 1.363 . S
C1157 C1156 1.415 . S
H1158 C1155 0.999 . S
H1159 C1140 0.913 . S
H1160 C1178 0.951 . S
H1161 C1180 0.951 . S
H1162 C1182 0.950 . S
H1163 C1183 0.950 . S
H1164 C1185 0.950 . S
H1165 C1188 0.950 . S
H1166 C1189 0.950 . S
H1167 C1191 0.950 . S
H1168 C1192 0.950 . S
H1169 C1193 0.951 . S
H1170 C1195 0.951 . S
H1171 C1197 0.950 . S
H1172 C1198 0.950 . S
H1173 C1200 0.950 . S
H1174 C1203 0.950 . S
H1175 C1204 0.950 . S
H1176 C1206 0.950 . S
H1177 C1207 0.950 . S
C1178 H1160 0.951 . S
C1178 C1179 1.366 . S
C1178 C1180 1.388 . S
C1179 C1178 1.366 . S
C1179 C1183 1.385 . S
C1180 H1161 0.951 . S
C1180 C1178 1.388 . S
C1180 C1181 1.366 . S
C1181 C1180 1.366 . S
C1181 C1182 1.414 . S
C1181 C1184 1.499 . S
C1182 H1162 0.950 . S
C1182 C1181 1.414 . S
C1182 C1183 1.374 . S
C1183 H1163 0.950 . S
C1183 C1179 1.385 . S
C1183 C1182 1.374 . S
C1184 C1181 1.499 . S
C1184 C1185 1.373 . S
C1184 C1186 1.389 . S
C1185 H1164 0.950 . S
C1185 C1184 1.373 . S
C1185 C1201 1.377 . S
C1186 C1184 1.389 . S
C1186 C1187 1.524 . S
C1186 C1200 1.377 . S
C1187 C1186 1.524 . S
C1187 C1188 1.397 . S
C1187 C1192 1.363 . S
C1188 H1165 0.950 . S
C1188 C1187 1.397 . S
C1188 C1189 1.334 . S
C1189 H1166 0.950 . S
C1189 C1188 1.334 . S
C1189 C1190 1.287 . S
C1190 C1189 1.287 . S
C1190 C1191 1.524 . S
C1190 H1209 0.913 . S
C1191 H1167 0.950 . S
C1191 C1190 1.524 . S
C1191 C1192 1.415 . S
C1192 H1168 0.950 . S
C1192 C1187 1.363 . S
C1192 C1191 1.415 . S
C1193 H1169 0.951 . S
C1193 C1194 1.366 . S
C1193 C1195 1.388 . S
C1194 C1193 1.366 . S
C1194 C1198 1.385 . S
C1195 H1170 0.951 . S
C1195 C1193 1.388 . S
C1195 C1196 1.366 . S
C1196 C1195 1.366 . S
C1196 C1197 1.414 . S
C1196 C1199 1.499 . S
C1197 H1171 0.950 . S
C1197 C1196 1.414 . S
C1197 C1198 1.374 . S
C1198 H1172 0.950 . S
C1198 C1194 1.385 . S
C1198 C1197 1.374 . S
C1199 C1196 1.499 . S
C1199 C1200 1.373 . S
C1199 C1201 1.389 . S
C1200 H1173 0.950 . S
C1200 C1186 1.377 . S
C1200 C1199 1.373 . S
C1201 C1185 1.377 . S
C1201 C1199 1.389 . S
C1201 C1202 1.524 . S
C1202 C1201 1.524 . S
C1202 C1203 1.397 . S
C1202 C1207 1.363 . S
C1203 H1174 0.950 . S
C1203 C1202 1.397 . S
C1203 C1204 1.334 . S
C1204 H1175 0.950 . S
C1204 C1203 1.334 . S
C1204 C1205 1.287 . S
C1205 C1204 1.287 . S
C1205 C1206 1.524 . S
C1205 H1208 0.999 . S
C1206 H1176 0.950 . S
C1206 C1205 1.524 . S
C1206 C1207 1.415 . S
C1207 H1177 0.950 . S
C1207 C1202 1.363 . S
C1207 C1206 1.415 . S
H1208 C1205 0.999 . S
H1209 C1190 0.913 . S
H1210 C1228 0.951 . S
H1211 C1230 0.951 . S
H1212 C1232 0.950 . S
H1213 C1233 0.950 . S
H1214 C1235 0.950 . S
H1215 C1238 0.950 . S
H1216 C1239 0.950 . S
H1217 C1241 0.950 . S
H1218 C1242 0.950 . S
H1219 C1243 0.951 . S
H1220 C1245 0.951 . S
H1221 C1247 0.950 . S
H1222 C1248 0.950 . S
H1223 C1250 0.950 . S
H1224 C1253 0.950 . S
H1225 C1254 0.950 . S
H1226 C1256 0.950 . S
H1227 C1257 0.950 . S
C1228 H1210 0.951 . S
C1228 C1229 1.366 . S
C1228 C1230 1.388 . S
C1229 C1228 1.366 . S
C1229 C1233 1.385 . S
C1230 H1211 0.951 . S
C1230 C1228 1.388 . S
C1230 C1231 1.366 . S
C1231 C1230 1.366 . S
C1231 C1232 1.414 . S
C1231 C1234 1.499 . S
C1232 H1212 0.950 . S
C1232 C1231 1.414 . S
C1232 C1233 1.374 . S
C1233 H1213 0.950 . S
C1233 C1229 1.385 . S
C1233 C1232 1.374 . S
C1234 C1231 1.499 . S
C1234 C1235 1.373 . S
C1234 C1236 1.389 . S
C1235 H1214 0.950 . S
C1235 C1234 1.373 . S
C1235 C1251 1.377 . S
C1236 C1234 1.389 . S
C1236 C1237 1.524 . S
C1236 C1250 1.377 . S
C1237 C1236 1.524 . S
C1237 C1238 1.397 . S
C1237 C1242 1.363 . S
C1238 H1215 0.950 . S
C1238 C1237 1.397 . S
C1238 C1239 1.334 . S
C1239 H1216 0.950 . S
C1239 C1238 1.334 . S
C1239 C1240 1.287 . S
C1240 C1239 1.287 . S
C1240 C1241 1.524 . S
C1240 H1259 0.913 . S
C1241 H1217 0.950 . S
C1241 C1240 1.524 . S
C1241 C1242 1.415 . S
C1242 H1218 0.950 . S
C1242 C1237 1.363 . S
C1242 C1241 1.415 . S
C1243 H1219 0.951 . S
C1243 C1244 1.366 . S
C1243 C1245 1.388 . S
C1244 C1243 1.366 . S
C1244 C1248 1.385 . S
C1245 H1220 0.951 . S
C1245 C1243 1.388 . S
C1245 C1246 1.366 . S
C1246 C1245 1.366 . S
C1246 C1247 1.414 . S
C1246 C1249 1.499 . S
C1247 H1221 0.950 . S
C1247 C1246 1.414 . S
C1247 C1248 1.374 . S
C1248 H1222 0.950 . S
C1248 C1244 1.385 . S
C1248 C1247 1.374 . S
C1249 C1246 1.499 . S
C1249 C1250 1.373 . S
C1249 C1251 1.389 . S
C1250 H1223 0.950 . S
C1250 C1236 1.377 . S
C1250 C1249 1.373 . S
C1251 C1235 1.377 . S
C1251 C1249 1.389 . S
C1251 C1252 1.524 . S
C1252 C1251 1.524 . S
C1252 C1253 1.397 . S
C1252 C1257 1.363 . S
C1253 H1224 0.950 . S
C1253 C1252 1.397 . S
C1253 C1254 1.334 . S
C1254 H1225 0.950 . S
C1254 C1253 1.334 . S
C1254 C1255 1.287 . S
C1255 C1254 1.287 . S
C1255 C1256 1.524 . S
C1255 H1258 0.999 . S
C1256 H1226 0.950 . S
C1256 C1255 1.524 . S
C1256 C1257 1.415 . S
C1257 H1227 0.950 . S
C1257 C1252 1.363 . S
C1257 C1256 1.415 . S
H1258 C1255 0.999 . S
H1259 C1240 0.913 . S
H1260 C1278 0.951 . S
H1261 C1280 0.951 . S
H1262 C1282 0.950 . S
H1263 C1283 0.950 . S
H1264 C1285 0.950 . S
H1265 C1288 0.950 . S
H1266 C1289 0.950 . S
H1267 C1291 0.950 . S
H1268 C1292 0.950 . S
H1269 C1293 0.951 . S
H1270 C1295 0.951 . S
H1271 C1297 0.950 . S
H1272 C1298 0.950 . S
H1273 C1300 0.950 . S
H1274 C1303 0.950 . S
H1275 C1304 0.950 . S
H1276 C1306 0.950 . S
H1277 C1307 0.950 . S
C1278 H1260 0.951 . S
C1278 C1279 1.366 . S
C1278 C1280 1.388 . S
C1279 C1278 1.366 . S
C1279 C1283 1.385 . S
C1280 H1261 0.951 . S
C1280 C1278 1.388 . S
C1280 C1281 1.366 . S
C1281 C1280 1.366 . S
C1281 C1282 1.414 . S
C1281 C1284 1.499 . S
C1282 H1262 0.950 . S
C1282 C1281 1.414 . S
C1282 C1283 1.374 . S
C1283 H1263 0.950 . S
C1283 C1279 1.385 . S
C1283 C1282 1.374 . S
C1284 C1281 1.499 . S
C1284 C1285 1.373 . S
C1284 C1286 1.389 . S
C1285 H1264 0.950 . S
C1285 C1284 1.373 . S
C1285 C1301 1.377 . S
C1286 C1284 1.389 . S
C1286 C1287 1.524 . S
C1286 C1300 1.377 . S
C1287 C1286 1.524 . S
C1287 C1288 1.397 . S
C1287 C1292 1.363 . S
C1288 H1265 0.950 . S
C1288 C1287 1.397 . S
C1288 C1289 1.334 . S
C1289 H1266 0.950 . S
C1289 C1288 1.334 . S
C1289 C1290 1.287 . S
C1290 C1289 1.287 . S
C1290 C1291 1.524 . S
C1290 H1309 0.913 . S
C1291 H1267 0.950 . S
C1291 C1290 1.524 . S
C1291 C1292 1.415 . S
C1292 H1268 0.950 . S
C1292 C1287 1.363 . S
C1292 C1291 1.415 . S
C1293 H1269 0.951 . S
C1293 C1294 1.366 . S
C1293 C1295 1.388 . S
C1294 C1293 1.366 . S
C1294 C1298 1.385 . S
C1295 H1270 0.951 . S
C1295 C1293 1.388 . S
C1295 C1296 1.366 . S
C1296 C1295 1.366 . S
C1296 C1297 1.414 . S
C1296 C1299 1.499 . S
C1297 H1271 0.950 . S
C1297 C1296 1.414 . S
C1297 C1298 1.374 . S
C1298 H1272 0.950 . S
C1298 C1294 1.385 . S
C1298 C1297 1.374 . S
C1299 C1296 1.499 . S
C1299 C1300 1.373 . S
C1299 C1301 1.389 . S
C1300 H1273 0.950 . S
C1300 C1286 1.377 . S
C1300 C1299 1.373 . S
C1301 C1285 1.377 . S
C1301 C1299 1.389 . S
C1301 C1302 1.524 . S
C1302 C1301 1.524 . S
C1302 C1303 1.397 . S
C1302 C1307 1.363 . S
C1303 H1274 0.950 . S
C1303 C1302 1.397 . S
C1303 C1304 1.334 . S
C1304 H1275 0.950 . S
C1304 C1303 1.334 . S
C1304 C1305 1.287 . S
C1305 C1304 1.287 . S
C1305 C1306 1.524 . S
C1305 H1308 0.999 . S
C1306 H1276 0.950 . S
C1306 C1305 1.524 . S
C1306 C1307 1.415 . S
C1307 H1277 0.950 . S
C1307 C1302 1.363 . S
C1307 C1306 1.415 . S
H1308 C1305 0.999 . S
H1309 C1290 0.913 . S
H1310 C1328 0.951 . S
H1311 C1330 0.951 . S
H1312 C1332 0.950 . S
H1313 C1333 0.950 . S
H1314 C1335 0.950 . S
H1315 C1338 0.950 . S
H1316 C1339 0.950 . S
H1317 C1341 0.950 . S
H1318 C1342 0.950 . S
H1319 C1343 0.951 . S
H1320 C1345 0.951 . S
H1321 C1347 0.950 . S
H1322 C1348 0.950 . S
H1323 C1350 0.950 . S
H1324 C1353 0.950 . S
H1325 C1354 0.950 . S
H1326 C1356 0.950 . S
H1327 C1357 0.950 . S
C1328 H1310 0.951 . S
C1328 C1329 1.366 . S
C1328 C1330 1.388 . S
C1329 C1328 1.366 . S
C1329 C1333 1.385 . S
C1330 H1311 0.951 . S
C1330 C1328 1.388 . S
C1330 C1331 1.366 . S
C1331 C1330 1.366 . S
C1331 C1332 1.414 . S
C1331 C1334 1.499 . S
C1332 H1312 0.950 . S
C1332 C1331 1.414 . S
C1332 C1333 1.374 . S
C1333 H1313 0.950 . S
C1333 C1329 1.385 . S
C1333 C1332 1.374 . S
C1334 C1331 1.499 . S
C1334 C1335 1.373 . S
C1334 C1336 1.389 . S
C1335 H1314 0.950 . S
C1335 C1334 1.373 . S
C1335 C1351 1.377 . S
C1336 C1334 1.389 . S
C1336 C1337 1.524 . S
C1336 C1350 1.377 . S
C1337 C1336 1.524 . S
C1337 C1338 1.397 . S
C1337 C1342 1.363 . S
C1338 H1315 0.950 . S
C1338 C1337 1.397 . S
C1338 C1339 1.334 . S
C1339 H1316 0.950 . S
C1339 C1338 1.334 . S
C1339 C1340 1.287 . S
C1340 C1339 1.287 . S
C1340 C1341 1.524 . S
C1340 H1359 0.913 . S
C1341 H1317 0.950 . S
C1341 C1340 1.524 . S
C1341 C1342 1.415 . S
C1342 H1318 0.950 . S
C1342 C1337 1.363 . S
C1342 C1341 1.415 . S
C1343 H1319 0.951 . S
C1343 C1344 1.366 . S
C1343 C1345 1.388 . S
C1344 C1343 1.366 . S
C1344 C1348 1.385 . S
C1345 H1320 0.951 . S
C1345 C1343 1.388 . S
C1345 C1346 1.366 . S
C1346 C1345 1.366 . S
C1346 C1347 1.414 . S
C1346 C1349 1.499 . S
C1347 H1321 0.950 . S
C1347 C1346 1.414 . S
C1347 C1348 1.374 . S
C1348 H1322 0.950 . S
C1348 C1344 1.385 . S
C1348 C1347 1.374 . S
C1349 C1346 1.499 . S
C1349 C1350 1.373 . S
C1349 C1351 1.389 . S
C1350 H1323 0.950 . S
C1350 C1336 1.377 . S
C1350 C1349 1.373 . S
C1351 C1335 1.377 . S
C1351 C1349 1.389 . S
C1351 C1352 1.524 . S
C1352 C1351 1.524 . S
C1352 C1353 1.397 . S
C1352 C1357 1.363 . S
C1353 H1324 0.950 . S
C1353 C1352 1.397 . S
C1353 C1354 1.334 . S
C1354 H1325 0.950 . S
C1354 C1353 1.334 . S
C1354 C1355 1.287 . S
C1355 C1354 1.287 . S
C1355 C1356 1.524 . S
C1355 H1358 0.999 . S
C1356 H1326 0.950 . S
C1356 C1355 1.524 . S
C1356 C1357 1.415 . S
C1357 H1327 0.950 . S
C1357 C1352 1.363 . S
C1357 C1356 1.415 . S
H1358 C1355 0.999 . S
H1359 C1340 0.913 . S
C179 C19 1.832 1_554 S
C194 C18 1.832 . S
C229 C39 1.832 . S
C244 C38 1.832 . S
C279 C59 1.832 . S
C294 C58 1.832 . S
C329 C79 1.832 . S
C344 C78 1.832 . S
C379 C99 1.831 1_554 S
C394 C98 1.831 . S
C429 C118 1.831 . S
C444 C119 1.831 . S
C479 C139 1.831 . S
C494 C138 1.831 . S
C529 C158 1.831 . S
C544 C159 1.831 . S
C579 C21 1.742 . S
C594 C2 1.743 . S
C629 C62 1.742 . S
C644 C41 1.742 . S
C679 C82 1.742 . S
C694 C101 1.741 . S
C729 C121 1.742 . S
C744 C142 1.742 . S
C779 C1 1.534 . S
C794 C102 1.534 . S
C829 C81 1.534 . S
C844 C22 1.534 . S
C879 C42 1.534 . S
C894 C141 1.534 . S
C929 C61 1.534 . S
C944 C122 1.534 . S
C979 C8 1.486 . S
C994 C68 1.487 . S
C1029 C28 1.584 . S
C1044 C48 1.583 . S
C1079 C29 1.486 . S
C1094 C49 1.487 . S
C1129 C69 1.584 . S
C1144 C9 1.583 . S
C1179 C88 1.486 . S
C1194 C148 1.486 . S
C1229 C108 1.583 . S
C1244 C128 1.583 . S
C1279 C109 1.486 . S
C1294 C129 1.486 . S
C1329 C149 1.584 . S
C1344 C89 1.583 . S
