# Generated by pormake.
# Topology qtz-e, (6)-cn, num edge types: 1
# Building blocks:
#     Node 0, Type 0, BuildingBlock: KUMBUR_clean_sbu_1, # of connection points: 6
#     Node 1, Type 0, BuildingBlock: KUMBUR_clean_sbu_1, # of connection points: 6
#     Node 2, Type 0, BuildingBlock: KUMBUR_clean_sbu_1, # of connection points: 6
#     Node 3, Type 0, BuildingBlock: KUMBUR_clean_sbu_1, # of connection points: 6
#     Node 4, Type 0, BuildingBlock: KUMBUR_clean_sbu_1, # of connection points: 6
#     Node 5, Type 0, BuildingBlock: KUMBUR_clean_sbu_1, # of connection points: 6
#     Edge 6, Type (0, 0), BuildingBlock: UVAHIK_clean_linker_0, # of connection points: 2
#     Edge 7, Type (0, 0), BuildingBlock: UVAHIK_clean_linker_0, # of connection points: 2
#     Edge 8, Type (0, 0), BuildingBlock: UVAHIK_clean_linker_0, # of connection points: 2
#     Edge 9, Type (0, 0), BuildingBlock: UVAHIK_clean_linker_0, # of connection points: 2
#     Edge 10, Type (0, 0), BuildingBlock: UVAHIK_clean_linker_0, # of connection points: 2
#     Edge 11, Type (0, 0), BuildingBlock: UVAHIK_clean_linker_0, # of connection points: 2
#     Edge 12, Type (0, 0), BuildingBlock: UVAHIK_clean_linker_0, # of connection points: 2
#     Edge 13, Type (0, 0), BuildingBlock: UVAHIK_clean_linker_0, # of connection points: 2
#     Edge 14, Type (0, 0), BuildingBlock: UVAHIK_clean_linker_0, # of connection points: 2
#     Edge 15, Type (0, 0), BuildingBlock: UVAHIK_clean_linker_0, # of connection points: 2
#     Edge 16, Type (0, 0), BuildingBlock: UVAHIK_clean_linker_0, # of connection points: 2
#     Edge 17, Type (0, 0), BuildingBlock: UVAHIK_clean_linker_0, # of connection points: 2
#     Edge 18, Type (0, 0), BuildingBlock: UVAHIK_clean_linker_0, # of connection points: 2
#     Edge 19, Type (0, 0), BuildingBlock: UVAHIK_clean_linker_0, # of connection points: 2
#     Edge 20, Type (0, 0), BuildingBlock: UVAHIK_clean_linker_0, # of connection points: 2
#     Edge 21, Type (0, 0), BuildingBlock: UVAHIK_clean_linker_0, # of connection points: 2
#     Edge 22, Type (0, 0), BuildingBlock: UVAHIK_clean_linker_0, # of connection points: 2
#     Edge 23, Type (0, 0), BuildingBlock: UVAHIK_clean_linker_0, # of connection points: 2
# Relax obj value: 0.151
# Max RMSD: 0.209
# Mean RMSD: 0.209
data_MOF--net-qtz-e--node1-KUMBUR_clean_sbu_1--edge1-UVAHIK_clean_linker_0
_symmetry_space_group_name_H-M    P1
_symmetry_Int_Tables_number       1
_symmetry_cell_setting            triclinic
loop_
_symmetry_equiv_pos_as_xyz
'x, y, z'
_cell_length_a     35.705857
_cell_length_b     35.740118
_cell_length_c     58.5943
_cell_angle_alpha  89.975349
_cell_angle_beta   90.037874
_cell_angle_gamma 120.10996
loop_
_atom_site_label
_atom_site_type_symbol
_atom_site_fract_x
_atom_site_fract_y
_atom_site_fract_z
_atom_type_partial_charge
Tb0 Tb 0.17894 0.35673 0.98924 0.0
C1 C 0.32653 0.55373 0.02193 0.0
N2 N 0.31571 0.51559 0.03222 0.0
C3 C 0.39069 0.53946 0.03863 0.0
C4 C 0.37018 0.58592 0.01892 0.0
C5 C 0.34686 0.50857 0.04118 0.0
C6 C 0.40245 0.5782 0.02728 0.0
C7 C 0.30325 0.59827 0.00236 0.0
C8 C 0.29346 0.55965 0.01373 0.0
C9 C 0.34671 0.63064 -0.00064 0.0
C10 C 0.3801 0.62445 0.0076 0.0
Tb11 Tb 0.24369 0.46665 0.03496 0.0
N12 N 0.25182 0.52691 0.01635 0.0
C13 C 0.26908 0.60306 0.99421 0.0
C14 C 0.21841 0.53206 0.00891 0.0
C15 C 0.22651 0.56991 0.99763 0.0
H16 H 0.33781 0.47954 0.05073 0.0
H17 H 0.19982 0.57356 0.99166 0.0
H18 H 0.08265 0.3443 0.9768 0.0
H19 H 0.22776 0.24456 0.02037 0.0
H20 H 0.18533 0.50772 0.01175 0.0
H21 H 0.27519 0.63224 0.98538 0.0
H22 H 0.2401 0.31439 0.00659 0.0
H23 H 0.41534 0.53351 0.04557 0.0
H24 H 0.35485 0.66049 0.99062 0.0
H25 H 0.41346 0.6496 0.00508 0.0
H26 H 0.0064 0.28592 0.97851 0.0
H27 H 0.43642 0.60205 0.02527 0.0
H28 H 0.15339 0.18213 0.023 0.0
N29 N 0.10744 0.30509 0.98924 0.0
C30 C 0.09812 0.2649 0.99594 0.0
C31 C 0.03189 0.27963 0.98356 0.0
C32 C 0.055 0.23053 0.99711 0.0
C33 C 0.07516 0.3128 0.98283 0.0
C34 C 0.02172 0.23836 0.99082 0.0
N35 N 0.17299 0.29336 0.00216 0.0
C36 C 0.20726 0.28826 0.00796 0.0
C37 C 0.12357 0.21789 0.01026 0.0
C38 C 0.132 0.25874 0.00249 0.0
C39 C 0.15848 0.21298 0.01693 0.0
C40 C 0.20048 0.24823 0.01559 0.0
H41 H 0.98815 0.21281 0.9915 0.0
H42 H 0.01353 0.16299 0.00592 0.0
H43 H 0.07357 0.15189 0.01738 0.0
O44 O 0.21409 0.34922 0.96264 0.0
O45 O 0.15337 0.33452 0.02388 0.0
O46 O 0.20224 0.39968 0.02918 0.0
O47 O 0.1536 0.34675 0.95606 0.0
O48 O 0.2477 0.38236 -0.00101 0.0
O49 O 0.26052 0.41496 0.03522 0.0
O50 O 0.21893 0.48932 0.06067 0.0
O51 O 0.27196 0.47686 0.00099 0.0
O52 O 0.20823 0.42693 0.9865 0.0
O53 O 0.2679 0.47134 0.06825 0.0
O54 O 0.1744 0.44204 0.02801 0.0
O55 O 0.15114 0.39992 0.99402 0.0
C56 C 0.17193 0.36485 0.0388 0.0
C57 C 0.17155 0.30428 0.93237 0.0
C58 C 0.19262 0.26325 0.90757 0.0
C59 C 0.14893 0.23625 0.90157 0.0
C60 C 0.12804 0.27701 0.92611 0.0
C61 C 0.11693 0.24323 0.91077 0.0
C62 C 0.20374 0.29739 0.92288 0.0
C63 C 0.27212 0.39998 0.01741 0.0
C64 C 0.18429 0.34155 0.94757 0.0
C65 C 0.04647 0.18977 0.00481 0.0
C66 C 0.08067 0.18345 0.01135 0.0
C67 C 0.24946 0.45434 0.9834 0.0
C68 C 0.24382 0.49781 0.09999 0.0
C69 C 0.21872 0.52653 0.13014 0.0
C70 C 0.2446 0.51997 0.14586 0.0
C71 C 0.2697 0.49164 0.11589 0.0
C72 C 0.21856 0.51567 0.10717 0.0
C73 C 0.27007 0.50278 0.13871 0.0
C74 C 0.14554 0.4206 0.01158 0.0
C75 C 0.24379 0.48628 0.07595 0.0
H76 H 0.13962 0.2104 0.8893 0.0
H77 H 0.10261 0.28198 0.93283 0.0
H78 H 0.08347 0.22266 0.90578 0.0
H79 H 0.23745 0.31873 0.92731 0.0
H80 H 0.24573 0.52901 0.1636 0.0
H81 H 0.28977 0.47836 0.11069 0.0
H82 H 0.19886 0.52115 0.09504 0.0
H83 H 0.29031 0.4983 0.15087 0.0
Tb84 Tb 0.81822 0.18161 0.32332 0.0
C85 C 0.76608 0.32266 0.3505 0.0
N86 N 0.79396 0.31371 0.36175 0.0
C87 C 0.84189 0.38934 0.36845 0.0
C88 C 0.77547 0.36564 0.34747 0.0
C89 C 0.83147 0.34624 0.37077 0.0
C90 C 0.81391 0.39914 0.35666 0.0
C91 C 0.6991 0.29655 0.32942 0.0
C92 C 0.72849 0.28845 0.34151 0.0
C93 C 0.70825 0.33933 0.32639 0.0
C94 C 0.74632 0.37378 0.3354 0.0
Tb95 Tb 0.77205 0.24223 0.36605 0.0
N96 N 0.72097 0.24739 0.34452 0.0
C97 C 0.66114 0.2614 0.32095 0.0
C98 C 0.68269 0.21306 0.33739 0.0
C99 C 0.65273 0.21949 0.32517 0.0
H100 H 0.85239 0.33876 0.38057 0.0
H101 H 0.62271 0.192 0.31939 0.0
H102 H 0.73515 0.08661 0.30902 0.0
H103 H 0.97373 0.22777 0.36198 0.0
H104 H 0.67381 0.18058 0.34164 0.0
H105 H 0.6377 0.26623 0.31161 0.0
H106 H 0.92058 0.24138 0.34339 0.0
H107 H 0.8711 0.41493 0.37604 0.0
H108 H 0.68601 0.34611 0.31717 0.0
H109 H 0.75292 0.40659 0.33294 0.0
H110 H 0.71439 0.00974 0.31286 0.0
H111 H 0.82214 0.4326 0.35488 0.0
H112 H 0.95777 0.15282 0.36832 0.0
N113 N 0.79639 0.10999 0.325 0.0
C114 C 0.82467 0.09988 0.33478 0.0
C115 C 0.74548 0.03479 0.31913 0.0
C116 C 0.81431 0.0565 0.3372 0.0
C117 C 0.7572 0.07833 0.31713 0.0
C118 C 0.77413 0.0238 0.32923 0.0
N119 N 0.87205 0.17466 0.34065 0.0
C120 C 0.91165 0.20841 0.34675 0.0
C121 C 0.89403 0.12405 0.35306 0.0
C122 C 0.86381 0.13327 0.34281 0.0
C123 C 0.93364 0.15851 0.36041 0.0
C124 C 0.94264 0.20085 0.35698 0.0
H125 H 0.76492 0.99004 0.3308 0.0
H126 H 0.83676 0.01403 0.34966 0.0
H127 H 0.9067 0.07319 0.36339 0.0
O128 O 0.86344 0.21827 0.29784 0.0
O129 O 0.80329 0.15584 0.3584 0.0
O130 O 0.81145 0.21508 0.3778 0.0
O131 O 0.81111 0.15415 0.29072 0.0
O132 O 0.86188 0.24974 0.33217 0.0
O133 O 0.84093 0.2615 0.36784 0.0
O134 O 0.72003 0.2154 0.39005 0.0
O135 O 0.79462 0.27107 0.33225 0.0
O136 O 0.77591 0.2073 0.31617 0.0
O137 O 0.7814 0.27392 0.39719 0.0
O138 O 0.72956 0.17225 0.35982 0.0
O139 O 0.74837 0.1582 0.32422 0.0
C140 C 0.80105 0.17443 0.3773 0.0
C141 C 0.87662 0.17856 0.27003 0.0
C142 C 0.93657 0.20329 0.24298 0.0
C143 C 0.93452 0.16314 0.245 0.0
C144 C 0.87511 0.13861 0.27176 0.0
C145 C 0.90382 0.13099 0.25919 0.0
C146 C 0.9072 0.21069 0.25541 0.0
C147 C 0.86863 0.27325 0.35068 0.0
C148 C 0.84626 0.18718 0.28291 0.0
C149 C 0.84414 0.04718 0.34762 0.0
C150 C 0.88393 0.08087 0.35549 0.0
C151 C 0.79082 0.24856 0.31405 0.0
C152 C 0.72738 0.25298 0.42642 0.0
C153 C 0.67746 0.22596 0.45844 0.0
C154 C 0.69878 0.26747 0.46818 0.0
C155 C 0.74826 0.29432 0.43644 0.0
C156 C 0.69157 0.21866 0.43743 0.0
C157 C 0.73393 0.30144 0.45719 0.0
C158 C 0.7229 0.14607 0.34239 0.0
C159 C 0.74259 0.24699 0.40417 0.0
H160 H 0.95619 0.15636 0.23523 0.0
H161 H 0.8517 0.11322 0.28271 0.0
H162 H 0.90219 0.09999 0.2604 0.0
H163 H 0.90828 0.24146 0.2538 0.0
H164 H 0.68792 0.27359 0.48429 0.0
H165 H 0.77544 0.32136 0.4281 0.0
H166 H 0.67499 0.18669 0.42984 0.0
H167 H 0.74997 0.3334 0.46473 0.0
Tb168 Tb 0.63722 0.82073 0.65587 0.0
C169 C 0.44516 0.76911 0.69366 0.0
N170 N 0.48353 0.79714 0.70364 0.0
C171 C 0.45688 0.84508 0.71252 0.0
C172 C 0.41137 0.77857 0.69216 0.0
C173 C 0.48968 0.83456 0.71322 0.0
C174 C 0.41767 0.81717 0.70176 0.0
C175 C 0.40144 0.70185 0.67331 0.0
C176 C 0.44038 0.73137 0.68433 0.0
C177 C 0.36772 0.71119 0.67164 0.0
C178 C 0.37267 0.74946 0.68104 0.0
Tb179 Tb 0.5356 0.77801 0.70313 0.0
N180 N 0.47444 0.72429 0.68554 0.0
C181 C 0.39759 0.66388 0.66429 0.0
C182 C 0.46977 0.68614 0.67775 0.0
C183 C 0.4317 0.65577 0.6668 0.0
H184 H 0.51955 0.85581 0.7219 0.0
H185 H 0.42863 0.62592 0.66044 0.0
H186 H 0.65113 0.73897 0.64235 0.0
H187 H 0.74477 0.9775 0.69413 0.0
H188 H 0.49446 0.67799 0.68017 0.0
H189 H 0.36823 0.64035 0.65571 0.0
H190 H 0.67804 0.92308 0.67611 0.0
H191 H 0.46178 0.87456 0.72039 0.0
H192 H 0.33769 0.68902 0.66311 0.0
H193 H 0.34641 0.75626 0.6796 0.0
H194 H 0.70886 0.72038 0.64569 0.0
H195 H 0.39246 0.82559 0.70106 0.0
H196 H 0.80572 0.96415 0.6995 0.0
N197 N 0.68899 0.80143 0.65691 0.0
C198 C 0.72774 0.83093 0.66596 0.0
C199 C 0.71459 0.75158 0.65147 0.0
C200 C 0.76154 0.82166 0.66832 0.0
C201 C 0.6819 0.76211 0.64969 0.0
C202 C 0.75459 0.78146 0.66085 0.0
N203 N 0.69835 0.87642 0.67227 0.0
C204 C 0.70304 0.91529 0.6788 0.0
C205 C 0.77198 0.90063 0.68401 0.0
C206 C 0.73261 0.86968 0.6739 0.0
C207 C 0.77601 0.93952 0.69165 0.0
C208 C 0.74157 0.94704 0.68879 0.0
H209 H 0.77973 0.77307 0.6624 0.0
H210 H 0.82704 0.84578 0.6805 0.0
H211 H 0.83631 0.91507 0.69408 0.0
O212 O 0.64765 0.86442 0.62932 0.0
O213 O 0.65207 0.80545 0.68984 0.0
O214 O 0.60496 0.82074 0.70596 0.0
O215 O 0.64992 0.80637 0.623 0.0
O216 O 0.6121 0.86495 0.66354 0.0
O217 O 0.5821 0.84795 0.70008 0.0
O218 O 0.52083 0.73087 0.72861 0.0
O219 O 0.52035 0.79206 0.66891 0.0
O220 O 0.568 0.77835 0.65146 0.0
O221 O 0.5279 0.79265 0.73682 0.0
O222 O 0.56109 0.73451 0.69539 0.0
O223 O 0.59113 0.75081 0.65889 0.0
C224 C 0.63288 0.80795 0.70819 0.0
C225 C 0.69358 0.86724 0.59962 0.0
C226 C 0.73416 0.92866 0.5742 0.0
C227 C 0.76262 0.91323 0.56941 0.0
C228 C 0.72232 0.85229 0.59458 0.0
C229 C 0.75661 0.87526 0.57952 0.0
C230 C 0.69951 0.9053 0.58923 0.0
C231 C 0.59425 0.87253 0.68147 0.0
C232 C 0.65573 0.84241 0.61444 0.0
C233 C 0.80071 0.85234 0.67846 0.0
C234 C 0.80594 0.89175 0.68624 0.0
C235 C 0.54027 0.79172 0.65028 0.0
C236 C 0.47867 0.73298 0.75936 0.0
C237 C 0.43218 0.67364 0.78493 0.0
C238 C 0.40841 0.69435 0.7896 0.0
C239 C 0.45437 0.75308 0.76438 0.0
C240 C 0.46767 0.69331 0.76994 0.0
C241 C 0.41958 0.73383 0.77945 0.0
C242 C 0.57842 0.72626 0.67747 0.0
C243 C 0.51705 0.75438 0.7444 0.0
H244 H 0.78895 0.92999 0.5574 0.0
H245 H 0.71811 0.82268 0.60204 0.0
H246 H 0.77835 0.86335 0.57546 0.0
H247 H 0.67704 0.91663 0.59275 0.0
H248 H 0.38174 0.68043 0.80161 0.0
H249 H 0.46248 0.78396 0.75694 0.0
H250 H 0.48673 0.67797 0.76664 0.0
H251 H 0.40144 0.7498 0.78348 0.0
Tb252 Tb 0.81494 0.63908 0.99008 0.0
C253 C 0.67292 0.43905 0.02018 0.0
N254 N 0.68196 0.47624 0.031 0.0
C255 C 0.60646 0.44843 0.03794 0.0
C256 C 0.6299 0.40549 0.01706 0.0
C257 C 0.64971 0.48109 0.0403 0.0
C258 C 0.59645 0.41062 0.02607 0.0
C259 C 0.6992 0.39779 -0.0001 0.0
C260 C 0.70717 0.43542 0.01174 0.0
C261 C 0.65634 0.36426 0.99653 0.0
C262 C 0.62177 0.36808 0.00512 0.0
Tb263 Tb 0.75309 0.5271 0.03451 0.0
N264 N 0.74818 0.46889 0.01511 0.0
C265 C 0.73454 0.39488 0.99192 0.0
C266 C 0.78272 0.46513 0.00826 0.0
C267 C 0.77645 0.42852 0.99632 0.0
H268 H 0.65739 0.50979 0.04989 0.0
H269 H 0.80406 0.42608 0.99075 0.0
H270 H 0.91009 0.64734 0.97766 0.0
H271 H 0.77197 0.75608 0.01938 0.0
H272 H 0.81529 0.48935 0.01227 0.0
H273 H 0.72985 0.36654 0.98273 0.0
H274 H 0.75721 0.68466 0.00641 0.0
H275 H 0.58093 0.4522 0.04543 0.0
H276 H 0.64961 0.33517 0.98741 0.0
H277 H 0.5889 0.34192 0.00247 0.0
H278 H 0.98697 0.70348 0.97968 0.0
H279 H 0.56291 0.38548 0.02417 0.0
H280 H 0.84739 0.81669 0.02212 0.0
N281 N 0.88736 0.68799 0.9907 0.0
C282 C 0.89823 0.72878 0.99716 0.0
C283 C 0.96232 0.71091 0.98483 0.0
C284 C 0.94184 0.76209 -0.00178 0.0
C285 C 0.91859 0.6789 0.98406 0.0
C286 C 0.97404 0.75261 0.99207 0.0
N287 N 0.82382 0.70351 0.00268 0.0
C288 C 0.79037 0.71024 0.0079 0.0
C289 C 0.87525 0.7785 0.01038 0.0
C290 C 0.86539 0.73695 0.00313 0.0
C291 C 0.84118 0.78522 0.01646 0.0
C292 C 0.79857 0.75101 0.01505 0.0
H293 H 0.00795 0.7773 0.99267 0.0
H294 H 0.98523 0.82958 0.00644 0.0
H295 H 0.92693 0.84392 0.0171 0.0
O296 O 0.77752 0.64636 0.9646 0.0
O297 O 0.83605 0.66133 0.02534 0.0
O298 O 0.79592 0.59365 0.02897 0.0
O299 O 0.83956 0.65316 0.95676 0.0
O300 O 0.74752 0.61429 0.00187 0.0
O301 O 0.73268 0.57587 0.03679 0.0
O302 O 0.77248 0.49843 0.05974 0.0
O303 O 0.72105 0.51895 0.0016 0.0
O304 O 0.78424 0.5688 0.98679 0.0
O305 O 0.73282 0.52731 0.06828 0.0
O306 O 0.82296 0.55456 0.02684 0.0
O307 O 0.84041 0.59347 0.99205 0.0
C308 C 0.82078 0.62966 0.03959 0.0
C309 C 0.8188 0.69657 0.9359 0.0
C310 C 0.79535 0.73496 0.9105 0.0
C311 C 0.83869 0.76825 0.9083 0.0
C312 C 0.86191 0.73015 0.9335 0.0
C313 C 0.87166 0.76578 0.91976 0.0
C314 C 0.78571 0.69927 0.92445 0.0
C315 C 0.72341 0.59552 0.02027 0.0
C316 C 0.80768 0.65753 0.94929 0.0
C317 C 0.95188 0.8036 0.00543 0.0
C318 C 0.91868 0.81179 0.01149 0.0
C319 C 0.74272 0.54228 0.98402 0.0
C320 C 0.75168 0.4949 0.09951 0.0
C321 C 0.77584 0.46489 0.12946 0.0
C322 C 0.75312 0.4749 0.14558 0.0
C323 C 0.72887 0.50452 0.11579 0.0
C324 C 0.77482 0.47457 0.10641 0.0
C325 C 0.72957 0.49442 0.13872 0.0
C326 C 0.84971 0.57548 0.00951 0.0
C327 C 0.7521 0.50686 0.07551 0.0
H328 H 0.84731 0.79554 0.89713 0.0
H329 H 0.88815 0.72876 0.94198 0.0
H330 H 0.90497 0.79124 0.91768 0.0
H331 H 0.75249 0.6732 0.92615 0.0
H332 H 0.75303 0.46689 0.16343 0.0
H333 H 0.71061 0.51993 0.11083 0.0
H334 H 0.79229 0.46661 0.09403 0.0
H335 H 0.7118 0.50169 0.1512 0.0
Tb336 Tb 0.17481 0.81547 0.32469 0.0
C337 C 0.21657 0.66686 0.34873 0.0
N338 N 0.19138 0.67807 0.36097 0.0
C339 C 0.1404 0.60331 0.36808 0.0
C340 C 0.20425 0.62312 0.34541 0.0
C341 C 0.15422 0.64719 0.37105 0.0
C342 C 0.16537 0.59119 0.35508 0.0
C343 C 0.28186 0.68929 0.3266 0.0
C344 C 0.25467 0.69955 0.33926 0.0
C345 C 0.26989 0.64573 0.32337 0.0
C346 C 0.23111 0.61274 0.33266 0.0
Tb347 Tb 0.21757 0.75041 0.36489 0.0
N348 N 0.26456 0.74137 0.34218 0.0
C349 C 0.32037 0.72312 0.31771 0.0
C350 C 0.30292 0.77443 0.3343 0.0
C351 C 0.33109 0.76586 0.32175 0.0
H352 H 0.13616 0.65656 0.38206 0.0
H353 H 0.36135 0.79227 0.31545 0.0
H354 H 0.25887 0.91148 0.3124 0.0
H355 H 0.02171 0.7675 0.36632 0.0
H356 H 0.31275 0.80741 0.33806 0.0
H357 H 0.34233 0.71663 0.30801 0.0
H358 H 0.07414 0.755 0.34592 0.0
H359 H 0.11084 0.5789 0.37608 0.0
H360 H 0.2904 0.63721 0.3137 0.0
H361 H 0.22228 0.57931 0.32998 0.0
H362 H 0.28062 0.98806 0.31855 0.0
H363 H 0.15467 0.55718 0.35288 0.0
H364 H 0.03836 0.84207 0.37472 0.0
N365 N 0.19835 0.88716 0.32925 0.0
C366 C 0.17063 0.89679 0.34008 0.0
C367 C 0.24966 0.9627 0.32478 0.0
C368 C 0.18143 0.94005 0.3437 0.0
C369 C 0.23747 0.91928 0.32154 0.0
C370 C 0.22153 0.97316 0.3359 0.0
N371 N 0.12279 0.82168 0.34439 0.0
C372 C 0.08329 0.78765 0.35029 0.0
C373 C 0.10175 0.87166 0.35904 0.0
C374 C 0.13151 0.86298 0.34782 0.0
C375 C 0.06218 0.8368 0.36611 0.0
C376 C 0.05278 0.79466 0.36152 0.0
H377 H 0.23103 0.00683 0.33833 0.0
H378 H 0.15963 0.98186 0.35789 0.0
H379 H 0.08975 0.92198 0.37118 0.0
O380 O 0.12531 0.78476 0.29967 0.0
O381 O 0.19087 0.83693 0.36028 0.0
O382 O 0.17812 0.77541 0.37978 0.0
O383 O 0.18216 0.84811 0.29379 0.0
O384 O 0.13203 0.74599 0.3305 0.0
O385 O 0.14928 0.73222 0.3665 0.0
O386 O 0.27264 0.77674 0.38594 0.0
O387 O 0.19884 0.72813 0.32964 0.0
O388 O 0.21698 0.79209 0.31262 0.0
O389 O 0.21415 0.71901 0.39583 0.0
O390 O 0.26002 0.82044 0.36044 0.0
O391 O 0.2444 0.83812 0.32497 0.0
C392 C 0.18664 0.81569 0.37933 0.0
C393 C 0.13048 0.81943 0.26262 0.0
C394 C 0.07444 0.79342 0.23316 0.0
C395 C 0.10329 0.82712 0.21882 0.0
C396 C 0.15865 0.85267 0.24782 0.0
C397 C 0.14511 0.85632 0.22607 0.0
C398 C 0.08827 0.78923 0.25508 0.0
C399 C 0.12331 0.72136 0.34869 0.0
C400 C 0.14595 0.81713 0.2857 0.0
C401 C 0.15199 0.94882 0.35499 0.0
C402 C 0.11222 0.91471 0.3626 0.0
C403 C 0.20471 0.7511 0.31119 0.0
C404 C 0.26049 0.76352 0.42528 0.0
C405 C 0.30852 0.79105 0.45825 0.0
C406 C 0.27582 0.79344 0.4704 0.0
C407 C 0.22808 0.76574 0.4377 0.0
C408 C 0.30055 0.77603 0.43564 0.0
C409 C 0.23584 0.78069 0.46018 0.0
C410 C 0.26945 0.84735 0.34316 0.0
C411 C 0.2534 0.74756 0.4017 0.0
H412 H 0.09345 0.83064 0.20182 0.0
H413 H 0.19134 0.87598 0.25303 0.0
H414 H 0.1671 0.882 0.2148 0.0
H415 H 0.06616 0.76332 0.26623 0.0
H416 H 0.28073 0.80393 0.48804 0.0
H417 H 0.19677 0.75558 0.43011 0.0
H418 H 0.32544 0.77385 0.42613 0.0
H419 H 0.21059 0.78184 0.4698 0.0
Tb420 Tb 0.35034 0.17653 0.65886 0.0
C421 C 0.54358 0.22205 0.69127 0.0
N422 N 0.50524 0.19565 0.70168 0.0
C423 C 0.52757 0.14364 0.70881 0.0
C424 C 0.57516 0.20974 0.68864 0.0
C425 C 0.4973 0.1574 0.71099 0.0
C426 C 0.56649 0.1697 0.69736 0.0
C427 C 0.59029 0.28999 0.67216 0.0
C428 C 0.55087 0.26142 0.68304 0.0
C429 C 0.62178 0.2778 0.66927 0.0
C430 C 0.61419 0.2377 0.67744 0.0
Tb431 Tb 0.45641 0.21904 0.70238 0.0
N432 N 0.51891 0.27129 0.68543 0.0
C433 C 0.59682 0.32991 0.66455 0.0
C434 C 0.52615 0.31115 0.67906 0.0
C435 C 0.56482 0.34073 0.66829 0.0
H436 H 0.46777 0.13776 0.72034 0.0
H437 H 0.57004 0.37204 0.66305 0.0
H438 H 0.33776 0.26035 0.64771 0.0
H439 H 0.25243 0.02787 0.70608 0.0
H440 H 0.50298 0.32111 0.68257 0.0
H441 H 0.62667 0.35284 0.65614 0.0
H442 H 0.31702 0.08089 0.68564 0.0
H443 H 0.52091 0.113 0.716 0.0
H444 H 0.65214 0.29918 0.66081 0.0
H445 H 0.63878 0.22874 0.67513 0.0
H446 H 0.27992 0.27867 0.65217 0.0
H447 H 0.5898 0.1589 0.6956 0.0
H448 H 0.19058 0.03992 0.71119 0.0
N449 N 0.30125 0.1986 0.66332 0.0
C450 C 0.2635 0.16953 0.67348 0.0
C451 C 0.27494 0.2479 0.65825 0.0
C452 C 0.22963 0.17854 0.6763 0.0
C453 C 0.30771 0.2376 0.6559 0.0
C454 C 0.23563 0.21816 0.66837 0.0
N455 N 0.29432 0.12517 0.68018 0.0
C456 C 0.2915 0.08796 0.68824 0.0
C457 C 0.22175 0.10143 0.69355 0.0
C458 C 0.25987 0.1316 0.68218 0.0
C459 C 0.21934 0.06393 0.70237 0.0
C460 C 0.2543 0.05715 0.69964 0.0
H461 H 0.21036 0.22629 0.6702 0.0
H462 H 0.16481 0.15437 0.6895 0.0
H463 H 0.15779 0.0868 0.70446 0.0
O464 O 0.32471 0.1251 0.63536 0.0
O465 O 0.34283 0.19637 0.69327 0.0
O466 O 0.38807 0.17728 0.70828 0.0
O467 O 0.32687 0.1859 0.62752 0.0
O468 O 0.37797 0.13398 0.66272 0.0
O469 O 0.40724 0.15028 0.6989 0.0
O470 O 0.4726 0.26657 0.7279 0.0
O471 O 0.4677 0.20676 0.66702 0.0
O472 O 0.4173 0.21567 0.64669 0.0
O473 O 0.46585 0.20465 0.73572 0.0
O474 O 0.43306 0.26389 0.69389 0.0
O475 O 0.39932 0.24559 0.6581 0.0
C476 C 0.36268 0.19295 0.71105 0.0
C477 C 0.29516 0.12929 0.59873 0.0
C478 C 0.26984 0.07252 0.57012 0.0
C479 C 0.25182 0.09321 0.55767 0.0
C480 C 0.2774 0.14993 0.58597 0.0
C481 C 0.25584 0.13188 0.56552 0.0
C482 C 0.29176 0.09071 0.59057 0.0
C483 C 0.39827 0.12785 0.67979 0.0
C484 C 0.31548 0.14695 0.62091 0.0
C485 C 0.19135 0.14818 0.68729 0.0
C486 C 0.1874 0.10973 0.69585 0.0
C487 C 0.44892 0.20687 0.64766 0.0
C488 C 0.51312 0.26314 0.75945 0.0
C489 C 0.5555 0.31953 0.78726 0.0
C490 C 0.57779 0.29784 0.79305 0.0
C491 C 0.53598 0.24198 0.76551 0.0
C492 C 0.52289 0.30199 0.77056 0.0
C493 C 0.56799 0.25926 0.78227 0.0
C494 C 0.41697 0.27239 0.67555 0.0
C495 C 0.47607 0.24258 0.74356 0.0
H496 H 0.23521 0.07971 0.54168 0.0
H497 H 0.27964 0.17966 0.59196 0.0
H498 H 0.24211 0.14782 0.55577 0.0
H499 H 0.30571 0.07465 0.6001 0.0
H500 H 0.60247 0.31055 0.80621 0.0
H501 H 0.52865 0.21161 0.75768 0.0
H502 H 0.50491 0.31817 0.76647 0.0
H503 H 0.58495 0.24246 0.78708 0.0
C504 C 0.17848 0.68581 0.28657 0.0
C505 C 0.19953 0.73101 0.28866 0.0
C506 C 0.17182 0.66671 0.26509 0.0
C507 C 0.21501 0.68657 0.20751 0.0
H508 H 0.10426 0.58619 0.19239 0.0
C509 C 0.2066 0.58923 0.13081 0.0
C510 C 0.19432 0.54718 0.13801 0.0
C511 C 0.19448 0.61442 0.14362 0.0
C512 C 0.1352 0.61448 0.19626 0.0
H513 H 0.23126 0.79175 0.27009 0.0
H514 H 0.2203 0.75822 0.23256 0.0
H515 H 0.11225 0.62547 0.22792 0.0
H516 H 0.15495 0.49598 0.1617 0.0
H517 H 0.13376 0.53957 0.18409 0.0
H518 H 0.23894 0.67437 0.17677 0.0
C519 C 0.20848 0.73768 0.24751 0.0
C520 C 0.13983 0.6367 0.21661 0.0
C521 C 0.21466 0.75679 0.26896 0.0
C522 C 0.16511 0.52862 0.15612 0.0
C523 C 0.1528 0.55361 0.16882 0.0
C524 C 0.21048 0.66426 0.18726 0.0
C525 C 0.18654 0.69249 0.24537 0.0
C526 C 0.18013 0.67214 0.2227 0.0
C527 C 0.17004 0.59768 0.16369 0.0
C528 C 0.17092 0.6271 0.18176 0.0
H529 H 0.1666 0.66514 0.30148 0.0
H530 H 0.15556 0.63177 0.2639 0.0
H531 H 0.24651 0.7136 0.2119 0.0
H532 H 0.22895 0.60396 0.11672 0.0
H533 H 0.20742 0.64805 0.139 0.0
C534 C 0.44068 0.18629 0.60635 0.0
C535 C 0.46647 0.2005 0.62614 0.0
C536 C 0.45659 0.17811 0.58627 0.0
C537 C 0.55935 0.20928 0.55783 0.0
H538 H 0.49461 0.10605 0.52086 0.0
C539 C 0.64797 0.17661 0.49134 0.0
C540 C 0.64021 0.19166 0.47079 0.0
C541 C 0.61674 0.16116 0.50851 0.0
C542 C 0.51279 0.13486 0.53113 0.0
H543 H 0.52888 0.21685 0.64041 0.0
H544 H 0.55692 0.20373 0.60546 0.0
H545 H 0.46097 0.11679 0.55516 0.0
H546 H 0.59236 0.19694 0.45058 0.0
H547 H 0.53743 0.16972 0.48075 0.0
H548 H 0.61107 0.22736 0.53415 0.0
C549 C 0.52442 0.19883 0.6054 0.0
C550 C 0.49363 0.1412 0.55056 0.0
C551 C 0.50835 0.20635 0.62547 0.0
C552 C 0.59872 0.1851 0.4663 0.0
C553 C 0.56735 0.16957 0.48353 0.0
C554 C 0.57837 0.20284 0.53869 0.0
C555 C 0.4988 0.18469 0.58558 0.0
C556 C 0.51711 0.17827 0.56424 0.0
C557 C 0.5776 0.16079 0.50526 0.0
C558 C 0.5556 0.16541 0.5254 0.0
H559 H 0.408 0.18085 0.60646 0.0
H560 H 0.4362 0.16736 0.57123 0.0
H561 H 0.57781 0.23865 0.56766 0.0
H562 H 0.67993 0.18176 0.49514 0.0
H563 H 0.62524 0.15463 0.52521 0.0
C564 C 0.24538 0.45221 0.94051 0.0
C565 C 0.27002 0.46367 0.96066 0.0
C566 C 0.26585 0.46541 0.91922 0.0
C567 C 0.3689 0.55109 0.89491 0.0
H568 H 0.3273 0.48542 0.83879 0.0
C569 C 0.45077 0.63219 0.81255 0.0
C570 C 0.42094 0.63331 0.79738 0.0
C571 C 0.43639 0.60071 0.8297 0.0
C572 C 0.33947 0.50394 0.85438 0.0
H573 H 0.33529 0.49681 0.97433 0.0
H574 H 0.37076 0.5183 0.93752 0.0
H575 H 0.29232 0.45215 0.87512 0.0
H576 H 0.35434 0.59936 0.78593 0.0
H577 H 0.32916 0.54449 0.81576 0.0
H578 H 0.41506 0.60314 0.87443 0.0
C579 C 0.33572 0.50004 0.93797 0.0
C580 C 0.31924 0.48505 0.87514 0.0
C581 C 0.31535 0.48739 0.95911 0.0
C582 C 0.37777 0.59936 0.79769 0.0
C583 C 0.36343 0.56781 0.81473 0.0
C584 C 0.38916 0.56972 0.87432 0.0
C585 C 0.31133 0.49021 0.91776 0.0
C586 C 0.33351 0.50863 0.89564 0.0
C587 C 0.39203 0.56997 0.83184 0.0
C588 C 0.37445 0.5467 0.85375 0.0
H589 H 0.21035 0.43462 0.94123 0.0
H590 H 0.24603 0.45772 0.90404 0.0
H591 H 0.38012 0.57073 0.91018 0.0
H592 H 0.4843 0.65791 0.81256 0.0
H593 H 0.45936 0.60254 0.84237 0.0
C594 C 0.77412 0.24268 0.27278 0.0
C595 C 0.79837 0.26805 0.29132 0.0
C596 C 0.7801 0.26084 0.25114 0.0
C597 C 0.85509 0.35163 0.21494 0.0
H598 H 0.74969 0.3312 0.18488 0.0
C599 C 0.83203 0.46187 0.15294 0.0
C600 C 0.7983 0.44212 0.13703 0.0
C601 C 0.8438 0.43674 0.16598 0.0
C602 C 0.77939 0.3362 0.19268 0.0
H603 H 0.84848 0.33174 0.30204 0.0
H604 H 0.85963 0.36368 0.26378 0.0
H605 H 0.74518 0.29604 0.22099 0.0
H606 H 0.75425 0.38233 0.11986 0.0
H607 H 0.77426 0.338 0.14301 0.0
H608 H 0.88923 0.39401 0.18694 0.0
C609 C 0.83596 0.32977 0.26607 0.0
C610 C 0.77679 0.3163 0.21345 0.0
C611 C 0.82937 0.31171 0.2879 0.0
C612 C 0.78027 0.398 0.13217 0.0
C613 C 0.7917 0.37276 0.14538 0.0
C614 C 0.85772 0.37187 0.19406 0.0
C615 C 0.81094 0.30454 0.24758 0.0
C616 C 0.81455 0.32416 0.22492 0.0
C617 C 0.82126 0.39158 0.16347 0.0
C618 C 0.81981 0.36464 0.18292 0.0
H619 H 0.74977 0.20897 0.27509 0.0
H620 H 0.76039 0.24072 0.23718 0.0
H621 H 0.88464 0.35788 0.22343 0.0
H622 H 0.84646 0.49604 0.15671 0.0
H623 H 0.86678 0.45205 0.17976 0.0
C624 C 0.54174 0.83352 0.6161 0.0
C625 C 0.52323 0.79425 0.62797 0.0
C626 C 0.52609 0.83594 0.59461 0.0
C627 C 0.42875 0.77539 0.55817 0.0
H628 H 0.50132 0.85574 0.5112 0.0
C629 C 0.36322 0.77041 0.46972 0.0
C630 C 0.34928 0.80086 0.46992 0.0
C631 C 0.39554 0.7747 0.48475 0.0
C632 C 0.48099 0.83304 0.52419 0.0
H633 H 0.47571 0.72617 0.62668 0.0
H634 H 0.44906 0.72949 0.58879 0.0
H635 H 0.53414 0.85042 0.54705 0.0
H636 H 0.36161 0.86218 0.48381 0.0
H637 H 0.41841 0.86966 0.51011 0.0
H638 H 0.37593 0.75763 0.53519 0.0
C639 C 0.47452 0.75908 0.59625 0.0
C640 C 0.49952 0.83018 0.54477 0.0
C641 C 0.48978 0.75696 0.61789 0.0
C642 C 0.37139 0.83797 0.48361 0.0
C643 C 0.40414 0.84253 0.49841 0.0
C644 C 0.41058 0.77771 0.53759 0.0
C645 C 0.49201 0.79875 0.58443 0.0
C646 C 0.47347 0.80137 0.56209 0.0
C647 C 0.41481 0.80983 0.49986 0.0
C648 C 0.43639 0.80657 0.52054 0.0
H649 H 0.56831 0.86232 0.62341 0.0
H650 H 0.54022 0.8671 0.58623 0.0
H651 H 0.40733 0.75381 0.57121 0.0
H652 H 0.34674 0.74149 0.45934 0.0
H653 H 0.40312 0.74894 0.48583 0.0
C654 C 0.74752 0.54832 0.94146 0.0
C655 C 0.72213 0.53374 0.96128 0.0
C656 C 0.72826 0.53662 0.91992 0.0
C657 C 0.62242 0.48638 0.88908 0.0
H658 H 0.68128 0.44821 0.84782 0.0
C659 C 0.54062 0.3581 0.81818 0.0
C660 C 0.56627 0.35955 0.7997 0.0
C661 C 0.55764 0.39084 0.8347 0.0
C662 C 0.66475 0.45968 0.85879 0.0
H663 H 0.65652 0.49623 0.97413 0.0
H664 H 0.62295 0.47482 0.93654 0.0
H665 H 0.71556 0.48264 0.88338 0.0
H666 H 0.62731 0.39795 0.78233 0.0
H667 H 0.65664 0.45588 0.81067 0.0
H668 H 0.57058 0.46126 0.86464 0.0
C669 C 0.65766 0.49613 0.93757 0.0
C670 C 0.68449 0.47945 0.87932 0.0
C671 C 0.67694 0.50809 0.95913 0.0
C672 C 0.6071 0.39629 0.79653 0.0
C673 C 0.62394 0.42914 0.81287 0.0
C674 C 0.6025 0.46637 0.86846 0.0
C675 C 0.68318 0.50958 0.91769 0.0
C676 C 0.66339 0.49248 0.89492 0.0
C677 C 0.60054 0.42535 0.83289 0.0
C678 C 0.62323 0.45221 0.85322 0.0
H679 H 0.78244 0.56751 0.94256 0.0
H680 H 0.74888 0.54798 0.90499 0.0
H681 H 0.60548 0.4965 0.90061 0.0
H682 H 0.50908 0.32984 0.82095 0.0
H683 H 0.53866 0.38693 0.84985 0.0
C684 C 0.34013 0.42162 0.99649 0.0
C685 C 0.31661 0.40822 0.01691 0.0
C686 C 0.38514 0.44214 0.99695 0.0
C687 C 0.47961 0.46924 0.034 0.0
H688 H 0.53354 0.57415 0.99759 0.0
C689 C 0.6595 0.58592 0.04222 0.0
C690 C 0.68069 0.59199 0.02123 0.0
C691 C 0.61518 0.57089 0.04277 0.0
C692 C 0.5188 0.54505 0.00789 0.0
H693 H 0.32007 0.3989 0.05317 0.0
H694 H 0.39874 0.43487 0.05416 0.0
H695 H 0.45543 0.52535 0.99525 0.0
H696 H 0.67382 0.59253 0.98446 0.0
H697 H 0.59651 0.56637 0.98542 0.0
H698 H 0.54264 0.48953 0.0471 0.0
C699 C 0.38292 0.43048 0.03781 0.0
C700 C 0.47427 0.51681 0.00634 0.0
C701 C 0.3379 0.40992 0.0373 0.0
C702 C 0.65817 0.58787 0.00089 0.0
C703 C 0.61387 0.57292 0.00143 0.0
C704 C 0.52391 0.4978 0.03581 0.0
C705 C 0.40702 0.44892 0.01783 0.0
C706 C 0.45435 0.47828 0.01914 0.0
C707 C 0.59166 0.56209 0.02233 0.0
C708 C 0.54402 0.53559 0.02253 0.0
H709 H 0.32412 0.4194 0.98043 0.0
H710 H 0.40285 0.45463 0.98115 0.0
H711 H 0.46529 0.43977 0.04399 0.0
H712 H 0.6765 0.58976 0.05815 0.0
H713 H 0.59883 0.56357 0.05911 0.0
C714 C 0.0657 0.6565 0.36819 0.0
C715 C 0.08638 0.67736 0.34792 0.0
C716 C 0.04104 0.61156 0.36887 0.0
C717 C 0.03919 0.52118 0.3381 0.0
H718 H 0.94558 0.45155 0.37976 0.0
C719 C 0.92729 0.33852 0.33187 0.0
C720 C 0.90842 0.31547 0.352 0.0
C721 C 0.95747 0.38251 0.33288 0.0
C722 C 0.97199 0.47066 0.3682 0.0
H723 H 0.09203 0.66936 0.31166 0.0
H724 H 0.04717 0.59087 0.31252 0.0
H725 H 0.97046 0.52815 0.37611 0.0
H726 H 0.91105 0.31787 0.38896 0.0
H727 H 0.96376 0.39518 0.39074 0.0
H728 H 0.03907 0.46291 0.32948 0.0
C729 C 0.05188 0.60877 0.32819 0.0
C730 C 0.98622 0.51456 0.36608 0.0
C731 C 0.07696 0.65368 0.3276 0.0
C732 C 0.92433 0.33546 0.3732 0.0
C733 C 0.95439 0.37953 0.37422 0.0
C734 C 0.02429 0.47704 0.33989 0.0
C735 C 0.03621 0.58721 0.34911 0.0
C736 C 0.01965 0.54022 0.35082 0.0
C737 C 0.96923 0.40381 0.35404 0.0
C738 C 0.99013 0.45131 0.35472 0.0
H739 H 0.07208 0.67455 0.38396 0.0
H740 H 0.02921 0.59609 0.38525 0.0
H741 H 0.06618 0.54036 0.32683 0.0
H742 H 0.91605 0.32359 0.3153 0.0
H743 H 0.96849 0.40045 0.31705 0.0
C744 C 0.40798 0.07007 0.6972 0.0
C745 C 0.40978 0.09406 0.67793 0.0
C746 C 0.42928 0.04641 0.6972 0.0
C747 C 0.52129 0.04775 0.66782 0.0
H748 H 0.48695 0.94462 0.7038 0.0
C749 C 0.58976 0.932 0.66161 0.0
C750 C 0.5918 0.91246 0.68199 0.0
C751 C 0.57547 0.96188 0.66188 0.0
C752 C 0.49718 0.97378 0.69395 0.0
H753 H 0.42951 0.10781 0.64255 0.0
H754 H 0.46536 0.06494 0.64213 0.0
H755 H 0.43827 0.97333 0.70071 0.0
H756 H 0.58974 0.9155 0.71892 0.0
H757 H 0.56341 0.96662 0.71935 0.0
H758 H 0.57953 0.04662 0.66034 0.0
C759 C 0.44951 0.06607 0.65764 0.0
C760 C 0.46925 0.99019 0.69211 0.0
C761 C 0.42848 0.09005 0.65775 0.0
C762 C 0.5859 0.92816 0.70284 0.0
C763 C 0.57126 0.95767 0.70314 0.0
C764 C 0.54892 0.03079 0.66934 0.0
C765 C 0.45203 0.04586 0.67773 0.0
C766 C 0.48089 0.0273 0.67897 0.0
C767 C 0.56355 0.97275 0.68257 0.0
C768 C 0.53701 0.99366 0.68243 0.0
H769 H 0.39297 0.0723 0.71282 0.0
H770 H 0.43044 0.03124 0.71297 0.0
H771 H 0.53182 0.07711 0.65807 0.0
H772 H 0.59617 0.92211 0.64536 0.0
H773 H 0.57037 0.97363 0.6458 0.0
C774 C 0.56115 0.65643 0.6957 0.0
C775 C 0.57085 0.68176 0.67588 0.0
C776 C 0.54585 0.61219 0.69412 0.0
C777 C 0.53558 0.52469 0.65747 0.0
H778 H 0.42894 0.45569 0.69116 0.0
C779 C 0.43744 0.33791 0.65167 0.0
C780 C 0.42665 0.31732 0.67303 0.0
C781 C 0.45285 0.38235 0.65009 0.0
C782 C 0.45876 0.47452 0.68173 0.0
H783 H 0.57489 0.68108 0.63892 0.0
H784 H 0.54907 0.60375 0.63627 0.0
H785 H 0.46516 0.53437 0.69294 0.0
H786 H 0.4214 0.32628 0.70919 0.0
H787 H 0.44738 0.40316 0.70647 0.0
H788 H 0.52958 0.46465 0.64665 0.0
C789 C 0.55305 0.61825 0.65297 0.0
C790 C 0.47955 0.51947 0.68282 0.0
C791 C 0.56799 0.66255 0.65453 0.0
C792 C 0.42945 0.34129 0.69254 0.0
C793 C 0.44421 0.38535 0.69095 0.0
C794 C 0.51486 0.47957 0.65647 0.0
C795 C 0.5404 0.59252 0.6727 0.0
C796 C 0.51842 0.54493 0.67097 0.0
C797 C 0.45694 0.40655 0.6698 0.0
C798 C 0.47654 0.4541 0.66884 0.0
H799 H 0.56354 0.67041 0.71242 0.0
H800 H 0.53702 0.59307 0.70961 0.0
H801 H 0.56557 0.54373 0.6482 0.0
H802 H 0.4359 0.32016 0.63638 0.0
H803 H 0.46219 0.39791 0.63356 0.0
C804 C 0.09002 0.42868 0.98959 0.0
C805 C 0.10883 0.42833 0.01059 0.0
C806 C 0.06072 0.44365 0.98836 0.0
C807 C 0.03859 0.51992 0.01777 0.0
H808 H 0.93188 0.46809 0.98289 0.0
C809 C 0.90813 0.56734 0.02716 0.0
C810 C 0.887 0.56916 0.00739 0.0
C811 C 0.9386 0.55403 0.02588 0.0
C812 C 0.96203 0.48324 0.99235 0.0
H813 H 0.10923 0.43981 0.04699 0.0
H814 H 0.05816 0.46601 0.04477 0.0
H815 H 0.97468 0.43199 0.98466 0.0
H816 H 0.88187 0.56035 0.9707 0.0
H817 H 0.93534 0.5367 0.96845 0.0
H818 H 0.02583 0.57088 0.02568 0.0
C819 C 0.06666 0.4555 0.02925 0.0
C820 C 0.98627 0.4625 0.99347 0.0
C821 C 0.09571 0.44039 0.03051 0.0
C822 C 0.89816 0.55952 0.98614 0.0
C823 C 0.92829 0.54562 0.98488 0.0
C824 C 0.01442 0.54063 0.01664 0.0
C825 C 0.05008 0.45861 0.00807 0.0
C826 C 0.02443 0.48043 0.00644 0.0
C827 C 0.94799 0.54185 0.00483 0.0
C828 C 0.97572 0.52223 0.00414 0.0
H829 H 0.09982 0.41994 0.97393 0.0
H830 H 0.04834 0.4458 0.97182 0.0
H831 H 0.06846 0.53488 0.02747 0.0
H832 H 0.89991 0.5747 0.04372 0.0
H833 H 0.95314 0.55114 0.04153 0.0
C834 C 0.3394 0.89755 0.36213 0.0
C835 C 0.31435 0.88377 0.34213 0.0
C836 C 0.38371 0.92671 0.36097 0.0
C837 C 0.47144 0.00711 0.32515 0.0
H838 H 0.54131 0.97064 0.3588 0.0
C839 C 0.65775 0.09818 0.31892 0.0
C840 C 0.67877 0.10887 0.34019 0.0
C841 C 0.61351 0.06821 0.31757 0.0
C842 C 0.52221 0.98129 0.3494 0.0
H843 H 0.31559 0.89154 0.30535 0.0
H844 H 0.39314 0.94318 0.30341 0.0
H845 H 0.46259 0.92685 0.36025 0.0
H846 H 0.67087 0.09502 0.37638 0.0
H847 H 0.59409 0.04229 0.37405 0.0
H848 H 0.53123 0.06198 0.31459 0.0
C849 C 0.37836 0.93124 0.31994 0.0
C850 C 0.47723 0.95639 0.3503 0.0
C851 C 0.33397 0.9018 0.32108 0.0
C852 C 0.65549 0.08738 0.35982 0.0
C853 C 0.61153 0.05709 0.35845 0.0
C854 C 0.51655 0.03217 0.3243 0.0
C855 C 0.40378 0.94283 0.3398 0.0
C856 C 0.45144 0.9693 0.33841 0.0
C857 C 0.58986 0.04805 0.33741 0.0
C858 C 0.54231 0.01967 0.33661 0.0
H859 H 0.32506 0.88462 0.37864 0.0
H860 H 0.4025 0.93583 0.37659 0.0
H861 H 0.45221 0.01781 0.31591 0.0
H862 H 0.67488 0.11464 0.30352 0.0
H863 H 0.5976 0.06151 0.3011 0.0
C864 C 0.32358 0.16347 0.74724 0.0
C865 C 0.35146 0.19936 0.73405 0.0
C866 C 0.31457 0.16909 0.76971 0.0
C867 C 0.35121 0.24809 0.8176 0.0
H868 H 0.23015 0.18147 0.83456 0.0
C869 C 0.26176 0.29179 0.88557 0.0
C870 C 0.22632 0.25704 0.89649 0.0
C871 C 0.28738 0.284 0.87045 0.0
C872 C 0.26429 0.19965 0.83035 0.0
H873 H 0.39343 0.26866 0.73369 0.0
H874 H 0.37694 0.27912 0.77285 0.0
H875 H 0.25299 0.16924 0.79786 0.0
H876 H 0.19368 0.1881 0.90291 0.0
H877 H 0.23844 0.17452 0.87659 0.0
H878 H 0.36153 0.28015 0.84996 0.0
C879 C 0.36213 0.24659 0.76605 0.0
C880 C 0.2774 0.19265 0.80925 0.0
C881 C 0.37103 0.24083 0.74355 0.0
C882 C 0.22013 0.21524 0.89421 0.0
C883 C 0.24581 0.20752 0.87925 0.0
C884 C 0.3379 0.25542 0.83879 0.0
C885 C 0.33343 0.21077 0.77932 0.0
C886 C 0.32088 0.21692 0.80251 0.0
C887 C 0.27779 0.24142 0.86616 0.0
C888 C 0.29419 0.23133 0.84526 0.0
H889 H 0.30884 0.13113 0.74016 0.0
H890 H 0.29284 0.14076 0.77957 0.0
H891 H 0.38507 0.26704 0.81294 0.0
H892 H 0.2674 0.32441 0.88719 0.0
H893 H 0.31194 0.31074 0.86061 0.0
C894 C 0.01239 0.24936 0.22858 0.0
C895 C 0.96814 0.23609 0.22697 0.0
C896 C 0.04112 0.27401 0.21118 0.0
C897 C 0.04415 0.27093 0.15333 0.0
H898 H 0.13251 0.39127 0.14517 0.0
C899 C 0.10951 0.33554 0.06508 0.0
C900 C 0.15441 0.36067 0.06204 0.0
C901 C 0.09163 0.32647 0.08689 0.0
C902 C 0.10831 0.3575 0.14738 0.0
H903 H 0.9196 0.24008 0.20666 0.0
H904 H 0.96969 0.28209 0.17583 0.0
H905 H 0.09276 0.36714 0.18166 0.0
H906 H 0.21598 0.39477 0.07944 0.0
H907 H 0.18453 0.38045 0.11801 0.0
H908 H 0.05908 0.2606 0.11948 0.0
C909 C 0.98216 0.27418 0.1908 0.0
C910 C 0.08556 0.34385 0.16813 0.0
C911 C 0.95359 0.25015 0.20837 0.0
C912 C 0.18121 0.37724 0.08131 0.0
C913 C 0.1632 0.36841 0.10335 0.0
C914 C 0.06679 0.28436 0.13282 0.0
C915 C 0.02585 0.28524 0.1918 0.0
C916 C 0.05268 0.30059 0.17096 0.0
C917 C 0.11819 0.342 0.10632 0.0
C918 C 0.09829 0.32796 0.12932 0.0
H919 H 0.02433 0.23899 0.24283 0.0
H920 H 0.07458 0.28183 0.21215 0.0
H921 H 0.01941 0.23728 0.15535 0.0
H922 H 0.08811 0.32215 0.0505 0.0
H923 H 0.05681 0.30656 0.08857 0.0
C924 C 0.78098 0.00408 0.56006 0.0
C925 C 0.73957 0.96759 0.56226 0.0
C926 C 0.78824 0.0367 0.54462 0.0
C927 C 0.74 0.07879 0.50344 0.0
H928 H 0.82649 0.08055 0.46272 0.0
C929 C 0.75457 0.13328 0.4097 0.0
C930 C 0.79518 0.15262 0.39917 0.0
C931 C 0.74906 0.11615 0.43164 0.0
C932 C 0.80303 0.08156 0.474 0.0
H933 H 0.67226 0.93893 0.55217 0.0
H934 H 0.68514 0.99596 0.52485 0.0
H935 H 0.81465 0.04622 0.49961 0.0
H936 H 0.8626 0.17183 0.40322 0.0
H937 H 0.8539 0.14356 0.44205 0.0
H938 H 0.72852 0.11445 0.47776 0.0
C939 C 0.71192 -0.0007 0.5351 0.0
C940 C 0.79618 0.06171 0.49522 0.0
C941 C 0.7046 0.9666 0.55065 0.0
C942 C 0.83072 0.15577 0.41094 0.0
C943 C 0.82555 0.13952 0.43313 0.0
C944 C 0.74744 0.09952 0.48226 0.0
C945 C 0.75426 0.03327 0.53102 0.0
C946 C 0.76426 0.05953 0.51002 0.0
C947 C 0.78455 0.11929 0.44376 0.0
C948 C 0.77858 0.10045 0.46707 0.0
H949 H 0.80825 0.00611 0.56929 0.0
H950 H 0.82103 0.06308 0.5421 0.0
H951 H 0.71515 0.07748 0.51457 0.0
H952 H 0.72719 0.13207 0.40112 0.0
H953 H 0.71691 0.10034 0.43897 0.0
C954 C 0.65017 0.76254 0.73326 0.0
C955 C 0.64196 0.79667 0.73074 0.0
C956 C 0.65764 0.75129 0.7549 0.0
C957 C 0.65266 0.77196 0.81747 0.0
H958 H 0.73199 0.72789 0.82092 0.0
C959 C 0.76098 0.77455 0.89301 0.0
C960 C 0.7612 0.73571 0.89646 0.0
C961 C 0.73494 0.77732 0.87605 0.0
C962 C 0.7093 0.73962 0.82017 0.0
H963 H 0.63554 0.8464 0.74834 0.0
H964 H 0.65194 0.82922 0.78591 0.0
H965 H 0.71316 0.74402 0.78401 0.0
H966 H 0.73114 0.66824 0.88645 0.0
H967 H 0.68618 0.67341 0.8567 0.0
H968 H 0.65223 0.77046 0.85419 0.0
C969 C 0.65057 0.80949 0.77158 0.0
C970 C 0.69819 0.74867 0.79897 0.0
C971 C 0.64166 0.81973 0.75002 0.0
C972 C 0.73182 0.69865 0.8842 0.0
C973 C 0.70609 0.70153 0.86717 0.0
C974 C 0.66483 0.76392 0.83883 0.0
C975 C 0.65864 0.77503 0.77436 0.0
C976 C 0.66957 0.7648 0.79722 0.0
C977 C 0.70908 0.74136 0.86227 0.0
C978 C 0.69304 0.74744 0.84023 0.0
H979 H 0.64986 0.74396 0.71858 0.0
H980 H 0.6624 0.72377 0.75629 0.0
H981 H 0.63006 0.78376 0.81691 0.0
H982 H 0.78272 0.80338 0.90254 0.0
H983 H 0.73774 0.80837 0.87248 0.0
C984 C 0.01816 0.72087 0.21834 0.0
C985 C 0.03038 0.76355 0.22439 0.0
C986 C 0.98362 0.69771 0.20314 0.0
C987 C 0.94748 0.7272 0.15341 0.0
H988 H 0.84959 0.61053 0.14933 0.0
C989 C 0.84091 0.67542 0.07426 0.0
C990 C 0.83127 0.63596 0.0642 0.0
C991 C 0.85742 0.68552 0.0964 0.0
C992 C 0.87703 0.64309 0.15024 0.0
H993 H 0.01348 0.81364 0.22163 0.0
H994 H 0.95332 0.77335 0.19533 0.0
H995 H 0.89042 0.63614 0.18542 0.0
H996 H 0.83264 0.57679 0.06931 0.0
H997 H 0.85995 0.5935 0.10845 0.0
H998 H 0.93577 0.73436 0.11845 0.0
C999 C 0.9704 0.75783 0.20206 0.0
C1000 C 0.9002 0.65769 0.17085 0.0
C1001 C 0.00469 0.78082 0.21715 0.0
C1002 C 0.83749 0.6063 0.07699 0.0
C1003 C 0.85381 0.61625 0.09933 0.0
C1004 C 0.92478 0.71269 0.13298 0.0
C1005 C 0.96122 0.71718 0.19384 0.0
C1006 C 0.93534 0.70015 0.17263 0.0
C1007 C 0.86516 0.65659 0.10903 0.0
C1008 C 0.88894 0.67071 0.13113 0.0
H1009 H 0.0377 0.70703 0.22363 0.0
H1010 H 0.97716 0.6664 0.19705 0.0
H1011 H 0.9752 0.75965 0.15409 0.0
H1012 H 0.83692 0.69917 0.0647 0.0
H1013 H 0.86534 0.71668 0.10342 0.0
C1014 C 0.30334 0.03583 0.54987 0.0
C1015 C 0.26714 0.03311 0.56078 0.0
C1016 C 0.29804 0.00343 0.5347 0.0
C1017 C 0.22924 0.89935 0.50804 0.0
H1018 H 0.24674 0.96562 0.45264 0.0
C1019 C 0.16826 0.81668 0.42023 0.0
C1020 C 0.19338 0.83827 0.40108 0.0
C1021 C 0.17775 0.83728 0.44145 0.0
C1022 C 0.2426 0.9465 0.46775 0.0
H1023 H 0.19845 0.99291 0.56701 0.0
H1024 H 0.18925 0.93566 0.54066 0.0
H1025 H 0.26782 0.00243 0.48902 0.0
H1026 H 0.24778 0.89772 0.38867 0.0
H1027 H 0.26602 0.93297 0.42563 0.0
H1028 H 0.20478 0.84334 0.48673 0.0
C1029 C 0.22149 0.96265 0.54375 0.0
C1030 C 0.25462 0.96771 0.48862 0.0
C1031 C 0.22666 0.99539 0.55864 0.0
C1032 C 0.22764 0.88076 0.40323 0.0
C1033 C 0.2379 0.90092 0.42446 0.0
C1034 C 0.21817 0.87801 0.48695 0.0
C1035 C 0.25661 0.96795 0.53058 0.0
C1036 C 0.24797 0.94441 0.50888 0.0
C1037 C 0.21318 0.87949 0.44391 0.0
C1038 C 0.22462 0.90141 0.46651 0.0
H1039 H 0.33478 0.06483 0.55132 0.0
H1040 H 0.32545 0.00808 0.52458 0.0
H1041 H 0.22326 0.88082 0.5236 0.0
H1042 H 0.14149 0.7838 0.41881 0.0
H1043 H 0.15737 0.82004 0.45584 0.0
loop_
_geom_bond_atom_site_label_1
_geom_bond_atom_site_label_2
_geom_bond_distance
_geom_bond_site_symmetry_2
_ccdc_geom_bond_type
Tb0 N29 2.617 . S
Tb0 N35 2.572 1_556 S
Tb0 O44 2.465 . S
Tb0 O45 2.387 1_556 S
Tb0 O47 2.428 . S
Tb0 O48 2.308 1_556 S
Tb0 O52 2.349 . S
Tb0 O55 2.393 . S
Tb0 C64 2.802 . S
C1 N2 1.379 . S
C1 C4 1.416 . S
C1 C8 1.424 . S
N2 C1 1.379 . S
N2 C5 1.334 . S
N2 Tb11 2.617 . S
C3 C5 1.390 . S
C3 C6 1.339 . S
C3 H23 0.930 . S
C4 C1 1.416 . S
C4 C6 1.416 . S
C4 C10 1.448 . S
C5 N2 1.334 . S
C5 C3 1.390 . S
C5 H16 0.930 . S
C6 C3 1.339 . S
C6 C4 1.416 . S
C6 H27 0.930 . S
C7 C8 1.413 . S
C7 C9 1.433 . S
C7 C13 1.416 1_554 S
C8 C1 1.424 . S
C8 C7 1.413 . S
C8 N12 1.361 . S
C9 C7 1.433 . S
C9 C10 1.341 . S
C9 H24 0.911 1_554 S
C10 C4 1.448 . S
C10 C9 1.341 . S
C10 H25 0.930 . S
Tb11 N2 2.617 . S
Tb11 N12 2.572 . S
Tb11 O46 2.349 . S
Tb11 O49 2.393 . S
Tb11 O50 2.465 . S
Tb11 O51 2.387 1_554 S
Tb11 O53 2.428 . S
Tb11 O54 2.308 . S
Tb11 C75 2.802 . S
N12 C8 1.361 . S
N12 Tb11 2.572 . S
N12 C14 1.340 . S
C13 C7 1.416 1_556 S
C13 C15 1.325 1_556 S
C13 H21 0.931 . S
C14 N12 1.340 . S
C14 C15 1.430 . S
C14 H20 0.930 . S
C15 C13 1.325 1_554 S
C15 C14 1.430 . S
C15 H17 0.917 1_554 S
H16 C5 0.930 . S
H17 C15 0.917 1_556 S
H18 C33 0.930 . S
H19 C40 0.929 . S
H20 C14 0.930 . S
H21 C13 0.931 . S
H22 C36 0.930 . S
H23 C3 0.930 . S
H24 C9 0.911 1_556 S
H25 C10 0.930 . S
H26 C31 0.930 . S
H27 C6 0.930 . S
H28 C39 0.931 . S
N29 Tb0 2.617 . S
N29 C30 1.379 1_556 S
N29 C33 1.334 . S
C30 N29 1.379 1_554 S
C30 C32 1.416 . S
C30 C38 1.424 . S
C31 H26 0.930 . S
C31 C33 1.390 . S
C31 C34 1.339 1_556 S
C32 C30 1.416 . S
C32 C34 1.416 . S
C32 C65 1.448 . S
C33 H18 0.930 . S
C33 N29 1.334 . S
C33 C31 1.390 . S
C34 C31 1.339 1_554 S
C34 C32 1.416 . S
C34 H41 0.930 1_455 S
N35 Tb0 2.572 1_554 S
N35 C36 1.340 . S
N35 C38 1.361 . S
C36 H22 0.930 . S
C36 N35 1.340 . S
C36 C40 1.407 . S
C37 C38 1.413 . S
C37 C39 1.416 . S
C37 C66 1.427 . S
C38 C30 1.424 . S
C38 N35 1.361 . S
C38 C37 1.413 . S
C39 H28 0.931 . S
C39 C37 1.416 . S
C39 C40 1.332 . S
C40 H19 0.929 . S
C40 C36 1.407 . S
C40 C39 1.332 . S
H41 C34 0.930 1_655 S
H42 C65 0.930 . S
H43 C66 0.929 . S
O44 Tb0 2.465 . S
O44 C64 1.264 . S
O45 Tb0 2.387 1_554 S
O45 C56 1.264 . S
O46 Tb11 2.349 . S
O46 C56 1.243 . S
O47 Tb0 2.428 . S
O47 C64 1.256 . S
O48 Tb0 2.308 1_554 S
O48 C63 1.266 . S
O49 Tb11 2.393 . S
O49 C63 1.248 . S
O50 Tb11 2.465 . S
O50 C75 1.264 . S
O51 Tb11 2.387 1_556 S
O51 C67 1.264 . S
O52 Tb0 2.349 . S
O52 C67 1.243 . S
O53 Tb11 2.428 . S
O53 C75 1.256 . S
O54 Tb11 2.308 . S
O54 C74 1.266 . S
O55 Tb0 2.393 . S
O55 C74 1.248 1_556 S
C56 O45 1.264 . S
C56 O46 1.243 . S
C57 C60 1.399 . S
C57 C62 1.383 . S
C57 C64 1.496 . S
C58 C59 1.399 . S
C58 C62 1.389 . S
C59 C58 1.399 . S
C59 C61 1.380 . S
C59 H76 0.929 . S
C60 C57 1.399 . S
C60 C61 1.392 . S
C60 H77 0.929 . S
C61 C59 1.380 . S
C61 C60 1.392 . S
C61 H78 0.929 . S
C62 C57 1.383 . S
C62 C58 1.389 . S
C62 H79 0.931 . S
C63 O48 1.266 . S
C63 O49 1.248 . S
C64 Tb0 2.802 . S
C64 O44 1.264 . S
C64 O47 1.256 . S
C64 C57 1.496 . S
C65 C32 1.448 . S
C65 H42 0.930 . S
C65 C66 1.328 . S
C66 C37 1.427 . S
C66 H43 0.929 . S
C66 C65 1.328 . S
C67 O51 1.264 . S
C67 O52 1.243 . S
C68 C71 1.399 . S
C68 C72 1.383 . S
C68 C75 1.496 . S
C69 C70 1.399 . S
C69 C72 1.389 . S
C70 C69 1.399 . S
C70 C73 1.380 . S
C70 H80 0.929 . S
C71 C68 1.399 . S
C71 C73 1.392 . S
C71 H81 0.929 . S
C72 C68 1.383 . S
C72 C69 1.389 . S
C72 H82 0.931 . S
C73 C70 1.380 . S
C73 C71 1.392 . S
C73 H83 0.929 . S
C74 O54 1.266 . S
C74 O55 1.248 1_554 S
C75 Tb11 2.802 . S
C75 O50 1.264 . S
C75 O53 1.256 . S
C75 C68 1.496 . S
H76 C59 0.929 . S
H77 C60 0.929 . S
H78 C61 0.929 . S
H79 C62 0.931 . S
H80 C70 0.929 . S
H81 C71 0.929 . S
H82 C72 0.931 . S
H83 C73 0.929 . S
Tb84 N113 2.617 . S
Tb84 N119 2.572 . S
Tb84 O128 2.465 . S
Tb84 O129 2.387 . S
Tb84 O131 2.428 . S
Tb84 O132 2.308 . S
Tb84 O136 2.349 . S
Tb84 O139 2.393 . S
Tb84 C148 2.802 . S
C85 N86 1.379 . S
C85 C88 1.416 . S
C85 C92 1.424 . S
N86 C85 1.379 . S
N86 C89 1.334 . S
N86 Tb95 2.617 . S
C87 C89 1.390 . S
C87 C90 1.339 . S
C87 H107 0.930 . S
C88 C85 1.416 . S
C88 C90 1.416 . S
C88 C94 1.448 . S
C89 N86 1.334 . S
C89 C87 1.390 . S
C89 H100 0.930 . S
C90 C87 1.339 . S
C90 C88 1.416 . S
C90 H111 0.930 . S
C91 C92 1.413 . S
C91 C93 1.427 . S
C91 C97 1.416 . S
C92 C85 1.424 . S
C92 C91 1.413 . S
C92 N96 1.361 . S
C93 C91 1.427 . S
C93 C94 1.328 . S
C93 H108 0.929 . S
C94 C88 1.448 . S
C94 C93 1.328 . S
C94 H109 0.930 . S
Tb95 N86 2.617 . S
Tb95 N96 2.572 . S
Tb95 O130 2.349 . S
Tb95 O133 2.393 . S
Tb95 O134 2.465 . S
Tb95 O135 2.387 . S
Tb95 O137 2.428 . S
Tb95 O138 2.308 . S
Tb95 C159 2.802 . S
N96 C92 1.361 . S
N96 Tb95 2.572 . S
N96 C98 1.340 . S
C97 C91 1.416 . S
C97 C99 1.332 . S
C97 H105 0.931 . S
C98 N96 1.340 . S
C98 C99 1.407 . S
C98 H104 0.930 . S
C99 C97 1.332 . S
C99 C98 1.407 . S
C99 H101 0.929 . S
H100 C89 0.930 . S
H101 C99 0.929 . S
H102 C117 0.930 . S
H103 C124 0.929 . S
H104 C98 0.930 . S
H105 C97 0.931 . S
H106 C120 0.930 . S
H107 C87 0.930 . S
H108 C93 0.929 . S
H109 C94 0.930 . S
H110 C115 0.930 . S
H111 C90 0.930 . S
H112 C123 0.931 . S
N113 Tb84 2.617 . S
N113 C114 1.379 . S
N113 C117 1.334 . S
C114 N113 1.379 . S
C114 C116 1.416 . S
C114 C122 1.424 . S
C115 H110 0.930 . S
C115 C117 1.390 . S
C115 C118 1.339 . S
C116 C114 1.416 . S
C116 C118 1.416 . S
C116 C149 1.448 . S
C117 H102 0.930 . S
C117 N113 1.334 . S
C117 C115 1.390 . S
C118 C115 1.339 . S
C118 C116 1.416 . S
C118 H125 0.930 1_545 S
N119 Tb84 2.572 . S
N119 C120 1.340 . S
N119 C122 1.361 . S
C120 H106 0.930 . S
C120 N119 1.340 . S
C120 C124 1.407 . S
C121 C122 1.413 . S
C121 C123 1.416 . S
C121 C150 1.427 . S
C122 C114 1.424 . S
C122 N119 1.361 . S
C122 C121 1.413 . S
C123 H112 0.931 . S
C123 C121 1.416 . S
C123 C124 1.332 . S
C124 H103 0.929 . S
C124 C120 1.407 . S
C124 C123 1.332 . S
H125 C118 0.930 1_565 S
H126 C149 0.930 . S
H127 C150 0.929 . S
O128 Tb84 2.465 . S
O128 C148 1.264 . S
O129 Tb84 2.387 . S
O129 C140 1.264 . S
O130 Tb95 2.349 . S
O130 C140 1.243 . S
O131 Tb84 2.428 . S
O131 C148 1.256 . S
O132 Tb84 2.308 . S
O132 C147 1.266 . S
O133 Tb95 2.393 . S
O133 C147 1.248 . S
O134 Tb95 2.465 . S
O134 C159 1.264 . S
O135 Tb95 2.387 . S
O135 C151 1.264 . S
O136 Tb84 2.349 . S
O136 C151 1.243 . S
O137 Tb95 2.428 . S
O137 C159 1.256 . S
O138 Tb95 2.308 . S
O138 C158 1.266 . S
O139 Tb84 2.393 . S
O139 C158 1.248 . S
C140 O129 1.264 . S
C140 O130 1.243 . S
C141 C144 1.399 . S
C141 C146 1.383 . S
C141 C148 1.496 . S
C142 C143 1.399 . S
C142 C146 1.389 . S
C143 C142 1.399 . S
C143 C145 1.380 . S
C143 H160 0.929 . S
C144 C141 1.399 . S
C144 C145 1.392 . S
C144 H161 0.929 . S
C145 C143 1.380 . S
C145 C144 1.392 . S
C145 H162 0.929 . S
C146 C141 1.383 . S
C146 C142 1.389 . S
C146 H163 0.931 . S
C147 O132 1.266 . S
C147 O133 1.248 . S
C148 Tb84 2.802 . S
C148 O128 1.264 . S
C148 O131 1.256 . S
C148 C141 1.496 . S
C149 C116 1.448 . S
C149 H126 0.930 . S
C149 C150 1.328 . S
C150 C121 1.427 . S
C150 H127 0.929 . S
C150 C149 1.328 . S
C151 O135 1.264 . S
C151 O136 1.243 . S
C152 C155 1.399 . S
C152 C156 1.383 . S
C152 C159 1.496 . S
C153 C154 1.399 . S
C153 C156 1.389 . S
C154 C153 1.399 . S
C154 C157 1.380 . S
C154 H164 0.929 . S
C155 C152 1.399 . S
C155 C157 1.392 . S
C155 H165 0.929 . S
C156 C152 1.383 . S
C156 C153 1.389 . S
C156 H166 0.931 . S
C157 C154 1.380 . S
C157 C155 1.392 . S
C157 H167 0.929 . S
C158 O138 1.266 . S
C158 O139 1.248 . S
C159 Tb95 2.802 . S
C159 O134 1.264 . S
C159 O137 1.256 . S
C159 C152 1.496 . S
H160 C143 0.929 . S
H161 C144 0.929 . S
H162 C145 0.929 . S
H163 C146 0.931 . S
H164 C154 0.929 . S
H165 C155 0.929 . S
H166 C156 0.931 . S
H167 C157 0.929 . S
Tb168 N197 2.617 . S
Tb168 N203 2.572 . S
Tb168 O212 2.465 . S
Tb168 O213 2.387 . S
Tb168 O215 2.428 . S
Tb168 O216 2.308 . S
Tb168 O220 2.349 . S
Tb168 O223 2.393 . S
Tb168 C232 2.802 . S
C169 N170 1.379 . S
C169 C172 1.416 . S
C169 C176 1.424 . S
N170 C169 1.379 . S
N170 C173 1.334 . S
N170 Tb179 2.617 . S
C171 C173 1.390 . S
C171 C174 1.339 . S
C171 H191 0.930 . S
C172 C169 1.416 . S
C172 C174 1.416 . S
C172 C178 1.448 . S
C173 N170 1.334 . S
C173 C171 1.390 . S
C173 H184 0.930 . S
C174 C171 1.339 . S
C174 C172 1.416 . S
C174 H195 0.930 . S
C175 C176 1.413 . S
C175 C177 1.427 . S
C175 C181 1.416 . S
C176 C169 1.424 . S
C176 C175 1.413 . S
C176 N180 1.361 . S
C177 C175 1.427 . S
C177 C178 1.328 . S
C177 H192 0.929 . S
C178 C172 1.448 . S
C178 C177 1.328 . S
C178 H193 0.930 . S
Tb179 N170 2.617 . S
Tb179 N180 2.572 . S
Tb179 O214 2.349 . S
Tb179 O217 2.393 . S
Tb179 O218 2.465 . S
Tb179 O219 2.387 . S
Tb179 O221 2.428 . S
Tb179 O222 2.308 . S
Tb179 C243 2.802 . S
N180 C176 1.361 . S
N180 Tb179 2.572 . S
N180 C182 1.340 . S
C181 C175 1.416 . S
C181 C183 1.332 . S
C181 H189 0.931 . S
C182 N180 1.340 . S
C182 C183 1.407 . S
C182 H188 0.930 . S
C183 C181 1.332 . S
C183 C182 1.407 . S
C183 H185 0.929 . S
H184 C173 0.930 . S
H185 C183 0.929 . S
H186 C201 0.930 . S
H187 C208 0.929 . S
H188 C182 0.930 . S
H189 C181 0.931 . S
H190 C204 0.930 . S
H191 C171 0.930 . S
H192 C177 0.929 . S
H193 C178 0.930 . S
H194 C199 0.930 . S
H195 C174 0.930 . S
H196 C207 0.931 . S
N197 Tb168 2.617 . S
N197 C198 1.379 . S
N197 C201 1.334 . S
C198 N197 1.379 . S
C198 C200 1.416 . S
C198 C206 1.424 . S
C199 H194 0.930 . S
C199 C201 1.390 . S
C199 C202 1.339 . S
C200 C198 1.416 . S
C200 C202 1.416 . S
C200 C233 1.448 . S
C201 H186 0.930 . S
C201 N197 1.334 . S
C201 C199 1.390 . S
C202 C199 1.339 . S
C202 C200 1.416 . S
C202 H209 0.930 . S
N203 Tb168 2.572 . S
N203 C204 1.340 . S
N203 C206 1.361 . S
C204 H190 0.930 . S
C204 N203 1.340 . S
C204 C208 1.407 . S
C205 C206 1.413 . S
C205 C207 1.416 . S
C205 C234 1.427 . S
C206 C198 1.424 . S
C206 N203 1.361 . S
C206 C205 1.413 . S
C207 H196 0.931 . S
C207 C205 1.416 . S
C207 C208 1.332 . S
C208 H187 0.929 . S
C208 C204 1.407 . S
C208 C207 1.332 . S
H209 C202 0.930 . S
H210 C233 0.930 . S
H211 C234 0.929 . S
O212 Tb168 2.465 . S
O212 C232 1.264 . S
O213 Tb168 2.387 . S
O213 C224 1.264 . S
O214 Tb179 2.349 . S
O214 C224 1.243 . S
O215 Tb168 2.428 . S
O215 C232 1.256 . S
O216 Tb168 2.308 . S
O216 C231 1.266 . S
O217 Tb179 2.393 . S
O217 C231 1.248 . S
O218 Tb179 2.465 . S
O218 C243 1.264 . S
O219 Tb179 2.387 . S
O219 C235 1.264 . S
O220 Tb168 2.349 . S
O220 C235 1.243 . S
O221 Tb179 2.428 . S
O221 C243 1.256 . S
O222 Tb179 2.308 . S
O222 C242 1.266 . S
O223 Tb168 2.393 . S
O223 C242 1.248 . S
C224 O213 1.264 . S
C224 O214 1.243 . S
C225 C228 1.399 . S
C225 C230 1.383 . S
C225 C232 1.496 . S
C226 C227 1.399 . S
C226 C230 1.389 . S
C227 C226 1.399 . S
C227 C229 1.380 . S
C227 H244 0.929 . S
C228 C225 1.399 . S
C228 C229 1.392 . S
C228 H245 0.929 . S
C229 C227 1.380 . S
C229 C228 1.392 . S
C229 H246 0.929 . S
C230 C225 1.383 . S
C230 C226 1.389 . S
C230 H247 0.931 . S
C231 O216 1.266 . S
C231 O217 1.248 . S
C232 Tb168 2.802 . S
C232 O212 1.264 . S
C232 O215 1.256 . S
C232 C225 1.496 . S
C233 C200 1.448 . S
C233 H210 0.930 . S
C233 C234 1.328 . S
C234 C205 1.427 . S
C234 H211 0.929 . S
C234 C233 1.328 . S
C235 O219 1.264 . S
C235 O220 1.243 . S
C236 C239 1.399 . S
C236 C240 1.383 . S
C236 C243 1.496 . S
C237 C238 1.399 . S
C237 C240 1.389 . S
C238 C237 1.399 . S
C238 C241 1.380 . S
C238 H248 0.929 . S
C239 C236 1.399 . S
C239 C241 1.392 . S
C239 H249 0.929 . S
C240 C236 1.383 . S
C240 C237 1.389 . S
C240 H250 0.931 . S
C241 C238 1.380 . S
C241 C239 1.392 . S
C241 H251 0.929 . S
C242 O222 1.266 . S
C242 O223 1.248 . S
C243 Tb179 2.802 . S
C243 O218 1.264 . S
C243 O221 1.256 . S
C243 C236 1.496 . S
H244 C227 0.929 . S
H245 C228 0.929 . S
H246 C229 0.929 . S
H247 C230 0.931 . S
H248 C238 0.929 . S
H249 C239 0.929 . S
H250 C240 0.931 . S
H251 C241 0.929 . S
Tb252 N281 2.617 . S
Tb252 N287 2.572 1_556 S
Tb252 O296 2.465 . S
Tb252 O297 2.387 1_556 S
Tb252 O299 2.428 . S
Tb252 O300 2.308 1_556 S
Tb252 O304 2.349 . S
Tb252 O307 2.393 . S
Tb252 C316 2.802 . S
C253 N254 1.379 . S
C253 C256 1.416 . S
C253 C260 1.424 . S
N254 C253 1.379 . S
N254 C257 1.334 . S
N254 Tb263 2.617 . S
C255 C257 1.390 . S
C255 C258 1.339 . S
C255 H275 0.930 . S
C256 C253 1.416 . S
C256 C258 1.416 . S
C256 C262 1.448 . S
C257 N254 1.334 . S
C257 C255 1.390 . S
C257 H268 0.930 . S
C258 C255 1.339 . S
C258 C256 1.416 . S
C258 H279 0.930 . S
C259 C260 1.413 . S
C259 C261 1.433 . S
C259 C265 1.416 1_554 S
C260 C253 1.424 . S
C260 C259 1.413 . S
C260 N264 1.361 . S
C261 C259 1.433 . S
C261 C262 1.342 . S
C261 H276 0.911 1_554 S
C262 C256 1.448 . S
C262 C261 1.342 . S
C262 H277 0.930 . S
Tb263 N254 2.617 . S
Tb263 N264 2.572 . S
Tb263 O298 2.349 . S
Tb263 O301 2.393 . S
Tb263 O302 2.465 . S
Tb263 O303 2.387 1_554 S
Tb263 O305 2.428 . S
Tb263 O306 2.308 . S
Tb263 C327 2.802 . S
N264 C260 1.361 . S
N264 Tb263 2.572 . S
N264 C266 1.340 . S
C265 C259 1.416 1_556 S
C265 C267 1.325 1_556 S
C265 H273 0.931 . S
C266 N264 1.340 . S
C266 C267 1.430 . S
C266 H272 0.930 . S
C267 C265 1.325 1_554 S
C267 C266 1.430 . S
C267 H269 0.917 1_554 S
H268 C257 0.930 . S
H269 C267 0.917 1_556 S
H270 C285 0.930 . S
H271 C292 0.929 . S
H272 C266 0.930 . S
H273 C265 0.931 . S
H274 C288 0.930 . S
H275 C255 0.930 . S
H276 C261 0.911 1_556 S
H277 C262 0.930 . S
H278 C283 0.930 . S
H279 C258 0.930 . S
H280 C291 0.931 . S
N281 Tb252 2.617 . S
N281 C282 1.379 1_556 S
N281 C285 1.334 . S
C282 N281 1.379 1_554 S
C282 C284 1.416 . S
C282 C290 1.424 . S
C283 H278 0.930 . S
C283 C285 1.390 . S
C283 C286 1.339 1_556 S
C284 C282 1.416 . S
C284 C286 1.416 . S
C284 C317 1.448 . S
C285 H270 0.930 . S
C285 N281 1.334 . S
C285 C283 1.390 . S
C286 C283 1.339 1_554 S
C286 C284 1.416 . S
C286 H293 0.930 1_655 S
N287 Tb252 2.572 1_554 S
N287 C288 1.340 . S
N287 C290 1.361 . S
C288 H274 0.930 . S
C288 N287 1.340 . S
C288 C292 1.407 . S
C289 C290 1.413 . S
C289 C291 1.416 . S
C289 C318 1.427 . S
C290 C282 1.424 . S
C290 N287 1.361 . S
C290 C289 1.413 . S
C291 H280 0.931 . S
C291 C289 1.416 . S
C291 C292 1.332 . S
C292 H271 0.929 . S
C292 C288 1.407 . S
C292 C291 1.332 . S
H293 C286 0.930 1_455 S
H294 C317 0.930 . S
H295 C318 0.929 . S
O296 Tb252 2.465 . S
O296 C316 1.264 . S
O297 Tb252 2.387 1_554 S
O297 C308 1.264 . S
O298 Tb263 2.349 . S
O298 C308 1.243 . S
O299 Tb252 2.428 . S
O299 C316 1.256 . S
O300 Tb252 2.308 1_554 S
O300 C315 1.266 . S
O301 Tb263 2.393 . S
O301 C315 1.248 . S
O302 Tb263 2.465 . S
O302 C327 1.264 . S
O303 Tb263 2.387 1_556 S
O303 C319 1.264 . S
O304 Tb252 2.349 . S
O304 C319 1.243 . S
O305 Tb263 2.428 . S
O305 C327 1.256 . S
O306 Tb263 2.308 . S
O306 C326 1.266 . S
O307 Tb252 2.393 . S
O307 C326 1.248 1_556 S
C308 O297 1.264 . S
C308 O298 1.243 . S
C309 C312 1.399 . S
C309 C314 1.383 . S
C309 C316 1.496 . S
C310 C311 1.399 . S
C310 C314 1.389 . S
C311 C310 1.399 . S
C311 C313 1.380 . S
C311 H328 0.929 . S
C312 C309 1.399 . S
C312 C313 1.392 . S
C312 H329 0.929 . S
C313 C311 1.380 . S
C313 C312 1.392 . S
C313 H330 0.929 . S
C314 C309 1.383 . S
C314 C310 1.389 . S
C314 H331 0.931 . S
C315 O300 1.266 . S
C315 O301 1.248 . S
C316 Tb252 2.802 . S
C316 O296 1.264 . S
C316 O299 1.256 . S
C316 C309 1.496 . S
C317 C284 1.448 . S
C317 H294 0.930 . S
C317 C318 1.328 . S
C318 C289 1.427 . S
C318 H295 0.929 . S
C318 C317 1.328 . S
C319 O303 1.264 . S
C319 O304 1.243 . S
C320 C323 1.399 . S
C320 C324 1.383 . S
C320 C327 1.496 . S
C321 C322 1.399 . S
C321 C324 1.389 . S
C322 C321 1.399 . S
C322 C325 1.380 . S
C322 H332 0.929 . S
C323 C320 1.399 . S
C323 C325 1.392 . S
C323 H333 0.929 . S
C324 C320 1.383 . S
C324 C321 1.389 . S
C324 H334 0.931 . S
C325 C322 1.380 . S
C325 C323 1.392 . S
C325 H335 0.929 . S
C326 O306 1.266 . S
C326 O307 1.248 1_554 S
C327 Tb263 2.802 . S
C327 O302 1.264 . S
C327 O305 1.256 . S
C327 C320 1.496 . S
H328 C311 0.929 . S
H329 C312 0.929 . S
H330 C313 0.929 . S
H331 C314 0.931 . S
H332 C322 0.929 . S
H333 C323 0.929 . S
H334 C324 0.931 . S
H335 C325 0.929 . S
Tb336 N365 2.617 . S
Tb336 N371 2.572 . S
Tb336 O380 2.465 . S
Tb336 O381 2.387 . S
Tb336 O383 2.428 . S
Tb336 O384 2.308 . S
Tb336 O388 2.349 . S
Tb336 O391 2.393 . S
Tb336 C400 2.802 . S
C337 N338 1.379 . S
C337 C340 1.416 . S
C337 C344 1.424 . S
N338 C337 1.379 . S
N338 C341 1.334 . S
N338 Tb347 2.617 . S
C339 C341 1.390 . S
C339 C342 1.339 . S
C339 H359 0.930 . S
C340 C337 1.416 . S
C340 C342 1.416 . S
C340 C346 1.448 . S
C341 N338 1.334 . S
C341 C339 1.390 . S
C341 H352 0.930 . S
C342 C339 1.339 . S
C342 C340 1.416 . S
C342 H363 0.930 . S
C343 C344 1.413 . S
C343 C345 1.427 . S
C343 C349 1.416 . S
C344 C337 1.424 . S
C344 C343 1.413 . S
C344 N348 1.361 . S
C345 C343 1.427 . S
C345 C346 1.328 . S
C345 H360 0.929 . S
C346 C340 1.448 . S
C346 C345 1.328 . S
C346 H361 0.930 . S
Tb347 N338 2.617 . S
Tb347 N348 2.572 . S
Tb347 O382 2.349 . S
Tb347 O385 2.393 . S
Tb347 O386 2.465 . S
Tb347 O387 2.387 . S
Tb347 O389 2.428 . S
Tb347 O390 2.308 . S
Tb347 C411 2.802 . S
N348 C344 1.361 . S
N348 Tb347 2.572 . S
N348 C350 1.340 . S
C349 C343 1.416 . S
C349 C351 1.332 . S
C349 H357 0.931 . S
C350 N348 1.340 . S
C350 C351 1.407 . S
C350 H356 0.930 . S
C351 C349 1.332 . S
C351 C350 1.407 . S
C351 H353 0.929 . S
H352 C341 0.930 . S
H353 C351 0.929 . S
H354 C369 0.930 . S
H355 C376 0.929 . S
H356 C350 0.930 . S
H357 C349 0.931 . S
H358 C372 0.930 . S
H359 C339 0.930 . S
H360 C345 0.929 . S
H361 C346 0.930 . S
H362 C367 0.930 . S
H363 C342 0.930 . S
H364 C375 0.931 . S
N365 Tb336 2.617 . S
N365 C366 1.379 . S
N365 C369 1.334 . S
C366 N365 1.379 . S
C366 C368 1.416 . S
C366 C374 1.424 . S
C367 H362 0.930 . S
C367 C369 1.390 . S
C367 C370 1.339 . S
C368 C366 1.416 . S
C368 C370 1.416 . S
C368 C401 1.448 . S
C369 H354 0.930 . S
C369 N365 1.334 . S
C369 C367 1.390 . S
C370 C367 1.339 . S
C370 C368 1.416 . S
C370 H377 0.930 1_565 S
N371 Tb336 2.572 . S
N371 C372 1.340 . S
N371 C374 1.361 . S
C372 H358 0.930 . S
C372 N371 1.340 . S
C372 C376 1.407 . S
C373 C374 1.413 . S
C373 C375 1.416 . S
C373 C402 1.427 . S
C374 C366 1.424 . S
C374 N371 1.361 . S
C374 C373 1.413 . S
C375 H364 0.931 . S
C375 C373 1.416 . S
C375 C376 1.332 . S
C376 H355 0.929 . S
C376 C372 1.407 . S
C376 C375 1.332 . S
H377 C370 0.930 1_545 S
H378 C401 0.930 . S
H379 C402 0.929 . S
O380 Tb336 2.465 . S
O380 C400 1.264 . S
O381 Tb336 2.387 . S
O381 C392 1.264 . S
O382 Tb347 2.349 . S
O382 C392 1.243 . S
O383 Tb336 2.428 . S
O383 C400 1.256 . S
O384 Tb336 2.308 . S
O384 C399 1.266 . S
O385 Tb347 2.393 . S
O385 C399 1.248 . S
O386 Tb347 2.465 . S
O386 C411 1.264 . S
O387 Tb347 2.387 . S
O387 C403 1.264 . S
O388 Tb336 2.349 . S
O388 C403 1.243 . S
O389 Tb347 2.428 . S
O389 C411 1.256 . S
O390 Tb347 2.308 . S
O390 C410 1.266 . S
O391 Tb336 2.393 . S
O391 C410 1.248 . S
C392 O381 1.264 . S
C392 O382 1.243 . S
C393 C396 1.399 . S
C393 C398 1.383 . S
C393 C400 1.496 . S
C394 C395 1.399 . S
C394 C398 1.389 . S
C395 C394 1.399 . S
C395 C397 1.380 . S
C395 H412 0.929 . S
C396 C393 1.399 . S
C396 C397 1.392 . S
C396 H413 0.929 . S
C397 C395 1.380 . S
C397 C396 1.392 . S
C397 H414 0.929 . S
C398 C393 1.383 . S
C398 C394 1.389 . S
C398 H415 0.931 . S
C399 O384 1.266 . S
C399 O385 1.248 . S
C400 Tb336 2.802 . S
C400 O380 1.264 . S
C400 O383 1.256 . S
C400 C393 1.496 . S
C401 C368 1.448 . S
C401 H378 0.930 . S
C401 C402 1.328 . S
C402 C373 1.427 . S
C402 H379 0.929 . S
C402 C401 1.328 . S
C403 O387 1.264 . S
C403 O388 1.243 . S
C404 C407 1.399 . S
C404 C408 1.383 . S
C404 C411 1.496 . S
C405 C406 1.399 . S
C405 C408 1.389 . S
C406 C405 1.399 . S
C406 C409 1.380 . S
C406 H416 0.929 . S
C407 C404 1.399 . S
C407 C409 1.392 . S
C407 H417 0.929 . S
C408 C404 1.383 . S
C408 C405 1.389 . S
C408 H418 0.931 . S
C409 C406 1.380 . S
C409 C407 1.392 . S
C409 H419 0.929 . S
C410 O390 1.266 . S
C410 O391 1.248 . S
C411 Tb347 2.802 . S
C411 O386 1.264 . S
C411 O389 1.256 . S
C411 C404 1.496 . S
H412 C395 0.929 . S
H413 C396 0.929 . S
H414 C397 0.929 . S
H415 C398 0.931 . S
H416 C406 0.929 . S
H417 C407 0.929 . S
H418 C408 0.931 . S
H419 C409 0.929 . S
Tb420 N449 2.617 . S
Tb420 N455 2.572 . S
Tb420 O464 2.465 . S
Tb420 O465 2.387 . S
Tb420 O467 2.428 . S
Tb420 O468 2.308 . S
Tb420 O472 2.349 . S
Tb420 O475 2.393 . S
Tb420 C484 2.802 . S
C421 N422 1.379 . S
C421 C424 1.416 . S
C421 C428 1.424 . S
N422 C421 1.379 . S
N422 C425 1.334 . S
N422 Tb431 2.617 . S
C423 C425 1.390 . S
C423 C426 1.339 . S
C423 H443 0.930 . S
C424 C421 1.416 . S
C424 C426 1.416 . S
C424 C430 1.448 . S
C425 N422 1.334 . S
C425 C423 1.390 . S
C425 H436 0.930 . S
C426 C423 1.339 . S
C426 C424 1.416 . S
C426 H447 0.930 . S
C427 C428 1.413 . S
C427 C429 1.427 . S
C427 C433 1.416 . S
C428 C421 1.424 . S
C428 C427 1.413 . S
C428 N432 1.361 . S
C429 C427 1.427 . S
C429 C430 1.328 . S
C429 H444 0.929 . S
C430 C424 1.448 . S
C430 C429 1.328 . S
C430 H445 0.930 . S
Tb431 N422 2.617 . S
Tb431 N432 2.572 . S
Tb431 O466 2.349 . S
Tb431 O469 2.393 . S
Tb431 O470 2.465 . S
Tb431 O471 2.387 . S
Tb431 O473 2.428 . S
Tb431 O474 2.308 . S
Tb431 C495 2.802 . S
N432 C428 1.361 . S
N432 Tb431 2.572 . S
N432 C434 1.340 . S
C433 C427 1.416 . S
C433 C435 1.332 . S
C433 H441 0.931 . S
C434 N432 1.340 . S
C434 C435 1.407 . S
C434 H440 0.930 . S
C435 C433 1.332 . S
C435 C434 1.407 . S
C435 H437 0.929 . S
H436 C425 0.930 . S
H437 C435 0.929 . S
H438 C453 0.930 . S
H439 C460 0.929 . S
H440 C434 0.930 . S
H441 C433 0.931 . S
H442 C456 0.930 . S
H443 C423 0.930 . S
H444 C429 0.929 . S
H445 C430 0.930 . S
H446 C451 0.930 . S
H447 C426 0.930 . S
H448 C459 0.931 . S
N449 Tb420 2.617 . S
N449 C450 1.379 . S
N449 C453 1.334 . S
C450 N449 1.379 . S
C450 C452 1.416 . S
C450 C458 1.424 . S
C451 H446 0.930 . S
C451 C453 1.390 . S
C451 C454 1.339 . S
C452 C450 1.416 . S
C452 C454 1.416 . S
C452 C485 1.448 . S
C453 H438 0.930 . S
C453 N449 1.334 . S
C453 C451 1.390 . S
C454 C451 1.339 . S
C454 C452 1.416 . S
C454 H461 0.930 . S
N455 Tb420 2.572 . S
N455 C456 1.340 . S
N455 C458 1.361 . S
C456 H442 0.930 . S
C456 N455 1.340 . S
C456 C460 1.407 . S
C457 C458 1.413 . S
C457 C459 1.416 . S
C457 C486 1.427 . S
C458 C450 1.424 . S
C458 N455 1.361 . S
C458 C457 1.413 . S
C459 H448 0.931 . S
C459 C457 1.416 . S
C459 C460 1.332 . S
C460 H439 0.929 . S
C460 C456 1.407 . S
C460 C459 1.332 . S
H461 C454 0.930 . S
H462 C485 0.930 . S
H463 C486 0.929 . S
O464 Tb420 2.465 . S
O464 C484 1.264 . S
O465 Tb420 2.387 . S
O465 C476 1.264 . S
O466 Tb431 2.349 . S
O466 C476 1.243 . S
O467 Tb420 2.428 . S
O467 C484 1.256 . S
O468 Tb420 2.308 . S
O468 C483 1.266 . S
O469 Tb431 2.393 . S
O469 C483 1.248 . S
O470 Tb431 2.465 . S
O470 C495 1.264 . S
O471 Tb431 2.387 . S
O471 C487 1.264 . S
O472 Tb420 2.349 . S
O472 C487 1.243 . S
O473 Tb431 2.428 . S
O473 C495 1.256 . S
O474 Tb431 2.308 . S
O474 C494 1.266 . S
O475 Tb420 2.393 . S
O475 C494 1.248 . S
C476 O465 1.264 . S
C476 O466 1.243 . S
C477 C480 1.399 . S
C477 C482 1.383 . S
C477 C484 1.496 . S
C478 C479 1.399 . S
C478 C482 1.389 . S
C479 C478 1.399 . S
C479 C481 1.380 . S
C479 H496 0.929 . S
C480 C477 1.399 . S
C480 C481 1.392 . S
C480 H497 0.929 . S
C481 C479 1.380 . S
C481 C480 1.392 . S
C481 H498 0.929 . S
C482 C477 1.383 . S
C482 C478 1.389 . S
C482 H499 0.931 . S
C483 O468 1.266 . S
C483 O469 1.248 . S
C484 Tb420 2.802 . S
C484 O464 1.264 . S
C484 O467 1.256 . S
C484 C477 1.496 . S
C485 C452 1.448 . S
C485 H462 0.930 . S
C485 C486 1.328 . S
C486 C457 1.427 . S
C486 H463 0.929 . S
C486 C485 1.328 . S
C487 O471 1.264 . S
C487 O472 1.243 . S
C488 C491 1.399 . S
C488 C492 1.383 . S
C488 C495 1.496 . S
C489 C490 1.399 . S
C489 C492 1.389 . S
C490 C489 1.399 . S
C490 C493 1.380 . S
C490 H500 0.929 . S
C491 C488 1.399 . S
C491 C493 1.392 . S
C491 H501 0.929 . S
C492 C488 1.383 . S
C492 C489 1.389 . S
C492 H502 0.931 . S
C493 C490 1.380 . S
C493 C491 1.392 . S
C493 H503 0.929 . S
C494 O474 1.266 . S
C494 O475 1.248 . S
C495 Tb431 2.802 . S
C495 O470 1.264 . S
C495 O473 1.256 . S
C495 C488 1.496 . S
H496 C479 0.929 . S
H497 C480 0.929 . S
H498 C481 0.929 . S
H499 C482 0.931 . S
H500 C490 0.929 . S
H501 C491 0.929 . S
H502 C492 0.931 . S
H503 C493 0.929 . S
C504 C505 1.349 . S
C504 C506 1.327 . S
C504 H529 0.950 . S
C505 C504 1.349 . S
C505 C521 1.349 . S
C506 C504 1.327 . S
C506 C525 1.429 . S
C506 H530 0.950 . S
C507 C524 1.574 . S
C507 C526 1.368 . S
C507 H531 0.949 . S
H508 C512 0.949 . S
C509 C510 1.349 . S
C509 C511 1.327 . S
C509 H532 0.950 . S
C510 C509 1.349 . S
C510 C522 1.349 . S
C511 C509 1.327 . S
C511 C527 1.429 . S
C511 H533 0.950 . S
C512 H508 0.949 . S
C512 C520 1.574 . S
C512 C528 1.368 . S
H513 C521 0.950 . S
H514 C519 0.950 . S
H515 C520 0.949 . S
H516 C522 0.950 . S
H517 C523 0.950 . S
H518 C524 0.949 . S
C519 H514 0.950 . S
C519 C521 1.327 . S
C519 C525 1.429 . S
C520 C512 1.574 . S
C520 H515 0.949 . S
C520 C526 1.368 . S
C521 C505 1.349 . S
C521 H513 0.950 . S
C521 C519 1.327 . S
C522 C510 1.349 . S
C522 H516 0.950 . S
C522 C523 1.327 . S
C523 H517 0.950 . S
C523 C522 1.327 . S
C523 C527 1.429 . S
C524 C507 1.574 . S
C524 H518 0.949 . S
C524 C528 1.368 . S
C525 C506 1.429 . S
C525 C519 1.429 . S
C525 C526 1.523 . S
C526 C507 1.368 . S
C526 C520 1.368 . S
C526 C525 1.523 . S
C527 C511 1.429 . S
C527 C523 1.429 . S
C527 C528 1.523 . S
C528 C512 1.368 . S
C528 C524 1.368 . S
C528 C527 1.523 . S
H529 C504 0.950 . S
H530 C506 0.950 . S
H531 C507 0.949 . S
H532 C509 0.950 . S
H533 C511 0.950 . S
C534 C535 1.349 . S
C534 C536 1.327 . S
C534 H559 0.950 . S
C535 C534 1.349 . S
C535 C551 1.349 . S
C536 C534 1.327 . S
C536 C555 1.429 . S
C536 H560 0.950 . S
C537 C554 1.574 . S
C537 C556 1.368 . S
C537 H561 0.949 . S
H538 C542 0.949 . S
C539 C540 1.349 . S
C539 C541 1.327 . S
C539 H562 0.950 . S
C540 C539 1.349 . S
C540 C552 1.349 . S
C541 C539 1.327 . S
C541 C557 1.429 . S
C541 H563 0.950 . S
C542 H538 0.949 . S
C542 C550 1.574 . S
C542 C558 1.368 . S
H543 C551 0.950 . S
H544 C549 0.950 . S
H545 C550 0.949 . S
H546 C552 0.950 . S
H547 C553 0.950 . S
H548 C554 0.949 . S
C549 H544 0.950 . S
C549 C551 1.327 . S
C549 C555 1.429 . S
C550 C542 1.574 . S
C550 H545 0.949 . S
C550 C556 1.368 . S
C551 C535 1.349 . S
C551 H543 0.950 . S
C551 C549 1.327 . S
C552 C540 1.349 . S
C552 H546 0.950 . S
C552 C553 1.327 . S
C553 H547 0.950 . S
C553 C552 1.327 . S
C553 C557 1.429 . S
C554 C537 1.574 . S
C554 H548 0.949 . S
C554 C558 1.368 . S
C555 C536 1.429 . S
C555 C549 1.429 . S
C555 C556 1.523 . S
C556 C537 1.368 . S
C556 C550 1.368 . S
C556 C555 1.523 . S
C557 C541 1.429 . S
C557 C553 1.429 . S
C557 C558 1.523 . S
C558 C542 1.368 . S
C558 C554 1.368 . S
C558 C557 1.523 . S
H559 C534 0.950 . S
H560 C536 0.950 . S
H561 C537 0.949 . S
H562 C539 0.950 . S
H563 C541 0.950 . S
C564 C565 1.349 . S
C564 C566 1.327 . S
C564 H589 0.950 . S
C565 C564 1.349 . S
C565 C581 1.349 . S
C566 C564 1.327 . S
C566 C585 1.429 . S
C566 H590 0.950 . S
C567 C584 1.574 . S
C567 C586 1.368 . S
C567 H591 0.949 . S
H568 C572 0.949 . S
C569 C570 1.349 . S
C569 C571 1.327 . S
C569 H592 0.950 . S
C570 C569 1.349 . S
C570 C582 1.349 . S
C571 C569 1.327 . S
C571 C587 1.429 . S
C571 H593 0.950 . S
C572 H568 0.949 . S
C572 C580 1.574 . S
C572 C588 1.368 . S
H573 C581 0.950 . S
H574 C579 0.950 . S
H575 C580 0.949 . S
H576 C582 0.950 . S
H577 C583 0.950 . S
H578 C584 0.949 . S
C579 H574 0.950 . S
C579 C581 1.327 . S
C579 C585 1.429 . S
C580 C572 1.574 . S
C580 H575 0.949 . S
C580 C586 1.368 . S
C581 C565 1.349 . S
C581 H573 0.950 . S
C581 C579 1.327 . S
C582 C570 1.349 . S
C582 H576 0.950 . S
C582 C583 1.327 . S
C583 H577 0.950 . S
C583 C582 1.327 . S
C583 C587 1.429 . S
C584 C567 1.574 . S
C584 H578 0.949 . S
C584 C588 1.368 . S
C585 C566 1.429 . S
C585 C579 1.429 . S
C585 C586 1.523 . S
C586 C567 1.368 . S
C586 C580 1.368 . S
C586 C585 1.523 . S
C587 C571 1.429 . S
C587 C583 1.429 . S
C587 C588 1.523 . S
C588 C572 1.368 . S
C588 C584 1.368 . S
C588 C587 1.523 . S
H589 C564 0.950 . S
H590 C566 0.950 . S
H591 C567 0.949 . S
H592 C569 0.950 . S
H593 C571 0.950 . S
C594 C595 1.349 . S
C594 C596 1.327 . S
C594 H619 0.950 . S
C595 C594 1.349 . S
C595 C611 1.349 . S
C596 C594 1.327 . S
C596 C615 1.429 . S
C596 H620 0.950 . S
C597 C614 1.574 . S
C597 C616 1.368 . S
C597 H621 0.949 . S
H598 C602 0.949 . S
C599 C600 1.349 . S
C599 C601 1.327 . S
C599 H622 0.950 . S
C600 C599 1.349 . S
C600 C612 1.349 . S
C601 C599 1.327 . S
C601 C617 1.429 . S
C601 H623 0.950 . S
C602 H598 0.949 . S
C602 C610 1.574 . S
C602 C618 1.368 . S
H603 C611 0.950 . S
H604 C609 0.950 . S
H605 C610 0.949 . S
H606 C612 0.950 . S
H607 C613 0.950 . S
H608 C614 0.949 . S
C609 H604 0.950 . S
C609 C611 1.327 . S
C609 C615 1.429 . S
C610 C602 1.574 . S
C610 H605 0.949 . S
C610 C616 1.368 . S
C611 C595 1.349 . S
C611 H603 0.950 . S
C611 C609 1.327 . S
C612 C600 1.349 . S
C612 H606 0.950 . S
C612 C613 1.327 . S
C613 H607 0.950 . S
C613 C612 1.327 . S
C613 C617 1.429 . S
C614 C597 1.574 . S
C614 H608 0.949 . S
C614 C618 1.368 . S
C615 C596 1.429 . S
C615 C609 1.429 . S
C615 C616 1.523 . S
C616 C597 1.368 . S
C616 C610 1.368 . S
C616 C615 1.523 . S
C617 C601 1.429 . S
C617 C613 1.429 . S
C617 C618 1.523 . S
C618 C602 1.368 . S
C618 C614 1.368 . S
C618 C617 1.523 . S
H619 C594 0.950 . S
H620 C596 0.950 . S
H621 C597 0.949 . S
H622 C599 0.950 . S
H623 C601 0.950 . S
C624 C625 1.349 . S
C624 C626 1.327 . S
C624 H649 0.950 . S
C625 C624 1.349 . S
C625 C641 1.349 . S
C626 C624 1.327 . S
C626 C645 1.429 . S
C626 H650 0.950 . S
C627 C644 1.574 . S
C627 C646 1.368 . S
C627 H651 0.949 . S
H628 C632 0.949 . S
C629 C630 1.349 . S
C629 C631 1.327 . S
C629 H652 0.950 . S
C630 C629 1.349 . S
C630 C642 1.349 . S
C631 C629 1.327 . S
C631 C647 1.429 . S
C631 H653 0.950 . S
C632 H628 0.949 . S
C632 C640 1.574 . S
C632 C648 1.368 . S
H633 C641 0.950 . S
H634 C639 0.950 . S
H635 C640 0.949 . S
H636 C642 0.950 . S
H637 C643 0.950 . S
H638 C644 0.949 . S
C639 H634 0.950 . S
C639 C641 1.327 . S
C639 C645 1.429 . S
C640 C632 1.574 . S
C640 H635 0.949 . S
C640 C646 1.368 . S
C641 C625 1.349 . S
C641 H633 0.950 . S
C641 C639 1.327 . S
C642 C630 1.349 . S
C642 H636 0.950 . S
C642 C643 1.327 . S
C643 H637 0.950 . S
C643 C642 1.327 . S
C643 C647 1.429 . S
C644 C627 1.574 . S
C644 H638 0.949 . S
C644 C648 1.368 . S
C645 C626 1.429 . S
C645 C639 1.429 . S
C645 C646 1.523 . S
C646 C627 1.368 . S
C646 C640 1.368 . S
C646 C645 1.523 . S
C647 C631 1.429 . S
C647 C643 1.429 . S
C647 C648 1.523 . S
C648 C632 1.368 . S
C648 C644 1.368 . S
C648 C647 1.523 . S
H649 C624 0.950 . S
H650 C626 0.950 . S
H651 C627 0.949 . S
H652 C629 0.950 . S
H653 C631 0.950 . S
C654 C655 1.349 . S
C654 C656 1.327 . S
C654 H679 0.950 . S
C655 C654 1.349 . S
C655 C671 1.349 . S
C656 C654 1.327 . S
C656 C675 1.429 . S
C656 H680 0.950 . S
C657 C674 1.574 . S
C657 C676 1.368 . S
C657 H681 0.949 . S
H658 C662 0.949 . S
C659 C660 1.349 . S
C659 C661 1.327 . S
C659 H682 0.950 . S
C660 C659 1.349 . S
C660 C672 1.349 . S
C661 C659 1.327 . S
C661 C677 1.429 . S
C661 H683 0.950 . S
C662 H658 0.949 . S
C662 C670 1.574 . S
C662 C678 1.368 . S
H663 C671 0.950 . S
H664 C669 0.950 . S
H665 C670 0.949 . S
H666 C672 0.950 . S
H667 C673 0.950 . S
H668 C674 0.949 . S
C669 H664 0.950 . S
C669 C671 1.327 . S
C669 C675 1.429 . S
C670 C662 1.574 . S
C670 H665 0.949 . S
C670 C676 1.368 . S
C671 C655 1.349 . S
C671 H663 0.950 . S
C671 C669 1.327 . S
C672 C660 1.349 . S
C672 H666 0.950 . S
C672 C673 1.327 . S
C673 H667 0.950 . S
C673 C672 1.327 . S
C673 C677 1.429 . S
C674 C657 1.574 . S
C674 H668 0.949 . S
C674 C678 1.368 . S
C675 C656 1.429 . S
C675 C669 1.429 . S
C675 C676 1.523 . S
C676 C657 1.368 . S
C676 C670 1.368 . S
C676 C675 1.523 . S
C677 C661 1.429 . S
C677 C673 1.429 . S
C677 C678 1.523 . S
C678 C662 1.368 . S
C678 C674 1.368 . S
C678 C677 1.523 . S
H679 C654 0.950 . S
H680 C656 0.950 . S
H681 C657 0.949 . S
H682 C659 0.950 . S
H683 C661 0.950 . S
C684 C685 1.349 . S
C684 C686 1.327 . S
C684 H709 0.950 1_554 S
C685 C684 1.349 . S
C685 C701 1.349 . S
C686 C684 1.327 . S
C686 C705 1.429 . S
C686 H710 0.950 1_554 S
C687 C704 1.574 . S
C687 C706 1.368 . S
C687 H711 0.949 . S
H688 C692 0.949 1_556 S
C689 C690 1.349 . S
C689 C691 1.327 . S
C689 H712 0.950 . S
C690 C689 1.349 . S
C690 C702 1.349 . S
C691 C689 1.327 . S
C691 C707 1.429 . S
C691 H713 0.950 . S
C692 H688 0.949 1_554 S
C692 C700 1.574 . S
C692 C708 1.368 . S
H693 C701 0.950 . S
H694 C699 0.950 . S
H695 C700 0.949 1_556 S
H696 C702 0.950 1_556 S
H697 C703 0.950 1_556 S
H698 C704 0.949 . S
C699 H694 0.950 . S
C699 C701 1.327 . S
C699 C705 1.429 . S
C700 C692 1.574 . S
C700 H695 0.949 1_554 S
C700 C706 1.368 . S
C701 C685 1.349 . S
C701 H693 0.950 . S
C701 C699 1.327 . S
C702 C690 1.349 . S
C702 H696 0.950 1_554 S
C702 C703 1.327 . S
C703 H697 0.950 1_554 S
C703 C702 1.327 . S
C703 C707 1.429 . S
C704 C687 1.574 . S
C704 H698 0.949 . S
C704 C708 1.368 . S
C705 C686 1.429 . S
C705 C699 1.429 . S
C705 C706 1.523 . S
C706 C687 1.368 . S
C706 C700 1.368 . S
C706 C705 1.523 . S
C707 C691 1.429 . S
C707 C703 1.429 . S
C707 C708 1.523 . S
C708 C692 1.368 . S
C708 C704 1.368 . S
C708 C707 1.523 . S
H709 C684 0.950 1_556 S
H710 C686 0.950 1_556 S
H711 C687 0.949 . S
H712 C689 0.950 . S
H713 C691 0.950 . S
C714 C715 1.349 . S
C714 C716 1.327 . S
C714 H739 0.950 . S
C715 C714 1.349 . S
C715 C731 1.349 . S
C716 C714 1.327 . S
C716 C735 1.429 . S
C716 H740 0.950 . S
C717 C734 1.574 . S
C717 C736 1.368 . S
C717 H741 0.949 . S
H718 C722 0.949 . S
C719 C720 1.349 . S
C719 C721 1.327 . S
C719 H742 0.950 . S
C720 C719 1.349 . S
C720 C732 1.349 . S
C721 C719 1.327 . S
C721 C737 1.429 . S
C721 H743 0.950 . S
C722 H718 0.949 . S
C722 C730 1.574 . S
C722 C738 1.368 . S
H723 C731 0.950 . S
H724 C729 0.950 . S
H725 C730 0.949 . S
H726 C732 0.950 . S
H727 C733 0.950 . S
H728 C734 0.949 . S
C729 H724 0.950 . S
C729 C731 1.327 . S
C729 C735 1.429 . S
C730 C722 1.574 . S
C730 H725 0.949 . S
C730 C736 1.368 1_655 S
C731 C715 1.349 . S
C731 H723 0.950 . S
C731 C729 1.327 . S
C732 C720 1.349 . S
C732 H726 0.950 . S
C732 C733 1.327 . S
C733 H727 0.950 . S
C733 C732 1.327 . S
C733 C737 1.429 . S
C734 C717 1.574 . S
C734 H728 0.949 . S
C734 C738 1.368 1_455 S
C735 C716 1.429 . S
C735 C729 1.429 . S
C735 C736 1.523 . S
C736 C717 1.368 . S
C736 C730 1.368 1_455 S
C736 C735 1.523 . S
C737 C721 1.429 . S
C737 C733 1.429 . S
C737 C738 1.523 . S
C738 C722 1.368 . S
C738 C734 1.368 1_655 S
C738 C737 1.523 . S
H739 C714 0.950 . S
H740 C716 0.950 . S
H741 C717 0.949 . S
H742 C719 0.950 . S
H743 C721 0.950 . S
C744 C745 1.349 . S
C744 C746 1.327 . S
C744 H769 0.950 . S
C745 C744 1.349 . S
C745 C761 1.349 . S
C746 C744 1.327 . S
C746 C765 1.429 . S
C746 H770 0.950 . S
C747 C764 1.574 . S
C747 C766 1.368 . S
C747 H771 0.949 . S
H748 C752 0.949 . S
C749 C750 1.349 . S
C749 C751 1.327 . S
C749 H772 0.950 . S
C750 C749 1.349 . S
C750 C762 1.349 . S
C751 C749 1.327 . S
C751 C767 1.429 . S
C751 H773 0.950 . S
C752 H748 0.949 . S
C752 C760 1.574 . S
C752 C768 1.368 . S
H753 C761 0.950 . S
H754 C759 0.950 . S
H755 C760 0.949 . S
H756 C762 0.950 . S
H757 C763 0.950 . S
H758 C764 0.949 . S
C759 H754 0.950 . S
C759 C761 1.327 . S
C759 C765 1.429 . S
C760 C752 1.574 . S
C760 H755 0.949 . S
C760 C766 1.368 1_565 S
C761 C745 1.349 . S
C761 H753 0.950 . S
C761 C759 1.327 . S
C762 C750 1.349 . S
C762 H756 0.950 . S
C762 C763 1.327 . S
C763 H757 0.950 . S
C763 C762 1.327 . S
C763 C767 1.429 . S
C764 C747 1.574 . S
C764 H758 0.949 . S
C764 C768 1.368 1_545 S
C765 C746 1.429 . S
C765 C759 1.429 . S
C765 C766 1.523 . S
C766 C747 1.368 . S
C766 C760 1.368 1_545 S
C766 C765 1.523 . S
C767 C751 1.429 . S
C767 C763 1.429 . S
C767 C768 1.523 . S
C768 C752 1.368 . S
C768 C764 1.368 1_565 S
C768 C767 1.523 . S
H769 C744 0.950 . S
H770 C746 0.950 . S
H771 C747 0.949 . S
H772 C749 0.950 . S
H773 C751 0.950 . S
C774 C775 1.349 . S
C774 C776 1.327 . S
C774 H799 0.950 . S
C775 C774 1.349 . S
C775 C791 1.349 . S
C776 C774 1.327 . S
C776 C795 1.429 . S
C776 H800 0.950 . S
C777 C794 1.574 . S
C777 C796 1.368 . S
C777 H801 0.949 . S
H778 C782 0.949 . S
C779 C780 1.349 . S
C779 C781 1.327 . S
C779 H802 0.950 . S
C780 C779 1.349 . S
C780 C792 1.349 . S
C781 C779 1.327 . S
C781 C797 1.429 . S
C781 H803 0.950 . S
C782 H778 0.949 . S
C782 C790 1.574 . S
C782 C798 1.368 . S
H783 C791 0.950 . S
H784 C789 0.950 . S
H785 C790 0.949 . S
H786 C792 0.950 . S
H787 C793 0.950 . S
H788 C794 0.949 . S
C789 H784 0.950 . S
C789 C791 1.327 . S
C789 C795 1.429 . S
C790 C782 1.574 . S
C790 H785 0.949 . S
C790 C796 1.368 . S
C791 C775 1.349 . S
C791 H783 0.950 . S
C791 C789 1.327 . S
C792 C780 1.349 . S
C792 H786 0.950 . S
C792 C793 1.327 . S
C793 H787 0.950 . S
C793 C792 1.327 . S
C793 C797 1.429 . S
C794 C777 1.574 . S
C794 H788 0.949 . S
C794 C798 1.368 . S
C795 C776 1.429 . S
C795 C789 1.429 . S
C795 C796 1.523 . S
C796 C777 1.368 . S
C796 C790 1.368 . S
C796 C795 1.523 . S
C797 C781 1.429 . S
C797 C793 1.429 . S
C797 C798 1.523 . S
C798 C782 1.368 . S
C798 C794 1.368 . S
C798 C797 1.523 . S
H799 C774 0.950 . S
H800 C776 0.950 . S
H801 C777 0.949 . S
H802 C779 0.950 . S
H803 C781 0.950 . S
C804 C805 1.349 1_556 S
C804 C806 1.327 . S
C804 H829 0.950 . S
C805 C804 1.349 1_554 S
C805 C821 1.349 . S
C806 C804 1.327 . S
C806 C825 1.429 1_556 S
C806 H830 0.950 . S
C807 C824 1.574 . S
C807 C826 1.368 . S
C807 H831 0.949 . S
H808 C812 0.949 . S
C809 C810 1.349 . S
C809 C811 1.327 . S
C809 H832 0.950 . S
C810 C809 1.349 . S
C810 C822 1.349 1_554 S
C811 C809 1.327 . S
C811 C827 1.429 . S
C811 H833 0.950 . S
C812 H808 0.949 . S
C812 C820 1.574 . S
C812 C828 1.368 1_556 S
H813 C821 0.950 . S
H814 C819 0.950 . S
H815 C820 0.949 . S
H816 C822 0.950 . S
H817 C823 0.950 . S
H818 C824 0.949 . S
C819 H814 0.950 . S
C819 C821 1.327 . S
C819 C825 1.429 . S
C820 C812 1.574 . S
C820 H815 0.949 . S
C820 C826 1.368 1_656 S
C821 C805 1.349 . S
C821 H813 0.950 . S
C821 C819 1.327 . S
C822 C810 1.349 1_556 S
C822 H816 0.950 . S
C822 C823 1.327 . S
C823 H817 0.950 . S
C823 C822 1.327 . S
C823 C827 1.429 1_556 S
C824 C807 1.574 . S
C824 H818 0.949 . S
C824 C828 1.368 1_455 S
C825 C806 1.429 1_554 S
C825 C819 1.429 . S
C825 C826 1.523 . S
C826 C807 1.368 . S
C826 C820 1.368 1_454 S
C826 C825 1.523 . S
C827 C811 1.429 . S
C827 C823 1.429 1_554 S
C827 C828 1.523 . S
C828 C812 1.368 1_554 S
C828 C824 1.368 1_655 S
C828 C827 1.523 . S
H829 C804 0.950 . S
H830 C806 0.950 . S
H831 C807 0.949 . S
H832 C809 0.950 . S
H833 C811 0.950 . S
C834 C835 1.349 . S
C834 C836 1.327 . S
C834 H859 0.950 . S
C835 C834 1.349 . S
C835 C851 1.349 . S
C836 C834 1.327 . S
C836 C855 1.429 . S
C836 H860 0.950 . S
C837 C854 1.574 . S
C837 C856 1.368 1_545 S
C837 H861 0.949 . S
H838 C842 0.949 . S
C839 C840 1.349 . S
C839 C841 1.327 . S
C839 H862 0.950 . S
C840 C839 1.349 . S
C840 C852 1.349 . S
C841 C839 1.327 . S
C841 C857 1.429 . S
C841 H863 0.950 . S
C842 H838 0.949 . S
C842 C850 1.574 . S
C842 C858 1.368 1_565 S
H843 C851 0.950 . S
H844 C849 0.950 . S
H845 C850 0.949 . S
H846 C852 0.950 . S
H847 C853 0.950 . S
H848 C854 0.949 . S
C849 H844 0.950 . S
C849 C851 1.327 . S
C849 C855 1.429 . S
C850 C842 1.574 . S
C850 H845 0.949 . S
C850 C856 1.368 . S
C851 C835 1.349 . S
C851 H843 0.950 . S
C851 C849 1.327 . S
C852 C840 1.349 . S
C852 H846 0.950 . S
C852 C853 1.327 . S
C853 H847 0.950 . S
C853 C852 1.327 . S
C853 C857 1.429 . S
C854 C837 1.574 . S
C854 H848 0.949 . S
C854 C858 1.368 . S
C855 C836 1.429 . S
C855 C849 1.429 . S
C855 C856 1.523 . S
C856 C837 1.368 1_565 S
C856 C850 1.368 . S
C856 C855 1.523 . S
C857 C841 1.429 . S
C857 C853 1.429 . S
C857 C858 1.523 . S
C858 C842 1.368 1_545 S
C858 C854 1.368 . S
C858 C857 1.523 . S
H859 C834 0.950 . S
H860 C836 0.950 . S
H861 C837 0.949 . S
H862 C839 0.950 . S
H863 C841 0.950 . S
C864 C865 1.349 . S
C864 C866 1.327 . S
C864 H889 0.950 . S
C865 C864 1.349 . S
C865 C881 1.349 . S
C866 C864 1.327 . S
C866 C885 1.429 . S
C866 H890 0.950 . S
C867 C884 1.574 . S
C867 C886 1.368 . S
C867 H891 0.949 . S
H868 C872 0.949 . S
C869 C870 1.349 . S
C869 C871 1.327 . S
C869 H892 0.950 . S
C870 C869 1.349 . S
C870 C882 1.349 . S
C871 C869 1.327 . S
C871 C887 1.429 . S
C871 H893 0.950 . S
C872 H868 0.949 . S
C872 C880 1.574 . S
C872 C888 1.368 . S
H873 C881 0.950 . S
H874 C879 0.950 . S
H875 C880 0.949 . S
H876 C882 0.950 . S
H877 C883 0.950 . S
H878 C884 0.949 . S
C879 H874 0.950 . S
C879 C881 1.327 . S
C879 C885 1.429 . S
C880 C872 1.574 . S
C880 H875 0.949 . S
C880 C886 1.368 . S
C881 C865 1.349 . S
C881 H873 0.950 . S
C881 C879 1.327 . S
C882 C870 1.349 . S
C882 H876 0.950 . S
C882 C883 1.327 . S
C883 H877 0.950 . S
C883 C882 1.327 . S
C883 C887 1.429 . S
C884 C867 1.574 . S
C884 H878 0.949 . S
C884 C888 1.368 . S
C885 C866 1.429 . S
C885 C879 1.429 . S
C885 C886 1.523 . S
C886 C867 1.368 . S
C886 C880 1.368 . S
C886 C885 1.523 . S
C887 C871 1.429 . S
C887 C883 1.429 . S
C887 C888 1.523 . S
C888 C872 1.368 . S
C888 C884 1.368 . S
C888 C887 1.523 . S
H889 C864 0.950 . S
H890 C866 0.950 . S
H891 C867 0.949 . S
H892 C869 0.950 . S
H893 C871 0.950 . S
C894 C895 1.349 1_455 S
C894 C896 1.327 . S
C894 H919 0.950 . S
C895 C894 1.349 1_655 S
C895 C911 1.349 . S
C896 C894 1.327 . S
C896 C915 1.429 . S
C896 H920 0.950 . S
C897 C914 1.574 . S
C897 C916 1.368 . S
C897 H921 0.965 . S
H898 C902 0.949 . S
C899 C900 1.349 . S
C899 C901 1.327 . S
C899 H922 0.950 . S
C900 C899 1.349 . S
C900 C912 1.349 . S
C901 C899 1.327 . S
C901 C917 1.429 . S
C901 H923 0.950 . S
C902 H898 0.949 . S
C902 C910 1.574 . S
C902 C918 1.368 . S
H903 C911 0.950 . S
H904 C909 0.950 . S
H905 C910 0.949 . S
H906 C912 0.950 . S
H907 C913 0.950 . S
H908 C914 0.949 . S
C909 H904 0.950 . S
C909 C911 1.327 . S
C909 C915 1.429 1_655 S
C910 C902 1.574 . S
C910 H905 0.949 . S
C910 C916 1.368 . S
C911 C895 1.349 . S
C911 H903 0.950 . S
C911 C909 1.327 . S
C912 C900 1.349 . S
C912 H906 0.950 . S
C912 C913 1.327 . S
C913 H907 0.950 . S
C913 C912 1.327 . S
C913 C917 1.429 . S
C914 C897 1.574 . S
C914 H908 0.949 . S
C914 C918 1.368 . S
C915 C896 1.429 . S
C915 C909 1.429 1_455 S
C915 C916 1.523 . S
C916 C897 1.368 . S
C916 C910 1.368 . S
C916 C915 1.523 . S
C917 C901 1.429 . S
C917 C913 1.429 . S
C917 C918 1.523 . S
C918 C902 1.368 . S
C918 C914 1.368 . S
C918 C917 1.523 . S
H919 C894 0.950 . S
H920 C896 0.950 . S
H921 C897 0.965 . S
H922 C899 0.950 . S
H923 C901 0.950 . S
C924 C925 1.349 1_545 S
C924 C926 1.332 . S
C924 H949 0.944 1_545 S
C925 C924 1.349 1_565 S
C925 C941 1.349 . S
C926 C924 1.332 . S
C926 C945 1.429 . S
C926 H950 0.950 . S
C927 C944 1.574 . S
C927 C946 1.368 . S
C927 H951 0.949 . S
H928 C932 0.949 . S
C929 C930 1.349 . S
C929 C931 1.327 . S
C929 H952 0.950 . S
C930 C929 1.349 . S
C930 C942 1.349 . S
C931 C929 1.327 . S
C931 C947 1.429 . S
C931 H953 0.950 . S
C932 H928 0.949 . S
C932 C940 1.574 . S
C932 C948 1.368 . S
H933 C941 0.950 . S
H934 C939 0.950 . S
H935 C940 0.949 . S
H936 C942 0.950 . S
H937 C943 0.950 . S
H938 C944 0.949 . S
C939 H934 0.950 . S
C939 C941 1.327 1_545 S
C939 C945 1.429 . S
C940 C932 1.574 . S
C940 H935 0.949 . S
C940 C946 1.368 . S
C941 C925 1.349 . S
C941 H933 0.950 . S
C941 C939 1.327 1_565 S
C942 C930 1.349 . S
C942 H936 0.950 . S
C942 C943 1.327 . S
C943 H937 0.950 . S
C943 C942 1.327 . S
C943 C947 1.429 . S
C944 C927 1.574 . S
C944 H938 0.949 . S
C944 C948 1.368 . S
C945 C926 1.429 . S
C945 C939 1.429 . S
C945 C946 1.523 . S
C946 C927 1.368 . S
C946 C940 1.368 . S
C946 C945 1.523 . S
C947 C931 1.429 . S
C947 C943 1.429 . S
C947 C948 1.523 . S
C948 C932 1.368 . S
C948 C944 1.368 . S
C948 C947 1.523 . S
H949 C924 0.944 1_565 S
H950 C926 0.950 . S
H951 C927 0.949 . S
H952 C929 0.950 . S
H953 C931 0.950 . S
C954 C955 1.349 . S
C954 C956 1.327 . S
C954 H979 0.950 . S
C955 C954 1.349 . S
C955 C971 1.349 . S
C956 C954 1.327 . S
C956 C975 1.429 . S
C956 H980 0.950 . S
C957 C974 1.574 . S
C957 C976 1.368 . S
C957 H981 0.949 . S
H958 C962 0.949 . S
C959 C960 1.349 . S
C959 C961 1.327 . S
C959 H982 0.950 . S
C960 C959 1.349 . S
C960 C972 1.349 . S
C961 C959 1.327 . S
C961 C977 1.429 . S
C961 H983 0.950 . S
C962 H958 0.949 . S
C962 C970 1.574 . S
C962 C978 1.368 . S
H963 C971 0.950 . S
H964 C969 0.950 . S
H965 C970 0.949 . S
H966 C972 0.950 . S
H967 C973 0.950 . S
H968 C974 0.949 . S
C969 H964 0.950 . S
C969 C971 1.327 . S
C969 C975 1.429 . S
C970 C962 1.574 . S
C970 H965 0.949 . S
C970 C976 1.368 . S
C971 C955 1.349 . S
C971 H963 0.950 . S
C971 C969 1.327 . S
C972 C960 1.349 . S
C972 H966 0.950 . S
C972 C973 1.327 . S
C973 H967 0.950 . S
C973 C972 1.327 . S
C973 C977 1.429 . S
C974 C957 1.574 . S
C974 H968 0.949 . S
C974 C978 1.368 . S
C975 C956 1.429 . S
C975 C969 1.429 . S
C975 C976 1.523 . S
C976 C957 1.368 . S
C976 C970 1.368 . S
C976 C975 1.523 . S
C977 C961 1.429 . S
C977 C973 1.429 . S
C977 C978 1.523 . S
C978 C962 1.368 . S
C978 C974 1.368 . S
C978 C977 1.523 . S
H979 C954 0.950 . S
H980 C956 0.950 . S
H981 C957 0.949 . S
H982 C959 0.950 . S
H983 C961 0.950 . S
C984 C985 1.349 1_655 S
C984 C986 1.327 . S
C984 H1009 0.950 . S
C985 C984 1.349 1_455 S
C985 C1001 1.349 . S
C986 C984 1.327 . S
C986 C1005 1.429 . S
C986 H1010 0.950 . S
C987 C1004 1.574 . S
C987 C1006 1.368 . S
C987 H1011 0.949 . S
H988 C992 0.949 . S
C989 C990 1.349 . S
C989 C991 1.327 . S
C989 H1012 0.950 . S
C990 C989 1.349 . S
C990 C1002 1.349 . S
C991 C989 1.327 . S
C991 C1007 1.429 . S
C991 H1013 0.950 . S
C992 H988 0.949 . S
C992 C1000 1.574 . S
C992 C1008 1.368 . S
H993 C1001 0.950 . S
H994 C999 0.950 . S
H995 C1000 0.949 . S
H996 C1002 0.950 . S
H997 C1003 0.950 . S
H998 C1004 0.949 . S
C999 H994 0.950 . S
C999 C1001 1.327 . S
C999 C1005 1.429 1_455 S
C1000 C992 1.574 . S
C1000 H995 0.949 . S
C1000 C1006 1.368 . S
C1001 C985 1.349 . S
C1001 H993 0.950 . S
C1001 C999 1.327 . S
C1002 C990 1.349 . S
C1002 H996 0.950 . S
C1002 C1003 1.327 . S
C1003 H997 0.950 . S
C1003 C1002 1.327 . S
C1003 C1007 1.429 . S
C1004 C987 1.574 . S
C1004 H998 0.949 . S
C1004 C1008 1.368 . S
C1005 C986 1.429 . S
C1005 C999 1.429 1_655 S
C1005 C1006 1.523 . S
C1006 C987 1.368 . S
C1006 C1000 1.368 . S
C1006 C1005 1.523 . S
C1007 C991 1.429 . S
C1007 C1003 1.429 . S
C1007 C1008 1.523 . S
C1008 C992 1.368 . S
C1008 C1004 1.368 . S
C1008 C1007 1.523 . S
H1009 C984 0.950 . S
H1010 C986 0.950 . S
H1011 C987 0.949 . S
H1012 C989 0.950 . S
H1013 C991 0.950 . S
C1014 C1015 1.349 . S
C1014 C1016 1.327 . S
C1014 H1039 0.950 . S
C1015 C1014 1.349 . S
C1015 C1031 1.349 1_545 S
C1016 C1014 1.327 . S
C1016 C1035 1.429 1_545 S
C1016 H1040 0.950 . S
C1017 C1034 1.574 . S
C1017 C1036 1.368 . S
C1017 H1041 0.949 . S
H1018 C1022 0.949 . S
C1019 C1020 1.349 . S
C1019 C1021 1.327 . S
C1019 H1042 0.950 . S
C1020 C1019 1.349 . S
C1020 C1032 1.349 . S
C1021 C1019 1.327 . S
C1021 C1037 1.429 . S
C1021 H1043 0.950 . S
C1022 H1018 0.949 . S
C1022 C1030 1.574 . S
C1022 C1038 1.368 . S
H1023 C1031 0.950 . S
H1024 C1029 0.950 . S
H1025 C1030 0.966 . S
H1026 C1032 0.950 . S
H1027 C1033 0.950 . S
H1028 C1034 0.949 . S
C1029 H1024 0.950 . S
C1029 C1031 1.327 . S
C1029 C1035 1.429 . S
C1030 C1022 1.574 . S
C1030 H1025 0.966 . S
C1030 C1036 1.368 . S
C1031 C1015 1.349 1_565 S
C1031 H1023 0.950 . S
C1031 C1029 1.327 . S
C1032 C1020 1.349 . S
C1032 H1026 0.950 . S
C1032 C1033 1.327 . S
C1033 H1027 0.950 . S
C1033 C1032 1.327 . S
C1033 C1037 1.429 . S
C1034 C1017 1.574 . S
C1034 H1028 0.949 . S
C1034 C1038 1.368 . S
C1035 C1016 1.429 1_565 S
C1035 C1029 1.429 . S
C1035 C1036 1.523 . S
C1036 C1017 1.368 . S
C1036 C1030 1.368 . S
C1036 C1035 1.523 . S
C1037 C1021 1.429 . S
C1037 C1033 1.429 . S
C1037 C1038 1.523 . S
C1038 C1022 1.368 . S
C1038 C1034 1.368 . S
C1038 C1037 1.523 . S
H1039 C1014 0.950 . S
H1040 C1016 0.950 . S
H1041 C1017 0.949 . S
H1042 C1019 0.950 . S
H1043 C1021 0.950 . S
C505 C403 1.067 . S
C510 C69 0.936 . S
C535 C487 1.067 . S
C540 C153 0.936 . S
C565 C67 1.066 . S
C570 C237 0.936 . S
C595 C151 1.067 . S
C600 C321 0.936 . S
C625 C235 1.067 . S
C630 C405 0.936 . S
C655 C319 1.067 . S
C660 C489 0.936 . S
C685 C63 1.157 . S
C690 C315 1.157 . S
C715 C399 1.156 . S
C720 C147 1.156 . S
C745 C483 1.156 . S
C750 C231 1.156 . S
C775 C242 1.481 . S
C780 C494 1.481 . S
C805 C74 1.481 . S
C810 C326 1.481 . S
C835 C410 1.481 . S
C840 C158 1.481 . S
C865 C476 0.992 . S
C870 C58 0.943 . S
C895 C142 0.943 . S
C900 C56 0.992 . S
C925 C226 0.943 . S
C930 C140 0.992 . S
C955 C224 0.992 . S
C960 C310 0.943 . S
C985 C394 0.943 . S
C990 C308 0.992 . S
C1015 C478 0.943 . S
C1020 C392 0.992 . S
