# Generated by pormake.
# Topology lta, (4)-cn, num edge types: 1
# Building blocks:
#     Node 0, Type 0, BuildingBlock: GALJAG_clean_sbu_0, # of connection points: 4
#     Node 1, Type 0, BuildingBlock: GALJAG_clean_sbu_0, # of connection points: 4
#     Node 2, Type 0, BuildingBlock: GALJAG_clean_sbu_0, # of connection points: 4
#     Node 3, Type 0, BuildingBlock: GALJAG_clean_sbu_0, # of connection points: 4
#     Node 4, Type 0, BuildingBlock: GALJAG_clean_sbu_0, # of connection points: 4
#     Node 5, Type 0, BuildingBlock: GALJAG_clean_sbu_0, # of connection points: 4
#     Node 6, Type 0, BuildingBlock: GALJAG_clean_sbu_0, # of connection points: 4
#     Node 7, Type 0, BuildingBlock: GALJAG_clean_sbu_0, # of connection points: 4
#     Node 8, Type 0, BuildingBlock: GALJAG_clean_sbu_0, # of connection points: 4
#     Node 9, Type 0, BuildingBlock: GALJAG_clean_sbu_0, # of connection points: 4
#     Node 10, Type 0, BuildingBlock: GALJAG_clean_sbu_0, # of connection points: 4
#     Node 11, Type 0, BuildingBlock: GALJAG_clean_sbu_0, # of connection points: 4
#     Node 12, Type 0, BuildingBlock: GALJAG_clean_sbu_0, # of connection points: 4
#     Node 13, Type 0, BuildingBlock: GALJAG_clean_sbu_0, # of connection points: 4
#     Node 14, Type 0, BuildingBlock: GALJAG_clean_sbu_0, # of connection points: 4
#     Node 15, Type 0, BuildingBlock: GALJAG_clean_sbu_0, # of connection points: 4
#     Node 16, Type 0, BuildingBlock: GALJAG_clean_sbu_0, # of connection points: 4
#     Node 17, Type 0, BuildingBlock: GALJAG_clean_sbu_0, # of connection points: 4
#     Node 18, Type 0, BuildingBlock: GALJAG_clean_sbu_0, # of connection points: 4
#     Node 19, Type 0, BuildingBlock: GALJAG_clean_sbu_0, # of connection points: 4
#     Node 20, Type 0, BuildingBlock: GALJAG_clean_sbu_0, # of connection points: 4
#     Node 21, Type 0, BuildingBlock: GALJAG_clean_sbu_0, # of connection points: 4
#     Node 22, Type 0, BuildingBlock: GALJAG_clean_sbu_0, # of connection points: 4
#     Node 23, Type 0, BuildingBlock: GALJAG_clean_sbu_0, # of connection points: 4
#     Edge 24, Type (0, 0), BuildingBlock: OJICUG_clean_linker_0, # of connection points: 2
#     Edge 25, Type (0, 0), BuildingBlock: OJICUG_clean_linker_0, # of connection points: 2
#     Edge 26, Type (0, 0), BuildingBlock: OJICUG_clean_linker_0, # of connection points: 2
#     Edge 27, Type (0, 0), BuildingBlock: OJICUG_clean_linker_0, # of connection points: 2
#     Edge 28, Type (0, 0), BuildingBlock: OJICUG_clean_linker_0, # of connection points: 2
#     Edge 29, Type (0, 0), BuildingBlock: OJICUG_clean_linker_0, # of connection points: 2
#     Edge 30, Type (0, 0), BuildingBlock: OJICUG_clean_linker_0, # of connection points: 2
#     Edge 31, Type (0, 0), BuildingBlock: OJICUG_clean_linker_0, # of connection points: 2
#     Edge 32, Type (0, 0), BuildingBlock: OJICUG_clean_linker_0, # of connection points: 2
#     Edge 33, Type (0, 0), BuildingBlock: OJICUG_clean_linker_0, # of connection points: 2
#     Edge 34, Type (0, 0), BuildingBlock: OJICUG_clean_linker_0, # of connection points: 2
#     Edge 35, Type (0, 0), BuildingBlock: OJICUG_clean_linker_0, # of connection points: 2
#     Edge 36, Type (0, 0), BuildingBlock: OJICUG_clean_linker_0, # of connection points: 2
#     Edge 37, Type (0, 0), BuildingBlock: OJICUG_clean_linker_0, # of connection points: 2
#     Edge 38, Type (0, 0), BuildingBlock: OJICUG_clean_linker_0, # of connection points: 2
#     Edge 39, Type (0, 0), BuildingBlock: OJICUG_clean_linker_0, # of connection points: 2
#     Edge 40, Type (0, 0), BuildingBlock: OJICUG_clean_linker_0, # of connection points: 2
#     Edge 41, Type (0, 0), BuildingBlock: OJICUG_clean_linker_0, # of connection points: 2
#     Edge 42, Type (0, 0), BuildingBlock: OJICUG_clean_linker_0, # of connection points: 2
#     Edge 43, Type (0, 0), BuildingBlock: OJICUG_clean_linker_0, # of connection points: 2
#     Edge 44, Type (0, 0), BuildingBlock: OJICUG_clean_linker_0, # of connection points: 2
#     Edge 45, Type (0, 0), BuildingBlock: OJICUG_clean_linker_0, # of connection points: 2
#     Edge 46, Type (0, 0), BuildingBlock: OJICUG_clean_linker_0, # of connection points: 2
#     Edge 47, Type (0, 0), BuildingBlock: OJICUG_clean_linker_0, # of connection points: 2
#     Edge 48, Type (0, 0), BuildingBlock: OJICUG_clean_linker_0, # of connection points: 2
#     Edge 49, Type (0, 0), BuildingBlock: OJICUG_clean_linker_0, # of connection points: 2
#     Edge 50, Type (0, 0), BuildingBlock: OJICUG_clean_linker_0, # of connection points: 2
#     Edge 51, Type (0, 0), BuildingBlock: OJICUG_clean_linker_0, # of connection points: 2
#     Edge 52, Type (0, 0), BuildingBlock: OJICUG_clean_linker_0, # of connection points: 2
#     Edge 53, Type (0, 0), BuildingBlock: OJICUG_clean_linker_0, # of connection points: 2
#     Edge 54, Type (0, 0), BuildingBlock: OJICUG_clean_linker_0, # of connection points: 2
#     Edge 55, Type (0, 0), BuildingBlock: OJICUG_clean_linker_0, # of connection points: 2
#     Edge 56, Type (0, 0), BuildingBlock: OJICUG_clean_linker_0, # of connection points: 2
#     Edge 57, Type (0, 0), BuildingBlock: OJICUG_clean_linker_0, # of connection points: 2
#     Edge 58, Type (0, 0), BuildingBlock: OJICUG_clean_linker_0, # of connection points: 2
#     Edge 59, Type (0, 0), BuildingBlock: OJICUG_clean_linker_0, # of connection points: 2
#     Edge 60, Type (0, 0), BuildingBlock: OJICUG_clean_linker_0, # of connection points: 2
#     Edge 61, Type (0, 0), BuildingBlock: OJICUG_clean_linker_0, # of connection points: 2
#     Edge 62, Type (0, 0), BuildingBlock: OJICUG_clean_linker_0, # of connection points: 2
#     Edge 63, Type (0, 0), BuildingBlock: OJICUG_clean_linker_0, # of connection points: 2
#     Edge 64, Type (0, 0), BuildingBlock: OJICUG_clean_linker_0, # of connection points: 2
#     Edge 65, Type (0, 0), BuildingBlock: OJICUG_clean_linker_0, # of connection points: 2
#     Edge 66, Type (0, 0), BuildingBlock: OJICUG_clean_linker_0, # of connection points: 2
#     Edge 67, Type (0, 0), BuildingBlock: OJICUG_clean_linker_0, # of connection points: 2
#     Edge 68, Type (0, 0), BuildingBlock: OJICUG_clean_linker_0, # of connection points: 2
#     Edge 69, Type (0, 0), BuildingBlock: OJICUG_clean_linker_0, # of connection points: 2
#     Edge 70, Type (0, 0), BuildingBlock: OJICUG_clean_linker_0, # of connection points: 2
#     Edge 71, Type (0, 0), BuildingBlock: OJICUG_clean_linker_0, # of connection points: 2
# Relax obj value: 0.417
# Max RMSD: 0.230
# Mean RMSD: 0.230
data_MOF--net-lta--node1-GALJAG_clean_sbu_0--edge1-OJICUG_clean_linker_0
_symmetry_space_group_name_H-M    P1
_symmetry_Int_Tables_number       1
_symmetry_cell_setting            triclinic
loop_
_symmetry_equiv_pos_as_xyz
'x, y, z'
_cell_length_a     41.929251
_cell_length_b     41.934733
_cell_length_c     41.94104
_cell_angle_alpha  89.877125
_cell_angle_beta   90.224518
_cell_angle_gamma 89.896287
loop_
_atom_site_label
_atom_site_type_symbol
_atom_site_fract_x
_atom_site_fract_y
_atom_site_fract_z
_atom_type_partial_charge
In0 In 0.11612 0.30448 0.49323 0.0
O1 O 0.14611 0.33811 0.52338 0.0
O2 O 0.10378 0.31918 0.54383 0.0
C3 C 0.13279 0.33962 0.44224 0.0
C4 C 0.14979 0.24972 0.49223 0.0
C5 C 0.05217 0.3013 0.49008 0.0
O6 O 0.14505 0.34376 0.46943 0.0
O7 O 0.11277 0.31727 0.44069 0.0
O8 O 0.06904 0.27676 0.49485 0.0
O9 O 0.0676 0.32689 0.48726 0.0
C10 C 0.12759 0.3373 0.54702 0.0
O11 O 0.14336 0.26413 0.5177 0.0
O12 O 0.13872 0.26256 0.46743 0.0
In13 In 0.66823 0.11992 0.49079 0.0
O14 O 0.63375 0.15157 0.5183 0.0
O15 O 0.65742 0.11433 0.54347 0.0
C16 C 0.63111 0.12902 0.43914 0.0
C17 C 0.72209 0.15469 0.4872 0.0
C18 C 0.6724 0.05602 0.49328 0.0
O19 O 0.62816 0.14534 0.46421 0.0
O20 O 0.65326 0.10861 0.43991 0.0
O21 O 0.69658 0.07319 0.48817 0.0
O22 O 0.6467 0.07114 0.49693 0.0
C23 C 0.63745 0.13683 0.54432 0.0
O24 O 0.71295 0.14179 0.51267 0.0
O25 O 0.70442 0.14958 0.46347 0.0
In26 In 0.85678 0.6731 0.48001 0.0
O27 O 0.83392 0.7148 0.50593 0.0
O28 O 0.82924 0.71338 0.45568 0.0
C29 C 0.9207 0.67626 0.48354 0.0
C30 C 0.8404 0.63785 0.531 0.0
C31 C 0.84581 0.64055 0.42597 0.0
O32 O 0.90391 0.70075 0.47818 0.0
O33 O 0.90521 0.65076 0.48669 0.0
O34 O 0.82712 0.63946 0.44949 0.0
O35 O 0.86947 0.65881 0.42943 0.0
C36 C 0.82276 0.72768 0.4812 0.0
O37 O 0.82863 0.63315 0.50368 0.0
O38 O 0.85967 0.66084 0.53266 0.0
In39 In 0.30383 0.85701 0.48675 0.0
O40 O 0.34095 0.82864 0.51467 0.0
O41 O 0.31899 0.86814 0.53761 0.0
C42 C 0.33621 0.84024 0.43415 0.0
C43 C 0.24916 0.82345 0.48847 0.0
C44 C 0.30018 0.92092 0.48392 0.0
O45 O 0.33978 0.82601 0.46047 0.0
O46 O 0.31577 0.86234 0.43427 0.0
O47 O 0.27568 0.90387 0.48768 0.0
O48 O 0.326 0.90569 0.48181 0.0
C49 C 0.33913 0.8458 0.53929 0.0
O50 O 0.26437 0.83089 0.51326 0.0
O51 O 0.26121 0.83338 0.46291 0.0
In52 In 0.12171 0.67029 0.48886 0.0
O53 O 0.15282 0.63727 0.45891 0.0
O54 O 0.10967 0.65475 0.4385 0.0
C55 C 0.13677 0.63529 0.54065 0.0
C56 C 0.15495 0.72518 0.48925 0.0
C57 C 0.05778 0.67485 0.49008 0.0
O58 O 0.14932 0.63047 0.51377 0.0
O59 O 0.11722 0.65818 0.54146 0.0
O60 O 0.07526 0.69907 0.48652 0.0
O61 O 0.07261 0.64888 0.49322 0.0
C62 C 0.13408 0.63746 0.43526 0.0
O63 O 0.14712 0.71086 0.51439 0.0
O64 O 0.14586 0.71197 0.46391 0.0
In65 In 0.30297 0.12203 0.4807 0.0
O66 O 0.33703 0.15362 0.45253 0.0
O67 O 0.31369 0.11591 0.42804 0.0
C68 C 0.33977 0.13207 0.53231 0.0
C69 C 0.24833 0.15562 0.48532 0.0
C70 C 0.29954 0.05807 0.4795 0.0
O71 O 0.34251 0.14835 0.5071 0.0
O72 O 0.31807 0.11128 0.5316 0.0
O73 O 0.27498 0.0752 0.48284 0.0
O74 O 0.32525 0.07327 0.47662 0.0
C75 C 0.33344 0.13853 0.42676 0.0
O76 O 0.26599 0.14974 0.5089 0.0
O77 O 0.25807 0.14441 0.4593 0.0
In78 In 0.85108 0.30709 0.48642 0.0
O79 O 0.82512 0.34791 0.46143 0.0
O80 O 0.85659 0.31918 0.43397 0.0
C81 C 0.83868 0.33925 0.54043 0.0
C82 C 0.81669 0.25286 0.48532 0.0
C83 C 0.91501 0.30249 0.48476 0.0
O84 O 0.82027 0.3403 0.51655 0.0
O85 O 0.86259 0.3213 0.53726 0.0
O86 O 0.89752 0.27807 0.4866 0.0
O87 O 0.90018 0.32859 0.48352 0.0
C88 C 0.83787 0.34277 0.43468 0.0
O89 O 0.82893 0.26369 0.51049 0.0
O90 O 0.82201 0.26919 0.46074 0.0
In91 In 0.66923 0.85489 0.49267 0.0
O92 O 0.71331 0.83139 0.51448 0.0
O93 O 0.7074 0.8289 0.46438 0.0
C94 C 0.67292 0.91881 0.49516 0.0
C95 C 0.63303 0.84481 0.44065 0.0
C96 C 0.63756 0.83788 0.54576 0.0
O97 O 0.69733 0.90168 0.49089 0.0
O98 O 0.64721 0.90364 0.49823 0.0
O99 O 0.63351 0.82396 0.51941 0.0
O100 O 0.65835 0.85958 0.5455 0.0
C101 C 0.7241 0.82166 0.48829 0.0
O102 O 0.63198 0.82682 0.4648 0.0
O103 O 0.65274 0.86742 0.4426 0.0
In104 In 0.48441 0.11859 0.3028 0.0
O105 O 0.46409 0.13943 0.25673 0.0
O106 O 0.51308 0.1469 0.26658 0.0
C107 C 0.48231 0.05461 0.29973 0.0
C108 C 0.53513 0.12821 0.34105 0.0
C109 C 0.43016 0.13658 0.3319 0.0
O110 O 0.48775 0.07149 0.27539 0.0
O111 O 0.47798 0.07006 0.32508 0.0
O112 O 0.4561 0.15135 0.33558 0.0
O113 O 0.43144 0.11348 0.31275 0.0
C114 C 0.49 0.15161 0.24791 0.0
O115 O 0.5101 0.14488 0.34277 0.0
O116 O 0.53478 0.10716 0.3196 0.0
In117 In 0.8583 0.48784 0.30021 0.0
O118 O 0.83376 0.46201 0.25925 0.0
O119 O 0.83478 0.51247 0.25769 0.0
C120 C 0.92226 0.48414 0.29813 0.0
C121 C 0.84676 0.54267 0.33126 0.0
C122 C 0.84126 0.43761 0.33637 0.0
O123 O 0.90571 0.48735 0.27311 0.0
O124 O 0.90651 0.48282 0.3236 0.0
O125 O 0.82912 0.46493 0.33988 0.0
O126 O 0.86122 0.43551 0.31404 0.0
C127 C 0.82599 0.48702 0.24453 0.0
O128 O 0.82763 0.51945 0.33193 0.0
O129 O 0.87116 0.53844 0.31427 0.0
In130 In 0.48519 0.85351 0.30624 0.0
O131 O 0.46276 0.83008 0.26266 0.0
O132 O 0.51262 0.82503 0.26919 0.0
C133 C 0.48293 0.91739 0.30143 0.0
C134 C 0.43195 0.83761 0.33805 0.0
C135 C 0.53698 0.84382 0.34294 0.0
O136 O 0.48799 0.89996 0.27743 0.0
O137 O 0.47913 0.90252 0.32725 0.0
O138 O 0.51253 0.82639 0.34467 0.0
O139 O 0.53551 0.86561 0.32218 0.0
C140 C 0.4885 0.8185 0.25256 0.0
O141 O 0.45823 0.82358 0.3426 0.0
O142 O 0.43237 0.85885 0.31672 0.0
In143 In 0.12322 0.48611 0.3081 0.0
O144 O 0.14888 0.46236 0.34978 0.0
O145 O 0.11793 0.43393 0.32131 0.0
C146 C 0.13521 0.54063 0.33961 0.0
C147 C 0.15877 0.48358 0.25485 0.0
C148 C 0.05943 0.48357 0.30222 0.0
O149 O 0.15359 0.51679 0.34119 0.0
O150 O 0.11143 0.53717 0.32145 0.0
O151 O 0.07731 0.48574 0.27815 0.0
O152 O 0.07379 0.48276 0.32863 0.0
C153 C 0.13641 0.43538 0.34508 0.0
O154 O 0.14717 0.50923 0.2652 0.0
O155 O 0.15204 0.45927 0.27104 0.0
In156 In 0.48763 0.85468 0.67258 0.0
O157 O 0.51048 0.83272 0.71695 0.0
O158 O 0.46068 0.82713 0.71071 0.0
C159 C 0.48895 0.91871 0.67524 0.0
C160 C 0.54094 0.83804 0.64112 0.0
C161 C 0.4354 0.84419 0.63673 0.0
O162 O 0.48474 0.90191 0.69989 0.0
O163 O 0.4926 0.90317 0.64986 0.0
O164 O 0.4601 0.82704 0.63475 0.0
O165 O 0.43685 0.86601 0.65734 0.0
C166 C 0.48487 0.82139 0.72758 0.0
O167 O 0.51478 0.8237 0.6372 0.0
O168 O 0.54034 0.86003 0.66158 0.0
In169 In 0.11869 0.48965 0.67391 0.0
O170 O 0.14336 0.46362 0.7149 0.0
O171 O 0.14283 0.51408 0.71606 0.0
C172 C 0.05474 0.49404 0.67586 0.0
C173 C 0.13627 0.54045 0.6388 0.0
C174 C 0.12887 0.43518 0.64186 0.0
O175 O 0.07117 0.49022 0.70089 0.0
O176 O 0.07059 0.49559 0.65048 0.0
O177 O 0.1051 0.43929 0.65975 0.0
O178 O 0.14805 0.45835 0.64073 0.0
C179 C 0.15152 0.48857 0.72935 0.0
O180 O 0.1481 0.51308 0.63468 0.0
O181 O 0.11649 0.54231 0.6613 0.0
In182 In 0.48604 0.11989 0.6685 0.0
O183 O 0.50814 0.14058 0.71352 0.0
O184 O 0.4592 0.14988 0.70481 0.0
C185 C 0.48681 0.05594 0.6728 0.0
C186 C 0.43532 0.13087 0.63061 0.0
C187 C 0.54034 0.13616 0.6387 0.0
O188 O 0.48212 0.07333 0.69688 0.0
O189 O 0.49085 0.07087 0.64703 0.0
O190 O 0.51481 0.15181 0.63534 0.0
O191 O 0.5386 0.11291 0.65772 0.0
C192 C 0.48298 0.15405 0.72268 0.0
O193 O 0.46109 0.14611 0.62795 0.0
O194 O 0.43491 0.11057 0.65287 0.0
In195 In 0.85377 0.49186 0.6656 0.0
O196 O 0.83198 0.46849 0.70941 0.0
O197 O 0.82391 0.51792 0.70242 0.0
C198 C 0.91757 0.49512 0.67133 0.0
C199 C 0.84091 0.43711 0.63484 0.0
C200 C 0.8396 0.54214 0.62831 0.0
O201 O 0.89969 0.49319 0.6954 0.0
O202 O 0.90321 0.49541 0.6449 0.0
O203 O 0.82832 0.51471 0.62336 0.0
O204 O 0.85751 0.5443 0.65247 0.0
C205 C 0.81896 0.49363 0.71931 0.0
O206 O 0.82214 0.46067 0.63423 0.0
O207 O 0.86568 0.441 0.65152 0.0
In208 In 0.31065 0.48223 0.12547 0.0
O209 O 0.26826 0.5065 0.14886 0.0
O210 O 0.2726 0.45646 0.15433 0.0
C211 C 0.30288 0.48871 0.06212 0.0
C212 C 0.34696 0.53176 0.14425 0.0
C213 C 0.34412 0.42786 0.13169 0.0
O214 O 0.28083 0.4784 0.07974 0.0
O215 O 0.3284 0.4955 0.0765 0.0
O216 O 0.34309 0.44862 0.15345 0.0
O217 O 0.32765 0.43426 0.10724 0.0
C218 C 0.25696 0.4813 0.1605 0.0
O219 O 0.35355 0.5033 0.15152 0.0
O220 O 0.32165 0.53522 0.12828 0.0
In221 In 0.30121 0.48825 0.86133 0.0
O222 O 0.33349 0.45703 0.83091 0.0
O223 O 0.31977 0.43961 0.87652 0.0
C224 C 0.33558 0.53926 0.84322 0.0
C225 C 0.24615 0.48745 0.82791 0.0
C226 C 0.29759 0.49234 0.92518 0.0
O227 O 0.34129 0.5115 0.83317 0.0
O228 O 0.31198 0.54135 0.86166 0.0
O229 O 0.27408 0.48347 0.90851 0.0
O230 O 0.32228 0.49908 0.90959 0.0
C231 C 0.33564 0.43505 0.85144 0.0
O232 O 0.26109 0.46242 0.83522 0.0
O233 O 0.2586 0.51276 0.838 0.0
In234 In 0.48804 0.30582 0.8518 0.0
O235 O 0.5103 0.26201 0.82892 0.0
O236 O 0.46043 0.26843 0.82374 0.0
C237 C 0.49621 0.29942 0.91508 0.0
C238 C 0.53767 0.34086 0.83102 0.0
C239 C 0.43387 0.33985 0.84683 0.0
O240 O 0.48656 0.27663 0.89797 0.0
O241 O 0.50146 0.32502 0.90024 0.0
O242 O 0.45451 0.33923 0.82499 0.0
O243 O 0.4403 0.32278 0.87085 0.0
C244 C 0.48451 0.25164 0.81763 0.0
O245 O 0.50925 0.34678 0.82304 0.0
O246 O 0.54109 0.31672 0.84868 0.0
In247 In 0.6674 0.48834 0.8487 0.0
O248 O 0.63323 0.5211 0.82176 0.0
O249 O 0.64973 0.53589 0.86744 0.0
C250 C 0.63279 0.43777 0.82945 0.0
C251 C 0.7211 0.49167 0.81387 0.0
C252 C 0.67512 0.48174 0.91199 0.0
O253 O 0.6263 0.46592 0.82096 0.0
O254 O 0.65724 0.43512 0.84684 0.0
O255 O 0.69725 0.4919 0.89436 0.0
O256 O 0.64954 0.47511 0.89763 0.0
C257 C 0.6324 0.54188 0.8435 0.0
O258 O 0.711 0.46598 0.82556 0.0
O259 O 0.70424 0.51574 0.81986 0.0
In260 In 0.48161 0.67168 0.85938 0.0
O261 O 0.50705 0.71374 0.83623 0.0
O262 O 0.4567 0.71185 0.83252 0.0
C263 C 0.47706 0.67637 0.92314 0.0
C264 C 0.43103 0.63621 0.84225 0.0
C265 C 0.53536 0.63819 0.84897 0.0
O266 O 0.48459 0.7 0.90606 0.0
O267 O 0.47181 0.65101 0.908 0.0
O268 O 0.51355 0.64066 0.82827 0.0
O269 O 0.53031 0.65321 0.87448 0.0
C270 C 0.48194 0.72643 0.82562 0.0
O271 O 0.45883 0.63063 0.83223 0.0
O272 O 0.42868 0.66024 0.86016 0.0
In273 In 0.67653 0.48469 0.11267 0.0
O274 O 0.71804 0.46009 0.13774 0.0
O275 O 0.71792 0.51059 0.13659 0.0
C276 C 0.68015 0.47962 0.0489 0.0
C277 C 0.64167 0.4341 0.13097 0.0
C278 C 0.643 0.5384 0.12294 0.0
O279 O 0.70388 0.48797 0.06551 0.0
O280 O 0.65521 0.47393 0.06451 0.0
O281 O 0.64576 0.51679 0.14379 0.0
O282 O 0.65775 0.53317 0.09731 0.0
C283 C 0.73172 0.48551 0.14578 0.0
O284 O 0.63572 0.46208 0.14029 0.0
O285 O 0.66574 0.43161 0.11318 0.0
In286 In 0.49019 0.66634 0.12333 0.0
O287 O 0.46585 0.70877 0.14665 0.0
O288 O 0.51597 0.7048 0.15177 0.0
C289 C 0.48212 0.67331 0.06006 0.0
C290 C 0.54527 0.63385 0.12851 0.0
C291 C 0.44182 0.62921 0.14338 0.0
O292 O 0.49247 0.69572 0.07726 0.0
O293 O 0.47609 0.64784 0.07481 0.0
O294 O 0.47056 0.62331 0.15016 0.0
O295 O 0.43749 0.65429 0.12731 0.0
C296 C 0.49108 0.72031 0.15805 0.0
O297 O 0.52499 0.63468 0.1507 0.0
O298 O 0.53805 0.65005 0.10413 0.0
In299 In 0.4964 0.30057 0.11569 0.0
O300 O 0.46366 0.33032 0.14725 0.0
O301 O 0.44726 0.31796 0.10088 0.0
C302 C 0.54648 0.33683 0.13249 0.0
C303 C 0.4964 0.24586 0.14946 0.0
C304 C 0.50164 0.29629 0.05196 0.0
O305 O 0.51849 0.34253 0.14193 0.0
O306 O 0.54928 0.31229 0.11533 0.0
O307 O 0.49573 0.27216 0.06899 0.0
O308 O 0.50503 0.32193 0.06714 0.0
C309 C 0.44179 0.33247 0.12659 0.0
O310 O 0.47165 0.25691 0.13642 0.0
O311 O 0.52121 0.26205 0.14497 0.0
C312 C 0.1235 0.38008 0.36251 0.0
C313 C 0.14012 0.40867 0.36763 0.0
H314 H 0.10843 0.33554 0.38218 0.0
C315 C 0.15761 0.41259 0.39597 0.0
H316 H 0.10996 0.37635 0.34079 0.0
C317 C 0.15676 0.38918 0.41968 0.0
C318 C 0.13838 0.36154 0.41538 0.0
H319 H 0.17074 0.43435 0.40047 0.0
H320 H 0.16924 0.39344 0.44193 0.0
C321 C 0.12262 0.35672 0.3862 0.0
C322 C 0.58279 0.1529 0.41345 0.0
C323 C 0.60867 0.13163 0.41212 0.0
H324 H 0.53921 0.16863 0.39175 0.0
C325 C 0.61157 0.11118 0.38581 0.0
H326 H 0.58 0.16897 0.43343 0.0
C327 C 0.58823 0.11097 0.36199 0.0
C328 C 0.56161 0.13122 0.36405 0.0
H329 H 0.63132 0.0946 0.38413 0.0
H330 H 0.59055 0.09423 0.34249 0.0
C331 C 0.55946 0.15271 0.3896 0.0
C332 C 0.86599 0.61894 0.37451 0.0
C333 C 0.84257 0.61911 0.39835 0.0
H334 H 0.88547 0.59462 0.33426 0.0
C335 C 0.8181 0.59629 0.39736 0.0
H336 H 0.88504 0.63635 0.37458 0.0
C337 C 0.81832 0.57237 0.37423 0.0
C338 C 0.84305 0.57091 0.35178 0.0
H339 H 0.79965 0.59596 0.41537 0.0
H340 H 0.80006 0.55415 0.37494 0.0
C341 C 0.86623 0.59503 0.35143 0.0
C342 C 0.35366 0.85287 0.37884 0.0
C343 C 0.35722 0.83453 0.40668 0.0
H344 H 0.37453 0.86785 0.33487 0.0
C345 C 0.38322 0.81353 0.40939 0.0
H346 H 0.3337 0.86908 0.376 0.0
C347 C 0.40664 0.81282 0.38581 0.0
C348 C 0.40435 0.83309 0.35919 0.0
H349 H 0.38644 0.79897 0.43053 0.0
H350 H 0.42738 0.79776 0.38934 0.0
C351 C 0.37703 0.85214 0.35527 0.0
C352 C 0.15949 0.56239 0.58857 0.0
C353 C 0.14153 0.56703 0.61639 0.0
H354 H 0.17226 0.58067 0.54266 0.0
C355 C 0.12548 0.59611 0.62074 0.0
H356 H 0.17218 0.54023 0.58464 0.0
C357 C 0.12549 0.6192 0.59673 0.0
C358 C 0.14157 0.61361 0.56797 0.0
H359 H 0.11159 0.60043 0.64203 0.0
H360 H 0.11165 0.64076 0.60013 0.0
C361 C 0.15951 0.58552 0.56454 0.0
C362 C 0.35848 0.11531 0.58631 0.0
C363 C 0.36201 0.13499 0.55942 0.0
H364 H 0.3789 0.0988 0.63016 0.0
C365 C 0.38833 0.15556 0.55763 0.0
H366 H 0.33833 0.09931 0.58838 0.0
C367 C 0.41158 0.15524 0.58157 0.0
C368 C 0.40884 0.13438 0.60766 0.0
H369 H 0.39159 0.17103 0.5372 0.0
H370 H 0.43224 0.1705 0.57904 0.0
C371 C 0.38169 0.11502 0.61023 0.0
C372 C 0.85877 0.3839 0.61556 0.0
C373 C 0.83643 0.40885 0.61451 0.0
H374 H 0.87666 0.3419 0.59303 0.0
C375 C 0.81199 0.40815 0.59151 0.0
H376 H 0.87772 0.3837 0.63319 0.0
C377 C 0.8114 0.38417 0.56842 0.0
C378 C 0.8352 0.36058 0.56808 0.0
H379 H 0.79436 0.42703 0.59028 0.0
H380 H 0.79335 0.38513 0.54989 0.0
C381 C 0.85814 0.35995 0.59256 0.0
C382 C 0.59622 0.85146 0.62409 0.0
C383 C 0.56868 0.83281 0.62027 0.0
H384 H 0.63999 0.86734 0.60351 0.0
C385 C 0.56643 0.81214 0.59405 0.0
H386 H 0.5987 0.86744 0.6442 0.0
C387 C 0.59012 0.81208 0.57071 0.0
C388 C 0.61638 0.83269 0.57327 0.0
H389 H 0.54554 0.79737 0.5906 0.0
H390 H 0.58691 0.79728 0.54981 0.0
C391 C 0.61987 0.85139 0.60079 0.0
C392 C 0.37998 0.16479 0.40065 0.0
C393 C 0.35426 0.14345 0.39894 0.0
H394 H 0.4243 0.17962 0.38028 0.0
C395 C 0.35119 0.12365 0.37214 0.0
H396 H 0.38283 0.18046 0.42096 0.0
C397 C 0.3749 0.12316 0.3489 0.0
C398 C 0.40205 0.14247 0.35207 0.0
H399 H 0.33146 0.10713 0.37006 0.0
H400 H 0.37285 0.10628 0.32948 0.0
C401 C 0.40372 0.16431 0.37736 0.0
C402 C 0.81657 0.39305 0.41052 0.0
C403 C 0.83414 0.36468 0.40739 0.0
H404 H 0.80481 0.43846 0.39015 0.0
C405 C 0.85079 0.35894 0.37898 0.0
H406 H 0.80342 0.39804 0.43213 0.0
C407 C 0.85158 0.38203 0.355 0.0
C408 C 0.83573 0.41126 0.359 0.0
H409 H 0.86439 0.33719 0.37583 0.0
H410 H 0.86579 0.37752 0.33396 0.0
C411 C 0.81735 0.41617 0.38649 0.0
C412 C 0.5631 0.81849 0.39028 0.0
C413 C 0.56387 0.84103 0.36548 0.0
H414 H 0.5847 0.80187 0.43359 0.0
C415 C 0.58929 0.86272 0.36396 0.0
H416 H 0.5438 0.80143 0.39196 0.0
C417 C 0.61261 0.86299 0.38776 0.0
C418 C 0.61095 0.84155 0.41346 0.0
H419 H 0.59055 0.88028 0.34503 0.0
H420 H 0.63132 0.88074 0.38658 0.0
C421 C 0.58649 0.81873 0.41409 0.0
C422 C 0.16237 0.59307 0.40743 0.0
C423 C 0.13815 0.61625 0.40761 0.0
H424 H 0.18061 0.55084 0.38533 0.0
C425 C 0.11564 0.61677 0.38274 0.0
H426 H 0.1801 0.59221 0.42626 0.0
C427 C 0.11595 0.59318 0.35936 0.0
C428 C 0.13875 0.56864 0.36047 0.0
H429 H 0.09684 0.63451 0.38214 0.0
H430 H 0.09736 0.59331 0.34135 0.0
C431 C 0.16266 0.56941 0.38401 0.0
C432 C 0.35916 0.86309 0.59257 0.0
C433 C 0.36106 0.84211 0.5666 0.0
H434 H 0.38116 0.87994 0.63541 0.0
C435 C 0.38578 0.81948 0.5657 0.0
H436 H 0.34026 0.88068 0.59396 0.0
C437 C 0.40923 0.81906 0.58945 0.0
C438 C 0.4083 0.84126 0.61446 0.0
H439 H 0.38775 0.80295 0.546 0.0
H440 H 0.42875 0.80223 0.5875 0.0
C441 C 0.38257 0.86265 0.61631 0.0
C442 C 0.15622 0.4054 0.59825 0.0
C443 C 0.13186 0.40704 0.62108 0.0
H444 H 0.17412 0.38164 0.55688 0.0
C445 C 0.10844 0.38315 0.62173 0.0
H446 H 0.17465 0.42344 0.5973 0.0
C447 C 0.10814 0.35925 0.59864 0.0
C448 C 0.13125 0.35885 0.57451 0.0
H449 H 0.08948 0.38372 0.63919 0.0
H450 H 0.08894 0.342 0.59884 0.0
C451 C 0.15591 0.38148 0.57513 0.0
C452 C 0.56718 0.16345 0.5932 0.0
C453 C 0.56852 0.14153 0.61855 0.0
H454 H 0.58845 0.17939 0.54969 0.0
C455 C 0.59543 0.12183 0.62192 0.0
H456 H 0.54678 0.17906 0.59016 0.0
C457 C 0.61927 0.12207 0.59883 0.0
C458 C 0.61654 0.14196 0.57198 0.0
H459 H 0.59722 0.10491 0.6414 0.0
H460 H 0.63883 0.10528 0.60106 0.0
C461 C 0.59103 0.16364 0.57005 0.0
C462 C 0.85064 0.59789 0.61089 0.0
C463 C 0.83514 0.5687 0.60569 0.0
H464 H 0.86414 0.64296 0.59125 0.0
C465 C 0.81796 0.56412 0.57726 0.0
H466 H 0.8639 0.60214 0.63269 0.0
C467 C 0.81806 0.58753 0.55353 0.0
C468 C 0.83536 0.61583 0.5579 0.0
H469 H 0.80567 0.54188 0.57271 0.0
H470 H 0.80588 0.58278 0.53122 0.0
C471 C 0.85076 0.62126 0.58718 0.0
C472 C 0.38703 0.39622 0.15867 0.0
C473 C 0.36569 0.4001 0.13305 0.0
H474 H 0.42794 0.37136 0.17683 0.0
C475 C 0.36728 0.37902 0.10714 0.0
H476 H 0.38625 0.41207 0.17901 0.0
C477 C 0.39108 0.35579 0.1059 0.0
C478 C 0.4137 0.35323 0.13055 0.0
H479 H 0.351 0.38134 0.08714 0.0
H480 H 0.39256 0.34077 0.08497 0.0
C481 C 0.41087 0.37293 0.15743 0.0
C482 C 0.37481 0.61954 0.85174 0.0
C483 C 0.40434 0.61399 0.83707 0.0
H484 H 0.32957 0.60015 0.86488 0.0
C485 C 0.40924 0.58529 0.82058 0.0
H486 H 0.37031 0.64153 0.86447 0.0
C487 C 0.3859 0.56158 0.82081 0.0
C488 C 0.35732 0.56623 0.83754 0.0
H489 H 0.43174 0.58045 0.80892 0.0
H490 H 0.39095 0.53903 0.80932 0.0
C491 C 0.35148 0.59584 0.85198 0.0
C492 C 0.40155 0.3824 0.82017 0.0
C493 C 0.40591 0.36118 0.84578 0.0
H494 H 0.37555 0.42245 0.80177 0.0
C495 C 0.38481 0.36235 0.87167 0.0
H496 H 0.41742 0.38195 0.79985 0.0
C497 C 0.36087 0.38547 0.87275 0.0
C498 C 0.35763 0.40783 0.84797 0.0
H499 H 0.38752 0.34617 0.89167 0.0
H500 H 0.34573 0.38658 0.89359 0.0
C501 C 0.37759 0.40556 0.82126 0.0
C502 C 0.58139 0.41601 0.80869 0.0
C503 C 0.611 0.41086 0.82364 0.0
H504 H 0.53482 0.39749 0.79901 0.0
C505 C 0.61786 0.3807 0.83659 0.0
H506 H 0.57554 0.43899 0.79834 0.0
C507 C 0.59458 0.35697 0.83697 0.0
C508 C 0.56407 0.36303 0.8244 0.0
H509 H 0.64059 0.37599 0.84805 0.0
H510 H 0.59993 0.33455 0.84872 0.0
C511 C 0.55809 0.39226 0.80907 0.0
C512 C 0.58901 0.57336 0.81708 0.0
C513 C 0.61056 0.56943 0.84252 0.0
H514 H 0.54826 0.59857 0.79906 0.0
C515 C 0.60923 0.59053 0.86844 0.0
H516 H 0.58958 0.55748 0.79675 0.0
C517 C 0.58564 0.61398 0.86975 0.0
C518 C 0.56297 0.61677 0.84517 0.0
H519 H 0.62565 0.58817 0.88831 0.0
H520 H 0.58445 0.62911 0.89062 0.0
C521 C 0.56539 0.59687 0.81839 0.0
C522 C 0.61773 0.58799 0.10175 0.0
C523 C 0.62145 0.56592 0.12673 0.0
H524 H 0.59077 0.6271 0.08292 0.0
C525 C 0.60225 0.56873 0.15395 0.0
H526 H 0.63232 0.5865 0.08055 0.0
C527 C 0.57843 0.59202 0.15531 0.0
C528 C 0.57346 0.61283 0.12947 0.0
H529 H 0.6047 0.55209 0.1736 0.0
H530 H 0.56305 0.5928 0.17598 0.0
C531 C 0.59395 0.61124 0.10311 0.0
C532 C 0.39953 0.55246 0.16311 0.0
C533 C 0.36919 0.55832 0.15002 0.0
H534 H 0.44647 0.57066 0.17155 0.0
C535 C 0.36167 0.58909 0.13903 0.0
H536 H 0.40591 0.52899 0.1719 0.0
C537 C 0.38485 0.61292 0.13884 0.0
C538 C 0.41592 0.60636 0.14964 0.0
H539 H 0.33838 0.59433 0.12903 0.0
H540 H 0.37886 0.63595 0.12869 0.0
C541 C 0.42274 0.57632 0.16291 0.0
C542 C 0.59091 0.41221 0.15277 0.0
C543 C 0.61984 0.40724 0.13677 0.0
H544 H 0.5449 0.39349 0.16423 0.0
C545 C 0.62605 0.3773 0.12317 0.0
H546 H 0.58556 0.43503 0.1636 0.0
C547 C 0.6028 0.35353 0.12354 0.0
C548 C 0.57297 0.35934 0.1375 0.0
H549 H 0.64824 0.37274 0.11084 0.0
H550 H 0.60762 0.33123 0.11148 0.0
C551 C 0.56764 0.38844 0.15314 0.0
C552 C 0.00051 0.32941 0.48309 0.0
C553 C 0.01712 0.30075 0.48805 0.0
H554 H 0.95532 0.35228 0.47803 0.0
C555 C -4e-05 0.27217 0.49114 0.0
H556 H 0.01308 0.35182 0.48052 0.0
C557 C 0.9666 0.27242 0.48962 0.0
C558 C 0.95009 0.30127 0.48506 0.0
H559 H 0.01226 0.24973 0.49492 0.0
H560 H 0.95377 0.25019 0.49236 0.0
C561 C 0.96738 0.32968 0.48163 0.0
C562 C 0.70193 0.0041 0.48938 0.0
C563 C 0.67344 0.02096 0.49458 0.0
H564 H 0.7242 0.95815 0.48555 0.0
C565 C 0.64529 0.00401 0.50075 0.0
H566 H 0.72396 0.01665 0.48462 0.0
C567 C 0.64543 0.97086 0.50128 0.0
C568 C 0.67372 0.95389 0.49569 0.0
H569 H 0.62298 0.01634 0.50495 0.0
H570 H 0.62322 0.95854 0.50586 0.0
C571 C 0.70207 0.97073 0.48994 0.0
C572 C 0.97217 0.64834 0.4925 0.0
C573 C 0.95572 0.67678 0.4859 0.0
H574 H 0.01723 0.62559 0.49915 0.0
C575 C 0.97302 0.7051 0.4815 0.0
H576 H 0.95948 0.62615 0.49613 0.0
C577 C 0.00636 0.70477 0.48329 0.0
C578 C 0.02271 0.67613 0.48949 0.0
H579 H 0.96085 0.72736 0.47644 0.0
H580 H 0.0193 0.72678 0.47949 0.0
C581 C 0.00529 0.64802 0.49427 0.0
C582 C 0.32749 0.00599 0.4761 0.0
C583 C 0.29889 0.02299 0.47979 0.0
H584 H 0.35019 0.96049 0.47454 0.0
C585 C 0.27031 0.00619 0.48439 0.0
H586 H 0.34989 0.01829 0.4725 0.0
C587 C 0.27048 0.97284 0.48558 0.0
C588 C 0.29924 0.95596 0.4822 0.0
H589 H 0.24793 0.01879 0.48731 0.0
H590 H 0.24823 0.96033 0.48933 0.0
C591 C 0.32766 0.97285 0.4773 0.0
C592 C 0.47539 0.96968 0.32793 0.0
C593 C 0.48196 0.95245 0.30007 0.0
H594 H 0.47027 0.01537 0.34952 0.0
C595 C 0.488 0.96903 0.27159 0.0
H596 H 0.47055 0.95756 0.35023 0.0
C597 C 0.48785 0.00241 0.27118 0.0
C598 C 0.48163 0.01953 0.29925 0.0
H599 H 0.49312 0.95626 0.24977 0.0
H600 H 0.49285 0.01476 0.24906 0.0
C601 C 0.47522 0.00284 0.32753 0.0
C602 C 0.97355 0.47903 0.32736 0.0
C603 C 0.95733 0.48282 0.29827 0.0
H604 H 0.01842 0.47623 0.35126 0.0
C605 C 0.97492 0.486 0.27 0.0
H606 H 0.96064 0.47642 0.34954 0.0
C607 C 0.00831 0.48587 0.27099 0.0
C608 C 0.02439 0.48259 0.30026 0.0
H609 H 0.96294 0.48893 0.24725 0.0
H610 H 0.02146 0.4887 0.24899 0.0
C611 C 0.00669 0.47893 0.32835 0.0
C612 C 0.48346 0.97103 0.70357 0.0
C613 C 0.48893 0.95381 0.67542 0.0
H614 H 0.47843 0.01725 0.72488 0.0
C615 C 0.49392 0.97039 0.64678 0.0
H616 H 0.47951 0.95877 0.72596 0.0
C617 C 0.49326 0.00355 0.64616 0.0
C618 C 0.48761 0.02088 0.67416 0.0
H619 H 0.4982 0.95777 0.62469 0.0
H620 H 0.49711 0.01559 0.62362 0.0
C621 C 0.4828 0.0044 0.70294 0.0
C622 C 0.96859 0.49283 0.70269 0.0
C623 C 0.95261 0.4962 0.67337 0.0
H624 H 0.01385 0.48946 0.72658 0.0
C625 C 0.97042 0.49989 0.64536 0.0
H626 H 0.95536 0.48997 0.72464 0.0
C627 C 0.00357 0.49965 0.64647 0.0
C628 C 0.01967 0.49566 0.67561 0.0
H629 H 0.95876 0.50267 0.62242 0.0
H630 H 0.01656 0.50223 0.62434 0.0
C631 C 0.00196 0.49252 0.7038 0.0
C632 C 0.32424 0.50478 0.97656 0.0
C633 C 0.29731 0.49337 0.96024 0.0
H634 H 0.34693 0.51236 0.02149 0.0
C635 C 0.27125 0.48183 0.97773 0.0
H636 H 0.34464 0.51398 0.96372 0.0
C637 C 0.27259 0.48087 0.01107 0.0
C638 C 0.29999 0.49147 0.02724 0.0
H639 H 0.2502 0.47291 0.96568 0.0
H640 H 0.25251 0.47127 0.02411 0.0
C641 C 0.32556 0.50385 0.00968 0.0
C642 C 0.51023 0.32394 0.96708 0.0
C643 C 0.49981 0.29719 0.94993 0.0
H644 H 0.51914 0.34441 0.01275 0.0
C645 C 0.49187 0.26916 0.9665 0.0
H646 H 0.5167 0.34581 0.95495 0.0
C647 C 0.49338 0.26832 -0.00017 0.0
C648 C 0.50275 0.29553 0.01692 0.0
H649 H 0.48387 0.24817 0.95378 0.0
H650 H 0.48641 0.24675 0.0122 0.0
C651 C 0.51164 0.32313 0.00021 0.0
C652 C 0.70555 0.48942 0.96296 0.0
C653 C 0.67797 0.47915 0.94687 0.0
H654 H 0.728 0.49754 0.00828 0.0
C655 C 0.65216 0.4674 0.96452 0.0
H656 H 0.7258 0.49852 0.94985 0.0
C657 C 0.65341 0.46687 -0.00235 0.0
C658 C 0.6805 0.47803 0.01387 0.0
H659 H 0.63066 0.45915 0.95277 0.0
H660 H 0.63283 0.45821 0.01057 0.0
C661 C 0.70682 0.48884 -0.0037 0.0
C662 C 0.48692 0.70396 0.97523 0.0
C663 C 0.47603 0.67728 0.95819 0.0
H664 H 0.49745 0.72368 0.02126 0.0
C665 C 0.4655 0.65031 0.97496 0.0
H666 H 0.49515 0.72505 0.96282 0.0
C667 C 0.46679 0.64953 0.00809 0.0
C668 C 0.47867 0.67569 0.0252 0.0
H669 H 0.4568 0.62946 0.96247 0.0
H670 H 0.45903 0.62811 0.02026 0.0
C671 C 0.48826 0.70315 0.00858 0.0
C672 C 0.18681 0.21157 0.51898 0.0
C673 C 0.17148 0.2222 0.49111 0.0
H674 H 0.22328 0.18186 0.53894 0.0
C675 C 0.17933 0.20832 0.46172 0.0
H676 H 0.1811 0.22181 0.54195 0.0
C677 C 0.20344 0.18545 0.46 0.0
C678 C 0.22007 0.17622 0.48762 0.0
H679 H 0.16774 0.21601 0.43989 0.0
H680 H 0.20989 0.17599 0.43689 0.0
C681 C 0.21096 0.18877 0.51724 0.0
C682 C 0.75723 0.19182 0.45719 0.0
C683 C 0.74938 0.17658 0.48592 0.0
H684 H 0.78503 0.22794 0.43448 0.0
C685 C 0.76605 0.18447 0.5139 0.0
H686 H 0.74482 0.18606 0.43525 0.0
C687 C 0.78901 0.20849 0.51347 0.0
C688 C 0.79565 0.22489 0.48505 0.0
H689 H 0.76052 0.17297 0.53635 0.0
H690 H 0.80073 0.21495 0.53559 0.0
C691 C 0.78022 0.21578 0.45675 0.0
C692 C 0.7927 0.76849 0.51195 0.0
C693 C 0.80101 0.75514 0.48245 0.0
H694 H 0.76176 0.80036 0.5369 0.0
C695 C 0.78613 0.7663 0.45454 0.0
H696 H 0.80394 0.7604 0.53382 0.0
C697 C 0.76199 0.78912 0.45631 0.0
C698 C 0.75241 0.80111 0.48601 0.0
H699 H 0.7922 0.75648 0.43147 0.0
H700 H 0.75002 0.79645 0.43455 0.0
C701 C 0.76857 0.79132 0.51372 0.0
C702 C 0.18787 0.7652 0.51819 0.0
C703 C 0.17549 0.75351 0.48936 0.0
H704 H 0.22096 0.79694 0.5405 0.0
C705 C 0.18489 0.76753 0.46049 0.0
H706 H 0.18084 0.75491 0.54081 0.0
C707 C 0.20776 0.7916 0.46032 0.0
C708 C 0.22158 0.80193 0.48902 0.0
H709 H 0.1755 0.75909 0.43794 0.0
H710 H 0.21555 0.80114 0.43763 0.0
C711 C 0.21079 0.78925 0.51802 0.0
C712 C 0.52178 0.18643 0.21197 0.0
C713 C 0.49254 0.17215 0.21961 0.0
H714 H 0.54597 0.22091 0.18333 0.0
C715 C 0.46529 0.1797 0.20155 0.0
H716 H 0.54321 0.18086 0.2254 0.0
C717 C 0.46686 0.20263 0.17748 0.0
C718 C 0.49573 0.21828 0.17112 0.0
H719 H 0.44248 0.16886 0.20686 0.0
H720 H 0.44523 0.20901 0.16476 0.0
C721 C 0.52337 0.20931 0.18788 0.0
C722 C 0.79484 0.51531 0.20236 0.0
C723 C 0.80564 0.48661 0.21593 0.0
H724 H 0.76294 0.53744 0.16907 0.0
C725 C 0.79467 0.45751 0.20362 0.0
H726 H 0.80309 0.53808 0.21131 0.0
C727 C 0.77176 0.45715 0.17945 0.0
C728 C 0.75948 0.48588 0.16727 0.0
H729 H 0.80279 0.43503 0.21353 0.0
H730 H 0.7627 0.43439 0.1713 0.0
C731 C 0.7719 0.51495 0.1782 0.0
C732 C 0.46228 0.76356 0.18665 0.0
C733 C 0.49107 0.74823 0.17915 0.0
H734 H 0.43897 0.79823 0.21576 0.0
C735 C 0.51948 0.75838 0.1937 0.0
H736 H 0.44006 0.7563 0.17561 0.0
C737 C 0.51885 0.78236 0.21666 0.0
C738 C 0.48981 0.79654 0.22535 0.0
H739 H 0.54202 0.74703 0.1882 0.0
H740 H 0.54093 0.78897 0.22839 0.0
C741 C 0.46166 0.78756 0.20958 0.0
C742 C 0.18987 0.51066 0.21222 0.0
C743 C 0.18084 0.48245 0.22778 0.0
H744 H 0.22115 0.53234 0.1784 0.0
C745 C 0.19499 0.45343 0.21894 0.0
H746 H 0.17922 0.53333 0.21853 0.0
C747 C 0.21898 0.45286 0.19603 0.0
C748 C 0.22914 0.4813 0.18165 0.0
H749 H 0.18834 0.4313 0.23049 0.0
H750 H 0.23027 0.43032 0.1904 0.0
C751 C 0.21386 0.51009 0.18931 0.0
C752 C 0.4538 0.76479 0.78989 0.0
C753 C 0.48227 0.75409 0.80405 0.0
H754 H 0.43234 0.79477 0.75451 0.0
C755 C 0.51128 0.76817 0.79523 0.0
H756 H 0.43107 0.75443 0.79638 0.0
C757 C 0.512 0.79131 0.7713 0.0
C758 C 0.48371 0.80061 0.75582 0.0
H759 H 0.53357 0.76045 0.80591 0.0
H760 H 0.53482 0.80093 0.76405 0.0
C761 C 0.45452 0.78784 0.76592 0.0
C762 C 0.20707 0.45866 0.7936 0.0
C763 C 0.21844 0.48743 0.80632 0.0
H764 H 0.17658 0.43649 0.75922 0.0
C765 C 0.2051 0.51639 0.79593 0.0
H766 H 0.21687 0.43599 0.80132 0.0
C767 C 0.18212 0.51668 0.77181 0.0
C768 C 0.17212 0.48802 0.75778 0.0
H769 H 0.21336 0.53891 0.80546 0.0
H770 H 0.17314 0.53941 0.76332 0.0
C771 C 0.18405 0.45895 0.76952 0.0
C772 C 0.51052 0.18245 0.76692 0.0
C773 C 0.4823 0.17564 0.75019 0.0
H774 H 0.53328 0.21198 0.80168 0.0
C775 C 0.45407 0.19175 0.75815 0.0
H776 H 0.53259 0.17024 0.76132 0.0
C777 C 0.45446 0.21558 0.78127 0.0
C778 C 0.4831 0.22368 0.79666 0.0
H779 H 0.43195 0.18681 0.74569 0.0
H780 H 0.43262 0.2285 0.78615 0.0
C781 C 0.51093 0.20634 0.78996 0.0
C782 C 0.76589 0.46503 0.78559 0.0
C783 C 0.74896 0.49299 0.79282 0.0
H784 H 0.80176 0.44341 0.75663 0.0
C785 C 0.75747 0.52178 0.77803 0.0
H786 H 0.75991 0.44256 0.79683 0.0
C787 C 0.78139 0.52226 0.75507 0.0
C788 C 0.79714 0.49398 0.74659 0.0
H789 H 0.74489 0.5437 0.78334 0.0
H790 H 0.78671 0.54456 0.74314 0.0
C791 C 0.78984 0.46553 0.76264 0.0
loop_
_geom_bond_atom_site_label_1
_geom_bond_atom_site_label_2
_geom_bond_distance
_geom_bond_site_symmetry_2
_ccdc_geom_bond_type
In0 O1 2.294 . S
In0 O2 2.326 . S
In0 O6 2.266 . S
In0 O7 2.326 . S
In0 O8 2.266 . S
In0 O9 2.326 . S
In0 O11 2.294 . S
In0 O12 2.326 . S
O1 In0 2.294 . S
O1 C10 1.240 . S
O2 In0 2.326 . S
O2 C10 1.252 . S
C3 O6 1.252 . S
C3 O7 1.260 . S
C4 O11 1.240 . S
C4 O12 1.252 . S
C5 O8 1.252 . S
C5 O9 1.260 . S
O6 In0 2.266 . S
O6 C3 1.252 . S
O7 In0 2.326 . S
O7 C3 1.260 . S
O8 In0 2.266 . S
O8 C5 1.252 . S
O9 In0 2.326 . S
O9 C5 1.260 . S
C10 O1 1.240 . S
C10 O2 1.252 . S
O11 In0 2.294 . S
O11 C4 1.240 . S
O12 In0 2.326 . S
O12 C4 1.252 . S
In13 O14 2.294 . S
In13 O15 2.326 . S
In13 O19 2.266 . S
In13 O20 2.326 . S
In13 O21 2.266 . S
In13 O22 2.326 . S
In13 O24 2.294 . S
In13 O25 2.326 . S
O14 In13 2.294 . S
O14 C23 1.240 . S
O15 In13 2.326 . S
O15 C23 1.252 . S
C16 O19 1.252 . S
C16 O20 1.260 . S
C17 O24 1.240 . S
C17 O25 1.252 . S
C18 O21 1.252 . S
C18 O22 1.260 . S
O19 In13 2.266 . S
O19 C16 1.252 . S
O20 In13 2.326 . S
O20 C16 1.260 . S
O21 In13 2.266 . S
O21 C18 1.252 . S
O22 In13 2.326 . S
O22 C18 1.260 . S
C23 O14 1.240 . S
C23 O15 1.252 . S
O24 In13 2.294 . S
O24 C17 1.240 . S
O25 In13 2.326 . S
O25 C17 1.252 . S
In26 O27 2.294 . S
In26 O28 2.326 . S
In26 O32 2.266 . S
In26 O33 2.326 . S
In26 O34 2.266 . S
In26 O35 2.326 . S
In26 O37 2.294 . S
In26 O38 2.326 . S
O27 In26 2.294 . S
O27 C36 1.240 . S
O28 In26 2.326 . S
O28 C36 1.252 . S
C29 O32 1.252 . S
C29 O33 1.260 . S
C30 O37 1.240 . S
C30 O38 1.252 . S
C31 O34 1.252 . S
C31 O35 1.260 . S
O32 In26 2.266 . S
O32 C29 1.252 . S
O33 In26 2.326 . S
O33 C29 1.260 . S
O34 In26 2.266 . S
O34 C31 1.252 . S
O35 In26 2.326 . S
O35 C31 1.260 . S
C36 O27 1.240 . S
C36 O28 1.252 . S
O37 In26 2.294 . S
O37 C30 1.240 . S
O38 In26 2.326 . S
O38 C30 1.252 . S
In39 O40 2.294 . S
In39 O41 2.326 . S
In39 O45 2.266 . S
In39 O46 2.326 . S
In39 O47 2.266 . S
In39 O48 2.326 . S
In39 O50 2.294 . S
In39 O51 2.326 . S
O40 In39 2.294 . S
O40 C49 1.240 . S
O41 In39 2.326 . S
O41 C49 1.252 . S
C42 O45 1.252 . S
C42 O46 1.260 . S
C43 O50 1.240 . S
C43 O51 1.252 . S
C44 O47 1.252 . S
C44 O48 1.260 . S
O45 In39 2.266 . S
O45 C42 1.252 . S
O46 In39 2.326 . S
O46 C42 1.260 . S
O47 In39 2.266 . S
O47 C44 1.252 . S
O48 In39 2.326 . S
O48 C44 1.260 . S
C49 O40 1.240 . S
C49 O41 1.252 . S
O50 In39 2.294 . S
O50 C43 1.240 . S
O51 In39 2.326 . S
O51 C43 1.252 . S
In52 O53 2.294 . S
In52 O54 2.326 . S
In52 O58 2.266 . S
In52 O59 2.326 . S
In52 O60 2.266 . S
In52 O61 2.326 . S
In52 O63 2.294 . S
In52 O64 2.326 . S
O53 In52 2.294 . S
O53 C62 1.240 . S
O54 In52 2.326 . S
O54 C62 1.252 . S
C55 O58 1.252 . S
C55 O59 1.260 . S
C56 O63 1.240 . S
C56 O64 1.252 . S
C57 O60 1.252 . S
C57 O61 1.260 . S
O58 In52 2.266 . S
O58 C55 1.252 . S
O59 In52 2.326 . S
O59 C55 1.260 . S
O60 In52 2.266 . S
O60 C57 1.252 . S
O61 In52 2.326 . S
O61 C57 1.260 . S
C62 O53 1.240 . S
C62 O54 1.252 . S
O63 In52 2.294 . S
O63 C56 1.240 . S
O64 In52 2.326 . S
O64 C56 1.252 . S
In65 O66 2.294 . S
In65 O67 2.326 . S
In65 O71 2.266 . S
In65 O72 2.326 . S
In65 O73 2.266 . S
In65 O74 2.326 . S
In65 O76 2.294 . S
In65 O77 2.326 . S
O66 In65 2.294 . S
O66 C75 1.240 . S
O67 In65 2.326 . S
O67 C75 1.252 . S
C68 O71 1.252 . S
C68 O72 1.260 . S
C69 O76 1.240 . S
C69 O77 1.252 . S
C70 O73 1.252 . S
C70 O74 1.260 . S
O71 In65 2.266 . S
O71 C68 1.252 . S
O72 In65 2.326 . S
O72 C68 1.260 . S
O73 In65 2.266 . S
O73 C70 1.252 . S
O74 In65 2.326 . S
O74 C70 1.260 . S
C75 O66 1.240 . S
C75 O67 1.252 . S
O76 In65 2.294 . S
O76 C69 1.240 . S
O77 In65 2.326 . S
O77 C69 1.252 . S
In78 O79 2.294 . S
In78 O80 2.326 . S
In78 O84 2.266 . S
In78 O85 2.326 . S
In78 O86 2.266 . S
In78 O87 2.326 . S
In78 O89 2.294 . S
In78 O90 2.326 . S
O79 In78 2.294 . S
O79 C88 1.240 . S
O80 In78 2.326 . S
O80 C88 1.252 . S
C81 O84 1.252 . S
C81 O85 1.260 . S
C82 O89 1.240 . S
C82 O90 1.252 . S
C83 O86 1.252 . S
C83 O87 1.260 . S
O84 In78 2.266 . S
O84 C81 1.252 . S
O85 In78 2.326 . S
O85 C81 1.260 . S
O86 In78 2.266 . S
O86 C83 1.252 . S
O87 In78 2.326 . S
O87 C83 1.260 . S
C88 O79 1.240 . S
C88 O80 1.252 . S
O89 In78 2.294 . S
O89 C82 1.240 . S
O90 In78 2.326 . S
O90 C82 1.252 . S
In91 O92 2.294 . S
In91 O93 2.326 . S
In91 O97 2.266 . S
In91 O98 2.326 . S
In91 O99 2.266 . S
In91 O100 2.326 . S
In91 O102 2.294 . S
In91 O103 2.326 . S
O92 In91 2.294 . S
O92 C101 1.240 . S
O93 In91 2.326 . S
O93 C101 1.252 . S
C94 O97 1.252 . S
C94 O98 1.260 . S
C95 O102 1.240 . S
C95 O103 1.252 . S
C96 O99 1.252 . S
C96 O100 1.260 . S
O97 In91 2.266 . S
O97 C94 1.252 . S
O98 In91 2.326 . S
O98 C94 1.260 . S
O99 In91 2.266 . S
O99 C96 1.252 . S
O100 In91 2.326 . S
O100 C96 1.260 . S
C101 O92 1.240 . S
C101 O93 1.252 . S
O102 In91 2.294 . S
O102 C95 1.240 . S
O103 In91 2.326 . S
O103 C95 1.252 . S
In104 O105 2.294 . S
In104 O106 2.326 . S
In104 O110 2.266 . S
In104 O111 2.326 . S
In104 O112 2.266 . S
In104 O113 2.326 . S
In104 O115 2.294 . S
In104 O116 2.326 . S
O105 In104 2.294 . S
O105 C114 1.240 . S
O106 In104 2.326 . S
O106 C114 1.252 . S
C107 O110 1.252 . S
C107 O111 1.260 . S
C108 O115 1.240 . S
C108 O116 1.252 . S
C109 O112 1.252 . S
C109 O113 1.260 . S
O110 In104 2.266 . S
O110 C107 1.252 . S
O111 In104 2.326 . S
O111 C107 1.260 . S
O112 In104 2.266 . S
O112 C109 1.252 . S
O113 In104 2.326 . S
O113 C109 1.260 . S
C114 O105 1.240 . S
C114 O106 1.252 . S
O115 In104 2.294 . S
O115 C108 1.240 . S
O116 In104 2.326 . S
O116 C108 1.252 . S
In117 O118 2.294 . S
In117 O119 2.326 . S
In117 O123 2.266 . S
In117 O124 2.326 . S
In117 O125 2.266 . S
In117 O126 2.326 . S
In117 O128 2.294 . S
In117 O129 2.326 . S
O118 In117 2.294 . S
O118 C127 1.240 . S
O119 In117 2.326 . S
O119 C127 1.252 . S
C120 O123 1.252 . S
C120 O124 1.260 . S
C121 O128 1.240 . S
C121 O129 1.252 . S
C122 O125 1.252 . S
C122 O126 1.260 . S
O123 In117 2.266 . S
O123 C120 1.252 . S
O124 In117 2.326 . S
O124 C120 1.260 . S
O125 In117 2.266 . S
O125 C122 1.252 . S
O126 In117 2.326 . S
O126 C122 1.260 . S
C127 O118 1.240 . S
C127 O119 1.252 . S
O128 In117 2.294 . S
O128 C121 1.240 . S
O129 In117 2.326 . S
O129 C121 1.252 . S
In130 O131 2.294 . S
In130 O132 2.326 . S
In130 O136 2.266 . S
In130 O137 2.326 . S
In130 O138 2.266 . S
In130 O139 2.326 . S
In130 O141 2.294 . S
In130 O142 2.326 . S
O131 In130 2.294 . S
O131 C140 1.240 . S
O132 In130 2.326 . S
O132 C140 1.252 . S
C133 O136 1.252 . S
C133 O137 1.260 . S
C134 O141 1.240 . S
C134 O142 1.252 . S
C135 O138 1.252 . S
C135 O139 1.260 . S
O136 In130 2.266 . S
O136 C133 1.252 . S
O137 In130 2.326 . S
O137 C133 1.260 . S
O138 In130 2.266 . S
O138 C135 1.252 . S
O139 In130 2.326 . S
O139 C135 1.260 . S
C140 O131 1.240 . S
C140 O132 1.252 . S
O141 In130 2.294 . S
O141 C134 1.240 . S
O142 In130 2.326 . S
O142 C134 1.252 . S
In143 O144 2.294 . S
In143 O145 2.326 . S
In143 O149 2.266 . S
In143 O150 2.326 . S
In143 O151 2.266 . S
In143 O152 2.326 . S
In143 O154 2.294 . S
In143 O155 2.326 . S
O144 In143 2.294 . S
O144 C153 1.240 . S
O145 In143 2.326 . S
O145 C153 1.252 . S
C146 O149 1.252 . S
C146 O150 1.260 . S
C147 O154 1.240 . S
C147 O155 1.252 . S
C148 O151 1.252 . S
C148 O152 1.260 . S
O149 In143 2.266 . S
O149 C146 1.252 . S
O150 In143 2.326 . S
O150 C146 1.260 . S
O151 In143 2.266 . S
O151 C148 1.252 . S
O152 In143 2.326 . S
O152 C148 1.260 . S
C153 O144 1.240 . S
C153 O145 1.252 . S
O154 In143 2.294 . S
O154 C147 1.240 . S
O155 In143 2.326 . S
O155 C147 1.252 . S
In156 O157 2.294 . S
In156 O158 2.326 . S
In156 O162 2.266 . S
In156 O163 2.326 . S
In156 O164 2.266 . S
In156 O165 2.326 . S
In156 O167 2.294 . S
In156 O168 2.326 . S
O157 In156 2.294 . S
O157 C166 1.240 . S
O158 In156 2.326 . S
O158 C166 1.252 . S
C159 O162 1.252 . S
C159 O163 1.260 . S
C160 O167 1.240 . S
C160 O168 1.252 . S
C161 O164 1.252 . S
C161 O165 1.260 . S
O162 In156 2.266 . S
O162 C159 1.252 . S
O163 In156 2.326 . S
O163 C159 1.260 . S
O164 In156 2.266 . S
O164 C161 1.252 . S
O165 In156 2.326 . S
O165 C161 1.260 . S
C166 O157 1.240 . S
C166 O158 1.252 . S
O167 In156 2.294 . S
O167 C160 1.240 . S
O168 In156 2.326 . S
O168 C160 1.252 . S
In169 O170 2.294 . S
In169 O171 2.326 . S
In169 O175 2.266 . S
In169 O176 2.326 . S
In169 O177 2.266 . S
In169 O178 2.326 . S
In169 O180 2.294 . S
In169 O181 2.326 . S
O170 In169 2.294 . S
O170 C179 1.240 . S
O171 In169 2.326 . S
O171 C179 1.252 . S
C172 O175 1.252 . S
C172 O176 1.260 . S
C173 O180 1.240 . S
C173 O181 1.252 . S
C174 O177 1.252 . S
C174 O178 1.260 . S
O175 In169 2.266 . S
O175 C172 1.252 . S
O176 In169 2.326 . S
O176 C172 1.260 . S
O177 In169 2.266 . S
O177 C174 1.252 . S
O178 In169 2.326 . S
O178 C174 1.260 . S
C179 O170 1.240 . S
C179 O171 1.252 . S
O180 In169 2.294 . S
O180 C173 1.240 . S
O181 In169 2.326 . S
O181 C173 1.252 . S
In182 O183 2.294 . S
In182 O184 2.326 . S
In182 O188 2.266 . S
In182 O189 2.326 . S
In182 O190 2.266 . S
In182 O191 2.326 . S
In182 O193 2.294 . S
In182 O194 2.326 . S
O183 In182 2.294 . S
O183 C192 1.240 . S
O184 In182 2.326 . S
O184 C192 1.252 . S
C185 O188 1.252 . S
C185 O189 1.260 . S
C186 O193 1.240 . S
C186 O194 1.252 . S
C187 O190 1.252 . S
C187 O191 1.260 . S
O188 In182 2.266 . S
O188 C185 1.252 . S
O189 In182 2.326 . S
O189 C185 1.260 . S
O190 In182 2.266 . S
O190 C187 1.252 . S
O191 In182 2.326 . S
O191 C187 1.260 . S
C192 O183 1.240 . S
C192 O184 1.252 . S
O193 In182 2.294 . S
O193 C186 1.240 . S
O194 In182 2.326 . S
O194 C186 1.252 . S
In195 O196 2.294 . S
In195 O197 2.326 . S
In195 O201 2.266 . S
In195 O202 2.326 . S
In195 O203 2.266 . S
In195 O204 2.326 . S
In195 O206 2.294 . S
In195 O207 2.326 . S
O196 In195 2.294 . S
O196 C205 1.240 . S
O197 In195 2.326 . S
O197 C205 1.252 . S
C198 O201 1.252 . S
C198 O202 1.260 . S
C199 O206 1.240 . S
C199 O207 1.252 . S
C200 O203 1.252 . S
C200 O204 1.260 . S
O201 In195 2.266 . S
O201 C198 1.252 . S
O202 In195 2.326 . S
O202 C198 1.260 . S
O203 In195 2.266 . S
O203 C200 1.252 . S
O204 In195 2.326 . S
O204 C200 1.260 . S
C205 O196 1.240 . S
C205 O197 1.252 . S
O206 In195 2.294 . S
O206 C199 1.240 . S
O207 In195 2.326 . S
O207 C199 1.252 . S
In208 O209 2.294 . S
In208 O210 2.326 . S
In208 O214 2.266 . S
In208 O215 2.326 . S
In208 O216 2.266 . S
In208 O217 2.326 . S
In208 O219 2.294 . S
In208 O220 2.326 . S
O209 In208 2.294 . S
O209 C218 1.240 . S
O210 In208 2.326 . S
O210 C218 1.252 . S
C211 O214 1.252 . S
C211 O215 1.260 . S
C212 O219 1.240 . S
C212 O220 1.252 . S
C213 O216 1.252 . S
C213 O217 1.260 . S
O214 In208 2.266 . S
O214 C211 1.252 . S
O215 In208 2.326 . S
O215 C211 1.260 . S
O216 In208 2.266 . S
O216 C213 1.252 . S
O217 In208 2.326 . S
O217 C213 1.260 . S
C218 O209 1.240 . S
C218 O210 1.252 . S
O219 In208 2.294 . S
O219 C212 1.240 . S
O220 In208 2.326 . S
O220 C212 1.252 . S
In221 O222 2.294 . S
In221 O223 2.326 . S
In221 O227 2.266 . S
In221 O228 2.326 . S
In221 O229 2.266 . S
In221 O230 2.326 . S
In221 O232 2.294 . S
In221 O233 2.326 . S
O222 In221 2.294 . S
O222 C231 1.240 . S
O223 In221 2.326 . S
O223 C231 1.252 . S
C224 O227 1.252 . S
C224 O228 1.260 . S
C225 O232 1.240 . S
C225 O233 1.252 . S
C226 O229 1.252 . S
C226 O230 1.260 . S
O227 In221 2.266 . S
O227 C224 1.252 . S
O228 In221 2.326 . S
O228 C224 1.260 . S
O229 In221 2.266 . S
O229 C226 1.252 . S
O230 In221 2.326 . S
O230 C226 1.260 . S
C231 O222 1.240 . S
C231 O223 1.252 . S
O232 In221 2.294 . S
O232 C225 1.240 . S
O233 In221 2.326 . S
O233 C225 1.252 . S
In234 O235 2.294 . S
In234 O236 2.326 . S
In234 O240 2.266 . S
In234 O241 2.326 . S
In234 O242 2.266 . S
In234 O243 2.326 . S
In234 O245 2.294 . S
In234 O246 2.326 . S
O235 In234 2.294 . S
O235 C244 1.240 . S
O236 In234 2.326 . S
O236 C244 1.252 . S
C237 O240 1.252 . S
C237 O241 1.260 . S
C238 O245 1.240 . S
C238 O246 1.252 . S
C239 O242 1.252 . S
C239 O243 1.260 . S
O240 In234 2.266 . S
O240 C237 1.252 . S
O241 In234 2.326 . S
O241 C237 1.260 . S
O242 In234 2.266 . S
O242 C239 1.252 . S
O243 In234 2.326 . S
O243 C239 1.260 . S
C244 O235 1.240 . S
C244 O236 1.252 . S
O245 In234 2.294 . S
O245 C238 1.240 . S
O246 In234 2.326 . S
O246 C238 1.252 . S
In247 O248 2.294 . S
In247 O249 2.326 . S
In247 O253 2.266 . S
In247 O254 2.326 . S
In247 O255 2.266 . S
In247 O256 2.326 . S
In247 O258 2.294 . S
In247 O259 2.326 . S
O248 In247 2.294 . S
O248 C257 1.240 . S
O249 In247 2.326 . S
O249 C257 1.252 . S
C250 O253 1.252 . S
C250 O254 1.260 . S
C251 O258 1.240 . S
C251 O259 1.252 . S
C252 O255 1.252 . S
C252 O256 1.260 . S
O253 In247 2.266 . S
O253 C250 1.252 . S
O254 In247 2.326 . S
O254 C250 1.260 . S
O255 In247 2.266 . S
O255 C252 1.252 . S
O256 In247 2.326 . S
O256 C252 1.260 . S
C257 O248 1.240 . S
C257 O249 1.252 . S
O258 In247 2.294 . S
O258 C251 1.240 . S
O259 In247 2.326 . S
O259 C251 1.252 . S
In260 O261 2.294 . S
In260 O262 2.326 . S
In260 O266 2.266 . S
In260 O267 2.326 . S
In260 O268 2.266 . S
In260 O269 2.326 . S
In260 O271 2.294 . S
In260 O272 2.326 . S
O261 In260 2.294 . S
O261 C270 1.240 . S
O262 In260 2.326 . S
O262 C270 1.252 . S
C263 O266 1.252 . S
C263 O267 1.260 . S
C264 O271 1.240 . S
C264 O272 1.252 . S
C265 O268 1.252 . S
C265 O269 1.260 . S
O266 In260 2.266 . S
O266 C263 1.252 . S
O267 In260 2.326 . S
O267 C263 1.260 . S
O268 In260 2.266 . S
O268 C265 1.252 . S
O269 In260 2.326 . S
O269 C265 1.260 . S
C270 O261 1.240 . S
C270 O262 1.252 . S
O271 In260 2.294 . S
O271 C264 1.240 . S
O272 In260 2.326 . S
O272 C264 1.252 . S
In273 O274 2.294 . S
In273 O275 2.326 . S
In273 O279 2.266 . S
In273 O280 2.326 . S
In273 O281 2.266 . S
In273 O282 2.326 . S
In273 O284 2.294 . S
In273 O285 2.326 . S
O274 In273 2.294 . S
O274 C283 1.240 . S
O275 In273 2.326 . S
O275 C283 1.252 . S
C276 O279 1.252 . S
C276 O280 1.260 . S
C277 O284 1.240 . S
C277 O285 1.252 . S
C278 O281 1.252 . S
C278 O282 1.260 . S
O279 In273 2.266 . S
O279 C276 1.252 . S
O280 In273 2.326 . S
O280 C276 1.260 . S
O281 In273 2.266 . S
O281 C278 1.252 . S
O282 In273 2.326 . S
O282 C278 1.260 . S
C283 O274 1.240 . S
C283 O275 1.252 . S
O284 In273 2.294 . S
O284 C277 1.240 . S
O285 In273 2.326 . S
O285 C277 1.252 . S
In286 O287 2.294 . S
In286 O288 2.326 . S
In286 O292 2.266 . S
In286 O293 2.326 . S
In286 O294 2.266 . S
In286 O295 2.326 . S
In286 O297 2.294 . S
In286 O298 2.326 . S
O287 In286 2.294 . S
O287 C296 1.240 . S
O288 In286 2.326 . S
O288 C296 1.252 . S
C289 O292 1.252 . S
C289 O293 1.260 . S
C290 O297 1.240 . S
C290 O298 1.252 . S
C291 O294 1.252 . S
C291 O295 1.260 . S
O292 In286 2.266 . S
O292 C289 1.252 . S
O293 In286 2.326 . S
O293 C289 1.260 . S
O294 In286 2.266 . S
O294 C291 1.252 . S
O295 In286 2.326 . S
O295 C291 1.260 . S
C296 O287 1.240 . S
C296 O288 1.252 . S
O297 In286 2.294 . S
O297 C290 1.240 . S
O298 In286 2.326 . S
O298 C290 1.252 . S
In299 O300 2.294 . S
In299 O301 2.326 . S
In299 O305 2.266 . S
In299 O306 2.326 . S
In299 O307 2.266 . S
In299 O308 2.326 . S
In299 O310 2.294 . S
In299 O311 2.326 . S
O300 In299 2.294 . S
O300 C309 1.240 . S
O301 In299 2.326 . S
O301 C309 1.252 . S
C302 O305 1.252 . S
C302 O306 1.260 . S
C303 O310 1.240 . S
C303 O311 1.252 . S
C304 O307 1.252 . S
C304 O308 1.260 . S
O305 In299 2.266 . S
O305 C302 1.252 . S
O306 In299 2.326 . S
O306 C302 1.260 . S
O307 In299 2.266 . S
O307 C304 1.252 . S
O308 In299 2.326 . S
O308 C304 1.260 . S
C309 O300 1.240 . S
C309 O301 1.252 . S
O310 In299 2.294 . S
O310 C303 1.240 . S
O311 In299 2.326 . S
O311 C303 1.252 . S
C312 C313 1.387 . S
C312 H316 0.950 . S
C312 C321 1.390 . S
C313 C312 1.387 . S
C313 C315 1.387 . S
H314 C321 0.950 . S
C315 C313 1.387 . S
C315 C317 1.390 . S
C315 H319 0.950 . S
H316 C312 0.950 . S
C317 C315 1.390 . S
C317 C318 1.387 . S
C317 H320 0.950 . S
C318 C317 1.387 . S
C318 C321 1.387 . S
H319 C315 0.950 . S
H320 C317 0.950 . S
C321 C312 1.390 . S
C321 H314 0.950 . S
C321 C318 1.387 . S
C322 C323 1.387 . S
C322 H326 0.950 . S
C322 C331 1.390 . S
C323 C322 1.387 . S
C323 C325 1.387 . S
H324 C331 0.950 . S
C325 C323 1.387 . S
C325 C327 1.390 . S
C325 H329 0.950 . S
H326 C322 0.950 . S
C327 C325 1.390 . S
C327 C328 1.387 . S
C327 H330 0.950 . S
C328 C327 1.387 . S
C328 C331 1.387 . S
H329 C325 0.950 . S
H330 C327 0.950 . S
C331 C322 1.390 . S
C331 H324 0.950 . S
C331 C328 1.387 . S
C332 C333 1.387 . S
C332 H336 0.950 . S
C332 C341 1.390 . S
C333 C332 1.387 . S
C333 C335 1.387 . S
H334 C341 0.950 . S
C335 C333 1.387 . S
C335 C337 1.390 . S
C335 H339 0.950 . S
H336 C332 0.950 . S
C337 C335 1.390 . S
C337 C338 1.387 . S
C337 H340 0.950 . S
C338 C337 1.387 . S
C338 C341 1.387 . S
H339 C335 0.950 . S
H340 C337 0.950 . S
C341 C332 1.390 . S
C341 H334 0.950 . S
C341 C338 1.387 . S
C342 C343 1.387 . S
C342 H346 0.950 . S
C342 C351 1.390 . S
C343 C342 1.387 . S
C343 C345 1.387 . S
H344 C351 0.950 . S
C345 C343 1.387 . S
C345 C347 1.390 . S
C345 H349 0.950 . S
H346 C342 0.950 . S
C347 C345 1.390 . S
C347 C348 1.387 . S
C347 H350 0.950 . S
C348 C347 1.387 . S
C348 C351 1.387 . S
H349 C345 0.950 . S
H350 C347 0.950 . S
C351 C342 1.390 . S
C351 H344 0.950 . S
C351 C348 1.387 . S
C352 C353 1.387 . S
C352 H356 0.950 . S
C352 C361 1.390 . S
C353 C352 1.387 . S
C353 C355 1.387 . S
H354 C361 0.950 . S
C355 C353 1.387 . S
C355 C357 1.390 . S
C355 H359 0.950 . S
H356 C352 0.950 . S
C357 C355 1.390 . S
C357 C358 1.387 . S
C357 H360 0.950 . S
C358 C357 1.387 . S
C358 C361 1.387 . S
H359 C355 0.950 . S
H360 C357 0.950 . S
C361 C352 1.390 . S
C361 H354 0.950 . S
C361 C358 1.387 . S
C362 C363 1.387 . S
C362 H366 0.950 . S
C362 C371 1.390 . S
C363 C362 1.387 . S
C363 C365 1.387 . S
H364 C371 0.950 . S
C365 C363 1.387 . S
C365 C367 1.390 . S
C365 H369 0.950 . S
H366 C362 0.950 . S
C367 C365 1.390 . S
C367 C368 1.387 . S
C367 H370 0.950 . S
C368 C367 1.387 . S
C368 C371 1.387 . S
H369 C365 0.950 . S
H370 C367 0.950 . S
C371 C362 1.390 . S
C371 H364 0.950 . S
C371 C368 1.387 . S
C372 C373 1.387 . S
C372 H376 0.950 . S
C372 C381 1.390 . S
C373 C372 1.387 . S
C373 C375 1.387 . S
H374 C381 0.950 . S
C375 C373 1.387 . S
C375 C377 1.390 . S
C375 H379 0.950 . S
H376 C372 0.950 . S
C377 C375 1.390 . S
C377 C378 1.387 . S
C377 H380 0.950 . S
C378 C377 1.387 . S
C378 C381 1.387 . S
H379 C375 0.950 . S
H380 C377 0.950 . S
C381 C372 1.390 . S
C381 H374 0.950 . S
C381 C378 1.387 . S
C382 C383 1.387 . S
C382 H386 0.950 . S
C382 C391 1.390 . S
C383 C382 1.387 . S
C383 C385 1.387 . S
H384 C391 0.950 . S
C385 C383 1.387 . S
C385 C387 1.390 . S
C385 H389 0.950 . S
H386 C382 0.950 . S
C387 C385 1.390 . S
C387 C388 1.387 . S
C387 H390 0.950 . S
C388 C387 1.387 . S
C388 C391 1.387 . S
H389 C385 0.950 . S
H390 C387 0.950 . S
C391 C382 1.390 . S
C391 H384 0.950 . S
C391 C388 1.387 . S
C392 C393 1.387 . S
C392 H396 0.950 . S
C392 C401 1.390 . S
C393 C392 1.387 . S
C393 C395 1.387 . S
H394 C401 0.950 . S
C395 C393 1.387 . S
C395 C397 1.390 . S
C395 H399 0.950 . S
H396 C392 0.950 . S
C397 C395 1.390 . S
C397 C398 1.387 . S
C397 H400 0.950 . S
C398 C397 1.387 . S
C398 C401 1.387 . S
H399 C395 0.950 . S
H400 C397 0.950 . S
C401 C392 1.390 . S
C401 H394 0.950 . S
C401 C398 1.387 . S
C402 C403 1.387 . S
C402 H406 0.950 . S
C402 C411 1.390 . S
C403 C402 1.387 . S
C403 C405 1.387 . S
H404 C411 0.950 . S
C405 C403 1.387 . S
C405 C407 1.390 . S
C405 H409 0.950 . S
H406 C402 0.950 . S
C407 C405 1.390 . S
C407 C408 1.387 . S
C407 H410 0.950 . S
C408 C407 1.387 . S
C408 C411 1.387 . S
H409 C405 0.950 . S
H410 C407 0.950 . S
C411 C402 1.390 . S
C411 H404 0.950 . S
C411 C408 1.387 . S
C412 C413 1.387 . S
C412 H416 0.950 . S
C412 C421 1.390 . S
C413 C412 1.387 . S
C413 C415 1.387 . S
H414 C421 0.950 . S
C415 C413 1.387 . S
C415 C417 1.390 . S
C415 H419 0.950 . S
H416 C412 0.950 . S
C417 C415 1.390 . S
C417 C418 1.387 . S
C417 H420 0.950 . S
C418 C417 1.387 . S
C418 C421 1.387 . S
H419 C415 0.950 . S
H420 C417 0.950 . S
C421 C412 1.390 . S
C421 H414 0.950 . S
C421 C418 1.387 . S
C422 C423 1.387 . S
C422 H426 0.950 . S
C422 C431 1.390 . S
C423 C422 1.387 . S
C423 C425 1.387 . S
H424 C431 0.950 . S
C425 C423 1.387 . S
C425 C427 1.390 . S
C425 H429 0.950 . S
H426 C422 0.950 . S
C427 C425 1.390 . S
C427 C428 1.387 . S
C427 H430 0.950 . S
C428 C427 1.387 . S
C428 C431 1.387 . S
H429 C425 0.950 . S
H430 C427 0.950 . S
C431 C422 1.390 . S
C431 H424 0.950 . S
C431 C428 1.387 . S
C432 C433 1.387 . S
C432 H436 0.950 . S
C432 C441 1.390 . S
C433 C432 1.387 . S
C433 C435 1.387 . S
H434 C441 0.950 . S
C435 C433 1.387 . S
C435 C437 1.390 . S
C435 H439 0.950 . S
H436 C432 0.950 . S
C437 C435 1.390 . S
C437 C438 1.387 . S
C437 H440 0.950 . S
C438 C437 1.387 . S
C438 C441 1.387 . S
H439 C435 0.950 . S
H440 C437 0.950 . S
C441 C432 1.390 . S
C441 H434 0.950 . S
C441 C438 1.387 . S
C442 C443 1.387 . S
C442 H446 0.950 . S
C442 C451 1.390 . S
C443 C442 1.387 . S
C443 C445 1.387 . S
H444 C451 0.950 . S
C445 C443 1.387 . S
C445 C447 1.390 . S
C445 H449 0.950 . S
H446 C442 0.950 . S
C447 C445 1.390 . S
C447 C448 1.387 . S
C447 H450 0.950 . S
C448 C447 1.387 . S
C448 C451 1.387 . S
H449 C445 0.950 . S
H450 C447 0.950 . S
C451 C442 1.390 . S
C451 H444 0.950 . S
C451 C448 1.387 . S
C452 C453 1.387 . S
C452 H456 0.950 . S
C452 C461 1.390 . S
C453 C452 1.387 . S
C453 C455 1.387 . S
H454 C461 0.950 . S
C455 C453 1.387 . S
C455 C457 1.390 . S
C455 H459 0.950 . S
H456 C452 0.950 . S
C457 C455 1.390 . S
C457 C458 1.387 . S
C457 H460 0.950 . S
C458 C457 1.387 . S
C458 C461 1.387 . S
H459 C455 0.950 . S
H460 C457 0.950 . S
C461 C452 1.390 . S
C461 H454 0.950 . S
C461 C458 1.387 . S
C462 C463 1.387 . S
C462 H466 0.950 . S
C462 C471 1.390 . S
C463 C462 1.387 . S
C463 C465 1.387 . S
H464 C471 0.950 . S
C465 C463 1.387 . S
C465 C467 1.390 . S
C465 H469 0.950 . S
H466 C462 0.950 . S
C467 C465 1.390 . S
C467 C468 1.387 . S
C467 H470 0.950 . S
C468 C467 1.387 . S
C468 C471 1.387 . S
H469 C465 0.950 . S
H470 C467 0.950 . S
C471 C462 1.390 . S
C471 H464 0.950 . S
C471 C468 1.387 . S
C472 C473 1.387 . S
C472 H476 0.950 . S
C472 C481 1.390 . S
C473 C472 1.387 . S
C473 C475 1.387 . S
H474 C481 0.950 . S
C475 C473 1.387 . S
C475 C477 1.390 . S
C475 H479 0.950 . S
H476 C472 0.950 . S
C477 C475 1.390 . S
C477 C478 1.387 . S
C477 H480 0.950 . S
C478 C477 1.387 . S
C478 C481 1.387 . S
H479 C475 0.950 . S
H480 C477 0.950 . S
C481 C472 1.390 . S
C481 H474 0.950 . S
C481 C478 1.387 . S
C482 C483 1.387 . S
C482 H486 0.950 . S
C482 C491 1.390 . S
C483 C482 1.387 . S
C483 C485 1.387 . S
H484 C491 0.950 . S
C485 C483 1.387 . S
C485 C487 1.390 . S
C485 H489 0.950 . S
H486 C482 0.950 . S
C487 C485 1.390 . S
C487 C488 1.387 . S
C487 H490 0.950 . S
C488 C487 1.387 . S
C488 C491 1.387 . S
H489 C485 0.950 . S
H490 C487 0.950 . S
C491 C482 1.390 . S
C491 H484 0.950 . S
C491 C488 1.387 . S
C492 C493 1.387 . S
C492 H496 0.950 . S
C492 C501 1.390 . S
C493 C492 1.387 . S
C493 C495 1.387 . S
H494 C501 0.950 . S
C495 C493 1.387 . S
C495 C497 1.390 . S
C495 H499 0.950 . S
H496 C492 0.950 . S
C497 C495 1.390 . S
C497 C498 1.387 . S
C497 H500 0.950 . S
C498 C497 1.387 . S
C498 C501 1.387 . S
H499 C495 0.950 . S
H500 C497 0.950 . S
C501 C492 1.390 . S
C501 H494 0.950 . S
C501 C498 1.387 . S
C502 C503 1.387 . S
C502 H506 0.950 . S
C502 C511 1.390 . S
C503 C502 1.387 . S
C503 C505 1.387 . S
H504 C511 0.950 . S
C505 C503 1.387 . S
C505 C507 1.390 . S
C505 H509 0.950 . S
H506 C502 0.950 . S
C507 C505 1.390 . S
C507 C508 1.387 . S
C507 H510 0.950 . S
C508 C507 1.387 . S
C508 C511 1.387 . S
H509 C505 0.950 . S
H510 C507 0.950 . S
C511 C502 1.390 . S
C511 H504 0.950 . S
C511 C508 1.387 . S
C512 C513 1.387 . S
C512 H516 0.950 . S
C512 C521 1.390 . S
C513 C512 1.387 . S
C513 C515 1.387 . S
H514 C521 0.950 . S
C515 C513 1.387 . S
C515 C517 1.390 . S
C515 H519 0.950 . S
H516 C512 0.950 . S
C517 C515 1.390 . S
C517 C518 1.387 . S
C517 H520 0.950 . S
C518 C517 1.387 . S
C518 C521 1.387 . S
H519 C515 0.950 . S
H520 C517 0.950 . S
C521 C512 1.390 . S
C521 H514 0.950 . S
C521 C518 1.387 . S
C522 C523 1.387 . S
C522 H526 0.950 . S
C522 C531 1.390 . S
C523 C522 1.387 . S
C523 C525 1.387 . S
H524 C531 0.950 . S
C525 C523 1.387 . S
C525 C527 1.390 . S
C525 H529 0.950 . S
H526 C522 0.950 . S
C527 C525 1.390 . S
C527 C528 1.387 . S
C527 H530 0.950 . S
C528 C527 1.387 . S
C528 C531 1.387 . S
H529 C525 0.950 . S
H530 C527 0.950 . S
C531 C522 1.390 . S
C531 H524 0.950 . S
C531 C528 1.387 . S
C532 C533 1.387 . S
C532 H536 0.950 . S
C532 C541 1.390 . S
C533 C532 1.387 . S
C533 C535 1.387 . S
H534 C541 0.950 . S
C535 C533 1.387 . S
C535 C537 1.390 . S
C535 H539 0.950 . S
H536 C532 0.950 . S
C537 C535 1.390 . S
C537 C538 1.387 . S
C537 H540 0.950 . S
C538 C537 1.387 . S
C538 C541 1.387 . S
H539 C535 0.950 . S
H540 C537 0.950 . S
C541 C532 1.390 . S
C541 H534 0.950 . S
C541 C538 1.387 . S
C542 C543 1.387 . S
C542 H546 0.950 . S
C542 C551 1.390 . S
C543 C542 1.387 . S
C543 C545 1.387 . S
H544 C551 0.950 . S
C545 C543 1.387 . S
C545 C547 1.390 . S
C545 H549 0.950 . S
H546 C542 0.950 . S
C547 C545 1.390 . S
C547 C548 1.387 . S
C547 H550 0.950 . S
C548 C547 1.387 . S
C548 C551 1.387 . S
H549 C545 0.950 . S
H550 C547 0.950 . S
C551 C542 1.390 . S
C551 H544 0.950 . S
C551 C548 1.387 . S
C552 C553 1.387 . S
C552 H556 0.950 . S
C552 C561 1.390 1_455 S
C553 C552 1.387 . S
C553 C555 1.387 . S
H554 C561 0.950 . S
C555 C553 1.387 . S
C555 C557 1.390 1_455 S
C555 H559 0.950 . S
H556 C552 0.950 . S
C557 C555 1.390 1_655 S
C557 C558 1.387 . S
C557 H560 0.950 . S
C558 C557 1.387 . S
C558 C561 1.387 . S
H559 C555 0.950 . S
H560 C557 0.950 . S
C561 C552 1.390 1_655 S
C561 H554 0.950 . S
C561 C558 1.387 . S
C562 C563 1.387 . S
C562 H566 0.950 . S
C562 C571 1.390 1_545 S
C563 C562 1.387 . S
C563 C565 1.387 . S
H564 C571 0.950 . S
C565 C563 1.387 . S
C565 C567 1.390 1_545 S
C565 H569 0.950 . S
H566 C562 0.950 . S
C567 C565 1.390 1_565 S
C567 C568 1.387 . S
C567 H570 0.950 . S
C568 C567 1.387 . S
C568 C571 1.387 . S
H569 C565 0.950 . S
H570 C567 0.950 . S
C571 C562 1.390 1_565 S
C571 H564 0.950 . S
C571 C568 1.387 . S
C572 C573 1.387 . S
C572 H576 0.950 . S
C572 C581 1.390 1_655 S
C573 C572 1.387 . S
C573 C575 1.387 . S
H574 C581 0.950 . S
C575 C573 1.387 . S
C575 C577 1.390 1_655 S
C575 H579 0.950 . S
H576 C572 0.950 . S
C577 C575 1.390 1_455 S
C577 C578 1.387 . S
C577 H580 0.950 . S
C578 C577 1.387 . S
C578 C581 1.387 . S
H579 C575 0.950 . S
H580 C577 0.950 . S
C581 C572 1.390 1_455 S
C581 H574 0.950 . S
C581 C578 1.387 . S
C582 C583 1.387 . S
C582 H586 0.950 . S
C582 C591 1.390 1_545 S
C583 C582 1.387 . S
C583 C585 1.387 . S
H584 C591 0.950 . S
C585 C583 1.387 . S
C585 C587 1.390 1_545 S
C585 H589 0.950 . S
H586 C582 0.950 . S
C587 C585 1.390 1_565 S
C587 C588 1.387 . S
C587 H590 0.950 . S
C588 C587 1.387 . S
C588 C591 1.387 . S
H589 C585 0.950 . S
H590 C587 0.950 . S
C591 C582 1.390 1_565 S
C591 H584 0.950 . S
C591 C588 1.387 . S
C592 C593 1.387 . S
C592 H596 0.950 . S
C592 C601 1.390 1_565 S
C593 C592 1.387 . S
C593 C595 1.387 . S
H594 C601 0.950 . S
C595 C593 1.387 . S
C595 C597 1.390 1_565 S
C595 H599 0.950 . S
H596 C592 0.950 . S
C597 C595 1.390 1_545 S
C597 C598 1.387 . S
C597 H600 0.950 . S
C598 C597 1.387 . S
C598 C601 1.387 . S
H599 C595 0.950 . S
H600 C597 0.950 . S
C601 C592 1.390 1_545 S
C601 H594 0.950 . S
C601 C598 1.387 . S
C602 C603 1.387 . S
C602 H606 0.950 . S
C602 C611 1.390 1_655 S
C603 C602 1.387 . S
C603 C605 1.387 . S
H604 C611 0.950 . S
C605 C603 1.387 . S
C605 C607 1.390 1_655 S
C605 H609 0.950 . S
H606 C602 0.950 . S
C607 C605 1.390 1_455 S
C607 C608 1.387 . S
C607 H610 0.950 . S
C608 C607 1.387 . S
C608 C611 1.387 . S
H609 C605 0.950 . S
H610 C607 0.950 . S
C611 C602 1.390 1_455 S
C611 H604 0.950 . S
C611 C608 1.387 . S
C612 C613 1.387 . S
C612 H616 0.950 . S
C612 C621 1.390 1_565 S
C613 C612 1.387 . S
C613 C615 1.387 . S
H614 C621 0.950 . S
C615 C613 1.387 . S
C615 C617 1.390 1_565 S
C615 H619 0.950 . S
H616 C612 0.950 . S
C617 C615 1.390 1_545 S
C617 C618 1.387 . S
C617 H620 0.950 . S
C618 C617 1.387 . S
C618 C621 1.387 . S
H619 C615 0.950 . S
H620 C617 0.950 . S
C621 C612 1.390 1_545 S
C621 H614 0.950 . S
C621 C618 1.387 . S
C622 C623 1.387 . S
C622 H626 0.950 . S
C622 C631 1.390 1_655 S
C623 C622 1.387 . S
C623 C625 1.387 . S
H624 C631 0.950 . S
C625 C623 1.387 . S
C625 C627 1.390 1_655 S
C625 H629 0.950 . S
H626 C622 0.950 . S
C627 C625 1.390 1_455 S
C627 C628 1.387 . S
C627 H630 0.950 . S
C628 C627 1.387 . S
C628 C631 1.387 . S
H629 C625 0.950 . S
H630 C627 0.950 . S
C631 C622 1.390 1_455 S
C631 H624 0.950 . S
C631 C628 1.387 . S
C632 C633 1.387 . S
C632 H636 0.950 . S
C632 C641 1.390 1_556 S
C633 C632 1.387 . S
C633 C635 1.387 . S
H634 C641 0.950 . S
C635 C633 1.387 . S
C635 C637 1.390 1_556 S
C635 H639 0.950 . S
H636 C632 0.950 . S
C637 C635 1.390 1_554 S
C637 C638 1.387 . S
C637 H640 0.950 . S
C638 C637 1.387 . S
C638 C641 1.387 . S
H639 C635 0.950 . S
H640 C637 0.950 . S
C641 C632 1.390 1_554 S
C641 H634 0.950 . S
C641 C638 1.387 . S
C642 C643 1.387 . S
C642 H646 0.950 . S
C642 C651 1.390 1_556 S
C643 C642 1.387 . S
C643 C645 1.387 . S
H644 C651 0.950 . S
C645 C643 1.387 . S
C645 C647 1.390 1_556 S
C645 H649 0.950 . S
H646 C642 0.950 . S
C647 C645 1.390 1_554 S
C647 C648 1.387 . S
C647 H650 0.950 . S
C648 C647 1.387 . S
C648 C651 1.387 . S
H649 C645 0.950 . S
H650 C647 0.950 . S
C651 C642 1.390 1_554 S
C651 H644 0.950 . S
C651 C648 1.387 . S
C652 C653 1.387 . S
C652 H656 0.950 . S
C652 C661 1.390 1_556 S
C653 C652 1.387 . S
C653 C655 1.387 . S
H654 C661 0.950 . S
C655 C653 1.387 . S
C655 C657 1.390 1_556 S
C655 H659 0.950 . S
H656 C652 0.950 . S
C657 C655 1.390 1_554 S
C657 C658 1.387 . S
C657 H660 0.950 . S
C658 C657 1.387 . S
C658 C661 1.387 . S
H659 C655 0.950 . S
H660 C657 0.950 . S
C661 C652 1.390 1_554 S
C661 H654 0.950 . S
C661 C658 1.387 . S
C662 C663 1.387 . S
C662 H666 0.950 . S
C662 C671 1.390 1_556 S
C663 C662 1.387 . S
C663 C665 1.387 . S
H664 C671 0.950 . S
C665 C663 1.387 . S
C665 C667 1.390 1_556 S
C665 H669 0.950 . S
H666 C662 0.950 . S
C667 C665 1.390 1_554 S
C667 C668 1.387 . S
C667 H670 0.950 . S
C668 C667 1.387 . S
C668 C671 1.387 . S
H669 C665 0.950 . S
H670 C667 0.950 . S
C671 C662 1.390 1_554 S
C671 H664 0.950 . S
C671 C668 1.387 . S
C672 C673 1.387 . S
C672 H676 0.950 . S
C672 C681 1.390 . S
C673 C672 1.387 . S
C673 C675 1.387 . S
H674 C681 0.950 . S
C675 C673 1.387 . S
C675 C677 1.390 . S
C675 H679 0.950 . S
H676 C672 0.950 . S
C677 C675 1.390 . S
C677 C678 1.387 . S
C677 H680 0.950 . S
C678 C677 1.387 . S
C678 C681 1.387 . S
H679 C675 0.950 . S
H680 C677 0.950 . S
C681 C672 1.390 . S
C681 H674 0.950 . S
C681 C678 1.387 . S
C682 C683 1.387 . S
C682 H686 0.950 . S
C682 C691 1.390 . S
C683 C682 1.387 . S
C683 C685 1.387 . S
H684 C691 0.950 . S
C685 C683 1.387 . S
C685 C687 1.390 . S
C685 H689 0.950 . S
H686 C682 0.950 . S
C687 C685 1.390 . S
C687 C688 1.387 . S
C687 H690 0.950 . S
C688 C687 1.387 . S
C688 C691 1.387 . S
H689 C685 0.950 . S
H690 C687 0.950 . S
C691 C682 1.390 . S
C691 H684 0.950 . S
C691 C688 1.387 . S
C692 C693 1.387 . S
C692 H696 0.950 . S
C692 C701 1.390 . S
C693 C692 1.387 . S
C693 C695 1.387 . S
H694 C701 0.950 . S
C695 C693 1.387 . S
C695 C697 1.390 . S
C695 H699 0.950 . S
H696 C692 0.950 . S
C697 C695 1.390 . S
C697 C698 1.387 . S
C697 H700 0.950 . S
C698 C697 1.387 . S
C698 C701 1.387 . S
H699 C695 0.950 . S
H700 C697 0.950 . S
C701 C692 1.390 . S
C701 H694 0.950 . S
C701 C698 1.387 . S
C702 C703 1.387 . S
C702 H706 0.950 . S
C702 C711 1.390 . S
C703 C702 1.387 . S
C703 C705 1.387 . S
H704 C711 0.950 . S
C705 C703 1.387 . S
C705 C707 1.390 . S
C705 H709 0.950 . S
H706 C702 0.950 . S
C707 C705 1.390 . S
C707 C708 1.387 . S
C707 H710 0.950 . S
C708 C707 1.387 . S
C708 C711 1.387 . S
H709 C705 0.950 . S
H710 C707 0.950 . S
C711 C702 1.390 . S
C711 H704 0.950 . S
C711 C708 1.387 . S
C712 C713 1.387 . S
C712 H716 0.950 . S
C712 C721 1.390 . S
C713 C712 1.387 . S
C713 C715 1.387 . S
H714 C721 0.950 . S
C715 C713 1.387 . S
C715 C717 1.390 . S
C715 H719 0.950 . S
H716 C712 0.950 . S
C717 C715 1.390 . S
C717 C718 1.387 . S
C717 H720 0.950 . S
C718 C717 1.387 . S
C718 C721 1.387 . S
H719 C715 0.950 . S
H720 C717 0.950 . S
C721 C712 1.390 . S
C721 H714 0.950 . S
C721 C718 1.387 . S
C722 C723 1.387 . S
C722 H726 0.950 . S
C722 C731 1.390 . S
C723 C722 1.387 . S
C723 C725 1.387 . S
H724 C731 0.950 . S
C725 C723 1.387 . S
C725 C727 1.390 . S
C725 H729 0.950 . S
H726 C722 0.950 . S
C727 C725 1.390 . S
C727 C728 1.387 . S
C727 H730 0.950 . S
C728 C727 1.387 . S
C728 C731 1.387 . S
H729 C725 0.950 . S
H730 C727 0.950 . S
C731 C722 1.390 . S
C731 H724 0.950 . S
C731 C728 1.387 . S
C732 C733 1.387 . S
C732 H736 0.950 . S
C732 C741 1.390 . S
C733 C732 1.387 . S
C733 C735 1.387 . S
H734 C741 0.950 . S
C735 C733 1.387 . S
C735 C737 1.390 . S
C735 H739 0.950 . S
H736 C732 0.950 . S
C737 C735 1.390 . S
C737 C738 1.387 . S
C737 H740 0.950 . S
C738 C737 1.387 . S
C738 C741 1.387 . S
H739 C735 0.950 . S
H740 C737 0.950 . S
C741 C732 1.390 . S
C741 H734 0.950 . S
C741 C738 1.387 . S
C742 C743 1.387 . S
C742 H746 0.950 . S
C742 C751 1.390 . S
C743 C742 1.387 . S
C743 C745 1.387 . S
H744 C751 0.950 . S
C745 C743 1.387 . S
C745 C747 1.390 . S
C745 H749 0.950 . S
H746 C742 0.950 . S
C747 C745 1.390 . S
C747 C748 1.387 . S
C747 H750 0.950 . S
C748 C747 1.387 . S
C748 C751 1.387 . S
H749 C745 0.950 . S
H750 C747 0.950 . S
C751 C742 1.390 . S
C751 H744 0.950 . S
C751 C748 1.387 . S
C752 C753 1.387 . S
C752 H756 0.950 . S
C752 C761 1.390 . S
C753 C752 1.387 . S
C753 C755 1.387 . S
H754 C761 0.950 . S
C755 C753 1.387 . S
C755 C757 1.390 . S
C755 H759 0.950 . S
H756 C752 0.950 . S
C757 C755 1.390 . S
C757 C758 1.387 . S
C757 H760 0.950 . S
C758 C757 1.387 . S
C758 C761 1.387 . S
H759 C755 0.950 . S
H760 C757 0.950 . S
C761 C752 1.390 . S
C761 H754 0.950 . S
C761 C758 1.387 . S
C762 C763 1.387 . S
C762 H766 0.950 . S
C762 C771 1.390 . S
C763 C762 1.387 . S
C763 C765 1.387 . S
H764 C771 0.950 . S
C765 C763 1.387 . S
C765 C767 1.390 . S
C765 H769 0.950 . S
H766 C762 0.950 . S
C767 C765 1.390 . S
C767 C768 1.387 . S
C767 H770 0.950 . S
C768 C767 1.387 . S
C768 C771 1.387 . S
H769 C765 0.950 . S
H770 C767 0.950 . S
C771 C762 1.390 . S
C771 H764 0.950 . S
C771 C768 1.387 . S
C772 C773 1.387 . S
C772 H776 0.950 . S
C772 C781 1.390 . S
C773 C772 1.387 . S
C773 C775 1.387 . S
H774 C781 0.950 . S
C775 C773 1.387 . S
C775 C777 1.390 . S
C775 H779 0.950 . S
H776 C772 0.950 . S
C777 C775 1.390 . S
C777 C778 1.387 . S
C777 H780 0.950 . S
C778 C777 1.387 . S
C778 C781 1.387 . S
H779 C775 0.950 . S
H780 C777 0.950 . S
C781 C772 1.390 . S
C781 H774 0.950 . S
C781 C778 1.387 . S
C782 C783 1.387 . S
C782 H786 0.950 . S
C782 C791 1.390 . S
C783 C782 1.387 . S
C783 C785 1.387 . S
H784 C791 0.950 . S
C785 C783 1.387 . S
C785 C787 1.390 . S
C785 H789 0.950 . S
H786 C782 0.950 . S
C787 C785 1.390 . S
C787 C788 1.387 . S
C787 H790 0.950 . S
C788 C787 1.387 . S
C788 C791 1.387 . S
H789 C785 0.950 . S
H790 C787 0.950 . S
C791 C782 1.390 . S
C791 H784 0.950 . S
C791 C788 1.387 . S
C313 C153 1.586 . S
C318 C3 1.602 . S
C323 C16 1.602 . S
C328 C108 1.588 . S
C333 C31 1.604 . S
C338 C121 1.586 . S
C343 C42 1.604 . S
C348 C134 1.586 . S
C353 C173 1.588 . S
C358 C55 1.603 . S
C363 C68 1.604 . S
C368 C186 1.586 . S
C373 C199 1.586 . S
C378 C81 1.604 . S
C383 C160 1.585 . S
C388 C96 1.604 . S
C393 C75 1.587 . S
C398 C109 1.602 . S
C403 C88 1.588 . S
C408 C122 1.602 . S
C413 C135 1.602 . S
C418 C95 1.588 . S
C423 C62 1.587 . S
C428 C146 1.602 . S
C433 C49 1.586 . S
C438 C161 1.604 . S
C443 C174 1.602 . S
C448 C10 1.587 . S
C453 C187 1.602 . S
C458 C23 1.588 . S
C463 C200 1.602 . S
C468 C30 1.587 . S
C473 C213 1.602 . S
C478 C309 1.588 . S
C483 C264 1.586 . S
C488 C224 1.604 . S
C493 C239 1.602 . S
C498 C231 1.588 . S
C503 C250 1.602 . S
C508 C238 1.588 . S
C513 C257 1.588 . S
C518 C265 1.602 . S
C523 C278 1.604 . S
C528 C290 1.586 . S
C533 C212 1.587 . S
C538 C291 1.604 . S
C543 C277 1.588 . S
C548 C302 1.603 . S
C553 C5 1.621 . S
C558 C83 1.621 . S
C563 C18 1.622 . S
C568 C94 1.622 . S
C573 C29 1.621 . S
C578 C57 1.621 . S
C583 C70 1.621 . S
C588 C44 1.621 . S
C593 C133 1.621 . S
C598 C107 1.621 . S
C603 C120 1.621 . S
C608 C148 1.621 . S
C613 C159 1.622 . S
C618 C185 1.622 . S
C623 C198 1.622 . S
C628 C172 1.622 . S
C633 C226 1.621 . S
C638 C211 1.621 . S
C643 C237 1.621 . S
C648 C304 1.621 . S
C653 C252 1.622 . S
C658 C276 1.622 . S
C663 C263 1.622 . S
C668 C289 1.622 . S
C673 C4 1.143 . S
C678 C69 1.143 . S
C683 C17 1.143 . S
C688 C82 1.143 . S
C693 C36 1.143 . S
C698 C101 1.143 . S
C703 C56 1.143 . S
C708 C43 1.143 . S
C713 C114 1.143 . S
C718 C303 1.143 . S
C723 C127 1.143 . S
C728 C283 1.143 . S
C733 C296 1.143 . S
C738 C140 1.143 . S
C743 C147 1.143 . S
C748 C218 1.143 . S
C753 C270 1.143 . S
C758 C166 1.143 . S
C763 C225 1.143 . S
C768 C179 1.143 . S
C773 C192 1.143 . S
C778 C244 1.143 . S
C783 C251 1.143 . S
C788 C205 1.143 . S
