# Generated by pormake.
# Topology sxc, (6)-cn, num edge types: 1
# Building blocks:
#     Node 0, Type 0, BuildingBlock: PAMTUU_clean_sbu_0, # of connection points: 6
#     Node 1, Type 0, BuildingBlock: PAMTUU_clean_sbu_0, # of connection points: 6
#     Node 2, Type 0, BuildingBlock: PAMTUU_clean_sbu_0, # of connection points: 6
#     Edge 3, Type (0, 0), BuildingBlock: XUDNAN_clean_linker_2, # of connection points: 2
#     Edge 4, Type (0, 0), BuildingBlock: XUDNAN_clean_linker_2, # of connection points: 2
#     Edge 5, Type (0, 0), BuildingBlock: XUDNAN_clean_linker_2, # of connection points: 2
#     Edge 6, Type (0, 0), BuildingBlock: XUDNAN_clean_linker_2, # of connection points: 2
#     Edge 7, Type (0, 0), BuildingBlock: XUDNAN_clean_linker_2, # of connection points: 2
#     Edge 8, Type (0, 0), BuildingBlock: XUDNAN_clean_linker_2, # of connection points: 2
#     Edge 9, Type (0, 0), BuildingBlock: XUDNAN_clean_linker_2, # of connection points: 2
#     Edge 10, Type (0, 0), BuildingBlock: XUDNAN_clean_linker_2, # of connection points: 2
#     Edge 11, Type (0, 0), BuildingBlock: XUDNAN_clean_linker_2, # of connection points: 2
# Relax obj value: 0.342
# Max RMSD: 0.128
# Mean RMSD: 0.098
data_MOF--net-sxc--node1-PAMTUU_clean_sbu_0--edge1-XUDNAN_clean_linker_2
_symmetry_space_group_name_H-M    P1
_symmetry_Int_Tables_number       1
_symmetry_cell_setting            triclinic
loop_
_symmetry_equiv_pos_as_xyz
'x, y, z'
_cell_length_a     22.738734
_cell_length_b     16.068858
_cell_length_c     45.756299
_cell_angle_alpha  87.246049
_cell_angle_beta   96.949362
_cell_angle_gamma 126.22588
loop_
_atom_site_label
_atom_site_type_symbol
_atom_site_fract_x
_atom_site_fract_y
_atom_site_fract_z
_atom_type_partial_charge
Tb0 Tb 1.0123 0.99352 0.96123 0.0
Tb1 Tb 0.18127 0.13337 -0.01446 0.0
C2 C 0.13215 0.09338 0.91599 0.0
C3 C 0.82909 0.90239 0.96796 0.0
C4 C 0.76594 0.9389 0.01042 0.0
C5 C 0.78114 0.99208 0.98394 0.0
C6 C 0.81291 0.97442 0.96293 0.0
C7 C 0.81007 0.84563 -0.00617 0.0
C8 C 0.77936 0.86412 0.01482 0.0
C9 C 0.87652 0.89911 0.94927 0.0
O10 O 1.03894 0.88272 0.95705 0.0
O11 O 0.1532 0.9722 0.98318 0.0
O12 O 0.12361 0.12555 0.02153 0.0
O13 O 1.01608 0.97146 0.0087 0.0
O14 O 0.29256 0.25803 -0.01375 0.0
O15 O 0.25532 0.14546 0.02032 0.0
O16 O 0.16235 0.25591 0.97798 0.0
O17 O 1.03723 0.14757 0.97011 0.0
O18 O 1.06252 1.03477 0.92034 0.0
O19 O 0.18567 0.13647 0.93791 0.0
C20 C 0.0955 0.88496 0.9697 0.0
O21 O 0.924 0.9857 0.93727 0.0
O22 O 0.90661 0.85474 0.96057 0.0
C23 C 1.06179 1.04353 0.02869 0.0
C24 C 0.3393 0.31858 0.03511 0.0
C25 C 0.40272 0.49148 0.07277 0.0
C26 C 0.44228 0.4524 0.06775 0.0
C27 C 0.41076 0.36658 0.04894 0.0
C28 C 0.29763 0.35195 0.04203 0.0
C29 C 0.32908 0.43779 0.06072 0.0
C30 C 0.30849 0.23671 0.0126 0.0
C31 C 0.09855 0.24286 0.97366 0.0
H32 H 0.76975 1.04847 0.97977 0.0
H33 H 0.82712 1.01963 0.94324 0.0
H34 H 0.82126 0.78921 -0.00151 0.0
H35 H 0.76558 0.81901 0.03453 0.0
H36 H 0.49963 0.49329 0.07629 0.0
H37 H 0.44331 0.34104 0.04406 0.0
H38 H 0.24198 0.31506 0.0318 0.0
H39 H 0.29765 0.46666 0.06405 0.0
Tb40 Tb 0.15724 0.15277 0.301 0.0
Tb41 Tb 0.98508 1.00517 0.30627 0.0
C42 C 0.09953 0.09581 0.36291 0.0
C43 C 0.35368 0.26232 0.31244 0.0
C44 C 0.46272 0.24588 0.34141 0.0
C45 C 0.46423 0.33261 0.34663 0.0
C46 C 0.41016 0.34079 0.33219 0.0
C47 C 0.35278 0.17642 0.30689 0.0
C48 C 0.40697 0.16867 0.32108 0.0
C49 C 0.29392 0.26801 0.29926 0.0
O50 O 0.13274 0.99679 0.29894 0.0
O51 O 1.01251 0.89063 0.30832 0.0
O52 O 0.99426 0.9884 0.26021 0.0
O53 O 0.10632 0.14056 0.25631 0.0
O54 O 0.89969 0.88604 0.32877 0.0
O55 O 0.87746 0.95453 0.2913 0.0
O56 O 1.00645 0.16203 0.30187 0.0
O57 O 0.13193 0.26495 0.30524 0.0
O58 O 0.14855 0.1091 0.34701 0.0
O59 O 1.03686 1.07356 0.35029 0.0
C60 C 1.07379 0.90289 0.30357 0.0
O61 O 0.24713 0.19878 0.27884 0.0
O62 O 0.26121 0.28158 0.31796 0.0
C63 C 1.04435 1.05879 0.244 0.0
C64 C 0.81451 0.92178 0.33199 0.0
C65 C 0.75386 1.00246 0.35969 0.0
C66 C 0.71282 0.92975 0.33617 0.0
C67 C 0.74313 0.8899 0.32236 0.0
C68 C 0.85373 0.98937 0.35664 0.0
C69 C 0.82361 1.02931 0.37039 0.0
C70 C 0.85183 0.8969 0.31412 0.0
C71 C 1.0699 0.25602 0.30357 0.0
H72 H 0.50642 0.39321 0.3622 0.0
H73 H 0.41163 0.40752 0.33685 0.0
H74 H 0.30992 0.11453 0.2918 0.0
H75 H 0.40533 0.10221 0.3159 0.0
H76 H 0.65923 0.90874 0.32721 0.0
H77 H 0.71244 0.83863 0.30322 0.0
H78 H 0.90907 1.01536 0.36445 0.0
H79 H 0.85608 1.08459 0.38858 0.0
Tb80 Tb 0.12643 0.22642 0.63794 0.0
Tb81 Tb 0.13956 1.06037 0.63928 0.0
C82 C 0.12679 0.14055 0.58029 0.0
C83 C 1.03256 0.35391 0.63333 0.0
C84 C 0.90532 0.3353 0.64258 0.0
C85 C 0.90711 0.292 0.61708 0.0
C86 C 0.97008 0.30129 0.61246 0.0
C87 C 1.03225 0.40256 0.65797 0.0
C88 C 0.969 0.39319 0.6626 0.0
C89 C 0.0967 0.35498 0.63003 0.0
O90 O 0.99434 1.07251 0.6389 0.0
O91 O 1.00695 0.94525 0.63858 0.0
O92 O 0.13635 1.07512 0.68629 0.0
O93 O 0.15645 0.23089 0.68513 0.0
O94 O 0.1745 0.99022 0.61609 0.0
O95 O 0.13735 0.93752 0.65875 0.0
O96 O 0.27094 0.21323 0.6399 0.0
O97 O 0.2605 0.34256 0.63973 0.0
O98 O 0.16434 0.2247 0.59651 0.0
O99 O 0.09155 1.05477 0.59429 0.0
C100 C 0.95557 0.96463 0.63886 0.0
O101 O 0.13149 0.3509 0.65423 0.0
O102 O 0.0882 0.29453 0.60934 0.0
C103 C 0.15021 0.1553 0.70008 0.0
C104 C 0.24414 0.95714 0.649 0.0
C105 C 0.39432 1.04411 0.66073 0.0
C106 C 0.35942 1.06032 0.68064 0.0
C107 C 0.28507 1.01772 0.67476 0.0
C108 C 0.27747 0.93437 0.63025 0.0
C109 C 0.3521 0.97765 0.63603 0.0
C110 C 0.173 0.93676 0.63866 0.0
C111 C 0.31097 0.321 0.63987 0.0
H112 H 0.8591 0.24877 0.601 0.0
H113 H 0.96888 0.26468 0.5929 0.0
H114 H 1.08013 0.44502 0.67414 0.0
H115 H 0.96892 0.42731 0.68243 0.0
H116 H 0.39027 0.10965 0.70011 0.0
H117 H 0.26091 1.03756 0.68947 0.0
H118 H 0.24707 0.88914 0.61007 0.0
H119 H 0.37751 0.96441 0.6201 0.0
H120 H 0.20318 0.46403 -0.01071 0.0
H121 H 0.97668 0.23454 0.95389 0.0
H122 H 0.956 0.36817 0.94941 0.0
H123 H 0.16318 0.61273 0.03192 0.0
H124 H 0.24448 0.73791 0.025 0.0
H125 H 0.24492 0.626 0.02535 0.0
H126 H 0.28551 0.66557 0.9733 0.0
H127 H 0.28515 0.77755 0.97269 0.0
H128 H 0.23174 0.6794 0.94387 0.0
H129 H 0.95626 0.52675 0.94723 0.0
H130 H 0.97571 0.69339 0.94952 0.0
H131 H 0.20074 0.83672 -0.01206 0.0
C132 C 0.14916 0.44155 0.9805 0.0
C133 C 0.09172 0.33465 0.97187 0.0
C134 C 1.02237 0.31265 0.96082 0.0
C135 C 1.00977 0.38939 0.95808 0.0
C136 C 1.06641 0.492 0.9666 0.0
C137 C 0.13493 0.5189 0.97784 0.0
C138 C 0.18498 0.63634 -0.01418 0.0
C139 C 0.21096 0.65432 0.019 0.0
C140 C 0.25078 0.69309 0.96785 0.0
C141 C 0.13408 0.67053 0.97713 0.0
C142 C 1.06605 0.5847 0.96598 0.0
C143 C 1.00947 0.59385 0.95605 0.0
C144 C 1.02146 0.6909 0.95744 0.0
C145 C 0.08982 0.78272 0.9689 0.0
C146 C 0.14725 0.77054 0.97899 0.0
H147 H 0.44379 1.07126 0.36295 0.0
H148 H 0.61079 0.39741 0.35214 0.0
H149 H 0.70696 0.37323 0.36849 0.0
H150 H 0.5506 1.02714 0.42475 0.0
H151 H 0.51463 0.90336 0.40851 0.0
H152 H 0.45955 0.95099 0.40515 0.0
H153 H 0.44296 0.92806 0.34837 0.0
H154 H 0.49795 0.88112 0.3515 0.0
H155 H 0.5231 0.99045 0.32905 0.0
H156 H 0.78308 0.3091 0.37453 0.0
H157 H 0.83219 0.21057 0.36801 0.0
H158 H 0.61624 0.92417 0.37277 0.0
C159 C 0.50061 0.13813 0.36479 0.0
C160 C 0.51986 0.23611 0.35625 0.0
C161 C 0.59469 0.32186 0.359 0.0
C162 C 0.64973 0.30881 0.36831 0.0
C163 C 0.62889 0.20984 0.375 0.0
C164 C 0.55593 0.12597 0.37356 0.0
C165 C 0.54759 1.02546 0.37667 0.0
C166 C 0.51626 0.97371 0.4055 0.0
C167 C 0.50018 0.9521 0.3498 0.0
C168 C 0.6269 1.06517 0.37782 0.0
C169 C 0.67321 0.17193 0.37791 0.0
C170 C 0.74778 0.22575 0.3754 0.0
C171 C 0.77523 0.16908 0.37173 0.0
C172 C 0.72789 1.05982 0.37014 0.0
C173 C 0.65352 1.00762 0.37426 0.0
H174 H 0.79341 0.92641 0.64401 0.0
H175 H 0.86546 0.73587 0.63384 0.0
H176 H 0.73755 0.58242 0.63302 0.0
H177 H 0.6341 0.7264 0.69193 0.0
H178 H 0.57443 0.76069 0.67673 0.0
H179 H 0.67283 0.8527 0.67753 0.0
H180 H 0.65163 0.87 0.62135 0.0
H181 H 0.55417 0.77339 0.62153 0.0
H182 H 0.60409 0.75633 0.5977 0.0
H183 H 0.56648 0.41065 0.63325 0.0
H184 H 0.43262 0.3014 0.6346 0.0
H185 H 0.44488 0.57653 0.64454 0.0
C186 C 0.78523 0.85356 0.64142 0.0
C187 C 0.85628 0.86123 0.63882 0.0
C188 C 0.82572 0.75112 0.63594 0.0
C189 C 0.74713 0.65634 0.63541 0.0
C190 C 0.68258 0.65365 0.63784 0.0
C191 C 0.70254 0.7535 0.64098 0.0
C192 C 0.62218 0.72911 0.64395 0.0
C193 C 0.62602 0.76988 0.67429 0.0
C194 C 0.6071 0.78572 0.61972 0.0
C195 C 0.55436 0.60476 0.64117 0.0
C196 C 0.59245 0.56312 0.63798 0.0
C197 C 0.54211 0.45044 0.63576 0.0
C198 C 0.45984 0.38371 0.6366 0.0
C199 C 0.41132 0.41463 0.63962 0.0
C200 C 0.46783 0.53491 0.64194 0.0
H201 H 0.77256 0.14878 0.63801 0.0
H202 H 0.88075 0.4701 0.66231 0.0
H203 H 0.76173 0.42864 0.6728 0.0
H204 H 0.60928 0.10325 0.60088 0.0
H205 H 0.55098 0.97311 0.61339 0.0
H206 H 0.64514 1.02926 0.60915 0.0
H207 H 0.6673 0.99238 0.66377 0.0
H208 H 0.57239 0.93394 0.6675 0.0
H209 H 0.64398 1.03754 0.69244 0.0
H210 H 0.62964 0.35193 0.67815 0.0
H211 H 0.4952 0.24789 0.67739 0.0
H212 H 0.47612 0.97654 0.65054 0.0
C213 C 0.77121 0.21063 0.6454 0.0
C214 C 0.83538 0.3127 0.64918 0.0
C215 C 0.83192 0.39128 0.65942 0.0
C216 C 0.76476 0.36846 0.66538 0.0
C217 C 0.70233 0.26672 0.66122 0.0
C218 C 0.70516 0.18923 0.65149 0.0
C219 C 0.63041 0.08668 0.64812 0.0
C220 C 0.60763 1.04574 0.61598 0.0
C221 C 0.62834 1.00792 0.66925 0.0
C222 C 0.58452 0.11858 0.65705 0.0
C223 C 0.62691 0.22253 0.66468 0.0
C224 C 0.59603 0.27023 0.6726 0.0
C225 C 0.51966 0.21025 0.67229 0.0
C226 C 0.47522 0.10385 0.66408 0.0
C227 C 0.50854 1.05762 0.65682 0.0
H228 H 0.64418 0.93308 0.00047 0.0
H229 H 0.80331 0.96562 0.06992 0.0
H230 H 0.71555 0.90783 0.1058 0.0
H231 H 0.52585 0.95693 0.05919 0.0
H232 H 0.44427 0.86683 0.03498 0.0
H233 H 0.52707 0.96812 0.01987 0.0
H234 H 0.52051 0.83206 -0.01092 0.0
H235 H 0.43884 0.73253 0.00386 0.0
H236 H 0.51638 0.7268 0.0074 0.0
H237 H 0.60721 0.76838 0.12446 0.0
H238 H 0.50176 0.586 0.12219 0.0
H239 H 0.4005 0.63995 0.04506 0.0
C240 C 0.6615 0.93508 0.02367 0.0
C241 C 0.72913 0.95148 0.03251 0.0
C242 C 0.75103 0.95208 0.06276 0.0
C243 C 0.70139 0.91993 0.08336 0.0
C244 C 0.63041 0.88879 0.07343 0.0
C245 C 0.61142 0.9015 0.04437 0.0
C246 C 0.52877 0.84048 0.03752 0.0
C247 C 0.50513 0.91239 0.03794 0.0
C248 C 0.49962 0.77919 0.0078 0.0
C249 C 0.50511 0.77162 0.06393 0.0
C250 C 0.56389 0.80649 0.0856 0.0
C251 C 0.56035 0.74258 0.10831 0.0
C252 C 0.50013 0.63848 0.10693 0.0
C253 C 0.44386 0.5999 0.08325 0.0
C254 C 0.44276 0.66927 0.06359 0.0
H255 H 0.96264 0.30152 0.3067 0.0
H256 H 0.19363 0.45196 0.29948 0.0
H257 H 0.21514 0.61997 0.299 0.0
H258 H 0.94593 0.4821 0.2592 0.0
H259 H 0.88647 0.48569 0.28098 0.0
H260 H 0.88572 0.37286 0.28078 0.0
H261 H 0.91291 0.38656 0.33735 0.0
H262 H 0.91376 0.49942 0.33775 0.0
H263 H 0.99192 0.50524 0.35477 0.0
H264 H 0.21649 0.77857 0.2989 0.0
H265 H 0.19719 0.91309 0.29959 0.0
H266 H 0.96607 0.67886 0.30744 0.0
C267 C 1.01782 0.36955 0.30494 0.0
C268 C 1.07625 0.35882 0.30311 0.0
C269 C 0.147 0.45316 0.301 0.0
C270 C 0.16023 0.55111 0.30067 0.0
C271 C 0.10273 0.55889 0.30254 0.0
C272 C 1.0326 0.4709 0.3047 0.0
C273 C 0.98166 0.50468 0.30657 0.0
C274 C 0.92133 0.45854 0.28032 0.0
C275 C 0.94804 0.472 0.33585 0.0
C276 C 1.0341 0.62426 0.30507 0.0
C277 C 0.10364 0.65241 0.3027 0.0
C278 C 0.16202 0.75657 0.30076 0.0
C279 C 0.15016 0.83378 0.30115 0.0
C280 C 1.08006 0.8108 0.30356 0.0
C281 C 1.0209 0.70228 0.30562 0.0
H282 H 0.14091 0.17644 0.20278 0.0
H283 H 0.91885 0.90606 0.21042 0.0
H284 H 0.89822 0.87607 0.15656 0.0
H285 H 0.0995 0.26191 0.13301 0.0
H286 H 0.18379 0.30341 0.11933 0.0
H287 H 0.18035 0.30628 0.15839 0.0
H288 H 0.22703 0.19293 0.1665 0.0
H289 H 0.23043 0.18973 0.12748 0.0
H290 H 0.17793 1.07082 0.14675 0.0
H291 H 0.90244 0.87212 0.10146 0.0
H292 H 0.93173 0.89425 0.05013 0.0
H293 H 0.15108 0.16677 0.07782 0.0
C294 C 0.08766 0.11137 0.19316 0.0
C295 C 1.03143 1.04385 0.21114 0.0
C296 C 0.96291 0.9592 0.19739 0.0
C297 C 0.95058 0.94146 0.16669 0.0
C298 C 1.00721 1.00888 0.14972 0.0
C299 C 1.07443 0.09231 0.16245 0.0
C300 C 0.12667 0.1516 0.13925 0.0
C301 C 0.14887 0.26237 0.13739 0.0
C302 C 0.19452 0.1512 0.14537 0.0
C303 C 1.07859 0.08807 0.11155 0.0
C304 C 1.00977 1.00628 0.11807 0.0
C305 C 0.95619 0.93604 0.09618 0.0
C306 C 0.97342 0.9492 0.067 0.0
C307 C 1.04375 1.03212 0.0597 0.0
C308 C 0.09668 0.10266 0.08247 0.0
H309 H 1.00442 1.00419 0.40589 0.0
H310 H 0.23453 0.22429 0.39397 0.0
H311 H 0.26528 0.25876 0.44773 0.0
H312 H 1.00045 0.13678 0.46588 0.0
H313 H 0.94048 1.02161 0.48556 0.0
H314 H 0.93583 1.01529 0.44606 0.0
H315 H 0.95761 0.87403 0.45044 0.0
H316 H 0.96229 0.87986 0.48996 0.0
H317 H 1.03708 0.89871 0.47328 0.0
H318 H 0.27048 0.27861 0.50241 0.0
H319 H 0.25217 0.26811 0.55495 0.0
H320 H 1.02092 1.02228 0.53339 0.0
C321 C 1.06127 1.05953 0.41465 0.0
C322 C 0.11712 0.11204 0.39558 0.0
C323 C 0.19087 0.18292 0.40801 0.0
C324 C 0.20884 0.20332 0.43857 0.0
C325 C 0.15271 0.15072 0.45672 0.0
C326 C 1.08052 1.07888 0.44534 0.0
C327 C 1.03133 1.03036 0.47001 0.0
C328 C 0.97361 1.05234 0.46667 0.0
C329 C 0.99493 0.91381 0.47097 0.0
C330 C 0.08699 0.08713 0.49697 0.0
C331 C 0.1565 0.15726 0.48863 0.0
C332 C 0.21651 0.2229 0.50921 0.0
C333 C 0.20554 0.21658 0.53903 0.0
C334 C 0.13544 0.14363 0.54837 0.0
C335 C 1.0754 1.07757 0.52698 0.0
H336 H 1.06733 1.005 0.73945 0.0
H337 H 0.25673 0.3226 0.73488 0.0
H338 H 0.27686 0.33757 0.78935 0.0
H339 H 1.00169 1.05342 0.79978 0.0
H340 H 0.96756 0.93117 0.81657 0.0
H341 H 0.97156 0.94265 0.7774 0.0
H342 H 1.04983 0.87314 0.78106 0.0
H343 H 1.04632 0.86185 0.82029 0.0
H344 H 0.13369 0.9366 0.80583 0.0
H345 H 0.27842 0.3163 0.84472 0.0
H346 H 0.25197 0.2692 0.89619 0.0
H347 H 1.05384 0.97143 0.86538 0.0
C348 C 0.11339 1.07727 0.75001 0.0
C349 C 0.16119 0.16242 0.73291 0.0
C350 C 0.21972 0.25643 0.7475 0.0
C351 C 0.23172 0.26543 0.77846 0.0
C352 C 0.18369 0.18036 0.79472 0.0
C353 C 0.12484 0.08859 0.781 0.0
C354 C 1.07827 1.01166 0.80365 0.0
C355 C 1.00015 0.98307 0.79907 0.0
C356 C 1.07697 0.91509 0.80264 0.0
C357 C 0.12023 1.07423 0.83219 0.0
C358 C 0.18168 0.17063 0.82653 0.0
C359 C 0.23013 0.24126 0.84934 0.0
C360 C 0.21485 0.21357 0.87859 0.0
C361 C 0.15076 0.1168 0.88499 0.0
C362 C 0.1031 1.04625 0.8613 0.0
loop_
_geom_bond_atom_site_label_1
_geom_bond_atom_site_label_2
_geom_bond_distance
_geom_bond_site_symmetry_2
_ccdc_geom_bond_type
Tb0 C9 2.764 . S
Tb0 O10 2.325 . S
Tb0 O13 2.303 1_666 S
Tb0 O17 2.322 1_565 S
Tb0 O18 2.349 1_565 S
Tb0 O21 2.415 1_556 S
Tb0 O22 2.399 . S
Tb1 O11 2.322 1_545 S
Tb1 O12 2.349 . S
Tb1 O14 2.415 1_554 S
Tb1 O15 2.399 . S
Tb1 O16 2.325 . S
Tb1 O19 2.303 1_554 S
Tb1 C30 2.764 . S
C2 O18 1.261 1_455 S
C2 O19 1.257 . S
C3 C6 1.358 . S
C3 C7 1.332 1_556 S
C3 C9 1.504 . S
C4 C5 1.373 1_554 S
C4 C8 1.308 . S
C5 C4 1.373 1_556 S
C5 C6 1.429 . S
C5 H32 0.932 . S
C6 C3 1.358 . S
C6 C5 1.429 . S
C6 H33 0.930 . S
C7 C3 1.332 1_554 S
C7 C8 1.394 . S
C7 H34 0.932 . S
C8 C4 1.308 . S
C8 C7 1.394 . S
C8 H35 0.929 . S
C9 Tb0 2.764 . S
C9 C3 1.504 . S
C9 O21 1.239 1_556 S
C9 O22 1.263 . S
O10 Tb0 2.325 . S
O10 C20 1.236 1_656 S
O11 Tb1 2.322 1_565 S
O11 C20 1.257 . S
O12 Tb1 2.349 . S
O12 C23 1.261 . S
O13 Tb0 2.303 1_444 S
O13 C23 1.257 . S
O14 Tb1 2.415 1_556 S
O14 C30 1.239 1_556 S
O15 Tb1 2.399 . S
O15 C30 1.263 . S
O16 Tb1 2.325 . S
O16 C31 1.236 . S
O17 Tb0 2.322 1_545 S
O17 C31 1.257 1_656 S
O18 Tb0 2.349 1_545 S
O18 C2 1.261 1_655 S
O19 Tb1 2.303 1_556 S
O19 C2 1.257 . S
C20 O10 1.236 1_454 S
C20 O11 1.257 . S
O21 Tb0 2.415 1_554 S
O21 C9 1.239 1_554 S
O22 Tb0 2.399 . S
O22 C9 1.263 . S
C23 O12 1.261 . S
C23 O13 1.257 . S
C24 C27 1.358 . S
C24 C28 1.332 1_554 S
C24 C30 1.504 . S
C25 C26 1.373 . S
C25 C29 1.308 1_554 S
C26 C25 1.373 . S
C26 C27 1.429 . S
C26 H36 0.932 . S
C27 C24 1.358 . S
C27 C26 1.429 . S
C27 H37 0.930 . S
C28 C24 1.332 1_556 S
C28 C29 1.394 . S
C28 H38 0.932 . S
C29 C25 1.308 1_556 S
C29 C28 1.394 . S
C29 H39 0.929 . S
C30 Tb1 2.764 . S
C30 O14 1.239 1_554 S
C30 O15 1.263 . S
C30 C24 1.504 . S
C31 O16 1.236 . S
C31 O17 1.257 1_454 S
H32 C5 0.932 . S
H33 C6 0.930 . S
H34 C7 0.932 . S
H35 C8 0.929 . S
H36 C26 0.932 . S
H37 C27 0.930 . S
H38 C28 0.932 . S
H39 C29 0.929 . S
Tb40 C49 2.764 . S
Tb40 O50 2.325 1_545 S
Tb40 O53 2.303 . S
Tb40 O57 2.322 . S
Tb40 O58 2.349 . S
Tb40 O61 2.415 . S
Tb40 O62 2.399 . S
Tb41 O51 2.322 . S
Tb41 O52 2.349 . S
Tb41 O54 2.415 . S
Tb41 O55 2.399 . S
Tb41 O56 2.325 1_565 S
Tb41 O59 2.303 . S
Tb41 C70 2.764 . S
C42 O58 1.261 . S
C42 O59 1.257 1_445 S
C43 C46 1.358 . S
C43 C47 1.332 1_545 S
C43 C49 1.504 . S
C44 C45 1.373 . S
C44 C48 1.308 1_545 S
C45 C44 1.373 . S
C45 C46 1.429 . S
C45 H72 0.932 . S
C46 C43 1.358 . S
C46 C45 1.429 . S
C46 H73 0.930 . S
C47 C43 1.332 1_565 S
C47 C48 1.394 . S
C47 H74 0.932 . S
C48 C44 1.308 1_565 S
C48 C47 1.394 . S
C48 H75 0.929 . S
C49 Tb40 2.764 . S
C49 C43 1.504 . S
C49 O61 1.239 . S
C49 O62 1.263 . S
O50 Tb40 2.325 1_565 S
O50 C60 1.236 1_455 S
O51 Tb41 2.322 . S
O51 C60 1.257 . S
O52 Tb41 2.349 . S
O52 C63 1.261 . S
O53 Tb40 2.303 . S
O53 C63 1.257 1_445 S
O54 Tb41 2.415 . S
O54 C70 1.239 . S
O55 Tb41 2.399 . S
O55 C70 1.263 . S
O56 Tb41 2.325 1_545 S
O56 C71 1.236 1_655 S
O57 Tb40 2.322 . S
O57 C71 1.257 . S
O58 Tb40 2.349 . S
O58 C42 1.261 . S
O59 Tb41 2.303 . S
O59 C42 1.257 1_665 S
C60 O50 1.236 1_655 S
C60 O51 1.257 . S
O61 Tb40 2.415 . S
O61 C49 1.239 . S
O62 Tb40 2.399 . S
O62 C49 1.263 . S
C63 O52 1.261 . S
C63 O53 1.257 1_665 S
C64 C67 1.358 . S
C64 C68 1.332 1_565 S
C64 C70 1.504 . S
C65 C66 1.373 . S
C65 C69 1.308 1_565 S
C66 C65 1.373 . S
C66 C67 1.429 . S
C66 H76 0.932 . S
C67 C64 1.358 . S
C67 C66 1.429 . S
C67 H77 0.930 . S
C68 C64 1.332 1_545 S
C68 C69 1.394 . S
C68 H78 0.932 . S
C69 C65 1.308 1_545 S
C69 C68 1.394 . S
C69 H79 0.929 . S
C70 Tb41 2.764 . S
C70 O54 1.239 . S
C70 O55 1.263 . S
C70 C64 1.504 . S
C71 O56 1.236 1_455 S
C71 O57 1.257 . S
H72 C45 0.932 . S
H73 C46 0.930 . S
H74 C47 0.932 . S
H75 C48 0.929 . S
H76 C66 0.932 . S
H77 C67 0.930 . S
H78 C68 0.932 . S
H79 C69 0.929 . S
Tb80 C89 2.764 . S
Tb80 O90 2.325 . S
Tb80 O93 2.303 1_655 S
Tb80 O97 2.322 1_655 S
Tb80 O98 2.349 . S
Tb80 O101 2.415 . S
Tb80 O102 2.399 . S
Tb81 O91 2.322 1_445 S
Tb81 O92 2.349 . S
Tb81 O94 2.415 . S
Tb81 O95 2.399 . S
Tb81 O96 2.325 . S
Tb81 O99 2.303 . S
Tb81 C110 2.764 . S
C82 O98 1.261 1_455 S
C82 O99 1.257 . S
C83 C86 1.358 . S
C83 C87 1.332 . S
C83 C89 1.504 . S
C84 C85 1.373 . S
C84 C88 1.308 . S
C85 C84 1.373 . S
C85 C86 1.429 . S
C85 H112 0.932 . S
C86 C83 1.358 . S
C86 C85 1.429 . S
C86 H113 0.930 . S
C87 C83 1.332 . S
C87 C88 1.394 . S
C87 H114 0.932 . S
C88 C84 1.308 . S
C88 C87 1.394 . S
C88 H115 0.929 . S
C89 Tb80 2.764 . S
C89 C83 1.504 . S
C89 O101 1.239 . S
C89 O102 1.263 . S
O90 Tb80 2.325 . S
O90 C100 1.236 1_545 S
O91 Tb81 2.322 1_665 S
O91 C100 1.257 . S
O92 Tb81 2.349 . S
O92 C103 1.261 . S
O93 Tb80 2.303 1_455 S
O93 C103 1.257 . S
O94 Tb81 2.415 . S
O94 C110 1.239 . S
O95 Tb81 2.399 . S
O95 C110 1.263 . S
O96 Tb81 2.325 . S
O96 C111 1.236 . S
O97 Tb80 2.322 1_455 S
O97 C111 1.257 . S
O98 Tb80 2.349 . S
O98 C82 1.261 1_655 S
O99 Tb81 2.303 . S
O99 C82 1.257 . S
C100 O90 1.236 1_565 S
C100 O91 1.257 . S
O101 Tb80 2.415 . S
O101 C89 1.239 . S
O102 Tb80 2.399 . S
O102 C89 1.263 . S
C103 O92 1.261 . S
C103 O93 1.257 . S
C104 C107 1.358 . S
C104 C108 1.332 . S
C104 C110 1.504 . S
C105 C106 1.373 1_545 S
C105 C109 1.308 . S
C106 C105 1.373 1_565 S
C106 C107 1.429 1_565 S
C106 H116 0.932 . S
C107 C104 1.358 . S
C107 C106 1.429 1_545 S
C107 H117 0.930 1_545 S
C108 C104 1.332 . S
C108 C109 1.394 . S
C108 H118 0.932 . S
C109 C105 1.308 . S
C109 C108 1.394 . S
C109 H119 0.929 . S
C110 Tb81 2.764 . S
C110 O94 1.239 . S
C110 O95 1.263 . S
C110 C104 1.504 . S
C111 O96 1.236 . S
C111 O97 1.257 . S
H112 C85 0.932 . S
H113 C86 0.930 . S
H114 C87 0.932 . S
H115 C88 0.929 . S
H116 C106 0.932 . S
H117 C107 0.930 1_565 S
H118 C108 0.932 . S
H119 C109 0.929 . S
H120 C132 0.930 . S
H121 C134 0.930 . S
H122 C135 0.930 . S
H123 C139 0.959 . S
H124 C139 0.959 . S
H125 C139 0.961 . S
H126 C140 0.960 . S
H127 C140 0.961 . S
H128 C140 0.959 . S
H129 C143 0.929 . S
H130 C144 0.931 . S
H131 C146 0.930 . S
C132 H120 0.930 . S
C132 C133 1.417 . S
C132 C137 1.399 . S
C133 C132 1.417 . S
C133 C134 1.356 1_554 S
C134 H121 0.930 . S
C134 C133 1.356 1_556 S
C134 C135 1.388 . S
C135 H122 0.930 . S
C135 C134 1.388 . S
C135 C136 1.390 . S
C136 C135 1.390 . S
C136 C137 1.394 1_556 S
C136 C142 1.465 . S
C137 C132 1.399 . S
C137 C136 1.394 1_554 S
C137 C138 1.516 . S
C138 C137 1.516 . S
C138 C139 1.502 1_455 S
C138 C140 1.561 . S
C138 C141 1.526 . S
C139 H123 0.959 . S
C139 H124 0.959 . S
C139 H125 0.961 . S
C139 C138 1.502 1_655 S
C140 H126 0.960 . S
C140 H127 0.961 . S
C140 H128 0.959 . S
C140 C138 1.561 . S
C141 C138 1.526 . S
C141 C142 1.396 1_554 S
C141 C146 1.390 . S
C142 C136 1.465 . S
C142 C141 1.396 1_556 S
C142 C143 1.399 . S
C143 H129 0.929 . S
C143 C142 1.399 . S
C143 C144 1.385 . S
C144 H130 0.931 . S
C144 C143 1.385 . S
C144 C145 1.389 1_556 S
C145 C144 1.389 1_554 S
C145 C146 1.387 . S
C146 H131 0.930 . S
C146 C141 1.390 . S
C146 C145 1.387 . S
H147 C159 0.930 . S
H148 C161 0.930 . S
H149 C162 0.930 . S
H150 C166 0.959 . S
H151 C166 0.959 . S
H152 C166 0.961 . S
H153 C167 0.960 . S
H154 C167 0.961 . S
H155 C167 0.959 . S
H156 C170 0.929 . S
H157 C171 0.931 . S
H158 C173 0.930 . S
C159 H147 0.930 . S
C159 C160 1.399 1_565 S
C159 C164 1.399 . S
C160 C159 1.399 1_545 S
C160 C161 1.376 . S
C161 H148 0.930 . S
C161 C160 1.376 . S
C161 C162 1.388 . S
C162 H149 0.930 . S
C162 C161 1.388 . S
C162 C163 1.390 . S
C163 C162 1.390 . S
C163 C164 1.394 1_545 S
C163 C169 1.465 . S
C164 C159 1.399 . S
C164 C163 1.394 1_565 S
C164 C165 1.516 . S
C165 C164 1.516 . S
C165 C166 1.502 . S
C165 C167 1.561 . S
C165 C168 1.526 . S
C166 H150 0.959 . S
C166 H151 0.959 . S
C166 H152 0.961 . S
C166 C165 1.502 . S
C167 H153 0.960 . S
C167 H154 0.961 . S
C167 H155 0.959 . S
C167 C165 1.561 . S
C168 C165 1.526 . S
C168 C169 1.396 1_565 S
C168 C173 1.390 . S
C169 C163 1.465 . S
C169 C168 1.396 1_545 S
C169 C170 1.399 . S
C170 H156 0.929 . S
C170 C169 1.399 . S
C170 C171 1.385 . S
C171 H157 0.931 . S
C171 C170 1.385 . S
C171 C172 1.389 1_545 S
C172 C171 1.389 1_565 S
C172 C173 1.387 . S
C173 H158 0.930 . S
C173 C168 1.390 . S
C173 C172 1.387 . S
H174 C186 0.930 . S
H175 C188 0.930 . S
H176 C189 0.930 . S
H177 C193 0.959 . S
H178 C193 0.959 . S
H179 C193 0.961 . S
H180 C194 0.960 . S
H181 C194 0.961 . S
H182 C194 0.959 . S
H183 C197 0.929 . S
H184 C198 0.931 . S
H185 C200 0.930 . S
C186 H174 0.930 . S
C186 C187 1.399 . S
C186 C191 1.399 . S
C187 C186 1.399 . S
C187 C188 1.376 . S
C188 H175 0.930 . S
C188 C187 1.376 . S
C188 C189 1.388 . S
C189 H176 0.930 . S
C189 C188 1.388 . S
C189 C190 1.390 . S
C190 C189 1.390 . S
C190 C191 1.394 . S
C190 C196 1.465 . S
C191 C186 1.399 . S
C191 C190 1.394 . S
C191 C192 1.516 . S
C192 C191 1.516 . S
C192 C193 1.502 . S
C192 C194 1.561 . S
C192 C195 1.526 . S
C193 H177 0.959 . S
C193 H178 0.959 . S
C193 H179 0.961 . S
C193 C192 1.502 . S
C194 H180 0.960 . S
C194 H181 0.961 . S
C194 H182 0.959 . S
C194 C192 1.561 . S
C195 C192 1.526 . S
C195 C196 1.396 . S
C195 C200 1.390 . S
C196 C190 1.465 . S
C196 C195 1.396 . S
C196 C197 1.399 . S
C197 H183 0.929 . S
C197 C196 1.399 . S
C197 C198 1.385 . S
C198 H184 0.931 . S
C198 C197 1.385 . S
C198 C199 1.389 . S
C199 C198 1.389 . S
C199 C200 1.387 . S
C200 H185 0.930 . S
C200 C195 1.390 . S
C200 C199 1.387 . S
H201 C213 0.930 . S
H202 C215 0.930 . S
H203 C216 0.930 . S
H204 C220 0.959 1_545 S
H205 C220 0.959 . S
H206 C220 0.961 . S
H207 C221 0.960 . S
H208 C221 0.961 . S
H209 C221 0.959 . S
H210 C224 0.929 . S
H211 C225 0.931 . S
H212 C227 0.930 . S
C213 H201 0.930 . S
C213 C214 1.399 . S
C213 C218 1.399 . S
C214 C213 1.399 . S
C214 C215 1.376 . S
C215 H202 0.930 . S
C215 C214 1.376 . S
C215 C216 1.388 . S
C216 H203 0.930 . S
C216 C215 1.388 . S
C216 C217 1.390 . S
C217 C216 1.390 . S
C217 C218 1.394 . S
C217 C223 1.465 . S
C218 C213 1.399 . S
C218 C217 1.394 . S
C218 C219 1.516 . S
C219 C218 1.516 . S
C219 C220 1.502 1_545 S
C219 C221 1.561 1_545 S
C219 C222 1.526 . S
C220 H204 0.959 1_565 S
C220 H205 0.959 . S
C220 H206 0.961 . S
C220 C219 1.502 1_565 S
C221 H207 0.960 . S
C221 H208 0.961 . S
C221 H209 0.959 . S
C221 C219 1.561 1_565 S
C222 C219 1.526 . S
C222 C223 1.396 . S
C222 C227 1.390 1_545 S
C223 C217 1.465 . S
C223 C222 1.396 . S
C223 C224 1.399 . S
C224 H210 0.929 . S
C224 C223 1.399 . S
C224 C225 1.385 . S
C225 H211 0.931 . S
C225 C224 1.385 . S
C225 C226 1.389 . S
C226 C225 1.389 . S
C226 C227 1.387 1_545 S
C227 H212 0.930 . S
C227 C222 1.390 1_565 S
C227 C226 1.387 1_565 S
H228 C240 0.930 . S
H229 C242 0.930 . S
H230 C243 0.930 . S
H231 C247 0.959 . S
H232 C247 0.959 . S
H233 C247 0.961 . S
H234 C248 0.960 1_556 S
H235 C248 0.961 . S
H236 C248 0.959 . S
H237 C251 0.929 . S
H238 C252 0.931 . S
H239 C254 0.930 . S
C240 H228 0.930 . S
C240 C241 1.399 1_556 S
C240 C245 1.399 . S
C241 C240 1.399 1_554 S
C241 C242 1.376 . S
C242 H229 0.930 . S
C242 C241 1.376 . S
C242 C243 1.388 . S
C243 H230 0.930 . S
C243 C242 1.388 . S
C243 C244 1.390 . S
C244 C243 1.390 . S
C244 C245 1.394 1_554 S
C244 C250 1.465 . S
C245 C240 1.399 . S
C245 C244 1.394 1_556 S
C245 C246 1.516 . S
C246 C245 1.516 . S
C246 C247 1.502 . S
C246 C248 1.561 1_556 S
C246 C249 1.526 1_556 S
C247 H231 0.959 . S
C247 H232 0.959 . S
C247 H233 0.961 . S
C247 C246 1.502 . S
C248 H234 0.960 1_554 S
C248 H235 0.961 . S
C248 H236 0.959 . S
C248 C246 1.561 1_554 S
C249 C246 1.526 1_554 S
C249 C250 1.396 . S
C249 C254 1.390 1_554 S
C250 C244 1.465 . S
C250 C249 1.396 . S
C250 C251 1.399 . S
C251 H237 0.929 . S
C251 C250 1.399 . S
C251 C252 1.385 . S
C252 H238 0.931 . S
C252 C251 1.385 . S
C252 C253 1.389 . S
C253 C252 1.389 . S
C253 C254 1.386 1_554 S
C254 H239 0.930 . S
C254 C249 1.390 1_556 S
C254 C253 1.386 1_556 S
H255 C267 0.930 1_655 S
H256 C269 0.930 . S
H257 C270 0.930 . S
H258 C274 0.959 . S
H259 C274 0.959 . S
H260 C274 0.961 . S
H261 C275 0.960 . S
H262 C275 0.961 . S
H263 C275 0.959 . S
H264 C278 0.929 . S
H265 C279 0.931 . S
H266 C281 0.932 . S
C267 H255 0.930 1_455 S
C267 C268 1.399 . S
C267 C272 1.399 . S
C268 C267 1.399 . S
C268 C269 1.376 . S
C269 H256 0.930 . S
C269 C268 1.376 . S
C269 C270 1.388 . S
C270 H257 0.930 . S
C270 C269 1.388 . S
C270 C271 1.390 . S
C271 C270 1.390 . S
C271 C272 1.394 . S
C271 C277 1.465 . S
C272 C267 1.399 . S
C272 C271 1.394 . S
C272 C273 1.516 . S
C273 C272 1.516 . S
C273 C274 1.502 1_455 S
C273 C275 1.561 . S
C273 C276 1.526 . S
C274 H258 0.959 . S
C274 H259 0.959 . S
C274 H260 0.961 . S
C274 C273 1.502 1_655 S
C275 H261 0.960 . S
C275 H262 0.961 . S
C275 H263 0.959 . S
C275 C273 1.561 . S
C276 C273 1.526 . S
C276 C277 1.396 . S
C276 C281 1.386 1_455 S
C277 C271 1.465 . S
C277 C276 1.396 . S
C277 C278 1.399 . S
C278 H264 0.929 . S
C278 C277 1.399 . S
C278 C279 1.385 . S
C279 H265 0.931 . S
C279 C278 1.385 . S
C279 C280 1.392 . S
C280 C279 1.392 . S
C280 C281 1.389 1_455 S
C281 H266 0.932 . S
C281 C276 1.386 1_655 S
C281 C280 1.389 1_655 S
H282 C294 0.930 . S
H283 C296 0.930 . S
H284 C297 0.930 . S
H285 C301 0.959 1_655 S
H286 C301 0.959 . S
H287 C301 0.961 . S
H288 C302 0.960 . S
H289 C302 0.961 . S
H290 C302 0.959 . S
H291 C305 0.929 1_655 S
H292 C306 0.931 . S
H293 C308 0.930 . S
C294 H282 0.930 . S
C294 C295 1.399 1_545 S
C294 C299 1.399 . S
C295 C294 1.399 1_565 S
C295 C296 1.376 1_455 S
C296 H283 0.930 . S
C296 C295 1.376 1_655 S
C296 C297 1.388 . S
C297 H284 0.930 . S
C297 C296 1.388 . S
C297 C298 1.390 1_655 S
C298 C297 1.390 1_455 S
C298 C299 1.394 1_565 S
C298 C304 1.465 . S
C299 C294 1.399 . S
C299 C298 1.394 1_545 S
C299 C300 1.516 . S
C300 C299 1.516 . S
C300 C301 1.502 . S
C300 C302 1.561 . S
C300 C303 1.526 . S
C301 H285 0.959 1_455 S
C301 H286 0.959 . S
C301 H287 0.961 . S
C301 C300 1.502 . S
C302 H288 0.960 . S
C302 H289 0.961 . S
C302 H290 0.959 . S
C302 C300 1.561 . S
C303 C300 1.526 . S
C303 C304 1.396 1_545 S
C303 C308 1.390 . S
C304 C298 1.465 . S
C304 C303 1.396 1_565 S
C304 C305 1.399 . S
C305 H291 0.929 1_455 S
C305 C304 1.399 . S
C305 C306 1.385 . S
C306 H292 0.931 . S
C306 C305 1.385 . S
C306 C307 1.389 1_565 S
C307 C306 1.389 1_545 S
C307 C308 1.387 . S
C308 H293 0.930 . S
C308 C303 1.390 . S
C308 C307 1.387 . S
H309 C321 0.930 . S
H310 C323 0.930 . S
H311 C324 0.930 . S
H312 C328 0.959 . S
H313 C328 0.959 . S
H314 C328 0.961 . S
H315 C329 0.960 . S
H316 C329 0.961 . S
H317 C329 0.959 1_455 S
H318 C332 0.929 . S
H319 C333 0.931 . S
H320 C335 0.930 1_565 S
C321 H309 0.930 . S
C321 C322 1.399 1_665 S
C321 C326 1.399 1_565 S
C322 C321 1.399 1_445 S
C322 C323 1.376 . S
C323 H310 0.930 . S
C323 C322 1.376 . S
C323 C324 1.388 . S
C324 H311 0.930 . S
C324 C323 1.388 . S
C324 C325 1.390 . S
C325 C324 1.390 . S
C325 C326 1.394 1_455 S
C325 C331 1.465 . S
C326 C321 1.399 1_545 S
C326 C325 1.394 1_655 S
C326 C327 1.516 1_545 S
C327 C326 1.516 1_565 S
C327 C328 1.502 . S
C327 C329 1.561 . S
C327 C330 1.526 1_565 S
C328 H312 0.959 . S
C328 H313 0.959 . S
C328 H314 0.961 . S
C328 C327 1.502 . S
C329 H315 0.960 . S
C329 H316 0.961 . S
C329 H317 0.959 1_655 S
C329 C327 1.561 . S
C330 C327 1.526 1_545 S
C330 C331 1.396 1_655 S
C330 C335 1.390 . S
C331 C325 1.465 . S
C331 C330 1.396 1_455 S
C331 C332 1.399 . S
C332 H318 0.929 . S
C332 C331 1.399 . S
C332 C333 1.385 . S
C333 H319 0.931 . S
C333 C332 1.385 . S
C333 C334 1.389 . S
C334 C333 1.389 . S
C334 C335 1.387 1_455 S
C335 H320 0.930 1_545 S
C335 C330 1.390 . S
C335 C334 1.387 1_655 S
H336 C348 0.930 1_565 S
H337 C350 0.930 . S
H338 C351 0.930 . S
H339 C355 0.959 . S
H340 C355 0.959 . S
H341 C355 0.961 . S
H342 C356 0.960 . S
H343 C356 0.961 . S
H344 C356 0.959 1_455 S
H345 C359 0.929 . S
H346 C360 0.931 . S
H347 C362 0.930 1_565 S
C348 H336 0.930 1_545 S
C348 C349 1.399 1_655 S
C348 C353 1.399 1_655 S
C349 C348 1.399 1_455 S
C349 C350 1.376 . S
C350 H337 0.930 . S
C350 C349 1.376 . S
C350 C351 1.388 . S
C351 H338 0.930 . S
C351 C350 1.388 . S
C351 C352 1.390 . S
C352 C351 1.390 . S
C352 C353 1.394 . S
C352 C358 1.465 . S
C353 C348 1.399 1_455 S
C353 C352 1.394 . S
C353 C354 1.516 1_445 S
C354 C353 1.516 1_665 S
C354 C355 1.502 . S
C354 C356 1.561 . S
C354 C357 1.526 1_665 S
C355 H339 0.959 . S
C355 H340 0.959 . S
C355 H341 0.961 . S
C355 C354 1.502 . S
C356 H342 0.960 . S
C356 H343 0.961 . S
C356 H344 0.959 1_655 S
C356 C354 1.561 . S
C357 C354 1.526 1_445 S
C357 C358 1.396 . S
C357 C362 1.390 1_455 S
C358 C352 1.465 . S
C358 C357 1.396 . S
C358 C359 1.399 . S
C359 H345 0.929 . S
C359 C358 1.399 . S
C359 C360 1.385 . S
C360 H346 0.931 . S
C360 C359 1.385 . S
C360 C361 1.389 . S
C361 C360 1.389 . S
C361 C362 1.387 1_455 S
C362 H347 0.930 1_545 S
C362 C357 1.390 1_655 S
C362 C361 1.387 1_655 S
C133 C31 2.915 . S
C145 C20 2.892 . S
C160 C44 0.454 . S
C172 C65 0.429 . S
C187 C100 4.835 . S
C199 C111 4.827 . S
C214 C84 0.811 . S
C226 C105 0.714 . S
C241 C4 0.986 . S
C253 C25 1.100 . S
C268 C71 2.855 . S
C280 C60 2.863 1_455 S
C295 C63 1.506 1_455 S
C307 C23 1.499 . S
C322 C42 1.447 . S
C334 C82 1.502 . S
C349 C103 1.450 . S
C361 C2 1.503 . S
