# Generated by pormake.
# Topology wln, (5)-cn, num edge types: 1
# Building blocks:
#     Node 0, Type 0, BuildingBlock: BEQFEK_clean_sbu_0, # of connection points: 5
#     Node 1, Type 0, BuildingBlock: BEQFEK_clean_sbu_0, # of connection points: 5
#     Node 2, Type 0, BuildingBlock: BEQFEK_clean_sbu_0, # of connection points: 5
#     Node 3, Type 0, BuildingBlock: BEQFEK_clean_sbu_0, # of connection points: 5
#     Node 4, Type 0, BuildingBlock: BEQFEK_clean_sbu_0, # of connection points: 5
#     Node 5, Type 0, BuildingBlock: BEQFEK_clean_sbu_0, # of connection points: 5
#     Node 6, Type 0, BuildingBlock: BEQFEK_clean_sbu_0, # of connection points: 5
#     Node 7, Type 0, BuildingBlock: BEQFEK_clean_sbu_0, # of connection points: 5
#     Node 8, Type 0, BuildingBlock: BEQFEK_clean_sbu_0, # of connection points: 5
#     Node 9, Type 0, BuildingBlock: BEQFEK_clean_sbu_0, # of connection points: 5
#     Node 10, Type 0, BuildingBlock: BEQFEK_clean_sbu_0, # of connection points: 5
#     Node 11, Type 0, BuildingBlock: BEQFEK_clean_sbu_0, # of connection points: 5
#     Node 12, Type 0, BuildingBlock: BEQFEK_clean_sbu_0, # of connection points: 5
#     Node 13, Type 0, BuildingBlock: BEQFEK_clean_sbu_0, # of connection points: 5
#     Node 14, Type 0, BuildingBlock: BEQFEK_clean_sbu_0, # of connection points: 5
#     Node 15, Type 0, BuildingBlock: BEQFEK_clean_sbu_0, # of connection points: 5
#     Node 16, Type 0, BuildingBlock: BEQFEK_clean_sbu_0, # of connection points: 5
#     Node 17, Type 0, BuildingBlock: BEQFEK_clean_sbu_0, # of connection points: 5
#     Node 18, Type 0, BuildingBlock: BEQFEK_clean_sbu_0, # of connection points: 5
#     Node 19, Type 0, BuildingBlock: BEQFEK_clean_sbu_0, # of connection points: 5
#     Node 20, Type 0, BuildingBlock: BEQFEK_clean_sbu_0, # of connection points: 5
#     Node 21, Type 0, BuildingBlock: BEQFEK_clean_sbu_0, # of connection points: 5
#     Node 22, Type 0, BuildingBlock: BEQFEK_clean_sbu_0, # of connection points: 5
#     Node 23, Type 0, BuildingBlock: BEQFEK_clean_sbu_0, # of connection points: 5
#     Node 24, Type 0, BuildingBlock: BEQFEK_clean_sbu_0, # of connection points: 5
#     Node 25, Type 0, BuildingBlock: BEQFEK_clean_sbu_0, # of connection points: 5
#     Node 26, Type 0, BuildingBlock: BEQFEK_clean_sbu_0, # of connection points: 5
#     Node 27, Type 0, BuildingBlock: BEQFEK_clean_sbu_0, # of connection points: 5
#     Node 28, Type 0, BuildingBlock: BEQFEK_clean_sbu_0, # of connection points: 5
#     Node 29, Type 0, BuildingBlock: BEQFEK_clean_sbu_0, # of connection points: 5
#     Node 30, Type 0, BuildingBlock: BEQFEK_clean_sbu_0, # of connection points: 5
#     Node 31, Type 0, BuildingBlock: BEQFEK_clean_sbu_0, # of connection points: 5
#     Node 32, Type 0, BuildingBlock: BEQFEK_clean_sbu_0, # of connection points: 5
#     Node 33, Type 0, BuildingBlock: BEQFEK_clean_sbu_0, # of connection points: 5
#     Node 34, Type 0, BuildingBlock: BEQFEK_clean_sbu_0, # of connection points: 5
#     Node 35, Type 0, BuildingBlock: BEQFEK_clean_sbu_0, # of connection points: 5
#     Edge 36, Type (0, 0), BuildingBlock: KIFKEQ_clean_linker_1, # of connection points: 2
#     Edge 37, Type (0, 0), BuildingBlock: KIFKEQ_clean_linker_1, # of connection points: 2
#     Edge 38, Type (0, 0), BuildingBlock: KIFKEQ_clean_linker_1, # of connection points: 2
#     Edge 39, Type (0, 0), BuildingBlock: KIFKEQ_clean_linker_1, # of connection points: 2
#     Edge 40, Type (0, 0), BuildingBlock: KIFKEQ_clean_linker_1, # of connection points: 2
#     Edge 41, Type (0, 0), BuildingBlock: KIFKEQ_clean_linker_1, # of connection points: 2
#     Edge 42, Type (0, 0), BuildingBlock: KIFKEQ_clean_linker_1, # of connection points: 2
#     Edge 43, Type (0, 0), BuildingBlock: KIFKEQ_clean_linker_1, # of connection points: 2
#     Edge 44, Type (0, 0), BuildingBlock: KIFKEQ_clean_linker_1, # of connection points: 2
#     Edge 45, Type (0, 0), BuildingBlock: KIFKEQ_clean_linker_1, # of connection points: 2
#     Edge 46, Type (0, 0), BuildingBlock: KIFKEQ_clean_linker_1, # of connection points: 2
#     Edge 47, Type (0, 0), BuildingBlock: KIFKEQ_clean_linker_1, # of connection points: 2
#     Edge 48, Type (0, 0), BuildingBlock: KIFKEQ_clean_linker_1, # of connection points: 2
#     Edge 49, Type (0, 0), BuildingBlock: KIFKEQ_clean_linker_1, # of connection points: 2
#     Edge 50, Type (0, 0), BuildingBlock: KIFKEQ_clean_linker_1, # of connection points: 2
#     Edge 51, Type (0, 0), BuildingBlock: KIFKEQ_clean_linker_1, # of connection points: 2
#     Edge 52, Type (0, 0), BuildingBlock: KIFKEQ_clean_linker_1, # of connection points: 2
#     Edge 53, Type (0, 0), BuildingBlock: KIFKEQ_clean_linker_1, # of connection points: 2
#     Edge 54, Type (0, 0), BuildingBlock: KIFKEQ_clean_linker_1, # of connection points: 2
#     Edge 55, Type (0, 0), BuildingBlock: KIFKEQ_clean_linker_1, # of connection points: 2
#     Edge 56, Type (0, 0), BuildingBlock: KIFKEQ_clean_linker_1, # of connection points: 2
#     Edge 57, Type (0, 0), BuildingBlock: KIFKEQ_clean_linker_1, # of connection points: 2
#     Edge 58, Type (0, 0), BuildingBlock: KIFKEQ_clean_linker_1, # of connection points: 2
#     Edge 59, Type (0, 0), BuildingBlock: KIFKEQ_clean_linker_1, # of connection points: 2
#     Edge 60, Type (0, 0), BuildingBlock: KIFKEQ_clean_linker_1, # of connection points: 2
#     Edge 61, Type (0, 0), BuildingBlock: KIFKEQ_clean_linker_1, # of connection points: 2
#     Edge 62, Type (0, 0), BuildingBlock: KIFKEQ_clean_linker_1, # of connection points: 2
#     Edge 63, Type (0, 0), BuildingBlock: KIFKEQ_clean_linker_1, # of connection points: 2
#     Edge 64, Type (0, 0), BuildingBlock: KIFKEQ_clean_linker_1, # of connection points: 2
#     Edge 65, Type (0, 0), BuildingBlock: KIFKEQ_clean_linker_1, # of connection points: 2
#     Edge 66, Type (0, 0), BuildingBlock: KIFKEQ_clean_linker_1, # of connection points: 2
#     Edge 67, Type (0, 0), BuildingBlock: KIFKEQ_clean_linker_1, # of connection points: 2
#     Edge 68, Type (0, 0), BuildingBlock: KIFKEQ_clean_linker_1, # of connection points: 2
#     Edge 69, Type (0, 0), BuildingBlock: KIFKEQ_clean_linker_1, # of connection points: 2
#     Edge 70, Type (0, 0), BuildingBlock: KIFKEQ_clean_linker_1, # of connection points: 2
#     Edge 71, Type (0, 0), BuildingBlock: KIFKEQ_clean_linker_1, # of connection points: 2
#     Edge 72, Type (0, 0), BuildingBlock: KIFKEQ_clean_linker_1, # of connection points: 2
#     Edge 73, Type (0, 0), BuildingBlock: KIFKEQ_clean_linker_1, # of connection points: 2
#     Edge 74, Type (0, 0), BuildingBlock: KIFKEQ_clean_linker_1, # of connection points: 2
#     Edge 75, Type (0, 0), BuildingBlock: KIFKEQ_clean_linker_1, # of connection points: 2
#     Edge 76, Type (0, 0), BuildingBlock: KIFKEQ_clean_linker_1, # of connection points: 2
#     Edge 77, Type (0, 0), BuildingBlock: KIFKEQ_clean_linker_1, # of connection points: 2
#     Edge 78, Type (0, 0), BuildingBlock: KIFKEQ_clean_linker_1, # of connection points: 2
#     Edge 79, Type (0, 0), BuildingBlock: KIFKEQ_clean_linker_1, # of connection points: 2
#     Edge 80, Type (0, 0), BuildingBlock: KIFKEQ_clean_linker_1, # of connection points: 2
#     Edge 81, Type (0, 0), BuildingBlock: KIFKEQ_clean_linker_1, # of connection points: 2
#     Edge 82, Type (0, 0), BuildingBlock: KIFKEQ_clean_linker_1, # of connection points: 2
#     Edge 83, Type (0, 0), BuildingBlock: KIFKEQ_clean_linker_1, # of connection points: 2
#     Edge 84, Type (0, 0), BuildingBlock: KIFKEQ_clean_linker_1, # of connection points: 2
#     Edge 85, Type (0, 0), BuildingBlock: KIFKEQ_clean_linker_1, # of connection points: 2
#     Edge 86, Type (0, 0), BuildingBlock: KIFKEQ_clean_linker_1, # of connection points: 2
#     Edge 87, Type (0, 0), BuildingBlock: KIFKEQ_clean_linker_1, # of connection points: 2
#     Edge 88, Type (0, 0), BuildingBlock: KIFKEQ_clean_linker_1, # of connection points: 2
#     Edge 89, Type (0, 0), BuildingBlock: KIFKEQ_clean_linker_1, # of connection points: 2
#     Edge 90, Type (0, 0), BuildingBlock: KIFKEQ_clean_linker_1, # of connection points: 2
#     Edge 91, Type (0, 0), BuildingBlock: KIFKEQ_clean_linker_1, # of connection points: 2
#     Edge 92, Type (0, 0), BuildingBlock: KIFKEQ_clean_linker_1, # of connection points: 2
#     Edge 93, Type (0, 0), BuildingBlock: KIFKEQ_clean_linker_1, # of connection points: 2
#     Edge 94, Type (0, 0), BuildingBlock: KIFKEQ_clean_linker_1, # of connection points: 2
#     Edge 95, Type (0, 0), BuildingBlock: KIFKEQ_clean_linker_1, # of connection points: 2
#     Edge 96, Type (0, 0), BuildingBlock: KIFKEQ_clean_linker_1, # of connection points: 2
#     Edge 97, Type (0, 0), BuildingBlock: KIFKEQ_clean_linker_1, # of connection points: 2
#     Edge 98, Type (0, 0), BuildingBlock: KIFKEQ_clean_linker_1, # of connection points: 2
#     Edge 99, Type (0, 0), BuildingBlock: KIFKEQ_clean_linker_1, # of connection points: 2
#     Edge 100, Type (0, 0), BuildingBlock: KIFKEQ_clean_linker_1, # of connection points: 2
#     Edge 101, Type (0, 0), BuildingBlock: KIFKEQ_clean_linker_1, # of connection points: 2
#     Edge 102, Type (0, 0), BuildingBlock: KIFKEQ_clean_linker_1, # of connection points: 2
#     Edge 103, Type (0, 0), BuildingBlock: KIFKEQ_clean_linker_1, # of connection points: 2
#     Edge 104, Type (0, 0), BuildingBlock: KIFKEQ_clean_linker_1, # of connection points: 2
#     Edge 105, Type (0, 0), BuildingBlock: KIFKEQ_clean_linker_1, # of connection points: 2
#     Edge 106, Type (0, 0), BuildingBlock: KIFKEQ_clean_linker_1, # of connection points: 2
#     Edge 107, Type (0, 0), BuildingBlock: KIFKEQ_clean_linker_1, # of connection points: 2
#     Edge 108, Type (0, 0), BuildingBlock: KIFKEQ_clean_linker_1, # of connection points: 2
#     Edge 109, Type (0, 0), BuildingBlock: KIFKEQ_clean_linker_1, # of connection points: 2
#     Edge 110, Type (0, 0), BuildingBlock: KIFKEQ_clean_linker_1, # of connection points: 2
#     Edge 111, Type (0, 0), BuildingBlock: KIFKEQ_clean_linker_1, # of connection points: 2
#     Edge 112, Type (0, 0), BuildingBlock: KIFKEQ_clean_linker_1, # of connection points: 2
#     Edge 113, Type (0, 0), BuildingBlock: KIFKEQ_clean_linker_1, # of connection points: 2
#     Edge 114, Type (0, 0), BuildingBlock: KIFKEQ_clean_linker_1, # of connection points: 2
#     Edge 115, Type (0, 0), BuildingBlock: KIFKEQ_clean_linker_1, # of connection points: 2
#     Edge 116, Type (0, 0), BuildingBlock: KIFKEQ_clean_linker_1, # of connection points: 2
#     Edge 117, Type (0, 0), BuildingBlock: KIFKEQ_clean_linker_1, # of connection points: 2
#     Edge 118, Type (0, 0), BuildingBlock: KIFKEQ_clean_linker_1, # of connection points: 2
#     Edge 119, Type (0, 0), BuildingBlock: KIFKEQ_clean_linker_1, # of connection points: 2
#     Edge 120, Type (0, 0), BuildingBlock: KIFKEQ_clean_linker_1, # of connection points: 2
#     Edge 121, Type (0, 0), BuildingBlock: KIFKEQ_clean_linker_1, # of connection points: 2
#     Edge 122, Type (0, 0), BuildingBlock: KIFKEQ_clean_linker_1, # of connection points: 2
#     Edge 123, Type (0, 0), BuildingBlock: KIFKEQ_clean_linker_1, # of connection points: 2
#     Edge 124, Type (0, 0), BuildingBlock: KIFKEQ_clean_linker_1, # of connection points: 2
#     Edge 125, Type (0, 0), BuildingBlock: KIFKEQ_clean_linker_1, # of connection points: 2
# Relax obj value: 0.206
# Max RMSD: 0.182
# Mean RMSD: 0.182
data_MOF--net-wln--node1-BEQFEK_clean_sbu_0--edge1-KIFKEQ_clean_linker_1
_symmetry_space_group_name_H-M    P1
_symmetry_Int_Tables_number       1
_symmetry_cell_setting            triclinic
loop_
_symmetry_equiv_pos_as_xyz
'x, y, z'
_cell_length_a     126.31032
_cell_length_b     126.27752
_cell_length_c     18.828331
_cell_angle_alpha  90.023603
_cell_angle_beta   89.991976
_cell_angle_gamma 120.002
loop_
_atom_site_label
_atom_site_type_symbol
_atom_site_fract_x
_atom_site_fract_y
_atom_site_fract_z
_atom_type_partial_charge
Co0 Co 0.14266 0.40229 0.94378 0.0
Co1 Co 0.1381 0.3899 0.09258 0.0
C2 C 0.16305 0.40248 0.02492 0.0
O3 O 0.15927 0.40557 0.97035 0.0
O4 O 0.15581 0.39645 0.07537 0.0
C5 C 0.15209 0.41345 0.80874 0.0
O6 O 0.16255 0.41506 0.83302 0.0
C7 C 0.14166 0.39026 0.24516 0.0
C8 C 0.12367 0.37551 0.28203 0.0
C9 C 0.13485 0.38486 0.30561 0.0
N10 N 0.13476 0.38446 0.18828 0.0
N11 N 0.12414 0.37542 0.21059 0.0
C12 C 0.15367 0.40193 0.24116 0.0
H13 H 0.15436 0.40683 0.19099 0.0
H14 H 0.15488 0.40797 0.28692 0.0
H15 H 0.16114 0.39973 0.24248 0.0
C16 C 0.13116 0.41514 0.01389 0.0
N17 N 0.13555 0.40735 0.01485 0.0
N18 N 0.13361 0.40219 0.07781 0.0
C19 C 0.12804 0.40667 0.11933 0.0
C20 C 0.12621 0.41496 0.08018 0.0
C21 C 0.13088 0.42178 0.94875 0.0
H22 H 0.12694 0.41522 0.90399 0.0
H23 H 0.14038 0.42869 0.934 0.0
H24 H 0.12541 0.42633 0.95678 0.0
O25 O 0.13213 0.38467 0.92531 0.0
O26 O 0.12849 0.37542 0.0297 0.0
H27 H 0.11842 0.39352 0.20108 0.0
H28 H 0.12098 0.40862 0.22115 0.0
C29 C 0.12495 0.40345 0.19603 0.0
H30 H 0.13337 0.40573 0.22557 0.0
H31 H 0.11693 0.36976 0.17704 0.0
O32 O 0.143 0.40953 0.85051 0.0
C33 C 0.12712 0.37498 0.96251 0.0
Co34 Co 0.60129 0.74102 0.93916 0.0
Co35 Co 0.61309 0.74897 0.08927 0.0
C36 C 0.60047 0.76106 0.01854 0.0
O37 O 0.59784 0.75431 0.96365 0.0
O38 O 0.60624 0.75989 0.07061 0.0
C39 C 0.58944 0.73836 0.80543 0.0
O40 O 0.58699 0.74664 0.83009 0.0
C41 C 0.61299 0.75269 0.24156 0.0
C42 C 0.62623 0.74744 0.28005 0.0
C43 C 0.61746 0.75021 0.30276 0.0
N44 N 0.61841 0.75087 0.18533 0.0
N45 N 0.62661 0.74811 0.20863 0.0
C46 C 0.60368 0.75666 0.23562 0.0
H47 H 0.60753 0.76502 0.2026 0.0
H48 H 0.59538 0.74944 0.20867 0.0
H49 H 0.60126 0.75886 0.28803 0.0
C50 C 0.58814 0.71677 0.00921 0.0
N51 N 0.59601 0.72892 0.01035 0.0
N52 N 0.60089 0.73218 0.07399 0.0
C53 C 0.59608 0.72215 0.11584 0.0
C54 C 0.58793 0.71205 0.07614 0.0
C55 C 0.58172 0.70984 0.94361 0.0
H56 H 0.5885 0.7121 0.90046 0.0
H57 H 0.57519 0.71276 0.92599 0.0
H58 H 0.57676 0.69982 0.95248 0.0
O59 O 0.61894 0.74816 0.92225 0.0
O60 O 0.62774 0.75403 0.02771 0.0
H61 H 0.60837 0.72471 0.20074 0.0
H62 H 0.59272 0.71328 0.21887 0.0
C63 C 0.59871 0.72225 0.19342 0.0
H64 H 0.59712 0.7291 0.22046 0.0
H65 H 0.63185 0.74587 0.17573 0.0
O66 O 0.59419 0.73392 0.84645 0.0
C67 C 0.62848 0.75302 0.96081 0.0
Co68 Co 0.26206 0.8608 0.94896 0.0
Co69 Co 0.25467 0.86624 0.09669 0.0
C70 C 0.24203 0.84091 0.0322 0.0
O71 O 0.24903 0.84423 0.97819 0.0
O72 O 0.24323 0.84854 0.08017 0.0
C73 C 0.26324 0.85124 0.8134 0.0
O74 O 0.25407 0.84098 0.83747 0.0
C75 C 0.25175 0.8626 0.24871 0.0
C76 C 0.25502 0.88051 0.2874 0.0
C77 C 0.25321 0.86928 0.30983 0.0
N78 N 0.25277 0.86961 0.1926 0.0
N79 N 0.25439 0.88019 0.21595 0.0
C80 C 0.25135 0.85057 0.24296 0.0
H81 H 0.25638 0.85044 0.19499 0.0
H82 H 0.2553 0.84871 0.29072 0.0
H83 H 0.24168 0.84319 0.23755 0.0
C84 C 0.28649 0.87221 0.01724 0.0
N85 N 0.27438 0.86813 0.01867 0.0
N86 N 0.27137 0.87054 0.08102 0.0
C87 C 0.28154 0.87625 0.12151 0.0
C88 C 0.29146 0.87754 0.08245 0.0
C89 C 0.29315 0.87178 0.9526 0.0
H90 H 0.29115 0.87618 0.9076 0.0
H91 H 0.28975 0.8621 0.93783 0.0
H92 H 0.30318 0.87649 0.96112 0.0
O93 O 0.25477 0.87121 0.93004 0.0
O94 O 0.24979 0.87575 0.03395 0.0
H95 H 0.27816 0.88649 0.19982 0.0
H96 H 0.291 0.88448 0.22056 0.0
C97 C 0.28173 0.88008 0.19701 0.0
H98 H 0.27583 0.87193 0.22942 0.0
H99 H 0.25589 0.88746 0.18309 0.0
O100 O 0.26878 0.86025 0.85539 0.0
C101 C 0.25038 0.8766 0.9665 0.0
Co102 Co 0.40296 0.14182 0.05106 0.0
Co103 Co 0.39007 0.13613 0.90343 0.0
C104 C 0.4024 0.16148 0.96789 0.0
O105 O 0.40624 0.15831 0.02185 0.0
O106 O 0.39604 0.15375 0.92011 0.0
C107 C 0.41357 0.15147 0.18668 0.0
O108 O 0.41444 0.16163 0.16259 0.0
C109 C 0.39067 0.13977 0.75141 0.0
C110 C 0.37625 0.12174 0.71276 0.0
C111 C 0.38553 0.13306 0.69029 0.0
N112 N 0.3848 0.13271 0.80754 0.0
N113 N 0.37596 0.12205 0.78422 0.0
C114 C 0.40215 0.15192 0.7571 0.0
H115 H 0.4074 0.15216 0.80496 0.0
H116 H 0.40798 0.1539 0.70925 0.0
H117 H 0.39968 0.15916 0.76269 0.0
C118 C 0.41629 0.13071 0.98251 0.0
N119 N 0.40809 0.13458 0.98132 0.0
N120 N 0.40264 0.13208 0.91903 0.0
C121 C 0.40726 0.12653 0.87836 0.0
C122 C 0.41603 0.12544 0.91724 0.0
C123 C 0.42354 0.13136 0.04684 0.0
H124 H 0.41725 0.12705 0.09239 0.0
H125 H 0.4298 0.1411 0.06068 0.0
H126 H 0.4289 0.1267 0.03839 0.0
O127 O 0.38528 0.13122 0.07012 0.0
O128 O 0.37575 0.12647 0.96623 0.0
H129 H 0.39376 0.11622 0.7996 0.0
H130 H 0.40874 0.11857 0.77879 0.0
C131 C 0.40371 0.12278 0.80268 0.0
H132 H 0.40583 0.13094 0.77071 0.0
H133 H 0.37029 0.11473 0.81708 0.0
O134 O 0.41027 0.14248 0.14466 0.0
C135 C 0.37551 0.1257 0.03371 0.0
Co136 Co 0.86187 0.2622 0.0505 0.0
Co137 Co 0.8665 0.25471 0.90096 0.0
C138 C 0.84143 0.24233 0.96878 0.0
O139 O 0.84523 0.24913 0.02357 0.0
O140 O 0.84867 0.24351 0.91829 0.0
C141 C 0.85254 0.26411 0.18514 0.0
O142 O 0.84204 0.25531 0.16114 0.0
C143 C 0.86299 0.25095 0.74855 0.0
C144 C 0.88171 0.25696 0.71092 0.0
C145 C 0.87007 0.25373 0.68769 0.0
N146 N 0.87023 0.25303 0.80512 0.0
N147 N 0.88133 0.25624 0.78234 0.0
C148 C 0.84959 0.24644 0.75382 0.0
H149 H 0.84534 0.23803 0.7865 0.0
H150 H 0.8481 0.2534 0.78082 0.0
H151 H 0.84505 0.24413 0.70118 0.0
C152 C 0.87335 0.28666 0.98249 0.0
N153 N 0.86907 0.27451 0.98055 0.0
N154 N 0.87084 0.2714 0.91684 0.0
C155 C 0.8761 0.28151 0.87566 0.0
C156 C 0.878 0.29153 0.91595 0.0
C157 C 0.87372 0.29345 0.04844 0.0
H158 H 0.87788 0.29088 0.09218 0.0
H159 H 0.86424 0.29072 0.06446 0.0
H160 H 0.87905 0.3035 0.04077 0.0
O161 O 0.872 0.25466 0.06847 0.0
O162 O 0.87622 0.24989 0.96312 0.0
H163 H 0.88619 0.27954 0.79056 0.0
H164 H 0.88124 0.29043 0.77271 0.0
C165 C 0.87866 0.28154 0.79803 0.0
H166 H 0.87037 0.27444 0.771 0.0
H167 H 0.88883 0.25876 0.8156 0.0
O168 O 0.86163 0.26912 0.14341 0.0
C169 C 0.87721 0.25028 0.03053 0.0
Co170 Co 0.74207 0.5998 0.04666 0.0
Co171 Co 0.74866 0.61308 0.90022 0.0
C172 C 0.76196 0.60063 0.95948 0.0
O173 O 0.75501 0.5965 0.01341 0.0
O174 O 0.76055 0.60726 0.91391 0.0
C175 C 0.74345 0.5908 0.18053 0.0
O176 O 0.75359 0.59218 0.15261 0.0
C177 C 0.74814 0.61002 0.74885 0.0
C178 C 0.75295 0.62816 0.70594 0.0
C179 C 0.74967 0.61633 0.68635 0.0
N180 N 0.75017 0.61766 0.80331 0.0
N181 N 0.75311 0.62853 0.77757 0.0
C182 C 0.74538 0.59709 0.75689 0.0
H183 H 0.74493 0.59458 0.81367 0.0
H184 H 0.73654 0.59072 0.73126 0.0
H185 H 0.75257 0.59598 0.72971 0.0
C186 C 0.71748 0.58616 0.97964 0.0
N187 N 0.72946 0.59465 0.97876 0.0
N188 N 0.73212 0.60062 0.91811 0.0
C189 C 0.72181 0.59629 0.87917 0.0
C190 C 0.71227 0.58685 0.91614 0.0
C191 C 0.71124 0.57763 0.04021 0.0
H192 H 0.70922 0.58255 0.08212 0.0
H193 H 0.71737 0.57461 0.06335 0.0
H194 H 0.70254 0.56955 0.02292 0.0
O195 O 0.74919 0.61759 0.0658 0.0
O196 O 0.75348 0.62741 0.96274 0.0
H197 H 0.72739 0.61186 0.81074 0.0
H198 H 0.71132 0.6007 0.80698 0.0
C199 C 0.72063 0.60195 0.81191 0.0
H200 H 0.72212 0.59741 0.76574 0.0
H201 H 0.75515 0.63615 0.80878 0.0
O202 O 0.73612 0.59231 0.14126 0.0
C203 C 0.75319 0.62746 0.0304 0.0
Co204 Co 0.86109 0.60039 0.04961 0.0
Co205 Co 0.86679 0.61311 0.90169 0.0
C206 C 0.84131 0.60036 0.96508 0.0
O207 O 0.84459 0.59685 0.02001 0.0
O208 O 0.84898 0.60669 0.91699 0.0
C209 C 0.85164 0.58971 0.18545 0.0
O210 O 0.84136 0.58865 0.16195 0.0
C211 C 0.86349 0.6124 0.74924 0.0
C212 C 0.88132 0.62736 0.71184 0.0
C213 C 0.87021 0.61783 0.68868 0.0
N214 N 0.87032 0.61839 0.80589 0.0
N215 N 0.88086 0.62752 0.78331 0.0
C216 C 0.85161 0.6006 0.75358 0.0
H217 H 0.85095 0.59587 0.80442 0.0
H218 H 0.85063 0.59448 0.7086 0.0
H219 H 0.84399 0.60257 0.75079 0.0
C220 C 0.8727 0.5874 0.98268 0.0
N221 N 0.86859 0.5954 0.98056 0.0
N222 N 0.87111 0.6008 0.91814 0.0
C223 C 0.87693 0.59638 0.87841 0.0
C224 C 0.87817 0.58777 0.91796 0.0
C225 C 0.87215 0.58029 0.04751 0.0
H226 H 0.87673 0.58672 0.09219 0.0
H227 H 0.86245 0.57423 0.06275 0.0
H228 H 0.87661 0.57475 0.03897 0.0
O229 O 0.87117 0.6181 0.06865 0.0
O230 O 0.87635 0.62752 0.96458 0.0
H231 H 0.88721 0.61007 0.80053 0.0
H232 H 0.88554 0.59533 0.78047 0.0
C233 C 0.88094 0.60006 0.80317 0.0
H234 H 0.87284 0.59766 0.76988 0.0
H235 H 0.88801 0.63336 0.81669 0.0
O236 O 0.86059 0.59319 0.14308 0.0
C237 C 0.87678 0.62784 0.03218 0.0
Co238 Co 0.40305 0.26162 0.04861 0.0
Co239 Co 0.39072 0.25426 0.90018 0.0
C240 C 0.4031 0.24149 0.96996 0.0
O241 O 0.40665 0.24852 0.02384 0.0
O242 O 0.39691 0.24278 0.92074 0.0
C243 C 0.41487 0.26451 0.18309 0.0
O244 O 0.41743 0.25625 0.1597 0.0
C245 C 0.39287 0.25253 0.74792 0.0
C246 C 0.37715 0.25379 0.70688 0.0
C247 C 0.38766 0.25377 0.68594 0.0
N248 N 0.38605 0.25238 0.80304 0.0
N249 N 0.3765 0.25283 0.7782 0.0
C250 C 0.4043 0.25181 0.75544 0.0
H251 H 0.40292 0.24488 0.79554 0.0
H252 H 0.41189 0.26073 0.77399 0.0
H253 H 0.40687 0.24922 0.70471 0.0
C254 C 0.4163 0.28602 0.9806 0.0
N255 N 0.40834 0.2739 0.97846 0.0
N256 N 0.40297 0.27097 0.91601 0.0
C257 C 0.4073 0.28123 0.87635 0.0
C258 C 0.41591 0.2911 0.9159 0.0
C259 C 0.42323 0.29263 0.04582 0.0
H260 H 0.41666 0.29115 0.08903 0.0
H261 H 0.42894 0.28872 0.06365 0.0
H262 H 0.42909 0.30259 0.03663 0.0
O263 O 0.38527 0.25411 0.06512 0.0
O264 O 0.37605 0.24966 0.96032 0.0
H265 H 0.39326 0.27688 0.79907 0.0
H266 H 0.40723 0.29098 0.78103 0.0
C267 C 0.40337 0.28157 0.80173 0.0
H268 H 0.40662 0.27678 0.7665 0.0
H269 H 0.36992 0.25317 0.81008 0.0
O270 O 0.40997 0.2687 0.14137 0.0
C271 C 0.3756 0.24994 0.02787 0.0
Co272 Co 0.74222 0.14256 0.0494 0.0
Co273 Co 0.74967 0.13721 0.90155 0.0
C274 C 0.76237 0.16248 0.96645 0.0
O275 O 0.75537 0.15911 0.02048 0.0
O276 O 0.76115 0.15488 0.91817 0.0
C277 C 0.74115 0.15214 0.18499 0.0
O278 O 0.75039 0.16234 0.16088 0.0
C279 C 0.75283 0.1408 0.74939 0.0
C280 C 0.74926 0.12275 0.71143 0.0
C281 C 0.75129 0.13404 0.68852 0.0
N282 N 0.75162 0.13379 0.8058 0.0
N283 N 0.74982 0.12312 0.78289 0.0
C284 C 0.75345 0.15294 0.75454 0.0
H285 H 0.74848 0.15323 0.80241 0.0
H286 H 0.74954 0.15483 0.70665 0.0
H287 H 0.76316 0.16022 0.75967 0.0
C288 C 0.71778 0.13104 0.9808 0.0
N289 N 0.72991 0.13526 0.97939 0.0
N290 N 0.73299 0.133 0.91678 0.0
C291 C 0.72285 0.12735 0.87598 0.0
C292 C 0.71286 0.12585 0.91521 0.0
C293 C 0.71103 0.13117 0.04581 0.0
H294 H 0.71346 0.12714 0.09089 0.0
H295 H 0.71395 0.14078 0.05995 0.0
H296 H 0.70098 0.12598 0.03802 0.0
O297 O 0.74936 0.13204 0.06851 0.0
O298 O 0.75438 0.12758 0.96454 0.0
H299 H 0.72605 0.11716 0.79637 0.0
H300 H 0.71359 0.11979 0.77545 0.0
C301 C 0.72277 0.1238 0.79996 0.0
H302 H 0.72895 0.13204 0.7689 0.0
H303 H 0.74816 0.11582 0.81602 0.0
O304 O 0.73551 0.14315 0.14294 0.0
C305 C 0.75371 0.12664 0.03196 0.0
Co306 Co 0.60109 0.86091 0.93749 0.0
Co307 Co 0.61362 0.86593 0.08593 0.0
C308 C 0.60113 0.8408 0.01945 0.0
O309 O 0.59764 0.8443 0.96534 0.0
O310 O 0.60739 0.84829 0.06842 0.0
C311 C 0.58998 0.85135 0.80243 0.0
O312 O 0.58847 0.84094 0.82687 0.0
C313 C 0.61292 0.86215 0.23793 0.0
C314 C 0.62751 0.88009 0.27672 0.0
C315 C 0.61811 0.86883 0.2991 0.0
N316 N 0.61887 0.86919 0.18187 0.0
N317 N 0.62781 0.87978 0.20528 0.0
C318 C 0.60132 0.8501 0.23216 0.0
H319 H 0.5962 0.84989 0.18376 0.0
H320 H 0.59543 0.84829 0.27956 0.0
H321 H 0.60363 0.84273 0.22768 0.0
C322 C 0.58809 0.87233 0.0063 0.0
N323 N 0.59599 0.86809 0.00775 0.0
N324 N 0.60123 0.87025 0.07055 0.0
C325 C 0.59674 0.87588 0.1114 0.0
C326 C 0.58831 0.87746 0.07204 0.0
C327 C 0.58129 0.87229 0.94116 0.0
H328 H 0.58783 0.87654 0.89661 0.0
H329 H 0.57474 0.8627 0.92594 0.0
H330 H 0.57629 0.87734 0.94935 0.0
O331 O 0.6188 0.87146 0.91925 0.0
O332 O 0.62806 0.87563 0.02384 0.0
H333 H 0.6101 0.88588 0.19147 0.0
H334 H 0.5951 0.88353 0.21179 0.0
C335 C 0.60015 0.87937 0.18753 0.0
H336 H 0.59792 0.87109 0.21859 0.0
H337 H 0.63355 0.88708 0.17248 0.0
O338 O 0.59388 0.86047 0.84398 0.0
C339 C 0.62848 0.87674 0.95651 0.0
Co340 Co 0.14359 0.74099 0.93387 0.0
Co341 Co 0.13773 0.74789 0.08151 0.0
C342 C 0.16327 0.76078 0.01734 0.0
O343 O 0.16008 0.75405 0.96214 0.0
O344 O 0.15555 0.75932 0.06541 0.0
C345 C 0.15285 0.739 0.79826 0.0
O346 O 0.16344 0.74777 0.82158 0.0
C347 C 0.14122 0.74939 0.23313 0.0
C348 C 0.12441 0.74853 0.27404 0.0
C349 C 0.13501 0.74868 0.29485 0.0
N350 N 0.13462 0.74961 0.17797 0.0
N351 N 0.1247 0.74937 0.20262 0.0
C352 C 0.15238 0.74818 0.22613 0.0
H353 H 0.15271 0.74456 0.173 0.0
H354 H 0.15254 0.74208 0.26798 0.0
H355 H 0.16061 0.75733 0.23278 0.0
C356 C 0.13309 0.71662 0.00283 0.0
N357 N 0.13645 0.72857 0.00339 0.0
N358 N 0.13355 0.73133 0.06501 0.0
C359 C 0.12806 0.72114 0.10534 0.0
C360 C 0.12771 0.71151 0.06768 0.0
C361 C 0.13524 0.71036 0.94169 0.0
H362 H 0.1443 0.71653 0.91764 0.0
H363 H 0.13477 0.70173 0.95863 0.0
H364 H 0.12816 0.70827 0.9006 0.0
O365 O 0.13333 0.74852 0.91598 0.0
O366 O 0.12805 0.7527 0.01994 0.0
H367 H 0.11519 0.71074 0.18856 0.0
H368 H 0.12934 0.7236 0.218 0.0
C369 C 0.12224 0.72029 0.176 0.0
H370 H 0.11786 0.726 0.17608 0.0
H371 H 0.1178 0.74905 0.17061 0.0
O372 O 0.1438 0.73417 0.84037 0.0
C373 C 0.12765 0.7526 0.95234 0.0
Co374 Co 0.26283 0.40302 0.94202 0.0
Co375 Co 0.25581 0.3903 0.08975 0.0
C376 C 0.24248 0.40226 0.02382 0.0
O377 O 0.24943 0.40607 0.96961 0.0
O378 O 0.24399 0.39606 0.072 0.0
C379 C 0.26468 0.41436 0.80685 0.0
O380 O 0.25588 0.41608 0.83062 0.0
C381 C 0.254 0.39222 0.24118 0.0
C382 C 0.25548 0.37664 0.2826 0.0
C383 C 0.25493 0.3869 0.30313 0.0
N384 N 0.25404 0.38548 0.18625 0.0
N385 N 0.25465 0.37601 0.2112 0.0
C386 C 0.25473 0.40437 0.23357 0.0
H387 H 0.25875 0.40854 0.18145 0.0
H388 H 0.26024 0.41066 0.27701 0.0
H389 H 0.24535 0.40301 0.23644 0.0
C390 C 0.28705 0.4172 0.01164 0.0
N391 N 0.27511 0.40858 0.01216 0.0
N392 N 0.27232 0.40301 0.07405 0.0
C393 C 0.28247 0.40785 0.11477 0.0
C394 C 0.2921 0.41708 0.0769 0.0
C395 C 0.29337 0.42537 0.9498 0.0
H396 H 0.28734 0.42843 0.92555 0.0
H397 H 0.30215 0.43345 0.96599 0.0
H398 H 0.29521 0.42014 0.90908 0.0
O399 O 0.25605 0.38529 0.92435 0.0
O400 O 0.25143 0.37589 0.02859 0.0
H401 H 0.2929 0.40583 0.1997 0.0
H402 H 0.27968 0.40664 0.22712 0.0
C403 C 0.28331 0.40303 0.18592 0.0
H404 H 0.27787 0.39292 0.18597 0.0
H405 H 0.25524 0.36956 0.17941 0.0
O406 O 0.26961 0.41018 0.84861 0.0
C407 C 0.252 0.37558 0.96117 0.0
Co408 Co 0.80834 0.73453 0.2836 0.0
Co409 Co 0.80365 0.72193 0.43177 0.0
C410 C 0.82859 0.73438 0.36247 0.0
O411 O 0.8251 0.73811 0.30948 0.0
O412 O 0.82113 0.728 0.41118 0.0
C413 C 0.81761 0.74599 0.14912 0.0
O414 O 0.82823 0.7481 0.17364 0.0
C415 C 0.80804 0.72251 0.58361 0.0
C416 C 0.78989 0.70874 0.6243 0.0
C417 C 0.80137 0.7179 0.64569 0.0
N418 N 0.80067 0.71678 0.52825 0.0
N419 N 0.78994 0.70829 0.55285 0.0
C420 C 0.82111 0.73241 0.5761 0.0
H421 H 0.82594 0.7292 0.5408 0.0
H422 H 0.82152 0.74057 0.55116 0.0
H423 H 0.82596 0.73491 0.6278 0.0
C424 C 0.79707 0.7475 0.35423 0.0
N425 N 0.80131 0.7396 0.35475 0.0
N426 N 0.79947 0.73447 0.41776 0.0
C427 C 0.79417 0.73916 0.45991 0.0
C428 C 0.79235 0.74748 0.421 0.0
C429 C 0.79672 0.75412 0.28916 0.0
H430 H 0.79277 0.74756 0.24442 0.0
H431 H 0.8062 0.76107 0.27424 0.0
H432 H 0.79122 0.75864 0.29735 0.0
O433 O 0.79783 0.71682 0.26571 0.0
O434 O 0.79368 0.70747 0.37004 0.0
H435 H 0.78444 0.72644 0.5432 0.0
H436 H 0.78818 0.74193 0.56317 0.0
C437 C 0.79144 0.73621 0.5371 0.0
H438 H 0.79988 0.73797 0.56472 0.0
H439 H 0.78243 0.70276 0.52087 0.0
O440 O 0.80847 0.74166 0.19058 0.0
C441 C 0.79255 0.70711 0.30272 0.0
Co442 Co 0.26838 0.07587 0.28996 0.0
Co443 Co 0.28151 0.08274 0.43669 0.0
C444 C 0.26886 0.09569 0.37731 0.0
O445 O 0.26482 0.08865 0.32377 0.0
O446 O 0.2756 0.0945 0.42296 0.0
C447 C 0.25877 0.07711 0.15767 0.0
O448 O 0.2596 0.08692 0.18714 0.0
C449 C 0.27928 0.08446 0.58693 0.0
C450 C 0.29581 0.08513 0.63109 0.0
C451 C 0.28501 0.08476 0.65037 0.0
N452 N 0.28629 0.08454 0.5332 0.0
N453 N 0.29626 0.08514 0.55958 0.0
C454 C 0.26667 0.08252 0.57631 0.0
H455 H 0.26307 0.07848 0.52334 0.0
H456 H 0.26033 0.07639 0.6178 0.0
H457 H 0.26703 0.09147 0.57924 0.0
C458 C 0.25581 0.05105 0.35438 0.0
N459 N 0.26356 0.06321 0.35732 0.0
N460 N 0.26916 0.06605 0.41919 0.0
C461 C 0.26515 0.05573 0.45773 0.0
C462 C 0.25655 0.04586 0.41801 0.0
C463 C 0.24868 0.04455 0.28946 0.0
H464 H 0.25482 0.04769 0.24254 0.0
H465 H 0.24147 0.04698 0.28038 0.0
H466 H 0.24442 0.03449 0.29443 0.0
O467 O 0.28614 0.08316 0.27045 0.0
O468 O 0.29585 0.08762 0.37391 0.0
H469 H 0.27945 0.06037 0.53381 0.0
H470 H 0.26575 0.04601 0.55219 0.0
C471 C 0.26932 0.0554 0.53183 0.0
H472 H 0.26596 0.05996 0.56802 0.0
H473 H 0.30314 0.08512 0.52895 0.0
O474 O 0.2608 0.06997 0.19546 0.0
C475 C 0.29597 0.08726 0.30626 0.0
Co476 Co 0.92986 0.19379 0.26392 0.0
Co477 Co 0.9233 0.19991 0.41197 0.0
C478 C 0.91008 0.17436 0.34985 0.0
O479 O 0.91677 0.17747 0.29475 0.0
O480 O 0.91164 0.18215 0.39755 0.0
C481 C 0.93008 0.18295 0.1325 0.0
O482 O 0.92107 0.17318 0.16197 0.0
C483 C 0.92253 0.19606 0.56199 0.0
C484 C 0.92049 0.21104 0.60791 0.0
C485 C 0.92187 0.20113 0.62601 0.0
N486 N 0.92164 0.20266 0.50902 0.0
N487 N 0.92027 0.21153 0.53646 0.0
C488 C 0.92527 0.18594 0.55007 0.0
H489 H 0.92898 0.18647 0.49602 0.0
H490 H 0.93193 0.18632 0.58993 0.0
H491 H 0.91669 0.17702 0.55498 0.0
C492 C 0.95448 0.20464 0.33086 0.0
N493 N 0.94249 0.20112 0.33221 0.0
N494 N 0.93981 0.20409 0.39389 0.0
C495 C 0.95009 0.2098 0.43337 0.0
C496 C 0.95967 0.21018 0.39528 0.0
C497 C 0.96073 0.20263 0.26921 0.0
H498 H 0.96237 0.20949 0.22751 0.0
H499 H 0.95474 0.19342 0.24629 0.0
H500 H 0.96961 0.20355 0.28518 0.0
O501 O 0.92248 0.20422 0.2462 0.0
O502 O 0.91848 0.2096 0.35066 0.0
H503 H 0.94478 0.21955 0.5052 0.0
H504 H 0.96053 0.22338 0.51309 0.0
C505 C 0.95106 0.21582 0.5035 0.0
H506 H 0.94863 0.20902 0.54662 0.0
H507 H 0.91954 0.2181 0.50655 0.0
O508 O 0.93605 0.19256 0.16968 0.0
C509 C 0.91852 0.20998 0.28301 0.0
Co510 Co 0.07048 0.4764 0.38715 0.0
Co511 Co 0.0579 0.47089 0.23851 0.0
C512 C 0.0706 0.49626 0.30156 0.0
O513 O 0.07409 0.4929 0.35606 0.0
O514 O 0.06423 0.48861 0.25363 0.0
C515 C 0.08092 0.48697 0.5201 0.0
O516 O 0.08134 0.49663 0.49115 0.0
C517 C 0.06037 0.47454 0.08752 0.0
C518 C 0.04316 0.45944 0.04414 0.0
C519 C 0.05436 0.46929 0.02487 0.0
N520 N 0.05318 0.46803 0.14175 0.0
N521 N 0.04282 0.45909 0.11576 0.0
C522 C 0.07277 0.48559 0.09634 0.0
H523 H 0.077 0.48504 0.14683 0.0
H524 H 0.07884 0.48665 0.05108 0.0
H525 H 0.07177 0.49383 0.09855 0.0
C526 C 0.08326 0.46447 0.3212 0.0
N527 N 0.07547 0.46884 0.31864 0.0
N528 N 0.07 0.46626 0.25639 0.0
C529 C 0.07407 0.46004 0.21744 0.0
C530 C 0.08263 0.45871 0.25708 0.0
C531 C 0.09036 0.46503 0.38603 0.0
H532 H 0.08402 0.46109 0.43174 0.0
H533 H 0.09692 0.47473 0.39884 0.0
H534 H 0.09538 0.45998 0.37875 0.0
O535 O 0.05268 0.46598 0.40482 0.0
O536 O 0.04336 0.46148 0.30012 0.0
H537 H 0.05994 0.4511 0.13936 0.0
H538 H 0.07311 0.4494 0.12384 0.0
C539 C 0.07004 0.4557 0.14296 0.0
H540 H 0.07406 0.46369 0.10695 0.0
H541 H 0.03568 0.45258 0.14677 0.0
O542 O 0.0778 0.47755 0.48195 0.0
C543 C 0.04297 0.46062 0.36763 0.0
Co544 Co 0.52785 0.59546 0.38597 0.0
Co545 Co 0.53254 0.58789 0.23679 0.0
C546 C 0.50744 0.57551 0.30508 0.0
O547 O 0.51121 0.5824 0.35953 0.0
O548 O 0.5147 0.57666 0.25473 0.0
C549 C 0.51871 0.59755 0.52088 0.0
O550 O 0.50815 0.58877 0.49735 0.0
C551 C 0.52905 0.58448 0.08431 0.0
C552 C 0.54757 0.58967 0.04661 0.0
C553 C 0.53608 0.58701 0.02344 0.0
N554 N 0.53618 0.58615 0.14084 0.0
N555 N 0.54715 0.58888 0.11801 0.0
C556 C 0.51578 0.58056 0.0897 0.0
H557 H 0.51121 0.57211 0.12184 0.0
H558 H 0.51469 0.58772 0.1174 0.0
H559 H 0.51123 0.57852 0.03711 0.0
C560 C 0.53923 0.61985 0.31743 0.0
N561 N 0.53501 0.60771 0.31574 0.0
N562 N 0.53694 0.6046 0.2524 0.0
C563 C 0.54234 0.61473 0.21135 0.0
C564 C 0.54406 0.62473 0.25124 0.0
C565 C 0.53938 0.62663 0.38295 0.0
H566 H 0.54397 0.62453 0.42645 0.0
H567 H 0.52984 0.62342 0.39997 0.0
H568 H 0.5442 0.63666 0.37435 0.0
O569 O 0.53796 0.58789 0.40393 0.0
O570 O 0.54226 0.58308 0.29892 0.0
H571 H 0.55249 0.61226 0.1285 0.0
H572 H 0.54854 0.62387 0.10946 0.0
C573 C 0.54532 0.61481 0.13434 0.0
H574 H 0.53701 0.60811 0.10562 0.0
H575 H 0.55457 0.59102 0.15124 0.0
O576 O 0.52775 0.60248 0.47877 0.0
C577 C 0.54319 0.58348 0.36635 0.0
Co578 Co 0.40834 0.93366 0.38901 0.0
Co579 Co 0.41589 0.94579 0.23955 0.0
C580 C 0.42814 0.93295 0.30733 0.0
O581 O 0.42132 0.92996 0.36206 0.0
O582 O 0.427 0.93906 0.25694 0.0
C583 C 0.40634 0.92239 0.52364 0.0
O584 O 0.4151 0.92061 0.49967 0.0
C585 C 0.41963 0.94602 0.08712 0.0
C586 C 0.41374 0.95882 0.04956 0.0
C587 C 0.41689 0.95035 0.02628 0.0
N588 N 0.4176 0.95122 0.14372 0.0
N589 N 0.41446 0.95916 0.12098 0.0
C590 C 0.42408 0.93707 0.09234 0.0
H591 H 0.4325 0.94122 0.12488 0.0
H592 H 0.4171 0.92865 0.11949 0.0
H593 H 0.42634 0.9348 0.03969 0.0
C594 C 0.38387 0.92086 0.32096 0.0
N595 N 0.39603 0.92865 0.31905 0.0
N596 N 0.39918 0.93351 0.25534 0.0
C597 C 0.38908 0.92873 0.21412 0.0
C598 C 0.37902 0.92068 0.25439 0.0
C599 C 0.37705 0.9145 0.38693 0.0
H600 H 0.37973 0.92124 0.43073 0.0
H601 H 0.37963 0.90764 0.4028 0.0
H602 H 0.36701 0.90992 0.37935 0.0
O603 O 0.416 0.95135 0.40708 0.0
O604 O 0.4208 0.96035 0.3018 0.0
H605 H 0.39112 0.94079 0.12887 0.0
H606 H 0.38018 0.92496 0.11107 0.0
C607 C 0.38907 0.93125 0.13645 0.0
H608 H 0.39616 0.93 0.10956 0.0
H609 H 0.41198 0.96417 0.15427 0.0
O610 O 0.4014 0.92654 0.48189 0.0
C611 C 0.42044 0.96095 0.36922 0.0
Co612 Co 0.52803 0.93369 0.38389 0.0
Co613 Co 0.53326 0.94655 0.23656 0.0
C614 C 0.50802 0.93385 0.30444 0.0
O615 O 0.51131 0.92985 0.35705 0.0
O616 O 0.51568 0.94047 0.25703 0.0
C617 C 0.51895 0.9225 0.51904 0.0
O618 O 0.50836 0.92056 0.49524 0.0
C619 C 0.52898 0.9456 0.08462 0.0
C620 C 0.54687 0.95992 0.04391 0.0
C621 C 0.5356 0.9504 0.02257 0.0
N622 N 0.53621 0.95162 0.13996 0.0
N623 N 0.54677 0.96041 0.11535 0.0
C624 C 0.51609 0.9353 0.09216 0.0
H625 H 0.51098 0.93815 0.12756 0.0
H626 H 0.5161 0.92733 0.11694 0.0
H627 H 0.51124 0.93263 0.04051 0.0
C628 C 0.53955 0.92085 0.31438 0.0
N629 N 0.53533 0.92878 0.31345 0.0
N630 N 0.53748 0.93408 0.25086 0.0
C631 C 0.54306 0.92959 0.20957 0.0
C632 C 0.54464 0.92112 0.24848 0.0
C633 C 0.5395 0.91397 0.37918 0.0
H634 H 0.54388 0.92049 0.42373 0.0
H635 H 0.52991 0.90752 0.39478 0.0
H636 H 0.54442 0.90887 0.37042 0.0
O637 O 0.53808 0.95147 0.4021 0.0
O638 O 0.54329 0.96097 0.29825 0.0
H639 H 0.55304 0.9429 0.12935 0.0
H640 H 0.55041 0.9278 0.1085 0.0
C641 C 0.54643 0.93297 0.13334 0.0
H642 H 0.53811 0.93086 0.10298 0.0
H643 H 0.55417 0.96622 0.14735 0.0
O644 O 0.52801 0.92665 0.47697 0.0
C645 C 0.54375 0.96124 0.36585 0.0
Co646 Co 0.07019 0.59578 0.3863 0.0
Co647 Co 0.05813 0.58806 0.23664 0.0
C648 C 0.07079 0.57578 0.30505 0.0
O649 O 0.07357 0.5825 0.36018 0.0
O650 O 0.06491 0.57703 0.25381 0.0
C651 C 0.08156 0.59782 0.5207 0.0
O652 O 0.08335 0.58908 0.49663 0.0
C653 C 0.05789 0.58429 0.08422 0.0
C654 C 0.04504 0.59013 0.04664 0.0
C655 C 0.05354 0.587 0.02336 0.0
N656 N 0.05268 0.5863 0.14082 0.0
N657 N 0.04471 0.58941 0.11806 0.0
C658 C 0.06687 0.57989 0.08944 0.0
H659 H 0.06278 0.57148 0.12215 0.0
H660 H 0.0753 0.5869 0.11639 0.0
H661 H 0.06913 0.57761 0.03679 0.0
C662 C 0.08344 0.62008 0.31692 0.0
N663 N 0.07541 0.60797 0.31569 0.0
N664 N 0.07043 0.60481 0.25223 0.0
C665 C 0.07534 0.61487 0.21057 0.0
C666 C 0.08365 0.62488 0.25024 0.0
C667 C 0.09011 0.6269 0.38223 0.0
H668 H 0.08348 0.62469 0.4262 0.0
H669 H 0.0966 0.62384 0.39851 0.0
H670 H 0.09516 0.63693 0.37364 0.0
O671 O 0.05257 0.58864 0.40423 0.0
O672 O 0.04358 0.58302 0.29914 0.0
H673 H 0.06316 0.61267 0.12576 0.0
H674 H 0.07892 0.62374 0.10747 0.0
C675 C 0.07274 0.61483 0.133 0.0
H676 H 0.07405 0.6078 0.10598 0.0
H677 H 0.03969 0.59187 0.15133 0.0
O678 O 0.0774 0.60277 0.47902 0.0
C679 C 0.04297 0.5839 0.36625 0.0
Co680 Co 0.40828 0.47582 0.3895 0.0
Co681 Co 0.41551 0.47013 0.24233 0.0
C682 C 0.42839 0.49553 0.30877 0.0
O683 O 0.42119 0.49245 0.36174 0.0
O684 O 0.42718 0.48772 0.26193 0.0
C685 C 0.40649 0.48503 0.52489 0.0
O686 O 0.41537 0.49553 0.50138 0.0
C687 C 0.41855 0.47427 0.09036 0.0
C688 C 0.41503 0.45639 0.04952 0.0
C689 C 0.41671 0.46765 0.0283 0.0
N690 N 0.41743 0.46707 0.14564 0.0
N691 N 0.41567 0.45651 0.12095 0.0
C692 C 0.42113 0.48716 0.098 0.0
H693 H 0.41321 0.48715 0.12365 0.0
H694 H 0.42318 0.49198 0.04632 0.0
H695 H 0.42919 0.49231 0.13267 0.0
C696 C 0.38389 0.46469 0.32107 0.0
N697 N 0.39595 0.46855 0.3198 0.0
N698 N 0.3989 0.46608 0.25746 0.0
C699 C 0.38874 0.46054 0.21683 0.0
C700 C 0.37888 0.45943 0.2558 0.0
C701 C 0.37729 0.46531 0.38551 0.0
H702 H 0.37896 0.46062 0.43031 0.0
H703 H 0.38103 0.47502 0.40095 0.0
H704 H 0.3673 0.46097 0.37646 0.0
O705 O 0.41588 0.46564 0.40769 0.0
O706 O 0.41985 0.46008 0.30397 0.0
H707 H 0.39199 0.45031 0.13792 0.0
H708 H 0.37927 0.45252 0.1175 0.0
C709 C 0.38852 0.4568 0.14114 0.0
H710 H 0.39451 0.46499 0.10918 0.0
H711 H 0.41417 0.44913 0.1529 0.0
O712 O 0.40138 0.47601 0.48262 0.0
C713 C 0.4198 0.45979 0.37159 0.0
Co714 Co 0.26702 0.19343 0.27005 0.0
Co715 Co 0.27998 0.20043 0.41719 0.0
C716 C 0.26763 0.17452 0.35939 0.0
O717 O 0.26382 0.17729 0.30388 0.0
O718 O 0.27399 0.1826 0.40551 0.0
C719 C 0.25801 0.18295 0.13614 0.0
O720 O 0.25943 0.1742 0.16386 0.0
C721 C 0.27687 0.19812 0.56843 0.0
C722 C 0.29498 0.21154 0.61134 0.0
C723 C 0.28317 0.20295 0.63089 0.0
N724 N 0.2845 0.20372 0.51399 0.0
N725 N 0.29535 0.21172 0.53971 0.0
C726 C 0.26398 0.18785 0.56039 0.0
H727 H 0.26139 0.18594 0.50363 0.0
H728 H 0.25757 0.19012 0.58736 0.0
H729 H 0.26305 0.17952 0.58616 0.0
C730 C 0.25309 0.20431 0.33487 0.0
N731 N 0.2617 0.20098 0.33683 0.0
N732 N 0.26757 0.20444 0.39773 0.0
C733 C 0.26308 0.21038 0.43569 0.0
C734 C 0.25362 0.21029 0.39787 0.0
C735 C 0.24452 0.20168 0.27406 0.0
H736 H 0.2493 0.2086 0.23189 0.0
H737 H 0.24175 0.19255 0.25146 0.0
H738 H 0.23629 0.20206 0.29092 0.0
O739 O 0.28482 0.20388 0.25137 0.0
O740 O 0.29439 0.20993 0.35492 0.0
H741 H 0.27852 0.22058 0.50468 0.0
H742 H 0.2672 0.22528 0.50743 0.0
C743 C 0.26859 0.2173 0.503 0.0
H744 H 0.26407 0.21127 0.54917 0.0
H745 H 0.30296 0.21729 0.50849 0.0
O746 O 0.25958 0.19182 0.17539 0.0
C747 C 0.2946 0.20993 0.28724 0.0
Co748 Co 0.80973 0.07535 0.28207 0.0
Co749 Co 0.80455 0.08284 0.43006 0.0
C750 C 0.82966 0.09571 0.36235 0.0
O751 O 0.82636 0.08854 0.30909 0.0
O752 O 0.82205 0.09449 0.41047 0.0
C753 C 0.81911 0.07349 0.14726 0.0
O754 O 0.82961 0.0823 0.17128 0.0
C755 C 0.80873 0.08626 0.582 0.0
C756 C 0.7906 0.08197 0.62253 0.0
C757 C 0.80202 0.08416 0.64397 0.0
N758 N 0.80142 0.08478 0.5266 0.0
N759 N 0.7907 0.08258 0.55111 0.0
C760 C 0.82178 0.08937 0.57458 0.0
H761 H 0.82669 0.09749 0.53995 0.0
H762 H 0.82215 0.08165 0.54898 0.0
H763 H 0.82659 0.09159 0.62638 0.0
C764 C 0.79864 0.05102 0.35085 0.0
N765 N 0.80272 0.06313 0.35232 0.0
N766 N 0.80054 0.06619 0.41514 0.0
C767 C 0.79509 0.05607 0.45612 0.0
C768 C 0.79363 0.0461 0.4167 0.0
C769 C 0.79866 0.04429 0.28548 0.0
H770 H 0.79422 0.04645 0.24142 0.0
H771 H 0.80825 0.04749 0.26947 0.0
H772 H 0.79379 0.03425 0.29371 0.0
O773 O 0.79911 0.08242 0.26405 0.0
O774 O 0.79455 0.08726 0.36832 0.0
H775 H 0.78483 0.05891 0.53673 0.0
H776 H 0.78806 0.04682 0.55714 0.0
C777 C 0.79172 0.05596 0.53246 0.0
H778 H 0.79997 0.06239 0.56266 0.0
H779 H 0.78323 0.08072 0.51903 0.0
O780 O 0.81003 0.06844 0.18907 0.0
C781 C 0.79361 0.08664 0.30089 0.0
Co782 Co 0.92901 0.73627 0.27335 0.0
Co783 Co 0.92147 0.72374 0.42182 0.0
C784 C 0.90914 0.73661 0.35591 0.0
O785 O 0.91603 0.73994 0.30143 0.0
O786 O 0.91028 0.73031 0.405 0.0
C787 C 0.93055 0.74717 0.13786 0.0
O788 O 0.92159 0.74861 0.16188 0.0
C789 C 0.91831 0.72406 0.57447 0.0
C790 C 0.9216 0.70932 0.61107 0.0
C791 C 0.91973 0.71864 0.63481 0.0
N792 N 0.91944 0.7183 0.51749 0.0
N793 N 0.92106 0.70927 0.53963 0.0
C794 C 0.91796 0.73572 0.57075 0.0
H795 H 0.92208 0.74061 0.52039 0.0
H796 H 0.92288 0.74179 0.61629 0.0
H797 H 0.90829 0.73353 0.57285 0.0
C798 C 0.95354 0.74877 0.34183 0.0
N799 N 0.94135 0.7411 0.34344 0.0
N800 N 0.93819 0.73596 0.40649 0.0
C801 C 0.94829 0.74035 0.44745 0.0
C802 C 0.95838 0.74853 0.40779 0.0
C803 C 0.9604 0.75536 0.27644 0.0
H804 H 0.95758 0.74882 0.23147 0.0
H805 H 0.95798 0.76243 0.26249 0.0
H806 H 0.97043 0.75974 0.28374 0.0
O807 O 0.9213 0.71858 0.25453 0.0
O808 O 0.91664 0.70929 0.35901 0.0
H809 H 0.94494 0.72726 0.52923 0.0
H810 H 0.95736 0.74242 0.54915 0.0
C811 C 0.94824 0.73717 0.52415 0.0
H812 H 0.94202 0.73936 0.55377 0.0
H813 H 0.92262 0.70363 0.50597 0.0
O814 O 0.93584 0.74342 0.17988 0.0
C815 C 0.91695 0.70888 0.29147 0.0
Co816 Co 0.47714 0.07007 0.60436 0.0
Co817 Co 0.47086 0.05734 0.75212 0.0
C818 C 0.49649 0.06976 0.69114 0.0
O819 O 0.49342 0.07336 0.63595 0.0
O820 O 0.48865 0.06347 0.73845 0.0
C821 C 0.48797 0.0809 0.47273 0.0
O822 O 0.49763 0.08137 0.50198 0.0
C823 C 0.47461 0.06043 0.90211 0.0
C824 C 0.45965 0.0434 0.94793 0.0
C825 C 0.46954 0.05469 0.96608 0.0
N826 N 0.46804 0.05292 0.8491 0.0
N827 N 0.45918 0.04268 0.87647 0.0
C828 C 0.48473 0.0733 0.89027 0.0
H829 H 0.48417 0.07648 0.83628 0.0
H830 H 0.48435 0.07956 0.93024 0.0
H831 H 0.49365 0.07365 0.89504 0.0
C832 C 0.46624 0.08384 0.67084 0.0
N833 N 0.46973 0.07535 0.67228 0.0
N834 N 0.46667 0.06966 0.73379 0.0
C835 C 0.46092 0.07421 0.77302 0.0
C836 C 0.46062 0.08346 0.735 0.0
C837 C 0.4684 0.09219 0.60943 0.0
H838 H 0.47756 0.09525 0.58635 0.0
H839 H 0.46768 0.10025 0.62575 0.0
H840 H 0.46147 0.08709 0.56777 0.0
O841 O 0.46674 0.05224 0.58633 0.0
O842 O 0.46124 0.04284 0.6906 0.0
H843 H 0.44718 0.07095 0.85189 0.0
H844 H 0.4615 0.07342 0.88632 0.0
C845 C 0.45478 0.06908 0.84276 0.0
H846 H 0.45107 0.05907 0.84418 0.0
H847 H 0.45263 0.03538 0.84652 0.0
O848 O 0.47843 0.0775 0.51012 0.0
C849 C 0.46094 0.04251 0.62293 0.0
Co850 Co 0.9347 0.40794 0.60545 0.0
Co851 Co 0.94694 0.41584 0.75428 0.0
C852 C 0.93462 0.42832 0.68239 0.0
O853 O 0.93109 0.42113 0.62919 0.0
O854 O 0.94081 0.42719 0.73211 0.0
C855 C 0.92256 0.40479 0.4718 0.0
O856 O 0.91958 0.41267 0.4967 0.0
C857 C 0.94542 0.41893 0.90597 0.0
C858 C 0.96016 0.41612 0.94806 0.0
C859 C 0.95029 0.41737 0.96849 0.0
N860 N 0.95175 0.41805 0.85123 0.0
N861 N 0.96077 0.41673 0.87666 0.0
C862 C 0.93478 0.42097 0.89742 0.0
H863 H 0.9373 0.42873 0.86086 0.0
H864 H 0.92697 0.41272 0.87358 0.0
H865 H 0.932 0.42319 0.94862 0.0
C866 C 0.92142 0.38376 0.67615 0.0
N867 N 0.92939 0.39589 0.67691 0.0
N868 N 0.9346 0.39909 0.73974 0.0
C869 C 0.93006 0.38903 0.78121 0.0
C870 C 0.92159 0.37898 0.74232 0.0
C871 C 0.91463 0.37688 0.61123 0.0
H872 H 0.92127 0.37852 0.56814 0.0
H873 H 0.90865 0.38043 0.59283 0.0
H874 H 0.90906 0.36691 0.62113 0.0
O875 O 0.95249 0.41516 0.58923 0.0
O876 O 0.96157 0.42043 0.69436 0.0
H877 H 0.94354 0.39286 0.86128 0.0
H878 H 0.92877 0.3798 0.88118 0.0
C879 C 0.93353 0.38904 0.85727 0.0
H880 H 0.93096 0.39484 0.88849 0.0
H881 H 0.96687 0.41548 0.84523 0.0
O882 O 0.92775 0.40077 0.51256 0.0
C883 C 0.96211 0.41965 0.62715 0.0
Co884 Co 0.59588 0.52725 0.60363 0.0
Co885 Co 0.58921 0.53336 0.75142 0.0
C886 C 0.57637 0.50772 0.69059 0.0
O887 O 0.58309 0.51087 0.6356 0.0
O888 O 0.57777 0.51553 0.73774 0.0
C889 C 0.59576 0.51642 0.47192 0.0
O890 O 0.58661 0.50678 0.50151 0.0
C891 C 0.58798 0.52946 0.90162 0.0
C892 C 0.58641 0.54478 0.94655 0.0
C893 C 0.58739 0.53467 0.96532 0.0
N894 N 0.58745 0.5362 0.84822 0.0
N895 N 0.58634 0.54526 0.87506 0.0
C896 C 0.59046 0.51915 0.89048 0.0
H897 H 0.5944 0.5197 0.83704 0.0
H898 H 0.59687 0.5193 0.93133 0.0
H899 H 0.58175 0.51033 0.89427 0.0
C900 C 0.62067 0.53911 0.66873 0.0
N901 N 0.60857 0.53503 0.67129 0.0
N902 N 0.60585 0.53797 0.73296 0.0
C903 C 0.61621 0.54423 0.77128 0.0
C904 C 0.62595 0.54511 0.73206 0.0
C905 C 0.62704 0.53791 0.60488 0.0
H906 H 0.62494 0.54188 0.5581 0.0
H907 H 0.62347 0.52807 0.59363 0.0
H908 H 0.63709 0.54258 0.6124 0.0
O909 O 0.58815 0.53735 0.58528 0.0
O910 O 0.5841 0.54275 0.68954 0.0
H911 H 0.61102 0.55346 0.84742 0.0
H912 H 0.62608 0.55563 0.8621 0.0
C913 C 0.61668 0.54903 0.84477 0.0
H914 H 0.613 0.54132 0.88278 0.0
H915 H 0.58591 0.55196 0.84474 0.0
O916 O 0.60201 0.52595 0.50924 0.0
C917 C 0.58408 0.54304 0.62187 0.0
Co918 Co 0.73727 0.80955 0.72699 0.0
Co919 Co 0.72501 0.80452 0.57772 0.0
C920 C 0.73764 0.82969 0.64304 0.0
O921 O 0.74066 0.82607 0.69836 0.0
O922 O 0.73164 0.82228 0.59336 0.0
C923 C 0.7492 0.82036 0.85726 0.0
O924 O 0.75098 0.83047 0.8267 0.0
C925 C 0.72784 0.80868 0.42744 0.0
C926 C 0.71085 0.79357 0.38215 0.0
C927 C 0.72204 0.80357 0.36357 0.0
N928 N 0.72049 0.80198 0.48068 0.0
N929 N 0.71025 0.79306 0.45361 0.0
C930 C 0.7407 0.81885 0.43891 0.0
H931 H 0.74396 0.81826 0.49265 0.0
H932 H 0.74694 0.81852 0.39857 0.0
H933 H 0.74099 0.82775 0.43448 0.0
C934 C 0.75012 0.79779 0.66014 0.0
N935 N 0.74238 0.80221 0.65767 0.0
N936 N 0.73689 0.79965 0.5955 0.0
C937 C 0.74085 0.79332 0.5566 0.0
C938 C 0.74941 0.79198 0.5961 0.0
C939 C 0.75718 0.79826 0.72502 0.0
H940 H 0.75075 0.79392 0.76998 0.0
H941 H 0.76346 0.80795 0.7396 0.0
H942 H 0.76248 0.79352 0.7169 0.0
O943 O 0.71948 0.79905 0.744 0.0
O944 O 0.71034 0.79515 0.63884 0.0
H945 H 0.72647 0.78437 0.47995 0.0
H946 H 0.73934 0.78216 0.46453 0.0
C947 C 0.73656 0.78874 0.48275 0.0
H948 H 0.74065 0.79655 0.44547 0.0
H949 H 0.70306 0.78641 0.48374 0.0
O950 O 0.74467 0.81055 0.82111 0.0
C951 C 0.70983 0.79398 0.70623 0.0
Co952 Co 0.19404 0.92732 0.70537 0.0
Co953 Co 0.20088 0.92075 0.56023 0.0
C954 C 0.17495 0.908 0.61522 0.0
O955 O 0.17771 0.915 0.66883 0.0
O956 O 0.18311 0.90911 0.57158 0.0
C957 C 0.18415 0.92417 0.83834 0.0
O958 O 0.17737 0.91335 0.80946 0.0
C959 C 0.19729 0.91912 0.41006 0.0
C960 C 0.2133 0.91863 0.36689 0.0
C961 C 0.20283 0.91887 0.34707 0.0
N962 N 0.20416 0.91911 0.46419 0.0
N963 N 0.21365 0.91864 0.43844 0.0
C964 C 0.18653 0.92096 0.41975 0.0
H965 H 0.18699 0.92524 0.47198 0.0
H966 H 0.18619 0.92686 0.37716 0.0
H967 H 0.17799 0.91195 0.41803 0.0
C968 C 0.20675 0.95234 0.6432 0.0
N969 N 0.20236 0.94019 0.6399 0.0
N970 N 0.20532 0.93744 0.57838 0.0
C971 C 0.21174 0.94781 0.54041 0.0
C972 C 0.21287 0.95763 0.58018 0.0
C973 C 0.20577 0.95875 0.70761 0.0
H974 H 0.20801 0.95518 0.75571 0.0
H975 H 0.1962 0.95675 0.71296 0.0
H976 H 0.21198 0.96878 0.7044 0.0
O977 O 0.20412 0.91963 0.72636 0.0
O978 O 0.20996 0.91555 0.62378 0.0
H979 H 0.2216 0.94334 0.46483 0.0
H980 H 0.2221 0.95762 0.44624 0.0
C981 C 0.21635 0.94821 0.4665 0.0
H982 H 0.20846 0.94358 0.43005 0.0
H983 H 0.22053 0.91873 0.46952 0.0
O984 O 0.19192 0.93283 0.79969 0.0
C985 C 0.20999 0.91559 0.69146 0.0
Co986 Co 0.0748 0.26712 0.7191 0.0
Co987 Co 0.08282 0.27943 0.5707 0.0
C988 C 0.09523 0.26702 0.64361 0.0
O989 O 0.08816 0.26369 0.69725 0.0
O990 O 0.09402 0.27305 0.59317 0.0
C991 C 0.07124 0.25487 0.85274 0.0
O992 O 0.07905 0.25173 0.82868 0.0
C993 C 0.08461 0.27697 0.41877 0.0
C994 C 0.08434 0.29313 0.37639 0.0
C995 C 0.08381 0.28231 0.35622 0.0
N996 N 0.08505 0.28402 0.47337 0.0
N997 N 0.08519 0.29383 0.44773 0.0
C998 C 0.08472 0.26522 0.42729 0.0
H999 H 0.09122 0.26618 0.46932 0.0
H1000 H 0.07552 0.25784 0.44362 0.0
H1001 H 0.08747 0.26257 0.37741 0.0
C1002 C 0.05074 0.2537 0.6472 0.0
N1003 N 0.06284 0.26178 0.64699 0.0
N1004 N 0.06599 0.26733 0.58512 0.0
C1005 C 0.05589 0.26309 0.54416 0.0
C1006 C 0.0459 0.25427 0.58198 0.0
C1007 C 0.04392 0.24641 0.71093 0.0
H1008 H 0.04486 0.25275 0.75445 0.0
H1009 H 0.04806 0.24096 0.72958 0.0
H1010 H 0.03407 0.24026 0.69956 0.0
O1011 O 0.08195 0.28489 0.73514 0.0
O1012 O 0.08754 0.29414 0.63063 0.0
H1013 H 0.0611 0.27745 0.46782 0.0
H1014 H 0.04645 0.26417 0.44999 0.0
C1015 C 0.05579 0.26734 0.46998 0.0
H1016 H 0.06001 0.2636 0.43384 0.0
H1017 H 0.08518 0.30064 0.47904 0.0
O1018 O 0.06744 0.2602 0.8115 0.0
C1019 C 0.08658 0.29458 0.69781 0.0
Co1020 Co 0.19571 0.26785 0.71805 0.0
Co1021 Co 0.20041 0.28031 0.56959 0.0
C1022 C 0.1756 0.26846 0.64106 0.0
O1023 O 0.17904 0.26463 0.69387 0.0
O1024 O 0.18304 0.27463 0.59176 0.0
C1025 C 0.18644 0.25602 0.85199 0.0
O1026 O 0.17572 0.25355 0.82708 0.0
C1027 C 0.19579 0.2793 0.41795 0.0
C1028 C 0.21372 0.29335 0.37613 0.0
C1029 C 0.20232 0.28395 0.35547 0.0
N1030 N 0.20318 0.28526 0.47283 0.0
N1031 N 0.21377 0.2939 0.44756 0.0
C1032 C 0.18283 0.26918 0.42632 0.0
H1033 H 0.17793 0.27217 0.46255 0.0
H1034 H 0.18271 0.2611 0.45054 0.0
H1035 H 0.17786 0.26662 0.37501 0.0
C1036 C 0.2062 0.25421 0.64665 0.0
N1037 N 0.20231 0.26239 0.64638 0.0
N1038 N 0.20435 0.26762 0.58357 0.0
C1039 C 0.20956 0.26282 0.54153 0.0
C1040 C 0.21098 0.25422 0.58011 0.0
C1041 C 0.20616 0.24731 0.71131 0.0
H1042 H 0.21086 0.25384 0.75536 0.0
H1043 H 0.19657 0.24111 0.72812 0.0
H1044 H 0.21077 0.24193 0.70175 0.0
O1045 O 0.2066 0.28557 0.7349 0.0
O1046 O 0.21072 0.29478 0.63011 0.0
H1047 H 0.21942 0.27594 0.46018 0.0
H1048 H 0.21651 0.26074 0.43975 0.0
C1049 C 0.21271 0.26605 0.46494 0.0
H1050 H 0.20434 0.264 0.43546 0.0
H1051 H 0.22127 0.29964 0.47909 0.0
O1052 O 0.19565 0.26074 0.81101 0.0
C1053 C 0.21198 0.29521 0.69734 0.0
Co1054 Co 0.7365 0.9288 0.71534 0.0
Co1055 Co 0.72409 0.92131 0.56677 0.0
C1056 C 0.73631 0.90851 0.63561 0.0
O1057 O 0.74003 0.91563 0.68909 0.0
O1058 O 0.73002 0.90975 0.58694 0.0
C1059 C 0.74814 0.9311 0.84961 0.0
O1060 O 0.75033 0.92264 0.82517 0.0
C1061 C 0.72511 0.91802 0.41493 0.0
C1062 C 0.71109 0.922 0.37386 0.0
C1063 C 0.72047 0.92 0.35279 0.0
N1064 N 0.71915 0.91936 0.47009 0.0
N1065 N 0.71054 0.92139 0.44527 0.0
C1066 C 0.7352 0.91512 0.42275 0.0
H1067 H 0.74321 0.92294 0.44834 0.0
H1068 H 0.73788 0.91294 0.3711 0.0
H1069 H 0.7321 0.90704 0.45756 0.0
C1070 C 0.74976 0.95315 0.64681 0.0
N1071 N 0.74178 0.94104 0.6451 0.0
N1072 N 0.73663 0.93798 0.58205 0.0
C1073 C 0.7413 0.94811 0.54118 0.0
C1074 C 0.74972 0.95808 0.58089 0.0
C1075 C 0.75641 0.95988 0.71241 0.0
H1076 H 0.74973 0.95774 0.75603 0.0
H1077 H 0.76275 0.95666 0.72908 0.0
H1078 H 0.7616 0.96992 0.70418 0.0
O1079 O 0.71876 0.92166 0.73255 0.0
O1080 O 0.70958 0.9168 0.62765 0.0
H1081 H 0.72823 0.94513 0.46009 0.0
H1082 H 0.74348 0.9574 0.44034 0.0
C1083 C 0.73811 0.94823 0.46474 0.0
H1084 H 0.74008 0.94191 0.43452 0.0
H1085 H 0.70481 0.92311 0.47712 0.0
O1086 O 0.7436 0.93574 0.80836 0.0
C1087 C 0.70911 0.91739 0.69502 0.0
Co1088 Co 0.07603 0.80946 0.71007 0.0
Co1089 Co 0.08255 0.80327 0.56202 0.0
C1090 C 0.09526 0.82898 0.62117 0.0
O1091 O 0.08863 0.82583 0.67659 0.0
O1092 O 0.09388 0.82115 0.57421 0.0
C1093 C 0.07707 0.8199 0.84376 0.0
O1094 O 0.08697 0.82896 0.81563 0.0
C1095 C 0.08316 0.80627 0.41077 0.0
C1096 C 0.0858 0.79142 0.3688 0.0
C1097 C 0.08404 0.80097 0.34867 0.0
N1098 N 0.08414 0.80005 0.46559 0.0
N1099 N 0.08585 0.79124 0.44045 0.0
C1100 C 0.08158 0.81721 0.41846 0.0
H1101 H 0.07773 0.81726 0.47133 0.0
H1102 H 0.07558 0.81744 0.37625 0.0
H1103 H 0.09065 0.82561 0.41335 0.0
C1104 C 0.05109 0.79719 0.64674 0.0
N1105 N 0.06322 0.80148 0.64324 0.0
N1106 N 0.06591 0.79863 0.58118 0.0
C1107 C 0.0555 0.79227 0.54339 0.0
C1108 C 0.04576 0.79118 0.58352 0.0
C1109 C 0.04475 0.79815 0.71147 0.0
H1110 H 0.04717 0.79435 0.75775 0.0
H1111 H 0.04806 0.80794 0.72281 0.0
H1112 H 0.03467 0.7932 0.70494 0.0
O1113 O 0.08387 0.79949 0.72867 0.0
O1114 O 0.08783 0.79404 0.62441 0.0
H1115 H 0.06063 0.78322 0.46568 0.0
H1116 H 0.04556 0.78108 0.45195 0.0
C1117 C 0.05497 0.78764 0.46941 0.0
H1118 H 0.0586 0.79545 0.43213 0.0
H1119 H 0.08682 0.78499 0.47207 0.0
O1120 O 0.07005 0.81085 0.8048 0.0
C1121 C 0.08794 0.79381 0.69208 0.0
Co1122 Co 0.93448 0.52817 0.60058 0.0
Co1123 Co 0.94638 0.53186 0.75045 0.0
C1124 C 0.93361 0.50721 0.67931 0.0
O1125 O 0.93097 0.51139 0.62476 0.0
O1126 O 0.93946 0.51412 0.73138 0.0
C1127 C 0.92271 0.51901 0.46675 0.0
O1128 O 0.92028 0.5083 0.49155 0.0
C1129 C 0.94654 0.52796 0.90266 0.0
C1130 C 0.95966 0.54651 0.94118 0.0
C1131 C 0.95101 0.53491 0.96393 0.0
N1132 N 0.95183 0.53525 0.84641 0.0
N1133 N 0.95996 0.54623 0.86973 0.0
C1134 C 0.93732 0.51465 0.89672 0.0
H1135 H 0.94119 0.51023 0.86306 0.0
H1136 H 0.92894 0.51349 0.87045 0.0
H1137 H 0.93503 0.51002 0.94908 0.0
C1138 C 0.92161 0.53949 0.67189 0.0
N1139 N 0.92936 0.53507 0.67236 0.0
N1140 N 0.9342 0.5365 0.73599 0.0
C1141 C 0.92943 0.54166 0.77859 0.0
C1142 C 0.92141 0.54387 0.73933 0.0
C1143 C 0.9153 0.54028 0.60651 0.0
H1144 H 0.92204 0.54436 0.56271 0.0
H1145 H 0.90831 0.53091 0.58993 0.0
H1146 H 0.91089 0.54586 0.61527 0.0
O1147 O 0.95212 0.53859 0.58327 0.0
O1148 O 0.961 0.54146 0.68841 0.0
H1149 H 0.94148 0.55113 0.86497 0.0
H1150 H 0.92571 0.54646 0.88281 0.0
C1151 C 0.93189 0.54381 0.85654 0.0
H1152 H 0.93043 0.5353 0.88193 0.0
H1153 H 0.96508 0.55375 0.83685 0.0
O1154 O 0.92737 0.52821 0.50788 0.0
C1155 C 0.96168 0.54322 0.62153 0.0
Co1156 Co 0.4767 0.40864 0.61754 0.0
Co1157 Co 0.47092 0.4158 0.76473 0.0
C1158 C 0.49632 0.42875 0.69977 0.0
O1159 O 0.49329 0.42153 0.64687 0.0
O1160 O 0.48847 0.42758 0.74619 0.0
C1161 C 0.48611 0.40749 0.48192 0.0
O1162 O 0.49635 0.41674 0.50559 0.0
C1163 C 0.4749 0.41941 0.91677 0.0
C1164 C 0.45655 0.41448 0.95653 0.0
C1165 C 0.46809 0.4171 0.97847 0.0
N1166 N 0.46757 0.41764 0.86104 0.0
N1167 N 0.4567 0.41505 0.88508 0.0
C1168 C 0.4881 0.42299 0.90994 0.0
H1169 H 0.49282 0.4312 0.87582 0.0
H1170 H 0.48882 0.41548 0.88401 0.0
H1171 H 0.49284 0.42527 0.96196 0.0
C1172 C 0.46505 0.38408 0.68469 0.0
N1173 N 0.46924 0.39621 0.68665 0.0
N1174 N 0.46706 0.39922 0.74961 0.0
C1175 C 0.46158 0.38907 0.79032 0.0
C1176 C 0.46 0.37911 0.75046 0.0
C1177 C 0.46505 0.37739 0.61909 0.0
H1178 H 0.46123 0.38009 0.57418 0.0
H1179 H 0.47462 0.38008 0.60533 0.0
H1180 H 0.45961 0.36733 0.62595 0.0
O1181 O 0.46654 0.41621 0.59855 0.0
O1182 O 0.46086 0.42003 0.70228 0.0
H1183 H 0.45525 0.37994 0.89227 0.0
H1184 H 0.46662 0.39573 0.89621 0.0
C1185 C 0.45841 0.38896 0.86705 0.0
H1186 H 0.45118 0.39144 0.87204 0.0
H1187 H 0.44919 0.41291 0.85269 0.0
O1188 O 0.47718 0.40191 0.52425 0.0
C1189 C 0.46061 0.42003 0.63465 0.0
Co1190 Co 0.5953 0.06927 0.61461 0.0
Co1191 Co 0.58851 0.05618 0.76144 0.0
C1192 C 0.57551 0.06884 0.70075 0.0
O1193 O 0.58252 0.07292 0.64691 0.0
O1194 O 0.57676 0.06213 0.74663 0.0
C1195 C 0.59546 0.0791 0.47836 0.0
O1196 O 0.58571 0.07914 0.50229 0.0
C1197 C 0.58541 0.05644 0.91361 0.0
C1198 C 0.58952 0.04231 0.95122 0.0
C1199 C 0.58713 0.05132 0.97433 0.0
N1200 N 0.58685 0.05081 0.85706 0.0
N1201 N 0.58898 0.04214 0.87974 0.0
C1202 C 0.5844 0.06775 0.90874 0.0
H1203 H 0.58962 0.0733 0.86222 0.0
H1204 H 0.58781 0.07337 0.95765 0.0
H1205 H 0.57466 0.06503 0.9011 0.0
C1206 C 0.62003 0.08212 0.68016 0.0
N1207 N 0.60791 0.07414 0.68262 0.0
N1208 N 0.60507 0.06877 0.74515 0.0
C1209 C 0.61532 0.07328 0.78485 0.0
C1210 C 0.62517 0.08182 0.74495 0.0
C1211 C 0.62655 0.08912 0.61497 0.0
H1212 H 0.62395 0.08274 0.56928 0.0
H1213 H 0.62359 0.09584 0.60265 0.0
H1214 H 0.63662 0.09395 0.62154 0.0
O1215 O 0.58765 0.05156 0.59459 0.0
O1216 O 0.58396 0.04195 0.69787 0.0
H1217 H 0.61272 0.05996 0.86353 0.0
H1218 H 0.62482 0.07523 0.8847 0.0
C1219 C 0.61564 0.06982 0.86056 0.0
H1220 H 0.60928 0.07151 0.89232 0.0
H1221 H 0.59086 0.03668 0.84645 0.0
O1222 O 0.60171 0.07658 0.52073 0.0
C1223 C 0.58383 0.04176 0.63023 0.0
H1224 H 0.10384 0.40497 0.14207 0.0
H1225 H 0.13383 0.43934 0.07025 0.0
H1226 H 0.09376 0.41544 0.19071 0.0
H1227 H 0.12329 0.44989 0.11347 0.0
H1228 H 0.10721 0.4673 0.25638 0.0
H1229 H 0.11782 0.45672 0.21472 0.0
H1230 H 0.08292 0.42496 0.16429 0.0
H1231 H 0.07252 0.43523 0.21143 0.0
C1232 C 0.10821 0.4148 0.13618 0.0
C1233 C 0.11967 0.42137 0.10331 0.0
C1234 C 0.10236 0.42083 0.16327 0.0
C1235 C 0.10766 0.43359 0.15638 0.0
C1236 C 0.11901 0.44011 0.12131 0.0
C1237 C 0.12498 0.43407 0.09545 0.0
C1238 C 0.10189 0.45798 0.23738 0.0
C1239 C 0.08908 0.45211 0.23618 0.0
C1240 C 0.10794 0.45196 0.21245 0.0
C1241 C 0.10129 0.43997 0.18514 0.0
C1242 C 0.08843 0.43409 0.18556 0.0
C1243 C 0.08242 0.44002 0.21173 0.0
H1244 H 0.56667 0.63739 0.19313 0.0
H1245 H 0.53601 0.64117 0.2585 0.0
H1246 H 0.57698 0.65824 0.14774 0.0
H1247 H 0.54656 0.66237 0.21621 0.0
H1248 H 0.56351 0.69546 0.06584 0.0
H1249 H 0.55279 0.67431 0.1088 0.0
H1250 H 0.58707 0.67881 0.18535 0.0
H1251 H 0.59771 0.69961 0.13926 0.0
C1252 C 0.5622 0.64278 0.19823 0.0
C1253 C 0.55055 0.63771 0.2289 0.0
C1254 C 0.56814 0.65476 0.1728 0.0
C1255 C 0.56262 0.66204 0.17822 0.0
C1256 C 0.55101 0.65699 0.21017 0.0
C1257 C 0.54503 0.64492 0.23522 0.0
C1258 C 0.5687 0.69181 0.09109 0.0
C1259 C 0.5814 0.69911 0.0994 0.0
C1260 C 0.56257 0.67977 0.11652 0.0
C1261 C 0.56904 0.67483 0.15087 0.0
C1262 C 0.58179 0.6822 0.15844 0.0
C1263 C 0.58789 0.69416 0.13261 0.0
H1264 H 0.30734 0.86877 0.08084 0.0
H1265 H 0.30477 0.90063 0.13374 0.0
H1266 H 0.32856 0.87913 0.12226 0.0
H1267 H 0.32561 0.91076 0.17901 0.0
H1268 H 0.36685 0.93056 0.18916 0.0
H1269 H 0.34604 0.9201 0.14369 0.0
H1270 H 0.34082 0.88589 0.22683 0.0
H1271 H 0.36203 0.8964 0.26845 0.0
C1272 C 0.31135 0.878 0.10136 0.0
C1273 C 0.30446 0.88391 0.10449 0.0
C1274 C 0.32344 0.88389 0.12597 0.0
C1275 C 0.32884 0.89579 0.15449 0.0
C1276 C 0.32188 0.90169 0.15665 0.0
C1277 C 0.30989 0.89585 0.13137 0.0
C1278 C 0.36125 0.92079 0.19729 0.0
C1279 C 0.36604 0.91426 0.23188 0.0
C1280 C 0.34926 0.91479 0.1719 0.0
C1281 C 0.34167 0.90211 0.18151 0.0
C1282 C 0.34643 0.89561 0.21741 0.0
C1283 C 0.35852 0.90164 0.24218 0.0
H1284 H 0.46546 0.09663 0.85663 0.0
H1285 H 0.44338 0.08669 0.66701 0.0
H1286 H 0.4551 0.10726 0.90201 0.0
H1287 H 0.43296 0.0973 0.71227 0.0
H1288 H 0.40701 0.10252 0.86389 0.0
H1289 H 0.41848 0.0932 0.81662 0.0
H1290 H 0.45233 0.12556 0.87335 0.0
H1291 H 0.44078 0.135 0.91912 0.0
C1292 C 0.45846 0.09685 0.82447 0.0
C1293 C 0.45518 0.09088 0.75847 0.0
C1294 C 0.45258 0.10295 0.85024 0.0
C1295 C 0.44318 0.10304 0.81086 0.0
C1296 C 0.4401 0.09728 0.74402 0.0
C1297 C 0.44611 0.09131 0.71784 0.0
C1298 C 0.4169 0.10764 0.86591 0.0
C1299 C 0.42304 0.11951 0.89433 0.0
C1300 C 0.42346 0.10234 0.8387 0.0
C1301 C 0.4363 0.10872 0.84052 0.0
C1302 C 0.44244 0.12044 0.87128 0.0
C1303 C 0.43586 0.12581 0.89765 0.0
H1304 H 0.89702 0.36284 0.74004 0.0
H1305 H 0.9316 0.36604 0.79587 0.0
H1306 H 0.88636 0.34165 0.78221 0.0
H1307 H 0.92108 0.34522 0.8417 0.0
H1308 H 0.9001 0.30392 0.85145 0.0
H1309 H 0.91028 0.32474 0.80598 0.0
H1310 H 0.88091 0.3295 0.88753 0.0
H1311 H 0.8704 0.30829 0.92933 0.0
C1312 C 0.90231 0.35897 0.76139 0.0
C1313 C 0.9151 0.36602 0.76509 0.0
C1314 C 0.89623 0.3469 0.78639 0.0
C1315 C 0.90283 0.34169 0.81582 0.0
C1316 C 0.91567 0.34881 0.81863 0.0
C1317 C 0.92171 0.36079 0.79303 0.0
C1318 C 0.89581 0.30943 0.85927 0.0
C1319 C 0.88445 0.30451 0.89347 0.0
C1320 C 0.90169 0.32141 0.83386 0.0
C1321 C 0.89645 0.32887 0.843 0.0
C1322 C 0.88514 0.32399 0.87851 0.0
C1323 C 0.87919 0.31191 0.90335 0.0
H1324 H 0.70416 0.57377 0.79439 0.0
H1325 H 0.69173 0.58377 0.98262 0.0
H1326 H 0.68323 0.56317 0.74776 0.0
H1327 H 0.67079 0.57335 0.93555 0.0
H1328 H 0.64053 0.56868 0.77452 0.0
H1329 H 0.66128 0.57798 0.82265 0.0
H1330 H 0.66164 0.54449 0.78322 0.0
H1331 H 0.64062 0.53502 0.73764 0.0
C1332 C 0.69689 0.57357 0.82594 0.0
C1333 C 0.69946 0.57951 0.89202 0.0
C1334 C 0.68495 0.56751 0.79941 0.0
C1335 C 0.67544 0.56751 0.83795 0.0
C1336 C 0.678 0.5733 0.90467 0.0
C1337 C 0.68991 0.57916 0.93181 0.0
C1338 C 0.64503 0.5633 0.77672 0.0
C1339 C 0.63894 0.55109 0.75375 0.0
C1340 C 0.65686 0.5686 0.80421 0.0
C1341 C 0.66296 0.56188 0.80754 0.0
C1342 C 0.6571 0.54984 0.78144 0.0
C1343 C 0.64514 0.54445 0.75516 0.0
H1344 H 0.90144 0.59768 0.86981 0.0
H1345 H 0.86939 0.56313 0.91778 0.0
H1346 H 0.91163 0.58709 0.82368 0.0
H1347 H 0.8798 0.55235 0.87545 0.0
H1348 H 0.89716 0.53671 0.72547 0.0
H1349 H 0.88667 0.54725 0.76987 0.0
H1350 H 0.92083 0.57578 0.85651 0.0
H1351 H 0.93128 0.56561 0.80824 0.0
C1352 C 0.89664 0.58778 0.87107 0.0
C1353 C 0.88462 0.5812 0.89663 0.0
C1354 C 0.9025 0.58168 0.84525 0.0
C1355 C 0.89656 0.56882 0.84556 0.0
C1356 C 0.8846 0.56224 0.87312 0.0
C1357 C 0.87868 0.56839 0.89828 0.0
C1358 C 0.90239 0.54533 0.75315 0.0
C1359 C 0.91501 0.55035 0.7636 0.0
C1360 C 0.89638 0.55129 0.77951 0.0
C1361 C 0.90286 0.56238 0.8172 0.0
C1362 C 0.91552 0.56738 0.827 0.0
C1363 C 0.92152 0.5615 0.79998 0.0
H1364 H 0.46766 0.36239 0.7379 0.0
H1365 H 0.43763 0.36652 0.81213 0.0
H1366 H 0.457 0.34109 0.77744 0.0
H1367 H 0.4274 0.34569 0.85682 0.0
H1368 H 0.40598 0.30456 0.86887 0.0
H1369 H 0.41657 0.32544 0.82465 0.0
H1370 H 0.45127 0.32833 0.87736 0.0
H1371 H 0.44051 0.307 0.91641 0.0
C1372 C 0.45878 0.35871 0.76281 0.0
C1373 C 0.45348 0.36608 0.77226 0.0
C1374 C 0.45273 0.34657 0.78651 0.0
C1375 C 0.44131 0.34158 0.8209 0.0
C1376 C 0.43605 0.34904 0.82972 0.0
C1377 C 0.44199 0.36107 0.80492 0.0
C1378 C 0.41588 0.30966 0.87029 0.0
C1379 C 0.42245 0.30416 0.89502 0.0
C1380 C 0.42198 0.32171 0.84579 0.0
C1381 C 0.43484 0.32869 0.84713 0.0
C1382 C 0.44139 0.32322 0.874 0.0
C1383 C 0.43525 0.31106 0.89736 0.0
H1384 H 0.70008 0.10307 0.85865 0.0
H1385 H 0.69642 0.1339 0.92186 0.0
H1386 H 0.67933 0.09282 0.81253 0.0
H1387 H 0.67521 0.1233 0.88051 0.0
H1388 H 0.64149 0.10637 0.73799 0.0
H1389 H 0.66276 0.11709 0.7784 0.0
H1390 H 0.65899 0.08255 0.84453 0.0
H1391 H 0.63818 0.07195 0.79937 0.0
C1392 C 0.69474 0.1076 0.86314 0.0
C1393 C 0.69986 0.11932 0.89302 0.0
C1394 C 0.68277 0.10167 0.83746 0.0
C1395 C 0.67549 0.10719 0.84256 0.0
C1396 C 0.68057 0.11884 0.87431 0.0
C1397 C 0.69266 0.12485 0.899 0.0
C1398 C 0.64535 0.10112 0.76015 0.0
C1399 C 0.63822 0.08836 0.76597 0.0
C1400 C 0.65747 0.10725 0.78432 0.0
C1401 C 0.66266 0.10074 0.81537 0.0
C1402 C 0.65546 0.08792 0.82013 0.0
C1403 C 0.64346 0.08182 0.79499 0.0
H1404 H 0.56735 0.93113 0.1913 0.0
H1405 H 0.53655 0.8966 0.25416 0.0
H1406 H 0.57755 0.92064 0.14408 0.0
H1407 H 0.54709 0.88599 0.21152 0.0
H1408 H 0.56381 0.86935 0.06593 0.0
H1409 H 0.55318 0.87989 0.10814 0.0
H1410 H 0.5878 0.91045 0.17505 0.0
H1411 H 0.59831 0.90025 0.12826 0.0
C1412 C 0.56283 0.92126 0.19551 0.0
C1413 C 0.55114 0.91465 0.22566 0.0
C1414 C 0.56872 0.91522 0.16916 0.0
C1415 C 0.56318 0.90241 0.17375 0.0
C1416 C 0.55156 0.89583 0.20574 0.0
C1417 C 0.54559 0.90189 0.23116 0.0
C1418 C 0.56909 0.87841 0.08872 0.0
C1419 C 0.58184 0.88398 0.0943 0.0
C1420 C 0.56301 0.88439 0.11389 0.0
C1421 C 0.56958 0.89603 0.14565 0.0
C1422 C 0.58239 0.9016 0.15016 0.0
C1423 C 0.58844 0.8957 0.12407 0.0
H1424 H 0.11087 0.69092 -0.0011 0.0
H1425 H 0.13235 0.70331 0.19069 0.0
H1426 H 0.10068 0.66989 0.04348 0.0
H1427 H 0.12208 0.68234 0.23602 0.0
H1428 H 0.10824 0.64077 0.25992 0.0
H1429 H 0.11966 0.66173 0.21391 0.0
H1430 H 0.08589 0.6588 0.14059 0.0
H1431 H 0.07456 0.63798 0.18716 0.0
C1432 C 0.1135 0.68909 0.05019 0.0
C1433 C 0.12235 0.69868 0.09151 0.0
C1434 C 0.1076 0.6771 0.07606 0.0
C1435 C 0.11051 0.67447 0.14355 0.0
C1436 C 0.11968 0.68405 0.18374 0.0
C1437 C 0.1255 0.69604 0.15804 0.0
C1438 C 0.1033 0.64471 0.23464 0.0
C1439 C 0.09056 0.63779 0.22666 0.0
C1440 C 0.10981 0.65666 0.20818 0.0
C1441 C 0.10369 0.66186 0.17288 0.0
C1442 C 0.0909 0.65497 0.1662 0.0
C1443 C 0.08441 0.64309 0.1931 0.0
H1444 H 0.365 0.43643 0.20392 0.0
H1445 H 0.36367 0.46897 0.25688 0.0
H1446 H 0.34411 0.42692 0.15812 0.0
H1447 H 0.34261 0.45938 0.21226 0.0
H1448 H 0.30058 0.43072 0.19704 0.0
H1449 H 0.32162 0.4414 0.24177 0.0
H1450 H 0.33349 0.43045 0.05452 0.0
H1451 H 0.31243 0.41976 0.01017 0.0
C1452 C 0.36019 0.44152 0.20572 0.0
C1453 C 0.36593 0.45345 0.23319 0.0
C1454 C 0.34828 0.43611 0.17935 0.0
C1455 C 0.34178 0.44246 0.1809 0.0
C1456 C 0.34739 0.45427 0.21051 0.0
C1457 C 0.3594 0.45974 0.23616 0.0
C1458 C 0.30775 0.43073 0.16534 0.0
C1459 C 0.30496 0.42445 0.10031 0.0
C1460 C 0.31976 0.43686 0.19071 0.0
C1461 C 0.32918 0.43669 0.15184 0.0
C1462 C 0.32639 0.43062 0.08595 0.0
C1463 C 0.3144 0.42461 0.06025 0.0
H1464 H 0.77033 0.73781 0.48689 0.0
H1465 H 0.79998 0.77185 0.40851 0.0
H1466 H 0.76042 0.74849 0.53498 0.0
H1467 H 0.7896 0.78258 0.45135 0.0
H1468 H 0.77397 0.80055 0.59337 0.0
H1469 H 0.78447 0.78981 0.5525 0.0
H1470 H 0.74944 0.75787 0.50677 0.0
H1471 H 0.73916 0.76834 0.55293 0.0
C1472 C 0.77467 0.74761 0.47951 0.0
C1473 C 0.78597 0.75403 0.44473 0.0
C1474 C 0.76891 0.75375 0.50627 0.0
C1475 C 0.77415 0.76647 0.49728 0.0
C1476 C 0.78537 0.77284 0.46069 0.0
C1477 C 0.79124 0.76669 0.43507 0.0
C1478 C 0.7686 0.79116 0.5755 0.0
C1479 C 0.75579 0.7853 0.57535 0.0
C1480 C 0.77458 0.78505 0.55109 0.0
C1481 C 0.76786 0.77296 0.5254 0.0
C1482 C 0.755 0.76708 0.52679 0.0
C1483 C 0.74906 0.77313 0.55238 0.0
H1484 H 0.2667 0.03268 0.46669 0.0
H1485 H 0.23205 0.0295 0.41315 0.0
H1486 H 0.25632 0.01193 0.5119 0.0
H1487 H 0.22153 0.00816 0.45131 0.0
H1488 H 0.20446 0.97377 0.58502 0.0
H1489 H 0.21506 0.99511 0.54696 0.0
H1490 H 0.24637 0.99181 0.48671 0.0
H1491 H 0.23621 0.97105 0.53185 0.0
C1492 C 0.25681 0.02744 0.4642 0.0
C1493 C 0.25016 0.03276 0.43808 0.0
C1494 C 0.25082 0.01542 0.48903 0.0
C1495 C 0.23798 0.0082 0.48586 0.0
C1496 C 0.23137 0.01344 0.45664 0.0
C1497 C 0.23739 0.02561 0.43357 0.0
C1498 C 0.2137 0.97776 0.56472 0.0
C1499 C 0.21946 0.97074 0.56025 0.0
C1500 C 0.21973 0.98994 0.5417 0.0
C1501 C 0.2316 0.9953 0.51258 0.0
C1502 C 0.23736 0.98821 0.50949 0.0
C1503 C 0.23145 0.97619 0.53427 0.0
H1504 H 0.03172 0.26347 0.53576 0.0
H1505 H 0.03109 0.22953 0.57542 0.0
H1506 H 0.01101 0.25216 0.48681 0.0
H1507 H 0.01017 0.21813 0.52847 0.0
H1508 H 0.9679 0.20472 0.51496 0.0
H1509 H 0.98884 0.21499 0.56129 0.0
H1510 H 1.0011 0.23836 0.37655 0.0
H1511 H 0.98013 0.22797 0.33005 0.0
C1512 C 0.02711 0.25358 0.53391 0.0
C1513 C 0.03301 0.24735 0.55823 0.0
C1514 C 0.0153 0.24712 0.50586 0.0
C1515 C 0.00906 0.23428 0.50304 0.0
C1516 C 0.01479 0.22803 0.52993 0.0
C1517 C 0.02671 0.23452 0.55694 0.0
C1518 C 0.97514 0.21196 0.48402 0.0
C1519 C 0.97249 0.21558 0.41904 0.0
C1520 C 0.98708 0.2178 0.51036 0.0
C1521 C 0.99656 0.2275 0.47268 0.0
C1522 C 0.99393 0.23096 0.4069 0.0
C1523 C 0.982 0.22498 0.38003 0.0
H1524 H 0.20191 0.22954 0.58555 0.0
H1525 H 0.23349 0.26337 0.5209 0.0
H1526 H 0.21146 0.21812 0.53933 0.0
H1527 H 0.2429 0.25202 0.47316 0.0
H1528 H 0.2494 0.22669 0.32709 0.0
H1529 H 0.23856 0.23693 0.37168 0.0
H1530 H 0.23026 0.21615 0.56617 0.0
H1531 H 0.24111 0.20597 0.52148 0.0
C1532 C 0.21092 0.23451 0.56183 0.0
C1533 C 0.21694 0.2473 0.55615 0.0
C1534 C 0.21635 0.228 0.53519 0.0
C1535 C 0.22785 0.23418 0.50179 0.0
C1536 C 0.23393 0.247 0.49733 0.0
C1537 C 0.22858 0.25349 0.5248 0.0
C1538 C 0.24509 0.22421 0.37883 0.0
C1539 C 0.24606 0.21558 0.42098 0.0
C1540 C 0.23899 0.23012 0.4046 0.0
C1541 C 0.23363 0.22737 0.47256 0.0
C1542 C 0.23425 0.2184 0.51353 0.0
C1543 C 0.24048 0.21263 0.48814 0.0
H1544 H 0.7742 0.97445 0.58932 0.0
H1545 H 0.7399 0.97096 0.52352 0.0
H1546 H 0.78493 0.9958 0.55026 0.0
H1547 H 0.75054 0.99192 0.48026 0.0
H1548 H 0.77093 0.03318 0.47396 0.0
H1549 H 0.76066 0.01223 0.51736 0.0
H1550 H 0.79126 0.00846 0.44798 0.0
H1551 H 0.80183 0.0298 0.4088 0.0
C1552 C 0.76899 0.97829 0.56637 0.0
C1553 C 0.75626 0.9711 0.55912 0.0
C1554 C 0.77512 0.99045 0.54311 0.0
C1555 C 0.76864 0.99564 0.51168 0.0
C1556 C 0.75586 0.98837 0.50504 0.0
C1557 C 0.74975 0.97629 0.52907 0.0
C1558 C 0.77548 0.02787 0.46858 0.0
C1559 C 0.78719 0.0331 0.43865 0.0
C1560 C 0.76954 0.0158 0.4927 0.0
C1561 C 0.77509 0.00856 0.48625 0.0
C1562 C 0.78677 0.01378 0.45498 0.0
C1563 C 0.79278 0.02594 0.43163 0.0
H1564 H 0.9755 0.77282 0.39663 0.0
H1565 H 0.97049 0.73825 0.46964 0.0
H1566 H 0.99658 0.78308 0.43964 0.0
H1567 H 0.99101 0.74846 0.51841 0.0
H1568 H 0.03195 0.76758 0.5408 0.0
H1569 H 0.01131 0.75757 0.49348 0.0
H1570 H 0.00895 0.78991 0.54004 0.0
H1571 H 0.03014 0.80022 0.58151 0.0
C1572 C 0.97894 0.76744 0.42202 0.0
C1573 C 0.97137 0.75477 0.43031 0.0
C1574 C 0.99095 0.77333 0.44782 0.0
C1575 C 0.9956 0.76668 0.48336 0.0
C1576 C 0.98796 0.75394 0.49058 0.0
C1577 C 0.97609 0.74807 0.46343 0.0
C1578 C 0.02702 0.77255 0.5402 0.0
C1579 C 0.03267 0.78472 0.56337 0.0
C1580 C 0.01509 0.76677 0.51395 0.0
C1581 C 0.00833 0.77289 0.51231 0.0
C1582 C 0.01389 0.78496 0.53862 0.0
C1583 C 0.02596 0.79083 0.56349 0.0
H1584 H 0.1788 0.40737 0.91405 0.0
H1585 H 0.17618 0.40336 0.14214 0.0
H1586 H 0.19877 0.40887 0.91713 0.0
H1587 H 0.1964 0.40548 0.14596 0.0
H1588 H 0.22338 0.39174 0.1167 0.0
H1589 H 0.20516 0.39353 0.11888 0.0
H1590 H 0.21961 0.41972 0.94708 0.0
H1591 H 0.23768 0.41745 0.94277 0.0
C1592 C 0.18262 0.40709 0.96506 0.0
C1593 C 0.17585 0.4051 0.02777 0.0
C1594 C 0.19413 0.40802 0.96695 0.0
C1595 C 0.19921 0.40716 0.03177 0.0
C1596 C 0.19268 0.40585 0.09484 0.0
C1597 C 0.1811 0.40473 0.09279 0.0
C1598 C 0.22274 0.39797 0.07968 0.0
C1599 C 0.23197 0.40438 0.02919 0.0
C1600 C 0.21229 0.39907 0.08128 0.0
C1601 C 0.21083 0.40677 0.0331 0.0
C1602 C 0.22028 0.41353 0.98418 0.0
C1603 C 0.2307 0.4123 0.98199 0.0
H1604 H 0.59811 0.77323 0.90541 0.0
H1605 H 0.59642 0.77159 0.13432 0.0
H1606 H 0.59643 0.79163 0.908 0.0
H1607 H 0.59432 0.78972 0.13725 0.0
H1608 H 0.60949 0.83099 0.11861 0.0
H1609 H 0.60735 0.81082 0.11911 0.0
H1610 H 0.58469 0.80121 0.93131 0.0
H1611 H 0.58724 0.82168 0.92929 0.0
C1612 C 0.59712 0.77666 0.95627 0.0
C1613 C 0.59764 0.77111 0.01978 0.0
C1614 C 0.5961 0.7872 0.95782 0.0
C1615 C 0.59541 0.79231 0.02294 0.0
C1616 C 0.59518 0.78627 0.0862 0.0
C1617 C 0.59636 0.77584 0.08462 0.0
C1618 C 0.60395 0.82456 0.0777 0.0
C1619 C 0.59863 0.82802 0.02357 0.0
C1620 C 0.60264 0.81291 0.07828 0.0
C1621 C 0.59586 0.80433 0.02515 0.0
C1622 C 0.59015 0.80763 0.97241 0.0
C1623 C 0.59154 0.81935 0.97151 0.0
H1624 H 0.22245 0.83197 0.1217 0.0
H1625 H 0.23816 0.82103 0.95306 0.0
H1626 H 0.20439 0.81184 0.12104 0.0
H1627 H 0.22028 0.80056 0.95473 0.0
H1628 H 0.17996 0.77197 0.91115 0.0
H1629 H 0.19978 0.7905 0.91924 0.0
H1630 H 0.19536 0.79111 0.14678 0.0
H1631 H 0.17524 0.77293 0.13776 0.0
C1632 C 0.22216 0.82518 0.08539 0.0
C1633 C 0.23172 0.82817 0.03698 0.0
C1634 C 0.2118 0.81354 0.08534 0.0
C1635 C 0.21077 0.80449 0.03763 0.0
C1636 C 0.22059 0.80734 0.99125 0.0
C1637 C 0.23091 0.81906 0.99061 0.0
C1638 C 0.18329 0.77599 0.96299 0.0
C1639 C 0.17597 0.77106 0.02371 0.0
C1640 C 0.19472 0.78661 0.96779 0.0
C1641 C 0.19921 0.79245 0.03364 0.0
C1642 C 0.19212 0.78709 0.09487 0.0
C1643 C 0.1806 0.7766 0.08986 0.0
H1644 H 0.40876 0.23092 0.07928 0.0
H1645 H 0.40254 0.2284 0.85286 0.0
H1646 H 0.41004 0.21233 0.07568 0.0
H1647 H 0.40458 0.21032 0.84822 0.0
H1648 H 0.39131 0.1699 0.87838 0.0
H1649 H 0.39302 0.18985 0.87736 0.0
H1650 H 0.42035 0.20195 0.04309 0.0
H1651 H 0.41812 0.18161 0.04654 0.0
C1652 C 0.40795 0.22657 0.02843 0.0
C1653 C 0.40544 0.23111 0.96643 0.0
C1654 C 0.40876 0.21591 0.02622 0.0
C1655 C 0.40728 0.20966 0.96172 0.0
C1656 C 0.40543 0.21464 0.89924 0.0
C1657 C 0.40438 0.22512 0.90171 0.0
C1658 C 0.39778 0.17683 0.91426 0.0
C1659 C 0.40453 0.17411 0.96282 0.0
C1660 C 0.39883 0.18837 0.91334 0.0
C1661 C 0.40684 0.19762 0.96012 0.0
C1662 C 0.41392 0.19502 0.00712 0.0
C1663 C 0.41272 0.18338 0.00876 0.0
H1664 H 0.76735 0.18189 0.05345 0.0
H1665 H 0.78086 0.17195 0.86909 0.0
H1666 H 0.78528 0.20234 0.05086 0.0
H1667 H 0.79892 0.1921 0.86817 0.0
H1668 H 0.82741 0.23134 0.8515 0.0
H1669 H 0.80723 0.21315 0.84747 0.0
H1670 H 0.80643 0.21194 0.07701 0.0
H1671 H 0.82644 0.23037 0.08058 0.0
C1672 C 0.77411 0.18407 0.0122 0.0
C1673 C 0.77268 0.17524 0.96173 0.0
C1674 C 0.78444 0.19578 0.01099 0.0
C1675 C 0.79363 0.1989 0.95958 0.0
C1676 C 0.79199 0.19015 0.90792 0.0
C1677 C 0.78163 0.17851 0.90876 0.0
C1678 C 0.8229 0.22722 0.901 0.0
C1679 C 0.82861 0.23218 0.96625 0.0
C1680 C 0.81132 0.21677 0.8988 0.0
C1681 C 0.80522 0.21091 0.9619 0.0
C1682 C 0.81074 0.21623 0.02727 0.0
C1683 C 0.82226 0.22679 0.02939 0.0
H1684 H 0.76602 0.5842 0.03228 0.0
H1685 H 0.78165 0.61229 0.87131 0.0
H1686 H 0.78411 0.582 0.02781 0.0
H1687 H 0.79992 0.61054 0.86918 0.0
H1688 H 0.8294 0.60126 0.84604 0.0
H1689 H 0.80921 0.59919 0.83859 0.0
H1690 H 0.80456 0.59256 0.06486 0.0
H1691 H 0.82446 0.59402 0.07132 0.0
C1692 C 0.7733 0.58988 0.99577 0.0
C1693 C 0.77241 0.59846 0.9524 0.0
C1694 C 0.78373 0.58869 0.99355 0.0
C1695 C 0.79359 0.59616 0.94857 0.0
C1696 C 0.79249 0.60447 0.90371 0.0
C1697 C 0.78201 0.60554 0.90524 0.0
C1698 C 0.82398 0.59918 0.89396 0.0
C1699 C 0.82857 0.59787 0.95931 0.0
C1700 C 0.81242 0.59808 0.88986 0.0
C1701 C 0.80524 0.59585 0.95124 0.0
C1702 C 0.80969 0.59411 0.01619 0.0
C1703 C 0.82117 0.59502 0.02005 0.0
H1704 H 0.84833 0.75031 0.28169 0.0
H1705 H 0.83767 0.72372 0.45048 0.0
H1706 H 0.86895 0.75319 0.28398 0.0
H1707 H 0.85793 0.7262 0.45092 0.0
H1708 H 0.89686 0.73703 0.47409 0.0
H1709 H 0.87854 0.73876 0.47942 0.0
H1710 H 0.87955 0.74294 0.25114 0.0
H1711 H 0.89823 0.74181 0.24657 0.0
C1712 C 0.85039 0.74511 0.31938 0.0
C1713 C 0.84134 0.7368 0.36596 0.0
C1714 C 0.86219 0.7467 0.32046 0.0
C1715 C 0.86518 0.73994 0.36766 0.0
C1716 C 0.85613 0.73179 0.41488 0.0
C1717 C 0.84442 0.7303 0.41432 0.0
C1718 C 0.89326 0.7385 0.42521 0.0
C1719 C 0.89893 0.73917 0.35989 0.0
C1720 C 0.88269 0.73941 0.42811 0.0
C1721 C 0.87738 0.74077 0.36557 0.0
C1722 C 0.8834 0.74201 0.30053 0.0
C1723 C 0.8941 0.7413 0.29781 0.0
H1724 H 0.26921 0.16349 0.48086 0.0
H1725 H 0.26121 0.1571 0.2568 0.0
H1726 H 0.26738 0.14341 0.49218 0.0
H1727 H 0.25999 0.13736 0.26704 0.0
H1728 H 0.25206 0.09923 0.30489 0.0
H1729 H 0.24966 0.1172 0.30743 0.0
H1730 H 0.27856 0.13385 0.46357 0.0
H1731 H 0.28048 0.11567 0.46354 0.0
C1732 C 0.26704 0.15778 0.43405 0.0
C1733 C 0.26542 0.16192 0.36788 0.0
C1734 C 0.26607 0.14629 0.44037 0.0
C1735 C 0.26365 0.13873 0.38043 0.0
C1736 C 0.26166 0.14277 0.31472 0.0
C1737 C 0.26244 0.15416 0.30867 0.0
C1738 C 0.25778 0.10667 0.34047 0.0
C1739 C 0.26652 0.10604 0.38365 0.0
C1740 C 0.25647 0.11703 0.34159 0.0
C1741 C 0.264 0.12711 0.38512 0.0
C1742 C 0.27245 0.12626 0.43006 0.0
C1743 C 0.27363 0.11583 0.42971 0.0
H1744 H 0.89745 0.16259 0.46968 0.0
H1745 H 0.89907 0.15758 0.24383 0.0
H1746 H 0.87911 0.14255 0.47781 0.0
H1747 H 0.88043 0.13786 0.25102 0.0
H1748 H 0.84969 0.09948 0.28514 0.0
H1749 H 0.87017 0.11737 0.28749 0.0
H1750 H 0.85846 0.13369 0.44884 0.0
H1751 H 0.8383 0.11567 0.44869 0.0
C1752 C 0.8939 0.15718 0.42178 0.0
C1753 C 0.89968 0.1617 0.35607 0.0
C1754 C 0.88332 0.14571 0.42628 0.0
C1755 C 0.87812 0.13858 0.36494 0.0
C1756 C 0.88419 0.14296 0.29964 0.0
C1757 C 0.89489 0.15434 0.29537 0.0
C1758 C 0.85156 0.10684 0.32166 0.0
C1759 C 0.84235 0.10614 0.3666 0.0
C1760 C 0.86329 0.11715 0.32274 0.0
C1761 C 0.86603 0.12707 0.36812 0.0
C1762 C 0.85684 0.12619 0.41409 0.0
C1763 C 0.8452 0.11585 0.41367 0.0
H1764 H 0.06179 0.50578 0.20308 0.0
H1765 H 0.08492 0.51565 0.38886 0.0
H1766 H 0.06376 0.5259 0.20253 0.0
H1767 H 0.08728 0.53603 0.38675 0.0
H1768 H 0.07363 0.56367 0.41683 0.0
H1769 H 0.07541 0.54534 0.41273 0.0
H1770 H 0.07646 0.54705 0.18332 0.0
H1771 H 0.07429 0.56514 0.1878 0.0
C1772 C 0.0675 0.51232 0.24311 0.0
C1773 C 0.0731 0.50903 0.29643 0.0
C1774 C 0.0687 0.52394 0.24252 0.0
C1775 C 0.07564 0.53263 0.29482 0.0
C1776 C 0.08167 0.52951 0.34642 0.0
C1777 C 0.08039 0.51784 0.34735 0.0
C1778 C 0.0744 0.56021 0.36558 0.0
C1779 C 0.07358 0.56571 0.30256 0.0
C1780 C 0.07548 0.54972 0.36315 0.0
C1781 C 0.07593 0.54458 0.29761 0.0
C1782 C 0.07581 0.55053 0.23472 0.0
C1783 C 0.07458 0.56093 0.2372 0.0
H1784 H 0.49366 0.56365 0.18842 0.0
H1785 H 0.49222 0.56423 0.41732 0.0
H1786 H 0.47357 0.54536 0.18589 0.0
H1787 H 0.47226 0.54571 0.41526 0.0
H1788 H 0.43308 0.51544 0.39044 0.0
H1789 H 0.45107 0.53586 0.38626 0.0
H1790 H 0.46553 0.52445 0.21294 0.0
H1791 H 0.44749 0.5043 0.21563 0.0
C1792 C 0.48906 0.55987 0.23821 0.0
C1793 C 0.49463 0.5653 0.30301 0.0
C1794 C 0.47753 0.54935 0.23686 0.0
C1795 C 0.47133 0.5439 0.30041 0.0
C1796 C 0.47668 0.54967 0.36518 0.0
C1797 C 0.48816 0.56029 0.36641 0.0
C1798 C 0.44004 0.51735 0.35092 0.0
C1799 C 0.43882 0.50821 0.30341 0.0
C1800 C 0.4504 0.52905 0.34879 0.0
C1801 C 0.4598 0.53184 0.29937 0.0
C1802 C 0.45841 0.52275 0.2509 0.0
C1803 C 0.44805 0.51112 0.25271 0.0
H1804 H 0.43936 0.93029 0.19004 0.0
H1805 H 0.43978 0.92941 0.41911 0.0
H1806 H 0.4576 0.92839 0.18617 0.0
H1807 H 0.45824 0.92785 0.41565 0.0
H1808 H 0.48844 0.91884 0.38891 0.0
H1809 H 0.46798 0.91633 0.38673 0.0
H1810 H 0.47862 0.94152 0.21037 0.0
H1811 H 0.49881 0.94374 0.21122 0.0
C1812 C 0.44336 0.9297 0.23957 0.0
C1813 C 0.43825 0.93022 0.30479 0.0
C1814 C 0.45384 0.92863 0.23745 0.0
C1815 C 0.45955 0.92818 0.30061 0.0
C1816 C 0.45407 0.92808 0.36589 0.0
C1817 C 0.44349 0.92902 0.36792 0.0
C1818 C 0.48635 0.92372 0.34915 0.0
C1819 C 0.4953 0.9315 0.30025 0.0
C1820 C 0.47463 0.92233 0.34816 0.0
C1821 C 0.47161 0.92873 0.29846 0.0
C1822 C 0.4805 0.93626 0.2486 0.0
C1823 C 0.49215 0.93759 0.24934 0.0
H1824 H 0.50809 0.06864 0.81125 0.0
H1825 H 0.5135 0.07596 0.58617 0.0
H1826 H 0.52824 0.07059 0.82009 0.0
H1827 H 0.53331 0.07731 0.59399 0.0
H1828 H 0.57164 0.08536 0.62749 0.0
H1829 H 0.55366 0.08775 0.63163 0.0
H1830 H 0.53763 0.0593 0.79069 0.0
H1831 H 0.5558 0.0574 0.78901 0.0
C1832 C 0.5136 0.0707 0.76368 0.0
C1833 C 0.50916 0.07209 0.69797 0.0
C1834 C 0.52513 0.07174 0.76858 0.0
C1835 C 0.53243 0.07398 0.70765 0.0
C1836 C 0.52811 0.07576 0.64237 0.0
C1837 C 0.51667 0.07492 0.63772 0.0
C1838 C 0.56433 0.07975 0.66402 0.0
C1839 C 0.56513 0.07114 0.70758 0.0
C1840 C 0.55396 0.08105 0.66607 0.0
C1841 C 0.54406 0.07364 0.71098 0.0
C1842 C 0.54509 0.06532 0.75615 0.0
C1843 C 0.55551 0.06415 0.75483 0.0
H1844 H 0.9312 0.49269 0.5658 0.0
H1845 H 0.92949 0.49258 0.79472 0.0
H1846 H 0.92959 0.47263 0.56812 0.0
H1847 H 0.92751 0.4724 0.79735 0.0
H1848 H 0.94335 0.44695 0.77861 0.0
H1849 H 0.94102 0.46484 0.77814 0.0
H1850 H 0.91794 0.45116 0.59229 0.0
H1851 H 0.9206 0.43328 0.59151 0.0
C1852 C 0.93022 0.48826 0.61658 0.0
C1853 C 0.93073 0.49432 0.6802 0.0
C1854 C 0.92925 0.47672 0.61796 0.0
C1855 C 0.92862 0.47095 0.68303 0.0
C1856 C 0.92833 0.47672 0.74636 0.0
C1857 C 0.92945 0.48829 0.74495 0.0
C1858 C 0.93765 0.44764 0.73801 0.0
C1859 C 0.93219 0.43866 0.68499 0.0
C1860 C 0.93624 0.45791 0.738 0.0
C1861 C 0.92926 0.45948 0.68527 0.0
C1862 C 0.92351 0.45034 0.63321 0.0
C1863 C 0.92498 0.44005 0.63299 0.0
H1864 H 0.5167 0.43245 0.62674 0.0
H1865 H 0.50454 0.44884 0.78472 0.0
H1866 H 0.53712 0.45041 0.63053 0.0
H1867 H 0.52465 0.46692 0.78629 0.0
H1868 H 0.56346 0.49608 0.81005 0.0
H1869 H 0.54523 0.47596 0.81805 0.0
H1870 H 0.54736 0.47083 0.59246 0.0
H1871 H 0.56588 0.49064 0.58547 0.0
C1872 C 0.51839 0.43987 0.6624 0.0
C1873 C 0.50897 0.4392 0.70533 0.0
C1874 C 0.53009 0.45022 0.66429 0.0
C1875 C 0.5326 0.46021 0.70847 0.0
C1876 C 0.52321 0.45937 0.75255 0.0
C1877 C 0.51159 0.44898 0.75132 0.0
C1878 C 0.56013 0.49056 0.76242 0.0
C1879 C 0.56609 0.495 0.69707 0.0
C1880 C 0.5496 0.47905 0.76683 0.0
C1881 C 0.54466 0.47177 0.70574 0.0
C1882 C 0.55092 0.47605 0.6409 0.0
C1883 C 0.56155 0.48748 0.63675 0.0
H1884 H 0.72566 0.88893 0.54621 0.0
H1885 H 0.75202 0.90441 0.71645 0.0
H1886 H 0.72785 0.87096 0.54565 0.0
H1887 H 0.75465 0.88653 0.71394 0.0
H1888 H 0.74276 0.84586 0.75195 0.0
H1889 H 0.7441 0.86574 0.7467 0.0
H1890 H 0.7401 0.8625 0.51832 0.0
H1891 H 0.73816 0.84235 0.52429 0.0
C1892 C 0.73212 0.88862 0.58267 0.0
C1893 C 0.73862 0.89811 0.63159 0.0
C1894 C 0.73346 0.8783 0.58203 0.0
C1895 C 0.74145 0.87723 0.62969 0.0
C1896 C 0.74826 0.88692 0.6772 0.0
C1897 C 0.74681 0.89722 0.67839 0.0
C1898 C 0.74233 0.84947 0.70054 0.0
C1899 C 0.74022 0.84247 0.63862 0.0
C1900 C 0.74316 0.86093 0.69741 0.0
C1901 C 0.74206 0.86573 0.63214 0.0
C1902 C 0.74066 0.85899 0.56978 0.0
C1903 C 0.73964 0.84746 0.57306 0.0
H1904 H 0.16683 0.88837 0.52636 0.0
H1905 H 0.15435 0.90433 0.68521 0.0
H1906 H 0.14671 0.87026 0.52309 0.0
H1907 H 0.13395 0.88642 0.67939 0.0
H1908 H 0.10802 0.84056 0.5011 0.0
H1909 H 0.12609 0.8608 0.49224 0.0
H1910 H 0.12399 0.86612 0.71765 0.0
H1911 H 0.10564 0.84622 0.72543 0.0
C1912 C 0.15971 0.88813 0.55953 0.0
C1913 C 0.16225 0.89775 0.60663 0.0
C1914 C 0.14809 0.87774 0.55729 0.0
C1915 C 0.13863 0.87676 0.60135 0.0
C1916 C 0.14104 0.88669 0.64584 0.0
C1917 C 0.15273 0.89702 0.64882 0.0
C1918 C 0.11132 0.84615 0.54847 0.0
C1919 C 0.10542 0.84175 0.61402 0.0
C1920 C 0.12175 0.85774 0.54357 0.0
C1921 C 0.12666 0.86512 0.60435 0.0
C1922 C 0.12045 0.86084 0.66937 0.0
C1923 C 0.10992 0.84935 0.674 0.0
H1924 H 0.10603 0.26209 0.7551 0.0
H1925 H 0.10801 0.26676 0.52739 0.0
H1926 H 0.12478 0.26103 0.75285 0.0
H1927 H 0.12626 0.265 0.52438 0.0
H1928 H 0.16681 0.27938 0.55309 0.0
H1929 H 0.14677 0.27742 0.55327 0.0
H1930 H 0.13541 0.25068 0.72189 0.0
H1931 H 0.15585 0.25309 0.7237 0.0
C1932 C 0.1103 0.2626 0.70436 0.0
C1933 C 0.10559 0.26465 0.6415 0.0
C1934 C 0.12104 0.26193 0.70297 0.0
C1935 C 0.1272 0.26311 0.63851 0.0
C1936 C 0.12202 0.26442 0.57531 0.0
C1937 C 0.11145 0.26531 0.57689 0.0
C1938 C 0.16004 0.27299 0.58987 0.0
C1939 C 0.16297 0.2664 0.6384 0.0
C1940 C 0.14845 0.27179 0.58967 0.0
C1941 C 0.13936 0.26382 0.63732 0.0
C1942 C 0.1422 0.25702 0.68501 0.0
C1943 C 0.1539 0.25834 0.68577 0.0
H1944 H 0.10215 0.31754 0.6459 0.0
H1945 H 0.08191 0.29855 0.83372 0.0
H1946 H 0.11131 0.33683 0.71075 0.0
H1947 H 0.09066 0.31783 0.89769 0.0
H1948 H 0.11963 0.35198 0.01424 0.0
H1949 H 0.10929 0.33269 0.94939 0.0
H1950 H 0.10777 0.35181 0.76273 0.0
H1951 H 0.11848 0.37107 0.82664 0.0
C1952 C 0.09951 0.31751 0.70066 0.0
C1953 C 0.09135 0.30649 0.73463 0.0
C1954 C 0.10472 0.32858 0.73792 0.0
C1955 C 0.1018 0.32893 0.80983 0.0
C1956 C 0.09335 0.31793 0.84298 0.0
C1957 C 0.08825 0.30686 0.80601 0.0
C1958 C 0.11701 0.35204 0.95952 0.0
C1959 C 0.11995 0.36308 0.9256 0.0
C1960 C 0.11103 0.34096 0.92228 0.0
C1961 C 0.10773 0.34065 0.85046 0.0
C1962 C 0.11038 0.35169 0.81736 0.0
C1963 C 0.11646 0.36275 0.8543 0.0
H1964 H 0.65111 0.76903 0.01521 0.0
H1965 H 0.63315 0.74829 0.82663 0.0
H1966 H 0.67068 0.77838 0.95324 0.0
H1967 H 0.65271 0.75724 0.76565 0.0
H1968 H 0.68698 0.78622 0.65157 0.0
H1969 H 0.6675 0.77588 0.71423 0.0
H1970 H 0.68611 0.77512 0.9052 0.0
H1971 H 0.70558 0.78586 0.84333 0.0
C1972 C 0.65137 0.76632 0.96092 0.0
C1973 C 0.64056 0.75797 0.92583 0.0
C1974 C 0.6626 0.77165 0.92534 0.0
C1975 C 0.66331 0.76864 0.85406 0.0
C1976 C 0.65251 0.76 0.81987 0.0
C1977 C 0.64129 0.75479 0.85513 0.0
C1978 C 0.6869 0.78378 0.70681 0.0
C1979 C 0.69785 0.78693 0.74243 0.0
C1980 C 0.67571 0.77779 0.74279 0.0
C1981 C 0.67519 0.77467 0.81508 0.0
C1982 C 0.68614 0.77758 0.85007 0.0
C1983 C 0.69733 0.78367 0.81434 0.0
H1984 H 0.25547 0.88542 0.83118 0.0
H1985 H 0.23416 0.88332 0.01556 0.0
H1986 H 0.24663 0.89569 0.76555 0.0
H1987 H 0.22482 0.89308 0.94894 0.0
H1988 H 0.21694 0.91948 0.83065 0.0
H1989 H 0.22757 0.91115 0.89748 0.0
H1990 H 0.22849 0.89183 0.70996 0.0
H1991 H 0.21837 0.90068 0.64239 0.0
C1992 C 0.24885 0.88713 0.85769 0.0
C1993 C 0.24549 0.88352 0.9286 0.0
C1994 C 0.24369 0.89294 0.81978 0.0
C1995 C 0.23488 0.89514 0.85139 0.0
C1996 C 0.23169 0.89172 0.92289 0.0
C1997 C 0.237 0.88606 0.96117 0.0
C1998 C 0.21947 0.9135 0.80357 0.0
C1999 C 0.21679 0.91073 0.73113 0.0
C2000 C 0.2255 0.90864 0.84211 0.0
C2001 C 0.22887 0.90073 0.80954 0.0
C2002 C 0.22625 0.89804 0.73681 0.0
C2003 C 0.22037 0.90306 0.69798 0.0
H2004 H 0.29922 0.08259 0.16897 0.0
H2005 H 0.31918 0.10239 0.35565 0.0
H2006 H 0.31825 0.09068 0.10312 0.0
H2007 H 0.33824 0.11098 0.28893 0.0
H2008 H 0.37184 0.11732 0.17012 0.0
H2009 H 0.3527 0.10706 0.23565 0.0
H2010 H 0.33341 0.1087 0.05001 0.0
H2011 H 0.35252 0.11845 0.98362 0.0
C2012 C 0.30769 0.08873 0.19592 0.0
C2013 C 0.30768 0.09187 0.26758 0.0
C2014 C 0.31862 0.09345 0.15792 0.0
C2015 C 0.32984 0.10158 0.19025 0.0
C2016 C 0.32983 0.1046 0.26233 0.0
C2017 C 0.31889 0.09973 0.30066 0.0
C2018 C 0.36349 0.11539 0.1431 0.0
C2019 C 0.36371 0.11873 0.07164 0.0
C2020 C 0.3525 0.10959 0.18092 0.0
C2021 C 0.34146 0.10712 0.14862 0.0
C2022 C 0.34167 0.11027 0.0766 0.0
C2023 C 0.35265 0.11592 0.03845 0.0
H2024 H 0.87616 0.24424 0.17021 0.0
H2025 H 0.89388 0.24479 0.97291 0.0
H2026 H 0.8867 0.2352 0.22999 0.0
H2027 H 0.90499 0.23624 0.03368 0.0
H2028 H 0.91157 0.20784 0.14423 0.0
H2029 H 0.90228 0.21809 0.08334 0.0
H2030 H 0.90525 0.23832 0.27486 0.0
H2031 H 0.91401 0.22754 0.3368 0.0
C2032 C 0.88246 0.24259 0.13969 0.0
C2033 C 0.88414 0.24521 0.06661 0.0
C2034 C 0.88861 0.23747 0.17427 0.0
C2035 C 0.89677 0.23498 0.13703 0.0
C2036 C 0.89862 0.23781 0.06403 0.0
C2037 C 0.89231 0.24278 0.02912 0.0
C2038 C 0.91028 0.21451 0.17337 0.0
C2039 C 0.91347 0.21682 0.24558 0.0
C2040 C 0.90502 0.22048 0.13816 0.0
C2041 C 0.90296 0.22907 0.17388 0.0
C2042 C 0.90645 0.2316 0.24579 0.0
C2043 C 0.91155 0.22547 0.28135 0.0
H2044 H 0.7679 0.65073 0.98058 0.0
H2045 H 0.74913 0.63063 0.16918 0.0
H2046 H 0.7767 0.66976 0.04763 0.0
H2047 H 0.75745 0.64966 0.23554 0.0
H2048 H 0.78573 0.68416 0.35236 0.0
H2049 H 0.7757 0.66498 0.28636 0.0
H2050 H 0.77285 0.68408 0.10328 0.0
H2051 H 0.78335 0.70326 0.16825 0.0
C2052 C 0.76551 0.65039 0.0361 0.0
C2053 C 0.75787 0.63916 0.06953 0.0
C2054 C 0.7705 0.66132 0.07464 0.0
C2055 C 0.76784 0.66131 0.14737 0.0
C2056 C 0.75994 0.65006 0.18016 0.0
C2057 C 0.75508 0.63913 0.14189 0.0
C2058 C 0.78287 0.68423 0.29821 0.0
C2059 C 0.78541 0.69524 0.26548 0.0
C2060 C 0.77706 0.67321 0.26028 0.0
C2061 C 0.7735 0.67293 0.18902 0.0
C2062 C 0.77569 0.68393 0.15734 0.0
C2063 C 0.78164 0.69494 0.19487 0.0
H2064 H 0.91161 0.68658 0.34625 0.0
H2065 H 0.91076 0.70427 0.15173 0.0
H2066 H 0.90306 0.6671 0.28344 0.0
H2067 H 0.90171 0.68484 0.08995 0.0
H2068 H 0.89407 0.65011 0.97903 0.0
H2069 H 0.9048 0.66955 0.04232 0.0
H2070 H 0.88488 0.65178 0.23369 0.0
H2071 H 0.87469 0.63237 0.17147 0.0
C2072 C 0.90953 0.6863 0.29022 0.0
C2073 C 0.91187 0.69698 0.25411 0.0
C2074 C 0.90456 0.67511 0.25414 0.0
C2075 C 0.90163 0.67432 0.18133 0.0
C2076 C 0.90404 0.68506 0.14546 0.0
C2077 C 0.90916 0.69624 0.18119 0.0
C2078 C 0.89206 0.65038 0.03471 0.0
C2079 C 0.88352 0.63969 0.07008 0.0
C2080 C 0.89815 0.66154 0.07106 0.0
C2081 C 0.89571 0.66232 0.14337 0.0
C2082 C 0.88721 0.65157 0.17859 0.0
C2083 C 0.88127 0.64041 0.1426 0.0
H2084 H 0.37095 0.2442 0.16813 0.0
H2085 H 0.35328 0.24437 0.972 0.0
H2086 H 0.3515 0.23524 0.22947 0.0
H2087 H 0.33377 0.23588 0.03436 0.0
H2088 H 0.29912 0.20749 0.14826 0.0
H2089 H 0.3185 0.21772 0.08567 0.0
H2090 H 0.33614 0.23843 0.27518 0.0
H2091 H 0.31677 0.2277 0.33881 0.0
C2092 C 0.36292 0.24248 0.13818 0.0
C2093 C 0.36368 0.24497 0.06496 0.0
C2094 C 0.35173 0.23741 0.17367 0.0
C2095 C 0.34098 0.23482 0.13724 0.0
C2096 C 0.34179 0.23753 0.06411 0.0
C2097 C 0.35299 0.24247 0.02829 0.0
C2098 C 0.30712 0.21426 0.17661 0.0
C2099 C 0.30639 0.21672 0.24877 0.0
C2100 C 0.31826 0.22022 0.14041 0.0
C2101 C 0.32898 0.22893 0.17508 0.0
C2102 C 0.32817 0.23161 0.24692 0.0
C2103 C 0.31704 0.22551 0.28345 0.0
H2104 H 0.78517 0.08186 0.16463 0.0
H2105 H 0.78593 0.10202 0.35182 0.0
H2106 H 0.77453 0.09039 0.09978 0.0
H2107 H 0.77574 0.11101 0.2861 0.0
H2108 H 0.74895 0.11826 0.16834 0.0
H2109 H 0.75743 0.10757 0.2333 0.0
H2110 H 0.77808 0.10877 0.04728 0.0
H2111 H 0.76915 0.119 0.98144 0.0
C2112 C 0.78308 0.08814 0.19197 0.0
C2113 C 0.78643 0.09128 0.26342 0.0
C2114 C 0.77705 0.09312 0.15452 0.0
C2115 C 0.77434 0.1015 0.18723 0.0
C2116 C 0.7775 0.10446 0.25923 0.0
C2117 C 0.7834 0.09935 0.29699 0.0
C2118 C 0.75524 0.11616 0.1411 0.0
C2119 C 0.7584 0.11952 0.06968 0.0
C2120 C 0.76018 0.1101 0.17861 0.0
C2121 C 0.76855 0.10736 0.146 0.0
C2122 C 0.77154 0.11055 0.07407 0.0
C2123 C 0.76647 0.11648 0.03624 0.0
H2124 H 0.70505 0.92188 0.83117 0.0
H2125 H 0.68622 0.90205 0.64194 0.0
H2126 H 0.68569 0.91317 0.89422 0.0
H2127 H 0.66686 0.8929 0.70583 0.0
H2128 H 0.63246 0.88536 0.82055 0.0
H2129 H 0.6518 0.8962 0.75743 0.0
H2130 H 0.67075 0.89465 0.94494 0.0
H2131 H 0.65141 0.88427 0.00894 0.0
C2132 C 0.69676 0.91563 0.803 0.0
C2133 C 0.69719 0.91263 0.7315 0.0
C2134 C 0.68565 0.91055 0.83941 0.0
C2135 C 0.67466 0.90222 0.80557 0.0
C2136 C 0.67508 0.8994 0.73355 0.0
C2137 C 0.6862 0.90461 0.69684 0.0
C2138 C 0.64077 0.88741 0.8485 0.0
C2139 C 0.64038 0.88392 0.9198 0.0
C2140 C 0.65188 0.89356 0.81206 0.0
C2141 C 0.66289 0.89625 0.84565 0.0
C2142 C 0.66251 0.89292 0.91744 0.0
C2143 C 0.6514 0.8869 0.95419 0.0
H2144 H 0.09473 0.79597 0.83118 0.0
H2145 H 0.09272 0.77639 0.63878 0.0
H2146 H 0.10366 0.7855 0.89339 0.0
H2147 H 0.10116 0.76543 0.70199 0.0
H2148 H 0.12942 0.75877 0.81236 0.0
H2149 H 0.11941 0.76816 0.75017 0.0
H2150 H 0.10023 0.76704 0.9428 0.0
H2151 H 0.11076 0.75813 0.00602 0.0
C2152 C 0.09606 0.7893 0.80229 0.0
C2153 C 0.09305 0.78706 0.72982 0.0
C2154 C 0.10111 0.7832 0.83826 0.0
C2155 C 0.10315 0.77456 0.80306 0.0
C2156 C 0.09994 0.77217 0.73072 0.0
C2157 C 0.09503 0.77841 0.69442 0.0
C2158 C 0.12303 0.76047 0.84153 0.0
C2159 C 0.12094 0.75773 0.91437 0.0
C2160 C 0.1172 0.7658 0.80557 0.0
C2161 C 0.10896 0.76839 0.84113 0.0
C2162 C 0.10667 0.7654 0.91377 0.0
C2163 C 0.11265 0.76021 0.95007 0.0
H2164 H 0.21938 0.31814 0.64538 0.0
H2165 H 0.22109 0.2992 0.83218 0.0
H2166 H 0.22976 0.33746 0.70966 0.0
H2167 H 0.23193 0.31853 0.89555 0.0
H2168 H 0.23713 0.35252 0.01333 0.0
H2169 H 0.22832 0.33326 0.94856 0.0
H2170 H 0.24816 0.35262 0.76025 0.0
H2171 H 0.25651 0.37188 0.82426 0.0
C2172 C 0.22217 0.31813 0.69978 0.0
C2173 C 0.21934 0.30712 0.73373 0.0
C2174 C 0.22818 0.32923 0.73671 0.0
C2175 C 0.23165 0.3296 0.80822 0.0
C2176 C 0.22917 0.3186 0.8412 0.0
C2177 C 0.22303 0.30751 0.8046 0.0
C2178 C 0.23967 0.35264 0.95826 0.0
C2179 C 0.24746 0.36374 0.92391 0.0
C2180 C 0.23467 0.34158 0.92104 0.0
C2181 C 0.23746 0.34133 0.8488 0.0
C2182 C 0.24557 0.35243 0.81525 0.0
C2183 C 0.25044 0.3635 0.85218 0.0
H2184 H 0.02002 0.45278 0.31445 0.0
H2185 H 0.039 0.4525 0.50469 0.0
H2186 H 1.00065 0.44236 0.37812 0.0
H2187 H 0.01964 0.44164 0.56754 0.0
H2188 H 0.98488 0.43539 0.68052 0.0
H2189 H 0.00431 0.4447 0.61734 0.0
H2190 H 0.98589 0.42385 0.42969 0.0
H2191 H 0.96644 0.41497 0.49199 0.0
C2192 C 0.02004 0.45034 0.36958 0.0
C2193 C 0.03107 0.45354 0.40452 0.0
C2194 C 0.00891 0.44429 0.40614 0.0
C2195 C 0.00853 0.44116 0.47831 0.0
C2196 C 0.01956 0.44411 0.51256 0.0
C2197 C 0.03068 0.45028 0.47629 0.0
C2198 C 0.985 0.43273 0.62595 0.0
C2199 C 0.9741 0.42449 0.59124 0.0
C2200 C 0.99616 0.43803 0.58965 0.0
C2201 C 0.99671 0.4351 0.51801 0.0
C2202 C 0.98582 0.42655 0.48419 0.0
C2203 C 0.97466 0.42138 0.52017 0.0
H2204 H 0.57956 0.56063 0.67484 0.0
H2205 H 0.57698 0.54065 0.48325 0.0
H2206 H 0.57087 0.57141 0.61218 0.0
H2207 H 0.56777 0.55091 0.42163 0.0
H2208 H 0.55977 0.57778 0.30961 0.0
H2209 H 0.57069 0.5691 0.37118 0.0
H2210 H 0.5524 0.56839 0.56682 0.0
H2211 H 0.54203 0.57755 0.50626 0.0
C2212 C 0.57707 0.55849 0.61948 0.0
C2213 C 0.57895 0.54977 0.58416 0.0
C2214 C 0.57202 0.56462 0.5835 0.0
C2215 C 0.56853 0.56203 0.51162 0.0
C2216 C 0.57052 0.55335 0.4764 0.0
C2217 C 0.57573 0.54737 0.51203 0.0
C2218 C 0.55816 0.57582 0.36585 0.0
C2219 C 0.55004 0.57837 0.40293 0.0
C2220 C 0.56436 0.57078 0.40121 0.0
C2221 C 0.56245 0.56799 0.47425 0.0
C2222 C 0.55434 0.57061 0.51107 0.0
C2223 C 0.5483 0.5758 0.47605 0.0
H2224 H 0.42646 0.96588 0.50897 0.0
H2225 H 0.42612 0.98318 0.3118 0.0
H2226 H 0.4356 0.98546 0.56899 0.0
H2227 H 0.43477 0.00284 0.37281 0.0
H2228 H 0.46319 0.03773 0.4842 0.0
H2229 H 0.45293 0.01821 0.42296 0.0
H2230 H 0.43253 1.00092 0.6139 0.0
H2231 H 0.44332 0.02044 0.67619 0.0
C2232 C 0.42819 0.97386 0.47853 0.0
C2233 C 0.42558 0.97296 0.40542 0.0
C2234 C 0.43336 0.98513 0.51324 0.0
C2235 C 0.43593 0.99582 0.47612 0.0
C2236 C 0.43313 0.99487 0.40308 0.0
C2237 C 0.4281 0.98359 0.36803 0.0
C2238 C 0.45648 0.02977 0.51314 0.0
C2239 C 0.45413 0.03064 0.58529 0.0
C2240 C 0.45051 0.01855 0.47773 0.0
C2241 C 0.44187 0.0079 0.51319 0.0
C2242 C 0.4393 0.00885 0.58504 0.0
C2243 C 0.44543 0.02006 0.6208 0.0
H2244 H 0.5422 0.96554 0.50624 0.0
H2245 H 0.56067 0.98367 0.31239 0.0
H2246 H 0.55245 0.98486 0.56914 0.0
H2247 H 0.57144 0.00305 0.37632 0.0
H2248 H 0.57716 0.0374 0.49087 0.0
H2249 H 0.56822 0.01811 0.42741 0.0
H2250 H 0.57084 1.00023 0.61696 0.0
H2251 H 0.57929 0.01952 0.68148 0.0
C2252 C 0.5486 0.97364 0.47715 0.0
C2253 C 0.55057 0.97305 0.40408 0.0
C2254 C 0.55457 0.98476 0.51353 0.0
C2255 C 0.56283 0.9956 0.47815 0.0
C2256 C 0.56499 0.99495 0.40523 0.0
C2257 C 0.55887 0.98383 0.36852 0.0
C2258 C 0.57587 0.02936 0.51908 0.0
C2259 C 0.57888 0.03 0.59146 0.0
C2260 C 0.57081 0.01828 0.48237 0.0
C2261 C 0.56877 0.00753 0.51674 0.0
C2262 C 0.57205 0.00824 0.58889 0.0
C2263 C 0.57696 0.01932 0.62593 0.0
H2264 H 0.02016 0.56854 0.31166 0.0
H2265 H 0.03861 0.58805 0.50252 0.0
H2266 H 1.00066 0.5593 0.37436 0.0
H2267 H 0.01914 0.5792 0.56436 0.0
H2268 H 0.98441 0.55012 0.67564 0.0
H2269 H 0.00393 0.56041 0.61323 0.0
H2270 H 0.98571 0.56303 0.42534 0.0
H2271 H 0.96621 0.55238 0.48678 0.0
C2272 C 0.02004 0.571 0.36666 0.0
C2273 C 0.03096 0.57898 0.40207 0.0
C2274 C 0.00884 0.56574 0.40267 0.0
C2275 C 0.00829 0.56845 0.47475 0.0
C2276 C 0.01921 0.57669 0.50944 0.0
C2277 C 0.03039 0.58185 0.47369 0.0
C2278 C 0.98459 0.55297 0.62118 0.0
C2279 C 0.97373 0.55036 0.58618 0.0
C2280 C 0.99581 0.55893 0.58535 0.0
C2281 C 0.99643 0.56252 0.51389 0.0
C2282 C 0.98558 0.56019 0.47972 0.0
C2283 C 0.97438 0.55414 0.51525 0.0
H2284 H 0.42495 0.44259 0.31871 0.0
H2285 H 0.42593 0.4616 0.51164 0.0
H2286 H 0.43358 0.43185 0.38259 0.0
H2287 H 0.43504 0.45137 0.57446 0.0
H2288 H 0.44309 0.42473 0.68727 0.0
H2289 H 0.43209 0.43306 0.62334 0.0
H2290 H 0.45199 0.43516 0.43199 0.0
H2291 H 0.46249 0.42634 0.49487 0.0
C2292 C 0.42705 0.44451 0.37464 0.0
C2293 C 0.42476 0.45296 0.40994 0.0
C2294 C 0.43207 0.4384 0.4113 0.0
C2295 C 0.43508 0.44074 0.48391 0.0
C2296 C 0.43266 0.44912 0.5191 0.0
C2297 C 0.4275 0.45508 0.48276 0.0
C2298 C 0.44505 0.42691 0.63146 0.0
C2299 C 0.45368 0.42488 0.59632 0.0
C2300 C 0.43879 0.43176 0.59475 0.0
C2301 C 0.44115 0.43486 0.52226 0.0
C2302 C 0.44972 0.4327 0.48724 0.0
C2303 C 0.45584 0.42771 0.52362 0.0
H2304 H 0.12139 0.39191 0.3826 0.0
H2305 H 0.15447 0.38992 0.38822 0.0
H2306 H 0.12617 0.40167 0.49894 0.0
H2307 H 0.159 0.39897 0.50685 0.0
H2308 H 0.16903 0.42168 0.70173 0.0
H2309 H 0.16517 0.41643 0.57612 0.0
H2310 H 0.12625 0.39713 0.61727 0.0
H2311 H 0.13011 0.40298 0.7408 0.0
C2312 C 0.12959 0.39339 0.40973 0.0
C2313 C 0.1375 0.39006 0.37756 0.0
C2314 C 0.13235 0.39898 0.47634 0.0
C2315 C 0.14296 0.4011 0.51288 0.0
C2316 C 0.15088 0.39773 0.48004 0.0
C2317 C 0.14823 0.39238 0.41263 0.0
C2318 C 0.15966 0.4166 0.68333 0.0
C2319 C 0.1499 0.41265 0.73134 0.0
C2320 C 0.15743 0.41344 0.61149 0.0
C2321 C 0.14539 0.40611 0.58646 0.0
C2322 C 0.13564 0.40286 0.63394 0.0
C2323 C 0.13787 0.4062 0.70528 0.0
H2324 H 0.59328 0.73927 0.33997 0.0
H2325 H 0.62963 0.75477 0.42795 0.0
H2326 H 0.58465 0.73496 0.45935 0.0
H2327 H 0.62086 0.7498 0.5476 0.0
H2328 H 0.59958 0.72655 0.73692 0.0
H2329 H 0.60547 0.72867 0.6124 0.0
H2330 H 0.58712 0.74917 0.57347 0.0
H2331 H 0.58136 0.74732 0.69889 0.0
C2332 C 0.59946 0.74207 0.38479 0.0
C2333 C 0.6122 0.74789 0.37489 0.0
C2334 C 0.59448 0.7394 0.45293 0.0
C2335 C 0.60211 0.7421 0.51212 0.0
C2336 C 0.61481 0.74762 0.50239 0.0
C2337 C 0.61982 0.75051 0.43426 0.0
C2338 C 0.59655 0.7313 0.70177 0.0
C2339 C 0.59017 0.73696 0.72805 0.0
C2340 C 0.60001 0.73256 0.63065 0.0
C2341 C 0.59693 0.73927 0.58427 0.0
C2342 C 0.58964 0.74401 0.60873 0.0
C2343 C 0.58633 0.74292 0.68032 0.0
H2344 H 0.23826 0.84969 0.39145 0.0
H2345 H 0.27376 0.88224 0.38732 0.0
H2346 H 0.24243 0.84489 0.51021 0.0
H2347 H 0.2784 0.87717 0.50383 0.0
H2348 H 0.27534 0.8732 0.74565 0.0
H2349 H 0.2737 0.8772 0.62188 0.0
H2350 H 0.25321 0.83829 0.5805 0.0
H2351 H 0.25424 0.83432 0.7063 0.0
C2352 C 0.24699 0.85575 0.41619 0.0
C2353 C 0.25562 0.86641 0.38152 0.0
C2354 C 0.24949 0.85294 0.4837 0.0
C2355 C 0.26078 0.86063 0.51707 0.0
C2356 C 0.26951 0.87117 0.48085 0.0
C2357 C 0.26688 0.87409 0.41413 0.0
C2358 C 0.27069 0.86547 0.71003 0.0
C2359 C 0.26477 0.85343 0.73603 0.0
C2360 C 0.26977 0.86777 0.63855 0.0
C2361 C 0.26313 0.85808 0.59088 0.0
C2362 C 0.25807 0.846 0.61596 0.0
C2363 C 0.2588 0.8437 0.68792 0.0
H2364 H 0.42119 0.16837 0.29377 0.0
H2365 H 0.40403 0.12953 0.25444 0.0
H2366 H 0.41618 0.16434 0.41954 0.0
H2367 H 0.39838 0.12546 0.37818 0.0
H2368 H 0.39346 0.12038 0.6128 0.0
H2369 H 0.40315 0.12559 0.49626 0.0
H2370 H 0.39875 0.15745 0.4898 0.0
H2371 H 0.3898 0.15253 0.6086 0.0
C2372 C 0.4165 0.15899 0.31215 0.0
C2373 C 0.41292 0.14928 0.26405 0.0
C2374 C 0.41347 0.15665 0.3841 0.0
C2375 C 0.40662 0.14455 0.40917 0.0
C2376 C 0.40375 0.1349 0.36151 0.0
C2377 C 0.40697 0.13724 0.29005 0.0
C2378 C 0.39457 0.12847 0.58597 0.0
C2379 C 0.3908 0.136 0.61857 0.0
C2380 C 0.40011 0.13147 0.51923 0.0
C2381 C 0.40172 0.14193 0.48298 0.0
C2382 C 0.39792 0.14947 0.51634 0.0
C2383 C 0.39263 0.14659 0.58387 0.0
H2384 H 0.85616 0.26391 0.65024 0.0
H2385 H 0.87811 0.24962 0.56261 0.0
H2386 H 0.85151 0.26784 0.53077 0.0
H2387 H 0.87395 0.25421 0.4428 0.0
H2388 H 0.87456 0.2767 0.25229 0.0
H2389 H 0.87872 0.27498 0.3767 0.0
H2390 H 0.84002 0.2532 0.41785 0.0
H2391 H 0.83573 0.25465 0.29258 0.0
C2392 C 0.85973 0.2613 0.60547 0.0
C2393 C 0.86704 0.2559 0.61548 0.0
C2394 C 0.85722 0.26376 0.53728 0.0
C2395 C 0.86234 0.26127 0.47814 0.0
C2396 C 0.86994 0.25622 0.48798 0.0
C2397 C 0.87226 0.25354 0.55619 0.0
C2398 C 0.86689 0.27176 0.28792 0.0
C2399 C 0.8548 0.26564 0.26236 0.0
C2400 C 0.86931 0.27072 0.35896 0.0
C2401 C 0.85969 0.26378 0.40594 0.0
C2402 C 0.84757 0.25854 0.38213 0.0
C2403 C 0.84513 0.2594 0.31064 0.0
H2404 H 0.72514 0.59087 0.25856 0.0
H2405 H 0.75945 0.59127 0.27921 0.0
H2406 H 0.72596 0.59586 0.38462 0.0
H2407 H 0.76023 0.59633 0.40458 0.0
H2408 H 0.76596 0.62503 0.57814 0.0
H2409 H 0.76332 0.61652 0.45821 0.0
H2410 H 0.72664 0.58834 0.51171 0.0
H2411 H 0.72931 0.5969 0.63154 0.0
C2412 C 0.73269 0.59173 0.29021 0.0
C2413 C 0.74233 0.59087 0.25861 0.0
C2414 C 0.73316 0.59459 0.36229 0.0
C2415 C 0.74329 0.59671 0.40362 0.0
C2416 C 0.75244 0.59496 0.37334 0.0
C2417 C 0.75193 0.59199 0.30164 0.0
C2418 C 0.75737 0.61702 0.56398 0.0
C2419 C 0.74791 0.61147 0.61378 0.0
C2420 C 0.75588 0.6121 0.49589 0.0
C2421 C 0.74483 0.60168 0.47631 0.0
C2422 C 0.73526 0.59632 0.52577 0.0
C2423 C 0.73682 0.60115 0.5942 0.0
H2424 H 0.85052 0.61306 0.60797 0.0
H2425 H 0.88338 0.61066 0.60968 0.0
H2426 H 0.84565 0.60411 0.48925 0.0
H2427 H 0.87822 0.60092 0.49323 0.0
H2428 H 0.87371 0.59968 0.25185 0.0
H2429 H 0.87792 0.6054 0.37536 0.0
H2430 H 0.83909 0.58678 0.41914 0.0
H2431 H 0.8349 0.58173 0.29348 0.0
C2432 C 0.85664 0.61052 0.58264 0.0
C2433 C 0.86741 0.61271 0.61662 0.0
C2434 C 0.85379 0.60522 0.51518 0.0
C2435 C 0.86152 0.60173 0.48121 0.0
C2436 C 0.87218 0.60371 0.51668 0.0
C2437 C 0.87516 0.60929 0.58335 0.0
C2438 C 0.86604 0.59659 0.28793 0.0
C2439 C 0.85396 0.5904 0.26265 0.0
C2440 C 0.86846 0.59984 0.35929 0.0
C2441 C 0.85885 0.59676 0.40755 0.0
C2442 C 0.84674 0.58966 0.3832 0.0
C2443 C 0.84431 0.58661 0.31133 0.0
H2444 H 0.40446 0.27626 0.24913 0.0
H2445 H 0.42353 0.25643 0.29136 0.0
H2446 H 0.39883 0.27469 0.37393 0.0
H2447 H 0.41809 0.25524 0.41723 0.0
H2448 H 0.41176 0.26813 0.64804 0.0
H2449 H 0.42034 0.27226 0.52848 0.0
H2450 H 0.38404 0.25151 0.44072 0.0
H2451 H 0.37541 0.24662 0.56078 0.0
C2452 C 0.40775 0.27187 0.28521 0.0
C2453 C 0.41428 0.26628 0.26014 0.0
C2454 C 0.40446 0.27095 0.35647 0.0
C2455 C 0.4079 0.2647 0.40409 0.0
C2456 C 0.41533 0.26005 0.3808 0.0
C2457 C 0.41844 0.26077 0.30904 0.0
C2458 C 0.40561 0.26403 0.60357 0.0
C2459 C 0.39293 0.25654 0.61381 0.0
C2460 C 0.41054 0.2666 0.53528 0.0
C2461 C 0.40282 0.26211 0.47624 0.0
C2462 C 0.39013 0.25502 0.48602 0.0
C2463 C 0.38522 0.25222 0.55438 0.0
H2464 H 0.72903 0.13016 0.25266 0.0
H2465 H 0.7503 0.16903 0.29213 0.0
H2466 H 0.73075 0.12613 0.37629 0.0
H2467 H 0.75143 0.16502 0.41778 0.0
H2468 H 0.76634 0.15353 0.60642 0.0
H2469 H 0.76219 0.15832 0.48759 0.0
H2470 H 0.72611 0.1262 0.49452 0.0
H2471 H 0.73072 0.12113 0.6111 0.0
C2472 C 0.73374 0.13788 0.28829 0.0
C2473 C 0.73967 0.14993 0.26236 0.0
C2474 C 0.7347 0.13556 0.35967 0.0
C2475 C 0.74141 0.14524 0.40731 0.0
C2476 C 0.7465 0.15733 0.38233 0.0
C2477 C 0.74573 0.15964 0.31047 0.0
C2478 C 0.75759 0.1475 0.58177 0.0
C2479 C 0.74892 0.13689 0.61666 0.0
C2480 C 0.7551 0.1503 0.51423 0.0
C2481 C 0.74378 0.14266 0.48103 0.0
C2482 C 0.73502 0.13217 0.51739 0.0
C2483 C 0.73763 0.12924 0.58415 0.0
H2484 H 0.61331 0.84924 0.3813 0.0
H2485 H 0.6105 0.88187 0.37555 0.0
H2486 H 0.60426 0.84456 0.4999 0.0
H2487 H 0.60073 0.87692 0.49185 0.0
H2488 H 0.59994 0.87325 0.73385 0.0
H2489 H 0.60553 0.87707 0.60998 0.0
H2490 H 0.58683 0.83812 0.56998 0.0
H2491 H 0.58184 0.8343 0.6959 0.0
C2492 C 0.61065 0.85534 0.40564 0.0
C2493 C 0.61276 0.866 0.3706 0.0
C2494 C 0.6053 0.8526 0.47303 0.0
C2495 C 0.60173 0.86036 0.50589 0.0
C2496 C 0.60359 0.87087 0.46925 0.0
C2497 C 0.60918 0.87373 0.40266 0.0
C2498 C 0.59679 0.86547 0.69854 0.0
C2499 C 0.5906 0.85346 0.72498 0.0
C2500 C 0.59998 0.86767 0.62699 0.0
C2501 C 0.59683 0.85791 0.5797 0.0
C2502 C 0.58974 0.84587 0.60517 0.0
C2503 C 0.58673 0.84367 0.6772 0.0
H2504 H 0.15531 0.76271 0.37307 0.0
H2505 H 0.12116 0.72862 0.37458 0.0
H2506 H 0.15999 0.75841 0.49162 0.0
H2507 H 0.12609 0.72372 0.49081 0.0
H2508 H 0.13077 0.72761 0.73173 0.0
H2509 H 0.1268 0.72893 0.60777 0.0
H2510 H 0.16562 0.74723 0.56411 0.0
H2511 H 0.16962 0.74661 0.69031 0.0
C2512 C 0.14888 0.75424 0.39902 0.0
C2513 C 0.1378 0.7461 0.36617 0.0
C2514 C 0.15161 0.75165 0.46641 0.0
C2515 C 0.14342 0.74069 0.50137 0.0
C2516 C 0.13249 0.73238 0.46668 0.0
C2517 C 0.12964 0.73514 0.40014 0.0
C2518 C 0.13848 0.73173 0.69565 0.0
C2519 C 0.15054 0.7372 0.72109 0.0
C2520 C 0.13619 0.73244 0.62397 0.0
C2521 C 0.14588 0.73839 0.57549 0.0
C2522 C 0.15793 0.74292 0.60012 0.0
C2523 C 0.16024 0.74244 0.67234 0.0
H2524 H 0.27629 0.40398 0.73932 0.0
H2525 H 0.25673 0.42333 0.69961 0.0
H2526 H 0.27494 0.39874 0.61519 0.0
H2527 H 0.25605 0.41876 0.57327 0.0
H2528 H 0.24072 0.39289 0.38196 0.0
H2529 H 0.24501 0.40188 0.50057 0.0
H2530 H 0.28004 0.40342 0.49815 0.0
H2531 H 0.27519 0.3936 0.38191 0.0
C2532 C 0.27204 0.40748 0.70359 0.0
C2533 C 0.26644 0.41391 0.72957 0.0
C2534 C 0.27131 0.40451 0.63181 0.0
C2535 C 0.2652 0.40814 0.58376 0.0
C2536 C 0.2605 0.41548 0.60893 0.0
C2537 C 0.26102 0.41824 0.68124 0.0
C2538 C 0.24927 0.3951 0.40754 0.0
C2539 C 0.25753 0.39238 0.37425 0.0
C2540 C 0.25185 0.40043 0.47497 0.0
C2541 C 0.2629 0.40341 0.50954 0.0
C2542 C 0.27132 0.40101 0.47435 0.0
C2543 C 0.26858 0.3954 0.40778 0.0
H2544 H 0.8346 0.75425 0.04229 0.0
H2545 H 0.79561 0.73525 0.08097 0.0
H2546 H 0.83073 0.74844 0.91683 0.0
H2547 H 0.79189 0.7293 0.95645 0.0
H2548 H 0.7945 0.70562 0.77083 0.0
H2549 H 0.79832 0.71429 0.89075 0.0
H2550 H 0.81842 0.75067 0.80311 0.0
H2551 H 0.81403 0.74212 0.68347 0.0
C2552 C 0.82523 0.74908 0.02385 0.0
C2553 C 0.81543 0.74509 0.07173 0.0
C2554 C 0.82304 0.74575 0.95225 0.0
C2555 C 0.81104 0.73825 0.92794 0.0
C2556 C 0.80123 0.73494 0.97456 0.0
C2557 C 0.80339 0.73844 0.04567 0.0
C2558 C 0.79978 0.71546 0.77728 0.0
C2559 C 0.8044 0.72315 0.71791 0.0
C2560 C 0.80192 0.7204 0.8456 0.0
C2561 C 0.80874 0.73312 0.8556 0.0
C2562 C 0.81332 0.74083 0.79646 0.0
C2563 C 0.81098 0.7359 0.72812 0.0
H2564 H 0.26059 0.0941 0.06224 0.0
H2565 H 0.25778 0.05862 0.07636 0.0
H2566 H 0.266 0.09539 0.93825 0.0
H2567 H 0.26255 0.05958 0.95018 0.0
H2568 H 0.28879 0.07329 0.76136 0.0
H2569 H 0.28033 0.0702 0.88059 0.0
H2570 H 0.26112 0.08923 0.82171 0.0
H2571 H 0.27053 0.09329 0.70534 0.0
C2572 C 0.26075 0.08638 0.0383 0.0
C2573 C 0.25896 0.07634 0.07949 0.0
C2574 C 0.26382 0.0871 0.96671 0.0
C2575 C 0.26494 0.07769 0.93416 0.0
C2576 C 0.26213 0.06717 0.97403 0.0
C2577 C 0.25924 0.06653 0.04613 0.0
C2578 C 0.28284 0.07689 0.77422 0.0
C2579 C 0.2801 0.08327 0.72325 0.0
C2580 C 0.2778 0.07494 0.84223 0.0
C2581 C 0.26984 0.07927 0.86071 0.0
C2582 C 0.26722 0.08576 0.8097 0.0
C2583 C 0.27245 0.08791 0.74223 0.0
H2584 H 0.91474 0.17825 0.67896 0.0
H2585 H 0.9325 0.21637 0.73819 0.0
H2586 H 0.91905 0.17312 0.79528 0.0
H2587 H 0.93582 0.21113 0.85723 0.0
H2588 H 0.94818 0.20101 0.05255 0.0
H2589 H 0.94722 0.20476 0.92634 0.0
H2590 H 0.91239 0.17126 0.91179 0.0
H2591 H 0.9137 0.16725 0.03616 0.0
C2592 C 0.91971 0.18558 0.71645 0.0
C2593 C 0.92364 0.19778 0.69848 0.0
C2594 C 0.92198 0.18259 0.78388 0.0
C2595 C 0.92791 0.19171 0.83573 0.0
C2596 C 0.93155 0.20389 0.81819 0.0
C2597 C 0.92946 0.20689 0.75027 0.0
C2598 C 0.94049 0.19431 0.02175 0.0
C2599 C 0.93095 0.18391 0.05442 0.0
C2600 C 0.93986 0.19652 0.94965 0.0
C2601 C 0.92959 0.18846 0.90909 0.0
C2602 C 0.92048 0.17765 0.94092 0.0
C2603 C 0.92122 0.17535 0.01261 0.0
H2604 H 0.07915 0.46799 0.59967 0.0
H2605 H 0.08167 0.50333 0.61738 0.0
H2606 H 0.07395 0.46429 0.72571 0.0
H2607 H 0.07636 0.49952 0.74275 0.0
H2608 H 0.04669 0.47786 0.91621 0.0
H2609 H 0.05548 0.48331 0.79652 0.0
H2610 H 0.08203 0.47269 0.85265 0.0
H2611 H 0.07328 0.46737 0.97247 0.0
C2612 C 0.07888 0.47507 0.63068 0.0
C2613 C 0.08065 0.48587 0.59828 0.0
C2614 C 0.07589 0.47295 0.70274 0.0
C2615 C 0.07454 0.48154 0.74323 0.0
C2616 C 0.07715 0.49268 0.71215 0.0
C2617 C 0.08028 0.49487 0.64048 0.0
C2618 C 0.05441 0.47674 0.90263 0.0
C2619 C 0.05942 0.47233 0.95285 0.0
C2620 C 0.05949 0.47992 0.83473 0.0
C2621 C 0.0695 0.47851 0.81591 0.0
C2622 C 0.07434 0.47388 0.86605 0.0
C2623 C 0.06938 0.47088 0.93426 0.0
H2624 H 0.54084 0.60978 0.5871 0.0
H2625 H 0.50201 0.58853 0.62902 0.0
H2626 H 0.54505 0.60808 0.71148 0.0
H2627 H 0.50635 0.58713 0.75428 0.0
H2628 H 0.52304 0.59812 0.98591 0.0
H2629 H 0.51848 0.60213 0.86636 0.0
H2630 H 0.53961 0.58699 0.77842 0.0
H2631 H 0.54364 0.58231 0.89833 0.0
C2632 C 0.53319 0.60502 0.62308 0.0
C2633 C 0.52107 0.59912 0.59801 0.0
C2634 C 0.53564 0.604 0.69409 0.0
C2635 C 0.52602 0.59731 0.74154 0.0
C2636 C 0.5139 0.59229 0.71818 0.0
C2637 C 0.51143 0.59312 0.6467 0.0
C2638 C 0.52633 0.59521 0.94116 0.0
C2639 C 0.53321 0.58935 0.95121 0.0
C2640 C 0.52388 0.59771 0.87293 0.0
C2641 C 0.52865 0.5948 0.81377 0.0
C2642 C 0.53586 0.58932 0.82363 0.0
C2643 C 0.53811 0.5866 0.8919 0.0
H2644 H 0.42109 0.96252 0.90123 0.0
H2645 H 0.40656 0.92625 0.98876 0.0
H2646 H 0.41646 0.95377 0.78139 0.0
H2647 H 0.40259 0.91766 0.86926 0.0
H2648 H 0.41569 0.91493 0.63111 0.0
H2649 H 0.41718 0.92069 0.75638 0.0
H2650 H 0.39566 0.93788 0.71519 0.0
H2651 H 0.39389 0.93198 0.59076 0.0
C2652 C 0.4171 0.95274 0.89478 0.0
C2653 C 0.41469 0.94514 0.95405 0.0
C2654 C 0.4144 0.94774 0.82656 0.0
C2655 C 0.40927 0.93508 0.81667 0.0
C2656 C 0.40673 0.92746 0.8758 0.0
C2657 C 0.40922 0.93243 0.944 0.0
C2658 C 0.411 0.91964 0.64915 0.0
C2659 C 0.40483 0.92314 0.60086 0.0
C2660 C 0.41188 0.92295 0.72065 0.0
C2661 C 0.40673 0.92991 0.74446 0.0
C2662 C 0.39985 0.93267 0.69745 0.0
C2663 C 0.39879 0.9292 0.6264 0.0
H2664 H 0.50217 0.91416 0.62688 0.0
H2665 H 0.54108 0.93339 0.58572 0.0
H2666 H 0.50625 0.91991 0.75239 0.0
H2667 H 0.54501 0.9393 0.71026 0.0
H2668 H 0.54195 0.96275 0.89756 0.0
H2669 H 0.53811 0.95415 0.77741 0.0
H2670 H 0.51929 0.91768 0.86464 0.0
H2671 H 0.52374 0.92619 0.98443 0.0
C2672 C 0.51156 0.91936 0.64478 0.0
C2673 C 0.52128 0.92343 0.59625 0.0
C2674 C 0.51388 0.92266 0.71638 0.0
C2675 C 0.52592 0.9302 0.74001 0.0
C2676 C 0.53565 0.93361 0.69267 0.0
C2677 C 0.53337 0.93013 0.62157 0.0
C2678 C 0.53696 0.95291 0.89098 0.0
C2679 C 0.53269 0.94517 0.95029 0.0
C2680 C 0.53481 0.94801 0.82254 0.0
C2681 C 0.52831 0.93528 0.81241 0.0
C2682 C 0.52413 0.92752 0.87146 0.0
C2683 C 0.5265 0.93242 0.93989 0.0
H2684 H 0.07764 0.59737 0.98583 0.0
H2685 H 0.04136 0.58281 0.8983 0.0
H2686 H 0.08622 0.60141 0.86635 0.0
H2687 H 0.05011 0.5875 0.77849 0.0
H2688 H 0.07184 0.61014 0.58802 0.0
H2689 H 0.06591 0.60829 0.71241 0.0
H2690 H 0.08329 0.58693 0.7533 0.0
H2691 H 0.08909 0.58851 0.62805 0.0
C2692 C 0.07145 0.59472 0.94107 0.0
C2693 C 0.05874 0.58923 0.95113 0.0
C2694 C 0.07642 0.59724 0.87288 0.0
C2695 C 0.0688 0.59471 0.81375 0.0
C2696 C 0.05614 0.58955 0.82364 0.0
C2697 C 0.05115 0.58681 0.89186 0.0
C2698 C 0.07465 0.60526 0.62359 0.0
C2699 C 0.08078 0.5993 0.59795 0.0
C2700 C 0.07117 0.60415 0.69461 0.0
C2701 C 0.07397 0.59729 0.74153 0.0
C2702 C 0.081 0.59222 0.71764 0.0
C2703 C 0.08432 0.59315 0.64616 0.0
H2704 H 0.40431 0.47944 0.99009 0.0
H2705 H 0.42291 0.46146 0.90335 0.0
H2706 H 0.40053 0.48413 0.87025 0.0
H2707 H 0.41841 0.46554 0.78312 0.0
H2708 H 0.39472 0.46287 0.59094 0.0
H2709 H 0.39642 0.45874 0.7155 0.0
H2710 H 0.41653 0.49747 0.75871 0.0
H2711 H 0.41516 0.50174 0.63314 0.0
C2712 C 0.40788 0.47677 0.94558 0.0
C2713 C 0.41444 0.47059 0.95603 0.0
C2714 C 0.40551 0.47928 0.87715 0.0
C2715 C 0.40925 0.47524 0.81813 0.0
C2716 C 0.41546 0.46873 0.82826 0.0
C2717 C 0.41806 0.46645 0.89673 0.0
C2718 C 0.39928 0.47054 0.62702 0.0
C2719 C 0.40495 0.48266 0.60202 0.0
C2720 C 0.4003 0.46814 0.69813 0.0
C2721 C 0.40675 0.4778 0.74575 0.0
C2722 C 0.41156 0.4899 0.72242 0.0
C2723 C 0.41075 0.49233 0.65081 0.0
H2724 H 0.2576 0.20114 0.0589 0.0
H2725 H 0.25863 0.16756 0.03689 0.0
H2726 H 0.26244 0.20541 0.93287 0.0
H2727 H 0.26352 0.17193 0.9114 0.0
H2728 H 0.26367 0.20364 0.68646 0.0
H2729 H 0.25509 0.19744 0.806 0.0
H2730 H 0.28348 0.18915 0.8578 0.0
H2731 H 0.29199 0.1953 0.73811 0.0
C2732 C 0.25856 0.19453 0.02694 0.0
C2733 C 0.25794 0.18412 0.05814 0.0
C2734 C 0.26134 0.19699 0.95486 0.0
C2735 C 0.26359 0.18911 0.91312 0.0
C2736 C 0.26205 0.17825 0.94299 0.0
C2737 C 0.25917 0.17573 0.01473 0.0
C2738 C 0.26796 0.20036 0.72338 0.0
C2739 C 0.27834 0.19972 0.7034 0.0
C2740 C 0.26312 0.19691 0.79163 0.0
C2741 C 0.26853 0.19267 0.8405 0.0
C2742 C 0.27901 0.19218 0.82054 0.0
C2743 C 0.28394 0.19579 0.75262 0.0
H2744 H 0.83596 0.08241 0.03977 0.0
H2745 H 0.79705 0.06162 0.0801 0.0
H2746 H 0.83182 0.08395 0.91423 0.0
H2747 H 0.79305 0.06347 0.95554 0.0
H2748 H 0.79526 0.08971 0.7691 0.0
H2749 H 0.7993 0.08509 0.88911 0.0
H2750 H 0.81919 0.0686 0.80145 0.0
H2751 H 0.81457 0.0725 0.68175 0.0
C2752 C 0.82656 0.07795 0.02168 0.0
C2753 C 0.81684 0.07202 0.07 0.0
C2754 C 0.82421 0.07886 0.95006 0.0
C2755 C 0.81214 0.07401 0.92621 0.0
C2756 C 0.80244 0.0674 0.97331 0.0
C2757 C 0.80476 0.06629 0.04443 0.0
C2758 C 0.80053 0.08514 0.77556 0.0
C2759 C 0.80505 0.08195 0.71618 0.0
C2760 C 0.80279 0.08247 0.84392 0.0
C2761 C 0.80964 0.07661 0.85388 0.0
C2762 C 0.81407 0.07331 0.79475 0.0
C2763 C 0.8116 0.07576 0.7264 0.0
H2764 H 0.94225 0.73685 0.0705 0.0
H2765 H 0.92179 0.75527 0.03047 0.0
H2766 H 0.94038 0.73098 0.94704 0.0
H2767 H 0.92054 0.75002 0.90493 0.0
H2768 H 0.90501 0.72352 0.71709 0.0
H2769 H 0.90939 0.73254 0.83574 0.0
H2770 H 0.94504 0.7355 0.82873 0.0
H2771 H 0.94019 0.72574 0.71235 0.0
C2772 C 0.93769 0.74001 0.03478 0.0
C2773 C 0.93201 0.74638 0.06053 0.0
C2774 C 0.93665 0.73666 0.96348 0.0
C2775 C 0.93011 0.73982 0.91574 0.0
C2776 C 0.92531 0.74709 0.94049 0.0
C2777 C 0.92616 0.75025 0.01229 0.0
C2778 C 0.91371 0.72603 0.74171 0.0
C2779 C 0.92218 0.72378 0.70687 0.0
C2780 C 0.91633 0.73136 0.80913 0.0
C2781 C 0.92761 0.7348 0.84221 0.0
C2782 C 0.93617 0.73275 0.80594 0.0
C2783 C 0.93342 0.72716 0.73931 0.0
H2784 H 0.46997 0.08114 0.39315 0.0
H2785 H 0.50356 0.08012 0.37601 0.0
H2786 H 0.46616 0.07648 0.26689 0.0
H2787 H 0.49949 0.07487 0.25158 0.0
H2788 H 0.49245 0.07037 0.01888 0.0
H2789 H 0.49765 0.07979 0.13528 0.0
H2790 H 0.45966 0.05869 0.19749 0.0
H2791 H 0.45434 0.05013 0.07837 0.0
C2792 C 0.47662 0.0801 0.36219 0.0
C2793 C 0.48698 0.08085 0.39466 0.0
C2794 C 0.47438 0.07729 0.29005 0.0
C2795 C 0.48237 0.07502 0.24926 0.0
C2796 C 0.49316 0.07662 0.28091 0.0
C2797 C 0.49549 0.07961 0.35263 0.0
C2798 C 0.48514 0.06804 0.05645 0.0
C2799 C 0.47292 0.05981 0.03855 0.0
C2800 C 0.48816 0.07328 0.12392 0.0
C2801 C 0.47907 0.07012 0.17586 0.0
C2802 C 0.46687 0.06162 0.15837 0.0
C2803 C 0.46384 0.05655 0.09042 0.0
H2804 H 0.91351 0.41285 0.36554 0.0
H2805 H 0.9337 0.394 0.40282 0.0
H2806 H 0.91912 0.41485 0.23968 0.0
H2807 H 0.93945 0.39632 0.27802 0.0
H2808 H 0.9625 0.42369 0.09387 0.0
H2809 H 0.95381 0.41854 0.21362 0.0
H2810 H 0.91743 0.39996 0.12524 0.0
H2811 H 0.92604 0.40441 0.00572 0.0
C2812 C 0.91888 0.4089 0.34674 0.0
C2813 C 0.9233 0.40343 0.39435 0.0
C2814 C 0.9221 0.41007 0.27494 0.0
C2815 C 0.92988 0.40594 0.25022 0.0
C2816 C 0.93357 0.39972 0.29651 0.0
C2817 C 0.9302 0.39835 0.3678 0.0
C2818 C 0.95266 0.41856 0.10008 0.0
C2819 C 0.94496 0.4149 0.04051 0.0
C2820 C 0.94771 0.41559 0.1683 0.0
C2821 C 0.93498 0.40896 0.17799 0.0
C2822 C 0.92726 0.40525 0.11872 0.0
C2823 C 0.93222 0.408 0.05045 0.0
H2824 H 0.57973 0.51174 0.01921 0.0
H2825 H 0.59828 0.54995 0.07705 0.0
H2826 H 0.584 0.50657 0.13554 0.0
H2827 H 0.60155 0.54469 0.19617 0.0
H2828 H 0.61386 0.53436 0.39118 0.0
H2829 H 0.61275 0.53812 0.26511 0.0
H2830 H 0.57764 0.5049 0.25221 0.0
H2831 H 0.5791 0.50087 0.37626 0.0
C2832 C 0.58485 0.51907 0.05646 0.0
C2833 C 0.58903 0.5313 0.03803 0.0
C2834 C 0.5871 0.51607 0.1239 0.0
C2835 C 0.59325 0.52521 0.17536 0.0
C2836 C 0.59711 0.53743 0.15743 0.0
C2837 C 0.59505 0.54044 0.08948 0.0
C2838 C 0.60607 0.52772 0.36075 0.0
C2839 C 0.59651 0.5174 0.3938 0.0
C2840 C 0.60535 0.52994 0.28873 0.0
C2841 C 0.59497 0.52197 0.24866 0.0
C2842 C 0.58582 0.51122 0.2809 0.0
C2843 C 0.58664 0.50891 0.35244 0.0
H2844 H 0.71717 0.7881 0.25229 0.0
H2845 H 0.738 0.82632 0.30912 0.0
H2846 H 0.72582 0.79299 0.13346 0.0
H2847 H 0.74755 0.83107 0.19302 0.0
H2848 H 0.749 0.83658 0.95154 0.0
H2849 H 0.74338 0.83293 0.07569 0.0
H2850 H 0.74342 0.79872 0.06537 0.0
H2851 H 0.74837 0.80211 0.93929 0.0
C2852 C 0.72373 0.79753 0.23973 0.0
C2853 C 0.72713 0.80676 0.29089 0.0
C2854 C 0.72886 0.80032 0.1719 0.0
C2855 C 0.7376 0.81241 0.15374 0.0
C2856 C 0.74087 0.82166 0.20483 0.0
C2857 C 0.73555 0.81889 0.27218 0.0
C2858 C 0.74807 0.8284 0.97604 0.0
C2859 C 0.74895 0.81954 0.93542 0.0
C2860 C 0.74486 0.8263 0.04761 0.0
C2861 C 0.74269 0.8154 0.08056 0.0
C2862 C 0.74463 0.80704 0.04122 0.0
C2863 C 0.74763 0.80904 0.9692 0.0
H2864 H 0.17977 0.90936 0.29188 0.0
H2865 H 0.21798 0.93088 0.23661 0.0
H2866 H 0.17413 0.91284 0.17473 0.0
H2867 H 0.21236 0.93351 0.11685 0.0
H2868 H 0.20032 0.94365 0.91951 0.0
H2869 H 0.20404 0.94331 0.04647 0.0
H2870 H 0.17369 0.90625 0.05867 0.0
H2871 H 0.16966 0.90682 0.93369 0.0
C2872 C 0.18698 0.91495 0.25492 0.0
C2873 C 0.19933 0.92014 0.27411 0.0
C2874 C 0.18374 0.91679 0.18721 0.0
C2875 C 0.19278 0.92356 0.13636 0.0
C2876 C 0.20515 0.92852 0.15518 0.0
C2877 C 0.20839 0.92684 0.22339 0.0
C2878 C 0.19425 0.93558 0.9499 0.0
C2879 C 0.18482 0.92519 0.91643 0.0
C2880 C 0.19647 0.93532 0.02242 0.0
C2881 C 0.18934 0.92466 0.06253 0.0
C2882 C 0.17935 0.91465 0.02982 0.0
C2883 C 0.17707 0.91495 0.95776 0.0
H2884 H 0.06891 0.25826 0.31819 0.0
H2885 H 0.09129 0.29448 0.23098 0.0
H2886 H 0.06438 0.2497 0.19863 0.0
H2887 H 0.08603 0.2859 0.11097 0.0
H2888 H 0.06081 0.26648 0.92017 0.0
H2889 H 0.06294 0.27219 0.04504 0.0
H2890 H 0.08038 0.2509 0.08605 0.0
H2891 H 0.0786 0.24536 0.96008 0.0
C2892 C 0.07314 0.26437 0.27378 0.0
C2893 C 0.08095 0.27701 0.28408 0.0
C2894 C 0.07034 0.25946 0.20544 0.0
C2895 C 0.07494 0.26716 0.14637 0.0
C2896 C 0.08241 0.27982 0.15624 0.0
C2897 C 0.08543 0.2847 0.22461 0.0
C2898 C 0.06487 0.26276 0.95577 0.0
C2899 C 0.06972 0.25561 0.92999 0.0
C2900 C 0.06613 0.2661 0.02708 0.0
C2901 C 0.07198 0.26211 0.0741 0.0
C2902 C 0.07588 0.2541 0.05013 0.0
C2903 C 0.07483 0.25092 0.9783 0.0
H2904 H 0.1899 0.25969 0.31797 0.0
H2905 H 0.20888 0.29619 0.2302 0.0
H2906 H 0.18554 0.25111 0.19839 0.0
H2907 H 0.20509 0.28749 0.11039 0.0
H2908 H 0.20836 0.26675 0.92096 0.0
H2909 H 0.21192 0.27259 0.04563 0.0
H2910 H 0.17305 0.25325 0.08394 0.0
H2911 H 0.16933 0.24754 0.95827 0.0
C2912 C 0.19283 0.2659 0.27328 0.0
C2913 C 0.19926 0.27866 0.28336 0.0
C2914 C 0.19051 0.26095 0.20497 0.0
C2915 C 0.19495 0.26866 0.14576 0.0
C2916 C 0.2016 0.28138 0.15562 0.0
C2917 C 0.20371 0.28634 0.22388 0.0
C2918 C 0.20054 0.26348 0.95598 0.0
C2919 C 0.18853 0.25682 0.92946 0.0
C2920 C 0.20261 0.26692 0.02719 0.0
C2921 C 0.19275 0.26353 0.07347 0.0
C2922 C 0.18078 0.25599 0.04876 0.0
C2923 C 0.17867 0.25272 0.97704 0.0
H2924 H 0.7447 0.93198 0.31541 0.0
H2925 H 0.70821 0.91425 0.22754 0.0
H2926 H 0.75329 0.93602 0.19581 0.0
H2927 H 0.71691 0.919 0.10767 0.0
H2928 H 0.7379 0.94285 0.91766 0.0
H2929 H 0.73213 0.9409 0.04237 0.0
H2930 H 0.75076 0.9207 0.08222 0.0
H2931 H 0.75636 0.92234 0.95649 0.0
C2932 C 0.7385 0.92863 0.27068 0.0
C2933 C 0.72575 0.92227 0.2807 0.0
C2934 C 0.74345 0.93116 0.2024 0.0
C2935 C 0.73573 0.92776 0.14318 0.0
C2936 C 0.72301 0.9217 0.15295 0.0
C2937 C 0.71805 0.91895 0.22122 0.0
C2938 C 0.74102 0.93821 0.95301 0.0
C2939 C 0.74744 0.93257 0.92695 0.0
C2940 C 0.73764 0.93705 0.02424 0.0
C2941 C 0.74085 0.93049 0.07093 0.0
C2942 C 0.74816 0.92576 0.04666 0.0
C2943 C 0.75137 0.92672 0.97493 0.0
H2944 H 0.09288 0.83571 0.94227 0.0
H2945 H 0.05909 0.80127 0.92184 0.0
H2946 H 0.09386 0.83152 0.06757 0.0
H2947 H 0.06011 0.79718 0.04774 0.0
H2948 H 0.06348 0.79946 0.2944 0.0
H2949 H 0.06055 0.80517 0.17457 0.0
H2950 H 0.09758 0.81488 0.12111 0.0
H2951 H 0.10044 0.80911 0.24093 0.0
C2952 C 0.08551 0.82737 0.96475 0.0
C2953 C 0.07601 0.81872 0.92182 0.0
C2954 C 0.08614 0.82496 0.03637 0.0
C2955 C 0.0772 0.81393 0.06663 0.0
C2956 C 0.06714 0.80574 0.02542 0.0
C2957 C 0.06656 0.80809 0.95343 0.0
C2958 C 0.07096 0.80285 0.25677 0.0
C2959 C 0.08221 0.804 0.27623 0.0
C2960 C 0.06928 0.80607 0.18853 0.0
C2961 C 0.07889 0.81059 0.13918 0.0
C2962 C 0.09011 0.81161 0.15872 0.0
C2963 C 0.09172 0.80823 0.22668 0.0
H2964 H 0.92686 0.52147 0.00148 0.0
H2965 H 0.96321 0.54266 0.08901 0.0
H2966 H 0.91826 0.51725 0.12089 0.0
H2967 H 0.95447 0.53892 0.20872 0.0
H2968 H 0.93324 0.54096 0.39806 0.0
H2969 H 0.93926 0.54463 0.27369 0.0
H2970 H 0.92051 0.50575 0.23513 0.0
H2971 H 0.9146 0.50194 0.36035 0.0
C2972 C 0.93306 0.52494 0.04622 0.0
C2973 C 0.94578 0.53194 0.03616 0.0
C2974 C 0.92808 0.52268 0.1144 0.0
C2975 C 0.93572 0.52774 0.17351 0.0
C2976 C 0.94841 0.53497 0.16361 0.0
C2977 C 0.9534 0.53704 0.09544 0.0
C2978 C 0.93015 0.53316 0.363 0.0
C2979 C 0.92359 0.52113 0.38933 0.0
C2980 C 0.93369 0.5353 0.29197 0.0
C2981 C 0.93053 0.52546 0.24571 0.0
C2982 C 0.9231 0.51346 0.27024 0.0
C2983 C 0.9197 0.5113 0.34173 0.0
H2984 H 0.48118 0.40604 0.01679 0.0
H2985 H 0.46098 0.42236 0.10334 0.0
H2986 H 0.48602 0.40246 0.13666 0.0
H2987 H 0.46525 0.41806 0.22359 0.0
H2988 H 0.464 0.3951 0.41567 0.0
H2989 H 0.45974 0.39671 0.2912 0.0
H2990 H 0.4984 0.41813 0.24848 0.0
H2991 H 0.5028 0.41684 0.37389 0.0
C2992 C 0.47805 0.40917 0.06131 0.0
C2993 C 0.47119 0.41504 0.05082 0.0
C2994 C 0.48065 0.40691 0.12976 0.0
C2995 C 0.47605 0.41005 0.18874 0.0
C2996 C 0.46888 0.41556 0.17851 0.0
C2997 C 0.46649 0.41806 0.11003 0.0
C2998 C 0.47164 0.39994 0.37969 0.0
C2999 C 0.48376 0.40598 0.40477 0.0
C3000 C 0.46916 0.40091 0.30864 0.0
C3001 C 0.47875 0.40769 0.26116 0.0
C3002 C 0.49088 0.41289 0.2846 0.0
C3003 C 0.49338 0.41213 0.35613 0.0
H3004 H 0.58555 0.08593 0.37096 0.0
H3005 H 0.60859 0.07032 0.41122 0.0
H3006 H 0.5848 0.08089 0.24535 0.0
H3007 H 0.60726 0.06462 0.2876 0.0
H3008 H 0.60773 0.05984 0.05253 0.0
H3009 H 0.61178 0.06939 0.16944 0.0
H3010 H 0.5749 0.0634 0.1753 0.0
H3011 H 0.5713 0.0546 0.0562 0.0
C3012 C 0.59058 0.08157 0.35279 0.0
C3013 C 0.59704 0.07844 0.40107 0.0
C3014 C 0.59003 0.07852 0.28095 0.0
C3015 C 0.59574 0.07209 0.25618 0.0
C3016 C 0.60282 0.06966 0.30404 0.0
C3017 C 0.60356 0.07291 0.3754 0.0
C3018 C 0.60053 0.06057 0.07935 0.0
C3019 C 0.58918 0.05641 0.04646 0.0
C3020 C 0.60281 0.06603 0.14629 0.0
C3021 C 0.59367 0.06717 0.18242 0.0
C3022 C 0.58227 0.06294 0.14886 0.0
C3023 C 0.58011 0.05773 0.08116 0.0
loop_
_geom_bond_atom_site_label_1
_geom_bond_atom_site_label_2
_geom_bond_distance
_geom_bond_site_symmetry_2
_ccdc_geom_bond_type
Co0 O3 1.970 . S
Co0 N17 1.989 . S
Co0 O25 1.967 . S
Co0 O32 1.920 . S
Co1 O4 1.966 . S
Co1 N10 2.022 . S
Co1 N18 1.993 . S
Co1 O26 1.941 . S
C2 O3 1.258 1_554 S
C2 O4 1.263 . S
O3 Co0 1.970 . S
O3 C2 1.258 1_556 S
O4 Co1 1.966 . S
O4 C2 1.263 . S
C5 O6 1.235 . S
C5 O32 1.289 . S
O6 C5 1.235 . S
C7 C9 1.400 . S
C7 N10 1.351 . S
C7 C12 1.501 . S
C8 C9 1.387 . S
C8 N11 1.341 . S
C9 C7 1.400 . S
C9 C8 1.387 . S
N10 Co1 2.022 . S
N10 C7 1.351 . S
N10 N11 1.365 . S
N11 C8 1.341 . S
N11 N10 1.365 . S
N11 H31 0.862 . S
C12 C7 1.501 . S
C12 H13 0.961 . S
C12 H14 0.961 . S
C12 H15 0.960 . S
H13 C12 0.961 . S
H14 C12 0.961 . S
H15 C12 0.960 . S
C16 N17 1.342 . S
C16 C20 1.401 1_556 S
C16 C21 1.499 . S
N17 Co0 1.989 . S
N17 C16 1.342 . S
N17 N18 1.388 1_556 S
N18 Co1 1.993 . S
N18 N17 1.388 1_554 S
N18 C19 1.346 . S
C19 N18 1.346 . S
C19 C20 1.396 . S
C19 C29 1.510 . S
C20 C16 1.401 1_554 S
C20 C19 1.396 . S
C21 C16 1.499 . S
C21 H22 0.959 . S
C21 H23 0.960 . S
C21 H24 0.961 . S
H22 C21 0.959 . S
H23 C21 0.960 . S
H24 C21 0.961 . S
O25 Co0 1.967 . S
O25 C33 1.258 . S
O26 Co1 1.941 . S
O26 C33 1.266 1_554 S
H27 C29 0.959 . S
H28 C29 0.961 . S
C29 C19 1.510 . S
C29 H27 0.959 . S
C29 H28 0.961 . S
C29 H30 0.960 . S
H30 C29 0.960 . S
H31 N11 0.862 . S
O32 Co0 1.920 . S
O32 C5 1.289 . S
C33 O25 1.258 . S
C33 O26 1.266 1_556 S
Co34 O37 1.970 . S
Co34 N51 1.989 . S
Co34 O59 1.967 . S
Co34 O66 1.920 . S
Co35 O38 1.966 . S
Co35 N44 2.022 . S
Co35 N52 1.993 . S
Co35 O60 1.941 . S
C36 O37 1.258 1_554 S
C36 O38 1.263 . S
O37 Co34 1.970 . S
O37 C36 1.258 1_556 S
O38 Co35 1.966 . S
O38 C36 1.263 . S
C39 O40 1.235 . S
C39 O66 1.289 . S
O40 C39 1.235 . S
C41 C43 1.400 . S
C41 N44 1.351 . S
C41 C46 1.501 . S
C42 C43 1.387 . S
C42 N45 1.341 . S
C43 C41 1.400 . S
C43 C42 1.387 . S
N44 Co35 2.022 . S
N44 C41 1.351 . S
N44 N45 1.365 . S
N45 C42 1.341 . S
N45 N44 1.365 . S
N45 H65 0.862 . S
C46 C41 1.501 . S
C46 H47 0.961 . S
C46 H48 0.961 . S
C46 H49 0.960 . S
H47 C46 0.961 . S
H48 C46 0.961 . S
H49 C46 0.960 . S
C50 N51 1.342 . S
C50 C54 1.401 1_556 S
C50 C55 1.499 . S
N51 Co34 1.989 . S
N51 C50 1.342 . S
N51 N52 1.388 1_556 S
N52 Co35 1.993 . S
N52 N51 1.388 1_554 S
N52 C53 1.346 . S
C53 N52 1.346 . S
C53 C54 1.396 . S
C53 C63 1.510 . S
C54 C50 1.401 1_554 S
C54 C53 1.396 . S
C55 C50 1.499 . S
C55 H56 0.959 . S
C55 H57 0.960 . S
C55 H58 0.961 . S
H56 C55 0.959 . S
H57 C55 0.960 . S
H58 C55 0.961 . S
O59 Co34 1.967 . S
O59 C67 1.258 . S
O60 Co35 1.941 . S
O60 C67 1.266 1_554 S
H61 C63 0.959 . S
H62 C63 0.961 . S
C63 C53 1.510 . S
C63 H61 0.959 . S
C63 H62 0.961 . S
C63 H64 0.960 . S
H64 C63 0.960 . S
H65 N45 0.862 . S
O66 Co34 1.920 . S
O66 C39 1.289 . S
C67 O59 1.258 . S
C67 O60 1.266 1_556 S
Co68 O71 1.970 . S
Co68 N85 1.989 . S
Co68 O93 1.967 . S
Co68 O100 1.920 . S
Co69 O72 1.966 . S
Co69 N78 2.022 . S
Co69 N86 1.993 . S
Co69 O94 1.941 . S
C70 O71 1.258 1_554 S
C70 O72 1.263 . S
O71 Co68 1.970 . S
O71 C70 1.258 1_556 S
O72 Co69 1.966 . S
O72 C70 1.263 . S
C73 O74 1.235 . S
C73 O100 1.289 . S
O74 C73 1.235 . S
C75 C77 1.400 . S
C75 N78 1.351 . S
C75 C80 1.501 . S
C76 C77 1.387 . S
C76 N79 1.341 . S
C77 C75 1.400 . S
C77 C76 1.387 . S
N78 Co69 2.022 . S
N78 C75 1.351 . S
N78 N79 1.365 . S
N79 C76 1.341 . S
N79 N78 1.365 . S
N79 H99 0.862 . S
C80 C75 1.501 . S
C80 H81 0.961 . S
C80 H82 0.961 . S
C80 H83 0.960 . S
H81 C80 0.961 . S
H82 C80 0.961 . S
H83 C80 0.960 . S
C84 N85 1.342 . S
C84 C88 1.401 1_556 S
C84 C89 1.499 . S
N85 Co68 1.989 . S
N85 C84 1.342 . S
N85 N86 1.388 1_556 S
N86 Co69 1.993 . S
N86 N85 1.388 1_554 S
N86 C87 1.346 . S
C87 N86 1.346 . S
C87 C88 1.396 . S
C87 C97 1.510 . S
C88 C84 1.401 1_554 S
C88 C87 1.396 . S
C89 C84 1.499 . S
C89 H90 0.959 . S
C89 H91 0.960 . S
C89 H92 0.961 . S
H90 C89 0.959 . S
H91 C89 0.960 . S
H92 C89 0.961 . S
O93 Co68 1.967 . S
O93 C101 1.258 . S
O94 Co69 1.941 . S
O94 C101 1.266 1_554 S
H95 C97 0.959 . S
H96 C97 0.961 . S
C97 C87 1.510 . S
C97 H95 0.959 . S
C97 H96 0.961 . S
C97 H98 0.960 . S
H98 C97 0.960 . S
H99 N79 0.862 . S
O100 Co68 1.920 . S
O100 C73 1.289 . S
C101 O93 1.258 . S
C101 O94 1.266 1_556 S
Co102 O105 1.970 . S
Co102 N119 1.989 . S
Co102 O127 1.967 . S
Co102 O134 1.920 . S
Co103 O106 1.966 . S
Co103 N112 2.022 . S
Co103 N120 1.993 . S
Co103 O128 1.941 . S
C104 O105 1.258 1_556 S
C104 O106 1.263 . S
O105 Co102 1.970 . S
O105 C104 1.258 1_554 S
O106 Co103 1.966 . S
O106 C104 1.263 . S
C107 O108 1.235 . S
C107 O134 1.289 . S
O108 C107 1.235 . S
C109 C111 1.400 . S
C109 N112 1.351 . S
C109 C114 1.501 . S
C110 C111 1.387 . S
C110 N113 1.341 . S
C111 C109 1.400 . S
C111 C110 1.387 . S
N112 Co103 2.022 . S
N112 C109 1.351 . S
N112 N113 1.365 . S
N113 C110 1.341 . S
N113 N112 1.365 . S
N113 H133 0.862 . S
C114 C109 1.501 . S
C114 H115 0.961 . S
C114 H116 0.961 . S
C114 H117 0.960 . S
H115 C114 0.961 . S
H116 C114 0.961 . S
H117 C114 0.960 . S
C118 N119 1.342 . S
C118 C122 1.401 1_554 S
C118 C123 1.499 . S
N119 Co102 1.989 . S
N119 C118 1.342 . S
N119 N120 1.388 1_554 S
N120 Co103 1.993 . S
N120 N119 1.388 1_556 S
N120 C121 1.346 . S
C121 N120 1.346 . S
C121 C122 1.396 . S
C121 C131 1.510 . S
C122 C118 1.401 1_556 S
C122 C121 1.396 . S
C123 C118 1.499 . S
C123 H124 0.959 . S
C123 H125 0.960 . S
C123 H126 0.961 . S
H124 C123 0.959 . S
H125 C123 0.960 . S
H126 C123 0.961 . S
O127 Co102 1.967 . S
O127 C135 1.258 . S
O128 Co103 1.941 . S
O128 C135 1.266 1_556 S
H129 C131 0.959 . S
H130 C131 0.961 . S
C131 C121 1.510 . S
C131 H129 0.959 . S
C131 H130 0.961 . S
C131 H132 0.960 . S
H132 C131 0.960 . S
H133 N113 0.862 . S
O134 Co102 1.920 . S
O134 C107 1.289 . S
C135 O127 1.258 . S
C135 O128 1.266 1_554 S
Co136 O139 1.970 . S
Co136 N153 1.989 . S
Co136 O161 1.967 . S
Co136 O168 1.920 . S
Co137 O140 1.966 . S
Co137 N146 2.022 . S
Co137 N154 1.993 . S
Co137 O162 1.941 . S
C138 O139 1.258 1_556 S
C138 O140 1.263 . S
O139 Co136 1.970 . S
O139 C138 1.258 1_554 S
O140 Co137 1.966 . S
O140 C138 1.263 . S
C141 O142 1.235 . S
C141 O168 1.289 . S
O142 C141 1.235 . S
C143 C145 1.400 . S
C143 N146 1.351 . S
C143 C148 1.501 . S
C144 C145 1.387 . S
C144 N147 1.341 . S
C145 C143 1.400 . S
C145 C144 1.387 . S
N146 Co137 2.022 . S
N146 C143 1.351 . S
N146 N147 1.365 . S
N147 C144 1.341 . S
N147 N146 1.365 . S
N147 H167 0.862 . S
C148 C143 1.501 . S
C148 H149 0.961 . S
C148 H150 0.961 . S
C148 H151 0.960 . S
H149 C148 0.961 . S
H150 C148 0.961 . S
H151 C148 0.960 . S
C152 N153 1.342 . S
C152 C156 1.401 1_554 S
C152 C157 1.499 . S
N153 Co136 1.989 . S
N153 C152 1.342 . S
N153 N154 1.388 1_554 S
N154 Co137 1.993 . S
N154 N153 1.388 1_556 S
N154 C155 1.346 . S
C155 N154 1.346 . S
C155 C156 1.396 . S
C155 C165 1.510 . S
C156 C152 1.401 1_556 S
C156 C155 1.396 . S
C157 C152 1.499 . S
C157 H158 0.959 . S
C157 H159 0.960 . S
C157 H160 0.961 . S
H158 C157 0.959 . S
H159 C157 0.960 . S
H160 C157 0.961 . S
O161 Co136 1.967 . S
O161 C169 1.258 . S
O162 Co137 1.941 . S
O162 C169 1.266 1_556 S
H163 C165 0.959 . S
H164 C165 0.961 . S
C165 C155 1.510 . S
C165 H163 0.959 . S
C165 H164 0.961 . S
C165 H166 0.960 . S
H166 C165 0.960 . S
H167 N147 0.862 . S
O168 Co136 1.920 . S
O168 C141 1.289 . S
C169 O161 1.258 . S
C169 O162 1.266 1_554 S
Co170 O173 1.970 . S
Co170 N187 1.989 . S
Co170 O195 1.967 . S
Co170 O202 1.920 . S
Co171 O174 1.966 . S
Co171 N180 2.022 . S
Co171 N188 1.993 . S
Co171 O196 1.941 . S
C172 O173 1.258 1_556 S
C172 O174 1.263 . S
O173 Co170 1.970 . S
O173 C172 1.258 1_554 S
O174 Co171 1.966 . S
O174 C172 1.263 . S
C175 O176 1.235 . S
C175 O202 1.289 . S
O176 C175 1.235 . S
C177 C179 1.400 . S
C177 N180 1.351 . S
C177 C182 1.501 . S
C178 C179 1.387 . S
C178 N181 1.341 . S
C179 C177 1.400 . S
C179 C178 1.387 . S
N180 Co171 2.022 . S
N180 C177 1.351 . S
N180 N181 1.365 . S
N181 C178 1.341 . S
N181 N180 1.365 . S
N181 H201 0.862 . S
C182 C177 1.501 . S
C182 H183 0.961 . S
C182 H184 0.961 . S
C182 H185 0.960 . S
H183 C182 0.961 . S
H184 C182 0.961 . S
H185 C182 0.960 . S
C186 N187 1.342 . S
C186 C190 1.401 1_554 S
C186 C191 1.499 . S
N187 Co170 1.989 . S
N187 C186 1.342 . S
N187 N188 1.388 1_554 S
N188 Co171 1.993 . S
N188 N187 1.388 1_556 S
N188 C189 1.346 . S
C189 N188 1.346 . S
C189 C190 1.396 . S
C189 C199 1.510 . S
C190 C186 1.401 1_556 S
C190 C189 1.396 . S
C191 C186 1.499 . S
C191 H192 0.959 . S
C191 H193 0.960 . S
C191 H194 0.961 . S
H192 C191 0.959 . S
H193 C191 0.960 . S
H194 C191 0.961 . S
O195 Co170 1.967 . S
O195 C203 1.258 . S
O196 Co171 1.941 . S
O196 C203 1.266 1_556 S
H197 C199 0.959 . S
H198 C199 0.961 . S
C199 C189 1.510 . S
C199 H197 0.959 . S
C199 H198 0.961 . S
C199 H200 0.960 . S
H200 C199 0.960 . S
H201 N181 0.862 . S
O202 Co170 1.920 . S
O202 C175 1.289 . S
C203 O195 1.258 . S
C203 O196 1.266 1_554 S
Co204 O207 1.970 . S
Co204 N221 1.989 . S
Co204 O229 1.967 . S
Co204 O236 1.920 . S
Co205 O208 1.966 . S
Co205 N214 2.022 . S
Co205 N222 1.993 . S
Co205 O230 1.941 . S
C206 O207 1.258 1_556 S
C206 O208 1.263 . S
O207 Co204 1.970 . S
O207 C206 1.258 1_554 S
O208 Co205 1.966 . S
O208 C206 1.263 . S
C209 O210 1.235 . S
C209 O236 1.289 . S
O210 C209 1.235 . S
C211 C213 1.400 . S
C211 N214 1.351 . S
C211 C216 1.501 . S
C212 C213 1.387 . S
C212 N215 1.341 . S
C213 C211 1.400 . S
C213 C212 1.387 . S
N214 Co205 2.022 . S
N214 C211 1.351 . S
N214 N215 1.365 . S
N215 C212 1.341 . S
N215 N214 1.365 . S
N215 H235 0.862 . S
C216 C211 1.501 . S
C216 H217 0.961 . S
C216 H218 0.961 . S
C216 H219 0.960 . S
H217 C216 0.961 . S
H218 C216 0.961 . S
H219 C216 0.960 . S
C220 N221 1.342 . S
C220 C224 1.401 1_554 S
C220 C225 1.499 . S
N221 Co204 1.989 . S
N221 C220 1.342 . S
N221 N222 1.388 1_554 S
N222 Co205 1.993 . S
N222 N221 1.388 1_556 S
N222 C223 1.346 . S
C223 N222 1.346 . S
C223 C224 1.396 . S
C223 C233 1.510 . S
C224 C220 1.401 1_556 S
C224 C223 1.396 . S
C225 C220 1.499 . S
C225 H226 0.959 . S
C225 H227 0.960 . S
C225 H228 0.961 . S
H226 C225 0.959 . S
H227 C225 0.960 . S
H228 C225 0.961 . S
O229 Co204 1.967 . S
O229 C237 1.258 . S
O230 Co205 1.941 . S
O230 C237 1.266 1_556 S
H231 C233 0.959 . S
H232 C233 0.961 . S
C233 C223 1.510 . S
C233 H231 0.959 . S
C233 H232 0.961 . S
C233 H234 0.960 . S
H234 C233 0.960 . S
H235 N215 0.862 . S
O236 Co204 1.920 . S
O236 C209 1.289 . S
C237 O229 1.258 . S
C237 O230 1.266 1_554 S
Co238 O241 1.970 . S
Co238 N255 1.989 . S
Co238 O263 1.967 . S
Co238 O270 1.920 . S
Co239 O242 1.966 . S
Co239 N248 2.022 . S
Co239 N256 1.993 . S
Co239 O264 1.941 . S
C240 O241 1.258 1_556 S
C240 O242 1.263 . S
O241 Co238 1.970 . S
O241 C240 1.258 1_554 S
O242 Co239 1.966 . S
O242 C240 1.263 . S
C243 O244 1.235 . S
C243 O270 1.289 . S
O244 C243 1.235 . S
C245 C247 1.400 . S
C245 N248 1.351 . S
C245 C250 1.501 . S
C246 C247 1.387 . S
C246 N249 1.341 . S
C247 C245 1.400 . S
C247 C246 1.387 . S
N248 Co239 2.022 . S
N248 C245 1.351 . S
N248 N249 1.365 . S
N249 C246 1.341 . S
N249 N248 1.365 . S
N249 H269 0.862 . S
C250 C245 1.501 . S
C250 H251 0.961 . S
C250 H252 0.961 . S
C250 H253 0.960 . S
H251 C250 0.961 . S
H252 C250 0.961 . S
H253 C250 0.960 . S
C254 N255 1.342 . S
C254 C258 1.401 1_554 S
C254 C259 1.499 . S
N255 Co238 1.989 . S
N255 C254 1.342 . S
N255 N256 1.388 1_554 S
N256 Co239 1.993 . S
N256 N255 1.388 1_556 S
N256 C257 1.346 . S
C257 N256 1.346 . S
C257 C258 1.396 . S
C257 C267 1.510 . S
C258 C254 1.401 1_556 S
C258 C257 1.396 . S
C259 C254 1.499 . S
C259 H260 0.959 . S
C259 H261 0.960 . S
C259 H262 0.961 . S
H260 C259 0.959 . S
H261 C259 0.960 . S
H262 C259 0.961 . S
O263 Co238 1.967 . S
O263 C271 1.258 . S
O264 Co239 1.941 . S
O264 C271 1.266 1_556 S
H265 C267 0.959 . S
H266 C267 0.961 . S
C267 C257 1.510 . S
C267 H265 0.959 . S
C267 H266 0.961 . S
C267 H268 0.960 . S
H268 C267 0.960 . S
H269 N249 0.862 . S
O270 Co238 1.920 . S
O270 C243 1.289 . S
C271 O263 1.258 . S
C271 O264 1.266 1_554 S
Co272 O275 1.970 . S
Co272 N289 1.989 . S
Co272 O297 1.967 . S
Co272 O304 1.920 . S
Co273 O276 1.966 . S
Co273 N282 2.022 . S
Co273 N290 1.993 . S
Co273 O298 1.941 . S
C274 O275 1.258 1_556 S
C274 O276 1.263 . S
O275 Co272 1.970 . S
O275 C274 1.258 1_554 S
O276 Co273 1.966 . S
O276 C274 1.263 . S
C277 O278 1.235 . S
C277 O304 1.289 . S
O278 C277 1.235 . S
C279 C281 1.400 . S
C279 N282 1.351 . S
C279 C284 1.501 . S
C280 C281 1.387 . S
C280 N283 1.341 . S
C281 C279 1.400 . S
C281 C280 1.387 . S
N282 Co273 2.022 . S
N282 C279 1.351 . S
N282 N283 1.365 . S
N283 C280 1.341 . S
N283 N282 1.365 . S
N283 H303 0.862 . S
C284 C279 1.501 . S
C284 H285 0.961 . S
C284 H286 0.961 . S
C284 H287 0.960 . S
H285 C284 0.961 . S
H286 C284 0.961 . S
H287 C284 0.960 . S
C288 N289 1.342 . S
C288 C292 1.401 1_554 S
C288 C293 1.499 . S
N289 Co272 1.989 . S
N289 C288 1.342 . S
N289 N290 1.388 1_554 S
N290 Co273 1.993 . S
N290 N289 1.388 1_556 S
N290 C291 1.346 . S
C291 N290 1.346 . S
C291 C292 1.396 . S
C291 C301 1.510 . S
C292 C288 1.401 1_556 S
C292 C291 1.396 . S
C293 C288 1.499 . S
C293 H294 0.959 . S
C293 H295 0.960 . S
C293 H296 0.961 . S
H294 C293 0.959 . S
H295 C293 0.960 . S
H296 C293 0.961 . S
O297 Co272 1.967 . S
O297 C305 1.258 . S
O298 Co273 1.941 . S
O298 C305 1.266 1_556 S
H299 C301 0.959 . S
H300 C301 0.961 . S
C301 C291 1.510 . S
C301 H299 0.959 . S
C301 H300 0.961 . S
C301 H302 0.960 . S
H302 C301 0.960 . S
H303 N283 0.862 . S
O304 Co272 1.920 . S
O304 C277 1.289 . S
C305 O297 1.258 . S
C305 O298 1.266 1_554 S
Co306 O309 1.970 . S
Co306 N323 1.989 . S
Co306 O331 1.967 . S
Co306 O338 1.920 . S
Co307 O310 1.966 . S
Co307 N316 2.022 . S
Co307 N324 1.993 . S
Co307 O332 1.941 . S
C308 O309 1.258 1_554 S
C308 O310 1.263 . S
O309 Co306 1.970 . S
O309 C308 1.258 1_556 S
O310 Co307 1.966 . S
O310 C308 1.263 . S
C311 O312 1.235 . S
C311 O338 1.289 . S
O312 C311 1.235 . S
C313 C315 1.400 . S
C313 N316 1.351 . S
C313 C318 1.501 . S
C314 C315 1.387 . S
C314 N317 1.341 . S
C315 C313 1.400 . S
C315 C314 1.387 . S
N316 Co307 2.022 . S
N316 C313 1.351 . S
N316 N317 1.365 . S
N317 C314 1.341 . S
N317 N316 1.365 . S
N317 H337 0.862 . S
C318 C313 1.501 . S
C318 H319 0.961 . S
C318 H320 0.961 . S
C318 H321 0.960 . S
H319 C318 0.961 . S
H320 C318 0.961 . S
H321 C318 0.960 . S
C322 N323 1.342 . S
C322 C326 1.401 1_556 S
C322 C327 1.499 . S
N323 Co306 1.989 . S
N323 C322 1.342 . S
N323 N324 1.388 1_556 S
N324 Co307 1.993 . S
N324 N323 1.388 1_554 S
N324 C325 1.346 . S
C325 N324 1.346 . S
C325 C326 1.396 . S
C325 C335 1.510 . S
C326 C322 1.401 1_554 S
C326 C325 1.396 . S
C327 C322 1.499 . S
C327 H328 0.959 . S
C327 H329 0.960 . S
C327 H330 0.961 . S
H328 C327 0.959 . S
H329 C327 0.960 . S
H330 C327 0.961 . S
O331 Co306 1.967 . S
O331 C339 1.258 . S
O332 Co307 1.941 . S
O332 C339 1.266 1_554 S
H333 C335 0.959 . S
H334 C335 0.961 . S
C335 C325 1.510 . S
C335 H333 0.959 . S
C335 H334 0.961 . S
C335 H336 0.960 . S
H336 C335 0.960 . S
H337 N317 0.862 . S
O338 Co306 1.920 . S
O338 C311 1.289 . S
C339 O331 1.258 . S
C339 O332 1.266 1_556 S
Co340 O343 1.970 . S
Co340 N357 1.989 . S
Co340 O365 1.967 . S
Co340 O372 1.920 . S
Co341 O344 1.966 . S
Co341 N350 2.022 . S
Co341 N358 1.993 . S
Co341 O366 1.941 . S
C342 O343 1.258 1_554 S
C342 O344 1.263 . S
O343 Co340 1.970 . S
O343 C342 1.258 1_556 S
O344 Co341 1.966 . S
O344 C342 1.263 . S
C345 O346 1.235 . S
C345 O372 1.289 . S
O346 C345 1.235 . S
C347 C349 1.400 . S
C347 N350 1.351 . S
C347 C352 1.501 . S
C348 C349 1.387 . S
C348 N351 1.341 . S
C349 C347 1.400 . S
C349 C348 1.387 . S
N350 Co341 2.022 . S
N350 C347 1.351 . S
N350 N351 1.365 . S
N351 C348 1.341 . S
N351 N350 1.365 . S
N351 H371 0.862 . S
C352 C347 1.501 . S
C352 H353 0.961 . S
C352 H354 0.961 . S
C352 H355 0.960 . S
H353 C352 0.961 . S
H354 C352 0.961 . S
H355 C352 0.960 . S
C356 N357 1.342 . S
C356 C360 1.401 1_556 S
C356 C361 1.499 . S
N357 Co340 1.989 . S
N357 C356 1.342 . S
N357 N358 1.388 1_556 S
N358 Co341 1.993 . S
N358 N357 1.388 1_554 S
N358 C359 1.346 . S
C359 N358 1.346 . S
C359 C360 1.396 . S
C359 C369 1.510 . S
C360 C356 1.401 1_554 S
C360 C359 1.396 . S
C361 C356 1.499 . S
C361 H362 0.959 . S
C361 H363 0.960 . S
C361 H364 0.961 . S
H362 C361 0.959 . S
H363 C361 0.960 . S
H364 C361 0.961 . S
O365 Co340 1.967 . S
O365 C373 1.258 . S
O366 Co341 1.941 . S
O366 C373 1.266 1_554 S
H367 C369 0.959 . S
H368 C369 0.961 . S
C369 C359 1.510 . S
C369 H367 0.959 . S
C369 H368 0.961 . S
C369 H370 0.960 . S
H370 C369 0.960 . S
H371 N351 0.862 . S
O372 Co340 1.920 . S
O372 C345 1.289 . S
C373 O365 1.258 . S
C373 O366 1.266 1_556 S
Co374 O377 1.970 . S
Co374 N391 1.989 . S
Co374 O399 1.967 . S
Co374 O406 1.920 . S
Co375 O378 1.966 . S
Co375 N384 2.022 . S
Co375 N392 1.993 . S
Co375 O400 1.941 . S
C376 O377 1.258 1_554 S
C376 O378 1.263 . S
O377 Co374 1.970 . S
O377 C376 1.258 1_556 S
O378 Co375 1.966 . S
O378 C376 1.263 . S
C379 O380 1.235 . S
C379 O406 1.289 . S
O380 C379 1.235 . S
C381 C383 1.400 . S
C381 N384 1.351 . S
C381 C386 1.501 . S
C382 C383 1.387 . S
C382 N385 1.341 . S
C383 C381 1.400 . S
C383 C382 1.387 . S
N384 Co375 2.022 . S
N384 C381 1.351 . S
N384 N385 1.365 . S
N385 C382 1.341 . S
N385 N384 1.365 . S
N385 H405 0.862 . S
C386 C381 1.501 . S
C386 H387 0.961 . S
C386 H388 0.961 . S
C386 H389 0.960 . S
H387 C386 0.961 . S
H388 C386 0.961 . S
H389 C386 0.960 . S
C390 N391 1.342 . S
C390 C394 1.401 1_556 S
C390 C395 1.499 . S
N391 Co374 1.989 . S
N391 C390 1.342 . S
N391 N392 1.388 1_556 S
N392 Co375 1.993 . S
N392 N391 1.388 1_554 S
N392 C393 1.346 . S
C393 N392 1.346 . S
C393 C394 1.396 . S
C393 C403 1.510 . S
C394 C390 1.401 1_554 S
C394 C393 1.396 . S
C395 C390 1.499 . S
C395 H396 0.959 . S
C395 H397 0.960 . S
C395 H398 0.961 . S
H396 C395 0.959 . S
H397 C395 0.960 . S
H398 C395 0.961 . S
O399 Co374 1.967 . S
O399 C407 1.258 . S
O400 Co375 1.941 . S
O400 C407 1.266 1_554 S
H401 C403 0.959 . S
H402 C403 0.961 . S
C403 C393 1.510 . S
C403 H401 0.959 . S
C403 H402 0.961 . S
C403 H404 0.960 . S
H404 C403 0.960 . S
H405 N385 0.862 . S
O406 Co374 1.920 . S
O406 C379 1.289 . S
C407 O399 1.258 . S
C407 O400 1.266 1_556 S
Co408 O411 1.970 . S
Co408 N425 1.989 . S
Co408 O433 1.967 . S
Co408 O440 1.920 . S
Co409 O412 1.966 . S
Co409 N418 2.022 . S
Co409 N426 1.993 . S
Co409 O434 1.941 . S
C410 O411 1.258 . S
C410 O412 1.263 . S
O411 Co408 1.970 . S
O411 C410 1.258 . S
O412 Co409 1.966 . S
O412 C410 1.263 . S
C413 O414 1.235 . S
C413 O440 1.289 . S
O414 C413 1.235 . S
C415 C417 1.400 . S
C415 N418 1.351 . S
C415 C420 1.501 . S
C416 C417 1.387 . S
C416 N419 1.341 . S
C417 C415 1.400 . S
C417 C416 1.387 . S
N418 Co409 2.022 . S
N418 C415 1.351 . S
N418 N419 1.365 . S
N419 C416 1.341 . S
N419 N418 1.365 . S
N419 H439 0.862 . S
C420 C415 1.501 . S
C420 H421 0.961 . S
C420 H422 0.961 . S
C420 H423 0.960 . S
H421 C420 0.961 . S
H422 C420 0.961 . S
H423 C420 0.960 . S
C424 N425 1.342 . S
C424 C428 1.401 . S
C424 C429 1.499 . S
N425 Co408 1.989 . S
N425 C424 1.342 . S
N425 N426 1.388 . S
N426 Co409 1.993 . S
N426 N425 1.388 . S
N426 C427 1.346 . S
C427 N426 1.346 . S
C427 C428 1.396 . S
C427 C437 1.510 . S
C428 C424 1.401 . S
C428 C427 1.396 . S
C429 C424 1.499 . S
C429 H430 0.959 . S
C429 H431 0.960 . S
C429 H432 0.961 . S
H430 C429 0.959 . S
H431 C429 0.960 . S
H432 C429 0.961 . S
O433 Co408 1.967 . S
O433 C441 1.258 . S
O434 Co409 1.941 . S
O434 C441 1.266 . S
H435 C437 0.959 . S
H436 C437 0.961 . S
C437 C427 1.510 . S
C437 H435 0.959 . S
C437 H436 0.961 . S
C437 H438 0.960 . S
H438 C437 0.960 . S
H439 N419 0.862 . S
O440 Co408 1.920 . S
O440 C413 1.289 . S
C441 O433 1.258 . S
C441 O434 1.266 . S
Co442 O445 1.970 . S
Co442 N459 1.989 . S
Co442 O467 1.967 . S
Co442 O474 1.920 . S
Co443 O446 1.966 . S
Co443 N452 2.022 . S
Co443 N460 1.993 . S
Co443 O468 1.941 . S
C444 O445 1.258 . S
C444 O446 1.263 . S
O445 Co442 1.970 . S
O445 C444 1.258 . S
O446 Co443 1.966 . S
O446 C444 1.263 . S
C447 O448 1.235 . S
C447 O474 1.289 . S
O448 C447 1.235 . S
C449 C451 1.400 . S
C449 N452 1.351 . S
C449 C454 1.501 . S
C450 C451 1.387 . S
C450 N453 1.341 . S
C451 C449 1.400 . S
C451 C450 1.387 . S
N452 Co443 2.022 . S
N452 C449 1.351 . S
N452 N453 1.365 . S
N453 C450 1.341 . S
N453 N452 1.365 . S
N453 H473 0.862 . S
C454 C449 1.501 . S
C454 H455 0.961 . S
C454 H456 0.961 . S
C454 H457 0.960 . S
H455 C454 0.961 . S
H456 C454 0.961 . S
H457 C454 0.960 . S
C458 N459 1.342 . S
C458 C462 1.401 . S
C458 C463 1.499 . S
N459 Co442 1.989 . S
N459 C458 1.342 . S
N459 N460 1.388 . S
N460 Co443 1.993 . S
N460 N459 1.388 . S
N460 C461 1.346 . S
C461 N460 1.346 . S
C461 C462 1.396 . S
C461 C471 1.510 . S
C462 C458 1.401 . S
C462 C461 1.396 . S
C463 C458 1.499 . S
C463 H464 0.959 . S
C463 H465 0.960 . S
C463 H466 0.961 . S
H464 C463 0.959 . S
H465 C463 0.960 . S
H466 C463 0.961 . S
O467 Co442 1.967 . S
O467 C475 1.258 . S
O468 Co443 1.941 . S
O468 C475 1.266 . S
H469 C471 0.959 . S
H470 C471 0.961 . S
C471 C461 1.510 . S
C471 H469 0.959 . S
C471 H470 0.961 . S
C471 H472 0.960 . S
H472 C471 0.960 . S
H473 N453 0.862 . S
O474 Co442 1.920 . S
O474 C447 1.289 . S
C475 O467 1.258 . S
C475 O468 1.266 . S
Co476 O479 1.970 . S
Co476 N493 1.989 . S
Co476 O501 1.967 . S
Co476 O508 1.920 . S
Co477 O480 1.966 . S
Co477 N486 2.022 . S
Co477 N494 1.993 . S
Co477 O502 1.941 . S
C478 O479 1.258 . S
C478 O480 1.263 . S
O479 Co476 1.970 . S
O479 C478 1.258 . S
O480 Co477 1.966 . S
O480 C478 1.263 . S
C481 O482 1.235 . S
C481 O508 1.289 . S
O482 C481 1.235 . S
C483 C485 1.400 . S
C483 N486 1.351 . S
C483 C488 1.501 . S
C484 C485 1.387 . S
C484 N487 1.341 . S
C485 C483 1.400 . S
C485 C484 1.387 . S
N486 Co477 2.022 . S
N486 C483 1.351 . S
N486 N487 1.365 . S
N487 C484 1.341 . S
N487 N486 1.365 . S
N487 H507 0.862 . S
C488 C483 1.501 . S
C488 H489 0.961 . S
C488 H490 0.961 . S
C488 H491 0.960 . S
H489 C488 0.961 . S
H490 C488 0.961 . S
H491 C488 0.960 . S
C492 N493 1.342 . S
C492 C496 1.401 . S
C492 C497 1.499 . S
N493 Co476 1.989 . S
N493 C492 1.342 . S
N493 N494 1.388 . S
N494 Co477 1.993 . S
N494 N493 1.388 . S
N494 C495 1.346 . S
C495 N494 1.346 . S
C495 C496 1.396 . S
C495 C505 1.510 . S
C496 C492 1.401 . S
C496 C495 1.396 . S
C497 C492 1.499 . S
C497 H498 0.959 . S
C497 H499 0.960 . S
C497 H500 0.961 . S
H498 C497 0.959 . S
H499 C497 0.960 . S
H500 C497 0.961 . S
O501 Co476 1.967 . S
O501 C509 1.258 . S
O502 Co477 1.941 . S
O502 C509 1.266 . S
H503 C505 0.959 . S
H504 C505 0.961 . S
C505 C495 1.510 . S
C505 H503 0.959 . S
C505 H504 0.961 . S
C505 H506 0.960 . S
H506 C505 0.960 . S
H507 N487 0.862 . S
O508 Co476 1.920 . S
O508 C481 1.289 . S
C509 O501 1.258 . S
C509 O502 1.266 . S
Co510 O513 1.970 . S
Co510 N527 1.989 . S
Co510 O535 1.967 . S
Co510 O542 1.920 . S
Co511 O514 1.966 . S
Co511 N520 2.022 . S
Co511 N528 1.993 . S
Co511 O536 1.941 . S
C512 O513 1.258 . S
C512 O514 1.263 . S
O513 Co510 1.970 . S
O513 C512 1.258 . S
O514 Co511 1.966 . S
O514 C512 1.263 . S
C515 O516 1.235 . S
C515 O542 1.289 . S
O516 C515 1.235 . S
C517 C519 1.400 . S
C517 N520 1.351 . S
C517 C522 1.501 . S
C518 C519 1.387 . S
C518 N521 1.341 . S
C519 C517 1.400 . S
C519 C518 1.387 . S
N520 Co511 2.022 . S
N520 C517 1.351 . S
N520 N521 1.365 . S
N521 C518 1.341 . S
N521 N520 1.365 . S
N521 H541 0.862 . S
C522 C517 1.501 . S
C522 H523 0.961 . S
C522 H524 0.961 . S
C522 H525 0.960 . S
H523 C522 0.961 . S
H524 C522 0.961 . S
H525 C522 0.960 . S
C526 N527 1.342 . S
C526 C530 1.401 . S
C526 C531 1.499 . S
N527 Co510 1.989 . S
N527 C526 1.342 . S
N527 N528 1.388 . S
N528 Co511 1.993 . S
N528 N527 1.388 . S
N528 C529 1.346 . S
C529 N528 1.346 . S
C529 C530 1.396 . S
C529 C539 1.510 . S
C530 C526 1.401 . S
C530 C529 1.396 . S
C531 C526 1.499 . S
C531 H532 0.959 . S
C531 H533 0.960 . S
C531 H534 0.961 . S
H532 C531 0.959 . S
H533 C531 0.960 . S
H534 C531 0.961 . S
O535 Co510 1.967 . S
O535 C543 1.258 . S
O536 Co511 1.941 . S
O536 C543 1.266 . S
H537 C539 0.959 . S
H538 C539 0.961 . S
C539 C529 1.510 . S
C539 H537 0.959 . S
C539 H538 0.961 . S
C539 H540 0.960 . S
H540 C539 0.960 . S
H541 N521 0.862 . S
O542 Co510 1.920 . S
O542 C515 1.289 . S
C543 O535 1.258 . S
C543 O536 1.266 . S
Co544 O547 1.970 . S
Co544 N561 1.989 . S
Co544 O569 1.967 . S
Co544 O576 1.920 . S
Co545 O548 1.966 . S
Co545 N554 2.022 . S
Co545 N562 1.993 . S
Co545 O570 1.941 . S
C546 O547 1.258 . S
C546 O548 1.263 . S
O547 Co544 1.970 . S
O547 C546 1.258 . S
O548 Co545 1.966 . S
O548 C546 1.263 . S
C549 O550 1.235 . S
C549 O576 1.289 . S
O550 C549 1.235 . S
C551 C553 1.400 . S
C551 N554 1.351 . S
C551 C556 1.501 . S
C552 C553 1.387 . S
C552 N555 1.341 . S
C553 C551 1.400 . S
C553 C552 1.387 . S
N554 Co545 2.022 . S
N554 C551 1.351 . S
N554 N555 1.365 . S
N555 C552 1.341 . S
N555 N554 1.365 . S
N555 H575 0.862 . S
C556 C551 1.501 . S
C556 H557 0.961 . S
C556 H558 0.961 . S
C556 H559 0.960 . S
H557 C556 0.961 . S
H558 C556 0.961 . S
H559 C556 0.960 . S
C560 N561 1.342 . S
C560 C564 1.401 . S
C560 C565 1.499 . S
N561 Co544 1.989 . S
N561 C560 1.342 . S
N561 N562 1.388 . S
N562 Co545 1.993 . S
N562 N561 1.388 . S
N562 C563 1.346 . S
C563 N562 1.346 . S
C563 C564 1.396 . S
C563 C573 1.510 . S
C564 C560 1.401 . S
C564 C563 1.396 . S
C565 C560 1.499 . S
C565 H566 0.959 . S
C565 H567 0.960 . S
C565 H568 0.961 . S
H566 C565 0.959 . S
H567 C565 0.960 . S
H568 C565 0.961 . S
O569 Co544 1.967 . S
O569 C577 1.258 . S
O570 Co545 1.941 . S
O570 C577 1.266 . S
H571 C573 0.959 . S
H572 C573 0.961 . S
C573 C563 1.510 . S
C573 H571 0.959 . S
C573 H572 0.961 . S
C573 H574 0.960 . S
H574 C573 0.960 . S
H575 N555 0.862 . S
O576 Co544 1.920 . S
O576 C549 1.289 . S
C577 O569 1.258 . S
C577 O570 1.266 . S
Co578 O581 1.970 . S
Co578 N595 1.989 . S
Co578 O603 1.967 . S
Co578 O610 1.920 . S
Co579 O582 1.966 . S
Co579 N588 2.022 . S
Co579 N596 1.993 . S
Co579 O604 1.941 . S
C580 O581 1.258 . S
C580 O582 1.263 . S
O581 Co578 1.970 . S
O581 C580 1.258 . S
O582 Co579 1.966 . S
O582 C580 1.263 . S
C583 O584 1.235 . S
C583 O610 1.289 . S
O584 C583 1.235 . S
C585 C587 1.400 . S
C585 N588 1.351 . S
C585 C590 1.501 . S
C586 C587 1.387 . S
C586 N589 1.341 . S
C587 C585 1.400 . S
C587 C586 1.387 . S
N588 Co579 2.022 . S
N588 C585 1.351 . S
N588 N589 1.365 . S
N589 C586 1.341 . S
N589 N588 1.365 . S
N589 H609 0.862 . S
C590 C585 1.501 . S
C590 H591 0.961 . S
C590 H592 0.961 . S
C590 H593 0.960 . S
H591 C590 0.961 . S
H592 C590 0.961 . S
H593 C590 0.960 . S
C594 N595 1.342 . S
C594 C598 1.401 . S
C594 C599 1.499 . S
N595 Co578 1.989 . S
N595 C594 1.342 . S
N595 N596 1.388 . S
N596 Co579 1.993 . S
N596 N595 1.388 . S
N596 C597 1.346 . S
C597 N596 1.346 . S
C597 C598 1.396 . S
C597 C607 1.510 . S
C598 C594 1.401 . S
C598 C597 1.396 . S
C599 C594 1.499 . S
C599 H600 0.959 . S
C599 H601 0.960 . S
C599 H602 0.961 . S
H600 C599 0.959 . S
H601 C599 0.960 . S
H602 C599 0.961 . S
O603 Co578 1.967 . S
O603 C611 1.258 . S
O604 Co579 1.941 . S
O604 C611 1.266 . S
H605 C607 0.959 . S
H606 C607 0.961 . S
C607 C597 1.510 . S
C607 H605 0.959 . S
C607 H606 0.961 . S
C607 H608 0.960 . S
H608 C607 0.960 . S
H609 N589 0.862 . S
O610 Co578 1.920 . S
O610 C583 1.289 . S
C611 O603 1.258 . S
C611 O604 1.266 . S
Co612 O615 1.970 . S
Co612 N629 1.989 . S
Co612 O637 1.967 . S
Co612 O644 1.920 . S
Co613 O616 1.966 . S
Co613 N622 2.022 . S
Co613 N630 1.993 . S
Co613 O638 1.941 . S
C614 O615 1.258 . S
C614 O616 1.263 . S
O615 Co612 1.970 . S
O615 C614 1.258 . S
O616 Co613 1.966 . S
O616 C614 1.263 . S
C617 O618 1.235 . S
C617 O644 1.289 . S
O618 C617 1.235 . S
C619 C621 1.400 . S
C619 N622 1.351 . S
C619 C624 1.501 . S
C620 C621 1.387 . S
C620 N623 1.341 . S
C621 C619 1.400 . S
C621 C620 1.387 . S
N622 Co613 2.022 . S
N622 C619 1.351 . S
N622 N623 1.365 . S
N623 C620 1.341 . S
N623 N622 1.365 . S
N623 H643 0.862 . S
C624 C619 1.501 . S
C624 H625 0.961 . S
C624 H626 0.961 . S
C624 H627 0.960 . S
H625 C624 0.961 . S
H626 C624 0.961 . S
H627 C624 0.960 . S
C628 N629 1.342 . S
C628 C632 1.401 . S
C628 C633 1.499 . S
N629 Co612 1.989 . S
N629 C628 1.342 . S
N629 N630 1.388 . S
N630 Co613 1.993 . S
N630 N629 1.388 . S
N630 C631 1.346 . S
C631 N630 1.346 . S
C631 C632 1.396 . S
C631 C641 1.510 . S
C632 C628 1.401 . S
C632 C631 1.396 . S
C633 C628 1.499 . S
C633 H634 0.959 . S
C633 H635 0.960 . S
C633 H636 0.961 . S
H634 C633 0.959 . S
H635 C633 0.960 . S
H636 C633 0.961 . S
O637 Co612 1.967 . S
O637 C645 1.258 . S
O638 Co613 1.941 . S
O638 C645 1.266 . S
H639 C641 0.959 . S
H640 C641 0.961 . S
C641 C631 1.510 . S
C641 H639 0.959 . S
C641 H640 0.961 . S
C641 H642 0.960 . S
H642 C641 0.960 . S
H643 N623 0.862 . S
O644 Co612 1.920 . S
O644 C617 1.289 . S
C645 O637 1.258 . S
C645 O638 1.266 . S
Co646 O649 1.970 . S
Co646 N663 1.989 . S
Co646 O671 1.967 . S
Co646 O678 1.920 . S
Co647 O650 1.966 . S
Co647 N656 2.022 . S
Co647 N664 1.993 . S
Co647 O672 1.941 . S
C648 O649 1.258 . S
C648 O650 1.263 . S
O649 Co646 1.970 . S
O649 C648 1.258 . S
O650 Co647 1.966 . S
O650 C648 1.263 . S
C651 O652 1.235 . S
C651 O678 1.289 . S
O652 C651 1.235 . S
C653 C655 1.400 . S
C653 N656 1.351 . S
C653 C658 1.501 . S
C654 C655 1.387 . S
C654 N657 1.341 . S
C655 C653 1.400 . S
C655 C654 1.387 . S
N656 Co647 2.022 . S
N656 C653 1.351 . S
N656 N657 1.365 . S
N657 C654 1.341 . S
N657 N656 1.365 . S
N657 H677 0.862 . S
C658 C653 1.501 . S
C658 H659 0.961 . S
C658 H660 0.961 . S
C658 H661 0.960 . S
H659 C658 0.961 . S
H660 C658 0.961 . S
H661 C658 0.960 . S
C662 N663 1.342 . S
C662 C666 1.401 . S
C662 C667 1.499 . S
N663 Co646 1.989 . S
N663 C662 1.342 . S
N663 N664 1.388 . S
N664 Co647 1.993 . S
N664 N663 1.388 . S
N664 C665 1.346 . S
C665 N664 1.346 . S
C665 C666 1.396 . S
C665 C675 1.510 . S
C666 C662 1.401 . S
C666 C665 1.396 . S
C667 C662 1.499 . S
C667 H668 0.959 . S
C667 H669 0.960 . S
C667 H670 0.961 . S
H668 C667 0.959 . S
H669 C667 0.960 . S
H670 C667 0.961 . S
O671 Co646 1.967 . S
O671 C679 1.258 . S
O672 Co647 1.941 . S
O672 C679 1.266 . S
H673 C675 0.959 . S
H674 C675 0.961 . S
C675 C665 1.510 . S
C675 H673 0.959 . S
C675 H674 0.961 . S
C675 H676 0.960 . S
H676 C675 0.960 . S
H677 N657 0.862 . S
O678 Co646 1.920 . S
O678 C651 1.289 . S
C679 O671 1.258 . S
C679 O672 1.266 . S
Co680 O683 1.970 . S
Co680 N697 1.989 . S
Co680 O705 1.967 . S
Co680 O712 1.920 . S
Co681 O684 1.966 . S
Co681 N690 2.022 . S
Co681 N698 1.993 . S
Co681 O706 1.941 . S
C682 O683 1.258 . S
C682 O684 1.263 . S
O683 Co680 1.970 . S
O683 C682 1.258 . S
O684 Co681 1.966 . S
O684 C682 1.263 . S
C685 O686 1.235 . S
C685 O712 1.289 . S
O686 C685 1.235 . S
C687 C689 1.400 . S
C687 N690 1.351 . S
C687 C692 1.501 . S
C688 C689 1.387 . S
C688 N691 1.341 . S
C689 C687 1.400 . S
C689 C688 1.387 . S
N690 Co681 2.022 . S
N690 C687 1.351 . S
N690 N691 1.365 . S
N691 C688 1.341 . S
N691 N690 1.365 . S
N691 H711 0.862 . S
C692 C687 1.501 . S
C692 H693 0.961 . S
C692 H694 0.961 . S
C692 H695 0.960 . S
H693 C692 0.961 . S
H694 C692 0.961 . S
H695 C692 0.960 . S
C696 N697 1.342 . S
C696 C700 1.401 . S
C696 C701 1.499 . S
N697 Co680 1.989 . S
N697 C696 1.342 . S
N697 N698 1.388 . S
N698 Co681 1.993 . S
N698 N697 1.388 . S
N698 C699 1.346 . S
C699 N698 1.346 . S
C699 C700 1.396 . S
C699 C709 1.510 . S
C700 C696 1.401 . S
C700 C699 1.396 . S
C701 C696 1.499 . S
C701 H702 0.959 . S
C701 H703 0.960 . S
C701 H704 0.961 . S
H702 C701 0.959 . S
H703 C701 0.960 . S
H704 C701 0.961 . S
O705 Co680 1.967 . S
O705 C713 1.258 . S
O706 Co681 1.941 . S
O706 C713 1.266 . S
H707 C709 0.959 . S
H708 C709 0.961 . S
C709 C699 1.510 . S
C709 H707 0.959 . S
C709 H708 0.961 . S
C709 H710 0.960 . S
H710 C709 0.960 . S
H711 N691 0.862 . S
O712 Co680 1.920 . S
O712 C685 1.289 . S
C713 O705 1.258 . S
C713 O706 1.266 . S
Co714 O717 1.970 . S
Co714 N731 1.989 . S
Co714 O739 1.967 . S
Co714 O746 1.920 . S
Co715 O718 1.966 . S
Co715 N724 2.022 . S
Co715 N732 1.993 . S
Co715 O740 1.941 . S
C716 O717 1.258 . S
C716 O718 1.263 . S
O717 Co714 1.970 . S
O717 C716 1.258 . S
O718 Co715 1.966 . S
O718 C716 1.263 . S
C719 O720 1.235 . S
C719 O746 1.289 . S
O720 C719 1.235 . S
C721 C723 1.400 . S
C721 N724 1.351 . S
C721 C726 1.501 . S
C722 C723 1.387 . S
C722 N725 1.341 . S
C723 C721 1.400 . S
C723 C722 1.387 . S
N724 Co715 2.022 . S
N724 C721 1.351 . S
N724 N725 1.365 . S
N725 C722 1.341 . S
N725 N724 1.365 . S
N725 H745 0.862 . S
C726 C721 1.501 . S
C726 H727 0.961 . S
C726 H728 0.961 . S
C726 H729 0.960 . S
H727 C726 0.961 . S
H728 C726 0.961 . S
H729 C726 0.960 . S
C730 N731 1.342 . S
C730 C734 1.401 . S
C730 C735 1.499 . S
N731 Co714 1.989 . S
N731 C730 1.342 . S
N731 N732 1.388 . S
N732 Co715 1.993 . S
N732 N731 1.388 . S
N732 C733 1.346 . S
C733 N732 1.346 . S
C733 C734 1.396 . S
C733 C743 1.510 . S
C734 C730 1.401 . S
C734 C733 1.396 . S
C735 C730 1.499 . S
C735 H736 0.959 . S
C735 H737 0.960 . S
C735 H738 0.961 . S
H736 C735 0.959 . S
H737 C735 0.960 . S
H738 C735 0.961 . S
O739 Co714 1.967 . S
O739 C747 1.258 . S
O740 Co715 1.941 . S
O740 C747 1.266 . S
H741 C743 0.959 . S
H742 C743 0.961 . S
C743 C733 1.510 . S
C743 H741 0.959 . S
C743 H742 0.961 . S
C743 H744 0.960 . S
H744 C743 0.960 . S
H745 N725 0.862 . S
O746 Co714 1.920 . S
O746 C719 1.289 . S
C747 O739 1.258 . S
C747 O740 1.266 . S
Co748 O751 1.970 . S
Co748 N765 1.989 . S
Co748 O773 1.967 . S
Co748 O780 1.920 . S
Co749 O752 1.966 . S
Co749 N758 2.022 . S
Co749 N766 1.993 . S
Co749 O774 1.941 . S
C750 O751 1.258 . S
C750 O752 1.263 . S
O751 Co748 1.970 . S
O751 C750 1.258 . S
O752 Co749 1.966 . S
O752 C750 1.263 . S
C753 O754 1.235 . S
C753 O780 1.289 . S
O754 C753 1.235 . S
C755 C757 1.400 . S
C755 N758 1.351 . S
C755 C760 1.501 . S
C756 C757 1.387 . S
C756 N759 1.341 . S
C757 C755 1.400 . S
C757 C756 1.387 . S
N758 Co749 2.022 . S
N758 C755 1.351 . S
N758 N759 1.365 . S
N759 C756 1.341 . S
N759 N758 1.365 . S
N759 H779 0.862 . S
C760 C755 1.501 . S
C760 H761 0.961 . S
C760 H762 0.961 . S
C760 H763 0.960 . S
H761 C760 0.961 . S
H762 C760 0.961 . S
H763 C760 0.960 . S
C764 N765 1.342 . S
C764 C768 1.401 . S
C764 C769 1.499 . S
N765 Co748 1.989 . S
N765 C764 1.342 . S
N765 N766 1.388 . S
N766 Co749 1.993 . S
N766 N765 1.388 . S
N766 C767 1.346 . S
C767 N766 1.346 . S
C767 C768 1.396 . S
C767 C777 1.510 . S
C768 C764 1.401 . S
C768 C767 1.396 . S
C769 C764 1.499 . S
C769 H770 0.959 . S
C769 H771 0.960 . S
C769 H772 0.961 . S
H770 C769 0.959 . S
H771 C769 0.960 . S
H772 C769 0.961 . S
O773 Co748 1.967 . S
O773 C781 1.258 . S
O774 Co749 1.941 . S
O774 C781 1.266 . S
H775 C777 0.959 . S
H776 C777 0.961 . S
C777 C767 1.510 . S
C777 H775 0.959 . S
C777 H776 0.961 . S
C777 H778 0.960 . S
H778 C777 0.960 . S
H779 N759 0.862 . S
O780 Co748 1.920 . S
O780 C753 1.289 . S
C781 O773 1.258 . S
C781 O774 1.266 . S
Co782 O785 1.970 . S
Co782 N799 1.989 . S
Co782 O807 1.967 . S
Co782 O814 1.920 . S
Co783 O786 1.966 . S
Co783 N792 2.022 . S
Co783 N800 1.993 . S
Co783 O808 1.941 . S
C784 O785 1.258 . S
C784 O786 1.263 . S
O785 Co782 1.970 . S
O785 C784 1.258 . S
O786 Co783 1.966 . S
O786 C784 1.263 . S
C787 O788 1.235 . S
C787 O814 1.289 . S
O788 C787 1.235 . S
C789 C791 1.400 . S
C789 N792 1.351 . S
C789 C794 1.501 . S
C790 C791 1.387 . S
C790 N793 1.341 . S
C791 C789 1.400 . S
C791 C790 1.387 . S
N792 Co783 2.022 . S
N792 C789 1.351 . S
N792 N793 1.365 . S
N793 C790 1.341 . S
N793 N792 1.365 . S
N793 H813 0.862 . S
C794 C789 1.501 . S
C794 H795 0.961 . S
C794 H796 0.961 . S
C794 H797 0.960 . S
H795 C794 0.961 . S
H796 C794 0.961 . S
H797 C794 0.960 . S
C798 N799 1.342 . S
C798 C802 1.401 . S
C798 C803 1.499 . S
N799 Co782 1.989 . S
N799 C798 1.342 . S
N799 N800 1.388 . S
N800 Co783 1.993 . S
N800 N799 1.388 . S
N800 C801 1.346 . S
C801 N800 1.346 . S
C801 C802 1.396 . S
C801 C811 1.510 . S
C802 C798 1.401 . S
C802 C801 1.396 . S
C803 C798 1.499 . S
C803 H804 0.959 . S
C803 H805 0.960 . S
C803 H806 0.961 . S
H804 C803 0.959 . S
H805 C803 0.960 . S
H806 C803 0.961 . S
O807 Co782 1.967 . S
O807 C815 1.258 . S
O808 Co783 1.941 . S
O808 C815 1.266 . S
H809 C811 0.959 . S
H810 C811 0.961 . S
C811 C801 1.510 . S
C811 H809 0.959 . S
C811 H810 0.961 . S
C811 H812 0.960 . S
H812 C811 0.960 . S
H813 N793 0.862 . S
O814 Co782 1.920 . S
O814 C787 1.289 . S
C815 O807 1.258 . S
C815 O808 1.266 . S
Co816 O819 1.970 . S
Co816 N833 1.989 . S
Co816 O841 1.967 . S
Co816 O848 1.920 . S
Co817 O820 1.966 . S
Co817 N826 2.022 . S
Co817 N834 1.993 . S
Co817 O842 1.941 . S
C818 O819 1.258 . S
C818 O820 1.263 . S
O819 Co816 1.970 . S
O819 C818 1.258 . S
O820 Co817 1.966 . S
O820 C818 1.263 . S
C821 O822 1.235 . S
C821 O848 1.289 . S
O822 C821 1.235 . S
C823 C825 1.400 . S
C823 N826 1.351 . S
C823 C828 1.501 . S
C824 C825 1.387 . S
C824 N827 1.341 . S
C825 C823 1.400 . S
C825 C824 1.387 . S
N826 Co817 2.022 . S
N826 C823 1.351 . S
N826 N827 1.365 . S
N827 C824 1.341 . S
N827 N826 1.365 . S
N827 H847 0.862 . S
C828 C823 1.501 . S
C828 H829 0.961 . S
C828 H830 0.961 . S
C828 H831 0.960 . S
H829 C828 0.961 . S
H830 C828 0.961 . S
H831 C828 0.960 . S
C832 N833 1.342 . S
C832 C836 1.401 . S
C832 C837 1.499 . S
N833 Co816 1.989 . S
N833 C832 1.342 . S
N833 N834 1.388 . S
N834 Co817 1.993 . S
N834 N833 1.388 . S
N834 C835 1.346 . S
C835 N834 1.346 . S
C835 C836 1.396 . S
C835 C845 1.510 . S
C836 C832 1.401 . S
C836 C835 1.396 . S
C837 C832 1.499 . S
C837 H838 0.959 . S
C837 H839 0.960 . S
C837 H840 0.961 . S
H838 C837 0.959 . S
H839 C837 0.960 . S
H840 C837 0.961 . S
O841 Co816 1.967 . S
O841 C849 1.258 . S
O842 Co817 1.941 . S
O842 C849 1.266 . S
H843 C845 0.959 . S
H844 C845 0.961 . S
C845 C835 1.510 . S
C845 H843 0.959 . S
C845 H844 0.961 . S
C845 H846 0.960 . S
H846 C845 0.960 . S
H847 N827 0.862 . S
O848 Co816 1.920 . S
O848 C821 1.289 . S
C849 O841 1.258 . S
C849 O842 1.266 . S
Co850 O853 1.970 . S
Co850 N867 1.989 . S
Co850 O875 1.967 . S
Co850 O882 1.920 . S
Co851 O854 1.966 . S
Co851 N860 2.022 . S
Co851 N868 1.993 . S
Co851 O876 1.941 . S
C852 O853 1.258 . S
C852 O854 1.263 . S
O853 Co850 1.970 . S
O853 C852 1.258 . S
O854 Co851 1.966 . S
O854 C852 1.263 . S
C855 O856 1.235 . S
C855 O882 1.289 . S
O856 C855 1.235 . S
C857 C859 1.400 . S
C857 N860 1.351 . S
C857 C862 1.501 . S
C858 C859 1.387 . S
C858 N861 1.341 . S
C859 C857 1.400 . S
C859 C858 1.387 . S
N860 Co851 2.022 . S
N860 C857 1.351 . S
N860 N861 1.365 . S
N861 C858 1.341 . S
N861 N860 1.365 . S
N861 H881 0.862 . S
C862 C857 1.501 . S
C862 H863 0.961 . S
C862 H864 0.961 . S
C862 H865 0.960 . S
H863 C862 0.961 . S
H864 C862 0.961 . S
H865 C862 0.960 . S
C866 N867 1.342 . S
C866 C870 1.401 . S
C866 C871 1.499 . S
N867 Co850 1.989 . S
N867 C866 1.342 . S
N867 N868 1.388 . S
N868 Co851 1.993 . S
N868 N867 1.388 . S
N868 C869 1.346 . S
C869 N868 1.346 . S
C869 C870 1.396 . S
C869 C879 1.510 . S
C870 C866 1.401 . S
C870 C869 1.396 . S
C871 C866 1.499 . S
C871 H872 0.959 . S
C871 H873 0.960 . S
C871 H874 0.961 . S
H872 C871 0.959 . S
H873 C871 0.960 . S
H874 C871 0.961 . S
O875 Co850 1.967 . S
O875 C883 1.258 . S
O876 Co851 1.941 . S
O876 C883 1.266 . S
H877 C879 0.959 . S
H878 C879 0.961 . S
C879 C869 1.510 . S
C879 H877 0.959 . S
C879 H878 0.961 . S
C879 H880 0.960 . S
H880 C879 0.960 . S
H881 N861 0.862 . S
O882 Co850 1.920 . S
O882 C855 1.289 . S
C883 O875 1.258 . S
C883 O876 1.266 . S
Co884 O887 1.970 . S
Co884 N901 1.989 . S
Co884 O909 1.967 . S
Co884 O916 1.920 . S
Co885 O888 1.966 . S
Co885 N894 2.022 . S
Co885 N902 1.993 . S
Co885 O910 1.941 . S
C886 O887 1.258 . S
C886 O888 1.263 . S
O887 Co884 1.970 . S
O887 C886 1.258 . S
O888 Co885 1.966 . S
O888 C886 1.263 . S
C889 O890 1.235 . S
C889 O916 1.289 . S
O890 C889 1.235 . S
C891 C893 1.400 . S
C891 N894 1.351 . S
C891 C896 1.501 . S
C892 C893 1.387 . S
C892 N895 1.341 . S
C893 C891 1.400 . S
C893 C892 1.387 . S
N894 Co885 2.022 . S
N894 C891 1.351 . S
N894 N895 1.365 . S
N895 C892 1.341 . S
N895 N894 1.365 . S
N895 H915 0.862 . S
C896 C891 1.501 . S
C896 H897 0.961 . S
C896 H898 0.961 . S
C896 H899 0.960 . S
H897 C896 0.961 . S
H898 C896 0.961 . S
H899 C896 0.960 . S
C900 N901 1.342 . S
C900 C904 1.401 . S
C900 C905 1.499 . S
N901 Co884 1.989 . S
N901 C900 1.342 . S
N901 N902 1.388 . S
N902 Co885 1.993 . S
N902 N901 1.388 . S
N902 C903 1.346 . S
C903 N902 1.346 . S
C903 C904 1.396 . S
C903 C913 1.510 . S
C904 C900 1.401 . S
C904 C903 1.396 . S
C905 C900 1.499 . S
C905 H906 0.959 . S
C905 H907 0.960 . S
C905 H908 0.961 . S
H906 C905 0.959 . S
H907 C905 0.960 . S
H908 C905 0.961 . S
O909 Co884 1.967 . S
O909 C917 1.258 . S
O910 Co885 1.941 . S
O910 C917 1.266 . S
H911 C913 0.959 . S
H912 C913 0.961 . S
C913 C903 1.510 . S
C913 H911 0.959 . S
C913 H912 0.961 . S
C913 H914 0.960 . S
H914 C913 0.960 . S
H915 N895 0.862 . S
O916 Co884 1.920 . S
O916 C889 1.289 . S
C917 O909 1.258 . S
C917 O910 1.266 . S
Co918 O921 1.970 . S
Co918 N935 1.989 . S
Co918 O943 1.967 . S
Co918 O950 1.920 . S
Co919 O922 1.966 . S
Co919 N928 2.022 . S
Co919 N936 1.993 . S
Co919 O944 1.941 . S
C920 O921 1.258 . S
C920 O922 1.263 . S
O921 Co918 1.970 . S
O921 C920 1.258 . S
O922 Co919 1.966 . S
O922 C920 1.263 . S
C923 O924 1.235 . S
C923 O950 1.289 . S
O924 C923 1.235 . S
C925 C927 1.400 . S
C925 N928 1.351 . S
C925 C930 1.501 . S
C926 C927 1.387 . S
C926 N929 1.341 . S
C927 C925 1.400 . S
C927 C926 1.387 . S
N928 Co919 2.022 . S
N928 C925 1.351 . S
N928 N929 1.365 . S
N929 C926 1.341 . S
N929 N928 1.365 . S
N929 H949 0.862 . S
C930 C925 1.501 . S
C930 H931 0.961 . S
C930 H932 0.961 . S
C930 H933 0.960 . S
H931 C930 0.961 . S
H932 C930 0.961 . S
H933 C930 0.960 . S
C934 N935 1.342 . S
C934 C938 1.401 . S
C934 C939 1.499 . S
N935 Co918 1.989 . S
N935 C934 1.342 . S
N935 N936 1.388 . S
N936 Co919 1.993 . S
N936 N935 1.388 . S
N936 C937 1.346 . S
C937 N936 1.346 . S
C937 C938 1.396 . S
C937 C947 1.510 . S
C938 C934 1.401 . S
C938 C937 1.396 . S
C939 C934 1.499 . S
C939 H940 0.959 . S
C939 H941 0.960 . S
C939 H942 0.961 . S
H940 C939 0.959 . S
H941 C939 0.960 . S
H942 C939 0.961 . S
O943 Co918 1.967 . S
O943 C951 1.258 . S
O944 Co919 1.941 . S
O944 C951 1.266 . S
H945 C947 0.959 . S
H946 C947 0.961 . S
C947 C937 1.510 . S
C947 H945 0.959 . S
C947 H946 0.961 . S
C947 H948 0.960 . S
H948 C947 0.960 . S
H949 N929 0.862 . S
O950 Co918 1.920 . S
O950 C923 1.289 . S
C951 O943 1.258 . S
C951 O944 1.266 . S
Co952 O955 1.970 . S
Co952 N969 1.989 . S
Co952 O977 1.967 . S
Co952 O984 1.920 . S
Co953 O956 1.966 . S
Co953 N962 2.022 . S
Co953 N970 1.993 . S
Co953 O978 1.941 . S
C954 O955 1.258 . S
C954 O956 1.263 . S
O955 Co952 1.970 . S
O955 C954 1.258 . S
O956 Co953 1.966 . S
O956 C954 1.263 . S
C957 O958 1.235 . S
C957 O984 1.289 . S
O958 C957 1.235 . S
C959 C961 1.400 . S
C959 N962 1.351 . S
C959 C964 1.501 . S
C960 C961 1.387 . S
C960 N963 1.341 . S
C961 C959 1.400 . S
C961 C960 1.387 . S
N962 Co953 2.022 . S
N962 C959 1.351 . S
N962 N963 1.365 . S
N963 C960 1.341 . S
N963 N962 1.365 . S
N963 H983 0.862 . S
C964 C959 1.501 . S
C964 H965 0.961 . S
C964 H966 0.961 . S
C964 H967 0.960 . S
H965 C964 0.961 . S
H966 C964 0.961 . S
H967 C964 0.960 . S
C968 N969 1.342 . S
C968 C972 1.401 . S
C968 C973 1.499 . S
N969 Co952 1.989 . S
N969 C968 1.342 . S
N969 N970 1.388 . S
N970 Co953 1.993 . S
N970 N969 1.388 . S
N970 C971 1.346 . S
C971 N970 1.346 . S
C971 C972 1.396 . S
C971 C981 1.510 . S
C972 C968 1.401 . S
C972 C971 1.396 . S
C973 C968 1.499 . S
C973 H974 0.959 . S
C973 H975 0.960 . S
C973 H976 0.961 . S
H974 C973 0.959 . S
H975 C973 0.960 . S
H976 C973 0.961 . S
O977 Co952 1.967 . S
O977 C985 1.258 . S
O978 Co953 1.941 . S
O978 C985 1.266 . S
H979 C981 0.959 . S
H980 C981 0.961 . S
C981 C971 1.510 . S
C981 H979 0.959 . S
C981 H980 0.961 . S
C981 H982 0.960 . S
H982 C981 0.960 . S
H983 N963 0.862 . S
O984 Co952 1.920 . S
O984 C957 1.289 . S
C985 O977 1.258 . S
C985 O978 1.266 . S
Co986 O989 1.970 . S
Co986 N1003 1.989 . S
Co986 O1011 1.967 . S
Co986 O1018 1.920 . S
Co987 O990 1.966 . S
Co987 N996 2.022 . S
Co987 N1004 1.993 . S
Co987 O1012 1.941 . S
C988 O989 1.258 . S
C988 O990 1.263 . S
O989 Co986 1.970 . S
O989 C988 1.258 . S
O990 Co987 1.966 . S
O990 C988 1.263 . S
C991 O992 1.235 . S
C991 O1018 1.289 . S
O992 C991 1.235 . S
C993 C995 1.400 . S
C993 N996 1.351 . S
C993 C998 1.501 . S
C994 C995 1.387 . S
C994 N997 1.341 . S
C995 C993 1.400 . S
C995 C994 1.387 . S
N996 Co987 2.022 . S
N996 C993 1.351 . S
N996 N997 1.365 . S
N997 C994 1.341 . S
N997 N996 1.365 . S
N997 H1017 0.862 . S
C998 C993 1.501 . S
C998 H999 0.961 . S
C998 H1000 0.961 . S
C998 H1001 0.960 . S
H999 C998 0.961 . S
H1000 C998 0.961 . S
H1001 C998 0.960 . S
C1002 N1003 1.342 . S
C1002 C1006 1.401 . S
C1002 C1007 1.499 . S
N1003 Co986 1.989 . S
N1003 C1002 1.342 . S
N1003 N1004 1.388 . S
N1004 Co987 1.993 . S
N1004 N1003 1.388 . S
N1004 C1005 1.346 . S
C1005 N1004 1.346 . S
C1005 C1006 1.396 . S
C1005 C1015 1.510 . S
C1006 C1002 1.401 . S
C1006 C1005 1.396 . S
C1007 C1002 1.499 . S
C1007 H1008 0.959 . S
C1007 H1009 0.960 . S
C1007 H1010 0.961 . S
H1008 C1007 0.959 . S
H1009 C1007 0.960 . S
H1010 C1007 0.961 . S
O1011 Co986 1.967 . S
O1011 C1019 1.258 . S
O1012 Co987 1.941 . S
O1012 C1019 1.266 . S
H1013 C1015 0.959 . S
H1014 C1015 0.961 . S
C1015 C1005 1.510 . S
C1015 H1013 0.959 . S
C1015 H1014 0.961 . S
C1015 H1016 0.960 . S
H1016 C1015 0.960 . S
H1017 N997 0.862 . S
O1018 Co986 1.920 . S
O1018 C991 1.289 . S
C1019 O1011 1.258 . S
C1019 O1012 1.266 . S
Co1020 O1023 1.970 . S
Co1020 N1037 1.989 . S
Co1020 O1045 1.967 . S
Co1020 O1052 1.920 . S
Co1021 O1024 1.966 . S
Co1021 N1030 2.022 . S
Co1021 N1038 1.993 . S
Co1021 O1046 1.941 . S
C1022 O1023 1.258 . S
C1022 O1024 1.263 . S
O1023 Co1020 1.970 . S
O1023 C1022 1.258 . S
O1024 Co1021 1.966 . S
O1024 C1022 1.263 . S
C1025 O1026 1.235 . S
C1025 O1052 1.289 . S
O1026 C1025 1.235 . S
C1027 C1029 1.400 . S
C1027 N1030 1.351 . S
C1027 C1032 1.501 . S
C1028 C1029 1.387 . S
C1028 N1031 1.341 . S
C1029 C1027 1.400 . S
C1029 C1028 1.387 . S
N1030 Co1021 2.022 . S
N1030 C1027 1.351 . S
N1030 N1031 1.365 . S
N1031 C1028 1.341 . S
N1031 N1030 1.365 . S
N1031 H1051 0.862 . S
C1032 C1027 1.501 . S
C1032 H1033 0.961 . S
C1032 H1034 0.961 . S
C1032 H1035 0.960 . S
H1033 C1032 0.961 . S
H1034 C1032 0.961 . S
H1035 C1032 0.960 . S
C1036 N1037 1.342 . S
C1036 C1040 1.401 . S
C1036 C1041 1.499 . S
N1037 Co1020 1.989 . S
N1037 C1036 1.342 . S
N1037 N1038 1.388 . S
N1038 Co1021 1.993 . S
N1038 N1037 1.388 . S
N1038 C1039 1.346 . S
C1039 N1038 1.346 . S
C1039 C1040 1.396 . S
C1039 C1049 1.510 . S
C1040 C1036 1.401 . S
C1040 C1039 1.396 . S
C1041 C1036 1.499 . S
C1041 H1042 0.959 . S
C1041 H1043 0.960 . S
C1041 H1044 0.961 . S
H1042 C1041 0.959 . S
H1043 C1041 0.960 . S
H1044 C1041 0.961 . S
O1045 Co1020 1.967 . S
O1045 C1053 1.258 . S
O1046 Co1021 1.941 . S
O1046 C1053 1.266 . S
H1047 C1049 0.959 . S
H1048 C1049 0.961 . S
C1049 C1039 1.510 . S
C1049 H1047 0.959 . S
C1049 H1048 0.961 . S
C1049 H1050 0.960 . S
H1050 C1049 0.960 . S
H1051 N1031 0.862 . S
O1052 Co1020 1.920 . S
O1052 C1025 1.289 . S
C1053 O1045 1.258 . S
C1053 O1046 1.266 . S
Co1054 O1057 1.970 . S
Co1054 N1071 1.989 . S
Co1054 O1079 1.967 . S
Co1054 O1086 1.920 . S
Co1055 O1058 1.966 . S
Co1055 N1064 2.022 . S
Co1055 N1072 1.993 . S
Co1055 O1080 1.941 . S
C1056 O1057 1.258 . S
C1056 O1058 1.263 . S
O1057 Co1054 1.970 . S
O1057 C1056 1.258 . S
O1058 Co1055 1.966 . S
O1058 C1056 1.263 . S
C1059 O1060 1.235 . S
C1059 O1086 1.289 . S
O1060 C1059 1.235 . S
C1061 C1063 1.400 . S
C1061 N1064 1.351 . S
C1061 C1066 1.501 . S
C1062 C1063 1.387 . S
C1062 N1065 1.341 . S
C1063 C1061 1.400 . S
C1063 C1062 1.387 . S
N1064 Co1055 2.022 . S
N1064 C1061 1.351 . S
N1064 N1065 1.365 . S
N1065 C1062 1.341 . S
N1065 N1064 1.365 . S
N1065 H1085 0.862 . S
C1066 C1061 1.501 . S
C1066 H1067 0.961 . S
C1066 H1068 0.961 . S
C1066 H1069 0.960 . S
H1067 C1066 0.961 . S
H1068 C1066 0.961 . S
H1069 C1066 0.960 . S
C1070 N1071 1.342 . S
C1070 C1074 1.401 . S
C1070 C1075 1.499 . S
N1071 Co1054 1.989 . S
N1071 C1070 1.342 . S
N1071 N1072 1.388 . S
N1072 Co1055 1.993 . S
N1072 N1071 1.388 . S
N1072 C1073 1.346 . S
C1073 N1072 1.346 . S
C1073 C1074 1.396 . S
C1073 C1083 1.510 . S
C1074 C1070 1.401 . S
C1074 C1073 1.396 . S
C1075 C1070 1.499 . S
C1075 H1076 0.959 . S
C1075 H1077 0.960 . S
C1075 H1078 0.961 . S
H1076 C1075 0.959 . S
H1077 C1075 0.960 . S
H1078 C1075 0.961 . S
O1079 Co1054 1.967 . S
O1079 C1087 1.258 . S
O1080 Co1055 1.941 . S
O1080 C1087 1.266 . S
H1081 C1083 0.959 . S
H1082 C1083 0.961 . S
C1083 C1073 1.510 . S
C1083 H1081 0.959 . S
C1083 H1082 0.961 . S
C1083 H1084 0.960 . S
H1084 C1083 0.960 . S
H1085 N1065 0.862 . S
O1086 Co1054 1.920 . S
O1086 C1059 1.289 . S
C1087 O1079 1.258 . S
C1087 O1080 1.266 . S
Co1088 O1091 1.970 . S
Co1088 N1105 1.989 . S
Co1088 O1113 1.967 . S
Co1088 O1120 1.920 . S
Co1089 O1092 1.966 . S
Co1089 N1098 2.022 . S
Co1089 N1106 1.993 . S
Co1089 O1114 1.941 . S
C1090 O1091 1.258 . S
C1090 O1092 1.263 . S
O1091 Co1088 1.970 . S
O1091 C1090 1.258 . S
O1092 Co1089 1.966 . S
O1092 C1090 1.263 . S
C1093 O1094 1.235 . S
C1093 O1120 1.289 . S
O1094 C1093 1.235 . S
C1095 C1097 1.400 . S
C1095 N1098 1.351 . S
C1095 C1100 1.501 . S
C1096 C1097 1.387 . S
C1096 N1099 1.341 . S
C1097 C1095 1.400 . S
C1097 C1096 1.387 . S
N1098 Co1089 2.022 . S
N1098 C1095 1.351 . S
N1098 N1099 1.365 . S
N1099 C1096 1.341 . S
N1099 N1098 1.365 . S
N1099 H1119 0.862 . S
C1100 C1095 1.501 . S
C1100 H1101 0.961 . S
C1100 H1102 0.961 . S
C1100 H1103 0.960 . S
H1101 C1100 0.961 . S
H1102 C1100 0.961 . S
H1103 C1100 0.960 . S
C1104 N1105 1.342 . S
C1104 C1108 1.401 . S
C1104 C1109 1.499 . S
N1105 Co1088 1.989 . S
N1105 C1104 1.342 . S
N1105 N1106 1.388 . S
N1106 Co1089 1.993 . S
N1106 N1105 1.388 . S
N1106 C1107 1.346 . S
C1107 N1106 1.346 . S
C1107 C1108 1.396 . S
C1107 C1117 1.510 . S
C1108 C1104 1.401 . S
C1108 C1107 1.396 . S
C1109 C1104 1.499 . S
C1109 H1110 0.959 . S
C1109 H1111 0.960 . S
C1109 H1112 0.961 . S
H1110 C1109 0.959 . S
H1111 C1109 0.960 . S
H1112 C1109 0.961 . S
O1113 Co1088 1.967 . S
O1113 C1121 1.258 . S
O1114 Co1089 1.941 . S
O1114 C1121 1.266 . S
H1115 C1117 0.959 . S
H1116 C1117 0.961 . S
C1117 C1107 1.510 . S
C1117 H1115 0.959 . S
C1117 H1116 0.961 . S
C1117 H1118 0.960 . S
H1118 C1117 0.960 . S
H1119 N1099 0.862 . S
O1120 Co1088 1.920 . S
O1120 C1093 1.289 . S
C1121 O1113 1.258 . S
C1121 O1114 1.266 . S
Co1122 O1125 1.970 . S
Co1122 N1139 1.989 . S
Co1122 O1147 1.967 . S
Co1122 O1154 1.920 . S
Co1123 O1126 1.966 . S
Co1123 N1132 2.022 . S
Co1123 N1140 1.993 . S
Co1123 O1148 1.941 . S
C1124 O1125 1.258 . S
C1124 O1126 1.263 . S
O1125 Co1122 1.970 . S
O1125 C1124 1.258 . S
O1126 Co1123 1.966 . S
O1126 C1124 1.263 . S
C1127 O1128 1.235 . S
C1127 O1154 1.289 . S
O1128 C1127 1.235 . S
C1129 C1131 1.400 . S
C1129 N1132 1.351 . S
C1129 C1134 1.501 . S
C1130 C1131 1.387 . S
C1130 N1133 1.341 . S
C1131 C1129 1.400 . S
C1131 C1130 1.387 . S
N1132 Co1123 2.022 . S
N1132 C1129 1.351 . S
N1132 N1133 1.365 . S
N1133 C1130 1.341 . S
N1133 N1132 1.365 . S
N1133 H1153 0.862 . S
C1134 C1129 1.501 . S
C1134 H1135 0.961 . S
C1134 H1136 0.961 . S
C1134 H1137 0.960 . S
H1135 C1134 0.961 . S
H1136 C1134 0.961 . S
H1137 C1134 0.960 . S
C1138 N1139 1.342 . S
C1138 C1142 1.401 . S
C1138 C1143 1.499 . S
N1139 Co1122 1.989 . S
N1139 C1138 1.342 . S
N1139 N1140 1.388 . S
N1140 Co1123 1.993 . S
N1140 N1139 1.388 . S
N1140 C1141 1.346 . S
C1141 N1140 1.346 . S
C1141 C1142 1.396 . S
C1141 C1151 1.510 . S
C1142 C1138 1.401 . S
C1142 C1141 1.396 . S
C1143 C1138 1.499 . S
C1143 H1144 0.959 . S
C1143 H1145 0.960 . S
C1143 H1146 0.961 . S
H1144 C1143 0.959 . S
H1145 C1143 0.960 . S
H1146 C1143 0.961 . S
O1147 Co1122 1.967 . S
O1147 C1155 1.258 . S
O1148 Co1123 1.941 . S
O1148 C1155 1.266 . S
H1149 C1151 0.959 . S
H1150 C1151 0.961 . S
C1151 C1141 1.510 . S
C1151 H1149 0.959 . S
C1151 H1150 0.961 . S
C1151 H1152 0.960 . S
H1152 C1151 0.960 . S
H1153 N1133 0.862 . S
O1154 Co1122 1.920 . S
O1154 C1127 1.289 . S
C1155 O1147 1.258 . S
C1155 O1148 1.266 . S
Co1156 O1159 1.970 . S
Co1156 N1173 1.989 . S
Co1156 O1181 1.967 . S
Co1156 O1188 1.920 . S
Co1157 O1160 1.966 . S
Co1157 N1166 2.022 . S
Co1157 N1174 1.993 . S
Co1157 O1182 1.941 . S
C1158 O1159 1.258 . S
C1158 O1160 1.263 . S
O1159 Co1156 1.970 . S
O1159 C1158 1.258 . S
O1160 Co1157 1.966 . S
O1160 C1158 1.263 . S
C1161 O1162 1.235 . S
C1161 O1188 1.289 . S
O1162 C1161 1.235 . S
C1163 C1165 1.400 . S
C1163 N1166 1.351 . S
C1163 C1168 1.501 . S
C1164 C1165 1.387 . S
C1164 N1167 1.341 . S
C1165 C1163 1.400 . S
C1165 C1164 1.387 . S
N1166 Co1157 2.022 . S
N1166 C1163 1.351 . S
N1166 N1167 1.365 . S
N1167 C1164 1.341 . S
N1167 N1166 1.365 . S
N1167 H1187 0.862 . S
C1168 C1163 1.501 . S
C1168 H1169 0.961 . S
C1168 H1170 0.961 . S
C1168 H1171 0.960 . S
H1169 C1168 0.961 . S
H1170 C1168 0.961 . S
H1171 C1168 0.960 . S
C1172 N1173 1.342 . S
C1172 C1176 1.401 . S
C1172 C1177 1.499 . S
N1173 Co1156 1.989 . S
N1173 C1172 1.342 . S
N1173 N1174 1.388 . S
N1174 Co1157 1.993 . S
N1174 N1173 1.388 . S
N1174 C1175 1.346 . S
C1175 N1174 1.346 . S
C1175 C1176 1.396 . S
C1175 C1185 1.510 . S
C1176 C1172 1.401 . S
C1176 C1175 1.396 . S
C1177 C1172 1.499 . S
C1177 H1178 0.959 . S
C1177 H1179 0.960 . S
C1177 H1180 0.961 . S
H1178 C1177 0.959 . S
H1179 C1177 0.960 . S
H1180 C1177 0.961 . S
O1181 Co1156 1.967 . S
O1181 C1189 1.258 . S
O1182 Co1157 1.941 . S
O1182 C1189 1.266 . S
H1183 C1185 0.959 . S
H1184 C1185 0.961 . S
C1185 C1175 1.510 . S
C1185 H1183 0.959 . S
C1185 H1184 0.961 . S
C1185 H1186 0.960 . S
H1186 C1185 0.960 . S
H1187 N1167 0.862 . S
O1188 Co1156 1.920 . S
O1188 C1161 1.289 . S
C1189 O1181 1.258 . S
C1189 O1182 1.266 . S
Co1190 O1193 1.970 . S
Co1190 N1207 1.989 . S
Co1190 O1215 1.967 . S
Co1190 O1222 1.920 . S
Co1191 O1194 1.966 . S
Co1191 N1200 2.022 . S
Co1191 N1208 1.993 . S
Co1191 O1216 1.941 . S
C1192 O1193 1.258 . S
C1192 O1194 1.263 . S
O1193 Co1190 1.970 . S
O1193 C1192 1.258 . S
O1194 Co1191 1.966 . S
O1194 C1192 1.263 . S
C1195 O1196 1.235 . S
C1195 O1222 1.289 . S
O1196 C1195 1.235 . S
C1197 C1199 1.400 . S
C1197 N1200 1.351 . S
C1197 C1202 1.501 . S
C1198 C1199 1.387 . S
C1198 N1201 1.341 . S
C1199 C1197 1.400 . S
C1199 C1198 1.387 . S
N1200 Co1191 2.022 . S
N1200 C1197 1.351 . S
N1200 N1201 1.365 . S
N1201 C1198 1.341 . S
N1201 N1200 1.365 . S
N1201 H1221 0.862 . S
C1202 C1197 1.501 . S
C1202 H1203 0.961 . S
C1202 H1204 0.961 . S
C1202 H1205 0.960 . S
H1203 C1202 0.961 . S
H1204 C1202 0.961 . S
H1205 C1202 0.960 . S
C1206 N1207 1.342 . S
C1206 C1210 1.401 . S
C1206 C1211 1.499 . S
N1207 Co1190 1.989 . S
N1207 C1206 1.342 . S
N1207 N1208 1.388 . S
N1208 Co1191 1.993 . S
N1208 N1207 1.388 . S
N1208 C1209 1.346 . S
C1209 N1208 1.346 . S
C1209 C1210 1.396 . S
C1209 C1219 1.510 . S
C1210 C1206 1.401 . S
C1210 C1209 1.396 . S
C1211 C1206 1.499 . S
C1211 H1212 0.959 . S
C1211 H1213 0.960 . S
C1211 H1214 0.961 . S
H1212 C1211 0.959 . S
H1213 C1211 0.960 . S
H1214 C1211 0.961 . S
O1215 Co1190 1.967 . S
O1215 C1223 1.258 . S
O1216 Co1191 1.941 . S
O1216 C1223 1.266 . S
H1217 C1219 0.959 . S
H1218 C1219 0.961 . S
C1219 C1209 1.510 . S
C1219 H1217 0.959 . S
C1219 H1218 0.961 . S
C1219 H1220 0.960 . S
H1220 C1219 0.960 . S
H1221 N1201 0.862 . S
O1222 Co1190 1.920 . S
O1222 C1195 1.289 . S
C1223 O1215 1.258 . S
C1223 O1216 1.266 . S
H1224 C1232 0.950 . S
H1225 C1237 0.950 . S
H1226 C1234 0.950 . S
H1227 C1236 0.950 . S
H1228 C1238 0.950 . S
H1229 C1240 0.950 . S
H1230 C1242 0.950 . S
H1231 C1243 0.950 . S
C1232 H1224 0.950 . S
C1232 C1233 1.386 . S
C1232 C1234 1.391 . S
C1233 C1232 1.386 . S
C1233 C1237 1.393 . S
C1234 H1226 0.950 . S
C1234 C1232 1.391 . S
C1234 C1235 1.400 . S
C1235 C1234 1.400 . S
C1235 C1236 1.398 . S
C1235 C1241 1.491 . S
C1236 H1227 0.950 . S
C1236 C1235 1.398 . S
C1236 C1237 1.391 . S
C1237 H1225 0.950 . S
C1237 C1233 1.393 . S
C1237 C1236 1.391 . S
C1238 H1228 0.950 . S
C1238 C1239 1.386 . S
C1238 C1240 1.391 . S
C1239 C1238 1.386 . S
C1239 C1243 1.393 . S
C1240 H1229 0.950 . S
C1240 C1238 1.391 . S
C1240 C1241 1.400 . S
C1241 C1235 1.491 . S
C1241 C1240 1.400 . S
C1241 C1242 1.398 . S
C1242 H1230 0.950 . S
C1242 C1241 1.398 . S
C1242 C1243 1.391 . S
C1243 H1231 0.950 . S
C1243 C1239 1.393 . S
C1243 C1242 1.391 . S
H1244 C1252 0.950 . S
H1245 C1257 0.950 . S
H1246 C1254 0.950 . S
H1247 C1256 0.950 . S
H1248 C1258 0.950 . S
H1249 C1260 0.950 . S
H1250 C1262 0.950 . S
H1251 C1263 0.950 . S
C1252 H1244 0.950 . S
C1252 C1253 1.386 . S
C1252 C1254 1.391 . S
C1253 C1252 1.386 . S
C1253 C1257 1.393 . S
C1254 H1246 0.950 . S
C1254 C1252 1.391 . S
C1254 C1255 1.400 . S
C1255 C1254 1.400 . S
C1255 C1256 1.398 . S
C1255 C1261 1.491 . S
C1256 H1247 0.950 . S
C1256 C1255 1.398 . S
C1256 C1257 1.391 . S
C1257 H1245 0.950 . S
C1257 C1253 1.393 . S
C1257 C1256 1.391 . S
C1258 H1248 0.950 . S
C1258 C1259 1.386 . S
C1258 C1260 1.391 . S
C1259 C1258 1.386 . S
C1259 C1263 1.393 . S
C1260 H1249 0.950 . S
C1260 C1258 1.391 . S
C1260 C1261 1.400 . S
C1261 C1255 1.491 . S
C1261 C1260 1.400 . S
C1261 C1262 1.398 . S
C1262 H1250 0.950 . S
C1262 C1261 1.398 . S
C1262 C1263 1.391 . S
C1263 H1251 0.950 . S
C1263 C1259 1.393 . S
C1263 C1262 1.391 . S
H1264 C1272 0.950 . S
H1265 C1277 0.950 . S
H1266 C1274 0.950 . S
H1267 C1276 0.950 . S
H1268 C1278 0.950 . S
H1269 C1280 0.950 . S
H1270 C1282 0.950 . S
H1271 C1283 0.950 . S
C1272 H1264 0.950 . S
C1272 C1273 1.386 . S
C1272 C1274 1.391 . S
C1273 C1272 1.386 . S
C1273 C1277 1.393 . S
C1274 H1266 0.950 . S
C1274 C1272 1.391 . S
C1274 C1275 1.400 . S
C1275 C1274 1.400 . S
C1275 C1276 1.398 . S
C1275 C1281 1.491 . S
C1276 H1267 0.950 . S
C1276 C1275 1.398 . S
C1276 C1277 1.391 . S
C1277 H1265 0.950 . S
C1277 C1273 1.393 . S
C1277 C1276 1.391 . S
C1278 H1268 0.950 . S
C1278 C1279 1.386 . S
C1278 C1280 1.391 . S
C1279 C1278 1.386 . S
C1279 C1283 1.393 . S
C1280 H1269 0.950 . S
C1280 C1278 1.391 . S
C1280 C1281 1.400 . S
C1281 C1275 1.491 . S
C1281 C1280 1.400 . S
C1281 C1282 1.398 . S
C1282 H1270 0.950 . S
C1282 C1281 1.398 . S
C1282 C1283 1.391 . S
C1283 H1271 0.950 . S
C1283 C1279 1.393 . S
C1283 C1282 1.391 . S
H1284 C1292 0.950 . S
H1285 C1297 0.950 . S
H1286 C1294 0.950 . S
H1287 C1296 0.950 . S
H1288 C1298 0.950 . S
H1289 C1300 0.950 . S
H1290 C1302 0.950 . S
H1291 C1303 0.950 1_554 S
C1292 H1284 0.950 . S
C1292 C1293 1.386 . S
C1292 C1294 1.391 . S
C1293 C1292 1.386 . S
C1293 C1297 1.393 . S
C1294 H1286 0.950 . S
C1294 C1292 1.391 . S
C1294 C1295 1.400 . S
C1295 C1294 1.400 . S
C1295 C1296 1.398 . S
C1295 C1301 1.491 . S
C1296 H1287 0.950 . S
C1296 C1295 1.398 . S
C1296 C1297 1.391 . S
C1297 H1285 0.950 . S
C1297 C1293 1.393 . S
C1297 C1296 1.391 . S
C1298 H1288 0.950 . S
C1298 C1299 1.386 . S
C1298 C1300 1.391 . S
C1299 C1298 1.386 . S
C1299 C1303 1.393 . S
C1300 H1289 0.950 . S
C1300 C1298 1.391 . S
C1300 C1301 1.400 . S
C1301 C1295 1.491 . S
C1301 C1300 1.400 . S
C1301 C1302 1.398 . S
C1302 H1290 0.950 . S
C1302 C1301 1.398 . S
C1302 C1303 1.391 . S
C1303 H1291 0.950 1_556 S
C1303 C1299 1.393 . S
C1303 C1302 1.391 . S
H1304 C1312 0.950 . S
H1305 C1317 0.950 . S
H1306 C1314 0.950 . S
H1307 C1316 0.950 . S
H1308 C1318 0.950 . S
H1309 C1320 0.950 . S
H1310 C1322 0.950 . S
H1311 C1323 0.950 . S
C1312 H1304 0.950 . S
C1312 C1313 1.386 . S
C1312 C1314 1.391 . S
C1313 C1312 1.386 . S
C1313 C1317 1.393 . S
C1314 H1306 0.950 . S
C1314 C1312 1.391 . S
C1314 C1315 1.400 . S
C1315 C1314 1.400 . S
C1315 C1316 1.398 . S
C1315 C1321 1.491 . S
C1316 H1307 0.950 . S
C1316 C1315 1.398 . S
C1316 C1317 1.391 . S
C1317 H1305 0.950 . S
C1317 C1313 1.393 . S
C1317 C1316 1.391 . S
C1318 H1308 0.950 . S
C1318 C1319 1.386 . S
C1318 C1320 1.391 . S
C1319 C1318 1.386 . S
C1319 C1323 1.393 . S
C1320 H1309 0.950 . S
C1320 C1318 1.391 . S
C1320 C1321 1.400 . S
C1321 C1315 1.491 . S
C1321 C1320 1.400 . S
C1321 C1322 1.398 . S
C1322 H1310 0.950 . S
C1322 C1321 1.398 . S
C1322 C1323 1.391 . S
C1323 H1311 0.950 . S
C1323 C1319 1.393 . S
C1323 C1322 1.391 . S
H1324 C1332 0.950 . S
H1325 C1337 0.950 . S
H1326 C1334 0.950 . S
H1327 C1336 0.950 . S
H1328 C1338 0.950 . S
H1329 C1340 0.950 . S
H1330 C1342 0.950 . S
H1331 C1343 0.950 . S
C1332 H1324 0.950 . S
C1332 C1333 1.386 . S
C1332 C1334 1.391 . S
C1333 C1332 1.386 . S
C1333 C1337 1.393 . S
C1334 H1326 0.950 . S
C1334 C1332 1.391 . S
C1334 C1335 1.400 . S
C1335 C1334 1.400 . S
C1335 C1336 1.398 . S
C1335 C1341 1.491 . S
C1336 H1327 0.950 . S
C1336 C1335 1.398 . S
C1336 C1337 1.391 . S
C1337 H1325 0.950 . S
C1337 C1333 1.393 . S
C1337 C1336 1.391 . S
C1338 H1328 0.950 . S
C1338 C1339 1.386 . S
C1338 C1340 1.391 . S
C1339 C1338 1.386 . S
C1339 C1343 1.393 . S
C1340 H1329 0.950 . S
C1340 C1338 1.391 . S
C1340 C1341 1.400 . S
C1341 C1335 1.491 . S
C1341 C1340 1.400 . S
C1341 C1342 1.398 . S
C1342 H1330 0.950 . S
C1342 C1341 1.398 . S
C1342 C1343 1.391 . S
C1343 H1331 0.950 . S
C1343 C1339 1.393 . S
C1343 C1342 1.391 . S
H1344 C1352 0.950 . S
H1345 C1357 0.950 . S
H1346 C1354 0.950 . S
H1347 C1356 0.950 . S
H1348 C1358 0.950 . S
H1349 C1360 0.950 . S
H1350 C1362 0.950 . S
H1351 C1363 0.950 . S
C1352 H1344 0.950 . S
C1352 C1353 1.386 . S
C1352 C1354 1.391 . S
C1353 C1352 1.386 . S
C1353 C1357 1.393 . S
C1354 H1346 0.950 . S
C1354 C1352 1.391 . S
C1354 C1355 1.400 . S
C1355 C1354 1.400 . S
C1355 C1356 1.398 . S
C1355 C1361 1.491 . S
C1356 H1347 0.950 . S
C1356 C1355 1.398 . S
C1356 C1357 1.391 . S
C1357 H1345 0.950 . S
C1357 C1353 1.393 . S
C1357 C1356 1.391 . S
C1358 H1348 0.950 . S
C1358 C1359 1.386 . S
C1358 C1360 1.391 . S
C1359 C1358 1.386 . S
C1359 C1363 1.393 . S
C1360 H1349 0.950 . S
C1360 C1358 1.391 . S
C1360 C1361 1.400 . S
C1361 C1355 1.491 . S
C1361 C1360 1.400 . S
C1361 C1362 1.398 . S
C1362 H1350 0.950 . S
C1362 C1361 1.398 . S
C1362 C1363 1.391 . S
C1363 H1351 0.950 . S
C1363 C1359 1.393 . S
C1363 C1362 1.391 . S
H1364 C1372 0.950 . S
H1365 C1377 0.950 . S
H1366 C1374 0.950 . S
H1367 C1376 0.950 . S
H1368 C1378 0.950 . S
H1369 C1380 0.950 . S
H1370 C1382 0.950 . S
H1371 C1383 0.950 . S
C1372 H1364 0.950 . S
C1372 C1373 1.386 . S
C1372 C1374 1.391 . S
C1373 C1372 1.386 . S
C1373 C1377 1.393 . S
C1374 H1366 0.950 . S
C1374 C1372 1.391 . S
C1374 C1375 1.400 . S
C1375 C1374 1.400 . S
C1375 C1376 1.398 . S
C1375 C1381 1.491 . S
C1376 H1367 0.950 . S
C1376 C1375 1.398 . S
C1376 C1377 1.391 . S
C1377 H1365 0.950 . S
C1377 C1373 1.393 . S
C1377 C1376 1.391 . S
C1378 H1368 0.950 . S
C1378 C1379 1.386 . S
C1378 C1380 1.391 . S
C1379 C1378 1.386 . S
C1379 C1383 1.393 . S
C1380 H1369 0.950 . S
C1380 C1378 1.391 . S
C1380 C1381 1.400 . S
C1381 C1375 1.491 . S
C1381 C1380 1.400 . S
C1381 C1382 1.398 . S
C1382 H1370 0.950 . S
C1382 C1381 1.398 . S
C1382 C1383 1.391 . S
C1383 H1371 0.950 . S
C1383 C1379 1.393 . S
C1383 C1382 1.391 . S
H1384 C1392 0.950 . S
H1385 C1397 0.950 . S
H1386 C1394 0.950 . S
H1387 C1396 0.950 . S
H1388 C1398 0.950 . S
H1389 C1400 0.950 . S
H1390 C1402 0.950 . S
H1391 C1403 0.950 . S
C1392 H1384 0.950 . S
C1392 C1393 1.386 . S
C1392 C1394 1.391 . S
C1393 C1392 1.386 . S
C1393 C1397 1.393 . S
C1394 H1386 0.950 . S
C1394 C1392 1.391 . S
C1394 C1395 1.400 . S
C1395 C1394 1.400 . S
C1395 C1396 1.398 . S
C1395 C1401 1.491 . S
C1396 H1387 0.950 . S
C1396 C1395 1.398 . S
C1396 C1397 1.391 . S
C1397 H1385 0.950 . S
C1397 C1393 1.393 . S
C1397 C1396 1.391 . S
C1398 H1388 0.950 . S
C1398 C1399 1.386 . S
C1398 C1400 1.391 . S
C1399 C1398 1.386 . S
C1399 C1403 1.393 . S
C1400 H1389 0.950 . S
C1400 C1398 1.391 . S
C1400 C1401 1.400 . S
C1401 C1395 1.491 . S
C1401 C1400 1.400 . S
C1401 C1402 1.398 . S
C1402 H1390 0.950 . S
C1402 C1401 1.398 . S
C1402 C1403 1.391 . S
C1403 H1391 0.950 . S
C1403 C1399 1.393 . S
C1403 C1402 1.391 . S
H1404 C1412 0.950 . S
H1405 C1417 0.950 . S
H1406 C1414 0.950 . S
H1407 C1416 0.950 . S
H1408 C1418 0.950 . S
H1409 C1420 0.950 . S
H1410 C1422 0.950 . S
H1411 C1423 0.950 . S
C1412 H1404 0.950 . S
C1412 C1413 1.386 . S
C1412 C1414 1.391 . S
C1413 C1412 1.386 . S
C1413 C1417 1.393 . S
C1414 H1406 0.950 . S
C1414 C1412 1.391 . S
C1414 C1415 1.400 . S
C1415 C1414 1.400 . S
C1415 C1416 1.398 . S
C1415 C1421 1.491 . S
C1416 H1407 0.950 . S
C1416 C1415 1.398 . S
C1416 C1417 1.391 . S
C1417 H1405 0.950 . S
C1417 C1413 1.393 . S
C1417 C1416 1.391 . S
C1418 H1408 0.950 . S
C1418 C1419 1.386 . S
C1418 C1420 1.391 . S
C1419 C1418 1.386 . S
C1419 C1423 1.393 . S
C1420 H1409 0.950 . S
C1420 C1418 1.391 . S
C1420 C1421 1.400 . S
C1421 C1415 1.491 . S
C1421 C1420 1.400 . S
C1421 C1422 1.398 . S
C1422 H1410 0.950 . S
C1422 C1421 1.398 . S
C1422 C1423 1.391 . S
C1423 H1411 0.950 . S
C1423 C1419 1.393 . S
C1423 C1422 1.391 . S
H1424 C1432 0.950 1_556 S
H1425 C1437 0.950 . S
H1426 C1434 0.950 . S
H1427 C1436 0.950 . S
H1428 C1438 0.950 . S
H1429 C1440 0.950 . S
H1430 C1442 0.950 . S
H1431 C1443 0.950 . S
C1432 H1424 0.950 1_554 S
C1432 C1433 1.386 . S
C1432 C1434 1.391 . S
C1433 C1432 1.386 . S
C1433 C1437 1.393 . S
C1434 H1426 0.950 . S
C1434 C1432 1.391 . S
C1434 C1435 1.400 . S
C1435 C1434 1.400 . S
C1435 C1436 1.398 . S
C1435 C1441 1.491 . S
C1436 H1427 0.950 . S
C1436 C1435 1.398 . S
C1436 C1437 1.391 . S
C1437 H1425 0.950 . S
C1437 C1433 1.393 . S
C1437 C1436 1.391 . S
C1438 H1428 0.950 . S
C1438 C1439 1.386 . S
C1438 C1440 1.391 . S
C1439 C1438 1.386 . S
C1439 C1443 1.393 . S
C1440 H1429 0.950 . S
C1440 C1438 1.391 . S
C1440 C1441 1.400 . S
C1441 C1435 1.491 . S
C1441 C1440 1.400 . S
C1441 C1442 1.398 . S
C1442 H1430 0.950 . S
C1442 C1441 1.398 . S
C1442 C1443 1.391 . S
C1443 H1431 0.950 . S
C1443 C1439 1.393 . S
C1443 C1442 1.391 . S
H1444 C1452 0.950 . S
H1445 C1457 0.950 . S
H1446 C1454 0.950 . S
H1447 C1456 0.950 . S
H1448 C1458 0.950 . S
H1449 C1460 0.950 . S
H1450 C1462 0.950 . S
H1451 C1463 0.950 1_556 S
C1452 H1444 0.950 . S
C1452 C1453 1.386 . S
C1452 C1454 1.391 . S
C1453 C1452 1.386 . S
C1453 C1457 1.393 . S
C1454 H1446 0.950 . S
C1454 C1452 1.391 . S
C1454 C1455 1.400 . S
C1455 C1454 1.400 . S
C1455 C1456 1.398 . S
C1455 C1461 1.491 . S
C1456 H1447 0.950 . S
C1456 C1455 1.398 . S
C1456 C1457 1.391 . S
C1457 H1445 0.950 . S
C1457 C1453 1.393 . S
C1457 C1456 1.391 . S
C1458 H1448 0.950 . S
C1458 C1459 1.386 . S
C1458 C1460 1.391 . S
C1459 C1458 1.386 . S
C1459 C1463 1.393 . S
C1460 H1449 0.950 . S
C1460 C1458 1.391 . S
C1460 C1461 1.400 . S
C1461 C1455 1.491 . S
C1461 C1460 1.400 . S
C1461 C1462 1.398 . S
C1462 H1450 0.950 . S
C1462 C1461 1.398 . S
C1462 C1463 1.391 . S
C1463 H1451 0.950 1_554 S
C1463 C1459 1.393 . S
C1463 C1462 1.391 . S
H1464 C1472 0.950 . S
H1465 C1477 0.950 . S
H1466 C1474 0.950 . S
H1467 C1476 0.950 . S
H1468 C1478 0.950 . S
H1469 C1480 0.950 . S
H1470 C1482 0.950 . S
H1471 C1483 0.950 . S
C1472 H1464 0.950 . S
C1472 C1473 1.386 . S
C1472 C1474 1.391 . S
C1473 C1472 1.386 . S
C1473 C1477 1.393 . S
C1474 H1466 0.950 . S
C1474 C1472 1.391 . S
C1474 C1475 1.400 . S
C1475 C1474 1.400 . S
C1475 C1476 1.398 . S
C1475 C1481 1.491 . S
C1476 H1467 0.950 . S
C1476 C1475 1.398 . S
C1476 C1477 1.391 . S
C1477 H1465 0.950 . S
C1477 C1473 1.393 . S
C1477 C1476 1.391 . S
C1478 H1468 0.950 . S
C1478 C1479 1.386 . S
C1478 C1480 1.391 . S
C1479 C1478 1.386 . S
C1479 C1483 1.393 . S
C1480 H1469 0.950 . S
C1480 C1478 1.391 . S
C1480 C1481 1.400 . S
C1481 C1475 1.491 . S
C1481 C1480 1.400 . S
C1481 C1482 1.398 . S
C1482 H1470 0.950 . S
C1482 C1481 1.398 . S
C1482 C1483 1.391 . S
C1483 H1471 0.950 . S
C1483 C1479 1.393 . S
C1483 C1482 1.391 . S
H1484 C1492 0.950 . S
H1485 C1497 0.950 . S
H1486 C1494 0.950 . S
H1487 C1496 0.950 . S
H1488 C1498 0.950 . S
H1489 C1500 0.950 . S
H1490 C1502 0.950 . S
H1491 C1503 0.950 . S
C1492 H1484 0.950 . S
C1492 C1493 1.386 . S
C1492 C1494 1.391 . S
C1493 C1492 1.386 . S
C1493 C1497 1.393 . S
C1494 H1486 0.950 . S
C1494 C1492 1.391 . S
C1494 C1495 1.400 . S
C1495 C1494 1.400 . S
C1495 C1496 1.398 . S
C1495 C1501 1.491 1_545 S
C1496 H1487 0.950 . S
C1496 C1495 1.398 . S
C1496 C1497 1.391 . S
C1497 H1485 0.950 . S
C1497 C1493 1.393 . S
C1497 C1496 1.391 . S
C1498 H1488 0.950 . S
C1498 C1499 1.386 . S
C1498 C1500 1.391 . S
C1499 C1498 1.386 . S
C1499 C1503 1.393 . S
C1500 H1489 0.950 . S
C1500 C1498 1.391 . S
C1500 C1501 1.400 . S
C1501 C1495 1.491 1_565 S
C1501 C1500 1.400 . S
C1501 C1502 1.398 . S
C1502 H1490 0.950 . S
C1502 C1501 1.398 . S
C1502 C1503 1.391 . S
C1503 H1491 0.950 . S
C1503 C1499 1.393 . S
C1503 C1502 1.391 . S
H1504 C1512 0.950 . S
H1505 C1517 0.950 . S
H1506 C1514 0.950 . S
H1507 C1516 0.950 . S
H1508 C1518 0.950 . S
H1509 C1520 0.950 . S
H1510 C1522 0.950 . S
H1511 C1523 0.950 . S
C1512 H1504 0.950 . S
C1512 C1513 1.386 . S
C1512 C1514 1.391 . S
C1513 C1512 1.386 . S
C1513 C1517 1.393 . S
C1514 H1506 0.950 . S
C1514 C1512 1.391 . S
C1514 C1515 1.400 . S
C1515 C1514 1.400 . S
C1515 C1516 1.398 . S
C1515 C1521 1.491 1_455 S
C1516 H1507 0.950 . S
C1516 C1515 1.398 . S
C1516 C1517 1.391 . S
C1517 H1505 0.950 . S
C1517 C1513 1.393 . S
C1517 C1516 1.391 . S
C1518 H1508 0.950 . S
C1518 C1519 1.386 . S
C1518 C1520 1.391 . S
C1519 C1518 1.386 . S
C1519 C1523 1.393 . S
C1520 H1509 0.950 . S
C1520 C1518 1.391 . S
C1520 C1521 1.400 . S
C1521 C1515 1.491 1_655 S
C1521 C1520 1.400 . S
C1521 C1522 1.398 . S
C1522 H1510 0.950 . S
C1522 C1521 1.398 . S
C1522 C1523 1.391 . S
C1523 H1511 0.950 . S
C1523 C1519 1.393 . S
C1523 C1522 1.391 . S
H1524 C1532 0.950 . S
H1525 C1537 0.950 . S
H1526 C1534 0.950 . S
H1527 C1536 0.950 . S
H1528 C1538 0.950 . S
H1529 C1540 0.950 . S
H1530 C1542 0.950 . S
H1531 C1543 0.950 . S
C1532 H1524 0.950 . S
C1532 C1533 1.386 . S
C1532 C1534 1.391 . S
C1533 C1532 1.386 . S
C1533 C1537 1.393 . S
C1534 H1526 0.950 . S
C1534 C1532 1.391 . S
C1534 C1535 1.400 . S
C1535 C1534 1.400 . S
C1535 C1536 1.398 . S
C1535 C1541 1.491 . S
C1536 H1527 0.950 . S
C1536 C1535 1.398 . S
C1536 C1537 1.391 . S
C1537 H1525 0.950 . S
C1537 C1533 1.393 . S
C1537 C1536 1.391 . S
C1538 H1528 0.950 . S
C1538 C1539 1.386 . S
C1538 C1540 1.391 . S
C1539 C1538 1.386 . S
C1539 C1543 1.393 . S
C1540 H1529 0.950 . S
C1540 C1538 1.391 . S
C1540 C1541 1.400 . S
C1541 C1535 1.491 . S
C1541 C1540 1.400 . S
C1541 C1542 1.398 . S
C1542 H1530 0.950 . S
C1542 C1541 1.398 . S
C1542 C1543 1.391 . S
C1543 H1531 0.950 . S
C1543 C1539 1.393 . S
C1543 C1542 1.391 . S
H1544 C1552 0.950 . S
H1545 C1557 0.950 . S
H1546 C1554 0.950 . S
H1547 C1556 0.950 . S
H1548 C1558 0.950 . S
H1549 C1560 0.950 . S
H1550 C1562 0.950 . S
H1551 C1563 0.950 . S
C1552 H1544 0.950 . S
C1552 C1553 1.386 . S
C1552 C1554 1.391 . S
C1553 C1552 1.386 . S
C1553 C1557 1.393 . S
C1554 H1546 0.950 . S
C1554 C1552 1.391 . S
C1554 C1555 1.400 . S
C1555 C1554 1.400 . S
C1555 C1556 1.398 . S
C1555 C1561 1.491 1_565 S
C1556 H1547 0.950 . S
C1556 C1555 1.398 . S
C1556 C1557 1.391 . S
C1557 H1545 0.950 . S
C1557 C1553 1.393 . S
C1557 C1556 1.391 . S
C1558 H1548 0.950 . S
C1558 C1559 1.386 . S
C1558 C1560 1.391 . S
C1559 C1558 1.386 . S
C1559 C1563 1.393 . S
C1560 H1549 0.950 . S
C1560 C1558 1.391 . S
C1560 C1561 1.400 . S
C1561 C1555 1.491 1_545 S
C1561 C1560 1.400 . S
C1561 C1562 1.398 . S
C1562 H1550 0.950 . S
C1562 C1561 1.398 . S
C1562 C1563 1.391 . S
C1563 H1551 0.950 . S
C1563 C1559 1.393 . S
C1563 C1562 1.391 . S
H1564 C1572 0.950 . S
H1565 C1577 0.950 . S
H1566 C1574 0.950 . S
H1567 C1576 0.950 . S
H1568 C1578 0.950 . S
H1569 C1580 0.950 . S
H1570 C1582 0.950 . S
H1571 C1583 0.950 . S
C1572 H1564 0.950 . S
C1572 C1573 1.386 . S
C1572 C1574 1.391 . S
C1573 C1572 1.386 . S
C1573 C1577 1.393 . S
C1574 H1566 0.950 . S
C1574 C1572 1.391 . S
C1574 C1575 1.400 . S
C1575 C1574 1.400 . S
C1575 C1576 1.398 . S
C1575 C1581 1.491 1_655 S
C1576 H1567 0.950 . S
C1576 C1575 1.398 . S
C1576 C1577 1.391 . S
C1577 H1565 0.950 . S
C1577 C1573 1.393 . S
C1577 C1576 1.391 . S
C1578 H1568 0.950 . S
C1578 C1579 1.386 . S
C1578 C1580 1.391 . S
C1579 C1578 1.386 . S
C1579 C1583 1.393 . S
C1580 H1569 0.950 . S
C1580 C1578 1.391 . S
C1580 C1581 1.400 . S
C1581 C1575 1.491 1_455 S
C1581 C1580 1.400 . S
C1581 C1582 1.398 . S
C1582 H1570 0.950 . S
C1582 C1581 1.398 . S
C1582 C1583 1.391 . S
C1583 H1571 0.950 . S
C1583 C1579 1.393 . S
C1583 C1582 1.391 . S
H1584 C1592 0.950 . S
H1585 C1597 0.950 . S
H1586 C1594 0.950 . S
H1587 C1596 0.950 . S
H1588 C1598 0.950 . S
H1589 C1600 0.950 . S
H1590 C1602 0.950 . S
H1591 C1603 0.950 . S
C1592 H1584 0.950 . S
C1592 C1593 1.386 1_556 S
C1592 C1594 1.391 . S
C1593 C1592 1.386 1_554 S
C1593 C1597 1.393 . S
C1594 H1586 0.950 . S
C1594 C1592 1.391 . S
C1594 C1595 1.400 1_556 S
C1595 C1594 1.400 1_554 S
C1595 C1596 1.398 . S
C1595 C1601 1.491 . S
C1596 H1587 0.950 . S
C1596 C1595 1.398 . S
C1596 C1597 1.391 . S
C1597 H1585 0.950 . S
C1597 C1593 1.393 . S
C1597 C1596 1.391 . S
C1598 H1588 0.950 . S
C1598 C1599 1.386 . S
C1598 C1600 1.391 . S
C1599 C1598 1.386 . S
C1599 C1603 1.393 1_554 S
C1600 H1589 0.950 . S
C1600 C1598 1.391 . S
C1600 C1601 1.400 . S
C1601 C1595 1.491 . S
C1601 C1600 1.400 . S
C1601 C1602 1.398 1_554 S
C1602 H1590 0.950 . S
C1602 C1601 1.398 1_556 S
C1602 C1603 1.391 . S
C1603 H1591 0.950 . S
C1603 C1599 1.393 1_556 S
C1603 C1602 1.391 . S
H1604 C1612 0.950 . S
H1605 C1617 0.950 . S
H1606 C1614 0.950 . S
H1607 C1616 0.950 . S
H1608 C1618 0.950 . S
H1609 C1620 0.950 . S
H1610 C1622 0.950 . S
H1611 C1623 0.950 . S
C1612 H1604 0.950 . S
C1612 C1613 1.386 1_556 S
C1612 C1614 1.391 . S
C1613 C1612 1.386 1_554 S
C1613 C1617 1.393 . S
C1614 H1606 0.950 . S
C1614 C1612 1.391 . S
C1614 C1615 1.400 1_556 S
C1615 C1614 1.400 1_554 S
C1615 C1616 1.398 . S
C1615 C1621 1.491 . S
C1616 H1607 0.950 . S
C1616 C1615 1.398 . S
C1616 C1617 1.391 . S
C1617 H1605 0.950 . S
C1617 C1613 1.393 . S
C1617 C1616 1.391 . S
C1618 H1608 0.950 . S
C1618 C1619 1.386 . S
C1618 C1620 1.391 . S
C1619 C1618 1.386 . S
C1619 C1623 1.393 1_554 S
C1620 H1609 0.950 . S
C1620 C1618 1.391 . S
C1620 C1621 1.400 . S
C1621 C1615 1.491 . S
C1621 C1620 1.400 . S
C1621 C1622 1.398 1_554 S
C1622 H1610 0.950 . S
C1622 C1621 1.398 1_556 S
C1622 C1623 1.391 . S
C1623 H1611 0.950 . S
C1623 C1619 1.393 1_556 S
C1623 C1622 1.391 . S
H1624 C1632 0.950 . S
H1625 C1637 0.950 . S
H1626 C1634 0.950 . S
H1627 C1636 0.950 . S
H1628 C1638 0.950 . S
H1629 C1640 0.950 . S
H1630 C1642 0.950 . S
H1631 C1643 0.950 . S
C1632 H1624 0.950 . S
C1632 C1633 1.386 . S
C1632 C1634 1.391 . S
C1633 C1632 1.386 . S
C1633 C1637 1.393 1_554 S
C1634 H1626 0.950 . S
C1634 C1632 1.391 . S
C1634 C1635 1.400 . S
C1635 C1634 1.400 . S
C1635 C1636 1.398 1_554 S
C1635 C1641 1.491 . S
C1636 H1627 0.950 . S
C1636 C1635 1.398 1_556 S
C1636 C1637 1.391 . S
C1637 H1625 0.950 . S
C1637 C1633 1.393 1_556 S
C1637 C1636 1.391 . S
C1638 H1628 0.950 . S
C1638 C1639 1.386 1_556 S
C1638 C1640 1.391 . S
C1639 C1638 1.386 1_554 S
C1639 C1643 1.393 . S
C1640 H1629 0.950 . S
C1640 C1638 1.391 . S
C1640 C1641 1.400 1_556 S
C1641 C1635 1.491 . S
C1641 C1640 1.400 1_554 S
C1641 C1642 1.398 . S
C1642 H1630 0.950 . S
C1642 C1641 1.398 . S
C1642 C1643 1.391 . S
C1643 H1631 0.950 . S
C1643 C1639 1.393 . S
C1643 C1642 1.391 . S
H1644 C1652 0.950 . S
H1645 C1657 0.950 1_554 S
H1646 C1654 0.950 . S
H1647 C1656 0.950 1_554 S
H1648 C1658 0.950 . S
H1649 C1660 0.950 1_554 S
H1650 C1662 0.950 . S
H1651 C1663 0.950 . S
C1652 H1644 0.950 . S
C1652 C1653 1.386 . S
C1652 C1654 1.391 . S
C1653 C1652 1.386 . S
C1653 C1657 1.393 . S
C1654 H1646 0.950 . S
C1654 C1652 1.391 . S
C1654 C1655 1.400 . S
C1655 C1654 1.400 . S
C1655 C1656 1.398 . S
C1655 C1661 1.491 . S
C1656 H1647 0.950 1_556 S
C1656 C1655 1.398 . S
C1656 C1657 1.391 . S
C1657 H1645 0.950 1_556 S
C1657 C1653 1.393 . S
C1657 C1656 1.391 . S
C1658 H1648 0.950 . S
C1658 C1659 1.386 . S
C1658 C1660 1.391 . S
C1659 C1658 1.386 . S
C1659 C1663 1.393 . S
C1660 H1649 0.950 1_556 S
C1660 C1658 1.391 . S
C1660 C1661 1.400 . S
C1661 C1655 1.491 . S
C1661 C1660 1.400 . S
C1661 C1662 1.398 . S
C1662 H1650 0.950 . S
C1662 C1661 1.398 . S
C1662 C1663 1.391 . S
C1663 H1651 0.950 . S
C1663 C1659 1.393 . S
C1663 C1662 1.391 . S
H1664 C1672 0.950 . S
H1665 C1677 0.950 . S
H1666 C1674 0.950 . S
H1667 C1676 0.950 . S
H1668 C1678 0.950 . S
H1669 C1680 0.950 . S
H1670 C1682 0.950 . S
H1671 C1683 0.950 . S
C1672 H1664 0.950 . S
C1672 C1673 1.386 1_554 S
C1672 C1674 1.391 . S
C1673 C1672 1.386 1_556 S
C1673 C1677 1.393 . S
C1674 H1666 0.950 . S
C1674 C1672 1.391 . S
C1674 C1675 1.400 1_554 S
C1675 C1674 1.400 1_556 S
C1675 C1676 1.398 . S
C1675 C1681 1.491 . S
C1676 H1667 0.950 . S
C1676 C1675 1.398 . S
C1676 C1677 1.391 . S
C1677 H1665 0.950 . S
C1677 C1673 1.393 . S
C1677 C1676 1.391 . S
C1678 H1668 0.950 . S
C1678 C1679 1.386 . S
C1678 C1680 1.391 . S
C1679 C1678 1.386 . S
C1679 C1683 1.393 1_556 S
C1680 H1669 0.950 . S
C1680 C1678 1.391 . S
C1680 C1681 1.400 . S
C1681 C1675 1.491 . S
C1681 C1680 1.400 . S
C1681 C1682 1.398 1_556 S
C1682 H1670 0.950 . S
C1682 C1681 1.398 1_554 S
C1682 C1683 1.391 . S
C1683 H1671 0.950 . S
C1683 C1679 1.393 1_554 S
C1683 C1682 1.391 . S
H1684 C1692 0.950 . S
H1685 C1697 0.950 . S
H1686 C1694 0.950 . S
H1687 C1696 0.950 . S
H1688 C1698 0.950 . S
H1689 C1700 0.950 . S
H1690 C1702 0.950 . S
H1691 C1703 0.950 . S
C1692 H1684 0.950 . S
C1692 C1693 1.386 1_554 S
C1692 C1694 1.391 . S
C1693 C1692 1.386 1_556 S
C1693 C1697 1.393 . S
C1694 H1686 0.950 . S
C1694 C1692 1.391 . S
C1694 C1695 1.400 1_554 S
C1695 C1694 1.400 1_556 S
C1695 C1696 1.398 . S
C1695 C1701 1.491 . S
C1696 H1687 0.950 . S
C1696 C1695 1.398 . S
C1696 C1697 1.391 . S
C1697 H1685 0.950 . S
C1697 C1693 1.393 . S
C1697 C1696 1.391 . S
C1698 H1688 0.950 . S
C1698 C1699 1.386 . S
C1698 C1700 1.391 . S
C1699 C1698 1.386 . S
C1699 C1703 1.393 1_556 S
C1700 H1689 0.950 . S
C1700 C1698 1.391 . S
C1700 C1701 1.400 . S
C1701 C1695 1.491 . S
C1701 C1700 1.400 . S
C1701 C1702 1.398 1_556 S
C1702 H1690 0.950 . S
C1702 C1701 1.398 1_554 S
C1702 C1703 1.391 . S
C1703 H1691 0.950 . S
C1703 C1699 1.393 1_554 S
C1703 C1702 1.391 . S
H1704 C1712 0.950 . S
H1705 C1717 0.950 . S
H1706 C1714 0.950 . S
H1707 C1716 0.950 . S
H1708 C1718 0.950 . S
H1709 C1720 0.950 . S
H1710 C1722 0.950 . S
H1711 C1723 0.950 . S
C1712 H1704 0.950 . S
C1712 C1713 1.386 . S
C1712 C1714 1.391 . S
C1713 C1712 1.386 . S
C1713 C1717 1.393 . S
C1714 H1706 0.950 . S
C1714 C1712 1.391 . S
C1714 C1715 1.400 . S
C1715 C1714 1.400 . S
C1715 C1716 1.398 . S
C1715 C1721 1.491 . S
C1716 H1707 0.950 . S
C1716 C1715 1.398 . S
C1716 C1717 1.391 . S
C1717 H1705 0.950 . S
C1717 C1713 1.393 . S
C1717 C1716 1.391 . S
C1718 H1708 0.950 . S
C1718 C1719 1.386 . S
C1718 C1720 1.391 . S
C1719 C1718 1.386 . S
C1719 C1723 1.393 . S
C1720 H1709 0.950 . S
C1720 C1718 1.391 . S
C1720 C1721 1.400 . S
C1721 C1715 1.491 . S
C1721 C1720 1.400 . S
C1721 C1722 1.398 . S
C1722 H1710 0.950 . S
C1722 C1721 1.398 . S
C1722 C1723 1.391 . S
C1723 H1711 0.950 . S
C1723 C1719 1.393 . S
C1723 C1722 1.391 . S
H1724 C1732 0.950 . S
H1725 C1737 0.950 . S
H1726 C1734 0.950 . S
H1727 C1736 0.950 . S
H1728 C1738 0.950 . S
H1729 C1740 0.950 . S
H1730 C1742 0.950 . S
H1731 C1743 0.950 . S
C1732 H1724 0.950 . S
C1732 C1733 1.386 . S
C1732 C1734 1.391 . S
C1733 C1732 1.386 . S
C1733 C1737 1.393 . S
C1734 H1726 0.950 . S
C1734 C1732 1.391 . S
C1734 C1735 1.400 . S
C1735 C1734 1.400 . S
C1735 C1736 1.398 . S
C1735 C1741 1.491 . S
C1736 H1727 0.950 . S
C1736 C1735 1.398 . S
C1736 C1737 1.391 . S
C1737 H1725 0.950 . S
C1737 C1733 1.393 . S
C1737 C1736 1.391 . S
C1738 H1728 0.950 . S
C1738 C1739 1.386 . S
C1738 C1740 1.391 . S
C1739 C1738 1.386 . S
C1739 C1743 1.393 . S
C1740 H1729 0.950 . S
C1740 C1738 1.391 . S
C1740 C1741 1.400 . S
C1741 C1735 1.491 . S
C1741 C1740 1.400 . S
C1741 C1742 1.398 . S
C1742 H1730 0.950 . S
C1742 C1741 1.398 . S
C1742 C1743 1.391 . S
C1743 H1731 0.950 . S
C1743 C1739 1.393 . S
C1743 C1742 1.391 . S
H1744 C1752 0.950 . S
H1745 C1757 0.950 . S
H1746 C1754 0.950 . S
H1747 C1756 0.950 . S
H1748 C1758 0.950 . S
H1749 C1760 0.950 . S
H1750 C1762 0.950 . S
H1751 C1763 0.950 . S
C1752 H1744 0.950 . S
C1752 C1753 1.386 . S
C1752 C1754 1.391 . S
C1753 C1752 1.386 . S
C1753 C1757 1.393 . S
C1754 H1746 0.950 . S
C1754 C1752 1.391 . S
C1754 C1755 1.400 . S
C1755 C1754 1.400 . S
C1755 C1756 1.398 . S
C1755 C1761 1.491 . S
C1756 H1747 0.950 . S
C1756 C1755 1.398 . S
C1756 C1757 1.391 . S
C1757 H1745 0.950 . S
C1757 C1753 1.393 . S
C1757 C1756 1.391 . S
C1758 H1748 0.950 . S
C1758 C1759 1.386 . S
C1758 C1760 1.391 . S
C1759 C1758 1.386 . S
C1759 C1763 1.393 . S
C1760 H1749 0.950 . S
C1760 C1758 1.391 . S
C1760 C1761 1.400 . S
C1761 C1755 1.491 . S
C1761 C1760 1.400 . S
C1761 C1762 1.398 . S
C1762 H1750 0.950 . S
C1762 C1761 1.398 . S
C1762 C1763 1.391 . S
C1763 H1751 0.950 . S
C1763 C1759 1.393 . S
C1763 C1762 1.391 . S
H1764 C1772 0.950 . S
H1765 C1777 0.950 . S
H1766 C1774 0.950 . S
H1767 C1776 0.950 . S
H1768 C1778 0.950 . S
H1769 C1780 0.950 . S
H1770 C1782 0.950 . S
H1771 C1783 0.950 . S
C1772 H1764 0.950 . S
C1772 C1773 1.386 . S
C1772 C1774 1.391 . S
C1773 C1772 1.386 . S
C1773 C1777 1.393 . S
C1774 H1766 0.950 . S
C1774 C1772 1.391 . S
C1774 C1775 1.400 . S
C1775 C1774 1.400 . S
C1775 C1776 1.398 . S
C1775 C1781 1.491 . S
C1776 H1767 0.950 . S
C1776 C1775 1.398 . S
C1776 C1777 1.391 . S
C1777 H1765 0.950 . S
C1777 C1773 1.393 . S
C1777 C1776 1.391 . S
C1778 H1768 0.950 . S
C1778 C1779 1.386 . S
C1778 C1780 1.391 . S
C1779 C1778 1.386 . S
C1779 C1783 1.393 . S
C1780 H1769 0.950 . S
C1780 C1778 1.391 . S
C1780 C1781 1.400 . S
C1781 C1775 1.491 . S
C1781 C1780 1.400 . S
C1781 C1782 1.398 . S
C1782 H1770 0.950 . S
C1782 C1781 1.398 . S
C1782 C1783 1.391 . S
C1783 H1771 0.950 . S
C1783 C1779 1.393 . S
C1783 C1782 1.391 . S
H1784 C1792 0.950 . S
H1785 C1797 0.950 . S
H1786 C1794 0.950 . S
H1787 C1796 0.950 . S
H1788 C1798 0.950 . S
H1789 C1800 0.950 . S
H1790 C1802 0.950 . S
H1791 C1803 0.950 . S
C1792 H1784 0.950 . S
C1792 C1793 1.386 . S
C1792 C1794 1.391 . S
C1793 C1792 1.386 . S
C1793 C1797 1.393 . S
C1794 H1786 0.950 . S
C1794 C1792 1.391 . S
C1794 C1795 1.400 . S
C1795 C1794 1.400 . S
C1795 C1796 1.398 . S
C1795 C1801 1.491 . S
C1796 H1787 0.950 . S
C1796 C1795 1.398 . S
C1796 C1797 1.391 . S
C1797 H1785 0.950 . S
C1797 C1793 1.393 . S
C1797 C1796 1.391 . S
C1798 H1788 0.950 . S
C1798 C1799 1.386 . S
C1798 C1800 1.391 . S
C1799 C1798 1.386 . S
C1799 C1803 1.393 . S
C1800 H1789 0.950 . S
C1800 C1798 1.391 . S
C1800 C1801 1.400 . S
C1801 C1795 1.491 . S
C1801 C1800 1.400 . S
C1801 C1802 1.398 . S
C1802 H1790 0.950 . S
C1802 C1801 1.398 . S
C1802 C1803 1.391 . S
C1803 H1791 0.950 . S
C1803 C1799 1.393 . S
C1803 C1802 1.391 . S
H1804 C1812 0.950 . S
H1805 C1817 0.950 . S
H1806 C1814 0.950 . S
H1807 C1816 0.950 . S
H1808 C1818 0.950 . S
H1809 C1820 0.950 . S
H1810 C1822 0.950 . S
H1811 C1823 0.950 . S
C1812 H1804 0.950 . S
C1812 C1813 1.386 . S
C1812 C1814 1.391 . S
C1813 C1812 1.386 . S
C1813 C1817 1.393 . S
C1814 H1806 0.950 . S
C1814 C1812 1.391 . S
C1814 C1815 1.400 . S
C1815 C1814 1.400 . S
C1815 C1816 1.398 . S
C1815 C1821 1.491 . S
C1816 H1807 0.950 . S
C1816 C1815 1.398 . S
C1816 C1817 1.391 . S
C1817 H1805 0.950 . S
C1817 C1813 1.393 . S
C1817 C1816 1.391 . S
C1818 H1808 0.950 . S
C1818 C1819 1.386 . S
C1818 C1820 1.391 . S
C1819 C1818 1.386 . S
C1819 C1823 1.393 . S
C1820 H1809 0.950 . S
C1820 C1818 1.391 . S
C1820 C1821 1.400 . S
C1821 C1815 1.491 . S
C1821 C1820 1.400 . S
C1821 C1822 1.398 . S
C1822 H1810 0.950 . S
C1822 C1821 1.398 . S
C1822 C1823 1.391 . S
C1823 H1811 0.950 . S
C1823 C1819 1.393 . S
C1823 C1822 1.391 . S
H1824 C1832 0.950 . S
H1825 C1837 0.950 . S
H1826 C1834 0.950 . S
H1827 C1836 0.950 . S
H1828 C1838 0.950 . S
H1829 C1840 0.950 . S
H1830 C1842 0.950 . S
H1831 C1843 0.950 . S
C1832 H1824 0.950 . S
C1832 C1833 1.386 . S
C1832 C1834 1.391 . S
C1833 C1832 1.386 . S
C1833 C1837 1.393 . S
C1834 H1826 0.950 . S
C1834 C1832 1.391 . S
C1834 C1835 1.400 . S
C1835 C1834 1.400 . S
C1835 C1836 1.398 . S
C1835 C1841 1.491 . S
C1836 H1827 0.950 . S
C1836 C1835 1.398 . S
C1836 C1837 1.391 . S
C1837 H1825 0.950 . S
C1837 C1833 1.393 . S
C1837 C1836 1.391 . S
C1838 H1828 0.950 . S
C1838 C1839 1.386 . S
C1838 C1840 1.391 . S
C1839 C1838 1.386 . S
C1839 C1843 1.393 . S
C1840 H1829 0.950 . S
C1840 C1838 1.391 . S
C1840 C1841 1.400 . S
C1841 C1835 1.491 . S
C1841 C1840 1.400 . S
C1841 C1842 1.398 . S
C1842 H1830 0.950 . S
C1842 C1841 1.398 . S
C1842 C1843 1.391 . S
C1843 H1831 0.950 . S
C1843 C1839 1.393 . S
C1843 C1842 1.391 . S
H1844 C1852 0.950 . S
H1845 C1857 0.950 . S
H1846 C1854 0.950 . S
H1847 C1856 0.950 . S
H1848 C1858 0.950 . S
H1849 C1860 0.950 . S
H1850 C1862 0.950 . S
H1851 C1863 0.950 . S
C1852 H1844 0.950 . S
C1852 C1853 1.386 . S
C1852 C1854 1.391 . S
C1853 C1852 1.386 . S
C1853 C1857 1.393 . S
C1854 H1846 0.950 . S
C1854 C1852 1.391 . S
C1854 C1855 1.400 . S
C1855 C1854 1.400 . S
C1855 C1856 1.398 . S
C1855 C1861 1.491 . S
C1856 H1847 0.950 . S
C1856 C1855 1.398 . S
C1856 C1857 1.391 . S
C1857 H1845 0.950 . S
C1857 C1853 1.393 . S
C1857 C1856 1.391 . S
C1858 H1848 0.950 . S
C1858 C1859 1.386 . S
C1858 C1860 1.391 . S
C1859 C1858 1.386 . S
C1859 C1863 1.393 . S
C1860 H1849 0.950 . S
C1860 C1858 1.391 . S
C1860 C1861 1.400 . S
C1861 C1855 1.491 . S
C1861 C1860 1.400 . S
C1861 C1862 1.398 . S
C1862 H1850 0.950 . S
C1862 C1861 1.398 . S
C1862 C1863 1.391 . S
C1863 H1851 0.950 . S
C1863 C1859 1.393 . S
C1863 C1862 1.391 . S
H1864 C1872 0.950 . S
H1865 C1877 0.950 . S
H1866 C1874 0.950 . S
H1867 C1876 0.950 . S
H1868 C1878 0.950 . S
H1869 C1880 0.950 . S
H1870 C1882 0.950 . S
H1871 C1883 0.950 . S
C1872 H1864 0.950 . S
C1872 C1873 1.386 . S
C1872 C1874 1.391 . S
C1873 C1872 1.386 . S
C1873 C1877 1.393 . S
C1874 H1866 0.950 . S
C1874 C1872 1.391 . S
C1874 C1875 1.400 . S
C1875 C1874 1.400 . S
C1875 C1876 1.398 . S
C1875 C1881 1.491 . S
C1876 H1867 0.950 . S
C1876 C1875 1.398 . S
C1876 C1877 1.391 . S
C1877 H1865 0.950 . S
C1877 C1873 1.393 . S
C1877 C1876 1.391 . S
C1878 H1868 0.950 . S
C1878 C1879 1.386 . S
C1878 C1880 1.391 . S
C1879 C1878 1.386 . S
C1879 C1883 1.393 . S
C1880 H1869 0.950 . S
C1880 C1878 1.391 . S
C1880 C1881 1.400 . S
C1881 C1875 1.491 . S
C1881 C1880 1.400 . S
C1881 C1882 1.398 . S
C1882 H1870 0.950 . S
C1882 C1881 1.398 . S
C1882 C1883 1.391 . S
C1883 H1871 0.950 . S
C1883 C1879 1.393 . S
C1883 C1882 1.391 . S
H1884 C1892 0.950 . S
H1885 C1897 0.950 . S
H1886 C1894 0.950 . S
H1887 C1896 0.950 . S
H1888 C1898 0.950 . S
H1889 C1900 0.950 . S
H1890 C1902 0.950 . S
H1891 C1903 0.950 . S
C1892 H1884 0.950 . S
C1892 C1893 1.386 . S
C1892 C1894 1.391 . S
C1893 C1892 1.386 . S
C1893 C1897 1.393 . S
C1894 H1886 0.950 . S
C1894 C1892 1.391 . S
C1894 C1895 1.400 . S
C1895 C1894 1.400 . S
C1895 C1896 1.398 . S
C1895 C1901 1.491 . S
C1896 H1887 0.950 . S
C1896 C1895 1.398 . S
C1896 C1897 1.391 . S
C1897 H1885 0.950 . S
C1897 C1893 1.393 . S
C1897 C1896 1.391 . S
C1898 H1888 0.950 . S
C1898 C1899 1.386 . S
C1898 C1900 1.391 . S
C1899 C1898 1.386 . S
C1899 C1903 1.393 . S
C1900 H1889 0.950 . S
C1900 C1898 1.391 . S
C1900 C1901 1.400 . S
C1901 C1895 1.491 . S
C1901 C1900 1.400 . S
C1901 C1902 1.398 . S
C1902 H1890 0.950 . S
C1902 C1901 1.398 . S
C1902 C1903 1.391 . S
C1903 H1891 0.950 . S
C1903 C1899 1.393 . S
C1903 C1902 1.391 . S
H1904 C1912 0.950 . S
H1905 C1917 0.950 . S
H1906 C1914 0.950 . S
H1907 C1916 0.950 . S
H1908 C1918 0.950 . S
H1909 C1920 0.950 . S
H1910 C1922 0.950 . S
H1911 C1923 0.950 . S
C1912 H1904 0.950 . S
C1912 C1913 1.386 . S
C1912 C1914 1.391 . S
C1913 C1912 1.386 . S
C1913 C1917 1.393 . S
C1914 H1906 0.950 . S
C1914 C1912 1.391 . S
C1914 C1915 1.400 . S
C1915 C1914 1.400 . S
C1915 C1916 1.398 . S
C1915 C1921 1.491 . S
C1916 H1907 0.950 . S
C1916 C1915 1.398 . S
C1916 C1917 1.391 . S
C1917 H1905 0.950 . S
C1917 C1913 1.393 . S
C1917 C1916 1.391 . S
C1918 H1908 0.950 . S
C1918 C1919 1.386 . S
C1918 C1920 1.391 . S
C1919 C1918 1.386 . S
C1919 C1923 1.393 . S
C1920 H1909 0.950 . S
C1920 C1918 1.391 . S
C1920 C1921 1.400 . S
C1921 C1915 1.491 . S
C1921 C1920 1.400 . S
C1921 C1922 1.398 . S
C1922 H1910 0.950 . S
C1922 C1921 1.398 . S
C1922 C1923 1.391 . S
C1923 H1911 0.950 . S
C1923 C1919 1.393 . S
C1923 C1922 1.391 . S
H1924 C1932 0.950 . S
H1925 C1937 0.950 . S
H1926 C1934 0.950 . S
H1927 C1936 0.950 . S
H1928 C1938 0.950 . S
H1929 C1940 0.950 . S
H1930 C1942 0.950 . S
H1931 C1943 0.950 . S
C1932 H1924 0.950 . S
C1932 C1933 1.386 . S
C1932 C1934 1.391 . S
C1933 C1932 1.386 . S
C1933 C1937 1.393 . S
C1934 H1926 0.950 . S
C1934 C1932 1.391 . S
C1934 C1935 1.400 . S
C1935 C1934 1.400 . S
C1935 C1936 1.398 . S
C1935 C1941 1.491 . S
C1936 H1927 0.950 . S
C1936 C1935 1.398 . S
C1936 C1937 1.391 . S
C1937 H1925 0.950 . S
C1937 C1933 1.393 . S
C1937 C1936 1.391 . S
C1938 H1928 0.950 . S
C1938 C1939 1.386 . S
C1938 C1940 1.391 . S
C1939 C1938 1.386 . S
C1939 C1943 1.393 . S
C1940 H1929 0.950 . S
C1940 C1938 1.391 . S
C1940 C1941 1.400 . S
C1941 C1935 1.491 . S
C1941 C1940 1.400 . S
C1941 C1942 1.398 . S
C1942 H1930 0.950 . S
C1942 C1941 1.398 . S
C1942 C1943 1.391 . S
C1943 H1931 0.950 . S
C1943 C1939 1.393 . S
C1943 C1942 1.391 . S
H1944 C1952 0.950 . S
H1945 C1957 0.950 . S
H1946 C1954 0.950 . S
H1947 C1956 0.950 . S
H1948 C1958 0.950 1_554 S
H1949 C1960 0.950 . S
H1950 C1962 0.950 . S
H1951 C1963 0.950 . S
C1952 H1944 0.950 . S
C1952 C1953 1.386 . S
C1952 C1954 1.391 . S
C1953 C1952 1.386 . S
C1953 C1957 1.393 . S
C1954 H1946 0.950 . S
C1954 C1952 1.391 . S
C1954 C1955 1.400 . S
C1955 C1954 1.400 . S
C1955 C1956 1.398 . S
C1955 C1961 1.491 . S
C1956 H1947 0.950 . S
C1956 C1955 1.398 . S
C1956 C1957 1.391 . S
C1957 H1945 0.950 . S
C1957 C1953 1.393 . S
C1957 C1956 1.391 . S
C1958 H1948 0.950 1_556 S
C1958 C1959 1.386 . S
C1958 C1960 1.391 . S
C1959 C1958 1.386 . S
C1959 C1963 1.393 . S
C1960 H1949 0.950 . S
C1960 C1958 1.391 . S
C1960 C1961 1.400 . S
C1961 C1955 1.491 . S
C1961 C1960 1.400 . S
C1961 C1962 1.398 . S
C1962 H1950 0.950 . S
C1962 C1961 1.398 . S
C1962 C1963 1.391 . S
C1963 H1951 0.950 . S
C1963 C1959 1.393 . S
C1963 C1962 1.391 . S
H1964 C1972 0.950 1_554 S
H1965 C1977 0.950 . S
H1966 C1974 0.950 . S
H1967 C1976 0.950 . S
H1968 C1978 0.950 . S
H1969 C1980 0.950 . S
H1970 C1982 0.950 . S
H1971 C1983 0.950 . S
C1972 H1964 0.950 1_556 S
C1972 C1973 1.386 . S
C1972 C1974 1.391 . S
C1973 C1972 1.386 . S
C1973 C1977 1.393 . S
C1974 H1966 0.950 . S
C1974 C1972 1.391 . S
C1974 C1975 1.400 . S
C1975 C1974 1.400 . S
C1975 C1976 1.398 . S
C1975 C1981 1.491 . S
C1976 H1967 0.950 . S
C1976 C1975 1.398 . S
C1976 C1977 1.391 . S
C1977 H1965 0.950 . S
C1977 C1973 1.393 . S
C1977 C1976 1.391 . S
C1978 H1968 0.950 . S
C1978 C1979 1.386 . S
C1978 C1980 1.391 . S
C1979 C1978 1.386 . S
C1979 C1983 1.393 . S
C1980 H1969 0.950 . S
C1980 C1978 1.391 . S
C1980 C1981 1.400 . S
C1981 C1975 1.491 . S
C1981 C1980 1.400 . S
C1981 C1982 1.398 . S
C1982 H1970 0.950 . S
C1982 C1981 1.398 . S
C1982 C1983 1.391 . S
C1983 H1971 0.950 . S
C1983 C1979 1.393 . S
C1983 C1982 1.391 . S
H1984 C1992 0.950 . S
H1985 C1997 0.950 . S
H1986 C1994 0.950 . S
H1987 C1996 0.950 . S
H1988 C1998 0.950 . S
H1989 C2000 0.950 . S
H1990 C2002 0.950 . S
H1991 C2003 0.950 . S
C1992 H1984 0.950 . S
C1992 C1993 1.386 . S
C1992 C1994 1.391 . S
C1993 C1992 1.386 . S
C1993 C1997 1.393 . S
C1994 H1986 0.950 . S
C1994 C1992 1.391 . S
C1994 C1995 1.400 . S
C1995 C1994 1.400 . S
C1995 C1996 1.398 . S
C1995 C2001 1.491 . S
C1996 H1987 0.950 . S
C1996 C1995 1.398 . S
C1996 C1997 1.391 . S
C1997 H1985 0.950 . S
C1997 C1993 1.393 . S
C1997 C1996 1.391 . S
C1998 H1988 0.950 . S
C1998 C1999 1.386 . S
C1998 C2000 1.391 . S
C1999 C1998 1.386 . S
C1999 C2003 1.393 . S
C2000 H1989 0.950 . S
C2000 C1998 1.391 . S
C2000 C2001 1.400 . S
C2001 C1995 1.491 . S
C2001 C2000 1.400 . S
C2001 C2002 1.398 . S
C2002 H1990 0.950 . S
C2002 C2001 1.398 . S
C2002 C2003 1.391 . S
C2003 H1991 0.950 . S
C2003 C1999 1.393 . S
C2003 C2002 1.391 . S
H2004 C2012 0.950 . S
H2005 C2017 0.950 . S
H2006 C2014 0.950 . S
H2007 C2016 0.950 . S
H2008 C2018 0.950 . S
H2009 C2020 0.950 . S
H2010 C2022 0.950 . S
H2011 C2023 0.950 1_556 S
C2012 H2004 0.950 . S
C2012 C2013 1.386 . S
C2012 C2014 1.391 . S
C2013 C2012 1.386 . S
C2013 C2017 1.393 . S
C2014 H2006 0.950 . S
C2014 C2012 1.391 . S
C2014 C2015 1.400 . S
C2015 C2014 1.400 . S
C2015 C2016 1.398 . S
C2015 C2021 1.491 . S
C2016 H2007 0.950 . S
C2016 C2015 1.398 . S
C2016 C2017 1.391 . S
C2017 H2005 0.950 . S
C2017 C2013 1.393 . S
C2017 C2016 1.391 . S
C2018 H2008 0.950 . S
C2018 C2019 1.386 . S
C2018 C2020 1.391 . S
C2019 C2018 1.386 . S
C2019 C2023 1.393 . S
C2020 H2009 0.950 . S
C2020 C2018 1.391 . S
C2020 C2021 1.400 . S
C2021 C2015 1.491 . S
C2021 C2020 1.400 . S
C2021 C2022 1.398 . S
C2022 H2010 0.950 . S
C2022 C2021 1.398 . S
C2022 C2023 1.391 . S
C2023 H2011 0.950 1_554 S
C2023 C2019 1.393 . S
C2023 C2022 1.391 . S
H2024 C2032 0.950 . S
H2025 C2037 0.950 . S
H2026 C2034 0.950 . S
H2027 C2036 0.950 . S
H2028 C2038 0.950 . S
H2029 C2040 0.950 . S
H2030 C2042 0.950 . S
H2031 C2043 0.950 . S
C2032 H2024 0.950 . S
C2032 C2033 1.386 . S
C2032 C2034 1.391 . S
C2033 C2032 1.386 . S
C2033 C2037 1.393 . S
C2034 H2026 0.950 . S
C2034 C2032 1.391 . S
C2034 C2035 1.400 . S
C2035 C2034 1.400 . S
C2035 C2036 1.398 . S
C2035 C2041 1.491 . S
C2036 H2027 0.950 . S
C2036 C2035 1.398 . S
C2036 C2037 1.391 . S
C2037 H2025 0.950 . S
C2037 C2033 1.393 . S
C2037 C2036 1.391 . S
C2038 H2028 0.950 . S
C2038 C2039 1.386 . S
C2038 C2040 1.391 . S
C2039 C2038 1.386 . S
C2039 C2043 1.393 . S
C2040 H2029 0.950 . S
C2040 C2038 1.391 . S
C2040 C2041 1.400 . S
C2041 C2035 1.491 . S
C2041 C2040 1.400 . S
C2041 C2042 1.398 . S
C2042 H2030 0.950 . S
C2042 C2041 1.398 . S
C2042 C2043 1.391 . S
C2043 H2031 0.950 . S
C2043 C2039 1.393 . S
C2043 C2042 1.391 . S
H2044 C2052 0.950 1_556 S
H2045 C2057 0.950 . S
H2046 C2054 0.950 . S
H2047 C2056 0.950 . S
H2048 C2058 0.950 . S
H2049 C2060 0.950 . S
H2050 C2062 0.950 . S
H2051 C2063 0.950 . S
C2052 H2044 0.950 1_554 S
C2052 C2053 1.386 . S
C2052 C2054 1.391 . S
C2053 C2052 1.386 . S
C2053 C2057 1.393 . S
C2054 H2046 0.950 . S
C2054 C2052 1.391 . S
C2054 C2055 1.400 . S
C2055 C2054 1.400 . S
C2055 C2056 1.398 . S
C2055 C2061 1.491 . S
C2056 H2047 0.950 . S
C2056 C2055 1.398 . S
C2056 C2057 1.391 . S
C2057 H2045 0.950 . S
C2057 C2053 1.393 . S
C2057 C2056 1.391 . S
C2058 H2048 0.950 . S
C2058 C2059 1.386 . S
C2058 C2060 1.391 . S
C2059 C2058 1.386 . S
C2059 C2063 1.393 . S
C2060 H2049 0.950 . S
C2060 C2058 1.391 . S
C2060 C2061 1.400 . S
C2061 C2055 1.491 . S
C2061 C2060 1.400 . S
C2061 C2062 1.398 . S
C2062 H2050 0.950 . S
C2062 C2061 1.398 . S
C2062 C2063 1.391 . S
C2063 H2051 0.950 . S
C2063 C2059 1.393 . S
C2063 C2062 1.391 . S
H2064 C2072 0.950 . S
H2065 C2077 0.950 . S
H2066 C2074 0.950 . S
H2067 C2076 0.950 . S
H2068 C2078 0.950 . S
H2069 C2080 0.950 . S
H2070 C2082 0.950 . S
H2071 C2083 0.950 . S
C2072 H2064 0.950 . S
C2072 C2073 1.386 . S
C2072 C2074 1.391 . S
C2073 C2072 1.386 . S
C2073 C2077 1.393 . S
C2074 H2066 0.950 . S
C2074 C2072 1.391 . S
C2074 C2075 1.400 . S
C2075 C2074 1.400 . S
C2075 C2076 1.398 . S
C2075 C2081 1.491 . S
C2076 H2067 0.950 . S
C2076 C2075 1.398 . S
C2076 C2077 1.391 . S
C2077 H2065 0.950 . S
C2077 C2073 1.393 . S
C2077 C2076 1.391 . S
C2078 H2068 0.950 . S
C2078 C2079 1.386 . S
C2078 C2080 1.391 . S
C2079 C2078 1.386 . S
C2079 C2083 1.393 . S
C2080 H2069 0.950 . S
C2080 C2078 1.391 . S
C2080 C2081 1.400 . S
C2081 C2075 1.491 . S
C2081 C2080 1.400 . S
C2081 C2082 1.398 . S
C2082 H2070 0.950 . S
C2082 C2081 1.398 . S
C2082 C2083 1.391 . S
C2083 H2071 0.950 . S
C2083 C2079 1.393 . S
C2083 C2082 1.391 . S
H2084 C2092 0.950 . S
H2085 C2097 0.950 1_556 S
H2086 C2094 0.950 . S
H2087 C2096 0.950 . S
H2088 C2098 0.950 . S
H2089 C2100 0.950 . S
H2090 C2102 0.950 . S
H2091 C2103 0.950 . S
C2092 H2084 0.950 . S
C2092 C2093 1.386 . S
C2092 C2094 1.391 . S
C2093 C2092 1.386 . S
C2093 C2097 1.393 . S
C2094 H2086 0.950 . S
C2094 C2092 1.391 . S
C2094 C2095 1.400 . S
C2095 C2094 1.400 . S
C2095 C2096 1.398 . S
C2095 C2101 1.491 . S
C2096 H2087 0.950 . S
C2096 C2095 1.398 . S
C2096 C2097 1.391 . S
C2097 H2085 0.950 1_554 S
C2097 C2093 1.393 . S
C2097 C2096 1.391 . S
C2098 H2088 0.950 . S
C2098 C2099 1.386 . S
C2098 C2100 1.391 . S
C2099 C2098 1.386 . S
C2099 C2103 1.393 . S
C2100 H2089 0.950 . S
C2100 C2098 1.391 . S
C2100 C2101 1.400 . S
C2101 C2095 1.491 . S
C2101 C2100 1.400 . S
C2101 C2102 1.398 . S
C2102 H2090 0.950 . S
C2102 C2101 1.398 . S
C2102 C2103 1.391 . S
C2103 H2091 0.950 . S
C2103 C2099 1.393 . S
C2103 C2102 1.391 . S
H2104 C2112 0.950 . S
H2105 C2117 0.950 . S
H2106 C2114 0.950 . S
H2107 C2116 0.950 . S
H2108 C2118 0.950 . S
H2109 C2120 0.950 . S
H2110 C2122 0.950 . S
H2111 C2123 0.950 1_556 S
C2112 H2104 0.950 . S
C2112 C2113 1.386 . S
C2112 C2114 1.391 . S
C2113 C2112 1.386 . S
C2113 C2117 1.393 . S
C2114 H2106 0.950 . S
C2114 C2112 1.391 . S
C2114 C2115 1.400 . S
C2115 C2114 1.400 . S
C2115 C2116 1.398 . S
C2115 C2121 1.491 . S
C2116 H2107 0.950 . S
C2116 C2115 1.398 . S
C2116 C2117 1.391 . S
C2117 H2105 0.950 . S
C2117 C2113 1.393 . S
C2117 C2116 1.391 . S
C2118 H2108 0.950 . S
C2118 C2119 1.386 . S
C2118 C2120 1.391 . S
C2119 C2118 1.386 . S
C2119 C2123 1.393 . S
C2120 H2109 0.950 . S
C2120 C2118 1.391 . S
C2120 C2121 1.400 . S
C2121 C2115 1.491 . S
C2121 C2120 1.400 . S
C2121 C2122 1.398 . S
C2122 H2110 0.950 . S
C2122 C2121 1.398 . S
C2122 C2123 1.391 . S
C2123 H2111 0.950 1_554 S
C2123 C2119 1.393 . S
C2123 C2122 1.391 . S
H2124 C2132 0.950 . S
H2125 C2137 0.950 . S
H2126 C2134 0.950 . S
H2127 C2136 0.950 . S
H2128 C2138 0.950 . S
H2129 C2140 0.950 . S
H2130 C2142 0.950 . S
H2131 C2143 0.950 1_554 S
C2132 H2124 0.950 . S
C2132 C2133 1.386 . S
C2132 C2134 1.391 . S
C2133 C2132 1.386 . S
C2133 C2137 1.393 . S
C2134 H2126 0.950 . S
C2134 C2132 1.391 . S
C2134 C2135 1.400 . S
C2135 C2134 1.400 . S
C2135 C2136 1.398 . S
C2135 C2141 1.491 . S
C2136 H2127 0.950 . S
C2136 C2135 1.398 . S
C2136 C2137 1.391 . S
C2137 H2125 0.950 . S
C2137 C2133 1.393 . S
C2137 C2136 1.391 . S
C2138 H2128 0.950 . S
C2138 C2139 1.386 . S
C2138 C2140 1.391 . S
C2139 C2138 1.386 . S
C2139 C2143 1.393 . S
C2140 H2129 0.950 . S
C2140 C2138 1.391 . S
C2140 C2141 1.400 . S
C2141 C2135 1.491 . S
C2141 C2140 1.400 . S
C2141 C2142 1.398 . S
C2142 H2130 0.950 . S
C2142 C2141 1.398 . S
C2142 C2143 1.391 . S
C2143 H2131 0.950 1_556 S
C2143 C2139 1.393 . S
C2143 C2142 1.391 . S
H2144 C2152 0.950 . S
H2145 C2157 0.950 . S
H2146 C2154 0.950 . S
H2147 C2156 0.950 . S
H2148 C2158 0.950 . S
H2149 C2160 0.950 . S
H2150 C2162 0.950 . S
H2151 C2163 0.950 . S
C2152 H2144 0.950 . S
C2152 C2153 1.386 . S
C2152 C2154 1.391 . S
C2153 C2152 1.386 . S
C2153 C2157 1.393 . S
C2154 H2146 0.950 . S
C2154 C2152 1.391 . S
C2154 C2155 1.400 . S
C2155 C2154 1.400 . S
C2155 C2156 1.398 . S
C2155 C2161 1.491 . S
C2156 H2147 0.950 . S
C2156 C2155 1.398 . S
C2156 C2157 1.391 . S
C2157 H2145 0.950 . S
C2157 C2153 1.393 . S
C2157 C2156 1.391 . S
C2158 H2148 0.950 . S
C2158 C2159 1.386 . S
C2158 C2160 1.391 . S
C2159 C2158 1.386 . S
C2159 C2163 1.393 . S
C2160 H2149 0.950 . S
C2160 C2158 1.391 . S
C2160 C2161 1.400 . S
C2161 C2155 1.491 . S
C2161 C2160 1.400 . S
C2161 C2162 1.398 . S
C2162 H2150 0.950 . S
C2162 C2161 1.398 . S
C2162 C2163 1.391 . S
C2163 H2151 0.950 . S
C2163 C2159 1.393 . S
C2163 C2162 1.391 . S
H2164 C2172 0.950 . S
H2165 C2177 0.950 . S
H2166 C2174 0.950 . S
H2167 C2176 0.950 . S
H2168 C2178 0.950 1_554 S
H2169 C2180 0.950 . S
H2170 C2182 0.950 . S
H2171 C2183 0.950 . S
C2172 H2164 0.950 . S
C2172 C2173 1.386 . S
C2172 C2174 1.391 . S
C2173 C2172 1.386 . S
C2173 C2177 1.393 . S
C2174 H2166 0.950 . S
C2174 C2172 1.391 . S
C2174 C2175 1.400 . S
C2175 C2174 1.400 . S
C2175 C2176 1.398 . S
C2175 C2181 1.491 . S
C2176 H2167 0.950 . S
C2176 C2175 1.398 . S
C2176 C2177 1.391 . S
C2177 H2165 0.950 . S
C2177 C2173 1.393 . S
C2177 C2176 1.391 . S
C2178 H2168 0.950 1_556 S
C2178 C2179 1.386 . S
C2178 C2180 1.391 . S
C2179 C2178 1.386 . S
C2179 C2183 1.393 . S
C2180 H2169 0.950 . S
C2180 C2178 1.391 . S
C2180 C2181 1.400 . S
C2181 C2175 1.491 . S
C2181 C2180 1.400 . S
C2181 C2182 1.398 . S
C2182 H2170 0.950 . S
C2182 C2181 1.398 . S
C2182 C2183 1.391 . S
C2183 H2171 0.950 . S
C2183 C2179 1.393 . S
C2183 C2182 1.391 . S
H2184 C2192 0.950 . S
H2185 C2197 0.950 . S
H2186 C2194 0.950 1_655 S
H2187 C2196 0.950 . S
H2188 C2198 0.950 . S
H2189 C2200 0.950 1_455 S
H2190 C2202 0.950 . S
H2191 C2203 0.950 . S
C2192 H2184 0.950 . S
C2192 C2193 1.386 . S
C2192 C2194 1.391 . S
C2193 C2192 1.386 . S
C2193 C2197 1.393 . S
C2194 H2186 0.950 1_455 S
C2194 C2192 1.391 . S
C2194 C2195 1.400 . S
C2195 C2194 1.400 . S
C2195 C2196 1.398 . S
C2195 C2201 1.491 1_455 S
C2196 H2187 0.950 . S
C2196 C2195 1.398 . S
C2196 C2197 1.391 . S
C2197 H2185 0.950 . S
C2197 C2193 1.393 . S
C2197 C2196 1.391 . S
C2198 H2188 0.950 . S
C2198 C2199 1.386 . S
C2198 C2200 1.391 . S
C2199 C2198 1.386 . S
C2199 C2203 1.393 . S
C2200 H2189 0.950 1_655 S
C2200 C2198 1.391 . S
C2200 C2201 1.400 . S
C2201 C2195 1.491 1_655 S
C2201 C2200 1.400 . S
C2201 C2202 1.398 . S
C2202 H2190 0.950 . S
C2202 C2201 1.398 . S
C2202 C2203 1.391 . S
C2203 H2191 0.950 . S
C2203 C2199 1.393 . S
C2203 C2202 1.391 . S
H2204 C2212 0.950 . S
H2205 C2217 0.950 . S
H2206 C2214 0.950 . S
H2207 C2216 0.950 . S
H2208 C2218 0.950 . S
H2209 C2220 0.950 . S
H2210 C2222 0.950 . S
H2211 C2223 0.950 . S
C2212 H2204 0.950 . S
C2212 C2213 1.386 . S
C2212 C2214 1.391 . S
C2213 C2212 1.386 . S
C2213 C2217 1.393 . S
C2214 H2206 0.950 . S
C2214 C2212 1.391 . S
C2214 C2215 1.400 . S
C2215 C2214 1.400 . S
C2215 C2216 1.398 . S
C2215 C2221 1.491 . S
C2216 H2207 0.950 . S
C2216 C2215 1.398 . S
C2216 C2217 1.391 . S
C2217 H2205 0.950 . S
C2217 C2213 1.393 . S
C2217 C2216 1.391 . S
C2218 H2208 0.950 . S
C2218 C2219 1.386 . S
C2218 C2220 1.391 . S
C2219 C2218 1.386 . S
C2219 C2223 1.393 . S
C2220 H2209 0.950 . S
C2220 C2218 1.391 . S
C2220 C2221 1.400 . S
C2221 C2215 1.491 . S
C2221 C2220 1.400 . S
C2221 C2222 1.398 . S
C2222 H2210 0.950 . S
C2222 C2221 1.398 . S
C2222 C2223 1.391 . S
C2223 H2211 0.950 . S
C2223 C2219 1.393 . S
C2223 C2222 1.391 . S
H2224 C2232 0.950 . S
H2225 C2237 0.950 . S
H2226 C2234 0.950 . S
H2227 C2236 0.950 . S
H2228 C2238 0.950 . S
H2229 C2240 0.950 . S
H2230 C2242 0.950 . S
H2231 C2243 0.950 . S
C2232 H2224 0.950 . S
C2232 C2233 1.386 . S
C2232 C2234 1.391 . S
C2233 C2232 1.386 . S
C2233 C2237 1.393 . S
C2234 H2226 0.950 . S
C2234 C2232 1.391 . S
C2234 C2235 1.400 . S
C2235 C2234 1.400 . S
C2235 C2236 1.398 . S
C2235 C2241 1.491 1_565 S
C2236 H2227 0.950 . S
C2236 C2235 1.398 . S
C2236 C2237 1.391 . S
C2237 H2225 0.950 . S
C2237 C2233 1.393 . S
C2237 C2236 1.391 . S
C2238 H2228 0.950 . S
C2238 C2239 1.386 . S
C2238 C2240 1.391 . S
C2239 C2238 1.386 . S
C2239 C2243 1.393 . S
C2240 H2229 0.950 . S
C2240 C2238 1.391 . S
C2240 C2241 1.400 . S
C2241 C2235 1.491 1_545 S
C2241 C2240 1.400 . S
C2241 C2242 1.398 . S
C2242 H2230 0.950 . S
C2242 C2241 1.398 . S
C2242 C2243 1.391 . S
C2243 H2231 0.950 . S
C2243 C2239 1.393 . S
C2243 C2242 1.391 . S
H2244 C2252 0.950 . S
H2245 C2257 0.950 . S
H2246 C2254 0.950 . S
H2247 C2256 0.978 . S
H2248 C2258 0.950 . S
H2249 C2260 0.950 . S
H2250 C2262 0.978 . S
H2251 C2263 0.950 . S
C2252 H2244 0.950 . S
C2252 C2253 1.386 . S
C2252 C2254 1.391 . S
C2253 C2252 1.386 . S
C2253 C2257 1.393 . S
C2254 H2246 0.950 . S
C2254 C2252 1.391 . S
C2254 C2255 1.400 . S
C2255 C2254 1.400 . S
C2255 C2256 1.398 . S
C2255 C2261 1.491 1_565 S
C2256 H2247 0.978 . S
C2256 C2255 1.398 . S
C2256 C2257 1.391 . S
C2257 H2245 0.950 . S
C2257 C2253 1.393 . S
C2257 C2256 1.391 . S
C2258 H2248 0.950 . S
C2258 C2259 1.386 . S
C2258 C2260 1.391 . S
C2259 C2258 1.386 . S
C2259 C2263 1.393 . S
C2260 H2249 0.950 . S
C2260 C2258 1.391 . S
C2260 C2261 1.400 . S
C2261 C2255 1.491 1_545 S
C2261 C2260 1.400 . S
C2261 C2262 1.398 . S
C2262 H2250 0.978 . S
C2262 C2261 1.398 . S
C2262 C2263 1.391 . S
C2263 H2251 0.950 . S
C2263 C2259 1.393 . S
C2263 C2262 1.391 . S
H2264 C2272 0.950 . S
H2265 C2277 0.950 . S
H2266 C2274 0.950 1_655 S
H2267 C2276 0.950 . S
H2268 C2278 0.950 . S
H2269 C2280 0.950 1_455 S
H2270 C2282 0.950 . S
H2271 C2283 0.950 . S
C2272 H2264 0.950 . S
C2272 C2273 1.386 . S
C2272 C2274 1.391 . S
C2273 C2272 1.386 . S
C2273 C2277 1.393 . S
C2274 H2266 0.950 1_455 S
C2274 C2272 1.391 . S
C2274 C2275 1.400 . S
C2275 C2274 1.400 . S
C2275 C2276 1.398 . S
C2275 C2281 1.491 1_455 S
C2276 H2267 0.950 . S
C2276 C2275 1.398 . S
C2276 C2277 1.391 . S
C2277 H2265 0.950 . S
C2277 C2273 1.393 . S
C2277 C2276 1.391 . S
C2278 H2268 0.950 . S
C2278 C2279 1.386 . S
C2278 C2280 1.391 . S
C2279 C2278 1.386 . S
C2279 C2283 1.393 . S
C2280 H2269 0.950 1_655 S
C2280 C2278 1.391 . S
C2280 C2281 1.400 . S
C2281 C2275 1.491 1_655 S
C2281 C2280 1.400 . S
C2281 C2282 1.398 . S
C2282 H2270 0.950 . S
C2282 C2281 1.398 . S
C2282 C2283 1.391 . S
C2283 H2271 0.950 . S
C2283 C2279 1.393 . S
C2283 C2282 1.391 . S
H2284 C2292 0.950 . S
H2285 C2297 0.950 . S
H2286 C2294 0.950 . S
H2287 C2296 0.950 . S
H2288 C2298 0.950 . S
H2289 C2300 0.950 . S
H2290 C2302 0.950 . S
H2291 C2303 0.950 . S
C2292 H2284 0.950 . S
C2292 C2293 1.386 . S
C2292 C2294 1.391 . S
C2293 C2292 1.386 . S
C2293 C2297 1.393 . S
C2294 H2286 0.950 . S
C2294 C2292 1.391 . S
C2294 C2295 1.400 . S
C2295 C2294 1.400 . S
C2295 C2296 1.398 . S
C2295 C2301 1.491 . S
C2296 H2287 0.950 . S
C2296 C2295 1.398 . S
C2296 C2297 1.391 . S
C2297 H2285 0.950 . S
C2297 C2293 1.393 . S
C2297 C2296 1.391 . S
C2298 H2288 0.950 . S
C2298 C2299 1.386 . S
C2298 C2300 1.391 . S
C2299 C2298 1.386 . S
C2299 C2303 1.393 . S
C2300 H2289 0.950 . S
C2300 C2298 1.391 . S
C2300 C2301 1.400 . S
C2301 C2295 1.491 . S
C2301 C2300 1.400 . S
C2301 C2302 1.398 . S
C2302 H2290 0.950 . S
C2302 C2301 1.398 . S
C2302 C2303 1.391 . S
C2303 H2291 0.950 . S
C2303 C2299 1.393 . S
C2303 C2302 1.391 . S
H2304 C2312 0.950 . S
H2305 C2317 0.950 . S
H2306 C2314 0.950 . S
H2307 C2316 0.950 . S
H2308 C2318 0.950 . S
H2309 C2320 0.950 . S
H2310 C2322 0.950 . S
H2311 C2323 0.950 . S
C2312 H2304 0.950 . S
C2312 C2313 1.386 . S
C2312 C2314 1.391 . S
C2313 C2312 1.386 . S
C2313 C2317 1.393 . S
C2314 H2306 0.950 . S
C2314 C2312 1.391 . S
C2314 C2315 1.400 . S
C2315 C2314 1.400 . S
C2315 C2316 1.398 . S
C2315 C2321 1.491 . S
C2316 H2307 0.950 . S
C2316 C2315 1.398 . S
C2316 C2317 1.391 . S
C2317 H2305 0.950 . S
C2317 C2313 1.393 . S
C2317 C2316 1.391 . S
C2318 H2308 0.950 . S
C2318 C2319 1.386 . S
C2318 C2320 1.391 . S
C2319 C2318 1.386 . S
C2319 C2323 1.393 . S
C2320 H2309 0.950 . S
C2320 C2318 1.391 . S
C2320 C2321 1.400 . S
C2321 C2315 1.491 . S
C2321 C2320 1.400 . S
C2321 C2322 1.398 . S
C2322 H2310 0.950 . S
C2322 C2321 1.398 . S
C2322 C2323 1.391 . S
C2323 H2311 0.950 . S
C2323 C2319 1.393 . S
C2323 C2322 1.391 . S
H2324 C2332 0.950 . S
H2325 C2337 0.950 . S
H2326 C2334 0.950 . S
H2327 C2336 0.950 . S
H2328 C2338 0.950 . S
H2329 C2340 0.950 . S
H2330 C2342 0.950 . S
H2331 C2343 0.950 . S
C2332 H2324 0.950 . S
C2332 C2333 1.386 . S
C2332 C2334 1.391 . S
C2333 C2332 1.386 . S
C2333 C2337 1.393 . S
C2334 H2326 0.950 . S
C2334 C2332 1.391 . S
C2334 C2335 1.400 . S
C2335 C2334 1.400 . S
C2335 C2336 1.398 . S
C2335 C2341 1.491 . S
C2336 H2327 0.950 . S
C2336 C2335 1.398 . S
C2336 C2337 1.391 . S
C2337 H2325 0.950 . S
C2337 C2333 1.393 . S
C2337 C2336 1.391 . S
C2338 H2328 0.950 . S
C2338 C2339 1.386 . S
C2338 C2340 1.391 . S
C2339 C2338 1.386 . S
C2339 C2343 1.393 . S
C2340 H2329 0.950 . S
C2340 C2338 1.391 . S
C2340 C2341 1.400 . S
C2341 C2335 1.491 . S
C2341 C2340 1.400 . S
C2341 C2342 1.398 . S
C2342 H2330 0.950 . S
C2342 C2341 1.398 . S
C2342 C2343 1.391 . S
C2343 H2331 0.950 . S
C2343 C2339 1.393 . S
C2343 C2342 1.391 . S
H2344 C2352 0.950 . S
H2345 C2357 0.950 . S
H2346 C2354 0.950 . S
H2347 C2356 0.950 . S
H2348 C2358 0.950 . S
H2349 C2360 0.950 . S
H2350 C2362 0.950 . S
H2351 C2363 0.950 . S
C2352 H2344 0.950 . S
C2352 C2353 1.386 . S
C2352 C2354 1.391 . S
C2353 C2352 1.386 . S
C2353 C2357 1.393 . S
C2354 H2346 0.950 . S
C2354 C2352 1.391 . S
C2354 C2355 1.400 . S
C2355 C2354 1.400 . S
C2355 C2356 1.398 . S
C2355 C2361 1.491 . S
C2356 H2347 0.950 . S
C2356 C2355 1.398 . S
C2356 C2357 1.391 . S
C2357 H2345 0.950 . S
C2357 C2353 1.393 . S
C2357 C2356 1.391 . S
C2358 H2348 0.950 . S
C2358 C2359 1.386 . S
C2358 C2360 1.391 . S
C2359 C2358 1.386 . S
C2359 C2363 1.393 . S
C2360 H2349 0.950 . S
C2360 C2358 1.391 . S
C2360 C2361 1.400 . S
C2361 C2355 1.491 . S
C2361 C2360 1.400 . S
C2361 C2362 1.398 . S
C2362 H2350 0.950 . S
C2362 C2361 1.398 . S
C2362 C2363 1.391 . S
C2363 H2351 0.950 . S
C2363 C2359 1.393 . S
C2363 C2362 1.391 . S
H2364 C2372 0.950 . S
H2365 C2377 0.950 . S
H2366 C2374 0.950 . S
H2367 C2376 0.950 . S
H2368 C2378 0.950 . S
H2369 C2380 0.950 . S
H2370 C2382 0.950 . S
H2371 C2383 0.950 . S
C2372 H2364 0.950 . S
C2372 C2373 1.386 . S
C2372 C2374 1.391 . S
C2373 C2372 1.386 . S
C2373 C2377 1.393 . S
C2374 H2366 0.950 . S
C2374 C2372 1.391 . S
C2374 C2375 1.400 . S
C2375 C2374 1.400 . S
C2375 C2376 1.398 . S
C2375 C2381 1.491 . S
C2376 H2367 0.950 . S
C2376 C2375 1.398 . S
C2376 C2377 1.391 . S
C2377 H2365 0.950 . S
C2377 C2373 1.393 . S
C2377 C2376 1.391 . S
C2378 H2368 0.950 . S
C2378 C2379 1.386 . S
C2378 C2380 1.391 . S
C2379 C2378 1.386 . S
C2379 C2383 1.393 . S
C2380 H2369 0.950 . S
C2380 C2378 1.391 . S
C2380 C2381 1.400 . S
C2381 C2375 1.491 . S
C2381 C2380 1.400 . S
C2381 C2382 1.398 . S
C2382 H2370 0.950 . S
C2382 C2381 1.398 . S
C2382 C2383 1.391 . S
C2383 H2371 0.950 . S
C2383 C2379 1.393 . S
C2383 C2382 1.391 . S
H2384 C2392 0.950 . S
H2385 C2397 0.950 . S
H2386 C2394 0.950 . S
H2387 C2396 0.950 . S
H2388 C2398 0.950 . S
H2389 C2400 0.950 . S
H2390 C2402 0.950 . S
H2391 C2403 0.950 . S
C2392 H2384 0.950 . S
C2392 C2393 1.386 . S
C2392 C2394 1.391 . S
C2393 C2392 1.386 . S
C2393 C2397 1.393 . S
C2394 H2386 0.950 . S
C2394 C2392 1.391 . S
C2394 C2395 1.400 . S
C2395 C2394 1.400 . S
C2395 C2396 1.398 . S
C2395 C2401 1.491 . S
C2396 H2387 0.950 . S
C2396 C2395 1.398 . S
C2396 C2397 1.391 . S
C2397 H2385 0.950 . S
C2397 C2393 1.393 . S
C2397 C2396 1.391 . S
C2398 H2388 0.950 . S
C2398 C2399 1.386 . S
C2398 C2400 1.391 . S
C2399 C2398 1.386 . S
C2399 C2403 1.393 . S
C2400 H2389 0.950 . S
C2400 C2398 1.391 . S
C2400 C2401 1.400 . S
C2401 C2395 1.491 . S
C2401 C2400 1.400 . S
C2401 C2402 1.398 . S
C2402 H2390 0.950 . S
C2402 C2401 1.398 . S
C2402 C2403 1.391 . S
C2403 H2391 0.950 . S
C2403 C2399 1.393 . S
C2403 C2402 1.391 . S
H2404 C2412 0.950 . S
H2405 C2417 0.950 . S
H2406 C2414 0.950 . S
H2407 C2416 0.950 . S
H2408 C2418 0.950 . S
H2409 C2420 0.950 . S
H2410 C2422 0.950 . S
H2411 C2423 0.950 . S
C2412 H2404 0.950 . S
C2412 C2413 1.386 . S
C2412 C2414 1.391 . S
C2413 C2412 1.386 . S
C2413 C2417 1.393 . S
C2414 H2406 0.950 . S
C2414 C2412 1.391 . S
C2414 C2415 1.400 . S
C2415 C2414 1.400 . S
C2415 C2416 1.398 . S
C2415 C2421 1.491 . S
C2416 H2407 0.950 . S
C2416 C2415 1.398 . S
C2416 C2417 1.391 . S
C2417 H2405 0.950 . S
C2417 C2413 1.393 . S
C2417 C2416 1.391 . S
C2418 H2408 0.950 . S
C2418 C2419 1.386 . S
C2418 C2420 1.391 . S
C2419 C2418 1.386 . S
C2419 C2423 1.393 . S
C2420 H2409 0.950 . S
C2420 C2418 1.391 . S
C2420 C2421 1.400 . S
C2421 C2415 1.491 . S
C2421 C2420 1.400 . S
C2421 C2422 1.398 . S
C2422 H2410 0.950 . S
C2422 C2421 1.398 . S
C2422 C2423 1.391 . S
C2423 H2411 0.950 . S
C2423 C2419 1.393 . S
C2423 C2422 1.391 . S
H2424 C2432 0.950 . S
H2425 C2437 0.950 . S
H2426 C2434 0.950 . S
H2427 C2436 0.950 . S
H2428 C2438 0.950 . S
H2429 C2440 0.950 . S
H2430 C2442 0.950 . S
H2431 C2443 0.950 . S
C2432 H2424 0.950 . S
C2432 C2433 1.386 . S
C2432 C2434 1.391 . S
C2433 C2432 1.386 . S
C2433 C2437 1.393 . S
C2434 H2426 0.950 . S
C2434 C2432 1.391 . S
C2434 C2435 1.400 . S
C2435 C2434 1.400 . S
C2435 C2436 1.398 . S
C2435 C2441 1.491 . S
C2436 H2427 0.950 . S
C2436 C2435 1.398 . S
C2436 C2437 1.391 . S
C2437 H2425 0.950 . S
C2437 C2433 1.393 . S
C2437 C2436 1.391 . S
C2438 H2428 0.950 . S
C2438 C2439 1.386 . S
C2438 C2440 1.391 . S
C2439 C2438 1.386 . S
C2439 C2443 1.393 . S
C2440 H2429 0.950 . S
C2440 C2438 1.391 . S
C2440 C2441 1.400 . S
C2441 C2435 1.491 . S
C2441 C2440 1.400 . S
C2441 C2442 1.398 . S
C2442 H2430 0.950 . S
C2442 C2441 1.398 . S
C2442 C2443 1.391 . S
C2443 H2431 0.950 . S
C2443 C2439 1.393 . S
C2443 C2442 1.391 . S
H2444 C2452 0.950 . S
H2445 C2457 0.950 . S
H2446 C2454 0.950 . S
H2447 C2456 0.950 . S
H2448 C2458 0.950 . S
H2449 C2460 0.950 . S
H2450 C2462 0.950 . S
H2451 C2463 0.950 . S
C2452 H2444 0.950 . S
C2452 C2453 1.386 . S
C2452 C2454 1.391 . S
C2453 C2452 1.386 . S
C2453 C2457 1.393 . S
C2454 H2446 0.950 . S
C2454 C2452 1.391 . S
C2454 C2455 1.400 . S
C2455 C2454 1.400 . S
C2455 C2456 1.398 . S
C2455 C2461 1.491 . S
C2456 H2447 0.950 . S
C2456 C2455 1.398 . S
C2456 C2457 1.391 . S
C2457 H2445 0.950 . S
C2457 C2453 1.393 . S
C2457 C2456 1.391 . S
C2458 H2448 0.950 . S
C2458 C2459 1.386 . S
C2458 C2460 1.391 . S
C2459 C2458 1.386 . S
C2459 C2463 1.393 . S
C2460 H2449 0.950 . S
C2460 C2458 1.391 . S
C2460 C2461 1.400 . S
C2461 C2455 1.491 . S
C2461 C2460 1.400 . S
C2461 C2462 1.398 . S
C2462 H2450 0.950 . S
C2462 C2461 1.398 . S
C2462 C2463 1.391 . S
C2463 H2451 0.950 . S
C2463 C2459 1.393 . S
C2463 C2462 1.391 . S
H2464 C2472 0.950 . S
H2465 C2477 0.950 . S
H2466 C2474 0.950 . S
H2467 C2476 0.950 . S
H2468 C2478 0.950 . S
H2469 C2480 0.950 . S
H2470 C2482 0.950 . S
H2471 C2483 0.950 . S
C2472 H2464 0.950 . S
C2472 C2473 1.386 . S
C2472 C2474 1.391 . S
C2473 C2472 1.386 . S
C2473 C2477 1.393 . S
C2474 H2466 0.950 . S
C2474 C2472 1.391 . S
C2474 C2475 1.400 . S
C2475 C2474 1.400 . S
C2475 C2476 1.398 . S
C2475 C2481 1.491 . S
C2476 H2467 0.950 . S
C2476 C2475 1.398 . S
C2476 C2477 1.391 . S
C2477 H2465 0.950 . S
C2477 C2473 1.393 . S
C2477 C2476 1.391 . S
C2478 H2468 0.950 . S
C2478 C2479 1.386 . S
C2478 C2480 1.391 . S
C2479 C2478 1.386 . S
C2479 C2483 1.393 . S
C2480 H2469 0.950 . S
C2480 C2478 1.391 . S
C2480 C2481 1.400 . S
C2481 C2475 1.491 . S
C2481 C2480 1.400 . S
C2481 C2482 1.398 . S
C2482 H2470 0.950 . S
C2482 C2481 1.398 . S
C2482 C2483 1.391 . S
C2483 H2471 0.950 . S
C2483 C2479 1.393 . S
C2483 C2482 1.391 . S
H2484 C2492 0.950 . S
H2485 C2497 0.950 . S
H2486 C2494 0.950 . S
H2487 C2496 0.950 . S
H2488 C2498 0.950 . S
H2489 C2500 0.950 . S
H2490 C2502 0.950 . S
H2491 C2503 0.950 . S
C2492 H2484 0.950 . S
C2492 C2493 1.386 . S
C2492 C2494 1.391 . S
C2493 C2492 1.386 . S
C2493 C2497 1.393 . S
C2494 H2486 0.950 . S
C2494 C2492 1.391 . S
C2494 C2495 1.400 . S
C2495 C2494 1.400 . S
C2495 C2496 1.398 . S
C2495 C2501 1.491 . S
C2496 H2487 0.950 . S
C2496 C2495 1.398 . S
C2496 C2497 1.391 . S
C2497 H2485 0.950 . S
C2497 C2493 1.393 . S
C2497 C2496 1.391 . S
C2498 H2488 0.950 . S
C2498 C2499 1.386 . S
C2498 C2500 1.391 . S
C2499 C2498 1.386 . S
C2499 C2503 1.393 . S
C2500 H2489 0.950 . S
C2500 C2498 1.391 . S
C2500 C2501 1.400 . S
C2501 C2495 1.491 . S
C2501 C2500 1.400 . S
C2501 C2502 1.398 . S
C2502 H2490 0.950 . S
C2502 C2501 1.398 . S
C2502 C2503 1.391 . S
C2503 H2491 0.950 . S
C2503 C2499 1.393 . S
C2503 C2502 1.391 . S
H2504 C2512 0.950 . S
H2505 C2517 0.950 . S
H2506 C2514 0.950 . S
H2507 C2516 0.950 . S
H2508 C2518 0.950 . S
H2509 C2520 0.950 . S
H2510 C2522 0.950 . S
H2511 C2523 0.950 . S
C2512 H2504 0.950 . S
C2512 C2513 1.386 . S
C2512 C2514 1.391 . S
C2513 C2512 1.386 . S
C2513 C2517 1.393 . S
C2514 H2506 0.950 . S
C2514 C2512 1.391 . S
C2514 C2515 1.400 . S
C2515 C2514 1.400 . S
C2515 C2516 1.398 . S
C2515 C2521 1.491 . S
C2516 H2507 0.950 . S
C2516 C2515 1.398 . S
C2516 C2517 1.391 . S
C2517 H2505 0.950 . S
C2517 C2513 1.393 . S
C2517 C2516 1.391 . S
C2518 H2508 0.950 . S
C2518 C2519 1.386 . S
C2518 C2520 1.391 . S
C2519 C2518 1.386 . S
C2519 C2523 1.393 . S
C2520 H2509 0.950 . S
C2520 C2518 1.391 . S
C2520 C2521 1.400 . S
C2521 C2515 1.491 . S
C2521 C2520 1.400 . S
C2521 C2522 1.398 . S
C2522 H2510 0.950 . S
C2522 C2521 1.398 . S
C2522 C2523 1.391 . S
C2523 H2511 0.950 . S
C2523 C2519 1.393 . S
C2523 C2522 1.391 . S
H2524 C2532 0.950 . S
H2525 C2537 0.950 . S
H2526 C2534 0.950 . S
H2527 C2536 0.950 . S
H2528 C2538 0.950 . S
H2529 C2540 0.950 . S
H2530 C2542 0.950 . S
H2531 C2543 0.950 . S
C2532 H2524 0.950 . S
C2532 C2533 1.386 . S
C2532 C2534 1.391 . S
C2533 C2532 1.386 . S
C2533 C2537 1.393 . S
C2534 H2526 0.950 . S
C2534 C2532 1.391 . S
C2534 C2535 1.400 . S
C2535 C2534 1.400 . S
C2535 C2536 1.398 . S
C2535 C2541 1.491 . S
C2536 H2527 0.950 . S
C2536 C2535 1.398 . S
C2536 C2537 1.391 . S
C2537 H2525 0.950 . S
C2537 C2533 1.393 . S
C2537 C2536 1.391 . S
C2538 H2528 0.950 . S
C2538 C2539 1.386 . S
C2538 C2540 1.391 . S
C2539 C2538 1.386 . S
C2539 C2543 1.393 . S
C2540 H2529 0.950 . S
C2540 C2538 1.391 . S
C2540 C2541 1.400 . S
C2541 C2535 1.491 . S
C2541 C2540 1.400 . S
C2541 C2542 1.398 . S
C2542 H2530 0.950 . S
C2542 C2541 1.398 . S
C2542 C2543 1.391 . S
C2543 H2531 0.950 . S
C2543 C2539 1.393 . S
C2543 C2542 1.391 . S
H2544 C2552 0.950 . S
H2545 C2557 0.950 . S
H2546 C2554 0.950 . S
H2547 C2556 0.950 . S
H2548 C2558 0.950 . S
H2549 C2560 0.950 . S
H2550 C2562 0.950 . S
H2551 C2563 0.950 . S
C2552 H2544 0.950 . S
C2552 C2553 1.386 . S
C2552 C2554 1.391 1_554 S
C2553 C2552 1.386 . S
C2553 C2557 1.393 . S
C2554 H2546 0.950 . S
C2554 C2552 1.391 1_556 S
C2554 C2555 1.400 . S
C2555 C2554 1.400 . S
C2555 C2556 1.398 . S
C2555 C2561 1.491 . S
C2556 H2547 0.950 . S
C2556 C2555 1.398 . S
C2556 C2557 1.391 1_556 S
C2557 H2545 0.950 . S
C2557 C2553 1.393 . S
C2557 C2556 1.391 1_554 S
C2558 H2548 0.950 . S
C2558 C2559 1.386 . S
C2558 C2560 1.391 . S
C2559 C2558 1.386 . S
C2559 C2563 1.393 . S
C2560 H2549 0.950 . S
C2560 C2558 1.391 . S
C2560 C2561 1.400 . S
C2561 C2555 1.491 . S
C2561 C2560 1.400 . S
C2561 C2562 1.398 . S
C2562 H2550 0.950 . S
C2562 C2561 1.398 . S
C2562 C2563 1.391 . S
C2563 H2551 0.950 . S
C2563 C2559 1.393 . S
C2563 C2562 1.391 . S
H2564 C2572 0.950 . S
H2565 C2577 0.950 . S
H2566 C2574 0.950 . S
H2567 C2576 0.950 . S
H2568 C2578 0.950 . S
H2569 C2580 0.950 . S
H2570 C2582 0.950 . S
H2571 C2583 0.950 . S
C2572 H2564 0.950 . S
C2572 C2573 1.386 . S
C2572 C2574 1.391 1_554 S
C2573 C2572 1.386 . S
C2573 C2577 1.393 . S
C2574 H2566 0.950 . S
C2574 C2572 1.391 1_556 S
C2574 C2575 1.400 . S
C2575 C2574 1.400 . S
C2575 C2576 1.398 . S
C2575 C2581 1.491 . S
C2576 H2567 0.950 . S
C2576 C2575 1.398 . S
C2576 C2577 1.391 1_556 S
C2577 H2565 0.950 . S
C2577 C2573 1.393 . S
C2577 C2576 1.391 1_554 S
C2578 H2568 0.950 . S
C2578 C2579 1.386 . S
C2578 C2580 1.391 . S
C2579 C2578 1.386 . S
C2579 C2583 1.393 . S
C2580 H2569 0.950 . S
C2580 C2578 1.391 . S
C2580 C2581 1.400 . S
C2581 C2575 1.491 . S
C2581 C2580 1.400 . S
C2581 C2582 1.398 . S
C2582 H2570 0.950 . S
C2582 C2581 1.398 . S
C2582 C2583 1.391 . S
C2583 H2571 0.950 . S
C2583 C2579 1.393 . S
C2583 C2582 1.391 . S
H2584 C2592 0.950 . S
H2585 C2597 0.950 . S
H2586 C2594 0.950 . S
H2587 C2596 0.950 . S
H2588 C2598 0.950 . S
H2589 C2600 0.950 . S
H2590 C2602 0.950 . S
H2591 C2603 0.950 . S
C2592 H2584 0.950 . S
C2592 C2593 1.386 . S
C2592 C2594 1.391 . S
C2593 C2592 1.386 . S
C2593 C2597 1.393 . S
C2594 H2586 0.950 . S
C2594 C2592 1.391 . S
C2594 C2595 1.400 . S
C2595 C2594 1.400 . S
C2595 C2596 1.398 . S
C2595 C2601 1.491 . S
C2596 H2587 0.950 . S
C2596 C2595 1.398 . S
C2596 C2597 1.391 . S
C2597 H2585 0.950 . S
C2597 C2593 1.393 . S
C2597 C2596 1.391 . S
C2598 H2588 0.950 . S
C2598 C2599 1.386 . S
C2598 C2600 1.391 1_554 S
C2599 C2598 1.386 . S
C2599 C2603 1.393 . S
C2600 H2589 0.950 . S
C2600 C2598 1.391 1_556 S
C2600 C2601 1.400 . S
C2601 C2595 1.491 . S
C2601 C2600 1.400 . S
C2601 C2602 1.398 . S
C2602 H2590 0.950 . S
C2602 C2601 1.398 . S
C2602 C2603 1.391 1_556 S
C2603 H2591 0.950 . S
C2603 C2599 1.393 . S
C2603 C2602 1.391 1_554 S
H2604 C2612 0.950 . S
H2605 C2617 0.950 . S
H2606 C2614 0.950 . S
H2607 C2616 0.950 . S
H2608 C2618 0.950 . S
H2609 C2620 0.950 . S
H2610 C2622 0.950 . S
H2611 C2623 0.950 . S
C2612 H2604 0.950 . S
C2612 C2613 1.386 . S
C2612 C2614 1.391 . S
C2613 C2612 1.386 . S
C2613 C2617 1.393 . S
C2614 H2606 0.950 . S
C2614 C2612 1.391 . S
C2614 C2615 1.400 . S
C2615 C2614 1.400 . S
C2615 C2616 1.398 . S
C2615 C2621 1.491 . S
C2616 H2607 0.950 . S
C2616 C2615 1.398 . S
C2616 C2617 1.391 . S
C2617 H2605 0.950 . S
C2617 C2613 1.393 . S
C2617 C2616 1.391 . S
C2618 H2608 0.950 . S
C2618 C2619 1.386 . S
C2618 C2620 1.391 . S
C2619 C2618 1.386 . S
C2619 C2623 1.393 . S
C2620 H2609 0.950 . S
C2620 C2618 1.391 . S
C2620 C2621 1.400 . S
C2621 C2615 1.491 . S
C2621 C2620 1.400 . S
C2621 C2622 1.398 . S
C2622 H2610 0.950 . S
C2622 C2621 1.398 . S
C2622 C2623 1.391 . S
C2623 H2611 0.950 . S
C2623 C2619 1.393 . S
C2623 C2622 1.391 . S
H2624 C2632 0.950 . S
H2625 C2637 0.950 . S
H2626 C2634 0.950 . S
H2627 C2636 0.950 . S
H2628 C2638 0.950 . S
H2629 C2640 0.950 . S
H2630 C2642 0.950 . S
H2631 C2643 0.950 . S
C2632 H2624 0.950 . S
C2632 C2633 1.386 . S
C2632 C2634 1.391 . S
C2633 C2632 1.386 . S
C2633 C2637 1.393 . S
C2634 H2626 0.950 . S
C2634 C2632 1.391 . S
C2634 C2635 1.400 . S
C2635 C2634 1.400 . S
C2635 C2636 1.398 . S
C2635 C2641 1.491 . S
C2636 H2627 0.950 . S
C2636 C2635 1.398 . S
C2636 C2637 1.391 . S
C2637 H2625 0.950 . S
C2637 C2633 1.393 . S
C2637 C2636 1.391 . S
C2638 H2628 0.950 . S
C2638 C2639 1.386 . S
C2638 C2640 1.391 . S
C2639 C2638 1.386 . S
C2639 C2643 1.393 . S
C2640 H2629 0.950 . S
C2640 C2638 1.391 . S
C2640 C2641 1.400 . S
C2641 C2635 1.491 . S
C2641 C2640 1.400 . S
C2641 C2642 1.398 . S
C2642 H2630 0.950 . S
C2642 C2641 1.398 . S
C2642 C2643 1.391 . S
C2643 H2631 0.950 . S
C2643 C2639 1.393 . S
C2643 C2642 1.391 . S
H2644 C2652 0.950 . S
H2645 C2657 0.950 . S
H2646 C2654 0.950 . S
H2647 C2656 0.950 . S
H2648 C2658 0.950 . S
H2649 C2660 0.950 . S
H2650 C2662 0.950 . S
H2651 C2663 0.950 . S
C2652 H2644 0.950 . S
C2652 C2653 1.386 . S
C2652 C2654 1.391 . S
C2653 C2652 1.386 . S
C2653 C2657 1.393 . S
C2654 H2646 0.950 . S
C2654 C2652 1.391 . S
C2654 C2655 1.400 . S
C2655 C2654 1.400 . S
C2655 C2656 1.398 . S
C2655 C2661 1.491 . S
C2656 H2647 0.950 . S
C2656 C2655 1.398 . S
C2656 C2657 1.391 . S
C2657 H2645 0.950 . S
C2657 C2653 1.393 . S
C2657 C2656 1.391 . S
C2658 H2648 0.950 . S
C2658 C2659 1.386 . S
C2658 C2660 1.391 . S
C2659 C2658 1.386 . S
C2659 C2663 1.393 . S
C2660 H2649 0.950 . S
C2660 C2658 1.391 . S
C2660 C2661 1.400 . S
C2661 C2655 1.491 . S
C2661 C2660 1.400 . S
C2661 C2662 1.398 . S
C2662 H2650 0.950 . S
C2662 C2661 1.398 . S
C2662 C2663 1.391 . S
C2663 H2651 0.950 . S
C2663 C2659 1.393 . S
C2663 C2662 1.391 . S
H2664 C2672 0.950 . S
H2665 C2677 0.950 . S
H2666 C2674 0.950 . S
H2667 C2676 0.950 . S
H2668 C2678 0.950 . S
H2669 C2680 0.950 . S
H2670 C2682 0.950 . S
H2671 C2683 0.950 . S
C2672 H2664 0.950 . S
C2672 C2673 1.386 . S
C2672 C2674 1.391 . S
C2673 C2672 1.386 . S
C2673 C2677 1.393 . S
C2674 H2666 0.950 . S
C2674 C2672 1.391 . S
C2674 C2675 1.400 . S
C2675 C2674 1.400 . S
C2675 C2676 1.398 . S
C2675 C2681 1.491 . S
C2676 H2667 0.950 . S
C2676 C2675 1.398 . S
C2676 C2677 1.391 . S
C2677 H2665 0.950 . S
C2677 C2673 1.393 . S
C2677 C2676 1.391 . S
C2678 H2668 0.950 . S
C2678 C2679 1.386 . S
C2678 C2680 1.391 . S
C2679 C2678 1.386 . S
C2679 C2683 1.393 . S
C2680 H2669 0.950 . S
C2680 C2678 1.391 . S
C2680 C2681 1.400 . S
C2681 C2675 1.491 . S
C2681 C2680 1.400 . S
C2681 C2682 1.398 . S
C2682 H2670 0.950 . S
C2682 C2681 1.398 . S
C2682 C2683 1.391 . S
C2683 H2671 0.950 . S
C2683 C2679 1.393 . S
C2683 C2682 1.391 . S
H2684 C2692 0.950 . S
H2685 C2697 0.950 . S
H2686 C2694 0.950 . S
H2687 C2696 0.950 . S
H2688 C2698 0.950 . S
H2689 C2700 0.950 . S
H2690 C2702 0.950 . S
H2691 C2703 0.950 . S
C2692 H2684 0.950 . S
C2692 C2693 1.386 . S
C2692 C2694 1.391 . S
C2693 C2692 1.386 . S
C2693 C2697 1.393 . S
C2694 H2686 0.950 . S
C2694 C2692 1.391 . S
C2694 C2695 1.400 . S
C2695 C2694 1.400 . S
C2695 C2696 1.398 . S
C2695 C2701 1.491 . S
C2696 H2687 0.950 . S
C2696 C2695 1.398 . S
C2696 C2697 1.391 . S
C2697 H2685 0.950 . S
C2697 C2693 1.393 . S
C2697 C2696 1.391 . S
C2698 H2688 0.950 . S
C2698 C2699 1.386 . S
C2698 C2700 1.391 . S
C2699 C2698 1.386 . S
C2699 C2703 1.393 . S
C2700 H2689 0.950 . S
C2700 C2698 1.391 . S
C2700 C2701 1.400 . S
C2701 C2695 1.491 . S
C2701 C2700 1.400 . S
C2701 C2702 1.398 . S
C2702 H2690 0.950 . S
C2702 C2701 1.398 . S
C2702 C2703 1.391 . S
C2703 H2691 0.950 . S
C2703 C2699 1.393 . S
C2703 C2702 1.391 . S
H2704 C2712 0.950 . S
H2705 C2717 0.950 . S
H2706 C2714 0.950 . S
H2707 C2716 0.950 . S
H2708 C2718 0.950 . S
H2709 C2720 0.950 . S
H2710 C2722 0.950 . S
H2711 C2723 0.950 . S
C2712 H2704 0.950 . S
C2712 C2713 1.386 . S
C2712 C2714 1.391 . S
C2713 C2712 1.386 . S
C2713 C2717 1.393 . S
C2714 H2706 0.950 . S
C2714 C2712 1.391 . S
C2714 C2715 1.400 . S
C2715 C2714 1.400 . S
C2715 C2716 1.398 . S
C2715 C2721 1.491 . S
C2716 H2707 0.950 . S
C2716 C2715 1.398 . S
C2716 C2717 1.391 . S
C2717 H2705 0.950 . S
C2717 C2713 1.393 . S
C2717 C2716 1.391 . S
C2718 H2708 0.950 . S
C2718 C2719 1.386 . S
C2718 C2720 1.391 . S
C2719 C2718 1.386 . S
C2719 C2723 1.393 . S
C2720 H2709 0.950 . S
C2720 C2718 1.391 . S
C2720 C2721 1.400 . S
C2721 C2715 1.491 . S
C2721 C2720 1.400 . S
C2721 C2722 1.398 . S
C2722 H2710 0.950 . S
C2722 C2721 1.398 . S
C2722 C2723 1.391 . S
C2723 H2711 0.950 . S
C2723 C2719 1.393 . S
C2723 C2722 1.391 . S
H2724 C2732 0.950 . S
H2725 C2737 0.950 . S
H2726 C2734 0.950 . S
H2727 C2736 0.950 . S
H2728 C2738 0.950 . S
H2729 C2740 0.950 . S
H2730 C2742 0.950 . S
H2731 C2743 0.950 . S
C2732 H2724 0.950 . S
C2732 C2733 1.386 . S
C2732 C2734 1.391 1_554 S
C2733 C2732 1.386 . S
C2733 C2737 1.393 . S
C2734 H2726 0.950 . S
C2734 C2732 1.391 1_556 S
C2734 C2735 1.400 . S
C2735 C2734 1.400 . S
C2735 C2736 1.398 . S
C2735 C2741 1.491 . S
C2736 H2727 0.950 . S
C2736 C2735 1.398 . S
C2736 C2737 1.391 1_556 S
C2737 H2725 0.950 . S
C2737 C2733 1.393 . S
C2737 C2736 1.391 1_554 S
C2738 H2728 0.950 . S
C2738 C2739 1.386 . S
C2738 C2740 1.391 . S
C2739 C2738 1.386 . S
C2739 C2743 1.393 . S
C2740 H2729 0.950 . S
C2740 C2738 1.391 . S
C2740 C2741 1.400 . S
C2741 C2735 1.491 . S
C2741 C2740 1.400 . S
C2741 C2742 1.398 . S
C2742 H2730 0.950 . S
C2742 C2741 1.398 . S
C2742 C2743 1.391 . S
C2743 H2731 0.950 . S
C2743 C2739 1.393 . S
C2743 C2742 1.391 . S
H2744 C2752 0.950 . S
H2745 C2757 0.950 . S
H2746 C2754 0.950 . S
H2747 C2756 0.950 . S
H2748 C2758 0.950 . S
H2749 C2760 0.950 . S
H2750 C2762 0.950 . S
H2751 C2763 0.950 . S
C2752 H2744 0.950 . S
C2752 C2753 1.386 . S
C2752 C2754 1.391 1_554 S
C2753 C2752 1.386 . S
C2753 C2757 1.393 . S
C2754 H2746 0.950 . S
C2754 C2752 1.391 1_556 S
C2754 C2755 1.400 . S
C2755 C2754 1.400 . S
C2755 C2756 1.398 . S
C2755 C2761 1.491 . S
C2756 H2747 0.950 . S
C2756 C2755 1.398 . S
C2756 C2757 1.391 1_556 S
C2757 H2745 0.950 . S
C2757 C2753 1.393 . S
C2757 C2756 1.391 1_554 S
C2758 H2748 0.950 . S
C2758 C2759 1.386 . S
C2758 C2760 1.391 . S
C2759 C2758 1.386 . S
C2759 C2763 1.393 . S
C2760 H2749 0.950 . S
C2760 C2758 1.391 . S
C2760 C2761 1.400 . S
C2761 C2755 1.491 . S
C2761 C2760 1.400 . S
C2761 C2762 1.398 . S
C2762 H2750 0.950 . S
C2762 C2761 1.398 . S
C2762 C2763 1.391 . S
C2763 H2751 0.950 . S
C2763 C2759 1.393 . S
C2763 C2762 1.391 . S
H2764 C2772 0.950 . S
H2765 C2777 0.950 . S
H2766 C2774 0.950 . S
H2767 C2776 0.950 . S
H2768 C2778 0.950 . S
H2769 C2780 0.950 . S
H2770 C2782 0.950 . S
H2771 C2783 0.950 . S
C2772 H2764 0.950 . S
C2772 C2773 1.386 . S
C2772 C2774 1.391 1_554 S
C2773 C2772 1.386 . S
C2773 C2777 1.393 . S
C2774 H2766 0.950 . S
C2774 C2772 1.391 1_556 S
C2774 C2775 1.400 . S
C2775 C2774 1.400 . S
C2775 C2776 1.398 . S
C2775 C2781 1.491 . S
C2776 H2767 0.950 . S
C2776 C2775 1.398 . S
C2776 C2777 1.391 1_556 S
C2777 H2765 0.950 . S
C2777 C2773 1.393 . S
C2777 C2776 1.391 1_554 S
C2778 H2768 0.950 . S
C2778 C2779 1.386 . S
C2778 C2780 1.391 . S
C2779 C2778 1.386 . S
C2779 C2783 1.393 . S
C2780 H2769 0.950 . S
C2780 C2778 1.391 . S
C2780 C2781 1.400 . S
C2781 C2775 1.491 . S
C2781 C2780 1.400 . S
C2781 C2782 1.398 . S
C2782 H2770 0.950 . S
C2782 C2781 1.398 . S
C2782 C2783 1.391 . S
C2783 H2771 0.950 . S
C2783 C2779 1.393 . S
C2783 C2782 1.391 . S
H2784 C2792 0.950 . S
H2785 C2797 0.950 . S
H2786 C2794 0.950 . S
H2787 C2796 0.950 . S
H2788 C2798 0.950 . S
H2789 C2800 0.950 . S
H2790 C2802 0.950 . S
H2791 C2803 0.950 . S
C2792 H2784 0.950 . S
C2792 C2793 1.386 . S
C2792 C2794 1.391 . S
C2793 C2792 1.386 . S
C2793 C2797 1.393 . S
C2794 H2786 0.950 . S
C2794 C2792 1.391 . S
C2794 C2795 1.400 . S
C2795 C2794 1.400 . S
C2795 C2796 1.398 . S
C2795 C2801 1.491 . S
C2796 H2787 0.950 . S
C2796 C2795 1.398 . S
C2796 C2797 1.391 . S
C2797 H2785 0.950 . S
C2797 C2793 1.393 . S
C2797 C2796 1.391 . S
C2798 H2788 0.950 . S
C2798 C2799 1.386 . S
C2798 C2800 1.391 . S
C2799 C2798 1.386 . S
C2799 C2803 1.393 . S
C2800 H2789 0.950 . S
C2800 C2798 1.391 . S
C2800 C2801 1.400 . S
C2801 C2795 1.491 . S
C2801 C2800 1.400 . S
C2801 C2802 1.398 . S
C2802 H2790 0.950 . S
C2802 C2801 1.398 . S
C2802 C2803 1.391 . S
C2803 H2791 0.950 . S
C2803 C2799 1.393 . S
C2803 C2802 1.391 . S
H2804 C2812 0.950 . S
H2805 C2817 0.950 . S
H2806 C2814 0.950 . S
H2807 C2816 0.950 . S
H2808 C2818 0.950 . S
H2809 C2820 0.950 . S
H2810 C2822 0.950 . S
H2811 C2823 0.950 . S
C2812 H2804 0.950 . S
C2812 C2813 1.386 . S
C2812 C2814 1.391 . S
C2813 C2812 1.386 . S
C2813 C2817 1.393 . S
C2814 H2806 0.950 . S
C2814 C2812 1.391 . S
C2814 C2815 1.400 . S
C2815 C2814 1.400 . S
C2815 C2816 1.398 . S
C2815 C2821 1.491 . S
C2816 H2807 0.950 . S
C2816 C2815 1.398 . S
C2816 C2817 1.391 . S
C2817 H2805 0.950 . S
C2817 C2813 1.393 . S
C2817 C2816 1.391 . S
C2818 H2808 0.950 . S
C2818 C2819 1.386 . S
C2818 C2820 1.391 . S
C2819 C2818 1.386 . S
C2819 C2823 1.393 . S
C2820 H2809 0.950 . S
C2820 C2818 1.391 . S
C2820 C2821 1.400 . S
C2821 C2815 1.491 . S
C2821 C2820 1.400 . S
C2821 C2822 1.398 . S
C2822 H2810 0.950 . S
C2822 C2821 1.398 . S
C2822 C2823 1.391 . S
C2823 H2811 0.950 . S
C2823 C2819 1.393 . S
C2823 C2822 1.391 . S
H2824 C2832 0.950 . S
H2825 C2837 0.950 . S
H2826 C2834 0.950 . S
H2827 C2836 0.950 . S
H2828 C2838 0.950 . S
H2829 C2840 0.950 . S
H2830 C2842 0.950 . S
H2831 C2843 0.950 . S
C2832 H2824 0.950 . S
C2832 C2833 1.386 . S
C2832 C2834 1.391 . S
C2833 C2832 1.386 . S
C2833 C2837 1.393 . S
C2834 H2826 0.950 . S
C2834 C2832 1.391 . S
C2834 C2835 1.400 . S
C2835 C2834 1.400 . S
C2835 C2836 1.398 . S
C2835 C2841 1.491 . S
C2836 H2827 0.950 . S
C2836 C2835 1.398 . S
C2836 C2837 1.391 . S
C2837 H2825 0.950 . S
C2837 C2833 1.393 . S
C2837 C2836 1.391 . S
C2838 H2828 0.950 . S
C2838 C2839 1.386 . S
C2838 C2840 1.391 . S
C2839 C2838 1.386 . S
C2839 C2843 1.393 . S
C2840 H2829 0.950 . S
C2840 C2838 1.391 . S
C2840 C2841 1.400 . S
C2841 C2835 1.491 . S
C2841 C2840 1.400 . S
C2841 C2842 1.398 . S
C2842 H2830 0.950 . S
C2842 C2841 1.398 . S
C2842 C2843 1.391 . S
C2843 H2831 0.950 . S
C2843 C2839 1.393 . S
C2843 C2842 1.391 . S
H2844 C2852 0.950 . S
H2845 C2857 0.950 . S
H2846 C2854 0.950 . S
H2847 C2856 0.950 . S
H2848 C2858 0.950 . S
H2849 C2860 0.950 . S
H2850 C2862 0.950 . S
H2851 C2863 0.950 . S
C2852 H2844 0.950 . S
C2852 C2853 1.386 . S
C2852 C2854 1.391 . S
C2853 C2852 1.386 . S
C2853 C2857 1.393 . S
C2854 H2846 0.950 . S
C2854 C2852 1.391 . S
C2854 C2855 1.400 . S
C2855 C2854 1.400 . S
C2855 C2856 1.398 . S
C2855 C2861 1.491 . S
C2856 H2847 0.950 . S
C2856 C2855 1.398 . S
C2856 C2857 1.391 . S
C2857 H2845 0.950 . S
C2857 C2853 1.393 . S
C2857 C2856 1.391 . S
C2858 H2848 0.950 . S
C2858 C2859 1.386 . S
C2858 C2860 1.391 1_556 S
C2859 C2858 1.386 . S
C2859 C2863 1.393 . S
C2860 H2849 0.950 . S
C2860 C2858 1.391 1_554 S
C2860 C2861 1.400 . S
C2861 C2855 1.491 . S
C2861 C2860 1.400 . S
C2861 C2862 1.398 . S
C2862 H2850 0.950 . S
C2862 C2861 1.398 . S
C2862 C2863 1.391 1_554 S
C2863 H2851 0.950 . S
C2863 C2859 1.393 . S
C2863 C2862 1.391 1_556 S
H2864 C2872 0.950 . S
H2865 C2877 0.950 . S
H2866 C2874 0.950 . S
H2867 C2876 0.950 . S
H2868 C2878 0.950 . S
H2869 C2880 0.950 . S
H2870 C2882 0.950 . S
H2871 C2883 0.950 . S
C2872 H2864 0.950 . S
C2872 C2873 1.386 . S
C2872 C2874 1.391 . S
C2873 C2872 1.386 . S
C2873 C2877 1.393 . S
C2874 H2866 0.950 . S
C2874 C2872 1.391 . S
C2874 C2875 1.400 . S
C2875 C2874 1.400 . S
C2875 C2876 1.398 . S
C2875 C2881 1.491 . S
C2876 H2867 0.950 . S
C2876 C2875 1.398 . S
C2876 C2877 1.391 . S
C2877 H2865 0.950 . S
C2877 C2873 1.393 . S
C2877 C2876 1.391 . S
C2878 H2868 0.950 . S
C2878 C2879 1.386 . S
C2878 C2880 1.391 1_556 S
C2879 C2878 1.386 . S
C2879 C2883 1.393 . S
C2880 H2869 0.950 . S
C2880 C2878 1.391 1_554 S
C2880 C2881 1.400 . S
C2881 C2875 1.491 . S
C2881 C2880 1.400 . S
C2881 C2882 1.398 . S
C2882 H2870 0.950 . S
C2882 C2881 1.398 . S
C2882 C2883 1.391 1_554 S
C2883 H2871 0.950 . S
C2883 C2879 1.393 . S
C2883 C2882 1.391 1_556 S
H2884 C2892 0.950 . S
H2885 C2897 0.950 . S
H2886 C2894 0.950 . S
H2887 C2896 0.950 . S
H2888 C2898 0.950 . S
H2889 C2900 0.950 . S
H2890 C2902 0.950 . S
H2891 C2903 0.950 . S
C2892 H2884 0.950 . S
C2892 C2893 1.386 . S
C2892 C2894 1.391 . S
C2893 C2892 1.386 . S
C2893 C2897 1.393 . S
C2894 H2886 0.950 . S
C2894 C2892 1.391 . S
C2894 C2895 1.400 . S
C2895 C2894 1.400 . S
C2895 C2896 1.398 . S
C2895 C2901 1.491 . S
C2896 H2887 0.950 . S
C2896 C2895 1.398 . S
C2896 C2897 1.391 . S
C2897 H2885 0.950 . S
C2897 C2893 1.393 . S
C2897 C2896 1.391 . S
C2898 H2888 0.950 . S
C2898 C2899 1.386 . S
C2898 C2900 1.391 1_556 S
C2899 C2898 1.386 . S
C2899 C2903 1.393 . S
C2900 H2889 0.950 . S
C2900 C2898 1.391 1_554 S
C2900 C2901 1.400 . S
C2901 C2895 1.491 . S
C2901 C2900 1.400 . S
C2901 C2902 1.398 . S
C2902 H2890 0.950 . S
C2902 C2901 1.398 . S
C2902 C2903 1.391 1_554 S
C2903 H2891 0.950 . S
C2903 C2899 1.393 . S
C2903 C2902 1.391 1_556 S
H2904 C2912 0.950 . S
H2905 C2917 0.950 . S
H2906 C2914 0.950 . S
H2907 C2916 0.950 . S
H2908 C2918 0.950 . S
H2909 C2920 0.950 . S
H2910 C2922 0.950 . S
H2911 C2923 0.950 . S
C2912 H2904 0.950 . S
C2912 C2913 1.386 . S
C2912 C2914 1.391 . S
C2913 C2912 1.386 . S
C2913 C2917 1.393 . S
C2914 H2906 0.950 . S
C2914 C2912 1.391 . S
C2914 C2915 1.400 . S
C2915 C2914 1.400 . S
C2915 C2916 1.398 . S
C2915 C2921 1.491 . S
C2916 H2907 0.950 . S
C2916 C2915 1.398 . S
C2916 C2917 1.391 . S
C2917 H2905 0.950 . S
C2917 C2913 1.393 . S
C2917 C2916 1.391 . S
C2918 H2908 0.950 . S
C2918 C2919 1.386 . S
C2918 C2920 1.391 1_556 S
C2919 C2918 1.386 . S
C2919 C2923 1.393 . S
C2920 H2909 0.950 . S
C2920 C2918 1.391 1_554 S
C2920 C2921 1.400 . S
C2921 C2915 1.491 . S
C2921 C2920 1.400 . S
C2921 C2922 1.398 . S
C2922 H2910 0.950 . S
C2922 C2921 1.398 . S
C2922 C2923 1.391 1_554 S
C2923 H2911 0.950 . S
C2923 C2919 1.393 . S
C2923 C2922 1.391 1_556 S
H2924 C2932 0.950 . S
H2925 C2937 0.950 . S
H2926 C2934 0.950 . S
H2927 C2936 0.950 . S
H2928 C2938 0.950 . S
H2929 C2940 0.950 . S
H2930 C2942 0.950 . S
H2931 C2943 0.950 . S
C2932 H2924 0.950 . S
C2932 C2933 1.386 . S
C2932 C2934 1.391 . S
C2933 C2932 1.386 . S
C2933 C2937 1.393 . S
C2934 H2926 0.950 . S
C2934 C2932 1.391 . S
C2934 C2935 1.400 . S
C2935 C2934 1.400 . S
C2935 C2936 1.398 . S
C2935 C2941 1.491 . S
C2936 H2927 0.950 . S
C2936 C2935 1.398 . S
C2936 C2937 1.391 . S
C2937 H2925 0.950 . S
C2937 C2933 1.393 . S
C2937 C2936 1.391 . S
C2938 H2928 0.950 . S
C2938 C2939 1.386 . S
C2938 C2940 1.391 1_556 S
C2939 C2938 1.386 . S
C2939 C2943 1.393 . S
C2940 H2929 0.950 . S
C2940 C2938 1.391 1_554 S
C2940 C2941 1.400 . S
C2941 C2935 1.491 . S
C2941 C2940 1.400 . S
C2941 C2942 1.398 . S
C2942 H2930 0.950 . S
C2942 C2941 1.398 . S
C2942 C2943 1.391 1_554 S
C2943 H2931 0.950 . S
C2943 C2939 1.393 . S
C2943 C2942 1.391 1_556 S
H2944 C2952 0.950 . S
H2945 C2957 0.950 . S
H2946 C2954 0.950 . S
H2947 C2956 0.950 . S
H2948 C2958 0.950 . S
H2949 C2960 0.950 . S
H2950 C2962 0.950 . S
H2951 C2963 0.950 . S
C2952 H2944 0.950 . S
C2952 C2953 1.386 . S
C2952 C2954 1.391 1_556 S
C2953 C2952 1.386 . S
C2953 C2957 1.393 . S
C2954 H2946 0.950 . S
C2954 C2952 1.391 1_554 S
C2954 C2955 1.400 . S
C2955 C2954 1.400 . S
C2955 C2956 1.398 . S
C2955 C2961 1.491 . S
C2956 H2947 0.950 . S
C2956 C2955 1.398 . S
C2956 C2957 1.391 1_554 S
C2957 H2945 0.950 . S
C2957 C2953 1.393 . S
C2957 C2956 1.391 1_556 S
C2958 H2948 0.950 . S
C2958 C2959 1.386 . S
C2958 C2960 1.391 . S
C2959 C2958 1.386 . S
C2959 C2963 1.393 . S
C2960 H2949 0.950 . S
C2960 C2958 1.391 . S
C2960 C2961 1.400 . S
C2961 C2955 1.491 . S
C2961 C2960 1.400 . S
C2961 C2962 1.398 . S
C2962 H2950 0.950 . S
C2962 C2961 1.398 . S
C2962 C2963 1.391 . S
C2963 H2951 0.950 . S
C2963 C2959 1.393 . S
C2963 C2962 1.391 . S
H2964 C2972 0.950 . S
H2965 C2977 0.950 . S
H2966 C2974 0.950 . S
H2967 C2976 0.950 . S
H2968 C2978 0.950 . S
H2969 C2980 0.950 . S
H2970 C2982 0.950 . S
H2971 C2983 0.950 . S
C2972 H2964 0.950 . S
C2972 C2973 1.386 . S
C2972 C2974 1.391 . S
C2973 C2972 1.386 . S
C2973 C2977 1.393 . S
C2974 H2966 0.950 . S
C2974 C2972 1.391 . S
C2974 C2975 1.400 . S
C2975 C2974 1.400 . S
C2975 C2976 1.398 . S
C2975 C2981 1.491 . S
C2976 H2967 0.950 . S
C2976 C2975 1.398 . S
C2976 C2977 1.391 . S
C2977 H2965 0.950 . S
C2977 C2973 1.393 . S
C2977 C2976 1.391 . S
C2978 H2968 0.950 . S
C2978 C2979 1.386 . S
C2978 C2980 1.391 . S
C2979 C2978 1.386 . S
C2979 C2983 1.393 . S
C2980 H2969 0.950 . S
C2980 C2978 1.391 . S
C2980 C2981 1.400 . S
C2981 C2975 1.491 . S
C2981 C2980 1.400 . S
C2981 C2982 1.398 . S
C2982 H2970 0.950 . S
C2982 C2981 1.398 . S
C2982 C2983 1.391 . S
C2983 H2971 0.950 . S
C2983 C2979 1.393 . S
C2983 C2982 1.391 . S
H2984 C2992 0.950 . S
H2985 C2997 0.950 . S
H2986 C2994 0.950 . S
H2987 C2996 0.950 . S
H2988 C2998 0.950 . S
H2989 C3000 0.950 . S
H2990 C3002 0.950 . S
H2991 C3003 0.950 . S
C2992 H2984 0.950 . S
C2992 C2993 1.386 . S
C2992 C2994 1.391 . S
C2993 C2992 1.386 . S
C2993 C2997 1.393 . S
C2994 H2986 0.950 . S
C2994 C2992 1.391 . S
C2994 C2995 1.400 . S
C2995 C2994 1.400 . S
C2995 C2996 1.398 . S
C2995 C3001 1.491 . S
C2996 H2987 0.950 . S
C2996 C2995 1.398 . S
C2996 C2997 1.391 . S
C2997 H2985 0.950 . S
C2997 C2993 1.393 . S
C2997 C2996 1.391 . S
C2998 H2988 0.950 . S
C2998 C2999 1.386 . S
C2998 C3000 1.391 . S
C2999 C2998 1.386 . S
C2999 C3003 1.393 . S
C3000 H2989 0.950 . S
C3000 C2998 1.391 . S
C3000 C3001 1.400 . S
C3001 C2995 1.491 . S
C3001 C3000 1.400 . S
C3001 C3002 1.398 . S
C3002 H2990 0.950 . S
C3002 C3001 1.398 . S
C3002 C3003 1.391 . S
C3003 H2991 0.950 . S
C3003 C2999 1.393 . S
C3003 C3002 1.391 . S
H3004 C3012 0.950 . S
H3005 C3017 0.950 . S
H3006 C3014 0.950 . S
H3007 C3016 0.950 . S
H3008 C3018 0.950 . S
H3009 C3020 0.950 . S
H3010 C3022 0.950 . S
H3011 C3023 0.950 . S
C3012 H3004 0.950 . S
C3012 C3013 1.386 . S
C3012 C3014 1.391 . S
C3013 C3012 1.386 . S
C3013 C3017 1.393 . S
C3014 H3006 0.950 . S
C3014 C3012 1.391 . S
C3014 C3015 1.400 . S
C3015 C3014 1.400 . S
C3015 C3016 1.398 . S
C3015 C3021 1.491 . S
C3016 H3007 0.950 . S
C3016 C3015 1.398 . S
C3016 C3017 1.391 . S
C3017 H3005 0.950 . S
C3017 C3013 1.393 . S
C3017 C3016 1.391 . S
C3018 H3008 0.950 . S
C3018 C3019 1.386 . S
C3018 C3020 1.391 . S
C3019 C3018 1.386 . S
C3019 C3023 1.393 . S
C3020 H3009 0.950 . S
C3020 C3018 1.391 . S
C3020 C3021 1.400 . S
C3021 C3015 1.491 . S
C3021 C3020 1.400 . S
C3021 C3022 1.398 . S
C3022 H3010 0.950 . S
C3022 C3021 1.398 . S
C3022 C3023 1.391 . S
C3023 H3011 0.950 . S
C3023 C3019 1.393 . S
C3023 C3022 1.391 . S
C1233 C20 1.593 . S
C1239 C530 1.594 . S
C1253 C564 1.594 . S
C1259 C54 1.593 . S
C1273 C88 1.607 . S
C1279 C598 1.605 . S
C1293 C836 1.602 . S
C1299 C122 1.604 . S
C1313 C870 1.606 . S
C1319 C156 1.607 . S
C1333 C190 1.606 . S
C1339 C904 1.607 . S
C1353 C224 1.607 . S
C1359 C1142 1.607 . S
C1373 C1176 1.598 . S
C1379 C258 1.596 . S
C1393 C292 1.607 . S
C1399 C1210 1.607 . S
C1413 C632 1.607 . S
C1419 C326 1.607 . S
C1433 C360 1.598 . S
C1439 C666 1.601 . S
C1453 C700 1.604 . S
C1459 C394 1.601 . S
C1473 C428 1.594 . S
C1479 C938 1.593 . S
C1493 C462 1.593 . S
C1499 C972 1.593 . S
C1513 C1006 1.594 . S
C1519 C496 1.596 . S
C1533 C1040 1.594 . S
C1539 C734 1.595 . S
C1553 C1074 1.593 . S
C1559 C768 1.593 . S
C1573 C802 1.593 . S
C1579 C1108 1.594 . S
C1593 C2 1.542 . S
C1599 C376 1.538 . S
C1613 C36 1.540 . S
C1619 C308 1.539 . S
C1633 C70 1.538 . S
C1639 C342 1.542 . S
C1653 C240 1.539 . S
C1659 C104 1.541 . S
C1673 C274 1.538 . S
C1679 C138 1.542 . S
C1693 C172 1.542 . S
C1699 C206 1.538 . S
C1713 C410 1.542 . S
C1719 C784 1.538 . S
C1733 C716 1.542 . S
C1739 C444 1.538 . S
C1753 C478 1.538 . S
C1759 C750 1.541 . S
C1773 C512 1.539 . S
C1779 C648 1.541 . S
C1793 C546 1.538 . S
C1799 C682 1.541 . S
C1813 C580 1.539 . S
C1819 C614 1.541 . S
C1833 C818 1.538 . S
C1839 C1192 1.542 . S
C1853 C1124 1.540 . S
C1859 C852 1.540 . S
C1873 C1158 1.539 . S
C1879 C886 1.540 . S
C1893 C1056 1.542 . S
C1899 C920 1.538 . S
C1913 C954 1.540 . S
C1919 C1090 1.540 . S
C1933 C988 1.541 . S
C1939 C1022 1.538 . S
C1953 C1019 1.527 . S
C1959 C33 1.523 . S
C1973 C67 1.529 . S
C1979 C951 1.524 . S
C1993 C101 1.520 . S
C1999 C985 1.522 . S
C2013 C475 1.528 . S
C2019 C135 1.532 . S
C2033 C169 1.535 . S
C2039 C509 1.537 . S
C2053 C203 1.528 . S
C2059 C441 1.524 . S
C2073 C815 1.521 . S
C2079 C237 1.523 . S
C2093 C271 1.535 . S
C2099 C747 1.531 . S
C2113 C781 1.533 . S
C2119 C305 1.529 . S
C2133 C1087 1.531 . S
C2139 C339 1.526 . S
C2153 C1121 1.537 . S
C2159 C373 1.536 . S
C2173 C1053 1.526 . S
C2179 C407 1.530 . S
C2193 C543 1.531 . S
C2199 C883 1.526 . S
C2213 C917 1.532 . S
C2219 C577 1.527 . S
C2233 C611 1.536 . S
C2239 C849 1.537 . S
C2253 C645 1.537 . S
C2259 C1223 1.535 . S
C2273 C679 1.522 . S
C2279 C1155 1.526 . S
C2293 C713 1.533 . S
C2299 C1189 1.536 . S
C2313 C9 1.062 . S
C2319 C5 1.091 . S
C2333 C43 1.064 . S
C2339 C39 1.076 . S
C2353 C77 1.077 . S
C2359 C73 1.075 . S
C2373 C107 1.079 . S
C2379 C111 1.085 . S
C2393 C145 1.066 . S
C2399 C141 1.075 . S
C2413 C175 1.087 . S
C2419 C179 1.058 . S
C2433 C213 1.063 . S
C2439 C209 1.092 . S
C2453 C243 1.079 . S
C2459 C247 1.059 . S
C2473 C277 1.074 . S
C2479 C281 1.075 . S
C2493 C315 1.060 . S
C2499 C311 1.090 . S
C2513 C349 1.066 . S
C2519 C345 1.093 . S
C2533 C379 1.076 . S
C2539 C383 1.080 . S
C2553 C413 1.075 . S
C2559 C417 1.068 . S
C2573 C447 1.085 . S
C2579 C451 1.086 . S
C2593 C485 1.086 . S
C2599 C481 1.081 . S
C2613 C515 1.086 . S
C2619 C519 1.057 1_556 S
C2633 C549 1.093 . S
C2639 C553 1.075 1_556 S
C2653 C587 1.082 1_556 S
C2659 C583 1.091 . S
C2673 C617 1.089 . S
C2679 C621 1.084 1_556 S
C2693 C655 1.077 1_556 S
C2699 C651 1.093 . S
C2713 C689 1.086 1_556 S
C2719 C685 1.086 . S
C2733 C719 1.081 . S
C2739 C723 1.058 . S
C2753 C753 1.093 . S
C2759 C757 1.077 . S
C2773 C787 1.078 . S
C2779 C791 1.083 . S
C2793 C821 1.094 . S
C2799 C825 1.068 1_554 S
C2813 C855 1.074 . S
C2819 C859 1.068 1_554 S
C2833 C893 1.084 1_554 S
C2839 C889 1.079 . S
C2853 C927 1.074 . S
C2859 C923 1.094 . S
C2873 C961 1.086 . S
C2879 C957 1.081 . S
C2893 C995 1.058 . S
C2899 C991 1.081 . S
C2913 C1029 1.074 . S
C2919 C1025 1.094 . S
C2933 C1063 1.084 . S
C2939 C1059 1.089 . S
C2953 C1093 1.086 . S
C2959 C1097 1.057 . S
C2973 C1131 1.083 1_554 S
C2979 C1127 1.090 . S
C2993 C1165 1.075 1_554 S
C2999 C1161 1.094 . S
C3013 C1195 1.093 . S
C3019 C1199 1.066 1_554 S
