# Generated by pormake.
# Topology umz, (4)-cn, num edge types: 1
# Building blocks:
#     Node 0, Type 0, BuildingBlock: QUQFOY_clean_sbu_1, # of connection points: 4
#     Node 1, Type 0, BuildingBlock: QUQFOY_clean_sbu_1, # of connection points: 4
#     Node 2, Type 0, BuildingBlock: QUQFOY_clean_sbu_1, # of connection points: 4
#     Node 3, Type 0, BuildingBlock: QUQFOY_clean_sbu_1, # of connection points: 4
#     Node 4, Type 0, BuildingBlock: QUQFOY_clean_sbu_1, # of connection points: 4
#     Node 5, Type 0, BuildingBlock: QUQFOY_clean_sbu_1, # of connection points: 4
#     Node 6, Type 0, BuildingBlock: QUQFOY_clean_sbu_1, # of connection points: 4
#     Node 7, Type 0, BuildingBlock: QUQFOY_clean_sbu_1, # of connection points: 4
#     Node 8, Type 0, BuildingBlock: QUQFOY_clean_sbu_1, # of connection points: 4
#     Node 9, Type 0, BuildingBlock: QUQFOY_clean_sbu_1, # of connection points: 4
#     Node 10, Type 0, BuildingBlock: QUQFOY_clean_sbu_1, # of connection points: 4
#     Node 11, Type 0, BuildingBlock: QUQFOY_clean_sbu_1, # of connection points: 4
#     Node 12, Type 0, BuildingBlock: QUQFOY_clean_sbu_1, # of connection points: 4
#     Node 13, Type 0, BuildingBlock: QUQFOY_clean_sbu_1, # of connection points: 4
#     Node 14, Type 0, BuildingBlock: QUQFOY_clean_sbu_1, # of connection points: 4
#     Node 15, Type 0, BuildingBlock: QUQFOY_clean_sbu_1, # of connection points: 4
#     Edge 16, Type (0, 0), BuildingBlock: AJUNOK_clean_linker_0, # of connection points: 2
#     Edge 17, Type (0, 0), BuildingBlock: AJUNOK_clean_linker_0, # of connection points: 2
#     Edge 18, Type (0, 0), BuildingBlock: AJUNOK_clean_linker_0, # of connection points: 2
#     Edge 19, Type (0, 0), BuildingBlock: AJUNOK_clean_linker_0, # of connection points: 2
#     Edge 20, Type (0, 0), BuildingBlock: AJUNOK_clean_linker_0, # of connection points: 2
#     Edge 21, Type (0, 0), BuildingBlock: AJUNOK_clean_linker_0, # of connection points: 2
#     Edge 22, Type (0, 0), BuildingBlock: AJUNOK_clean_linker_0, # of connection points: 2
#     Edge 23, Type (0, 0), BuildingBlock: AJUNOK_clean_linker_0, # of connection points: 2
#     Edge 24, Type (0, 0), BuildingBlock: AJUNOK_clean_linker_0, # of connection points: 2
#     Edge 25, Type (0, 0), BuildingBlock: AJUNOK_clean_linker_0, # of connection points: 2
#     Edge 26, Type (0, 0), BuildingBlock: AJUNOK_clean_linker_0, # of connection points: 2
#     Edge 27, Type (0, 0), BuildingBlock: AJUNOK_clean_linker_0, # of connection points: 2
#     Edge 28, Type (0, 0), BuildingBlock: AJUNOK_clean_linker_0, # of connection points: 2
#     Edge 29, Type (0, 0), BuildingBlock: AJUNOK_clean_linker_0, # of connection points: 2
#     Edge 30, Type (0, 0), BuildingBlock: AJUNOK_clean_linker_0, # of connection points: 2
#     Edge 31, Type (0, 0), BuildingBlock: AJUNOK_clean_linker_0, # of connection points: 2
#     Edge 32, Type (0, 0), BuildingBlock: AJUNOK_clean_linker_0, # of connection points: 2
#     Edge 33, Type (0, 0), BuildingBlock: AJUNOK_clean_linker_0, # of connection points: 2
#     Edge 34, Type (0, 0), BuildingBlock: AJUNOK_clean_linker_0, # of connection points: 2
#     Edge 35, Type (0, 0), BuildingBlock: AJUNOK_clean_linker_0, # of connection points: 2
#     Edge 36, Type (0, 0), BuildingBlock: AJUNOK_clean_linker_0, # of connection points: 2
#     Edge 37, Type (0, 0), BuildingBlock: AJUNOK_clean_linker_0, # of connection points: 2
#     Edge 38, Type (0, 0), BuildingBlock: AJUNOK_clean_linker_0, # of connection points: 2
#     Edge 39, Type (0, 0), BuildingBlock: AJUNOK_clean_linker_0, # of connection points: 2
#     Edge 40, Type (0, 0), BuildingBlock: AJUNOK_clean_linker_0, # of connection points: 2
#     Edge 41, Type (0, 0), BuildingBlock: AJUNOK_clean_linker_0, # of connection points: 2
#     Edge 42, Type (0, 0), BuildingBlock: AJUNOK_clean_linker_0, # of connection points: 2
#     Edge 43, Type (0, 0), BuildingBlock: AJUNOK_clean_linker_0, # of connection points: 2
#     Edge 44, Type (0, 0), BuildingBlock: AJUNOK_clean_linker_0, # of connection points: 2
#     Edge 45, Type (0, 0), BuildingBlock: AJUNOK_clean_linker_0, # of connection points: 2
#     Edge 46, Type (0, 0), BuildingBlock: AJUNOK_clean_linker_0, # of connection points: 2
#     Edge 47, Type (0, 0), BuildingBlock: AJUNOK_clean_linker_0, # of connection points: 2
# Relax obj value: 0.241
# Max RMSD: 0.195
# Mean RMSD: 0.195
data_MOF--net-umz--node1-QUQFOY_clean_sbu_1--edge1-AJUNOK_clean_linker_0
_symmetry_space_group_name_H-M    P1
_symmetry_Int_Tables_number       1
_symmetry_cell_setting            triclinic
loop_
_symmetry_equiv_pos_as_xyz
'x, y, z'
_cell_length_a     47.282154
_cell_length_b     47.33346
_cell_length_c     17.299011
_cell_angle_alpha  90.13358
_cell_angle_beta   89.993197
_cell_angle_gamma 90.025888
loop_
_atom_site_label
_atom_site_type_symbol
_atom_site_fract_x
_atom_site_fract_y
_atom_site_fract_z
_atom_type_partial_charge
O0 O 0.0747 0.64377 0.93339 0.0
Cd1 Cd 0.06183 0.66373 0.03216 0.0
Cd2 Cd 0.02635 0.62117 0.02653 0.0
O3 O 0.03601 0.6195 0.91008 0.0
O4 O 0.08201 0.70057 0.0246 0.0
O5 O 0.03549 0.69711 0.02072 0.0
C6 C 0.05786 0.71266 0.01472 0.0
C7 C 0.98257 0.61774 0.08721 0.0
C8 C 0.06032 0.62804 0.88885 0.0
C9 C 0.07309 0.61751 0.13989 0.0
O10 O 0.05669 0.60365 0.09584 0.0
O11 O 0.07527 0.64418 0.13247 0.0
O12 O 0.99257 0.59719 0.04646 0.0
O13 O 0.99601 0.64154 0.08638 0.0
O14 O 0.90023 0.07769 0.44014 0.0
Cd15 Cd 0.87989 0.06433 0.53762 0.0
Cd16 Cd 0.9219 0.02832 0.5313 0.0
O17 O 0.92371 0.03868 0.41541 0.0
O18 O 0.84295 0.08429 0.52957 0.0
O19 O 0.8467 0.03786 0.52375 0.0
C20 C 0.83105 0.06014 0.51801 0.0
C21 C 0.92583 0.98394 0.58808 0.0
C22 C 0.91571 0.06325 0.39518 0.0
C23 C 0.92588 0.07452 0.64697 0.0
O24 O 0.93956 0.05808 0.60267 0.0
O25 O 0.89923 0.07716 0.63903 0.0
O26 O 0.94622 0.99458 0.5481 0.0
O27 O 0.90193 0.9972 0.58903 0.0
O28 O 0.46911 0.90276 0.94004 0.0
Cd29 Cd 0.48243 0.88308 0.03863 0.0
Cd30 Cd 0.51892 0.92454 0.02802 0.0
O31 O 0.50866 0.92485 0.91191 0.0
O32 O 0.46049 0.84721 0.03462 0.0
O33 O 0.507 0.84837 0.02589 0.0
C34 C 0.48384 0.83389 0.02274 0.0
C35 C 0.56284 0.92843 0.08777 0.0
C36 C 0.48376 0.9172 0.89315 0.0
C37 C 0.47369 0.93049 0.14437 0.0
O38 O 0.48924 0.94353 0.09659 0.0
O39 O 0.47106 0.90376 0.1395 0.0
O40 O 0.55307 0.9484 0.04475 0.0
O41 O 0.54914 0.90479 0.08955 0.0
O42 O 0.65012 0.47093 0.44101 0.0
Cd43 Cd 0.67156 0.48252 0.53876 0.0
Cd44 Cd 0.63077 0.52012 0.53852 0.0
O45 O 0.62817 0.51122 0.42198 0.0
O46 O 0.70831 0.46244 0.5272 0.0
O47 O 0.70478 0.50896 0.52675 0.0
C48 C 0.72031 0.48669 0.51835 0.0
C49 C 0.62641 0.56379 0.59968 0.0
C50 C 0.6348 0.48656 0.3988 0.0
C51 C 0.6261 0.47254 0.64934 0.0
O52 O 0.61276 0.48987 0.60708 0.0
O53 O 0.6526 0.46916 0.64005 0.0
O54 O 0.60615 0.55347 0.55855 0.0
O55 O 0.65048 0.55085 0.5989 0.0
O56 O 0.07282 0.90029 -0.01185 0.0
Cd57 Cd 0.06162 0.87885 0.88993 0.0
Cd58 Cd 0.02494 0.92075 0.88885 0.0
O59 O 0.03326 0.92381 0.00562 0.0
O60 O 0.0821 0.84238 0.9024 0.0
O61 O 0.03552 0.84525 0.90109 0.0
C62 C 0.05796 0.83005 0.91036 0.0
C63 C 0.9817 0.92519 0.82559 0.0
C64 C 0.05756 0.91634 0.02961 0.0
C65 C 0.07321 0.924 0.77945 0.0
O66 O 0.05599 0.93784 0.82106 0.0
O67 O 0.0759 0.89748 0.78906 0.0
O68 O 0.99197 0.94557 0.86638 0.0
O69 O 0.9944 0.90102 0.82783 0.0
O70 O 0.64486 0.07761 0.48387 0.0
Cd71 Cd 0.66543 0.06405 0.38673 0.0
Cd72 Cd 0.62256 0.02911 0.39157 0.0
O73 O 0.62051 0.03908 0.50784 0.0
O74 O 0.70233 0.08409 0.39593 0.0
O75 O 0.69866 0.03766 0.40101 0.0
C76 C 0.71425 0.05998 0.40735 0.0
C77 C 0.61893 0.98562 0.3296 0.0
C78 C 0.62893 0.06353 0.52839 0.0
C79 C 0.61992 0.07536 0.27715 0.0
O80 O 0.60569 0.05955 0.3217 0.0
O81 O 0.64665 0.07706 0.2849 0.0
O82 O 0.59831 0.9956 0.37013 0.0
O83 O 0.64294 0.99872 0.3321 0.0
O84 O 0.47305 0.64551 -0.00905 0.0
Cd85 Cd 0.48363 0.66755 0.89359 0.0
Cd86 Cd 0.52215 0.62603 0.89055 0.0
O87 O 0.5127 0.62182 0.00629 0.0
O88 O 0.46083 0.70256 0.90736 0.0
O89 O 0.50744 0.70285 0.90639 0.0
C90 C 0.48402 0.71646 0.91631 0.0
C91 C 0.56663 0.62098 0.83336 0.0
C92 C 0.48839 0.6291 0.03078 0.0
C93 C 0.4739 0.62248 0.77987 0.0
O94 O 0.49201 0.60905 0.81943 0.0
O95 O 0.46988 0.64871 0.7922 0.0
O96 O 0.5551 0.60071 0.87162 0.0
O97 O 0.55414 0.64525 0.8336 0.0
O98 O 0.90727 0.47388 0.49947 0.0
Cd99 Cd 0.88707 0.48488 0.39932 0.0
Cd100 Cd 0.92688 0.52245 0.4044 0.0
O101 O 0.92809 0.5146 0.52162 0.0
O102 O 0.85061 0.46403 0.40677 0.0
O103 O 0.8532 0.51061 0.40865 0.0
C104 C 0.83804 0.48801 0.41527 0.0
C105 C 0.9277 0.56473 0.3368 0.0
C106 C 0.92154 0.48983 0.54379 0.0
C107 C 0.93445 0.47559 0.29407 0.0
O108 O 0.94703 0.49238 0.33975 0.0
O109 O 0.9078 0.47218 0.29963 0.0
O110 O 0.94853 0.55739 0.38054 0.0
O111 O 0.90478 0.54982 0.33948 0.0
O112 O 0.97716 0.40452 -0.00011 0.0
Cd113 Cd 0.9873 0.38382 0.8996 0.0
Cd114 Cd 0.02542 0.42389 0.90323 0.0
O115 O 1.01795 0.42547 0.02057 0.0
O116 O 0.96421 0.34878 0.90834 0.0
O117 O 1.01084 0.34826 0.90862 0.0
C118 C 0.9873 0.33464 0.9162 0.0
C119 C 0.06776 0.42542 0.83521 0.0
C120 C 0.99323 0.41895 0.04348 0.0
C121 C 0.978 0.43115 0.79431 0.0
O122 O 0.99501 0.44373 0.83935 0.0
O123 O 0.97453 0.40454 0.80011 0.0
O124 O 0.06001 0.44611 0.87898 0.0
O125 O 0.0532 0.40229 0.83783 0.0
O126 O 0.14437 0.96845 0.48334 0.0
Cd127 Cd 0.16401 0.98216 0.38501 0.0
Cd128 Cd 0.12314 1.01818 0.39615 0.0
O129 O 0.12288 1.00821 0.51237 0.0
O130 O 0.20122 0.96257 0.38961 0.0
O131 O 0.19688 1.00892 0.39867 0.0
C132 C 0.21286 0.9868 0.40224 0.0
C133 C 0.12099 0.06138 0.33333 0.0
C134 C 0.13021 0.98323 0.53073 0.0
C135 C 0.11674 0.97322 0.27968 0.0
O136 O 0.10377 0.98855 0.32825 0.0
O137 O 0.14353 0.97073 0.28383 0.0
O138 O 0.10052 0.05288 0.37684 0.0
O139 O 0.14429 0.04704 0.33377 0.0
O140 O 0.57534 0.14844 -0.01587 0.0
Cd141 Cd 0.5619 0.16919 0.88741 0.0
Cd142 Cd 0.52618 0.12703 0.89283 0.0
O143 O 0.53629 0.12501 0.00882 0.0
O144 O 0.58237 0.2058 0.89678 0.0
O145 O 0.53586 0.20263 0.90266 0.0
C146 C 0.55838 0.21794 0.90895 0.0
C147 C 0.4823 0.12348 0.83307 0.0
C148 C 0.56095 0.13293 0.02895 0.0
C149 C 0.57227 0.1236 0.77721 0.0
O150 O 0.55622 0.10969 0.82191 0.0
O151 O 0.57452 0.15026 0.78519 0.0
O152 O 0.49245 0.10292 0.87324 0.0
O153 O 0.49553 0.1474 0.83459 0.0
O154 O 0.40244 0.57735 0.48513 0.0
Cd155 Cd 0.38204 0.56453 0.38699 0.0
Cd156 Cd 0.42338 0.52751 0.39534 0.0
O157 O 0.42475 0.5378 0.51149 0.0
O158 O 0.34614 0.58625 0.39386 0.0
O159 O 0.34753 0.53974 0.40039 0.0
C160 C 0.333 0.5628 0.4056 0.0
C161 C 0.42684 0.48417 0.33316 0.0
C162 C 0.41717 0.56262 0.53108 0.0
C163 C 0.42862 0.57273 0.27873 0.0
O164 O 0.44183 0.55689 0.32538 0.0
O165 O 0.40203 0.57619 0.28553 0.0
O166 O 0.44713 0.49353 0.37599 0.0
O167 O 0.40301 0.49759 0.33433 0.0
O168 O 0.97218 0.14712 0.93943 0.0
Cd169 Cd 0.98483 0.16773 0.03747 0.0
Cd170 Cd 1.02043 0.12414 0.033 0.0
O171 O 1.01052 0.12223 0.91671 0.0
O172 O 0.96276 0.20343 0.02875 0.0
O173 O 1.00931 0.20261 0.02489 0.0
C174 C 0.98613 0.21686 0.01852 0.0
C175 C 0.06433 0.11819 0.09221 0.0
C176 C 0.98629 0.13098 0.89541 0.0
C177 C 0.97342 0.1219 0.14657 0.0
O178 O 0.98964 0.10773 0.10284 0.0
O179 O 0.9715 0.14857 0.13847 0.0
O180 O 0.05298 0.09832 0.05165 0.0
O181 O 0.05217 0.14266 0.0924 0.0
O182 O 0.40033 0.97349 0.43581 0.0
Cd183 Cd 0.37863 0.98451 0.53356 0.0
Cd184 Cd 0.42009 1.02199 0.5354 0.0
O185 O 0.42339 1.01331 0.41878 0.0
O186 O 0.34232 0.96371 0.52004 0.0
O187 O 0.34482 1.01027 0.52154 0.0
C188 C 0.32983 0.98771 0.51163 0.0
C189 C 0.42489 0.06591 0.59557 0.0
C190 C 0.41624 0.98893 0.39464 0.0
C191 C 0.42374 0.97377 0.64511 0.0
O192 O 0.43735 0.99139 0.60431 0.0
O193 O 0.39729 0.97047 0.63461 0.0
O194 O 0.44516 0.05501 0.55571 0.0
O195 O 0.40071 0.05318 0.59514 0.0
O196 O 0.57924 0.4026 0.94447 0.0
Cd197 Cd 0.56505 0.38296 0.04217 0.0
Cd198 Cd 0.52986 0.42505 0.0327 0.0
O199 O 0.54024 0.42562 0.91666 0.0
O200 O 0.58433 0.34567 0.03575 0.0
O201 O 0.53796 0.35035 0.02759 0.0
C202 C 0.55999 0.33427 0.02294 0.0
C203 C 0.48575 0.42958 0.09128 0.0
C204 C 0.56496 0.41748 0.89783 0.0
C205 C 0.57541 0.42945 0.14923 0.0
O206 O 0.55999 0.44295 0.10211 0.0
O207 O 0.57733 0.40267 0.14374 0.0
O208 O 0.49627 0.44962 0.04983 0.0
O209 O 0.4989 0.40564 0.0925 0.0
O210 O 0.14584 0.5731 0.43267 0.0
Cd211 Cd 0.16641 0.56106 0.53108 0.0
Cd212 Cd 0.12401 0.52468 0.52614 0.0
O213 O 0.12207 0.5341 0.40967 0.0
O214 O 0.2016 0.58396 0.52279 0.0
O215 O 0.20189 0.53745 0.51877 0.0
C216 C 0.2156 0.56095 0.51246 0.0
C217 C 0.12075 0.48092 0.58665 0.0
C218 C 0.13029 0.55847 0.38834 0.0
C219 C 0.12 0.57152 0.63952 0.0
O220 O 0.10628 0.55495 0.59563 0.0
O221 O 0.14666 0.57403 0.63174 0.0
O222 O 0.10013 0.49085 0.5462 0.0
O223 O 0.14452 0.49445 0.58574 0.0
C224 C 0.08192 0.75775 -0.02117 0.0
C225 C 0.05653 0.74287 -0.00896 0.0
C226 C 0.08198 0.78554 0.95137 0.0
C227 C 0.05664 0.79993 0.93497 0.0
H228 H 0.10216 0.74781 -0.01018 0.0
H229 H 0.10224 0.79583 0.94349 0.0
S230 S 0.98417 0.77076 0.95734 0.0
N231 N 1.00516 0.74473 -0.01544 0.0
N232 N 1.00525 0.79716 0.93347 0.0
C233 C 0.03099 0.78544 0.94712 0.0
C234 C 0.03093 0.75693 -0.02495 0.0
C235 C 0.75878 0.08405 0.44864 0.0
C236 C 0.74427 0.05868 0.43317 0.0
C237 C 0.78639 0.08408 0.47775 0.0
C238 C 0.80099 0.05875 0.4925 0.0
H239 H 0.74869 0.10427 0.43891 0.0
H240 H 0.79641 0.10433 0.48797 0.0
S241 S 0.77275 0.98635 0.46193 0.0
N242 N 0.74665 1.00733 0.43517 0.0
N243 N 0.79879 1.0074 0.48923 0.0
C244 C 0.78685 0.03313 0.47729 0.0
C245 C 0.7585 0.03309 0.44778 0.0
C246 C 0.50898 0.7898 -0.02148 0.0
C247 C 0.48368 0.80353 -0.00037 0.0
C248 C 0.50894 0.76184 0.95073 0.0
C249 C 0.48358 0.74649 0.94246 0.0
H250 H 0.52901 0.80081 -0.01737 0.0
H251 H 0.52898 0.75224 0.93553 0.0
S252 S 0.41152 0.77239 -0.00848 0.0
N253 N 0.43256 0.7992 0.01178 0.0
N254 N 0.43245 0.7471 0.95932 0.0
C255 C 0.45815 0.75992 -0.03611 0.0
C256 C 0.45821 0.78826 -0.00743 0.0
C257 C 0.76532 0.46313 0.47874 0.0
C258 C 0.75046 0.48832 0.49381 0.0
C259 C 0.7932 0.46345 0.45154 0.0
C260 C 0.8077 0.48897 0.4383 0.0
H261 H 0.75534 0.44279 0.48753 0.0
H262 H 0.80352 0.44334 0.44166 0.0
S263 S 0.77847 0.56101 0.46799 0.0
N264 N 0.75235 0.53969 0.4927 0.0
N265 N 0.80493 0.54029 0.4421 0.0
C266 C 0.79314 0.51441 0.45282 0.0
C267 C 0.76456 0.51409 0.48048 0.0
C268 C 1.01192 0.28946 0.95321 0.0
C269 C 0.98662 0.30432 0.93933 0.0
C270 C 1.01165 0.26142 -0.01994 0.0
C271 C 0.98606 0.2471 -0.00548 0.0
H272 H 0.03218 0.29958 0.94383 0.0
H273 H 0.0317 0.25089 -0.01075 0.0
S274 S 0.9138 0.27641 -0.03283 0.0
N275 N 0.93516 0.30233 0.94176 0.0
N276 N 0.93466 0.25009 -0.00757 0.0
C277 C 0.9606 0.26175 -0.01915 0.0
C278 C 0.96088 0.29017 0.95316 0.0
C279 C 0.28586 0.96335 0.46706 0.0
C280 C 0.29982 0.98875 0.48559 0.0
C281 C 0.2582 0.96318 0.43825 0.0
C282 C 0.24301 0.9884 0.42683 0.0
H283 H 0.2964 0.94322 0.47429 0.0
H284 H 0.24858 0.94291 0.42573 0.0
S285 S 0.26975 0.06085 0.46577 0.0
N286 N 0.29634 0.04002 0.48973 0.0
N287 N 0.24414 0.0397 0.43618 0.0
C288 C 0.25665 1.01407 0.44486 0.0
C289 C 0.28503 1.01424 0.47411 0.0
C290 C 0.58301 0.26184 0.95252 0.0
C291 C 0.55745 0.24786 0.93573 0.0
C292 C 0.58338 0.28932 -0.01746 0.0
C293 C 0.5582 0.30431 -0.00313 0.0
H294 H 0.60312 0.25144 0.94315 0.0
H295 H 0.60376 0.29894 -0.00629 0.0
S296 S 0.48541 0.27749 -0.03702 0.0
N297 N 0.50609 0.25113 0.93612 0.0
N298 N 0.50678 0.30302 -0.00819 0.0
C299 C 0.53239 0.29068 -0.01962 0.0
C300 C 0.53201 0.26246 0.94999 0.0
C301 C 0.2886 0.53703 0.44444 0.0
C302 C 0.30281 0.56268 0.43043 0.0
C303 C 0.26066 0.53658 0.47239 0.0
C304 C 0.24582 0.56176 0.48798 0.0
H305 H 0.29914 0.51707 0.43402 0.0
H306 H 0.2506 0.51629 0.48138 0.0
S307 S 0.27351 0.63468 0.46211 0.0
N308 N 0.29977 0.61402 0.43485 0.0
N309 N 0.24772 0.61318 0.48764 0.0
C310 C 0.25987 0.58757 0.47461 0.0
C311 C 0.28818 0.58802 0.44573 0.0
C312 C 0.06246 0.59274 0.78111 0.0
C313 C 0.07403 0.61649 0.81845 0.0
C314 C 0.07736 0.57864 0.72267 0.0
C315 C 0.10448 0.58762 0.69948 0.0
H316 H 0.0422 0.58428 0.79897 0.0
H317 H 0.0678 0.56004 0.69704 0.0
S318 S 0.14278 0.65074 0.77197 0.0
N319 N 0.11322 0.64999 0.82265 0.0
N320 N 0.14122 0.62319 0.71351 0.0
C321 C 0.11579 0.61203 0.73383 0.0
C322 C 0.10054 0.62657 0.79293 0.0
C323 C 0.96521 0.0794 0.22887 0.0
C324 C 0.95705 0.10685 0.20672 0.0
C325 C 0.95081 0.06478 0.28711 0.0
C326 C 0.92759 0.07698 0.32538 0.0
H327 H 0.98337 0.0693 0.20247 0.0
H328 H 0.95863 0.04419 0.30398 0.0
S329 S 0.89558 0.14698 0.28227 0.0
N330 N 0.92284 0.1447 0.223 0.0
N331 N 0.8955 0.11725 0.33192 0.0
C332 C 0.91835 0.1039 0.30112 0.0
C333 C 0.93318 0.11885 0.24213 0.0
C334 C 0.48164 0.95194 0.7847 0.0
C335 C 0.46987 0.92858 0.82298 0.0
C336 C 0.46665 0.96608 0.72674 0.0
C337 C 0.43924 0.95749 0.70469 0.0
H338 H 0.50213 0.96014 0.8016 0.0
H339 H 0.47643 0.98441 0.70051 0.0
S340 S 0.40031 0.89533 0.78019 0.0
N341 N 0.43016 0.8958 0.8296 0.0
N342 N 0.402 0.92259 0.72103 0.0
C343 C 0.42773 0.93339 0.73995 0.0
C344 C 0.44306 0.91886 0.79879 0.0
C345 C 0.61313 0.43173 0.25023 0.0
C346 C 0.59131 0.44517 0.20938 0.0
C347 C 0.62806 0.44588 0.30843 0.0
C348 C 0.62166 0.47404 0.32877 0.0
H349 H 0.61864 0.40998 0.23773 0.0
H350 H 0.64424 0.43425 0.33915 0.0
S351 S 0.56727 0.51931 0.23685 0.0
N352 N 0.56473 0.48878 0.19112 0.0
N353 N 0.59278 0.51525 0.30084 0.0
C354 C 0.6005 0.48807 0.28669 0.0
C355 C 0.58531 0.47367 0.22711 0.0
C356 C 0.11245 0.93496 0.18083 0.0
C357 C 0.10041 0.95813 0.21935 0.0
C358 C 0.09768 0.92067 0.12263 0.0
C359 C 0.07031 0.92912 0.09983 0.0
H360 H 0.13356 0.92783 0.19534 0.0
H361 H 0.10825 0.90328 0.09386 0.0
S362 S 0.02893 0.98822 0.18444 0.0
N363 N 0.05908 0.98852 0.23247 0.0
N364 N 0.03142 0.96175 0.12253 0.0
C365 C 0.05766 0.95181 0.13944 0.0
C366 C 0.0727 0.96631 0.19914 0.0
C367 C 0.57945 0.08096 0.69413 0.0
C368 C 0.58819 0.10824 0.71657 0.0
C369 C 0.59359 0.06598 0.6359 0.0
C370 C 0.61714 0.07762 0.59796 0.0
H371 H 0.56106 0.07127 0.72042 0.0
H372 H 0.58536 0.04553 0.61886 0.0
S373 S 0.65052 0.14706 0.64153 0.0
N374 N 0.62317 0.1454 0.70059 0.0
N375 N 0.65004 0.11727 0.5918 0.0
C376 C 0.62688 0.10441 0.62235 0.0
C377 C 0.61231 0.11973 0.68127 0.0
C378 C 0.4365 0.61408 0.19217 0.0
C379 C 0.44466 0.58714 0.21731 0.0
C380 C 0.45182 0.62815 0.13464 0.0
C381 C 0.47574 0.61571 0.09977 0.0
H382 H 0.41821 0.62441 0.21722 0.0
H383 H 0.44447 0.64875 0.11622 0.0
S384 S 0.50447 0.54447 0.142 0.0
N385 N 0.47751 0.54802 0.20181 0.0
N386 N 0.50617 0.57434 0.09316 0.0
C387 C 0.48419 0.58878 0.12491 0.0
C388 C 0.46864 0.57451 0.18367 0.0
C389 C 0.93952 0.43544 0.69607 0.0
C390 C 0.96248 0.44766 0.73523 0.0
C391 C 0.92535 0.45005 0.63755 0.0
C392 C 0.93366 0.47746 0.61517 0.0
H393 H 0.93261 0.41421 0.70984 0.0
H394 H 0.90826 0.43929 0.60795 0.0
S395 S 0.99164 0.51968 0.70266 0.0
N396 N 0.99213 0.4895 0.75021 0.0
N397 N 0.96555 0.51682 0.63976 0.0
C398 C 0.95588 0.49043 0.65596 0.0
C399 C 0.97031 0.47556 0.7159 0.0
C400 C 0.95395 0.42232 0.13924 0.0
C401 C 0.98098 0.43127 0.11489 0.0
C402 C 0.93925 0.43655 0.19766 0.0
C403 C 0.95102 0.46019 0.23477 0.0
H404 H 0.94355 0.40465 0.11127 0.0
H405 H 0.91832 0.42912 0.2131 0.0
S406 S 1.02181 0.4914 0.1961 0.0
N407 N 1.01943 0.46464 0.13508 0.0
N408 N 0.99193 0.49132 0.24544 0.0
C409 C 0.97853 0.46873 0.2134 0.0
C410 C 0.99349 0.45425 0.15353 0.0
C411 C 0.08146 0.96682 0.6983 0.0
C412 C 0.08965 0.93929 0.71976 0.0
C413 C 0.09571 0.9816 0.6401 0.0
C414 C 0.11876 0.96948 0.60101 0.0
H415 H 0.06336 0.97686 0.72515 0.0
H416 H 0.08782 1.00221 0.62369 0.0
S417 S 0.15092 0.89939 0.642 0.0
N418 N 0.12385 0.9015 0.70198 0.0
N419 N 0.15084 0.92926 0.59295 0.0
C420 C 0.1281 0.94251 0.6246 0.0
C421 C 0.11346 0.92741 0.68367 0.0
C422 C 0.57734 0.08342 0.19472 0.0
C423 C 0.60486 0.09156 0.21679 0.0
C424 C 0.56264 0.09778 0.13661 0.0
C425 C 0.57483 0.12097 0.09842 0.0
H426 H 0.56724 0.0653 0.22117 0.0
H427 H 0.54198 0.09 0.11984 0.0
S428 S 0.64507 0.15284 0.14111 0.0
N429 N 0.64282 0.12565 0.20032 0.0
N430 N 0.61522 0.15295 0.09168 0.0
C431 C 0.60185 0.13015 0.12248 0.0
C432 C 0.61689 0.11535 0.1813 0.0
C433 C 0.45287 0.56508 0.63743 0.0
C434 C 0.42878 0.57633 0.60134 0.0
C435 C 0.46704 0.5801 0.69551 0.0
C436 C 0.45774 0.607 0.71983 0.0
H437 H 0.46157 0.54504 0.61871 0.0
H438 H 0.48592 0.57076 0.72007 0.0
S439 S 0.39361 0.6443 0.65057 0.0
N440 N 0.39463 0.61489 0.59919 0.0
N441 N 0.42146 0.64311 0.70797 0.0
C442 C 0.43295 0.61794 0.6867 0.0
C443 C 0.41841 0.60259 0.62776 0.0
C444 C 0.96846 0.0812 0.73058 0.0
C445 C 0.94146 0.09044 0.70719 0.0
C446 C 0.98356 0.09529 0.7887 0.0
C447 C 0.97233 0.11929 0.82551 0.0
H448 H 0.97778 0.06243 0.70524 0.0
H449 H 1.00372 0.08665 0.80666 0.0
S450 S 0.90397 0.15417 0.77855 0.0
N451 N 0.90516 0.12644 0.72067 0.0
N452 N 0.93353 0.15323 0.82917 0.0
C453 C 0.94591 0.12958 0.79993 0.0
C454 C 0.93046 0.11505 0.74117 0.0
C455 C 0.42081 0.94907 0.30087 0.0
C456 C 0.42916 0.97639 0.32437 0.0
C457 C 0.43522 0.93449 0.24257 0.0
C458 C 0.45845 0.94668 0.20468 0.0
H459 H 0.40339 0.93839 0.32913 0.0
H460 H 0.42817 0.9134 0.22752 0.0
S461 S 0.48828 1.01815 0.2415 0.0
N462 N 0.46172 1.01542 0.30298 0.0
N463 N 0.48873 0.98812 0.19283 0.0
C464 C 0.46652 0.97436 0.22556 0.0
C465 C 0.45187 0.9892 0.28536 0.0
C466 C 0.56792 0.45232 0.78979 0.0
C467 C 0.5791 0.42862 0.82776 0.0
C468 C 0.58319 0.46608 0.73164 0.0
C469 C 0.61029 0.45674 0.70919 0.0
H470 H 0.54769 0.46105 0.807 0.0
H471 H 0.5739 0.48469 0.7056 0.0
S472 S 0.64762 0.39353 0.78377 0.0
N473 N 0.61789 0.39477 0.83366 0.0
N474 N 0.64659 0.42086 0.72479 0.0
C475 C 0.62121 0.43234 0.74422 0.0
C476 C 0.60559 0.4182 0.80319 0.0
C477 C 0.09472 0.5603 0.28135 0.0
C478 C 0.11855 0.57197 0.31803 0.0
C479 C 0.08044 0.57506 0.22314 0.0
C480 C 0.08934 0.60214 0.19958 0.0
H481 H 0.08631 0.54009 0.2996 0.0
H482 H 0.06177 0.56546 0.19801 0.0
S483 S 0.15269 0.64056 0.2701 0.0
N484 N 0.15209 0.61113 0.32103 0.0
N485 N 0.12495 0.63888 0.2124 0.0
C486 C 0.11385 0.61351 0.23322 0.0
C487 C 0.12857 0.5984 0.29205 0.0
C488 C 0.95189 0.6076 0.28519 0.0
C489 C 0.933 0.58503 0.27338 0.0
C490 C 0.9652 0.62102 0.22259 0.0
C491 C 0.96073 0.61168 0.14624 0.0
H492 H 0.95813 0.61344 0.34332 0.0
H493 H 0.98134 0.63666 0.23486 0.0
S494 S 0.91027 0.55626 0.08363 0.0
N495 N 0.90761 0.55663 0.17883 0.0
N496 N 0.93354 0.58101 0.0617 0.0
C497 C 0.93996 0.59098 0.13331 0.0
C498 C 0.92582 0.57787 0.19685 0.0
C499 C 0.92465 0.96565 0.72243 0.0
C500 C 0.93224 0.96143 0.64459 0.0
C501 C 0.93884 0.95141 0.78211 0.0
C502 C 0.96037 0.93179 0.76574 0.0
H503 H 0.90989 0.98224 0.73794 0.0
H504 H 0.93448 0.95739 0.84139 0.0
S505 S 0.98451 0.9097 0.5708 0.0
N506 N 0.96022 0.934 0.55396 0.0
N507 N 0.98593 0.90623 0.66571 0.0
C508 C 0.96574 0.92501 0.6879 0.0
C509 C 0.95191 0.94012 0.6273 0.0
C510 C 0.57931 0.92826 0.22415 0.0
C511 C 0.58458 0.93531 0.14646 0.0
C512 C 0.59284 0.94276 0.28472 0.0
C513 C 0.61278 0.96412 0.2696 0.0
H514 H 0.56248 0.91363 0.23854 0.0
H515 H 0.5861 0.93874 0.34351 0.0
S516 S 0.63747 0.98697 0.07604 0.0
N517 N 0.6133 0.96265 0.05768 0.0
N518 N 0.6397 0.98898 0.17119 0.0
C519 C 0.62055 0.969 0.19225 0.0
C520 C 0.60618 0.95484 0.13065 0.0
C521 C 0.60019 0.60699 0.64089 0.0
C522 C 0.61964 0.58546 0.65858 0.0
C523 C 0.58567 0.62151 0.69965 0.0
C524 C 0.58942 0.61427 0.77782 0.0
H525 H 0.59454 0.61108 0.58128 0.0
H526 H 0.5692 0.63625 0.68319 0.0
S527 S 0.64047 0.56214 0.85497 0.0
N528 N 0.64451 0.56028 0.76024 0.0
N529 N 0.61618 0.5866 0.87022 0.0
C530 C 0.61055 0.5946 0.79643 0.0
C531 C 0.62595 0.58044 0.7368 0.0
C532 C 0.1239 0.46359 0.7219 0.0
C533 C 0.11478 0.45903 0.64543 0.0
C534 C 0.11048 0.45013 0.78425 0.0
C535 C 0.08814 0.43099 0.77203 0.0
H536 H 0.13935 0.47989 0.73446 0.0
H537 H 0.11612 0.45641 0.84249 0.0
S538 S 0.06004 0.40801 0.58179 0.0
N539 N 0.08459 0.43155 0.56032 0.0
N540 N 0.06021 0.40533 0.67696 0.0
C541 C 0.08122 0.42377 0.69537 0.0
C542 C 0.09433 0.43806 0.63209 0.0
C543 C 0.08256 0.11917 0.22701 0.0
C544 C 0.08637 0.11087 0.14952 0.0
C545 C 0.09626 0.10483 0.28742 0.0
C546 C 0.11494 0.08237 0.27218 0.0
H547 H 0.06668 0.13479 0.24176 0.0
H548 H 0.09058 0.10994 0.34648 0.0
S549 S 0.13559 0.05577 0.07836 0.0
N550 N 0.11239 0.08098 0.06035 0.0
N551 N 0.13913 0.05493 0.17331 0.0
C552 C 0.1213 0.07609 0.19455 0.0
C553 C 0.10674 0.0901 0.13326 0.0
C554 C 0.4245 0.08355 0.73081 0.0
C555 C 0.43159 0.08815 0.65285 0.0
C556 C 0.43907 0.09752 0.79048 0.0
C557 C 0.46052 0.11722 0.77403 0.0
H558 H 0.40984 0.06687 0.74616 0.0
H559 H 0.43509 0.09125 0.84966 0.0
S560 S 0.48339 0.14023 0.57899 0.0
N561 N 0.45899 0.116 0.5622 0.0
N562 N 0.48543 0.14327 0.67396 0.0
C563 C 0.46537 0.12438 0.69626 0.0
C564 C 0.45115 0.10955 0.63563 0.0
C565 C 0.46688 0.42767 0.22547 0.0
C566 C 0.46337 0.43635 0.14827 0.0
C567 C 0.45259 0.4414 0.28609 0.0
C568 C 0.43357 0.46359 0.27129 0.0
H569 H 0.48292 0.41222 0.24004 0.0
H570 H 0.45802 0.43606 0.34509 0.0
S571 S 0.41375 0.49119 0.07825 0.0
N572 N 0.43741 0.46641 0.05976 0.0
N573 N 0.40962 0.49134 0.17305 0.0
C574 C 0.42761 0.47028 0.19379 0.0
C575 C 0.44276 0.45689 0.13234 0.0
loop_
_geom_bond_atom_site_label_1
_geom_bond_atom_site_label_2
_geom_bond_distance
_geom_bond_site_symmetry_2
_ccdc_geom_bond_type
O0 Cd1 2.223 . S
O0 C8 1.315 . S
Cd1 O0 2.223 . S
Cd1 O4 2.297 . S
Cd1 O5 2.439 . S
Cd1 O11 2.240 . S
Cd2 O3 2.240 . S
Cd2 O10 2.223 . S
Cd2 O12 2.297 1_455 S
Cd2 O13 2.439 1_455 S
O3 Cd2 2.240 . S
O3 C8 1.279 . S
O4 Cd1 2.297 . S
O4 C6 1.247 . S
O5 Cd1 2.439 . S
O5 C6 1.208 . S
C6 O4 1.247 . S
C6 O5 1.208 . S
C7 O12 1.247 . S
C7 O13 1.208 . S
C8 O0 1.315 . S
C8 O3 1.279 . S
C9 O10 1.315 . S
C9 O11 1.279 . S
O10 Cd2 2.223 . S
O10 C9 1.315 . S
O11 Cd1 2.240 . S
O11 C9 1.279 . S
O12 Cd2 2.297 1_655 S
O12 C7 1.247 . S
O13 Cd2 2.439 1_655 S
O13 C7 1.208 . S
O14 Cd15 2.223 . S
O14 C22 1.315 . S
Cd15 O14 2.223 . S
Cd15 O18 2.297 . S
Cd15 O19 2.439 . S
Cd15 O25 2.240 . S
Cd16 O17 2.240 . S
Cd16 O24 2.223 . S
Cd16 O26 2.297 1_545 S
Cd16 O27 2.439 1_545 S
O17 Cd16 2.240 . S
O17 C22 1.279 . S
O18 Cd15 2.297 . S
O18 C20 1.247 . S
O19 Cd15 2.439 . S
O19 C20 1.208 . S
C20 O18 1.247 . S
C20 O19 1.208 . S
C21 O26 1.247 . S
C21 O27 1.208 . S
C22 O14 1.315 . S
C22 O17 1.279 . S
C23 O24 1.315 . S
C23 O25 1.279 . S
O24 Cd16 2.223 . S
O24 C23 1.315 . S
O25 Cd15 2.240 . S
O25 C23 1.279 . S
O26 Cd16 2.297 1_565 S
O26 C21 1.247 . S
O27 Cd16 2.439 1_565 S
O27 C21 1.208 . S
O28 Cd29 2.223 . S
O28 C36 1.315 . S
Cd29 O28 2.223 . S
Cd29 O32 2.297 . S
Cd29 O33 2.439 . S
Cd29 O39 2.240 . S
Cd30 O31 2.240 . S
Cd30 O38 2.223 . S
Cd30 O40 2.297 . S
Cd30 O41 2.439 . S
O31 Cd30 2.240 . S
O31 C36 1.279 . S
O32 Cd29 2.297 . S
O32 C34 1.247 . S
O33 Cd29 2.439 . S
O33 C34 1.208 . S
C34 O32 1.247 . S
C34 O33 1.208 . S
C35 O40 1.247 . S
C35 O41 1.208 . S
C36 O28 1.315 . S
C36 O31 1.279 . S
C37 O38 1.315 . S
C37 O39 1.279 . S
O38 Cd30 2.223 . S
O38 C37 1.315 . S
O39 Cd29 2.240 . S
O39 C37 1.279 . S
O40 Cd30 2.297 . S
O40 C35 1.247 . S
O41 Cd30 2.439 . S
O41 C35 1.208 . S
O42 Cd43 2.223 . S
O42 C50 1.315 . S
Cd43 O42 2.223 . S
Cd43 O46 2.297 . S
Cd43 O47 2.439 . S
Cd43 O53 2.240 . S
Cd44 O45 2.240 . S
Cd44 O52 2.223 . S
Cd44 O54 2.297 . S
Cd44 O55 2.439 . S
O45 Cd44 2.240 . S
O45 C50 1.279 . S
O46 Cd43 2.297 . S
O46 C48 1.247 . S
O47 Cd43 2.439 . S
O47 C48 1.208 . S
C48 O46 1.247 . S
C48 O47 1.208 . S
C49 O54 1.247 . S
C49 O55 1.208 . S
C50 O42 1.315 . S
C50 O45 1.279 . S
C51 O52 1.315 . S
C51 O53 1.279 . S
O52 Cd44 2.223 . S
O52 C51 1.315 . S
O53 Cd43 2.240 . S
O53 C51 1.279 . S
O54 Cd44 2.297 . S
O54 C49 1.247 . S
O55 Cd44 2.439 . S
O55 C49 1.208 . S
O56 Cd57 2.223 . S
O56 C64 1.315 . S
Cd57 O56 2.223 . S
Cd57 O60 2.297 . S
Cd57 O61 2.439 . S
Cd57 O67 2.240 . S
Cd58 O59 2.240 . S
Cd58 O66 2.223 . S
Cd58 O68 2.297 1_455 S
Cd58 O69 2.439 1_455 S
O59 Cd58 2.240 . S
O59 C64 1.279 . S
O60 Cd57 2.297 . S
O60 C62 1.247 . S
O61 Cd57 2.439 . S
O61 C62 1.208 . S
C62 O60 1.247 . S
C62 O61 1.208 . S
C63 O68 1.247 . S
C63 O69 1.208 . S
C64 O56 1.315 . S
C64 O59 1.279 . S
C65 O66 1.315 . S
C65 O67 1.279 . S
O66 Cd58 2.223 . S
O66 C65 1.315 . S
O67 Cd57 2.240 . S
O67 C65 1.279 . S
O68 Cd58 2.297 1_655 S
O68 C63 1.247 . S
O69 Cd58 2.439 1_655 S
O69 C63 1.208 . S
O70 Cd71 2.223 . S
O70 C78 1.315 . S
Cd71 O70 2.223 . S
Cd71 O74 2.297 . S
Cd71 O75 2.439 . S
Cd71 O81 2.240 . S
Cd72 O73 2.240 . S
Cd72 O80 2.223 . S
Cd72 O82 2.297 1_545 S
Cd72 O83 2.439 1_545 S
O73 Cd72 2.240 . S
O73 C78 1.279 . S
O74 Cd71 2.297 . S
O74 C76 1.247 . S
O75 Cd71 2.439 . S
O75 C76 1.208 . S
C76 O74 1.247 . S
C76 O75 1.208 . S
C77 O82 1.247 . S
C77 O83 1.208 . S
C78 O70 1.315 . S
C78 O73 1.279 . S
C79 O80 1.315 . S
C79 O81 1.279 . S
O80 Cd72 2.223 . S
O80 C79 1.315 . S
O81 Cd71 2.240 . S
O81 C79 1.279 . S
O82 Cd72 2.297 1_565 S
O82 C77 1.247 . S
O83 Cd72 2.439 1_565 S
O83 C77 1.208 . S
O84 Cd85 2.223 . S
O84 C92 1.315 . S
Cd85 O84 2.223 . S
Cd85 O88 2.297 . S
Cd85 O89 2.439 . S
Cd85 O95 2.240 . S
Cd86 O87 2.240 . S
Cd86 O94 2.223 . S
Cd86 O96 2.297 . S
Cd86 O97 2.439 . S
O87 Cd86 2.240 . S
O87 C92 1.279 . S
O88 Cd85 2.297 . S
O88 C90 1.247 . S
O89 Cd85 2.439 . S
O89 C90 1.208 . S
C90 O88 1.247 . S
C90 O89 1.208 . S
C91 O96 1.247 . S
C91 O97 1.208 . S
C92 O84 1.315 . S
C92 O87 1.279 . S
C93 O94 1.315 . S
C93 O95 1.279 . S
O94 Cd86 2.223 . S
O94 C93 1.315 . S
O95 Cd85 2.240 . S
O95 C93 1.279 . S
O96 Cd86 2.297 . S
O96 C91 1.247 . S
O97 Cd86 2.439 . S
O97 C91 1.208 . S
O98 Cd99 2.223 . S
O98 C106 1.315 . S
Cd99 O98 2.223 . S
Cd99 O102 2.297 . S
Cd99 O103 2.439 . S
Cd99 O109 2.240 . S
Cd100 O101 2.240 . S
Cd100 O108 2.223 . S
Cd100 O110 2.297 . S
Cd100 O111 2.439 . S
O101 Cd100 2.240 . S
O101 C106 1.279 . S
O102 Cd99 2.297 . S
O102 C104 1.247 . S
O103 Cd99 2.439 . S
O103 C104 1.208 . S
C104 O102 1.247 . S
C104 O103 1.208 . S
C105 O110 1.247 . S
C105 O111 1.208 . S
C106 O98 1.315 . S
C106 O101 1.279 . S
C107 O108 1.315 . S
C107 O109 1.279 . S
O108 Cd100 2.223 . S
O108 C107 1.315 . S
O109 Cd99 2.240 . S
O109 C107 1.279 . S
O110 Cd100 2.297 . S
O110 C105 1.247 . S
O111 Cd100 2.439 . S
O111 C105 1.208 . S
O112 Cd113 2.223 . S
O112 C120 1.315 . S
Cd113 O112 2.223 . S
Cd113 O116 2.297 . S
Cd113 O117 2.439 . S
Cd113 O123 2.240 . S
Cd114 O115 2.240 . S
Cd114 O122 2.223 . S
Cd114 O124 2.297 1_655 S
Cd114 O125 2.439 1_655 S
O115 Cd114 2.240 . S
O115 C120 1.279 . S
O116 Cd113 2.297 . S
O116 C118 1.247 . S
O117 Cd113 2.439 . S
O117 C118 1.208 . S
C118 O116 1.247 . S
C118 O117 1.208 . S
C119 O124 1.247 . S
C119 O125 1.208 . S
C120 O112 1.315 . S
C120 O115 1.279 . S
C121 O122 1.315 . S
C121 O123 1.279 . S
O122 Cd114 2.223 . S
O122 C121 1.315 . S
O123 Cd113 2.240 . S
O123 C121 1.279 . S
O124 Cd114 2.297 1_455 S
O124 C119 1.247 . S
O125 Cd114 2.439 1_455 S
O125 C119 1.208 . S
O126 Cd127 2.223 . S
O126 C134 1.315 . S
Cd127 O126 2.223 . S
Cd127 O130 2.297 . S
Cd127 O131 2.439 . S
Cd127 O137 2.240 . S
Cd128 O129 2.240 . S
Cd128 O136 2.223 . S
Cd128 O138 2.297 1_565 S
Cd128 O139 2.439 1_565 S
O129 Cd128 2.240 . S
O129 C134 1.279 . S
O130 Cd127 2.297 . S
O130 C132 1.247 . S
O131 Cd127 2.439 . S
O131 C132 1.208 . S
C132 O130 1.247 . S
C132 O131 1.208 . S
C133 O138 1.247 . S
C133 O139 1.208 . S
C134 O126 1.315 . S
C134 O129 1.279 . S
C135 O136 1.315 . S
C135 O137 1.279 . S
O136 Cd128 2.223 . S
O136 C135 1.315 . S
O137 Cd127 2.240 . S
O137 C135 1.279 . S
O138 Cd128 2.297 1_545 S
O138 C133 1.247 . S
O139 Cd128 2.439 1_545 S
O139 C133 1.208 . S
O140 Cd141 2.223 . S
O140 C148 1.315 . S
Cd141 O140 2.223 . S
Cd141 O144 2.297 . S
Cd141 O145 2.439 . S
Cd141 O151 2.240 . S
Cd142 O143 2.240 . S
Cd142 O150 2.223 . S
Cd142 O152 2.297 . S
Cd142 O153 2.439 . S
O143 Cd142 2.240 . S
O143 C148 1.279 . S
O144 Cd141 2.297 . S
O144 C146 1.247 . S
O145 Cd141 2.439 . S
O145 C146 1.208 . S
C146 O144 1.247 . S
C146 O145 1.208 . S
C147 O152 1.247 . S
C147 O153 1.208 . S
C148 O140 1.315 . S
C148 O143 1.279 . S
C149 O150 1.315 . S
C149 O151 1.279 . S
O150 Cd142 2.223 . S
O150 C149 1.315 . S
O151 Cd141 2.240 . S
O151 C149 1.279 . S
O152 Cd142 2.297 . S
O152 C147 1.247 . S
O153 Cd142 2.439 . S
O153 C147 1.208 . S
O154 Cd155 2.223 . S
O154 C162 1.315 . S
Cd155 O154 2.223 . S
Cd155 O158 2.297 . S
Cd155 O159 2.439 . S
Cd155 O165 2.240 . S
Cd156 O157 2.240 . S
Cd156 O164 2.223 . S
Cd156 O166 2.297 . S
Cd156 O167 2.439 . S
O157 Cd156 2.240 . S
O157 C162 1.279 . S
O158 Cd155 2.297 . S
O158 C160 1.247 . S
O159 Cd155 2.439 . S
O159 C160 1.208 . S
C160 O158 1.247 . S
C160 O159 1.208 . S
C161 O166 1.247 . S
C161 O167 1.208 . S
C162 O154 1.315 . S
C162 O157 1.279 . S
C163 O164 1.315 . S
C163 O165 1.279 . S
O164 Cd156 2.223 . S
O164 C163 1.315 . S
O165 Cd155 2.240 . S
O165 C163 1.279 . S
O166 Cd156 2.297 . S
O166 C161 1.247 . S
O167 Cd156 2.439 . S
O167 C161 1.208 . S
O168 Cd169 2.223 . S
O168 C176 1.315 . S
Cd169 O168 2.223 . S
Cd169 O172 2.297 . S
Cd169 O173 2.439 . S
Cd169 O179 2.240 . S
Cd170 O171 2.240 . S
Cd170 O178 2.223 . S
Cd170 O180 2.297 1_655 S
Cd170 O181 2.439 1_655 S
O171 Cd170 2.240 . S
O171 C176 1.279 . S
O172 Cd169 2.297 . S
O172 C174 1.247 . S
O173 Cd169 2.439 . S
O173 C174 1.208 . S
C174 O172 1.247 . S
C174 O173 1.208 . S
C175 O180 1.247 . S
C175 O181 1.208 . S
C176 O168 1.315 . S
C176 O171 1.279 . S
C177 O178 1.315 . S
C177 O179 1.279 . S
O178 Cd170 2.223 . S
O178 C177 1.315 . S
O179 Cd169 2.240 . S
O179 C177 1.279 . S
O180 Cd170 2.297 1_455 S
O180 C175 1.247 . S
O181 Cd170 2.439 1_455 S
O181 C175 1.208 . S
O182 Cd183 2.223 . S
O182 C190 1.315 . S
Cd183 O182 2.223 . S
Cd183 O186 2.297 . S
Cd183 O187 2.439 . S
Cd183 O193 2.240 . S
Cd184 O185 2.240 . S
Cd184 O192 2.223 . S
Cd184 O194 2.297 1_565 S
Cd184 O195 2.439 1_565 S
O185 Cd184 2.240 . S
O185 C190 1.279 . S
O186 Cd183 2.297 . S
O186 C188 1.247 . S
O187 Cd183 2.439 . S
O187 C188 1.208 . S
C188 O186 1.247 . S
C188 O187 1.208 . S
C189 O194 1.247 . S
C189 O195 1.208 . S
C190 O182 1.315 . S
C190 O185 1.279 . S
C191 O192 1.315 . S
C191 O193 1.279 . S
O192 Cd184 2.223 . S
O192 C191 1.315 . S
O193 Cd183 2.240 . S
O193 C191 1.279 . S
O194 Cd184 2.297 1_545 S
O194 C189 1.247 . S
O195 Cd184 2.439 1_545 S
O195 C189 1.208 . S
O196 Cd197 2.223 . S
O196 C204 1.315 . S
Cd197 O196 2.223 . S
Cd197 O200 2.297 . S
Cd197 O201 2.439 . S
Cd197 O207 2.240 . S
Cd198 O199 2.240 . S
Cd198 O206 2.223 . S
Cd198 O208 2.297 . S
Cd198 O209 2.439 . S
O199 Cd198 2.240 . S
O199 C204 1.279 . S
O200 Cd197 2.297 . S
O200 C202 1.247 . S
O201 Cd197 2.439 . S
O201 C202 1.208 . S
C202 O200 1.247 . S
C202 O201 1.208 . S
C203 O208 1.247 . S
C203 O209 1.208 . S
C204 O196 1.315 . S
C204 O199 1.279 . S
C205 O206 1.315 . S
C205 O207 1.279 . S
O206 Cd198 2.223 . S
O206 C205 1.315 . S
O207 Cd197 2.240 . S
O207 C205 1.279 . S
O208 Cd198 2.297 . S
O208 C203 1.247 . S
O209 Cd198 2.439 . S
O209 C203 1.208 . S
O210 Cd211 2.223 . S
O210 C218 1.315 . S
Cd211 O210 2.223 . S
Cd211 O214 2.297 . S
Cd211 O215 2.439 . S
Cd211 O221 2.240 . S
Cd212 O213 2.240 . S
Cd212 O220 2.223 . S
Cd212 O222 2.297 . S
Cd212 O223 2.439 . S
O213 Cd212 2.240 . S
O213 C218 1.279 . S
O214 Cd211 2.297 . S
O214 C216 1.247 . S
O215 Cd211 2.439 . S
O215 C216 1.208 . S
C216 O214 1.247 . S
C216 O215 1.208 . S
C217 O222 1.247 . S
C217 O223 1.208 . S
C218 O210 1.315 . S
C218 O213 1.279 . S
C219 O220 1.315 . S
C219 O221 1.279 . S
O220 Cd212 2.223 . S
O220 C219 1.315 . S
O221 Cd211 2.240 . S
O221 C219 1.279 . S
O222 Cd212 2.297 . S
O222 C217 1.247 . S
O223 Cd212 2.439 . S
O223 C217 1.208 . S
C224 C225 1.369 . S
C224 C226 1.419 . S
C224 H228 0.930 . S
C225 C224 1.369 . S
C225 C234 1.429 1_454 S
C226 C224 1.419 . S
C226 C227 1.363 1_554 S
C226 H229 0.929 . S
C227 C226 1.363 1_556 S
C227 C233 1.428 1_455 S
H228 C224 0.930 . S
H229 C226 0.929 . S
S230 N231 1.613 . S
S230 N232 1.610 . S
N231 S230 1.613 . S
N231 C234 1.350 . S
N232 S230 1.610 . S
N232 C233 1.351 . S
C233 C227 1.428 1_655 S
C233 N232 1.351 . S
C233 C234 1.434 . S
C234 C225 1.429 1_656 S
C234 N231 1.350 . S
C234 C233 1.434 . S
C235 C236 1.369 . S
C235 C237 1.419 . S
C235 H239 0.930 . S
C236 C235 1.369 . S
C236 C245 1.429 . S
C237 C235 1.419 . S
C237 C238 1.363 . S
C237 H240 0.929 . S
C238 C237 1.363 . S
C238 C244 1.428 . S
H239 C235 0.930 . S
H240 C237 0.929 . S
S241 N242 1.613 . S
S241 N243 1.610 . S
N242 S241 1.613 . S
N242 C245 1.350 . S
N243 S241 1.610 . S
N243 C244 1.351 . S
C244 C238 1.428 . S
C244 N243 1.351 . S
C244 C245 1.434 . S
C245 C236 1.429 . S
C245 N242 1.350 . S
C245 C244 1.434 . S
C246 C247 1.369 1_556 S
C246 C248 1.419 . S
C246 H250 0.930 . S
C247 C246 1.369 1_554 S
C247 C256 1.429 . S
C248 C246 1.419 . S
C248 C249 1.363 . S
C248 H251 0.929 . S
C249 C248 1.363 . S
C249 C255 1.428 1_556 S
H250 C246 0.930 . S
H251 C248 0.929 . S
S252 N253 1.613 . S
S252 N254 1.610 . S
N253 S252 1.613 . S
N253 C256 1.350 . S
N254 S252 1.610 . S
N254 C255 1.351 . S
C255 C249 1.428 1_554 S
C255 N254 1.351 . S
C255 C256 1.434 . S
C256 C247 1.429 . S
C256 N253 1.350 . S
C256 C255 1.434 . S
C257 C258 1.369 . S
C257 C259 1.419 . S
C257 H261 0.930 . S
C258 C257 1.369 . S
C258 C267 1.429 . S
C259 C257 1.419 . S
C259 C260 1.363 . S
C259 H262 0.929 . S
C260 C259 1.363 . S
C260 C266 1.428 . S
H261 C257 0.930 . S
H262 C259 0.929 . S
S263 N264 1.613 . S
S263 N265 1.610 . S
N264 S263 1.613 . S
N264 C267 1.350 . S
N265 S263 1.610 . S
N265 C266 1.351 . S
C266 C260 1.428 . S
C266 N265 1.351 . S
C266 C267 1.434 . S
C267 C258 1.429 . S
C267 N264 1.350 . S
C267 C266 1.434 . S
C268 C269 1.367 . S
C268 C270 1.419 1_655 S
C268 H272 0.932 1_655 S
C269 C268 1.367 . S
C269 C278 1.429 1_556 S
C270 C268 1.419 1_455 S
C270 C271 1.365 1_456 S
C270 H273 0.928 . S
C271 C270 1.365 1_654 S
C271 C277 1.428 . S
H272 C268 0.932 1_455 S
H273 C270 0.928 . S
S274 N275 1.613 . S
S274 N276 1.610 . S
N275 S274 1.613 . S
N275 C278 1.350 . S
N276 S274 1.610 . S
N276 C277 1.351 . S
C277 C271 1.428 . S
C277 N276 1.351 . S
C277 C278 1.434 . S
C278 C269 1.429 1_554 S
C278 N275 1.350 . S
C278 C277 1.434 . S
C279 C280 1.369 . S
C279 C281 1.419 . S
C279 H283 0.930 . S
C280 C279 1.369 . S
C280 C289 1.429 . S
C281 C279 1.419 . S
C281 C282 1.363 . S
C281 H284 0.929 . S
C282 C281 1.363 . S
C282 C288 1.428 . S
H283 C279 0.930 . S
H284 C281 0.929 . S
S285 N286 1.613 . S
S285 N287 1.610 . S
N286 S285 1.613 . S
N286 C289 1.350 1_545 S
N287 S285 1.610 . S
N287 C288 1.351 1_545 S
C288 C282 1.428 . S
C288 N287 1.351 1_565 S
C288 C289 1.434 . S
C289 C280 1.429 . S
C289 N286 1.350 1_565 S
C289 C288 1.434 . S
C290 C291 1.369 1_554 S
C290 C292 1.419 . S
C290 H294 0.930 . S
C291 C290 1.369 1_556 S
C291 C300 1.429 . S
C292 C290 1.419 . S
C292 C293 1.363 . S
C292 H295 0.929 . S
C293 C292 1.363 . S
C293 C299 1.428 1_554 S
H294 C290 0.930 . S
H295 C292 0.929 . S
S296 N297 1.613 . S
S296 N298 1.610 . S
N297 S296 1.613 . S
N297 C300 1.350 . S
N298 S296 1.610 . S
N298 C299 1.351 . S
C299 C293 1.428 1_556 S
C299 N298 1.351 . S
C299 C300 1.434 . S
C300 C291 1.429 . S
C300 N297 1.350 . S
C300 C299 1.434 . S
C301 C302 1.369 . S
C301 C303 1.419 . S
C301 H305 0.930 . S
C302 C301 1.369 . S
C302 C311 1.429 . S
C303 C301 1.419 . S
C303 C304 1.363 . S
C303 H306 0.929 . S
C304 C303 1.363 . S
C304 C310 1.428 . S
H305 C301 0.930 . S
H306 C303 0.929 . S
S307 N308 1.613 . S
S307 N309 1.610 . S
N308 S307 1.613 . S
N308 C311 1.350 . S
N309 S307 1.610 . S
N309 C310 1.351 . S
C310 C304 1.428 . S
C310 N309 1.351 . S
C310 C311 1.434 . S
C311 C302 1.429 . S
C311 N308 1.350 . S
C311 C310 1.434 . S
C312 C313 1.369 . S
C312 C314 1.419 . S
C312 H316 0.930 . S
C313 C312 1.369 . S
C313 C322 1.429 . S
C314 C312 1.419 . S
C314 C315 1.363 . S
C314 H317 0.929 . S
C315 C314 1.363 . S
C315 C321 1.428 . S
H316 C312 0.930 . S
H317 C314 0.929 . S
S318 N319 1.613 . S
S318 N320 1.610 1_554 S
N319 S318 1.613 . S
N319 C322 1.350 1_554 S
N320 S318 1.610 1_556 S
N320 C321 1.351 . S
C321 C315 1.428 . S
C321 N320 1.351 . S
C321 C322 1.434 . S
C322 C313 1.429 . S
C322 N319 1.350 1_556 S
C322 C321 1.434 . S
C323 C324 1.369 . S
C323 C325 1.419 . S
C323 H327 0.930 . S
C324 C323 1.369 . S
C324 C333 1.429 . S
C325 C323 1.419 . S
C325 C326 1.363 . S
C325 H328 0.929 . S
C326 C325 1.363 . S
C326 C332 1.428 . S
H327 C323 0.930 . S
H328 C325 0.929 . S
S329 N330 1.613 . S
S329 N331 1.610 . S
N330 S329 1.613 . S
N330 C333 1.350 . S
N331 S329 1.610 . S
N331 C332 1.351 . S
C332 C326 1.428 . S
C332 N331 1.351 . S
C332 C333 1.434 . S
C333 C324 1.429 . S
C333 N330 1.350 . S
C333 C332 1.434 . S
C334 C335 1.369 . S
C334 C336 1.419 . S
C334 H338 0.930 1_556 S
C335 C334 1.369 . S
C335 C344 1.429 . S
C336 C334 1.419 . S
C336 C337 1.363 . S
C336 H339 0.929 . S
C337 C336 1.363 . S
C337 C343 1.428 . S
H338 C334 0.930 1_554 S
H339 C336 0.929 . S
S340 N341 1.613 . S
S340 N342 1.610 . S
N341 S340 1.613 . S
N341 C344 1.350 . S
N342 S340 1.610 . S
N342 C343 1.351 . S
C343 C337 1.428 . S
C343 N342 1.351 . S
C343 C344 1.434 . S
C344 C335 1.429 . S
C344 N341 1.350 . S
C344 C343 1.434 . S
C345 C346 1.369 . S
C345 C347 1.419 . S
C345 H349 0.930 . S
C346 C345 1.369 . S
C346 C355 1.429 . S
C347 C345 1.419 . S
C347 C348 1.363 . S
C347 H350 0.929 . S
C348 C347 1.363 . S
C348 C354 1.428 . S
H349 C345 0.930 . S
H350 C347 0.929 . S
S351 N352 1.613 . S
S351 N353 1.610 . S
N352 S351 1.613 . S
N352 C355 1.350 . S
N353 S351 1.610 . S
N353 C354 1.351 . S
C354 C348 1.428 . S
C354 N353 1.351 . S
C354 C355 1.434 . S
C355 C346 1.429 . S
C355 N352 1.350 . S
C355 C354 1.434 . S
C356 C357 1.369 . S
C356 C358 1.419 . S
C356 H360 0.930 . S
C357 C356 1.369 . S
C357 C366 1.429 . S
C358 C356 1.419 . S
C358 C359 1.363 . S
C358 H361 0.929 1_554 S
C359 C358 1.363 . S
C359 C365 1.428 . S
H360 C356 0.930 . S
H361 C358 0.929 1_556 S
S362 N363 1.613 . S
S362 N364 1.610 . S
N363 S362 1.613 . S
N363 C366 1.350 . S
N364 S362 1.610 . S
N364 C365 1.351 . S
C365 C359 1.428 . S
C365 N364 1.351 . S
C365 C366 1.434 . S
C366 C357 1.429 . S
C366 N363 1.350 . S
C366 C365 1.434 . S
C367 C368 1.369 . S
C367 C369 1.419 . S
C367 H371 0.930 . S
C368 C367 1.369 . S
C368 C377 1.429 . S
C369 C367 1.419 . S
C369 C370 1.363 . S
C369 H372 0.929 . S
C370 C369 1.363 . S
C370 C376 1.428 . S
H371 C367 0.930 . S
H372 C369 0.929 . S
S373 N374 1.613 . S
S373 N375 1.610 . S
N374 S373 1.613 . S
N374 C377 1.350 . S
N375 S373 1.610 . S
N375 C376 1.351 . S
C376 C370 1.428 . S
C376 N375 1.351 . S
C376 C377 1.434 . S
C377 C368 1.429 . S
C377 N374 1.350 . S
C377 C376 1.434 . S
C378 C379 1.369 . S
C378 C380 1.419 . S
C378 H382 0.930 . S
C379 C378 1.369 . S
C379 C388 1.429 . S
C380 C378 1.419 . S
C380 C381 1.363 . S
C380 H383 0.929 1_554 S
C381 C380 1.363 . S
C381 C387 1.428 . S
H382 C378 0.930 . S
H383 C380 0.929 1_556 S
S384 N385 1.613 . S
S384 N386 1.610 . S
N385 S384 1.613 . S
N385 C388 1.350 . S
N386 S384 1.610 . S
N386 C387 1.351 . S
C387 C381 1.428 . S
C387 N386 1.351 . S
C387 C388 1.434 . S
C388 C379 1.429 . S
C388 N385 1.350 . S
C388 C387 1.434 . S
C389 C390 1.369 . S
C389 C391 1.419 . S
C389 H393 0.930 . S
C390 C389 1.369 . S
C390 C399 1.429 . S
C391 C389 1.419 . S
C391 C392 1.363 . S
C391 H394 0.929 . S
C392 C391 1.363 . S
C392 C398 1.428 . S
H393 C389 0.930 . S
H394 C391 0.929 . S
S395 N396 1.613 . S
S395 N397 1.610 . S
N396 S395 1.613 . S
N396 C399 1.350 . S
N397 S395 1.610 . S
N397 C398 1.351 . S
C398 C392 1.428 . S
C398 N397 1.351 . S
C398 C399 1.434 . S
C399 C390 1.429 . S
C399 N396 1.350 . S
C399 C398 1.434 . S
C400 C401 1.369 . S
C400 C402 1.419 . S
C400 H404 0.930 . S
C401 C400 1.369 . S
C401 C410 1.429 . S
C402 C400 1.419 . S
C402 C403 1.363 . S
C402 H405 0.929 . S
C403 C402 1.363 . S
C403 C409 1.428 . S
H404 C400 0.930 . S
H405 C402 0.929 . S
S406 N407 1.613 . S
S406 N408 1.610 1_556 S
N407 S406 1.613 . S
N407 C410 1.350 1_556 S
N408 S406 1.610 1_554 S
N408 C409 1.351 . S
C409 C403 1.428 . S
C409 N408 1.351 . S
C409 C410 1.434 . S
C410 C401 1.429 . S
C410 N407 1.350 1_554 S
C410 C409 1.434 . S
C411 C412 1.369 . S
C411 C413 1.419 . S
C411 H415 0.930 . S
C412 C411 1.369 . S
C412 C421 1.429 . S
C413 C411 1.419 . S
C413 C414 1.363 . S
C413 H416 0.929 . S
C414 C413 1.363 . S
C414 C420 1.428 . S
H415 C411 0.930 . S
H416 C413 0.929 . S
S417 N418 1.613 . S
S417 N419 1.610 . S
N418 S417 1.613 . S
N418 C421 1.350 . S
N419 S417 1.610 . S
N419 C420 1.351 . S
C420 C414 1.428 . S
C420 N419 1.351 . S
C420 C421 1.434 . S
C421 C412 1.429 . S
C421 N418 1.350 . S
C421 C420 1.434 . S
C422 C423 1.369 . S
C422 C424 1.419 . S
C422 H426 0.930 . S
C423 C422 1.369 . S
C423 C432 1.429 . S
C424 C422 1.419 . S
C424 C425 1.363 . S
C424 H427 0.929 . S
C425 C424 1.363 . S
C425 C431 1.428 . S
H426 C422 0.930 . S
H427 C424 0.929 . S
S428 N429 1.613 . S
S428 N430 1.610 . S
N429 S428 1.613 . S
N429 C432 1.350 . S
N430 S428 1.610 . S
N430 C431 1.351 . S
C431 C425 1.428 . S
C431 N430 1.351 . S
C431 C432 1.434 . S
C432 C423 1.429 . S
C432 N429 1.350 . S
C432 C431 1.434 . S
C433 C434 1.369 . S
C433 C435 1.419 . S
C433 H437 0.930 . S
C434 C433 1.369 . S
C434 C443 1.429 . S
C435 C433 1.419 . S
C435 C436 1.363 . S
C435 H438 0.929 . S
C436 C435 1.363 . S
C436 C442 1.428 . S
H437 C433 0.930 . S
H438 C435 0.929 . S
S439 N440 1.613 . S
S439 N441 1.610 . S
N440 S439 1.613 . S
N440 C443 1.350 . S
N441 S439 1.610 . S
N441 C442 1.351 . S
C442 C436 1.428 . S
C442 N441 1.351 . S
C442 C443 1.434 . S
C443 C434 1.429 . S
C443 N440 1.350 . S
C443 C442 1.434 . S
C444 C445 1.369 . S
C444 C446 1.419 . S
C444 H448 0.930 . S
C445 C444 1.369 . S
C445 C454 1.429 . S
C446 C444 1.419 . S
C446 C447 1.363 . S
C446 H449 0.929 . S
C447 C446 1.363 . S
C447 C453 1.428 . S
H448 C444 0.930 . S
H449 C446 0.929 . S
S450 N451 1.613 . S
S450 N452 1.610 . S
N451 S450 1.613 . S
N451 C454 1.350 . S
N452 S450 1.610 . S
N452 C453 1.351 . S
C453 C447 1.428 . S
C453 N452 1.351 . S
C453 C454 1.434 . S
C454 C445 1.429 . S
C454 N451 1.350 . S
C454 C453 1.434 . S
C455 C456 1.369 . S
C455 C457 1.419 . S
C455 H459 0.930 . S
C456 C455 1.369 . S
C456 C465 1.429 . S
C457 C455 1.419 . S
C457 C458 1.363 . S
C457 H460 0.929 . S
C458 C457 1.363 . S
C458 C464 1.428 . S
H459 C455 0.930 . S
H460 C457 0.929 . S
S461 N462 1.613 . S
S461 N463 1.610 . S
N462 S461 1.613 . S
N462 C465 1.350 . S
N463 S461 1.610 . S
N463 C464 1.351 . S
C464 C458 1.428 . S
C464 N463 1.351 . S
C464 C465 1.434 . S
C465 C456 1.429 . S
C465 N462 1.350 . S
C465 C464 1.434 . S
C466 C467 1.369 . S
C466 C468 1.419 . S
C466 H470 0.930 1_556 S
C467 C466 1.369 . S
C467 C476 1.429 . S
C468 C466 1.419 . S
C468 C469 1.363 . S
C468 H471 0.929 . S
C469 C468 1.363 . S
C469 C475 1.428 . S
H470 C466 0.930 1_554 S
H471 C468 0.929 . S
S472 N473 1.613 . S
S472 N474 1.610 . S
N473 S472 1.613 . S
N473 C476 1.350 . S
N474 S472 1.610 . S
N474 C475 1.351 . S
C475 C469 1.428 . S
C475 N474 1.351 . S
C475 C476 1.434 . S
C476 C467 1.429 . S
C476 N473 1.350 . S
C476 C475 1.434 . S
C477 C478 1.369 . S
C477 C479 1.419 . S
C477 H481 0.930 . S
C478 C477 1.369 . S
C478 C487 1.429 . S
C479 C477 1.419 . S
C479 C480 1.363 . S
C479 H482 0.929 . S
C480 C479 1.363 . S
C480 C486 1.428 . S
H481 C477 0.930 . S
H482 C479 0.929 . S
S483 N484 1.613 . S
S483 N485 1.610 . S
N484 S483 1.613 . S
N484 C487 1.350 . S
N485 S483 1.610 . S
N485 C486 1.351 . S
C486 C480 1.428 . S
C486 N485 1.351 . S
C486 C487 1.434 . S
C487 C478 1.429 . S
C487 N484 1.350 . S
C487 C486 1.434 . S
C488 C489 1.369 . S
C488 C490 1.419 . S
C488 H492 0.930 . S
C489 C488 1.369 . S
C489 C498 1.429 . S
C490 C488 1.419 . S
C490 C491 1.363 . S
C490 H493 0.929 . S
C491 C490 1.363 . S
C491 C497 1.428 . S
H492 C488 0.930 . S
H493 C490 0.929 . S
S494 N495 1.613 . S
S494 N496 1.610 . S
N495 S494 1.613 . S
N495 C498 1.350 . S
N496 S494 1.610 . S
N496 C497 1.351 . S
C497 C491 1.428 . S
C497 N496 1.351 . S
C497 C498 1.434 . S
C498 C489 1.429 . S
C498 N495 1.350 . S
C498 C497 1.434 . S
C499 C500 1.369 . S
C499 C501 1.419 . S
C499 H503 0.930 . S
C500 C499 1.369 . S
C500 C509 1.429 . S
C501 C499 1.419 . S
C501 C502 1.363 . S
C501 H504 0.929 . S
C502 C501 1.363 . S
C502 C508 1.428 . S
H503 C499 0.930 . S
H504 C501 0.929 . S
S505 N506 1.613 . S
S505 N507 1.610 . S
N506 S505 1.613 . S
N506 C509 1.350 . S
N507 S505 1.610 . S
N507 C508 1.351 . S
C508 C502 1.428 . S
C508 N507 1.351 . S
C508 C509 1.434 . S
C509 C500 1.429 . S
C509 N506 1.350 . S
C509 C508 1.434 . S
C510 C511 1.369 . S
C510 C512 1.419 . S
C510 H514 0.930 . S
C511 C510 1.369 . S
C511 C520 1.429 . S
C512 C510 1.419 . S
C512 C513 1.363 . S
C512 H515 0.929 . S
C513 C512 1.363 . S
C513 C519 1.428 . S
H514 C510 0.930 . S
H515 C512 0.929 . S
S516 N517 1.613 . S
S516 N518 1.610 . S
N517 S516 1.613 . S
N517 C520 1.350 . S
N518 S516 1.610 . S
N518 C519 1.351 . S
C519 C513 1.428 . S
C519 N518 1.351 . S
C519 C520 1.434 . S
C520 C511 1.429 . S
C520 N517 1.350 . S
C520 C519 1.434 . S
C521 C522 1.369 . S
C521 C523 1.419 . S
C521 H525 0.930 . S
C522 C521 1.369 . S
C522 C531 1.429 . S
C523 C521 1.419 . S
C523 C524 1.363 . S
C523 H526 0.929 . S
C524 C523 1.363 . S
C524 C530 1.428 . S
H525 C521 0.930 . S
H526 C523 0.929 . S
S527 N528 1.613 . S
S527 N529 1.610 . S
N528 S527 1.613 . S
N528 C531 1.350 . S
N529 S527 1.610 . S
N529 C530 1.351 . S
C530 C524 1.428 . S
C530 N529 1.351 . S
C530 C531 1.434 . S
C531 C522 1.429 . S
C531 N528 1.350 . S
C531 C530 1.434 . S
C532 C533 1.369 . S
C532 C534 1.419 . S
C532 H536 0.930 . S
C533 C532 1.369 . S
C533 C542 1.429 . S
C534 C532 1.419 . S
C534 C535 1.363 . S
C534 H537 0.929 . S
C535 C534 1.363 . S
C535 C541 1.428 . S
H536 C532 0.930 . S
H537 C534 0.929 . S
S538 N539 1.613 . S
S538 N540 1.610 . S
N539 S538 1.613 . S
N539 C542 1.350 . S
N540 S538 1.610 . S
N540 C541 1.351 . S
C541 C535 1.428 . S
C541 N540 1.351 . S
C541 C542 1.434 . S
C542 C533 1.429 . S
C542 N539 1.350 . S
C542 C541 1.434 . S
C543 C544 1.369 . S
C543 C545 1.419 . S
C543 H547 0.930 . S
C544 C543 1.369 . S
C544 C553 1.429 . S
C545 C543 1.419 . S
C545 C546 1.363 . S
C545 H548 0.929 . S
C546 C545 1.363 . S
C546 C552 1.428 . S
H547 C543 0.930 . S
H548 C545 0.929 . S
S549 N550 1.613 . S
S549 N551 1.610 . S
N550 S549 1.613 . S
N550 C553 1.350 . S
N551 S549 1.610 . S
N551 C552 1.351 . S
C552 C546 1.428 . S
C552 N551 1.351 . S
C552 C553 1.434 . S
C553 C544 1.429 . S
C553 N550 1.350 . S
C553 C552 1.434 . S
C554 C555 1.369 . S
C554 C556 1.419 . S
C554 H558 0.930 . S
C555 C554 1.369 . S
C555 C564 1.429 . S
C556 C554 1.419 . S
C556 C557 1.363 . S
C556 H559 0.929 . S
C557 C556 1.363 . S
C557 C563 1.428 . S
H558 C554 0.930 . S
H559 C556 0.929 . S
S560 N561 1.613 . S
S560 N562 1.610 . S
N561 S560 1.613 . S
N561 C564 1.350 . S
N562 S560 1.610 . S
N562 C563 1.351 . S
C563 C557 1.428 . S
C563 N562 1.351 . S
C563 C564 1.434 . S
C564 C555 1.429 . S
C564 N561 1.350 . S
C564 C563 1.434 . S
C565 C566 1.369 . S
C565 C567 1.419 . S
C565 H569 0.930 . S
C566 C565 1.369 . S
C566 C575 1.429 . S
C567 C565 1.419 . S
C567 C568 1.363 . S
C567 H570 0.929 . S
C568 C567 1.363 . S
C568 C574 1.428 . S
H569 C565 0.930 . S
H570 C567 0.929 . S
S571 N572 1.613 . S
S571 N573 1.610 . S
N572 S571 1.613 . S
N572 C575 1.350 . S
N573 S571 1.610 . S
N573 C574 1.351 . S
C574 C568 1.428 . S
C574 N573 1.351 . S
C574 C575 1.434 . S
C575 C566 1.429 . S
C575 N572 1.350 . S
C575 C574 1.434 . S
C225 C6 1.129 . S
C227 C62 1.125 . S
C236 C76 1.123 . S
C238 C20 1.120 . S
C247 C34 1.118 . S
C249 C90 1.122 . S
C258 C48 1.127 . S
C260 C104 1.128 . S
C269 C118 1.123 . S
C271 C174 1.120 . S
C280 C188 1.129 . S
C282 C132 1.125 . S
C291 C146 1.122 . S
C293 C202 1.126 . S
C302 C160 1.123 . S
C304 C216 1.120 . S
C313 C8 1.703 1_556 S
C315 C219 1.681 . S
C324 C177 1.683 . S
C326 C22 1.703 . S
C335 C36 1.702 1_556 S
C337 C191 1.681 . S
C346 C205 1.680 . S
C348 C50 1.702 . S
C357 C135 1.682 . S
C359 C64 1.702 1_554 S
C368 C149 1.681 . S
C370 C78 1.703 . S
C379 C163 1.681 . S
C381 C92 1.702 1_554 S
C390 C121 1.679 . S
C392 C106 1.702 . S
C401 C120 1.703 1_554 S
C403 C107 1.679 . S
C412 C65 1.681 . S
C414 C134 1.703 . S
C423 C79 1.681 . S
C425 C148 1.702 1_554 S
C434 C162 1.703 . S
C436 C93 1.679 . S
C445 C23 1.682 . S
C447 C176 1.702 1_556 S
C456 C190 1.702 . S
C458 C37 1.678 . S
C467 C204 1.702 1_556 S
C469 C51 1.682 . S
C478 C218 1.703 . S
C480 C9 1.680 . S
C489 C105 1.369 . S
C491 C7 1.362 . S
C500 C21 1.369 . S
C502 C63 1.367 . S
C511 C35 1.356 . S
C513 C77 1.362 . S
C522 C49 1.360 . S
C524 C91 1.357 . S
C533 C217 1.363 . S
C535 C119 1.368 . S
C544 C175 1.360 . S
C546 C133 1.367 . S
C555 C189 1.365 . S
C557 C147 1.368 . S
C566 C203 1.358 . S
C568 C161 1.358 . S
