# Generated by pormake.
# Topology umd, (4)-cn, num edge types: 1
# Building blocks:
#     Node 0, Type 0, BuildingBlock: QUQFOY_clean_sbu_1, # of connection points: 4
#     Node 1, Type 0, BuildingBlock: QUQFOY_clean_sbu_1, # of connection points: 4
#     Node 2, Type 0, BuildingBlock: QUQFOY_clean_sbu_1, # of connection points: 4
#     Node 3, Type 0, BuildingBlock: QUQFOY_clean_sbu_1, # of connection points: 4
#     Node 4, Type 0, BuildingBlock: QUQFOY_clean_sbu_1, # of connection points: 4
#     Node 5, Type 0, BuildingBlock: QUQFOY_clean_sbu_1, # of connection points: 4
#     Node 6, Type 0, BuildingBlock: QUQFOY_clean_sbu_1, # of connection points: 4
#     Node 7, Type 0, BuildingBlock: QUQFOY_clean_sbu_1, # of connection points: 4
#     Node 8, Type 0, BuildingBlock: QUQFOY_clean_sbu_1, # of connection points: 4
#     Node 9, Type 0, BuildingBlock: QUQFOY_clean_sbu_1, # of connection points: 4
#     Node 10, Type 0, BuildingBlock: QUQFOY_clean_sbu_1, # of connection points: 4
#     Node 11, Type 0, BuildingBlock: QUQFOY_clean_sbu_1, # of connection points: 4
#     Node 12, Type 0, BuildingBlock: QUQFOY_clean_sbu_1, # of connection points: 4
#     Node 13, Type 0, BuildingBlock: QUQFOY_clean_sbu_1, # of connection points: 4
#     Node 14, Type 0, BuildingBlock: QUQFOY_clean_sbu_1, # of connection points: 4
#     Node 15, Type 0, BuildingBlock: QUQFOY_clean_sbu_1, # of connection points: 4
#     Edge 16, Type (0, 0), BuildingBlock: MIFKUJ_clean_linker_0, # of connection points: 2
#     Edge 17, Type (0, 0), BuildingBlock: MIFKUJ_clean_linker_0, # of connection points: 2
#     Edge 18, Type (0, 0), BuildingBlock: MIFKUJ_clean_linker_0, # of connection points: 2
#     Edge 19, Type (0, 0), BuildingBlock: MIFKUJ_clean_linker_0, # of connection points: 2
#     Edge 20, Type (0, 0), BuildingBlock: MIFKUJ_clean_linker_0, # of connection points: 2
#     Edge 21, Type (0, 0), BuildingBlock: MIFKUJ_clean_linker_0, # of connection points: 2
#     Edge 22, Type (0, 0), BuildingBlock: MIFKUJ_clean_linker_0, # of connection points: 2
#     Edge 23, Type (0, 0), BuildingBlock: MIFKUJ_clean_linker_0, # of connection points: 2
#     Edge 24, Type (0, 0), BuildingBlock: MIFKUJ_clean_linker_0, # of connection points: 2
#     Edge 25, Type (0, 0), BuildingBlock: MIFKUJ_clean_linker_0, # of connection points: 2
#     Edge 26, Type (0, 0), BuildingBlock: MIFKUJ_clean_linker_0, # of connection points: 2
#     Edge 27, Type (0, 0), BuildingBlock: MIFKUJ_clean_linker_0, # of connection points: 2
#     Edge 28, Type (0, 0), BuildingBlock: MIFKUJ_clean_linker_0, # of connection points: 2
#     Edge 29, Type (0, 0), BuildingBlock: MIFKUJ_clean_linker_0, # of connection points: 2
#     Edge 30, Type (0, 0), BuildingBlock: MIFKUJ_clean_linker_0, # of connection points: 2
#     Edge 31, Type (0, 0), BuildingBlock: MIFKUJ_clean_linker_0, # of connection points: 2
#     Edge 32, Type (0, 0), BuildingBlock: MIFKUJ_clean_linker_0, # of connection points: 2
#     Edge 33, Type (0, 0), BuildingBlock: MIFKUJ_clean_linker_0, # of connection points: 2
#     Edge 34, Type (0, 0), BuildingBlock: MIFKUJ_clean_linker_0, # of connection points: 2
#     Edge 35, Type (0, 0), BuildingBlock: MIFKUJ_clean_linker_0, # of connection points: 2
#     Edge 36, Type (0, 0), BuildingBlock: MIFKUJ_clean_linker_0, # of connection points: 2
#     Edge 37, Type (0, 0), BuildingBlock: MIFKUJ_clean_linker_0, # of connection points: 2
#     Edge 38, Type (0, 0), BuildingBlock: MIFKUJ_clean_linker_0, # of connection points: 2
#     Edge 39, Type (0, 0), BuildingBlock: MIFKUJ_clean_linker_0, # of connection points: 2
#     Edge 40, Type (0, 0), BuildingBlock: MIFKUJ_clean_linker_0, # of connection points: 2
#     Edge 41, Type (0, 0), BuildingBlock: MIFKUJ_clean_linker_0, # of connection points: 2
#     Edge 42, Type (0, 0), BuildingBlock: MIFKUJ_clean_linker_0, # of connection points: 2
#     Edge 43, Type (0, 0), BuildingBlock: MIFKUJ_clean_linker_0, # of connection points: 2
#     Edge 44, Type (0, 0), BuildingBlock: MIFKUJ_clean_linker_0, # of connection points: 2
#     Edge 45, Type (0, 0), BuildingBlock: MIFKUJ_clean_linker_0, # of connection points: 2
#     Edge 46, Type (0, 0), BuildingBlock: MIFKUJ_clean_linker_0, # of connection points: 2
#     Edge 47, Type (0, 0), BuildingBlock: MIFKUJ_clean_linker_0, # of connection points: 2
# Relax obj value: 0.063
# Max RMSD: 0.194
# Mean RMSD: 0.194
data_MOF--net-umd--node1-QUQFOY_clean_sbu_1--edge1-MIFKUJ_clean_linker_0
_symmetry_space_group_name_H-M    P1
_symmetry_Int_Tables_number       1
_symmetry_cell_setting            triclinic
loop_
_symmetry_equiv_pos_as_xyz
'x, y, z'
_cell_length_a     52.984945
_cell_length_b     52.988666
_cell_length_c     75.004058
_cell_angle_alpha  89.915508
_cell_angle_beta   90.032961
_cell_angle_gamma 90.036421
loop_
_atom_site_label
_atom_site_type_symbol
_atom_site_fract_x
_atom_site_fract_y
_atom_site_fract_z
_atom_type_partial_charge
O0 O 0.18383 0.4313 0.10505 0.0
Cd1 Cd 0.17374 0.42106 0.13061 0.0
Cd2 Cd 0.18965 0.46838 0.13645 0.0
O3 O 0.20497 0.46618 0.11098 0.0
O4 O 0.17576 0.3831 0.13143 0.0
O5 O 0.20179 0.40811 0.14615 0.0
C6 C 0.19553 0.38557 0.14136 0.0
C7 C 0.21107 0.47795 0.16282 0.0
C8 C 0.19769 0.44952 0.09988 0.0
C9 C 0.13393 0.45827 0.14019 0.0
O10 O 0.15133 0.47448 0.13784 0.0
O11 O 0.13907 0.43476 0.13972 0.0
O12 O 0.2058 0.49537 0.15133 0.0
O13 O 0.20577 0.45493 0.15865 0.0
O14 O 0.57747 0.1857 0.60526 0.0
Cd15 Cd 0.58805 0.17471 0.63057 0.0
Cd16 Cd 0.54022 0.18982 0.63683 0.0
O17 O 0.5414 0.20472 0.61119 0.0
O18 O 0.62601 0.17649 0.63068 0.0
O19 O 0.60185 0.20201 0.64644 0.0
C20 C 0.62412 0.19584 0.64103 0.0
C21 C 0.53186 0.21177 0.66314 0.0
C22 C 0.55857 0.19862 0.60013 0.0
C23 C 0.55141 0.13416 0.64038 0.0
O24 O 0.53492 0.15144 0.63876 0.0
O25 O 0.57483 0.13951 0.63912 0.0
O26 O 0.51384 0.20586 0.65229 0.0
O27 O 0.5547 0.20674 0.65834 0.0
O28 O 0.82841 0.58149 0.10552 0.0
Cd29 Cd 0.83998 0.592 0.1307 0.0
Cd30 Cd 0.82361 0.54487 0.13787 0.0
O31 O 0.80813 0.54641 0.11239 0.0
O32 O 0.838 0.62993 0.13126 0.0
O33 O 0.81283 0.60506 0.14687 0.0
C34 C 0.81877 0.62754 0.14171 0.0
C35 C 0.80185 0.5354 0.16417 0.0
C36 C 0.81456 0.56299 0.10093 0.0
C37 C 0.87963 0.55469 0.14083 0.0
O38 O 0.8619 0.53861 0.13952 0.0
O39 O 0.87489 0.57819 0.13926 0.0
O40 O 0.80737 0.51795 0.15282 0.0
O41 O 0.80717 0.55841 0.15995 0.0
O42 O 0.43332 0.8276 0.60342 0.0
Cd43 Cd 0.4211 0.83862 0.62835 0.0
Cd44 Cd 0.46762 0.82234 0.63617 0.0
O45 O 0.46748 0.80636 0.6109 0.0
O46 O 0.3833 0.83681 0.62655 0.0
O47 O 0.40571 0.81243 0.64454 0.0
C48 C 0.38411 0.81831 0.63775 0.0
C49 C 0.47538 0.80082 0.6628 0.0
C50 C 0.45176 0.81355 0.5991 0.0
C51 C 0.45754 0.87849 0.63864 0.0
O52 O 0.47368 0.8608 0.63746 0.0
O53 O 0.43406 0.87363 0.63711 0.0
O54 O 0.49359 0.80652 0.65208 0.0
O55 O 0.45264 0.80595 0.65779 0.0
O56 O 0.18351 0.57899 0.4064 0.0
Cd57 Cd 0.1715 0.59035 0.38148 0.0
Cd58 Cd 0.1863 0.54276 0.37388 0.0
O59 O 0.20194 0.54304 0.3993 0.0
O60 O 0.17346 0.62829 0.38179 0.0
O61 O 0.19829 0.60441 0.36526 0.0
C62 C 0.19244 0.62657 0.37106 0.0
C63 C 0.20783 0.53479 0.34732 0.0
C64 C 0.19652 0.55981 0.41083 0.0
C65 C 0.13057 0.55414 0.37146 0.0
O66 O 0.14786 0.53755 0.37228 0.0
O67 O 0.13599 0.57745 0.37334 0.0
O68 O 0.20196 0.51661 0.35805 0.0
O69 O 0.20293 0.55756 0.35232 0.0
O70 O 0.42883 0.18517 0.90619 0.0
Cd71 Cd 0.41848 0.17282 0.88114 0.0
Cd72 Cd 0.46569 0.18915 0.87396 0.0
O73 O 0.46408 0.2051 0.89921 0.0
O74 O 0.38051 0.17429 0.88053 0.0
O75 O 0.405 0.19939 0.86458 0.0
C76 C 0.38261 0.19328 0.86981 0.0
C77 C 0.47446 0.21061 0.84742 0.0
C78 C 0.44739 0.19904 0.91066 0.0
C79 C 0.4562 0.13309 0.87172 0.0
O80 O 0.47222 0.1509 0.87286 0.0
O81 O 0.43266 0.13781 0.87307 0.0
O82 O 0.49217 0.20555 0.85871 0.0
O83 O 0.45161 0.2049 0.8518 0.0
O84 O 0.82503 0.42884 0.40686 0.0
Cd85 Cd 0.83675 0.41901 0.38155 0.0
Cd86 Cd 0.82021 0.46625 0.37526 0.0
O87 O 0.80404 0.46366 0.40044 0.0
O88 O 0.83588 0.381 0.38087 0.0
O89 O 0.80979 0.40509 0.36544 0.0
C90 C 0.81648 0.3828 0.37051 0.0
C91 C 0.79939 0.47453 0.3484 0.0
C92 C 0.81077 0.4469 0.41168 0.0
C93 C 0.87622 0.45724 0.37266 0.0
O94 O 0.85842 0.47309 0.37454 0.0
O95 O 0.87153 0.43362 0.37318 0.0
O96 O 0.80389 0.49243 0.35965 0.0
O97 O 0.80518 0.45179 0.35304 0.0
O98 O 0.57859 0.82576 0.90501 0.0
Cd99 Cd 0.5885 0.83742 0.8797 0.0
Cd100 Cd 0.54072 0.82243 0.87364 0.0
O101 O 0.54246 0.80682 0.89902 0.0
O102 O 0.62645 0.83589 0.87906 0.0
O103 O 0.60197 0.8104 0.86347 0.0
C104 C 0.62436 0.81664 0.86862 0.0
C105 C 0.53152 0.80097 0.84726 0.0
C106 C 0.55981 0.8126 0.91005 0.0
C107 C 0.55151 0.87812 0.87073 0.0
O108 O 0.53505 0.86079 0.87234 0.0
O109 O 0.57495 0.87274 0.87163 0.0
O110 O 0.51392 0.80641 0.85853 0.0
O111 O 0.5545 0.80628 0.85161 0.0
O112 O 0.82473 0.58028 0.90694 0.0
Cd113 Cd 0.83606 0.59037 0.88153 0.0
Cd114 Cd 0.82057 0.54294 0.87545 0.0
O115 O 0.80534 0.54438 0.90095 0.0
O116 O 0.83402 0.62822 0.88058 0.0
O117 O 0.80875 0.60319 0.86521 0.0
C118 C 0.8148 0.62574 0.87013 0.0
C119 C 0.79936 0.53147 0.84943 0.0
C120 C 0.81146 0.56156 0.91201 0.0
C121 C 0.87647 0.55386 0.87216 0.0
O122 O 0.85897 0.53763 0.87387 0.0
O123 O 0.87137 0.57732 0.87319 0.0
O124 O 0.80652 0.51466 0.86083 0.0
O125 O 0.80251 0.55494 0.85346 0.0
O126 O 0.43492 0.82088 0.40737 0.0
Cd127 Cd 0.42332 0.83408 0.38273 0.0
Cd128 Cd 0.47059 0.8197 0.3743 0.0
O129 O 0.47122 0.8037 0.39953 0.0
O130 O 0.3854 0.83265 0.38326 0.0
O131 O 0.40869 0.80808 0.36612 0.0
C132 C 0.38669 0.8141 0.37215 0.0
C133 C 0.47871 0.79857 0.34762 0.0
C134 C 0.45454 0.8082 0.41131 0.0
C135 C 0.45952 0.87537 0.37282 0.0
O136 O 0.47611 0.85805 0.37313 0.0
O137 O 0.43627 0.86985 0.37496 0.0
O138 O 0.49677 0.80426 0.35847 0.0
O139 O 0.45588 0.80348 0.35252 0.0
O140 O 0.18057 0.42962 0.90513 0.0
Cd141 Cd 0.17019 0.41928 0.87967 0.0
Cd142 Cd 0.18686 0.46644 0.87335 0.0
O143 O 0.20189 0.46433 0.89895 0.0
O144 O 0.17203 0.38128 0.87895 0.0
O145 O 0.1979 0.40619 0.86398 0.0
C146 C 0.19163 0.38368 0.86885 0.0
C147 C 0.20906 0.47537 0.84716 0.0
C148 C 0.19451 0.44783 0.91017 0.0
C149 C 0.13089 0.45696 0.86973 0.0
O150 O 0.14859 0.47296 0.87163 0.0
O151 O 0.13562 0.43338 0.87069 0.0
O152 O 0.20369 0.49303 0.85839 0.0
O153 O 0.20327 0.4525 0.85145 0.0
O154 O 0.57788 0.18444 0.40546 0.0
Cd155 Cd 0.58856 0.17243 0.38041 0.0
Cd156 Cd 0.54095 0.18791 0.37361 0.0
O157 O 0.54206 0.20362 0.39895 0.0
O158 O 0.62658 0.17344 0.3805 0.0
O159 O 0.6031 0.19906 0.36424 0.0
C160 C 0.62519 0.19257 0.36986 0.0
C161 C 0.53353 0.20927 0.34687 0.0
C162 C 0.55906 0.19774 0.41022 0.0
C163 C 0.55129 0.13206 0.37116 0.0
O164 O 0.535 0.14957 0.37244 0.0
O165 O 0.57478 0.13719 0.37233 0.0
O166 O 0.5152 0.20408 0.35763 0.0
O167 O 0.55616 0.20377 0.35195 0.0
O168 O 0.82724 0.43188 0.60589 0.0
Cd169 Cd 0.838 0.42162 0.63134 0.0
Cd170 Cd 0.82292 0.46901 0.63721 0.0
O171 O 0.80749 0.46756 0.61176 0.0
O172 O 0.83564 0.38382 0.63178 0.0
O173 O 0.81034 0.40862 0.64727 0.0
C174 C 0.81621 0.38618 0.64203 0.0
C175 C 0.80187 0.48062 0.66322 0.0
C176 C 0.81386 0.45044 0.60073 0.0
C177 C 0.87872 0.45762 0.64064 0.0
O178 O 0.86142 0.47398 0.63866 0.0
O179 O 0.87334 0.43419 0.63993 0.0
O180 O 0.80925 0.49739 0.65186 0.0
O181 O 0.80477 0.45712 0.65919 0.0
O182 O 0.57962 0.82558 0.10521 0.0
Cd183 Cd 0.58988 0.83697 0.1305 0.0
Cd184 Cd 0.54181 0.82172 0.13655 0.0
O185 O 0.54343 0.80661 0.11104 0.0
O186 O 0.62789 0.83541 0.13096 0.0
O187 O 0.60351 0.80996 0.14669 0.0
C188 C 0.62586 0.81619 0.14147 0.0
C189 C 0.53363 0.79978 0.16293 0.0
C190 C 0.56078 0.81257 0.10007 0.0
C191 C 0.5528 0.87739 0.13987 0.0
O192 O 0.53634 0.86008 0.13818 0.0
O193 O 0.57625 0.87208 0.13886 0.0
O194 O 0.51555 0.80543 0.15207 0.0
O195 O 0.55641 0.80513 0.15814 0.0
O196 O 0.18428 0.57644 0.60436 0.0
Cd197 Cd 0.17468 0.58686 0.62997 0.0
Cd198 Cd 0.19011 0.53904 0.63649 0.0
O199 O 0.20464 0.54117 0.61078 0.0
O200 O 0.17705 0.62484 0.63163 0.0
O201 O 0.20427 0.59877 0.64432 0.0
C202 C 0.19774 0.62156 0.64045 0.0
C203 C 0.21239 0.53047 0.66269 0.0
C204 C 0.19783 0.55785 0.59949 0.0
C205 C 0.13479 0.5498 0.6408 0.0
O206 O 0.15189 0.53327 0.63861 0.0
O207 O 0.14023 0.57322 0.6397 0.0
O208 O 0.20674 0.51256 0.65171 0.0
O209 O 0.20692 0.55329 0.65809 0.0
O210 O 0.43113 0.18422 0.10373 0.0
Cd211 Cd 0.42079 0.17239 0.12892 0.0
Cd212 Cd 0.46808 0.18864 0.13587 0.0
O213 O 0.46636 0.20432 0.1105 0.0
O214 O 0.38283 0.17433 0.12969 0.0
O215 O 0.40784 0.19951 0.14514 0.0
C216 C 0.38532 0.19356 0.14011 0.0
C217 C 0.47729 0.21017 0.16227 0.0
C218 C 0.44965 0.19806 0.09912 0.0
C219 C 0.45833 0.13267 0.13869 0.0
O220 O 0.4744 0.15038 0.13726 0.0
O221 O 0.43479 0.13745 0.13739 0.0
O222 O 0.49486 0.20487 0.15094 0.0
O223 O 0.45434 0.20474 0.15797 0.0
H224 H 0.1175 0.50705 0.14101 0.0
H225 H 0.07444 0.52247 0.14343 0.0
H226 H 0.04718 0.44598 0.14769 0.0
H227 H 0.09054 0.43021 0.14486 0.0
H228 H 0.01913 0.4721 0.12485 0.0
H229 H 0.04863 0.48637 0.18419 0.0
H230 H 0.07762 0.50189 0.20745 0.0
H231 H 0.06627 0.57804 0.18954 0.0
H232 H 0.03746 0.56295 0.166 0.0
H233 H 0.89477 0.50636 0.14747 0.0
H234 H 0.93764 0.49009 0.14951 0.0
H235 H 0.96722 0.56517 0.14197 0.0
H236 H 0.92406 0.58183 0.14008 0.0
H237 H 0.99364 0.53892 0.16748 0.0
H238 H 0.96552 0.52421 0.10747 0.0
H239 H 0.93652 0.50861 0.08424 0.0
H240 H 0.94541 0.43289 0.10371 0.0
H241 H 0.97421 0.4481 0.12723 0.0
C242 C 0.10245 0.49339 0.14259 0.0
C243 C 0.1076 0.46731 0.14277 0.0
C244 C 0.07775 0.50232 0.14408 0.0
C245 C 0.0575 0.48546 0.146 0.0
C246 C 0.0625 0.45939 0.14629 0.0
C247 C 0.08731 0.45039 0.14473 0.0
C248 C 0.03112 0.49518 0.1469 0.0
C249 C 0.01347 0.48636 0.1344 0.0
C250 C 0.02381 0.51433 0.15903 0.0
C251 C 0.04104 0.5235 0.17323 0.0
C252 C 0.05245 0.50641 0.18513 0.0
C253 C 0.06883 0.51514 0.19838 0.0
C254 C 0.07383 0.54093 0.19995 0.0
C255 C 0.0624 0.55807 0.1883 0.0
C256 C 0.04602 0.54944 0.17501 0.0
C257 C 0.91032 0.51955 0.14632 0.0
C258 C 0.90589 0.54545 0.14343 0.0
C259 C 0.93488 0.51014 0.14745 0.0
C260 C 0.95569 0.5263 0.14558 0.0
C261 C 0.95144 0.55231 0.14337 0.0
C262 C 0.92676 0.56181 0.14227 0.0
C263 C 0.98177 0.51582 0.14544 0.0
C264 C 0.99933 0.52453 0.15802 0.0
C265 C 0.98903 0.49654 0.13341 0.0
C266 C 0.97183 0.48733 0.11922 0.0
C267 C 0.96114 0.50426 0.10689 0.0
C268 C 0.94477 0.49548 0.09365 0.0
C269 C 0.93907 0.46978 0.09253 0.0
C270 C 0.94981 0.45279 0.10461 0.0
C271 C 0.96618 0.46148 0.11789 0.0
H272 H 0.92639 0.46302 0.08228 0.0
H273 H 0.08651 0.54765 0.21022 0.0
H274 H 0.42959 0.92189 0.6432 0.0
H275 H 0.44538 0.96523 0.64566 0.0
H276 H 0.52186 0.93805 0.64137 0.0
H277 H 0.50638 0.8949 0.63941 0.0
H278 H 0.52035 0.97359 0.66535 0.0
H279 H 0.48953 0.96492 0.60537 0.0
H280 H 0.4581 0.95536 0.58207 0.0
H281 H 0.40938 0.01319 0.60254 0.0
H282 H 0.44041 0.02288 0.62612 0.0
H283 H 0.57952 0.09034 0.63976 0.0
H284 H 0.56377 0.04684 0.64145 0.0
H285 H 0.48792 0.07467 0.64826 0.0
H286 H 0.50332 0.11788 0.64639 0.0
H287 H 0.48894 0.03897 0.62351 0.0
H288 H 0.52147 0.04835 0.68308 0.0
H289 H 0.55386 0.05776 0.70575 0.0
H290 H 0.60064 0.99844 0.68516 0.0
H291 H 0.56865 0.98889 0.66221 0.0
C292 C 0.44977 0.92514 0.64289 0.0
C293 C 0.46666 0.90484 0.64101 0.0
C294 C 0.45879 0.94996 0.64421 0.0
C295 C 0.48485 0.95503 0.64344 0.0
C296 C 0.5017 0.93473 0.642 0.0
C297 C 0.49275 0.90998 0.64082 0.0
C298 C 0.49472 0.98141 0.64372 0.0
C299 C 0.51364 0.98781 0.65607 0.0
C300 C 0.4858 1.00017 0.63181 0.0
C301 C 0.46717 0.99444 0.61762 0.0
C302 C 0.47203 0.97547 0.60498 0.0
C303 C 0.45431 0.97005 0.59171 0.0
C304 C 0.43173 0.98361 0.59086 0.0
C305 C 0.42686 1.00267 0.60324 0.0
C306 C 0.44451 0.00815 0.61655 0.0
C307 C 0.55953 0.08718 0.64181 0.0
C308 C 0.54272 0.10767 0.64288 0.0
C309 C 0.55054 0.06229 0.6428 0.0
C310 C 0.52461 0.05743 0.64503 0.0
C311 C 0.50795 0.07788 0.64646 0.0
C312 C 0.51687 0.10265 0.64543 0.0
C313 C 0.51451 0.03117 0.64517 0.0
C314 C 0.49558 0.02478 0.63284 0.0
C315 C 0.52356 0.01241 0.65701 0.0
C316 C 0.54277 0.01808 0.67082 0.0
C317 C 0.53875 0.03745 0.6833 0.0
C318 C 0.55702 0.04278 0.69621 0.0
C319 C 0.57932 0.02875 0.69686 0.0
C320 C 0.58337 0.00931 0.68462 0.0
C321 C 0.56517 1.00392 0.67167 0.0
H322 H 0.59345 0.0329 0.70687 0.0
H323 H 0.41803 0.97938 0.58058 0.0
H324 H 0.11402 0.50676 0.36334 0.0
H325 H 0.07074 0.49153 0.36167 0.0
H326 H 0.04324 0.56652 0.37253 0.0
H327 H 0.08684 0.58201 0.37445 0.0
H328 H 0.01965 0.53177 0.393 0.0
H329 H 0.03784 0.541 0.33107 0.0
H330 H 0.06227 0.53572 0.30336 0.0
H331 H 0.05381 0.45529 0.30703 0.0
H332 H 0.02965 0.46006 0.33493 0.0
H333 H 0.89194 0.50626 0.37363 0.0
H334 H 0.9348 0.52256 0.37178 0.0
H335 H 0.96331 0.44697 0.36519 0.0
H336 H 0.9201 0.43026 0.36705 0.0
H337 H 0.98602 0.48245 0.34203 0.0
H338 H 0.96866 0.47365 0.4045 0.0
H339 H 0.944 0.47935 0.43207 0.0
H340 H 0.95074 0.5598 0.42702 0.0
H341 H 0.97514 0.55459 0.39926 0.0
C342 C 0.09884 0.52016 0.36525 0.0
C343 C 0.104 0.54567 0.36905 0.0
C344 C 0.07402 0.51138 0.36419 0.0
C345 C 0.05366 0.52787 0.36682 0.0
C346 C 0.05865 0.55344 0.37042 0.0
C347 C 0.08358 0.5623 0.37143 0.0
C348 C 0.0273 0.51803 0.36654 0.0
C349 C 0.01218 0.52137 0.38172 0.0
C350 C 0.0177 0.50384 0.35203 0.0
C351 C 0.03212 0.50088 0.33519 0.0
C352 C 0.04136 0.52217 0.32605 0.0
C353 C 0.05513 0.51927 0.3103 0.0
C354 C 0.05964 0.49518 0.30346 0.0
C355 C 0.05033 0.47394 0.31235 0.0
C356 C 0.03657 0.47673 0.32813 0.0
C357 C 0.90721 0.49297 0.3717 0.0
C358 C 0.90248 0.46685 0.37058 0.0
C359 C 0.93178 0.50239 0.3707 0.0
C360 C 0.95231 0.486 0.36855 0.0
C361 C 0.94773 0.45997 0.3669 0.0
C362 C 0.92304 0.45044 0.36801 0.0
C363 C 0.97849 0.49622 0.36847 0.0
C364 C 0.99354 0.49292 0.35326 0.0
C365 C 0.98803 0.51052 0.38293 0.0
C366 C 0.97352 0.51373 0.3997 0.0
C367 C 0.96471 0.49256 0.40919 0.0
C368 C 0.95081 0.4957 0.42486 0.0
C369 C 0.94574 0.51992 0.43127 0.0
C370 C 0.95464 0.54105 0.42203 0.0
C371 C 0.96853 0.53801 0.40633 0.0
H372 H 0.93497 0.52232 0.4434 0.0
H373 H 0.07031 0.49298 0.29126 0.0
H374 H 0.50302 0.89481 0.86733 0.0
H375 H 0.48793 0.93807 0.86568 0.0
H376 H 0.56461 0.96531 0.86755 0.0
H377 H 0.58001 0.9217 0.86954 0.0
H378 H 0.53515 0.99148 0.8899 0.0
H379 H 0.52986 0.96724 0.82869 0.0
H380 H 0.518 0.94038 0.80321 0.0
H381 H 0.43957 0.95032 0.81572 0.0
H382 H 0.45097 0.97697 0.84144 0.0
H383 H 0.5051 0.1176 0.86844 0.0
H384 H 0.5212 0.07466 0.86667 0.0
H385 H 0.44521 0.04564 0.86836 0.0
H386 H 0.42873 0.08888 0.87007 0.0
H387 H 0.47501 0.02082 0.84355 0.0
H388 H 0.48063 0.04418 0.90521 0.0
H389 H 0.49263 0.07132 0.93051 0.0
H390 H 0.57088 0.06311 0.91686 0.0
H391 H 0.55932 0.03621 0.89129 0.0
C392 C 0.51681 0.9099 0.86727 0.0
C393 C 0.54281 0.90466 0.86855 0.0
C394 C 0.50809 0.93473 0.86623 0.0
C395 C 0.52509 0.95503 0.86627 0.0
C396 C 0.5511 0.94995 0.86744 0.0
C397 C 0.5599 0.92501 0.8685 0.0
C398 C 0.51549 0.98148 0.86578 0.0
C399 C 0.52237 0.998 0.87957 0.0
C400 C 0.49823 0.98988 0.85259 0.0
C401 C 0.49129 0.97393 0.83709 0.0
C402 C 0.51009 0.96354 0.82609 0.0
C403 C 0.50345 0.94838 0.81159 0.0
C404 C 0.47805 0.9436 0.80787 0.0
C405 C 0.45924 0.95402 0.81863 0.0
C406 C 0.46578 0.96918 0.83316 0.0
C407 C 0.49168 0.10218 0.86836 0.0
C408 C 0.46554 0.10679 0.86953 0.0
C409 C 0.50099 0.07757 0.8674 0.0
C410 C 0.48447 0.05688 0.86765 0.0
C411 C 0.45832 0.06133 0.86823 0.0
C412 C 0.44893 0.08605 0.86923 0.0
C413 C 0.49469 0.03071 0.86766 0.0
C414 C 0.48789 0.01427 0.85381 0.0
C415 C 0.51206 0.02238 0.88077 0.0
C416 C 0.51909 0.03838 0.89623 0.0
C417 C 0.50039 0.04832 0.90752 0.0
C418 C 0.50711 0.06364 0.92192 0.0
C419 C 0.5325 0.06899 0.92526 0.0
C420 C 0.55122 0.05898 0.91424 0.0
C421 C 0.54459 0.04368 0.8998 0.0
H422 H 0.53766 0.08086 0.93642 0.0
H423 H 0.47295 0.93185 0.79664 0.0
H424 H 0.92048 0.58169 0.86992 0.0
H425 H 0.96377 0.56549 0.86754 0.0
H426 H 0.93518 0.4893 0.86642 0.0
H427 H 0.89225 0.50513 0.86888 0.0
H428 H 0.97321 0.49332 0.88963 0.0
H429 H 0.95779 0.51772 0.8288 0.0
H430 H 0.94617 0.54692 0.80453 0.0
H431 H 0.00774 0.59569 0.81867 0.0
H432 H 0.01953 0.56692 0.8432 0.0
H433 H 0.08677 0.42947 0.86768 0.0
H434 H 0.04357 0.44584 0.866 0.0
H435 H 0.07236 0.52198 0.86518 0.0
H436 H 0.11536 0.50589 0.86649 0.0
H437 H 0.03421 0.51813 0.84263 0.0
H438 H 0.04912 0.49497 0.90369 0.0
H439 H 0.06087 0.46652 0.92838 0.0
H440 H 1.00031 0.41643 0.91436 0.0
H441 H 0.98841 0.44443 0.88942 0.0
C442 C 0.92342 0.56151 0.86902 0.0
C443 C 0.90281 0.54477 0.86964 0.0
C444 C 0.94818 0.55226 0.86763 0.0
C445 C 0.95276 0.52613 0.86676 0.0
C446 C 0.93218 0.5095 0.86714 0.0
C447 C 0.90757 0.51866 0.8685 0.0
C448 C 0.97891 0.51583 0.86603 0.0
C449 C 0.98642 0.49851 0.8792 0.0
C450 C 0.99641 0.523 0.8527 0.0
C451 C 0.98937 0.5403 0.83795 0.0
C452 C 0.96872 0.53477 0.82683 0.0
C453 C 0.96213 0.55123 0.81301 0.0
C454 C 0.97616 0.57318 0.81009 0.0
C455 C 0.99686 0.57869 0.82097 0.0
C456 C 1.00352 0.56231 0.83482 0.0
C457 C 0.08392 0.44968 0.86697 0.0
C458 C 0.10461 0.46631 0.86735 0.0
C459 C 0.05918 0.45904 0.8661 0.0
C460 C 0.05463 0.4852 0.86573 0.0
C461 C 0.0753 0.50175 0.86549 0.0
C462 C 0.09995 0.49245 0.86631 0.0
C463 C 0.02845 0.49551 0.86618 0.0
C464 C 0.02096 0.51288 0.85301 0.0
C465 C 0.01096 0.4885 0.87958 0.0
C466 C 0.01805 0.47166 0.89458 0.0
C467 C 0.03843 0.47779 0.90579 0.0
C468 C 0.0451 0.46176 0.91984 0.0
C469 C 0.03139 0.43964 0.92291 0.0
C470 C 0.01094 0.43354 0.91195 0.0
C471 C 1.00422 0.44949 0.89786 0.0
H472 H 0.03658 0.42726 0.9338 0.0
H473 H 0.97103 0.58589 0.79938 0.0
H474 H 0.57938 0.08825 0.36947 0.0
H475 H 0.56351 0.04477 0.36799 0.0
H476 H 0.48706 0.07256 0.36692 0.0
H477 H 0.50258 0.11574 0.36848 0.0
H478 H 0.49195 0.03513 0.39078 0.0
H479 H 0.51477 0.04903 0.3295 0.0
H480 H 0.54326 0.06038 0.30476 0.0
H481 H 0.59331 1.00012 0.31942 0.0
H482 H 0.56528 0.98861 0.34441 0.0
H483 H 0.43058 0.91864 0.37174 0.0
H484 H 0.44551 0.96236 0.36959 0.0
H485 H 0.52245 0.93603 0.36728 0.0
H486 H 0.50778 0.89258 0.36897 0.0
H487 H 0.51685 0.97306 0.34461 0.0
H488 H 0.49568 0.95989 0.40624 0.0
H489 H 0.46818 0.94845 0.43152 0.0
H490 H 0.4163 0.00718 0.41692 0.0
H491 H 0.44335 0.01877 0.3914 0.0
C492 C 0.55921 0.0851 0.36877 0.0
C493 C 0.54231 0.10558 0.36912 0.0
C494 C 0.55015 0.06022 0.36789 0.0
C495 C 0.52405 0.05536 0.36729 0.0
C496 C 0.50724 0.07578 0.36743 0.0
C497 C 0.51622 0.10054 0.36826 0.0
C498 C 0.51402 0.02907 0.36706 0.0
C499 C 0.49714 0.02167 0.38053 0.0
C500 C 0.5212 0.01127 0.35396 0.0
C501 C 0.53805 0.01813 0.33893 0.0
C502 C 0.53196 0.03833 0.32754 0.0
C503 C 0.548 0.04477 0.31345 0.0
C504 C 0.57012 0.03102 0.31055 0.0
C505 C 0.5762 0.01077 0.3217 0.0
C506 C 0.56023 1.00427 0.33582 0.0
C507 C 0.45066 0.92217 0.37066 0.0
C508 C 0.46793 0.90201 0.37063 0.0
C509 C 0.4592 0.9472 0.36952 0.0
C510 C 0.48519 0.95259 0.36852 0.0
C511 C 0.50234 0.93246 0.36804 0.0
C512 C 0.49386 0.90753 0.36908 0.0
C513 C 0.49474 0.9791 0.36834 0.0
C514 C 0.51157 0.98654 0.35482 0.0
C515 C 0.48766 0.99692 0.38147 0.0
C516 C 0.4714 0.99001 0.39681 0.0
C517 C 0.47831 0.97024 0.40834 0.0
C518 C 0.46282 0.96375 0.42272 0.0
C519 C 0.44047 0.97703 0.42579 0.0
C520 C 0.4336 0.99688 0.41451 0.0
C521 C 0.449 1.00343 0.40009 0.0
H522 H 0.42851 0.97198 0.43693 0.0
H523 H 0.58251 0.03603 0.29964 0.0
H524 H 0.92213 0.4293 0.64468 0.0
H525 H 0.96567 0.44494 0.64684 0.0
H526 H 0.93857 0.52156 0.64397 0.0
H527 H 0.89539 0.50628 0.64177 0.0
H528 H 0.97719 0.51413 0.62126 0.0
H529 H 0.95945 0.49715 0.683 0.0
H530 H 0.94646 0.47106 0.70866 0.0
H531 H 0.00737 0.41968 0.69841 0.0
H532 H 0.02052 0.44529 0.67253 0.0
H533 H 0.09129 0.57829 0.64147 0.0
H534 H 0.04773 0.56291 0.64365 0.0
H535 H 0.07497 0.48652 0.64843 0.0
H536 H 0.11831 0.50165 0.64654 0.0
H537 H 0.03627 0.49372 0.67053 0.0
H538 H 0.05345 0.50926 0.60866 0.0
H539 H 0.06662 0.5344 0.58257 0.0
H540 H 0.00686 0.58724 0.5925 0.0
H541 H 0.99354 0.56258 0.61881 0.0
C542 C 0.92545 0.44947 0.64465 0.0
C543 C 0.90518 0.46647 0.64301 0.0
C544 C 0.95034 0.45839 0.64592 0.0
C545 C 0.95541 0.48447 0.6456 0.0
C546 C 0.93519 0.50139 0.64418 0.0
C547 C 0.91042 0.49254 0.64298 0.0
C548 C 0.98173 0.49434 0.64617 0.0
C549 C 0.98999 0.50993 0.63217 0.0
C550 C 0.99867 0.4884 0.66016 0.0
C551 C 0.99081 0.47299 0.67571 0.0
C552 C 0.96994 0.48017 0.68612 0.0
C553 C 0.96258 0.46549 0.70073 0.0
C554 C 0.97603 0.44369 0.70513 0.0
C555 C 0.99693 0.43655 0.69497 0.0
C556 C 1.00437 0.45115 0.68034 0.0
C557 C 0.08801 0.55826 0.64318 0.0
C558 C 0.10836 0.54123 0.64368 0.0
C559 C 0.06309 0.54946 0.64433 0.0
C560 C 0.05802 0.52348 0.64595 0.0
C561 C 0.07833 0.50661 0.64715 0.0
C562 C 0.10317 0.51535 0.64599 0.0
C563 C 0.03166 0.51364 0.64568 0.0
C564 C 0.02343 0.498 0.65967 0.0
C565 C 0.01475 0.51939 0.63163 0.0
C566 C 0.02268 0.53423 0.61581 0.0
C567 C 0.04325 0.52636 0.60536 0.0
C568 C 0.05071 0.54049 0.59052 0.0
C569 C 0.03763 0.56244 0.58591 0.0
C570 C 0.01701 0.57026 0.59611 0.0
C571 C 0.00948 0.5562 0.61098 0.0
H572 H 0.04343 0.57336 0.57442 0.0
H573 H 0.9703 0.43235 0.71644 0.0
H574 H 0.43083 0.08846 0.14028 0.0
H575 H 0.44726 0.04529 0.14254 0.0
H576 H 0.52323 0.07433 0.14489 0.0
H577 H 0.50715 0.11723 0.14253 0.0
H578 H 0.51997 0.03657 0.12137 0.0
H579 H 0.49436 0.05074 0.18195 0.0
H580 H 0.46476 0.06203 0.20601 0.0
H581 H 0.41596 1.001 0.19082 0.0
H582 H 0.44512 0.98955 0.16651 0.0
H583 H 0.58137 0.92081 0.14232 0.0
H584 H 0.56604 0.96437 0.14431 0.0
H585 H 0.48921 0.93743 0.14422 0.0
H586 H 0.50425 0.89411 0.14264 0.0
H587 H 0.4936 0.97453 0.1673 0.0
H588 H 0.51769 0.96132 0.10618 0.0
H589 H 0.54651 0.95001 0.08166 0.0
H590 H 0.59723 0.00922 0.09732 0.0
H591 H 0.56884 0.02067 0.12209 0.0
C592 C 0.45101 0.08566 0.14142 0.0
C593 C 0.46762 0.10639 0.14118 0.0
C594 C 0.46039 0.06096 0.14276 0.0
C595 C 0.48652 0.05653 0.14394 0.0
C596 C 0.50303 0.07722 0.14393 0.0
C597 C 0.49373 0.1018 0.14262 0.0
C598 C 0.49689 0.03041 0.14461 0.0
C599 C 0.51446 0.02313 0.13158 0.0
C600 C 0.48933 0.01264 0.15767 0.0
C601 C 0.4718 0.01945 0.1723 0.0
C602 C 0.47721 0.03986 0.18365 0.0
C603 C 0.46053 0.04626 0.19735 0.0
C604 C 0.43846 0.03229 0.19991 0.0
C605 C 0.43305 0.01183 0.1888 0.0
C606 C 0.44966 0.00536 0.17507 0.0
C607 C 0.56123 0.92416 0.14288 0.0
C608 C 0.54409 0.90388 0.14221 0.0
C609 C 0.55246 0.9491 0.14392 0.0
C610 C 0.52641 0.95427 0.14416 0.0
C611 C 0.50936 0.93401 0.14403 0.0
C612 C 0.51807 0.90917 0.14306 0.0
C613 C 0.51668 0.98068 0.14405 0.0
C614 C 0.4992 0.98801 0.15715 0.0
C615 C 0.52422 0.99849 0.131 0.0
C616 C 0.54129 0.99167 0.1161 0.0
C617 C 0.53509 0.9718 0.10448 0.0
C618 C 0.55133 0.96539 0.09052 0.0
C619 C 0.57373 0.97884 0.08796 0.0
C620 C 0.5799 0.99879 0.09933 0.0
C621 C 0.56374 0.00526 0.11333 0.0
H622 H 0.58627 0.97385 0.07715 0.0
H623 H 0.42557 0.03727 0.21052 0.0
H624 H 0.22064 0.569 0.32152 0.0
H625 H 0.2292 0.5605 0.29008 0.0
H626 H 0.224 0.4805 0.3001 0.0
H627 H 0.21574 0.48882 0.33164 0.0
H628 H 0.26061 0.49104 0.2755 0.0
H629 H 0.17333 0.51193 0.28504 0.0
H630 H 0.1379 0.53802 0.29568 0.0
H631 H 0.16221 0.59916 0.26219 0.0
H632 H 0.198 0.57351 0.25151 0.0
H633 H 0.22017 0.44578 0.19063 0.0
H634 H 0.22769 0.45693 0.22175 0.0
H635 H 0.22951 0.5358 0.20747 0.0
H636 H 0.22152 0.5248 0.17632 0.0
H637 H 0.19764 0.52794 0.23402 0.0
H638 H 0.28306 0.50406 0.22209 0.0
H639 H 0.31725 0.47645 0.21136 0.0
H640 H 0.29548 0.41937 0.24902 0.0
H641 H 0.26092 0.44649 0.25982 0.0
C642 C 0.2218 0.54957 0.31713 0.0
C643 C 0.21725 0.52959 0.32907 0.0
C644 C 0.22661 0.54475 0.29912 0.0
C645 C 0.22678 0.51987 0.29266 0.0
C646 C 0.22387 0.49984 0.30476 0.0
C647 C 0.21911 0.50465 0.3228 0.0
C648 C 0.22786 0.51484 0.27317 0.0
C649 C 0.24679 0.49897 0.26642 0.0
C650 C 0.21003 0.52548 0.26127 0.0
C651 C 0.1885 0.54091 0.26764 0.0
C652 C 0.17123 0.53101 0.28005 0.0
C653 C 0.15107 0.5457 0.28607 0.0
C654 C 0.14785 0.57026 0.27966 0.0
C655 C 0.16476 0.58015 0.26717 0.0
C656 C 0.18498 0.56554 0.26112 0.0
C657 C 0.2227 0.46548 0.19402 0.0
C658 C 0.22013 0.4844 0.18097 0.0
C659 C 0.2271 0.47184 0.21186 0.0
C660 C 0.22926 0.49723 0.217 0.0
C661 C 0.22787 0.51609 0.20384 0.0
C662 C 0.22341 0.50975 0.18601 0.0
C663 C 0.23049 0.50418 0.23621 0.0
C664 C 0.21179 0.52029 0.24298 0.0
C665 C 0.24842 0.49358 0.24808 0.0
C666 C 0.26926 0.47726 0.24167 0.0
C667 C 0.28544 0.48555 0.228 0.0
C668 C 0.30491 0.47 0.22192 0.0
C669 C 0.3085 0.44615 0.22948 0.0
C670 C 0.29266 0.43784 0.24317 0.0
C671 C 0.27315 0.45331 0.24929 0.0
H672 H 0.32358 0.43414 0.22475 0.0
H673 H 0.13222 0.5816 0.28434 0.0
H674 H 0.48571 0.21854 0.67883 0.0
H675 H 0.47717 0.22681 0.71028 0.0
H676 H 0.55702 0.23428 0.72025 0.0
H677 H 0.56573 0.22559 0.68886 0.0
H678 H 0.53654 0.20174 0.7427 0.0
H679 H 0.51616 0.28534 0.72327 0.0
H680 H 0.49502 0.31759 0.70484 0.0
H681 H 0.42271 0.29165 0.7231 0.0
H682 H 0.4434 0.259 0.74145 0.0
H683 H 0.52052 0.22478 0.83418 0.0
H684 H 0.53125 0.23354 0.80307 0.0
H685 H 0.45297 0.22542 0.78832 0.0
H686 H 0.44201 0.21725 0.81944 0.0
H687 H 0.47484 0.2617 0.76865 0.0
H688 H 0.49399 0.17589 0.78494 0.0
H689 H 0.51389 0.14229 0.80287 0.0
H690 H 0.5873 0.17117 0.78969 0.0
H691 H 0.56781 0.20517 0.77188 0.0
C692 C 0.50144 0.22249 0.68762 0.0
C693 C 0.52641 0.22127 0.68133 0.0
C694 C 0.49651 0.22731 0.70563 0.0
C695 C 0.51644 0.23125 0.71768 0.0
C696 C 0.54133 0.23125 0.71124 0.0
C697 C 0.54627 0.22637 0.69325 0.0
C698 C 0.51151 0.23283 0.73719 0.0
C699 C 0.52346 0.21526 0.7484 0.0
C700 C 0.49384 0.2499 0.74461 0.0
C701 C 0.48134 0.26958 0.73364 0.0
C702 C 0.49574 0.28638 0.72326 0.0
C703 C 0.48384 0.30476 0.71284 0.0
C704 C 0.45754 0.30663 0.71277 0.0
C705 C 0.44308 0.29017 0.72316 0.0
C706 C 0.45489 0.27174 0.73359 0.0
C707 C 0.5055 0.22535 0.82438 0.0
C708 C 0.48044 0.22003 0.82927 0.0
C709 C 0.51169 0.23025 0.80657 0.0
C710 C 0.493 0.2296 0.79328 0.0
C711 C 0.46774 0.22592 0.79831 0.0
C712 C 0.46151 0.22119 0.81613 0.0
C713 C 0.49993 0.23067 0.77406 0.0
C714 C 0.48823 0.24852 0.76293 0.0
C715 C 0.51769 0.21372 0.76661 0.0
C716 C 0.52944 0.19323 0.77725 0.0
C717 C 0.51437 0.17518 0.78598 0.0
C718 C 0.52557 0.15605 0.7961 0.0
C719 C 0.55184 0.15464 0.79746 0.0
C720 C 0.56696 0.17232 0.78866 0.0
C721 C 0.55585 0.19152 0.77854 0.0
H722 H 0.56048 0.13981 0.80531 0.0
H723 H 0.44836 0.32087 0.7047 0.0
H724 H 0.7927 0.56752 0.19198 0.0
H725 H 0.7848 0.55614 0.2231 0.0
H726 H 0.78203 0.47748 0.20855 0.0
H727 H 0.79034 0.48865 0.17747 0.0
H728 H 0.74931 0.53112 0.24256 0.0
H729 H 0.81415 0.44359 0.23968 0.0
H730 H 0.85016 0.42758 0.22217 0.0
H731 H 0.87226 0.50352 0.20956 0.0
H732 H 0.83663 0.51996 0.2272 0.0
H733 H 0.78943 0.44091 0.3217 0.0
H734 H 0.78166 0.45027 0.29026 0.0
H735 H 0.78277 0.52999 0.30179 0.0
H736 H 0.79024 0.52077 0.33331 0.0
H737 H 0.81375 0.47436 0.26896 0.0
H738 H 0.74855 0.56205 0.27026 0.0
H739 H 0.71357 0.57925 0.2882 0.0
H740 H 0.69334 0.50442 0.30496 0.0
H741 H 0.72796 0.48674 0.28694 0.0
C742 C 0.78995 0.54782 0.19533 0.0
C743 C 0.79246 0.52897 0.18226 0.0
C744 C 0.78538 0.54135 0.21314 0.0
C745 C 0.78329 0.51593 0.21823 0.0
C746 C 0.78402 0.4972 0.20499 0.0
C747 C 0.78867 0.50363 0.1872 0.0
C748 C 0.78254 0.50892 0.23744 0.0
C749 C 0.76347 0.51884 0.24838 0.0
C750 C 0.80083 0.49264 0.24502 0.0
C751 C 0.82254 0.48296 0.23458 0.0
C752 C 0.82675 0.45685 0.23321 0.0
C753 C 0.84709 0.44771 0.22326 0.0
C754 C 0.86343 0.46452 0.2147 0.0
C755 C 0.85953 0.49051 0.21614 0.0
C756 C 0.83926 0.49975 0.2261 0.0
C757 C 0.78749 0.46044 0.31763 0.0
C758 C 0.79056 0.4801 0.33003 0.0
C759 C 0.78313 0.46576 0.29962 0.0
C760 C 0.78161 0.49082 0.29361 0.0
C761 C 0.78353 0.51048 0.3061 0.0
C762 C 0.78787 0.50517 0.32414 0.0
C763 C 0.7804 0.49638 0.27416 0.0
C764 C 0.79931 0.48634 0.26316 0.0
C765 C 0.76208 0.5127 0.26663 0.0
C766 C 0.74102 0.5231 0.27737 0.0
C767 C 0.73658 0.54926 0.27772 0.0
C768 C 0.71682 0.55909 0.28791 0.0
C769 C 0.7013 0.54295 0.29776 0.0
C770 C 0.70545 0.51691 0.29739 0.0
C771 C 0.72516 0.50698 0.28721 0.0
H772 H 0.68602 0.5506 0.30565 0.0
H773 H 0.87914 0.4574 0.20699 0.0
H774 H 0.48505 0.78871 0.83385 0.0
H775 H 0.47425 0.77973 0.8028 0.0
H776 H 0.55296 0.7844 0.78845 0.0
H777 H 0.56392 0.79282 0.81948 0.0
H778 H 0.48045 0.81109 0.77598 0.0
H779 H 0.56484 0.7516 0.75068 0.0
H780 H 0.59373 0.71865 0.7618 0.0
H781 H 0.53788 0.69453 0.79963 0.0
H782 H 0.50854 0.7271 0.78859 0.0
H783 H 0.52131 0.79396 0.67881 0.0
H784 H 0.52946 0.78584 0.71038 0.0
H785 H 0.44952 0.77819 0.71978 0.0
H786 H 0.44117 0.78677 0.68829 0.0
H787 H 0.52032 0.74949 0.73499 0.0
H788 H 0.43486 0.80816 0.75841 0.0
H789 H 0.40743 0.84247 0.74744 0.0
H790 H 0.46734 0.86957 0.71395 0.0
H791 H 0.49521 0.83565 0.72491 0.0
C792 C 0.50012 0.78725 0.82416 0.0
C793 C 0.52534 0.79156 0.82916 0.0
C794 C 0.49391 0.78221 0.80639 0.0
C795 C 0.51276 0.7813 0.79324 0.0
C796 C 0.53807 0.78456 0.79834 0.0
C797 C 0.54431 0.78949 0.81613 0.0
C798 C 0.50579 0.77943 0.77404 0.0
C799 C 0.48875 0.79721 0.76713 0.0
C800 C 0.51721 0.76187 0.76232 0.0
C801 C 0.53457 0.74195 0.76889 0.0
C802 C 0.55868 0.73918 0.76131 0.0
C803 C 0.57515 0.72059 0.76761 0.0
C804 C 0.56767 0.70456 0.78144 0.0
C805 C 0.54368 0.70703 0.78896 0.0
C806 C 0.52714 0.72558 0.7827 0.0
C807 C 0.50547 0.79009 0.68751 0.0
C808 C 0.48056 0.79134 0.68106 0.0
C809 C 0.51018 0.78539 0.70558 0.0
C810 C 0.49009 0.78188 0.71753 0.0
C811 C 0.4653 0.78131 0.71087 0.0
C812 C 0.46056 0.78613 0.69283 0.0
C813 C 0.49496 0.78108 0.73706 0.0
C814 C 0.51171 0.76301 0.74397 0.0
C815 C 0.48346 0.79849 0.74883 0.0
C816 C 0.46698 0.81918 0.74232 0.0
C817 C 0.44218 0.82149 0.74875 0.0
C818 C 0.42657 0.84086 0.74253 0.0
C819 C 0.43561 0.85813 0.72995 0.0
C820 C 0.46033 0.85613 0.72363 0.0
C821 C 0.47603 0.83682 0.72983 0.0
H822 H 0.42348 0.87309 0.72514 0.0
H823 H 0.58046 0.69019 0.78631 0.0
H824 H 0.81634 0.49186 0.83018 0.0
H825 H 0.8097 0.48379 0.79859 0.0
H826 H 0.75636 0.54537 0.79626 0.0
H827 H 0.76503 0.55493 0.82765 0.0
H828 H 0.77844 0.47023 0.77724 0.0
H829 H 0.75408 0.57262 0.75625 0.0
H830 H 0.76202 0.61632 0.76618 0.0
H831 H 0.83026 0.59255 0.79214 0.0
H832 H 0.82287 0.5488 0.78219 0.0
H833 H 0.76476 0.45965 0.68398 0.0
H834 H 0.75535 0.46952 0.71521 0.0
H835 H 0.81432 0.52592 0.71487 0.0
H836 H 0.8217 0.51783 0.68338 0.0
H837 H 0.78352 0.5423 0.7352 0.0
H838 H 0.8197 0.45935 0.73154 0.0
H839 H 0.82289 0.41503 0.72177 0.0
H840 H 0.75089 0.39886 0.74544 0.0
H841 H 0.74715 0.44319 0.75518 0.0
C842 C 0.80297 0.5035 0.82296 0.0
C843 C 0.79131 0.52411 0.83131 0.0
C844 C 0.79912 0.49885 0.80484 0.0
C845 C 0.78293 0.51428 0.7947 0.0
C846 C 0.76968 0.5337 0.80347 0.0
C847 C 0.77436 0.53899 0.82148 0.0
C848 C 0.78123 0.51071 0.77493 0.0
C849 C 0.77955 0.48606 0.76809 0.0
C850 C 0.78303 0.53115 0.76276 0.0
C851 C 0.78772 0.55742 0.76868 0.0
C852 C 0.77079 0.57676 0.76405 0.0
C853 C 0.7752 0.60152 0.76968 0.0
C854 C 0.79658 0.60718 0.77985 0.0
C855 C 0.81366 0.58812 0.78433 0.0
C856 C 0.80937 0.56334 0.7787 0.0
C857 C 0.77521 0.47454 0.69056 0.0
C858 C 0.79387 0.48805 0.68132 0.0
C859 C 0.77011 0.47998 0.7085 0.0
C860 C 0.78459 0.49801 0.71778 0.0
C861 C 0.8027 0.51198 0.70823 0.0
C862 C 0.807 0.50732 0.69016 0.0
C863 C 0.78197 0.50175 0.7375 0.0
C864 C 0.78241 0.52645 0.74433 0.0
C865 C 0.78083 0.48126 0.74969 0.0
C866 C 0.78301 0.45462 0.74388 0.0
C867 C 0.80449 0.44636 0.73456 0.0
C868 C 0.8064 0.42125 0.72904 0.0
C869 C 0.78706 0.40416 0.73292 0.0
C870 C 0.76581 0.41214 0.7424 0.0
C871 C 0.76379 0.43724 0.74793 0.0
H872 H 0.78857 0.38473 0.72864 0.0
H873 H 0.79993 0.62635 0.78421 0.0
H874 H 0.52459 0.78579 0.33357 0.0
H875 H 0.53449 0.77767 0.30228 0.0
H876 H 0.45554 0.78342 0.28888 0.0
H877 H 0.4454 0.79106 0.32022 0.0
H878 H 0.47851 0.74776 0.26866 0.0
H879 H 0.49373 0.83418 0.28487 0.0
H880 H 0.51216 0.86869 0.30266 0.0
H881 H 0.58674 0.84387 0.28879 0.0
H882 H 0.56873 0.80896 0.27111 0.0
H883 H 0.48757 0.79157 0.17849 0.0
H884 H 0.47911 0.783 0.20996 0.0
H885 H 0.55909 0.7782 0.22017 0.0
H886 H 0.56771 0.78705 0.18878 0.0
H887 H 0.53708 0.8106 0.24226 0.0
H888 H 0.52053 0.72597 0.22328 0.0
H889 H 0.50083 0.69265 0.20506 0.0
H890 H 0.42747 0.7153 0.22331 0.0
H891 H 0.44671 0.749 0.24146 0.0
C892 C 0.50926 0.78483 0.32404 0.0
C893 C 0.48423 0.78937 0.32937 0.0
C894 C 0.51497 0.78027 0.30613 0.0
C895 C 0.49582 0.78046 0.29317 0.0
C896 C 0.47064 0.78329 0.29862 0.0
C897 C 0.46489 0.78771 0.31656 0.0
C898 C 0.50222 0.77993 0.27386 0.0
C899 C 0.49119 0.76157 0.26283 0.0
C900 C 0.51902 0.79777 0.26628 0.0
C901 C 0.52989 0.8188 0.27684 0.0
C902 C 0.51406 0.83597 0.28573 0.0
C903 C 0.52443 0.85561 0.29577 0.0
C904 C 0.55061 0.85842 0.2969 0.0
C905 C 0.56647 0.84163 0.28793 0.0
C906 C 0.55619 0.82192 0.27789 0.0
C907 C 0.50336 0.78813 0.18734 0.0
C908 C 0.52832 0.79015 0.18112 0.0
C909 C 0.49848 0.78316 0.20535 0.0
C910 C 0.51847 0.77992 0.21747 0.0
C911 C 0.54337 0.78069 0.21109 0.0
C912 C 0.54826 0.78568 0.19311 0.0
C913 C 0.51353 0.7783 0.23697 0.0
C914 C 0.52469 0.79649 0.24805 0.0
C915 C 0.4967 0.76045 0.24449 0.0
C916 C 0.48507 0.74016 0.23362 0.0
C917 C 0.50019 0.72399 0.2233 0.0
C918 C 0.4891 0.705 0.21301 0.0
C919 C 0.46291 0.7019 0.213 0.0
C920 C 0.44776 0.71774 0.22332 0.0
C921 C 0.45875 0.73677 0.23363 0.0
H922 H 0.45436 0.68719 0.20501 0.0
H923 H 0.5586 0.87365 0.30468 0.0
H924 H 0.21873 0.44257 0.81989 0.0
H925 H 0.2278 0.45304 0.78885 0.0
H926 H 0.23035 0.53212 0.80233 0.0
H927 H 0.22081 0.52181 0.8334 0.0
H928 H 0.19956 0.52442 0.77524 0.0
H929 H 0.28392 0.49917 0.78916 0.0
H930 H 0.31723 0.4712 0.80086 0.0
H931 H 0.29603 0.41386 0.76332 0.0
H932 H 0.26235 0.44135 0.75155 0.0
H933 H 0.22656 0.56423 0.68832 0.0
H934 H 0.23455 0.55554 0.71981 0.0
H935 H 0.22697 0.47573 0.71002 0.0
H936 H 0.21927 0.48423 0.67839 0.0
H937 H 0.26337 0.48561 0.73541 0.0
H938 H 0.17701 0.50842 0.7238 0.0
H939 H 0.14284 0.53534 0.71208 0.0
H940 H 0.16718 0.59618 0.74573 0.0
H941 H 0.20174 0.56971 0.75746 0.0
C942 C 0.22174 0.46217 0.81635 0.0
C943 C 0.21891 0.48137 0.82913 0.0
C944 C 0.22703 0.46813 0.79856 0.0
C945 C 0.22986 0.49338 0.79321 0.0
C946 C 0.22822 0.5125 0.80612 0.0
C947 C 0.22285 0.50656 0.82391 0.0
C948 C 0.232 0.49997 0.77395 0.0
C949 C 0.2139 0.51634 0.76665 0.0
C950 C 0.25017 0.48883 0.76256 0.0
C951 C 0.27047 0.47227 0.76956 0.0
C952 C 0.28623 0.48052 0.78348 0.0
C953 C 0.3052 0.46476 0.79011 0.0
C954 C 0.30871 0.44075 0.78286 0.0
C955 C 0.29328 0.43246 0.76893 0.0
C956 C 0.27427 0.44814 0.76226 0.0
C957 C 0.22712 0.54477 0.69276 0.0
C958 C 0.22198 0.52493 0.68086 0.0
C959 C 0.23163 0.53985 0.7108 0.0
C960 C 0.23087 0.51502 0.71734 0.0
C961 C 0.22756 0.49504 0.70528 0.0
C962 C 0.22312 0.49995 0.68719 0.0
C963 C 0.23106 0.51011 0.73686 0.0
C964 C 0.24936 0.49394 0.74414 0.0
C965 C 0.21299 0.5213 0.74829 0.0
C966 C 0.19213 0.53719 0.74135 0.0
C967 C 0.17519 0.52761 0.72859 0.0
C968 C 0.15574 0.54277 0.72196 0.0
C969 C 0.15289 0.56748 0.72811 0.0
C970 C 0.16944 0.57705 0.74095 0.0
C971 C 0.18896 0.56198 0.7476 0.0
H972 H 0.13781 0.57919 0.72297 0.0
H973 H 0.3234 0.42858 0.78802 0.0
H974 H 0.56813 0.2202 0.32095 0.0
H975 H 0.55991 0.22887 0.28947 0.0
H976 H 0.47978 0.22703 0.29954 0.0
H977 H 0.48785 0.21865 0.33108 0.0
H978 H 0.53665 0.19716 0.26737 0.0
H979 H 0.44874 0.26213 0.26807 0.0
H980 H 0.43091 0.29665 0.28614 0.0
H981 H 0.50518 0.3166 0.30423 0.0
H982 H 0.52349 0.28245 0.28609 0.0
H983 H 0.44482 0.21912 0.18989 0.0
H984 H 0.45579 0.22675 0.22109 0.0
H985 H 0.53465 0.22968 0.20703 0.0
H986 H 0.52389 0.22162 0.17585 0.0
H987 H 0.48038 0.26195 0.24085 0.0
H988 H 0.56813 0.19741 0.23831 0.0
H989 H 0.58458 0.16167 0.22075 0.0
H990 H 0.50895 0.13944 0.20741 0.0
H991 H 0.49206 0.17482 0.22508 0.0
C992 C 0.54875 0.22218 0.31656 0.0
C993 C 0.52864 0.21862 0.32854 0.0
C994 C 0.54408 0.22706 0.29853 0.0
C995 C 0.51924 0.22864 0.2921 0.0
C996 C 0.49913 0.22624 0.30419 0.0
C997 C 0.50377 0.22137 0.32224 0.0
C998 C 0.51438 0.23034 0.27258 0.0
C999 C 0.52478 0.21169 0.26154 0.0
C1000 C 0.49823 0.24878 0.26502 0.0
C1001 C 0.48745 0.26956 0.27584 0.0
C1002 C 0.46128 0.27395 0.27585 0.0
C1003 C 0.45109 0.29344 0.28612 0.0
C1004 C 0.4669 0.30876 0.29637 0.0
C1005 C 0.49294 0.30466 0.29634 0.0
C1006 C 0.50323 0.28521 0.28609 0.0
C1007 C 0.46448 0.22185 0.19336 0.0
C1008 C 0.48351 0.21944 0.1804 0.0
C1009 C 0.47071 0.22627 0.21122 0.0
C1010 C 0.49606 0.22832 0.21646 0.0
C1011 C 0.51497 0.22772 0.20334 0.0
C1012 C 0.50878 0.22321 0.18549 0.0
C1013 C 0.50278 0.22886 0.23572 0.0
C1014 C 0.49257 0.24772 0.24669 0.0
C1015 C 0.51894 0.21048 0.24332 0.0
C1016 C 0.52888 0.18895 0.23283 0.0
C1017 C 0.55503 0.18485 0.23166 0.0
C1018 C 0.56442 0.16466 0.22169 0.0
C1019 C 0.54782 0.14836 0.21291 0.0
C1020 C 0.52179 0.15214 0.21415 0.0
C1021 C 0.5123 0.17228 0.22413 0.0
H1022 H 0.55513 0.13275 0.20518 0.0
H1023 H 0.45897 0.32383 0.30432 0.0
H1024 H 0.22298 0.4844 0.92708 0.0
H1025 H 0.2291 0.48963 0.95938 0.0
H1026 H 0.1853 0.42238 0.96898 0.0
H1027 H 0.17925 0.4169 0.93711 0.0
H1028 H 0.16883 0.46365 0.98845 0.0
H1029 H 0.24711 0.42081 0.97408 0.0
H1030 H 0.2879 0.41611 0.95862 0.0
H1031 H 0.31366 0.48598 0.98117 0.0
H1032 H 0.27286 0.49126 0.99658 0.0
H1033 H 0.18486 0.4168 0.07343 0.0
H1034 H 0.18987 0.42226 0.04145 0.0
H1035 H 0.22874 0.49268 0.05005 0.0
H1036 H 0.22366 0.48748 0.08246 0.0
H1037 H 0.24981 0.45941 0.02161 0.0
H1038 H 0.17309 0.49965 0.03881 0.0
H1039 H 0.13252 0.50357 0.05464 0.0
H1040 H 0.10375 0.43909 0.02659 0.0
H1041 H 0.14431 0.43452 0.01079 0.0
C1042 C 0.21491 0.47059 0.93608 0.0
C1043 C 0.2005 0.45031 0.92945 0.0
C1044 C 0.21844 0.4736 0.95452 0.0
C1045 C 0.20753 0.45645 0.96657 0.0
C1046 C 0.19375 0.43592 0.95993 0.0
C1047 C 0.19038 0.43281 0.94164 0.0
C1048 C 0.20918 0.4601 0.98616 0.0
C1049 C 0.18655 0.46272 0.99568 0.0
C1050 C 0.23236 0.45975 0.99556 0.0
C1051 C 0.25682 0.4566 0.98628 0.0
C1052 C 0.26138 0.43531 0.97559 0.0
C1053 C 0.28452 0.4325 0.96687 0.0
C1054 C 0.30333 0.45078 0.96886 0.0
C1055 C 0.29905 0.47187 0.97961 0.0
C1056 C 0.27593 0.47477 0.98834 0.0
C1057 C 0.19474 0.43338 0.06866 0.0
C1058 C 0.20362 0.45185 0.08058 0.0
C1059 C 0.19759 0.43644 0.05031 0.0
C1060 C 0.20942 0.45799 0.04338 0.0
C1061 C 0.21952 0.47593 0.05517 0.0
C1062 C 0.21654 0.47294 0.07366 0.0
C1063 C 0.20939 0.46209 0.02381 0.0
C1064 C 0.23219 0.46094 0.01432 0.0
C1065 C 0.18636 0.46389 0.01434 0.0
C1066 C 0.16182 0.46665 0.0237 0.0
C1067 C 0.15818 0.48618 0.03611 0.0
C1068 C 0.13518 0.48854 0.04507 0.0
C1069 C 0.11559 0.47157 0.04165 0.0
C1070 C 0.11895 0.45222 0.02923 0.0
C1071 C 0.14194 0.44976 0.02026 0.0
H1072 H 0.09779 0.47343 0.04859 0.0
H1073 H 0.32124 0.44857 0.9621 0.0
H1074 H 0.59546 0.19552 0.43576 0.0
H1075 H 0.59054 0.20089 0.46778 0.0
H1076 H 0.51227 0.22051 0.46041 0.0
H1077 H 0.51708 0.21535 0.428 0.0
H1078 H 0.53689 0.24909 0.48783 0.0
H1079 H 0.52371 0.16298 0.47174 0.0
H1080 H 0.53316 0.12286 0.45654 0.0
H1081 H 0.60327 0.11727 0.48502 0.0
H1082 H 0.59442 0.15758 0.50019 0.0
H1083 H 0.51733 0.21739 0.58192 0.0
H1084 H 0.513 0.22243 0.54947 0.0
H1085 H 0.59028 0.1989 0.54258 0.0
H1086 H 0.59472 0.19372 0.57464 0.0
H1087 H 0.55827 0.17181 0.52208 0.0
H1088 H 0.57247 0.25991 0.53637 0.0
H1089 H 0.56283 0.30017 0.55133 0.0
H1090 H 0.48974 0.30156 0.52659 0.0
H1091 H 0.49883 0.2611 0.51166 0.0
C1092 C 0.57722 0.20129 0.44084 0.0
C1093 C 0.55656 0.20466 0.42931 0.0
C1094 C 0.57446 0.20437 0.45919 0.0
C1095 C 0.55094 0.21064 0.46651 0.0
C1096 C 0.53057 0.21555 0.45502 0.0
C1097 C 0.53335 0.21257 0.43653 0.0
C1098 C 0.5476 0.20997 0.48617 0.0
C1099 C 0.54111 0.23211 0.49535 0.0
C1100 C 0.55317 0.18781 0.49597 0.0
C1101 C 0.55847 0.1634 0.48701 0.0
C1102 C 0.54122 0.15328 0.47467 0.0
C1103 C 0.54646 0.1305 0.46607 0.0
C1104 C 0.56882 0.11754 0.46979 0.0
C1105 C 0.58596 0.12733 0.48215 0.0
C1106 C 0.58083 0.15013 0.49077 0.0
C1107 C 0.53349 0.21368 0.57349 0.0
C1108 C 0.5563 0.20492 0.58089 0.0
C1109 C 0.53099 0.21658 0.55495 0.0
C1110 C 0.55129 0.2109 0.54359 0.0
C1111 C 0.5743 0.20319 0.55106 0.0
C1112 C 0.5768 0.20027 0.56945 0.0
C1113 C 0.54854 0.21118 0.52386 0.0
C1114 C 0.55374 0.18878 0.51462 0.0
C1115 C 0.54165 0.23303 0.51412 0.0
C1116 C 0.53621 0.25733 0.52308 0.0
C1117 C 0.55425 0.26868 0.53425 0.0
C1118 C 0.54891 0.29156 0.5427 0.0
C1119 C 0.52566 0.30338 0.53996 0.0
C1120 C 0.50772 0.29236 0.52873 0.0
C1121 C 0.51297 0.26947 0.52027 0.0
H1122 H 0.52156 0.3211 0.54651 0.0
H1123 H 0.57285 0.09991 0.46311 0.0
H1124 H 0.81991 0.59815 0.07468 0.0
H1125 H 0.81075 0.59378 0.04307 0.0
H1126 H 0.78307 0.51827 0.05205 0.0
H1127 H 0.79248 0.52242 0.084 0.0
H1128 H 0.81559 0.52038 0.02388 0.0
H1129 H 0.74192 0.56464 0.04162 0.0
H1130 H 0.71733 0.59754 0.057 0.0
H1131 H 0.75398 0.65481 0.02579 0.0
H1132 H 0.7791 0.6223 0.01042 0.0
H1133 H 0.79017 0.52123 0.92977 0.0
H1134 H 0.7821 0.51757 0.96191 0.0
H1135 H 0.80913 0.5936 0.96953 0.0
H1136 H 0.81688 0.59751 0.93768 0.0
H1137 H 0.76825 0.58508 0.98964 0.0
H1138 H 0.84709 0.54183 0.97676 0.0
H1139 H 0.87334 0.50959 0.96201 0.0
H1140 H 0.82729 0.45091 0.98449 0.0
H1141 H 0.80058 0.48286 0.9992 0.0
C1142 C 0.81166 0.58064 0.07005 0.0
C1143 C 0.80695 0.56062 0.08194 0.0
C1144 C 0.80629 0.57823 0.05192 0.0
C1145 C 0.79594 0.55581 0.04517 0.0
C1146 C 0.79094 0.5358 0.05698 0.0
C1147 C 0.79624 0.53823 0.07524 0.0
C1148 C 0.79175 0.5532 0.02564 0.0
C1149 C 0.80469 0.53414 0.01642 0.0
C1150 C 0.77781 0.57134 0.01586 0.0
C1151 C 0.7625 0.59099 0.02491 0.0
C1152 C 0.74485 0.58425 0.0381 0.0
C1153 C 0.73081 0.60284 0.04681 0.0
C1154 C 0.73411 0.62825 0.04239 0.0
C1155 C 0.75143 0.63512 0.0292 0.0
C1156 C 0.76555 0.61661 0.02046 0.0
C1157 C 0.7941 0.53725 0.93828 0.0
C1158 C 0.80436 0.55959 0.93113 0.0
C1159 C 0.78958 0.5351 0.95666 0.0
C1160 C 0.79526 0.55523 0.96819 0.0
C1161 C 0.80458 0.57781 0.96095 0.0
C1162 C 0.80913 0.57995 0.94268 0.0
C1163 C 0.79277 0.5528 0.98789 0.0
C1164 C 0.77859 0.57094 0.99713 0.0
C1165 C 0.80562 0.53388 0.99769 0.0
C1166 C 0.82166 0.51471 0.98887 0.0
C1167 C 0.84245 0.52205 0.97843 0.0
C1168 C 0.85743 0.50384 0.97011 0.0
C1169 C 0.85193 0.47822 0.97226 0.0
C1170 C 0.83149 0.47076 0.98279 0.0
C1171 C 0.81643 0.48891 0.99113 0.0
H1172 H 0.86355 0.46415 0.96581 0.0
H1173 H 0.72323 0.64261 0.04916 0.0
H1174 H 0.48458 0.77904 0.58422 0.0
H1175 H 0.49135 0.77082 0.55227 0.0
H1176 H 0.43442 0.82582 0.53907 0.0
H1177 H 0.42723 0.83383 0.57061 0.0
H1178 H 0.45221 0.75727 0.52358 0.0
H1179 H 0.46327 0.86265 0.50679 0.0
H1180 H 0.47846 0.90173 0.52106 0.0
H1181 H 0.5294 0.85865 0.55359 0.0
H1182 H 0.5148 0.81936 0.53933 0.0
H1183 H 0.41857 0.79901 0.43642 0.0
H1184 H 0.42486 0.79155 0.46831 0.0
H1185 H 0.5055 0.7935 0.46079 0.0
H1186 H 0.49935 0.8004 0.42868 0.0
H1187 H 0.48573 0.82797 0.48709 0.0
H1188 H 0.48361 0.74048 0.47245 0.0
H1189 H 0.46687 0.70203 0.45824 0.0
H1190 H 0.39823 0.70907 0.48823 0.0
H1191 H 0.41441 0.74779 0.50244 0.0
C1192 C 0.47337 0.7892 0.57449 0.0
C1193 C 0.45539 0.80712 0.58 0.0
C1194 C 0.47721 0.78443 0.55629 0.0
C1195 C 0.46346 0.79784 0.54337 0.0
C1196 C 0.44528 0.81536 0.54885 0.0
C1197 C 0.4412 0.81987 0.56693 0.0
C1198 C 0.46834 0.79454 0.52406 0.0
C1199 C 0.45984 0.77254 0.51558 0.0
C1200 C 0.47844 0.81446 0.51371 0.0
C1201 C 0.48781 0.83804 0.52206 0.0
C1202 C 0.47783 0.86153 0.51691 0.0
C1203 C 0.48631 0.88372 0.52501 0.0
C1204 C 0.50484 0.88267 0.53826 0.0
C1205 C 0.51499 0.85943 0.54338 0.0
C1206 C 0.5066 0.83719 0.5353 0.0
C1207 C 0.43766 0.79737 0.44149 0.0
C1208 C 0.45848 0.80035 0.43006 0.0
C1209 C 0.44121 0.79302 0.4597 0.0
C1210 C 0.46563 0.79193 0.46689 0.0
C1211 C 0.4865 0.79417 0.45546 0.0
C1212 C 0.48296 0.79802 0.43714 0.0
C1213 C 0.46904 0.79092 0.48651 0.0
C1214 C 0.47877 0.81234 0.49506 0.0
C1215 C 0.45999 0.7705 0.49687 0.0
C1216 C 0.45019 0.74715 0.48844 0.0
C1217 C 0.46487 0.73395 0.47592 0.0
C1218 C 0.45549 0.71208 0.46788 0.0
C1219 C 0.43148 0.70313 0.47231 0.0
C1220 C 0.41683 0.71602 0.48481 0.0
C1221 C 0.42611 0.73791 0.49288 0.0
H1222 H 0.42426 0.6862 0.46607 0.0
H1223 H 0.51135 0.89986 0.54453 0.0
H1224 H 0.19485 0.59549 0.43687 0.0
H1225 H 0.20361 0.59039 0.46849 0.0
H1226 H 0.22407 0.51262 0.45977 0.0
H1227 H 0.21508 0.51754 0.4278 0.0
H1228 H 0.19142 0.51776 0.48763 0.0
H1229 H 0.26939 0.55461 0.47071 0.0
H1230 H 0.2978 0.58478 0.45573 0.0
H1231 H 0.26634 0.64554 0.4863 0.0
H1232 H 0.23746 0.61581 0.50128 0.0
H1233 H 0.21682 0.51643 0.58191 0.0
H1234 H 0.22473 0.51225 0.54979 0.0
H1235 H 0.20206 0.58962 0.54188 0.0
H1236 H 0.19421 0.59396 0.57373 0.0
H1237 H 0.24392 0.57783 0.52227 0.0
H1238 H 0.16117 0.54214 0.53444 0.0
H1239 H 0.13173 0.51254 0.54903 0.0
H1240 H 0.17236 0.44977 0.52706 0.0
H1241 H 0.20225 0.47904 0.51253 0.0
C1242 C 0.20146 0.57732 0.44156 0.0
C1243 C 0.20422 0.5569 0.42976 0.0
C1244 C 0.20662 0.57448 0.45969 0.0
C1245 C 0.21476 0.5512 0.46651 0.0
C1246 C 0.21792 0.53079 0.45477 0.0
C1247 C 0.21287 0.53367 0.43651 0.0
C1248 C 0.21834 0.54818 0.48607 0.0
C1249 C 0.20343 0.53045 0.49518 0.0
C1250 C 0.23373 0.56495 0.49597 0.0
C1251 C 0.25116 0.58295 0.48706 0.0
C1252 C 0.2684 0.57443 0.47416 0.0
C1253 C 0.28461 0.59146 0.46568 0.0
C1254 C 0.28385 0.61707 0.47004 0.0
C1255 C 0.26691 0.6257 0.48293 0.0
C1256 C 0.25064 0.60875 0.49145 0.0
C1257 C 0.2138 0.53261 0.57334 0.0
C1258 C 0.20472 0.55548 0.58039 0.0
C1259 C 0.21824 0.53017 0.55499 0.0
C1260 C 0.21381 0.55058 0.54342 0.0
C1261 C 0.20565 0.57363 0.55054 0.0
C1262 C 0.20104 0.57603 0.56878 0.0
C1263 C 0.21643 0.54798 0.52377 0.0
C1264 C 0.23246 0.5647 0.51468 0.0
C1265 C 0.20207 0.53031 0.51389 0.0
C1266 C 0.18412 0.51275 0.52261 0.0
C1267 C 0.16395 0.52202 0.53286 0.0
C1268 C 0.14716 0.50531 0.54109 0.0
C1269 C 0.15023 0.47929 0.53902 0.0
C1270 C 0.17005 0.46993 0.52868 0.0
C1271 C 0.18691 0.48656 0.52045 0.0
H1272 H 0.1372 0.46638 0.5454 0.0
H1273 H 0.29641 0.63022 0.46346 0.0
H1274 H 0.48904 0.2185 0.92778 0.0
H1275 H 0.49367 0.22696 0.95979 0.0
H1276 H 0.41612 0.20528 0.96824 0.0
H1277 H 0.41132 0.19695 0.93649 0.0
H1278 H 0.42855 0.24636 0.98808 0.0
H1279 H 0.46338 0.16367 0.97515 0.0
H1280 H 0.49231 0.13414 0.96009 0.0
H1281 H 0.55605 0.17408 0.98142 0.0
H1282 H 0.52746 0.20407 0.99643 0.0
H1283 H 0.41335 0.19566 0.07347 0.0
H1284 H 0.41751 0.20463 0.04178 0.0
H1285 H 0.49511 0.22655 0.04969 0.0
H1286 H 0.49112 0.21745 0.08171 0.0
H1287 H 0.48931 0.19332 0.02175 0.0
H1288 H 0.45279 0.27106 0.03963 0.0
H1289 H 0.4228 0.29873 0.05535 0.0
H1290 H 0.36145 0.26741 0.02518 0.0
H1291 H 0.39101 0.23924 0.00947 0.0
C1292 C 0.47289 0.21589 0.93643 0.0
C1293 C 0.44987 0.20685 0.92958 0.0
C1294 C 0.4756 0.22064 0.95473 0.0
C1295 C 0.4553 0.21652 0.96644 0.0
C1296 C 0.43204 0.2086 0.95948 0.0
C1297 C 0.42937 0.20372 0.9413 0.0
C1298 C 0.45833 0.21889 0.98608 0.0
C1299 C 0.44184 0.23479 0.99546 0.0
C1300 C 0.47614 0.20431 0.99569 0.0
C1301 C 0.49331 0.1863 0.9867 0.0
C1302 C 0.48357 0.16628 0.9765 0.0
C1303 C 0.4999 0.14944 0.968 0.0
C1304 C 0.526 0.15229 0.96974 0.0
C1305 C 0.53583 0.17194 0.98004 0.0
C1306 C 0.51957 0.18886 0.98855 0.0
C1307 C 0.43128 0.20263 0.06857 0.0
C1308 C 0.45192 0.2058 0.08016 0.0
C1309 C 0.43358 0.20789 0.05042 0.0
C1310 C 0.45655 0.21649 0.04336 0.0
C1311 C 0.47717 0.22003 0.05488 0.0
C1312 C 0.47483 0.21492 0.07316 0.0
C1313 C 0.45902 0.22026 0.02379 0.0
C1314 C 0.47648 0.20544 0.01441 0.0
C1315 C 0.44202 0.23577 0.01418 0.0
C1316 C 0.42415 0.25293 0.02342 0.0
C1317 C 0.43289 0.26995 0.03642 0.0
C1318 C 0.41596 0.28574 0.04532 0.0
C1319 C 0.39023 0.2848 0.04129 0.0
C1320 C 0.38139 0.26812 0.0283 0.0
C1321 C 0.39824 0.25226 0.01936 0.0
H1322 H 0.37715 0.29703 0.04821 0.0
H1323 H 0.53861 0.13922 0.96316 0.0
H1324 H 0.78765 0.48648 0.42901 0.0
H1325 H 0.7795 0.49032 0.4611 0.0
H1326 H 0.80952 0.41558 0.46947 0.0
H1327 H 0.81734 0.41147 0.43765 0.0
H1328 H 0.76896 0.42277 0.48994 0.0
H1329 H 0.84567 0.46865 0.47588 0.0
H1330 H 0.87078 0.50123 0.46044 0.0
H1331 H 0.823 0.55908 0.48198 0.0
H1332 H 0.79742 0.52677 0.49738 0.0
H1333 H 0.82128 0.41495 0.57505 0.0
H1334 H 0.8123 0.41796 0.54337 0.0
H1335 H 0.78122 0.49239 0.55091 0.0
H1336 H 0.79056 0.48968 0.58296 0.0
H1337 H 0.81371 0.4907 0.52269 0.0
H1338 H 0.74216 0.44318 0.54163 0.0
H1339 H 0.72018 0.40938 0.55808 0.0
H1340 H 0.76016 0.35337 0.52797 0.0
H1341 H 0.78266 0.38683 0.51148 0.0
C1342 C 0.79219 0.47075 0.43767 0.0
C1343 C 0.80335 0.44876 0.43074 0.0
C1344 C 0.78762 0.47301 0.45602 0.0
C1345 C 0.79417 0.45334 0.46775 0.0
C1346 C 0.8043 0.43102 0.46073 0.0
C1347 C 0.80889 0.42877 0.44248 0.0
C1348 C 0.79191 0.45615 0.48744 0.0
C1349 C 0.77871 0.43764 0.4971 0.0
C1350 C 0.80411 0.47589 0.49682 0.0
C1351 C 0.81945 0.4953 0.48757 0.0
C1352 C 0.8404 0.48831 0.47719 0.0
C1353 C 0.85474 0.50672 0.46848 0.0
C1354 C 0.84843 0.53221 0.47017 0.0
C1355 C 0.82782 0.53933 0.48064 0.0
C1356 C 0.8134 0.52098 0.48936 0.0
C1357 C 0.81235 0.43195 0.5701 0.0
C1358 C 0.80664 0.45209 0.58162 0.0
C1359 C 0.80708 0.43357 0.55192 0.0
C1360 C 0.79575 0.45525 0.54475 0.0
C1361 C 0.78984 0.47541 0.55617 0.0
C1362 C 0.79511 0.4738 0.57448 0.0
C1363 C 0.79134 0.45693 0.52519 0.0
C1364 C 0.80334 0.47623 0.51555 0.0
C1365 C 0.7782 0.43779 0.51583 0.0
C1366 C 0.76418 0.41756 0.52535 0.0
C1367 C 0.74634 0.42366 0.53855 0.0
C1368 C 0.73379 0.40456 0.54788 0.0
C1369 C 0.7388 0.37925 0.54409 0.0
C1370 C 0.75629 0.37299 0.53088 0.0
C1371 C 0.7689 0.39202 0.52151 0.0
H1372 H 0.72911 0.36449 0.55137 0.0
H1373 H 0.85956 0.54644 0.46342 0.0
H1374 H 0.51945 0.79442 0.08172 0.0
H1375 H 0.51545 0.78914 0.0493 0.0
H1376 H 0.59339 0.81079 0.04278 0.0
H1377 H 0.59747 0.81629 0.07484 0.0
H1378 H 0.56278 0.83833 0.02191 0.0
H1379 H 0.57358 0.74994 0.03661 0.0
H1380 H 0.5625 0.71007 0.05172 0.0
H1381 H 0.48947 0.71104 0.02688 0.0
H1382 H 0.5 0.75111 0.01181 0.0
H1383 H 0.59703 0.81395 0.93501 0.0
H1384 H 0.59297 0.8086 0.96712 0.0
H1385 H 0.51403 0.79084 0.96095 0.0
H1386 H 0.51799 0.7959 0.92848 0.0
H1387 H 0.53813 0.76185 0.98798 0.0
H1388 H 0.52801 0.84846 0.97186 0.0
H1389 H 0.53877 0.88824 0.95654 0.0
H1390 H 0.6095 0.89109 0.98443 0.0
H1391 H 0.59934 0.85111 0.99971 0.0
C1392 C 0.53582 0.79765 0.07338 0.0
C1393 C 0.55871 0.80602 0.08088 0.0
C1394 C 0.53351 0.7946 0.05486 0.0
C1395 C 0.5541 0.79968 0.0436 0.0
C1396 C 0.57719 0.80695 0.05118 0.0
C1397 C 0.57949 0.81006 0.06956 0.0
C1398 C 0.55155 0.79935 0.02386 0.0
C1399 C 0.55759 0.82151 0.01452 0.0
C1400 C 0.54377 0.77774 0.01421 0.0
C1401 C 0.53746 0.75367 0.02326 0.0
C1402 C 0.55507 0.74177 0.0345 0.0
C1403 C 0.54891 0.71911 0.04303 0.0
C1404 C 0.52527 0.70808 0.04031 0.0
C1405 C 0.50776 0.71964 0.02901 0.0
C1406 C 0.51382 0.74231 0.02046 0.0
C1407 C 0.57883 0.80858 0.94039 0.0
C1408 C 0.55774 0.80571 0.92917 0.0
C1409 C 0.57655 0.80553 0.95878 0.0
C1410 C 0.5531 0.7998 0.96646 0.0
C1411 C 0.53228 0.79537 0.95529 0.0
C1412 C 0.53458 0.7983 0.93675 0.0
C1413 C 0.55032 0.80054 0.98616 0.0
C1414 C 0.5431 0.77866 0.99543 0.0
C1415 C 0.55688 0.82247 0.99587 0.0
C1416 C 0.56297 0.84668 0.98684 0.0
C1417 C 0.54593 0.85748 0.97464 0.0
C1418 C 0.55192 0.88007 0.96597 0.0
C1419 C 0.57482 0.89216 0.96948 0.0
C1420 C 0.59177 0.8817 0.98171 0.0
C1421 C 0.58589 0.85909 0.9904 0.0
H1422 H 0.57942 0.90965 0.96276 0.0
H1423 H 0.52053 0.69053 0.04692 0.0
H1424 H 0.18913 0.3361 0.13158 0.0
H1425 H 0.21933 0.30151 0.13495 0.0
H1426 H 0.2697 0.35084 0.16368 0.0
H1427 H 0.23972 0.38555 0.16024 0.0
H1428 H 0.29392 0.32702 0.1373 0.0
H1429 H 0.23831 0.30248 0.18471 0.0
H1430 H 0.19745 0.29166 0.19847 0.0
H1431 H 0.18898 0.22943 0.16235 0.0
H1432 H 0.22965 0.24009 0.14821 0.0
H1433 H 0.38537 0.23665 0.16014 0.0
H1434 H 0.35105 0.26701 0.16365 0.0
H1435 H 0.30164 0.21866 0.13333 0.0
H1436 H 0.33589 0.18804 0.12983 0.0
H1437 H 0.27657 0.24141 0.16124 0.0
H1438 H 0.32999 0.26657 0.11287 0.0
H1439 H 0.37024 0.27707 0.09812 0.0
H1440 H 0.38192 0.33797 0.13493 0.0
H1441 H 0.34187 0.32761 0.15005 0.0
C1442 C 0.20642 0.33949 0.1389 0.0
C1443 C 0.21199 0.36366 0.14561 0.0
C1444 C 0.22368 0.31964 0.14085 0.0
C1445 C 0.24683 0.32349 0.14961 0.0
C1446 C 0.25202 0.34738 0.15684 0.0
C1447 C 0.23477 0.36721 0.15492 0.0
C1448 C 0.26636 0.30325 0.15013 0.0
C1449 C 0.29022 0.30846 0.14284 0.0
C1450 C 0.26136 0.27871 0.1568 0.0
C1451 C 0.23692 0.27223 0.16529 0.0
C1452 C 0.22764 0.28662 0.1796 0.0
C1453 C 0.20453 0.28049 0.18749 0.0
C1454 C 0.19059 0.25991 0.18126 0.0
C1455 C 0.19978 0.24538 0.16715 0.0
C1456 C 0.22287 0.25144 0.15921 0.0
C1457 C 0.3671 0.23222 0.15446 0.0
C1458 C 0.36347 0.20996 0.14458 0.0
C1459 C 0.3475 0.24968 0.15642 0.0
C1460 C 0.32386 0.24534 0.1485 0.0
C1461 C 0.31972 0.22247 0.13951 0.0
C1462 C 0.33936 0.20498 0.13751 0.0
C1463 C 0.30412 0.26536 0.14861 0.0
C1464 C 0.28026 0.26006 0.15586 0.0
C1465 C 0.30899 0.28982 0.14178 0.0
C1466 C 0.33307 0.29614 0.13271 0.0
C1467 C 0.34124 0.28207 0.11791 0.0
C1468 C 0.364 0.28802 0.10947 0.0
C1469 C 0.37867 0.30813 0.11562 0.0
C1470 C 0.37056 0.32237 0.1302 0.0
C1471 C 0.34783 0.31648 0.1387 0.0
H1472 H 0.39628 0.31271 0.10906 0.0
H1473 H 0.17271 0.2552 0.18738 0.0
H1474 H 0.82171 0.33741 0.63072 0.0
H1475 H 0.79132 0.30292 0.63351 0.0
H1476 H 0.7424 0.35072 0.66457 0.0
H1477 H 0.77283 0.38533 0.66196 0.0
H1478 H 0.74261 0.30252 0.67745 0.0
H1479 H 0.73133 0.34303 0.62086 0.0
H1480 H 0.74424 0.35984 0.59156 0.0
H1481 H 0.76779 0.28584 0.57532 0.0
H1482 H 0.7553 0.26864 0.60462 0.0
H1483 H 0.62573 0.23859 0.6615 0.0
H1484 H 0.66076 0.2683 0.66461 0.0
H1485 H 0.70775 0.21991 0.63251 0.0
H1486 H 0.67268 0.19022 0.62918 0.0
H1487 H 0.70948 0.26759 0.62072 0.0
H1488 H 0.71792 0.22698 0.67764 0.0
H1489 H 0.70336 0.21123 0.70683 0.0
H1490 H 0.68335 0.28655 0.72239 0.0
H1491 H 0.69748 0.30272 0.69319 0.0
C1492 C 0.80469 0.34051 0.6384 0.0
C1493 C 0.79966 0.36423 0.64602 0.0
C1494 C 0.78725 0.32078 0.6399 0.0
C1495 C 0.76434 0.32433 0.64898 0.0
C1496 C 0.75988 0.34754 0.65743 0.0
C1497 C 0.77732 0.36733 0.65592 0.0
C1498 C 0.74453 0.30436 0.64881 0.0
C1499 C 0.73519 0.29503 0.66505 0.0
C1500 C 0.73505 0.29431 0.63263 0.0
C1501 C 0.74264 0.3046 0.61501 0.0
C1502 C 0.73946 0.33038 0.6111 0.0
C1503 C 0.74666 0.33997 0.59448 0.0
C1504 C 0.7569 0.32393 0.58161 0.0
C1505 C 0.7599 0.29825 0.58532 0.0
C1506 C 0.75274 0.28857 0.60192 0.0
C1507 C 0.64364 0.23402 0.65535 0.0
C1508 C 0.64635 0.21199 0.64508 0.0
C1509 C 0.66371 0.25104 0.65718 0.0
C1510 C 0.687 0.24636 0.64885 0.0
C1511 C 0.68998 0.22399 0.63905 0.0
C1512 C 0.66993 0.20694 0.63723 0.0
C1513 C 0.70763 0.26552 0.64938 0.0
C1514 C 0.71704 0.27485 0.63315 0.0
C1515 C 0.71697 0.27568 0.66556 0.0
C1516 C 0.70856 0.26602 0.68316 0.0
C1517 C 0.71024 0.24016 0.68723 0.0
C1518 C 0.70209 0.23116 0.70379 0.0
C1519 C 0.69238 0.24787 0.71644 0.0
C1520 C 0.69085 0.27363 0.71257 0.0
C1521 C 0.69895 0.28272 0.69603 0.0
H1522 H 0.68608 0.24087 0.72925 0.0
H1523 H 0.76246 0.33139 0.56875 0.0
H1524 H 0.7767 0.62812 0.16286 0.0
H1525 H 0.74629 0.66241 0.16636 0.0
H1526 H 0.79264 0.71061 0.13353 0.0
H1527 H 0.82337 0.67646 0.13014 0.0
H1528 H 0.77135 0.73718 0.16068 0.0
H1529 H 0.7432 0.67993 0.11541 0.0
H1530 H 0.73192 0.63851 0.10273 0.0
H1531 H 0.67375 0.62963 0.14208 0.0
H1532 H 0.68491 0.67088 0.15515 0.0
H1533 H 0.67483 0.82192 0.13031 0.0
H1534 H 0.70967 0.79212 0.13406 0.0
H1535 H 0.66195 0.74411 0.16604 0.0
H1536 H 0.62696 0.77367 0.16219 0.0
H1537 H 0.68439 0.71775 0.14032 0.0
H1538 H 0.71165 0.77743 0.18437 0.0
H1539 H 0.7232 0.81943 0.19591 0.0
H1540 H 0.78313 0.82467 0.15758 0.0
H1541 H 0.77173 0.78283 0.14564 0.0
C1542 C 0.78069 0.64614 0.15662 0.0
C1543 C 0.80241 0.64945 0.14609 0.0
C1544 C 0.76319 0.66572 0.15857 0.0
C1545 C 0.76691 0.68898 0.14993 0.0
C1546 C 0.78929 0.69282 0.14026 0.0
C1547 C 0.80684 0.67325 0.13833 0.0
C1548 C 0.74674 0.70859 0.15002 0.0
C1549 C 0.75238 0.73302 0.15609 0.0
C1550 C 0.72188 0.70313 0.14423 0.0
C1551 C 0.71507 0.67836 0.13637 0.0
C1552 C 0.72813 0.66905 0.12145 0.0
C1553 C 0.72174 0.64562 0.11417 0.0
C1554 C 0.70218 0.63141 0.12163 0.0
C1555 C 0.68892 0.64064 0.13634 0.0
C1556 C 0.69526 0.66405 0.14368 0.0
C1557 C 0.67186 0.80526 0.13842 0.0
C1558 C 0.64804 0.80019 0.14591 0.0
C1559 C 0.69186 0.78823 0.14059 0.0
C1560 C 0.68852 0.76583 0.15038 0.0
C1561 C 0.66501 0.76121 0.1584 0.0
C1562 C 0.64503 0.77821 0.15624 0.0
C1563 C 0.70884 0.74637 0.15117 0.0
C1564 C 0.70326 0.72193 0.1451 0.0
C1565 C 0.73375 0.75195 0.15682 0.0
C1566 C 0.74068 0.77708 0.16401 0.0
C1567 C 0.72717 0.78762 0.17831 0.0
C1568 C 0.73371 0.81138 0.18494 0.0
C1569 C 0.75385 0.82473 0.17746 0.0
C1570 C 0.76752 0.81432 0.16335 0.0
C1571 C 0.76105 0.79056 0.15666 0.0
H1572 H 0.75888 0.84313 0.18261 0.0
H1573 H 0.69726 0.61328 0.11598 0.0
H1574 H 0.18592 0.67008 0.6502 0.0
H1575 H 0.21518 0.70556 0.65403 0.0
H1576 H 0.27753 0.65671 0.6404 0.0
H1577 H 0.24865 0.62109 0.63839 0.0
H1578 H 0.29497 0.68523 0.66187 0.0
H1579 H 0.24485 0.70273 0.61005 0.0
H1580 H 0.20589 0.70976 0.59271 0.0
H1581 H 0.18707 0.77281 0.62605 0.0
H1582 H 0.2258 0.76596 0.64371 0.0
H1583 H 0.34746 0.80597 0.61408 0.0
H1584 H 0.31421 0.77456 0.61761 0.0
H1585 H 0.33559 0.76438 0.67275 0.0
H1586 H 0.3705 0.79418 0.66862 0.0
H1587 H 0.27483 0.76691 0.63293 0.0
H1588 H 0.32259 0.70699 0.68824 0.0
H1589 H 0.36535 0.6964 0.69897 0.0
H1590 H 0.39565 0.71163 0.64696 0.0
H1591 H 0.35304 0.722 0.63588 0.0
C1592 C 0.20595 0.66699 0.64834 0.0
C1593 C 0.21506 0.64287 0.64405 0.0
C1594 C 0.2227 0.68733 0.6503 0.0
C1595 C 0.24874 0.68425 0.64706 0.0
C1596 C 0.2577 0.6599 0.64309 0.0
C1597 C 0.24114 0.63944 0.64188 0.0
C1598 C 0.26672 0.70615 0.64734 0.0
C1599 C 0.29045 0.70305 0.65549 0.0
C1600 C 0.26135 0.72951 0.63886 0.0
C1601 C 0.23804 0.73364 0.62832 0.0
C1602 C 0.23231 0.71798 0.61375 0.0
C1603 C 0.21029 0.72195 0.60386 0.0
C1604 C 0.19398 0.74167 0.60832 0.0
C1605 C 0.19969 0.75751 0.62264 0.0
C1606 C 0.22167 0.7536 0.63259 0.0
C1607 C 0.34492 0.79715 0.627 0.0
C1608 C 0.36163 0.80238 0.64104 0.0
C1609 C 0.32581 0.77915 0.62905 0.0
C1610 C 0.32249 0.76641 0.64536 0.0
C1611 C 0.33816 0.77306 0.65981 0.0
C1612 C 0.35795 0.79036 0.65754 0.0
C1613 C 0.30338 0.74561 0.64685 0.0
C1614 C 0.27933 0.74906 0.63926 0.0
C1615 C 0.30904 0.72197 0.65481 0.0
C1616 C 0.33469 0.71558 0.66132 0.0
C1617 C 0.33838 0.70801 0.6791 0.0
C1618 C 0.36258 0.70206 0.68523 0.0
C1619 C 0.38321 0.70344 0.67367 0.0
C1620 C 0.37967 0.71066 0.65592 0.0
C1621 C 0.35551 0.71659 0.64971 0.0
H1622 H 0.40193 0.69886 0.67846 0.0
H1623 H 0.17694 0.74471 0.60064 0.0
H1624 H 0.33818 0.82103 0.38374 0.0
H1625 H 0.30244 0.79224 0.38032 0.0
H1626 H 0.34824 0.7428 0.34818 0.0
H1627 H 0.384 0.77171 0.35133 0.0
H1628 H 0.30034 0.74471 0.3355 0.0
H1629 H 0.34014 0.73114 0.39221 0.0
H1630 H 0.35692 0.74336 0.42163 0.0
H1631 H 0.28333 0.76851 0.43763 0.0
H1632 H 0.26617 0.75676 0.40819 0.0
H1633 H 0.23482 0.62843 0.35018 0.0
H1634 H 0.2647 0.66334 0.34722 0.0
H1635 H 0.217 0.70989 0.38015 0.0
H1636 H 0.18717 0.67493 0.38335 0.0
H1637 H 0.26445 0.71099 0.39178 0.0
H1638 H 0.22421 0.72136 0.33505 0.0
H1639 H 0.20822 0.7079 0.30568 0.0
H1640 H 0.28324 0.68727 0.28974 0.0
H1641 H 0.29964 0.70029 0.31911 0.0
C1642 C 0.34057 0.80426 0.37569 0.0
C1643 C 0.36406 0.79862 0.36792 0.0
C1644 C 0.32012 0.78772 0.37382 0.0
C1645 C 0.32274 0.76507 0.36426 0.0
C1646 C 0.34575 0.76008 0.35567 0.0
C1647 C 0.36621 0.77664 0.35751 0.0
C1648 C 0.30209 0.74593 0.36416 0.0
C1649 C 0.29262 0.73718 0.3478 0.0
C1650 C 0.29169 0.73632 0.3802 0.0
C1651 C 0.30193 0.74333 0.39793 0.0
C1652 C 0.32758 0.73946 0.40196 0.0
C1653 C 0.33715 0.74627 0.41864 0.0
C1654 C 0.32122 0.75677 0.43148 0.0
C1655 C 0.29566 0.76042 0.42767 0.0
C1656 C 0.28599 0.75368 0.41098 0.0
C1657 C 0.23043 0.64623 0.35654 0.0
C1658 C 0.20857 0.64883 0.36703 0.0
C1659 C 0.24754 0.66625 0.35479 0.0
C1660 C 0.24312 0.68937 0.36341 0.0
C1661 C 0.22088 0.69227 0.37338 0.0
C1662 C 0.20375 0.67227 0.37513 0.0
C1663 C 0.26252 0.7098 0.36311 0.0
C1664 C 0.27191 0.71869 0.37945 0.0
C1665 C 0.27291 0.71936 0.34705 0.0
C1666 C 0.26312 0.7116 0.32935 0.0
C1667 C 0.23727 0.71377 0.32534 0.0
C1668 C 0.22814 0.70626 0.30868 0.0
C1669 C 0.24469 0.69668 0.29587 0.0
C1670 C 0.27043 0.69467 0.29968 0.0
C1671 C 0.27966 0.70214 0.31633 0.0
H1672 H 0.23758 0.69087 0.28298 0.0
H1673 H 0.32866 0.76203 0.44439 0.0
H1674 H 0.38151 0.23495 0.84824 0.0
H1675 H 0.34684 0.26487 0.84439 0.0
H1676 H 0.29917 0.21841 0.87751 0.0
H1677 H 0.33371 0.18818 0.88127 0.0
H1678 H 0.27244 0.23919 0.84992 0.0
H1679 H 0.32947 0.26807 0.89528 0.0
H1680 H 0.37085 0.27983 0.90784 0.0
H1681 H 0.37876 0.33807 0.86836 0.0
H1682 H 0.33756 0.3264 0.8554 0.0
H1683 H 0.18627 0.33452 0.87976 0.0
H1684 H 0.2165 0.30005 0.87609 0.0
H1685 H 0.26439 0.34866 0.84469 0.0
H1686 H 0.23443 0.38328 0.84849 0.0
H1687 H 0.29078 0.32634 0.87028 0.0
H1688 H 0.23187 0.29864 0.82595 0.0
H1689 H 0.19018 0.28668 0.81402 0.0
H1690 H 0.18511 0.22639 0.85216 0.0
H1691 H 0.22663 0.2382 0.8645 0.0
C1692 C 0.36353 0.23083 0.85446 0.0
C1693 C 0.36049 0.20924 0.86519 0.0
C1694 C 0.34373 0.24804 0.85231 0.0
C1695 C 0.32051 0.24415 0.86093 0.0
C1696 C 0.31692 0.22188 0.87078 0.0
C1697 C 0.33673 0.20461 0.87293 0.0
C1698 C 0.30068 0.26411 0.86068 0.0
C1699 C 0.27636 0.2582 0.85451 0.0
C1700 C 0.30585 0.28904 0.86643 0.0
C1701 C 0.33056 0.29618 0.87425 0.0
C1702 C 0.34013 0.28326 0.88919 0.0
C1703 C 0.36353 0.28992 0.89639 0.0
C1704 C 0.37746 0.30964 0.88887 0.0
C1705 C 0.36797 0.32278 0.87416 0.0
C1706 C 0.34459 0.31615 0.86688 0.0
C1707 C 0.203 0.33776 0.87179 0.0
C1708 C 0.20792 0.36172 0.86446 0.0
C1709 C 0.22028 0.31797 0.86967 0.0
C1710 C 0.24277 0.32167 0.86007 0.0
C1711 C 0.24724 0.34532 0.85219 0.0
C1712 C 0.23001 0.3651 0.85432 0.0
C1713 C 0.26247 0.30158 0.85935 0.0
C1714 C 0.28682 0.30743 0.8655 0.0
C1715 C 0.25723 0.27663 0.85366 0.0
C1716 C 0.23227 0.26946 0.84626 0.0
C1717 C 0.22178 0.28296 0.8319 0.0
C1718 C 0.19819 0.27618 0.82504 0.0
C1719 C 0.18498 0.25583 0.83236 0.0
C1720 C 0.19535 0.24217 0.84652 0.0
C1721 C 0.21893 0.24888 0.85344 0.0
H1722 H 0.16672 0.25061 0.82703 0.0
H1723 H 0.39558 0.31478 0.89447 0.0
H1724 H 0.62746 0.23597 0.35006 0.0
H1725 H 0.66318 0.26479 0.34695 0.0
H1726 H 0.70981 0.21378 0.37739 0.0
H1727 H 0.67397 0.18504 0.38083 0.0
H1728 H 0.71397 0.25999 0.39003 0.0
H1729 H 0.7187 0.22356 0.33178 0.0
H1730 H 0.70261 0.20999 0.30247 0.0
H1731 H 0.68312 0.28656 0.2897 0.0
H1732 H 0.69879 0.30056 0.31904 0.0
H1733 H 0.82419 0.33359 0.38048 0.0
H1734 H 0.79509 0.29807 0.377 0.0
H1735 H 0.74361 0.3458 0.34785 0.0
H1736 H 0.7728 0.38127 0.351 0.0
H1737 H 0.74414 0.29908 0.3338 0.0
H1738 H 0.73569 0.33489 0.39241 0.0
H1739 H 0.75071 0.34917 0.42184 0.0
H1740 H 0.776 0.2741 0.43398 0.0
H1741 H 0.76143 0.25945 0.40449 0.0
C1742 C 0.64542 0.23063 0.35583 0.0
C1743 C 0.6478 0.20816 0.36572 0.0
C1744 C 0.66592 0.24714 0.35399 0.0
C1745 C 0.68934 0.24147 0.36184 0.0
C1746 C 0.69197 0.21863 0.37121 0.0
C1747 C 0.67146 0.20213 0.3731 0.0
C1748 C 0.71044 0.26016 0.36141 0.0
C1749 C 0.72089 0.26811 0.37768 0.0
C1750 C 0.71907 0.27141 0.34537 0.0
C1751 C 0.70974 0.26307 0.32768 0.0
C1752 C 0.71081 0.23748 0.32278 0.0
C1753 C 0.7018 0.22972 0.30614 0.0
C1754 C 0.6918 0.2474 0.29424 0.0
C1755 C 0.69085 0.27289 0.29894 0.0
C1756 C 0.69983 0.28075 0.31556 0.0
C1757 C 0.80689 0.33644 0.37305 0.0
C1758 C 0.80077 0.36037 0.36614 0.0
C1759 C 0.79018 0.31612 0.37116 0.0
C1760 C 0.76689 0.31933 0.36245 0.0
C1761 C 0.76139 0.34283 0.35468 0.0
C1762 C 0.77812 0.36314 0.35652 0.0
C1763 C 0.74761 0.29879 0.3624 0.0
C1764 C 0.73741 0.29064 0.3461 0.0
C1765 C 0.73907 0.2874 0.37841 0.0
C1766 C 0.74773 0.29614 0.39617 0.0
C1767 C 0.74463 0.32147 0.4013 0.0
C1768 C 0.75304 0.32963 0.418 0.0
C1769 C 0.76437 0.31257 0.42975 0.0
C1770 C 0.76726 0.2873 0.42484 0.0
C1771 C 0.75893 0.27906 0.40815 0.0
H1772 H 0.77087 0.31892 0.44268 0.0
H1773 H 0.68482 0.24135 0.28137 0.0
H1774 H 0.82231 0.67537 0.87881 0.0
H1775 H 0.79286 0.71043 0.8749 0.0
H1776 H 0.74094 0.66105 0.84763 0.0
H1777 H 0.77053 0.62595 0.8512 0.0
H1778 H 0.74069 0.70738 0.83257 0.0
H1779 H 0.73394 0.67364 0.89187 0.0
H1780 H 0.74969 0.66029 0.92135 0.0
H1781 H 0.77533 0.73571 0.93184 0.0
H1782 H 0.76004 0.74944 0.90229 0.0
H1783 H 0.6252 0.77266 0.84948 0.0
H1784 H 0.66034 0.74321 0.84625 0.0
H1785 H 0.70888 0.79448 0.87487 0.0
H1786 H 0.67365 0.82384 0.87845 0.0
H1787 H 0.71247 0.74869 0.88841 0.0
H1788 H 0.71596 0.78292 0.82931 0.0
H1789 H 0.69903 0.79552 0.79999 0.0
H1790 H 0.67812 0.71873 0.78924 0.0
H1791 H 0.69463 0.70571 0.81861 0.0
C1792 C 0.80482 0.67202 0.87171 0.0
C1793 C 0.79872 0.64776 0.86546 0.0
C1794 C 0.78792 0.6921 0.86956 0.0
C1795 C 0.76442 0.68831 0.86128 0.0
C1796 C 0.75889 0.66445 0.85413 0.0
C1797 C 0.77584 0.64437 0.85621 0.0
C1798 C 0.74502 0.70871 0.86109 0.0
C1799 C 0.73437 0.71629 0.84478 0.0
C1800 C 0.73699 0.72068 0.87699 0.0
C1801 C 0.7461 0.7125 0.89479 0.0
C1802 C 0.74311 0.68733 0.90041 0.0
C1803 C 0.75192 0.6797 0.91714 0.0
C1804 C 0.76357 0.69712 0.92844 0.0
C1805 C 0.76635 0.72223 0.92305 0.0
C1806 C 0.7576 0.72995 0.90632 0.0
C1807 C 0.64346 0.77792 0.85481 0.0
C1808 C 0.64656 0.80064 0.86426 0.0
C1809 C 0.66362 0.76104 0.8529 0.0
C1810 C 0.6874 0.7666 0.86024 0.0
C1811 C 0.69074 0.7897 0.86911 0.0
C1812 C 0.67058 0.80656 0.87107 0.0
C1813 C 0.70815 0.74756 0.85986 0.0
C1814 C 0.71896 0.74006 0.87613 0.0
C1815 C 0.71616 0.73563 0.84394 0.0
C1816 C 0.70635 0.74338 0.82623 0.0
C1817 C 0.70759 0.76874 0.82075 0.0
C1818 C 0.6981 0.77596 0.80411 0.0
C1819 C 0.68746 0.75795 0.79278 0.0
C1820 C 0.68635 0.73267 0.79804 0.0
C1821 C 0.6958 0.72535 0.81467 0.0
H1822 H 0.68011 0.76358 0.77991 0.0
H1823 H 0.77038 0.69118 0.94139 0.0
loop_
_geom_bond_atom_site_label_1
_geom_bond_atom_site_label_2
_geom_bond_distance
_geom_bond_site_symmetry_2
_ccdc_geom_bond_type
O0 Cd1 2.223 . S
O0 C8 1.315 . S
Cd1 O0 2.223 . S
Cd1 O4 2.297 . S
Cd1 O5 2.439 . S
Cd1 O11 2.240 . S
Cd2 O3 2.240 . S
Cd2 O10 2.223 . S
Cd2 O12 2.297 . S
Cd2 O13 2.439 . S
O3 Cd2 2.240 . S
O3 C8 1.279 . S
O4 Cd1 2.297 . S
O4 C6 1.247 . S
O5 Cd1 2.439 . S
O5 C6 1.208 . S
C6 O4 1.247 . S
C6 O5 1.208 . S
C7 O12 1.247 . S
C7 O13 1.208 . S
C8 O0 1.315 . S
C8 O3 1.279 . S
C9 O10 1.315 . S
C9 O11 1.279 . S
O10 Cd2 2.223 . S
O10 C9 1.315 . S
O11 Cd1 2.240 . S
O11 C9 1.279 . S
O12 Cd2 2.297 . S
O12 C7 1.247 . S
O13 Cd2 2.439 . S
O13 C7 1.208 . S
O14 Cd15 2.223 . S
O14 C22 1.315 . S
Cd15 O14 2.223 . S
Cd15 O18 2.297 . S
Cd15 O19 2.439 . S
Cd15 O25 2.240 . S
Cd16 O17 2.240 . S
Cd16 O24 2.223 . S
Cd16 O26 2.297 . S
Cd16 O27 2.439 . S
O17 Cd16 2.240 . S
O17 C22 1.279 . S
O18 Cd15 2.297 . S
O18 C20 1.247 . S
O19 Cd15 2.439 . S
O19 C20 1.208 . S
C20 O18 1.247 . S
C20 O19 1.208 . S
C21 O26 1.247 . S
C21 O27 1.208 . S
C22 O14 1.315 . S
C22 O17 1.279 . S
C23 O24 1.315 . S
C23 O25 1.279 . S
O24 Cd16 2.223 . S
O24 C23 1.315 . S
O25 Cd15 2.240 . S
O25 C23 1.279 . S
O26 Cd16 2.297 . S
O26 C21 1.247 . S
O27 Cd16 2.439 . S
O27 C21 1.208 . S
O28 Cd29 2.223 . S
O28 C36 1.315 . S
Cd29 O28 2.223 . S
Cd29 O32 2.297 . S
Cd29 O33 2.439 . S
Cd29 O39 2.240 . S
Cd30 O31 2.240 . S
Cd30 O38 2.223 . S
Cd30 O40 2.297 . S
Cd30 O41 2.439 . S
O31 Cd30 2.240 . S
O31 C36 1.279 . S
O32 Cd29 2.297 . S
O32 C34 1.247 . S
O33 Cd29 2.439 . S
O33 C34 1.208 . S
C34 O32 1.247 . S
C34 O33 1.208 . S
C35 O40 1.247 . S
C35 O41 1.208 . S
C36 O28 1.315 . S
C36 O31 1.279 . S
C37 O38 1.315 . S
C37 O39 1.279 . S
O38 Cd30 2.223 . S
O38 C37 1.315 . S
O39 Cd29 2.240 . S
O39 C37 1.279 . S
O40 Cd30 2.297 . S
O40 C35 1.247 . S
O41 Cd30 2.439 . S
O41 C35 1.208 . S
O42 Cd43 2.223 . S
O42 C50 1.315 . S
Cd43 O42 2.223 . S
Cd43 O46 2.297 . S
Cd43 O47 2.439 . S
Cd43 O53 2.240 . S
Cd44 O45 2.240 . S
Cd44 O52 2.223 . S
Cd44 O54 2.297 . S
Cd44 O55 2.439 . S
O45 Cd44 2.240 . S
O45 C50 1.279 . S
O46 Cd43 2.297 . S
O46 C48 1.247 . S
O47 Cd43 2.439 . S
O47 C48 1.208 . S
C48 O46 1.247 . S
C48 O47 1.208 . S
C49 O54 1.247 . S
C49 O55 1.208 . S
C50 O42 1.315 . S
C50 O45 1.279 . S
C51 O52 1.315 . S
C51 O53 1.279 . S
O52 Cd44 2.223 . S
O52 C51 1.315 . S
O53 Cd43 2.240 . S
O53 C51 1.279 . S
O54 Cd44 2.297 . S
O54 C49 1.247 . S
O55 Cd44 2.439 . S
O55 C49 1.208 . S
O56 Cd57 2.223 . S
O56 C64 1.315 . S
Cd57 O56 2.223 . S
Cd57 O60 2.297 . S
Cd57 O61 2.439 . S
Cd57 O67 2.240 . S
Cd58 O59 2.240 . S
Cd58 O66 2.223 . S
Cd58 O68 2.297 . S
Cd58 O69 2.439 . S
O59 Cd58 2.240 . S
O59 C64 1.279 . S
O60 Cd57 2.297 . S
O60 C62 1.247 . S
O61 Cd57 2.439 . S
O61 C62 1.208 . S
C62 O60 1.247 . S
C62 O61 1.208 . S
C63 O68 1.247 . S
C63 O69 1.208 . S
C64 O56 1.315 . S
C64 O59 1.279 . S
C65 O66 1.315 . S
C65 O67 1.279 . S
O66 Cd58 2.223 . S
O66 C65 1.315 . S
O67 Cd57 2.240 . S
O67 C65 1.279 . S
O68 Cd58 2.297 . S
O68 C63 1.247 . S
O69 Cd58 2.439 . S
O69 C63 1.208 . S
O70 Cd71 2.223 . S
O70 C78 1.315 . S
Cd71 O70 2.223 . S
Cd71 O74 2.297 . S
Cd71 O75 2.439 . S
Cd71 O81 2.240 . S
Cd72 O73 2.240 . S
Cd72 O80 2.223 . S
Cd72 O82 2.297 . S
Cd72 O83 2.439 . S
O73 Cd72 2.240 . S
O73 C78 1.279 . S
O74 Cd71 2.297 . S
O74 C76 1.247 . S
O75 Cd71 2.439 . S
O75 C76 1.208 . S
C76 O74 1.247 . S
C76 O75 1.208 . S
C77 O82 1.247 . S
C77 O83 1.208 . S
C78 O70 1.315 . S
C78 O73 1.279 . S
C79 O80 1.315 . S
C79 O81 1.279 . S
O80 Cd72 2.223 . S
O80 C79 1.315 . S
O81 Cd71 2.240 . S
O81 C79 1.279 . S
O82 Cd72 2.297 . S
O82 C77 1.247 . S
O83 Cd72 2.439 . S
O83 C77 1.208 . S
O84 Cd85 2.223 . S
O84 C92 1.315 . S
Cd85 O84 2.223 . S
Cd85 O88 2.297 . S
Cd85 O89 2.439 . S
Cd85 O95 2.240 . S
Cd86 O87 2.240 . S
Cd86 O94 2.223 . S
Cd86 O96 2.297 . S
Cd86 O97 2.439 . S
O87 Cd86 2.240 . S
O87 C92 1.279 . S
O88 Cd85 2.297 . S
O88 C90 1.247 . S
O89 Cd85 2.439 . S
O89 C90 1.208 . S
C90 O88 1.247 . S
C90 O89 1.208 . S
C91 O96 1.247 . S
C91 O97 1.208 . S
C92 O84 1.315 . S
C92 O87 1.279 . S
C93 O94 1.315 . S
C93 O95 1.279 . S
O94 Cd86 2.223 . S
O94 C93 1.315 . S
O95 Cd85 2.240 . S
O95 C93 1.279 . S
O96 Cd86 2.297 . S
O96 C91 1.247 . S
O97 Cd86 2.439 . S
O97 C91 1.208 . S
O98 Cd99 2.223 . S
O98 C106 1.315 . S
Cd99 O98 2.223 . S
Cd99 O102 2.297 . S
Cd99 O103 2.439 . S
Cd99 O109 2.240 . S
Cd100 O101 2.240 . S
Cd100 O108 2.223 . S
Cd100 O110 2.297 . S
Cd100 O111 2.439 . S
O101 Cd100 2.240 . S
O101 C106 1.279 . S
O102 Cd99 2.297 . S
O102 C104 1.247 . S
O103 Cd99 2.439 . S
O103 C104 1.208 . S
C104 O102 1.247 . S
C104 O103 1.208 . S
C105 O110 1.247 . S
C105 O111 1.208 . S
C106 O98 1.315 . S
C106 O101 1.279 . S
C107 O108 1.315 . S
C107 O109 1.279 . S
O108 Cd100 2.223 . S
O108 C107 1.315 . S
O109 Cd99 2.240 . S
O109 C107 1.279 . S
O110 Cd100 2.297 . S
O110 C105 1.247 . S
O111 Cd100 2.439 . S
O111 C105 1.208 . S
O112 Cd113 2.223 . S
O112 C120 1.315 . S
Cd113 O112 2.223 . S
Cd113 O116 2.297 . S
Cd113 O117 2.439 . S
Cd113 O123 2.240 . S
Cd114 O115 2.240 . S
Cd114 O122 2.223 . S
Cd114 O124 2.297 . S
Cd114 O125 2.439 . S
O115 Cd114 2.240 . S
O115 C120 1.279 . S
O116 Cd113 2.297 . S
O116 C118 1.247 . S
O117 Cd113 2.439 . S
O117 C118 1.208 . S
C118 O116 1.247 . S
C118 O117 1.208 . S
C119 O124 1.247 . S
C119 O125 1.208 . S
C120 O112 1.315 . S
C120 O115 1.279 . S
C121 O122 1.315 . S
C121 O123 1.279 . S
O122 Cd114 2.223 . S
O122 C121 1.315 . S
O123 Cd113 2.240 . S
O123 C121 1.279 . S
O124 Cd114 2.297 . S
O124 C119 1.247 . S
O125 Cd114 2.439 . S
O125 C119 1.208 . S
O126 Cd127 2.223 . S
O126 C134 1.315 . S
Cd127 O126 2.223 . S
Cd127 O130 2.297 . S
Cd127 O131 2.439 . S
Cd127 O137 2.240 . S
Cd128 O129 2.240 . S
Cd128 O136 2.223 . S
Cd128 O138 2.297 . S
Cd128 O139 2.439 . S
O129 Cd128 2.240 . S
O129 C134 1.279 . S
O130 Cd127 2.297 . S
O130 C132 1.247 . S
O131 Cd127 2.439 . S
O131 C132 1.208 . S
C132 O130 1.247 . S
C132 O131 1.208 . S
C133 O138 1.247 . S
C133 O139 1.208 . S
C134 O126 1.315 . S
C134 O129 1.279 . S
C135 O136 1.315 . S
C135 O137 1.279 . S
O136 Cd128 2.223 . S
O136 C135 1.315 . S
O137 Cd127 2.240 . S
O137 C135 1.279 . S
O138 Cd128 2.297 . S
O138 C133 1.247 . S
O139 Cd128 2.439 . S
O139 C133 1.208 . S
O140 Cd141 2.223 . S
O140 C148 1.315 . S
Cd141 O140 2.223 . S
Cd141 O144 2.297 . S
Cd141 O145 2.439 . S
Cd141 O151 2.240 . S
Cd142 O143 2.240 . S
Cd142 O150 2.223 . S
Cd142 O152 2.297 . S
Cd142 O153 2.439 . S
O143 Cd142 2.240 . S
O143 C148 1.279 . S
O144 Cd141 2.297 . S
O144 C146 1.247 . S
O145 Cd141 2.439 . S
O145 C146 1.208 . S
C146 O144 1.247 . S
C146 O145 1.208 . S
C147 O152 1.247 . S
C147 O153 1.208 . S
C148 O140 1.315 . S
C148 O143 1.279 . S
C149 O150 1.315 . S
C149 O151 1.279 . S
O150 Cd142 2.223 . S
O150 C149 1.315 . S
O151 Cd141 2.240 . S
O151 C149 1.279 . S
O152 Cd142 2.297 . S
O152 C147 1.247 . S
O153 Cd142 2.439 . S
O153 C147 1.208 . S
O154 Cd155 2.223 . S
O154 C162 1.315 . S
Cd155 O154 2.223 . S
Cd155 O158 2.297 . S
Cd155 O159 2.439 . S
Cd155 O165 2.240 . S
Cd156 O157 2.240 . S
Cd156 O164 2.223 . S
Cd156 O166 2.297 . S
Cd156 O167 2.439 . S
O157 Cd156 2.240 . S
O157 C162 1.279 . S
O158 Cd155 2.297 . S
O158 C160 1.247 . S
O159 Cd155 2.439 . S
O159 C160 1.208 . S
C160 O158 1.247 . S
C160 O159 1.208 . S
C161 O166 1.247 . S
C161 O167 1.208 . S
C162 O154 1.315 . S
C162 O157 1.279 . S
C163 O164 1.315 . S
C163 O165 1.279 . S
O164 Cd156 2.223 . S
O164 C163 1.315 . S
O165 Cd155 2.240 . S
O165 C163 1.279 . S
O166 Cd156 2.297 . S
O166 C161 1.247 . S
O167 Cd156 2.439 . S
O167 C161 1.208 . S
O168 Cd169 2.223 . S
O168 C176 1.315 . S
Cd169 O168 2.223 . S
Cd169 O172 2.297 . S
Cd169 O173 2.439 . S
Cd169 O179 2.240 . S
Cd170 O171 2.240 . S
Cd170 O178 2.223 . S
Cd170 O180 2.297 . S
Cd170 O181 2.439 . S
O171 Cd170 2.240 . S
O171 C176 1.279 . S
O172 Cd169 2.297 . S
O172 C174 1.247 . S
O173 Cd169 2.439 . S
O173 C174 1.208 . S
C174 O172 1.247 . S
C174 O173 1.208 . S
C175 O180 1.247 . S
C175 O181 1.208 . S
C176 O168 1.315 . S
C176 O171 1.279 . S
C177 O178 1.315 . S
C177 O179 1.279 . S
O178 Cd170 2.223 . S
O178 C177 1.315 . S
O179 Cd169 2.240 . S
O179 C177 1.279 . S
O180 Cd170 2.297 . S
O180 C175 1.247 . S
O181 Cd170 2.439 . S
O181 C175 1.208 . S
O182 Cd183 2.223 . S
O182 C190 1.315 . S
Cd183 O182 2.223 . S
Cd183 O186 2.297 . S
Cd183 O187 2.439 . S
Cd183 O193 2.240 . S
Cd184 O185 2.240 . S
Cd184 O192 2.223 . S
Cd184 O194 2.297 . S
Cd184 O195 2.439 . S
O185 Cd184 2.240 . S
O185 C190 1.279 . S
O186 Cd183 2.297 . S
O186 C188 1.247 . S
O187 Cd183 2.439 . S
O187 C188 1.208 . S
C188 O186 1.247 . S
C188 O187 1.208 . S
C189 O194 1.247 . S
C189 O195 1.208 . S
C190 O182 1.315 . S
C190 O185 1.279 . S
C191 O192 1.315 . S
C191 O193 1.279 . S
O192 Cd184 2.223 . S
O192 C191 1.315 . S
O193 Cd183 2.240 . S
O193 C191 1.279 . S
O194 Cd184 2.297 . S
O194 C189 1.247 . S
O195 Cd184 2.439 . S
O195 C189 1.208 . S
O196 Cd197 2.223 . S
O196 C204 1.315 . S
Cd197 O196 2.223 . S
Cd197 O200 2.297 . S
Cd197 O201 2.439 . S
Cd197 O207 2.240 . S
Cd198 O199 2.240 . S
Cd198 O206 2.223 . S
Cd198 O208 2.297 . S
Cd198 O209 2.439 . S
O199 Cd198 2.240 . S
O199 C204 1.279 . S
O200 Cd197 2.297 . S
O200 C202 1.247 . S
O201 Cd197 2.439 . S
O201 C202 1.208 . S
C202 O200 1.247 . S
C202 O201 1.208 . S
C203 O208 1.247 . S
C203 O209 1.208 . S
C204 O196 1.315 . S
C204 O199 1.279 . S
C205 O206 1.315 . S
C205 O207 1.279 . S
O206 Cd198 2.223 . S
O206 C205 1.315 . S
O207 Cd197 2.240 . S
O207 C205 1.279 . S
O208 Cd198 2.297 . S
O208 C203 1.247 . S
O209 Cd198 2.439 . S
O209 C203 1.208 . S
O210 Cd211 2.223 . S
O210 C218 1.315 . S
Cd211 O210 2.223 . S
Cd211 O214 2.297 . S
Cd211 O215 2.439 . S
Cd211 O221 2.240 . S
Cd212 O213 2.240 . S
Cd212 O220 2.223 . S
Cd212 O222 2.297 . S
Cd212 O223 2.439 . S
O213 Cd212 2.240 . S
O213 C218 1.279 . S
O214 Cd211 2.297 . S
O214 C216 1.247 . S
O215 Cd211 2.439 . S
O215 C216 1.208 . S
C216 O214 1.247 . S
C216 O215 1.208 . S
C217 O222 1.247 . S
C217 O223 1.208 . S
C218 O210 1.315 . S
C218 O213 1.279 . S
C219 O220 1.315 . S
C219 O221 1.279 . S
O220 Cd212 2.223 . S
O220 C219 1.315 . S
O221 Cd211 2.240 . S
O221 C219 1.279 . S
O222 Cd212 2.297 . S
O222 C217 1.247 . S
O223 Cd212 2.439 . S
O223 C217 1.208 . S
H224 C242 0.951 . S
H225 C244 0.951 . S
H226 C246 0.950 . S
H227 C247 0.950 . S
H228 C249 0.950 . S
H229 C252 0.950 . S
H230 C253 0.950 . S
H231 C255 0.950 . S
H232 C256 0.950 . S
H233 C257 0.951 . S
H234 C259 0.951 . S
H235 C261 0.950 . S
H236 C262 0.950 . S
H237 C264 0.950 . S
H238 C267 0.950 . S
H239 C268 0.950 . S
H240 C270 0.950 . S
H241 C271 0.950 . S
C242 H224 0.951 . S
C242 C243 1.366 . S
C242 C244 1.388 . S
C243 C242 1.366 . S
C243 C247 1.385 . S
C244 H225 0.951 . S
C244 C242 1.388 . S
C244 C245 1.366 . S
C245 C244 1.366 . S
C245 C246 1.414 . S
C245 C248 1.499 . S
C246 H226 0.950 . S
C246 C245 1.414 . S
C246 C247 1.374 . S
C247 H227 0.950 . S
C247 C243 1.385 . S
C247 C246 1.374 . S
C248 C245 1.499 . S
C248 C249 1.373 . S
C248 C250 1.389 . S
C249 H228 0.950 . S
C249 C248 1.373 . S
C249 C265 1.377 1_455 S
C250 C248 1.389 . S
C250 C251 1.524 . S
C250 C264 1.377 1_455 S
C251 C250 1.524 . S
C251 C252 1.397 . S
C251 C256 1.363 . S
C252 H229 0.950 . S
C252 C251 1.397 . S
C252 C253 1.334 . S
C253 H230 0.950 . S
C253 C252 1.334 . S
C253 C254 1.287 . S
C254 C253 1.287 . S
C254 C255 1.524 . S
C254 H273 0.913 . S
C255 H231 0.950 . S
C255 C254 1.524 . S
C255 C256 1.415 . S
C256 H232 0.950 . S
C256 C251 1.363 . S
C256 C255 1.415 . S
C257 H233 0.951 . S
C257 C258 1.366 . S
C257 C259 1.388 . S
C258 C257 1.366 . S
C258 C262 1.385 . S
C259 H234 0.951 . S
C259 C257 1.388 . S
C259 C260 1.366 . S
C260 C259 1.366 . S
C260 C261 1.414 . S
C260 C263 1.499 . S
C261 H235 0.950 . S
C261 C260 1.414 . S
C261 C262 1.374 . S
C262 H236 0.950 . S
C262 C258 1.385 . S
C262 C261 1.374 . S
C263 C260 1.499 . S
C263 C264 1.373 . S
C263 C265 1.389 . S
C264 H237 0.950 . S
C264 C250 1.377 1_655 S
C264 C263 1.373 . S
C265 C249 1.377 1_655 S
C265 C263 1.389 . S
C265 C266 1.524 . S
C266 C265 1.524 . S
C266 C267 1.397 . S
C266 C271 1.363 . S
C267 H238 0.950 . S
C267 C266 1.397 . S
C267 C268 1.334 . S
C268 H239 0.950 . S
C268 C267 1.334 . S
C268 C269 1.287 . S
C269 C268 1.287 . S
C269 C270 1.524 . S
C269 H272 0.999 . S
C270 H240 0.950 . S
C270 C269 1.524 . S
C270 C271 1.415 . S
C271 H241 0.950 . S
C271 C266 1.363 . S
C271 C270 1.415 . S
H272 C269 0.999 . S
H273 C254 0.913 . S
H274 C292 0.951 . S
H275 C294 0.951 . S
H276 C296 0.950 . S
H277 C297 0.950 . S
H278 C299 0.950 . S
H279 C302 0.950 . S
H280 C303 0.950 . S
H281 C305 0.950 . S
H282 C306 0.950 . S
H283 C307 0.951 . S
H284 C309 0.951 . S
H285 C311 0.950 . S
H286 C312 0.950 . S
H287 C314 0.950 . S
H288 C317 0.950 . S
H289 C318 0.950 . S
H290 C320 0.950 . S
H291 C321 0.950 . S
C292 H274 0.951 . S
C292 C293 1.366 . S
C292 C294 1.388 . S
C293 C292 1.366 . S
C293 C297 1.385 . S
C294 H275 0.951 . S
C294 C292 1.388 . S
C294 C295 1.366 . S
C295 C294 1.366 . S
C295 C296 1.414 . S
C295 C298 1.499 . S
C296 H276 0.950 . S
C296 C295 1.414 . S
C296 C297 1.374 . S
C297 H277 0.950 . S
C297 C293 1.385 . S
C297 C296 1.374 . S
C298 C295 1.499 . S
C298 C299 1.373 . S
C298 C300 1.389 . S
C299 H278 0.950 . S
C299 C298 1.373 . S
C299 C315 1.377 1_565 S
C300 C298 1.389 . S
C300 C301 1.526 . S
C300 C314 1.377 1_565 S
C301 C300 1.526 . S
C301 C302 1.414 . S
C301 C306 1.343 1_565 S
C302 H279 0.950 . S
C302 C301 1.414 . S
C302 C303 1.334 . S
C303 H280 0.950 . S
C303 C302 1.334 . S
C303 C304 1.280 1_565 S
C304 C303 1.280 1_545 S
C304 C305 1.530 . S
C304 H323 0.913 1_545 S
C305 H281 0.950 . S
C305 C304 1.530 . S
C305 C306 1.415 . S
C306 H282 0.950 . S
C306 C301 1.343 1_545 S
C306 C305 1.415 . S
C307 H283 0.951 . S
C307 C308 1.366 . S
C307 C309 1.388 . S
C308 C307 1.366 . S
C308 C312 1.385 . S
C309 H284 0.951 . S
C309 C307 1.388 . S
C309 C310 1.366 . S
C310 C309 1.366 . S
C310 C311 1.414 . S
C310 C313 1.499 . S
C311 H285 0.950 . S
C311 C310 1.414 . S
C311 C312 1.374 . S
C312 H286 0.950 . S
C312 C308 1.385 . S
C312 C311 1.374 . S
C313 C310 1.499 . S
C313 C314 1.373 . S
C313 C315 1.389 . S
C314 H287 0.950 . S
C314 C300 1.377 1_545 S
C314 C313 1.373 . S
C315 C299 1.377 1_545 S
C315 C313 1.389 . S
C315 C316 1.526 . S
C316 C315 1.526 . S
C316 C317 1.414 . S
C316 C321 1.343 1_545 S
C317 H288 0.950 . S
C317 C316 1.414 . S
C317 C318 1.334 . S
C318 H289 0.950 . S
C318 C317 1.334 . S
C318 C319 1.280 1_545 S
C319 C318 1.280 1_565 S
C319 C320 1.530 . S
C319 H322 0.999 . S
C320 H290 0.950 . S
C320 C319 1.530 . S
C320 C321 1.415 . S
C321 H291 0.950 . S
C321 C316 1.343 1_565 S
C321 C320 1.415 . S
H322 C319 0.999 . S
H323 C304 0.913 1_565 S
H324 C342 0.951 . S
H325 C344 0.951 . S
H326 C346 0.950 . S
H327 C347 0.950 . S
H328 C349 0.950 . S
H329 C352 0.950 . S
H330 C353 0.950 . S
H331 C355 0.950 . S
H332 C356 0.951 1_655 S
H333 C357 0.951 . S
H334 C359 0.951 . S
H335 C361 0.950 . S
H336 C362 0.950 . S
H337 C364 0.950 . S
H338 C367 0.950 . S
H339 C368 0.950 . S
H340 C370 0.950 . S
H341 C371 0.951 1_455 S
C342 H324 0.951 . S
C342 C343 1.366 . S
C342 C344 1.388 . S
C343 C342 1.366 . S
C343 C347 1.385 . S
C344 H325 0.951 . S
C344 C342 1.388 . S
C344 C345 1.366 . S
C345 C344 1.366 . S
C345 C346 1.414 . S
C345 C348 1.499 . S
C346 H326 0.950 . S
C346 C345 1.414 . S
C346 C347 1.374 . S
C347 H327 0.950 . S
C347 C343 1.385 . S
C347 C346 1.374 . S
C348 C345 1.499 . S
C348 C349 1.373 . S
C348 C350 1.389 . S
C349 H328 0.950 . S
C349 C348 1.373 . S
C349 C365 1.377 1_455 S
C350 C348 1.389 . S
C350 C351 1.524 . S
C350 C364 1.377 1_455 S
C351 C350 1.524 . S
C351 C352 1.397 . S
C351 C356 1.363 . S
C352 H329 0.950 . S
C352 C351 1.397 . S
C352 C353 1.334 . S
C353 H330 0.950 . S
C353 C352 1.334 . S
C353 C354 1.287 . S
C354 C353 1.287 . S
C354 C355 1.524 . S
C354 H373 0.913 . S
C355 H331 0.950 . S
C355 C354 1.524 . S
C355 C356 1.415 . S
C356 H332 0.951 1_455 S
C356 C351 1.363 . S
C356 C355 1.415 . S
C357 H333 0.951 . S
C357 C358 1.366 . S
C357 C359 1.388 . S
C358 C357 1.366 . S
C358 C362 1.385 . S
C359 H334 0.951 . S
C359 C357 1.388 . S
C359 C360 1.366 . S
C360 C359 1.366 . S
C360 C361 1.414 . S
C360 C363 1.499 . S
C361 H335 0.950 . S
C361 C360 1.414 . S
C361 C362 1.374 . S
C362 H336 0.950 . S
C362 C358 1.385 . S
C362 C361 1.374 . S
C363 C360 1.499 . S
C363 C364 1.373 . S
C363 C365 1.389 . S
C364 H337 0.950 . S
C364 C350 1.377 1_655 S
C364 C363 1.373 . S
C365 C349 1.377 1_655 S
C365 C363 1.389 . S
C365 C366 1.524 . S
C366 C365 1.524 . S
C366 C367 1.397 . S
C366 C371 1.363 . S
C367 H338 0.950 . S
C367 C366 1.397 . S
C367 C368 1.334 . S
C368 H339 0.950 . S
C368 C367 1.334 . S
C368 C369 1.287 . S
C369 C368 1.287 . S
C369 C370 1.524 . S
C369 H372 0.999 . S
C370 H340 0.950 . S
C370 C369 1.524 . S
C370 C371 1.415 . S
C371 H341 0.951 1_655 S
C371 C366 1.363 . S
C371 C370 1.415 . S
H372 C369 0.999 . S
H373 C354 0.913 . S
H374 C392 0.951 . S
H375 C394 0.951 . S
H376 C396 0.950 . S
H377 C397 0.950 . S
H378 C399 0.950 . S
H379 C402 0.950 . S
H380 C403 0.950 . S
H381 C405 0.950 . S
H382 C406 0.950 . S
H383 C407 0.951 . S
H384 C409 0.951 . S
H385 C411 0.950 . S
H386 C412 0.950 . S
H387 C414 0.950 . S
H388 C417 0.950 . S
H389 C418 0.950 . S
H390 C420 0.950 . S
H391 C421 0.950 . S
C392 H374 0.951 . S
C392 C393 1.366 . S
C392 C394 1.388 . S
C393 C392 1.366 . S
C393 C397 1.385 . S
C394 H375 0.951 . S
C394 C392 1.388 . S
C394 C395 1.366 . S
C395 C394 1.366 . S
C395 C396 1.414 . S
C395 C398 1.499 . S
C396 H376 0.950 . S
C396 C395 1.414 . S
C396 C397 1.374 . S
C397 H377 0.950 . S
C397 C393 1.385 . S
C397 C396 1.374 . S
C398 C395 1.499 . S
C398 C399 1.373 . S
C398 C400 1.389 . S
C399 H378 0.950 . S
C399 C398 1.373 . S
C399 C415 1.377 1_565 S
C400 C398 1.389 . S
C400 C401 1.524 . S
C400 C414 1.377 1_565 S
C401 C400 1.524 . S
C401 C402 1.397 . S
C401 C406 1.363 . S
C402 H379 0.950 . S
C402 C401 1.397 . S
C402 C403 1.334 . S
C403 H380 0.950 . S
C403 C402 1.334 . S
C403 C404 1.287 . S
C404 C403 1.287 . S
C404 C405 1.524 . S
C404 H423 0.913 . S
C405 H381 0.950 . S
C405 C404 1.524 . S
C405 C406 1.415 . S
C406 H382 0.950 . S
C406 C401 1.363 . S
C406 C405 1.415 . S
C407 H383 0.951 . S
C407 C408 1.366 . S
C407 C409 1.388 . S
C408 C407 1.366 . S
C408 C412 1.385 . S
C409 H384 0.951 . S
C409 C407 1.388 . S
C409 C410 1.366 . S
C410 C409 1.366 . S
C410 C411 1.414 . S
C410 C413 1.499 . S
C411 H385 0.950 . S
C411 C410 1.414 . S
C411 C412 1.374 . S
C412 H386 0.950 . S
C412 C408 1.385 . S
C412 C411 1.374 . S
C413 C410 1.499 . S
C413 C414 1.373 . S
C413 C415 1.389 . S
C414 H387 0.950 . S
C414 C400 1.377 1_545 S
C414 C413 1.373 . S
C415 C399 1.377 1_545 S
C415 C413 1.389 . S
C415 C416 1.524 . S
C416 C415 1.524 . S
C416 C417 1.397 . S
C416 C421 1.363 . S
C417 H388 0.950 . S
C417 C416 1.397 . S
C417 C418 1.334 . S
C418 H389 0.950 . S
C418 C417 1.334 . S
C418 C419 1.287 . S
C419 C418 1.287 . S
C419 C420 1.524 . S
C419 H422 0.999 . S
C420 H390 0.950 . S
C420 C419 1.524 . S
C420 C421 1.415 . S
C421 H391 0.950 . S
C421 C416 1.363 . S
C421 C420 1.415 . S
H422 C419 0.999 . S
H423 C404 0.913 . S
H424 C442 0.951 . S
H425 C444 0.951 . S
H426 C446 0.950 . S
H427 C447 0.950 . S
H428 C449 0.950 . S
H429 C452 0.950 . S
H430 C453 0.950 . S
H431 C455 0.950 . S
H432 C456 0.950 . S
H433 C457 0.951 . S
H434 C459 0.951 . S
H435 C461 0.950 . S
H436 C462 0.950 . S
H437 C464 0.950 . S
H438 C467 0.950 . S
H439 C468 0.950 . S
H440 C470 0.950 . S
H441 C471 0.950 . S
C442 H424 0.951 . S
C442 C443 1.366 . S
C442 C444 1.388 . S
C443 C442 1.366 . S
C443 C447 1.385 . S
C444 H425 0.951 . S
C444 C442 1.388 . S
C444 C445 1.366 . S
C445 C444 1.366 . S
C445 C446 1.414 . S
C445 C448 1.499 . S
C446 H426 0.950 . S
C446 C445 1.414 . S
C446 C447 1.374 . S
C447 H427 0.950 . S
C447 C443 1.385 . S
C447 C446 1.374 . S
C448 C445 1.499 . S
C448 C449 1.373 . S
C448 C450 1.389 . S
C449 H428 0.950 . S
C449 C448 1.373 . S
C449 C465 1.377 1_655 S
C450 C448 1.389 . S
C450 C451 1.524 . S
C450 C464 1.377 1_655 S
C451 C450 1.524 . S
C451 C452 1.397 . S
C451 C456 1.363 1_655 S
C452 H429 0.950 . S
C452 C451 1.397 . S
C452 C453 1.334 . S
C453 H430 0.950 . S
C453 C452 1.334 . S
C453 C454 1.287 . S
C454 C453 1.287 . S
C454 C455 1.524 1_655 S
C454 H473 0.913 . S
C455 H431 0.950 . S
C455 C454 1.524 1_455 S
C455 C456 1.415 . S
C456 H432 0.950 . S
C456 C451 1.363 1_455 S
C456 C455 1.415 . S
C457 H433 0.951 . S
C457 C458 1.366 . S
C457 C459 1.388 . S
C458 C457 1.366 . S
C458 C462 1.385 . S
C459 H434 0.951 . S
C459 C457 1.388 . S
C459 C460 1.366 . S
C460 C459 1.366 . S
C460 C461 1.414 . S
C460 C463 1.499 . S
C461 H435 0.950 . S
C461 C460 1.414 . S
C461 C462 1.374 . S
C462 H436 0.950 . S
C462 C458 1.385 . S
C462 C461 1.374 . S
C463 C460 1.499 . S
C463 C464 1.373 . S
C463 C465 1.389 . S
C464 H437 0.950 . S
C464 C450 1.377 1_455 S
C464 C463 1.373 . S
C465 C449 1.377 1_455 S
C465 C463 1.389 . S
C465 C466 1.524 . S
C466 C465 1.524 . S
C466 C467 1.397 . S
C466 C471 1.363 1_455 S
C467 H438 0.950 . S
C467 C466 1.397 . S
C467 C468 1.334 . S
C468 H439 0.950 . S
C468 C467 1.334 . S
C468 C469 1.287 . S
C469 C468 1.287 . S
C469 C470 1.524 1_455 S
C469 H472 0.999 . S
C470 H440 0.950 . S
C470 C469 1.524 1_655 S
C470 C471 1.415 . S
C471 H441 0.950 . S
C471 C466 1.363 1_655 S
C471 C470 1.415 . S
H472 C469 0.999 . S
H473 C454 0.913 . S
H474 C492 0.951 . S
H475 C494 0.951 . S
H476 C496 0.950 . S
H477 C497 0.950 . S
H478 C499 0.950 . S
H479 C502 0.950 . S
H480 C503 0.950 . S
H481 C505 0.950 . S
H482 C506 0.950 . S
H483 C507 0.951 . S
H484 C509 0.951 . S
H485 C511 0.950 . S
H486 C512 0.950 . S
H487 C514 0.950 . S
H488 C517 0.950 . S
H489 C518 0.950 . S
H490 C520 0.950 . S
H491 C521 0.950 . S
C492 H474 0.951 . S
C492 C493 1.366 . S
C492 C494 1.388 . S
C493 C492 1.366 . S
C493 C497 1.385 . S
C494 H475 0.951 . S
C494 C492 1.388 . S
C494 C495 1.366 . S
C495 C494 1.366 . S
C495 C496 1.414 . S
C495 C498 1.499 . S
C496 H476 0.950 . S
C496 C495 1.414 . S
C496 C497 1.374 . S
C497 H477 0.950 . S
C497 C493 1.385 . S
C497 C496 1.374 . S
C498 C495 1.499 . S
C498 C499 1.373 . S
C498 C500 1.389 . S
C499 H478 0.950 . S
C499 C498 1.373 . S
C499 C515 1.377 1_545 S
C500 C498 1.389 . S
C500 C501 1.524 . S
C500 C514 1.377 1_545 S
C501 C500 1.524 . S
C501 C502 1.397 . S
C501 C506 1.363 1_545 S
C502 H479 0.950 . S
C502 C501 1.397 . S
C502 C503 1.334 . S
C503 H480 0.950 . S
C503 C502 1.334 . S
C503 C504 1.287 . S
C504 C503 1.287 . S
C504 C505 1.524 1_545 S
C504 H523 0.913 . S
C505 H481 0.950 . S
C505 C504 1.524 1_565 S
C505 C506 1.415 . S
C506 H482 0.950 . S
C506 C501 1.363 1_565 S
C506 C505 1.415 . S
C507 H483 0.951 . S
C507 C508 1.366 . S
C507 C509 1.388 . S
C508 C507 1.366 . S
C508 C512 1.385 . S
C509 H484 0.951 . S
C509 C507 1.388 . S
C509 C510 1.366 . S
C510 C509 1.366 . S
C510 C511 1.414 . S
C510 C513 1.499 . S
C511 H485 0.950 . S
C511 C510 1.414 . S
C511 C512 1.374 . S
C512 H486 0.950 . S
C512 C508 1.385 . S
C512 C511 1.374 . S
C513 C510 1.499 . S
C513 C514 1.373 . S
C513 C515 1.389 . S
C514 H487 0.950 . S
C514 C500 1.377 1_565 S
C514 C513 1.373 . S
C515 C499 1.377 1_565 S
C515 C513 1.389 . S
C515 C516 1.524 . S
C516 C515 1.524 . S
C516 C517 1.397 . S
C516 C521 1.363 1_565 S
C517 H488 0.950 . S
C517 C516 1.397 . S
C517 C518 1.334 . S
C518 H489 0.950 . S
C518 C517 1.334 . S
C518 C519 1.287 . S
C519 C518 1.287 . S
C519 C520 1.524 1_565 S
C519 H522 0.999 . S
C520 H490 0.950 . S
C520 C519 1.524 1_545 S
C520 C521 1.415 . S
C521 H491 0.950 . S
C521 C516 1.363 1_545 S
C521 C520 1.415 . S
H522 C519 0.999 . S
H523 C504 0.913 . S
H524 C542 0.951 . S
H525 C544 0.951 . S
H526 C546 0.950 . S
H527 C547 0.950 . S
H528 C549 0.950 . S
H529 C552 0.950 . S
H530 C553 0.950 . S
H531 C555 0.950 . S
H532 C556 0.950 1_455 S
H533 C557 0.951 . S
H534 C559 0.951 . S
H535 C561 0.950 . S
H536 C562 0.950 . S
H537 C564 0.950 . S
H538 C567 0.950 . S
H539 C568 0.950 . S
H540 C570 0.950 . S
H541 C571 0.950 1_655 S
C542 H524 0.951 . S
C542 C543 1.366 . S
C542 C544 1.388 . S
C543 C542 1.366 . S
C543 C547 1.385 . S
C544 H525 0.951 . S
C544 C542 1.388 . S
C544 C545 1.366 . S
C545 C544 1.366 . S
C545 C546 1.414 . S
C545 C548 1.499 . S
C546 H526 0.950 . S
C546 C545 1.414 . S
C546 C547 1.374 . S
C547 H527 0.950 . S
C547 C543 1.385 . S
C547 C546 1.374 . S
C548 C545 1.499 . S
C548 C549 1.373 . S
C548 C550 1.389 . S
C549 H528 0.950 . S
C549 C548 1.373 . S
C549 C565 1.377 1_655 S
C550 C548 1.389 . S
C550 C551 1.524 . S
C550 C564 1.377 1_655 S
C551 C550 1.524 . S
C551 C552 1.397 . S
C551 C556 1.363 . S
C552 H529 0.950 . S
C552 C551 1.397 . S
C552 C553 1.334 . S
C553 H530 0.950 . S
C553 C552 1.334 . S
C553 C554 1.287 . S
C554 C553 1.287 . S
C554 C555 1.524 . S
C554 H573 0.913 . S
C555 H531 0.950 . S
C555 C554 1.524 . S
C555 C556 1.415 . S
C556 H532 0.950 1_655 S
C556 C551 1.363 . S
C556 C555 1.415 . S
C557 H533 0.951 . S
C557 C558 1.366 . S
C557 C559 1.388 . S
C558 C557 1.366 . S
C558 C562 1.385 . S
C559 H534 0.951 . S
C559 C557 1.388 . S
C559 C560 1.366 . S
C560 C559 1.366 . S
C560 C561 1.414 . S
C560 C563 1.499 . S
C561 H535 0.950 . S
C561 C560 1.414 . S
C561 C562 1.374 . S
C562 H536 0.950 . S
C562 C558 1.385 . S
C562 C561 1.374 . S
C563 C560 1.499 . S
C563 C564 1.373 . S
C563 C565 1.389 . S
C564 H537 0.950 . S
C564 C550 1.377 1_455 S
C564 C563 1.373 . S
C565 C549 1.377 1_455 S
C565 C563 1.389 . S
C565 C566 1.524 . S
C566 C565 1.524 . S
C566 C567 1.397 . S
C566 C571 1.363 . S
C567 H538 0.950 . S
C567 C566 1.397 . S
C567 C568 1.334 . S
C568 H539 0.950 . S
C568 C567 1.334 . S
C568 C569 1.287 . S
C569 C568 1.287 . S
C569 C570 1.524 . S
C569 H572 0.999 . S
C570 H540 0.950 . S
C570 C569 1.524 . S
C570 C571 1.415 . S
C571 H541 0.950 1_455 S
C571 C566 1.363 . S
C571 C570 1.415 . S
H572 C569 0.999 . S
H573 C554 0.913 . S
H574 C592 0.951 . S
H575 C594 0.951 . S
H576 C596 0.950 . S
H577 C597 0.950 . S
H578 C599 0.950 . S
H579 C602 0.950 . S
H580 C603 0.950 . S
H581 C605 0.950 . S
H582 C606 0.950 . S
H583 C607 0.951 . S
H584 C609 0.951 . S
H585 C611 0.950 . S
H586 C612 0.950 . S
H587 C614 0.950 . S
H588 C617 0.950 . S
H589 C618 0.950 . S
H590 C620 0.950 . S
H591 C621 0.950 . S
C592 H574 0.951 . S
C592 C593 1.366 . S
C592 C594 1.388 . S
C593 C592 1.366 . S
C593 C597 1.385 . S
C594 H575 0.951 . S
C594 C592 1.388 . S
C594 C595 1.366 . S
C595 C594 1.366 . S
C595 C596 1.414 . S
C595 C598 1.499 . S
C596 H576 0.950 . S
C596 C595 1.414 . S
C596 C597 1.374 . S
C597 H577 0.950 . S
C597 C593 1.385 . S
C597 C596 1.374 . S
C598 C595 1.499 . S
C598 C599 1.373 . S
C598 C600 1.389 . S
C599 H578 0.950 . S
C599 C598 1.373 . S
C599 C615 1.377 1_545 S
C600 C598 1.389 . S
C600 C601 1.524 . S
C600 C614 1.377 1_545 S
C601 C600 1.524 . S
C601 C602 1.397 . S
C601 C606 1.363 1_545 S
C602 H579 0.950 . S
C602 C601 1.397 . S
C602 C603 1.334 . S
C603 H580 0.950 . S
C603 C602 1.334 . S
C603 C604 1.287 . S
C604 C603 1.287 . S
C604 C605 1.524 1_545 S
C604 H623 0.913 . S
C605 H581 0.950 . S
C605 C604 1.524 1_565 S
C605 C606 1.415 . S
C606 H582 0.950 . S
C606 C601 1.363 1_565 S
C606 C605 1.415 . S
C607 H583 0.951 . S
C607 C608 1.366 . S
C607 C609 1.388 . S
C608 C607 1.366 . S
C608 C612 1.385 . S
C609 H584 0.951 . S
C609 C607 1.388 . S
C609 C610 1.366 . S
C610 C609 1.366 . S
C610 C611 1.414 . S
C610 C613 1.499 . S
C611 H585 0.950 . S
C611 C610 1.414 . S
C611 C612 1.374 . S
C612 H586 0.950 . S
C612 C608 1.385 . S
C612 C611 1.374 . S
C613 C610 1.499 . S
C613 C614 1.373 . S
C613 C615 1.389 . S
C614 H587 0.950 . S
C614 C600 1.377 1_565 S
C614 C613 1.373 . S
C615 C599 1.377 1_565 S
C615 C613 1.389 . S
C615 C616 1.524 . S
C616 C615 1.524 . S
C616 C617 1.397 . S
C616 C621 1.363 1_565 S
C617 H588 0.950 . S
C617 C616 1.397 . S
C617 C618 1.334 . S
C618 H589 0.950 . S
C618 C617 1.334 . S
C618 C619 1.287 . S
C619 C618 1.287 . S
C619 C620 1.524 1_565 S
C619 H622 0.999 . S
C620 H590 0.950 . S
C620 C619 1.524 1_545 S
C620 C621 1.415 . S
C621 H591 0.950 . S
C621 C616 1.363 1_545 S
C621 C620 1.415 . S
H622 C619 0.999 . S
H623 C604 0.913 . S
H624 C642 0.951 . S
H625 C644 0.951 . S
H626 C646 0.950 . S
H627 C647 0.950 . S
H628 C649 0.950 . S
H629 C652 0.950 . S
H630 C653 0.950 . S
H631 C655 0.950 . S
H632 C656 0.950 . S
H633 C657 0.951 . S
H634 C659 0.951 . S
H635 C661 0.950 . S
H636 C662 0.950 . S
H637 C664 0.950 . S
H638 C667 0.950 . S
H639 C668 0.950 . S
H640 C670 0.950 . S
H641 C671 0.950 . S
C642 H624 0.951 . S
C642 C643 1.366 . S
C642 C644 1.388 . S
C643 C642 1.366 . S
C643 C647 1.385 . S
C644 H625 0.951 . S
C644 C642 1.388 . S
C644 C645 1.366 . S
C645 C644 1.366 . S
C645 C646 1.414 . S
C645 C648 1.499 . S
C646 H626 0.950 . S
C646 C645 1.414 . S
C646 C647 1.374 . S
C647 H627 0.950 . S
C647 C643 1.385 . S
C647 C646 1.374 . S
C648 C645 1.499 . S
C648 C649 1.373 . S
C648 C650 1.389 . S
C649 H628 0.950 . S
C649 C648 1.373 . S
C649 C665 1.377 . S
C650 C648 1.389 . S
C650 C651 1.524 . S
C650 C664 1.377 . S
C651 C650 1.524 . S
C651 C652 1.397 . S
C651 C656 1.363 . S
C652 H629 0.950 . S
C652 C651 1.397 . S
C652 C653 1.334 . S
C653 H630 0.950 . S
C653 C652 1.334 . S
C653 C654 1.287 . S
C654 C653 1.287 . S
C654 C655 1.524 . S
C654 H673 0.913 . S
C655 H631 0.950 . S
C655 C654 1.524 . S
C655 C656 1.415 . S
C656 H632 0.950 . S
C656 C651 1.363 . S
C656 C655 1.415 . S
C657 H633 0.951 . S
C657 C658 1.366 . S
C657 C659 1.388 . S
C658 C657 1.366 . S
C658 C662 1.385 . S
C659 H634 0.951 . S
C659 C657 1.388 . S
C659 C660 1.366 . S
C660 C659 1.366 . S
C660 C661 1.414 . S
C660 C663 1.499 . S
C661 H635 0.950 . S
C661 C660 1.414 . S
C661 C662 1.374 . S
C662 H636 0.950 . S
C662 C658 1.385 . S
C662 C661 1.374 . S
C663 C660 1.499 . S
C663 C664 1.373 . S
C663 C665 1.389 . S
C664 H637 0.950 . S
C664 C650 1.377 . S
C664 C663 1.373 . S
C665 C649 1.377 . S
C665 C663 1.389 . S
C665 C666 1.524 . S
C666 C665 1.524 . S
C666 C667 1.397 . S
C666 C671 1.363 . S
C667 H638 0.950 . S
C667 C666 1.397 . S
C667 C668 1.334 . S
C668 H639 0.950 . S
C668 C667 1.334 . S
C668 C669 1.287 . S
C669 C668 1.287 . S
C669 C670 1.524 . S
C669 H672 0.999 . S
C670 H640 0.950 . S
C670 C669 1.524 . S
C670 C671 1.415 . S
C671 H641 0.950 . S
C671 C666 1.363 . S
C671 C670 1.415 . S
H672 C669 0.999 . S
H673 C654 0.913 . S
H674 C692 0.951 . S
H675 C694 0.951 . S
H676 C696 0.950 . S
H677 C697 0.950 . S
H678 C699 0.950 . S
H679 C702 0.950 . S
H680 C703 0.950 . S
H681 C705 0.950 . S
H682 C706 0.950 . S
H683 C707 0.951 . S
H684 C709 0.951 . S
H685 C711 0.950 . S
H686 C712 0.950 . S
H687 C714 0.950 . S
H688 C717 0.950 . S
H689 C718 0.950 . S
H690 C720 0.950 . S
H691 C721 0.950 . S
C692 H674 0.951 . S
C692 C693 1.366 . S
C692 C694 1.388 . S
C693 C692 1.366 . S
C693 C697 1.385 . S
C694 H675 0.951 . S
C694 C692 1.388 . S
C694 C695 1.366 . S
C695 C694 1.366 . S
C695 C696 1.414 . S
C695 C698 1.499 . S
C696 H676 0.950 . S
C696 C695 1.414 . S
C696 C697 1.374 . S
C697 H677 0.950 . S
C697 C693 1.385 . S
C697 C696 1.374 . S
C698 C695 1.499 . S
C698 C699 1.373 . S
C698 C700 1.389 . S
C699 H678 0.950 . S
C699 C698 1.373 . S
C699 C715 1.377 . S
C700 C698 1.389 . S
C700 C701 1.524 . S
C700 C714 1.377 . S
C701 C700 1.524 . S
C701 C702 1.397 . S
C701 C706 1.363 . S
C702 H679 0.950 . S
C702 C701 1.397 . S
C702 C703 1.334 . S
C703 H680 0.950 . S
C703 C702 1.334 . S
C703 C704 1.287 . S
C704 C703 1.287 . S
C704 C705 1.524 . S
C704 H723 0.913 . S
C705 H681 0.950 . S
C705 C704 1.524 . S
C705 C706 1.415 . S
C706 H682 0.950 . S
C706 C701 1.363 . S
C706 C705 1.415 . S
C707 H683 0.951 . S
C707 C708 1.366 . S
C707 C709 1.388 . S
C708 C707 1.366 . S
C708 C712 1.385 . S
C709 H684 0.951 . S
C709 C707 1.388 . S
C709 C710 1.366 . S
C710 C709 1.366 . S
C710 C711 1.414 . S
C710 C713 1.499 . S
C711 H685 0.950 . S
C711 C710 1.414 . S
C711 C712 1.374 . S
C712 H686 0.950 . S
C712 C708 1.385 . S
C712 C711 1.374 . S
C713 C710 1.499 . S
C713 C714 1.373 . S
C713 C715 1.389 . S
C714 H687 0.950 . S
C714 C700 1.377 . S
C714 C713 1.373 . S
C715 C699 1.377 . S
C715 C713 1.389 . S
C715 C716 1.524 . S
C716 C715 1.524 . S
C716 C717 1.397 . S
C716 C721 1.363 . S
C717 H688 0.950 . S
C717 C716 1.397 . S
C717 C718 1.334 . S
C718 H689 0.950 . S
C718 C717 1.334 . S
C718 C719 1.287 . S
C719 C718 1.287 . S
C719 C720 1.524 . S
C719 H722 0.999 . S
C720 H690 0.950 . S
C720 C719 1.524 . S
C720 C721 1.415 . S
C721 H691 0.950 . S
C721 C716 1.363 . S
C721 C720 1.415 . S
H722 C719 0.999 . S
H723 C704 0.913 . S
H724 C742 0.951 . S
H725 C744 0.951 . S
H726 C746 0.950 . S
H727 C747 0.950 . S
H728 C749 0.950 . S
H729 C752 0.950 . S
H730 C753 0.950 . S
H731 C755 0.950 . S
H732 C756 0.950 . S
H733 C757 0.951 . S
H734 C759 0.951 . S
H735 C761 0.950 . S
H736 C762 0.950 . S
H737 C764 0.950 . S
H738 C767 0.950 . S
H739 C768 0.950 . S
H740 C770 0.950 . S
H741 C771 0.950 . S
C742 H724 0.951 . S
C742 C743 1.366 . S
C742 C744 1.388 . S
C743 C742 1.366 . S
C743 C747 1.385 . S
C744 H725 0.951 . S
C744 C742 1.388 . S
C744 C745 1.366 . S
C745 C744 1.366 . S
C745 C746 1.414 . S
C745 C748 1.499 . S
C746 H726 0.950 . S
C746 C745 1.414 . S
C746 C747 1.374 . S
C747 H727 0.950 . S
C747 C743 1.385 . S
C747 C746 1.374 . S
C748 C745 1.499 . S
C748 C749 1.373 . S
C748 C750 1.389 . S
C749 H728 0.950 . S
C749 C748 1.373 . S
C749 C765 1.377 . S
C750 C748 1.389 . S
C750 C751 1.524 . S
C750 C764 1.377 . S
C751 C750 1.524 . S
C751 C752 1.397 . S
C751 C756 1.363 . S
C752 H729 0.950 . S
C752 C751 1.397 . S
C752 C753 1.334 . S
C753 H730 0.950 . S
C753 C752 1.334 . S
C753 C754 1.287 . S
C754 C753 1.287 . S
C754 C755 1.524 . S
C754 H773 0.913 . S
C755 H731 0.950 . S
C755 C754 1.524 . S
C755 C756 1.415 . S
C756 H732 0.950 . S
C756 C751 1.363 . S
C756 C755 1.415 . S
C757 H733 0.951 . S
C757 C758 1.366 . S
C757 C759 1.388 . S
C758 C757 1.366 . S
C758 C762 1.385 . S
C759 H734 0.951 . S
C759 C757 1.388 . S
C759 C760 1.366 . S
C760 C759 1.366 . S
C760 C761 1.414 . S
C760 C763 1.499 . S
C761 H735 0.950 . S
C761 C760 1.414 . S
C761 C762 1.374 . S
C762 H736 0.950 . S
C762 C758 1.385 . S
C762 C761 1.374 . S
C763 C760 1.499 . S
C763 C764 1.373 . S
C763 C765 1.389 . S
C764 H737 0.950 . S
C764 C750 1.377 . S
C764 C763 1.373 . S
C765 C749 1.377 . S
C765 C763 1.389 . S
C765 C766 1.524 . S
C766 C765 1.524 . S
C766 C767 1.397 . S
C766 C771 1.363 . S
C767 H738 0.950 . S
C767 C766 1.397 . S
C767 C768 1.334 . S
C768 H739 0.950 . S
C768 C767 1.334 . S
C768 C769 1.287 . S
C769 C768 1.287 . S
C769 C770 1.524 . S
C769 H772 0.999 . S
C770 H740 0.950 . S
C770 C769 1.524 . S
C770 C771 1.415 . S
C771 H741 0.950 . S
C771 C766 1.363 . S
C771 C770 1.415 . S
H772 C769 0.999 . S
H773 C754 0.913 . S
H774 C792 0.951 . S
H775 C794 0.951 . S
H776 C796 0.950 . S
H777 C797 0.950 . S
H778 C799 0.950 . S
H779 C802 0.950 . S
H780 C803 0.950 . S
H781 C805 0.950 . S
H782 C806 0.950 . S
H783 C807 0.951 . S
H784 C809 0.951 . S
H785 C811 0.950 . S
H786 C812 0.950 . S
H787 C814 0.950 . S
H788 C817 0.950 . S
H789 C818 0.950 . S
H790 C820 0.950 . S
H791 C821 0.950 . S
C792 H774 0.951 . S
C792 C793 1.366 . S
C792 C794 1.388 . S
C793 C792 1.366 . S
C793 C797 1.385 . S
C794 H775 0.951 . S
C794 C792 1.388 . S
C794 C795 1.366 . S
C795 C794 1.366 . S
C795 C796 1.414 . S
C795 C798 1.499 . S
C796 H776 0.950 . S
C796 C795 1.414 . S
C796 C797 1.374 . S
C797 H777 0.950 . S
C797 C793 1.385 . S
C797 C796 1.374 . S
C798 C795 1.499 . S
C798 C799 1.373 . S
C798 C800 1.389 . S
C799 H778 0.950 . S
C799 C798 1.373 . S
C799 C815 1.377 . S
C800 C798 1.389 . S
C800 C801 1.524 . S
C800 C814 1.377 . S
C801 C800 1.524 . S
C801 C802 1.397 . S
C801 C806 1.363 . S
C802 H779 0.950 . S
C802 C801 1.397 . S
C802 C803 1.334 . S
C803 H780 0.950 . S
C803 C802 1.334 . S
C803 C804 1.287 . S
C804 C803 1.287 . S
C804 C805 1.524 . S
C804 H823 0.913 . S
C805 H781 0.950 . S
C805 C804 1.524 . S
C805 C806 1.415 . S
C806 H782 0.950 . S
C806 C801 1.363 . S
C806 C805 1.415 . S
C807 H783 0.951 . S
C807 C808 1.366 . S
C807 C809 1.388 . S
C808 C807 1.366 . S
C808 C812 1.385 . S
C809 H784 0.951 . S
C809 C807 1.388 . S
C809 C810 1.366 . S
C810 C809 1.366 . S
C810 C811 1.414 . S
C810 C813 1.499 . S
C811 H785 0.950 . S
C811 C810 1.414 . S
C811 C812 1.374 . S
C812 H786 0.950 . S
C812 C808 1.385 . S
C812 C811 1.374 . S
C813 C810 1.499 . S
C813 C814 1.373 . S
C813 C815 1.389 . S
C814 H787 0.950 . S
C814 C800 1.377 . S
C814 C813 1.373 . S
C815 C799 1.377 . S
C815 C813 1.389 . S
C815 C816 1.524 . S
C816 C815 1.524 . S
C816 C817 1.397 . S
C816 C821 1.363 . S
C817 H788 0.950 . S
C817 C816 1.397 . S
C817 C818 1.334 . S
C818 H789 0.950 . S
C818 C817 1.334 . S
C818 C819 1.287 . S
C819 C818 1.287 . S
C819 C820 1.524 . S
C819 H822 0.999 . S
C820 H790 0.950 . S
C820 C819 1.524 . S
C820 C821 1.415 . S
C821 H791 0.950 . S
C821 C816 1.363 . S
C821 C820 1.415 . S
H822 C819 0.999 . S
H823 C804 0.913 . S
H824 C842 0.951 . S
H825 C844 0.951 . S
H826 C846 0.950 . S
H827 C847 0.950 . S
H828 C849 0.950 . S
H829 C852 0.950 . S
H830 C853 0.950 . S
H831 C855 0.950 . S
H832 C856 0.950 . S
H833 C857 0.951 . S
H834 C859 0.951 . S
H835 C861 0.950 . S
H836 C862 0.950 . S
H837 C864 0.950 . S
H838 C867 0.950 . S
H839 C868 0.950 . S
H840 C870 0.950 . S
H841 C871 0.950 . S
C842 H824 0.951 . S
C842 C843 1.366 . S
C842 C844 1.388 . S
C843 C842 1.366 . S
C843 C847 1.385 . S
C844 H825 0.951 . S
C844 C842 1.388 . S
C844 C845 1.366 . S
C845 C844 1.366 . S
C845 C846 1.414 . S
C845 C848 1.499 . S
C846 H826 0.950 . S
C846 C845 1.414 . S
C846 C847 1.374 . S
C847 H827 0.950 . S
C847 C843 1.385 . S
C847 C846 1.374 . S
C848 C845 1.499 . S
C848 C849 1.373 . S
C848 C850 1.389 . S
C849 H828 0.950 . S
C849 C848 1.373 . S
C849 C865 1.377 . S
C850 C848 1.389 . S
C850 C851 1.524 . S
C850 C864 1.377 . S
C851 C850 1.524 . S
C851 C852 1.397 . S
C851 C856 1.363 . S
C852 H829 0.950 . S
C852 C851 1.397 . S
C852 C853 1.334 . S
C853 H830 0.950 . S
C853 C852 1.334 . S
C853 C854 1.287 . S
C854 C853 1.287 . S
C854 C855 1.524 . S
C854 H873 0.913 . S
C855 H831 0.950 . S
C855 C854 1.524 . S
C855 C856 1.415 . S
C856 H832 0.950 . S
C856 C851 1.363 . S
C856 C855 1.415 . S
C857 H833 0.951 . S
C857 C858 1.366 . S
C857 C859 1.388 . S
C858 C857 1.366 . S
C858 C862 1.385 . S
C859 H834 0.951 . S
C859 C857 1.388 . S
C859 C860 1.366 . S
C860 C859 1.366 . S
C860 C861 1.414 . S
C860 C863 1.499 . S
C861 H835 0.950 . S
C861 C860 1.414 . S
C861 C862 1.374 . S
C862 H836 0.950 . S
C862 C858 1.385 . S
C862 C861 1.374 . S
C863 C860 1.499 . S
C863 C864 1.373 . S
C863 C865 1.389 . S
C864 H837 0.950 . S
C864 C850 1.377 . S
C864 C863 1.373 . S
C865 C849 1.377 . S
C865 C863 1.389 . S
C865 C866 1.524 . S
C866 C865 1.524 . S
C866 C867 1.397 . S
C866 C871 1.363 . S
C867 H838 0.950 . S
C867 C866 1.397 . S
C867 C868 1.334 . S
C868 H839 0.950 . S
C868 C867 1.334 . S
C868 C869 1.287 . S
C869 C868 1.287 . S
C869 C870 1.524 . S
C869 H872 0.999 . S
C870 H840 0.950 . S
C870 C869 1.524 . S
C870 C871 1.415 . S
C871 H841 0.950 . S
C871 C866 1.363 . S
C871 C870 1.415 . S
H872 C869 0.999 . S
H873 C854 0.913 . S
H874 C892 0.951 . S
H875 C894 0.951 . S
H876 C896 0.950 . S
H877 C897 0.950 . S
H878 C899 0.950 . S
H879 C902 0.950 . S
H880 C903 0.950 . S
H881 C905 0.950 . S
H882 C906 0.950 . S
H883 C907 0.951 . S
H884 C909 0.951 . S
H885 C911 0.950 . S
H886 C912 0.950 . S
H887 C914 0.950 . S
H888 C917 0.950 . S
H889 C918 0.950 . S
H890 C920 0.950 . S
H891 C921 0.950 . S
C892 H874 0.951 . S
C892 C893 1.366 . S
C892 C894 1.388 . S
C893 C892 1.366 . S
C893 C897 1.385 . S
C894 H875 0.951 . S
C894 C892 1.388 . S
C894 C895 1.366 . S
C895 C894 1.366 . S
C895 C896 1.414 . S
C895 C898 1.499 . S
C896 H876 0.950 . S
C896 C895 1.414 . S
C896 C897 1.374 . S
C897 H877 0.950 . S
C897 C893 1.385 . S
C897 C896 1.374 . S
C898 C895 1.499 . S
C898 C899 1.373 . S
C898 C900 1.389 . S
C899 H878 0.950 . S
C899 C898 1.373 . S
C899 C915 1.377 . S
C900 C898 1.389 . S
C900 C901 1.524 . S
C900 C914 1.377 . S
C901 C900 1.524 . S
C901 C902 1.397 . S
C901 C906 1.363 . S
C902 H879 0.950 . S
C902 C901 1.397 . S
C902 C903 1.334 . S
C903 H880 0.950 . S
C903 C902 1.334 . S
C903 C904 1.287 . S
C904 C903 1.287 . S
C904 C905 1.524 . S
C904 H923 0.913 . S
C905 H881 0.950 . S
C905 C904 1.524 . S
C905 C906 1.415 . S
C906 H882 0.950 . S
C906 C901 1.363 . S
C906 C905 1.415 . S
C907 H883 0.951 . S
C907 C908 1.366 . S
C907 C909 1.388 . S
C908 C907 1.366 . S
C908 C912 1.385 . S
C909 H884 0.951 . S
C909 C907 1.388 . S
C909 C910 1.366 . S
C910 C909 1.366 . S
C910 C911 1.414 . S
C910 C913 1.499 . S
C911 H885 0.950 . S
C911 C910 1.414 . S
C911 C912 1.374 . S
C912 H886 0.950 . S
C912 C908 1.385 . S
C912 C911 1.374 . S
C913 C910 1.499 . S
C913 C914 1.373 . S
C913 C915 1.389 . S
C914 H887 0.950 . S
C914 C900 1.377 . S
C914 C913 1.373 . S
C915 C899 1.377 . S
C915 C913 1.389 . S
C915 C916 1.524 . S
C916 C915 1.524 . S
C916 C917 1.397 . S
C916 C921 1.363 . S
C917 H888 0.950 . S
C917 C916 1.397 . S
C917 C918 1.334 . S
C918 H889 0.950 . S
C918 C917 1.334 . S
C918 C919 1.287 . S
C919 C918 1.287 . S
C919 C920 1.524 . S
C919 H922 0.999 . S
C920 H890 0.950 . S
C920 C919 1.524 . S
C920 C921 1.415 . S
C921 H891 0.950 . S
C921 C916 1.363 . S
C921 C920 1.415 . S
H922 C919 0.999 . S
H923 C904 0.913 . S
H924 C942 0.951 . S
H925 C944 0.951 . S
H926 C946 0.950 . S
H927 C947 0.950 . S
H928 C949 0.950 . S
H929 C952 0.950 . S
H930 C953 0.950 . S
H931 C955 0.950 . S
H932 C956 0.950 . S
H933 C957 0.951 . S
H934 C959 0.951 . S
H935 C961 0.950 . S
H936 C962 0.950 . S
H937 C964 0.950 . S
H938 C967 0.950 . S
H939 C968 0.950 . S
H940 C970 0.950 . S
H941 C971 0.950 . S
C942 H924 0.951 . S
C942 C943 1.366 . S
C942 C944 1.388 . S
C943 C942 1.366 . S
C943 C947 1.385 . S
C944 H925 0.951 . S
C944 C942 1.388 . S
C944 C945 1.366 . S
C945 C944 1.366 . S
C945 C946 1.414 . S
C945 C948 1.499 . S
C946 H926 0.950 . S
C946 C945 1.414 . S
C946 C947 1.374 . S
C947 H927 0.950 . S
C947 C943 1.385 . S
C947 C946 1.374 . S
C948 C945 1.499 . S
C948 C949 1.373 . S
C948 C950 1.389 . S
C949 H928 0.950 . S
C949 C948 1.373 . S
C949 C965 1.377 . S
C950 C948 1.389 . S
C950 C951 1.524 . S
C950 C964 1.377 . S
C951 C950 1.524 . S
C951 C952 1.397 . S
C951 C956 1.363 . S
C952 H929 0.950 . S
C952 C951 1.397 . S
C952 C953 1.334 . S
C953 H930 0.950 . S
C953 C952 1.334 . S
C953 C954 1.287 . S
C954 C953 1.287 . S
C954 C955 1.524 . S
C954 H973 0.913 . S
C955 H931 0.950 . S
C955 C954 1.524 . S
C955 C956 1.415 . S
C956 H932 0.950 . S
C956 C951 1.363 . S
C956 C955 1.415 . S
C957 H933 0.951 . S
C957 C958 1.366 . S
C957 C959 1.388 . S
C958 C957 1.366 . S
C958 C962 1.385 . S
C959 H934 0.951 . S
C959 C957 1.388 . S
C959 C960 1.366 . S
C960 C959 1.366 . S
C960 C961 1.414 . S
C960 C963 1.499 . S
C961 H935 0.950 . S
C961 C960 1.414 . S
C961 C962 1.374 . S
C962 H936 0.950 . S
C962 C958 1.385 . S
C962 C961 1.374 . S
C963 C960 1.499 . S
C963 C964 1.373 . S
C963 C965 1.389 . S
C964 H937 0.950 . S
C964 C950 1.377 . S
C964 C963 1.373 . S
C965 C949 1.377 . S
C965 C963 1.389 . S
C965 C966 1.524 . S
C966 C965 1.524 . S
C966 C967 1.397 . S
C966 C971 1.363 . S
C967 H938 0.950 . S
C967 C966 1.397 . S
C967 C968 1.334 . S
C968 H939 0.950 . S
C968 C967 1.334 . S
C968 C969 1.287 . S
C969 C968 1.287 . S
C969 C970 1.524 . S
C969 H972 0.999 . S
C970 H940 0.950 . S
C970 C969 1.524 . S
C970 C971 1.415 . S
C971 H941 0.950 . S
C971 C966 1.363 . S
C971 C970 1.415 . S
H972 C969 0.999 . S
H973 C954 0.913 . S
H974 C992 0.951 . S
H975 C994 0.951 . S
H976 C996 0.950 . S
H977 C997 0.950 . S
H978 C999 0.950 . S
H979 C1002 0.950 . S
H980 C1003 0.950 . S
H981 C1005 0.950 . S
H982 C1006 0.950 . S
H983 C1007 0.951 . S
H984 C1009 0.951 . S
H985 C1011 0.950 . S
H986 C1012 0.950 . S
H987 C1014 0.950 . S
H988 C1017 0.950 . S
H989 C1018 0.950 . S
H990 C1020 0.950 . S
H991 C1021 0.950 . S
C992 H974 0.951 . S
C992 C993 1.366 . S
C992 C994 1.388 . S
C993 C992 1.366 . S
C993 C997 1.385 . S
C994 H975 0.951 . S
C994 C992 1.388 . S
C994 C995 1.366 . S
C995 C994 1.366 . S
C995 C996 1.414 . S
C995 C998 1.499 . S
C996 H976 0.950 . S
C996 C995 1.414 . S
C996 C997 1.374 . S
C997 H977 0.950 . S
C997 C993 1.385 . S
C997 C996 1.374 . S
C998 C995 1.499 . S
C998 C999 1.373 . S
C998 C1000 1.389 . S
C999 H978 0.950 . S
C999 C998 1.373 . S
C999 C1015 1.377 . S
C1000 C998 1.389 . S
C1000 C1001 1.524 . S
C1000 C1014 1.377 . S
C1001 C1000 1.524 . S
C1001 C1002 1.397 . S
C1001 C1006 1.363 . S
C1002 H979 0.950 . S
C1002 C1001 1.397 . S
C1002 C1003 1.334 . S
C1003 H980 0.950 . S
C1003 C1002 1.334 . S
C1003 C1004 1.287 . S
C1004 C1003 1.287 . S
C1004 C1005 1.524 . S
C1004 H1023 0.913 . S
C1005 H981 0.950 . S
C1005 C1004 1.524 . S
C1005 C1006 1.415 . S
C1006 H982 0.950 . S
C1006 C1001 1.363 . S
C1006 C1005 1.415 . S
C1007 H983 0.951 . S
C1007 C1008 1.366 . S
C1007 C1009 1.388 . S
C1008 C1007 1.366 . S
C1008 C1012 1.385 . S
C1009 H984 0.951 . S
C1009 C1007 1.388 . S
C1009 C1010 1.366 . S
C1010 C1009 1.366 . S
C1010 C1011 1.414 . S
C1010 C1013 1.499 . S
C1011 H985 0.950 . S
C1011 C1010 1.414 . S
C1011 C1012 1.374 . S
C1012 H986 0.950 . S
C1012 C1008 1.385 . S
C1012 C1011 1.374 . S
C1013 C1010 1.499 . S
C1013 C1014 1.373 . S
C1013 C1015 1.389 . S
C1014 H987 0.950 . S
C1014 C1000 1.377 . S
C1014 C1013 1.373 . S
C1015 C999 1.377 . S
C1015 C1013 1.389 . S
C1015 C1016 1.524 . S
C1016 C1015 1.524 . S
C1016 C1017 1.397 . S
C1016 C1021 1.363 . S
C1017 H988 0.950 . S
C1017 C1016 1.397 . S
C1017 C1018 1.334 . S
C1018 H989 0.950 . S
C1018 C1017 1.334 . S
C1018 C1019 1.287 . S
C1019 C1018 1.287 . S
C1019 C1020 1.524 . S
C1019 H1022 0.999 . S
C1020 H990 0.950 . S
C1020 C1019 1.524 . S
C1020 C1021 1.415 . S
C1021 H991 0.950 . S
C1021 C1016 1.363 . S
C1021 C1020 1.415 . S
H1022 C1019 0.999 . S
H1023 C1004 0.913 . S
H1024 C1042 0.951 . S
H1025 C1044 0.951 . S
H1026 C1046 0.950 . S
H1027 C1047 0.950 . S
H1028 C1049 0.950 . S
H1029 C1052 0.950 . S
H1030 C1053 0.950 . S
H1031 C1055 0.950 . S
H1032 C1056 0.950 . S
H1033 C1057 0.951 . S
H1034 C1059 0.951 . S
H1035 C1061 0.950 . S
H1036 C1062 0.950 . S
H1037 C1064 0.950 . S
H1038 C1067 0.950 . S
H1039 C1068 0.950 . S
H1040 C1070 0.950 . S
H1041 C1071 0.950 . S
C1042 H1024 0.951 . S
C1042 C1043 1.366 . S
C1042 C1044 1.388 . S
C1043 C1042 1.366 . S
C1043 C1047 1.385 . S
C1044 H1025 0.951 . S
C1044 C1042 1.388 . S
C1044 C1045 1.366 . S
C1045 C1044 1.366 . S
C1045 C1046 1.414 . S
C1045 C1048 1.499 . S
C1046 H1026 0.950 . S
C1046 C1045 1.414 . S
C1046 C1047 1.374 . S
C1047 H1027 0.950 . S
C1047 C1043 1.385 . S
C1047 C1046 1.374 . S
C1048 C1045 1.499 . S
C1048 C1049 1.373 . S
C1048 C1050 1.389 . S
C1049 H1028 0.950 . S
C1049 C1048 1.373 . S
C1049 C1065 1.377 1_556 S
C1050 C1048 1.389 . S
C1050 C1051 1.524 . S
C1050 C1064 1.377 1_556 S
C1051 C1050 1.524 . S
C1051 C1052 1.397 . S
C1051 C1056 1.363 . S
C1052 H1029 0.950 . S
C1052 C1051 1.397 . S
C1052 C1053 1.334 . S
C1053 H1030 0.950 . S
C1053 C1052 1.334 . S
C1053 C1054 1.287 . S
C1054 C1053 1.287 . S
C1054 C1055 1.524 . S
C1054 H1073 0.913 . S
C1055 H1031 0.950 . S
C1055 C1054 1.524 . S
C1055 C1056 1.415 . S
C1056 H1032 0.950 . S
C1056 C1051 1.363 . S
C1056 C1055 1.415 . S
C1057 H1033 0.951 . S
C1057 C1058 1.366 . S
C1057 C1059 1.388 . S
C1058 C1057 1.366 . S
C1058 C1062 1.385 . S
C1059 H1034 0.951 . S
C1059 C1057 1.388 . S
C1059 C1060 1.366 . S
C1060 C1059 1.366 . S
C1060 C1061 1.414 . S
C1060 C1063 1.499 . S
C1061 H1035 0.950 . S
C1061 C1060 1.414 . S
C1061 C1062 1.374 . S
C1062 H1036 0.950 . S
C1062 C1058 1.385 . S
C1062 C1061 1.374 . S
C1063 C1060 1.499 . S
C1063 C1064 1.373 . S
C1063 C1065 1.389 . S
C1064 H1037 0.950 . S
C1064 C1050 1.377 1_554 S
C1064 C1063 1.373 . S
C1065 C1049 1.377 1_554 S
C1065 C1063 1.389 . S
C1065 C1066 1.524 . S
C1066 C1065 1.524 . S
C1066 C1067 1.397 . S
C1066 C1071 1.363 . S
C1067 H1038 0.950 . S
C1067 C1066 1.397 . S
C1067 C1068 1.334 . S
C1068 H1039 0.950 . S
C1068 C1067 1.334 . S
C1068 C1069 1.287 . S
C1069 C1068 1.287 . S
C1069 C1070 1.524 . S
C1069 H1072 0.999 . S
C1070 H1040 0.950 . S
C1070 C1069 1.524 . S
C1070 C1071 1.415 . S
C1071 H1041 0.950 . S
C1071 C1066 1.363 . S
C1071 C1070 1.415 . S
H1072 C1069 0.999 . S
H1073 C1054 0.913 . S
H1074 C1092 0.951 . S
H1075 C1094 0.951 . S
H1076 C1096 0.950 . S
H1077 C1097 0.950 . S
H1078 C1099 0.950 . S
H1079 C1102 0.950 . S
H1080 C1103 0.950 . S
H1081 C1105 0.950 . S
H1082 C1106 0.950 . S
H1083 C1107 0.951 . S
H1084 C1109 0.951 . S
H1085 C1111 0.950 . S
H1086 C1112 0.950 . S
H1087 C1114 0.950 . S
H1088 C1117 0.950 . S
H1089 C1118 0.950 . S
H1090 C1120 0.950 . S
H1091 C1121 0.950 . S
C1092 H1074 0.951 . S
C1092 C1093 1.366 . S
C1092 C1094 1.388 . S
C1093 C1092 1.366 . S
C1093 C1097 1.385 . S
C1094 H1075 0.951 . S
C1094 C1092 1.388 . S
C1094 C1095 1.366 . S
C1095 C1094 1.366 . S
C1095 C1096 1.414 . S
C1095 C1098 1.499 . S
C1096 H1076 0.950 . S
C1096 C1095 1.414 . S
C1096 C1097 1.374 . S
C1097 H1077 0.950 . S
C1097 C1093 1.385 . S
C1097 C1096 1.374 . S
C1098 C1095 1.499 . S
C1098 C1099 1.373 . S
C1098 C1100 1.389 . S
C1099 H1078 0.950 . S
C1099 C1098 1.373 . S
C1099 C1115 1.377 . S
C1100 C1098 1.389 . S
C1100 C1101 1.524 . S
C1100 C1114 1.377 . S
C1101 C1100 1.524 . S
C1101 C1102 1.397 . S
C1101 C1106 1.363 . S
C1102 H1079 0.950 . S
C1102 C1101 1.397 . S
C1102 C1103 1.334 . S
C1103 H1080 0.950 . S
C1103 C1102 1.334 . S
C1103 C1104 1.287 . S
C1104 C1103 1.287 . S
C1104 C1105 1.524 . S
C1104 H1123 0.913 . S
C1105 H1081 0.950 . S
C1105 C1104 1.524 . S
C1105 C1106 1.415 . S
C1106 H1082 0.950 . S
C1106 C1101 1.363 . S
C1106 C1105 1.415 . S
C1107 H1083 0.951 . S
C1107 C1108 1.366 . S
C1107 C1109 1.388 . S
C1108 C1107 1.366 . S
C1108 C1112 1.385 . S
C1109 H1084 0.951 . S
C1109 C1107 1.388 . S
C1109 C1110 1.366 . S
C1110 C1109 1.366 . S
C1110 C1111 1.414 . S
C1110 C1113 1.499 . S
C1111 H1085 0.950 . S
C1111 C1110 1.414 . S
C1111 C1112 1.374 . S
C1112 H1086 0.950 . S
C1112 C1108 1.385 . S
C1112 C1111 1.374 . S
C1113 C1110 1.499 . S
C1113 C1114 1.373 . S
C1113 C1115 1.389 . S
C1114 H1087 0.950 . S
C1114 C1100 1.377 . S
C1114 C1113 1.373 . S
C1115 C1099 1.377 . S
C1115 C1113 1.389 . S
C1115 C1116 1.524 . S
C1116 C1115 1.524 . S
C1116 C1117 1.397 . S
C1116 C1121 1.363 . S
C1117 H1088 0.950 . S
C1117 C1116 1.397 . S
C1117 C1118 1.334 . S
C1118 H1089 0.950 . S
C1118 C1117 1.334 . S
C1118 C1119 1.287 . S
C1119 C1118 1.287 . S
C1119 C1120 1.524 . S
C1119 H1122 0.999 . S
C1120 H1090 0.950 . S
C1120 C1119 1.524 . S
C1120 C1121 1.415 . S
C1121 H1091 0.950 . S
C1121 C1116 1.363 . S
C1121 C1120 1.415 . S
H1122 C1119 0.999 . S
H1123 C1104 0.913 . S
H1124 C1142 0.951 . S
H1125 C1144 0.951 . S
H1126 C1146 0.950 . S
H1127 C1147 0.950 . S
H1128 C1149 0.950 . S
H1129 C1152 0.950 . S
H1130 C1153 0.950 . S
H1131 C1155 0.950 . S
H1132 C1156 0.950 . S
H1133 C1157 0.951 . S
H1134 C1159 0.951 . S
H1135 C1161 0.950 . S
H1136 C1162 0.950 . S
H1137 C1164 0.950 . S
H1138 C1167 0.950 . S
H1139 C1168 0.950 . S
H1140 C1170 0.950 . S
H1141 C1171 0.950 . S
C1142 H1124 0.951 . S
C1142 C1143 1.366 . S
C1142 C1144 1.388 . S
C1143 C1142 1.366 . S
C1143 C1147 1.385 . S
C1144 H1125 0.951 . S
C1144 C1142 1.388 . S
C1144 C1145 1.366 . S
C1145 C1144 1.366 . S
C1145 C1146 1.414 . S
C1145 C1148 1.499 . S
C1146 H1126 0.950 . S
C1146 C1145 1.414 . S
C1146 C1147 1.374 . S
C1147 H1127 0.950 . S
C1147 C1143 1.385 . S
C1147 C1146 1.374 . S
C1148 C1145 1.499 . S
C1148 C1149 1.373 . S
C1148 C1150 1.389 . S
C1149 H1128 0.950 . S
C1149 C1148 1.373 . S
C1149 C1165 1.377 1_554 S
C1150 C1148 1.389 . S
C1150 C1151 1.524 . S
C1150 C1164 1.377 1_554 S
C1151 C1150 1.524 . S
C1151 C1152 1.397 . S
C1151 C1156 1.363 . S
C1152 H1129 0.950 . S
C1152 C1151 1.397 . S
C1152 C1153 1.334 . S
C1153 H1130 0.950 . S
C1153 C1152 1.334 . S
C1153 C1154 1.287 . S
C1154 C1153 1.287 . S
C1154 C1155 1.524 . S
C1154 H1173 0.913 . S
C1155 H1131 0.950 . S
C1155 C1154 1.524 . S
C1155 C1156 1.415 . S
C1156 H1132 0.950 . S
C1156 C1151 1.363 . S
C1156 C1155 1.415 . S
C1157 H1133 0.951 . S
C1157 C1158 1.366 . S
C1157 C1159 1.388 . S
C1158 C1157 1.366 . S
C1158 C1162 1.385 . S
C1159 H1134 0.951 . S
C1159 C1157 1.388 . S
C1159 C1160 1.366 . S
C1160 C1159 1.366 . S
C1160 C1161 1.414 . S
C1160 C1163 1.499 . S
C1161 H1135 0.950 . S
C1161 C1160 1.414 . S
C1161 C1162 1.374 . S
C1162 H1136 0.950 . S
C1162 C1158 1.385 . S
C1162 C1161 1.374 . S
C1163 C1160 1.499 . S
C1163 C1164 1.373 . S
C1163 C1165 1.389 . S
C1164 H1137 0.950 . S
C1164 C1150 1.377 1_556 S
C1164 C1163 1.373 . S
C1165 C1149 1.377 1_556 S
C1165 C1163 1.389 . S
C1165 C1166 1.524 . S
C1166 C1165 1.524 . S
C1166 C1167 1.397 . S
C1166 C1171 1.363 . S
C1167 H1138 0.950 . S
C1167 C1166 1.397 . S
C1167 C1168 1.334 . S
C1168 H1139 0.950 . S
C1168 C1167 1.334 . S
C1168 C1169 1.287 . S
C1169 C1168 1.287 . S
C1169 C1170 1.524 . S
C1169 H1172 0.999 . S
C1170 H1140 0.950 . S
C1170 C1169 1.524 . S
C1170 C1171 1.415 . S
C1171 H1141 0.950 . S
C1171 C1166 1.363 . S
C1171 C1170 1.415 . S
H1172 C1169 0.999 . S
H1173 C1154 0.913 . S
H1174 C1192 0.951 . S
H1175 C1194 0.951 . S
H1176 C1196 0.950 . S
H1177 C1197 0.950 . S
H1178 C1199 0.950 . S
H1179 C1202 0.950 . S
H1180 C1203 0.950 . S
H1181 C1205 0.950 . S
H1182 C1206 0.950 . S
H1183 C1207 0.951 . S
H1184 C1209 0.951 . S
H1185 C1211 0.950 . S
H1186 C1212 0.950 . S
H1187 C1214 0.950 . S
H1188 C1217 0.950 . S
H1189 C1218 0.950 . S
H1190 C1220 0.950 . S
H1191 C1221 0.950 . S
C1192 H1174 0.951 . S
C1192 C1193 1.366 . S
C1192 C1194 1.388 . S
C1193 C1192 1.366 . S
C1193 C1197 1.385 . S
C1194 H1175 0.951 . S
C1194 C1192 1.388 . S
C1194 C1195 1.366 . S
C1195 C1194 1.366 . S
C1195 C1196 1.414 . S
C1195 C1198 1.499 . S
C1196 H1176 0.950 . S
C1196 C1195 1.414 . S
C1196 C1197 1.374 . S
C1197 H1177 0.950 . S
C1197 C1193 1.385 . S
C1197 C1196 1.374 . S
C1198 C1195 1.499 . S
C1198 C1199 1.373 . S
C1198 C1200 1.389 . S
C1199 H1178 0.950 . S
C1199 C1198 1.373 . S
C1199 C1215 1.377 . S
C1200 C1198 1.389 . S
C1200 C1201 1.524 . S
C1200 C1214 1.377 . S
C1201 C1200 1.524 . S
C1201 C1202 1.397 . S
C1201 C1206 1.363 . S
C1202 H1179 0.950 . S
C1202 C1201 1.397 . S
C1202 C1203 1.334 . S
C1203 H1180 0.950 . S
C1203 C1202 1.334 . S
C1203 C1204 1.287 . S
C1204 C1203 1.287 . S
C1204 C1205 1.524 . S
C1204 H1223 0.913 . S
C1205 H1181 0.950 . S
C1205 C1204 1.524 . S
C1205 C1206 1.415 . S
C1206 H1182 0.950 . S
C1206 C1201 1.363 . S
C1206 C1205 1.415 . S
C1207 H1183 0.951 . S
C1207 C1208 1.366 . S
C1207 C1209 1.388 . S
C1208 C1207 1.366 . S
C1208 C1212 1.385 . S
C1209 H1184 0.951 . S
C1209 C1207 1.388 . S
C1209 C1210 1.366 . S
C1210 C1209 1.366 . S
C1210 C1211 1.414 . S
C1210 C1213 1.499 . S
C1211 H1185 0.950 . S
C1211 C1210 1.414 . S
C1211 C1212 1.374 . S
C1212 H1186 0.950 . S
C1212 C1208 1.385 . S
C1212 C1211 1.374 . S
C1213 C1210 1.499 . S
C1213 C1214 1.373 . S
C1213 C1215 1.389 . S
C1214 H1187 0.950 . S
C1214 C1200 1.377 . S
C1214 C1213 1.373 . S
C1215 C1199 1.377 . S
C1215 C1213 1.389 . S
C1215 C1216 1.524 . S
C1216 C1215 1.524 . S
C1216 C1217 1.397 . S
C1216 C1221 1.363 . S
C1217 H1188 0.950 . S
C1217 C1216 1.397 . S
C1217 C1218 1.334 . S
C1218 H1189 0.950 . S
C1218 C1217 1.334 . S
C1218 C1219 1.287 . S
C1219 C1218 1.287 . S
C1219 C1220 1.524 . S
C1219 H1222 0.999 . S
C1220 H1190 0.950 . S
C1220 C1219 1.524 . S
C1220 C1221 1.415 . S
C1221 H1191 0.950 . S
C1221 C1216 1.363 . S
C1221 C1220 1.415 . S
H1222 C1219 0.999 . S
H1223 C1204 0.913 . S
H1224 C1242 0.951 . S
H1225 C1244 0.951 . S
H1226 C1246 0.950 . S
H1227 C1247 0.950 . S
H1228 C1249 0.950 . S
H1229 C1252 0.950 . S
H1230 C1253 0.950 . S
H1231 C1255 0.950 . S
H1232 C1256 0.950 . S
H1233 C1257 0.951 . S
H1234 C1259 0.951 . S
H1235 C1261 0.950 . S
H1236 C1262 0.950 . S
H1237 C1264 0.950 . S
H1238 C1267 0.950 . S
H1239 C1268 0.950 . S
H1240 C1270 0.950 . S
H1241 C1271 0.950 . S
C1242 H1224 0.951 . S
C1242 C1243 1.366 . S
C1242 C1244 1.388 . S
C1243 C1242 1.366 . S
C1243 C1247 1.385 . S
C1244 H1225 0.951 . S
C1244 C1242 1.388 . S
C1244 C1245 1.366 . S
C1245 C1244 1.366 . S
C1245 C1246 1.414 . S
C1245 C1248 1.499 . S
C1246 H1226 0.950 . S
C1246 C1245 1.414 . S
C1246 C1247 1.374 . S
C1247 H1227 0.950 . S
C1247 C1243 1.385 . S
C1247 C1246 1.374 . S
C1248 C1245 1.499 . S
C1248 C1249 1.373 . S
C1248 C1250 1.389 . S
C1249 H1228 0.950 . S
C1249 C1248 1.373 . S
C1249 C1265 1.377 . S
C1250 C1248 1.389 . S
C1250 C1251 1.524 . S
C1250 C1264 1.377 . S
C1251 C1250 1.524 . S
C1251 C1252 1.397 . S
C1251 C1256 1.363 . S
C1252 H1229 0.950 . S
C1252 C1251 1.397 . S
C1252 C1253 1.334 . S
C1253 H1230 0.950 . S
C1253 C1252 1.334 . S
C1253 C1254 1.287 . S
C1254 C1253 1.287 . S
C1254 C1255 1.524 . S
C1254 H1273 0.913 . S
C1255 H1231 0.950 . S
C1255 C1254 1.524 . S
C1255 C1256 1.415 . S
C1256 H1232 0.950 . S
C1256 C1251 1.363 . S
C1256 C1255 1.415 . S
C1257 H1233 0.951 . S
C1257 C1258 1.366 . S
C1257 C1259 1.388 . S
C1258 C1257 1.366 . S
C1258 C1262 1.385 . S
C1259 H1234 0.951 . S
C1259 C1257 1.388 . S
C1259 C1260 1.366 . S
C1260 C1259 1.366 . S
C1260 C1261 1.414 . S
C1260 C1263 1.499 . S
C1261 H1235 0.950 . S
C1261 C1260 1.414 . S
C1261 C1262 1.374 . S
C1262 H1236 0.950 . S
C1262 C1258 1.385 . S
C1262 C1261 1.374 . S
C1263 C1260 1.499 . S
C1263 C1264 1.373 . S
C1263 C1265 1.389 . S
C1264 H1237 0.950 . S
C1264 C1250 1.377 . S
C1264 C1263 1.373 . S
C1265 C1249 1.377 . S
C1265 C1263 1.389 . S
C1265 C1266 1.524 . S
C1266 C1265 1.524 . S
C1266 C1267 1.397 . S
C1266 C1271 1.363 . S
C1267 H1238 0.950 . S
C1267 C1266 1.397 . S
C1267 C1268 1.334 . S
C1268 H1239 0.950 . S
C1268 C1267 1.334 . S
C1268 C1269 1.287 . S
C1269 C1268 1.287 . S
C1269 C1270 1.524 . S
C1269 H1272 0.999 . S
C1270 H1240 0.950 . S
C1270 C1269 1.524 . S
C1270 C1271 1.415 . S
C1271 H1241 0.950 . S
C1271 C1266 1.363 . S
C1271 C1270 1.415 . S
H1272 C1269 0.999 . S
H1273 C1254 0.913 . S
H1274 C1292 0.951 . S
H1275 C1294 0.951 . S
H1276 C1296 0.950 . S
H1277 C1297 0.950 . S
H1278 C1299 0.950 . S
H1279 C1302 0.950 . S
H1280 C1303 0.950 . S
H1281 C1305 0.950 . S
H1282 C1306 0.950 . S
H1283 C1307 0.951 . S
H1284 C1309 0.951 . S
H1285 C1311 0.950 . S
H1286 C1312 0.950 . S
H1287 C1314 0.950 . S
H1288 C1317 0.950 . S
H1289 C1318 0.950 . S
H1290 C1320 0.950 . S
H1291 C1321 0.950 . S
C1292 H1274 0.951 . S
C1292 C1293 1.366 . S
C1292 C1294 1.388 . S
C1293 C1292 1.366 . S
C1293 C1297 1.385 . S
C1294 H1275 0.951 . S
C1294 C1292 1.388 . S
C1294 C1295 1.366 . S
C1295 C1294 1.366 . S
C1295 C1296 1.414 . S
C1295 C1298 1.499 . S
C1296 H1276 0.950 . S
C1296 C1295 1.414 . S
C1296 C1297 1.374 . S
C1297 H1277 0.950 . S
C1297 C1293 1.385 . S
C1297 C1296 1.374 . S
C1298 C1295 1.499 . S
C1298 C1299 1.373 . S
C1298 C1300 1.389 . S
C1299 H1278 0.950 . S
C1299 C1298 1.373 . S
C1299 C1315 1.377 1_556 S
C1300 C1298 1.389 . S
C1300 C1301 1.524 . S
C1300 C1314 1.377 1_556 S
C1301 C1300 1.524 . S
C1301 C1302 1.397 . S
C1301 C1306 1.363 . S
C1302 H1279 0.950 . S
C1302 C1301 1.397 . S
C1302 C1303 1.334 . S
C1303 H1280 0.950 . S
C1303 C1302 1.334 . S
C1303 C1304 1.287 . S
C1304 C1303 1.287 . S
C1304 C1305 1.524 . S
C1304 H1323 0.913 . S
C1305 H1281 0.950 . S
C1305 C1304 1.524 . S
C1305 C1306 1.415 . S
C1306 H1282 0.950 . S
C1306 C1301 1.363 . S
C1306 C1305 1.415 . S
C1307 H1283 0.951 . S
C1307 C1308 1.366 . S
C1307 C1309 1.388 . S
C1308 C1307 1.366 . S
C1308 C1312 1.385 . S
C1309 H1284 0.951 . S
C1309 C1307 1.388 . S
C1309 C1310 1.366 . S
C1310 C1309 1.366 . S
C1310 C1311 1.414 . S
C1310 C1313 1.499 . S
C1311 H1285 0.950 . S
C1311 C1310 1.414 . S
C1311 C1312 1.374 . S
C1312 H1286 0.950 . S
C1312 C1308 1.385 . S
C1312 C1311 1.374 . S
C1313 C1310 1.499 . S
C1313 C1314 1.373 . S
C1313 C1315 1.389 . S
C1314 H1287 0.950 . S
C1314 C1300 1.377 1_554 S
C1314 C1313 1.373 . S
C1315 C1299 1.377 1_554 S
C1315 C1313 1.389 . S
C1315 C1316 1.524 . S
C1316 C1315 1.524 . S
C1316 C1317 1.397 . S
C1316 C1321 1.363 . S
C1317 H1288 0.950 . S
C1317 C1316 1.397 . S
C1317 C1318 1.334 . S
C1318 H1289 0.950 . S
C1318 C1317 1.334 . S
C1318 C1319 1.287 . S
C1319 C1318 1.287 . S
C1319 C1320 1.524 . S
C1319 H1322 0.999 . S
C1320 H1290 0.950 . S
C1320 C1319 1.524 . S
C1320 C1321 1.415 . S
C1321 H1291 0.950 . S
C1321 C1316 1.363 . S
C1321 C1320 1.415 . S
H1322 C1319 0.999 . S
H1323 C1304 0.913 . S
H1324 C1342 0.951 . S
H1325 C1344 0.951 . S
H1326 C1346 0.950 . S
H1327 C1347 0.950 . S
H1328 C1349 0.950 . S
H1329 C1352 0.950 . S
H1330 C1353 0.950 . S
H1331 C1355 0.950 . S
H1332 C1356 0.950 . S
H1333 C1357 0.951 . S
H1334 C1359 0.951 . S
H1335 C1361 0.950 . S
H1336 C1362 0.950 . S
H1337 C1364 0.950 . S
H1338 C1367 0.950 . S
H1339 C1368 0.950 . S
H1340 C1370 0.950 . S
H1341 C1371 0.950 . S
C1342 H1324 0.951 . S
C1342 C1343 1.366 . S
C1342 C1344 1.388 . S
C1343 C1342 1.366 . S
C1343 C1347 1.385 . S
C1344 H1325 0.951 . S
C1344 C1342 1.388 . S
C1344 C1345 1.366 . S
C1345 C1344 1.366 . S
C1345 C1346 1.414 . S
C1345 C1348 1.499 . S
C1346 H1326 0.950 . S
C1346 C1345 1.414 . S
C1346 C1347 1.374 . S
C1347 H1327 0.950 . S
C1347 C1343 1.385 . S
C1347 C1346 1.374 . S
C1348 C1345 1.499 . S
C1348 C1349 1.373 . S
C1348 C1350 1.389 . S
C1349 H1328 0.950 . S
C1349 C1348 1.373 . S
C1349 C1365 1.377 . S
C1350 C1348 1.389 . S
C1350 C1351 1.524 . S
C1350 C1364 1.377 . S
C1351 C1350 1.524 . S
C1351 C1352 1.397 . S
C1351 C1356 1.363 . S
C1352 H1329 0.950 . S
C1352 C1351 1.397 . S
C1352 C1353 1.334 . S
C1353 H1330 0.950 . S
C1353 C1352 1.334 . S
C1353 C1354 1.287 . S
C1354 C1353 1.287 . S
C1354 C1355 1.524 . S
C1354 H1373 0.913 . S
C1355 H1331 0.950 . S
C1355 C1354 1.524 . S
C1355 C1356 1.415 . S
C1356 H1332 0.950 . S
C1356 C1351 1.363 . S
C1356 C1355 1.415 . S
C1357 H1333 0.951 . S
C1357 C1358 1.366 . S
C1357 C1359 1.388 . S
C1358 C1357 1.366 . S
C1358 C1362 1.385 . S
C1359 H1334 0.951 . S
C1359 C1357 1.388 . S
C1359 C1360 1.366 . S
C1360 C1359 1.366 . S
C1360 C1361 1.414 . S
C1360 C1363 1.499 . S
C1361 H1335 0.950 . S
C1361 C1360 1.414 . S
C1361 C1362 1.374 . S
C1362 H1336 0.950 . S
C1362 C1358 1.385 . S
C1362 C1361 1.374 . S
C1363 C1360 1.499 . S
C1363 C1364 1.373 . S
C1363 C1365 1.389 . S
C1364 H1337 0.950 . S
C1364 C1350 1.377 . S
C1364 C1363 1.373 . S
C1365 C1349 1.377 . S
C1365 C1363 1.389 . S
C1365 C1366 1.524 . S
C1366 C1365 1.524 . S
C1366 C1367 1.397 . S
C1366 C1371 1.363 . S
C1367 H1338 0.950 . S
C1367 C1366 1.397 . S
C1367 C1368 1.334 . S
C1368 H1339 0.950 . S
C1368 C1367 1.334 . S
C1368 C1369 1.287 . S
C1369 C1368 1.287 . S
C1369 C1370 1.524 . S
C1369 H1372 0.999 . S
C1370 H1340 0.950 . S
C1370 C1369 1.524 . S
C1370 C1371 1.415 . S
C1371 H1341 0.950 . S
C1371 C1366 1.363 . S
C1371 C1370 1.415 . S
H1372 C1369 0.999 . S
H1373 C1354 0.913 . S
H1374 C1392 0.951 . S
H1375 C1394 0.951 . S
H1376 C1396 0.950 . S
H1377 C1397 0.950 . S
H1378 C1399 0.950 . S
H1379 C1402 0.950 . S
H1380 C1403 0.950 . S
H1381 C1405 0.950 . S
H1382 C1406 0.950 . S
H1383 C1407 0.951 . S
H1384 C1409 0.951 . S
H1385 C1411 0.950 . S
H1386 C1412 0.950 . S
H1387 C1414 0.950 . S
H1388 C1417 0.950 . S
H1389 C1418 0.950 . S
H1390 C1420 0.950 . S
H1391 C1421 0.950 . S
C1392 H1374 0.951 . S
C1392 C1393 1.366 . S
C1392 C1394 1.388 . S
C1393 C1392 1.366 . S
C1393 C1397 1.385 . S
C1394 H1375 0.951 . S
C1394 C1392 1.388 . S
C1394 C1395 1.366 . S
C1395 C1394 1.366 . S
C1395 C1396 1.414 . S
C1395 C1398 1.499 . S
C1396 H1376 0.950 . S
C1396 C1395 1.414 . S
C1396 C1397 1.374 . S
C1397 H1377 0.950 . S
C1397 C1393 1.385 . S
C1397 C1396 1.374 . S
C1398 C1395 1.499 . S
C1398 C1399 1.373 . S
C1398 C1400 1.389 . S
C1399 H1378 0.950 . S
C1399 C1398 1.373 . S
C1399 C1415 1.377 1_554 S
C1400 C1398 1.389 . S
C1400 C1401 1.524 . S
C1400 C1414 1.377 1_554 S
C1401 C1400 1.524 . S
C1401 C1402 1.397 . S
C1401 C1406 1.363 . S
C1402 H1379 0.950 . S
C1402 C1401 1.397 . S
C1402 C1403 1.334 . S
C1403 H1380 0.950 . S
C1403 C1402 1.334 . S
C1403 C1404 1.287 . S
C1404 C1403 1.287 . S
C1404 C1405 1.524 . S
C1404 H1423 0.913 . S
C1405 H1381 0.950 . S
C1405 C1404 1.524 . S
C1405 C1406 1.415 . S
C1406 H1382 0.950 . S
C1406 C1401 1.363 . S
C1406 C1405 1.415 . S
C1407 H1383 0.951 . S
C1407 C1408 1.366 . S
C1407 C1409 1.388 . S
C1408 C1407 1.366 . S
C1408 C1412 1.385 . S
C1409 H1384 0.951 . S
C1409 C1407 1.388 . S
C1409 C1410 1.366 . S
C1410 C1409 1.366 . S
C1410 C1411 1.414 . S
C1410 C1413 1.499 . S
C1411 H1385 0.950 . S
C1411 C1410 1.414 . S
C1411 C1412 1.374 . S
C1412 H1386 0.950 . S
C1412 C1408 1.385 . S
C1412 C1411 1.374 . S
C1413 C1410 1.499 . S
C1413 C1414 1.373 . S
C1413 C1415 1.389 . S
C1414 H1387 0.950 . S
C1414 C1400 1.377 1_556 S
C1414 C1413 1.373 . S
C1415 C1399 1.377 1_556 S
C1415 C1413 1.389 . S
C1415 C1416 1.524 . S
C1416 C1415 1.524 . S
C1416 C1417 1.397 . S
C1416 C1421 1.363 . S
C1417 H1388 0.950 . S
C1417 C1416 1.397 . S
C1417 C1418 1.334 . S
C1418 H1389 0.950 . S
C1418 C1417 1.334 . S
C1418 C1419 1.287 . S
C1419 C1418 1.287 . S
C1419 C1420 1.524 . S
C1419 H1422 0.999 . S
C1420 H1390 0.950 . S
C1420 C1419 1.524 . S
C1420 C1421 1.415 . S
C1421 H1391 0.950 . S
C1421 C1416 1.363 . S
C1421 C1420 1.415 . S
H1422 C1419 0.999 . S
H1423 C1404 0.913 . S
H1424 C1442 0.951 . S
H1425 C1444 0.951 . S
H1426 C1446 0.950 . S
H1427 C1447 0.950 . S
H1428 C1449 0.950 . S
H1429 C1452 0.950 . S
H1430 C1453 0.950 . S
H1431 C1455 0.950 . S
H1432 C1456 0.950 . S
H1433 C1457 0.951 . S
H1434 C1459 0.951 . S
H1435 C1461 0.950 . S
H1436 C1462 0.950 . S
H1437 C1464 0.950 . S
H1438 C1467 0.950 . S
H1439 C1468 0.950 . S
H1440 C1470 0.950 . S
H1441 C1471 0.950 . S
C1442 H1424 0.951 . S
C1442 C1443 1.366 . S
C1442 C1444 1.388 . S
C1443 C1442 1.366 . S
C1443 C1447 1.385 . S
C1444 H1425 0.951 . S
C1444 C1442 1.388 . S
C1444 C1445 1.366 . S
C1445 C1444 1.366 . S
C1445 C1446 1.414 . S
C1445 C1448 1.499 . S
C1446 H1426 0.950 . S
C1446 C1445 1.414 . S
C1446 C1447 1.374 . S
C1447 H1427 0.950 . S
C1447 C1443 1.385 . S
C1447 C1446 1.374 . S
C1448 C1445 1.499 . S
C1448 C1449 1.373 . S
C1448 C1450 1.389 . S
C1449 H1428 0.950 . S
C1449 C1448 1.373 . S
C1449 C1465 1.377 . S
C1450 C1448 1.389 . S
C1450 C1451 1.524 . S
C1450 C1464 1.377 . S
C1451 C1450 1.524 . S
C1451 C1452 1.397 . S
C1451 C1456 1.363 . S
C1452 H1429 0.950 . S
C1452 C1451 1.397 . S
C1452 C1453 1.334 . S
C1453 H1430 0.950 . S
C1453 C1452 1.334 . S
C1453 C1454 1.287 . S
C1454 C1453 1.287 . S
C1454 C1455 1.524 . S
C1454 H1473 0.913 . S
C1455 H1431 0.950 . S
C1455 C1454 1.524 . S
C1455 C1456 1.415 . S
C1456 H1432 0.950 . S
C1456 C1451 1.363 . S
C1456 C1455 1.415 . S
C1457 H1433 0.951 . S
C1457 C1458 1.366 . S
C1457 C1459 1.388 . S
C1458 C1457 1.366 . S
C1458 C1462 1.385 . S
C1459 H1434 0.951 . S
C1459 C1457 1.388 . S
C1459 C1460 1.366 . S
C1460 C1459 1.366 . S
C1460 C1461 1.414 . S
C1460 C1463 1.499 . S
C1461 H1435 0.950 . S
C1461 C1460 1.414 . S
C1461 C1462 1.374 . S
C1462 H1436 0.950 . S
C1462 C1458 1.385 . S
C1462 C1461 1.374 . S
C1463 C1460 1.499 . S
C1463 C1464 1.373 . S
C1463 C1465 1.389 . S
C1464 H1437 0.950 . S
C1464 C1450 1.377 . S
C1464 C1463 1.373 . S
C1465 C1449 1.377 . S
C1465 C1463 1.389 . S
C1465 C1466 1.524 . S
C1466 C1465 1.524 . S
C1466 C1467 1.397 . S
C1466 C1471 1.363 . S
C1467 H1438 0.950 . S
C1467 C1466 1.397 . S
C1467 C1468 1.334 . S
C1468 H1439 0.950 . S
C1468 C1467 1.334 . S
C1468 C1469 1.287 . S
C1469 C1468 1.287 . S
C1469 C1470 1.524 . S
C1469 H1472 0.999 . S
C1470 H1440 0.950 . S
C1470 C1469 1.524 . S
C1470 C1471 1.415 . S
C1471 H1441 0.950 . S
C1471 C1466 1.363 . S
C1471 C1470 1.415 . S
H1472 C1469 0.999 . S
H1473 C1454 0.913 . S
H1474 C1492 0.951 . S
H1475 C1494 0.951 . S
H1476 C1496 0.950 . S
H1477 C1497 0.950 . S
H1478 C1499 0.950 . S
H1479 C1502 0.950 . S
H1480 C1503 0.950 . S
H1481 C1505 0.950 . S
H1482 C1506 0.950 . S
H1483 C1507 0.951 . S
H1484 C1509 0.951 . S
H1485 C1511 0.950 . S
H1486 C1512 0.950 . S
H1487 C1514 0.950 . S
H1488 C1517 0.950 . S
H1489 C1518 0.950 . S
H1490 C1520 0.950 . S
H1491 C1521 0.950 . S
C1492 H1474 0.951 . S
C1492 C1493 1.366 . S
C1492 C1494 1.388 . S
C1493 C1492 1.366 . S
C1493 C1497 1.385 . S
C1494 H1475 0.951 . S
C1494 C1492 1.388 . S
C1494 C1495 1.366 . S
C1495 C1494 1.366 . S
C1495 C1496 1.414 . S
C1495 C1498 1.499 . S
C1496 H1476 0.950 . S
C1496 C1495 1.414 . S
C1496 C1497 1.374 . S
C1497 H1477 0.950 . S
C1497 C1493 1.385 . S
C1497 C1496 1.374 . S
C1498 C1495 1.499 . S
C1498 C1499 1.373 . S
C1498 C1500 1.389 . S
C1499 H1478 0.950 . S
C1499 C1498 1.373 . S
C1499 C1515 1.377 . S
C1500 C1498 1.389 . S
C1500 C1501 1.524 . S
C1500 C1514 1.377 . S
C1501 C1500 1.524 . S
C1501 C1502 1.397 . S
C1501 C1506 1.363 . S
C1502 H1479 0.950 . S
C1502 C1501 1.397 . S
C1502 C1503 1.334 . S
C1503 H1480 0.950 . S
C1503 C1502 1.334 . S
C1503 C1504 1.287 . S
C1504 C1503 1.287 . S
C1504 C1505 1.524 . S
C1504 H1523 0.913 . S
C1505 H1481 0.950 . S
C1505 C1504 1.524 . S
C1505 C1506 1.415 . S
C1506 H1482 0.950 . S
C1506 C1501 1.363 . S
C1506 C1505 1.415 . S
C1507 H1483 0.951 . S
C1507 C1508 1.366 . S
C1507 C1509 1.388 . S
C1508 C1507 1.366 . S
C1508 C1512 1.385 . S
C1509 H1484 0.951 . S
C1509 C1507 1.388 . S
C1509 C1510 1.366 . S
C1510 C1509 1.366 . S
C1510 C1511 1.414 . S
C1510 C1513 1.499 . S
C1511 H1485 0.950 . S
C1511 C1510 1.414 . S
C1511 C1512 1.374 . S
C1512 H1486 0.950 . S
C1512 C1508 1.385 . S
C1512 C1511 1.374 . S
C1513 C1510 1.499 . S
C1513 C1514 1.373 . S
C1513 C1515 1.389 . S
C1514 H1487 0.950 . S
C1514 C1500 1.377 . S
C1514 C1513 1.373 . S
C1515 C1499 1.377 . S
C1515 C1513 1.389 . S
C1515 C1516 1.524 . S
C1516 C1515 1.524 . S
C1516 C1517 1.397 . S
C1516 C1521 1.363 . S
C1517 H1488 0.950 . S
C1517 C1516 1.397 . S
C1517 C1518 1.334 . S
C1518 H1489 0.950 . S
C1518 C1517 1.334 . S
C1518 C1519 1.287 . S
C1519 C1518 1.287 . S
C1519 C1520 1.524 . S
C1519 H1522 0.999 . S
C1520 H1490 0.950 . S
C1520 C1519 1.524 . S
C1520 C1521 1.415 . S
C1521 H1491 0.950 . S
C1521 C1516 1.363 . S
C1521 C1520 1.415 . S
H1522 C1519 0.999 . S
H1523 C1504 0.913 . S
H1524 C1542 0.951 . S
H1525 C1544 0.951 . S
H1526 C1546 0.950 . S
H1527 C1547 0.950 . S
H1528 C1549 0.950 . S
H1529 C1552 0.950 . S
H1530 C1553 0.950 . S
H1531 C1555 0.950 . S
H1532 C1556 0.950 . S
H1533 C1557 0.951 . S
H1534 C1559 0.951 . S
H1535 C1561 0.950 . S
H1536 C1562 0.950 . S
H1537 C1564 0.950 . S
H1538 C1567 0.950 . S
H1539 C1568 0.950 . S
H1540 C1570 0.950 . S
H1541 C1571 0.950 . S
C1542 H1524 0.951 . S
C1542 C1543 1.366 . S
C1542 C1544 1.388 . S
C1543 C1542 1.366 . S
C1543 C1547 1.385 . S
C1544 H1525 0.951 . S
C1544 C1542 1.388 . S
C1544 C1545 1.366 . S
C1545 C1544 1.366 . S
C1545 C1546 1.414 . S
C1545 C1548 1.499 . S
C1546 H1526 0.950 . S
C1546 C1545 1.414 . S
C1546 C1547 1.374 . S
C1547 H1527 0.950 . S
C1547 C1543 1.385 . S
C1547 C1546 1.374 . S
C1548 C1545 1.499 . S
C1548 C1549 1.373 . S
C1548 C1550 1.389 . S
C1549 H1528 0.950 . S
C1549 C1548 1.373 . S
C1549 C1565 1.377 . S
C1550 C1548 1.389 . S
C1550 C1551 1.524 . S
C1550 C1564 1.377 . S
C1551 C1550 1.524 . S
C1551 C1552 1.397 . S
C1551 C1556 1.363 . S
C1552 H1529 0.950 . S
C1552 C1551 1.397 . S
C1552 C1553 1.334 . S
C1553 H1530 0.950 . S
C1553 C1552 1.334 . S
C1553 C1554 1.287 . S
C1554 C1553 1.287 . S
C1554 C1555 1.524 . S
C1554 H1573 0.913 . S
C1555 H1531 0.950 . S
C1555 C1554 1.524 . S
C1555 C1556 1.415 . S
C1556 H1532 0.950 . S
C1556 C1551 1.363 . S
C1556 C1555 1.415 . S
C1557 H1533 0.951 . S
C1557 C1558 1.366 . S
C1557 C1559 1.388 . S
C1558 C1557 1.366 . S
C1558 C1562 1.385 . S
C1559 H1534 0.951 . S
C1559 C1557 1.388 . S
C1559 C1560 1.366 . S
C1560 C1559 1.366 . S
C1560 C1561 1.414 . S
C1560 C1563 1.499 . S
C1561 H1535 0.950 . S
C1561 C1560 1.414 . S
C1561 C1562 1.374 . S
C1562 H1536 0.950 . S
C1562 C1558 1.385 . S
C1562 C1561 1.374 . S
C1563 C1560 1.499 . S
C1563 C1564 1.373 . S
C1563 C1565 1.389 . S
C1564 H1537 0.950 . S
C1564 C1550 1.377 . S
C1564 C1563 1.373 . S
C1565 C1549 1.377 . S
C1565 C1563 1.389 . S
C1565 C1566 1.524 . S
C1566 C1565 1.524 . S
C1566 C1567 1.397 . S
C1566 C1571 1.363 . S
C1567 H1538 0.950 . S
C1567 C1566 1.397 . S
C1567 C1568 1.334 . S
C1568 H1539 0.950 . S
C1568 C1567 1.334 . S
C1568 C1569 1.287 . S
C1569 C1568 1.287 . S
C1569 C1570 1.524 . S
C1569 H1572 0.999 . S
C1570 H1540 0.950 . S
C1570 C1569 1.524 . S
C1570 C1571 1.415 . S
C1571 H1541 0.950 . S
C1571 C1566 1.363 . S
C1571 C1570 1.415 . S
H1572 C1569 0.999 . S
H1573 C1554 0.913 . S
H1574 C1592 0.951 . S
H1575 C1594 0.951 . S
H1576 C1596 0.950 . S
H1577 C1597 0.950 . S
H1578 C1599 0.950 . S
H1579 C1602 0.950 . S
H1580 C1603 0.950 . S
H1581 C1605 0.950 . S
H1582 C1606 0.950 . S
H1583 C1607 0.951 . S
H1584 C1609 0.951 . S
H1585 C1611 0.950 . S
H1586 C1612 0.950 . S
H1587 C1614 0.950 . S
H1588 C1617 0.950 . S
H1589 C1618 0.950 . S
H1590 C1620 0.950 . S
H1591 C1621 0.950 . S
C1592 H1574 0.951 . S
C1592 C1593 1.366 . S
C1592 C1594 1.388 . S
C1593 C1592 1.366 . S
C1593 C1597 1.385 . S
C1594 H1575 0.951 . S
C1594 C1592 1.388 . S
C1594 C1595 1.366 . S
C1595 C1594 1.366 . S
C1595 C1596 1.414 . S
C1595 C1598 1.499 . S
C1596 H1576 0.950 . S
C1596 C1595 1.414 . S
C1596 C1597 1.374 . S
C1597 H1577 0.950 . S
C1597 C1593 1.385 . S
C1597 C1596 1.374 . S
C1598 C1595 1.499 . S
C1598 C1599 1.373 . S
C1598 C1600 1.389 . S
C1599 H1578 0.950 . S
C1599 C1598 1.373 . S
C1599 C1615 1.377 . S
C1600 C1598 1.389 . S
C1600 C1601 1.524 . S
C1600 C1614 1.377 . S
C1601 C1600 1.524 . S
C1601 C1602 1.397 . S
C1601 C1606 1.363 . S
C1602 H1579 0.950 . S
C1602 C1601 1.397 . S
C1602 C1603 1.334 . S
C1603 H1580 0.950 . S
C1603 C1602 1.334 . S
C1603 C1604 1.287 . S
C1604 C1603 1.287 . S
C1604 C1605 1.524 . S
C1604 H1623 0.913 . S
C1605 H1581 0.950 . S
C1605 C1604 1.524 . S
C1605 C1606 1.415 . S
C1606 H1582 0.950 . S
C1606 C1601 1.363 . S
C1606 C1605 1.415 . S
C1607 H1583 0.951 . S
C1607 C1608 1.366 . S
C1607 C1609 1.388 . S
C1608 C1607 1.366 . S
C1608 C1612 1.385 . S
C1609 H1584 0.951 . S
C1609 C1607 1.388 . S
C1609 C1610 1.366 . S
C1610 C1609 1.366 . S
C1610 C1611 1.414 . S
C1610 C1613 1.499 . S
C1611 H1585 0.950 . S
C1611 C1610 1.414 . S
C1611 C1612 1.374 . S
C1612 H1586 0.950 . S
C1612 C1608 1.385 . S
C1612 C1611 1.374 . S
C1613 C1610 1.499 . S
C1613 C1614 1.373 . S
C1613 C1615 1.389 . S
C1614 H1587 0.950 . S
C1614 C1600 1.377 . S
C1614 C1613 1.373 . S
C1615 C1599 1.377 . S
C1615 C1613 1.389 . S
C1615 C1616 1.524 . S
C1616 C1615 1.524 . S
C1616 C1617 1.397 . S
C1616 C1621 1.363 . S
C1617 H1588 0.950 . S
C1617 C1616 1.397 . S
C1617 C1618 1.334 . S
C1618 H1589 0.950 . S
C1618 C1617 1.334 . S
C1618 C1619 1.287 . S
C1619 C1618 1.287 . S
C1619 C1620 1.524 . S
C1619 H1622 0.999 . S
C1620 H1590 0.950 . S
C1620 C1619 1.524 . S
C1620 C1621 1.415 . S
C1621 H1591 0.950 . S
C1621 C1616 1.363 . S
C1621 C1620 1.415 . S
H1622 C1619 0.999 . S
H1623 C1604 0.913 . S
H1624 C1642 0.951 . S
H1625 C1644 0.951 . S
H1626 C1646 0.950 . S
H1627 C1647 0.950 . S
H1628 C1649 0.950 . S
H1629 C1652 0.950 . S
H1630 C1653 0.950 . S
H1631 C1655 0.950 . S
H1632 C1656 0.950 . S
H1633 C1657 0.951 . S
H1634 C1659 0.951 . S
H1635 C1661 0.950 . S
H1636 C1662 0.950 . S
H1637 C1664 0.950 . S
H1638 C1667 0.950 . S
H1639 C1668 0.950 . S
H1640 C1670 0.950 . S
H1641 C1671 0.950 . S
C1642 H1624 0.951 . S
C1642 C1643 1.366 . S
C1642 C1644 1.388 . S
C1643 C1642 1.366 . S
C1643 C1647 1.385 . S
C1644 H1625 0.951 . S
C1644 C1642 1.388 . S
C1644 C1645 1.366 . S
C1645 C1644 1.366 . S
C1645 C1646 1.414 . S
C1645 C1648 1.499 . S
C1646 H1626 0.950 . S
C1646 C1645 1.414 . S
C1646 C1647 1.374 . S
C1647 H1627 0.950 . S
C1647 C1643 1.385 . S
C1647 C1646 1.374 . S
C1648 C1645 1.499 . S
C1648 C1649 1.373 . S
C1648 C1650 1.389 . S
C1649 H1628 0.950 . S
C1649 C1648 1.373 . S
C1649 C1665 1.377 . S
C1650 C1648 1.389 . S
C1650 C1651 1.524 . S
C1650 C1664 1.377 . S
C1651 C1650 1.524 . S
C1651 C1652 1.397 . S
C1651 C1656 1.363 . S
C1652 H1629 0.950 . S
C1652 C1651 1.397 . S
C1652 C1653 1.334 . S
C1653 H1630 0.950 . S
C1653 C1652 1.334 . S
C1653 C1654 1.287 . S
C1654 C1653 1.287 . S
C1654 C1655 1.524 . S
C1654 H1673 0.913 . S
C1655 H1631 0.950 . S
C1655 C1654 1.524 . S
C1655 C1656 1.415 . S
C1656 H1632 0.950 . S
C1656 C1651 1.363 . S
C1656 C1655 1.415 . S
C1657 H1633 0.951 . S
C1657 C1658 1.366 . S
C1657 C1659 1.388 . S
C1658 C1657 1.366 . S
C1658 C1662 1.385 . S
C1659 H1634 0.951 . S
C1659 C1657 1.388 . S
C1659 C1660 1.366 . S
C1660 C1659 1.366 . S
C1660 C1661 1.414 . S
C1660 C1663 1.499 . S
C1661 H1635 0.950 . S
C1661 C1660 1.414 . S
C1661 C1662 1.374 . S
C1662 H1636 0.950 . S
C1662 C1658 1.385 . S
C1662 C1661 1.374 . S
C1663 C1660 1.499 . S
C1663 C1664 1.373 . S
C1663 C1665 1.389 . S
C1664 H1637 0.950 . S
C1664 C1650 1.377 . S
C1664 C1663 1.373 . S
C1665 C1649 1.377 . S
C1665 C1663 1.389 . S
C1665 C1666 1.524 . S
C1666 C1665 1.524 . S
C1666 C1667 1.397 . S
C1666 C1671 1.363 . S
C1667 H1638 0.950 . S
C1667 C1666 1.397 . S
C1667 C1668 1.334 . S
C1668 H1639 0.950 . S
C1668 C1667 1.334 . S
C1668 C1669 1.287 . S
C1669 C1668 1.287 . S
C1669 C1670 1.524 . S
C1669 H1672 0.999 . S
C1670 H1640 0.950 . S
C1670 C1669 1.524 . S
C1670 C1671 1.415 . S
C1671 H1641 0.950 . S
C1671 C1666 1.363 . S
C1671 C1670 1.415 . S
H1672 C1669 0.999 . S
H1673 C1654 0.913 . S
H1674 C1692 0.951 . S
H1675 C1694 0.951 . S
H1676 C1696 0.950 . S
H1677 C1697 0.950 . S
H1678 C1699 0.950 . S
H1679 C1702 0.950 . S
H1680 C1703 0.950 . S
H1681 C1705 0.950 . S
H1682 C1706 0.950 . S
H1683 C1707 0.951 . S
H1684 C1709 0.951 . S
H1685 C1711 0.950 . S
H1686 C1712 0.950 . S
H1687 C1714 0.950 . S
H1688 C1717 0.950 . S
H1689 C1718 0.950 . S
H1690 C1720 0.950 . S
H1691 C1721 0.950 . S
C1692 H1674 0.951 . S
C1692 C1693 1.366 . S
C1692 C1694 1.388 . S
C1693 C1692 1.366 . S
C1693 C1697 1.385 . S
C1694 H1675 0.951 . S
C1694 C1692 1.388 . S
C1694 C1695 1.366 . S
C1695 C1694 1.366 . S
C1695 C1696 1.414 . S
C1695 C1698 1.499 . S
C1696 H1676 0.950 . S
C1696 C1695 1.414 . S
C1696 C1697 1.374 . S
C1697 H1677 0.950 . S
C1697 C1693 1.385 . S
C1697 C1696 1.374 . S
C1698 C1695 1.499 . S
C1698 C1699 1.373 . S
C1698 C1700 1.389 . S
C1699 H1678 0.950 . S
C1699 C1698 1.373 . S
C1699 C1715 1.377 . S
C1700 C1698 1.389 . S
C1700 C1701 1.524 . S
C1700 C1714 1.377 . S
C1701 C1700 1.524 . S
C1701 C1702 1.397 . S
C1701 C1706 1.363 . S
C1702 H1679 0.950 . S
C1702 C1701 1.397 . S
C1702 C1703 1.334 . S
C1703 H1680 0.950 . S
C1703 C1702 1.334 . S
C1703 C1704 1.287 . S
C1704 C1703 1.287 . S
C1704 C1705 1.524 . S
C1704 H1723 0.913 . S
C1705 H1681 0.950 . S
C1705 C1704 1.524 . S
C1705 C1706 1.415 . S
C1706 H1682 0.950 . S
C1706 C1701 1.363 . S
C1706 C1705 1.415 . S
C1707 H1683 0.951 . S
C1707 C1708 1.366 . S
C1707 C1709 1.388 . S
C1708 C1707 1.366 . S
C1708 C1712 1.385 . S
C1709 H1684 0.951 . S
C1709 C1707 1.388 . S
C1709 C1710 1.366 . S
C1710 C1709 1.366 . S
C1710 C1711 1.414 . S
C1710 C1713 1.499 . S
C1711 H1685 0.950 . S
C1711 C1710 1.414 . S
C1711 C1712 1.374 . S
C1712 H1686 0.950 . S
C1712 C1708 1.385 . S
C1712 C1711 1.374 . S
C1713 C1710 1.499 . S
C1713 C1714 1.373 . S
C1713 C1715 1.389 . S
C1714 H1687 0.950 . S
C1714 C1700 1.377 . S
C1714 C1713 1.373 . S
C1715 C1699 1.377 . S
C1715 C1713 1.389 . S
C1715 C1716 1.524 . S
C1716 C1715 1.524 . S
C1716 C1717 1.397 . S
C1716 C1721 1.363 . S
C1717 H1688 0.950 . S
C1717 C1716 1.397 . S
C1717 C1718 1.334 . S
C1718 H1689 0.950 . S
C1718 C1717 1.334 . S
C1718 C1719 1.287 . S
C1719 C1718 1.287 . S
C1719 C1720 1.524 . S
C1719 H1722 0.999 . S
C1720 H1690 0.950 . S
C1720 C1719 1.524 . S
C1720 C1721 1.415 . S
C1721 H1691 0.950 . S
C1721 C1716 1.363 . S
C1721 C1720 1.415 . S
H1722 C1719 0.999 . S
H1723 C1704 0.913 . S
H1724 C1742 0.951 . S
H1725 C1744 0.951 . S
H1726 C1746 0.950 . S
H1727 C1747 0.950 . S
H1728 C1749 0.950 . S
H1729 C1752 0.950 . S
H1730 C1753 0.950 . S
H1731 C1755 0.950 . S
H1732 C1756 0.950 . S
H1733 C1757 0.951 . S
H1734 C1759 0.951 . S
H1735 C1761 0.950 . S
H1736 C1762 0.950 . S
H1737 C1764 0.950 . S
H1738 C1767 0.950 . S
H1739 C1768 0.950 . S
H1740 C1770 0.950 . S
H1741 C1771 0.950 . S
C1742 H1724 0.951 . S
C1742 C1743 1.366 . S
C1742 C1744 1.388 . S
C1743 C1742 1.366 . S
C1743 C1747 1.385 . S
C1744 H1725 0.951 . S
C1744 C1742 1.388 . S
C1744 C1745 1.366 . S
C1745 C1744 1.366 . S
C1745 C1746 1.414 . S
C1745 C1748 1.499 . S
C1746 H1726 0.950 . S
C1746 C1745 1.414 . S
C1746 C1747 1.374 . S
C1747 H1727 0.950 . S
C1747 C1743 1.385 . S
C1747 C1746 1.374 . S
C1748 C1745 1.499 . S
C1748 C1749 1.373 . S
C1748 C1750 1.389 . S
C1749 H1728 0.950 . S
C1749 C1748 1.373 . S
C1749 C1765 1.377 . S
C1750 C1748 1.389 . S
C1750 C1751 1.524 . S
C1750 C1764 1.377 . S
C1751 C1750 1.524 . S
C1751 C1752 1.397 . S
C1751 C1756 1.363 . S
C1752 H1729 0.950 . S
C1752 C1751 1.397 . S
C1752 C1753 1.334 . S
C1753 H1730 0.950 . S
C1753 C1752 1.334 . S
C1753 C1754 1.287 . S
C1754 C1753 1.287 . S
C1754 C1755 1.524 . S
C1754 H1773 0.913 . S
C1755 H1731 0.950 . S
C1755 C1754 1.524 . S
C1755 C1756 1.415 . S
C1756 H1732 0.950 . S
C1756 C1751 1.363 . S
C1756 C1755 1.415 . S
C1757 H1733 0.951 . S
C1757 C1758 1.366 . S
C1757 C1759 1.388 . S
C1758 C1757 1.366 . S
C1758 C1762 1.385 . S
C1759 H1734 0.951 . S
C1759 C1757 1.388 . S
C1759 C1760 1.366 . S
C1760 C1759 1.366 . S
C1760 C1761 1.414 . S
C1760 C1763 1.499 . S
C1761 H1735 0.950 . S
C1761 C1760 1.414 . S
C1761 C1762 1.374 . S
C1762 H1736 0.950 . S
C1762 C1758 1.385 . S
C1762 C1761 1.374 . S
C1763 C1760 1.499 . S
C1763 C1764 1.373 . S
C1763 C1765 1.389 . S
C1764 H1737 0.950 . S
C1764 C1750 1.377 . S
C1764 C1763 1.373 . S
C1765 C1749 1.377 . S
C1765 C1763 1.389 . S
C1765 C1766 1.524 . S
C1766 C1765 1.524 . S
C1766 C1767 1.397 . S
C1766 C1771 1.363 . S
C1767 H1738 0.950 . S
C1767 C1766 1.397 . S
C1767 C1768 1.334 . S
C1768 H1739 0.950 . S
C1768 C1767 1.334 . S
C1768 C1769 1.287 . S
C1769 C1768 1.287 . S
C1769 C1770 1.524 . S
C1769 H1772 0.999 . S
C1770 H1740 0.950 . S
C1770 C1769 1.524 . S
C1770 C1771 1.415 . S
C1771 H1741 0.950 . S
C1771 C1766 1.363 . S
C1771 C1770 1.415 . S
H1772 C1769 0.999 . S
H1773 C1754 0.913 . S
H1774 C1792 0.951 . S
H1775 C1794 0.951 . S
H1776 C1796 0.950 . S
H1777 C1797 0.950 . S
H1778 C1799 0.950 . S
H1779 C1802 0.950 . S
H1780 C1803 0.950 . S
H1781 C1805 0.950 . S
H1782 C1806 0.950 . S
H1783 C1807 0.951 . S
H1784 C1809 0.951 . S
H1785 C1811 0.950 . S
H1786 C1812 0.950 . S
H1787 C1814 0.950 . S
H1788 C1817 0.950 . S
H1789 C1818 0.950 . S
H1790 C1820 0.950 . S
H1791 C1821 0.950 . S
C1792 H1774 0.951 . S
C1792 C1793 1.366 . S
C1792 C1794 1.388 . S
C1793 C1792 1.366 . S
C1793 C1797 1.385 . S
C1794 H1775 0.951 . S
C1794 C1792 1.388 . S
C1794 C1795 1.366 . S
C1795 C1794 1.366 . S
C1795 C1796 1.414 . S
C1795 C1798 1.499 . S
C1796 H1776 0.950 . S
C1796 C1795 1.414 . S
C1796 C1797 1.374 . S
C1797 H1777 0.950 . S
C1797 C1793 1.385 . S
C1797 C1796 1.374 . S
C1798 C1795 1.499 . S
C1798 C1799 1.373 . S
C1798 C1800 1.389 . S
C1799 H1778 0.950 . S
C1799 C1798 1.373 . S
C1799 C1815 1.377 . S
C1800 C1798 1.389 . S
C1800 C1801 1.524 . S
C1800 C1814 1.377 . S
C1801 C1800 1.524 . S
C1801 C1802 1.397 . S
C1801 C1806 1.363 . S
C1802 H1779 0.950 . S
C1802 C1801 1.397 . S
C1802 C1803 1.334 . S
C1803 H1780 0.950 . S
C1803 C1802 1.334 . S
C1803 C1804 1.287 . S
C1804 C1803 1.287 . S
C1804 C1805 1.524 . S
C1804 H1823 0.913 . S
C1805 H1781 0.950 . S
C1805 C1804 1.524 . S
C1805 C1806 1.415 . S
C1806 H1782 0.950 . S
C1806 C1801 1.363 . S
C1806 C1805 1.415 . S
C1807 H1783 0.951 . S
C1807 C1808 1.366 . S
C1807 C1809 1.388 . S
C1808 C1807 1.366 . S
C1808 C1812 1.385 . S
C1809 H1784 0.951 . S
C1809 C1807 1.388 . S
C1809 C1810 1.366 . S
C1810 C1809 1.366 . S
C1810 C1811 1.414 . S
C1810 C1813 1.499 . S
C1811 H1785 0.950 . S
C1811 C1810 1.414 . S
C1811 C1812 1.374 . S
C1812 H1786 0.950 . S
C1812 C1808 1.385 . S
C1812 C1811 1.374 . S
C1813 C1810 1.499 . S
C1813 C1814 1.373 . S
C1813 C1815 1.389 . S
C1814 H1787 0.950 . S
C1814 C1800 1.377 . S
C1814 C1813 1.373 . S
C1815 C1799 1.377 . S
C1815 C1813 1.389 . S
C1815 C1816 1.524 . S
C1816 C1815 1.524 . S
C1816 C1817 1.397 . S
C1816 C1821 1.363 . S
C1817 H1788 0.950 . S
C1817 C1816 1.397 . S
C1817 C1818 1.334 . S
C1818 H1789 0.950 . S
C1818 C1817 1.334 . S
C1818 C1819 1.287 . S
C1819 C1818 1.287 . S
C1819 C1820 1.524 . S
C1819 H1822 0.999 . S
C1820 H1790 0.950 . S
C1820 C1819 1.524 . S
C1820 C1821 1.415 . S
C1821 H1791 0.950 . S
C1821 C1816 1.363 . S
C1821 C1820 1.415 . S
H1822 C1819 0.999 . S
H1823 C1804 0.913 . S
C243 C9 1.208 . S
C258 C37 1.207 . S
C293 C51 1.206 . S
C308 C23 1.206 . S
C343 C65 1.206 . S
C358 C93 1.206 . S
C393 C107 1.207 . S
C408 C79 1.207 . S
C443 C121 1.207 . S
C458 C149 1.206 . S
C493 C163 1.207 . S
C508 C135 1.206 . S
C543 C177 1.207 . S
C558 C205 1.207 . S
C593 C219 1.207 . S
C608 C191 1.206 . S
C643 C63 1.321 . S
C658 C7 1.320 . S
C693 C21 1.321 . S
C708 C77 1.321 . S
C743 C35 1.321 . S
C758 C91 1.321 . S
C793 C105 1.320 . S
C808 C49 1.321 . S
C843 C119 1.321 . S
C858 C175 1.321 . S
C893 C133 1.321 . S
C908 C189 1.321 . S
C943 C147 1.320 . S
C958 C203 1.321 . S
C993 C161 1.321 . S
C1008 C217 1.321 . S
C1043 C148 1.110 . S
C1058 C8 1.109 . S
C1093 C162 1.110 . S
C1108 C22 1.109 . S
C1143 C36 1.110 . S
C1158 C120 1.109 . S
C1193 C50 1.110 . S
C1208 C134 1.109 . S
C1243 C64 1.110 . S
C1258 C204 1.109 . S
C1293 C78 1.110 . S
C1308 C218 1.109 . S
C1343 C92 1.109 . S
C1358 C176 1.110 . S
C1393 C190 1.109 . S
C1408 C106 1.110 . S
C1443 C6 1.374 . S
C1458 C216 1.374 . S
C1493 C174 1.374 . S
C1508 C20 1.374 . S
C1543 C34 1.374 . S
C1558 C188 1.374 . S
C1593 C202 1.374 . S
C1608 C48 1.374 . S
C1643 C132 1.374 . S
C1658 C62 1.374 . S
C1693 C76 1.374 . S
C1708 C146 1.374 . S
C1743 C160 1.374 . S
C1758 C90 1.374 . S
C1793 C118 1.374 . S
C1808 C104 1.374 . S
