# Generated by pormake.
# Topology snp, (6)-cn, num edge types: 1
# Building blocks:
#     Node 0, Type 0, BuildingBlock: PAMTOO_clean_sbu_0, # of connection points: 6
#     Node 1, Type 0, BuildingBlock: PAMTOO_clean_sbu_0, # of connection points: 6
#     Node 2, Type 0, BuildingBlock: PAMTOO_clean_sbu_0, # of connection points: 6
#     Node 3, Type 0, BuildingBlock: PAMTOO_clean_sbu_0, # of connection points: 6
#     Edge 4, Type (0, 0), BuildingBlock: FUNLAD_clean_linker_1, # of connection points: 2
#     Edge 5, Type (0, 0), BuildingBlock: FUNLAD_clean_linker_1, # of connection points: 2
#     Edge 6, Type (0, 0), BuildingBlock: FUNLAD_clean_linker_1, # of connection points: 2
#     Edge 7, Type (0, 0), BuildingBlock: FUNLAD_clean_linker_1, # of connection points: 2
#     Edge 8, Type (0, 0), BuildingBlock: FUNLAD_clean_linker_1, # of connection points: 2
#     Edge 9, Type (0, 0), BuildingBlock: FUNLAD_clean_linker_1, # of connection points: 2
#     Edge 10, Type (0, 0), BuildingBlock: FUNLAD_clean_linker_1, # of connection points: 2
#     Edge 11, Type (0, 0), BuildingBlock: FUNLAD_clean_linker_1, # of connection points: 2
#     Edge 12, Type (0, 0), BuildingBlock: FUNLAD_clean_linker_1, # of connection points: 2
#     Edge 13, Type (0, 0), BuildingBlock: FUNLAD_clean_linker_1, # of connection points: 2
#     Edge 14, Type (0, 0), BuildingBlock: FUNLAD_clean_linker_1, # of connection points: 2
#     Edge 15, Type (0, 0), BuildingBlock: FUNLAD_clean_linker_1, # of connection points: 2
# Relax obj value: 0.757
# Max RMSD: 0.188
# Mean RMSD: 0.188
data_MOF--net-snp--node1-PAMTOO_clean_sbu_0--edge1-FUNLAD_clean_linker_1
_symmetry_space_group_name_H-M    P1
_symmetry_Int_Tables_number       1
_symmetry_cell_setting            triclinic
loop_
_symmetry_equiv_pos_as_xyz
'x, y, z'
_cell_length_a     25.938914
_cell_length_b     25.638537
_cell_length_c     29.010145
_cell_angle_alpha  93.741058
_cell_angle_beta   94.924292
_cell_angle_gamma 94.057649
loop_
_atom_site_label
_atom_site_type_symbol
_atom_site_fract_x
_atom_site_fract_y
_atom_site_fract_z
_atom_type_partial_charge
Dy0 Dy 0.23711 0.95192 0.16388 0.0
Dy1 Dy 0.29194 0.07085 0.19681 0.0
C2 C 0.36171 0.97838 1.16063 0.0
O3 O 0.23714 0.95691 0.24191 0.0
O4 O 0.28197 0.03633 0.26592 0.0
O5 O 0.2337 0.86917 0.17422 0.0
O6 O 0.17523 0.89981 1.12798 0.0
O7 O 0.21355 0.06716 0.22122 0.0
O8 O 0.1756 1.00877 0.1639 0.0
O9 O 0.25576 0.07593 1.12292 0.0
O10 O 0.23652 0.98956 1.09577 0.0
O11 O 0.29232 0.15346 0.18698 0.0
O12 O 0.35168 0.12464 0.23367 0.0
C13 C 0.25789 0.99144 0.27511 0.0
O14 O 0.32072 0.94508 1.15021 0.0
O15 O 0.35859 1.02618 0.17855 0.0
C16 C 0.19871 0.81338 1.11004 0.0
C17 C 0.217 0.72939 1.04759 0.0
C18 C 0.21847 0.72276 1.09539 0.0
C19 C 0.20932 0.76451 1.12631 0.0
C20 C 0.19488 0.81929 1.06218 0.0
C21 C 0.20361 0.77754 1.0313 0.0
C22 C 0.19403 0.85791 1.14368 0.0
C23 C 0.17347 0.04966 0.19302 0.0
C24 C 0.23839 0.04017 1.08922 0.0
C25 C 0.32429 0.20802 0.25239 0.0
C26 C 0.31364 0.28717 0.32182 0.0
C27 C 0.28065 0.24084 0.31745 0.0
C28 C 0.28602 0.20149 0.28314 0.0
C29 C 0.35601 0.25485 0.2552 0.0
C30 C 0.35074 0.29438 0.28965 0.0
C31 C 0.33157 0.16584 0.21776 0.0
H32 H 0.2272 0.68587 1.10917 0.0
H33 H 0.21175 0.75901 0.16313 0.0
H34 H 0.18645 0.85643 1.04858 0.0
H35 H 0.20184 0.78363 0.99459 0.0
H36 H 0.25155 0.2343 0.34155 0.0
H37 H 0.26086 0.16565 0.28103 0.0
H38 H 0.38533 0.26053 0.23117 0.0
H39 H 0.37607 0.32989 0.29108 0.0
Dy40 Dy 0.04984 0.22945 0.7058 0.0
Dy41 Dy 0.93538 0.25278 0.73233 0.0
C42 C 1.01625 0.3458 0.72182 0.0
O43 O 0.05699 0.22116 0.78268 0.0
O44 O 0.9733 0.2289 0.80146 0.0
O45 O 0.13097 0.24205 0.72932 0.0
O46 O 0.10729 0.20208 0.66199 0.0
O47 O 0.92467 0.16713 0.72076 0.0
O48 O 1.01098 0.15162 0.72007 0.0
O49 O 0.93018 0.23768 0.65315 0.0
O50 O 1.00513 0.19952 0.63888 0.0
O51 O 0.86507 0.24781 0.76707 0.0
O52 O 0.87378 0.30148 0.7129 0.0
C53 C 1.02213 0.21884 0.81295 0.0
O54 O 0.03741 0.31405 0.69295 0.0
O55 O 0.98593 0.32612 0.75086 0.0
C56 C 0.18368 0.25816 0.66967 0.0
C57 C 0.25317 0.32273 0.62552 0.0
C58 C 0.21032 0.34352 0.64424 0.0
C59 C 0.17555 0.31135 0.66589 0.0
C60 C 0.22782 0.23788 0.65318 0.0
C61 C 0.26252 0.26998 0.63136 0.0
C62 C 0.14592 0.22366 0.69016 0.0
C63 C 0.96169 0.13531 0.72121 0.0
C64 C 0.95834 0.21155 0.62483 0.0
C65 C 0.81975 0.32448 0.77068 0.0
C66 C 0.76602 0.39187 0.82649 0.0
C67 C 0.81894 0.38552 0.83789 0.0
C68 C 0.8457 0.35209 0.81017 0.0
C69 C 0.76817 0.33335 0.75734 0.0
C70 C 0.74137 0.36672 0.78493 0.0
C71 C 0.84464 0.28451 0.74402 0.0
H72 H 0.20238 0.38398 0.64016 0.0
H73 H 0.14176 0.3277 0.67881 0.0
H74 H 0.23489 0.19706 0.65641 0.0
H75 H 0.296 0.25322 0.61821 0.0
H76 H 0.83882 0.404 0.86982 0.0
H77 H 0.88583 0.34603 0.8206 0.0
H78 H 0.74781 0.31251 0.72664 0.0
H79 H 0.70057 0.36938 0.77501 0.0
Dy80 Dy 0.89063 0.99124 0.18464 0.0
Dy81 Dy 0.82973 0.09031 1.15684 0.0
C82 C 0.76859 0.98554 1.15958 0.0
O83 O 0.89675 0.98975 1.10737 0.0
O84 O 0.87621 0.0734 1.09427 0.0
O85 O 0.91273 0.91563 1.15968 0.0
O86 O 0.92687 0.94032 0.23249 0.0
O87 O 0.90362 0.12643 0.19003 0.0
O88 O 0.95225 0.05615 0.1776 0.0
O89 O 0.83054 0.08678 0.23574 0.0
O90 O 0.90001 0.03888 0.25299 0.0
O91 O 0.81821 0.16369 1.1266 0.0
O92 O 0.75914 0.1281 0.16618 0.0
C93 C 0.89626 1.02925 1.08068 0.0
O94 O 0.80469 0.97716 0.19209 0.0
O95 O 0.78011 1.01912 1.12962 0.0
C96 C 0.89191 0.85419 0.21268 0.0
C97 C 0.82453 0.78273 0.25207 0.0
C98 C 0.80578 0.81134 0.21555 0.0
C99 C 0.83911 0.84709 0.1962 0.0
C100 C 0.91195 0.82113 0.24515 0.0
C101 C 0.87852 0.78504 0.2644 0.0
C102 C 0.92312 0.9009 0.20133 0.0
C103 C 0.94799 0.10703 0.18517 0.0
C104 C 0.86643 0.07152 0.26628 0.0
C105 C 0.73244 0.18967 1.11349 0.0
C106 C 0.66432 0.24468 1.05774 0.0
C107 C 0.68923 0.20248 1.03818 0.0
C108 C 0.72335 0.17529 1.06593 0.0
C109 C 0.70469 0.22888 1.13352 0.0
C110 C 0.67067 0.25606 1.10587 0.0
C111 C 0.77304 0.16763 1.14274 0.0
H112 H 0.76453 0.81009 0.20516 0.0
H113 H 0.82274 0.87195 0.17085 0.0
H114 H 0.95263 0.82565 0.25789 0.0
H115 H 0.89445 0.76201 0.2914 0.0
H116 H 0.68373 0.19153 1.00132 0.0
H117 H 0.74387 0.14444 1.0501 0.0
H118 H 0.71102 0.24004 0.17037 0.0
H119 H 0.65168 0.28803 1.12178 0.0
Dy120 Dy 0.17597 0.85642 0.70274 0.0
Dy121 Dy 0.05209 0.86177 0.67106 0.0
C122 C 0.09799 0.75142 0.69617 0.0
O123 O 0.17017 0.84956 0.62313 0.0
O124 O 0.08285 0.85369 0.60126 0.0
O125 O 0.2485 0.82952 0.68392 0.0
O126 O 0.24435 0.86708 0.75218 0.0
O127 O 0.09288 0.93337 0.64377 0.0
O128 O 0.17768 0.93511 0.67611 0.0
O129 O 0.05632 0.87926 0.7484 0.0
O130 O 0.14396 0.89371 0.76754 0.0
O131 O 0.98575 0.90845 0.66919 0.0
O132 O 0.97617 0.82525 0.6485 0.0
C133 C 0.13112 0.85137 0.59076 0.0
O134 O 0.14069 0.77733 0.71488 0.0
O135 O 0.06108 0.77481 0.67357 0.0
C136 C 0.29668 0.79559 0.74564 0.0
C137 C 0.33654 0.71204 0.79187 0.0
C138 C 0.29762 0.70211 0.75517 0.0
C139 C 0.27743 0.74356 0.73251 0.0
C140 C 0.33826 0.80525 0.77996 0.0
C141 C 0.35814 0.76375 0.80297 0.0
C142 C 0.27183 0.83971 0.72534 0.0
C143 C 0.14166 0.95363 0.64884 0.0
C144 C 0.09552 0.89475 0.77889 0.0
C145 C 0.91601 0.87806 0.61423 0.0
C146 C 0.84087 0.87929 0.53892 0.0
C147 C 0.89392 0.88201 0.53192 0.0
C148 C 0.9313 0.8809 0.56931 0.0
C149 C 0.86344 0.87891 0.6218 0.0
C150 C 0.82593 0.87949 0.58434 0.0
C151 C 0.95356 0.86892 0.65274 0.0
H152 H 0.28016 0.66268 0.74628 0.0
H153 H 0.24535 0.73497 0.70603 0.0
H154 H 0.35394 0.845 0.79023 0.0
H155 H 0.38865 0.7723 0.83091 0.0
H156 H 0.90639 0.88223 0.49722 0.0
H157 H 0.97188 0.88052 0.56306 0.0
H158 H 0.85125 0.87695 0.65649 0.0
H159 H 0.78542 0.87855 0.59086 0.0
H160 H 1.02987 0.12897 0.18207 0.0
C161 C 0.99189 0.14415 0.17959 0.0
H162 H 0.94594 0.204 1.15503 0.0
H163 H 0.19367 0.18788 0.18791 0.0
H164 H 0.19836 0.26243 0.2462 0.0
H165 H 0.1228 0.31487 0.25431 0.0
H166 H 0.04217 0.29387 0.20288 0.0
C167 C 0.98464 0.19076 1.16122 0.0
C168 C 1.02629 0.21497 1.13615 0.0
C169 C 0.07256 0.22978 0.16389 0.0
C170 C 0.11472 0.19831 1.16029 0.0
C171 C 0.16023 0.21054 0.19034 0.0
C172 C 0.16316 0.25289 0.22357 0.0
C173 C 0.12059 0.28265 0.22801 0.0
C174 C 0.07509 0.27078 0.19872 0.0
H175 H 0.11991 0.10898 0.20954 0.0
C176 C 0.13666 0.08811 0.18137 0.0
H177 H 0.15172 0.08518 1.11131 0.0
H178 H 0.96039 0.2137 1.05885 0.0
H179 H 0.9631 0.15572 0.98789 0.0
H180 H 1.02994 0.0918 0.98373 0.0
H181 H 0.09575 0.08722 1.04841 0.0
C182 C 0.1345 0.10604 1.13873 0.0
C183 C 0.10844 0.15369 1.12819 0.0
C184 C 0.06978 0.15231 1.09049 0.0
C185 C 1.03044 0.18754 1.09324 0.0
C186 C 0.99143 0.18777 1.05656 0.0
C187 C 0.99252 0.15464 1.01656 0.0
C188 C 1.03008 0.11841 1.0143 0.0
C189 C 0.06761 0.11607 1.05148 0.0
H190 H 0.19626 0.97953 0.59887 0.0
C191 C 0.16025 0.98799 0.61327 0.0
H192 H 0.14816 0.04786 0.56799 0.0
H193 H 0.9165 1.01927 0.63779 0.0
H194 H 0.89596 0.99913 0.55506 0.0
H195 H 0.96504 0.99995 0.50157 0.0
H196 H 0.05574 1.02132 0.53106 0.0
C197 C 0.13403 1.0268 0.59624 0.0
C198 C 0.0916 0.04674 0.6211 0.0
C199 C 0.03972 1.0341 0.60336 0.0
C200 C 1.00026 1.0334 0.6342 0.0
C201 C 0.94823 1.0205 0.6159 0.0
C202 C 0.93592 1.00897 0.56845 0.0
C203 C 0.97488 1.00917 0.53835 0.0
C204 C 1.02649 1.02114 0.55555 0.0
H205 H 0.91165 0.07167 0.74529 0.0
C206 C 0.94678 0.08005 0.72841 0.0
H207 H 0.95808 1.00024 0.72138 0.0
H208 H 0.18416 0.09289 0.6596 0.0
H209 H 0.20559 0.12218 0.74093 0.0
H210 H 0.14029 0.11414 0.79646 0.0
H211 H 0.05232 0.07415 0.77213 0.0
C212 C 0.97289 0.03947 0.71474 0.0
C213 C 1.01375 0.04459 0.68248 0.0
C214 C 0.06546 0.06229 0.69915 0.0
C215 C 0.10366 0.06635 0.66752 0.0
C216 C 0.15433 0.08785 0.68323 0.0
C217 C 0.167 0.10473 0.72951 0.0
C218 C 0.12999 0.0996 0.76098 0.0
C219 C 0.08004 0.07722 0.74652 0.0
H220 H 0.70316 0.95819 0.19848 0.0
C221 C 0.7131 0.9703 0.16495 0.0
H222 H 0.6856 0.98977 1.09853 0.0
H223 H 0.47179 0.89268 0.19147 0.0
H224 H 0.51521 0.81293 0.20126 0.0
H225 H 0.60513 0.80669 0.1811 0.0
H226 H 0.65266 0.88056 1.152 0.0
C227 C 0.67491 0.9772 1.13172 0.0
C228 C 0.61863 0.97796 1.14069 0.0
C229 C 0.59023 0.93344 1.15532 0.0
C230 C 0.53714 0.93613 0.16471 0.0
C231 C 0.51122 0.89223 0.18217 0.0
C232 C 0.5358 0.84624 0.18815 0.0
C233 C 0.58651 0.84279 0.17694 0.0
C234 C 0.61352 0.88567 1.16061 0.0
H235 H 0.41676 0.93011 1.125 0.0
C236 C 0.41404 0.96252 1.1505 0.0
H237 H 0.45424 1.02133 0.19671 0.0
H238 H 0.66054 0.07161 1.11399 0.0
H239 H 0.61514 0.14872 1.0993 0.0
H240 H 0.52214 0.15079 1.10964 0.0
H241 H 0.47368 0.07549 1.13507 0.0
C242 C 0.45778 0.98898 0.17131 0.0
C243 C 0.5115 0.98244 1.15722 0.0
C244 C 0.5393 1.02604 1.14063 0.0
C245 C 0.5928 1.0242 1.13314 0.0
C246 C 0.6196 0.0697 1.11883 0.0
C247 C 0.59415 0.11463 1.11054 0.0
C248 C 0.54176 0.11582 1.11646 0.0
C249 C 0.5145 0.07229 1.13133 0.0
H250 H 0.9912 0.42518 0.73564 0.0
C251 C 1.02029 0.40383 0.71925 0.0
H252 H 0.08615 0.41006 0.68187 0.0
H253 H 0.0598 0.62767 0.59805 0.0
H254 H 0.06225 0.56834 0.52992 0.0
H255 H 0.06131 0.47288 0.5363 0.0
H256 H 0.05836 0.43605 0.61075 0.0
C257 C 0.05722 0.4312 0.69867 0.0
C258 C 0.05778 0.49 0.69539 0.0
C259 C 0.05821 0.51127 0.65131 0.0
C260 C 0.05753 0.5666 0.64742 0.0
C261 C 0.05934 0.5862 0.60301 0.0
C262 C 0.06087 0.55257 0.56355 0.0
C263 C 0.06042 0.49883 0.56716 0.0
C264 C 0.05893 0.47821 0.6103 0.0
H265 H 0.12593 0.67832 0.72158 0.0
C266 C 0.09382 0.69377 0.70152 0.0
H267 H 1.02309 0.67362 0.66075 0.0
H268 H 0.06818 0.46612 0.78643 0.0
H269 H 0.06024 0.52458 0.85377 0.0
H270 H 0.04891 0.61839 0.84608 0.0
H271 H 0.04537 0.65417 0.77074 0.0
C272 C 0.05453 0.6596 0.68264 0.0
C273 C 0.0555 0.60126 0.6874 0.0
C274 C 0.05477 0.58006 0.73147 0.0
C275 C 0.05792 0.52501 0.73565 0.0
C276 C 0.06187 0.50646 0.78064 0.0
C277 C 0.05829 0.53988 0.81982 0.0
C278 C 0.05205 0.5927 0.81549 0.0
C279 C 0.05046 0.61279 0.77199 0.0
H280 H 0.2889 0.39738 0.60348 0.0
C281 C 0.2843 0.35511 0.59606 0.0
H282 H 0.29283 0.29201 0.54771 0.0
H283 H 0.27988 0.43453 0.38021 0.0
H284 H 0.19836 0.46423 0.40501 0.0
H285 H 0.17232 0.44772 0.48299 0.0
H286 H 0.22728 0.40272 0.53666 0.0
C287 C 0.29905 0.334 0.55627 0.0
C288 C 0.32144 0.36483 0.52041 0.0
C289 C 0.28878 0.39239 0.49043 0.0
C290 C 0.30291 0.40085 0.44518 0.0
C291 C 0.26981 0.427 0.41477 0.0
C292 C 0.22333 0.4441 0.42861 0.0
C293 C 0.2087 0.43483 0.47254 0.0
C294 C 0.24071 0.40892 0.50312 0.0
H295 H 0.2773 0.31639 0.38284 0.0
C296 C 0.30997 0.32437 0.36249 0.0
H297 H 0.38265 0.36772 0.36275 0.0
H298 H 0.39862 0.32691 0.57507 0.0
H299 H 0.48306 0.30468 0.55177 0.0
H300 H 0.5067 0.31822 0.47251 0.0
H301 H 0.44638 0.35406 0.41619 0.0
C302 C 0.34798 0.36047 0.38036 0.0
C303 C 0.3479 0.37976 0.42986 0.0
C304 C 0.38501 0.36211 0.46269 0.0
C305 C 0.37145 0.35425 0.50819 0.0
C306 C 0.40741 0.3332 0.53993 0.0
C307 C 0.45579 0.32053 0.52703 0.0
C308 C 0.4691 0.32815 0.48238 0.0
C309 C 0.43412 0.34846 0.45033 0.0
H310 H 0.75322 0.41206 0.89845 0.0
C311 C 0.73591 0.41441 0.86321 0.0
H312 H 0.66775 0.42705 0.82196 0.0
H313 H 0.57339 0.25133 0.93234 0.0
H314 H 0.53099 0.23146 0.85396 0.0
H315 H 0.54163 0.29392 0.7935 0.0
H316 H 0.59469 0.37631 0.8108 0.0
C317 C 0.6852 0.42323 0.85671 0.0
C318 C 0.6511 0.40798 0.89321 0.0
C319 C 0.61649 0.3627 0.88314 0.0
C320 C 0.60991 0.32703 0.91791 0.0
C321 C 0.57922 0.27946 0.90663 0.0
C322 C 0.55477 0.26786 0.86208 0.0
C323 C 0.56081 0.30304 0.82801 0.0
C324 C 0.59157 0.34991 0.83818 0.0
H325 H 0.60732 0.30377 1.04337 0.0
C326 C 0.63661 0.28114 1.02863 0.0
H327 H 0.68476 0.27332 0.97396 0.0
H328 H 0.69731 0.50254 0.92591 0.0
H329 H 0.73044 0.52804 1.00655 0.0
H330 H 0.72062 0.46597 1.06746 0.0
H331 H 0.67722 0.37889 1.04871 0.0
C332 C 0.65368 0.29362 0.98816 0.0
C333 C 0.63636 0.33814 0.96242 0.0
C334 C 0.65999 0.38917 0.97497 0.0
C335 C 0.66639 0.4247 0.94004 0.0
C336 C 0.692 0.47472 0.95198 0.0
C337 C 0.71099 0.48948 0.99774 0.0
C338 C 0.70547 0.45448 1.03204 0.0
C339 C 0.6806 0.40462 1.0209 0.0
H340 H 0.81653 0.88232 0.46508 0.0
C341 C 0.80286 0.87093 0.4977 0.0
H342 H 0.74678 0.82381 0.52807 0.0
H343 H 0.73751 0.84526 0.29606 0.0
H344 H 0.70936 0.93276 0.3102 0.0
H345 H 0.692 0.96543 0.38896 0.0
H346 H 0.70325 0.91013 0.45423 0.0
C347 C 0.75899 0.8391 0.49644 0.0
C348 C 0.73762 0.81274 0.45093 0.0
C349 C 0.72723 0.8435 0.41305 0.0
C350 C 0.7371 0.82446 0.36792 0.0
C351 C 0.73077 0.8577 0.33113 0.0
C352 C 0.71436 0.90795 0.33881 0.0
C353 C 0.70453 0.92635 0.38315 0.0
C354 C 0.71108 0.89461 0.42011 0.0
H355 H 0.74626 0.75305 0.26854 0.0
C356 C 0.78645 0.76136 0.28264 0.0
H357 H 0.83631 0.77899 0.34383 0.0
H358 H 0.73801 0.73688 0.51313 0.0
H359 H 0.75739 0.64608 0.49761 0.0
H360 H 0.77579 0.61338 0.41915 0.0
H361 H 0.77474 0.67169 0.35555 0.0
C362 C 0.79694 0.76812 0.32878 0.0
C363 C 0.75679 0.77453 0.36155 0.0
C364 C 0.75496 0.7399 0.39727 0.0
C365 C 0.74469 0.75888 0.44232 0.0
C366 C 0.74606 0.72434 0.47834 0.0
C367 C 0.75687 0.67223 0.46977 0.0
C368 C 0.76722 0.65379 0.42556 0.0
C369 C 0.76664 0.68729 0.38957 0.0
H370 H 0.34547 0.62958 0.80838 0.0
C371 C 0.34669 0.66979 0.82304 0.0
H372 H 0.34409 0.71981 0.88296 0.0
H373 H 0.19231 0.57956 0.97568 0.0
H374 H 0.13958 0.55641 0.90229 0.0
H375 H 0.17566 0.57111 0.8276 0.0
H376 H 0.2641 0.6076 0.82581 0.0
C377 C 0.34426 0.67953 0.86871 0.0
C378 C 0.3335 0.6393 0.90179 0.0
C379 C 0.28236 0.61532 0.90108 0.0
C380 C 0.26102 0.60747 0.94375 0.0
C381 C 0.20937 0.58612 0.94354 0.0
C382 C 0.17907 0.57286 0.90189 0.0
C383 C 0.19943 0.5812 0.85992 0.0
C384 C 0.25037 0.6025 0.85933 0.0
H385 H 0.22323 0.69591 0.97716 0.0
C386 C 0.23207 0.68896 1.01351 0.0
H387 H 0.27586 0.64478 1.05962 0.0
H388 H 0.43725 0.66369 0.91215 0.0
H389 H 0.49212 0.67554 0.98572 0.0
H390 H 0.45434 0.66293 1.05993 0.0
H391 H 0.36187 0.63832 1.06123 0.0
C392 C 0.26309 0.65043 1.02389 0.0
C393 C 0.29008 0.62534 0.98591 0.0
C394 C 0.34428 0.63592 0.98619 0.0
C395 C 0.36605 0.64302 0.94364 0.0
C396 C 0.41954 0.65783 0.94411 0.0
C397 C 0.45105 0.66461 0.98582 0.0
C398 C 0.42974 0.65754 1.02764 0.0
C399 C 0.37678 0.64373 1.02804 0.0
H400 H 0.93423 0.06266 1.02228 0.0
C401 C 0.92349 1.02578 1.03614 0.0
H402 H 0.92632 0.94432 1.03042 0.0
H403 H 0.07987 0.86157 0.90147 0.0
H404 H 0.10272 0.82355 0.97369 0.0
H405 H 0.06875 0.85568 1.04612 0.0
H406 H 1.00971 0.92463 1.04649 0.0
C407 C 0.93744 0.98019 1.01461 0.0
C408 C 0.96963 0.97332 0.97213 0.0
C409 C 1.0078 0.93545 0.9721 0.0
C410 C 1.03111 0.91941 0.93039 0.0
C411 C 0.06377 0.87756 0.93189 0.0
C412 C 0.07693 0.85496 0.97323 0.0
C413 C 0.05755 0.87285 1.01398 0.0
C414 C 1.02326 0.91225 1.01358 0.0
H415 H 0.11749 0.92103 0.85367 0.0
C416 C 0.08449 0.91349 0.82793 0.0
H417 H 1.00412 0.91718 0.81364 0.0
H418 H 0.89606 0.04289 0.95205 0.0
H419 H 0.89116 0.0966 0.88698 0.0
H420 H 0.94723 0.08401 0.82376 0.0
H421 H 1.00486 1.01326 0.82259 0.0
C422 C 0.03594 0.92273 0.84082 0.0
C423 C 1.02091 0.94452 0.88849 0.0
C424 C 0.98839 0.98719 0.89041 0.0
C425 C 0.96048 0.99923 0.93036 0.0
C426 C 0.92299 0.0365 0.92642 0.0
C427 C 0.91869 0.06679 0.88839 0.0
C428 C 0.94966 0.05906 0.85229 0.0
C429 C 0.98275 1.01865 0.8523 0.0
H430 H 0.24998 1.01594 0.34915 0.0
C431 C 0.24894 0.98189 0.32471 0.0
H432 H 0.23728 0.90017 0.31398 0.0
H433 H 0.12502 0.80168 0.46623 0.0
H434 H 0.07111 0.77151 0.39629 0.0
H435 H 0.08309 0.81159 0.32264 0.0
H436 H 0.15068 0.88053 0.31813 0.0
C437 C 0.2381 0.93325 0.3395 0.0
C438 C 0.22328 0.92054 0.38775 0.0
C439 C 0.18017 0.88367 0.39148 0.0
C440 C 0.16979 0.86386 0.43527 0.0
C441 C 0.13144 0.82173 0.43543 0.0
C442 C 0.1007 0.80327 0.39518 0.0
C443 C 0.10769 0.82556 0.35366 0.0
C444 C 0.14699 0.86498 0.35156 0.0
H445 H 0.10778 0.87149 0.51937 0.0
C446 C 0.14108 0.86173 0.54158 0.0
H447 H 0.22175 0.85737 0.54764 0.0
H448 H 0.31523 0.98186 0.39603 0.0
H449 H 0.36292 1.0194 0.46688 0.0
H450 H 0.33442 0.99921 0.54303 0.0
H451 H 0.25929 0.93952 0.54873 0.0
C452 C 0.18838 0.86535 0.52467 0.0
C453 C 0.19854 0.88505 0.47724 0.0
C454 C 0.24011 0.92384 0.47379 0.0
C455 C 0.25407 0.93935 0.42941 0.0
C456 C 0.29992 0.97241 0.42812 0.0
C457 C 0.32835 0.99364 0.46872 0.0
C458 C 0.3125 0.98201 0.5116 0.0
C459 C 0.26926 0.94738 0.51431 0.0
H460 H 1.00947 0.19716 0.88539 0.0
C461 C 0.03861 0.20147 0.8609 0.0
H462 H 0.11583 0.19107 0.84754 0.0
H463 H 0.22174 0.03913 0.95847 0.0
H464 H 0.19607 0.98657 0.88685 0.0
H465 H 0.12553 1.01202 0.83192 0.0
H466 H 0.07975 0.08907 0.84958 0.0
C467 C 0.08791 0.18828 0.87327 0.0
C468 C 0.10792 0.164 0.9177 0.0
C469 C 0.12677 0.11339 0.91379 0.0
C470 C 0.16358 0.09622 0.94831 0.0
C471 C 0.1893 0.05088 0.9368 0.0
C472 C 0.1756 1.02081 0.89523 0.0
C473 C 0.13586 1.0348 0.86443 0.0
C474 C 0.11084 0.07979 0.87414 0.0
H475 H 0.18325 1.02708 1.02632 0.0
C476 C 0.2104 0.05675 1.04519 0.0
H477 H 0.23884 0.13549 1.05119 0.0
H478 H 0.07681 0.26019 0.94027 0.0
H479 H 0.09663 0.31199 1.01351 0.0
H480 H 0.15143 0.27929 1.07733 0.0
H481 H 0.1874 0.1955 1.06866 0.0
C482 C 0.21187 0.10665 1.03112 0.0
C483 C 0.17596 0.12587 0.99164 0.0
C484 C 0.15407 0.17559 0.99708 0.0
C485 C 0.12102 0.19456 0.9602 0.0
C486 C 0.10155 0.24428 0.96691 0.0
C487 C 0.11254 0.2743 1.00879 0.0
C488 C 0.14353 0.25594 1.04469 0.0
C489 C 0.1643 0.20754 1.03905 0.0
H490 H 0.83942 0.11883 0.3257 0.0
C491 C 0.86922 0.0935 0.31618 0.0
H492 H 0.93923 0.06238 0.3389 0.0
H493 H 0.87189 0.11005 0.55094 0.0
H494 H 0.79852 0.04693 0.5288 0.0
H495 H 0.77789 1.01289 0.4474 0.0
H496 H 0.83012 0.04221 0.38721 0.0
C497 C 0.90812 0.08569 0.34901 0.0
C498 C 0.915 0.11221 0.39803 0.0
C499 C 0.8835 0.09617 0.43322 0.0
C500 C 0.89579 0.1158 0.48088 0.0
C501 C 0.86421 0.09727 0.51461 0.0
C502 C 0.82204 0.06081 0.50237 0.0
C503 C 0.81044 0.04159 0.45649 0.0
C504 C 0.84068 0.05884 0.42224 0.0
H505 H 0.89948 0.21111 0.56382 0.0
C506 C 0.93629 0.1964 0.5754 0.0
H507 H 0.99698 0.15137 0.55636 0.0
H508 H 0.98224 0.15452 0.34099 0.0
H509 H 0.05673 0.21625 0.36326 0.0
H510 H 0.07819 0.24934 0.44486 0.0
H511 H 1.02529 0.22107 0.50489 0.0
C512 C 0.95967 0.16521 0.54495 0.0
C513 C 0.9401 0.15142 0.49415 0.0
C514 C 0.97068 0.16838 0.45869 0.0
C515 C 0.95822 0.14908 0.41117 0.0
C516 C 0.9901 0.16723 0.37739 0.0
C517 C 1.03289 0.20286 0.38966 0.0
C518 C 0.04497 0.2215 0.43562 0.0
C519 C 1.01438 0.20472 0.46979 0.0
loop_
_geom_bond_atom_site_label_1
_geom_bond_atom_site_label_2
_geom_bond_distance
_geom_bond_site_symmetry_2
_ccdc_geom_bond_type
Dy0 O3 2.307 . S
Dy0 O5 2.395 1_554 S
Dy0 O6 2.379 1_554 S
Dy0 O8 2.339 . S
Dy0 O10 2.298 1_564 S
Dy0 O14 2.275 1_565 S
Dy0 C22 2.738 1_554 S
Dy1 O4 2.298 . S
Dy1 O7 2.275 . S
Dy1 O9 2.307 . S
Dy1 O11 2.395 . S
Dy1 O12 2.379 . S
Dy1 O15 2.339 . S
Dy1 C31 2.738 . S
C2 O14 1.254 . S
C2 O15 1.257 . S
O3 Dy0 2.307 . S
O3 C13 1.266 . S
O4 Dy1 2.298 . S
O4 C13 1.236 1_545 S
O5 Dy0 2.395 1_556 S
O5 C22 1.255 . S
O6 Dy0 2.379 1_556 S
O6 C22 1.249 . S
O7 Dy1 2.275 . S
O7 C23 1.254 . S
O8 Dy0 2.339 . S
O8 C23 1.257 1_565 S
O9 Dy1 2.307 . S
O9 C24 1.266 1_554 S
O10 Dy0 2.298 1_546 S
O10 C24 1.236 . S
O11 Dy1 2.395 . S
O11 C31 1.255 . S
O12 Dy1 2.379 . S
O12 C31 1.249 . S
C13 O3 1.266 . S
C13 O4 1.236 1_565 S
O14 Dy0 2.275 1_545 S
O14 C2 1.254 . S
O15 Dy1 2.339 . S
O15 C2 1.257 . S
C16 C19 1.344 . S
C16 C20 1.328 . S
C16 C22 1.516 . S
C17 C18 1.304 . S
C17 C21 1.323 . S
C18 C17 1.304 . S
C18 C19 1.371 . S
C18 H32 0.930 . S
C19 C16 1.344 . S
C19 C18 1.371 . S
C19 H33 0.931 . S
C20 C16 1.328 . S
C20 C21 1.433 . S
C20 H34 0.931 . S
C21 C17 1.323 . S
C21 C20 1.433 . S
C21 H35 0.933 . S
C22 Dy0 2.738 1_556 S
C22 O5 1.255 . S
C22 O6 1.249 . S
C22 C16 1.516 . S
C23 O7 1.254 . S
C23 O8 1.257 1_545 S
C24 O9 1.266 1_556 S
C24 O10 1.236 . S
C25 C28 1.344 . S
C25 C29 1.328 . S
C25 C31 1.516 . S
C26 C27 1.304 . S
C26 C30 1.323 . S
C27 C26 1.304 . S
C27 C28 1.371 . S
C27 H36 0.930 . S
C28 C25 1.344 . S
C28 C27 1.371 . S
C28 H37 0.931 . S
C29 C25 1.328 . S
C29 C30 1.433 . S
C29 H38 0.931 . S
C30 C26 1.323 . S
C30 C29 1.433 . S
C30 H39 0.933 . S
C31 Dy1 2.738 . S
C31 O11 1.255 . S
C31 O12 1.249 . S
C31 C25 1.516 . S
H32 C18 0.930 . S
H33 C19 0.931 . S
H34 C20 0.931 . S
H35 C21 0.933 . S
H36 C27 0.930 . S
H37 C28 0.931 . S
H38 C29 0.931 . S
H39 C30 0.933 . S
Dy40 O43 2.307 . S
Dy40 O45 2.395 . S
Dy40 O46 2.379 . S
Dy40 O48 2.339 . S
Dy40 O50 2.298 . S
Dy40 O54 2.275 . S
Dy40 C62 2.738 . S
Dy41 O44 2.298 1_655 S
Dy41 O47 2.275 1_655 S
Dy41 O49 2.307 . S
Dy41 O51 2.395 . S
Dy41 O52 2.379 . S
Dy41 O55 2.339 . S
Dy41 C71 2.738 . S
C42 O54 1.254 . S
C42 O55 1.257 1_455 S
O43 Dy40 2.307 . S
O43 C53 1.266 . S
O44 Dy41 2.298 1_455 S
O44 C53 1.236 . S
O45 Dy40 2.395 . S
O45 C62 1.255 . S
O46 Dy40 2.379 . S
O46 C62 1.249 . S
O47 Dy41 2.275 1_455 S
O47 C63 1.254 . S
O48 Dy40 2.339 . S
O48 C63 1.257 . S
O49 Dy41 2.307 . S
O49 C64 1.266 . S
O50 Dy40 2.298 . S
O50 C64 1.236 1_455 S
O51 Dy41 2.395 . S
O51 C71 1.255 . S
O52 Dy41 2.379 . S
O52 C71 1.249 . S
C53 O43 1.266 . S
C53 O44 1.236 . S
O54 Dy40 2.275 . S
O54 C42 1.254 . S
O55 Dy41 2.339 . S
O55 C42 1.257 1_655 S
C56 C59 1.344 . S
C56 C60 1.328 . S
C56 C62 1.516 . S
C57 C58 1.304 . S
C57 C61 1.323 . S
C58 C57 1.304 . S
C58 C59 1.371 . S
C58 H72 0.930 . S
C59 C56 1.344 . S
C59 C58 1.371 . S
C59 H73 0.931 . S
C60 C56 1.328 . S
C60 C61 1.433 . S
C60 H74 0.931 . S
C61 C57 1.323 . S
C61 C60 1.433 . S
C61 H75 0.933 . S
C62 Dy40 2.738 . S
C62 O45 1.255 . S
C62 O46 1.249 . S
C62 C56 1.516 . S
C63 O47 1.254 . S
C63 O48 1.257 . S
C64 O49 1.266 . S
C64 O50 1.236 1_655 S
C65 C68 1.344 . S
C65 C69 1.328 . S
C65 C71 1.516 . S
C66 C67 1.304 . S
C66 C70 1.323 . S
C67 C66 1.304 . S
C67 C68 1.371 . S
C67 H76 0.930 . S
C68 C65 1.344 . S
C68 C67 1.371 . S
C68 H77 0.931 . S
C69 C65 1.328 . S
C69 C70 1.433 . S
C69 H78 0.931 . S
C70 C66 1.323 . S
C70 C69 1.433 . S
C70 H79 0.933 . S
C71 Dy41 2.738 . S
C71 O51 1.255 . S
C71 O52 1.249 . S
C71 C65 1.516 . S
H72 C58 0.930 . S
H73 C59 0.931 . S
H74 C60 0.931 . S
H75 C61 0.933 . S
H76 C67 0.930 . S
H77 C68 0.931 . S
H78 C69 0.931 . S
H79 C70 0.933 . S
Dy80 O83 2.307 1_554 S
Dy80 O85 2.395 . S
Dy80 O86 2.379 . S
Dy80 O88 2.339 . S
Dy80 O90 2.298 1_565 S
Dy80 O94 2.275 . S
Dy80 C102 2.738 . S
Dy81 O84 2.298 1_545 S
Dy81 O87 2.271 1_556 S
Dy81 O89 2.307 1_556 S
Dy81 O91 2.395 . S
Dy81 O92 2.379 . S
Dy81 O95 2.339 . S
Dy81 C111 2.738 . S
C82 O94 1.254 1_545 S
C82 O95 1.257 1_554 S
O83 Dy80 2.307 1_556 S
O83 C93 1.266 . S
O84 Dy81 2.298 1_565 S
O84 C93 1.236 . S
O85 Dy80 2.395 . S
O85 C102 1.255 . S
O86 Dy80 2.379 . S
O86 C102 1.249 . S
O87 Dy81 2.271 1_554 S
O87 C103 1.258 1_545 S
O88 Dy80 2.339 . S
O88 C103 1.257 . S
O89 Dy81 2.307 1_554 S
O89 C104 1.266 . S
O90 Dy80 2.298 1_545 S
O90 C104 1.236 . S
O91 Dy81 2.395 . S
O91 C111 1.255 . S
O92 Dy81 2.379 . S
O92 C111 1.249 . S
C93 O83 1.266 . S
C93 O84 1.236 . S
O94 Dy80 2.275 . S
O94 C82 1.254 1_565 S
O95 Dy81 2.339 . S
O95 C82 1.257 1_556 S
C96 C99 1.344 . S
C96 C100 1.328 . S
C96 C102 1.516 . S
C97 C98 1.304 . S
C97 C101 1.323 . S
C98 C97 1.304 . S
C98 C99 1.371 . S
C98 H112 0.930 . S
C99 C96 1.344 . S
C99 C98 1.371 . S
C99 H113 0.931 . S
C100 C96 1.328 . S
C100 C101 1.433 . S
C100 H114 0.931 . S
C101 C97 1.323 . S
C101 C100 1.433 . S
C101 H115 0.933 . S
C102 Dy80 2.738 . S
C102 O85 1.255 . S
C102 O86 1.249 . S
C102 C96 1.516 . S
C103 O87 1.258 1_565 S
C103 O88 1.257 . S
C104 O89 1.266 . S
C104 O90 1.236 . S
C105 C108 1.344 . S
C105 C109 1.328 . S
C105 C111 1.516 . S
C106 C107 1.304 . S
C106 C110 1.323 . S
C107 C106 1.304 . S
C107 C108 1.371 . S
C107 H116 0.930 . S
C108 C105 1.344 . S
C108 C107 1.371 . S
C108 H117 0.931 . S
C109 C105 1.328 . S
C109 C110 1.433 . S
C109 H118 0.931 . S
C110 C106 1.323 . S
C110 C109 1.433 . S
C110 H119 0.933 . S
C111 Dy81 2.738 . S
C111 O91 1.255 . S
C111 O92 1.249 . S
C111 C105 1.516 . S
H112 C98 0.930 . S
H113 C99 0.931 . S
H114 C100 0.931 . S
H115 C101 0.933 . S
H116 C107 0.930 . S
H117 C108 0.931 . S
H118 C109 0.931 . S
H119 C110 0.933 . S
Dy120 O123 2.307 . S
Dy120 O125 2.395 . S
Dy120 O126 2.379 . S
Dy120 O128 2.339 . S
Dy120 O130 2.298 1_455 S
Dy120 O134 2.275 . S
Dy120 C142 2.738 . S
Dy121 O124 2.298 1_655 S
Dy121 O127 2.275 . S
Dy121 O129 2.307 . S
Dy121 O131 2.395 . S
Dy121 O132 2.379 . S
Dy121 O135 2.339 . S
Dy121 C151 2.738 . S
C122 O134 1.254 1_655 S
C122 O135 1.257 . S
O123 Dy120 2.307 . S
O123 C133 1.266 . S
O124 Dy121 2.298 1_455 S
O124 C133 1.236 . S
O125 Dy120 2.395 . S
O125 C142 1.255 . S
O126 Dy120 2.379 . S
O126 C142 1.249 . S
O127 Dy121 2.275 . S
O127 C143 1.254 1_655 S
O128 Dy120 2.339 . S
O128 C143 1.257 . S
O129 Dy121 2.307 . S
O129 C144 1.266 . S
O130 Dy120 2.298 1_655 S
O130 C144 1.236 . S
O131 Dy121 2.395 . S
O131 C151 1.255 . S
O132 Dy121 2.379 . S
O132 C151 1.249 . S
C133 O123 1.266 . S
C133 O124 1.236 . S
O134 Dy120 2.275 . S
O134 C122 1.254 1_455 S
O135 Dy121 2.339 . S
O135 C122 1.257 . S
C136 C139 1.344 . S
C136 C140 1.328 . S
C136 C142 1.516 . S
C137 C138 1.304 . S
C137 C141 1.323 . S
C138 C137 1.304 . S
C138 C139 1.371 . S
C138 H152 0.930 . S
C139 C136 1.344 . S
C139 C138 1.371 . S
C139 H153 0.931 . S
C140 C136 1.328 . S
C140 C141 1.433 . S
C140 H154 0.931 . S
C141 C137 1.323 . S
C141 C140 1.433 . S
C141 H155 0.933 . S
C142 Dy120 2.738 . S
C142 O125 1.255 . S
C142 O126 1.249 . S
C142 C136 1.516 . S
C143 O127 1.254 1_455 S
C143 O128 1.257 . S
C144 O129 1.266 . S
C144 O130 1.236 . S
C145 C148 1.344 . S
C145 C149 1.328 . S
C145 C151 1.516 . S
C146 C147 1.304 . S
C146 C150 1.323 . S
C147 C146 1.304 . S
C147 C148 1.371 . S
C147 H156 0.930 . S
C148 C145 1.344 . S
C148 C147 1.371 . S
C148 H157 0.931 . S
C149 C145 1.328 . S
C149 C150 1.433 . S
C149 H158 0.931 . S
C150 C146 1.323 . S
C150 C149 1.433 . S
C150 H159 0.933 . S
C151 Dy121 2.738 . S
C151 O131 1.255 . S
C151 O132 1.249 . S
C151 C145 1.516 . S
H152 C138 0.930 . S
H153 C139 0.931 . S
H154 C140 0.931 . S
H155 C141 0.933 . S
H156 C147 0.930 . S
H157 C148 0.931 . S
H158 C149 0.931 . S
H159 C150 0.933 . S
H160 C161 0.951 . S
C161 H160 0.951 . S
C161 C167 1.265 1_566 S
H162 C167 0.950 . S
H163 C171 0.949 . S
H164 C172 0.950 . S
H165 C173 0.951 . S
H166 C174 0.951 . S
C167 C161 1.265 1_544 S
C167 H162 0.950 . S
C167 C168 1.478 . S
C168 C167 1.478 . S
C168 C169 1.397 1_545 S
C168 C185 1.394 1_554 S
C169 C168 1.397 1_565 S
C169 C170 1.438 1_655 S
C169 C174 1.429 . S
C170 C169 1.438 1_455 S
C170 C171 1.428 . S
C170 C183 1.394 1_565 S
C171 H163 0.949 . S
C171 C170 1.428 . S
C171 C172 1.345 . S
C172 H164 0.950 . S
C172 C171 1.345 . S
C172 C173 1.424 1_455 S
C173 H165 0.951 . S
C173 C172 1.424 1_655 S
C173 C174 1.347 . S
C174 H166 0.951 . S
C174 C169 1.429 . S
C174 C173 1.347 . S
H175 C176 0.951 . S
C176 H175 0.951 . S
C176 C182 1.265 . S
H177 C182 0.950 1_566 S
H178 C186 0.949 . S
H179 C187 0.950 . S
H180 C188 0.951 . S
H181 C189 0.951 . S
C182 C176 1.265 . S
C182 H177 0.950 1_544 S
C182 C183 1.478 . S
C183 C170 1.394 1_545 S
C183 C182 1.478 . S
C183 C184 1.397 1_554 S
C184 C183 1.397 1_556 S
C184 C185 1.438 1_455 S
C184 C189 1.429 . S
C185 C168 1.394 1_556 S
C185 C184 1.438 1_655 S
C185 C186 1.428 . S
C186 H178 0.949 . S
C186 C185 1.428 . S
C186 C187 1.345 . S
C187 H179 0.950 . S
C187 C186 1.345 . S
C187 C188 1.424 1_655 S
C188 H180 0.951 . S
C188 C187 1.424 1_455 S
C188 C189 1.347 . S
C189 H181 0.951 . S
C189 C184 1.429 . S
C189 C188 1.347 . S
H190 C191 0.951 . S
C191 H190 0.951 . S
C191 C197 1.265 1_655 S
H192 C197 0.950 . S
H193 C201 0.949 . S
H194 C202 0.950 . S
H195 C203 0.951 1_565 S
H196 C204 0.951 . S
C197 C191 1.265 1_455 S
C197 H192 0.950 . S
C197 C198 1.478 . S
C198 C197 1.478 . S
C198 C199 1.397 . S
C198 C215 1.394 . S
C199 C198 1.397 . S
C199 C200 1.438 1_565 S
C199 C204 1.429 . S
C200 C199 1.438 1_545 S
C200 C201 1.428 . S
C200 C213 1.394 . S
C201 H193 0.949 . S
C201 C200 1.428 . S
C201 C202 1.345 . S
C202 H194 0.950 . S
C202 C201 1.345 . S
C202 C203 1.424 . S
C203 H195 0.951 1_545 S
C203 C202 1.424 . S
C203 C204 1.347 1_545 S
C204 H196 0.951 . S
C204 C199 1.429 . S
C204 C203 1.347 1_565 S
H205 C206 0.951 . S
C206 H205 0.951 . S
C206 C212 1.265 1_455 S
H207 C212 0.950 . S
H208 C216 0.949 1_455 S
H209 C217 0.950 . S
H210 C218 0.951 . S
H211 C219 0.951 . S
C212 C206 1.265 1_655 S
C212 H207 0.950 . S
C212 C213 1.478 1_655 S
C213 C200 1.394 . S
C213 C212 1.478 1_455 S
C213 C214 1.397 1_455 S
C214 C213 1.397 1_655 S
C214 C215 1.438 1_645 S
C214 C219 1.429 . S
C215 C198 1.394 . S
C215 C214 1.438 1_465 S
C215 C216 1.428 1_455 S
C216 H208 0.949 1_655 S
C216 C215 1.428 1_655 S
C216 C217 1.345 . S
C217 H209 0.950 . S
C217 C216 1.345 . S
C217 C218 1.424 1_565 S
C218 H210 0.951 . S
C218 C217 1.424 1_545 S
C218 C219 1.347 . S
C219 H211 0.951 . S
C219 C214 1.429 . S
C219 C218 1.347 . S
H220 C221 0.951 . S
C221 H220 0.951 . S
C221 C227 1.265 1_545 S
H222 C227 0.950 1_556 S
H223 C231 0.949 . S
H224 C232 0.950 . S
H225 C233 0.951 . S
H226 C234 0.951 . S
C227 C221 1.265 1_565 S
C227 H222 0.950 1_554 S
C227 C228 1.478 . S
C228 C227 1.478 . S
C228 C229 1.397 . S
C228 C245 1.394 1_564 S
C229 C228 1.397 . S
C229 C230 1.438 . S
C229 C234 1.429 . S
C230 C229 1.438 . S
C230 C231 1.428 . S
C230 C243 1.394 1_565 S
C231 H223 0.949 . S
C231 C230 1.428 . S
C231 C232 1.345 . S
C232 H224 0.950 . S
C232 C231 1.345 . S
C232 C233 1.424 . S
C233 H225 0.951 . S
C233 C232 1.424 . S
C233 C234 1.347 . S
C234 H226 0.951 . S
C234 C229 1.429 . S
C234 C233 1.347 . S
H235 C236 0.951 1_565 S
C236 H235 0.951 1_545 S
C236 C242 1.265 . S
H237 C242 0.950 . S
H238 C246 0.949 . S
H239 C247 0.950 . S
H240 C248 0.951 . S
H241 C249 0.951 . S
C242 C236 1.265 . S
C242 H237 0.950 . S
C242 C243 1.478 . S
C243 C230 1.394 1_545 S
C243 C242 1.478 . S
C243 C244 1.397 . S
C244 C243 1.397 . S
C244 C245 1.438 1_554 S
C244 C249 1.429 1_554 S
C245 C228 1.394 1_546 S
C245 C244 1.438 1_556 S
C245 C246 1.428 . S
C246 H238 0.949 . S
C246 C245 1.428 . S
C246 C247 1.345 . S
C247 H239 0.950 . S
C247 C246 1.345 . S
C247 C248 1.424 . S
C248 H240 0.951 . S
C248 C247 1.424 . S
C248 C249 1.347 . S
C249 H241 0.951 . S
C249 C244 1.429 1_556 S
C249 C248 1.347 . S
H250 C251 0.951 1_655 S
C251 H250 0.951 1_455 S
C251 C257 1.265 . S
H252 C257 0.950 . S
H253 C261 0.949 . S
H254 C262 0.950 . S
H255 C263 0.951 . S
H256 C264 0.951 . S
C257 C251 1.265 . S
C257 H252 0.950 . S
C257 C258 1.478 . S
C258 C257 1.478 . S
C258 C259 1.397 . S
C258 C275 1.394 . S
C259 C258 1.397 . S
C259 C260 1.438 . S
C259 C264 1.429 . S
C260 C259 1.438 . S
C260 C261 1.428 . S
C260 C273 1.388 1_455 S
C261 H253 0.949 . S
C261 C260 1.428 . S
C261 C262 1.345 . S
C262 H254 0.950 . S
C262 C261 1.345 . S
C262 C263 1.424 . S
C263 H255 0.951 . S
C263 C262 1.424 . S
C263 C264 1.347 . S
C264 H256 0.951 . S
C264 C259 1.429 . S
C264 C263 1.347 . S
H265 C266 0.951 . S
C266 H265 0.951 . S
C266 C272 1.265 1_455 S
H267 C272 0.950 . S
H268 C276 0.949 . S
H269 C277 0.950 . S
H270 C278 0.951 . S
H271 C279 0.951 . S
C272 C266 1.265 1_655 S
C272 H267 0.950 . S
C272 C273 1.483 . S
C273 C260 1.388 1_655 S
C273 C272 1.483 . S
C273 C274 1.399 . S
C274 C273 1.399 . S
C274 C275 1.438 1_655 S
C274 C279 1.429 . S
C275 C258 1.394 . S
C275 C274 1.438 1_455 S
C275 C276 1.428 . S
C276 H268 0.949 . S
C276 C275 1.428 . S
C276 C277 1.345 1_455 S
C277 H269 0.950 . S
C277 C276 1.345 1_655 S
C277 C278 1.424 . S
C278 H270 0.951 . S
C278 C277 1.424 . S
C278 C279 1.347 . S
C279 H271 0.951 . S
C279 C274 1.429 . S
C279 C278 1.347 . S
H280 C281 0.951 . S
C281 H280 0.951 . S
C281 C287 1.265 . S
H282 C287 0.950 . S
H283 C291 0.949 . S
H284 C292 0.950 . S
H285 C293 0.951 . S
H286 C294 0.951 . S
C287 C281 1.265 . S
C287 H282 0.950 . S
C287 C288 1.478 . S
C288 C287 1.478 . S
C288 C289 1.397 . S
C288 C305 1.394 . S
C289 C288 1.397 . S
C289 C290 1.438 . S
C289 C294 1.429 . S
C290 C289 1.438 . S
C290 C291 1.428 . S
C290 C303 1.394 . S
C291 H283 0.949 . S
C291 C290 1.428 . S
C291 C292 1.345 . S
C292 H284 0.950 . S
C292 C291 1.345 . S
C292 C293 1.424 . S
C293 H285 0.951 . S
C293 C292 1.424 . S
C293 C294 1.347 . S
C294 H286 0.951 . S
C294 C289 1.429 . S
C294 C293 1.347 . S
H295 C296 0.951 . S
C296 H295 0.951 . S
C296 C302 1.265 . S
H297 C302 0.950 . S
H298 C306 0.949 . S
H299 C307 0.950 . S
H300 C308 0.951 . S
H301 C309 0.951 . S
C302 C296 1.265 . S
C302 H297 0.950 . S
C302 C303 1.478 . S
C303 C290 1.394 . S
C303 C302 1.478 . S
C303 C304 1.397 . S
C304 C303 1.397 . S
C304 C305 1.438 . S
C304 C309 1.429 . S
C305 C288 1.394 . S
C305 C304 1.438 . S
C305 C306 1.428 . S
C306 H298 0.949 . S
C306 C305 1.428 . S
C306 C307 1.345 . S
C307 H299 0.950 . S
C307 C306 1.345 . S
C307 C308 1.424 . S
C308 H300 0.951 . S
C308 C307 1.424 . S
C308 C309 1.347 . S
C309 H301 0.951 . S
C309 C304 1.429 . S
C309 C308 1.347 . S
H310 C311 0.951 . S
C311 H310 0.951 . S
C311 C317 1.265 . S
H312 C317 0.950 . S
H313 C321 0.949 . S
H314 C322 0.950 . S
H315 C323 0.951 . S
H316 C324 0.951 . S
C317 C311 1.265 . S
C317 H312 0.950 . S
C317 C318 1.478 . S
C318 C317 1.478 . S
C318 C319 1.397 . S
C318 C335 1.394 . S
C319 C318 1.397 . S
C319 C320 1.438 . S
C319 C324 1.429 . S
C320 C319 1.438 . S
C320 C321 1.428 . S
C320 C333 1.394 . S
C321 H313 0.949 . S
C321 C320 1.428 . S
C321 C322 1.345 . S
C322 H314 0.950 . S
C322 C321 1.345 . S
C322 C323 1.424 . S
C323 H315 0.951 . S
C323 C322 1.424 . S
C323 C324 1.347 . S
C324 H316 0.951 . S
C324 C319 1.429 . S
C324 C323 1.347 . S
H325 C326 0.951 . S
C326 H325 0.951 . S
C326 C332 1.265 . S
H327 C332 0.950 . S
H328 C336 0.949 . S
H329 C337 0.950 . S
H330 C338 0.951 . S
H331 C339 0.951 . S
C332 C326 1.265 . S
C332 H327 0.950 . S
C332 C333 1.478 . S
C333 C320 1.394 . S
C333 C332 1.478 . S
C333 C334 1.397 . S
C334 C333 1.397 . S
C334 C335 1.438 . S
C334 C339 1.429 . S
C335 C318 1.394 . S
C335 C334 1.438 . S
C335 C336 1.428 . S
C336 H328 0.949 . S
C336 C335 1.428 . S
C336 C337 1.345 . S
C337 H329 0.950 . S
C337 C336 1.345 . S
C337 C338 1.424 . S
C338 H330 0.951 . S
C338 C337 1.424 . S
C338 C339 1.347 . S
C339 H331 0.951 . S
C339 C334 1.429 . S
C339 C338 1.347 . S
H340 C341 0.951 . S
C341 H340 0.951 . S
C341 C347 1.265 . S
H342 C347 0.950 . S
H343 C351 0.949 . S
H344 C352 0.950 . S
H345 C353 0.951 . S
H346 C354 0.951 . S
C347 C341 1.265 . S
C347 H342 0.950 . S
C347 C348 1.478 . S
C348 C347 1.478 . S
C348 C349 1.397 . S
C348 C365 1.394 . S
C349 C348 1.397 . S
C349 C350 1.438 . S
C349 C354 1.429 . S
C350 C349 1.438 . S
C350 C351 1.428 . S
C350 C363 1.394 . S
C351 H343 0.949 . S
C351 C350 1.428 . S
C351 C352 1.345 . S
C352 H344 0.950 . S
C352 C351 1.345 . S
C352 C353 1.424 . S
C353 H345 0.951 . S
C353 C352 1.424 . S
C353 C354 1.347 . S
C354 H346 0.951 . S
C354 C349 1.429 . S
C354 C353 1.347 . S
H355 C356 0.951 . S
C356 H355 0.951 . S
C356 C362 1.265 . S
H357 C362 0.950 . S
H358 C366 0.949 . S
H359 C367 0.950 . S
H360 C368 0.951 . S
H361 C369 0.951 . S
C362 C356 1.265 . S
C362 H357 0.950 . S
C362 C363 1.478 . S
C363 C350 1.394 . S
C363 C362 1.478 . S
C363 C364 1.397 . S
C364 C363 1.397 . S
C364 C365 1.438 . S
C364 C369 1.429 . S
C365 C348 1.394 . S
C365 C364 1.438 . S
C365 C366 1.428 . S
C366 H358 0.949 . S
C366 C365 1.428 . S
C366 C367 1.345 . S
C367 H359 0.950 . S
C367 C366 1.345 . S
C367 C368 1.424 . S
C368 H360 0.951 . S
C368 C367 1.424 . S
C368 C369 1.347 . S
C369 H361 0.951 . S
C369 C364 1.429 . S
C369 C368 1.347 . S
H370 C371 0.951 . S
C371 H370 0.951 . S
C371 C377 1.265 . S
H372 C377 0.950 . S
H373 C381 0.949 . S
H374 C382 0.950 . S
H375 C383 0.951 . S
H376 C384 0.951 . S
C377 C371 1.265 . S
C377 H372 0.950 . S
C377 C378 1.478 . S
C378 C377 1.478 . S
C378 C379 1.397 . S
C378 C395 1.394 . S
C379 C378 1.397 . S
C379 C380 1.438 . S
C379 C384 1.429 . S
C380 C379 1.438 . S
C380 C381 1.428 . S
C380 C393 1.394 . S
C381 H373 0.949 . S
C381 C380 1.428 . S
C381 C382 1.345 . S
C382 H374 0.950 . S
C382 C381 1.345 . S
C382 C383 1.424 . S
C383 H375 0.951 . S
C383 C382 1.424 . S
C383 C384 1.347 . S
C384 H376 0.951 . S
C384 C379 1.429 . S
C384 C383 1.347 . S
H385 C386 0.951 . S
C386 H385 0.951 . S
C386 C392 1.265 . S
H387 C392 0.950 . S
H388 C396 0.949 . S
H389 C397 0.950 . S
H390 C398 0.951 . S
H391 C399 0.951 . S
C392 C386 1.265 . S
C392 H387 0.950 . S
C392 C393 1.478 . S
C393 C380 1.394 . S
C393 C392 1.478 . S
C393 C394 1.397 . S
C394 C393 1.397 . S
C394 C395 1.438 . S
C394 C399 1.429 . S
C395 C378 1.394 . S
C395 C394 1.438 . S
C395 C396 1.428 . S
C396 H388 0.949 . S
C396 C395 1.428 . S
C396 C397 1.345 . S
C397 H389 0.950 . S
C397 C396 1.345 . S
C397 C398 1.424 . S
C398 H390 0.951 . S
C398 C397 1.424 . S
C398 C399 1.347 . S
C399 H391 0.951 . S
C399 C394 1.429 . S
C399 C398 1.347 . S
H400 C401 0.951 . S
C401 H400 0.951 . S
C401 C407 1.265 . S
H402 C407 0.950 . S
H403 C411 0.949 . S
H404 C412 0.950 . S
H405 C413 0.951 . S
H406 C414 0.951 . S
C407 C401 1.265 . S
C407 H402 0.950 . S
C407 C408 1.478 . S
C408 C407 1.478 . S
C408 C409 1.397 . S
C408 C425 1.394 . S
C409 C408 1.397 . S
C409 C410 1.438 . S
C409 C414 1.429 . S
C410 C409 1.438 . S
C410 C411 1.428 . S
C410 C423 1.394 . S
C411 H403 0.949 . S
C411 C410 1.428 . S
C411 C412 1.345 . S
C412 H404 0.950 . S
C412 C411 1.345 . S
C412 C413 1.424 . S
C413 H405 0.951 . S
C413 C412 1.424 . S
C413 C414 1.347 . S
C414 H406 0.951 . S
C414 C409 1.429 . S
C414 C413 1.347 . S
H415 C416 0.951 . S
C416 H415 0.951 . S
C416 C422 1.265 . S
H417 C422 0.950 . S
H418 C426 0.949 . S
H419 C427 0.950 1_545 S
H420 C428 0.951 . S
H421 C429 0.951 . S
C422 C416 1.265 . S
C422 H417 0.950 . S
C422 C423 1.478 . S
C423 C410 1.394 . S
C423 C422 1.478 . S
C423 C424 1.397 . S
C424 C423 1.397 . S
C424 C425 1.438 . S
C424 C429 1.429 . S
C425 C408 1.394 . S
C425 C424 1.438 . S
C425 C426 1.428 . S
C426 H418 0.949 . S
C426 C425 1.428 . S
C426 C427 1.345 . S
C427 H419 0.950 1_565 S
C427 C426 1.345 . S
C427 C428 1.424 . S
C428 H420 0.951 . S
C428 C427 1.424 . S
C428 C429 1.347 . S
C429 H421 0.951 . S
C429 C424 1.429 . S
C429 C428 1.347 . S
H430 C431 0.951 . S
C431 H430 0.951 . S
C431 C437 1.265 . S
H432 C437 0.950 . S
H433 C441 0.949 . S
H434 C442 0.950 . S
H435 C443 0.951 . S
H436 C444 0.951 . S
C437 C431 1.265 . S
C437 H432 0.950 . S
C437 C438 1.478 . S
C438 C437 1.478 . S
C438 C439 1.397 . S
C438 C455 1.394 . S
C439 C438 1.397 . S
C439 C440 1.438 . S
C439 C444 1.429 . S
C440 C439 1.438 . S
C440 C441 1.428 . S
C440 C453 1.394 . S
C441 H433 0.949 . S
C441 C440 1.428 . S
C441 C442 1.345 . S
C442 H434 0.950 . S
C442 C441 1.345 . S
C442 C443 1.424 . S
C443 H435 0.951 . S
C443 C442 1.424 . S
C443 C444 1.347 . S
C444 H436 0.951 . S
C444 C439 1.429 . S
C444 C443 1.347 . S
H445 C446 0.951 . S
C446 H445 0.951 . S
C446 C452 1.265 . S
H447 C452 0.950 . S
H448 C456 0.949 . S
H449 C457 0.950 1_545 S
H450 C458 0.951 . S
H451 C459 0.951 . S
C452 C446 1.265 . S
C452 H447 0.950 . S
C452 C453 1.478 . S
C453 C440 1.394 . S
C453 C452 1.478 . S
C453 C454 1.397 . S
C454 C453 1.397 . S
C454 C455 1.438 . S
C454 C459 1.429 . S
C455 C438 1.394 . S
C455 C454 1.438 . S
C455 C456 1.428 . S
C456 H448 0.949 . S
C456 C455 1.428 . S
C456 C457 1.345 . S
C457 H449 0.950 1_565 S
C457 C456 1.345 . S
C457 C458 1.424 . S
C458 H450 0.951 . S
C458 C457 1.424 . S
C458 C459 1.347 . S
C459 H451 0.951 . S
C459 C454 1.429 . S
C459 C458 1.347 . S
H460 C461 0.951 . S
C461 H460 0.951 . S
C461 C467 1.265 . S
H462 C467 0.950 . S
H463 C471 0.949 . S
H464 C472 0.950 . S
H465 C473 0.951 . S
H466 C474 0.951 . S
C467 C461 1.265 . S
C467 H462 0.950 . S
C467 C468 1.478 . S
C468 C467 1.478 . S
C468 C469 1.397 . S
C468 C485 1.394 . S
C469 C468 1.397 . S
C469 C470 1.438 . S
C469 C474 1.429 . S
C470 C469 1.438 . S
C470 C471 1.428 . S
C470 C483 1.394 . S
C471 H463 0.949 . S
C471 C470 1.428 . S
C471 C472 1.345 . S
C472 H464 0.950 . S
C472 C471 1.345 . S
C472 C473 1.424 . S
C473 H465 0.951 . S
C473 C472 1.424 . S
C473 C474 1.347 . S
C474 H466 0.951 . S
C474 C469 1.429 . S
C474 C473 1.347 . S
H475 C476 0.951 . S
C476 H475 0.951 . S
C476 C482 1.265 . S
H477 C482 0.950 . S
H478 C486 0.949 . S
H479 C487 0.950 . S
H480 C488 0.951 . S
H481 C489 0.951 . S
C482 C476 1.265 . S
C482 H477 0.950 . S
C482 C483 1.478 . S
C483 C470 1.394 . S
C483 C482 1.478 . S
C483 C484 1.397 . S
C484 C483 1.397 . S
C484 C485 1.438 . S
C484 C489 1.429 . S
C485 C468 1.394 . S
C485 C484 1.438 . S
C485 C486 1.428 . S
C486 H478 0.949 . S
C486 C485 1.428 . S
C486 C487 1.345 . S
C487 H479 0.950 . S
C487 C486 1.345 . S
C487 C488 1.424 . S
C488 H480 0.951 . S
C488 C487 1.424 . S
C488 C489 1.347 . S
C489 H481 0.951 . S
C489 C484 1.429 . S
C489 C488 1.347 . S
H490 C491 0.951 . S
C491 H490 0.951 . S
C491 C497 1.265 . S
H492 C497 0.950 . S
H493 C501 0.949 . S
H494 C502 0.950 . S
H495 C503 0.951 . S
H496 C504 0.951 . S
C497 C491 1.265 . S
C497 H492 0.950 . S
C497 C498 1.478 . S
C498 C497 1.478 . S
C498 C499 1.397 . S
C498 C515 1.394 . S
C499 C498 1.397 . S
C499 C500 1.438 . S
C499 C504 1.429 . S
C500 C499 1.438 . S
C500 C501 1.428 . S
C500 C513 1.394 . S
C501 H493 0.949 . S
C501 C500 1.428 . S
C501 C502 1.345 . S
C502 H494 0.950 . S
C502 C501 1.345 . S
C502 C503 1.424 . S
C503 H495 0.951 . S
C503 C502 1.424 . S
C503 C504 1.347 . S
C504 H496 0.951 . S
C504 C499 1.429 . S
C504 C503 1.347 . S
H505 C506 0.951 . S
C506 H505 0.951 . S
C506 C512 1.265 . S
H507 C512 0.950 . S
H508 C516 0.949 . S
H509 C517 0.950 . S
H510 C518 0.951 . S
H511 C519 0.951 . S
C512 C506 1.265 . S
C512 H507 0.950 . S
C512 C513 1.478 . S
C513 C500 1.394 . S
C513 C512 1.478 . S
C513 C514 1.397 . S
C514 C513 1.397 . S
C514 C515 1.438 . S
C514 C519 1.429 . S
C515 C498 1.394 . S
C515 C514 1.438 . S
C515 C516 1.428 . S
C516 H508 0.949 . S
C516 C515 1.428 . S
C516 C517 1.345 . S
C517 H509 0.950 . S
C517 C516 1.345 . S
C517 C518 1.424 . S
C518 H510 0.951 . S
C518 C517 1.424 . S
C518 C519 1.347 . S
C519 H511 0.951 . S
C519 C514 1.429 . S
C519 C518 1.347 . S
C161 C103 0.584 1_556 S
C176 C23 0.672 . S
C191 C143 0.604 1_655 S
C206 C63 0.445 . S
C221 C82 0.497 . S
C236 C2 0.609 . S
C251 C42 0.468 . S
C266 C122 0.591 1_455 S
C281 C57 1.117 . S
C296 C26 1.052 . S
C311 C66 0.947 . S
C326 C106 1.049 . S
C341 C146 1.154 . S
C356 C97 1.116 . S
C371 C137 1.275 . S
C386 C17 1.203 . S
C401 C93 4.547 . S
C416 C144 4.495 . S
C431 C13 4.836 . S
C446 C133 4.826 . S
C461 C53 4.549 . S
C476 C24 4.483 . S
C491 C104 4.236 . S
C506 C64 4.253 . S
