# Generated by pormake.
# Topology wib, (6)-cn, num edge types: 1
# Building blocks:
#     Node 0, Type 0, BuildingBlock: OJICUG_clean_sbu_0, # of connection points: 6
#     Node 1, Type 0, BuildingBlock: OJICUG_clean_sbu_0, # of connection points: 6
#     Node 2, Type 0, BuildingBlock: OJICUG_clean_sbu_0, # of connection points: 6
#     Node 3, Type 0, BuildingBlock: OJICUG_clean_sbu_0, # of connection points: 6
#     Node 4, Type 0, BuildingBlock: OJICUG_clean_sbu_0, # of connection points: 6
#     Node 5, Type 0, BuildingBlock: OJICUG_clean_sbu_0, # of connection points: 6
#     Node 6, Type 0, BuildingBlock: OJICUG_clean_sbu_0, # of connection points: 6
#     Node 7, Type 0, BuildingBlock: OJICUG_clean_sbu_0, # of connection points: 6
#     Node 8, Type 0, BuildingBlock: OJICUG_clean_sbu_0, # of connection points: 6
#     Node 9, Type 0, BuildingBlock: OJICUG_clean_sbu_0, # of connection points: 6
#     Node 10, Type 0, BuildingBlock: OJICUG_clean_sbu_0, # of connection points: 6
#     Node 11, Type 0, BuildingBlock: OJICUG_clean_sbu_0, # of connection points: 6
#     Node 12, Type 0, BuildingBlock: OJICUG_clean_sbu_0, # of connection points: 6
#     Node 13, Type 0, BuildingBlock: OJICUG_clean_sbu_0, # of connection points: 6
#     Node 14, Type 0, BuildingBlock: OJICUG_clean_sbu_0, # of connection points: 6
#     Node 15, Type 0, BuildingBlock: OJICUG_clean_sbu_0, # of connection points: 6
#     Edge 16, Type (0, 0), BuildingBlock: AJUNOK_clean_linker_0, # of connection points: 2
#     Edge 17, Type (0, 0), BuildingBlock: AJUNOK_clean_linker_0, # of connection points: 2
#     Edge 18, Type (0, 0), BuildingBlock: AJUNOK_clean_linker_0, # of connection points: 2
#     Edge 19, Type (0, 0), BuildingBlock: AJUNOK_clean_linker_0, # of connection points: 2
#     Edge 20, Type (0, 0), BuildingBlock: AJUNOK_clean_linker_0, # of connection points: 2
#     Edge 21, Type (0, 0), BuildingBlock: AJUNOK_clean_linker_0, # of connection points: 2
#     Edge 22, Type (0, 0), BuildingBlock: AJUNOK_clean_linker_0, # of connection points: 2
#     Edge 23, Type (0, 0), BuildingBlock: AJUNOK_clean_linker_0, # of connection points: 2
#     Edge 24, Type (0, 0), BuildingBlock: AJUNOK_clean_linker_0, # of connection points: 2
#     Edge 25, Type (0, 0), BuildingBlock: AJUNOK_clean_linker_0, # of connection points: 2
#     Edge 26, Type (0, 0), BuildingBlock: AJUNOK_clean_linker_0, # of connection points: 2
#     Edge 27, Type (0, 0), BuildingBlock: AJUNOK_clean_linker_0, # of connection points: 2
#     Edge 28, Type (0, 0), BuildingBlock: AJUNOK_clean_linker_0, # of connection points: 2
#     Edge 29, Type (0, 0), BuildingBlock: AJUNOK_clean_linker_0, # of connection points: 2
#     Edge 30, Type (0, 0), BuildingBlock: AJUNOK_clean_linker_0, # of connection points: 2
#     Edge 31, Type (0, 0), BuildingBlock: AJUNOK_clean_linker_0, # of connection points: 2
#     Edge 32, Type (0, 0), BuildingBlock: AJUNOK_clean_linker_0, # of connection points: 2
#     Edge 33, Type (0, 0), BuildingBlock: AJUNOK_clean_linker_0, # of connection points: 2
#     Edge 34, Type (0, 0), BuildingBlock: AJUNOK_clean_linker_0, # of connection points: 2
#     Edge 35, Type (0, 0), BuildingBlock: AJUNOK_clean_linker_0, # of connection points: 2
#     Edge 36, Type (0, 0), BuildingBlock: AJUNOK_clean_linker_0, # of connection points: 2
#     Edge 37, Type (0, 0), BuildingBlock: AJUNOK_clean_linker_0, # of connection points: 2
#     Edge 38, Type (0, 0), BuildingBlock: AJUNOK_clean_linker_0, # of connection points: 2
#     Edge 39, Type (0, 0), BuildingBlock: AJUNOK_clean_linker_0, # of connection points: 2
#     Edge 40, Type (0, 0), BuildingBlock: AJUNOK_clean_linker_0, # of connection points: 2
#     Edge 41, Type (0, 0), BuildingBlock: AJUNOK_clean_linker_0, # of connection points: 2
#     Edge 42, Type (0, 0), BuildingBlock: AJUNOK_clean_linker_0, # of connection points: 2
#     Edge 43, Type (0, 0), BuildingBlock: AJUNOK_clean_linker_0, # of connection points: 2
#     Edge 44, Type (0, 0), BuildingBlock: AJUNOK_clean_linker_0, # of connection points: 2
#     Edge 45, Type (0, 0), BuildingBlock: AJUNOK_clean_linker_0, # of connection points: 2
#     Edge 46, Type (0, 0), BuildingBlock: AJUNOK_clean_linker_0, # of connection points: 2
#     Edge 47, Type (0, 0), BuildingBlock: AJUNOK_clean_linker_0, # of connection points: 2
#     Edge 48, Type (0, 0), BuildingBlock: AJUNOK_clean_linker_0, # of connection points: 2
#     Edge 49, Type (0, 0), BuildingBlock: AJUNOK_clean_linker_0, # of connection points: 2
#     Edge 50, Type (0, 0), BuildingBlock: AJUNOK_clean_linker_0, # of connection points: 2
#     Edge 51, Type (0, 0), BuildingBlock: AJUNOK_clean_linker_0, # of connection points: 2
#     Edge 52, Type (0, 0), BuildingBlock: AJUNOK_clean_linker_0, # of connection points: 2
#     Edge 53, Type (0, 0), BuildingBlock: AJUNOK_clean_linker_0, # of connection points: 2
#     Edge 54, Type (0, 0), BuildingBlock: AJUNOK_clean_linker_0, # of connection points: 2
#     Edge 55, Type (0, 0), BuildingBlock: AJUNOK_clean_linker_0, # of connection points: 2
#     Edge 56, Type (0, 0), BuildingBlock: AJUNOK_clean_linker_0, # of connection points: 2
#     Edge 57, Type (0, 0), BuildingBlock: AJUNOK_clean_linker_0, # of connection points: 2
#     Edge 58, Type (0, 0), BuildingBlock: AJUNOK_clean_linker_0, # of connection points: 2
#     Edge 59, Type (0, 0), BuildingBlock: AJUNOK_clean_linker_0, # of connection points: 2
#     Edge 60, Type (0, 0), BuildingBlock: AJUNOK_clean_linker_0, # of connection points: 2
#     Edge 61, Type (0, 0), BuildingBlock: AJUNOK_clean_linker_0, # of connection points: 2
#     Edge 62, Type (0, 0), BuildingBlock: AJUNOK_clean_linker_0, # of connection points: 2
#     Edge 63, Type (0, 0), BuildingBlock: AJUNOK_clean_linker_0, # of connection points: 2
# Relax obj value: 0.382
# Max RMSD: 0.261
# Mean RMSD: 0.261
data_MOF--net-wib--node1-OJICUG_clean_sbu_0--edge1-AJUNOK_clean_linker_0
_symmetry_space_group_name_H-M    P1
_symmetry_Int_Tables_number       1
_symmetry_cell_setting            triclinic
loop_
_symmetry_equiv_pos_as_xyz
'x, y, z'
_cell_length_a     23.632997
_cell_length_b     23.601416
_cell_length_c     43.041757
_cell_angle_alpha  90.135916
_cell_angle_beta   90.011412
_cell_angle_gamma 90.137544
loop_
_atom_site_label
_atom_site_type_symbol
_atom_site_fract_x
_atom_site_fract_y
_atom_site_fract_z
_atom_type_partial_charge
Sc0 Sc 0.13131 0.46913 0.28809 0.0
Sc1 Sc 0.17719 0.56647 0.34314 0.0
Sc2 Sc 0.07438 0.60503 0.29139 0.0
O3 O 0.12778 0.54647 0.30697 0.0
C4 C 0.11661 0.55366 0.22882 0.0
C5 C 0.25884 0.48717 0.30289 0.0
C6 C 0.19063 0.67024 0.30254 0.0
C7 C 0.14503 0.44876 0.36267 0.0
C8 C 1.00023 0.49263 0.28588 0.0
C9 C 0.06667 0.63964 0.3581 0.0
O10 O 0.12298 0.50396 0.2405 0.0
O11 O 0.24523 0.50956 0.32885 0.0
O12 O 0.13724 0.6716 0.29792 0.0
O13 O 0.14591 0.43019 0.33453 0.0
O14 O 0.00852 0.54534 0.28245 0.0
O15 O 0.11948 0.63132 0.36189 0.0
O16 O 0.03972 0.45744 0.29188 0.0
O17 O 0.13866 0.50089 0.36917 0.0
O18 O 0.04021 0.6139 0.33689 0.0
O19 O 0.2219 0.47626 0.28221 0.0
O20 O 0.10378 0.59666 0.24505 0.0
O21 O 0.2154 0.62966 0.31605 0.0
Sc22 Sc 0.29175 0.36525 0.54001 0.0
Sc23 Sc 0.19334 0.414 0.59319 0.0
Sc24 Sc 0.15413 0.31096 0.54063 0.0
O25 O 0.21357 0.36265 0.55768 0.0
C26 C 0.21269 0.3503 0.47889 0.0
C27 C 0.27575 0.49348 0.5547 0.0
C28 C 0.0954 0.43191 0.54829 0.0
C29 C 0.3079 0.37912 0.61529 0.0
C30 C 0.26486 0.23295 0.53844 0.0
C31 C 0.11073 0.30865 0.60608 0.0
O32 O 0.26113 0.35782 0.49172 0.0
O33 O 0.25417 0.47978 0.58073 0.0
O34 O 0.09113 0.37849 0.54346 0.0
O35 O 0.32781 0.37914 0.58742 0.0
O36 O 0.21204 0.24145 0.53528 0.0
O37 O 0.12416 0.36034 0.61038 0.0
O38 O 0.30074 0.27282 0.54324 0.0
O39 O 0.25533 0.37368 0.62091 0.0
O40 O 0.13617 0.27932 0.58595 0.0
O41 O 0.28587 0.45643 0.53392 0.0
O42 O 0.16882 0.33717 0.49418 0.0
O43 O 0.13462 0.45419 0.56424 0.0
Sc44 Sc 0.45443 0.40585 0.79184 0.0
Sc45 Sc 0.35342 0.44749 0.84453 0.0
Sc46 Sc 0.39886 0.54269 0.78883 0.0
O47 O 0.40234 0.46555 0.80783 0.0
C48 C 0.53106 0.51739 0.78593 0.0
C49 C 0.46042 0.36826 0.85795 0.0
C50 C 0.38663 0.56369 0.86378 0.0
C51 C 0.3357 0.34434 0.80353 0.0
C52 C 0.4107 0.45776 0.72947 0.0
C53 C 0.27142 0.52652 0.80468 0.0
O54 O 0.5225 0.46439 0.78333 0.0
O55 O 0.40882 0.38097 0.86259 0.0
O56 O 0.38486 0.58236 0.83566 0.0
O57 O 0.3887 0.34178 0.79759 0.0
O58 O 0.40467 0.50765 0.74104 0.0
O59 O 0.28587 0.50586 0.83086 0.0
O60 O 0.42476 0.41541 0.74572 0.0
O61 O 0.31273 0.38477 0.81823 0.0
O62 O 0.30782 0.53585 0.7835 0.0
O63 O 0.48853 0.39348 0.83723 0.0
O64 O 0.49143 0.553 0.79152 0.0
O65 O 0.39606 0.51192 0.86962 0.0
Sc66 Sc 0.22389 0.65265 0.0383 0.0
Sc67 Sc 0.32054 0.60788 0.09324 0.0
Sc68 Sc 0.36081 0.70862 0.03998 0.0
O69 O 0.30176 0.65626 0.05655 0.0
C70 C 0.30644 0.6647 0.9782 0.0
C71 C 0.24091 0.52537 0.05319 0.0
C72 C 0.42381 0.59095 0.05228 0.0
C73 C 0.20474 0.63922 0.11299 0.0
C74 C 0.24898 0.78453 0.03564 0.0
C75 C 0.3982 0.71637 0.10695 0.0
O76 O 0.25701 0.65987 0.99035 0.0
O77 O 0.26284 0.53943 0.07919 0.0
O78 O 0.42534 0.64369 0.04553 0.0
O79 O 0.18532 0.63685 0.08507 0.0
O80 O 0.30165 0.77604 1.03186 0.0
O81 O 0.38576 0.66464 0.11165 0.0
O82 O 0.21373 0.74491 0.04202 0.0
O83 O 0.25627 0.6504 0.11827 0.0
O84 O 0.37498 0.74366 0.08519 0.0
O85 O 0.23087 0.56191 0.03224 0.0
O86 O 0.34982 0.67823 0.99387 0.0
O87 O 0.38387 0.56774 0.06725 0.0
Sc88 Sc 0.95243 0.40771 0.77391 0.0
Sc89 Sc 0.85256 0.45082 0.72086 0.0
Sc90 Sc 0.89937 0.54572 0.77655 0.0
O91 O 0.90171 0.4683 0.75762 0.0
C92 C 0.91016 0.46208 0.83613 0.0
C93 C 0.83279 0.34733 0.76096 0.0
C94 C 0.77155 0.52992 0.761 0.0
C95 C 0.95849 0.36998 0.70737 0.0
C96 C 0.03114 0.51813 0.77923 0.0
C97 C 0.88744 0.56641 0.70171 0.0
O98 O 0.92335 0.41889 0.82018 0.0
O99 O 0.81102 0.38905 0.747 0.0
O100 O 0.80839 0.53981 0.78189 0.0
O101 O 0.9866 0.3938 0.72865 0.0
O102 O 0.99203 0.55444 0.77395 0.0
O103 O 0.89551 0.51446 0.69567 0.0
O104 O 0.02169 0.4653 0.78195 0.0
O105 O 0.90714 0.38353 0.7026 0.0
O106 O 0.88592 0.58512 0.72984 0.0
O107 O 0.88535 0.34445 0.7681 0.0
O108 O 0.9046 0.51164 0.8243 0.0
O109 O 0.78576 0.51004 0.73454 0.0
Sc110 Sc 0.85887 0.70085 0.52347 0.0
Sc111 Sc 0.81562 0.60435 0.46899 0.0
Sc112 Sc 0.722 0.6463 0.5261 0.0
O113 O 0.79888 0.64988 0.50705 0.0
C114 C 0.80778 0.65668 0.58539 0.0
C115 C 0.92034 0.58333 0.50762 0.0
C116 C 0.73817 0.51989 0.50812 0.0
C117 C 0.89276 0.71334 0.45716 0.0
C118 C 0.74833 0.77739 0.5311 0.0
C119 C 0.69973 0.63759 0.45144 0.0
O120 O 0.85082 0.66769 0.5689 0.0
O121 O 0.87868 0.56101 0.4936 0.0
O122 O 0.72928 0.55502 0.53011 0.0
O123 O 0.86781 0.73895 0.47888 0.0
O124 O 0.71255 0.73882 0.52362 0.0
O125 O 0.75097 0.65022 0.44609 0.0
O126 O 0.80081 0.76772 0.53473 0.0
O127 O 0.88199 0.66137 0.45183 0.0
O128 O 0.68145 0.63292 0.4795 0.0
O129 O 0.92298 0.63604 0.51466 0.0
O130 O 0.7576 0.6524 0.57394 0.0
O131 O 0.75686 0.53633 0.48178 0.0
Sc132 Sc 0.63211 0.47864 0.2753 0.0
Sc133 Sc 0.68641 0.6015 0.23611 0.0
Sc134 Sc 0.55735 0.60337 0.28743 0.0
O135 O 0.62645 0.56299 0.26576 0.0
C136 C 0.49609 0.49636 0.27121 0.0
C137 C 0.6528 0.48278 0.2021 0.0
C138 C 0.57325 0.67457 0.22419 0.0
C139 C 0.76454 0.50738 0.26659 0.0
C140 C 0.60435 0.53096 0.34046 0.0
C141 C 0.65782 0.64674 0.29993 0.0
O142 O 0.53909 0.46731 0.27958 0.0
O143 O 0.67106 0.5335 0.20402 0.0
O144 O 0.54866 0.66141 0.24946 0.0
O145 O 0.72392 0.47565 0.27508 0.0
O146 O 0.55935 0.5502 0.32838 0.0
O147 O 0.65352 0.60505 0.28112 0.0
O148 O 0.63879 0.50218 0.32402 0.0
O149 O 0.75739 0.55501 0.25358 0.0
O150 O 0.61194 0.6603 0.31236 0.0
O151 O 0.63268 0.45579 0.2256 0.0
O152 O 0.50104 0.54783 0.26368 0.0
O153 O 0.6209 0.65445 0.21572 0.0
Sc154 Sc 0.79151 0.3725 1.02441 0.0
Sc155 Sc 0.69428 0.41116 0.96832 0.0
Sc156 Sc 0.65382 0.31845 1.02611 0.0
O157 O 0.71328 0.36729 1.00668 0.0
C158 C 0.76458 0.2413 1.03144 0.0
C159 C 0.81058 0.37787 0.94955 0.0
C160 C 0.61537 0.30145 0.95956 0.0
C161 C 0.77341 0.49812 1.00516 0.0
C162 C 0.71056 0.37034 0.0853 0.0
C163 C 0.59129 0.4344 1.00887 0.0
O164 O 0.80005 0.2797 1.02335 0.0
O165 O 0.75887 0.36708 0.94424 0.0
O166 O 0.63707 0.27708 0.9828 0.0
O167 O 0.78525 0.46396 1.02705 0.0
O168 O 0.66648 0.35572 0.0706 0.0
O169 O 0.63138 0.45485 0.9929 0.0
O170 O 0.75974 0.37217 0.07273 0.0
O171 O 0.75202 0.48064 0.97963 0.0
O172 O 0.58984 0.38311 1.01838 0.0
O173 O 0.82973 0.3822 0.9774 0.0
O174 O 0.71241 0.25124 0.03625 0.0
O175 O 0.62884 0.35207 0.9525 0.0
Sc176 Sc 0.61683 0.97937 0.78182 0.0
Sc177 Sc 0.65987 0.06983 0.84101 0.0
Sc178 Sc 0.55925 0.11455 0.7892 0.0
O179 O 0.61195 0.05429 0.80344 0.0
C180 C 0.60397 0.06946 0.72492 0.0
C181 C 0.74344 0.99516 0.79969 0.0
C182 C 0.67718 0.17656 0.80303 0.0
C183 C 0.62485 0.95095 0.85624 0.0
C184 C 0.48409 1.00298 0.78033 0.0
C185 C 0.5516 0.14558 0.85635 0.0
O186 O 0.61079 0.01856 0.73487 0.0
O187 O 0.72768 0.01334 0.82624 0.0
O188 O 0.62419 0.17892 0.79701 0.0
O189 O 0.62902 0.93577 0.82752 0.0
O190 O 0.49164 0.05626 0.7795 0.0
O191 O 0.60363 0.13447 0.86071 0.0
O192 O 0.52455 0.96751 0.78373 0.0
O193 O 0.61873 1.00234 0.86441 0.0
O194 O 0.52478 0.12126 0.83481 0.0
O195 O 0.70805 0.98741 0.77777 0.0
O196 O 0.58903 0.10962 0.74272 0.0
O197 O 0.70032 0.13507 0.81662 0.0
Sc198 Sc 0.78394 0.87139 1.03197 0.0
Sc199 Sc 0.6947 0.91679 0.09083 0.0
Sc200 Sc 0.64735 0.81701 0.0391 0.0
O201 O 0.7091 0.86813 0.05349 0.0
C202 C 0.69327 0.86164 0.97516 0.0
C203 C 0.77166 0.99873 0.05012 0.0
C204 C 0.58883 0.93585 0.05266 0.0
C205 C 0.81188 0.87712 0.10627 0.0
C206 C 0.75674 0.73967 1.02846 0.0
C207 C 0.61738 0.80944 0.1066 0.0
O208 O 0.74441 0.86656 0.98509 0.0
O209 O 0.75334 0.98327 0.07663 0.0
O210 O 0.58467 0.88251 0.04786 0.0
O211 O 0.82769 0.8814 0.07771 0.0
O212 O 0.70381 0.74899 1.02772 0.0
O213 O 0.62928 0.86159 0.11036 0.0
O214 O 0.79339 0.77872 0.03342 0.0
O215 O 0.76029 0.87375 0.11429 0.0
O216 O 0.63955 0.78167 0.08465 0.0
O217 O 0.77849 0.96308 1.02819 0.0
O218 O 0.65262 0.84825 0.99296 0.0
O219 O 0.63095 0.95871 0.06597 0.0
Sc220 Sc 0.94417 0.88257 0.28889 0.0
Sc221 Sc 0.84843 0.9281 0.34328 0.0
Sc222 Sc 0.89308 0.02083 0.28582 0.0
O223 O 0.89479 0.94405 0.30546 0.0
C224 C 0.02347 0.99206 0.28003 0.0
C225 C 0.95895 0.85237 0.35598 0.0
C226 C 0.88691 0.04613 0.36033 0.0
C227 C 0.8288 0.81872 0.30789 0.0
C228 C 0.8983 0.93287 0.22727 0.0
C229 C 0.76568 0.00979 0.30397 0.0
O230 O 0.01196 0.93979 0.27611 0.0
O231 O 0.90726 0.86405 0.36164 0.0
O232 O 0.88306 0.06318 0.33202 0.0
O233 O 0.88056 0.81704 0.29921 0.0
O234 O 0.89767 0.98377 0.23812 0.0
O235 O 0.78005 0.98575 0.32937 0.0
O236 O 0.90794 0.8902 0.24428 0.0
O237 O 0.80608 0.86241 0.31957 0.0
O238 O 0.80132 0.01806 0.28217 0.0
O239 O 0.98404 0.87419 0.33303 0.0
O240 O 0.98592 0.02829 0.28807 0.0
O241 O 0.89086 0.99411 0.36732 0.0
Sc242 Sc 0.72537 0.14527 0.53219 0.0
Sc243 Sc 0.81336 0.10567 0.5927 0.0
Sc244 Sc 0.86044 0.20321 0.53977 0.0
O245 O 0.79932 0.15151 0.55441 0.0
C246 C 0.81886 0.15042 0.4768 0.0
C247 C 0.74014 0.01948 0.55172 0.0
C248 C 0.92174 0.08704 0.55663 0.0
C249 C 0.69408 0.14029 0.60643 0.0
C250 C 0.74985 0.27757 0.52775 0.0
C251 C 0.88812 0.2163 0.60674 0.0
O252 O 0.76688 0.14728 0.48559 0.0
O253 O 0.7579 0.03619 0.57822 0.0
O254 O 0.92489 0.13999 0.55053 0.0
O255 O 0.67994 0.13509 0.5776 0.0
O256 O 0.80294 0.26947 0.52669 0.0
O257 O 0.87697 0.16431 0.61187 0.0
O258 O 0.71415 0.23778 0.5329 0.0
O259 O 0.74507 0.1475 0.61494 0.0
O260 O 0.86436 0.2417 0.58457 0.0
O261 O 0.73289 0.0541 0.52948 0.0
O262 O 0.85796 0.1677 0.49462 0.0
O263 O 0.8791 0.06428 0.56933 0.0
Sc264 Sc 0.45084 0.91073 0.27342 0.0
Sc265 Sc 0.35438 0.95305 0.21847 0.0
Sc266 Sc 0.39222 0.04556 0.27746 0.0
O267 O 0.39917 0.97014 0.25699 0.0
C268 C 0.40167 0.9578 0.33561 0.0
C269 C 0.33528 0.84797 0.2577 0.0
C270 C 0.26619 0.02357 0.25813 0.0
C271 C 0.46615 0.88106 0.2063 0.0
C272 C 0.52497 0.02226 0.28322 0.0
C273 C 0.387 0.07227 0.20288 0.0
O274 O 0.41657 0.91578 0.3191 0.0
O275 O 0.31306 0.88834 0.24281 0.0
O276 O 0.30038 0.03473 0.28029 0.0
O277 O 0.48977 0.90587 0.22879 0.0
O278 O 0.48548 0.05779 0.27684 0.0
O279 O 0.39552 0.02095 0.19525 0.0
O280 O 0.5163 0.96938 0.28552 0.0
O281 O 0.41401 0.88957 0.20066 0.0
O282 O 0.38106 0.08784 0.23141 0.0
O283 O 0.38819 0.84512 0.26371 0.0
O284 O 0.39638 1.00802 0.3245 0.0
O285 O 0.28442 1.00816 0.23154 0.0
Sc286 Sc 0.35922 0.20819 1.02056 0.0
Sc287 Sc 0.31277 0.10571 0.97014 0.0
Sc288 Sc 0.22313 0.15252 1.02831 0.0
O289 O 0.29808 0.15567 1.00694 0.0
C290 C 0.31377 0.16505 0.08501 0.0
C291 C 0.41903 0.08872 1.00792 0.0
C292 C 0.23705 0.02503 1.01218 0.0
C293 C 0.3922 0.21135 0.95428 0.0
C294 C 0.24885 0.28506 1.0289 0.0
C295 C 0.19595 0.14 0.95364 0.0
O296 O 0.35375 0.17985 0.06713 0.0
O297 O 0.37622 0.06546 0.99557 0.0
O298 O 0.23021 0.06164 0.03356 0.0
O299 O 0.36642 0.24008 0.97448 0.0
O300 O 0.21271 0.24491 1.02573 0.0
O301 O 0.2473 0.14796 0.9462 0.0
O302 O 0.30198 0.2769 1.02959 0.0
O303 O 0.37943 0.15947 0.95036 0.0
O304 O 0.17985 0.13819 0.98231 0.0
O305 O 0.42245 0.14193 1.01358 0.0
O306 O 0.26254 0.1592 0.07532 0.0
O307 O 0.25417 0.03943 0.98523 0.0
Sc308 Sc 0.11671 0.97818 0.77699 0.0
Sc309 Sc 0.15976 0.07166 0.71982 0.0
Sc310 Sc 0.06231 0.11502 0.774 0.0
O311 O 0.11338 0.05504 0.75765 0.0
C312 C 0.98543 1.00391 0.78017 0.0
C313 C 0.12832 0.95477 0.70239 0.0
C314 C 0.05116 0.14883 0.70703 0.0
C315 C 0.24314 0.99398 0.76001 0.0
C316 C 0.10491 0.06375 0.83644 0.0
C317 C 0.17966 0.17737 0.7584 0.0
O318 O 0.02438 0.9682 0.77353 0.0
O319 O 0.11609 1.00582 0.69637 0.0
O320 O 0.02525 0.1254 0.72918 0.0
O321 O 0.2077 0.98575 0.78186 0.0
O322 O 0.09415 0.10664 0.81982 0.0
O323 O 0.2018 0.13602 0.74413 0.0
O324 O 0.10937 0.01357 0.82492 0.0
O325 O 0.22786 0.01406 0.7338 0.0
O326 O 0.1275 0.17919 0.76638 0.0
O327 O 0.13161 0.93717 0.73063 0.0
O328 O 0.99486 0.05654 0.78398 0.0
O329 O 0.10277 0.13702 0.70165 0.0
Sc330 Sc 0.29305 0.86551 0.52772 0.0
Sc331 Sc 0.19556 0.91335 0.47426 0.0
Sc332 Sc 0.15478 0.81295 0.52749 0.0
O333 O 0.21472 0.86351 0.51031 0.0
C334 C 0.26465 0.73367 0.53003 0.0
C335 C 0.30863 0.87744 0.45231 0.0
C336 C 0.11315 0.80823 0.46147 0.0
C337 C 0.27796 0.99318 0.51294 0.0
C338 C 0.21295 0.85457 0.58892 0.0
C339 C 0.09736 0.93433 0.51819 0.0
O340 O 0.30086 0.77289 0.52446 0.0
O341 O 0.25631 0.86901 0.44765 0.0
O342 O 0.13723 0.77963 0.48237 0.0
O343 O 0.28775 0.95646 0.5338 0.0
O344 O 0.16901 0.84115 0.57372 0.0
O345 O 0.13705 0.95575 0.50232 0.0
O346 O 0.26185 0.85985 0.57619 0.0
O347 O 0.25704 0.97905 0.48676 0.0
O348 O 0.09264 0.88113 0.52355 0.0
O349 O 0.32939 0.87929 0.48003 0.0
O350 O 0.21208 0.74308 0.53377 0.0
O351 O 0.1264 0.85986 0.45712 0.0
C352 C 0.36121 0.49837 0.31732 0.0
C353 C 0.32036 0.47803 0.29612 0.0
C354 C 0.41895 0.49908 0.3099 0.0
C355 C 0.43869 0.47917 0.2811 0.0
H356 H 0.34849 0.51671 0.33932 0.0
H357 H 0.44807 0.51861 0.32618 0.0
S358 S 0.35214 0.41238 0.21945 0.0
N359 N 0.30566 0.43032 0.24641 0.0
N360 N 0.41457 0.43296 0.2326 0.0
C361 C 0.39944 0.4551 0.26052 0.0
C362 C 0.34027 0.45405 0.26804 0.0
C363 C 0.27903 0.63426 0.51109 0.0
C364 C 0.28297 0.67443 0.5352 0.0
C365 C 0.28073 0.57561 0.5173 0.0
C366 C 0.28502 0.55498 0.54797 0.0
H367 H 0.27137 0.64818 0.4875 0.0
H368 H 0.27495 0.54636 0.49813 0.0
S369 S 0.30012 0.64349 0.61901 0.0
N370 N 0.29448 0.68988 0.59051 0.0
N371 N 0.2973 0.58039 0.6024 0.0
C372 C 0.29161 0.59509 0.57205 0.0
C373 C 0.29052 0.65455 0.56562 0.0
C374 C 0.18916 0.53487 0.76738 0.0
C375 C 0.2098 0.53613 0.79818 0.0
C376 C 0.13058 0.53426 0.76097 0.0
C377 C 0.09036 0.53627 0.78503 0.0
H378 H 0.21832 0.53077 0.74809 0.0
H379 H 0.11672 0.52888 0.73715 0.0
S380 S 0.12107 0.54591 0.86928 0.0
N381 N 0.18414 0.54405 0.85279 0.0
N382 N 0.07485 0.54301 0.84054 0.0
C383 C 0.11022 0.54093 0.81567 0.0
C384 C 0.16963 0.541 0.82229 0.0
C385 C 0.23767 0.38424 1.00985 0.0
C386 C 0.23051 0.34439 0.0338 0.0
C387 C 0.23705 0.4429 1.01601 0.0
C388 C 0.23089 0.46394 0.04652 0.0
H389 H 0.24703 0.36994 0.98647 0.0
H390 H 0.24524 0.47175 0.997 0.0
S391 S 0.20656 0.37673 0.117 0.0
N392 N 0.21345 0.32982 0.08872 0.0
N393 N 0.21283 0.43956 0.1005 0.0
C394 C 0.22091 0.42433 0.07038 0.0
C395 C 0.2207 0.36474 0.06398 0.0
C396 C 0.6113 0.53281 0.74961 0.0
C397 C 0.58999 0.53638 0.78005 0.0
C398 C 0.66978 0.53414 0.7436 0.0
C399 C 0.7098 0.53841 0.76784 0.0
H400 H 0.58256 0.52572 0.73036 0.0
H401 H 0.68365 0.52916 0.71977 0.0
S402 S 0.67513 0.55095 0.8519 0.0
N403 N 0.6128 0.54626 0.83467 0.0
N404 N 0.72265 0.54907 0.82376 0.0
C405 C 0.68867 0.54478 0.7984 0.0
C406 C 0.62889 0.54347 0.80441 0.0
C407 C 0.73786 0.36042 0.49281 0.0
C408 C 0.73121 0.33673 0.5225 0.0
C409 C 0.73662 0.41937 0.48822 0.0
C410 C 0.72965 0.4575 0.51326 0.0
H411 H 0.74717 0.33323 0.47314 0.0
H412 H 0.74389 0.43508 0.46493 0.0
S413 S 0.70842 0.41606 0.59578 0.0
N414 N 0.71531 0.35513 0.5772 0.0
N415 N 0.71306 0.46587 0.56899 0.0
C416 C 0.72029 0.43392 0.54299 0.0
C417 C 0.72125 0.37366 0.54752 0.0
C418 C 0.84497 0.4761 0.30046 0.0
C419 C 0.82331 0.48781 0.27071 0.0
C420 C 0.90363 0.46987 0.30518 0.0
C421 C 0.94177 0.4739 0.28016 0.0
H422 H 0.81709 0.4764 0.32044 0.0
H423 H 0.9195 0.46688 0.32873 0.0
S424 S 0.905 0.49587 0.19741 0.0
N425 N 0.84356 0.49717 0.21568 0.0
N426 N 0.95318 0.48445 0.22447 0.0
C427 C 0.91979 0.48039 0.25009 0.0
C428 C 0.86063 0.48768 0.24537 0.0
C429 C 0.75621 0.59803 0.98783 0.0
C430 C 0.7799 0.56081 1.00986 0.0
C431 C 0.75294 0.65647 0.99334 0.0
C432 C 0.77406 0.68089 1.02081 0.0
H433 H 0.73723 0.58181 0.96669 0.0
H434 H 0.7313 0.68262 0.97644 0.0
S435 S 0.84596 0.60457 0.08464 0.0
N436 N 0.82934 0.55424 0.05945 0.0
N437 N 0.82319 0.66456 0.06941 0.0
C438 C 0.80112 0.64529 0.04223 0.0
C439 C 0.80405 0.58523 0.03684 0.0
C440 C 0.84361 0.99327 0.81939 0.0
C441 C 0.80553 0.98584 0.79442 0.0
C442 C 0.9024 0.99355 0.81483 0.0
C443 C 0.9261 0.98569 0.78521 0.0
H444 H 0.82808 1.00183 0.84259 0.0
H445 H 0.92955 1.00324 0.83444 0.0
S446 S 0.84689 0.96066 0.71218 0.0
N447 N 0.79708 0.96696 0.7389 0.0
N448 N 0.90779 0.96774 0.73067 0.0
C449 C 0.88924 0.97509 0.76027 0.0
C450 C 0.829 0.97499 0.76479 0.0
C451 C 0.77736 0.09887 0.07012 0.0
C452 C 0.78181 0.06082 0.04486 0.0
C453 C 0.77714 0.15781 0.06572 0.0
C454 C 0.78239 0.18167 0.03599 0.0
H455 H 0.77111 0.08316 0.09349 0.0
H456 H 0.76969 0.18496 0.08564 0.0
S457 S 0.79941 0.10254 0.96216 0.0
N458 N 0.79512 0.05256 0.98889 0.0
N459 N 0.79492 0.16346 0.98099 0.0
C460 C 0.79025 0.14479 1.0107 0.0
C461 C 0.79009 0.08444 1.01506 0.0
C462 C 0.62346 0.03858 0.26389 0.0
C463 C 0.58469 0.0397 0.28873 0.0
C464 C 0.68221 0.03243 0.26903 0.0
C465 C 0.70461 0.02583 0.29925 0.0
H466 H 0.60794 0.03816 0.2402 0.0
H467 H 0.70973 0.02913 0.24899 0.0
S468 S 0.62103 0.03115 0.37237 0.0
N469 N 0.57322 0.03778 0.34464 0.0
N470 N 0.6827 0.02649 0.35452 0.0
C471 C 0.66636 0.0304 0.32433 0.0
C472 C 0.6068 0.03713 0.31901 0.0
C473 C 0.74122 0.86024 0.56636 0.0
C474 C 0.73056 0.83661 0.53693 0.0
C475 C 0.74095 0.91906 0.57118 0.0
C476 C 0.73088 0.95721 0.54661 0.0
H477 H 0.75296 0.83301 0.58555 0.0
H478 H 0.75157 0.93461 0.59415 0.0
S479 S 0.69761 0.91602 0.4651 0.0
N480 N 0.70693 0.85502 0.48312 0.0
N481 N 0.70634 0.96577 0.49177 0.0
C482 C 0.71724 0.93376 0.51726 0.0
C483 C 0.71719 0.8735 0.51251 0.0
C484 C 0.1097 0.98869 0.24662 0.0
C485 C 0.08312 0.00958 0.27354 0.0
C486 C 0.16789 0.99615 0.24141 0.0
C487 C 0.20312 0.02381 0.26321 0.0
H488 H 0.08541 0.96488 0.22966 0.0
H489 H 0.18565 0.97767 0.22054 0.0
S490 S 0.15379 0.089 0.33708 0.0
N491 N 0.09569 0.06175 0.32168 0.0
N492 N 0.20555 0.07476 0.31246 0.0
C493 C 0.17671 0.04654 0.28993 0.0
C494 C 0.11676 0.03975 0.29492 0.0
C495 C 0.23111 0.92361 0.99429 0.0
C496 C 0.22816 0.96329 1.01882 0.0
C497 C 0.2323 0.86505 0.99995 0.0
C498 C 0.2298 0.84336 1.0303 0.0
H499 H 0.2353 0.93779 0.97048 0.0
H500 H 0.23853 0.83653 0.98048 0.0
S501 S 0.21769 0.92741 0.10274 0.0
N502 N 0.21914 0.97543 0.07488 0.0
N503 N 0.22156 0.86527 0.08512 0.0
C504 C 0.22362 0.88187 0.05495 0.0
C505 C 0.22256 0.94177 0.0493 0.0
C506 C 0.38631 0.98988 0.80095 0.0
C507 C 0.42484 0.98379 0.77625 0.0
C508 C 0.32743 0.98915 0.79582 0.0
C509 C 0.30479 0.98383 0.76562 0.0
H510 H 0.40184 0.99868 0.82416 0.0
H511 H 0.29966 0.99659 0.81542 0.0
S512 S 0.38822 0.96213 0.6934 0.0
N513 N 0.43651 0.96854 0.72094 0.0
N514 N 0.32637 0.96741 0.71104 0.0
C515 C 0.34311 0.9747 0.74098 0.0
C516 C 0.40294 0.97476 0.74634 0.0
C517 C 0.27819 0.13357 0.55708 0.0
C518 C 0.28381 0.17392 0.53329 0.0
C519 C 0.28033 0.07505 0.55058 0.0
C520 C 0.28663 0.05468 0.51993 0.0
H521 H 0.26892 0.14724 0.58058 0.0
H522 H 0.27322 0.04566 0.56944 0.0
S523 S 0.30629 0.1437 0.44971 0.0
N524 N 0.29887 0.18987 0.47831 0.0
N525 N 0.30239 0.08045 0.46593 0.0
C526 C 0.29476 0.09492 0.4962 0.0
C527 C 0.29334 0.15434 0.50292 0.0
C528 C 0.28286 0.70546 0.28359 0.0
C529 C 0.22606 0.71662 0.29129 0.0
C530 C 0.31814 0.74824 0.27261 0.0
C531 C 0.29759 0.80338 0.26887 0.0
H532 H 0.30015 0.66315 0.28575 0.0
H533 H 0.3615 0.73793 0.26671 0.0
S534 S 0.15341 0.85541 0.28811 0.0
N535 N 0.15155 0.787 0.29595 0.0
N536 N 0.21801 0.8681 0.27526 0.0
C537 C 0.24102 0.81539 0.27682 0.0
C538 C 0.20512 0.77174 0.28803 0.0
C539 C 0.99666 0.45099 0.53205 0.0
C540 C 0.05228 0.47023 0.53607 0.0
C541 C 0.95439 0.48812 0.52248 0.0
C542 C 0.96648 0.54558 0.51663 0.0
H543 H 0.98537 0.40745 0.53714 0.0
H544 H 0.91162 0.47187 0.52036 0.0
S545 S 0.107 0.61523 0.52041 0.0
N546 N 0.1186 0.54914 0.53111 0.0
N547 N 0.03846 0.61909 0.51333 0.0
C548 C 0.02225 0.56502 0.51969 0.0
C549 C 0.0654 0.5272 0.52931 0.0
C550 C 0.24875 0.28709 0.80878 0.0
C551 C 0.29811 0.30005 0.79199 0.0
C552 C 0.20908 0.24895 0.79706 0.0
C553 C 0.21773 0.22268 0.76823 0.0
H554 H 0.2408 0.30646 0.83121 0.0
H555 H 0.17233 0.2388 0.81106 0.0
S556 S 0.33757 0.2464 0.71401 0.0
N557 N 0.35199 0.2867 0.74441 0.0
N558 N 0.27722 0.21436 0.72221 0.0
C559 C 0.2664 0.23606 0.7509 0.0
C560 C 0.30684 0.27484 0.76289 0.0
C561 C 0.52142 0.4662 0.04778 0.0
C562 C 0.54692 0.47344 1.01865 0.0
C563 C 0.48291 0.50584 0.05896 0.0
C564 C 0.4688 0.55382 0.04133 0.0
H565 H 0.53214 0.43039 0.06234 0.0
H566 H 0.46398 0.49883 0.08156 0.0
S567 S 0.52097 0.58994 0.96266 0.0
N568 N 0.5539 0.5306 0.97172 0.0
N569 N 0.48091 0.60534 0.99292 0.0
C570 C 0.49364 0.56145 1.01208 0.0
C571 C 0.5328 0.52102 1.00064 0.0
C572 C 0.80594 0.26985 0.79682 0.0
C573 C 0.79413 0.302 0.77029 0.0
C574 C 0.76677 0.23052 0.80783 0.0
C575 C 0.7146 0.22218 0.79267 0.0
H576 H 0.84503 0.27595 0.80957 0.0
H577 H 0.77747 0.20649 0.82843 0.0
S578 S 0.66532 0.2933 0.72093 0.0
N579 N 0.72812 0.32112 0.72804 0.0
N580 N 0.65407 0.24752 0.74919 0.0
C581 C 0.70248 0.25372 0.76596 0.0
C582 C 0.74251 0.29342 0.75457 0.0
C583 C 0.78559 0.73724 0.27937 0.0
C584 C 0.79362 0.76755 0.3071 0.0
C585 C 0.74291 0.69592 0.27715 0.0
C586 C 0.70769 0.6838 0.30269 0.0
H587 H 0.80986 0.74797 0.25884 0.0
H588 H 0.73576 0.67622 0.25488 0.0
S589 S 0.71875 0.74521 0.38181 0.0
N590 N 0.7676 0.77863 0.36141 0.0
N591 N 0.68862 0.70022 0.35745 0.0
C592 C 0.71839 0.7111 0.33107 0.0
C593 C 0.76113 0.75319 0.33324 0.0
C594 C 0.53753 0.02716 0.05496 0.0
C595 C 0.54444 0.97343 0.04125 0.0
C596 C 0.4983 0.06554 0.04323 0.0
C597 C 0.46498 0.05131 1.01741 0.0
H598 H 0.56228 0.03955 0.07506 0.0
H599 H 0.49294 0.10581 0.055 0.0
S600 S 0.47065 0.91814 0.97141 0.0
N601 N 0.51716 0.90915 0.99955 0.0
N602 N 0.44385 0.98179 0.97706 0.0
C603 C 0.4726 0.99838 1.00293 0.0
C604 C 0.51212 0.95916 1.01505 0.0
C605 C 0.99825 0.95443 0.53286 0.0
C606 C 0.05408 0.9733 0.52953 0.0
C607 C 0.9559 0.99188 0.54185 0.0
C608 C 0.9681 0.04933 0.54789 0.0
H609 H 0.9869 0.91088 0.52773 0.0
H610 H 0.91302 0.97579 0.54348 0.0
S611 S 0.10894 0.1184 0.54508 0.0
N612 N 0.12059 0.05204 0.53472 0.0
N613 N 0.04022 0.12269 0.55155 0.0
C614 C 0.02398 0.06855 0.54525 0.0
C615 C 0.06725 0.03037 0.53614 0.0
C616 C 0.21585 0.43445 0.4044 0.0
C617 C 0.16807 0.4139 0.38822 0.0
C618 C 0.23366 0.41008 0.43242 0.0
C619 C 0.2038 0.36463 0.4456 0.0
H620 H 0.23811 0.47162 0.39606 0.0
H621 H 0.26834 0.42978 0.44492 0.0
S622 S 0.0809 0.28999 0.41006 0.0
N623 N 0.09532 0.34163 0.38541 0.0
N624 N 0.12802 0.29556 0.43829 0.0
C625 C 0.15852 0.34092 0.42837 0.0
C626 C 0.14081 0.36559 0.3996 0.0
C627 C 0.34757 0.47305 0.68349 0.0
C628 C 0.39401 0.44513 0.69677 0.0
C629 C 0.32187 0.45224 0.65632 0.0
C630 C 0.34201 0.40327 0.64106 0.0
H631 H 0.32848 0.50887 0.69523 0.0
H632 H 0.28446 0.4736 0.64776 0.0
S633 S 0.46669 0.31872 0.66392 0.0
N634 N 0.4624 0.36862 0.69081 0.0
N635 N 0.41407 0.33057 0.63951 0.0
C636 C 0.39072 0.37733 0.65269 0.0
C637 C 0.41667 0.39801 0.68061 0.0
C638 C 0.38134 0.64776 0.90031 0.0
C639 C 0.35949 0.596 0.8895 0.0
C640 C 0.36094 0.67226 0.92808 0.0
C641 C 0.31706 0.64664 0.94554 0.0
H642 H 0.41649 0.66757 0.88837 0.0
H643 H 0.3814 0.71029 0.93671 0.0
S644 S 0.24334 0.51263 0.92586 0.0
N645 N 0.28997 0.52123 0.89771 0.0
N646 N 0.25091 0.5682 0.94883 0.0
C647 C 0.29262 0.59688 0.93378 0.0
C648 C 0.31411 0.57133 0.90608 0.0
C649 C 0.12391 0.63029 0.15118 0.0
C650 C 0.17482 0.60987 0.13876 0.0
C651 C 0.10265 0.60864 0.17941 0.0
C652 C 0.13088 0.56504 0.19576 0.0
H653 H 0.10245 0.66544 0.14019 0.0
H654 H 0.06525 0.62805 0.18931 0.0
S655 S 0.26326 0.49439 0.1714 0.0
N656 N 0.25125 0.54174 0.1441 0.0
N657 N 0.21014 0.50011 0.19606 0.0
C658 C 0.17945 0.54172 0.18229 0.0
C659 C 0.20174 0.56449 0.15412 0.0
C660 C 0.79227 0.59794 0.63313 0.0
C661 C 0.81939 0.64376 0.61865 0.0
C662 C 0.81293 0.57584 0.6612 0.0
C663 C 0.86093 0.59909 0.67617 0.0
H664 H 0.75758 0.57635 0.62162 0.0
H665 H 0.79278 0.53826 0.67052 0.0
S666 S 0.94216 0.72439 0.65026 0.0
N667 N 0.89327 0.7156 0.62321 0.0
N668 N 0.93126 0.67382 0.67609 0.0
C669 C 0.88563 0.64755 0.66333 0.0
C670 C 0.86504 0.66988 0.63455 0.0
C671 C 0.67885 0.54184 0.38144 0.0
C672 C 0.623 0.55222 0.37171 0.0
C673 C 0.70187 0.56892 0.40752 0.0
C674 C 0.67024 0.6074 0.4256 0.0
H675 H 0.70624 0.51424 0.3681 0.0
H676 H 0.7456 0.56012 0.41331 0.0
S677 S 0.52062 0.64647 0.4123 0.0
N678 N 0.53523 0.60191 0.38374 0.0
N679 N 0.57899 0.65185 0.43327 0.0
C680 C 0.61351 0.61619 0.41738 0.0
C681 C 0.58988 0.58896 0.39036 0.0
C682 C 0.68184 0.36647 0.14167 0.0
C683 C 0.70084 0.39768 0.11582 0.0
C684 C 0.66422 0.39383 0.16927 0.0
C685 C 0.66333 0.45349 0.17163 0.0
H686 H 0.6805 0.32063 0.14052 0.0
H687 H 0.65203 0.36804 0.18894 0.0
S688 S 0.70092 0.5538 0.10799 0.0
N689 N 0.71311 0.49054 0.09311 0.0
N690 N 0.67845 0.54234 0.14372 0.0
C691 C 0.67997 0.48478 0.14506 0.0
C692 C 0.69905 0.45686 0.11753 0.0
C693 C 0.83943 0.46917 0.87881 0.0
C694 C 0.89271 0.4508 0.86865 0.0
C695 C 0.81445 0.44613 0.90553 0.0
C696 C 0.84208 0.4045 0.9235 0.0
H697 H 0.81511 0.49853 0.86487 0.0
H698 H 0.77222 0.45995 0.91171 0.0
S699 S 0.9856 0.34805 0.90918 0.0
N700 N 0.9746 0.39216 0.88005 0.0
N701 N 0.9281 0.3505 0.931 0.0
C702 C 0.89709 0.38896 0.91497 0.0
C703 C 0.9222 0.41161 0.88733 0.0
C704 C 0.60224 0.89942 0.90492 0.0
C705 C 0.64166 0.91232 0.88169 0.0
C706 C 0.61972 0.8801 0.93419 0.0
C707 C 0.67764 0.87481 0.94213 0.0
H708 H 0.55764 0.90732 0.90104 0.0
H709 H 0.58712 0.87207 0.95124 0.0
S710 S 0.79773 0.89966 0.88833 0.0
N711 N 0.74105 0.9145 0.86743 0.0
N712 N 0.77416 0.88026 0.92285 0.0
C713 C 0.71746 0.88506 0.91849 0.0
C714 C 0.6994 0.90338 0.88828 0.0
C715 C 0.85854 0.84827 0.15496 0.0
C716 C 0.85103 0.8896 0.13209 0.0
C717 C 0.87611 0.86296 0.18499 0.0
C718 C 0.88569 0.92003 0.19387 0.0
H719 H 0.84709 0.8046 0.1502 0.0
H720 H 0.87917 0.82901 0.20179 0.0
S721 S 0.87546 0.04406 0.1414 0.0
N722 N 0.85777 0.98952 0.11927 0.0
N723 N 0.89011 0.01761 0.17599 0.0
C724 C 0.88107 0.96158 0.17063 0.0
C725 C 0.86397 0.94625 0.13973 0.0
C726 C 0.80388 0.13305 0.41888 0.0
C727 C 0.83772 0.12887 0.44573 0.0
C728 C 0.82272 0.11147 0.38997 0.0
C729 C 0.87575 0.08452 0.38699 0.0
H730 H 0.7624 0.15228 0.42029 0.0
H731 H 0.79412 0.11269 0.3703 0.0
S732 S 0.97984 0.06124 0.45005 0.0
N733 N 0.92721 0.09513 0.46701 0.0
N734 N 0.96128 0.0548 0.41325 0.0
C735 C 0.91014 0.08114 0.41346 0.0
C736 C 0.89148 0.10316 0.44262 0.0
C737 C 0.64244 0.16196 0.65529 0.0
C738 C 0.65504 0.123 0.6317 0.0
C739 C 0.62297 0.14388 0.68445 0.0
C740 C 0.61722 0.08572 0.69196 0.0
H741 H 0.65074 0.20667 0.65179 0.0
H742 H 0.6153 0.17616 0.7018 0.0
S743 S 0.64088 0.96661 0.63713 0.0
N744 N 0.65618 0.02375 0.61666 0.0
N745 N 0.62181 0.98952 0.67188 0.0
C746 C 0.62713 0.04637 0.66798 0.0
C747 C 0.64553 0.06506 0.63786 0.0
C748 C 0.38895 0.13909 0.12363 0.0
C749 C 0.33102 0.14983 0.11752 0.0
C750 C 0.40766 0.11889 0.15246 0.0
C751 C 0.36984 0.10996 0.17702 0.0
H752 H 0.42034 0.14339 0.10545 0.0
H753 H 0.45179 0.10742 0.15505 0.0
S754 S 0.2148 0.13472 0.17485 0.0
N755 N 0.23641 0.15209 0.1396 0.0
N756 N 0.27206 0.11557 0.19415 0.0
C757 C 0.31237 0.12329 0.17207 0.0
C758 C 0.29287 0.14279 0.14232 0.0
C759 C 0.18043 0.06378 0.91444 0.0
C760 C 0.16091 0.11416 0.92863 0.0
C761 C 0.15873 0.04457 0.88583 0.0
C762 C 0.11707 0.07547 0.86998 0.0
H763 H 0.21535 0.04074 0.92466 0.0
H764 H 0.17772 1.0077 0.87506 0.0
S765 S 0.04631 0.20582 0.89925 0.0
N766 N 0.09369 0.19115 0.92626 0.0
N767 N 0.05226 0.15559 0.87267 0.0
C768 C 0.09422 0.12363 0.88515 0.0
C769 C 0.11628 0.1429 0.91439 0.0
C770 C 0.13967 0.86933 0.66723 0.0
C771 C 0.15742 0.92335 0.67692 0.0
C772 C 0.16154 0.84476 0.63981 0.0
C773 C 0.20308 0.87257 0.62165 0.0
H774 H 0.10633 0.84758 0.67972 0.0
H775 H 0.14378 0.80491 0.6319 0.0
S776 S 0.26725 0.01248 0.6388 0.0
N777 N 0.22138 1.00238 0.66716 0.0
N778 N 0.26351 0.9552 0.61682 0.0
C779 C 0.22399 0.92459 0.63248 0.0
C780 C 0.20081 0.95023 0.65976 0.0
C781 C 0.41055 0.90018 0.38467 0.0
C782 C 0.38485 0.94527 0.36827 0.0
C783 C 0.38851 0.88026 0.41313 0.0
C784 C 0.33925 0.904 0.42582 0.0
H785 H 0.44689 0.87874 0.37484 0.0
H786 H 0.40819 0.84422 0.42425 0.0
S787 S 0.25703 0.02396 0.39292 0.0
N788 N 0.3092 0.01451 0.36799 0.0
N789 N 0.26682 0.97647 0.42046 0.0
C790 C 0.3146 0.95046 0.41024 0.0
C791 C 0.33763 0.97134 0.38178 0.0
C792 C 0.07135 0.74284 0.37067 0.0
C793 C 0.03977 0.69222 0.36985 0.0
C794 C 0.04439 0.7958 0.36979 0.0
C795 C 0.98495 0.8001 0.36861 0.0
H796 H 0.11705 0.74171 0.36877 0.0
H797 H 0.07033 0.83348 0.36752 0.0
S798 S 0.88329 0.68021 0.37201 0.0
N799 N 0.94613 0.6498 0.37226 0.0
N800 N 0.89557 0.74908 0.37109 0.0
C801 C 0.95305 0.74996 0.37132 0.0
C802 C 0.98046 0.69609 0.37183 0.0
C803 C 0.04573 0.22787 0.61788 0.0
C804 C 0.05495 0.28685 0.61672 0.0
C805 C 0.99085 0.20504 0.61839 0.0
C806 C 0.94295 0.2403 0.61728 0.0
H807 H 0.08118 0.19897 0.61631 0.0
H808 H 0.98618 0.15943 0.61695 0.0
S809 S 0.94344 0.39741 0.61853 0.0
N810 N 0.01108 0.38004 0.61827 0.0
N811 N 0.9081 0.33696 0.61862 0.0
C812 C 0.95148 0.29925 0.61871 0.0
C813 C 1.00739 0.32257 0.61864 0.0
C814 C 0.54089 0.30301 0.86937 0.0
C815 C 0.48207 0.3122 0.868 0.0
C816 C 0.56343 0.24802 0.86943 0.0
C817 C 0.52798 0.20011 0.86752 0.0
H818 H 0.56985 0.33861 0.86836 0.0
H819 H 0.60897 0.24335 0.86819 0.0
S820 S 0.37103 0.20052 0.86791 0.0
N821 N 0.38875 0.26821 0.86852 0.0
N822 N 0.43125 0.16517 0.86799 0.0
C823 C 0.46914 0.20859 0.86876 0.0
C824 C 0.44613 0.26452 0.86916 0.0
C825 C 0.51526 0.82235 0.11844 0.0
C826 C 0.56329 0.78722 0.11898 0.0
C827 C 0.46055 0.79921 0.11851 0.0
C828 C 0.45186 0.74017 0.11947 0.0
H829 H 0.51977 0.86755 0.11478 0.0
H830 H 0.42506 0.82747 0.11505 0.0
S831 S 0.5637 0.6314 0.12905 0.0
N832 N 0.59877 0.69176 0.12611 0.0
N833 N 0.496 0.6481 0.12705 0.0
C834 C 0.4994 0.70534 0.12429 0.0
C835 C 0.55516 0.72892 0.12371 0.0
C836 C 0.06217 0.25117 0.69414 0.0
C837 C 0.02708 0.20298 0.69577 0.0
C838 C 0.0392 0.30596 0.6946 0.0
C839 C 0.98031 0.31467 0.69615 0.0
H840 H 0.10773 0.24682 0.69545 0.0
H841 H 0.06789 0.34176 0.69595 0.0
S842 S 0.87013 0.20227 0.69528 0.0
N843 N 0.9306 0.16734 0.69498 0.0
N844 N 0.88734 0.27011 0.69518 0.0
C845 C 0.94474 0.26681 0.69449 0.0
C846 C 0.96816 0.21103 0.6945 0.0
C847 C 0.99598 0.70285 0.44729 0.0
C848 C 0.94768 0.73759 0.4473 0.0
C849 C 0.05046 0.72637 0.44852 0.0
C850 C 0.05878 0.78548 0.44944 0.0
H851 H 0.99172 0.65725 0.44907 0.0
H852 H 0.08615 0.698 0.45102 0.0
S853 S 0.94622 0.89457 0.44423 0.0
N854 N 0.91165 0.83366 0.44419 0.0
N855 N 0.01402 0.87808 0.44595 0.0
C856 C 0.01102 0.82056 0.44616 0.0
C857 C 0.95548 0.79655 0.44534 0.0
C858 C 0.48848 0.72514 0.20442 0.0
C859 C 0.5478 0.72183 0.20667 0.0
C860 C 0.46145 0.77701 0.19904 0.0
C861 C 0.49296 0.82743 0.19651 0.0
H862 H 0.46265 0.68836 0.20962 0.0
H863 H 0.41573 0.7784 0.20067 0.0
S864 S 0.6493 0.83929 0.1938 0.0
N865 N 0.63725 0.77132 0.20016 0.0
N866 N 0.5864 0.86927 0.19103 0.0
C867 C 0.55225 0.8234 0.19485 0.0
C868 C 0.57976 0.77038 0.19971 0.0
C869 C 0.45908 0.29111 0.94425 0.0
C870 C 0.44915 0.23229 0.9452 0.0
C871 C 0.51416 0.31329 0.94523 0.0
C872 C 0.56147 0.2775 0.9478 0.0
H873 H 0.42384 0.32038 0.9447 0.0
H874 H 0.51924 0.35886 0.94669 0.0
S875 S 0.55948 0.12044 0.94664 0.0
N876 N 0.49211 0.13855 0.94485 0.0
N877 N 0.59543 0.18052 0.94768 0.0
C878 C 0.55252 0.21867 0.94629 0.0
C879 C 0.49644 0.19598 0.94469 0.0
loop_
_geom_bond_atom_site_label_1
_geom_bond_atom_site_label_2
_geom_bond_distance
_geom_bond_site_symmetry_2
_ccdc_geom_bond_type
Sc0 O3 2.025 . S
Sc0 O10 2.105 . S
Sc0 O13 2.105 . S
Sc0 O16 2.105 . S
Sc0 O19 2.105 . S
Sc1 O3 2.025 . S
Sc1 O11 2.105 . S
Sc1 O15 2.105 . S
Sc1 O17 2.105 . S
Sc1 O21 2.105 . S
Sc2 O3 2.025 . S
Sc2 O12 2.105 . S
Sc2 O14 2.105 . S
Sc2 O18 2.105 . S
Sc2 O20 2.105 . S
O3 Sc0 2.025 . S
O3 Sc1 2.025 . S
O3 Sc2 2.025 . S
C4 O10 1.268 . S
C4 O20 1.268 . S
C5 O11 1.268 . S
C5 O19 1.268 . S
C6 O12 1.268 . S
C6 O21 1.268 . S
C7 O13 1.268 . S
C7 O17 1.268 . S
C8 O14 1.268 . S
C8 O16 1.268 . S
C9 O15 1.268 . S
C9 O18 1.268 . S
O10 Sc0 2.105 . S
O10 C4 1.268 . S
O11 Sc1 2.105 . S
O11 C5 1.268 . S
O12 Sc2 2.105 . S
O12 C6 1.268 . S
O13 Sc0 2.105 . S
O13 C7 1.268 . S
O14 Sc2 2.105 . S
O14 C8 1.268 . S
O15 Sc1 2.105 . S
O15 C9 1.268 . S
O16 Sc0 2.105 . S
O16 C8 1.268 . S
O17 Sc1 2.105 . S
O17 C7 1.268 . S
O18 Sc2 2.105 . S
O18 C9 1.268 . S
O19 Sc0 2.105 . S
O19 C5 1.268 . S
O20 Sc2 2.105 . S
O20 C4 1.268 . S
O21 Sc1 2.105 . S
O21 C6 1.268 . S
Sc22 O25 2.025 . S
Sc22 O32 2.105 . S
Sc22 O35 2.105 . S
Sc22 O38 2.105 . S
Sc22 O41 2.105 . S
Sc23 O25 2.025 . S
Sc23 O33 2.105 . S
Sc23 O37 2.105 . S
Sc23 O39 2.105 . S
Sc23 O43 2.105 . S
Sc24 O25 2.025 . S
Sc24 O34 2.105 . S
Sc24 O36 2.105 . S
Sc24 O40 2.105 . S
Sc24 O42 2.105 . S
O25 Sc22 2.025 . S
O25 Sc23 2.025 . S
O25 Sc24 2.025 . S
C26 O32 1.268 . S
C26 O42 1.268 . S
C27 O33 1.268 . S
C27 O41 1.268 . S
C28 O34 1.268 . S
C28 O43 1.268 . S
C29 O35 1.268 . S
C29 O39 1.268 . S
C30 O36 1.268 . S
C30 O38 1.268 . S
C31 O37 1.268 . S
C31 O40 1.268 . S
O32 Sc22 2.105 . S
O32 C26 1.268 . S
O33 Sc23 2.105 . S
O33 C27 1.268 . S
O34 Sc24 2.105 . S
O34 C28 1.268 . S
O35 Sc22 2.105 . S
O35 C29 1.268 . S
O36 Sc24 2.105 . S
O36 C30 1.268 . S
O37 Sc23 2.105 . S
O37 C31 1.268 . S
O38 Sc22 2.105 . S
O38 C30 1.268 . S
O39 Sc23 2.105 . S
O39 C29 1.268 . S
O40 Sc24 2.105 . S
O40 C31 1.268 . S
O41 Sc22 2.105 . S
O41 C27 1.268 . S
O42 Sc24 2.105 . S
O42 C26 1.268 . S
O43 Sc23 2.105 . S
O43 C28 1.268 . S
Sc44 O47 2.025 . S
Sc44 O54 2.105 . S
Sc44 O57 2.105 . S
Sc44 O60 2.105 . S
Sc44 O63 2.105 . S
Sc45 O47 2.025 . S
Sc45 O55 2.105 . S
Sc45 O59 2.105 . S
Sc45 O61 2.105 . S
Sc45 O65 2.105 . S
Sc46 O47 2.025 . S
Sc46 O56 2.105 . S
Sc46 O58 2.105 . S
Sc46 O62 2.105 . S
Sc46 O64 2.105 . S
O47 Sc44 2.025 . S
O47 Sc45 2.025 . S
O47 Sc46 2.025 . S
C48 O54 1.268 . S
C48 O64 1.268 . S
C49 O55 1.268 . S
C49 O63 1.268 . S
C50 O56 1.268 . S
C50 O65 1.268 . S
C51 O57 1.268 . S
C51 O61 1.268 . S
C52 O58 1.268 . S
C52 O60 1.268 . S
C53 O59 1.268 . S
C53 O62 1.268 . S
O54 Sc44 2.105 . S
O54 C48 1.268 . S
O55 Sc45 2.105 . S
O55 C49 1.268 . S
O56 Sc46 2.105 . S
O56 C50 1.268 . S
O57 Sc44 2.105 . S
O57 C51 1.268 . S
O58 Sc46 2.105 . S
O58 C52 1.268 . S
O59 Sc45 2.105 . S
O59 C53 1.268 . S
O60 Sc44 2.105 . S
O60 C52 1.268 . S
O61 Sc45 2.105 . S
O61 C51 1.268 . S
O62 Sc46 2.105 . S
O62 C53 1.268 . S
O63 Sc44 2.105 . S
O63 C49 1.268 . S
O64 Sc46 2.105 . S
O64 C48 1.268 . S
O65 Sc45 2.105 . S
O65 C50 1.268 . S
Sc66 O69 2.025 . S
Sc66 O76 2.105 1_554 S
Sc66 O79 2.105 . S
Sc66 O82 2.113 . S
Sc66 O85 2.105 . S
Sc67 O69 2.025 . S
Sc67 O77 2.105 . S
Sc67 O81 2.105 . S
Sc67 O83 2.105 . S
Sc67 O87 2.105 . S
Sc68 O69 2.025 1_556 S
Sc68 O78 2.105 . S
Sc68 O80 2.105 . S
Sc68 O84 2.105 1_556 S
Sc68 O86 2.105 . S
O69 Sc66 2.025 . S
O69 Sc67 2.025 . S
O69 Sc68 2.025 1_554 S
C70 O76 1.268 . S
C70 O86 1.268 . S
C71 O77 1.268 . S
C71 O85 1.268 . S
C72 O78 1.268 . S
C72 O87 1.268 1_556 S
C73 O79 1.268 . S
C73 O83 1.268 . S
C74 O80 1.268 . S
C74 O82 1.258 1_556 S
C75 O81 1.268 . S
C75 O84 1.268 . S
O76 Sc66 2.105 1_556 S
O76 C70 1.268 . S
O77 Sc67 2.105 . S
O77 C71 1.268 . S
O78 Sc68 2.105 . S
O78 C72 1.268 . S
O79 Sc66 2.105 . S
O79 C73 1.268 . S
O80 Sc68 2.105 . S
O80 C74 1.268 . S
O81 Sc67 2.105 . S
O81 C75 1.268 . S
O82 Sc66 2.113 . S
O82 C74 1.258 1_554 S
O83 Sc67 2.105 . S
O83 C73 1.268 . S
O84 Sc68 2.105 1_554 S
O84 C75 1.268 . S
O85 Sc66 2.105 . S
O85 C71 1.268 . S
O86 Sc68 2.105 . S
O86 C70 1.268 . S
O87 Sc67 2.105 . S
O87 C72 1.268 1_554 S
Sc88 O91 2.025 . S
Sc88 O98 2.105 . S
Sc88 O101 2.105 . S
Sc88 O104 2.105 . S
Sc88 O107 2.105 . S
Sc89 O91 2.025 . S
Sc89 O99 2.105 . S
Sc89 O103 2.105 . S
Sc89 O105 2.105 . S
Sc89 O109 2.105 . S
Sc90 O91 2.025 . S
Sc90 O100 2.105 . S
Sc90 O102 2.105 . S
Sc90 O106 2.105 . S
Sc90 O108 2.105 . S
O91 Sc88 2.025 . S
O91 Sc89 2.025 . S
O91 Sc90 2.025 . S
C92 O98 1.268 . S
C92 O108 1.268 . S
C93 O99 1.268 . S
C93 O107 1.268 . S
C94 O100 1.268 . S
C94 O109 1.268 . S
C95 O101 1.268 . S
C95 O105 1.268 . S
C96 O102 1.268 . S
C96 O104 1.268 . S
C97 O103 1.268 . S
C97 O106 1.268 . S
O98 Sc88 2.105 . S
O98 C92 1.268 . S
O99 Sc89 2.105 . S
O99 C93 1.268 . S
O100 Sc90 2.105 . S
O100 C94 1.268 . S
O101 Sc88 2.105 . S
O101 C95 1.268 . S
O102 Sc90 2.105 . S
O102 C96 1.268 . S
O103 Sc89 2.105 . S
O103 C97 1.268 . S
O104 Sc88 2.105 . S
O104 C96 1.268 . S
O105 Sc89 2.105 . S
O105 C95 1.268 . S
O106 Sc90 2.105 . S
O106 C97 1.268 . S
O107 Sc88 2.105 . S
O107 C93 1.268 . S
O108 Sc90 2.105 . S
O108 C92 1.268 . S
O109 Sc89 2.105 . S
O109 C94 1.268 . S
Sc110 O113 2.025 . S
Sc110 O120 2.105 . S
Sc110 O123 2.105 . S
Sc110 O126 2.105 . S
Sc110 O129 2.105 . S
Sc111 O113 2.025 . S
Sc111 O121 2.105 . S
Sc111 O125 2.105 . S
Sc111 O127 2.105 . S
Sc111 O131 2.105 . S
Sc112 O113 2.025 . S
Sc112 O122 2.105 . S
Sc112 O124 2.105 . S
Sc112 O128 2.105 . S
Sc112 O130 2.105 . S
O113 Sc110 2.025 . S
O113 Sc111 2.025 . S
O113 Sc112 2.025 . S
C114 O120 1.268 . S
C114 O130 1.268 . S
C115 O121 1.268 . S
C115 O129 1.268 . S
C116 O122 1.268 . S
C116 O131 1.268 . S
C117 O123 1.268 . S
C117 O127 1.268 . S
C118 O124 1.268 . S
C118 O126 1.268 . S
C119 O125 1.268 . S
C119 O128 1.268 . S
O120 Sc110 2.105 . S
O120 C114 1.268 . S
O121 Sc111 2.105 . S
O121 C115 1.268 . S
O122 Sc112 2.105 . S
O122 C116 1.268 . S
O123 Sc110 2.105 . S
O123 C117 1.268 . S
O124 Sc112 2.105 . S
O124 C118 1.268 . S
O125 Sc111 2.105 . S
O125 C119 1.268 . S
O126 Sc110 2.105 . S
O126 C118 1.268 . S
O127 Sc111 2.105 . S
O127 C117 1.268 . S
O128 Sc112 2.105 . S
O128 C119 1.268 . S
O129 Sc110 2.105 . S
O129 C115 1.268 . S
O130 Sc112 2.105 . S
O130 C114 1.268 . S
O131 Sc111 2.105 . S
O131 C116 1.268 . S
Sc132 O135 2.025 . S
Sc132 O142 2.105 . S
Sc132 O145 2.105 . S
Sc132 O148 2.105 . S
Sc132 O151 2.105 . S
Sc133 O135 2.025 . S
Sc133 O143 2.105 . S
Sc133 O147 2.105 . S
Sc133 O149 2.105 . S
Sc133 O153 2.105 . S
Sc134 O135 2.025 . S
Sc134 O144 2.105 . S
Sc134 O146 2.105 . S
Sc134 O150 2.105 . S
Sc134 O152 2.105 . S
O135 Sc132 2.025 . S
O135 Sc133 2.025 . S
O135 Sc134 2.025 . S
C136 O142 1.268 . S
C136 O152 1.268 . S
C137 O143 1.268 . S
C137 O151 1.268 . S
C138 O144 1.268 . S
C138 O153 1.268 . S
C139 O145 1.268 . S
C139 O149 1.268 . S
C140 O146 1.268 . S
C140 O148 1.268 . S
C141 O147 1.268 . S
C141 O150 1.268 . S
O142 Sc132 2.105 . S
O142 C136 1.268 . S
O143 Sc133 2.105 . S
O143 C137 1.268 . S
O144 Sc134 2.105 . S
O144 C138 1.268 . S
O145 Sc132 2.105 . S
O145 C139 1.268 . S
O146 Sc134 2.105 . S
O146 C140 1.268 . S
O147 Sc133 2.105 . S
O147 C141 1.268 . S
O148 Sc132 2.105 . S
O148 C140 1.268 . S
O149 Sc133 2.105 . S
O149 C139 1.268 . S
O150 Sc134 2.105 . S
O150 C141 1.268 . S
O151 Sc132 2.105 . S
O151 C137 1.268 . S
O152 Sc134 2.105 . S
O152 C136 1.268 . S
O153 Sc133 2.105 . S
O153 C138 1.268 . S
Sc154 O157 2.025 . S
Sc154 O164 2.113 . S
Sc154 O167 2.105 . S
Sc154 O170 2.105 1_556 S
Sc154 O173 2.105 . S
Sc155 O157 2.025 . S
Sc155 O165 2.105 . S
Sc155 O169 2.105 . S
Sc155 O171 2.105 . S
Sc155 O175 2.105 . S
Sc156 O157 2.025 1_554 S
Sc156 O166 2.105 1_554 S
Sc156 O168 2.105 . S
Sc156 O172 2.105 . S
Sc156 O174 2.105 . S
O157 Sc154 2.025 . S
O157 Sc155 2.025 . S
O157 Sc156 2.025 1_556 S
C158 O164 1.258 1_554 S
C158 O174 1.268 . S
C159 O165 1.268 . S
C159 O173 1.268 . S
C160 O166 1.268 . S
C160 O175 1.268 . S
C161 O167 1.268 . S
C161 O171 1.268 . S
C162 O168 1.268 . S
C162 O170 1.268 . S
C163 O169 1.268 1_554 S
C163 O172 1.268 . S
O164 Sc154 2.113 . S
O164 C158 1.258 1_556 S
O165 Sc155 2.105 . S
O165 C159 1.268 . S
O166 Sc156 2.105 1_556 S
O166 C160 1.268 . S
O167 Sc154 2.105 . S
O167 C161 1.268 . S
O168 Sc156 2.105 . S
O168 C162 1.268 . S
O169 Sc155 2.105 . S
O169 C163 1.268 1_556 S
O170 Sc154 2.105 1_554 S
O170 C162 1.268 . S
O171 Sc155 2.105 . S
O171 C161 1.268 . S
O172 Sc156 2.105 . S
O172 C163 1.268 . S
O173 Sc154 2.105 . S
O173 C159 1.268 . S
O174 Sc156 2.105 . S
O174 C158 1.268 . S
O175 Sc155 2.105 . S
O175 C160 1.268 . S
Sc176 O179 2.025 1_565 S
Sc176 O186 2.105 . S
Sc176 O189 2.105 . S
Sc176 O192 2.105 . S
Sc176 O195 2.105 . S
Sc177 O179 2.025 . S
Sc177 O187 2.105 . S
Sc177 O191 2.105 . S
Sc177 O193 2.105 . S
Sc177 O197 2.105 . S
Sc178 O179 2.025 . S
Sc178 O188 2.105 . S
Sc178 O190 2.105 . S
Sc178 O194 2.105 . S
Sc178 O196 2.105 . S
O179 Sc176 2.025 1_545 S
O179 Sc177 2.025 . S
O179 Sc178 2.025 . S
C180 O186 1.268 1_545 S
C180 O196 1.268 . S
C181 O187 1.268 . S
C181 O195 1.268 1_545 S
C182 O188 1.268 . S
C182 O197 1.268 . S
C183 O189 1.268 . S
C183 O193 1.268 1_565 S
C184 O190 1.268 . S
C184 O192 1.268 1_545 S
C185 O191 1.268 . S
C185 O194 1.268 . S
O186 Sc176 2.105 . S
O186 C180 1.268 1_565 S
O187 Sc177 2.105 . S
O187 C181 1.268 . S
O188 Sc178 2.105 . S
O188 C182 1.268 . S
O189 Sc176 2.105 . S
O189 C183 1.268 . S
O190 Sc178 2.105 . S
O190 C184 1.268 . S
O191 Sc177 2.105 . S
O191 C185 1.268 . S
O192 Sc176 2.105 . S
O192 C184 1.268 1_565 S
O193 Sc177 2.105 . S
O193 C183 1.268 1_545 S
O194 Sc178 2.105 . S
O194 C185 1.268 . S
O195 Sc176 2.105 . S
O195 C181 1.268 1_565 S
O196 Sc178 2.105 . S
O196 C180 1.268 . S
O197 Sc177 2.105 . S
O197 C182 1.268 . S
Sc198 O201 2.025 . S
Sc198 O208 2.105 1_554 S
Sc198 O211 2.105 . S
Sc198 O214 2.113 . S
Sc198 O217 2.105 1_565 S
Sc199 O201 2.025 . S
Sc199 O209 2.105 1_565 S
Sc199 O213 2.105 . S
Sc199 O215 2.105 . S
Sc199 O219 2.105 . S
Sc200 O201 2.025 1_556 S
Sc200 O210 2.105 . S
Sc200 O212 2.105 . S
Sc200 O216 2.105 1_556 S
Sc200 O218 2.105 . S
O201 Sc198 2.025 . S
O201 Sc199 2.025 . S
O201 Sc200 2.025 1_554 S
C202 O208 1.268 . S
C202 O218 1.268 . S
C203 O209 1.268 . S
C203 O217 1.268 . S
C204 O210 1.268 . S
C204 O219 1.268 1_556 S
C205 O211 1.268 . S
C205 O215 1.268 . S
C206 O212 1.268 . S
C206 O214 1.258 1_556 S
C207 O213 1.268 . S
C207 O216 1.268 . S
O208 Sc198 2.105 1_556 S
O208 C202 1.268 . S
O209 Sc199 2.105 1_545 S
O209 C203 1.268 . S
O210 Sc200 2.105 . S
O210 C204 1.268 . S
O211 Sc198 2.105 . S
O211 C205 1.268 . S
O212 Sc200 2.105 . S
O212 C206 1.268 . S
O213 Sc199 2.105 . S
O213 C207 1.268 . S
O214 Sc198 2.113 . S
O214 C206 1.258 1_554 S
O215 Sc199 2.105 . S
O215 C205 1.268 . S
O216 Sc200 2.105 1_554 S
O216 C207 1.268 . S
O217 Sc198 2.105 1_545 S
O217 C203 1.268 . S
O218 Sc200 2.105 . S
O218 C202 1.268 . S
O219 Sc199 2.105 . S
O219 C204 1.268 1_554 S
Sc220 O223 2.025 . S
Sc220 O230 2.105 . S
Sc220 O233 2.105 . S
Sc220 O236 2.105 . S
Sc220 O239 2.105 . S
Sc221 O223 2.025 . S
Sc221 O231 2.105 . S
Sc221 O235 2.105 . S
Sc221 O237 2.105 . S
Sc221 O241 2.105 . S
Sc222 O223 2.025 1_545 S
Sc222 O232 2.105 . S
Sc222 O234 2.105 . S
Sc222 O238 2.105 . S
Sc222 O240 2.105 . S
O223 Sc220 2.025 . S
O223 Sc221 2.025 . S
O223 Sc222 2.025 1_565 S
C224 O230 1.268 . S
C224 O240 1.268 1_565 S
C225 O231 1.268 . S
C225 O239 1.268 . S
C226 O232 1.268 . S
C226 O241 1.268 1_545 S
C227 O233 1.268 . S
C227 O237 1.268 . S
C228 O234 1.268 1_565 S
C228 O236 1.268 . S
C229 O235 1.268 . S
C229 O238 1.268 1_565 S
O230 Sc220 2.105 . S
O230 C224 1.268 . S
O231 Sc221 2.105 . S
O231 C225 1.268 . S
O232 Sc222 2.105 . S
O232 C226 1.268 . S
O233 Sc220 2.105 . S
O233 C227 1.268 . S
O234 Sc222 2.105 . S
O234 C228 1.268 1_545 S
O235 Sc221 2.105 . S
O235 C229 1.268 . S
O236 Sc220 2.105 . S
O236 C228 1.268 . S
O237 Sc221 2.105 . S
O237 C227 1.268 . S
O238 Sc222 2.105 . S
O238 C229 1.268 1_545 S
O239 Sc220 2.105 . S
O239 C225 1.268 . S
O240 Sc222 2.105 . S
O240 C224 1.268 1_545 S
O241 Sc221 2.105 . S
O241 C226 1.268 1_565 S
Sc242 O245 2.025 . S
Sc242 O252 2.105 . S
Sc242 O255 2.105 . S
Sc242 O258 2.105 . S
Sc242 O261 2.105 1_545 S
Sc243 O245 2.025 . S
Sc243 O253 2.105 1_545 S
Sc243 O257 2.105 . S
Sc243 O259 2.105 . S
Sc243 O263 2.105 . S
Sc244 O245 2.025 . S
Sc244 O254 2.105 . S
Sc244 O256 2.105 . S
Sc244 O260 2.105 . S
Sc244 O262 2.105 . S
O245 Sc242 2.025 . S
O245 Sc243 2.025 . S
O245 Sc244 2.025 . S
C246 O252 1.268 . S
C246 O262 1.268 . S
C247 O253 1.268 . S
C247 O261 1.268 . S
C248 O254 1.268 . S
C248 O263 1.268 . S
C249 O255 1.268 . S
C249 O259 1.268 . S
C250 O256 1.268 . S
C250 O258 1.268 . S
C251 O257 1.268 . S
C251 O260 1.268 . S
O252 Sc242 2.105 . S
O252 C246 1.268 . S
O253 Sc243 2.105 1_565 S
O253 C247 1.268 . S
O254 Sc244 2.105 . S
O254 C248 1.268 . S
O255 Sc242 2.105 . S
O255 C249 1.268 . S
O256 Sc244 2.105 . S
O256 C250 1.268 . S
O257 Sc243 2.105 . S
O257 C251 1.268 . S
O258 Sc242 2.105 . S
O258 C250 1.268 . S
O259 Sc243 2.105 . S
O259 C249 1.268 . S
O260 Sc244 2.105 . S
O260 C251 1.268 . S
O261 Sc242 2.105 1_565 S
O261 C247 1.268 . S
O262 Sc244 2.105 . S
O262 C246 1.268 . S
O263 Sc243 2.105 . S
O263 C248 1.268 . S
Sc264 O267 2.025 . S
Sc264 O274 2.105 . S
Sc264 O277 2.105 . S
Sc264 O280 2.105 . S
Sc264 O283 2.105 . S
Sc265 O267 2.025 . S
Sc265 O275 2.105 . S
Sc265 O279 2.105 . S
Sc265 O281 2.105 . S
Sc265 O285 2.105 . S
Sc266 O267 2.025 1_545 S
Sc266 O276 2.105 . S
Sc266 O278 2.105 . S
Sc266 O282 2.105 . S
Sc266 O284 2.105 . S
O267 Sc264 2.025 . S
O267 Sc265 2.025 . S
O267 Sc266 2.025 1_565 S
C268 O274 1.268 . S
C268 O284 1.268 1_565 S
C269 O275 1.268 . S
C269 O283 1.268 . S
C270 O276 1.268 1_565 S
C270 O285 1.268 . S
C271 O277 1.268 . S
C271 O281 1.268 . S
C272 O278 1.268 1_565 S
C272 O280 1.268 . S
C273 O279 1.268 1_545 S
C273 O282 1.268 . S
O274 Sc264 2.105 . S
O274 C268 1.268 . S
O275 Sc265 2.105 . S
O275 C269 1.268 . S
O276 Sc266 2.105 . S
O276 C270 1.268 1_545 S
O277 Sc264 2.105 . S
O277 C271 1.268 . S
O278 Sc266 2.105 . S
O278 C272 1.268 1_545 S
O279 Sc265 2.105 . S
O279 C273 1.268 1_565 S
O280 Sc264 2.105 . S
O280 C272 1.268 . S
O281 Sc265 2.105 . S
O281 C271 1.268 . S
O282 Sc266 2.105 . S
O282 C273 1.268 . S
O283 Sc264 2.105 . S
O283 C269 1.268 . S
O284 Sc266 2.105 . S
O284 C268 1.268 1_545 S
O285 Sc265 2.105 . S
O285 C270 1.268 . S
Sc286 O289 2.025 1_554 S
Sc286 O296 2.105 . S
Sc286 O299 2.105 1_554 S
Sc286 O302 2.105 . S
Sc286 O305 2.105 . S
Sc287 O289 2.025 . S
Sc287 O297 2.105 . S
Sc287 O301 2.105 . S
Sc287 O303 2.105 . S
Sc287 O307 2.105 1_545 S
Sc288 O289 2.025 . S
Sc288 O298 2.105 1_545 S
Sc288 O300 2.113 . S
Sc288 O304 2.105 . S
Sc288 O306 2.105 1_556 S
O289 Sc286 2.025 1_556 S
O289 Sc287 2.025 . S
O289 Sc288 2.025 . S
C290 O296 1.268 . S
C290 O306 1.268 . S
C291 O297 1.268 1_554 S
C291 O305 1.268 . S
C292 O298 1.268 . S
C292 O307 1.268 . S
C293 O299 1.268 . S
C293 O303 1.268 . S
C294 O300 1.258 1_554 S
C294 O302 1.268 . S
C295 O301 1.268 . S
C295 O304 1.268 . S
O296 Sc286 2.105 . S
O296 C290 1.268 . S
O297 Sc287 2.105 . S
O297 C291 1.268 1_556 S
O298 Sc288 2.105 1_565 S
O298 C292 1.268 . S
O299 Sc286 2.105 1_556 S
O299 C293 1.268 . S
O300 Sc288 2.113 . S
O300 C294 1.258 1_556 S
O301 Sc287 2.105 . S
O301 C295 1.268 . S
O302 Sc286 2.105 . S
O302 C294 1.268 . S
O303 Sc287 2.105 . S
O303 C293 1.268 . S
O304 Sc288 2.105 . S
O304 C295 1.268 . S
O305 Sc286 2.105 . S
O305 C291 1.268 . S
O306 Sc288 2.105 1_554 S
O306 C290 1.268 . S
O307 Sc287 2.105 1_565 S
O307 C292 1.268 . S
Sc308 O311 2.025 1_565 S
Sc308 O318 2.105 . S
Sc308 O321 2.105 . S
Sc308 O324 2.105 . S
Sc308 O327 2.105 . S
Sc309 O311 2.025 . S
Sc309 O319 2.105 . S
Sc309 O323 2.105 . S
Sc309 O325 2.105 . S
Sc309 O329 2.105 . S
Sc310 O311 2.025 . S
Sc310 O320 2.105 . S
Sc310 O322 2.105 . S
Sc310 O326 2.105 . S
Sc310 O328 2.105 . S
O311 Sc308 2.025 1_545 S
O311 Sc309 2.025 . S
O311 Sc310 2.025 . S
C312 O318 1.268 1_545 S
C312 O328 1.268 . S
C313 O319 1.268 1_565 S
C313 O327 1.268 . S
C314 O320 1.268 . S
C314 O329 1.268 . S
C315 O321 1.268 1_545 S
C315 O325 1.268 . S
C316 O322 1.268 . S
C316 O324 1.268 1_545 S
C317 O323 1.268 . S
C317 O326 1.268 . S
O318 Sc308 2.105 . S
O318 C312 1.268 1_565 S
O319 Sc309 2.105 . S
O319 C313 1.268 1_545 S
O320 Sc310 2.105 . S
O320 C314 1.268 . S
O321 Sc308 2.105 . S
O321 C315 1.268 1_565 S
O322 Sc310 2.105 . S
O322 C316 1.268 . S
O323 Sc309 2.105 . S
O323 C317 1.268 . S
O324 Sc308 2.105 . S
O324 C316 1.268 1_565 S
O325 Sc309 2.105 . S
O325 C315 1.268 . S
O326 Sc310 2.105 . S
O326 C317 1.268 . S
O327 Sc308 2.105 . S
O327 C313 1.268 . S
O328 Sc310 2.105 . S
O328 C312 1.268 . S
O329 Sc309 2.105 . S
O329 C314 1.268 . S
Sc330 O333 2.025 . S
Sc330 O340 2.105 . S
Sc330 O343 2.105 1_565 S
Sc330 O346 2.105 . S
Sc330 O349 2.105 . S
Sc331 O333 2.025 . S
Sc331 O341 2.105 . S
Sc331 O345 2.105 . S
Sc331 O347 2.105 1_565 S
Sc331 O351 2.105 . S
Sc332 O333 2.025 . S
Sc332 O342 2.105 . S
Sc332 O344 2.105 . S
Sc332 O348 2.105 . S
Sc332 O350 2.105 . S
O333 Sc330 2.025 . S
O333 Sc331 2.025 . S
O333 Sc332 2.025 . S
C334 O340 1.268 . S
C334 O350 1.268 . S
C335 O341 1.268 . S
C335 O349 1.268 . S
C336 O342 1.268 . S
C336 O351 1.268 . S
C337 O343 1.268 . S
C337 O347 1.268 . S
C338 O344 1.268 . S
C338 O346 1.268 . S
C339 O345 1.268 . S
C339 O348 1.268 . S
O340 Sc330 2.105 . S
O340 C334 1.268 . S
O341 Sc331 2.105 . S
O341 C335 1.268 . S
O342 Sc332 2.105 . S
O342 C336 1.268 . S
O343 Sc330 2.105 1_545 S
O343 C337 1.268 . S
O344 Sc332 2.105 . S
O344 C338 1.268 . S
O345 Sc331 2.105 . S
O345 C339 1.268 . S
O346 Sc330 2.105 . S
O346 C338 1.268 . S
O347 Sc331 2.105 1_545 S
O347 C337 1.268 . S
O348 Sc332 2.105 . S
O348 C339 1.268 . S
O349 Sc330 2.105 . S
O349 C335 1.268 . S
O350 Sc332 2.105 . S
O350 C334 1.268 . S
O351 Sc331 2.105 . S
O351 C336 1.268 . S
C352 C353 1.369 . S
C352 C354 1.419 . S
C352 H356 0.930 . S
C353 C352 1.369 . S
C353 C362 1.429 . S
C354 C352 1.419 . S
C354 C355 1.363 . S
C354 H357 0.929 . S
C355 C354 1.363 . S
C355 C361 1.428 . S
H356 C352 0.930 . S
H357 C354 0.929 . S
S358 N359 1.613 . S
S358 N360 1.610 . S
N359 S358 1.613 . S
N359 C362 1.350 . S
N360 S358 1.610 . S
N360 C361 1.351 . S
C361 C355 1.428 . S
C361 N360 1.351 . S
C361 C362 1.434 . S
C362 C353 1.429 . S
C362 N359 1.350 . S
C362 C361 1.434 . S
C363 C364 1.369 . S
C363 C365 1.419 . S
C363 H367 0.930 . S
C364 C363 1.369 . S
C364 C373 1.429 . S
C365 C363 1.419 . S
C365 C366 1.363 . S
C365 H368 0.929 . S
C366 C365 1.363 . S
C366 C372 1.428 . S
H367 C363 0.930 . S
H368 C365 0.929 . S
S369 N370 1.613 . S
S369 N371 1.610 . S
N370 S369 1.613 . S
N370 C373 1.350 . S
N371 S369 1.610 . S
N371 C372 1.351 . S
C372 C366 1.428 . S
C372 N371 1.351 . S
C372 C373 1.434 . S
C373 C364 1.429 . S
C373 N370 1.350 . S
C373 C372 1.434 . S
C374 C375 1.369 . S
C374 C376 1.419 . S
C374 H378 0.930 . S
C375 C374 1.369 . S
C375 C384 1.429 . S
C376 C374 1.419 . S
C376 C377 1.363 . S
C376 H379 0.929 . S
C377 C376 1.363 . S
C377 C383 1.428 . S
H378 C374 0.930 . S
H379 C376 0.929 . S
S380 N381 1.613 . S
S380 N382 1.610 . S
N381 S380 1.613 . S
N381 C384 1.350 . S
N382 S380 1.610 . S
N382 C383 1.351 . S
C383 C377 1.428 . S
C383 N382 1.351 . S
C383 C384 1.434 . S
C384 C375 1.429 . S
C384 N381 1.350 . S
C384 C383 1.434 . S
C385 C386 1.369 1_556 S
C385 C387 1.419 . S
C385 H389 0.930 . S
C386 C385 1.369 1_554 S
C386 C395 1.429 . S
C387 C385 1.419 . S
C387 C388 1.363 1_556 S
C387 H390 0.929 . S
C388 C387 1.363 1_554 S
C388 C394 1.428 . S
H389 C385 0.930 . S
H390 C387 0.929 . S
S391 N392 1.613 . S
S391 N393 1.610 . S
N392 S391 1.613 . S
N392 C395 1.350 . S
N393 S391 1.610 . S
N393 C394 1.351 . S
C394 C388 1.428 . S
C394 N393 1.351 . S
C394 C395 1.434 . S
C395 C386 1.429 . S
C395 N392 1.350 . S
C395 C394 1.434 . S
C396 C397 1.369 . S
C396 C398 1.419 . S
C396 H400 0.930 . S
C397 C396 1.369 . S
C397 C406 1.429 . S
C398 C396 1.419 . S
C398 C399 1.363 . S
C398 H401 0.929 . S
C399 C398 1.363 . S
C399 C405 1.428 . S
H400 C396 0.930 . S
H401 C398 0.929 . S
S402 N403 1.613 . S
S402 N404 1.610 . S
N403 S402 1.613 . S
N403 C406 1.350 . S
N404 S402 1.610 . S
N404 C405 1.351 . S
C405 C399 1.428 . S
C405 N404 1.351 . S
C405 C406 1.434 . S
C406 C397 1.429 . S
C406 N403 1.350 . S
C406 C405 1.434 . S
C407 C408 1.369 . S
C407 C409 1.419 . S
C407 H411 0.930 . S
C408 C407 1.369 . S
C408 C417 1.429 . S
C409 C407 1.419 . S
C409 C410 1.363 . S
C409 H412 0.929 . S
C410 C409 1.363 . S
C410 C416 1.428 . S
H411 C407 0.930 . S
H412 C409 0.929 . S
S413 N414 1.613 . S
S413 N415 1.610 . S
N414 S413 1.613 . S
N414 C417 1.350 . S
N415 S413 1.610 . S
N415 C416 1.351 . S
C416 C410 1.428 . S
C416 N415 1.351 . S
C416 C417 1.434 . S
C417 C408 1.429 . S
C417 N414 1.350 . S
C417 C416 1.434 . S
C418 C419 1.369 . S
C418 C420 1.419 . S
C418 H422 0.930 . S
C419 C418 1.369 . S
C419 C428 1.429 . S
C420 C418 1.419 . S
C420 C421 1.363 . S
C420 H423 0.929 . S
C421 C420 1.363 . S
C421 C427 1.428 . S
H422 C418 0.930 . S
H423 C420 0.929 . S
S424 N425 1.613 . S
S424 N426 1.610 . S
N425 S424 1.613 . S
N425 C428 1.350 . S
N426 S424 1.610 . S
N426 C427 1.351 . S
C427 C421 1.428 . S
C427 N426 1.351 . S
C427 C428 1.434 . S
C428 C419 1.429 . S
C428 N425 1.350 . S
C428 C427 1.434 . S
C429 C430 1.369 . S
C429 C431 1.419 . S
C429 H433 0.930 . S
C430 C429 1.369 . S
C430 C439 1.429 1_556 S
C431 C429 1.419 . S
C431 C432 1.363 . S
C431 H434 0.929 . S
C432 C431 1.363 . S
C432 C438 1.428 1_556 S
H433 C429 0.930 . S
H434 C431 0.929 . S
S435 N436 1.613 . S
S435 N437 1.610 . S
N436 S435 1.613 . S
N436 C439 1.350 . S
N437 S435 1.610 . S
N437 C438 1.351 . S
C438 C432 1.428 1_554 S
C438 N437 1.351 . S
C438 C439 1.434 . S
C439 C430 1.429 1_554 S
C439 N436 1.350 . S
C439 C438 1.434 . S
C440 C441 1.369 . S
C440 C442 1.419 . S
C440 H444 0.930 . S
C441 C440 1.369 . S
C441 C450 1.429 1_545 S
C442 C440 1.419 . S
C442 C443 1.363 1_545 S
C442 H445 0.929 . S
C443 C442 1.363 1_565 S
C443 C449 1.428 . S
H444 C440 0.930 . S
H445 C442 0.929 . S
S446 N447 1.613 . S
S446 N448 1.610 . S
N447 S446 1.613 . S
N447 C450 1.350 . S
N448 S446 1.610 . S
N448 C449 1.351 . S
C449 C443 1.428 . S
C449 N448 1.351 . S
C449 C450 1.434 . S
C450 C441 1.429 1_565 S
C450 N447 1.350 . S
C450 C449 1.434 . S
C451 C452 1.369 . S
C451 C453 1.419 . S
C451 H455 0.930 . S
C452 C451 1.369 . S
C452 C461 1.437 . S
C453 C451 1.419 . S
C453 C454 1.363 . S
C453 H456 0.929 . S
C454 C453 1.363 . S
C454 C460 1.428 1_554 S
H455 C451 0.930 . S
H456 C453 0.929 . S
S457 N458 1.613 . S
S457 N459 1.610 . S
N458 S457 1.613 . S
N458 C461 1.343 1_556 S
N459 S457 1.610 . S
N459 C460 1.351 . S
C460 C454 1.428 1_556 S
C460 N459 1.351 . S
C460 C461 1.432 1_556 S
C461 C452 1.437 . S
C461 N458 1.343 1_554 S
C461 C460 1.432 1_554 S
C462 C463 1.369 . S
C462 C464 1.419 . S
C462 H466 0.930 . S
C463 C462 1.369 . S
C463 C472 1.429 1_545 S
C464 C462 1.419 . S
C464 C465 1.363 1_545 S
C464 H467 0.929 . S
C465 C464 1.363 1_565 S
C465 C471 1.428 . S
H466 C462 0.930 . S
H467 C464 0.929 . S
S468 N469 1.613 . S
S468 N470 1.610 . S
N469 S468 1.613 . S
N469 C472 1.350 . S
N470 S468 1.610 . S
N470 C471 1.351 . S
C471 C465 1.428 . S
C471 N470 1.351 . S
C471 C472 1.434 . S
C472 C463 1.429 1_565 S
C472 N469 1.350 . S
C472 C471 1.434 . S
C473 C474 1.369 . S
C473 C475 1.419 . S
C473 H477 0.930 . S
C474 C473 1.369 . S
C474 C483 1.429 . S
C475 C473 1.419 . S
C475 C476 1.363 . S
C475 H478 0.929 . S
C476 C475 1.363 . S
C476 C482 1.428 . S
H477 C473 0.930 . S
H478 C475 0.929 . S
S479 N480 1.613 . S
S479 N481 1.610 . S
N480 S479 1.613 . S
N480 C483 1.350 . S
N481 S479 1.610 . S
N481 C482 1.351 . S
C482 C476 1.428 . S
C482 N481 1.351 . S
C482 C483 1.434 . S
C483 C474 1.429 . S
C483 N480 1.350 . S
C483 C482 1.434 . S
C484 C485 1.369 1_565 S
C484 C486 1.419 . S
C484 H488 0.930 . S
C485 C484 1.369 1_545 S
C485 C494 1.429 . S
C486 C484 1.419 . S
C486 C487 1.363 . S
C486 H489 0.929 . S
C487 C486 1.363 . S
C487 C493 1.428 1_565 S
H488 C484 0.930 . S
H489 C486 0.929 . S
S490 N491 1.613 . S
S490 N492 1.610 . S
N491 S490 1.613 . S
N491 C494 1.350 . S
N492 S490 1.610 . S
N492 C493 1.351 . S
C493 C487 1.428 1_545 S
C493 N492 1.351 . S
C493 C494 1.434 . S
C494 C485 1.429 . S
C494 N491 1.350 . S
C494 C493 1.434 . S
C495 C496 1.369 . S
C495 C497 1.419 . S
C495 H499 0.930 . S
C496 C495 1.369 . S
C496 C505 1.429 . S
C497 C495 1.419 . S
C497 C498 1.363 . S
C497 H500 0.929 . S
C498 C497 1.363 . S
C498 C504 1.428 1_556 S
H499 C495 0.930 . S
H500 C497 0.929 . S
S501 N502 1.613 . S
S501 N503 1.610 . S
N502 S501 1.613 . S
N502 C505 1.350 1_554 S
N503 S501 1.610 . S
N503 C504 1.351 . S
C504 C498 1.428 1_554 S
C504 N503 1.351 . S
C504 C505 1.434 1_554 S
C505 C496 1.429 . S
C505 N502 1.350 1_556 S
C505 C504 1.434 1_556 S
C506 C507 1.369 . S
C506 C508 1.419 . S
C506 H510 0.930 . S
C507 C506 1.369 . S
C507 C516 1.429 1_565 S
C508 C506 1.419 . S
C508 C509 1.363 1_565 S
C508 H511 0.929 . S
C509 C508 1.363 1_545 S
C509 C515 1.428 . S
H510 C506 0.930 . S
H511 C508 0.929 . S
S512 N513 1.613 . S
S512 N514 1.610 . S
N513 S512 1.613 . S
N513 C516 1.350 . S
N514 S512 1.610 . S
N514 C515 1.351 . S
C515 C509 1.428 . S
C515 N514 1.351 . S
C515 C516 1.434 . S
C516 C507 1.429 1_545 S
C516 N513 1.350 . S
C516 C515 1.434 . S
C517 C518 1.369 . S
C517 C519 1.419 . S
C517 H521 0.930 . S
C518 C517 1.369 . S
C518 C527 1.429 . S
C519 C517 1.419 . S
C519 C520 1.363 . S
C519 H522 0.929 . S
C520 C519 1.363 . S
C520 C526 1.428 . S
H521 C517 0.930 . S
H522 C519 0.929 . S
S523 N524 1.613 . S
S523 N525 1.610 . S
N524 S523 1.613 . S
N524 C527 1.350 . S
N525 S523 1.610 . S
N525 C526 1.351 . S
C526 C520 1.428 . S
C526 N525 1.351 . S
C526 C527 1.434 . S
C527 C518 1.429 . S
C527 N524 1.350 . S
C527 C526 1.434 . S
C528 C529 1.369 . S
C528 C530 1.419 . S
C528 H532 0.930 . S
C529 C528 1.369 . S
C529 C538 1.429 . S
C530 C528 1.419 . S
C530 C531 1.363 . S
C530 H533 0.929 . S
C531 C530 1.363 . S
C531 C537 1.428 . S
H532 C528 0.930 . S
H533 C530 0.929 . S
S534 N535 1.613 . S
S534 N536 1.610 . S
N535 S534 1.613 . S
N535 C538 1.350 . S
N536 S534 1.610 . S
N536 C537 1.351 . S
C537 C531 1.428 . S
C537 N536 1.351 . S
C537 C538 1.434 . S
C538 C529 1.429 . S
C538 N535 1.350 . S
C538 C537 1.434 . S
C539 C540 1.369 . S
C539 C541 1.419 1_455 S
C539 H543 0.930 . S
C540 C539 1.369 . S
C540 C549 1.429 . S
C541 C539 1.419 1_655 S
C541 C542 1.363 . S
C541 H544 0.929 . S
C542 C541 1.363 . S
C542 C548 1.428 . S
H543 C539 0.930 . S
H544 C541 0.929 . S
S545 N546 1.613 . S
S545 N547 1.610 1_455 S
N546 S545 1.613 . S
N546 C549 1.350 . S
N547 S545 1.610 1_655 S
N547 C548 1.351 . S
C548 C542 1.428 . S
C548 N547 1.351 . S
C548 C549 1.434 1_655 S
C549 C540 1.429 . S
C549 N546 1.350 . S
C549 C548 1.434 1_455 S
C550 C551 1.369 . S
C550 C552 1.419 . S
C550 H554 0.930 . S
C551 C550 1.369 . S
C551 C560 1.429 . S
C552 C550 1.419 . S
C552 C553 1.363 . S
C552 H555 0.929 . S
C553 C552 1.363 . S
C553 C559 1.428 . S
H554 C550 0.930 . S
H555 C552 0.929 . S
S556 N557 1.613 . S
S556 N558 1.610 . S
N557 S556 1.613 . S
N557 C560 1.350 . S
N558 S556 1.610 . S
N558 C559 1.351 . S
C559 C553 1.428 . S
C559 N558 1.351 . S
C559 C560 1.434 . S
C560 C551 1.429 . S
C560 N557 1.350 . S
C560 C559 1.434 . S
C561 C562 1.369 . S
C561 C563 1.419 1_554 S
C561 H565 0.930 . S
C562 C561 1.369 . S
C562 C571 1.429 . S
C563 C561 1.419 1_556 S
C563 C564 1.363 . S
C563 H566 0.929 . S
C564 C563 1.363 . S
C564 C570 1.428 . S
H565 C561 0.930 . S
H566 C563 0.929 . S
S567 N568 1.613 . S
S567 N569 1.610 1_554 S
N568 S567 1.613 . S
N568 C571 1.350 . S
N569 S567 1.610 1_556 S
N569 C570 1.351 . S
C570 C564 1.428 . S
C570 N569 1.351 . S
C570 C571 1.434 1_556 S
C571 C562 1.429 . S
C571 N568 1.350 . S
C571 C570 1.434 1_554 S
C572 C573 1.369 . S
C572 C574 1.419 . S
C572 H576 0.930 . S
C573 C572 1.369 . S
C573 C582 1.429 . S
C574 C572 1.419 . S
C574 C575 1.363 . S
C574 H577 0.929 . S
C575 C574 1.363 . S
C575 C581 1.428 . S
H576 C572 0.930 . S
H577 C574 0.929 . S
S578 N579 1.613 . S
S578 N580 1.610 . S
N579 S578 1.613 . S
N579 C582 1.350 . S
N580 S578 1.610 . S
N580 C581 1.351 . S
C581 C575 1.428 . S
C581 N580 1.351 . S
C581 C582 1.434 . S
C582 C573 1.429 . S
C582 N579 1.350 . S
C582 C581 1.434 . S
C583 C584 1.369 . S
C583 C585 1.419 . S
C583 H587 0.930 . S
C584 C583 1.369 . S
C584 C593 1.429 . S
C585 C583 1.419 . S
C585 C586 1.363 . S
C585 H588 0.929 . S
C586 C585 1.363 . S
C586 C592 1.428 . S
H587 C583 0.930 . S
H588 C585 0.929 . S
S589 N590 1.613 . S
S589 N591 1.610 . S
N590 S589 1.613 . S
N590 C593 1.350 . S
N591 S589 1.610 . S
N591 C592 1.351 . S
C592 C586 1.428 . S
C592 N591 1.351 . S
C592 C593 1.434 . S
C593 C584 1.429 . S
C593 N590 1.350 . S
C593 C592 1.434 . S
C594 C595 1.369 1_545 S
C594 C596 1.419 1_556 S
C594 H598 0.930 . S
C595 C594 1.369 1_565 S
C595 C604 1.429 . S
C596 C594 1.419 1_554 S
C596 C597 1.363 . S
C596 H599 0.929 . S
C597 C596 1.363 . S
C597 C603 1.428 1_545 S
H598 C594 0.930 . S
H599 C596 0.929 . S
S600 N601 1.613 1_554 S
S600 N602 1.610 . S
N601 S600 1.613 1_556 S
N601 C604 1.350 . S
N602 S600 1.610 . S
N602 C603 1.351 . S
C603 C597 1.428 1_565 S
C603 N602 1.351 . S
C603 C604 1.434 1_554 S
C604 C595 1.429 . S
C604 N601 1.350 . S
C604 C603 1.434 1_556 S
C605 C606 1.369 . S
C605 C607 1.419 1_455 S
C605 H609 0.930 . S
C606 C605 1.369 . S
C606 C615 1.429 1_565 S
C607 C605 1.419 1_655 S
C607 C608 1.363 1_565 S
C607 H610 0.929 . S
C608 C607 1.363 1_545 S
C608 C614 1.428 . S
H609 C605 0.930 . S
H610 C607 0.929 . S
S611 N612 1.613 . S
S611 N613 1.610 1_455 S
N612 S611 1.613 . S
N612 C615 1.350 . S
N613 S611 1.610 1_655 S
N613 C614 1.351 . S
C614 C608 1.428 . S
C614 N613 1.351 . S
C614 C615 1.434 1_655 S
C615 C606 1.429 1_545 S
C615 N612 1.350 . S
C615 C614 1.434 1_455 S
C616 C617 1.369 . S
C616 C618 1.419 . S
C616 H620 0.930 . S
C617 C616 1.369 . S
C617 C626 1.429 . S
C618 C616 1.419 . S
C618 C619 1.363 . S
C618 H621 0.929 . S
C619 C618 1.363 . S
C619 C625 1.428 . S
H620 C616 0.930 . S
H621 C618 0.929 . S
S622 N623 1.613 . S
S622 N624 1.610 . S
N623 S622 1.613 . S
N623 C626 1.350 . S
N624 S622 1.610 . S
N624 C625 1.351 . S
C625 C619 1.428 . S
C625 N624 1.351 . S
C625 C626 1.434 . S
C626 C617 1.429 . S
C626 N623 1.350 . S
C626 C625 1.434 . S
C627 C628 1.369 . S
C627 C629 1.419 . S
C627 H631 0.930 . S
C628 C627 1.369 . S
C628 C637 1.429 . S
C629 C627 1.419 . S
C629 C630 1.363 . S
C629 H632 0.929 . S
C630 C629 1.363 . S
C630 C636 1.428 . S
H631 C627 0.930 . S
H632 C629 0.929 . S
S633 N634 1.613 . S
S633 N635 1.610 . S
N634 S633 1.613 . S
N634 C637 1.350 . S
N635 S633 1.610 . S
N635 C636 1.351 . S
C636 C630 1.428 . S
C636 N635 1.351 . S
C636 C637 1.434 . S
C637 C628 1.429 . S
C637 N634 1.350 . S
C637 C636 1.434 . S
C638 C639 1.369 . S
C638 C640 1.419 . S
C638 H642 0.930 . S
C639 C638 1.369 . S
C639 C648 1.429 . S
C640 C638 1.419 . S
C640 C641 1.363 . S
C640 H643 0.929 . S
C641 C640 1.363 . S
C641 C647 1.428 . S
H642 C638 0.930 . S
H643 C640 0.929 . S
S644 N645 1.613 . S
S644 N646 1.610 . S
N645 S644 1.613 . S
N645 C648 1.350 . S
N646 S644 1.610 . S
N646 C647 1.351 . S
C647 C641 1.428 . S
C647 N646 1.351 . S
C647 C648 1.434 . S
C648 C639 1.429 . S
C648 N645 1.350 . S
C648 C647 1.434 . S
C649 C650 1.369 . S
C649 C651 1.419 . S
C649 H653 0.930 . S
C650 C649 1.369 . S
C650 C659 1.429 . S
C651 C649 1.419 . S
C651 C652 1.363 . S
C651 H654 0.929 . S
C652 C651 1.363 . S
C652 C658 1.428 . S
H653 C649 0.930 . S
H654 C651 0.929 . S
S655 N656 1.613 . S
S655 N657 1.610 . S
N656 S655 1.613 . S
N656 C659 1.350 . S
N657 S655 1.610 . S
N657 C658 1.351 . S
C658 C652 1.428 . S
C658 N657 1.351 . S
C658 C659 1.434 . S
C659 C650 1.429 . S
C659 N656 1.350 . S
C659 C658 1.434 . S
C660 C661 1.369 . S
C660 C662 1.419 . S
C660 H664 0.930 . S
C661 C660 1.369 . S
C661 C670 1.429 . S
C662 C660 1.419 . S
C662 C663 1.363 . S
C662 H665 0.929 . S
C663 C662 1.363 . S
C663 C669 1.428 . S
H664 C660 0.930 . S
H665 C662 0.929 . S
S666 N667 1.613 . S
S666 N668 1.610 . S
N667 S666 1.613 . S
N667 C670 1.350 . S
N668 S666 1.610 . S
N668 C669 1.351 . S
C669 C663 1.428 . S
C669 N668 1.351 . S
C669 C670 1.434 . S
C670 C661 1.429 . S
C670 N667 1.350 . S
C670 C669 1.434 . S
C671 C672 1.369 . S
C671 C673 1.419 . S
C671 H675 0.930 . S
C672 C671 1.369 . S
C672 C681 1.429 . S
C673 C671 1.419 . S
C673 C674 1.363 . S
C673 H676 0.929 . S
C674 C673 1.363 . S
C674 C680 1.428 . S
H675 C671 0.930 . S
H676 C673 0.929 . S
S677 N678 1.613 . S
S677 N679 1.610 . S
N678 S677 1.613 . S
N678 C681 1.350 . S
N679 S677 1.610 . S
N679 C680 1.351 . S
C680 C674 1.428 . S
C680 N679 1.351 . S
C680 C681 1.434 . S
C681 C672 1.429 . S
C681 N678 1.350 . S
C681 C680 1.434 . S
C682 C683 1.369 . S
C682 C684 1.419 . S
C682 H686 0.930 . S
C683 C682 1.369 . S
C683 C692 1.429 . S
C684 C682 1.419 . S
C684 C685 1.363 . S
C684 H687 0.929 . S
C685 C684 1.363 . S
C685 C691 1.428 . S
H686 C682 0.930 . S
H687 C684 0.929 . S
S688 N689 1.613 . S
S688 N690 1.610 . S
N689 S688 1.613 . S
N689 C692 1.350 . S
N690 S688 1.610 . S
N690 C691 1.351 . S
C691 C685 1.428 . S
C691 N690 1.351 . S
C691 C692 1.434 . S
C692 C683 1.429 . S
C692 N689 1.350 . S
C692 C691 1.434 . S
C693 C694 1.369 . S
C693 C695 1.419 . S
C693 H697 0.930 . S
C694 C693 1.369 . S
C694 C703 1.429 . S
C695 C693 1.419 . S
C695 C696 1.363 . S
C695 H698 0.929 . S
C696 C695 1.363 . S
C696 C702 1.428 . S
H697 C693 0.930 . S
H698 C695 0.929 . S
S699 N700 1.613 . S
S699 N701 1.610 . S
N700 S699 1.613 . S
N700 C703 1.350 . S
N701 S699 1.610 . S
N701 C702 1.351 . S
C702 C696 1.428 . S
C702 N701 1.351 . S
C702 C703 1.434 . S
C703 C694 1.429 . S
C703 N700 1.350 . S
C703 C702 1.434 . S
C704 C705 1.369 . S
C704 C706 1.419 . S
C704 H708 0.930 . S
C705 C704 1.369 . S
C705 C714 1.429 1_565 S
C706 C704 1.419 . S
C706 C707 1.363 . S
C706 H709 0.929 . S
C707 C706 1.363 . S
C707 C713 1.428 1_565 S
H708 C704 0.930 . S
H709 C706 0.929 . S
S710 N711 1.613 . S
S710 N712 1.610 . S
N711 S710 1.613 . S
N711 C714 1.350 . S
N712 S710 1.610 . S
N712 C713 1.351 . S
C713 C707 1.428 1_545 S
C713 N712 1.351 . S
C713 C714 1.434 . S
C714 C705 1.429 1_545 S
C714 N711 1.350 . S
C714 C713 1.434 . S
C715 C716 1.369 . S
C715 C717 1.419 . S
C715 H719 0.930 . S
C716 C715 1.369 . S
C716 C725 1.429 . S
C717 C715 1.419 . S
C717 C718 1.363 . S
C717 H720 0.929 . S
C718 C717 1.363 . S
C718 C724 1.428 . S
H719 C715 0.930 . S
H720 C717 0.929 . S
S721 N722 1.613 1_545 S
S721 N723 1.610 . S
N722 S721 1.613 1_565 S
N722 C725 1.350 . S
N723 S721 1.610 . S
N723 C724 1.351 1_545 S
C724 C718 1.428 . S
C724 N723 1.351 1_565 S
C724 C725 1.434 . S
C725 C716 1.429 . S
C725 N722 1.350 . S
C725 C724 1.434 . S
C726 C727 1.369 . S
C726 C728 1.419 . S
C726 H730 0.930 . S
C727 C726 1.369 . S
C727 C736 1.429 1_545 S
C728 C726 1.419 . S
C728 C729 1.363 . S
C728 H731 0.929 . S
C729 C728 1.363 . S
C729 C735 1.428 1_545 S
H730 C726 0.930 . S
H731 C728 0.929 . S
S732 N733 1.613 . S
S732 N734 1.610 . S
N733 S732 1.613 . S
N733 C736 1.350 . S
N734 S732 1.610 . S
N734 C735 1.351 . S
C735 C729 1.428 1_565 S
C735 N734 1.351 . S
C735 C736 1.434 . S
C736 C727 1.429 1_565 S
C736 N733 1.350 . S
C736 C735 1.434 . S
C737 C738 1.369 . S
C737 C739 1.419 . S
C737 H741 0.930 . S
C738 C737 1.369 . S
C738 C747 1.429 . S
C739 C737 1.419 . S
C739 C740 1.363 . S
C739 H742 0.929 . S
C740 C739 1.363 . S
C740 C746 1.428 . S
H741 C737 0.930 . S
H742 C739 0.929 . S
S743 N744 1.613 . S
S743 N745 1.610 1_545 S
N744 S743 1.613 . S
N744 C747 1.350 . S
N745 S743 1.610 1_565 S
N745 C746 1.349 1_565 S
C746 C740 1.428 . S
C746 N745 1.349 1_545 S
C746 C747 1.434 . S
C747 C738 1.429 . S
C747 N744 1.350 . S
C747 C746 1.434 . S
C748 C749 1.369 . S
C748 C750 1.419 . S
C748 H752 0.930 . S
C749 C748 1.369 . S
C749 C758 1.429 . S
C750 C748 1.419 . S
C750 C751 1.363 . S
C750 H753 0.929 . S
C751 C750 1.363 . S
C751 C757 1.428 . S
H752 C748 0.930 . S
H753 C750 0.929 . S
S754 N755 1.613 . S
S754 N756 1.610 . S
N755 S754 1.613 . S
N755 C758 1.350 . S
N756 S754 1.610 . S
N756 C757 1.351 . S
C757 C751 1.428 . S
C757 N756 1.351 . S
C757 C758 1.434 . S
C758 C749 1.429 . S
C758 N755 1.350 . S
C758 C757 1.434 . S
C759 C760 1.369 . S
C759 C761 1.419 . S
C759 H763 0.930 . S
C760 C759 1.369 . S
C760 C769 1.429 . S
C761 C759 1.419 . S
C761 C762 1.363 . S
C761 H764 0.929 . S
C762 C761 1.363 . S
C762 C768 1.428 . S
H763 C759 0.930 . S
H764 C761 0.929 . S
S765 N766 1.613 1_565 S
S765 N767 1.610 . S
N766 S765 1.613 1_545 S
N766 C769 1.350 . S
N767 S765 1.610 . S
N767 C768 1.351 1_565 S
C768 C762 1.428 . S
C768 N767 1.351 1_545 S
C768 C769 1.434 . S
C769 C760 1.429 . S
C769 N766 1.350 . S
C769 C768 1.434 . S
C770 C771 1.369 . S
C770 C772 1.419 . S
C770 H774 0.930 . S
C771 C770 1.369 . S
C771 C780 1.429 1_565 S
C772 C770 1.419 . S
C772 C773 1.363 . S
C772 H775 0.929 . S
C773 C772 1.363 . S
C773 C779 1.428 . S
H774 C770 0.930 . S
H775 C772 0.929 . S
S776 N777 1.613 . S
S776 N778 1.610 . S
N777 S776 1.613 . S
N777 C780 1.350 . S
N778 S776 1.610 . S
N778 C779 1.351 1_545 S
C779 C773 1.428 . S
C779 N778 1.351 1_565 S
C779 C780 1.434 1_565 S
C780 C771 1.429 1_545 S
C780 N777 1.350 . S
C780 C779 1.434 1_545 S
C781 C782 1.369 . S
C781 C783 1.419 . S
C781 H785 0.930 . S
C782 C781 1.369 . S
C782 C791 1.429 . S
C783 C781 1.419 . S
C783 C784 1.363 . S
C783 H786 0.929 . S
C784 C783 1.363 . S
C784 C790 1.428 . S
H785 C781 0.930 . S
H786 C783 0.929 . S
S787 N788 1.613 . S
S787 N789 1.610 1_545 S
N788 S787 1.613 . S
N788 C791 1.350 1_545 S
N789 S787 1.610 1_565 S
N789 C790 1.351 . S
C790 C784 1.428 . S
C790 N789 1.351 . S
C790 C791 1.434 . S
C791 C782 1.429 . S
C791 N788 1.350 1_565 S
C791 C790 1.434 . S
C792 C793 1.369 . S
C792 C794 1.419 . S
C792 H796 0.930 . S
C793 C792 1.369 . S
C793 C802 1.429 1_455 S
C794 C792 1.419 . S
C794 C795 1.363 1_455 S
C794 H797 0.929 . S
C795 C794 1.363 1_655 S
C795 C801 1.428 . S
H796 C792 0.930 . S
H797 C794 0.929 . S
S798 N799 1.613 . S
S798 N800 1.610 . S
N799 S798 1.613 . S
N799 C802 1.350 . S
N800 S798 1.610 . S
N800 C801 1.351 . S
C801 C795 1.428 . S
C801 N800 1.351 . S
C801 C802 1.434 . S
C802 C793 1.429 1_655 S
C802 N799 1.350 . S
C802 C801 1.434 . S
C803 C804 1.369 . S
C803 C805 1.419 1_455 S
C803 H807 0.930 . S
C804 C803 1.369 . S
C804 C813 1.429 . S
C805 C803 1.419 1_655 S
C805 C806 1.363 . S
C805 H808 0.929 . S
C806 C805 1.363 . S
C806 C812 1.428 . S
H807 C803 0.930 . S
H808 C805 0.929 . S
S809 N810 1.613 . S
S809 N811 1.610 1_455 S
N810 S809 1.613 . S
N810 C813 1.350 . S
N811 S809 1.610 1_655 S
N811 C812 1.351 . S
C812 C806 1.428 . S
C812 N811 1.351 . S
C812 C813 1.434 1_655 S
C813 C804 1.429 . S
C813 N810 1.350 . S
C813 C812 1.434 1_455 S
C814 C815 1.369 . S
C814 C816 1.419 . S
C814 H818 0.930 . S
C815 C814 1.369 . S
C815 C824 1.429 . S
C816 C814 1.419 . S
C816 C817 1.363 . S
C816 H819 0.929 . S
C817 C816 1.363 . S
C817 C823 1.428 . S
H818 C814 0.930 . S
H819 C816 0.929 . S
S820 N821 1.613 . S
S820 N822 1.610 . S
N821 S820 1.613 . S
N821 C824 1.350 . S
N822 S820 1.610 . S
N822 C823 1.351 . S
C823 C817 1.428 . S
C823 N822 1.351 . S
C823 C824 1.434 . S
C824 C815 1.429 . S
C824 N821 1.350 . S
C824 C823 1.434 . S
C825 C826 1.369 . S
C825 C827 1.419 . S
C825 H829 0.930 . S
C826 C825 1.369 . S
C826 C835 1.429 . S
C827 C825 1.419 . S
C827 C828 1.363 . S
C827 H830 0.929 . S
C828 C827 1.363 . S
C828 C834 1.428 . S
H829 C825 0.930 . S
H830 C827 0.929 . S
S831 N832 1.613 . S
S831 N833 1.610 . S
N832 S831 1.613 . S
N832 C835 1.350 1_556 S
N833 S831 1.610 . S
N833 C834 1.351 1_556 S
C834 C828 1.428 . S
C834 N833 1.351 1_554 S
C834 C835 1.434 . S
C835 C826 1.429 . S
C835 N832 1.350 1_554 S
C835 C834 1.434 . S
C836 C837 1.369 . S
C836 C838 1.419 . S
C836 H840 0.930 . S
C837 C836 1.369 . S
C837 C846 1.429 1_455 S
C838 C836 1.419 . S
C838 C839 1.363 1_455 S
C838 H841 0.929 . S
C839 C838 1.363 1_655 S
C839 C845 1.428 . S
H840 C836 0.930 . S
H841 C838 0.929 . S
S842 N843 1.613 . S
S842 N844 1.610 . S
N843 S842 1.613 . S
N843 C846 1.350 . S
N844 S842 1.610 . S
N844 C845 1.351 . S
C845 C839 1.428 . S
C845 N844 1.351 . S
C845 C846 1.434 . S
C846 C837 1.429 1_655 S
C846 N843 1.350 . S
C846 C845 1.434 . S
C847 C848 1.357 1_455 S
C847 C849 1.429 . S
C847 H851 0.931 . S
C848 C847 1.357 1_655 S
C848 C857 1.429 . S
C849 C847 1.429 . S
C849 C850 1.363 . S
C849 H852 0.929 . S
C850 C849 1.363 . S
C850 C856 1.428 1_455 S
H851 C847 0.931 . S
H852 C849 0.929 . S
S853 N854 1.613 . S
S853 N855 1.610 . S
N854 S853 1.613 . S
N854 C857 1.350 . S
N855 S853 1.610 . S
N855 C856 1.351 . S
C856 C850 1.428 1_655 S
C856 N855 1.351 . S
C856 C857 1.434 . S
C857 C848 1.429 . S
C857 N854 1.350 . S
C857 C856 1.434 . S
C858 C859 1.369 . S
C858 C860 1.419 . S
C858 H862 0.930 . S
C859 C858 1.369 . S
C859 C868 1.429 . S
C860 C858 1.419 . S
C860 C861 1.363 . S
C860 H863 0.929 . S
C861 C860 1.363 . S
C861 C867 1.428 . S
H862 C858 0.930 . S
H863 C860 0.929 . S
S864 N865 1.613 . S
S864 N866 1.610 . S
N865 S864 1.613 . S
N865 C868 1.350 . S
N866 S864 1.610 . S
N866 C867 1.351 . S
C867 C861 1.428 . S
C867 N866 1.351 . S
C867 C868 1.434 . S
C868 C859 1.429 . S
C868 N865 1.350 . S
C868 C867 1.434 . S
C869 C870 1.369 . S
C869 C871 1.419 . S
C869 H873 0.930 . S
C870 C869 1.369 . S
C870 C879 1.429 . S
C871 C869 1.419 . S
C871 C872 1.363 . S
C871 H874 0.929 . S
C872 C871 1.363 . S
C872 C878 1.428 . S
H873 C869 0.930 . S
H874 C871 0.929 . S
S875 N876 1.613 . S
S875 N877 1.610 . S
N876 S875 1.613 . S
N876 C879 1.350 . S
N877 S875 1.610 . S
N877 C878 1.351 . S
C878 C872 1.428 . S
C878 N877 1.351 . S
C878 C879 1.434 . S
C879 C870 1.429 . S
C879 N876 1.350 . S
C879 C878 1.434 . S
C353 C5 1.720 . S
C355 C136 1.652 . S
C364 C334 1.646 . S
C366 C27 1.720 . S
C375 C53 1.720 . S
C377 C96 1.650 1_455 S
C386 C294 1.648 . S
C388 C71 1.720 . S
C397 C48 1.648 . S
C399 C94 1.720 . S
C408 C250 1.653 . S
C410 C116 1.719 . S
C419 C139 1.720 . S
C421 C8 1.647 1_655 S
C430 C161 1.719 . S
C432 C206 1.651 . S
C441 C181 1.720 . S
C443 C312 1.653 1_665 S
C452 C203 1.719 . S
C454 C158 1.649 . S
C463 C272 1.648 1_545 S
C465 C229 1.720 . S
C474 C118 1.647 . S
C476 C247 1.719 . S
C485 C224 1.653 1_445 S
C487 C270 1.720 . S
C496 C292 1.720 . S
C498 C74 1.647 . S
C507 C184 1.645 1_565 S
C509 C315 1.720 . S
C518 C30 1.645 . S
C520 C337 1.720 . S
C529 C6 0.666 . S
C531 C269 0.656 . S
C540 C28 0.642 . S
C542 C115 0.673 . S
C551 C51 0.658 . S
C553 C317 0.660 . S
C562 C163 0.646 . S
C564 C72 0.670 . S
C573 C93 0.664 . S
C575 C182 0.658 . S
C584 C227 0.643 . S
C586 C141 0.672 . S
C595 C204 0.652 . S
C597 C291 0.667 . S
C606 C339 0.676 . S
C608 C248 0.648 . S
C617 C7 1.507 . S
C619 C26 1.597 . S
C628 C52 1.598 . S
C630 C29 1.503 . S
C639 C50 1.496 . S
C641 C70 1.604 . S
C650 C73 1.495 . S
C652 C4 1.604 . S
C661 C114 1.595 . S
C663 C97 1.507 . S
C672 C140 1.596 . S
C674 C119 1.507 . S
C683 C162 1.604 . S
C685 C137 1.500 . S
C694 C92 1.596 . S
C696 C159 1.506 . S
C705 C183 1.497 . S
C707 C202 1.604 . S
C716 C205 1.495 . S
C718 C228 1.604 . S
C727 C246 1.598 . S
C729 C226 1.505 . S
C738 C249 1.495 . S
C740 C180 1.604 . S
C749 C290 1.603 . S
C751 C273 1.497 . S
C760 C295 1.497 . S
C762 C316 1.602 . S
C771 C313 1.497 . S
C773 C338 1.604 . S
C782 C268 1.604 . S
C784 C335 1.496 . S
C793 C9 1.479 . S
C795 C225 1.478 . S
C804 C31 1.478 . S
C806 C251 1.478 . S
C815 C49 1.477 . S
C817 C185 1.480 . S
C826 C207 1.477 . S
C828 C75 1.480 . S
C837 C314 1.488 . S
C839 C95 1.482 . S
C848 C117 1.488 . S
C850 C336 1.483 . S
C859 C138 1.479 . S
C861 C271 1.478 . S
C870 C293 1.479 . S
C872 C160 1.485 . S
