# Generated by pormake.
# Topology ukh, (4)-cn, num edge types: 1
# Building blocks:
#     Node 0, Type 0, BuildingBlock: QUQFOY_clean_sbu_1, # of connection points: 4
#     Node 1, Type 0, BuildingBlock: QUQFOY_clean_sbu_1, # of connection points: 4
#     Node 2, Type 0, BuildingBlock: QUQFOY_clean_sbu_1, # of connection points: 4
#     Node 3, Type 0, BuildingBlock: QUQFOY_clean_sbu_1, # of connection points: 4
#     Node 4, Type 0, BuildingBlock: QUQFOY_clean_sbu_1, # of connection points: 4
#     Node 5, Type 0, BuildingBlock: QUQFOY_clean_sbu_1, # of connection points: 4
#     Node 6, Type 0, BuildingBlock: QUQFOY_clean_sbu_1, # of connection points: 4
#     Node 7, Type 0, BuildingBlock: QUQFOY_clean_sbu_1, # of connection points: 4
#     Node 8, Type 0, BuildingBlock: QUQFOY_clean_sbu_1, # of connection points: 4
#     Node 9, Type 0, BuildingBlock: QUQFOY_clean_sbu_1, # of connection points: 4
#     Node 10, Type 0, BuildingBlock: QUQFOY_clean_sbu_1, # of connection points: 4
#     Node 11, Type 0, BuildingBlock: QUQFOY_clean_sbu_1, # of connection points: 4
#     Edge 12, Type (0, 0), BuildingBlock: TEMPAE_clean_linker_10, # of connection points: 2
#     Edge 13, Type (0, 0), BuildingBlock: TEMPAE_clean_linker_10, # of connection points: 2
#     Edge 14, Type (0, 0), BuildingBlock: TEMPAE_clean_linker_10, # of connection points: 2
#     Edge 15, Type (0, 0), BuildingBlock: TEMPAE_clean_linker_10, # of connection points: 2
#     Edge 16, Type (0, 0), BuildingBlock: TEMPAE_clean_linker_10, # of connection points: 2
#     Edge 17, Type (0, 0), BuildingBlock: TEMPAE_clean_linker_10, # of connection points: 2
#     Edge 18, Type (0, 0), BuildingBlock: TEMPAE_clean_linker_10, # of connection points: 2
#     Edge 19, Type (0, 0), BuildingBlock: TEMPAE_clean_linker_10, # of connection points: 2
#     Edge 20, Type (0, 0), BuildingBlock: TEMPAE_clean_linker_10, # of connection points: 2
#     Edge 21, Type (0, 0), BuildingBlock: TEMPAE_clean_linker_10, # of connection points: 2
#     Edge 22, Type (0, 0), BuildingBlock: TEMPAE_clean_linker_10, # of connection points: 2
#     Edge 23, Type (0, 0), BuildingBlock: TEMPAE_clean_linker_10, # of connection points: 2
#     Edge 24, Type (0, 0), BuildingBlock: TEMPAE_clean_linker_10, # of connection points: 2
#     Edge 25, Type (0, 0), BuildingBlock: TEMPAE_clean_linker_10, # of connection points: 2
#     Edge 26, Type (0, 0), BuildingBlock: TEMPAE_clean_linker_10, # of connection points: 2
#     Edge 27, Type (0, 0), BuildingBlock: TEMPAE_clean_linker_10, # of connection points: 2
#     Edge 28, Type (0, 0), BuildingBlock: TEMPAE_clean_linker_10, # of connection points: 2
#     Edge 29, Type (0, 0), BuildingBlock: TEMPAE_clean_linker_10, # of connection points: 2
#     Edge 30, Type (0, 0), BuildingBlock: TEMPAE_clean_linker_10, # of connection points: 2
#     Edge 31, Type (0, 0), BuildingBlock: TEMPAE_clean_linker_10, # of connection points: 2
#     Edge 32, Type (0, 0), BuildingBlock: TEMPAE_clean_linker_10, # of connection points: 2
#     Edge 33, Type (0, 0), BuildingBlock: TEMPAE_clean_linker_10, # of connection points: 2
#     Edge 34, Type (0, 0), BuildingBlock: TEMPAE_clean_linker_10, # of connection points: 2
#     Edge 35, Type (0, 0), BuildingBlock: TEMPAE_clean_linker_10, # of connection points: 2
# Relax obj value: 0.059
# Max RMSD: 0.078
# Mean RMSD: 0.078
data_MOF--net-ukh--node1-QUQFOY_clean_sbu_1--edge1-TEMPAE_clean_linker_10
_symmetry_space_group_name_H-M    P1
_symmetry_Int_Tables_number       1
_symmetry_cell_setting            triclinic
loop_
_symmetry_equiv_pos_as_xyz
'x, y, z'
_cell_length_a     33.407753
_cell_length_b     33.356919
_cell_length_c     67.603504
_cell_angle_alpha  89.994844
_cell_angle_beta   89.995608
_cell_angle_gamma 120.03913
loop_
_atom_site_label
_atom_site_type_symbol
_atom_site_fract_x
_atom_site_fract_y
_atom_site_fract_z
_atom_type_partial_charge
O0 O 0.32259 0.16631 0.04677 0.0
Cd1 Cd 0.31669 0.21733 0.06102 0.0
Cd2 Cd 0.37145 0.26539 0.03055 0.0
O3 O 0.37695 0.20654 0.02493 0.0
O4 O 0.2835 0.18283 0.08525 0.0
O5 O 0.35311 0.24475 0.0862 0.0
C6 C 0.31923 0.21084 0.09542 0.0
C7 C 0.42947 0.34057 0.03818 0.0
C8 C 0.34941 0.16793 0.03311 0.0
C9 C 0.27628 0.25224 0.03073 0.0
O10 O 0.31212 0.26302 0.02043 0.0
O11 O 0.27271 0.23663 0.04821 0.0
O12 O 0.42523 0.32418 0.0205 0.0
O13 O 0.40332 0.31278 0.05193 0.0
O14 O 0.1548 0.30487 0.38466 0.0
Cd15 Cd 0.10319 0.31095 0.39813 0.0
Cd16 Cd 0.11994 0.36718 0.3685 0.0
O17 O 0.18268 0.36752 0.36618 0.0
O18 O 0.09677 0.28323 0.42495 0.0
O19 O 0.1238 0.35808 0.42002 0.0
C20 C 0.11478 0.32454 0.43204 0.0
C21 C 0.10428 0.42634 0.37555 0.0
C22 C 0.18567 0.3334 0.37295 0.0
C23 C 0.03279 0.27728 0.36645 0.0
O24 O 0.06364 0.3105 0.35632 0.0
O25 O 0.0391 0.27407 0.38481 0.0
O26 O 0.12038 0.42394 0.35846 0.0
O27 O 0.10158 0.39787 0.38917 0.0
O28 O 0.86698 0.15882 0.71337 0.0
Cd29 Cd 0.81568 0.10257 0.72779 0.0
Cd30 Cd 0.76841 0.11155 0.6978 0.0
O31 O 0.8274 0.17573 0.69234 0.0
O32 O 0.85092 0.10324 0.75165 0.0
O33 O 0.79014 0.11262 0.75331 0.0
C34 C 0.82417 0.11214 0.76214 0.0
C35 C 0.69356 0.09457 0.70573 0.0
C36 C 0.86591 0.18511 0.70007 0.0
C37 C 0.78062 0.02887 0.69694 0.0
O38 O 0.77076 0.05508 0.68696 0.0
O39 O 0.79524 0.03932 0.71463 0.0
O40 O 0.70985 0.10726 0.68806 0.0
O41 O 0.7213 0.0955 0.71932 0.0
O42 O 0.72714 0.86306 0.04675 0.0
Cd43 Cd 0.72677 0.8099 0.06205 0.0
Cd44 Cd 0.67025 0.76365 0.03237 0.0
O45 O 0.66779 0.82433 0.0269 0.0
O46 O 0.7598 0.84325 0.0865 0.0
O47 O 0.68781 0.78514 0.08679 0.0
C48 C 0.7225 0.81749 0.09628 0.0
C49 C 0.61049 0.68916 0.03973 0.0
C50 C 0.69963 0.86278 0.03374 0.0
C51 C 0.76281 0.77044 0.03241 0.0
O52 O 0.72807 0.76309 0.022 0.0
O53 O 0.76696 0.7852 0.05006 0.0
O54 O 0.61516 0.7062 0.02215 0.0
O55 O 0.63711 0.71614 0.05357 0.0
O56 O 0.86475 0.70757 0.38093 0.0
Cd57 Cd 0.92339 0.71444 0.39375 0.0
Cd58 Cd 0.91211 0.65765 0.36373 0.0
O59 O 0.84697 0.651 0.35978 0.0
O60 O 0.92543 0.7496 0.41787 0.0
O61 O 0.91708 0.6797 0.41917 0.0
C62 C 0.91828 0.71432 0.42827 0.0
C63 C 0.9314 0.60163 0.37203 0.0
C64 C 0.83738 0.67942 0.36811 0.0
C65 C 0.99365 0.75269 0.36136 0.0
O66 O 0.96679 0.7162 0.35175 0.0
O67 O 0.98476 0.75729 0.37925 0.0
O68 O 0.91662 0.60308 0.35452 0.0
O69 O 0.93121 0.62945 0.38532 0.0
O70 O 0.17294 0.87203 0.71365 0.0
Cd71 Cd 0.2264 0.926 0.7282 0.0
Cd72 Cd 0.27131 0.91155 0.69937 0.0
O73 O 0.2106 0.84783 0.69505 0.0
O74 O 0.19306 0.9279 0.75224 0.0
O75 O 0.25067 0.91339 0.75346 0.0
C76 C 0.21822 0.9164 0.76249 0.0
C77 C 0.34567 0.92711 0.7073 0.0
C78 C 0.17254 0.8428 0.70155 0.0
C79 C 0.26491 0.99754 0.69691 0.0
O80 O 0.27152 0.96853 0.68734 0.0
O81 O 0.25123 0.98958 0.7148 0.0
O82 O 0.3286 0.9127 0.68987 0.0
O83 O 0.3188 0.92841 0.72076 0.0
O84 O 0.8708 0.70672 0.62245 0.0
Cd85 Cd 0.82454 0.71591 0.6059 0.0
Cd86 Cd 0.77108 0.66249 0.63766 0.0
O87 O 0.8286 0.65696 0.64565 0.0
O88 O 0.86438 0.74753 0.58259 0.0
O89 O 0.79991 0.68011 0.58035 0.0
C90 C 0.83646 0.71272 0.57194 0.0
C91 C 0.69402 0.60346 0.6361 0.0
C92 C 0.86759 0.68182 0.63725 0.0
C93 C 0.78796 0.76019 0.63306 0.0
O94 O 0.7746 0.72452 0.64381 0.0
O95 O 0.80671 0.76311 0.61636 0.0
O96 O 0.71471 0.61881 0.65283 0.0
O97 O 0.7184 0.61829 0.62012 0.0
O98 O 0.16244 0.86381 0.95466 0.0
Cd99 Cd 0.11064 0.81228 0.93837 0.0
Cd100 Cd 0.11864 0.76357 0.96798 0.0
O101 O 0.18153 0.82374 0.97446 0.0
O102 O 0.11349 0.84868 0.91455 0.0
O103 O 0.12623 0.78983 0.91328 0.0
C104 C 0.12536 0.82367 0.9044 0.0
C105 C 0.10414 0.68903 0.9608 0.0
C106 C 0.18869 0.86263 0.96791 0.0
C107 C 0.03312 0.77118 0.96699 0.0
O108 O 0.05963 0.76289 0.97757 0.0
O109 O 0.04501 0.78718 0.94956 0.0
O110 O 0.11531 0.70583 0.97846 0.0
O111 O 0.10559 0.71624 0.94682 0.0
O112 O 0.3166 0.16414 0.29038 0.0
Cd113 Cd 0.31039 0.11112 0.27283 0.0
Cd114 Cd 0.36143 0.1084 0.30483 0.0
O115 O 0.36491 0.16996 0.31391 0.0
O116 O 0.28136 0.12142 0.24913 0.0
O117 O 0.34916 0.12515 0.248 0.0
C118 C 0.31733 0.12944 0.23909 0.0
C119 C 0.42172 0.09215 0.30417 0.0
C120 C 0.33994 0.18423 0.30575 0.0
C121 C 0.26461 0.02731 0.29822 0.0
O122 O 0.29946 0.04862 0.30948 0.0
O123 O 0.2627 0.04488 0.28182 0.0
O124 O 0.40392 0.09523 0.32063 0.0
O125 O 0.40846 0.10286 0.28804 0.0
O126 O 0.16858 0.29972 0.61946 0.0
Cd127 Cd 0.22229 0.30428 0.60291 0.0
Cd128 Cd 0.26898 0.35643 0.63389 0.0
O129 O 0.20799 0.35692 0.64042 0.0
O130 O 0.19495 0.28013 0.57639 0.0
O131 O 0.248 0.35343 0.58173 0.0
C132 C 0.21995 0.3216 0.56973 0.0
C133 C 0.34464 0.41835 0.63352 0.0
C134 C 0.16941 0.32587 0.63333 0.0
C135 C 0.26312 0.26405 0.62915 0.0
O136 O 0.26958 0.29665 0.64075 0.0
O137 O 0.24809 0.26241 0.61174 0.0
O138 O 0.32241 0.4024 0.6499 0.0
O139 O 0.32221 0.40259 0.61712 0.0
O140 O 0.86894 0.16503 0.95411 0.0
Cd141 Cd 0.92488 0.21435 0.93879 0.0
Cd142 Cd 0.92033 0.26502 0.96921 0.0
O143 O 0.85626 0.20663 0.97577 0.0
O144 O 0.92122 0.17649 0.91537 0.0
O145 O 0.91419 0.23866 0.91303 0.0
C146 C 0.91289 0.20329 0.90462 0.0
C147 C 0.93725 0.34033 0.9619 0.0
C148 C 0.84463 0.16754 0.96795 0.0
C149 C 1.00216 0.25122 0.96816 0.0
O150 O 0.97784 0.26272 0.97859 0.0
O151 O 0.98898 0.23448 0.95091 0.0
O152 O 0.92619 0.32392 0.97963 0.0
O153 O 0.93466 0.31253 0.94796 0.0
O154 O 0.72695 0.87061 0.29048 0.0
Cd155 Cd 0.7304 0.92214 0.27277 0.0
Cd156 Cd 0.67487 0.92017 0.3035 0.0
O157 O 0.67211 0.8584 0.31187 0.0
O158 O 0.76013 0.91339 0.24895 0.0
O159 O 0.69079 0.90636 0.24817 0.0
C160 C 0.72335 0.90356 0.23912 0.0
C161 C 0.6136 0.93497 0.30305 0.0
C162 C 0.70104 0.84784 0.30485 0.0
C163 C 0.77093 1.00435 0.29863 0.0
O164 O 0.73555 0.98076 0.30937 0.0
O165 O 0.77506 0.98881 0.28206 0.0
O166 O 0.63076 0.93064 0.31946 0.0
O167 O 0.62797 0.92612 0.28677 0.0
C168 C 0.54191 0.61255 0.03077 0.0
C169 C 0.57993 0.63873 0.04314 0.0
C170 C 0.51676 0.5639 0.03195 0.0
C171 C 0.53087 0.54066 0.04537 0.0
C172 C 0.56855 0.56703 0.05825 0.0
C173 C 0.59217 0.61572 0.05718 0.0
C174 C 0.47593 0.53731 0.01837 0.0
C175 C 0.58556 0.54382 0.0724 0.0
C176 C 0.4467 0.41303 0.05622 0.0
C177 C 0.45936 0.39097 0.0419 0.0
C178 C 0.47002 0.46166 0.05776 0.0
C179 C 0.50781 0.4889 0.04505 0.0
C180 C 0.52224 0.46658 0.03129 0.0
C181 C 0.49739 0.418 0.02965 0.0
C182 C 0.45268 0.4839 0.07227 0.0
C183 C 0.56318 0.49409 0.01787 0.0
H184 H 0.5323 0.63012 0.0199 0.0
H185 H 0.62197 0.6357 0.06658 0.0
H186 H 0.48415 0.51785 0.00735 0.0
H187 H 0.44546 0.51164 0.02693 0.0
H188 H 0.46648 0.56042 0.01031 0.0
H189 H 0.61342 0.56907 0.08225 0.0
H190 H 0.55672 0.51814 0.08168 0.0
H191 H 0.59911 0.5247 0.06389 0.0
H192 H 0.41691 0.39239 0.06554 0.0
H193 H 0.50733 0.40115 0.01856 0.0
H194 H 0.43936 0.50362 0.06407 0.0
H195 H 0.48132 0.50891 0.08182 0.0
H196 H 0.42459 0.45799 0.08185 0.0
H197 H 0.55508 0.51433 0.00721 0.0
H198 H 0.57271 0.47156 0.00939 0.0
H199 H 0.59357 0.51915 0.02664 0.0
C200 C 0.0953 0.49411 0.36597 0.0
C201 C 0.08368 0.45636 0.37852 0.0
C202 C 0.07118 0.51862 0.36681 0.0
C203 C 0.0336 0.50424 0.3801 0.0
C204 C 0.02258 0.46695 0.39319 0.0
C205 C 0.04812 0.44389 0.39241 0.0
C206 C 0.08497 0.559 0.35298 0.0
C207 C 0.98224 0.44978 0.40729 0.0
C208 C 0.98811 0.58688 0.39019 0.0
C209 C 0.95305 0.5729 0.37594 0.0
C210 C 1.01423 0.56454 0.39193 0.0
C211 C 1.0043 0.52651 0.37947 0.0
C212 C 0.96736 0.51082 0.36575 0.0
C213 C 0.94267 0.5346 0.36396 0.0
C214 C 0.05388 0.58305 0.40644 0.0
C215 C 0.95468 0.46963 0.35256 0.0
H216 H 0.12273 0.50396 0.35522 0.0
H217 H 0.03851 0.41438 0.402 0.0
H218 H 0.05722 0.55007 0.34192 0.0
H219 H 0.0894 0.5896 0.36133 0.0
H220 H 0.11762 0.56868 0.34497 0.0
H221 H 0.9799 0.42231 0.41732 0.0
H222 H 0.98503 0.47873 0.41638 0.0
H223 H 0.94958 0.4356 0.39873 0.0
H224 H 0.99676 0.61685 0.39933 0.0
H225 H 0.91562 0.52361 0.35293 0.0
H226 H 0.08696 0.59657 0.39825 0.0
H227 H 0.05069 0.55493 0.41624 0.0
H228 H 0.05566 0.61132 0.41576 0.0
H229 H 0.9833 0.47792 0.34206 0.0
H230 H 0.92268 0.45938 0.34394 0.0
H231 H 0.94961 0.43959 0.36155 0.0
C232 C 0.41885 0.98293 0.7247 0.0
C233 C 0.39601 0.94716 0.71086 0.0
C234 C 0.46746 1.00802 0.72586 0.0
C235 C 0.4939 0.99628 0.71323 0.0
C236 C 0.47082 0.95843 0.70003 0.0
C237 C 0.42226 0.93483 0.69879 0.0
C238 C 0.49052 0.04869 0.73982 0.0
C239 C 0.4975 0.9438 0.68669 0.0
C240 C 0.61625 0.08509 0.69725 0.0
C241 C 0.64331 0.07431 0.70957 0.0
C242 C 0.56777 0.06145 0.69895 0.0
C243 C 0.54557 0.02507 0.7129 0.0
C244 C 0.57282 0.01485 0.72573 0.0
C245 C 0.62136 0.04 0.72409 0.0
C246 C 0.54023 0.07448 0.68536 0.0
C247 C 0.55068 0.97574 0.74049 0.0
H248 H 0.39884 0.99309 0.7339 0.0
H249 H 0.40484 0.90723 0.68807 0.0
H250 H 0.51624 0.04589 0.7492 0.0
H251 H 0.50949 0.08118 0.73115 0.0
H252 H 0.46524 0.05146 0.74957 0.0
H253 H 0.4745 0.91099 0.67876 0.0
H254 H 0.51703 0.97124 0.67557 0.0
H255 H 0.52304 0.93921 0.69543 0.0
H256 H 0.633 0.11158 0.68601 0.0
H257 H 0.642 0.03104 0.73349 0.0
H258 H 0.51525 0.08011 0.69403 0.0
H259 H 0.51999 0.04577 0.67486 0.0
H260 H 0.56268 0.10631 0.67672 0.0
H261 H 0.5256 0.9796 0.74988 0.0
H262 H 0.57657 0.974 0.75022 0.0
H263 H 0.53112 0.94234 0.7325 0.0
C264 C 0.62033 0.5392 0.62164 0.0
C265 C 0.64297 0.57514 0.63535 0.0
C266 C 0.57163 0.51355 0.62078 0.0
C267 C 0.54519 0.52569 0.63328 0.0
C268 C 0.56821 0.56293 0.64673 0.0
C269 C 0.61667 0.58647 0.64788 0.0
C270 C 0.54847 0.47293 0.60681 0.0
C271 C 0.54167 0.57824 0.65981 0.0
C272 C 0.41904 0.48298 0.61968 0.0
C273 C 0.39563 0.44792 0.6337 0.0
C274 C 0.46777 0.50914 0.6195 0.0
C275 C 0.49351 0.49836 0.63304 0.0
C276 C 0.46976 0.46218 0.6469 0.0
C277 C 0.42124 0.43815 0.64732 0.0
C278 C 0.49167 0.54865 0.60504 0.0
C279 C 0.49559 0.44829 0.66111 0.0
H280 H 0.64068 0.53057 0.61189 0.0
H281 H 0.63417 0.61493 0.65823 0.0
H282 H 0.5254 0.44098 0.61525 0.0
H283 H 0.52655 0.47846 0.59611 0.0
H284 H 0.57385 0.46729 0.59845 0.0
H285 H 0.56486 0.61013 0.66828 0.0
H286 H 0.51791 0.58487 0.65073 0.0
H287 H 0.52015 0.55041 0.67047 0.0
H288 H 0.39925 0.49038 0.60908 0.0
H289 H 0.40321 0.41035 0.65791 0.0
H290 H 0.51396 0.54219 0.59493 0.0
H291 H 0.51446 0.58122 0.61314 0.0
H292 H 0.46673 0.55371 0.59603 0.0
H293 H 0.51979 0.44077 0.65285 0.0
H294 H 0.47196 0.4173 0.66999 0.0
H295 H 0.51658 0.47721 0.6714 0.0
C296 C 0.99242 0.41305 0.944 0.0
C297 C 0.95767 0.39077 0.95829 0.0
C298 C 1.01767 0.4617 0.94257 0.0
C299 C 1.00699 0.48875 0.95534 0.0
C300 C 0.97022 0.46621 0.96908 0.0
C301 C 0.94661 0.41761 0.97063 0.0
C302 C 0.05734 0.48417 0.92811 0.0
C303 C 0.95661 0.4935 0.98255 0.0
C304 C 0.09615 0.61243 0.96979 0.0
C305 C 0.08438 0.63862 0.95738 0.0
C306 C 0.07278 0.56378 0.96857 0.0
C307 C 0.03555 0.54054 0.9551 0.0
C308 C 0.02425 0.56693 0.94221 0.0
C309 C 0.04925 0.61562 0.9433 0.0
C310 C 0.08705 0.53721 0.98215 0.0
C311 C 0.98409 0.54372 0.92803 0.0
H312 H 1.00164 0.39254 0.93463 0.0
H313 H 0.91981 0.40058 0.98171 0.0
H314 H 0.05364 0.50915 0.91857 0.0
H315 H 0.0903 0.50397 0.93636 0.0
H316 H 0.05974 0.4584 0.91853 0.0
H317 H 0.9245 0.47081 0.99097 0.0
H318 H 0.98484 0.51363 0.99326 0.0
H319 H 0.95127 0.51863 0.97383 0.0
H320 H 0.12322 0.63001 0.9807 0.0
H321 H 0.03947 0.63562 0.93388 0.0
H322 H 0.09195 0.5116 0.97358 0.0
H323 H 0.05936 0.51767 0.99315 0.0
H324 H 0.11957 0.56033 0.99022 0.0
H325 H 0.98744 0.51822 0.9187 0.0
H326 H 0.98137 0.56899 0.91823 0.0
H327 H 0.95141 0.52439 0.93652 0.0
C328 C 0.44135 0.03392 0.31654 0.0
C329 C 0.45141 0.07089 0.30374 0.0
C330 C 0.46613 1.01022 0.31561 0.0
C331 C 0.50327 0.02498 0.3021 0.0
C332 C 0.5142 0.06295 0.28936 0.0
C333 C 0.48741 0.0848 0.29002 0.0
C334 C 0.45218 0.969 0.32898 0.0
C335 C 0.55462 0.08093 0.27529 0.0
C336 C 0.59303 0.99181 0.31628 0.0
C337 C 0.58364 0.95594 0.30295 0.0
C338 C 0.56817 0.01545 0.31569 0.0
C339 C 0.5316 1.00171 0.30196 0.0
C340 C 0.52131 0.96481 0.28868 0.0
C341 C 0.54821 0.94304 0.28903 0.0
C342 C 0.58147 0.05557 0.32964 0.0
C343 C 0.48149 0.94789 0.27434 0.0
H344 H 0.4129 0.02247 0.3269 0.0
H345 H 0.4951 0.11326 0.28008 0.0
H346 H 0.446 0.93846 0.32008 0.0
H347 H 0.48051 0.97638 0.3395 0.0
H348 H 0.42043 0.9599 0.3376 0.0
H349 H 0.55933 0.11147 0.26677 0.0
H350 H 0.58684 0.09082 0.28366 0.0
H351 H 0.54964 0.05338 0.26473 0.0
H352 H 0.62107 1.00252 0.3268 0.0
H353 H 0.54106 0.91545 0.27866 0.0
H354 H 0.55265 0.04735 0.34001 0.0
H355 H 0.58805 0.08681 0.32118 0.0
H356 H 0.61282 0.06399 0.33843 0.0
H357 H 0.44893 0.93741 0.28253 0.0
H358 H 0.47714 0.91798 0.26542 0.0
H359 H 0.48695 0.97621 0.26413 0.0
C360 C 0.35275 0.1409 0.20531 0.0
C361 C 0.32197 0.14463 0.21824 0.0
C362 C 0.35574 0.15404 0.18534 0.0
C363 C 0.328 0.17217 0.17834 0.0
C364 C 0.29812 0.17746 0.19154 0.0
C365 C 0.29514 0.16321 0.21125 0.0
C366 C 0.38742 0.14714 0.17162 0.0
C367 C 0.26849 0.19729 0.18476 0.0
C368 C 0.35532 0.23605 0.12906 0.0
C369 C 0.32191 0.20198 0.1167 0.0
C370 C 0.35808 0.22687 0.14918 0.0
C371 C 0.32732 0.18233 0.15694 0.0
C372 C 0.2941 0.14768 0.14441 0.0
C373 C 0.29152 0.15806 0.12453 0.0
C374 C 0.39337 0.26493 0.1622 0.0
C375 C 0.26106 0.09958 0.15201 0.0
H376 H 0.37358 0.12661 0.21067 0.0
H377 H 0.27173 0.1668 0.22124 0.0
H378 H 0.3666 0.12127 0.16012 0.0
H379 H 0.41104 0.17996 0.16387 0.0
H380 H 0.40846 0.13495 0.17956 0.0
H381 H 0.24999 0.20266 0.19722 0.0
H382 H 0.29009 0.23092 0.17718 0.0
H383 H 0.24249 0.17352 0.17392 0.0
H384 H 0.37893 0.27001 0.12306 0.0
H385 H 0.26596 0.13134 0.11502 0.0
H386 H 0.41603 0.25361 0.16926 0.0
H387 H 0.37556 0.27247 0.17426 0.0
H388 H 0.41531 0.29738 0.15383 0.0
H389 H 0.2806 0.08451 0.15901 0.0
H390 H 0.23897 0.07589 0.14009 0.0
H391 H 0.23828 0.10126 0.16352 0.0
C392 C 0.10201 0.30197 0.46758 0.0
C393 C 0.12941 0.33331 0.4529 0.0
C394 C 0.1185 0.30608 0.48699 0.0
C395 C 0.16427 0.34111 0.49156 0.0
C396 C 0.19162 0.37363 0.47686 0.0
C397 C 0.17347 0.36982 0.45775 0.0
C398 C 0.08757 0.27178 0.50242 0.0
C399 C 0.24103 0.41046 0.4809 0.0
C400 C 0.19782 0.36379 0.5459 0.0
C401 C 0.21318 0.33231 0.54935 0.0
C402 C 0.18262 0.36792 0.52702 0.0
C403 C 0.18446 0.34105 0.51119 0.0
C404 C 0.20276 0.31135 0.51446 0.0
C405 C 0.21587 0.30653 0.53363 0.0
C406 C 0.16189 0.39869 0.52433 0.0
C407 C 0.20689 0.28334 0.49786 0.0
H408 H 0.06791 0.27376 0.46377 0.0
H409 H 0.1949 0.39361 0.44627 0.0
H410 H 0.10054 0.24793 0.50617 0.0
H411 H 0.08796 0.29005 0.5162 0.0
H412 H 0.05127 0.25078 0.49721 0.0
H413 H 0.25633 0.43539 0.46846 0.0
H414 H 0.24328 0.4299 0.49455 0.0
H415 H 0.26221 0.39377 0.48333 0.0
H416 H 0.19498 0.38301 0.55823 0.0
H417 H 0.22756 0.28202 0.53643 0.0
H418 H 0.12435 0.37693 0.52123 0.0
H419 H 0.17768 0.42203 0.51146 0.0
H420 H 0.16638 0.42005 0.53765 0.0
H421 H 0.17194 0.25595 0.49318 0.0
H422 H 0.22702 0.26654 0.50232 0.0
H423 H 0.22385 0.30574 0.48483 0.0
C424 C 0.87958 0.13947 0.79031 0.0
C425 C 0.83489 0.12493 0.78323 0.0
C426 C 0.89187 0.1542 0.80991 0.0
C427 C 0.85837 0.15344 0.82294 0.0
C428 C 0.81302 0.13846 0.81597 0.0
C429 C 0.80194 0.12486 0.79609 0.0
C430 C 0.94079 0.1706 0.81665 0.0
C431 C 0.77611 0.13621 0.82956 0.0
C432 C 0.88184 0.14566 0.87727 0.0
C433 C 0.89917 0.19142 0.88368 0.0
C434 C 0.86703 0.13263 0.85773 0.0
C435 C 0.8706 0.1664 0.84407 0.0
C436 C 0.8881 0.21274 0.85041 0.0
C437 C 0.90169 0.22462 0.87025 0.0
C438 C 0.84782 0.0827 0.85168 0.0
C439 C 0.89334 0.2499 0.83616 0.0
H440 H 0.90545 0.14022 0.78039 0.0
H441 H 0.7674 0.11374 0.79067 0.0
H442 H 0.95609 0.20586 0.82308 0.0
H443 H 0.94073 0.14741 0.82843 0.0
H444 H 0.96332 0.17141 0.80439 0.0
H445 H 0.74266 0.12411 0.82182 0.0
H446 H 0.77052 0.11233 0.84204 0.0
H447 H 0.78745 0.17084 0.83601 0.0
H448 H 0.87916 0.11965 0.88765 0.0
H449 H 0.91497 0.25998 0.87516 0.0
H450 H 0.87069 0.08022 0.84045 0.0
H451 H 0.81327 0.06916 0.84479 0.0
H452 H 0.84457 0.06016 0.86439 0.0
H453 H 0.91753 0.25356 0.82412 0.0
H454 H 0.90661 0.28404 0.8435 0.0
H455 H 0.8596 0.23998 0.82918 0.0
C456 C 0.75083 0.87071 0.12521 0.0
C457 C 0.71927 0.82718 0.1174 0.0
C458 C 0.74798 0.88185 0.14495 0.0
C459 C 0.71329 0.84828 0.15736 0.0
C460 C 0.6813 0.80415 0.14961 0.0
C461 C 0.68435 0.79427 0.12961 0.0
C462 C 0.78234 0.92955 0.15253 0.0
C463 C 0.64447 0.76718 0.16253 0.0
C464 C 0.74406 0.86736 0.2118 0.0
C465 C 0.71854 0.88772 0.21839 0.0
C466 C 0.74091 0.8524 0.1922 0.0
C467 C 0.71241 0.85902 0.17868 0.0
C468 C 0.68602 0.87901 0.18528 0.0
C469 C 0.68895 0.89262 0.20518 0.0
C470 C 0.76889 0.83039 0.18588 0.0
C471 C 0.656 0.88751 0.17119 0.0
H472 H 0.77756 0.89656 0.11579 0.0
H473 H 0.65984 0.76061 0.12362 0.0
H474 H 0.76386 0.94603 0.15928 0.0
H475 H 0.80413 0.92682 0.16423 0.0
H476 H 0.80535 0.95256 0.14065 0.0
H477 H 0.62164 0.73501 0.15415 0.0
H478 H 0.66093 0.75854 0.17479 0.0
H479 H 0.62287 0.78012 0.16931 0.0
H480 H 0.76646 0.86285 0.22205 0.0
H481 H 0.66916 0.90832 0.21025 0.0
H482 H 0.7959 0.85329 0.17518 0.0
H483 H 0.74639 0.797 0.17829 0.0
H484 H 0.78605 0.82398 0.19858 0.0
H485 H 0.67799 0.91285 0.15974 0.0
H486 H 0.63583 0.90113 0.17884 0.0
H487 H 0.63165 0.85502 0.16343 0.0
C488 C 0.89355 0.73685 0.54446 0.0
C489 C 0.84775 0.70989 0.55101 0.0
C490 C 0.90568 0.73497 0.52479 0.0
C491 C 0.871 0.70614 0.51116 0.0
C492 C 0.82468 0.67849 0.51768 0.0
C493 C 0.81367 0.68032 0.53763 0.0
C494 C 0.95557 0.76441 0.51852 0.0
C495 C 0.78662 0.64799 0.50349 0.0
C496 C 0.89569 0.74387 0.45753 0.0
C497 C 0.90801 0.71263 0.44965 0.0
C498 C 0.88271 0.74143 0.47739 0.0
C499 C 0.88291 0.70748 0.48986 0.0
C500 C 0.8959 0.67615 0.48211 0.0
C501 C 0.90786 0.67879 0.462 0.0
C502 C 0.86852 0.7751 0.485 0.0
C503 C 0.89744 0.64012 0.49509 0.0
H504 H 0.92021 0.75932 0.55481 0.0
H505 H 0.77825 0.65939 0.54264 0.0
H506 H 0.96754 0.74271 0.51101 0.0
H507 H 0.95883 0.79098 0.50775 0.0
H508 H 0.97884 0.78227 0.53123 0.0
H509 H 0.75274 0.62737 0.51102 0.0
H510 H 0.78313 0.66967 0.49193 0.0
H511 H 0.79537 0.62393 0.49587 0.0
H512 H 0.89519 0.7698 0.44803 0.0
H513 H 0.91727 0.65452 0.45598 0.0
H514 H 0.89253 0.79693 0.49684 0.0
H515 H 0.83342 0.75592 0.49157 0.0
H516 H 0.86842 0.79817 0.47317 0.0
H517 H 0.92181 0.65726 0.50753 0.0
H518 H 0.90842 0.61846 0.48682 0.0
H519 H 0.86286 0.61717 0.50162 0.0
C520 C 0.13891 0.80297 0.87033 0.0
C521 C 0.14043 0.83589 0.88364 0.0
C522 C 0.15317 0.81505 0.85057 0.0
C523 C 0.17051 0.86137 0.84424 0.0
C524 C 0.17332 0.89493 0.85783 0.0
C525 C 0.15768 0.88165 0.87726 0.0
C526 C 0.1486 0.77807 0.83637 0.0
C527 C 0.19248 0.94487 0.8518 0.0
C528 C 0.23994 0.90329 0.79645 0.0
C529 C 0.20718 0.90335 0.78352 0.0
C530 C 0.22858 0.8896 0.81631 0.0
C531 C 0.18308 0.87445 0.82314 0.0
C532 C 0.14975 0.87368 0.81 0.0
C533 C 0.16237 0.8887 0.79046 0.0
C534 C 0.26535 0.89203 0.83003 0.0
C535 C 0.10064 0.85694 0.81657 0.0
H536 H 0.12564 0.76759 0.87524 0.0
H537 H 0.15961 0.90742 0.88759 0.0
H538 H 0.12443 0.77411 0.82427 0.0
H539 H 0.18251 0.78837 0.82946 0.0
H540 H 0.1356 0.74399 0.84373 0.0
H541 H 0.19557 0.96733 0.86453 0.0
H542 H 0.22709 0.95854 0.84496 0.0
H543 H 0.16963 0.94734 0.84055 0.0
H544 H 0.27458 0.91453 0.79112 0.0
H545 H 0.13668 0.888 0.78045 0.0
H546 H 0.25409 0.85743 0.8365 0.0
H547 H 0.27061 0.91585 0.84248 0.0
H548 H 0.29896 0.9043 0.8224 0.0
H549 H 0.08547 0.82173 0.82304 0.0
H550 H 0.07823 0.85589 0.80421 0.0
H551 H 0.10029 0.88009 0.82826 0.0
C552 C 0.26153 0.91219 0.98787 0.0
C553 C 0.22385 0.90742 0.9768 0.0
C554 C 0.29277 0.95487 0.99686 0.0
C555 C 0.285 0.9929 0.99534 0.0
C556 C 0.24748 0.98826 0.98387 0.0
C557 C 0.21802 0.94606 0.97458 0.0
C558 C 0.33321 0.95873 0.00837 0.0
C559 C 0.23684 0.02719 0.98215 0.0
C560 C 0.312 0.0819 0.03523 0.0
C561 C 0.34307 0.12318 0.02548 0.0
C562 C 0.29592 0.03859 0.0263 0.0
C563 C 0.31207 0.03606 0.00725 0.0
C564 C 0.34752 0.07705 0.99833 0.0
C565 C 0.36229 0.12031 0.00744 0.0
C566 C 0.25795 0.99612 0.0364 0.0
C567 C 0.36724 0.07561 0.97846 0.0
H568 H 0.26656 0.88269 0.98953 0.0
H569 H 0.18896 0.94291 0.96617 0.0
H570 H 0.36433 0.9934 0.00643 0.0
H571 H 0.32456 0.95395 0.02435 0.0
H572 H 0.34168 0.93184 0.00379 0.0
H573 H 0.20657 0.01806 0.97248 0.0
H574 H 0.22954 0.03612 0.99702 0.0
H575 H 0.26708 0.05863 0.97607 0.0
H576 H 0.29755 0.08343 0.04938 0.0
H577 H 0.38682 0.15182 0.99989 0.0
H578 H 0.26576 0.96752 0.03621 0.0
H579 H 0.22499 0.98406 0.02828 0.0
H580 H 0.25279 1.00306 0.05199 0.0
H581 H 0.37205 0.04508 0.97738 0.0
H582 H 0.40091 0.10752 0.97569 0.0
H583 H 0.34284 0.07251 0.96663 0.0
C584 C 0.25894 0.35405 0.35405 0.0
C585 C 0.22148 0.32282 0.36574 0.0
C586 C 0.28912 0.3409 0.34542 0.0
C587 C 0.28063 0.29508 0.34803 0.0
C588 C 0.24432 0.2644 0.36064 0.0
C589 C 0.21579 0.27884 0.36951 0.0
C590 C 0.32865 0.37532 0.33278 0.0
C591 C 0.23317 0.21493 0.3636 0.0
C592 C 0.29923 0.22967 0.30685 0.0
C593 C 0.33254 0.22053 0.31502 0.0
C594 C 0.28431 0.25654 0.31689 0.0
C595 C 0.30408 0.27623 0.33541 0.0
C596 C 0.3409 0.27101 0.34289 0.0
C597 C 0.35428 0.24259 0.33275 0.0
C598 C 0.24445 0.26032 0.30841 0.0
C599 C 0.36434 0.29319 0.36213 0.0
H600 H 0.26406 0.3883 0.35125 0.0
H601 H 0.1872 0.25437 0.37859 0.0
H602 H 0.35986 0.37212 0.33502 0.0
H603 H 0.31889 0.36838 0.31695 0.0
H604 H 0.33748 0.41146 0.33608 0.0
H605 H 0.20529 0.19623 0.37467 0.0
H606 H 0.22192 0.19597 0.34935 0.0
H607 H 0.26431 0.21398 0.36854 0.0
H608 H 0.28247 0.21346 0.29304 0.0
H609 H 0.38049 0.23637 0.33909 0.0
H610 H 0.25316 0.29701 0.3078 0.0
H611 H 0.21373 0.24162 0.31812 0.0
H612 H 0.23487 0.24547 0.29328 0.0
H613 H 0.36893 0.3284 0.36354 0.0
H614 H 0.39864 0.29561 0.36343 0.0
H615 H 0.34256 0.27211 0.37467 0.0
C616 C 0.91379 0.24616 0.67463 0.0
C617 C 0.91091 0.22238 0.69218 0.0
C618 C 0.95671 0.2736 0.66514 0.0
C619 C 0.99724 0.27624 0.67314 0.0
C620 C 0.99491 0.25556 0.69168 0.0
C621 C 0.95205 0.22959 0.70107 0.0
C622 C 0.9581 0.29697 0.64585 0.0
C623 C 0.03686 0.25677 0.70074 0.0
C624 C 0.0852 0.27296 0.63891 0.0
C625 C 0.12467 0.31639 0.64209 0.0
C626 C 0.04316 0.26046 0.64827 0.0
C627 C 0.03974 0.29258 0.66082 0.0
C628 C 0.0786 0.33757 0.66321 0.0
C629 C 0.12094 0.34872 0.65408 0.0
C630 C 1.00315 0.21173 0.64558 0.0
C631 C 0.07599 0.37341 0.67588 0.0
H632 H 0.88241 0.24144 0.66775 0.0
H633 H 0.95056 0.21221 0.71483 0.0
H634 H 0.98965 0.33164 0.64492 0.0
H635 H 0.95907 0.27589 0.63337 0.0
H636 H 0.92717 0.30086 0.644 0.0
H637 H 0.03019 0.24263 0.71603 0.0
H638 H 0.04724 0.23593 0.69153 0.0
H639 H 0.06648 0.29267 0.70113 0.0
H640 H 0.08757 0.24762 0.62971 0.0
H641 H 0.15109 0.38253 0.65645 0.0
H642 H 0.97216 0.21253 0.64028 0.0
H643 H 0.99418 0.19334 0.66 0.0
H644 H 1.0111 0.1914 0.63487 0.0
H645 H 0.04249 0.37225 0.67375 0.0
H646 H 0.10458 0.40892 0.67252 0.0
H647 H 0.07852 0.36616 0.6917 0.0
C648 C 0.75391 0.94651 0.0277 0.0
C649 C 0.70939 0.90805 0.02534 0.0
C650 C 0.7669 0.98893 0.01856 0.0
C651 C 0.73421 0.99399 0.00712 0.0
C652 C 0.68827 0.95624 0.00561 0.0
C653 C 0.67659 0.91332 0.01442 0.0
C654 C 0.81661 0.02753 0.02025 0.0
C655 C 0.65183 0.96056 0.9942 0.0
C656 C 0.78526 0.12127 0.99425 0.0
C657 C 0.80655 0.12324 0.97609 0.0
C658 C 0.75688 0.07843 0.00371 0.0
C659 C 0.75069 0.03696 0.99502 0.0
C660 C 0.7687 0.0386 0.97591 0.0
C661 C 0.79575 0.08148 0.96663 0.0
C662 C 0.73634 0.07791 0.02363 0.0
C663 C 0.76354 0.9956 0.96606 0.0
H664 H 0.7797 0.94297 0.03603 0.0
H665 H 0.64201 0.88398 0.01267 0.0
H666 H 0.83285 0.03611 0.00537 0.0
H667 H 0.81816 0.05923 0.02621 0.0
H668 H 0.83749 0.01822 0.02999 0.0
H669 H 0.61645 0.93418 0.99898 0.0
H670 H 0.656 0.99552 0.99603 0.0
H671 H 0.65515 0.95525 0.97822 0.0
H672 H 0.7927 0.15315 0.00159 0.0
H673 H 0.81109 0.08231 0.95239 0.0
H674 H 0.75784 0.07508 0.03544 0.0
H675 H 0.70094 0.04758 0.02496 0.0
H676 H 0.7349 0.11006 0.0262 0.0
H677 H 0.78387 0.98313 0.97436 0.0
H678 H 0.77583 1.00203 0.95049 0.0
H679 H 0.72693 0.96748 0.96623 0.0
C680 C 0.67499 0.77473 0.32494 0.0
C681 C 0.70926 0.81239 0.31428 0.0
C682 C 0.68458 0.74217 0.33388 0.0
C683 C 0.72988 0.74864 0.33274 0.0
C684 C 0.76429 0.78653 0.32187 0.0
C685 C 0.75337 0.81732 0.31261 0.0
C686 C 0.64649 0.70153 0.34479 0.0
C687 C 0.81342 0.79581 0.3206 0.0
C688 C 0.78852 0.71596 0.37187 0.0
C689 C 0.79841 0.68558 0.36136 0.0
C690 C 0.76195 0.73336 0.36347 0.0
C691 C 0.74374 0.71925 0.34421 0.0
C692 C 0.74841 0.68399 0.33461 0.0
C693 C 0.77618 0.66783 0.34321 0.0
C694 C 0.75818 0.77093 0.37431 0.0
C695 C 0.72761 0.66638 0.31447 0.0
H696 H 0.64074 0.77052 0.32616 0.0
H697 H 0.78024 0.84649 0.30454 0.0
H698 H 0.64896 0.66985 0.34263 0.0
H699 H 0.64959 0.70919 0.36086 0.0
H700 H 0.6118 0.6944 0.33989 0.0
H701 H 0.83603 0.82693 0.31159 0.0
H702 H 0.82845 0.80097 0.33566 0.0
H703 H 0.81392 0.76566 0.31397 0.0
H704 H 0.80457 0.72912 0.38614 0.0
H705 H 0.78292 0.64382 0.33508 0.0
H706 H 0.72227 0.76446 0.37379 0.0
H707 H 0.78071 0.80472 0.36698 0.0
H708 H 0.76892 0.77374 0.39003 0.0
H709 H 0.69276 0.66269 0.31342 0.0
H710 H 0.72485 0.63247 0.31113 0.0
H711 H 0.74977 0.69157 0.30302 0.0
C712 C 0.08916 0.81396 0.69544 0.0
C713 C 0.12699 0.80675 0.69368 0.0
C714 C 0.04648 0.78393 0.6867 0.0
C715 C 0.04049 0.74444 0.67633 0.0
C716 C 0.07757 0.73518 0.67549 0.0
C717 C 0.12079 0.76699 0.68385 0.0
C718 C 1.00864 0.79623 0.68761 0.0
C719 C 0.07229 0.69263 0.66526 0.0
C720 C 0.91294 0.66979 0.66429 0.0
C721 C 0.91132 0.68735 0.64563 0.0
C722 C 0.95565 0.68393 0.67373 0.0
C723 C 0.99735 0.71721 0.6645 0.0
C724 C 0.99593 0.7315 0.64494 0.0
C725 C 0.95314 0.71593 0.6357 0.0
C726 C 0.95592 0.6659 0.69415 0.0
C727 C 0.03923 0.76712 0.63448 0.0
H728 H 0.0934 0.84457 0.70293 0.0
H729 H 0.14964 0.76087 0.68258 0.0
H730 H 0.99992 0.80207 0.67243 0.0
H731 H 0.97686 0.76732 0.69416 0.0
H732 H 1.01874 0.82791 0.6965 0.0
H733 H 0.09714 0.68271 0.67118 0.0
H734 H 0.03666 0.66285 0.66689 0.0
H735 H 0.07944 0.69988 0.64924 0.0
H736 H 0.88098 0.64706 0.67199 0.0
H737 H 0.95256 0.72895 0.62107 0.0
H738 H 0.95977 0.69192 0.70534 0.0
H739 H 0.98554 0.65987 0.6959 0.0
H740 H 0.9233 0.63314 0.69728 0.0
H741 H 0.05305 0.80108 0.64203 0.0
H742 H 0.03276 0.77152 0.61872 0.0
H743 H 0.06632 0.75725 0.6351 0.0
C744 C 0.06776 0.28609 0.99224 0.0
C745 C 0.04507 0.25556 0.97652 0.0
C746 C 0.1072 0.28886 1.00096 0.0
C747 C 0.12365 0.25964 0.99408 0.0
C748 C 0.10119 0.22914 0.97808 0.0
C749 C 0.06245 0.22784 0.96934 0.0
C750 C 0.13087 0.32256 0.01769 0.0
C751 C 0.11723 0.19689 0.97055 0.0
C752 C 0.24549 0.28541 0.00582 0.0
C753 C 0.23775 0.25613 0.02202 0.0
C754 C 0.20884 0.28789 0.9969 0.0
C755 C 0.16329 0.25964 0.00409 0.0
C756 C 0.15534 0.23029 0.02054 0.0
C757 C 0.19276 0.22927 0.02944 0.0
C758 C 0.21878 0.32038 0.97967 0.0
C759 C 0.10716 0.19906 0.02842 0.0
H760 H 0.05467 0.30787 0.99773 0.0
H761 H 0.04487 0.20399 0.95728 0.0
H762 H 0.12814 0.30335 0.03149 0.0
H763 H 0.16823 0.34493 0.0144 0.0
H764 H 0.11562 0.34499 0.0204 0.0
H765 H 0.0964 0.17577 0.95779 0.0
H766 H 0.15401 0.21697 0.96597 0.0
H767 H 0.11489 0.17317 0.98258 0.0
H768 H 0.28028 0.30651 1.00012 0.0
H769 H 0.18654 0.20635 0.04188 0.0
H770 H 0.20461 0.34359 0.98266 0.0
H771 H 0.20145 0.30024 0.96617 0.0
H772 H 0.2564 0.34197 0.97663 0.0
H773 H 0.09115 0.21991 0.03281 0.0
H774 H 0.1069 0.1785 0.0414 0.0
H775 H 0.08516 0.17484 0.01665 0.0
C776 C 0.79777 0.0747 0.31955 0.0
C777 C 0.80822 0.04907 0.3062 0.0
C778 C 0.83294 0.11485 0.3285 0.0
C779 C 0.87969 0.12895 0.3244 0.0
C780 C 0.89042 0.10396 0.31047 0.0
C781 C 0.85445 0.06457 0.30133 0.0
C782 C 0.82008 0.14129 0.34284 0.0
C783 C 0.93988 0.11748 0.30596 0.0
C784 C 0.97656 0.24909 0.33834 0.0
C785 C 0.99128 0.24041 0.35646 0.0
C786 C 0.9394 0.2134 0.32796 0.0
C787 C 0.9173 0.16783 0.33567 0.0
C788 C 0.93166 0.15903 0.35407 0.0
C789 C 0.96813 0.19556 0.36436 0.0
C790 C 0.92418 0.22432 0.30866 0.0
C791 C 0.90942 0.11075 0.36263 0.0
H792 H 0.76196 0.063 0.32319 0.0
H793 H 0.86258 0.04463 0.2911 0.0
H794 H 0.83038 0.13768 0.35804 0.0
H795 H 0.8389 0.17874 0.33916 0.0
H796 H 0.78236 0.1287 0.34279 0.0
H797 H 0.94239 0.09578 0.29411 0.0
H798 H 0.95978 0.1543 0.30136 0.0
H799 H 0.95655 0.11385 0.31951 0.0
H800 H 0.99424 0.2838 0.33224 0.0
H801 H 0.97965 0.1886 0.37827 0.0
H802 H 0.88655 0.2119 0.30908 0.0
H803 H 0.93016 0.20593 0.29636 0.0
H804 H 0.943 0.262 0.30535 0.0
H805 H 0.87182 0.09688 0.36474 0.0
H806 H 0.92476 0.10974 0.37707 0.0
H807 H 0.91338 0.08732 0.35218 0.0
C808 C 0.74909 0.79041 0.655 0.0
C809 C 0.78263 0.79885 0.64059 0.0
C810 C 0.74559 0.82685 0.6635 0.0
C811 C 0.77703 0.87294 0.65775 0.0
C812 C 0.81027 0.88164 0.64286 0.0
C813 C 0.81237 0.84437 0.63429 0.0
C814 C 0.70901 0.81609 0.679 0.0
C815 C 0.84475 0.9304 0.63653 0.0
C816 C 0.75159 0.96905 0.67016 0.0
C817 C 0.77759 0.98744 0.68748 0.0
C818 C 0.75048 0.93131 0.66045 0.0
C819 C 0.77669 0.91211 0.66806 0.0
C820 C 0.80276 0.93033 0.68561 0.0
C821 C 0.80255 0.9675 0.69521 0.0
C822 C 0.72148 0.91212 0.64202 0.0
C823 C 0.83155 0.91109 0.69406 0.0
H824 H 0.72568 0.75518 0.65976 0.0
H825 H 0.83845 0.85103 0.62321 0.0
H826 H 0.72568 0.83009 0.69352 0.0
H827 H 0.68871 0.83306 0.67519 0.0
H828 H 0.68488 0.77828 0.68062 0.0
H829 H 0.86716 0.93119 0.62421 0.0
H830 H 0.82654 0.94889 0.63177 0.0
H831 H 0.86707 0.94977 0.64925 0.0
H832 H 0.73203 0.98418 0.66417 0.0
H833 H 0.82299 0.98176 0.7085 0.0
H834 H 0.69665 0.8746 0.64392 0.0
H835 H 0.74392 0.91577 0.62926 0.0
H836 H 0.70183 0.92994 0.63842 0.0
H837 H 0.80919 0.87383 0.69759 0.0
H838 H 0.85027 0.92952 0.7077 0.0
H839 H 0.85723 0.91381 0.68293 0.0
C840 C 0.8453 0.7903 0.03061 0.0
C841 C 0.79991 0.76448 0.02352 0.0
C842 C 0.88171 0.7883 0.02125 0.0
C843 C 0.87228 0.75888 0.00469 0.0
C844 C 0.82622 0.73126 0.99797 0.0
C845 C 0.79061 0.73487 0.00731 0.0
C846 C 0.93049 0.81896 0.02863 0.0
C847 C 0.81469 0.69858 0.9807 0.0
C848 C 0.9711 0.79193 0.96871 0.0
C849 C 0.98961 0.7649 0.97549 0.0
C850 C 0.9324 0.78972 0.97789 0.0
C851 C 0.91104 0.75887 0.99391 0.0
C852 C 0.92834 0.72996 1.00024 0.0
C853 C 0.96786 0.73379 0.99112 0.0
C854 C 0.91554 0.82176 0.97096 0.0
C855 C 0.90571 0.69576 0.01691 0.0
H856 H 0.85267 0.81348 0.04306 0.0
H857 H 0.75547 0.71457 0.00189 0.0
H858 H 0.94648 0.79775 0.03241 0.0
H859 H 0.95182 0.84337 0.01677 0.0
H860 H 0.93186 0.83932 0.04187 0.0
H861 H 0.77681 0.6767 0.97839 0.0
H862 H 0.83039 0.71861 0.96699 0.0
H863 H 0.82948 0.67567 0.98308 0.0
H864 H 0.98802 0.81624 0.95671 0.0
H865 H 0.98187 0.71255 0.99628 0.0
H866 H 0.91878 0.84549 0.98316 0.0
H867 H 0.87843 0.80156 0.96692 0.0
H868 H 0.93528 0.8429 0.958 0.0
H869 H 0.90993 0.7146 0.03097 0.0
H870 H 0.92075 0.67289 0.01881 0.0
H871 H 0.86805 0.67388 0.01415 0.0
C872 C 0.05178 0.78247 0.33392 0.0
C873 C 0.03446 0.79074 0.35141 0.0
C874 C 0.08963 0.81861 0.32405 0.0
C875 C 0.11002 0.86416 0.33167 0.0
C876 C 0.09263 0.87271 0.3493 0.0
C877 C 0.05533 0.83582 0.35905 0.0
C878 C 0.1079 0.80805 0.30552 0.0
C879 C 0.11313 0.92095 0.35776 0.0
C880 C 0.23269 0.95632 0.31911 0.0
C881 C 0.22538 0.9828 0.30498 0.0
C882 C 0.19552 0.91635 0.32725 0.0
C883 C 0.14988 0.90308 0.3214 0.0
C884 C 0.14235 0.92881 0.30668 0.0
C885 C 0.18031 0.9682 0.29848 0.0
C886 C 0.20505 0.88924 0.34258 0.0
C887 C 0.0941 0.91601 0.30025 0.0
H888 H 0.03593 0.74763 0.328 0.0
H889 H 0.0419 0.84251 0.37248 0.0
H890 H 0.10544 0.82788 0.29287 0.0
H891 H 0.14499 0.81909 0.30743 0.0
H892 H 0.0887 0.77062 0.30174 0.0
H893 H 0.09488 0.9219 0.37134 0.0
H894 H 0.1501 0.93467 0.36141 0.0
H895 H 0.11153 0.94453 0.34661 0.0
H896 H 0.26756 0.96723 0.32403 0.0
H897 H 0.17453 0.98869 0.28763 0.0
H898 H 0.18683 0.85192 0.33868 0.0
H899 H 0.19167 0.89244 0.35716 0.0
H900 H 0.24256 0.90157 0.34409 0.0
H901 H 0.07459 0.87921 0.2956 0.0
H902 H 0.09424 0.93793 0.28785 0.0
H903 H 0.07522 0.91999 0.31291 0.0
C904 C 0.29848 0.05679 0.66998 0.0
C905 C 0.27029 0.03921 0.68678 0.0
C906 C 0.30173 0.09481 0.65962 0.0
C907 C 0.27523 0.11481 0.66593 0.0
C908 C 0.24695 0.09734 0.68296 0.0
C909 C 0.24527 0.06011 0.69332 0.0
C910 C 0.33323 0.11334 0.64186 0.0
C911 C 0.21756 0.11725 0.68998 0.0
C912 C 0.30267 0.23582 0.6517 0.0
C913 C 0.27039 0.22662 0.63662 0.0
C914 C 0.30646 0.19992 0.66062 0.0
C915 C 0.27631 0.15363 0.65469 0.0
C916 C 0.24471 0.14431 0.639 0.0
C917 C 0.24255 0.18108 0.62996 0.0
C918 C 0.3415 0.21139 0.67691 0.0
C919 C 0.21142 0.09534 0.63249 0.0
H920 H 0.31808 0.04086 0.66495 0.0
H921 H 0.22313 0.04638 0.70619 0.0
H922 H 0.31257 0.10905 0.62836 0.0
H923 H 0.35769 0.15097 0.64368 0.0
H924 H 0.35339 0.0955 0.63951 0.0
H925 H 0.197 0.09929 0.70334 0.0
H926 H 0.23977 0.15455 0.69347 0.0
H927 H 0.19348 0.1145 0.67806 0.0
H928 H 0.32455 0.27114 0.65674 0.0
H929 H 0.21737 0.17391 0.61838 0.0
H930 H 0.36165 0.19369 0.67428 0.0
H931 H 0.32341 0.19876 0.69127 0.0
H932 H 0.36588 0.24923 0.67814 0.0
H933 H 0.23037 0.07683 0.62896 0.0
H934 H 0.19093 0.09413 0.61934 0.0
H935 H 0.1872 0.07625 0.64476 0.0
loop_
_geom_bond_atom_site_label_1
_geom_bond_atom_site_label_2
_geom_bond_distance
_geom_bond_site_symmetry_2
_ccdc_geom_bond_type
O0 Cd1 2.223 . S
O0 C8 1.315 . S
Cd1 O0 2.223 . S
Cd1 O4 2.297 . S
Cd1 O5 2.439 . S
Cd1 O11 2.240 . S
Cd2 O3 2.240 . S
Cd2 O10 2.223 . S
Cd2 O12 2.297 . S
Cd2 O13 2.439 . S
O3 Cd2 2.240 . S
O3 C8 1.279 . S
O4 Cd1 2.297 . S
O4 C6 1.247 . S
O5 Cd1 2.439 . S
O5 C6 1.208 . S
C6 O4 1.247 . S
C6 O5 1.208 . S
C7 O12 1.247 . S
C7 O13 1.208 . S
C8 O0 1.315 . S
C8 O3 1.279 . S
C9 O10 1.315 . S
C9 O11 1.279 . S
O10 Cd2 2.223 . S
O10 C9 1.315 . S
O11 Cd1 2.240 . S
O11 C9 1.279 . S
O12 Cd2 2.297 . S
O12 C7 1.247 . S
O13 Cd2 2.439 . S
O13 C7 1.208 . S
O14 Cd15 2.223 . S
O14 C22 1.315 . S
Cd15 O14 2.223 . S
Cd15 O18 2.297 . S
Cd15 O19 2.439 . S
Cd15 O25 2.240 . S
Cd16 O17 2.240 . S
Cd16 O24 2.223 . S
Cd16 O26 2.297 . S
Cd16 O27 2.439 . S
O17 Cd16 2.240 . S
O17 C22 1.279 . S
O18 Cd15 2.297 . S
O18 C20 1.247 . S
O19 Cd15 2.439 . S
O19 C20 1.208 . S
C20 O18 1.247 . S
C20 O19 1.208 . S
C21 O26 1.247 . S
C21 O27 1.208 . S
C22 O14 1.315 . S
C22 O17 1.279 . S
C23 O24 1.315 . S
C23 O25 1.279 . S
O24 Cd16 2.223 . S
O24 C23 1.315 . S
O25 Cd15 2.240 . S
O25 C23 1.279 . S
O26 Cd16 2.297 . S
O26 C21 1.247 . S
O27 Cd16 2.439 . S
O27 C21 1.208 . S
O28 Cd29 2.223 . S
O28 C36 1.315 . S
Cd29 O28 2.223 . S
Cd29 O32 2.297 . S
Cd29 O33 2.439 . S
Cd29 O39 2.240 . S
Cd30 O31 2.240 . S
Cd30 O38 2.223 . S
Cd30 O40 2.297 . S
Cd30 O41 2.439 . S
O31 Cd30 2.240 . S
O31 C36 1.279 . S
O32 Cd29 2.297 . S
O32 C34 1.247 . S
O33 Cd29 2.439 . S
O33 C34 1.208 . S
C34 O32 1.247 . S
C34 O33 1.208 . S
C35 O40 1.247 . S
C35 O41 1.208 . S
C36 O28 1.315 . S
C36 O31 1.279 . S
C37 O38 1.315 . S
C37 O39 1.279 . S
O38 Cd30 2.223 . S
O38 C37 1.315 . S
O39 Cd29 2.240 . S
O39 C37 1.279 . S
O40 Cd30 2.297 . S
O40 C35 1.247 . S
O41 Cd30 2.439 . S
O41 C35 1.208 . S
O42 Cd43 2.223 . S
O42 C50 1.315 . S
Cd43 O42 2.223 . S
Cd43 O46 2.297 . S
Cd43 O47 2.439 . S
Cd43 O53 2.240 . S
Cd44 O45 2.240 . S
Cd44 O52 2.223 . S
Cd44 O54 2.297 . S
Cd44 O55 2.439 . S
O45 Cd44 2.240 . S
O45 C50 1.279 . S
O46 Cd43 2.297 . S
O46 C48 1.247 . S
O47 Cd43 2.439 . S
O47 C48 1.208 . S
C48 O46 1.247 . S
C48 O47 1.208 . S
C49 O54 1.247 . S
C49 O55 1.208 . S
C50 O42 1.315 . S
C50 O45 1.279 . S
C51 O52 1.315 . S
C51 O53 1.279 . S
O52 Cd44 2.223 . S
O52 C51 1.315 . S
O53 Cd43 2.240 . S
O53 C51 1.279 . S
O54 Cd44 2.297 . S
O54 C49 1.247 . S
O55 Cd44 2.439 . S
O55 C49 1.208 . S
O56 Cd57 2.223 . S
O56 C64 1.315 . S
Cd57 O56 2.223 . S
Cd57 O60 2.297 . S
Cd57 O61 2.439 . S
Cd57 O67 2.240 . S
Cd58 O59 2.240 . S
Cd58 O66 2.223 . S
Cd58 O68 2.297 . S
Cd58 O69 2.439 . S
O59 Cd58 2.240 . S
O59 C64 1.279 . S
O60 Cd57 2.297 . S
O60 C62 1.247 . S
O61 Cd57 2.439 . S
O61 C62 1.208 . S
C62 O60 1.247 . S
C62 O61 1.208 . S
C63 O68 1.247 . S
C63 O69 1.208 . S
C64 O56 1.315 . S
C64 O59 1.279 . S
C65 O66 1.315 . S
C65 O67 1.279 . S
O66 Cd58 2.223 . S
O66 C65 1.315 . S
O67 Cd57 2.240 . S
O67 C65 1.279 . S
O68 Cd58 2.297 . S
O68 C63 1.247 . S
O69 Cd58 2.439 . S
O69 C63 1.208 . S
O70 Cd71 2.223 . S
O70 C78 1.315 . S
Cd71 O70 2.223 . S
Cd71 O74 2.297 . S
Cd71 O75 2.439 . S
Cd71 O81 2.240 . S
Cd72 O73 2.240 . S
Cd72 O80 2.223 . S
Cd72 O82 2.297 . S
Cd72 O83 2.439 . S
O73 Cd72 2.240 . S
O73 C78 1.279 . S
O74 Cd71 2.297 . S
O74 C76 1.247 . S
O75 Cd71 2.439 . S
O75 C76 1.208 . S
C76 O74 1.247 . S
C76 O75 1.208 . S
C77 O82 1.247 . S
C77 O83 1.208 . S
C78 O70 1.315 . S
C78 O73 1.279 . S
C79 O80 1.315 . S
C79 O81 1.279 . S
O80 Cd72 2.223 . S
O80 C79 1.315 . S
O81 Cd71 2.240 . S
O81 C79 1.279 . S
O82 Cd72 2.297 . S
O82 C77 1.247 . S
O83 Cd72 2.439 . S
O83 C77 1.208 . S
O84 Cd85 2.223 . S
O84 C92 1.315 . S
Cd85 O84 2.223 . S
Cd85 O88 2.297 . S
Cd85 O89 2.439 . S
Cd85 O95 2.240 . S
Cd86 O87 2.240 . S
Cd86 O94 2.223 . S
Cd86 O96 2.297 . S
Cd86 O97 2.439 . S
O87 Cd86 2.240 . S
O87 C92 1.279 . S
O88 Cd85 2.297 . S
O88 C90 1.247 . S
O89 Cd85 2.439 . S
O89 C90 1.208 . S
C90 O88 1.247 . S
C90 O89 1.208 . S
C91 O96 1.247 . S
C91 O97 1.208 . S
C92 O84 1.315 . S
C92 O87 1.279 . S
C93 O94 1.315 . S
C93 O95 1.279 . S
O94 Cd86 2.223 . S
O94 C93 1.315 . S
O95 Cd85 2.240 . S
O95 C93 1.279 . S
O96 Cd86 2.297 . S
O96 C91 1.247 . S
O97 Cd86 2.439 . S
O97 C91 1.208 . S
O98 Cd99 2.223 . S
O98 C106 1.315 . S
Cd99 O98 2.223 . S
Cd99 O102 2.297 . S
Cd99 O103 2.439 . S
Cd99 O109 2.240 . S
Cd100 O101 2.240 . S
Cd100 O108 2.223 . S
Cd100 O110 2.297 . S
Cd100 O111 2.439 . S
O101 Cd100 2.240 . S
O101 C106 1.279 . S
O102 Cd99 2.297 . S
O102 C104 1.247 . S
O103 Cd99 2.439 . S
O103 C104 1.208 . S
C104 O102 1.247 . S
C104 O103 1.208 . S
C105 O110 1.247 . S
C105 O111 1.208 . S
C106 O98 1.315 . S
C106 O101 1.279 . S
C107 O108 1.315 . S
C107 O109 1.279 . S
O108 Cd100 2.223 . S
O108 C107 1.315 . S
O109 Cd99 2.240 . S
O109 C107 1.279 . S
O110 Cd100 2.297 . S
O110 C105 1.247 . S
O111 Cd100 2.439 . S
O111 C105 1.208 . S
O112 Cd113 2.223 . S
O112 C120 1.315 . S
Cd113 O112 2.223 . S
Cd113 O116 2.297 . S
Cd113 O117 2.439 . S
Cd113 O123 2.240 . S
Cd114 O115 2.240 . S
Cd114 O122 2.223 . S
Cd114 O124 2.297 . S
Cd114 O125 2.439 . S
O115 Cd114 2.240 . S
O115 C120 1.279 . S
O116 Cd113 2.297 . S
O116 C118 1.247 . S
O117 Cd113 2.439 . S
O117 C118 1.208 . S
C118 O116 1.247 . S
C118 O117 1.208 . S
C119 O124 1.247 . S
C119 O125 1.208 . S
C120 O112 1.315 . S
C120 O115 1.279 . S
C121 O122 1.315 . S
C121 O123 1.279 . S
O122 Cd114 2.223 . S
O122 C121 1.315 . S
O123 Cd113 2.240 . S
O123 C121 1.279 . S
O124 Cd114 2.297 . S
O124 C119 1.247 . S
O125 Cd114 2.439 . S
O125 C119 1.208 . S
O126 Cd127 2.223 . S
O126 C134 1.315 . S
Cd127 O126 2.223 . S
Cd127 O130 2.297 . S
Cd127 O131 2.439 . S
Cd127 O137 2.240 . S
Cd128 O129 2.240 . S
Cd128 O136 2.223 . S
Cd128 O138 2.297 . S
Cd128 O139 2.439 . S
O129 Cd128 2.240 . S
O129 C134 1.279 . S
O130 Cd127 2.297 . S
O130 C132 1.247 . S
O131 Cd127 2.439 . S
O131 C132 1.208 . S
C132 O130 1.247 . S
C132 O131 1.208 . S
C133 O138 1.247 . S
C133 O139 1.208 . S
C134 O126 1.315 . S
C134 O129 1.279 . S
C135 O136 1.315 . S
C135 O137 1.279 . S
O136 Cd128 2.223 . S
O136 C135 1.315 . S
O137 Cd127 2.240 . S
O137 C135 1.279 . S
O138 Cd128 2.297 . S
O138 C133 1.247 . S
O139 Cd128 2.439 . S
O139 C133 1.208 . S
O140 Cd141 2.223 . S
O140 C148 1.315 . S
Cd141 O140 2.223 . S
Cd141 O144 2.297 . S
Cd141 O145 2.439 . S
Cd141 O151 2.240 . S
Cd142 O143 2.240 . S
Cd142 O150 2.223 . S
Cd142 O152 2.297 . S
Cd142 O153 2.439 . S
O143 Cd142 2.240 . S
O143 C148 1.279 . S
O144 Cd141 2.297 . S
O144 C146 1.247 . S
O145 Cd141 2.439 . S
O145 C146 1.208 . S
C146 O144 1.247 . S
C146 O145 1.208 . S
C147 O152 1.247 . S
C147 O153 1.208 . S
C148 O140 1.315 . S
C148 O143 1.279 . S
C149 O150 1.315 . S
C149 O151 1.279 . S
O150 Cd142 2.223 . S
O150 C149 1.315 . S
O151 Cd141 2.240 . S
O151 C149 1.279 . S
O152 Cd142 2.297 . S
O152 C147 1.247 . S
O153 Cd142 2.439 . S
O153 C147 1.208 . S
O154 Cd155 2.223 . S
O154 C162 1.315 . S
Cd155 O154 2.223 . S
Cd155 O158 2.297 . S
Cd155 O159 2.439 . S
Cd155 O165 2.240 . S
Cd156 O157 2.240 . S
Cd156 O164 2.223 . S
Cd156 O166 2.297 . S
Cd156 O167 2.439 . S
O157 Cd156 2.240 . S
O157 C162 1.279 . S
O158 Cd155 2.297 . S
O158 C160 1.247 . S
O159 Cd155 2.439 . S
O159 C160 1.208 . S
C160 O158 1.247 . S
C160 O159 1.208 . S
C161 O166 1.247 . S
C161 O167 1.208 . S
C162 O154 1.315 . S
C162 O157 1.279 . S
C163 O164 1.315 . S
C163 O165 1.279 . S
O164 Cd156 2.223 . S
O164 C163 1.315 . S
O165 Cd155 2.240 . S
O165 C163 1.279 . S
O166 Cd156 2.297 . S
O166 C161 1.247 . S
O167 Cd156 2.439 . S
O167 C161 1.208 . S
C168 C169 1.391 . S
C168 C170 1.394 . S
C168 H184 0.931 . S
C169 C168 1.391 . S
C169 C173 1.376 . S
C170 C168 1.394 . S
C170 C171 1.369 . S
C170 C174 1.531 . S
C171 C170 1.369 . S
C171 C172 1.410 . S
C171 C179 1.503 . S
C172 C171 1.410 . S
C172 C173 1.392 . S
C172 C175 1.511 . S
C173 C169 1.376 . S
C173 C172 1.392 . S
C173 H185 0.929 . S
C174 C170 1.531 . S
C174 H186 0.960 . S
C174 H187 0.962 . S
C174 H188 0.960 . S
C175 C172 1.511 . S
C175 H189 0.961 . S
C175 H190 0.961 . S
C175 H191 0.961 . S
C176 C177 1.370 . S
C176 C178 1.363 . S
C176 H192 0.931 . S
C177 C176 1.370 . S
C177 C181 1.408 . S
C178 C176 1.363 . S
C178 C179 1.370 . S
C178 C182 1.524 . S
C179 C171 1.503 . S
C179 C178 1.370 . S
C179 C180 1.403 . S
C180 C179 1.403 . S
C180 C181 1.404 . S
C180 C183 1.539 1_554 S
C181 C177 1.408 . S
C181 C180 1.404 . S
C181 H193 0.930 . S
C182 C178 1.524 . S
C182 H194 0.956 . S
C182 H195 0.961 . S
C182 H196 0.961 . S
C183 C180 1.539 1_556 S
C183 H197 0.958 . S
C183 H198 0.961 . S
C183 H199 0.960 1_556 S
H184 C168 0.931 . S
H185 C173 0.929 . S
H186 C174 0.960 . S
H187 C174 0.962 . S
H188 C174 0.960 . S
H189 C175 0.961 . S
H190 C175 0.961 . S
H191 C175 0.961 . S
H192 C176 0.931 . S
H193 C181 0.930 . S
H194 C182 0.956 . S
H195 C182 0.961 . S
H196 C182 0.961 . S
H197 C183 0.958 . S
H198 C183 0.961 . S
H199 C183 0.960 1_554 S
C200 C201 1.391 . S
C200 C202 1.394 . S
C200 H216 0.931 . S
C201 C200 1.391 . S
C201 C205 1.376 . S
C202 C200 1.394 . S
C202 C203 1.369 1_455 S
C202 C206 1.531 . S
C203 C202 1.369 1_655 S
C203 C204 1.410 1_655 S
C203 C211 1.503 . S
C204 C203 1.410 1_455 S
C204 C205 1.392 . S
C204 C207 1.511 1_455 S
C205 C201 1.376 . S
C205 C204 1.392 . S
C205 H217 0.929 . S
C206 C202 1.531 . S
C206 H218 0.960 1_455 S
C206 H219 0.962 . S
C206 H220 0.960 . S
C207 C204 1.511 1_655 S
C207 H221 0.961 1_655 S
C207 H222 0.961 . S
C207 H223 0.961 . S
C208 C209 1.370 1_455 S
C208 C210 1.363 . S
C208 H224 0.931 . S
C209 C208 1.370 1_655 S
C209 C213 1.408 . S
C210 C208 1.363 . S
C210 C211 1.370 1_455 S
C210 C214 1.524 . S
C211 C203 1.503 . S
C211 C210 1.370 1_655 S
C211 C212 1.403 . S
C212 C211 1.403 . S
C212 C213 1.404 . S
C212 C215 1.539 . S
C213 C209 1.408 . S
C213 C212 1.404 . S
C213 H225 0.930 . S
C214 C210 1.524 . S
C214 H226 0.956 . S
C214 H227 0.961 . S
C214 H228 0.961 . S
C215 C212 1.539 . S
C215 H229 0.958 . S
C215 H230 0.961 . S
C215 H231 0.960 . S
H216 C200 0.931 . S
H217 C205 0.929 . S
H218 C206 0.960 1_655 S
H219 C206 0.962 . S
H220 C206 0.960 . S
H221 C207 0.961 1_455 S
H222 C207 0.961 . S
H223 C207 0.961 . S
H224 C208 0.931 . S
H225 C213 0.930 . S
H226 C214 0.956 . S
H227 C214 0.961 . S
H228 C214 0.961 . S
H229 C215 0.958 . S
H230 C215 0.961 . S
H231 C215 0.960 . S
C232 C233 1.391 1_545 S
C232 C234 1.394 . S
C232 H248 0.931 . S
C233 C232 1.391 1_565 S
C233 C237 1.376 . S
C234 C232 1.394 . S
C234 C235 1.369 1_545 S
C234 C238 1.531 . S
C235 C234 1.369 1_565 S
C235 C236 1.410 . S
C235 C243 1.503 1_565 S
C236 C235 1.410 . S
C236 C237 1.392 . S
C236 C239 1.511 . S
C237 C233 1.376 . S
C237 C236 1.392 . S
C237 H249 0.929 . S
C238 C234 1.531 . S
C238 H250 0.960 . S
C238 H251 0.962 . S
C238 H252 0.960 . S
C239 C236 1.511 . S
C239 H253 0.961 . S
C239 H254 0.961 . S
C239 H255 0.961 . S
C240 C241 1.370 . S
C240 C242 1.363 . S
C240 H256 0.931 . S
C241 C240 1.370 . S
C241 C245 1.408 . S
C242 C240 1.363 . S
C242 C243 1.370 . S
C242 C246 1.524 . S
C243 C235 1.503 1_545 S
C243 C242 1.370 . S
C243 C244 1.403 . S
C244 C243 1.403 . S
C244 C245 1.404 . S
C244 C247 1.539 1_545 S
C245 C241 1.408 . S
C245 C244 1.404 . S
C245 H257 0.930 . S
C246 C242 1.524 . S
C246 H258 0.956 . S
C246 H259 0.961 1_545 S
C246 H260 0.961 . S
C247 C244 1.539 1_565 S
C247 H261 0.958 1_565 S
C247 H262 0.961 . S
C247 H263 0.960 . S
H248 C232 0.931 . S
H249 C237 0.929 . S
H250 C238 0.960 . S
H251 C238 0.962 . S
H252 C238 0.960 . S
H253 C239 0.961 . S
H254 C239 0.961 . S
H255 C239 0.961 . S
H256 C240 0.931 . S
H257 C245 0.930 . S
H258 C246 0.956 . S
H259 C246 0.961 1_565 S
H260 C246 0.961 . S
H261 C247 0.958 1_545 S
H262 C247 0.961 . S
H263 C247 0.960 . S
C264 C265 1.391 . S
C264 C266 1.394 . S
C264 H280 0.931 . S
C265 C264 1.391 . S
C265 C269 1.376 . S
C266 C264 1.394 . S
C266 C267 1.369 . S
C266 C270 1.531 . S
C267 C266 1.369 . S
C267 C268 1.410 . S
C267 C275 1.503 . S
C268 C267 1.410 . S
C268 C269 1.392 . S
C268 C271 1.511 . S
C269 C265 1.376 . S
C269 C268 1.392 . S
C269 H281 0.929 . S
C270 C266 1.531 . S
C270 H282 0.960 . S
C270 H283 0.962 . S
C270 H284 0.960 . S
C271 C268 1.511 . S
C271 H285 0.961 . S
C271 H286 0.961 . S
C271 H287 0.961 . S
C272 C273 1.370 . S
C272 C274 1.363 . S
C272 H288 0.931 . S
C273 C272 1.370 . S
C273 C277 1.408 . S
C274 C272 1.363 . S
C274 C275 1.370 . S
C274 C278 1.524 . S
C275 C267 1.503 . S
C275 C274 1.370 . S
C275 C276 1.403 . S
C276 C275 1.403 . S
C276 C277 1.404 . S
C276 C279 1.539 . S
C277 C273 1.408 . S
C277 C276 1.404 . S
C277 H289 0.930 . S
C278 C274 1.524 . S
C278 H290 0.956 . S
C278 H291 0.961 . S
C278 H292 0.961 . S
C279 C276 1.539 . S
C279 H293 0.958 . S
C279 H294 0.961 . S
C279 H295 0.960 . S
H280 C264 0.931 . S
H281 C269 0.929 . S
H282 C270 0.960 . S
H283 C270 0.962 . S
H284 C270 0.960 . S
H285 C271 0.961 . S
H286 C271 0.961 . S
H287 C271 0.961 . S
H288 C272 0.931 . S
H289 C277 0.930 . S
H290 C278 0.956 . S
H291 C278 0.961 . S
H292 C278 0.961 . S
H293 C279 0.958 . S
H294 C279 0.961 . S
H295 C279 0.960 . S
C296 C297 1.391 1_455 S
C296 C298 1.394 . S
C296 H312 0.931 . S
C297 C296 1.391 1_655 S
C297 C301 1.376 . S
C298 C296 1.394 . S
C298 C299 1.369 1_455 S
C298 C302 1.531 . S
C299 C298 1.369 1_655 S
C299 C300 1.410 . S
C299 C307 1.503 1_655 S
C300 C299 1.410 . S
C300 C301 1.392 . S
C300 C303 1.511 . S
C301 C297 1.376 . S
C301 C300 1.392 . S
C301 H313 0.929 . S
C302 C298 1.531 . S
C302 H314 0.960 . S
C302 H315 0.962 . S
C302 H316 0.960 . S
C303 C300 1.511 . S
C303 H317 0.961 . S
C303 H318 0.961 . S
C303 H319 0.961 . S
C304 C305 1.370 . S
C304 C306 1.363 . S
C304 H320 0.931 . S
C305 C304 1.370 . S
C305 C309 1.408 . S
C306 C304 1.363 . S
C306 C307 1.370 . S
C306 C310 1.524 . S
C307 C299 1.503 1_455 S
C307 C306 1.370 . S
C307 C308 1.395 1_455 S
C308 C307 1.395 1_655 S
C308 C309 1.407 1_655 S
C308 C311 1.545 . S
C309 C305 1.408 . S
C309 C308 1.407 1_455 S
C309 H321 0.930 . S
C310 C306 1.524 . S
C310 H322 0.956 . S
C310 H323 0.961 . S
C310 H324 0.961 1_556 S
C311 C308 1.545 . S
C311 H325 0.958 . S
C311 H326 0.961 . S
C311 H327 0.960 . S
H312 C296 0.931 . S
H313 C301 0.929 . S
H314 C302 0.960 . S
H315 C302 0.962 . S
H316 C302 0.960 . S
H317 C303 0.961 . S
H318 C303 0.961 . S
H319 C303 0.961 . S
H320 C304 0.931 . S
H321 C309 0.930 . S
H322 C310 0.956 . S
H323 C310 0.961 . S
H324 C310 0.961 1_554 S
H325 C311 0.958 . S
H326 C311 0.961 . S
H327 C311 0.960 . S
C328 C329 1.391 1_565 S
C328 C330 1.394 . S
C328 H344 0.931 . S
C329 C328 1.391 1_545 S
C329 C333 1.376 . S
C330 C328 1.394 . S
C330 C331 1.369 1_565 S
C330 C334 1.531 . S
C331 C330 1.369 1_545 S
C331 C332 1.410 . S
C331 C339 1.503 1_545 S
C332 C331 1.410 . S
C332 C333 1.392 . S
C332 C335 1.511 . S
C333 C329 1.376 . S
C333 C332 1.392 . S
C333 H345 0.929 . S
C334 C330 1.531 . S
C334 H346 0.960 . S
C334 H347 0.962 . S
C334 H348 0.960 . S
C335 C332 1.511 . S
C335 H349 0.961 . S
C335 H350 0.961 . S
C335 H351 0.961 . S
C336 C337 1.370 . S
C336 C338 1.363 1_565 S
C336 H352 0.931 1_565 S
C337 C336 1.370 . S
C337 C341 1.408 . S
C338 C336 1.363 1_545 S
C338 C339 1.370 1_545 S
C338 C342 1.524 . S
C339 C331 1.503 1_565 S
C339 C338 1.370 1_565 S
C339 C340 1.403 . S
C340 C339 1.403 . S
C340 C341 1.404 . S
C340 C343 1.539 . S
C341 C337 1.408 . S
C341 C340 1.404 . S
C341 H353 0.930 . S
C342 C338 1.524 . S
C342 H354 0.956 . S
C342 H355 0.961 . S
C342 H356 0.961 . S
C343 C340 1.539 . S
C343 H357 0.958 . S
C343 H358 0.961 . S
C343 H359 0.960 . S
H344 C328 0.931 . S
H345 C333 0.929 . S
H346 C334 0.960 . S
H347 C334 0.962 . S
H348 C334 0.960 . S
H349 C335 0.961 . S
H350 C335 0.961 . S
H351 C335 0.961 . S
H352 C336 0.931 1_545 S
H353 C341 0.930 . S
H354 C342 0.956 . S
H355 C342 0.961 . S
H356 C342 0.961 . S
H357 C343 0.958 . S
H358 C343 0.961 . S
H359 C343 0.960 . S
C360 C361 1.391 . S
C360 C362 1.394 . S
C360 H376 0.931 . S
C361 C360 1.391 . S
C361 C365 1.376 . S
C362 C360 1.394 . S
C362 C363 1.369 . S
C362 C366 1.531 . S
C363 C362 1.369 . S
C363 C364 1.410 . S
C363 C371 1.503 . S
C364 C363 1.410 . S
C364 C365 1.392 . S
C364 C367 1.511 . S
C365 C361 1.376 . S
C365 C364 1.392 . S
C365 H377 0.929 . S
C366 C362 1.531 . S
C366 H378 0.960 . S
C366 H379 0.962 . S
C366 H380 0.960 . S
C367 C364 1.511 . S
C367 H381 0.961 . S
C367 H382 0.961 . S
C367 H383 0.961 . S
C368 C369 1.370 . S
C368 C370 1.363 . S
C368 H384 0.931 . S
C369 C368 1.370 . S
C369 C373 1.408 . S
C370 C368 1.363 . S
C370 C371 1.370 . S
C370 C374 1.524 . S
C371 C363 1.503 . S
C371 C370 1.370 . S
C371 C372 1.403 . S
C372 C371 1.403 . S
C372 C373 1.404 . S
C372 C375 1.539 . S
C373 C369 1.408 . S
C373 C372 1.404 . S
C373 H385 0.930 . S
C374 C370 1.524 . S
C374 H386 0.956 . S
C374 H387 0.961 . S
C374 H388 0.961 . S
C375 C372 1.539 . S
C375 H389 0.958 . S
C375 H390 0.961 . S
C375 H391 0.960 . S
H376 C360 0.931 . S
H377 C365 0.929 . S
H378 C366 0.960 . S
H379 C366 0.962 . S
H380 C366 0.960 . S
H381 C367 0.961 . S
H382 C367 0.961 . S
H383 C367 0.961 . S
H384 C368 0.931 . S
H385 C373 0.930 . S
H386 C374 0.956 . S
H387 C374 0.961 . S
H388 C374 0.961 . S
H389 C375 0.958 . S
H390 C375 0.961 . S
H391 C375 0.960 . S
C392 C393 1.391 . S
C392 C394 1.394 . S
C392 H408 0.931 . S
C393 C392 1.391 . S
C393 C397 1.376 . S
C394 C392 1.394 . S
C394 C395 1.369 . S
C394 C398 1.531 . S
C395 C394 1.369 . S
C395 C396 1.410 . S
C395 C403 1.503 . S
C396 C395 1.410 . S
C396 C397 1.392 . S
C396 C399 1.511 . S
C397 C393 1.376 . S
C397 C396 1.392 . S
C397 H409 0.929 . S
C398 C394 1.531 . S
C398 H410 0.960 . S
C398 H411 0.962 . S
C398 H412 0.960 . S
C399 C396 1.511 . S
C399 H413 0.961 . S
C399 H414 0.961 . S
C399 H415 0.961 . S
C400 C401 1.370 . S
C400 C402 1.363 . S
C400 H416 0.931 . S
C401 C400 1.370 . S
C401 C405 1.408 . S
C402 C400 1.363 . S
C402 C403 1.370 . S
C402 C406 1.524 . S
C403 C395 1.503 . S
C403 C402 1.370 . S
C403 C404 1.403 . S
C404 C403 1.403 . S
C404 C405 1.404 . S
C404 C407 1.539 . S
C405 C401 1.408 . S
C405 C404 1.404 . S
C405 H417 0.930 . S
C406 C402 1.524 . S
C406 H418 0.956 . S
C406 H419 0.961 . S
C406 H420 0.961 . S
C407 C404 1.539 . S
C407 H421 0.958 . S
C407 H422 0.961 . S
C407 H423 0.960 . S
H408 C392 0.931 . S
H409 C397 0.929 . S
H410 C398 0.960 . S
H411 C398 0.962 . S
H412 C398 0.960 . S
H413 C399 0.961 . S
H414 C399 0.961 . S
H415 C399 0.961 . S
H416 C400 0.931 . S
H417 C405 0.930 . S
H418 C406 0.956 . S
H419 C406 0.961 . S
H420 C406 0.961 . S
H421 C407 0.958 . S
H422 C407 0.961 . S
H423 C407 0.960 . S
C424 C425 1.391 . S
C424 C426 1.394 . S
C424 H440 0.931 . S
C425 C424 1.391 . S
C425 C429 1.376 . S
C426 C424 1.394 . S
C426 C427 1.369 . S
C426 C430 1.531 . S
C427 C426 1.369 . S
C427 C428 1.410 . S
C427 C435 1.503 . S
C428 C427 1.410 . S
C428 C429 1.392 . S
C428 C431 1.511 . S
C429 C425 1.376 . S
C429 C428 1.392 . S
C429 H441 0.929 . S
C430 C426 1.531 . S
C430 H442 0.960 . S
C430 H443 0.962 . S
C430 H444 0.960 . S
C431 C428 1.511 . S
C431 H445 0.961 . S
C431 H446 0.961 . S
C431 H447 0.961 . S
C432 C433 1.370 . S
C432 C434 1.363 . S
C432 H448 0.931 . S
C433 C432 1.370 . S
C433 C437 1.408 . S
C434 C432 1.363 . S
C434 C435 1.370 . S
C434 C438 1.524 . S
C435 C427 1.503 . S
C435 C434 1.370 . S
C435 C436 1.403 . S
C436 C435 1.403 . S
C436 C437 1.404 . S
C436 C439 1.539 . S
C437 C433 1.408 . S
C437 C436 1.404 . S
C437 H449 0.930 . S
C438 C434 1.524 . S
C438 H450 0.956 . S
C438 H451 0.961 . S
C438 H452 0.961 . S
C439 C436 1.539 . S
C439 H453 0.958 . S
C439 H454 0.961 . S
C439 H455 0.960 . S
H440 C424 0.931 . S
H441 C429 0.929 . S
H442 C430 0.960 . S
H443 C430 0.962 . S
H444 C430 0.960 . S
H445 C431 0.961 . S
H446 C431 0.961 . S
H447 C431 0.961 . S
H448 C432 0.931 . S
H449 C437 0.930 . S
H450 C438 0.956 . S
H451 C438 0.961 . S
H452 C438 0.961 . S
H453 C439 0.958 . S
H454 C439 0.961 . S
H455 C439 0.960 . S
C456 C457 1.391 . S
C456 C458 1.394 . S
C456 H472 0.931 . S
C457 C456 1.391 . S
C457 C461 1.376 . S
C458 C456 1.394 . S
C458 C459 1.369 . S
C458 C462 1.531 . S
C459 C458 1.369 . S
C459 C460 1.410 . S
C459 C467 1.503 . S
C460 C459 1.410 . S
C460 C461 1.392 . S
C460 C463 1.511 . S
C461 C457 1.376 . S
C461 C460 1.392 . S
C461 H473 0.929 . S
C462 C458 1.531 . S
C462 H474 0.960 . S
C462 H475 0.962 . S
C462 H476 0.960 . S
C463 C460 1.511 . S
C463 H477 0.961 . S
C463 H478 0.961 . S
C463 H479 0.961 . S
C464 C465 1.370 . S
C464 C466 1.363 . S
C464 H480 0.931 . S
C465 C464 1.370 . S
C465 C469 1.408 . S
C466 C464 1.363 . S
C466 C467 1.370 . S
C466 C470 1.524 . S
C467 C459 1.503 . S
C467 C466 1.370 . S
C467 C468 1.403 . S
C468 C467 1.403 . S
C468 C469 1.404 . S
C468 C471 1.539 . S
C469 C465 1.408 . S
C469 C468 1.404 . S
C469 H481 0.930 . S
C470 C466 1.524 . S
C470 H482 0.956 . S
C470 H483 0.961 . S
C470 H484 0.961 . S
C471 C468 1.539 . S
C471 H485 0.958 . S
C471 H486 0.961 . S
C471 H487 0.960 . S
H472 C456 0.931 . S
H473 C461 0.929 . S
H474 C462 0.960 . S
H475 C462 0.962 . S
H476 C462 0.960 . S
H477 C463 0.961 . S
H478 C463 0.961 . S
H479 C463 0.961 . S
H480 C464 0.931 . S
H481 C469 0.930 . S
H482 C470 0.956 . S
H483 C470 0.961 . S
H484 C470 0.961 . S
H485 C471 0.958 . S
H486 C471 0.961 . S
H487 C471 0.960 . S
C488 C489 1.391 . S
C488 C490 1.394 . S
C488 H504 0.931 . S
C489 C488 1.391 . S
C489 C493 1.376 . S
C490 C488 1.394 . S
C490 C491 1.369 . S
C490 C494 1.531 . S
C491 C490 1.369 . S
C491 C492 1.410 . S
C491 C499 1.503 . S
C492 C491 1.410 . S
C492 C493 1.392 . S
C492 C495 1.511 . S
C493 C489 1.376 . S
C493 C492 1.392 . S
C493 H505 0.929 . S
C494 C490 1.531 . S
C494 H506 0.960 . S
C494 H507 0.962 . S
C494 H508 0.960 . S
C495 C492 1.511 . S
C495 H509 0.961 . S
C495 H510 0.961 . S
C495 H511 0.961 . S
C496 C497 1.370 . S
C496 C498 1.363 . S
C496 H512 0.931 . S
C497 C496 1.370 . S
C497 C501 1.408 . S
C498 C496 1.363 . S
C498 C499 1.370 . S
C498 C502 1.524 . S
C499 C491 1.503 . S
C499 C498 1.370 . S
C499 C500 1.403 . S
C500 C499 1.403 . S
C500 C501 1.404 . S
C500 C503 1.539 . S
C501 C497 1.408 . S
C501 C500 1.404 . S
C501 H513 0.930 . S
C502 C498 1.524 . S
C502 H514 0.956 . S
C502 H515 0.961 . S
C502 H516 0.961 . S
C503 C500 1.539 . S
C503 H517 0.958 . S
C503 H518 0.961 . S
C503 H519 0.960 . S
H504 C488 0.931 . S
H505 C493 0.929 . S
H506 C494 0.960 . S
H507 C494 0.962 . S
H508 C494 0.960 . S
H509 C495 0.961 . S
H510 C495 0.961 . S
H511 C495 0.961 . S
H512 C496 0.931 . S
H513 C501 0.930 . S
H514 C502 0.956 . S
H515 C502 0.961 . S
H516 C502 0.961 . S
H517 C503 0.958 . S
H518 C503 0.961 . S
H519 C503 0.960 . S
C520 C521 1.391 . S
C520 C522 1.394 . S
C520 H536 0.931 . S
C521 C520 1.391 . S
C521 C525 1.376 . S
C522 C520 1.394 . S
C522 C523 1.369 . S
C522 C526 1.531 . S
C523 C522 1.369 . S
C523 C524 1.410 . S
C523 C531 1.503 . S
C524 C523 1.410 . S
C524 C525 1.392 . S
C524 C527 1.511 . S
C525 C521 1.376 . S
C525 C524 1.392 . S
C525 H537 0.929 . S
C526 C522 1.531 . S
C526 H538 0.960 . S
C526 H539 0.962 . S
C526 H540 0.960 . S
C527 C524 1.511 . S
C527 H541 0.961 . S
C527 H542 0.961 . S
C527 H543 0.961 . S
C528 C529 1.370 . S
C528 C530 1.363 . S
C528 H544 0.931 . S
C529 C528 1.370 . S
C529 C533 1.408 . S
C530 C528 1.363 . S
C530 C531 1.370 . S
C530 C534 1.524 . S
C531 C523 1.503 . S
C531 C530 1.370 . S
C531 C532 1.403 . S
C532 C531 1.403 . S
C532 C533 1.404 . S
C532 C535 1.539 . S
C533 C529 1.408 . S
C533 C532 1.404 . S
C533 H545 0.930 . S
C534 C530 1.524 . S
C534 H546 0.956 . S
C534 H547 0.961 . S
C534 H548 0.961 . S
C535 C532 1.539 . S
C535 H549 0.958 . S
C535 H550 0.961 . S
C535 H551 0.960 . S
H536 C520 0.931 . S
H537 C525 0.929 . S
H538 C526 0.960 . S
H539 C526 0.962 . S
H540 C526 0.960 . S
H541 C527 0.961 . S
H542 C527 0.961 . S
H543 C527 0.961 . S
H544 C528 0.931 . S
H545 C533 0.930 . S
H546 C534 0.956 . S
H547 C534 0.961 . S
H548 C534 0.961 . S
H549 C535 0.958 . S
H550 C535 0.961 . S
H551 C535 0.960 . S
C552 C553 1.391 . S
C552 C554 1.394 . S
C552 H568 0.931 . S
C553 C552 1.391 . S
C553 C557 1.376 . S
C554 C552 1.394 . S
C554 C555 1.369 . S
C554 C558 1.531 . S
C555 C554 1.369 . S
C555 C556 1.410 . S
C555 C563 1.503 1_566 S
C556 C555 1.410 . S
C556 C557 1.392 . S
C556 C559 1.511 . S
C557 C553 1.376 . S
C557 C556 1.392 . S
C557 H569 0.929 . S
C558 C554 1.531 . S
C558 H570 0.960 1_565 S
C558 H571 0.962 1_556 S
C558 H572 0.960 . S
C559 C556 1.511 . S
C559 H573 0.961 . S
C559 H574 0.961 1_566 S
C559 H575 0.978 . S
C560 C561 1.370 . S
C560 C562 1.363 . S
C560 H576 0.931 . S
C561 C560 1.370 . S
C561 C565 1.408 1_554 S
C562 C560 1.363 . S
C562 C563 1.370 . S
C562 C566 1.524 1_545 S
C563 C555 1.503 1_544 S
C563 C562 1.370 . S
C563 C564 1.403 1_554 S
C564 C563 1.403 1_556 S
C564 C565 1.404 . S
C564 C567 1.539 . S
C565 C561 1.408 1_556 S
C565 C564 1.404 . S
C565 H577 0.930 . S
C566 C562 1.524 1_565 S
C566 H578 0.956 . S
C566 H579 0.961 . S
C566 H580 0.961 . S
C567 C564 1.539 . S
C567 H581 0.958 . S
C567 H582 0.961 . S
C567 H583 0.960 . S
H568 C552 0.931 . S
H569 C557 0.929 . S
H570 C558 0.960 1_545 S
H571 C558 0.962 1_554 S
H572 C558 0.960 . S
H573 C559 0.961 . S
H574 C559 0.961 1_544 S
H575 C559 0.978 . S
H576 C560 0.931 . S
H577 C565 0.930 . S
H578 C566 0.956 . S
H579 C566 0.961 . S
H580 C566 0.961 . S
H581 C567 0.958 . S
H582 C567 0.961 . S
H583 C567 0.960 . S
C584 C585 1.391 . S
C584 C586 1.394 . S
C584 H600 0.931 . S
C585 C584 1.391 . S
C585 C589 1.376 . S
C586 C584 1.394 . S
C586 C587 1.369 . S
C586 C590 1.531 . S
C587 C586 1.369 . S
C587 C588 1.410 . S
C587 C595 1.503 . S
C588 C587 1.410 . S
C588 C589 1.392 . S
C588 C591 1.511 . S
C589 C585 1.376 . S
C589 C588 1.392 . S
C589 H601 0.929 . S
C590 C586 1.531 . S
C590 H602 0.960 . S
C590 H603 0.962 . S
C590 H604 0.960 . S
C591 C588 1.511 . S
C591 H605 0.961 . S
C591 H606 0.961 . S
C591 H607 0.961 . S
C592 C593 1.370 . S
C592 C594 1.363 . S
C592 H608 0.931 . S
C593 C592 1.370 . S
C593 C597 1.408 . S
C594 C592 1.363 . S
C594 C595 1.370 . S
C594 C598 1.524 . S
C595 C587 1.503 . S
C595 C594 1.370 . S
C595 C596 1.403 . S
C596 C595 1.403 . S
C596 C597 1.404 . S
C596 C599 1.539 . S
C597 C593 1.408 . S
C597 C596 1.404 . S
C597 H609 0.930 . S
C598 C594 1.524 . S
C598 H610 0.956 . S
C598 H611 0.961 . S
C598 H612 0.961 . S
C599 C596 1.539 . S
C599 H613 0.958 . S
C599 H614 0.961 . S
C599 H615 0.960 . S
H600 C584 0.931 . S
H601 C589 0.929 . S
H602 C590 0.960 . S
H603 C590 0.962 . S
H604 C590 0.960 . S
H605 C591 0.961 . S
H606 C591 0.961 . S
H607 C591 0.961 . S
H608 C592 0.931 . S
H609 C597 0.930 . S
H610 C598 0.956 . S
H611 C598 0.961 . S
H612 C598 0.961 . S
H613 C599 0.958 . S
H614 C599 0.961 . S
H615 C599 0.960 . S
C616 C617 1.391 . S
C616 C618 1.394 . S
C616 H632 0.931 . S
C617 C616 1.391 . S
C617 C621 1.376 . S
C618 C616 1.394 . S
C618 C619 1.369 . S
C618 C622 1.531 . S
C619 C618 1.369 . S
C619 C620 1.410 . S
C619 C627 1.503 1_655 S
C620 C619 1.410 . S
C620 C621 1.392 . S
C620 C623 1.511 . S
C621 C617 1.376 . S
C621 C620 1.392 . S
C621 H633 0.929 . S
C622 C618 1.531 . S
C622 H634 0.960 1_655 S
C622 H635 0.962 . S
C622 H636 0.960 . S
C623 C620 1.511 . S
C623 H637 0.961 . S
C623 H638 0.961 1_655 S
C623 H639 0.961 1_655 S
C624 C625 1.370 . S
C624 C626 1.363 . S
C624 H640 0.931 . S
C625 C624 1.370 . S
C625 C629 1.408 . S
C626 C624 1.363 . S
C626 C627 1.370 . S
C626 C630 1.524 1_455 S
C627 C619 1.503 1_455 S
C627 C626 1.370 . S
C627 C628 1.403 . S
C628 C627 1.403 . S
C628 C629 1.404 . S
C628 C631 1.539 . S
C629 C625 1.408 . S
C629 C628 1.404 . S
C629 H641 0.930 . S
C630 C626 1.524 1_655 S
C630 H642 0.956 . S
C630 H643 0.961 . S
C630 H644 0.961 . S
C631 C628 1.539 . S
C631 H645 0.958 . S
C631 H646 0.961 . S
C631 H647 0.960 . S
H632 C616 0.931 . S
H633 C621 0.929 . S
H634 C622 0.960 1_455 S
H635 C622 0.962 . S
H636 C622 0.960 . S
H637 C623 0.961 . S
H638 C623 0.961 1_455 S
H639 C623 0.961 1_455 S
H640 C624 0.931 . S
H641 C629 0.930 . S
H642 C630 0.956 . S
H643 C630 0.961 . S
H644 C630 0.961 . S
H645 C631 0.958 . S
H646 C631 0.961 . S
H647 C631 0.960 . S
C648 C649 1.391 . S
C648 C650 1.394 1_554 S
C648 H664 0.931 . S
C649 C648 1.391 . S
C649 C653 1.376 . S
C650 C648 1.394 1_556 S
C650 C651 1.358 1_556 S
C650 C654 1.531 . S
C651 C650 1.358 1_554 S
C651 C652 1.441 . S
C651 C659 1.488 1_564 S
C652 C651 1.441 . S
C652 C653 1.392 . S
C652 C655 1.511 . S
C653 C649 1.376 . S
C653 C652 1.392 . S
C653 H665 0.929 . S
C654 C650 1.531 . S
C654 H666 0.960 . S
C654 H667 0.962 . S
C654 H668 0.960 . S
C655 C652 1.511 . S
C655 H669 0.961 . S
C655 H670 0.961 1_565 S
C655 H671 0.961 . S
C656 C657 1.370 . S
C656 C658 1.363 1_556 S
C656 H672 0.931 1_556 S
C657 C656 1.370 . S
C657 C661 1.408 . S
C658 C656 1.363 1_554 S
C658 C659 1.370 1_554 S
C658 C662 1.524 . S
C659 C651 1.488 1_546 S
C659 C658 1.370 1_556 S
C659 C660 1.403 . S
C660 C659 1.403 . S
C660 C661 1.404 . S
C660 C663 1.539 1_545 S
C661 C657 1.408 . S
C661 C660 1.404 . S
C661 H673 0.930 . S
C662 C658 1.524 . S
C662 H674 0.956 . S
C662 H675 0.961 . S
C662 H676 0.961 . S
C663 C660 1.539 1_565 S
C663 H677 0.958 . S
C663 H678 0.961 1_565 S
C663 H679 0.960 . S
H664 C648 0.931 . S
H665 C653 0.929 . S
H666 C654 0.960 . S
H667 C654 0.962 . S
H668 C654 0.960 . S
H669 C655 0.961 . S
H670 C655 0.961 1_545 S
H671 C655 0.961 . S
H672 C656 0.931 1_554 S
H673 C661 0.930 . S
H674 C662 0.956 . S
H675 C662 0.961 . S
H676 C662 0.961 . S
H677 C663 0.958 . S
H678 C663 0.961 1_545 S
H679 C663 0.960 . S
C680 C681 1.391 . S
C680 C682 1.394 . S
C680 H696 0.931 . S
C681 C680 1.391 . S
C681 C685 1.376 . S
C682 C680 1.394 . S
C682 C683 1.369 . S
C682 C686 1.531 . S
C683 C682 1.369 . S
C683 C684 1.410 . S
C683 C691 1.503 . S
C684 C683 1.410 . S
C684 C685 1.392 . S
C684 C687 1.511 . S
C685 C681 1.376 . S
C685 C684 1.392 . S
C685 H697 0.929 . S
C686 C682 1.531 . S
C686 H698 0.960 . S
C686 H699 0.962 . S
C686 H700 0.960 . S
C687 C684 1.511 . S
C687 H701 0.961 . S
C687 H702 0.961 . S
C687 H703 0.961 . S
C688 C689 1.370 . S
C688 C690 1.363 . S
C688 H704 0.931 . S
C689 C688 1.370 . S
C689 C693 1.408 . S
C690 C688 1.363 . S
C690 C691 1.370 . S
C690 C694 1.524 . S
C691 C683 1.503 . S
C691 C690 1.370 . S
C691 C692 1.403 . S
C692 C691 1.403 . S
C692 C693 1.404 . S
C692 C695 1.539 . S
C693 C689 1.408 . S
C693 C692 1.404 . S
C693 H705 0.930 . S
C694 C690 1.524 . S
C694 H706 0.956 . S
C694 H707 0.961 . S
C694 H708 0.961 . S
C695 C692 1.539 . S
C695 H709 0.958 . S
C695 H710 0.961 . S
C695 H711 0.960 . S
H696 C680 0.931 . S
H697 C685 0.929 . S
H698 C686 0.960 . S
H699 C686 0.962 . S
H700 C686 0.960 . S
H701 C687 0.961 . S
H702 C687 0.961 . S
H703 C687 0.961 . S
H704 C688 0.931 . S
H705 C693 0.930 . S
H706 C694 0.956 . S
H707 C694 0.961 . S
H708 C694 0.961 . S
H709 C695 0.958 . S
H710 C695 0.961 . S
H711 C695 0.960 . S
C712 C713 1.391 . S
C712 C714 1.394 . S
C712 H728 0.931 . S
C713 C712 1.391 . S
C713 C717 1.376 . S
C714 C712 1.394 . S
C714 C715 1.369 . S
C714 C718 1.531 . S
C715 C714 1.369 . S
C715 C716 1.410 . S
C715 C723 1.503 1_455 S
C716 C715 1.410 . S
C716 C717 1.392 . S
C716 C719 1.511 . S
C717 C713 1.376 . S
C717 C716 1.392 . S
C717 H729 0.929 . S
C718 C714 1.531 . S
C718 H730 0.960 1_455 S
C718 H731 0.962 1_455 S
C718 H732 0.960 . S
C719 C716 1.511 . S
C719 H733 0.961 . S
C719 H734 0.961 . S
C719 H735 0.961 . S
C720 C721 1.370 . S
C720 C722 1.363 . S
C720 H736 0.931 . S
C721 C720 1.370 . S
C721 C725 1.408 . S
C722 C720 1.363 . S
C722 C723 1.370 . S
C722 C726 1.524 . S
C723 C715 1.503 1_655 S
C723 C722 1.370 . S
C723 C724 1.403 . S
C724 C723 1.403 . S
C724 C725 1.404 . S
C724 C727 1.539 1_655 S
C725 C721 1.408 . S
C725 C724 1.404 . S
C725 H737 0.930 . S
C726 C722 1.524 . S
C726 H738 0.956 . S
C726 H739 0.961 . S
C726 H740 0.961 . S
C727 C724 1.539 1_455 S
C727 H741 0.958 . S
C727 H742 0.961 1_455 S
C727 H743 0.960 . S
H728 C712 0.931 . S
H729 C717 0.929 . S
H730 C718 0.960 1_655 S
H731 C718 0.962 1_655 S
H732 C718 0.960 . S
H733 C719 0.961 . S
H734 C719 0.961 . S
H735 C719 0.961 . S
H736 C720 0.931 . S
H737 C725 0.930 . S
H738 C726 0.956 . S
H739 C726 0.961 . S
H740 C726 0.961 . S
H741 C727 0.958 . S
H742 C727 0.961 1_655 S
H743 C727 0.960 . S
C744 C745 1.344 1_554 S
C744 C746 1.411 . S
C744 H760 0.962 1_455 S
C745 C744 1.344 1_556 S
C745 C749 1.376 . S
C746 C744 1.411 . S
C746 C747 1.369 1_554 S
C746 C750 1.531 . S
C747 C746 1.369 1_556 S
C747 C748 1.410 . S
C747 C755 1.503 1_556 S
C748 C747 1.410 . S
C748 C749 1.392 . S
C748 C751 1.511 . S
C749 C745 1.376 . S
C749 C748 1.392 . S
C749 H761 0.929 . S
C750 C746 1.531 . S
C750 H762 0.960 . S
C750 H763 0.962 . S
C750 H764 0.960 . S
C751 C748 1.511 . S
C751 H765 0.961 . S
C751 H766 0.961 . S
C751 H767 0.961 . S
C752 C753 1.370 . S
C752 C754 1.363 . S
C752 H768 0.931 . S
C753 C752 1.370 . S
C753 C757 1.408 . S
C754 C752 1.363 . S
C754 C755 1.370 . S
C754 C758 1.524 . S
C755 C747 1.503 1_554 S
C755 C754 1.370 . S
C755 C756 1.403 . S
C756 C755 1.403 . S
C756 C757 1.404 . S
C756 C759 1.539 1_554 S
C757 C753 1.408 . S
C757 C756 1.404 . S
C757 H769 0.930 . S
C758 C754 1.524 . S
C758 H770 0.956 . S
C758 H771 0.961 1_554 S
C758 H772 0.961 . S
C759 C756 1.539 1_556 S
C759 H773 0.958 1_556 S
C759 H774 0.961 . S
C759 H775 0.960 . S
H760 C744 0.962 1_655 S
H761 C749 0.929 . S
H762 C750 0.960 . S
H763 C750 0.962 . S
H764 C750 0.960 . S
H765 C751 0.961 . S
H766 C751 0.961 . S
H767 C751 0.961 . S
H768 C752 0.931 . S
H769 C757 0.930 . S
H770 C758 0.956 . S
H771 C758 0.961 1_556 S
H772 C758 0.961 . S
H773 C759 0.958 1_554 S
H774 C759 0.961 . S
H775 C759 0.960 . S
C776 C777 1.391 . S
C776 C778 1.394 . S
C776 H792 0.931 . S
C777 C776 1.391 . S
C777 C781 1.376 . S
C778 C776 1.394 . S
C778 C779 1.369 . S
C778 C782 1.531 . S
C779 C778 1.369 . S
C779 C780 1.410 . S
C779 C787 1.503 . S
C780 C779 1.410 . S
C780 C781 1.392 . S
C780 C783 1.511 . S
C781 C777 1.376 . S
C781 C780 1.392 . S
C781 H793 0.929 1_545 S
C782 C778 1.531 . S
C782 H794 0.960 . S
C782 H795 0.962 . S
C782 H796 0.960 . S
C783 C780 1.511 . S
C783 H797 0.961 . S
C783 H798 0.961 . S
C783 H799 0.961 . S
C784 C785 1.370 . S
C784 C786 1.363 . S
C784 H800 0.931 . S
C785 C784 1.370 . S
C785 C789 1.408 . S
C786 C784 1.363 . S
C786 C787 1.370 . S
C786 C790 1.524 . S
C787 C779 1.503 . S
C787 C786 1.370 . S
C787 C788 1.403 . S
C788 C787 1.403 . S
C788 C789 1.404 . S
C788 C791 1.539 . S
C789 C785 1.408 . S
C789 C788 1.404 . S
C789 H801 0.930 . S
C790 C786 1.524 . S
C790 H802 0.956 . S
C790 H803 0.961 . S
C790 H804 0.961 . S
C791 C788 1.539 . S
C791 H805 0.958 . S
C791 H806 0.961 . S
C791 H807 0.960 . S
H792 C776 0.931 . S
H793 C781 0.929 1_565 S
H794 C782 0.960 . S
H795 C782 0.962 . S
H796 C782 0.960 . S
H797 C783 0.961 . S
H798 C783 0.961 . S
H799 C783 0.961 . S
H800 C784 0.931 . S
H801 C789 0.930 . S
H802 C790 0.956 . S
H803 C790 0.961 . S
H804 C790 0.961 . S
H805 C791 0.958 . S
H806 C791 0.961 . S
H807 C791 0.960 . S
C808 C809 1.391 . S
C808 C810 1.394 . S
C808 H824 0.931 . S
C809 C808 1.391 . S
C809 C813 1.376 . S
C810 C808 1.394 . S
C810 C811 1.369 . S
C810 C814 1.531 . S
C811 C810 1.369 . S
C811 C812 1.410 . S
C811 C819 1.503 . S
C812 C811 1.410 . S
C812 C813 1.392 . S
C812 C815 1.511 . S
C813 C809 1.376 . S
C813 C812 1.392 . S
C813 H825 0.929 . S
C814 C810 1.531 . S
C814 H826 0.960 . S
C814 H827 0.962 . S
C814 H828 0.960 . S
C815 C812 1.511 . S
C815 H829 0.961 . S
C815 H830 0.961 . S
C815 H831 0.961 . S
C816 C817 1.370 . S
C816 C818 1.363 . S
C816 H832 0.931 . S
C817 C816 1.370 . S
C817 C821 1.408 . S
C818 C816 1.363 . S
C818 C819 1.370 . S
C818 C822 1.524 . S
C819 C811 1.503 . S
C819 C818 1.370 . S
C819 C820 1.403 . S
C820 C819 1.403 . S
C820 C821 1.404 . S
C820 C823 1.539 . S
C821 C817 1.408 . S
C821 C820 1.404 . S
C821 H833 0.930 . S
C822 C818 1.524 . S
C822 H834 0.956 . S
C822 H835 0.961 . S
C822 H836 0.961 . S
C823 C820 1.539 . S
C823 H837 0.958 . S
C823 H838 0.961 . S
C823 H839 0.960 . S
H824 C808 0.931 . S
H825 C813 0.929 . S
H826 C814 0.960 . S
H827 C814 0.962 . S
H828 C814 0.960 . S
H829 C815 0.961 . S
H830 C815 0.961 . S
H831 C815 0.961 . S
H832 C816 0.931 . S
H833 C821 0.930 . S
H834 C822 0.956 . S
H835 C822 0.961 . S
H836 C822 0.961 . S
H837 C823 0.958 . S
H838 C823 0.961 . S
H839 C823 0.960 . S
C840 C841 1.391 . S
C840 C842 1.394 . S
C840 H856 0.931 . S
C841 C840 1.391 . S
C841 C845 1.376 . S
C842 C840 1.394 . S
C842 C843 1.369 . S
C842 C846 1.531 1_554 S
C843 C842 1.369 . S
C843 C844 1.410 . S
C843 C851 1.503 1_554 S
C844 C843 1.410 . S
C844 C845 1.392 . S
C844 C847 1.511 . S
C845 C841 1.376 . S
C845 C844 1.392 . S
C845 H857 0.929 . S
C846 C842 1.531 1_556 S
C846 H858 0.960 . S
C846 H859 0.962 . S
C846 H860 0.960 . S
C847 C844 1.511 . S
C847 H861 0.961 . S
C847 H862 0.961 . S
C847 H863 0.961 . S
C848 C849 1.370 . S
C848 C850 1.363 . S
C848 H864 0.931 . S
C849 C848 1.370 . S
C849 C853 1.408 1_556 S
C850 C848 1.363 . S
C850 C851 1.370 . S
C850 C854 1.524 . S
C851 C843 1.503 1_556 S
C851 C850 1.370 . S
C851 C852 1.403 1_556 S
C852 C851 1.403 1_554 S
C852 C853 1.404 . S
C852 C855 1.539 . S
C853 C849 1.408 1_554 S
C853 C852 1.404 . S
C853 H865 0.930 1_655 S
C854 C850 1.524 . S
C854 H866 0.956 . S
C854 H867 0.961 . S
C854 H868 0.961 . S
C855 C852 1.539 . S
C855 H869 0.958 . S
C855 H870 0.961 . S
C855 H871 0.960 . S
H856 C840 0.931 . S
H857 C845 0.929 . S
H858 C846 0.960 . S
H859 C846 0.962 . S
H860 C846 0.960 . S
H861 C847 0.961 . S
H862 C847 0.961 . S
H863 C847 0.961 . S
H864 C848 0.931 . S
H865 C853 0.930 1_455 S
H866 C854 0.956 . S
H867 C854 0.961 . S
H868 C854 0.961 . S
H869 C855 0.958 . S
H870 C855 0.961 . S
H871 C855 0.960 . S
C872 C873 1.391 . S
C872 C874 1.394 . S
C872 H888 0.931 . S
C873 C872 1.391 . S
C873 C877 1.376 . S
C874 C872 1.394 . S
C874 C875 1.369 . S
C874 C878 1.531 . S
C875 C874 1.369 . S
C875 C876 1.410 . S
C875 C883 1.503 . S
C876 C875 1.410 . S
C876 C877 1.392 . S
C876 C879 1.511 . S
C877 C873 1.376 . S
C877 C876 1.392 . S
C877 H889 0.929 . S
C878 C874 1.531 . S
C878 H890 0.960 . S
C878 H891 0.962 . S
C878 H892 0.960 . S
C879 C876 1.511 . S
C879 H893 0.961 . S
C879 H894 0.961 . S
C879 H895 0.961 . S
C880 C881 1.370 . S
C880 C882 1.363 . S
C880 H896 0.931 . S
C881 C880 1.370 . S
C881 C885 1.408 . S
C882 C880 1.363 . S
C882 C883 1.370 . S
C882 C886 1.524 . S
C883 C875 1.503 . S
C883 C882 1.370 . S
C883 C884 1.403 . S
C884 C883 1.403 . S
C884 C885 1.404 . S
C884 C887 1.539 . S
C885 C881 1.408 . S
C885 C884 1.404 . S
C885 H897 0.930 . S
C886 C882 1.524 . S
C886 H898 0.956 . S
C886 H899 0.961 . S
C886 H900 0.961 . S
C887 C884 1.539 . S
C887 H901 0.958 . S
C887 H902 0.961 . S
C887 H903 0.960 . S
H888 C872 0.931 . S
H889 C877 0.929 . S
H890 C878 0.960 . S
H891 C878 0.962 . S
H892 C878 0.960 . S
H893 C879 0.961 . S
H894 C879 0.961 . S
H895 C879 0.961 . S
H896 C880 0.931 . S
H897 C885 0.930 . S
H898 C886 0.956 . S
H899 C886 0.961 . S
H900 C886 0.961 . S
H901 C887 0.958 . S
H902 C887 0.961 . S
H903 C887 0.960 . S
C904 C905 1.391 . S
C904 C906 1.394 . S
C904 H920 0.931 . S
C905 C904 1.391 . S
C905 C909 1.376 . S
C906 C904 1.394 . S
C906 C907 1.369 . S
C906 C910 1.531 . S
C907 C906 1.369 . S
C907 C908 1.410 . S
C907 C915 1.503 . S
C908 C907 1.410 . S
C908 C909 1.392 . S
C908 C911 1.511 . S
C909 C905 1.376 . S
C909 C908 1.392 . S
C909 H921 0.929 . S
C910 C906 1.531 . S
C910 H922 0.960 . S
C910 H923 0.962 . S
C910 H924 0.960 . S
C911 C908 1.511 . S
C911 H925 0.961 . S
C911 H926 0.961 . S
C911 H927 0.961 . S
C912 C913 1.370 . S
C912 C914 1.363 . S
C912 H928 0.931 . S
C913 C912 1.370 . S
C913 C917 1.408 . S
C914 C912 1.363 . S
C914 C915 1.370 . S
C914 C918 1.524 . S
C915 C907 1.503 . S
C915 C914 1.370 . S
C915 C916 1.403 . S
C916 C915 1.403 . S
C916 C917 1.404 . S
C916 C919 1.539 . S
C917 C913 1.408 . S
C917 C916 1.404 . S
C917 H929 0.930 . S
C918 C914 1.524 . S
C918 H930 0.956 . S
C918 H931 0.961 . S
C918 H932 0.961 . S
C919 C916 1.539 . S
C919 H933 0.958 . S
C919 H934 0.961 . S
C919 H935 0.960 . S
H920 C904 0.931 . S
H921 C909 0.929 . S
H922 C910 0.960 . S
H923 C910 0.962 . S
H924 C910 0.960 . S
H925 C911 0.961 . S
H926 C911 0.961 . S
H927 C911 0.961 . S
H928 C912 0.931 . S
H929 C917 0.930 . S
H930 C918 0.956 . S
H931 C918 0.961 . S
H932 C918 0.961 . S
H933 C919 0.958 . S
H934 C919 0.961 . S
H935 C919 0.960 . S
C169 C49 1.286 . S
C177 C7 1.298 . S
C201 C21 1.300 . S
C209 C63 1.304 . S
C233 C77 1.316 . S
C241 C35 1.310 . S
C265 C91 1.289 . S
C273 C133 1.299 . S
C297 C147 1.314 . S
C305 C105 1.309 . S
C329 C119 1.313 . S
C337 C161 1.310 . S
C361 C118 1.559 . S
C369 C6 1.576 . S
C393 C20 1.575 . S
C401 C132 1.577 . S
C425 C34 1.608 . S
C433 C146 1.595 . S
C457 C48 1.582 . S
C465 C160 1.579 . S
C489 C90 1.609 . S
C497 C62 1.595 . S
C521 C104 1.567 . S
C529 C76 1.588 . S
C553 C106 1.585 . S
C561 C8 1.617 . S
C585 C22 1.621 . S
C593 C120 1.619 . S
C617 C36 1.588 . S
C625 C134 1.619 . S
C649 C50 1.632 . S
C657 C148 1.609 . S
C681 C162 1.580 . S
C689 C64 1.614 . S
C713 C78 1.615 . S
C721 C92 1.599 . S
C745 C149 1.481 1_455 S
C753 C9 1.479 . S
C777 C163 1.466 1_545 S
C785 C23 1.479 1_655 S
C809 C93 1.469 . S
C817 C37 1.481 1_565 S
C841 C51 1.482 . S
C849 C107 1.476 1_655 S
C873 C65 1.474 1_455 S
C881 C121 1.481 1_565 S
C905 C79 1.476 1_545 S
C913 C135 1.481 . S
