# Generated by pormake.
# Topology vbm, (6)-cn, num edge types: 1
# Building blocks:
#     Node 0, Type 0, BuildingBlock: PAMTOO_clean_sbu_0, # of connection points: 6
#     Node 1, Type 0, BuildingBlock: PAMTOO_clean_sbu_0, # of connection points: 6
#     Node 2, Type 0, BuildingBlock: PAMTOO_clean_sbu_0, # of connection points: 6
#     Node 3, Type 0, BuildingBlock: PAMTOO_clean_sbu_0, # of connection points: 6
#     Node 4, Type 0, BuildingBlock: PAMTOO_clean_sbu_0, # of connection points: 6
#     Node 5, Type 0, BuildingBlock: PAMTOO_clean_sbu_0, # of connection points: 6
#     Node 6, Type 0, BuildingBlock: PAMTOO_clean_sbu_0, # of connection points: 6
#     Node 7, Type 0, BuildingBlock: PAMTOO_clean_sbu_0, # of connection points: 6
#     Node 8, Type 0, BuildingBlock: PAMTOO_clean_sbu_0, # of connection points: 6
#     Node 9, Type 0, BuildingBlock: PAMTOO_clean_sbu_0, # of connection points: 6
#     Node 10, Type 0, BuildingBlock: PAMTOO_clean_sbu_0, # of connection points: 6
#     Node 11, Type 0, BuildingBlock: PAMTOO_clean_sbu_0, # of connection points: 6
#     Node 12, Type 0, BuildingBlock: PAMTOO_clean_sbu_0, # of connection points: 6
#     Node 13, Type 0, BuildingBlock: PAMTOO_clean_sbu_0, # of connection points: 6
#     Node 14, Type 0, BuildingBlock: PAMTOO_clean_sbu_0, # of connection points: 6
#     Node 15, Type 0, BuildingBlock: PAMTOO_clean_sbu_0, # of connection points: 6
#     Edge 16, Type (0, 0), BuildingBlock: ZUJKAS_clean_linker_0, # of connection points: 2
#     Edge 17, Type (0, 0), BuildingBlock: ZUJKAS_clean_linker_0, # of connection points: 2
#     Edge 18, Type (0, 0), BuildingBlock: ZUJKAS_clean_linker_0, # of connection points: 2
#     Edge 19, Type (0, 0), BuildingBlock: ZUJKAS_clean_linker_0, # of connection points: 2
#     Edge 20, Type (0, 0), BuildingBlock: ZUJKAS_clean_linker_0, # of connection points: 2
#     Edge 21, Type (0, 0), BuildingBlock: ZUJKAS_clean_linker_0, # of connection points: 2
#     Edge 22, Type (0, 0), BuildingBlock: ZUJKAS_clean_linker_0, # of connection points: 2
#     Edge 23, Type (0, 0), BuildingBlock: ZUJKAS_clean_linker_0, # of connection points: 2
#     Edge 24, Type (0, 0), BuildingBlock: ZUJKAS_clean_linker_0, # of connection points: 2
#     Edge 25, Type (0, 0), BuildingBlock: ZUJKAS_clean_linker_0, # of connection points: 2
#     Edge 26, Type (0, 0), BuildingBlock: ZUJKAS_clean_linker_0, # of connection points: 2
#     Edge 27, Type (0, 0), BuildingBlock: ZUJKAS_clean_linker_0, # of connection points: 2
#     Edge 28, Type (0, 0), BuildingBlock: ZUJKAS_clean_linker_0, # of connection points: 2
#     Edge 29, Type (0, 0), BuildingBlock: ZUJKAS_clean_linker_0, # of connection points: 2
#     Edge 30, Type (0, 0), BuildingBlock: ZUJKAS_clean_linker_0, # of connection points: 2
#     Edge 31, Type (0, 0), BuildingBlock: ZUJKAS_clean_linker_0, # of connection points: 2
#     Edge 32, Type (0, 0), BuildingBlock: ZUJKAS_clean_linker_0, # of connection points: 2
#     Edge 33, Type (0, 0), BuildingBlock: ZUJKAS_clean_linker_0, # of connection points: 2
#     Edge 34, Type (0, 0), BuildingBlock: ZUJKAS_clean_linker_0, # of connection points: 2
#     Edge 35, Type (0, 0), BuildingBlock: ZUJKAS_clean_linker_0, # of connection points: 2
#     Edge 36, Type (0, 0), BuildingBlock: ZUJKAS_clean_linker_0, # of connection points: 2
#     Edge 37, Type (0, 0), BuildingBlock: ZUJKAS_clean_linker_0, # of connection points: 2
#     Edge 38, Type (0, 0), BuildingBlock: ZUJKAS_clean_linker_0, # of connection points: 2
#     Edge 39, Type (0, 0), BuildingBlock: ZUJKAS_clean_linker_0, # of connection points: 2
#     Edge 40, Type (0, 0), BuildingBlock: ZUJKAS_clean_linker_0, # of connection points: 2
#     Edge 41, Type (0, 0), BuildingBlock: ZUJKAS_clean_linker_0, # of connection points: 2
#     Edge 42, Type (0, 0), BuildingBlock: ZUJKAS_clean_linker_0, # of connection points: 2
#     Edge 43, Type (0, 0), BuildingBlock: ZUJKAS_clean_linker_0, # of connection points: 2
#     Edge 44, Type (0, 0), BuildingBlock: ZUJKAS_clean_linker_0, # of connection points: 2
#     Edge 45, Type (0, 0), BuildingBlock: ZUJKAS_clean_linker_0, # of connection points: 2
#     Edge 46, Type (0, 0), BuildingBlock: ZUJKAS_clean_linker_0, # of connection points: 2
#     Edge 47, Type (0, 0), BuildingBlock: ZUJKAS_clean_linker_0, # of connection points: 2
#     Edge 48, Type (0, 0), BuildingBlock: ZUJKAS_clean_linker_0, # of connection points: 2
#     Edge 49, Type (0, 0), BuildingBlock: ZUJKAS_clean_linker_0, # of connection points: 2
#     Edge 50, Type (0, 0), BuildingBlock: ZUJKAS_clean_linker_0, # of connection points: 2
#     Edge 51, Type (0, 0), BuildingBlock: ZUJKAS_clean_linker_0, # of connection points: 2
#     Edge 52, Type (0, 0), BuildingBlock: ZUJKAS_clean_linker_0, # of connection points: 2
#     Edge 53, Type (0, 0), BuildingBlock: ZUJKAS_clean_linker_0, # of connection points: 2
#     Edge 54, Type (0, 0), BuildingBlock: ZUJKAS_clean_linker_0, # of connection points: 2
#     Edge 55, Type (0, 0), BuildingBlock: ZUJKAS_clean_linker_0, # of connection points: 2
#     Edge 56, Type (0, 0), BuildingBlock: ZUJKAS_clean_linker_0, # of connection points: 2
#     Edge 57, Type (0, 0), BuildingBlock: ZUJKAS_clean_linker_0, # of connection points: 2
#     Edge 58, Type (0, 0), BuildingBlock: ZUJKAS_clean_linker_0, # of connection points: 2
#     Edge 59, Type (0, 0), BuildingBlock: ZUJKAS_clean_linker_0, # of connection points: 2
#     Edge 60, Type (0, 0), BuildingBlock: ZUJKAS_clean_linker_0, # of connection points: 2
#     Edge 61, Type (0, 0), BuildingBlock: ZUJKAS_clean_linker_0, # of connection points: 2
#     Edge 62, Type (0, 0), BuildingBlock: ZUJKAS_clean_linker_0, # of connection points: 2
#     Edge 63, Type (0, 0), BuildingBlock: ZUJKAS_clean_linker_0, # of connection points: 2
# Relax obj value: 0.042
# Max RMSD: 0.112
# Mean RMSD: 0.112
data_MOF--net-vbm--node1-PAMTOO_clean_sbu_0--edge1-ZUJKAS_clean_linker_0
_symmetry_space_group_name_H-M    P1
_symmetry_Int_Tables_number       1
_symmetry_cell_setting            triclinic
loop_
_symmetry_equiv_pos_as_xyz
'x, y, z'
_cell_length_a     72.519425
_cell_length_b     31.063119
_cell_length_c     76.154248
_cell_angle_alpha  90.007064
_cell_angle_beta   90.063141
_cell_angle_gamma 89.983812
loop_
_atom_site_label
_atom_site_type_symbol
_atom_site_fract_x
_atom_site_fract_y
_atom_site_fract_z
_atom_type_partial_charge
Dy0 Dy 0.11715 0.16544 0.13094 0.0
Dy1 Dy 0.13222 0.06396 0.12278 0.0
C2 C 0.12287 0.13023 0.09211 0.0
O3 O 0.09211 0.12623 0.12484 0.0
O4 O 0.10258 0.05712 0.13022 0.0
O5 O 0.10177 0.22226 0.12333 0.0
O6 O 0.11664 0.22146 0.14801 0.0
O7 O 0.1365 0.07973 0.15104 0.0
O8 O 0.11245 0.12622 0.15526 0.0
O9 O 0.15587 0.10831 0.1169 0.0
O10 O 0.1475 0.16382 0.13524 0.0
O11 O 0.1466 1.00673 0.13164 0.0
O12 O 0.13531 1.00884 0.10543 0.0
C13 C 0.08913 0.08493 0.12762 0.0
O14 O 0.12597 0.16276 0.10277 0.0
O15 O 0.12051 0.09096 0.09807 0.0
C16 C 0.11167 0.2907 0.13485 0.0
C17 C 0.11685 0.38137 0.1315 0.0
C18 C 0.11627 0.35455 0.11655 0.0
C19 C 0.11366 0.30983 0.11819 0.0
C20 C 0.11272 0.31726 0.14975 0.0
C21 C 0.1153 0.36183 0.14812 0.0
C22 C 0.10679 0.24436 0.13711 0.0
C23 C 0.12412 0.09739 0.16132 0.0
C24 C 0.15983 0.14373 0.12565 0.0
C25 C 0.13828 0.93891 0.11853 0.0
C26 C 0.13257 0.84811 0.12037 0.0
C27 C 0.1326 0.87364 0.13569 0.0
C28 C 0.13547 0.91839 0.1348 0.0
C29 C 0.1378 0.91364 0.10322 0.0
C30 C 0.13495 0.86902 0.10411 0.0
C31 C 0.14353 0.98529 0.11722 0.0
H32 H 0.11725 0.36824 0.10351 0.0
H33 H 0.11279 0.29043 0.1064 0.0
H34 H 0.11113 0.3036 0.16275 0.0
H35 H 0.116 0.38104 0.15997 0.0
H36 H 0.13101 0.8589 0.14849 0.0
H37 H 0.13591 0.93668 0.1469 0.0
H38 H 0.14006 0.92833 0.0905 0.0
H39 H 0.1347 0.85086 0.09197 0.0
Dy40 Dy 0.87336 0.85579 0.13124 0.0
Dy41 Dy 0.8579 0.95719 0.12382 0.0
C42 C 0.86775 0.89317 0.09262 0.0
O43 O 0.89836 0.89529 0.12552 0.0
O44 O 0.8877 0.96435 0.13077 0.0
O45 O 0.88863 0.79916 0.12321 0.0
O46 O 0.87428 0.79953 0.14814 0.0
O47 O 0.85308 0.9385 0.15169 0.0
O48 O 0.87792 0.89457 0.15575 0.0
O49 O 0.83428 0.91284 0.11767 0.0
O50 O 0.84299 0.85619 0.13532 0.0
O51 O 0.84543 0.01503 0.13429 0.0
O52 O 0.85229 0.0119 0.10676 0.0
C53 C 0.90122 0.93665 0.12825 0.0
O54 O 0.86473 0.86001 0.103 0.0
O55 O 0.87001 0.93215 0.09896 0.0
C56 C 0.879 0.7305 0.13473 0.0
C57 C 0.87376 0.63986 0.13134 0.0
C58 C 0.87437 0.6667 0.1164 0.0
C59 C 0.87702 0.7114 0.11807 0.0
C60 C 0.87792 0.70392 0.14963 0.0
C61 C 0.87531 0.65937 0.14798 0.0
C62 C 0.88391 0.77683 0.13702 0.0
C63 C 0.86583 0.92221 0.16194 0.0
C64 C 0.83053 0.87666 0.12598 0.0
C65 C 0.85197 0.08231 0.12001 0.0
C66 C 0.85809 0.1731 0.12084 0.0
C67 C 0.85839 0.14845 0.13639 0.0
C68 C 0.85534 0.10378 0.13599 0.0
C69 C 0.85209 0.10667 0.10445 0.0
C70 C 0.85516 0.1513 0.10484 0.0
C71 C 0.84626 0.03607 0.11952 0.0
H72 H 0.8734 0.65303 0.10335 0.0
H73 H 0.87791 0.7308 0.10628 0.0
H74 H 0.8795 0.71756 0.16264 0.0
H75 H 0.87459 0.64015 0.15982 0.0
H76 H 0.86036 0.16384 0.14901 0.0
H77 H 0.85512 0.08632 0.1483 0.0
H78 H 0.84936 0.09133 0.09194 0.0
H79 H 0.85511 0.16878 0.09254 0.0
Dy80 Dy 0.11761 0.85196 0.36576 0.0
Dy81 Dy 0.13319 0.95382 0.37232 0.0
C82 C 0.12286 0.89193 0.404 0.0
O83 O 0.09258 0.89133 0.37133 0.0
O84 O 0.10317 0.96061 0.36633 0.0
O85 O 0.1028 0.79528 0.37441 0.0
O86 O 0.1161 0.79559 0.34893 0.0
O87 O 0.1384 0.93214 0.34489 0.0
O88 O 0.11293 0.8904 0.34125 0.0
O89 O 0.15689 0.90986 0.37847 0.0
O90 O 0.14799 0.85153 0.36177 0.0
O91 O 0.14231 0.01306 0.36035 0.0
O92 O 0.14224 1.00758 0.38865 0.0
C93 C 0.08971 0.93275 0.36881 0.0
O94 O 0.12612 0.85829 0.39394 0.0
O95 O 0.12075 0.93069 0.39736 0.0
C96 C 0.11145 0.72669 0.36234 0.0
C97 C 0.11681 0.63626 0.36601 0.0
C98 C 0.12158 0.66481 0.3797 0.0
C99 C 0.11887 0.70951 0.37792 0.0
C100 C 0.10715 0.6984 0.34855 0.0
C101 C 0.10979 0.65392 0.35033 0.0
C102 C 0.10677 0.7731 0.36035 0.0
C103 C 0.12529 0.91689 0.3348 0.0
C104 C 0.16051 0.87293 0.37069 0.0
C105 C 0.13922 0.07898 0.37645 0.0
C106 C 0.13328 0.16982 0.37701 0.0
C107 C 0.12678 0.14436 0.36298 0.0
C108 C 0.12972 0.09964 0.36268 0.0
C109 C 0.14523 0.10409 0.3907 0.0
C110 C 0.14226 0.14877 0.39102 0.0
C111 C 0.14496 0.03289 0.37522 0.0
H112 H 0.12691 0.65255 0.39201 0.0
H113 H 0.12227 0.73048 0.38882 0.0
H114 H 0.1014 0.71072 0.33641 0.0
H115 H 0.10627 0.6333 0.33936 0.0
H116 H 0.11998 0.15912 0.35184 0.0
H117 H 0.12502 0.08151 0.35139 0.0
H118 H 0.15272 0.08928 0.40144 0.0
H119 H 0.1472 0.16687 0.40223 0.0
Dy120 Dy 0.87617 0.17034 0.36646 0.0
Dy121 Dy 0.85942 0.06865 0.37174 0.0
C122 C 0.87003 0.12802 0.40434 0.0
O123 O 0.90068 0.12964 0.37223 0.0
O124 O 0.8895 0.06156 0.36591 0.0
O125 O 0.89123 0.22637 0.37554 0.0
O126 O 0.8786 0.22661 0.34973 0.0
O127 O 0.85357 0.09385 0.34497 0.0
O128 O 0.87976 0.13286 0.34146 0.0
O129 O 0.83557 0.11242 0.37769 0.0
O130 O 0.84575 0.17454 0.36398 0.0
O131 O 0.85158 1.00966 0.35877 0.0
O132 O 0.84891 0.01447 0.38698 0.0
C133 C 0.90318 0.08837 0.36912 0.0
O134 O 0.86778 0.16273 0.39462 0.0
O135 O 0.87143 0.08942 0.39735 0.0
C136 C 0.88299 0.29532 0.36336 0.0
C137 C 0.8775 0.38587 0.36664 0.0
C138 C 0.8738 0.35787 0.3808 0.0
C139 C 0.87656 0.31314 0.37921 0.0
C140 C 0.88624 0.32305 0.34914 0.0
C141 C 0.88353 0.36757 0.35072 0.0
C142 C 0.88768 0.24883 0.36143 0.0
C143 C 0.86675 0.10829 0.33485 0.0
C144 C 0.83284 0.15187 0.37179 0.0
C145 C 0.85336 0.94329 0.3748 0.0
C146 C 0.85938 0.85241 0.37598 0.0
C147 C 0.86479 0.87693 0.36128 0.0
C148 C 0.86181 0.9216 0.36068 0.0
C149 C 0.84838 0.91911 0.38966 0.0
C150 C 0.8514 0.87442 0.39028 0.0
C151 C 0.8476 0.9894 0.37327 0.0
H152 H 0.86925 0.37061 0.3933 0.0
H153 H 0.87397 0.29266 0.39045 0.0
H154 H 0.89122 0.31029 0.33677 0.0
H155 H 0.88621 0.3877 0.3394 0.0
H156 H 0.87073 0.86146 0.34987 0.0
H157 H 0.86563 0.93885 0.34888 0.0
H158 H 0.84167 0.9346 0.40068 0.0
H159 H 0.8473 0.85708 0.40197 0.0
Dy160 Dy 0.85837 0.95491 0.87236 0.0
Dy161 Dy 0.87428 0.85323 0.86588 0.0
C162 C 0.86604 0.9179 0.8349 0.0
O163 O 0.83456 0.91072 0.87816 0.0
O164 O 0.84386 0.85172 0.86202 0.0
O165 O 0.85019 0.01462 0.86016 0.0
O166 O 0.84828 1.00829 0.88838 0.0
O167 O 0.86556 0.85941 0.89403 0.0
O168 O 0.87048 0.93198 0.89759 0.0
O169 O 0.89926 0.89278 0.87159 0.0
O170 O 0.88852 0.96203 0.86681 0.0
O171 O 0.88924 0.79675 0.87461 0.0
O172 O 0.87602 0.79682 0.84909 0.0
C173 C 0.83117 0.87328 0.87064 0.0
O174 O 0.85291 0.93257 0.84507 0.0
O175 O 0.87862 0.89181 0.84129 0.0
C176 C 0.85196 0.08009 0.87669 0.0
C177 C 0.85771 0.17103 0.87736 0.0
C178 C 0.86695 0.14468 0.86509 0.0
C179 C 0.8641 0.0999 0.86475 0.0
C180 C 0.8432 0.10606 0.88928 0.0
C181 C 0.84606 0.15079 0.88965 0.0
C182 C 0.84645 0.03396 0.87492 0.0
C183 C 0.86838 0.89314 0.90417 0.0
C184 C 0.90205 0.9343 0.86925 0.0
C185 C 0.88107 0.72802 0.86247 0.0
C186 C 0.87563 0.63764 0.86634 0.0
C187 C 0.86795 0.66703 0.87846 0.0
C188 C 0.8707 0.71173 0.87658 0.0
C189 C 0.88833 0.69891 0.8502 0.0
C190 C 0.88567 0.65446 0.85208 0.0
C191 C 0.88547 0.77455 0.8605 0.0
H192 H 0.87589 0.15877 0.85528 0.0
H193 H 0.87099 0.08101 0.85476 0.0
H194 H 0.83368 0.09188 0.89858 0.0
H195 H 0.83894 0.16956 0.89953 0.0
H196 H 0.86022 0.65546 0.88966 0.0
H197 H 0.86496 0.73344 0.88628 0.0
H198 H 0.89635 0.71058 0.83919 0.0
H199 H 0.8915 0.63321 0.84228 0.0
Dy200 Dy 0.13279 0.06711 0.87327 0.0
Dy201 Dy 0.11732 0.1684 0.86564 0.0
C202 C 0.1251 0.10198 0.83504 0.0
O203 O 0.1564 0.11151 0.87948 0.0
O204 O 0.14775 0.16816 0.8618 0.0
O205 O 0.14568 1.00945 0.86306 0.0
O206 O 0.13793 0.01225 0.89038 0.0
O207 O 0.12587 0.16453 0.89388 0.0
O208 O 0.12062 0.09244 0.89807 0.0
O209 O 0.0923 0.12881 0.87132 0.0
O210 O 0.10303 0.05981 0.86611 0.0
O211 O 0.10187 0.22492 0.87351 0.0
O212 O 0.11655 0.22467 0.84875 0.0
C213 C 0.16017 0.14771 0.8712 0.0
O214 O 0.13771 0.08546 0.84538 0.0
O215 O 0.11296 0.1296 0.84114 0.0
C216 C 0.13878 0.94194 0.87704 0.0
C217 C 0.13286 0.85106 0.87608 0.0
C218 C 0.13398 0.87532 0.86047 0.0
C219 C 0.13694 0.92002 0.86093 0.0
C220 C 0.13724 0.91794 0.89263 0.0
C221 C 0.13427 0.87327 0.89217 0.0
C222 C 0.1444 0.98824 0.87777 0.0
C223 C 0.12274 0.13156 0.9043 0.0
C224 C 0.08947 0.08742 0.86861 0.0
C225 C 0.11169 0.29365 0.86219 0.0
C226 C 0.11683 0.38435 0.86559 0.0
C227 C 0.11496 0.3579 0.88054 0.0
C228 C 0.11237 0.31318 0.87887 0.0
C229 C 0.11404 0.31985 0.84731 0.0
C230 C 0.1166 0.36443 0.84896 0.0
C231 C 0.10679 0.24734 0.85978 0.0
H232 H 0.13322 0.85959 0.8478 0.0
H233 H 0.1383 0.93716 0.84862 0.0
H234 H 0.13879 0.93359 0.90526 0.0
H235 H 0.1332 0.8561 0.9045 0.0
H236 H 0.11489 0.3719 0.89356 0.0
H237 H 0.11046 0.29414 0.89064 0.0
H238 H 0.11346 0.30593 0.83427 0.0
H239 H 0.11831 0.38334 0.83714 0.0
Dy240 Dy 0.85954 0.06836 0.62588 0.0
Dy241 Dy 0.87621 0.16995 0.63111 0.0
C242 C 0.86688 0.10822 0.66279 0.0
O243 O 0.83582 0.11203 0.61938 0.0
O244 O 0.84576 0.1738 0.63347 0.0
O245 O 0.85039 0.01043 0.63889 0.0
O246 O 0.85017 0.01327 0.61054 0.0
O247 O 0.86788 0.16231 0.60292 0.0
O248 O 0.87153 0.08901 0.60027 0.0
O249 O 0.90073 0.12911 0.62556 0.0
O250 O 0.88953 0.06123 0.63213 0.0
O251 O 0.89163 0.22559 0.62218 0.0
O252 O 0.87814 0.22679 0.64755 0.0
C253 C 0.83298 0.15134 0.62535 0.0
O254 O 0.85371 0.09373 0.65262 0.0
O255 O 0.87985 0.1329 0.65621 0.0
C256 C 0.85336 0.9429 0.6239 0.0
C257 C 0.85925 0.85201 0.62347 0.0
C258 C 0.85867 0.875 0.6394 0.0
C259 C 0.85573 0.91965 0.63962 0.0
C260 C 0.85437 0.92018 0.60793 0.0
C261 C 0.85738 0.87543 0.60771 0.0
C262 C 0.8476 0.98916 0.62437 0.0
C263 C 0.87011 0.12755 0.59323 0.0
C264 C 0.90323 0.08793 0.62888 0.0
C265 C 0.88239 0.29499 0.63338 0.0
C266 C 0.8765 0.38538 0.62964 0.0
C267 C 0.87864 0.35866 0.61479 0.0
C268 C 0.88157 0.3141 0.61663 0.0
C269 C 0.87997 0.32149 0.64816 0.0
C270 C 0.87703 0.36591 0.64634 0.0
C271 C 0.88742 0.24877 0.63592 0.0
H272 H 0.86032 0.85841 0.65181 0.0
H273 H 0.85484 0.93574 0.6522 0.0
H274 H 0.85229 0.93676 0.59557 0.0
H275 H 0.85754 0.85896 0.59518 0.0
H276 H 0.87809 0.37217 0.6017 0.0
H277 H 0.88347 0.29481 0.60492 0.0
H278 H 0.88082 0.30797 0.66125 0.0
H279 H 0.87576 0.38519 0.65812 0.0
Dy280 Dy 0.13353 0.95649 0.6235 0.0
Dy281 Dy 0.11814 0.85473 0.63068 0.0
C282 C 0.1261 0.92047 0.66137 0.0
O283 O 0.1571 0.91234 0.61718 0.0
O284 O 0.14855 0.85487 0.63448 0.0
O285 O 0.14407 0.01533 0.6348 0.0
O286 O 0.1411 0.01043 0.60664 0.0
O287 O 0.12647 0.86001 0.60243 0.0
O288 O 0.12098 0.93223 0.59866 0.0
O289 O 0.09307 0.89408 0.62517 0.0
O290 O 0.10368 0.96338 0.63011 0.0
O291 O 0.1031 0.79798 0.62243 0.0
O292 O 0.11706 0.79851 0.64761 0.0
C293 C 0.16089 0.87579 0.62519 0.0
O294 O 0.13893 0.93616 0.6511 0.0
O295 O 0.11377 0.89348 0.65516 0.0
C296 C 0.13959 0.08158 0.61921 0.0
C297 C 0.13369 0.17244 0.6194 0.0
C298 C 0.12807 0.1466 0.63365 0.0
C299 C 0.13099 0.10186 0.63358 0.0
C300 C 0.14471 0.10707 0.60478 0.0
C301 C 0.14177 0.15176 0.60483 0.0
C302 C 0.14528 0.03541 0.61983 0.0
C303 C 0.12316 0.89331 0.5922 0.0
C304 C 0.0902 0.93548 0.62777 0.0
C305 C 0.11212 0.72948 0.63437 0.0
C306 C 0.11734 0.63899 0.63068 0.0
C307 C 0.12141 0.66736 0.61673 0.0
C308 C 0.11878 0.71207 0.61853 0.0
C309 C 0.10854 0.70139 0.64839 0.0
C310 C 0.1111 0.65687 0.6466 0.0
C311 C 0.10746 0.7759 0.63642 0.0
H312 H 0.12198 0.16109 0.64521 0.0
H313 H 0.12699 0.08339 0.64502 0.0
H314 H 0.15148 0.09254 0.59357 0.0
H315 H 0.14601 0.17015 0.59345 0.0
H316 H 0.12613 0.65492 0.60424 0.0
H317 H 0.12161 0.73287 0.60744 0.0
H318 H 0.10338 0.71386 0.66073 0.0
H319 H 0.10814 0.63642 0.65776 0.0
Dy320 Dy 0.61724 0.6651 0.13122 0.0
Dy321 Dy 0.63284 0.56371 0.12336 0.0
C322 C 0.62406 0.62996 0.09249 0.0
O323 O 0.59254 0.62536 0.12432 0.0
O324 O 0.60312 0.55676 0.13049 0.0
O325 O 0.60201 0.72187 0.12325 0.0
O326 O 0.61592 0.72086 0.14843 0.0
O327 O 0.63724 0.58093 0.15146 0.0
O328 O 0.61258 0.62557 0.1555 0.0
O329 O 0.65651 0.60827 0.1178 0.0
O330 O 0.64761 0.66468 0.13553 0.0
O331 O 0.64625 0.50603 0.13301 0.0
O332 O 0.6372 0.50886 0.10604 0.0
C333 C 0.58964 0.58412 0.12733 0.0
O334 O 0.62668 0.66254 0.10325 0.0
O335 O 0.62163 0.59059 0.09837 0.0
C336 C 0.61106 0.79017 0.13536 0.0
C337 C 0.61699 0.88061 0.13192 0.0
C338 C 0.62133 0.85206 0.11809 0.0
C339 C 0.6184 0.8074 0.11978 0.0
C340 C 0.60697 0.81843 0.14921 0.0
C341 C 0.60987 0.86288 0.14755 0.0
C342 C 0.60633 0.74371 0.13732 0.0
C343 C 0.62453 0.59751 0.16166 0.0
C344 C 0.66015 0.64438 0.12622 0.0
C345 C 0.63925 0.43859 0.11905 0.0
C346 C 0.6332 0.34787 0.12084 0.0
C347 C 0.6282 0.37512 0.13489 0.0
C348 C 0.63118 0.41987 0.13402 0.0
C349 C 0.64391 0.41164 0.10492 0.0
C350 C 0.64093 0.36704 0.10577 0.0
C351 C 0.64447 0.48503 0.1183 0.0
H352 H 0.62705 0.86415 0.10593 0.0
H353 H 0.62169 0.78647 0.10885 0.0
H354 H 0.60112 0.80614 0.16131 0.0
H355 H 0.60603 0.88347 0.15841 0.0
H356 H 0.62198 0.3619 0.14663 0.0
H357 H 0.62744 0.43966 0.14517 0.0
H358 H 0.65034 0.42501 0.0933 0.0
H359 H 0.64525 0.34743 0.09476 0.0
Dy360 Dy 0.3752 0.34847 0.13169 0.0
Dy361 Dy 0.35932 0.45023 0.1251 0.0
C362 C 0.36849 0.38703 0.09347 0.0
O363 O 0.39992 0.38819 0.12501 0.0
O364 O 0.38938 0.45699 0.13096 0.0
O365 O 0.39014 0.29198 0.12299 0.0
O366 O 0.37716 0.29233 0.1486 0.0
O367 O 0.35426 0.42834 0.15251 0.0
O368 O 0.38 0.38743 0.15603 0.0
O369 O 0.33543 0.40627 0.11962 0.0
O370 O 0.3448 0.3473 0.13579 0.0
O371 O 0.35042 0.50969 0.13708 0.0
O372 O 0.35006 0.5039 0.1088 0.0
C373 C 0.40282 0.4295 0.12782 0.0
O374 O 0.3657 0.35375 0.10383 0.0
O375 O 0.37084 0.42607 0.09979 0.0
C376 C 0.38193 0.2234 0.13524 0.0
C377 C 0.37637 0.13302 0.13153 0.0
C378 C 0.36942 0.16219 0.11892 0.0
C379 C 0.37223 0.20688 0.12072 0.0
C380 C 0.38846 0.19451 0.14798 0.0
C381 C 0.38573 0.15006 0.14618 0.0
C382 C 0.38646 0.2699 0.13715 0.0
C383 C 0.36754 0.41364 0.16252 0.0
C384 C 0.33205 0.36899 0.12725 0.0
C385 C 0.35296 0.57551 0.12083 0.0
C386 C 0.35865 0.66647 0.1204 0.0
C387 C 0.36702 0.64031 0.1333 0.0
C388 C 0.36419 0.59551 0.13353 0.0
C389 C 0.34507 0.60132 0.10766 0.0
C390 C 0.3479 0.64605 0.10741 0.0
C391 C 0.34746 0.5293 0.12222 0.0
H392 H 0.36224 0.15045 0.10741 0.0
H393 H 0.36707 0.22839 0.11066 0.0
H394 H 0.39597 0.20635 0.1593 0.0
H395 H 0.39099 0.12898 0.15634 0.0
H396 H 0.37524 0.65457 0.14365 0.0
H397 H 0.37038 0.57676 0.14398 0.0
H398 H 0.33625 0.58699 0.09777 0.0
H399 H 0.34148 0.66468 0.09706 0.0
Dy400 Dy 0.61508 0.35023 0.36631 0.0
Dy401 Dy 0.63178 0.45184 0.37106 0.0
C402 C 0.62183 0.39266 0.40389 0.0
O403 O 0.59098 0.39142 0.37324 0.0
O404 O 0.60182 0.45805 0.3645 0.0
O405 O 0.60024 0.29428 0.37579 0.0
O406 O 0.61199 0.29396 0.34966 0.0
O407 O 0.63751 0.42614 0.34436 0.0
O408 O 0.61121 0.38728 0.34122 0.0
O409 O 0.65572 0.40828 0.37693 0.0
O410 O 0.64549 0.34588 0.36348 0.0
O411 O 0.63998 0.51054 0.35806 0.0
O412 O 0.64172 0.50654 0.38635 0.0
C413 C 0.58832 0.43202 0.36905 0.0
O414 O 0.62427 0.35799 0.39421 0.0
O415 O 0.62007 0.4311 0.39681 0.0
C416 C 0.60824 0.22535 0.36349 0.0
C417 C 0.61468 0.13505 0.36661 0.0
C418 C 0.6184 0.16325 0.38072 0.0
C419 C 0.61522 0.20783 0.37919 0.0
C420 C 0.60474 0.1974 0.34938 0.0
C421 C 0.6079 0.15302 0.35089 0.0
C422 C 0.60334 0.27174 0.36162 0.0
C423 C 0.62421 0.41147 0.33439 0.0
C424 C 0.65849 0.36883 0.37105 0.0
C425 C 0.63766 0.57734 0.37375 0.0
C426 C 0.63155 0.66816 0.37429 0.0
C427 C 0.62593 0.64294 0.35986 0.0
C428 C 0.62894 0.59825 0.35958 0.0
C429 C 0.64285 0.60228 0.38836 0.0
C430 C 0.63977 0.64696 0.38868 0.0
C431 C 0.64348 0.53122 0.37258 0.0
H432 H 0.62383 0.15091 0.39298 0.0
H433 H 0.61807 0.22847 0.39033 0.0
H434 H 0.59918 0.20987 0.33718 0.0
H435 H 0.60454 0.13265 0.3398 0.0
H436 H 0.61931 0.65779 0.34864 0.0
H437 H 0.62483 0.58033 0.34802 0.0
H438 H 0.64985 0.5874 0.39937 0.0
H439 H 0.64449 0.66512 0.39996 0.0
Dy440 Dy 0.37357 0.6647 0.36584 0.0
Dy441 Dy 0.35849 0.56309 0.3733 0.0
C442 C 0.36692 0.62917 0.40435 0.0
O443 O 0.39811 0.62496 0.3732 0.0
O444 O 0.38792 0.55741 0.36506 0.0
O445 O 0.38887 0.72139 0.37379 0.0
O446 O 0.37457 0.72068 0.34882 0.0
O447 O 0.35453 0.57894 0.34504 0.0
O448 O 0.37848 0.62609 0.34137 0.0
O449 O 0.33482 0.60712 0.37939 0.0
O450 O 0.34325 0.66326 0.3614 0.0
O451 O 0.3429 0.50668 0.36532 0.0
O452 O 0.35739 0.50678 0.39011 0.0
C453 C 0.40122 0.5844 0.36916 0.0
O454 O 0.36406 0.66199 0.39379 0.0
O455 O 0.36962 0.59016 0.39824 0.0
C456 C 0.37906 0.78986 0.36218 0.0
C457 C 0.37325 0.8804 0.36527 0.0
C458 C 0.37553 0.85437 0.3803 0.0
C459 C 0.37841 0.80974 0.37878 0.0
C460 C 0.37649 0.81567 0.34721 0.0
C461 C 0.37359 0.86017 0.34872 0.0
C462 C 0.38413 0.74359 0.35995 0.0
C463 C 0.36693 0.59738 0.33501 0.0
C464 C 0.3309 0.64289 0.37088 0.0
C465 C 0.35258 0.43787 0.37681 0.0
C466 C 0.35841 0.34734 0.37378 0.0
C467 C 0.35613 0.3733 0.35872 0.0
C468 C 0.35324 0.41796 0.36021 0.0
C469 C 0.35511 0.41211 0.39179 0.0
C470 C 0.35801 0.36762 0.39032 0.0
C471 C 0.34765 0.48421 0.37907 0.0
H472 H 0.37513 0.8685 0.3933 0.0
H473 H 0.38043 0.79099 0.39062 0.0
H474 H 0.3772 0.80154 0.33422 0.0
H475 H 0.3722 0.87892 0.3368 0.0
H476 H 0.35656 0.35912 0.34574 0.0
H477 H 0.35125 0.4367 0.34837 0.0
H478 H 0.35439 0.42628 0.40477 0.0
H479 H 0.35938 0.34893 0.40225 0.0
Dy480 Dy 0.35907 0.45924 0.87649 0.0
Dy481 Dy 0.3733 0.35749 0.86663 0.0
C482 C 0.36693 0.42939 0.83697 0.0
O483 O 0.3353 0.4146 0.88197 0.0
O484 O 0.34299 0.36112 0.86243 0.0
O485 O 0.34195 0.51522 0.87133 0.0
O486 O 0.36033 0.51493 0.89368 0.0
O487 O 0.36452 0.3581 0.89486 0.0
O488 O 0.37088 0.42901 0.90045 0.0
O489 O 0.39865 0.39602 0.8725 0.0
O490 O 0.38832 0.46552 0.86779 0.0
O491 O 0.38864 0.30004 0.87352 0.0
O492 O 0.37305 0.30192 0.84926 0.0
C493 C 0.33094 0.38042 0.87259 0.0
O494 O 0.35586 0.45005 0.8477 0.0
O495 O 0.37732 0.39704 0.84224 0.0
C496 C 0.35244 0.58394 0.88201 0.0
C497 C 0.35783 0.67449 0.87834 0.0
C498 C 0.36037 0.64636 0.86396 0.0
C499 C 0.35772 0.60161 0.86577 0.0
C500 C 0.35002 0.61182 0.89634 0.0
C501 C 0.35265 0.65632 0.89456 0.0
C502 C 0.34857 0.53723 0.88449 0.0
C503 C 0.36796 0.38959 0.90593 0.0
C504 C 0.40173 0.43735 0.86985 0.0
C505 C 0.37849 0.23214 0.86177 0.0
C506 C 0.37276 0.14159 0.86515 0.0
C507 C 0.37042 0.16947 0.87964 0.0
C508 C 0.37325 0.21416 0.87797 0.0
C509 C 0.38057 0.20455 0.8473 0.0
C510 C 0.37776 0.16005 0.84893 0.0
C511 C 0.38324 0.27858 0.8597 0.0
H512 H 0.36454 0.65884 0.8513 0.0
H513 H 0.3597 0.58093 0.85447 0.0
H514 H 0.34581 0.59915 0.90897 0.0
H515 H 0.3502 0.67658 0.90588 0.0
H516 H 0.36636 0.15679 0.8923 0.0
H517 H 0.37156 0.23451 0.88941 0.0
H518 H 0.3848 0.21738 0.8347 0.0
H519 H 0.38003 0.13998 0.83751 0.0
Dy520 Dy 0.63281 0.5616 0.8749 0.0
Dy521 Dy 0.61847 0.66306 0.8656 0.0
C522 C 0.62448 0.59221 0.83567 0.0
O523 O 0.65655 0.60597 0.88071 0.0
O524 O 0.64875 0.65937 0.86121 0.0
O525 O 0.65004 0.50597 0.86936 0.0
O526 O 0.63149 0.50509 0.89155 0.0
O527 O 0.62733 0.66253 0.89383 0.0
O528 O 0.62189 0.59112 0.89941 0.0
O529 O 0.59318 0.62485 0.87187 0.0
O530 O 0.60338 0.55558 0.86657 0.0
O531 O 0.60292 0.7203 0.87232 0.0
O532 O 0.619 0.71882 0.8484 0.0
C533 C 0.66084 0.64033 0.87143 0.0
O534 O 0.63611 0.57238 0.84614 0.0
O535 O 0.61368 0.62333 0.84137 0.0
C536 C 0.63892 0.43662 0.87905 0.0
C537 C 0.63382 0.34606 0.87493 0.0
C538 C 0.63827 0.3724 0.86043 0.0
C539 C 0.6408 0.41707 0.86246 0.0
C540 C 0.63428 0.41045 0.89344 0.0
C541 C 0.63174 0.36597 0.89143 0.0
C542 C 0.64314 0.48306 0.88213 0.0
C543 C 0.62442 0.63074 0.9049 0.0
C544 C 0.59002 0.58364 0.86905 0.0
C545 C 0.61389 0.78839 0.86131 0.0
C546 C 0.6196 0.87898 0.86459 0.0
C547 C 0.61535 0.85349 0.87937 0.0
C548 C 0.61252 0.80886 0.87776 0.0
C549 C 0.61846 0.81365 0.84663 0.0
C550 C 0.62132 0.85817 0.84823 0.0
C551 C 0.60878 0.74218 0.85879 0.0
H552 H 0.63979 0.35853 0.84747 0.0
H553 H 0.64445 0.43614 0.85108 0.0
H554 H 0.63301 0.42433 0.90643 0.0
H555 H 0.62866 0.34701 0.90298 0.0
H556 H 0.61414 0.86804 0.89224 0.0
H557 H 0.60891 0.7906 0.88938 0.0
H558 H 0.61933 0.79911 0.83372 0.0
H559 H 0.62429 0.87649 0.83647 0.0
Dy560 Dy 0.35784 0.56315 0.62327 0.0
Dy561 Dy 0.37336 0.66509 0.63069 0.0
C562 C 0.36508 0.59906 0.66111 0.0
O563 O 0.33418 0.60735 0.61726 0.0
O564 O 0.34293 0.66527 0.63428 0.0
O565 O 0.34937 0.50309 0.63494 0.0
O566 O 0.34808 0.51044 0.60671 0.0
O567 O 0.36484 0.65952 0.60252 0.0
O568 O 0.37042 0.58738 0.59848 0.0
O569 O 0.39848 0.62564 0.62551 0.0
O570 O 0.38779 0.55595 0.62933 0.0
O571 O 0.38954 0.72051 0.62277 0.0
O572 O 0.37345 0.72281 0.64669 0.0
C573 C 0.33051 0.64412 0.62514 0.0
O574 O 0.35219 0.58434 0.65064 0.0
O575 O 0.37735 0.6267 0.65532 0.0
C576 C 0.35091 0.43832 0.61813 0.0
C577 C 0.35665 0.34756 0.61805 0.0
C578 C 0.36859 0.37522 0.62738 0.0
C579 C 0.36572 0.42004 0.62747 0.0
C580 C 0.33943 0.41101 0.60831 0.0
C581 C 0.34225 0.36632 0.60824 0.0
C582 C 0.34573 0.48448 0.62 0.0
C583 C 0.36814 0.62643 0.59218 0.0
C584 C 0.40127 0.58401 0.6275 0.0
C585 C 0.37937 0.79046 0.63221 0.0
C586 C 0.37436 0.8811 0.62815 0.0
C587 C 0.38794 0.85884 0.61853 0.0
C588 C 0.39044 0.81431 0.62058 0.0
C589 C 0.36548 0.81238 0.64153 0.0
C590 C 0.36297 0.85701 0.63948 0.0
C591 C 0.38389 0.74433 0.63583 0.0
H592 H 0.37976 0.36214 0.63518 0.0
H593 H 0.37475 0.44022 0.63527 0.0
H594 H 0.32786 0.42416 0.60106 0.0
H595 H 0.33297 0.3464 0.60062 0.0
H596 H 0.39681 0.87589 0.60946 0.0
H597 H 0.40139 0.79866 0.61332 0.0
H598 H 0.35682 0.79533 0.65079 0.0
H599 H 0.35249 0.87283 0.64728 0.0
Dy600 Dy 0.63194 0.45122 0.62514 0.0
Dy601 Dy 0.61555 0.34943 0.63044 0.0
C602 C 0.62412 0.41199 0.66205 0.0
O603 O 0.6558 0.40755 0.61922 0.0
O604 O 0.64596 0.34622 0.6336 0.0
O605 O 0.63999 0.51019 0.63801 0.0
O606 O 0.64221 0.50538 0.60976 0.0
O607 O 0.62415 0.35707 0.60235 0.0
O608 O 0.61995 0.43015 0.59957 0.0
O609 O 0.59089 0.38977 0.62465 0.0
O610 O 0.60185 0.45813 0.63085 0.0
O611 O 0.60071 0.2932 0.62123 0.0
O612 O 0.61316 0.29308 0.64713 0.0
C613 C 0.6588 0.36869 0.62561 0.0
O614 O 0.63741 0.42672 0.65211 0.0
O615 O 0.61137 0.38696 0.6553 0.0
C616 C 0.63798 0.57652 0.622 0.0
C617 C 0.63197 0.66737 0.62087 0.0
C618 C 0.62675 0.64289 0.63564 0.0
C619 C 0.62972 0.59823 0.63621 0.0
C620 C 0.64276 0.60068 0.60707 0.0
C621 C 0.63975 0.64535 0.60647 0.0
C622 C 0.64375 0.53044 0.62345 0.0
C623 C 0.62163 0.3916 0.5926 0.0
C624 C 0.58825 0.43103 0.62772 0.0
C625 C 0.60896 0.22434 0.63347 0.0
C626 C 0.61441 0.1338 0.63025 0.0
C627 C 0.61791 0.16166 0.616 0.0
C628 C 0.61515 0.20639 0.61756 0.0
C629 C 0.60594 0.19674 0.64778 0.0
C630 C 0.60863 0.15222 0.64623 0.0
C631 C 0.60421 0.27078 0.63536 0.0
H632 H 0.62096 0.6584 0.64711 0.0
H633 H 0.62605 0.58098 0.64806 0.0
H634 H 0.64932 0.58516 0.59597 0.0
H635 H 0.6437 0.66268 0.59473 0.0
H636 H 0.62226 0.14881 0.60345 0.0
H637 H 0.61755 0.22675 0.60625 0.0
H638 H 0.60113 0.2096 0.66019 0.0
H639 H 0.60612 0.13218 0.65761 0.0
H640 H 0.1753 0.20173 0.14795 0.0
H641 H 0.20441 0.23982 0.14464 0.0
H642 H 0.21531 0.17028 0.09673 0.0
H643 H 0.18615 0.13092 0.1002 0.0
H644 H 0.24581 0.17672 0.11685 0.0
H645 H 0.21386 0.33747 0.11108 0.0
H646 H 0.20661 0.31102 0.13081 0.0
H647 H 0.20058 0.28844 0.10978 0.0
C648 C 0.18387 0.19435 0.1367 0.0
C649 C 0.17834 0.16353 0.12424 0.0
C650 C 0.20046 0.21649 0.13475 0.0
C651 C 0.21176 0.20894 0.12015 0.0
C652 C 0.20666 0.17703 0.10799 0.0
H653 H 0.30507 0.38562 0.10282 0.0
H654 H 0.27597 0.34646 0.0988 0.0
C655 C 0.19006 0.15443 0.11002 0.0
C656 C 0.22906 0.23392 0.11799 0.0
H657 H 0.24609 0.33641 0.11898 0.0
C658 C 0.24586 0.21164 0.11706 0.0
C659 C 0.22915 0.27953 0.1178 0.0
C660 C 0.21156 0.30547 0.11722 0.0
C661 C 0.26276 0.23369 0.11701 0.0
C662 C 0.26285 0.27918 0.11841 0.0
C663 C 0.24604 0.30153 0.11827 0.0
C664 C 0.28019 0.30386 0.12094 0.0
C665 C 0.28033 0.2079 0.11552 0.0
C666 C 0.29189 0.29396 0.13506 0.0
C667 C 0.30847 0.31597 0.1373 0.0
C668 C 0.3136 0.34903 0.12568 0.0
C669 C 0.30149 0.36037 0.11201 0.0
C670 C 0.28491 0.33789 0.10965 0.0
H671 H 0.27792 0.17697 0.10855 0.0
H672 H 0.2912 0.2261 0.10844 0.0
H673 H 0.28547 0.20014 0.12888 0.0
H674 H 0.28824 0.26892 0.14432 0.0
H675 H 0.31736 0.30681 0.14812 0.0
H676 H 0.81539 0.81711 0.14774 0.0
H677 H 0.78658 0.77805 0.14398 0.0
H678 H 0.77522 0.84973 0.09668 0.0
H679 H 0.80411 0.89002 0.1006 0.0
H680 H 0.74468 0.84069 0.11682 0.0
H681 H 0.77805 0.68194 0.10933 0.0
H682 H 0.78515 0.70762 0.1293 0.0
H683 H 0.79086 0.7317 0.10848 0.0
C684 C 0.80678 0.82477 0.13654 0.0
C685 C 0.81212 0.85644 0.12437 0.0
C686 C 0.79036 0.80208 0.13433 0.0
C687 C 0.77903 0.80994 0.11975 0.0
C688 C 0.78391 0.84273 0.10791 0.0
H689 H 0.68673 0.63052 0.10112 0.0
H690 H 0.71551 0.67104 0.09713 0.0
C691 C 0.80035 0.86586 0.1102 0.0
C692 C 0.76195 0.78428 0.1173 0.0
H693 H 0.74584 0.68093 0.1173 0.0
C694 C 0.74495 0.80578 0.11666 0.0
C695 C 0.76227 0.7387 0.11664 0.0
C696 C 0.78009 0.71369 0.11577 0.0
C697 C 0.72825 0.7829 0.11646 0.0
C698 C 0.72857 0.73734 0.1174 0.0
C699 C 0.74557 0.71584 0.11693 0.0
C700 C 0.71149 0.71171 0.1199 0.0
C701 C 0.71043 0.80787 0.11539 0.0
C702 C 0.70006 0.72003 0.13434 0.0
C703 C 0.68369 0.69718 0.1366 0.0
C704 C 0.6785 0.66491 0.12462 0.0
C705 C 0.69037 0.65513 0.11059 0.0
C706 C 0.70675 0.67839 0.10824 0.0
H707 H 0.71248 0.83938 0.10877 0.0
H708 H 0.69966 0.78959 0.10817 0.0
H709 H 0.70535 0.81443 0.12886 0.0
H710 H 0.70373 0.7445 0.14385 0.0
H711 H 0.67499 0.70518 0.14769 0.0
H712 H 0.31544 0.70223 0.34919 0.0
H713 H 0.2867 0.74138 0.3533 0.0
H714 H 0.27615 0.67003 0.40083 0.0
H715 H 0.30495 0.62969 0.39658 0.0
H716 H 0.2454 0.67856 0.38104 0.0
H717 H 0.27857 0.83763 0.38799 0.0
H718 H 0.28548 0.81193 0.36798 0.0
H719 H 0.29148 0.78798 0.38877 0.0
C720 C 0.30702 0.69466 0.36051 0.0
C721 C 0.31254 0.66308 0.37264 0.0
C722 C 0.29065 0.7174 0.36292 0.0
C723 C 0.27959 0.70963 0.37767 0.0
C724 C 0.28465 0.67694 0.38949 0.0
H725 H 0.1869 0.88817 0.39584 0.0
H726 H 0.21583 0.84831 0.40017 0.0
C727 C 0.30103 0.65377 0.38699 0.0
C728 C 0.26254 0.73515 0.3803 0.0
H729 H 0.24627 0.83832 0.38011 0.0
C730 C 0.2456 0.71348 0.38112 0.0
C731 C 0.2628 0.78072 0.38086 0.0
C732 C 0.28059 0.80588 0.38156 0.0
C733 C 0.22888 0.7362 0.38135 0.0
C734 C 0.22913 0.78172 0.38025 0.0
C735 C 0.24608 0.80343 0.3806 0.0
C736 C 0.21203 0.80702 0.37755 0.0
C737 C 0.21111 0.7111 0.38258 0.0
C738 C 0.20071 0.79812 0.36306 0.0
C739 C 0.18427 0.82055 0.36062 0.0
C740 C 0.17892 0.85296 0.37245 0.0
C741 C 0.19069 0.8634 0.3865 0.0
C742 C 0.20714 0.84053 0.38904 0.0
H743 H 0.21324 0.67982 0.38936 0.0
H744 H 0.20033 0.7295 0.38971 0.0
H745 H 0.206 0.70406 0.36914 0.0
H746 H 0.20452 0.77349 0.35367 0.0
H747 H 0.17565 0.81212 0.34951 0.0
H748 H 0.79858 0.11452 0.37529 0.0
H749 H 0.76873 0.15212 0.37689 0.0
H750 H 0.79692 0.27436 0.37596 0.0
H751 H 0.82642 0.23749 0.37386 0.0
H752 H 0.75416 0.21082 0.40042 0.0
H753 H 0.76201 0.28662 0.33497 0.0
H754 H 0.77683 0.24373 0.34245 0.0
H755 H 0.78093 0.29832 0.34937 0.0
C756 C 0.79833 0.14938 0.37546 0.0
C757 C 0.81477 0.17305 0.37408 0.0
C758 C 0.78133 0.1708 0.37637 0.0
C759 C 0.78062 0.21605 0.37605 0.0
C760 C 0.7971 0.2395 0.37562 0.0
H761 H 0.69191 0.40683 0.37855 0.0
H762 H 0.72198 0.37071 0.38129 0.0
C763 C 0.81396 0.21829 0.37448 0.0
C764 C 0.76275 0.23918 0.37596 0.0
H765 H 0.73766 0.31316 0.35287 0.0
C766 C 0.7505 0.23302 0.38999 0.0
C767 C 0.75801 0.26818 0.36231 0.0
C768 C 0.77005 0.27432 0.34634 0.0
C769 C 0.73375 0.2556 0.39086 0.0
C770 C 0.72919 0.2849 0.37734 0.0
C771 C 0.7414 0.29113 0.36334 0.0
C772 C 0.71112 0.30681 0.3767 0.0
C773 C 0.72104 0.24822 0.40623 0.0
C774 C 0.69526 0.28277 0.37308 0.0
C775 C 0.67826 0.30315 0.37133 0.0
C776 C 0.67673 0.34812 0.3732 0.0
C777 C 0.69264 0.3722 0.37705 0.0
C778 C 0.70978 0.35166 0.37863 0.0
H779 H 0.72817 0.23178 0.41727 0.0
H780 H 0.7153 0.27923 0.41101 0.0
H781 H 0.70932 0.22773 0.40197 0.0
H782 H 0.6961 0.2482 0.37132 0.0
H783 H 0.66629 0.28348 0.3685 0.0
H784 H 0.68657 0.63009 0.89773 0.0
H785 H 0.71533 0.67092 0.90158 0.0
H786 H 0.70537 0.73665 0.8526 0.0
H787 H 0.67671 0.69701 0.84885 0.0
H788 H 0.74653 0.67778 0.88199 0.0
H789 H 0.71276 0.8369 0.88563 0.0
H790 H 0.70001 0.78715 0.88717 0.0
H791 H 0.70622 0.80877 0.86603 0.0
C792 C 0.69062 0.65302 0.88773 0.0
C793 C 0.67926 0.6606 0.87307 0.0
C794 C 0.70699 0.67648 0.88999 0.0
C795 C 0.71221 0.70781 0.87763 0.0
C796 C 0.70132 0.71379 0.86261 0.0
H797 H 0.81676 0.81008 0.8501 0.0
H798 H 0.78796 0.77116 0.8541 0.0
C799 C 0.68498 0.69074 0.86042 0.0
C800 C 0.72921 0.73389 0.88004 0.0
H801 H 0.74519 0.83731 0.87851 0.0
C802 C 0.74621 0.71267 0.88149 0.0
C803 C 0.72882 0.7795 0.87984 0.0
C804 C 0.71094 0.8044 0.87979 0.0
C805 C 0.76288 0.73572 0.88166 0.0
C806 C 0.76253 0.78113 0.87988 0.0
C807 C 0.74549 0.80249 0.87954 0.0
C808 C 0.77966 0.80659 0.87725 0.0
C809 C 0.78069 0.71105 0.8836 0.0
C810 C 0.78414 0.84123 0.88835 0.0
C811 C 0.80058 0.86426 0.8859 0.0
C812 C 0.81277 0.85292 0.87231 0.0
C813 C 0.80783 0.81931 0.86085 0.0
C814 C 0.79142 0.79669 0.86321 0.0
H815 H 0.77852 0.6803 0.89076 0.0
H816 H 0.78612 0.70302 0.87038 0.0
H817 H 0.79125 0.73022 0.89071 0.0
H818 H 0.77513 0.84982 0.89913 0.0
H819 H 0.80401 0.88994 0.89495 0.0
H820 H 0.31493 0.32509 0.84954 0.0
H821 H 0.28592 0.28656 0.85268 0.0
H822 H 0.2761 0.35037 0.90211 0.0
H823 H 0.30519 0.39007 0.89885 0.0
H824 H 0.27647 0.22993 0.87834 0.0
H825 H 0.22723 0.36713 0.87683 0.0
H826 H 0.25108 0.37282 0.87053 0.0
H827 H 0.24489 0.37039 0.89334 0.0
C828 C 0.30654 0.33141 0.86102 0.0
C829 C 0.31237 0.36077 0.87394 0.0
C830 C 0.28996 0.30918 0.86281 0.0
C831 C 0.27878 0.31558 0.87759 0.0
C832 C 0.28435 0.34539 0.89044 0.0
H833 H 0.18688 0.1333 0.89626 0.0
H834 H 0.21598 0.17273 0.89999 0.0
C835 C 0.30098 0.36806 0.88858 0.0
C836 C 0.2616 0.28988 0.87946 0.0
H837 H 0.21466 0.29787 0.88055 0.0
C838 C 0.26294 0.24475 0.87895 0.0
C839 C 0.24397 0.30928 0.88019 0.0
C840 C 0.24159 0.35755 0.88011 0.0
C841 C 0.24716 0.21853 0.87856 0.0
C842 C 0.22953 0.23794 0.8791 0.0
C843 C 0.2282 0.28302 0.8802 0.0
C844 C 0.21227 0.21265 0.87694 0.0
C845 C 0.24952 0.17046 0.87674 0.0
C846 C 0.20048 0.22209 0.86285 0.0
C847 C 0.18388 0.20003 0.8608 0.0
C848 C 0.17864 0.1678 0.87277 0.0
C849 C 0.19062 0.15761 0.88671 0.0
C850 C 0.20725 0.1801 0.88884 0.0
H851 H 0.26372 0.16167 0.8726 0.0
H852 H 0.24681 0.15491 0.88959 0.0
H853 H 0.23962 0.15716 0.86702 0.0
H854 H 0.20408 0.24688 0.85345 0.0
H855 H 0.17504 0.20864 0.84988 0.0
H856 H 0.66729 0.2842 0.63034 0.0
H857 H 0.69726 0.24953 0.62762 0.0
H858 H 0.72191 0.37095 0.61357 0.0
H859 H 0.69171 0.40643 0.61618 0.0
H860 H 0.72331 0.25338 0.59564 0.0
H861 H 0.75006 0.31876 0.65892 0.0
H862 H 0.72566 0.31426 0.6545 0.0
H863 H 0.73896 0.35518 0.64381 0.0
C864 C 0.67903 0.30378 0.62669 0.0
C865 C 0.67713 0.34828 0.62364 0.0
C866 C 0.69613 0.28374 0.62504 0.0
C867 C 0.7117 0.30773 0.62045 0.0
C868 C 0.70995 0.35203 0.61717 0.0
H869 H 0.82655 0.23707 0.62391 0.0
H870 H 0.79716 0.27398 0.62097 0.0
C871 C 0.69274 0.37219 0.61867 0.0
C872 C 0.72983 0.28616 0.61976 0.0
H873 H 0.76933 0.27181 0.64328 0.0
C874 C 0.73349 0.25752 0.60595 0.0
C875 C 0.74289 0.29161 0.63331 0.0
C876 C 0.7393 0.32142 0.64857 0.0
C877 C 0.75012 0.23434 0.60525 0.0
C878 C 0.7631 0.23917 0.619 0.0
C879 C 0.75937 0.26805 0.63276 0.0
C880 C 0.78092 0.2157 0.61931 0.0
C881 C 0.75373 0.20561 0.58966 0.0
C882 C 0.78164 0.17043 0.61918 0.0
C883 C 0.7986 0.149 0.62066 0.0
C884 C 0.81497 0.17263 0.6227 0.0
C885 C 0.81415 0.21787 0.6226 0.0
C886 C 0.79735 0.2391 0.62087 0.0
H887 H 0.7451 0.21483 0.57819 0.0
H888 H 0.76846 0.20679 0.58571 0.0
H889 H 0.75028 0.17191 0.59318 0.0
H890 H 0.76909 0.15166 0.61838 0.0
H891 H 0.79883 0.11415 0.62077 0.0
H892 H 0.18666 0.88966 0.59939 0.0
H893 H 0.21536 0.84919 0.59471 0.0
H894 H 0.20507 0.77651 0.64196 0.0
H895 H 0.17643 0.81576 0.64648 0.0
H896 H 0.24627 0.83967 0.61426 0.0
H897 H 0.21272 0.68126 0.6067 0.0
H898 H 0.1999 0.73108 0.60621 0.0
H899 H 0.2059 0.70639 0.62686 0.0
C900 C 0.19062 0.86525 0.60882 0.0
C901 C 0.17921 0.85558 0.62319 0.0
C902 C 0.20694 0.84202 0.60608 0.0
C903 C 0.21203 0.80891 0.61769 0.0
C904 C 0.20108 0.8008 0.63248 0.0
H905 H 0.31525 0.70503 0.64618 0.0
H906 H 0.28655 0.74412 0.64168 0.0
C907 C 0.18478 0.82359 0.63513 0.0
C908 C 0.229 0.78329 0.61483 0.0
H909 H 0.24501 0.67991 0.61476 0.0
C910 C 0.24598 0.80476 0.61406 0.0
C911 C 0.22862 0.73773 0.6141 0.0
C912 C 0.21077 0.71283 0.6133 0.0
C913 C 0.26265 0.78183 0.61381 0.0
C914 C 0.26228 0.7363 0.61483 0.0
C915 C 0.24529 0.71481 0.61435 0.0
C916 C 0.27929 0.71079 0.6177 0.0
C917 C 0.28048 0.8067 0.61271 0.0
C918 C 0.28423 0.67724 0.60625 0.0
C919 C 0.30057 0.6541 0.60897 0.0
C920 C 0.31217 0.66431 0.62318 0.0
C921 C 0.30676 0.69676 0.63497 0.0
C922 C 0.29042 0.71946 0.63233 0.0
H923 H 0.27846 0.83802 0.60593 0.0
H924 H 0.28552 0.81365 0.62618 0.0
H925 H 0.29127 0.78818 0.60563 0.0
H926 H 0.27567 0.66964 0.595 0.0
H927 H 0.30442 0.62933 0.59966 0.0
H928 H 0.14932 0.96937 0.31747 0.0
H929 H 0.14593 1.00043 0.28826 0.0
H930 H 0.09447 0.93298 0.28142 0.0
H931 H 0.09783 0.90112 0.31074 0.0
H932 H 0.11715 0.92875 0.2521 0.0
H933 H 0.11046 0.09722 0.27495 0.0
H934 H 0.13072 0.07122 0.28338 0.0
H935 H 0.10828 0.05172 0.28956 0.0
C936 C 0.13729 0.9609 0.30978 0.0
C937 C 0.1238 0.93285 0.31651 0.0
C938 C 0.1353 0.97904 0.29312 0.0
C939 C 0.11974 0.96986 0.28284 0.0
C940 C 0.1065 0.94084 0.28923 0.0
H941 H 0.09716 0.11471 0.18572 0.0
H942 H 0.09419 0.08369 0.21524 0.0
C943 C 0.10848 0.92256 0.30596 0.0
C944 C 0.11762 0.99005 0.26529 0.0
H945 H 0.11733 0.08742 0.2444 0.0
C946 C 0.11697 0.96343 0.25042 0.0
C947 C 0.11703 0.03531 0.26311 0.0
C948 C 0.11646 0.06554 0.27861 0.0
C949 C 0.11666 0.98086 0.23341 0.0
C950 C 0.11735 0.02611 0.23122 0.0
C951 C 0.11706 0.05275 0.24609 0.0
C952 C 0.11928 0.04616 0.21363 0.0
C953 C 0.1157 0.95061 0.21793 0.0
C954 C 0.13463 0.03639 0.20318 0.0
C955 C 0.13636 0.05397 0.1864 0.0
C956 C 0.12286 0.08211 0.17973 0.0
C957 C 0.1078 0.09316 0.19046 0.0
C958 C 0.10605 0.07537 0.2073 0.0
H959 H 0.1096 0.91911 0.22167 0.0
H960 H 0.10742 0.96461 0.20707 0.0
H961 H 0.12986 0.94451 0.213 0.0
H962 H 0.14526 0.01488 0.20798 0.0
H963 H 0.14824 0.04501 0.1786 0.0
H964 H 0.89428 0.12149 0.31059 0.0
H965 H 0.89666 0.08993 0.28113 0.0
H966 H 0.84399 0.02797 0.28819 0.0
H967 H 0.84155 0.05882 0.31752 0.0
H968 H 0.87155 0.97239 0.27593 0.0
H969 H 0.86794 0.12271 0.23639 0.0
H970 H 0.88527 0.1216 0.25329 0.0
H971 H 0.86131 0.12083 0.25922 0.0
C972 C 0.8831 0.1016 0.30578 0.0
C973 C 0.86771 0.09283 0.31643 0.0
C974 C 0.88448 0.0836 0.28893 0.0
C975 C 0.87045 0.05676 0.28243 0.0
C976 C 0.85499 0.04852 0.29295 0.0
H977 H 0.84141 0.97403 0.17907 0.0
H978 H 0.84415 1.00455 0.20842 0.0
C979 C 0.8536 0.06639 0.30972 0.0
C980 C 0.87187 0.03618 0.26488 0.0
H981 H 0.87209 0.05772 0.22091 0.0
C982 C 0.8718 0.991 0.26388 0.0
C983 C 0.87206 0.06055 0.2492 0.0
C984 C 0.87151 0.10911 0.24946 0.0
C985 C 0.8716 0.96954 0.24763 0.0
C986 C 0.87172 0.99392 0.23195 0.0
C987 C 0.87211 0.03909 0.23295 0.0
C988 C 0.8701 0.97347 0.21437 0.0
C989 C 0.87057 0.92103 0.24738 0.0
C990 C 0.88374 0.94544 0.20796 0.0
C991 C 0.88217 0.92758 0.1911 0.0
C992 C 0.86699 0.93773 0.18034 0.0
C993 C 0.85329 0.96542 0.18695 0.0
C994 C 0.85485 0.98309 0.20374 0.0
H995 H 0.86673 0.90767 0.26041 0.0
H996 H 0.86036 0.90984 0.2375 0.0
H997 H 0.88424 0.90776 0.24372 0.0
H998 H 0.89577 0.93806 0.21584 0.0
H999 H 0.89305 0.90672 0.18636 0.0
H1000 H 0.84142 0.05987 0.68021 0.0
H1001 H 0.84388 0.02853 0.70945 0.0
H1002 H 0.89711 0.08805 0.71628 0.0
H1003 H 0.8947 0.12012 0.68691 0.0
H1004 H 0.87106 0.97151 0.72123 0.0
H1005 H 0.86936 0.12093 0.76145 0.0
H1006 H 0.86245 0.12001 0.73867 0.0
H1007 H 0.88647 0.11934 0.7444 0.0
C1008 C 0.85359 0.06681 0.68795 0.0
C1009 C 0.86785 0.09269 0.6812 0.0
C1010 C 0.855 0.04867 0.70467 0.0
C1011 C 0.87063 0.05605 0.71509 0.0
C1012 C 0.8848 0.0824 0.70856 0.0
H1013 H 0.89322 0.90308 0.81042 0.0
H1014 H 0.89594 0.93534 0.78111 0.0
C1015 C 0.8834 0.10069 0.69177 0.0
C1016 C 0.87209 0.03497 0.73255 0.0
H1017 H 0.87303 0.05532 0.77662 0.0
C1018 C 0.87163 0.98979 0.73335 0.0
C1019 C 0.87271 0.05892 0.74834 0.0
C1020 C 0.87264 0.10749 0.7483 0.0
C1021 C 0.87144 0.96791 0.74951 0.0
C1022 C 0.87196 0.99186 0.76529 0.0
C1023 C 0.87274 0.03702 0.76449 0.0
C1024 C 0.87035 0.97098 0.78278 0.0
C1025 C 0.86999 0.91946 0.74957 0.0
C1026 C 0.85513 0.98039 0.79345 0.0
C1027 C 0.85355 0.96212 0.81012 0.0
C1028 C 0.86721 0.93408 0.81659 0.0
C1029 C 0.88238 0.92422 0.8058 0.0
C1030 C 0.88395 0.94261 0.78904 0.0
H1031 H 0.86608 0.90654 0.73648 0.0
H1032 H 0.88353 0.90547 0.75327 0.0
H1033 H 0.85966 0.90858 0.75937 0.0
H1034 H 0.84447 1.00212 0.78888 0.0
H1035 H 0.84169 0.97057 0.81804 0.0
H1036 H 0.14996 0.05137 0.81789 0.0
H1037 H 0.14768 0.02176 0.78835 0.0
H1038 H 0.09576 0.08692 0.78084 0.0
H1039 H 0.09803 0.1174 0.81049 0.0
H1040 H 0.1204 0.96821 0.77536 0.0
H1041 H 0.12478 0.11969 0.7367 0.0
H1042 H 0.13088 0.11713 0.75966 0.0
H1043 H 0.10707 0.11838 0.75317 0.0
C1044 C 0.13811 0.05987 0.80995 0.0
C1045 C 0.12419 0.08694 0.81657 0.0
C1046 C 0.13681 0.04274 0.79305 0.0
C1047 C 0.12162 0.05227 0.78234 0.0
C1048 C 0.10776 0.07966 0.78878 0.0
H1049 H 0.09896 0.90503 0.68575 0.0
H1050 H 0.09636 0.936 0.71527 0.0
C1051 C 0.10906 0.09701 0.80574 0.0
C1052 C 0.12027 0.03236 0.76466 0.0
H1053 H 0.1203 0.05533 0.72081 0.0
C1054 C 0.12027 0.98723 0.76342 0.0
C1055 C 0.12023 0.05726 0.74911 0.0
C1056 C 0.12089 0.1058 0.74961 0.0
C1057 C 0.12054 0.9663 0.74706 0.0
C1058 C 0.12053 0.99119 0.73152 0.0
C1059 C 0.12022 0.03632 0.73275 0.0
C1060 C 0.12205 0.97126 0.71386 0.0
C1061 C 0.12155 0.91779 0.74658 0.0
C1062 C 0.13726 0.98101 0.70322 0.0
C1063 C 0.13875 0.96357 0.68639 0.0
C1064 C 0.12502 0.93598 0.67976 0.0
C1065 C 0.10986 0.92581 0.69051 0.0
C1066 C 0.10836 0.94344 0.70739 0.0
H1067 H 0.12549 0.90405 0.75952 0.0
H1068 H 0.10783 0.90469 0.74295 0.0
H1069 H 0.13166 0.9068 0.73659 0.0
H1070 H 0.148 1.00235 0.70795 0.0
H1071 H 0.1506 0.97221 0.6785 0.0
H1072 H 0.596 0.39961 0.31069 0.0
H1073 H 0.59326 0.43119 0.28126 0.0
H1074 H 0.64674 0.49003 0.28722 0.0
H1075 H 0.64955 0.45915 0.31652 0.0
H1076 H 0.61938 0.5472 0.27557 0.0
H1077 H 0.62057 0.39675 0.23594 0.0
H1078 H 0.6037 0.39889 0.25321 0.0
H1079 H 0.6278 0.39825 0.25863 0.0
C1080 C 0.60728 0.4188 0.30563 0.0
C1081 C 0.62301 0.42672 0.31596 0.0
C1082 C 0.60569 0.43681 0.28881 0.0
C1083 C 0.61984 0.46281 0.28202 0.0
C1084 C 0.63564 0.47015 0.29221 0.0
H1085 H 0.64852 0.54436 0.17872 0.0
H1086 H 0.64561 0.51382 0.20803 0.0
C1087 C 0.63724 0.45227 0.30896 0.0
C1088 C 0.61821 0.48348 0.2645 0.0
H1089 H 0.61701 0.46201 0.22054 0.0
C1090 C 0.61872 0.52863 0.26352 0.0
C1091 C 0.61747 0.45913 0.24883 0.0
C1092 C 0.61749 0.41056 0.24908 0.0
C1093 C 0.61886 0.5501 0.24727 0.0
C1094 C 0.61826 0.52574 0.2316 0.0
C1095 C 0.61738 0.48061 0.23259 0.0
C1096 C 0.61995 0.54609 0.21402 0.0
C1097 C 0.6204 0.59853 0.24701 0.0
C1098 C 0.60653 0.57477 0.20765 0.0
C1099 C 0.60819 0.59263 0.19081 0.0
C1100 C 0.62325 0.58184 0.18003 0.0
C1101 C 0.63673 0.55347 0.1866 0.0
C1102 C 0.63507 0.5358 0.20337 0.0
H1103 H 0.62442 0.61172 0.26003 0.0
H1104 H 0.6307 0.60909 0.23712 0.0
H1105 H 0.60687 0.61257 0.24333 0.0
H1106 H 0.5946 0.58271 0.21556 0.0
H1107 H 0.59748 0.61405 0.1861 0.0
H1108 H 0.34325 0.54511 0.31718 0.0
H1109 H 0.34704 0.51479 0.28793 0.0
H1110 H 0.39814 0.58405 0.28175 0.0
H1111 H 0.39439 0.61516 0.31118 0.0
H1112 H 0.37518 0.58697 0.25197 0.0
H1113 H 0.38387 0.41954 0.27549 0.0
H1114 H 0.36342 0.44462 0.28394 0.0
H1115 H 0.38571 0.46555 0.28989 0.0
C1116 C 0.3553 0.55415 0.30964 0.0
C1117 C 0.3686 0.58238 0.3166 0.0
C1118 C 0.35749 0.53649 0.29294 0.0
C1119 C 0.37309 0.54632 0.28286 0.0
C1120 C 0.3861 0.5757 0.28943 0.0
H1121 H 0.39542 0.39949 0.1863 0.0
H1122 H 0.39897 0.43238 0.21541 0.0
C1123 C 0.3839 0.59355 0.30621 0.0
C1124 C 0.37551 0.52599 0.2654 0.0
H1125 H 0.37647 0.42812 0.24496 0.0
C1126 C 0.37571 0.55228 0.25043 0.0
C1127 C 0.37655 0.48074 0.26342 0.0
C1128 C 0.37757 0.45097 0.27905 0.0
C1129 C 0.37593 0.53439 0.23349 0.0
C1130 C 0.37562 0.48907 0.23152 0.0
C1131 C 0.37644 0.46284 0.24649 0.0
C1132 C 0.37345 0.46837 0.2141 0.0
C1133 C 0.3763 0.56421 0.21786 0.0
C1134 C 0.35769 0.47671 0.20397 0.0
C1135 C 0.3556 0.45797 0.18744 0.0
C1136 C 0.36918 0.43016 0.1807 0.0
C1137 C 0.38471 0.42073 0.1911 0.0
C1138 C 0.38679 0.4396 0.2077 0.0
H1139 H 0.38215 0.59614 0.22136 0.0
H1140 H 0.38453 0.55031 0.20695 0.0
H1141 H 0.362 0.56936 0.2131 0.0
H1142 H 0.34699 0.49789 0.20885 0.0
H1143 H 0.3434 0.46578 0.17987 0.0
H1144 H 0.35354 0.50469 0.82391 0.0
H1145 H 0.35474 0.53086 0.79387 0.0
H1146 H 0.38364 0.41597 0.77798 0.0
H1147 H 0.3829 0.38961 0.80841 0.0
H1148 H 0.39832 0.48971 0.76321 0.0
H1149 H 0.32259 0.48729 0.75428 0.0
H1150 H 0.32935 0.51829 0.77308 0.0
H1151 H 0.33383 0.46127 0.77257 0.0
C1152 C 0.36009 0.48466 0.81407 0.0
C1153 C 0.36791 0.44466 0.81855 0.0
C1154 C 0.36071 0.49974 0.79685 0.0
C1155 C 0.36888 0.47497 0.7836 0.0
C1156 C 0.37711 0.43544 0.78801 0.0
H1157 H 0.348 0.52775 0.67382 0.0
H1158 H 0.35034 0.4967 0.70304 0.0
C1159 C 0.37665 0.42038 0.80537 0.0
C1160 C 0.36871 0.49075 0.76521 0.0
H1161 H 0.33977 0.52735 0.73317 0.0
C1162 C 0.38553 0.4976 0.75654 0.0
C1163 C 0.352 0.50047 0.75644 0.0
C1164 C 0.33343 0.49103 0.7645 0.0
C1165 C 0.3861 0.51492 0.73948 0.0
C1166 C 0.3694 0.52669 0.73108 0.0
C1167 C 0.3526 0.51893 0.73966 0.0
C1168 C 0.36881 0.54552 0.71314 0.0
C1169 C 0.40455 0.51965 0.73055 0.0
C1170 C 0.37835 0.58362 0.70901 0.0
C1171 C 0.37721 0.60134 0.69211 0.0
C1172 C 0.36618 0.58174 0.67919 0.0
C1173 C 0.35649 0.54397 0.68348 0.0
C1174 C 0.35785 0.52603 0.7002 0.0
H1175 H 0.41506 0.49797 0.73643 0.0
H1176 H 0.40351 0.51252 0.71629 0.0
H1177 H 0.40948 0.55324 0.73213 0.0
H1178 H 0.3865 0.59994 0.71889 0.0
H1179 H 0.38479 0.63053 0.68922 0.0
H1180 H 0.59829 0.61296 0.81085 0.0
H1181 H 0.5949 0.58211 0.78133 0.0
H1182 H 0.64394 0.50611 0.78944 0.0
H1183 H 0.6473 0.53602 0.81881 0.0
H1184 H 0.61828 0.58249 0.75257 0.0
H1185 H 0.60638 0.4154 0.77502 0.0
H1186 H 0.60516 0.46102 0.78967 0.0
H1187 H 0.62713 0.43791 0.78399 0.0
C1188 C 0.60839 0.58983 0.80631 0.0
C1189 C 0.62298 0.57675 0.81728 0.0
C1190 C 0.6064 0.57214 0.78946 0.0
C1191 C 0.61891 0.54101 0.78336 0.0
C1192 C 0.63381 0.52913 0.79406 0.0
H1193 H 0.64891 0.46152 0.6799 0.0
H1194 H 0.64568 0.49268 0.70911 0.0
C1195 C 0.63578 0.54658 0.81084 0.0
C1196 C 0.61676 0.52124 0.76571 0.0
H1197 H 0.61479 0.42407 0.74474 0.0
C1198 C 0.61729 0.5479 0.75085 0.0
C1199 C 0.61511 0.47613 0.76346 0.0
C1200 C 0.61321 0.44598 0.77889 0.0
C1201 C 0.61716 0.53052 0.73382 0.0
C1202 C 0.61683 0.48525 0.73161 0.0
C1203 C 0.61534 0.45872 0.74644 0.0
C1204 C 0.61884 0.46487 0.71407 0.0
C1205 C 0.61747 0.56084 0.71834 0.0
C1206 C 0.60517 0.43727 0.70742 0.0
C1207 C 0.60705 0.41892 0.6907 0.0
C1208 C 0.6227 0.42771 0.6804 0.0
C1209 C 0.63661 0.45425 0.68739 0.0
C1210 C 0.63473 0.47245 0.70405 0.0
H1211 H 0.61202 0.5931 0.72192 0.0
H1212 H 0.63192 0.56502 0.71385 0.0
H1213 H 0.60924 0.54795 0.70722 0.0
H1214 H 0.59288 0.43063 0.71502 0.0
H1215 H 0.59608 0.39867 0.6857 0.0
H1216 H 0.11527 0.07126 0.92937 0.0
H1217 H 0.11409 0.08098 0.96107 0.0
H1218 H 0.12676 0.21573 0.95494 0.0
H1219 H 0.12813 0.20633 0.92297 0.0
H1220 H 0.14804 0.17287 0.981 0.0
H1221 H 0.07345 0.14083 0.9895 0.0
H1222 H 0.08507 0.0998 0.97714 0.0
H1223 H 0.08349 0.15352 0.96843 0.0
C1224 C 0.11773 0.1031 0.93467 0.0
C1225 C 0.12173 0.13808 0.92357 0.0
C1226 C 0.11693 0.10862 0.95283 0.0
C1227 C 0.12002 0.14921 0.96034 0.0
C1228 C 0.12418 0.1842 0.94937 0.0
H1229 H 0.12794 0.20583 0.07387 0.0
H1230 H 0.12693 0.21605 0.04193 0.0
C1231 C 0.12494 0.17876 0.93112 0.0
C1232 C 0.11949 0.15426 0.97969 0.0
H1233 H 0.09213 0.13631 0.01539 0.0
C1234 C 0.13576 0.16563 0.98855 0.0
C1235 C 0.10342 0.14484 0.98947 0.0
C1236 C 0.08531 0.13447 0.98065 0.0
C1237 C 0.13665 0.16551 0.00699 0.0
C1238 C 0.12076 0.15438 0.01675 0.0
C1239 C 0.10431 0.1447 0.00787 0.0
C1240 C 0.12124 0.14917 0.0361 0.0
C1241 C 0.15479 0.17513 0.01588 0.0
C1242 C 0.11803 0.10843 0.04339 0.0
C1243 C 0.11851 0.10252 0.06154 0.0
C1244 C 0.12214 0.13732 0.07286 0.0
C1245 C 0.12517 0.17832 0.06554 0.0
C1246 C 0.1247 0.18419 0.04729 0.0
H1247 H 0.16646 0.17553 0.00644 0.0
H1248 H 0.15402 0.2072 0.02226 0.0
H1249 H 0.15774 0.15092 0.02624 0.0
H1250 H 0.1153 0.081 0.03498 0.0
H1251 H 0.11608 0.07049 0.06665 0.0
H1252 H 0.86376 0.81889 0.92334 0.0
H1253 H 0.86281 0.81171 0.95541 0.0
H1254 H 0.87262 0.94793 0.96083 0.0
H1255 H 0.87345 0.95559 0.92899 0.0
H1256 H 0.88993 0.83415 0.98128 0.0
H1257 H 0.82535 0.92741 0.98958 0.0
H1258 H 0.83259 0.90612 0.96862 0.0
H1259 H 0.84255 0.95508 0.97694 0.0
C1260 C 0.86573 0.84732 0.93136 0.0
C1261 C 0.86854 0.88788 0.92355 0.0
C1262 C 0.8652 0.84313 0.94967 0.0
C1263 C 0.86733 0.87941 0.96047 0.0
C1264 C 0.87057 0.91966 0.95273 0.0
H1265 H 0.87332 0.95477 0.06764 0.0
H1266 H 0.87302 0.94638 0.03585 0.0
C1267 C 0.87113 0.9239 0.93448 0.0
C1268 C 0.86622 0.87567 0.97986 0.0
H1269 H 0.84318 0.91512 0.01547 0.0
C1270 C 0.87958 0.85132 0.98879 0.0
C1271 C 0.85262 0.89795 0.98959 0.0
C1272 C 0.83735 0.92279 0.98071 0.0
C1273 C 0.88026 0.85048 0.00726 0.0
C1274 C 0.86707 0.87413 0.01696 0.0
C1275 C 0.85333 0.8972 0.008 0.0
C1276 C 0.86789 0.87782 0.03637 0.0
C1277 C 0.89552 0.82589 0.01625 0.0
C1278 C 0.8651 0.84195 0.04727 0.0
C1279 C 0.86526 0.8466 0.06559 0.0
C1280 C 0.86816 0.88726 0.07328 0.0
C1281 C 0.87106 0.92295 0.06225 0.0
C1282 C 0.87087 0.91827 0.04402 0.0
H1283 H 0.90646 0.81584 0.0069 0.0
H1284 H 0.90187 0.84568 0.02678 0.0
H1285 H 0.88971 0.79653 0.02242 0.0
H1286 H 0.8625 0.81054 0.04162 0.0
H1287 H 0.86292 0.81847 0.07369 0.0
H1288 H 0.12819 0.81819 0.4233 0.0
H1289 H 0.12676 0.81035 0.45531 0.0
H1290 H 0.1141 0.9454 0.46036 0.0
H1291 H 0.11532 0.95356 0.42856 0.0
H1292 H 0.14803 0.85374 0.4809 0.0
H1293 H 0.07356 0.88748 0.48942 0.0
H1294 H 0.08351 0.87397 0.4684 0.0
H1295 H 0.0853 0.9279 0.47685 0.0
C1296 C 0.12498 0.84617 0.43122 0.0
C1297 C 0.12179 0.88648 0.42332 0.0
C1298 C 0.12419 0.84162 0.4495 0.0
C1299 C 0.12003 0.87714 0.46018 0.0
C1300 C 0.11694 0.91737 0.45235 0.0
H1301 H 0.11617 0.9545 0.56731 0.0
H1302 H 0.1153 0.9456 0.53551 0.0
C1303 C 0.11776 0.92199 0.43413 0.0
C1304 C 0.11954 0.87293 0.47957 0.0
H1305 H 0.09226 0.89166 0.51528 0.0
C1306 C 0.13578 0.86137 0.48845 0.0
C1307 C 0.10352 0.88283 0.48935 0.0
C1308 C 0.08543 0.89334 0.48053 0.0
C1309 C 0.13667 0.86157 0.50689 0.0
C1310 C 0.12082 0.87299 0.51665 0.0
C1311 C 0.10442 0.8831 0.50776 0.0
C1312 C 0.12123 0.87737 0.53604 0.0
C1313 C 0.15478 0.8515 0.51576 0.0
C1314 C 0.12466 0.84179 0.54693 0.0
C1315 C 0.12519 0.84674 0.56521 0.0
C1316 C 0.12223 0.88738 0.57289 0.0
C1317 C 0.11856 0.92275 0.56189 0.0
C1318 C 0.11803 0.91775 0.54368 0.0
H1319 H 0.16649 0.85165 0.50636 0.0
H1320 H 0.15769 0.87511 0.52636 0.0
H1321 H 0.15401 0.81906 0.52181 0.0
H1322 H 0.12687 0.81019 0.5413 0.0
H1323 H 0.12798 0.81878 0.57328 0.0
H1324 H 0.86688 0.20079 0.57318 0.0
H1325 H 0.86645 0.20587 0.54105 0.0
H1326 H 0.87408 0.06855 0.53725 0.0
H1327 H 0.87436 0.06297 0.56918 0.0
H1328 H 0.89344 0.18001 0.51603 0.0
H1329 H 0.82787 0.09073 0.50732 0.0
H1330 H 0.83506 0.11232 0.52825 0.0
H1331 H 0.84459 0.0625 0.52036 0.0
C1332 C 0.86847 0.17164 0.56551 0.0
C1333 C 0.87052 0.13141 0.57381 0.0
C1334 C 0.86824 0.17465 0.54716 0.0
C1335 C 0.86991 0.1375 0.53678 0.0
C1336 C 0.87238 0.09752 0.54501 0.0
H1337 H 0.87429 0.06361 0.42848 0.0
H1338 H 0.8744 0.0696 0.46041 0.0
C1339 C 0.87263 0.09445 0.5633 0.0
C1340 C 0.86919 0.1402 0.51734 0.0
H1341 H 0.84591 0.10194 0.4816 0.0
C1342 C 0.88295 0.16337 0.50847 0.0
C1343 C 0.85545 0.11856 0.50754 0.0
C1344 C 0.83979 0.09495 0.51633 0.0
C1345 C 0.88376 0.16396 0.49002 0.0
C1346 C 0.87029 0.14132 0.48024 0.0
C1347 C 0.85628 0.11909 0.48913 0.0
C1348 C 0.87082 0.13871 0.46078 0.0
C1349 C 0.8994 0.18744 0.48115 0.0
C1350 C 0.86872 0.17565 0.45034 0.0
C1351 C 0.86865 0.1724 0.43199 0.0
C1352 C 0.87061 0.13207 0.42376 0.0
C1353 C 0.87277 0.09522 0.43431 0.0
C1354 C 0.87282 0.09852 0.45261 0.0
H1355 H 0.91069 0.1953 0.49048 0.0
H1356 H 0.90515 0.16791 0.47023 0.0
H1357 H 0.89414 0.21804 0.47553 0.0
H1358 H 0.86683 0.20691 0.45639 0.0
H1359 H 0.86688 0.20141 0.4243 0.0
H1360 H 0.61966 0.56986 0.06668 0.0
H1361 H 0.62106 0.58042 0.03502 0.0
H1362 H 0.63041 0.71619 0.04264 0.0
H1363 H 0.62892 0.70607 0.07458 0.0
H1364 H 0.60351 0.69474 0.01591 0.0
H1365 H 0.66895 0.605 0.00748 0.0
H1366 H 0.6519 0.57575 0.01969 0.0
H1367 H 0.66128 0.62477 0.02855 0.0
C1368 C 0.622 0.60207 0.06172 0.0
C1369 C 0.6243 0.63709 0.07323 0.0
C1370 C 0.62288 0.60798 0.04358 0.0
C1371 C 0.62616 0.64893 0.03651 0.0
C1372 C 0.62801 0.68425 0.04787 0.0
H1373 H 0.63015 0.70713 0.92257 0.0
H1374 H 0.63121 0.71791 0.95454 0.0
C1375 C 0.62717 0.67837 0.0661 0.0
C1376 C 0.62757 0.65427 0.01721 0.0
H1377 H 0.65096 0.61649 0.98153 0.0
C1378 C 0.61405 0.67833 0.00836 0.0
C1379 C 0.64142 0.63299 0.00744 0.0
C1380 C 0.65683 0.60851 0.01627 0.0
C1381 C 0.61339 0.67947 0.98989 0.0
C1382 C 0.62672 0.65637 0.98015 0.0
C1383 C 0.64071 0.63403 0.98904 0.0
C1384 C 0.62545 0.65133 0.96083 0.0
C1385 C 0.59794 0.70341 0.98092 0.0
C1386 C 0.62197 0.61042 0.95385 0.0
C1387 C 0.62139 0.60415 0.93573 0.0
C1388 C 0.62439 0.63868 0.92412 0.0
C1389 C 0.62773 0.67989 0.93113 0.0
C1390 C 0.62828 0.68614 0.94938 0.0
H1391 H 0.58737 0.7149 0.99037 0.0
H1392 H 0.60366 0.73174 0.97391 0.0
H1393 H 0.59116 0.68245 0.97102 0.0
H1394 H 0.61976 0.58314 0.96246 0.0
H1395 H 0.61876 0.57196 0.93088 0.0
H1396 H 0.36126 0.31376 0.92366 0.0
H1397 H 0.36007 0.30345 0.95567 0.0
H1398 H 0.37375 0.43716 0.96336 0.0
H1399 H 0.37496 0.44788 0.93178 0.0
H1400 H 0.38895 0.32367 0.98245 0.0
H1401 H 0.32452 0.41769 0.99076 0.0
H1402 H 0.3315 0.3953 0.9699 0.0
H1403 H 0.34176 0.44431 0.97779 0.0
C1404 C 0.36408 0.34088 0.93219 0.0
C1405 C 0.36806 0.3817 0.92512 0.0
C1406 C 0.36339 0.33492 0.95044 0.0
C1407 C 0.36654 0.36974 0.9618 0.0
C1408 C 0.37098 0.41008 0.95478 0.0
H1409 H 0.3735 0.44803 0.06807 0.0
H1410 H 0.37265 0.43829 0.0363 0.0
C1411 C 0.37171 0.41604 0.93668 0.0
C1412 C 0.36515 0.36488 0.98108 0.0
H1413 H 0.34249 0.4057 0.01661 0.0
C1414 C 0.37862 0.34088 0.98997 0.0
C1415 C 0.35164 0.38745 0.99077 0.0
C1416 C 0.33642 0.41235 0.98184 0.0
C1417 C 0.37954 0.34084 0.00842 0.0
C1418 C 0.36648 0.36498 0.01809 0.0
C1419 C 0.35255 0.38744 0.00915 0.0
C1420 C 0.36761 0.36971 0.03741 0.0
C1421 C 0.39497 0.31683 0.0174 0.0
C1422 C 0.36502 0.33432 0.04858 0.0
C1423 C 0.3655 0.33975 0.06682 0.0
C1424 C 0.3685 0.38074 0.07418 0.0
C1425 C 0.37117 0.41602 0.0629 0.0
C1426 C 0.37067 0.41054 0.04471 0.0
H1427 H 0.40579 0.3064 0.008 0.0
H1428 H 0.40146 0.3372 0.02768 0.0
H1429 H 0.38931 0.28774 0.0239 0.0
H1430 H 0.36234 0.30266 0.04319 0.0
H1431 H 0.36333 0.3119 0.07512 0.0
H1432 H 0.62579 0.31954 0.42383 0.0
H1433 H 0.62455 0.31359 0.45589 0.0
H1434 H 0.61526 0.45032 0.45988 0.0
H1435 H 0.61629 0.45665 0.42798 0.0
H1436 H 0.64692 0.3549 0.48107 0.0
H1437 H 0.57343 0.39943 0.48946 0.0
H1438 H 0.58299 0.38386 0.46851 0.0
H1439 H 0.5863 0.43761 0.47671 0.0
C1440 C 0.62339 0.34835 0.43151 0.0
C1441 C 0.62105 0.38856 0.42328 0.0
C1442 C 0.6227 0.34485 0.44983 0.0
C1443 C 0.61951 0.38139 0.46024 0.0
C1444 C 0.61734 0.42156 0.45208 0.0
H1445 H 0.61644 0.45553 0.56841 0.0
H1446 H 0.6159 0.44916 0.53649 0.0
C1447 C 0.61805 0.42512 0.43381 0.0
C1448 C 0.61898 0.37802 0.47967 0.0
H1449 H 0.59206 0.40002 0.51532 0.0
C1450 C 0.63487 0.36424 0.48859 0.0
C1451 C 0.60321 0.39016 0.48941 0.0
C1452 C 0.58545 0.40321 0.48055 0.0
C1453 C 0.63568 0.36404 0.50703 0.0
C1454 C 0.62007 0.37731 0.51676 0.0
C1455 C 0.60403 0.39001 0.50783 0.0
C1456 C 0.62036 0.38032 0.53621 0.0
C1457 C 0.65345 0.35127 0.51594 0.0
C1458 C 0.62284 0.34358 0.54668 0.0
C1459 C 0.62318 0.34706 0.56502 0.0
C1460 C 0.62096 0.38737 0.5732 0.0
C1461 C 0.61824 0.42397 0.56261 0.0
C1462 C 0.6179 0.42043 0.54433 0.0
H1463 H 0.66524 0.35079 0.50663 0.0
H1464 H 0.65675 0.37371 0.52685 0.0
H1465 H 0.65194 0.3185 0.52155 0.0
H1466 H 0.62443 0.31218 0.54068 0.0
H1467 H 0.62521 0.31819 0.57275 0.0
H1468 H 0.37355 0.56548 0.56682 0.0
H1469 H 0.37281 0.57512 0.53504 0.0
H1470 H 0.36242 0.71076 0.54185 0.0
H1471 H 0.36326 0.7016 0.57379 0.0
H1472 H 0.34231 0.60821 0.51552 0.0
H1473 H 0.40589 0.70617 0.50644 0.0
H1474 H 0.40168 0.67518 0.52609 0.0
H1475 H 0.38964 0.7249 0.52255 0.0
C1476 C 0.37125 0.59748 0.56163 0.0
C1477 C 0.36847 0.63278 0.57289 0.0
C1478 C 0.37081 0.6029 0.54344 0.0
C1479 C 0.36772 0.64368 0.53612 0.0
C1480 C 0.3651 0.67912 0.54726 0.0
H1481 H 0.3616 0.70414 0.42303 0.0
H1482 H 0.36068 0.71229 0.45512 0.0
C1483 C 0.36551 0.67375 0.5655 0.0
C1484 C 0.36648 0.6483 0.5168 0.0
H1485 H 0.38871 0.68949 0.48102 0.0
C1486 C 0.35237 0.62623 0.50798 0.0
C1487 C 0.37954 0.67218 0.50705 0.0
C1488 C 0.39515 0.6958 0.51593 0.0
C1489 C 0.35122 0.62651 0.48961 0.0
C1490 C 0.36471 0.64887 0.47981 0.0
C1491 C 0.37841 0.67237 0.48862 0.0
C1492 C 0.36568 0.6449 0.46046 0.0
C1493 C 0.33568 0.6024 0.48082 0.0
C1494 C 0.36918 0.60456 0.45294 0.0
C1495 C 0.36974 0.59979 0.43476 0.0
C1496 C 0.36689 0.63537 0.42365 0.0
C1497 C 0.36378 0.67607 0.43121 0.0
C1498 C 0.36325 0.68081 0.44951 0.0
H1499 H 0.32381 0.59781 0.48985 0.0
H1500 H 0.33081 0.61959 0.4689 0.0
H1501 H 0.34066 0.57009 0.47679 0.0
H1502 H 0.37143 0.57661 0.46118 0.0
H1503 H 0.37229 0.568 0.42946 0.0
H1504 H 0.93286 0.88874 0.12738 0.0
H1505 H 0.96463 0.91451 0.12802 0.0
H1506 H 0.94523 0.04565 0.13018 0.0
H1507 H 0.91333 0.0202 0.1299 0.0
H1508 H 0.98239 0.96677 0.10462 0.0
H1509 H 0.98163 0.04207 0.17071 0.0
H1510 H 0.96367 1.0062 0.16326 0.0
H1511 H 0.96386 0.06155 0.15633 0.0
C1512 C 0.93529 0.92308 0.12807 0.0
C1513 C 0.9205 0.95239 0.12867 0.0
C1514 C 0.95349 0.93774 0.12843 0.0
C1515 C 0.9573 0.98194 0.12942 0.0
C1516 C 0.9426 0.01134 0.12983 0.0
H1517 H 0.05753 0.13297 0.12596 0.0
H1518 H 0.0257 0.10724 0.12626 0.0
C1519 C 0.92437 0.99672 0.12957 0.0
C1520 C 0.97667 0.99714 0.12946 0.0
H1521 H 0.00806 0.05525 0.15307 0.0
C1522 C 0.98803 0.98592 0.11526 0.0
C1523 C 0.98399 0.0221 0.14336 0.0
C1524 C 0.97273 0.03339 0.15936 0.0
C1525 C 0.00645 0.99959 0.11444 0.0
C1526 C 0.01371 0.02473 0.12828 0.0
C1527 C 0.00238 0.036 0.14248 0.0
C1528 C 0.03304 0.03994 0.1282 0.0
C1529 C 0.01792 0.98774 0.09864 0.0
C1530 C 0.04768 0.01055 0.12939 0.0
C1531 C 0.06592 0.0251 0.12927 0.0
C1532 C 0.06982 0.06935 0.12795 0.0
C1533 C 0.05506 0.09868 0.12691 0.0
C1534 C 0.03685 0.08408 0.12711 0.0
H1535 H 0.00927 0.97625 0.08754 0.0
H1536 H 0.0262 0.01571 0.09415 0.0
H1537 H 0.02761 0.96156 0.10228 0.0
H1538 H 0.04498 0.97636 0.13049 0.0
H1539 H 0.07693 1.00162 0.13014 0.0
H1540 H 0.91451 1.00435 0.36665 0.0
H1541 H 0.94619 0.97725 0.36695 0.0
H1542 H 0.96668 0.10715 0.37126 0.0
H1543 H 0.93518 0.13454 0.3713 0.0
H1544 H 0.97482 0.99453 0.34406 0.0
H1545 H 0.99283 0.04684 0.41159 0.0
H1546 H 0.96937 0.04563 0.40365 0.0
H1547 H 0.98433 0.08969 0.398 0.0
C1548 C 0.92575 0.02719 0.36773 0.0
C1549 C 0.92229 0.07163 0.36908 0.0
C1550 C 0.94383 0.01161 0.36789 0.0
C1551 C 0.95874 0.04015 0.36945 0.0
C1552 C 0.95535 0.08451 0.37049 0.0
H1553 H 0.07765 0.01631 0.36739 0.0
H1554 H 0.04572 0.04178 0.3671 0.0
C1555 C 0.93731 0.10011 0.37041 0.0
C1556 C 0.97788 0.0237 0.36956 0.0
H1557 H 0.01762 0.0227 0.39364 0.0
C1558 C 0.98415 1.00041 0.35494 0.0
C1559 C 0.99 0.03147 0.38379 0.0
C1560 C 0.98377 0.05441 0.40022 0.0
C1561 C 0.00237 0.9854 0.35402 0.0
C1562 C 0.01451 0.99364 0.36815 0.0
C1563 C 0.00825 0.01673 0.3828 0.0
C1564 C 0.03374 0.97808 0.36809 0.0
C1565 C 0.00863 0.96158 0.33782 0.0
C1566 C 0.03748 0.93388 0.36891 0.0
C1567 C 0.05567 0.91917 0.36915 0.0
C1568 C 0.07045 0.94848 0.36857 0.0
C1569 C 0.06661 0.99284 0.36779 0.0
C1570 C 0.04839 1.0075 0.36764 0.0
H1571 H -0.00113 0.96576 0.3267 0.0
H1572 H 0.0225 0.97275 0.33366 0.0
H1573 H 0.0096 0.9267 0.34083 0.0
H1574 H 0.02631 0.91076 0.36952 0.0
H1575 H 0.05809 0.88481 0.36977 0.0
H1576 H 0.07747 1.00379 0.86654 0.0
H1577 H 0.04556 0.97805 0.86622 0.0
H1578 H 0.02597 0.10879 0.86971 0.0
H1579 H 0.05771 0.13497 0.86998 0.0
H1580 H 0.01767 0.99409 0.89268 0.0
H1581 H -0.0021 0.0571 0.827 0.0
H1582 H 0.02164 0.05053 0.83369 0.0
H1583 H 0.00844 0.09549 0.84154 0.0
C1584 C 0.06639 0.02716 0.86715 0.0
C1585 C 0.07019 0.07151 0.86824 0.0
C1586 C 0.04817 0.01234 0.86699 0.0
C1587 C 0.03344 0.04157 0.86772 0.0
C1588 C 0.03716 0.08577 0.86885 0.0
H1589 H 0.91406 0.01802 0.86778 0.0
H1590 H 0.94593 0.04381 0.86791 0.0
C1591 C 0.05534 0.10063 0.8691 0.0
C1592 C 0.01417 0.02583 0.86779 0.0
H1593 H 0.97396 0.02786 0.84443 0.0
C1594 C 0.00811 1.00125 0.88211 0.0
C1595 C 0.00175 0.03554 0.85402 0.0
C1596 C 0.00773 0.06082 0.8381 0.0
C1597 C 0.98983 0.98664 0.88319 0.0
C1598 C 0.97741 0.99607 0.86935 0.0
C1599 C 0.98349 0.02071 0.85503 0.0
C1600 C 0.9581 0.9803 0.86939 0.0
C1601 C 0.98387 0.96216 0.89933 0.0
C1602 C 0.95436 0.93602 0.86994 0.0
C1603 C 0.93618 0.92115 0.86995 0.0
C1604 C 0.92133 0.95028 0.86922 0.0
C1605 C 0.92513 0.99465 0.8684 0.0
C1606 C 0.94335 1.00949 0.86846 0.0
H1607 H 0.99322 0.96834 0.91063 0.0
H1608 H 0.9696 0.97089 0.90321 0.0
H1609 H 0.98424 0.92713 0.89649 0.0
H1610 H 0.96553 0.91286 0.87022 0.0
H1611 H 0.93381 0.88675 0.87043 0.0
H1612 H 0.93524 0.13397 0.62631 0.0
H1613 H 0.96676 0.10641 0.62647 0.0
H1614 H 0.94624 0.97697 0.6323 0.0
H1615 H 0.91455 1.00406 0.6321 0.0
H1616 H 0.98406 0.05442 0.65383 0.0
H1617 H 0.98132 0.9734 0.5887 0.0
H1618 H 0.96499 0.01436 0.59513 0.0
H1619 H 0.963 0.96079 0.60374 0.0
C1620 C 0.93736 0.09959 0.62758 0.0
C1621 C 0.92233 0.07119 0.62912 0.0
C1622 C 0.9554 0.08398 0.6277 0.0
C1623 C 0.95875 0.03972 0.62921 0.0
C1624 C 0.94386 0.01123 0.63089 0.0
H1625 H 0.05867 0.88724 0.62754 0.0
H1626 H 0.02688 0.91282 0.6286 0.0
C1627 C 0.92578 0.02681 0.63085 0.0
C1628 C 0.9779 0.02357 0.62921 0.0
H1629 H 0.00858 0.96462 0.60529 0.0
C1630 C 0.98948 0.0348 0.64324 0.0
C1631 C 0.98479 0.99796 0.61537 0.0
C1632 C 0.97297 0.98606 0.59978 0.0
C1633 C 0.00783 0.02061 0.6439 0.0
C1634 C 0.01482 0.99539 0.62994 0.0
C1635 C 0.00317 0.98401 0.61595 0.0
C1636 C 0.03417 0.98031 0.62958 0.0
C1637 C 0.01943 0.032 0.6597 0.0
C1638 C 0.0488 1.00985 0.62959 0.0
C1639 C 0.06703 0.99537 0.62907 0.0
C1640 C 0.07093 0.95105 0.62832 0.0
C1641 C 0.0562 0.9216 0.6281 0.0
C1642 C 0.038 0.93612 0.62871 0.0
H1643 H 0.01076 0.04081 0.67117 0.0
H1644 H 0.02855 1.00482 0.66349 0.0
H1645 H 0.02823 0.0601 0.65647 0.0
H1646 H 0.04612 0.04415 0.62983 0.0
H1647 H 0.07803 0.01894 0.62912 0.0
H1648 H 0.43387 0.38664 0.11725 0.0
H1649 H 0.46564 0.41307 0.11734 0.0
H1650 H 0.44722 0.53479 0.13809 0.0
H1651 H 0.41537 0.50884 0.13806 0.0
H1652 H 0.47938 0.49204 0.09972 0.0
H1653 H 0.48915 0.49044 0.17222 0.0
H1654 H 0.47144 0.45928 0.16139 0.0
H1655 H 0.4686 0.51626 0.16415 0.0
C1656 C 0.43654 0.41902 0.12188 0.0
C1657 C 0.42205 0.44557 0.1277 0.0
C1658 C 0.45469 0.43405 0.12187 0.0
C1659 C 0.45873 0.47566 0.12787 0.0
C1660 C 0.44436 0.50238 0.1336 0.0
H1661 H 0.55848 0.62692 0.11693 0.0
H1662 H 0.52678 0.6001 0.11682 0.0
C1663 C 0.42617 0.48752 0.13349 0.0
C1664 C 0.47799 0.49124 0.12795 0.0
H1665 H 0.51335 0.51979 0.15519 0.0
C1666 C 0.48684 0.49813 0.11182 0.0
C1667 C 0.48764 0.49873 0.14379 0.0
C1668 C 0.47885 0.49057 0.16142 0.0
C1669 C 0.50511 0.51295 0.11113 0.0
C1670 C 0.51466 0.52113 0.12697 0.0
C1671 C 0.5059 0.51367 0.14309 0.0
C1672 C 0.53383 0.53727 0.12704 0.0
C1673 C 0.51416 0.51936 0.0935 0.0
C1674 C 0.54821 0.51091 0.13303 0.0
C1675 C 0.56637 0.52602 0.13307 0.0
C1676 C 0.57041 0.568 0.12729 0.0
C1677 C 0.55588 0.59445 0.12146 0.0
C1678 C 0.53776 0.57916 0.12132 0.0
H1679 H 0.50617 0.50412 0.0827 0.0
H1680 H 0.51524 0.55434 0.09073 0.0
H1681 H 0.52834 0.50582 0.09354 0.0
H1682 H 0.5454 0.47851 0.13756 0.0
H1683 H 0.57719 0.50485 0.13771 0.0
H1684 H 0.41648 0.52415 0.34767 0.0
H1685 H 0.44848 0.49917 0.34753 0.0
H1686 H 0.46071 0.58285 0.39131 0.0
H1687 H 0.42904 0.60984 0.39069 0.0
H1688 H 0.48721 0.58716 0.36952 0.0
H1689 H 0.47193 0.41435 0.3789 0.0
H1690 H 0.46125 0.43444 0.35933 0.0
H1691 H 0.45432 0.4551 0.38046 0.0
C1692 C 0.42604 0.53702 0.35728 0.0
C1693 C 0.42036 0.5687 0.36925 0.0
C1694 C 0.44427 0.5225 0.3573 0.0
C1695 C 0.45694 0.53825 0.36971 0.0
C1696 C 0.45121 0.57005 0.38164 0.0
H1697 H 0.56076 0.40933 0.3913 0.0
H1698 H 0.52928 0.43739 0.39201 0.0
C1699 C 0.43313 0.58544 0.3813 0.0
C1700 C 0.4763 0.52263 0.37 0.0
H1701 H 0.50271 0.43174 0.37039 0.0
C1702 C 0.49059 0.55314 0.36988 0.0
C1703 C 0.48076 0.47829 0.37078 0.0
C1704 C 0.46624 0.44374 0.37258 0.0
C1705 C 0.50917 0.54065 0.37038 0.0
C1706 C 0.51363 0.49627 0.37012 0.0
C1707 C 0.49934 0.46576 0.37037 0.0
C1708 C 0.53298 0.48055 0.36993 0.0
C1709 C 0.52371 0.57528 0.37172 0.0
C1710 C 0.54557 0.49528 0.35727 0.0
C1711 C 0.56372 0.48016 0.35719 0.0
C1712 C 0.56937 0.44888 0.36936 0.0
C1713 C 0.5567 0.43337 0.38175 0.0
C1714 C 0.53872 0.44937 0.38214 0.0
H1715 H 0.51807 0.60509 0.37774 0.0
H1716 H 0.53569 0.56446 0.37967 0.0
H1717 H 0.5286 0.58368 0.35836 0.0
H1718 H 0.54135 0.51812 0.34732 0.0
H1719 H 0.5732 0.4921 0.34734 0.0
H1720 H 0.4333 0.38893 0.87057 0.0
H1721 H 0.46518 0.41448 0.86998 0.0
H1722 H 0.446 0.54562 0.8669 0.0
H1723 H 0.41405 0.52057 0.86754 0.0
H1724 H 0.48274 0.46768 0.84346 0.0
H1725 H 0.482 0.54373 0.90957 0.0
H1726 H 0.46498 0.50468 0.90276 0.0
H1727 H 0.46357 0.55922 0.89507 0.0
C1728 C 0.43581 0.42323 0.8698 0.0
C1729 C 0.42107 0.45269 0.86919 0.0
C1730 C 0.45405 0.43773 0.86943 0.0
C1731 C 0.4579 0.48191 0.86861 0.0
C1732 C 0.44328 0.51141 0.86779 0.0
H1733 H 0.55856 0.6323 0.87026 0.0
H1734 H 0.52665 0.60724 0.86939 0.0
C1735 C 0.42503 0.49697 0.86808 0.0
C1736 C 0.47725 0.49709 0.8685 0.0
H1737 H 0.50874 0.5541 0.89237 0.0
C1738 C 0.48848 0.48648 0.85416 0.0
C1739 C 0.48461 0.52168 0.88247 0.0
C1740 C 0.47326 0.53281 0.89843 0.0
C1741 C 0.50687 0.50046 0.85326 0.0
C1742 C 0.51429 0.52484 0.86729 0.0
C1743 C 0.50302 0.53543 0.88163 0.0
C1744 C 0.53372 0.53974 0.86739 0.0
C1745 C 0.51803 0.48986 0.83711 0.0
C1746 C 0.54831 0.51007 0.86673 0.0
C1747 C 0.56659 0.52429 0.86714 0.0
C1748 C 0.57065 0.56848 0.86843 0.0
C1749 C 0.55597 0.59806 0.86926 0.0
C1750 C 0.53771 0.5838 0.86876 0.0
H1751 H 0.50904 0.4819 0.82573 0.0
H1752 H 0.52714 0.51711 0.8334 0.0
H1753 H 0.52682 0.46141 0.83985 0.0
H1754 H 0.54555 0.47585 0.86609 0.0
H1755 H 0.57753 0.50057 0.86662 0.0
H1756 H 0.43299 0.63172 0.62698 0.0
H1757 H 0.46473 0.60543 0.62704 0.0
H1758 H 0.44507 0.47454 0.62873 0.0
H1759 H 0.41321 0.50032 0.6286 0.0
H1760 H 0.48197 0.55018 0.65303 0.0
H1761 H 0.48101 0.47879 0.58606 0.0
H1762 H 0.46415 0.51776 0.59327 0.0
H1763 H 0.4625 0.46274 0.60032 0.0
C1764 C 0.43535 0.59731 0.62732 0.0
C1765 C 0.42052 0.56813 0.62771 0.0
C1766 C 0.45352 0.5824 0.62739 0.0
C1767 C 0.45717 0.53813 0.62769 0.0
C1768 C 0.44247 0.50886 0.62824 0.0
H1769 H 0.55638 0.38432 0.62561 0.0
H1770 H 0.52477 0.41117 0.62615 0.0
C1771 C 0.42428 0.52371 0.62824 0.0
C1772 C 0.47642 0.52261 0.62764 0.0
H1773 H 0.50768 0.46657 0.60323 0.0
C1774 C 0.48766 0.53201 0.64214 0.0
C1775 C 0.48369 0.4989 0.61341 0.0
C1776 C 0.4723 0.48914 0.59729 0.0
C1777 C 0.50597 0.51757 0.64294 0.0
C1778 C 0.51328 0.49398 0.62866 0.0
C1779 C 0.50202 0.48468 0.61414 0.0
C1780 C 0.53253 0.47815 0.62857 0.0
C1781 C 0.51716 0.52677 0.65924 0.0
C1782 C 0.54737 0.50702 0.62956 0.0
C1783 C 0.5655 0.49178 0.62934 0.0
C1784 C 0.56909 0.44741 0.62792 0.0
C1785 C 0.55415 0.41868 0.62671 0.0
C1786 C 0.53605 0.43394 0.62702 0.0
H1787 H 0.50821 0.53473 0.67063 0.0
H1788 H 0.52596 0.49882 0.66278 0.0
H1789 H 0.52627 0.5548 0.65676 0.0
H1790 H 0.54494 0.54135 0.63036 0.0
H1791 H 0.57668 0.51484 0.63016 0.0
H1792 H 0.15026 0.78654 0.10052 0.0
H1793 H 0.147 0.70831 0.10184 0.0
H1794 H 0.10798 0.72124 0.14415 0.0
H1795 H 0.11064 0.79968 0.1425 0.0
H1796 H 0.15445 0.65207 0.1284 0.0
H1797 H 0.08029 0.64153 0.11133 0.0
H1798 H 0.09347 0.69029 0.10849 0.0
H1799 H 0.08487 0.67572 0.12982 0.0
C1800 C 0.14072 0.77296 0.10993 0.0
C1801 C 0.13058 0.79992 0.12129 0.0
C1802 C 0.13899 0.72798 0.11076 0.0
C1803 C 0.12701 0.70852 0.12289 0.0
C1804 C 0.11703 0.73523 0.13439 0.0
H1805 H 0.09949 0.44401 0.15099 0.0
H1806 H 0.10254 0.52216 0.14874 0.0
C1807 C 0.11875 0.78027 0.13358 0.0
C1808 C 0.12538 0.6604 0.12376 0.0
H1809 H 0.09454 0.57709 0.12129 0.0
C1810 C 0.14135 0.63571 0.12674 0.0
C1811 C 0.10832 0.63873 0.1216 0.0
C1812 C 0.09078 0.66283 0.11746 0.0
C1813 C 0.14067 0.59042 0.12801 0.0
C1814 C 0.1236 0.56878 0.12594 0.0
C1815 C 0.10764 0.59344 0.1229 0.0
C1816 C 0.12193 0.52074 0.12718 0.0
C1817 C 0.15822 0.56624 0.13204 0.0
C1818 C 0.13161 0.49341 0.11569 0.0
C1819 C 0.12998 0.44841 0.11702 0.0
C1820 C 0.11857 0.42948 0.12986 0.0
C1821 C 0.1087 0.45708 0.14116 0.0
C1822 C 0.11031 0.50198 0.1398 0.0
H1823 H 0.16894 0.58766 0.13774 0.0
H1824 H 0.15561 0.5394 0.14134 0.0
H1825 H 0.1638 0.55241 0.1197 0.0
H1826 H 0.14039 0.50687 0.1056 0.0
H1827 H 0.13786 0.42846 0.10811 0.0
H1828 H 0.84026 0.23413 0.10074 0.0
H1829 H 0.84352 0.31241 0.10172 0.0
H1830 H 0.88313 0.30054 0.14366 0.0
H1831 H 0.88053 0.22213 0.14232 0.0
H1832 H 0.8363 0.36903 0.12804 0.0
H1833 H 0.9103 0.38007 0.11069 0.0
H1834 H 0.89724 0.33105 0.1081 0.0
H1835 H 0.90602 0.34621 0.12933 0.0
C1836 C 0.84995 0.24796 0.10998 0.0
C1837 C 0.86024 0.22129 0.12135 0.0
C1838 C 0.85167 0.29296 0.11062 0.0
C1839 C 0.86379 0.31274 0.12257 0.0
C1840 C 0.87397 0.28632 0.13404 0.0
H1841 H 0.8911 0.57716 0.15084 0.0
H1842 H 0.88806 0.49901 0.1485 0.0
C1843 C 0.87227 0.24128 0.1334 0.0
C1844 C 0.86535 0.36088 0.12334 0.0
H1845 H 0.89609 0.4444 0.12089 0.0
C1846 C 0.84937 0.38547 0.12635 0.0
C1847 C 0.88238 0.38267 0.12115 0.0
C1848 C 0.89993 0.35873 0.11697 0.0
C1849 C 0.85 0.43076 0.12765 0.0
C1850 C 0.86704 0.4525 0.1256 0.0
C1851 C 0.88301 0.42795 0.1225 0.0
C1852 C 0.86868 0.50053 0.12691 0.0
C1853 C 0.83244 0.45484 0.13172 0.0
C1854 C 0.85898 0.52791 0.11543 0.0
C1855 C 0.86061 0.57289 0.1168 0.0
C1856 C 0.87202 0.59176 0.12967 0.0
C1857 C 0.88189 0.56413 0.14098 0.0
C1858 C 0.88029 0.51923 0.13957 0.0
H1859 H 0.82174 0.43333 0.13737 0.0
H1860 H 0.83506 0.48157 0.14108 0.0
H1861 H 0.82685 0.46881 0.11941 0.0
H1862 H 0.85021 0.51449 0.1053 0.0
H1863 H 0.85273 0.59288 0.10788 0.0
H1864 H 0.15788 0.23114 0.38873 0.0
H1865 H 0.15481 0.30946 0.38806 0.0
H1866 H 0.10169 0.29713 0.36315 0.0
H1867 H 0.10428 0.21872 0.36443 0.0
H1868 H 0.1517 0.3642 0.3606 0.0
H1869 H 0.08945 0.37996 0.40216 0.0
H1870 H 0.1023 0.33038 0.40058 0.0
H1871 H 0.08607 0.34498 0.3837 0.0
C1872 C 0.14535 0.24489 0.3834 0.0
C1873 C 0.13126 0.21808 0.37678 0.0
C1874 C 0.14369 0.28992 0.38289 0.0
C1875 C 0.12788 0.3096 0.37582 0.0
C1876 C 0.11387 0.28303 0.36905 0.0
H1877 H 0.09311 0.573 0.35466 0.0
H1878 H 0.09645 0.49494 0.35717 0.0
C1879 C 0.11549 0.23796 0.36958 0.0
C1880 C 0.12636 0.35776 0.37506 0.0
H1881 H 0.099 0.44292 0.38686 0.0
C1882 C 0.14023 0.38137 0.36646 0.0
C1883 C 0.11143 0.38053 0.38269 0.0
C1884 C 0.09656 0.35775 0.39295 0.0
C1885 C 0.13935 0.42659 0.36491 0.0
C1886 C 0.12433 0.44927 0.3724 0.0
C1887 C 0.11052 0.42573 0.38108 0.0
C1888 C 0.12247 0.49723 0.37104 0.0
C1889 C 0.15428 0.44959 0.35482 0.0
C1890 C 0.13583 0.52501 0.3782 0.0
C1891 C 0.13399 0.56994 0.37672 0.0
C1892 C 0.11873 0.5883 0.36803 0.0
C1893 C 0.10524 0.56029 0.36114 0.0
C1894 C 0.10706 0.51547 0.36268 0.0
H1895 H 0.16219 0.42719 0.3463 0.0
H1896 H 0.14837 0.47553 0.3465 0.0
H1897 H 0.16407 0.46453 0.36422 0.0
H1898 H 0.14769 0.51195 0.38501 0.0
H1899 H 0.1447 0.59027 0.38216 0.0
H1900 H 0.85068 0.43221 0.38422 0.0
H1901 H 0.84736 0.51064 0.3863 0.0
H1902 H 0.89661 0.52703 0.35541 0.0
H1903 H 0.90003 0.44904 0.35328 0.0
H1904 H 0.86974 0.57356 0.39991 0.0
H1905 H 0.86081 0.60202 0.32863 0.0
H1906 H 0.85964 0.54893 0.33817 0.0
H1907 H 0.88164 0.57344 0.33372 0.0
C1908 C 0.86087 0.45244 0.37792 0.0
C1909 C 0.87551 0.43391 0.36839 0.0
C1910 C 0.85891 0.49743 0.37907 0.0
C1911 C 0.87148 0.52511 0.37068 0.0
C1912 C 0.88636 0.50668 0.36156 0.0
H1913 H 0.88738 0.80296 0.36183 0.0
H1914 H 0.89 0.72446 0.36105 0.0
C1915 C 0.8883 0.46183 0.36036 0.0
C1916 C 0.86927 0.57311 0.37165 0.0
H1917 H 0.86584 0.66403 0.34637 0.0
C1918 C 0.86875 0.59326 0.38819 0.0
C1919 C 0.86796 0.59917 0.3564 0.0
C1920 C 0.86735 0.57981 0.33823 0.0
C1921 C 0.86746 0.63843 0.38987 0.0
C1922 C 0.86638 0.66447 0.37461 0.0
C1923 C 0.86677 0.64431 0.35809 0.0
C1924 C 0.86483 0.71258 0.37546 0.0
C1925 C 0.86777 0.65799 0.408 0.0
C1926 C 0.84971 0.7325 0.38367 0.0
C1927 C 0.84807 0.77757 0.38402 0.0
C1928 C 0.86148 0.80413 0.37611 0.0
C1929 C 0.87662 0.78394 0.36789 0.0
C1930 C 0.87821 0.73887 0.36751 0.0
H1931 H 0.87338 0.63524 0.41792 0.0
H1932 H 0.87617 0.68787 0.40822 0.0
H1933 H 0.85349 0.66643 0.41192 0.0
H1934 H 0.83895 0.71315 0.38955 0.0
H1935 H 0.836 0.7915 0.39014 0.0
H1936 H 0.8312 0.23285 0.88372 0.0
H1937 H 0.83424 0.31116 0.88245 0.0
H1938 H 0.89154 0.29796 0.86857 0.0
H1939 H 0.88872 0.21955 0.87002 0.0
H1940 H 0.85674 0.36789 0.90097 0.0
H1941 H 0.87237 0.37675 0.82981 0.0
H1942 H 0.8635 0.32862 0.84003 0.0
H1943 H 0.88754 0.34203 0.84193 0.0
C1944 C 0.84455 0.2464 0.88057 0.0
C1945 C 0.8597 0.21933 0.87693 0.0
C1946 C 0.84622 0.29142 0.87975 0.0
C1947 C 0.86304 0.31081 0.87513 0.0
C1948 C 0.87827 0.28402 0.87175 0.0
H1949 H 0.90144 0.57442 0.8604 0.0
H1950 H 0.89796 0.49649 0.86306 0.0
C1951 C 0.87663 0.23897 0.87259 0.0
C1952 C 0.86463 0.35892 0.87399 0.0
H1953 H 0.87543 0.44148 0.84603 0.0
C1954 C 0.86075 0.38397 0.88892 0.0
C1955 C 0.86985 0.3802 0.8583 0.0
C1956 C 0.8734 0.35564 0.84154 0.0
C1957 C 0.86237 0.42927 0.88873 0.0
C1958 C 0.86764 0.45057 0.87304 0.0
C1959 C 0.87143 0.42547 0.85809 0.0
C1960 C 0.86963 0.49864 0.87185 0.0
C1961 C 0.85895 0.45374 0.90553 0.0
C1962 C 0.85486 0.52645 0.87579 0.0
C1963 C 0.85681 0.57137 0.87427 0.0
C1964 C 0.87353 0.58974 0.86854 0.0
C1965 C 0.88826 0.56173 0.8646 0.0
C1966 C 0.88632 0.51694 0.86619 0.0
H1967 H 0.86023 0.43261 0.91724 0.0
H1968 H 0.86874 0.481 0.90695 0.0
H1969 H 0.84473 0.46693 0.90533 0.0
H1970 H 0.84166 0.51342 0.87976 0.0
H1971 H 0.84506 0.59166 0.87718 0.0
H1972 H 0.13603 0.43186 0.89025 0.0
H1973 H 0.13824 0.51039 0.89279 0.0
H1974 H 0.10401 0.52473 0.84687 0.0
H1975 H 0.10127 0.44659 0.84454 0.0
H1976 H 0.15213 0.5707 0.86923 0.0
H1977 H 0.07819 0.60343 0.88173 0.0
H1978 H 0.08795 0.55012 0.88329 0.0
H1979 H 0.08225 0.57254 0.8622 0.0
C1980 C 0.12877 0.45165 0.8808 0.0
C1981 C 0.11843 0.43248 0.8672 0.0
C1982 C 0.13015 0.49668 0.88221 0.0
C1983 C 0.12107 0.52379 0.87019 0.0
C1984 C 0.11087 0.50478 0.85653 0.0
H1985 H 0.11246 0.80129 0.85311 0.0
H1986 H 0.11019 0.72272 0.85181 0.0
C1987 C 0.10952 0.45985 0.85509 0.0
C1988 C 0.12258 0.57181 0.87164 0.0
H1989 H 0.09708 0.66415 0.87563 0.0
C1990 C 0.1401 0.59108 0.87076 0.0
C1991 C 0.10691 0.59869 0.87358 0.0
C1992 C 0.08777 0.58021 0.87543 0.0
C1993 C 0.14232 0.6362 0.87131 0.0
C1994 C 0.12664 0.66311 0.87318 0.0
C1995 C 0.10913 0.64379 0.87415 0.0
C1996 C 0.12807 0.71126 0.87408 0.0
C1997 C 0.16146 0.65461 0.86935 0.0
C1998 C 0.13865 0.73148 0.88718 0.0
C1999 C 0.1401 0.77653 0.88788 0.0
C2000 C 0.13088 0.80281 0.87558 0.0
C2001 C 0.12002 0.78241 0.86265 0.0
C2002 C 0.11859 0.73732 0.86197 0.0
H2003 H 0.17103 0.63123 0.86312 0.0
H2004 H 0.16128 0.6845 0.86135 0.0
H2005 H 0.16702 0.66259 0.88253 0.0
H2006 H 0.1458 0.7124 0.89695 0.0
H2007 H 0.14874 0.79069 0.89794 0.0
H2008 H 0.87937 0.80066 0.6009 0.0
H2009 H 0.88191 0.7219 0.6008 0.0
H2010 H 0.84628 0.71514 0.64596 0.0
H2011 H 0.84332 0.79349 0.64592 0.0
H2012 H 0.8951 0.66598 0.62699 0.0
H2013 H 0.82183 0.63047 0.61211 0.0
H2014 H 0.83171 0.68333 0.60924 0.0
H2015 H 0.82503 0.66516 0.63073 0.0
C2016 C 0.87191 0.78245 0.61072 0.0
C2017 C 0.86111 0.80379 0.6234 0.0
C2018 C 0.87347 0.73732 0.6107 0.0
C2019 C 0.86408 0.71227 0.62321 0.0
C2020 C 0.85342 0.73347 0.63596 0.0
H2021 H 0.85466 0.43998 0.6492 0.0
H2022 H 0.85226 0.51837 0.64726 0.0
C2023 C 0.85192 0.77851 0.63604 0.0
C2024 C 0.86571 0.66416 0.62321 0.0
H2025 H 0.84045 0.57118 0.6208 0.0
C2026 C 0.88316 0.64526 0.6255 0.0
C2027 C 0.85016 0.63689 0.62132 0.0
C2028 C 0.83114 0.65488 0.61805 0.0
C2029 C 0.88542 0.60019 0.62644 0.0
C2030 C 0.86985 0.57289 0.62465 0.0
C2031 C 0.85241 0.59183 0.62221 0.0
C2032 C 0.87128 0.52475 0.62556 0.0
C2033 C 0.90442 0.58231 0.62992 0.0
C2034 C 0.88252 0.50165 0.61383 0.0
C2035 C 0.88403 0.45664 0.61498 0.0
C2036 C 0.87426 0.43335 0.62785 0.0
C2037 C 0.86268 0.45658 0.63932 0.0
C2038 C 0.86118 0.50156 0.63815 0.0
H2039 H 0.91372 0.60697 0.6357 0.0
H2040 H 0.90381 0.55431 0.63896 0.0
H2041 H 0.91058 0.57144 0.61735 0.0
H2042 H 0.89017 0.51845 0.60373 0.0
H2043 H 0.89319 0.44021 0.60598 0.0
H2044 H 0.15752 0.23407 0.60658 0.0
H2045 H 0.15464 0.31241 0.60801 0.0
H2046 H 0.10281 0.29942 0.63508 0.0
H2047 H 0.10541 0.22098 0.63352 0.0
H2048 H 0.12764 0.36796 0.59499 0.0
H2049 H 0.13141 0.37998 0.66756 0.0
H2050 H 0.13753 0.33152 0.65585 0.0
H2051 H 0.11371 0.34446 0.65969 0.0
C2052 C 0.14537 0.24767 0.61269 0.0
C2053 C 0.13172 0.22069 0.61997 0.0
C2054 C 0.14381 0.29269 0.61358 0.0
C2055 C 0.12866 0.31213 0.62191 0.0
C2056 C 0.11487 0.28542 0.62895 0.0
H2057 H 0.09427 0.57592 0.64327 0.0
H2058 H 0.09731 0.49789 0.64059 0.0
C2059 C 0.11639 0.24037 0.62804 0.0
C2060 C 0.12725 0.36022 0.62306 0.0
H2061 H 0.12394 0.44394 0.65215 0.0
C2062 C 0.12692 0.38457 0.6075 0.0
C2063 C 0.1263 0.38215 0.63936 0.0
C2064 C 0.12742 0.35831 0.65659 0.0
C2065 C 0.12522 0.42984 0.60776 0.0
C2066 C 0.12424 0.45179 0.62407 0.0
C2067 C 0.12466 0.4274 0.63963 0.0
C2068 C 0.12245 0.49985 0.62535 0.0
C2069 C 0.12396 0.45357 0.59052 0.0
C2070 C 0.13562 0.52753 0.61782 0.0
C2071 C 0.13392 0.57248 0.61936 0.0
C2072 C 0.11912 0.591 0.62866 0.0
C2073 C 0.10601 0.56311 0.63623 0.0
C2074 C 0.10768 0.51827 0.63463 0.0
H2075 H 0.11971 0.43188 0.57964 0.0
H2076 H 0.11398 0.48061 0.59132 0.0
H2077 H 0.1377 0.46698 0.58719 0.0
H2078 H 0.14742 0.51438 0.61096 0.0
H2079 H 0.14445 0.5927 0.61357 0.0
H2080 H 0.62825 0.93913 0.15701 0.0
H2081 H 0.63051 0.01737 0.15456 0.0
H2082 H 0.61447 1.00993 0.10015 0.0
H2083 H 0.61143 0.93173 0.10266 0.0
H2084 H 0.65193 0.06904 0.13438 0.0
H2085 H 0.57859 0.09927 0.11786 0.0
H2086 H 0.58665 0.04775 0.12568 0.0
H2087 H 0.58984 0.06278 0.10307 0.0
C2088 C 0.62496 0.95399 0.14454 0.0
C2089 C 0.61944 0.92861 0.1301 0.0
C2090 C 0.6264 0.99895 0.14313 0.0
C2091 C 0.62232 0.02007 0.12727 0.0
C2092 C 0.61728 0.99482 0.11268 0.0
H2093 H 0.62303 0.2909 0.09472 0.0
H2094 H 0.62088 0.21238 0.09627 0.0
C2095 C 0.6158 0.9498 0.11408 0.0
C2096 C 0.62357 0.06828 0.12604 0.0
H2097 H 0.5988 0.15912 0.1161 0.0
C2098 C 0.64026 0.08867 0.13044 0.0
C2099 C 0.60841 0.0943 0.12088 0.0
C2100 C 0.58981 0.07503 0.11676 0.0
C2101 C 0.6423 0.13382 0.1296 0.0
C2102 C 0.62713 0.15982 0.12451 0.0
C2103 C 0.61046 0.13945 0.12001 0.0
C2104 C 0.62829 0.20808 0.12373 0.0
C2105 C 0.66088 0.15315 0.13377 0.0
C2106 C 0.63285 0.23241 0.13871 0.0
C2107 C 0.6342 0.27751 0.13784 0.0
C2108 C 0.63094 0.29971 0.12199 0.0
C2109 C 0.62597 0.27522 0.10711 0.0
C2110 C 0.62461 0.23014 0.108 0.0
H2111 H 0.67212 0.12901 0.13261 0.0
H2112 H 0.664 0.1806 0.12492 0.0
H2113 H 0.66082 0.16521 0.14749 0.0
H2114 H 0.63538 0.21651 0.15113 0.0
H2115 H 0.63818 0.29488 0.14958 0.0
H2116 H 0.33257 0.72808 0.11241 0.0
H2117 H 0.33566 0.80641 0.11313 0.0
H2118 H 0.39181 0.79358 0.13095 0.0
H2119 H 0.38909 0.71516 0.12961 0.0
H2120 H 0.34272 0.86061 0.14027 0.0
H2121 H 0.39829 0.8774 0.09091 0.0
H2122 H 0.38572 0.82783 0.09394 0.0
H2123 H 0.40424 0.84187 0.10861 0.0
C2124 C 0.34573 0.74173 0.11618 0.0
C2125 C 0.36063 0.71477 0.12079 0.0
C2126 C 0.34741 0.78676 0.11674 0.0
C2127 C 0.36406 0.80633 0.12182 0.0
C2128 C 0.37891 0.7796 0.1266 0.0
H2129 H 0.40164 0.0695 0.13895 0.0
H2130 H 0.39798 0.99151 0.13653 0.0
C2131 C 0.37725 0.73452 0.12604 0.0
C2132 C 0.36568 0.85452 0.12255 0.0
H2133 H 0.39099 0.94002 0.1075 0.0
C2134 C 0.35321 0.87793 0.133 0.0
C2135 C 0.37933 0.8775 0.11308 0.0
C2136 C 0.39255 0.85496 0.10087 0.0
C2137 C 0.35429 0.92314 0.13457 0.0
C2138 C 0.36805 0.94605 0.12523 0.0
C2139 C 0.38045 0.92269 0.11471 0.0
C2140 C 0.37009 0.99403 0.12651 0.0
C2141 C 0.341 0.94586 0.14666 0.0
C2142 C 0.35575 0.02198 0.12144 0.0
C2143 C 0.35778 0.0669 0.12288 0.0
C2144 C 0.37421 0.0851 0.12943 0.0
C2145 C 0.38864 0.05693 0.13418 0.0
C2146 C 0.38662 0.01214 0.13268 0.0
H2147 H 0.33449 0.92326 0.15611 0.0
H2148 H 0.34806 0.97173 0.15416 0.0
H2149 H 0.32987 0.96084 0.13873 0.0
H2150 H 0.34297 1.00908 0.11631 0.0
H2151 H 0.34634 0.08732 0.11913 0.0
H2152 H 0.60819 0.08262 0.39525 0.0
H2153 H 0.61187 1.00442 0.39742 0.0
H2154 H 0.63019 0.99995 0.34364 0.0
H2155 H 0.62727 0.07807 0.34156 0.0
H2156 H 0.5948 0.94007 0.37939 0.0
H2157 H 0.66989 0.92979 0.36713 0.0
H2158 H 0.65848 0.98008 0.37189 0.0
H2159 H 0.6578 0.95786 0.35006 0.0
C2160 C 0.61335 0.06521 0.38396 0.0
C2161 C 0.61748 0.08716 0.36824 0.0
C2162 C 0.6153 0.02026 0.38518 0.0
C2163 C 0.62158 0.99596 0.37079 0.0
C2164 C 0.6257 0.01774 0.35509 0.0
H2165 H 0.63683 0.72383 0.34662 0.0
H2166 H 0.63388 0.80229 0.34628 0.0
C2167 C 0.62377 0.06261 0.35386 0.0
C2168 C 0.62324 0.94784 0.37198 0.0
H2169 H 0.65317 0.86378 0.36591 0.0
C2170 C 0.60762 0.92347 0.37658 0.0
C2171 C 0.63993 0.92581 0.36832 0.0
C2172 C 0.65752 0.94972 0.36424 0.0
C2173 C 0.6081 0.87806 0.37716 0.0
C2174 C 0.62474 0.85606 0.37329 0.0
C2175 C 0.64038 0.88041 0.36882 0.0
C2176 C 0.62616 0.80788 0.3736 0.0
C2177 C 0.59062 0.85395 0.38143 0.0
C2178 C 0.62296 0.78444 0.3891 0.0
C2179 C 0.62457 0.73933 0.38934 0.0
C2180 C 0.62945 0.71636 0.37406 0.0
C2181 C 0.63272 0.74005 0.35858 0.0
C2182 C 0.63119 0.78513 0.35838 0.0
H2183 H 0.57819 0.87448 0.37974 0.0
H2184 H 0.58916 0.82498 0.373 0.0
H2185 H 0.59111 0.84322 0.39532 0.0
H2186 H 0.61938 0.80108 0.40112 0.0
H2187 H 0.62186 0.72243 0.4015 0.0
H2188 H 0.39049 0.93621 0.38818 0.0
H2189 H 0.38756 0.01462 0.3899 0.0
H2190 H 0.3489 0.01262 0.34689 0.0
H2191 H 0.35125 0.93421 0.34547 0.0
H2192 H 0.39563 0.07606 0.36511 0.0
H2193 H 0.32152 0.08607 0.38226 0.0
H2194 H 0.33438 0.03642 0.38356 0.0
H2195 H 0.3259 0.05536 0.36274 0.0
C2196 C 0.38109 0.95225 0.37928 0.0
C2197 C 0.37105 0.92843 0.36673 0.0
C2198 C 0.37954 0.99729 0.38019 0.0
C2199 C 0.36781 0.01981 0.3687 0.0
C2200 C 0.35778 0.99619 0.35616 0.0
H2201 H 0.34133 0.29121 0.35087 0.0
H2202 H 0.34432 0.21279 0.34933 0.0
C2203 C 0.35933 0.95119 0.35523 0.0
C2204 C 0.36652 0.06797 0.36945 0.0
H2205 H 0.33619 0.15167 0.37434 0.0
C2206 C 0.38264 0.09254 0.36723 0.0
C2207 C 0.34958 0.08978 0.37217 0.0
C2208 C 0.33188 0.06561 0.37549 0.0
C2209 C 0.38224 0.13795 0.3673 0.0
C2210 C 0.36529 0.15976 0.36998 0.0
C2211 C 0.34918 0.13519 0.37222 0.0
C2212 C 0.36398 0.20792 0.37063 0.0
C2213 C 0.39995 0.16213 0.36403 0.0
C2214 C 0.37394 0.23173 0.38315 0.0
C2215 C 0.37237 0.27673 0.38398 0.0
C2216 C 0.36067 0.29931 0.37238 0.0
C2217 C 0.35071 0.27531 0.35985 0.0
C2218 C 0.35228 0.23027 0.35904 0.0
H2219 H 0.41036 0.14164 0.35736 0.0
H2220 H 0.39748 0.19123 0.35589 0.0
H2221 H 0.40584 0.17254 0.37679 0.0
H2222 H 0.3828 0.21544 0.39248 0.0
H2223 H 0.3804 0.29385 0.39373 0.0
H2224 H 0.34857 0.72702 0.85038 0.0
H2225 H 0.35163 0.80536 0.84808 0.0
H2226 H 0.37473 0.80986 0.9002 0.0
H2227 H 0.37239 0.73166 0.90236 0.0
H2228 H 0.33581 0.86905 0.86794 0.0
H2229 H 0.41178 0.88143 0.87358 0.0
H2230 H 0.40024 0.8309 0.86961 0.0
H2231 H 0.40137 0.85281 0.89146 0.0
C2232 C 0.35462 0.74447 0.86126 0.0
C2233 C 0.36025 0.72249 0.87656 0.0
C2234 C 0.35622 0.7895 0.85997 0.0
C2235 C 0.36365 0.81387 0.87386 0.0
C2236 C 0.36929 0.79206 0.88912 0.0
H2237 H 0.38232 0.08896 0.89298 0.0
H2238 H 0.37932 0.01064 0.89527 0.0
C2239 C 0.36771 0.74711 0.89042 0.0
C2240 C 0.36492 0.86207 0.87263 0.0
H2241 H 0.39496 0.94695 0.87553 0.0
C2242 C 0.34878 0.88599 0.86949 0.0
C2243 C 0.3818 0.88459 0.87474 0.0
C2244 C 0.39981 0.86115 0.87737 0.0
C2245 C 0.34897 0.93141 0.86874 0.0
C2246 C 0.36585 0.95393 0.87082 0.0
C2247 C 0.38199 0.93001 0.87397 0.0
C2248 C 0.36712 1.00213 0.86957 0.0
C2249 C 0.33094 0.95484 0.86619 0.0
C2250 C 0.36136 0.02396 0.85435 0.0
C2251 C 0.3629 0.06893 0.85305 0.0
C2252 C 0.37042 0.09355 0.86689 0.0
C2253 C 0.37619 0.07153 0.88213 0.0
C2254 C 0.37463 0.0265 0.88341 0.0
H2255 H 0.31899 0.93457 0.87006 0.0
H2256 H 0.33056 0.98512 0.87393 0.0
H2257 H 0.3293 0.96311 0.8521 0.0
H2258 H 0.35586 1.00616 0.8433 0.0
H2259 H 0.35812 0.08439 0.84115 0.0
H2260 H 0.65401 0.29026 0.85428 0.0
H2261 H 0.65124 0.21188 0.85207 0.0
H2262 H 0.60696 0.21388 0.88975 0.0
H2263 H 0.60916 0.29221 0.89156 0.0
H2264 H 0.65574 0.15006 0.87747 0.0
H2265 H 0.58455 0.14087 0.85129 0.0
H2266 H 0.5975 0.19046 0.85173 0.0
H2267 H 0.58626 0.17124 0.87127 0.0
C2268 C 0.64343 0.27423 0.86187 0.0
C2269 C 0.63178 0.29804 0.87306 0.0
C2270 C 0.64197 0.22919 0.8607 0.0
C2271 C 0.62871 0.20666 0.87055 0.0
C2272 C 0.61706 0.23028 0.88172 0.0
H2273 H 0.59967 0.9356 0.88503 0.0
H2274 H 0.60255 0.01398 0.88679 0.0
C2275 C 0.61852 0.27527 0.88291 0.0
C2276 C 0.62747 0.15848 0.86958 0.0
H2277 H 0.59791 0.07508 0.86095 0.0
C2278 C 0.64312 0.13373 0.87374 0.0
C2279 C 0.611 0.13683 0.86479 0.0
C2280 C 0.59392 0.16116 0.85935 0.0
C2281 C 0.64266 0.0883 0.87361 0.0
C2282 C 0.62618 0.06666 0.86885 0.0
C2283 C 0.61054 0.09141 0.86465 0.0
C2284 C 0.62487 0.01848 0.86806 0.0
C2285 C 0.65973 0.06393 0.87903 0.0
C2286 C 0.63636 0.99445 0.85689 0.0
C2287 C 0.63484 0.94942 0.85593 0.0
C2288 C 0.62169 0.92706 0.86606 0.0
C2289 C 0.61017 0.95131 0.87723 0.0
C2290 C 0.6117 0.99635 0.87815 0.0
H2291 H 0.66923 0.08433 0.8869 0.0
H2292 H 0.65614 0.03493 0.88684 0.0
H2293 H 0.66725 0.05332 0.86711 0.0
H2294 H 0.64641 0.01056 0.84869 0.0
H2295 H 0.64405 0.93212 0.84726 0.0
H2296 H 0.34264 0.9305 0.6284 0.0
H2297 H 0.33993 1.00896 0.62645 0.0
H2298 H 0.39905 0.01977 0.62298 0.0
H2299 H 0.40191 0.94161 0.62503 0.0
H2300 H 0.35338 0.07282 0.64788 0.0
H2301 H 0.3831 0.09179 0.58133 0.0
H2302 H 0.37624 0.04013 0.58997 0.0
H2303 H 0.39796 0.06354 0.59624 0.0
C2304 C 0.35511 0.94947 0.62727 0.0
C2305 C 0.37251 0.92925 0.62673 0.0
C2306 C 0.35352 0.99449 0.62608 0.0
C2307 C 0.36925 0.02058 0.62422 0.0
C2308 C 0.38663 1.00056 0.6239 0.0
H2309 H 0.3886 0.29902 0.61817 0.0
H2310 H 0.39163 0.2205 0.62012 0.0
C2311 C 0.38824 0.95561 0.62507 0.0
C2312 C 0.36752 0.06865 0.62311 0.0
H2313 H 0.37832 0.15605 0.59765 0.0
C2314 C 0.35875 0.09093 0.63683 0.0
C2315 C 0.37456 0.09263 0.60875 0.0
C2316 C 0.38334 0.07083 0.59315 0.0
C2317 C 0.35711 0.13619 0.63675 0.0
C2318 C 0.36416 0.16015 0.62241 0.0
C2319 C 0.37296 0.13791 0.60869 0.0
C2320 C 0.3623 0.20816 0.62127 0.0
C2321 C 0.34821 0.15804 0.65228 0.0
C2322 C 0.34482 0.2277 0.62104 0.0
C2323 C 0.34304 0.27261 0.61996 0.0
C2324 C 0.35871 0.29941 0.619 0.0
C2325 C 0.37622 0.27969 0.61909 0.0
C2326 C 0.37797 0.23466 0.62011 0.0
H2327 H 0.3482 0.137 0.66408 0.0
H2328 H 0.3554 0.18855 0.65557 0.0
H2329 H 0.33367 0.16576 0.64901 0.0
H2330 H 0.33247 0.20815 0.6216 0.0
H2331 H 0.32932 0.28636 0.62012 0.0
H2332 H 0.60415 0.7169 0.63527 0.0
H2333 H 0.6016 0.79541 0.63606 0.0
H2334 H 0.65238 0.80649 0.60712 0.0
H2335 H 0.65526 0.72813 0.60651 0.0
H2336 H 0.62601 0.8557 0.65053 0.0
H2337 H 0.61768 0.88445 0.57905 0.0
H2338 H 0.61493 0.83185 0.58879 0.0
H2339 H 0.63759 0.85314 0.58485 0.0
C2340 C 0.61486 0.73587 0.62911 0.0
C2341 C 0.6299 0.71563 0.62077 0.0
C2342 C 0.61331 0.78095 0.6295 0.0
C2343 C 0.62664 0.80715 0.62144 0.0
C2344 C 0.64166 0.78718 0.61309 0.0
H2345 H 0.64099 0.0873 0.61244 0.0
H2346 H 0.64421 1.00884 0.61037 0.0
C2347 C 0.64326 0.74212 0.61274 0.0
C2348 C 0.62513 0.85525 0.62229 0.0
H2349 H 0.62158 0.94612 0.59701 0.0
C2350 C 0.62496 0.87541 0.63881 0.0
C2351 C 0.6239 0.88126 0.60704 0.0
C2352 C 0.62337 0.86168 0.58892 0.0
C2353 C 0.62384 0.92055 0.64051 0.0
C2354 C 0.62239 0.94658 0.62526 0.0
C2355 C 0.62269 0.92643 0.60872 0.0
C2356 C 0.62025 0.99458 0.62624 0.0
C2357 C 0.62469 0.93993 0.65866 0.0
C2358 C 0.6055 0.01311 0.63551 0.0
C2359 C 0.60361 0.05796 0.63671 0.0
C2360 C 0.61634 0.08577 0.62853 0.0
C2361 C 0.63086 0.06713 0.61886 0.0
C2362 C 0.63276 0.02214 0.61772 0.0
H2363 H 0.63131 0.91769 0.6682 0.0
H2364 H 0.63243 0.97076 0.65864 0.0
H2365 H 0.61046 0.9464 0.66332 0.0
H2366 H 0.5953 0.99283 0.64177 0.0
H2367 H 0.59198 0.07085 0.6439 0.0
loop_
_geom_bond_atom_site_label_1
_geom_bond_atom_site_label_2
_geom_bond_distance
_geom_bond_site_symmetry_2
_ccdc_geom_bond_type
Dy0 O3 2.307 . S
Dy0 O5 2.395 . S
Dy0 O6 2.379 . S
Dy0 O8 2.339 . S
Dy0 O10 2.298 . S
Dy0 O14 2.275 . S
Dy0 C22 2.738 . S
Dy1 O4 2.298 . S
Dy1 O7 2.275 . S
Dy1 O9 2.307 . S
Dy1 O11 2.395 1_545 S
Dy1 O12 2.379 1_545 S
Dy1 O15 2.339 . S
Dy1 C31 2.738 1_545 S
C2 O14 1.254 . S
C2 O15 1.257 . S
O3 Dy0 2.307 . S
O3 C13 1.266 . S
O4 Dy1 2.298 . S
O4 C13 1.236 . S
O5 Dy0 2.395 . S
O5 C22 1.255 . S
O6 Dy0 2.379 . S
O6 C22 1.249 . S
O7 Dy1 2.275 . S
O7 C23 1.254 . S
O8 Dy0 2.339 . S
O8 C23 1.257 . S
O9 Dy1 2.307 . S
O9 C24 1.266 . S
O10 Dy0 2.298 . S
O10 C24 1.236 . S
O11 Dy1 2.395 1_565 S
O11 C31 1.255 . S
O12 Dy1 2.379 1_565 S
O12 C31 1.249 . S
C13 O3 1.266 . S
C13 O4 1.236 . S
O14 Dy0 2.275 . S
O14 C2 1.254 . S
O15 Dy1 2.339 . S
O15 C2 1.257 . S
C16 C19 1.344 . S
C16 C20 1.328 . S
C16 C22 1.516 . S
C17 C18 1.304 . S
C17 C21 1.323 . S
C18 C17 1.304 . S
C18 C19 1.371 . S
C18 H32 0.930 . S
C19 C16 1.344 . S
C19 C18 1.371 . S
C19 H33 0.931 . S
C20 C16 1.328 . S
C20 C21 1.433 . S
C20 H34 0.931 . S
C21 C17 1.323 . S
C21 C20 1.433 . S
C21 H35 0.933 . S
C22 Dy0 2.738 . S
C22 O5 1.255 . S
C22 O6 1.249 . S
C22 C16 1.516 . S
C23 O7 1.254 . S
C23 O8 1.257 . S
C24 O9 1.266 . S
C24 O10 1.236 . S
C25 C28 1.344 . S
C25 C29 1.328 . S
C25 C31 1.516 . S
C26 C27 1.304 . S
C26 C30 1.323 . S
C27 C26 1.304 . S
C27 C28 1.371 . S
C27 H36 0.930 . S
C28 C25 1.344 . S
C28 C27 1.371 . S
C28 H37 0.931 . S
C29 C25 1.328 . S
C29 C30 1.433 . S
C29 H38 0.931 . S
C30 C26 1.323 . S
C30 C29 1.433 . S
C30 H39 0.933 . S
C31 Dy1 2.738 1_565 S
C31 O11 1.255 . S
C31 O12 1.249 . S
C31 C25 1.516 . S
H32 C18 0.930 . S
H33 C19 0.931 . S
H34 C20 0.931 . S
H35 C21 0.933 . S
H36 C27 0.930 . S
H37 C28 0.931 . S
H38 C29 0.931 . S
H39 C30 0.933 . S
Dy40 O43 2.307 . S
Dy40 O45 2.395 . S
Dy40 O46 2.379 . S
Dy40 O48 2.339 . S
Dy40 O50 2.298 . S
Dy40 O54 2.275 . S
Dy40 C62 2.738 . S
Dy41 O44 2.298 . S
Dy41 O47 2.275 . S
Dy41 O49 2.307 . S
Dy41 O51 2.395 1_565 S
Dy41 O52 2.379 1_565 S
Dy41 O55 2.339 . S
Dy41 C71 2.738 1_565 S
C42 O54 1.254 . S
C42 O55 1.257 . S
O43 Dy40 2.307 . S
O43 C53 1.266 . S
O44 Dy41 2.298 . S
O44 C53 1.236 . S
O45 Dy40 2.395 . S
O45 C62 1.255 . S
O46 Dy40 2.379 . S
O46 C62 1.249 . S
O47 Dy41 2.275 . S
O47 C63 1.254 . S
O48 Dy40 2.339 . S
O48 C63 1.257 . S
O49 Dy41 2.307 . S
O49 C64 1.266 . S
O50 Dy40 2.298 . S
O50 C64 1.236 . S
O51 Dy41 2.395 1_545 S
O51 C71 1.255 . S
O52 Dy41 2.379 1_545 S
O52 C71 1.249 . S
C53 O43 1.266 . S
C53 O44 1.236 . S
O54 Dy40 2.275 . S
O54 C42 1.254 . S
O55 Dy41 2.339 . S
O55 C42 1.257 . S
C56 C59 1.344 . S
C56 C60 1.328 . S
C56 C62 1.516 . S
C57 C58 1.304 . S
C57 C61 1.323 . S
C58 C57 1.304 . S
C58 C59 1.371 . S
C58 H72 0.930 . S
C59 C56 1.344 . S
C59 C58 1.371 . S
C59 H73 0.931 . S
C60 C56 1.328 . S
C60 C61 1.433 . S
C60 H74 0.931 . S
C61 C57 1.323 . S
C61 C60 1.433 . S
C61 H75 0.933 . S
C62 Dy40 2.738 . S
C62 O45 1.255 . S
C62 O46 1.249 . S
C62 C56 1.516 . S
C63 O47 1.254 . S
C63 O48 1.257 . S
C64 O49 1.266 . S
C64 O50 1.236 . S
C65 C68 1.344 . S
C65 C69 1.328 . S
C65 C71 1.516 . S
C66 C67 1.304 . S
C66 C70 1.323 . S
C67 C66 1.304 . S
C67 C68 1.371 . S
C67 H76 0.930 . S
C68 C65 1.344 . S
C68 C67 1.371 . S
C68 H77 0.931 . S
C69 C65 1.328 . S
C69 C70 1.433 . S
C69 H78 0.931 . S
C70 C66 1.323 . S
C70 C69 1.433 . S
C70 H79 0.933 . S
C71 Dy41 2.738 1_545 S
C71 O51 1.255 . S
C71 O52 1.249 . S
C71 C65 1.516 . S
H72 C58 0.930 . S
H73 C59 0.931 . S
H74 C60 0.931 . S
H75 C61 0.933 . S
H76 C67 0.930 . S
H77 C68 0.931 . S
H78 C69 0.931 . S
H79 C70 0.933 . S
Dy80 O83 2.307 . S
Dy80 O85 2.395 . S
Dy80 O86 2.379 . S
Dy80 O88 2.339 . S
Dy80 O90 2.298 . S
Dy80 O94 2.275 . S
Dy80 C102 2.738 . S
Dy81 O84 2.298 . S
Dy81 O87 2.275 . S
Dy81 O89 2.307 . S
Dy81 O91 2.395 1_565 S
Dy81 O92 2.379 1_565 S
Dy81 O95 2.339 . S
Dy81 C111 2.738 1_565 S
C82 O94 1.254 . S
C82 O95 1.257 . S
O83 Dy80 2.307 . S
O83 C93 1.266 . S
O84 Dy81 2.298 . S
O84 C93 1.236 . S
O85 Dy80 2.395 . S
O85 C102 1.255 . S
O86 Dy80 2.379 . S
O86 C102 1.249 . S
O87 Dy81 2.275 . S
O87 C103 1.254 . S
O88 Dy80 2.339 . S
O88 C103 1.257 . S
O89 Dy81 2.307 . S
O89 C104 1.266 . S
O90 Dy80 2.298 . S
O90 C104 1.236 . S
O91 Dy81 2.395 1_545 S
O91 C111 1.255 . S
O92 Dy81 2.379 1_545 S
O92 C111 1.249 . S
C93 O83 1.266 . S
C93 O84 1.236 . S
O94 Dy80 2.275 . S
O94 C82 1.254 . S
O95 Dy81 2.339 . S
O95 C82 1.257 . S
C96 C99 1.344 . S
C96 C100 1.328 . S
C96 C102 1.516 . S
C97 C98 1.304 . S
C97 C101 1.323 . S
C98 C97 1.304 . S
C98 C99 1.371 . S
C98 H112 0.930 . S
C99 C96 1.344 . S
C99 C98 1.371 . S
C99 H113 0.931 . S
C100 C96 1.328 . S
C100 C101 1.433 . S
C100 H114 0.931 . S
C101 C97 1.323 . S
C101 C100 1.433 . S
C101 H115 0.933 . S
C102 Dy80 2.738 . S
C102 O85 1.255 . S
C102 O86 1.249 . S
C102 C96 1.516 . S
C103 O87 1.254 . S
C103 O88 1.257 . S
C104 O89 1.266 . S
C104 O90 1.236 . S
C105 C108 1.344 . S
C105 C109 1.328 . S
C105 C111 1.516 . S
C106 C107 1.304 . S
C106 C110 1.323 . S
C107 C106 1.304 . S
C107 C108 1.371 . S
C107 H116 0.930 . S
C108 C105 1.344 . S
C108 C107 1.371 . S
C108 H117 0.931 . S
C109 C105 1.328 . S
C109 C110 1.433 . S
C109 H118 0.931 . S
C110 C106 1.323 . S
C110 C109 1.433 . S
C110 H119 0.933 . S
C111 Dy81 2.738 1_545 S
C111 O91 1.255 . S
C111 O92 1.249 . S
C111 C105 1.516 . S
H112 C98 0.930 . S
H113 C99 0.931 . S
H114 C100 0.931 . S
H115 C101 0.933 . S
H116 C107 0.930 . S
H117 C108 0.931 . S
H118 C109 0.931 . S
H119 C110 0.933 . S
Dy120 O123 2.307 . S
Dy120 O125 2.395 . S
Dy120 O126 2.379 . S
Dy120 O128 2.339 . S
Dy120 O130 2.298 . S
Dy120 O134 2.275 . S
Dy120 C142 2.738 . S
Dy121 O124 2.298 . S
Dy121 O127 2.275 . S
Dy121 O129 2.307 . S
Dy121 O131 2.395 1_545 S
Dy121 O132 2.379 1_545 S
Dy121 O135 2.339 . S
Dy121 C151 2.738 1_545 S
C122 O134 1.254 . S
C122 O135 1.257 . S
O123 Dy120 2.307 . S
O123 C133 1.266 . S
O124 Dy121 2.298 . S
O124 C133 1.236 . S
O125 Dy120 2.395 . S
O125 C142 1.255 . S
O126 Dy120 2.379 . S
O126 C142 1.249 . S
O127 Dy121 2.275 . S
O127 C143 1.254 . S
O128 Dy120 2.339 . S
O128 C143 1.257 . S
O129 Dy121 2.307 . S
O129 C144 1.266 . S
O130 Dy120 2.298 . S
O130 C144 1.236 . S
O131 Dy121 2.395 1_565 S
O131 C151 1.255 . S
O132 Dy121 2.379 1_565 S
O132 C151 1.249 . S
C133 O123 1.266 . S
C133 O124 1.236 . S
O134 Dy120 2.275 . S
O134 C122 1.254 . S
O135 Dy121 2.339 . S
O135 C122 1.257 . S
C136 C139 1.344 . S
C136 C140 1.328 . S
C136 C142 1.516 . S
C137 C138 1.304 . S
C137 C141 1.323 . S
C138 C137 1.304 . S
C138 C139 1.371 . S
C138 H152 0.930 . S
C139 C136 1.344 . S
C139 C138 1.371 . S
C139 H153 0.931 . S
C140 C136 1.328 . S
C140 C141 1.433 . S
C140 H154 0.931 . S
C141 C137 1.323 . S
C141 C140 1.433 . S
C141 H155 0.933 . S
C142 Dy120 2.738 . S
C142 O125 1.255 . S
C142 O126 1.249 . S
C142 C136 1.516 . S
C143 O127 1.254 . S
C143 O128 1.257 . S
C144 O129 1.266 . S
C144 O130 1.236 . S
C145 C148 1.344 . S
C145 C149 1.328 . S
C145 C151 1.516 . S
C146 C147 1.304 . S
C146 C150 1.323 . S
C147 C146 1.304 . S
C147 C148 1.371 . S
C147 H156 0.930 . S
C148 C145 1.344 . S
C148 C147 1.371 . S
C148 H157 0.931 . S
C149 C145 1.328 . S
C149 C150 1.433 . S
C149 H158 0.931 . S
C150 C146 1.323 . S
C150 C149 1.433 . S
C150 H159 0.933 . S
C151 Dy121 2.738 1_565 S
C151 O131 1.255 . S
C151 O132 1.249 . S
C151 C145 1.516 . S
H152 C138 0.930 . S
H153 C139 0.931 . S
H154 C140 0.931 . S
H155 C141 0.933 . S
H156 C147 0.930 . S
H157 C148 0.931 . S
H158 C149 0.931 . S
H159 C150 0.933 . S
Dy160 O163 2.307 . S
Dy160 O165 2.395 1_565 S
Dy160 O166 2.379 1_565 S
Dy160 O168 2.339 . S
Dy160 O170 2.298 . S
Dy160 O174 2.275 . S
Dy160 C182 2.738 1_565 S
Dy161 O164 2.298 . S
Dy161 O167 2.275 . S
Dy161 O169 2.307 . S
Dy161 O171 2.395 . S
Dy161 O172 2.379 . S
Dy161 O175 2.339 . S
Dy161 C191 2.738 . S
C162 O174 1.254 . S
C162 O175 1.257 . S
O163 Dy160 2.307 . S
O163 C173 1.266 . S
O164 Dy161 2.298 . S
O164 C173 1.236 . S
O165 Dy160 2.395 1_545 S
O165 C182 1.255 . S
O166 Dy160 2.379 1_545 S
O166 C182 1.249 . S
O167 Dy161 2.275 . S
O167 C183 1.254 . S
O168 Dy160 2.339 . S
O168 C183 1.257 . S
O169 Dy161 2.307 . S
O169 C184 1.266 . S
O170 Dy160 2.298 . S
O170 C184 1.236 . S
O171 Dy161 2.395 . S
O171 C191 1.255 . S
O172 Dy161 2.379 . S
O172 C191 1.249 . S
C173 O163 1.266 . S
C173 O164 1.236 . S
O174 Dy160 2.275 . S
O174 C162 1.254 . S
O175 Dy161 2.339 . S
O175 C162 1.257 . S
C176 C179 1.344 . S
C176 C180 1.328 . S
C176 C182 1.516 . S
C177 C178 1.304 . S
C177 C181 1.323 . S
C178 C177 1.304 . S
C178 C179 1.371 . S
C178 H192 0.930 . S
C179 C176 1.344 . S
C179 C178 1.371 . S
C179 H193 0.931 . S
C180 C176 1.328 . S
C180 C181 1.433 . S
C180 H194 0.931 . S
C181 C177 1.323 . S
C181 C180 1.433 . S
C181 H195 0.933 . S
C182 Dy160 2.738 1_545 S
C182 O165 1.255 . S
C182 O166 1.249 . S
C182 C176 1.516 . S
C183 O167 1.254 . S
C183 O168 1.257 . S
C184 O169 1.266 . S
C184 O170 1.236 . S
C185 C188 1.344 . S
C185 C189 1.328 . S
C185 C191 1.516 . S
C186 C187 1.304 . S
C186 C190 1.323 . S
C187 C186 1.304 . S
C187 C188 1.371 . S
C187 H196 0.930 . S
C188 C185 1.344 . S
C188 C187 1.371 . S
C188 H197 0.931 . S
C189 C185 1.328 . S
C189 C190 1.433 . S
C189 H198 0.931 . S
C190 C186 1.323 . S
C190 C189 1.433 . S
C190 H199 0.933 . S
C191 Dy161 2.738 . S
C191 O171 1.255 . S
C191 O172 1.249 . S
C191 C185 1.516 . S
H192 C178 0.930 . S
H193 C179 0.931 . S
H194 C180 0.931 . S
H195 C181 0.933 . S
H196 C187 0.930 . S
H197 C188 0.931 . S
H198 C189 0.931 . S
H199 C190 0.933 . S
Dy200 O203 2.307 . S
Dy200 O205 2.395 1_545 S
Dy200 O206 2.379 1_545 S
Dy200 O208 2.339 . S
Dy200 O210 2.298 . S
Dy200 O214 2.275 . S
Dy200 C222 2.738 1_545 S
Dy201 O204 2.298 . S
Dy201 O207 2.275 . S
Dy201 O209 2.307 . S
Dy201 O211 2.395 . S
Dy201 O212 2.379 . S
Dy201 O215 2.339 . S
Dy201 C231 2.738 . S
C202 O214 1.254 . S
C202 O215 1.257 . S
O203 Dy200 2.307 . S
O203 C213 1.266 . S
O204 Dy201 2.298 . S
O204 C213 1.236 . S
O205 Dy200 2.395 1_565 S
O205 C222 1.255 . S
O206 Dy200 2.379 1_565 S
O206 C222 1.249 . S
O207 Dy201 2.275 . S
O207 C223 1.254 . S
O208 Dy200 2.339 . S
O208 C223 1.257 . S
O209 Dy201 2.307 . S
O209 C224 1.266 . S
O210 Dy200 2.298 . S
O210 C224 1.236 . S
O211 Dy201 2.395 . S
O211 C231 1.255 . S
O212 Dy201 2.379 . S
O212 C231 1.249 . S
C213 O203 1.266 . S
C213 O204 1.236 . S
O214 Dy200 2.275 . S
O214 C202 1.254 . S
O215 Dy201 2.339 . S
O215 C202 1.257 . S
C216 C219 1.344 . S
C216 C220 1.328 . S
C216 C222 1.516 . S
C217 C218 1.304 . S
C217 C221 1.323 . S
C218 C217 1.304 . S
C218 C219 1.371 . S
C218 H232 0.930 . S
C219 C216 1.344 . S
C219 C218 1.371 . S
C219 H233 0.931 . S
C220 C216 1.328 . S
C220 C221 1.433 . S
C220 H234 0.931 . S
C221 C217 1.323 . S
C221 C220 1.433 . S
C221 H235 0.933 . S
C222 Dy200 2.738 1_565 S
C222 O205 1.255 . S
C222 O206 1.249 . S
C222 C216 1.516 . S
C223 O207 1.254 . S
C223 O208 1.257 . S
C224 O209 1.266 . S
C224 O210 1.236 . S
C225 C228 1.344 . S
C225 C229 1.328 . S
C225 C231 1.516 . S
C226 C227 1.304 . S
C226 C230 1.323 . S
C227 C226 1.304 . S
C227 C228 1.371 . S
C227 H236 0.930 . S
C228 C225 1.344 . S
C228 C227 1.371 . S
C228 H237 0.931 . S
C229 C225 1.328 . S
C229 C230 1.433 . S
C229 H238 0.931 . S
C230 C226 1.323 . S
C230 C229 1.433 . S
C230 H239 0.933 . S
C231 Dy201 2.738 . S
C231 O211 1.255 . S
C231 O212 1.249 . S
C231 C225 1.516 . S
H232 C218 0.930 . S
H233 C219 0.931 . S
H234 C220 0.931 . S
H235 C221 0.933 . S
H236 C227 0.930 . S
H237 C228 0.931 . S
H238 C229 0.931 . S
H239 C230 0.933 . S
Dy240 O243 2.307 . S
Dy240 O245 2.395 1_545 S
Dy240 O246 2.379 1_545 S
Dy240 O248 2.339 . S
Dy240 O250 2.298 . S
Dy240 O254 2.275 . S
Dy240 C262 2.738 1_545 S
Dy241 O244 2.298 . S
Dy241 O247 2.275 . S
Dy241 O249 2.307 . S
Dy241 O251 2.395 . S
Dy241 O252 2.379 . S
Dy241 O255 2.339 . S
Dy241 C271 2.738 . S
C242 O254 1.254 . S
C242 O255 1.257 . S
O243 Dy240 2.307 . S
O243 C253 1.266 . S
O244 Dy241 2.298 . S
O244 C253 1.236 . S
O245 Dy240 2.395 1_565 S
O245 C262 1.255 . S
O246 Dy240 2.379 1_565 S
O246 C262 1.249 . S
O247 Dy241 2.275 . S
O247 C263 1.254 . S
O248 Dy240 2.339 . S
O248 C263 1.257 . S
O249 Dy241 2.307 . S
O249 C264 1.266 . S
O250 Dy240 2.298 . S
O250 C264 1.236 . S
O251 Dy241 2.395 . S
O251 C271 1.255 . S
O252 Dy241 2.379 . S
O252 C271 1.249 . S
C253 O243 1.266 . S
C253 O244 1.236 . S
O254 Dy240 2.275 . S
O254 C242 1.254 . S
O255 Dy241 2.339 . S
O255 C242 1.257 . S
C256 C259 1.344 . S
C256 C260 1.328 . S
C256 C262 1.516 . S
C257 C258 1.304 . S
C257 C261 1.323 . S
C258 C257 1.304 . S
C258 C259 1.371 . S
C258 H272 0.930 . S
C259 C256 1.344 . S
C259 C258 1.371 . S
C259 H273 0.931 . S
C260 C256 1.328 . S
C260 C261 1.433 . S
C260 H274 0.931 . S
C261 C257 1.323 . S
C261 C260 1.433 . S
C261 H275 0.933 . S
C262 Dy240 2.738 1_565 S
C262 O245 1.255 . S
C262 O246 1.249 . S
C262 C256 1.516 . S
C263 O247 1.254 . S
C263 O248 1.257 . S
C264 O249 1.266 . S
C264 O250 1.236 . S
C265 C268 1.344 . S
C265 C269 1.328 . S
C265 C271 1.516 . S
C266 C267 1.304 . S
C266 C270 1.323 . S
C267 C266 1.304 . S
C267 C268 1.371 . S
C267 H276 0.930 . S
C268 C265 1.344 . S
C268 C267 1.371 . S
C268 H277 0.931 . S
C269 C265 1.328 . S
C269 C270 1.433 . S
C269 H278 0.931 . S
C270 C266 1.323 . S
C270 C269 1.433 . S
C270 H279 0.933 . S
C271 Dy241 2.738 . S
C271 O251 1.255 . S
C271 O252 1.249 . S
C271 C265 1.516 . S
H272 C258 0.930 . S
H273 C259 0.931 . S
H274 C260 0.931 . S
H275 C261 0.933 . S
H276 C267 0.930 . S
H277 C268 0.931 . S
H278 C269 0.931 . S
H279 C270 0.933 . S
Dy280 O283 2.307 . S
Dy280 O285 2.395 1_565 S
Dy280 O286 2.379 1_565 S
Dy280 O288 2.339 . S
Dy280 O290 2.298 . S
Dy280 O294 2.275 . S
Dy280 C302 2.738 1_565 S
Dy281 O284 2.298 . S
Dy281 O287 2.275 . S
Dy281 O289 2.307 . S
Dy281 O291 2.395 . S
Dy281 O292 2.379 . S
Dy281 O295 2.339 . S
Dy281 C311 2.738 . S
C282 O294 1.254 . S
C282 O295 1.257 . S
O283 Dy280 2.307 . S
O283 C293 1.266 . S
O284 Dy281 2.298 . S
O284 C293 1.236 . S
O285 Dy280 2.395 1_545 S
O285 C302 1.255 . S
O286 Dy280 2.379 1_545 S
O286 C302 1.249 . S
O287 Dy281 2.275 . S
O287 C303 1.254 . S
O288 Dy280 2.339 . S
O288 C303 1.257 . S
O289 Dy281 2.307 . S
O289 C304 1.266 . S
O290 Dy280 2.298 . S
O290 C304 1.236 . S
O291 Dy281 2.395 . S
O291 C311 1.255 . S
O292 Dy281 2.379 . S
O292 C311 1.249 . S
C293 O283 1.266 . S
C293 O284 1.236 . S
O294 Dy280 2.275 . S
O294 C282 1.254 . S
O295 Dy281 2.339 . S
O295 C282 1.257 . S
C296 C299 1.344 . S
C296 C300 1.328 . S
C296 C302 1.516 . S
C297 C298 1.304 . S
C297 C301 1.323 . S
C298 C297 1.304 . S
C298 C299 1.371 . S
C298 H312 0.930 . S
C299 C296 1.344 . S
C299 C298 1.371 . S
C299 H313 0.931 . S
C300 C296 1.328 . S
C300 C301 1.433 . S
C300 H314 0.931 . S
C301 C297 1.323 . S
C301 C300 1.433 . S
C301 H315 0.933 . S
C302 Dy280 2.738 1_545 S
C302 O285 1.255 . S
C302 O286 1.249 . S
C302 C296 1.516 . S
C303 O287 1.254 . S
C303 O288 1.257 . S
C304 O289 1.266 . S
C304 O290 1.236 . S
C305 C308 1.344 . S
C305 C309 1.328 . S
C305 C311 1.516 . S
C306 C307 1.304 . S
C306 C310 1.323 . S
C307 C306 1.304 . S
C307 C308 1.371 . S
C307 H316 0.930 . S
C308 C305 1.344 . S
C308 C307 1.371 . S
C308 H317 0.931 . S
C309 C305 1.328 . S
C309 C310 1.433 . S
C309 H318 0.931 . S
C310 C306 1.323 . S
C310 C309 1.433 . S
C310 H319 0.933 . S
C311 Dy281 2.738 . S
C311 O291 1.255 . S
C311 O292 1.249 . S
C311 C305 1.516 . S
H312 C298 0.930 . S
H313 C299 0.931 . S
H314 C300 0.931 . S
H315 C301 0.933 . S
H316 C307 0.930 . S
H317 C308 0.931 . S
H318 C309 0.931 . S
H319 C310 0.933 . S
Dy320 O323 2.307 . S
Dy320 O325 2.395 . S
Dy320 O326 2.379 . S
Dy320 O328 2.339 . S
Dy320 O330 2.298 . S
Dy320 O334 2.275 . S
Dy320 C342 2.738 . S
Dy321 O324 2.298 . S
Dy321 O327 2.275 . S
Dy321 O329 2.307 . S
Dy321 O331 2.395 . S
Dy321 O332 2.379 . S
Dy321 O335 2.339 . S
Dy321 C351 2.738 . S
C322 O334 1.254 . S
C322 O335 1.257 . S
O323 Dy320 2.307 . S
O323 C333 1.266 . S
O324 Dy321 2.298 . S
O324 C333 1.236 . S
O325 Dy320 2.395 . S
O325 C342 1.255 . S
O326 Dy320 2.379 . S
O326 C342 1.249 . S
O327 Dy321 2.275 . S
O327 C343 1.254 . S
O328 Dy320 2.339 . S
O328 C343 1.257 . S
O329 Dy321 2.307 . S
O329 C344 1.266 . S
O330 Dy320 2.298 . S
O330 C344 1.236 . S
O331 Dy321 2.395 . S
O331 C351 1.255 . S
O332 Dy321 2.379 . S
O332 C351 1.249 . S
C333 O323 1.266 . S
C333 O324 1.236 . S
O334 Dy320 2.275 . S
O334 C322 1.254 . S
O335 Dy321 2.339 . S
O335 C322 1.257 . S
C336 C339 1.344 . S
C336 C340 1.328 . S
C336 C342 1.516 . S
C337 C338 1.304 . S
C337 C341 1.323 . S
C338 C337 1.304 . S
C338 C339 1.371 . S
C338 H352 0.930 . S
C339 C336 1.344 . S
C339 C338 1.371 . S
C339 H353 0.931 . S
C340 C336 1.328 . S
C340 C341 1.433 . S
C340 H354 0.931 . S
C341 C337 1.323 . S
C341 C340 1.433 . S
C341 H355 0.933 . S
C342 Dy320 2.738 . S
C342 O325 1.255 . S
C342 O326 1.249 . S
C342 C336 1.516 . S
C343 O327 1.254 . S
C343 O328 1.257 . S
C344 O329 1.266 . S
C344 O330 1.236 . S
C345 C348 1.344 . S
C345 C349 1.328 . S
C345 C351 1.516 . S
C346 C347 1.304 . S
C346 C350 1.323 . S
C347 C346 1.304 . S
C347 C348 1.371 . S
C347 H356 0.930 . S
C348 C345 1.344 . S
C348 C347 1.371 . S
C348 H357 0.931 . S
C349 C345 1.328 . S
C349 C350 1.433 . S
C349 H358 0.931 . S
C350 C346 1.323 . S
C350 C349 1.433 . S
C350 H359 0.933 . S
C351 Dy321 2.738 . S
C351 O331 1.255 . S
C351 O332 1.249 . S
C351 C345 1.516 . S
H352 C338 0.930 . S
H353 C339 0.931 . S
H354 C340 0.931 . S
H355 C341 0.933 . S
H356 C347 0.930 . S
H357 C348 0.931 . S
H358 C349 0.931 . S
H359 C350 0.933 . S
Dy360 O363 2.307 . S
Dy360 O365 2.395 . S
Dy360 O366 2.379 . S
Dy360 O368 2.339 . S
Dy360 O370 2.298 . S
Dy360 O374 2.275 . S
Dy360 C382 2.738 . S
Dy361 O364 2.298 . S
Dy361 O367 2.275 . S
Dy361 O369 2.307 . S
Dy361 O371 2.395 . S
Dy361 O372 2.379 . S
Dy361 O375 2.339 . S
Dy361 C391 2.738 . S
C362 O374 1.254 . S
C362 O375 1.257 . S
O363 Dy360 2.307 . S
O363 C373 1.266 . S
O364 Dy361 2.298 . S
O364 C373 1.236 . S
O365 Dy360 2.395 . S
O365 C382 1.255 . S
O366 Dy360 2.379 . S
O366 C382 1.249 . S
O367 Dy361 2.275 . S
O367 C383 1.254 . S
O368 Dy360 2.339 . S
O368 C383 1.257 . S
O369 Dy361 2.307 . S
O369 C384 1.266 . S
O370 Dy360 2.298 . S
O370 C384 1.236 . S
O371 Dy361 2.395 . S
O371 C391 1.255 . S
O372 Dy361 2.379 . S
O372 C391 1.249 . S
C373 O363 1.266 . S
C373 O364 1.236 . S
O374 Dy360 2.275 . S
O374 C362 1.254 . S
O375 Dy361 2.339 . S
O375 C362 1.257 . S
C376 C379 1.344 . S
C376 C380 1.328 . S
C376 C382 1.516 . S
C377 C378 1.304 . S
C377 C381 1.323 . S
C378 C377 1.304 . S
C378 C379 1.371 . S
C378 H392 0.930 . S
C379 C376 1.344 . S
C379 C378 1.371 . S
C379 H393 0.931 . S
C380 C376 1.328 . S
C380 C381 1.433 . S
C380 H394 0.931 . S
C381 C377 1.323 . S
C381 C380 1.433 . S
C381 H395 0.933 . S
C382 Dy360 2.738 . S
C382 O365 1.255 . S
C382 O366 1.249 . S
C382 C376 1.516 . S
C383 O367 1.254 . S
C383 O368 1.257 . S
C384 O369 1.266 . S
C384 O370 1.236 . S
C385 C388 1.344 . S
C385 C389 1.328 . S
C385 C391 1.516 . S
C386 C387 1.304 . S
C386 C390 1.323 . S
C387 C386 1.304 . S
C387 C388 1.371 . S
C387 H396 0.930 . S
C388 C385 1.344 . S
C388 C387 1.371 . S
C388 H397 0.931 . S
C389 C385 1.328 . S
C389 C390 1.433 . S
C389 H398 0.931 . S
C390 C386 1.323 . S
C390 C389 1.433 . S
C390 H399 0.933 . S
C391 Dy361 2.738 . S
C391 O371 1.255 . S
C391 O372 1.249 . S
C391 C385 1.516 . S
H392 C378 0.930 . S
H393 C379 0.931 . S
H394 C380 0.931 . S
H395 C381 0.933 . S
H396 C387 0.930 . S
H397 C388 0.931 . S
H398 C389 0.931 . S
H399 C390 0.933 . S
Dy400 O403 2.307 . S
Dy400 O405 2.395 . S
Dy400 O406 2.379 . S
Dy400 O408 2.339 . S
Dy400 O410 2.298 . S
Dy400 O414 2.275 . S
Dy400 C422 2.738 . S
Dy401 O404 2.298 . S
Dy401 O407 2.275 . S
Dy401 O409 2.307 . S
Dy401 O411 2.395 . S
Dy401 O412 2.379 . S
Dy401 O415 2.339 . S
Dy401 C431 2.738 . S
C402 O414 1.254 . S
C402 O415 1.257 . S
O403 Dy400 2.307 . S
O403 C413 1.266 . S
O404 Dy401 2.298 . S
O404 C413 1.236 . S
O405 Dy400 2.395 . S
O405 C422 1.255 . S
O406 Dy400 2.379 . S
O406 C422 1.249 . S
O407 Dy401 2.275 . S
O407 C423 1.254 . S
O408 Dy400 2.339 . S
O408 C423 1.257 . S
O409 Dy401 2.307 . S
O409 C424 1.266 . S
O410 Dy400 2.298 . S
O410 C424 1.236 . S
O411 Dy401 2.395 . S
O411 C431 1.255 . S
O412 Dy401 2.379 . S
O412 C431 1.249 . S
C413 O403 1.266 . S
C413 O404 1.236 . S
O414 Dy400 2.275 . S
O414 C402 1.254 . S
O415 Dy401 2.339 . S
O415 C402 1.257 . S
C416 C419 1.344 . S
C416 C420 1.328 . S
C416 C422 1.516 . S
C417 C418 1.304 . S
C417 C421 1.323 . S
C418 C417 1.304 . S
C418 C419 1.371 . S
C418 H432 0.930 . S
C419 C416 1.344 . S
C419 C418 1.371 . S
C419 H433 0.931 . S
C420 C416 1.328 . S
C420 C421 1.433 . S
C420 H434 0.931 . S
C421 C417 1.323 . S
C421 C420 1.433 . S
C421 H435 0.933 . S
C422 Dy400 2.738 . S
C422 O405 1.255 . S
C422 O406 1.249 . S
C422 C416 1.516 . S
C423 O407 1.254 . S
C423 O408 1.257 . S
C424 O409 1.266 . S
C424 O410 1.236 . S
C425 C428 1.344 . S
C425 C429 1.328 . S
C425 C431 1.516 . S
C426 C427 1.304 . S
C426 C430 1.323 . S
C427 C426 1.304 . S
C427 C428 1.371 . S
C427 H436 0.930 . S
C428 C425 1.344 . S
C428 C427 1.371 . S
C428 H437 0.931 . S
C429 C425 1.328 . S
C429 C430 1.433 . S
C429 H438 0.931 . S
C430 C426 1.323 . S
C430 C429 1.433 . S
C430 H439 0.933 . S
C431 Dy401 2.738 . S
C431 O411 1.255 . S
C431 O412 1.249 . S
C431 C425 1.516 . S
H432 C418 0.930 . S
H433 C419 0.931 . S
H434 C420 0.931 . S
H435 C421 0.933 . S
H436 C427 0.930 . S
H437 C428 0.931 . S
H438 C429 0.931 . S
H439 C430 0.933 . S
Dy440 O443 2.307 . S
Dy440 O445 2.395 . S
Dy440 O446 2.379 . S
Dy440 O448 2.339 . S
Dy440 O450 2.298 . S
Dy440 O454 2.275 . S
Dy440 C462 2.738 . S
Dy441 O444 2.298 . S
Dy441 O447 2.275 . S
Dy441 O449 2.307 . S
Dy441 O451 2.395 . S
Dy441 O452 2.379 . S
Dy441 O455 2.339 . S
Dy441 C471 2.738 . S
C442 O454 1.254 . S
C442 O455 1.257 . S
O443 Dy440 2.307 . S
O443 C453 1.266 . S
O444 Dy441 2.298 . S
O444 C453 1.236 . S
O445 Dy440 2.395 . S
O445 C462 1.255 . S
O446 Dy440 2.379 . S
O446 C462 1.249 . S
O447 Dy441 2.275 . S
O447 C463 1.254 . S
O448 Dy440 2.339 . S
O448 C463 1.257 . S
O449 Dy441 2.307 . S
O449 C464 1.266 . S
O450 Dy440 2.298 . S
O450 C464 1.236 . S
O451 Dy441 2.395 . S
O451 C471 1.255 . S
O452 Dy441 2.379 . S
O452 C471 1.249 . S
C453 O443 1.266 . S
C453 O444 1.236 . S
O454 Dy440 2.275 . S
O454 C442 1.254 . S
O455 Dy441 2.339 . S
O455 C442 1.257 . S
C456 C459 1.344 . S
C456 C460 1.328 . S
C456 C462 1.516 . S
C457 C458 1.304 . S
C457 C461 1.323 . S
C458 C457 1.304 . S
C458 C459 1.371 . S
C458 H472 0.930 . S
C459 C456 1.344 . S
C459 C458 1.371 . S
C459 H473 0.931 . S
C460 C456 1.328 . S
C460 C461 1.433 . S
C460 H474 0.931 . S
C461 C457 1.323 . S
C461 C460 1.433 . S
C461 H475 0.933 . S
C462 Dy440 2.738 . S
C462 O445 1.255 . S
C462 O446 1.249 . S
C462 C456 1.516 . S
C463 O447 1.254 . S
C463 O448 1.257 . S
C464 O449 1.266 . S
C464 O450 1.236 . S
C465 C468 1.344 . S
C465 C469 1.328 . S
C465 C471 1.516 . S
C466 C467 1.304 . S
C466 C470 1.323 . S
C467 C466 1.304 . S
C467 C468 1.371 . S
C467 H476 0.930 . S
C468 C465 1.344 . S
C468 C467 1.371 . S
C468 H477 0.931 . S
C469 C465 1.328 . S
C469 C470 1.433 . S
C469 H478 0.931 . S
C470 C466 1.323 . S
C470 C469 1.433 . S
C470 H479 0.933 . S
C471 Dy441 2.738 . S
C471 O451 1.255 . S
C471 O452 1.249 . S
C471 C465 1.516 . S
H472 C458 0.930 . S
H473 C459 0.931 . S
H474 C460 0.931 . S
H475 C461 0.933 . S
H476 C467 0.930 . S
H477 C468 0.931 . S
H478 C469 0.931 . S
H479 C470 0.933 . S
Dy480 O483 2.307 . S
Dy480 O485 2.395 . S
Dy480 O486 2.379 . S
Dy480 O488 2.339 . S
Dy480 O490 2.298 . S
Dy480 O494 2.275 . S
Dy480 C502 2.738 . S
Dy481 O484 2.298 . S
Dy481 O487 2.275 . S
Dy481 O489 2.307 . S
Dy481 O491 2.395 . S
Dy481 O492 2.379 . S
Dy481 O495 2.339 . S
Dy481 C511 2.738 . S
C482 O494 1.254 . S
C482 O495 1.257 . S
O483 Dy480 2.307 . S
O483 C493 1.266 . S
O484 Dy481 2.298 . S
O484 C493 1.236 . S
O485 Dy480 2.395 . S
O485 C502 1.255 . S
O486 Dy480 2.379 . S
O486 C502 1.249 . S
O487 Dy481 2.275 . S
O487 C503 1.254 . S
O488 Dy480 2.339 . S
O488 C503 1.257 . S
O489 Dy481 2.307 . S
O489 C504 1.266 . S
O490 Dy480 2.298 . S
O490 C504 1.236 . S
O491 Dy481 2.395 . S
O491 C511 1.255 . S
O492 Dy481 2.379 . S
O492 C511 1.249 . S
C493 O483 1.266 . S
C493 O484 1.236 . S
O494 Dy480 2.275 . S
O494 C482 1.254 . S
O495 Dy481 2.339 . S
O495 C482 1.257 . S
C496 C499 1.344 . S
C496 C500 1.328 . S
C496 C502 1.516 . S
C497 C498 1.304 . S
C497 C501 1.323 . S
C498 C497 1.304 . S
C498 C499 1.371 . S
C498 H512 0.930 . S
C499 C496 1.344 . S
C499 C498 1.371 . S
C499 H513 0.931 . S
C500 C496 1.328 . S
C500 C501 1.433 . S
C500 H514 0.931 . S
C501 C497 1.323 . S
C501 C500 1.433 . S
C501 H515 0.933 . S
C502 Dy480 2.738 . S
C502 O485 1.255 . S
C502 O486 1.249 . S
C502 C496 1.516 . S
C503 O487 1.254 . S
C503 O488 1.257 . S
C504 O489 1.266 . S
C504 O490 1.236 . S
C505 C508 1.344 . S
C505 C509 1.328 . S
C505 C511 1.516 . S
C506 C507 1.304 . S
C506 C510 1.323 . S
C507 C506 1.304 . S
C507 C508 1.371 . S
C507 H516 0.930 . S
C508 C505 1.344 . S
C508 C507 1.371 . S
C508 H517 0.931 . S
C509 C505 1.328 . S
C509 C510 1.433 . S
C509 H518 0.931 . S
C510 C506 1.323 . S
C510 C509 1.433 . S
C510 H519 0.933 . S
C511 Dy481 2.738 . S
C511 O491 1.255 . S
C511 O492 1.249 . S
C511 C505 1.516 . S
H512 C498 0.930 . S
H513 C499 0.931 . S
H514 C500 0.931 . S
H515 C501 0.933 . S
H516 C507 0.930 . S
H517 C508 0.931 . S
H518 C509 0.931 . S
H519 C510 0.933 . S
Dy520 O523 2.307 . S
Dy520 O525 2.395 . S
Dy520 O526 2.379 . S
Dy520 O528 2.339 . S
Dy520 O530 2.298 . S
Dy520 O534 2.275 . S
Dy520 C542 2.738 . S
Dy521 O524 2.298 . S
Dy521 O527 2.275 . S
Dy521 O529 2.307 . S
Dy521 O531 2.395 . S
Dy521 O532 2.379 . S
Dy521 O535 2.339 . S
Dy521 C551 2.738 . S
C522 O534 1.254 . S
C522 O535 1.257 . S
O523 Dy520 2.307 . S
O523 C533 1.266 . S
O524 Dy521 2.298 . S
O524 C533 1.236 . S
O525 Dy520 2.395 . S
O525 C542 1.255 . S
O526 Dy520 2.379 . S
O526 C542 1.249 . S
O527 Dy521 2.275 . S
O527 C543 1.254 . S
O528 Dy520 2.339 . S
O528 C543 1.257 . S
O529 Dy521 2.307 . S
O529 C544 1.266 . S
O530 Dy520 2.298 . S
O530 C544 1.236 . S
O531 Dy521 2.395 . S
O531 C551 1.255 . S
O532 Dy521 2.379 . S
O532 C551 1.249 . S
C533 O523 1.266 . S
C533 O524 1.236 . S
O534 Dy520 2.275 . S
O534 C522 1.254 . S
O535 Dy521 2.339 . S
O535 C522 1.257 . S
C536 C539 1.344 . S
C536 C540 1.328 . S
C536 C542 1.516 . S
C537 C538 1.304 . S
C537 C541 1.323 . S
C538 C537 1.304 . S
C538 C539 1.371 . S
C538 H552 0.930 . S
C539 C536 1.344 . S
C539 C538 1.371 . S
C539 H553 0.931 . S
C540 C536 1.328 . S
C540 C541 1.433 . S
C540 H554 0.931 . S
C541 C537 1.323 . S
C541 C540 1.433 . S
C541 H555 0.933 . S
C542 Dy520 2.738 . S
C542 O525 1.255 . S
C542 O526 1.249 . S
C542 C536 1.516 . S
C543 O527 1.254 . S
C543 O528 1.257 . S
C544 O529 1.266 . S
C544 O530 1.236 . S
C545 C548 1.344 . S
C545 C549 1.328 . S
C545 C551 1.516 . S
C546 C547 1.304 . S
C546 C550 1.323 . S
C547 C546 1.304 . S
C547 C548 1.371 . S
C547 H556 0.930 . S
C548 C545 1.344 . S
C548 C547 1.371 . S
C548 H557 0.931 . S
C549 C545 1.328 . S
C549 C550 1.433 . S
C549 H558 0.931 . S
C550 C546 1.323 . S
C550 C549 1.433 . S
C550 H559 0.933 . S
C551 Dy521 2.738 . S
C551 O531 1.255 . S
C551 O532 1.249 . S
C551 C545 1.516 . S
H552 C538 0.930 . S
H553 C539 0.931 . S
H554 C540 0.931 . S
H555 C541 0.933 . S
H556 C547 0.930 . S
H557 C548 0.931 . S
H558 C549 0.931 . S
H559 C550 0.933 . S
Dy560 O563 2.307 . S
Dy560 O565 2.395 . S
Dy560 O566 2.379 . S
Dy560 O568 2.339 . S
Dy560 O570 2.298 . S
Dy560 O574 2.275 . S
Dy560 C582 2.738 . S
Dy561 O564 2.298 . S
Dy561 O567 2.275 . S
Dy561 O569 2.307 . S
Dy561 O571 2.395 . S
Dy561 O572 2.379 . S
Dy561 O575 2.339 . S
Dy561 C591 2.738 . S
C562 O574 1.254 . S
C562 O575 1.257 . S
O563 Dy560 2.307 . S
O563 C573 1.266 . S
O564 Dy561 2.298 . S
O564 C573 1.236 . S
O565 Dy560 2.395 . S
O565 C582 1.255 . S
O566 Dy560 2.379 . S
O566 C582 1.249 . S
O567 Dy561 2.275 . S
O567 C583 1.254 . S
O568 Dy560 2.339 . S
O568 C583 1.257 . S
O569 Dy561 2.307 . S
O569 C584 1.266 . S
O570 Dy560 2.298 . S
O570 C584 1.236 . S
O571 Dy561 2.395 . S
O571 C591 1.255 . S
O572 Dy561 2.379 . S
O572 C591 1.249 . S
C573 O563 1.266 . S
C573 O564 1.236 . S
O574 Dy560 2.275 . S
O574 C562 1.254 . S
O575 Dy561 2.339 . S
O575 C562 1.257 . S
C576 C579 1.344 . S
C576 C580 1.328 . S
C576 C582 1.516 . S
C577 C578 1.304 . S
C577 C581 1.323 . S
C578 C577 1.304 . S
C578 C579 1.371 . S
C578 H592 0.930 . S
C579 C576 1.344 . S
C579 C578 1.371 . S
C579 H593 0.931 . S
C580 C576 1.328 . S
C580 C581 1.433 . S
C580 H594 0.931 . S
C581 C577 1.323 . S
C581 C580 1.433 . S
C581 H595 0.933 . S
C582 Dy560 2.738 . S
C582 O565 1.255 . S
C582 O566 1.249 . S
C582 C576 1.516 . S
C583 O567 1.254 . S
C583 O568 1.257 . S
C584 O569 1.266 . S
C584 O570 1.236 . S
C585 C588 1.344 . S
C585 C589 1.328 . S
C585 C591 1.516 . S
C586 C587 1.304 . S
C586 C590 1.323 . S
C587 C586 1.304 . S
C587 C588 1.371 . S
C587 H596 0.930 . S
C588 C585 1.344 . S
C588 C587 1.371 . S
C588 H597 0.931 . S
C589 C585 1.328 . S
C589 C590 1.433 . S
C589 H598 0.931 . S
C590 C586 1.323 . S
C590 C589 1.433 . S
C590 H599 0.933 . S
C591 Dy561 2.738 . S
C591 O571 1.255 . S
C591 O572 1.249 . S
C591 C585 1.516 . S
H592 C578 0.930 . S
H593 C579 0.931 . S
H594 C580 0.931 . S
H595 C581 0.933 . S
H596 C587 0.930 . S
H597 C588 0.931 . S
H598 C589 0.931 . S
H599 C590 0.933 . S
Dy600 O603 2.307 . S
Dy600 O605 2.395 . S
Dy600 O606 2.379 . S
Dy600 O608 2.339 . S
Dy600 O610 2.298 . S
Dy600 O614 2.275 . S
Dy600 C622 2.738 . S
Dy601 O604 2.298 . S
Dy601 O607 2.275 . S
Dy601 O609 2.307 . S
Dy601 O611 2.395 . S
Dy601 O612 2.379 . S
Dy601 O615 2.339 . S
Dy601 C631 2.738 . S
C602 O614 1.254 . S
C602 O615 1.257 . S
O603 Dy600 2.307 . S
O603 C613 1.266 . S
O604 Dy601 2.298 . S
O604 C613 1.236 . S
O605 Dy600 2.395 . S
O605 C622 1.255 . S
O606 Dy600 2.379 . S
O606 C622 1.249 . S
O607 Dy601 2.275 . S
O607 C623 1.254 . S
O608 Dy600 2.339 . S
O608 C623 1.257 . S
O609 Dy601 2.307 . S
O609 C624 1.266 . S
O610 Dy600 2.298 . S
O610 C624 1.236 . S
O611 Dy601 2.395 . S
O611 C631 1.255 . S
O612 Dy601 2.379 . S
O612 C631 1.249 . S
C613 O603 1.266 . S
C613 O604 1.236 . S
O614 Dy600 2.275 . S
O614 C602 1.254 . S
O615 Dy601 2.339 . S
O615 C602 1.257 . S
C616 C619 1.344 . S
C616 C620 1.328 . S
C616 C622 1.516 . S
C617 C618 1.304 . S
C617 C621 1.323 . S
C618 C617 1.304 . S
C618 C619 1.371 . S
C618 H632 0.930 . S
C619 C616 1.344 . S
C619 C618 1.371 . S
C619 H633 0.931 . S
C620 C616 1.328 . S
C620 C621 1.433 . S
C620 H634 0.931 . S
C621 C617 1.323 . S
C621 C620 1.433 . S
C621 H635 0.933 . S
C622 Dy600 2.738 . S
C622 O605 1.255 . S
C622 O606 1.249 . S
C622 C616 1.516 . S
C623 O607 1.254 . S
C623 O608 1.257 . S
C624 O609 1.266 . S
C624 O610 1.236 . S
C625 C628 1.344 . S
C625 C629 1.328 . S
C625 C631 1.516 . S
C626 C627 1.304 . S
C626 C630 1.323 . S
C627 C626 1.304 . S
C627 C628 1.371 . S
C627 H636 0.930 . S
C628 C625 1.344 . S
C628 C627 1.371 . S
C628 H637 0.931 . S
C629 C625 1.328 . S
C629 C630 1.433 . S
C629 H638 0.931 . S
C630 C626 1.323 . S
C630 C629 1.433 . S
C630 H639 0.933 . S
C631 Dy601 2.738 . S
C631 O611 1.255 . S
C631 O612 1.249 . S
C631 C625 1.516 . S
H632 C618 0.930 . S
H633 C619 0.931 . S
H634 C620 0.931 . S
H635 C621 0.933 . S
H636 C627 0.930 . S
H637 C628 0.931 . S
H638 C629 0.931 . S
H639 C630 0.933 . S
H640 C648 0.929 . S
H641 C650 0.930 . S
H642 C652 0.930 . S
H643 C655 0.929 . S
H644 C658 0.930 . S
H645 C660 0.960 . S
H646 C660 0.960 . S
H647 C660 0.960 . S
C648 H640 0.929 . S
C648 C649 1.377 . S
C648 C650 1.384 . S
C649 C648 1.377 . S
C649 C655 1.390 . S
C650 H641 0.930 . S
C650 C648 1.384 . S
C650 C651 1.372 . S
C651 C650 1.372 . S
C651 C652 1.400 . S
C651 C656 1.490 . S
C652 H642 0.930 . S
C652 C651 1.400 . S
C652 C655 1.386 . S
H653 C669 0.930 . S
H654 C670 0.931 . S
C655 H643 0.929 . S
C655 C649 1.390 . S
C655 C652 1.386 . S
C656 C651 1.490 . S
C656 C658 1.395 . S
C656 C659 1.403 . S
H657 C663 0.930 . S
C658 H644 0.930 . S
C658 C656 1.395 . S
C658 C661 1.403 . S
C659 C656 1.403 . S
C659 C660 1.524 . S
C659 C663 1.400 . S
C660 H645 0.960 . S
C660 H646 0.960 . S
C660 H647 0.960 . S
C660 C659 1.524 . S
C661 C658 1.403 . S
C661 C662 1.392 . S
C661 C665 1.495 . S
C662 C661 1.392 . S
C662 C663 1.385 . S
C662 C664 1.478 . S
C663 H657 0.930 . S
C663 C659 1.400 . S
C663 C662 1.385 . S
C664 C662 1.478 . S
C664 C666 1.381 . S
C664 C670 1.383 . S
C665 C661 1.495 . S
C665 H671 0.959 . S
C665 H672 0.961 . S
C665 H673 0.960 . S
C666 C664 1.381 . S
C666 C667 1.394 . S
C666 H674 0.930 . S
C667 C666 1.394 . S
C667 C668 1.383 . S
C667 H675 0.929 . S
C668 C667 1.383 . S
C668 C669 1.377 . S
C669 H653 0.930 . S
C669 C668 1.377 . S
C669 C670 1.379 . S
C670 H654 0.931 . S
C670 C664 1.383 . S
C670 C669 1.379 . S
H671 C665 0.959 . S
H672 C665 0.961 . S
H673 C665 0.960 . S
H674 C666 0.930 . S
H675 C667 0.929 . S
H676 C684 0.929 . S
H677 C686 0.930 . S
H678 C688 0.930 . S
H679 C691 0.929 . S
H680 C694 0.930 . S
H681 C696 0.960 . S
H682 C696 0.960 . S
H683 C696 0.960 . S
C684 H676 0.929 . S
C684 C685 1.377 . S
C684 C686 1.384 . S
C685 C684 1.377 . S
C685 C691 1.390 . S
C686 H677 0.930 . S
C686 C684 1.384 . S
C686 C687 1.372 . S
C687 C686 1.372 . S
C687 C688 1.400 . S
C687 C692 1.490 . S
C688 H678 0.930 . S
C688 C687 1.400 . S
C688 C691 1.386 . S
H689 C705 0.930 . S
H690 C706 0.931 . S
C691 H679 0.929 . S
C691 C685 1.390 . S
C691 C688 1.386 . S
C692 C687 1.490 . S
C692 C694 1.395 . S
C692 C695 1.403 . S
H693 C699 0.930 . S
C694 H680 0.930 . S
C694 C692 1.395 . S
C694 C697 1.403 . S
C695 C692 1.403 . S
C695 C696 1.524 . S
C695 C699 1.400 . S
C696 H681 0.960 . S
C696 H682 0.960 . S
C696 H683 0.960 . S
C696 C695 1.524 . S
C697 C694 1.403 . S
C697 C698 1.392 . S
C697 C701 1.495 . S
C698 C697 1.392 . S
C698 C699 1.385 . S
C698 C700 1.478 . S
C699 H693 0.930 . S
C699 C695 1.400 . S
C699 C698 1.385 . S
C700 C698 1.478 . S
C700 C702 1.381 . S
C700 C706 1.383 . S
C701 C697 1.495 . S
C701 H707 0.959 . S
C701 H708 0.961 . S
C701 H709 0.960 . S
C702 C700 1.381 . S
C702 C703 1.394 . S
C702 H710 0.930 . S
C703 C702 1.394 . S
C703 C704 1.383 . S
C703 H711 0.929 . S
C704 C703 1.383 . S
C704 C705 1.377 . S
C705 H689 0.930 . S
C705 C704 1.377 . S
C705 C706 1.379 . S
C706 H690 0.931 . S
C706 C700 1.383 . S
C706 C705 1.379 . S
H707 C701 0.959 . S
H708 C701 0.961 . S
H709 C701 0.960 . S
H710 C702 0.930 . S
H711 C703 0.929 . S
H712 C720 0.929 . S
H713 C722 0.930 . S
H714 C724 0.930 . S
H715 C727 0.929 . S
H716 C730 0.930 . S
H717 C732 0.960 . S
H718 C732 0.960 . S
H719 C732 0.960 . S
C720 H712 0.929 . S
C720 C721 1.377 . S
C720 C722 1.384 . S
C721 C720 1.377 . S
C721 C727 1.390 . S
C722 H713 0.930 . S
C722 C720 1.384 . S
C722 C723 1.372 . S
C723 C722 1.372 . S
C723 C724 1.400 . S
C723 C728 1.490 . S
C724 H714 0.930 . S
C724 C723 1.400 . S
C724 C727 1.386 . S
H725 C741 0.930 . S
H726 C742 0.931 . S
C727 H715 0.929 . S
C727 C721 1.390 . S
C727 C724 1.386 . S
C728 C723 1.490 . S
C728 C730 1.395 . S
C728 C731 1.403 . S
H729 C735 0.930 . S
C730 H716 0.930 . S
C730 C728 1.395 . S
C730 C733 1.403 . S
C731 C728 1.403 . S
C731 C732 1.524 . S
C731 C735 1.400 . S
C732 H717 0.960 . S
C732 H718 0.960 . S
C732 H719 0.960 . S
C732 C731 1.524 . S
C733 C730 1.403 . S
C733 C734 1.392 . S
C733 C737 1.495 . S
C734 C733 1.392 . S
C734 C735 1.385 . S
C734 C736 1.478 . S
C735 H729 0.930 . S
C735 C731 1.400 . S
C735 C734 1.385 . S
C736 C734 1.478 . S
C736 C738 1.381 . S
C736 C742 1.383 . S
C737 C733 1.495 . S
C737 H743 0.959 . S
C737 H744 0.961 . S
C737 H745 0.960 . S
C738 C736 1.381 . S
C738 C739 1.394 . S
C738 H746 0.930 . S
C739 C738 1.394 . S
C739 C740 1.383 . S
C739 H747 0.929 . S
C740 C739 1.383 . S
C740 C741 1.377 . S
C741 H725 0.930 . S
C741 C740 1.377 . S
C741 C742 1.379 . S
C742 H726 0.931 . S
C742 C736 1.383 . S
C742 C741 1.379 . S
H743 C737 0.959 . S
H744 C737 0.961 . S
H745 C737 0.960 . S
H746 C738 0.930 . S
H747 C739 0.929 . S
H748 C756 0.929 . S
H749 C758 0.930 . S
H750 C760 0.930 . S
H751 C763 0.929 . S
H752 C766 0.930 . S
H753 C768 0.960 . S
H754 C768 0.960 . S
H755 C768 0.960 . S
C756 H748 0.929 . S
C756 C757 1.377 . S
C756 C758 1.384 . S
C757 C756 1.377 . S
C757 C763 1.390 . S
C758 H749 0.930 . S
C758 C756 1.384 . S
C758 C759 1.372 . S
C759 C758 1.372 . S
C759 C760 1.400 . S
C759 C764 1.490 . S
C760 H750 0.930 . S
C760 C759 1.400 . S
C760 C763 1.386 . S
H761 C777 0.930 . S
H762 C778 0.931 . S
C763 H751 0.929 . S
C763 C757 1.390 . S
C763 C760 1.386 . S
C764 C759 1.490 . S
C764 C766 1.395 . S
C764 C767 1.403 . S
H765 C771 0.930 . S
C766 H752 0.930 . S
C766 C764 1.395 . S
C766 C769 1.403 . S
C767 C764 1.403 . S
C767 C768 1.524 . S
C767 C771 1.400 . S
C768 H753 0.960 . S
C768 H754 0.960 . S
C768 H755 0.960 . S
C768 C767 1.524 . S
C769 C766 1.403 . S
C769 C770 1.392 . S
C769 C773 1.495 . S
C770 C769 1.392 . S
C770 C771 1.385 . S
C770 C772 1.478 . S
C771 H765 0.930 . S
C771 C767 1.400 . S
C771 C770 1.385 . S
C772 C770 1.478 . S
C772 C774 1.381 . S
C772 C778 1.383 . S
C773 C769 1.495 . S
C773 H779 0.959 . S
C773 H780 0.961 . S
C773 H781 0.960 . S
C774 C772 1.381 . S
C774 C775 1.394 . S
C774 H782 0.930 . S
C775 C774 1.394 . S
C775 C776 1.383 . S
C775 H783 0.929 . S
C776 C775 1.383 . S
C776 C777 1.377 . S
C777 H761 0.930 . S
C777 C776 1.377 . S
C777 C778 1.379 . S
C778 H762 0.931 . S
C778 C772 1.383 . S
C778 C777 1.379 . S
H779 C773 0.959 . S
H780 C773 0.961 . S
H781 C773 0.960 . S
H782 C774 0.930 . S
H783 C775 0.929 . S
H784 C792 0.929 . S
H785 C794 0.930 . S
H786 C796 0.930 . S
H787 C799 0.929 . S
H788 C802 0.930 . S
H789 C804 0.960 . S
H790 C804 0.960 . S
H791 C804 0.960 . S
C792 H784 0.929 . S
C792 C793 1.377 . S
C792 C794 1.384 . S
C793 C792 1.377 . S
C793 C799 1.390 . S
C794 H785 0.930 . S
C794 C792 1.384 . S
C794 C795 1.372 . S
C795 C794 1.372 . S
C795 C796 1.400 . S
C795 C800 1.490 . S
C796 H786 0.930 . S
C796 C795 1.400 . S
C796 C799 1.386 . S
H797 C813 0.930 . S
H798 C814 0.931 . S
C799 H787 0.929 . S
C799 C793 1.390 . S
C799 C796 1.386 . S
C800 C795 1.490 . S
C800 C802 1.395 . S
C800 C803 1.403 . S
H801 C807 0.930 . S
C802 H788 0.930 . S
C802 C800 1.395 . S
C802 C805 1.403 . S
C803 C800 1.403 . S
C803 C804 1.524 . S
C803 C807 1.400 . S
C804 H789 0.960 . S
C804 H790 0.960 . S
C804 H791 0.960 . S
C804 C803 1.524 . S
C805 C802 1.403 . S
C805 C806 1.392 . S
C805 C809 1.495 . S
C806 C805 1.392 . S
C806 C807 1.385 . S
C806 C808 1.478 . S
C807 H801 0.930 . S
C807 C803 1.400 . S
C807 C806 1.385 . S
C808 C806 1.478 . S
C808 C810 1.381 . S
C808 C814 1.383 . S
C809 C805 1.495 . S
C809 H815 0.959 . S
C809 H816 0.961 . S
C809 H817 0.960 . S
C810 C808 1.381 . S
C810 C811 1.394 . S
C810 H818 0.930 . S
C811 C810 1.394 . S
C811 C812 1.383 . S
C811 H819 0.929 . S
C812 C811 1.383 . S
C812 C813 1.377 . S
C813 H797 0.930 . S
C813 C812 1.377 . S
C813 C814 1.379 . S
C814 H798 0.931 . S
C814 C808 1.383 . S
C814 C813 1.379 . S
H815 C809 0.959 . S
H816 C809 0.961 . S
H817 C809 0.960 . S
H818 C810 0.930 . S
H819 C811 0.929 . S
H820 C828 0.929 . S
H821 C830 0.930 . S
H822 C832 0.930 . S
H823 C835 0.929 . S
H824 C838 0.930 . S
H825 C840 0.960 . S
H826 C840 0.960 . S
H827 C840 0.960 . S
C828 H820 0.929 . S
C828 C829 1.377 . S
C828 C830 1.384 . S
C829 C828 1.377 . S
C829 C835 1.390 . S
C830 H821 0.930 . S
C830 C828 1.384 . S
C830 C831 1.372 . S
C831 C830 1.372 . S
C831 C832 1.400 . S
C831 C836 1.490 . S
C832 H822 0.930 . S
C832 C831 1.400 . S
C832 C835 1.386 . S
H833 C849 0.930 . S
H834 C850 0.931 . S
C835 H823 0.929 . S
C835 C829 1.390 . S
C835 C832 1.386 . S
C836 C831 1.490 . S
C836 C838 1.395 . S
C836 C839 1.403 . S
H837 C843 0.930 . S
C838 H824 0.930 . S
C838 C836 1.395 . S
C838 C841 1.403 . S
C839 C836 1.403 . S
C839 C840 1.524 . S
C839 C843 1.400 . S
C840 H825 0.960 . S
C840 H826 0.960 . S
C840 H827 0.960 . S
C840 C839 1.524 . S
C841 C838 1.403 . S
C841 C842 1.392 . S
C841 C845 1.495 . S
C842 C841 1.392 . S
C842 C843 1.385 . S
C842 C844 1.478 . S
C843 H837 0.930 . S
C843 C839 1.400 . S
C843 C842 1.385 . S
C844 C842 1.478 . S
C844 C846 1.381 . S
C844 C850 1.383 . S
C845 C841 1.495 . S
C845 H851 0.959 . S
C845 H852 0.961 . S
C845 H853 0.960 . S
C846 C844 1.381 . S
C846 C847 1.394 . S
C846 H854 0.930 . S
C847 C846 1.394 . S
C847 C848 1.383 . S
C847 H855 0.929 . S
C848 C847 1.383 . S
C848 C849 1.377 . S
C849 H833 0.930 . S
C849 C848 1.377 . S
C849 C850 1.379 . S
C850 H834 0.931 . S
C850 C844 1.383 . S
C850 C849 1.379 . S
H851 C845 0.959 . S
H852 C845 0.961 . S
H853 C845 0.960 . S
H854 C846 0.930 . S
H855 C847 0.929 . S
H856 C864 0.929 . S
H857 C866 0.930 . S
H858 C868 0.930 . S
H859 C871 0.929 . S
H860 C874 0.930 . S
H861 C876 0.960 . S
H862 C876 0.960 . S
H863 C876 0.960 . S
C864 H856 0.929 . S
C864 C865 1.377 . S
C864 C866 1.384 . S
C865 C864 1.377 . S
C865 C871 1.390 . S
C866 H857 0.930 . S
C866 C864 1.384 . S
C866 C867 1.372 . S
C867 C866 1.372 . S
C867 C868 1.400 . S
C867 C872 1.490 . S
C868 H858 0.930 . S
C868 C867 1.400 . S
C868 C871 1.386 . S
H869 C885 0.930 . S
H870 C886 0.931 . S
C871 H859 0.929 . S
C871 C865 1.390 . S
C871 C868 1.386 . S
C872 C867 1.490 . S
C872 C874 1.395 . S
C872 C875 1.403 . S
H873 C879 0.930 . S
C874 H860 0.930 . S
C874 C872 1.395 . S
C874 C877 1.403 . S
C875 C872 1.403 . S
C875 C876 1.524 . S
C875 C879 1.400 . S
C876 H861 0.960 . S
C876 H862 0.960 . S
C876 H863 0.960 . S
C876 C875 1.524 . S
C877 C874 1.403 . S
C877 C878 1.392 . S
C877 C881 1.495 . S
C878 C877 1.392 . S
C878 C879 1.385 . S
C878 C880 1.478 . S
C879 H873 0.930 . S
C879 C875 1.400 . S
C879 C878 1.385 . S
C880 C878 1.478 . S
C880 C882 1.381 . S
C880 C886 1.383 . S
C881 C877 1.495 . S
C881 H887 0.959 . S
C881 H888 0.961 . S
C881 H889 0.960 . S
C882 C880 1.381 . S
C882 C883 1.394 . S
C882 H890 0.930 . S
C883 C882 1.394 . S
C883 C884 1.383 . S
C883 H891 0.929 . S
C884 C883 1.383 . S
C884 C885 1.377 . S
C885 H869 0.930 . S
C885 C884 1.377 . S
C885 C886 1.379 . S
C886 H870 0.931 . S
C886 C880 1.383 . S
C886 C885 1.379 . S
H887 C881 0.959 . S
H888 C881 0.961 . S
H889 C881 0.960 . S
H890 C882 0.930 . S
H891 C883 0.929 . S
H892 C900 0.929 . S
H893 C902 0.930 . S
H894 C904 0.930 . S
H895 C907 0.929 . S
H896 C910 0.930 . S
H897 C912 0.960 . S
H898 C912 0.960 . S
H899 C912 0.960 . S
C900 H892 0.929 . S
C900 C901 1.377 . S
C900 C902 1.384 . S
C901 C900 1.377 . S
C901 C907 1.390 . S
C902 H893 0.930 . S
C902 C900 1.384 . S
C902 C903 1.372 . S
C903 C902 1.372 . S
C903 C904 1.400 . S
C903 C908 1.490 . S
C904 H894 0.930 . S
C904 C903 1.400 . S
C904 C907 1.386 . S
H905 C921 0.930 . S
H906 C922 0.931 . S
C907 H895 0.929 . S
C907 C901 1.390 . S
C907 C904 1.386 . S
C908 C903 1.490 . S
C908 C910 1.395 . S
C908 C911 1.403 . S
H909 C915 0.930 . S
C910 H896 0.930 . S
C910 C908 1.395 . S
C910 C913 1.403 . S
C911 C908 1.403 . S
C911 C912 1.524 . S
C911 C915 1.400 . S
C912 H897 0.960 . S
C912 H898 0.960 . S
C912 H899 0.960 . S
C912 C911 1.524 . S
C913 C910 1.403 . S
C913 C914 1.392 . S
C913 C917 1.495 . S
C914 C913 1.392 . S
C914 C915 1.385 . S
C914 C916 1.478 . S
C915 H909 0.930 . S
C915 C911 1.400 . S
C915 C914 1.385 . S
C916 C914 1.478 . S
C916 C918 1.381 . S
C916 C922 1.383 . S
C917 C913 1.495 . S
C917 H923 0.959 . S
C917 H924 0.961 . S
C917 H925 0.960 . S
C918 C916 1.381 . S
C918 C919 1.394 . S
C918 H926 0.930 . S
C919 C918 1.394 . S
C919 C920 1.383 . S
C919 H927 0.929 . S
C920 C919 1.383 . S
C920 C921 1.377 . S
C921 H905 0.930 . S
C921 C920 1.377 . S
C921 C922 1.379 . S
C922 H906 0.931 . S
C922 C916 1.383 . S
C922 C921 1.379 . S
H923 C917 0.959 . S
H924 C917 0.961 . S
H925 C917 0.960 . S
H926 C918 0.930 . S
H927 C919 0.929 . S
H928 C936 0.929 . S
H929 C938 0.930 . S
H930 C940 0.930 . S
H931 C943 0.929 . S
H932 C946 0.930 . S
H933 C948 0.960 . S
H934 C948 0.960 . S
H935 C948 0.960 . S
C936 H928 0.929 . S
C936 C937 1.377 . S
C936 C938 1.384 . S
C937 C936 1.377 . S
C937 C943 1.390 . S
C938 H929 0.930 . S
C938 C936 1.384 . S
C938 C939 1.372 . S
C939 C938 1.372 . S
C939 C940 1.400 . S
C939 C944 1.490 . S
C940 H930 0.930 . S
C940 C939 1.400 . S
C940 C943 1.386 . S
H941 C957 0.930 . S
H942 C958 0.931 . S
C943 H931 0.929 . S
C943 C937 1.390 . S
C943 C940 1.386 . S
C944 C939 1.490 . S
C944 C946 1.395 . S
C944 C947 1.403 1_565 S
H945 C951 0.930 . S
C946 H932 0.930 . S
C946 C944 1.395 . S
C946 C949 1.403 . S
C947 C944 1.403 1_545 S
C947 C948 1.524 . S
C947 C951 1.400 . S
C948 H933 0.960 . S
C948 H934 0.960 . S
C948 H935 0.960 . S
C948 C947 1.524 . S
C949 C946 1.403 . S
C949 C950 1.392 1_565 S
C949 C953 1.495 . S
C950 C949 1.392 1_545 S
C950 C951 1.385 . S
C950 C952 1.478 . S
C951 H945 0.930 . S
C951 C947 1.400 . S
C951 C950 1.385 . S
C952 C950 1.478 . S
C952 C954 1.381 . S
C952 C958 1.383 . S
C953 C949 1.495 . S
C953 H959 0.959 . S
C953 H960 0.961 . S
C953 H961 0.960 . S
C954 C952 1.381 . S
C954 C955 1.394 . S
C954 H962 0.930 . S
C955 C954 1.394 . S
C955 C956 1.383 . S
C955 H963 0.929 . S
C956 C955 1.383 . S
C956 C957 1.377 . S
C957 H941 0.930 . S
C957 C956 1.377 . S
C957 C958 1.379 . S
C958 H942 0.931 . S
C958 C952 1.383 . S
C958 C957 1.379 . S
H959 C953 0.959 . S
H960 C953 0.961 . S
H961 C953 0.960 . S
H962 C954 0.930 . S
H963 C955 0.929 . S
H964 C972 0.929 . S
H965 C974 0.930 . S
H966 C976 0.930 . S
H967 C979 0.929 . S
H968 C982 0.930 . S
H969 C984 0.960 . S
H970 C984 0.960 . S
H971 C984 0.960 . S
C972 H964 0.929 . S
C972 C973 1.377 . S
C972 C974 1.384 . S
C973 C972 1.377 . S
C973 C979 1.390 . S
C974 H965 0.930 . S
C974 C972 1.384 . S
C974 C975 1.372 . S
C975 C974 1.372 . S
C975 C976 1.400 . S
C975 C980 1.490 . S
C976 H966 0.930 . S
C976 C975 1.400 . S
C976 C979 1.386 . S
H977 C993 0.930 . S
H978 C994 0.931 . S
C979 H967 0.929 . S
C979 C973 1.390 . S
C979 C976 1.386 . S
C980 C975 1.490 . S
C980 C982 1.395 1_545 S
C980 C983 1.403 . S
H981 C987 0.930 . S
C982 H968 0.930 . S
C982 C980 1.395 1_565 S
C982 C985 1.403 . S
C983 C980 1.403 . S
C983 C984 1.524 . S
C983 C987 1.400 . S
C984 H969 0.960 . S
C984 H970 0.960 . S
C984 H971 0.960 . S
C984 C983 1.524 . S
C985 C982 1.403 . S
C985 C986 1.392 . S
C985 C989 1.495 . S
C986 C985 1.392 . S
C986 C987 1.385 1_565 S
C986 C988 1.478 . S
C987 H981 0.930 . S
C987 C983 1.400 . S
C987 C986 1.385 1_545 S
C988 C986 1.478 . S
C988 C990 1.381 . S
C988 C994 1.383 . S
C989 C985 1.495 . S
C989 H995 0.959 . S
C989 H996 0.961 . S
C989 H997 0.960 . S
C990 C988 1.381 . S
C990 C991 1.394 . S
C990 H998 0.930 . S
C991 C990 1.394 . S
C991 C992 1.383 . S
C991 H999 0.929 . S
C992 C991 1.383 . S
C992 C993 1.377 . S
C993 H977 0.930 . S
C993 C992 1.377 . S
C993 C994 1.379 . S
C994 H978 0.931 . S
C994 C988 1.383 . S
C994 C993 1.379 . S
H995 C989 0.959 . S
H996 C989 0.961 . S
H997 C989 0.960 . S
H998 C990 0.930 . S
H999 C991 0.929 . S
H1000 C1008 0.929 . S
H1001 C1010 0.930 . S
H1002 C1012 0.930 . S
H1003 C1015 0.929 . S
H1004 C1018 0.930 . S
H1005 C1020 0.960 . S
H1006 C1020 0.960 . S
H1007 C1020 0.960 . S
C1008 H1000 0.929 . S
C1008 C1009 1.377 . S
C1008 C1010 1.384 . S
C1009 C1008 1.377 . S
C1009 C1015 1.390 . S
C1010 H1001 0.930 . S
C1010 C1008 1.384 . S
C1010 C1011 1.372 . S
C1011 C1010 1.372 . S
C1011 C1012 1.400 . S
C1011 C1016 1.490 . S
C1012 H1002 0.930 . S
C1012 C1011 1.400 . S
C1012 C1015 1.386 . S
H1013 C1029 0.930 . S
H1014 C1030 0.931 . S
C1015 H1003 0.929 . S
C1015 C1009 1.390 . S
C1015 C1012 1.386 . S
C1016 C1011 1.490 . S
C1016 C1018 1.395 1_545 S
C1016 C1019 1.403 . S
H1017 C1023 0.930 . S
C1018 H1004 0.930 . S
C1018 C1016 1.395 1_565 S
C1018 C1021 1.403 . S
C1019 C1016 1.403 . S
C1019 C1020 1.524 . S
C1019 C1023 1.400 . S
C1020 H1005 0.960 . S
C1020 H1006 0.960 . S
C1020 H1007 0.960 . S
C1020 C1019 1.524 . S
C1021 C1018 1.403 . S
C1021 C1022 1.392 . S
C1021 C1025 1.495 . S
C1022 C1021 1.392 . S
C1022 C1023 1.385 1_565 S
C1022 C1024 1.478 . S
C1023 H1017 0.930 . S
C1023 C1019 1.400 . S
C1023 C1022 1.385 1_545 S
C1024 C1022 1.478 . S
C1024 C1026 1.381 . S
C1024 C1030 1.383 . S
C1025 C1021 1.495 . S
C1025 H1031 0.959 . S
C1025 H1032 0.961 . S
C1025 H1033 0.960 . S
C1026 C1024 1.381 . S
C1026 C1027 1.394 . S
C1026 H1034 0.930 . S
C1027 C1026 1.394 . S
C1027 C1028 1.383 . S
C1027 H1035 0.929 . S
C1028 C1027 1.383 . S
C1028 C1029 1.377 . S
C1029 H1013 0.930 . S
C1029 C1028 1.377 . S
C1029 C1030 1.379 . S
C1030 H1014 0.931 . S
C1030 C1024 1.383 . S
C1030 C1029 1.379 . S
H1031 C1025 0.959 . S
H1032 C1025 0.961 . S
H1033 C1025 0.960 . S
H1034 C1026 0.930 . S
H1035 C1027 0.929 . S
H1036 C1044 0.929 . S
H1037 C1046 0.930 . S
H1038 C1048 0.930 . S
H1039 C1051 0.929 . S
H1040 C1054 0.930 . S
H1041 C1056 0.960 . S
H1042 C1056 0.960 . S
H1043 C1056 0.960 . S
C1044 H1036 0.929 . S
C1044 C1045 1.377 . S
C1044 C1046 1.384 . S
C1045 C1044 1.377 . S
C1045 C1051 1.390 . S
C1046 H1037 0.930 . S
C1046 C1044 1.384 . S
C1046 C1047 1.372 . S
C1047 C1046 1.372 . S
C1047 C1048 1.400 . S
C1047 C1052 1.490 . S
C1048 H1038 0.930 . S
C1048 C1047 1.400 . S
C1048 C1051 1.386 . S
H1049 C1065 0.930 . S
H1050 C1066 0.931 . S
C1051 H1039 0.929 . S
C1051 C1045 1.390 . S
C1051 C1048 1.386 . S
C1052 C1047 1.490 . S
C1052 C1054 1.395 1_545 S
C1052 C1055 1.403 . S
H1053 C1059 0.930 . S
C1054 H1040 0.930 . S
C1054 C1052 1.395 1_565 S
C1054 C1057 1.403 . S
C1055 C1052 1.403 . S
C1055 C1056 1.524 . S
C1055 C1059 1.400 . S
C1056 H1041 0.960 . S
C1056 H1042 0.960 . S
C1056 H1043 0.960 . S
C1056 C1055 1.524 . S
C1057 C1054 1.403 . S
C1057 C1058 1.392 . S
C1057 C1061 1.495 . S
C1058 C1057 1.392 . S
C1058 C1059 1.385 1_565 S
C1058 C1060 1.478 . S
C1059 H1053 0.930 . S
C1059 C1055 1.400 . S
C1059 C1058 1.385 1_545 S
C1060 C1058 1.478 . S
C1060 C1062 1.381 . S
C1060 C1066 1.383 . S
C1061 C1057 1.495 . S
C1061 H1067 0.959 . S
C1061 H1068 0.961 . S
C1061 H1069 0.960 . S
C1062 C1060 1.381 . S
C1062 C1063 1.394 . S
C1062 H1070 0.930 . S
C1063 C1062 1.394 . S
C1063 C1064 1.383 . S
C1063 H1071 0.929 . S
C1064 C1063 1.383 . S
C1064 C1065 1.377 . S
C1065 H1049 0.930 . S
C1065 C1064 1.377 . S
C1065 C1066 1.379 . S
C1066 H1050 0.931 . S
C1066 C1060 1.383 . S
C1066 C1065 1.379 . S
H1067 C1061 0.959 . S
H1068 C1061 0.961 . S
H1069 C1061 0.960 . S
H1070 C1062 0.930 . S
H1071 C1063 0.929 . S
H1072 C1080 0.929 . S
H1073 C1082 0.930 . S
H1074 C1084 0.930 . S
H1075 C1087 0.929 . S
H1076 C1090 0.930 . S
H1077 C1092 0.960 . S
H1078 C1092 0.960 . S
H1079 C1092 0.960 . S
C1080 H1072 0.929 . S
C1080 C1081 1.377 . S
C1080 C1082 1.384 . S
C1081 C1080 1.377 . S
C1081 C1087 1.390 . S
C1082 H1073 0.930 . S
C1082 C1080 1.384 . S
C1082 C1083 1.372 . S
C1083 C1082 1.372 . S
C1083 C1084 1.400 . S
C1083 C1088 1.490 . S
C1084 H1074 0.930 . S
C1084 C1083 1.400 . S
C1084 C1087 1.386 . S
H1085 C1101 0.930 . S
H1086 C1102 0.931 . S
C1087 H1075 0.929 . S
C1087 C1081 1.390 . S
C1087 C1084 1.386 . S
C1088 C1083 1.490 . S
C1088 C1090 1.395 . S
C1088 C1091 1.403 . S
H1089 C1095 0.930 . S
C1090 H1076 0.930 . S
C1090 C1088 1.395 . S
C1090 C1093 1.403 . S
C1091 C1088 1.403 . S
C1091 C1092 1.524 . S
C1091 C1095 1.400 . S
C1092 H1077 0.960 . S
C1092 H1078 0.960 . S
C1092 H1079 0.960 . S
C1092 C1091 1.524 . S
C1093 C1090 1.403 . S
C1093 C1094 1.392 . S
C1093 C1097 1.495 . S
C1094 C1093 1.392 . S
C1094 C1095 1.385 . S
C1094 C1096 1.478 . S
C1095 H1089 0.930 . S
C1095 C1091 1.400 . S
C1095 C1094 1.385 . S
C1096 C1094 1.478 . S
C1096 C1098 1.381 . S
C1096 C1102 1.383 . S
C1097 C1093 1.495 . S
C1097 H1103 0.959 . S
C1097 H1104 0.961 . S
C1097 H1105 0.960 . S
C1098 C1096 1.381 . S
C1098 C1099 1.394 . S
C1098 H1106 0.930 . S
C1099 C1098 1.394 . S
C1099 C1100 1.383 . S
C1099 H1107 0.929 . S
C1100 C1099 1.383 . S
C1100 C1101 1.377 . S
C1101 H1085 0.930 . S
C1101 C1100 1.377 . S
C1101 C1102 1.379 . S
C1102 H1086 0.931 . S
C1102 C1096 1.383 . S
C1102 C1101 1.379 . S
H1103 C1097 0.959 . S
H1104 C1097 0.961 . S
H1105 C1097 0.960 . S
H1106 C1098 0.930 . S
H1107 C1099 0.929 . S
H1108 C1116 0.929 . S
H1109 C1118 0.930 . S
H1110 C1120 0.930 . S
H1111 C1123 0.929 . S
H1112 C1126 0.930 . S
H1113 C1128 0.960 . S
H1114 C1128 0.960 . S
H1115 C1128 0.960 . S
C1116 H1108 0.929 . S
C1116 C1117 1.377 . S
C1116 C1118 1.384 . S
C1117 C1116 1.377 . S
C1117 C1123 1.390 . S
C1118 H1109 0.930 . S
C1118 C1116 1.384 . S
C1118 C1119 1.372 . S
C1119 C1118 1.372 . S
C1119 C1120 1.400 . S
C1119 C1124 1.490 . S
C1120 H1110 0.930 . S
C1120 C1119 1.400 . S
C1120 C1123 1.386 . S
H1121 C1137 0.930 . S
H1122 C1138 0.931 . S
C1123 H1111 0.929 . S
C1123 C1117 1.390 . S
C1123 C1120 1.386 . S
C1124 C1119 1.490 . S
C1124 C1126 1.395 . S
C1124 C1127 1.403 . S
H1125 C1131 0.930 . S
C1126 H1112 0.930 . S
C1126 C1124 1.395 . S
C1126 C1129 1.403 . S
C1127 C1124 1.403 . S
C1127 C1128 1.524 . S
C1127 C1131 1.400 . S
C1128 H1113 0.960 . S
C1128 H1114 0.960 . S
C1128 H1115 0.960 . S
C1128 C1127 1.524 . S
C1129 C1126 1.403 . S
C1129 C1130 1.392 . S
C1129 C1133 1.495 . S
C1130 C1129 1.392 . S
C1130 C1131 1.385 . S
C1130 C1132 1.478 . S
C1131 H1125 0.930 . S
C1131 C1127 1.400 . S
C1131 C1130 1.385 . S
C1132 C1130 1.478 . S
C1132 C1134 1.381 . S
C1132 C1138 1.383 . S
C1133 C1129 1.495 . S
C1133 H1139 0.959 . S
C1133 H1140 0.961 . S
C1133 H1141 0.960 . S
C1134 C1132 1.381 . S
C1134 C1135 1.394 . S
C1134 H1142 0.930 . S
C1135 C1134 1.394 . S
C1135 C1136 1.383 . S
C1135 H1143 0.929 . S
C1136 C1135 1.383 . S
C1136 C1137 1.377 . S
C1137 H1121 0.930 . S
C1137 C1136 1.377 . S
C1137 C1138 1.379 . S
C1138 H1122 0.931 . S
C1138 C1132 1.383 . S
C1138 C1137 1.379 . S
H1139 C1133 0.959 . S
H1140 C1133 0.961 . S
H1141 C1133 0.960 . S
H1142 C1134 0.930 . S
H1143 C1135 0.929 . S
H1144 C1152 0.929 . S
H1145 C1154 0.930 . S
H1146 C1156 0.930 . S
H1147 C1159 0.929 . S
H1148 C1162 0.930 . S
H1149 C1164 0.960 . S
H1150 C1164 0.960 . S
H1151 C1164 0.960 . S
C1152 H1144 0.929 . S
C1152 C1153 1.377 . S
C1152 C1154 1.384 . S
C1153 C1152 1.377 . S
C1153 C1159 1.390 . S
C1154 H1145 0.930 . S
C1154 C1152 1.384 . S
C1154 C1155 1.372 . S
C1155 C1154 1.372 . S
C1155 C1156 1.400 . S
C1155 C1160 1.490 . S
C1156 H1146 0.930 . S
C1156 C1155 1.400 . S
C1156 C1159 1.386 . S
H1157 C1173 0.930 . S
H1158 C1174 0.931 . S
C1159 H1147 0.929 . S
C1159 C1153 1.390 . S
C1159 C1156 1.386 . S
C1160 C1155 1.490 . S
C1160 C1162 1.395 . S
C1160 C1163 1.403 . S
H1161 C1167 0.930 . S
C1162 H1148 0.930 . S
C1162 C1160 1.395 . S
C1162 C1165 1.403 . S
C1163 C1160 1.403 . S
C1163 C1164 1.524 . S
C1163 C1167 1.400 . S
C1164 H1149 0.960 . S
C1164 H1150 0.960 . S
C1164 H1151 0.960 . S
C1164 C1163 1.524 . S
C1165 C1162 1.403 . S
C1165 C1166 1.392 . S
C1165 C1169 1.495 . S
C1166 C1165 1.392 . S
C1166 C1167 1.385 . S
C1166 C1168 1.478 . S
C1167 H1161 0.930 . S
C1167 C1163 1.400 . S
C1167 C1166 1.385 . S
C1168 C1166 1.478 . S
C1168 C1170 1.381 . S
C1168 C1174 1.383 . S
C1169 C1165 1.495 . S
C1169 H1175 0.959 . S
C1169 H1176 0.961 . S
C1169 H1177 0.960 . S
C1170 C1168 1.381 . S
C1170 C1171 1.394 . S
C1170 H1178 0.930 . S
C1171 C1170 1.394 . S
C1171 C1172 1.383 . S
C1171 H1179 0.929 . S
C1172 C1171 1.383 . S
C1172 C1173 1.377 . S
C1173 H1157 0.930 . S
C1173 C1172 1.377 . S
C1173 C1174 1.379 . S
C1174 H1158 0.931 . S
C1174 C1168 1.383 . S
C1174 C1173 1.379 . S
H1175 C1169 0.959 . S
H1176 C1169 0.961 . S
H1177 C1169 0.960 . S
H1178 C1170 0.930 . S
H1179 C1171 0.929 . S
H1180 C1188 0.929 . S
H1181 C1190 0.930 . S
H1182 C1192 0.930 . S
H1183 C1195 0.929 . S
H1184 C1198 0.930 . S
H1185 C1200 0.960 . S
H1186 C1200 0.960 . S
H1187 C1200 0.960 . S
C1188 H1180 0.929 . S
C1188 C1189 1.377 . S
C1188 C1190 1.384 . S
C1189 C1188 1.377 . S
C1189 C1195 1.390 . S
C1190 H1181 0.930 . S
C1190 C1188 1.384 . S
C1190 C1191 1.372 . S
C1191 C1190 1.372 . S
C1191 C1192 1.400 . S
C1191 C1196 1.490 . S
C1192 H1182 0.930 . S
C1192 C1191 1.400 . S
C1192 C1195 1.386 . S
H1193 C1209 0.930 . S
H1194 C1210 0.931 . S
C1195 H1183 0.929 . S
C1195 C1189 1.390 . S
C1195 C1192 1.386 . S
C1196 C1191 1.490 . S
C1196 C1198 1.395 . S
C1196 C1199 1.403 . S
H1197 C1203 0.930 . S
C1198 H1184 0.930 . S
C1198 C1196 1.395 . S
C1198 C1201 1.403 . S
C1199 C1196 1.403 . S
C1199 C1200 1.524 . S
C1199 C1203 1.400 . S
C1200 H1185 0.960 . S
C1200 H1186 0.960 . S
C1200 H1187 0.960 . S
C1200 C1199 1.524 . S
C1201 C1198 1.403 . S
C1201 C1202 1.392 . S
C1201 C1205 1.495 . S
C1202 C1201 1.392 . S
C1202 C1203 1.385 . S
C1202 C1204 1.478 . S
C1203 H1197 0.930 . S
C1203 C1199 1.400 . S
C1203 C1202 1.385 . S
C1204 C1202 1.478 . S
C1204 C1206 1.381 . S
C1204 C1210 1.383 . S
C1205 C1201 1.495 . S
C1205 H1211 0.959 . S
C1205 H1212 0.961 . S
C1205 H1213 0.960 . S
C1206 C1204 1.381 . S
C1206 C1207 1.394 . S
C1206 H1214 0.930 . S
C1207 C1206 1.394 . S
C1207 C1208 1.383 . S
C1207 H1215 0.929 . S
C1208 C1207 1.383 . S
C1208 C1209 1.377 . S
C1209 H1193 0.930 . S
C1209 C1208 1.377 . S
C1209 C1210 1.379 . S
C1210 H1194 0.931 . S
C1210 C1204 1.383 . S
C1210 C1209 1.379 . S
H1211 C1205 0.959 . S
H1212 C1205 0.961 . S
H1213 C1205 0.960 . S
H1214 C1206 0.930 . S
H1215 C1207 0.929 . S
H1216 C1224 0.929 . S
H1217 C1226 0.930 . S
H1218 C1228 0.930 . S
H1219 C1231 0.929 . S
H1220 C1234 0.930 . S
H1221 C1236 0.960 . S
H1222 C1236 0.960 . S
H1223 C1236 0.960 . S
C1224 H1216 0.929 . S
C1224 C1225 1.377 . S
C1224 C1226 1.384 . S
C1225 C1224 1.377 . S
C1225 C1231 1.390 . S
C1226 H1217 0.930 . S
C1226 C1224 1.384 . S
C1226 C1227 1.372 . S
C1227 C1226 1.372 . S
C1227 C1228 1.400 . S
C1227 C1232 1.490 . S
C1228 H1218 0.930 . S
C1228 C1227 1.400 . S
C1228 C1231 1.386 . S
H1229 C1245 0.930 . S
H1230 C1246 0.931 . S
C1231 H1219 0.929 . S
C1231 C1225 1.390 . S
C1231 C1228 1.386 . S
C1232 C1227 1.490 . S
C1232 C1234 1.395 . S
C1232 C1235 1.403 . S
H1233 C1239 0.930 . S
C1234 H1220 0.930 . S
C1234 C1232 1.395 . S
C1234 C1237 1.403 1_556 S
C1235 C1232 1.403 . S
C1235 C1236 1.524 . S
C1235 C1239 1.400 1_556 S
C1236 H1221 0.960 . S
C1236 H1222 0.960 . S
C1236 H1223 0.960 . S
C1236 C1235 1.524 . S
C1237 C1234 1.403 1_554 S
C1237 C1238 1.392 . S
C1237 C1241 1.495 . S
C1238 C1237 1.392 . S
C1238 C1239 1.385 . S
C1238 C1240 1.478 . S
C1239 H1233 0.930 . S
C1239 C1235 1.400 1_554 S
C1239 C1238 1.385 . S
C1240 C1238 1.478 . S
C1240 C1242 1.381 . S
C1240 C1246 1.383 . S
C1241 C1237 1.495 . S
C1241 H1247 0.959 . S
C1241 H1248 0.961 . S
C1241 H1249 0.960 . S
C1242 C1240 1.381 . S
C1242 C1243 1.394 . S
C1242 H1250 0.930 . S
C1243 C1242 1.394 . S
C1243 C1244 1.383 . S
C1243 H1251 0.929 . S
C1244 C1243 1.383 . S
C1244 C1245 1.377 . S
C1245 H1229 0.930 . S
C1245 C1244 1.377 . S
C1245 C1246 1.379 . S
C1246 H1230 0.931 . S
C1246 C1240 1.383 . S
C1246 C1245 1.379 . S
H1247 C1241 0.959 . S
H1248 C1241 0.961 . S
H1249 C1241 0.960 . S
H1250 C1242 0.930 . S
H1251 C1243 0.929 . S
H1252 C1260 0.929 . S
H1253 C1262 0.930 . S
H1254 C1264 0.930 . S
H1255 C1267 0.929 . S
H1256 C1270 0.930 . S
H1257 C1272 0.960 . S
H1258 C1272 0.960 . S
H1259 C1272 0.960 . S
C1260 H1252 0.929 . S
C1260 C1261 1.377 . S
C1260 C1262 1.384 . S
C1261 C1260 1.377 . S
C1261 C1267 1.390 . S
C1262 H1253 0.930 . S
C1262 C1260 1.384 . S
C1262 C1263 1.372 . S
C1263 C1262 1.372 . S
C1263 C1264 1.400 . S
C1263 C1268 1.490 . S
C1264 H1254 0.930 . S
C1264 C1263 1.400 . S
C1264 C1267 1.386 . S
H1265 C1281 0.930 . S
H1266 C1282 0.931 . S
C1267 H1255 0.929 . S
C1267 C1261 1.390 . S
C1267 C1264 1.386 . S
C1268 C1263 1.490 . S
C1268 C1270 1.395 . S
C1268 C1271 1.403 . S
H1269 C1275 0.930 . S
C1270 H1256 0.930 . S
C1270 C1268 1.395 . S
C1270 C1273 1.403 1_556 S
C1271 C1268 1.403 . S
C1271 C1272 1.524 . S
C1271 C1275 1.400 1_556 S
C1272 H1257 0.960 . S
C1272 H1258 0.960 . S
C1272 H1259 0.960 . S
C1272 C1271 1.524 . S
C1273 C1270 1.403 1_554 S
C1273 C1274 1.392 . S
C1273 C1277 1.495 . S
C1274 C1273 1.392 . S
C1274 C1275 1.385 . S
C1274 C1276 1.478 . S
C1275 H1269 0.930 . S
C1275 C1271 1.400 1_554 S
C1275 C1274 1.385 . S
C1276 C1274 1.478 . S
C1276 C1278 1.381 . S
C1276 C1282 1.383 . S
C1277 C1273 1.495 . S
C1277 H1283 0.959 . S
C1277 H1284 0.961 . S
C1277 H1285 0.960 . S
C1278 C1276 1.381 . S
C1278 C1279 1.394 . S
C1278 H1286 0.930 . S
C1279 C1278 1.394 . S
C1279 C1280 1.383 . S
C1279 H1287 0.929 . S
C1280 C1279 1.383 . S
C1280 C1281 1.377 . S
C1281 H1265 0.930 . S
C1281 C1280 1.377 . S
C1281 C1282 1.379 . S
C1282 H1266 0.931 . S
C1282 C1276 1.383 . S
C1282 C1281 1.379 . S
H1283 C1277 0.959 . S
H1284 C1277 0.961 . S
H1285 C1277 0.960 . S
H1286 C1278 0.930 . S
H1287 C1279 0.929 . S
H1288 C1296 0.929 . S
H1289 C1298 0.930 . S
H1290 C1300 0.930 . S
H1291 C1303 0.929 . S
H1292 C1306 0.930 . S
H1293 C1308 0.960 . S
H1294 C1308 0.960 . S
H1295 C1308 0.960 . S
C1296 H1288 0.929 . S
C1296 C1297 1.377 . S
C1296 C1298 1.384 . S
C1297 C1296 1.377 . S
C1297 C1303 1.390 . S
C1298 H1289 0.930 . S
C1298 C1296 1.384 . S
C1298 C1299 1.372 . S
C1299 C1298 1.372 . S
C1299 C1300 1.400 . S
C1299 C1304 1.490 . S
C1300 H1290 0.930 . S
C1300 C1299 1.400 . S
C1300 C1303 1.386 . S
H1301 C1317 0.930 . S
H1302 C1318 0.931 . S
C1303 H1291 0.929 . S
C1303 C1297 1.390 . S
C1303 C1300 1.386 . S
C1304 C1299 1.490 . S
C1304 C1306 1.395 . S
C1304 C1307 1.403 . S
H1305 C1311 0.930 . S
C1306 H1292 0.930 . S
C1306 C1304 1.395 . S
C1306 C1309 1.403 . S
C1307 C1304 1.403 . S
C1307 C1308 1.524 . S
C1307 C1311 1.400 . S
C1308 H1293 0.960 . S
C1308 H1294 0.960 . S
C1308 H1295 0.960 . S
C1308 C1307 1.524 . S
C1309 C1306 1.403 . S
C1309 C1310 1.392 . S
C1309 C1313 1.495 . S
C1310 C1309 1.392 . S
C1310 C1311 1.385 . S
C1310 C1312 1.478 . S
C1311 H1305 0.930 . S
C1311 C1307 1.400 . S
C1311 C1310 1.385 . S
C1312 C1310 1.478 . S
C1312 C1314 1.381 . S
C1312 C1318 1.383 . S
C1313 C1309 1.495 . S
C1313 H1319 0.959 . S
C1313 H1320 0.961 . S
C1313 H1321 0.960 . S
C1314 C1312 1.381 . S
C1314 C1315 1.394 . S
C1314 H1322 0.930 . S
C1315 C1314 1.394 . S
C1315 C1316 1.383 . S
C1315 H1323 0.929 . S
C1316 C1315 1.383 . S
C1316 C1317 1.377 . S
C1317 H1301 0.930 . S
C1317 C1316 1.377 . S
C1317 C1318 1.379 . S
C1318 H1302 0.931 . S
C1318 C1312 1.383 . S
C1318 C1317 1.379 . S
H1319 C1313 0.959 . S
H1320 C1313 0.961 . S
H1321 C1313 0.960 . S
H1322 C1314 0.930 . S
H1323 C1315 0.929 . S
H1324 C1332 0.929 . S
H1325 C1334 0.930 . S
H1326 C1336 0.930 . S
H1327 C1339 0.929 . S
H1328 C1342 0.930 . S
H1329 C1344 0.960 . S
H1330 C1344 0.960 . S
H1331 C1344 0.960 . S
C1332 H1324 0.929 . S
C1332 C1333 1.377 . S
C1332 C1334 1.384 . S
C1333 C1332 1.377 . S
C1333 C1339 1.390 . S
C1334 H1325 0.930 . S
C1334 C1332 1.384 . S
C1334 C1335 1.372 . S
C1335 C1334 1.372 . S
C1335 C1336 1.400 . S
C1335 C1340 1.490 . S
C1336 H1326 0.930 . S
C1336 C1335 1.400 . S
C1336 C1339 1.386 . S
H1337 C1353 0.930 . S
H1338 C1354 0.931 . S
C1339 H1327 0.929 . S
C1339 C1333 1.390 . S
C1339 C1336 1.386 . S
C1340 C1335 1.490 . S
C1340 C1342 1.395 . S
C1340 C1343 1.403 . S
H1341 C1347 0.930 . S
C1342 H1328 0.930 . S
C1342 C1340 1.395 . S
C1342 C1345 1.403 . S
C1343 C1340 1.403 . S
C1343 C1344 1.524 . S
C1343 C1347 1.400 . S
C1344 H1329 0.960 . S
C1344 H1330 0.960 . S
C1344 H1331 0.960 . S
C1344 C1343 1.524 . S
C1345 C1342 1.403 . S
C1345 C1346 1.392 . S
C1345 C1349 1.495 . S
C1346 C1345 1.392 . S
C1346 C1347 1.385 . S
C1346 C1348 1.478 . S
C1347 H1341 0.930 . S
C1347 C1343 1.400 . S
C1347 C1346 1.385 . S
C1348 C1346 1.478 . S
C1348 C1350 1.381 . S
C1348 C1354 1.383 . S
C1349 C1345 1.495 . S
C1349 H1355 0.959 . S
C1349 H1356 0.961 . S
C1349 H1357 0.960 . S
C1350 C1348 1.381 . S
C1350 C1351 1.394 . S
C1350 H1358 0.930 . S
C1351 C1350 1.394 . S
C1351 C1352 1.383 . S
C1351 H1359 0.929 . S
C1352 C1351 1.383 . S
C1352 C1353 1.377 . S
C1353 H1337 0.930 . S
C1353 C1352 1.377 . S
C1353 C1354 1.379 . S
C1354 H1338 0.931 . S
C1354 C1348 1.383 . S
C1354 C1353 1.379 . S
H1355 C1349 0.959 . S
H1356 C1349 0.961 . S
H1357 C1349 0.960 . S
H1358 C1350 0.930 . S
H1359 C1351 0.929 . S
H1360 C1368 0.929 . S
H1361 C1370 0.930 . S
H1362 C1372 0.930 . S
H1363 C1375 0.929 . S
H1364 C1378 0.930 . S
H1365 C1380 0.960 . S
H1366 C1380 0.960 . S
H1367 C1380 0.960 . S
C1368 H1360 0.929 . S
C1368 C1369 1.377 . S
C1368 C1370 1.384 . S
C1369 C1368 1.377 . S
C1369 C1375 1.390 . S
C1370 H1361 0.930 . S
C1370 C1368 1.384 . S
C1370 C1371 1.372 . S
C1371 C1370 1.372 . S
C1371 C1372 1.400 . S
C1371 C1376 1.490 . S
C1372 H1362 0.930 . S
C1372 C1371 1.400 . S
C1372 C1375 1.386 . S
H1373 C1389 0.930 . S
H1374 C1390 0.931 . S
C1375 H1363 0.929 . S
C1375 C1369 1.390 . S
C1375 C1372 1.386 . S
C1376 C1371 1.490 . S
C1376 C1378 1.395 . S
C1376 C1379 1.403 . S
H1377 C1383 0.930 . S
C1378 H1364 0.930 . S
C1378 C1376 1.395 . S
C1378 C1381 1.403 1_554 S
C1379 C1376 1.403 . S
C1379 C1380 1.524 . S
C1379 C1383 1.400 1_554 S
C1380 H1365 0.960 . S
C1380 H1366 0.960 . S
C1380 H1367 0.960 . S
C1380 C1379 1.524 . S
C1381 C1378 1.403 1_556 S
C1381 C1382 1.392 . S
C1381 C1385 1.495 . S
C1382 C1381 1.392 . S
C1382 C1383 1.385 . S
C1382 C1384 1.478 . S
C1383 H1377 0.930 . S
C1383 C1379 1.400 1_556 S
C1383 C1382 1.385 . S
C1384 C1382 1.478 . S
C1384 C1386 1.381 . S
C1384 C1390 1.383 . S
C1385 C1381 1.495 . S
C1385 H1391 0.959 . S
C1385 H1392 0.961 . S
C1385 H1393 0.960 . S
C1386 C1384 1.381 . S
C1386 C1387 1.394 . S
C1386 H1394 0.930 . S
C1387 C1386 1.394 . S
C1387 C1388 1.383 . S
C1387 H1395 0.929 . S
C1388 C1387 1.383 . S
C1388 C1389 1.377 . S
C1389 H1373 0.930 . S
C1389 C1388 1.377 . S
C1389 C1390 1.379 . S
C1390 H1374 0.931 . S
C1390 C1384 1.383 . S
C1390 C1389 1.379 . S
H1391 C1385 0.959 . S
H1392 C1385 0.961 . S
H1393 C1385 0.960 . S
H1394 C1386 0.930 . S
H1395 C1387 0.929 . S
H1396 C1404 0.929 . S
H1397 C1406 0.930 . S
H1398 C1408 0.930 . S
H1399 C1411 0.929 . S
H1400 C1414 0.930 . S
H1401 C1416 0.960 . S
H1402 C1416 0.960 . S
H1403 C1416 0.960 . S
C1404 H1396 0.929 . S
C1404 C1405 1.377 . S
C1404 C1406 1.384 . S
C1405 C1404 1.377 . S
C1405 C1411 1.390 . S
C1406 H1397 0.930 . S
C1406 C1404 1.384 . S
C1406 C1407 1.372 . S
C1407 C1406 1.372 . S
C1407 C1408 1.400 . S
C1407 C1412 1.490 . S
C1408 H1398 0.930 . S
C1408 C1407 1.400 . S
C1408 C1411 1.386 . S
H1409 C1425 0.930 . S
H1410 C1426 0.931 . S
C1411 H1399 0.929 . S
C1411 C1405 1.390 . S
C1411 C1408 1.386 . S
C1412 C1407 1.490 . S
C1412 C1414 1.395 . S
C1412 C1415 1.403 . S
H1413 C1419 0.930 . S
C1414 H1400 0.930 . S
C1414 C1412 1.395 . S
C1414 C1417 1.403 1_556 S
C1415 C1412 1.403 . S
C1415 C1416 1.524 . S
C1415 C1419 1.400 1_556 S
C1416 H1401 0.960 . S
C1416 H1402 0.960 . S
C1416 H1403 0.960 . S
C1416 C1415 1.524 . S
C1417 C1414 1.403 1_554 S
C1417 C1418 1.392 . S
C1417 C1421 1.495 . S
C1418 C1417 1.392 . S
C1418 C1419 1.385 . S
C1418 C1420 1.478 . S
C1419 H1413 0.930 . S
C1419 C1415 1.400 1_554 S
C1419 C1418 1.385 . S
C1420 C1418 1.478 . S
C1420 C1422 1.381 . S
C1420 C1426 1.383 . S
C1421 C1417 1.495 . S
C1421 H1427 0.959 . S
C1421 H1428 0.961 . S
C1421 H1429 0.960 . S
C1422 C1420 1.381 . S
C1422 C1423 1.394 . S
C1422 H1430 0.930 . S
C1423 C1422 1.394 . S
C1423 C1424 1.383 . S
C1423 H1431 0.929 . S
C1424 C1423 1.383 . S
C1424 C1425 1.377 . S
C1425 H1409 0.930 . S
C1425 C1424 1.377 . S
C1425 C1426 1.379 . S
C1426 H1410 0.931 . S
C1426 C1420 1.383 . S
C1426 C1425 1.379 . S
H1427 C1421 0.959 . S
H1428 C1421 0.961 . S
H1429 C1421 0.960 . S
H1430 C1422 0.930 . S
H1431 C1423 0.929 . S
H1432 C1440 0.929 . S
H1433 C1442 0.930 . S
H1434 C1444 0.930 . S
H1435 C1447 0.929 . S
H1436 C1450 0.930 . S
H1437 C1452 0.960 . S
H1438 C1452 0.960 . S
H1439 C1452 0.960 . S
C1440 H1432 0.929 . S
C1440 C1441 1.377 . S
C1440 C1442 1.384 . S
C1441 C1440 1.377 . S
C1441 C1447 1.390 . S
C1442 H1433 0.930 . S
C1442 C1440 1.384 . S
C1442 C1443 1.372 . S
C1443 C1442 1.372 . S
C1443 C1444 1.400 . S
C1443 C1448 1.490 . S
C1444 H1434 0.930 . S
C1444 C1443 1.400 . S
C1444 C1447 1.386 . S
H1445 C1461 0.930 . S
H1446 C1462 0.931 . S
C1447 H1435 0.929 . S
C1447 C1441 1.390 . S
C1447 C1444 1.386 . S
C1448 C1443 1.490 . S
C1448 C1450 1.395 . S
C1448 C1451 1.403 . S
H1449 C1455 0.930 . S
C1450 H1436 0.930 . S
C1450 C1448 1.395 . S
C1450 C1453 1.403 . S
C1451 C1448 1.403 . S
C1451 C1452 1.524 . S
C1451 C1455 1.400 . S
C1452 H1437 0.960 . S
C1452 H1438 0.960 . S
C1452 H1439 0.960 . S
C1452 C1451 1.524 . S
C1453 C1450 1.403 . S
C1453 C1454 1.392 . S
C1453 C1457 1.495 . S
C1454 C1453 1.392 . S
C1454 C1455 1.385 . S
C1454 C1456 1.478 . S
C1455 H1449 0.930 . S
C1455 C1451 1.400 . S
C1455 C1454 1.385 . S
C1456 C1454 1.478 . S
C1456 C1458 1.381 . S
C1456 C1462 1.383 . S
C1457 C1453 1.495 . S
C1457 H1463 0.959 . S
C1457 H1464 0.961 . S
C1457 H1465 0.960 . S
C1458 C1456 1.381 . S
C1458 C1459 1.394 . S
C1458 H1466 0.930 . S
C1459 C1458 1.394 . S
C1459 C1460 1.383 . S
C1459 H1467 0.929 . S
C1460 C1459 1.383 . S
C1460 C1461 1.377 . S
C1461 H1445 0.930 . S
C1461 C1460 1.377 . S
C1461 C1462 1.379 . S
C1462 H1446 0.931 . S
C1462 C1456 1.383 . S
C1462 C1461 1.379 . S
H1463 C1457 0.959 . S
H1464 C1457 0.961 . S
H1465 C1457 0.960 . S
H1466 C1458 0.930 . S
H1467 C1459 0.929 . S
H1468 C1476 0.929 . S
H1469 C1478 0.930 . S
H1470 C1480 0.930 . S
H1471 C1483 0.929 . S
H1472 C1486 0.930 . S
H1473 C1488 0.960 . S
H1474 C1488 0.960 . S
H1475 C1488 0.960 . S
C1476 H1468 0.929 . S
C1476 C1477 1.377 . S
C1476 C1478 1.384 . S
C1477 C1476 1.377 . S
C1477 C1483 1.390 . S
C1478 H1469 0.930 . S
C1478 C1476 1.384 . S
C1478 C1479 1.372 . S
C1479 C1478 1.372 . S
C1479 C1480 1.400 . S
C1479 C1484 1.490 . S
C1480 H1470 0.930 . S
C1480 C1479 1.400 . S
C1480 C1483 1.386 . S
H1481 C1497 0.930 . S
H1482 C1498 0.931 . S
C1483 H1471 0.929 . S
C1483 C1477 1.390 . S
C1483 C1480 1.386 . S
C1484 C1479 1.490 . S
C1484 C1486 1.395 . S
C1484 C1487 1.403 . S
H1485 C1491 0.930 . S
C1486 H1472 0.930 . S
C1486 C1484 1.395 . S
C1486 C1489 1.403 . S
C1487 C1484 1.403 . S
C1487 C1488 1.524 . S
C1487 C1491 1.400 . S
C1488 H1473 0.960 . S
C1488 H1474 0.960 . S
C1488 H1475 0.960 . S
C1488 C1487 1.524 . S
C1489 C1486 1.403 . S
C1489 C1490 1.392 . S
C1489 C1493 1.495 . S
C1490 C1489 1.392 . S
C1490 C1491 1.385 . S
C1490 C1492 1.478 . S
C1491 H1485 0.930 . S
C1491 C1487 1.400 . S
C1491 C1490 1.385 . S
C1492 C1490 1.478 . S
C1492 C1494 1.381 . S
C1492 C1498 1.383 . S
C1493 C1489 1.495 . S
C1493 H1499 0.959 . S
C1493 H1500 0.961 . S
C1493 H1501 0.960 . S
C1494 C1492 1.381 . S
C1494 C1495 1.394 . S
C1494 H1502 0.930 . S
C1495 C1494 1.394 . S
C1495 C1496 1.383 . S
C1495 H1503 0.929 . S
C1496 C1495 1.383 . S
C1496 C1497 1.377 . S
C1497 H1481 0.930 . S
C1497 C1496 1.377 . S
C1497 C1498 1.379 . S
C1498 H1482 0.931 . S
C1498 C1492 1.383 . S
C1498 C1497 1.379 . S
H1499 C1493 0.959 . S
H1500 C1493 0.961 . S
H1501 C1493 0.960 . S
H1502 C1494 0.930 . S
H1503 C1495 0.929 . S
H1504 C1512 0.929 . S
H1505 C1514 0.930 . S
H1506 C1516 0.930 1_545 S
H1507 C1519 0.929 . S
H1508 C1522 0.930 . S
H1509 C1524 0.960 . S
H1510 C1524 0.960 . S
H1511 C1524 0.960 . S
C1512 H1504 0.929 . S
C1512 C1513 1.377 . S
C1512 C1514 1.384 . S
C1513 C1512 1.377 . S
C1513 C1519 1.390 . S
C1514 H1505 0.930 . S
C1514 C1512 1.384 . S
C1514 C1515 1.372 . S
C1515 C1514 1.372 . S
C1515 C1516 1.400 . S
C1515 C1520 1.490 . S
C1516 H1506 0.930 1_565 S
C1516 C1515 1.400 . S
C1516 C1519 1.386 . S
H1517 C1533 0.930 . S
H1518 C1534 0.931 . S
C1519 H1507 0.929 . S
C1519 C1513 1.390 . S
C1519 C1516 1.386 . S
C1520 C1515 1.490 . S
C1520 C1522 1.395 . S
C1520 C1523 1.403 1_565 S
H1521 C1527 0.930 . S
C1522 H1508 0.930 . S
C1522 C1520 1.395 . S
C1522 C1525 1.403 1_655 S
C1523 C1520 1.403 1_545 S
C1523 C1524 1.524 . S
C1523 C1527 1.400 1_655 S
C1524 H1509 0.960 . S
C1524 H1510 0.960 . S
C1524 H1511 0.960 . S
C1524 C1523 1.524 . S
C1525 C1522 1.403 1_455 S
C1525 C1526 1.392 1_565 S
C1525 C1529 1.495 . S
C1526 C1525 1.392 1_545 S
C1526 C1527 1.385 . S
C1526 C1528 1.478 . S
C1527 H1521 0.930 . S
C1527 C1523 1.400 1_455 S
C1527 C1526 1.385 . S
C1528 C1526 1.478 . S
C1528 C1530 1.381 . S
C1528 C1534 1.383 . S
C1529 C1525 1.495 . S
C1529 H1535 0.959 . S
C1529 H1536 0.961 . S
C1529 H1537 0.960 . S
C1530 C1528 1.381 . S
C1530 C1531 1.394 . S
C1530 H1538 0.930 1_545 S
C1531 C1530 1.394 . S
C1531 C1532 1.383 . S
C1531 H1539 0.929 . S
C1532 C1531 1.383 . S
C1532 C1533 1.377 . S
C1533 H1517 0.930 . S
C1533 C1532 1.377 . S
C1533 C1534 1.379 . S
C1534 H1518 0.931 . S
C1534 C1528 1.383 . S
C1534 C1533 1.379 . S
H1535 C1529 0.959 . S
H1536 C1529 0.961 . S
H1537 C1529 0.960 . S
H1538 C1530 0.930 1_565 S
H1539 C1531 0.929 . S
H1540 C1548 0.929 1_565 S
H1541 C1550 0.936 . S
H1542 C1552 0.930 . S
H1543 C1555 0.929 . S
H1544 C1558 0.930 . S
H1545 C1560 0.960 1_455 S
H1546 C1560 0.960 . S
H1547 C1560 0.960 . S
C1548 H1540 0.929 1_545 S
C1548 C1549 1.377 . S
C1548 C1550 1.382 1_545 S
C1549 C1548 1.377 . S
C1549 C1555 1.390 . S
C1550 H1541 0.936 . S
C1550 C1548 1.382 1_565 S
C1550 C1551 1.368 1_565 S
C1551 C1550 1.368 1_545 S
C1551 C1552 1.400 . S
C1551 C1556 1.490 . S
C1552 H1542 0.930 . S
C1552 C1551 1.400 . S
C1552 C1555 1.386 . S
H1553 C1569 0.930 . S
H1554 C1570 0.931 1_545 S
C1555 H1543 0.929 . S
C1555 C1549 1.390 . S
C1555 C1552 1.386 . S
C1556 C1551 1.490 . S
C1556 C1558 1.395 1_545 S
C1556 C1559 1.403 . S
H1557 C1563 0.930 . S
C1558 H1544 0.930 . S
C1558 C1556 1.395 1_565 S
C1558 C1561 1.403 1_655 S
C1559 C1556 1.403 . S
C1559 C1560 1.524 . S
C1559 C1563 1.400 1_655 S
C1560 H1545 0.960 1_655 S
C1560 H1546 0.960 . S
C1560 H1547 0.960 . S
C1560 C1559 1.524 . S
C1561 C1558 1.403 1_455 S
C1561 C1562 1.392 . S
C1561 C1565 1.495 . S
C1562 C1561 1.392 . S
C1562 C1563 1.385 1_565 S
C1562 C1564 1.478 . S
C1563 H1557 0.930 . S
C1563 C1559 1.400 1_455 S
C1563 C1562 1.385 1_545 S
C1564 C1562 1.478 . S
C1564 C1566 1.381 . S
C1564 C1570 1.383 . S
C1565 C1561 1.495 . S
C1565 H1571 0.959 1_455 S
C1565 H1572 0.961 . S
C1565 H1573 0.960 . S
C1566 C1564 1.381 . S
C1566 C1567 1.394 . S
C1566 H1574 0.930 . S
C1567 C1566 1.394 . S
C1567 C1568 1.383 . S
C1567 H1575 0.929 . S
C1568 C1567 1.383 . S
C1568 C1569 1.377 . S
C1569 H1553 0.930 . S
C1569 C1568 1.377 . S
C1569 C1570 1.379 . S
C1570 H1554 0.931 1_565 S
C1570 C1564 1.383 . S
C1570 C1569 1.379 . S
H1571 C1565 0.959 1_655 S
H1572 C1565 0.961 . S
H1573 C1565 0.960 . S
H1574 C1566 0.930 . S
H1575 C1567 0.929 . S
H1576 C1584 0.929 . S
H1577 C1586 0.930 1_565 S
H1578 C1588 0.930 . S
H1579 C1591 0.929 . S
H1580 C1594 0.930 . S
H1581 C1596 0.960 1_655 S
H1582 C1596 0.960 . S
H1583 C1596 0.960 . S
C1584 H1576 0.929 . S
C1584 C1585 1.377 . S
C1584 C1586 1.384 . S
C1585 C1584 1.377 . S
C1585 C1591 1.390 . S
C1586 H1577 0.930 1_545 S
C1586 C1584 1.384 . S
C1586 C1587 1.372 . S
C1587 C1586 1.372 . S
C1587 C1588 1.400 . S
C1587 C1592 1.490 . S
C1588 H1578 0.930 . S
C1588 C1587 1.400 . S
C1588 C1591 1.386 . S
H1589 C1605 0.930 . S
H1590 C1606 0.931 . S
C1591 H1579 0.929 . S
C1591 C1585 1.390 . S
C1591 C1588 1.386 . S
C1592 C1587 1.490 . S
C1592 C1594 1.395 1_545 S
C1592 C1595 1.403 . S
H1593 C1599 0.930 . S
C1594 H1580 0.930 . S
C1594 C1592 1.395 1_565 S
C1594 C1597 1.403 1_455 S
C1595 C1592 1.403 . S
C1595 C1596 1.524 . S
C1595 C1599 1.400 1_455 S
C1596 H1581 0.960 1_455 S
C1596 H1582 0.960 . S
C1596 H1583 0.960 . S
C1596 C1595 1.524 . S
C1597 C1594 1.403 1_655 S
C1597 C1598 1.392 . S
C1597 C1601 1.495 . S
C1598 C1597 1.392 . S
C1598 C1599 1.385 1_565 S
C1598 C1600 1.478 . S
C1599 H1593 0.930 . S
C1599 C1595 1.400 1_655 S
C1599 C1598 1.385 1_545 S
C1600 C1598 1.478 . S
C1600 C1602 1.381 . S
C1600 C1606 1.383 . S
C1601 C1597 1.495 . S
C1601 H1607 0.959 1_655 S
C1601 H1608 0.961 . S
C1601 H1609 0.960 . S
C1602 C1600 1.381 . S
C1602 C1603 1.394 . S
C1602 H1610 0.930 . S
C1603 C1602 1.394 . S
C1603 C1604 1.383 . S
C1603 H1611 0.929 . S
C1604 C1603 1.383 . S
C1604 C1605 1.377 . S
C1605 H1589 0.930 . S
C1605 C1604 1.377 . S
C1605 C1606 1.379 . S
C1606 H1590 0.931 . S
C1606 C1600 1.383 . S
C1606 C1605 1.379 . S
H1607 C1601 0.959 1_455 S
H1608 C1601 0.961 . S
H1609 C1601 0.960 . S
H1610 C1602 0.930 . S
H1611 C1603 0.929 . S
H1612 C1620 0.929 . S
H1613 C1622 0.930 . S
H1614 C1624 0.930 1_565 S
H1615 C1627 0.929 1_565 S
H1616 C1630 0.930 . S
H1617 C1632 0.960 . S
H1618 C1632 0.960 . S
H1619 C1632 0.960 . S
C1620 H1612 0.929 . S
C1620 C1621 1.377 . S
C1620 C1622 1.384 . S
C1621 C1620 1.377 . S
C1621 C1627 1.390 . S
C1622 H1613 0.930 . S
C1622 C1620 1.384 . S
C1622 C1623 1.372 . S
C1623 C1622 1.372 . S
C1623 C1624 1.400 . S
C1623 C1628 1.490 . S
C1624 H1614 0.930 1_545 S
C1624 C1623 1.400 . S
C1624 C1627 1.386 . S
H1625 C1641 0.930 . S
H1626 C1642 0.931 . S
C1627 H1615 0.929 1_545 S
C1627 C1621 1.390 . S
C1627 C1624 1.386 . S
C1628 C1623 1.490 . S
C1628 C1630 1.395 . S
C1628 C1631 1.403 1_545 S
H1629 C1635 0.930 . S
C1630 H1616 0.930 . S
C1630 C1628 1.395 . S
C1630 C1633 1.403 1_655 S
C1631 C1628 1.403 1_565 S
C1631 C1632 1.524 . S
C1631 C1635 1.400 1_655 S
C1632 H1617 0.960 . S
C1632 H1618 0.960 . S
C1632 H1619 0.960 . S
C1632 C1631 1.524 . S
C1633 C1630 1.403 1_455 S
C1633 C1634 1.392 1_545 S
C1633 C1637 1.495 . S
C1634 C1633 1.392 1_565 S
C1634 C1635 1.385 . S
C1634 C1636 1.478 . S
C1635 H1629 0.930 . S
C1635 C1631 1.400 1_455 S
C1635 C1634 1.385 . S
C1636 C1634 1.478 . S
C1636 C1638 1.381 1_565 S
C1636 C1642 1.383 . S
C1637 C1633 1.495 . S
C1637 H1643 0.959 . S
C1637 H1644 0.961 . S
C1637 H1645 0.960 . S
C1638 C1636 1.381 1_545 S
C1638 C1639 1.394 1_545 S
C1638 H1646 0.930 . S
C1639 C1638 1.394 1_565 S
C1639 C1640 1.383 . S
C1639 H1647 0.928 1_565 S
C1640 C1639 1.383 . S
C1640 C1641 1.377 . S
C1641 H1625 0.930 . S
C1641 C1640 1.377 . S
C1641 C1642 1.379 . S
C1642 H1626 0.931 . S
C1642 C1636 1.383 . S
C1642 C1641 1.379 . S
H1643 C1637 0.959 . S
H1644 C1637 0.961 . S
H1645 C1637 0.960 . S
H1646 C1638 0.930 . S
H1647 C1639 0.928 1_545 S
H1648 C1656 0.929 . S
H1649 C1658 0.930 . S
H1650 C1660 0.930 . S
H1651 C1663 0.929 . S
H1652 C1666 0.930 . S
H1653 C1668 0.960 . S
H1654 C1668 0.960 . S
H1655 C1668 0.960 . S
C1656 H1648 0.929 . S
C1656 C1657 1.377 . S
C1656 C1658 1.384 . S
C1657 C1656 1.377 . S
C1657 C1663 1.390 . S
C1658 H1649 0.930 . S
C1658 C1656 1.384 . S
C1658 C1659 1.372 . S
C1659 C1658 1.372 . S
C1659 C1660 1.400 . S
C1659 C1664 1.490 . S
C1660 H1650 0.930 . S
C1660 C1659 1.400 . S
C1660 C1663 1.386 . S
H1661 C1677 0.930 . S
H1662 C1678 0.931 . S
C1663 H1651 0.929 . S
C1663 C1657 1.390 . S
C1663 C1660 1.386 . S
C1664 C1659 1.490 . S
C1664 C1666 1.395 . S
C1664 C1667 1.403 . S
H1665 C1671 0.930 . S
C1666 H1652 0.930 . S
C1666 C1664 1.395 . S
C1666 C1669 1.403 . S
C1667 C1664 1.403 . S
C1667 C1668 1.524 . S
C1667 C1671 1.400 . S
C1668 H1653 0.960 . S
C1668 H1654 0.960 . S
C1668 H1655 0.960 . S
C1668 C1667 1.524 . S
C1669 C1666 1.403 . S
C1669 C1670 1.392 . S
C1669 C1673 1.495 . S
C1670 C1669 1.392 . S
C1670 C1671 1.385 . S
C1670 C1672 1.478 . S
C1671 H1665 0.930 . S
C1671 C1667 1.400 . S
C1671 C1670 1.385 . S
C1672 C1670 1.478 . S
C1672 C1674 1.381 . S
C1672 C1678 1.383 . S
C1673 C1669 1.495 . S
C1673 H1679 0.959 . S
C1673 H1680 0.961 . S
C1673 H1681 0.960 . S
C1674 C1672 1.381 . S
C1674 C1675 1.394 . S
C1674 H1682 0.930 . S
C1675 C1674 1.394 . S
C1675 C1676 1.383 . S
C1675 H1683 0.929 . S
C1676 C1675 1.383 . S
C1676 C1677 1.377 . S
C1677 H1661 0.930 . S
C1677 C1676 1.377 . S
C1677 C1678 1.379 . S
C1678 H1662 0.931 . S
C1678 C1672 1.383 . S
C1678 C1677 1.379 . S
H1679 C1673 0.959 . S
H1680 C1673 0.961 . S
H1681 C1673 0.960 . S
H1682 C1674 0.930 . S
H1683 C1675 0.929 . S
H1684 C1692 0.929 . S
H1685 C1694 0.930 . S
H1686 C1696 0.930 . S
H1687 C1699 0.929 . S
H1688 C1702 0.930 . S
H1689 C1704 0.960 . S
H1690 C1704 0.960 . S
H1691 C1704 0.960 . S
C1692 H1684 0.929 . S
C1692 C1693 1.377 . S
C1692 C1694 1.384 . S
C1693 C1692 1.377 . S
C1693 C1699 1.390 . S
C1694 H1685 0.930 . S
C1694 C1692 1.384 . S
C1694 C1695 1.372 . S
C1695 C1694 1.372 . S
C1695 C1696 1.400 . S
C1695 C1700 1.490 . S
C1696 H1686 0.930 . S
C1696 C1695 1.400 . S
C1696 C1699 1.386 . S
H1697 C1713 0.930 . S
H1698 C1714 0.931 . S
C1699 H1687 0.929 . S
C1699 C1693 1.390 . S
C1699 C1696 1.386 . S
C1700 C1695 1.490 . S
C1700 C1702 1.395 . S
C1700 C1703 1.403 . S
H1701 C1707 0.930 . S
C1702 H1688 0.930 . S
C1702 C1700 1.395 . S
C1702 C1705 1.403 . S
C1703 C1700 1.403 . S
C1703 C1704 1.524 . S
C1703 C1707 1.400 . S
C1704 H1689 0.960 . S
C1704 H1690 0.960 . S
C1704 H1691 0.960 . S
C1704 C1703 1.524 . S
C1705 C1702 1.403 . S
C1705 C1706 1.392 . S
C1705 C1709 1.495 . S
C1706 C1705 1.392 . S
C1706 C1707 1.385 . S
C1706 C1708 1.478 . S
C1707 H1701 0.930 . S
C1707 C1703 1.400 . S
C1707 C1706 1.385 . S
C1708 C1706 1.478 . S
C1708 C1710 1.381 . S
C1708 C1714 1.383 . S
C1709 C1705 1.495 . S
C1709 H1715 0.959 . S
C1709 H1716 0.961 . S
C1709 H1717 0.960 . S
C1710 C1708 1.381 . S
C1710 C1711 1.394 . S
C1710 H1718 0.930 . S
C1711 C1710 1.394 . S
C1711 C1712 1.383 . S
C1711 H1719 0.929 . S
C1712 C1711 1.383 . S
C1712 C1713 1.377 . S
C1713 H1697 0.930 . S
C1713 C1712 1.377 . S
C1713 C1714 1.379 . S
C1714 H1698 0.931 . S
C1714 C1708 1.383 . S
C1714 C1713 1.379 . S
H1715 C1709 0.959 . S
H1716 C1709 0.961 . S
H1717 C1709 0.960 . S
H1718 C1710 0.930 . S
H1719 C1711 0.929 . S
H1720 C1728 0.929 . S
H1721 C1730 0.930 . S
H1722 C1732 0.930 . S
H1723 C1735 0.929 . S
H1724 C1738 0.930 . S
H1725 C1740 0.960 . S
H1726 C1740 0.960 . S
H1727 C1740 0.960 . S
C1728 H1720 0.929 . S
C1728 C1729 1.377 . S
C1728 C1730 1.384 . S
C1729 C1728 1.377 . S
C1729 C1735 1.390 . S
C1730 H1721 0.930 . S
C1730 C1728 1.384 . S
C1730 C1731 1.372 . S
C1731 C1730 1.372 . S
C1731 C1732 1.400 . S
C1731 C1736 1.490 . S
C1732 H1722 0.930 . S
C1732 C1731 1.400 . S
C1732 C1735 1.386 . S
H1733 C1749 0.930 . S
H1734 C1750 0.931 . S
C1735 H1723 0.929 . S
C1735 C1729 1.390 . S
C1735 C1732 1.386 . S
C1736 C1731 1.490 . S
C1736 C1738 1.395 . S
C1736 C1739 1.403 . S
H1737 C1743 0.930 . S
C1738 H1724 0.930 . S
C1738 C1736 1.395 . S
C1738 C1741 1.403 . S
C1739 C1736 1.403 . S
C1739 C1740 1.524 . S
C1739 C1743 1.400 . S
C1740 H1725 0.960 . S
C1740 H1726 0.960 . S
C1740 H1727 0.960 . S
C1740 C1739 1.524 . S
C1741 C1738 1.403 . S
C1741 C1742 1.392 . S
C1741 C1745 1.495 . S
C1742 C1741 1.392 . S
C1742 C1743 1.385 . S
C1742 C1744 1.478 . S
C1743 H1737 0.930 . S
C1743 C1739 1.400 . S
C1743 C1742 1.385 . S
C1744 C1742 1.478 . S
C1744 C1746 1.381 . S
C1744 C1750 1.383 . S
C1745 C1741 1.495 . S
C1745 H1751 0.959 . S
C1745 H1752 0.961 . S
C1745 H1753 0.960 . S
C1746 C1744 1.381 . S
C1746 C1747 1.394 . S
C1746 H1754 0.930 . S
C1747 C1746 1.394 . S
C1747 C1748 1.383 . S
C1747 H1755 0.929 . S
C1748 C1747 1.383 . S
C1748 C1749 1.377 . S
C1749 H1733 0.930 . S
C1749 C1748 1.377 . S
C1749 C1750 1.379 . S
C1750 H1734 0.931 . S
C1750 C1744 1.383 . S
C1750 C1749 1.379 . S
H1751 C1745 0.959 . S
H1752 C1745 0.961 . S
H1753 C1745 0.960 . S
H1754 C1746 0.930 . S
H1755 C1747 0.929 . S
H1756 C1764 0.929 . S
H1757 C1766 0.930 . S
H1758 C1768 0.930 . S
H1759 C1771 0.929 . S
H1760 C1774 0.930 . S
H1761 C1776 0.960 . S
H1762 C1776 0.960 . S
H1763 C1776 0.960 . S
C1764 H1756 0.929 . S
C1764 C1765 1.377 . S
C1764 C1766 1.384 . S
C1765 C1764 1.377 . S
C1765 C1771 1.390 . S
C1766 H1757 0.930 . S
C1766 C1764 1.384 . S
C1766 C1767 1.372 . S
C1767 C1766 1.372 . S
C1767 C1768 1.400 . S
C1767 C1772 1.490 . S
C1768 H1758 0.930 . S
C1768 C1767 1.400 . S
C1768 C1771 1.386 . S
H1769 C1785 0.930 . S
H1770 C1786 0.931 . S
C1771 H1759 0.929 . S
C1771 C1765 1.390 . S
C1771 C1768 1.386 . S
C1772 C1767 1.490 . S
C1772 C1774 1.395 . S
C1772 C1775 1.403 . S
H1773 C1779 0.930 . S
C1774 H1760 0.930 . S
C1774 C1772 1.395 . S
C1774 C1777 1.403 . S
C1775 C1772 1.403 . S
C1775 C1776 1.524 . S
C1775 C1779 1.400 . S
C1776 H1761 0.960 . S
C1776 H1762 0.960 . S
C1776 H1763 0.960 . S
C1776 C1775 1.524 . S
C1777 C1774 1.403 . S
C1777 C1778 1.392 . S
C1777 C1781 1.495 . S
C1778 C1777 1.392 . S
C1778 C1779 1.385 . S
C1778 C1780 1.478 . S
C1779 H1773 0.930 . S
C1779 C1775 1.400 . S
C1779 C1778 1.385 . S
C1780 C1778 1.478 . S
C1780 C1782 1.381 . S
C1780 C1786 1.383 . S
C1781 C1777 1.495 . S
C1781 H1787 0.959 . S
C1781 H1788 0.961 . S
C1781 H1789 0.960 . S
C1782 C1780 1.381 . S
C1782 C1783 1.394 . S
C1782 H1790 0.930 . S
C1783 C1782 1.394 . S
C1783 C1784 1.383 . S
C1783 H1791 0.929 . S
C1784 C1783 1.383 . S
C1784 C1785 1.377 . S
C1785 H1769 0.930 . S
C1785 C1784 1.377 . S
C1785 C1786 1.379 . S
C1786 H1770 0.931 . S
C1786 C1780 1.383 . S
C1786 C1785 1.379 . S
H1787 C1781 0.959 . S
H1788 C1781 0.961 . S
H1789 C1781 0.960 . S
H1790 C1782 0.930 . S
H1791 C1783 0.929 . S
H1792 C1800 0.929 . S
H1793 C1802 0.930 . S
H1794 C1804 0.930 . S
H1795 C1807 0.929 . S
H1796 C1810 0.930 . S
H1797 C1812 0.960 . S
H1798 C1812 0.960 . S
H1799 C1812 0.960 . S
C1800 H1792 0.929 . S
C1800 C1801 1.377 . S
C1800 C1802 1.384 . S
C1801 C1800 1.377 . S
C1801 C1807 1.390 . S
C1802 H1793 0.930 . S
C1802 C1800 1.384 . S
C1802 C1803 1.372 . S
C1803 C1802 1.372 . S
C1803 C1804 1.400 . S
C1803 C1808 1.490 . S
C1804 H1794 0.930 . S
C1804 C1803 1.400 . S
C1804 C1807 1.386 . S
H1805 C1821 0.930 . S
H1806 C1822 0.931 . S
C1807 H1795 0.929 . S
C1807 C1801 1.390 . S
C1807 C1804 1.386 . S
C1808 C1803 1.490 . S
C1808 C1810 1.395 . S
C1808 C1811 1.403 . S
H1809 C1815 0.930 . S
C1810 H1796 0.930 . S
C1810 C1808 1.395 . S
C1810 C1813 1.403 . S
C1811 C1808 1.403 . S
C1811 C1812 1.524 . S
C1811 C1815 1.400 . S
C1812 H1797 0.960 . S
C1812 H1798 0.960 . S
C1812 H1799 0.960 . S
C1812 C1811 1.524 . S
C1813 C1810 1.403 . S
C1813 C1814 1.392 . S
C1813 C1817 1.495 . S
C1814 C1813 1.392 . S
C1814 C1815 1.385 . S
C1814 C1816 1.478 . S
C1815 H1809 0.930 . S
C1815 C1811 1.400 . S
C1815 C1814 1.385 . S
C1816 C1814 1.478 . S
C1816 C1818 1.381 . S
C1816 C1822 1.383 . S
C1817 C1813 1.495 . S
C1817 H1823 0.959 . S
C1817 H1824 0.961 . S
C1817 H1825 0.960 . S
C1818 C1816 1.381 . S
C1818 C1819 1.394 . S
C1818 H1826 0.930 . S
C1819 C1818 1.394 . S
C1819 C1820 1.383 . S
C1819 H1827 0.929 . S
C1820 C1819 1.383 . S
C1820 C1821 1.377 . S
C1821 H1805 0.930 . S
C1821 C1820 1.377 . S
C1821 C1822 1.379 . S
C1822 H1806 0.931 . S
C1822 C1816 1.383 . S
C1822 C1821 1.379 . S
H1823 C1817 0.959 . S
H1824 C1817 0.961 . S
H1825 C1817 0.960 . S
H1826 C1818 0.930 . S
H1827 C1819 0.929 . S
H1828 C1836 0.929 . S
H1829 C1838 0.930 . S
H1830 C1840 0.930 . S
H1831 C1843 0.929 . S
H1832 C1846 0.930 . S
H1833 C1848 0.960 . S
H1834 C1848 0.960 . S
H1835 C1848 0.960 . S
C1836 H1828 0.929 . S
C1836 C1837 1.377 . S
C1836 C1838 1.384 . S
C1837 C1836 1.377 . S
C1837 C1843 1.390 . S
C1838 H1829 0.930 . S
C1838 C1836 1.384 . S
C1838 C1839 1.372 . S
C1839 C1838 1.372 . S
C1839 C1840 1.400 . S
C1839 C1844 1.490 . S
C1840 H1830 0.930 . S
C1840 C1839 1.400 . S
C1840 C1843 1.386 . S
H1841 C1857 0.930 . S
H1842 C1858 0.931 . S
C1843 H1831 0.929 . S
C1843 C1837 1.390 . S
C1843 C1840 1.386 . S
C1844 C1839 1.490 . S
C1844 C1846 1.395 . S
C1844 C1847 1.403 . S
H1845 C1851 0.930 . S
C1846 H1832 0.930 . S
C1846 C1844 1.395 . S
C1846 C1849 1.403 . S
C1847 C1844 1.403 . S
C1847 C1848 1.524 . S
C1847 C1851 1.400 . S
C1848 H1833 0.960 . S
C1848 H1834 0.960 . S
C1848 H1835 0.960 . S
C1848 C1847 1.524 . S
C1849 C1846 1.403 . S
C1849 C1850 1.392 . S
C1849 C1853 1.495 . S
C1850 C1849 1.392 . S
C1850 C1851 1.385 . S
C1850 C1852 1.478 . S
C1851 H1845 0.930 . S
C1851 C1847 1.400 . S
C1851 C1850 1.385 . S
C1852 C1850 1.478 . S
C1852 C1854 1.381 . S
C1852 C1858 1.383 . S
C1853 C1849 1.495 . S
C1853 H1859 0.959 . S
C1853 H1860 0.961 . S
C1853 H1861 0.960 . S
C1854 C1852 1.381 . S
C1854 C1855 1.394 . S
C1854 H1862 0.930 . S
C1855 C1854 1.394 . S
C1855 C1856 1.383 . S
C1855 H1863 0.929 . S
C1856 C1855 1.383 . S
C1856 C1857 1.377 . S
C1857 H1841 0.930 . S
C1857 C1856 1.377 . S
C1857 C1858 1.379 . S
C1858 H1842 0.931 . S
C1858 C1852 1.383 . S
C1858 C1857 1.379 . S
H1859 C1853 0.959 . S
H1860 C1853 0.961 . S
H1861 C1853 0.960 . S
H1862 C1854 0.930 . S
H1863 C1855 0.929 . S
H1864 C1872 0.929 . S
H1865 C1874 0.930 . S
H1866 C1876 0.930 . S
H1867 C1879 0.929 . S
H1868 C1882 0.930 . S
H1869 C1884 0.960 . S
H1870 C1884 0.960 . S
H1871 C1884 0.960 . S
C1872 H1864 0.929 . S
C1872 C1873 1.377 . S
C1872 C1874 1.384 . S
C1873 C1872 1.377 . S
C1873 C1879 1.390 . S
C1874 H1865 0.930 . S
C1874 C1872 1.384 . S
C1874 C1875 1.372 . S
C1875 C1874 1.372 . S
C1875 C1876 1.400 . S
C1875 C1880 1.490 . S
C1876 H1866 0.930 . S
C1876 C1875 1.400 . S
C1876 C1879 1.386 . S
H1877 C1893 0.930 . S
H1878 C1894 0.931 . S
C1879 H1867 0.929 . S
C1879 C1873 1.390 . S
C1879 C1876 1.386 . S
C1880 C1875 1.490 . S
C1880 C1882 1.395 . S
C1880 C1883 1.403 . S
H1881 C1887 0.930 . S
C1882 H1868 0.930 . S
C1882 C1880 1.395 . S
C1882 C1885 1.403 . S
C1883 C1880 1.403 . S
C1883 C1884 1.524 . S
C1883 C1887 1.400 . S
C1884 H1869 0.960 . S
C1884 H1870 0.960 . S
C1884 H1871 0.960 . S
C1884 C1883 1.524 . S
C1885 C1882 1.403 . S
C1885 C1886 1.392 . S
C1885 C1889 1.495 . S
C1886 C1885 1.392 . S
C1886 C1887 1.385 . S
C1886 C1888 1.478 . S
C1887 H1881 0.930 . S
C1887 C1883 1.400 . S
C1887 C1886 1.385 . S
C1888 C1886 1.478 . S
C1888 C1890 1.381 . S
C1888 C1894 1.383 . S
C1889 C1885 1.495 . S
C1889 H1895 0.959 . S
C1889 H1896 0.961 . S
C1889 H1897 0.960 . S
C1890 C1888 1.381 . S
C1890 C1891 1.394 . S
C1890 H1898 0.930 . S
C1891 C1890 1.394 . S
C1891 C1892 1.383 . S
C1891 H1899 0.929 . S
C1892 C1891 1.383 . S
C1892 C1893 1.377 . S
C1893 H1877 0.930 . S
C1893 C1892 1.377 . S
C1893 C1894 1.379 . S
C1894 H1878 0.931 . S
C1894 C1888 1.383 . S
C1894 C1893 1.379 . S
H1895 C1889 0.959 . S
H1896 C1889 0.961 . S
H1897 C1889 0.960 . S
H1898 C1890 0.930 . S
H1899 C1891 0.929 . S
H1900 C1908 0.929 . S
H1901 C1910 0.930 . S
H1902 C1912 0.930 . S
H1903 C1915 0.929 . S
H1904 C1918 0.930 . S
H1905 C1920 0.960 . S
H1906 C1920 0.960 . S
H1907 C1920 0.960 . S
C1908 H1900 0.929 . S
C1908 C1909 1.377 . S
C1908 C1910 1.384 . S
C1909 C1908 1.377 . S
C1909 C1915 1.390 . S
C1910 H1901 0.930 . S
C1910 C1908 1.384 . S
C1910 C1911 1.372 . S
C1911 C1910 1.372 . S
C1911 C1912 1.400 . S
C1911 C1916 1.490 . S
C1912 H1902 0.930 . S
C1912 C1911 1.400 . S
C1912 C1915 1.386 . S
H1913 C1929 0.930 . S
H1914 C1930 0.931 . S
C1915 H1903 0.929 . S
C1915 C1909 1.390 . S
C1915 C1912 1.386 . S
C1916 C1911 1.490 . S
C1916 C1918 1.395 . S
C1916 C1919 1.403 . S
H1917 C1923 0.930 . S
C1918 H1904 0.930 . S
C1918 C1916 1.395 . S
C1918 C1921 1.403 . S
C1919 C1916 1.403 . S
C1919 C1920 1.524 . S
C1919 C1923 1.400 . S
C1920 H1905 0.960 . S
C1920 H1906 0.960 . S
C1920 H1907 0.960 . S
C1920 C1919 1.524 . S
C1921 C1918 1.403 . S
C1921 C1922 1.392 . S
C1921 C1925 1.495 . S
C1922 C1921 1.392 . S
C1922 C1923 1.385 . S
C1922 C1924 1.478 . S
C1923 H1917 0.930 . S
C1923 C1919 1.400 . S
C1923 C1922 1.385 . S
C1924 C1922 1.478 . S
C1924 C1926 1.381 . S
C1924 C1930 1.383 . S
C1925 C1921 1.495 . S
C1925 H1931 0.959 . S
C1925 H1932 0.961 . S
C1925 H1933 0.960 . S
C1926 C1924 1.381 . S
C1926 C1927 1.394 . S
C1926 H1934 0.930 . S
C1927 C1926 1.394 . S
C1927 C1928 1.383 . S
C1927 H1935 0.929 . S
C1928 C1927 1.383 . S
C1928 C1929 1.377 . S
C1929 H1913 0.930 . S
C1929 C1928 1.377 . S
C1929 C1930 1.379 . S
C1930 H1914 0.931 . S
C1930 C1924 1.383 . S
C1930 C1929 1.379 . S
H1931 C1925 0.959 . S
H1932 C1925 0.961 . S
H1933 C1925 0.960 . S
H1934 C1926 0.930 . S
H1935 C1927 0.929 . S
H1936 C1944 0.929 . S
H1937 C1946 0.930 . S
H1938 C1948 0.930 . S
H1939 C1951 0.929 . S
H1940 C1954 0.930 . S
H1941 C1956 0.960 . S
H1942 C1956 0.960 . S
H1943 C1956 0.960 . S
C1944 H1936 0.929 . S
C1944 C1945 1.377 . S
C1944 C1946 1.384 . S
C1945 C1944 1.377 . S
C1945 C1951 1.390 . S
C1946 H1937 0.930 . S
C1946 C1944 1.384 . S
C1946 C1947 1.372 . S
C1947 C1946 1.372 . S
C1947 C1948 1.400 . S
C1947 C1952 1.490 . S
C1948 H1938 0.930 . S
C1948 C1947 1.400 . S
C1948 C1951 1.386 . S
H1949 C1965 0.930 . S
H1950 C1966 0.931 . S
C1951 H1939 0.929 . S
C1951 C1945 1.390 . S
C1951 C1948 1.386 . S
C1952 C1947 1.490 . S
C1952 C1954 1.395 . S
C1952 C1955 1.403 . S
H1953 C1959 0.930 . S
C1954 H1940 0.930 . S
C1954 C1952 1.395 . S
C1954 C1957 1.403 . S
C1955 C1952 1.403 . S
C1955 C1956 1.524 . S
C1955 C1959 1.400 . S
C1956 H1941 0.960 . S
C1956 H1942 0.960 . S
C1956 H1943 0.960 . S
C1956 C1955 1.524 . S
C1957 C1954 1.403 . S
C1957 C1958 1.392 . S
C1957 C1961 1.495 . S
C1958 C1957 1.392 . S
C1958 C1959 1.385 . S
C1958 C1960 1.478 . S
C1959 H1953 0.930 . S
C1959 C1955 1.400 . S
C1959 C1958 1.385 . S
C1960 C1958 1.478 . S
C1960 C1962 1.381 . S
C1960 C1966 1.383 . S
C1961 C1957 1.495 . S
C1961 H1967 0.959 . S
C1961 H1968 0.961 . S
C1961 H1969 0.960 . S
C1962 C1960 1.381 . S
C1962 C1963 1.394 . S
C1962 H1970 0.930 . S
C1963 C1962 1.394 . S
C1963 C1964 1.383 . S
C1963 H1971 0.929 . S
C1964 C1963 1.383 . S
C1964 C1965 1.377 . S
C1965 H1949 0.930 . S
C1965 C1964 1.377 . S
C1965 C1966 1.379 . S
C1966 H1950 0.931 . S
C1966 C1960 1.383 . S
C1966 C1965 1.379 . S
H1967 C1961 0.959 . S
H1968 C1961 0.961 . S
H1969 C1961 0.960 . S
H1970 C1962 0.930 . S
H1971 C1963 0.929 . S
H1972 C1980 0.929 . S
H1973 C1982 0.930 . S
H1974 C1984 0.930 . S
H1975 C1987 0.929 . S
H1976 C1990 0.930 . S
H1977 C1992 0.960 . S
H1978 C1992 0.960 . S
H1979 C1992 0.960 . S
C1980 H1972 0.929 . S
C1980 C1981 1.377 . S
C1980 C1982 1.384 . S
C1981 C1980 1.377 . S
C1981 C1987 1.390 . S
C1982 H1973 0.930 . S
C1982 C1980 1.384 . S
C1982 C1983 1.372 . S
C1983 C1982 1.372 . S
C1983 C1984 1.400 . S
C1983 C1988 1.490 . S
C1984 H1974 0.930 . S
C1984 C1983 1.400 . S
C1984 C1987 1.386 . S
H1985 C2001 0.930 . S
H1986 C2002 0.931 . S
C1987 H1975 0.929 . S
C1987 C1981 1.390 . S
C1987 C1984 1.386 . S
C1988 C1983 1.490 . S
C1988 C1990 1.395 . S
C1988 C1991 1.403 . S
H1989 C1995 0.930 . S
C1990 H1976 0.930 . S
C1990 C1988 1.395 . S
C1990 C1993 1.403 . S
C1991 C1988 1.403 . S
C1991 C1992 1.524 . S
C1991 C1995 1.400 . S
C1992 H1977 0.960 . S
C1992 H1978 0.960 . S
C1992 H1979 0.960 . S
C1992 C1991 1.524 . S
C1993 C1990 1.403 . S
C1993 C1994 1.392 . S
C1993 C1997 1.495 . S
C1994 C1993 1.392 . S
C1994 C1995 1.385 . S
C1994 C1996 1.478 . S
C1995 H1989 0.930 . S
C1995 C1991 1.400 . S
C1995 C1994 1.385 . S
C1996 C1994 1.478 . S
C1996 C1998 1.381 . S
C1996 C2002 1.383 . S
C1997 C1993 1.495 . S
C1997 H2003 0.959 . S
C1997 H2004 0.961 . S
C1997 H2005 0.960 . S
C1998 C1996 1.381 . S
C1998 C1999 1.394 . S
C1998 H2006 0.930 . S
C1999 C1998 1.394 . S
C1999 C2000 1.383 . S
C1999 H2007 0.929 . S
C2000 C1999 1.383 . S
C2000 C2001 1.377 . S
C2001 H1985 0.930 . S
C2001 C2000 1.377 . S
C2001 C2002 1.379 . S
C2002 H1986 0.931 . S
C2002 C1996 1.383 . S
C2002 C2001 1.379 . S
H2003 C1997 0.959 . S
H2004 C1997 0.961 . S
H2005 C1997 0.960 . S
H2006 C1998 0.930 . S
H2007 C1999 0.929 . S
H2008 C2016 0.929 . S
H2009 C2018 0.930 . S
H2010 C2020 0.930 . S
H2011 C2023 0.929 . S
H2012 C2026 0.930 . S
H2013 C2028 0.960 . S
H2014 C2028 0.960 . S
H2015 C2028 0.960 . S
C2016 H2008 0.929 . S
C2016 C2017 1.377 . S
C2016 C2018 1.384 . S
C2017 C2016 1.377 . S
C2017 C2023 1.390 . S
C2018 H2009 0.930 . S
C2018 C2016 1.384 . S
C2018 C2019 1.372 . S
C2019 C2018 1.372 . S
C2019 C2020 1.400 . S
C2019 C2024 1.490 . S
C2020 H2010 0.930 . S
C2020 C2019 1.400 . S
C2020 C2023 1.386 . S
H2021 C2037 0.930 . S
H2022 C2038 0.931 . S
C2023 H2011 0.929 . S
C2023 C2017 1.390 . S
C2023 C2020 1.386 . S
C2024 C2019 1.490 . S
C2024 C2026 1.395 . S
C2024 C2027 1.403 . S
H2025 C2031 0.930 . S
C2026 H2012 0.930 . S
C2026 C2024 1.395 . S
C2026 C2029 1.403 . S
C2027 C2024 1.403 . S
C2027 C2028 1.524 . S
C2027 C2031 1.400 . S
C2028 H2013 0.960 . S
C2028 H2014 0.960 . S
C2028 H2015 0.960 . S
C2028 C2027 1.524 . S
C2029 C2026 1.403 . S
C2029 C2030 1.392 . S
C2029 C2033 1.495 . S
C2030 C2029 1.392 . S
C2030 C2031 1.385 . S
C2030 C2032 1.478 . S
C2031 H2025 0.930 . S
C2031 C2027 1.400 . S
C2031 C2030 1.385 . S
C2032 C2030 1.478 . S
C2032 C2034 1.381 . S
C2032 C2038 1.383 . S
C2033 C2029 1.495 . S
C2033 H2039 0.959 . S
C2033 H2040 0.961 . S
C2033 H2041 0.960 . S
C2034 C2032 1.381 . S
C2034 C2035 1.394 . S
C2034 H2042 0.930 . S
C2035 C2034 1.394 . S
C2035 C2036 1.383 . S
C2035 H2043 0.929 . S
C2036 C2035 1.383 . S
C2036 C2037 1.377 . S
C2037 H2021 0.930 . S
C2037 C2036 1.377 . S
C2037 C2038 1.379 . S
C2038 H2022 0.931 . S
C2038 C2032 1.383 . S
C2038 C2037 1.379 . S
H2039 C2033 0.959 . S
H2040 C2033 0.961 . S
H2041 C2033 0.960 . S
H2042 C2034 0.930 . S
H2043 C2035 0.929 . S
H2044 C2052 0.929 . S
H2045 C2054 0.930 . S
H2046 C2056 0.930 . S
H2047 C2059 0.929 . S
H2048 C2062 0.930 . S
H2049 C2064 0.960 . S
H2050 C2064 0.960 . S
H2051 C2064 0.960 . S
C2052 H2044 0.929 . S
C2052 C2053 1.377 . S
C2052 C2054 1.384 . S
C2053 C2052 1.377 . S
C2053 C2059 1.390 . S
C2054 H2045 0.930 . S
C2054 C2052 1.384 . S
C2054 C2055 1.372 . S
C2055 C2054 1.372 . S
C2055 C2056 1.400 . S
C2055 C2060 1.490 . S
C2056 H2046 0.930 . S
C2056 C2055 1.400 . S
C2056 C2059 1.386 . S
H2057 C2073 0.930 . S
H2058 C2074 0.931 . S
C2059 H2047 0.929 . S
C2059 C2053 1.390 . S
C2059 C2056 1.386 . S
C2060 C2055 1.490 . S
C2060 C2062 1.395 . S
C2060 C2063 1.403 . S
H2061 C2067 0.930 . S
C2062 H2048 0.930 . S
C2062 C2060 1.395 . S
C2062 C2065 1.403 . S
C2063 C2060 1.403 . S
C2063 C2064 1.524 . S
C2063 C2067 1.400 . S
C2064 H2049 0.960 . S
C2064 H2050 0.960 . S
C2064 H2051 0.960 . S
C2064 C2063 1.524 . S
C2065 C2062 1.403 . S
C2065 C2066 1.392 . S
C2065 C2069 1.495 . S
C2066 C2065 1.392 . S
C2066 C2067 1.385 . S
C2066 C2068 1.478 . S
C2067 H2061 0.930 . S
C2067 C2063 1.400 . S
C2067 C2066 1.385 . S
C2068 C2066 1.478 . S
C2068 C2070 1.381 . S
C2068 C2074 1.383 . S
C2069 C2065 1.495 . S
C2069 H2075 0.959 . S
C2069 H2076 0.961 . S
C2069 H2077 0.960 . S
C2070 C2068 1.381 . S
C2070 C2071 1.394 . S
C2070 H2078 0.930 . S
C2071 C2070 1.394 . S
C2071 C2072 1.383 . S
C2071 H2079 0.929 . S
C2072 C2071 1.383 . S
C2072 C2073 1.377 . S
C2073 H2057 0.930 . S
C2073 C2072 1.377 . S
C2073 C2074 1.379 . S
C2074 H2058 0.931 . S
C2074 C2068 1.383 . S
C2074 C2073 1.379 . S
H2075 C2069 0.959 . S
H2076 C2069 0.961 . S
H2077 C2069 0.960 . S
H2078 C2070 0.930 . S
H2079 C2071 0.929 . S
H2080 C2088 0.929 . S
H2081 C2090 0.930 1_545 S
H2082 C2092 0.930 1_545 S
H2083 C2095 0.929 . S
H2084 C2098 0.930 . S
H2085 C2100 0.960 . S
H2086 C2100 0.960 . S
H2087 C2100 0.960 . S
C2088 H2080 0.929 . S
C2088 C2089 1.377 . S
C2088 C2090 1.384 . S
C2089 C2088 1.377 . S
C2089 C2095 1.390 . S
C2090 H2081 0.930 1_565 S
C2090 C2088 1.384 . S
C2090 C2091 1.372 1_565 S
C2091 C2090 1.372 1_545 S
C2091 C2092 1.400 1_545 S
C2091 C2096 1.490 . S
C2092 H2082 0.930 1_565 S
C2092 C2091 1.400 1_565 S
C2092 C2095 1.386 . S
H2093 C2109 0.930 . S
H2094 C2110 0.931 . S
C2095 H2083 0.929 . S
C2095 C2089 1.390 . S
C2095 C2092 1.386 . S
C2096 C2091 1.490 . S
C2096 C2098 1.395 . S
C2096 C2099 1.403 . S
H2097 C2103 0.930 . S
C2098 H2084 0.930 . S
C2098 C2096 1.395 . S
C2098 C2101 1.403 . S
C2099 C2096 1.403 . S
C2099 C2100 1.524 . S
C2099 C2103 1.400 . S
C2100 H2085 0.960 . S
C2100 H2086 0.960 . S
C2100 H2087 0.960 . S
C2100 C2099 1.524 . S
C2101 C2098 1.403 . S
C2101 C2102 1.392 . S
C2101 C2105 1.495 . S
C2102 C2101 1.392 . S
C2102 C2103 1.385 . S
C2102 C2104 1.478 . S
C2103 H2097 0.930 . S
C2103 C2099 1.400 . S
C2103 C2102 1.385 . S
C2104 C2102 1.478 . S
C2104 C2106 1.381 . S
C2104 C2110 1.383 . S
C2105 C2101 1.495 . S
C2105 H2111 0.959 . S
C2105 H2112 0.961 . S
C2105 H2113 0.960 . S
C2106 C2104 1.381 . S
C2106 C2107 1.394 . S
C2106 H2114 0.930 . S
C2107 C2106 1.394 . S
C2107 C2108 1.383 . S
C2107 H2115 0.929 . S
C2108 C2107 1.383 . S
C2108 C2109 1.377 . S
C2109 H2093 0.930 . S
C2109 C2108 1.377 . S
C2109 C2110 1.379 . S
C2110 H2094 0.931 . S
C2110 C2104 1.383 . S
C2110 C2109 1.379 . S
H2111 C2105 0.959 . S
H2112 C2105 0.961 . S
H2113 C2105 0.960 . S
H2114 C2106 0.930 . S
H2115 C2107 0.929 . S
H2116 C2124 0.929 . S
H2117 C2126 0.930 . S
H2118 C2128 0.930 . S
H2119 C2131 0.929 . S
H2120 C2134 0.930 . S
H2121 C2136 0.960 . S
H2122 C2136 0.960 . S
H2123 C2136 0.960 . S
C2124 H2116 0.929 . S
C2124 C2125 1.377 . S
C2124 C2126 1.384 . S
C2125 C2124 1.377 . S
C2125 C2131 1.390 . S
C2126 H2117 0.930 . S
C2126 C2124 1.384 . S
C2126 C2127 1.372 . S
C2127 C2126 1.372 . S
C2127 C2128 1.400 . S
C2127 C2132 1.490 . S
C2128 H2118 0.930 . S
C2128 C2127 1.400 . S
C2128 C2131 1.386 . S
H2129 C2145 0.930 . S
H2130 C2146 0.931 . S
C2131 H2119 0.929 . S
C2131 C2125 1.390 . S
C2131 C2128 1.386 . S
C2132 C2127 1.490 . S
C2132 C2134 1.395 . S
C2132 C2135 1.403 . S
H2133 C2139 0.930 . S
C2134 H2120 0.930 . S
C2134 C2132 1.395 . S
C2134 C2137 1.403 . S
C2135 C2132 1.403 . S
C2135 C2136 1.524 . S
C2135 C2139 1.400 . S
C2136 H2121 0.960 . S
C2136 H2122 0.960 . S
C2136 H2123 0.960 . S
C2136 C2135 1.524 . S
C2137 C2134 1.403 . S
C2137 C2138 1.392 . S
C2137 C2141 1.495 . S
C2138 C2137 1.392 . S
C2138 C2139 1.385 . S
C2138 C2140 1.478 . S
C2139 H2133 0.930 . S
C2139 C2135 1.400 . S
C2139 C2138 1.385 . S
C2140 C2138 1.478 . S
C2140 C2142 1.381 1_565 S
C2140 C2146 1.383 1_565 S
C2141 C2137 1.495 . S
C2141 H2147 0.959 . S
C2141 H2148 0.961 . S
C2141 H2149 0.960 . S
C2142 C2140 1.381 1_545 S
C2142 C2143 1.394 . S
C2142 H2150 0.930 1_545 S
C2143 C2142 1.394 . S
C2143 C2144 1.383 . S
C2143 H2151 0.929 . S
C2144 C2143 1.383 . S
C2144 C2145 1.377 . S
C2145 H2129 0.930 . S
C2145 C2144 1.377 . S
C2145 C2146 1.379 . S
C2146 H2130 0.931 . S
C2146 C2140 1.383 1_545 S
C2146 C2145 1.379 . S
H2147 C2141 0.959 . S
H2148 C2141 0.961 . S
H2149 C2141 0.960 . S
H2150 C2142 0.930 1_565 S
H2151 C2143 0.929 . S
H2152 C2160 0.929 . S
H2153 C2162 0.930 . S
H2154 C2164 0.930 1_565 S
H2155 C2167 0.929 . S
H2156 C2170 0.930 . S
H2157 C2172 0.960 . S
H2158 C2172 0.960 . S
H2159 C2172 0.960 . S
C2160 H2152 0.929 . S
C2160 C2161 1.377 . S
C2160 C2162 1.384 . S
C2161 C2160 1.377 . S
C2161 C2167 1.390 . S
C2162 H2153 0.930 . S
C2162 C2160 1.384 . S
C2162 C2163 1.372 1_545 S
C2163 C2162 1.372 1_565 S
C2163 C2164 1.400 1_565 S
C2163 C2168 1.490 . S
C2164 H2154 0.930 1_545 S
C2164 C2163 1.400 1_545 S
C2164 C2167 1.386 . S
H2165 C2181 0.930 . S
H2166 C2182 0.931 . S
C2167 H2155 0.929 . S
C2167 C2161 1.390 . S
C2167 C2164 1.386 . S
C2168 C2163 1.490 . S
C2168 C2170 1.395 . S
C2168 C2171 1.403 . S
H2169 C2175 0.930 . S
C2170 H2156 0.930 . S
C2170 C2168 1.395 . S
C2170 C2173 1.403 . S
C2171 C2168 1.403 . S
C2171 C2172 1.524 . S
C2171 C2175 1.400 . S
C2172 H2157 0.960 . S
C2172 H2158 0.960 . S
C2172 H2159 0.960 . S
C2172 C2171 1.524 . S
C2173 C2170 1.403 . S
C2173 C2174 1.392 . S
C2173 C2177 1.495 . S
C2174 C2173 1.392 . S
C2174 C2175 1.385 . S
C2174 C2176 1.478 . S
C2175 H2169 0.930 . S
C2175 C2171 1.400 . S
C2175 C2174 1.385 . S
C2176 C2174 1.478 . S
C2176 C2178 1.381 . S
C2176 C2182 1.383 . S
C2177 C2173 1.495 . S
C2177 H2183 0.959 . S
C2177 H2184 0.961 . S
C2177 H2185 0.960 . S
C2178 C2176 1.381 . S
C2178 C2179 1.394 . S
C2178 H2186 0.930 . S
C2179 C2178 1.394 . S
C2179 C2180 1.383 . S
C2179 H2187 0.929 . S
C2180 C2179 1.383 . S
C2180 C2181 1.377 . S
C2181 H2165 0.930 . S
C2181 C2180 1.377 . S
C2181 C2182 1.379 . S
C2182 H2166 0.931 . S
C2182 C2176 1.383 . S
C2182 C2181 1.379 . S
H2183 C2177 0.959 . S
H2184 C2177 0.961 . S
H2185 C2177 0.960 . S
H2186 C2178 0.930 . S
H2187 C2179 0.929 . S
H2188 C2196 0.929 . S
H2189 C2198 0.930 . S
H2190 C2200 0.930 1_545 S
H2191 C2203 0.929 . S
H2192 C2206 0.930 . S
H2193 C2208 0.960 . S
H2194 C2208 0.960 . S
H2195 C2208 0.960 . S
C2196 H2188 0.929 . S
C2196 C2197 1.377 . S
C2196 C2198 1.384 . S
C2197 C2196 1.377 . S
C2197 C2203 1.390 . S
C2198 H2189 0.930 . S
C2198 C2196 1.384 . S
C2198 C2199 1.372 1_565 S
C2199 C2198 1.372 1_545 S
C2199 C2200 1.400 1_545 S
C2199 C2204 1.490 . S
C2200 H2190 0.930 1_565 S
C2200 C2199 1.400 1_565 S
C2200 C2203 1.386 . S
H2201 C2217 0.930 . S
H2202 C2218 0.931 . S
C2203 H2191 0.929 . S
C2203 C2197 1.390 . S
C2203 C2200 1.386 . S
C2204 C2199 1.490 . S
C2204 C2206 1.395 . S
C2204 C2207 1.403 . S
H2205 C2211 0.930 . S
C2206 H2192 0.930 . S
C2206 C2204 1.395 . S
C2206 C2209 1.403 . S
C2207 C2204 1.403 . S
C2207 C2208 1.524 . S
C2207 C2211 1.400 . S
C2208 H2193 0.960 . S
C2208 H2194 0.960 . S
C2208 H2195 0.960 . S
C2208 C2207 1.524 . S
C2209 C2206 1.403 . S
C2209 C2210 1.392 . S
C2209 C2213 1.495 . S
C2210 C2209 1.392 . S
C2210 C2211 1.385 . S
C2210 C2212 1.478 . S
C2211 H2205 0.930 . S
C2211 C2207 1.400 . S
C2211 C2210 1.385 . S
C2212 C2210 1.478 . S
C2212 C2214 1.381 . S
C2212 C2218 1.383 . S
C2213 C2209 1.495 . S
C2213 H2219 0.959 . S
C2213 H2220 0.961 . S
C2213 H2221 0.960 . S
C2214 C2212 1.381 . S
C2214 C2215 1.394 . S
C2214 H2222 0.930 . S
C2215 C2214 1.394 . S
C2215 C2216 1.383 . S
C2215 H2223 0.929 . S
C2216 C2215 1.383 . S
C2216 C2217 1.377 . S
C2217 H2201 0.930 . S
C2217 C2216 1.377 . S
C2217 C2218 1.379 . S
C2218 H2202 0.931 . S
C2218 C2212 1.383 . S
C2218 C2217 1.379 . S
H2219 C2213 0.959 . S
H2220 C2213 0.961 . S
H2221 C2213 0.960 . S
H2222 C2214 0.930 . S
H2223 C2215 0.929 . S
H2224 C2232 0.929 . S
H2225 C2234 0.930 . S
H2226 C2236 0.930 . S
H2227 C2239 0.929 . S
H2228 C2242 0.930 . S
H2229 C2244 0.960 . S
H2230 C2244 0.960 . S
H2231 C2244 0.960 . S
C2232 H2224 0.929 . S
C2232 C2233 1.377 . S
C2232 C2234 1.384 . S
C2233 C2232 1.377 . S
C2233 C2239 1.390 . S
C2234 H2225 0.930 . S
C2234 C2232 1.384 . S
C2234 C2235 1.372 . S
C2235 C2234 1.372 . S
C2235 C2236 1.400 . S
C2235 C2240 1.490 . S
C2236 H2226 0.930 . S
C2236 C2235 1.400 . S
C2236 C2239 1.386 . S
H2237 C2253 0.930 . S
H2238 C2254 0.931 1_565 S
C2239 H2227 0.929 . S
C2239 C2233 1.390 . S
C2239 C2236 1.386 . S
C2240 C2235 1.490 . S
C2240 C2242 1.395 . S
C2240 C2243 1.403 . S
H2241 C2247 0.930 . S
C2242 H2228 0.930 . S
C2242 C2240 1.395 . S
C2242 C2245 1.403 . S
C2243 C2240 1.403 . S
C2243 C2244 1.524 . S
C2243 C2247 1.400 . S
C2244 H2229 0.960 . S
C2244 H2230 0.960 . S
C2244 H2231 0.960 . S
C2244 C2243 1.524 . S
C2245 C2242 1.403 . S
C2245 C2246 1.392 . S
C2245 C2249 1.495 . S
C2246 C2245 1.392 . S
C2246 C2247 1.385 . S
C2246 C2248 1.478 . S
C2247 H2241 0.930 . S
C2247 C2243 1.400 . S
C2247 C2246 1.385 . S
C2248 C2246 1.478 . S
C2248 C2250 1.381 1_565 S
C2248 C2254 1.383 1_565 S
C2249 C2245 1.495 . S
C2249 H2255 0.959 . S
C2249 H2256 0.961 . S
C2249 H2257 0.960 . S
C2250 C2248 1.381 1_545 S
C2250 C2251 1.394 . S
C2250 H2258 0.925 1_545 S
C2251 C2250 1.394 . S
C2251 C2252 1.383 . S
C2251 H2259 0.929 . S
C2252 C2251 1.383 . S
C2252 C2253 1.377 . S
C2253 H2237 0.930 . S
C2253 C2252 1.377 . S
C2253 C2254 1.379 . S
C2254 H2238 0.931 1_545 S
C2254 C2248 1.383 1_545 S
C2254 C2253 1.379 . S
H2255 C2249 0.959 . S
H2256 C2249 0.961 . S
H2257 C2249 0.960 . S
H2258 C2250 0.925 1_565 S
H2259 C2251 0.929 . S
H2260 C2268 0.929 . S
H2261 C2270 0.930 . S
H2262 C2272 0.930 . S
H2263 C2275 0.929 . S
H2264 C2278 0.930 . S
H2265 C2280 0.960 . S
H2266 C2280 0.960 . S
H2267 C2280 0.960 . S
C2268 H2260 0.929 . S
C2268 C2269 1.377 . S
C2268 C2270 1.384 . S
C2269 C2268 1.377 . S
C2269 C2275 1.390 . S
C2270 H2261 0.930 . S
C2270 C2268 1.384 . S
C2270 C2271 1.372 . S
C2271 C2270 1.372 . S
C2271 C2272 1.400 . S
C2271 C2276 1.490 . S
C2272 H2262 0.930 . S
C2272 C2271 1.400 . S
C2272 C2275 1.386 . S
H2273 C2289 0.930 . S
H2274 C2290 0.931 . S
C2275 H2263 0.929 . S
C2275 C2269 1.390 . S
C2275 C2272 1.386 . S
C2276 C2271 1.490 . S
C2276 C2278 1.395 . S
C2276 C2279 1.403 . S
H2277 C2283 0.930 . S
C2278 H2264 0.930 . S
C2278 C2276 1.395 . S
C2278 C2281 1.403 . S
C2279 C2276 1.403 . S
C2279 C2280 1.524 . S
C2279 C2283 1.400 . S
C2280 H2265 0.960 . S
C2280 H2266 0.960 . S
C2280 H2267 0.960 . S
C2280 C2279 1.524 . S
C2281 C2278 1.403 . S
C2281 C2282 1.392 . S
C2281 C2285 1.495 . S
C2282 C2281 1.392 . S
C2282 C2283 1.385 . S
C2282 C2284 1.478 . S
C2283 H2277 0.930 . S
C2283 C2279 1.400 . S
C2283 C2282 1.385 . S
C2284 C2282 1.478 . S
C2284 C2286 1.381 1_545 S
C2284 C2290 1.383 1_545 S
C2285 C2281 1.495 . S
C2285 H2291 0.959 . S
C2285 H2292 0.961 . S
C2285 H2293 0.960 . S
C2286 C2284 1.381 1_565 S
C2286 C2287 1.394 . S
C2286 H2294 0.930 1_565 S
C2287 C2286 1.394 . S
C2287 C2288 1.383 . S
C2287 H2295 0.929 . S
C2288 C2287 1.383 . S
C2288 C2289 1.377 . S
C2289 H2273 0.930 . S
C2289 C2288 1.377 . S
C2289 C2290 1.379 . S
C2290 H2274 0.931 . S
C2290 C2284 1.383 1_565 S
C2290 C2289 1.379 . S
H2291 C2285 0.959 . S
H2292 C2285 0.961 . S
H2293 C2285 0.960 . S
H2294 C2286 0.930 1_545 S
H2295 C2287 0.929 . S
H2296 C2304 0.929 . S
H2297 C2306 0.930 1_545 S
H2298 C2308 0.930 . S
H2299 C2311 0.929 . S
H2300 C2314 0.930 . S
H2301 C2316 0.960 . S
H2302 C2316 0.960 . S
H2303 C2316 0.960 . S
C2304 H2296 0.929 . S
C2304 C2305 1.377 . S
C2304 C2306 1.384 . S
C2305 C2304 1.377 . S
C2305 C2311 1.390 . S
C2306 H2297 0.930 1_565 S
C2306 C2304 1.384 . S
C2306 C2307 1.372 1_565 S
C2307 C2306 1.372 1_545 S
C2307 C2308 1.400 1_545 S
C2307 C2312 1.490 . S
C2308 H2298 0.930 . S
C2308 C2307 1.400 1_565 S
C2308 C2311 1.386 . S
H2309 C2325 0.930 . S
H2310 C2326 0.931 . S
C2311 H2299 0.929 . S
C2311 C2305 1.390 . S
C2311 C2308 1.386 . S
C2312 C2307 1.490 . S
C2312 C2314 1.395 . S
C2312 C2315 1.403 . S
H2313 C2319 0.930 . S
C2314 H2300 0.930 . S
C2314 C2312 1.395 . S
C2314 C2317 1.403 . S
C2315 C2312 1.403 . S
C2315 C2316 1.524 . S
C2315 C2319 1.400 . S
C2316 H2301 0.960 . S
C2316 H2302 0.960 . S
C2316 H2303 0.960 . S
C2316 C2315 1.524 . S
C2317 C2314 1.403 . S
C2317 C2318 1.392 . S
C2317 C2321 1.495 . S
C2318 C2317 1.392 . S
C2318 C2319 1.385 . S
C2318 C2320 1.478 . S
C2319 H2313 0.930 . S
C2319 C2315 1.400 . S
C2319 C2318 1.385 . S
C2320 C2318 1.478 . S
C2320 C2322 1.381 . S
C2320 C2326 1.383 . S
C2321 C2317 1.495 . S
C2321 H2327 0.959 . S
C2321 H2328 0.961 . S
C2321 H2329 0.960 . S
C2322 C2320 1.381 . S
C2322 C2323 1.394 . S
C2322 H2330 0.930 . S
C2323 C2322 1.394 . S
C2323 C2324 1.383 . S
C2323 H2331 0.929 . S
C2324 C2323 1.383 . S
C2324 C2325 1.377 . S
C2325 H2309 0.930 . S
C2325 C2324 1.377 . S
C2325 C2326 1.379 . S
C2326 H2310 0.931 . S
C2326 C2320 1.383 . S
C2326 C2325 1.379 . S
H2327 C2321 0.959 . S
H2328 C2321 0.961 . S
H2329 C2321 0.960 . S
H2330 C2322 0.930 . S
H2331 C2323 0.929 . S
H2332 C2340 0.929 . S
H2333 C2342 0.930 . S
H2334 C2344 0.930 . S
H2335 C2347 0.929 . S
H2336 C2350 0.930 . S
H2337 C2352 0.960 . S
H2338 C2352 0.960 . S
H2339 C2352 0.960 . S
C2340 H2332 0.929 . S
C2340 C2341 1.377 . S
C2340 C2342 1.384 . S
C2341 C2340 1.377 . S
C2341 C2347 1.390 . S
C2342 H2333 0.930 . S
C2342 C2340 1.384 . S
C2342 C2343 1.372 . S
C2343 C2342 1.372 . S
C2343 C2344 1.400 . S
C2343 C2348 1.490 . S
C2344 H2334 0.930 . S
C2344 C2343 1.400 . S
C2344 C2347 1.386 . S
H2345 C2361 0.930 . S
H2346 C2362 0.931 1_565 S
C2347 H2335 0.929 . S
C2347 C2341 1.390 . S
C2347 C2344 1.386 . S
C2348 C2343 1.490 . S
C2348 C2350 1.395 . S
C2348 C2351 1.403 . S
H2349 C2355 0.930 . S
C2350 H2336 0.930 . S
C2350 C2348 1.395 . S
C2350 C2353 1.403 . S
C2351 C2348 1.403 . S
C2351 C2352 1.524 . S
C2351 C2355 1.400 . S
C2352 H2337 0.960 . S
C2352 H2338 0.960 . S
C2352 H2339 0.960 . S
C2352 C2351 1.524 . S
C2353 C2350 1.403 . S
C2353 C2354 1.392 . S
C2353 C2357 1.495 . S
C2354 C2353 1.392 . S
C2354 C2355 1.385 . S
C2354 C2356 1.478 . S
C2355 H2349 0.930 . S
C2355 C2351 1.400 . S
C2355 C2354 1.385 . S
C2356 C2354 1.478 . S
C2356 C2358 1.381 1_565 S
C2356 C2362 1.383 1_565 S
C2357 C2353 1.495 . S
C2357 H2363 0.959 . S
C2357 H2364 0.961 . S
C2357 H2365 0.960 . S
C2358 C2356 1.381 1_545 S
C2358 C2359 1.394 . S
C2358 H2366 0.930 . S
C2359 C2358 1.394 . S
C2359 C2360 1.383 . S
C2359 H2367 0.929 . S
C2360 C2359 1.383 . S
C2360 C2361 1.377 . S
C2361 H2345 0.930 . S
C2361 C2360 1.377 . S
C2361 C2362 1.379 . S
C2362 H2346 0.931 1_545 S
C2362 C2356 1.383 1_545 S
C2362 C2361 1.379 . S
H2363 C2357 0.959 . S
H2364 C2357 0.961 . S
H2365 C2357 0.960 . S
H2366 C2358 0.930 . S
H2367 C2359 0.929 . S
C649 C24 1.528 . S
C668 C384 1.522 . S
C685 C64 1.528 . S
C704 C344 1.522 . S
C721 C464 1.528 . S
C740 C104 1.524 . S
C757 C144 1.528 . S
C776 C424 1.527 . S
C793 C533 1.531 . S
C812 C173 1.523 . S
C829 C493 1.529 . S
C848 C213 1.524 . S
C865 C613 1.528 . S
C884 C253 1.533 . S
C901 C293 1.530 . S
C920 C573 1.529 . S
C937 C103 1.652 . S
C956 C23 1.654 . S
C973 C143 1.649 . S
C992 C63 1.640 . S
C1009 C242 1.649 . S
C1028 C162 1.644 . S
C1045 C202 1.650 . S
C1064 C282 1.640 . S
C1081 C423 1.649 . S
C1100 C343 1.639 . S
C1117 C463 1.651 . S
C1136 C383 1.654 . S
C1153 C482 1.652 . S
C1172 C562 1.645 . S
C1189 C522 1.652 . S
C1208 C602 1.648 . S
C1225 C223 1.557 . S
C1244 C2 1.572 . S
C1261 C183 1.566 . S
C1280 C42 1.570 . S
C1297 C82 1.562 . S
C1316 C303 1.583 . S
C1333 C263 1.564 . S
C1352 C122 1.580 . S
C1369 C322 1.557 . S
C1388 C543 1.578 . S
C1405 C503 1.562 . S
C1424 C362 1.585 . S
C1441 C402 1.565 . S
C1460 C623 1.576 . S
C1477 C583 1.559 . S
C1496 C442 1.552 . S
C1513 C53 1.561 . S
C1532 C13 1.565 . S
C1549 C133 1.558 . S
C1568 C93 1.549 . S
C1585 C224 1.560 . S
C1604 C184 1.544 . S
C1621 C264 1.558 . S
C1640 C304 1.569 . S
C1657 C373 1.557 . S
C1676 C333 1.544 . S
C1693 C453 1.562 . S
C1712 C413 1.569 . S
C1729 C504 1.557 . S
C1748 C544 1.568 . S
C1765 C584 1.559 . S
C1784 C624 1.567 . S
C1801 C26 1.526 . S
C1820 C17 1.526 . S
C1837 C66 1.526 . S
C1856 C57 1.526 . S
C1873 C106 1.526 . S
C1892 C97 1.528 . S
C1909 C137 1.526 . S
C1928 C146 1.527 . S
C1945 C177 1.524 . S
C1964 C186 1.519 . S
C1981 C226 1.524 . S
C2000 C217 1.518 . S
C2017 C257 1.526 . S
C2036 C266 1.522 . S
C2053 C297 1.524 . S
C2072 C306 1.517 . S
C2089 C337 1.525 . S
C2108 C346 1.517 . S
C2125 C386 1.525 . S
C2144 C377 1.528 . S
C2161 C417 1.525 . S
C2180 C426 1.526 . S
C2197 C457 1.524 . S
C2216 C466 1.522 . S
C2233 C497 1.525 . S
C2252 C506 1.527 . S
C2269 C537 1.524 . S
C2288 C546 1.520 . S
C2305 C586 1.525 . S
C2324 C577 1.516 . S
C2341 C617 1.526 . S
C2360 C626 1.527 . S
