# Generated by pormake.
# Topology qtz-e, (6)-cn, num edge types: 1
# Building blocks:
#     Node 0, Type 0, BuildingBlock: HISSIN_clean_sbu_0, # of connection points: 6
#     Node 1, Type 0, BuildingBlock: HISSIN_clean_sbu_0, # of connection points: 6
#     Node 2, Type 0, BuildingBlock: HISSIN_clean_sbu_0, # of connection points: 6
#     Node 3, Type 0, BuildingBlock: HISSIN_clean_sbu_0, # of connection points: 6
#     Node 4, Type 0, BuildingBlock: HISSIN_clean_sbu_0, # of connection points: 6
#     Node 5, Type 0, BuildingBlock: HISSIN_clean_sbu_0, # of connection points: 6
#     Edge 6, Type (0, 0), BuildingBlock: FUNLAD_clean_linker_0, # of connection points: 2
#     Edge 7, Type (0, 0), BuildingBlock: FUNLAD_clean_linker_0, # of connection points: 2
#     Edge 8, Type (0, 0), BuildingBlock: FUNLAD_clean_linker_0, # of connection points: 2
#     Edge 9, Type (0, 0), BuildingBlock: FUNLAD_clean_linker_0, # of connection points: 2
#     Edge 10, Type (0, 0), BuildingBlock: FUNLAD_clean_linker_0, # of connection points: 2
#     Edge 11, Type (0, 0), BuildingBlock: FUNLAD_clean_linker_0, # of connection points: 2
#     Edge 12, Type (0, 0), BuildingBlock: FUNLAD_clean_linker_0, # of connection points: 2
#     Edge 13, Type (0, 0), BuildingBlock: FUNLAD_clean_linker_0, # of connection points: 2
#     Edge 14, Type (0, 0), BuildingBlock: FUNLAD_clean_linker_0, # of connection points: 2
#     Edge 15, Type (0, 0), BuildingBlock: FUNLAD_clean_linker_0, # of connection points: 2
#     Edge 16, Type (0, 0), BuildingBlock: FUNLAD_clean_linker_0, # of connection points: 2
#     Edge 17, Type (0, 0), BuildingBlock: FUNLAD_clean_linker_0, # of connection points: 2
#     Edge 18, Type (0, 0), BuildingBlock: FUNLAD_clean_linker_0, # of connection points: 2
#     Edge 19, Type (0, 0), BuildingBlock: FUNLAD_clean_linker_0, # of connection points: 2
#     Edge 20, Type (0, 0), BuildingBlock: FUNLAD_clean_linker_0, # of connection points: 2
#     Edge 21, Type (0, 0), BuildingBlock: FUNLAD_clean_linker_0, # of connection points: 2
#     Edge 22, Type (0, 0), BuildingBlock: FUNLAD_clean_linker_0, # of connection points: 2
#     Edge 23, Type (0, 0), BuildingBlock: FUNLAD_clean_linker_0, # of connection points: 2
# Relax obj value: 0.134
# Max RMSD: 0.198
# Mean RMSD: 0.198
data_MOF--net-qtz-e--node1-HISSIN_clean_sbu_0--edge1-FUNLAD_clean_linker_0
_symmetry_space_group_name_H-M    P1
_symmetry_Int_Tables_number       1
_symmetry_cell_setting            triclinic
loop_
_symmetry_equiv_pos_as_xyz
'x, y, z'
_cell_length_a     29.252456
_cell_length_b     29.21345
_cell_length_c     58.625558
_cell_angle_alpha  90.113788
_cell_angle_beta   89.978107
_cell_angle_gamma 120.21596
loop_
_atom_site_label
_atom_site_type_symbol
_atom_site_fract_x
_atom_site_fract_y
_atom_site_fract_z
_atom_type_partial_charge
Eu0 Eu 0.1889 0.44883 0.0597 0.0
Eu1 Eu 0.16853 0.33768 0.03437 0.0
C2 C 0.10131 0.39145 0.02253 0.0
C3 C 0.20967 0.55287 0.10434 0.0
C4 C 0.21375 0.52317 0.12218 0.0
C5 C 0.22192 0.62095 0.13148 0.0
C6 C 0.22134 0.54206 0.14462 0.0
C7 C 0.2143 0.60201 0.10908 0.0
C8 C 0.2249 0.59094 0.14957 0.0
C9 C 0.19835 0.53202 0.08094 0.0
O10 O 0.23196 0.40557 0.01394 0.0
O11 O 0.21508 0.47221 0.02335 0.0
C12 C 0.23657 0.45206 1.00992 0.0
O13 O 0.26255 0.44542 0.06577 0.0
O14 O 0.11373 0.26159 0.01866 0.0
O15 O 0.1972 0.28705 0.02084 0.0
O16 O 0.23187 0.35632 0.06059 0.0
C17 C 0.26784 0.40358 0.06784 0.0
O18 O 0.16591 0.38824 0.08721 0.0
O19 O 0.11573 0.3138 0.06569 0.0
O20 O 0.1269 0.37006 0.01341 0.0
O21 O 0.23703 0.53181 0.06995 0.0
O22 O 0.1535 0.48812 0.07807 0.0
O23 O 0.1081 0.40483 0.04408 0.0
C24 C 0.15253 0.24098 0.98766 0.0
C25 C 0.17398 0.20957 0.98108 0.0
C26 C 0.14075 0.25466 0.94765 0.0
C27 C 0.17938 0.2012 0.95798 0.0
C28 C 0.13579 0.26338 0.97077 0.0
C29 C 0.16318 0.22392 0.94091 0.0
C30 C 0.15151 0.25312 0.01202 0.0
C31 C 0.12881 0.33836 0.08555 0.0
H32 H 0.21011 0.485 0.11879 0.0
H33 H 0.22534 0.6591 0.13463 0.0
H34 H 0.22294 0.51772 0.15816 0.0
H35 H 0.21135 0.62545 0.09548 0.0
H36 H 0.18775 0.19249 0.99383 0.0
H37 H 0.12716 0.27224 0.93508 0.0
H38 H 0.19774 0.17815 0.95354 0.0
H39 H 0.11958 0.28827 0.97542 0.0
Eu40 Eu 0.72089 0.18463 0.39138 0.0
Eu41 Eu 0.81928 0.17488 0.36871 0.0
C42 C 0.70086 0.09784 0.35471 0.0
C43 C 0.62879 0.19494 0.4344 0.0
C44 C 0.57573 0.16902 0.44126 0.0
C45 C 0.6553 0.22838 0.47307 0.0
C46 C 0.56247 0.17212 0.46389 0.0
C47 C 0.66858 0.22489 0.45042 0.0
C48 C 0.6021 0.2014 0.48011 0.0
C49 C 0.64193 0.1874 0.41096 0.0
O50 O 0.81479 0.23907 0.34932 0.0
O51 O 0.7272 0.21254 0.35494 0.0
C52 C 0.77159 0.23941 0.34342 0.0
O53 O 0.79479 0.26064 0.40028 0.0
O54 O 0.84603 0.12483 0.35271 0.0
O55 O 0.90092 0.20867 0.35747 0.0
O56 O 0.85726 0.2352 0.39678 0.0
C57 C 0.84257 0.26856 0.40389 0.0
O58 O 0.75585 0.16157 0.42001 0.0
O59 O 0.79054 0.11969 0.39918 0.0
O60 O 0.74759 0.13012 0.34628 0.0
O61 O 0.68123 0.22822 0.40106 0.0
O62 O 0.64301 0.14392 0.40739 0.0
O63 O 0.68954 0.10394 0.37567 0.0
C64 C 0.91025 0.1692 0.32422 0.0
C65 C 0.94811 0.15542 0.31825 0.0
C66 C 0.90936 0.19595 0.28508 0.0
C67 C 0.967 0.16238 0.29587 0.0
C68 C 0.89043 0.18886 0.30746 0.0
C69 C 0.9484 0.18342 0.27906 0.0
C70 C 0.89285 0.16472 0.34803 0.0
C71 C 0.77353 0.12835 0.41861 0.0
H72 H 0.54452 0.14553 0.42917 0.0
H73 H 0.68671 0.25077 0.48522 0.0
H74 H 0.52113 0.15134 0.46874 0.0
H75 H 0.7099 0.24469 0.44554 0.0
H76 H 0.96362 0.13996 0.33098 0.0
H77 H 0.89463 0.21285 0.27269 0.0
H78 H -0.00351 0.15163 0.29175 0.0
H79 H 0.86112 0.19974 0.3118 0.0
Eu80 Eu 0.53164 0.75395 0.72741 0.0
Eu81 Eu 0.64818 0.82 0.70107 0.0
C82 C 0.571 0.69684 0.69653 0.0
C83 C 0.42662 0.67245 0.77197 0.0
C84 C 0.44691 0.64086 0.77994 0.0
C85 C 0.37892 0.65786 0.80762 0.0
C86 C 0.43311 0.61782 0.80162 0.0
C87 C 0.39227 0.6804 0.78591 0.0
C88 C 0.39943 0.6266 0.81578 0.0
C89 C 0.44299 0.70008 0.74988 0.0
O90 O 0.59051 0.83302 0.68064 0.0
O91 O 0.51183 0.75933 0.69058 0.0
C92 C 0.54051 0.79858 0.6765 0.0
O93 O 0.5545 0.83905 0.72665 0.0
O94 O 0.70989 0.81867 0.68045 0.0
O95 O 0.71566 0.89345 0.68897 0.0
O96 O 0.64491 0.87706 0.72619 0.0
C97 C 0.6019 0.87857 0.73117 0.0
O98 O 0.59331 0.7771 0.75471 0.0
O99 O 0.6653 0.78966 0.73362 0.0
O100 O 0.59734 0.74004 0.68447 0.0
O101 O 0.47292 0.75139 0.75109 0.0
O102 O 0.45857 0.67949 0.73405 0.0
O103 O 0.56387 0.70155 0.71818 0.0
C104 C 0.73954 0.88446 0.65196 0.0
C105 C 0.69428 0.86923 0.63862 0.0
C106 C 0.7943 0.93806 0.62048 0.0
C107 C 0.69882 0.88946 0.61667 0.0
C108 C 0.78965 0.91822 0.64264 0.0
C109 C 0.7488 0.92495 0.60753 0.0
C110 C 0.73353 0.86937 0.67617 0.0
C111 C 0.64075 0.78271 0.75329 0.0
H112 H 0.47402 0.63465 0.76959 0.0
H113 H 0.35242 0.66482 0.81805 0.0
H114 H 0.44984 0.59427 0.80754 0.0
H115 H 0.37637 0.70479 0.78012 0.0
H116 H 0.65526 0.84307 0.6455 0.0
H117 H 0.83326 0.96559 0.61389 0.0
H118 H 0.66313 0.87828 0.60701 0.0
H119 H 0.82498 0.93062 0.65275 0.0
Eu120 Eu 0.79561 0.53112 0.05643 0.0
Eu121 Eu 0.83151 0.64757 0.03276 0.0
C122 C 0.88099 0.57814 0.0169 0.0
C123 C 0.76527 0.42718 0.1023 0.0
C124 C 0.79148 0.465 0.11951 0.0
C125 C 0.73146 0.35765 0.13086 0.0
C126 C 0.78791 0.44915 0.14228 0.0
C127 C 0.73523 0.37352 0.10811 0.0
C128 C 0.75777 0.39524 0.14823 0.0
C129 C 0.76817 0.44317 0.07831 0.0
O130 O 0.78266 0.58847 1.00572 0.0
O131 O 0.74068 0.51011 0.026 0.0
C132 C 0.74688 0.53795 1.00738 0.0
O133 O 0.75966 0.57137 0.0758 0.0
O134 O 0.88139 0.71026 1.00889 0.0
O135 O 0.82361 0.71771 0.02908 0.0
O136 O 0.74723 0.60999 0.04481 0.0
C137 C 0.7324 0.58887 0.06509 0.0
O138 O 0.86986 0.59203 0.07427 0.0
O139 O 0.86286 0.66593 0.06878 0.0
O140 O 0.89315 0.62535 0.02435 0.0
O141 O 0.73471 0.45804 0.07218 0.0
O142 O 0.81551 0.47394 0.07007 0.0
O143 O 0.8391 0.53539 0.02437 0.0
C144 C 0.83377 0.74395 0.99047 0.0
C145 C 0.78385 0.70471 0.98269 0.0
C146 C 0.84572 0.79337 0.95553 0.0
C147 C 0.76513 0.70949 0.96144 0.0
C148 C 0.8645 0.78843 0.97683 0.0
C149 C 0.79594 0.7537 0.9475 0.0
C150 C 0.85557 0.73546 1.01161 0.0
C151 C 0.88087 0.63983 0.08038 0.0
H152 H 0.81457 0.50673 0.11534 0.0
H153 H 0.70852 0.31581 0.13479 0.0
H154 H 0.80818 0.47915 0.15526 0.0
H155 H 0.71469 0.34383 0.09504 0.0
H156 H 0.75981 0.66966 0.99282 0.0
H157 H 0.8702 0.82816 0.94533 0.0
H158 H 0.72708 0.67774 0.95569 0.0
H159 H 0.90338 0.81883 0.98247 0.0
Eu160 Eu 0.26254 0.80831 0.39159 0.0
Eu161 Eu 0.16366 0.81775 0.3691 0.0
C162 C 0.28261 0.89543 0.3552 0.0
C163 C 0.35099 0.7951 0.43483 0.0
C164 C 0.3154 0.78867 0.45228 0.0
C165 C 0.40932 0.79017 0.46289 0.0
C166 C 0.32683 0.78332 0.47494 0.0
C167 C 0.3978 0.7955 0.44023 0.0
C168 C 0.37414 0.7844 0.48055 0.0
C169 C 0.34023 0.80332 0.41118 0.0
O170 O 0.16825 0.75242 0.35068 0.0
O171 O 0.25651 0.78159 0.35497 0.0
C172 C 0.21173 0.75388 0.34384 0.0
O173 O 0.18797 0.73327 0.40086 0.0
O174 O 0.13569 0.86549 0.35198 0.0
O175 O 0.08196 0.7818 0.3575 0.0
O176 O 0.12647 0.76002 0.39795 0.0
C177 C 0.14076 0.72638 0.405 0.0
O178 O 0.23075 0.83537 0.42002 0.0
O179 O 0.1916 0.87363 0.39948 0.0
O180 O 0.23564 0.86327 0.34689 0.0
O181 O 0.3004 0.76301 0.40123 0.0
O182 O 0.34056 0.84745 0.40743 0.0
O183 O 0.29475 0.88897 0.37594 0.0
C184 C 0.07539 0.81709 0.32265 0.0
C185 C 0.10381 0.80414 0.3072 0.0
C186 C 0.01701 0.81109 0.29189 0.0
C187 C 0.08875 0.79437 0.28428 0.0
C188 C 0.03211 0.82079 0.31486 0.0
C189 C 0.0449 0.79733 0.27635 0.0
C190 C 0.0898 0.82443 0.34695 0.0
C191 C 0.21205 0.86772 0.41851 0.0
H192 H 0.27912 0.78855 0.4484 0.0
H193 H 0.44573 0.79045 0.46659 0.0
H194 H 0.29921 0.77958 0.48812 0.0
H195 H 0.42566 0.80039 0.42694 0.0
H196 H 0.13738 0.80106 0.31293 0.0
H197 H 0.98269 0.81308 0.28643 0.0
H198 H 0.11155 0.78458 0.27277 0.0
H199 H 0.00955 0.83043 0.3266 0.0
Eu200 Eu 0.4372 0.26498 0.72403 0.0
Eu201 Eu 0.33629 0.15692 0.70226 0.0
C202 C 0.35874 0.27025 0.6894 0.0
C203 C 0.52535 0.36284 0.76893 0.0
C204 C 0.48635 0.34719 0.78592 0.0
C205 C 0.59323 0.40304 0.7982 0.0
C206 C 0.5007 0.36014 0.80878 0.0
C207 C 0.57884 0.39058 0.77528 0.0
C208 C 0.55428 0.38831 0.81517 0.0
C209 C 0.51061 0.34946 0.74473 0.0
O210 O 0.40731 0.17556 0.6806 0.0
O211 O 0.46028 0.26503 0.68718 0.0
C212 C 0.44698 0.22235 0.67483 0.0
O213 O 0.45591 0.20026 0.72882 0.0
O214 O 0.25641 0.11884 0.68795 0.0
O215 O 0.29797 0.0751 0.69045 0.0
O216 O 0.37211 0.12752 0.72839 0.0
C217 C 0.42277 0.15029 0.73339 0.0
O218 O 0.3846 0.21951 0.75329 0.0
O219 O 0.30614 0.1786 0.73382 0.0
O220 O 0.35121 0.22615 0.68036 0.0
O221 O 0.51893 0.31326 0.73597 0.0
O222 O 0.46503 0.34335 0.73856 0.0
O223 O 0.37529 0.28187 0.71046 0.0
C224 C 0.24538 0.06072 0.65778 0.0
C225 C 0.2864 0.07757 0.64177 0.0
C226 C 0.18139 0.01582 0.62744 0.0
C227 C 0.27509 0.06317 0.61884 0.0
C228 C 0.19283 0.02996 0.65046 0.0
C229 C 0.22241 0.03212 0.61132 0.0
C230 C 0.25735 0.07628 0.68193 0.0
C231 C 0.33284 0.1956 0.75302 0.0
H232 H 0.44472 0.32496 0.78155 0.0
H233 H 0.63483 0.42509 0.80262 0.0
H234 H 0.46985 0.34772 0.8215 0.0
H235 H 0.60951 0.40271 0.76248 0.0
H236 H 0.3273 0.10174 0.64701 0.0
H237 H 0.14037 0.9926 0.62227 0.0
H238 H 0.30782 0.0758 0.60708 0.0
H239 H 0.16062 0.01706 0.66254 0.0
C240 C 0.25732 0.73596 0.31156 0.0
C241 C 0.21045 0.72755 0.32201 0.0
C242 C 0.25603 0.71515 0.28985 0.0
C243 C 0.20763 0.68514 0.2782 0.0
C244 C 0.16086 0.67593 0.28895 0.0
C245 C 0.16217 0.69673 0.31054 0.0
C246 C 0.20389 0.66547 0.25442 0.0
C247 C 0.24273 0.66232 0.24342 0.0
C248 C 0.23759 0.64423 0.2193 0.0
C249 C 0.26713 0.6213 0.21174 0.0
C250 C 0.26314 0.60397 0.18916 0.0
C251 C 0.22994 0.60982 0.17354 0.0
H252 H 0.18295 0.66991 0.20842 0.0
C253 C 0.2011 0.63361 0.18102 0.0
C254 C 0.20502 0.65082 0.20356 0.0
H255 H 0.17492 0.63848 0.16951 0.0
H256 H 0.29525 0.76003 0.31981 0.0
H257 H 0.29321 0.72432 0.28209 0.0
H258 H 0.12302 0.65323 0.28043 0.0
H259 H 0.12523 0.68949 0.318 0.0
H260 H 0.16643 0.65187 0.24573 0.0
H261 H 0.27867 0.6712 0.25243 0.0
H262 H 0.29308 0.61638 0.2234 0.0
H263 H 0.28649 0.58651 0.18387 0.0
C264 C 0.45965 0.18094 0.63981 0.0
C265 C 0.47446 0.22663 0.65296 0.0
C266 C 0.48215 0.18437 0.61844 0.0
C267 C 0.52084 0.23368 0.60965 0.0
C268 C 0.53601 0.27938 0.62286 0.0
C269 C 0.51322 0.27595 0.64431 0.0
C270 C 0.54358 0.23915 0.58631 0.0
C271 C 0.54217 0.19845 0.57473 0.0
C272 C 0.55916 0.20133 0.55058 0.0
C273 C 0.53713 0.15414 0.53789 0.0
C274 C 0.55097 0.15437 0.51508 0.0
C275 C 0.58785 0.2018 0.50442 0.0
H276 H 0.61555 0.28591 0.54936 0.0
C277 C 0.61093 0.24904 0.51719 0.0
C278 C 0.59663 0.24891 0.54004 0.0
H279 H 0.63959 0.28618 0.50943 0.0
H280 H 0.42964 0.14225 0.64577 0.0
H281 H 0.46751 0.14819 0.60872 0.0
H282 H 0.56525 0.31798 0.61649 0.0
H283 H 0.52529 0.31201 0.65388 0.0
H284 H 0.56072 0.27781 0.57833 0.0
H285 H 0.52562 0.15998 0.58281 0.0
H286 H 0.50855 0.11684 0.54558 0.0
H287 H 0.53317 0.11718 0.50584 0.0
C288 C 0.28907 0.4617 0.97454 0.0
C289 C 0.26306 0.48039 0.98865 0.0
C290 C 0.31097 0.48635 0.95372 0.0
C291 C 0.30679 0.53001 0.94638 0.0
C292 C 0.28212 0.54949 0.96084 0.0
C293 C 0.2605 0.52504 0.98169 0.0
C294 C 0.32729 0.55657 0.92394 0.0
C295 C 0.34029 0.5353 0.90638 0.0
C296 C 0.35746 0.56061 0.88349 0.0
C297 C 0.35691 0.52949 0.86504 0.0
C298 C 0.37118 0.55094 0.84312 0.0
C299 C 0.3862 0.60406 0.83913 0.0
H300 H 0.37746 0.64068 0.89322 0.0
C301 C 0.38804 0.63563 0.85761 0.0
C302 C 0.37429 0.61439 0.87955 0.0
H303 H 0.40065 0.67707 0.85512 0.0
H304 H 0.29225 0.42769 0.97948 0.0
H305 H 0.33109 0.47088 0.94362 0.0
H306 H 0.27866 0.5833 0.95583 0.0
H307 H 0.24079 0.54058 0.99211 0.0
H308 H 0.32856 0.59398 0.92158 0.0
H309 H 0.3355 0.4962 0.9082 0.0
H310 H 0.34464 0.48813 0.8675 0.0
H311 H 0.36933 0.52562 0.8292 0.0
C312 C 0.7257 0.25815 0.31158 0.0
C313 C 0.77275 0.26791 0.32232 0.0
C314 C 0.72727 0.28226 0.29072 0.0
C315 C 0.77606 0.31678 0.28021 0.0
C316 C 0.82294 0.32786 0.2914 0.0
C317 C 0.82137 0.30344 0.31208 0.0
C318 C 0.78007 0.34216 0.25772 0.0
C319 C 0.74265 0.32028 0.24135 0.0
C320 C 0.74778 0.34257 0.21794 0.0
C321 C 0.70279 0.32071 0.20385 0.0
C322 C 0.70583 0.33819 0.18141 0.0
C323 C 0.7541 0.37806 0.1724 0.0
H324 H 0.83231 0.40025 0.21873 0.0
C325 C 0.7991 0.40044 0.18649 0.0
C326 C 0.79614 0.38285 0.20893 0.0
H327 H 0.83708 0.43063 0.17998 0.0
H328 H 0.68758 0.23106 0.31904 0.0
H329 H 0.69027 0.27391 0.28299 0.0
H330 H 0.86106 0.35463 0.28385 0.0
H331 H 0.85842 0.31214 0.31992 0.0
H332 H 0.81661 0.37874 0.25438 0.0
H333 H 0.70665 0.2832 0.24493 0.0
H334 H 0.66501 0.28963 0.21017 0.0
H335 H 0.67023 0.3205 0.17111 0.0
C336 C 0.468 0.76216 0.64705 0.0
C337 C 0.51769 0.80278 0.65455 0.0
C338 C 0.44908 0.76436 0.62536 0.0
C339 C 0.47965 0.80732 0.61067 0.0
C340 C 0.52841 0.8486 0.61858 0.0
C341 C 0.54726 0.84637 0.64016 0.0
C342 C 0.4633 0.81106 0.58698 0.0
C343 C 0.42446 0.77039 0.57517 0.0
C344 C 0.4123 0.77518 0.55093 0.0
C345 C 0.36086 0.74198 0.54263 0.0
C346 C 0.34835 0.74496 0.51984 0.0
C347 C 0.38729 0.78075 0.50475 0.0
H348 H 0.49197 0.83557 0.54122 0.0
C349 C 0.43899 0.81338 0.51297 0.0
C350 C 0.45142 0.81057 0.53575 0.0
H351 H 0.46988 0.84155 0.50184 0.0
H352 H 0.44414 0.72807 0.65773 0.0
H353 H 0.4107 0.73223 0.62032 0.0
H354 H 0.55277 0.88239 0.60781 0.0
H355 H 0.58561 0.87858 0.64536 0.0
H356 H 0.48578 0.84927 0.57866 0.0
H357 H 0.40039 0.73221 0.58324 0.0
H358 H 0.33013 0.71386 0.55385 0.0
H359 H 0.30831 0.71873 0.51398 0.0
C360 C 0.71235 0.54191 0.96888 0.0
C361 C 0.71507 0.51138 0.98677 0.0
C362 C 0.68686 0.51815 0.94845 0.0
C363 C 0.6635 0.46311 0.94535 0.0
C364 C 0.66555 0.43242 0.96332 0.0
C365 C 0.6906 0.45621 0.98394 0.0
C366 C 0.64054 0.43768 0.92299 0.0
C367 C 0.61882 0.45693 0.90837 0.0
C368 C 0.60043 0.43539 0.88505 0.0
C369 C 0.56097 0.44224 0.87475 0.0
C370 C 0.54527 0.42594 0.85226 0.0
C371 C 0.56945 0.40331 0.83939 0.0
H372 H 0.65566 0.40732 0.87945 0.0
C373 C 0.60893 0.39634 0.84966 0.0
C374 C 0.62417 0.41202 0.87229 0.0
H375 H 0.62815 0.37888 0.84017 0.0
H376 H 0.73094 0.58452 0.97042 0.0
H377 H 0.68747 0.54341 0.93483 0.0
H378 H 0.6483 0.39001 0.9613 0.0
H379 H 0.69241 0.43163 0.9973 0.0
H380 H 0.64122 0.40186 0.91863 0.0
H381 H 0.61342 0.48952 0.91373 0.0
H382 H 0.54249 0.46069 0.88409 0.0
H383 H 0.51515 0.43236 0.84472 0.0
C384 C 0.35181 0.4578 0.08915 0.0
C385 C 0.31858 0.41184 0.0766 0.0
C386 C 0.40437 0.47237 0.09315 0.0
C387 C 0.42462 0.44116 0.08456 0.0
C388 C 0.39015 0.39297 0.0737 0.0
C389 C 0.33737 0.37815 0.06989 0.0
C390 C 0.48221 0.46206 0.08287 0.0
C391 C 0.51862 0.50234 0.09554 0.0
C392 C 0.57455 0.52983 0.08856 0.0
C393 C 0.61423 0.53831 0.1042 0.0
C394 C 0.66651 0.55984 0.0968 0.0
C395 C 0.6797 0.57442 0.07383 0.0
H396 H 0.55811 0.54165 0.05369 0.0
C397 C 0.64037 0.56929 0.05863 0.0
C398 C 0.58815 0.5468 0.0659 0.0
H399 H 0.64933 0.58013 0.04085 0.0
H400 H 0.3381 0.48422 0.09475 0.0
H401 H 0.42965 0.51009 0.10134 0.0
H402 H 0.40487 0.3683 0.06691 0.0
H403 H 0.31257 0.34243 0.0602 0.0
H404 H 0.4956 0.44643 0.06917 0.0
H405 H 0.50764 0.51623 0.1106 0.0
H406 H 0.60442 0.52607 0.1218 0.0
H407 H 0.69628 0.5637 0.10888 0.0
C408 C 0.11748 0.64466 0.42725 0.0
C409 C 0.10132 0.67672 0.41612 0.0
C410 C 0.08019 0.59391 0.43461 0.0
C411 C 0.02594 0.57388 0.4306 0.0
C412 C 0.00975 0.60765 0.42119 0.0
C413 C 0.04704 0.65859 0.41401 0.0
C414 C 0.98551 0.51718 0.43394 0.0
C415 C -0.00281 0.47799 0.43359 0.0
C416 C 0.95685 0.42139 0.42981 0.0
C417 C 0.90253 0.4011 0.43373 0.0
C418 C 0.86544 0.35038 0.42617 0.0
C419 C 0.88185 0.3186 0.4149 0.0
H420 H 0.01487 0.40223 0.41719 0.0
C421 C 0.93619 0.33708 0.41276 0.0
C422 C 0.97327 0.38798 0.42014 0.0
H423 H 0.95014 0.31336 0.40433 0.0
H424 H 0.15909 0.65812 0.42965 0.0
H425 H 0.09433 0.57024 0.4428 0.0
H426 H 0.9682 0.5936 0.4182 0.0
H427 H 0.03329 0.68254 0.40569 0.0
H428 H 0.94452 0.50738 0.4332 0.0
H429 H 0.0382 0.4879 0.43266 0.0
H430 H 0.88817 0.42447 0.44208 0.0
H431 H 0.82379 0.33667 0.42861 0.0
C432 C 0.41408 0.06353 0.74453 0.0
C433 C 0.44438 0.11898 0.74356 0.0
C434 C 0.43707 0.03419 0.7518 0.0
C435 C 0.49069 0.0597 0.7581 0.0
C436 C 0.51993 0.11529 0.75864 0.0
C437 C 0.49703 0.14459 0.75136 0.0
C438 C 0.5153 0.02695 0.76241 0.0
C439 C 0.56675 0.04391 0.75814 0.0
C440 C 0.58627 0.00618 0.75568 0.0
C441 C 0.62456 0.01578 0.73896 0.0
C442 C 0.63399 0.97531 0.73217 0.0
C443 C 0.60504 0.92509 0.7421 0.0
H444 H 0.53472 0.94996 0.7812 0.0
C445 C 0.57127 0.91733 0.76049 0.0
C446 C 0.56252 0.95781 0.76749 0.0
H447 H 0.54929 0.87889 0.7686 0.0
H448 H 0.37329 0.04267 0.73886 0.0
H449 H 0.41349 0.99133 0.7515 0.0
H450 H 0.56072 0.13634 0.76425 0.0
H451 H 0.52114 0.18739 0.75135 0.0
H452 H 0.48834 0.98528 0.76587 0.0
H453 H 0.59281 0.0843 0.75251 0.0
H454 H 0.64399 0.05308 0.72985 0.0
H455 H 0.66025 0.98189 0.71795 0.0
C456 C 0.54041 0.6382 0.66174 0.0
C457 C 0.53493 0.6462 0.68505 0.0
C458 C 0.50233 0.59191 0.6507 0.0
C459 C 0.45769 0.55421 0.66273 0.0
C460 C 0.45241 0.56224 0.68589 0.0
C461 C 0.49098 0.60717 0.69703 0.0
C462 C 0.41743 0.50375 0.65256 0.0
C463 C 0.43083 0.46766 0.64669 0.0
C464 C 0.39817 0.41134 0.65361 0.0
C465 C 0.40772 0.37331 0.64354 0.0
C466 C 0.38953 0.32409 0.65397 0.0
C467 C 0.36273 0.31298 0.67492 0.0
H468 H 0.35926 0.42589 0.68219 0.0
C469 C 0.34948 0.34905 0.68404 0.0
C470 C 0.3666 0.3976 0.67343 0.0
H471 H 0.32913 0.34128 0.70026 0.0
H472 H 0.57379 0.66776 0.65207 0.0
H473 H 0.50727 0.58588 0.63284 0.0
H474 H 0.41871 0.53301 0.69554 0.0
H475 H 0.48539 0.61175 0.71497 0.0
H476 H 0.37665 0.49049 0.65718 0.0
H477 H 0.47154 0.48102 0.64183 0.0
H478 H 0.43242 0.38306 0.6285 0.0
H479 H 0.40077 0.29695 0.6468 0.0
C480 C 0.07567 0.45857 0.01461 0.0
C481 C 0.07562 0.41254 1.00777 0.0
C482 C 0.05475 0.48156 1.00051 0.0
C483 C 0.03258 0.45873 0.97928 0.0
C484 C 0.032 0.41237 0.97242 0.0
C485 C 0.05442 0.38994 0.9864 0.0
C486 C 0.0028 0.47873 0.96639 0.0
C487 C 0.01832 0.53066 0.967 0.0
C488 C 0.98138 0.5492 0.97377 0.0
C489 C 0.00226 0.59717 0.98594 0.0
C490 C 0.96928 0.60855 0.99904 0.0
C491 C 0.91496 0.57193 1.00017 0.0
H492 H 0.90802 0.47992 0.96274 0.0
C493 C 0.89333 0.52701 0.98602 0.0
C494 C 0.92611 0.51602 0.97269 0.0
H495 H 0.85113 0.49916 0.98593 0.0
H496 H 0.09242 0.47739 0.03083 0.0
H497 H 0.05417 0.51621 1.00673 0.0
H498 H 0.01396 0.39344 0.95638 0.0
H499 H 0.05438 0.35461 0.98072 0.0
H500 H 0.96257 0.44918 0.96197 0.0
H501 H 0.06012 0.55839 0.97 0.0
H502 H 0.04463 0.62387 0.98689 0.0
H503 H 0.98675 0.64402 1.00947 0.0
C504 C 0.36397 0.98126 0.34779 0.0
C505 C 0.32604 0.93077 0.34008 0.0
C506 C 0.41206 0.0099 0.33635 0.0
C507 C 0.42359 0.98751 0.3176 0.0
C508 C 0.38406 0.93868 0.30882 0.0
C509 C 0.33519 0.9107 0.31988 0.0
C510 C 0.47946 0.01148 0.3105 0.0
C511 C 0.50306 0.98206 0.31043 0.0
C512 C 0.55902 0.00604 0.31744 0.0
C513 C 0.57079 0.98363 0.33605 0.0
C514 C 0.61908 0.0122 0.34738 0.0
C515 C 0.65697 0.06265 0.33969 0.0
H516 H 0.59023 0.07273 0.29426 0.0
C517 C 0.64752 0.08276 0.31962 0.0
C518 C 0.59846 0.05485 0.30867 0.0
H519 H 0.67617 0.12194 0.31356 0.0
H520 H 0.35763 -0.00278 0.3634 0.0
H521 H 0.44205 0.04744 0.34343 0.0
H522 H 0.3921 0.92081 0.2943 0.0
H523 H 0.30651 0.87147 0.3138 0.0
H524 H 0.50378 0.05435 0.31184 0.0
H525 H 0.47872 0.9392 0.31173 0.0
H526 H 0.54087 0.9461 0.34311 0.0
H527 H 0.62566 -0.00381 0.36289 0.0
C528 C 0.25615 0.18575 0.77632 0.0
C529 C 0.30511 0.18779 0.77501 0.0
C530 C 0.23262 0.18233 0.7976 0.0
C531 C 0.2573 0.17985 0.8178 0.0
C532 C 0.30515 0.1799 0.81631 0.0
C533 C 0.32916 0.18456 0.79521 0.0
C534 C 0.23453 0.17704 0.84074 0.0
C535 C 0.20951 0.20357 0.84633 0.0
C536 C 0.19406 0.2066 0.87021 0.0
C537 C 0.19712 0.25355 0.87794 0.0
C538 C 0.18647 0.25897 0.90074 0.0
C539 C 0.1715 0.2171 0.91629 0.0
H540 H 0.17319 0.12675 0.87992 0.0
C541 C 0.16627 0.16926 0.90823 0.0
C542 C 0.17754 0.1641 0.88549 0.0
H543 H 0.15348 0.13565 0.91949 0.0
H544 H 0.23679 0.1882 0.76101 0.0
H545 H 0.19513 0.18134 0.7982 0.0
H546 H 0.32475 0.17765 0.83159 0.0
H547 H 0.36673 0.18565 0.79473 0.0
H548 H 0.2438 0.15712 0.85405 0.0
H549 H 0.20522 0.22815 0.8336 0.0
H550 H 0.20957 0.28683 0.8665 0.0
H551 H 0.19156 0.29664 0.90629 0.0
C552 C 0.94003 0.18648 0.23634 0.0
C553 C 0.9717 0.19504 0.25574 0.0
C554 C 0.96284 0.20101 0.21463 0.0
C555 C 0.01794 0.22433 0.21185 0.0
C556 C 0.04927 0.23186 0.2312 0.0
C557 C 0.02653 0.21734 0.25284 0.0
C558 C 0.04507 0.24553 0.18964 0.0
C559 C 0.02113 0.23275 0.16907 0.0
C560 C 0.04962 0.25943 0.14772 0.0
C561 C 0.03341 0.23261 0.12672 0.0
C562 C 0.05926 0.25767 0.10642 0.0
C563 C 0.10141 0.31033 0.10676 0.0
H564 H 0.10379 0.33509 0.16356 0.0
C565 C 0.11699 0.33721 0.12777 0.0
C566 C 0.09138 0.31226 0.14792 0.0
H567 H 0.14886 0.37799 0.12875 0.0
H568 H 0.89759 0.16905 0.23796 0.0
H569 H 0.93726 0.19544 0.2003 0.0
H570 H 0.09184 0.25017 0.22966 0.0
H571 H 0.05228 0.22535 0.26739 0.0
H572 H 0.08738 0.27321 0.19042 0.0
H573 H 0.9801 0.20155 0.1676 0.0
H574 H 0.00086 0.19212 0.12603 0.0
H575 H 0.046 0.23596 0.09051 0.0
C576 C 0.78841 0.95492 0.56839 0.0
C577 C 0.75281 0.95127 0.58539 0.0
C578 C 0.79184 0.98045 0.54767 0.0
C579 C 0.76015 0.00335 0.5438 0.0
C580 C 0.72527 0.00021 0.56098 0.0
C581 C 0.72127 0.97412 0.58142 0.0
C582 C 0.76327 0.03264 0.52262 0.0
C583 C 0.77616 0.02219 0.50192 0.0
C584 C 0.77498 0.04958 0.48061 0.0
C585 C 0.80228 0.04781 0.46118 0.0
C586 C 0.80174 0.07293 0.44089 0.0
C587 C 0.77384 0.1004 0.43964 0.0
H588 H 0.72217 0.07655 0.49303 0.0
C589 C 0.74577 0.10131 0.45893 0.0
C590 C 0.74588 0.07593 0.47903 0.0
H591 H 0.723 0.12125 0.45849 0.0
H592 H 0.81332 0.9378 0.57107 0.0
H593 H 0.82006 0.98317 0.53503 0.0
H594 H 0.70075 0.01788 0.55855 0.0
H595 H 0.69408 0.97267 0.59435 0.0
H596 H 0.7524 0.06289 0.52435 0.0
H597 H 0.7875 0.99219 0.50036 0.0
H598 H 0.82444 0.02726 0.46173 0.0
H599 H 0.8236 0.07128 0.4263 0.0
C600 C 0.64431 0.7833 0.79587 0.0
C601 C 0.66695 0.78212 0.77487 0.0
C602 C 0.668 0.78275 0.81641 0.0
C603 C 0.71471 0.78009 0.81661 0.0
C604 C 0.73799 0.77992 0.79563 0.0
C605 C 0.71435 0.78083 0.77495 0.0
C606 C 0.74068 0.77916 0.83836 0.0
C607 C 0.71375 0.7611 0.85813 0.0
C608 C 0.73725 0.76082 0.88069 0.0
C609 C 0.7035 0.74292 0.89973 0.0
C610 C 0.72267 0.74139 0.92134 0.0
C611 C 0.77628 0.75758 0.92457 0.0
H612 H 0.81894 0.79166 0.86993 0.0
C613 C 0.81039 0.77598 0.90563 0.0
C614 C 0.79121 0.77763 0.88393 0.0
H615 H 0.85181 0.78812 0.90747 0.0
H616 H 0.60833 0.78528 0.79654 0.0
H617 H 0.64983 0.78541 0.83205 0.0
H618 H 0.77434 0.7786 0.79524 0.0
H619 H 0.73301 0.78019 0.75909 0.0
H620 H 0.78263 0.79288 0.83767 0.0
H621 H 0.67124 0.74489 0.85797 0.0
H622 H 0.66186 0.73 0.89792 0.0
H623 H 0.69537 0.72773 0.93557 0.0
C624 C 0.02797 0.74235 0.24093 0.0
C625 C 0.02768 0.78485 0.25211 0.0
C626 C 0.01096 0.72981 0.21831 0.0
C627 C -0.00647 0.75978 0.20618 0.0
C628 C -0.00696 0.80209 0.2174 0.0
C629 C 0.01003 0.81461 0.24004 0.0
C630 C 0.97299 0.74659 0.18235 0.0
C631 C 0.98402 0.71746 0.16787 0.0
C632 C 0.96008 0.70067 0.14475 0.0
C633 C 0.9563 0.65487 0.1351 0.0
C634 C 0.93185 0.63593 0.11396 0.0
C635 C 0.9111 0.66278 0.10176 0.0
H636 H 0.94464 0.76509 0.13864 0.0
C637 C 0.91673 0.70987 0.11096 0.0
C638 C 0.94097 0.72866 0.13221 0.0
H639 H 0.90149 0.73174 0.10197 0.0
H640 H 0.04015 0.71781 0.24986 0.0
H641 H 0.01026 0.69568 0.21076 0.0
H642 H 0.97948 0.82566 0.2086 0.0
H643 H 0.00967 0.84787 0.24805 0.0
H644 H 0.94715 0.76107 0.17681 0.0
H645 H 0.00991 0.70304 0.17335 0.0
H646 H 0.97112 0.63276 0.14423 0.0
H647 H 0.92845 0.59965 0.10741 0.0
C648 C 0.24191 0.05106 0.56942 0.0
C649 C 0.2107 0.01622 0.58685 0.0
C650 C 0.23346 0.03491 0.54659 0.0
C651 C 0.19339 0.98352 0.54061 0.0
C652 C 0.16056 0.94958 0.55782 0.0
C653 C 0.16933 0.96552 0.5807 0.0
C654 C 0.18619 0.96365 0.51674 0.0
C655 C 0.22749 0.97794 0.50261 0.0
C656 C 0.22279 0.95174 0.48034 0.0
C657 C 0.26356 0.94257 0.47376 0.0
C658 C 0.25988 0.91573 0.45355 0.0
C659 C 0.21603 0.89884 0.43905 0.0
H660 H 0.14747 0.94306 0.4702 0.0
C661 C 0.17605 0.90987 0.44504 0.0
C662 C 0.17908 0.93563 0.46572 0.0
H663 H 0.14186 0.89719 0.43413 0.0
H664 H 0.27312 0.09092 0.57338 0.0
H665 H 0.25843 0.06272 0.53366 0.0
H666 H 0.12924 0.90986 0.55366 0.0
H667 H 0.14469 0.93739 0.5936 0.0
H668 H 0.14714 0.9322 0.51162 0.0
H669 H 0.26726 0.0052 0.5087 0.0
H670 H 0.29778 0.9549 0.48464 0.0
H671 H 0.29148 0.9081 0.44925 0.0
loop_
_geom_bond_atom_site_label_1
_geom_bond_atom_site_label_2
_geom_bond_distance
_geom_bond_site_symmetry_2
_ccdc_geom_bond_type
Eu0 C9 2.828 . S
Eu0 O11 2.392 . S
Eu0 O13 2.418 . S
Eu0 O18 2.373 . S
Eu0 O21 2.488 . S
Eu0 O22 2.471 . S
Eu0 O23 2.349 . S
Eu1 O10 2.373 1_554 S
Eu1 O14 2.488 1_554 S
Eu1 O15 2.471 1_554 S
Eu1 O16 2.349 . S
Eu1 O19 2.392 . S
Eu1 O20 2.418 . S
Eu1 C30 2.828 1_554 S
C2 O20 1.244 . S
C2 O23 1.265 . S
C3 C4 1.379 . S
C3 C7 1.373 . S
C3 C9 1.505 . S
C4 C3 1.379 . S
C4 C6 1.369 . S
C4 H32 0.930 . S
C5 C7 1.383 . S
C5 C8 1.382 . S
C5 H33 0.930 . S
C6 C4 1.369 . S
C6 C8 1.392 . S
C6 H34 0.930 . S
C7 C3 1.373 . S
C7 C5 1.383 . S
C7 H35 0.931 . S
C8 C5 1.382 . S
C8 C6 1.392 . S
C9 Eu0 2.828 . S
C9 C3 1.505 . S
C9 O21 1.249 . S
C9 O22 1.244 . S
O10 Eu1 2.373 1_556 S
O10 C12 1.258 . S
O11 Eu0 2.392 . S
O11 C12 1.242 1_554 S
C12 O10 1.258 . S
C12 O11 1.242 1_556 S
O13 Eu0 2.418 . S
O13 C17 1.244 . S
O14 Eu1 2.488 1_556 S
O14 C30 1.249 . S
O15 Eu1 2.471 1_556 S
O15 C30 1.244 . S
O16 Eu1 2.349 . S
O16 C17 1.265 . S
C17 O13 1.244 . S
C17 O16 1.265 . S
O18 Eu0 2.373 . S
O18 C31 1.258 . S
O19 Eu1 2.392 . S
O19 C31 1.242 . S
O20 Eu1 2.418 . S
O20 C2 1.244 . S
O21 Eu0 2.488 . S
O21 C9 1.249 . S
O22 Eu0 2.471 . S
O22 C9 1.244 . S
O23 Eu0 2.349 . S
O23 C2 1.265 . S
C24 C25 1.379 . S
C24 C28 1.373 . S
C24 C30 1.505 . S
C25 C24 1.379 . S
C25 C27 1.369 . S
C25 H36 0.930 . S
C26 C28 1.383 . S
C26 C29 1.382 . S
C26 H37 0.930 . S
C27 C25 1.369 . S
C27 C29 1.392 . S
C27 H38 0.930 . S
C28 C24 1.373 . S
C28 C26 1.383 . S
C28 H39 0.931 . S
C29 C26 1.382 . S
C29 C27 1.392 . S
C30 Eu1 2.828 1_556 S
C30 O14 1.249 . S
C30 O15 1.244 . S
C30 C24 1.505 . S
C31 O18 1.258 . S
C31 O19 1.242 . S
H32 C4 0.930 . S
H33 C5 0.930 . S
H34 C6 0.930 . S
H35 C7 0.931 . S
H36 C25 0.930 . S
H37 C26 0.930 . S
H38 C27 0.930 . S
H39 C28 0.931 . S
Eu40 C49 2.828 . S
Eu40 O51 2.392 . S
Eu40 O53 2.418 . S
Eu40 O58 2.373 . S
Eu40 O61 2.488 . S
Eu40 O62 2.471 . S
Eu40 O63 2.349 . S
Eu41 O50 2.373 . S
Eu41 O54 2.488 . S
Eu41 O55 2.471 . S
Eu41 O56 2.349 . S
Eu41 O59 2.392 . S
Eu41 O60 2.418 . S
Eu41 C70 2.828 . S
C42 O60 1.244 . S
C42 O63 1.265 . S
C43 C44 1.379 . S
C43 C47 1.373 . S
C43 C49 1.505 . S
C44 C43 1.379 . S
C44 C46 1.369 . S
C44 H72 0.930 . S
C45 C47 1.383 . S
C45 C48 1.382 . S
C45 H73 0.930 . S
C46 C44 1.369 . S
C46 C48 1.392 . S
C46 H74 0.930 . S
C47 C43 1.373 . S
C47 C45 1.383 . S
C47 H75 0.931 . S
C48 C45 1.382 . S
C48 C46 1.392 . S
C49 Eu40 2.828 . S
C49 C43 1.505 . S
C49 O61 1.249 . S
C49 O62 1.244 . S
O50 Eu41 2.373 . S
O50 C52 1.258 . S
O51 Eu40 2.392 . S
O51 C52 1.242 . S
C52 O50 1.258 . S
C52 O51 1.242 . S
O53 Eu40 2.418 . S
O53 C57 1.244 . S
O54 Eu41 2.488 . S
O54 C70 1.249 . S
O55 Eu41 2.471 . S
O55 C70 1.244 . S
O56 Eu41 2.349 . S
O56 C57 1.265 . S
C57 O53 1.244 . S
C57 O56 1.265 . S
O58 Eu40 2.373 . S
O58 C71 1.258 . S
O59 Eu41 2.392 . S
O59 C71 1.242 . S
O60 Eu41 2.418 . S
O60 C42 1.244 . S
O61 Eu40 2.488 . S
O61 C49 1.249 . S
O62 Eu40 2.471 . S
O62 C49 1.244 . S
O63 Eu40 2.349 . S
O63 C42 1.265 . S
C64 C65 1.379 . S
C64 C68 1.373 . S
C64 C70 1.505 . S
C65 C64 1.379 . S
C65 C67 1.369 . S
C65 H76 0.930 . S
C66 C68 1.383 . S
C66 C69 1.382 . S
C66 H77 0.930 . S
C67 C65 1.369 . S
C67 C69 1.392 . S
C67 H78 0.930 . S
C68 C64 1.373 . S
C68 C66 1.383 . S
C68 H79 0.931 . S
C69 C66 1.382 . S
C69 C67 1.392 . S
C70 Eu41 2.828 . S
C70 O54 1.249 . S
C70 O55 1.244 . S
C70 C64 1.505 . S
C71 O58 1.258 . S
C71 O59 1.242 . S
H72 C44 0.930 . S
H73 C45 0.930 . S
H74 C46 0.930 . S
H75 C47 0.931 . S
H76 C65 0.930 . S
H77 C66 0.930 . S
H78 C67 0.930 . S
H79 C68 0.931 . S
Eu80 C89 2.828 . S
Eu80 O91 2.392 . S
Eu80 O93 2.418 . S
Eu80 O98 2.373 . S
Eu80 O101 2.488 . S
Eu80 O102 2.471 . S
Eu80 O103 2.349 . S
Eu81 O90 2.373 . S
Eu81 O94 2.488 . S
Eu81 O95 2.471 . S
Eu81 O96 2.349 . S
Eu81 O99 2.392 . S
Eu81 O100 2.418 . S
Eu81 C110 2.828 . S
C82 O100 1.244 . S
C82 O103 1.265 . S
C83 C84 1.379 . S
C83 C87 1.373 . S
C83 C89 1.505 . S
C84 C83 1.379 . S
C84 C86 1.369 . S
C84 H112 0.930 . S
C85 C87 1.383 . S
C85 C88 1.382 . S
C85 H113 0.930 . S
C86 C84 1.369 . S
C86 C88 1.392 . S
C86 H114 0.930 . S
C87 C83 1.373 . S
C87 C85 1.383 . S
C87 H115 0.931 . S
C88 C85 1.382 . S
C88 C86 1.392 . S
C89 Eu80 2.828 . S
C89 C83 1.505 . S
C89 O101 1.249 . S
C89 O102 1.244 . S
O90 Eu81 2.373 . S
O90 C92 1.258 . S
O91 Eu80 2.392 . S
O91 C92 1.242 . S
C92 O90 1.258 . S
C92 O91 1.242 . S
O93 Eu80 2.418 . S
O93 C97 1.244 . S
O94 Eu81 2.488 . S
O94 C110 1.249 . S
O95 Eu81 2.471 . S
O95 C110 1.244 . S
O96 Eu81 2.349 . S
O96 C97 1.265 . S
C97 O93 1.244 . S
C97 O96 1.265 . S
O98 Eu80 2.373 . S
O98 C111 1.258 . S
O99 Eu81 2.392 . S
O99 C111 1.242 . S
O100 Eu81 2.418 . S
O100 C82 1.244 . S
O101 Eu80 2.488 . S
O101 C89 1.249 . S
O102 Eu80 2.471 . S
O102 C89 1.244 . S
O103 Eu80 2.349 . S
O103 C82 1.265 . S
C104 C105 1.379 . S
C104 C108 1.373 . S
C104 C110 1.505 . S
C105 C104 1.379 . S
C105 C107 1.369 . S
C105 H116 0.930 . S
C106 C108 1.383 . S
C106 C109 1.382 . S
C106 H117 0.930 . S
C107 C105 1.369 . S
C107 C109 1.392 . S
C107 H118 0.930 . S
C108 C104 1.373 . S
C108 C106 1.383 . S
C108 H119 0.931 . S
C109 C106 1.382 . S
C109 C107 1.392 . S
C110 Eu81 2.828 . S
C110 O94 1.249 . S
C110 O95 1.244 . S
C110 C104 1.505 . S
C111 O98 1.258 . S
C111 O99 1.242 . S
H112 C84 0.930 . S
H113 C85 0.930 . S
H114 C86 0.930 . S
H115 C87 0.931 . S
H116 C105 0.930 . S
H117 C106 0.930 . S
H118 C107 0.930 . S
H119 C108 0.931 . S
Eu120 C129 2.828 . S
Eu120 O131 2.392 . S
Eu120 O133 2.418 . S
Eu120 O138 2.373 . S
Eu120 O141 2.488 . S
Eu120 O142 2.471 . S
Eu120 O143 2.349 . S
Eu121 O130 2.373 1_554 S
Eu121 O134 2.488 1_554 S
Eu121 O135 2.471 1_554 S
Eu121 O136 2.349 . S
Eu121 O139 2.392 . S
Eu121 O140 2.418 . S
Eu121 C150 2.828 1_554 S
C122 O140 1.244 . S
C122 O143 1.265 . S
C123 C124 1.379 . S
C123 C127 1.373 . S
C123 C129 1.505 . S
C124 C123 1.379 . S
C124 C126 1.369 . S
C124 H152 0.930 . S
C125 C127 1.383 . S
C125 C128 1.382 . S
C125 H153 0.930 . S
C126 C124 1.369 . S
C126 C128 1.392 . S
C126 H154 0.930 . S
C127 C123 1.373 . S
C127 C125 1.383 . S
C127 H155 0.931 . S
C128 C125 1.382 . S
C128 C126 1.392 . S
C129 Eu120 2.828 . S
C129 C123 1.505 . S
C129 O141 1.249 . S
C129 O142 1.244 . S
O130 Eu121 2.373 1_556 S
O130 C132 1.258 . S
O131 Eu120 2.392 . S
O131 C132 1.242 1_554 S
C132 O130 1.258 . S
C132 O131 1.242 1_556 S
O133 Eu120 2.418 . S
O133 C137 1.244 . S
O134 Eu121 2.488 1_556 S
O134 C150 1.249 . S
O135 Eu121 2.471 1_556 S
O135 C150 1.244 . S
O136 Eu121 2.349 . S
O136 C137 1.265 . S
C137 O133 1.244 . S
C137 O136 1.265 . S
O138 Eu120 2.373 . S
O138 C151 1.258 . S
O139 Eu121 2.392 . S
O139 C151 1.242 . S
O140 Eu121 2.418 . S
O140 C122 1.244 . S
O141 Eu120 2.488 . S
O141 C129 1.249 . S
O142 Eu120 2.471 . S
O142 C129 1.244 . S
O143 Eu120 2.349 . S
O143 C122 1.265 . S
C144 C145 1.379 . S
C144 C148 1.373 . S
C144 C150 1.505 . S
C145 C144 1.379 . S
C145 C147 1.369 . S
C145 H156 0.930 . S
C146 C148 1.383 . S
C146 C149 1.382 . S
C146 H157 0.930 . S
C147 C145 1.369 . S
C147 C149 1.392 . S
C147 H158 0.930 . S
C148 C144 1.373 . S
C148 C146 1.383 . S
C148 H159 0.931 . S
C149 C146 1.382 . S
C149 C147 1.392 . S
C150 Eu121 2.828 1_556 S
C150 O134 1.249 . S
C150 O135 1.244 . S
C150 C144 1.505 . S
C151 O138 1.258 . S
C151 O139 1.242 . S
H152 C124 0.930 . S
H153 C125 0.930 . S
H154 C126 0.930 . S
H155 C127 0.931 . S
H156 C145 0.930 . S
H157 C146 0.930 . S
H158 C147 0.930 . S
H159 C148 0.931 . S
Eu160 C169 2.828 . S
Eu160 O171 2.392 . S
Eu160 O173 2.418 . S
Eu160 O178 2.373 . S
Eu160 O181 2.488 . S
Eu160 O182 2.471 . S
Eu160 O183 2.349 . S
Eu161 O170 2.373 . S
Eu161 O174 2.488 . S
Eu161 O175 2.471 . S
Eu161 O176 2.349 . S
Eu161 O179 2.392 . S
Eu161 O180 2.418 . S
Eu161 C190 2.828 . S
C162 O180 1.244 . S
C162 O183 1.265 . S
C163 C164 1.379 . S
C163 C167 1.373 . S
C163 C169 1.505 . S
C164 C163 1.379 . S
C164 C166 1.369 . S
C164 H192 0.930 . S
C165 C167 1.383 . S
C165 C168 1.382 . S
C165 H193 0.930 . S
C166 C164 1.369 . S
C166 C168 1.392 . S
C166 H194 0.930 . S
C167 C163 1.373 . S
C167 C165 1.383 . S
C167 H195 0.931 . S
C168 C165 1.382 . S
C168 C166 1.392 . S
C169 Eu160 2.828 . S
C169 C163 1.505 . S
C169 O181 1.249 . S
C169 O182 1.244 . S
O170 Eu161 2.373 . S
O170 C172 1.258 . S
O171 Eu160 2.392 . S
O171 C172 1.242 . S
C172 O170 1.258 . S
C172 O171 1.242 . S
O173 Eu160 2.418 . S
O173 C177 1.244 . S
O174 Eu161 2.488 . S
O174 C190 1.249 . S
O175 Eu161 2.471 . S
O175 C190 1.244 . S
O176 Eu161 2.349 . S
O176 C177 1.265 . S
C177 O173 1.244 . S
C177 O176 1.265 . S
O178 Eu160 2.373 . S
O178 C191 1.258 . S
O179 Eu161 2.392 . S
O179 C191 1.242 . S
O180 Eu161 2.418 . S
O180 C162 1.244 . S
O181 Eu160 2.488 . S
O181 C169 1.249 . S
O182 Eu160 2.471 . S
O182 C169 1.244 . S
O183 Eu160 2.349 . S
O183 C162 1.265 . S
C184 C185 1.379 . S
C184 C188 1.373 . S
C184 C190 1.505 . S
C185 C184 1.379 . S
C185 C187 1.369 . S
C185 H196 0.930 . S
C186 C188 1.383 . S
C186 C189 1.382 . S
C186 H197 0.930 . S
C187 C185 1.369 . S
C187 C189 1.392 . S
C187 H198 0.930 . S
C188 C184 1.373 . S
C188 C186 1.383 . S
C188 H199 0.931 . S
C189 C186 1.382 . S
C189 C187 1.392 . S
C190 Eu161 2.828 . S
C190 O174 1.249 . S
C190 O175 1.244 . S
C190 C184 1.505 . S
C191 O178 1.258 . S
C191 O179 1.242 . S
H192 C164 0.930 . S
H193 C165 0.930 . S
H194 C166 0.930 . S
H195 C167 0.931 . S
H196 C185 0.930 . S
H197 C186 0.930 . S
H198 C187 0.930 . S
H199 C188 0.931 . S
Eu200 C209 2.828 . S
Eu200 O211 2.392 . S
Eu200 O213 2.418 . S
Eu200 O218 2.373 . S
Eu200 O221 2.488 . S
Eu200 O222 2.471 . S
Eu200 O223 2.349 . S
Eu201 O210 2.373 . S
Eu201 O214 2.488 . S
Eu201 O215 2.471 . S
Eu201 O216 2.349 . S
Eu201 O219 2.392 . S
Eu201 O220 2.418 . S
Eu201 C230 2.828 . S
C202 O220 1.244 . S
C202 O223 1.265 . S
C203 C204 1.379 . S
C203 C207 1.373 . S
C203 C209 1.505 . S
C204 C203 1.379 . S
C204 C206 1.369 . S
C204 H232 0.930 . S
C205 C207 1.383 . S
C205 C208 1.382 . S
C205 H233 0.930 . S
C206 C204 1.369 . S
C206 C208 1.392 . S
C206 H234 0.930 . S
C207 C203 1.373 . S
C207 C205 1.383 . S
C207 H235 0.931 . S
C208 C205 1.382 . S
C208 C206 1.392 . S
C209 Eu200 2.828 . S
C209 C203 1.505 . S
C209 O221 1.249 . S
C209 O222 1.244 . S
O210 Eu201 2.373 . S
O210 C212 1.258 . S
O211 Eu200 2.392 . S
O211 C212 1.242 . S
C212 O210 1.258 . S
C212 O211 1.242 . S
O213 Eu200 2.418 . S
O213 C217 1.244 . S
O214 Eu201 2.488 . S
O214 C230 1.249 . S
O215 Eu201 2.471 . S
O215 C230 1.244 . S
O216 Eu201 2.349 . S
O216 C217 1.265 . S
C217 O213 1.244 . S
C217 O216 1.265 . S
O218 Eu200 2.373 . S
O218 C231 1.258 . S
O219 Eu201 2.392 . S
O219 C231 1.242 . S
O220 Eu201 2.418 . S
O220 C202 1.244 . S
O221 Eu200 2.488 . S
O221 C209 1.249 . S
O222 Eu200 2.471 . S
O222 C209 1.244 . S
O223 Eu200 2.349 . S
O223 C202 1.265 . S
C224 C225 1.379 . S
C224 C228 1.373 . S
C224 C230 1.505 . S
C225 C224 1.379 . S
C225 C227 1.369 . S
C225 H236 0.930 . S
C226 C228 1.383 . S
C226 C229 1.382 . S
C226 H237 0.930 . S
C227 C225 1.369 . S
C227 C229 1.392 . S
C227 H238 0.930 . S
C228 C224 1.373 . S
C228 C226 1.383 . S
C228 H239 0.931 . S
C229 C226 1.382 . S
C229 C227 1.392 . S
C230 Eu201 2.828 . S
C230 O214 1.249 . S
C230 O215 1.244 . S
C230 C224 1.505 . S
C231 O218 1.258 . S
C231 O219 1.242 . S
H232 C204 0.930 . S
H233 C205 0.930 . S
H234 C206 0.930 . S
H235 C207 0.931 . S
H236 C225 0.930 . S
H237 C226 0.930 . S
H238 C227 0.930 . S
H239 C228 0.931 . S
C240 C241 1.386 . S
C240 C242 1.383 . S
C240 H256 0.951 . S
C241 C240 1.386 . S
C241 C245 1.383 . S
C242 C240 1.383 . S
C242 C243 1.402 . S
C242 H257 0.951 . S
C243 C242 1.402 . S
C243 C244 1.375 . S
C243 C246 1.481 . S
C244 C243 1.375 . S
C244 C245 1.367 . S
C244 H258 0.951 . S
C245 C241 1.383 . S
C245 C244 1.367 . S
C245 H259 0.950 . S
C246 C243 1.481 . S
C246 C247 1.297 . S
C246 H260 0.950 . S
C247 C246 1.297 . S
C247 C248 1.479 . S
C247 H261 0.950 . S
C248 C247 1.479 . S
C248 C249 1.375 . S
C248 C254 1.404 . S
C249 C248 1.375 . S
C249 C250 1.369 . S
C249 H262 0.950 . S
C250 C249 1.369 . S
C250 C251 1.392 . S
C250 H263 0.951 . S
C251 C250 1.392 . S
C251 C253 1.384 . S
H252 C254 0.949 . S
C253 C251 1.384 . S
C253 C254 1.385 . S
C253 H255 0.950 . S
C254 C248 1.404 . S
C254 H252 0.949 . S
C254 C253 1.385 . S
H255 C253 0.950 . S
H256 C240 0.951 . S
H257 C242 0.951 . S
H258 C244 0.951 . S
H259 C245 0.950 . S
H260 C246 0.950 . S
H261 C247 0.950 . S
H262 C249 0.950 . S
H263 C250 0.951 . S
C264 C265 1.386 . S
C264 C266 1.383 . S
C264 H280 0.951 . S
C265 C264 1.386 . S
C265 C269 1.383 . S
C266 C264 1.383 . S
C266 C267 1.402 . S
C266 H281 0.951 . S
C267 C266 1.402 . S
C267 C268 1.375 . S
C267 C270 1.481 . S
C268 C267 1.375 . S
C268 C269 1.367 . S
C268 H282 0.951 . S
C269 C265 1.383 . S
C269 C268 1.367 . S
C269 H283 0.950 . S
C270 C267 1.481 . S
C270 C271 1.297 . S
C270 H284 0.950 . S
C271 C270 1.297 . S
C271 C272 1.479 . S
C271 H285 0.950 . S
C272 C271 1.479 . S
C272 C273 1.375 . S
C272 C278 1.404 . S
C273 C272 1.375 . S
C273 C274 1.369 . S
C273 H286 0.950 . S
C274 C273 1.369 . S
C274 C275 1.392 . S
C274 H287 0.951 . S
C275 C274 1.392 . S
C275 C277 1.384 . S
H276 C278 0.949 . S
C277 C275 1.384 . S
C277 C278 1.385 . S
C277 H279 0.950 . S
C278 C272 1.404 . S
C278 H276 0.949 . S
C278 C277 1.385 . S
H279 C277 0.950 . S
H280 C264 0.951 . S
H281 C266 0.951 . S
H282 C268 0.951 . S
H283 C269 0.950 . S
H284 C270 0.950 . S
H285 C271 0.950 . S
H286 C273 0.950 . S
H287 C274 0.951 . S
C288 C289 1.386 . S
C288 C290 1.383 . S
C288 H304 0.951 . S
C289 C288 1.386 . S
C289 C293 1.383 . S
C290 C288 1.383 . S
C290 C291 1.402 . S
C290 H305 0.951 . S
C291 C290 1.402 . S
C291 C292 1.375 . S
C291 C294 1.481 . S
C292 C291 1.375 . S
C292 C293 1.367 . S
C292 H306 0.951 . S
C293 C289 1.383 . S
C293 C292 1.367 . S
C293 H307 0.950 . S
C294 C291 1.481 . S
C294 C295 1.297 . S
C294 H308 0.950 . S
C295 C294 1.297 . S
C295 C296 1.479 . S
C295 H309 0.950 . S
C296 C295 1.479 . S
C296 C297 1.375 . S
C296 C302 1.404 . S
C297 C296 1.375 . S
C297 C298 1.369 . S
C297 H310 0.950 . S
C298 C297 1.369 . S
C298 C299 1.392 . S
C298 H311 0.951 . S
C299 C298 1.392 . S
C299 C301 1.384 . S
H300 C302 0.949 . S
C301 C299 1.384 . S
C301 C302 1.385 . S
C301 H303 0.950 . S
C302 C296 1.404 . S
C302 H300 0.949 . S
C302 C301 1.385 . S
H303 C301 0.950 . S
H304 C288 0.951 . S
H305 C290 0.951 . S
H306 C292 0.951 . S
H307 C293 0.950 . S
H308 C294 0.950 . S
H309 C295 0.950 . S
H310 C297 0.950 . S
H311 C298 0.951 . S
C312 C313 1.386 . S
C312 C314 1.383 . S
C312 H328 0.951 . S
C313 C312 1.386 . S
C313 C317 1.383 . S
C314 C312 1.383 . S
C314 C315 1.402 . S
C314 H329 0.951 . S
C315 C314 1.402 . S
C315 C316 1.375 . S
C315 C318 1.481 . S
C316 C315 1.375 . S
C316 C317 1.367 . S
C316 H330 0.951 . S
C317 C313 1.383 . S
C317 C316 1.367 . S
C317 H331 0.950 . S
C318 C315 1.481 . S
C318 C319 1.297 . S
C318 H332 0.950 . S
C319 C318 1.297 . S
C319 C320 1.479 . S
C319 H333 0.950 . S
C320 C319 1.479 . S
C320 C321 1.375 . S
C320 C326 1.404 . S
C321 C320 1.375 . S
C321 C322 1.369 . S
C321 H334 0.950 . S
C322 C321 1.369 . S
C322 C323 1.392 . S
C322 H335 0.951 . S
C323 C322 1.392 . S
C323 C325 1.384 . S
H324 C326 0.949 . S
C325 C323 1.384 . S
C325 C326 1.385 . S
C325 H327 0.950 . S
C326 C320 1.404 . S
C326 H324 0.949 . S
C326 C325 1.385 . S
H327 C325 0.950 . S
H328 C312 0.951 . S
H329 C314 0.951 . S
H330 C316 0.951 . S
H331 C317 0.950 . S
H332 C318 0.950 . S
H333 C319 0.950 . S
H334 C321 0.950 . S
H335 C322 0.951 . S
C336 C337 1.386 . S
C336 C338 1.383 . S
C336 H352 0.951 . S
C337 C336 1.386 . S
C337 C341 1.383 . S
C338 C336 1.383 . S
C338 C339 1.402 . S
C338 H353 0.951 . S
C339 C338 1.402 . S
C339 C340 1.375 . S
C339 C342 1.481 . S
C340 C339 1.375 . S
C340 C341 1.367 . S
C340 H354 0.951 . S
C341 C337 1.383 . S
C341 C340 1.367 . S
C341 H355 0.950 . S
C342 C339 1.481 . S
C342 C343 1.297 . S
C342 H356 0.950 . S
C343 C342 1.297 . S
C343 C344 1.479 . S
C343 H357 0.950 . S
C344 C343 1.479 . S
C344 C345 1.375 . S
C344 C350 1.404 . S
C345 C344 1.375 . S
C345 C346 1.369 . S
C345 H358 0.950 . S
C346 C345 1.369 . S
C346 C347 1.392 . S
C346 H359 0.951 . S
C347 C346 1.392 . S
C347 C349 1.384 . S
H348 C350 0.949 . S
C349 C347 1.384 . S
C349 C350 1.385 . S
C349 H351 0.950 . S
C350 C344 1.404 . S
C350 H348 0.949 . S
C350 C349 1.385 . S
H351 C349 0.950 . S
H352 C336 0.951 . S
H353 C338 0.951 . S
H354 C340 0.951 . S
H355 C341 0.950 . S
H356 C342 0.950 . S
H357 C343 0.950 . S
H358 C345 0.950 . S
H359 C346 0.951 . S
C360 C361 1.386 . S
C360 C362 1.383 . S
C360 H376 0.951 . S
C361 C360 1.386 . S
C361 C365 1.383 . S
C362 C360 1.383 . S
C362 C363 1.402 . S
C362 H377 0.951 . S
C363 C362 1.402 . S
C363 C364 1.375 . S
C363 C366 1.481 . S
C364 C363 1.375 . S
C364 C365 1.367 . S
C364 H378 0.951 . S
C365 C361 1.383 . S
C365 C364 1.367 . S
C365 H379 0.950 . S
C366 C363 1.481 . S
C366 C367 1.297 . S
C366 H380 0.950 . S
C367 C366 1.297 . S
C367 C368 1.479 . S
C367 H381 0.950 . S
C368 C367 1.479 . S
C368 C369 1.375 . S
C368 C374 1.404 . S
C369 C368 1.375 . S
C369 C370 1.369 . S
C369 H382 0.950 . S
C370 C369 1.369 . S
C370 C371 1.392 . S
C370 H383 0.951 . S
C371 C370 1.392 . S
C371 C373 1.384 . S
H372 C374 0.949 . S
C373 C371 1.384 . S
C373 C374 1.385 . S
C373 H375 0.950 . S
C374 C368 1.404 . S
C374 H372 0.949 . S
C374 C373 1.385 . S
H375 C373 0.950 . S
H376 C360 0.951 . S
H377 C362 0.951 . S
H378 C364 0.951 . S
H379 C365 0.950 . S
H380 C366 0.950 . S
H381 C367 0.950 . S
H382 C369 0.950 . S
H383 C370 0.951 . S
C384 C385 1.386 . S
C384 C386 1.383 . S
C384 H400 0.951 . S
C385 C384 1.386 . S
C385 C389 1.383 . S
C386 C384 1.383 . S
C386 C387 1.402 . S
C386 H401 0.951 . S
C387 C386 1.402 . S
C387 C388 1.375 . S
C387 C390 1.481 . S
C388 C387 1.375 . S
C388 C389 1.367 . S
C388 H402 0.951 . S
C389 C385 1.383 . S
C389 C388 1.367 . S
C389 H403 0.950 . S
C390 C387 1.481 . S
C390 C391 1.297 . S
C390 H404 0.950 . S
C391 C390 1.297 . S
C391 C392 1.479 . S
C391 H405 0.950 . S
C392 C391 1.479 . S
C392 C393 1.375 . S
C392 C398 1.404 . S
C393 C392 1.375 . S
C393 C394 1.369 . S
C393 H406 0.950 . S
C394 C393 1.369 . S
C394 C395 1.392 . S
C394 H407 0.951 . S
C395 C394 1.392 . S
C395 C397 1.384 . S
H396 C398 0.949 . S
C397 C395 1.384 . S
C397 C398 1.385 . S
C397 H399 0.950 . S
C398 C392 1.404 . S
C398 H396 0.949 . S
C398 C397 1.385 . S
H399 C397 0.950 . S
H400 C384 0.951 . S
H401 C386 0.951 . S
H402 C388 0.951 . S
H403 C389 0.950 . S
H404 C390 0.950 . S
H405 C391 0.950 . S
H406 C393 0.950 . S
H407 C394 0.951 . S
C408 C409 1.386 . S
C408 C410 1.383 . S
C408 H424 0.951 . S
C409 C408 1.386 . S
C409 C413 1.383 . S
C410 C408 1.383 . S
C410 C411 1.402 . S
C410 H425 0.951 1_455 S
C411 C410 1.402 . S
C411 C412 1.375 . S
C411 C414 1.481 . S
C412 C411 1.375 . S
C412 C413 1.367 . S
C412 H426 0.951 . S
C413 C409 1.383 . S
C413 C412 1.367 . S
C413 H427 0.950 . S
C414 C411 1.481 . S
C414 C415 1.297 1_455 S
C414 H428 0.950 . S
C415 C414 1.297 1_655 S
C415 C416 1.479 . S
C415 H429 0.950 . S
C416 C415 1.479 . S
C416 C417 1.375 . S
C416 C422 1.404 . S
C417 C416 1.375 . S
C417 C418 1.369 . S
C417 H430 0.950 . S
C418 C417 1.369 . S
C418 C419 1.392 . S
C418 H431 0.951 . S
C419 C418 1.392 . S
C419 C421 1.384 . S
H420 C422 0.949 . S
C421 C419 1.384 . S
C421 C422 1.385 . S
C421 H423 0.950 . S
C422 C416 1.404 . S
C422 H420 0.949 . S
C422 C421 1.385 . S
H423 C421 0.950 . S
H424 C408 0.951 . S
H425 C410 0.951 1_655 S
H426 C412 0.951 . S
H427 C413 0.950 . S
H428 C414 0.950 . S
H429 C415 0.950 . S
H430 C417 0.950 . S
H431 C418 0.951 . S
C432 C433 1.386 . S
C432 C434 1.383 . S
C432 H448 0.951 . S
C433 C432 1.386 . S
C433 C437 1.383 . S
C434 C432 1.383 . S
C434 C435 1.402 . S
C434 H449 0.951 . S
C435 C434 1.402 . S
C435 C436 1.375 . S
C435 C438 1.481 . S
C436 C435 1.375 . S
C436 C437 1.367 . S
C436 H450 0.951 . S
C437 C433 1.383 . S
C437 C436 1.367 . S
C437 H451 0.950 . S
C438 C435 1.481 . S
C438 C439 1.297 . S
C438 H452 0.950 . S
C439 C438 1.297 . S
C439 C440 1.479 1_545 S
C439 H453 0.950 1_545 S
C440 C439 1.479 1_565 S
C440 C441 1.375 . S
C440 C446 1.404 . S
C441 C440 1.375 . S
C441 C442 1.369 . S
C441 H454 0.950 . S
C442 C441 1.369 . S
C442 C443 1.392 . S
C442 H455 0.951 . S
C443 C442 1.392 . S
C443 C445 1.384 . S
H444 C446 0.949 1_545 S
C445 C443 1.384 . S
C445 C446 1.385 . S
C445 H447 0.950 . S
C446 C440 1.404 . S
C446 H444 0.949 1_565 S
C446 C445 1.385 . S
H447 C445 0.950 . S
H448 C432 0.951 . S
H449 C434 0.951 . S
H450 C436 0.951 . S
H451 C437 0.950 . S
H452 C438 0.950 . S
H453 C439 0.950 1_565 S
H454 C441 0.950 . S
H455 C442 0.951 . S
C456 C457 1.386 . S
C456 C458 1.383 . S
C456 H472 0.951 . S
C457 C456 1.386 . S
C457 C461 1.383 . S
C458 C456 1.383 . S
C458 C459 1.402 . S
C458 H473 0.951 . S
C459 C458 1.402 . S
C459 C460 1.375 . S
C459 C462 1.481 . S
C460 C459 1.375 . S
C460 C461 1.367 . S
C460 H474 0.951 . S
C461 C457 1.383 . S
C461 C460 1.367 . S
C461 H475 0.950 . S
C462 C459 1.481 . S
C462 C463 1.297 . S
C462 H476 0.950 . S
C463 C462 1.297 . S
C463 C464 1.479 . S
C463 H477 0.950 . S
C464 C463 1.479 . S
C464 C465 1.375 . S
C464 C470 1.404 . S
C465 C464 1.375 . S
C465 C466 1.369 . S
C465 H478 0.950 . S
C466 C465 1.369 . S
C466 C467 1.392 . S
C466 H479 0.951 . S
C467 C466 1.392 . S
C467 C469 1.384 . S
H468 C470 0.949 . S
C469 C467 1.384 . S
C469 C470 1.385 . S
C469 H471 0.950 . S
C470 C464 1.404 . S
C470 H468 0.949 . S
C470 C469 1.385 . S
H471 C469 0.950 . S
H472 C456 0.951 . S
H473 C458 0.951 . S
H474 C460 0.951 . S
H475 C461 0.950 . S
H476 C462 0.950 . S
H477 C463 0.950 . S
H478 C465 0.950 . S
H479 C466 0.951 . S
C480 C481 1.386 . S
C480 C482 1.383 . S
C480 H496 0.951 . S
C481 C480 1.386 . S
C481 C485 1.383 . S
C482 C480 1.383 . S
C482 C483 1.402 . S
C482 H497 0.951 . S
C483 C482 1.402 . S
C483 C484 1.375 . S
C483 C486 1.481 . S
C484 C483 1.375 . S
C484 C485 1.367 . S
C484 H498 0.951 1_554 S
C485 C481 1.383 . S
C485 C484 1.367 . S
C485 H499 0.950 1_554 S
C486 C483 1.481 . S
C486 C487 1.297 . S
C486 H500 0.957 1_455 S
C487 C486 1.297 . S
C487 C488 1.479 1_455 S
C487 H501 0.950 . S
C488 C487 1.479 1_655 S
C488 C489 1.375 . S
C488 C494 1.404 . S
C489 C488 1.375 . S
C489 C490 1.369 . S
C489 H502 0.950 1_655 S
C490 C489 1.369 . S
C490 C491 1.392 . S
C490 H503 0.951 . S
C491 C490 1.392 . S
C491 C493 1.384 . S
H492 C494 0.949 1_556 S
C493 C491 1.384 . S
C493 C494 1.385 . S
C493 H495 0.950 1_554 S
C494 C488 1.404 . S
C494 H492 0.949 1_554 S
C494 C493 1.385 . S
H495 C493 0.950 1_556 S
H496 C480 0.951 . S
H497 C482 0.951 . S
H498 C484 0.951 1_556 S
H499 C485 0.950 1_556 S
H500 C486 0.957 1_655 S
H501 C487 0.950 . S
H502 C489 0.950 1_455 S
H503 C490 0.951 . S
C504 C505 1.386 . S
C504 C506 1.383 . S
C504 H520 0.951 . S
C505 C504 1.386 . S
C505 C509 1.383 . S
C506 C504 1.383 . S
C506 C507 1.402 . S
C506 H521 0.951 . S
C507 C506 1.402 . S
C507 C508 1.375 . S
C507 C510 1.481 . S
C508 C507 1.375 . S
C508 C509 1.367 . S
C508 H522 0.951 . S
C509 C505 1.383 . S
C509 C508 1.367 . S
C509 H523 0.950 . S
C510 C507 1.481 . S
C510 C511 1.297 . S
C510 H524 0.950 1_565 S
C511 C510 1.297 . S
C511 C512 1.479 1_565 S
C511 H525 0.950 . S
C512 C511 1.479 1_545 S
C512 C513 1.375 . S
C512 C518 1.404 . S
C513 C512 1.375 . S
C513 C514 1.369 . S
C513 H526 0.950 1_545 S
C514 C513 1.369 . S
C514 C515 1.392 . S
C514 H527 0.951 . S
C515 C514 1.392 . S
C515 C517 1.384 . S
H516 C518 0.949 . S
C517 C515 1.384 . S
C517 C518 1.385 . S
C517 H519 0.950 . S
C518 C512 1.404 . S
C518 H516 0.949 . S
C518 C517 1.385 . S
H519 C517 0.950 . S
H520 C504 0.951 . S
H521 C506 0.951 . S
H522 C508 0.951 . S
H523 C509 0.950 . S
H524 C510 0.950 1_545 S
H525 C511 0.950 . S
H526 C513 0.950 1_565 S
H527 C514 0.951 . S
C528 C529 1.386 . S
C528 C530 1.383 . S
C528 H544 0.951 . S
C529 C528 1.386 . S
C529 C533 1.383 . S
C530 C528 1.383 . S
C530 C531 1.402 . S
C530 H545 0.951 . S
C531 C530 1.402 . S
C531 C532 1.375 . S
C531 C534 1.481 . S
C532 C531 1.375 . S
C532 C533 1.367 . S
C532 H546 0.951 . S
C533 C529 1.383 . S
C533 C532 1.367 . S
C533 H547 0.950 . S
C534 C531 1.481 . S
C534 C535 1.297 . S
C534 H548 0.950 . S
C535 C534 1.297 . S
C535 C536 1.479 . S
C535 H549 0.950 . S
C536 C535 1.479 . S
C536 C537 1.375 . S
C536 C542 1.404 . S
C537 C536 1.375 . S
C537 C538 1.369 . S
C537 H550 0.950 . S
C538 C537 1.369 . S
C538 C539 1.392 . S
C538 H551 0.951 . S
C539 C538 1.392 . S
C539 C541 1.384 . S
H540 C542 0.949 . S
C541 C539 1.384 . S
C541 C542 1.385 . S
C541 H543 0.950 . S
C542 C536 1.404 . S
C542 H540 0.949 . S
C542 C541 1.385 . S
H543 C541 0.950 . S
H544 C528 0.951 . S
H545 C530 0.951 . S
H546 C532 0.951 . S
H547 C533 0.950 . S
H548 C534 0.950 . S
H549 C535 0.950 . S
H550 C537 0.950 . S
H551 C538 0.951 . S
C552 C553 1.386 . S
C552 C554 1.383 1_655 S
C552 H568 0.951 . S
C553 C552 1.386 . S
C553 C557 1.383 1_655 S
C554 C552 1.383 1_455 S
C554 C555 1.402 . S
C554 H569 0.951 . S
C555 C554 1.402 . S
C555 C556 1.375 . S
C555 C558 1.481 . S
C556 C555 1.375 . S
C556 C557 1.367 . S
C556 H570 0.951 . S
C557 C553 1.383 1_455 S
C557 C556 1.367 . S
C557 H571 0.950 . S
C558 C555 1.481 . S
C558 C559 1.297 . S
C558 H572 0.950 . S
C559 C558 1.297 . S
C559 C560 1.479 . S
C559 H573 0.950 . S
C560 C559 1.479 . S
C560 C561 1.375 . S
C560 C566 1.404 . S
C561 C560 1.375 . S
C561 C562 1.369 . S
C561 H574 0.950 . S
C562 C561 1.369 . S
C562 C563 1.392 . S
C562 H575 0.951 . S
C563 C562 1.392 . S
C563 C565 1.384 . S
H564 C566 0.949 . S
C565 C563 1.384 . S
C565 C566 1.385 . S
C565 H567 0.950 . S
C566 C560 1.404 . S
C566 H564 0.949 . S
C566 C565 1.385 . S
H567 C565 0.950 . S
H568 C552 0.951 . S
H569 C554 0.951 . S
H570 C556 0.951 . S
H571 C557 0.950 . S
H572 C558 0.950 . S
H573 C559 0.950 . S
H574 C561 0.950 . S
H575 C562 0.951 . S
C576 C577 1.386 . S
C576 C578 1.383 . S
C576 H592 0.951 . S
C577 C576 1.386 . S
C577 C581 1.383 1_565 S
C578 C576 1.383 . S
C578 C579 1.402 1_565 S
C578 H593 0.951 . S
C579 C578 1.402 1_545 S
C579 C580 1.375 . S
C579 C582 1.481 . S
C580 C579 1.375 . S
C580 C581 1.367 . S
C580 H594 0.951 . S
C581 C577 1.383 1_545 S
C581 C580 1.367 . S
C581 H595 0.950 . S
C582 C579 1.481 . S
C582 C583 1.297 . S
C582 H596 0.950 . S
C583 C582 1.297 . S
C583 C584 1.479 . S
C583 H597 0.950 . S
C584 C583 1.479 . S
C584 C585 1.375 . S
C584 C590 1.404 . S
C585 C584 1.375 . S
C585 C586 1.369 . S
C585 H598 0.950 . S
C586 C585 1.369 . S
C586 C587 1.392 . S
C586 H599 0.951 . S
C587 C586 1.392 . S
C587 C589 1.384 . S
H588 C590 0.949 . S
C589 C587 1.384 . S
C589 C590 1.385 . S
C589 H591 0.950 . S
C590 C584 1.404 . S
C590 H588 0.949 . S
C590 C589 1.385 . S
H591 C589 0.950 . S
H592 C576 0.951 . S
H593 C578 0.951 . S
H594 C580 0.951 . S
H595 C581 0.950 . S
H596 C582 0.950 . S
H597 C583 0.950 . S
H598 C585 0.950 . S
H599 C586 0.951 . S
C600 C601 1.386 . S
C600 C602 1.383 . S
C600 H616 0.951 . S
C601 C600 1.386 . S
C601 C605 1.383 . S
C602 C600 1.383 . S
C602 C603 1.402 . S
C602 H617 0.951 . S
C603 C602 1.402 . S
C603 C604 1.375 . S
C603 C606 1.481 . S
C604 C603 1.375 . S
C604 C605 1.367 . S
C604 H618 0.951 . S
C605 C601 1.383 . S
C605 C604 1.367 . S
C605 H619 0.950 . S
C606 C603 1.481 . S
C606 C607 1.297 . S
C606 H620 0.950 . S
C607 C606 1.297 . S
C607 C608 1.479 . S
C607 H621 0.950 . S
C608 C607 1.479 . S
C608 C609 1.375 . S
C608 C614 1.404 . S
C609 C608 1.375 . S
C609 C610 1.369 . S
C609 H622 0.950 . S
C610 C609 1.369 . S
C610 C611 1.392 . S
C610 H623 0.951 . S
C611 C610 1.392 . S
C611 C613 1.384 . S
H612 C614 0.949 . S
C613 C611 1.384 . S
C613 C614 1.385 . S
C613 H615 0.950 . S
C614 C608 1.404 . S
C614 H612 0.949 . S
C614 C613 1.385 . S
H615 C613 0.950 . S
H616 C600 0.951 . S
H617 C602 0.951 . S
H618 C604 0.951 . S
H619 C605 0.950 . S
H620 C606 0.950 . S
H621 C607 0.950 . S
H622 C609 0.950 . S
H623 C610 0.951 . S
C624 C625 1.386 1_655 S
C624 C626 1.383 . S
C624 H640 0.951 . S
C625 C624 1.386 1_455 S
C625 C629 1.383 . S
C626 C624 1.383 . S
C626 C627 1.402 . S
C626 H641 0.951 . S
C627 C626 1.402 . S
C627 C628 1.375 1_655 S
C627 C630 1.481 . S
C628 C627 1.375 1_455 S
C628 C629 1.367 . S
C628 H642 0.951 . S
C629 C625 1.383 . S
C629 C628 1.367 . S
C629 H643 0.950 . S
C630 C627 1.481 . S
C630 C631 1.297 . S
C630 H644 0.950 . S
C631 C630 1.297 . S
C631 C632 1.479 . S
C631 H645 0.950 . S
C632 C631 1.479 . S
C632 C633 1.375 . S
C632 C638 1.404 . S
C633 C632 1.375 . S
C633 C634 1.369 . S
C633 H646 0.950 . S
C634 C633 1.369 . S
C634 C635 1.392 . S
C634 H647 0.951 . S
C635 C634 1.392 . S
C635 C637 1.384 . S
H636 C638 0.949 . S
C637 C635 1.384 . S
C637 C638 1.385 . S
C637 H639 0.950 . S
C638 C632 1.404 . S
C638 H636 0.949 . S
C638 C637 1.385 . S
H639 C637 0.950 . S
H640 C624 0.951 . S
H641 C626 0.951 . S
H642 C628 0.951 . S
H643 C629 0.950 . S
H644 C630 0.950 . S
H645 C631 0.950 . S
H646 C633 0.950 . S
H647 C634 0.951 . S
C648 C649 1.386 . S
C648 C650 1.383 1_545 S
C648 H664 0.951 . S
C649 C648 1.386 . S
C649 C653 1.383 1_545 S
C650 C648 1.383 1_565 S
C650 C651 1.402 . S
C650 H665 0.951 . S
C651 C650 1.402 . S
C651 C652 1.375 . S
C651 C654 1.481 . S
C652 C651 1.375 . S
C652 C653 1.367 . S
C652 H666 0.951 . S
C653 C649 1.383 1_565 S
C653 C652 1.367 . S
C653 H667 0.959 . S
C654 C651 1.481 . S
C654 C655 1.297 . S
C654 H668 0.950 . S
C655 C654 1.297 . S
C655 C656 1.479 . S
C655 H669 0.950 . S
C656 C655 1.479 . S
C656 C657 1.375 . S
C656 C662 1.404 . S
C657 C656 1.375 . S
C657 C658 1.369 . S
C657 H670 0.950 . S
C658 C657 1.369 . S
C658 C659 1.392 . S
C658 H671 0.951 . S
C659 C658 1.392 . S
C659 C661 1.384 . S
H660 C662 0.949 . S
C661 C659 1.384 . S
C661 C662 1.385 . S
C661 H663 0.950 . S
C662 C656 1.404 . S
C662 H660 0.949 . S
C662 C661 1.385 . S
H663 C661 0.950 . S
H664 C648 0.951 . S
H665 C650 0.951 . S
H666 C652 0.951 . S
H667 C653 0.959 . S
H668 C654 0.950 . S
H669 C655 0.950 . S
H670 C657 0.950 . S
H671 C658 0.951 . S
C241 C172 1.145 . S
C251 C8 1.155 . S
C265 C212 1.148 . S
C275 C48 1.150 . S
C289 C12 1.149 . S
C299 C88 1.117 . S
C313 C52 1.140 . S
C323 C128 1.155 . S
C337 C92 1.147 . S
C347 C168 1.151 . S
C361 C132 1.153 . S
C371 C208 1.124 . S
C385 C17 0.787 . S
C395 C137 0.676 . S
C409 C177 0.693 . S
C419 C57 0.604 . S
C433 C217 0.608 . S
C443 C97 0.840 . S
C457 C82 0.781 . S
C467 C202 0.754 . S
C481 C2 0.765 . S
C491 C122 0.780 . S
C505 C162 0.765 . S
C515 C42 0.777 . S
C529 C231 1.181 . S
C539 C29 1.183 . S
C553 C69 1.155 . S
C563 C31 1.145 . S
C577 C109 1.154 . S
C587 C71 1.139 . S
C601 C111 1.156 . S
C611 C149 1.141 . S
C625 C189 1.180 . S
C635 C151 1.183 . S
C649 C229 1.175 . S
C659 C191 1.166 . S
