# Generated by pormake.
# Topology wkf, (6)-cn, num edge types: 1
# Building blocks:
#     Node 0, Type 0, BuildingBlock: CUKXOW_clean_sbu_0, # of connection points: 6
#     Node 1, Type 0, BuildingBlock: CUKXOW_clean_sbu_0, # of connection points: 6
#     Node 2, Type 0, BuildingBlock: CUKXOW_clean_sbu_0, # of connection points: 6
#     Node 3, Type 0, BuildingBlock: CUKXOW_clean_sbu_0, # of connection points: 6
#     Node 4, Type 0, BuildingBlock: CUKXOW_clean_sbu_0, # of connection points: 6
#     Node 5, Type 0, BuildingBlock: CUKXOW_clean_sbu_0, # of connection points: 6
#     Node 6, Type 0, BuildingBlock: CUKXOW_clean_sbu_0, # of connection points: 6
#     Node 7, Type 0, BuildingBlock: CUKXOW_clean_sbu_0, # of connection points: 6
#     Node 8, Type 0, BuildingBlock: CUKXOW_clean_sbu_0, # of connection points: 6
#     Node 9, Type 0, BuildingBlock: CUKXOW_clean_sbu_0, # of connection points: 6
#     Node 10, Type 0, BuildingBlock: CUKXOW_clean_sbu_0, # of connection points: 6
#     Node 11, Type 0, BuildingBlock: CUKXOW_clean_sbu_0, # of connection points: 6
#     Edge 12, Type (0, 0), BuildingBlock: EZIPEK_clean_linker_0, # of connection points: 2
#     Edge 13, Type (0, 0), BuildingBlock: EZIPEK_clean_linker_0, # of connection points: 2
#     Edge 14, Type (0, 0), BuildingBlock: EZIPEK_clean_linker_0, # of connection points: 2
#     Edge 15, Type (0, 0), BuildingBlock: EZIPEK_clean_linker_0, # of connection points: 2
#     Edge 16, Type (0, 0), BuildingBlock: EZIPEK_clean_linker_0, # of connection points: 2
#     Edge 17, Type (0, 0), BuildingBlock: EZIPEK_clean_linker_0, # of connection points: 2
#     Edge 18, Type (0, 0), BuildingBlock: EZIPEK_clean_linker_0, # of connection points: 2
#     Edge 19, Type (0, 0), BuildingBlock: EZIPEK_clean_linker_0, # of connection points: 2
#     Edge 20, Type (0, 0), BuildingBlock: EZIPEK_clean_linker_0, # of connection points: 2
#     Edge 21, Type (0, 0), BuildingBlock: EZIPEK_clean_linker_0, # of connection points: 2
#     Edge 22, Type (0, 0), BuildingBlock: EZIPEK_clean_linker_0, # of connection points: 2
#     Edge 23, Type (0, 0), BuildingBlock: EZIPEK_clean_linker_0, # of connection points: 2
#     Edge 24, Type (0, 0), BuildingBlock: EZIPEK_clean_linker_0, # of connection points: 2
#     Edge 25, Type (0, 0), BuildingBlock: EZIPEK_clean_linker_0, # of connection points: 2
#     Edge 26, Type (0, 0), BuildingBlock: EZIPEK_clean_linker_0, # of connection points: 2
#     Edge 27, Type (0, 0), BuildingBlock: EZIPEK_clean_linker_0, # of connection points: 2
#     Edge 28, Type (0, 0), BuildingBlock: EZIPEK_clean_linker_0, # of connection points: 2
#     Edge 29, Type (0, 0), BuildingBlock: EZIPEK_clean_linker_0, # of connection points: 2
#     Edge 30, Type (0, 0), BuildingBlock: EZIPEK_clean_linker_0, # of connection points: 2
#     Edge 31, Type (0, 0), BuildingBlock: EZIPEK_clean_linker_0, # of connection points: 2
#     Edge 32, Type (0, 0), BuildingBlock: EZIPEK_clean_linker_0, # of connection points: 2
#     Edge 33, Type (0, 0), BuildingBlock: EZIPEK_clean_linker_0, # of connection points: 2
#     Edge 34, Type (0, 0), BuildingBlock: EZIPEK_clean_linker_0, # of connection points: 2
#     Edge 35, Type (0, 0), BuildingBlock: EZIPEK_clean_linker_0, # of connection points: 2
#     Edge 36, Type (0, 0), BuildingBlock: EZIPEK_clean_linker_0, # of connection points: 2
#     Edge 37, Type (0, 0), BuildingBlock: EZIPEK_clean_linker_0, # of connection points: 2
#     Edge 38, Type (0, 0), BuildingBlock: EZIPEK_clean_linker_0, # of connection points: 2
#     Edge 39, Type (0, 0), BuildingBlock: EZIPEK_clean_linker_0, # of connection points: 2
#     Edge 40, Type (0, 0), BuildingBlock: EZIPEK_clean_linker_0, # of connection points: 2
#     Edge 41, Type (0, 0), BuildingBlock: EZIPEK_clean_linker_0, # of connection points: 2
#     Edge 42, Type (0, 0), BuildingBlock: EZIPEK_clean_linker_0, # of connection points: 2
#     Edge 43, Type (0, 0), BuildingBlock: EZIPEK_clean_linker_0, # of connection points: 2
#     Edge 44, Type (0, 0), BuildingBlock: EZIPEK_clean_linker_0, # of connection points: 2
#     Edge 45, Type (0, 0), BuildingBlock: EZIPEK_clean_linker_0, # of connection points: 2
#     Edge 46, Type (0, 0), BuildingBlock: EZIPEK_clean_linker_0, # of connection points: 2
#     Edge 47, Type (0, 0), BuildingBlock: EZIPEK_clean_linker_0, # of connection points: 2
# Relax obj value: 0.112
# Max RMSD: 0.282
# Mean RMSD: 0.282
data_MOF--net-wkf--node1-CUKXOW_clean_sbu_0--edge1-EZIPEK_clean_linker_0
_symmetry_space_group_name_H-M    P1
_symmetry_Int_Tables_number       1
_symmetry_cell_setting            triclinic
loop_
_symmetry_equiv_pos_as_xyz
'x, y, z'
_cell_length_a     19.811853
_cell_length_b     19.832662
_cell_length_c     58.180959
_cell_angle_alpha  90.188082
_cell_angle_beta   90.059126
_cell_angle_gamma 119.79975
loop_
_atom_site_label
_atom_site_type_symbol
_atom_site_fract_x
_atom_site_fract_y
_atom_site_fract_z
_atom_type_partial_charge
Tb0 Tb 0.32844 0.1927 0.40264 0.0
C1 C 0.30593 0.02351 0.40969 0.0
Tb2 Tb 0.43659 0.14888 0.37609 0.0
O3 O 0.25525 0.17184 0.37159 0.0
O4 O 0.3187 0.11539 0.37634 0.0
O5 O 0.28255 0.07403 0.41467 0.0
C6 C 0.49013 0.07877 0.34942 0.0
O7 O 0.36597 0.04147 0.39593 0.0
C8 C 0.52109 0.25282 0.40789 0.0
C9 C 0.43826 0.30638 0.36564 0.0
O10 O 0.49478 0.08222 0.37161 0.0
O11 O 0.45657 0.1166 0.34176 0.0
O12 O 0.54648 0.21939 0.39401 0.0
O13 O 0.44836 0.22309 0.40409 0.0
O14 O 0.44922 0.25011 0.35685 0.0
O15 O 0.40117 0.29929 0.38513 0.0
C16 C 0.27369 0.22577 0.44055 0.0
O17 O 0.25367 0.23132 0.41958 0.0
O18 O 0.32477 0.20303 0.43982 0.0
C19 C 0.27968 0.12847 0.36187 0.0
Tb20 Tb 0.15127 0.31051 0.57287 0.0
C21 C 0.28524 0.27128 0.58181 0.0
Tb22 Tb 0.31155 0.41724 0.54895 0.0
O23 O 0.10535 0.2377 0.54138 0.0
O24 O 0.22238 0.30241 0.54747 0.0
O25 O 0.21484 0.25734 0.58732 0.0
C26 C 0.44562 0.47129 0.52625 0.0
O27 O 0.3321 0.33063 0.56811 0.0
C28 C 0.2844 0.49962 0.5803 0.0
C29 C 0.1565 0.42063 0.53393 0.0
O30 O 0.43832 0.47592 0.54827 0.0
O31 O 0.37653 0.43792 0.51683 0.0
O32 O 0.34638 0.52579 0.56781 0.0
O33 O 0.24396 0.42762 0.57547 0.0
O34 O 0.22674 0.43234 0.52727 0.0
O35 O 0.12196 0.38385 0.55314 0.0
C36 C 0.06028 0.25465 0.60973 0.0
O37 O 0.03753 0.23364 0.58854 0.0
O38 O 0.13266 0.30901 0.6099 0.0
C39 C 0.17374 0.26315 0.53207 0.0
Tb40 Tb 0.84237 0.13347 0.73699 0.0
C41 C 1.01295 0.27889 0.74157 0.0
Tb42 Tb 0.87627 0.27681 0.712 0.0
O43 O 0.85583 0.0768 0.70601 0.0
O44 O 0.9163 0.19751 0.70972 0.0
O45 O 0.96072 0.21122 0.75022 0.0
C46 C 0.93329 0.40568 0.68687 0.0
O47 O 0.99304 0.31317 0.72564 0.0
C48 C 0.78625 0.25435 0.74864 0.0
C49 C 0.71589 0.11705 0.70199 0.0
O50 O 0.91605 0.39998 0.70842 0.0
O51 O 0.91213 0.33668 0.67875 0.0
O52 O 0.84781 0.31926 0.74344 0.0
O53 O 0.78829 0.20475 0.73554 0.0
O54 O 0.76666 0.18905 0.69441 0.0
O55 O 0.72999 0.08699 0.72052 0.0
C56 C 0.81783 0.04931 0.77495 0.0
O57 O 0.82009 0.1157 0.77362 0.0
O58 O 0.82761 0.02868 0.75448 0.0
C59 C 0.89765 0.14285 0.69553 0.0
Tb60 Tb 0.72205 0.85101 0.90588 0.0
C61 C 0.7557 0.01962 0.9155 0.0
Tb62 Tb 0.62241 0.9031 0.88187 0.0
O63 O 0.79742 0.87212 0.87575 0.0
O64 O 0.73993 0.93443 0.8806 0.0
O65 O 0.75103 0.95744 0.925 0.0
C66 C 0.55829 0.96956 0.85687 0.0
O67 O 0.71595 1.01256 0.89645 0.0
C68 C 0.54931 0.80835 0.91712 0.0
C69 C 0.60896 0.73899 0.86768 0.0
O70 O 0.55761 0.96531 0.87905 0.0
O71 O 0.59258 0.93351 0.8484 0.0
O72 O 0.5495 0.87255 0.91279 0.0
O73 O 0.59833 0.80721 0.90358 0.0
O74 O 0.59137 0.79445 0.86234 0.0
O75 O 0.65439 0.74666 0.88559 0.0
C76 C 0.78535 0.81917 0.9421 0.0
O77 O 0.80768 0.8224 0.9209 0.0
O78 O 0.72575 0.82934 0.94248 0.0
C79 C 0.77716 0.91852 0.86611 0.0
Tb80 Tb 0.86826 0.69448 0.0733 0.0
C81 C 0.72546 0.72542 0.08145 0.0
Tb82 Tb 0.7063 0.58209 0.0509 0.0
O83 O 0.91406 0.76711 0.04251 0.0
O84 O 0.79498 0.70139 0.04803 0.0
O85 O 0.79931 0.74559 0.08558 0.0
C86 C 0.56391 0.50998 0.03262 0.0
O87 O 0.67904 0.66362 0.06887 0.0
C88 C 0.74161 0.50783 0.08269 0.0
C89 C 0.85646 0.58645 0.03219 0.0
O90 O 0.58229 0.54136 0.05286 0.0
O91 O 0.62681 0.52005 0.0224 0.0
O92 O 0.67804 0.47776 0.07089 0.0
O93 O 0.77864 0.57831 0.07688 0.0
O94 O 0.78616 0.5747 0.02653 0.0
O95 O 0.89421 0.62166 0.05138 0.0
C96 C 0.96108 0.74895 0.11061 0.0
O97 O 0.98351 0.7682 0.08937 0.0
O98 O 0.88738 0.69834 0.11056 0.0
C99 C 0.84557 0.74403 0.03332 0.0
Tb100 Tb 0.19989 0.87589 0.2374 0.0
C101 C 0.0301 0.73371 0.24508 0.0
Tb102 Tb 0.15988 0.72717 0.2135 0.0
O103 O 0.17745 0.92556 0.20618 0.0
O104 O 0.1202 0.80639 0.21147 0.0
O105 O 0.08487 0.80237 0.25249 0.0
C106 C 0.10358 0.60017 0.18735 0.0
O107 O 0.04601 0.69527 0.22925 0.0
C108 C 0.25919 0.75602 0.24824 0.0
C109 C 0.3195 0.8862 0.20112 0.0
O110 O 0.11087 0.60232 0.20944 0.0
O111 O 0.13178 0.67049 0.17954 0.0
O112 O 0.19856 0.68921 0.24387 0.0
O113 O 0.25214 0.80297 0.23534 0.0
O114 O 0.26655 0.81349 0.19438 0.0
O115 O 0.3097 0.91877 0.21985 0.0
C116 C 0.22924 0.96424 0.27512 0.0
O117 O 0.2238 0.98523 0.25425 0.0
O118 O 0.22036 0.89483 0.27439 0.0
C119 C 0.13479 0.85766 0.19656 0.0
Tb120 Tb 0.85393 0.70672 0.4419 0.0
C121 C 0.02825 0.74772 0.43381 0.0
Tb122 Tb 0.90433 0.59809 0.46269 0.0
O123 O 0.87416 0.77395 0.47398 0.0
O124 O 0.93199 0.71296 0.46724 0.0
O125 O 0.9724 0.76284 0.4286 0.0
C126 C 0.97079 0.53008 0.48597 0.0
O127 O 1.0153 0.68859 0.44735 0.0
C128 C 0.80609 0.53431 0.42715 0.0
C129 C 0.74188 0.58876 0.4785 0.0
O130 O 0.96749 0.53376 0.46384 0.0
O131 O 0.93263 0.56095 0.49525 0.0
O132 O 0.86652 0.52689 0.43112 0.0
O133 O 0.81081 0.58354 0.44168 0.0
O134 O 0.79591 0.56756 0.48266 0.0
O135 O 0.7499 0.63817 0.46181 0.0
C136 C 0.82503 0.76153 0.40349 0.0
O137 O 0.8183 0.78236 0.42437 0.0
O138 O 0.84464 0.70814 0.40457 0.0
C139 C 0.9163 0.74672 0.48306 0.0
Tb140 Tb 0.14287 0.83021 0.60992 0.0
C141 C 0.29191 0.99096 0.60253 0.0
Tb142 Tb 0.28745 0.86702 0.63643 0.0
O143 O 0.13101 0.92333 0.62808 0.0
O144 O 0.18598 0.87026 0.6431 0.0
O145 O 0.23417 0.93054 0.5921 0.0
C146 C 0.41063 0.91921 0.66408 0.0
O147 O 0.31473 0.98098 0.62288 0.0
C148 C 0.26826 0.7779 0.59951 0.0
C149 C 0.12941 0.70817 0.64697 0.0
O150 O 0.4096 0.90496 0.64242 0.0
O151 O 0.34111 0.90116 0.67072 0.0
O152 O 0.33296 0.83836 0.60572 0.0
O153 O 0.21716 0.77916 0.61215 0.0
O154 O 0.20528 0.75367 0.65216 0.0
O155 O 0.09281 0.72688 0.63116 0.0
C156 C 0.04114 0.78186 0.57502 0.0
O157 O 0.02372 0.78668 0.59637 0.0
O158 O 0.11419 0.80202 0.57388 0.0
C159 C 0.17257 0.9249 0.64564 0.0
Tb160 Tb 0.32223 0.14867 0.7755 0.0
C161 C 0.29503 0.29135 0.7667 0.0
Tb162 Tb 0.43424 0.30574 0.79955 0.0
O163 O 0.25402 0.10316 0.80791 0.0
O164 O 0.3173 0.22105 0.80103 0.0
O165 O 0.26897 0.21602 0.76407 0.0
C166 C 0.49014 0.43941 0.82207 0.0
O167 O 0.35931 0.3369 0.77873 0.0
C168 C 0.51327 0.2778 0.76784 0.0
C169 C 0.4389 0.15067 0.81185 0.0
O170 O 0.50018 0.43172 0.80044 0.0
O171 O 0.45091 0.37085 0.83151 0.0
O172 O 0.54144 0.33863 0.78098 0.0
O173 O 0.44108 0.23759 0.77254 0.0
O174 O 0.45107 0.2198 0.81976 0.0
O175 O 0.3999 0.11845 0.79265 0.0
C176 C 0.26802 0.07131 0.73548 0.0
O177 O 0.26006 0.03884 0.75564 0.0
O178 O 0.30623 0.14591 0.73844 0.0
C179 C 0.2807 0.17299 0.8166 0.0
Tb180 Tb 0.21244 0.35091 0.9429 0.0
C181 C 0.03715 0.30876 0.93053 0.0
Tb182 Tb 0.13889 0.44085 0.96731 0.0
O183 O 0.18237 0.26575 0.97068 0.0
O184 O 0.12264 0.32643 0.96634 0.0
O185 O 0.09798 0.29923 0.92671 0.0
C186 C 0.04976 0.48699 0.98789 0.0
O187 O 0.03961 0.35774 0.94652 0.0
C188 C 0.2529 0.53448 0.93828 0.0
C189 C 0.28797 0.45055 0.98803 0.0
O190 O 0.05341 0.47875 0.9659 0.0
O191 O 0.0964 0.46881 0.99859 0.0
O192 O 0.21226 0.55488 0.95089 0.0
O193 O 0.22514 0.46295 0.94229 0.0
O194 O 0.22341 0.45218 0.993 0.0
O195 O 0.30071 0.42635 0.96784 0.0
C196 C 0.25705 0.30438 0.90479 0.0
O197 O 0.27667 0.29925 0.9259 0.0
O198 O 0.2164 0.33918 0.90567 0.0
C199 C 0.13354 0.28363 0.98018 0.0
Tb200 Tb 0.89126 0.1845 0.10725 0.0
C201 C 0.74839 0.01931 0.0976 0.0
Tb202 Tb 0.7453 0.14175 0.13286 0.0
O203 O 0.9427 0.15758 0.13763 0.0
O204 O 0.82433 0.10234 0.13267 0.0
O205 O 0.81258 0.07685 0.08909 0.0
C206 C 0.61935 0.08079 0.15944 0.0
O207 O 0.71582 0.03044 0.11605 0.0
C208 C 0.7675 0.23889 0.09826 0.0
C209 C 0.90485 0.30179 0.14428 0.0
O210 O 0.6201 0.08727 0.13736 0.0
O211 O 0.69053 0.11321 0.16707 0.0
O212 O 0.70218 0.17732 0.10307 0.0
O213 O 0.81692 0.23449 0.11071 0.0
O214 O 0.83614 0.24561 0.15258 0.0
O215 O 0.92923 0.29552 0.12358 0.0
C216 C 0.96966 0.20919 0.06756 0.0
O217 O 1.00177 0.23138 0.08792 0.0
O218 O 0.89502 0.17359 0.07019 0.0
C219 C 0.87531 0.113 0.14724 0.0
Tb220 Tb 0.72366 0.88287 0.27456 0.0
C221 C 0.75918 0.74638 0.27261 0.0
Tb222 Tb 0.61812 0.73953 0.30222 0.0
O223 O 0.82415 0.90857 0.29767 0.0
O224 O 0.71248 0.8473 0.30901 0.0
O225 O 0.76959 0.81027 0.26255 0.0
C226 C 0.55912 0.60954 0.32593 0.0
O227 O 0.70495 0.71088 0.28848 0.0
C228 C 0.54207 0.76412 0.27038 0.0
C229 C 0.60744 0.89311 0.30926 0.0
O230 O 0.54969 0.61406 0.30411 0.0
O231 O 0.60019 0.67855 0.33492 0.0
O232 O 0.51136 0.72341 0.28867 0.0
O233 O 0.61282 0.77803 0.26812 0.0
O234 O 0.59341 0.82563 0.3187 0.0
O235 O 0.65281 0.92393 0.29106 0.0
C236 C 0.77951 0.97794 0.23836 0.0
O237 O 0.80786 0.99541 0.25912 0.0
O238 O 0.71813 0.90957 0.23869 0.0
C239 C 0.78062 0.86765 0.3147 0.0
C240 C 0.28909 0.08928 0.29831 0.0
C241 C 0.23629 1.0082 0.29679 0.0
C242 C 0.206 1.00702 0.33795 0.0
C243 C 0.25577 0.08869 0.33903 0.0
N244 N 0.3257 0.20934 0.31856 0.0
N245 N 0.12895 0.89443 0.31383 0.0
C246 C 0.29108 0.13037 0.31864 0.0
C247 C 0.19035 0.96818 0.31627 0.0
N248 N 0.34084 0.12667 0.28099 0.0
N249 N 0.17286 0.96663 0.35762 0.0
H250 H 0.11058 0.86673 0.29795 0.0
H251 H 0.09079 0.86362 0.32704 0.0
H252 H 0.1776 0.99368 0.37342 0.0
H253 H 0.14382 0.90626 0.35854 0.0
H254 H 0.38603 0.18391 0.28236 0.0
H255 H 0.3441 0.09857 0.26623 0.0
H256 H 0.34671 0.24271 0.30374 0.0
H257 H 0.32469 0.24024 0.33286 0.0
C258 C 0.14039 0.22419 0.48903 0.0
C259 C 0.19367 0.24819 0.50803 0.0
C260 C 0.29874 0.27565 0.4807 0.0
C261 C 0.24504 0.24201 0.46246 0.0
N262 N 0.11058 0.17021 0.45043 0.0
N263 N 0.3165 0.26209 0.52064 0.0
C264 C 0.16469 0.21298 0.46682 0.0
C265 C 0.27103 0.26454 0.5035 0.0
N266 N 0.06667 0.2117 0.49168 0.0
N267 N 0.37673 0.31772 0.47639 0.0
H268 H 0.29339 0.23863 0.53649 0.0
H269 H 0.37174 0.2694 0.51785 0.0
H270 H 0.39924 0.33099 0.45977 0.0
H271 H 0.41781 0.34665 0.48929 0.0
H272 H 0.0313 0.20702 0.47778 0.0
H273 H 0.04089 0.20811 0.50741 0.0
H274 H 0.05102 0.13954 0.45369 0.0
H275 H 0.12489 0.15936 0.43416 0.0
C276 C 0.89653 0.17078 0.65349 0.0
C277 C 0.93188 0.15374 0.67204 0.0
C278 C 0.04359 0.18424 0.64722 0.0
C279 C 1.01448 0.21652 0.6307 0.0
N280 N 0.91601 0.24798 0.61953 0.0
N281 N 0.03644 0.13689 0.68625 0.0
C282 C 0.94154 0.21159 0.63416 0.0
C283 C 1.00467 0.15788 0.66876 0.0
N284 N 0.81845 0.14276 0.65356 0.0
N285 N 0.1065 0.17623 0.64198 0.0
H286 H 1.00737 0.11412 0.70171 0.0
H287 H 0.09264 0.14532 0.686 0.0
H288 H 0.13458 0.1923 0.62615 0.0
H289 H 0.12674 0.14733 0.65234 0.0
H290 H 0.78815 0.14896 0.63983 0.0
H291 H 0.78348 0.10252 0.66575 0.0
H292 H 0.86696 0.25292 0.62287 0.0
H293 H 0.94751 0.27929 0.60522 0.0
C294 C 0.77546 0.93059 0.80051 0.0
C295 C 0.81756 1.01225 0.79718 0.0
C296 C 0.83632 0.03227 0.8386 0.0
C297 C 0.79709 0.95067 0.84226 0.0
N298 N 0.75161 0.82337 0.82541 0.0
N299 N 0.91605 0.13563 0.81251 0.0
C300 C 0.77439 0.90012 0.82281 0.0
C301 C 0.85662 0.06155 0.81605 0.0
N302 N 0.73295 0.88213 0.78295 0.0
N303 N 0.85436 0.08272 0.85648 0.0
H304 H 0.93753 0.15716 0.79619 0.0
H305 H 0.95073 0.17163 0.8258 0.0
H306 H 0.84301 0.06421 0.87327 0.0
H307 H 0.87489 0.14197 0.85435 0.0
H308 H 0.6949 0.82294 0.7852 0.0
H309 H 0.73043 0.90179 0.76658 0.0
H310 H 0.74237 0.78638 0.81153 0.0
H311 H 0.74819 0.7979 0.84128 0.0
C312 C 0.76647 0.72633 0.97265 0.0
C313 C 0.81521 0.79907 0.9629 0.0
C314 C 0.88798 0.84066 0.99953 0.0
C315 C 0.83149 0.76944 0.01002 0.0
N316 N 0.69676 0.66835 1.00626 0.0
N317 N 0.92037 0.92991 0.9672 0.0
C318 C 0.76584 0.7181 0.99664 0.0
C319 C 0.87629 0.85748 0.9763 0.0
N320 N 0.7162 0.66572 0.95919 0.0
N321 N 0.95022 0.89416 0.01196 0.0
H322 H 0.91461 0.94218 0.9501 0.0
H323 H 0.95986 0.97818 0.97667 0.0
H324 H 0.95329 0.89234 0.02979 0.0
H325 H 0.99847 0.94106 1.00456 0.0
H326 H 0.68521 0.60977 0.96575 0.0
H327 H 0.71344 0.67018 0.94137 0.0
H328 H 0.6849 0.66968 0.02362 0.0
H329 H 0.6849 0.66968 0.02362 0.0
C330 C 0.12907 0.82753 0.15399 0.0
C331 C 0.09505 0.84173 0.17357 0.0
C332 C 0.98111 0.81241 0.14982 0.0
C333 C 1.00908 0.78377 0.13188 0.0
N334 N 0.10691 0.75413 0.11876 0.0
N335 N 0.98574 0.84526 0.19028 0.0
C336 C 0.08239 0.78859 0.13446 0.0
C337 C 1.01997 0.83321 0.17155 0.0
N338 N 0.20717 0.85582 0.15335 0.0
N339 N 0.92045 0.82472 0.14562 0.0
H340 H 1.01391 0.8639 0.20612 0.0
H341 H 0.92782 0.83196 0.19049 0.0
H342 H 0.89502 0.81585 0.12942 0.0
H343 H 0.90254 0.85282 0.1572 0.0
H344 H 0.23626 0.85184 0.13895 0.0
H345 H 0.24324 0.89394 0.16589 0.0
H346 H 0.15647 0.74932 0.12123 0.0
H347 H 0.07398 0.72387 0.10443 0.0
C348 C 1.00704 0.71815 0.53718 0.0
C349 C 0.98976 0.7572 0.5543 0.0
C350 C 0.90463 0.77093 0.52621 0.0
C351 C 0.94068 0.75175 0.50792 0.0
N352 N 0.05061 0.73404 0.49855 0.0
N353 N 0.92296 0.82704 0.56446 0.0
C354 C 0.99828 0.73206 0.51403 0.0
C355 C 0.93834 0.78529 0.54877 0.0
N356 N 0.03369 0.6691 0.54298 0.0
N357 N 0.837 0.7719 0.52274 0.0
H358 H 0.94484 0.83713 0.58117 0.0
H359 H 0.8924 0.85556 0.56026 0.0
H360 H 0.80544 0.75414 0.50749 0.0
H361 H 0.8068 0.78012 0.53611 0.0
H362 H 0.0444 0.6371 0.5307 0.0
H363 H 0.0348 0.65394 0.56009 0.0
H364 H 0.09573 0.72414 0.50332 0.0
H365 H 0.05801 0.75953 0.4826 0.0
C366 C 0.23909 0.04411 0.67023 0.0
C367 C 0.18245 0.96503 0.66819 0.0
C368 C 0.16965 0.9584 0.71038 0.0
C369 C 0.23814 0.03259 0.71244 0.0
N370 N 0.3481 0.13734 0.69262 0.0
N371 N 0.09352 0.84433 0.68657 0.0
C372 C 0.27534 0.07354 0.6919 0.0
C373 C 0.1479 0.92128 0.68838 0.0
N374 N 0.259 0.09104 0.65146 0.0
N375 N 0.12245 0.92509 0.72891 0.0
H376 H 0.07087 0.81708 0.67082 0.0
H377 H 0.07364 0.80712 0.70065 0.0
H378 H 0.13194 0.95223 0.74486 0.0
H379 H 0.06856 0.87453 0.72776 0.0
H380 H 0.29532 0.15109 0.65245 0.0
H381 H 0.23145 0.07078 0.63561 0.0
H382 H 0.37838 0.16627 0.67789 0.0
H383 H 0.38288 0.15461 0.7073 0.0
C384 C 0.27674 0.20181 0.88252 0.0
C385 C 0.26863 0.26963 0.88294 0.0
C386 C 0.2448 0.25389 0.84131 0.0
C387 C 0.26683 0.19639 0.84006 0.0
N388 N 0.31378 0.12177 0.8602 0.0
N389 N 0.27035 0.37237 0.86002 0.0
C390 C 0.28569 0.17197 0.86089 0.0
C391 C 0.2601 0.29918 0.86155 0.0
N392 N 0.2721 0.1629 0.90229 0.0
N393 N 0.20534 0.26312 0.82357 0.0
H394 H 0.29108 0.41185 0.87366 0.0
H395 H 0.26875 0.39685 0.84432 0.0
H396 H 0.1902 0.22889 0.80873 0.0
H397 H 0.17888 0.29705 0.82532 0.0
H398 H 0.26943 0.10908 0.90237 0.0
H399 H 0.26304 0.17944 0.91842 0.0
H400 H 0.33741 0.10927 0.87447 0.0
H401 H 0.31845 0.09725 0.84494 0.0
C402 C 0.08068 0.21848 0.04318 0.0
C403 C 1.00952 0.21973 0.04476 0.0
C404 C 1.00952 0.22946 1.00257 0.0
C405 C 0.0888 0.25019 1.00195 0.0
N406 N 0.19847 0.2541 0.0216 0.0
N407 N 0.90586 0.22761 0.02449 0.0
C408 C 0.12392 0.24093 0.02218 0.0
C409 C 0.97335 0.2247 0.02403 0.0
N410 N 0.1046 0.19131 0.06119 0.0
N411 N 0.96746 0.20976 0.98261 0.0
H412 H 0.88011 0.23313 0.03936 0.0
H413 H 0.88029 0.23529 0.00981 0.0
H414 H 0.99084 0.20504 0.96705 0.0
H415 H 0.90744 0.18699 0.98199 0.0
H416 H 0.15165 0.18174 0.06041 0.0
H417 H 0.07192 0.16875 0.07607 0.0
H418 H 0.22919 0.25421 0.03613 0.0
H419 H 0.23281 0.27097 0.00694 0.0
C420 C 0.85757 0.09924 0.21352 0.0
C421 C 0.81831 0.01749 0.21656 0.0
C422 C 0.81143 0.99976 0.17527 0.0
C423 C 0.85883 0.08097 0.17143 0.0
N424 N 0.94011 0.20723 0.18886 0.0
N425 N 0.79408 0.89564 0.1999 0.0
C426 C 0.88691 0.13056 0.1912 0.0
C427 C 0.80772 0.96981 0.19734 0.0
N428 N 0.86388 0.14684 0.23137 0.0
N429 N 0.76422 0.95055 0.15873 0.0
H430 H 0.79751 0.8734 0.21581 0.0
H431 H 0.78995 0.86089 0.18584 0.0
H432 H 0.75525 0.97025 0.14336 0.0
H433 H 0.72447 0.89225 0.16199 0.0
H434 H 0.88447 0.20612 0.2294 0.0
H435 H 0.84274 0.12614 0.24775 0.0
H436 H 0.96731 0.24422 0.20277 0.0
H437 H 0.96199 0.23178 0.173 0.0
C438 C 0.755 0.80785 0.37731 0.0
C439 C 0.81971 0.79796 0.38163 0.0
C440 C 0.86837 0.84495 0.34247 0.0
C441 C 0.80373 0.856 0.33843 0.0
N442 N 0.70974 0.88242 0.35656 0.0
N443 N 0.94985 0.8297 0.3708 0.0
C444 C 0.75406 0.84752 0.3572 0.0
C445 C 0.88003 0.82318 0.36493 0.0
N446 N 0.69285 0.77735 0.39188 0.0
N447 N 0.91764 0.85293 0.32498 0.0
H448 H 0.96197 0.81779 0.38723 0.0
H449 H 0.99854 0.85515 0.36022 0.0
H450 H 0.91328 0.87044 0.3085 0.0
H451 H 0.95938 0.83588 0.32632 0.0
H452 H 0.64102 0.77651 0.38802 0.0
H453 H 0.69007 0.7463 0.40661 0.0
H454 H 0.67664 0.88276 0.37043 0.0
H455 H 0.71595 0.9208 0.34355 0.0
C456 C 0.49521 0.91189 0.32051 0.0
C457 C 0.57684 0.94042 0.3199 0.0
C458 C 0.60117 0.06523 0.33592 0.0
C459 C 0.52018 0.03735 0.3357 0.0
N460 N 0.39055 0.94168 0.32428 0.0
N461 N 0.70856 0.04864 0.32387 0.0
C462 C 0.46732 0.96303 0.32679 0.0
C463 C 0.63013 0.01849 0.3266 0.0
N464 N 0.4442 0.83585 0.31539 0.0
N465 N 0.65037 0.13595 0.34568 0.0
H466 H 0.73418 0.01603 0.31897 0.0
H467 H 0.74884 0.10763 0.32526 0.0
H468 H 0.6321 0.17465 0.35097 0.0
H469 H 0.70841 0.15499 0.34958 0.0
H470 H 0.38441 0.80945 0.31787 0.0
H471 H 0.46168 0.79695 0.31005 0.0
H472 H 0.34992 0.89155 0.31575 0.0
H473 H 0.36834 0.97761 0.32901 0.0
C474 C 0.53023 0.52432 0.49112 0.0
C475 C 0.52109 0.498 0.51409 0.0
C476 C 0.65976 0.53566 0.51483 0.0
C477 C 0.66545 0.5514 0.4909 0.0
N478 N 0.59381 0.53244 0.45535 0.0
N479 N 0.57399 0.45662 0.54512 0.0
C480 C 0.59693 0.53697 0.47875 0.0
C481 C 0.58483 0.49709 0.52524 0.0
N482 N 0.47779 0.54106 0.48118 0.0
N483 N 0.72498 0.56022 0.528 0.0
H484 H 0.51939 0.42129 0.5523 0.0
H485 H 0.61801 0.44997 0.55272 0.0
H486 H 0.78115 0.59271 0.52156 0.0
H487 H 0.72287 0.55578 0.54587 0.0
H488 H 0.48651 0.56643 0.46499 0.0
H489 H 0.43151 0.53969 0.49005 0.0
H490 H 0.54284 0.51622 0.44611 0.0
H491 H 0.63862 0.5348 0.44551 0.0
C492 C 0.08823 0.61694 0.6807 0.0
C493 C 0.0847 0.62921 0.65691 0.0
C494 C 0.97913 0.49425 0.65243 0.0
C495 C 0.98754 0.48059 0.67582 0.0
N496 N 0.07272 0.5227 0.70918 0.0
N497 N 0.04391 0.57097 0.61907 0.0
C498 C 0.04874 0.53999 0.68913 0.0
C499 C 0.03527 0.56529 0.64239 0.0
N500 N 0.12634 0.67811 0.69552 0.0
N501 N 0.91669 0.44117 0.63993 0.0
H502 H 0.08792 0.61979 0.61098 0.0
H503 H 1.01344 0.52388 0.60801 0.0
H504 H 0.87316 0.38911 0.64676 0.0
H505 H 0.90433 0.45244 0.62343 0.0
H506 H 0.12362 0.67119 0.71331 0.0
H507 H 0.15351 0.73594 0.69034 0.0
H508 H 0.12111 0.56368 0.71837 0.0
H509 H 0.05184 0.46602 0.71486 0.0
C510 C 0.42162 0.0235 0.82705 0.0
C511 C 0.47023 0.10562 0.82414 0.0
C512 C 0.57808 0.09755 0.84242 0.0
C513 C 0.53072 0.01556 0.84389 0.0
N514 N 0.41328 0.89872 0.83367 0.0
N515 N 0.60071 0.21577 0.82361 0.0
C516 C 0.4544 0.97809 0.83492 0.0
C517 C 0.55013 0.1415 0.83043 0.0
N518 N 0.34325 0.98862 0.8232 0.0
N519 N 0.64988 0.13368 0.85258 0.0
H520 H 0.58389 0.249 0.8139 0.0
H521 H 0.6608 0.24166 0.82548 0.0
H522 H 0.67409 0.10334 0.86043 0.0
H523 H 0.68318 0.19377 0.85451 0.0
H524 H 0.30423 0.9316 0.82788 0.0
H525 H 0.31526 0.0177 0.81726 0.0
H526 H 0.3609 0.8678 0.82478 0.0
H527 H 0.43495 0.86369 0.83974 0.0
C528 C 0.42509 0.53526 0.99585 0.0
C529 C 0.35283 0.48192 1.00463 0.0
C530 C 0.41791 0.44758 0.03433 0.0
C531 C 0.48844 0.48858 0.02162 0.0
N532 N 0.54724 0.5492 0.98553 0.0
N533 N 0.28084 0.4112 0.03764 0.0
C534 C 0.48923 0.52692 1.00115 0.0
C535 C 0.34874 0.44443 0.02561 0.0
N536 N 0.43269 0.59567 0.98304 0.0
N537 N 0.4166 0.40825 0.05371 0.0
H538 H 0.23171 0.41232 0.03174 0.0
H539 H 0.27417 0.38745 0.05395 0.0
H540 H 0.4654 0.40618 0.0595 0.0
H541 H 0.3668 0.37368 0.06322 0.0
H542 H 0.48746 0.6431 0.97979 0.0
H543 H 0.38492 0.60264 0.97927 0.0
H544 H 0.54713 0.5757 0.97009 0.0
H545 H 0.58597 0.52828 0.98616 0.0
C546 C 0.97733 0.50557 0.16875 0.0
C547 C 0.0552 0.52728 0.17451 0.0
C548 C 0.03515 0.40287 0.15996 0.0
C549 C 0.95431 0.37679 0.15655 0.0
N550 N 0.84748 0.40269 0.15898 0.0
N551 N 0.15577 0.49381 0.17879 0.0
C552 C 0.92503 0.42789 0.16143 0.0
C553 C 0.08319 0.47501 0.1711 0.0
N554 N 0.95362 0.55958 0.16998 0.0
N555 N 0.06752 0.36049 0.15188 0.0
H556 H 0.19495 0.54821 0.18561 0.0
H557 H 0.17527 0.45383 0.17979 0.0
H558 H 0.03611 0.30589 0.14434 0.0
H559 H 0.12733 0.38216 0.15109 0.0
H560 H 0.90075 0.55063 0.16354 0.0
H561 H 0.98937 0.61625 0.17582 0.0
H562 H 0.82097 0.4336 0.16474 0.0
H563 H 0.80793 0.34829 0.15248 0.0
C564 C 0.98264 0.43068 0.50931 0.0
C565 C 1.01902 0.50348 0.4983 0.0
C566 C 0.14686 0.52542 0.51126 0.0
C567 C 0.11136 0.44835 0.51988 0.0
N568 N 0.99463 0.32201 0.52228 0.0
N569 N 0.13715 0.6153 0.48519 0.0
C570 C 0.02894 0.39951 0.51759 0.0
C571 C 0.10159 0.54912 0.49803 0.0
N572 N 0.90361 0.39086 0.51189 0.0
N573 N 0.22198 0.578 0.51697 0.0
H574 H 0.10643 0.63607 0.47582 0.0
H575 H 0.197 0.64614 0.48243 0.0
H576 H 0.25606 0.56492 0.52766 0.0
H577 H 0.24766 0.63697 0.51319 0.0
H578 H 0.87469 0.34181 0.52221 0.0
H579 H 0.86743 0.41048 0.50533 0.0
H580 H 0.93668 0.28248 0.51849 0.0
H581 H 0.02564 0.29546 0.52763 0.0
C582 C 0.53283 0.93747 0.68127 0.0
C583 C 0.48362 0.96818 0.67658 0.0
C584 C 0.5856 0.0975 0.68885 0.0
C585 C 0.6382 0.06873 0.69116 0.0
N586 N 0.66426 0.96252 0.68599 0.0
N587 N 0.4658 0.07937 0.67223 0.0
C588 C 0.61233 0.98889 0.68643 0.0
C589 C 0.51049 0.04864 0.67944 0.0
N590 N 0.50299 0.85872 0.68114 0.0
N591 N 0.60547 0.17002 0.69665 0.0
H592 H 0.40939 0.04576 0.66588 0.0
H593 H 0.48705 0.13895 0.67095 0.0
H594 H 0.65994 0.20821 0.70335 0.0
H595 H 0.56581 0.1898 0.69823 0.0
H596 H 0.53369 0.83189 0.68681 0.0
H597 H 0.44466 0.81967 0.67746 0.0
H598 H 0.6505 0.90749 0.68011 0.0
H599 H 0.72319 0.99777 0.68938 0.0
C600 C 0.55747 0.59422 0.86818 0.0
C601 C 0.57048 0.66144 0.85564 0.0
C602 C 0.51303 0.57664 0.82201 0.0
C603 C 0.51647 0.51523 0.8336 0.0
N604 N 0.5614 0.47505 0.86668 0.0
N605 N 0.56955 0.71543 0.81824 0.0
C606 C 0.54458 0.52676 0.85634 0.0
C607 C 0.55064 0.65258 0.83185 0.0
N608 N 0.55212 0.5923 0.8915 0.0
N609 N 0.47114 0.56241 0.80215 0.0
H610 H 0.5988 0.77257 0.82402 0.0
H611 H 0.56306 0.71107 0.80042 0.0
H612 H 0.43883 0.50725 0.79493 0.0
H613 H 0.46082 0.60376 0.7944 0.0
H614 H 0.53695 0.5425 0.90112 0.0
H615 H 0.55082 0.63644 0.9006 0.0
H616 H 0.58825 0.48564 0.88275 0.0
H617 H 0.55746 0.42676 0.85827 0.0
C618 C 0.95432 0.6075 1.0021 0.0
C619 C 0.89505 0.55627 0.01718 0.0
C620 C 0.93874 0.46133 0.01375 0.0
C621 C 0.99846 0.51223 0.99864 0.0
N622 N 0.05991 0.6304 0.97638 0.0
N623 N 0.81771 0.42872 0.03305 0.0
C624 C 1.00487 0.58414 0.99203 0.0
C625 C 0.88317 0.48124 0.02163 0.0
N626 N 0.9632 0.67926 0.99797 0.0
N627 N 0.93582 0.39452 0.02088 0.0
H628 H 0.77588 0.44199 0.03888 0.0
H629 H 0.80094 0.3703 0.03493 0.0
H630 H 0.9737 0.37629 0.01497 0.0
H631 H 0.89906 0.35957 0.03379 0.0
H632 H 1.01055 0.72386 0.98955 0.0
H633 H 0.92282 0.69477 1.00352 0.0
H634 H 0.06186 0.67861 0.96869 0.0
H635 H 0.10315 0.6195 0.97039 0.0
C636 C 0.5296 0.96318 0.18254 0.0
C637 C 0.54664 0.0353 0.17262 0.0
C638 C 0.41451 1.00861 0.18103 0.0
C639 C 0.39458 0.93299 0.1889 0.0
N640 N 0.43109 0.83509 0.19519 0.0
N641 N 0.5046 0.12457 0.16056 0.0
C642 C 0.45156 0.90928 0.18906 0.0
C643 C 0.48877 0.05717 0.17135 0.0
N644 N 0.58797 0.94629 0.18583 0.0
N645 N 0.36327 0.03545 0.18337 0.0
H646 H 0.56042 0.16579 0.15551 0.0
H647 H 0.46211 0.13807 0.1557 0.0
H648 H 0.30628 1.00114 0.18878 0.0
H649 H 0.37848 0.09341 0.18123 0.0
H650 H 0.58166 0.89918 0.19536 0.0
H651 H 0.64509 0.98283 0.18065 0.0
H652 H 0.46746 0.8115 0.19355 0.0
H653 H 0.37523 0.79441 0.20033 0.0
C654 C 0.57822 0.4993 0.33757 0.0
C655 C 0.53201 0.53552 0.33783 0.0
C656 C 0.42171 0.41734 0.35246 0.0
C657 C 0.46965 0.38257 0.35416 0.0
N658 N 0.59919 0.39885 0.35349 0.0
N659 N 0.41595 0.5362 0.34938 0.0
C660 C 0.54948 0.42554 0.34802 0.0
C661 C 0.4557 0.49675 0.34653 0.0
N662 N 0.64925 0.53497 0.32712 0.0
N663 N 0.3431 0.37404 0.35567 0.0
H664 H 0.43921 0.59453 0.34496 0.0
H665 H 0.36325 0.5135 0.35809 0.0
H666 H 0.31452 0.31549 0.35994 0.0
H667 H 0.30481 0.39425 0.35198 0.0
H668 H 0.68154 0.50747 0.32401 0.0
H669 H 0.6734 0.5904 0.32009 0.0
H670 H 0.65932 0.43221 0.3517 0.0
H671 H 0.58204 0.34686 0.36207 0.0
C672 C 0.14415 0.87752 0.4439 0.0
C673 C 0.10976 0.81072 0.4294 0.0
C674 C 0.22147 0.87614 0.40323 0.0
C675 C 0.25481 0.94237 0.41817 0.0
N676 N 0.26373 0.98892 0.45681 0.0
N677 N 0.1244 0.7393 0.3982 0.0
C678 C 0.22176 0.93617 0.44004 0.0
C679 C 0.15179 0.80741 0.41012 0.0
N680 N 0.10144 0.88904 0.4602 0.0
N681 N 0.25294 0.87949 0.38211 0.0
H682 H 0.07281 0.68925 0.4026 0.0
H683 H 0.15572 0.73066 0.38529 0.0
H684 H 0.3058 0.92535 0.37672 0.0
H685 H 0.22499 0.83736 0.36943 0.0
H686 H 0.12271 0.9404 0.46966 0.0
H687 H 0.04237 0.85171 0.46237 0.0
H688 H 0.2442 0.98385 0.47369 0.0
H689 H 0.32135 0.03238 0.45423 0.0
C690 C 0.25703 0.13467 0.57261 0.0
C691 C 0.3008 0.2049 0.58543 0.0
C692 C 0.36455 0.14173 0.60574 0.0
C693 C 0.31693 0.07154 0.59323 0.0
N694 N 0.26151 0.02591 0.55574 0.0
N695 N 0.40742 0.27986 0.61123 0.0
C696 C 0.27771 0.07625 0.57366 0.0
C697 C 0.35883 0.21017 0.60097 0.0
N698 N 0.19315 0.1207 0.56005 0.0
N699 N 0.41561 0.14327 0.62175 0.0
H700 H 0.40266 0.32927 0.6084 0.0
H701 H 0.45447 0.2901 0.62156 0.0
H702 H 0.43081 0.10001 0.62257 0.0
H703 H 0.44452 0.18792 0.63364 0.0
H704 H 0.15706 0.0672 0.55218 0.0
H705 H 0.17114 0.15828 0.55945 0.0
H706 H 0.23702 0.03065 0.54036 0.0
H707 H 0.28281 0.98719 0.55518 0.0
C708 C 0.2072 0.34893 0.77295 0.0
C709 C 0.24306 0.32036 0.75766 0.0
C710 C 0.14452 0.30082 0.72861 0.0
C711 C 0.09746 0.30703 0.74608 0.0
N712 N 0.08652 0.34172 0.78504 0.0
N713 N 0.25106 0.27782 0.71954 0.0
C714 C 0.1299 0.33324 0.76826 0.0
C715 C 0.21373 0.30008 0.73493 0.0
N716 N 0.24723 0.39272 0.79151 0.0
N717 N 0.12405 0.29626 0.706 0.0
H718 H 0.30523 0.28324 0.72307 0.0
H719 H 0.22725 0.25172 0.70377 0.0
H720 H 0.07382 0.29536 0.70037 0.0
H721 H 0.16065 0.30041 0.69257 0.0
H722 H 0.22655 0.42138 0.8019 0.0
H723 H 0.30412 0.40669 0.79516 0.0
H724 H 0.1039 0.35228 0.8022 0.0
H725 H 0.0313 0.33419 0.78189 0.0
C726 C 0.8997 0.10832 0.9132 0.0
C727 C 0.82586 0.0964 0.92032 0.0
C728 C 0.88722 0.23664 0.92894 0.0
C729 C 0.95996 0.24646 0.92129 0.0
N730 N 1.0157 0.19919 0.89322 0.0
N731 N 0.74657 0.15161 0.93149 0.0
C732 C 0.96005 0.18466 0.90932 0.0
C733 C 0.81867 0.16154 0.9271 0.0
N734 N 0.91265 0.04785 0.909 0.0
N735 N 0.88309 0.2989 0.93722 0.0
H736 H 0.69646 0.09703 0.93136 0.0
H737 H 0.73576 0.19723 0.93431 0.0
H738 H 0.92699 0.3559 0.93436 0.0
H739 H 0.83559 0.29421 0.94623 0.0
H740 H 0.96812 0.05667 0.9055 0.0
H741 H 0.8709 0.98963 0.91056 0.0
H742 H 1.0148 0.15569 0.88287 0.0
H743 H 0.05565 0.25574 0.88816 0.0
C744 C 0.67341 0.88745 0.07743 0.0
C745 C 0.73271 0.93898 0.09272 0.0
C746 C 0.74385 0.83051 0.10711 0.0
C747 C 0.70225 0.7839 0.08834 0.0
N748 N 0.621 0.76807 0.0551 0.0
N749 N 0.84499 0.9598 0.11505 0.0
C750 C 0.66396 0.81162 0.07335 0.0
C751 C 0.77418 0.91085 0.10554 0.0
N752 N 0.62733 0.91089 0.06673 0.0
N753 N 0.75782 0.79851 0.12587 0.0
H754 H 0.87424 0.01939 0.11218 0.0
H755 H 0.87737 0.93924 0.12367 0.0
H756 H 0.73548 0.73859 0.12723 0.0
H757 H 0.7845 0.83129 0.14055 0.0
H758 H 0.57861 0.87362 0.057 0.0
H759 H 0.63538 0.96669 0.06893 0.0
H760 H 0.6017 0.7903 0.04206 0.0
H761 H 0.60475 0.70997 0.05283 0.0
C762 C 0.82703 0.71012 0.24225 0.0
C763 C 0.81353 0.71672 0.26595 0.0
C764 C 0.93002 0.70738 0.27575 0.0
C765 C 0.94763 0.70854 0.25205 0.0
N766 N 0.89888 0.68499 0.21294 0.0
N767 N 0.83865 0.69564 0.30527 0.0
C768 C 0.89147 0.7011 0.23536 0.0
C769 C 0.86021 0.70632 0.2827 0.0
N770 N 0.77872 0.71419 0.22619 0.0
N771 N 0.98203 0.71021 0.29174 0.0
H772 H 0.79256 0.70062 0.31174 0.0
H773 H 0.86402 0.67737 0.31763 0.0
H774 H 0.02999 0.70446 0.28733 0.0
H775 H 0.97962 0.72115 0.30914 0.0
H776 H 0.79127 0.72259 0.20872 0.0
H777 H 0.72638 0.7116 0.23052 0.0
H778 H 0.8559 0.6706 0.20055 0.0
H779 H 0.94488 0.67929 0.20675 0.0
C780 C 0.66687 0.46214 0.41198 0.0
C781 C 0.7279 0.46121 0.4246 0.0
C782 C 0.63858 0.32269 0.43309 0.0
C783 C 0.57796 0.32477 0.42075 0.0
N784 N 0.52716 0.40776 0.41103 0.0
N785 N 0.75486 0.39601 0.45575 0.0
C786 C 0.5897 0.39785 0.41372 0.0
C787 C 0.70912 0.39312 0.43775 0.0
N788 N 0.68155 0.52476 0.39887 0.0
N789 N 0.62879 0.2531 0.44043 0.0
H790 H 0.80185 0.44718 0.46185 0.0
H791 H 0.73962 0.34921 0.46674 0.0
H792 H 0.57564 0.20153 0.43896 0.0
H793 H 0.67425 0.24669 0.44701 0.0
H794 H 0.63931 0.52618 0.38851 0.0
H795 H 0.73739 0.5719 0.39693 0.0
H796 H 0.53161 0.46063 0.4065 0.0
H797 H 0.47331 0.36625 0.41751 0.0
C798 C 0.31551 0.68269 0.6111 0.0
C799 C 0.2675 0.70105 0.597 0.0
C800 C 0.20278 0.56493 0.58402 0.0
C801 C 0.26444 0.55515 0.59225 0.0
N802 N 0.3828 0.60909 0.61438 0.0
N803 N 0.16917 0.6557 0.56743 0.0
C804 C 0.32213 0.61576 0.60592 0.0
C805 C 0.21241 0.64101 0.58258 0.0
N806 N 0.34947 0.72432 0.63056 0.0
N807 N 0.13216 0.50154 0.58018 0.0
H808 H 0.1759 0.711 0.56557 0.0
H809 H 0.13307 0.61417 0.55541 0.0
H810 H 0.1204 0.44777 0.58665 0.0
H811 H 0.08397 0.50533 0.57474 0.0
H812 H 0.38082 0.70989 0.64199 0.0
H813 H 0.33548 0.76442 0.6372 0.0
H814 H 0.43097 0.65521 0.62229 0.0
H815 H 0.38587 0.55829 0.61257 0.0
C816 C 0.63367 0.32073 0.74458 0.0
C817 C 0.56777 0.25864 0.75513 0.0
C818 C 0.64209 0.19062 0.76037 0.0
C819 C 0.70939 0.25406 0.75046 0.0
N820 N 0.74517 0.35282 0.72121 0.0
N821 N 0.50087 0.12073 0.75994 0.0
C822 C 0.69912 0.31246 0.73925 0.0
C823 C 0.56906 0.18908 0.7593 0.0
N824 N 0.63304 0.38715 0.73888 0.0
N825 N 0.64712 0.13182 0.77076 0.0
H826 H 0.44903 0.11843 0.75507 0.0
H827 H 0.49797 0.06702 0.76159 0.0
H828 H 0.69909 0.1308 0.77174 0.0
H829 H 0.60093 0.08785 0.77984 0.0
H830 H 0.68295 0.43759 0.73372 0.0
H831 H 0.58307 0.39206 0.74006 0.0
H832 H 0.73766 0.39325 0.71179 0.0
H833 H 0.77861 0.3336 0.71273 0.0
C834 C 0.46867 0.66695 0.93022 0.0
C835 C 0.47208 0.73394 0.92016 0.0
C836 C 0.32905 0.65892 0.9159 0.0
C837 C 0.32659 0.59313 0.9264 0.0
N838 N 0.39887 0.52731 0.93327 0.0
N839 N 0.40516 0.77239 0.89266 0.0
C840 C 0.39782 0.59466 0.93012 0.0
C841 C 0.40215 0.72442 0.90991 0.0
N842 N 0.53255 0.66919 0.93959 0.0
N843 N 0.26139 0.65832 0.91093 0.0
H844 H 0.45669 0.81189 0.88464 0.0
H845 H 0.35609 0.76417 0.88367 0.0
H846 H 0.20691 0.60849 0.91237 0.0
H847 H 0.25987 0.70812 0.90607 0.0
H848 H 0.58663 0.7194 0.94087 0.0
H849 H 0.58663 0.7194 0.94087 0.0
H850 H 0.45007 0.52622 0.93666 0.0
H851 H 0.35015 0.47374 0.92954 0.0
C852 C 0.83325 0.38384 0.08882 0.0
C853 C 0.76921 0.31596 0.09816 0.0
C854 C 0.70551 0.3925 0.10702 0.0
C855 C 0.76514 0.45729 0.09545 0.0
N856 N 0.9019 0.52284 0.08651 0.0
N857 N 0.67362 0.27778 0.12866 0.0
C858 C 0.83396 0.45597 0.08981 0.0
C859 C 0.71315 0.32602 0.11091 0.0
N860 N 0.89512 0.38102 0.07968 0.0
N861 N 0.64112 0.39445 0.11444 0.0
H862 H 0.68777 0.23764 0.13521 0.0
H863 H 0.6379 0.28784 0.13959 0.0
H864 H 0.63727 0.44508 0.11398 0.0
H865 H 0.59115 0.34522 0.1202 0.0
H866 H 0.94305 0.43024 0.07293 0.0
H867 H 0.89715 0.32961 0.07829 0.0
H868 H 0.90808 0.57727 0.09001 0.0
H869 H 0.90808 0.57727 0.09001 0.0
C870 C 0.4237 0.70378 0.24564 0.0
C871 C 0.48866 0.77278 0.25389 0.0
C872 C 0.40539 0.83221 0.25713 0.0
C873 C 0.33903 0.76211 0.24954 0.0
N874 N 0.30282 0.64981 0.22478 0.0
N875 N 0.54629 0.91071 0.25604 0.0
C876 C 0.35279 0.70273 0.24036 0.0
C877 C 0.48099 0.83969 0.25601 0.0
N878 N 0.42943 0.6384 0.24312 0.0
N879 N 0.3968 0.89147 0.26579 0.0
H880 H 0.60038 0.9159 0.25283 0.0
H881 H 0.54536 0.96278 0.25598 0.0
H882 H 0.3429 0.88812 0.26728 0.0
H883 H 0.44246 0.94109 0.27324 0.0
H884 H 0.38143 0.58381 0.23984 0.0
H885 H 0.48209 0.63909 0.24539 0.0
H886 H 0.31332 0.60873 0.21684 0.0
H887 H 0.25936 0.65569 0.21662 0.0
loop_
_geom_bond_atom_site_label_1
_geom_bond_atom_site_label_2
_geom_bond_distance
_geom_bond_site_symmetry_2
_ccdc_geom_bond_type
Tb0 O3 2.453 . S
Tb0 O4 2.596 . S
Tb0 O5 2.374 . S
Tb0 O13 2.343 . S
Tb0 O15 2.353 . S
Tb0 O17 2.427 . S
Tb0 O18 2.513 . S
C1 O5 1.251 1_565 S
C1 O7 1.263 . S
Tb2 O4 2.343 . S
Tb2 O7 2.353 1_545 S
Tb2 O10 2.427 1_545 S
Tb2 O11 2.513 . S
Tb2 O12 2.453 . S
Tb2 O13 2.596 . S
Tb2 O14 2.374 . S
O3 Tb0 2.453 . S
O3 C19 1.245 . S
O4 Tb0 2.596 . S
O4 Tb2 2.343 . S
O4 C19 1.259 . S
O5 Tb0 2.374 . S
O5 C1 1.251 1_545 S
C6 O10 1.275 . S
C6 O11 1.246 1_565 S
O7 C1 1.263 . S
O7 Tb2 2.353 1_565 S
C8 O12 1.245 . S
C8 O13 1.259 . S
C9 O14 1.250 . S
C9 O15 1.263 . S
O10 Tb2 2.427 1_565 S
O10 C6 1.275 . S
O11 Tb2 2.513 . S
O11 C6 1.246 1_545 S
O12 Tb2 2.453 . S
O12 C8 1.245 . S
O13 Tb0 2.343 . S
O13 Tb2 2.596 . S
O13 C8 1.259 . S
O14 Tb2 2.374 . S
O14 C9 1.250 . S
O15 Tb0 2.353 . S
O15 C9 1.263 . S
C16 O17 1.275 . S
C16 O18 1.246 . S
O17 Tb0 2.427 . S
O17 C16 1.275 . S
O18 Tb0 2.513 . S
O18 C16 1.246 . S
C19 O3 1.245 . S
C19 O4 1.259 . S
Tb20 O23 2.453 . S
Tb20 O24 2.596 . S
Tb20 O25 2.374 . S
Tb20 O33 2.343 . S
Tb20 O35 2.353 . S
Tb20 O37 2.427 . S
Tb20 O38 2.513 . S
C21 O25 1.251 . S
C21 O27 1.263 . S
Tb22 O24 2.343 . S
Tb22 O27 2.353 . S
Tb22 O30 2.427 . S
Tb22 O31 2.513 . S
Tb22 O32 2.453 . S
Tb22 O33 2.596 . S
Tb22 O34 2.374 . S
O23 Tb20 2.453 . S
O23 C39 1.245 . S
O24 Tb20 2.596 . S
O24 Tb22 2.343 . S
O24 C39 1.259 . S
O25 Tb20 2.374 . S
O25 C21 1.251 . S
C26 O30 1.275 . S
C26 O31 1.246 . S
O27 C21 1.263 . S
O27 Tb22 2.353 . S
C28 O32 1.245 . S
C28 O33 1.259 . S
C29 O34 1.250 . S
C29 O35 1.263 . S
O30 Tb22 2.427 . S
O30 C26 1.275 . S
O31 Tb22 2.513 . S
O31 C26 1.246 . S
O32 Tb22 2.453 . S
O32 C28 1.245 . S
O33 Tb20 2.343 . S
O33 Tb22 2.596 . S
O33 C28 1.259 . S
O34 Tb22 2.374 . S
O34 C29 1.250 . S
O35 Tb20 2.353 . S
O35 C29 1.263 . S
C36 O37 1.275 . S
C36 O38 1.246 . S
O37 Tb20 2.427 . S
O37 C36 1.275 . S
O38 Tb20 2.513 . S
O38 C36 1.246 . S
C39 O23 1.245 . S
C39 O24 1.259 . S
Tb40 O43 2.453 . S
Tb40 O44 2.596 . S
Tb40 O45 2.374 . S
Tb40 O53 2.343 . S
Tb40 O55 2.353 . S
Tb40 O57 2.427 . S
Tb40 O58 2.513 . S
C41 O45 1.251 1_455 S
C41 O47 1.263 . S
Tb42 O44 2.343 . S
Tb42 O47 2.353 1_655 S
Tb42 O50 2.427 1_655 S
Tb42 O51 2.513 . S
Tb42 O52 2.453 . S
Tb42 O53 2.596 . S
Tb42 O54 2.374 . S
O43 Tb40 2.453 . S
O43 C59 1.245 . S
O44 Tb40 2.596 . S
O44 Tb42 2.343 . S
O44 C59 1.259 . S
O45 Tb40 2.374 . S
O45 C41 1.251 1_655 S
C46 O50 1.275 . S
C46 O51 1.246 1_455 S
O47 C41 1.263 . S
O47 Tb42 2.353 1_455 S
C48 O52 1.245 . S
C48 O53 1.259 . S
C49 O54 1.250 . S
C49 O55 1.263 . S
O50 Tb42 2.427 1_455 S
O50 C46 1.275 . S
O51 Tb42 2.513 . S
O51 C46 1.246 1_655 S
O52 Tb42 2.453 . S
O52 C48 1.245 . S
O53 Tb40 2.343 . S
O53 Tb42 2.596 . S
O53 C48 1.259 . S
O54 Tb42 2.374 . S
O54 C49 1.250 . S
O55 Tb40 2.353 . S
O55 C49 1.263 . S
C56 O57 1.275 . S
C56 O58 1.246 . S
O57 Tb40 2.427 . S
O57 C56 1.275 . S
O58 Tb40 2.513 . S
O58 C56 1.246 . S
C59 O43 1.245 . S
C59 O44 1.259 . S
Tb60 O63 2.453 . S
Tb60 O64 2.596 . S
Tb60 O65 2.374 . S
Tb60 O73 2.343 . S
Tb60 O75 2.353 . S
Tb60 O77 2.427 . S
Tb60 O78 2.513 . S
C61 O65 1.251 1_545 S
C61 O67 1.263 . S
Tb62 O64 2.343 . S
Tb62 O67 2.353 1_565 S
Tb62 O70 2.427 1_565 S
Tb62 O71 2.513 . S
Tb62 O72 2.453 . S
Tb62 O73 2.596 . S
Tb62 O74 2.374 . S
O63 Tb60 2.453 . S
O63 C79 1.245 . S
O64 Tb60 2.596 . S
O64 Tb62 2.343 . S
O64 C79 1.259 . S
O65 Tb60 2.374 . S
O65 C61 1.251 1_565 S
C66 O70 1.275 . S
C66 O71 1.246 1_545 S
O67 C61 1.263 . S
O67 Tb62 2.353 1_545 S
C68 O72 1.245 . S
C68 O73 1.259 . S
C69 O74 1.250 . S
C69 O75 1.263 . S
O70 Tb62 2.427 1_545 S
O70 C66 1.275 . S
O71 Tb62 2.513 . S
O71 C66 1.246 1_565 S
O72 Tb62 2.453 . S
O72 C68 1.245 . S
O73 Tb60 2.343 . S
O73 Tb62 2.596 . S
O73 C68 1.259 . S
O74 Tb62 2.374 . S
O74 C69 1.250 . S
O75 Tb60 2.353 . S
O75 C69 1.263 . S
C76 O77 1.275 . S
C76 O78 1.246 . S
O77 Tb60 2.427 . S
O77 C76 1.275 . S
O78 Tb60 2.513 . S
O78 C76 1.246 . S
C79 O63 1.245 . S
C79 O64 1.259 . S
Tb80 O83 2.453 . S
Tb80 O84 2.596 . S
Tb80 O85 2.374 . S
Tb80 O93 2.343 . S
Tb80 O95 2.353 . S
Tb80 O97 2.427 . S
Tb80 O98 2.513 . S
C81 O85 1.251 . S
C81 O87 1.263 . S
Tb82 O84 2.343 . S
Tb82 O87 2.353 . S
Tb82 O90 2.427 . S
Tb82 O91 2.513 . S
Tb82 O92 2.453 . S
Tb82 O93 2.596 . S
Tb82 O94 2.374 . S
O83 Tb80 2.453 . S
O83 C99 1.245 . S
O84 Tb80 2.596 . S
O84 Tb82 2.343 . S
O84 C99 1.259 . S
O85 Tb80 2.374 . S
O85 C81 1.251 . S
C86 O90 1.275 . S
C86 O91 1.246 . S
O87 C81 1.263 . S
O87 Tb82 2.353 . S
C88 O92 1.245 . S
C88 O93 1.259 . S
C89 O94 1.250 . S
C89 O95 1.263 . S
O90 Tb82 2.427 . S
O90 C86 1.275 . S
O91 Tb82 2.513 . S
O91 C86 1.246 . S
O92 Tb82 2.453 . S
O92 C88 1.245 . S
O93 Tb80 2.343 . S
O93 Tb82 2.596 . S
O93 C88 1.259 . S
O94 Tb82 2.374 . S
O94 C89 1.250 . S
O95 Tb80 2.353 . S
O95 C89 1.263 . S
C96 O97 1.275 . S
C96 O98 1.246 . S
O97 Tb80 2.427 . S
O97 C96 1.275 . S
O98 Tb80 2.513 . S
O98 C96 1.246 . S
C99 O83 1.245 . S
C99 O84 1.259 . S
Tb100 O103 2.453 . S
Tb100 O104 2.596 . S
Tb100 O105 2.374 . S
Tb100 O113 2.343 . S
Tb100 O115 2.353 . S
Tb100 O117 2.427 . S
Tb100 O118 2.513 . S
C101 O105 1.251 1_655 S
C101 O107 1.263 . S
Tb102 O104 2.343 . S
Tb102 O107 2.353 1_455 S
Tb102 O110 2.427 1_455 S
Tb102 O111 2.513 . S
Tb102 O112 2.453 . S
Tb102 O113 2.596 . S
Tb102 O114 2.374 . S
O103 Tb100 2.453 . S
O103 C119 1.245 . S
O104 Tb100 2.596 . S
O104 Tb102 2.343 . S
O104 C119 1.259 . S
O105 Tb100 2.374 . S
O105 C101 1.251 1_455 S
C106 O110 1.275 . S
C106 O111 1.246 1_655 S
O107 C101 1.263 . S
O107 Tb102 2.353 1_655 S
C108 O112 1.245 . S
C108 O113 1.259 . S
C109 O114 1.250 . S
C109 O115 1.263 . S
O110 Tb102 2.427 1_655 S
O110 C106 1.275 . S
O111 Tb102 2.513 . S
O111 C106 1.246 1_455 S
O112 Tb102 2.453 . S
O112 C108 1.245 . S
O113 Tb100 2.343 . S
O113 Tb102 2.596 . S
O113 C108 1.259 . S
O114 Tb102 2.374 . S
O114 C109 1.250 . S
O115 Tb100 2.353 . S
O115 C109 1.263 . S
C116 O117 1.275 . S
C116 O118 1.246 . S
O117 Tb100 2.427 . S
O117 C116 1.275 . S
O118 Tb100 2.513 . S
O118 C116 1.246 . S
C119 O103 1.245 . S
C119 O104 1.259 . S
Tb120 O123 2.453 . S
Tb120 O124 2.596 . S
Tb120 O125 2.374 . S
Tb120 O133 2.343 . S
Tb120 O135 2.353 . S
Tb120 O137 2.427 . S
Tb120 O138 2.513 . S
C121 O125 1.251 1_455 S
C121 O127 1.263 . S
Tb122 O124 2.343 . S
Tb122 O127 2.353 1_655 S
Tb122 O130 2.427 1_655 S
Tb122 O131 2.513 . S
Tb122 O132 2.453 . S
Tb122 O133 2.596 . S
Tb122 O134 2.374 . S
O123 Tb120 2.453 . S
O123 C139 1.245 . S
O124 Tb120 2.596 . S
O124 Tb122 2.343 . S
O124 C139 1.259 . S
O125 Tb120 2.374 . S
O125 C121 1.251 1_655 S
C126 O130 1.275 . S
C126 O131 1.246 1_455 S
O127 C121 1.263 . S
O127 Tb122 2.353 1_455 S
C128 O132 1.245 . S
C128 O133 1.259 . S
C129 O134 1.250 . S
C129 O135 1.263 . S
O130 Tb122 2.427 1_455 S
O130 C126 1.275 . S
O131 Tb122 2.513 . S
O131 C126 1.246 1_655 S
O132 Tb122 2.453 . S
O132 C128 1.245 . S
O133 Tb120 2.343 . S
O133 Tb122 2.596 . S
O133 C128 1.259 . S
O134 Tb122 2.374 . S
O134 C129 1.250 . S
O135 Tb120 2.353 . S
O135 C129 1.263 . S
C136 O137 1.275 . S
C136 O138 1.246 . S
O137 Tb120 2.427 . S
O137 C136 1.275 . S
O138 Tb120 2.513 . S
O138 C136 1.246 . S
C139 O123 1.245 . S
C139 O124 1.259 . S
Tb140 O143 2.453 . S
Tb140 O144 2.596 . S
Tb140 O145 2.374 . S
Tb140 O153 2.343 . S
Tb140 O155 2.353 . S
Tb140 O157 2.427 . S
Tb140 O158 2.513 . S
C141 O145 1.251 1_545 S
C141 O147 1.263 . S
Tb142 O144 2.343 . S
Tb142 O147 2.353 1_565 S
Tb142 O150 2.427 1_565 S
Tb142 O151 2.513 . S
Tb142 O152 2.453 . S
Tb142 O153 2.596 . S
Tb142 O154 2.374 . S
O143 Tb140 2.453 . S
O143 C159 1.245 . S
O144 Tb140 2.596 . S
O144 Tb142 2.343 . S
O144 C159 1.259 . S
O145 Tb140 2.374 . S
O145 C141 1.251 1_565 S
C146 O150 1.275 . S
C146 O151 1.246 1_545 S
O147 C141 1.263 . S
O147 Tb142 2.353 1_545 S
C148 O152 1.245 . S
C148 O153 1.259 . S
C149 O154 1.250 . S
C149 O155 1.263 . S
O150 Tb142 2.427 1_545 S
O150 C146 1.275 . S
O151 Tb142 2.513 . S
O151 C146 1.246 1_565 S
O152 Tb142 2.453 . S
O152 C148 1.245 . S
O153 Tb140 2.343 . S
O153 Tb142 2.596 . S
O153 C148 1.259 . S
O154 Tb142 2.374 . S
O154 C149 1.250 . S
O155 Tb140 2.353 . S
O155 C149 1.263 . S
C156 O157 1.275 . S
C156 O158 1.246 . S
O157 Tb140 2.427 . S
O157 C156 1.275 . S
O158 Tb140 2.513 . S
O158 C156 1.246 . S
C159 O143 1.245 . S
C159 O144 1.259 . S
Tb160 O163 2.453 . S
Tb160 O164 2.596 . S
Tb160 O165 2.374 . S
Tb160 O173 2.343 . S
Tb160 O175 2.353 . S
Tb160 O177 2.427 . S
Tb160 O178 2.513 . S
C161 O165 1.251 . S
C161 O167 1.263 . S
Tb162 O164 2.343 . S
Tb162 O167 2.353 . S
Tb162 O170 2.427 . S
Tb162 O171 2.513 . S
Tb162 O172 2.453 . S
Tb162 O173 2.596 . S
Tb162 O174 2.374 . S
O163 Tb160 2.453 . S
O163 C179 1.245 . S
O164 Tb160 2.596 . S
O164 Tb162 2.343 . S
O164 C179 1.259 . S
O165 Tb160 2.374 . S
O165 C161 1.251 . S
C166 O170 1.275 . S
C166 O171 1.246 . S
O167 C161 1.263 . S
O167 Tb162 2.353 . S
C168 O172 1.245 . S
C168 O173 1.259 . S
C169 O174 1.250 . S
C169 O175 1.263 . S
O170 Tb162 2.427 . S
O170 C166 1.275 . S
O171 Tb162 2.513 . S
O171 C166 1.246 . S
O172 Tb162 2.453 . S
O172 C168 1.245 . S
O173 Tb160 2.343 . S
O173 Tb162 2.596 . S
O173 C168 1.259 . S
O174 Tb162 2.374 . S
O174 C169 1.250 . S
O175 Tb160 2.353 . S
O175 C169 1.263 . S
C176 O177 1.275 . S
C176 O178 1.246 . S
O177 Tb160 2.427 . S
O177 C176 1.275 . S
O178 Tb160 2.513 . S
O178 C176 1.246 . S
C179 O163 1.245 . S
C179 O164 1.259 . S
Tb180 O183 2.453 . S
Tb180 O184 2.596 . S
Tb180 O185 2.374 . S
Tb180 O193 2.343 . S
Tb180 O195 2.353 . S
Tb180 O197 2.427 . S
Tb180 O198 2.513 . S
C181 O185 1.251 1_655 S
C181 O187 1.263 . S
Tb182 O184 2.343 . S
Tb182 O187 2.353 1_455 S
Tb182 O190 2.427 1_455 S
Tb182 O191 2.513 . S
Tb182 O192 2.453 . S
Tb182 O193 2.596 . S
Tb182 O194 2.374 . S
O183 Tb180 2.453 . S
O183 C199 1.245 . S
O184 Tb180 2.596 . S
O184 Tb182 2.343 . S
O184 C199 1.259 . S
O185 Tb180 2.374 . S
O185 C181 1.251 1_455 S
C186 O190 1.275 . S
C186 O191 1.246 1_655 S
O187 C181 1.263 . S
O187 Tb182 2.353 1_655 S
C188 O192 1.245 . S
C188 O193 1.259 . S
C189 O194 1.250 . S
C189 O195 1.263 . S
O190 Tb182 2.427 1_655 S
O190 C186 1.275 . S
O191 Tb182 2.513 . S
O191 C186 1.246 1_455 S
O192 Tb182 2.453 . S
O192 C188 1.245 . S
O193 Tb180 2.343 . S
O193 Tb182 2.596 . S
O193 C188 1.259 . S
O194 Tb182 2.374 . S
O194 C189 1.250 . S
O195 Tb180 2.353 . S
O195 C189 1.263 . S
C196 O197 1.275 . S
C196 O198 1.246 . S
O197 Tb180 2.427 . S
O197 C196 1.275 . S
O198 Tb180 2.513 . S
O198 C196 1.246 . S
C199 O183 1.245 . S
C199 O184 1.259 . S
Tb200 O203 2.453 . S
Tb200 O204 2.596 . S
Tb200 O205 2.374 . S
Tb200 O213 2.343 . S
Tb200 O215 2.353 . S
Tb200 O217 2.427 . S
Tb200 O218 2.513 . S
C201 O205 1.251 1_565 S
C201 O207 1.263 . S
Tb202 O204 2.343 . S
Tb202 O207 2.353 1_545 S
Tb202 O210 2.427 1_545 S
Tb202 O211 2.513 . S
Tb202 O212 2.453 . S
Tb202 O213 2.596 . S
Tb202 O214 2.374 . S
O203 Tb200 2.453 . S
O203 C219 1.245 . S
O204 Tb200 2.596 . S
O204 Tb202 2.343 . S
O204 C219 1.259 . S
O205 Tb200 2.374 . S
O205 C201 1.251 1_545 S
C206 O210 1.275 . S
C206 O211 1.246 1_565 S
O207 C201 1.263 . S
O207 Tb202 2.353 1_565 S
C208 O212 1.245 . S
C208 O213 1.259 . S
C209 O214 1.250 . S
C209 O215 1.263 . S
O210 Tb202 2.427 1_565 S
O210 C206 1.275 . S
O211 Tb202 2.513 . S
O211 C206 1.246 1_545 S
O212 Tb202 2.453 . S
O212 C208 1.245 . S
O213 Tb200 2.343 . S
O213 Tb202 2.596 . S
O213 C208 1.259 . S
O214 Tb202 2.374 . S
O214 C209 1.250 . S
O215 Tb200 2.353 . S
O215 C209 1.263 . S
C216 O217 1.275 . S
C216 O218 1.246 . S
O217 Tb200 2.427 . S
O217 C216 1.275 . S
O218 Tb200 2.513 . S
O218 C216 1.246 . S
C219 O203 1.245 . S
C219 O204 1.259 . S
Tb220 O223 2.453 . S
Tb220 O224 2.596 . S
Tb220 O225 2.374 . S
Tb220 O233 2.343 . S
Tb220 O235 2.353 . S
Tb220 O237 2.427 . S
Tb220 O238 2.513 . S
C221 O225 1.251 . S
C221 O227 1.263 . S
Tb222 O224 2.343 . S
Tb222 O227 2.353 . S
Tb222 O230 2.427 . S
Tb222 O231 2.513 . S
Tb222 O232 2.453 . S
Tb222 O233 2.596 . S
Tb222 O234 2.374 . S
O223 Tb220 2.453 . S
O223 C239 1.245 . S
O224 Tb220 2.596 . S
O224 Tb222 2.343 . S
O224 C239 1.259 . S
O225 Tb220 2.374 . S
O225 C221 1.251 . S
C226 O230 1.275 . S
C226 O231 1.246 . S
O227 C221 1.263 . S
O227 Tb222 2.353 . S
C228 O232 1.245 . S
C228 O233 1.259 . S
C229 O234 1.250 . S
C229 O235 1.263 . S
O230 Tb222 2.427 . S
O230 C226 1.275 . S
O231 Tb222 2.513 . S
O231 C226 1.246 . S
O232 Tb222 2.453 . S
O232 C228 1.245 . S
O233 Tb220 2.343 . S
O233 Tb222 2.596 . S
O233 C228 1.259 . S
O234 Tb222 2.374 . S
O234 C229 1.250 . S
O235 Tb220 2.353 . S
O235 C229 1.263 . S
C236 O237 1.275 . S
C236 O238 1.246 . S
O237 Tb220 2.427 . S
O237 C236 1.275 . S
O238 Tb220 2.513 . S
O238 C236 1.246 . S
C239 O223 1.245 . S
C239 O224 1.259 . S
C240 C241 1.363 . S
C240 C246 1.379 . S
C240 N248 1.356 . S
C241 C240 1.363 . S
C241 C247 1.363 . S
C242 C243 1.363 . S
C242 C247 1.379 . S
C242 N249 1.356 . S
C243 C242 1.363 . S
C243 C246 1.363 . S
N244 C246 1.356 1_545 S
N244 H256 0.984 . S
N244 H257 0.985 . S
N245 C247 1.356 . S
N245 H250 0.984 . S
N245 H251 0.985 . S
C246 C240 1.379 . S
C246 C243 1.363 . S
C246 N244 1.356 1_565 S
C247 C241 1.363 . S
C247 C242 1.379 . S
C247 N245 1.356 . S
N248 C240 1.356 . S
N248 H254 0.984 . S
N248 H255 0.984 . S
N249 C242 1.356 . S
N249 H252 0.984 . S
N249 H253 0.985 . S
H250 N245 0.984 . S
H251 N245 0.985 . S
H252 N249 0.984 . S
H253 N249 0.985 . S
H254 N248 0.984 . S
H255 N248 0.984 . S
H256 N244 0.984 . S
H257 N244 0.985 . S
C258 C259 1.363 . S
C258 C264 1.379 . S
C258 N266 1.356 . S
C259 C258 1.363 . S
C259 C265 1.363 . S
C260 C261 1.363 . S
C260 C265 1.379 . S
C260 N267 1.356 . S
C261 C260 1.363 . S
C261 C264 1.363 . S
N262 C264 1.356 . S
N262 H274 0.984 . S
N262 H275 0.985 . S
N263 C265 1.356 . S
N263 H268 0.984 . S
N263 H269 0.985 . S
C264 C258 1.379 . S
C264 C261 1.363 . S
C264 N262 1.356 . S
C265 C259 1.363 . S
C265 C260 1.379 . S
C265 N263 1.356 . S
N266 C258 1.356 . S
N266 H272 0.984 . S
N266 H273 0.984 . S
N267 C260 1.356 . S
N267 H270 0.984 . S
N267 H271 0.985 . S
H268 N263 0.984 . S
H269 N263 0.985 . S
H270 N267 0.984 . S
H271 N267 0.985 . S
H272 N266 0.984 . S
H273 N266 0.984 . S
H274 N262 0.984 . S
H275 N262 0.985 . S
C276 C277 1.363 . S
C276 C282 1.379 . S
C276 N284 1.356 . S
C277 C276 1.363 . S
C277 C283 1.363 . S
C278 C279 1.363 . S
C278 C283 1.379 . S
C278 N285 1.356 . S
C279 C278 1.363 . S
C279 C282 1.363 . S
N280 C282 1.356 . S
N280 H292 0.984 . S
N280 H293 0.985 . S
N281 C283 1.356 . S
N281 H286 0.984 . S
N281 H287 0.985 . S
C282 C276 1.379 . S
C282 C279 1.363 . S
C282 N280 1.356 . S
C283 C277 1.363 . S
C283 C278 1.379 . S
C283 N281 1.356 . S
N284 C276 1.356 . S
N284 H290 0.984 . S
N284 H291 0.984 . S
N285 C278 1.356 . S
N285 H288 0.984 . S
N285 H289 0.985 . S
H286 N281 0.984 . S
H287 N281 0.985 . S
H288 N285 0.984 . S
H289 N285 0.985 . S
H290 N284 0.984 . S
H291 N284 0.984 . S
H292 N280 0.984 . S
H293 N280 0.985 . S
C294 C295 1.363 . S
C294 C300 1.379 1_545 S
C294 N302 1.356 1_545 S
C295 C294 1.363 . S
C295 C301 1.363 . S
C296 C297 1.363 . S
C296 C301 1.379 . S
C296 N303 1.356 . S
C297 C296 1.363 . S
C297 C300 1.363 1_545 S
N298 C300 1.356 . S
N298 H310 0.984 . S
N298 H311 0.985 . S
N299 C301 1.356 . S
N299 H304 0.984 . S
N299 H305 0.985 . S
C300 C294 1.379 1_565 S
C300 C297 1.363 1_565 S
C300 N298 1.356 . S
C301 C295 1.363 . S
C301 C296 1.379 . S
C301 N299 1.356 . S
N302 C294 1.356 1_565 S
N302 H308 0.984 . S
N302 H309 0.984 1_565 S
N303 C296 1.356 . S
N303 H306 0.984 . S
N303 H307 0.985 . S
H304 N299 0.984 . S
H305 N299 0.985 . S
H306 N303 0.984 . S
H307 N303 0.985 . S
H308 N302 0.984 . S
H309 N302 0.984 1_545 S
H310 N298 0.984 . S
H311 N298 0.985 . S
C312 C313 1.363 . S
C312 C318 1.379 . S
C312 N320 1.356 . S
C313 C312 1.363 . S
C313 C319 1.363 . S
C314 C315 1.363 . S
C314 C319 1.379 . S
C314 N321 1.356 1_556 S
C315 C314 1.363 . S
C315 C318 1.363 . S
N316 C318 1.347 1_554 S
N316 H328 0.981 1_554 S
N316 H329 0.998 . S
N317 C319 1.356 . S
N317 H322 0.984 . S
N317 H323 0.985 . S
C318 C312 1.379 . S
C318 C315 1.363 . S
C318 N316 1.347 1_556 S
C319 C313 1.363 . S
C319 C314 1.379 . S
C319 N317 1.356 . S
N320 C312 1.356 . S
N320 H326 0.984 . S
N320 H327 0.984 . S
N321 C314 1.356 1_554 S
N321 H324 0.984 . S
N321 H325 0.994 . S
H322 N317 0.984 . S
H323 N317 0.985 . S
H324 N321 0.984 . S
H325 N321 0.994 . S
H326 N320 0.984 . S
H327 N320 0.984 . S
H328 N316 0.981 1_556 S
H329 N316 0.998 . S
C330 C331 1.363 . S
C330 C336 1.379 . S
C330 N338 1.356 . S
C331 C330 1.363 . S
C331 C337 1.363 . S
C332 C333 1.363 . S
C332 C337 1.379 . S
C332 N339 1.356 . S
C333 C332 1.363 . S
C333 C336 1.363 . S
N334 C336 1.356 . S
N334 H346 0.984 . S
N334 H347 0.985 . S
N335 C337 1.356 . S
N335 H340 0.984 . S
N335 H341 0.985 . S
C336 C330 1.379 . S
C336 C333 1.363 . S
C336 N334 1.356 . S
C337 C331 1.363 . S
C337 C332 1.379 . S
C337 N335 1.356 . S
N338 C330 1.356 . S
N338 H344 0.984 1_655 S
N338 H345 0.984 1_655 S
N339 C332 1.356 . S
N339 H342 0.984 . S
N339 H343 0.985 . S
H340 N335 0.984 . S
H341 N335 0.985 . S
H342 N339 0.984 . S
H343 N339 0.985 . S
H344 N338 0.984 1_455 S
H345 N338 0.984 1_455 S
H346 N334 0.984 . S
H347 N334 0.985 . S
C348 C349 1.363 . S
C348 C354 1.379 . S
C348 N356 1.356 . S
C349 C348 1.363 . S
C349 C355 1.363 . S
C350 C351 1.363 . S
C350 C355 1.379 . S
C350 N357 1.356 . S
C351 C350 1.363 . S
C351 C354 1.363 . S
N352 C354 1.356 . S
N352 H364 0.984 . S
N352 H365 0.985 . S
N353 C355 1.356 . S
N353 H358 0.984 . S
N353 H359 0.985 . S
C354 C348 1.379 . S
C354 C351 1.363 . S
C354 N352 1.356 . S
C355 C349 1.363 . S
C355 C350 1.379 . S
C355 N353 1.356 . S
N356 C348 1.356 . S
N356 H362 0.984 . S
N356 H363 0.984 . S
N357 C350 1.356 . S
N357 H360 0.984 . S
N357 H361 0.985 . S
H358 N353 0.984 . S
H359 N353 0.985 . S
H360 N357 0.984 . S
H361 N357 0.985 . S
H362 N356 0.984 . S
H363 N356 0.984 . S
H364 N352 0.984 . S
H365 N352 0.985 . S
C366 C367 1.363 . S
C366 C372 1.379 . S
C366 N374 1.356 . S
C367 C366 1.363 . S
C367 C373 1.363 . S
C368 C369 1.363 . S
C368 C373 1.379 . S
C368 N375 1.356 . S
C369 C368 1.363 . S
C369 C372 1.363 . S
N370 C372 1.356 . S
N370 H382 0.984 . S
N370 H383 0.985 . S
N371 C373 1.356 1_565 S
N371 H376 0.984 . S
N371 H377 0.985 . S
C372 C366 1.379 . S
C372 C369 1.363 . S
C372 N370 1.356 . S
C373 C367 1.363 . S
C373 C368 1.379 . S
C373 N371 1.356 1_545 S
N374 C366 1.356 . S
N374 H380 0.984 . S
N374 H381 0.984 . S
N375 C368 1.356 . S
N375 H378 0.984 . S
N375 H379 0.985 1_545 S
H376 N371 0.984 . S
H377 N371 0.985 . S
H378 N375 0.984 . S
H379 N375 0.985 1_565 S
H380 N374 0.984 . S
H381 N374 0.984 . S
H382 N370 0.984 . S
H383 N370 0.985 . S
C384 C385 1.363 . S
C384 C390 1.379 . S
C384 N392 1.356 . S
C385 C384 1.363 . S
C385 C391 1.363 . S
C386 C387 1.363 . S
C386 C391 1.379 . S
C386 N393 1.356 . S
C387 C386 1.363 . S
C387 C390 1.363 . S
N388 C390 1.356 . S
N388 H400 0.984 . S
N388 H401 0.985 . S
N389 C391 1.356 . S
N389 H394 0.984 . S
N389 H395 0.985 . S
C390 C384 1.379 . S
C390 C387 1.363 . S
C390 N388 1.356 . S
C391 C385 1.363 . S
C391 C386 1.379 . S
C391 N389 1.356 . S
N392 C384 1.356 . S
N392 H398 0.984 . S
N392 H399 0.984 . S
N393 C386 1.356 . S
N393 H396 0.984 . S
N393 H397 0.985 . S
H394 N389 0.984 . S
H395 N389 0.985 . S
H396 N393 0.984 . S
H397 N393 0.985 . S
H398 N392 0.984 . S
H399 N392 0.984 . S
H400 N388 0.984 . S
H401 N388 0.985 . S
C402 C403 1.363 . S
C402 C408 1.379 . S
C402 N410 1.356 . S
C403 C402 1.363 . S
C403 C409 1.363 . S
C404 C405 1.363 . S
C404 C409 1.379 . S
C404 N411 1.341 1_554 S
C405 C404 1.363 . S
C405 C408 1.363 . S
N406 C408 1.356 1_556 S
N406 H418 0.991 . S
N406 H419 0.985 . S
N407 C409 1.356 . S
N407 H412 0.984 . S
N407 H413 0.985 . S
C408 C402 1.379 . S
C408 C405 1.363 . S
C408 N406 1.356 1_554 S
C409 C403 1.363 . S
C409 C404 1.379 . S
C409 N407 1.356 . S
N410 C402 1.356 . S
N410 H416 0.984 . S
N410 H417 0.984 . S
N411 C404 1.341 1_556 S
N411 H414 1.005 . S
N411 H415 0.979 1_556 S
H412 N407 0.984 . S
H413 N407 0.985 . S
H414 N411 1.005 . S
H415 N411 0.979 1_554 S
H416 N410 0.984 . S
H417 N410 0.984 . S
H418 N406 0.991 . S
H419 N406 0.985 . S
C420 C421 1.363 . S
C420 C426 1.379 . S
C420 N428 1.356 . S
C421 C420 1.363 . S
C421 C427 1.363 . S
C422 C423 1.363 . S
C422 C427 1.379 . S
C422 N429 1.356 . S
C423 C422 1.363 . S
C423 C426 1.363 . S
N424 C426 1.356 1_545 S
N424 H436 0.984 . S
N424 H437 0.985 . S
N425 C427 1.356 . S
N425 H430 0.984 . S
N425 H431 0.985 . S
C426 C420 1.379 . S
C426 C423 1.363 . S
C426 N424 1.356 1_565 S
C427 C421 1.363 . S
C427 C422 1.379 . S
C427 N425 1.356 . S
N428 C420 1.356 . S
N428 H434 0.984 1_565 S
N428 H435 0.984 . S
N429 C422 1.356 . S
N429 H432 0.984 . S
N429 H433 0.985 . S
H430 N425 0.984 . S
H431 N425 0.985 . S
H432 N429 0.984 . S
H433 N429 0.985 . S
H434 N428 0.984 1_545 S
H435 N428 0.984 . S
H436 N424 0.984 . S
H437 N424 0.985 . S
C438 C439 1.363 . S
C438 C444 1.379 . S
C438 N446 1.356 . S
C439 C438 1.363 . S
C439 C445 1.363 . S
C440 C441 1.363 . S
C440 C445 1.379 . S
C440 N447 1.356 . S
C441 C440 1.363 . S
C441 C444 1.363 . S
N442 C444 1.356 . S
N442 H454 0.984 . S
N442 H455 0.985 . S
N443 C445 1.356 . S
N443 H448 0.984 . S
N443 H449 0.985 . S
C444 C438 1.379 . S
C444 C441 1.363 . S
C444 N442 1.356 . S
C445 C439 1.363 . S
C445 C440 1.379 . S
C445 N443 1.356 . S
N446 C438 1.356 . S
N446 H452 0.984 . S
N446 H453 0.984 . S
N447 C440 1.356 . S
N447 H450 0.984 . S
N447 H451 0.985 . S
H448 N443 0.984 . S
H449 N443 0.985 . S
H450 N447 0.984 . S
H451 N447 0.985 . S
H452 N446 0.984 . S
H453 N446 0.984 . S
H454 N442 0.984 . S
H455 N442 0.985 . S
C456 C457 1.363 . S
C456 C462 1.379 . S
C456 N464 1.356 . S
C457 C456 1.363 . S
C457 C463 1.363 . S
C458 C459 1.363 . S
C458 C463 1.379 . S
C458 N465 1.356 . S
C459 C458 1.363 . S
C459 C462 1.363 . S
N460 C462 1.356 . S
N460 H472 0.984 . S
N460 H473 0.985 . S
N461 C463 1.356 . S
N461 H466 0.984 . S
N461 H467 0.985 . S
C462 C456 1.379 . S
C462 C459 1.363 . S
C462 N460 1.356 . S
C463 C457 1.363 . S
C463 C458 1.379 . S
C463 N461 1.356 . S
N464 C456 1.356 . S
N464 H470 0.984 . S
N464 H471 0.984 . S
N465 C458 1.356 . S
N465 H468 0.984 1_565 S
N465 H469 0.985 . S
H466 N461 0.984 . S
H467 N461 0.985 . S
H468 N465 0.984 1_545 S
H469 N465 0.985 . S
H470 N464 0.984 . S
H471 N464 0.984 . S
H472 N460 0.984 . S
H473 N460 0.985 . S
C474 C475 1.363 . S
C474 C480 1.379 . S
C474 N482 1.356 . S
C475 C474 1.363 . S
C475 C481 1.363 . S
C476 C477 1.363 . S
C476 C481 1.379 . S
C476 N483 1.356 . S
C477 C476 1.363 . S
C477 C480 1.363 . S
N478 C480 1.356 . S
N478 H490 0.984 . S
N478 H491 0.985 . S
N479 C481 1.356 . S
N479 H484 0.984 . S
N479 H485 0.985 . S
C480 C474 1.379 . S
C480 C477 1.363 . S
C480 N478 1.356 . S
C481 C475 1.363 . S
C481 C476 1.379 . S
C481 N479 1.356 . S
N482 C474 1.356 . S
N482 H488 0.984 . S
N482 H489 0.984 . S
N483 C476 1.356 . S
N483 H486 0.984 . S
N483 H487 0.985 . S
H484 N479 0.984 . S
H485 N479 0.985 . S
H486 N483 0.984 . S
H487 N483 0.985 . S
H488 N482 0.984 . S
H489 N482 0.984 . S
H490 N478 0.984 . S
H491 N478 0.985 . S
C492 C493 1.363 . S
C492 C498 1.379 . S
C492 N500 1.356 . S
C493 C492 1.363 . S
C493 C499 1.363 . S
C494 C495 1.363 . S
C494 C499 1.379 . S
C494 N501 1.356 . S
C495 C494 1.363 . S
C495 C498 1.363 . S
N496 C498 1.356 . S
N496 H508 0.984 . S
N496 H509 0.985 . S
N497 C499 1.356 . S
N497 H502 0.984 . S
N497 H503 0.985 . S
C498 C492 1.379 . S
C498 C495 1.363 . S
C498 N496 1.356 . S
C499 C493 1.363 . S
C499 C494 1.379 . S
C499 N497 1.356 . S
N500 C492 1.356 . S
N500 H506 0.984 . S
N500 H507 0.984 . S
N501 C494 1.356 . S
N501 H504 0.984 1_455 S
N501 H505 0.985 1_455 S
H502 N497 0.984 . S
H503 N497 0.985 . S
H504 N501 0.984 1_655 S
H505 N501 0.985 1_655 S
H506 N500 0.984 . S
H507 N500 0.984 . S
H508 N496 0.984 . S
H509 N496 0.985 . S
C510 C511 1.363 . S
C510 C516 1.379 . S
C510 N518 1.356 . S
C511 C510 1.363 . S
C511 C517 1.363 . S
C512 C513 1.363 . S
C512 C517 1.379 . S
C512 N519 1.356 . S
C513 C512 1.363 . S
C513 C516 1.363 . S
N514 C516 1.356 . S
N514 H526 0.984 1_545 S
N514 H527 0.985 1_545 S
N515 C517 1.356 . S
N515 H520 0.984 . S
N515 H521 0.985 . S
C516 C510 1.379 . S
C516 C513 1.363 . S
C516 N514 1.356 . S
C517 C511 1.363 . S
C517 C512 1.379 . S
C517 N515 1.356 . S
N518 C510 1.356 . S
N518 H524 0.984 . S
N518 H525 0.984 . S
N519 C512 1.356 . S
N519 H522 0.984 . S
N519 H523 0.985 . S
H520 N515 0.984 . S
H521 N515 0.985 . S
H522 N519 0.984 . S
H523 N519 0.985 . S
H524 N518 0.984 . S
H525 N518 0.984 . S
H526 N514 0.984 1_565 S
H527 N514 0.985 1_565 S
C528 C529 1.363 . S
C528 C534 1.379 . S
C528 N536 1.356 . S
C529 C528 1.363 . S
C529 C535 1.363 . S
C530 C531 1.363 1_554 S
C530 C535 1.379 1_554 S
C530 N537 1.356 . S
C531 C530 1.363 1_556 S
C531 C534 1.363 . S
N532 C534 1.356 . S
N532 H544 0.984 . S
N532 H545 0.985 . S
N533 C535 1.356 1_554 S
N533 H538 0.984 1_554 S
N533 H539 0.985 . S
C534 C528 1.379 . S
C534 C531 1.363 . S
C534 N532 1.356 . S
C535 C529 1.363 . S
C535 C530 1.379 1_556 S
C535 N533 1.356 1_556 S
N536 C528 1.356 . S
N536 H542 0.984 . S
N536 H543 0.984 . S
N537 C530 1.356 . S
N537 H540 0.984 . S
N537 H541 0.985 . S
H538 N533 0.984 1_556 S
H539 N533 0.985 . S
H540 N537 0.984 . S
H541 N537 0.985 . S
H542 N536 0.984 . S
H543 N536 0.984 . S
H544 N532 0.984 . S
H545 N532 0.985 . S
C546 C547 1.363 . S
C546 C552 1.379 . S
C546 N554 1.356 . S
C547 C546 1.363 . S
C547 C553 1.363 . S
C548 C549 1.363 . S
C548 C553 1.379 . S
C548 N555 1.356 . S
C549 C548 1.363 . S
C549 C552 1.363 . S
N550 C552 1.356 . S
N550 H562 0.984 . S
N550 H563 0.985 . S
N551 C553 1.356 . S
N551 H556 0.984 . S
N551 H557 0.985 . S
C552 C546 1.379 . S
C552 C549 1.363 . S
C552 N550 1.356 . S
C553 C547 1.363 . S
C553 C548 1.379 . S
C553 N551 1.356 . S
N554 C546 1.356 . S
N554 H560 0.984 . S
N554 H561 0.984 . S
N555 C548 1.356 . S
N555 H558 0.984 . S
N555 H559 0.985 . S
H556 N551 0.984 . S
H557 N551 0.985 . S
H558 N555 0.984 . S
H559 N555 0.985 . S
H560 N554 0.984 . S
H561 N554 0.984 . S
H562 N550 0.984 . S
H563 N550 0.985 . S
C564 C565 1.363 . S
C564 C570 1.379 . S
C564 N572 1.356 . S
C565 C564 1.363 . S
C565 C571 1.363 . S
C566 C567 1.363 . S
C566 C571 1.379 . S
C566 N573 1.356 . S
C567 C566 1.363 . S
C567 C570 1.363 . S
N568 C570 1.356 . S
N568 H580 0.984 . S
N568 H581 0.985 . S
N569 C571 1.356 . S
N569 H574 0.984 . S
N569 H575 0.985 . S
C570 C564 1.379 . S
C570 C567 1.363 . S
C570 N568 1.356 . S
C571 C565 1.363 . S
C571 C566 1.379 . S
C571 N569 1.356 . S
N572 C564 1.356 . S
N572 H578 0.984 1_455 S
N572 H579 0.984 1_455 S
N573 C566 1.356 . S
N573 H576 0.984 . S
N573 H577 0.985 . S
H574 N569 0.984 . S
H575 N569 0.985 . S
H576 N573 0.984 . S
H577 N573 0.985 . S
H578 N572 0.984 1_655 S
H579 N572 0.984 1_655 S
H580 N568 0.984 . S
H581 N568 0.985 . S
C582 C583 1.363 . S
C582 C588 1.379 . S
C582 N590 1.356 . S
C583 C582 1.363 . S
C583 C589 1.363 . S
C584 C585 1.363 . S
C584 C589 1.379 . S
C584 N591 1.356 . S
C585 C584 1.363 . S
C585 C588 1.363 . S
N586 C588 1.356 . S
N586 H598 0.984 . S
N586 H599 0.985 . S
N587 C589 1.356 . S
N587 H592 0.984 . S
N587 H593 0.985 . S
C588 C582 1.379 . S
C588 C585 1.363 . S
C588 N586 1.356 . S
C589 C583 1.363 . S
C589 C584 1.379 . S
C589 N587 1.356 . S
N590 C582 1.356 . S
N590 H596 0.984 . S
N590 H597 0.984 . S
N591 C584 1.356 . S
N591 H594 0.984 . S
N591 H595 0.985 . S
H592 N587 0.984 . S
H593 N587 0.985 . S
H594 N591 0.984 . S
H595 N591 0.985 . S
H596 N590 0.984 . S
H597 N590 0.984 . S
H598 N586 0.984 . S
H599 N586 0.985 . S
C600 C601 1.363 . S
C600 C606 1.379 . S
C600 N608 1.356 . S
C601 C600 1.363 . S
C601 C607 1.363 . S
C602 C603 1.363 . S
C602 C607 1.379 . S
C602 N609 1.356 . S
C603 C602 1.363 . S
C603 C606 1.363 . S
N604 C606 1.356 . S
N604 H616 0.984 . S
N604 H617 0.985 . S
N605 C607 1.356 . S
N605 H610 0.984 . S
N605 H611 0.985 . S
C606 C600 1.379 . S
C606 C603 1.363 . S
C606 N604 1.356 . S
C607 C601 1.363 . S
C607 C602 1.379 . S
C607 N605 1.356 . S
N608 C600 1.356 . S
N608 H614 0.984 . S
N608 H615 0.984 . S
N609 C602 1.356 . S
N609 H612 0.984 . S
N609 H613 0.985 . S
H610 N605 0.984 . S
H611 N605 0.985 . S
H612 N609 0.984 . S
H613 N609 0.985 . S
H614 N608 0.984 . S
H615 N608 0.984 . S
H616 N604 0.984 . S
H617 N604 0.985 . S
C618 C619 1.363 1_556 S
C618 C624 1.379 . S
C618 N626 1.356 . S
C619 C618 1.363 1_554 S
C619 C625 1.363 . S
C620 C621 1.363 . S
C620 C625 1.379 . S
C620 N627 1.356 . S
C621 C620 1.363 . S
C621 C624 1.363 1_554 S
N622 C624 1.356 . S
N622 H634 0.984 . S
N622 H635 0.985 . S
N623 C625 1.356 . S
N623 H628 0.984 . S
N623 H629 0.985 . S
C624 C618 1.379 . S
C624 C621 1.363 1_556 S
C624 N622 1.356 . S
C625 C619 1.363 . S
C625 C620 1.379 . S
C625 N623 1.356 . S
N626 C618 1.356 . S
N626 H632 0.984 . S
N626 H633 0.984 . S
N627 C620 1.356 . S
N627 H630 0.984 . S
N627 H631 0.985 . S
H628 N623 0.984 . S
H629 N623 0.985 . S
H630 N627 0.984 . S
H631 N627 0.985 . S
H632 N626 0.984 . S
H633 N626 0.984 . S
H634 N622 0.984 . S
H635 N622 0.985 . S
C636 C637 1.363 . S
C636 C642 1.379 . S
C636 N644 1.356 . S
C637 C636 1.363 . S
C637 C643 1.363 . S
C638 C639 1.363 . S
C638 C643 1.379 . S
C638 N645 1.356 . S
C639 C638 1.363 . S
C639 C642 1.363 . S
N640 C642 1.356 . S
N640 H652 0.984 . S
N640 H653 0.985 . S
N641 C643 1.356 . S
N641 H646 0.984 . S
N641 H647 0.985 . S
C642 C636 1.379 . S
C642 C639 1.363 . S
C642 N640 1.356 . S
C643 C637 1.363 . S
C643 C638 1.379 . S
C643 N641 1.356 . S
N644 C636 1.356 . S
N644 H650 0.984 . S
N644 H651 0.984 . S
N645 C638 1.356 . S
N645 H648 0.984 . S
N645 H649 0.985 . S
H646 N641 0.984 . S
H647 N641 0.985 . S
H648 N645 0.984 . S
H649 N645 0.985 . S
H650 N644 0.984 . S
H651 N644 0.984 . S
H652 N640 0.984 . S
H653 N640 0.985 . S
C654 C655 1.363 . S
C654 C660 1.379 . S
C654 N662 1.356 . S
C655 C654 1.363 . S
C655 C661 1.363 . S
C656 C657 1.363 . S
C656 C661 1.379 . S
C656 N663 1.356 . S
C657 C656 1.363 . S
C657 C660 1.363 . S
N658 C660 1.356 . S
N658 H670 0.984 . S
N658 H671 0.985 . S
N659 C661 1.356 . S
N659 H664 0.984 . S
N659 H665 0.985 . S
C660 C654 1.379 . S
C660 C657 1.363 . S
C660 N658 1.356 . S
C661 C655 1.363 . S
C661 C656 1.379 . S
C661 N659 1.356 . S
N662 C654 1.356 . S
N662 H668 0.984 . S
N662 H669 0.984 . S
N663 C656 1.356 . S
N663 H666 0.984 . S
N663 H667 0.985 . S
H664 N659 0.984 . S
H665 N659 0.985 . S
H666 N663 0.984 . S
H667 N663 0.985 . S
H668 N662 0.984 . S
H669 N662 0.984 . S
H670 N658 0.984 . S
H671 N658 0.985 . S
C672 C673 1.363 . S
C672 C678 1.379 . S
C672 N680 1.356 . S
C673 C672 1.363 . S
C673 C679 1.363 . S
C674 C675 1.363 . S
C674 C679 1.379 . S
C674 N681 1.356 . S
C675 C674 1.363 . S
C675 C678 1.363 . S
N676 C678 1.356 . S
N676 H688 0.984 . S
N676 H689 0.985 . S
N677 C679 1.356 . S
N677 H682 0.984 . S
N677 H683 0.985 . S
C678 C672 1.379 . S
C678 C675 1.363 . S
C678 N676 1.356 . S
C679 C673 1.363 . S
C679 C674 1.379 . S
C679 N677 1.356 . S
N680 C672 1.356 . S
N680 H686 0.984 . S
N680 H687 0.984 . S
N681 C674 1.356 . S
N681 H684 0.984 . S
N681 H685 0.985 . S
H682 N677 0.984 . S
H683 N677 0.985 . S
H684 N681 0.984 . S
H685 N681 0.985 . S
H686 N680 0.984 . S
H687 N680 0.984 . S
H688 N676 0.984 . S
H689 N676 0.985 . S
C690 C691 1.363 . S
C690 C696 1.379 . S
C690 N698 1.356 . S
C691 C690 1.363 . S
C691 C697 1.363 . S
C692 C693 1.363 . S
C692 C697 1.379 . S
C692 N699 1.356 . S
C693 C692 1.363 . S
C693 C696 1.363 . S
N694 C696 1.356 . S
N694 H706 0.984 . S
N694 H707 0.985 . S
N695 C697 1.356 . S
N695 H700 0.984 . S
N695 H701 0.985 . S
C696 C690 1.379 . S
C696 C693 1.363 . S
C696 N694 1.356 . S
C697 C691 1.363 . S
C697 C692 1.379 . S
C697 N695 1.356 . S
N698 C690 1.356 . S
N698 H704 0.984 . S
N698 H705 0.984 . S
N699 C692 1.356 . S
N699 H702 0.984 . S
N699 H703 0.985 . S
H700 N695 0.984 . S
H701 N695 0.985 . S
H702 N699 0.984 . S
H703 N699 0.985 . S
H704 N698 0.984 . S
H705 N698 0.984 . S
H706 N694 0.984 . S
H707 N694 0.985 . S
C708 C709 1.363 . S
C708 C714 1.379 . S
C708 N716 1.356 . S
C709 C708 1.363 . S
C709 C715 1.363 . S
C710 C711 1.363 . S
C710 C715 1.379 . S
C710 N717 1.356 . S
C711 C710 1.363 . S
C711 C714 1.363 . S
N712 C714 1.356 . S
N712 H724 0.984 . S
N712 H725 0.985 . S
N713 C715 1.356 . S
N713 H718 0.984 . S
N713 H719 0.985 . S
C714 C708 1.379 . S
C714 C711 1.363 . S
C714 N712 1.356 . S
C715 C709 1.363 . S
C715 C710 1.379 . S
C715 N713 1.356 . S
N716 C708 1.356 . S
N716 H722 0.984 . S
N716 H723 0.984 . S
N717 C710 1.356 . S
N717 H720 0.984 . S
N717 H721 0.985 . S
H718 N713 0.984 . S
H719 N713 0.985 . S
H720 N717 0.984 . S
H721 N717 0.985 . S
H722 N716 0.984 . S
H723 N716 0.984 . S
H724 N712 0.984 . S
H725 N712 0.985 . S
C726 C727 1.363 . S
C726 C732 1.379 . S
C726 N734 1.356 . S
C727 C726 1.363 . S
C727 C733 1.363 . S
C728 C729 1.363 . S
C728 C733 1.379 . S
C728 N735 1.356 . S
C729 C728 1.363 . S
C729 C732 1.363 . S
N730 C732 1.356 . S
N730 H742 0.984 . S
N730 H743 0.985 . S
N731 C733 1.356 . S
N731 H736 0.984 . S
N731 H737 0.985 . S
C732 C726 1.379 . S
C732 C729 1.363 . S
C732 N730 1.356 . S
C733 C727 1.363 . S
C733 C728 1.379 . S
C733 N731 1.356 . S
N734 C726 1.356 . S
N734 H740 0.984 . S
N734 H741 0.984 . S
N735 C728 1.356 . S
N735 H738 0.984 . S
N735 H739 0.985 . S
H736 N731 0.984 . S
H737 N731 0.985 . S
H738 N735 0.984 . S
H739 N735 0.985 . S
H740 N734 0.984 . S
H741 N734 0.984 . S
H742 N730 0.984 . S
H743 N730 0.985 . S
C744 C745 1.363 . S
C744 C750 1.379 . S
C744 N752 1.356 . S
C745 C744 1.363 . S
C745 C751 1.363 . S
C746 C747 1.363 . S
C746 C751 1.379 . S
C746 N753 1.356 . S
C747 C746 1.363 . S
C747 C750 1.363 . S
N748 C750 1.356 . S
N748 H760 0.984 . S
N748 H761 0.985 . S
N749 C751 1.356 . S
N749 H754 0.984 . S
N749 H755 0.985 . S
C750 C744 1.379 . S
C750 C747 1.363 . S
C750 N748 1.356 . S
C751 C745 1.363 . S
C751 C746 1.379 . S
C751 N749 1.356 . S
N752 C744 1.356 . S
N752 H758 0.984 . S
N752 H759 0.984 . S
N753 C746 1.356 . S
N753 H756 0.984 . S
N753 H757 0.985 . S
H754 N749 0.984 . S
H755 N749 0.985 . S
H756 N753 0.984 . S
H757 N753 0.985 . S
H758 N752 0.984 . S
H759 N752 0.984 . S
H760 N748 0.984 . S
H761 N748 0.985 . S
C762 C763 1.363 . S
C762 C768 1.379 . S
C762 N770 1.356 . S
C763 C762 1.363 . S
C763 C769 1.363 . S
C764 C765 1.363 . S
C764 C769 1.379 . S
C764 N771 1.356 . S
C765 C764 1.363 . S
C765 C768 1.363 . S
N766 C768 1.356 . S
N766 H778 0.984 . S
N766 H779 0.985 . S
N767 C769 1.356 . S
N767 H772 0.984 . S
N767 H773 0.985 . S
C768 C762 1.379 . S
C768 C765 1.363 . S
C768 N766 1.356 . S
C769 C763 1.363 . S
C769 C764 1.379 . S
C769 N767 1.356 . S
N770 C762 1.356 . S
N770 H776 0.984 . S
N770 H777 0.984 . S
N771 C764 1.356 . S
N771 H774 0.984 . S
N771 H775 0.985 . S
H772 N767 0.984 . S
H773 N767 0.985 . S
H774 N771 0.984 . S
H775 N771 0.985 . S
H776 N770 0.984 . S
H777 N770 0.984 . S
H778 N766 0.984 . S
H779 N766 0.985 . S
C780 C781 1.363 . S
C780 C786 1.379 . S
C780 N788 1.356 . S
C781 C780 1.363 . S
C781 C787 1.363 . S
C782 C783 1.363 . S
C782 C787 1.379 . S
C782 N789 1.356 . S
C783 C782 1.363 . S
C783 C786 1.363 . S
N784 C786 1.356 . S
N784 H796 0.984 . S
N784 H797 0.985 . S
N785 C787 1.356 . S
N785 H790 0.984 . S
N785 H791 0.985 . S
C786 C780 1.379 . S
C786 C783 1.363 . S
C786 N784 1.356 . S
C787 C781 1.363 . S
C787 C782 1.379 . S
C787 N785 1.356 . S
N788 C780 1.356 . S
N788 H794 0.984 . S
N788 H795 0.984 . S
N789 C782 1.356 . S
N789 H792 0.984 . S
N789 H793 0.985 . S
H790 N785 0.984 . S
H791 N785 0.985 . S
H792 N789 0.984 . S
H793 N789 0.985 . S
H794 N788 0.984 . S
H795 N788 0.984 . S
H796 N784 0.984 . S
H797 N784 0.985 . S
C798 C799 1.363 . S
C798 C804 1.379 . S
C798 N806 1.356 . S
C799 C798 1.363 . S
C799 C805 1.363 . S
C800 C801 1.363 . S
C800 C805 1.379 . S
C800 N807 1.356 . S
C801 C800 1.363 . S
C801 C804 1.363 . S
N802 C804 1.356 . S
N802 H814 0.984 . S
N802 H815 0.985 . S
N803 C805 1.356 . S
N803 H808 0.984 . S
N803 H809 0.985 . S
C804 C798 1.379 . S
C804 C801 1.363 . S
C804 N802 1.356 . S
C805 C799 1.363 . S
C805 C800 1.379 . S
C805 N803 1.356 . S
N806 C798 1.356 . S
N806 H812 0.984 . S
N806 H813 0.984 . S
N807 C800 1.356 . S
N807 H810 0.984 . S
N807 H811 0.985 . S
H808 N803 0.984 . S
H809 N803 0.985 . S
H810 N807 0.984 . S
H811 N807 0.985 . S
H812 N806 0.984 . S
H813 N806 0.984 . S
H814 N802 0.984 . S
H815 N802 0.985 . S
C816 C817 1.363 . S
C816 C822 1.379 . S
C816 N824 1.356 . S
C817 C816 1.363 . S
C817 C823 1.363 . S
C818 C819 1.363 . S
C818 C823 1.379 . S
C818 N825 1.356 . S
C819 C818 1.363 . S
C819 C822 1.363 . S
N820 C822 1.356 . S
N820 H832 0.984 . S
N820 H833 0.985 . S
N821 C823 1.356 . S
N821 H826 0.984 . S
N821 H827 0.985 . S
C822 C816 1.379 . S
C822 C819 1.363 . S
C822 N820 1.356 . S
C823 C817 1.363 . S
C823 C818 1.379 . S
C823 N821 1.356 . S
N824 C816 1.356 . S
N824 H830 0.984 . S
N824 H831 0.984 . S
N825 C818 1.356 . S
N825 H828 0.984 . S
N825 H829 0.985 . S
H826 N821 0.984 . S
H827 N821 0.985 . S
H828 N825 0.984 . S
H829 N825 0.985 . S
H830 N824 0.984 . S
H831 N824 0.984 . S
H832 N820 0.984 . S
H833 N820 0.985 . S
C834 C835 1.363 . S
C834 C840 1.379 . S
C834 N842 1.356 . S
C835 C834 1.363 . S
C835 C841 1.363 . S
C836 C837 1.363 . S
C836 C841 1.379 . S
C836 N843 1.356 . S
C837 C836 1.363 . S
C837 C840 1.363 . S
N838 C840 1.356 . S
N838 H850 0.984 . S
N838 H851 0.985 . S
N839 C841 1.356 . S
N839 H844 0.984 . S
N839 H845 0.985 . S
C840 C834 1.379 . S
C840 C837 1.363 . S
C840 N838 1.356 . S
C841 C835 1.363 . S
C841 C836 1.379 . S
C841 N839 1.356 . S
N842 C834 1.356 . S
N842 H848 0.984 . S
N842 H849 0.984 . S
N843 C836 1.356 . S
N843 H846 0.984 . S
N843 H847 0.985 . S
H844 N839 0.984 . S
H845 N839 0.985 . S
H846 N843 0.984 . S
H847 N843 0.985 . S
H848 N842 0.984 . S
H849 N842 0.984 . S
H850 N838 0.984 . S
H851 N838 0.985 . S
C852 C853 1.363 . S
C852 C858 1.379 . S
C852 N860 1.356 . S
C853 C852 1.363 . S
C853 C859 1.363 . S
C854 C855 1.363 . S
C854 C859 1.379 . S
C854 N861 1.356 . S
C855 C854 1.363 . S
C855 C858 1.363 . S
N856 C858 1.356 . S
N856 H868 0.984 . S
N856 H869 0.985 . S
N857 C859 1.356 . S
N857 H862 0.984 . S
N857 H863 0.985 . S
C858 C852 1.379 . S
C858 C855 1.363 . S
C858 N856 1.356 . S
C859 C853 1.363 . S
C859 C854 1.379 . S
C859 N857 1.356 . S
N860 C852 1.356 . S
N860 H866 0.984 . S
N860 H867 0.984 . S
N861 C854 1.356 . S
N861 H864 0.984 . S
N861 H865 0.985 . S
H862 N857 0.984 . S
H863 N857 0.985 . S
H864 N861 0.984 . S
H865 N861 0.985 . S
H866 N860 0.984 . S
H867 N860 0.984 . S
H868 N856 0.984 . S
H869 N856 0.985 . S
C870 C871 1.363 . S
C870 C876 1.379 . S
C870 N878 1.356 . S
C871 C870 1.363 . S
C871 C877 1.363 . S
C872 C873 1.363 . S
C872 C877 1.379 . S
C872 N879 1.356 . S
C873 C872 1.363 . S
C873 C876 1.363 . S
N874 C876 1.356 . S
N874 H886 0.984 . S
N874 H887 0.985 . S
N875 C877 1.356 . S
N875 H880 0.984 . S
N875 H881 0.985 . S
C876 C870 1.379 . S
C876 C873 1.363 . S
C876 N874 1.356 . S
C877 C871 1.363 . S
C877 C872 1.379 . S
C877 N875 1.356 . S
N878 C870 1.356 . S
N878 H884 0.984 . S
N878 H885 0.984 . S
N879 C872 1.356 . S
N879 H882 0.984 . S
N879 H883 0.985 . S
H880 N875 0.984 . S
H881 N875 0.985 . S
H882 N879 0.984 . S
H883 N879 0.985 . S
H884 N878 0.984 . S
H885 N878 0.984 . S
H886 N874 0.984 . S
H887 N874 0.985 . S
C241 C116 1.743 . S
C243 C19 1.701 1_565 S
C259 C39 1.701 . S
C261 C16 1.743 . S
C277 C59 1.701 1_455 S
C279 C36 1.743 . S
C295 C56 1.743 . S
C297 C79 1.701 1_545 S
C313 C76 1.743 . S
C315 C99 1.701 1_556 S
C331 C119 1.701 1_655 S
C333 C96 1.743 . S
C349 C156 1.743 . S
C351 C139 1.701 1_455 S
C367 C159 1.701 1_545 S
C369 C176 1.743 . S
C385 C196 1.743 . S
C387 C179 1.701 . S
C403 C216 1.743 . S
C405 C199 1.701 1_654 S
C421 C236 1.743 . S
C423 C219 1.701 1_565 S
C439 C136 1.743 . S
C441 C239 1.701 . S
C457 C229 1.415 . S
C459 C6 1.418 . S
C475 C26 1.417 . S
C477 C129 1.415 . S
C493 C149 1.415 . S
C495 C46 1.417 . S
C511 C169 1.415 . S
C513 C66 1.418 . S
C529 C189 1.415 . S
C531 C86 1.418 1_556 S
C547 C106 1.417 . S
C549 C209 1.415 . S
C565 C126 1.418 . S
C567 C29 1.415 . S
C583 C146 1.417 . S
C585 C49 1.415 . S
C601 C69 1.415 . S
C603 C166 1.417 . S
C619 C89 1.415 . S
C621 C186 1.418 1_554 S
C637 C206 1.417 . S
C639 C109 1.415 . S
C655 C226 1.418 . S
C657 C9 1.415 . S
C673 C121 1.766 . S
C675 C1 1.765 . S
C691 C21 1.766 . S
C693 C141 1.766 . S
C709 C161 1.766 . S
C711 C41 1.766 . S
C727 C61 1.766 . S
C729 C181 1.766 . S
C745 C201 1.766 . S
C747 C81 1.766 . S
C763 C221 1.766 . S
C765 C101 1.766 . S
C781 C128 1.774 . S
C783 C8 1.774 . S
C799 C148 1.774 . S
C801 C28 1.774 . S
C817 C168 1.774 . S
C819 C48 1.774 . S
C835 C68 1.774 . S
C837 C188 1.774 . S
C853 C208 1.774 . S
C855 C88 1.774 . S
C871 C228 1.774 . S
C873 C108 1.774 . S
