# Generated by pormake.
# Topology zga, (5)-cn, num edge types: 1
# Building blocks:
#     Node 0, Type 0, BuildingBlock: XOMCOT_clean_sbu_0, # of connection points: 5
#     Node 1, Type 0, BuildingBlock: XOMCOT_clean_sbu_0, # of connection points: 5
#     Node 2, Type 0, BuildingBlock: XOMCOT_clean_sbu_0, # of connection points: 5
#     Node 3, Type 0, BuildingBlock: XOMCOT_clean_sbu_0, # of connection points: 5
#     Node 4, Type 0, BuildingBlock: XOMCOT_clean_sbu_0, # of connection points: 5
#     Node 5, Type 0, BuildingBlock: XOMCOT_clean_sbu_0, # of connection points: 5
#     Node 6, Type 0, BuildingBlock: XOMCOT_clean_sbu_0, # of connection points: 5
#     Node 7, Type 0, BuildingBlock: XOMCOT_clean_sbu_0, # of connection points: 5
#     Node 8, Type 0, BuildingBlock: XOMCOT_clean_sbu_0, # of connection points: 5
#     Node 9, Type 0, BuildingBlock: XOMCOT_clean_sbu_0, # of connection points: 5
#     Node 10, Type 0, BuildingBlock: XOMCOT_clean_sbu_0, # of connection points: 5
#     Node 11, Type 0, BuildingBlock: XOMCOT_clean_sbu_0, # of connection points: 5
#     Node 12, Type 0, BuildingBlock: XOMCOT_clean_sbu_0, # of connection points: 5
#     Node 13, Type 0, BuildingBlock: XOMCOT_clean_sbu_0, # of connection points: 5
#     Node 14, Type 0, BuildingBlock: XOMCOT_clean_sbu_0, # of connection points: 5
#     Node 15, Type 0, BuildingBlock: XOMCOT_clean_sbu_0, # of connection points: 5
#     Edge 16, Type (0, 0), BuildingBlock: AJUNOK_clean_linker_0, # of connection points: 2
#     Edge 17, Type (0, 0), BuildingBlock: AJUNOK_clean_linker_0, # of connection points: 2
#     Edge 18, Type (0, 0), BuildingBlock: AJUNOK_clean_linker_0, # of connection points: 2
#     Edge 19, Type (0, 0), BuildingBlock: AJUNOK_clean_linker_0, # of connection points: 2
#     Edge 20, Type (0, 0), BuildingBlock: AJUNOK_clean_linker_0, # of connection points: 2
#     Edge 21, Type (0, 0), BuildingBlock: AJUNOK_clean_linker_0, # of connection points: 2
#     Edge 22, Type (0, 0), BuildingBlock: AJUNOK_clean_linker_0, # of connection points: 2
#     Edge 23, Type (0, 0), BuildingBlock: AJUNOK_clean_linker_0, # of connection points: 2
#     Edge 24, Type (0, 0), BuildingBlock: AJUNOK_clean_linker_0, # of connection points: 2
#     Edge 25, Type (0, 0), BuildingBlock: AJUNOK_clean_linker_0, # of connection points: 2
#     Edge 26, Type (0, 0), BuildingBlock: AJUNOK_clean_linker_0, # of connection points: 2
#     Edge 27, Type (0, 0), BuildingBlock: AJUNOK_clean_linker_0, # of connection points: 2
#     Edge 28, Type (0, 0), BuildingBlock: AJUNOK_clean_linker_0, # of connection points: 2
#     Edge 29, Type (0, 0), BuildingBlock: AJUNOK_clean_linker_0, # of connection points: 2
#     Edge 30, Type (0, 0), BuildingBlock: AJUNOK_clean_linker_0, # of connection points: 2
#     Edge 31, Type (0, 0), BuildingBlock: AJUNOK_clean_linker_0, # of connection points: 2
#     Edge 32, Type (0, 0), BuildingBlock: AJUNOK_clean_linker_0, # of connection points: 2
#     Edge 33, Type (0, 0), BuildingBlock: AJUNOK_clean_linker_0, # of connection points: 2
#     Edge 34, Type (0, 0), BuildingBlock: AJUNOK_clean_linker_0, # of connection points: 2
#     Edge 35, Type (0, 0), BuildingBlock: AJUNOK_clean_linker_0, # of connection points: 2
#     Edge 36, Type (0, 0), BuildingBlock: AJUNOK_clean_linker_0, # of connection points: 2
#     Edge 37, Type (0, 0), BuildingBlock: AJUNOK_clean_linker_0, # of connection points: 2
#     Edge 38, Type (0, 0), BuildingBlock: AJUNOK_clean_linker_0, # of connection points: 2
#     Edge 39, Type (0, 0), BuildingBlock: AJUNOK_clean_linker_0, # of connection points: 2
#     Edge 40, Type (0, 0), BuildingBlock: AJUNOK_clean_linker_0, # of connection points: 2
#     Edge 41, Type (0, 0), BuildingBlock: AJUNOK_clean_linker_0, # of connection points: 2
#     Edge 42, Type (0, 0), BuildingBlock: AJUNOK_clean_linker_0, # of connection points: 2
#     Edge 43, Type (0, 0), BuildingBlock: AJUNOK_clean_linker_0, # of connection points: 2
#     Edge 44, Type (0, 0), BuildingBlock: AJUNOK_clean_linker_0, # of connection points: 2
#     Edge 45, Type (0, 0), BuildingBlock: AJUNOK_clean_linker_0, # of connection points: 2
#     Edge 46, Type (0, 0), BuildingBlock: AJUNOK_clean_linker_0, # of connection points: 2
#     Edge 47, Type (0, 0), BuildingBlock: AJUNOK_clean_linker_0, # of connection points: 2
#     Edge 48, Type (0, 0), BuildingBlock: AJUNOK_clean_linker_0, # of connection points: 2
#     Edge 49, Type (0, 0), BuildingBlock: AJUNOK_clean_linker_0, # of connection points: 2
#     Edge 50, Type (0, 0), BuildingBlock: AJUNOK_clean_linker_0, # of connection points: 2
#     Edge 51, Type (0, 0), BuildingBlock: AJUNOK_clean_linker_0, # of connection points: 2
#     Edge 52, Type (0, 0), BuildingBlock: AJUNOK_clean_linker_0, # of connection points: 2
#     Edge 53, Type (0, 0), BuildingBlock: AJUNOK_clean_linker_0, # of connection points: 2
#     Edge 54, Type (0, 0), BuildingBlock: AJUNOK_clean_linker_0, # of connection points: 2
#     Edge 55, Type (0, 0), BuildingBlock: AJUNOK_clean_linker_0, # of connection points: 2
# Relax obj value: 0.031
# Max RMSD: 0.077
# Mean RMSD: 0.077
data_MOF--net-zga--node1-XOMCOT_clean_sbu_0--edge1-AJUNOK_clean_linker_0
_symmetry_space_group_name_H-M    P1
_symmetry_Int_Tables_number       1
_symmetry_cell_setting            triclinic
loop_
_symmetry_equiv_pos_as_xyz
'x, y, z'
_cell_length_a     37.256744
_cell_length_b     80.581887
_cell_length_c     13.692748
_cell_angle_alpha  91.874877
_cell_angle_beta   89.932189
_cell_angle_gamma 89.894779
loop_
_atom_site_label
_atom_site_type_symbol
_atom_site_fract_x
_atom_site_fract_y
_atom_site_fract_z
_atom_type_partial_charge
Co0 Co 0.12517 0.54599 0.14093 0.0
C1 C 0.13048 0.54826 0.92351 0.0
C2 C 0.15705 0.52672 0.97557 0.0
C3 C 0.15771 0.52602 0.87484 0.0
N4 N 0.14067 0.54086 1.00671 0.0
N5 N 0.14096 0.53959 0.84179 0.0
H6 H 0.11328 0.559 0.92214 0.0
H7 H 0.1664 0.51712 0.02277 0.0
C8 C 0.20477 0.53647 0.16484 0.0
O9 O 0.21337 0.54429 0.08547 0.0
N10 N 0.1093 0.55086 0.27412 0.0
C11 C 0.08698 0.56323 0.30333 0.0
C12 C 0.08609 0.56409 0.40412 0.0
C13 C 0.1214 0.54426 0.35769 0.0
N14 N 0.108 0.55226 0.43831 0.0
C15 C 0.12027 0.58001 0.08328 0.0
C16 C 0.17752 0.59287 0.18815 0.0
C17 C 0.15597 0.60396 0.13608 0.0
C18 C 0.12726 0.5971 0.08253 0.0
C19 C 0.16967 0.57568 0.1866 0.0
N20 N 0.14149 0.56931 0.13334 0.0
H21 H 0.09649 0.57558 0.0463 0.0
H22 H 0.18557 0.56772 0.23133 0.0
H23 H 0.07314 0.57139 0.25474 0.0
H24 H 0.14058 0.5342 0.35988 0.0
O25 O 0.07606 0.54846 0.09278 0.0
O26 O 0.09939 0.52492 0.13931 0.0
O27 O 0.17243 0.53724 0.19678 0.0
C28 C 0.07195 0.53258 0.10297 0.0
H29 H 0.16876 0.51601 0.82949 0.0
H30 H 0.07067 0.57285 0.44875 0.0
H31 H 0.2001 0.59742 0.2308 0.0
H32 H 0.10914 0.605 0.04322 0.0
Co33 Co 0.12765 0.73527 0.15545 0.0
C34 C 0.12938 0.73455 0.37435 0.0
C35 C 0.16765 0.75166 0.31939 0.0
C36 C 0.16811 0.75284 0.42005 0.0
N37 N 0.14398 0.73987 0.2899 0.0
N38 N 0.14381 0.74215 0.45468 0.0
H39 H 0.10682 0.72623 0.37795 0.0
H40 H 0.18237 0.75961 0.27173 0.0
C41 C 0.20773 0.74341 0.11356 0.0
O42 O 0.21946 0.73261 0.17592 0.0
N43 N 0.11111 0.73102 0.02225 0.0
C44 C 0.08789 0.71915 0.99194 0.0
C45 C 0.08616 0.71897 0.89117 0.0
C46 C 0.12306 0.73793 0.93946 0.0
N47 N 0.10827 0.7308 0.85809 0.0
C48 C 0.12794 0.70175 0.22041 0.0
C49 C 0.17538 0.68793 0.08598 0.0
C50 C 0.15852 0.67732 0.15192 0.0
C51 C 0.13455 0.68464 0.21946 0.0
C52 C 0.16828 0.70524 0.09023 0.0
N53 N 0.14506 0.71206 0.15815 0.0
H54 H 0.10717 0.70643 0.26819 0.0
H55 H 0.18032 0.71298 0.03622 0.0
H56 H 0.07406 0.71083 0.0396 0.0
H57 H 0.14336 0.74745 0.93826 0.0
O58 O 0.07915 0.73185 0.20468 0.0
O59 O 0.10051 0.75605 0.16277 0.0
O60 O 0.1739 0.74488 0.09912 0.0
C61 C 0.0738 0.74773 0.19806 0.0
H62 H 0.1847 0.76116 0.46406 0.0
H63 H 0.07023 0.71059 0.84565 0.0
H64 H 0.19348 0.68288 0.03066 0.0
H65 H 0.11941 0.67706 0.26869 0.0
Co66 Co 0.88964 0.48544 0.90631 0.0
C67 C 0.88768 0.48408 0.12439 0.0
C68 C 0.84869 0.5011 0.07166 0.0
C69 C 0.84842 0.50204 0.17248 0.0
N70 N 0.87271 0.4895 0.04079 0.0
N71 N 0.87323 0.49144 0.20562 0.0
H72 H 0.90988 0.47552 0.12647 0.0
H73 H 0.83384 0.50916 0.02487 0.0
C74 C 0.80951 0.49265 0.86463 0.0
O75 O 0.79901 0.48182 0.92832 0.0
N76 N 0.90681 0.4817 0.77317 0.0
C77 C 0.93174 0.47054 0.74312 0.0
C78 C 0.93399 0.47056 0.64248 0.0
C79 C 0.89417 0.48834 0.69025 0.0
N80 N 0.91036 0.48176 0.60923 0.0
C81 C 0.8909 0.4516 0.96658 0.0
C82 C 0.84231 0.43812 0.83481 0.0
C83 C 0.85955 0.42735 0.8992 0.0
C84 C 0.8843 0.43449 0.96497 0.0
C85 C 0.84965 0.45538 0.83914 0.0
N86 N 0.87322 0.46207 0.90632 0.0
H87 H 0.91198 0.45618 1.0135 0.0
H88 H 0.8373 0.4632 0.78605 0.0
H89 H 0.94634 0.46249 0.79079 0.0
H90 H 0.87321 0.49762 0.68859 0.0
O91 O 0.93811 0.48227 0.95644 0.0
O92 O 0.91589 0.50642 0.91653 0.0
O93 O 0.84313 0.49475 0.84976 0.0
C94 C 0.94278 0.4982 0.95192 0.0
H95 H 0.83261 0.51054 0.21782 0.0
H96 H 0.95057 0.46238 0.59715 0.0
H97 H 0.82364 0.43323 0.78063 0.0
H98 H 0.89995 0.42681 1.01249 0.0
Co99 Co 0.88881 0.29571 0.86677 0.0
C100 C 0.88558 0.29771 0.64917 0.0
C101 C 0.85064 0.27893 0.70157 0.0
C102 C 0.85037 0.27809 0.60076 0.0
N103 N 0.87207 0.29152 0.7326 0.0
N104 N 0.87266 0.2898 0.56783 0.0
H105 H 0.90581 0.30722 0.64726 0.0
H106 H 0.83781 0.27019 0.74847 0.0
C107 C 0.80881 0.28777 0.90309 0.0
O108 O 0.79865 0.29777 0.83439 0.0
N109 N 0.90582 0.29961 0.99976 0.0
C110 C 0.92999 0.31111 0.02939 0.0
C111 C 0.93211 0.31126 0.13003 0.0
C112 C 0.89353 0.29294 0.08297 0.0
N113 N 0.90921 0.29981 0.16384 0.0
C114 C 0.89161 0.32979 0.81061 0.0
C115 C 0.83954 0.34281 0.93425 0.0
C116 C 0.85906 0.3539 0.8767 0.0
C117 C 0.88516 0.34694 0.81387 0.0
C118 C 0.84692 0.32556 0.92882 0.0
N119 N 0.87239 0.31911 0.86601 0.0
H120 H 0.91373 0.32534 0.76657 0.0
H121 H 0.83301 0.31756 0.97797 0.0
H122 H 0.94407 0.31929 0.9814 0.0
H123 H 0.87313 0.28342 0.08484 0.0
O124 O 0.93734 0.29868 0.81633 0.0
O125 O 0.91497 0.27466 0.8576 0.0
O126 O 0.84224 0.28651 0.9235 0.0
C127 C 0.94191 0.28274 0.82167 0.0
H128 H 0.83654 0.26892 0.55525 0.0
H129 H 0.94804 0.31974 0.1749 0.0
H130 H 0.81897 0.34739 0.98412 0.0
H131 H 0.90186 0.3548 0.7701 0.0
Co132 Co 0.12678 0.04389 0.62725 0.0
C133 C 0.12731 0.04461 0.40891 0.0
C134 C 0.16875 0.02887 0.46178 0.0
C135 C 0.16902 0.02787 0.36107 0.0
N136 N 0.14316 0.03973 0.49249 0.0
N137 N 0.14275 0.03768 0.32782 0.0
H138 H 0.10406 0.05257 0.40685 0.0
H139 H 0.18489 0.02133 0.50844 0.0
C140 C 0.20739 0.03695 0.67036 0.0
O141 O 0.21878 0.04885 0.61483 0.0
N142 N 0.11019 0.04769 0.7607 0.0
C143 C 0.08482 0.05863 0.79087 0.0
C144 C 0.08243 0.05847 0.89139 0.0
C145 C 0.12297 0.04104 0.84334 0.0
N146 N 0.1064 0.0474 0.92431 0.0
C147 C 0.12594 0.07763 0.5636 0.0
C148 C 0.17203 0.0914 0.70114 0.0
C149 C 0.15498 0.10213 0.63613 0.0
C150 C 0.132 0.09481 0.56621 0.0
C151 C 0.16537 0.07411 0.69555 0.0
N152 N 0.14287 0.06729 0.62615 0.0
H153 H 0.10582 0.07287 0.51417 0.0
H154 H 0.17729 0.06633 0.74958 0.0
H155 H 0.06986 0.06656 0.74331 0.0
H156 H 0.14419 0.03188 0.84479 0.0
O157 O 0.07768 0.04669 0.57932 0.0
O158 O 0.10128 0.02283 0.61987 0.0
O159 O 0.17364 0.03461 0.68135 0.0
C160 C 0.07362 0.03072 0.58664 0.0
H161 H 0.18608 0.01989 0.31584 0.0
H162 H 0.06541 0.06641 0.93693 0.0
H163 H 0.19004 0.09632 0.75687 0.0
H164 H 0.11725 0.10243 0.51629 0.0
Co165 Co 0.12334 0.23364 0.63408 0.0
C166 C 0.12916 0.2316 0.85169 0.0
C167 C 0.15418 0.25344 0.79888 0.0
C168 C 0.15448 0.25429 0.89976 0.0
N169 N 0.13892 0.23903 0.76809 0.0
N170 N 0.13875 0.24053 0.93323 0.0
H171 H 0.11287 0.2206 0.85362 0.0
H172 H 0.16293 0.26309 0.75126 0.0
C173 C 0.20328 0.24319 0.60756 0.0
O174 O 0.21201 0.23654 0.69058 0.0
N175 N 0.10713 0.22846 0.50133 0.0
C176 C 0.08806 0.21504 0.47173 0.0
C177 C 0.08711 0.21427 0.37096 0.0
C178 C 0.11671 0.2359 0.41792 0.0
N179 N 0.10566 0.22725 0.33683 0.0
C180 C 0.11716 0.1999 0.69485 0.0
C181 C 0.17464 0.18617 0.59399 0.0
C182 C 0.15276 0.17555 0.64821 0.0
C183 C 0.12367 0.18281 0.69856 0.0
C184 C 0.16736 0.20344 0.59295 0.0
N185 N 0.13906 0.21024 0.6444 0.0
H186 H 0.09321 0.20462 0.73004 0.0
H187 H 0.18377 0.21111 0.54781 0.0
H188 H 0.07668 0.20607 0.51988 0.0
H189 H 0.13217 0.24717 0.41653 0.0
O190 O 0.07424 0.23165 0.6829 0.0
O191 O 0.09802 0.25489 0.63376 0.0
O192 O 0.1709 0.24188 0.57604 0.0
C193 C 0.07046 0.2475 0.67125 0.0
H194 H 0.16458 0.26452 0.94491 0.0
H195 H 0.07408 0.20473 0.32637 0.0
H196 H 0.19701 0.18116 0.55189 0.0
H197 H 0.10491 0.17522 0.73774 0.0
Co198 Co 0.88631 0.98493 0.41655 0.0
C199 C 0.88521 0.98439 0.63581 0.0
C200 C 0.84251 0.99915 0.58047 0.0
C201 C 0.84112 0.99997 0.68095 0.0
N202 N 0.86963 0.98901 0.55122 0.0
N203 N 0.86779 0.99056 0.71594 0.0
H204 H 0.90955 0.97715 0.63956 0.0
H205 H 0.82579 1.00628 0.53324 0.0
C206 C 0.80613 0.99173 0.36535 0.0
O207 O 0.79437 0.97855 0.40927 0.0
N208 N 0.90297 0.98125 0.28309 0.0
C209 C 0.92822 0.97032 0.2518 0.0
C210 C 0.92956 0.97027 0.151 0.0
C211 C 0.88939 0.98773 0.20103 0.0
N212 N 0.90484 0.98108 0.11925 0.0
C213 C 0.88442 0.95146 0.48299 0.0
C214 C 0.84252 0.93724 0.33717 0.0
C215 C 0.85715 0.92676 0.40758 0.0
C216 C 0.87846 0.93429 0.48068 0.0
C217 C 0.84911 0.95457 0.34239 0.0
N218 N 0.86935 0.96162 0.41622 0.0
H219 H 0.9032 0.95633 0.53581 0.0
H220 H 0.83897 0.96217 0.28494 0.0
H221 H 0.94367 0.96247 0.29874 0.0
H222 H 0.86833 0.99697 0.20069 0.0
O223 O 0.93494 0.98137 0.46465 0.0
O224 O 0.91317 1.0057 0.42608 0.0
O225 O 0.83984 0.99487 0.36321 0.0
C226 C 0.94018 0.99727 0.45889 0.0
H227 H 0.8229 1.00761 0.72464 0.0
H228 H 0.94631 0.96237 0.10446 0.0
H229 H 0.82658 0.93208 0.27756 0.0
H230 H 0.89216 0.92686 0.5336 0.0
Co231 Co 0.89021 0.79512 0.38638 0.0
C232 C 0.88597 0.79738 0.16931 0.0
C233 C 0.85553 0.77693 0.22079 0.0
C234 C 0.85533 0.77621 0.11995 0.0
N235 N 0.87407 0.79044 0.25233 0.0
N236 N 0.87484 0.78898 0.08759 0.0
H237 H 0.90383 0.80788 0.16803 0.0
H238 H 0.84471 0.76761 0.26757 0.0
C239 C 0.81041 0.78543 0.41789 0.0
O240 O 0.79944 0.79394 0.34333 0.0
N241 N 0.9068 0.7996 0.51942 0.0
C242 C 0.93016 0.81149 0.5485 0.0
C243 C 0.93225 0.81185 0.64921 0.0
C244 C 0.89506 0.79288 0.60306 0.0
N245 N 0.91021 0.8001 0.6837 0.0
C246 C 0.89493 0.82922 0.33159 0.0
C247 C 0.83824 0.84208 0.43946 0.0
C248 C 0.85979 0.85323 0.38776 0.0
C249 C 0.88823 0.84635 0.3328 0.0
C250 C 0.84595 0.82485 0.43641 0.0
N251 N 0.87386 0.81849 0.38169 0.0
H252 H 0.91842 0.82478 0.29303 0.0
H253 H 0.83012 0.81682 0.4809 0.0
H254 H 0.94376 0.81975 0.50005 0.0
H255 H 0.87547 0.78308 0.60543 0.0
O256 O 0.93913 0.79766 0.33662 0.0
O257 O 0.91599 0.77402 0.38154 0.0
O258 O 0.8435 0.78603 0.44339 0.0
C259 C 0.9433 0.78174 0.3452 0.0
H260 H 0.84363 0.76647 0.07399 0.0
H261 H 0.94759 0.82064 0.6935 0.0
H262 H 0.81575 0.84659 0.48284 0.0
H263 H 0.90637 0.85425 0.29361 0.0
Co264 Co 0.62547 0.54403 0.62453 0.0
C265 C 0.62794 0.5451 0.4059 0.0
C266 C 0.66571 0.52769 0.46074 0.0
C267 C 0.66628 0.52656 0.36006 0.0
N268 N 0.64223 0.53961 0.49027 0.0
N269 N 0.64225 0.53742 0.32542 0.0
H270 H 0.60569 0.55364 0.40254 0.0
H271 H 0.68015 0.51964 0.50848 0.0
C272 C 0.70595 0.53624 0.66637 0.0
O273 O 0.71781 0.54663 0.60183 0.0
N274 N 0.60856 0.54814 0.75771 0.0
C275 C 0.58504 0.55993 0.78816 0.0
C276 C 0.58345 0.56016 0.889 0.0
C277 C 0.6208 0.54133 0.84052 0.0
N278 N 0.60593 0.54845 0.92201 0.0
C279 C 0.62314 0.57772 0.56188 0.0
C280 C 0.67273 0.59151 0.68989 0.0
C281 C 0.65472 0.60214 0.6263 0.0
C282 C 0.62956 0.59485 0.56219 0.0
C283 C 0.66568 0.57422 0.6866 0.0
N284 N 0.64149 0.56741 0.62161 0.0
H285 H 0.60176 0.57299 0.51646 0.0
H286 H 0.67869 0.56649 0.73898 0.0
H287 H 0.57097 0.56818 0.74054 0.0
H288 H 0.64139 0.53191 0.84165 0.0
O289 O 0.57657 0.54662 0.57467 0.0
O290 O 0.60013 0.52291 0.61784 0.0
O291 O 0.67213 0.53499 0.68152 0.0
C292 C 0.57271 0.53065 0.58207 0.0
H293 H 0.68273 0.51813 0.31608 0.0
H294 H 0.56737 0.56851 0.9346 0.0
H295 H 0.69179 0.59652 0.74264 0.0
H296 H 0.61353 0.60245 0.51511 0.0
Co297 Co 0.62666 0.73383 0.64869 0.0
C298 C 0.63211 0.73171 0.86675 0.0
C299 C 0.66241 0.75192 0.8117 0.0
C300 C 0.66381 0.75276 0.91231 0.0
N301 N 0.64322 0.73848 0.78239 0.0
N302 N 0.64479 0.74003 0.9471 0.0
H303 H 0.61371 0.72145 0.87039 0.0
H304 H 0.67292 0.7611 0.76353 0.0
C305 C 0.70677 0.74193 0.61605 0.0
O306 O 0.71644 0.73283 0.68946 0.0
N307 N 0.61015 0.72959 0.51566 0.0
C308 C 0.58833 0.71725 0.48391 0.0
C309 C 0.58781 0.71693 0.38299 0.0
C310 C 0.62233 0.73667 0.43372 0.0
N311 N 0.60956 0.72903 0.35129 0.0
C312 C 0.6222 0.69986 0.70646 0.0
C313 C 0.67582 0.68648 0.58914 0.0
C314 C 0.65524 0.67556 0.64504 0.0
C315 C 0.62839 0.68269 0.70481 0.0
C316 C 0.66879 0.70376 0.59321 0.0
N317 N 0.64249 0.71038 0.65273 0.0
H318 H 0.59956 0.70449 0.74795 0.0
H319 H 0.68365 0.71163 0.54537 0.0
H320 H 0.57501 0.70862 0.53066 0.0
H321 H 0.64055 0.74709 0.43446 0.0
O322 O 0.57776 0.73145 0.69863 0.0
O323 O 0.60135 0.75503 0.65402 0.0
O324 O 0.67363 0.74255 0.59168 0.0
C325 C 0.57392 0.74739 0.69039 0.0
H326 H 0.67599 0.76262 0.95636 0.0
H327 H 0.57378 0.70798 0.33648 0.0
H328 H 0.69693 0.68173 0.54153 0.0
H329 H 0.61098 0.67493 0.74722 0.0
Co330 Co 0.38909 0.48372 0.39429 0.0
C331 C 0.3846 0.48253 0.61313 0.0
C332 C 0.35638 0.50332 0.5574 0.0
C333 C 0.35644 0.50472 0.65808 0.0
N334 N 0.37339 0.4892 0.52843 0.0
N335 N 0.37457 0.49172 0.69335 0.0
H336 H 0.40203 0.47189 0.61686 0.0
H337 H 0.34615 0.51249 0.50864 0.0
C338 C 0.30958 0.4937 0.36391 0.0
O339 O 0.29976 0.48626 0.44358 0.0
N340 N 0.40529 0.47861 0.26132 0.0
C341 C 0.42229 0.46469 0.22942 0.0
C342 C 0.42354 0.46446 0.12863 0.0
C343 C 0.39718 0.48681 0.17941 0.0
N344 N 0.40758 0.47834 0.09681 0.0
C345 C 0.39102 0.44994 0.45651 0.0
C346 C 0.3364 0.4371 0.34145 0.0
C347 C 0.35655 0.42601 0.39742 0.0
C348 C 0.38382 0.43287 0.45632 0.0
C349 C 0.34433 0.45429 0.34438 0.0
N350 N 0.37133 0.46063 0.40222 0.0
H351 H 0.41412 0.45428 0.49679 0.0
H352 H 0.32973 0.46228 0.29662 0.0
H353 H 0.43173 0.45501 0.27585 0.0
H354 H 0.38277 0.49843 0.18042 0.0
O355 O 0.43763 0.48051 0.4434 0.0
O356 O 0.41642 0.50445 0.39665 0.0
O357 O 0.34248 0.49292 0.336 0.0
C358 C 0.44306 0.4963 0.43376 0.0
H359 H 0.34462 0.51476 0.70157 0.0
H360 H 0.43463 0.4546 0.0822 0.0
H361 H 0.315 0.43253 0.29447 0.0
H362 H 0.40088 0.42495 0.4988 0.0
Co363 Co 0.38861 0.29483 0.38255 0.0
C364 C 0.38512 0.296 0.16361 0.0
C365 C 0.35337 0.27635 0.21936 0.0
C366 C 0.35294 0.27508 0.11878 0.0
N367 N 0.3728 0.28974 0.2483 0.0
N368 N 0.37329 0.28734 0.08349 0.0
H369 H 0.4045 0.30586 0.1597 0.0
H370 H 0.34167 0.26752 0.26783 0.0
C371 C 0.30896 0.28606 0.41271 0.0
O372 O 0.29964 0.29509 0.33866 0.0
N373 N 0.40465 0.29949 0.51567 0.0
C374 C 0.42563 0.3122 0.54661 0.0
C375 C 0.4269 0.31247 0.64744 0.0
C376 C 0.39371 0.29214 0.59808 0.0
N377 N 0.40683 0.29985 0.6799 0.0
C378 C 0.39024 0.32852 0.31976 0.0
C379 C 0.33789 0.3419 0.44129 0.0
C380 C 0.35666 0.35268 0.3802 0.0
C381 C 0.38314 0.34559 0.31924 0.0
C382 C 0.34558 0.32465 0.43863 0.0
N383 N 0.37124 0.31803 0.37693 0.0
H384 H 0.41273 0.32402 0.27737 0.0
H385 H 0.3319 0.31683 0.48922 0.0
H386 H 0.43807 0.32102 0.49934 0.0
H387 H 0.37526 0.28181 0.59843 0.0
O388 O 0.43716 0.29805 0.3337 0.0
O389 O 0.41587 0.274 0.3778 0.0
O390 O 0.34191 0.28565 0.43927 0.0
C391 C 0.44256 0.28221 0.3415 0.0
H392 H 0.33918 0.26561 0.07539 0.0
H393 H 0.44106 0.32146 0.69345 0.0
H394 H 0.31778 0.34679 0.49167 0.0
H395 H 0.39969 0.35333 0.27428 0.0
Co396 Co 0.62698 0.04645 0.1282 0.0
C397 C 0.62685 0.04729 0.91085 0.0
C398 C 0.66193 0.02845 0.96369 0.0
C399 C 0.66134 0.0272 0.86313 0.0
N400 N 0.64043 0.04108 0.99377 0.0
N401 N 0.63904 0.03894 0.82993 0.0
H402 H 0.60733 0.05724 0.90973 0.0
H403 H 0.67624 0.02031 1.01142 0.0
C404 C 0.69716 0.04007 0.24478 0.0
O405 O 0.69176 0.0529 0.30472 0.0
N406 N 0.61285 0.05171 0.26275 0.0
C407 C 0.59413 0.06521 0.29372 0.0
C408 C 0.59131 0.06521 0.39388 0.0
C409 C 0.61993 0.04334 0.34477 0.0
N410 N 0.60782 0.05155 0.42644 0.0
C411 C 0.61757 0.08067 0.07882 0.0
C412 C 0.68363 0.09317 0.133 0.0
C413 C 0.65691 0.10443 0.10465 0.0
C414 C 0.62396 0.09776 0.07463 0.0
C415 C 0.67636 0.07592 0.13391 0.0
N416 N 0.64286 0.06983 0.11218 0.0
H417 H 0.59132 0.07637 0.0574 0.0
H418 H 0.69795 0.0677 0.15138 0.0
H419 H 0.5835 0.07459 0.24721 0.0
H420 H 0.63524 0.03193 0.34492 0.0
O421 O 0.5772 0.0489 0.08761 0.0
O422 O 0.60073 0.02533 0.13146 0.0
O423 O 0.67582 0.03725 0.17243 0.0
C424 C 0.57274 0.03314 0.09926 0.0
H425 H 0.67612 0.01827 0.818 0.0
H426 H 0.57843 0.07471 0.43945 0.0
H427 H 0.71004 0.09764 0.15362 0.0
H428 H 0.60256 0.10581 0.051 0.0
Co429 Co 0.62545 0.23549 0.14076 0.0
C430 C 0.62829 0.23366 0.35847 0.0
C431 C 0.66638 0.25108 0.3062 0.0
C432 C 0.66718 0.25163 0.40705 0.0
N433 N 0.64263 0.23945 0.27497 0.0
N434 N 0.64329 0.24059 0.44003 0.0
H435 H 0.60525 0.22561 0.36048 0.0
H436 H 0.68078 0.25936 0.25978 0.0
C437 C 0.70549 0.24361 0.09743 0.0
O438 O 0.71752 0.23289 0.15991 0.0
N439 N 0.60795 0.23173 1.0078 0.0
C440 C 0.58136 0.22132 0.97973 0.0
C441 C 0.57972 0.22058 0.87897 0.0
C442 C 0.62208 0.23717 0.92337 0.0
N443 N 0.60559 0.23043 0.84351 0.0
C444 C 0.62593 0.20152 0.20081 0.0
C445 C 0.67267 0.18854 0.06168 0.0
C446 C 0.6567 0.17757 0.12697 0.0
C447 C 0.63321 0.18443 0.19732 0.0
C448 C 0.66528 0.20578 0.06926 0.0
N449 N 0.64238 0.21219 0.13931 0.0
H450 H 0.60535 0.20592 0.25018 0.0
H451 H 0.67685 0.21382 0.0161 0.0
H452 H 0.56492 0.21436 0.02897 0.0
H453 H 0.64491 0.24533 0.91951 0.0
O454 O 0.57683 0.23248 0.19236 0.0
O455 O 0.59954 0.25645 0.15124 0.0
O456 O 0.67162 0.24499 0.08363 0.0
C457 C 0.57249 0.24847 0.18704 0.0
H458 H 0.68341 0.25989 0.45254 0.0
H459 H 0.561 0.21325 0.83537 0.0
H460 H 0.69038 0.1838 1.00449 0.0
H461 H 0.61905 0.1765 0.24674 0.0
Co462 Co 0.39015 0.98534 0.90966 0.0
C463 C 0.3891 0.98214 0.12556 0.0
C464 C 0.34093 0.99366 0.0752 0.0
C465 C 0.33982 0.9934 0.17578 0.0
N466 N 0.37181 0.98652 0.04334 0.0
N467 N 0.37028 0.98633 0.20713 0.0
H468 H 0.41533 0.97637 0.12641 0.0
H469 H 0.32089 0.99919 0.02952 0.0
C470 C 0.31392 0.98955 0.81899 0.0
O471 O 0.31038 0.97365 0.79735 0.0
N472 N 0.40899 0.98469 0.77531 0.0
C473 C 0.44375 0.98305 0.74807 0.0
C474 C 0.44613 0.98294 0.64787 0.0
C475 C 0.39092 0.98579 0.6898 0.0
N476 N 0.41293 0.98484 0.61093 0.0
C477 C 0.40049 0.95072 0.85554 0.0
C478 C 0.3401 0.93797 0.94268 0.0
C479 C 0.36437 0.9268 0.89694 0.0
C480 C 0.39478 0.93351 0.8529 0.0
C481 C 0.34646 0.95527 0.94191 0.0
N482 N 0.37624 0.9616 0.89734 0.0
H483 H 0.42543 0.95516 0.82664 0.0
H484 H 0.3274 0.96351 0.97802 0.0
H485 H 0.46616 0.98149 0.79688 0.0
H486 H 0.36235 0.9874 0.68419 0.0
O487 O 0.43881 0.98257 0.96133 0.0
O488 O 0.4134 1.00665 0.93347 0.0
O489 O 0.34273 0.99496 0.86001 0.0
C490 C 0.44133 0.99872 0.96485 0.0
H491 H 0.31908 0.99873 0.22257 0.0
H492 H 0.47048 0.98103 0.60591 0.0
H493 H 0.31634 0.93338 0.97846 0.0
H494 H 0.41481 0.92543 0.81905 0.0
Co495 Co 0.39242 0.7953 0.88947 0.0
C496 C 0.38951 0.79715 0.67168 0.0
C497 C 0.35375 0.77872 0.72436 0.0
C498 C 0.35344 0.77786 0.62356 0.0
N499 N 0.37573 0.79112 0.75522 0.0
N500 N 0.37624 0.78935 0.59046 0.0
H501 H 0.41011 0.80649 0.66958 0.0
H502 H 0.3405 0.77013 0.77136 0.0
C503 C 0.31218 0.78786 0.92583 0.0
O504 O 0.30226 0.79808 0.85803 0.0
N505 N 0.40934 0.79918 0.02251 0.0
C506 C 0.43377 0.81055 0.0522 0.0
C507 C 0.43591 0.81066 0.15283 0.0
C508 C 0.39692 0.79253 0.10562 0.0
N509 N 0.41276 0.7993 0.18651 0.0
C510 C 0.39634 0.82915 0.83181 0.0
C511 C 0.34438 0.84297 0.95294 0.0
C512 C 0.36374 0.8536 0.8922 0.0
C513 C 0.39028 0.84628 0.83232 0.0
C514 C 0.35137 0.82564 0.95018 0.0
N515 N 0.3766 0.81879 0.88792 0.0
H516 H 0.4185 0.82446 0.78889 0.0
H517 H 0.33728 0.81791 1.00047 0.0
H518 H 0.44807 0.81866 1.00427 0.0
H519 H 0.37633 0.7831 0.1074 0.0
O520 O 0.44098 0.7981 0.83955 0.0
O521 O 0.41836 0.77414 0.88052 0.0
O522 O 0.34558 0.78631 0.94583 0.0
C523 C 0.44541 0.78217 0.84471 0.0
H524 H 0.33918 0.76882 0.57816 0.0
H525 H 0.45206 0.81903 0.19778 0.0
H526 H 0.32423 0.848 1.00271 0.0
H527 H 0.40748 0.85385 0.78812 0.0
C528 C 0.25143 0.51017 0.35775 0.0
C529 C 0.28283 0.50421 0.31033 0.0
C530 C 0.2267 0.52062 0.31103 0.0
C531 C 0.23208 0.52574 0.21447 0.0
H532 H 0.24603 0.50692 0.43246 0.0
H533 H 0.20326 0.52481 0.3516 0.0
S534 S 0.30803 0.51245 0.05362 0.0
N535 N 0.31617 0.50341 0.15774 0.0
N536 N 0.27059 0.52312 0.07131 0.0
C537 C 0.26306 0.51967 0.16565 0.0
C538 C 0.28808 0.50893 0.213 0.0
C539 C 0.03502 0.77328 0.22568 0.0
C540 C 0.03998 0.75604 0.23452 0.0
C541 C 1.00402 0.78146 0.26223 0.0
C542 C 0.97649 0.7728 0.30971 0.0
H543 H 0.05529 0.7806 0.19027 0.0
H544 H 1.00161 0.7947 0.25269 0.0
S545 S 0.97615 0.72751 0.3528 0.0
N546 N 0.01436 0.73061 0.29515 0.0
N547 N 0.95656 0.74587 0.3634 0.0
C548 C 0.98111 0.75555 0.31906 0.0
C549 C 0.01263 0.74723 0.2817 0.0
C550 C 0.29605 0.76341 0.03004 0.0
C551 C 0.28492 0.777 0.97474 0.0
C552 C 0.27117 0.75267 0.07363 0.0
C553 C 0.23374 0.75493 0.06467 0.0
H554 H 0.32439 0.76088 0.0391 0.0
H555 H 0.28153 0.74244 0.11461 0.0
S556 S 0.19007 0.78924 0.93301 0.0
N557 N 0.2334 0.79236 0.91682 0.0
N558 N 0.18703 0.77254 0.99905 0.0
C559 C 0.22222 0.76865 1.01081 0.0
C560 C 0.24758 0.77953 0.96601 0.0
C561 C 0.98067 0.52391 0.98228 0.0
C562 C 0.97603 0.50665 0.99072 0.0
C563 C 0.01131 0.53216 0.01988 0.0
C564 C 0.03881 0.52358 0.0681 0.0
H565 H 0.96047 0.53116 0.946 0.0
H566 H 0.01353 0.54541 1.01023 0.0
S567 S 0.03953 0.47833 0.11254 0.0
N568 N 1.00163 0.48132 0.05328 0.0
N569 N 0.05877 0.49674 0.12347 0.0
C570 C 0.03435 0.50634 0.07791 0.0
C571 C 1.00318 0.49793 0.03946 0.0
C572 C 0.79385 0.5171 0.75976 0.0
C573 C 0.78251 0.50338 0.81363 0.0
C574 C 0.76918 0.5276 0.71326 0.0
C575 C 0.73177 0.52497 0.71796 0.0
H576 H 0.82218 0.5199 0.75388 0.0
H577 H 0.77965 0.53794 0.67352 0.0
S578 S 0.6877 0.49019 0.84397 0.0
N579 N 0.73087 0.4875 0.86532 0.0
N580 N 0.68492 0.50689 0.77781 0.0
C581 C 0.72007 0.51114 0.7704 0.0
C582 C 0.74521 0.50049 0.81801 0.0
C583 C 0.00978 0.24837 0.75419 0.0
C584 C 0.03754 0.25676 0.706 0.0
C585 C 0.9793 0.25683 0.79169 0.0
C586 C 0.97507 0.27411 0.78318 0.0
H587 H 0.01166 0.23511 0.76385 0.0
H588 H 0.95888 0.24971 0.82787 0.0
S589 S 0.03948 0.30201 0.66189 0.0
N590 N 0.05828 0.28347 0.6509 0.0
N591 N 1.0014 0.29928 0.72092 0.0
C592 C 1.00251 0.28266 0.7346 0.0
C593 C 0.03353 0.27403 0.69624 0.0
C594 C 0.76869 0.25331 0.05825 0.0
C595 C 0.73122 0.25506 0.04689 0.0
C596 C 0.79328 0.26398 1.01297 0.0
C597 C 0.78181 0.27697 0.9534 0.0
H598 H 0.77931 0.24356 0.10256 0.0
H599 H 0.82167 0.26187 0.0242 0.0
S600 S 0.68664 0.28758 0.90248 0.0
N601 N 0.68406 0.2715 0.97367 0.0
N602 N 0.7299 0.29112 0.88793 0.0
C603 C 0.74442 0.27896 0.94197 0.0
C604 C 0.71935 0.26817 0.98864 0.0
C605 C 0.29539 0.01811 0.76418 0.0
C606 C 0.28598 1.00166 0.78566 0.0
C607 C 0.27001 0.02941 0.72764 0.0
C608 C 0.23376 0.02495 0.71291 0.0
H609 H 0.32288 0.02223 0.77339 0.0
H610 H 0.27895 0.04178 0.71083 0.0
S611 S 0.19469 0.98357 0.76117 0.0
N612 N 0.23741 0.98165 0.79076 0.0
N613 N 0.18987 1.00278 0.72499 0.0
C614 C 0.22385 1.00863 0.73626 0.0
C615 C 0.24983 0.99705 0.77164 0.0
C616 C 0.26208 0.25916 0.6023 0.0
C617 C 0.23054 0.25353 0.55444 0.0
C618 C 0.28708 0.26961 0.55662 0.0
C619 C 0.28173 0.27514 0.46093 0.0
H620 H 0.2674 0.25567 0.67659 0.0
H621 H 0.3106 0.27356 0.59742 0.0
S622 S 0.2058 0.26276 0.29875 0.0
N623 N 0.19746 0.25339 0.40169 0.0
N624 N 0.24335 0.2732 0.31772 0.0
C625 C 0.25073 0.26938 0.41155 0.0
C626 C 0.22555 0.25858 0.4576 0.0
C627 C 0.97972 0.02265 0.48043 0.0
C628 C 0.9746 1.00546 0.49113 0.0
C629 C 0.01153 0.03068 0.5117 0.0
C630 C 0.03978 0.02193 0.55542 0.0
H631 H 0.95895 0.03003 0.44749 0.0
H632 H 0.01398 0.04389 0.50111 0.0
S633 S 0.04007 0.97672 0.60154 0.0
N634 N 1.00085 0.97998 0.5495 0.0
N635 N 0.06019 0.99496 0.60788 0.0
C636 C 0.03502 1.00473 0.56659 0.0
C637 C 1.00265 0.99655 0.53467 0.0
C638 C 0.72059 1.01067 0.2574 0.0
C639 C 0.72652 0.02794 0.26687 0.0
C640 C 0.7464 0.99907 0.28849 0.0
C641 C 0.77978 1.00418 0.32763 0.0
H642 H 0.69522 1.00608 0.22916 0.0
H643 H 0.74007 0.98596 0.28208 0.0
S644 S 0.80948 0.04797 0.36292 0.0
N645 N 0.76873 0.04949 0.31661 0.0
N646 N 0.81754 0.02789 0.37042 0.0
C647 C 0.78649 0.02141 0.334 0.0
C648 C 0.75984 0.0332 0.30503 0.0
C649 C 0.72266 0.76455 0.49823 0.0
C650 C 0.7339 0.75252 0.56465 0.0
C651 C 0.74729 0.77508 0.45205 0.0
C652 C 0.78457 0.7742 0.46965 0.0
H653 H 0.6944 0.76601 0.4822 0.0
H654 H 0.73686 0.78407 0.40226 0.0
S655 S 0.82871 0.7441 0.63167 0.0
N656 N 0.78552 0.74003 0.64225 0.0
N657 N 0.83144 0.75939 0.55478 0.0
C658 C 0.79625 0.76199 0.53442 0.0
C659 C 0.77114 0.75132 0.58185 0.0
C660 C 0.48296 0.75629 0.81346 0.0
C661 C 0.47854 0.77358 0.80572 0.0
C662 C 0.51347 0.74794 0.77507 0.0
C663 C 0.54101 0.75647 0.72677 0.0
H664 H 0.46268 0.74909 0.84963 0.0
H665 H 0.51554 0.73467 0.78404 0.0
S666 S 0.54235 0.80178 0.68447 0.0
N667 N 0.50447 0.79889 0.74408 0.0
N668 N 0.56131 0.7833 0.67244 0.0
C669 C 0.5368 0.77375 0.71788 0.0
C670 C 0.5058 0.78225 0.7571 0.0
C671 C 0.51175 0.5303 0.50031 0.0
C672 C 0.53973 0.52165 0.54601 0.0
C673 C 0.481 0.52204 0.46326 0.0
C674 C 0.47673 0.50472 0.4699 0.0
H675 H 0.51358 0.5436 0.49268 0.0
H676 H 0.46031 0.52936 0.42946 0.0
S677 S 0.54202 0.47616 0.5828 0.0
N678 N 0.56086 0.49463 0.59552 0.0
N679 N 0.50356 0.47923 0.52644 0.0
C680 C 0.50455 0.49592 0.51532 0.0
C681 C 0.53581 0.50432 0.55311 0.0
C682 C 0.48074 0.25653 0.30843 0.0
C683 C 0.47626 0.27388 0.30406 0.0
C684 C 0.51157 0.24842 0.26995 0.0
C685 C 0.53941 0.25727 0.225 0.0
H686 H 0.46015 0.24908 0.34151 0.0
H687 H 0.51358 0.23508 0.27579 0.0
S688 S 0.54114 0.30293 0.19414 0.0
N689 N 0.50278 0.29962 0.25055 0.0
N690 N 0.56016 0.28451 0.17879 0.0
C691 C 0.53527 0.27463 0.22023 0.0
C692 C 0.50396 0.28287 0.25949 0.0
C693 C 0.50438 0.99882 0.03497 0.0
C694 C 0.47419 1.00767 1.00221 0.0
C695 C 0.53574 1.00707 0.06834 0.0
C696 C 0.53839 0.02454 0.07046 0.0
H697 H 0.50397 0.98538 0.03407 0.0
H698 H 0.55829 0.99964 0.09115 0.0
S699 S 0.46644 0.05364 0.9973 0.0
N700 N 0.44885 0.03505 0.97771 0.0
N701 N 0.50718 0.05038 0.03975 0.0
C702 C 0.50812 0.03352 0.03973 0.0
C703 C 0.47628 0.02515 1.00589 0.0
C704 C 0.12018 0.53305 0.57238 0.0
C705 C 0.11665 0.54933 0.53953 0.0
C706 C 0.12799 0.52998 0.67078 0.0
C707 C 0.13293 0.54307 0.74059 0.0
H708 H 0.11624 0.5226 0.52186 0.0
H709 H 0.12962 0.51721 0.69247 0.0
S710 S 0.13059 0.58802 0.68926 0.0
N711 N 0.12114 0.57872 0.58318 0.0
N712 N 0.13629 0.573 0.76697 0.0
C713 C 0.1303 0.55942 0.70791 0.0
C714 C 0.12209 0.56254 0.60788 0.0
C715 C 0.11703 0.72094 0.68583 0.0
C716 C 0.1166 0.73402 0.75686 0.0
C717 C 0.12559 0.72372 0.58755 0.0
C718 C 0.13421 0.73967 0.55589 0.0
H719 H 0.11135 0.70837 0.70666 0.0
H720 H 0.12615 0.71321 0.53617 0.0
S721 S 0.13289 0.77848 0.70982 0.0
N722 N 0.12286 0.76377 0.78638 0.0
N723 N 0.13896 0.76896 0.60245 0.0
C724 C 0.13307 0.75293 0.6256 0.0
C725 C 0.1243 0.75011 0.72568 0.0
C726 C 0.86594 0.48733 0.47919 0.0
C727 C 0.90175 0.48479 0.50808 0.0
C728 C 0.85691 0.48954 0.38062 0.0
C729 C 0.88329 0.48929 0.30672 0.0
H730 H 0.8446 0.48725 0.53293 0.0
H731 H 0.82894 0.49116 0.36174 0.0
S732 S 0.98149 0.48529 0.34543 0.0
N733 N 0.96403 0.48358 0.45557 0.0
N734 N 0.94717 0.48782 0.27114 0.0
C735 C 0.91932 0.48725 0.33503 0.0
C736 C 0.9285 0.48498 0.43535 0.0
C737 C 0.86531 0.29335 0.29396 0.0
C738 C 0.90079 0.2968 0.26525 0.0
C739 C 0.85639 0.2911 0.39262 0.0
C740 C 0.88252 0.29224 0.46685 0.0
H741 H 0.8441 0.29273 0.23999 0.0
H742 H 0.82869 0.28869 0.4113 0.0
S743 S 0.98004 0.29887 0.42941 0.0
N744 N 0.96268 0.29982 0.31879 0.0
N745 N 0.94593 0.29561 0.50339 0.0
C746 C 0.91823 0.29524 0.43893 0.0
C747 C 0.92734 0.29751 0.33851 0.0
C748 C 0.15953 0.04014 0.15365 0.0
C749 C 0.13286 0.03975 0.22661 0.0
C750 C 0.15072 0.04234 0.05503 0.0
C751 C 0.11484 0.04428 0.02527 0.0
H752 H 0.18756 0.03904 0.17331 0.0
H753 H 0.17221 0.04294 1.00198 0.0
S754 S 0.03456 0.04201 0.18494 0.0
N755 N 0.06877 0.03995 0.26018 0.0
N756 N 0.0523 0.04426 0.07556 0.0
C757 C 0.08784 0.04345 0.09694 0.0
C758 C 0.0968 0.04115 0.19729 0.0
C759 C 0.11566 0.24672 0.20208 0.0
C760 C 0.11432 0.23039 0.23555 0.0
C761 C 0.12365 0.24994 0.10375 0.0
C762 C 0.13082 0.23697 0.03451 0.0
H763 H 0.10994 0.25708 0.25201 0.0
H764 H 0.12364 0.2627 0.08157 0.0
S765 S 0.13518 0.19212 0.08729 0.0
N766 N 0.12382 0.20119 0.19274 0.0
N767 N 0.13882 0.20722 1.00931 0.0
C768 C 0.13046 0.22062 0.06776 0.0
C769 C 0.12226 0.21735 0.16768 0.0
C770 C 0.9217 0.98435 0.94574 0.0
C771 C 0.89511 0.98378 0.01873 0.0
C772 C 0.91269 0.98657 0.84721 0.0
C773 C 0.87667 0.98821 0.81761 0.0
H774 H 0.94974 0.98325 0.96525 0.0
H775 H 0.93413 0.98722 0.79406 0.0
S776 S 0.79673 0.98571 0.97892 0.0
N777 N 0.83118 0.9839 0.05354 0.0
N778 N 0.81418 0.98788 0.86918 0.0
C779 C 0.84981 0.98732 0.88983 0.0
C780 C 0.85902 0.98515 0.99004 0.0
C781 C 0.85855 0.78982 0.91218 0.0
C782 C 0.8843 0.79187 0.98683 0.0
C783 C 0.86721 0.79236 0.81362 0.0
C784 C 0.9021 0.79698 0.7853 0.0
H785 H 0.8313 0.78643 0.93045 0.0
H786 H 0.84622 0.79097 0.7594 0.0
S787 S 0.98054 0.80176 0.95112 0.0
N788 N 0.94688 0.79742 0.0245 0.0
N789 N 0.9633 0.80205 0.84012 0.0
C790 C 0.92835 0.79861 0.85912 0.0
C791 C 0.91945 0.7961 0.95947 0.0
C792 C 0.61489 0.55845 0.09396 0.0
C793 C 0.61451 0.54532 0.02321 0.0
C794 C 0.62367 0.55575 0.19221 0.0
C795 C 0.63254 0.53983 0.22417 0.0
H796 H 0.60898 0.57099 0.07291 0.0
H797 H 0.62416 0.56629 0.2433 0.0
S798 S 0.6315 0.50093 0.07094 0.0
N799 N 0.62118 0.51558 0.99424 0.0
N800 N 0.63756 0.51052 0.17802 0.0
C801 C 0.63145 0.52653 0.15469 0.0
C802 C 0.62251 0.52927 0.05465 0.0
C803 C 0.6022 0.73178 0.07658 0.0
C804 C 0.63658 0.73712 0.04872 0.0
C805 C 0.59355 0.72933 0.17522 0.0
C806 C 0.6189 0.73208 0.25042 0.0
H807 H 0.58158 0.72975 0.02187 0.0
H808 H 0.56661 0.7254 0.19289 0.0
S809 S 0.71385 0.74464 0.21527 0.0
N810 N 0.69675 0.74417 0.10401 0.0
N811 N 0.68076 0.73942 0.2884 0.0
C812 C 0.6536 0.73716 0.22324 0.0
C813 C 0.66234 0.7397 0.12285 0.0
C814 C 0.39248 0.46914 0.92653 0.0
C815 C 0.3997 0.48206 0.9958 0.0
C816 C 0.38455 0.47238 0.82839 0.0
C817 C 0.3833 0.4887 0.79478 0.0
H818 H 0.39237 0.45637 0.94862 0.0
H819 H 0.37875 0.46202 0.77864 0.0
S820 S 0.40351 0.52693 0.94374 0.0
N821 N 0.40728 0.5118 0.02157 0.0
N822 N 0.39241 0.51791 0.83807 0.0
C823 C 0.39105 0.50174 0.86283 0.0
C824 C 0.39919 0.49843 0.96284 0.0
C825 C 0.38693 0.30641 0.94956 0.0
C826 C 0.38222 0.29015 0.98205 0.0
C827 C 0.39502 0.30946 0.85128 0.0
C828 C 0.39876 0.29639 0.78095 0.0
H829 H 0.38375 0.3169 1.00029 0.0
H830 H 0.39777 0.32221 0.82986 0.0
S831 S 0.39304 0.25145 0.82953 0.0
N832 N 0.38471 0.26073 0.93647 0.0
N833 N 0.39953 0.2665 0.75252 0.0
C834 C 0.39481 0.28006 0.81271 0.0
C835 C 0.38668 0.27694 0.91285 0.0
C836 C 0.61947 0.06108 0.59762 0.0
C837 C 0.61476 0.04798 0.52783 0.0
C838 C 0.62676 0.05805 0.69612 0.0
C839 C 0.62996 0.04179 0.7291 0.0
H840 H 0.61825 0.07385 0.5757 0.0
H841 H 0.63078 0.06852 0.74651 0.0
S842 S 0.61645 1.00307 0.57924 0.0
N843 N 0.61131 0.01807 0.50113 0.0
N844 N 0.62535 1.01237 0.68569 0.0
C845 C 0.62463 0.02855 0.66083 0.0
C846 C 0.61701 0.03164 0.56049 0.0
C847 C 0.62635 0.24834 0.71055 0.0
C848 C 0.61497 0.23273 0.74197 0.0
C849 C 0.63547 0.25083 0.61225 0.0
C850 C 0.63379 0.23779 0.54108 0.0
H851 H 0.62772 0.25878 0.76219 0.0
H852 H 0.64344 0.26314 0.59168 0.0
S853 S 0.60973 0.19406 0.58757 0.0
N854 N 0.60514 0.20375 0.69498 0.0
N855 N 0.62242 0.20837 0.5113 0.0
C856 C 0.62322 0.22203 0.57209 0.0
C857 C 0.61381 0.21952 0.67205 0.0
C858 C 0.36889 0.97941 0.47773 0.0
C859 C 0.40282 0.98525 0.50874 0.0
C860 C 0.35855 0.97967 0.37908 0.0
C861 C 0.38189 0.98551 0.30726 0.0
H862 H 0.35022 0.97446 0.52987 0.0
H863 H 0.33219 0.97514 0.35844 0.0
S864 S 0.47209 1.00364 0.34913 0.0
N865 N 0.45859 0.99829 0.45863 0.0
N866 N 0.43939 0.99816 0.27359 0.0
C867 C 0.41567 0.99149 0.33672 0.0
C868 C 0.42608 0.9915 0.43724 0.0
C869 C 0.36877 0.79305 0.31675 0.0
C870 C 0.40434 0.79627 0.28786 0.0
C871 C 0.35987 0.7908 0.41541 0.0
C872 C 0.3861 0.79172 0.48944 0.0
H873 H 0.34751 0.79261 0.26292 0.0
H874 H 0.3321 0.78859 0.43427 0.0
S875 S 0.4838 0.79769 0.45134 0.0
N876 N 0.46637 0.79882 0.3409 0.0
N877 N 0.44965 0.79461 0.52552 0.0
C878 C 0.42189 0.79448 0.46129 0.0
C879 C 0.43098 0.79675 0.36088 0.0
C880 C 0.15807 0.63195 0.05517 0.0
C881 C 0.16143 0.6226 0.14037 0.0
C882 C 0.1591 0.64952 0.0585 0.0
C883 C 0.16315 0.65865 0.14738 0.0
H884 H 0.1539 0.62564 0.98507 0.0
H885 H 0.15511 0.65599 0.99126 0.0
S886 S 0.17531 0.64044 0.39111 0.0
N887 N 0.1705 0.62413 0.31615 0.0
N888 N 0.17293 0.65684 0.32216 0.0
C889 C 0.16791 0.64947 0.23255 0.0
C890 C 0.167 0.6316 0.22913 0.0
C891 C 0.85551 0.39973 0.80425 0.0
C892 C 0.85439 0.40869 0.8944 0.0
C893 C 0.85562 0.38217 0.79926 0.0
C894 C 0.85438 0.3726 0.88407 0.0
H895 H 0.85783 0.40632 0.73685 0.0
H896 H 0.85741 0.37602 0.7279 0.0
S897 S 0.84806 0.38994 0.13839 0.0
N898 N 0.84915 0.40649 0.07051 0.0
N899 N 0.85032 0.37378 0.06134 0.0
C900 C 0.85171 0.38144 0.97447 0.0
C901 C 0.85156 0.39932 0.97954 0.0
C902 C 0.16273 0.13007 0.55716 0.0
C903 C 0.15891 0.12085 0.64272 0.0
C904 C 0.16254 0.14764 0.55985 0.0
C905 C 0.15809 0.15692 0.64815 0.0
H906 H 0.16525 0.12363 0.48681 0.0
H907 H 0.1644 0.15398 0.4915 0.0
S908 S 0.14912 0.13912 0.89406 0.0
N909 N 0.15196 0.12268 0.81923 0.0
N910 N 0.15209 0.15541 0.82443 0.0
C911 C 0.15555 0.14789 0.73462 0.0
C912 C 0.15591 0.13001 0.73194 0.0
C913 C 0.85811 0.899 0.31319 0.0
C914 C 0.85301 0.90803 0.40211 0.0
C915 C 0.85896 0.88144 0.30889 0.0
C916 C 0.85453 0.87193 0.39312 0.0
H917 H 0.86294 0.90555 0.24662 0.0
H918 H 0.86378 0.87526 0.23868 0.0
S919 S 0.8374 0.88941 0.64343 0.0
N920 N 0.84072 0.90591 0.57569 0.0
N921 N 0.84329 0.87322 0.56809 0.0
C922 C 0.84797 0.88081 0.48188 0.0
C923 C 0.84706 0.89869 0.48624 0.0
C924 C 0.65809 0.64743 0.7241 0.0
C925 C 0.65969 0.65686 0.63883 0.0
C926 C 0.65825 0.62987 0.71997 0.0
C927 C 0.65964 0.62079 0.63023 0.0
H928 H 0.65604 0.6537 0.79508 0.0
H929 H 0.65578 0.62337 0.78763 0.0
S930 S 0.66643 0.63918 0.38541 0.0
N931 N 0.66419 0.65545 0.46169 0.0
N932 N 0.66507 0.62272 0.45405 0.0
C933 C 0.66259 0.63003 0.54466 0.0
C934 C 0.66255 0.64791 0.54888 0.0
C935 C 0.3523 0.39799 0.47718 0.0
C936 C 0.35144 0.40736 0.39163 0.0
C937 C 0.35199 0.38042 0.47339 0.0
C938 C 0.35126 0.3713 0.38375 0.0
H939 H 0.354 0.4043 0.54808 0.0
H940 H 0.35397 0.37394 0.54125 0.0
S941 S 0.34653 0.38956 0.13829 0.0
N942 N 0.34821 0.40587 0.21435 0.0
N943 N 0.34727 0.37314 0.20729 0.0
C944 C 0.349 0.3805 0.29787 0.0
C945 C 0.3491 0.39838 0.30175 0.0
C946 C 0.65386 0.1501 0.03124 0.0
C947 C 0.6619 0.159 0.11885 0.0
C948 C 0.65358 0.13253 0.02624 0.0
C949 C 0.66211 0.12302 0.10798 0.0
H950 H 0.6461 0.15675 0.9671 0.0
H951 H 0.64586 0.12633 0.95814 0.0
S952 S 0.68723 0.1402 0.35314 0.0
N953 N 0.68002 0.15682 0.28829 0.0
N954 N 0.68018 0.12404 0.2783 0.0
C955 C 0.67168 0.13178 0.19473 0.0
C956 C 0.67135 0.14964 0.20032 0.0
C957 C 0.35661 0.88179 0.98138 0.0
C958 C 0.35844 0.87225 0.89299 0.0
C959 C 0.35682 0.89939 0.98252 0.0
C960 C 0.35907 0.90824 0.8954 0.0
H961 H 0.35661 0.87562 0.05046 0.0
H962 H 0.35682 0.90612 0.05232 0.0
S963 S 0.3588 0.88949 0.64434 0.0
N964 N 0.35806 0.87337 0.71566 0.0
N965 N 0.35946 0.90608 0.71839 0.0
C966 C 0.35903 0.89889 0.80681 0.0
C967 C 0.35843 0.88107 0.80546 0.0
loop_
_geom_bond_atom_site_label_1
_geom_bond_atom_site_label_2
_geom_bond_distance
_geom_bond_site_symmetry_2
_ccdc_geom_bond_type
Co0 N4 2.148 1_554 S
Co0 N10 2.128 . S
Co0 N20 2.194 . S
Co0 O25 2.351 . S
Co0 O26 2.155 . S
Co0 O27 2.096 . S
C1 N4 1.301 . S
C1 N5 1.328 . S
C1 H6 0.930 . S
C2 C3 1.333 . S
C2 N4 1.317 . S
C2 H7 0.930 . S
C3 C2 1.333 . S
C3 N5 1.350 . S
C3 H29 0.931 . S
N4 Co0 2.148 1_556 S
N4 C1 1.301 . S
N4 C2 1.317 . S
N5 C1 1.328 . S
N5 C3 1.350 . S
H6 C1 0.930 . S
H7 C2 0.930 . S
C8 O9 1.224 . S
C8 O27 1.247 . S
O9 C8 1.224 . S
N10 Co0 2.128 . S
N10 C11 1.355 . S
N10 C13 1.311 . S
C11 N10 1.355 . S
C11 C12 1.363 . S
C11 H23 0.929 . S
C12 C11 1.363 . S
C12 N14 1.375 . S
C12 H30 0.931 . S
C13 N10 1.311 . S
C13 N14 1.347 . S
C13 H24 0.929 . S
N14 C12 1.375 . S
N14 C13 1.347 . S
C15 C18 1.365 . S
C15 N20 1.328 . S
C15 H21 0.929 . S
C16 C17 1.362 . S
C16 C19 1.378 . S
C16 H31 0.929 . S
C17 C16 1.362 . S
C17 C18 1.366 . S
C18 C15 1.365 . S
C18 C17 1.366 . S
C18 H32 0.930 . S
C19 C16 1.378 . S
C19 N20 1.315 . S
C19 H22 0.930 . S
N20 Co0 2.194 . S
N20 C15 1.328 . S
N20 C19 1.315 . S
H21 C15 0.929 . S
H22 C19 0.930 . S
H23 C11 0.929 . S
H24 C13 0.929 . S
O25 Co0 2.351 . S
O25 C28 1.244 . S
O26 Co0 2.155 . S
O26 C28 1.240 . S
O27 Co0 2.096 . S
O27 C8 1.247 . S
C28 O25 1.244 . S
C28 O26 1.240 . S
H29 C3 0.931 . S
H30 C12 0.931 . S
H31 C16 0.929 . S
H32 C18 0.930 . S
Co33 N37 2.148 . S
Co33 N43 2.128 1_554 S
Co33 N53 2.194 . S
Co33 O58 2.351 . S
Co33 O59 2.155 . S
Co33 O60 2.096 . S
C34 N37 1.301 . S
C34 N38 1.328 . S
C34 H39 0.930 . S
C35 C36 1.333 . S
C35 N37 1.317 . S
C35 H40 0.930 . S
C36 C35 1.333 . S
C36 N38 1.350 . S
C36 H62 0.931 . S
N37 Co33 2.148 . S
N37 C34 1.301 . S
N37 C35 1.317 . S
N38 C34 1.328 . S
N38 C36 1.350 . S
H39 C34 0.930 . S
H40 C35 0.930 . S
C41 O42 1.224 . S
C41 O60 1.247 . S
O42 C41 1.224 . S
N43 Co33 2.128 1_556 S
N43 C44 1.355 . S
N43 C46 1.311 . S
C44 N43 1.355 . S
C44 C45 1.363 . S
C44 H56 0.929 . S
C45 C44 1.363 . S
C45 N47 1.375 . S
C45 H63 0.931 . S
C46 N43 1.311 . S
C46 N47 1.347 . S
C46 H57 0.929 . S
N47 C45 1.375 . S
N47 C46 1.347 . S
C48 C51 1.365 . S
C48 N53 1.328 . S
C48 H54 0.929 . S
C49 C50 1.362 . S
C49 C52 1.378 . S
C49 H64 0.929 . S
C50 C49 1.362 . S
C50 C51 1.366 . S
C51 C48 1.365 . S
C51 C50 1.366 . S
C51 H65 0.930 . S
C52 C49 1.378 . S
C52 N53 1.315 . S
C52 H55 0.930 . S
N53 Co33 2.194 . S
N53 C48 1.328 . S
N53 C52 1.315 . S
H54 C48 0.929 . S
H55 C52 0.930 . S
H56 C44 0.929 . S
H57 C46 0.929 . S
O58 Co33 2.351 . S
O58 C61 1.244 . S
O59 Co33 2.155 . S
O59 C61 1.240 . S
O60 Co33 2.096 . S
O60 C41 1.247 . S
C61 O58 1.244 . S
C61 O59 1.240 . S
H62 C36 0.931 . S
H63 C45 0.931 . S
H64 C49 0.929 . S
H65 C51 0.930 . S
Co66 N70 2.148 1_556 S
Co66 N76 2.128 . S
Co66 N86 2.194 . S
Co66 O91 2.351 . S
Co66 O92 2.155 . S
Co66 O93 2.096 . S
C67 N70 1.301 . S
C67 N71 1.328 . S
C67 H72 0.930 . S
C68 C69 1.333 . S
C68 N70 1.317 . S
C68 H73 0.930 . S
C69 C68 1.333 . S
C69 N71 1.350 . S
C69 H95 0.931 . S
N70 Co66 2.148 1_554 S
N70 C67 1.301 . S
N70 C68 1.317 . S
N71 C67 1.328 . S
N71 C69 1.350 . S
H72 C67 0.930 . S
H73 C68 0.930 . S
C74 O75 1.224 . S
C74 O93 1.247 . S
O75 C74 1.224 . S
N76 Co66 2.128 . S
N76 C77 1.355 . S
N76 C79 1.311 . S
C77 N76 1.355 . S
C77 C78 1.363 . S
C77 H89 0.929 . S
C78 C77 1.363 . S
C78 N80 1.375 . S
C78 H96 0.931 . S
C79 N76 1.311 . S
C79 N80 1.347 . S
C79 H90 0.929 . S
N80 C78 1.375 . S
N80 C79 1.347 . S
C81 C84 1.365 . S
C81 N86 1.328 . S
C81 H87 0.929 . S
C82 C83 1.362 . S
C82 C85 1.378 . S
C82 H97 0.929 . S
C83 C82 1.362 . S
C83 C84 1.366 . S
C84 C81 1.365 . S
C84 C83 1.366 . S
C84 H98 0.930 . S
C85 C82 1.378 . S
C85 N86 1.315 . S
C85 H88 0.930 . S
N86 Co66 2.194 . S
N86 C81 1.328 . S
N86 C85 1.315 . S
H87 C81 0.929 . S
H88 C85 0.930 . S
H89 C77 0.929 . S
H90 C79 0.929 . S
O91 Co66 2.351 . S
O91 C94 1.244 . S
O92 Co66 2.155 . S
O92 C94 1.240 . S
O93 Co66 2.096 . S
O93 C74 1.247 . S
C94 O91 1.244 . S
C94 O92 1.240 . S
H95 C69 0.931 . S
H96 C78 0.931 . S
H97 C82 0.929 . S
H98 C84 0.930 . S
Co99 N103 2.148 . S
Co99 N109 2.128 1_556 S
Co99 N119 2.194 . S
Co99 O124 2.351 . S
Co99 O125 2.155 . S
Co99 O126 2.096 . S
C100 N103 1.301 . S
C100 N104 1.328 . S
C100 H105 0.930 . S
C101 C102 1.333 . S
C101 N103 1.317 . S
C101 H106 0.930 . S
C102 C101 1.333 . S
C102 N104 1.350 . S
C102 H128 0.931 . S
N103 Co99 2.148 . S
N103 C100 1.301 . S
N103 C101 1.317 . S
N104 C100 1.328 . S
N104 C102 1.350 . S
H105 C100 0.930 . S
H106 C101 0.930 . S
C107 O108 1.224 . S
C107 O126 1.247 . S
O108 C107 1.224 . S
N109 Co99 2.128 1_554 S
N109 C110 1.355 . S
N109 C112 1.311 . S
C110 N109 1.355 . S
C110 C111 1.363 . S
C110 H122 0.929 . S
C111 C110 1.363 . S
C111 N113 1.375 . S
C111 H129 0.931 . S
C112 N109 1.311 . S
C112 N113 1.347 . S
C112 H123 0.929 . S
N113 C111 1.375 . S
N113 C112 1.347 . S
C114 C117 1.365 . S
C114 N119 1.328 . S
C114 H120 0.929 . S
C115 C116 1.362 . S
C115 C118 1.378 . S
C115 H130 0.929 . S
C116 C115 1.362 . S
C116 C117 1.366 . S
C117 C114 1.365 . S
C117 C116 1.366 . S
C117 H131 0.930 . S
C118 C115 1.378 . S
C118 N119 1.315 . S
C118 H121 0.930 . S
N119 Co99 2.194 . S
N119 C114 1.328 . S
N119 C118 1.315 . S
H120 C114 0.929 . S
H121 C118 0.930 . S
H122 C110 0.929 . S
H123 C112 0.929 . S
O124 Co99 2.351 . S
O124 C127 1.244 . S
O125 Co99 2.155 . S
O125 C127 1.240 . S
O126 Co99 2.096 . S
O126 C107 1.247 . S
C127 O124 1.244 . S
C127 O125 1.240 . S
H128 C102 0.931 . S
H129 C111 0.931 . S
H130 C115 0.929 . S
H131 C117 0.930 . S
Co132 N136 2.148 . S
Co132 N142 2.128 . S
Co132 N152 2.194 . S
Co132 O157 2.351 . S
Co132 O158 2.155 . S
Co132 O159 2.096 . S
C133 N136 1.301 . S
C133 N137 1.328 . S
C133 H138 0.930 . S
C134 C135 1.333 . S
C134 N136 1.317 . S
C134 H139 0.930 . S
C135 C134 1.333 . S
C135 N137 1.350 . S
C135 H161 0.931 . S
N136 Co132 2.148 . S
N136 C133 1.301 . S
N136 C134 1.317 . S
N137 C133 1.328 . S
N137 C135 1.350 . S
H138 C133 0.930 . S
H139 C134 0.930 . S
C140 O141 1.224 . S
C140 O159 1.247 . S
O141 C140 1.224 . S
N142 Co132 2.128 . S
N142 C143 1.355 . S
N142 C145 1.311 . S
C143 N142 1.355 . S
C143 C144 1.363 . S
C143 H155 0.929 . S
C144 C143 1.363 . S
C144 N146 1.375 . S
C144 H162 0.931 . S
C145 N142 1.311 . S
C145 N146 1.347 . S
C145 H156 0.929 . S
N146 C144 1.375 . S
N146 C145 1.347 . S
C147 C150 1.365 . S
C147 N152 1.328 . S
C147 H153 0.929 . S
C148 C149 1.362 . S
C148 C151 1.378 . S
C148 H163 0.929 . S
C149 C148 1.362 . S
C149 C150 1.366 . S
C150 C147 1.365 . S
C150 C149 1.366 . S
C150 H164 0.930 . S
C151 C148 1.378 . S
C151 N152 1.315 . S
C151 H154 0.930 . S
N152 Co132 2.194 . S
N152 C147 1.328 . S
N152 C151 1.315 . S
H153 C147 0.929 . S
H154 C151 0.930 . S
H155 C143 0.929 . S
H156 C145 0.929 . S
O157 Co132 2.351 . S
O157 C160 1.244 . S
O158 Co132 2.155 . S
O158 C160 1.240 . S
O159 Co132 2.096 . S
O159 C140 1.247 . S
C160 O157 1.244 . S
C160 O158 1.240 . S
H161 C135 0.931 . S
H162 C144 0.931 . S
H163 C148 0.929 . S
H164 C150 0.930 . S
Co165 N169 2.148 . S
Co165 N175 2.128 . S
Co165 N185 2.194 . S
Co165 O190 2.351 . S
Co165 O191 2.155 . S
Co165 O192 2.096 . S
C166 N169 1.301 . S
C166 N170 1.328 . S
C166 H171 0.930 . S
C167 C168 1.333 . S
C167 N169 1.317 . S
C167 H172 0.930 . S
C168 C167 1.333 . S
C168 N170 1.350 . S
C168 H194 0.931 . S
N169 Co165 2.148 . S
N169 C166 1.301 . S
N169 C167 1.317 . S
N170 C166 1.328 . S
N170 C168 1.350 . S
H171 C166 0.930 . S
H172 C167 0.930 . S
C173 O174 1.224 . S
C173 O192 1.247 . S
O174 C173 1.224 . S
N175 Co165 2.128 . S
N175 C176 1.355 . S
N175 C178 1.311 . S
C176 N175 1.355 . S
C176 C177 1.363 . S
C176 H188 0.929 . S
C177 C176 1.363 . S
C177 N179 1.375 . S
C177 H195 0.931 . S
C178 N175 1.311 . S
C178 N179 1.347 . S
C178 H189 0.929 . S
N179 C177 1.375 . S
N179 C178 1.347 . S
C180 C183 1.365 . S
C180 N185 1.328 . S
C180 H186 0.929 . S
C181 C182 1.362 . S
C181 C184 1.378 . S
C181 H196 0.929 . S
C182 C181 1.362 . S
C182 C183 1.366 . S
C183 C180 1.365 . S
C183 C182 1.366 . S
C183 H197 0.930 . S
C184 C181 1.378 . S
C184 N185 1.315 . S
C184 H187 0.930 . S
N185 Co165 2.194 . S
N185 C180 1.328 . S
N185 C184 1.315 . S
H186 C180 0.929 . S
H187 C184 0.930 . S
H188 C176 0.929 . S
H189 C178 0.929 . S
O190 Co165 2.351 . S
O190 C193 1.244 . S
O191 Co165 2.155 . S
O191 C193 1.240 . S
O192 Co165 2.096 . S
O192 C173 1.247 . S
C193 O190 1.244 . S
C193 O191 1.240 . S
H194 C168 0.931 . S
H195 C177 0.931 . S
H196 C181 0.929 . S
H197 C183 0.930 . S
Co198 N202 2.148 . S
Co198 N208 2.128 . S
Co198 N218 2.194 . S
Co198 O223 2.351 . S
Co198 O224 2.155 . S
Co198 O225 2.096 . S
C199 N202 1.301 . S
C199 N203 1.328 . S
C199 H204 0.930 . S
C200 C201 1.333 . S
C200 N202 1.317 . S
C200 H205 0.930 . S
C201 C200 1.333 . S
C201 N203 1.350 . S
C201 H227 0.931 . S
N202 Co198 2.148 . S
N202 C199 1.301 . S
N202 C200 1.317 . S
N203 C199 1.328 . S
N203 C201 1.350 . S
H204 C199 0.930 . S
H205 C200 0.930 . S
C206 O207 1.224 . S
C206 O225 1.247 . S
O207 C206 1.224 . S
N208 Co198 2.128 . S
N208 C209 1.355 . S
N208 C211 1.311 . S
C209 N208 1.355 . S
C209 C210 1.363 . S
C209 H221 0.929 . S
C210 C209 1.363 . S
C210 N212 1.375 . S
C210 H228 0.931 . S
C211 N208 1.311 . S
C211 N212 1.347 . S
C211 H222 0.929 . S
N212 C210 1.375 . S
N212 C211 1.347 . S
C213 C216 1.365 . S
C213 N218 1.328 . S
C213 H219 0.929 . S
C214 C215 1.362 . S
C214 C217 1.378 . S
C214 H229 0.929 . S
C215 C214 1.362 . S
C215 C216 1.366 . S
C216 C213 1.365 . S
C216 C215 1.366 . S
C216 H230 0.930 . S
C217 C214 1.378 . S
C217 N218 1.315 . S
C217 H220 0.930 . S
N218 Co198 2.194 . S
N218 C213 1.328 . S
N218 C217 1.315 . S
H219 C213 0.929 . S
H220 C217 0.930 . S
H221 C209 0.929 . S
H222 C211 0.929 . S
O223 Co198 2.351 . S
O223 C226 1.244 . S
O224 Co198 2.155 . S
O224 C226 1.240 . S
O225 Co198 2.096 . S
O225 C206 1.247 . S
C226 O223 1.244 . S
C226 O224 1.240 . S
H227 C201 0.931 . S
H228 C210 0.931 . S
H229 C214 0.929 . S
H230 C216 0.930 . S
Co231 N235 2.148 . S
Co231 N241 2.128 . S
Co231 N251 2.194 . S
Co231 O256 2.351 . S
Co231 O257 2.155 . S
Co231 O258 2.096 . S
C232 N235 1.301 . S
C232 N236 1.328 . S
C232 H237 0.930 . S
C233 C234 1.333 . S
C233 N235 1.317 . S
C233 H238 0.930 . S
C234 C233 1.333 . S
C234 N236 1.350 . S
C234 H260 0.931 . S
N235 Co231 2.148 . S
N235 C232 1.301 . S
N235 C233 1.317 . S
N236 C232 1.328 . S
N236 C234 1.350 . S
H237 C232 0.930 . S
H238 C233 0.930 . S
C239 O240 1.224 . S
C239 O258 1.247 . S
O240 C239 1.224 . S
N241 Co231 2.128 . S
N241 C242 1.355 . S
N241 C244 1.311 . S
C242 N241 1.355 . S
C242 C243 1.363 . S
C242 H254 0.929 . S
C243 C242 1.363 . S
C243 N245 1.375 . S
C243 H261 0.931 . S
C244 N241 1.311 . S
C244 N245 1.347 . S
C244 H255 0.929 . S
N245 C243 1.375 . S
N245 C244 1.347 . S
C246 C249 1.365 . S
C246 N251 1.328 . S
C246 H252 0.929 . S
C247 C248 1.362 . S
C247 C250 1.378 . S
C247 H262 0.929 . S
C248 C247 1.362 . S
C248 C249 1.366 . S
C249 C246 1.365 . S
C249 C248 1.366 . S
C249 H263 0.930 . S
C250 C247 1.378 . S
C250 N251 1.315 . S
C250 H253 0.930 . S
N251 Co231 2.194 . S
N251 C246 1.328 . S
N251 C250 1.315 . S
H252 C246 0.929 . S
H253 C250 0.930 . S
H254 C242 0.929 . S
H255 C244 0.929 . S
O256 Co231 2.351 . S
O256 C259 1.244 . S
O257 Co231 2.155 . S
O257 C259 1.240 . S
O258 Co231 2.096 . S
O258 C239 1.247 . S
C259 O256 1.244 . S
C259 O257 1.240 . S
H260 C234 0.931 . S
H261 C243 0.931 . S
H262 C247 0.929 . S
H263 C249 0.930 . S
Co264 N268 2.148 . S
Co264 N274 2.128 . S
Co264 N284 2.194 . S
Co264 O289 2.351 . S
Co264 O290 2.155 . S
Co264 O291 2.096 . S
C265 N268 1.301 . S
C265 N269 1.328 . S
C265 H270 0.930 . S
C266 C267 1.333 . S
C266 N268 1.317 . S
C266 H271 0.930 . S
C267 C266 1.333 . S
C267 N269 1.350 . S
C267 H293 0.931 . S
N268 Co264 2.148 . S
N268 C265 1.301 . S
N268 C266 1.317 . S
N269 C265 1.328 . S
N269 C267 1.350 . S
H270 C265 0.930 . S
H271 C266 0.930 . S
C272 O273 1.224 . S
C272 O291 1.247 . S
O273 C272 1.224 . S
N274 Co264 2.128 . S
N274 C275 1.355 . S
N274 C277 1.311 . S
C275 N274 1.355 . S
C275 C276 1.363 . S
C275 H287 0.929 . S
C276 C275 1.363 . S
C276 N278 1.375 . S
C276 H294 0.931 . S
C277 N274 1.311 . S
C277 N278 1.347 . S
C277 H288 0.929 . S
N278 C276 1.375 . S
N278 C277 1.347 . S
C279 C282 1.365 . S
C279 N284 1.328 . S
C279 H285 0.929 . S
C280 C281 1.362 . S
C280 C283 1.378 . S
C280 H295 0.929 . S
C281 C280 1.362 . S
C281 C282 1.366 . S
C282 C279 1.365 . S
C282 C281 1.366 . S
C282 H296 0.930 . S
C283 C280 1.378 . S
C283 N284 1.315 . S
C283 H286 0.930 . S
N284 Co264 2.194 . S
N284 C279 1.328 . S
N284 C283 1.315 . S
H285 C279 0.929 . S
H286 C283 0.930 . S
H287 C275 0.929 . S
H288 C277 0.929 . S
O289 Co264 2.351 . S
O289 C292 1.244 . S
O290 Co264 2.155 . S
O290 C292 1.240 . S
O291 Co264 2.096 . S
O291 C272 1.247 . S
C292 O289 1.244 . S
C292 O290 1.240 . S
H293 C267 0.931 . S
H294 C276 0.931 . S
H295 C280 0.929 . S
H296 C282 0.930 . S
Co297 N301 2.148 . S
Co297 N307 2.128 . S
Co297 N317 2.194 . S
Co297 O322 2.351 . S
Co297 O323 2.155 . S
Co297 O324 2.096 . S
C298 N301 1.301 . S
C298 N302 1.328 . S
C298 H303 0.930 . S
C299 C300 1.333 . S
C299 N301 1.317 . S
C299 H304 0.930 . S
C300 C299 1.333 . S
C300 N302 1.350 . S
C300 H326 0.931 . S
N301 Co297 2.148 . S
N301 C298 1.301 . S
N301 C299 1.317 . S
N302 C298 1.328 . S
N302 C300 1.350 . S
H303 C298 0.930 . S
H304 C299 0.930 . S
C305 O306 1.224 . S
C305 O324 1.247 . S
O306 C305 1.224 . S
N307 Co297 2.128 . S
N307 C308 1.355 . S
N307 C310 1.311 . S
C308 N307 1.355 . S
C308 C309 1.363 . S
C308 H320 0.929 . S
C309 C308 1.363 . S
C309 N311 1.375 . S
C309 H327 0.931 . S
C310 N307 1.311 . S
C310 N311 1.347 . S
C310 H321 0.929 . S
N311 C309 1.375 . S
N311 C310 1.347 . S
C312 C315 1.365 . S
C312 N317 1.328 . S
C312 H318 0.929 . S
C313 C314 1.362 . S
C313 C316 1.378 . S
C313 H328 0.929 . S
C314 C313 1.362 . S
C314 C315 1.366 . S
C315 C312 1.365 . S
C315 C314 1.366 . S
C315 H329 0.930 . S
C316 C313 1.378 . S
C316 N317 1.315 . S
C316 H319 0.930 . S
N317 Co297 2.194 . S
N317 C312 1.328 . S
N317 C316 1.315 . S
H318 C312 0.929 . S
H319 C316 0.930 . S
H320 C308 0.929 . S
H321 C310 0.929 . S
O322 Co297 2.351 . S
O322 C325 1.244 . S
O323 Co297 2.155 . S
O323 C325 1.240 . S
O324 Co297 2.096 . S
O324 C305 1.247 . S
C325 O322 1.244 . S
C325 O323 1.240 . S
H326 C300 0.931 . S
H327 C309 0.931 . S
H328 C313 0.929 . S
H329 C315 0.930 . S
Co330 N334 2.148 . S
Co330 N340 2.128 . S
Co330 N350 2.194 . S
Co330 O355 2.351 . S
Co330 O356 2.155 . S
Co330 O357 2.096 . S
C331 N334 1.301 . S
C331 N335 1.328 . S
C331 H336 0.930 . S
C332 C333 1.333 . S
C332 N334 1.317 . S
C332 H337 0.930 . S
C333 C332 1.333 . S
C333 N335 1.350 . S
C333 H359 0.931 . S
N334 Co330 2.148 . S
N334 C331 1.301 . S
N334 C332 1.317 . S
N335 C331 1.328 . S
N335 C333 1.350 . S
H336 C331 0.930 . S
H337 C332 0.930 . S
C338 O339 1.224 . S
C338 O357 1.247 . S
O339 C338 1.224 . S
N340 Co330 2.128 . S
N340 C341 1.355 . S
N340 C343 1.311 . S
C341 N340 1.355 . S
C341 C342 1.363 . S
C341 H353 0.929 . S
C342 C341 1.363 . S
C342 N344 1.375 . S
C342 H360 0.931 . S
C343 N340 1.311 . S
C343 N344 1.347 . S
C343 H354 0.929 . S
N344 C342 1.375 . S
N344 C343 1.347 . S
C345 C348 1.365 . S
C345 N350 1.328 . S
C345 H351 0.929 . S
C346 C347 1.362 . S
C346 C349 1.378 . S
C346 H361 0.929 . S
C347 C346 1.362 . S
C347 C348 1.366 . S
C348 C345 1.365 . S
C348 C347 1.366 . S
C348 H362 0.930 . S
C349 C346 1.378 . S
C349 N350 1.315 . S
C349 H352 0.930 . S
N350 Co330 2.194 . S
N350 C345 1.328 . S
N350 C349 1.315 . S
H351 C345 0.929 . S
H352 C349 0.930 . S
H353 C341 0.929 . S
H354 C343 0.929 . S
O355 Co330 2.351 . S
O355 C358 1.244 . S
O356 Co330 2.155 . S
O356 C358 1.240 . S
O357 Co330 2.096 . S
O357 C338 1.247 . S
C358 O355 1.244 . S
C358 O356 1.240 . S
H359 C333 0.931 . S
H360 C342 0.931 . S
H361 C346 0.929 . S
H362 C348 0.930 . S
Co363 N367 2.148 . S
Co363 N373 2.128 . S
Co363 N383 2.194 . S
Co363 O388 2.351 . S
Co363 O389 2.155 . S
Co363 O390 2.096 . S
C364 N367 1.301 . S
C364 N368 1.328 . S
C364 H369 0.930 . S
C365 C366 1.333 . S
C365 N367 1.317 . S
C365 H370 0.930 . S
C366 C365 1.333 . S
C366 N368 1.350 . S
C366 H392 0.931 . S
N367 Co363 2.148 . S
N367 C364 1.301 . S
N367 C365 1.317 . S
N368 C364 1.328 . S
N368 C366 1.350 . S
H369 C364 0.930 . S
H370 C365 0.930 . S
C371 O372 1.224 . S
C371 O390 1.247 . S
O372 C371 1.224 . S
N373 Co363 2.128 . S
N373 C374 1.355 . S
N373 C376 1.311 . S
C374 N373 1.355 . S
C374 C375 1.363 . S
C374 H386 0.929 . S
C375 C374 1.363 . S
C375 N377 1.375 . S
C375 H393 0.931 . S
C376 N373 1.311 . S
C376 N377 1.347 . S
C376 H387 0.929 . S
N377 C375 1.375 . S
N377 C376 1.347 . S
C378 C381 1.365 . S
C378 N383 1.328 . S
C378 H384 0.929 . S
C379 C380 1.362 . S
C379 C382 1.378 . S
C379 H394 0.929 . S
C380 C379 1.362 . S
C380 C381 1.366 . S
C381 C378 1.365 . S
C381 C380 1.366 . S
C381 H395 0.930 . S
C382 C379 1.378 . S
C382 N383 1.315 . S
C382 H385 0.930 . S
N383 Co363 2.194 . S
N383 C378 1.328 . S
N383 C382 1.315 . S
H384 C378 0.929 . S
H385 C382 0.930 . S
H386 C374 0.929 . S
H387 C376 0.929 . S
O388 Co363 2.351 . S
O388 C391 1.244 . S
O389 Co363 2.155 . S
O389 C391 1.240 . S
O390 Co363 2.096 . S
O390 C371 1.247 . S
C391 O388 1.244 . S
C391 O389 1.240 . S
H392 C366 0.931 . S
H393 C375 0.931 . S
H394 C379 0.929 . S
H395 C381 0.930 . S
Co396 N400 2.148 1_554 S
Co396 N406 2.128 . S
Co396 N416 2.194 . S
Co396 O421 2.351 . S
Co396 O422 2.155 . S
Co396 O423 2.096 . S
C397 N400 1.301 . S
C397 N401 1.328 . S
C397 H402 0.930 . S
C398 C399 1.333 . S
C398 N400 1.317 . S
C398 H403 0.930 . S
C399 C398 1.333 . S
C399 N401 1.350 . S
C399 H425 0.931 . S
N400 Co396 2.148 1_556 S
N400 C397 1.301 . S
N400 C398 1.317 . S
N401 C397 1.328 . S
N401 C399 1.350 . S
H402 C397 0.930 . S
H403 C398 0.930 . S
C404 O405 1.224 . S
C404 O423 1.247 . S
O405 C404 1.224 . S
N406 Co396 2.128 . S
N406 C407 1.355 . S
N406 C409 1.311 . S
C407 N406 1.355 . S
C407 C408 1.363 . S
C407 H419 0.929 . S
C408 C407 1.363 . S
C408 N410 1.375 . S
C408 H426 0.931 . S
C409 N406 1.311 . S
C409 N410 1.347 . S
C409 H420 0.929 . S
N410 C408 1.375 . S
N410 C409 1.347 . S
C411 C414 1.365 . S
C411 N416 1.328 . S
C411 H417 0.929 . S
C412 C413 1.362 . S
C412 C415 1.378 . S
C412 H427 0.929 . S
C413 C412 1.362 . S
C413 C414 1.366 . S
C414 C411 1.365 . S
C414 C413 1.366 . S
C414 H428 0.930 . S
C415 C412 1.378 . S
C415 N416 1.315 . S
C415 H418 0.930 . S
N416 Co396 2.194 . S
N416 C411 1.328 . S
N416 C415 1.315 . S
H417 C411 0.929 . S
H418 C415 0.930 . S
H419 C407 0.929 . S
H420 C409 0.929 . S
O421 Co396 2.351 . S
O421 C424 1.244 . S
O422 Co396 2.155 . S
O422 C424 1.240 . S
O423 Co396 2.096 . S
O423 C404 1.247 . S
C424 O421 1.244 . S
C424 O422 1.240 . S
H425 C399 0.931 . S
H426 C408 0.931 . S
H427 C412 0.929 . S
H428 C414 0.930 . S
Co429 N433 2.148 . S
Co429 N439 2.128 1_554 S
Co429 N449 2.194 . S
Co429 O454 2.351 . S
Co429 O455 2.155 . S
Co429 O456 2.096 . S
C430 N433 1.301 . S
C430 N434 1.328 . S
C430 H435 0.930 . S
C431 C432 1.333 . S
C431 N433 1.317 . S
C431 H436 0.930 . S
C432 C431 1.333 . S
C432 N434 1.350 . S
C432 H458 0.931 . S
N433 Co429 2.148 . S
N433 C430 1.301 . S
N433 C431 1.317 . S
N434 C430 1.328 . S
N434 C432 1.350 . S
H435 C430 0.930 . S
H436 C431 0.930 . S
C437 O438 1.224 . S
C437 O456 1.247 . S
O438 C437 1.224 . S
N439 Co429 2.128 1_556 S
N439 C440 1.355 . S
N439 C442 1.311 . S
C440 N439 1.355 . S
C440 C441 1.363 . S
C440 H452 0.929 . S
C441 C440 1.363 . S
C441 N443 1.375 . S
C441 H459 0.931 . S
C442 N439 1.311 . S
C442 N443 1.347 . S
C442 H453 0.929 . S
N443 C441 1.375 . S
N443 C442 1.347 . S
C444 C447 1.365 . S
C444 N449 1.328 . S
C444 H450 0.929 . S
C445 C446 1.362 . S
C445 C448 1.378 . S
C445 H460 0.929 . S
C446 C445 1.362 . S
C446 C447 1.366 . S
C447 C444 1.365 . S
C447 C446 1.366 . S
C447 H461 0.930 . S
C448 C445 1.378 . S
C448 N449 1.315 . S
C448 H451 0.930 . S
N449 Co429 2.194 . S
N449 C444 1.328 . S
N449 C448 1.315 . S
H450 C444 0.929 . S
H451 C448 0.930 . S
H452 C440 0.929 . S
H453 C442 0.929 . S
O454 Co429 2.351 . S
O454 C457 1.244 . S
O455 Co429 2.155 . S
O455 C457 1.240 . S
O456 Co429 2.096 . S
O456 C437 1.247 . S
C457 O454 1.244 . S
C457 O455 1.240 . S
H458 C432 0.931 . S
H459 C441 0.931 . S
H460 C445 0.929 . S
H461 C447 0.930 . S
Co462 N466 2.148 1_556 S
Co462 N472 2.128 . S
Co462 N482 2.194 . S
Co462 O487 2.351 . S
Co462 O488 2.155 . S
Co462 O489 2.096 . S
C463 N466 1.301 . S
C463 N467 1.328 . S
C463 H468 0.930 . S
C464 C465 1.333 . S
C464 N466 1.317 . S
C464 H469 0.930 . S
C465 C464 1.333 . S
C465 N467 1.350 . S
C465 H491 0.931 . S
N466 Co462 2.148 1_554 S
N466 C463 1.301 . S
N466 C464 1.317 . S
N467 C463 1.328 . S
N467 C465 1.350 . S
H468 C463 0.930 . S
H469 C464 0.930 . S
C470 O471 1.224 . S
C470 O489 1.247 . S
O471 C470 1.224 . S
N472 Co462 2.128 . S
N472 C473 1.355 . S
N472 C475 1.311 . S
C473 N472 1.355 . S
C473 C474 1.363 . S
C473 H485 0.929 . S
C474 C473 1.363 . S
C474 N476 1.375 . S
C474 H492 0.931 . S
C475 N472 1.311 . S
C475 N476 1.347 . S
C475 H486 0.929 . S
N476 C474 1.375 . S
N476 C475 1.347 . S
C477 C480 1.365 . S
C477 N482 1.328 . S
C477 H483 0.929 . S
C478 C479 1.362 . S
C478 C481 1.378 . S
C478 H493 0.929 . S
C479 C478 1.362 . S
C479 C480 1.366 . S
C480 C477 1.365 . S
C480 C479 1.366 . S
C480 H494 0.930 . S
C481 C478 1.378 . S
C481 N482 1.315 . S
C481 H484 0.930 . S
N482 Co462 2.194 . S
N482 C477 1.328 . S
N482 C481 1.315 . S
H483 C477 0.929 . S
H484 C481 0.930 . S
H485 C473 0.929 . S
H486 C475 0.929 . S
O487 Co462 2.351 . S
O487 C490 1.244 . S
O488 Co462 2.155 . S
O488 C490 1.240 . S
O489 Co462 2.096 . S
O489 C470 1.247 . S
C490 O487 1.244 . S
C490 O488 1.240 . S
H491 C465 0.931 . S
H492 C474 0.931 . S
H493 C478 0.929 . S
H494 C480 0.930 . S
Co495 N499 2.148 . S
Co495 N505 2.128 1_556 S
Co495 N515 2.194 . S
Co495 O520 2.351 . S
Co495 O521 2.155 . S
Co495 O522 2.096 . S
C496 N499 1.301 . S
C496 N500 1.328 . S
C496 H501 0.930 . S
C497 C498 1.333 . S
C497 N499 1.317 . S
C497 H502 0.930 . S
C498 C497 1.333 . S
C498 N500 1.350 . S
C498 H524 0.931 . S
N499 Co495 2.148 . S
N499 C496 1.301 . S
N499 C497 1.317 . S
N500 C496 1.328 . S
N500 C498 1.350 . S
H501 C496 0.930 . S
H502 C497 0.930 . S
C503 O504 1.224 . S
C503 O522 1.247 . S
O504 C503 1.224 . S
N505 Co495 2.128 1_554 S
N505 C506 1.355 . S
N505 C508 1.311 . S
C506 N505 1.355 . S
C506 C507 1.363 . S
C506 H518 0.929 . S
C507 C506 1.363 . S
C507 N509 1.375 . S
C507 H525 0.931 . S
C508 N505 1.311 . S
C508 N509 1.347 . S
C508 H519 0.929 . S
N509 C507 1.375 . S
N509 C508 1.347 . S
C510 C513 1.365 . S
C510 N515 1.328 . S
C510 H516 0.929 . S
C511 C512 1.362 . S
C511 C514 1.378 . S
C511 H526 0.929 . S
C512 C511 1.362 . S
C512 C513 1.366 . S
C513 C510 1.365 . S
C513 C512 1.366 . S
C513 H527 0.930 . S
C514 C511 1.378 . S
C514 N515 1.315 . S
C514 H517 0.930 . S
N515 Co495 2.194 . S
N515 C510 1.328 . S
N515 C514 1.315 . S
H516 C510 0.929 . S
H517 C514 0.930 . S
H518 C506 0.929 . S
H519 C508 0.929 . S
O520 Co495 2.351 . S
O520 C523 1.244 . S
O521 Co495 2.155 . S
O521 C523 1.240 . S
O522 Co495 2.096 . S
O522 C503 1.247 . S
C523 O520 1.244 . S
C523 O521 1.240 . S
H524 C498 0.931 . S
H525 C507 0.931 . S
H526 C511 0.929 . S
H527 C513 0.930 . S
C528 C529 1.369 . S
C528 C530 1.419 . S
C528 H532 0.930 . S
C529 C528 1.369 . S
C529 C538 1.429 . S
C530 C528 1.419 . S
C530 C531 1.363 . S
C530 H533 0.929 . S
C531 C530 1.363 . S
C531 C537 1.428 . S
H532 C528 0.930 . S
H533 C530 0.929 . S
S534 N535 1.613 . S
S534 N536 1.610 . S
N535 S534 1.613 . S
N535 C538 1.350 . S
N536 S534 1.610 . S
N536 C537 1.351 . S
C537 C531 1.428 . S
C537 N536 1.351 . S
C537 C538 1.434 . S
C538 C529 1.429 . S
C538 N535 1.350 . S
C538 C537 1.434 . S
C539 C540 1.369 . S
C539 C541 1.419 1_455 S
C539 H543 0.930 . S
C540 C539 1.369 . S
C540 C549 1.428 1_455 S
C541 C539 1.419 1_655 S
C541 C542 1.363 . S
C541 H544 0.929 . S
C542 C541 1.363 . S
C542 C548 1.428 . S
H543 C539 0.930 . S
H544 C541 0.929 . S
S545 N546 1.613 . S
S545 N547 1.610 . S
N546 S545 1.613 . S
N546 C549 1.350 . S
N547 S545 1.610 . S
N547 C548 1.351 . S
C548 C542 1.428 . S
C548 N547 1.351 . S
C548 C549 1.435 . S
C549 C540 1.428 1_655 S
C549 N546 1.350 . S
C549 C548 1.435 . S
C550 C551 1.369 . S
C550 C552 1.419 1_556 S
C550 H554 0.930 . S
C551 C550 1.369 . S
C551 C560 1.429 . S
C552 C550 1.419 1_554 S
C552 C553 1.363 . S
C552 H555 0.929 . S
C553 C552 1.363 . S
C553 C559 1.428 . S
H554 C550 0.930 . S
H555 C552 0.929 . S
S556 N557 1.613 1_554 S
S556 N558 1.610 . S
N557 S556 1.613 1_556 S
N557 C560 1.350 . S
N558 S556 1.610 . S
N558 C559 1.351 . S
C559 C553 1.428 . S
C559 N558 1.351 . S
C559 C560 1.434 1_554 S
C560 C551 1.429 . S
C560 N557 1.350 . S
C560 C559 1.434 1_556 S
C561 C562 1.369 1_554 S
C561 C563 1.419 . S
C561 H565 0.930 . S
C562 C561 1.369 1_556 S
C562 C571 1.429 1_655 S
C563 C561 1.419 . S
C563 C564 1.363 1_655 S
C563 H566 0.929 . S
C564 C563 1.363 1_455 S
C564 C570 1.428 1_554 S
H565 C561 0.930 . S
H566 C563 0.929 . S
S567 N568 1.613 . S
S567 N569 1.610 . S
N568 S567 1.613 . S
N568 C571 1.350 . S
N569 S567 1.610 . S
N569 C570 1.351 . S
C570 C564 1.428 1_556 S
C570 N569 1.351 . S
C570 C571 1.434 . S
C571 C562 1.429 1_455 S
C571 N568 1.350 . S
C571 C570 1.434 . S
C572 C573 1.369 . S
C572 C574 1.419 . S
C572 H576 0.930 . S
C573 C572 1.369 . S
C573 C582 1.429 . S
C574 C572 1.419 . S
C574 C575 1.363 . S
C574 H577 0.929 . S
C575 C574 1.363 . S
C575 C581 1.428 . S
H576 C572 0.930 . S
H577 C574 0.929 . S
S578 N579 1.613 . S
S578 N580 1.610 . S
N579 S578 1.613 . S
N579 C582 1.350 . S
N580 S578 1.610 . S
N580 C581 1.351 . S
C581 C575 1.428 . S
C581 N580 1.351 . S
C581 C582 1.434 . S
C582 C573 1.429 . S
C582 N579 1.350 . S
C582 C581 1.434 . S
C583 C584 1.371 1_655 S
C583 C585 1.417 . S
C583 H587 0.930 . S
C584 C583 1.371 1_455 S
C584 C593 1.429 . S
C585 C583 1.417 . S
C585 C586 1.363 . S
C585 H588 0.929 . S
C586 C585 1.363 . S
C586 C592 1.403 1_655 S
H587 C583 0.930 . S
H588 C585 0.929 . S
S589 N590 1.613 . S
S589 N591 1.610 . S
N590 S589 1.613 . S
N590 C593 1.350 . S
N591 S589 1.610 . S
N591 C592 1.355 . S
C592 C586 1.403 1_455 S
C592 N591 1.355 . S
C592 C593 1.458 . S
C593 C584 1.429 . S
C593 N590 1.350 . S
C593 C592 1.458 . S
C594 C595 1.369 . S
C594 C596 1.419 . S
C594 H598 0.930 . S
C595 C594 1.369 . S
C595 C604 1.429 1_554 S
C596 C594 1.419 . S
C596 C597 1.363 1_554 S
C596 H599 0.929 . S
C597 C596 1.363 1_556 S
C597 C603 1.428 . S
H598 C594 0.930 . S
H599 C596 0.929 . S
S600 N601 1.613 . S
S600 N602 1.610 . S
N601 S600 1.613 . S
N601 C604 1.350 . S
N602 S600 1.610 . S
N602 C603 1.351 . S
C603 C597 1.428 . S
C603 N602 1.351 . S
C603 C604 1.434 . S
C604 C595 1.429 1_556 S
C604 N601 1.350 . S
C604 C603 1.434 . S
C605 C606 1.369 1_545 S
C605 C607 1.419 . S
C605 H609 0.930 . S
C606 C605 1.369 1_565 S
C606 C615 1.429 . S
C607 C605 1.419 . S
C607 C608 1.363 . S
C607 H610 0.929 . S
C608 C607 1.363 . S
C608 C614 1.428 1_545 S
H609 C605 0.930 . S
H610 C607 0.929 . S
S611 N612 1.613 . S
S611 N613 1.610 . S
N612 S611 1.613 . S
N612 C615 1.350 . S
N613 S611 1.610 . S
N613 C614 1.351 . S
C614 C608 1.428 1_565 S
C614 N613 1.351 . S
C614 C615 1.434 . S
C615 C606 1.429 . S
C615 N612 1.350 . S
C615 C614 1.434 . S
C616 C617 1.369 . S
C616 C618 1.419 . S
C616 H620 0.930 . S
C617 C616 1.369 . S
C617 C626 1.429 . S
C618 C616 1.419 . S
C618 C619 1.363 . S
C618 H621 0.929 . S
C619 C618 1.363 . S
C619 C625 1.428 . S
H620 C616 0.930 . S
H621 C618 0.929 . S
S622 N623 1.613 . S
S622 N624 1.610 . S
N623 S622 1.613 . S
N623 C626 1.350 . S
N624 S622 1.610 . S
N624 C625 1.351 . S
C625 C619 1.428 . S
C625 N624 1.351 . S
C625 C626 1.434 . S
C626 C617 1.429 . S
C626 N623 1.350 . S
C626 C625 1.434 . S
C627 C628 1.357 1_545 S
C627 C629 1.430 . S
C627 H631 0.932 . S
C628 C627 1.357 1_565 S
C628 C637 1.429 1_655 S
C629 C627 1.430 . S
C629 C630 1.363 1_655 S
C629 H632 0.929 . S
C630 C629 1.363 1_455 S
C630 C636 1.390 1_545 S
H631 C627 0.932 . S
H632 C629 0.929 . S
S633 N634 1.613 . S
S633 N635 1.610 . S
N634 S633 1.613 . S
N634 C637 1.350 . S
N635 S633 1.610 . S
N635 C636 1.364 . S
C636 C630 1.390 1_565 S
C636 N635 1.364 . S
C636 C637 1.472 . S
C637 C628 1.429 1_455 S
C637 N634 1.350 . S
C637 C636 1.472 . S
C638 C639 1.369 1_565 S
C638 C640 1.419 . S
C638 H642 0.930 . S
C639 C638 1.369 1_545 S
C639 C648 1.429 . S
C640 C638 1.419 . S
C640 C641 1.363 . S
C640 H643 0.929 . S
C641 C640 1.363 . S
C641 C647 1.428 1_565 S
H642 C638 0.930 . S
H643 C640 0.929 . S
S644 N645 1.613 . S
S644 N646 1.610 . S
N645 S644 1.613 . S
N645 C648 1.350 . S
N646 S644 1.610 . S
N646 C647 1.351 . S
C647 C641 1.428 1_545 S
C647 N646 1.351 . S
C647 C648 1.434 . S
C648 C639 1.429 . S
C648 N645 1.350 . S
C648 C647 1.434 . S
C649 C650 1.369 . S
C649 C651 1.419 . S
C649 H653 0.930 . S
C650 C649 1.369 . S
C650 C659 1.429 . S
C651 C649 1.419 . S
C651 C652 1.363 . S
C651 H654 0.929 . S
C652 C651 1.363 . S
C652 C658 1.428 . S
H653 C649 0.930 . S
H654 C651 0.929 . S
S655 N656 1.613 . S
S655 N657 1.610 . S
N656 S655 1.613 . S
N656 C659 1.350 . S
N657 S655 1.610 . S
N657 C658 1.351 . S
C658 C652 1.428 . S
C658 N657 1.351 . S
C658 C659 1.434 . S
C659 C650 1.429 . S
C659 N656 1.350 . S
C659 C658 1.434 . S
C660 C661 1.369 . S
C660 C662 1.419 . S
C660 H664 0.930 . S
C661 C660 1.369 . S
C661 C670 1.429 . S
C662 C660 1.419 . S
C662 C663 1.363 . S
C662 H665 0.929 . S
C663 C662 1.363 . S
C663 C669 1.428 . S
H664 C660 0.930 . S
H665 C662 0.929 . S
S666 N667 1.613 . S
S666 N668 1.610 . S
N667 S666 1.613 . S
N667 C670 1.350 . S
N668 S666 1.610 . S
N668 C669 1.351 . S
C669 C663 1.428 . S
C669 N668 1.351 . S
C669 C670 1.434 . S
C670 C661 1.429 . S
C670 N667 1.350 . S
C670 C669 1.434 . S
C671 C672 1.369 . S
C671 C673 1.419 . S
C671 H675 0.930 . S
C672 C671 1.369 . S
C672 C681 1.429 . S
C673 C671 1.419 . S
C673 C674 1.363 . S
C673 H676 0.929 . S
C674 C673 1.363 . S
C674 C680 1.428 . S
H675 C671 0.930 . S
H676 C673 0.929 . S
S677 N678 1.613 . S
S677 N679 1.610 . S
N678 S677 1.613 . S
N678 C681 1.350 . S
N679 S677 1.610 . S
N679 C680 1.351 . S
C680 C674 1.428 . S
C680 N679 1.351 . S
C680 C681 1.434 . S
C681 C672 1.429 . S
C681 N678 1.350 . S
C681 C680 1.434 . S
C682 C683 1.369 . S
C682 C684 1.419 . S
C682 H686 0.930 . S
C683 C682 1.369 . S
C683 C692 1.429 . S
C684 C682 1.419 . S
C684 C685 1.363 . S
C684 H687 0.929 . S
C685 C684 1.363 . S
C685 C691 1.428 . S
H686 C682 0.930 . S
H687 C684 0.929 . S
S688 N689 1.613 . S
S688 N690 1.610 . S
N689 S688 1.613 . S
N689 C692 1.350 . S
N690 S688 1.610 . S
N690 C691 1.351 . S
C691 C685 1.428 . S
C691 N690 1.351 . S
C691 C692 1.434 . S
C692 C683 1.429 . S
C692 N689 1.350 . S
C692 C691 1.434 . S
C693 C694 1.369 . S
C693 C695 1.419 . S
C693 H697 0.930 . S
C694 C693 1.369 . S
C694 C703 1.429 1_566 S
C695 C693 1.419 . S
C695 C696 1.363 1_566 S
C695 H698 0.929 . S
C696 C695 1.363 1_544 S
C696 C702 1.428 . S
H697 C693 0.930 . S
H698 C695 0.929 . S
S699 N700 1.613 . S
S699 N701 1.610 . S
N700 S699 1.613 . S
N700 C703 1.350 . S
N701 S699 1.610 . S
N701 C702 1.351 . S
C702 C696 1.428 . S
C702 N701 1.351 . S
C702 C703 1.434 . S
C703 C694 1.429 1_544 S
C703 N700 1.350 . S
C703 C702 1.434 . S
C704 C705 1.369 . S
C704 C706 1.419 . S
C704 H708 0.930 . S
C705 C704 1.369 . S
C705 C714 1.429 . S
C706 C704 1.419 . S
C706 C707 1.363 . S
C706 H709 0.929 . S
C707 C706 1.363 . S
C707 C713 1.428 . S
H708 C704 0.930 . S
H709 C706 0.929 . S
S710 N711 1.613 . S
S710 N712 1.610 . S
N711 S710 1.613 . S
N711 C714 1.350 . S
N712 S710 1.610 . S
N712 C713 1.351 . S
C713 C707 1.428 . S
C713 N712 1.351 . S
C713 C714 1.434 . S
C714 C705 1.429 . S
C714 N711 1.350 . S
C714 C713 1.434 . S
C715 C716 1.369 . S
C715 C717 1.419 . S
C715 H719 0.930 . S
C716 C715 1.369 . S
C716 C725 1.429 . S
C717 C715 1.419 . S
C717 C718 1.363 . S
C717 H720 0.929 . S
C718 C717 1.363 . S
C718 C724 1.428 . S
H719 C715 0.930 . S
H720 C717 0.929 . S
S721 N722 1.613 . S
S721 N723 1.610 . S
N722 S721 1.613 . S
N722 C725 1.350 . S
N723 S721 1.610 . S
N723 C724 1.351 . S
C724 C718 1.428 . S
C724 N723 1.351 . S
C724 C725 1.434 . S
C725 C716 1.429 . S
C725 N722 1.350 . S
C725 C724 1.434 . S
C726 C727 1.369 . S
C726 C728 1.419 . S
C726 H730 0.930 . S
C727 C726 1.369 . S
C727 C736 1.429 . S
C728 C726 1.419 . S
C728 C729 1.363 . S
C728 H731 0.929 . S
C729 C728 1.363 . S
C729 C735 1.428 . S
H730 C726 0.930 . S
H731 C728 0.929 . S
S732 N733 1.613 . S
S732 N734 1.610 . S
N733 S732 1.613 . S
N733 C736 1.350 . S
N734 S732 1.610 . S
N734 C735 1.351 . S
C735 C729 1.428 . S
C735 N734 1.351 . S
C735 C736 1.434 . S
C736 C727 1.429 . S
C736 N733 1.350 . S
C736 C735 1.434 . S
C737 C738 1.369 . S
C737 C739 1.419 . S
C737 H741 0.930 . S
C738 C737 1.369 . S
C738 C747 1.429 . S
C739 C737 1.419 . S
C739 C740 1.363 . S
C739 H742 0.929 . S
C740 C739 1.363 . S
C740 C746 1.428 . S
H741 C737 0.930 . S
H742 C739 0.929 . S
S743 N744 1.613 . S
S743 N745 1.610 . S
N744 S743 1.613 . S
N744 C747 1.350 . S
N745 S743 1.610 . S
N745 C746 1.351 . S
C746 C740 1.428 . S
C746 N745 1.351 . S
C746 C747 1.434 . S
C747 C738 1.429 . S
C747 N744 1.350 . S
C747 C746 1.434 . S
C748 C749 1.369 . S
C748 C750 1.419 . S
C748 H752 0.930 . S
C749 C748 1.369 . S
C749 C758 1.429 . S
C750 C748 1.419 . S
C750 C751 1.363 . S
C750 H753 0.929 . S
C751 C750 1.363 . S
C751 C757 1.428 . S
H752 C748 0.930 . S
H753 C750 0.929 . S
S754 N755 1.613 . S
S754 N756 1.610 . S
N755 S754 1.613 . S
N755 C758 1.350 . S
N756 S754 1.610 . S
N756 C757 1.351 . S
C757 C751 1.428 . S
C757 N756 1.351 . S
C757 C758 1.434 . S
C758 C749 1.429 . S
C758 N755 1.350 . S
C758 C757 1.434 . S
C759 C760 1.369 . S
C759 C761 1.419 . S
C759 H763 0.930 . S
C760 C759 1.369 . S
C760 C769 1.429 . S
C761 C759 1.419 . S
C761 C762 1.363 . S
C761 H764 0.929 . S
C762 C761 1.363 . S
C762 C768 1.428 . S
H763 C759 0.930 . S
H764 C761 0.929 . S
S765 N766 1.613 . S
S765 N767 1.610 . S
N766 S765 1.613 . S
N766 C769 1.350 . S
N767 S765 1.610 . S
N767 C768 1.351 . S
C768 C762 1.428 . S
C768 N767 1.351 . S
C768 C769 1.434 . S
C769 C760 1.429 . S
C769 N766 1.350 . S
C769 C768 1.434 . S
C770 C771 1.369 . S
C770 C772 1.419 . S
C770 H774 0.930 . S
C771 C770 1.369 . S
C771 C780 1.429 . S
C772 C770 1.419 . S
C772 C773 1.363 . S
C772 H775 0.929 . S
C773 C772 1.363 . S
C773 C779 1.428 . S
H774 C770 0.930 . S
H775 C772 0.929 . S
S776 N777 1.613 . S
S776 N778 1.610 . S
N777 S776 1.613 . S
N777 C780 1.350 . S
N778 S776 1.610 . S
N778 C779 1.351 . S
C779 C773 1.428 . S
C779 N778 1.351 . S
C779 C780 1.434 . S
C780 C771 1.429 . S
C780 N777 1.350 . S
C780 C779 1.434 . S
C781 C782 1.369 . S
C781 C783 1.419 . S
C781 H785 0.930 . S
C782 C781 1.369 . S
C782 C791 1.429 . S
C783 C781 1.419 . S
C783 C784 1.363 . S
C783 H786 0.929 . S
C784 C783 1.363 . S
C784 C790 1.428 . S
H785 C781 0.930 . S
H786 C783 0.929 . S
S787 N788 1.613 . S
S787 N789 1.610 . S
N788 S787 1.613 . S
N788 C791 1.350 . S
N789 S787 1.610 . S
N789 C790 1.351 . S
C790 C784 1.428 . S
C790 N789 1.351 . S
C790 C791 1.434 . S
C791 C782 1.429 . S
C791 N788 1.350 . S
C791 C790 1.434 . S
C792 C793 1.369 . S
C792 C794 1.419 . S
C792 H796 0.930 . S
C793 C792 1.369 . S
C793 C802 1.429 . S
C794 C792 1.419 . S
C794 C795 1.363 . S
C794 H797 0.929 . S
C795 C794 1.363 . S
C795 C801 1.428 . S
H796 C792 0.930 . S
H797 C794 0.929 . S
S798 N799 1.613 . S
S798 N800 1.610 . S
N799 S798 1.613 . S
N799 C802 1.350 . S
N800 S798 1.610 . S
N800 C801 1.351 . S
C801 C795 1.428 . S
C801 N800 1.351 . S
C801 C802 1.434 . S
C802 C793 1.429 . S
C802 N799 1.350 . S
C802 C801 1.434 . S
C803 C804 1.369 . S
C803 C805 1.419 . S
C803 H807 0.930 . S
C804 C803 1.369 . S
C804 C813 1.429 . S
C805 C803 1.419 . S
C805 C806 1.363 . S
C805 H808 0.929 . S
C806 C805 1.363 . S
C806 C812 1.428 . S
H807 C803 0.930 . S
H808 C805 0.929 . S
S809 N810 1.613 . S
S809 N811 1.610 . S
N810 S809 1.613 . S
N810 C813 1.350 . S
N811 S809 1.610 . S
N811 C812 1.351 . S
C812 C806 1.428 . S
C812 N811 1.351 . S
C812 C813 1.434 . S
C813 C804 1.429 . S
C813 N810 1.350 . S
C813 C812 1.434 . S
C814 C815 1.369 . S
C814 C816 1.419 . S
C814 H818 0.930 . S
C815 C814 1.369 . S
C815 C824 1.429 . S
C816 C814 1.419 . S
C816 C817 1.363 . S
C816 H819 0.929 . S
C817 C816 1.363 . S
C817 C823 1.428 . S
H818 C814 0.930 . S
H819 C816 0.929 . S
S820 N821 1.613 . S
S820 N822 1.610 . S
N821 S820 1.613 . S
N821 C824 1.350 . S
N822 S820 1.610 . S
N822 C823 1.351 . S
C823 C817 1.428 . S
C823 N822 1.351 . S
C823 C824 1.434 . S
C824 C815 1.429 . S
C824 N821 1.350 . S
C824 C823 1.434 . S
C825 C826 1.369 . S
C825 C827 1.419 . S
C825 H829 0.930 . S
C826 C825 1.369 . S
C826 C835 1.429 . S
C827 C825 1.419 . S
C827 C828 1.363 . S
C827 H830 0.929 . S
C828 C827 1.363 . S
C828 C834 1.428 . S
H829 C825 0.930 . S
H830 C827 0.929 . S
S831 N832 1.613 . S
S831 N833 1.610 . S
N832 S831 1.613 . S
N832 C835 1.350 . S
N833 S831 1.610 . S
N833 C834 1.351 . S
C834 C828 1.428 . S
C834 N833 1.351 . S
C834 C835 1.434 . S
C835 C826 1.429 . S
C835 N832 1.350 . S
C835 C834 1.434 . S
C836 C837 1.369 . S
C836 C838 1.419 . S
C836 H840 0.930 . S
C837 C836 1.369 . S
C837 C846 1.429 . S
C838 C836 1.419 . S
C838 C839 1.363 . S
C838 H841 0.929 . S
C839 C838 1.363 . S
C839 C845 1.428 . S
H840 C836 0.930 . S
H841 C838 0.929 . S
S842 N843 1.613 1_565 S
S842 N844 1.610 1_565 S
N843 S842 1.613 1_545 S
N843 C846 1.350 . S
N844 S842 1.610 1_545 S
N844 C845 1.351 . S
C845 C839 1.428 . S
C845 N844 1.351 . S
C845 C846 1.434 . S
C846 C837 1.429 . S
C846 N843 1.350 . S
C846 C845 1.434 . S
C847 C848 1.369 . S
C847 C849 1.419 . S
C847 H851 0.930 . S
C848 C847 1.369 . S
C848 C857 1.429 . S
C849 C847 1.419 . S
C849 C850 1.363 . S
C849 H852 0.929 . S
C850 C849 1.363 . S
C850 C856 1.428 . S
H851 C847 0.930 . S
H852 C849 0.929 . S
S853 N854 1.613 . S
S853 N855 1.610 . S
N854 S853 1.613 . S
N854 C857 1.350 . S
N855 S853 1.610 . S
N855 C856 1.351 . S
C856 C850 1.428 . S
C856 N855 1.351 . S
C856 C857 1.434 . S
C857 C848 1.429 . S
C857 N854 1.350 . S
C857 C856 1.434 . S
C858 C859 1.369 . S
C858 C860 1.419 . S
C858 H862 0.930 . S
C859 C858 1.369 . S
C859 C868 1.429 . S
C860 C858 1.419 . S
C860 C861 1.363 . S
C860 H863 0.929 . S
C861 C860 1.363 . S
C861 C867 1.428 . S
H862 C858 0.930 . S
H863 C860 0.929 . S
S864 N865 1.613 1_545 S
S864 N866 1.610 1_545 S
N865 S864 1.613 1_565 S
N865 C868 1.350 . S
N866 S864 1.610 1_565 S
N866 C867 1.351 . S
C867 C861 1.428 . S
C867 N866 1.351 . S
C867 C868 1.434 . S
C868 C859 1.429 . S
C868 N865 1.350 . S
C868 C867 1.434 . S
C869 C870 1.369 . S
C869 C871 1.419 . S
C869 H873 0.930 . S
C870 C869 1.369 . S
C870 C879 1.429 . S
C871 C869 1.419 . S
C871 C872 1.363 . S
C871 H874 0.929 . S
C872 C871 1.363 . S
C872 C878 1.428 . S
H873 C869 0.930 . S
H874 C871 0.929 . S
S875 N876 1.613 . S
S875 N877 1.610 . S
N876 S875 1.613 . S
N876 C879 1.350 . S
N877 S875 1.610 . S
N877 C878 1.351 . S
C878 C872 1.428 . S
C878 N877 1.351 . S
C878 C879 1.434 . S
C879 C870 1.429 . S
C879 N876 1.350 . S
C879 C878 1.434 . S
C880 C881 1.369 . S
C880 C882 1.419 . S
C880 H884 0.930 . S
C881 C880 1.369 . S
C881 C890 1.429 . S
C882 C880 1.419 . S
C882 C883 1.363 . S
C882 H885 0.929 . S
C883 C882 1.363 . S
C883 C889 1.428 . S
H884 C880 0.930 . S
H885 C882 0.929 . S
S886 N887 1.613 . S
S886 N888 1.610 . S
N887 S886 1.613 . S
N887 C890 1.350 . S
N888 S886 1.610 . S
N888 C889 1.351 . S
C889 C883 1.428 . S
C889 N888 1.351 . S
C889 C890 1.434 . S
C890 C881 1.429 . S
C890 N887 1.350 . S
C890 C889 1.434 . S
C891 C892 1.369 . S
C891 C893 1.419 . S
C891 H895 0.930 . S
C892 C891 1.369 . S
C892 C901 1.429 . S
C893 C891 1.419 . S
C893 C894 1.363 . S
C893 H896 0.929 . S
C894 C893 1.363 . S
C894 C900 1.428 . S
H895 C891 0.930 . S
H896 C893 0.929 . S
S897 N898 1.613 1_554 S
S897 N899 1.610 1_554 S
N898 S897 1.613 1_556 S
N898 C901 1.350 . S
N899 S897 1.610 1_556 S
N899 C900 1.351 . S
C900 C894 1.428 . S
C900 N899 1.351 . S
C900 C901 1.434 . S
C901 C892 1.429 . S
C901 N898 1.350 . S
C901 C900 1.434 . S
C902 C903 1.369 . S
C902 C904 1.419 . S
C902 H906 0.930 . S
C903 C902 1.369 . S
C903 C912 1.429 . S
C904 C902 1.419 . S
C904 C905 1.363 . S
C904 H907 0.929 . S
C905 C904 1.363 . S
C905 C911 1.428 . S
H906 C902 0.930 . S
H907 C904 0.929 . S
S908 N909 1.613 . S
S908 N910 1.610 . S
N909 S908 1.613 . S
N909 C912 1.350 . S
N910 S908 1.610 . S
N910 C911 1.351 . S
C911 C905 1.428 . S
C911 N910 1.351 . S
C911 C912 1.434 . S
C912 C903 1.429 . S
C912 N909 1.350 . S
C912 C911 1.434 . S
C913 C914 1.369 . S
C913 C915 1.419 . S
C913 H917 0.930 . S
C914 C913 1.369 . S
C914 C923 1.429 . S
C915 C913 1.419 . S
C915 C916 1.363 . S
C915 H918 0.929 . S
C916 C915 1.363 . S
C916 C922 1.428 . S
H917 C913 0.930 . S
H918 C915 0.929 . S
S919 N920 1.613 . S
S919 N921 1.610 . S
N920 S919 1.613 . S
N920 C923 1.350 . S
N921 S919 1.610 . S
N921 C922 1.351 . S
C922 C916 1.428 . S
C922 N921 1.351 . S
C922 C923 1.434 . S
C923 C914 1.429 . S
C923 N920 1.350 . S
C923 C922 1.434 . S
C924 C925 1.369 . S
C924 C926 1.419 . S
C924 H928 0.930 . S
C925 C924 1.369 . S
C925 C934 1.429 . S
C926 C924 1.419 . S
C926 C927 1.363 . S
C926 H929 0.929 . S
C927 C926 1.363 . S
C927 C933 1.428 . S
H928 C924 0.930 . S
H929 C926 0.929 . S
S930 N931 1.613 . S
S930 N932 1.610 . S
N931 S930 1.613 . S
N931 C934 1.350 . S
N932 S930 1.610 . S
N932 C933 1.351 . S
C933 C927 1.428 . S
C933 N932 1.351 . S
C933 C934 1.434 . S
C934 C925 1.429 . S
C934 N931 1.350 . S
C934 C933 1.434 . S
C935 C936 1.369 . S
C935 C937 1.419 . S
C935 H939 0.930 . S
C936 C935 1.369 . S
C936 C945 1.429 . S
C937 C935 1.419 . S
C937 C938 1.363 . S
C937 H940 0.929 . S
C938 C937 1.363 . S
C938 C944 1.428 . S
H939 C935 0.930 . S
H940 C937 0.929 . S
S941 N942 1.613 . S
S941 N943 1.610 . S
N942 S941 1.613 . S
N942 C945 1.350 . S
N943 S941 1.610 . S
N943 C944 1.351 . S
C944 C938 1.428 . S
C944 N943 1.351 . S
C944 C945 1.434 . S
C945 C936 1.429 . S
C945 N942 1.350 . S
C945 C944 1.434 . S
C946 C947 1.369 . S
C946 C948 1.419 . S
C946 H950 0.930 1_554 S
C947 C946 1.369 . S
C947 C956 1.429 . S
C948 C946 1.419 . S
C948 C949 1.363 . S
C948 H951 0.929 1_554 S
C949 C948 1.363 . S
C949 C955 1.428 . S
H950 C946 0.930 1_556 S
H951 C948 0.929 1_556 S
S952 N953 1.613 . S
S952 N954 1.610 . S
N953 S952 1.613 . S
N953 C956 1.350 . S
N954 S952 1.610 . S
N954 C955 1.351 . S
C955 C949 1.428 . S
C955 N954 1.351 . S
C955 C956 1.434 . S
C956 C947 1.429 . S
C956 N953 1.350 . S
C956 C955 1.434 . S
C957 C958 1.369 . S
C957 C959 1.419 . S
C957 H961 0.930 . S
C958 C957 1.369 . S
C958 C967 1.429 . S
C959 C957 1.419 . S
C959 C960 1.363 . S
C959 H962 0.929 . S
C960 C959 1.363 . S
C960 C966 1.428 . S
H961 C957 0.930 . S
H962 C959 0.929 . S
S963 N964 1.613 . S
S963 N965 1.610 . S
N964 S963 1.613 . S
N964 C967 1.350 . S
N965 S963 1.610 . S
N965 C966 1.351 . S
C966 C960 1.428 . S
C966 N965 1.351 . S
C966 C967 1.434 . S
C967 C958 1.429 . S
C967 N964 1.350 . S
C967 C966 1.434 . S
C529 C338 1.513 . S
C531 C8 1.516 . S
C540 C61 1.516 . S
C542 C259 1.515 . S
C551 C503 1.515 . S
C553 C41 1.515 . S
C562 C94 1.517 . S
C564 C28 1.515 . S
C573 C74 1.515 . S
C575 C272 1.514 . S
C584 C193 1.514 . S
C586 C127 1.516 . S
C595 C437 1.513 . S
C597 C107 1.516 . S
C606 C470 1.515 . S
C608 C140 1.515 . S
C617 C173 1.514 . S
C619 C371 1.516 . S
C628 C226 1.517 . S
C630 C160 1.515 . S
C639 C404 1.516 . S
C641 C206 1.514 . S
C650 C305 1.514 . S
C652 C239 1.516 . S
C661 C523 1.516 . S
C663 C325 1.515 . S
C672 C292 1.515 . S
C674 C358 1.517 . S
C683 C391 1.516 . S
C685 C457 1.514 . S
C694 C490 1.515 . S
C696 C424 1.516 . S
C705 N14 1.407 . S
C707 N5 1.415 . S
C716 N47 1.411 . S
C718 N38 1.412 . S
C727 N80 1.410 . S
C729 N71 1.413 . S
C738 N113 1.410 . S
C740 N104 1.413 . S
C749 N137 1.413 . S
C751 N146 1.410 1_554 S
C760 N179 1.406 . S
C762 N170 1.415 1_554 S
C771 N212 1.409 1_556 S
C773 N203 1.414 . S
C782 N236 1.414 1_556 S
C784 N245 1.409 . S
C793 N278 1.410 1_554 S
C795 N269 1.413 . S
C804 N302 1.415 1_554 S
C806 N311 1.408 . S
C815 N344 1.412 1_556 S
C817 N335 1.412 . S
C826 N368 1.412 1_556 S
C828 N377 1.411 . S
C837 N410 1.411 . S
C839 N401 1.413 . S
C848 N443 1.408 . S
C850 N434 1.414 . S
C859 N476 1.411 . S
C861 N467 1.413 . S
C870 N509 1.410 . S
C872 N500 1.413 . S
C881 C17 1.500 . S
C883 C50 1.498 . S
C892 C83 1.498 . S
C894 C116 1.500 . S
C903 C149 1.500 . S
C905 C182 1.498 . S
C914 C215 1.498 . S
C916 C248 1.499 . S
C925 C314 1.499 . S
C927 C281 1.498 . S
C936 C347 1.499 . S
C938 C380 1.498 . S
C947 C446 1.498 . S
C949 C413 1.500 . S
C958 C512 1.498 . S
C960 C479 1.499 . S
