# Generated by pormake.
# Topology uow, (4)-cn, num edge types: 1
# Building blocks:
#     Node 0, Type 0, BuildingBlock: ICAMEG_clean_sbu_1, # of connection points: 4
#     Node 1, Type 0, BuildingBlock: ICAMEG_clean_sbu_1, # of connection points: 4
#     Node 2, Type 0, BuildingBlock: ICAMEG_clean_sbu_1, # of connection points: 4
#     Node 3, Type 0, BuildingBlock: ICAMEG_clean_sbu_1, # of connection points: 4
#     Node 4, Type 0, BuildingBlock: ICAMEG_clean_sbu_1, # of connection points: 4
#     Node 5, Type 0, BuildingBlock: ICAMEG_clean_sbu_1, # of connection points: 4
#     Node 6, Type 0, BuildingBlock: ICAMEG_clean_sbu_1, # of connection points: 4
#     Node 7, Type 0, BuildingBlock: ICAMEG_clean_sbu_1, # of connection points: 4
#     Node 8, Type 0, BuildingBlock: ICAMEG_clean_sbu_1, # of connection points: 4
#     Node 9, Type 0, BuildingBlock: ICAMEG_clean_sbu_1, # of connection points: 4
#     Node 10, Type 0, BuildingBlock: ICAMEG_clean_sbu_1, # of connection points: 4
#     Node 11, Type 0, BuildingBlock: ICAMEG_clean_sbu_1, # of connection points: 4
#     Node 12, Type 0, BuildingBlock: ICAMEG_clean_sbu_1, # of connection points: 4
#     Node 13, Type 0, BuildingBlock: ICAMEG_clean_sbu_1, # of connection points: 4
#     Node 14, Type 0, BuildingBlock: ICAMEG_clean_sbu_1, # of connection points: 4
#     Node 15, Type 0, BuildingBlock: ICAMEG_clean_sbu_1, # of connection points: 4
#     Node 16, Type 0, BuildingBlock: ICAMEG_clean_sbu_1, # of connection points: 4
#     Node 17, Type 0, BuildingBlock: ICAMEG_clean_sbu_1, # of connection points: 4
#     Node 18, Type 0, BuildingBlock: ICAMEG_clean_sbu_1, # of connection points: 4
#     Node 19, Type 0, BuildingBlock: ICAMEG_clean_sbu_1, # of connection points: 4
#     Node 20, Type 0, BuildingBlock: ICAMEG_clean_sbu_1, # of connection points: 4
#     Node 21, Type 0, BuildingBlock: ICAMEG_clean_sbu_1, # of connection points: 4
#     Node 22, Type 0, BuildingBlock: ICAMEG_clean_sbu_1, # of connection points: 4
#     Node 23, Type 0, BuildingBlock: ICAMEG_clean_sbu_1, # of connection points: 4
#     Node 24, Type 0, BuildingBlock: ICAMEG_clean_sbu_1, # of connection points: 4
#     Node 25, Type 0, BuildingBlock: ICAMEG_clean_sbu_1, # of connection points: 4
#     Node 26, Type 0, BuildingBlock: ICAMEG_clean_sbu_1, # of connection points: 4
#     Node 27, Type 0, BuildingBlock: ICAMEG_clean_sbu_1, # of connection points: 4
#     Node 28, Type 0, BuildingBlock: ICAMEG_clean_sbu_1, # of connection points: 4
#     Node 29, Type 0, BuildingBlock: ICAMEG_clean_sbu_1, # of connection points: 4
#     Node 30, Type 0, BuildingBlock: ICAMEG_clean_sbu_1, # of connection points: 4
#     Node 31, Type 0, BuildingBlock: ICAMEG_clean_sbu_1, # of connection points: 4
#     Edge 32, Type (0, 0), BuildingBlock: XIVTED_clean_linker_0, # of connection points: 2
#     Edge 33, Type (0, 0), BuildingBlock: XIVTED_clean_linker_0, # of connection points: 2
#     Edge 34, Type (0, 0), BuildingBlock: XIVTED_clean_linker_0, # of connection points: 2
#     Edge 35, Type (0, 0), BuildingBlock: XIVTED_clean_linker_0, # of connection points: 2
#     Edge 36, Type (0, 0), BuildingBlock: XIVTED_clean_linker_0, # of connection points: 2
#     Edge 37, Type (0, 0), BuildingBlock: XIVTED_clean_linker_0, # of connection points: 2
#     Edge 38, Type (0, 0), BuildingBlock: XIVTED_clean_linker_0, # of connection points: 2
#     Edge 39, Type (0, 0), BuildingBlock: XIVTED_clean_linker_0, # of connection points: 2
#     Edge 40, Type (0, 0), BuildingBlock: XIVTED_clean_linker_0, # of connection points: 2
#     Edge 41, Type (0, 0), BuildingBlock: XIVTED_clean_linker_0, # of connection points: 2
#     Edge 42, Type (0, 0), BuildingBlock: XIVTED_clean_linker_0, # of connection points: 2
#     Edge 43, Type (0, 0), BuildingBlock: XIVTED_clean_linker_0, # of connection points: 2
#     Edge 44, Type (0, 0), BuildingBlock: XIVTED_clean_linker_0, # of connection points: 2
#     Edge 45, Type (0, 0), BuildingBlock: XIVTED_clean_linker_0, # of connection points: 2
#     Edge 46, Type (0, 0), BuildingBlock: XIVTED_clean_linker_0, # of connection points: 2
#     Edge 47, Type (0, 0), BuildingBlock: XIVTED_clean_linker_0, # of connection points: 2
#     Edge 48, Type (0, 0), BuildingBlock: XIVTED_clean_linker_0, # of connection points: 2
#     Edge 49, Type (0, 0), BuildingBlock: XIVTED_clean_linker_0, # of connection points: 2
#     Edge 50, Type (0, 0), BuildingBlock: XIVTED_clean_linker_0, # of connection points: 2
#     Edge 51, Type (0, 0), BuildingBlock: XIVTED_clean_linker_0, # of connection points: 2
#     Edge 52, Type (0, 0), BuildingBlock: XIVTED_clean_linker_0, # of connection points: 2
#     Edge 53, Type (0, 0), BuildingBlock: XIVTED_clean_linker_0, # of connection points: 2
#     Edge 54, Type (0, 0), BuildingBlock: XIVTED_clean_linker_0, # of connection points: 2
#     Edge 55, Type (0, 0), BuildingBlock: XIVTED_clean_linker_0, # of connection points: 2
#     Edge 56, Type (0, 0), BuildingBlock: XIVTED_clean_linker_0, # of connection points: 2
#     Edge 57, Type (0, 0), BuildingBlock: XIVTED_clean_linker_0, # of connection points: 2
#     Edge 58, Type (0, 0), BuildingBlock: XIVTED_clean_linker_0, # of connection points: 2
#     Edge 59, Type (0, 0), BuildingBlock: XIVTED_clean_linker_0, # of connection points: 2
#     Edge 60, Type (0, 0), BuildingBlock: XIVTED_clean_linker_0, # of connection points: 2
#     Edge 61, Type (0, 0), BuildingBlock: XIVTED_clean_linker_0, # of connection points: 2
#     Edge 62, Type (0, 0), BuildingBlock: XIVTED_clean_linker_0, # of connection points: 2
#     Edge 63, Type (0, 0), BuildingBlock: XIVTED_clean_linker_0, # of connection points: 2
#     Edge 64, Type (0, 0), BuildingBlock: XIVTED_clean_linker_0, # of connection points: 2
#     Edge 65, Type (0, 0), BuildingBlock: XIVTED_clean_linker_0, # of connection points: 2
#     Edge 66, Type (0, 0), BuildingBlock: XIVTED_clean_linker_0, # of connection points: 2
#     Edge 67, Type (0, 0), BuildingBlock: XIVTED_clean_linker_0, # of connection points: 2
#     Edge 68, Type (0, 0), BuildingBlock: XIVTED_clean_linker_0, # of connection points: 2
#     Edge 69, Type (0, 0), BuildingBlock: XIVTED_clean_linker_0, # of connection points: 2
#     Edge 70, Type (0, 0), BuildingBlock: XIVTED_clean_linker_0, # of connection points: 2
#     Edge 71, Type (0, 0), BuildingBlock: XIVTED_clean_linker_0, # of connection points: 2
#     Edge 72, Type (0, 0), BuildingBlock: XIVTED_clean_linker_0, # of connection points: 2
#     Edge 73, Type (0, 0), BuildingBlock: XIVTED_clean_linker_0, # of connection points: 2
#     Edge 74, Type (0, 0), BuildingBlock: XIVTED_clean_linker_0, # of connection points: 2
#     Edge 75, Type (0, 0), BuildingBlock: XIVTED_clean_linker_0, # of connection points: 2
#     Edge 76, Type (0, 0), BuildingBlock: XIVTED_clean_linker_0, # of connection points: 2
#     Edge 77, Type (0, 0), BuildingBlock: XIVTED_clean_linker_0, # of connection points: 2
#     Edge 78, Type (0, 0), BuildingBlock: XIVTED_clean_linker_0, # of connection points: 2
#     Edge 79, Type (0, 0), BuildingBlock: XIVTED_clean_linker_0, # of connection points: 2
#     Edge 80, Type (0, 0), BuildingBlock: XIVTED_clean_linker_0, # of connection points: 2
#     Edge 81, Type (0, 0), BuildingBlock: XIVTED_clean_linker_0, # of connection points: 2
#     Edge 82, Type (0, 0), BuildingBlock: XIVTED_clean_linker_0, # of connection points: 2
#     Edge 83, Type (0, 0), BuildingBlock: XIVTED_clean_linker_0, # of connection points: 2
#     Edge 84, Type (0, 0), BuildingBlock: XIVTED_clean_linker_0, # of connection points: 2
#     Edge 85, Type (0, 0), BuildingBlock: XIVTED_clean_linker_0, # of connection points: 2
#     Edge 86, Type (0, 0), BuildingBlock: XIVTED_clean_linker_0, # of connection points: 2
#     Edge 87, Type (0, 0), BuildingBlock: XIVTED_clean_linker_0, # of connection points: 2
#     Edge 88, Type (0, 0), BuildingBlock: XIVTED_clean_linker_0, # of connection points: 2
#     Edge 89, Type (0, 0), BuildingBlock: XIVTED_clean_linker_0, # of connection points: 2
#     Edge 90, Type (0, 0), BuildingBlock: XIVTED_clean_linker_0, # of connection points: 2
#     Edge 91, Type (0, 0), BuildingBlock: XIVTED_clean_linker_0, # of connection points: 2
#     Edge 92, Type (0, 0), BuildingBlock: XIVTED_clean_linker_0, # of connection points: 2
#     Edge 93, Type (0, 0), BuildingBlock: XIVTED_clean_linker_0, # of connection points: 2
#     Edge 94, Type (0, 0), BuildingBlock: XIVTED_clean_linker_0, # of connection points: 2
#     Edge 95, Type (0, 0), BuildingBlock: XIVTED_clean_linker_0, # of connection points: 2
# Relax obj value: 0.073
# Max RMSD: 0.092
# Mean RMSD: 0.092
data_MOF--net-uow--node1-ICAMEG_clean_sbu_1--edge1-XIVTED_clean_linker_0
_symmetry_space_group_name_H-M    P1
_symmetry_Int_Tables_number       1
_symmetry_cell_setting            triclinic
loop_
_symmetry_equiv_pos_as_xyz
'x, y, z'
_cell_length_a     65.434047
_cell_length_b     65.449787
_cell_length_c     46.344659
_cell_angle_alpha  89.998071
_cell_angle_beta   90.029126
_cell_angle_gamma 89.990493
loop_
_atom_site_label
_atom_site_type_symbol
_atom_site_fract_x
_atom_site_fract_y
_atom_site_fract_z
_atom_type_partial_charge
Co0 Co 0.03232 0.35992 0.26597 0.0
Co1 Co 0.05563 0.39547 0.30995 0.0
O2 O 0.0462 0.38594 0.27221 0.0
C3 C 0.06598 0.35941 0.22245 0.0
O4 O 0.07874 0.36653 0.24186 0.0
C5 C 0.03029 0.42995 0.28827 0.0
O6 O 0.01525 0.41699 0.28411 0.0
O7 O 0.02835 0.39011 0.32777 0.0
O8 O 0.01639 0.36333 0.30236 0.0
H9 H 0.06502 0.39207 0.41747 0.0
H10 H 0.03215 0.39215 0.22106 0.0
O11 O 0.0474 0.35599 0.22895 0.0
H12 H 0.95955 0.37808 0.24141 0.0
H13 H 0.99727 0.30598 0.20622 0.0
H14 H 0.02172 0.32478 0.30333 0.0
H15 H 0.98672 0.35883 0.26641 0.0
H16 H 0.01397 0.33923 0.21466 0.0
O17 O 0.04707 0.42389 0.29932 0.0
H18 H 0.05334 0.37981 0.36992 0.0
H19 H 0.07795 0.43266 0.3297 0.0
H20 H 0.00492 0.29144 0.29592 0.0
H21 H 0.0055 0.41164 0.19534 0.0
H22 H 0.99258 0.28185 0.24707 0.0
H23 H 0.96889 0.4047 0.20556 0.0
O24 O 0.05429 0.34497 0.28716 0.0
H25 H 0.10363 0.42251 0.23439 0.0
H26 H 0.09849 0.38524 0.32657 0.0
H27 H 0.13237 0.39096 0.30477 0.0
H28 H 0.1351 0.40977 0.25838 0.0
H29 H 0.07004 0.41625 0.25676 0.0
H30 H 0.08977 0.44557 0.37684 0.0
H31 H 0.08338 0.42519 0.42114 0.0
O32 O 0.06466 0.36734 0.3209 0.0
C33 C 0.01538 0.3759 0.32334 0.0
C34 C 0.06793 0.40108 0.39832 0.0
C35 C 0.0818 0.43112 0.37552 0.0
N36 N 0.06503 0.40545 0.34706 0.0
C37 C 0.06138 0.39419 0.37133 0.0
C38 C 0.07502 0.42375 0.3489 0.0
C39 C 0.07822 0.41967 0.40037 0.0
C40 C 0.01626 0.38897 0.2255 0.0
N41 N 0.01099 0.37445 0.24533 0.0
C42 C 1.00123 0.40008 0.21092 0.0
C43 C 0.9807 0.3962 0.21668 0.0
C44 C 0.97544 0.38128 0.23682 0.0
C45 C 0.99088 0.3705 0.25101 0.0
C46 C 0.00256 0.30999 0.22761 0.0
C47 C 0.01627 0.32076 0.28205 0.0
C48 C 0.01209 0.32876 0.2325 0.0
N49 N 0.01872 0.33397 0.25949 0.0
C50 C 0.00683 0.30184 0.27797 0.0
C51 C 0.99993 0.29646 0.25054 0.0
C52 C 0.06451 0.34951 0.30975 0.0
C53 C 0.10265 0.41435 0.25465 0.0
C54 C 0.09953 0.39335 0.30631 0.0
C55 C 0.11877 0.3966 0.29411 0.0
C56 C 0.12029 0.40716 0.2681 0.0
N57 N 0.08229 0.40047 0.29301 0.0
C58 C 0.08367 0.41083 0.26749 0.0
Co59 Co 0.89146 0.78533 0.51215 0.0
Co60 Co 0.85692 0.80306 0.56202 0.0
O61 O 0.86542 0.79757 0.52253 0.0
C62 C 0.89204 0.82296 0.47596 0.0
O63 O 0.89079 0.83418 0.49938 0.0
C64 C 0.82257 0.77903 0.53752 0.0
O65 O 0.83577 0.76464 0.53101 0.0
O66 O 0.86348 0.77449 0.57409 0.0
O67 O 0.89039 0.76648 0.54609 0.0
H68 H 0.86321 0.80206 0.67008 0.0
H69 H 0.85732 0.78755 0.47016 0.0
O70 O 0.8927 0.80356 0.47757 0.0
H71 H 0.87452 0.71438 0.47739 0.0
H72 H 0.94368 0.75814 0.44218 0.0
H73 H 0.92857 0.77284 0.54433 0.0
H74 H 0.89395 0.74005 0.50503 0.0
H75 H 0.91041 0.77276 0.45633 0.0
O76 O 0.82838 0.79493 0.55112 0.0
H77 H 0.87436 0.79542 0.62012 0.0
H78 H 0.81987 0.82226 0.58778 0.0
H79 H 0.96198 0.75807 0.53116 0.0
H80 H 0.8376 0.76244 0.44189 0.0
H81 H 0.9697 0.75063 0.47975 0.0
H82 H 0.84612 0.72554 0.4455 0.0
O83 O 0.90657 0.80589 0.53593 0.0
H84 H 0.82762 0.85726 0.4972 0.0
H85 H 0.86651 0.84411 0.58646 0.0
H86 H 0.85973 0.87964 0.57157 0.0
H87 H 0.84011 0.8864 0.52668 0.0
H88 H 0.83487 0.82197 0.51276 0.0
H89 H 0.80805 0.82908 0.63741 0.0
H90 H 0.82983 0.81901 0.67897 0.0
O91 O 0.88519 0.81164 0.57303 0.0
C92 C 0.87845 0.76292 0.5673 0.0
C93 C 0.8536 0.80656 0.65215 0.0
C94 C 0.82263 0.82169 0.63381 0.0
N95 N 0.84783 0.80853 0.60108 0.0
C96 C 0.85985 0.80287 0.62381 0.0
C97 C 0.82938 0.81775 0.60577 0.0
C98 C 0.83486 0.81605 0.65712 0.0
C99 C 0.8612 0.77153 0.47173 0.0
N100 N 0.87673 0.76526 0.48936 0.0
C101 C 0.84995 0.75738 0.45571 0.0
C102 C 0.85471 0.73668 0.45778 0.0
C103 C 0.87063 0.73041 0.4757 0.0
C104 C 0.88152 0.74499 0.49143 0.0
C105 C 0.94048 0.76128 0.46466 0.0
C106 C 0.93177 0.76951 0.52194 0.0
C107 C 0.92168 0.7696 0.47279 0.0
N108 N 0.9175 0.77349 0.50116 0.0
C109 C 0.95074 0.76121 0.5146 0.0
C110 C 0.95507 0.75706 0.48575 0.0
C111 C 0.90256 0.81344 0.56073 0.0
C112 C 0.83612 0.85451 0.51686 0.0
C113 C 0.858 0.84692 0.56687 0.0
C114 C 0.85417 0.86707 0.55857 0.0
C115 C 0.84316 0.87085 0.53338 0.0
N116 N 0.85097 0.83097 0.55061 0.0
C117 C 0.84022 0.83456 0.52584 0.0
Co118 Co 0.46914 0.6417 0.76452 0.0
Co119 Co 0.45384 0.60469 0.81346 0.0
O120 O 0.45843 0.61452 0.77386 0.0
C121 C 0.43444 0.63489 0.72212 0.0
O122 O 0.42775 0.61881 0.73606 0.0
C123 C 0.4797 0.57325 0.7856 0.0
O124 O 0.49057 0.5882 0.77465 0.0
O125 O 0.48167 0.61344 0.82603 0.0
O126 O 0.48875 0.64023 0.79752 0.0
H127 H 0.45414 0.60977 0.92166 0.0
H128 H 0.46784 0.60926 0.71963 0.0
O129 O 0.45006 0.64469 0.73092 0.0
H130 H 0.54012 0.62996 0.7258 0.0
H131 H 0.49315 0.69798 0.6985 0.0
H132 H 0.48021 0.67797 0.79944 0.0
H133 H 0.51412 0.64656 0.7563 0.0
H134 H 0.48026 0.66354 0.71007 0.0
O135 O 0.46485 0.57711 0.8025 0.0
H136 H 0.45987 0.62202 0.87199 0.0
H137 H 0.43797 0.56577 0.83833 0.0
H138 H 0.49328 0.71251 0.78883 0.0
H139 H 0.49323 0.59252 0.68836 0.0
H140 H 0.49983 0.72271 0.73805 0.0
H141 H 0.52971 0.60277 0.69141 0.0
O142 O 0.44823 0.65476 0.78967 0.0
H143 H 0.40286 0.56869 0.7501 0.0
H144 H 0.41193 0.61113 0.83707 0.0
H145 H 0.37727 0.60055 0.82254 0.0
H146 H 0.37256 0.5791 0.77883 0.0
H147 H 0.43722 0.57991 0.76508 0.0
H148 H 0.43214 0.55285 0.88764 0.0
H149 H 0.44017 0.57494 0.92972 0.0
O150 O 0.44268 0.63195 0.82512 0.0
C151 C 0.49273 0.62868 0.81895 0.0
C152 C 0.45053 0.60001 0.9035 0.0
C153 C 0.43821 0.56806 0.8844 0.0
N154 N 0.44915 0.59468 0.85229 0.0
C155 C 0.4537 0.60689 0.87532 0.0
C156 C 0.44159 0.57544 0.85654 0.0
C157 C 0.44271 0.58047 0.90801 0.0
C158 C 0.4836 0.61405 0.72084 0.0
N159 N 0.48944 0.62896 0.73976 0.0
C160 C 0.49795 0.60441 0.70317 0.0
C161 C 0.51842 0.61012 0.70495 0.0
C162 C 0.52427 0.62535 0.72427 0.0
C163 C 0.50949 0.63463 0.74161 0.0
C164 C 0.4904 0.6937 0.72072 0.0
C165 C 0.48316 0.68225 0.7773 0.0
C166 C 0.48306 0.67423 0.72741 0.0
N167 N 0.47964 0.66869 0.75544 0.0
C168 C 0.4905 0.70185 0.77142 0.0
C169 C 0.49415 0.70757 0.74292 0.0
C170 C 0.44032 0.64957 0.81375 0.0
C171 C 0.40471 0.578 0.76922 0.0
C172 C 0.41002 0.60198 0.81784 0.0
C173 C 0.39035 0.59594 0.80981 0.0
C174 C 0.38772 0.58388 0.78531 0.0
N175 N 0.42662 0.59618 0.80191 0.0
C176 C 0.42415 0.58432 0.7779 0.0
Co177 Co 0.60964 0.21754 0.02111 0.0
Co178 Co 0.64673 0.19517 0.0633 0.0
O179 O 0.63606 0.20417 0.02597 0.0
C180 C 0.60872 0.18405 0.97738 0.0
O181 O 0.61642 0.17139 0.99648 0.0
C182 C 0.68062 0.22022 0.03927 0.0
O183 O 0.66766 0.23536 0.03596 0.0
O184 O 0.64189 0.22267 0.08069 0.0
O185 O 0.61353 0.2333 0.05759 0.0
H186 H 0.64698 0.18742 0.1712 0.0
H187 H 0.6406 0.21867 0.97449 0.0
O188 O 0.60515 0.20257 0.98408 0.0
H189 H 0.62585 0.29081 0.99705 0.0
H190 H 0.55364 0.25185 0.96431 0.0
H191 H 0.57515 0.22721 0.06019 0.0
H192 H 0.60786 0.26309 0.02264 0.0
H193 H 0.58739 0.23573 0.97101 0.0
O194 O 0.67481 0.20348 0.05067 0.0
H195 H 0.63318 0.19849 0.1242 0.0
H196 H 0.6844 0.17287 0.08117 0.0
H197 H 0.54134 0.24341 0.05451 0.0
H198 H 0.65883 0.24588 0.94818 0.0
H199 H 0.53039 0.25584 0.00628 0.0
H200 H 0.65154 0.28226 0.95948 0.0
O201 O 0.59572 0.19516 0.04276 0.0
H202 H 0.67133 0.14605 0.9875 0.0
H203 H 0.63677 0.15262 0.08159 0.0
H204 H 0.6417 0.11843 0.06035 0.0
H205 H 0.65913 0.11498 0.013 0.0
H206 H 0.66588 0.17996 0.00934 0.0
H207 H 0.69885 0.16163 0.12771 0.0
H208 H 0.68005 0.16883 0.17315 0.0
O209 O 0.61892 0.18647 0.07636 0.0
C210 C 0.62691 0.23495 0.07745 0.0
C211 C 0.65529 0.18415 0.15155 0.0
C212 C 0.68441 0.1697 0.12714 0.0
N213 N 0.6579 0.18624 0.09997 0.0
C214 C 0.64753 0.19035 0.12487 0.0
C215 C 0.67618 0.17614 0.10086 0.0
C216 C 0.67385 0.17373 0.15263 0.0
C217 C 0.63725 0.23446 0.9794 0.0
N218 N 0.62321 0.23929 1.00011 0.0
C219 C 0.64766 0.24981 0.96448 0.0
C220 C 0.64358 0.27021 0.97086 0.0
C221 C 0.62918 0.27502 0.99195 0.0
C222 C 0.6191 0.25927 0.00644 0.0
C223 C 0.55825 0.24651 0.98544 0.0
C224 C 0.57053 0.23269 0.03917 0.0
C225 C 0.57731 0.23731 0.98935 0.0
N226 N 0.58327 0.23062 0.016 0.0
C227 C 0.55135 0.24181 0.03607 0.0
C228 C 0.54521 0.24876 0.009 0.0
C229 C 0.60088 0.18588 0.06588 0.0
C230 C 0.66377 0.14735 0.00818 0.0
C231 C 0.64429 0.15126 0.06091 0.0
C232 C 0.64709 0.13185 0.04903 0.0
C233 C 0.65689 0.12992 0.02248 0.0
N234 N 0.6511 0.16828 0.04678 0.0
C235 C 0.66072 0.16651 0.02073 0.0
Co236 Co 0.03444 0.64538 0.23246 0.0
Co237 Co 0.05429 0.60829 0.18933 0.0
O238 O 0.04567 0.61801 0.22721 0.0
C239 C 0.06512 0.64203 0.27954 0.0
O240 O 0.07843 0.63531 0.26059 0.0
C241 C 0.02934 0.57368 0.21213 0.0
O242 O 0.01412 0.58635 0.21676 0.0
O243 O 0.02654 0.61412 0.17338 0.0
O244 O 0.02131 0.64489 0.19341 0.0
H245 H 0.06051 0.61132 0.08137 0.0
H246 H 0.02675 0.61358 0.27666 0.0
O247 O 0.04706 0.64667 0.27169 0.0
H248 H 0.95853 0.63514 0.24316 0.0
H249 H 1.00159 0.70199 0.28957 0.0
H250 H 0.03111 0.68236 0.1957 0.0
H251 H 0.98962 0.65106 0.22323 0.0
H252 H 0.01486 0.66715 0.28179 0.0
O253 O 0.04578 0.57999 0.20045 0.0
H254 H 0.05031 0.62378 0.12947 0.0
H255 H 0.07574 0.57084 0.16853 0.0
H256 H 0.01788 0.71731 0.20249 0.0
H257 H 0.99604 0.59739 0.29738 0.0
H258 H 0.003 0.72733 0.24971 0.0
H259 H 0.96162 0.60813 0.28057 0.0
O260 O 0.05943 0.65753 0.21522 0.0
H261 H 0.10375 0.58086 0.26278 0.0
H262 H 0.09691 0.6175 0.17029 0.0
H263 H 0.13123 0.61122 0.19042 0.0
H264 H 0.13481 0.59273 0.23696 0.0
H265 H 0.06971 0.58768 0.24206 0.0
H266 H 0.08607 0.55773 0.12082 0.0
H267 H 0.07854 0.57807 0.07682 0.0
O268 O 0.06368 0.63637 0.17766 0.0
C269 C 0.01724 0.63122 0.17467 0.0
C270 C 0.06393 0.60234 0.10038 0.0
C271 C 0.07825 0.57226 0.12252 0.0
N272 N 0.06254 0.59812 0.15179 0.0
C273 C 0.05823 0.60934 0.12768 0.0
C274 C 0.07231 0.57973 0.14947 0.0
C275 C 0.07403 0.58368 0.09785 0.0
C276 C 0.01182 0.61847 0.26944 0.0
N277 N 0.00998 0.63332 0.24888 0.0
C278 C 0.99449 0.60919 0.28117 0.0
C279 C 0.97518 0.61521 0.27169 0.0
C280 C 0.97344 0.63035 0.25069 0.0
C281 C 0.99111 0.63927 0.23944 0.0
C282 C 0.00801 0.6978 0.26889 0.0
C283 C 0.02455 0.68656 0.21626 0.0
C284 C 0.0156 0.67811 0.26437 0.0
N285 N 0.02365 0.67268 0.23826 0.0
C286 C 0.01713 0.70639 0.22 0.0
C287 C 0.0088 0.71201 0.24651 0.0
C288 C 0.06725 0.65319 0.19078 0.0
C289 C 0.10239 0.58889 0.24245 0.0
C290 C 0.09832 0.60954 0.19063 0.0
C291 C 0.11781 0.60597 0.20188 0.0
C292 C 0.11981 0.59558 0.22797 0.0
N293 N 0.0813 0.60291 0.20493 0.0
C294 C 0.08315 0.59272 0.23054 0.0
Co295 Co 0.61127 0.78654 0.48386 0.0
Co296 Co 0.64534 0.80546 0.43434 0.0
O297 O 0.63728 0.79888 0.47368 0.0
C298 C 0.61103 0.8226 0.52367 0.0
O299 O 0.61121 0.83523 0.50165 0.0
C300 C 0.68005 0.78098 0.45695 0.0
O301 O 0.667 0.76636 0.46301 0.0
O302 O 0.63867 0.77722 0.42085 0.0
O303 O 0.61169 0.76897 0.44857 0.0
H304 H 0.63792 0.80734 0.32644 0.0
H305 H 0.64614 0.78686 0.52475 0.0
O306 O 0.61072 0.80336 0.5198 0.0
H307 H 0.62753 0.71429 0.51368 0.0
H308 H 0.55959 0.75746 0.55313 0.0
H309 H 0.57363 0.77561 0.45177 0.0
H310 H 0.60812 0.74111 0.48828 0.0
H311 H 0.59285 0.77218 0.5392 0.0
O312 O 0.67401 0.79714 0.44418 0.0
H313 H 0.6273 0.79936 0.37623 0.0
H314 H 0.68206 0.82544 0.40885 0.0
H315 H 0.54023 0.76075 0.46472 0.0
H316 H 0.66583 0.76059 0.55085 0.0
H317 H 0.53303 0.75157 0.51572 0.0
H318 H 0.65662 0.72398 0.5453 0.0
O319 O 0.59613 0.8081 0.46201 0.0
H320 H 0.67516 0.85795 0.50144 0.0
H321 H 0.6354 0.84711 0.41232 0.0
H322 H 0.64225 0.88223 0.42897 0.0
H323 H 0.6623 0.88782 0.4738 0.0
H324 H 0.66784 0.82308 0.48414 0.0
H325 H 0.69336 0.83358 0.35939 0.0
H326 H 0.67118 0.82458 0.31777 0.0
O327 O 0.61693 0.81422 0.42439 0.0
C328 C 0.62346 0.76578 0.42705 0.0
C329 C 0.6477 0.81138 0.3444 0.0
C330 C 0.67883 0.82608 0.36289 0.0
N331 N 0.654 0.81201 0.39541 0.0
C332 C 0.64175 0.80693 0.37264 0.0
C333 C 0.67238 0.82138 0.39084 0.0
C334 C 0.66637 0.82103 0.33955 0.0
C335 C 0.64197 0.77097 0.52231 0.0
N336 N 0.62607 0.76551 0.50479 0.0
C337 C 0.65321 0.75616 0.53711 0.0
C338 C 0.64805 0.73563 0.53396 0.0
C339 C 0.63175 0.73018 0.51619 0.0
C340 C 0.62089 0.74541 0.50169 0.0
C341 C 0.56256 0.76136 0.53082 0.0
C342 C 0.57066 0.77152 0.47398 0.0
C343 C 0.58134 0.76975 0.52281 0.0
N344 N 0.58523 0.7746 0.49465 0.0
C345 C 0.5517 0.76317 0.4812 0.0
C346 C 0.54767 0.75805 0.50982 0.0
C347 C 0.59978 0.81598 0.43731 0.0
C348 C 0.66646 0.85571 0.48182 0.0
C349 C 0.64411 0.84941 0.43187 0.0
C350 C 0.64797 0.86934 0.44117 0.0
C351 C 0.65922 0.87246 0.46632 0.0
N352 N 0.65134 0.83305 0.44712 0.0
C353 C 0.66233 0.836 0.47185 0.0
Co354 Co 0.46599 0.36112 0.73959 0.0
Co355 Co 0.45137 0.39713 0.68947 0.0
O356 O 0.4556 0.38802 0.72917 0.0
C357 C 0.42801 0.35988 0.77606 0.0
O358 O 0.41645 0.35857 0.75298 0.0
C359 C 0.47711 0.42891 0.71641 0.0
O360 O 0.48841 0.41399 0.72658 0.0
O361 O 0.47946 0.38848 0.6781 0.0
O362 O 0.48527 0.36104 0.70609 0.0
H363 H 0.45336 0.39085 0.58144 0.0
H364 H 0.46546 0.39445 0.783 0.0
O365 O 0.44737 0.36095 0.77393 0.0
H366 H 0.53756 0.3731 0.77601 0.0
H367 H 0.48894 0.30686 0.80956 0.0
H368 H 0.47633 0.32341 0.70728 0.0
H369 H 0.51104 0.35602 0.7469 0.0
H370 H 0.47668 0.34108 0.79548 0.0
O371 O 0.46186 0.42498 0.70022 0.0
H372 H 0.45851 0.37923 0.63155 0.0
H373 H 0.43533 0.43552 0.66326 0.0
H374 H 0.48875 0.28906 0.7204 0.0
H375 H 0.4914 0.41169 0.81293 0.0
H376 H 0.49513 0.2806 0.77187 0.0
H377 H 0.52778 0.40112 0.80941 0.0
O378 O 0.44485 0.34758 0.71502 0.0
H379 H 0.39895 0.43082 0.75285 0.0
H380 H 0.40996 0.39071 0.66412 0.0
H381 H 0.37491 0.40034 0.67815 0.0
H382 H 0.36923 0.42059 0.72277 0.0
H383 H 0.43374 0.42073 0.73813 0.0
H384 H 0.43008 0.44783 0.61349 0.0
H385 H 0.43904 0.42539 0.57216 0.0
O386 O 0.44074 0.36958 0.67818 0.0
C387 C 0.48988 0.37273 0.68501 0.0
C388 C 0.44934 0.40075 0.59926 0.0
C389 C 0.4363 0.43274 0.61725 0.0
N390 N 0.4471 0.40662 0.65029 0.0
C391 C 0.45217 0.39423 0.62768 0.0
C392 C 0.43935 0.42571 0.64538 0.0
C393 C 0.44133 0.42013 0.59408 0.0
C394 C 0.48122 0.3896 0.78156 0.0
N395 N 0.48674 0.37426 0.76313 0.0
C396 C 0.49586 0.39949 0.79848 0.0
C397 C 0.51627 0.39358 0.79646 0.0
C398 C 0.52177 0.37788 0.77769 0.0
C399 C 0.50671 0.36834 0.7611 0.0
C400 C 0.48625 0.31037 0.78706 0.0
C401 C 0.47919 0.31989 0.72971 0.0
C402 C 0.47926 0.32971 0.77895 0.0
N403 N 0.47593 0.33429 0.75055 0.0
C404 C 0.48617 0.30039 0.73701 0.0
C405 C 0.48973 0.29565 0.7659 0.0
C406 C 0.43785 0.35222 0.69012 0.0
C407 C 0.40123 0.42206 0.73331 0.0
C408 C 0.40762 0.39949 0.6836 0.0
C409 C 0.38774 0.40492 0.69141 0.0
C410 C 0.38456 0.41629 0.71644 0.0
N411 N 0.4239 0.40528 0.70019 0.0
C412 C 0.4209 0.41636 0.72482 0.0
Co413 Co 0.89378 0.22138 0.9842 0.0
Co414 Co 0.85909 0.19696 0.93986 0.0
O415 O 0.86813 0.20683 0.97766 0.0
C416 C 0.89502 0.18765 0.02745 0.0
O417 O 0.88754 0.17499 0.00818 0.0
C418 C 0.82382 0.22144 0.96116 0.0
O419 O 0.83636 0.23671 0.96612 0.0
O420 O 0.86415 0.22421 0.92166 0.0
O421 O 0.89005 0.23723 0.94784 0.0
H422 H 0.86379 0.18676 0.83259 0.0
H423 H 0.86148 0.22052 0.02895 0.0
O424 O 0.89814 0.2063 0.02113 0.0
H425 H 0.87347 0.29353 0.00888 0.0
H426 H 0.94658 0.25772 0.04447 0.0
H427 H 0.92873 0.23307 0.94712 0.0
H428 H 0.89355 0.26698 0.9839 0.0
H429 H 0.91383 0.24012 0.03575 0.0
O430 O 0.83041 0.20501 0.94973 0.0
H431 H 0.87535 0.19901 0.88021 0.0
H432 H 0.82249 0.17383 0.91969 0.0
H433 H 0.96157 0.25076 0.95483 0.0
H434 H 0.84118 0.24654 0.05467 0.0
H435 H 0.97068 0.2632 0.00381 0.0
H436 H 0.84707 0.28334 0.04459 0.0
O437 O 0.90943 0.19987 0.96313 0.0
H438 H 0.8321 0.14909 0.01564 0.0
H439 H 0.87018 0.15415 0.92413 0.0
H440 H 0.86479 0.12035 0.94636 0.0
H441 H 0.84558 0.11766 0.99241 0.0
H442 H 0.83804 0.18261 0.99287 0.0
H443 H 0.81027 0.16144 0.87248 0.0
H444 H 0.83101 0.16782 0.82852 0.0
O445 O 0.88745 0.18831 0.92966 0.0
C446 C 0.87784 0.23769 0.92641 0.0
C447 C 0.85462 0.18386 0.85159 0.0
C448 C 0.82458 0.16967 0.87397 0.0
N449 N 0.84965 0.18709 0.9027 0.0
C450 C 0.86111 0.19073 0.87861 0.0
C451 C 0.83154 0.17678 0.90064 0.0
C452 C 0.83623 0.17325 0.84932 0.0
C453 C 0.8642 0.23651 0.02457 0.0
N454 N 0.8786 0.24224 0.00482 0.0
C455 C 0.85263 0.25117 0.03915 0.0
C456 C 0.85593 0.27182 0.03346 0.0
C457 C 0.87072 0.27754 0.01341 0.0
C458 C 0.88197 0.26245 0.99921 0.0
C459 C 0.94277 0.25239 0.02302 0.0
C460 C 0.93253 0.23856 0.96845 0.0
C461 C 0.92427 0.24237 0.01797 0.0
N462 N 0.91932 0.23568 0.99091 0.0
C463 C 0.95117 0.24852 0.9727 0.0
C464 C 0.95628 0.25547 1.0002 0.0
C465 C 0.90523 0.18912 0.94093 0.0
C466 C 0.84044 0.15006 0.99553 0.0
C467 C 0.8619 0.15313 0.94425 0.0
C468 C 0.85884 0.13393 0.95669 0.0
C469 C 0.84804 0.13243 0.98251 0.0
N470 N 0.85438 0.17035 0.95713 0.0
C471 C 0.84378 0.16899 0.98246 0.0
Co472 Co 0.9627 0.64101 0.73711 0.0
Co473 Co 0.94763 0.60383 0.68816 0.0
O474 O 0.95187 0.61387 0.72773 0.0
C475 C 0.92757 0.63445 0.7789 0.0
O476 O 0.9217 0.6176 0.76609 0.0
C477 C 0.97333 0.57253 0.71686 0.0
O478 O 0.98398 0.58754 0.72806 0.0
O479 O 0.97554 0.61256 0.67599 0.0
O480 O 0.98292 0.63901 0.70501 0.0
H481 H 0.94872 0.60833 0.57992 0.0
H482 H 0.96036 0.60863 0.7822 0.0
O483 O 0.94294 0.64451 0.76979 0.0
H484 H 0.03277 0.62915 0.77896 0.0
H485 H 0.98586 0.69759 0.80324 0.0
H486 H 0.97497 0.67685 0.7021 0.0
H487 H 0.00746 0.64569 0.74723 0.0
H488 H 0.97285 0.6632 0.79166 0.0
O489 O 0.95863 0.57631 0.69961 0.0
H490 H 0.95396 0.62089 0.62954 0.0
H491 H 0.93214 0.5647 0.66344 0.0
H492 H 0.9882 0.71133 0.71272 0.0
H493 H 0.98503 0.59197 0.81466 0.0
H494 H 0.99372 0.72189 0.76361 0.0
H495 H 0.02158 0.60212 0.8131 0.0
O496 O 0.94248 0.65415 0.71089 0.0
H497 H 0.8962 0.56803 0.75095 0.0
H498 H 0.90592 0.61007 0.66374 0.0
H499 H 0.87116 0.59948 0.67773 0.0
H500 H 0.86613 0.57824 0.72157 0.0
H501 H 0.93066 0.57925 0.73647 0.0
H502 H 0.9268 0.55147 0.61418 0.0
H503 H 0.93504 0.57337 0.572 0.0
O504 O 0.93653 0.63102 0.67599 0.0
C505 C 0.98685 0.62748 0.68357 0.0
C506 C 0.94503 0.59865 0.59812 0.0
C507 C 0.93275 0.56673 0.61736 0.0
N508 N 0.94328 0.59359 0.64936 0.0
C509 C 0.94792 0.6057 0.62627 0.0
C510 C 0.93586 0.57429 0.6452 0.0
C511 C 0.93737 0.57903 0.59369 0.0
C512 C 0.97612 0.61341 0.78165 0.0
N513 N 0.98238 0.62826 0.76289 0.0
C514 C 0.99008 0.6038 0.79998 0.0
C515 C 0.01059 0.60946 0.79904 0.0
C516 C 0.01688 0.6246 0.77986 0.0
C517 C 0.00249 0.63385 0.76183 0.0
C518 C 0.98356 0.69315 0.78098 0.0
C519 C 0.97747 0.68128 0.72429 0.0
C520 C 0.97615 0.67371 0.77429 0.0
N521 N 0.97331 0.66795 0.7462 0.0
C522 C 0.98491 0.70085 0.73018 0.0
C523 C 0.98798 0.70677 0.75873 0.0
C524 C 0.93453 0.64883 0.68688 0.0
C525 C 0.89819 0.57726 0.73178 0.0
C526 C 0.90386 0.60101 0.68302 0.0
C527 C 0.88413 0.59497 0.69075 0.0
C528 C 0.88133 0.58302 0.71532 0.0
N529 N 0.92033 0.59533 0.69931 0.0
C530 C 0.91769 0.58358 0.72338 0.0
Co531 Co 0.11035 0.21863 0.48597 0.0
Co532 Co 0.14706 0.19847 0.44018 0.0
O533 O 0.13708 0.20625 0.47861 0.0
C534 C 0.11198 0.18322 0.52679 0.0
O535 O 0.12213 0.17233 0.50782 0.0
C536 C 0.17897 0.22544 0.46503 0.0
O537 O 0.16422 0.23721 0.47458 0.0
O538 O 0.13896 0.22538 0.42324 0.0
O539 O 0.11322 0.23643 0.45134 0.0
H540 H 0.14266 0.19024 0.33256 0.0
H541 H 0.14164 0.21773 0.5322 0.0
O542 O 0.10661 0.20147 0.52116 0.0
H543 H 0.12546 0.29062 0.51793 0.0
H544 H 0.05463 0.2483 0.54821 0.0
H545 H 0.07499 0.22964 0.44921 0.0
H546 H 0.10779 0.26409 0.48952 0.0
H547 H 0.08857 0.23337 0.53869 0.0
O548 O 0.17483 0.2097 0.44994 0.0
H549 H 0.13017 0.20003 0.38083 0.0
H550 H 0.18589 0.18014 0.41859 0.0
H551 H 0.04095 0.24471 0.45774 0.0
H552 H 0.15947 0.24371 0.56142 0.0
H553 H 0.03058 0.25413 0.50754 0.0
H554 H 0.15149 0.28046 0.55424 0.0
O555 O 0.09646 0.19718 0.46257 0.0
H556 H 0.17996 0.15221 0.51331 0.0
H557 H 0.14062 0.15509 0.42262 0.0
H558 H 0.14995 0.12161 0.44316 0.0
H559 H 0.16981 0.12003 0.4888 0.0
H560 H 0.1701 0.18536 0.49221 0.0
H561 H 0.19904 0.17029 0.3707 0.0
H562 H 0.17733 0.17525 0.32728 0.0
O563 O 0.11968 0.18693 0.42989 0.0
C564 C 0.1248 0.23805 0.42938 0.0
C565 C 0.15225 0.18797 0.35132 0.0
C566 C 0.1839 0.17679 0.37272 0.0
N567 N 0.15725 0.19059 0.4025 0.0
C568 C 0.14525 0.19345 0.37871 0.0
C569 C 0.1764 0.18246 0.39977 0.0
C570 C 0.17171 0.17957 0.34837 0.0
C571 C 0.13796 0.23368 0.52914 0.0
N572 N 0.12377 0.23941 0.50905 0.0
C573 C 0.14815 0.24833 0.54567 0.0
C574 C 0.1437 0.26895 0.5416 0.0
C575 C 0.12912 0.27466 0.52119 0.0
C576 C 0.11925 0.25959 0.50504 0.0
C577 C 0.05899 0.24429 0.5264 0.0
C578 C 0.07063 0.23383 0.47092 0.0
C579 C 0.07817 0.23579 0.52088 0.0
N580 N 0.08381 0.23077 0.49338 0.0
C581 C 0.05132 0.2423 0.47562 0.0
C582 C 0.0455 0.24757 0.50357 0.0
C583 C 0.10169 0.1867 0.44055 0.0
C584 C 0.17136 0.15271 0.49336 0.0
C585 C 0.14917 0.15454 0.44255 0.0
C586 C 0.15447 0.13553 0.45404 0.0
C587 C 0.16563 0.13465 0.47963 0.0
N588 N 0.15488 0.17219 0.45613 0.0
C589 C 0.16582 0.17144 0.48123 0.0
Co590 Co 0.53825 0.36138 0.23738 0.0
Co591 Co 0.55775 0.39479 0.18703 0.0
O592 O 0.55084 0.38715 0.22646 0.0
C593 C 0.57517 0.36079 0.27509 0.0
O594 O 0.58684 0.3613 0.25207 0.0
C595 C 0.53243 0.42934 0.20827 0.0
O596 O 0.5181 0.41613 0.21494 0.0
O597 O 0.52984 0.38734 0.17286 0.0
O598 O 0.52018 0.36193 0.20261 0.0
H599 H 0.56164 0.38552 0.07954 0.0
H600 H 0.53986 0.39633 0.27804 0.0
O601 O 0.55578 0.36067 0.27278 0.0
H602 H 0.46673 0.37945 0.26851 0.0
H603 H 0.50921 0.31079 0.30824 0.0
H604 H 0.52609 0.32376 0.20618 0.0
H605 H 0.49284 0.35929 0.24278 0.0
H606 H 0.52441 0.34364 0.29339 0.0
O607 O 0.54867 0.4234 0.19564 0.0
H608 H 0.55311 0.37558 0.12943 0.0
H609 H 0.57716 0.43159 0.16086 0.0
H610 H 0.51074 0.29077 0.22005 0.0
H611 H 0.51432 0.41678 0.30442 0.0
H612 H 0.5022 0.28412 0.27142 0.0
H613 H 0.47744 0.40843 0.29965 0.0
O614 O 0.55915 0.34561 0.21513 0.0
H615 H 0.60854 0.4268 0.25475 0.0
H616 H 0.59996 0.38564 0.16646 0.0
H617 H 0.63466 0.39357 0.18392 0.0
H618 H 0.63912 0.41434 0.22834 0.0
H619 H 0.57411 0.41837 0.23667 0.0
H620 H 0.58582 0.44222 0.11128 0.0
H621 H 0.57812 0.41907 0.07021 0.0
O622 O 0.56733 0.36649 0.17837 0.0
C623 C 0.51772 0.37291 0.1801 0.0
C624 C 0.56511 0.39573 0.09725 0.0
C625 C 0.57865 0.42756 0.11506 0.0
N626 N 0.56469 0.40296 0.14802 0.0
C627 C 0.56034 0.39016 0.12555 0.0
C628 C 0.57365 0.42149 0.14308 0.0
C629 C 0.57434 0.41456 0.09203 0.0
C630 C 0.52385 0.39253 0.27596 0.0
N631 N 0.51783 0.3767 0.25871 0.0
C632 C 0.50946 0.40419 0.29091 0.0
C633 C 0.48877 0.39952 0.28819 0.0
C634 C 0.48275 0.38328 0.2707 0.0
C635 C 0.49758 0.37199 0.25603 0.0
C636 C 0.51283 0.31353 0.28579 0.0
C637 C 0.52228 0.32103 0.22854 0.0
C638 C 0.52149 0.33207 0.27726 0.0
N639 N 0.52598 0.33567 0.2489 0.0
C640 C 0.51365 0.3023 0.23628 0.0
C641 C 0.50889 0.29857 0.26511 0.0
C642 C 0.56819 0.34927 0.19124 0.0
C643 C 0.60679 0.41779 0.23533 0.0
C644 C 0.60176 0.39463 0.18585 0.0
C645 C 0.62146 0.39911 0.1956 0.0
C646 C 0.62395 0.41077 0.22052 0.0
N647 N 0.58501 0.40163 0.20043 0.0
C648 C 0.58734 0.41302 0.22492 0.0
Co649 Co 0.39259 0.78636 0.98538 0.0
Co650 Co 0.35642 0.80156 0.93593 0.0
O651 O 0.3656 0.79693 0.97561 0.0
C652 C 0.38954 0.82308 0.02388 0.0
O653 O 0.38458 0.83478 0.00194 0.0
C654 C 0.324 0.77673 0.9632 0.0
O655 O 0.33857 0.76511 0.97366 0.0
O656 O 0.36441 0.77331 0.92431 0.0
O657 O 0.39238 0.76765 0.95128 0.0
H658 H 0.36216 0.79972 0.82784 0.0
H659 H 0.35952 0.7862 0.02907 0.0
O660 O 0.39337 0.80422 0.02018 0.0
H661 H 0.38111 0.7143 0.02023 0.0
H662 H 0.44756 0.7619 0.05331 0.0
H663 H 0.43 0.77685 0.95199 0.0
H664 H 0.39799 0.74123 0.9917 0.0
H665 H 0.41319 0.77438 0.04044 0.0
O666 O 0.32838 0.7917 0.94677 0.0
H667 H 0.37389 0.79416 0.87781 0.0
H668 H 0.31831 0.81861 0.91015 0.0
H669 H 0.46451 0.76422 0.96388 0.0
H670 H 0.34248 0.75986 0.05849 0.0
H671 H 0.47348 0.75665 0.01487 0.0
H672 H 0.35316 0.72358 0.05403 0.0
O673 O 0.40583 0.80812 0.96176 0.0
H674 H 0.32413 0.85443 1.0 0.0
H675 H 0.36367 0.84292 0.91091 0.0
H676 H 0.35491 0.87811 0.92536 0.0
H677 H 0.33496 0.88404 0.97017 0.0
H678 H 0.33336 0.8195 0.98488 0.0
H679 H 0.3059 0.82429 0.86052 0.0
H680 H 0.32792 0.81489 0.81895 0.0
O681 O 0.38417 0.81164 0.92441 0.0
C682 C 0.38034 0.76298 0.93064 0.0
C683 C 0.35244 0.80393 0.84577 0.0
C684 C 0.32085 0.8177 0.86411 0.0
N685 N 0.34686 0.80618 0.89686 0.0
C686 C 0.35903 0.80087 0.87411 0.0
C687 C 0.32794 0.8144 0.89216 0.0
C688 C 0.33322 0.81243 0.8408 0.0
C689 C 0.36438 0.77048 0.02717 0.0
N690 N 0.37963 0.76523 0.00842 0.0
C691 C 0.35462 0.75561 0.04382 0.0
C692 C 0.36059 0.73526 0.04127 0.0
C693 C 0.37624 0.73004 0.02226 0.0
C694 C 0.38564 0.74532 0.00595 0.0
C695 C 0.44383 0.76511 0.03101 0.0
C696 C 0.43375 0.77347 0.9742 0.0
C697 C 0.4244 0.77223 0.02359 0.0
N698 N 0.41954 0.7762 0.99545 0.0
C699 C 0.45333 0.76638 0.98082 0.0
C700 C 0.45836 0.76216 0.00943 0.0
C701 C 0.40137 0.81486 0.93667 0.0
C702 C 0.33277 0.85204 0.98038 0.0
C703 C 0.35502 0.84537 0.93048 0.0
C704 C 0.35007 0.86533 0.93852 0.0
C705 C 0.33887 0.86865 0.96366 0.0
N706 N 0.34892 0.82916 0.94694 0.0
C707 C 0.33797 0.83229 0.97165 0.0
Co708 Co 0.96504 0.36151 0.76147 0.0
Co709 Co 0.94823 0.396 0.81262 0.0
O710 O 0.95369 0.38784 0.77282 0.0
C711 C 0.92684 0.36106 0.72611 0.0
O712 O 0.91575 0.36116 0.7497 0.0
C713 C 0.97436 0.42859 0.78821 0.0
O714 O 0.98588 0.41406 0.77748 0.0
O715 O 0.97596 0.38702 0.8255 0.0
O716 O 0.9843 0.36165 0.79493 0.0
H717 H 0.94634 0.38684 0.92023 0.0
H718 H 0.9631 0.39551 0.71921 0.0
O719 O 0.94628 0.36111 0.72737 0.0
H720 H 0.03599 0.37688 0.72533 0.0
H721 H 0.98992 0.30942 0.68963 0.0
H722 H 0.97694 0.32371 0.79248 0.0
H723 H 0.01022 0.35829 0.75392 0.0
H724 H 0.97635 0.34287 0.70491 0.0
O725 O 0.95902 0.42411 0.80391 0.0
H726 H 0.95311 0.37648 0.86996 0.0
H727 H 0.93161 0.43385 0.83969 0.0
H728 H 0.99068 0.2901 0.77816 0.0
H729 H 0.98828 0.41426 0.68982 0.0
H730 H 0.99725 0.28279 0.7264 0.0
H731 H 0.02504 0.40506 0.69291 0.0
O732 O 0.94447 0.34665 0.78541 0.0
H733 H 0.89797 0.43119 0.74732 0.0
H734 H 0.90604 0.38926 0.83499 0.0
H735 H 0.87149 0.39928 0.81909 0.0
H736 H 0.8673 0.42045 0.77499 0.0
H737 H 0.93222 0.42069 0.76387 0.0
H738 H 0.92476 0.44489 0.88965 0.0
H739 H 0.93207 0.42128 0.93033 0.0
O740 O 0.93718 0.36827 0.82172 0.0
C741 C 0.98755 0.37238 0.81747 0.0
C742 C 0.94306 0.39725 0.90269 0.0
C743 C 0.93097 0.42985 0.88552 0.0
N744 N 0.94269 0.40451 0.85192 0.0
C745 C 0.94682 0.39146 0.87418 0.0
C746 C 0.93494 0.42353 0.85729 0.0
C747 C 0.93506 0.41658 0.90834 0.0
C748 C 0.97904 0.39127 0.72047 0.0
N749 N 0.98519 0.37585 0.73837 0.0
C750 C 0.99324 0.402 0.70385 0.0
C751 C 0.01387 0.39686 0.70564 0.0
C752 C 0.02002 0.38108 0.72386 0.0
C753 C 0.00539 0.37068 0.74015 0.0
C754 C 0.98716 0.31244 0.71225 0.0
C755 C 0.97989 0.32068 0.76993 0.0
C756 C 0.97943 0.33133 0.72103 0.0
N757 N 0.97601 0.33529 0.74959 0.0
C758 C 0.98761 0.30161 0.76194 0.0
C759 C 0.99128 0.2975 0.7329 0.0
C760 C 0.93576 0.35088 0.80935 0.0
C761 C 0.8996 0.42202 0.76662 0.0
C762 C 0.90434 0.39842 0.81574 0.0
C763 C 0.88474 0.40409 0.80687 0.0
C764 C 0.8824 0.41597 0.78214 0.0
N765 N 0.92115 0.40449 0.80048 0.0
C766 C 0.91897 0.41609 0.77615 0.0
Co767 Co 0.39033 0.21728 0.51307 0.0
Co768 Co 0.35499 0.20089 0.56313 0.0
O769 O 0.3636 0.20646 0.52354 0.0
C770 C 0.38859 0.18003 0.47602 0.0
O771 O 0.38679 0.16858 0.49914 0.0
C772 C 0.32257 0.22695 0.53798 0.0
O773 O 0.33717 0.23852 0.52756 0.0
O774 O 0.3638 0.22861 0.57618 0.0
O775 O 0.3905 0.23584 0.54739 0.0
H776 H 0.36287 0.19905 0.67095 0.0
H777 H 0.35664 0.2173 0.47019 0.0
O778 O 0.39042 0.19932 0.47814 0.0
H779 H 0.37735 0.28941 0.47975 0.0
H780 H 0.4437 0.24222 0.44315 0.0
H781 H 0.42823 0.22732 0.54514 0.0
H782 H 0.39492 0.2625 0.50753 0.0
H783 H 0.40974 0.22931 0.45731 0.0
O784 O 0.32695 0.21163 0.55379 0.0
H785 H 0.37378 0.20588 0.62094 0.0
H786 H 0.3169 0.18409 0.58928 0.0
H787 H 0.46233 0.24037 0.53195 0.0
H788 H 0.33892 0.24364 0.44153 0.0
H789 H 0.47024 0.24791 0.48063 0.0
H790 H 0.34917 0.28003 0.44636 0.0
O791 O 0.40436 0.19571 0.53627 0.0
H792 H 0.32072 0.15066 0.49687 0.0
H793 H 0.36155 0.15869 0.58561 0.0
H794 H 0.35181 0.12415 0.56938 0.0
H795 H 0.3312 0.11998 0.52474 0.0
H796 H 0.33091 0.18491 0.51376 0.0
H797 H 0.3053 0.17717 0.63897 0.0
H798 H 0.32839 0.18459 0.68021 0.0
O799 O 0.38265 0.18984 0.57294 0.0
C800 C 0.3792 0.23955 0.56924 0.0
C801 C 0.35268 0.19571 0.65316 0.0
C802 C 0.32036 0.18346 0.63521 0.0
N803 N 0.34603 0.1953 0.60222 0.0
C804 C 0.3588 0.19951 0.62479 0.0
C805 C 0.32699 0.18747 0.60713 0.0
C806 C 0.33333 0.18761 0.65834 0.0
C807 C 0.36134 0.23307 0.4722 0.0
N808 N 0.37676 0.23837 0.49065 0.0
C809 C 0.35119 0.24793 0.456 0.0
C810 C 0.35692 0.26834 0.45876 0.0
C811 C 0.3727 0.27362 0.47753 0.0
C812 C 0.38251 0.25834 0.49337 0.0
C813 C 0.44042 0.23903 0.46559 0.0
C814 C 0.43151 0.2307 0.52279 0.0
C815 C 0.42123 0.23167 0.47374 0.0
N816 N 0.41695 0.22772 0.50206 0.0
C817 C 0.45087 0.23802 0.51544 0.0
C818 C 0.45531 0.24223 0.48663 0.0
C819 C 0.39994 0.18757 0.56054 0.0
C820 C 0.32964 0.15229 0.51641 0.0
C821 C 0.35261 0.157 0.56613 0.0
C822 C 0.34711 0.13741 0.55708 0.0
C823 C 0.33555 0.13508 0.53203 0.0
N824 N 0.34669 0.17381 0.55075 0.0
C825 C 0.3354 0.17164 0.52614 0.0
Co826 Co 0.53763 0.64092 0.26012 0.0
Co827 Co 0.55489 0.60646 0.31043 0.0
O828 O 0.54923 0.61465 0.27085 0.0
C829 C 0.57477 0.63991 0.22285 0.0
O830 O 0.58631 0.63861 0.24596 0.0
C831 C 0.53008 0.57225 0.28696 0.0
O832 O 0.51581 0.58555 0.28029 0.0
O833 O 0.52657 0.61383 0.32288 0.0
O834 O 0.5192 0.64077 0.29455 0.0
H835 H 0.55519 0.61398 0.41835 0.0
H836 H 0.53832 0.60616 0.21907 0.0
O837 O 0.55543 0.64121 0.22505 0.0
H838 H 0.46581 0.62587 0.22711 0.0
H839 H 0.51112 0.69314 0.18958 0.0
H840 H 0.52655 0.67869 0.29173 0.0
H841 H 0.49239 0.64481 0.25371 0.0
H842 H 0.52498 0.65964 0.20414 0.0
O843 O 0.54609 0.578 0.30035 0.0
H844 H 0.54831 0.62474 0.36828 0.0
H845 H 0.57346 0.56925 0.33671 0.0
H846 H 0.51253 0.71233 0.27815 0.0
H847 H 0.5123 0.58691 0.19182 0.0
H848 H 0.50472 0.71973 0.22675 0.0
H849 H 0.47573 0.59668 0.19584 0.0
O850 O 0.55892 0.6557 0.28305 0.0
H851 H 0.60789 0.57534 0.24536 0.0
H852 H 0.59635 0.61539 0.334 0.0
H853 H 0.6316 0.60767 0.31869 0.0
H854 H 0.63754 0.58747 0.2741 0.0
H855 H 0.57289 0.58353 0.26132 0.0
H856 H 0.58049 0.55783 0.38646 0.0
H857 H 0.57139 0.5803 0.4277 0.0
O858 O 0.56415 0.63461 0.32062 0.0
C859 C 0.51547 0.62917 0.31609 0.0
C860 C 0.55925 0.60407 0.40057 0.0
C861 C 0.57342 0.57254 0.38267 0.0
N862 N 0.56054 0.59767 0.3496 0.0
C863 C 0.55542 0.61009 0.37216 0.0
C864 C 0.56935 0.57906 0.35455 0.0
C865 C 0.56833 0.58516 0.40579 0.0
C866 C 0.52245 0.61058 0.22083 0.0
N867 N 0.51686 0.62653 0.23815 0.0
C868 C 0.50778 0.59959 0.20539 0.0
C869 C 0.48727 0.60506 0.20768 0.0
C870 C 0.48169 0.62141 0.22526 0.0
C871 C 0.49678 0.63202 0.24042 0.0
C872 C 0.51442 0.69009 0.21206 0.0
C873 C 0.52306 0.68175 0.26935 0.0
C874 C 0.52232 0.67116 0.22043 0.0
N875 N 0.52642 0.66716 0.2488 0.0
C876 C 0.51518 0.70085 0.26178 0.0
C877 C 0.51083 0.705 0.23292 0.0
C878 C 0.56641 0.65178 0.30792 0.0
C879 C 0.60549 0.5841 0.26488 0.0
C880 C 0.5988 0.60662 0.31454 0.0
C881 C 0.6188 0.60227 0.30601 0.0
C882 C 0.62213 0.59093 0.281 0.0
N883 N 0.58256 0.59979 0.29869 0.0
C884 C 0.5857 0.58872 0.27409 0.0
Co885 Co 0.1118 0.78585 0.01514 0.0
Co886 Co 0.14823 0.8046 0.06218 0.0
O887 O 0.13847 0.7979 0.02335 0.0
C888 C 0.11279 0.82209 0.97578 0.0
O889 O 0.1187 0.83389 0.99713 0.0
C890 C 0.18052 0.7788 0.03631 0.0
O891 O 0.16592 0.76674 0.02702 0.0
O892 O 0.14081 0.77694 0.07704 0.0
O893 O 0.114 0.76763 0.0496 0.0
H894 H 0.14406 0.80871 0.1703 0.0
H895 H 0.14409 0.78672 0.97029 0.0
O896 O 0.1092 0.80323 0.98001 0.0
H897 H 0.12584 0.71405 0.98131 0.0
H898 H 0.05647 0.7578 0.95067 0.0
H899 H 0.07588 0.77476 0.05068 0.0
H900 H 0.10818 0.74055 0.00977 0.0
H901 H 0.09046 0.77218 0.96145 0.0
O902 O 0.17622 0.79443 0.05154 0.0
H903 H 0.13163 0.80042 0.12144 0.0
H904 H 0.18662 0.82313 0.08491 0.0
H905 H 0.04178 0.76023 0.04088 0.0
H906 H 0.16189 0.76081 0.94096 0.0
H907 H 0.03189 0.75166 0.99057 0.0
H908 H 0.15289 0.72415 0.94652 0.0
O909 O 0.09787 0.80721 0.03873 0.0
H910 H 0.17903 0.85428 0.99187 0.0
H911 H 0.14083 0.84708 0.08301 0.0
H912 H 0.14897 0.8815 0.06468 0.0
H913 H 0.16824 0.88526 0.01881 0.0
H914 H 0.17043 0.82015 0.01086 0.0
H915 H 0.19973 0.83155 0.13339 0.0
H916 H 0.17835 0.82439 0.1765 0.0
O917 O 0.12059 0.81496 0.07344 0.0
C918 C 0.12607 0.76494 0.07089 0.0
C919 C 0.15351 0.81193 0.15168 0.0
C920 C 0.18476 0.82473 0.13097 0.0
N921 N 0.15835 0.81136 0.10035 0.0
C922 C 0.14653 0.8073 0.12396 0.0
C923 C 0.17728 0.81988 0.10358 0.0
C924 C 0.17275 0.82072 0.15515 0.0
C925 C 0.13999 0.77082 0.9727 0.0
N926 N 0.12529 0.76511 0.99202 0.0
C927 C 0.15016 0.75621 0.95608 0.0
C928 C 0.14513 0.73564 0.95925 0.0
C929 C 0.12999 0.72996 0.97881 0.0
C930 C 0.12016 0.745 0.99507 0.0
C931 C 0.06061 0.76145 0.97269 0.0
C932 C 0.07173 0.77094 0.02875 0.0
C933 C 0.07982 0.76965 0.97892 0.0
N934 N 0.0852 0.77417 0.0067 0.0
C935 C 0.05238 0.76277 0.02333 0.0
C936 C 0.04683 0.75799 0.99509 0.0
C937 C 0.10279 0.81612 0.06224 0.0
C938 C 0.17069 0.85284 0.01193 0.0
C939 C 0.14919 0.84858 0.063 0.0
C940 C 0.15378 0.86812 0.05276 0.0
C941 C 0.1646 0.87021 0.02703 0.0
N942 N 0.15526 0.83161 0.04811 0.0
C943 C 0.16584 0.83355 0.02285 0.0
Co944 Co 0.53994 0.86458 0.76433 0.0
Co945 Co 0.5523 0.90035 0.81619 0.0
O946 O 0.54958 0.89148 0.77608 0.0
C947 C 0.57355 0.85121 0.72613 0.0
O948 O 0.57546 0.83527 0.74312 0.0
C949 C 0.52703 0.93185 0.78753 0.0
O950 O 0.51653 0.91685 0.77602 0.0
O951 O 0.5241 0.8909 0.82557 0.0
O952 O 0.51925 0.864 0.79615 0.0
H953 H 0.54712 0.89307 0.92388 0.0
H954 H 0.54214 0.8978 0.72087 0.0
O955 O 0.56044 0.86501 0.73203 0.0
H956 H 0.46982 0.87671 0.72271 0.0
H957 H 0.51891 0.81102 0.69198 0.0
H958 H 0.52955 0.82629 0.7951 0.0
H959 H 0.49516 0.85966 0.75386 0.0
H960 H 0.53047 0.84518 0.70744 0.0
O961 O 0.5415 0.92804 0.80514 0.0
H962 H 0.54386 0.88176 0.87333 0.0
H963 H 0.56639 0.93894 0.84398 0.0
H964 H 0.51791 0.79194 0.7806 0.0
H965 H 0.5174 0.915 0.68892 0.0
H966 H 0.51253 0.78412 0.72871 0.0
H967 H 0.48091 0.90455 0.68983 0.0
O968 O 0.56021 0.85128 0.79049 0.0
H969 H 0.60583 0.93614 0.7571 0.0
H970 H 0.59298 0.89475 0.84414 0.0
H971 H 0.62818 0.90554 0.83275 0.0
H972 H 0.63477 0.92644 0.789 0.0
H973 H 0.5709 0.92486 0.76915 0.0
H974 H 0.56974 0.95095 0.89422 0.0
H975 H 0.56015 0.92791 0.93459 0.0
O976 O 0.56327 0.87298 0.82784 0.0
C977 C 0.514 0.87524 0.81744 0.0
C978 C 0.5514 0.90324 0.90649 0.0
C979 C 0.56407 0.93573 0.88983 0.0
N980 N 0.55504 0.90963 0.85575 0.0
C981 C 0.54964 0.89689 0.87782 0.0
C982 C 0.56208 0.92887 0.86143 0.0
C983 C 0.55869 0.92279 0.91247 0.0
C984 C 0.52635 0.89298 0.72114 0.0
N985 N 0.52012 0.87771 0.73923 0.0
C986 C 0.51238 0.90285 0.7031 0.0
C987 C 0.49191 0.89702 0.70367 0.0
C988 C 0.48567 0.88142 0.72214 0.0
C989 C 0.50006 0.8719 0.73988 0.0
C990 C 0.52117 0.81424 0.71466 0.0
C991 C 0.52717 0.82302 0.77249 0.0
C992 C 0.52772 0.83356 0.72355 0.0
N993 N 0.5306 0.83775 0.75217 0.0
C994 C 0.52061 0.80354 0.7644 0.0
C995 C 0.5176 0.79916 0.73528 0.0
C996 C 0.56663 0.85578 0.81571 0.0
C997 C 0.60315 0.92708 0.77627 0.0
C998 C 0.59573 0.90378 0.825 0.0
C999 C 0.61569 0.90989 0.8187 0.0
C1000 C 0.61938 0.92162 0.79416 0.0
N1001 N 0.57988 0.90928 0.80742 0.0
C1002 C 0.58339 0.92071 0.78326 0.0
Co1003 Co 0.39295 0.28465 0.01503 0.0
Co1004 Co 0.35842 0.30314 0.06433 0.0
O1005 O 0.36675 0.29676 0.02503 0.0
C1006 C 0.39246 0.3211 0.97638 0.0
O1007 O 0.39103 0.33306 0.99904 0.0
C1008 C 0.32396 0.27836 0.04152 0.0
O1009 O 0.33714 0.2639 0.03527 0.0
O1010 O 0.36529 0.27494 0.07768 0.0
O1011 O 0.39239 0.26681 0.05012 0.0
H1012 H 0.36541 0.30476 0.17229 0.0
H1013 H 0.35848 0.28505 0.97346 0.0
O1014 O 0.39367 0.30181 0.97931 0.0
H1015 H 0.37705 0.21246 0.98461 0.0
H1016 H 0.44519 0.2562 0.94609 0.0
H1017 H 0.43044 0.27371 0.04746 0.0
H1018 H 0.3962 0.23925 0.01046 0.0
H1019 H 0.41178 0.27072 0.95977 0.0
O1020 O 0.32988 0.29456 0.05428 0.0
H1021 H 0.37628 0.29701 0.12253 0.0
H1022 H 0.32141 0.32272 0.08966 0.0
H1023 H 0.46399 0.25907 0.03477 0.0
H1024 H 0.33903 0.25881 0.94694 0.0
H1025 H 0.47154 0.25021 0.98376 0.0
H1026 H 0.34823 0.2222 0.95252 0.0
O1027 O 0.40788 0.30616 0.03738 0.0
H1028 H 0.32827 0.35551 0.99733 0.0
H1029 H 0.36784 0.34484 0.08665 0.0
H1030 H 0.36068 0.37993 0.07014 0.0
H1031 H 0.34071 0.38544 0.0252 0.0
H1032 H 0.33591 0.32067 0.01449 0.0
H1033 H 0.30987 0.33063 0.13908 0.0
H1034 H 0.33197 0.3217 0.18081 0.0
O1035 O 0.38667 0.31218 0.07456 0.0
C1036 C 0.38052 0.26353 0.07151 0.0
C1037 C 0.35566 0.30877 0.15429 0.0
C1038 C 0.32447 0.32326 0.13565 0.0
N1039 N 0.34954 0.30949 0.10323 0.0
C1040 C 0.36175 0.30445 0.12606 0.0
C1041 C 0.33106 0.3187 0.10772 0.0
C1042 C 0.33689 0.31826 0.15905 0.0
C1043 C 0.36266 0.26916 0.9759 0.0
N1044 N 0.37841 0.26368 0.99366 0.0
C1045 C 0.35155 0.25437 0.96086 0.0
C1046 C 0.3567 0.23383 0.96403 0.0
C1047 C 0.37285 0.22836 0.98207 0.0
C1048 C 0.38358 0.24357 0.99679 0.0
C1049 C 0.44207 0.25996 0.9684 0.0
C1050 C 0.43357 0.26977 0.02525 0.0
C1051 C 0.4232 0.26823 0.97627 0.0
N1052 N 0.41911 0.27291 0.00443 0.0
C1053 C 0.45261 0.26154 0.01818 0.0
C1054 C 0.45685 0.2566 0.98955 0.0
C1055 C 0.40393 0.31406 0.06198 0.0
C1056 C 0.33693 0.35331 0.01699 0.0
C1057 C 0.35918 0.3471 0.06705 0.0
C1058 C 0.35514 0.36701 0.05783 0.0
C1059 C 0.34393 0.37009 0.03262 0.0
N1060 N 0.35218 0.33071 0.05166 0.0
C1061 C 0.34124 0.33361 0.02687 0.0
Co1062 Co 0.97373 0.1411 0.26627 0.0
Co1063 Co 0.94822 0.10776 0.31169 0.0
O1064 O 0.95825 0.11618 0.27373 0.0
C1065 C 0.93879 0.14337 0.22505 0.0
O1066 O 0.92663 0.13576 0.24482 0.0
C1067 C 0.97333 0.07264 0.2916 0.0
O1068 O 0.98836 0.08543 0.28654 0.0
O1069 O 0.9753 0.11346 0.33037 0.0
O1070 O 0.99039 0.13664 0.30155 0.0
H1071 H 0.93699 0.11442 0.41852 0.0
H1072 H 0.96989 0.10908 0.2214 0.0
O1073 O 0.95766 0.14623 0.23035 0.0
H1074 H 0.04395 0.11694 0.2377 0.0
H1075 H 0.01062 0.192 0.20356 0.0
H1076 H 0.98855 0.17533 0.30253 0.0
H1077 H 0.01924 0.13833 0.26421 0.0
H1078 H 0.99162 0.16023 0.2135 0.0
O1079 O 0.95675 0.079 0.3029 0.0
H1080 H 0.94948 0.12523 0.37069 0.0
H1081 H 0.92553 0.07119 0.33287 0.0
H1082 H 0.00767 0.20718 0.29359 0.0
H1083 H 0.99405 0.08748 0.19422 0.0
H1084 H 0.01882 0.2157 0.2438 0.0
H1085 H 0.03138 0.0913 0.20238 0.0
O1086 O 0.95378 0.15778 0.28877 0.0
H1087 H 0.90149 0.07914 0.23561 0.0
H1088 H 0.90508 0.118 0.3266 0.0
H1089 H 0.87156 0.11185 0.30387 0.0
H1090 H 0.86961 0.09224 0.25806 0.0
H1091 H 0.9347 0.08589 0.25886 0.0
H1092 H 0.91292 0.05971 0.38032 0.0
H1093 H 0.91856 0.08143 0.42355 0.0
O1094 O 0.93914 0.13626 0.32052 0.0
C1095 C 0.98988 0.12568 0.32423 0.0
C1096 C 0.9344 0.10484 0.39984 0.0
C1097 C 0.92092 0.07412 0.3784 0.0
N1098 N 0.93816 0.0989 0.34901 0.0
C1099 C 0.9414 0.1109 0.37269 0.0
C1100 C 0.92815 0.08067 0.3516 0.0
C1101 C 0.92407 0.08632 0.40265 0.0
C1102 C 0.98612 0.11092 0.22492 0.0
N1103 N 0.99315 0.12492 0.2444 0.0
C1104 C 0.99972 0.09861 0.20953 0.0
C1105 C 0.02066 0.10074 0.21415 0.0
C1106 C 0.02772 0.11511 0.23398 0.0
C1107 C 0.01366 0.12712 0.24901 0.0
C1108 C 0.00586 0.18845 0.22536 0.0
C1109 C 0.99346 0.17887 0.28083 0.0
C1110 C 0.99505 0.17051 0.23111 0.0
N1111 N 0.98907 0.16588 0.2586 0.0
C1112 C 0.00424 0.19696 0.27589 0.0
C1113 C 0.01047 0.20174 0.24794 0.0
C1114 C 0.9418 0.15406 0.30988 0.0
C1115 C 0.90213 0.08769 0.25558 0.0
C1116 C 0.90437 0.10961 0.30656 0.0
C1117 C 0.88534 0.10609 0.29385 0.0
C1118 C 0.88426 0.09506 0.26817 0.0
N1119 N 0.92184 0.10235 0.29408 0.0
C1120 C 0.92089 0.09149 0.26892 0.0
Co1121 Co 0.10843 0.71829 0.51786 0.0
Co1122 Co 0.14519 0.69821 0.5633 0.0
O1123 O 0.13474 0.70503 0.52483 0.0
C1124 C 0.10766 0.68194 0.47874 0.0
O1125 O 0.11757 0.67104 0.49795 0.0
C1126 C 0.17902 0.72249 0.53739 0.0
O1127 O 0.1659 0.73716 0.53185 0.0
O1128 O 0.1397 0.72644 0.57786 0.0
O1129 O 0.11271 0.73678 0.55153 0.0
H1130 H 0.14402 0.69567 0.67167 0.0
H1131 H 0.13952 0.71515 0.47165 0.0
O1132 O 0.10331 0.70057 0.48356 0.0
H1133 H 0.12545 0.78883 0.48163 0.0
H1134 H 0.05261 0.74856 0.45628 0.0
H1135 H 0.07432 0.73166 0.55537 0.0
H1136 H 0.10699 0.76366 0.51146 0.0
H1137 H 0.08614 0.73256 0.46526 0.0
O1138 O 0.17327 0.70641 0.55057 0.0
H1139 H 0.13064 0.70407 0.62335 0.0
H1140 H 0.18313 0.67777 0.58432 0.0
H1141 H 0.04074 0.74785 0.54738 0.0
H1142 H 0.1582 0.73974 0.44115 0.0
H1143 H 0.02969 0.75639 0.49753 0.0
H1144 H 0.15126 0.77689 0.44612 0.0
O1145 O 0.09419 0.6979 0.54276 0.0
H1146 H 0.17221 0.64589 0.49363 0.0
H1147 H 0.13575 0.65648 0.58553 0.0
H1148 H 0.14184 0.62142 0.56809 0.0
H1149 H 0.16025 0.61595 0.52187 0.0
H1150 H 0.16555 0.68071 0.51164 0.0
H1151 H 0.19715 0.66921 0.63222 0.0
H1152 H 0.17752 0.67811 0.67633 0.0
O1153 O 0.11743 0.68955 0.57647 0.0
C1154 C 0.12547 0.73913 0.57206 0.0
C1155 C 0.15271 0.69169 0.65262 0.0
C1156 C 0.18254 0.67686 0.63048 0.0
N1157 N 0.15605 0.69137 0.60104 0.0
C1158 C 0.14519 0.69638 0.6252 0.0
C1159 C 0.17454 0.6818 0.60341 0.0
C1160 C 0.17151 0.68184 0.65521 0.0
C1161 C 0.13635 0.73129 0.47385 0.0
N1162 N 0.12228 0.73799 0.49345 0.0
C1163 C 0.147 0.74514 0.45655 0.0
C1164 C 0.14312 0.76598 0.45938 0.0
C1165 C 0.12866 0.77269 0.47931 0.0
C1166 C 0.11834 0.75839 0.49627 0.0
C1167 C 0.05727 0.74495 0.4781 0.0
C1168 C 0.06968 0.73547 0.53363 0.0
C1169 C 0.07622 0.73583 0.48332 0.0
N1170 N 0.08225 0.73131 0.51085 0.0
C1171 C 0.05062 0.74458 0.52924 0.0
C1172 C 0.04442 0.74934 0.50126 0.0
C1173 C 0.09936 0.689 0.56616 0.0
C1174 C 0.16422 0.64808 0.51384 0.0
C1175 C 0.14366 0.65425 0.5653 0.0
C1176 C 0.14712 0.63435 0.55559 0.0
C1177 C 0.15748 0.63128 0.52967 0.0
N1178 N 0.15034 0.67065 0.54966 0.0
C1179 C 0.1605 0.66776 0.52423 0.0
Co1180 Co 0.53026 0.14317 0.73662 0.0
Co1181 Co 0.55296 0.10799 0.69065 0.0
O1182 O 0.54433 0.11736 0.72904 0.0
C1183 C 0.56576 0.1434 0.77772 0.0
O1184 O 0.57701 0.13304 0.75941 0.0
C1185 C 0.52641 0.07525 0.71399 0.0
O1186 O 0.51413 0.08966 0.72331 0.0
O1187 O 0.52608 0.11551 0.67281 0.0
O1188 O 0.51243 0.13906 0.70236 0.0
H1189 H 0.56284 0.11376 0.58345 0.0
H1190 H 0.53376 0.11202 0.78277 0.0
O1191 O 0.54743 0.14823 0.77157 0.0
H1192 H 0.45978 0.12309 0.76989 0.0
H1193 H 0.49745 0.19682 0.79934 0.0
H1194 H 0.51632 0.17757 0.69999 0.0
H1195 H 0.48474 0.14255 0.74099 0.0
H1196 H 0.5146 0.16399 0.78958 0.0
O1197 O 0.5423 0.07985 0.69949 0.0
H1198 H 0.55196 0.12548 0.63164 0.0
H1199 H 0.57261 0.06987 0.66885 0.0
H1200 H 0.49902 0.21047 0.70875 0.0
H1201 H 0.50937 0.09245 0.81245 0.0
H1202 H 0.48948 0.22029 0.75874 0.0
H1203 H 0.47207 0.09786 0.80598 0.0
O1204 O 0.55041 0.15843 0.71264 0.0
H1205 H 0.59881 0.07567 0.76482 0.0
H1206 H 0.59644 0.11544 0.67452 0.0
H1207 H 0.62981 0.10677 0.69602 0.0
H1208 H 0.63114 0.08669 0.74147 0.0
H1209 H 0.56577 0.08491 0.74279 0.0
H1210 H 0.58357 0.05749 0.62103 0.0
H1211 H 0.57878 0.07954 0.57793 0.0
O1212 O 0.56391 0.13579 0.68141 0.0
C1213 C 0.5121 0.12825 0.67954 0.0
C1214 C 0.56505 0.10403 0.60208 0.0
C1215 C 0.57666 0.07244 0.62317 0.0
N1216 N 0.56173 0.09842 0.65304 0.0
C1217 C 0.55896 0.1106 0.62942 0.0
C1218 C 0.57037 0.07951 0.65017 0.0
C1219 C 0.57398 0.08482 0.59899 0.0
C1220 C 0.51756 0.11461 0.78003 0.0
N1221 N 0.51068 0.12838 0.76011 0.0
C1222 C 0.50382 0.10342 0.79682 0.0
C1223 C 0.4829 0.10644 0.79314 0.0
C1224 C 0.47599 0.12057 0.77286 0.0
C1225 C 0.49018 0.13146 0.75644 0.0
C1226 C 0.5015 0.19271 0.77746 0.0
C1227 C 0.5121 0.18167 0.72177 0.0
C1228 C 0.51127 0.17416 0.77181 0.0
N1229 N 0.51636 0.16881 0.74421 0.0
C1230 C 0.50235 0.20035 0.72661 0.0
C1231 C 0.49703 0.20586 0.75467 0.0
C1232 C 0.5621 0.15385 0.69155 0.0
C1233 C 0.59843 0.08439 0.74498 0.0
C1234 C 0.59689 0.10683 0.6944 0.0
C1235 C 0.61583 0.10189 0.70642 0.0
C1236 C 0.61657 0.0906 0.73189 0.0
N1237 N 0.57917 0.10068 0.70735 0.0
C1238 C 0.57977 0.08959 0.73233 0.0
Co1239 Co 0.11033 0.28248 0.98324 0.0
Co1240 Co 0.14665 0.30317 0.93781 0.0
O1241 O 0.13652 0.29593 0.97624 0.0
C1242 C 0.11003 0.31813 0.02382 0.0
O1243 O 0.11976 0.32942 0.0049 0.0
C1244 C 0.1808 0.27899 0.96313 0.0
O1245 O 0.16784 0.26414 0.9684 0.0
O1246 O 0.14129 0.27504 0.92278 0.0
O1247 O 0.11431 0.26451 0.9489 0.0
H1248 H 0.14478 0.30678 0.82951 0.0
H1249 H 0.14189 0.28501 0.02892 0.0
O1250 O 0.10552 0.29965 0.01821 0.0
H1251 H 0.12776 0.21147 0.01725 0.0
H1252 H 0.05515 0.25121 0.04488 0.0
H1253 H 0.07587 0.26966 0.94595 0.0
H1254 H 0.10899 0.23703 0.98845 0.0
H1255 H 0.08859 0.26733 0.03578 0.0
O1256 O 0.17488 0.2951 0.95016 0.0
H1257 H 0.13174 0.29787 0.87782 0.0
H1258 H 0.18434 0.32402 0.91677 0.0
H1259 H 0.04236 0.25336 0.95406 0.0
H1260 H 0.16089 0.26003 0.05841 0.0
H1261 H 0.0318 0.24405 0.00382 0.0
H1262 H 0.15392 0.22295 0.05258 0.0
O1263 O 0.09581 0.3032 0.95915 0.0
H1264 H 0.17379 0.35513 0.00797 0.0
H1265 H 0.1367 0.345 0.91643 0.0
H1266 H 0.14268 0.37997 0.93431 0.0
H1267 H 0.16141 0.38521 0.98035 0.0
H1268 H 0.16723 0.32042 0.98954 0.0
H1269 H 0.19803 0.33309 0.86888 0.0
H1270 H 0.17817 0.32452 0.82483 0.0
O1271 O 0.11873 0.3117 0.92509 0.0
C1272 C 0.12699 0.26236 0.92824 0.0
C1273 C 0.15357 0.31062 0.84855 0.0
C1274 C 0.18346 0.32536 0.87064 0.0
N1275 N 0.15723 0.31045 0.90008 0.0
C1276 C 0.14624 0.30563 0.87596 0.0
C1277 C 0.17566 0.32013 0.8977 0.0
C1278 C 0.17231 0.32056 0.84593 0.0
C1279 C 0.13872 0.26891 0.02635 0.0
N1280 N 0.12446 0.26246 0.00682 0.0
C1281 C 0.14955 0.25483 0.04307 0.0
C1282 C 0.14565 0.23403 0.03977 0.0
C1283 C 0.13099 0.22758 0.01992 0.0
C1284 C 0.1205 0.2421 0.00354 0.0
C1285 C 0.05959 0.25516 0.02309 0.0
C1286 C 0.07144 0.26551 0.96764 0.0
C1287 C 0.07848 0.26435 0.0178 0.0
N1288 N 0.08423 0.26931 0.99032 0.0
C1289 C 0.05242 0.25635 0.97211 0.0
C1290 C 0.0465 0.25114 1.00004 0.0
C1291 C 0.10073 0.31216 0.9357 0.0
C1292 C 0.16566 0.35305 0.98784 0.0
C1293 C 0.14474 0.34714 0.93658 0.0
C1294 C 0.14815 0.36698 0.94655 0.0
C1295 C 0.15868 0.36992 0.97236 0.0
N1296 N 0.15165 0.33066 0.95187 0.0
C1297 C 0.16199 0.33342 0.97721 0.0
Co1298 Co 0.96928 0.86102 0.24106 0.0
Co1299 Co 0.95058 0.895 0.19091 0.0
O1300 O 0.95692 0.88696 0.23036 0.0
C1301 C 0.93201 0.86131 0.27779 0.0
O1302 O 0.92074 0.86297 0.25446 0.0
C1303 C 0.97537 0.92944 0.21372 0.0
O1304 O 0.98966 0.9162 0.22052 0.0
O1305 O 0.97876 0.88787 0.17761 0.0
O1306 O 0.98776 0.86184 0.20672 0.0
H1307 H 0.94851 0.88698 0.08311 0.0
H1308 H 0.96743 0.89564 0.28228 0.0
O1309 O 0.95138 0.86009 0.276 0.0
H1310 H 0.04054 0.87833 0.27424 0.0
H1311 H 0.99723 0.80952 0.31155 0.0
H1312 H 0.98158 0.82366 0.20938 0.0
H1313 H 0.01461 0.85856 0.24755 0.0
H1314 H 0.98241 0.84263 0.29702 0.0
O1315 O 0.95933 0.92357 0.20049 0.0
H1316 H 0.9563 0.87651 0.13304 0.0
H1317 H 0.93135 0.93198 0.16494 0.0
H1318 H 0.99655 0.79042 0.22293 0.0
H1319 H 0.99279 0.91569 0.3096 0.0
H1320 H 0.00446 0.78318 0.27435 0.0
H1321 H 0.02967 0.90713 0.30558 0.0
O1322 O 0.9485 0.84558 0.21808 0.0
H1323 H 0.89846 0.92596 0.25752 0.0
H1324 H 0.90879 0.88576 0.16873 0.0
H1325 H 0.87375 0.89327 0.18517 0.0
H1326 H 0.86841 0.91355 0.22983 0.0
H1327 H 0.93323 0.91797 0.24045 0.0
H1328 H 0.92341 0.94314 0.11534 0.0
H1329 H 0.93194 0.92053 0.07401 0.0
O1330 O 0.94134 0.86675 0.18124 0.0
C1331 C 0.99069 0.87325 0.18474 0.0
C1332 C 0.94469 0.89696 0.10094 0.0
C1333 C 0.93063 0.92849 0.11902 0.0
N1334 N 0.94423 0.90359 0.15187 0.0
C1335 C 0.94904 0.89109 0.12926 0.0
C1336 C 0.93522 0.92212 0.14705 0.0
C1337 C 0.93541 0.91579 0.09585 0.0
C1338 C 0.98343 0.89174 0.28052 0.0
N1339 N 0.98955 0.87602 0.26315 0.0
C1340 C 0.99773 0.90319 0.296 0.0
C1341 C 0.01842 0.89839 0.29371 0.0
C1342 C 0.02453 0.88225 0.2761 0.0
C1343 C 0.0098 0.87118 0.26089 0.0
C1344 C 0.99388 0.81251 0.28907 0.0
C1345 C 0.98512 0.82068 0.23177 0.0
C1346 C 0.98544 0.83121 0.28072 0.0
N1347 N 0.98129 0.83513 0.25234 0.0
C1348 C 0.99353 0.8018 0.23933 0.0
C1349 C 0.99795 0.79774 0.26818 0.0
C1350 C 0.94006 0.84944 0.1938 0.0
C1351 C 0.90059 0.91717 0.23798 0.0
C1352 C 0.9066 0.89455 0.18823 0.0
C1353 C 0.88672 0.89879 0.1974 0.0
C1354 C 0.88374 0.91018 0.22245 0.0
N1355 N 0.92306 0.90152 0.20351 0.0
C1356 C 0.92025 0.91265 0.22814 0.0
Co1357 Co 0.39329 0.71804 0.48455 0.0
Co1358 Co 0.35773 0.69697 0.43857 0.0
O1359 O 0.36719 0.7047 0.47704 0.0
C1360 C 0.39389 0.68268 0.52538 0.0
O1361 O 0.38849 0.6703 0.50443 0.0
C1362 C 0.32296 0.72112 0.46207 0.0
O1363 O 0.33568 0.73622 0.46713 0.0
O1364 O 0.36302 0.72505 0.42336 0.0
O1365 O 0.39024 0.73539 0.44928 0.0
H1366 H 0.361 0.69262 0.3304 0.0
H1367 H 0.36041 0.71691 0.5285 0.0
O1368 O 0.39662 0.70161 0.52051 0.0
H1369 H 0.3764 0.78993 0.51527 0.0
H1370 H 0.4475 0.74974 0.54754 0.0
H1371 H 0.42866 0.72988 0.44839 0.0
H1372 H 0.39545 0.76351 0.48847 0.0
H1373 H 0.4141 0.73379 0.53752 0.0
O1374 O 0.32926 0.7048 0.44999 0.0
H1375 H 0.37331 0.70209 0.3789 0.0
H1376 H 0.32064 0.67541 0.41688 0.0
H1377 H 0.46214 0.74599 0.4574 0.0
H1378 H 0.34112 0.74276 0.55601 0.0
H1379 H 0.47175 0.75602 0.50729 0.0
H1380 H 0.34901 0.77958 0.54937 0.0
O1381 O 0.40814 0.69671 0.46189 0.0
H1382 H 0.33141 0.6454 0.50982 0.0
H1383 H 0.36815 0.65506 0.41794 0.0
H1384 H 0.36277 0.62021 0.43665 0.0
H1385 H 0.34425 0.6152 0.48288 0.0
H1386 H 0.33729 0.68 0.49047 0.0
H1387 H 0.30769 0.66576 0.36878 0.0
H1388 H 0.32796 0.67431 0.32512 0.0
O1389 O 0.3859 0.68867 0.42674 0.0
C1390 C 0.37752 0.73757 0.42862 0.0
C1391 C 0.35204 0.68878 0.34926 0.0
C1392 C 0.32211 0.67373 0.3708 0.0
N1393 N 0.34775 0.68926 0.40069 0.0
C1394 C 0.35895 0.69408 0.37677 0.0
C1395 C 0.32949 0.67929 0.39797 0.0
C1396 C 0.3335 0.67852 0.34631 0.0
C1397 C 0.36397 0.7329 0.52554 0.0
N1398 N 0.37888 0.73873 0.50662 0.0
C1399 C 0.35298 0.74747 0.54116 0.0
C1400 C 0.3574 0.76812 0.53741 0.0
C1401 C 0.37274 0.77394 0.51825 0.0
C1402 C 0.38339 0.75894 0.50297 0.0
C1403 C 0.44348 0.74546 0.52571 0.0
C1404 C 0.43268 0.73434 0.47012 0.0
C1405 C 0.42461 0.73636 0.51991 0.0
N1406 N 0.41938 0.73103 0.49236 0.0
C1407 C 0.45168 0.74339 0.47511 0.0
C1408 C 0.45707 0.749 0.50311 0.0
C1409 C 0.40365 0.68792 0.43812 0.0
C1410 C 0.33945 0.64738 0.48961 0.0
C1411 C 0.36013 0.65302 0.43812 0.0
C1412 C 0.35709 0.63324 0.44857 0.0
C1413 C 0.34668 0.63044 0.4745 0.0
N1414 N 0.35295 0.66956 0.45302 0.0
C1415 C 0.34275 0.66693 0.47848 0.0
Co1416 Co 0.46481 0.14065 0.24158 0.0
Co1417 Co 0.44879 0.10478 0.19205 0.0
O1418 O 0.45389 0.1139 0.23152 0.0
C1419 C 0.42709 0.14018 0.27793 0.0
O1420 O 0.41571 0.13887 0.25466 0.0
C1421 C 0.47463 0.0728 0.21835 0.0
O1422 O 0.4862 0.0876 0.22824 0.0
O1423 O 0.47671 0.11319 0.17952 0.0
O1424 O 0.48379 0.14024 0.20773 0.0
H1425 H 0.44854 0.11092 0.08396 0.0
H1426 H 0.46408 0.10741 0.28512 0.0
O1427 O 0.44646 0.14129 0.27608 0.0
H1428 H 0.53643 0.12766 0.27708 0.0
H1429 H 0.48929 0.19472 0.31078 0.0
H1430 H 0.47555 0.17804 0.20882 0.0
H1431 H 0.50997 0.14508 0.24827 0.0
H1432 H 0.47629 0.16069 0.29714 0.0
O1433 O 0.45925 0.07687 0.20249 0.0
H1434 H 0.45476 0.12259 0.1338 0.0
H1435 H 0.432 0.06645 0.16663 0.0
H1436 H 0.48871 0.2122 0.22149 0.0
H1437 H 0.48996 0.08984 0.31478 0.0
H1438 H 0.49566 0.22073 0.27279 0.0
H1439 H 0.52646 0.09985 0.31073 0.0
O1440 O 0.44364 0.15454 0.21743 0.0
H1441 H 0.39739 0.07173 0.25771 0.0
H1442 H 0.40695 0.1115 0.16835 0.0
H1443 H 0.37211 0.10224 0.18385 0.0
H1444 H 0.36717 0.08218 0.2288 0.0
H1445 H 0.43195 0.08144 0.24152 0.0
H1446 H 0.42567 0.0541 0.11714 0.0
H1447 H 0.43389 0.07643 0.07539 0.0
O1448 O 0.43819 0.13238 0.18112 0.0
C1449 C 0.48766 0.1286 0.1863 0.0
C1450 C 0.44485 0.10106 0.10198 0.0
C1451 C 0.43204 0.06916 0.12059 0.0
N1452 N 0.44365 0.09527 0.15309 0.0
C1453 C 0.44829 0.10761 0.13024 0.0
C1454 C 0.43571 0.07622 0.14856 0.0
C1455 C 0.43665 0.0817 0.09718 0.0
C1456 C 0.4799 0.11201 0.28344 0.0
N1457 N 0.48552 0.12722 0.26485 0.0
C1458 C 0.4945 0.10194 0.30021 0.0
C1459 C 0.51498 0.10753 0.29789 0.0
C1460 C 0.52059 0.12311 0.27897 0.0
C1461 C 0.50556 0.13284 0.26255 0.0
C1462 C 0.48635 0.19118 0.28834 0.0
C1463 C 0.47867 0.18159 0.23118 0.0
C1464 C 0.47895 0.17195 0.28049 0.0
N1465 N 0.47532 0.16733 0.25218 0.0
C1466 C 0.48606 0.20098 0.23822 0.0
C1467 C 0.48994 0.20576 0.26702 0.0
C1468 C 0.43595 0.14987 0.19294 0.0
C1469 C 0.39935 0.08042 0.23803 0.0
C1470 C 0.40493 0.1028 0.18796 0.0
C1471 C 0.38516 0.09757 0.1966 0.0
C1472 C 0.3824 0.08631 0.22182 0.0
N1473 N 0.42148 0.09689 0.20391 0.0
C1474 C 0.41889 0.0859 0.2287 0.0
Co1475 Co 0.61278 0.71728 0.98946 0.0
Co1476 Co 0.64901 0.70387 0.9391 0.0
O1477 O 0.63985 0.70739 0.97891 0.0
C1478 C 0.61367 0.67889 0.02469 0.0
O1479 O 0.61427 0.66773 0.00116 0.0
C1480 C 0.68101 0.72852 0.96776 0.0
O1481 O 0.66625 0.73961 0.97878 0.0
O1482 O 0.64036 0.73221 0.92884 0.0
O1483 O 0.61249 0.73695 0.95638 0.0
H1484 H 0.64279 0.70785 0.83117 0.0
H1485 H 0.64601 0.71676 0.03308 0.0
O1486 O 0.61282 0.69828 0.02329 0.0
H1487 H 0.6235 0.78855 0.02767 0.0
H1488 H 0.55803 0.73866 0.0596 0.0
H1489 H 0.57501 0.72741 0.95717 0.0
H1490 H 0.60696 0.76214 0.9978 0.0
H1491 H 0.59245 0.72703 0.04547 0.0
O1492 O 0.67689 0.71402 0.95036 0.0
H1493 H 0.63114 0.71209 0.88142 0.0
H1494 H 0.68744 0.68834 0.9124 0.0
H1495 H 0.54045 0.73922 0.97034 0.0
H1496 H 0.66269 0.74258 0.06382 0.0
H1497 H 0.53177 0.74492 0.02189 0.0
H1498 H 0.65155 0.77881 0.06108 0.0
O1499 O 0.59962 0.69616 0.9645 0.0
H1500 H 0.68235 0.65018 0.00075 0.0
H1501 H 0.64269 0.663 0.91206 0.0
H1502 H 0.65222 0.62768 0.92483 0.0
H1503 H 0.67223 0.6211 0.96943 0.0
H1504 H 0.67238 0.68525 0.98729 0.0
H1505 H 0.69977 0.68399 0.86248 0.0
H1506 H 0.67734 0.6937 0.82145 0.0
O1507 O 0.62147 0.69344 0.92727 0.0
C1508 C 0.62434 0.7422 0.93578 0.0
C1509 C 0.65269 0.70351 0.84886 0.0
C1510 C 0.68468 0.69015 0.86643 0.0
N1511 N 0.65855 0.70036 0.8998 0.0
C1512 C 0.64616 0.70584 0.87736 0.0
C1513 C 0.67763 0.6927 0.89465 0.0
C1514 C 0.67208 0.6956 0.84342 0.0
C1515 C 0.6409 0.73245 0.03198 0.0
N1516 N 0.62556 0.73795 0.01352 0.0
C1517 C 0.65048 0.74702 0.04936 0.0
C1518 C 0.64425 0.76735 0.04777 0.0
C1519 C 0.62855 0.77283 0.02899 0.0
C1520 C 0.61932 0.75784 0.01195 0.0
C1521 C 0.56163 0.73627 0.03707 0.0
C1522 C 0.57139 0.72998 0.97963 0.0
C1523 C 0.58109 0.72964 0.02893 0.0
N1524 N 0.58578 0.7267 1.00049 0.0
C1525 C 0.55178 0.73661 0.98697 0.0
C1526 C 0.54691 0.73978 0.01589 0.0
C1527 C 0.60428 0.68981 0.93927 0.0
C1528 C 0.67369 0.65286 0.98121 0.0
C1529 C 0.65138 0.66026 0.93153 0.0
C1530 C 0.65675 0.64023 0.93862 0.0
C1531 C 0.66798 0.63655 0.96365 0.0
N1532 N 0.65711 0.67619 0.94881 0.0
C1533 C 0.66806 0.6727 0.97342 0.0
Co1534 Co 0.03741 0.86175 0.73642 0.0
Co1535 Co 0.05392 0.89763 0.68641 0.0
O1536 O 0.04859 0.88857 0.72619 0.0
C1537 C 0.07191 0.86905 0.77908 0.0
O1538 O 0.07796 0.88571 0.76592 0.0
C1539 C 0.0271 0.92916 0.71216 0.0
O1540 O 0.01621 0.91421 0.72307 0.0
O1541 O 0.0265 0.88822 0.67287 0.0
O1542 O 0.01775 0.86317 0.70357 0.0
H1543 H 0.05645 0.89025 0.57854 0.0
H1544 H 0.03922 0.89515 0.78006 0.0
O1545 O 0.05665 0.85886 0.76987 0.0
H1546 H 0.96677 0.8749 0.77537 0.0
H1547 H 0.01286 0.8068 0.80426 0.0
H1548 H 0.02545 0.82523 0.70263 0.0
H1549 H 0.99249 0.85754 0.74524 0.0
H1550 H 0.02627 0.84085 0.79159 0.0
O1551 O 0.04227 0.92527 0.69584 0.0
H1552 H 0.04976 0.87892 0.62841 0.0
H1553 H 0.06961 0.93633 0.66067 0.0
H1554 H 0.01184 0.79108 0.71433 0.0
H1555 H 0.01415 0.91261 0.81099 0.0
H1556 H 0.00547 0.78167 0.76547 0.0
H1557 H 0.97757 0.90261 0.80867 0.0
O1558 O 0.05796 0.84789 0.71157 0.0
H1559 H 0.10291 0.93565 0.75057 0.0
H1560 H 0.09643 0.8914 0.66495 0.0
H1561 H 0.13058 0.90281 0.68056 0.0
H1562 H 0.13399 0.92517 0.7236 0.0
H1563 H 0.06908 0.9236 0.73453 0.0
H1564 H 0.07639 0.94833 0.61114 0.0
H1565 H 0.06987 0.92519 0.56966 0.0
O1566 O 0.06576 0.8703 0.67647 0.0
C1567 C 0.01467 0.87385 0.681 0.0
C1568 C 0.05939 0.90046 0.59644 0.0
C1569 C 0.07056 0.93307 0.61473 0.0
N1570 N 0.05937 0.90691 0.64742 0.0
C1571 C 0.05567 0.89412 0.62472 0.0
C1572 C 0.06664 0.92621 0.64272 0.0
C1573 C 0.0669 0.92008 0.59147 0.0
C1574 C 0.02345 0.89043 0.77921 0.0
N1575 N 0.01741 0.8752 0.76093 0.0
C1576 C 0.00926 0.9005 0.79666 0.0
C1577 C 0.98874 0.89492 0.7953 0.0
C1578 C 0.98267 0.8794 0.77659 0.0
C1579 C 0.99729 0.86968 0.75946 0.0
C1580 C 0.01553 0.81074 0.78189 0.0
C1581 C 0.02256 0.82131 0.72491 0.0
C1582 C 0.02316 0.82998 0.77458 0.0
N1583 N 0.02646 0.8351 0.74636 0.0
C1584 C 0.01493 0.80192 0.73142 0.0
C1585 C 0.01138 0.79665 0.76011 0.0
C1586 C 0.06707 0.85268 0.68819 0.0
C1587 C 0.10163 0.92594 0.73175 0.0
C1588 C 0.09777 0.90094 0.68388 0.0
C1589 C 0.11716 0.90745 0.69253 0.0
C1590 C 0.11906 0.92002 0.71664 0.0
N1591 N 0.08074 0.90678 0.69884 0.0
C1592 C 0.08249 0.91914 0.72247 0.0
Co1593 Co 0.89357 0.28687 0.48618 0.0
Co1594 Co 0.85848 0.30437 0.43762 0.0
O1595 O 0.8666 0.2975 0.47682 0.0
C1596 C 0.88915 0.32096 0.52765 0.0
O1597 O 0.88605 0.33317 0.50561 0.0
C1598 C 0.82399 0.2789 0.4593 0.0
O1599 O 0.83712 0.2644 0.46566 0.0
O1600 O 0.86604 0.27638 0.42406 0.0
O1601 O 0.89514 0.27152 0.44889 0.0
H1602 H 0.86644 0.30725 0.32987 0.0
H1603 H 0.85954 0.28176 0.52783 0.0
O1604 O 0.8925 0.30199 0.52369 0.0
H1605 H 0.88262 0.21189 0.50495 0.0
H1606 H 0.9468 0.2581 0.55333 0.0
H1607 H 0.93247 0.2814 0.45418 0.0
H1608 H 0.89958 0.24174 0.483 0.0
H1609 H 0.91255 0.27079 0.54008 0.0
O1610 O 0.83 0.29518 0.44686 0.0
H1611 H 0.87695 0.29909 0.37968 0.0
H1612 H 0.82136 0.32359 0.41194 0.0
H1613 H 0.96688 0.2687 0.46642 0.0
H1614 H 0.84227 0.25235 0.55045 0.0
H1615 H 0.97422 0.25692 0.51632 0.0
H1616 H 0.85377 0.21711 0.53898 0.0
O1617 O 0.90678 0.31064 0.46704 0.0
H1618 H 0.82665 0.35519 0.50537 0.0
H1619 H 0.86695 0.34658 0.41632 0.0
H1620 H 0.85883 0.38128 0.43356 0.0
H1621 H 0.83849 0.38575 0.47835 0.0
H1622 H 0.83529 0.32077 0.48752 0.0
H1623 H 0.81017 0.33186 0.36246 0.0
H1624 H 0.83283 0.32376 0.32102 0.0
O1625 O 0.88674 0.31434 0.42804 0.0
C1626 C 0.88297 0.26715 0.42828 0.0
C1627 C 0.85645 0.3109 0.34775 0.0
C1628 C 0.82486 0.32469 0.36604 0.0
N1629 N 0.84984 0.31098 0.39869 0.0
C1630 C 0.86234 0.30636 0.37601 0.0
C1631 C 0.83125 0.31992 0.394 0.0
C1632 C 0.83759 0.32015 0.3428 0.0
C1633 C 0.86476 0.26648 0.52295 0.0
N1634 N 0.88062 0.26348 0.50425 0.0
C1635 C 0.85487 0.24988 0.53573 0.0
C1636 C 0.86131 0.23011 0.52925 0.0
C1637 C 0.87749 0.22717 0.51014 0.0
C1638 C 0.887 0.24413 0.49774 0.0
C1639 C 0.94377 0.26313 0.53149 0.0
C1640 C 0.9355 0.27617 0.47588 0.0
C1641 C 0.92442 0.27037 0.52388 0.0
N1642 N 0.92046 0.27664 0.49631 0.0
C1643 C 0.95503 0.26906 0.48271 0.0
C1644 C 0.95915 0.26247 0.51072 0.0
C1645 C 0.90321 0.31796 0.44202 0.0
C1646 C 0.83547 0.35344 0.48577 0.0
C1647 C 0.85816 0.34839 0.43588 0.0
C1648 C 0.85357 0.36808 0.4455 0.0
C1649 C 0.84215 0.37058 0.47063 0.0
N1650 N 0.85152 0.33165 0.45081 0.0
C1651 C 0.84035 0.33398 0.4755 0.0
Co1652 Co 0.46238 0.86174 0.26396 0.0
Co1653 Co 0.44615 0.89768 0.31406 0.0
O1654 O 0.45132 0.88858 0.27428 0.0
C1655 C 0.42794 0.86948 0.22135 0.0
O1656 O 0.4224 0.88642 0.23422 0.0
C1657 C 0.47338 0.92882 0.28847 0.0
O1658 O 0.48415 0.91367 0.27787 0.0
O1659 O 0.47352 0.88812 0.32744 0.0
O1660 O 0.48225 0.86314 0.29659 0.0
H1661 H 0.44386 0.89036 0.42195 0.0
H1662 H 0.46058 0.89536 0.22052 0.0
O1663 O 0.44291 0.85892 0.23071 0.0
H1664 H 0.53288 0.87451 0.22431 0.0
H1665 H 0.48636 0.8067 0.19586 0.0
H1666 H 0.47453 0.82522 0.29764 0.0
H1667 H 0.5072 0.85724 0.25458 0.0
H1668 H 0.47309 0.84078 0.20867 0.0
O1669 O 0.458 0.9252 0.30454 0.0
H1670 H 0.45036 0.87897 0.37206 0.0
H1671 H 0.43078 0.93649 0.33985 0.0
H1672 H 0.48802 0.79104 0.28579 0.0
H1673 H 0.48561 0.91273 0.18947 0.0
H1674 H 0.49401 0.78159 0.23458 0.0
H1675 H 0.52212 0.90243 0.19133 0.0
O1676 O 0.44196 0.84791 0.28909 0.0
H1677 H 0.39726 0.93613 0.25026 0.0
H1678 H 0.40365 0.89167 0.33568 0.0
H1679 H 0.36954 0.90334 0.32026 0.0
H1680 H 0.36618 0.9258 0.27732 0.0
H1681 H 0.43105 0.92383 0.26611 0.0
H1682 H 0.42422 0.94856 0.38941 0.0
H1683 H 0.4307 0.92539 0.43087 0.0
O1684 O 0.43421 0.87044 0.32407 0.0
C1685 C 0.48537 0.87381 0.31918 0.0
C1686 C 0.44094 0.90058 0.40406 0.0
C1687 C 0.42994 0.93326 0.3858 0.0
N1688 N 0.44087 0.90701 0.35307 0.0
C1689 C 0.44455 0.8942 0.37576 0.0
C1690 C 0.43374 0.92636 0.35779 0.0
C1691 C 0.43357 0.92025 0.40905 0.0
C1692 C 0.47631 0.89049 0.22116 0.0
N1693 N 0.48231 0.87512 0.23924 0.0
C1694 C 0.49048 0.90051 0.20363 0.0
C1695 C 0.51096 0.89477 0.20474 0.0
C1696 C 0.51701 0.87913 0.22327 0.0
C1697 C 0.50241 0.86946 0.24047 0.0
C1698 C 0.48386 0.81065 0.21826 0.0
C1699 C 0.47724 0.82127 0.27532 0.0
C1700 C 0.4763 0.82991 0.22565 0.0
N1701 N 0.4732 0.83505 0.25391 0.0
C1702 C 0.48482 0.80187 0.26874 0.0
C1703 C 0.48815 0.79657 0.24 0.0
C1704 C 0.43292 0.85277 0.3125 0.0
C1705 C 0.39852 0.92637 0.26903 0.0
C1706 C 0.40232 0.90126 0.31678 0.0
C1707 C 0.38296 0.90791 0.30825 0.0
C1708 C 0.38109 0.92054 0.28419 0.0
N1709 N 0.41936 0.90702 0.30177 0.0
C1710 C 0.41764 0.91944 0.2782 0.0
Co1711 Co 0.89091 0.72075 0.01486 0.0
Co1712 Co 0.85731 0.69846 0.0632 0.0
O1713 O 0.86522 0.70726 0.02439 0.0
C1714 C 0.88987 0.68519 0.9746 0.0
O1715 O 0.8849 0.67312 0.99612 0.0
C1716 C 0.82419 0.72549 0.04258 0.0
O1717 O 0.83854 0.73804 0.03384 0.0
O1718 O 0.86554 0.72525 0.08056 0.0
O1719 O 0.88916 0.73798 0.05019 0.0
H1720 H 0.86663 0.68816 0.16985 0.0
H1721 H 0.85738 0.71922 0.97182 0.0
O1722 O 0.89305 0.70413 0.9789 0.0
H1723 H 0.87188 0.79247 0.98601 0.0
H1724 H 0.94224 0.75281 0.94771 0.0
H1725 H 0.92752 0.73306 0.04826 0.0
H1726 H 0.89169 0.76628 0.01216 0.0
H1727 H 0.90948 0.73649 0.96034 0.0
O1728 O 0.82892 0.70919 0.05609 0.0
H1729 H 0.87677 0.69919 0.12101 0.0
H1730 H 0.81992 0.67887 0.08733 0.0
H1731 H 0.96041 0.7495 0.03662 0.0
H1732 H 0.83748 0.74486 0.94475 0.0
H1733 H 0.96795 0.75949 0.98602 0.0
H1734 H 0.84459 0.78179 0.95192 0.0
O1735 O 0.90671 0.69972 0.03654 0.0
H1736 H 0.8233 0.65286 0.9903 0.0
H1737 H 0.86514 0.65495 0.07876 0.0
H1738 H 0.85606 0.62166 0.05742 0.0
H1739 H 0.83495 0.62047 0.01289 0.0
H1740 H 0.83289 0.68582 0.01221 0.0
H1741 H 0.80909 0.66777 0.13584 0.0
H1742 H 0.83256 0.67233 0.17749 0.0
O1743 O 0.88543 0.68748 0.07057 0.0
C1744 C 0.87882 0.73863 0.07347 0.0
C1745 C 0.85628 0.68606 0.15186 0.0
C1746 C 0.82397 0.67464 0.13278 0.0
N1747 N 0.84899 0.6896 0.10135 0.0
C1748 C 0.86196 0.69223 0.12415 0.0
C1749 C 0.83016 0.68101 0.10538 0.0
C1750 C 0.83715 0.67719 0.15614 0.0
C1751 C 0.86069 0.73526 0.97487 0.0
N1752 N 0.87561 0.74126 0.99369 0.0
C1753 C 0.84933 0.74971 0.95954 0.0
C1754 C 0.8533 0.77042 0.96362 0.0
C1755 C 0.86858 0.77643 0.98278 0.0
C1756 C 0.87966 0.76155 0.99769 0.0
C1757 C 0.93913 0.74855 0.96984 0.0
C1758 C 0.93063 0.73748 0.02622 0.0
C1759 C 0.92062 0.73925 0.97711 0.0
N1760 N 0.91654 0.73393 0.00504 0.0
C1761 C 0.94931 0.74673 0.01975 0.0
C1762 C 0.95354 0.75231 0.99135 0.0
C1763 C 0.90296 0.68855 0.05851 0.0
C1764 C 0.83246 0.65317 0.00975 0.0
C1765 C 0.85602 0.65457 0.05933 0.0
C1766 C 0.85088 0.63566 0.04738 0.0
C1767 C 0.83902 0.63501 0.02241 0.0
N1768 N 0.8495 0.67232 0.04682 0.0
C1769 C 0.83788 0.6718 0.02232 0.0
Co1770 Co 0.03488 0.14132 0.76843 0.0
Co1771 Co 0.05572 0.10394 0.8121 0.0
O1772 O 0.04708 0.11437 0.77431 0.0
C1773 C 0.06848 0.14018 0.72475 0.0
O1774 O 0.08094 0.1322 0.74389 0.0
C1775 C 0.02885 0.07195 0.78742 0.0
O1776 O 0.01646 0.08662 0.77927 0.0
O1777 O 0.02886 0.1111 0.82986 0.0
O1778 O 0.01882 0.13879 0.80479 0.0
H1779 H 0.06506 0.10639 0.91967 0.0
H1780 H 0.03258 0.11042 0.72178 0.0
O1781 O 0.05015 0.14456 0.73151 0.0
H1782 H 0.96103 0.12779 0.74435 0.0
H1783 H 0.00302 0.19775 0.70968 0.0
H1784 H 0.0268 0.17688 0.80628 0.0
H1785 H 0.98938 0.14465 0.77011 0.0
H1786 H 0.01763 0.16346 0.71755 0.0
O1787 O 0.045 0.07612 0.80162 0.0
H1788 H 0.05436 0.11956 0.87213 0.0
H1789 H 0.07536 0.06524 0.83173 0.0
H1790 H 0.01211 0.21126 0.79943 0.0
H1791 H 0.00471 0.09342 0.69517 0.0
H1792 H 1.00011 0.22189 0.75083 0.0
H1793 H 0.96862 0.102 0.70652 0.0
O1794 O 0.05776 0.15457 0.78974 0.0
H1795 H 0.10172 0.07396 0.73629 0.0
H1796 H 0.09917 0.111 0.82888 0.0
H1797 H 0.13258 0.10301 0.80703 0.0
H1798 H 0.134 0.08432 0.76042 0.0
H1799 H 0.06863 0.08244 0.75876 0.0
H1800 H 0.08614 0.0514 0.87886 0.0
H1801 H 0.08108 0.07207 0.92323 0.0
O1802 O 0.06674 0.13139 0.82321 0.0
C1803 C 0.01695 0.12623 0.82562 0.0
C1804 C 0.06739 0.09726 0.90048 0.0
C1805 C 0.0792 0.06639 0.87758 0.0
N1806 N 0.06433 0.09323 0.84918 0.0
C1807 C 0.0614 0.10465 0.8735 0.0
C1808 C 0.07301 0.07428 0.85097 0.0
C1809 C 0.07636 0.078 0.90247 0.0
C1810 C 0.01692 0.11438 0.72664 0.0
N1811 N 0.01261 0.12846 0.74755 0.0
C1812 C 1.0012 0.10464 0.71158 0.0
C1813 C 0.98096 0.10944 0.718 0.0
C1814 C 0.97669 0.12389 0.73925 0.0
C1815 C 0.9928 0.1333 0.75387 0.0
C1816 C 0.00818 0.19329 0.73096 0.0
C1817 C 0.02151 0.18136 0.7851 0.0
C1818 C 0.01653 0.17392 0.73553 0.0
N1819 N 0.02299 0.16814 0.76238 0.0
C1820 C 0.01325 0.20086 0.78134 0.0
C1821 C 0.00654 0.20682 0.75406 0.0
C1822 C 0.06771 0.14926 0.81222 0.0
C1823 C 0.1013 0.08206 0.75665 0.0
C1824 C 0.09965 0.10292 0.80855 0.0
C1825 C 0.11862 0.0984 0.79631 0.0
C1826 C 0.11941 0.0879 0.77018 0.0
N1827 N 0.08196 0.0971 0.79518 0.0
C1828 C 0.08261 0.08682 0.76954 0.0
Co1829 Co 0.61016 0.28697 0.51534 0.0
Co1830 Co 0.64702 0.30205 0.56258 0.0
O1831 O 0.6376 0.29681 0.52345 0.0
C1832 C 0.61312 0.32192 0.47459 0.0
O1833 O 0.61606 0.33414 0.49666 0.0
C1834 C 0.68074 0.27719 0.53729 0.0
O1835 O 0.66743 0.26277 0.53136 0.0
O1836 O 0.63977 0.27357 0.57426 0.0
O1837 O 0.60942 0.27074 0.55197 0.0
H1838 H 0.64287 0.30026 0.67082 0.0
H1839 H 0.64284 0.28206 0.47156 0.0
O1840 O 0.61042 0.30284 0.4784 0.0
H1841 H 0.61857 0.21226 0.49229 0.0
H1842 H 0.55414 0.26103 0.45047 0.0
H1843 H 0.57222 0.28161 0.5496 0.0
H1844 H 0.60306 0.24195 0.51666 0.0
H1845 H 0.58908 0.27261 0.46203 0.0
O1846 O 0.67514 0.29325 0.55066 0.0
H1847 H 0.63063 0.2942 0.6212 0.0
H1848 H 0.68497 0.32027 0.58723 0.0
H1849 H 0.53716 0.26999 0.53905 0.0
H1850 H 0.65866 0.25281 0.44652 0.0
H1851 H 0.52793 0.25959 0.48917 0.0
H1852 H 0.64656 0.2176 0.45688 0.0
O1853 O 0.59821 0.31057 0.53654 0.0
H1854 H 0.67654 0.35568 0.49711 0.0
H1855 H 0.63927 0.34326 0.58789 0.0
H1856 H 0.64683 0.37864 0.57306 0.0
H1857 H 0.66564 0.38503 0.5274 0.0
H1858 H 0.66852 0.32055 0.51262 0.0
H1859 H 0.69787 0.32646 0.63649 0.0
H1860 H 0.67672 0.31651 0.6787 0.0
O1861 O 0.61913 0.31154 0.57492 0.0
C1862 C 0.62233 0.26512 0.57104 0.0
C1863 C 0.6522 0.30472 0.6526 0.0
C1864 C 0.68309 0.3194 0.63333 0.0
N1865 N 0.657 0.30701 0.60136 0.0
C1866 C 0.64533 0.30137 0.62446 0.0
C1867 C 0.67572 0.3158 0.6055 0.0
C1868 C 0.6712 0.31382 0.65701 0.0
C1869 C 0.63736 0.2668 0.47598 0.0
N1870 N 0.62196 0.26373 0.4954 0.0
C1871 C 0.64643 0.25029 0.46182 0.0
C1872 C 0.63965 0.23054 0.46768 0.0
C1873 C 0.62396 0.22753 0.48755 0.0
C1874 C 0.61526 0.2444 0.50133 0.0
C1875 C 0.55799 0.26548 0.4723 0.0
C1876 C 0.56837 0.27698 0.52789 0.0
C1877 C 0.57774 0.27208 0.47896 0.0
N1878 N 0.58273 0.2776 0.50652 0.0
C1879 C 0.54847 0.27048 0.52202 0.0
C1880 C 0.54329 0.26467 0.49402 0.0
C1881 C 0.60244 0.31629 0.5622 0.0
C1882 C 0.6684 0.35309 0.5171 0.0
C1883 C 0.64743 0.34591 0.56796 0.0
C1884 C 0.6517 0.36598 0.5597 0.0
C1885 C 0.66226 0.36955 0.53409 0.0
N1886 N 0.65357 0.32984 0.55124 0.0
C1887 C 0.66387 0.33323 0.52605 0.0
H1888 H 0.04447 0.33976 0.18066 0.0
H1889 H 0.12671 0.35033 0.05442 0.0
H1890 H 0.10275 0.36881 0.196 0.0
H1891 H 0.07916 0.30469 0.05769 0.0
H1892 H 0.11644 0.36193 0.10301 0.0
H1893 H 0.05515 0.33174 0.13195 0.0
C1894 C 0.05956 0.34451 0.17382 0.0
C1895 C 0.07279 0.35486 0.19265 0.0
C1896 C 0.10832 0.34941 0.09291 0.0
C1897 C 0.08516 0.34563 0.13636 0.0
C1898 C 0.11406 0.34289 0.06522 0.0
C1899 C 0.1038 0.32649 0.05209 0.0
C1900 C 0.09203 0.33965 0.10707 0.0
C1901 C 0.08761 0.31728 0.06703 0.0
C1902 C 0.06567 0.33985 0.1459 0.0
C1903 C 0.09214 0.36064 0.18228 0.0
N1904 N 0.08222 0.32402 0.09358 0.0
N1905 N 0.09779 0.35594 0.15472 0.0
H1906 H 0.89448 0.84559 0.29183 0.0
H1907 H 0.90957 0.8597 0.46202 0.0
H1908 H 0.9481 0.87342 0.32913 0.0
H1909 H 0.87887 0.80771 0.42466 0.0
H1910 H 0.91637 0.87266 0.41312 0.0
H1911 H 0.88125 0.83943 0.34074 0.0
C1912 C 0.90326 0.85073 0.31028 0.0
C1913 C 0.92248 0.8598 0.30655 0.0
C1914 C 0.90788 0.85858 0.41577 0.0
C1915 C 0.9074 0.85312 0.36213 0.0
C1916 C 0.90393 0.85125 0.44357 0.0
C1917 C 0.89385 0.83253 0.44726 0.0
C1918 C 0.90128 0.84731 0.39171 0.0
C1919 C 0.88691 0.8221 0.42267 0.0
C1920 C 0.89577 0.84714 0.33807 0.0
C1921 C 0.93331 0.86614 0.33114 0.0
N1922 N 0.89078 0.82961 0.3959 0.0
N1923 N 0.92564 0.86265 0.35791 0.0
H1924 H 0.4115 0.61209 0.68385 0.0
H1925 H 0.40256 0.70534 0.57299 0.0
H1926 H 0.43629 0.67241 0.69756 0.0
H1927 H 0.39233 0.64299 0.54608 0.0
H1928 H 0.4095 0.69349 0.62146 0.0
H1929 H 0.39921 0.62316 0.63604 0.0
C1930 C 0.41411 0.62768 0.67698 0.0
C1931 C 0.42501 0.64134 0.6946 0.0
C1932 C 0.40575 0.68232 0.60505 0.0
C1933 C 0.41105 0.65401 0.64037 0.0
C1934 C 0.40177 0.68909 0.57721 0.0
C1935 C 0.39713 0.67512 0.55518 0.0
C1936 C 0.40512 0.66136 0.61126 0.0
C1937 C 0.39604 0.65427 0.56233 0.0
C1938 C 0.40723 0.63393 0.64969 0.0
C1939 C 0.42811 0.66132 0.68463 0.0
N1940 N 0.40013 0.64797 0.58981 0.0
N1941 N 0.4212 0.667 0.65827 0.0
H1942 H 0.55196 0.17422 0.81146 0.0
H1943 H 0.61907 0.14787 0.95018 0.0
H1944 H 0.59761 0.12664 0.80901 0.0
H1945 H 0.58716 0.20485 0.93675 0.0
H1946 H 0.61015 0.13772 0.90052 0.0
H1947 H 0.56333 0.18358 0.85948 0.0
C1948 C 0.56446 0.16574 0.82104 0.0
C1949 C 0.57384 0.1496 0.8062 0.0
C1950 C 0.60524 0.15245 0.90857 0.0
C1951 C 0.58696 0.16024 0.86165 0.0
C1952 C 0.61021 0.15821 0.93688 0.0
C1953 C 0.60379 0.17721 0.94772 0.0
C1954 C 0.59359 0.16572 0.89128 0.0
C1955 C 0.59247 0.19006 0.92948 0.0
C1956 C 0.57101 0.17114 0.84851 0.0
C1957 C 0.59006 0.13926 0.8197 0.0
N1958 N 0.58768 0.18404 0.90235 0.0
N1959 N 0.59604 0.14465 0.84687 0.0
H1960 H 0.04174 0.65823 0.3224 0.0
H1961 H 0.12501 0.65021 0.4481 0.0
H1962 H 0.10164 0.63286 0.30657 0.0
H1963 H 0.07533 0.69356 0.44627 0.0
H1964 H 0.11449 0.63803 0.39991 0.0
H1965 H 0.0516 0.66522 0.37191 0.0
C1966 C 0.05699 0.65404 0.32932 0.0
C1967 C 0.07097 0.64515 0.3101 0.0
C1968 C 0.10591 0.65013 0.41026 0.0
C1969 C 0.08236 0.65316 0.36717 0.0
C1970 C 0.11181 0.65697 0.43772 0.0
C1971 C 0.10108 0.67298 0.45103 0.0
C1972 C 0.08898 0.65912 0.39656 0.0
C1973 C 0.08416 0.68133 0.43668 0.0
C1974 C 0.06261 0.65808 0.35767 0.0
C1975 C 0.09045 0.63992 0.32058 0.0
N1976 N 0.07864 0.67428 0.41032 0.0
N1977 N 0.09563 0.64407 0.34847 0.0
H1978 H 0.62444 0.80304 0.57162 0.0
H1979 H 0.56751 0.87748 0.68059 0.0
H1980 H 0.59601 0.85923 0.54403 0.0
H1981 H 0.60265 0.82472 0.70645 0.0
H1982 H 0.5806 0.8736 0.63142 0.0
H1983 H 0.61955 0.81311 0.62161 0.0
C1984 C 0.6173 0.81763 0.57613 0.0
C1985 C 0.61038 0.83022 0.55366 0.0
C1986 C 0.58568 0.86308 0.64796 0.0
C1987 C 0.60445 0.84179 0.61113 0.0
C1988 C 0.57824 0.86529 0.67608 0.0
C1989 C 0.58377 0.85122 0.69763 0.0
C1990 C 0.59866 0.84664 0.64136 0.0
C1991 C 0.59775 0.83578 0.69051 0.0
C1992 C 0.61454 0.82341 0.60474 0.0
C1993 C 0.60149 0.84906 0.56077 0.0
N1994 N 0.60451 0.83378 0.66297 0.0
N1995 N 0.59847 0.85416 0.58896 0.0
H1996 H 0.38045 0.30301 0.92634 0.0
H1997 H 0.44308 0.37587 0.82593 0.0
H1998 H 0.40705 0.35857 0.95946 0.0
H1999 H 0.39297 0.34009 0.79266 0.0
H2000 H 0.43093 0.36945 0.875 0.0
H2001 H 0.38551 0.31562 0.8772 0.0
C2002 C 0.3872 0.31796 0.92324 0.0
C2003 C 0.39349 0.32973 0.94696 0.0
C2004 C 0.4224 0.36329 0.85696 0.0
C2005 C 0.39958 0.34408 0.8908 0.0
C2006 C 0.42935 0.36687 0.82897 0.0
C2007 C 0.41905 0.35839 0.80524 0.0
C2008 C 0.40534 0.35069 0.86132 0.0
C2009 C 0.40132 0.34692 0.81038 0.0
C2010 C 0.38998 0.32518 0.89521 0.0
C2011 C 0.40201 0.34904 0.94174 0.0
N2012 N 0.39522 0.34308 0.83793 0.0
N2013 N 0.40515 0.35548 0.91416 0.0
H2014 H 0.91973 0.20687 0.06584 0.0
H2015 H 0.90354 0.13061 0.19766 0.0
H2016 H 0.88307 0.15247 0.05584 0.0
H2017 H 0.95629 0.16949 0.18695 0.0
H2018 H 0.89189 0.14066 0.14903 0.0
H2019 H 0.92913 0.19582 0.114 0.0
C2020 C 0.91359 0.19258 0.07379 0.0
C2021 C 0.90062 0.18054 0.05669 0.0
C2022 C 0.90602 0.14689 0.15747 0.0
C2023 C 0.91139 0.16778 0.11222 0.0
C2024 C 0.91259 0.14128 0.18518 0.0
C2025 C 0.93091 0.14923 0.19633 0.0
C2026 C 0.91769 0.16078 0.14128 0.0
C2027 C 0.94214 0.16289 0.17924 0.0
C2028 C 0.91905 0.18623 0.10133 0.0
C2029 C 0.89323 0.16212 0.06826 0.0
N2030 N 0.93529 0.16829 0.15273 0.0
N2031 N 0.89866 0.15629 0.09547 0.0
H2032 H 0.9063 0.6117 0.81898 0.0
H2033 H 0.89595 0.70726 0.92567 0.0
H2034 H 0.92713 0.67288 0.80059 0.0
H2035 H 0.88858 0.64515 0.95544 0.0
H2036 H 0.90162 0.69469 0.87719 0.0
H2037 H 0.89417 0.62355 0.86645 0.0
C2038 C 0.90802 0.62764 0.82474 0.0
C2039 C 0.91783 0.64132 0.80594 0.0
C2040 C 0.89874 0.68373 0.89423 0.0
C2041 C 0.90409 0.65487 0.8598 0.0
C2042 C 0.89552 0.69091 0.92206 0.0
C2043 C 0.8921 0.67722 0.94486 0.0
C2044 C 0.89862 0.66264 0.88886 0.0
C2045 C 0.89136 0.65623 0.93855 0.0
C2046 C 0.90124 0.63434 0.85183 0.0
C2047 C 0.91982 0.66177 0.81448 0.0
N2048 N 0.89476 0.64953 0.91109 0.0
N2049 N 0.91307 0.66787 0.84073 0.0
H2050 H 0.12932 0.15104 0.55681 0.0
H2051 H 0.04686 0.15955 0.68289 0.0
H2052 H 0.08117 0.19604 0.5612 0.0
H2053 H 0.10537 0.13096 0.69831 0.0
H2054 H 0.05756 0.16792 0.63444 0.0
H2055 H 0.11929 0.13881 0.60522 0.0
C2056 C 0.11661 0.15822 0.56783 0.0
C2057 C 0.10609 0.17461 0.55505 0.0
C2058 C 0.06814 0.15983 0.64833 0.0
C2059 C 0.09459 0.16074 0.60978 0.0
C2060 C 0.06202 0.15498 0.67614 0.0
C2061 C 0.0753 0.14468 0.69495 0.0
C2062 C 0.08772 0.15434 0.63886 0.0
C2063 C 0.09471 0.13908 0.68461 0.0
C2064 C 0.11101 0.15134 0.5954 0.0
C2065 C 0.08983 0.18348 0.57024 0.0
N2066 N 0.1004 0.14402 0.65714 0.0
N2067 N 0.08459 0.1764 0.59664 0.0
H2068 H 0.62271 0.30257 0.42439 0.0
H2069 H 0.55985 0.37552 0.32549 0.0
H2070 H 0.59998 0.35979 0.45761 0.0
H2071 H 0.6106 0.34143 0.29073 0.0
H2072 H 0.57258 0.36883 0.3743 0.0
H2073 H 0.61692 0.315 0.3752 0.0
C2074 C 0.61667 0.31784 0.42128 0.0
C2075 C 0.61171 0.33017 0.44503 0.0
C2076 C 0.58109 0.36309 0.35597 0.0
C2077 C 0.60474 0.34426 0.38899 0.0
C2078 C 0.57382 0.36682 0.32818 0.0
C2079 C 0.58419 0.35894 0.30414 0.0
C2080 C 0.59851 0.3509 0.35976 0.0
C2081 C 0.60222 0.34781 0.30874 0.0
C2082 C 0.61348 0.32493 0.39326 0.0
C2083 C 0.60403 0.34984 0.43985 0.0
N2084 N 0.60862 0.34376 0.3361 0.0
N2085 N 0.6004 0.35616 0.41235 0.0
H2086 H 0.42572 0.83107 0.19994 0.0
H2087 H 0.39013 0.86341 0.0422 0.0
H2088 H 0.40856 0.89322 0.1805 0.0
H2089 H 0.39273 0.8013 0.07347 0.0
H2090 H 0.39623 0.87552 0.09184 0.0
H2091 H 0.41327 0.82052 0.15288 0.0
C2092 C 0.41913 0.84249 0.18578 0.0
C2093 C 0.41821 0.86304 0.19408 0.0
C2094 C 0.39525 0.85927 0.0877 0.0
C2095 C 0.40412 0.85111 0.13968 0.0
C2096 C 0.39179 0.85237 0.05944 0.0
C2097 C 0.39127 0.83132 0.05355 0.0
C2098 C 0.39822 0.84497 0.10999 0.0
C2099 C 0.39339 0.81767 0.07674 0.0
C2100 C 0.41199 0.83646 0.15886 0.0
C2101 C 0.40946 0.87719 0.1749 0.0
N2102 N 0.39692 0.82473 0.10373 0.0
N2103 N 0.40296 0.871 0.14833 0.0
H2104 H 0.93996 0.37754 0.67565 0.0
H2105 H 0.88112 0.3009 0.57791 0.0
H2106 H 0.89226 0.33987 0.71159 0.0
H2107 H 0.89966 0.3596 0.54463 0.0
H2108 H 0.88629 0.31365 0.62707 0.0
H2109 H 0.92681 0.37044 0.62722 0.0
C2110 C 0.92652 0.368 0.6733 0.0
C2111 C 0.91717 0.35921 0.69753 0.0
C2112 C 0.88891 0.32382 0.60901 0.0
C2113 C 0.90242 0.35068 0.64233 0.0
C2114 C 0.88609 0.31654 0.581 0.0
C2115 C 0.89012 0.3292 0.55724 0.0
C2116 C 0.89633 0.3437 0.61322 0.0
C2117 C 0.8964 0.34936 0.56239 0.0
C2118 C 0.91901 0.36402 0.64573 0.0
C2119 C 0.89982 0.34698 0.6934 0.0
N2120 N 0.89971 0.35589 0.58986 0.0
N2121 N 0.89322 0.34271 0.66621 0.0
H2122 H 0.44286 0.12634 0.32852 0.0
H2123 H 0.37595 0.19679 0.42542 0.0
H2124 H 0.39045 0.15749 0.2931 0.0
H2125 H 0.40395 0.14258 0.46063 0.0
H2126 H 0.3816 0.1835 0.37674 0.0
H2127 H 0.42971 0.13255 0.37713 0.0
C2128 C 0.42843 0.13427 0.33101 0.0
C2129 C 0.41775 0.14153 0.30683 0.0
C2130 C 0.3862 0.17436 0.39511 0.0
C2131 C 0.40288 0.14901 0.36232 0.0
C2132 C 0.38308 0.18196 0.42287 0.0
C2133 C 0.38963 0.17079 0.44701 0.0
C2134 C 0.39645 0.15572 0.39145 0.0
C2135 C 0.39868 0.15164 0.44255 0.0
C2136 C 0.42091 0.13772 0.35873 0.0
C2137 C 0.39911 0.15164 0.31121 0.0
N2138 N 0.40221 0.14486 0.41522 0.0
N2139 N 0.39244 0.15545 0.33851 0.0
H2140 H 0.55793 0.62711 0.17235 0.0
H2141 H 0.62847 0.69398 0.07514 0.0
H2142 H 0.61209 0.65546 0.20721 0.0
H2143 H 0.59604 0.64238 0.03974 0.0
H2144 H 0.6225 0.68067 0.1237 0.0
H2145 H 0.57105 0.63278 0.1236 0.0
C2146 C 0.57271 0.63433 0.16971 0.0
C2147 C 0.5839 0.64098 0.19378 0.0
C2148 C 0.617 0.67207 0.10531 0.0
C2149 C 0.5988 0.64779 0.13812 0.0
C2150 C 0.62032 0.67968 0.07762 0.0
C2151 C 0.61261 0.66929 0.05346 0.0
C2152 C 0.60541 0.65423 0.10893 0.0
C2153 C 0.60224 0.65081 0.05783 0.0
C2154 C 0.58022 0.63746 0.14191 0.0
C2155 C 0.603 0.65012 0.18919 0.0
N2156 N 0.59857 0.64405 0.08513 0.0
N2157 N 0.6097 0.65363 0.16182 0.0
H2158 H 0.0724 0.83078 0.80115 0.0
H2159 H 0.11383 0.86222 0.95672 0.0
H2160 H 0.09291 0.89213 0.81916 0.0
H2161 H 0.10553 0.8002 0.92709 0.0
H2162 H 0.10676 0.87432 0.90735 0.0
H2163 H 0.08491 0.81995 0.848 0.0
C2164 C 0.07971 0.84197 0.81496 0.0
C2165 C 0.08156 0.86239 0.80631 0.0
C2166 C 0.10667 0.85808 0.91178 0.0
C2167 C 0.09578 0.85013 0.8605 0.0
C2168 C 0.11066 0.85118 0.9399 0.0
C2169 C 0.10997 0.83019 0.9462 0.0
C2170 C 0.10194 0.84385 0.89003 0.0
C2171 C 0.10591 0.81654 0.92353 0.0
C2172 C 0.08689 0.83578 0.84178 0.0
C2173 C 0.09126 0.87621 0.82504 0.0
N2174 N 0.10195 0.82362 0.89667 0.0
N2175 N 0.09783 0.86987 0.85151 0.0
H2176 H 0.07025 0.3093 0.29345 0.0
H2177 H 0.11833 0.27759 0.44427 0.0
H2178 H 0.08595 0.35258 0.36028 0.0
H2179 H 0.12137 0.23778 0.37036 0.0
H2180 H 0.10618 0.30513 0.41331 0.0
H2181 H 0.08837 0.28262 0.32052 0.0
C2182 C 0.07758 0.31326 0.31365 0.0
C2183 C 0.07639 0.33326 0.32463 0.0
C2184 C 0.10971 0.29047 0.40368 0.0
C2185 C 0.09704 0.30277 0.35569 0.0
C2186 C 0.11661 0.27473 0.42141 0.0
C2187 C 0.12076 0.2554 0.40986 0.0
C2188 C 0.10649 0.28679 0.37417 0.0
C2189 C 0.11845 0.25255 0.38002 0.0
C2190 C 0.08798 0.29803 0.32902 0.0
C2191 C 0.08628 0.33743 0.35091 0.0
N2192 N 0.11115 0.26801 0.3632 0.0
N2193 N 0.09598 0.32232 0.36558 0.0
H2194 H 0.94078 0.82545 0.54173 0.0
H2195 H 0.97886 0.85651 0.69833 0.0
H2196 H 0.90147 0.82683 0.61657 0.0
H2197 H 0.01014 0.87783 0.62215 0.0
H2198 H 0.95129 0.84369 0.66815 0.0
H2199 H 0.96745 0.84273 0.57005 0.0
C2200 C 0.9377 0.82941 0.564 0.0
C2201 C 0.91883 0.82453 0.57675 0.0
C2202 C 0.96407 0.85134 0.65797 0.0
C2203 C 0.94928 0.84414 0.60919 0.0
C2204 C 0.97987 0.85867 0.67524 0.0
C2205 C 0.99688 0.86828 0.66281 0.0
C2206 C 0.96535 0.85322 0.62786 0.0
C2207 C 0.99725 0.87063 0.63266 0.0
C2208 C 0.95289 0.83935 0.58008 0.0
C2209 C 0.91572 0.83015 0.6057 0.0
N2210 N 0.98183 0.8629 0.61613 0.0
N2211 N 0.9308 0.83945 0.62091 0.0
H2212 H 0.36901 0.7541 0.87463 0.0
H2213 H 0.42938 0.64837 0.87064 0.0
H2214 H 0.40496 0.73106 0.94567 0.0
H2215 H 0.42425 0.68601 0.79441 0.0
H2216 H 0.41209 0.67489 0.89839 0.0
H2217 H 0.38139 0.72549 0.84483 0.0
C2218 C 0.37921 0.74293 0.88412 0.0
C2219 C 0.3859 0.745 0.91281 0.0
C2220 C 0.41464 0.67725 0.87553 0.0
C2221 C 0.39976 0.71231 0.87908 0.0
C2222 C 0.42447 0.66211 0.85962 0.0
C2223 C 0.4285 0.66502 0.83015 0.0
C2224 C 0.40845 0.69536 0.8619 0.0
C2225 C 0.42165 0.6832 0.81714 0.0
C2226 C 0.38632 0.72673 0.86707 0.0
C2227 C 0.39926 0.73013 0.92385 0.0
N2228 N 0.41195 0.69773 0.83312 0.0
N2229 N 0.40565 0.71443 0.90705 0.0
H2230 H 0.60303 0.17299 0.12184 0.0
H2231 H 0.49398 0.11943 0.12899 0.0
H2232 H 0.56258 0.1734 0.04815 0.0
H2233 H 0.52149 0.15062 0.20129 0.0
H2234 H 0.5221 0.13158 0.09822 0.0
H2235 H 0.57627 0.15682 0.15033 0.0
C2236 C 0.5886 0.16953 0.1115 0.0
C2237 C 0.58504 0.17475 0.08253 0.0
C2238 C 0.52194 0.13557 0.1209 0.0
C2239 C 0.55436 0.15597 0.11519 0.0
C2240 C 0.50602 0.12857 0.13851 0.0
C2241 C 0.50534 0.13402 0.16783 0.0
C2242 C 0.5375 0.14764 0.13293 0.0
C2243 C 0.52131 0.14602 0.17891 0.0
C2244 C 0.57331 0.16035 0.12788 0.0
C2245 C 0.56595 0.1698 0.07046 0.0
N2246 N 0.53675 0.15232 0.16151 0.0
N2247 N 0.55129 0.16065 0.08685 0.0
H2248 H 0.07827 0.69165 0.20955 0.0
H2249 H 0.11481 0.72675 0.05433 0.0
H2250 H 0.0845 0.65054 0.13716 0.0
H2251 H 0.12779 0.76268 0.13007 0.0
H2252 H 0.10357 0.69877 0.08495 0.0
H2253 H 0.09625 0.71802 0.18184 0.0
C2254 C 0.08356 0.68807 0.188 0.0
C2255 C 0.07966 0.66884 0.17563 0.0
C2256 C 0.10906 0.71266 0.09501 0.0
C2257 C 0.10009 0.699 0.14383 0.0
C2258 C 0.1154 0.72871 0.07746 0.0
C2259 C 0.12205 0.74713 0.08963 0.0
C2260 C 0.10895 0.71513 0.12509 0.0
C2261 C 0.12278 0.74869 0.11983 0.0
C2262 C 0.09386 0.70313 0.17223 0.0
C2263 C 0.08695 0.66512 0.14761 0.0
N2264 N 0.11599 0.73298 0.1366 0.0
N2265 N 0.09659 0.6801 0.13262 0.0
H2266 H 0.52127 0.8569 0.30139 0.0
H2267 H 0.56135 0.8267 0.45702 0.0
H2268 H 0.49021 0.87796 0.3779 0.0
H2269 H 0.60043 0.8306 0.3821 0.0
H2270 H 0.53399 0.84336 0.42924 0.0
H2271 H 0.54943 0.84491 0.33122 0.0
C2272 C 0.52042 0.85914 0.32447 0.0
C2273 C 0.50333 0.86846 0.33711 0.0
C2274 C 0.54866 0.84068 0.4191 0.0
C2275 C 0.53552 0.8544 0.37164 0.0
C2276 C 0.56425 0.83112 0.43487 0.0
C2277 C 0.58324 0.82708 0.4219 0.0
C2278 C 0.55201 0.84592 0.39008 0.0
C2279 C 0.58609 0.83324 0.39311 0.0
C2280 C 0.53656 0.85232 0.34153 0.0
C2281 C 0.50316 0.87097 0.36725 0.0
N2282 N 0.57063 0.84213 0.37819 0.0
N2283 N 0.51891 0.86373 0.38358 0.0
H2284 H 0.36971 0.24629 0.62646 0.0
H2285 H 0.42727 0.35355 0.63309 0.0
H2286 H 0.40244 0.27264 0.55468 0.0
H2287 H 0.42268 0.31501 0.70849 0.0
H2288 H 0.4109 0.32697 0.60458 0.0
H2289 H 0.38219 0.27429 0.65725 0.0
C2290 C 0.37926 0.25805 0.61705 0.0
C2291 C 0.38499 0.25709 0.58784 0.0
C2292 C 0.41339 0.32437 0.62739 0.0
C2293 C 0.39905 0.28911 0.6228 0.0
C2294 C 0.4227 0.33958 0.64379 0.0
C2295 C 0.42658 0.33651 0.6733 0.0
C2296 C 0.40756 0.30596 0.6405 0.0
C2297 C 0.42016 0.31799 0.68579 0.0
C2298 C 0.38645 0.27391 0.63468 0.0
C2299 C 0.39755 0.27268 0.57695 0.0
N2300 N 0.41095 0.30339 0.66931 0.0
N2301 N 0.40405 0.28803 0.59435 0.0
H2302 H 0.9766 0.12637 0.81311 0.0
H2303 H 0.94573 0.18557 0.95696 0.0
H2304 H 0.01899 0.13575 0.88296 0.0
H2305 H 0.90244 0.16513 0.89272 0.0
H2306 H 0.97267 0.16667 0.93166 0.0
H2307 H 0.94898 0.13925 0.84346 0.0
C2308 C 0.97996 0.13087 0.83508 0.0
C2309 C 0.99997 0.13 0.84566 0.0
C2310 C 0.95722 0.16621 0.92331 0.0
C2311 C 0.96861 0.14524 0.88044 0.0
C2312 C 0.94183 0.17705 0.93769 0.0
C2313 C 0.92174 0.17711 0.92691 0.0
C2314 C 0.95252 0.15547 0.8979 0.0
C2315 C 0.91765 0.16571 0.90186 0.0
C2316 C 0.96423 0.13826 0.85243 0.0
C2317 C 0.00365 0.13601 0.87423 0.0
N2318 N 0.93289 0.15552 0.88819 0.0
N2319 N 0.98812 0.14366 0.89059 0.0
H2320 H 0.92305 0.64697 0.63013 0.0
H2321 H 0.86847 0.75603 0.62427 0.0
H2322 H 0.92 0.68621 0.70495 0.0
H2323 H 0.8995 0.72862 0.55179 0.0
H2324 H 0.87979 0.72728 0.65454 0.0
H2325 H 0.90659 0.67363 0.6016 0.0
C2326 C 0.91877 0.6611 0.64069 0.0
C2327 C 0.92314 0.66438 0.67 0.0
C2328 C 0.88389 0.72758 0.63191 0.0
C2329 C 0.90405 0.69493 0.63733 0.0
C2330 C 0.87736 0.74388 0.61459 0.0
C2331 C 0.88307 0.7448 0.58539 0.0
C2332 C 0.89577 0.71192 0.61973 0.0
C2333 C 0.89472 0.72865 0.5741 0.0
C2334 C 0.90941 0.67633 0.62431 0.0
C2335 C 0.91712 0.68307 0.68238 0.0
N2336 N 0.90062 0.7129 0.59122 0.0
N2337 N 0.90788 0.69766 0.66597 0.0
H2338 H 0.98822 0.13034 0.38303 0.0
H2339 H 0.10595 0.16368 0.3915 0.0
H2340 H 0.03026 0.12821 0.31155 0.0
H2341 H 0.06149 0.18052 0.45618 0.0
H2342 H 0.07959 0.14453 0.36611 0.0
H2343 H 0.01624 0.14224 0.41429 0.0
C2344 C 0.00344 0.13188 0.37413 0.0
C2345 C 0.00696 0.12845 0.34467 0.0
C2346 C 0.07561 0.15231 0.38595 0.0
C2347 C 0.03886 0.14215 0.37997 0.0
C2348 C 0.09069 0.16328 0.40053 0.0
C2349 C 0.08596 0.17397 0.42596 0.0
C2350 C 0.05558 0.15188 0.39679 0.0
C2351 C 0.06585 0.17268 0.43656 0.0
C2352 C 0.01935 0.13886 0.39185 0.0
C2353 C 0.02687 0.13092 0.33406 0.0
N2354 N 0.05138 0.16194 0.42184 0.0
N2355 N 0.04201 0.13771 0.35163 0.0
H2356 H 0.61989 0.23315 0.13555 0.0
H2357 H 0.59056 0.35182 0.14156 0.0
H2358 H 0.6267 0.2753 0.06485 0.0
H2359 H 0.57339 0.30913 0.20842 0.0
H2360 H 0.60884 0.3247 0.11698 0.0
H2361 H 0.60824 0.26153 0.1663 0.0
C2362 C 0.61943 0.24848 0.12678 0.0
C2363 C 0.62422 0.25201 0.09773 0.0
C2364 C 0.60118 0.32122 0.13709 0.0
C2365 C 0.61066 0.28428 0.13231 0.0
C2366 C 0.59068 0.33676 0.15125 0.0
C2367 C 0.5802 0.3328 0.17711 0.0
C2368 C 0.60127 0.30141 0.14866 0.0
C2369 C 0.58113 0.3129 0.18848 0.0
C2370 C 0.61258 0.26459 0.14418 0.0
C2371 C 0.62299 0.27199 0.08711 0.0
N2372 N 0.59137 0.2979 0.17408 0.0
N2373 N 0.61626 0.28734 0.10433 0.0
H2374 H 0.43718 0.8321 0.95644 0.0
H2375 H 0.4828 0.85008 0.80054 0.0
H2376 H 0.40169 0.82319 0.87886 0.0
H2377 H 0.50406 0.88529 0.87338 0.0
H2378 H 0.45463 0.83734 0.82984 0.0
H2379 H 0.46368 0.84902 0.92748 0.0
C2380 C 0.4349 0.83376 0.93341 0.0
C2381 C 0.41717 0.82613 0.9201 0.0
C2382 C 0.46535 0.84801 0.83933 0.0
C2383 C 0.44749 0.84519 0.88695 0.0
C2384 C 0.48148 0.85531 0.8226 0.0
C2385 C 0.49585 0.86888 0.83441 0.0
C2386 C 0.46376 0.85388 0.86836 0.0
C2387 C 0.49331 0.87495 0.8633 0.0
C2388 C 0.44998 0.84348 0.91696 0.0
C2389 C 0.41504 0.82879 0.89014 0.0
N2390 N 0.47772 0.86721 0.87942 0.0
N2391 N 0.4301 0.83787 0.87459 0.0
H2392 H 0.8825 0.23605 0.86763 0.0
H2393 H 0.9145 0.35409 0.85999 0.0
H2394 H 0.87998 0.27802 0.93913 0.0
H2395 H 0.92917 0.31091 0.79258 0.0
H2396 H 0.89633 0.32731 0.88564 0.0
H2397 H 0.89377 0.26426 0.83626 0.0
C2398 C 0.88388 0.25129 0.87653 0.0
C2399 C 0.8805 0.25476 0.90601 0.0
C2400 C 0.90341 0.32367 0.86516 0.0
C2401 C 0.89349 0.28687 0.87061 0.0
C2402 C 0.91384 0.33901 0.85042 0.0
C2403 C 0.92362 0.33479 0.8241 0.0
C2404 C 0.90267 0.30383 0.85369 0.0
C2405 C 0.92201 0.31488 0.81287 0.0
C2406 C 0.89048 0.26731 0.85874 0.0
C2407 C 0.88273 0.27467 0.91663 0.0
N2408 N 0.91185 0.3001 0.82782 0.0
N2409 N 0.88916 0.28992 0.89902 0.0
H2410 H 0.51246 0.12945 0.6202 0.0
H2411 H 0.39643 0.16827 0.61268 0.0
H2412 H 0.47251 0.13566 0.69361 0.0
H2413 H 0.43949 0.17874 0.54359 0.0
H2414 H 0.42278 0.15014 0.63931 0.0
H2415 H 0.48446 0.14121 0.58874 0.0
C2416 C 0.4977 0.13288 0.6296 0.0
C2417 C 0.49481 0.13174 0.65957 0.0
C2418 C 0.42647 0.1563 0.61826 0.0
C2419 C 0.46292 0.14518 0.62395 0.0
C2420 C 0.41139 0.16669 0.60294 0.0
C2421 C 0.41571 0.1753 0.57584 0.0
C2422 C 0.44616 0.15436 0.60657 0.0
C2423 C 0.43545 0.1725 0.56446 0.0
C2424 C 0.48182 0.13975 0.61171 0.0
C2425 C 0.47548 0.13655 0.6707 0.0
N2426 N 0.44999 0.16237 0.57995 0.0
N2427 N 0.46034 0.1431 0.65295 0.0
H2428 H 0.63228 0.76026 0.36924 0.0
H2429 H 0.58004 0.65043 0.36355 0.0
H2430 H 0.6025 0.73137 0.44158 0.0
H2431 H 0.57871 0.68999 0.2889 0.0
H2432 H 0.59652 0.6774 0.39094 0.0
H2433 H 0.62036 0.73208 0.33815 0.0
C2434 C 0.62354 0.74792 0.37869 0.0
C2435 C 0.61843 0.7482 0.40816 0.0
C2436 C 0.59271 0.68016 0.36852 0.0
C2437 C 0.60507 0.71605 0.37295 0.0
C2438 C 0.58329 0.66474 0.35274 0.0
C2439 C 0.57769 0.66795 0.32382 0.0
C2440 C 0.59687 0.699 0.3554 0.0
C2441 C 0.58257 0.68689 0.31119 0.0
C2442 C 0.61666 0.73197 0.36092 0.0
C2443 C 0.6069 0.73188 0.41915 0.0
N2444 N 0.59187 0.70177 0.3271 0.0
N2445 N 0.60073 0.7165 0.40163 0.0
H2446 H 0.06412 0.82721 0.04426 0.0
H2447 H 0.02662 0.85557 0.20094 0.0
H2448 H 0.10508 0.83127 0.11717 0.0
H2449 H 0.99524 0.87926 0.12621 0.0
H2450 H 0.05448 0.84433 0.17011 0.0
H2451 H 0.03756 0.84413 0.0731 0.0
C2452 C 0.0676 0.83175 0.06619 0.0
C2453 C 0.08688 0.82764 0.07831 0.0
C2454 C 0.04162 0.85218 0.16043 0.0
C2455 C 0.05652 0.84677 0.11136 0.0
C2456 C 0.02564 0.8586 0.17806 0.0
C2457 C 0.00852 0.86841 0.16623 0.0
C2458 C 0.04036 0.8551 0.1305 0.0
C2459 C 0.00819 0.87184 0.13628 0.0
C2460 C 0.05246 0.84147 0.08256 0.0
C2461 C 0.09049 0.83398 0.10684 0.0
N2462 N 0.02375 0.86491 0.11933 0.0
N2463 N 0.07541 0.84297 0.12243 0.0
H2464 H 0.5987 0.77323 0.95151 0.0
H2465 H 0.58379 0.81985 0.79622 0.0
H2466 H 0.6358 0.7524 0.88035 0.0
H2467 H 0.57473 0.85542 0.87366 0.0
H2468 H 0.60027 0.79321 0.82529 0.0
H2469 H 0.58698 0.80173 0.92216 0.0
C2470 C 0.60459 0.77472 0.92982 0.0
C2471 C 0.61841 0.76038 0.91854 0.0
C2472 C 0.59482 0.80697 0.83576 0.0
C2473 C 0.60452 0.79289 0.88443 0.0
C2474 C 0.58534 0.82216 0.81924 0.0
C2475 C 0.57776 0.83995 0.83246 0.0
C2476 C 0.59633 0.80938 0.86578 0.0
C2477 C 0.58028 0.84202 0.86244 0.0
C2478 C 0.59785 0.79105 0.91305 0.0
C2479 C 0.62525 0.76313 0.89004 0.0
N2480 N 0.58911 0.82684 0.87808 0.0
N2481 N 0.61802 0.77892 0.8738 0.0
H2482 H 0.51399 0.37799 0.12119 0.0
H2483 H 0.40212 0.32951 0.11665 0.0
H2484 H 0.48156 0.3556 0.19578 0.0
H2485 H 0.44271 0.32486 0.04342 0.0
H2486 H 0.429 0.34641 0.14369 0.0
H2487 H 0.48589 0.36556 0.09039 0.0
C2488 C 0.50088 0.37077 0.13114 0.0
C2489 C 0.50016 0.3678 0.16117 0.0
C2490 C 0.43203 0.34177 0.12167 0.0
C2491 C 0.46811 0.35379 0.12624 0.0
C2492 C 0.41665 0.3321 0.10608 0.0
C2493 C 0.42014 0.32548 0.07766 0.0
C2494 C 0.45114 0.34512 0.10887 0.0
C2495 C 0.43936 0.32953 0.06532 0.0
C2496 C 0.48497 0.36357 0.11356 0.0
C2497 C 0.48288 0.35819 0.17285 0.0
N2498 N 0.4542 0.33907 0.08103 0.0
N2499 N 0.46758 0.35161 0.15542 0.0
H2500 H 0.92114 0.26306 0.40686 0.0
H2501 H 0.90697 0.153 0.34287 0.0
H2502 H 0.86105 0.23625 0.40235 0.0
H2503 H 0.952 0.19467 0.3087 0.0
H2504 H 0.89083 0.18154 0.36834 0.0
H2505 H 0.93396 0.23645 0.37461 0.0
C2506 C 0.91064 0.25154 0.39897 0.0
C2507 C 0.89004 0.25173 0.40731 0.0
C2508 C 0.90409 0.18441 0.35497 0.0
C2509 C 0.90468 0.22111 0.37074 0.0
C2510 C 0.91339 0.16814 0.34053 0.0
C2511 C 0.93094 0.1714 0.32365 0.0
C2512 C 0.91269 0.20399 0.35313 0.0
C2513 C 0.93851 0.19141 0.3214 0.0
C2514 C 0.91794 0.23646 0.38045 0.0
C2515 C 0.87702 0.2366 0.3963 0.0
N2516 N 0.92953 0.20688 0.33633 0.0
N2517 N 0.88464 0.22163 0.37888 0.0
H2518 H 0.10157 0.676 0.62213 0.0
H2519 H 0.99288 0.62071 0.6256 0.0
H2520 H 0.06131 0.67608 0.54824 0.0
H2521 H 0.02166 0.64699 0.70071 0.0
H2522 H 0.02097 0.634 0.59579 0.0
H2523 H 0.07531 0.65844 0.64997 0.0
C2524 C 0.08725 0.67225 0.61165 0.0
C2525 C 0.08362 0.67772 0.58279 0.0
C2526 C 0.02113 0.63665 0.61886 0.0
C2527 C 0.05353 0.65732 0.61467 0.0
C2528 C 0.00523 0.62896 0.6359 0.0
C2529 C 0.00486 0.63282 0.66572 0.0
C2530 C 0.03695 0.64787 0.63187 0.0
C2531 C 0.02121 0.64373 0.67786 0.0
C2532 C 0.07226 0.66224 0.62763 0.0
C2533 C 0.06472 0.67234 0.57048 0.0
N2534 N 0.03657 0.65082 0.66093 0.0
N2535 N 0.05036 0.6624 0.58649 0.0
H2536 H 0.58524 0.26295 0.59618 0.0
H2537 H 0.59549 0.15094 0.6557 0.0
H2538 H 0.64347 0.2322 0.59321 0.0
H2539 H 0.55453 0.19496 0.69406 0.0
H2540 H 0.61226 0.17875 0.62931 0.0
H2541 H 0.57235 0.2365 0.62853 0.0
C2542 C 0.59532 0.25058 0.60244 0.0
C2543 C 0.6154 0.24964 0.59197 0.0
C2544 C 0.59976 0.18227 0.64379 0.0
C2545 C 0.60066 0.21917 0.6287 0.0
C2546 C 0.5901 0.16643 0.65877 0.0
C2547 C 0.57349 0.17058 0.67709 0.0
C2548 C 0.59244 0.20232 0.64663 0.0
C2549 C 0.56725 0.19099 0.68023 0.0
C2550 C 0.588 0.23558 0.62102 0.0
C2551 C 0.62791 0.23343 0.60093 0.0
N2552 N 0.57653 0.20603 0.66485 0.0
N2553 N 0.62023 0.21858 0.61851 0.0
H2554 H 0.99293 0.37856 0.87577 0.0
H2555 H 0.10268 0.32556 0.8799 0.0
H2556 H 0.02236 0.35258 0.80096 0.0
H2557 H 0.06235 0.32416 0.95363 0.0
H2558 H 0.07599 0.34244 0.85205 0.0
H2559 H 0.021 0.36549 0.90589 0.0
C2560 C 0.00539 0.3704 0.8656 0.0
C2561 C 0.00525 0.36665 0.83574 0.0
C2562 C 0.07301 0.3385 0.87436 0.0
C2563 C 0.03733 0.35187 0.86996 0.0
C2564 C 0.08826 0.32889 0.89036 0.0
C2565 C 0.08475 0.32324 0.91918 0.0
C2566 C 0.05412 0.34284 0.88725 0.0
C2567 C 0.06569 0.32807 0.93143 0.0
C2568 C 0.02129 0.36284 0.88283 0.0
C2569 C 0.02174 0.35582 0.82381 0.0
N2570 N 0.05107 0.33764 0.9154 0.0
N2571 N 0.03709 0.3489 0.8409 0.0
H2572 H 0.88521 0.77829 0.05927 0.0
H2573 H 0.93289 0.80959 0.21114 0.0
H2574 H 0.88314 0.73777 0.1325 0.0
H2575 H 0.92039 0.85202 0.14191 0.0
H2576 H 0.91473 0.78294 0.18395 0.0
H2577 H 0.89778 0.80547 0.09031 0.0
C2578 C 0.88726 0.77518 0.08201 0.0
C2579 C 0.88326 0.75574 0.09328 0.0
C2580 C 0.91586 0.79816 0.17494 0.0
C2581 C 0.89801 0.78681 0.12917 0.0
C2582 C 0.92627 0.81337 0.19039 0.0
C2583 C 0.92836 0.83312 0.17879 0.0
C2584 C 0.90763 0.80271 0.14765 0.0
C2585 C 0.91937 0.83708 0.1518 0.0
C2586 C 0.89442 0.79074 0.09981 0.0
C2587 C 0.88597 0.75262 0.12302 0.0
N2588 N 0.90958 0.82203 0.13719 0.0
N2589 N 0.89348 0.76794 0.13995 0.0
H2590 H 0.44214 0.67636 0.45664 0.0
H2591 H 0.48111 0.64979 0.30014 0.0
H2592 H 0.4021 0.67411 0.38257 0.0
H2593 H 0.5097 0.62185 0.3742 0.0
H2594 H 0.45359 0.66191 0.33085 0.0
H2595 H 0.4688 0.65935 0.4279 0.0
C2596 C 0.4389 0.67225 0.43447 0.0
C2597 C 0.41984 0.67682 0.42201 0.0
C2598 C 0.46577 0.65296 0.34039 0.0
C2599 C 0.45025 0.65761 0.38915 0.0
C2600 C 0.48154 0.646 0.32283 0.0
C2601 C 0.49777 0.63468 0.33449 0.0
C2602 C 0.46635 0.64906 0.37013 0.0
C2603 C 0.49744 0.63042 0.36424 0.0
C2604 C 0.45407 0.66246 0.41818 0.0
C2605 C 0.41651 0.67102 0.39319 0.0
N2606 N 0.4821 0.63787 0.38118 0.0
N2607 N 0.4316 0.66197 0.37772 0.0
H2608 H 0.42343 0.14805 0.13674 0.0
H2609 H 0.3706 0.25762 0.12881 0.0
H2610 H 0.42268 0.18789 0.21108 0.0
H2611 H 0.40221 0.22935 0.0575 0.0
H2612 H 0.38196 0.22935 0.16007 0.0
H2613 H 0.40743 0.1749 0.10833 0.0
C2614 C 0.41977 0.16237 0.14725 0.0
C2615 C 0.42467 0.16572 0.17639 0.0
C2616 C 0.38619 0.22938 0.13749 0.0
C2617 C 0.40607 0.19657 0.14372 0.0
C2618 C 0.37964 0.24539 0.11961 0.0
C2619 C 0.38543 0.24589 0.09039 0.0
C2620 C 0.39814 0.21358 0.12583 0.0
C2621 C 0.39731 0.22969 0.07974 0.0
C2622 C 0.41066 0.17771 0.13091 0.0
C2623 C 0.41936 0.18467 0.18865 0.0
N2624 N 0.40316 0.21422 0.09737 0.0
N2625 N 0.41035 0.19943 0.17223 0.0
H2626 H 0.49955 0.61975 0.8763 0.0
H2627 H 0.60581 0.67964 0.88209 0.0
H2628 H 0.5263 0.65086 0.80343 0.0
H2629 H 0.56754 0.67347 0.95751 0.0
H2630 H 0.57984 0.66231 0.85356 0.0
H2631 H 0.52745 0.63276 0.90681 0.0
C2632 C 0.5114 0.62902 0.8666 0.0
C2633 C 0.51053 0.63423 0.83719 0.0
C2634 C 0.57715 0.66468 0.87638 0.0
C2635 C 0.54242 0.64896 0.87186 0.0
C2636 C 0.59201 0.67456 0.89278 0.0
C2637 C 0.58885 0.67824 0.92231 0.0
C2638 C 0.55899 0.65813 0.88951 0.0
C2639 C 0.57059 0.67113 0.9348 0.0
C2640 C 0.52721 0.63653 0.88406 0.0
C2641 C 0.52625 0.64644 0.82589 0.0
N2642 N 0.55632 0.66141 0.91832 0.0
N2643 N 0.54151 0.65333 0.84318 0.0
H2644 H 0.07659 0.81394 0.70706 0.0
H2645 H 0.11855 0.77813 0.55468 0.0
H2646 H 0.08554 0.85499 0.63516 0.0
H2647 H 0.12525 0.74132 0.63116 0.0
H2648 H 0.10745 0.80675 0.58443 0.0
H2649 H 0.09495 0.78735 0.68051 0.0
C2650 C 0.08251 0.81745 0.6858 0.0
C2651 C 0.07932 0.83676 0.67328 0.0
C2652 C 0.11159 0.79253 0.59485 0.0
C2653 C 0.10031 0.80628 0.64277 0.0
C2654 C 0.11788 0.77617 0.57782 0.0
C2655 C 0.12263 0.75731 0.59046 0.0
C2656 C 0.10962 0.78995 0.62479 0.0
C2657 C 0.12178 0.75565 0.62061 0.0
C2658 C 0.09307 0.80225 0.67072 0.0
C2659 C 0.08747 0.84036 0.6457 0.0
N2660 N 0.11503 0.77168 0.63678 0.0
N2661 N 0.09739 0.82523 0.63132 0.0
H2662 H 0.94218 0.32679 0.46105 0.0
H2663 H 0.97517 0.37464 0.3098 0.0
H2664 H 0.90092 0.33735 0.3898 0.0
H2665 H 0.01645 0.37052 0.38198 0.0
H2666 H 0.94715 0.36379 0.34081 0.0
H2667 H 0.96897 0.34505 0.4346 0.0
C2668 C 0.93866 0.3331 0.44001 0.0
C2669 C 0.91924 0.33034 0.42759 0.0
C2670 C 0.96225 0.36545 0.3501 0.0
C2671 C 0.94988 0.35123 0.39723 0.0
C2672 C 0.97825 0.37163 0.33234 0.0
C2673 C 0.9981 0.37328 0.34334 0.0
C2674 C 0.96616 0.36052 0.37909 0.0
C2675 C 1.00127 0.36949 0.37278 0.0
C2676 C 0.95398 0.34353 0.42494 0.0
C2677 C 0.91563 0.3389 0.40026 0.0
N2678 N 0.98549 0.36297 0.38962 0.0
N2679 N 0.9308 0.34879 0.386 0.0
H2680 H 0.41437 0.85552 0.36539 0.0
H2681 H 0.37657 0.73911 0.3694 0.0
H2682 H 0.42404 0.81359 0.29468 0.0
H2683 H 0.38547 0.77667 0.4447 0.0
H2684 H 0.38706 0.7681 0.33897 0.0
H2685 H 0.39699 0.82846 0.39187 0.0
C2686 C 0.41273 0.84069 0.35527 0.0
C2687 C 0.42093 0.83684 0.3278 0.0
C2688 C 0.3865 0.76999 0.36217 0.0
C2689 C 0.40089 0.80571 0.35819 0.0
C2690 C 0.38039 0.75353 0.37948 0.0
C2691 C 0.38046 0.75545 0.40963 0.0
C2692 C 0.39235 0.7885 0.37519 0.0
C2693 C 0.38562 0.77442 0.42163 0.0
C2694 C 0.4028 0.82522 0.37048 0.0
C2695 C 0.41814 0.81726 0.31588 0.0
N2696 N 0.3914 0.79016 0.40443 0.0
N2697 N 0.40844 0.80239 0.3312 0.0
H2698 H 0.01684 0.66525 0.14195 0.0
H2699 H 0.90117 0.65696 0.0976 0.0
H2700 H 0.98296 0.61 0.15822 0.0
H2701 H 0.94402 0.69394 0.04973 0.0
H2702 H 0.92992 0.64024 0.12192 0.0
H2703 H 0.98959 0.67693 0.1098 0.0
C2704 C 0.00371 0.65547 0.13834 0.0
C2705 C 0.00208 0.63663 0.15249 0.0
C2706 C 0.93297 0.65183 0.1058 0.0
C2707 C 0.97063 0.65009 0.11644 0.0
C2708 C 0.91658 0.66145 0.09198 0.0
C2709 C 0.92013 0.67699 0.07163 0.0
C2710 C 0.95302 0.65807 0.0997 0.0
C2711 C 0.94048 0.6821 0.06524 0.0
C2712 C 0.9882 0.66211 0.12001 0.0
C2713 C 0.98478 0.62454 0.14737 0.0
N2714 N 0.95612 0.67288 0.07951 0.0
N2715 N 0.96949 0.63163 0.13006 0.0
H2716 H 0.12804 0.26094 0.86905 0.0
H2717 H 0.08773 0.14548 0.8639 0.0
H2718 H 0.11841 0.22333 0.94412 0.0
H2719 H 0.07671 0.18858 0.795 0.0
H2720 H 0.10621 0.17187 0.89021 0.0
H2721 H 0.11664 0.2324 0.83845 0.0
C2722 C 0.12393 0.24657 0.87904 0.0
C2723 C 0.12393 0.24453 0.90918 0.0
C2724 C 0.09987 0.17551 0.86924 0.0
C2725 C 0.11096 0.212 0.87452 0.0
C2726 C 0.0893 0.16043 0.85412 0.0
C2727 C 0.08039 0.16481 0.82724 0.0
C2728 C 0.10175 0.19517 0.85743 0.0
C2729 C 0.08314 0.18452 0.81575 0.0
C2730 C 0.11728 0.23038 0.86162 0.0
C2731 C 0.11832 0.22565 0.92105 0.0
N2732 N 0.0935 0.199 0.83096 0.0
N2733 N 0.11202 0.21016 0.90374 0.0
H2734 H 0.56665 0.33403 0.54302 0.0
H2735 H 0.52151 0.34758 0.69985 0.0
H2736 H 0.60234 0.32394 0.62016 0.0
H2737 H 0.49891 0.38418 0.62919 0.0
H2738 H 0.54966 0.33621 0.66962 0.0
H2739 H 0.54005 0.35018 0.57269 0.0
C2740 C 0.56898 0.33531 0.56609 0.0
C2741 C 0.58676 0.3275 0.57908 0.0
C2742 C 0.53866 0.34689 0.66079 0.0
C2743 C 0.55633 0.34567 0.61301 0.0
C2744 C 0.52253 0.35341 0.67807 0.0
C2745 C 0.50781 0.36699 0.66719 0.0
C2746 C 0.53994 0.35355 0.63208 0.0
C2747 C 0.50996 0.37381 0.63856 0.0
C2748 C 0.55383 0.34458 0.58295 0.0
C2749 C 0.58894 0.32966 0.6091 0.0
N2750 N 0.5256 0.36682 0.62184 0.0
N2751 N 0.57383 0.3383 0.62501 0.0
H2752 H 0.99613 0.45078 0.26934 0.0
H2753 H 0.06086 0.54665 0.21592 0.0
H2754 H 0.06097 0.45791 0.2835 0.0
H2755 H 0.9961 0.55184 0.23229 0.0
H2756 H 0.06018 0.512 0.23469 0.0
H2757 H 0.99485 0.48597 0.25065 0.0
C2758 C 0.01004 0.45972 0.26864 0.0
C2759 C 0.02868 0.45136 0.27805 0.0
C2760 C 0.04609 0.52067 0.2342 0.0
C2761 C 0.02733 0.49133 0.25638 0.0
C2762 C 0.04641 0.54048 0.22331 0.0
C2763 C 0.02848 0.55226 0.22251 0.0
C2764 C 0.02767 0.5123 0.24418 0.0
C2765 C 0.01028 0.54333 0.23256 0.0
C2766 C 0.00928 0.47977 0.25803 0.0
C2767 C 0.04623 0.46365 0.27662 0.0
N2768 N 0.0103 0.52381 0.24291 0.0
N2769 N 0.04514 0.48289 0.26582 0.0
H2770 H 0.8019 0.74579 0.5156 0.0
H2771 H 0.70766 0.81209 0.46069 0.0
H2772 H 0.79481 0.81005 0.53413 0.0
H2773 H 0.70109 0.74756 0.47768 0.0
H2774 H 0.74211 0.81086 0.48064 0.0
H2775 H 0.76707 0.74539 0.49556 0.0
C2776 C 0.79303 0.75976 0.51558 0.0
C2777 C 0.80128 0.77797 0.52665 0.0
C2778 C 0.73316 0.79695 0.47996 0.0
C2779 C 0.76175 0.77766 0.50333 0.0
C2780 C 0.7135 0.79759 0.46839 0.0
C2781 C 0.70142 0.77988 0.46749 0.0
C2782 C 0.74102 0.77843 0.49038 0.0
C2783 C 0.70987 0.76158 0.47799 0.0
C2784 C 0.77319 0.7595 0.50419 0.0
C2785 C 0.78909 0.79563 0.526 0.0
N2786 N 0.72922 0.76129 0.48891 0.0
N2787 N 0.77007 0.79506 0.51433 0.0
H2788 H 0.49283 0.44171 0.7679 0.0
H2789 H 0.49259 0.56039 0.73257 0.0
H2790 H 0.46916 0.46428 0.68707 0.0
H2791 H 0.47343 0.53798 0.8158 0.0
H2792 H 0.49412 0.52497 0.71495 0.0
H2793 H 0.49581 0.47709 0.78518 0.0
C2794 C 0.48857 0.45412 0.75365 0.0
C2795 C 0.4807 0.45013 0.72605 0.0
C2796 C 0.48982 0.52788 0.73714 0.0
C2797 C 0.48441 0.4904 0.74545 0.0
C2798 C 0.48908 0.548 0.74726 0.0
C2799 C 0.48288 0.55204 0.77567 0.0
C2800 C 0.48489 0.51176 0.75583 0.0
C2801 C 0.47824 0.53547 0.79373 0.0
C2802 C 0.49017 0.47422 0.76357 0.0
C2803 C 0.47522 0.46675 0.70854 0.0
N2804 N 0.47945 0.516 0.78356 0.0
N2805 N 0.47729 0.48621 0.71847 0.0
H2806 H 0.7965 0.19005 0.9632 0.0
H2807 H 0.70144 0.25448 0.02083 0.0
H2808 H 0.80205 0.25441 0.98216 0.0
H2809 H 0.70798 0.18928 0.03169 0.0
H2810 H 0.73634 0.25578 0.00108 0.0
H2811 H 0.76179 0.19059 0.98187 0.0
C2812 C 0.79039 0.20438 0.97111 0.0
C2813 C 0.80229 0.22223 0.97111 0.0
C2814 C 0.73007 0.24125 0.00793 0.0
C2815 C 0.7623 0.22289 0.99267 0.0
C2816 C 0.71019 0.24048 0.01914 0.0
C2817 C 0.70177 0.22175 0.02802 0.0
C2818 C 0.7414 0.22312 0.00514 0.0
C2819 C 0.7138 0.20409 0.02529 0.0
C2820 C 0.77056 0.20463 0.98193 0.0
C2821 C 0.79344 0.24029 0.98179 0.0
N2822 N 0.73289 0.20521 0.01396 0.0
N2823 N 0.77392 0.24019 0.9921 0.0
H2824 H 0.96525 0.46334 0.81835 0.0
H2825 H 0.96766 0.53737 0.68618 0.0
H2826 H 0.98994 0.44255 0.73722 0.0
H2827 H 0.98608 0.55948 0.76991 0.0
H2828 H 0.97074 0.50216 0.70404 0.0
H2829 H 0.9678 0.49877 0.80107 0.0
C2830 C 0.97136 0.46626 0.79702 0.0
C2831 C 0.97749 0.45004 0.77921 0.0
C2832 C 0.9743 0.51475 0.71835 0.0
C2833 C 0.97986 0.49028 0.75917 0.0
C2834 C 0.97251 0.53478 0.70824 0.0
C2835 C 0.97675 0.5513 0.72658 0.0
C2836 C 0.9797 0.51126 0.74724 0.0
C2837 C 0.98287 0.54714 0.75502 0.0
C2838 C 0.97285 0.48641 0.78725 0.0
C2839 C 0.98522 0.45463 0.75171 0.0
N2840 N 0.98384 0.52752 0.76467 0.0
N2841 N 0.98587 0.47432 0.74231 0.0
H2842 H 0.28754 0.21885 0.568 0.0
H2843 H 0.21414 0.21736 0.43545 0.0
H2844 H 0.30913 0.24119 0.48595 0.0
H2845 H 0.19206 0.24059 0.51674 0.0
H2846 H 0.24936 0.22049 0.45346 0.0
H2847 H 0.25224 0.22125 0.55005 0.0
C2848 C 0.28482 0.22442 0.54632 0.0
C2849 C 0.30121 0.22996 0.52846 0.0
C2850 C 0.23677 0.22508 0.46717 0.0
C2851 C 0.26114 0.23211 0.50766 0.0
C2852 C 0.21674 0.22327 0.45698 0.0
C2853 C 0.20024 0.22886 0.4746 0.0
C2854 C 0.24023 0.23185 0.49548 0.0
C2855 C 0.2044 0.23632 0.5024 0.0
C2856 C 0.26474 0.22581 0.53616 0.0
C2857 C 0.29689 0.23697 0.50048 0.0
N2858 N 0.22399 0.23728 0.5122 0.0
N2859 N 0.27727 0.23751 0.49073 0.0
H2860 H 0.49671 0.5516 0.26522 0.0
H2861 H 0.56307 0.45752 0.21042 0.0
H2862 H 0.56096 0.54439 0.28386 0.0
H2863 H 0.49887 0.45012 0.22922 0.0
H2864 H 0.56158 0.4921 0.22975 0.0
H2865 H 0.49623 0.51668 0.24542 0.0
C2866 C 0.51065 0.54268 0.26528 0.0
C2867 C 0.52888 0.55092 0.27631 0.0
C2868 C 0.54779 0.48294 0.22958 0.0
C2869 C 0.5285 0.51134 0.25324 0.0
C2870 C 0.54858 0.46321 0.21837 0.0
C2871 C 0.53105 0.45084 0.2182 0.0
C2872 C 0.5293 0.4906 0.2404 0.0
C2873 C 0.51275 0.45911 0.22898 0.0
C2874 C 0.51035 0.5228 0.25403 0.0
C2875 C 0.54652 0.53869 0.27577 0.0
N2876 N 0.51231 0.47855 0.23957 0.0
N2877 N 0.54591 0.51965 0.26421 0.0
H2878 H 0.21564 0.78765 0.0656 0.0
H2879 H 0.28896 0.78438 0.93305 0.0
H2880 H 0.19367 0.76324 0.9849 0.0
H2881 H 0.31072 0.76351 0.01582 0.0
H2882 H 0.2537 0.78227 0.95113 0.0
H2883 H 0.25087 0.78449 0.04771 0.0
C2884 C 0.21827 0.78151 0.04421 0.0
C2885 C 0.2018 0.77559 0.02672 0.0
C2886 C 0.26623 0.77798 0.96516 0.0
C2887 C 0.24178 0.77252 0.00599 0.0
C2888 C 0.28628 0.77922 0.95493 0.0
C2889 C 0.3027 0.77399 0.97295 0.0
C2890 C 0.26268 0.77215 0.99386 0.0
C2891 C 0.29844 0.76748 0.00118 0.0
C2892 C 0.2383 0.77967 0.0341 0.0
C2893 C 0.20598 0.76779 0.99913 0.0
N2894 N 0.27884 0.76707 0.01097 0.0
N2895 N 0.22558 0.7668 0.98938 0.0
H2896 H 0.53273 0.9672 0.81789 0.0
H2897 H 0.53654 0.04035 0.68498 0.0
H2898 H 0.51464 0.94466 0.73424 0.0
H2899 H 0.51011 0.06169 0.76472 0.0
H2900 H 0.53402 0.00507 0.70287 0.0
H2901 H 0.52989 0.00233 0.79952 0.0
C2902 C 0.52802 0.96967 0.79575 0.0
C2903 C 0.5238 0.95306 0.77757 0.0
C2904 C 0.52859 0.01751 0.71625 0.0
C2905 C 0.52112 0.99297 0.75636 0.0
C2906 C 0.53006 0.03757 0.70613 0.0
C2907 C 0.5234 0.05389 0.72335 0.0
C2908 C 0.52108 0.01385 0.74413 0.0
C2909 C 0.51522 0.0495 0.75067 0.0
C2910 C 0.52636 0.98965 0.78535 0.0
C2911 C 0.51784 0.95706 0.74901 0.0
N2912 N 0.51461 0.0299 0.76045 0.0
N2913 N 0.51701 0.97662 0.73911 0.0
H2914 H 0.30333 0.24484 0.02023 0.0
H2915 H 0.20785 0.31044 0.96816 0.0
H2916 H 0.29576 0.309 0.03914 0.0
H2917 H 0.20219 0.24562 0.98354 0.0
H2918 H 0.24233 0.30945 0.98785 0.0
H2919 H 0.2682 0.24405 0.00126 0.0
C2920 C 0.29429 0.2587 0.02053 0.0
C2921 C 0.30251 0.277 0.03136 0.0
C2922 C 0.23357 0.29542 0.98693 0.0
C2923 C 0.26262 0.27625 0.00929 0.0
C2924 C 0.21388 0.29593 0.97552 0.0
C2925 C 0.20205 0.27806 0.97417 0.0
C2926 C 0.24175 0.27687 0.99678 0.0
C2927 C 0.21076 0.25976 0.98423 0.0
C2928 C 0.27428 0.25822 0.00976 0.0
C2929 C 0.2901 0.29451 0.03116 0.0
N2930 N 0.23016 0.25959 0.995 0.0
N2931 N 0.2709 0.29373 0.0201 0.0
H2932 H 0.94205 0.04535 0.28655 0.0
H2933 H 0.00853 0.94994 0.23635 0.0
H2934 H 0.0071 0.05104 0.27312 0.0
H2935 H 0.94472 0.95766 0.21524 0.0
H2936 H 0.00899 0.98494 0.25577 0.0
H2937 H 0.94341 0.01077 0.26727 0.0
C2938 C 0.95669 0.03929 0.27978 0.0
C2939 C 0.97451 0.05118 0.28148 0.0
C2940 C 0.99497 0.97892 0.24669 0.0
C2941 C 0.97611 0.01139 0.2593 0.0
C2942 C 0.99468 0.95899 0.23565 0.0
C2943 C 0.97658 0.95085 0.22406 0.0
C2944 C 0.97694 0.99057 0.24667 0.0
C2945 C 0.95906 0.96326 0.22379 0.0
C2946 C 0.95741 0.01955 0.26858 0.0
C2947 C 0.99299 0.04243 0.27216 0.0
N2948 N 0.95965 0.98237 0.23513 0.0
N2949 N 0.99335 0.023 0.26155 0.0
H2950 H 0.29575 0.68974 0.46616 0.0
H2951 H 0.19991 0.75595 0.5163 0.0
H2952 H 0.30121 0.75462 0.48118 0.0
H2953 H 0.20667 0.69148 0.53367 0.0
H2954 H 0.23511 0.75654 0.49755 0.0
H2955 H 0.26088 0.69089 0.48434 0.0
C2956 C 0.28959 0.70429 0.47312 0.0
C2957 C 0.30148 0.72213 0.47215 0.0
C2958 C 0.22882 0.74234 0.50561 0.0
C2959 C 0.26134 0.7235 0.49303 0.0
C2960 C 0.20876 0.74197 0.51624 0.0
C2961 C 0.20033 0.72366 0.52666 0.0
C2962 C 0.24029 0.72419 0.50492 0.0
C2963 C 0.21251 0.70599 0.52602 0.0
C2964 C 0.26967 0.7049 0.48366 0.0
C2965 C 0.2926 0.7405 0.48162 0.0
N2966 N 0.23175 0.70668 0.51518 0.0
N2967 N 0.273 0.74075 0.49159 0.0
H2968 H 0.48965 0.06006 0.27028 0.0
H2969 H 0.48814 0.94133 0.23632 0.0
H2970 H 0.46659 0.03744 0.18915 0.0
H2971 H 0.4668 0.96429 0.31818 0.0
H2972 H 0.49078 0.97663 0.21862 0.0
H2973 H 0.49176 0.02473 0.28806 0.0
C2974 C 0.48537 0.04764 0.25607 0.0
C2975 C 0.47791 0.0516 0.22823 0.0
C2976 C 0.48576 0.97386 0.24055 0.0
C2977 C 0.48063 0.01141 0.2482 0.0
C2978 C 0.48438 0.95381 0.25072 0.0
C2979 C 0.47723 0.94995 0.27873 0.0
C2980 C 0.48053 0.99012 0.25882 0.0
C2981 C 0.47232 0.96666 0.29641 0.0
C2982 C 0.48647 0.02758 0.26628 0.0
C2983 C 0.47235 0.03498 0.21078 0.0
N2984 N 0.47417 0.98607 0.28621 0.0
N2985 N 0.47395 0.01556 0.22098 0.0
H2986 H 0.78916 0.7139 0.0704 0.0
H2987 H 0.71642 0.72275 0.93766 0.0
H2988 H 0.81068 0.74384 0.99327 0.0
H2989 H 0.69366 0.73931 0.02178 0.0
H2990 H 0.7515 0.72445 0.95663 0.0
H2991 H 0.7539 0.71712 0.05244 0.0
C2992 C 0.78644 0.72127 0.04982 0.0
C2993 C 0.8028 0.72873 0.03334 0.0
C2994 C 0.73878 0.72788 0.97078 0.0
C2995 C 0.76282 0.73185 0.01246 0.0
C2996 C 0.71885 0.72689 0.96004 0.0
C2997 C 0.7022 0.73106 0.97817 0.0
C2998 C 0.742 0.73236 1.00004 0.0
C2999 C 0.70612 0.73622 0.00706 0.0
C3000 C 0.76639 0.72313 0.03967 0.0
C3001 C 0.79848 0.73806 0.00674 0.0
N3002 N 0.72563 0.7364 0.01727 0.0
N3003 N 0.77891 0.73905 0.99687 0.0
H3004 H 0.03826 0.03658 0.81565 0.0
H3005 H 0.03363 0.96451 0.68214 0.0
H3006 H 0.01224 0.0593 0.73637 0.0
H3007 H 0.01378 0.94196 0.76495 0.0
H3008 H 0.03119 0.99963 0.70075 0.0
H3009 H 0.03484 0.00154 0.79714 0.0
C3010 C 0.03169 0.03415 0.79445 0.0
C3011 C 0.0254 0.05078 0.77755 0.0
C3012 C 0.02715 0.98695 0.71465 0.0
C3013 C 0.02205 0.011 0.75608 0.0
C3014 C 0.02857 0.96699 0.70412 0.0
C3015 C 0.02377 0.95038 0.72201 0.0
C3016 C 0.0216 0.99023 0.74353 0.0
C3017 C 0.01742 0.95437 0.75039 0.0
C3018 C 0.02971 0.01423 0.78399 0.0
C3019 C 0.01708 0.04685 0.75017 0.0
N3020 N 0.01686 0.97389 0.76047 0.0
N3021 N 0.01596 0.02736 0.74003 0.0
H3022 H 0.70147 0.24361 0.51625 0.0
H3023 H 0.7959 0.30962 0.46122 0.0
H3024 H 0.70841 0.30814 0.53288 0.0
H3025 H 0.80297 0.24542 0.48022 0.0
H3026 H 0.76122 0.30829 0.48008 0.0
H3027 H 0.73644 0.24295 0.49658 0.0
C3028 C 0.71033 0.25758 0.51585 0.0
C3029 C 0.702 0.27594 0.52632 0.0
C3030 C 0.77032 0.29446 0.48008 0.0
C3031 C 0.74166 0.27533 0.50345 0.0
C3032 C 0.79012 0.29516 0.46913 0.0
C3033 C 0.80245 0.27759 0.46915 0.0
C3034 C 0.76251 0.27602 0.49084 0.0
C3035 C 0.79403 0.25933 0.47986 0.0
C3036 C 0.73024 0.25718 0.50469 0.0
C3037 C 0.71416 0.2936 0.52523 0.0
N3038 N 0.77452 0.25898 0.49021 0.0
N3039 N 0.73325 0.29288 0.51381 0.0
loop_
_geom_bond_atom_site_label_1
_geom_bond_atom_site_label_2
_geom_bond_distance
_geom_bond_site_symmetry_2
_ccdc_geom_bond_type
Co0 O2 2.143 . S
Co0 O8 2.074 . S
Co0 O11 2.093 . S
Co0 O24 2.097 . S
Co0 N41 2.151 . S
Co0 N49 2.214 . S
Co1 O2 2.160 . S
Co1 O7 2.058 . S
Co1 O17 2.057 . S
Co1 O32 2.037 . S
Co1 N36 2.145 . S
Co1 N57 2.257 . S
O2 Co0 2.143 . S
O2 Co1 2.160 . S
C3 O4 1.278 . S
C3 O11 1.224 . S
O4 C3 1.278 . S
C5 O6 1.245 . S
C5 O17 1.232 . S
O6 C5 1.245 . S
O7 Co1 2.058 . S
O7 C33 1.269 . S
O8 Co0 2.074 . S
O8 C33 1.257 . S
H9 C34 0.930 . S
H10 C40 0.930 . S
O11 Co0 2.093 . S
O11 C3 1.224 . S
H12 C44 0.929 . S
H13 C46 0.930 . S
H14 C47 0.930 . S
H15 C45 0.929 . S
H16 C48 0.928 . S
O17 Co1 2.057 . S
O17 C5 1.232 . S
H18 C37 0.929 . S
H19 C38 0.929 . S
H20 C50 0.931 . S
H21 C42 0.929 . S
H22 C51 0.930 . S
H23 C43 0.931 . S
O24 Co0 2.097 . S
O24 C52 1.214 . S
H25 C53 0.929 . S
H26 C54 0.929 . S
H27 C55 0.930 . S
H28 C56 0.929 . S
H29 C58 0.930 . S
H30 C35 0.930 . S
H31 C39 0.930 . S
O32 Co1 2.037 . S
O32 C52 1.234 . S
C33 O7 1.269 . S
C33 O8 1.257 . S
C34 H9 0.930 . S
C34 C37 1.388 . S
C34 C39 1.418 . S
C35 H30 0.930 . S
C35 C38 1.404 . S
C35 C39 1.353 . S
N36 Co1 2.145 . S
N36 C37 1.397 . S
N36 C38 1.334 . S
C37 H18 0.929 . S
C37 C34 1.388 . S
C37 N36 1.397 . S
C38 H19 0.929 . S
C38 C35 1.404 . S
C38 N36 1.334 . S
C39 H31 0.930 . S
C39 C34 1.418 . S
C39 C35 1.353 . S
C40 H10 0.930 . S
C40 N41 1.330 . S
C40 C42 1.446 . S
N41 Co0 2.151 . S
N41 C40 1.330 . S
N41 C45 1.418 1_455 S
C42 H21 0.929 . S
C42 C40 1.446 . S
C42 C43 1.332 1_455 S
C43 H23 0.931 . S
C43 C42 1.332 1_655 S
C43 C44 1.267 . S
C44 H12 0.929 . S
C44 C43 1.267 . S
C44 C45 1.251 . S
C45 H15 0.929 . S
C45 N41 1.418 1_655 S
C45 C44 1.251 . S
C46 H13 0.930 . S
C46 C48 1.406 . S
C46 C51 1.261 . S
C47 H14 0.930 . S
C47 N49 1.325 . S
C47 C50 1.357 . S
C48 H16 0.928 . S
C48 C46 1.406 . S
C48 N49 1.261 . S
N49 Co0 2.214 . S
N49 C47 1.325 . S
N49 C48 1.261 . S
C50 H20 0.931 . S
C50 C47 1.357 . S
C50 C51 1.312 . S
C51 H22 0.930 . S
C51 C46 1.261 . S
C51 C50 1.312 . S
C52 O24 1.214 . S
C52 O32 1.234 . S
C53 H25 0.929 . S
C53 C56 1.391 . S
C53 C58 1.391 . S
C54 H26 0.929 . S
C54 C55 1.390 . S
C54 N57 1.391 . S
C55 H27 0.930 . S
C55 C54 1.390 . S
C55 C56 1.392 . S
C56 H28 0.929 . S
C56 C53 1.391 . S
C56 C55 1.392 . S
N57 Co1 2.257 . S
N57 C54 1.391 . S
N57 C58 1.388 . S
C58 H29 0.930 . S
C58 C53 1.391 . S
C58 N57 1.388 . S
Co59 O61 2.143 . S
Co59 O67 2.074 . S
Co59 O70 2.093 . S
Co59 O83 2.097 . S
Co59 N100 2.151 . S
Co59 N108 2.214 . S
Co60 O61 2.160 . S
Co60 O66 2.058 . S
Co60 O76 2.057 . S
Co60 O91 2.037 . S
Co60 N95 2.145 . S
Co60 N116 2.257 . S
O61 Co59 2.143 . S
O61 Co60 2.160 . S
C62 O63 1.278 . S
C62 O70 1.224 . S
O63 C62 1.278 . S
C64 O65 1.245 . S
C64 O76 1.232 . S
O65 C64 1.245 . S
O66 Co60 2.058 . S
O66 C92 1.269 . S
O67 Co59 2.074 . S
O67 C92 1.257 . S
H68 C93 0.930 . S
H69 C99 0.930 . S
O70 Co59 2.093 . S
O70 C62 1.224 . S
H71 C103 0.929 . S
H72 C105 0.930 . S
H73 C106 0.930 . S
H74 C104 0.929 . S
H75 C107 0.928 . S
O76 Co60 2.057 . S
O76 C64 1.232 . S
H77 C96 0.929 . S
H78 C97 0.929 . S
H79 C109 0.931 . S
H80 C101 0.929 . S
H81 C110 0.930 . S
H82 C102 0.931 . S
O83 Co59 2.097 . S
O83 C111 1.214 . S
H84 C112 0.929 . S
H85 C113 0.929 . S
H86 C114 0.930 . S
H87 C115 0.929 . S
H88 C117 0.930 . S
H89 C94 0.930 . S
H90 C98 0.930 . S
O91 Co60 2.037 . S
O91 C111 1.234 . S
C92 O66 1.269 . S
C92 O67 1.257 . S
C93 H68 0.930 . S
C93 C96 1.388 . S
C93 C98 1.418 . S
C94 H89 0.930 . S
C94 C97 1.404 . S
C94 C98 1.353 . S
N95 Co60 2.145 . S
N95 C96 1.397 . S
N95 C97 1.334 . S
C96 H77 0.929 . S
C96 C93 1.388 . S
C96 N95 1.397 . S
C97 H78 0.929 . S
C97 C94 1.404 . S
C97 N95 1.334 . S
C98 H90 0.930 . S
C98 C93 1.418 . S
C98 C94 1.353 . S
C99 H69 0.930 . S
C99 N100 1.330 . S
C99 C101 1.446 . S
N100 Co59 2.151 . S
N100 C99 1.330 . S
N100 C104 1.418 . S
C101 H80 0.929 . S
C101 C99 1.446 . S
C101 C102 1.332 . S
C102 H82 0.931 . S
C102 C101 1.332 . S
C102 C103 1.267 . S
C103 H71 0.929 . S
C103 C102 1.267 . S
C103 C104 1.251 . S
C104 H74 0.929 . S
C104 N100 1.418 . S
C104 C103 1.251 . S
C105 H72 0.930 . S
C105 C107 1.406 . S
C105 C110 1.261 . S
C106 H73 0.930 . S
C106 N108 1.325 . S
C106 C109 1.357 . S
C107 H75 0.928 . S
C107 C105 1.406 . S
C107 N108 1.261 . S
N108 Co59 2.214 . S
N108 C106 1.325 . S
N108 C107 1.261 . S
C109 H79 0.931 . S
C109 C106 1.357 . S
C109 C110 1.312 . S
C110 H81 0.930 . S
C110 C105 1.261 . S
C110 C109 1.312 . S
C111 O83 1.214 . S
C111 O91 1.234 . S
C112 H84 0.929 . S
C112 C115 1.391 . S
C112 C117 1.391 . S
C113 H85 0.929 . S
C113 C114 1.390 . S
C113 N116 1.391 . S
C114 H86 0.930 . S
C114 C113 1.390 . S
C114 C115 1.392 . S
C115 H87 0.929 . S
C115 C112 1.391 . S
C115 C114 1.392 . S
N116 Co60 2.257 . S
N116 C113 1.391 . S
N116 C117 1.388 . S
C117 H88 0.930 . S
C117 C112 1.391 . S
C117 N116 1.388 . S
Co118 O120 2.143 . S
Co118 O126 2.074 . S
Co118 O129 2.093 . S
Co118 O142 2.097 . S
Co118 N159 2.151 . S
Co118 N167 2.214 . S
Co119 O120 2.160 . S
Co119 O125 2.058 . S
Co119 O135 2.057 . S
Co119 O150 2.037 . S
Co119 N154 2.145 . S
Co119 N175 2.257 . S
O120 Co118 2.143 . S
O120 Co119 2.160 . S
C121 O122 1.278 . S
C121 O129 1.224 . S
O122 C121 1.278 . S
C123 O124 1.245 . S
C123 O135 1.232 . S
O124 C123 1.245 . S
O125 Co119 2.058 . S
O125 C151 1.269 . S
O126 Co118 2.074 . S
O126 C151 1.257 . S
H127 C152 0.930 . S
H128 C158 0.930 . S
O129 Co118 2.093 . S
O129 C121 1.224 . S
H130 C162 0.929 . S
H131 C164 0.930 . S
H132 C165 0.930 . S
H133 C163 0.929 . S
H134 C166 0.928 . S
O135 Co119 2.057 . S
O135 C123 1.232 . S
H136 C155 0.929 . S
H137 C156 0.929 . S
H138 C168 0.931 . S
H139 C160 0.929 . S
H140 C169 0.930 . S
H141 C161 0.931 . S
O142 Co118 2.097 . S
O142 C170 1.214 . S
H143 C171 0.929 . S
H144 C172 0.929 . S
H145 C173 0.930 . S
H146 C174 0.929 . S
H147 C176 0.930 . S
H148 C153 0.930 . S
H149 C157 0.930 . S
O150 Co119 2.037 . S
O150 C170 1.234 . S
C151 O125 1.269 . S
C151 O126 1.257 . S
C152 H127 0.930 . S
C152 C155 1.388 . S
C152 C157 1.418 . S
C153 H148 0.930 . S
C153 C156 1.404 . S
C153 C157 1.353 . S
N154 Co119 2.145 . S
N154 C155 1.397 . S
N154 C156 1.334 . S
C155 H136 0.929 . S
C155 C152 1.388 . S
C155 N154 1.397 . S
C156 H137 0.929 . S
C156 C153 1.404 . S
C156 N154 1.334 . S
C157 H149 0.930 . S
C157 C152 1.418 . S
C157 C153 1.353 . S
C158 H128 0.930 . S
C158 N159 1.330 . S
C158 C160 1.446 . S
N159 Co118 2.151 . S
N159 C158 1.330 . S
N159 C163 1.418 . S
C160 H139 0.929 . S
C160 C158 1.446 . S
C160 C161 1.332 . S
C161 H141 0.931 . S
C161 C160 1.332 . S
C161 C162 1.267 . S
C162 H130 0.929 . S
C162 C161 1.267 . S
C162 C163 1.251 . S
C163 H133 0.929 . S
C163 N159 1.418 . S
C163 C162 1.251 . S
C164 H131 0.930 . S
C164 C166 1.406 . S
C164 C169 1.261 . S
C165 H132 0.930 . S
C165 N167 1.325 . S
C165 C168 1.357 . S
C166 H134 0.928 . S
C166 C164 1.406 . S
C166 N167 1.261 . S
N167 Co118 2.214 . S
N167 C165 1.325 . S
N167 C166 1.261 . S
C168 H138 0.931 . S
C168 C165 1.357 . S
C168 C169 1.312 . S
C169 H140 0.930 . S
C169 C164 1.261 . S
C169 C168 1.312 . S
C170 O142 1.214 . S
C170 O150 1.234 . S
C171 H143 0.929 . S
C171 C174 1.391 . S
C171 C176 1.391 . S
C172 H144 0.929 . S
C172 C173 1.390 . S
C172 N175 1.391 . S
C173 H145 0.930 . S
C173 C172 1.390 . S
C173 C174 1.392 . S
C174 H146 0.929 . S
C174 C171 1.391 . S
C174 C173 1.392 . S
N175 Co119 2.257 . S
N175 C172 1.391 . S
N175 C176 1.388 . S
C176 H147 0.930 . S
C176 C171 1.391 . S
C176 N175 1.388 . S
Co177 O179 2.143 . S
Co177 O185 2.074 . S
Co177 O188 2.093 1_554 S
Co177 O201 2.097 . S
Co177 N218 2.151 1_554 S
Co177 N226 2.214 . S
Co178 O179 2.160 . S
Co178 O184 2.058 . S
Co178 O194 2.057 . S
Co178 O209 2.037 . S
Co178 N213 2.145 . S
Co178 N234 2.257 . S
O179 Co177 2.143 . S
O179 Co178 2.160 . S
C180 O181 1.278 . S
C180 O188 1.224 . S
O181 C180 1.278 . S
C182 O183 1.245 . S
C182 O194 1.232 . S
O183 C182 1.245 . S
O184 Co178 2.058 . S
O184 C210 1.269 . S
O185 Co177 2.074 . S
O185 C210 1.257 . S
H186 C211 0.930 . S
H187 C217 0.930 . S
O188 Co177 2.093 1_556 S
O188 C180 1.224 . S
H189 C221 0.929 . S
H190 C223 0.930 . S
H191 C224 0.930 . S
H192 C222 0.929 1_554 S
H193 C225 0.928 . S
O194 Co178 2.057 . S
O194 C182 1.232 . S
H195 C214 0.929 . S
H196 C215 0.929 . S
H197 C227 0.931 . S
H198 C219 0.929 . S
H199 C228 0.930 . S
H200 C220 0.931 . S
O201 Co177 2.097 . S
O201 C229 1.214 . S
H202 C230 0.929 . S
H203 C231 0.929 . S
H204 C232 0.930 . S
H205 C233 0.929 . S
H206 C235 0.930 . S
H207 C212 0.930 . S
H208 C216 0.930 . S
O209 Co178 2.037 . S
O209 C229 1.234 . S
C210 O184 1.269 . S
C210 O185 1.257 . S
C211 H186 0.930 . S
C211 C214 1.388 . S
C211 C216 1.418 . S
C212 H207 0.930 . S
C212 C215 1.404 . S
C212 C216 1.353 . S
N213 Co178 2.145 . S
N213 C214 1.397 . S
N213 C215 1.334 . S
C214 H195 0.929 . S
C214 C211 1.388 . S
C214 N213 1.397 . S
C215 H196 0.929 . S
C215 C212 1.404 . S
C215 N213 1.334 . S
C216 H208 0.930 . S
C216 C211 1.418 . S
C216 C212 1.353 . S
C217 H187 0.930 . S
C217 N218 1.330 . S
C217 C219 1.446 . S
N218 Co177 2.151 1_556 S
N218 C217 1.330 . S
N218 C222 1.418 . S
C219 H198 0.929 . S
C219 C217 1.446 . S
C219 C220 1.332 . S
C220 H200 0.931 . S
C220 C219 1.332 . S
C220 C221 1.267 . S
C221 H189 0.929 . S
C221 C220 1.267 . S
C221 C222 1.251 . S
C222 H192 0.929 1_556 S
C222 N218 1.418 . S
C222 C221 1.251 . S
C223 H190 0.930 . S
C223 C225 1.406 . S
C223 C228 1.261 1_556 S
C224 H191 0.930 . S
C224 N226 1.325 . S
C224 C227 1.357 . S
C225 H193 0.928 . S
C225 C223 1.406 . S
C225 N226 1.261 1_556 S
N226 Co177 2.214 . S
N226 C224 1.325 . S
N226 C225 1.261 1_554 S
C227 H197 0.931 . S
C227 C224 1.357 . S
C227 C228 1.312 . S
C228 H199 0.930 . S
C228 C223 1.261 1_554 S
C228 C227 1.312 . S
C229 O201 1.214 . S
C229 O209 1.234 . S
C230 H202 0.929 . S
C230 C233 1.391 . S
C230 C235 1.391 . S
C231 H203 0.929 . S
C231 C232 1.390 . S
C231 N234 1.391 . S
C232 H204 0.930 . S
C232 C231 1.390 . S
C232 C233 1.392 . S
C233 H205 0.929 . S
C233 C230 1.391 . S
C233 C232 1.392 . S
N234 Co178 2.257 . S
N234 C231 1.391 . S
N234 C235 1.388 . S
C235 H206 0.930 . S
C235 C230 1.391 . S
C235 N234 1.388 . S
Co236 O238 2.143 . S
Co236 O244 2.074 . S
Co236 O247 2.093 . S
Co236 O260 2.097 . S
Co236 N277 2.151 . S
Co236 N285 2.214 . S
Co237 O238 2.160 . S
Co237 O243 2.058 . S
Co237 O253 2.057 . S
Co237 O268 2.037 . S
Co237 N272 2.145 . S
Co237 N293 2.257 . S
O238 Co236 2.143 . S
O238 Co237 2.160 . S
C239 O240 1.278 . S
C239 O247 1.224 . S
O240 C239 1.278 . S
C241 O242 1.245 . S
C241 O253 1.232 . S
O242 C241 1.245 . S
O243 Co237 2.058 . S
O243 C269 1.269 . S
O244 Co236 2.074 . S
O244 C269 1.257 . S
H245 C270 0.930 . S
H246 C276 0.930 . S
O247 Co236 2.093 . S
O247 C239 1.224 . S
H248 C280 0.929 . S
H249 C282 0.930 . S
H250 C283 0.930 . S
H251 C281 0.929 . S
H252 C284 0.928 . S
O253 Co237 2.057 . S
O253 C241 1.232 . S
H254 C273 0.929 . S
H255 C274 0.929 . S
H256 C286 0.931 . S
H257 C278 0.929 . S
H258 C287 0.930 . S
H259 C279 0.931 . S
O260 Co236 2.097 . S
O260 C288 1.214 . S
H261 C289 0.929 . S
H262 C290 0.929 . S
H263 C291 0.930 . S
H264 C292 0.929 . S
H265 C294 0.930 . S
H266 C271 0.930 . S
H267 C275 0.930 . S
O268 Co237 2.037 . S
O268 C288 1.234 . S
C269 O243 1.269 . S
C269 O244 1.257 . S
C270 H245 0.930 . S
C270 C273 1.388 . S
C270 C275 1.418 . S
C271 H266 0.930 . S
C271 C274 1.404 . S
C271 C275 1.353 . S
N272 Co237 2.145 . S
N272 C273 1.397 . S
N272 C274 1.334 . S
C273 H254 0.929 . S
C273 C270 1.388 . S
C273 N272 1.397 . S
C274 H255 0.929 . S
C274 C271 1.404 . S
C274 N272 1.334 . S
C275 H267 0.930 . S
C275 C270 1.418 . S
C275 C271 1.353 . S
C276 H246 0.930 . S
C276 N277 1.330 . S
C276 C278 1.446 . S
N277 Co236 2.151 . S
N277 C276 1.330 . S
N277 C281 1.418 1_455 S
C278 H257 0.929 . S
C278 C276 1.446 . S
C278 C279 1.332 1_455 S
C279 H259 0.931 . S
C279 C278 1.332 1_655 S
C279 C280 1.267 . S
C280 H248 0.929 . S
C280 C279 1.267 . S
C280 C281 1.251 . S
C281 H251 0.929 . S
C281 N277 1.418 1_655 S
C281 C280 1.251 . S
C282 H249 0.930 . S
C282 C284 1.406 . S
C282 C287 1.261 . S
C283 H250 0.930 . S
C283 N285 1.325 . S
C283 C286 1.357 . S
C284 H252 0.928 . S
C284 C282 1.406 . S
C284 N285 1.261 . S
N285 Co236 2.214 . S
N285 C283 1.325 . S
N285 C284 1.261 . S
C286 H256 0.931 . S
C286 C283 1.357 . S
C286 C287 1.312 . S
C287 H258 0.930 . S
C287 C282 1.261 . S
C287 C286 1.312 . S
C288 O260 1.214 . S
C288 O268 1.234 . S
C289 H261 0.929 . S
C289 C292 1.391 . S
C289 C294 1.391 . S
C290 H262 0.929 . S
C290 C291 1.390 . S
C290 N293 1.391 . S
C291 H263 0.930 . S
C291 C290 1.390 . S
C291 C292 1.392 . S
C292 H264 0.929 . S
C292 C289 1.391 . S
C292 C291 1.392 . S
N293 Co237 2.257 . S
N293 C290 1.391 . S
N293 C294 1.388 . S
C294 H265 0.930 . S
C294 C289 1.391 . S
C294 N293 1.388 . S
Co295 O297 2.143 . S
Co295 O303 2.074 . S
Co295 O306 2.093 . S
Co295 O319 2.097 . S
Co295 N336 2.151 . S
Co295 N344 2.214 . S
Co296 O297 2.160 . S
Co296 O302 2.058 . S
Co296 O312 2.057 . S
Co296 O327 2.037 . S
Co296 N331 2.145 . S
Co296 N352 2.257 . S
O297 Co295 2.143 . S
O297 Co296 2.160 . S
C298 O299 1.278 . S
C298 O306 1.224 . S
O299 C298 1.278 . S
C300 O301 1.245 . S
C300 O312 1.232 . S
O301 C300 1.245 . S
O302 Co296 2.058 . S
O302 C328 1.269 . S
O303 Co295 2.074 . S
O303 C328 1.257 . S
H304 C329 0.930 . S
H305 C335 0.930 . S
O306 Co295 2.093 . S
O306 C298 1.224 . S
H307 C339 0.929 . S
H308 C341 0.930 . S
H309 C342 0.930 . S
H310 C340 0.929 . S
H311 C343 0.928 . S
O312 Co296 2.057 . S
O312 C300 1.232 . S
H313 C332 0.929 . S
H314 C333 0.929 . S
H315 C345 0.931 . S
H316 C337 0.929 . S
H317 C346 0.930 . S
H318 C338 0.931 . S
O319 Co295 2.097 . S
O319 C347 1.214 . S
H320 C348 0.929 . S
H321 C349 0.929 . S
H322 C350 0.930 . S
H323 C351 0.929 . S
H324 C353 0.930 . S
H325 C330 0.930 . S
H326 C334 0.930 . S
O327 Co296 2.037 . S
O327 C347 1.234 . S
C328 O302 1.269 . S
C328 O303 1.257 . S
C329 H304 0.930 . S
C329 C332 1.388 . S
C329 C334 1.418 . S
C330 H325 0.930 . S
C330 C333 1.404 . S
C330 C334 1.353 . S
N331 Co296 2.145 . S
N331 C332 1.397 . S
N331 C333 1.334 . S
C332 H313 0.929 . S
C332 C329 1.388 . S
C332 N331 1.397 . S
C333 H314 0.929 . S
C333 C330 1.404 . S
C333 N331 1.334 . S
C334 H326 0.930 . S
C334 C329 1.418 . S
C334 C330 1.353 . S
C335 H305 0.930 . S
C335 N336 1.330 . S
C335 C337 1.446 . S
N336 Co295 2.151 . S
N336 C335 1.330 . S
N336 C340 1.418 . S
C337 H316 0.929 . S
C337 C335 1.446 . S
C337 C338 1.332 . S
C338 H318 0.931 . S
C338 C337 1.332 . S
C338 C339 1.267 . S
C339 H307 0.929 . S
C339 C338 1.267 . S
C339 C340 1.251 . S
C340 H310 0.929 . S
C340 N336 1.418 . S
C340 C339 1.251 . S
C341 H308 0.930 . S
C341 C343 1.406 . S
C341 C346 1.261 . S
C342 H309 0.930 . S
C342 N344 1.325 . S
C342 C345 1.357 . S
C343 H311 0.928 . S
C343 C341 1.406 . S
C343 N344 1.261 . S
N344 Co295 2.214 . S
N344 C342 1.325 . S
N344 C343 1.261 . S
C345 H315 0.931 . S
C345 C342 1.357 . S
C345 C346 1.312 . S
C346 H317 0.930 . S
C346 C341 1.261 . S
C346 C345 1.312 . S
C347 O319 1.214 . S
C347 O327 1.234 . S
C348 H320 0.929 . S
C348 C351 1.391 . S
C348 C353 1.391 . S
C349 H321 0.929 . S
C349 C350 1.390 . S
C349 N352 1.391 . S
C350 H322 0.930 . S
C350 C349 1.390 . S
C350 C351 1.392 . S
C351 H323 0.929 . S
C351 C348 1.391 . S
C351 C350 1.392 . S
N352 Co296 2.257 . S
N352 C349 1.391 . S
N352 C353 1.388 . S
C353 H324 0.930 . S
C353 C348 1.391 . S
C353 N352 1.388 . S
Co354 O356 2.143 . S
Co354 O362 2.074 . S
Co354 O365 2.093 . S
Co354 O378 2.097 . S
Co354 N395 2.151 . S
Co354 N403 2.214 . S
Co355 O356 2.160 . S
Co355 O361 2.058 . S
Co355 O371 2.057 . S
Co355 O386 2.037 . S
Co355 N390 2.145 . S
Co355 N411 2.257 . S
O356 Co354 2.143 . S
O356 Co355 2.160 . S
C357 O358 1.278 . S
C357 O365 1.224 . S
O358 C357 1.278 . S
C359 O360 1.245 . S
C359 O371 1.232 . S
O360 C359 1.245 . S
O361 Co355 2.058 . S
O361 C387 1.269 . S
O362 Co354 2.074 . S
O362 C387 1.257 . S
H363 C388 0.930 . S
H364 C394 0.930 . S
O365 Co354 2.093 . S
O365 C357 1.224 . S
H366 C398 0.929 . S
H367 C400 0.930 . S
H368 C401 0.930 . S
H369 C399 0.929 . S
H370 C402 0.928 . S
O371 Co355 2.057 . S
O371 C359 1.232 . S
H372 C391 0.929 . S
H373 C392 0.929 . S
H374 C404 0.931 . S
H375 C396 0.929 . S
H376 C405 0.930 . S
H377 C397 0.931 . S
O378 Co354 2.097 . S
O378 C406 1.214 . S
H379 C407 0.929 . S
H380 C408 0.929 . S
H381 C409 0.930 . S
H382 C410 0.929 . S
H383 C412 0.930 . S
H384 C389 0.930 . S
H385 C393 0.930 . S
O386 Co355 2.037 . S
O386 C406 1.234 . S
C387 O361 1.269 . S
C387 O362 1.257 . S
C388 H363 0.930 . S
C388 C391 1.388 . S
C388 C393 1.418 . S
C389 H384 0.930 . S
C389 C392 1.404 . S
C389 C393 1.353 . S
N390 Co355 2.145 . S
N390 C391 1.397 . S
N390 C392 1.334 . S
C391 H372 0.929 . S
C391 C388 1.388 . S
C391 N390 1.397 . S
C392 H373 0.929 . S
C392 C389 1.404 . S
C392 N390 1.334 . S
C393 H385 0.930 . S
C393 C388 1.418 . S
C393 C389 1.353 . S
C394 H364 0.930 . S
C394 N395 1.330 . S
C394 C396 1.446 . S
N395 Co354 2.151 . S
N395 C394 1.330 . S
N395 C399 1.418 . S
C396 H375 0.929 . S
C396 C394 1.446 . S
C396 C397 1.332 . S
C397 H377 0.931 . S
C397 C396 1.332 . S
C397 C398 1.267 . S
C398 H366 0.929 . S
C398 C397 1.267 . S
C398 C399 1.251 . S
C399 H369 0.929 . S
C399 N395 1.418 . S
C399 C398 1.251 . S
C400 H367 0.930 . S
C400 C402 1.406 . S
C400 C405 1.261 . S
C401 H368 0.930 . S
C401 N403 1.325 . S
C401 C404 1.357 . S
C402 H370 0.928 . S
C402 C400 1.406 . S
C402 N403 1.261 . S
N403 Co354 2.214 . S
N403 C401 1.325 . S
N403 C402 1.261 . S
C404 H374 0.931 . S
C404 C401 1.357 . S
C404 C405 1.312 . S
C405 H376 0.930 . S
C405 C400 1.261 . S
C405 C404 1.312 . S
C406 O378 1.214 . S
C406 O386 1.234 . S
C407 H379 0.929 . S
C407 C410 1.391 . S
C407 C412 1.391 . S
C408 H380 0.929 . S
C408 C409 1.390 . S
C408 N411 1.391 . S
C409 H381 0.930 . S
C409 C408 1.390 . S
C409 C410 1.392 . S
C410 H382 0.929 . S
C410 C407 1.391 . S
C410 C409 1.392 . S
N411 Co355 2.257 . S
N411 C408 1.391 . S
N411 C412 1.388 . S
C412 H383 0.930 . S
C412 C407 1.391 . S
C412 N411 1.388 . S
Co413 O415 2.143 . S
Co413 O421 2.074 . S
Co413 O424 2.093 1_556 S
Co413 O437 2.097 . S
Co413 N454 2.151 1_556 S
Co413 N462 2.214 . S
Co414 O415 2.160 . S
Co414 O420 2.058 . S
Co414 O430 2.057 . S
Co414 O445 2.037 . S
Co414 N449 2.145 . S
Co414 N470 2.257 . S
O415 Co413 2.143 . S
O415 Co414 2.160 . S
C416 O417 1.278 . S
C416 O424 1.224 . S
O417 C416 1.278 . S
C418 O419 1.245 . S
C418 O430 1.232 . S
O419 C418 1.245 . S
O420 Co414 2.058 . S
O420 C446 1.269 . S
O421 Co413 2.074 . S
O421 C446 1.257 . S
H422 C447 0.930 . S
H423 C453 0.930 . S
O424 Co413 2.093 1_554 S
O424 C416 1.224 . S
H425 C457 0.929 . S
H426 C459 0.930 . S
H427 C460 0.930 . S
H428 C458 0.929 1_556 S
H429 C461 0.928 . S
O430 Co414 2.057 . S
O430 C418 1.232 . S
H431 C450 0.929 . S
H432 C451 0.929 . S
H433 C463 0.931 . S
H434 C455 0.929 . S
H435 C464 0.930 . S
H436 C456 0.931 . S
O437 Co413 2.097 . S
O437 C465 1.214 . S
H438 C466 0.929 . S
H439 C467 0.929 . S
H440 C468 0.930 . S
H441 C469 0.929 . S
H442 C471 0.930 . S
H443 C448 0.930 . S
H444 C452 0.930 . S
O445 Co414 2.037 . S
O445 C465 1.234 . S
C446 O420 1.269 . S
C446 O421 1.257 . S
C447 H422 0.930 . S
C447 C450 1.388 . S
C447 C452 1.418 . S
C448 H443 0.930 . S
C448 C451 1.404 . S
C448 C452 1.353 . S
N449 Co414 2.145 . S
N449 C450 1.397 . S
N449 C451 1.334 . S
C450 H431 0.929 . S
C450 C447 1.388 . S
C450 N449 1.397 . S
C451 H432 0.929 . S
C451 C448 1.404 . S
C451 N449 1.334 . S
C452 H444 0.930 . S
C452 C447 1.418 . S
C452 C448 1.353 . S
C453 H423 0.930 . S
C453 N454 1.330 . S
C453 C455 1.446 . S
N454 Co413 2.151 1_554 S
N454 C453 1.330 . S
N454 C458 1.418 . S
C455 H434 0.929 . S
C455 C453 1.446 . S
C455 C456 1.332 . S
C456 H436 0.931 . S
C456 C455 1.332 . S
C456 C457 1.267 . S
C457 H425 0.929 . S
C457 C456 1.267 . S
C457 C458 1.251 . S
C458 H428 0.929 1_554 S
C458 N454 1.418 . S
C458 C457 1.251 . S
C459 H426 0.930 . S
C459 C461 1.406 . S
C459 C464 1.261 1_554 S
C460 H427 0.930 . S
C460 N462 1.325 . S
C460 C463 1.357 . S
C461 H429 0.928 . S
C461 C459 1.406 . S
C461 N462 1.261 1_554 S
N462 Co413 2.214 . S
N462 C460 1.325 . S
N462 C461 1.261 1_556 S
C463 H433 0.931 . S
C463 C460 1.357 . S
C463 C464 1.312 . S
C464 H435 0.930 . S
C464 C459 1.261 1_556 S
C464 C463 1.312 . S
C465 O437 1.214 . S
C465 O445 1.234 . S
C466 H438 0.929 . S
C466 C469 1.391 . S
C466 C471 1.391 . S
C467 H439 0.929 . S
C467 C468 1.390 . S
C467 N470 1.391 . S
C468 H440 0.930 . S
C468 C467 1.390 . S
C468 C469 1.392 . S
C469 H441 0.929 . S
C469 C466 1.391 . S
C469 C468 1.392 . S
N470 Co414 2.257 . S
N470 C467 1.391 . S
N470 C471 1.388 . S
C471 H442 0.930 . S
C471 C466 1.391 . S
C471 N470 1.388 . S
Co472 O474 2.143 . S
Co472 O480 2.074 . S
Co472 O483 2.093 . S
Co472 O496 2.097 . S
Co472 N513 2.151 . S
Co472 N521 2.214 . S
Co473 O474 2.160 . S
Co473 O479 2.058 . S
Co473 O489 2.057 . S
Co473 O504 2.037 . S
Co473 N508 2.145 . S
Co473 N529 2.257 . S
O474 Co472 2.143 . S
O474 Co473 2.160 . S
C475 O476 1.278 . S
C475 O483 1.224 . S
O476 C475 1.278 . S
C477 O478 1.245 . S
C477 O489 1.232 . S
O478 C477 1.245 . S
O479 Co473 2.058 . S
O479 C505 1.269 . S
O480 Co472 2.074 . S
O480 C505 1.257 . S
H481 C506 0.930 . S
H482 C512 0.930 . S
O483 Co472 2.093 . S
O483 C475 1.224 . S
H484 C516 0.929 . S
H485 C518 0.930 . S
H486 C519 0.930 . S
H487 C517 0.929 . S
H488 C520 0.928 . S
O489 Co473 2.057 . S
O489 C477 1.232 . S
H490 C509 0.929 . S
H491 C510 0.929 . S
H492 C522 0.931 . S
H493 C514 0.929 . S
H494 C523 0.930 . S
H495 C515 0.931 . S
O496 Co472 2.097 . S
O496 C524 1.214 . S
H497 C525 0.929 . S
H498 C526 0.929 . S
H499 C527 0.930 . S
H500 C528 0.929 . S
H501 C530 0.930 . S
H502 C507 0.930 . S
H503 C511 0.930 . S
O504 Co473 2.037 . S
O504 C524 1.234 . S
C505 O479 1.269 . S
C505 O480 1.257 . S
C506 H481 0.930 . S
C506 C509 1.388 . S
C506 C511 1.418 . S
C507 H502 0.930 . S
C507 C510 1.404 . S
C507 C511 1.353 . S
N508 Co473 2.145 . S
N508 C509 1.397 . S
N508 C510 1.334 . S
C509 H490 0.929 . S
C509 C506 1.388 . S
C509 N508 1.397 . S
C510 H491 0.929 . S
C510 C507 1.404 . S
C510 N508 1.334 . S
C511 H503 0.930 . S
C511 C506 1.418 . S
C511 C507 1.353 . S
C512 H482 0.930 . S
C512 N513 1.330 . S
C512 C514 1.446 . S
N513 Co472 2.151 . S
N513 C512 1.330 . S
N513 C517 1.418 1_655 S
C514 H493 0.929 . S
C514 C512 1.446 . S
C514 C515 1.332 1_655 S
C515 H495 0.931 . S
C515 C514 1.332 1_455 S
C515 C516 1.267 . S
C516 H484 0.929 . S
C516 C515 1.267 . S
C516 C517 1.251 . S
C517 H487 0.929 . S
C517 N513 1.418 1_455 S
C517 C516 1.251 . S
C518 H485 0.930 . S
C518 C520 1.406 . S
C518 C523 1.261 . S
C519 H486 0.930 . S
C519 N521 1.325 . S
C519 C522 1.357 . S
C520 H488 0.928 . S
C520 C518 1.406 . S
C520 N521 1.261 . S
N521 Co472 2.214 . S
N521 C519 1.325 . S
N521 C520 1.261 . S
C522 H492 0.931 . S
C522 C519 1.357 . S
C522 C523 1.312 . S
C523 H494 0.930 . S
C523 C518 1.261 . S
C523 C522 1.312 . S
C524 O496 1.214 . S
C524 O504 1.234 . S
C525 H497 0.929 . S
C525 C528 1.391 . S
C525 C530 1.391 . S
C526 H498 0.929 . S
C526 C527 1.390 . S
C526 N529 1.391 . S
C527 H499 0.930 . S
C527 C526 1.390 . S
C527 C528 1.392 . S
C528 H500 0.929 . S
C528 C525 1.391 . S
C528 C527 1.392 . S
N529 Co473 2.257 . S
N529 C526 1.391 . S
N529 C530 1.388 . S
C530 H501 0.930 . S
C530 C525 1.391 . S
C530 N529 1.388 . S
Co531 O533 2.143 . S
Co531 O539 2.074 . S
Co531 O542 2.093 . S
Co531 O555 2.097 . S
Co531 N572 2.151 . S
Co531 N580 2.214 . S
Co532 O533 2.160 . S
Co532 O538 2.058 . S
Co532 O548 2.057 . S
Co532 O563 2.037 . S
Co532 N567 2.145 . S
Co532 N588 2.257 . S
O533 Co531 2.143 . S
O533 Co532 2.160 . S
C534 O535 1.278 . S
C534 O542 1.224 . S
O535 C534 1.278 . S
C536 O537 1.245 . S
C536 O548 1.232 . S
O537 C536 1.245 . S
O538 Co532 2.058 . S
O538 C564 1.269 . S
O539 Co531 2.074 . S
O539 C564 1.257 . S
H540 C565 0.930 . S
H541 C571 0.930 . S
O542 Co531 2.093 . S
O542 C534 1.224 . S
H543 C575 0.929 . S
H544 C577 0.930 . S
H545 C578 0.930 . S
H546 C576 0.929 . S
H547 C579 0.928 . S
O548 Co532 2.057 . S
O548 C536 1.232 . S
H549 C568 0.929 . S
H550 C569 0.929 . S
H551 C581 0.931 . S
H552 C573 0.929 . S
H553 C582 0.930 . S
H554 C574 0.931 . S
O555 Co531 2.097 . S
O555 C583 1.214 . S
H556 C584 0.929 . S
H557 C585 0.929 . S
H558 C586 0.930 . S
H559 C587 0.929 . S
H560 C589 0.930 . S
H561 C566 0.930 . S
H562 C570 0.930 . S
O563 Co532 2.037 . S
O563 C583 1.234 . S
C564 O538 1.269 . S
C564 O539 1.257 . S
C565 H540 0.930 . S
C565 C568 1.388 . S
C565 C570 1.418 . S
C566 H561 0.930 . S
C566 C569 1.404 . S
C566 C570 1.353 . S
N567 Co532 2.145 . S
N567 C568 1.397 . S
N567 C569 1.334 . S
C568 H549 0.929 . S
C568 C565 1.388 . S
C568 N567 1.397 . S
C569 H550 0.929 . S
C569 C566 1.404 . S
C569 N567 1.334 . S
C570 H562 0.930 . S
C570 C565 1.418 . S
C570 C566 1.353 . S
C571 H541 0.930 . S
C571 N572 1.330 . S
C571 C573 1.446 . S
N572 Co531 2.151 . S
N572 C571 1.330 . S
N572 C576 1.418 . S
C573 H552 0.929 . S
C573 C571 1.446 . S
C573 C574 1.332 . S
C574 H554 0.931 . S
C574 C573 1.332 . S
C574 C575 1.267 . S
C575 H543 0.929 . S
C575 C574 1.267 . S
C575 C576 1.251 . S
C576 H546 0.929 . S
C576 N572 1.418 . S
C576 C575 1.251 . S
C577 H544 0.930 . S
C577 C579 1.406 . S
C577 C582 1.261 . S
C578 H545 0.930 . S
C578 N580 1.325 . S
C578 C581 1.357 . S
C579 H547 0.928 . S
C579 C577 1.406 . S
C579 N580 1.261 . S
N580 Co531 2.214 . S
N580 C578 1.325 . S
N580 C579 1.261 . S
C581 H551 0.931 . S
C581 C578 1.357 . S
C581 C582 1.312 . S
C582 H553 0.930 . S
C582 C577 1.261 . S
C582 C581 1.312 . S
C583 O555 1.214 . S
C583 O563 1.234 . S
C584 H556 0.929 . S
C584 C587 1.391 . S
C584 C589 1.391 . S
C585 H557 0.929 . S
C585 C586 1.390 . S
C585 N588 1.391 . S
C586 H558 0.930 . S
C586 C585 1.390 . S
C586 C587 1.392 . S
C587 H559 0.929 . S
C587 C584 1.391 . S
C587 C586 1.392 . S
N588 Co532 2.257 . S
N588 C585 1.391 . S
N588 C589 1.388 . S
C589 H560 0.930 . S
C589 C584 1.391 . S
C589 N588 1.388 . S
Co590 O592 2.143 . S
Co590 O598 2.074 . S
Co590 O601 2.093 . S
Co590 O614 2.097 . S
Co590 N631 2.151 . S
Co590 N639 2.214 . S
Co591 O592 2.160 . S
Co591 O597 2.058 . S
Co591 O607 2.057 . S
Co591 O622 2.037 . S
Co591 N626 2.145 . S
Co591 N647 2.257 . S
O592 Co590 2.143 . S
O592 Co591 2.160 . S
C593 O594 1.278 . S
C593 O601 1.224 . S
O594 C593 1.278 . S
C595 O596 1.245 . S
C595 O607 1.232 . S
O596 C595 1.245 . S
O597 Co591 2.058 . S
O597 C623 1.269 . S
O598 Co590 2.074 . S
O598 C623 1.257 . S
H599 C624 0.930 . S
H600 C630 0.930 . S
O601 Co590 2.093 . S
O601 C593 1.224 . S
H602 C634 0.929 . S
H603 C636 0.930 . S
H604 C637 0.930 . S
H605 C635 0.929 . S
H606 C638 0.928 . S
O607 Co591 2.057 . S
O607 C595 1.232 . S
H608 C627 0.929 . S
H609 C628 0.929 . S
H610 C640 0.931 . S
H611 C632 0.929 . S
H612 C641 0.930 . S
H613 C633 0.931 . S
O614 Co590 2.097 . S
O614 C642 1.214 . S
H615 C643 0.929 . S
H616 C644 0.929 . S
H617 C645 0.930 . S
H618 C646 0.929 . S
H619 C648 0.930 . S
H620 C625 0.930 . S
H621 C629 0.930 . S
O622 Co591 2.037 . S
O622 C642 1.234 . S
C623 O597 1.269 . S
C623 O598 1.257 . S
C624 H599 0.930 . S
C624 C627 1.388 . S
C624 C629 1.418 . S
C625 H620 0.930 . S
C625 C628 1.404 . S
C625 C629 1.353 . S
N626 Co591 2.145 . S
N626 C627 1.397 . S
N626 C628 1.334 . S
C627 H608 0.929 . S
C627 C624 1.388 . S
C627 N626 1.397 . S
C628 H609 0.929 . S
C628 C625 1.404 . S
C628 N626 1.334 . S
C629 H621 0.930 . S
C629 C624 1.418 . S
C629 C625 1.353 . S
C630 H600 0.930 . S
C630 N631 1.330 . S
C630 C632 1.446 . S
N631 Co590 2.151 . S
N631 C630 1.330 . S
N631 C635 1.418 . S
C632 H611 0.929 . S
C632 C630 1.446 . S
C632 C633 1.332 . S
C633 H613 0.931 . S
C633 C632 1.332 . S
C633 C634 1.267 . S
C634 H602 0.929 . S
C634 C633 1.267 . S
C634 C635 1.251 . S
C635 H605 0.929 . S
C635 N631 1.418 . S
C635 C634 1.251 . S
C636 H603 0.930 . S
C636 C638 1.406 . S
C636 C641 1.261 . S
C637 H604 0.930 . S
C637 N639 1.325 . S
C637 C640 1.357 . S
C638 H606 0.928 . S
C638 C636 1.406 . S
C638 N639 1.261 . S
N639 Co590 2.214 . S
N639 C637 1.325 . S
N639 C638 1.261 . S
C640 H610 0.931 . S
C640 C637 1.357 . S
C640 C641 1.312 . S
C641 H612 0.930 . S
C641 C636 1.261 . S
C641 C640 1.312 . S
C642 O614 1.214 . S
C642 O622 1.234 . S
C643 H615 0.929 . S
C643 C646 1.391 . S
C643 C648 1.391 . S
C644 H616 0.929 . S
C644 C645 1.390 . S
C644 N647 1.391 . S
C645 H617 0.930 . S
C645 C644 1.390 . S
C645 C646 1.392 . S
C646 H618 0.929 . S
C646 C643 1.391 . S
C646 C645 1.392 . S
N647 Co591 2.257 . S
N647 C644 1.391 . S
N647 C648 1.388 . S
C648 H619 0.930 . S
C648 C643 1.391 . S
C648 N647 1.388 . S
Co649 O651 2.143 . S
Co649 O657 2.074 . S
Co649 O660 2.093 1_556 S
Co649 O673 2.097 . S
Co649 N690 2.151 1_556 S
Co649 N698 2.214 . S
Co650 O651 2.160 . S
Co650 O656 2.058 . S
Co650 O666 2.057 . S
Co650 O681 2.037 . S
Co650 N685 2.145 . S
Co650 N706 2.257 . S
O651 Co649 2.143 . S
O651 Co650 2.160 . S
C652 O653 1.278 . S
C652 O660 1.224 . S
O653 C652 1.278 . S
C654 O655 1.245 . S
C654 O666 1.232 . S
O655 C654 1.245 . S
O656 Co650 2.058 . S
O656 C682 1.269 . S
O657 Co649 2.074 . S
O657 C682 1.257 . S
H658 C683 0.930 . S
H659 C689 0.930 . S
O660 Co649 2.093 1_554 S
O660 C652 1.224 . S
H661 C693 0.929 . S
H662 C695 0.930 . S
H663 C696 0.930 . S
H664 C694 0.929 1_556 S
H665 C697 0.928 . S
O666 Co650 2.057 . S
O666 C654 1.232 . S
H667 C686 0.929 . S
H668 C687 0.929 . S
H669 C699 0.931 . S
H670 C691 0.929 . S
H671 C700 0.930 . S
H672 C692 0.931 . S
O673 Co649 2.097 . S
O673 C701 1.214 . S
H674 C702 0.929 . S
H675 C703 0.929 . S
H676 C704 0.930 . S
H677 C705 0.929 . S
H678 C707 0.930 . S
H679 C684 0.930 . S
H680 C688 0.930 . S
O681 Co650 2.037 . S
O681 C701 1.234 . S
C682 O656 1.269 . S
C682 O657 1.257 . S
C683 H658 0.930 . S
C683 C686 1.388 . S
C683 C688 1.418 . S
C684 H679 0.930 . S
C684 C687 1.404 . S
C684 C688 1.353 . S
N685 Co650 2.145 . S
N685 C686 1.397 . S
N685 C687 1.334 . S
C686 H667 0.929 . S
C686 C683 1.388 . S
C686 N685 1.397 . S
C687 H668 0.929 . S
C687 C684 1.404 . S
C687 N685 1.334 . S
C688 H680 0.930 . S
C688 C683 1.418 . S
C688 C684 1.353 . S
C689 H659 0.930 . S
C689 N690 1.330 . S
C689 C691 1.446 . S
N690 Co649 2.151 1_554 S
N690 C689 1.330 . S
N690 C694 1.418 . S
C691 H670 0.929 . S
C691 C689 1.446 . S
C691 C692 1.332 . S
C692 H672 0.931 . S
C692 C691 1.332 . S
C692 C693 1.267 . S
C693 H661 0.929 . S
C693 C692 1.267 . S
C693 C694 1.251 . S
C694 H664 0.929 1_554 S
C694 N690 1.418 . S
C694 C693 1.251 . S
C695 H662 0.930 . S
C695 C697 1.406 . S
C695 C700 1.261 1_554 S
C696 H663 0.930 . S
C696 N698 1.325 . S
C696 C699 1.357 . S
C697 H665 0.928 . S
C697 C695 1.406 . S
C697 N698 1.261 1_554 S
N698 Co649 2.214 . S
N698 C696 1.325 . S
N698 C697 1.261 1_556 S
C699 H669 0.931 . S
C699 C696 1.357 . S
C699 C700 1.312 . S
C700 H671 0.930 . S
C700 C695 1.261 1_556 S
C700 C699 1.312 . S
C701 O673 1.214 . S
C701 O681 1.234 . S
C702 H674 0.929 . S
C702 C705 1.391 . S
C702 C707 1.391 . S
C703 H675 0.929 . S
C703 C704 1.390 . S
C703 N706 1.391 . S
C704 H676 0.930 . S
C704 C703 1.390 . S
C704 C705 1.392 . S
C705 H677 0.929 . S
C705 C702 1.391 . S
C705 C704 1.392 . S
N706 Co650 2.257 . S
N706 C703 1.391 . S
N706 C707 1.388 . S
C707 H678 0.930 . S
C707 C702 1.391 . S
C707 N706 1.388 . S
Co708 O710 2.143 . S
Co708 O716 2.074 . S
Co708 O719 2.093 . S
Co708 O732 2.097 . S
Co708 N749 2.151 . S
Co708 N757 2.214 . S
Co709 O710 2.160 . S
Co709 O715 2.058 . S
Co709 O725 2.057 . S
Co709 O740 2.037 . S
Co709 N744 2.145 . S
Co709 N765 2.257 . S
O710 Co708 2.143 . S
O710 Co709 2.160 . S
C711 O712 1.278 . S
C711 O719 1.224 . S
O712 C711 1.278 . S
C713 O714 1.245 . S
C713 O725 1.232 . S
O714 C713 1.245 . S
O715 Co709 2.058 . S
O715 C741 1.269 . S
O716 Co708 2.074 . S
O716 C741 1.257 . S
H717 C742 0.930 . S
H718 C748 0.930 . S
O719 Co708 2.093 . S
O719 C711 1.224 . S
H720 C752 0.929 . S
H721 C754 0.930 . S
H722 C755 0.930 . S
H723 C753 0.929 . S
H724 C756 0.928 . S
O725 Co709 2.057 . S
O725 C713 1.232 . S
H726 C745 0.929 . S
H727 C746 0.929 . S
H728 C758 0.931 . S
H729 C750 0.929 . S
H730 C759 0.930 . S
H731 C751 0.931 . S
O732 Co708 2.097 . S
O732 C760 1.214 . S
H733 C761 0.929 . S
H734 C762 0.929 . S
H735 C763 0.930 . S
H736 C764 0.929 . S
H737 C766 0.930 . S
H738 C743 0.930 . S
H739 C747 0.930 . S
O740 Co709 2.037 . S
O740 C760 1.234 . S
C741 O715 1.269 . S
C741 O716 1.257 . S
C742 H717 0.930 . S
C742 C745 1.388 . S
C742 C747 1.418 . S
C743 H738 0.930 . S
C743 C746 1.404 . S
C743 C747 1.353 . S
N744 Co709 2.145 . S
N744 C745 1.397 . S
N744 C746 1.334 . S
C745 H726 0.929 . S
C745 C742 1.388 . S
C745 N744 1.397 . S
C746 H727 0.929 . S
C746 C743 1.404 . S
C746 N744 1.334 . S
C747 H739 0.930 . S
C747 C742 1.418 . S
C747 C743 1.353 . S
C748 H718 0.930 . S
C748 N749 1.330 . S
C748 C750 1.446 . S
N749 Co708 2.151 . S
N749 C748 1.330 . S
N749 C753 1.418 1_655 S
C750 H729 0.929 . S
C750 C748 1.446 . S
C750 C751 1.332 1_655 S
C751 H731 0.931 . S
C751 C750 1.332 1_455 S
C751 C752 1.267 . S
C752 H720 0.929 . S
C752 C751 1.267 . S
C752 C753 1.251 . S
C753 H723 0.929 . S
C753 N749 1.418 1_455 S
C753 C752 1.251 . S
C754 H721 0.930 . S
C754 C756 1.406 . S
C754 C759 1.261 . S
C755 H722 0.930 . S
C755 N757 1.325 . S
C755 C758 1.357 . S
C756 H724 0.928 . S
C756 C754 1.406 . S
C756 N757 1.261 . S
N757 Co708 2.214 . S
N757 C755 1.325 . S
N757 C756 1.261 . S
C758 H728 0.931 . S
C758 C755 1.357 . S
C758 C759 1.312 . S
C759 H730 0.930 . S
C759 C754 1.261 . S
C759 C758 1.312 . S
C760 O732 1.214 . S
C760 O740 1.234 . S
C761 H733 0.929 . S
C761 C764 1.391 . S
C761 C766 1.391 . S
C762 H734 0.929 . S
C762 C763 1.390 . S
C762 N765 1.391 . S
C763 H735 0.930 . S
C763 C762 1.390 . S
C763 C764 1.392 . S
C764 H736 0.929 . S
C764 C761 1.391 . S
C764 C763 1.392 . S
N765 Co709 2.257 . S
N765 C762 1.391 . S
N765 C766 1.388 . S
C766 H737 0.930 . S
C766 C761 1.391 . S
C766 N765 1.388 . S
Co767 O769 2.143 . S
Co767 O775 2.074 . S
Co767 O778 2.093 . S
Co767 O791 2.097 . S
Co767 N808 2.151 . S
Co767 N816 2.214 . S
Co768 O769 2.160 . S
Co768 O774 2.058 . S
Co768 O784 2.057 . S
Co768 O799 2.037 . S
Co768 N803 2.145 . S
Co768 N824 2.257 . S
O769 Co767 2.143 . S
O769 Co768 2.160 . S
C770 O771 1.278 . S
C770 O778 1.224 . S
O771 C770 1.278 . S
C772 O773 1.245 . S
C772 O784 1.232 . S
O773 C772 1.245 . S
O774 Co768 2.058 . S
O774 C800 1.269 . S
O775 Co767 2.074 . S
O775 C800 1.257 . S
H776 C801 0.930 . S
H777 C807 0.930 . S
O778 Co767 2.093 . S
O778 C770 1.224 . S
H779 C811 0.929 . S
H780 C813 0.930 . S
H781 C814 0.930 . S
H782 C812 0.929 . S
H783 C815 0.928 . S
O784 Co768 2.057 . S
O784 C772 1.232 . S
H785 C804 0.929 . S
H786 C805 0.929 . S
H787 C817 0.931 . S
H788 C809 0.929 . S
H789 C818 0.930 . S
H790 C810 0.931 . S
O791 Co767 2.097 . S
O791 C819 1.214 . S
H792 C820 0.929 . S
H793 C821 0.929 . S
H794 C822 0.930 . S
H795 C823 0.929 . S
H796 C825 0.930 . S
H797 C802 0.930 . S
H798 C806 0.930 . S
O799 Co768 2.037 . S
O799 C819 1.234 . S
C800 O774 1.269 . S
C800 O775 1.257 . S
C801 H776 0.930 . S
C801 C804 1.388 . S
C801 C806 1.418 . S
C802 H797 0.930 . S
C802 C805 1.404 . S
C802 C806 1.353 . S
N803 Co768 2.145 . S
N803 C804 1.397 . S
N803 C805 1.334 . S
C804 H785 0.929 . S
C804 C801 1.388 . S
C804 N803 1.397 . S
C805 H786 0.929 . S
C805 C802 1.404 . S
C805 N803 1.334 . S
C806 H798 0.930 . S
C806 C801 1.418 . S
C806 C802 1.353 . S
C807 H777 0.930 . S
C807 N808 1.330 . S
C807 C809 1.446 . S
N808 Co767 2.151 . S
N808 C807 1.330 . S
N808 C812 1.418 . S
C809 H788 0.929 . S
C809 C807 1.446 . S
C809 C810 1.332 . S
C810 H790 0.931 . S
C810 C809 1.332 . S
C810 C811 1.267 . S
C811 H779 0.929 . S
C811 C810 1.267 . S
C811 C812 1.251 . S
C812 H782 0.929 . S
C812 N808 1.418 . S
C812 C811 1.251 . S
C813 H780 0.930 . S
C813 C815 1.406 . S
C813 C818 1.261 . S
C814 H781 0.930 . S
C814 N816 1.325 . S
C814 C817 1.357 . S
C815 H783 0.928 . S
C815 C813 1.406 . S
C815 N816 1.261 . S
N816 Co767 2.214 . S
N816 C814 1.325 . S
N816 C815 1.261 . S
C817 H787 0.931 . S
C817 C814 1.357 . S
C817 C818 1.312 . S
C818 H789 0.930 . S
C818 C813 1.261 . S
C818 C817 1.312 . S
C819 O791 1.214 . S
C819 O799 1.234 . S
C820 H792 0.929 . S
C820 C823 1.391 . S
C820 C825 1.391 . S
C821 H793 0.929 . S
C821 C822 1.390 . S
C821 N824 1.391 . S
C822 H794 0.930 . S
C822 C821 1.390 . S
C822 C823 1.392 . S
C823 H795 0.929 . S
C823 C820 1.391 . S
C823 C822 1.392 . S
N824 Co768 2.257 . S
N824 C821 1.391 . S
N824 C825 1.388 . S
C825 H796 0.930 . S
C825 C820 1.391 . S
C825 N824 1.388 . S
Co826 O828 2.143 . S
Co826 O834 2.074 . S
Co826 O837 2.093 . S
Co826 O850 2.097 . S
Co826 N867 2.151 . S
Co826 N875 2.214 . S
Co827 O828 2.160 . S
Co827 O833 2.058 . S
Co827 O843 2.057 . S
Co827 O858 2.037 . S
Co827 N862 2.145 . S
Co827 N883 2.257 . S
O828 Co826 2.143 . S
O828 Co827 2.160 . S
C829 O830 1.278 . S
C829 O837 1.224 . S
O830 C829 1.278 . S
C831 O832 1.245 . S
C831 O843 1.232 . S
O832 C831 1.245 . S
O833 Co827 2.058 . S
O833 C859 1.269 . S
O834 Co826 2.074 . S
O834 C859 1.257 . S
H835 C860 0.930 . S
H836 C866 0.930 . S
O837 Co826 2.093 . S
O837 C829 1.224 . S
H838 C870 0.929 . S
H839 C872 0.930 . S
H840 C873 0.930 . S
H841 C871 0.929 . S
H842 C874 0.928 . S
O843 Co827 2.057 . S
O843 C831 1.232 . S
H844 C863 0.929 . S
H845 C864 0.929 . S
H846 C876 0.931 . S
H847 C868 0.929 . S
H848 C877 0.930 . S
H849 C869 0.931 . S
O850 Co826 2.097 . S
O850 C878 1.214 . S
H851 C879 0.929 . S
H852 C880 0.929 . S
H853 C881 0.930 . S
H854 C882 0.929 . S
H855 C884 0.930 . S
H856 C861 0.930 . S
H857 C865 0.930 . S
O858 Co827 2.037 . S
O858 C878 1.234 . S
C859 O833 1.269 . S
C859 O834 1.257 . S
C860 H835 0.930 . S
C860 C863 1.388 . S
C860 C865 1.418 . S
C861 H856 0.930 . S
C861 C864 1.404 . S
C861 C865 1.353 . S
N862 Co827 2.145 . S
N862 C863 1.397 . S
N862 C864 1.334 . S
C863 H844 0.929 . S
C863 C860 1.388 . S
C863 N862 1.397 . S
C864 H845 0.929 . S
C864 C861 1.404 . S
C864 N862 1.334 . S
C865 H857 0.930 . S
C865 C860 1.418 . S
C865 C861 1.353 . S
C866 H836 0.930 . S
C866 N867 1.330 . S
C866 C868 1.446 . S
N867 Co826 2.151 . S
N867 C866 1.330 . S
N867 C871 1.418 . S
C868 H847 0.929 . S
C868 C866 1.446 . S
C868 C869 1.332 . S
C869 H849 0.931 . S
C869 C868 1.332 . S
C869 C870 1.267 . S
C870 H838 0.929 . S
C870 C869 1.267 . S
C870 C871 1.251 . S
C871 H841 0.929 . S
C871 N867 1.418 . S
C871 C870 1.251 . S
C872 H839 0.930 . S
C872 C874 1.406 . S
C872 C877 1.261 . S
C873 H840 0.930 . S
C873 N875 1.325 . S
C873 C876 1.357 . S
C874 H842 0.928 . S
C874 C872 1.406 . S
C874 N875 1.261 . S
N875 Co826 2.214 . S
N875 C873 1.325 . S
N875 C874 1.261 . S
C876 H846 0.931 . S
C876 C873 1.357 . S
C876 C877 1.312 . S
C877 H848 0.930 . S
C877 C872 1.261 . S
C877 C876 1.312 . S
C878 O850 1.214 . S
C878 O858 1.234 . S
C879 H851 0.929 . S
C879 C882 1.391 . S
C879 C884 1.391 . S
C880 H852 0.929 . S
C880 C881 1.390 . S
C880 N883 1.391 . S
C881 H853 0.930 . S
C881 C880 1.390 . S
C881 C882 1.392 . S
C882 H854 0.929 . S
C882 C879 1.391 . S
C882 C881 1.392 . S
N883 Co827 2.257 . S
N883 C880 1.391 . S
N883 C884 1.388 . S
C884 H855 0.930 . S
C884 C879 1.391 . S
C884 N883 1.388 . S
Co885 O887 2.143 . S
Co885 O893 2.074 . S
Co885 O896 2.093 1_554 S
Co885 O909 2.097 . S
Co885 N926 2.151 1_554 S
Co885 N934 2.214 . S
Co886 O887 2.160 . S
Co886 O892 2.058 . S
Co886 O902 2.057 . S
Co886 O917 2.037 . S
Co886 N921 2.145 . S
Co886 N942 2.257 . S
O887 Co885 2.143 . S
O887 Co886 2.160 . S
C888 O889 1.278 . S
C888 O896 1.224 . S
O889 C888 1.278 . S
C890 O891 1.245 . S
C890 O902 1.232 . S
O891 C890 1.245 . S
O892 Co886 2.058 . S
O892 C918 1.269 . S
O893 Co885 2.074 . S
O893 C918 1.257 . S
H894 C919 0.930 . S
H895 C925 0.930 . S
O896 Co885 2.093 1_556 S
O896 C888 1.224 . S
H897 C929 0.929 . S
H898 C931 0.930 . S
H899 C932 0.930 . S
H900 C930 0.929 1_554 S
H901 C933 0.928 . S
O902 Co886 2.057 . S
O902 C890 1.232 . S
H903 C922 0.929 . S
H904 C923 0.929 . S
H905 C935 0.931 . S
H906 C927 0.929 . S
H907 C936 0.930 . S
H908 C928 0.931 . S
O909 Co885 2.097 . S
O909 C937 1.214 . S
H910 C938 0.929 . S
H911 C939 0.929 . S
H912 C940 0.930 . S
H913 C941 0.929 . S
H914 C943 0.930 . S
H915 C920 0.930 . S
H916 C924 0.930 . S
O917 Co886 2.037 . S
O917 C937 1.234 . S
C918 O892 1.269 . S
C918 O893 1.257 . S
C919 H894 0.930 . S
C919 C922 1.388 . S
C919 C924 1.418 . S
C920 H915 0.930 . S
C920 C923 1.404 . S
C920 C924 1.353 . S
N921 Co886 2.145 . S
N921 C922 1.397 . S
N921 C923 1.334 . S
C922 H903 0.929 . S
C922 C919 1.388 . S
C922 N921 1.397 . S
C923 H904 0.929 . S
C923 C920 1.404 . S
C923 N921 1.334 . S
C924 H916 0.930 . S
C924 C919 1.418 . S
C924 C920 1.353 . S
C925 H895 0.930 . S
C925 N926 1.330 . S
C925 C927 1.446 . S
N926 Co885 2.151 1_556 S
N926 C925 1.330 . S
N926 C930 1.418 . S
C927 H906 0.929 . S
C927 C925 1.446 . S
C927 C928 1.332 . S
C928 H908 0.931 . S
C928 C927 1.332 . S
C928 C929 1.267 . S
C929 H897 0.929 . S
C929 C928 1.267 . S
C929 C930 1.251 . S
C930 H900 0.929 1_556 S
C930 N926 1.418 . S
C930 C929 1.251 . S
C931 H898 0.930 . S
C931 C933 1.406 . S
C931 C936 1.261 1_556 S
C932 H899 0.930 . S
C932 N934 1.325 . S
C932 C935 1.357 . S
C933 H901 0.928 . S
C933 C931 1.406 . S
C933 N934 1.261 1_556 S
N934 Co885 2.214 . S
N934 C932 1.325 . S
N934 C933 1.261 1_554 S
C935 H905 0.931 . S
C935 C932 1.357 . S
C935 C936 1.312 . S
C936 H907 0.930 . S
C936 C931 1.261 1_554 S
C936 C935 1.312 . S
C937 O909 1.214 . S
C937 O917 1.234 . S
C938 H910 0.929 . S
C938 C941 1.391 . S
C938 C943 1.391 . S
C939 H911 0.929 . S
C939 C940 1.390 . S
C939 N942 1.391 . S
C940 H912 0.930 . S
C940 C939 1.390 . S
C940 C941 1.392 . S
C941 H913 0.929 . S
C941 C938 1.391 . S
C941 C940 1.392 . S
N942 Co886 2.257 . S
N942 C939 1.391 . S
N942 C943 1.388 . S
C943 H914 0.930 . S
C943 C938 1.391 . S
C943 N942 1.388 . S
Co944 O946 2.143 . S
Co944 O952 2.074 . S
Co944 O955 2.093 . S
Co944 O968 2.097 . S
Co944 N985 2.151 . S
Co944 N993 2.214 . S
Co945 O946 2.160 . S
Co945 O951 2.058 . S
Co945 O961 2.057 . S
Co945 O976 2.037 . S
Co945 N980 2.145 . S
Co945 N1001 2.257 . S
O946 Co944 2.143 . S
O946 Co945 2.160 . S
C947 O948 1.278 . S
C947 O955 1.224 . S
O948 C947 1.278 . S
C949 O950 1.245 . S
C949 O961 1.232 . S
O950 C949 1.245 . S
O951 Co945 2.058 . S
O951 C977 1.269 . S
O952 Co944 2.074 . S
O952 C977 1.257 . S
H953 C978 0.930 . S
H954 C984 0.930 . S
O955 Co944 2.093 . S
O955 C947 1.224 . S
H956 C988 0.929 . S
H957 C990 0.930 . S
H958 C991 0.930 . S
H959 C989 0.929 . S
H960 C992 0.928 . S
O961 Co945 2.057 . S
O961 C949 1.232 . S
H962 C981 0.929 . S
H963 C982 0.929 . S
H964 C994 0.931 . S
H965 C986 0.929 . S
H966 C995 0.930 . S
H967 C987 0.931 . S
O968 Co944 2.097 . S
O968 C996 1.214 . S
H969 C997 0.929 . S
H970 C998 0.929 . S
H971 C999 0.930 . S
H972 C1000 0.929 . S
H973 C1002 0.930 . S
H974 C979 0.930 . S
H975 C983 0.930 . S
O976 Co945 2.037 . S
O976 C996 1.234 . S
C977 O951 1.269 . S
C977 O952 1.257 . S
C978 H953 0.930 . S
C978 C981 1.388 . S
C978 C983 1.418 . S
C979 H974 0.930 . S
C979 C982 1.404 . S
C979 C983 1.353 . S
N980 Co945 2.145 . S
N980 C981 1.397 . S
N980 C982 1.334 . S
C981 H962 0.929 . S
C981 C978 1.388 . S
C981 N980 1.397 . S
C982 H963 0.929 . S
C982 C979 1.404 . S
C982 N980 1.334 . S
C983 H975 0.930 . S
C983 C978 1.418 . S
C983 C979 1.353 . S
C984 H954 0.930 . S
C984 N985 1.330 . S
C984 C986 1.446 . S
N985 Co944 2.151 . S
N985 C984 1.330 . S
N985 C989 1.418 . S
C986 H965 0.929 . S
C986 C984 1.446 . S
C986 C987 1.332 . S
C987 H967 0.931 . S
C987 C986 1.332 . S
C987 C988 1.267 . S
C988 H956 0.929 . S
C988 C987 1.267 . S
C988 C989 1.251 . S
C989 H959 0.929 . S
C989 N985 1.418 . S
C989 C988 1.251 . S
C990 H957 0.930 . S
C990 C992 1.406 . S
C990 C995 1.261 . S
C991 H958 0.930 . S
C991 N993 1.325 . S
C991 C994 1.357 . S
C992 H960 0.928 . S
C992 C990 1.406 . S
C992 N993 1.261 . S
N993 Co944 2.214 . S
N993 C991 1.325 . S
N993 C992 1.261 . S
C994 H964 0.931 . S
C994 C991 1.357 . S
C994 C995 1.312 . S
C995 H966 0.930 . S
C995 C990 1.261 . S
C995 C994 1.312 . S
C996 O968 1.214 . S
C996 O976 1.234 . S
C997 H969 0.929 . S
C997 C1000 1.391 . S
C997 C1002 1.391 . S
C998 H970 0.929 . S
C998 C999 1.390 . S
C998 N1001 1.391 . S
C999 H971 0.930 . S
C999 C998 1.390 . S
C999 C1000 1.392 . S
C1000 H972 0.929 . S
C1000 C997 1.391 . S
C1000 C999 1.392 . S
N1001 Co945 2.257 . S
N1001 C998 1.391 . S
N1001 C1002 1.388 . S
C1002 H973 0.930 . S
C1002 C997 1.391 . S
C1002 N1001 1.388 . S
Co1003 O1005 2.143 . S
Co1003 O1011 2.074 . S
Co1003 O1014 2.093 1_554 S
Co1003 O1027 2.097 . S
Co1003 N1044 2.151 1_554 S
Co1003 N1052 2.214 . S
Co1004 O1005 2.160 . S
Co1004 O1010 2.058 . S
Co1004 O1020 2.057 . S
Co1004 O1035 2.037 . S
Co1004 N1039 2.145 . S
Co1004 N1060 2.257 . S
O1005 Co1003 2.143 . S
O1005 Co1004 2.160 . S
C1006 O1007 1.278 . S
C1006 O1014 1.224 . S
O1007 C1006 1.278 . S
C1008 O1009 1.245 . S
C1008 O1020 1.232 . S
O1009 C1008 1.245 . S
O1010 Co1004 2.058 . S
O1010 C1036 1.269 . S
O1011 Co1003 2.074 . S
O1011 C1036 1.257 . S
H1012 C1037 0.930 . S
H1013 C1043 0.930 . S
O1014 Co1003 2.093 1_556 S
O1014 C1006 1.224 . S
H1015 C1047 0.929 . S
H1016 C1049 0.930 . S
H1017 C1050 0.930 . S
H1018 C1048 0.929 1_554 S
H1019 C1051 0.928 . S
O1020 Co1004 2.057 . S
O1020 C1008 1.232 . S
H1021 C1040 0.929 . S
H1022 C1041 0.929 . S
H1023 C1053 0.931 . S
H1024 C1045 0.929 . S
H1025 C1054 0.930 . S
H1026 C1046 0.931 . S
O1027 Co1003 2.097 . S
O1027 C1055 1.214 . S
H1028 C1056 0.929 . S
H1029 C1057 0.929 . S
H1030 C1058 0.930 . S
H1031 C1059 0.929 . S
H1032 C1061 0.930 . S
H1033 C1038 0.930 . S
H1034 C1042 0.930 . S
O1035 Co1004 2.037 . S
O1035 C1055 1.234 . S
C1036 O1010 1.269 . S
C1036 O1011 1.257 . S
C1037 H1012 0.930 . S
C1037 C1040 1.388 . S
C1037 C1042 1.418 . S
C1038 H1033 0.930 . S
C1038 C1041 1.404 . S
C1038 C1042 1.353 . S
N1039 Co1004 2.145 . S
N1039 C1040 1.397 . S
N1039 C1041 1.334 . S
C1040 H1021 0.929 . S
C1040 C1037 1.388 . S
C1040 N1039 1.397 . S
C1041 H1022 0.929 . S
C1041 C1038 1.404 . S
C1041 N1039 1.334 . S
C1042 H1034 0.930 . S
C1042 C1037 1.418 . S
C1042 C1038 1.353 . S
C1043 H1013 0.930 . S
C1043 N1044 1.330 . S
C1043 C1045 1.446 . S
N1044 Co1003 2.151 1_556 S
N1044 C1043 1.330 . S
N1044 C1048 1.418 . S
C1045 H1024 0.929 . S
C1045 C1043 1.446 . S
C1045 C1046 1.332 . S
C1046 H1026 0.931 . S
C1046 C1045 1.332 . S
C1046 C1047 1.267 . S
C1047 H1015 0.929 . S
C1047 C1046 1.267 . S
C1047 C1048 1.251 . S
C1048 H1018 0.929 1_556 S
C1048 N1044 1.418 . S
C1048 C1047 1.251 . S
C1049 H1016 0.930 . S
C1049 C1051 1.406 . S
C1049 C1054 1.261 1_556 S
C1050 H1017 0.930 . S
C1050 N1052 1.325 . S
C1050 C1053 1.357 . S
C1051 H1019 0.928 . S
C1051 C1049 1.406 . S
C1051 N1052 1.261 1_556 S
N1052 Co1003 2.214 . S
N1052 C1050 1.325 . S
N1052 C1051 1.261 1_554 S
C1053 H1023 0.931 . S
C1053 C1050 1.357 . S
C1053 C1054 1.312 . S
C1054 H1025 0.930 . S
C1054 C1049 1.261 1_554 S
C1054 C1053 1.312 . S
C1055 O1027 1.214 . S
C1055 O1035 1.234 . S
C1056 H1028 0.929 . S
C1056 C1059 1.391 . S
C1056 C1061 1.391 . S
C1057 H1029 0.929 . S
C1057 C1058 1.390 . S
C1057 N1060 1.391 . S
C1058 H1030 0.930 . S
C1058 C1057 1.390 . S
C1058 C1059 1.392 . S
C1059 H1031 0.929 . S
C1059 C1056 1.391 . S
C1059 C1058 1.392 . S
N1060 Co1004 2.257 . S
N1060 C1057 1.391 . S
N1060 C1061 1.388 . S
C1061 H1032 0.930 . S
C1061 C1056 1.391 . S
C1061 N1060 1.388 . S
Co1062 O1064 2.143 . S
Co1062 O1070 2.074 . S
Co1062 O1073 2.093 . S
Co1062 O1086 2.097 . S
Co1062 N1103 2.151 . S
Co1062 N1111 2.214 . S
Co1063 O1064 2.160 . S
Co1063 O1069 2.058 . S
Co1063 O1079 2.057 . S
Co1063 O1094 2.037 . S
Co1063 N1098 2.145 . S
Co1063 N1119 2.257 . S
O1064 Co1062 2.143 . S
O1064 Co1063 2.160 . S
C1065 O1066 1.278 . S
C1065 O1073 1.224 . S
O1066 C1065 1.278 . S
C1067 O1068 1.245 . S
C1067 O1079 1.232 . S
O1068 C1067 1.245 . S
O1069 Co1063 2.058 . S
O1069 C1095 1.269 . S
O1070 Co1062 2.074 . S
O1070 C1095 1.257 . S
H1071 C1096 0.930 . S
H1072 C1102 0.930 . S
O1073 Co1062 2.093 . S
O1073 C1065 1.224 . S
H1074 C1106 0.929 . S
H1075 C1108 0.930 . S
H1076 C1109 0.930 . S
H1077 C1107 0.929 . S
H1078 C1110 0.928 . S
O1079 Co1063 2.057 . S
O1079 C1067 1.232 . S
H1080 C1099 0.929 . S
H1081 C1100 0.929 . S
H1082 C1112 0.931 . S
H1083 C1104 0.929 . S
H1084 C1113 0.930 . S
H1085 C1105 0.931 . S
O1086 Co1062 2.097 . S
O1086 C1114 1.214 . S
H1087 C1115 0.929 . S
H1088 C1116 0.929 . S
H1089 C1117 0.930 . S
H1090 C1118 0.929 . S
H1091 C1120 0.930 . S
H1092 C1097 0.930 . S
H1093 C1101 0.930 . S
O1094 Co1063 2.037 . S
O1094 C1114 1.234 . S
C1095 O1069 1.269 . S
C1095 O1070 1.257 . S
C1096 H1071 0.930 . S
C1096 C1099 1.388 . S
C1096 C1101 1.418 . S
C1097 H1092 0.930 . S
C1097 C1100 1.404 . S
C1097 C1101 1.353 . S
N1098 Co1063 2.145 . S
N1098 C1099 1.397 . S
N1098 C1100 1.334 . S
C1099 H1080 0.929 . S
C1099 C1096 1.388 . S
C1099 N1098 1.397 . S
C1100 H1081 0.929 . S
C1100 C1097 1.404 . S
C1100 N1098 1.334 . S
C1101 H1093 0.930 . S
C1101 C1096 1.418 . S
C1101 C1097 1.353 . S
C1102 H1072 0.930 . S
C1102 N1103 1.330 . S
C1102 C1104 1.446 . S
N1103 Co1062 2.151 . S
N1103 C1102 1.330 . S
N1103 C1107 1.418 1_655 S
C1104 H1083 0.929 . S
C1104 C1102 1.446 . S
C1104 C1105 1.332 1_655 S
C1105 H1085 0.931 . S
C1105 C1104 1.332 1_455 S
C1105 C1106 1.267 . S
C1106 H1074 0.929 . S
C1106 C1105 1.267 . S
C1106 C1107 1.251 . S
C1107 H1077 0.929 . S
C1107 N1103 1.418 1_455 S
C1107 C1106 1.251 . S
C1108 H1075 0.930 . S
C1108 C1110 1.406 . S
C1108 C1113 1.261 . S
C1109 H1076 0.930 . S
C1109 N1111 1.325 . S
C1109 C1112 1.357 . S
C1110 H1078 0.928 . S
C1110 C1108 1.406 . S
C1110 N1111 1.261 . S
N1111 Co1062 2.214 . S
N1111 C1109 1.325 . S
N1111 C1110 1.261 . S
C1112 H1082 0.931 . S
C1112 C1109 1.357 . S
C1112 C1113 1.312 . S
C1113 H1084 0.930 . S
C1113 C1108 1.261 . S
C1113 C1112 1.312 . S
C1114 O1086 1.214 . S
C1114 O1094 1.234 . S
C1115 H1087 0.929 . S
C1115 C1118 1.391 . S
C1115 C1120 1.391 . S
C1116 H1088 0.929 . S
C1116 C1117 1.390 . S
C1116 N1119 1.391 . S
C1117 H1089 0.930 . S
C1117 C1116 1.390 . S
C1117 C1118 1.392 . S
C1118 H1090 0.929 . S
C1118 C1115 1.391 . S
C1118 C1117 1.392 . S
N1119 Co1063 2.257 . S
N1119 C1116 1.391 . S
N1119 C1120 1.388 . S
C1120 H1091 0.930 . S
C1120 C1115 1.391 . S
C1120 N1119 1.388 . S
Co1121 O1123 2.143 . S
Co1121 O1129 2.074 . S
Co1121 O1132 2.093 . S
Co1121 O1145 2.097 . S
Co1121 N1162 2.151 . S
Co1121 N1170 2.214 . S
Co1122 O1123 2.160 . S
Co1122 O1128 2.058 . S
Co1122 O1138 2.057 . S
Co1122 O1153 2.037 . S
Co1122 N1157 2.145 . S
Co1122 N1178 2.257 . S
O1123 Co1121 2.143 . S
O1123 Co1122 2.160 . S
C1124 O1125 1.278 . S
C1124 O1132 1.224 . S
O1125 C1124 1.278 . S
C1126 O1127 1.245 . S
C1126 O1138 1.232 . S
O1127 C1126 1.245 . S
O1128 Co1122 2.058 . S
O1128 C1154 1.269 . S
O1129 Co1121 2.074 . S
O1129 C1154 1.257 . S
H1130 C1155 0.930 . S
H1131 C1161 0.930 . S
O1132 Co1121 2.093 . S
O1132 C1124 1.224 . S
H1133 C1165 0.929 . S
H1134 C1167 0.930 . S
H1135 C1168 0.930 . S
H1136 C1166 0.929 . S
H1137 C1169 0.928 . S
O1138 Co1122 2.057 . S
O1138 C1126 1.232 . S
H1139 C1158 0.929 . S
H1140 C1159 0.929 . S
H1141 C1171 0.931 . S
H1142 C1163 0.929 . S
H1143 C1172 0.930 . S
H1144 C1164 0.931 . S
O1145 Co1121 2.097 . S
O1145 C1173 1.214 . S
H1146 C1174 0.929 . S
H1147 C1175 0.929 . S
H1148 C1176 0.930 . S
H1149 C1177 0.929 . S
H1150 C1179 0.930 . S
H1151 C1156 0.930 . S
H1152 C1160 0.930 . S
O1153 Co1122 2.037 . S
O1153 C1173 1.234 . S
C1154 O1128 1.269 . S
C1154 O1129 1.257 . S
C1155 H1130 0.930 . S
C1155 C1158 1.388 . S
C1155 C1160 1.418 . S
C1156 H1151 0.930 . S
C1156 C1159 1.404 . S
C1156 C1160 1.353 . S
N1157 Co1122 2.145 . S
N1157 C1158 1.397 . S
N1157 C1159 1.334 . S
C1158 H1139 0.929 . S
C1158 C1155 1.388 . S
C1158 N1157 1.397 . S
C1159 H1140 0.929 . S
C1159 C1156 1.404 . S
C1159 N1157 1.334 . S
C1160 H1152 0.930 . S
C1160 C1155 1.418 . S
C1160 C1156 1.353 . S
C1161 H1131 0.930 . S
C1161 N1162 1.330 . S
C1161 C1163 1.446 . S
N1162 Co1121 2.151 . S
N1162 C1161 1.330 . S
N1162 C1166 1.418 . S
C1163 H1142 0.929 . S
C1163 C1161 1.446 . S
C1163 C1164 1.332 . S
C1164 H1144 0.931 . S
C1164 C1163 1.332 . S
C1164 C1165 1.267 . S
C1165 H1133 0.929 . S
C1165 C1164 1.267 . S
C1165 C1166 1.251 . S
C1166 H1136 0.929 . S
C1166 N1162 1.418 . S
C1166 C1165 1.251 . S
C1167 H1134 0.930 . S
C1167 C1169 1.406 . S
C1167 C1172 1.261 . S
C1168 H1135 0.930 . S
C1168 N1170 1.325 . S
C1168 C1171 1.357 . S
C1169 H1137 0.928 . S
C1169 C1167 1.406 . S
C1169 N1170 1.261 . S
N1170 Co1121 2.214 . S
N1170 C1168 1.325 . S
N1170 C1169 1.261 . S
C1171 H1141 0.931 . S
C1171 C1168 1.357 . S
C1171 C1172 1.312 . S
C1172 H1143 0.930 . S
C1172 C1167 1.261 . S
C1172 C1171 1.312 . S
C1173 O1145 1.214 . S
C1173 O1153 1.234 . S
C1174 H1146 0.929 . S
C1174 C1177 1.391 . S
C1174 C1179 1.391 . S
C1175 H1147 0.929 . S
C1175 C1176 1.390 . S
C1175 N1178 1.391 . S
C1176 H1148 0.930 . S
C1176 C1175 1.390 . S
C1176 C1177 1.392 . S
C1177 H1149 0.929 . S
C1177 C1174 1.391 . S
C1177 C1176 1.392 . S
N1178 Co1122 2.257 . S
N1178 C1175 1.391 . S
N1178 C1179 1.388 . S
C1179 H1150 0.930 . S
C1179 C1174 1.391 . S
C1179 N1178 1.388 . S
Co1180 O1182 2.143 . S
Co1180 O1188 2.074 . S
Co1180 O1191 2.093 . S
Co1180 O1204 2.097 . S
Co1180 N1221 2.151 . S
Co1180 N1229 2.214 . S
Co1181 O1182 2.160 . S
Co1181 O1187 2.058 . S
Co1181 O1197 2.057 . S
Co1181 O1212 2.037 . S
Co1181 N1216 2.145 . S
Co1181 N1237 2.257 . S
O1182 Co1180 2.143 . S
O1182 Co1181 2.160 . S
C1183 O1184 1.278 . S
C1183 O1191 1.224 . S
O1184 C1183 1.278 . S
C1185 O1186 1.245 . S
C1185 O1197 1.232 . S
O1186 C1185 1.245 . S
O1187 Co1181 2.058 . S
O1187 C1213 1.269 . S
O1188 Co1180 2.074 . S
O1188 C1213 1.257 . S
H1189 C1214 0.930 . S
H1190 C1220 0.930 . S
O1191 Co1180 2.093 . S
O1191 C1183 1.224 . S
H1192 C1224 0.929 . S
H1193 C1226 0.930 . S
H1194 C1227 0.930 . S
H1195 C1225 0.929 . S
H1196 C1228 0.928 . S
O1197 Co1181 2.057 . S
O1197 C1185 1.232 . S
H1198 C1217 0.929 . S
H1199 C1218 0.929 . S
H1200 C1230 0.931 . S
H1201 C1222 0.929 . S
H1202 C1231 0.930 . S
H1203 C1223 0.931 . S
O1204 Co1180 2.097 . S
O1204 C1232 1.214 . S
H1205 C1233 0.929 . S
H1206 C1234 0.929 . S
H1207 C1235 0.930 . S
H1208 C1236 0.929 . S
H1209 C1238 0.930 . S
H1210 C1215 0.930 . S
H1211 C1219 0.930 . S
O1212 Co1181 2.037 . S
O1212 C1232 1.234 . S
C1213 O1187 1.269 . S
C1213 O1188 1.257 . S
C1214 H1189 0.930 . S
C1214 C1217 1.388 . S
C1214 C1219 1.418 . S
C1215 H1210 0.930 . S
C1215 C1218 1.404 . S
C1215 C1219 1.353 . S
N1216 Co1181 2.145 . S
N1216 C1217 1.397 . S
N1216 C1218 1.334 . S
C1217 H1198 0.929 . S
C1217 C1214 1.388 . S
C1217 N1216 1.397 . S
C1218 H1199 0.929 . S
C1218 C1215 1.404 . S
C1218 N1216 1.334 . S
C1219 H1211 0.930 . S
C1219 C1214 1.418 . S
C1219 C1215 1.353 . S
C1220 H1190 0.930 . S
C1220 N1221 1.330 . S
C1220 C1222 1.446 . S
N1221 Co1180 2.151 . S
N1221 C1220 1.330 . S
N1221 C1225 1.418 . S
C1222 H1201 0.929 . S
C1222 C1220 1.446 . S
C1222 C1223 1.332 . S
C1223 H1203 0.931 . S
C1223 C1222 1.332 . S
C1223 C1224 1.267 . S
C1224 H1192 0.929 . S
C1224 C1223 1.267 . S
C1224 C1225 1.251 . S
C1225 H1195 0.929 . S
C1225 N1221 1.418 . S
C1225 C1224 1.251 . S
C1226 H1193 0.930 . S
C1226 C1228 1.406 . S
C1226 C1231 1.261 . S
C1227 H1194 0.930 . S
C1227 N1229 1.325 . S
C1227 C1230 1.357 . S
C1228 H1196 0.928 . S
C1228 C1226 1.406 . S
C1228 N1229 1.261 . S
N1229 Co1180 2.214 . S
N1229 C1227 1.325 . S
N1229 C1228 1.261 . S
C1230 H1200 0.931 . S
C1230 C1227 1.357 . S
C1230 C1231 1.312 . S
C1231 H1202 0.930 . S
C1231 C1226 1.261 . S
C1231 C1230 1.312 . S
C1232 O1204 1.214 . S
C1232 O1212 1.234 . S
C1233 H1205 0.929 . S
C1233 C1236 1.391 . S
C1233 C1238 1.391 . S
C1234 H1206 0.929 . S
C1234 C1235 1.390 . S
C1234 N1237 1.391 . S
C1235 H1207 0.930 . S
C1235 C1234 1.390 . S
C1235 C1236 1.392 . S
C1236 H1208 0.929 . S
C1236 C1233 1.391 . S
C1236 C1235 1.392 . S
N1237 Co1181 2.257 . S
N1237 C1234 1.391 . S
N1237 C1238 1.388 . S
C1238 H1209 0.930 . S
C1238 C1233 1.391 . S
C1238 N1237 1.388 . S
Co1239 O1241 2.143 . S
Co1239 O1247 2.074 . S
Co1239 O1250 2.093 1_556 S
Co1239 O1263 2.097 . S
Co1239 N1280 2.151 1_556 S
Co1239 N1288 2.214 . S
Co1240 O1241 2.160 . S
Co1240 O1246 2.058 . S
Co1240 O1256 2.057 . S
Co1240 O1271 2.037 . S
Co1240 N1275 2.145 . S
Co1240 N1296 2.257 . S
O1241 Co1239 2.143 . S
O1241 Co1240 2.160 . S
C1242 O1243 1.278 . S
C1242 O1250 1.224 . S
O1243 C1242 1.278 . S
C1244 O1245 1.245 . S
C1244 O1256 1.232 . S
O1245 C1244 1.245 . S
O1246 Co1240 2.058 . S
O1246 C1272 1.269 . S
O1247 Co1239 2.074 . S
O1247 C1272 1.257 . S
H1248 C1273 0.930 . S
H1249 C1279 0.930 . S
O1250 Co1239 2.093 1_554 S
O1250 C1242 1.224 . S
H1251 C1283 0.929 . S
H1252 C1285 0.930 . S
H1253 C1286 0.930 . S
H1254 C1284 0.929 1_556 S
H1255 C1287 0.928 . S
O1256 Co1240 2.057 . S
O1256 C1244 1.232 . S
H1257 C1276 0.929 . S
H1258 C1277 0.929 . S
H1259 C1289 0.931 . S
H1260 C1281 0.929 . S
H1261 C1290 0.930 . S
H1262 C1282 0.931 . S
O1263 Co1239 2.097 . S
O1263 C1291 1.214 . S
H1264 C1292 0.929 . S
H1265 C1293 0.929 . S
H1266 C1294 0.930 . S
H1267 C1295 0.929 . S
H1268 C1297 0.930 . S
H1269 C1274 0.930 . S
H1270 C1278 0.930 . S
O1271 Co1240 2.037 . S
O1271 C1291 1.234 . S
C1272 O1246 1.269 . S
C1272 O1247 1.257 . S
C1273 H1248 0.930 . S
C1273 C1276 1.388 . S
C1273 C1278 1.418 . S
C1274 H1269 0.930 . S
C1274 C1277 1.404 . S
C1274 C1278 1.353 . S
N1275 Co1240 2.145 . S
N1275 C1276 1.397 . S
N1275 C1277 1.334 . S
C1276 H1257 0.929 . S
C1276 C1273 1.388 . S
C1276 N1275 1.397 . S
C1277 H1258 0.929 . S
C1277 C1274 1.404 . S
C1277 N1275 1.334 . S
C1278 H1270 0.930 . S
C1278 C1273 1.418 . S
C1278 C1274 1.353 . S
C1279 H1249 0.930 . S
C1279 N1280 1.330 . S
C1279 C1281 1.446 . S
N1280 Co1239 2.151 1_554 S
N1280 C1279 1.330 . S
N1280 C1284 1.418 . S
C1281 H1260 0.929 . S
C1281 C1279 1.446 . S
C1281 C1282 1.332 . S
C1282 H1262 0.931 . S
C1282 C1281 1.332 . S
C1282 C1283 1.267 . S
C1283 H1251 0.929 . S
C1283 C1282 1.267 . S
C1283 C1284 1.251 . S
C1284 H1254 0.929 1_554 S
C1284 N1280 1.418 . S
C1284 C1283 1.251 . S
C1285 H1252 0.930 . S
C1285 C1287 1.406 . S
C1285 C1290 1.261 1_554 S
C1286 H1253 0.930 . S
C1286 N1288 1.325 . S
C1286 C1289 1.357 . S
C1287 H1255 0.928 . S
C1287 C1285 1.406 . S
C1287 N1288 1.261 1_554 S
N1288 Co1239 2.214 . S
N1288 C1286 1.325 . S
N1288 C1287 1.261 1_556 S
C1289 H1259 0.931 . S
C1289 C1286 1.357 . S
C1289 C1290 1.312 . S
C1290 H1261 0.930 . S
C1290 C1285 1.261 1_556 S
C1290 C1289 1.312 . S
C1291 O1263 1.214 . S
C1291 O1271 1.234 . S
C1292 H1264 0.929 . S
C1292 C1295 1.391 . S
C1292 C1297 1.391 . S
C1293 H1265 0.929 . S
C1293 C1294 1.390 . S
C1293 N1296 1.391 . S
C1294 H1266 0.930 . S
C1294 C1293 1.390 . S
C1294 C1295 1.392 . S
C1295 H1267 0.929 . S
C1295 C1292 1.391 . S
C1295 C1294 1.392 . S
N1296 Co1240 2.257 . S
N1296 C1293 1.391 . S
N1296 C1297 1.388 . S
C1297 H1268 0.930 . S
C1297 C1292 1.391 . S
C1297 N1296 1.388 . S
Co1298 O1300 2.143 . S
Co1298 O1306 2.074 . S
Co1298 O1309 2.093 . S
Co1298 O1322 2.097 . S
Co1298 N1339 2.151 . S
Co1298 N1347 2.214 . S
Co1299 O1300 2.160 . S
Co1299 O1305 2.058 . S
Co1299 O1315 2.057 . S
Co1299 O1330 2.037 . S
Co1299 N1334 2.145 . S
Co1299 N1355 2.257 . S
O1300 Co1298 2.143 . S
O1300 Co1299 2.160 . S
C1301 O1302 1.278 . S
C1301 O1309 1.224 . S
O1302 C1301 1.278 . S
C1303 O1304 1.245 . S
C1303 O1315 1.232 . S
O1304 C1303 1.245 . S
O1305 Co1299 2.058 . S
O1305 C1331 1.269 . S
O1306 Co1298 2.074 . S
O1306 C1331 1.257 . S
H1307 C1332 0.930 . S
H1308 C1338 0.930 . S
O1309 Co1298 2.093 . S
O1309 C1301 1.224 . S
H1310 C1342 0.929 . S
H1311 C1344 0.930 . S
H1312 C1345 0.930 . S
H1313 C1343 0.929 . S
H1314 C1346 0.928 . S
O1315 Co1299 2.057 . S
O1315 C1303 1.232 . S
H1316 C1335 0.929 . S
H1317 C1336 0.929 . S
H1318 C1348 0.931 . S
H1319 C1340 0.929 . S
H1320 C1349 0.930 . S
H1321 C1341 0.931 . S
O1322 Co1298 2.097 . S
O1322 C1350 1.214 . S
H1323 C1351 0.929 . S
H1324 C1352 0.929 . S
H1325 C1353 0.930 . S
H1326 C1354 0.929 . S
H1327 C1356 0.930 . S
H1328 C1333 0.930 . S
H1329 C1337 0.930 . S
O1330 Co1299 2.037 . S
O1330 C1350 1.234 . S
C1331 O1305 1.269 . S
C1331 O1306 1.257 . S
C1332 H1307 0.930 . S
C1332 C1335 1.388 . S
C1332 C1337 1.418 . S
C1333 H1328 0.930 . S
C1333 C1336 1.404 . S
C1333 C1337 1.353 . S
N1334 Co1299 2.145 . S
N1334 C1335 1.397 . S
N1334 C1336 1.334 . S
C1335 H1316 0.929 . S
C1335 C1332 1.388 . S
C1335 N1334 1.397 . S
C1336 H1317 0.929 . S
C1336 C1333 1.404 . S
C1336 N1334 1.334 . S
C1337 H1329 0.930 . S
C1337 C1332 1.418 . S
C1337 C1333 1.353 . S
C1338 H1308 0.930 . S
C1338 N1339 1.330 . S
C1338 C1340 1.446 . S
N1339 Co1298 2.151 . S
N1339 C1338 1.330 . S
N1339 C1343 1.418 1_655 S
C1340 H1319 0.929 . S
C1340 C1338 1.446 . S
C1340 C1341 1.332 1_655 S
C1341 H1321 0.931 . S
C1341 C1340 1.332 1_455 S
C1341 C1342 1.267 . S
C1342 H1310 0.929 . S
C1342 C1341 1.267 . S
C1342 C1343 1.251 . S
C1343 H1313 0.929 . S
C1343 N1339 1.418 1_455 S
C1343 C1342 1.251 . S
C1344 H1311 0.930 . S
C1344 C1346 1.406 . S
C1344 C1349 1.261 . S
C1345 H1312 0.930 . S
C1345 N1347 1.325 . S
C1345 C1348 1.357 . S
C1346 H1314 0.928 . S
C1346 C1344 1.406 . S
C1346 N1347 1.261 . S
N1347 Co1298 2.214 . S
N1347 C1345 1.325 . S
N1347 C1346 1.261 . S
C1348 H1318 0.931 . S
C1348 C1345 1.357 . S
C1348 C1349 1.312 . S
C1349 H1320 0.930 . S
C1349 C1344 1.261 . S
C1349 C1348 1.312 . S
C1350 O1322 1.214 . S
C1350 O1330 1.234 . S
C1351 H1323 0.929 . S
C1351 C1354 1.391 . S
C1351 C1356 1.391 . S
C1352 H1324 0.929 . S
C1352 C1353 1.390 . S
C1352 N1355 1.391 . S
C1353 H1325 0.930 . S
C1353 C1352 1.390 . S
C1353 C1354 1.392 . S
C1354 H1326 0.929 . S
C1354 C1351 1.391 . S
C1354 C1353 1.392 . S
N1355 Co1299 2.257 . S
N1355 C1352 1.391 . S
N1355 C1356 1.388 . S
C1356 H1327 0.930 . S
C1356 C1351 1.391 . S
C1356 N1355 1.388 . S
Co1357 O1359 2.143 . S
Co1357 O1365 2.074 . S
Co1357 O1368 2.093 . S
Co1357 O1381 2.097 . S
Co1357 N1398 2.151 . S
Co1357 N1406 2.214 . S
Co1358 O1359 2.160 . S
Co1358 O1364 2.058 . S
Co1358 O1374 2.057 . S
Co1358 O1389 2.037 . S
Co1358 N1393 2.145 . S
Co1358 N1414 2.257 . S
O1359 Co1357 2.143 . S
O1359 Co1358 2.160 . S
C1360 O1361 1.278 . S
C1360 O1368 1.224 . S
O1361 C1360 1.278 . S
C1362 O1363 1.245 . S
C1362 O1374 1.232 . S
O1363 C1362 1.245 . S
O1364 Co1358 2.058 . S
O1364 C1390 1.269 . S
O1365 Co1357 2.074 . S
O1365 C1390 1.257 . S
H1366 C1391 0.930 . S
H1367 C1397 0.930 . S
O1368 Co1357 2.093 . S
O1368 C1360 1.224 . S
H1369 C1401 0.929 . S
H1370 C1403 0.930 . S
H1371 C1404 0.930 . S
H1372 C1402 0.929 . S
H1373 C1405 0.928 . S
O1374 Co1358 2.057 . S
O1374 C1362 1.232 . S
H1375 C1394 0.929 . S
H1376 C1395 0.929 . S
H1377 C1407 0.931 . S
H1378 C1399 0.929 . S
H1379 C1408 0.930 . S
H1380 C1400 0.931 . S
O1381 Co1357 2.097 . S
O1381 C1409 1.214 . S
H1382 C1410 0.929 . S
H1383 C1411 0.929 . S
H1384 C1412 0.930 . S
H1385 C1413 0.929 . S
H1386 C1415 0.930 . S
H1387 C1392 0.930 . S
H1388 C1396 0.930 . S
O1389 Co1358 2.037 . S
O1389 C1409 1.234 . S
C1390 O1364 1.269 . S
C1390 O1365 1.257 . S
C1391 H1366 0.930 . S
C1391 C1394 1.388 . S
C1391 C1396 1.418 . S
C1392 H1387 0.930 . S
C1392 C1395 1.404 . S
C1392 C1396 1.353 . S
N1393 Co1358 2.145 . S
N1393 C1394 1.397 . S
N1393 C1395 1.334 . S
C1394 H1375 0.929 . S
C1394 C1391 1.388 . S
C1394 N1393 1.397 . S
C1395 H1376 0.929 . S
C1395 C1392 1.404 . S
C1395 N1393 1.334 . S
C1396 H1388 0.930 . S
C1396 C1391 1.418 . S
C1396 C1392 1.353 . S
C1397 H1367 0.930 . S
C1397 N1398 1.330 . S
C1397 C1399 1.446 . S
N1398 Co1357 2.151 . S
N1398 C1397 1.330 . S
N1398 C1402 1.418 . S
C1399 H1378 0.929 . S
C1399 C1397 1.446 . S
C1399 C1400 1.332 . S
C1400 H1380 0.931 . S
C1400 C1399 1.332 . S
C1400 C1401 1.267 . S
C1401 H1369 0.929 . S
C1401 C1400 1.267 . S
C1401 C1402 1.251 . S
C1402 H1372 0.929 . S
C1402 N1398 1.418 . S
C1402 C1401 1.251 . S
C1403 H1370 0.930 . S
C1403 C1405 1.406 . S
C1403 C1408 1.261 . S
C1404 H1371 0.930 . S
C1404 N1406 1.325 . S
C1404 C1407 1.357 . S
C1405 H1373 0.928 . S
C1405 C1403 1.406 . S
C1405 N1406 1.261 . S
N1406 Co1357 2.214 . S
N1406 C1404 1.325 . S
N1406 C1405 1.261 . S
C1407 H1377 0.931 . S
C1407 C1404 1.357 . S
C1407 C1408 1.312 . S
C1408 H1379 0.930 . S
C1408 C1403 1.261 . S
C1408 C1407 1.312 . S
C1409 O1381 1.214 . S
C1409 O1389 1.234 . S
C1410 H1382 0.929 . S
C1410 C1413 1.391 . S
C1410 C1415 1.391 . S
C1411 H1383 0.929 . S
C1411 C1412 1.390 . S
C1411 N1414 1.391 . S
C1412 H1384 0.930 . S
C1412 C1411 1.390 . S
C1412 C1413 1.392 . S
C1413 H1385 0.929 . S
C1413 C1410 1.391 . S
C1413 C1412 1.392 . S
N1414 Co1358 2.257 . S
N1414 C1411 1.391 . S
N1414 C1415 1.388 . S
C1415 H1386 0.930 . S
C1415 C1410 1.391 . S
C1415 N1414 1.388 . S
Co1416 O1418 2.143 . S
Co1416 O1424 2.074 . S
Co1416 O1427 2.093 . S
Co1416 O1440 2.097 . S
Co1416 N1457 2.151 . S
Co1416 N1465 2.214 . S
Co1417 O1418 2.160 . S
Co1417 O1423 2.058 . S
Co1417 O1433 2.057 . S
Co1417 O1448 2.037 . S
Co1417 N1452 2.145 . S
Co1417 N1473 2.257 . S
O1418 Co1416 2.143 . S
O1418 Co1417 2.160 . S
C1419 O1420 1.278 . S
C1419 O1427 1.224 . S
O1420 C1419 1.278 . S
C1421 O1422 1.245 . S
C1421 O1433 1.232 . S
O1422 C1421 1.245 . S
O1423 Co1417 2.058 . S
O1423 C1449 1.269 . S
O1424 Co1416 2.074 . S
O1424 C1449 1.257 . S
H1425 C1450 0.930 . S
H1426 C1456 0.930 . S
O1427 Co1416 2.093 . S
O1427 C1419 1.224 . S
H1428 C1460 0.929 . S
H1429 C1462 0.930 . S
H1430 C1463 0.930 . S
H1431 C1461 0.929 . S
H1432 C1464 0.928 . S
O1433 Co1417 2.057 . S
O1433 C1421 1.232 . S
H1434 C1453 0.929 . S
H1435 C1454 0.929 . S
H1436 C1466 0.931 . S
H1437 C1458 0.929 . S
H1438 C1467 0.930 . S
H1439 C1459 0.931 . S
O1440 Co1416 2.097 . S
O1440 C1468 1.214 . S
H1441 C1469 0.929 . S
H1442 C1470 0.929 . S
H1443 C1471 0.930 . S
H1444 C1472 0.929 . S
H1445 C1474 0.930 . S
H1446 C1451 0.930 . S
H1447 C1455 0.930 . S
O1448 Co1417 2.037 . S
O1448 C1468 1.234 . S
C1449 O1423 1.269 . S
C1449 O1424 1.257 . S
C1450 H1425 0.930 . S
C1450 C1453 1.388 . S
C1450 C1455 1.418 . S
C1451 H1446 0.930 . S
C1451 C1454 1.404 . S
C1451 C1455 1.353 . S
N1452 Co1417 2.145 . S
N1452 C1453 1.397 . S
N1452 C1454 1.334 . S
C1453 H1434 0.929 . S
C1453 C1450 1.388 . S
C1453 N1452 1.397 . S
C1454 H1435 0.929 . S
C1454 C1451 1.404 . S
C1454 N1452 1.334 . S
C1455 H1447 0.930 . S
C1455 C1450 1.418 . S
C1455 C1451 1.353 . S
C1456 H1426 0.930 . S
C1456 N1457 1.330 . S
C1456 C1458 1.446 . S
N1457 Co1416 2.151 . S
N1457 C1456 1.330 . S
N1457 C1461 1.418 . S
C1458 H1437 0.929 . S
C1458 C1456 1.446 . S
C1458 C1459 1.332 . S
C1459 H1439 0.931 . S
C1459 C1458 1.332 . S
C1459 C1460 1.267 . S
C1460 H1428 0.929 . S
C1460 C1459 1.267 . S
C1460 C1461 1.251 . S
C1461 H1431 0.929 . S
C1461 N1457 1.418 . S
C1461 C1460 1.251 . S
C1462 H1429 0.930 . S
C1462 C1464 1.406 . S
C1462 C1467 1.261 . S
C1463 H1430 0.930 . S
C1463 N1465 1.325 . S
C1463 C1466 1.357 . S
C1464 H1432 0.928 . S
C1464 C1462 1.406 . S
C1464 N1465 1.261 . S
N1465 Co1416 2.214 . S
N1465 C1463 1.325 . S
N1465 C1464 1.261 . S
C1466 H1436 0.931 . S
C1466 C1463 1.357 . S
C1466 C1467 1.312 . S
C1467 H1438 0.930 . S
C1467 C1462 1.261 . S
C1467 C1466 1.312 . S
C1468 O1440 1.214 . S
C1468 O1448 1.234 . S
C1469 H1441 0.929 . S
C1469 C1472 1.391 . S
C1469 C1474 1.391 . S
C1470 H1442 0.929 . S
C1470 C1471 1.390 . S
C1470 N1473 1.391 . S
C1471 H1443 0.930 . S
C1471 C1470 1.390 . S
C1471 C1472 1.392 . S
C1472 H1444 0.929 . S
C1472 C1469 1.391 . S
C1472 C1471 1.392 . S
N1473 Co1417 2.257 . S
N1473 C1470 1.391 . S
N1473 C1474 1.388 . S
C1474 H1445 0.930 . S
C1474 C1469 1.391 . S
C1474 N1473 1.388 . S
Co1475 O1477 2.143 . S
Co1475 O1483 2.074 . S
Co1475 O1486 2.093 1_556 S
Co1475 O1499 2.097 . S
Co1475 N1516 2.151 1_556 S
Co1475 N1524 2.214 . S
Co1476 O1477 2.160 . S
Co1476 O1482 2.058 . S
Co1476 O1492 2.057 . S
Co1476 O1507 2.037 . S
Co1476 N1511 2.145 . S
Co1476 N1532 2.257 . S
O1477 Co1475 2.143 . S
O1477 Co1476 2.160 . S
C1478 O1479 1.278 . S
C1478 O1486 1.224 . S
O1479 C1478 1.278 . S
C1480 O1481 1.245 . S
C1480 O1492 1.232 . S
O1481 C1480 1.245 . S
O1482 Co1476 2.058 . S
O1482 C1508 1.269 . S
O1483 Co1475 2.074 . S
O1483 C1508 1.257 . S
H1484 C1509 0.930 . S
H1485 C1515 0.930 . S
O1486 Co1475 2.093 1_554 S
O1486 C1478 1.224 . S
H1487 C1519 0.929 . S
H1488 C1521 0.930 . S
H1489 C1522 0.930 . S
H1490 C1520 0.929 1_556 S
H1491 C1523 0.928 . S
O1492 Co1476 2.057 . S
O1492 C1480 1.232 . S
H1493 C1512 0.929 . S
H1494 C1513 0.929 . S
H1495 C1525 0.931 . S
H1496 C1517 0.929 . S
H1497 C1526 0.930 . S
H1498 C1518 0.931 . S
O1499 Co1475 2.097 . S
O1499 C1527 1.214 . S
H1500 C1528 0.929 . S
H1501 C1529 0.929 . S
H1502 C1530 0.930 . S
H1503 C1531 0.929 . S
H1504 C1533 0.930 . S
H1505 C1510 0.930 . S
H1506 C1514 0.930 . S
O1507 Co1476 2.037 . S
O1507 C1527 1.234 . S
C1508 O1482 1.269 . S
C1508 O1483 1.257 . S
C1509 H1484 0.930 . S
C1509 C1512 1.388 . S
C1509 C1514 1.418 . S
C1510 H1505 0.930 . S
C1510 C1513 1.404 . S
C1510 C1514 1.353 . S
N1511 Co1476 2.145 . S
N1511 C1512 1.397 . S
N1511 C1513 1.334 . S
C1512 H1493 0.929 . S
C1512 C1509 1.388 . S
C1512 N1511 1.397 . S
C1513 H1494 0.929 . S
C1513 C1510 1.404 . S
C1513 N1511 1.334 . S
C1514 H1506 0.930 . S
C1514 C1509 1.418 . S
C1514 C1510 1.353 . S
C1515 H1485 0.930 . S
C1515 N1516 1.330 . S
C1515 C1517 1.446 . S
N1516 Co1475 2.151 1_554 S
N1516 C1515 1.330 . S
N1516 C1520 1.418 . S
C1517 H1496 0.929 . S
C1517 C1515 1.446 . S
C1517 C1518 1.332 . S
C1518 H1498 0.931 . S
C1518 C1517 1.332 . S
C1518 C1519 1.267 . S
C1519 H1487 0.929 . S
C1519 C1518 1.267 . S
C1519 C1520 1.251 . S
C1520 H1490 0.929 1_554 S
C1520 N1516 1.418 . S
C1520 C1519 1.251 . S
C1521 H1488 0.930 . S
C1521 C1523 1.406 . S
C1521 C1526 1.261 1_554 S
C1522 H1489 0.930 . S
C1522 N1524 1.325 . S
C1522 C1525 1.357 . S
C1523 H1491 0.928 . S
C1523 C1521 1.406 . S
C1523 N1524 1.261 1_554 S
N1524 Co1475 2.214 . S
N1524 C1522 1.325 . S
N1524 C1523 1.261 1_556 S
C1525 H1495 0.931 . S
C1525 C1522 1.357 . S
C1525 C1526 1.312 . S
C1526 H1497 0.930 . S
C1526 C1521 1.261 1_556 S
C1526 C1525 1.312 . S
C1527 O1499 1.214 . S
C1527 O1507 1.234 . S
C1528 H1500 0.929 . S
C1528 C1531 1.391 . S
C1528 C1533 1.391 . S
C1529 H1501 0.929 . S
C1529 C1530 1.390 . S
C1529 N1532 1.391 . S
C1530 H1502 0.930 . S
C1530 C1529 1.390 . S
C1530 C1531 1.392 . S
C1531 H1503 0.929 . S
C1531 C1528 1.391 . S
C1531 C1530 1.392 . S
N1532 Co1476 2.257 . S
N1532 C1529 1.391 . S
N1532 C1533 1.388 . S
C1533 H1504 0.930 . S
C1533 C1528 1.391 . S
C1533 N1532 1.388 . S
Co1534 O1536 2.143 . S
Co1534 O1542 2.074 . S
Co1534 O1545 2.093 . S
Co1534 O1558 2.097 . S
Co1534 N1575 2.151 . S
Co1534 N1583 2.214 . S
Co1535 O1536 2.160 . S
Co1535 O1541 2.058 . S
Co1535 O1551 2.057 . S
Co1535 O1566 2.037 . S
Co1535 N1570 2.145 . S
Co1535 N1591 2.257 . S
O1536 Co1534 2.143 . S
O1536 Co1535 2.160 . S
C1537 O1538 1.278 . S
C1537 O1545 1.224 . S
O1538 C1537 1.278 . S
C1539 O1540 1.245 . S
C1539 O1551 1.232 . S
O1540 C1539 1.245 . S
O1541 Co1535 2.058 . S
O1541 C1567 1.269 . S
O1542 Co1534 2.074 . S
O1542 C1567 1.257 . S
H1543 C1568 0.930 . S
H1544 C1574 0.930 . S
O1545 Co1534 2.093 . S
O1545 C1537 1.224 . S
H1546 C1578 0.929 . S
H1547 C1580 0.930 . S
H1548 C1581 0.930 . S
H1549 C1579 0.929 . S
H1550 C1582 0.928 . S
O1551 Co1535 2.057 . S
O1551 C1539 1.232 . S
H1552 C1571 0.929 . S
H1553 C1572 0.929 . S
H1554 C1584 0.931 . S
H1555 C1576 0.929 . S
H1556 C1585 0.930 . S
H1557 C1577 0.931 . S
O1558 Co1534 2.097 . S
O1558 C1586 1.214 . S
H1559 C1587 0.929 . S
H1560 C1588 0.929 . S
H1561 C1589 0.930 . S
H1562 C1590 0.929 . S
H1563 C1592 0.930 . S
H1564 C1569 0.930 . S
H1565 C1573 0.930 . S
O1566 Co1535 2.037 . S
O1566 C1586 1.234 . S
C1567 O1541 1.269 . S
C1567 O1542 1.257 . S
C1568 H1543 0.930 . S
C1568 C1571 1.388 . S
C1568 C1573 1.418 . S
C1569 H1564 0.930 . S
C1569 C1572 1.404 . S
C1569 C1573 1.353 . S
N1570 Co1535 2.145 . S
N1570 C1571 1.397 . S
N1570 C1572 1.334 . S
C1571 H1552 0.929 . S
C1571 C1568 1.388 . S
C1571 N1570 1.397 . S
C1572 H1553 0.929 . S
C1572 C1569 1.404 . S
C1572 N1570 1.334 . S
C1573 H1565 0.930 . S
C1573 C1568 1.418 . S
C1573 C1569 1.353 . S
C1574 H1544 0.930 . S
C1574 N1575 1.330 . S
C1574 C1576 1.446 . S
N1575 Co1534 2.151 . S
N1575 C1574 1.330 . S
N1575 C1579 1.418 1_455 S
C1576 H1555 0.929 . S
C1576 C1574 1.446 . S
C1576 C1577 1.332 1_455 S
C1577 H1557 0.931 . S
C1577 C1576 1.332 1_655 S
C1577 C1578 1.267 . S
C1578 H1546 0.929 . S
C1578 C1577 1.267 . S
C1578 C1579 1.251 . S
C1579 H1549 0.929 . S
C1579 N1575 1.418 1_655 S
C1579 C1578 1.251 . S
C1580 H1547 0.930 . S
C1580 C1582 1.406 . S
C1580 C1585 1.261 . S
C1581 H1548 0.930 . S
C1581 N1583 1.325 . S
C1581 C1584 1.357 . S
C1582 H1550 0.928 . S
C1582 C1580 1.406 . S
C1582 N1583 1.261 . S
N1583 Co1534 2.214 . S
N1583 C1581 1.325 . S
N1583 C1582 1.261 . S
C1584 H1554 0.931 . S
C1584 C1581 1.357 . S
C1584 C1585 1.312 . S
C1585 H1556 0.930 . S
C1585 C1580 1.261 . S
C1585 C1584 1.312 . S
C1586 O1558 1.214 . S
C1586 O1566 1.234 . S
C1587 H1559 0.929 . S
C1587 C1590 1.391 . S
C1587 C1592 1.391 . S
C1588 H1560 0.929 . S
C1588 C1589 1.390 . S
C1588 N1591 1.391 . S
C1589 H1561 0.930 . S
C1589 C1588 1.390 . S
C1589 C1590 1.392 . S
C1590 H1562 0.929 . S
C1590 C1587 1.391 . S
C1590 C1589 1.392 . S
N1591 Co1535 2.257 . S
N1591 C1588 1.391 . S
N1591 C1592 1.388 . S
C1592 H1563 0.930 . S
C1592 C1587 1.391 . S
C1592 N1591 1.388 . S
Co1593 O1595 2.143 . S
Co1593 O1601 2.074 . S
Co1593 O1604 2.093 . S
Co1593 O1617 2.097 . S
Co1593 N1634 2.151 . S
Co1593 N1642 2.214 . S
Co1594 O1595 2.160 . S
Co1594 O1600 2.058 . S
Co1594 O1610 2.057 . S
Co1594 O1625 2.037 . S
Co1594 N1629 2.145 . S
Co1594 N1650 2.257 . S
O1595 Co1593 2.143 . S
O1595 Co1594 2.160 . S
C1596 O1597 1.278 . S
C1596 O1604 1.224 . S
O1597 C1596 1.278 . S
C1598 O1599 1.245 . S
C1598 O1610 1.232 . S
O1599 C1598 1.245 . S
O1600 Co1594 2.058 . S
O1600 C1626 1.269 . S
O1601 Co1593 2.074 . S
O1601 C1626 1.257 . S
H1602 C1627 0.930 . S
H1603 C1633 0.930 . S
O1604 Co1593 2.093 . S
O1604 C1596 1.224 . S
H1605 C1637 0.929 . S
H1606 C1639 0.930 . S
H1607 C1640 0.930 . S
H1608 C1638 0.929 . S
H1609 C1641 0.928 . S
O1610 Co1594 2.057 . S
O1610 C1598 1.232 . S
H1611 C1630 0.929 . S
H1612 C1631 0.929 . S
H1613 C1643 0.931 . S
H1614 C1635 0.929 . S
H1615 C1644 0.930 . S
H1616 C1636 0.931 . S
O1617 Co1593 2.097 . S
O1617 C1645 1.214 . S
H1618 C1646 0.929 . S
H1619 C1647 0.929 . S
H1620 C1648 0.930 . S
H1621 C1649 0.929 . S
H1622 C1651 0.930 . S
H1623 C1628 0.930 . S
H1624 C1632 0.930 . S
O1625 Co1594 2.037 . S
O1625 C1645 1.234 . S
C1626 O1600 1.269 . S
C1626 O1601 1.257 . S
C1627 H1602 0.930 . S
C1627 C1630 1.388 . S
C1627 C1632 1.418 . S
C1628 H1623 0.930 . S
C1628 C1631 1.404 . S
C1628 C1632 1.353 . S
N1629 Co1594 2.145 . S
N1629 C1630 1.397 . S
N1629 C1631 1.334 . S
C1630 H1611 0.929 . S
C1630 C1627 1.388 . S
C1630 N1629 1.397 . S
C1631 H1612 0.929 . S
C1631 C1628 1.404 . S
C1631 N1629 1.334 . S
C1632 H1624 0.930 . S
C1632 C1627 1.418 . S
C1632 C1628 1.353 . S
C1633 H1603 0.930 . S
C1633 N1634 1.330 . S
C1633 C1635 1.446 . S
N1634 Co1593 2.151 . S
N1634 C1633 1.330 . S
N1634 C1638 1.418 . S
C1635 H1614 0.929 . S
C1635 C1633 1.446 . S
C1635 C1636 1.332 . S
C1636 H1616 0.931 . S
C1636 C1635 1.332 . S
C1636 C1637 1.267 . S
C1637 H1605 0.929 . S
C1637 C1636 1.267 . S
C1637 C1638 1.251 . S
C1638 H1608 0.929 . S
C1638 N1634 1.418 . S
C1638 C1637 1.251 . S
C1639 H1606 0.930 . S
C1639 C1641 1.406 . S
C1639 C1644 1.261 . S
C1640 H1607 0.930 . S
C1640 N1642 1.325 . S
C1640 C1643 1.357 . S
C1641 H1609 0.928 . S
C1641 C1639 1.406 . S
C1641 N1642 1.261 . S
N1642 Co1593 2.214 . S
N1642 C1640 1.325 . S
N1642 C1641 1.261 . S
C1643 H1613 0.931 . S
C1643 C1640 1.357 . S
C1643 C1644 1.312 . S
C1644 H1615 0.930 . S
C1644 C1639 1.261 . S
C1644 C1643 1.312 . S
C1645 O1617 1.214 . S
C1645 O1625 1.234 . S
C1646 H1618 0.929 . S
C1646 C1649 1.391 . S
C1646 C1651 1.391 . S
C1647 H1619 0.929 . S
C1647 C1648 1.390 . S
C1647 N1650 1.391 . S
C1648 H1620 0.930 . S
C1648 C1647 1.390 . S
C1648 C1649 1.392 . S
C1649 H1621 0.929 . S
C1649 C1646 1.391 . S
C1649 C1648 1.392 . S
N1650 Co1594 2.257 . S
N1650 C1647 1.391 . S
N1650 C1651 1.388 . S
C1651 H1622 0.930 . S
C1651 C1646 1.391 . S
C1651 N1650 1.388 . S
Co1652 O1654 2.143 . S
Co1652 O1660 2.074 . S
Co1652 O1663 2.093 . S
Co1652 O1676 2.097 . S
Co1652 N1693 2.151 . S
Co1652 N1701 2.214 . S
Co1653 O1654 2.160 . S
Co1653 O1659 2.058 . S
Co1653 O1669 2.057 . S
Co1653 O1684 2.037 . S
Co1653 N1688 2.145 . S
Co1653 N1709 2.257 . S
O1654 Co1652 2.143 . S
O1654 Co1653 2.160 . S
C1655 O1656 1.278 . S
C1655 O1663 1.224 . S
O1656 C1655 1.278 . S
C1657 O1658 1.245 . S
C1657 O1669 1.232 . S
O1658 C1657 1.245 . S
O1659 Co1653 2.058 . S
O1659 C1685 1.269 . S
O1660 Co1652 2.074 . S
O1660 C1685 1.257 . S
H1661 C1686 0.930 . S
H1662 C1692 0.930 . S
O1663 Co1652 2.093 . S
O1663 C1655 1.224 . S
H1664 C1696 0.929 . S
H1665 C1698 0.930 . S
H1666 C1699 0.930 . S
H1667 C1697 0.929 . S
H1668 C1700 0.928 . S
O1669 Co1653 2.057 . S
O1669 C1657 1.232 . S
H1670 C1689 0.929 . S
H1671 C1690 0.929 . S
H1672 C1702 0.931 . S
H1673 C1694 0.929 . S
H1674 C1703 0.930 . S
H1675 C1695 0.931 . S
O1676 Co1652 2.097 . S
O1676 C1704 1.214 . S
H1677 C1705 0.929 . S
H1678 C1706 0.929 . S
H1679 C1707 0.930 . S
H1680 C1708 0.929 . S
H1681 C1710 0.930 . S
H1682 C1687 0.930 . S
H1683 C1691 0.930 . S
O1684 Co1653 2.037 . S
O1684 C1704 1.234 . S
C1685 O1659 1.269 . S
C1685 O1660 1.257 . S
C1686 H1661 0.930 . S
C1686 C1689 1.388 . S
C1686 C1691 1.418 . S
C1687 H1682 0.930 . S
C1687 C1690 1.404 . S
C1687 C1691 1.353 . S
N1688 Co1653 2.145 . S
N1688 C1689 1.397 . S
N1688 C1690 1.334 . S
C1689 H1670 0.929 . S
C1689 C1686 1.388 . S
C1689 N1688 1.397 . S
C1690 H1671 0.929 . S
C1690 C1687 1.404 . S
C1690 N1688 1.334 . S
C1691 H1683 0.930 . S
C1691 C1686 1.418 . S
C1691 C1687 1.353 . S
C1692 H1662 0.930 . S
C1692 N1693 1.330 . S
C1692 C1694 1.446 . S
N1693 Co1652 2.151 . S
N1693 C1692 1.330 . S
N1693 C1697 1.418 . S
C1694 H1673 0.929 . S
C1694 C1692 1.446 . S
C1694 C1695 1.332 . S
C1695 H1675 0.931 . S
C1695 C1694 1.332 . S
C1695 C1696 1.267 . S
C1696 H1664 0.929 . S
C1696 C1695 1.267 . S
C1696 C1697 1.251 . S
C1697 H1667 0.929 . S
C1697 N1693 1.418 . S
C1697 C1696 1.251 . S
C1698 H1665 0.930 . S
C1698 C1700 1.406 . S
C1698 C1703 1.261 . S
C1699 H1666 0.930 . S
C1699 N1701 1.325 . S
C1699 C1702 1.357 . S
C1700 H1668 0.928 . S
C1700 C1698 1.406 . S
C1700 N1701 1.261 . S
N1701 Co1652 2.214 . S
N1701 C1699 1.325 . S
N1701 C1700 1.261 . S
C1702 H1672 0.931 . S
C1702 C1699 1.357 . S
C1702 C1703 1.312 . S
C1703 H1674 0.930 . S
C1703 C1698 1.261 . S
C1703 C1702 1.312 . S
C1704 O1676 1.214 . S
C1704 O1684 1.234 . S
C1705 H1677 0.929 . S
C1705 C1708 1.391 . S
C1705 C1710 1.391 . S
C1706 H1678 0.929 . S
C1706 C1707 1.390 . S
C1706 N1709 1.391 . S
C1707 H1679 0.930 . S
C1707 C1706 1.390 . S
C1707 C1708 1.392 . S
C1708 H1680 0.929 . S
C1708 C1705 1.391 . S
C1708 C1707 1.392 . S
N1709 Co1653 2.257 . S
N1709 C1706 1.391 . S
N1709 C1710 1.388 . S
C1710 H1681 0.930 . S
C1710 C1705 1.391 . S
C1710 N1709 1.388 . S
Co1711 O1713 2.143 . S
Co1711 O1719 2.074 . S
Co1711 O1722 2.093 1_554 S
Co1711 O1735 2.097 . S
Co1711 N1752 2.151 1_554 S
Co1711 N1760 2.214 . S
Co1712 O1713 2.160 . S
Co1712 O1718 2.058 . S
Co1712 O1728 2.057 . S
Co1712 O1743 2.037 . S
Co1712 N1747 2.145 . S
Co1712 N1768 2.257 . S
O1713 Co1711 2.143 . S
O1713 Co1712 2.160 . S
C1714 O1715 1.278 . S
C1714 O1722 1.224 . S
O1715 C1714 1.278 . S
C1716 O1717 1.245 . S
C1716 O1728 1.232 . S
O1717 C1716 1.245 . S
O1718 Co1712 2.058 . S
O1718 C1744 1.269 . S
O1719 Co1711 2.074 . S
O1719 C1744 1.257 . S
H1720 C1745 0.930 . S
H1721 C1751 0.930 . S
O1722 Co1711 2.093 1_556 S
O1722 C1714 1.224 . S
H1723 C1755 0.929 . S
H1724 C1757 0.930 . S
H1725 C1758 0.930 . S
H1726 C1756 0.929 1_554 S
H1727 C1759 0.928 . S
O1728 Co1712 2.057 . S
O1728 C1716 1.232 . S
H1729 C1748 0.929 . S
H1730 C1749 0.929 . S
H1731 C1761 0.931 . S
H1732 C1753 0.929 . S
H1733 C1762 0.930 . S
H1734 C1754 0.931 . S
O1735 Co1711 2.097 . S
O1735 C1763 1.214 . S
H1736 C1764 0.929 . S
H1737 C1765 0.929 . S
H1738 C1766 0.930 . S
H1739 C1767 0.929 . S
H1740 C1769 0.930 . S
H1741 C1746 0.930 . S
H1742 C1750 0.930 . S
O1743 Co1712 2.037 . S
O1743 C1763 1.234 . S
C1744 O1718 1.269 . S
C1744 O1719 1.257 . S
C1745 H1720 0.930 . S
C1745 C1748 1.388 . S
C1745 C1750 1.418 . S
C1746 H1741 0.930 . S
C1746 C1749 1.404 . S
C1746 C1750 1.353 . S
N1747 Co1712 2.145 . S
N1747 C1748 1.397 . S
N1747 C1749 1.334 . S
C1748 H1729 0.929 . S
C1748 C1745 1.388 . S
C1748 N1747 1.397 . S
C1749 H1730 0.929 . S
C1749 C1746 1.404 . S
C1749 N1747 1.334 . S
C1750 H1742 0.930 . S
C1750 C1745 1.418 . S
C1750 C1746 1.353 . S
C1751 H1721 0.930 . S
C1751 N1752 1.330 . S
C1751 C1753 1.446 . S
N1752 Co1711 2.151 1_556 S
N1752 C1751 1.330 . S
N1752 C1756 1.418 . S
C1753 H1732 0.929 . S
C1753 C1751 1.446 . S
C1753 C1754 1.332 . S
C1754 H1734 0.931 . S
C1754 C1753 1.332 . S
C1754 C1755 1.267 . S
C1755 H1723 0.929 . S
C1755 C1754 1.267 . S
C1755 C1756 1.251 . S
C1756 H1726 0.929 1_556 S
C1756 N1752 1.418 . S
C1756 C1755 1.251 . S
C1757 H1724 0.930 . S
C1757 C1759 1.406 . S
C1757 C1762 1.261 1_556 S
C1758 H1725 0.930 . S
C1758 N1760 1.325 . S
C1758 C1761 1.357 . S
C1759 H1727 0.928 . S
C1759 C1757 1.406 . S
C1759 N1760 1.261 1_556 S
N1760 Co1711 2.214 . S
N1760 C1758 1.325 . S
N1760 C1759 1.261 1_554 S
C1761 H1731 0.931 . S
C1761 C1758 1.357 . S
C1761 C1762 1.312 . S
C1762 H1733 0.930 . S
C1762 C1757 1.261 1_554 S
C1762 C1761 1.312 . S
C1763 O1735 1.214 . S
C1763 O1743 1.234 . S
C1764 H1736 0.929 . S
C1764 C1767 1.391 . S
C1764 C1769 1.391 . S
C1765 H1737 0.929 . S
C1765 C1766 1.390 . S
C1765 N1768 1.391 . S
C1766 H1738 0.930 . S
C1766 C1765 1.390 . S
C1766 C1767 1.392 . S
C1767 H1739 0.929 . S
C1767 C1764 1.391 . S
C1767 C1766 1.392 . S
N1768 Co1712 2.257 . S
N1768 C1765 1.391 . S
N1768 C1769 1.388 . S
C1769 H1740 0.930 . S
C1769 C1764 1.391 . S
C1769 N1768 1.388 . S
Co1770 O1772 2.143 . S
Co1770 O1778 2.074 . S
Co1770 O1781 2.093 . S
Co1770 O1794 2.097 . S
Co1770 N1811 2.151 . S
Co1770 N1819 2.214 . S
Co1771 O1772 2.160 . S
Co1771 O1777 2.058 . S
Co1771 O1787 2.057 . S
Co1771 O1802 2.037 . S
Co1771 N1806 2.145 . S
Co1771 N1827 2.257 . S
O1772 Co1770 2.143 . S
O1772 Co1771 2.160 . S
C1773 O1774 1.278 . S
C1773 O1781 1.224 . S
O1774 C1773 1.278 . S
C1775 O1776 1.245 . S
C1775 O1787 1.232 . S
O1776 C1775 1.245 . S
O1777 Co1771 2.058 . S
O1777 C1803 1.269 . S
O1778 Co1770 2.074 . S
O1778 C1803 1.257 . S
H1779 C1804 0.930 . S
H1780 C1810 0.930 . S
O1781 Co1770 2.093 . S
O1781 C1773 1.224 . S
H1782 C1814 0.929 . S
H1783 C1816 0.930 . S
H1784 C1817 0.930 . S
H1785 C1815 0.929 . S
H1786 C1818 0.928 . S
O1787 Co1771 2.057 . S
O1787 C1775 1.232 . S
H1788 C1807 0.929 . S
H1789 C1808 0.929 . S
H1790 C1820 0.931 . S
H1791 C1812 0.929 . S
H1792 C1821 0.930 . S
H1793 C1813 0.931 . S
O1794 Co1770 2.097 . S
O1794 C1822 1.214 . S
H1795 C1823 0.929 . S
H1796 C1824 0.929 . S
H1797 C1825 0.930 . S
H1798 C1826 0.929 . S
H1799 C1828 0.930 . S
H1800 C1805 0.930 . S
H1801 C1809 0.930 . S
O1802 Co1771 2.037 . S
O1802 C1822 1.234 . S
C1803 O1777 1.269 . S
C1803 O1778 1.257 . S
C1804 H1779 0.930 . S
C1804 C1807 1.388 . S
C1804 C1809 1.418 . S
C1805 H1800 0.930 . S
C1805 C1808 1.404 . S
C1805 C1809 1.353 . S
N1806 Co1771 2.145 . S
N1806 C1807 1.397 . S
N1806 C1808 1.334 . S
C1807 H1788 0.929 . S
C1807 C1804 1.388 . S
C1807 N1806 1.397 . S
C1808 H1789 0.929 . S
C1808 C1805 1.404 . S
C1808 N1806 1.334 . S
C1809 H1801 0.930 . S
C1809 C1804 1.418 . S
C1809 C1805 1.353 . S
C1810 H1780 0.930 . S
C1810 N1811 1.330 . S
C1810 C1812 1.446 . S
N1811 Co1770 2.151 . S
N1811 C1810 1.330 . S
N1811 C1815 1.418 1_455 S
C1812 H1791 0.929 . S
C1812 C1810 1.446 . S
C1812 C1813 1.332 1_455 S
C1813 H1793 0.931 . S
C1813 C1812 1.332 1_655 S
C1813 C1814 1.267 . S
C1814 H1782 0.929 . S
C1814 C1813 1.267 . S
C1814 C1815 1.251 . S
C1815 H1785 0.929 . S
C1815 N1811 1.418 1_655 S
C1815 C1814 1.251 . S
C1816 H1783 0.930 . S
C1816 C1818 1.406 . S
C1816 C1821 1.261 . S
C1817 H1784 0.930 . S
C1817 N1819 1.325 . S
C1817 C1820 1.357 . S
C1818 H1786 0.928 . S
C1818 C1816 1.406 . S
C1818 N1819 1.261 . S
N1819 Co1770 2.214 . S
N1819 C1817 1.325 . S
N1819 C1818 1.261 . S
C1820 H1790 0.931 . S
C1820 C1817 1.357 . S
C1820 C1821 1.312 . S
C1821 H1792 0.930 . S
C1821 C1816 1.261 . S
C1821 C1820 1.312 . S
C1822 O1794 1.214 . S
C1822 O1802 1.234 . S
C1823 H1795 0.929 . S
C1823 C1826 1.391 . S
C1823 C1828 1.391 . S
C1824 H1796 0.929 . S
C1824 C1825 1.390 . S
C1824 N1827 1.391 . S
C1825 H1797 0.930 . S
C1825 C1824 1.390 . S
C1825 C1826 1.392 . S
C1826 H1798 0.929 . S
C1826 C1823 1.391 . S
C1826 C1825 1.392 . S
N1827 Co1771 2.257 . S
N1827 C1824 1.391 . S
N1827 C1828 1.388 . S
C1828 H1799 0.930 . S
C1828 C1823 1.391 . S
C1828 N1827 1.388 . S
Co1829 O1831 2.143 . S
Co1829 O1837 2.074 . S
Co1829 O1840 2.093 . S
Co1829 O1853 2.097 . S
Co1829 N1870 2.151 . S
Co1829 N1878 2.214 . S
Co1830 O1831 2.160 . S
Co1830 O1836 2.058 . S
Co1830 O1846 2.057 . S
Co1830 O1861 2.037 . S
Co1830 N1865 2.145 . S
Co1830 N1886 2.257 . S
O1831 Co1829 2.143 . S
O1831 Co1830 2.160 . S
C1832 O1833 1.278 . S
C1832 O1840 1.224 . S
O1833 C1832 1.278 . S
C1834 O1835 1.245 . S
C1834 O1846 1.232 . S
O1835 C1834 1.245 . S
O1836 Co1830 2.058 . S
O1836 C1862 1.269 . S
O1837 Co1829 2.074 . S
O1837 C1862 1.257 . S
H1838 C1863 0.930 . S
H1839 C1869 0.930 . S
O1840 Co1829 2.093 . S
O1840 C1832 1.224 . S
H1841 C1873 0.929 . S
H1842 C1875 0.930 . S
H1843 C1876 0.930 . S
H1844 C1874 0.929 . S
H1845 C1877 0.928 . S
O1846 Co1830 2.057 . S
O1846 C1834 1.232 . S
H1847 C1866 0.929 . S
H1848 C1867 0.929 . S
H1849 C1879 0.931 . S
H1850 C1871 0.929 . S
H1851 C1880 0.930 . S
H1852 C1872 0.931 . S
O1853 Co1829 2.097 . S
O1853 C1881 1.214 . S
H1854 C1882 0.929 . S
H1855 C1883 0.929 . S
H1856 C1884 0.930 . S
H1857 C1885 0.929 . S
H1858 C1887 0.930 . S
H1859 C1864 0.930 . S
H1860 C1868 0.930 . S
O1861 Co1830 2.037 . S
O1861 C1881 1.234 . S
C1862 O1836 1.269 . S
C1862 O1837 1.257 . S
C1863 H1838 0.930 . S
C1863 C1866 1.388 . S
C1863 C1868 1.418 . S
C1864 H1859 0.930 . S
C1864 C1867 1.404 . S
C1864 C1868 1.353 . S
N1865 Co1830 2.145 . S
N1865 C1866 1.397 . S
N1865 C1867 1.334 . S
C1866 H1847 0.929 . S
C1866 C1863 1.388 . S
C1866 N1865 1.397 . S
C1867 H1848 0.929 . S
C1867 C1864 1.404 . S
C1867 N1865 1.334 . S
C1868 H1860 0.930 . S
C1868 C1863 1.418 . S
C1868 C1864 1.353 . S
C1869 H1839 0.930 . S
C1869 N1870 1.330 . S
C1869 C1871 1.446 . S
N1870 Co1829 2.151 . S
N1870 C1869 1.330 . S
N1870 C1874 1.418 . S
C1871 H1850 0.929 . S
C1871 C1869 1.446 . S
C1871 C1872 1.332 . S
C1872 H1852 0.931 . S
C1872 C1871 1.332 . S
C1872 C1873 1.267 . S
C1873 H1841 0.929 . S
C1873 C1872 1.267 . S
C1873 C1874 1.251 . S
C1874 H1844 0.929 . S
C1874 N1870 1.418 . S
C1874 C1873 1.251 . S
C1875 H1842 0.930 . S
C1875 C1877 1.406 . S
C1875 C1880 1.261 . S
C1876 H1843 0.930 . S
C1876 N1878 1.325 . S
C1876 C1879 1.357 . S
C1877 H1845 0.928 . S
C1877 C1875 1.406 . S
C1877 N1878 1.261 . S
N1878 Co1829 2.214 . S
N1878 C1876 1.325 . S
N1878 C1877 1.261 . S
C1879 H1849 0.931 . S
C1879 C1876 1.357 . S
C1879 C1880 1.312 . S
C1880 H1851 0.930 . S
C1880 C1875 1.261 . S
C1880 C1879 1.312 . S
C1881 O1853 1.214 . S
C1881 O1861 1.234 . S
C1882 H1854 0.929 . S
C1882 C1885 1.391 . S
C1882 C1887 1.391 . S
C1883 H1855 0.929 . S
C1883 C1884 1.390 . S
C1883 N1886 1.391 . S
C1884 H1856 0.930 . S
C1884 C1883 1.390 . S
C1884 C1885 1.392 . S
C1885 H1857 0.929 . S
C1885 C1882 1.391 . S
C1885 C1884 1.392 . S
N1886 Co1830 2.257 . S
N1886 C1883 1.391 . S
N1886 C1887 1.388 . S
C1887 H1858 0.930 . S
C1887 C1882 1.391 . S
C1887 N1886 1.388 . S
H1888 C1894 0.930 . S
H1889 C1898 0.930 . S
H1890 C1903 0.929 . S
H1891 C1901 0.929 . S
H1892 C1896 0.929 . S
H1893 C1902 0.929 . S
C1894 H1888 0.930 . S
C1894 C1895 1.367 . S
C1894 C1902 1.378 . S
C1895 C1894 1.367 . S
C1895 C1903 1.433 . S
C1896 H1892 0.929 . S
C1896 C1898 1.378 . S
C1896 C1900 1.350 . S
C1897 C1900 1.463 . S
C1897 C1902 1.350 . S
C1897 N1905 1.427 . S
C1898 H1889 0.930 . S
C1898 C1896 1.378 . S
C1898 C1899 1.367 . S
C1899 C1898 1.367 . S
C1899 C1901 1.433 . S
C1900 C1896 1.350 . S
C1900 C1897 1.463 . S
C1900 N1904 1.427 . S
C1901 H1891 0.929 . S
C1901 C1899 1.433 . S
C1901 N1904 1.384 . S
C1902 H1893 0.929 . S
C1902 C1894 1.378 . S
C1902 C1897 1.350 . S
C1903 H1890 0.929 . S
C1903 C1895 1.433 . S
C1903 N1905 1.384 . S
N1904 C1900 1.427 . S
N1904 C1901 1.384 . S
N1905 C1897 1.427 . S
N1905 C1903 1.384 . S
H1906 C1912 0.930 . S
H1907 C1916 0.930 . S
H1908 C1921 0.929 . S
H1909 C1919 0.929 . S
H1910 C1914 0.929 . S
H1911 C1920 0.929 . S
C1912 H1906 0.930 . S
C1912 C1913 1.367 . S
C1912 C1920 1.378 . S
C1913 C1912 1.367 . S
C1913 C1921 1.433 . S
C1914 H1910 0.929 . S
C1914 C1916 1.378 . S
C1914 C1918 1.350 . S
C1915 C1918 1.463 . S
C1915 C1920 1.350 . S
C1915 N1923 1.427 . S
C1916 H1907 0.930 . S
C1916 C1914 1.378 . S
C1916 C1917 1.367 . S
C1917 C1916 1.367 . S
C1917 C1919 1.433 . S
C1918 C1914 1.350 . S
C1918 C1915 1.463 . S
C1918 N1922 1.427 . S
C1919 H1909 0.929 . S
C1919 C1917 1.433 . S
C1919 N1922 1.384 . S
C1920 H1911 0.929 . S
C1920 C1912 1.378 . S
C1920 C1915 1.350 . S
C1921 H1908 0.929 . S
C1921 C1913 1.433 . S
C1921 N1923 1.384 . S
N1922 C1918 1.427 . S
N1922 C1919 1.384 . S
N1923 C1915 1.427 . S
N1923 C1921 1.384 . S
H1924 C1930 0.930 . S
H1925 C1934 0.930 . S
H1926 C1939 0.929 . S
H1927 C1937 0.929 . S
H1928 C1932 0.929 . S
H1929 C1938 0.929 . S
C1930 H1924 0.930 . S
C1930 C1931 1.367 . S
C1930 C1938 1.378 . S
C1931 C1930 1.367 . S
C1931 C1939 1.433 . S
C1932 H1928 0.929 . S
C1932 C1934 1.378 . S
C1932 C1936 1.350 . S
C1933 C1936 1.463 . S
C1933 C1938 1.350 . S
C1933 N1941 1.427 . S
C1934 H1925 0.930 . S
C1934 C1932 1.378 . S
C1934 C1935 1.367 . S
C1935 C1934 1.367 . S
C1935 C1937 1.433 . S
C1936 C1932 1.350 . S
C1936 C1933 1.463 . S
C1936 N1940 1.427 . S
C1937 H1927 0.929 . S
C1937 C1935 1.433 . S
C1937 N1940 1.384 . S
C1938 H1929 0.929 . S
C1938 C1930 1.378 . S
C1938 C1933 1.350 . S
C1939 H1926 0.929 . S
C1939 C1931 1.433 . S
C1939 N1941 1.384 . S
N1940 C1936 1.427 . S
N1940 C1937 1.384 . S
N1941 C1933 1.427 . S
N1941 C1939 1.384 . S
H1942 C1948 0.930 . S
H1943 C1952 0.930 . S
H1944 C1957 0.929 . S
H1945 C1955 0.929 . S
H1946 C1950 0.929 . S
H1947 C1956 0.929 . S
C1948 H1942 0.930 . S
C1948 C1949 1.367 . S
C1948 C1956 1.378 . S
C1949 C1948 1.367 . S
C1949 C1957 1.433 . S
C1950 H1946 0.929 . S
C1950 C1952 1.378 . S
C1950 C1954 1.350 . S
C1951 C1954 1.463 . S
C1951 C1956 1.350 . S
C1951 N1959 1.427 . S
C1952 H1943 0.930 . S
C1952 C1950 1.378 . S
C1952 C1953 1.367 . S
C1953 C1952 1.367 . S
C1953 C1955 1.433 . S
C1954 C1950 1.350 . S
C1954 C1951 1.463 . S
C1954 N1958 1.427 . S
C1955 H1945 0.929 . S
C1955 C1953 1.433 . S
C1955 N1958 1.384 . S
C1956 H1947 0.929 . S
C1956 C1948 1.378 . S
C1956 C1951 1.350 . S
C1957 H1944 0.929 . S
C1957 C1949 1.433 . S
C1957 N1959 1.384 . S
N1958 C1954 1.427 . S
N1958 C1955 1.384 . S
N1959 C1951 1.427 . S
N1959 C1957 1.384 . S
H1960 C1966 0.930 . S
H1961 C1970 0.930 . S
H1962 C1975 0.929 . S
H1963 C1973 0.929 . S
H1964 C1968 0.929 . S
H1965 C1974 0.929 . S
C1966 H1960 0.930 . S
C1966 C1967 1.367 . S
C1966 C1974 1.378 . S
C1967 C1966 1.367 . S
C1967 C1975 1.433 . S
C1968 H1964 0.929 . S
C1968 C1970 1.378 . S
C1968 C1972 1.350 . S
C1969 C1972 1.463 . S
C1969 C1974 1.350 . S
C1969 N1977 1.427 . S
C1970 H1961 0.930 . S
C1970 C1968 1.378 . S
C1970 C1971 1.367 . S
C1971 C1970 1.367 . S
C1971 C1973 1.433 . S
C1972 C1968 1.350 . S
C1972 C1969 1.463 . S
C1972 N1976 1.427 . S
C1973 H1963 0.929 . S
C1973 C1971 1.433 . S
C1973 N1976 1.384 . S
C1974 H1965 0.929 . S
C1974 C1966 1.378 . S
C1974 C1969 1.350 . S
C1975 H1962 0.929 . S
C1975 C1967 1.433 . S
C1975 N1977 1.384 . S
N1976 C1972 1.427 . S
N1976 C1973 1.384 . S
N1977 C1969 1.427 . S
N1977 C1975 1.384 . S
H1978 C1984 0.930 . S
H1979 C1988 0.930 . S
H1980 C1993 0.929 . S
H1981 C1991 0.929 . S
H1982 C1986 0.929 . S
H1983 C1992 0.929 . S
C1984 H1978 0.930 . S
C1984 C1985 1.367 . S
C1984 C1992 1.378 . S
C1985 C1984 1.367 . S
C1985 C1993 1.433 . S
C1986 H1982 0.929 . S
C1986 C1988 1.378 . S
C1986 C1990 1.350 . S
C1987 C1990 1.463 . S
C1987 C1992 1.350 . S
C1987 N1995 1.427 . S
C1988 H1979 0.930 . S
C1988 C1986 1.378 . S
C1988 C1989 1.367 . S
C1989 C1988 1.367 . S
C1989 C1991 1.433 . S
C1990 C1986 1.350 . S
C1990 C1987 1.463 . S
C1990 N1994 1.427 . S
C1991 H1981 0.929 . S
C1991 C1989 1.433 . S
C1991 N1994 1.384 . S
C1992 H1983 0.929 . S
C1992 C1984 1.378 . S
C1992 C1987 1.350 . S
C1993 H1980 0.929 . S
C1993 C1985 1.433 . S
C1993 N1995 1.384 . S
N1994 C1990 1.427 . S
N1994 C1991 1.384 . S
N1995 C1987 1.427 . S
N1995 C1993 1.384 . S
H1996 C2002 0.930 . S
H1997 C2006 0.930 . S
H1998 C2011 0.929 . S
H1999 C2009 0.929 . S
H2000 C2004 0.929 . S
H2001 C2010 0.929 . S
C2002 H1996 0.930 . S
C2002 C2003 1.367 . S
C2002 C2010 1.378 . S
C2003 C2002 1.367 . S
C2003 C2011 1.433 . S
C2004 H2000 0.929 . S
C2004 C2006 1.378 . S
C2004 C2008 1.350 . S
C2005 C2008 1.463 . S
C2005 C2010 1.350 . S
C2005 N2013 1.427 . S
C2006 H1997 0.930 . S
C2006 C2004 1.378 . S
C2006 C2007 1.367 . S
C2007 C2006 1.367 . S
C2007 C2009 1.433 . S
C2008 C2004 1.350 . S
C2008 C2005 1.463 . S
C2008 N2012 1.427 . S
C2009 H1999 0.929 . S
C2009 C2007 1.433 . S
C2009 N2012 1.384 . S
C2010 H2001 0.929 . S
C2010 C2002 1.378 . S
C2010 C2005 1.350 . S
C2011 H1998 0.929 . S
C2011 C2003 1.433 . S
C2011 N2013 1.384 . S
N2012 C2008 1.427 . S
N2012 C2009 1.384 . S
N2013 C2005 1.427 . S
N2013 C2011 1.384 . S
H2014 C2020 0.930 . S
H2015 C2024 0.930 . S
H2016 C2029 0.929 . S
H2017 C2027 0.929 . S
H2018 C2022 0.929 . S
H2019 C2028 0.929 . S
C2020 H2014 0.930 . S
C2020 C2021 1.367 . S
C2020 C2028 1.378 . S
C2021 C2020 1.367 . S
C2021 C2029 1.433 . S
C2022 H2018 0.929 . S
C2022 C2024 1.378 . S
C2022 C2026 1.350 . S
C2023 C2026 1.463 . S
C2023 C2028 1.350 . S
C2023 N2031 1.427 . S
C2024 H2015 0.930 . S
C2024 C2022 1.378 . S
C2024 C2025 1.367 . S
C2025 C2024 1.367 . S
C2025 C2027 1.433 . S
C2026 C2022 1.350 . S
C2026 C2023 1.463 . S
C2026 N2030 1.427 . S
C2027 H2017 0.929 . S
C2027 C2025 1.433 . S
C2027 N2030 1.384 . S
C2028 H2019 0.929 . S
C2028 C2020 1.378 . S
C2028 C2023 1.350 . S
C2029 H2016 0.929 . S
C2029 C2021 1.433 . S
C2029 N2031 1.384 . S
N2030 C2026 1.427 . S
N2030 C2027 1.384 . S
N2031 C2023 1.427 . S
N2031 C2029 1.384 . S
H2032 C2038 0.930 . S
H2033 C2042 0.930 . S
H2034 C2047 0.929 . S
H2035 C2045 0.929 . S
H2036 C2040 0.929 . S
H2037 C2046 0.929 . S
C2038 H2032 0.930 . S
C2038 C2039 1.367 . S
C2038 C2046 1.378 . S
C2039 C2038 1.367 . S
C2039 C2047 1.433 . S
C2040 H2036 0.929 . S
C2040 C2042 1.378 . S
C2040 C2044 1.350 . S
C2041 C2044 1.463 . S
C2041 C2046 1.350 . S
C2041 N2049 1.427 . S
C2042 H2033 0.930 . S
C2042 C2040 1.378 . S
C2042 C2043 1.367 . S
C2043 C2042 1.367 . S
C2043 C2045 1.433 . S
C2044 C2040 1.350 . S
C2044 C2041 1.463 . S
C2044 N2048 1.427 . S
C2045 H2035 0.929 . S
C2045 C2043 1.433 . S
C2045 N2048 1.384 . S
C2046 H2037 0.929 . S
C2046 C2038 1.378 . S
C2046 C2041 1.350 . S
C2047 H2034 0.929 . S
C2047 C2039 1.433 . S
C2047 N2049 1.384 . S
N2048 C2044 1.427 . S
N2048 C2045 1.384 . S
N2049 C2041 1.427 . S
N2049 C2047 1.384 . S
H2050 C2056 0.930 . S
H2051 C2060 0.930 . S
H2052 C2065 0.929 . S
H2053 C2063 0.929 . S
H2054 C2058 0.929 . S
H2055 C2064 0.929 . S
C2056 H2050 0.930 . S
C2056 C2057 1.367 . S
C2056 C2064 1.378 . S
C2057 C2056 1.367 . S
C2057 C2065 1.433 . S
C2058 H2054 0.929 . S
C2058 C2060 1.378 . S
C2058 C2062 1.350 . S
C2059 C2062 1.463 . S
C2059 C2064 1.350 . S
C2059 N2067 1.427 . S
C2060 H2051 0.930 . S
C2060 C2058 1.378 . S
C2060 C2061 1.367 . S
C2061 C2060 1.367 . S
C2061 C2063 1.433 . S
C2062 C2058 1.350 . S
C2062 C2059 1.463 . S
C2062 N2066 1.427 . S
C2063 H2053 0.929 . S
C2063 C2061 1.433 . S
C2063 N2066 1.384 . S
C2064 H2055 0.929 . S
C2064 C2056 1.378 . S
C2064 C2059 1.350 . S
C2065 H2052 0.929 . S
C2065 C2057 1.433 . S
C2065 N2067 1.384 . S
N2066 C2062 1.427 . S
N2066 C2063 1.384 . S
N2067 C2059 1.427 . S
N2067 C2065 1.384 . S
H2068 C2074 0.930 . S
H2069 C2078 0.930 . S
H2070 C2083 0.929 . S
H2071 C2081 0.929 . S
H2072 C2076 0.929 . S
H2073 C2082 0.929 . S
C2074 H2068 0.930 . S
C2074 C2075 1.367 . S
C2074 C2082 1.378 . S
C2075 C2074 1.367 . S
C2075 C2083 1.433 . S
C2076 H2072 0.929 . S
C2076 C2078 1.378 . S
C2076 C2080 1.350 . S
C2077 C2080 1.463 . S
C2077 C2082 1.350 . S
C2077 N2085 1.427 . S
C2078 H2069 0.930 . S
C2078 C2076 1.378 . S
C2078 C2079 1.367 . S
C2079 C2078 1.367 . S
C2079 C2081 1.433 . S
C2080 C2076 1.350 . S
C2080 C2077 1.463 . S
C2080 N2084 1.427 . S
C2081 H2071 0.929 . S
C2081 C2079 1.433 . S
C2081 N2084 1.384 . S
C2082 H2073 0.929 . S
C2082 C2074 1.378 . S
C2082 C2077 1.350 . S
C2083 H2070 0.929 . S
C2083 C2075 1.433 . S
C2083 N2085 1.384 . S
N2084 C2080 1.427 . S
N2084 C2081 1.384 . S
N2085 C2077 1.427 . S
N2085 C2083 1.384 . S
H2086 C2092 0.930 . S
H2087 C2096 0.930 . S
H2088 C2101 0.929 . S
H2089 C2099 0.929 . S
H2090 C2094 0.929 . S
H2091 C2100 0.929 . S
C2092 H2086 0.930 . S
C2092 C2093 1.367 . S
C2092 C2100 1.378 . S
C2093 C2092 1.367 . S
C2093 C2101 1.433 . S
C2094 H2090 0.929 . S
C2094 C2096 1.378 . S
C2094 C2098 1.350 . S
C2095 C2098 1.463 . S
C2095 C2100 1.350 . S
C2095 N2103 1.427 . S
C2096 H2087 0.930 . S
C2096 C2094 1.378 . S
C2096 C2097 1.367 . S
C2097 C2096 1.367 . S
C2097 C2099 1.433 . S
C2098 C2094 1.350 . S
C2098 C2095 1.463 . S
C2098 N2102 1.427 . S
C2099 H2089 0.929 . S
C2099 C2097 1.433 . S
C2099 N2102 1.384 . S
C2100 H2091 0.929 . S
C2100 C2092 1.378 . S
C2100 C2095 1.350 . S
C2101 H2088 0.929 . S
C2101 C2093 1.433 . S
C2101 N2103 1.384 . S
N2102 C2098 1.427 . S
N2102 C2099 1.384 . S
N2103 C2095 1.427 . S
N2103 C2101 1.384 . S
H2104 C2110 0.930 . S
H2105 C2114 0.930 . S
H2106 C2119 0.929 . S
H2107 C2117 0.929 . S
H2108 C2112 0.929 . S
H2109 C2118 0.929 . S
C2110 H2104 0.930 . S
C2110 C2111 1.367 . S
C2110 C2118 1.378 . S
C2111 C2110 1.367 . S
C2111 C2119 1.433 . S
C2112 H2108 0.929 . S
C2112 C2114 1.378 . S
C2112 C2116 1.350 . S
C2113 C2116 1.463 . S
C2113 C2118 1.350 . S
C2113 N2121 1.427 . S
C2114 H2105 0.930 . S
C2114 C2112 1.378 . S
C2114 C2115 1.367 . S
C2115 C2114 1.367 . S
C2115 C2117 1.433 . S
C2116 C2112 1.350 . S
C2116 C2113 1.463 . S
C2116 N2120 1.427 . S
C2117 H2107 0.929 . S
C2117 C2115 1.433 . S
C2117 N2120 1.384 . S
C2118 H2109 0.929 . S
C2118 C2110 1.378 . S
C2118 C2113 1.350 . S
C2119 H2106 0.929 . S
C2119 C2111 1.433 . S
C2119 N2121 1.384 . S
N2120 C2116 1.427 . S
N2120 C2117 1.384 . S
N2121 C2113 1.427 . S
N2121 C2119 1.384 . S
H2122 C2128 0.930 . S
H2123 C2132 0.930 . S
H2124 C2137 0.929 . S
H2125 C2135 0.929 . S
H2126 C2130 0.929 . S
H2127 C2136 0.929 . S
C2128 H2122 0.930 . S
C2128 C2129 1.367 . S
C2128 C2136 1.378 . S
C2129 C2128 1.367 . S
C2129 C2137 1.433 . S
C2130 H2126 0.929 . S
C2130 C2132 1.378 . S
C2130 C2134 1.350 . S
C2131 C2134 1.463 . S
C2131 C2136 1.350 . S
C2131 N2139 1.427 . S
C2132 H2123 0.930 . S
C2132 C2130 1.378 . S
C2132 C2133 1.367 . S
C2133 C2132 1.367 . S
C2133 C2135 1.433 . S
C2134 C2130 1.350 . S
C2134 C2131 1.463 . S
C2134 N2138 1.427 . S
C2135 H2125 0.929 . S
C2135 C2133 1.433 . S
C2135 N2138 1.384 . S
C2136 H2127 0.929 . S
C2136 C2128 1.378 . S
C2136 C2131 1.350 . S
C2137 H2124 0.929 . S
C2137 C2129 1.433 . S
C2137 N2139 1.384 . S
N2138 C2134 1.427 . S
N2138 C2135 1.384 . S
N2139 C2131 1.427 . S
N2139 C2137 1.384 . S
H2140 C2146 0.930 . S
H2141 C2150 0.930 . S
H2142 C2155 0.929 . S
H2143 C2153 0.929 . S
H2144 C2148 0.929 . S
H2145 C2154 0.929 . S
C2146 H2140 0.930 . S
C2146 C2147 1.367 . S
C2146 C2154 1.378 . S
C2147 C2146 1.367 . S
C2147 C2155 1.433 . S
C2148 H2144 0.929 . S
C2148 C2150 1.378 . S
C2148 C2152 1.350 . S
C2149 C2152 1.463 . S
C2149 C2154 1.350 . S
C2149 N2157 1.427 . S
C2150 H2141 0.930 . S
C2150 C2148 1.378 . S
C2150 C2151 1.367 . S
C2151 C2150 1.367 . S
C2151 C2153 1.433 . S
C2152 C2148 1.350 . S
C2152 C2149 1.463 . S
C2152 N2156 1.427 . S
C2153 H2143 0.929 . S
C2153 C2151 1.433 . S
C2153 N2156 1.384 . S
C2154 H2145 0.929 . S
C2154 C2146 1.378 . S
C2154 C2149 1.350 . S
C2155 H2142 0.929 . S
C2155 C2147 1.433 . S
C2155 N2157 1.384 . S
N2156 C2152 1.427 . S
N2156 C2153 1.384 . S
N2157 C2149 1.427 . S
N2157 C2155 1.384 . S
H2158 C2164 0.930 . S
H2159 C2168 0.930 . S
H2160 C2173 0.929 . S
H2161 C2171 0.929 . S
H2162 C2166 0.929 . S
H2163 C2172 0.929 . S
C2164 H2158 0.930 . S
C2164 C2165 1.367 . S
C2164 C2172 1.378 . S
C2165 C2164 1.367 . S
C2165 C2173 1.433 . S
C2166 H2162 0.929 . S
C2166 C2168 1.378 . S
C2166 C2170 1.350 . S
C2167 C2170 1.463 . S
C2167 C2172 1.350 . S
C2167 N2175 1.427 . S
C2168 H2159 0.930 . S
C2168 C2166 1.378 . S
C2168 C2169 1.367 . S
C2169 C2168 1.367 . S
C2169 C2171 1.433 . S
C2170 C2166 1.350 . S
C2170 C2167 1.463 . S
C2170 N2174 1.427 . S
C2171 H2161 0.929 . S
C2171 C2169 1.433 . S
C2171 N2174 1.384 . S
C2172 H2163 0.929 . S
C2172 C2164 1.378 . S
C2172 C2167 1.350 . S
C2173 H2160 0.929 . S
C2173 C2165 1.433 . S
C2173 N2175 1.384 . S
N2174 C2170 1.427 . S
N2174 C2171 1.384 . S
N2175 C2167 1.427 . S
N2175 C2173 1.384 . S
H2176 C2182 0.930 . S
H2177 C2186 0.930 . S
H2178 C2191 0.929 . S
H2179 C2189 0.929 . S
H2180 C2184 0.929 . S
H2181 C2190 0.929 . S
C2182 H2176 0.930 . S
C2182 C2183 1.367 . S
C2182 C2190 1.378 . S
C2183 C2182 1.367 . S
C2183 C2191 1.433 . S
C2184 H2180 0.929 . S
C2184 C2186 1.378 . S
C2184 C2188 1.350 . S
C2185 C2188 1.463 . S
C2185 C2190 1.350 . S
C2185 N2193 1.427 . S
C2186 H2177 0.930 . S
C2186 C2184 1.378 . S
C2186 C2187 1.367 . S
C2187 C2186 1.367 . S
C2187 C2189 1.433 . S
C2188 C2184 1.350 . S
C2188 C2185 1.463 . S
C2188 N2192 1.427 . S
C2189 H2179 0.929 . S
C2189 C2187 1.433 . S
C2189 N2192 1.384 . S
C2190 H2181 0.929 . S
C2190 C2182 1.378 . S
C2190 C2185 1.350 . S
C2191 H2178 0.929 . S
C2191 C2183 1.433 . S
C2191 N2193 1.384 . S
N2192 C2188 1.427 . S
N2192 C2189 1.384 . S
N2193 C2185 1.427 . S
N2193 C2191 1.384 . S
H2194 C2200 0.930 . S
H2195 C2204 0.930 . S
H2196 C2209 0.929 . S
H2197 C2207 0.929 . S
H2198 C2202 0.929 . S
H2199 C2208 0.929 . S
C2200 H2194 0.930 . S
C2200 C2201 1.367 . S
C2200 C2208 1.378 . S
C2201 C2200 1.367 . S
C2201 C2209 1.433 . S
C2202 H2198 0.929 . S
C2202 C2204 1.378 . S
C2202 C2206 1.350 . S
C2203 C2206 1.463 . S
C2203 C2208 1.350 . S
C2203 N2211 1.427 . S
C2204 H2195 0.930 . S
C2204 C2202 1.378 . S
C2204 C2205 1.367 1_655 S
C2205 C2204 1.367 1_455 S
C2205 C2207 1.433 . S
C2206 C2202 1.350 . S
C2206 C2203 1.463 . S
C2206 N2210 1.427 . S
C2207 H2197 0.929 . S
C2207 C2205 1.433 . S
C2207 N2210 1.384 1_455 S
C2208 H2199 0.929 . S
C2208 C2200 1.378 . S
C2208 C2203 1.350 . S
C2209 H2196 0.929 . S
C2209 C2201 1.433 . S
C2209 N2211 1.384 . S
N2210 C2206 1.427 . S
N2210 C2207 1.384 1_655 S
N2211 C2203 1.427 . S
N2211 C2209 1.384 . S
H2212 C2218 0.930 . S
H2213 C2222 0.930 . S
H2214 C2227 0.929 . S
H2215 C2225 0.929 . S
H2216 C2220 0.929 . S
H2217 C2226 0.929 . S
C2218 H2212 0.930 . S
C2218 C2219 1.367 . S
C2218 C2226 1.378 . S
C2219 C2218 1.367 . S
C2219 C2227 1.433 . S
C2220 H2216 0.929 . S
C2220 C2222 1.378 . S
C2220 C2224 1.350 . S
C2221 C2224 1.463 . S
C2221 C2226 1.350 . S
C2221 N2229 1.427 . S
C2222 H2213 0.930 . S
C2222 C2220 1.378 . S
C2222 C2223 1.367 . S
C2223 C2222 1.367 . S
C2223 C2225 1.433 . S
C2224 C2220 1.350 . S
C2224 C2221 1.463 . S
C2224 N2228 1.427 . S
C2225 H2215 0.929 . S
C2225 C2223 1.433 . S
C2225 N2228 1.384 . S
C2226 H2217 0.929 . S
C2226 C2218 1.378 . S
C2226 C2221 1.350 . S
C2227 H2214 0.929 . S
C2227 C2219 1.433 . S
C2227 N2229 1.384 . S
N2228 C2224 1.427 . S
N2228 C2225 1.384 . S
N2229 C2221 1.427 . S
N2229 C2227 1.384 . S
H2230 C2236 0.930 . S
H2231 C2240 0.930 . S
H2232 C2245 0.929 . S
H2233 C2243 0.929 . S
H2234 C2238 0.929 . S
H2235 C2244 0.929 . S
C2236 H2230 0.930 . S
C2236 C2237 1.367 . S
C2236 C2244 1.378 . S
C2237 C2236 1.367 . S
C2237 C2245 1.433 . S
C2238 H2234 0.929 . S
C2238 C2240 1.378 . S
C2238 C2242 1.350 . S
C2239 C2242 1.463 . S
C2239 C2244 1.350 . S
C2239 N2247 1.427 . S
C2240 H2231 0.930 . S
C2240 C2238 1.378 . S
C2240 C2241 1.367 . S
C2241 C2240 1.367 . S
C2241 C2243 1.433 . S
C2242 C2238 1.350 . S
C2242 C2239 1.463 . S
C2242 N2246 1.427 . S
C2243 H2233 0.929 . S
C2243 C2241 1.433 . S
C2243 N2246 1.384 . S
C2244 H2235 0.929 . S
C2244 C2236 1.378 . S
C2244 C2239 1.350 . S
C2245 H2232 0.929 . S
C2245 C2237 1.433 . S
C2245 N2247 1.384 . S
N2246 C2242 1.427 . S
N2246 C2243 1.384 . S
N2247 C2239 1.427 . S
N2247 C2245 1.384 . S
H2248 C2254 0.930 . S
H2249 C2258 0.930 . S
H2250 C2263 0.929 . S
H2251 C2261 0.929 . S
H2252 C2256 0.929 . S
H2253 C2262 0.929 . S
C2254 H2248 0.930 . S
C2254 C2255 1.367 . S
C2254 C2262 1.378 . S
C2255 C2254 1.367 . S
C2255 C2263 1.433 . S
C2256 H2252 0.929 . S
C2256 C2258 1.378 . S
C2256 C2260 1.350 . S
C2257 C2260 1.463 . S
C2257 C2262 1.350 . S
C2257 N2265 1.427 . S
C2258 H2249 0.930 . S
C2258 C2256 1.378 . S
C2258 C2259 1.367 . S
C2259 C2258 1.367 . S
C2259 C2261 1.433 . S
C2260 C2256 1.350 . S
C2260 C2257 1.463 . S
C2260 N2264 1.427 . S
C2261 H2251 0.929 . S
C2261 C2259 1.433 . S
C2261 N2264 1.384 . S
C2262 H2253 0.929 . S
C2262 C2254 1.378 . S
C2262 C2257 1.350 . S
C2263 H2250 0.929 . S
C2263 C2255 1.433 . S
C2263 N2265 1.384 . S
N2264 C2260 1.427 . S
N2264 C2261 1.384 . S
N2265 C2257 1.427 . S
N2265 C2263 1.384 . S
H2266 C2272 0.930 . S
H2267 C2276 0.930 . S
H2268 C2281 0.929 . S
H2269 C2279 0.929 . S
H2270 C2274 0.929 . S
H2271 C2280 0.929 . S
C2272 H2266 0.930 . S
C2272 C2273 1.367 . S
C2272 C2280 1.378 . S
C2273 C2272 1.367 . S
C2273 C2281 1.433 . S
C2274 H2270 0.929 . S
C2274 C2276 1.378 . S
C2274 C2278 1.350 . S
C2275 C2278 1.463 . S
C2275 C2280 1.350 . S
C2275 N2283 1.427 . S
C2276 H2267 0.930 . S
C2276 C2274 1.378 . S
C2276 C2277 1.367 . S
C2277 C2276 1.367 . S
C2277 C2279 1.433 . S
C2278 C2274 1.350 . S
C2278 C2275 1.463 . S
C2278 N2282 1.427 . S
C2279 H2269 0.929 . S
C2279 C2277 1.433 . S
C2279 N2282 1.384 . S
C2280 H2271 0.929 . S
C2280 C2272 1.378 . S
C2280 C2275 1.350 . S
C2281 H2268 0.929 . S
C2281 C2273 1.433 . S
C2281 N2283 1.384 . S
N2282 C2278 1.427 . S
N2282 C2279 1.384 . S
N2283 C2275 1.427 . S
N2283 C2281 1.384 . S
H2284 C2290 0.930 . S
H2285 C2294 0.930 . S
H2286 C2299 0.929 . S
H2287 C2297 0.929 . S
H2288 C2292 0.929 . S
H2289 C2298 0.929 . S
C2290 H2284 0.930 . S
C2290 C2291 1.367 . S
C2290 C2298 1.378 . S
C2291 C2290 1.367 . S
C2291 C2299 1.433 . S
C2292 H2288 0.929 . S
C2292 C2294 1.378 . S
C2292 C2296 1.350 . S
C2293 C2296 1.463 . S
C2293 C2298 1.350 . S
C2293 N2301 1.427 . S
C2294 H2285 0.930 . S
C2294 C2292 1.378 . S
C2294 C2295 1.367 . S
C2295 C2294 1.367 . S
C2295 C2297 1.433 . S
C2296 C2292 1.350 . S
C2296 C2293 1.463 . S
C2296 N2300 1.427 . S
C2297 H2287 0.929 . S
C2297 C2295 1.433 . S
C2297 N2300 1.384 . S
C2298 H2289 0.929 . S
C2298 C2290 1.378 . S
C2298 C2293 1.350 . S
C2299 H2286 0.929 . S
C2299 C2291 1.433 . S
C2299 N2301 1.384 . S
N2300 C2296 1.427 . S
N2300 C2297 1.384 . S
N2301 C2293 1.427 . S
N2301 C2299 1.384 . S
H2302 C2308 0.930 . S
H2303 C2312 0.930 . S
H2304 C2317 0.929 . S
H2305 C2315 0.929 . S
H2306 C2310 0.929 . S
H2307 C2316 0.929 . S
C2308 H2302 0.930 . S
C2308 C2309 1.367 1_655 S
C2308 C2316 1.378 . S
C2309 C2308 1.367 1_455 S
C2309 C2317 1.433 . S
C2310 H2306 0.929 . S
C2310 C2312 1.378 . S
C2310 C2314 1.350 . S
C2311 C2314 1.463 . S
C2311 C2316 1.350 . S
C2311 N2319 1.427 . S
C2312 H2303 0.930 . S
C2312 C2310 1.378 . S
C2312 C2313 1.367 . S
C2313 C2312 1.367 . S
C2313 C2315 1.433 . S
C2314 C2310 1.350 . S
C2314 C2311 1.463 . S
C2314 N2318 1.427 . S
C2315 H2305 0.929 . S
C2315 C2313 1.433 . S
C2315 N2318 1.384 . S
C2316 H2307 0.929 . S
C2316 C2308 1.378 . S
C2316 C2311 1.350 . S
C2317 H2304 0.929 . S
C2317 C2309 1.433 . S
C2317 N2319 1.384 1_455 S
N2318 C2314 1.427 . S
N2318 C2315 1.384 . S
N2319 C2311 1.427 . S
N2319 C2317 1.384 1_655 S
H2320 C2326 0.930 . S
H2321 C2330 0.930 . S
H2322 C2335 0.929 . S
H2323 C2333 0.929 . S
H2324 C2328 0.929 . S
H2325 C2334 0.929 . S
C2326 H2320 0.930 . S
C2326 C2327 1.367 . S
C2326 C2334 1.378 . S
C2327 C2326 1.367 . S
C2327 C2335 1.433 . S
C2328 H2324 0.929 . S
C2328 C2330 1.378 . S
C2328 C2332 1.350 . S
C2329 C2332 1.463 . S
C2329 C2334 1.350 . S
C2329 N2337 1.427 . S
C2330 H2321 0.930 . S
C2330 C2328 1.378 . S
C2330 C2331 1.367 . S
C2331 C2330 1.367 . S
C2331 C2333 1.433 . S
C2332 C2328 1.350 . S
C2332 C2329 1.463 . S
C2332 N2336 1.427 . S
C2333 H2323 0.929 . S
C2333 C2331 1.433 . S
C2333 N2336 1.384 . S
C2334 H2325 0.929 . S
C2334 C2326 1.378 . S
C2334 C2329 1.350 . S
C2335 H2322 0.929 . S
C2335 C2327 1.433 . S
C2335 N2337 1.384 . S
N2336 C2332 1.427 . S
N2336 C2333 1.384 . S
N2337 C2329 1.427 . S
N2337 C2335 1.384 . S
H2338 C2344 0.930 . S
H2339 C2348 0.930 . S
H2340 C2353 0.929 . S
H2341 C2351 0.929 . S
H2342 C2346 0.929 . S
H2343 C2352 0.929 . S
C2344 H2338 0.930 . S
C2344 C2345 1.367 . S
C2344 C2352 1.378 1_655 S
C2345 C2344 1.367 . S
C2345 C2353 1.433 1_655 S
C2346 H2342 0.929 . S
C2346 C2348 1.378 . S
C2346 C2350 1.350 . S
C2347 C2350 1.463 . S
C2347 C2352 1.350 . S
C2347 N2355 1.427 . S
C2348 H2339 0.930 . S
C2348 C2346 1.378 . S
C2348 C2349 1.367 . S
C2349 C2348 1.367 . S
C2349 C2351 1.433 . S
C2350 C2346 1.350 . S
C2350 C2347 1.463 . S
C2350 N2354 1.427 . S
C2351 H2341 0.929 . S
C2351 C2349 1.433 . S
C2351 N2354 1.384 . S
C2352 H2343 0.929 . S
C2352 C2344 1.378 1_455 S
C2352 C2347 1.350 . S
C2353 H2340 0.929 . S
C2353 C2345 1.433 1_455 S
C2353 N2355 1.384 . S
N2354 C2350 1.427 . S
N2354 C2351 1.384 . S
N2355 C2347 1.427 . S
N2355 C2353 1.384 . S
H2356 C2362 0.930 . S
H2357 C2366 0.930 . S
H2358 C2371 0.929 . S
H2359 C2369 0.929 . S
H2360 C2364 0.929 . S
H2361 C2370 0.929 . S
C2362 H2356 0.930 . S
C2362 C2363 1.367 . S
C2362 C2370 1.378 . S
C2363 C2362 1.367 . S
C2363 C2371 1.433 . S
C2364 H2360 0.929 . S
C2364 C2366 1.378 . S
C2364 C2368 1.350 . S
C2365 C2368 1.463 . S
C2365 C2370 1.350 . S
C2365 N2373 1.427 . S
C2366 H2357 0.930 . S
C2366 C2364 1.378 . S
C2366 C2367 1.367 . S
C2367 C2366 1.367 . S
C2367 C2369 1.433 . S
C2368 C2364 1.350 . S
C2368 C2365 1.463 . S
C2368 N2372 1.427 . S
C2369 H2359 0.929 . S
C2369 C2367 1.433 . S
C2369 N2372 1.384 . S
C2370 H2361 0.929 . S
C2370 C2362 1.378 . S
C2370 C2365 1.350 . S
C2371 H2358 0.929 . S
C2371 C2363 1.433 . S
C2371 N2373 1.384 . S
N2372 C2368 1.427 . S
N2372 C2369 1.384 . S
N2373 C2365 1.427 . S
N2373 C2371 1.384 . S
H2374 C2380 0.930 . S
H2375 C2384 0.930 . S
H2376 C2389 0.929 . S
H2377 C2387 0.929 . S
H2378 C2382 0.929 . S
H2379 C2388 0.929 . S
C2380 H2374 0.930 . S
C2380 C2381 1.367 . S
C2380 C2388 1.378 . S
C2381 C2380 1.367 . S
C2381 C2389 1.433 . S
C2382 H2378 0.929 . S
C2382 C2384 1.378 . S
C2382 C2386 1.350 . S
C2383 C2386 1.463 . S
C2383 C2388 1.350 . S
C2383 N2391 1.427 . S
C2384 H2375 0.930 . S
C2384 C2382 1.378 . S
C2384 C2385 1.367 . S
C2385 C2384 1.367 . S
C2385 C2387 1.433 . S
C2386 C2382 1.350 . S
C2386 C2383 1.463 . S
C2386 N2390 1.427 . S
C2387 H2377 0.929 . S
C2387 C2385 1.433 . S
C2387 N2390 1.384 . S
C2388 H2379 0.929 . S
C2388 C2380 1.378 . S
C2388 C2383 1.350 . S
C2389 H2376 0.929 . S
C2389 C2381 1.433 . S
C2389 N2391 1.384 . S
N2390 C2386 1.427 . S
N2390 C2387 1.384 . S
N2391 C2383 1.427 . S
N2391 C2389 1.384 . S
H2392 C2398 0.930 . S
H2393 C2402 0.930 . S
H2394 C2407 0.929 . S
H2395 C2405 0.929 . S
H2396 C2400 0.929 . S
H2397 C2406 0.929 . S
C2398 H2392 0.930 . S
C2398 C2399 1.367 . S
C2398 C2406 1.378 . S
C2399 C2398 1.367 . S
C2399 C2407 1.433 . S
C2400 H2396 0.929 . S
C2400 C2402 1.378 . S
C2400 C2404 1.350 . S
C2401 C2404 1.463 . S
C2401 C2406 1.350 . S
C2401 N2409 1.427 . S
C2402 H2393 0.930 . S
C2402 C2400 1.378 . S
C2402 C2403 1.367 . S
C2403 C2402 1.367 . S
C2403 C2405 1.433 . S
C2404 C2400 1.350 . S
C2404 C2401 1.463 . S
C2404 N2408 1.427 . S
C2405 H2395 0.929 . S
C2405 C2403 1.433 . S
C2405 N2408 1.384 . S
C2406 H2397 0.929 . S
C2406 C2398 1.378 . S
C2406 C2401 1.350 . S
C2407 H2394 0.929 . S
C2407 C2399 1.433 . S
C2407 N2409 1.384 . S
N2408 C2404 1.427 . S
N2408 C2405 1.384 . S
N2409 C2401 1.427 . S
N2409 C2407 1.384 . S
H2410 C2416 0.930 . S
H2411 C2420 0.930 . S
H2412 C2425 0.929 . S
H2413 C2423 0.929 . S
H2414 C2418 0.929 . S
H2415 C2424 0.929 . S
C2416 H2410 0.930 . S
C2416 C2417 1.367 . S
C2416 C2424 1.378 . S
C2417 C2416 1.367 . S
C2417 C2425 1.433 . S
C2418 H2414 0.929 . S
C2418 C2420 1.378 . S
C2418 C2422 1.350 . S
C2419 C2422 1.463 . S
C2419 C2424 1.350 . S
C2419 N2427 1.427 . S
C2420 H2411 0.930 . S
C2420 C2418 1.378 . S
C2420 C2421 1.367 . S
C2421 C2420 1.367 . S
C2421 C2423 1.433 . S
C2422 C2418 1.350 . S
C2422 C2419 1.463 . S
C2422 N2426 1.427 . S
C2423 H2413 0.929 . S
C2423 C2421 1.433 . S
C2423 N2426 1.384 . S
C2424 H2415 0.929 . S
C2424 C2416 1.378 . S
C2424 C2419 1.350 . S
C2425 H2412 0.929 . S
C2425 C2417 1.433 . S
C2425 N2427 1.384 . S
N2426 C2422 1.427 . S
N2426 C2423 1.384 . S
N2427 C2419 1.427 . S
N2427 C2425 1.384 . S
H2428 C2434 0.930 . S
H2429 C2438 0.930 . S
H2430 C2443 0.929 . S
H2431 C2441 0.929 . S
H2432 C2436 0.929 . S
H2433 C2442 0.929 . S
C2434 H2428 0.930 . S
C2434 C2435 1.367 . S
C2434 C2442 1.378 . S
C2435 C2434 1.367 . S
C2435 C2443 1.433 . S
C2436 H2432 0.929 . S
C2436 C2438 1.378 . S
C2436 C2440 1.350 . S
C2437 C2440 1.463 . S
C2437 C2442 1.350 . S
C2437 N2445 1.427 . S
C2438 H2429 0.930 . S
C2438 C2436 1.378 . S
C2438 C2439 1.367 . S
C2439 C2438 1.367 . S
C2439 C2441 1.433 . S
C2440 C2436 1.350 . S
C2440 C2437 1.463 . S
C2440 N2444 1.427 . S
C2441 H2431 0.929 . S
C2441 C2439 1.433 . S
C2441 N2444 1.384 . S
C2442 H2433 0.929 . S
C2442 C2434 1.378 . S
C2442 C2437 1.350 . S
C2443 H2430 0.929 . S
C2443 C2435 1.433 . S
C2443 N2445 1.384 . S
N2444 C2440 1.427 . S
N2444 C2441 1.384 . S
N2445 C2437 1.427 . S
N2445 C2443 1.384 . S
H2446 C2452 0.930 . S
H2447 C2456 0.930 . S
H2448 C2461 0.929 . S
H2449 C2459 0.896 1_655 S
H2450 C2454 0.929 . S
H2451 C2460 0.929 . S
C2452 H2446 0.930 . S
C2452 C2453 1.367 . S
C2452 C2460 1.378 . S
C2453 C2452 1.367 . S
C2453 C2461 1.433 . S
C2454 H2450 0.929 . S
C2454 C2456 1.378 . S
C2454 C2458 1.350 . S
C2455 C2458 1.463 . S
C2455 C2460 1.350 . S
C2455 N2463 1.427 . S
C2456 H2447 0.930 . S
C2456 C2454 1.378 . S
C2456 C2457 1.367 1_455 S
C2457 C2456 1.367 1_655 S
C2457 C2459 1.429 1_655 S
C2458 C2454 1.350 . S
C2458 C2455 1.463 . S
C2458 N2462 1.427 . S
C2459 H2449 0.896 1_455 S
C2459 C2457 1.429 1_455 S
C2459 N2462 1.425 . S
C2460 H2451 0.929 . S
C2460 C2452 1.378 . S
C2460 C2455 1.350 . S
C2461 H2448 0.929 . S
C2461 C2453 1.433 . S
C2461 N2463 1.384 . S
N2462 C2458 1.427 . S
N2462 C2459 1.425 . S
N2463 C2455 1.427 . S
N2463 C2461 1.384 . S
H2464 C2470 0.930 . S
H2465 C2474 0.930 . S
H2466 C2479 0.929 . S
H2467 C2477 0.929 . S
H2468 C2472 0.929 . S
H2469 C2478 0.929 . S
C2470 H2464 0.930 . S
C2470 C2471 1.367 . S
C2470 C2478 1.378 . S
C2471 C2470 1.367 . S
C2471 C2479 1.433 . S
C2472 H2468 0.929 . S
C2472 C2474 1.378 . S
C2472 C2476 1.350 . S
C2473 C2476 1.463 . S
C2473 C2478 1.350 . S
C2473 N2481 1.427 . S
C2474 H2465 0.930 . S
C2474 C2472 1.378 . S
C2474 C2475 1.367 . S
C2475 C2474 1.367 . S
C2475 C2477 1.433 . S
C2476 C2472 1.350 . S
C2476 C2473 1.463 . S
C2476 N2480 1.427 . S
C2477 H2467 0.929 . S
C2477 C2475 1.433 . S
C2477 N2480 1.384 . S
C2478 H2469 0.929 . S
C2478 C2470 1.378 . S
C2478 C2473 1.350 . S
C2479 H2466 0.929 . S
C2479 C2471 1.433 . S
C2479 N2481 1.384 . S
N2480 C2476 1.427 . S
N2480 C2477 1.384 . S
N2481 C2473 1.427 . S
N2481 C2479 1.384 . S
H2482 C2488 0.930 . S
H2483 C2492 0.930 . S
H2484 C2497 0.929 . S
H2485 C2495 0.929 . S
H2486 C2490 0.929 . S
H2487 C2496 0.929 . S
C2488 H2482 0.930 . S
C2488 C2489 1.367 . S
C2488 C2496 1.378 . S
C2489 C2488 1.367 . S
C2489 C2497 1.433 . S
C2490 H2486 0.929 . S
C2490 C2492 1.378 . S
C2490 C2494 1.350 . S
C2491 C2494 1.463 . S
C2491 C2496 1.350 . S
C2491 N2499 1.427 . S
C2492 H2483 0.930 . S
C2492 C2490 1.378 . S
C2492 C2493 1.367 . S
C2493 C2492 1.367 . S
C2493 C2495 1.433 . S
C2494 C2490 1.350 . S
C2494 C2491 1.463 . S
C2494 N2498 1.427 . S
C2495 H2485 0.929 . S
C2495 C2493 1.433 . S
C2495 N2498 1.384 . S
C2496 H2487 0.929 . S
C2496 C2488 1.378 . S
C2496 C2491 1.350 . S
C2497 H2484 0.929 . S
C2497 C2489 1.433 . S
C2497 N2499 1.384 . S
N2498 C2494 1.427 . S
N2498 C2495 1.384 . S
N2499 C2491 1.427 . S
N2499 C2497 1.384 . S
H2500 C2506 0.930 . S
H2501 C2510 0.930 . S
H2502 C2515 0.929 . S
H2503 C2513 0.929 . S
H2504 C2508 0.929 . S
H2505 C2514 0.929 . S
C2506 H2500 0.930 . S
C2506 C2507 1.367 . S
C2506 C2514 1.378 . S
C2507 C2506 1.367 . S
C2507 C2515 1.433 . S
C2508 H2504 0.929 . S
C2508 C2510 1.378 . S
C2508 C2512 1.350 . S
C2509 C2512 1.463 . S
C2509 C2514 1.350 . S
C2509 N2517 1.427 . S
C2510 H2501 0.930 . S
C2510 C2508 1.378 . S
C2510 C2511 1.367 . S
C2511 C2510 1.367 . S
C2511 C2513 1.433 . S
C2512 C2508 1.350 . S
C2512 C2509 1.463 . S
C2512 N2516 1.427 . S
C2513 H2503 0.929 . S
C2513 C2511 1.433 . S
C2513 N2516 1.384 . S
C2514 H2505 0.929 . S
C2514 C2506 1.378 . S
C2514 C2509 1.350 . S
C2515 H2502 0.929 . S
C2515 C2507 1.433 . S
C2515 N2517 1.384 . S
N2516 C2512 1.427 . S
N2516 C2513 1.384 . S
N2517 C2509 1.427 . S
N2517 C2515 1.384 . S
H2518 C2524 0.930 . S
H2519 C2528 0.930 . S
H2520 C2533 0.929 . S
H2521 C2531 0.901 1_655 S
H2522 C2526 0.929 . S
H2523 C2532 0.929 . S
C2524 H2518 0.930 . S
C2524 C2525 1.367 . S
C2524 C2532 1.378 . S
C2525 C2524 1.367 . S
C2525 C2533 1.433 . S
C2526 H2522 0.929 . S
C2526 C2528 1.378 . S
C2526 C2530 1.350 . S
C2527 C2530 1.463 . S
C2527 C2532 1.350 . S
C2527 N2535 1.427 . S
C2528 H2519 0.930 . S
C2528 C2526 1.378 . S
C2528 C2529 1.367 1_455 S
C2529 C2528 1.367 1_655 S
C2529 C2531 1.430 1_655 S
C2530 C2526 1.350 . S
C2530 C2527 1.463 . S
C2530 N2534 1.427 . S
C2531 H2521 0.901 1_455 S
C2531 C2529 1.430 1_455 S
C2531 N2534 1.418 . S
C2532 H2523 0.929 . S
C2532 C2524 1.378 . S
C2532 C2527 1.350 . S
C2533 H2520 0.929 . S
C2533 C2525 1.433 . S
C2533 N2535 1.384 . S
N2534 C2530 1.427 . S
N2534 C2531 1.418 . S
N2535 C2527 1.427 . S
N2535 C2533 1.384 . S
H2536 C2542 0.930 . S
H2537 C2546 0.930 . S
H2538 C2551 0.929 . S
H2539 C2549 0.929 . S
H2540 C2544 0.929 . S
H2541 C2550 0.929 . S
C2542 H2536 0.930 . S
C2542 C2543 1.367 . S
C2542 C2550 1.378 . S
C2543 C2542 1.367 . S
C2543 C2551 1.433 . S
C2544 H2540 0.929 . S
C2544 C2546 1.378 . S
C2544 C2548 1.350 . S
C2545 C2548 1.463 . S
C2545 C2550 1.350 . S
C2545 N2553 1.427 . S
C2546 H2537 0.930 . S
C2546 C2544 1.378 . S
C2546 C2547 1.367 . S
C2547 C2546 1.367 . S
C2547 C2549 1.433 . S
C2548 C2544 1.350 . S
C2548 C2545 1.463 . S
C2548 N2552 1.427 . S
C2549 H2539 0.929 . S
C2549 C2547 1.433 . S
C2549 N2552 1.384 . S
C2550 H2541 0.929 . S
C2550 C2542 1.378 . S
C2550 C2545 1.350 . S
C2551 H2538 0.929 . S
C2551 C2543 1.433 . S
C2551 N2553 1.384 . S
N2552 C2548 1.427 . S
N2552 C2549 1.384 . S
N2553 C2545 1.427 . S
N2553 C2551 1.384 . S
H2554 C2560 0.932 . S
H2555 C2564 0.930 . S
H2556 C2569 0.929 . S
H2557 C2567 0.929 . S
H2558 C2562 0.929 . S
H2559 C2568 0.929 . S
C2560 H2554 0.932 . S
C2560 C2561 1.367 . S
C2560 C2568 1.376 1_655 S
C2561 C2560 1.367 . S
C2561 C2569 1.433 1_655 S
C2562 H2558 0.929 . S
C2562 C2564 1.378 . S
C2562 C2566 1.350 . S
C2563 C2566 1.463 . S
C2563 C2568 1.350 . S
C2563 N2571 1.427 . S
C2564 H2555 0.930 . S
C2564 C2562 1.378 . S
C2564 C2565 1.367 . S
C2565 C2564 1.367 . S
C2565 C2567 1.433 . S
C2566 C2562 1.350 . S
C2566 C2563 1.463 . S
C2566 N2570 1.427 . S
C2567 H2557 0.929 . S
C2567 C2565 1.433 . S
C2567 N2570 1.384 . S
C2568 H2559 0.929 . S
C2568 C2560 1.376 1_455 S
C2568 C2563 1.350 . S
C2569 H2556 0.929 . S
C2569 C2561 1.433 1_455 S
C2569 N2571 1.384 . S
N2570 C2566 1.427 . S
N2570 C2567 1.384 . S
N2571 C2563 1.427 . S
N2571 C2569 1.384 . S
H2572 C2578 0.930 . S
H2573 C2582 0.930 . S
H2574 C2587 0.929 . S
H2575 C2585 0.929 . S
H2576 C2580 0.929 . S
H2577 C2586 0.929 . S
C2578 H2572 0.930 . S
C2578 C2579 1.367 . S
C2578 C2586 1.378 . S
C2579 C2578 1.367 . S
C2579 C2587 1.433 . S
C2580 H2576 0.929 . S
C2580 C2582 1.378 . S
C2580 C2584 1.350 . S
C2581 C2584 1.463 . S
C2581 C2586 1.350 . S
C2581 N2589 1.427 . S
C2582 H2573 0.930 . S
C2582 C2580 1.378 . S
C2582 C2583 1.367 . S
C2583 C2582 1.367 . S
C2583 C2585 1.433 . S
C2584 C2580 1.350 . S
C2584 C2581 1.463 . S
C2584 N2588 1.427 . S
C2585 H2575 0.929 . S
C2585 C2583 1.433 . S
C2585 N2588 1.384 . S
C2586 H2577 0.929 . S
C2586 C2578 1.378 . S
C2586 C2581 1.350 . S
C2587 H2574 0.929 . S
C2587 C2579 1.433 . S
C2587 N2589 1.384 . S
N2588 C2584 1.427 . S
N2588 C2585 1.384 . S
N2589 C2581 1.427 . S
N2589 C2587 1.384 . S
H2590 C2596 0.930 . S
H2591 C2600 0.930 . S
H2592 C2605 0.929 . S
H2593 C2603 0.929 . S
H2594 C2598 0.929 . S
H2595 C2604 0.929 . S
C2596 H2590 0.930 . S
C2596 C2597 1.367 . S
C2596 C2604 1.378 . S
C2597 C2596 1.367 . S
C2597 C2605 1.433 . S
C2598 H2594 0.929 . S
C2598 C2600 1.378 . S
C2598 C2602 1.350 . S
C2599 C2602 1.463 . S
C2599 C2604 1.350 . S
C2599 N2607 1.427 . S
C2600 H2591 0.930 . S
C2600 C2598 1.378 . S
C2600 C2601 1.367 . S
C2601 C2600 1.367 . S
C2601 C2603 1.433 . S
C2602 C2598 1.350 . S
C2602 C2599 1.463 . S
C2602 N2606 1.427 . S
C2603 H2593 0.929 . S
C2603 C2601 1.433 . S
C2603 N2606 1.384 . S
C2604 H2595 0.929 . S
C2604 C2596 1.378 . S
C2604 C2599 1.350 . S
C2605 H2592 0.929 . S
C2605 C2597 1.433 . S
C2605 N2607 1.384 . S
N2606 C2602 1.427 . S
N2606 C2603 1.384 . S
N2607 C2599 1.427 . S
N2607 C2605 1.384 . S
H2608 C2614 0.930 . S
H2609 C2618 0.930 . S
H2610 C2623 0.929 . S
H2611 C2621 0.929 . S
H2612 C2616 0.929 . S
H2613 C2622 0.929 . S
C2614 H2608 0.930 . S
C2614 C2615 1.367 . S
C2614 C2622 1.378 . S
C2615 C2614 1.367 . S
C2615 C2623 1.433 . S
C2616 H2612 0.929 . S
C2616 C2618 1.378 . S
C2616 C2620 1.350 . S
C2617 C2620 1.463 . S
C2617 C2622 1.350 . S
C2617 N2625 1.427 . S
C2618 H2609 0.930 . S
C2618 C2616 1.378 . S
C2618 C2619 1.367 . S
C2619 C2618 1.367 . S
C2619 C2621 1.433 . S
C2620 C2616 1.350 . S
C2620 C2617 1.463 . S
C2620 N2624 1.427 . S
C2621 H2611 0.929 . S
C2621 C2619 1.433 . S
C2621 N2624 1.384 . S
C2622 H2613 0.929 . S
C2622 C2614 1.378 . S
C2622 C2617 1.350 . S
C2623 H2610 0.929 . S
C2623 C2615 1.433 . S
C2623 N2625 1.384 . S
N2624 C2620 1.427 . S
N2624 C2621 1.384 . S
N2625 C2617 1.427 . S
N2625 C2623 1.384 . S
H2626 C2632 0.930 . S
H2627 C2636 0.930 . S
H2628 C2641 0.929 . S
H2629 C2639 0.929 . S
H2630 C2634 0.929 . S
H2631 C2640 0.929 . S
C2632 H2626 0.930 . S
C2632 C2633 1.367 . S
C2632 C2640 1.378 . S
C2633 C2632 1.367 . S
C2633 C2641 1.433 . S
C2634 H2630 0.929 . S
C2634 C2636 1.378 . S
C2634 C2638 1.350 . S
C2635 C2638 1.463 . S
C2635 C2640 1.350 . S
C2635 N2643 1.427 . S
C2636 H2627 0.930 . S
C2636 C2634 1.378 . S
C2636 C2637 1.367 . S
C2637 C2636 1.367 . S
C2637 C2639 1.433 . S
C2638 C2634 1.350 . S
C2638 C2635 1.463 . S
C2638 N2642 1.427 . S
C2639 H2629 0.929 . S
C2639 C2637 1.433 . S
C2639 N2642 1.384 . S
C2640 H2631 0.929 . S
C2640 C2632 1.378 . S
C2640 C2635 1.350 . S
C2641 H2628 0.929 . S
C2641 C2633 1.433 . S
C2641 N2643 1.384 . S
N2642 C2638 1.427 . S
N2642 C2639 1.384 . S
N2643 C2635 1.427 . S
N2643 C2641 1.384 . S
H2644 C2650 0.930 . S
H2645 C2654 0.930 . S
H2646 C2659 0.929 . S
H2647 C2657 0.929 . S
H2648 C2652 0.929 . S
H2649 C2658 0.929 . S
C2650 H2644 0.930 . S
C2650 C2651 1.367 . S
C2650 C2658 1.378 . S
C2651 C2650 1.367 . S
C2651 C2659 1.433 . S
C2652 H2648 0.929 . S
C2652 C2654 1.378 . S
C2652 C2656 1.350 . S
C2653 C2656 1.463 . S
C2653 C2658 1.350 . S
C2653 N2661 1.427 . S
C2654 H2645 0.930 . S
C2654 C2652 1.378 . S
C2654 C2655 1.367 . S
C2655 C2654 1.367 . S
C2655 C2657 1.433 . S
C2656 C2652 1.350 . S
C2656 C2653 1.463 . S
C2656 N2660 1.427 . S
C2657 H2647 0.929 . S
C2657 C2655 1.433 . S
C2657 N2660 1.384 . S
C2658 H2649 0.929 . S
C2658 C2650 1.378 . S
C2658 C2653 1.350 . S
C2659 H2646 0.929 . S
C2659 C2651 1.433 . S
C2659 N2661 1.384 . S
N2660 C2656 1.427 . S
N2660 C2657 1.384 . S
N2661 C2653 1.427 . S
N2661 C2659 1.384 . S
H2662 C2668 0.930 . S
H2663 C2672 0.930 . S
H2664 C2677 0.929 . S
H2665 C2675 0.927 1_455 S
H2666 C2670 0.929 . S
H2667 C2676 0.929 . S
C2668 H2662 0.930 . S
C2668 C2669 1.367 . S
C2668 C2676 1.378 . S
C2669 C2668 1.367 . S
C2669 C2677 1.433 . S
C2670 H2666 0.929 . S
C2670 C2672 1.378 . S
C2670 C2674 1.350 . S
C2671 C2674 1.463 . S
C2671 C2676 1.350 . S
C2671 N2679 1.427 . S
C2672 H2663 0.930 . S
C2672 C2670 1.378 . S
C2672 C2673 1.367 1_655 S
C2673 C2672 1.367 1_455 S
C2673 C2675 1.433 1_455 S
C2674 C2670 1.350 . S
C2674 C2671 1.463 . S
C2674 N2678 1.427 . S
C2675 H2665 0.927 1_655 S
C2675 C2673 1.433 1_655 S
C2675 N2678 1.386 . S
C2676 H2667 0.929 . S
C2676 C2668 1.378 . S
C2676 C2671 1.350 . S
C2677 H2664 0.929 . S
C2677 C2669 1.433 . S
C2677 N2679 1.384 . S
N2678 C2674 1.427 . S
N2678 C2675 1.386 . S
N2679 C2671 1.427 . S
N2679 C2677 1.384 . S
H2680 C2686 0.930 . S
H2681 C2690 0.930 . S
H2682 C2695 0.929 . S
H2683 C2693 0.929 . S
H2684 C2688 0.929 . S
H2685 C2694 0.929 . S
C2686 H2680 0.930 . S
C2686 C2687 1.367 . S
C2686 C2694 1.378 . S
C2687 C2686 1.367 . S
C2687 C2695 1.433 . S
C2688 H2684 0.929 . S
C2688 C2690 1.378 . S
C2688 C2692 1.350 . S
C2689 C2692 1.463 . S
C2689 C2694 1.350 . S
C2689 N2697 1.427 . S
C2690 H2681 0.930 . S
C2690 C2688 1.378 . S
C2690 C2691 1.367 . S
C2691 C2690 1.367 . S
C2691 C2693 1.433 . S
C2692 C2688 1.350 . S
C2692 C2689 1.463 . S
C2692 N2696 1.427 . S
C2693 H2683 0.929 . S
C2693 C2691 1.433 . S
C2693 N2696 1.384 . S
C2694 H2685 0.929 . S
C2694 C2686 1.378 . S
C2694 C2689 1.350 . S
C2695 H2682 0.929 . S
C2695 C2687 1.433 . S
C2695 N2697 1.384 . S
N2696 C2692 1.427 . S
N2696 C2693 1.384 . S
N2697 C2689 1.427 . S
N2697 C2695 1.384 . S
H2698 C2704 0.935 1_455 S
H2699 C2708 0.930 . S
H2700 C2713 0.929 . S
H2701 C2711 0.929 . S
H2702 C2706 0.929 . S
H2703 C2712 0.929 . S
C2704 H2698 0.935 1_655 S
C2704 C2705 1.367 1_655 S
C2704 C2712 1.373 . S
C2705 C2704 1.367 1_455 S
C2705 C2713 1.433 1_455 S
C2706 H2702 0.929 . S
C2706 C2708 1.378 . S
C2706 C2710 1.350 . S
C2707 C2710 1.463 . S
C2707 C2712 1.350 . S
C2707 N2715 1.427 . S
C2708 H2699 0.930 . S
C2708 C2706 1.378 . S
C2708 C2709 1.367 . S
C2709 C2708 1.367 . S
C2709 C2711 1.433 . S
C2710 C2706 1.350 . S
C2710 C2707 1.463 . S
C2710 N2714 1.427 . S
C2711 H2701 0.929 . S
C2711 C2709 1.433 . S
C2711 N2714 1.384 . S
C2712 H2703 0.929 . S
C2712 C2704 1.373 . S
C2712 C2707 1.350 . S
C2713 H2700 0.929 . S
C2713 C2705 1.433 1_655 S
C2713 N2715 1.384 . S
N2714 C2710 1.427 . S
N2714 C2711 1.384 . S
N2715 C2707 1.427 . S
N2715 C2713 1.384 . S
H2716 C2722 0.930 . S
H2717 C2726 0.930 . S
H2718 C2731 0.929 . S
H2719 C2729 0.929 . S
H2720 C2724 0.929 . S
H2721 C2730 0.929 . S
C2722 H2716 0.930 . S
C2722 C2723 1.367 . S
C2722 C2730 1.378 . S
C2723 C2722 1.367 . S
C2723 C2731 1.433 . S
C2724 H2720 0.929 . S
C2724 C2726 1.378 . S
C2724 C2728 1.350 . S
C2725 C2728 1.463 . S
C2725 C2730 1.350 . S
C2725 N2733 1.427 . S
C2726 H2717 0.930 . S
C2726 C2724 1.378 . S
C2726 C2727 1.367 . S
C2727 C2726 1.367 . S
C2727 C2729 1.433 . S
C2728 C2724 1.350 . S
C2728 C2725 1.463 . S
C2728 N2732 1.427 . S
C2729 H2719 0.929 . S
C2729 C2727 1.433 . S
C2729 N2732 1.384 . S
C2730 H2721 0.929 . S
C2730 C2722 1.378 . S
C2730 C2725 1.350 . S
C2731 H2718 0.929 . S
C2731 C2723 1.433 . S
C2731 N2733 1.384 . S
N2732 C2728 1.427 . S
N2732 C2729 1.384 . S
N2733 C2725 1.427 . S
N2733 C2731 1.384 . S
H2734 C2740 0.930 . S
H2735 C2744 0.930 . S
H2736 C2749 0.929 . S
H2737 C2747 0.929 . S
H2738 C2742 0.929 . S
H2739 C2748 0.929 . S
C2740 H2734 0.930 . S
C2740 C2741 1.367 . S
C2740 C2748 1.378 . S
C2741 C2740 1.367 . S
C2741 C2749 1.433 . S
C2742 H2738 0.929 . S
C2742 C2744 1.378 . S
C2742 C2746 1.350 . S
C2743 C2746 1.463 . S
C2743 C2748 1.350 . S
C2743 N2751 1.427 . S
C2744 H2735 0.930 . S
C2744 C2742 1.378 . S
C2744 C2745 1.367 . S
C2745 C2744 1.367 . S
C2745 C2747 1.433 . S
C2746 C2742 1.350 . S
C2746 C2743 1.463 . S
C2746 N2750 1.427 . S
C2747 H2737 0.929 . S
C2747 C2745 1.433 . S
C2747 N2750 1.384 . S
C2748 H2739 0.929 . S
C2748 C2740 1.378 . S
C2748 C2743 1.350 . S
C2749 H2736 0.929 . S
C2749 C2741 1.433 . S
C2749 N2751 1.384 . S
N2750 C2746 1.427 . S
N2750 C2747 1.384 . S
N2751 C2743 1.427 . S
N2751 C2749 1.384 . S
H2752 C2758 0.930 . S
H2753 C2762 0.930 . S
H2754 C2767 0.929 . S
H2755 C2765 0.929 . S
H2756 C2760 0.929 . S
H2757 C2766 0.929 . S
C2758 H2752 0.930 . S
C2758 C2759 1.367 . S
C2758 C2766 1.378 . S
C2759 C2758 1.367 . S
C2759 C2767 1.433 . S
C2760 H2756 0.929 . S
C2760 C2762 1.378 . S
C2760 C2764 1.350 . S
C2761 C2764 1.463 . S
C2761 C2766 1.350 . S
C2761 N2769 1.427 . S
C2762 H2753 0.930 . S
C2762 C2760 1.378 . S
C2762 C2763 1.367 . S
C2763 C2762 1.367 . S
C2763 C2765 1.433 . S
C2764 C2760 1.350 . S
C2764 C2761 1.463 . S
C2764 N2768 1.427 . S
C2765 H2755 0.929 . S
C2765 C2763 1.433 . S
C2765 N2768 1.384 . S
C2766 H2757 0.929 . S
C2766 C2758 1.378 . S
C2766 C2761 1.350 . S
C2767 H2754 0.929 . S
C2767 C2759 1.433 . S
C2767 N2769 1.384 . S
N2768 C2764 1.427 . S
N2768 C2765 1.384 . S
N2769 C2761 1.427 . S
N2769 C2767 1.384 . S
H2770 C2776 0.930 . S
H2771 C2780 0.930 . S
H2772 C2785 0.929 . S
H2773 C2783 0.929 . S
H2774 C2778 0.929 . S
H2775 C2784 0.929 . S
C2776 H2770 0.930 . S
C2776 C2777 1.367 . S
C2776 C2784 1.378 . S
C2777 C2776 1.367 . S
C2777 C2785 1.433 . S
C2778 H2774 0.929 . S
C2778 C2780 1.378 . S
C2778 C2782 1.350 . S
C2779 C2782 1.463 . S
C2779 C2784 1.350 . S
C2779 N2787 1.427 . S
C2780 H2771 0.930 . S
C2780 C2778 1.378 . S
C2780 C2781 1.367 . S
C2781 C2780 1.367 . S
C2781 C2783 1.433 . S
C2782 C2778 1.350 . S
C2782 C2779 1.463 . S
C2782 N2786 1.427 . S
C2783 H2773 0.929 . S
C2783 C2781 1.433 . S
C2783 N2786 1.384 . S
C2784 H2775 0.929 . S
C2784 C2776 1.378 . S
C2784 C2779 1.350 . S
C2785 H2772 0.929 . S
C2785 C2777 1.433 . S
C2785 N2787 1.384 . S
N2786 C2782 1.427 . S
N2786 C2783 1.384 . S
N2787 C2779 1.427 . S
N2787 C2785 1.384 . S
H2788 C2794 0.930 . S
H2789 C2798 0.930 . S
H2790 C2803 0.929 . S
H2791 C2801 0.929 . S
H2792 C2796 0.929 . S
H2793 C2802 0.929 . S
C2794 H2788 0.930 . S
C2794 C2795 1.367 . S
C2794 C2802 1.378 . S
C2795 C2794 1.367 . S
C2795 C2803 1.433 . S
C2796 H2792 0.929 . S
C2796 C2798 1.378 . S
C2796 C2800 1.350 . S
C2797 C2800 1.463 . S
C2797 C2802 1.350 . S
C2797 N2805 1.427 . S
C2798 H2789 0.930 . S
C2798 C2796 1.378 . S
C2798 C2799 1.367 . S
C2799 C2798 1.367 . S
C2799 C2801 1.433 . S
C2800 C2796 1.350 . S
C2800 C2797 1.463 . S
C2800 N2804 1.427 . S
C2801 H2791 0.929 . S
C2801 C2799 1.433 . S
C2801 N2804 1.384 . S
C2802 H2793 0.929 . S
C2802 C2794 1.378 . S
C2802 C2797 1.350 . S
C2803 H2790 0.929 . S
C2803 C2795 1.433 . S
C2803 N2805 1.384 . S
N2804 C2800 1.427 . S
N2804 C2801 1.384 . S
N2805 C2797 1.427 . S
N2805 C2803 1.384 . S
H2806 C2812 0.930 1_554 S
H2807 C2816 0.930 1_556 S
H2808 C2821 0.929 . S
H2809 C2819 0.929 . S
H2810 C2814 0.929 . S
H2811 C2820 0.929 . S
C2812 H2806 0.930 1_556 S
C2812 C2813 1.367 . S
C2812 C2820 1.378 1_556 S
C2813 C2812 1.367 . S
C2813 C2821 1.433 . S
C2814 H2810 0.929 . S
C2814 C2816 1.378 1_556 S
C2814 C2818 1.350 1_556 S
C2815 C2818 1.463 1_556 S
C2815 C2820 1.350 1_556 S
C2815 N2823 1.427 . S
C2816 H2807 0.930 1_554 S
C2816 C2814 1.378 1_554 S
C2816 C2817 1.367 . S
C2817 C2816 1.367 . S
C2817 C2819 1.433 . S
C2818 C2814 1.350 1_554 S
C2818 C2815 1.463 1_554 S
C2818 N2822 1.427 . S
C2819 H2809 0.929 . S
C2819 C2817 1.433 . S
C2819 N2822 1.384 . S
C2820 H2811 0.929 . S
C2820 C2812 1.378 1_554 S
C2820 C2815 1.350 1_554 S
C2821 H2808 0.929 . S
C2821 C2813 1.433 . S
C2821 N2823 1.384 . S
N2822 C2818 1.427 . S
N2822 C2819 1.384 . S
N2823 C2815 1.427 . S
N2823 C2821 1.384 . S
H2824 C2830 0.930 . S
H2825 C2834 0.930 . S
H2826 C2839 0.929 . S
H2827 C2837 0.929 . S
H2828 C2832 0.929 . S
H2829 C2838 0.929 . S
C2830 H2824 0.930 . S
C2830 C2831 1.367 . S
C2830 C2838 1.378 . S
C2831 C2830 1.367 . S
C2831 C2839 1.433 . S
C2832 H2828 0.929 . S
C2832 C2834 1.378 . S
C2832 C2836 1.350 . S
C2833 C2836 1.463 . S
C2833 C2838 1.350 . S
C2833 N2841 1.427 . S
C2834 H2825 0.930 . S
C2834 C2832 1.378 . S
C2834 C2835 1.367 . S
C2835 C2834 1.367 . S
C2835 C2837 1.433 . S
C2836 C2832 1.350 . S
C2836 C2833 1.463 . S
C2836 N2840 1.427 . S
C2837 H2827 0.929 . S
C2837 C2835 1.433 . S
C2837 N2840 1.384 . S
C2838 H2829 0.929 . S
C2838 C2830 1.378 . S
C2838 C2833 1.350 . S
C2839 H2826 0.929 . S
C2839 C2831 1.433 . S
C2839 N2841 1.384 . S
N2840 C2836 1.427 . S
N2840 C2837 1.384 . S
N2841 C2833 1.427 . S
N2841 C2839 1.384 . S
H2842 C2848 0.930 . S
H2843 C2852 0.930 . S
H2844 C2857 0.929 . S
H2845 C2855 0.929 . S
H2846 C2850 0.929 . S
H2847 C2856 0.929 . S
C2848 H2842 0.930 . S
C2848 C2849 1.367 . S
C2848 C2856 1.378 . S
C2849 C2848 1.367 . S
C2849 C2857 1.433 . S
C2850 H2846 0.929 . S
C2850 C2852 1.378 . S
C2850 C2854 1.350 . S
C2851 C2854 1.463 . S
C2851 C2856 1.350 . S
C2851 N2859 1.427 . S
C2852 H2843 0.930 . S
C2852 C2850 1.378 . S
C2852 C2853 1.367 . S
C2853 C2852 1.367 . S
C2853 C2855 1.433 . S
C2854 C2850 1.350 . S
C2854 C2851 1.463 . S
C2854 N2858 1.427 . S
C2855 H2845 0.929 . S
C2855 C2853 1.433 . S
C2855 N2858 1.384 . S
C2856 H2847 0.929 . S
C2856 C2848 1.378 . S
C2856 C2851 1.350 . S
C2857 H2844 0.929 . S
C2857 C2849 1.433 . S
C2857 N2859 1.384 . S
N2858 C2854 1.427 . S
N2858 C2855 1.384 . S
N2859 C2851 1.427 . S
N2859 C2857 1.384 . S
H2860 C2866 0.930 . S
H2861 C2870 0.930 . S
H2862 C2875 0.929 . S
H2863 C2873 0.929 . S
H2864 C2868 0.929 . S
H2865 C2874 0.929 . S
C2866 H2860 0.930 . S
C2866 C2867 1.367 . S
C2866 C2874 1.378 . S
C2867 C2866 1.367 . S
C2867 C2875 1.433 . S
C2868 H2864 0.929 . S
C2868 C2870 1.378 . S
C2868 C2872 1.350 . S
C2869 C2872 1.463 . S
C2869 C2874 1.350 . S
C2869 N2877 1.427 . S
C2870 H2861 0.930 . S
C2870 C2868 1.378 . S
C2870 C2871 1.367 . S
C2871 C2870 1.367 . S
C2871 C2873 1.433 . S
C2872 C2868 1.350 . S
C2872 C2869 1.463 . S
C2872 N2876 1.427 . S
C2873 H2863 0.929 . S
C2873 C2871 1.433 . S
C2873 N2876 1.384 . S
C2874 H2865 0.929 . S
C2874 C2866 1.378 . S
C2874 C2869 1.350 . S
C2875 H2862 0.929 . S
C2875 C2867 1.433 . S
C2875 N2877 1.384 . S
N2876 C2872 1.427 . S
N2876 C2873 1.384 . S
N2877 C2869 1.427 . S
N2877 C2875 1.384 . S
H2878 C2884 0.930 . S
H2879 C2888 0.930 . S
H2880 C2893 0.929 1_556 S
H2881 C2891 0.929 1_554 S
H2882 C2886 0.929 . S
H2883 C2892 0.929 . S
C2884 H2878 0.930 . S
C2884 C2885 1.367 . S
C2884 C2892 1.378 . S
C2885 C2884 1.367 . S
C2885 C2893 1.433 . S
C2886 H2882 0.929 . S
C2886 C2888 1.378 . S
C2886 C2890 1.350 . S
C2887 C2890 1.463 1_554 S
C2887 C2892 1.350 . S
C2887 N2895 1.427 1_554 S
C2888 H2879 0.930 . S
C2888 C2886 1.378 . S
C2888 C2889 1.367 . S
C2889 C2888 1.367 . S
C2889 C2891 1.433 . S
C2890 C2886 1.350 . S
C2890 C2887 1.463 1_556 S
C2890 N2894 1.427 1_556 S
C2891 H2881 0.929 1_556 S
C2891 C2889 1.433 . S
C2891 N2894 1.384 1_556 S
C2892 H2883 0.929 . S
C2892 C2884 1.378 . S
C2892 C2887 1.350 . S
C2893 H2880 0.929 1_554 S
C2893 C2885 1.433 . S
C2893 N2895 1.384 1_554 S
N2894 C2890 1.427 1_554 S
N2894 C2891 1.384 1_554 S
N2895 C2887 1.427 1_556 S
N2895 C2893 1.384 1_556 S
H2896 C2902 0.930 . S
H2897 C2906 0.930 . S
H2898 C2911 0.929 . S
H2899 C2909 0.929 . S
H2900 C2904 0.929 . S
H2901 C2910 0.929 . S
C2902 H2896 0.930 . S
C2902 C2903 1.367 . S
C2902 C2910 1.378 . S
C2903 C2902 1.367 . S
C2903 C2911 1.433 . S
C2904 H2900 0.929 . S
C2904 C2906 1.378 . S
C2904 C2908 1.350 . S
C2905 C2908 1.463 1_565 S
C2905 C2910 1.350 . S
C2905 N2913 1.427 . S
C2906 H2897 0.930 . S
C2906 C2904 1.378 . S
C2906 C2907 1.367 . S
C2907 C2906 1.367 . S
C2907 C2909 1.433 . S
C2908 C2904 1.350 . S
C2908 C2905 1.463 1_545 S
C2908 N2912 1.427 . S
C2909 H2899 0.929 . S
C2909 C2907 1.433 . S
C2909 N2912 1.384 . S
C2910 H2901 0.929 . S
C2910 C2902 1.378 . S
C2910 C2905 1.350 . S
C2911 H2898 0.929 . S
C2911 C2903 1.433 . S
C2911 N2913 1.384 . S
N2912 C2908 1.427 . S
N2912 C2909 1.384 . S
N2913 C2905 1.427 . S
N2913 C2911 1.384 . S
H2914 C2920 0.930 . S
H2915 C2924 0.930 . S
H2916 C2929 0.929 . S
H2917 C2927 0.929 . S
H2918 C2922 0.929 . S
H2919 C2928 0.929 . S
C2920 H2914 0.930 . S
C2920 C2921 1.367 . S
C2920 C2928 1.378 . S
C2921 C2920 1.367 . S
C2921 C2929 1.433 . S
C2922 H2918 0.929 . S
C2922 C2924 1.378 . S
C2922 C2926 1.350 . S
C2923 C2926 1.463 1_554 S
C2923 C2928 1.350 . S
C2923 N2931 1.427 . S
C2924 H2915 0.930 . S
C2924 C2922 1.378 . S
C2924 C2925 1.367 . S
C2925 C2924 1.367 . S
C2925 C2927 1.433 . S
C2926 C2922 1.350 . S
C2926 C2923 1.463 1_556 S
C2926 N2930 1.427 . S
C2927 H2917 0.929 . S
C2927 C2925 1.433 . S
C2927 N2930 1.384 . S
C2928 H2919 0.929 . S
C2928 C2920 1.378 . S
C2928 C2923 1.350 . S
C2929 H2916 0.929 . S
C2929 C2921 1.433 . S
C2929 N2931 1.384 . S
N2930 C2926 1.427 . S
N2930 C2927 1.384 . S
N2931 C2923 1.427 . S
N2931 C2929 1.384 . S
H2932 C2938 0.930 . S
H2933 C2942 0.930 . S
H2934 C2947 0.929 . S
H2935 C2945 0.929 . S
H2936 C2940 0.929 . S
H2937 C2946 0.929 . S
C2938 H2932 0.930 . S
C2938 C2939 1.367 . S
C2938 C2946 1.378 . S
C2939 C2938 1.367 . S
C2939 C2947 1.433 . S
C2940 H2936 0.929 . S
C2940 C2942 1.378 . S
C2940 C2944 1.350 . S
C2941 C2944 1.463 1_545 S
C2941 C2946 1.350 . S
C2941 N2949 1.427 . S
C2942 H2933 0.930 . S
C2942 C2940 1.378 . S
C2942 C2943 1.367 . S
C2943 C2942 1.367 . S
C2943 C2945 1.433 . S
C2944 C2940 1.350 . S
C2944 C2941 1.463 1_565 S
C2944 N2948 1.427 . S
C2945 H2935 0.929 . S
C2945 C2943 1.433 . S
C2945 N2948 1.384 . S
C2946 H2937 0.929 . S
C2946 C2938 1.378 . S
C2946 C2941 1.350 . S
C2947 H2934 0.929 . S
C2947 C2939 1.433 . S
C2947 N2949 1.384 . S
N2948 C2944 1.427 . S
N2948 C2945 1.384 . S
N2949 C2941 1.427 . S
N2949 C2947 1.384 . S
H2950 C2956 0.930 . S
H2951 C2960 0.930 . S
H2952 C2965 0.929 . S
H2953 C2963 0.929 . S
H2954 C2958 0.929 . S
H2955 C2964 0.929 . S
C2956 H2950 0.930 . S
C2956 C2957 1.367 . S
C2956 C2964 1.378 . S
C2957 C2956 1.367 . S
C2957 C2965 1.433 . S
C2958 H2954 0.929 . S
C2958 C2960 1.378 . S
C2958 C2962 1.350 . S
C2959 C2962 1.463 . S
C2959 C2964 1.350 . S
C2959 N2967 1.427 . S
C2960 H2951 0.930 . S
C2960 C2958 1.378 . S
C2960 C2961 1.367 . S
C2961 C2960 1.367 . S
C2961 C2963 1.433 . S
C2962 C2958 1.350 . S
C2962 C2959 1.463 . S
C2962 N2966 1.427 . S
C2963 H2953 0.929 . S
C2963 C2961 1.433 . S
C2963 N2966 1.384 . S
C2964 H2955 0.929 . S
C2964 C2956 1.378 . S
C2964 C2959 1.350 . S
C2965 H2952 0.929 . S
C2965 C2957 1.433 . S
C2965 N2967 1.384 . S
N2966 C2962 1.427 . S
N2966 C2963 1.384 . S
N2967 C2959 1.427 . S
N2967 C2965 1.384 . S
H2968 C2974 0.930 . S
H2969 C2978 0.930 . S
H2970 C2983 0.929 . S
H2971 C2981 0.929 . S
H2972 C2976 0.929 . S
H2973 C2982 0.929 . S
C2974 H2968 0.930 . S
C2974 C2975 1.367 . S
C2974 C2982 1.378 . S
C2975 C2974 1.367 . S
C2975 C2983 1.433 . S
C2976 H2972 0.929 . S
C2976 C2978 1.378 . S
C2976 C2980 1.350 . S
C2977 C2980 1.463 1_545 S
C2977 C2982 1.350 . S
C2977 N2985 1.427 . S
C2978 H2969 0.930 . S
C2978 C2976 1.378 . S
C2978 C2979 1.367 . S
C2979 C2978 1.367 . S
C2979 C2981 1.433 . S
C2980 C2976 1.350 . S
C2980 C2977 1.463 1_565 S
C2980 N2984 1.427 . S
C2981 H2971 0.929 . S
C2981 C2979 1.433 . S
C2981 N2984 1.384 . S
C2982 H2973 0.929 . S
C2982 C2974 1.378 . S
C2982 C2977 1.350 . S
C2983 H2970 0.929 . S
C2983 C2975 1.433 . S
C2983 N2985 1.384 . S
N2984 C2980 1.427 . S
N2984 C2981 1.384 . S
N2985 C2977 1.427 . S
N2985 C2983 1.384 . S
H2986 C2992 0.930 . S
H2987 C2996 0.930 . S
H2988 C3001 0.929 . S
H2989 C2999 0.929 . S
H2990 C2994 0.929 . S
H2991 C3000 0.929 . S
C2992 H2986 0.930 . S
C2992 C2993 1.367 . S
C2992 C3000 1.378 . S
C2993 C2992 1.367 . S
C2993 C3001 1.433 1_554 S
C2994 H2990 0.929 . S
C2994 C2996 1.378 . S
C2994 C2998 1.350 . S
C2995 C2998 1.463 1_554 S
C2995 C3000 1.350 . S
C2995 N3003 1.427 1_554 S
C2996 H2987 0.930 . S
C2996 C2994 1.378 . S
C2996 C2997 1.367 . S
C2997 C2996 1.367 . S
C2997 C2999 1.433 1_556 S
C2998 C2994 1.350 . S
C2998 C2995 1.463 1_556 S
C2998 N3002 1.427 1_556 S
C2999 H2989 0.929 . S
C2999 C2997 1.433 1_554 S
C2999 N3002 1.384 . S
C3000 H2991 0.929 . S
C3000 C2992 1.378 . S
C3000 C2995 1.350 . S
C3001 H2988 0.929 . S
C3001 C2993 1.433 1_556 S
C3001 N3003 1.384 . S
N3002 C2998 1.427 1_554 S
N3002 C2999 1.384 . S
N3003 C2995 1.427 1_556 S
N3003 C3001 1.384 . S
H3004 C3010 0.930 . S
H3005 C3014 0.930 . S
H3006 C3019 0.929 . S
H3007 C3017 0.929 . S
H3008 C3012 0.929 . S
H3009 C3018 0.929 . S
C3010 H3004 0.930 . S
C3010 C3011 1.367 . S
C3010 C3018 1.378 . S
C3011 C3010 1.367 . S
C3011 C3019 1.433 . S
C3012 H3008 0.929 . S
C3012 C3014 1.378 . S
C3012 C3016 1.350 . S
C3013 C3016 1.463 1_545 S
C3013 C3018 1.350 . S
C3013 N3021 1.427 . S
C3014 H3005 0.930 . S
C3014 C3012 1.378 . S
C3014 C3015 1.367 . S
C3015 C3014 1.367 . S
C3015 C3017 1.433 . S
C3016 C3012 1.350 . S
C3016 C3013 1.463 1_565 S
C3016 N3020 1.427 . S
C3017 H3007 0.929 . S
C3017 C3015 1.433 . S
C3017 N3020 1.384 . S
C3018 H3009 0.929 . S
C3018 C3010 1.378 . S
C3018 C3013 1.350 . S
C3019 H3006 0.929 . S
C3019 C3011 1.433 . S
C3019 N3021 1.384 . S
N3020 C3016 1.427 . S
N3020 C3017 1.384 . S
N3021 C3013 1.427 . S
N3021 C3019 1.384 . S
H3022 C3028 0.930 . S
H3023 C3032 0.930 . S
H3024 C3037 0.929 . S
H3025 C3035 0.929 . S
H3026 C3030 0.929 . S
H3027 C3036 0.929 . S
C3028 H3022 0.930 . S
C3028 C3029 1.367 . S
C3028 C3036 1.378 . S
C3029 C3028 1.367 . S
C3029 C3037 1.433 . S
C3030 H3026 0.929 . S
C3030 C3032 1.378 . S
C3030 C3034 1.350 . S
C3031 C3034 1.463 . S
C3031 C3036 1.350 . S
C3031 N3039 1.427 . S
C3032 H3023 0.930 . S
C3032 C3030 1.378 . S
C3032 C3033 1.367 . S
C3033 C3032 1.367 . S
C3033 C3035 1.433 . S
C3034 C3030 1.350 . S
C3034 C3031 1.463 . S
C3034 N3038 1.427 . S
C3035 H3025 0.929 . S
C3035 C3033 1.433 . S
C3035 N3038 1.384 . S
C3036 H3027 0.929 . S
C3036 C3028 1.378 . S
C3036 C3031 1.350 . S
C3037 H3024 0.929 . S
C3037 C3029 1.433 . S
C3037 N3039 1.384 . S
N3038 C3034 1.427 . S
N3038 C3035 1.384 . S
N3039 C3031 1.427 . S
N3039 C3037 1.384 . S
C1895 C3 1.290 . S
C1899 C1242 1.294 . S
C1913 C1301 1.289 . S
C1917 C62 1.289 . S
C1931 C121 1.294 . S
C1935 C1360 1.289 . S
C1949 C1183 1.289 . S
C1953 C180 1.294 . S
C1967 C239 1.292 . S
C1971 C1124 1.295 . S
C1985 C298 1.293 . S
C1989 C947 1.294 . S
C2003 C1006 1.293 . S
C2007 C357 1.295 . S
C2021 C416 1.292 . S
C2025 C1065 1.295 . S
C2039 C475 1.295 . S
C2043 C1714 1.292 . S
C2057 C534 1.294 . S
C2061 C1773 1.289 . S
C2075 C1832 1.294 . S
C2079 C593 1.294 . S
C2093 C1655 1.288 . S
C2097 C652 1.292 . S
C2111 C711 1.293 . S
C2115 C1596 1.295 . S
C2129 C1419 1.295 . S
C2133 C770 1.293 . S
C2147 C829 1.294 . S
C2151 C1478 1.294 . S
C2165 C1537 1.288 . S
C2169 C888 1.292 . S
C2183 C52 1.514 . S
C2187 C564 1.506 . S
C2201 C111 1.514 . S
C2205 C1567 1.506 . S
C2219 C682 1.510 . S
C2223 C170 1.514 . S
C2237 C229 1.516 . S
C2241 C1449 1.505 . S
C2255 C288 1.513 . S
C2259 C918 1.508 . S
C2273 C1685 1.505 . S
C2277 C347 1.515 . S
C2291 C800 1.505 . S
C2295 C406 1.516 . S
C2309 C1803 1.508 . S
C2313 C465 1.513 . S
C2327 C524 1.514 . S
C2331 C92 1.510 . S
C2345 C1095 1.505 . S
C2349 C583 1.516 . S
C2363 C210 1.504 . S
C2367 C642 1.516 . S
C2381 C701 1.514 . S
C2385 C977 1.507 . S
C2399 C446 1.506 . S
C2403 C760 1.516 . S
C2417 C1213 1.507 . S
C2421 C819 1.516 . S
C2435 C328 1.510 . S
C2439 C878 1.514 . S
C2453 C937 1.514 . S
C2457 C1331 1.505 . S
C2471 C1508 1.504 . S
C2475 C996 1.515 . S
C2489 C623 1.509 . S
C2493 C1055 1.515 . S
C2507 C1626 1.504 . S
C2511 C1114 1.516 . S
C2525 C1173 1.514 . S
C2529 C505 1.510 . S
C2543 C1862 1.504 . S
C2547 C1232 1.516 . S
C2561 C741 1.508 . S
C2565 C1291 1.516 . S
C2579 C1744 1.508 . S
C2583 C1350 1.513 . S
C2597 C1409 1.515 . S
C2601 C859 1.505 . S
C2615 C1468 1.516 . S
C2619 C1036 1.507 . S
C2633 C151 1.508 . S
C2637 C1527 1.516 . S
C2651 C1586 1.513 . S
C2655 C1154 1.509 . S
C2669 C1645 1.514 . S
C2673 C33 1.506 . S
C2687 C1704 1.516 . S
C2691 C1390 1.504 . S
C2705 C269 1.504 . S
C2709 C1763 1.516 . S
C2723 C1272 1.508 . S
C2727 C1822 1.515 . S
C2741 C1881 1.514 . S
C2745 C387 1.505 . S
C2759 C5 1.379 . S
C2763 C241 1.381 . S
C2777 C64 1.380 . S
C2781 C300 1.382 . S
C2795 C359 1.377 . S
C2799 C123 1.377 . S
C2813 C418 1.379 . S
C2817 C182 1.378 . S
C2831 C713 1.383 . S
C2835 C477 1.383 . S
C2849 C772 1.383 . S
C2853 C536 1.382 . S
C2867 C831 1.381 . S
C2871 C595 1.382 . S
C2885 C890 1.382 . S
C2889 C654 1.383 . S
C2903 C949 1.383 . S
C2907 C1185 1.382 . S
C2921 C1008 1.381 . S
C2925 C1244 1.382 . S
C2939 C1067 1.382 . S
C2943 C1303 1.381 . S
C2957 C1362 1.380 . S
C2961 C1126 1.378 . S
C2975 C1421 1.378 . S
C2979 C1657 1.377 . S
C2993 C1716 1.383 . S
C2997 C1480 1.384 . S
C3011 C1775 1.382 . S
C3015 C1539 1.383 . S
C3029 C1834 1.379 . S
C3033 C1598 1.380 . S
