# Generated by pormake.
# Topology uod, (4)-cn, num edge types: 1
# Building blocks:
#     Node 0, Type 0, BuildingBlock: CEKHIL_clean_sbu_0, # of connection points: 4
#     Node 1, Type 0, BuildingBlock: CEKHIL_clean_sbu_0, # of connection points: 4
#     Node 2, Type 0, BuildingBlock: CEKHIL_clean_sbu_0, # of connection points: 4
#     Node 3, Type 0, BuildingBlock: CEKHIL_clean_sbu_0, # of connection points: 4
#     Node 4, Type 0, BuildingBlock: CEKHIL_clean_sbu_0, # of connection points: 4
#     Node 5, Type 0, BuildingBlock: CEKHIL_clean_sbu_0, # of connection points: 4
#     Node 6, Type 0, BuildingBlock: CEKHIL_clean_sbu_0, # of connection points: 4
#     Node 7, Type 0, BuildingBlock: CEKHIL_clean_sbu_0, # of connection points: 4
#     Node 8, Type 0, BuildingBlock: CEKHIL_clean_sbu_0, # of connection points: 4
#     Node 9, Type 0, BuildingBlock: CEKHIL_clean_sbu_0, # of connection points: 4
#     Node 10, Type 0, BuildingBlock: CEKHIL_clean_sbu_0, # of connection points: 4
#     Node 11, Type 0, BuildingBlock: CEKHIL_clean_sbu_0, # of connection points: 4
#     Node 12, Type 0, BuildingBlock: CEKHIL_clean_sbu_0, # of connection points: 4
#     Node 13, Type 0, BuildingBlock: CEKHIL_clean_sbu_0, # of connection points: 4
#     Node 14, Type 0, BuildingBlock: CEKHIL_clean_sbu_0, # of connection points: 4
#     Node 15, Type 0, BuildingBlock: CEKHIL_clean_sbu_0, # of connection points: 4
#     Node 16, Type 0, BuildingBlock: CEKHIL_clean_sbu_0, # of connection points: 4
#     Node 17, Type 0, BuildingBlock: CEKHIL_clean_sbu_0, # of connection points: 4
#     Node 18, Type 0, BuildingBlock: CEKHIL_clean_sbu_0, # of connection points: 4
#     Node 19, Type 0, BuildingBlock: CEKHIL_clean_sbu_0, # of connection points: 4
#     Node 20, Type 0, BuildingBlock: CEKHIL_clean_sbu_0, # of connection points: 4
#     Node 21, Type 0, BuildingBlock: CEKHIL_clean_sbu_0, # of connection points: 4
#     Node 22, Type 0, BuildingBlock: CEKHIL_clean_sbu_0, # of connection points: 4
#     Node 23, Type 0, BuildingBlock: CEKHIL_clean_sbu_0, # of connection points: 4
#     Node 24, Type 0, BuildingBlock: CEKHIL_clean_sbu_0, # of connection points: 4
#     Node 25, Type 0, BuildingBlock: CEKHIL_clean_sbu_0, # of connection points: 4
#     Node 26, Type 0, BuildingBlock: CEKHIL_clean_sbu_0, # of connection points: 4
#     Node 27, Type 0, BuildingBlock: CEKHIL_clean_sbu_0, # of connection points: 4
#     Node 28, Type 0, BuildingBlock: CEKHIL_clean_sbu_0, # of connection points: 4
#     Node 29, Type 0, BuildingBlock: CEKHIL_clean_sbu_0, # of connection points: 4
#     Node 30, Type 0, BuildingBlock: CEKHIL_clean_sbu_0, # of connection points: 4
#     Node 31, Type 0, BuildingBlock: CEKHIL_clean_sbu_0, # of connection points: 4
#     Edge 32, Type (0, 0), BuildingBlock: EZIPEK_clean_linker_0, # of connection points: 2
#     Edge 33, Type (0, 0), BuildingBlock: EZIPEK_clean_linker_0, # of connection points: 2
#     Edge 34, Type (0, 0), BuildingBlock: EZIPEK_clean_linker_0, # of connection points: 2
#     Edge 35, Type (0, 0), BuildingBlock: EZIPEK_clean_linker_0, # of connection points: 2
#     Edge 36, Type (0, 0), BuildingBlock: EZIPEK_clean_linker_0, # of connection points: 2
#     Edge 37, Type (0, 0), BuildingBlock: EZIPEK_clean_linker_0, # of connection points: 2
#     Edge 38, Type (0, 0), BuildingBlock: EZIPEK_clean_linker_0, # of connection points: 2
#     Edge 39, Type (0, 0), BuildingBlock: EZIPEK_clean_linker_0, # of connection points: 2
#     Edge 40, Type (0, 0), BuildingBlock: EZIPEK_clean_linker_0, # of connection points: 2
#     Edge 41, Type (0, 0), BuildingBlock: EZIPEK_clean_linker_0, # of connection points: 2
#     Edge 42, Type (0, 0), BuildingBlock: EZIPEK_clean_linker_0, # of connection points: 2
#     Edge 43, Type (0, 0), BuildingBlock: EZIPEK_clean_linker_0, # of connection points: 2
#     Edge 44, Type (0, 0), BuildingBlock: EZIPEK_clean_linker_0, # of connection points: 2
#     Edge 45, Type (0, 0), BuildingBlock: EZIPEK_clean_linker_0, # of connection points: 2
#     Edge 46, Type (0, 0), BuildingBlock: EZIPEK_clean_linker_0, # of connection points: 2
#     Edge 47, Type (0, 0), BuildingBlock: EZIPEK_clean_linker_0, # of connection points: 2
#     Edge 48, Type (0, 0), BuildingBlock: EZIPEK_clean_linker_0, # of connection points: 2
#     Edge 49, Type (0, 0), BuildingBlock: EZIPEK_clean_linker_0, # of connection points: 2
#     Edge 50, Type (0, 0), BuildingBlock: EZIPEK_clean_linker_0, # of connection points: 2
#     Edge 51, Type (0, 0), BuildingBlock: EZIPEK_clean_linker_0, # of connection points: 2
#     Edge 52, Type (0, 0), BuildingBlock: EZIPEK_clean_linker_0, # of connection points: 2
#     Edge 53, Type (0, 0), BuildingBlock: EZIPEK_clean_linker_0, # of connection points: 2
#     Edge 54, Type (0, 0), BuildingBlock: EZIPEK_clean_linker_0, # of connection points: 2
#     Edge 55, Type (0, 0), BuildingBlock: EZIPEK_clean_linker_0, # of connection points: 2
#     Edge 56, Type (0, 0), BuildingBlock: EZIPEK_clean_linker_0, # of connection points: 2
#     Edge 57, Type (0, 0), BuildingBlock: EZIPEK_clean_linker_0, # of connection points: 2
#     Edge 58, Type (0, 0), BuildingBlock: EZIPEK_clean_linker_0, # of connection points: 2
#     Edge 59, Type (0, 0), BuildingBlock: EZIPEK_clean_linker_0, # of connection points: 2
#     Edge 60, Type (0, 0), BuildingBlock: EZIPEK_clean_linker_0, # of connection points: 2
#     Edge 61, Type (0, 0), BuildingBlock: EZIPEK_clean_linker_0, # of connection points: 2
#     Edge 62, Type (0, 0), BuildingBlock: EZIPEK_clean_linker_0, # of connection points: 2
#     Edge 63, Type (0, 0), BuildingBlock: EZIPEK_clean_linker_0, # of connection points: 2
#     Edge 64, Type (0, 0), BuildingBlock: EZIPEK_clean_linker_0, # of connection points: 2
#     Edge 65, Type (0, 0), BuildingBlock: EZIPEK_clean_linker_0, # of connection points: 2
#     Edge 66, Type (0, 0), BuildingBlock: EZIPEK_clean_linker_0, # of connection points: 2
#     Edge 67, Type (0, 0), BuildingBlock: EZIPEK_clean_linker_0, # of connection points: 2
#     Edge 68, Type (0, 0), BuildingBlock: EZIPEK_clean_linker_0, # of connection points: 2
#     Edge 69, Type (0, 0), BuildingBlock: EZIPEK_clean_linker_0, # of connection points: 2
#     Edge 70, Type (0, 0), BuildingBlock: EZIPEK_clean_linker_0, # of connection points: 2
#     Edge 71, Type (0, 0), BuildingBlock: EZIPEK_clean_linker_0, # of connection points: 2
#     Edge 72, Type (0, 0), BuildingBlock: EZIPEK_clean_linker_0, # of connection points: 2
#     Edge 73, Type (0, 0), BuildingBlock: EZIPEK_clean_linker_0, # of connection points: 2
#     Edge 74, Type (0, 0), BuildingBlock: EZIPEK_clean_linker_0, # of connection points: 2
#     Edge 75, Type (0, 0), BuildingBlock: EZIPEK_clean_linker_0, # of connection points: 2
#     Edge 76, Type (0, 0), BuildingBlock: EZIPEK_clean_linker_0, # of connection points: 2
#     Edge 77, Type (0, 0), BuildingBlock: EZIPEK_clean_linker_0, # of connection points: 2
#     Edge 78, Type (0, 0), BuildingBlock: EZIPEK_clean_linker_0, # of connection points: 2
#     Edge 79, Type (0, 0), BuildingBlock: EZIPEK_clean_linker_0, # of connection points: 2
#     Edge 80, Type (0, 0), BuildingBlock: EZIPEK_clean_linker_0, # of connection points: 2
#     Edge 81, Type (0, 0), BuildingBlock: EZIPEK_clean_linker_0, # of connection points: 2
#     Edge 82, Type (0, 0), BuildingBlock: EZIPEK_clean_linker_0, # of connection points: 2
#     Edge 83, Type (0, 0), BuildingBlock: EZIPEK_clean_linker_0, # of connection points: 2
#     Edge 84, Type (0, 0), BuildingBlock: EZIPEK_clean_linker_0, # of connection points: 2
#     Edge 85, Type (0, 0), BuildingBlock: EZIPEK_clean_linker_0, # of connection points: 2
#     Edge 86, Type (0, 0), BuildingBlock: EZIPEK_clean_linker_0, # of connection points: 2
#     Edge 87, Type (0, 0), BuildingBlock: EZIPEK_clean_linker_0, # of connection points: 2
#     Edge 88, Type (0, 0), BuildingBlock: EZIPEK_clean_linker_0, # of connection points: 2
#     Edge 89, Type (0, 0), BuildingBlock: EZIPEK_clean_linker_0, # of connection points: 2
#     Edge 90, Type (0, 0), BuildingBlock: EZIPEK_clean_linker_0, # of connection points: 2
#     Edge 91, Type (0, 0), BuildingBlock: EZIPEK_clean_linker_0, # of connection points: 2
#     Edge 92, Type (0, 0), BuildingBlock: EZIPEK_clean_linker_0, # of connection points: 2
#     Edge 93, Type (0, 0), BuildingBlock: EZIPEK_clean_linker_0, # of connection points: 2
#     Edge 94, Type (0, 0), BuildingBlock: EZIPEK_clean_linker_0, # of connection points: 2
#     Edge 95, Type (0, 0), BuildingBlock: EZIPEK_clean_linker_0, # of connection points: 2
# Relax obj value: 0.163
# Max RMSD: 0.161
# Mean RMSD: 0.161
data_MOF--net-uod--node1-CEKHIL_clean_sbu_0--edge1-EZIPEK_clean_linker_0
_symmetry_space_group_name_H-M    P1
_symmetry_Int_Tables_number       1
_symmetry_cell_setting            triclinic
loop_
_symmetry_equiv_pos_as_xyz
'x, y, z'
_cell_length_a     67.083553
_cell_length_b     19.166523
_cell_length_c     43.657858
_cell_angle_alpha  89.982453
_cell_angle_beta   90.349157
_cell_angle_gamma 89.99647
loop_
_atom_site_label
_atom_site_type_symbol
_atom_site_fract_x
_atom_site_fract_y
_atom_site_fract_z
_atom_type_partial_charge
Co0 Co 0.05519 0.34403 0.08819 0.0
O1 O 0.02863 0.36185 0.07198 0.0
O2 O 0.05593 0.41061 0.05409 0.0
C3 C 0.05204 0.22692 0.09238 0.0
O4 O 0.08523 0.33757 0.10009 0.0
Co5 Co 0.05879 0.2826 0.15459 0.0
O6 O 0.08792 0.2871 0.14685 0.0
C7 C 0.04735 0.42788 0.14547 0.0
C8 C 0.03655 0.4056 0.05298 0.0
C9 C 0.09569 0.31501 0.12325 0.0
O10 O 0.05194 0.42264 0.11716 0.0
O11 O 0.04709 0.37661 0.16421 0.0
O12 O 0.05641 0.25496 0.0661 0.0
O13 O 0.0479 0.27083 0.11374 0.0
Co14 Co 0.22966 0.87317 0.0867 0.0
O15 O 0.25571 0.86452 0.06795 0.0
O16 O 0.22754 0.82971 0.04642 0.0
C17 C 0.23286 0.98247 0.1051 0.0
O18 O 0.20004 0.87165 0.0994 0.0
Co19 Co 0.22657 0.89141 0.15776 0.0
O20 O 0.19763 0.90181 0.14918 0.0
C21 C 0.23426 0.75336 0.13158 0.0
C22 C 0.24694 0.83227 0.04546 0.0
C23 C 0.18967 0.88464 0.12367 0.0
O24 O 0.23295 0.77911 0.10467 0.0
O25 O 0.23324 0.78923 0.15623 0.0
O26 O 0.22792 0.97286 0.07649 0.0
O27 O 0.23775 0.92726 0.12013 0.0
Co28 Co 0.06306 0.85097 0.16689 0.0
O29 O 0.03676 0.83702 0.18372 0.0
O30 O 0.06471 0.8278 0.21037 0.0
C31 C 0.05684 0.94818 0.13899 0.0
O32 O 0.09286 0.86128 0.15643 0.0
Co33 Co 0.06731 0.82828 0.09774 0.0
O34 O 0.09603 0.84695 0.10538 0.0
C35 C 0.05782 0.712 0.13633 0.0
C36 C 0.04543 0.81914 0.20915 0.0
C37 C 0.10349 0.85863 0.13178 0.0
O38 O 0.06405 0.74924 0.15857 0.0
O39 O 0.05573 0.73555 0.10917 0.0
O40 O 0.0607 0.95216 0.16821 0.0
O41 O 0.05419 0.88554 0.12864 0.0
Co42 Co 0.2198 0.3521 0.18359 0.0
O43 O 0.24495 0.37188 0.204 0.0
O44 O 0.21572 0.40456 0.22167 0.0
C45 C 0.22635 0.24055 0.17132 0.0
O46 O 0.19075 0.34 0.16716 0.0
Co47 Co 0.22178 0.31826 0.11349 0.0
O48 O 0.19226 0.3145 0.11659 0.0
C49 C 0.23062 0.4573 0.13606 0.0
C50 C 0.23511 0.40642 0.22438 0.0
C51 C 0.1823 0.32609 0.1409 0.0
O52 O 0.22218 0.44174 0.1613 0.0
O53 O 0.23435 0.41325 0.11488 0.0
O54 O 0.21993 0.25535 0.19867 0.0
O55 O 0.23051 0.29325 0.15434 0.0
Co56 Co 0.96901 0.61235 0.92906 0.0
O57 O 0.99468 0.59885 0.94884 0.0
O58 O 0.96591 0.57547 0.97065 0.0
C59 C 0.97471 0.71733 0.90805 0.0
O60 O 0.93956 0.62036 0.914 0.0
Co61 Co 0.96912 0.61425 0.85765 0.0
O62 O 0.93983 0.62307 0.86224 0.0
C63 C 0.97637 0.4845 0.88997 0.0
C64 C 0.98534 0.57225 0.97194 0.0
C65 C 0.93046 0.62401 0.88759 0.0
O66 O 0.9705 0.51462 0.91439 0.0
O67 O 0.97876 0.51622 0.8645 0.0
O68 O 0.9696 0.71293 0.93672 0.0
O69 O 0.97875 0.65887 0.89484 0.0
Co70 Co 0.80742 0.1108 0.92313 0.0
O71 O 0.78151 0.12735 0.94144 0.0
O72 O 0.81017 0.14897 0.96455 0.0
C73 C 0.8015 0.00537 0.9024 0.0
O74 O 0.83694 0.09999 0.91004 0.0
Co75 Co 0.80845 0.10661 0.8517 0.0
O76 O 0.8376 0.0968 0.8583 0.0
C77 C 0.80153 0.23763 0.88287 0.0
C78 C 0.79076 0.15375 0.96487 0.0
C79 C 0.84646 0.09576 0.88425 0.0
O80 O 0.80712 0.20793 0.90765 0.0
O81 O 0.79908 0.20529 0.85752 0.0
O82 O 0.80598 0.01046 0.93139 0.0
O83 O 0.79802 0.06371 0.88862 0.0
Co84 Co 0.97373 0.09933 0.83891 0.0
O85 O 1.00017 0.1139 0.82227 0.0
O86 O 0.97268 0.1597 0.80289 0.0
C87 C 0.97631 0.98372 0.84753 0.0
O88 O 0.94389 0.09717 0.85061 0.0
Co89 Co 0.96995 0.05023 0.90697 0.0
O90 O 0.94084 0.05063 0.89787 0.0
C91 C 0.98231 0.19265 0.89307 0.0
C92 C 0.99208 0.15559 0.80235 0.0
C93 C 0.93321 0.07673 0.87358 0.0
O94 O 0.97747 0.18295 0.86502 0.0
O95 O 0.98253 0.14445 0.91334 0.0
O96 O 0.97165 0.00606 0.82021 0.0
O97 O 0.98109 0.03099 0.8671 0.0
Co98 Co 0.80337 0.62108 0.8347 0.0
O99 O 0.77691 0.60791 0.81712 0.0
O100 O 0.80416 0.55961 0.79883 0.0
C101 C 0.80119 0.73706 0.84307 0.0
O102 O 0.83324 0.62188 0.84764 0.0
Co103 Co 0.80672 0.67022 0.90289 0.0
O104 O 0.8359 0.6686 0.895 0.0
C105 C 0.79432 0.52795 0.88874 0.0
C106 C 0.78478 0.56488 0.79772 0.0
C107 C 0.84375 0.64203 0.87113 0.0
O108 O 0.79911 0.53793 0.86079 0.0
O109 O 0.79428 0.5758 0.90914 0.0
O110 O 0.80596 0.71427 0.81596 0.0
O111 O 0.79611 0.6901 0.86251 0.0
Co112 Co 0.05355 0.87566 0.59158 0.0
O113 O 0.02674 0.88759 0.57521 0.0
O114 O 0.05395 0.91985 0.55104 0.0
C115 C 0.04984 0.76686 0.61 0.0
O116 O 0.0837 0.87269 0.60287 0.0
Co117 Co 0.05796 0.85782 0.66269 0.0
O118 O 0.08635 0.84034 0.65253 0.0
C119 C 0.04888 -0.00564 0.6364 0.0
C120 C 0.0345 0.91951 0.552 0.0
C121 C 0.09423 0.85656 0.62696 0.0
O122 O 0.0519 0.96957 0.60973 0.0
O123 O 0.04903 0.95803 0.66099 0.0
O124 O 0.05381 0.77594 0.58109 0.0
O125 O 0.0461 0.82261 0.62529 0.0
Co126 Co 0.21784 0.38084 0.58484 0.0
O127 O 0.24422 0.36731 0.56788 0.0
O128 O 0.21664 0.32552 0.54716 0.0
C129 C 0.22132 0.49455 0.59671 0.0
O130 O 0.18793 0.38412 0.59663 0.0
Co131 Co 0.2146 0.42004 0.65426 0.0
O132 O 0.18544 0.42118 0.64562 0.0
C133 C 0.2272 0.2809 0.63588 0.0
C134 C 0.23606 0.32902 0.5468 0.0
C135 C 0.17752 0.40106 0.62047 0.0
O136 O 0.22116 0.2935 0.6086 0.0
O137 O 0.22814 0.32667 0.65714 0.0
O138 O 0.21644 0.47692 0.56883 0.0
O139 O 0.22565 0.44402 0.61486 0.0
Co140 Co 0.05552 0.39103 0.68434 0.0
O141 O 0.03103 0.37379 0.70638 0.0
O142 O 0.06055 0.33484 0.72103 0.0
C143 C 0.05067 0.5041 0.67358 0.0
O144 O 0.08388 0.39892 0.66611 0.0
Co145 Co 0.05118 0.42846 0.61478 0.0
O146 O 0.08079 0.42337 0.61565 0.0
C147 C 0.04322 0.28802 0.63562 0.0
C148 C 0.04129 0.33536 0.72512 0.0
C149 C 0.09149 0.41013 0.63924 0.0
O150 O 0.05124 0.30352 0.66129 0.0
O151 O 0.03954 0.3321 0.61437 0.0
O152 O 0.05757 0.48645 0.70046 0.0
O153 O 0.04468 0.4536 0.6565 0.0
Co154 Co 0.22065 0.86466 0.67893 0.0
O155 O 0.24658 0.87864 0.69795 0.0
O156 O 0.21806 0.90683 0.71956 0.0
C157 C 0.22543 0.75709 0.6602 0.0
O158 O 0.19102 0.85728 0.66517 0.0
Co159 Co 0.21942 0.85241 0.60755 0.0
O160 O 0.19012 0.84908 0.61357 0.0
C161 C 0.22712 0.9866 0.63574 0.0
C162 C 0.2375 0.90805 0.72066 0.0
C163 C 0.18132 0.85264 0.63936 0.0
O164 O 0.22233 0.95993 0.66149 0.0
O165 O 0.22877 0.95155 0.611 0.0
O166 O 0.22082 0.76504 0.68894 0.0
O167 O 0.22964 0.81354 0.64558 0.0
Co168 Co 0.96526 0.1316 0.42804 0.0
O169 O 0.99191 0.11795 0.44514 0.0
O170 O 0.96456 0.07597 0.46571 0.0
C171 C 0.96911 0.24615 0.41641 0.0
O172 O 0.93495 0.13458 0.41717 0.0
Co173 Co 0.96 0.1717 0.35924 0.0
O174 O 0.93095 0.16309 0.3673 0.0
C175 C 0.97455 0.03409 0.37622 0.0
C176 C 0.98395 0.07985 0.46639 0.0
C177 C 0.92379 0.1459 0.39323 0.0
O178 O 0.96849 0.04452 0.40364 0.0
O179 O 0.9746 0.0808 0.35533 0.0
O180 O 0.96429 0.22787 0.44417 0.0
O181 O 0.97265 0.19564 0.3979 0.0
Co182 Co 0.81236 0.61503 0.42052 0.0
O183 O 0.78603 0.62394 0.4382 0.0
O184 O 0.81389 0.64666 0.4631 0.0
C185 C 0.80715 0.51322 0.3957 0.0
O186 O 0.84228 0.61027 0.40927 0.0
Co187 Co 0.81568 0.62557 0.35019 0.0
O188 O 0.84483 0.62073 0.35796 0.0
C189 C 0.80552 0.74768 0.38495 0.0
C190 C 0.79444 0.64928 0.46256 0.0
C191 C 0.8527 0.61386 0.3844 0.0
O192 O 0.8113 0.71487 0.40881 0.0
O193 O 0.80416 0.71994 0.35846 0.0
O194 O 0.81176 0.5137 0.42475 0.0
O195 O 0.80364 0.57363 0.38376 0.0
Co196 Co 0.9787 0.61755 0.33486 0.0
O197 O 1.0047 0.62654 0.31612 0.0
O198 O 0.97644 0.65924 0.29422 0.0
C199 C 0.98157 0.50898 0.35445 0.0
O200 O 0.9491 0.61872 0.34819 0.0
Co201 Co 0.97655 0.60639 0.40611 0.0
O202 O 0.94772 0.59021 0.39824 0.0
C203 C 0.98328 0.74198 0.37733 0.0
C204 C 0.99586 0.65834 0.29354 0.0
C205 C 0.93918 0.60604 0.373 0.0
O206 O 0.9816 0.71286 0.35127 0.0
O207 O 0.98267 0.70917 0.40283 0.0
O208 O 0.97728 0.51763 0.32555 0.0
O209 O 0.98681 0.56489 0.36888 0.0
Co210 Co 0.798 0.12233 0.34107 0.0
O211 O 0.77194 0.10204 0.3236 0.0
O212 O 0.8001 0.05902 0.306 0.0
C213 C 0.79419 0.23754 0.34732 0.0
O214 O 0.8277 0.1328 0.35424 0.0
Co215 Co 0.79925 0.178 0.40891 0.0
O216 O 0.82851 0.17623 0.40244 0.0
C217 C 0.79202 0.03101 0.39708 0.0
C218 C 0.78069 0.0612 0.30423 0.0
C219 C 0.8373 0.15348 0.37859 0.0
O220 O 0.7956 0.04085 0.36866 0.0
O221 O 0.79092 0.07944 0.4171 0.0
O222 O 0.79875 0.21296 0.32044 0.0
O223 O 0.78954 0.19167 0.36756 0.0
Co224 Co 0.54914 0.3473 0.58372 0.0
O225 O 0.52377 0.36739 0.5639 0.0
O226 O 0.55255 0.40977 0.54851 0.0
C227 C 0.54514 0.23218 0.59055 0.0
O228 O 0.57828 0.3369 0.59986 0.0
Co229 Co 0.54743 0.29506 0.652 0.0
O230 O 0.57693 0.2951 0.64834 0.0
C231 C 0.54065 0.44121 0.63796 0.0
C232 C 0.5332 0.40819 0.5453 0.0
C233 C 0.58678 0.31659 0.62526 0.0
O234 O 0.54581 0.42995 0.61028 0.0
O235 O 0.53818 0.39354 0.65805 0.0
O236 O 0.55061 0.25578 0.56391 0.0
O237 O 0.53964 0.27889 0.60989 0.0
Co238 Co 0.73103 0.85694 0.59259 0.0
O239 O 0.75729 0.84022 0.57559 0.0
O240 O 0.72903 0.8095 0.55314 0.0
C241 C 0.73515 0.96822 0.60833 0.0
O242 O 0.70124 0.86463 0.60472 0.0
Co243 Co 0.72839 0.88132 0.66336 0.0
O244 O 0.69986 0.89911 0.65426 0.0
C245 C 0.73237 0.73961 0.6393 0.0
C246 C 0.74846 0.80805 0.55317 0.0
C247 C 0.6914 0.88215 0.62912 0.0
O248 O 0.73198 0.76444 0.61225 0.0
O249 O 0.73211 0.77691 0.6636 0.0
O250 O 0.73139 0.95432 0.57974 0.0
O251 O 0.73926 0.91417 0.62491 0.0
Co252 Co 0.56319 0.85696 0.66757 0.0
O253 O 0.53626 0.84393 0.68294 0.0
O254 O 0.56338 0.82707 0.71055 0.0
C255 C 0.55788 0.95826 0.64203 0.0
O256 O 0.59347 0.86601 0.65917 0.0
Co257 Co 0.56976 0.8475 0.59774 0.0
O258 O 0.59847 0.85657 0.60823 0.0
C259 C 0.55807 0.72523 0.63138 0.0
C260 C 0.54402 0.82209 0.70847 0.0
C261 C 0.605 0.8646 0.63542 0.0
O262 O 0.56362 0.75684 0.65575 0.0
O263 O 0.55729 0.75431 0.60512 0.0
O264 O 0.56126 0.95831 0.67146 0.0
O265 O 0.55556 0.89733 0.6299 0.0
Co266 Co 0.71269 0.33817 0.68557 0.0
O267 O 0.7391 0.35362 0.70263 0.0
O268 O 0.71141 0.38852 0.72468 0.0
C269 C 0.71774 0.22652 0.67081 0.0
O270 O 0.68272 0.33221 0.67306 0.0
Co271 Co 0.71028 0.3103 0.61506 0.0
O272 O 0.68101 0.31192 0.62198 0.0
C273 C 0.72267 0.44507 0.63883 0.0
C274 C 0.73088 0.38878 0.72448 0.0
C275 C 0.6727 0.32327 0.64773 0.0
O276 O 0.71479 0.42911 0.66441 0.0
O277 O 0.72481 0.40211 0.61669 0.0
O278 O 0.71278 0.23973 0.69903 0.0
O279 O 0.72111 0.2803 0.65407 0.0
Co280 Co 0.46537 0.65205 0.43232 0.0
O281 O 0.49161 0.63021 0.44876 0.0
O282 O 0.46369 0.58624 0.46669 0.0
C283 C 0.47073 0.76759 0.42786 0.0
O284 O 0.43552 0.66327 0.41997 0.0
Co285 Co 0.46293 0.71347 0.36579 0.0
O286 O 0.43373 0.71373 0.3731 0.0
C287 C 0.47614 0.57107 0.37702 0.0
C288 C 0.48313 0.58803 0.46782 0.0
C289 C 0.42547 0.68735 0.39667 0.0
O290 O 0.46806 0.57341 0.40346 0.0
O291 O 0.47783 0.62364 0.35919 0.0
O292 O 0.4653 0.74167 0.45412 0.0
O293 O 0.47396 0.72261 0.40665 0.0
Co294 Co 0.30819 0.13712 0.42576 0.0
O295 O 0.28121 0.14955 0.44063 0.0
O296 O 0.30822 0.16344 0.46904 0.0
C297 C 0.30347 0.03782 0.3986 0.0
O298 O 0.33842 0.12959 0.41772 0.0
Co299 Co 0.31478 0.15421 0.35639 0.0
O300 O 0.34357 0.14742 0.36725 0.0
C301 C 0.3029 0.2722 0.39238 0.0
C302 C 0.28891 0.1696 0.46648 0.0
C303 C 0.35003 0.136 0.39427 0.0
O304 O 0.30874 0.23798 0.41579 0.0
O305 O 0.30177 0.24594 0.36558 0.0
O306 O 0.30644 0.03558 0.42811 0.0
O307 O 0.30089 0.0996 0.38738 0.0
Co308 Co 0.47674 0.14228 0.3552 0.0
O309 O 0.50326 0.14951 0.33809 0.0
O310 O 0.47552 0.16498 0.3116 0.0
C311 C 0.48053 0.04454 0.38345 0.0
O312 O 0.44674 0.13992 0.36602 0.0
Co313 Co 0.4731 0.16684 0.42476 0.0
O314 O 0.44412 0.15562 0.41713 0.0
C315 C 0.48029 0.2848 0.38568 0.0
C316 C 0.49492 0.16924 0.31263 0.0
C317 C 0.43634 0.14538 0.39087 0.0
O318 O 0.47778 0.24398 0.36301 0.0
O319 O 0.48078 0.2642 0.41347 0.0
O320 O 0.47696 0.04088 0.35414 0.0
O321 O 0.48472 0.10627 0.39369 0.0
Co322 Co 0.29996 0.64681 0.34255 0.0
O323 O 0.2742 0.6252 0.32426 0.0
O324 O 0.30266 0.58168 0.30814 0.0
C325 C 0.29563 0.76255 0.3476 0.0
O326 O 0.32948 0.65876 0.3568 0.0
Co327 Co 0.30022 0.70524 0.40982 0.0
O328 O 0.32956 0.70794 0.40399 0.0
C329 C 0.29172 0.55874 0.39858 0.0
C330 C 0.28328 0.58346 0.30567 0.0
C331 C 0.33871 0.68333 0.38083 0.0
O332 O 0.29702 0.56649 0.3707 0.0
O333 O 0.28995 0.60864 0.41778 0.0
O334 O 0.30078 0.7368 0.3212 0.0
O335 O 0.29095 0.71723 0.36808 0.0
Co336 Co 0.5492 0.84145 0.09238 0.0
O337 O 0.52376 0.86289 0.07315 0.0
O338 O 0.55268 0.9011 0.05631 0.0
C339 C 0.54383 0.72619 0.10067 0.0
O340 O 0.57841 0.82914 0.10744 0.0
Co341 Co 0.54844 0.79363 0.16108 0.0
O342 O 0.57769 0.78383 0.15536 0.0
C343 C 0.54211 0.93989 0.14544 0.0
C344 C 0.53329 0.90148 0.05378 0.0
C345 C 0.58719 0.80567 0.132 0.0
O346 O 0.5469 0.9266 0.11779 0.0
O347 O 0.53982 0.89346 0.16618 0.0
O348 O 0.54958 0.74823 0.07396 0.0
O349 O 0.53944 0.77525 0.11965 0.0
Co350 Co 0.72861 0.34779 0.10016 0.0
O351 O 0.75507 0.33211 0.08367 0.0
O352 O 0.72721 0.3162 0.05766 0.0
C353 C 0.73502 0.44914 0.1249 0.0
O354 O 0.69862 0.35946 0.10984 0.0
Co355 Co 0.72317 0.34168 0.17044 0.0
O356 O 0.69486 0.36172 0.16118 0.0
C357 C 0.73011 0.2145 0.13733 0.0
C358 C 0.74656 0.30962 0.0588 0.0
C359 C 0.68765 0.36378 0.13414 0.0
O360 O 0.72725 0.24833 0.11252 0.0
O361 O 0.73107 0.24254 0.16377 0.0
O362 O 0.73121 0.44865 0.09557 0.0
O363 O 0.73696 0.38831 0.1372 0.0
Co364 Co 0.56208 0.35718 0.1829 0.0
O365 O 0.53631 0.34769 0.20231 0.0
O366 O 0.56487 0.31975 0.22443 0.0
C367 C 0.557 0.46339 0.1616 0.0
O368 O 0.59156 0.35882 0.16904 0.0
Co369 Co 0.563 0.3613 0.11159 0.0
O370 O 0.59222 0.37101 0.11756 0.0
C371 C 0.55391 0.23133 0.14316 0.0
C372 C 0.54543 0.31936 0.22543 0.0
C373 C 0.60108 0.36491 0.14337 0.0
O374 O 0.5594 0.25993 0.16819 0.0
O375 O 0.55248 0.26393 0.11767 0.0
O376 O 0.56256 0.45852 0.19016 0.0
O377 O 0.55276 0.40517 0.14834 0.0
Co378 Co 0.71377 0.83418 0.18319 0.0
O379 O 0.74013 0.85831 0.19873 0.0
O380 O 0.71212 0.89173 0.22028 0.0
C381 C 0.72108 0.72142 0.17372 0.0
O382 O 0.68383 0.81982 0.17276 0.0
Co383 Co 0.70965 0.78252 0.11473 0.0
O384 O 0.6809 0.77667 0.12462 0.0
C385 C 0.71942 0.92734 0.12917 0.0
C386 C 0.73155 0.89346 0.22028 0.0
C387 C 0.67328 0.79849 0.14952 0.0
O388 O 0.71409 0.91833 0.15703 0.0
O389 O 0.72076 0.87886 0.10918 0.0
O390 O 0.71608 0.74059 0.20127 0.0
O391 O 0.72242 0.7711 0.15416 0.0
Co392 Co 0.46965 0.12641 0.9299 0.0
O393 O 0.49545 0.10387 0.94771 0.0
O394 O 0.46681 0.08609 0.97092 0.0
C395 C 0.47794 0.2316 0.91016 0.0
O396 O 0.44033 0.14202 0.91654 0.0
Co397 Co 0.46841 0.14027 0.85764 0.0
O398 O 0.44007 0.16403 0.86541 0.0
C399 C 0.47495 0.00639 0.88809 0.0
C400 C 0.48613 0.07812 0.97101 0.0
C401 C 0.43117 0.15612 0.89095 0.0
O402 O 0.46833 0.03199 0.91292 0.0
O403 O 0.47821 0.0418 0.86376 0.0
O404 O 0.47343 0.22554 0.93904 0.0
O405 O 0.47916 0.17314 0.89609 0.0
Co406 Co 0.31358 0.63867 0.91679 0.0
O407 O 0.28746 0.65352 0.93427 0.0
O408 O 0.31577 0.67518 0.95846 0.0
C409 C 0.30789 0.52973 0.89641 0.0
O410 O 0.34346 0.62836 0.90592 0.0
Co411 Co 0.31685 0.64021 0.84838 0.0
O412 O 0.34579 0.62219 0.85462 0.0
C413 C 0.30848 0.7715 0.87772 0.0
C414 C 0.29636 0.67899 0.95821 0.0
C415 C 0.35375 0.62079 0.88113 0.0
O416 O 0.31304 0.73913 0.90245 0.0
O417 O 0.30733 0.7401 0.85196 0.0
O418 O 0.31277 0.53853 0.92499 0.0
O419 O 0.30411 0.58752 0.88169 0.0
Co420 Co 0.48064 0.61534 0.8399 0.0
O421 O 0.50669 0.63614 0.82267 0.0
O422 O 0.47812 0.6666 0.80139 0.0
C423 C 0.48786 0.50384 0.85403 0.0
O424 O 0.45077 0.60384 0.85076 0.0
Co425 Co 0.47625 0.57718 0.90921 0.0
O426 O 0.44736 0.56995 0.90001 0.0
C427 C 0.48642 0.71801 0.89076 0.0
C428 C 0.49752 0.66885 0.80068 0.0
C429 C 0.43994 0.58715 0.87417 0.0
O430 O 0.4814 0.70423 0.86304 0.0
O431 O 0.48799 0.67268 0.91207 0.0
O432 O 0.48224 0.51758 0.82598 0.0
O433 O 0.48962 0.55784 0.87104 0.0
Co434 Co 0.30508 0.11218 0.8459 0.0
O435 O 0.27881 0.09086 0.83095 0.0
O436 O 0.30682 0.07309 0.80495 0.0
C437 C 0.299 0.23528 0.86038 0.0
O438 O 0.33445 0.12986 0.85747 0.0
Co439 Co 0.30838 0.17838 0.92259 0.0
O440 O 0.33641 0.1772 0.90572 0.0
C441 C 0.29639 0.06445 0.90763 0.0
C442 C 0.28742 0.0658 0.80673 0.0
C443 C 0.34435 0.15491 0.8808 0.0
O444 O 0.29679 0.11565 0.88862 0.0
O445 O 0.29818 0.08295 0.93529 0.0
O446 O 0.30164 0.21338 0.8333 0.0
O447 O 0.29799 0.18337 0.87881 0.0
C448 C 0.06732 0.59763 0.15929 0.0
C449 C 0.05307 0.63895 0.14331 0.0
C450 C 0.03012 0.54038 0.14145 0.0
C451 C 0.04474 0.49931 0.15638 0.0
N452 N 0.07296 0.49469 0.1903 0.0
N453 N 0.01869 0.65628 0.12805 0.0
C454 C 0.06174 0.53057 0.16945 0.0
C455 C 0.03368 0.61257 0.13722 0.0
N456 N 0.08654 0.62013 0.16281 0.0
N457 N 1.01347 0.50897 0.12978 0.0
H458 H 0.02066 0.70988 0.12532 0.0
H459 H 1.00391 0.6404 0.12581 0.0
H460 H 1.01031 0.45649 0.13404 0.0
H461 H 1.00345 0.53382 0.11508 0.0
H462 H 0.09785 0.58905 0.17193 0.0
H463 H 0.0917 0.66687 0.1536 0.0
H464 H 0.08486 0.51699 0.20225 0.0
H465 H 0.06891 0.44514 0.19795 0.0
C466 C 0.21806 0.64153 0.11842 0.0
C467 C 0.234 0.6771 0.13325 0.0
C468 C 0.24921 0.56616 0.14754 0.0
C469 C 0.23405 0.53135 0.13069 0.0
N470 N 0.20628 0.53456 0.09536 0.0
N471 N 0.26627 0.67521 0.15789 0.0
C472 C 0.2193 0.56873 0.11436 0.0
C473 C 0.25005 0.64005 0.14678 0.0
N474 N 0.2012 0.67684 0.10979 0.0
N475 N 0.26249 0.52848 0.16473 0.0
H476 H 0.26731 0.7295 0.15772 0.0
H477 H 0.27929 0.65064 0.16524 0.0
H478 H 0.26303 0.47408 0.16423 0.0
H479 H 0.27222 0.55085 0.18059 0.0
H480 H 0.18827 0.65232 0.10202 0.0
H481 H 0.19926 0.73015 0.11332 0.0
H482 H 0.19664 0.56023 0.08033 0.0
H483 H 0.2063 0.48057 0.09248 0.0
C484 C 0.96896 0.29933 0.91554 0.0
C485 C 0.98528 0.26559 0.90186 0.0
C486 C 0.99795 0.37813 0.8841 0.0
C487 C 0.97944 0.40872 0.89217 0.0
N488 N 0.94562 0.39386 0.90998 0.0
N489 N 0.0156 0.27086 0.87282 0.0
C490 C 0.96449 0.36819 0.9066 0.0
C491 C 1.00003 0.30465 0.88632 0.0
N492 N 0.95739 0.26507 0.9363 0.0
N493 N 1.0136 0.4189 0.87526 0.0
H494 H 0.01801 0.21743 0.87575 0.0
H495 H 0.02542 0.29505 0.85778 0.0
H496 H 1.01278 0.47312 0.87395 0.0
H497 H 0.02791 0.39941 0.87179 0.0
H498 H 0.94611 0.28961 0.94858 0.0
H499 H 0.96061 0.21463 0.94374 0.0
H500 H 0.93379 0.36388 0.91804 0.0
H501 H 0.94124 0.44217 0.90125 0.0
C502 C 0.77683 0.41595 0.88122 0.0
C503 C 0.7915 0.45482 0.89725 0.0
C504 C 0.81303 0.35371 0.90013 0.0
C505 C 0.79827 0.3133 0.88495 0.0
N506 N 0.76394 0.30171 0.86824 0.0
N507 N 0.81951 0.45437 0.93185 0.0
C508 C 0.77943 0.34297 0.87758 0.0
C509 C 0.80813 0.42119 0.91035 0.0
N510 N 0.76084 0.44965 0.86857 0.0
N511 N 0.83205 0.32906 0.90331 0.0
H512 H 0.81585 0.50362 0.94025 0.0
H513 H 0.8311 0.42983 0.94367 0.0
H514 H 0.83662 0.28168 0.89391 0.0
H515 H 0.84373 0.35914 0.91199 0.0
H516 H 0.75095 0.42607 0.85327 0.0
H517 H 0.75815 0.50256 0.87251 0.0
H518 H 0.74945 0.32024 0.86542 0.0
H519 H 0.76514 0.2478 0.86578 0.0
C520 C 0.0285 0.10113 0.64601 0.0
C521 C 0.04687 0.07017 0.63771 0.0
C522 C 0.0589 0.1811 0.61775 0.0
C523 C 0.0417 0.21365 0.6295 0.0
N524 N 1.01081 0.20831 0.65719 0.0
N525 N 0.08093 0.08177 0.62076 0.0
C526 C 0.02658 0.17463 0.64416 0.0
C527 C 0.06246 0.1105 0.62491 0.0
N528 N 1.01278 0.06038 0.65463 0.0
N529 N 0.07199 0.21822 0.60021 0.0
H530 H 0.08426 0.03021 0.62642 0.0
H531 H 0.09343 0.11058 0.61454 0.0
H532 H 0.06986 0.2707 0.59479 0.0
H533 H 0.08388 0.19555 0.58865 0.0
H534 H 0.99843 0.07971 0.65775 0.0
H535 H 1.01375 0.00627 0.6566 0.0
H536 H 1.00065 0.18386 0.67161 0.0
H537 H 1.00852 0.26191 0.65471 0.0
C538 C 0.24601 0.09789 0.62688 0.0
C539 C 0.22821 0.06291 0.63502 0.0
C540 C 0.21445 0.17051 0.65548 0.0
C541 C 0.23062 0.20748 0.64297 0.0
N542 N 0.26138 0.20894 0.61478 0.0
N543 N 0.19356 0.06946 0.64926 0.0
C544 C 0.2464 0.17184 0.6282 0.0
C545 C 0.21188 0.10021 0.64725 0.0
N546 N 0.26255 0.06083 0.61877 0.0
N547 N 0.20129 0.20285 0.67452 0.0
H548 H 0.19078 0.01957 0.64071 0.0
H549 H 0.18075 0.09638 0.6557 0.0
H550 H 0.20293 0.25466 0.68132 0.0
H551 H 0.19007 0.1761 0.68605 0.0
H552 H 0.27646 0.0837 0.61549 0.0
H553 H 0.26271 0.00651 0.6175 0.0
H554 H 0.27194 0.18652 0.6004 0.0
H555 H 0.26258 0.26302 0.61698 0.0
C556 C 0.99754 0.93282 0.37418 0.0
C557 C 0.9786 0.96172 0.36792 0.0
C558 C 0.96323 0.84731 0.36717 0.0
C559 C 0.98178 0.81807 0.37656 0.0
N560 N 0.0168 0.82971 0.38794 0.0
N561 N 0.94568 0.94827 0.34731 0.0
C562 C 0.99913 0.85982 0.37947 0.0
C563 C 0.96211 0.91933 0.36091 0.0
N564 N 1.01385 0.97547 0.37401 0.0
N565 N 0.94653 0.8065 0.36535 0.0
H566 H 0.945 0.00111 0.34162 0.0
H567 H 0.93369 0.91954 0.33885 0.0
H568 H 0.94674 0.75293 0.36912 0.0
H569 H 0.93219 0.82608 0.36226 0.0
H570 H 0.02847 0.95823 0.37646 0.0
H571 H 1.01265 0.02883 0.36951 0.0
H572 H 0.0298 0.85742 0.39251 0.0
H573 H 0.01824 0.77621 0.3918 0.0
C574 C 0.78145 0.84655 0.38747 0.0
C575 C 0.80139 0.82186 0.38926 0.0
C576 C 0.8125 0.93216 0.41139 0.0
C577 C 0.79311 0.95855 0.40671 0.0
N578 N 0.75824 0.93998 0.39987 0.0
N579 N 0.83635 0.84157 0.39945 0.0
C580 C 0.77724 0.915 0.39783 0.0
C581 C 0.81704 0.86448 0.40074 0.0
N582 N 0.76679 0.80531 0.37526 0.0
N583 N 0.82649 0.97314 0.42544 0.0
H584 H 0.84029 0.79346 0.39009 0.0
H585 H 0.84868 0.87201 0.40509 0.0
H586 H 0.82315 0.02307 0.43343 0.0
H587 H 0.84069 0.95616 0.43159 0.0
H588 H 0.75233 0.82233 0.3709 0.0
H589 H 0.76926 0.75415 0.36816 0.0
H590 H 0.74551 0.91016 0.39605 0.0
H591 H 0.75537 0.99036 0.40785 0.0
C592 C 0.56579 0.60597 0.6497 0.0
C593 C 0.55231 0.65192 0.6348 0.0
C594 C 0.52732 0.55956 0.63169 0.0
C595 C 0.54082 0.51446 0.64685 0.0
N596 N 0.57003 0.49893 0.67836 0.0
N597 N 0.51868 0.67804 0.61787 0.0
C598 C 0.55898 0.53965 0.65898 0.0
C599 C 0.53256 0.63049 0.62755 0.0
N600 N 0.5854 0.62405 0.6532 0.0
N601 N 0.50992 0.53322 0.62009 0.0
H602 H 0.52182 0.73087 0.61496 0.0
H603 H 0.50362 0.66636 0.61521 0.0
H604 H 0.50536 0.48211 0.62452 0.0
H605 H 0.50058 0.56061 0.60521 0.0
H606 H 0.5963 0.58979 0.6612 0.0
H607 H 0.59122 0.67089 0.64501 0.0
H608 H 0.58271 0.51673 0.6898 0.0
H609 H 0.56529 0.44979 0.68549 0.0
C610 C 0.7135 0.63352 0.62559 0.0
C611 C 0.73013 0.66367 0.64102 0.0
C612 C 0.74357 0.54788 0.65172 0.0
C613 C 0.72753 0.51863 0.63469 0.0
N614 N 0.6995 0.53229 0.60044 0.0
N615 N 0.76245 0.65172 0.66491 0.0
C616 C 0.71328 0.56115 0.61988 0.0
C617 C 0.7456 0.62151 0.65317 0.0
N618 N 0.6975 0.6739 0.6174 0.0
N619 N 0.75663 0.50501 0.66681 0.0
H620 H 0.76426 0.70561 0.66663 0.0
H621 H 0.77513 0.62377 0.67121 0.0
H622 H 0.75639 0.45088 0.66427 0.0
H623 H 0.76709 0.52262 0.68272 0.0
H624 H 0.68401 0.65364 0.60954 0.0
H625 H 0.69694 0.7275 0.62104 0.0
H626 H 0.6901 0.56164 0.58641 0.0
H627 H 0.69863 0.47891 0.5961 0.0
C628 C 0.49833 0.47138 0.38529 0.0
C629 C 0.48302 0.50244 0.36755 0.0
C630 C 0.46702 0.39086 0.35952 0.0
C631 C 0.48184 0.35927 0.37849 0.0
N632 N 0.51464 0.36484 0.40161 0.0
N633 N 0.45769 0.49147 0.32899 0.0
C634 C 0.49857 0.39802 0.38887 0.0
C635 C 0.46925 0.46154 0.35123 0.0
N636 N 0.51184 0.51291 0.4001 0.0
N637 N 0.45008 0.35542 0.35143 0.0
H638 H 0.45916 0.54397 0.32308 0.0
H639 H 0.44839 0.46298 0.31447 0.0
H640 H 0.44711 0.30438 0.35815 0.0
H641 H 0.43801 0.37882 0.3404 0.0
H642 H 0.52172 0.49476 0.41678 0.0
H643 H 0.51245 0.56668 0.3963 0.0
H644 H 0.52787 0.39021 0.40733 0.0
H645 H 0.51542 0.31077 0.40401 0.0
C646 C 0.3087 0.4574 0.41924 0.0
C647 C 0.29061 0.48655 0.40885 0.0
C648 C 0.27889 0.37167 0.39283 0.0
C649 C 0.29854 0.34612 0.39721 0.0
N650 N 0.33299 0.36667 0.41097 0.0
N651 N 0.25804 0.47408 0.38643 0.0
C652 C 0.31366 0.3892 0.4099 0.0
C653 C 0.27537 0.44407 0.39637 0.0
N654 N 0.32147 0.49635 0.4367 0.0
N655 N 0.26368 0.32693 0.3858 0.0
H656 H 0.2549 0.52672 0.39029 0.0
H657 H 0.24734 0.44782 0.37346 0.0
H658 H 0.26578 0.2734 0.38297 0.0
H659 H 0.24877 0.34202 0.38511 0.0
H660 H 0.33431 0.47606 0.44686 0.0
H661 H 0.31804 0.54706 0.44355 0.0
H662 H 0.3449 0.39839 0.41743 0.0
H663 H 0.33742 0.31859 0.40218 0.0
C664 C 0.56458 0.11202 0.1578 0.0
C665 C 0.54981 0.15618 0.14475 0.0
C666 C 0.52721 0.0571 0.13921 0.0
C667 C 0.54177 0.014 0.15329 0.0
N668 N 0.57181 0.00294 0.18339 0.0
N669 N 0.51548 0.17462 0.12968 0.0
C670 C 0.55953 0.04265 0.16537 0.0
C671 C 0.5306 0.12999 0.13739 0.0
N672 N 0.58376 0.13518 0.16132 0.0
N673 N 0.5105 0.0277 0.12666 0.0
H674 H 0.51734 0.22854 0.12837 0.0
H675 H 0.50072 0.15877 0.12704 0.0
H676 H 0.50711 0.97488 0.12934 0.0
H677 H 0.50061 0.05477 0.11252 0.0
H678 H 0.59555 0.10288 0.16773 0.0
H679 H 0.58835 0.18494 0.15478 0.0
H680 H 0.58409 0.02315 0.19509 0.0
H681 H 0.56858 0.95138 0.1891 0.0
C682 C 0.74291 0.02521 0.12507 0.0
C683 C 0.72341 -0.00095 0.1205 0.0
C684 C 0.70879 0.11222 0.13006 0.0
C685 C 0.72818 0.13923 0.13492 0.0
N686 N 0.76384 0.12555 0.13664 0.0
N687 N 0.68886 0.01824 0.10916 0.0
C688 C 0.74539 0.09707 0.13193 0.0
C689 C 0.70671 0.04327 0.11962 0.0
N690 N 0.75869 0.98012 0.12442 0.0
N691 N 0.69242 0.15133 0.13717 0.0
H692 H 0.68732 0.96714 0.10117 0.0
H693 H 0.67635 0.04948 0.10563 0.0
H694 H 0.69346 0.20166 0.14615 0.0
H695 H 0.67796 0.13159 0.13706 0.0
H696 H 0.77328 -0.0065 0.13001 0.0
H697 H 0.75698 0.9278 0.11832 0.0
H698 H 0.77719 0.0993 0.13313 0.0
H699 H 0.76581 0.177 0.14388 0.0
C700 C 0.46662 0.81814 0.90511 0.0
C701 C 0.48569 0.79092 0.89925 0.0
C702 C 0.49868 0.90689 0.88888 0.0
C703 C 0.47873 0.93175 0.88895 0.0
N704 N 0.4434 0.91129 0.89537 0.0
N705 N 0.52056 0.80564 0.88976 0.0
C706 C 0.4626 0.88752 0.89684 0.0
C707 C 0.50204 0.83439 0.89261 0.0
N708 N 0.45243 0.77722 0.91849 0.0
N709 N 0.51424 0.95263 0.88628 0.0
H710 H 0.52321 0.75289 0.89421 0.0
H711 H 0.53306 0.83283 0.88236 0.0
H712 H 0.51227 0.0062 0.88339 0.0
H713 H 0.52913 0.93851 0.88872 0.0
H714 H 0.43876 0.79618 0.92603 0.0
H715 H 0.45511 0.72554 0.92477 0.0
H716 H 0.43097 0.87923 0.89766 0.0
H717 H 0.43981 0.96225 0.8893 0.0
C718 C 0.32193 0.88999 0.89041 0.0
C719 C 0.3057 0.84893 0.87994 0.0
C720 C 0.28383 0.95213 0.88353 0.0
C721 C 0.29956 0.99034 0.89775 0.0
N722 N 0.33322 -0.00763 0.91787 0.0
N723 N 0.27075 0.83896 0.86798 0.0
C724 C 0.31849 0.95826 0.90212 0.0
C725 C 0.28655 0.87972 0.8765 0.0
N726 N 0.34085 0.86433 0.88795 0.0
N727 N 0.2662 0.98485 0.87711 0.0
H728 H 0.27228 0.78654 0.86205 0.0
H729 H 0.25599 0.85565 0.86839 0.0
H730 H 0.26326 0.03613 0.88369 0.0
H731 H 0.255 0.96302 0.86358 0.0
H732 H 0.35362 0.89337 0.89263 0.0
H733 H 0.34379 0.8162 0.87779 0.0
H734 H 0.34632 0.96826 0.92518 0.0
H735 H 0.33199 0.04374 0.92533 0.0
C736 C 1.01136 0.56411 0.01431 0.0
C737 C 0.99673 0.53088 0.99562 0.0
C738 C 1.00989 0.41619 0.01198 0.0
C739 C 0.02361 0.44933 0.0322 0.0
N740 N 0.03469 0.55508 0.05694 0.0
N741 N 0.97995 0.42438 0.98079 0.0
C742 C 0.02365 0.52344 0.03449 0.0
C743 C 0.99528 0.45668 0.9959 0.0
N744 N 1.01361 0.63488 0.01268 0.0
N745 N 1.0115 0.34602 1.00684 0.0
H746 H 0.9692 0.45107 0.96816 0.0
H747 H 0.9768 0.37142 0.98295 0.0
H748 H 0.02222 0.31489 0.01756 0.0
H749 H 1.0036 0.31974 0.98979 0.0
H750 H 0.02554 0.66153 0.02258 0.0
H751 H 1.00403 0.66678 1.0 0.0
H752 H 0.03362 0.60793 0.0622 0.0
H753 H 0.04376 0.52758 0.0722 0.0
C754 C 0.28682 0.79099 0.9855 0.0
C755 C 0.28463 0.71735 0.98209 0.0
C756 C 0.25761 0.71893 0.02024 0.0
C757 C 0.2589 0.79307 0.0221 0.0
N758 N 0.27249 0.90055 1.00297 0.0
N759 N 0.26651 0.61214 0.99367 0.0
C760 C 0.273 0.82922 1.00387 0.0
C761 C 0.26954 0.6818 0.99864 0.0
N762 N 0.30208 0.8248 0.97109 0.0
N763 N 0.24575 0.68325 0.04022 0.0
H764 H 0.27593 0.58169 0.98025 0.0
H765 H 0.25409 0.5851 1.00152 0.0
H766 H 0.23641 0.70753 0.05586 0.0
H767 H 0.24615 0.62931 0.04295 0.0
H768 H 0.30593 0.8765 0.97533 0.0
H769 H 0.31192 0.80025 0.95627 0.0
H770 H 0.28069 0.93058 0.98769 0.0
H771 H 0.26243 0.93001 0.01571 0.0
C772 C 0.03764 0.70786 0.23824 0.0
C773 C 0.03388 0.78021 0.23309 0.0
C774 C 1.00512 0.7733 0.26797 0.0
C775 C 1.00779 0.69968 0.2708 0.0
N776 N 0.0244 0.59546 0.25393 0.0
N777 N 1.01263 0.88008 0.24039 0.0
C778 C 0.02351 0.66673 0.25472 0.0
C779 C 0.01714 0.81217 0.24709 0.0
N780 N 0.05472 0.6779 0.22753 0.0
N781 N 0.99186 0.8072 0.28639 0.0
H782 H 0.02188 0.91207 0.22737 0.0
H783 H 0.99921 0.90362 0.24635 0.0
H784 H 0.98245 0.78183 0.30159 0.0
H785 H 0.9912 0.86129 0.2884 0.0
H786 H 0.05933 0.62781 0.2335 0.0
H787 H 0.06531 0.7046 0.21481 0.0
H788 H 0.03399 0.56768 0.23976 0.0
H789 H 0.01411 0.56375 0.26511 0.0
C790 C 0.2457 0.52563 0.24393 0.0
C791 C 0.24609 0.45163 0.24712 0.0
C792 C 0.27088 0.46386 0.28901 0.0
C793 C 0.27156 0.5373 0.28423 0.0
N794 N 0.26191 0.63693 0.2541 0.0
N795 N 0.26057 0.3496 0.27059 0.0
C796 C 0.25949 0.56782 0.26095 0.0
C797 C 0.25919 0.42068 0.26902 0.0
N798 N 0.23216 0.55592 0.22452 0.0
N799 N 0.28071 0.43551 0.31356 0.0
H800 H 0.25127 0.31634 0.25812 0.0
H801 H 0.27156 0.32348 0.28302 0.0
H802 H 0.28966 0.46471 0.32834 0.0
H803 H 0.27893 0.38407 0.32068 0.0
H804 H 0.22953 0.60938 0.22356 0.0
H805 H 0.22244 0.52747 0.21069 0.0
H806 H 0.25543 0.6612 0.23517 0.0
H807 H 0.27193 0.66905 0.26582 0.0
C808 C 0.78042 0.17256 0.02004 0.0
C809 C 0.77962 0.194 0.98901 0.0
C810 C 0.7565 0.28964 1.00329 0.0
C811 C 0.75818 0.2706 0.03466 0.0
N812 N 0.77321 0.19616 0.07322 0.0
N813 N 0.76877 0.27849 0.95142 0.0
C814 C 0.77068 0.21307 0.04308 0.0
C815 C 0.76802 0.25371 0.98073 0.0
N816 N 0.78946 0.11067 0.02732 0.0
N817 N 0.74393 0.3426 0.99492 0.0
H818 H 0.77631 0.25308 0.93402 0.0
H819 H 0.76313 0.32666 0.9446 0.0
H820 H 0.737 0.37535 0.01064 0.0
H821 H 0.73961 0.35249 0.9724 0.0
H822 H 0.78848 0.08687 0.04869 0.0
H823 H 0.79664 0.07954 0.0112 0.0
H824 H 0.78453 0.16362 0.08119 0.0
H825 H 0.76456 0.21673 0.09066 0.0
C826 C 0.01853 0.171 0.76164 0.0
C827 C 1.0048 0.20147 0.78244 0.0
C828 C 0.01834 0.31818 0.77006 0.0
C829 C 0.03075 0.28833 0.74733 0.0
N830 N 0.04166 0.18648 0.71959 0.0
N831 N 0.99093 0.30498 0.80568 0.0
C832 C 0.03075 0.21467 0.74287 0.0
C833 C 1.00448 0.27537 0.78634 0.0
N834 N 0.01988 0.09992 0.75972 0.0
N835 N 0.02049 0.38739 0.77698 0.0
H836 H 0.98152 0.2762 0.81971 0.0
H837 H 0.98818 0.35834 0.80685 0.0
H838 H 0.03067 0.4196 0.76582 0.0
H839 H 1.01365 0.41174 0.79544 0.0
H840 H 0.03128 0.0739 0.74838 0.0
H841 H 1.01009 0.06622 0.77081 0.0
H842 H 0.04034 0.13502 0.71228 0.0
H843 H 0.0514 0.21542 0.70618 0.0
C844 C 0.74246 0.50781 0.74341 0.0
C845 C 0.74358 0.43358 0.74529 0.0
C846 C 0.772 0.44507 0.7814 0.0
C847 C 0.77171 0.51905 0.7779 0.0
N848 N 0.75891 0.61961 0.75138 0.0
N849 N 0.76078 0.33131 0.76364 0.0
C850 C 0.75745 0.54999 0.75788 0.0
C851 C 0.75883 0.40234 0.76349 0.0
N852 N 0.72717 0.53847 0.72754 0.0
N853 N 0.78419 0.41546 0.803 0.0
H854 H 0.75047 0.298 0.75324 0.0
H855 H 0.77309 0.30531 0.77273 0.0
H856 H 0.79414 0.44391 0.81643 0.0
H857 H 0.78347 0.3632 0.80937 0.0
H858 H 0.72412 0.59168 0.72823 0.0
H859 H 0.71657 0.51054 0.7151 0.0
H860 H 0.75063 0.64452 0.73436 0.0
H861 H 0.76986 0.65161 0.761 0.0
C862 C 1.01058 0.9879 0.47725 0.0
C863 C 0.99665 0.03797 0.48848 0.0
C864 C 1.00857 0.01364 0.54105 0.0
C865 C 0.0216 0.96048 0.52993 0.0
N866 N 0.03253 0.88956 0.48785 0.0
N867 N 0.98078 0.09239 0.53166 0.0
C868 C 0.02203 0.94602 0.49809 0.0
C869 C 0.9951 0.04855 0.52057 0.0
N870 N 1.01287 0.97983 0.44644 0.0
N871 N 1.00981 0.03387 0.57103 0.0
H872 H 0.97172 0.12308 0.51762 0.0
H873 H 0.97699 0.09528 0.55471 0.0
H874 H 0.01929 0.01039 0.58685 0.0
H875 H 1.00275 0.07784 0.57979 0.0
H876 H 0.02462 0.95242 0.43666 0.0
H877 H 1.00355 0.00364 0.43048 0.0
H878 H 0.03163 0.87055 0.46555 0.0
H879 H 0.04094 0.85763 0.50232 0.0
C880 C 0.27852 0.28233 0.49228 0.0
C881 C 0.27637 0.20862 0.48926 0.0
C882 C 0.24793 0.21304 0.52492 0.0
C883 C 0.24882 0.28734 0.52528 0.0
N884 N 0.26278 0.39285 0.50458 0.0
N885 N 0.25746 0.10474 0.5 0.0
C886 C 0.26357 0.3219 0.50769 0.0
C887 C 0.26053 0.17441 0.50468 0.0
N888 N 0.29494 0.31499 0.48068 0.0
N889 N 0.23586 0.17888 0.54508 0.0
H890 H 0.26706 0.0739 0.48704 0.0
H891 H 0.24479 0.07847 0.50747 0.0
H892 H 0.22652 0.20456 0.56036 0.0
H893 H 0.23635 0.12515 0.54858 0.0
H894 H 0.29834 0.36714 0.48489 0.0
H895 H 0.30627 0.28889 0.4693 0.0
H896 H 0.27159 0.42069 0.48928 0.0
H897 H 0.25186 0.4234 0.51495 0.0
C898 C 0.24791 0.02241 0.74546 0.0
C899 C 0.24917 0.94821 0.74436 0.0
C900 C 0.27715 0.95209 0.78153 0.0
C901 C 0.27529 0.02599 0.78355 0.0
N902 N 0.25736 0.13085 0.77048 0.0
N903 N 0.26291 0.84164 0.76442 0.0
C904 C 0.26016 0.06077 0.76645 0.0
C905 C 0.26332 0.91294 0.76317 0.0
N906 N 0.23568 0.05682 0.72535 0.0
N907 N 0.29208 0.91917 0.79737 0.0
H908 H 0.25285 0.81178 0.75167 0.0
H909 H 0.27128 0.81195 0.77974 0.0
H910 H 0.30172 0.94505 0.81235 0.0
H911 H 0.29576 0.86685 0.79459 0.0
H912 H 0.23608 0.11052 0.72181 0.0
H913 H 0.22584 0.03149 0.71059 0.0
H914 H 0.24501 0.1579 0.76214 0.0
H915 H 0.2669 0.16178 0.78367 0.0
C916 C 0.78434 0.67359 0.51781 0.0
C917 C 0.78246 0.68906 0.48605 0.0
C918 C 0.75938 0.78587 0.4988 0.0
C919 C 0.76015 0.76707 0.5301 0.0
N920 N 0.7711 0.6865 0.56919 0.0
N921 N 0.76577 0.75599 0.44618 0.0
C922 C 0.77214 0.70944 0.53958 0.0
C923 C 0.7692 0.74369 0.47656 0.0
N924 N 0.79767 0.624 0.52729 0.0
N925 N 0.75018 0.84672 0.49037 0.0
H926 H 0.77392 0.73348 0.42869 0.0
H927 H 0.75395 0.78627 0.43816 0.0
H928 H 0.74284 0.87904 0.50586 0.0
H929 H 0.75134 0.86868 0.46862 0.0
H930 H 0.80182 0.6168 0.55008 0.0
H931 H 0.80542 0.59191 0.51222 0.0
H932 H 0.77744 0.64009 0.57689 0.0
H933 H 0.7625 0.71093 0.58579 0.0
C934 C 0.74378 0.92247 0.27407 0.0
C935 C 0.74364 0.93723 0.24222 0.0
C936 C 0.76965 0.02704 0.25058 0.0
C937 C 0.76867 0.01621 0.28269 0.0
N938 N 0.75333 0.95777 0.32547 0.0
N939 N 0.75364 0.0127 0.20106 0.0
C940 C 0.75522 0.96531 0.29453 0.0
C941 C 0.75594 0.99169 0.23073 0.0
N942 N 0.73375 0.86535 0.28466 0.0
N943 N 0.78359 0.07161 0.23892 0.0
H944 H 0.74328 0.99003 0.18628 0.0
H945 H 0.76042 0.05694 0.19208 0.0
H946 H 0.79304 0.1016 0.25262 0.0
H947 H 0.78677 0.07532 0.21566 0.0
H948 H 0.7351 0.84644 0.30693 0.0
H949 H 0.72518 0.83324 0.27049 0.0
H950 H 0.74199 0.92904 0.33567 0.0
H951 H 0.76247 0.98349 0.34115 0.0
C952 C 0.50904 0.57214 0.50982 0.0
C953 C 0.49557 0.54173 0.4883 0.0
C954 C 0.50945 0.42522 0.50055 0.0
C955 C 0.52179 0.45505 0.52369 0.0
N956 N 0.53222 0.55639 0.55229 0.0
N957 N 0.48234 0.4388 0.46371 0.0
C958 C 0.52143 0.5285 0.52861 0.0
C959 C 0.49556 0.46802 0.48394 0.0
N960 N 0.50998 0.64321 0.51235 0.0
N961 N 0.51174 0.35614 0.49353 0.0
H962 H 0.47297 0.46807 0.44959 0.0
H963 H 0.47984 0.38543 0.46179 0.0
H964 H 0.52192 0.32393 0.50488 0.0
H965 H 0.50492 0.33171 0.47495 0.0
H966 H 0.52118 0.6696 0.52418 0.0
H967 H 0.49999 0.67669 0.50135 0.0
H968 H 0.5309 0.60777 0.55966 0.0
H969 H 0.5418 0.52716 0.56607 0.0
C970 C 0.51916 0.72733 0.72342 0.0
C971 C 0.53155 0.78476 0.73216 0.0
C972 C 0.52187 0.76522 0.78602 0.0
C973 C 0.50881 0.71003 0.77697 0.0
N974 N 0.49298 0.64512 0.73631 0.0
N975 N 0.54184 0.86574 0.77122 0.0
C976 C 0.50674 0.69363 0.74543 0.0
C977 C 0.53221 0.80537 0.76339 0.0
N978 N 0.52016 0.7015 0.69435 0.0
N979 N 0.52431 0.7799 0.81641 0.0
H980 H 0.54918 0.89694 0.75529 0.0
H981 H 0.54115 0.88845 0.79283 0.0
H982 H 0.51562 0.75725 0.83338 0.0
H983 H 0.53552 0.8121 0.82497 0.0
H984 H 0.51381 0.65435 0.68762 0.0
H985 H 0.5288 0.72387 0.67739 0.0
H986 H 0.48859 0.63824 0.71359 0.0
H987 H 0.48494 0.61432 0.75152 0.0
C988 C 0.50397 0.27835 0.2825 0.0
C989 C 0.50707 0.20588 0.28854 0.0
C990 C 0.5359 0.20765 0.25348 0.0
C991 C 0.53371 0.28112 0.24946 0.0
N992 N 0.51795 0.3881 0.26473 0.0
N993 N 0.52745 0.10337 0.2823 0.0
C994 C 0.51832 0.31674 0.2652 0.0
C995 C 0.52355 0.17134 0.27487 0.0
N996 N 0.48729 0.3111 0.29313 0.0
N997 N 0.54902 0.17146 0.23566 0.0
H998 H 0.51791 0.07313 0.29561 0.0
H999 H 0.54064 0.07798 0.27659 0.0
H1000 H 0.55867 0.19523 0.22031 0.0
H1001 H 0.54939 0.11723 0.2344 0.0
H1002 H 0.48303 0.36112 0.28648 0.0
H1003 H 0.47665 0.28694 0.30667 0.0
H1004 H 0.50867 0.4181 0.27848 0.0
H1005 H 0.52839 0.41782 0.25283 0.0
C1006 C 0.49492 0.95996 0.99351 0.0
C1007 C 0.49717 0.0339 0.99402 0.0
C1008 C 0.52319 0.02143 0.03401 0.0
C1009 C 0.52205 0.9474 0.03166 0.0
N1010 N 0.50917 0.84641 1.00549 0.0
N1011 N 0.51511 0.13474 0.01216 0.0
C1012 C 0.50848 0.91683 0.01046 0.0
C1013 C 0.51186 0.0644 0.01345 0.0
N1014 N 0.47977 0.93059 0.97685 0.0
N1015 N 0.53432 0.05098 0.05692 0.0
H1016 H 0.50629 0.16841 0.99907 0.0
H1017 H 0.52719 0.15925 0.02268 0.0
H1018 H 0.54295 0.02199 0.07221 0.0
H1019 H 0.53382 0.10383 0.06237 0.0
H1020 H 0.47596 0.87802 0.97804 0.0
H1021 H 0.46985 0.95952 0.96356 0.0
H1022 H 0.50139 0.82133 0.98798 0.0
H1023 H 0.51906 0.81352 0.01706 0.0
C1024 C 0.14791 0.38283 0.14472 0.0
C1025 C 0.15988 0.32379 0.13736 0.0
C1026 C 0.13018 0.26776 0.1139 0.0
C1027 C 0.11797 0.32312 0.12417 0.0
N1028 N 0.11471 0.43088 0.15199 0.0
N1029 N 0.16158 0.206 0.11774 0.0
C1030 C 0.12673 0.37992 0.14035 0.0
C1031 C 0.15075 0.26532 0.12257 0.0
N1032 N 0.15684 0.44327 0.1542 0.0
N1033 N 0.1221 0.21772 0.09534 0.0
H1034 H 0.17663 0.20178 0.1232 0.0
H1035 H 0.15534 0.15894 0.11063 0.0
H1036 H 0.10715 0.21847 0.08883 0.0
H1037 H 0.1304 0.17967 0.08416 0.0
H1038 H 0.14924 0.49029 0.15662 0.0
H1039 H 0.1722 0.44836 0.1571 0.0
H1040 H 0.11967 0.46879 0.16733 0.0
H1041 H 0.09942 0.4329 0.14756 0.0
C1042 C 0.13416 0.9199 0.11355 0.0
C1043 C 0.12556 0.86884 0.13298 0.0
C1044 C 0.15919 0.82596 0.14559 0.0
C1045 C 0.16756 0.87324 0.12388 0.0
N1046 N 0.16178 0.95001 0.08086 0.0
N1047 N 0.12975 0.76588 0.16409 0.0
C1048 C 0.1547 0.91562 0.1059 0.0
C1049 C 0.13804 0.82006 0.14828 0.0
N1050 N 0.12274 0.97402 0.10312 0.0
N1051 N 0.17145 0.7858 0.16349 0.0
H1052 H 0.11445 0.76062 0.16729 0.0
H1053 H 0.13788 0.72349 0.17233 0.0
H1054 H 0.18679 0.78224 0.16017 0.0
H1055 H 0.16651 0.75799 0.18248 0.0
H1056 H 0.12856 0.01638 0.09116 0.0
H1057 H 0.10793 0.98046 0.10968 0.0
H1058 H 0.15262 0.97725 0.06566 0.0
H1059 H 0.17628 0.94388 0.073 0.0
C1060 C 0.87906 0.66789 0.85385 0.0
C1061 C 0.86592 0.62968 0.87273 0.0
C1062 C 0.89518 0.58282 0.901 0.0
C1063 C 0.90801 0.62944 0.88504 0.0
N1064 N 0.91063 0.72766 0.85031 0.0
N1065 N 0.86147 0.55166 0.9155 0.0
C1066 C 0.89947 0.67512 0.86261 0.0
C1067 C 0.87404 0.58777 0.89678 0.0
N1068 N 0.87229 0.69594 0.827 0.0
N1069 N 0.90308 0.53084 0.91875 0.0
H1070 H 0.84622 0.54771 0.91122 0.0
H1071 H 0.86604 0.52819 0.93589 0.0
H1072 H 0.91829 0.52416 0.92234 0.0
H1073 H 0.89464 0.4903 0.92784 0.0
H1074 H 0.88164 0.71924 0.81101 0.0
H1075 H 0.85784 0.68797 0.81891 0.0
H1076 H 0.90457 0.76685 0.83657 0.0
H1077 H 0.92542 0.73678 0.85639 0.0
C1078 C 0.90256 0.13108 0.89733 0.0
C1079 C 0.91107 0.08871 0.87396 0.0
C1080 C 0.87776 0.04362 0.86167 0.0
C1081 C 0.86886 0.08986 0.88329 0.0
N1082 N 0.87317 0.18936 0.91679 0.0
N1083 N 0.9055 0.02283 0.82773 0.0
C1084 C 0.88137 0.13662 0.89996 0.0
C1085 C 0.8983 0.05064 0.85422 0.0
N1086 N 0.91477 0.16727 0.91681 0.0
N1087 N 0.8668 0.99098 0.84884 0.0
H1088 H 0.92002 0.03133 0.82037 0.0
H1089 H 0.89641 -0.00055 0.81124 0.0
H1090 H 0.85189 0.98211 0.85402 0.0
H1091 H 0.8731 0.95156 0.8356 0.0
H1092 H 0.90977 0.19114 0.93678 0.0
H1093 H 0.93012 0.17098 0.91362 0.0
H1094 H 0.88149 0.22981 0.92635 0.0
H1095 H 0.85789 0.19687 0.91901 0.0
C1096 C 0.14729 0.90374 0.65368 0.0
C1097 C 0.15878 0.85227 0.63816 0.0
C1098 C 0.12851 0.81797 0.60904 0.0
C1099 C 0.11663 0.86249 0.62728 0.0
N1100 N 0.11474 0.94714 0.66817 0.0
N1101 N 0.15871 0.74978 0.60576 0.0
C1102 C 0.12608 0.90493 0.65 0.0
C1103 C 0.14889 0.80649 0.61716 0.0
N1104 N 0.15655 0.95422 0.6707 0.0
N1105 N 0.12059 0.78757 0.58344 0.0
H1106 H 0.17338 0.73772 0.61156 0.0
H1107 H 0.15165 0.71054 0.59324 0.0
H1108 H 0.10612 0.79726 0.57587 0.0
H1109 H 0.12909 0.75968 0.56774 0.0
H1110 H 0.14933 -0.00137 0.67872 0.0
H1111 H 0.17177 0.9552 0.67516 0.0
H1112 H 0.12011 0.97072 0.68807 0.0
H1113 H 0.09964 0.95645 0.66416 0.0
C1114 C 0.12493 0.34786 0.64555 0.0
C1115 C 0.11368 0.40552 0.63422 0.0
C1116 C 0.14315 0.44201 0.60457 0.0
C1117 C 0.15522 0.39364 0.62059 0.0
N1118 N 0.15757 0.29973 0.65714 0.0
N1119 N 0.1139 0.51508 0.60641 0.0
C1120 C 0.14606 0.34655 0.64145 0.0
C1121 C 0.1233 0.45461 0.6146 0.0
N1122 N 0.11543 0.29204 0.65839 0.0
N1123 N 0.15036 0.47462 0.57918 0.0
H1124 H 0.09975 0.5285 0.61404 0.0
H1125 H 0.12106 0.55535 0.59479 0.0
H1126 H 0.16417 0.46207 0.5699 0.0
H1127 H 0.14163 0.50663 0.5652 0.0
H1128 H 0.1227 0.24584 0.66422 0.0
H1129 H 0.09999 0.2884 0.66013 0.0
H1130 H 0.15231 0.27025 0.67545 0.0
H1131 H 0.17267 0.29269 0.65254 0.0
C1132 C 0.87028 0.20758 0.3936 0.0
C1133 C 0.85973 0.1499 0.38074 0.0
C1134 C 0.89143 0.0842 0.3799 0.0
C1135 C 0.90144 0.14046 0.39467 0.0
N1136 N 0.8983 0.24441 0.4249 0.0
N1137 N 0.85996 0.02676 0.36863 0.0
C1138 C 0.89021 0.19873 0.40437 0.0
C1139 C 0.87023 0.08629 0.37566 0.0
N1140 N 0.86148 0.27183 0.3947 0.0
N1141 N 0.90223 0.02824 0.37016 0.0
H1142 H 0.84452 0.0251 0.36612 0.0
H1143 H 0.86655 0.97759 0.368 0.0
H1144 H 0.91726 0.02221 0.37576 0.0
H1145 H 0.89648 0.98962 0.35583 0.0
H1146 H 0.86915 0.31681 0.40119 0.0
H1147 H 0.84725 0.28145 0.38594 0.0
H1148 H 0.89029 0.28538 0.43456 0.0
H1149 H 0.91209 0.23522 0.43531 0.0
C1150 C 0.90427 0.57343 0.3553 0.0
C1151 C 0.91689 0.61466 0.37411 0.0
C1152 C 0.88688 0.65852 0.40082 0.0
C1153 C 0.87499 0.60878 0.38505 0.0
N1154 N 0.8741 0.50495 0.35408 0.0
N1155 N 0.91986 0.6954 0.41673 0.0
C1156 C 0.88426 0.56203 0.36437 0.0
C1157 C 0.90808 0.65655 0.39761 0.0
N1158 N 0.91089 0.54699 0.32821 0.0
N1159 N 0.87799 0.70991 0.41758 0.0
H1160 H 0.93513 0.70189 0.41364 0.0
H1161 H 0.91457 0.71893 0.43659 0.0
H1162 H 0.86264 0.71275 0.42086 0.0
H1163 H 0.88567 0.75278 0.42634 0.0
H1164 H 0.90158 0.52045 0.31295 0.0
H1165 H 0.92469 0.55967 0.31905 0.0
H1166 H 0.88067 0.46619 0.34075 0.0
H1167 H 0.86006 0.49218 0.36247 0.0
C1168 C 0.6191 0.26097 0.64291 0.0
C1169 C 0.6091 0.31944 0.62962 0.0
C1170 C 0.64088 0.38448 0.63158 0.0
C1171 C 0.65033 0.32757 0.64682 0.0
N1172 N 0.64659 0.22022 0.67457 0.0
N1173 N 0.60986 0.44299 0.61855 0.0
C1174 C 0.63884 0.26851 0.65485 0.0
C1175 C 0.61983 0.38297 0.62583 0.0
N1176 N 0.60999 0.19719 0.64321 0.0
N1177 N 0.65206 0.44027 0.62251 0.0
H1178 H 0.5945 0.44503 0.615 0.0
H1179 H 0.61653 0.49206 0.61884 0.0
H1180 H 0.66709 0.44573 0.62838 0.0
H1181 H 0.64668 0.47918 0.60798 0.0
H1182 H 0.61729 0.15142 0.64962 0.0
H1183 H 0.59582 0.18874 0.63405 0.0
H1184 H 0.63836 0.17871 0.6833 0.0
H1185 H 0.66046 0.2268 0.68509 0.0
C1186 C 0.63902 0.82023 0.65152 0.0
C1187 C 0.62706 0.87356 0.63844 0.0
C1188 C 0.65695 0.9261 0.61539 0.0
C1189 C 0.66916 0.87585 0.63017 0.0
N1190 N 0.67193 0.78215 0.66727 0.0
N1191 N 0.62527 0.98715 0.61523 0.0
C1192 C 0.66022 0.8252 0.64983 0.0
C1193 C 0.63626 0.92945 0.62251 0.0
N1194 N 0.63017 0.76321 0.66441 0.0
N1195 N 0.66503 0.97028 0.59434 0.0
H1196 H 0.61049 -0.00744 0.62207 0.0
H1197 H 0.63135 0.03238 0.60592 0.0
H1198 H 0.67999 0.96798 0.58824 0.0
H1199 H 0.65658 0.00412 0.58084 0.0
H1200 H 0.63796 0.71834 0.67065 0.0
H1201 H 0.61479 0.75883 0.66707 0.0
H1202 H 0.66633 0.75042 0.68457 0.0
H1203 H 0.68743 0.78133 0.66606 0.0
C1204 C 0.39315 0.62035 0.3889 0.0
C1205 C 0.40308 0.68415 0.39578 0.0
C1206 C 0.37136 0.74745 0.38833 0.0
C1207 C 0.36114 0.68326 0.38311 0.0
N1208 N 0.3618 0.55747 0.38425 0.0
N1209 N 0.40129 0.80724 0.40593 0.0
C1210 C 0.37192 0.61936 0.38488 0.0
C1211 C 0.39203 0.74731 0.39655 0.0
N1212 N 0.40411 0.56089 0.38506 0.0
N1213 N 0.36134 0.80904 0.38464 0.0
H1214 H 0.41637 0.80898 0.41173 0.0
H1215 H 0.39389 0.85383 0.41036 0.0
H1216 H 0.34618 0.8115 0.37958 0.0
H1217 H 0.36819 0.85772 0.3844 0.0
H1218 H 0.39821 0.51466 0.37637 0.0
H1219 H 0.41949 0.55898 0.38866 0.0
H1220 H 0.3684 0.50953 0.38912 0.0
H1221 H 0.34639 0.55427 0.38122 0.0
C1222 C 0.40315 0.20021 0.4014 0.0
C1223 C 0.41411 0.14213 0.39012 0.0
C1224 C 0.38288 0.07551 0.38533 0.0
C1225 C 0.37214 0.13269 0.39786 0.0
N1226 N 0.37258 0.24286 0.42419 0.0
N1227 N 0.41498 0.02004 0.37694 0.0
C1228 C 0.38248 0.19293 0.40792 0.0
C1229 C 0.40413 0.07849 0.3835 0.0
N1230 N 0.41242 0.26326 0.40497 0.0
N1231 N 0.37268 0.01832 0.37511 0.0
H1232 H 0.43048 0.02032 0.3752 0.0
H1233 H 0.40883 0.97029 0.37538 0.0
H1234 H 0.35745 0.01175 0.37885 0.0
H1235 H 0.37911 0.97885 0.3621 0.0
H1236 H 0.40488 0.30944 0.40972 0.0
H1237 H 0.42751 0.27087 0.4005 0.0
H1238 H 0.3796 0.28505 0.43471 0.0
H1239 H 0.35758 0.23827 0.42991 0.0
C1240 C 0.63992 0.73946 0.14844 0.0
C1241 C 0.65098 0.80235 0.14981 0.0
C1242 C 0.6201 0.86887 0.13937 0.0
C1243 C 0.60949 0.80535 0.13488 0.0
N1244 N 0.60985 0.6801 0.13168 0.0
N1245 N 0.65213 0.92734 0.14419 0.0
C1246 C 0.61958 0.74065 0.13862 0.0
C1247 C 0.64117 0.86727 0.1448 0.0
N1248 N 0.64882 0.67851 0.1573 0.0
N1249 N 0.60992 0.93067 0.13959 0.0
H1250 H 0.66728 0.9287 0.14961 0.0
H1251 H 0.64649 0.97515 0.13684 0.0
H1252 H 0.59469 0.93421 0.1349 0.0
H1253 H 0.61622 0.97786 0.14641 0.0
H1254 H 0.64111 0.6319 0.16019 0.0
H1255 H 0.66363 0.67619 0.16473 0.0
H1256 H 0.61684 0.6317 0.13078 0.0
H1257 H 0.59511 0.67925 0.12405 0.0
C1258 C 0.65569 0.42299 0.1485 0.0
C1259 C 0.66538 0.36892 0.13199 0.0
C1260 C 0.63288 0.31157 0.1237 0.0
C1261 C 0.62344 0.36284 0.14236 0.0
N1262 N 0.62628 0.46299 0.17557 0.0
N1263 N 0.66346 0.25933 0.10501 0.0
C1264 C 0.635 0.41719 0.15574 0.0
C1265 C 0.654 0.31304 0.11954 0.0
N1266 N 0.66633 0.48128 0.15634 0.0
N1267 N 0.62158 0.26085 0.10999 0.0
H1268 H 0.67859 0.25977 0.09988 0.0
H1269 H 0.65665 0.21239 0.09918 0.0
H1270 H 0.60663 0.25235 0.11521 0.0
H1271 H 0.6267 0.22849 0.0926 0.0
H1272 H 0.66015 0.52541 0.16634 0.0
H1273 H 0.68121 0.48818 0.15017 0.0
H1274 H 0.63419 0.49934 0.18851 0.0
H1275 H 0.61123 0.4613 0.18116 0.0
C1276 C 0.39913 0.09846 0.87434 0.0
C1277 C 0.40892 0.15519 0.88921 0.0
C1278 C 0.37693 0.21736 0.89128 0.0
C1279 C 0.36673 0.1567 0.88038 0.0
N1280 N 0.36852 0.03408 0.8672 0.0
N1281 N 0.40691 0.26664 0.91425 0.0
C1282 C 0.37793 0.09585 0.8733 0.0
C1283 C 0.3977 0.2139 0.89857 0.0
N1284 N 0.41005 0.04732 0.86049 0.0
N1285 N 0.36692 0.27929 0.89339 0.0
H1286 H 0.42217 0.26667 0.919 0.0
H1287 H 0.39924 0.30755 0.92456 0.0
H1288 H 0.352 0.28481 0.88712 0.0
H1289 H 0.37382 0.3266 0.89839 0.0
H1290 H 0.40375 0.00945 0.84631 0.0
H1291 H 0.42556 0.04626 0.86073 0.0
H1292 H 0.37604 0.98663 0.8658 0.0
H1293 H 0.35312 0.0283 0.86631 0.0
C1294 C 0.40917 0.66239 0.87562 0.0
C1295 C 0.41771 0.59475 0.87294 0.0
C1296 C 0.38414 0.54304 0.87745 0.0
C1297 C 0.37589 0.61045 0.88242 0.0
N1298 N 0.38107 0.73242 0.89235 0.0
N1299 N 0.41373 0.46991 0.87467 0.0
C1300 C 0.3886 0.66956 0.88327 0.0
C1301 C 0.40527 0.53481 0.87485 0.0
N1302 N 0.42067 0.72006 0.87057 0.0
N1303 N 0.37169 0.48691 0.87479 0.0
H1304 H 0.42892 0.46191 0.871 0.0
H1305 H 0.40595 0.42433 0.87964 0.0
H1306 H 0.35641 0.49018 0.87888 0.0
H1307 H 0.37628 0.43809 0.86715 0.0
H1308 H 0.41493 0.77039 0.86895 0.0
H1309 H 0.43579 0.71726 0.86533 0.0
H1310 H 0.38979 0.77647 0.8963 0.0
H1311 H 0.3663 0.73841 0.89912 0.0
C1312 C 0.06377 0.03128 0.09519 0.0
C1313 C 0.05212 0.01223 0.12088 0.0
C1314 C 0.03535 0.12558 0.11766 0.0
C1315 C 0.05061 0.15032 0.09796 0.0
N1316 N 0.07996 0.12428 0.06779 0.0
N1317 N 0.02517 0.03973 0.15515 0.0
C1318 C 0.06484 0.10243 0.08625 0.0
C1319 C 0.03737 0.059 0.13166 0.0
N1320 N 0.07333 0.98153 0.0786 0.0
N1321 N 0.01846 0.16431 0.12176 0.0
H1322 H 0.02471 0.98899 0.16378 0.0
H1323 H 0.01601 0.07475 0.16669 0.0
H1324 H 0.01579 0.21068 0.1099 0.0
H1325 H 1.00612 0.14651 0.13383 0.0
H1326 H 0.08062 0.99173 0.05807 0.0
H1327 H 0.0716 0.92899 0.08315 0.0
H1328 H 0.09218 0.09297 0.06255 0.0
H1329 H 0.08127 0.17463 0.05929 0.0
C1330 C 0.21262 0.07519 0.13064 0.0
C1331 C 0.23148 0.05072 0.12093 0.0
C1332 C 0.24762 0.1475 0.14819 0.0
C1333 C 0.2287 0.16894 0.15927 0.0
N1334 N 0.19421 0.14086 0.16838 0.0
N1335 N 0.26733 0.05725 0.1237 0.0
C1336 C 0.21154 0.12852 0.15304 0.0
C1337 C 0.24914 0.08488 0.13081 0.0
N1338 N 0.19569 0.04977 0.11737 0.0
N1339 N 0.26407 0.18744 0.15415 0.0
H1340 H 0.26899 0.01397 0.10945 0.0
H1341 H 0.28071 0.07487 0.13311 0.0
H1342 H 0.26379 0.23013 0.16898 0.0
H1343 H 0.27779 0.17993 0.14363 0.0
H1344 H 0.18145 0.06837 0.12211 0.0
H1345 H 0.19622 0.01567 0.09893 0.0
H1346 H 0.18189 0.10789 0.16695 0.0
H1347 H 0.19267 0.18044 0.18452 0.0
C1348 C 0.99332 0.8077 0.87778 0.0
C1349 C 0.9752 0.78437 0.89115 0.0
C1350 C 0.95736 0.88122 0.86682 0.0
C1351 C 0.97567 0.90955 0.85696 0.0
N1352 N 1.01139 0.90282 0.8537 0.0
N1353 N 0.94045 0.80578 0.90249 0.0
C1354 C 0.99375 0.87331 0.86242 0.0
C1355 C 0.95736 0.82319 0.88696 0.0
N1356 N 1.01016 0.76781 0.88018 0.0
N1357 N 0.93992 0.90872 0.85615 0.0
H1358 H 0.93928 0.76198 0.91644 0.0
H1359 H 0.92784 0.83749 0.90302 0.0
H1360 H 0.93978 0.94848 0.83996 0.0
H1361 H 0.92597 0.88695 0.86034 0.0
H1362 H 0.02312 0.77757 0.86791 0.0
H1363 H 1.01099 0.72272 0.89348 0.0
H1364 H 0.02532 0.88389 0.86025 0.0
H1365 H 1.01206 0.94863 0.8408 0.0
C1366 C 0.81926 0.89843 0.88335 0.0
C1367 C 0.8014 0.93784 0.88574 0.0
C1368 C 0.78356 0.84841 0.85588 0.0
C1369 C 0.8017 0.81149 0.85227 0.0
N1370 N 0.83741 0.81124 0.85475 0.0
N1371 N 0.76688 0.95493 0.87143 0.0
C1372 C 0.81974 0.83966 0.86362 0.0
C1373 C 0.78368 0.91453 0.87085 0.0
N1374 N 0.83575 0.91601 0.90019 0.0
N1375 N 0.76614 0.81907 0.84578 0.0
H1376 H 0.76576 0.00053 0.88432 0.0
H1377 H 0.75431 0.94511 0.85803 0.0
H1378 H 0.76575 0.77281 0.83317 0.0
H1379 H 0.75208 0.83857 0.85095 0.0
H1380 H 0.84826 0.88405 0.90202 0.0
H1381 H 0.83662 0.96023 0.91393 0.0
H1382 H 0.85127 0.83278 0.86002 0.0
H1383 H 0.83795 0.77072 0.83895 0.0
C1384 C 0.06824 0.66502 0.63246 0.0
C1385 C 0.04985 0.69793 0.62531 0.0
C1386 C 0.03188 0.60665 0.65324 0.0
C1387 C 0.05041 0.5763 0.66175 0.0
N1388 N 0.08618 0.58539 0.66574 0.0
N1389 N 0.01423 0.70578 0.6316 0.0
C1390 C 0.06859 0.60851 0.65348 0.0
C1391 C 0.03167 0.67053 0.63663 0.0
N1392 N 0.08528 0.68624 0.61835 0.0
N1393 N 0.0145 0.57368 0.66071 0.0
H1394 H 1.01326 0.74992 0.61768 0.0
H1395 H 1.00086 0.69345 0.6423 0.0
H1396 H 0.01404 0.52997 0.67495 0.0
H1397 H 1.00061 0.58775 0.65193 0.0
H1398 H 0.09896 0.66106 0.62068 0.0
H1399 H 0.08526 0.72499 0.60172 0.0
H1400 H 0.09966 0.61158 0.66309 0.0
H1401 H 0.08711 0.54335 0.68079 0.0
C1402 C 0.20461 0.59716 0.62019 0.0
C1403 C 0.2221 0.56724 0.60801 0.0
C1404 C 0.24193 0.6635 0.6292 0.0
C1405 C 0.22462 0.68905 0.64419 0.0
N1406 N 0.19005 0.67296 0.65813 0.0
N1407 N 0.25772 0.56784 0.60203 0.0
C1408 C 0.20614 0.65359 0.64106 0.0
C1409 C 0.24087 0.59954 0.61269 0.0
N1410 N 0.18646 0.57286 0.61091 0.0
N1411 N 0.25941 0.70001 0.63103 0.0
H1412 H 0.2573 0.52328 0.5883 0.0
H1413 H 0.27211 0.58357 0.6078 0.0
H1414 H 0.26135 0.74336 0.64517 0.0
H1415 H 0.27181 0.68917 0.61762 0.0
H1416 H 0.17296 0.59588 0.61681 0.0
H1417 H 0.18522 0.53435 0.59426 0.0
H1418 H 0.17702 0.64352 0.65934 0.0
H1419 H 0.18999 0.71581 0.67273 0.0
C1420 C 0.95891 0.41042 0.37063 0.0
C1421 C 0.97813 0.44192 0.37102 0.0
C1422 C 0.98965 0.35366 0.40822 0.0
C1423 C 0.97098 0.31957 0.40579 0.0
N1424 N 0.93755 0.31547 0.38651 0.0
N1425 N 1.01252 0.43966 0.38744 0.0
C1426 C 0.95553 0.34848 0.38765 0.0
C1427 C 0.99366 0.41294 0.38941 0.0
N1428 N 0.94362 0.44083 0.35478 0.0
N1429 N 1.00348 0.32924 0.42871 0.0
H1430 H 0.01615 0.48137 0.37319 0.0
H1431 H 0.02496 0.4173 0.39783 0.0
H1432 H 1.00087 0.28582 0.44255 0.0
H1433 H 0.01674 0.35482 0.43396 0.0
H1434 H 0.9287 0.42707 0.35699 0.0
H1435 H 0.94562 0.48232 0.33996 0.0
H1436 H 0.92635 0.32542 0.37051 0.0
H1437 H 0.9341 0.27643 0.402 0.0
C1438 C 0.78144 0.34208 0.37533 0.0
C1439 C 0.79597 0.31207 0.35576 0.0
C1440 C 0.81359 0.42325 0.35488 0.0
C1441 C 0.80186 0.44754 0.37956 0.0
N1442 N 0.77396 0.43002 0.41339 0.0
N1443 N 0.82833 0.3222 0.33158 0.0
C1444 C 0.78559 0.40679 0.38992 0.0
C1445 C 0.81264 0.35213 0.34649 0.0
N1446 N 0.76335 0.31037 0.37889 0.0
N1447 N 0.82535 0.4679 0.33892 0.0
H1448 H 0.8293 0.26919 0.32674 0.0
H1449 H 0.84158 0.34887 0.32735 0.0
H1450 H 0.82567 0.52075 0.34359 0.0
H1451 H 0.8328 0.45364 0.31897 0.0
H1452 H 0.75155 0.33294 0.39072 0.0
H1453 H 0.75932 0.26516 0.36708 0.0
H1454 H 0.76353 0.39863 0.42439 0.0
H1455 H 0.77534 0.47976 0.42284 0.0
C1456 C 0.56555 0.04847 0.60158 0.0
C1457 C 0.55293 0.02358 0.62513 0.0
C1458 C 0.53209 0.12761 0.61845 0.0
C1459 C 0.54711 0.15815 0.59993 0.0
N1460 N 0.58041 0.15 0.57879 0.0
N1461 N 0.52365 0.03996 0.65621 0.0
C1462 C 0.5644 0.11921 0.59254 0.0
C1463 C 0.53605 0.06348 0.63374 0.0
N1464 N 0.5784 0.00469 0.58723 0.0
N1465 N 0.51372 0.15819 0.6203 0.0
H1466 H 0.52493 0.99052 0.66601 0.0
H1467 H 0.51265 0.07085 0.6661 0.0
H1468 H 0.50989 0.20291 0.60798 0.0
H1469 H 0.50163 0.13512 0.6312 0.0
H1470 H 0.58661 0.01895 0.56801 0.0
H1471 H 0.57892 0.95214 0.59228 0.0
H1472 H 0.59404 0.1246 0.5761 0.0
H1473 H 0.58119 0.20284 0.57354 0.0
C1474 C 0.74003 0.12251 0.66363 0.0
C1475 C 0.72141 0.1556 0.65855 0.0
C1476 C 0.71481 0.07872 0.61507 0.0
C1477 C 0.73207 0.0386 0.6224 0.0
N1478 N 0.76182 0.02437 0.65333 0.0
N1479 N 0.68897 0.15265 0.63527 0.0
C1480 C 0.74482 0.06089 0.64681 0.0
C1481 C 0.70819 0.12967 0.63608 0.0
N1482 N 0.75344 0.15166 0.68357 0.0
N1483 N 0.70508 0.07177 0.58767 0.0
H1484 H 0.68364 0.18739 0.65154 0.0
H1485 H 0.678 0.13068 0.62128 0.0
H1486 H 0.70979 0.04024 0.56984 0.0
H1487 H 0.69354 0.10492 0.58091 0.0
H1488 H 0.76818 0.13537 0.68574 0.0
H1489 H 0.75007 0.19499 0.69704 0.0
H1490 H 0.77018 0.03139 0.67326 0.0
H1491 H 0.76751 0.98607 0.63885 0.0
C1492 C 0.49324 0.85901 0.40644 0.0
C1493 C 0.47563 0.84212 0.42286 0.0
C1494 C 0.46761 0.9661 0.42525 0.0
C1495 C 0.48191 0.97988 0.40226 0.0
N1496 N 0.50954 0.93969 0.372 0.0
N1497 N 0.44508 0.88115 0.44661 0.0
C1498 C 0.49516 0.92633 0.39323 0.0
C1499 C 0.46259 0.89608 0.43224 0.0
N1500 N 0.50844 0.81174 0.40458 0.0
N1501 N 0.45956 0.01944 0.44149 0.0
H1502 H 0.44065 0.83074 0.45224 0.0
H1503 H 0.43415 0.91869 0.45057 0.0
H1504 H 0.46559 0.06905 0.44025 0.0
H1505 H 0.44979 0.0122 0.45969 0.0
H1506 H 0.52224 0.82328 0.39502 0.0
H1507 H 0.50813 0.76375 0.41586 0.0
H1508 H 0.51795 0.90066 0.36165 0.0
H1509 H 0.51249 0.98986 0.36389 0.0
C1510 C 0.28031 0.86519 0.37367 0.0
C1511 C 0.29581 0.83814 0.35507 0.0
C1512 C 0.31213 0.95222 0.35657 0.0
C1513 C 0.2993 0.97327 0.38062 0.0
N1514 N 0.27025 0.95058 0.4114 0.0
N1515 N 0.32781 0.85585 0.33066 0.0
C1516 C 0.28309 0.92991 0.38897 0.0
C1517 C 0.31195 0.88182 0.34654 0.0
N1518 N 0.26256 0.8304 0.37557 0.0
N1519 N 0.3244 -0.00069 0.34296 0.0
H1520 H 0.32917 0.80409 0.32392 0.0
H1521 H 0.34089 0.88399 0.32716 0.0
H1522 H 0.32453 0.05118 0.34926 0.0
H1523 H 0.33257 0.98871 0.32328 0.0
H1524 H 0.25008 0.85043 0.38656 0.0
H1525 H 0.25957 0.78513 0.36309 0.0
H1526 H 0.25982 0.91732 0.42129 0.0
H1527 H 0.27053 0.00033 0.42108 0.0
C1528 C 0.56662 0.55449 0.12341 0.0
C1529 C 0.55318 0.53103 0.14601 0.0
C1530 C 0.53082 0.6286 0.13363 0.0
C1531 C 0.54449 0.65162 0.11087 0.0
N1532 N 0.57065 0.61706 0.07592 0.0
N1533 N 0.52081 0.53776 0.16936 0.0
C1534 C 0.56082 0.60833 0.10295 0.0
C1535 C 0.53473 0.5658 0.15019 0.0
N1536 N 0.58542 0.52777 0.12253 0.0
N1537 N 0.51394 0.66648 0.13899 0.0
H1538 H 0.52347 0.49322 0.1825 0.0
H1539 H 0.50626 0.55601 0.17115 0.0
H1540 H 0.50913 0.70612 0.12432 0.0
H1541 H 0.50477 0.65912 0.15786 0.0
H1542 H 0.59634 0.54437 0.10734 0.0
H1543 H 0.59076 0.49574 0.13992 0.0
H1544 H 0.58178 0.58329 0.0685 0.0
H1545 H 0.56582 0.6506 0.05872 0.0
C1546 C 0.72565 0.52359 0.17027 0.0
C1547 C 0.73629 0.51561 0.14257 0.0
C1548 C 0.74305 0.64075 0.14383 0.0
C1549 C 0.72731 0.64972 0.1653 0.0
N1550 N 0.7017 0.59537 0.19627 0.0
N1551 N 0.75735 0.56807 0.10434 0.0
C1552 C 0.71801 0.58999 0.17789 0.0
C1553 C 0.74559 0.57484 0.12957 0.0
N1554 N 0.72443 0.47029 0.19069 0.0
N1555 N 0.75637 0.69333 0.13859 0.0
H1556 H 0.76169 0.51968 0.09572 0.0
H1557 H 0.76235 0.61071 0.0917 0.0
H1558 H 0.75649 0.73957 0.15117 0.0
H1559 H 0.76891 0.68741 0.12486 0.0
H1560 H 0.71713 0.47499 0.21161 0.0
H1561 H 0.73438 0.4288 0.18958 0.0
H1562 H 0.69395 0.55157 0.20393 0.0
H1563 H 0.69469 0.64253 0.20107 0.0
C1564 C 0.49059 0.30467 0.86494 0.0
C1565 C 0.48151 0.3 0.89459 0.0
C1566 C 0.48636 0.42428 0.89961 0.0
C1567 C 0.48911 0.43223 0.86763 0.0
N1568 N 0.49524 0.37441 0.81927 0.0
N1569 N 0.4648 0.36657 0.93458 0.0
C1570 C 0.49121 0.37072 0.84981 0.0
C1571 C 0.47741 0.36303 0.91025 0.0
N1572 N 0.5004 0.24926 0.85232 0.0
N1573 N 0.49377 0.47088 0.92028 0.0
H1574 H 0.45515 0.3263 0.94051 0.0
H1575 H 0.4618 0.41389 0.94549 0.0
H1576 H 0.50408 0.50914 0.91423 0.0
H1577 H 0.49219 0.46355 0.94385 0.0
H1578 H 0.50812 0.25269 0.83174 0.0
H1579 H 0.50382 0.20378 0.86418 0.0
H1580 H 0.4942 0.33109 0.80489 0.0
H1581 H 0.49946 0.42029 0.80833 0.0
C1582 C 0.31483 0.35553 0.85482 0.0
C1583 C 0.30066 0.31136 0.86944 0.0
C1584 C 0.28993 0.41265 0.90048 0.0
C1585 C 0.30326 0.45731 0.88431 0.0
N1586 N 0.32358 0.47281 0.83953 0.0
N1587 N 0.27181 0.30277 0.90192 0.0
C1588 C 0.3141 0.42926 0.85936 0.0
C1589 C 0.28745 0.34124 0.89123 0.0
N1590 N 0.32994 0.32721 0.83804 0.0
N1591 N 0.27929 0.43875 0.92448 0.0
H1592 H 0.26909 0.25148 0.89519 0.0
H1593 H 0.26042 0.32345 0.91523 0.0
H1594 H 0.27865 0.49186 0.92956 0.0
H1595 H 0.27162 0.4075 0.93996 0.0
H1596 H 0.34178 0.35657 0.82962 0.0
H1597 H 0.33227 0.27372 0.83599 0.0
H1598 H 0.33019 0.45572 0.81934 0.0
H1599 H 0.32266 0.52666 0.84133 0.0
loop_
_geom_bond_atom_site_label_1
_geom_bond_atom_site_label_2
_geom_bond_distance
_geom_bond_site_symmetry_2
_ccdc_geom_bond_type
Co0 O1 2.216 . S
Co0 O2 2.091 . S
Co0 O4 2.004 . S
Co0 O10 2.021 . S
Co0 O12 2.137 . S
Co0 O13 2.244 . S
O1 Co0 2.216 . S
O1 C8 1.247 . S
O2 Co0 2.091 . S
O2 C8 1.261 . S
C3 O12 1.247 . S
C3 O13 1.272 . S
O4 Co0 2.004 . S
O4 C9 1.259 . S
Co5 O6 2.061 . S
Co5 O11 2.052 . S
Co5 O13 2.135 . S
O6 Co5 2.061 . S
O6 C9 1.235 . S
C7 O10 1.238 . S
C7 O11 1.241 . S
C8 O1 1.247 . S
C8 O2 1.261 . S
C9 O4 1.259 . S
C9 O6 1.235 . S
O10 Co0 2.021 . S
O10 C7 1.238 . S
O11 Co5 2.052 . S
O11 C7 1.241 . S
O12 Co0 2.137 . S
O12 C3 1.247 . S
O13 Co0 2.244 . S
O13 C3 1.272 . S
O13 Co5 2.135 . S
Co14 O15 2.216 . S
Co14 O16 2.091 . S
Co14 O18 2.004 . S
Co14 O24 2.021 . S
Co14 O26 2.137 . S
Co14 O27 2.244 . S
O15 Co14 2.216 . S
O15 C22 1.247 . S
O16 Co14 2.091 . S
O16 C22 1.261 . S
C17 O26 1.247 . S
C17 O27 1.272 . S
O18 Co14 2.004 . S
O18 C23 1.259 . S
Co19 O20 2.061 . S
Co19 O25 2.052 . S
Co19 O27 2.135 . S
O20 Co19 2.061 . S
O20 C23 1.235 . S
C21 O24 1.238 . S
C21 O25 1.241 . S
C22 O15 1.247 . S
C22 O16 1.261 . S
C23 O18 1.259 . S
C23 O20 1.235 . S
O24 Co14 2.021 . S
O24 C21 1.238 . S
O25 Co19 2.052 . S
O25 C21 1.241 . S
O26 Co14 2.137 . S
O26 C17 1.247 . S
O27 Co14 2.244 . S
O27 C17 1.272 . S
O27 Co19 2.135 . S
Co28 O29 2.216 . S
Co28 O30 2.091 . S
Co28 O32 2.004 . S
Co28 O38 2.021 . S
Co28 O40 2.137 . S
Co28 O41 2.244 . S
O29 Co28 2.216 . S
O29 C36 1.247 . S
O30 Co28 2.091 . S
O30 C36 1.261 . S
C31 O40 1.247 . S
C31 O41 1.272 . S
O32 Co28 2.004 . S
O32 C37 1.259 . S
Co33 O34 2.061 . S
Co33 O39 2.052 . S
Co33 O41 2.135 . S
O34 Co33 2.061 . S
O34 C37 1.235 . S
C35 O38 1.238 . S
C35 O39 1.241 . S
C36 O29 1.247 . S
C36 O30 1.261 . S
C37 O32 1.259 . S
C37 O34 1.235 . S
O38 Co28 2.021 . S
O38 C35 1.238 . S
O39 Co33 2.052 . S
O39 C35 1.241 . S
O40 Co28 2.137 . S
O40 C31 1.247 . S
O41 Co28 2.244 . S
O41 C31 1.272 . S
O41 Co33 2.135 . S
Co42 O43 2.216 . S
Co42 O44 2.091 . S
Co42 O46 2.004 . S
Co42 O52 2.021 . S
Co42 O54 2.137 . S
Co42 O55 2.244 . S
O43 Co42 2.216 . S
O43 C50 1.247 . S
O44 Co42 2.091 . S
O44 C50 1.261 . S
C45 O54 1.247 . S
C45 O55 1.272 . S
O46 Co42 2.004 . S
O46 C51 1.259 . S
Co47 O48 2.061 . S
Co47 O53 2.052 . S
Co47 O55 2.135 . S
O48 Co47 2.061 . S
O48 C51 1.235 . S
C49 O52 1.238 . S
C49 O53 1.241 . S
C50 O43 1.247 . S
C50 O44 1.261 . S
C51 O46 1.259 . S
C51 O48 1.235 . S
O52 Co42 2.021 . S
O52 C49 1.238 . S
O53 Co47 2.052 . S
O53 C49 1.241 . S
O54 Co42 2.137 . S
O54 C45 1.247 . S
O55 Co42 2.244 . S
O55 C45 1.272 . S
O55 Co47 2.135 . S
Co56 O57 2.216 . S
Co56 O58 2.091 . S
Co56 O60 2.004 . S
Co56 O66 2.021 . S
Co56 O68 2.137 . S
Co56 O69 2.244 . S
O57 Co56 2.216 . S
O57 C64 1.247 . S
O58 Co56 2.091 . S
O58 C64 1.261 . S
C59 O68 1.247 . S
C59 O69 1.272 . S
O60 Co56 2.004 . S
O60 C65 1.259 . S
Co61 O62 2.061 . S
Co61 O67 2.052 . S
Co61 O69 2.135 . S
O62 Co61 2.061 . S
O62 C65 1.235 . S
C63 O66 1.238 . S
C63 O67 1.241 . S
C64 O57 1.247 . S
C64 O58 1.261 . S
C65 O60 1.259 . S
C65 O62 1.235 . S
O66 Co56 2.021 . S
O66 C63 1.238 . S
O67 Co61 2.052 . S
O67 C63 1.241 . S
O68 Co56 2.137 . S
O68 C59 1.247 . S
O69 Co56 2.244 . S
O69 C59 1.272 . S
O69 Co61 2.135 . S
Co70 O71 2.216 . S
Co70 O72 2.091 . S
Co70 O74 2.004 . S
Co70 O80 2.021 . S
Co70 O82 2.137 . S
Co70 O83 2.244 . S
O71 Co70 2.216 . S
O71 C78 1.247 . S
O72 Co70 2.091 . S
O72 C78 1.261 . S
C73 O82 1.247 . S
C73 O83 1.272 . S
O74 Co70 2.004 . S
O74 C79 1.259 . S
Co75 O76 2.061 . S
Co75 O81 2.052 . S
Co75 O83 2.135 . S
O76 Co75 2.061 . S
O76 C79 1.235 . S
C77 O80 1.238 . S
C77 O81 1.241 . S
C78 O71 1.247 . S
C78 O72 1.261 . S
C79 O74 1.259 . S
C79 O76 1.235 . S
O80 Co70 2.021 . S
O80 C77 1.238 . S
O81 Co75 2.052 . S
O81 C77 1.241 . S
O82 Co70 2.137 . S
O82 C73 1.247 . S
O83 Co70 2.244 . S
O83 C73 1.272 . S
O83 Co75 2.135 . S
Co84 O85 2.216 . S
Co84 O86 2.091 . S
Co84 O88 2.004 . S
Co84 O94 2.021 . S
Co84 O96 2.137 . S
Co84 O97 2.244 . S
O85 Co84 2.216 . S
O85 C92 1.247 . S
O86 Co84 2.091 . S
O86 C92 1.261 . S
C87 O96 1.247 . S
C87 O97 1.272 . S
O88 Co84 2.004 . S
O88 C93 1.259 . S
Co89 O90 2.061 . S
Co89 O95 2.052 . S
Co89 O97 2.135 . S
O90 Co89 2.061 . S
O90 C93 1.235 . S
C91 O94 1.238 . S
C91 O95 1.241 . S
C92 O85 1.247 . S
C92 O86 1.261 . S
C93 O88 1.259 . S
C93 O90 1.235 . S
O94 Co84 2.021 . S
O94 C91 1.238 . S
O95 Co89 2.052 . S
O95 C91 1.241 . S
O96 Co84 2.137 . S
O96 C87 1.247 . S
O97 Co84 2.244 . S
O97 C87 1.272 . S
O97 Co89 2.135 . S
Co98 O99 2.216 . S
Co98 O100 2.091 . S
Co98 O102 2.004 . S
Co98 O108 2.021 . S
Co98 O110 2.137 . S
Co98 O111 2.244 . S
O99 Co98 2.216 . S
O99 C106 1.247 . S
O100 Co98 2.091 . S
O100 C106 1.261 . S
C101 O110 1.247 . S
C101 O111 1.272 . S
O102 Co98 2.004 . S
O102 C107 1.259 . S
Co103 O104 2.061 . S
Co103 O109 2.052 . S
Co103 O111 2.135 . S
O104 Co103 2.061 . S
O104 C107 1.235 . S
C105 O108 1.238 . S
C105 O109 1.241 . S
C106 O99 1.247 . S
C106 O100 1.261 . S
C107 O102 1.259 . S
C107 O104 1.235 . S
O108 Co98 2.021 . S
O108 C105 1.238 . S
O109 Co103 2.052 . S
O109 C105 1.241 . S
O110 Co98 2.137 . S
O110 C101 1.247 . S
O111 Co98 2.244 . S
O111 C101 1.272 . S
O111 Co103 2.135 . S
Co112 O113 2.216 . S
Co112 O114 2.091 . S
Co112 O116 2.004 . S
Co112 O122 2.021 . S
Co112 O124 2.137 . S
Co112 O125 2.244 . S
O113 Co112 2.216 . S
O113 C120 1.247 . S
O114 Co112 2.091 . S
O114 C120 1.261 . S
C115 O124 1.247 . S
C115 O125 1.272 . S
O116 Co112 2.004 . S
O116 C121 1.259 . S
Co117 O118 2.061 . S
Co117 O123 2.052 . S
Co117 O125 2.135 . S
O118 Co117 2.061 . S
O118 C121 1.235 . S
C119 O122 1.238 1_545 S
C119 O123 1.241 1_545 S
C120 O113 1.247 . S
C120 O114 1.261 . S
C121 O116 1.259 . S
C121 O118 1.235 . S
O122 Co112 2.021 . S
O122 C119 1.238 1_565 S
O123 Co117 2.052 . S
O123 C119 1.241 1_565 S
O124 Co112 2.137 . S
O124 C115 1.247 . S
O125 Co112 2.244 . S
O125 C115 1.272 . S
O125 Co117 2.135 . S
Co126 O127 2.216 . S
Co126 O128 2.091 . S
Co126 O130 2.004 . S
Co126 O136 2.021 . S
Co126 O138 2.137 . S
Co126 O139 2.244 . S
O127 Co126 2.216 . S
O127 C134 1.247 . S
O128 Co126 2.091 . S
O128 C134 1.261 . S
C129 O138 1.247 . S
C129 O139 1.272 . S
O130 Co126 2.004 . S
O130 C135 1.259 . S
Co131 O132 2.061 . S
Co131 O137 2.052 . S
Co131 O139 2.135 . S
O132 Co131 2.061 . S
O132 C135 1.235 . S
C133 O136 1.238 . S
C133 O137 1.241 . S
C134 O127 1.247 . S
C134 O128 1.261 . S
C135 O130 1.259 . S
C135 O132 1.235 . S
O136 Co126 2.021 . S
O136 C133 1.238 . S
O137 Co131 2.052 . S
O137 C133 1.241 . S
O138 Co126 2.137 . S
O138 C129 1.247 . S
O139 Co126 2.244 . S
O139 C129 1.272 . S
O139 Co131 2.135 . S
Co140 O141 2.216 . S
Co140 O142 2.091 . S
Co140 O144 2.004 . S
Co140 O150 2.021 . S
Co140 O152 2.137 . S
Co140 O153 2.244 . S
O141 Co140 2.216 . S
O141 C148 1.247 . S
O142 Co140 2.091 . S
O142 C148 1.261 . S
C143 O152 1.247 . S
C143 O153 1.272 . S
O144 Co140 2.004 . S
O144 C149 1.259 . S
Co145 O146 2.061 . S
Co145 O151 2.052 . S
Co145 O153 2.135 . S
O146 Co145 2.061 . S
O146 C149 1.235 . S
C147 O150 1.238 . S
C147 O151 1.241 . S
C148 O141 1.247 . S
C148 O142 1.261 . S
C149 O144 1.259 . S
C149 O146 1.235 . S
O150 Co140 2.021 . S
O150 C147 1.238 . S
O151 Co145 2.052 . S
O151 C147 1.241 . S
O152 Co140 2.137 . S
O152 C143 1.247 . S
O153 Co140 2.244 . S
O153 C143 1.272 . S
O153 Co145 2.135 . S
Co154 O155 2.216 . S
Co154 O156 2.091 . S
Co154 O158 2.004 . S
Co154 O164 2.021 . S
Co154 O166 2.137 . S
Co154 O167 2.244 . S
O155 Co154 2.216 . S
O155 C162 1.247 . S
O156 Co154 2.091 . S
O156 C162 1.261 . S
C157 O166 1.247 . S
C157 O167 1.272 . S
O158 Co154 2.004 . S
O158 C163 1.259 . S
Co159 O160 2.061 . S
Co159 O165 2.052 . S
Co159 O167 2.135 . S
O160 Co159 2.061 . S
O160 C163 1.235 . S
C161 O164 1.238 1_545 S
C161 O165 1.241 1_545 S
C162 O155 1.247 . S
C162 O156 1.261 . S
C163 O158 1.259 . S
C163 O160 1.235 . S
O164 Co154 2.021 . S
O164 C161 1.238 1_565 S
O165 Co159 2.052 . S
O165 C161 1.241 1_565 S
O166 Co154 2.137 . S
O166 C157 1.247 . S
O167 Co154 2.244 . S
O167 C157 1.272 . S
O167 Co159 2.135 . S
Co168 O169 2.216 . S
Co168 O170 2.091 . S
Co168 O172 2.004 . S
Co168 O178 2.021 . S
Co168 O180 2.137 . S
Co168 O181 2.244 . S
O169 Co168 2.216 . S
O169 C176 1.247 . S
O170 Co168 2.091 . S
O170 C176 1.261 . S
C171 O180 1.247 . S
C171 O181 1.272 . S
O172 Co168 2.004 . S
O172 C177 1.259 . S
Co173 O174 2.061 . S
Co173 O179 2.052 . S
Co173 O181 2.135 . S
O174 Co173 2.061 . S
O174 C177 1.235 . S
C175 O178 1.238 1_565 S
C175 O179 1.241 1_565 S
C176 O169 1.247 . S
C176 O170 1.261 . S
C177 O172 1.259 . S
C177 O174 1.235 . S
O178 Co168 2.021 . S
O178 C175 1.238 1_545 S
O179 Co173 2.052 . S
O179 C175 1.241 1_545 S
O180 Co168 2.137 . S
O180 C171 1.247 . S
O181 Co168 2.244 . S
O181 C171 1.272 . S
O181 Co173 2.135 . S
Co182 O183 2.216 . S
Co182 O184 2.091 . S
Co182 O186 2.004 . S
Co182 O192 2.021 . S
Co182 O194 2.137 . S
Co182 O195 2.244 . S
O183 Co182 2.216 . S
O183 C190 1.247 . S
O184 Co182 2.091 . S
O184 C190 1.261 . S
C185 O194 1.247 . S
C185 O195 1.272 . S
O186 Co182 2.004 . S
O186 C191 1.259 . S
Co187 O188 2.061 . S
Co187 O193 2.052 . S
Co187 O195 2.135 . S
O188 Co187 2.061 . S
O188 C191 1.235 . S
C189 O192 1.238 . S
C189 O193 1.241 . S
C190 O183 1.247 . S
C190 O184 1.261 . S
C191 O186 1.259 . S
C191 O188 1.235 . S
O192 Co182 2.021 . S
O192 C189 1.238 . S
O193 Co187 2.052 . S
O193 C189 1.241 . S
O194 Co182 2.137 . S
O194 C185 1.247 . S
O195 Co182 2.244 . S
O195 C185 1.272 . S
O195 Co187 2.135 . S
Co196 O197 2.216 . S
Co196 O198 2.091 . S
Co196 O200 2.004 . S
Co196 O206 2.021 . S
Co196 O208 2.137 . S
Co196 O209 2.244 . S
O197 Co196 2.216 . S
O197 C204 1.247 . S
O198 Co196 2.091 . S
O198 C204 1.261 . S
C199 O208 1.247 . S
C199 O209 1.272 . S
O200 Co196 2.004 . S
O200 C205 1.259 . S
Co201 O202 2.061 . S
Co201 O207 2.052 . S
Co201 O209 2.135 . S
O202 Co201 2.061 . S
O202 C205 1.235 . S
C203 O206 1.238 . S
C203 O207 1.241 . S
C204 O197 1.247 . S
C204 O198 1.261 . S
C205 O200 1.259 . S
C205 O202 1.235 . S
O206 Co196 2.021 . S
O206 C203 1.238 . S
O207 Co201 2.052 . S
O207 C203 1.241 . S
O208 Co196 2.137 . S
O208 C199 1.247 . S
O209 Co196 2.244 . S
O209 C199 1.272 . S
O209 Co201 2.135 . S
Co210 O211 2.216 . S
Co210 O212 2.091 . S
Co210 O214 2.004 . S
Co210 O220 2.021 . S
Co210 O222 2.137 . S
Co210 O223 2.244 . S
O211 Co210 2.216 . S
O211 C218 1.247 . S
O212 Co210 2.091 . S
O212 C218 1.261 . S
C213 O222 1.247 . S
C213 O223 1.272 . S
O214 Co210 2.004 . S
O214 C219 1.259 . S
Co215 O216 2.061 . S
Co215 O221 2.052 . S
Co215 O223 2.135 . S
O216 Co215 2.061 . S
O216 C219 1.235 . S
C217 O220 1.238 1_565 S
C217 O221 1.241 1_565 S
C218 O211 1.247 . S
C218 O212 1.261 . S
C219 O214 1.259 . S
C219 O216 1.235 . S
O220 Co210 2.021 . S
O220 C217 1.238 1_545 S
O221 Co215 2.052 . S
O221 C217 1.241 1_545 S
O222 Co210 2.137 . S
O222 C213 1.247 . S
O223 Co210 2.244 . S
O223 C213 1.272 . S
O223 Co215 2.135 . S
Co224 O225 2.216 . S
Co224 O226 2.091 . S
Co224 O228 2.004 . S
Co224 O234 2.021 . S
Co224 O236 2.137 . S
Co224 O237 2.244 . S
O225 Co224 2.216 . S
O225 C232 1.247 . S
O226 Co224 2.091 . S
O226 C232 1.261 . S
C227 O236 1.247 . S
C227 O237 1.272 . S
O228 Co224 2.004 . S
O228 C233 1.259 . S
Co229 O230 2.061 . S
Co229 O235 2.052 . S
Co229 O237 2.135 . S
O230 Co229 2.061 . S
O230 C233 1.235 . S
C231 O234 1.238 . S
C231 O235 1.241 . S
C232 O225 1.247 . S
C232 O226 1.261 . S
C233 O228 1.259 . S
C233 O230 1.235 . S
O234 Co224 2.021 . S
O234 C231 1.238 . S
O235 Co229 2.052 . S
O235 C231 1.241 . S
O236 Co224 2.137 . S
O236 C227 1.247 . S
O237 Co224 2.244 . S
O237 C227 1.272 . S
O237 Co229 2.135 . S
Co238 O239 2.216 . S
Co238 O240 2.091 . S
Co238 O242 2.004 . S
Co238 O248 2.021 . S
Co238 O250 2.137 . S
Co238 O251 2.244 . S
O239 Co238 2.216 . S
O239 C246 1.247 . S
O240 Co238 2.091 . S
O240 C246 1.261 . S
C241 O250 1.247 . S
C241 O251 1.272 . S
O242 Co238 2.004 . S
O242 C247 1.259 . S
Co243 O244 2.061 . S
Co243 O249 2.052 . S
Co243 O251 2.135 . S
O244 Co243 2.061 . S
O244 C247 1.235 . S
C245 O248 1.238 . S
C245 O249 1.241 . S
C246 O239 1.247 . S
C246 O240 1.261 . S
C247 O242 1.259 . S
C247 O244 1.235 . S
O248 Co238 2.021 . S
O248 C245 1.238 . S
O249 Co243 2.052 . S
O249 C245 1.241 . S
O250 Co238 2.137 . S
O250 C241 1.247 . S
O251 Co238 2.244 . S
O251 C241 1.272 . S
O251 Co243 2.135 . S
Co252 O253 2.216 . S
Co252 O254 2.091 . S
Co252 O256 2.004 . S
Co252 O262 2.021 . S
Co252 O264 2.137 . S
Co252 O265 2.244 . S
O253 Co252 2.216 . S
O253 C260 1.247 . S
O254 Co252 2.091 . S
O254 C260 1.261 . S
C255 O264 1.247 . S
C255 O265 1.272 . S
O256 Co252 2.004 . S
O256 C261 1.259 . S
Co257 O258 2.061 . S
Co257 O263 2.052 . S
Co257 O265 2.135 . S
O258 Co257 2.061 . S
O258 C261 1.235 . S
C259 O262 1.238 . S
C259 O263 1.241 . S
C260 O253 1.247 . S
C260 O254 1.261 . S
C261 O256 1.259 . S
C261 O258 1.235 . S
O262 Co252 2.021 . S
O262 C259 1.238 . S
O263 Co257 2.052 . S
O263 C259 1.241 . S
O264 Co252 2.137 . S
O264 C255 1.247 . S
O265 Co252 2.244 . S
O265 C255 1.272 . S
O265 Co257 2.135 . S
Co266 O267 2.216 . S
Co266 O268 2.091 . S
Co266 O270 2.004 . S
Co266 O276 2.021 . S
Co266 O278 2.137 . S
Co266 O279 2.244 . S
O267 Co266 2.216 . S
O267 C274 1.247 . S
O268 Co266 2.091 . S
O268 C274 1.261 . S
C269 O278 1.247 . S
C269 O279 1.272 . S
O270 Co266 2.004 . S
O270 C275 1.259 . S
Co271 O272 2.061 . S
Co271 O277 2.052 . S
Co271 O279 2.135 . S
O272 Co271 2.061 . S
O272 C275 1.235 . S
C273 O276 1.238 . S
C273 O277 1.241 . S
C274 O267 1.247 . S
C274 O268 1.261 . S
C275 O270 1.259 . S
C275 O272 1.235 . S
O276 Co266 2.021 . S
O276 C273 1.238 . S
O277 Co271 2.052 . S
O277 C273 1.241 . S
O278 Co266 2.137 . S
O278 C269 1.247 . S
O279 Co266 2.244 . S
O279 C269 1.272 . S
O279 Co271 2.135 . S
Co280 O281 2.216 . S
Co280 O282 2.091 . S
Co280 O284 2.004 . S
Co280 O290 2.021 . S
Co280 O292 2.137 . S
Co280 O293 2.244 . S
O281 Co280 2.216 . S
O281 C288 1.247 . S
O282 Co280 2.091 . S
O282 C288 1.261 . S
C283 O292 1.247 . S
C283 O293 1.272 . S
O284 Co280 2.004 . S
O284 C289 1.259 . S
Co285 O286 2.061 . S
Co285 O291 2.052 . S
Co285 O293 2.135 . S
O286 Co285 2.061 . S
O286 C289 1.235 . S
C287 O290 1.238 . S
C287 O291 1.241 . S
C288 O281 1.247 . S
C288 O282 1.261 . S
C289 O284 1.259 . S
C289 O286 1.235 . S
O290 Co280 2.021 . S
O290 C287 1.238 . S
O291 Co285 2.052 . S
O291 C287 1.241 . S
O292 Co280 2.137 . S
O292 C283 1.247 . S
O293 Co280 2.244 . S
O293 C283 1.272 . S
O293 Co285 2.135 . S
Co294 O295 2.216 . S
Co294 O296 2.091 . S
Co294 O298 2.004 . S
Co294 O304 2.021 . S
Co294 O306 2.137 . S
Co294 O307 2.244 . S
O295 Co294 2.216 . S
O295 C302 1.247 . S
O296 Co294 2.091 . S
O296 C302 1.261 . S
C297 O306 1.247 . S
C297 O307 1.272 . S
O298 Co294 2.004 . S
O298 C303 1.259 . S
Co299 O300 2.061 . S
Co299 O305 2.052 . S
Co299 O307 2.135 . S
O300 Co299 2.061 . S
O300 C303 1.235 . S
C301 O304 1.238 . S
C301 O305 1.241 . S
C302 O295 1.247 . S
C302 O296 1.261 . S
C303 O298 1.259 . S
C303 O300 1.235 . S
O304 Co294 2.021 . S
O304 C301 1.238 . S
O305 Co299 2.052 . S
O305 C301 1.241 . S
O306 Co294 2.137 . S
O306 C297 1.247 . S
O307 Co294 2.244 . S
O307 C297 1.272 . S
O307 Co299 2.135 . S
Co308 O309 2.216 . S
Co308 O310 2.091 . S
Co308 O312 2.004 . S
Co308 O318 2.021 . S
Co308 O320 2.137 . S
Co308 O321 2.244 . S
O309 Co308 2.216 . S
O309 C316 1.247 . S
O310 Co308 2.091 . S
O310 C316 1.261 . S
C311 O320 1.247 . S
C311 O321 1.272 . S
O312 Co308 2.004 . S
O312 C317 1.259 . S
Co313 O314 2.061 . S
Co313 O319 2.052 . S
Co313 O321 2.135 . S
O314 Co313 2.061 . S
O314 C317 1.235 . S
C315 O318 1.238 . S
C315 O319 1.241 . S
C316 O309 1.247 . S
C316 O310 1.261 . S
C317 O312 1.259 . S
C317 O314 1.235 . S
O318 Co308 2.021 . S
O318 C315 1.238 . S
O319 Co313 2.052 . S
O319 C315 1.241 . S
O320 Co308 2.137 . S
O320 C311 1.247 . S
O321 Co308 2.244 . S
O321 C311 1.272 . S
O321 Co313 2.135 . S
Co322 O323 2.216 . S
Co322 O324 2.091 . S
Co322 O326 2.004 . S
Co322 O332 2.021 . S
Co322 O334 2.137 . S
Co322 O335 2.244 . S
O323 Co322 2.216 . S
O323 C330 1.247 . S
O324 Co322 2.091 . S
O324 C330 1.261 . S
C325 O334 1.247 . S
C325 O335 1.272 . S
O326 Co322 2.004 . S
O326 C331 1.259 . S
Co327 O328 2.061 . S
Co327 O333 2.052 . S
Co327 O335 2.135 . S
O328 Co327 2.061 . S
O328 C331 1.235 . S
C329 O332 1.238 . S
C329 O333 1.241 . S
C330 O323 1.247 . S
C330 O324 1.261 . S
C331 O326 1.259 . S
C331 O328 1.235 . S
O332 Co322 2.021 . S
O332 C329 1.238 . S
O333 Co327 2.052 . S
O333 C329 1.241 . S
O334 Co322 2.137 . S
O334 C325 1.247 . S
O335 Co322 2.244 . S
O335 C325 1.272 . S
O335 Co327 2.135 . S
Co336 O337 2.216 . S
Co336 O338 2.091 . S
Co336 O340 2.004 . S
Co336 O346 2.021 . S
Co336 O348 2.137 . S
Co336 O349 2.244 . S
O337 Co336 2.216 . S
O337 C344 1.247 . S
O338 Co336 2.091 . S
O338 C344 1.261 . S
C339 O348 1.247 . S
C339 O349 1.272 . S
O340 Co336 2.004 . S
O340 C345 1.259 . S
Co341 O342 2.061 . S
Co341 O347 2.052 . S
Co341 O349 2.135 . S
O342 Co341 2.061 . S
O342 C345 1.235 . S
C343 O346 1.238 1_545 S
C343 O347 1.241 1_545 S
C344 O337 1.247 . S
C344 O338 1.261 . S
C345 O340 1.259 . S
C345 O342 1.235 . S
O346 Co336 2.021 . S
O346 C343 1.238 1_565 S
O347 Co341 2.052 . S
O347 C343 1.241 1_565 S
O348 Co336 2.137 . S
O348 C339 1.247 . S
O349 Co336 2.244 . S
O349 C339 1.272 . S
O349 Co341 2.135 . S
Co350 O351 2.216 . S
Co350 O352 2.091 . S
Co350 O354 2.004 . S
Co350 O360 2.021 . S
Co350 O362 2.137 . S
Co350 O363 2.244 . S
O351 Co350 2.216 . S
O351 C358 1.247 . S
O352 Co350 2.091 . S
O352 C358 1.261 . S
C353 O362 1.247 . S
C353 O363 1.272 . S
O354 Co350 2.004 . S
O354 C359 1.259 . S
Co355 O356 2.061 . S
Co355 O361 2.052 . S
Co355 O363 2.135 . S
O356 Co355 2.061 . S
O356 C359 1.235 . S
C357 O360 1.238 . S
C357 O361 1.241 . S
C358 O351 1.247 . S
C358 O352 1.261 . S
C359 O354 1.259 . S
C359 O356 1.235 . S
O360 Co350 2.021 . S
O360 C357 1.238 . S
O361 Co355 2.052 . S
O361 C357 1.241 . S
O362 Co350 2.137 . S
O362 C353 1.247 . S
O363 Co350 2.244 . S
O363 C353 1.272 . S
O363 Co355 2.135 . S
Co364 O365 2.216 . S
Co364 O366 2.091 . S
Co364 O368 2.004 . S
Co364 O374 2.021 . S
Co364 O376 2.137 . S
Co364 O377 2.244 . S
O365 Co364 2.216 . S
O365 C372 1.247 . S
O366 Co364 2.091 . S
O366 C372 1.261 . S
C367 O376 1.247 . S
C367 O377 1.272 . S
O368 Co364 2.004 . S
O368 C373 1.259 . S
Co369 O370 2.061 . S
Co369 O375 2.052 . S
Co369 O377 2.135 . S
O370 Co369 2.061 . S
O370 C373 1.235 . S
C371 O374 1.238 . S
C371 O375 1.241 . S
C372 O365 1.247 . S
C372 O366 1.261 . S
C373 O368 1.259 . S
C373 O370 1.235 . S
O374 Co364 2.021 . S
O374 C371 1.238 . S
O375 Co369 2.052 . S
O375 C371 1.241 . S
O376 Co364 2.137 . S
O376 C367 1.247 . S
O377 Co364 2.244 . S
O377 C367 1.272 . S
O377 Co369 2.135 . S
Co378 O379 2.216 . S
Co378 O380 2.091 . S
Co378 O382 2.004 . S
Co378 O388 2.021 . S
Co378 O390 2.137 . S
Co378 O391 2.244 . S
O379 Co378 2.216 . S
O379 C386 1.247 . S
O380 Co378 2.091 . S
O380 C386 1.261 . S
C381 O390 1.247 . S
C381 O391 1.272 . S
O382 Co378 2.004 . S
O382 C387 1.259 . S
Co383 O384 2.061 . S
Co383 O389 2.052 . S
Co383 O391 2.135 . S
O384 Co383 2.061 . S
O384 C387 1.235 . S
C385 O388 1.238 1_545 S
C385 O389 1.241 1_545 S
C386 O379 1.247 . S
C386 O380 1.261 . S
C387 O382 1.259 . S
C387 O384 1.235 . S
O388 Co378 2.021 . S
O388 C385 1.238 1_565 S
O389 Co383 2.052 . S
O389 C385 1.241 1_565 S
O390 Co378 2.137 . S
O390 C381 1.247 . S
O391 Co378 2.244 . S
O391 C381 1.272 . S
O391 Co383 2.135 . S
Co392 O393 2.216 . S
Co392 O394 2.091 . S
Co392 O396 2.004 . S
Co392 O402 2.021 . S
Co392 O404 2.137 . S
Co392 O405 2.244 . S
O393 Co392 2.216 . S
O393 C400 1.247 . S
O394 Co392 2.091 . S
O394 C400 1.261 . S
C395 O404 1.247 . S
C395 O405 1.272 . S
O396 Co392 2.004 . S
O396 C401 1.259 . S
Co397 O398 2.061 . S
Co397 O403 2.052 . S
Co397 O405 2.135 . S
O398 Co397 2.061 . S
O398 C401 1.235 . S
C399 O402 1.238 1_565 S
C399 O403 1.241 1_565 S
C400 O393 1.247 . S
C400 O394 1.261 . S
C401 O396 1.259 . S
C401 O398 1.235 . S
O402 Co392 2.021 . S
O402 C399 1.238 1_545 S
O403 Co397 2.052 . S
O403 C399 1.241 1_545 S
O404 Co392 2.137 . S
O404 C395 1.247 . S
O405 Co392 2.244 . S
O405 C395 1.272 . S
O405 Co397 2.135 . S
Co406 O407 2.216 . S
Co406 O408 2.091 . S
Co406 O410 2.004 . S
Co406 O416 2.021 . S
Co406 O418 2.137 . S
Co406 O419 2.244 . S
O407 Co406 2.216 . S
O407 C414 1.247 . S
O408 Co406 2.091 . S
O408 C414 1.261 . S
C409 O418 1.247 . S
C409 O419 1.272 . S
O410 Co406 2.004 . S
O410 C415 1.259 . S
Co411 O412 2.061 . S
Co411 O417 2.052 . S
Co411 O419 2.135 . S
O412 Co411 2.061 . S
O412 C415 1.235 . S
C413 O416 1.238 . S
C413 O417 1.241 . S
C414 O407 1.247 . S
C414 O408 1.261 . S
C415 O410 1.259 . S
C415 O412 1.235 . S
O416 Co406 2.021 . S
O416 C413 1.238 . S
O417 Co411 2.052 . S
O417 C413 1.241 . S
O418 Co406 2.137 . S
O418 C409 1.247 . S
O419 Co406 2.244 . S
O419 C409 1.272 . S
O419 Co411 2.135 . S
Co420 O421 2.216 . S
Co420 O422 2.091 . S
Co420 O424 2.004 . S
Co420 O430 2.021 . S
Co420 O432 2.137 . S
Co420 O433 2.244 . S
O421 Co420 2.216 . S
O421 C428 1.247 . S
O422 Co420 2.091 . S
O422 C428 1.261 . S
C423 O432 1.247 . S
C423 O433 1.272 . S
O424 Co420 2.004 . S
O424 C429 1.259 . S
Co425 O426 2.061 . S
Co425 O431 2.052 . S
Co425 O433 2.135 . S
O426 Co425 2.061 . S
O426 C429 1.235 . S
C427 O430 1.238 . S
C427 O431 1.241 . S
C428 O421 1.247 . S
C428 O422 1.261 . S
C429 O424 1.259 . S
C429 O426 1.235 . S
O430 Co420 2.021 . S
O430 C427 1.238 . S
O431 Co425 2.052 . S
O431 C427 1.241 . S
O432 Co420 2.137 . S
O432 C423 1.247 . S
O433 Co420 2.244 . S
O433 C423 1.272 . S
O433 Co425 2.135 . S
Co434 O435 2.216 . S
Co434 O436 2.091 . S
Co434 O438 2.004 . S
Co434 O444 2.021 . S
Co434 O446 2.137 . S
Co434 O447 2.244 . S
O435 Co434 2.216 . S
O435 C442 1.247 . S
O436 Co434 2.091 . S
O436 C442 1.261 . S
C437 O446 1.247 . S
C437 O447 1.272 . S
O438 Co434 2.004 . S
O438 C443 1.259 . S
Co439 O440 2.061 . S
Co439 O445 2.052 . S
Co439 O447 2.135 . S
O440 Co439 2.061 . S
O440 C443 1.235 . S
C441 O444 1.238 1_565 S
C441 O445 1.241 1_565 S
C442 O435 1.247 . S
C442 O436 1.261 . S
C443 O438 1.259 . S
C443 O440 1.235 . S
O444 Co434 2.021 . S
O444 C441 1.238 1_545 S
O445 Co439 2.052 . S
O445 C441 1.241 1_545 S
O446 Co434 2.137 . S
O446 C437 1.247 . S
O447 Co434 2.244 . S
O447 C437 1.272 . S
O447 Co439 2.135 . S
C448 C449 1.363 . S
C448 C454 1.379 . S
C448 N456 1.356 . S
C449 C448 1.363 . S
C449 C455 1.363 . S
C450 C451 1.363 . S
C450 C455 1.379 . S
C450 N457 1.356 . S
C451 C450 1.363 . S
C451 C454 1.363 . S
N452 C454 1.356 . S
N452 H464 0.984 . S
N452 H465 0.985 . S
N453 C455 1.356 . S
N453 H458 0.984 . S
N453 H459 0.985 . S
C454 C448 1.379 . S
C454 C451 1.363 . S
C454 N452 1.356 . S
C455 C449 1.363 . S
C455 C450 1.379 . S
C455 N453 1.356 . S
N456 C448 1.356 . S
N456 H462 0.984 . S
N456 H463 0.984 . S
N457 C450 1.356 . S
N457 H460 0.984 . S
N457 H461 0.985 . S
H458 N453 0.984 . S
H459 N453 0.985 . S
H460 N457 0.984 . S
H461 N457 0.985 . S
H462 N456 0.984 . S
H463 N456 0.984 . S
H464 N452 0.984 . S
H465 N452 0.985 . S
C466 C467 1.363 . S
C466 C472 1.379 . S
C466 N474 1.356 . S
C467 C466 1.363 . S
C467 C473 1.363 . S
C468 C469 1.363 . S
C468 C473 1.379 . S
C468 N475 1.356 . S
C469 C468 1.363 . S
C469 C472 1.363 . S
N470 C472 1.356 . S
N470 H482 0.984 . S
N470 H483 0.985 . S
N471 C473 1.356 . S
N471 H476 0.984 . S
N471 H477 0.985 . S
C472 C466 1.379 . S
C472 C469 1.363 . S
C472 N470 1.356 . S
C473 C467 1.363 . S
C473 C468 1.379 . S
C473 N471 1.356 . S
N474 C466 1.356 . S
N474 H480 0.984 . S
N474 H481 0.984 . S
N475 C468 1.356 . S
N475 H478 0.984 . S
N475 H479 0.985 . S
H476 N471 0.984 . S
H477 N471 0.985 . S
H478 N475 0.984 . S
H479 N475 0.985 . S
H480 N474 0.984 . S
H481 N474 0.984 . S
H482 N470 0.984 . S
H483 N470 0.985 . S
C484 C485 1.363 . S
C484 C490 1.379 . S
C484 N492 1.356 . S
C485 C484 1.363 . S
C485 C491 1.363 . S
C486 C487 1.363 . S
C486 C491 1.379 . S
C486 N493 1.356 . S
C487 C486 1.363 . S
C487 C490 1.363 . S
N488 C490 1.356 . S
N488 H500 0.984 . S
N488 H501 0.985 . S
N489 C491 1.356 . S
N489 H494 0.984 . S
N489 H495 0.985 . S
C490 C484 1.379 . S
C490 C487 1.363 . S
C490 N488 1.356 . S
C491 C485 1.363 . S
C491 C486 1.379 . S
C491 N489 1.356 . S
N492 C484 1.356 . S
N492 H498 0.984 . S
N492 H499 0.984 . S
N493 C486 1.356 . S
N493 H496 0.984 . S
N493 H497 0.985 . S
H494 N489 0.984 . S
H495 N489 0.985 . S
H496 N493 0.984 . S
H497 N493 0.985 . S
H498 N492 0.984 . S
H499 N492 0.984 . S
H500 N488 0.984 . S
H501 N488 0.985 . S
C502 C503 1.363 . S
C502 C508 1.379 . S
C502 N510 1.356 . S
C503 C502 1.363 . S
C503 C509 1.363 . S
C504 C505 1.363 . S
C504 C509 1.379 . S
C504 N511 1.356 . S
C505 C504 1.363 . S
C505 C508 1.363 . S
N506 C508 1.356 . S
N506 H518 0.984 . S
N506 H519 0.985 . S
N507 C509 1.356 . S
N507 H512 0.984 . S
N507 H513 0.985 . S
C508 C502 1.379 . S
C508 C505 1.363 . S
C508 N506 1.356 . S
C509 C503 1.363 . S
C509 C504 1.379 . S
C509 N507 1.356 . S
N510 C502 1.356 . S
N510 H516 0.984 . S
N510 H517 0.984 . S
N511 C504 1.356 . S
N511 H514 0.984 . S
N511 H515 0.985 . S
H512 N507 0.984 . S
H513 N507 0.985 . S
H514 N511 0.984 . S
H515 N511 0.985 . S
H516 N510 0.984 . S
H517 N510 0.984 . S
H518 N506 0.984 . S
H519 N506 0.985 . S
C520 C521 1.363 . S
C520 C526 1.379 . S
C520 N528 1.356 . S
C521 C520 1.363 . S
C521 C527 1.363 . S
C522 C523 1.363 . S
C522 C527 1.379 . S
C522 N529 1.356 . S
C523 C522 1.363 . S
C523 C526 1.363 . S
N524 C526 1.356 . S
N524 H536 0.984 . S
N524 H537 0.985 . S
N525 C527 1.356 . S
N525 H530 0.984 1_545 S
N525 H531 0.985 . S
C526 C520 1.379 . S
C526 C523 1.363 . S
C526 N524 1.356 . S
C527 C521 1.363 . S
C527 C522 1.379 . S
C527 N525 1.356 . S
N528 C520 1.356 . S
N528 H534 0.984 . S
N528 H535 0.984 . S
N529 C522 1.356 . S
N529 H532 0.984 . S
N529 H533 0.985 . S
H530 N525 0.984 1_565 S
H531 N525 0.985 . S
H532 N529 0.984 . S
H533 N529 0.985 . S
H534 N528 0.984 . S
H535 N528 0.984 . S
H536 N524 0.984 . S
H537 N524 0.985 . S
C538 C539 1.363 . S
C538 C544 1.379 . S
C538 N546 1.356 . S
C539 C538 1.363 . S
C539 C545 1.363 . S
C540 C541 1.363 . S
C540 C545 1.379 . S
C540 N547 1.356 . S
C541 C540 1.363 . S
C541 C544 1.363 . S
N542 C544 1.356 . S
N542 H554 0.984 . S
N542 H555 0.985 . S
N543 C545 1.356 . S
N543 H548 0.984 1_545 S
N543 H549 0.985 . S
C544 C538 1.379 . S
C544 C541 1.363 . S
C544 N542 1.356 . S
C545 C539 1.363 . S
C545 C540 1.379 . S
C545 N543 1.356 . S
N546 C538 1.356 . S
N546 H552 0.984 . S
N546 H553 0.984 . S
N547 C540 1.356 . S
N547 H550 0.984 . S
N547 H551 0.985 . S
H548 N543 0.984 1_565 S
H549 N543 0.985 . S
H550 N547 0.984 . S
H551 N547 0.985 . S
H552 N546 0.984 . S
H553 N546 0.984 . S
H554 N542 0.984 . S
H555 N542 0.985 . S
C556 C557 1.363 . S
C556 C562 1.379 . S
C556 N564 1.356 . S
C557 C556 1.363 . S
C557 C563 1.363 . S
C558 C559 1.363 . S
C558 C563 1.379 . S
C558 N565 1.356 . S
C559 C558 1.363 . S
C559 C562 1.363 . S
N560 C562 1.356 . S
N560 H572 0.984 . S
N560 H573 0.985 . S
N561 C563 1.356 . S
N561 H566 0.984 . S
N561 H567 0.985 . S
C562 C556 1.379 . S
C562 C559 1.363 . S
C562 N560 1.356 . S
C563 C557 1.363 . S
C563 C558 1.379 . S
C563 N561 1.356 . S
N564 C556 1.356 . S
N564 H570 0.984 . S
N564 H571 0.984 1_565 S
N565 C558 1.356 . S
N565 H568 0.984 . S
N565 H569 0.985 . S
H566 N561 0.984 . S
H567 N561 0.985 . S
H568 N565 0.984 . S
H569 N565 0.985 . S
H570 N564 0.984 . S
H571 N564 0.984 1_545 S
H572 N560 0.984 . S
H573 N560 0.985 . S
C574 C575 1.363 . S
C574 C580 1.379 . S
C574 N582 1.356 . S
C575 C574 1.363 . S
C575 C581 1.363 . S
C576 C577 1.363 . S
C576 C581 1.379 . S
C576 N583 1.356 . S
C577 C576 1.363 . S
C577 C580 1.363 . S
N578 C580 1.356 . S
N578 H590 0.984 . S
N578 H591 0.985 1_565 S
N579 C581 1.356 . S
N579 H584 0.984 . S
N579 H585 0.985 . S
C580 C574 1.379 . S
C580 C577 1.363 . S
C580 N578 1.356 . S
C581 C575 1.363 . S
C581 C576 1.379 . S
C581 N579 1.356 . S
N582 C574 1.356 . S
N582 H588 0.984 . S
N582 H589 0.984 . S
N583 C576 1.356 . S
N583 H586 0.984 . S
N583 H587 0.985 . S
H584 N579 0.984 . S
H585 N579 0.985 . S
H586 N583 0.984 . S
H587 N583 0.985 . S
H588 N582 0.984 . S
H589 N582 0.984 . S
H590 N578 0.984 . S
H591 N578 0.985 1_545 S
C592 C593 1.363 . S
C592 C598 1.379 . S
C592 N600 1.356 . S
C593 C592 1.363 . S
C593 C599 1.363 . S
C594 C595 1.363 . S
C594 C599 1.379 . S
C594 N601 1.356 . S
C595 C594 1.363 . S
C595 C598 1.363 . S
N596 C598 1.356 . S
N596 H608 0.984 . S
N596 H609 0.985 . S
N597 C599 1.356 . S
N597 H602 0.984 . S
N597 H603 0.985 . S
C598 C592 1.379 . S
C598 C595 1.363 . S
C598 N596 1.356 . S
C599 C593 1.363 . S
C599 C594 1.379 . S
C599 N597 1.356 . S
N600 C592 1.356 . S
N600 H606 0.984 . S
N600 H607 0.984 . S
N601 C594 1.356 . S
N601 H604 0.984 . S
N601 H605 0.985 . S
H602 N597 0.984 . S
H603 N597 0.985 . S
H604 N601 0.984 . S
H605 N601 0.985 . S
H606 N600 0.984 . S
H607 N600 0.984 . S
H608 N596 0.984 . S
H609 N596 0.985 . S
C610 C611 1.363 . S
C610 C616 1.379 . S
C610 N618 1.356 . S
C611 C610 1.363 . S
C611 C617 1.363 . S
C612 C613 1.363 . S
C612 C617 1.379 . S
C612 N619 1.356 . S
C613 C612 1.363 . S
C613 C616 1.363 . S
N614 C616 1.356 . S
N614 H626 0.984 . S
N614 H627 0.985 . S
N615 C617 1.356 . S
N615 H620 0.984 . S
N615 H621 0.985 . S
C616 C610 1.379 . S
C616 C613 1.363 . S
C616 N614 1.356 . S
C617 C611 1.363 . S
C617 C612 1.379 . S
C617 N615 1.356 . S
N618 C610 1.356 . S
N618 H624 0.984 . S
N618 H625 0.984 . S
N619 C612 1.356 . S
N619 H622 0.984 . S
N619 H623 0.985 . S
H620 N615 0.984 . S
H621 N615 0.985 . S
H622 N619 0.984 . S
H623 N619 0.985 . S
H624 N618 0.984 . S
H625 N618 0.984 . S
H626 N614 0.984 . S
H627 N614 0.985 . S
C628 C629 1.363 . S
C628 C634 1.379 . S
C628 N636 1.356 . S
C629 C628 1.363 . S
C629 C635 1.363 . S
C630 C631 1.363 . S
C630 C635 1.379 . S
C630 N637 1.356 . S
C631 C630 1.363 . S
C631 C634 1.363 . S
N632 C634 1.356 . S
N632 H644 0.984 . S
N632 H645 0.985 . S
N633 C635 1.356 . S
N633 H638 0.984 . S
N633 H639 0.985 . S
C634 C628 1.379 . S
C634 C631 1.363 . S
C634 N632 1.356 . S
C635 C629 1.363 . S
C635 C630 1.379 . S
C635 N633 1.356 . S
N636 C628 1.356 . S
N636 H642 0.984 . S
N636 H643 0.984 . S
N637 C630 1.356 . S
N637 H640 0.984 . S
N637 H641 0.985 . S
H638 N633 0.984 . S
H639 N633 0.985 . S
H640 N637 0.984 . S
H641 N637 0.985 . S
H642 N636 0.984 . S
H643 N636 0.984 . S
H644 N632 0.984 . S
H645 N632 0.985 . S
C646 C647 1.363 . S
C646 C652 1.379 . S
C646 N654 1.356 . S
C647 C646 1.363 . S
C647 C653 1.363 . S
C648 C649 1.363 . S
C648 C653 1.379 . S
C648 N655 1.356 . S
C649 C648 1.363 . S
C649 C652 1.363 . S
N650 C652 1.356 . S
N650 H662 0.984 . S
N650 H663 0.985 . S
N651 C653 1.356 . S
N651 H656 0.984 . S
N651 H657 0.985 . S
C652 C646 1.379 . S
C652 C649 1.363 . S
C652 N650 1.356 . S
C653 C647 1.363 . S
C653 C648 1.379 . S
C653 N651 1.356 . S
N654 C646 1.356 . S
N654 H660 0.984 . S
N654 H661 0.984 . S
N655 C648 1.356 . S
N655 H658 0.984 . S
N655 H659 0.985 . S
H656 N651 0.984 . S
H657 N651 0.985 . S
H658 N655 0.984 . S
H659 N655 0.985 . S
H660 N654 0.984 . S
H661 N654 0.984 . S
H662 N650 0.984 . S
H663 N650 0.985 . S
C664 C665 1.363 . S
C664 C670 1.379 . S
C664 N672 1.356 . S
C665 C664 1.363 . S
C665 C671 1.363 . S
C666 C667 1.363 . S
C666 C671 1.379 . S
C666 N673 1.356 . S
C667 C666 1.363 . S
C667 C670 1.363 . S
N668 C670 1.356 . S
N668 H680 0.984 . S
N668 H681 0.985 . S
N669 C671 1.356 . S
N669 H674 0.984 . S
N669 H675 0.985 . S
C670 C664 1.379 . S
C670 C667 1.363 . S
C670 N668 1.356 . S
C671 C665 1.363 . S
C671 C666 1.379 . S
C671 N669 1.356 . S
N672 C664 1.356 . S
N672 H678 0.984 . S
N672 H679 0.984 . S
N673 C666 1.356 . S
N673 H676 0.984 1_545 S
N673 H677 0.985 . S
H674 N669 0.984 . S
H675 N669 0.985 . S
H676 N673 0.984 1_565 S
H677 N673 0.985 . S
H678 N672 0.984 . S
H679 N672 0.984 . S
H680 N668 0.984 . S
H681 N668 0.985 . S
C682 C683 1.363 . S
C682 C688 1.379 . S
C682 N690 1.356 . S
C683 C682 1.363 . S
C683 C689 1.363 . S
C684 C685 1.363 . S
C684 C689 1.379 . S
C684 N691 1.356 . S
C685 C684 1.363 . S
C685 C688 1.363 . S
N686 C688 1.356 . S
N686 H698 0.984 . S
N686 H699 0.985 . S
N687 C689 1.356 . S
N687 H692 0.984 1_545 S
N687 H693 0.985 . S
C688 C682 1.379 . S
C688 C685 1.363 . S
C688 N686 1.356 . S
C689 C683 1.363 . S
C689 C684 1.379 . S
C689 N687 1.356 . S
N690 C682 1.356 . S
N690 H696 0.984 . S
N690 H697 0.984 . S
N691 C684 1.356 . S
N691 H694 0.984 . S
N691 H695 0.985 . S
H692 N687 0.984 1_565 S
H693 N687 0.985 . S
H694 N691 0.984 . S
H695 N691 0.985 . S
H696 N690 0.984 . S
H697 N690 0.984 . S
H698 N686 0.984 . S
H699 N686 0.985 . S
C700 C701 1.363 . S
C700 C706 1.379 . S
C700 N708 1.356 . S
C701 C700 1.363 . S
C701 C707 1.363 . S
C702 C703 1.363 . S
C702 C707 1.379 . S
C702 N709 1.356 . S
C703 C702 1.363 . S
C703 C706 1.363 . S
N704 C706 1.356 . S
N704 H716 0.984 . S
N704 H717 0.985 1_565 S
N705 C707 1.356 . S
N705 H710 0.984 . S
N705 H711 0.985 . S
C706 C700 1.379 . S
C706 C703 1.363 . S
C706 N704 1.356 . S
C707 C701 1.363 . S
C707 C702 1.379 . S
C707 N705 1.356 . S
N708 C700 1.356 . S
N708 H714 0.984 . S
N708 H715 0.984 . S
N709 C702 1.356 . S
N709 H712 0.984 . S
N709 H713 0.985 . S
H710 N705 0.984 . S
H711 N705 0.985 . S
H712 N709 0.984 . S
H713 N709 0.985 . S
H714 N708 0.984 . S
H715 N708 0.984 . S
H716 N704 0.984 . S
H717 N704 0.985 1_545 S
C718 C719 1.363 . S
C718 C724 1.379 . S
C718 N726 1.356 . S
C719 C718 1.363 . S
C719 C725 1.363 . S
C720 C721 1.363 . S
C720 C725 1.379 . S
C720 N727 1.356 . S
C721 C720 1.363 . S
C721 C724 1.363 . S
N722 C724 1.356 . S
N722 H734 0.984 . S
N722 H735 0.985 1_565 S
N723 C725 1.356 . S
N723 H728 0.984 . S
N723 H729 0.985 . S
C724 C718 1.379 . S
C724 C721 1.363 . S
C724 N722 1.356 . S
C725 C719 1.363 . S
C725 C720 1.379 . S
C725 N723 1.356 . S
N726 C718 1.356 . S
N726 H732 0.984 . S
N726 H733 0.984 . S
N727 C720 1.356 . S
N727 H730 0.984 . S
N727 H731 0.985 . S
H728 N723 0.984 . S
H729 N723 0.985 . S
H730 N727 0.984 . S
H731 N727 0.985 . S
H732 N726 0.984 . S
H733 N726 0.984 . S
H734 N722 0.984 . S
H735 N722 0.985 1_545 S
C736 C737 1.363 1_455 S
C736 C742 1.379 1_556 S
C736 N744 1.356 . S
C737 C736 1.363 1_655 S
C737 C743 1.363 . S
C738 C739 1.363 1_655 S
C738 C743 1.379 1_554 S
C738 N745 1.356 . S
C739 C738 1.363 1_455 S
C739 C742 1.363 . S
N740 C742 1.356 . S
N740 H752 0.984 . S
N740 H753 0.985 . S
N741 C743 1.356 . S
N741 H746 0.984 . S
N741 H747 0.985 . S
C742 C736 1.379 1_554 S
C742 C739 1.363 . S
C742 N740 1.356 . S
C743 C737 1.363 . S
C743 C738 1.379 1_556 S
C743 N741 1.356 . S
N744 C736 1.356 . S
N744 H750 0.984 1_556 S
N744 H751 0.984 1_455 S
N745 C738 1.356 . S
N745 H748 0.984 1_655 S
N745 H749 0.985 1_554 S
H746 N741 0.984 . S
H747 N741 0.985 . S
H748 N745 0.984 1_455 S
H749 N745 0.985 1_556 S
H750 N744 0.984 1_554 S
H751 N744 0.984 1_655 S
H752 N740 0.984 . S
H753 N740 0.985 . S
C754 C755 1.363 . S
C754 C760 1.379 1_556 S
C754 N762 1.356 . S
C755 C754 1.363 . S
C755 C761 1.363 . S
C756 C757 1.363 . S
C756 C761 1.379 1_554 S
C756 N763 1.356 . S
C757 C756 1.363 . S
C757 C760 1.363 . S
N758 C760 1.356 . S
N758 H770 0.984 . S
N758 H771 0.985 . S
N759 C761 1.356 . S
N759 H764 0.984 . S
N759 H765 0.985 . S
C760 C754 1.379 1_554 S
C760 C757 1.363 . S
C760 N758 1.356 . S
C761 C755 1.363 . S
C761 C756 1.379 1_556 S
C761 N759 1.356 . S
N762 C754 1.356 . S
N762 H768 0.984 . S
N762 H769 0.984 . S
N763 C756 1.356 . S
N763 H766 0.984 . S
N763 H767 0.985 . S
H764 N759 0.984 . S
H765 N759 0.985 . S
H766 N763 0.984 . S
H767 N763 0.985 . S
H768 N762 0.984 . S
H769 N762 0.984 . S
H770 N758 0.984 . S
H771 N758 0.985 . S
C772 C773 1.363 . S
C772 C778 1.379 . S
C772 N780 1.356 . S
C773 C772 1.363 . S
C773 C779 1.363 1_455 S
C774 C775 1.363 . S
C774 C779 1.379 . S
C774 N781 1.356 . S
C775 C774 1.363 . S
C775 C778 1.363 1_655 S
N776 C778 1.352 1_655 S
N776 H788 0.964 1_655 S
N776 H789 1.012 . S
N777 C779 1.352 1_455 S
N777 H782 1.012 . S
N777 H783 0.964 1_455 S
C778 C772 1.379 . S
C778 C775 1.363 1_455 S
C778 N776 1.352 1_455 S
C779 C773 1.363 1_655 S
C779 C774 1.379 . S
C779 N777 1.352 1_655 S
N780 C772 1.356 . S
N780 H786 0.984 . S
N780 H787 0.984 . S
N781 C774 1.356 . S
N781 H784 0.984 . S
N781 H785 0.985 . S
H782 N777 1.012 . S
H783 N777 0.964 1_655 S
H784 N781 0.984 . S
H785 N781 0.985 . S
H786 N780 0.984 . S
H787 N780 0.984 . S
H788 N776 0.964 1_455 S
H789 N776 1.012 . S
C790 C791 1.363 . S
C790 C796 1.379 . S
C790 N798 1.356 . S
C791 C790 1.363 . S
C791 C797 1.363 . S
C792 C793 1.363 . S
C792 C797 1.379 . S
C792 N799 1.356 . S
C793 C792 1.363 . S
C793 C796 1.363 . S
N794 C796 1.356 . S
N794 H806 0.984 . S
N794 H807 0.985 . S
N795 C797 1.356 . S
N795 H800 0.984 . S
N795 H801 0.985 . S
C796 C790 1.379 . S
C796 C793 1.363 . S
C796 N794 1.356 . S
C797 C791 1.363 . S
C797 C792 1.379 . S
C797 N795 1.356 . S
N798 C790 1.356 . S
N798 H804 0.984 . S
N798 H805 0.984 . S
N799 C792 1.356 . S
N799 H802 0.984 . S
N799 H803 0.985 . S
H800 N795 0.984 . S
H801 N795 0.985 . S
H802 N799 0.984 . S
H803 N799 0.985 . S
H804 N798 0.984 . S
H805 N798 0.984 . S
H806 N794 0.984 . S
H807 N794 0.985 . S
C808 C809 1.363 1_554 S
C808 C814 1.379 . S
C808 N816 1.356 . S
C809 C808 1.363 1_556 S
C809 C815 1.363 . S
C810 C811 1.363 1_556 S
C810 C815 1.379 . S
C810 N817 1.356 . S
C811 C810 1.363 1_554 S
C811 C814 1.363 . S
N812 C814 1.356 . S
N812 H824 0.984 . S
N812 H825 0.985 . S
N813 C815 1.356 . S
N813 H818 0.984 . S
N813 H819 0.985 . S
C814 C808 1.379 . S
C814 C811 1.363 . S
C814 N812 1.356 . S
C815 C809 1.363 . S
C815 C810 1.379 . S
C815 N813 1.356 . S
N816 C808 1.356 . S
N816 H822 0.984 . S
N816 H823 0.984 1_554 S
N817 C810 1.356 . S
N817 H820 0.984 1_556 S
N817 H821 0.985 . S
H818 N813 0.984 . S
H819 N813 0.985 . S
H820 N817 0.984 1_554 S
H821 N817 0.985 . S
H822 N816 0.984 . S
H823 N816 0.984 1_556 S
H824 N812 0.984 . S
H825 N812 0.985 . S
C826 C827 1.363 1_455 S
C826 C832 1.379 . S
C826 N834 1.356 . S
C827 C826 1.363 1_655 S
C827 C833 1.363 . S
C828 C829 1.363 1_655 S
C828 C833 1.379 . S
C828 N835 1.356 . S
C829 C828 1.363 1_455 S
C829 C832 1.363 . S
N830 C832 1.356 . S
N830 H842 0.984 . S
N830 H843 0.985 . S
N831 C833 1.356 . S
N831 H836 0.984 . S
N831 H837 0.985 . S
C832 C826 1.379 . S
C832 C829 1.363 . S
C832 N830 1.356 . S
C833 C827 1.363 . S
C833 C828 1.379 . S
C833 N831 1.356 . S
N834 C826 1.356 . S
N834 H840 0.984 . S
N834 H841 0.984 1_455 S
N835 C828 1.356 . S
N835 H838 0.984 1_655 S
N835 H839 0.985 . S
H836 N831 0.984 . S
H837 N831 0.985 . S
H838 N835 0.984 1_455 S
H839 N835 0.985 . S
H840 N834 0.984 . S
H841 N834 0.984 1_655 S
H842 N830 0.984 . S
H843 N830 0.985 . S
C844 C845 1.363 . S
C844 C850 1.379 . S
C844 N852 1.356 . S
C845 C844 1.363 . S
C845 C851 1.363 . S
C846 C847 1.363 . S
C846 C851 1.379 . S
C846 N853 1.356 . S
C847 C846 1.363 . S
C847 C850 1.363 . S
N848 C850 1.356 . S
N848 H860 0.984 . S
N848 H861 0.985 . S
N849 C851 1.356 . S
N849 H854 0.984 . S
N849 H855 0.985 . S
C850 C844 1.379 . S
C850 C847 1.363 . S
C850 N848 1.356 . S
C851 C845 1.363 . S
C851 C846 1.379 . S
C851 N849 1.356 . S
N852 C844 1.356 . S
N852 H858 0.984 . S
N852 H859 0.984 . S
N853 C846 1.356 . S
N853 H856 0.984 . S
N853 H857 0.985 . S
H854 N849 0.984 . S
H855 N849 0.985 . S
H856 N853 0.984 . S
H857 N853 0.985 . S
H858 N852 0.984 . S
H859 N852 0.984 . S
H860 N848 0.984 . S
H861 N848 0.985 . S
C862 C863 1.363 1_465 S
C862 C868 1.379 . S
C862 N870 1.356 1_565 S
C863 C862 1.363 1_645 S
C863 C869 1.363 . S
C864 C865 1.363 1_645 S
C864 C869 1.379 . S
C864 N871 1.356 1_545 S
C865 C864 1.363 1_465 S
C865 C868 1.363 . S
N866 C868 1.356 . S
N866 H878 0.984 . S
N866 H879 0.985 . S
N867 C869 1.356 . S
N867 H872 0.984 . S
N867 H873 0.985 . S
C868 C862 1.379 . S
C868 C865 1.363 . S
C868 N866 1.356 . S
C869 C863 1.363 . S
C869 C864 1.379 . S
C869 N867 1.356 . S
N870 C862 1.356 1_545 S
N870 H876 0.984 1_545 S
N870 H877 0.984 1_455 S
N871 C864 1.356 1_565 S
N871 H874 0.984 1_655 S
N871 H875 0.985 1_565 S
H872 N867 0.984 . S
H873 N867 0.985 . S
H874 N871 0.984 1_455 S
H875 N871 0.985 1_545 S
H876 N870 0.984 1_565 S
H877 N870 0.984 1_655 S
H878 N866 0.984 . S
H879 N866 0.985 . S
C880 C881 1.363 . S
C880 C886 1.379 . S
C880 N888 1.356 . S
C881 C880 1.363 . S
C881 C887 1.363 . S
C882 C883 1.363 . S
C882 C887 1.379 . S
C882 N889 1.356 . S
C883 C882 1.363 . S
C883 C886 1.363 . S
N884 C886 1.356 . S
N884 H896 0.984 . S
N884 H897 0.985 . S
N885 C887 1.356 . S
N885 H890 0.984 . S
N885 H891 0.985 . S
C886 C880 1.379 . S
C886 C883 1.363 . S
C886 N884 1.356 . S
C887 C881 1.363 . S
C887 C882 1.379 . S
C887 N885 1.356 . S
N888 C880 1.356 . S
N888 H894 0.984 . S
N888 H895 0.984 . S
N889 C882 1.356 . S
N889 H892 0.984 . S
N889 H893 0.985 . S
H890 N885 0.984 . S
H891 N885 0.985 . S
H892 N889 0.984 . S
H893 N889 0.985 . S
H894 N888 0.984 . S
H895 N888 0.984 . S
H896 N884 0.984 . S
H897 N884 0.985 . S
C898 C899 1.363 1_545 S
C898 C904 1.379 . S
C898 N906 1.356 . S
C899 C898 1.363 1_565 S
C899 C905 1.363 . S
C900 C901 1.363 1_565 S
C900 C905 1.379 . S
C900 N907 1.356 . S
C901 C900 1.363 1_545 S
C901 C904 1.363 . S
N902 C904 1.356 . S
N902 H914 0.984 . S
N902 H915 0.985 . S
N903 C905 1.356 . S
N903 H908 0.984 . S
N903 H909 0.985 . S
C904 C898 1.379 . S
C904 C901 1.363 . S
C904 N902 1.356 . S
C905 C899 1.363 . S
C905 C900 1.379 . S
C905 N903 1.356 . S
N906 C898 1.356 . S
N906 H912 0.984 . S
N906 H913 0.984 1_545 S
N907 C900 1.356 . S
N907 H910 0.984 1_565 S
N907 H911 0.985 . S
H908 N903 0.984 . S
H909 N903 0.985 . S
H910 N907 0.984 1_545 S
H911 N907 0.985 . S
H912 N906 0.984 . S
H913 N906 0.984 1_565 S
H914 N902 0.984 . S
H915 N902 0.985 . S
C916 C917 1.363 . S
C916 C922 1.379 . S
C916 N924 1.356 . S
C917 C916 1.363 . S
C917 C923 1.363 . S
C918 C919 1.363 . S
C918 C923 1.379 . S
C918 N925 1.356 . S
C919 C918 1.363 . S
C919 C922 1.363 . S
N920 C922 1.356 . S
N920 H932 0.984 . S
N920 H933 0.985 . S
N921 C923 1.356 . S
N921 H926 0.984 . S
N921 H927 0.985 . S
C922 C916 1.379 . S
C922 C919 1.363 . S
C922 N920 1.356 . S
C923 C917 1.363 . S
C923 C918 1.379 . S
C923 N921 1.356 . S
N924 C916 1.356 . S
N924 H930 0.984 . S
N924 H931 0.984 . S
N925 C918 1.356 . S
N925 H928 0.984 . S
N925 H929 0.985 . S
H926 N921 0.984 . S
H927 N921 0.985 . S
H928 N925 0.984 . S
H929 N925 0.985 . S
H930 N924 0.984 . S
H931 N924 0.984 . S
H932 N920 0.984 . S
H933 N920 0.985 . S
C934 C935 1.363 . S
C934 C940 1.379 1_565 S
C934 N942 1.356 . S
C935 C934 1.363 . S
C935 C941 1.363 . S
C936 C937 1.363 . S
C936 C941 1.379 1_545 S
C936 N943 1.356 . S
C937 C936 1.363 . S
C937 C940 1.363 . S
N938 C940 1.356 . S
N938 H950 0.984 1_545 S
N938 H951 0.985 . S
N939 C941 1.356 . S
N939 H944 0.984 . S
N939 H945 0.985 1_565 S
C940 C934 1.379 1_545 S
C940 C937 1.363 . S
C940 N938 1.356 . S
C941 C935 1.363 . S
C941 C936 1.379 1_565 S
C941 N939 1.356 . S
N942 C934 1.356 . S
N942 H948 0.984 . S
N942 H949 0.984 . S
N943 C936 1.356 . S
N943 H946 0.984 . S
N943 H947 0.985 . S
H944 N939 0.984 . S
H945 N939 0.985 1_545 S
H946 N943 0.984 . S
H947 N943 0.985 . S
H948 N942 0.984 . S
H949 N942 0.984 . S
H950 N938 0.984 1_565 S
H951 N938 0.985 . S
C952 C953 1.363 . S
C952 C958 1.379 . S
C952 N960 1.356 . S
C953 C952 1.363 . S
C953 C959 1.363 . S
C954 C955 1.363 . S
C954 C959 1.379 . S
C954 N961 1.356 . S
C955 C954 1.363 . S
C955 C958 1.363 . S
N956 C958 1.356 . S
N956 H968 0.984 . S
N956 H969 0.985 . S
N957 C959 1.356 . S
N957 H962 0.984 . S
N957 H963 0.985 . S
C958 C952 1.379 . S
C958 C955 1.363 . S
C958 N956 1.356 . S
C959 C953 1.363 . S
C959 C954 1.379 . S
C959 N957 1.356 . S
N960 C952 1.356 . S
N960 H966 0.984 . S
N960 H967 0.984 . S
N961 C954 1.356 . S
N961 H964 0.984 . S
N961 H965 0.985 . S
H962 N957 0.984 . S
H963 N957 0.985 . S
H964 N961 0.984 . S
H965 N961 0.985 . S
H966 N960 0.984 . S
H967 N960 0.984 . S
H968 N956 0.984 . S
H969 N956 0.985 . S
C970 C971 1.363 . S
C970 C976 1.379 . S
C970 N978 1.356 . S
C971 C970 1.363 . S
C971 C977 1.363 . S
C972 C973 1.363 . S
C972 C977 1.379 . S
C972 N979 1.356 . S
C973 C972 1.363 . S
C973 C976 1.363 . S
N974 C976 1.356 . S
N974 H986 0.984 . S
N974 H987 0.985 . S
N975 C977 1.356 . S
N975 H980 0.984 . S
N975 H981 0.985 . S
C976 C970 1.379 . S
C976 C973 1.363 . S
C976 N974 1.356 . S
C977 C971 1.363 . S
C977 C972 1.379 . S
C977 N975 1.356 . S
N978 C970 1.356 . S
N978 H984 0.984 . S
N978 H985 0.984 . S
N979 C972 1.356 . S
N979 H982 0.984 . S
N979 H983 0.985 . S
H980 N975 0.984 . S
H981 N975 0.985 . S
H982 N979 0.984 . S
H983 N979 0.985 . S
H984 N978 0.984 . S
H985 N978 0.984 . S
H986 N974 0.984 . S
H987 N974 0.985 . S
C988 C989 1.363 . S
C988 C994 1.379 . S
C988 N996 1.356 . S
C989 C988 1.363 . S
C989 C995 1.363 . S
C990 C991 1.363 . S
C990 C995 1.379 . S
C990 N997 1.356 . S
C991 C990 1.363 . S
C991 C994 1.363 . S
N992 C994 1.356 . S
N992 H1004 0.984 . S
N992 H1005 0.985 . S
N993 C995 1.356 . S
N993 H998 0.984 . S
N993 H999 0.985 . S
C994 C988 1.379 . S
C994 C991 1.363 . S
C994 N992 1.356 . S
C995 C989 1.363 . S
C995 C990 1.379 . S
C995 N993 1.356 . S
N996 C988 1.356 . S
N996 H1002 0.984 . S
N996 H1003 0.984 . S
N997 C990 1.356 . S
N997 H1000 0.984 . S
N997 H1001 0.985 . S
H998 N993 0.984 . S
H999 N993 0.985 . S
H1000 N997 0.984 . S
H1001 N997 0.985 . S
H1002 N996 0.984 . S
H1003 N996 0.984 . S
H1004 N992 0.984 . S
H1005 N992 0.985 . S
C1006 C1007 1.363 1_565 S
C1006 C1012 1.379 . S
C1006 N1014 1.356 . S
C1007 C1006 1.363 1_545 S
C1007 C1013 1.363 1_556 S
C1008 C1009 1.363 1_545 S
C1008 C1013 1.379 . S
C1008 N1015 1.356 . S
C1009 C1008 1.363 1_565 S
C1009 C1012 1.363 1_554 S
N1010 C1012 1.354 1_554 S
N1010 H1022 0.973 1_554 S
N1010 H1023 0.998 . S
N1011 C1013 1.354 1_556 S
N1011 H1016 0.998 . S
N1011 H1017 0.973 1_556 S
C1012 C1006 1.379 . S
C1012 C1009 1.363 1_556 S
C1012 N1010 1.354 1_556 S
C1013 C1007 1.363 1_554 S
C1013 C1008 1.379 . S
C1013 N1011 1.354 1_554 S
N1014 C1006 1.356 . S
N1014 H1020 0.984 . S
N1014 H1021 0.984 1_565 S
N1015 C1008 1.356 . S
N1015 H1018 0.984 1_545 S
N1015 H1019 0.985 . S
H1016 N1011 0.998 . S
H1017 N1011 0.973 1_554 S
H1018 N1015 0.984 1_565 S
H1019 N1015 0.985 . S
H1020 N1014 0.984 . S
H1021 N1014 0.984 1_545 S
H1022 N1010 0.973 1_556 S
H1023 N1010 0.998 . S
C1024 C1025 1.363 . S
C1024 C1030 1.379 . S
C1024 N1032 1.356 . S
C1025 C1024 1.363 . S
C1025 C1031 1.363 . S
C1026 C1027 1.363 . S
C1026 C1031 1.379 . S
C1026 N1033 1.356 . S
C1027 C1026 1.363 . S
C1027 C1030 1.363 . S
N1028 C1030 1.356 . S
N1028 H1040 0.984 . S
N1028 H1041 0.985 . S
N1029 C1031 1.356 . S
N1029 H1034 0.984 . S
N1029 H1035 0.985 . S
C1030 C1024 1.379 . S
C1030 C1027 1.363 . S
C1030 N1028 1.356 . S
C1031 C1025 1.363 . S
C1031 C1026 1.379 . S
C1031 N1029 1.356 . S
N1032 C1024 1.356 . S
N1032 H1038 0.984 . S
N1032 H1039 0.984 . S
N1033 C1026 1.356 . S
N1033 H1036 0.984 . S
N1033 H1037 0.985 . S
H1034 N1029 0.984 . S
H1035 N1029 0.985 . S
H1036 N1033 0.984 . S
H1037 N1033 0.985 . S
H1038 N1032 0.984 . S
H1039 N1032 0.984 . S
H1040 N1028 0.984 . S
H1041 N1028 0.985 . S
C1042 C1043 1.363 . S
C1042 C1048 1.379 . S
C1042 N1050 1.356 . S
C1043 C1042 1.363 . S
C1043 C1049 1.363 . S
C1044 C1045 1.363 . S
C1044 C1049 1.379 . S
C1044 N1051 1.356 . S
C1045 C1044 1.363 . S
C1045 C1048 1.363 . S
N1046 C1048 1.356 . S
N1046 H1058 0.984 . S
N1046 H1059 0.985 . S
N1047 C1049 1.356 . S
N1047 H1052 0.984 . S
N1047 H1053 0.985 . S
C1048 C1042 1.379 . S
C1048 C1045 1.363 . S
C1048 N1046 1.356 . S
C1049 C1043 1.363 . S
C1049 C1044 1.379 . S
C1049 N1047 1.356 . S
N1050 C1042 1.356 . S
N1050 H1056 0.984 . S
N1050 H1057 0.984 . S
N1051 C1044 1.356 . S
N1051 H1054 0.984 . S
N1051 H1055 0.985 . S
H1052 N1047 0.984 . S
H1053 N1047 0.985 . S
H1054 N1051 0.984 . S
H1055 N1051 0.985 . S
H1056 N1050 0.984 . S
H1057 N1050 0.984 . S
H1058 N1046 0.984 . S
H1059 N1046 0.985 . S
C1060 C1061 1.363 . S
C1060 C1066 1.379 . S
C1060 N1068 1.356 . S
C1061 C1060 1.363 . S
C1061 C1067 1.363 . S
C1062 C1063 1.363 . S
C1062 C1067 1.379 . S
C1062 N1069 1.356 . S
C1063 C1062 1.363 . S
C1063 C1066 1.363 . S
N1064 C1066 1.356 . S
N1064 H1076 0.984 . S
N1064 H1077 0.985 . S
N1065 C1067 1.356 . S
N1065 H1070 0.984 . S
N1065 H1071 0.985 . S
C1066 C1060 1.379 . S
C1066 C1063 1.363 . S
C1066 N1064 1.356 . S
C1067 C1061 1.363 . S
C1067 C1062 1.379 . S
C1067 N1065 1.356 . S
N1068 C1060 1.356 . S
N1068 H1074 0.984 . S
N1068 H1075 0.984 . S
N1069 C1062 1.356 . S
N1069 H1072 0.984 . S
N1069 H1073 0.985 . S
H1070 N1065 0.984 . S
H1071 N1065 0.985 . S
H1072 N1069 0.984 . S
H1073 N1069 0.985 . S
H1074 N1068 0.984 . S
H1075 N1068 0.984 . S
H1076 N1064 0.984 . S
H1077 N1064 0.985 . S
C1078 C1079 1.363 . S
C1078 C1084 1.379 . S
C1078 N1086 1.356 . S
C1079 C1078 1.363 . S
C1079 C1085 1.363 . S
C1080 C1081 1.363 . S
C1080 C1085 1.379 . S
C1080 N1087 1.356 . S
C1081 C1080 1.363 . S
C1081 C1084 1.363 . S
N1082 C1084 1.356 . S
N1082 H1094 0.984 . S
N1082 H1095 0.985 . S
N1083 C1085 1.356 . S
N1083 H1088 0.984 . S
N1083 H1089 0.985 . S
C1084 C1078 1.379 . S
C1084 C1081 1.363 . S
C1084 N1082 1.356 . S
C1085 C1079 1.363 . S
C1085 C1080 1.379 . S
C1085 N1083 1.356 . S
N1086 C1078 1.356 . S
N1086 H1092 0.984 . S
N1086 H1093 0.984 . S
N1087 C1080 1.356 . S
N1087 H1090 0.984 . S
N1087 H1091 0.985 . S
H1088 N1083 0.984 . S
H1089 N1083 0.985 . S
H1090 N1087 0.984 . S
H1091 N1087 0.985 . S
H1092 N1086 0.984 . S
H1093 N1086 0.984 . S
H1094 N1082 0.984 . S
H1095 N1082 0.985 . S
C1096 C1097 1.363 . S
C1096 C1102 1.379 . S
C1096 N1104 1.356 . S
C1097 C1096 1.363 . S
C1097 C1103 1.363 . S
C1098 C1099 1.363 . S
C1098 C1103 1.379 . S
C1098 N1105 1.356 . S
C1099 C1098 1.363 . S
C1099 C1102 1.363 . S
N1100 C1102 1.356 . S
N1100 H1112 0.984 1_565 S
N1100 H1113 0.985 . S
N1101 C1103 1.356 . S
N1101 H1106 0.984 . S
N1101 H1107 0.985 . S
C1102 C1096 1.379 . S
C1102 C1099 1.363 . S
C1102 N1100 1.356 . S
C1103 C1097 1.363 . S
C1103 C1098 1.379 . S
C1103 N1101 1.356 . S
N1104 C1096 1.356 . S
N1104 H1110 0.984 1_565 S
N1104 H1111 0.984 . S
N1105 C1098 1.356 . S
N1105 H1108 0.984 . S
N1105 H1109 0.985 . S
H1106 N1101 0.984 . S
H1107 N1101 0.985 . S
H1108 N1105 0.984 . S
H1109 N1105 0.985 . S
H1110 N1104 0.984 1_545 S
H1111 N1104 0.984 . S
H1112 N1100 0.984 1_545 S
H1113 N1100 0.985 . S
C1114 C1115 1.363 . S
C1114 C1120 1.379 . S
C1114 N1122 1.356 . S
C1115 C1114 1.363 . S
C1115 C1121 1.363 . S
C1116 C1117 1.363 . S
C1116 C1121 1.379 . S
C1116 N1123 1.356 . S
C1117 C1116 1.363 . S
C1117 C1120 1.363 . S
N1118 C1120 1.356 . S
N1118 H1130 0.984 . S
N1118 H1131 0.985 . S
N1119 C1121 1.356 . S
N1119 H1124 0.984 . S
N1119 H1125 0.985 . S
C1120 C1114 1.379 . S
C1120 C1117 1.363 . S
C1120 N1118 1.356 . S
C1121 C1115 1.363 . S
C1121 C1116 1.379 . S
C1121 N1119 1.356 . S
N1122 C1114 1.356 . S
N1122 H1128 0.984 . S
N1122 H1129 0.984 . S
N1123 C1116 1.356 . S
N1123 H1126 0.984 . S
N1123 H1127 0.985 . S
H1124 N1119 0.984 . S
H1125 N1119 0.985 . S
H1126 N1123 0.984 . S
H1127 N1123 0.985 . S
H1128 N1122 0.984 . S
H1129 N1122 0.984 . S
H1130 N1118 0.984 . S
H1131 N1118 0.985 . S
C1132 C1133 1.363 . S
C1132 C1138 1.379 . S
C1132 N1140 1.356 . S
C1133 C1132 1.363 . S
C1133 C1139 1.363 . S
C1134 C1135 1.363 . S
C1134 C1139 1.379 . S
C1134 N1141 1.356 . S
C1135 C1134 1.363 . S
C1135 C1138 1.363 . S
N1136 C1138 1.356 . S
N1136 H1148 0.984 . S
N1136 H1149 0.985 . S
N1137 C1139 1.356 . S
N1137 H1142 0.984 . S
N1137 H1143 0.985 1_545 S
C1138 C1132 1.379 . S
C1138 C1135 1.363 . S
C1138 N1136 1.356 . S
C1139 C1133 1.363 . S
C1139 C1134 1.379 . S
C1139 N1137 1.356 . S
N1140 C1132 1.356 . S
N1140 H1146 0.984 . S
N1140 H1147 0.984 . S
N1141 C1134 1.356 . S
N1141 H1144 0.984 . S
N1141 H1145 0.985 1_545 S
H1142 N1137 0.984 . S
H1143 N1137 0.985 1_565 S
H1144 N1141 0.984 . S
H1145 N1141 0.985 1_565 S
H1146 N1140 0.984 . S
H1147 N1140 0.984 . S
H1148 N1136 0.984 . S
H1149 N1136 0.985 . S
C1150 C1151 1.363 . S
C1150 C1156 1.379 . S
C1150 N1158 1.356 . S
C1151 C1150 1.363 . S
C1151 C1157 1.363 . S
C1152 C1153 1.363 . S
C1152 C1157 1.379 . S
C1152 N1159 1.356 . S
C1153 C1152 1.363 . S
C1153 C1156 1.363 . S
N1154 C1156 1.356 . S
N1154 H1166 0.984 . S
N1154 H1167 0.985 . S
N1155 C1157 1.356 . S
N1155 H1160 0.984 . S
N1155 H1161 0.985 . S
C1156 C1150 1.379 . S
C1156 C1153 1.363 . S
C1156 N1154 1.356 . S
C1157 C1151 1.363 . S
C1157 C1152 1.379 . S
C1157 N1155 1.356 . S
N1158 C1150 1.356 . S
N1158 H1164 0.984 . S
N1158 H1165 0.984 . S
N1159 C1152 1.356 . S
N1159 H1162 0.984 . S
N1159 H1163 0.985 . S
H1160 N1155 0.984 . S
H1161 N1155 0.985 . S
H1162 N1159 0.984 . S
H1163 N1159 0.985 . S
H1164 N1158 0.984 . S
H1165 N1158 0.984 . S
H1166 N1154 0.984 . S
H1167 N1154 0.985 . S
C1168 C1169 1.363 . S
C1168 C1174 1.379 . S
C1168 N1176 1.356 . S
C1169 C1168 1.363 . S
C1169 C1175 1.363 . S
C1170 C1171 1.363 . S
C1170 C1175 1.379 . S
C1170 N1177 1.356 . S
C1171 C1170 1.363 . S
C1171 C1174 1.363 . S
N1172 C1174 1.356 . S
N1172 H1184 0.984 . S
N1172 H1185 0.985 . S
N1173 C1175 1.356 . S
N1173 H1178 0.984 . S
N1173 H1179 0.985 . S
C1174 C1168 1.379 . S
C1174 C1171 1.363 . S
C1174 N1172 1.356 . S
C1175 C1169 1.363 . S
C1175 C1170 1.379 . S
C1175 N1173 1.356 . S
N1176 C1168 1.356 . S
N1176 H1182 0.984 . S
N1176 H1183 0.984 . S
N1177 C1170 1.356 . S
N1177 H1180 0.984 . S
N1177 H1181 0.985 . S
H1178 N1173 0.984 . S
H1179 N1173 0.985 . S
H1180 N1177 0.984 . S
H1181 N1177 0.985 . S
H1182 N1176 0.984 . S
H1183 N1176 0.984 . S
H1184 N1172 0.984 . S
H1185 N1172 0.985 . S
C1186 C1187 1.363 . S
C1186 C1192 1.379 . S
C1186 N1194 1.356 . S
C1187 C1186 1.363 . S
C1187 C1193 1.363 . S
C1188 C1189 1.363 . S
C1188 C1193 1.379 . S
C1188 N1195 1.356 . S
C1189 C1188 1.363 . S
C1189 C1192 1.363 . S
N1190 C1192 1.356 . S
N1190 H1202 0.984 . S
N1190 H1203 0.985 . S
N1191 C1193 1.356 . S
N1191 H1196 0.984 . S
N1191 H1197 0.985 . S
C1192 C1186 1.379 . S
C1192 C1189 1.363 . S
C1192 N1190 1.356 . S
C1193 C1187 1.363 . S
C1193 C1188 1.379 . S
C1193 N1191 1.356 . S
N1194 C1186 1.356 . S
N1194 H1200 0.984 . S
N1194 H1201 0.984 . S
N1195 C1188 1.356 . S
N1195 H1198 0.984 . S
N1195 H1199 0.985 . S
H1196 N1191 0.984 . S
H1197 N1191 0.985 . S
H1198 N1195 0.984 . S
H1199 N1195 0.985 . S
H1200 N1194 0.984 . S
H1201 N1194 0.984 . S
H1202 N1190 0.984 . S
H1203 N1190 0.985 . S
C1204 C1205 1.363 . S
C1204 C1210 1.379 . S
C1204 N1212 1.356 . S
C1205 C1204 1.363 . S
C1205 C1211 1.363 . S
C1206 C1207 1.363 . S
C1206 C1211 1.379 . S
C1206 N1213 1.356 . S
C1207 C1206 1.363 . S
C1207 C1210 1.363 . S
N1208 C1210 1.356 . S
N1208 H1220 0.984 . S
N1208 H1221 0.985 . S
N1209 C1211 1.356 . S
N1209 H1214 0.984 . S
N1209 H1215 0.985 . S
C1210 C1204 1.379 . S
C1210 C1207 1.363 . S
C1210 N1208 1.356 . S
C1211 C1205 1.363 . S
C1211 C1206 1.379 . S
C1211 N1209 1.356 . S
N1212 C1204 1.356 . S
N1212 H1218 0.984 . S
N1212 H1219 0.984 . S
N1213 C1206 1.356 . S
N1213 H1216 0.984 . S
N1213 H1217 0.985 . S
H1214 N1209 0.984 . S
H1215 N1209 0.985 . S
H1216 N1213 0.984 . S
H1217 N1213 0.985 . S
H1218 N1212 0.984 . S
H1219 N1212 0.984 . S
H1220 N1208 0.984 . S
H1221 N1208 0.985 . S
C1222 C1223 1.363 . S
C1222 C1228 1.379 . S
C1222 N1230 1.356 . S
C1223 C1222 1.363 . S
C1223 C1229 1.363 . S
C1224 C1225 1.363 . S
C1224 C1229 1.379 . S
C1224 N1231 1.356 . S
C1225 C1224 1.363 . S
C1225 C1228 1.363 . S
N1226 C1228 1.356 . S
N1226 H1238 0.984 . S
N1226 H1239 0.985 . S
N1227 C1229 1.356 . S
N1227 H1232 0.984 . S
N1227 H1233 0.985 . S
C1228 C1222 1.379 . S
C1228 C1225 1.363 . S
C1228 N1226 1.356 . S
C1229 C1223 1.363 . S
C1229 C1224 1.379 . S
C1229 N1227 1.356 . S
N1230 C1222 1.356 . S
N1230 H1236 0.984 . S
N1230 H1237 0.984 . S
N1231 C1224 1.356 . S
N1231 H1234 0.984 . S
N1231 H1235 0.985 . S
H1232 N1227 0.984 . S
H1233 N1227 0.985 . S
H1234 N1231 0.984 . S
H1235 N1231 0.985 . S
H1236 N1230 0.984 . S
H1237 N1230 0.984 . S
H1238 N1226 0.984 . S
H1239 N1226 0.985 . S
C1240 C1241 1.363 . S
C1240 C1246 1.379 . S
C1240 N1248 1.356 . S
C1241 C1240 1.363 . S
C1241 C1247 1.363 . S
C1242 C1243 1.363 . S
C1242 C1247 1.379 . S
C1242 N1249 1.356 . S
C1243 C1242 1.363 . S
C1243 C1246 1.363 . S
N1244 C1246 1.356 . S
N1244 H1256 0.984 . S
N1244 H1257 0.985 . S
N1245 C1247 1.356 . S
N1245 H1250 0.984 . S
N1245 H1251 0.985 1_565 S
C1246 C1240 1.379 . S
C1246 C1243 1.363 . S
C1246 N1244 1.356 . S
C1247 C1241 1.363 . S
C1247 C1242 1.379 . S
C1247 N1245 1.356 . S
N1248 C1240 1.356 . S
N1248 H1254 0.984 . S
N1248 H1255 0.984 . S
N1249 C1242 1.356 . S
N1249 H1252 0.984 . S
N1249 H1253 0.985 1_565 S
H1250 N1245 0.984 . S
H1251 N1245 0.985 1_545 S
H1252 N1249 0.984 . S
H1253 N1249 0.985 1_545 S
H1254 N1248 0.984 . S
H1255 N1248 0.984 . S
H1256 N1244 0.984 . S
H1257 N1244 0.985 . S
C1258 C1259 1.363 . S
C1258 C1264 1.379 . S
C1258 N1266 1.356 . S
C1259 C1258 1.363 . S
C1259 C1265 1.363 . S
C1260 C1261 1.363 . S
C1260 C1265 1.379 . S
C1260 N1267 1.356 . S
C1261 C1260 1.363 . S
C1261 C1264 1.363 . S
N1262 C1264 1.356 . S
N1262 H1274 0.984 . S
N1262 H1275 0.985 . S
N1263 C1265 1.356 . S
N1263 H1268 0.984 . S
N1263 H1269 0.985 . S
C1264 C1258 1.379 . S
C1264 C1261 1.363 . S
C1264 N1262 1.356 . S
C1265 C1259 1.363 . S
C1265 C1260 1.379 . S
C1265 N1263 1.356 . S
N1266 C1258 1.356 . S
N1266 H1272 0.984 . S
N1266 H1273 0.984 . S
N1267 C1260 1.356 . S
N1267 H1270 0.984 . S
N1267 H1271 0.985 . S
H1268 N1263 0.984 . S
H1269 N1263 0.985 . S
H1270 N1267 0.984 . S
H1271 N1267 0.985 . S
H1272 N1266 0.984 . S
H1273 N1266 0.984 . S
H1274 N1262 0.984 . S
H1275 N1262 0.985 . S
C1276 C1277 1.363 . S
C1276 C1282 1.379 . S
C1276 N1284 1.356 . S
C1277 C1276 1.363 . S
C1277 C1283 1.363 . S
C1278 C1279 1.363 . S
C1278 C1283 1.379 . S
C1278 N1285 1.356 . S
C1279 C1278 1.363 . S
C1279 C1282 1.363 . S
N1280 C1282 1.356 . S
N1280 H1292 0.984 1_545 S
N1280 H1293 0.985 . S
N1281 C1283 1.356 . S
N1281 H1286 0.984 . S
N1281 H1287 0.985 . S
C1282 C1276 1.379 . S
C1282 C1279 1.363 . S
C1282 N1280 1.356 . S
C1283 C1277 1.363 . S
C1283 C1278 1.379 . S
C1283 N1281 1.356 . S
N1284 C1276 1.356 . S
N1284 H1290 0.984 1_545 S
N1284 H1291 0.984 . S
N1285 C1278 1.356 . S
N1285 H1288 0.984 . S
N1285 H1289 0.985 . S
H1286 N1281 0.984 . S
H1287 N1281 0.985 . S
H1288 N1285 0.984 . S
H1289 N1285 0.985 . S
H1290 N1284 0.984 1_565 S
H1291 N1284 0.984 . S
H1292 N1280 0.984 1_565 S
H1293 N1280 0.985 . S
C1294 C1295 1.363 . S
C1294 C1300 1.379 . S
C1294 N1302 1.356 . S
C1295 C1294 1.363 . S
C1295 C1301 1.363 . S
C1296 C1297 1.363 . S
C1296 C1301 1.379 . S
C1296 N1303 1.356 . S
C1297 C1296 1.363 . S
C1297 C1300 1.363 . S
N1298 C1300 1.356 . S
N1298 H1310 0.984 . S
N1298 H1311 0.985 . S
N1299 C1301 1.356 . S
N1299 H1304 0.984 . S
N1299 H1305 0.985 . S
C1300 C1294 1.379 . S
C1300 C1297 1.363 . S
C1300 N1298 1.356 . S
C1301 C1295 1.363 . S
C1301 C1296 1.379 . S
C1301 N1299 1.356 . S
N1302 C1294 1.356 . S
N1302 H1308 0.984 . S
N1302 H1309 0.984 . S
N1303 C1296 1.356 . S
N1303 H1306 0.984 . S
N1303 H1307 0.985 . S
H1304 N1299 0.984 . S
H1305 N1299 0.985 . S
H1306 N1303 0.984 . S
H1307 N1303 0.985 . S
H1308 N1302 0.984 . S
H1309 N1302 0.984 . S
H1310 N1298 0.984 . S
H1311 N1298 0.985 . S
C1312 C1313 1.363 . S
C1312 C1318 1.379 . S
C1312 N1320 1.356 . S
C1313 C1312 1.363 . S
C1313 C1319 1.363 . S
C1314 C1315 1.363 . S
C1314 C1319 1.379 . S
C1314 N1321 1.356 . S
C1315 C1314 1.363 . S
C1315 C1318 1.363 . S
N1316 C1318 1.356 . S
N1316 H1328 0.984 . S
N1316 H1329 0.985 . S
N1317 C1319 1.356 . S
N1317 H1322 0.984 1_545 S
N1317 H1323 0.985 . S
C1318 C1312 1.379 . S
C1318 C1315 1.363 . S
C1318 N1316 1.356 . S
C1319 C1313 1.363 . S
C1319 C1314 1.379 . S
C1319 N1317 1.356 . S
N1320 C1312 1.356 . S
N1320 H1326 0.984 . S
N1320 H1327 0.984 1_545 S
N1321 C1314 1.356 . S
N1321 H1324 0.984 . S
N1321 H1325 0.985 . S
H1322 N1317 0.984 1_565 S
H1323 N1317 0.985 . S
H1324 N1321 0.984 . S
H1325 N1321 0.985 . S
H1326 N1320 0.984 . S
H1327 N1320 0.984 1_565 S
H1328 N1316 0.984 . S
H1329 N1316 0.985 . S
C1330 C1331 1.363 . S
C1330 C1336 1.379 . S
C1330 N1338 1.356 . S
C1331 C1330 1.363 . S
C1331 C1337 1.363 . S
C1332 C1333 1.363 . S
C1332 C1337 1.379 . S
C1332 N1339 1.356 . S
C1333 C1332 1.363 . S
C1333 C1336 1.363 . S
N1334 C1336 1.356 . S
N1334 H1346 0.984 . S
N1334 H1347 0.985 . S
N1335 C1337 1.356 . S
N1335 H1340 0.984 1_545 S
N1335 H1341 0.985 . S
C1336 C1330 1.379 . S
C1336 C1333 1.363 . S
C1336 N1334 1.356 . S
C1337 C1331 1.363 . S
C1337 C1332 1.379 . S
C1337 N1335 1.356 . S
N1338 C1330 1.356 . S
N1338 H1344 0.984 . S
N1338 H1345 0.984 1_545 S
N1339 C1332 1.356 . S
N1339 H1342 0.984 . S
N1339 H1343 0.985 . S
H1340 N1335 0.984 1_565 S
H1341 N1335 0.985 . S
H1342 N1339 0.984 . S
H1343 N1339 0.985 . S
H1344 N1338 0.984 . S
H1345 N1338 0.984 1_565 S
H1346 N1334 0.984 . S
H1347 N1334 0.985 . S
C1348 C1349 1.363 . S
C1348 C1354 1.379 . S
C1348 N1356 1.356 . S
C1349 C1348 1.363 . S
C1349 C1355 1.363 . S
C1350 C1351 1.363 . S
C1350 C1355 1.379 . S
C1350 N1357 1.356 . S
C1351 C1350 1.363 . S
C1351 C1354 1.363 . S
N1352 C1354 1.356 . S
N1352 H1364 0.984 . S
N1352 H1365 0.985 1_565 S
N1353 C1355 1.356 . S
N1353 H1358 0.984 . S
N1353 H1359 0.985 . S
C1354 C1348 1.379 . S
C1354 C1351 1.363 . S
C1354 N1352 1.356 . S
C1355 C1349 1.363 . S
C1355 C1350 1.379 . S
C1355 N1353 1.356 . S
N1356 C1348 1.356 . S
N1356 H1362 0.984 . S
N1356 H1363 0.984 . S
N1357 C1350 1.356 . S
N1357 H1360 0.984 1_565 S
N1357 H1361 0.985 . S
H1358 N1353 0.984 . S
H1359 N1353 0.985 . S
H1360 N1357 0.984 1_545 S
H1361 N1357 0.985 . S
H1362 N1356 0.984 . S
H1363 N1356 0.984 . S
H1364 N1352 0.984 . S
H1365 N1352 0.985 1_545 S
C1366 C1367 1.363 . S
C1366 C1372 1.379 . S
C1366 N1374 1.356 . S
C1367 C1366 1.363 . S
C1367 C1373 1.363 . S
C1368 C1369 1.363 . S
C1368 C1373 1.379 . S
C1368 N1375 1.356 . S
C1369 C1368 1.363 . S
C1369 C1372 1.363 . S
N1370 C1372 1.356 . S
N1370 H1382 0.984 . S
N1370 H1383 0.985 . S
N1371 C1373 1.356 . S
N1371 H1376 0.984 1_565 S
N1371 H1377 0.985 . S
C1372 C1366 1.379 . S
C1372 C1369 1.363 . S
C1372 N1370 1.356 . S
C1373 C1367 1.363 . S
C1373 C1368 1.379 . S
C1373 N1371 1.356 . S
N1374 C1366 1.356 . S
N1374 H1380 0.984 . S
N1374 H1381 0.984 1_565 S
N1375 C1368 1.356 . S
N1375 H1378 0.984 . S
N1375 H1379 0.985 . S
H1376 N1371 0.984 1_545 S
H1377 N1371 0.985 . S
H1378 N1375 0.984 . S
H1379 N1375 0.985 . S
H1380 N1374 0.984 . S
H1381 N1374 0.984 1_545 S
H1382 N1370 0.984 . S
H1383 N1370 0.985 . S
C1384 C1385 1.363 . S
C1384 C1390 1.379 . S
C1384 N1392 1.356 . S
C1385 C1384 1.363 . S
C1385 C1391 1.363 . S
C1386 C1387 1.363 . S
C1386 C1391 1.379 . S
C1386 N1393 1.356 . S
C1387 C1386 1.363 . S
C1387 C1390 1.363 . S
N1388 C1390 1.356 . S
N1388 H1400 0.984 . S
N1388 H1401 0.985 . S
N1389 C1391 1.356 . S
N1389 H1394 0.984 . S
N1389 H1395 0.985 . S
C1390 C1384 1.379 . S
C1390 C1387 1.363 . S
C1390 N1388 1.356 . S
C1391 C1385 1.363 . S
C1391 C1386 1.379 . S
C1391 N1389 1.356 . S
N1392 C1384 1.356 . S
N1392 H1398 0.984 . S
N1392 H1399 0.984 . S
N1393 C1386 1.356 . S
N1393 H1396 0.984 . S
N1393 H1397 0.985 . S
H1394 N1389 0.984 . S
H1395 N1389 0.985 . S
H1396 N1393 0.984 . S
H1397 N1393 0.985 . S
H1398 N1392 0.984 . S
H1399 N1392 0.984 . S
H1400 N1388 0.984 . S
H1401 N1388 0.985 . S
C1402 C1403 1.363 . S
C1402 C1408 1.379 . S
C1402 N1410 1.356 . S
C1403 C1402 1.363 . S
C1403 C1409 1.363 . S
C1404 C1405 1.363 . S
C1404 C1409 1.379 . S
C1404 N1411 1.356 . S
C1405 C1404 1.363 . S
C1405 C1408 1.363 . S
N1406 C1408 1.356 . S
N1406 H1418 0.984 . S
N1406 H1419 0.985 . S
N1407 C1409 1.356 . S
N1407 H1412 0.984 . S
N1407 H1413 0.985 . S
C1408 C1402 1.379 . S
C1408 C1405 1.363 . S
C1408 N1406 1.356 . S
C1409 C1403 1.363 . S
C1409 C1404 1.379 . S
C1409 N1407 1.356 . S
N1410 C1402 1.356 . S
N1410 H1416 0.984 . S
N1410 H1417 0.984 . S
N1411 C1404 1.356 . S
N1411 H1414 0.984 . S
N1411 H1415 0.985 . S
H1412 N1407 0.984 . S
H1413 N1407 0.985 . S
H1414 N1411 0.984 . S
H1415 N1411 0.985 . S
H1416 N1410 0.984 . S
H1417 N1410 0.984 . S
H1418 N1406 0.984 . S
H1419 N1406 0.985 . S
C1420 C1421 1.363 . S
C1420 C1426 1.379 . S
C1420 N1428 1.356 . S
C1421 C1420 1.363 . S
C1421 C1427 1.363 . S
C1422 C1423 1.363 . S
C1422 C1427 1.379 . S
C1422 N1429 1.356 . S
C1423 C1422 1.363 . S
C1423 C1426 1.363 . S
N1424 C1426 1.356 . S
N1424 H1436 0.984 . S
N1424 H1437 0.985 . S
N1425 C1427 1.356 . S
N1425 H1430 0.984 . S
N1425 H1431 0.985 . S
C1426 C1420 1.379 . S
C1426 C1423 1.363 . S
C1426 N1424 1.356 . S
C1427 C1421 1.363 . S
C1427 C1422 1.379 . S
C1427 N1425 1.356 . S
N1428 C1420 1.356 . S
N1428 H1434 0.984 . S
N1428 H1435 0.984 . S
N1429 C1422 1.356 . S
N1429 H1432 0.984 . S
N1429 H1433 0.985 . S
H1430 N1425 0.984 . S
H1431 N1425 0.985 . S
H1432 N1429 0.984 . S
H1433 N1429 0.985 . S
H1434 N1428 0.984 . S
H1435 N1428 0.984 . S
H1436 N1424 0.984 . S
H1437 N1424 0.985 . S
C1438 C1439 1.363 . S
C1438 C1444 1.379 . S
C1438 N1446 1.356 . S
C1439 C1438 1.363 . S
C1439 C1445 1.363 . S
C1440 C1441 1.363 . S
C1440 C1445 1.379 . S
C1440 N1447 1.356 . S
C1441 C1440 1.363 . S
C1441 C1444 1.363 . S
N1442 C1444 1.356 . S
N1442 H1454 0.984 . S
N1442 H1455 0.985 . S
N1443 C1445 1.356 . S
N1443 H1448 0.984 . S
N1443 H1449 0.985 . S
C1444 C1438 1.379 . S
C1444 C1441 1.363 . S
C1444 N1442 1.356 . S
C1445 C1439 1.363 . S
C1445 C1440 1.379 . S
C1445 N1443 1.356 . S
N1446 C1438 1.356 . S
N1446 H1452 0.984 . S
N1446 H1453 0.984 . S
N1447 C1440 1.356 . S
N1447 H1450 0.984 . S
N1447 H1451 0.985 . S
H1448 N1443 0.984 . S
H1449 N1443 0.985 . S
H1450 N1447 0.984 . S
H1451 N1447 0.985 . S
H1452 N1446 0.984 . S
H1453 N1446 0.984 . S
H1454 N1442 0.984 . S
H1455 N1442 0.985 . S
C1456 C1457 1.363 . S
C1456 C1462 1.379 . S
C1456 N1464 1.356 . S
C1457 C1456 1.363 . S
C1457 C1463 1.363 . S
C1458 C1459 1.363 . S
C1458 C1463 1.379 . S
C1458 N1465 1.356 . S
C1459 C1458 1.363 . S
C1459 C1462 1.363 . S
N1460 C1462 1.356 . S
N1460 H1472 0.984 . S
N1460 H1473 0.985 . S
N1461 C1463 1.356 . S
N1461 H1466 0.984 1_545 S
N1461 H1467 0.985 . S
C1462 C1456 1.379 . S
C1462 C1459 1.363 . S
C1462 N1460 1.356 . S
C1463 C1457 1.363 . S
C1463 C1458 1.379 . S
C1463 N1461 1.356 . S
N1464 C1456 1.356 . S
N1464 H1470 0.984 . S
N1464 H1471 0.984 1_545 S
N1465 C1458 1.356 . S
N1465 H1468 0.984 . S
N1465 H1469 0.985 . S
H1466 N1461 0.984 1_565 S
H1467 N1461 0.985 . S
H1468 N1465 0.984 . S
H1469 N1465 0.985 . S
H1470 N1464 0.984 . S
H1471 N1464 0.984 1_565 S
H1472 N1460 0.984 . S
H1473 N1460 0.985 . S
C1474 C1475 1.363 . S
C1474 C1480 1.379 . S
C1474 N1482 1.356 . S
C1475 C1474 1.363 . S
C1475 C1481 1.363 . S
C1476 C1477 1.363 . S
C1476 C1481 1.379 . S
C1476 N1483 1.356 . S
C1477 C1476 1.363 . S
C1477 C1480 1.363 . S
N1478 C1480 1.356 . S
N1478 H1490 0.984 . S
N1478 H1491 0.985 1_545 S
N1479 C1481 1.356 . S
N1479 H1484 0.984 . S
N1479 H1485 0.985 . S
C1480 C1474 1.379 . S
C1480 C1477 1.363 . S
C1480 N1478 1.356 . S
C1481 C1475 1.363 . S
C1481 C1476 1.379 . S
C1481 N1479 1.356 . S
N1482 C1474 1.356 . S
N1482 H1488 0.984 . S
N1482 H1489 0.984 . S
N1483 C1476 1.356 . S
N1483 H1486 0.984 1_545 S
N1483 H1487 0.985 . S
H1484 N1479 0.984 . S
H1485 N1479 0.985 . S
H1486 N1483 0.984 1_565 S
H1487 N1483 0.985 . S
H1488 N1482 0.984 . S
H1489 N1482 0.984 . S
H1490 N1478 0.984 . S
H1491 N1478 0.985 1_565 S
C1492 C1493 1.363 . S
C1492 C1498 1.379 . S
C1492 N1500 1.356 . S
C1493 C1492 1.363 . S
C1493 C1499 1.363 . S
C1494 C1495 1.363 . S
C1494 C1499 1.379 . S
C1494 N1501 1.356 . S
C1495 C1494 1.363 . S
C1495 C1498 1.363 . S
N1496 C1498 1.356 . S
N1496 H1508 0.984 . S
N1496 H1509 0.985 1_565 S
N1497 C1499 1.356 . S
N1497 H1502 0.984 . S
N1497 H1503 0.985 . S
C1498 C1492 1.379 . S
C1498 C1495 1.363 . S
C1498 N1496 1.356 . S
C1499 C1493 1.363 . S
C1499 C1494 1.379 . S
C1499 N1497 1.356 . S
N1500 C1492 1.356 . S
N1500 H1506 0.984 . S
N1500 H1507 0.984 . S
N1501 C1494 1.356 . S
N1501 H1504 0.984 1_565 S
N1501 H1505 0.985 . S
H1502 N1497 0.984 . S
H1503 N1497 0.985 . S
H1504 N1501 0.984 1_545 S
H1505 N1501 0.985 . S
H1506 N1500 0.984 . S
H1507 N1500 0.984 . S
H1508 N1496 0.984 . S
H1509 N1496 0.985 1_545 S
C1510 C1511 1.363 . S
C1510 C1516 1.379 . S
C1510 N1518 1.356 . S
C1511 C1510 1.363 . S
C1511 C1517 1.363 . S
C1512 C1513 1.363 . S
C1512 C1517 1.379 . S
C1512 N1519 1.356 . S
C1513 C1512 1.363 . S
C1513 C1516 1.363 . S
N1514 C1516 1.356 . S
N1514 H1526 0.984 . S
N1514 H1527 0.985 1_565 S
N1515 C1517 1.356 . S
N1515 H1520 0.984 . S
N1515 H1521 0.985 . S
C1516 C1510 1.379 . S
C1516 C1513 1.363 . S
C1516 N1514 1.356 . S
C1517 C1511 1.363 . S
C1517 C1512 1.379 . S
C1517 N1515 1.356 . S
N1518 C1510 1.356 . S
N1518 H1524 0.984 . S
N1518 H1525 0.984 . S
N1519 C1512 1.356 . S
N1519 H1522 0.984 1_565 S
N1519 H1523 0.985 . S
H1520 N1515 0.984 . S
H1521 N1515 0.985 . S
H1522 N1519 0.984 1_545 S
H1523 N1519 0.985 . S
H1524 N1518 0.984 . S
H1525 N1518 0.984 . S
H1526 N1514 0.984 . S
H1527 N1514 0.985 1_545 S
C1528 C1529 1.363 . S
C1528 C1534 1.379 . S
C1528 N1536 1.356 . S
C1529 C1528 1.363 . S
C1529 C1535 1.363 . S
C1530 C1531 1.363 . S
C1530 C1535 1.379 . S
C1530 N1537 1.356 . S
C1531 C1530 1.363 . S
C1531 C1534 1.363 . S
N1532 C1534 1.356 . S
N1532 H1544 0.984 . S
N1532 H1545 0.985 . S
N1533 C1535 1.356 . S
N1533 H1538 0.984 . S
N1533 H1539 0.985 . S
C1534 C1528 1.379 . S
C1534 C1531 1.363 . S
C1534 N1532 1.356 . S
C1535 C1529 1.363 . S
C1535 C1530 1.379 . S
C1535 N1533 1.356 . S
N1536 C1528 1.356 . S
N1536 H1542 0.984 . S
N1536 H1543 0.984 . S
N1537 C1530 1.356 . S
N1537 H1540 0.984 . S
N1537 H1541 0.985 . S
H1538 N1533 0.984 . S
H1539 N1533 0.985 . S
H1540 N1537 0.984 . S
H1541 N1537 0.985 . S
H1542 N1536 0.984 . S
H1543 N1536 0.984 . S
H1544 N1532 0.984 . S
H1545 N1532 0.985 . S
C1546 C1547 1.363 . S
C1546 C1552 1.379 . S
C1546 N1554 1.356 . S
C1547 C1546 1.363 . S
C1547 C1553 1.363 . S
C1548 C1549 1.363 . S
C1548 C1553 1.379 . S
C1548 N1555 1.356 . S
C1549 C1548 1.363 . S
C1549 C1552 1.363 . S
N1550 C1552 1.356 . S
N1550 H1562 0.984 . S
N1550 H1563 0.985 . S
N1551 C1553 1.356 . S
N1551 H1556 0.984 . S
N1551 H1557 0.985 . S
C1552 C1546 1.379 . S
C1552 C1549 1.363 . S
C1552 N1550 1.356 . S
C1553 C1547 1.363 . S
C1553 C1548 1.379 . S
C1553 N1551 1.356 . S
N1554 C1546 1.356 . S
N1554 H1560 0.984 . S
N1554 H1561 0.984 . S
N1555 C1548 1.356 . S
N1555 H1558 0.984 . S
N1555 H1559 0.985 . S
H1556 N1551 0.984 . S
H1557 N1551 0.985 . S
H1558 N1555 0.984 . S
H1559 N1555 0.985 . S
H1560 N1554 0.984 . S
H1561 N1554 0.984 . S
H1562 N1550 0.984 . S
H1563 N1550 0.985 . S
C1564 C1565 1.363 . S
C1564 C1570 1.379 . S
C1564 N1572 1.356 . S
C1565 C1564 1.363 . S
C1565 C1571 1.363 . S
C1566 C1567 1.363 . S
C1566 C1571 1.379 . S
C1566 N1573 1.356 . S
C1567 C1566 1.363 . S
C1567 C1570 1.363 . S
N1568 C1570 1.356 . S
N1568 H1580 0.984 . S
N1568 H1581 0.985 . S
N1569 C1571 1.356 . S
N1569 H1574 0.984 . S
N1569 H1575 0.985 . S
C1570 C1564 1.379 . S
C1570 C1567 1.363 . S
C1570 N1568 1.356 . S
C1571 C1565 1.363 . S
C1571 C1566 1.379 . S
C1571 N1569 1.356 . S
N1572 C1564 1.356 . S
N1572 H1578 0.984 . S
N1572 H1579 0.984 . S
N1573 C1566 1.356 . S
N1573 H1576 0.984 . S
N1573 H1577 0.985 . S
H1574 N1569 0.984 . S
H1575 N1569 0.985 . S
H1576 N1573 0.984 . S
H1577 N1573 0.985 . S
H1578 N1572 0.984 . S
H1579 N1572 0.984 . S
H1580 N1568 0.984 . S
H1581 N1568 0.985 . S
C1582 C1583 1.363 . S
C1582 C1588 1.379 . S
C1582 N1590 1.356 . S
C1583 C1582 1.363 . S
C1583 C1589 1.363 . S
C1584 C1585 1.363 . S
C1584 C1589 1.379 . S
C1584 N1591 1.356 . S
C1585 C1584 1.363 . S
C1585 C1588 1.363 . S
N1586 C1588 1.356 . S
N1586 H1598 0.984 . S
N1586 H1599 0.985 . S
N1587 C1589 1.356 . S
N1587 H1592 0.984 . S
N1587 H1593 0.985 . S
C1588 C1582 1.379 . S
C1588 C1585 1.363 . S
C1588 N1586 1.356 . S
C1589 C1583 1.363 . S
C1589 C1584 1.379 . S
C1589 N1587 1.356 . S
N1590 C1582 1.356 . S
N1590 H1596 0.984 . S
N1590 H1597 0.984 . S
N1591 C1584 1.356 . S
N1591 H1594 0.984 . S
N1591 H1595 0.985 . S
H1592 N1587 0.984 . S
H1593 N1587 0.985 . S
H1594 N1591 0.984 . S
H1595 N1591 0.985 . S
H1596 N1590 0.984 . S
H1597 N1590 0.984 . S
H1598 N1586 0.984 . S
H1599 N1586 0.985 . S
C449 C35 0.826 . S
C451 C7 0.826 . S
C467 C21 0.826 . S
C469 C49 0.826 . S
C485 C91 0.826 . S
C487 C63 0.826 . S
C503 C105 0.826 . S
C505 C77 0.826 . S
C521 C119 0.826 . S
C523 C147 0.826 . S
C539 C161 0.826 . S
C541 C133 0.826 . S
C557 C175 0.826 . S
C559 C203 0.826 . S
C575 C189 0.826 . S
C577 C217 0.826 . S
C593 C259 0.826 . S
C595 C231 0.826 . S
C611 C245 0.826 . S
C613 C273 0.826 . S
C629 C287 0.826 . S
C631 C315 0.826 . S
C647 C329 0.826 . S
C649 C301 0.826 . S
C665 C371 0.826 . S
C667 C343 0.826 . S
C683 C385 0.826 . S
C685 C357 0.826 . S
C701 C427 0.826 . S
C703 C399 0.826 . S
C719 C413 0.826 . S
C721 C441 0.826 . S
C737 C64 1.635 . S
C739 C8 1.635 . S
C755 C414 1.635 . S
C757 C22 1.635 . S
C773 C36 1.635 . S
C775 C204 1.635 . S
C791 C50 1.635 . S
C793 C330 1.635 . S
C809 C78 1.635 . S
C811 C358 1.635 . S
C827 C92 1.635 . S
C829 C148 1.635 . S
C845 C274 1.635 . S
C847 C106 1.635 . S
C863 C176 1.635 . S
C865 C120 1.635 . S
C881 C302 1.635 . S
C883 C134 1.635 . S
C899 C162 1.635 . S
C901 C442 1.635 . S
C917 C190 1.635 . S
C919 C246 1.635 . S
C935 C386 1.635 . S
C937 C218 1.635 . S
C953 C288 1.635 . S
C955 C232 1.635 . S
C971 C260 1.635 . S
C973 C428 1.635 . S
C989 C316 1.635 . S
C991 C372 1.635 . S
C1007 C400 1.635 . S
C1009 C344 1.635 . S
C1025 C51 1.486 . S
C1027 C9 1.486 . S
C1043 C37 1.486 . S
C1045 C23 1.486 . S
C1061 C107 1.486 . S
C1063 C65 1.486 . S
C1079 C93 1.486 . S
C1081 C79 1.486 . S
C1097 C163 1.486 . S
C1099 C121 1.486 . S
C1115 C149 1.486 . S
C1117 C135 1.486 . S
C1133 C219 1.486 . S
C1135 C177 1.486 . S
C1151 C205 1.486 . S
C1153 C191 1.486 . S
C1169 C233 1.486 . S
C1171 C275 1.486 . S
C1187 C261 1.486 . S
C1189 C247 1.486 . S
C1205 C289 1.486 . S
C1207 C331 1.486 . S
C1223 C317 1.486 . S
C1225 C303 1.486 . S
C1241 C387 1.486 . S
C1243 C345 1.486 . S
C1259 C359 1.486 . S
C1261 C373 1.486 . S
C1277 C401 1.486 . S
C1279 C443 1.486 . S
C1295 C429 1.486 . S
C1297 C415 1.486 . S
C1313 C31 1.519 1_545 S
C1315 C3 1.519 . S
C1331 C17 1.519 1_545 S
C1333 C45 1.519 . S
C1349 C59 1.519 . S
C1351 C87 1.519 1_565 S
C1367 C73 1.519 1_565 S
C1369 C101 1.519 . S
C1385 C115 1.519 . S
C1387 C143 1.519 . S
C1403 C129 1.519 . S
C1405 C157 1.519 . S
C1421 C199 1.519 . S
C1423 C171 1.519 . S
C1439 C213 1.519 . S
C1441 C185 1.519 . S
C1457 C255 1.519 1_545 S
C1459 C227 1.519 . S
C1475 C269 1.519 . S
C1477 C241 1.519 1_545 S
C1493 C283 1.519 . S
C1495 C311 1.519 1_565 S
C1511 C325 1.519 . S
C1513 C297 1.519 1_565 S
C1529 C367 1.519 . S
C1531 C339 1.519 . S
C1547 C353 1.519 . S
C1549 C381 1.519 . S
C1565 C395 1.519 . S
C1567 C423 1.519 . S
C1583 C437 1.519 . S
C1585 C409 1.519 . S
