# Generated by pormake.
# Topology umz, (4)-cn, num edge types: 1
# Building blocks:
#     Node 0, Type 0, BuildingBlock: TATPOV_clean_sbu_0, # of connection points: 4
#     Node 1, Type 0, BuildingBlock: TATPOV_clean_sbu_0, # of connection points: 4
#     Node 2, Type 0, BuildingBlock: TATPOV_clean_sbu_0, # of connection points: 4
#     Node 3, Type 0, BuildingBlock: TATPOV_clean_sbu_0, # of connection points: 4
#     Node 4, Type 0, BuildingBlock: TATPOV_clean_sbu_0, # of connection points: 4
#     Node 5, Type 0, BuildingBlock: TATPOV_clean_sbu_0, # of connection points: 4
#     Node 6, Type 0, BuildingBlock: TATPOV_clean_sbu_0, # of connection points: 4
#     Node 7, Type 0, BuildingBlock: TATPOV_clean_sbu_0, # of connection points: 4
#     Node 8, Type 0, BuildingBlock: TATPOV_clean_sbu_0, # of connection points: 4
#     Node 9, Type 0, BuildingBlock: TATPOV_clean_sbu_0, # of connection points: 4
#     Node 10, Type 0, BuildingBlock: TATPOV_clean_sbu_0, # of connection points: 4
#     Node 11, Type 0, BuildingBlock: TATPOV_clean_sbu_0, # of connection points: 4
#     Node 12, Type 0, BuildingBlock: TATPOV_clean_sbu_0, # of connection points: 4
#     Node 13, Type 0, BuildingBlock: TATPOV_clean_sbu_0, # of connection points: 4
#     Node 14, Type 0, BuildingBlock: TATPOV_clean_sbu_0, # of connection points: 4
#     Node 15, Type 0, BuildingBlock: TATPOV_clean_sbu_0, # of connection points: 4
#     Edge 16, Type (0, 0), BuildingBlock: ZUJKAS_clean_linker_0, # of connection points: 2
#     Edge 17, Type (0, 0), BuildingBlock: ZUJKAS_clean_linker_0, # of connection points: 2
#     Edge 18, Type (0, 0), BuildingBlock: ZUJKAS_clean_linker_0, # of connection points: 2
#     Edge 19, Type (0, 0), BuildingBlock: ZUJKAS_clean_linker_0, # of connection points: 2
#     Edge 20, Type (0, 0), BuildingBlock: ZUJKAS_clean_linker_0, # of connection points: 2
#     Edge 21, Type (0, 0), BuildingBlock: ZUJKAS_clean_linker_0, # of connection points: 2
#     Edge 22, Type (0, 0), BuildingBlock: ZUJKAS_clean_linker_0, # of connection points: 2
#     Edge 23, Type (0, 0), BuildingBlock: ZUJKAS_clean_linker_0, # of connection points: 2
#     Edge 24, Type (0, 0), BuildingBlock: ZUJKAS_clean_linker_0, # of connection points: 2
#     Edge 25, Type (0, 0), BuildingBlock: ZUJKAS_clean_linker_0, # of connection points: 2
#     Edge 26, Type (0, 0), BuildingBlock: ZUJKAS_clean_linker_0, # of connection points: 2
#     Edge 27, Type (0, 0), BuildingBlock: ZUJKAS_clean_linker_0, # of connection points: 2
#     Edge 28, Type (0, 0), BuildingBlock: ZUJKAS_clean_linker_0, # of connection points: 2
#     Edge 29, Type (0, 0), BuildingBlock: ZUJKAS_clean_linker_0, # of connection points: 2
#     Edge 30, Type (0, 0), BuildingBlock: ZUJKAS_clean_linker_0, # of connection points: 2
#     Edge 31, Type (0, 0), BuildingBlock: ZUJKAS_clean_linker_0, # of connection points: 2
#     Edge 32, Type (0, 0), BuildingBlock: ZUJKAS_clean_linker_0, # of connection points: 2
#     Edge 33, Type (0, 0), BuildingBlock: ZUJKAS_clean_linker_0, # of connection points: 2
#     Edge 34, Type (0, 0), BuildingBlock: ZUJKAS_clean_linker_0, # of connection points: 2
#     Edge 35, Type (0, 0), BuildingBlock: ZUJKAS_clean_linker_0, # of connection points: 2
#     Edge 36, Type (0, 0), BuildingBlock: ZUJKAS_clean_linker_0, # of connection points: 2
#     Edge 37, Type (0, 0), BuildingBlock: ZUJKAS_clean_linker_0, # of connection points: 2
#     Edge 38, Type (0, 0), BuildingBlock: ZUJKAS_clean_linker_0, # of connection points: 2
#     Edge 39, Type (0, 0), BuildingBlock: ZUJKAS_clean_linker_0, # of connection points: 2
#     Edge 40, Type (0, 0), BuildingBlock: ZUJKAS_clean_linker_0, # of connection points: 2
#     Edge 41, Type (0, 0), BuildingBlock: ZUJKAS_clean_linker_0, # of connection points: 2
#     Edge 42, Type (0, 0), BuildingBlock: ZUJKAS_clean_linker_0, # of connection points: 2
#     Edge 43, Type (0, 0), BuildingBlock: ZUJKAS_clean_linker_0, # of connection points: 2
#     Edge 44, Type (0, 0), BuildingBlock: ZUJKAS_clean_linker_0, # of connection points: 2
#     Edge 45, Type (0, 0), BuildingBlock: ZUJKAS_clean_linker_0, # of connection points: 2
#     Edge 46, Type (0, 0), BuildingBlock: ZUJKAS_clean_linker_0, # of connection points: 2
#     Edge 47, Type (0, 0), BuildingBlock: ZUJKAS_clean_linker_0, # of connection points: 2
# Relax obj value: 0.194
# Max RMSD: 0.156
# Mean RMSD: 0.156
data_MOF--net-umz--node1-TATPOV_clean_sbu_0--edge1-ZUJKAS_clean_linker_0
_symmetry_space_group_name_H-M    P1
_symmetry_Int_Tables_number       1
_symmetry_cell_setting            triclinic
loop_
_symmetry_equiv_pos_as_xyz
'x, y, z'
_cell_length_a     79.127242
_cell_length_b     79.301217
_cell_length_c     28.964303
_cell_angle_alpha  90.299033
_cell_angle_beta   89.890575
_cell_angle_gamma 89.844646
loop_
_atom_site_label
_atom_site_type_symbol
_atom_site_fract_x
_atom_site_fract_y
_atom_site_fract_z
_atom_type_partial_charge
Zn0 Zn -0.0053 0.57896 0.05193 0.0
Zn1 Zn -0.00232 0.61104 0.06162 0.0
O2 O 0.97347 0.60591 0.08894 0.0
O3 O 0.97175 0.57846 0.07927 0.0
O4 O -0.00081 0.63663 0.06081 0.0
O5 O -0.00215 0.57846 -0.01594 0.0
O6 O 0.00293 0.60551 -0.00765 0.0
C7 C 0.96528 0.59212 0.09349 0.0
C8 C 0.02244 0.58798 0.11126 0.0
O9 O 0.01719 0.603 0.10431 0.0
O10 O 0.01496 0.57567 0.09229 0.0
C11 C -0.01078 0.64457 0.03412 0.0
O12 O 0.97791 0.63597 0.01071 0.0
C13 C 0.00233 0.59235 0.96683 0.0
Zn14 Zn 0.89517 -0.00903 0.5294 0.0
Zn15 Zn 0.86397 -0.00062 0.54787 0.0
O16 O 0.86746 0.97523 0.57579 0.0
O17 O 0.89282 0.96745 0.55263 0.0
O18 O 0.83857 0.00302 0.5502 0.0
O19 O 0.89412 -0.00435 0.46192 0.0
O20 O 0.86871 0.00505 0.47885 0.0
C21 C 0.87928 0.96423 0.57399 0.0
C22 C 0.89091 0.01944 0.59477 0.0
O23 O 0.87507 0.01721 0.5893 0.0
O24 O 0.9014 0.01002 0.57367 0.0
C25 C 0.83003 -0.00681 0.52439 0.0
O26 O 0.83806 0.98132 0.50128 0.0
C27 C 0.88062 0.00288 0.44967 0.0
Zn28 Zn 0.48061 0.8929 0.05885 0.0
Zn29 Zn 0.47615 0.86067 0.05783 0.0
O30 O 0.50083 0.86498 0.08226 0.0
O31 O 0.50547 0.89183 0.06843 0.0
O32 O 0.47538 0.8351 0.05178 0.0
O33 O 0.47134 0.89625 -0.00413 0.0
O34 O 0.469 0.86868 -0.00792 0.0
C35 C 0.51076 0.87767 0.08205 0.0
C36 C 0.4559 0.88154 0.1256 0.0
O37 O 0.45795 0.86725 0.10593 0.0
O38 O 0.4648 0.89405 0.11363 0.0
C39 C 0.46418 0.82756 0.02789 0.0
O40 O 0.4522 0.83651 0.0083 0.0
C41 C 0.46723 0.88315 0.97358 0.0
Zn42 Zn 0.58182 0.48195 0.52786 0.0
Zn43 Zn 0.61335 0.47515 0.54419 0.0
O44 O 0.60866 0.49928 0.57212 0.0
O45 O 0.58295 0.50581 0.5495 0.0
O46 O 0.63898 0.47305 0.54514 0.0
O47 O 0.58237 0.47662 0.46066 0.0
O48 O 0.60841 0.4687 0.4755 0.0
C49 C 0.59637 0.50975 0.57043 0.0
C50 C 0.58785 0.4543 0.59393 0.0
O51 O 0.60352 0.45701 0.58675 0.0
O52 O 0.57679 0.46321 0.57366 0.0
C53 C 0.64689 0.48395 0.52135 0.0
O54 O 0.63814 0.49582 0.50069 0.0
C55 C 0.59609 0.47001 0.44737 0.0
Zn56 Zn -0.00726 0.88751 0.94646 0.0
Zn57 Zn -0.00357 0.85598 0.92421 0.0
O58 O 0.97234 0.86269 0.90054 0.0
O59 O 0.96938 0.88928 0.92085 0.0
O60 O -0.00335 0.83034 0.91974 0.0
O61 O -0.00348 0.88511 0.01403 0.0
O62 O 0.00427 0.85967 -0.00757 0.0
C63 C 0.96357 0.87625 0.90126 0.0
C64 C 0.0197 0.88035 0.87883 0.0
O65 O 0.01432 0.86521 0.87961 0.0
O66 O 0.01309 0.89151 0.90476 0.0
C67 C 0.00848 0.82192 0.93862 0.0
O68 O 0.02122 0.83008 0.95716 0.0
C69 C 0.00325 0.8711 0.0235 0.0
Zn70 Zn 0.58741 -0.00946 0.43655 0.0
Zn71 Zn 0.61883 -0.00255 0.41702 0.0
O72 O 0.61417 0.97327 0.39006 0.0
O73 O 0.58849 0.9669 0.41314 0.0
O74 O 0.64438 -0.00038 0.41278 0.0
O75 O 0.589 -0.00454 0.50396 0.0
O76 O 0.61471 0.00357 0.48619 0.0
C77 C 0.60186 0.96288 0.39173 0.0
C78 C 0.5924 0.01834 0.37048 0.0
O79 O 0.60817 0.01554 0.37562 0.0
O80 O 0.58167 0.0095 0.39216 0.0
C81 C 0.65198 0.01166 0.43318 0.0
O82 O 0.64295 0.02352 0.45337 0.0
C83 C 0.60285 0.00208 0.51575 0.0
Zn84 Zn 0.47884 0.5841 0.94257 0.0
Zn85 Zn 0.47388 0.61526 0.919 0.0
O86 O 0.49823 0.60952 0.89497 0.0
O87 O 0.50216 0.58319 0.91589 0.0
O88 O 0.47199 0.64072 0.91335 0.0
O89 O 0.47522 0.58729 0.01016 0.0
O90 O 0.46635 0.61215 -0.01243 0.0
C91 C 0.50747 0.59628 0.89586 0.0
C92 C 0.45139 0.58945 0.87593 0.0
O93 O 0.45628 0.60476 0.87573 0.0
O94 O 0.45846 0.57879 0.90212 0.0
C95 C 0.48177 0.64924 0.93931 0.0
O96 O 0.49277 0.64113 0.96495 0.0
C97 C 0.46796 0.60113 0.01919 0.0
Zn98 Zn 0.89275 0.47898 0.41315 0.0
Zn99 Zn 0.86052 0.4766 0.41688 0.0
O100 O 0.86544 0.50169 0.3961 0.0
O101 O 0.89301 0.50356 0.40316 0.0
O102 O 0.8352 0.47619 0.42886 0.0
O103 O 0.89709 0.46969 0.47548 0.0
O104 O 0.86946 0.46772 0.48013 0.0
C105 C 0.87901 0.51039 0.3937 0.0
C106 C 0.87935 0.45607 0.34497 0.0
O107 O 0.86525 0.45907 0.36493 0.0
O108 O 0.89264 0.46351 0.35809 0.0
C109 C 0.82352 0.47771 0.39904 0.0
O110 O 0.82759 0.47969 0.35541 0.0
C111 C 0.88405 0.46551 0.49785 0.0
Zn112 Zn 0.98219 0.39109 0.94245 0.0
Zn113 Zn 0.97819 0.35946 0.92306 0.0
O114 O 0.00233 0.36609 0.89875 0.0
O115 O 0.00614 0.3923 0.92139 0.0
O116 O 0.97816 0.33382 0.91996 0.0
O117 O 0.97643 0.38978 0.00925 0.0
O118 O 0.96994 0.36373 -0.0093 0.0
C119 C 0.01157 0.37928 0.90082 0.0
C120 C 0.9559 0.38357 0.87312 0.0
O121 O 0.96021 0.36818 0.87823 0.0
O122 O 0.96324 0.39503 0.89628 0.0
C123 C 0.96618 0.32548 0.93825 0.0
O124 O 0.95321 0.33372 0.95569 0.0
C125 C 0.97008 0.37576 0.02014 0.0
Zn126 Zn 0.08081 0.97935 0.41113 0.0
Zn127 Zn 0.11269 0.97355 0.41534 0.0
O128 O 0.10985 -0.00171 0.3901 0.0
O129 O 0.08302 0.00411 0.40248 0.0
O130 O 0.13809 0.97092 0.4234 0.0
O131 O 0.07612 0.97005 0.47338 0.0
O132 O 0.10359 0.96708 0.48069 0.0
C133 C 0.09753 0.00876 0.38966 0.0
C134 C 0.09185 0.95421 0.34558 0.0
O135 O 0.10584 0.95554 0.36706 0.0
O136 O 0.07958 0.96384 0.35579 0.0
C137 C 0.14625 0.98217 0.44551 0.0
O138 O 0.13802 -0.00461 0.46148 0.0
C139 C 0.0887 0.9657 0.49736 0.0
Zn140 Zn 0.49672 0.07943 0.93689 0.0
Zn141 Zn 0.50191 0.11082 0.91856 0.0
O142 O 0.47746 0.10577 0.89301 0.0
O143 O 0.47338 0.07932 0.91218 0.0
O144 O 0.50419 0.13631 0.91521 0.0
O145 O 0.50088 0.08101 0.00453 0.0
O146 O 0.5084 0.10688 -0.01246 0.0
C147 C 0.46811 0.09263 0.89312 0.0
C148 C 0.52414 0.08514 0.87121 0.0
O149 O 0.52025 0.10069 0.87588 0.0
O150 O 0.51613 0.07405 0.8937 0.0
C151 C 0.49465 0.14484 0.94206 0.0
O152 O 0.48351 0.13678 0.96736 0.0
C153 C 0.50711 0.09497 0.01677 0.0
Zn154 Zn 0.39535 0.49189 0.40947 0.0
Zn155 Zn 0.36295 0.49619 0.41095 0.0
O156 O 0.36727 0.472 0.38291 0.0
O157 O 0.39435 0.46743 0.39435 0.0
O158 O 0.33735 0.49716 0.41775 0.0
O159 O 0.39871 0.49954 0.47424 0.0
O160 O 0.37108 0.50198 0.47771 0.0
C161 C 0.38015 0.46226 0.38042 0.0
C162 C 0.38376 0.51764 0.34644 0.0
O163 O 0.36939 0.51509 0.36518 0.0
O164 O 0.39643 0.50881 0.35786 0.0
C165 C 0.33017 0.50864 0.44168 0.0
O166 O 0.33949 0.52055 0.46028 0.0
C167 C 0.38554 0.50322 0.4969 0.0
Zn168 Zn -0.01187 0.08245 0.03115 0.0
Zn169 Zn 0.98035 0.11369 0.04847 0.0
O170 O 0.00466 0.11 0.07589 0.0
O171 O 0.01173 0.08431 0.05429 0.0
O172 O 0.97694 0.13909 0.05104 0.0
O173 O 0.98327 0.08319 0.96376 0.0
O174 O 0.97451 0.10889 0.97948 0.0
C175 C 0.01538 0.0979 0.07489 0.0
C176 C 0.96005 0.0872 0.09671 0.0
O177 O 0.96242 0.10294 0.09046 0.0
O178 O 0.96927 0.07649 0.07583 0.0
C179 C 0.98691 0.14773 0.02605 0.0
O180 O -0.00111 0.13982 0.00301 0.0
C181 C 0.97636 0.09674 0.95084 0.0
Zn182 Zn 0.39002 0.97538 0.53162 0.0
Zn183 Zn 0.35869 0.97601 0.55174 0.0
O184 O 0.36726 -8e-05 0.57316 0.0
O185 O 0.39458 -0.00232 0.56072 0.0
O186 O 0.33308 0.97752 0.55618 0.0
O187 O 0.38775 0.9732 0.46352 0.0
O188 O 0.36163 0.96751 0.48355 0.0
C189 C 0.38215 0.00608 0.576 0.0
C190 C 0.38033 0.94975 0.59715 0.0
O191 O 0.36628 0.95769 0.5977 0.0
O192 O 0.392 0.95418 0.56982 0.0
C193 C 0.32428 0.96506 0.54235 0.0
O194 O 0.3321 0.95123 0.52893 0.0
C195 C 0.37327 0.96777 0.45299 0.0
Zn196 Zn 0.49134 0.38797 0.02297 0.0
Zn197 Zn 0.49914 0.35674 0.04134 0.0
O198 O 0.47458 0.36086 0.06679 0.0
O199 O 0.46726 0.38607 0.04243 0.0
O200 O 0.50163 0.33122 0.04507 0.0
O201 O 0.49739 0.38695 0.95632 0.0
O202 O 0.50578 0.36123 0.97264 0.0
C203 C 0.46362 0.37267 0.06358 0.0
C204 C 0.5186 0.38337 0.09151 0.0
O205 O 0.51661 0.3676 0.08461 0.0
O206 O 0.50942 0.39392 0.07021 0.0
C207 C 0.51329 0.32339 0.02338 0.0
O208 O 0.52485 0.33215 0.0015 0.0
C209 C 0.50436 0.37331 0.94395 0.0
Zn210 Zn 0.08669 0.49919 0.53668 0.0
Zn211 Zn 0.11809 0.50402 0.55967 0.0
O212 O 0.11228 0.47988 0.58415 0.0
O213 O 0.08594 0.47588 0.56252 0.0
O214 O 0.14367 0.5055 0.5644 0.0
O215 O 0.08957 0.50265 0.4692 0.0
O216 O 0.11464 0.51136 0.49108 0.0
C217 C 0.09909 0.47063 0.58261 0.0
C218 C 0.0926 0.52694 0.6027 0.0
O219 O 0.10793 0.52195 0.60278 0.0
O220 O 0.08175 0.51977 0.57714 0.0
C221 C 0.1519 0.49544 0.53829 0.0
O222 O 0.14343 0.48453 0.5131 0.0
C223 C 0.10341 0.50975 0.4598 0.0
H224 H 0.9689 0.66505 0.98266 0.0
H225 H 0.97261 0.69501 0.9663 0.0
H226 H 0.01709 0.69598 0.05194 0.0
H227 H 0.01356 0.66589 0.06837 0.0
H228 H 0.97411 0.72291 0.02813 0.0
H229 H 0.03354 0.71537 0.92749 0.0
H230 H 0.01984 0.69785 0.94051 0.0
H231 H 0.03371 0.70614 -0.01598 0.0
C232 C 0.97947 0.67161 -0.00182 0.0
C233 C -0.00901 0.66301 0.02667 0.0
C234 C 0.98155 0.68876 -0.01124 0.0
C235 C -0.00474 0.69768 0.00728 0.0
C236 C 0.00659 0.68927 0.03659 0.0
H237 H 0.03032 0.80088 -0.01652 0.0
H238 H 0.02686 0.77085 -0.00082 0.0
C239 C 0.00448 0.67209 0.0462 0.0
C240 C -0.00239 0.71578 -0.00411 0.0
H241 H 0.0243 0.74328 0.94221 0.0
C242 C 0.98506 0.72737 0.00925 0.0
C243 C 0.0119 0.72157 0.97125 0.0
C244 C 0.02548 0.7096 0.95457 0.0
C245 C 0.98655 0.74465 -0.00063 0.0
C246 C 0.00081 0.75045 0.97447 0.0
C247 C 0.01336 0.73884 0.96115 0.0
C248 C 0.00311 0.76856 0.96284 0.0
C249 C 0.97306 0.75658 0.01679 0.0
C250 C -0.00886 0.77723 0.9361 0.0
C251 C -0.00695 0.79447 0.92712 0.0
C252 C 0.00707 0.80336 0.94439 0.0
C253 C 0.01934 0.79448 0.96971 0.0
C254 C 0.01739 0.77728 0.97877 0.0
H255 H 0.96557 0.75095 0.04529 0.0
H256 H 0.97867 0.76858 0.02929 0.0
H257 H 0.96424 0.75953 -0.01181 0.0
H258 H 0.98023 0.77069 0.92243 0.0
H259 H 0.98341 0.80087 0.90727 0.0
H260 H 0.67453 -0.01196 0.40062 0.0
H261 H 0.70488 0.98633 0.41647 0.0
H262 H 0.70205 0.03271 0.49444 0.0
H263 H 0.67172 0.03448 0.47918 0.0
H264 H 0.73141 0.00939 0.39758 0.0
H265 H 0.72333 -0.00067 0.58606 0.0
H266 H 0.70613 -0.00289 0.54563 0.0
H267 H 0.71294 0.01771 0.56362 0.0
C268 C 0.68037 -0.00205 0.42089 0.0
C269 C 0.67064 0.01134 0.43889 0.0
C270 C 0.69772 -0.00306 0.42995 0.0
C271 C 0.70566 0.00922 0.45738 0.0
C272 C 0.69612 0.0229 0.47403 0.0
H273 H 0.80952 0.01835 0.55912 0.0
H274 H 0.77943 0.02295 0.5428 0.0
C275 C 0.67878 0.02394 0.46496 0.0
C276 C 0.7239 0.00763 0.46882 0.0
H277 H 0.75132 0.00232 0.55871 0.0
C278 C 0.73577 0.00783 0.43279 0.0
C279 C 0.72957 0.00568 0.51483 0.0
C280 C 0.71736 0.00479 0.55482 0.0
C281 C 0.75317 0.00623 0.44151 0.0
C282 C 0.75883 0.00401 0.48744 0.0
C283 C 0.74698 0.00403 0.52355 0.0
C284 C 0.77694 0.00106 0.49845 0.0
C285 C 0.76535 0.00717 0.40145 0.0
C286 C 0.78542 -0.01299 0.47994 0.0
C287 C 0.80255 0.98436 0.48916 0.0
C288 C 0.81159 -0.00437 0.51744 0.0
C289 C 0.80296 0.00945 0.53713 0.0
C290 C 0.78577 0.01211 0.52779 0.0
H291 H 0.75964 0.01369 0.37138 0.0
H292 H 0.7771 0.01388 0.41139 0.0
H293 H 0.7688 -0.0058 0.39035 0.0
H294 H 0.77878 0.97808 0.45818 0.0
H295 H 0.80872 0.9735 0.4737 0.0
H296 H 0.44308 0.80795 0.97564 0.0
H297 H 0.44534 0.77768 0.95993 0.0
H298 H 0.48994 0.77504 0.04487 0.0
H299 H 0.4877 0.80527 0.06121 0.0
H300 H 0.47209 0.76017 0.91814 0.0
H301 H 0.46063 0.73696 0.09579 0.0
H302 H 0.45584 0.75829 0.07862 0.0
H303 H 0.47721 0.75229 0.09182 0.0
C304 C 0.4533 0.80093 -0.00865 0.0
C305 C 0.46517 0.80906 0.0199 0.0
C306 C 0.45459 0.78362 0.9822 0.0
C307 C 0.46768 0.77404 0.00165 0.0
C308 C 0.47954 0.7821 0.03018 0.0
H309 H 0.50161 0.67057 -0.01045 0.0
H310 H 0.49794 0.70083 0.0017 0.0
C311 C 0.47828 0.79942 0.03934 0.0
C312 C 0.46922 0.75573 -0.009 0.0
H313 H 0.47035 0.7168 0.04082 0.0
C314 C 0.4716 0.75066 0.94489 0.0
C315 C 0.46856 0.74335 0.02593 0.0
C316 C 0.46527 0.74794 0.07577 0.0
C317 C 0.47382 0.73357 0.93294 0.0
C318 C 0.47335 0.72121 0.96797 0.0
C319 C 0.47077 0.72629 0.01399 0.0
C320 C 0.4759 0.70295 0.95802 0.0
C321 C 0.47715 0.72897 0.88314 0.0
C322 C 0.46476 0.69402 0.92919 0.0
C323 C 0.46687 0.67663 0.92196 0.0
C324 C 0.48008 0.66785 0.94378 0.0
C325 C 0.4913 0.6769 0.97218 0.0
C326 C 0.4892 0.69423 0.97927 0.0
H327 H 0.48127 0.74005 0.86272 0.0
H328 H 0.48699 0.719 0.88039 0.0
H329 H 0.46536 0.72404 0.86747 0.0
H330 H 0.45421 0.7004 0.91309 0.0
H331 H 0.45793 0.67004 0.90016 0.0
H332 H 0.66707 0.50667 0.47758 0.0
H333 H 0.69724 0.50442 0.46097 0.0
H334 H 0.6992 0.45678 0.53182 0.0
H335 H 0.66882 0.45887 0.54844 0.0
H336 H 0.72493 0.5013 0.52134 0.0
H337 H 0.71947 0.44613 0.4031 0.0
H338 H 0.70143 0.45865 0.42046 0.0
H339 H 0.71034 0.44354 0.45951 0.0
C340 C 0.67388 0.49571 0.48982 0.0
C341 C 0.66547 0.48289 0.51415 0.0
C342 C 0.69116 0.49446 0.4803 0.0
C343 C 0.70044 0.48033 0.49456 0.0
C344 C 0.69222 0.46767 0.51981 0.0
H345 H 0.8109 0.4743 0.48666 0.0
H346 H 0.78129 0.47445 0.51101 0.0
C347 C 0.67488 0.46893 0.52954 0.0
C348 C 0.71867 0.47898 0.4825 0.0
H349 H 0.74698 0.45624 0.41797 0.0
C350 C 0.72978 0.4914 0.49895 0.0
C351 C 0.72493 0.46619 0.45274 0.0
C352 C 0.71345 0.45291 0.43251 0.0
C353 C 0.74696 0.49138 0.48649 0.0
C354 C 0.75327 0.47848 0.45716 0.0
C355 C 0.74216 0.46606 0.44067 0.0
C356 C 0.77126 0.47792 0.44227 0.0
C357 C 0.75813 0.50545 0.5038 0.0
C358 C 0.77549 0.47939 0.39536 0.0
C359 C 0.79243 0.47926 0.38123 0.0
C360 C 0.8055 0.47753 0.41375 0.0
C361 C 0.80119 0.47576 0.46067 0.0
C362 C 0.78425 0.47592 0.47473 0.0
H363 H 0.75063 0.51637 0.51669 0.0
H364 H 0.76598 0.50073 0.53272 0.0
H365 H 0.76675 0.50987 0.47612 0.0
H366 H 0.76567 0.48089 0.36968 0.0
H367 H 0.79527 0.48059 0.34484 0.0
H368 H 0.94384 0.30453 0.98146 0.0
H369 H 0.94713 0.27445 -0.00279 0.0
H370 H -0.00531 0.27417 0.92433 0.0
H371 H -0.00834 0.30437 0.90906 0.0
H372 H 0.95055 0.24689 0.93965 0.0
H373 H 0.00766 0.25428 0.04863 0.0
H374 H -0.00533 0.27194 0.03182 0.0
H375 H 0.0098 0.26311 -0.008 0.0
C376 C 0.95499 0.29809 0.96857 0.0
C377 C 0.96755 0.30693 0.94427 0.0
C378 C 0.95684 0.28087 0.97765 0.0
C379 C 0.97131 0.27211 0.96281 0.0
C380 C 0.98361 0.28075 0.93713 0.0
H381 H 0.0072 0.16938 0.97864 0.0
H382 H 0.00281 0.19942 0.96493 0.0
C383 C 0.98179 0.298 0.92811 0.0
C384 C 0.97352 0.25397 0.97435 0.0
H385 H -0.00019 0.22626 0.02899 0.0
C386 C 0.96127 0.24238 0.95941 0.0
C387 C 0.98747 0.24811 0.00036 0.0
C388 C 0.00057 0.26001 0.01955 0.0
C389 C 0.96283 0.22506 0.96869 0.0
C390 C 0.97688 0.21919 -0.00582 0.0
C391 C -0.01095 0.23078 0.00944 0.0
C392 C 0.97953 0.20099 0.00395 0.0
C393 C 0.94966 0.21311 0.95005 0.0
C394 C 0.96805 0.19191 0.03125 0.0
C395 C 0.97055 0.17466 0.03932 0.0
C396 C 0.98459 0.16619 0.02024 0.0
C397 C -0.00378 0.17545 -0.00625 0.0
C398 C -0.00626 0.19265 -0.01413 0.0
H399 H 0.94178 0.21906 0.9229 0.0
H400 H 0.95568 0.20159 0.93543 0.0
H401 H 0.94119 0.2092 0.9786 0.0
H402 H 0.95715 0.19816 0.04626 0.0
H403 H 0.96137 0.16793 0.05996 0.0
H404 H 0.30405 -0.0074 0.55979 0.0
H405 H 0.27369 -0.00463 0.54522 0.0
H406 H 0.27199 0.94372 0.49826 0.0
H407 H 0.3023 0.94088 0.51222 0.0
H408 H 0.2565 0.96629 0.43784 0.0
H409 H 0.23354 0.97616 0.61725 0.0
H410 H 0.25013 -0.00983 0.59976 0.0
H411 H 0.25435 0.96797 0.60441 0.0
C412 C 0.29719 0.98176 0.54689 0.0
C413 C 0.30565 0.96651 0.53725 0.0
C414 C 0.2798 0.98335 0.53874 0.0
C415 C 0.27052 0.96969 0.52108 0.0
C416 C 0.27889 0.95441 0.512 0.0
H417 H 0.16655 0.95472 0.42805 0.0
H418 H 0.19663 0.95153 0.44575 0.0
C419 C 0.29623 0.95281 0.52013 0.0
C420 C 0.25226 0.97151 0.50995 0.0
H421 H 0.21358 0.98006 0.55731 0.0
C422 C 0.24709 0.96923 0.46398 0.0
C423 C 0.24001 0.97541 0.54404 0.0
C424 C 0.24471 0.97743 0.59422 0.0
C425 C 0.23007 0.97102 0.45101 0.0
C426 C 0.21778 0.97484 0.48514 0.0
C427 C 0.22297 0.97712 0.53114 0.0
C428 C 0.19952 0.97671 0.4739 0.0
C429 C 0.2255 0.96924 0.40066 0.0
C430 C 0.19098 -0.00825 0.4848 0.0
C431 C 0.17374 -0.00647 0.4752 0.0
C432 C 0.16464 0.9803 0.45449 0.0
C433 C 0.1732 0.96522 0.44361 0.0
C434 C 0.19044 0.96341 0.4535 0.0
H435 H 0.23665 0.97109 0.37791 0.0
H436 H 0.22059 0.95635 0.39425 0.0
H437 H 0.21556 0.97844 0.3908 0.0
H438 H 0.19767 0.00217 0.50067 0.0
H439 H 0.16757 0.00532 0.4841 0.0
H440 H 0.51863 0.1654 0.9029 0.0
H441 H 0.52295 0.1956 0.91737 0.0
H442 H 0.47972 0.19631 0.0082 0.0
H443 H 0.47546 0.16624 -0.00546 0.0
H444 H 0.50167 0.22324 0.90334 0.0
H445 H 0.51659 0.21655 0.08928 0.0
H446 H 0.51625 0.1988 0.05004 0.0
H447 H 0.49684 0.20716 0.0732 0.0
C448 C 0.51002 0.172 0.92585 0.0
C449 C 0.49678 0.16334 0.94783 0.0
C450 C 0.51252 0.18926 0.93413 0.0
C451 C 0.50188 0.19814 0.96467 0.0
C452 C 0.48836 0.18964 -0.01454 0.0
H453 H 0.49024 0.30131 0.05991 0.0
H454 H 0.4882 0.27092 0.04555 0.0
C455 C 0.48587 0.17244 0.97731 0.0
C456 C 0.50475 0.21634 0.97459 0.0
H457 H 0.51164 0.24447 0.06242 0.0
C458 C 0.50399 0.22787 0.93804 0.0
C459 C 0.50778 0.22238 0.01993 0.0
C460 C 0.50958 0.21058 0.06032 0.0
C461 C 0.5057 0.24531 0.94577 0.0
C462 C 0.5085 0.25136 -0.00881 0.0
C463 C 0.50944 0.23982 0.02767 0.0
C464 C 0.5103 0.26965 0.00158 0.0
C465 C 0.50399 0.25715 0.90543 0.0
C466 C 0.52367 0.27895 0.98267 0.0
C467 C 0.5249 0.29631 -0.00912 0.0
C468 C 0.51281 0.30474 0.01834 0.0
C469 C 0.49975 0.29526 0.03852 0.0
C470 C 0.49855 0.27788 0.03032 0.0
H471 H 0.49791 0.25095 0.87528 0.0
H472 H 0.49646 0.26847 0.91516 0.0
H473 H 0.51674 0.26142 0.89463 0.0
H474 H 0.53308 0.2728 0.96119 0.0
H475 H 0.53518 0.30317 0.97496 0.0
H476 H 0.30715 0.48531 0.41107 0.0
H477 H 0.27697 0.48385 0.42957 0.0
H478 H 0.28131 0.5288 0.51304 0.0
H479 H 0.31138 0.53051 0.49428 0.0
H480 H 0.26208 0.48076 0.51622 0.0
H481 H 0.24083 0.53975 0.43156 0.0
H482 H 0.26119 0.53029 0.42002 0.0
H483 H 0.25788 0.54254 0.47166 0.0
C484 C 0.30166 0.49499 0.433 0.0
C485 C 0.3117 0.50807 0.45099 0.0
C486 C 0.28441 0.49411 0.44364 0.0
C487 C 0.27681 0.50633 0.47222 0.0
C488 C 0.28679 0.51942 0.49015 0.0
H489 H 0.17341 0.51891 0.57626 0.0
H490 H 0.20399 0.52142 0.56355 0.0
C491 C 0.30403 0.52032 0.47953 0.0
C492 C 0.25861 0.50503 0.48462 0.0
H493 H 0.2207 0.52567 0.47816 0.0
C494 C 0.25302 0.49056 0.50778 0.0
C495 C 0.24681 0.51788 0.47389 0.0
C496 C 0.2519 0.53343 0.44756 0.0
C497 C 0.23601 0.48861 0.5207 0.0
C498 C 0.22418 0.50137 0.50953 0.0
C499 C 0.22979 0.51594 0.48687 0.0
C500 C 0.20581 0.49948 0.51908 0.0
C501 C 0.23089 0.473 0.54674 0.0
C502 C 0.19668 0.48637 0.49822 0.0
C503 C 0.17928 0.48491 0.50538 0.0
C504 C 0.17055 0.49658 0.53344 0.0
C505 C 0.17974 0.50966 0.55466 0.0
C506 C 0.1972 0.51114 0.54733 0.0
H507 H 0.24188 0.46698 0.56393 0.0
H508 H 0.22116 0.47598 0.57325 0.0
H509 H 0.22546 0.46371 0.52215 0.0
H510 H 0.20297 0.47742 0.47557 0.0
H511 H 0.17263 0.47472 0.48829 0.0
H512 H 0.02 0.61742 0.92256 0.0
H513 H 0.03523 0.61485 0.84889 0.0
H514 H 0.01577 0.56444 0.83163 0.0
H515 H 0.00024 0.56709 0.90343 0.0
H516 H 0.06014 0.59365 0.83063 0.0
H517 H 0.01017 0.5812 0.70389 0.0
H518 H 0.00548 0.58953 0.7606 0.0
H519 H 0.00737 0.56707 0.75126 0.0
C520 C 0.01856 0.60602 0.90223 0.0
C521 C 0.00893 0.59245 0.91894 0.0
C522 C 0.02735 0.60453 0.8603 0.0
C523 C 0.0265 0.58952 0.83433 0.0
C524 C 0.0163 0.57632 0.85018 0.0
H525 H 0.0987 0.53076 0.69461 0.0
H526 H 0.08427 0.55021 0.74741 0.0
C527 C 0.0075 0.57781 0.89167 0.0
C528 C 0.03759 0.58661 0.79361 0.0
H529 H 0.03732 0.56717 0.68856 0.0
C530 C 0.05515 0.58827 0.79898 0.0
C531 C 0.03118 0.58004 0.75171 0.0
C532 C 0.01249 0.57957 0.74143 0.0
C533 C 0.06645 0.58219 0.76524 0.0
C534 C 0.06001 0.57366 0.72598 0.0
C535 C 0.04243 0.57334 0.71896 0.0
C536 C 0.07093 0.56378 0.69369 0.0
C537 C 0.08512 0.58482 0.77258 0.0
C538 C 0.06825 0.5647 0.64581 0.0
C539 C 0.07598 0.55314 0.61596 0.0
C540 C 0.08691 0.54072 0.63321 0.0
C541 C 0.09052 0.54042 0.68054 0.0
C542 C 0.08236 0.55166 0.71066 0.0
H543 H 0.08748 0.59689 0.7911 0.0
H544 H 0.09016 0.57452 0.79447 0.0
H545 H 0.09219 0.58495 0.73943 0.0
H546 H 0.05955 0.57389 0.63167 0.0
H547 H 0.07302 0.55357 0.57947 0.0
H548 H 0.93508 0.10541 0.1414 0.0
H549 H 0.9134 0.09447 0.19416 0.0
H550 H 0.93358 0.04425 0.17674 0.0
H551 H 0.95478 0.05486 0.1237 0.0
H552 H 0.89899 0.04468 0.17318 0.0
H553 H 0.92227 0.08038 0.32661 0.0
H554 H 0.91616 0.09258 0.27724 0.0
H555 H 0.93431 0.07897 0.2738 0.0
C556 C 0.93485 0.09205 0.14884 0.0
C557 C 0.94673 0.08104 0.12849 0.0
C558 C 0.92249 0.08582 0.17908 0.0
C559 C 0.92198 0.06856 0.18975 0.0
C560 C 0.93368 0.05761 0.16893 0.0
H561 H 0.89801 -0.00616 0.37232 0.0
H562 H 0.9027 0.0111 0.304 0.0
C563 C 0.94587 0.06374 0.13867 0.0
C564 C 0.90978 0.06158 0.22359 0.0
H565 H 0.90167 0.05985 0.33927 0.0
C566 C 0.89932 0.04822 0.20939 0.0
C567 C 0.91013 0.06627 0.2708 0.0
C568 C 0.92137 0.08025 0.28833 0.0
C569 C 0.89009 0.03876 0.24147 0.0
C570 C 0.89136 0.04273 0.28889 0.0
C571 C 0.90073 0.05687 0.30277 0.0
C572 C 0.8855 0.03097 0.32505 0.0
C573 C 0.8796 0.02412 0.22465 0.0
C574 C 0.87391 0.03621 0.35901 0.0
C575 C 0.87106 0.02623 0.398 0.0
C576 C 0.88008 0.01109 0.40401 0.0
C577 C 0.89088 0.00544 0.36859 0.0
C578 C 0.89351 0.01526 0.32943 0.0
H579 H 0.87572 0.02583 0.18813 0.0
H580 H 0.88722 0.01238 0.22672 0.0
H581 H 0.86813 0.02251 0.24631 0.0
H582 H 0.86772 0.04837 0.3564 0.0
H583 H 0.86278 0.03099 0.42493 0.0
H584 H 0.46439 0.91193 0.92378 0.0
H585 H 0.4479 0.91658 0.85443 0.0
H586 H 0.43484 0.86382 0.84962 0.0
H587 H 0.45117 0.85905 0.92055 0.0
H588 H 0.45067 0.90349 0.76824 0.0
H589 H 0.38855 0.88702 0.8462 0.0
H590 H 0.40728 0.89017 0.8806 0.0
H591 H 0.40471 0.87105 0.84791 0.0
C592 C 0.45813 0.90122 0.90802 0.0
C593 C 0.459 0.88513 0.92801 0.0
C594 C 0.44869 0.90393 0.86824 0.0
C595 C 0.4399 0.89063 0.84727 0.0
C596 C 0.44125 0.87434 0.86583 0.0
H597 H 0.39747 0.92066 0.58139 0.0
H598 H 0.40976 0.90204 0.63952 0.0
C599 C 0.45073 0.87161 0.90604 0.0
C600 C 0.42928 0.8943 0.80635 0.0
H601 H 0.38826 0.89778 0.77071 0.0
C602 C 0.43704 0.90201 0.76841 0.0
C603 C 0.41148 0.89253 0.80704 0.0
C604 C 0.40241 0.88486 0.84766 0.0
C605 C 0.42752 0.90876 0.73217 0.0
C606 C 0.40967 0.90718 0.73296 0.0
C607 C 0.40192 0.89885 0.77002 0.0
C608 C 0.39895 0.91551 0.69772 0.0
C609 C 0.43666 0.91847 0.69499 0.0
C610 C 0.38756 0.9283 0.71096 0.0
C611 C 0.38008 0.93863 0.67764 0.0
C612 C 0.38411 0.93641 0.6308 0.0
C613 C 0.39432 0.92271 0.61742 0.0
C614 C 0.40144 0.91216 0.65058 0.0
H615 H 0.44968 0.92196 0.70561 0.0
H616 H 0.43766 0.91053 0.66344 0.0
H617 H 0.42972 0.9302 0.68613 0.0
H618 H 0.38535 0.93103 0.74716 0.0
H619 H 0.37229 0.94915 0.68876 0.0
H620 H 0.5436 0.36571 0.13698 0.0
H621 H 0.56468 0.37714 0.19087 0.0
H622 H 0.54343 0.42688 0.17422 0.0
H623 H 0.52281 0.41579 0.12014 0.0
H624 H 0.57806 0.42717 0.17086 0.0
H625 H 0.55519 0.39128 0.32363 0.0
H626 H 0.56162 0.37913 0.27406 0.0
H627 H 0.54323 0.39238 0.27078 0.0
C628 C 0.54345 0.37907 0.14489 0.0
C629 C 0.53146 0.3898 0.12435 0.0
C630 C 0.55547 0.38557 0.17576 0.0
C631 C 0.55554 0.40285 0.1869 0.0
C632 C 0.54368 0.41352 0.16606 0.0
H633 H 0.57815 0.47838 0.37092 0.0
H634 H 0.57351 0.46081 0.30269 0.0
C635 C 0.53182 0.40711 0.13519 0.0
C636 C 0.5675 0.41015 0.22097 0.0
H637 H 0.57541 0.41221 0.33671 0.0
C638 C 0.57773 0.42368 0.20702 0.0
C639 C 0.56716 0.40554 0.2681 0.0
C640 C 0.55616 0.39137 0.28535 0.0
C641 C 0.58676 0.43335 0.23927 0.0
C642 C 0.5855 0.42943 0.28662 0.0
C643 C 0.57634 0.41515 0.30026 0.0
C644 C 0.59117 0.44134 0.32295 0.0
C645 C 0.597 0.44814 0.2227 0.0
C646 C 0.60297 0.43642 0.35643 0.0
C647 C 0.60582 0.44659 0.39534 0.0
C648 C 0.59657 0.4616 0.40173 0.0
C649 C 0.58548 0.46691 0.36684 0.0
C650 C 0.58286 0.4569 0.32776 0.0
H651 H 0.60089 0.44651 0.18606 0.0
H652 H 0.58921 0.45977 0.22526 0.0
H653 H 0.60847 0.44993 0.24422 0.0
H654 H 0.60939 0.42437 0.35349 0.0
H655 H 0.6143 0.4421 0.42192 0.0
H656 H 0.10419 0.92186 0.34484 0.0
H657 H 0.09493 0.89865 0.29394 0.0
H658 H 0.06382 0.93349 0.21789 0.0
H659 H 0.07263 0.95644 0.26885 0.0
H660 H 0.0565 0.89185 0.28273 0.0
H661 H 0.0913 0.90332 0.11956 0.0
H662 H 0.09932 0.90964 0.17549 0.0
H663 H 0.08334 0.92204 0.14749 0.0
C664 C 0.09571 0.92457 0.3165 0.0
C665 C 0.0891 0.9409 0.31066 0.0
C666 C 0.09039 0.91134 0.28771 0.0
C667 C 0.07877 0.91444 0.25215 0.0
C668 C 0.07291 0.9309 0.24491 0.0
H669 H -0.00274 0.88771 0.10428 0.0
H670 H 0.01739 0.89191 0.16686 0.0
C671 C 0.07793 0.94398 0.27405 0.0
C672 C 0.07121 0.90056 0.22497 0.0
H673 H 0.06469 0.88891 0.11307 0.0
C674 C 0.05861 0.89075 0.24582 0.0
C675 C 0.07409 0.89909 0.17703 0.0
C676 C 0.08785 0.90897 0.15348 0.0
C677 C 0.04777 0.88068 0.21911 0.0
C678 C 0.04957 0.88055 0.17054 0.0
C679 C 0.06323 0.88906 0.15032 0.0
C680 C 0.03598 0.8744 0.13965 0.0
C681 C 0.03389 0.871 0.24279 0.0
C682 C 0.03947 0.86271 0.1043 0.0
C683 C 0.02785 0.86016 0.06853 0.0
C684 C 0.01277 0.86959 0.06715 0.0
C685 C 0.00876 0.88026 0.10447 0.0
C686 C 0.02025 0.88261 0.14042 0.0
H687 H 0.03758 0.86756 0.27853 0.0
H688 H 0.02241 0.87905 0.24502 0.0
H689 H 0.03066 0.85935 0.22335 0.0
H690 H 0.0516 0.85635 0.10289 0.0
H691 H 0.03135 0.85196 0.04004 0.0
H692 H 0.54739 0.10454 0.82426 0.0
H693 H 0.56944 0.0945 0.77078 0.0
H694 H 0.55315 0.04325 0.79205 0.0
H695 H 0.53168 0.05298 0.84586 0.0
H696 H 0.58739 0.04568 0.79255 0.0
H697 H 0.56048 0.07878 0.6399 0.0
H698 H 0.56646 0.0917 0.68829 0.0
H699 H 0.54911 0.07728 0.6937 0.0
C700 C 0.54858 0.09114 0.81753 0.0
C701 C 0.53771 0.07959 0.83917 0.0
C702 C 0.56114 0.08543 0.78689 0.0
C703 C 0.56283 0.06812 0.77704 0.0
C704 C 0.55215 0.05664 0.79921 0.0
H705 H 0.58639 -0.00658 0.59452 0.0
H706 H 0.58237 0.01108 0.663 0.0
C707 C 0.53979 0.06227 0.82991 0.0
C708 C 0.57512 0.06157 0.74251 0.0
H709 H 0.58182 0.05898 0.62621 0.0
C710 C 0.58643 0.04885 0.75626 0.0
C711 C 0.57396 0.06577 0.69517 0.0
C712 C 0.5618 0.07904 0.67808 0.0
C713 C 0.59565 0.03941 0.72369 0.0
C714 C 0.59354 0.04282 0.6763 0.0
C715 C 0.58338 0.05644 0.66272 0.0
C716 C 0.59923 0.03081 0.6402 0.0
C717 C 0.60693 0.0253 0.73998 0.0
C718 C 0.61045 0.03583 0.60534 0.0
C719 C 0.61297 0.0256 0.56635 0.0
C720 C 0.60393 0.01045 0.56128 0.0
C721 C 0.59353 0.00501 0.59758 0.0
C722 C 0.59127 0.01507 0.63678 0.0
H723 H 0.61104 0.02734 0.77625 0.0
H724 H 0.59985 0.01325 0.73839 0.0
H725 H 0.61828 0.02406 0.71759 0.0
H726 H 0.61657 0.04802 0.60723 0.0
H727 H 0.62093 0.03019 0.53868 0.0
H728 H 0.36905 0.54908 0.34358 0.0
H729 H 0.37733 0.57258 0.29281 0.0
H730 H 0.41253 0.53979 0.2222 0.0
H731 H 0.4047 0.51661 0.27292 0.0
H732 H 0.41725 0.58133 0.28249 0.0
H733 H 0.38148 0.56755 0.12204 0.0
H734 H 0.37377 0.56204 0.17885 0.0
H735 H 0.38985 0.54944 0.15152 0.0
C736 C 0.37828 0.54687 0.31654 0.0
C737 C 0.38628 0.53108 0.31212 0.0
C738 C 0.38304 0.56028 0.28784 0.0
C739 C 0.3955 0.55783 0.25387 0.0
C740 C 0.40284 0.54187 0.24813 0.0
H741 H 0.47481 0.58543 0.10031 0.0
H742 H 0.45521 0.58139 0.16427 0.0
C743 C 0.39836 0.52866 0.27712 0.0
C744 C 0.40219 0.57192 0.22618 0.0
H745 H 0.40734 0.58296 0.11356 0.0
C746 C 0.41473 0.58216 0.24577 0.0
C747 C 0.39879 0.57302 0.17849 0.0
C748 C 0.38514 0.56253 0.15634 0.0
C749 C 0.42506 0.59232 0.21797 0.0
C750 C 0.4228 0.59206 0.16956 0.0
C751 C 0.40913 0.58312 0.15068 0.0
C752 C 0.43602 0.59818 0.13743 0.0
C753 C 0.43891 0.60248 0.24033 0.0
C754 C 0.432 0.6094 0.10172 0.0
C755 C 0.44332 0.61184 0.06511 0.0
C756 C 0.45862 0.60277 0.06325 0.0
C757 C 0.46312 0.59258 0.10083 0.0
C758 C 0.45194 0.59034 0.13758 0.0
H759 H 0.43539 0.60622 0.2761 0.0
H760 H 0.45054 0.59466 0.24227 0.0
H761 H 0.4418 0.61399 0.22016 0.0
H762 H 0.41972 0.61546 0.10077 0.0
H763 H 0.43943 0.61966 0.03647 0.0
H764 H 0.94301 0.41497 0.85938 0.0
H765 H 0.92368 0.4241 0.79963 0.0
H766 H 0.91932 0.37288 0.75024 0.0
H767 H 0.93918 0.36356 0.81003 0.0
H768 H 0.92677 0.39383 0.68201 0.0
H769 H 0.87372 0.4218 0.77906 0.0
H770 H 0.89322 0.43018 0.80038 0.0
H771 H 0.88894 0.40794 0.80584 0.0
C772 C 0.9378 0.40553 0.83636 0.0
C773 C 0.94276 0.38852 0.83937 0.0
C774 C 0.92652 0.41077 0.80246 0.0
C775 C 0.91972 0.39915 0.77099 0.0
C776 C 0.92425 0.38205 0.77455 0.0
H777 H 0.86091 0.44609 0.54454 0.0
H778 H 0.86661 0.42773 0.61099 0.0
C779 C 0.93562 0.37675 0.80864 0.0
C780 C 0.90982 0.40545 0.73116 0.0
H781 H 0.87955 0.43447 0.70333 0.0
C782 C 0.91614 0.40234 0.68662 0.0
C783 C 0.89574 0.41635 0.73683 0.0
C784 C 0.88742 0.41909 0.78315 0.0
C785 C 0.90978 0.411 0.64832 0.0
C786 C 0.89701 0.4233 0.65488 0.0
C787 C 0.8896 0.42529 0.69858 0.0
C788 C 0.89271 0.43537 0.6179 0.0
C789 C 0.91732 0.40744 0.60136 0.0
C790 C 0.90526 0.44623 0.6014 0.0
C791 C 0.90207 0.45666 0.56387 0.0
C792 C 0.8862 0.45656 0.54217 0.0
C793 C 0.87326 0.44644 0.56055 0.0
C794 C 0.87651 0.4359 0.59828 0.0
H795 H 0.92274 0.39451 0.59947 0.0
H796 H 0.90772 0.40884 0.5737 0.0
H797 H 0.92768 0.41651 0.59473 0.0
H798 H 0.91772 0.4463 0.61684 0.0
H799 H 0.91226 0.46444 0.55098 0.0
H800 H 0.94358 0.35471 0.03918 0.0
H801 H 0.92231 0.35897 0.09992 0.0
H802 H 0.95221 0.39924 0.15764 0.0
H803 H 0.97341 0.3951 0.09739 0.0
H804 H 0.93419 0.37816 0.22481 0.0
H805 H 0.8939 0.40329 0.08283 0.0
H806 H 0.9021 0.38216 0.07802 0.0
H807 H 0.91625 0.39975 0.07483 0.0
C808 C 0.94591 0.36405 0.0658 0.0
C809 C 0.96006 0.37473 0.0632 0.0
C810 C 0.93368 0.36654 0.10026 0.0
C811 C 0.93556 0.37961 0.13269 0.0
C812 C 0.95049 0.38912 0.1328 0.0
H813 H 0.89754 0.45914 0.26695 0.0
H814 H 0.90625 0.43659 0.21442 0.0
C815 C 0.9626 0.38675 0.09831 0.0
C816 C 0.92135 0.38522 0.16244 0.0
H817 H 0.88651 0.41069 0.15843 0.0
C818 C 0.92341 0.38478 0.21051 0.0
C819 C 0.90737 0.39393 0.14349 0.0
C820 C 0.90467 0.39494 0.092 0.0
C821 C 0.91255 0.39388 0.23996 0.0
C822 C 0.89939 0.40367 0.22069 0.0
C823 C 0.89654 0.40304 0.17297 0.0
C824 C 0.89129 0.41736 0.24774 0.0
C825 C 0.91611 0.39423 0.29111 0.0
C826 C 0.87941 0.41412 0.28268 0.0
C827 C 0.87417 0.42716 0.31247 0.0
C828 C 0.88101 0.44341 0.30785 0.0
C829 C 0.89208 0.44673 0.27113 0.0
C830 C 0.89706 0.43386 0.24116 0.0
H831 H 0.92686 0.38591 0.30061 0.0
H832 H 0.91905 0.40731 0.30227 0.0
H833 H 0.90472 0.39012 0.31038 0.0
H834 H 0.87481 0.40143 0.28816 0.0
H835 H 0.86578 0.42428 0.34093 0.0
H836 H 0.04468 0.90306 0.89352 0.0
H837 H 0.06277 0.91615 0.83538 0.0
H838 H 0.04146 0.88372 0.73068 0.0
H839 H 0.02396 0.86995 0.78945 0.0
H840 H 0.07448 0.89051 0.7127 0.0
H841 H 0.04012 0.94992 0.75348 0.0
H842 H 0.05156 0.9415 0.80151 0.0
H843 H 0.03406 0.92995 0.77758 0.0
C844 C 0.04418 0.89846 0.85826 0.0
C845 C 0.03281 0.88566 0.84573 0.0
C846 C 0.05443 0.90602 0.82504 0.0
C847 C 0.05305 0.90132 0.77843 0.0
C848 C 0.04263 0.88765 0.76641 0.0
H849 H 0.05837 0.96065 0.53904 0.0
H850 H 0.05248 0.94522 0.60924 0.0
C851 C 0.03265 0.87978 0.79994 0.0
C852 C 0.06106 0.91168 0.74186 0.0
H853 H 0.06116 0.95134 0.69654 0.0
C854 C 0.07168 0.90384 0.70926 0.0
C855 C 0.05723 0.92906 0.73717 0.0
C856 C 0.045 0.93809 0.76898 0.0
C857 C 0.07824 0.9128 0.67147 0.0
C858 C 0.07438 0.93016 0.66688 0.0
C859 C 0.06424 0.93808 0.70037 0.0
C860 C 0.07869 0.93987 0.62479 0.0
C861 C 0.08853 0.90344 0.63564 0.0
C862 C 0.09548 0.9423 0.61034 0.0
C863 C 0.09895 0.95112 0.56951 0.0
C864 C 0.08566 0.95776 0.54286 0.0
C865 C 0.06895 0.95573 0.55849 0.0
C866 C 0.06553 0.94688 0.59878 0.0
H867 H 0.08759 0.88955 0.63967 0.0
H868 H 0.08434 0.90681 0.60029 0.0
H869 H 0.10201 0.90701 0.63911 0.0
H870 H 0.10586 0.93732 0.63043 0.0
H871 H 0.11195 0.95249 0.55848 0.0
H872 H 0.55989 0.02409 0.3448 0.0
H873 H 0.54919 0.0451 0.29162 0.0
H874 H 0.59965 0.06427 0.27193 0.0
H875 H 0.61067 0.04274 0.32478 0.0
H876 H 0.54982 0.07947 0.29363 0.0
H877 H 0.58495 0.05481 0.14037 0.0
H878 H 0.58375 0.04323 0.19367 0.0
H879 H 0.5974 0.06121 0.18917 0.0
C880 C 0.5688 0.03274 0.32933 0.0
C881 C 0.58619 0.03162 0.33885 0.0
C882 C 0.56261 0.04483 0.29898 0.0
C883 C 0.5736 0.05618 0.27743 0.0
C884 C 0.59096 0.05544 0.28755 0.0
H885 H 0.53484 0.11352 0.0407 0.0
H886 H 0.55248 0.10938 0.10938 0.0
C887 C 0.59723 0.04317 0.31784 0.0
C888 C 0.56655 0.0682 0.24331 0.0
H889 H 0.56437 0.07541 0.12737 0.0
C890 C 0.55324 0.07884 0.25737 0.0
C891 C 0.57107 0.06746 0.19602 0.0
C892 C 0.58499 0.05601 0.1786 0.0
C893 C 0.54361 0.08784 0.22511 0.0
C894 C 0.54741 0.08617 0.17768 0.0
C895 C 0.56154 0.07665 0.16389 0.0
C896 C 0.53543 0.09169 0.14154 0.0
C897 C 0.52897 0.09847 0.24176 0.0
C898 C 0.51982 0.08345 0.1376 0.0
C899 C 0.50987 0.08562 0.09835 0.0
C900 C 0.51528 0.09617 0.06247 0.0
C901 C 0.53027 0.10544 0.06805 0.0
C902 C 0.5404 0.10304 0.10712 0.0
H903 H 0.53075 0.10256 0.27817 0.0
H904 H 0.5273 0.10979 0.2198 0.0
H905 H 0.51721 0.09091 0.23994 0.0
H906 H 0.51587 0.07444 0.16342 0.0
H907 H 0.4984 0.07828 0.0949 0.0
H908 H 0.4144 0.50559 0.54712 0.0
H909 H 0.41863 0.52017 0.61995 0.0
H910 H 0.3654 0.53177 0.62729 0.0
H911 H 0.36104 0.51739 0.55287 0.0
H912 H 0.3848 0.55939 0.64495 0.0
H913 H 0.40796 0.50646 0.74991 0.0
H914 H 0.41976 0.50758 0.69719 0.0
H915 H 0.39741 0.50322 0.69538 0.0
C916 C 0.40348 0.51099 0.56434 0.0
C917 C 0.38736 0.51027 0.5441 0.0
C918 C 0.40592 0.51926 0.60629 0.0
C919 C 0.39229 0.52682 0.62955 0.0
C920 C 0.37607 0.52589 0.61006 0.0
H921 H 0.42728 0.56614 0.89355 0.0
H922 H 0.40824 0.55277 0.83819 0.0
C923 C 0.37359 0.51761 0.5677 0.0
C924 C 0.39555 0.53656 0.67246 0.0
H925 H 0.41783 0.53425 0.77269 0.0
C926 C 0.39169 0.55386 0.67348 0.0
C927 C 0.40416 0.5293 0.7102 0.0
C928 C 0.40738 0.51058 0.71333 0.0
C929 C 0.39731 0.56429 0.70969 0.0
C930 C 0.40749 0.5573 0.74497 0.0
C931 C 0.41027 0.53979 0.74544 0.0
C932 C 0.41639 0.56779 0.78004 0.0
C933 C 0.3924 0.58268 0.70933 0.0
C934 C 0.42693 0.58115 0.76639 0.0
C935 C 0.43751 0.58914 0.79842 0.0
C936 C 0.43809 0.58352 0.84424 0.0
C937 C 0.4271 0.57065 0.8583 0.0
C938 C 0.41623 0.563 0.82666 0.0
H939 H 0.37989 0.58448 0.69267 0.0
H940 H 0.39186 0.58806 0.74477 0.0
H941 H 0.40181 0.58983 0.68888 0.0
H942 H 0.42774 0.5848 0.7305 0.0
H943 H 0.44603 0.59889 0.78665 0.0
H944 H 0.87288 0.04275 0.64609 0.0
H945 H 0.88431 0.06432 0.69854 0.0
H946 H 0.93493 0.04763 0.66644 0.0
H947 H 0.9238 0.02651 0.61389 0.0
H948 H 0.90278 0.05929 0.77517 0.0
H949 H 0.94056 0.09775 0.6557 0.0
H950 H 0.92469 0.08313 0.63559 0.0
H951 H 0.94579 0.0759 0.64848 0.0
C952 C 0.88645 0.04384 0.64984 0.0
C953 C 0.89741 0.0329 0.62568 0.0
C954 C 0.89296 0.05619 0.6797 0.0
C955 C 0.9105 0.05788 0.68554 0.0
C956 C 0.92139 0.04698 0.66138 0.0
H957 H 0.98419 0.07768 0.87543 0.0
H958 H 0.96659 0.07316 0.80736 0.0
C959 C 0.91495 0.03474 0.63165 0.0
C960 C 0.91767 0.06976 0.72007 0.0
H961 H 0.95057 0.097 0.73571 0.0
C962 C 0.91287 0.06795 0.76645 0.0
C963 C 0.93076 0.08116 0.70866 0.0
C964 C 0.9356 0.08473 0.65928 0.0
C965 C 0.92181 0.07605 0.80196 0.0
C966 C 0.93584 0.08626 0.79066 0.0
C967 C 0.93987 0.08907 0.7442 0.0
C968 C 0.94785 0.09181 0.82669 0.0
C969 C 0.91703 0.07267 0.85152 0.0
C970 C 0.9435 0.10438 0.85889 0.0
C971 C 0.95366 0.10712 0.89775 0.0
C972 C 0.96815 0.09716 0.90505 0.0
C973 C 0.97307 0.08549 0.87087 0.0
C974 C 0.96303 0.0829 0.83194 0.0
H975 H 0.90635 0.06367 0.85446 0.0
H976 H 0.92806 0.06747 0.87045 0.0
H977 H 0.91333 0.08467 0.86867 0.0
H978 H 0.93183 0.11141 0.8552 0.0
H979 H 0.94952 0.11616 0.92359 0.0
H980 H 0.38944 0.9742 0.37227 0.0
H981 H 0.39324 0.9545 0.3082 0.0
H982 H 0.35769 0.92035 0.37072 0.0
H983 H 0.35367 0.94023 0.43501 0.0
H984 H 0.39045 0.90719 0.35932 0.0
H985 H 0.36841 0.93505 0.19573 0.0
H986 H 0.37988 0.95004 0.23003 0.0
H987 H 0.36026 0.94163 0.25139 0.0
C988 C 0.38188 0.96283 0.37139 0.0
C989 C 0.37132 0.95872 0.40866 0.0
C990 C 0.384 0.95159 0.33462 0.0
C991 C 0.3757 0.93597 0.33456 0.0
C992 C 0.3641 0.9324 0.36992 0.0
H993 H 0.42429 0.86745 0.1298 0.0
H994 H 0.40091 0.87635 0.18099 0.0
C995 C 0.36176 0.94381 0.40649 0.0
C996 C 0.38177 0.92253 0.30283 0.0
H997 H 0.39298 0.91634 0.19021 0.0
C998 C 0.39048 0.90882 0.32216 0.0
C999 C 0.38178 0.9246 0.25439 0.0
C1000 C 0.37192 0.93855 0.23164 0.0
C1001 C 0.40062 0.89822 0.29472 0.0
C1002 C 0.40197 0.90138 0.24698 0.0
C1003 C 0.39195 0.914 0.22697 0.0
C1004 C 0.41602 0.89422 0.21948 0.0
C1005 C 0.41086 0.88451 0.31732 0.0
C1006 C 0.43216 0.90117 0.22489 0.0
C1007 C 0.44531 0.89633 0.19563 0.0
C1008 C 0.44265 0.88428 0.16074 0.0
C1009 C 0.42669 0.87664 0.15679 0.0
C1010 C 0.41335 0.88176 0.18572 0.0
H1011 H 0.40569 0.88115 0.35175 0.0
H1012 H 0.41123 0.87304 0.29517 0.0
H1013 H 0.42405 0.88896 0.32196 0.0
H1014 H 0.43441 0.91087 0.25064 0.0
H1015 H 0.45749 0.90241 0.19942 0.0
H1016 H 0.49553 0.39003 0.86608 0.0
H1017 H 0.51324 0.3948 0.79839 0.0
H1018 H 0.551 0.36105 0.85286 0.0
H1019 H 0.53312 0.35601 0.92079 0.0
H1020 H 0.56186 0.39508 0.83553 0.0
H1021 H 0.52952 0.36785 0.6835 0.0
H1022 H 0.5154 0.37909 0.72137 0.0
H1023 H 0.52593 0.36041 0.74162 0.0
C1024 C 0.50734 0.38316 0.8629 0.0
C1025 C 0.51296 0.37267 0.89868 0.0
C1026 C 0.51743 0.38584 0.82411 0.0
C1027 C 0.53339 0.3782 0.8205 0.0
C1028 C 0.53865 0.36694 0.85486 0.0
H1029 H 0.60693 0.43001 0.63779 0.0
H1030 H 0.5967 0.40799 0.69024 0.0
C1031 C 0.52839 0.36401 0.89348 0.0
C1032 C 0.5453 0.38422 0.78469 0.0
H1033 H 0.54755 0.39187 0.66915 0.0
C1034 C 0.5591 0.39401 0.79896 0.0
C1035 C 0.54162 0.38277 0.73717 0.0
C1036 C 0.5274 0.37182 0.71991 0.0
C1037 C 0.56835 0.40369 0.76729 0.0
C1038 C 0.56386 0.40321 0.72003 0.0
C1039 C 0.55093 0.39231 0.70541 0.0
C1040 C 0.57047 0.41571 0.68664 0.0
C1041 C 0.58192 0.41535 0.78518 0.0
C1042 C 0.55912 0.42709 0.66651 0.0
C1043 C 0.56485 0.43949 0.63649 0.0
C1044 C 0.58214 0.44088 0.62582 0.0
C1045 C 0.59356 0.42936 0.64559 0.0
C1046 C 0.58774 0.4168 0.67564 0.0
H1047 H 0.58202 0.41609 0.8235 0.0
H1048 H 0.59447 0.41069 0.77358 0.0
H1049 H 0.58014 0.42826 0.77132 0.0
H1050 H 0.54575 0.42655 0.67462 0.0
H1051 H 0.55567 0.44811 0.62198 0.0
H1052 H 0.12126 0.5385 0.44205 0.0
H1053 H 0.11672 0.55758 0.37668 0.0
H1054 H 0.08374 0.52099 0.31351 0.0
H1055 H 0.08799 0.50203 0.37868 0.0
H1056 H 0.10902 0.54302 0.25179 0.0
H1057 H 0.06463 0.57632 0.37155 0.0
H1058 H 0.08569 0.57081 0.38998 0.0
H1059 H 0.07029 0.55457 0.3814 0.0
C1060 C 0.11355 0.53427 0.41339 0.0
C1061 C 0.10486 0.51884 0.41556 0.0
C1062 C 0.11091 0.54522 0.37625 0.0
C1063 C 0.09979 0.5407 0.34066 0.0
C1064 C 0.09238 0.52467 0.34073 0.0
H1065 H 0.03791 0.55775 0.12317 0.0
H1066 H 0.06047 0.55062 0.17586 0.0
C1067 C 0.09482 0.51385 0.37797 0.0
C1068 C 0.09375 0.55322 0.30682 0.0
H1069 H 0.06141 0.58121 0.29234 0.0
C1070 C 0.09894 0.55175 0.2607 0.0
C1071 C 0.08076 0.56474 0.31871 0.0
C1072 C 0.07491 0.56683 0.36804 0.0
C1073 C 0.0906 0.56064 0.22563 0.0
C1074 C 0.07639 0.57077 0.23697 0.0
C1075 C 0.07222 0.57339 0.28357 0.0
C1076 C 0.06397 0.57607 0.20146 0.0
C1077 C 0.09667 0.55853 0.17655 0.0
C1078 C 0.05801 0.59277 0.19889 0.0
C1079 C 0.04475 0.59693 0.16879 0.0
C1080 C 0.03715 0.58438 0.14135 0.0
C1081 C 0.0434 0.56778 0.1437 0.0
C1082 C 0.05654 0.56369 0.17348 0.0
H1083 H 0.11061 0.55682 0.17545 0.0
H1084 H 0.09091 0.54703 0.16137 0.0
H1085 H 0.09322 0.56954 0.15496 0.0
H1086 H 0.06339 0.60248 0.22073 0.0
H1087 H 0.04021 0.60982 0.16784 0.0
H1088 H 0.90521 0.53225 0.39566 0.0
H1089 H 0.90944 0.5564 0.34722 0.0
H1090 H 0.85796 0.55285 0.29891 0.0
H1091 H 0.85403 0.52742 0.34576 0.0
H1092 H 0.87529 0.55542 0.22941 0.0
H1093 H 0.90225 0.60431 0.338 0.0
H1094 H 0.91434 0.58605 0.35241 0.0
H1095 H 0.89181 0.58643 0.36359 0.0
C1096 C 0.89457 0.53676 0.37569 0.0
C1097 C 0.87935 0.52767 0.37412 0.0
C1098 C 0.89694 0.55093 0.3483 0.0
C1099 C 0.88399 0.55687 0.3195 0.0
C1100 C 0.86821 0.54863 0.32076 0.0
H1101 H 0.94733 0.6177 0.13764 0.0
H1102 H 0.92197 0.61444 0.18619 0.0
C1103 C 0.86591 0.53413 0.3478 0.0
C1104 C 0.88828 0.56938 0.28285 0.0
H1105 H 0.91802 0.59948 0.26197 0.0
C1106 C 0.88416 0.56547 0.23684 0.0
C1107 C 0.89916 0.58323 0.29138 0.0
C1108 C 0.90189 0.59031 0.3392 0.0
C1109 C 0.89253 0.57323 0.19986 0.0
C1110 C 0.90603 0.58446 0.20906 0.0
C1111 C 0.90828 0.59027 0.25452 0.0
C1112 C 0.91967 0.58752 0.17443 0.0
C1113 C 0.88733 0.56861 0.15135 0.0
C1114 C 0.92684 0.57363 0.15139 0.0
C1115 C 0.94099 0.5755 0.1234 0.0
C1116 C 0.94885 0.59128 0.11841 0.0
C1117 C 0.94157 0.60538 0.14057 0.0
C1118 C 0.92709 0.60351 0.16841 0.0
H1119 H 0.87335 0.56767 0.14908 0.0
H1120 H 0.89177 0.57798 0.12572 0.0
H1121 H 0.89254 0.55601 0.14228 0.0
H1122 H 0.922 0.56103 0.15669 0.0
H1123 H 0.9462 0.56428 0.10722 0.0
H1124 H 0.89133 0.93315 0.55164 0.0
H1125 H 0.89823 0.91054 0.60545 0.0
H1126 H 0.87513 0.93902 0.71631 0.0
H1127 H 0.86741 0.96118 0.66189 0.0
H1128 H 0.92007 0.9159 0.66836 0.0
H1129 H 0.86307 0.89308 0.75812 0.0
H1130 H 0.86185 0.90525 0.70571 0.0
H1131 H 0.86417 0.91562 0.76087 0.0
C1132 C 0.88705 0.93419 0.5871 0.0
C1133 C 0.87881 0.94887 0.60262 0.0
C1134 C 0.89107 0.9213 0.61794 0.0
C1135 C 0.88725 0.92297 0.66518 0.0
C1136 C 0.8779 0.93712 0.68004 0.0
H1137 H 0.93886 0.90004 0.91032 0.0
H1138 H 0.91769 0.90761 0.85276 0.0
C1139 C 0.8735 0.94986 0.64886 0.0
C1140 C 0.89565 0.9117 0.69931 0.0
H1141 H 0.88965 0.88984 0.79958 0.0
C1142 C 0.91329 0.90985 0.69631 0.0
C1143 C 0.88693 0.90388 0.73622 0.0
C1144 C 0.86794 0.90442 0.74013 0.0
C1145 C 0.9225 0.90115 0.72997 0.0
C1146 C 0.91389 0.89396 0.76782 0.0
C1147 C 0.89621 0.89531 0.7704 0.0
C1148 C 0.92345 0.88673 0.80706 0.0
C1149 C 0.94153 0.90047 0.72606 0.0
C1150 C 0.93311 0.87196 0.80155 0.0
C1151 C 0.94524 0.86754 0.83459 0.0
C1152 C 0.94796 0.87793 0.87338 0.0
C1153 C 0.93718 0.89184 0.88065 0.0
C1154 C 0.92501 0.89617 0.84785 0.0
H1155 H 0.9464 0.90854 0.69779 0.0
H1156 H 0.94746 0.90456 0.75898 0.0
H1157 H 0.94558 0.88729 0.71908 0.0
H1158 H 0.93202 0.86448 0.7703 0.0
H1159 H 0.95334 0.85676 0.82792 0.0
H1160 H 0.54 0.89114 0.05043 0.0
H1161 H 0.56472 0.89831 0.09695 0.0
H1162 H 0.54283 0.8723 0.21305 0.0
H1163 H 0.51863 0.86429 0.16556 0.0
H1164 H 0.56076 0.91897 0.16334 0.0
H1165 H 0.59104 0.86297 0.23926 0.0
H1166 H 0.57678 0.86141 0.19082 0.0
H1167 H 0.56869 0.86241 0.24904 0.0
C1168 C 0.54092 0.88624 0.08519 0.0
C1169 C 0.52749 0.87711 0.10441 0.0
C1170 C 0.555 0.89041 0.1119 0.0
C1171 C 0.55574 0.88591 0.15874 0.0
C1172 C 0.54289 0.87562 0.17686 0.0
H1173 H 0.58202 0.93521 0.40289 0.0
H1174 H 0.57542 0.91405 0.34422 0.0
C1175 C 0.52898 0.87106 0.14968 0.0
C1176 C 0.56785 0.89465 0.19014 0.0
H1177 H 0.5936 0.88915 0.28366 0.0
C1178 C 0.56831 0.91236 0.18873 0.0
C1179 C 0.57764 0.88615 0.22373 0.0
C1180 C 0.57864 0.86717 0.22545 0.0
C1181 C 0.57744 0.92179 0.22119 0.0
C1182 C 0.58654 0.91332 0.25613 0.0
C1183 C 0.58667 0.89561 0.25673 0.0
C1184 C 0.59399 0.92289 0.29521 0.0
C1185 C 0.57645 0.9408 0.21955 0.0
C1186 C 0.60732 0.93427 0.28816 0.0
C1187 C 0.61117 0.94644 0.32182 0.0
C1188 C 0.60164 0.94741 0.3628 0.0
C1189 C 0.58948 0.93489 0.37149 0.0
C1190 C 0.58573 0.92273 0.33804 0.0
H1191 H 0.56702 0.94533 0.19403 0.0
H1192 H 0.57305 0.94601 0.25402 0.0
H1193 H 0.58898 0.94595 0.20983 0.0
H1194 H 0.61392 0.93452 0.25536 0.0
H1195 H 0.6206 0.95589 0.31407 0.0
H1196 H 0.58319 0.54021 0.54753 0.0
H1197 H 0.57512 0.56277 0.60102 0.0
H1198 H 0.59893 0.53582 0.71255 0.0
H1199 H 0.60781 0.51374 0.65846 0.0
H1200 H 0.55325 0.55681 0.66358 0.0
H1201 H 0.60888 0.58243 0.75419 0.0
H1202 H 0.61082 0.57007 0.70191 0.0
H1203 H 0.6087 0.55987 0.75712 0.0
C1204 C 0.58737 0.53953 0.58307 0.0
C1205 C 0.59617 0.52528 0.59886 0.0
C1206 C 0.58268 0.55238 0.61373 0.0
C1207 C 0.58636 0.5511 0.66106 0.0
C1208 C 0.59624 0.53742 0.67621 0.0
H1209 H 0.53307 0.57352 0.90542 0.0
H1210 H 0.55462 0.56637 0.84809 0.0
C1211 C 0.6013 0.52473 0.64522 0.0
C1212 C 0.57735 0.56219 0.69493 0.0
H1213 H 0.58203 0.58484 0.79499 0.0
C1214 C 0.55966 0.56329 0.69157 0.0
C1215 C 0.58558 0.57056 0.73191 0.0
C1216 C 0.60456 0.57081 0.7362 0.0
C1217 C 0.54996 0.5718 0.72492 0.0
C1218 C 0.55811 0.57955 0.76283 0.0
C1219 C 0.57582 0.57893 0.76577 0.0
C1220 C 0.5481 0.58664 0.80177 0.0
C1221 C 0.53093 0.57168 0.72064 0.0
C1222 C 0.53785 0.60096 0.79582 0.0
C1223 C 0.5255 0.60515 0.82874 0.0
C1224 C 0.52315 0.59497 0.86785 0.0
C1225 C 0.53446 0.58154 0.87549 0.0
C1226 C 0.54684 0.57746 0.84282 0.0
H1227 H 0.52652 0.56323 0.69246 0.0
H1228 H 0.52504 0.56757 0.75353 0.0
H1229 H 0.52639 0.58464 0.71327 0.0
H1230 H 0.53869 0.60825 0.76438 0.0
H1231 H 0.51699 0.61555 0.82178 0.0
H1232 H 0.11164 0.46425 0.66845 0.0
H1233 H 0.10254 0.44172 0.72013 0.0
H1234 H 0.07452 0.41884 0.60859 0.0
H1235 H 0.08285 0.44188 0.55779 0.0
H1236 H 0.05466 0.42431 0.67646 0.0
H1237 H 0.11123 0.39372 0.74986 0.0
H1238 H 0.11211 0.41614 0.7575 0.0
H1239 H 0.11238 0.40727 0.70006 0.0
C1240 C 0.10407 0.45406 0.6546 0.0
C1241 C 0.09792 0.45481 0.60919 0.0
C1242 C 0.09889 0.4411 0.68417 0.0
C1243 C 0.08786 0.42842 0.66841 0.0
C1244 C 0.08297 0.42845 0.62177 0.0
H1245 H 0.0205 0.36136 0.82323 0.0
H1246 H 0.04165 0.36979 0.76581 0.0
C1247 C 0.08779 0.44159 0.59264 0.0
C1248 C 0.07922 0.41696 0.70161 0.0
H1249 H 0.08533 0.39114 0.79451 0.0
C1250 C 0.06145 0.41676 0.70147 0.0
C1251 C 0.08796 0.40716 0.73474 0.0
C1252 C 0.10698 0.40595 0.73525 0.0
C1253 C 0.05223 0.40765 0.73428 0.0
C1254 C 0.06095 0.39839 0.76838 0.0
C1255 C 0.07869 0.3982 0.76817 0.0
C1256 C 0.05156 0.39037 0.80678 0.0
C1257 C 0.03317 0.40859 0.73357 0.0
C1258 C 0.05076 0.3986 0.84966 0.0
C1259 C 0.03867 0.39389 0.88234 0.0
C1260 C 0.02721 0.38078 0.87282 0.0
C1261 C 0.02917 0.37145 0.8317 0.0
C1262 C 0.04121 0.37629 0.79877 0.0
H1263 H 0.0284 0.41785 0.70802 0.0
H1264 H 0.02797 0.39601 0.72458 0.0
H1265 H 0.02825 0.41213 0.76823 0.0
H1266 H 0.05861 0.4095 0.85647 0.0
H1267 H 0.03755 0.40126 0.91379 0.0
H1268 H 0.04358 0.0785 0.06499 0.0
H1269 H 0.06442 0.07242 0.12458 0.0
H1270 H 0.04278 0.11119 0.21136 0.0
H1271 H 0.02166 0.1173 0.15177 0.0
H1272 H 0.08871 0.09022 0.18465 0.0
H1273 H 0.03176 0.0654 0.27504 0.0
H1274 H 0.03134 0.07117 0.21494 0.0
H1275 H 0.03144 0.08724 0.25883 0.0
C1276 C 0.04357 0.08614 0.09612 0.0
C1277 C 0.03077 0.09817 0.10401 0.0
C1278 C 0.05556 0.08267 0.13012 0.0
C1279 C 0.05495 0.09112 0.1727 0.0
C1280 C 0.04334 0.10441 0.17884 0.0
H1281 H 0.08502 0.03863 0.42045 0.0
H1282 H 0.07865 0.06319 0.3729 0.0
C1283 C 0.03134 0.10794 0.14464 0.0
C1284 C 0.06429 0.08391 0.21242 0.0
H1285 H 0.05796 0.05912 0.30662 0.0
C1286 C 0.08205 0.08368 0.21193 0.0
C1287 C 0.05556 0.0753 0.24781 0.0
C1288 C 0.03649 0.07462 0.24935 0.0
C1289 C 0.09129 0.07475 0.24545 0.0
C1290 C 0.08252 0.06545 0.27953 0.0
C1291 C 0.06477 0.0663 0.28085 0.0
C1292 C 0.09098 0.05341 0.31152 0.0
C1293 C 0.11032 0.07529 0.24369 0.0
C1294 C 0.10102 0.04016 0.29397 0.0
C1295 C 0.10513 0.02631 0.32173 0.0
C1296 C 0.09888 0.02532 0.36702 0.0
C1297 C 0.09009 0.03916 0.3857 0.0
C1298 C 0.08635 0.05316 0.3584 0.0
H1299 H 0.11479 0.08744 0.22921 0.0
H1300 H 0.11597 0.0736 0.27843 0.0
H1301 H 0.11498 0.06506 0.22066 0.0
H1302 H 0.10444 0.03974 0.25778 0.0
H1303 H 0.11164 0.01565 0.30625 0.0
H1304 H 0.3595 0.02846 0.61647 0.0
H1305 H 0.36638 0.05317 0.66451 0.0
H1306 H 0.41951 0.04362 0.64235 0.0
H1307 H 0.41283 0.01994 0.59324 0.0
H1308 H 0.38083 0.05496 0.74217 0.0
H1309 H 0.42111 0.09257 0.62981 0.0
H1310 H 0.40833 0.07569 0.60686 0.0
H1311 H 0.42954 0.07166 0.62736 0.0
C1312 C 0.37261 0.03197 0.62091 0.0
C1313 C 0.38557 0.0222 0.60076 0.0
C1314 C 0.37655 0.04608 0.64847 0.0
C1315 C 0.39351 0.05064 0.65638 0.0
C1316 C 0.40633 0.04098 0.63553 0.0
H1317 H 0.44593 0.0666 0.89058 0.0
H1318 H 0.42378 0.06163 0.83526 0.0
C1319 C 0.40244 0.02717 0.6077 0.0
C1320 C 0.39825 0.06397 0.69053 0.0
H1321 H 0.4304 0.09144 0.71228 0.0
C1322 C 0.39134 0.06332 0.7352 0.0
C1323 C 0.41141 0.07563 0.68171 0.0
C1324 C 0.41781 0.07904 0.63357 0.0
C1325 C 0.39861 0.07233 0.77203 0.0
C1326 C 0.4137 0.08154 0.76453 0.0
C1327 C 0.41924 0.08392 0.7189 0.0
C1328 C 0.42533 0.08621 0.80311 0.0
C1329 C 0.3903 0.07136 0.81884 0.0
C1330 C 0.43404 0.10169 0.80387 0.0
C1331 C 0.44734 0.10443 0.83517 0.0
C1332 C 0.45213 0.09172 0.86628 0.0
C1333 C 0.44267 0.07673 0.86724 0.0
C1334 C 0.42968 0.07393 0.83577 0.0
H1335 H 0.37632 0.0717 0.81522 0.0
H1336 H 0.39358 0.05917 0.83525 0.0
H1337 H 0.39423 0.08187 0.84187 0.0
H1338 H 0.43106 0.11139 0.77896 0.0
H1339 H 0.45437 0.1161 0.83338 0.0
H1340 H 0.45919 0.36161 0.15156 0.0
H1341 H 0.43624 0.36995 0.20343 0.0
H1342 H 0.40938 0.39182 0.08872 0.0
H1343 H 0.43282 0.38435 0.03744 0.0
H1344 H 0.41414 0.41433 0.14987 0.0
H1345 H 0.38967 0.35921 0.2434 0.0
H1346 H 0.41224 0.35987 0.24759 0.0
H1347 H 0.40242 0.35702 0.19193 0.0
C1348 C 0.44806 0.36755 0.13714 0.0
C1349 C 0.44778 0.37238 0.09057 0.0
C1350 C 0.43485 0.37229 0.16685 0.0
C1351 C 0.42094 0.38151 0.15017 0.0
C1352 C 0.41995 0.38477 0.10259 0.0
H1353 H 0.35864 0.45293 0.31063 0.0
H1354 H 0.36384 0.43035 0.25399 0.0
C1355 C 0.43331 0.38043 0.0732 0.0
C1356 C 0.40938 0.3905 0.18285 0.0
H1357 H 0.38725 0.38632 0.28373 0.0
C1358 C 0.40786 0.40808 0.17832 0.0
C1359 C 0.40123 0.38247 0.22036 0.0
C1360 C 0.40134 0.36357 0.22578 0.0
C1361 C 0.39935 0.41791 0.21136 0.0
C1362 C 0.39199 0.40999 0.25011 0.0
C1363 C 0.39284 0.39236 0.25389 0.0
C1364 C 0.38561 0.42021 0.28954 0.0
C1365 C 0.39927 0.43686 0.20606 0.0
C1366 C 0.39543 0.42126 0.32965 0.0
C1367 C 0.39252 0.4341 0.36187 0.0
C1368 C 0.37965 0.44608 0.35471 0.0
C1369 C 0.36863 0.44388 0.31712 0.0
C1370 C 0.37164 0.43104 0.28462 0.0
H1371 H 0.40746 0.4411 0.17719 0.0
H1372 H 0.38619 0.44123 0.19911 0.0
H1373 H 0.40362 0.44305 0.23837 0.0
H1374 H 0.40625 0.41303 0.33418 0.0
H1375 H 0.40113 0.43538 0.3907 0.0
loop_
_geom_bond_atom_site_label_1
_geom_bond_atom_site_label_2
_geom_bond_distance
_geom_bond_site_symmetry_2
_ccdc_geom_bond_type
Zn0 O3 2.031 . S
Zn0 O5 2.049 . S
Zn0 O10 2.067 . S
Zn1 O2 1.962 1_455 S
Zn1 O4 1.986 . S
Zn1 O6 1.996 . S
Zn1 O9 1.943 . S
O2 Zn1 1.962 1_655 S
O2 C7 1.254 . S
O3 Zn0 2.031 . S
O3 C7 1.269 1_455 S
O4 Zn1 1.986 . S
O4 C11 1.262 . S
O5 Zn0 2.049 . S
O5 C13 1.260 . S
O6 Zn1 1.996 . S
O6 C13 1.257 . S
C7 O2 1.254 . S
C7 O3 1.269 1_655 S
C8 O9 1.249 . S
C8 O10 1.270 . S
O9 Zn1 1.943 . S
O9 C8 1.249 . S
O10 Zn0 2.067 . S
O10 C8 1.270 . S
C11 O4 1.262 . S
C11 O12 1.232 . S
O12 C11 1.232 . S
C13 O5 1.260 . S
C13 O6 1.257 . S
Zn14 O17 2.031 . S
Zn14 O19 2.049 . S
Zn14 O24 2.067 . S
Zn15 O16 1.962 1_545 S
Zn15 O18 1.986 . S
Zn15 O20 1.996 . S
Zn15 O23 1.943 . S
O16 Zn15 1.962 1_565 S
O16 C21 1.254 . S
O17 Zn14 2.031 . S
O17 C21 1.269 1_545 S
O18 Zn15 1.986 . S
O18 C25 1.262 . S
O19 Zn14 2.049 . S
O19 C27 1.260 . S
O20 Zn15 1.996 . S
O20 C27 1.257 . S
C21 O16 1.254 . S
C21 O17 1.269 1_565 S
C22 O23 1.249 . S
C22 O24 1.270 . S
O23 Zn15 1.943 . S
O23 C22 1.249 . S
O24 Zn14 2.067 . S
O24 C22 1.270 . S
C25 O18 1.262 . S
C25 O26 1.232 . S
O26 C25 1.232 . S
C27 O19 1.260 . S
C27 O20 1.257 . S
Zn28 O31 2.031 . S
Zn28 O33 2.049 . S
Zn28 O38 2.067 . S
Zn29 O30 1.962 . S
Zn29 O32 1.986 . S
Zn29 O34 1.996 . S
Zn29 O37 1.943 . S
O30 Zn29 1.962 . S
O30 C35 1.254 . S
O31 Zn28 2.031 . S
O31 C35 1.269 . S
O32 Zn29 1.986 . S
O32 C39 1.262 . S
O33 Zn28 2.049 . S
O33 C41 1.260 . S
O34 Zn29 1.996 . S
O34 C41 1.257 . S
C35 O30 1.254 . S
C35 O31 1.269 . S
C36 O37 1.249 . S
C36 O38 1.270 . S
O37 Zn29 1.943 . S
O37 C36 1.249 . S
O38 Zn28 2.067 . S
O38 C36 1.270 . S
C39 O32 1.262 . S
C39 O40 1.232 . S
O40 C39 1.232 . S
C41 O33 1.260 . S
C41 O34 1.257 . S
Zn42 O45 2.031 . S
Zn42 O47 2.049 . S
Zn42 O52 2.067 . S
Zn43 O44 1.962 . S
Zn43 O46 1.986 . S
Zn43 O48 1.996 . S
Zn43 O51 1.943 . S
O44 Zn43 1.962 . S
O44 C49 1.254 . S
O45 Zn42 2.031 . S
O45 C49 1.269 . S
O46 Zn43 1.986 . S
O46 C53 1.262 . S
O47 Zn42 2.049 . S
O47 C55 1.260 . S
O48 Zn43 1.996 . S
O48 C55 1.257 . S
C49 O44 1.254 . S
C49 O45 1.269 . S
C50 O51 1.249 . S
C50 O52 1.270 . S
O51 Zn43 1.943 . S
O51 C50 1.249 . S
O52 Zn42 2.067 . S
O52 C50 1.270 . S
C53 O46 1.262 . S
C53 O54 1.232 . S
O54 C53 1.232 . S
C55 O47 1.260 . S
C55 O48 1.257 . S
Zn56 O59 2.031 . S
Zn56 O61 2.049 . S
Zn56 O66 2.067 . S
Zn57 O58 1.962 1_455 S
Zn57 O60 1.986 . S
Zn57 O62 1.996 . S
Zn57 O65 1.943 . S
O58 Zn57 1.962 1_655 S
O58 C63 1.254 . S
O59 Zn56 2.031 . S
O59 C63 1.269 1_455 S
O60 Zn57 1.986 . S
O60 C67 1.262 . S
O61 Zn56 2.049 . S
O61 C69 1.260 . S
O62 Zn57 1.996 . S
O62 C69 1.257 . S
C63 O58 1.254 . S
C63 O59 1.269 1_655 S
C64 O65 1.249 . S
C64 O66 1.270 . S
O65 Zn57 1.943 . S
O65 C64 1.249 . S
O66 Zn56 2.067 . S
O66 C64 1.270 . S
C67 O60 1.262 . S
C67 O68 1.232 . S
O68 C67 1.232 . S
C69 O61 1.260 . S
C69 O62 1.257 . S
Zn70 O73 2.031 . S
Zn70 O75 2.049 . S
Zn70 O80 2.067 . S
Zn71 O72 1.962 1_545 S
Zn71 O74 1.986 . S
Zn71 O76 1.996 . S
Zn71 O79 1.943 . S
O72 Zn71 1.962 1_565 S
O72 C77 1.254 . S
O73 Zn70 2.031 . S
O73 C77 1.269 1_545 S
O74 Zn71 1.986 . S
O74 C81 1.262 . S
O75 Zn70 2.049 . S
O75 C83 1.260 . S
O76 Zn71 1.996 . S
O76 C83 1.257 . S
C77 O72 1.254 . S
C77 O73 1.269 1_565 S
C78 O79 1.249 . S
C78 O80 1.270 . S
O79 Zn71 1.943 . S
O79 C78 1.249 . S
O80 Zn70 2.067 . S
O80 C78 1.270 . S
C81 O74 1.262 . S
C81 O82 1.232 . S
O82 C81 1.232 . S
C83 O75 1.260 . S
C83 O76 1.257 . S
Zn84 O87 2.031 . S
Zn84 O89 2.049 . S
Zn84 O94 2.067 . S
Zn85 O86 1.962 . S
Zn85 O88 1.986 . S
Zn85 O90 1.996 . S
Zn85 O93 1.943 . S
O86 Zn85 1.962 . S
O86 C91 1.254 . S
O87 Zn84 2.031 . S
O87 C91 1.269 . S
O88 Zn85 1.986 . S
O88 C95 1.262 . S
O89 Zn84 2.049 . S
O89 C97 1.260 . S
O90 Zn85 1.996 . S
O90 C97 1.257 . S
C91 O86 1.254 . S
C91 O87 1.269 . S
C92 O93 1.249 . S
C92 O94 1.270 . S
O93 Zn85 1.943 . S
O93 C92 1.249 . S
O94 Zn84 2.067 . S
O94 C92 1.270 . S
C95 O88 1.262 . S
C95 O96 1.232 . S
O96 C95 1.232 . S
C97 O89 1.260 . S
C97 O90 1.257 . S
Zn98 O101 2.031 . S
Zn98 O103 2.049 . S
Zn98 O108 2.067 . S
Zn99 O100 1.962 . S
Zn99 O102 1.986 . S
Zn99 O104 1.996 . S
Zn99 O107 1.943 . S
O100 Zn99 1.962 . S
O100 C105 1.254 . S
O101 Zn98 2.031 . S
O101 C105 1.269 . S
O102 Zn99 1.986 . S
O102 C109 1.262 . S
O103 Zn98 2.049 . S
O103 C111 1.260 . S
O104 Zn99 1.996 . S
O104 C111 1.257 . S
C105 O100 1.254 . S
C105 O101 1.269 . S
C106 O107 1.249 . S
C106 O108 1.270 . S
O107 Zn99 1.943 . S
O107 C106 1.249 . S
O108 Zn98 2.067 . S
O108 C106 1.270 . S
C109 O102 1.262 . S
C109 O110 1.232 . S
O110 C109 1.232 . S
C111 O103 1.260 . S
C111 O104 1.257 . S
Zn112 O115 2.031 . S
Zn112 O117 2.049 . S
Zn112 O122 2.067 . S
Zn113 O114 1.962 1_655 S
Zn113 O116 1.986 . S
Zn113 O118 1.996 . S
Zn113 O121 1.943 . S
O114 Zn113 1.962 1_455 S
O114 C119 1.254 . S
O115 Zn112 2.031 . S
O115 C119 1.269 1_655 S
O116 Zn113 1.986 . S
O116 C123 1.262 . S
O117 Zn112 2.049 . S
O117 C125 1.260 . S
O118 Zn113 1.996 . S
O118 C125 1.257 . S
C119 O114 1.254 . S
C119 O115 1.269 1_455 S
C120 O121 1.249 . S
C120 O122 1.270 . S
O121 Zn113 1.943 . S
O121 C120 1.249 . S
O122 Zn112 2.067 . S
O122 C120 1.270 . S
C123 O116 1.262 . S
C123 O124 1.232 . S
O124 C123 1.232 . S
C125 O117 1.260 . S
C125 O118 1.257 . S
Zn126 O129 2.031 . S
Zn126 O131 2.049 . S
Zn126 O136 2.067 . S
Zn127 O128 1.962 1_565 S
Zn127 O130 1.986 . S
Zn127 O132 1.996 . S
Zn127 O135 1.943 . S
O128 Zn127 1.962 1_545 S
O128 C133 1.254 . S
O129 Zn126 2.031 . S
O129 C133 1.269 1_565 S
O130 Zn127 1.986 . S
O130 C137 1.262 . S
O131 Zn126 2.049 . S
O131 C139 1.260 . S
O132 Zn127 1.996 . S
O132 C139 1.257 . S
C133 O128 1.254 . S
C133 O129 1.269 1_545 S
C134 O135 1.249 . S
C134 O136 1.270 . S
O135 Zn127 1.943 . S
O135 C134 1.249 . S
O136 Zn126 2.067 . S
O136 C134 1.270 . S
C137 O130 1.262 . S
C137 O138 1.232 . S
O138 C137 1.232 . S
C139 O131 1.260 . S
C139 O132 1.257 . S
Zn140 O143 2.031 . S
Zn140 O145 2.049 . S
Zn140 O150 2.067 . S
Zn141 O142 1.962 . S
Zn141 O144 1.986 . S
Zn141 O146 1.996 . S
Zn141 O149 1.943 . S
O142 Zn141 1.962 . S
O142 C147 1.254 . S
O143 Zn140 2.031 . S
O143 C147 1.269 . S
O144 Zn141 1.986 . S
O144 C151 1.262 . S
O145 Zn140 2.049 . S
O145 C153 1.260 . S
O146 Zn141 1.996 . S
O146 C153 1.257 . S
C147 O142 1.254 . S
C147 O143 1.269 . S
C148 O149 1.249 . S
C148 O150 1.270 . S
O149 Zn141 1.943 . S
O149 C148 1.249 . S
O150 Zn140 2.067 . S
O150 C148 1.270 . S
C151 O144 1.262 . S
C151 O152 1.232 . S
O152 C151 1.232 . S
C153 O145 1.260 . S
C153 O146 1.257 . S
Zn154 O157 2.031 . S
Zn154 O159 2.049 . S
Zn154 O164 2.067 . S
Zn155 O156 1.962 . S
Zn155 O158 1.986 . S
Zn155 O160 1.996 . S
Zn155 O163 1.943 . S
O156 Zn155 1.962 . S
O156 C161 1.254 . S
O157 Zn154 2.031 . S
O157 C161 1.269 . S
O158 Zn155 1.986 . S
O158 C165 1.262 . S
O159 Zn154 2.049 . S
O159 C167 1.260 . S
O160 Zn155 1.996 . S
O160 C167 1.257 . S
C161 O156 1.254 . S
C161 O157 1.269 . S
C162 O163 1.249 . S
C162 O164 1.270 . S
O163 Zn155 1.943 . S
O163 C162 1.249 . S
O164 Zn154 2.067 . S
O164 C162 1.270 . S
C165 O158 1.262 . S
C165 O166 1.232 . S
O166 C165 1.232 . S
C167 O159 1.260 . S
C167 O160 1.257 . S
Zn168 O171 2.031 . S
Zn168 O173 2.049 . S
Zn168 O178 2.067 . S
Zn169 O170 1.962 1_655 S
Zn169 O172 1.986 . S
Zn169 O174 1.996 . S
Zn169 O177 1.943 . S
O170 Zn169 1.962 1_455 S
O170 C175 1.254 . S
O171 Zn168 2.031 . S
O171 C175 1.269 1_655 S
O172 Zn169 1.986 . S
O172 C179 1.262 . S
O173 Zn168 2.049 . S
O173 C181 1.260 . S
O174 Zn169 1.996 . S
O174 C181 1.257 . S
C175 O170 1.254 . S
C175 O171 1.269 1_455 S
C176 O177 1.249 . S
C176 O178 1.270 . S
O177 Zn169 1.943 . S
O177 C176 1.249 . S
O178 Zn168 2.067 . S
O178 C176 1.270 . S
C179 O172 1.262 . S
C179 O180 1.232 . S
O180 C179 1.232 . S
C181 O173 1.260 . S
C181 O174 1.257 . S
Zn182 O185 2.031 . S
Zn182 O187 2.049 . S
Zn182 O192 2.067 . S
Zn183 O184 1.962 1_565 S
Zn183 O186 1.986 . S
Zn183 O188 1.996 . S
Zn183 O191 1.943 . S
O184 Zn183 1.962 1_545 S
O184 C189 1.254 . S
O185 Zn182 2.031 . S
O185 C189 1.269 1_565 S
O186 Zn183 1.986 . S
O186 C193 1.262 . S
O187 Zn182 2.049 . S
O187 C195 1.260 . S
O188 Zn183 1.996 . S
O188 C195 1.257 . S
C189 O184 1.254 . S
C189 O185 1.269 1_545 S
C190 O191 1.249 . S
C190 O192 1.270 . S
O191 Zn183 1.943 . S
O191 C190 1.249 . S
O192 Zn182 2.067 . S
O192 C190 1.270 . S
C193 O186 1.262 . S
C193 O194 1.232 . S
O194 C193 1.232 . S
C195 O187 1.260 . S
C195 O188 1.257 . S
Zn196 O199 2.031 . S
Zn196 O201 2.049 . S
Zn196 O206 2.067 . S
Zn197 O198 1.962 . S
Zn197 O200 1.986 . S
Zn197 O202 1.996 . S
Zn197 O205 1.943 . S
O198 Zn197 1.962 . S
O198 C203 1.254 . S
O199 Zn196 2.031 . S
O199 C203 1.269 . S
O200 Zn197 1.986 . S
O200 C207 1.262 . S
O201 Zn196 2.049 . S
O201 C209 1.260 . S
O202 Zn197 1.996 . S
O202 C209 1.257 . S
C203 O198 1.254 . S
C203 O199 1.269 . S
C204 O205 1.249 . S
C204 O206 1.270 . S
O205 Zn197 1.943 . S
O205 C204 1.249 . S
O206 Zn196 2.067 . S
O206 C204 1.270 . S
C207 O200 1.262 . S
C207 O208 1.232 . S
O208 C207 1.232 . S
C209 O201 1.260 . S
C209 O202 1.257 . S
Zn210 O213 2.031 . S
Zn210 O215 2.049 . S
Zn210 O220 2.067 . S
Zn211 O212 1.962 . S
Zn211 O214 1.986 . S
Zn211 O216 1.996 . S
Zn211 O219 1.943 . S
O212 Zn211 1.962 . S
O212 C217 1.254 . S
O213 Zn210 2.031 . S
O213 C217 1.269 . S
O214 Zn211 1.986 . S
O214 C221 1.262 . S
O215 Zn210 2.049 . S
O215 C223 1.260 . S
O216 Zn211 1.996 . S
O216 C223 1.257 . S
C217 O212 1.254 . S
C217 O213 1.269 . S
C218 O219 1.249 . S
C218 O220 1.270 . S
O219 Zn211 1.943 . S
O219 C218 1.249 . S
O220 Zn210 2.067 . S
O220 C218 1.270 . S
C221 O214 1.262 . S
C221 O222 1.232 . S
O222 C221 1.232 . S
C223 O215 1.260 . S
C223 O216 1.257 . S
H224 C232 0.948 . S
H225 C234 0.962 . S
H226 C236 0.930 1_556 S
H227 C239 0.929 . S
H228 C242 0.930 . S
H229 C244 0.960 . S
H230 C244 0.960 1_655 S
H231 C244 0.960 . S
C232 H224 0.948 . S
C232 C233 1.359 1_655 S
C232 C234 1.384 . S
C233 C232 1.359 1_455 S
C233 C239 1.390 . S
C234 H225 0.962 . S
C234 C232 1.384 . S
C234 C235 1.342 1_655 S
C235 C234 1.342 1_455 S
C235 C236 1.400 . S
C235 C240 1.490 . S
C236 H226 0.930 1_554 S
C236 C235 1.400 . S
C236 C239 1.386 . S
H237 C253 0.930 . S
H238 C254 0.931 . S
C239 H227 0.929 . S
C239 C233 1.390 . S
C239 C236 1.386 . S
C240 C235 1.490 . S
C240 C242 1.395 . S
C240 C243 1.403 1_554 S
H241 C247 0.930 . S
C242 H228 0.930 . S
C242 C240 1.395 . S
C242 C245 1.403 . S
C243 C240 1.403 1_556 S
C243 C244 1.524 . S
C243 C247 1.400 . S
C244 H229 0.960 . S
C244 H230 0.960 1_455 S
C244 H231 0.960 . S
C244 C243 1.524 . S
C245 C242 1.403 . S
C245 C246 1.392 1_554 S
C245 C249 1.495 . S
C246 C245 1.392 1_556 S
C246 C247 1.385 . S
C246 C248 1.478 . S
C247 H241 0.930 . S
C247 C243 1.400 . S
C247 C246 1.385 . S
C248 C246 1.478 . S
C248 C250 1.347 1_455 S
C248 C254 1.383 . S
C249 C245 1.495 . S
C249 H255 0.959 . S
C249 H256 0.961 . S
C249 H257 0.960 . S
C250 C248 1.347 1_655 S
C250 C251 1.394 . S
C250 H258 0.965 1_556 S
C251 C250 1.394 . S
C251 C252 1.341 1_655 S
C251 H259 0.973 . S
C252 C251 1.341 1_455 S
C252 C253 1.377 . S
C253 H237 0.930 . S
C253 C252 1.377 . S
C253 C254 1.379 . S
C254 H238 0.931 . S
C254 C248 1.383 . S
C254 C253 1.379 . S
H255 C249 0.959 . S
H256 C249 0.961 . S
H257 C249 0.960 . S
H258 C250 0.965 1_554 S
H259 C251 0.973 . S
H260 C268 0.929 . S
H261 C270 0.930 . S
H262 C272 0.930 . S
H263 C275 0.929 . S
H264 C278 0.951 . S
H265 C280 0.960 . S
H266 C280 0.960 . S
H267 C280 0.960 . S
C268 H260 0.929 . S
C268 C269 1.377 1_565 S
C268 C270 1.384 . S
C269 C268 1.377 1_545 S
C269 C275 1.390 . S
C270 H261 0.930 . S
C270 C268 1.384 . S
C270 C271 1.372 1_565 S
C271 C270 1.372 1_545 S
C271 C272 1.400 . S
C271 C276 1.490 . S
C272 H262 0.930 . S
C272 C271 1.400 . S
C272 C275 1.386 . S
H273 C289 0.930 . S
H274 C290 0.931 . S
C275 H263 0.929 . S
C275 C269 1.390 . S
C275 C272 1.386 . S
C276 C271 1.490 . S
C276 C278 1.373 1_545 S
C276 C279 1.403 . S
H277 C283 0.930 . S
C278 H264 0.951 . S
C278 C276 1.373 1_565 S
C278 C281 1.406 . S
C279 C276 1.403 . S
C279 C280 1.524 . S
C279 C283 1.400 . S
C280 H265 0.960 . S
C280 H266 0.960 . S
C280 H267 0.960 . S
C280 C279 1.524 . S
C281 C278 1.406 . S
C281 C282 1.392 1_565 S
C281 C285 1.495 . S
C282 C281 1.392 1_545 S
C282 C283 1.385 . S
C282 C284 1.478 . S
C283 H277 0.930 . S
C283 C279 1.400 . S
C283 C282 1.385 . S
C284 C282 1.478 . S
C284 C286 1.381 1_545 S
C284 C290 1.383 . S
C285 C281 1.495 . S
C285 H291 0.959 . S
C285 H292 0.961 . S
C285 H293 0.960 . S
C286 C284 1.381 1_565 S
C286 C287 1.394 . S
C286 H294 0.930 . S
C287 C286 1.394 . S
C287 C288 1.383 1_565 S
C287 H295 0.929 . S
C288 C287 1.383 1_545 S
C288 C289 1.377 . S
C289 H273 0.930 . S
C289 C288 1.377 . S
C289 C290 1.379 . S
C290 H274 0.931 . S
C290 C284 1.383 . S
C290 C289 1.379 . S
H291 C285 0.959 . S
H292 C285 0.961 . S
H293 C285 0.960 . S
H294 C286 0.930 . S
H295 C287 0.929 . S
H296 C304 0.929 . S
H297 C306 0.930 . S
H298 C308 0.930 1_556 S
H299 C311 0.929 1_556 S
H300 C314 0.930 . S
H301 C316 0.955 1_556 S
H302 C316 0.960 . S
H303 C316 0.960 1_556 S
C304 H296 0.929 . S
C304 C305 1.377 . S
C304 C306 1.384 . S
C305 C304 1.377 . S
C305 C311 1.390 . S
C306 H297 0.930 . S
C306 C304 1.384 . S
C306 C307 1.372 . S
C307 C306 1.372 . S
C307 C308 1.400 . S
C307 C312 1.490 . S
C308 H298 0.930 1_554 S
C308 C307 1.400 . S
C308 C311 1.386 . S
H309 C325 0.930 . S
H310 C326 0.931 . S
C311 H299 0.929 1_554 S
C311 C305 1.390 . S
C311 C308 1.386 . S
C312 C307 1.490 . S
C312 C314 1.395 . S
C312 C315 1.403 . S
H313 C319 0.930 . S
C314 H300 0.930 . S
C314 C312 1.395 . S
C314 C317 1.404 1_554 S
C315 C312 1.403 . S
C315 C316 1.524 . S
C315 C319 1.400 1_554 S
C316 H301 0.955 1_554 S
C316 H302 0.960 . S
C316 H303 0.960 1_554 S
C316 C315 1.524 . S
C317 C314 1.404 1_556 S
C317 C318 1.392 . S
C317 C321 1.495 . S
C318 C317 1.392 . S
C318 C319 1.385 . S
C318 C320 1.478 . S
C319 H313 0.930 . S
C319 C315 1.400 1_556 S
C319 C318 1.385 . S
C320 C318 1.478 . S
C320 C322 1.381 1_556 S
C320 C326 1.383 . S
C321 C317 1.495 . S
C321 H327 0.959 1_556 S
C321 H328 0.961 . S
C321 H329 0.960 1_556 S
C322 C320 1.381 1_554 S
C322 C323 1.394 1_554 S
C322 H330 0.930 . S
C323 C322 1.394 1_556 S
C323 C324 1.383 . S
C323 H331 0.929 1_556 S
C324 C323 1.383 . S
C324 C325 1.377 . S
C325 H309 0.930 . S
C325 C324 1.377 . S
C325 C326 1.379 . S
C326 H310 0.931 . S
C326 C320 1.383 . S
C326 C325 1.379 . S
H327 C321 0.959 1_554 S
H328 C321 0.961 . S
H329 C321 0.960 1_554 S
H330 C322 0.930 . S
H331 C323 0.929 1_554 S
H332 C340 0.929 . S
H333 C342 0.930 . S
H334 C344 0.930 . S
H335 C347 0.929 . S
H336 C350 0.930 . S
H337 C352 0.960 . S
H338 C352 0.960 . S
H339 C352 0.960 . S
C340 H332 0.929 . S
C340 C341 1.377 . S
C340 C342 1.384 . S
C341 C340 1.377 . S
C341 C347 1.390 . S
C342 H333 0.930 . S
C342 C340 1.384 . S
C342 C343 1.372 . S
C343 C342 1.372 . S
C343 C344 1.400 . S
C343 C348 1.490 . S
C344 H334 0.930 . S
C344 C343 1.400 . S
C344 C347 1.386 . S
H345 C361 0.930 . S
H346 C362 0.931 . S
C347 H335 0.929 . S
C347 C341 1.390 . S
C347 C344 1.386 . S
C348 C343 1.490 . S
C348 C350 1.395 . S
C348 C351 1.403 . S
H349 C355 0.930 . S
C350 H336 0.930 . S
C350 C348 1.395 . S
C350 C353 1.403 . S
C351 C348 1.403 . S
C351 C352 1.524 . S
C351 C355 1.400 . S
C352 H337 0.960 . S
C352 H338 0.960 . S
C352 H339 0.960 . S
C352 C351 1.524 . S
C353 C350 1.403 . S
C353 C354 1.392 . S
C353 C357 1.495 . S
C354 C353 1.392 . S
C354 C355 1.385 . S
C354 C356 1.478 . S
C355 H349 0.930 . S
C355 C351 1.400 . S
C355 C354 1.385 . S
C356 C354 1.478 . S
C356 C358 1.381 . S
C356 C362 1.383 . S
C357 C353 1.495 . S
C357 H363 0.959 . S
C357 H364 0.961 . S
C357 H365 0.960 . S
C358 C356 1.381 . S
C358 C359 1.394 . S
C358 H366 0.930 . S
C359 C358 1.394 . S
C359 C360 1.383 . S
C359 H367 0.929 . S
C360 C359 1.383 . S
C360 C361 1.377 . S
C361 H345 0.930 . S
C361 C360 1.377 . S
C361 C362 1.379 . S
C362 H346 0.931 . S
C362 C356 1.383 . S
C362 C361 1.379 . S
H363 C357 0.959 . S
H364 C357 0.961 . S
H365 C357 0.960 . S
H366 C358 0.930 . S
H367 C359 0.929 . S
H368 C376 0.929 . S
H369 C378 0.930 . S
H370 C380 0.930 1_454 S
H371 C383 0.929 1_455 S
H372 C386 0.930 . S
H373 C388 0.960 . S
H374 C388 0.960 . S
H375 C388 0.960 . S
C376 H368 0.929 . S
C376 C377 1.377 . S
C376 C378 1.384 . S
C377 C376 1.377 . S
C377 C383 1.390 . S
C378 H369 0.930 . S
C378 C376 1.384 . S
C378 C379 1.372 . S
C379 C378 1.372 . S
C379 C380 1.400 . S
C379 C384 1.490 . S
C380 H370 0.930 1_656 S
C380 C379 1.400 . S
C380 C383 1.386 . S
H381 C397 0.901 1_455 S
H382 C398 0.918 1_455 S
C383 H371 0.929 1_655 S
C383 C377 1.390 . S
C383 C380 1.386 . S
C384 C379 1.490 . S
C384 C386 1.395 . S
C384 C387 1.403 1_556 S
H385 C391 0.930 . S
C386 H372 0.930 . S
C386 C384 1.395 . S
C386 C389 1.403 . S
C387 C384 1.403 1_554 S
C387 C388 1.524 . S
C387 C391 1.400 . S
C388 H373 0.960 . S
C388 H374 0.960 . S
C388 H375 0.960 . S
C388 C387 1.524 . S
C389 C386 1.403 . S
C389 C390 1.392 1_556 S
C389 C393 1.495 . S
C390 C389 1.392 1_554 S
C390 C391 1.385 . S
C390 C392 1.478 . S
C391 H385 0.930 . S
C391 C387 1.400 . S
C391 C390 1.385 . S
C392 C390 1.478 . S
C392 C394 1.381 . S
C392 C398 1.396 . S
C393 C389 1.495 . S
C393 H399 0.961 1_655 S
C393 H400 0.961 1_655 S
C393 H401 0.960 . S
C394 C392 1.381 . S
C394 C395 1.394 . S
C394 H402 0.930 1_554 S
C395 C394 1.394 . S
C395 C396 1.383 . S
C395 H403 0.929 . S
C396 C395 1.383 . S
C396 C397 1.406 . S
C397 H381 0.901 1_655 S
C397 C396 1.406 . S
C397 C398 1.379 . S
C398 H382 0.918 1_655 S
C398 C392 1.396 . S
C398 C397 1.379 . S
H399 C393 0.961 1_455 S
H400 C393 0.961 1_455 S
H401 C393 0.960 . S
H402 C394 0.930 1_556 S
H403 C395 0.929 . S
H404 C412 0.929 . S
H405 C414 0.930 . S
H406 C416 0.930 . S
H407 C419 0.929 . S
H408 C422 0.930 . S
H409 C424 0.960 . S
H410 C424 0.921 1_565 S
H411 C424 0.960 . S
C412 H404 0.929 . S
C412 C413 1.377 . S
C412 C414 1.384 . S
C413 C412 1.377 . S
C413 C419 1.390 1_565 S
C414 H405 0.930 . S
C414 C412 1.384 . S
C414 C415 1.372 . S
C415 C414 1.372 . S
C415 C416 1.400 1_565 S
C415 C420 1.490 . S
C416 H406 0.930 . S
C416 C415 1.400 1_545 S
C416 C419 1.386 . S
H417 C433 0.963 . S
H418 C434 0.926 1_545 S
C419 H407 0.929 . S
C419 C413 1.390 1_545 S
C419 C416 1.386 . S
C420 C415 1.490 . S
C420 C422 1.395 . S
C420 C423 1.403 . S
H421 C427 0.930 1_545 S
C422 H408 0.930 . S
C422 C420 1.395 . S
C422 C425 1.403 . S
C423 C420 1.403 . S
C423 C424 1.524 1_565 S
C423 C427 1.400 . S
C424 H409 0.960 . S
C424 H410 0.921 1_545 S
C424 H411 0.960 . S
C424 C423 1.524 1_545 S
C425 C422 1.403 . S
C425 C426 1.392 . S
C425 C429 1.495 . S
C426 C425 1.392 . S
C426 C427 1.385 . S
C426 C428 1.478 . S
C427 H421 0.930 1_565 S
C427 C423 1.400 . S
C427 C426 1.385 . S
C428 C426 1.478 . S
C428 C430 1.381 . S
C428 C434 1.388 . S
C429 C425 1.495 . S
C429 H435 0.959 . S
C429 H436 0.961 . S
C429 H437 0.960 . S
C430 C428 1.381 . S
C430 C431 1.394 . S
C430 H438 0.930 . S
C431 C430 1.394 . S
C431 C432 1.383 . S
C431 H439 0.929 . S
C432 C431 1.383 . S
C432 C433 1.346 1_565 S
C433 H417 0.963 . S
C433 C432 1.346 1_545 S
C433 C434 1.378 1_545 S
C434 H418 0.926 1_565 S
C434 C428 1.388 . S
C434 C433 1.378 1_565 S
H435 C429 0.959 . S
H436 C429 0.961 . S
H437 C429 0.960 . S
H438 C430 0.930 . S
H439 C431 0.929 . S
H440 C448 0.929 . S
H441 C450 0.930 1_554 S
H442 C452 0.930 . S
H443 C455 0.929 . S
H444 C458 0.930 . S
H445 C460 0.960 . S
H446 C460 0.960 . S
H447 C460 0.960 1_556 S
C448 H440 0.929 . S
C448 C449 1.377 . S
C448 C450 1.384 . S
C449 C448 1.377 . S
C449 C455 1.390 . S
C450 H441 0.930 1_556 S
C450 C448 1.384 . S
C450 C451 1.372 . S
C451 C450 1.372 . S
C451 C452 1.400 . S
C451 C456 1.490 . S
C452 H442 0.930 . S
C452 C451 1.400 . S
C452 C455 1.386 . S
H453 C469 0.930 1_556 S
H454 C470 0.931 1_556 S
C455 H443 0.929 . S
C455 C449 1.390 . S
C455 C452 1.386 . S
C456 C451 1.490 . S
C456 C458 1.395 . S
C456 C459 1.403 1_556 S
H457 C463 0.930 . S
C458 H444 0.930 . S
C458 C456 1.395 . S
C458 C461 1.407 . S
C459 C456 1.403 1_554 S
C459 C460 1.524 . S
C459 C463 1.400 . S
C460 H445 0.960 . S
C460 H446 0.960 . S
C460 H447 0.960 1_554 S
C460 C459 1.524 . S
C461 C458 1.407 . S
C461 C462 1.389 1_556 S
C461 C465 1.496 . S
C462 C461 1.389 1_554 S
C462 C463 1.385 . S
C462 C464 1.478 . S
C463 H457 0.930 . S
C463 C459 1.400 . S
C463 C462 1.385 . S
C464 C462 1.478 . S
C464 C466 1.381 . S
C464 C470 1.383 . S
C465 C461 1.496 . S
C465 H471 0.959 . S
C465 H472 0.961 . S
C465 H473 0.960 1_556 S
C466 C464 1.381 . S
C466 C467 1.394 . S
C466 H474 0.930 . S
C467 C466 1.394 . S
C467 C468 1.383 . S
C467 H475 0.929 . S
C468 C467 1.383 . S
C468 C469 1.377 . S
C469 H453 0.930 1_554 S
C469 C468 1.377 . S
C469 C470 1.379 . S
C470 H454 0.931 1_554 S
C470 C464 1.383 . S
C470 C469 1.379 . S
H471 C465 0.959 . S
H472 C465 0.961 . S
H473 C465 0.960 1_554 S
H474 C466 0.930 . S
H475 C467 0.929 . S
H476 C484 0.929 . S
H477 C486 0.930 . S
H478 C488 0.930 . S
H479 C491 0.929 . S
H480 C494 0.930 . S
H481 C496 0.960 . S
H482 C496 0.960 . S
H483 C496 0.960 . S
C484 H476 0.929 . S
C484 C485 1.377 . S
C484 C486 1.384 . S
C485 C484 1.377 . S
C485 C491 1.390 . S
C486 H477 0.930 . S
C486 C484 1.384 . S
C486 C487 1.372 . S
C487 C486 1.372 . S
C487 C488 1.400 . S
C487 C492 1.490 . S
C488 H478 0.930 . S
C488 C487 1.400 . S
C488 C491 1.386 . S
H489 C505 0.930 . S
H490 C506 0.931 . S
C491 H479 0.929 . S
C491 C485 1.390 . S
C491 C488 1.386 . S
C492 C487 1.490 . S
C492 C494 1.395 . S
C492 C495 1.403 . S
H493 C499 0.930 . S
C494 H480 0.930 . S
C494 C492 1.395 . S
C494 C497 1.403 . S
C495 C492 1.403 . S
C495 C496 1.524 . S
C495 C499 1.400 . S
C496 H481 0.960 . S
C496 H482 0.960 . S
C496 H483 0.960 . S
C496 C495 1.524 . S
C497 C494 1.403 . S
C497 C498 1.392 . S
C497 C501 1.495 . S
C498 C497 1.392 . S
C498 C499 1.385 . S
C498 C500 1.478 . S
C499 H493 0.930 . S
C499 C495 1.400 . S
C499 C498 1.385 . S
C500 C498 1.478 . S
C500 C502 1.381 . S
C500 C506 1.383 . S
C501 C497 1.495 . S
C501 H507 0.959 . S
C501 H508 0.961 . S
C501 H509 0.960 . S
C502 C500 1.381 . S
C502 C503 1.394 . S
C502 H510 0.930 . S
C503 C502 1.394 . S
C503 C504 1.383 . S
C503 H511 0.929 . S
C504 C503 1.383 . S
C504 C505 1.377 . S
C505 H489 0.930 . S
C505 C504 1.377 . S
C505 C506 1.379 . S
C506 H490 0.931 . S
C506 C500 1.383 . S
C506 C505 1.379 . S
H507 C501 0.959 . S
H508 C501 0.961 . S
H509 C501 0.960 . S
H510 C502 0.930 . S
H511 C503 0.929 . S
H512 C520 0.929 . S
H513 C522 0.930 . S
H514 C524 0.930 . S
H515 C527 0.929 . S
H516 C530 0.930 . S
H517 C532 0.960 . S
H518 C532 0.960 . S
H519 C532 0.960 . S
C520 H512 0.929 . S
C520 C521 1.377 . S
C520 C522 1.384 . S
C521 C520 1.377 . S
C521 C527 1.390 . S
C522 H513 0.930 . S
C522 C520 1.384 . S
C522 C523 1.372 . S
C523 C522 1.372 . S
C523 C524 1.400 . S
C523 C528 1.490 . S
C524 H514 0.930 . S
C524 C523 1.400 . S
C524 C527 1.386 . S
H525 C541 0.930 . S
H526 C542 0.931 . S
C527 H515 0.929 . S
C527 C521 1.390 . S
C527 C524 1.386 . S
C528 C523 1.490 . S
C528 C530 1.395 . S
C528 C531 1.403 . S
H529 C535 0.930 . S
C530 H516 0.930 . S
C530 C528 1.395 . S
C530 C533 1.403 . S
C531 C528 1.403 . S
C531 C532 1.524 . S
C531 C535 1.400 . S
C532 H517 0.960 . S
C532 H518 0.960 . S
C532 H519 0.960 . S
C532 C531 1.524 . S
C533 C530 1.403 . S
C533 C534 1.392 . S
C533 C537 1.495 . S
C534 C533 1.392 . S
C534 C535 1.385 . S
C534 C536 1.478 . S
C535 H529 0.930 . S
C535 C531 1.400 . S
C535 C534 1.385 . S
C536 C534 1.478 . S
C536 C538 1.381 . S
C536 C542 1.383 . S
C537 C533 1.495 . S
C537 H543 0.959 . S
C537 H544 0.961 . S
C537 H545 0.960 . S
C538 C536 1.381 . S
C538 C539 1.394 . S
C538 H546 0.930 . S
C539 C538 1.394 . S
C539 C540 1.383 . S
C539 H547 0.929 . S
C540 C539 1.383 . S
C540 C541 1.377 . S
C541 H525 0.930 . S
C541 C540 1.377 . S
C541 C542 1.379 . S
C542 H526 0.931 . S
C542 C536 1.383 . S
C542 C541 1.379 . S
H543 C537 0.959 . S
H544 C537 0.961 . S
H545 C537 0.960 . S
H546 C538 0.930 . S
H547 C539 0.929 . S
H548 C556 0.929 . S
H549 C558 0.930 . S
H550 C560 0.930 . S
H551 C563 0.929 . S
H552 C566 0.930 . S
H553 C568 0.960 . S
H554 C568 0.960 . S
H555 C568 0.960 . S
C556 H548 0.929 . S
C556 C557 1.377 . S
C556 C558 1.384 . S
C557 C556 1.377 . S
C557 C563 1.390 . S
C558 H549 0.930 . S
C558 C556 1.384 . S
C558 C559 1.372 . S
C559 C558 1.372 . S
C559 C560 1.400 . S
C559 C564 1.490 . S
C560 H550 0.930 . S
C560 C559 1.400 . S
C560 C563 1.386 . S
H561 C577 0.930 . S
H562 C578 0.931 . S
C563 H551 0.929 . S
C563 C557 1.390 . S
C563 C560 1.386 . S
C564 C559 1.490 . S
C564 C566 1.395 . S
C564 C567 1.403 . S
H565 C571 0.930 . S
C566 H552 0.930 . S
C566 C564 1.395 . S
C566 C569 1.403 . S
C567 C564 1.403 . S
C567 C568 1.524 . S
C567 C571 1.400 . S
C568 H553 0.960 . S
C568 H554 0.960 . S
C568 H555 0.960 . S
C568 C567 1.524 . S
C569 C566 1.403 . S
C569 C570 1.392 . S
C569 C573 1.495 . S
C570 C569 1.392 . S
C570 C571 1.385 . S
C570 C572 1.478 . S
C571 H565 0.930 . S
C571 C567 1.400 . S
C571 C570 1.385 . S
C572 C570 1.478 . S
C572 C574 1.381 . S
C572 C578 1.383 . S
C573 C569 1.495 . S
C573 H579 0.959 . S
C573 H580 0.961 . S
C573 H581 0.960 . S
C574 C572 1.381 . S
C574 C575 1.394 . S
C574 H582 0.930 . S
C575 C574 1.394 . S
C575 C576 1.383 . S
C575 H583 0.929 . S
C576 C575 1.383 . S
C576 C577 1.377 . S
C577 H561 0.930 . S
C577 C576 1.377 . S
C577 C578 1.379 . S
C578 H562 0.931 . S
C578 C572 1.383 . S
C578 C577 1.379 . S
H579 C573 0.959 . S
H580 C573 0.961 . S
H581 C573 0.960 . S
H582 C574 0.930 . S
H583 C575 0.929 . S
H584 C592 0.929 . S
H585 C594 0.930 . S
H586 C596 0.930 . S
H587 C599 0.929 . S
H588 C602 0.930 . S
H589 C604 0.960 . S
H590 C604 0.960 . S
H591 C604 0.960 . S
C592 H584 0.929 . S
C592 C593 1.377 . S
C592 C594 1.384 . S
C593 C592 1.377 . S
C593 C599 1.390 . S
C594 H585 0.930 . S
C594 C592 1.384 . S
C594 C595 1.372 . S
C595 C594 1.372 . S
C595 C596 1.400 . S
C595 C600 1.490 . S
C596 H586 0.930 . S
C596 C595 1.400 . S
C596 C599 1.386 . S
H597 C613 0.930 . S
H598 C614 0.931 . S
C599 H587 0.929 . S
C599 C593 1.390 . S
C599 C596 1.386 . S
C600 C595 1.490 . S
C600 C602 1.395 . S
C600 C603 1.403 . S
H601 C607 0.930 . S
C602 H588 0.930 . S
C602 C600 1.395 . S
C602 C605 1.403 . S
C603 C600 1.403 . S
C603 C604 1.524 . S
C603 C607 1.400 . S
C604 H589 0.960 . S
C604 H590 0.960 . S
C604 H591 0.960 . S
C604 C603 1.524 . S
C605 C602 1.403 . S
C605 C606 1.392 . S
C605 C609 1.495 . S
C606 C605 1.392 . S
C606 C607 1.385 . S
C606 C608 1.478 . S
C607 H601 0.930 . S
C607 C603 1.400 . S
C607 C606 1.385 . S
C608 C606 1.478 . S
C608 C610 1.381 . S
C608 C614 1.383 . S
C609 C605 1.495 . S
C609 H615 0.959 . S
C609 H616 0.961 . S
C609 H617 0.960 . S
C610 C608 1.381 . S
C610 C611 1.394 . S
C610 H618 0.930 . S
C611 C610 1.394 . S
C611 C612 1.383 . S
C611 H619 0.929 . S
C612 C611 1.383 . S
C612 C613 1.377 . S
C613 H597 0.930 . S
C613 C612 1.377 . S
C613 C614 1.379 . S
C614 H598 0.931 . S
C614 C608 1.383 . S
C614 C613 1.379 . S
H615 C609 0.959 . S
H616 C609 0.961 . S
H617 C609 0.960 . S
H618 C610 0.930 . S
H619 C611 0.929 . S
H620 C628 0.929 . S
H621 C630 0.930 . S
H622 C632 0.930 . S
H623 C635 0.929 . S
H624 C638 0.930 . S
H625 C640 0.960 . S
H626 C640 0.960 . S
H627 C640 0.960 . S
C628 H620 0.929 . S
C628 C629 1.377 . S
C628 C630 1.384 . S
C629 C628 1.377 . S
C629 C635 1.390 . S
C630 H621 0.930 . S
C630 C628 1.384 . S
C630 C631 1.372 . S
C631 C630 1.372 . S
C631 C632 1.400 . S
C631 C636 1.490 . S
C632 H622 0.930 . S
C632 C631 1.400 . S
C632 C635 1.386 . S
H633 C649 0.930 . S
H634 C650 0.931 . S
C635 H623 0.929 . S
C635 C629 1.390 . S
C635 C632 1.386 . S
C636 C631 1.490 . S
C636 C638 1.395 . S
C636 C639 1.403 . S
H637 C643 0.930 . S
C638 H624 0.930 . S
C638 C636 1.395 . S
C638 C641 1.403 . S
C639 C636 1.403 . S
C639 C640 1.524 . S
C639 C643 1.400 . S
C640 H625 0.960 . S
C640 H626 0.960 . S
C640 H627 0.960 . S
C640 C639 1.524 . S
C641 C638 1.403 . S
C641 C642 1.392 . S
C641 C645 1.495 . S
C642 C641 1.392 . S
C642 C643 1.385 . S
C642 C644 1.478 . S
C643 H637 0.930 . S
C643 C639 1.400 . S
C643 C642 1.385 . S
C644 C642 1.478 . S
C644 C646 1.381 . S
C644 C650 1.383 . S
C645 C641 1.495 . S
C645 H651 0.959 . S
C645 H652 0.961 . S
C645 H653 0.960 . S
C646 C644 1.381 . S
C646 C647 1.394 . S
C646 H654 0.930 . S
C647 C646 1.394 . S
C647 C648 1.383 . S
C647 H655 0.929 . S
C648 C647 1.383 . S
C648 C649 1.377 . S
C649 H633 0.930 . S
C649 C648 1.377 . S
C649 C650 1.379 . S
C650 H634 0.931 . S
C650 C644 1.383 . S
C650 C649 1.379 . S
H651 C645 0.959 . S
H652 C645 0.961 . S
H653 C645 0.960 . S
H654 C646 0.930 . S
H655 C647 0.929 . S
H656 C664 0.929 . S
H657 C666 0.930 . S
H658 C668 0.930 . S
H659 C671 0.929 . S
H660 C674 0.930 . S
H661 C676 0.960 . S
H662 C676 0.960 . S
H663 C676 0.960 . S
C664 H656 0.929 . S
C664 C665 1.377 . S
C664 C666 1.384 . S
C665 C664 1.377 . S
C665 C671 1.390 . S
C666 H657 0.930 . S
C666 C664 1.384 . S
C666 C667 1.372 . S
C667 C666 1.372 . S
C667 C668 1.400 . S
C667 C672 1.490 . S
C668 H658 0.930 . S
C668 C667 1.400 . S
C668 C671 1.386 . S
H669 C685 0.930 . S
H670 C686 0.931 . S
C671 H659 0.929 . S
C671 C665 1.390 . S
C671 C668 1.386 . S
C672 C667 1.490 . S
C672 C674 1.395 . S
C672 C675 1.403 . S
H673 C679 0.930 . S
C674 H660 0.930 . S
C674 C672 1.395 . S
C674 C677 1.403 . S
C675 C672 1.403 . S
C675 C676 1.524 . S
C675 C679 1.400 . S
C676 H661 0.960 . S
C676 H662 0.960 . S
C676 H663 0.960 . S
C676 C675 1.524 . S
C677 C674 1.403 . S
C677 C678 1.392 . S
C677 C681 1.495 . S
C678 C677 1.392 . S
C678 C679 1.385 . S
C678 C680 1.478 . S
C679 H673 0.930 . S
C679 C675 1.400 . S
C679 C678 1.385 . S
C680 C678 1.478 . S
C680 C682 1.381 . S
C680 C686 1.383 . S
C681 C677 1.495 . S
C681 H687 0.959 . S
C681 H688 0.961 . S
C681 H689 0.960 . S
C682 C680 1.381 . S
C682 C683 1.394 . S
C682 H690 0.930 . S
C683 C682 1.394 . S
C683 C684 1.383 . S
C683 H691 0.929 . S
C684 C683 1.383 . S
C684 C685 1.377 . S
C685 H669 0.930 . S
C685 C684 1.377 . S
C685 C686 1.379 . S
C686 H670 0.931 . S
C686 C680 1.383 . S
C686 C685 1.379 . S
H687 C681 0.959 . S
H688 C681 0.961 . S
H689 C681 0.960 . S
H690 C682 0.930 . S
H691 C683 0.929 . S
H692 C700 0.929 . S
H693 C702 0.930 . S
H694 C704 0.930 . S
H695 C707 0.929 . S
H696 C710 0.930 . S
H697 C712 0.960 . S
H698 C712 0.960 . S
H699 C712 0.960 . S
C700 H692 0.929 . S
C700 C701 1.377 . S
C700 C702 1.384 . S
C701 C700 1.377 . S
C701 C707 1.390 . S
C702 H693 0.930 . S
C702 C700 1.384 . S
C702 C703 1.372 . S
C703 C702 1.372 . S
C703 C704 1.400 . S
C703 C708 1.490 . S
C704 H694 0.930 . S
C704 C703 1.400 . S
C704 C707 1.386 . S
H705 C721 0.930 . S
H706 C722 0.931 . S
C707 H695 0.929 . S
C707 C701 1.390 . S
C707 C704 1.386 . S
C708 C703 1.490 . S
C708 C710 1.395 . S
C708 C711 1.403 . S
H709 C715 0.930 . S
C710 H696 0.930 . S
C710 C708 1.395 . S
C710 C713 1.403 . S
C711 C708 1.403 . S
C711 C712 1.524 . S
C711 C715 1.400 . S
C712 H697 0.960 . S
C712 H698 0.960 . S
C712 H699 0.960 . S
C712 C711 1.524 . S
C713 C710 1.403 . S
C713 C714 1.392 . S
C713 C717 1.495 . S
C714 C713 1.392 . S
C714 C715 1.385 . S
C714 C716 1.478 . S
C715 H709 0.930 . S
C715 C711 1.400 . S
C715 C714 1.385 . S
C716 C714 1.478 . S
C716 C718 1.381 . S
C716 C722 1.383 . S
C717 C713 1.495 . S
C717 H723 0.959 . S
C717 H724 0.961 . S
C717 H725 0.960 . S
C718 C716 1.381 . S
C718 C719 1.394 . S
C718 H726 0.930 . S
C719 C718 1.394 . S
C719 C720 1.383 . S
C719 H727 0.929 . S
C720 C719 1.383 . S
C720 C721 1.377 . S
C721 H705 0.930 . S
C721 C720 1.377 . S
C721 C722 1.379 . S
C722 H706 0.931 . S
C722 C716 1.383 . S
C722 C721 1.379 . S
H723 C717 0.959 . S
H724 C717 0.961 . S
H725 C717 0.960 . S
H726 C718 0.930 . S
H727 C719 0.929 . S
H728 C736 0.929 . S
H729 C738 0.930 . S
H730 C740 0.930 . S
H731 C743 0.929 . S
H732 C746 0.930 . S
H733 C748 0.960 . S
H734 C748 0.960 . S
H735 C748 0.960 . S
C736 H728 0.929 . S
C736 C737 1.377 . S
C736 C738 1.384 . S
C737 C736 1.377 . S
C737 C743 1.390 . S
C738 H729 0.930 . S
C738 C736 1.384 . S
C738 C739 1.372 . S
C739 C738 1.372 . S
C739 C740 1.400 . S
C739 C744 1.490 . S
C740 H730 0.930 . S
C740 C739 1.400 . S
C740 C743 1.386 . S
H741 C757 0.930 . S
H742 C758 0.931 . S
C743 H731 0.929 . S
C743 C737 1.390 . S
C743 C740 1.386 . S
C744 C739 1.490 . S
C744 C746 1.395 . S
C744 C747 1.403 . S
H745 C751 0.930 . S
C746 H732 0.930 . S
C746 C744 1.395 . S
C746 C749 1.403 . S
C747 C744 1.403 . S
C747 C748 1.524 . S
C747 C751 1.400 . S
C748 H733 0.960 . S
C748 H734 0.960 . S
C748 H735 0.960 . S
C748 C747 1.524 . S
C749 C746 1.403 . S
C749 C750 1.392 . S
C749 C753 1.495 . S
C750 C749 1.392 . S
C750 C751 1.385 . S
C750 C752 1.478 . S
C751 H745 0.930 . S
C751 C747 1.400 . S
C751 C750 1.385 . S
C752 C750 1.478 . S
C752 C754 1.381 . S
C752 C758 1.383 . S
C753 C749 1.495 . S
C753 H759 0.959 . S
C753 H760 0.961 . S
C753 H761 0.960 . S
C754 C752 1.381 . S
C754 C755 1.394 . S
C754 H762 0.930 . S
C755 C754 1.394 . S
C755 C756 1.383 . S
C755 H763 0.929 . S
C756 C755 1.383 . S
C756 C757 1.377 . S
C757 H741 0.930 . S
C757 C756 1.377 . S
C757 C758 1.379 . S
C758 H742 0.931 . S
C758 C752 1.383 . S
C758 C757 1.379 . S
H759 C753 0.959 . S
H760 C753 0.961 . S
H761 C753 0.960 . S
H762 C754 0.930 . S
H763 C755 0.929 . S
H764 C772 0.929 . S
H765 C774 0.930 . S
H766 C776 0.930 . S
H767 C779 0.929 . S
H768 C782 0.930 . S
H769 C784 0.960 . S
H770 C784 0.960 . S
H771 C784 0.960 . S
C772 H764 0.929 . S
C772 C773 1.377 . S
C772 C774 1.384 . S
C773 C772 1.377 . S
C773 C779 1.390 . S
C774 H765 0.930 . S
C774 C772 1.384 . S
C774 C775 1.372 . S
C775 C774 1.372 . S
C775 C776 1.400 . S
C775 C780 1.490 . S
C776 H766 0.930 . S
C776 C775 1.400 . S
C776 C779 1.386 . S
H777 C793 0.930 . S
H778 C794 0.931 . S
C779 H767 0.929 . S
C779 C773 1.390 . S
C779 C776 1.386 . S
C780 C775 1.490 . S
C780 C782 1.395 . S
C780 C783 1.403 . S
H781 C787 0.930 . S
C782 H768 0.930 . S
C782 C780 1.395 . S
C782 C785 1.403 . S
C783 C780 1.403 . S
C783 C784 1.524 . S
C783 C787 1.400 . S
C784 H769 0.960 . S
C784 H770 0.960 . S
C784 H771 0.960 . S
C784 C783 1.524 . S
C785 C782 1.403 . S
C785 C786 1.392 . S
C785 C789 1.495 . S
C786 C785 1.392 . S
C786 C787 1.385 . S
C786 C788 1.478 . S
C787 H781 0.930 . S
C787 C783 1.400 . S
C787 C786 1.385 . S
C788 C786 1.478 . S
C788 C790 1.381 . S
C788 C794 1.383 . S
C789 C785 1.495 . S
C789 H795 0.959 . S
C789 H796 0.961 . S
C789 H797 0.960 . S
C790 C788 1.381 . S
C790 C791 1.394 . S
C790 H798 0.930 . S
C791 C790 1.394 . S
C791 C792 1.383 . S
C791 H799 0.929 . S
C792 C791 1.383 . S
C792 C793 1.377 . S
C793 H777 0.930 . S
C793 C792 1.377 . S
C793 C794 1.379 . S
C794 H778 0.931 . S
C794 C788 1.383 . S
C794 C793 1.379 . S
H795 C789 0.959 . S
H796 C789 0.961 . S
H797 C789 0.960 . S
H798 C790 0.930 . S
H799 C791 0.929 . S
H800 C808 0.929 . S
H801 C810 0.930 . S
H802 C812 0.930 . S
H803 C815 0.929 . S
H804 C818 0.930 . S
H805 C820 0.960 . S
H806 C820 0.960 . S
H807 C820 0.960 . S
C808 H800 0.929 . S
C808 C809 1.377 . S
C808 C810 1.384 . S
C809 C808 1.377 . S
C809 C815 1.390 . S
C810 H801 0.930 . S
C810 C808 1.384 . S
C810 C811 1.372 . S
C811 C810 1.372 . S
C811 C812 1.400 . S
C811 C816 1.490 . S
C812 H802 0.930 . S
C812 C811 1.400 . S
C812 C815 1.386 . S
H813 C829 0.930 . S
H814 C830 0.931 . S
C815 H803 0.929 . S
C815 C809 1.390 . S
C815 C812 1.386 . S
C816 C811 1.490 . S
C816 C818 1.395 . S
C816 C819 1.403 . S
H817 C823 0.930 . S
C818 H804 0.930 . S
C818 C816 1.395 . S
C818 C821 1.403 . S
C819 C816 1.403 . S
C819 C820 1.524 . S
C819 C823 1.400 . S
C820 H805 0.960 . S
C820 H806 0.960 . S
C820 H807 0.960 . S
C820 C819 1.524 . S
C821 C818 1.403 . S
C821 C822 1.392 . S
C821 C825 1.495 . S
C822 C821 1.392 . S
C822 C823 1.385 . S
C822 C824 1.478 . S
C823 H817 0.930 . S
C823 C819 1.400 . S
C823 C822 1.385 . S
C824 C822 1.478 . S
C824 C826 1.381 . S
C824 C830 1.383 . S
C825 C821 1.495 . S
C825 H831 0.959 . S
C825 H832 0.961 . S
C825 H833 0.960 . S
C826 C824 1.381 . S
C826 C827 1.394 . S
C826 H834 0.930 . S
C827 C826 1.394 . S
C827 C828 1.383 . S
C827 H835 0.929 . S
C828 C827 1.383 . S
C828 C829 1.377 . S
C829 H813 0.930 . S
C829 C828 1.377 . S
C829 C830 1.379 . S
C830 H814 0.931 . S
C830 C824 1.383 . S
C830 C829 1.379 . S
H831 C825 0.959 . S
H832 C825 0.961 . S
H833 C825 0.960 . S
H834 C826 0.930 . S
H835 C827 0.929 . S
H836 C844 0.929 . S
H837 C846 0.930 . S
H838 C848 0.930 . S
H839 C851 0.929 . S
H840 C854 0.930 . S
H841 C856 0.960 . S
H842 C856 0.960 . S
H843 C856 0.960 . S
C844 H836 0.929 . S
C844 C845 1.377 . S
C844 C846 1.384 . S
C845 C844 1.377 . S
C845 C851 1.390 . S
C846 H837 0.930 . S
C846 C844 1.384 . S
C846 C847 1.372 . S
C847 C846 1.372 . S
C847 C848 1.400 . S
C847 C852 1.490 . S
C848 H838 0.930 . S
C848 C847 1.400 . S
C848 C851 1.386 . S
H849 C865 0.930 . S
H850 C866 0.931 . S
C851 H839 0.929 . S
C851 C845 1.390 . S
C851 C848 1.386 . S
C852 C847 1.490 . S
C852 C854 1.395 . S
C852 C855 1.403 . S
H853 C859 0.930 . S
C854 H840 0.930 . S
C854 C852 1.395 . S
C854 C857 1.403 . S
C855 C852 1.403 . S
C855 C856 1.524 . S
C855 C859 1.400 . S
C856 H841 0.960 . S
C856 H842 0.960 . S
C856 H843 0.960 . S
C856 C855 1.524 . S
C857 C854 1.403 . S
C857 C858 1.392 . S
C857 C861 1.495 . S
C858 C857 1.392 . S
C858 C859 1.385 . S
C858 C860 1.478 . S
C859 H853 0.930 . S
C859 C855 1.400 . S
C859 C858 1.385 . S
C860 C858 1.478 . S
C860 C862 1.381 . S
C860 C866 1.383 . S
C861 C857 1.495 . S
C861 H867 0.959 . S
C861 H868 0.961 . S
C861 H869 0.960 . S
C862 C860 1.381 . S
C862 C863 1.394 . S
C862 H870 0.930 . S
C863 C862 1.394 . S
C863 C864 1.383 . S
C863 H871 0.929 . S
C864 C863 1.383 . S
C864 C865 1.377 . S
C865 H849 0.930 . S
C865 C864 1.377 . S
C865 C866 1.379 . S
C866 H850 0.931 . S
C866 C860 1.383 . S
C866 C865 1.379 . S
H867 C861 0.959 . S
H868 C861 0.961 . S
H869 C861 0.960 . S
H870 C862 0.930 . S
H871 C863 0.929 . S
H872 C880 0.929 . S
H873 C882 0.930 . S
H874 C884 0.930 . S
H875 C887 0.929 . S
H876 C890 0.930 . S
H877 C892 0.960 . S
H878 C892 0.960 . S
H879 C892 0.960 . S
C880 H872 0.929 . S
C880 C881 1.377 . S
C880 C882 1.384 . S
C881 C880 1.377 . S
C881 C887 1.390 . S
C882 H873 0.930 . S
C882 C880 1.384 . S
C882 C883 1.372 . S
C883 C882 1.372 . S
C883 C884 1.400 . S
C883 C888 1.490 . S
C884 H874 0.930 . S
C884 C883 1.400 . S
C884 C887 1.386 . S
H885 C901 0.930 . S
H886 C902 0.931 . S
C887 H875 0.929 . S
C887 C881 1.390 . S
C887 C884 1.386 . S
C888 C883 1.490 . S
C888 C890 1.395 . S
C888 C891 1.403 . S
H889 C895 0.930 . S
C890 H876 0.930 . S
C890 C888 1.395 . S
C890 C893 1.403 . S
C891 C888 1.403 . S
C891 C892 1.524 . S
C891 C895 1.400 . S
C892 H877 0.960 . S
C892 H878 0.960 . S
C892 H879 0.960 . S
C892 C891 1.524 . S
C893 C890 1.403 . S
C893 C894 1.392 . S
C893 C897 1.495 . S
C894 C893 1.392 . S
C894 C895 1.385 . S
C894 C896 1.478 . S
C895 H889 0.930 . S
C895 C891 1.400 . S
C895 C894 1.385 . S
C896 C894 1.478 . S
C896 C898 1.381 . S
C896 C902 1.383 . S
C897 C893 1.495 . S
C897 H903 0.959 . S
C897 H904 0.961 . S
C897 H905 0.960 . S
C898 C896 1.381 . S
C898 C899 1.394 . S
C898 H906 0.930 . S
C899 C898 1.394 . S
C899 C900 1.383 . S
C899 H907 0.929 . S
C900 C899 1.383 . S
C900 C901 1.377 . S
C901 H885 0.930 . S
C901 C900 1.377 . S
C901 C902 1.379 . S
C902 H886 0.931 . S
C902 C896 1.383 . S
C902 C901 1.379 . S
H903 C897 0.959 . S
H904 C897 0.961 . S
H905 C897 0.960 . S
H906 C898 0.930 . S
H907 C899 0.929 . S
H908 C916 0.929 . S
H909 C918 0.930 . S
H910 C920 0.930 . S
H911 C923 0.929 . S
H912 C926 0.930 . S
H913 C928 0.960 . S
H914 C928 0.960 . S
H915 C928 0.960 . S
C916 H908 0.929 . S
C916 C917 1.377 . S
C916 C918 1.384 . S
C917 C916 1.377 . S
C917 C923 1.390 . S
C918 H909 0.930 . S
C918 C916 1.384 . S
C918 C919 1.372 . S
C919 C918 1.372 . S
C919 C920 1.400 . S
C919 C924 1.490 . S
C920 H910 0.930 . S
C920 C919 1.400 . S
C920 C923 1.386 . S
H921 C937 0.930 . S
H922 C938 0.931 . S
C923 H911 0.929 . S
C923 C917 1.390 . S
C923 C920 1.386 . S
C924 C919 1.490 . S
C924 C926 1.395 . S
C924 C927 1.403 . S
H925 C931 0.930 . S
C926 H912 0.930 . S
C926 C924 1.395 . S
C926 C929 1.403 . S
C927 C924 1.403 . S
C927 C928 1.524 . S
C927 C931 1.400 . S
C928 H913 0.960 . S
C928 H914 0.960 . S
C928 H915 0.960 . S
C928 C927 1.524 . S
C929 C926 1.403 . S
C929 C930 1.392 . S
C929 C933 1.495 . S
C930 C929 1.392 . S
C930 C931 1.385 . S
C930 C932 1.478 . S
C931 H925 0.930 . S
C931 C927 1.400 . S
C931 C930 1.385 . S
C932 C930 1.478 . S
C932 C934 1.381 . S
C932 C938 1.383 . S
C933 C929 1.495 . S
C933 H939 0.959 . S
C933 H940 0.961 . S
C933 H941 0.960 . S
C934 C932 1.381 . S
C934 C935 1.394 . S
C934 H942 0.930 . S
C935 C934 1.394 . S
C935 C936 1.383 . S
C935 H943 0.929 . S
C936 C935 1.383 . S
C936 C937 1.377 . S
C937 H921 0.930 . S
C937 C936 1.377 . S
C937 C938 1.379 . S
C938 H922 0.931 . S
C938 C932 1.383 . S
C938 C937 1.379 . S
H939 C933 0.959 . S
H940 C933 0.961 . S
H941 C933 0.960 . S
H942 C934 0.930 . S
H943 C935 0.929 . S
H944 C952 0.929 . S
H945 C954 0.930 . S
H946 C956 0.930 . S
H947 C959 0.929 . S
H948 C962 0.930 . S
H949 C964 0.960 . S
H950 C964 0.960 . S
H951 C964 0.960 . S
C952 H944 0.929 . S
C952 C953 1.377 . S
C952 C954 1.384 . S
C953 C952 1.377 . S
C953 C959 1.390 . S
C954 H945 0.930 . S
C954 C952 1.384 . S
C954 C955 1.372 . S
C955 C954 1.372 . S
C955 C956 1.400 . S
C955 C960 1.490 . S
C956 H946 0.930 . S
C956 C955 1.400 . S
C956 C959 1.386 . S
H957 C973 0.930 . S
H958 C974 0.931 . S
C959 H947 0.929 . S
C959 C953 1.390 . S
C959 C956 1.386 . S
C960 C955 1.490 . S
C960 C962 1.395 . S
C960 C963 1.403 . S
H961 C967 0.930 . S
C962 H948 0.930 . S
C962 C960 1.395 . S
C962 C965 1.403 . S
C963 C960 1.403 . S
C963 C964 1.524 . S
C963 C967 1.400 . S
C964 H949 0.960 . S
C964 H950 0.960 . S
C964 H951 0.960 . S
C964 C963 1.524 . S
C965 C962 1.403 . S
C965 C966 1.392 . S
C965 C969 1.495 . S
C966 C965 1.392 . S
C966 C967 1.385 . S
C966 C968 1.478 . S
C967 H961 0.930 . S
C967 C963 1.400 . S
C967 C966 1.385 . S
C968 C966 1.478 . S
C968 C970 1.381 . S
C968 C974 1.383 . S
C969 C965 1.495 . S
C969 H975 0.959 . S
C969 H976 0.961 . S
C969 H977 0.960 . S
C970 C968 1.381 . S
C970 C971 1.394 . S
C970 H978 0.930 . S
C971 C970 1.394 . S
C971 C972 1.383 . S
C971 H979 0.929 . S
C972 C971 1.383 . S
C972 C973 1.377 . S
C973 H957 0.930 . S
C973 C972 1.377 . S
C973 C974 1.379 . S
C974 H958 0.931 . S
C974 C968 1.383 . S
C974 C973 1.379 . S
H975 C969 0.959 . S
H976 C969 0.961 . S
H977 C969 0.960 . S
H978 C970 0.930 . S
H979 C971 0.929 . S
H980 C988 0.929 . S
H981 C990 0.930 . S
H982 C992 0.930 . S
H983 C995 0.929 . S
H984 C998 0.930 . S
H985 C1000 0.960 . S
H986 C1000 0.960 . S
H987 C1000 0.960 . S
C988 H980 0.929 . S
C988 C989 1.377 . S
C988 C990 1.384 . S
C989 C988 1.377 . S
C989 C995 1.390 . S
C990 H981 0.930 . S
C990 C988 1.384 . S
C990 C991 1.372 . S
C991 C990 1.372 . S
C991 C992 1.400 . S
C991 C996 1.490 . S
C992 H982 0.930 . S
C992 C991 1.400 . S
C992 C995 1.386 . S
H993 C1009 0.930 . S
H994 C1010 0.931 . S
C995 H983 0.929 . S
C995 C989 1.390 . S
C995 C992 1.386 . S
C996 C991 1.490 . S
C996 C998 1.395 . S
C996 C999 1.403 . S
H997 C1003 0.930 . S
C998 H984 0.930 . S
C998 C996 1.395 . S
C998 C1001 1.403 . S
C999 C996 1.403 . S
C999 C1000 1.524 . S
C999 C1003 1.400 . S
C1000 H985 0.960 . S
C1000 H986 0.960 . S
C1000 H987 0.960 . S
C1000 C999 1.524 . S
C1001 C998 1.403 . S
C1001 C1002 1.392 . S
C1001 C1005 1.495 . S
C1002 C1001 1.392 . S
C1002 C1003 1.385 . S
C1002 C1004 1.478 . S
C1003 H997 0.930 . S
C1003 C999 1.400 . S
C1003 C1002 1.385 . S
C1004 C1002 1.478 . S
C1004 C1006 1.381 . S
C1004 C1010 1.383 . S
C1005 C1001 1.495 . S
C1005 H1011 0.959 . S
C1005 H1012 0.961 . S
C1005 H1013 0.960 . S
C1006 C1004 1.381 . S
C1006 C1007 1.394 . S
C1006 H1014 0.930 . S
C1007 C1006 1.394 . S
C1007 C1008 1.383 . S
C1007 H1015 0.929 . S
C1008 C1007 1.383 . S
C1008 C1009 1.377 . S
C1009 H993 0.930 . S
C1009 C1008 1.377 . S
C1009 C1010 1.379 . S
C1010 H994 0.931 . S
C1010 C1004 1.383 . S
C1010 C1009 1.379 . S
H1011 C1005 0.959 . S
H1012 C1005 0.961 . S
H1013 C1005 0.960 . S
H1014 C1006 0.930 . S
H1015 C1007 0.929 . S
H1016 C1024 0.929 1_554 S
H1017 C1026 0.930 . S
H1018 C1028 0.930 . S
H1019 C1031 0.929 . S
H1020 C1034 0.930 . S
H1021 C1036 0.960 . S
H1022 C1036 0.960 . S
H1023 C1036 0.960 . S
C1024 H1016 0.929 1_556 S
C1024 C1025 1.377 . S
C1024 C1026 1.384 . S
C1025 C1024 1.377 . S
C1025 C1031 1.390 . S
C1026 H1017 0.930 . S
C1026 C1024 1.384 . S
C1026 C1027 1.372 . S
C1027 C1026 1.372 . S
C1027 C1028 1.400 . S
C1027 C1032 1.490 . S
C1028 H1018 0.930 . S
C1028 C1027 1.400 . S
C1028 C1031 1.386 . S
H1029 C1045 0.930 . S
H1030 C1046 0.931 . S
C1031 H1019 0.929 . S
C1031 C1025 1.390 . S
C1031 C1028 1.386 . S
C1032 C1027 1.490 . S
C1032 C1034 1.395 . S
C1032 C1035 1.403 . S
H1033 C1039 0.930 . S
C1034 H1020 0.930 . S
C1034 C1032 1.395 . S
C1034 C1037 1.403 . S
C1035 C1032 1.403 . S
C1035 C1036 1.524 . S
C1035 C1039 1.400 . S
C1036 H1021 0.960 . S
C1036 H1022 0.960 . S
C1036 H1023 0.960 . S
C1036 C1035 1.524 . S
C1037 C1034 1.403 . S
C1037 C1038 1.392 . S
C1037 C1041 1.495 . S
C1038 C1037 1.392 . S
C1038 C1039 1.385 . S
C1038 C1040 1.478 . S
C1039 H1033 0.930 . S
C1039 C1035 1.400 . S
C1039 C1038 1.385 . S
C1040 C1038 1.478 . S
C1040 C1042 1.381 . S
C1040 C1046 1.383 . S
C1041 C1037 1.495 . S
C1041 H1047 0.959 . S
C1041 H1048 0.961 . S
C1041 H1049 0.960 . S
C1042 C1040 1.381 . S
C1042 C1043 1.394 . S
C1042 H1050 0.930 . S
C1043 C1042 1.394 . S
C1043 C1044 1.383 . S
C1043 H1051 0.929 . S
C1044 C1043 1.383 . S
C1044 C1045 1.377 . S
C1045 H1029 0.930 . S
C1045 C1044 1.377 . S
C1045 C1046 1.379 . S
C1046 H1030 0.931 . S
C1046 C1040 1.383 . S
C1046 C1045 1.379 . S
H1047 C1041 0.959 . S
H1048 C1041 0.961 . S
H1049 C1041 0.960 . S
H1050 C1042 0.930 . S
H1051 C1043 0.929 . S
H1052 C1060 0.929 . S
H1053 C1062 0.930 . S
H1054 C1064 0.930 . S
H1055 C1067 0.929 . S
H1056 C1070 0.930 . S
H1057 C1072 0.960 . S
H1058 C1072 0.960 . S
H1059 C1072 0.960 . S
C1060 H1052 0.929 . S
C1060 C1061 1.377 . S
C1060 C1062 1.384 . S
C1061 C1060 1.377 . S
C1061 C1067 1.390 . S
C1062 H1053 0.930 . S
C1062 C1060 1.384 . S
C1062 C1063 1.372 . S
C1063 C1062 1.372 . S
C1063 C1064 1.400 . S
C1063 C1068 1.490 . S
C1064 H1054 0.930 . S
C1064 C1063 1.400 . S
C1064 C1067 1.386 . S
H1065 C1081 0.930 . S
H1066 C1082 0.931 . S
C1067 H1055 0.929 . S
C1067 C1061 1.390 . S
C1067 C1064 1.386 . S
C1068 C1063 1.490 . S
C1068 C1070 1.395 . S
C1068 C1071 1.403 . S
H1069 C1075 0.930 . S
C1070 H1056 0.930 . S
C1070 C1068 1.395 . S
C1070 C1073 1.403 . S
C1071 C1068 1.403 . S
C1071 C1072 1.524 . S
C1071 C1075 1.400 . S
C1072 H1057 0.960 . S
C1072 H1058 0.960 . S
C1072 H1059 0.960 . S
C1072 C1071 1.524 . S
C1073 C1070 1.403 . S
C1073 C1074 1.392 . S
C1073 C1077 1.495 . S
C1074 C1073 1.392 . S
C1074 C1075 1.385 . S
C1074 C1076 1.478 . S
C1075 H1069 0.930 . S
C1075 C1071 1.400 . S
C1075 C1074 1.385 . S
C1076 C1074 1.478 . S
C1076 C1078 1.381 . S
C1076 C1082 1.383 . S
C1077 C1073 1.495 . S
C1077 H1083 0.959 . S
C1077 H1084 0.961 . S
C1077 H1085 0.960 . S
C1078 C1076 1.381 . S
C1078 C1079 1.394 . S
C1078 H1086 0.930 . S
C1079 C1078 1.394 . S
C1079 C1080 1.383 . S
C1079 H1087 0.929 . S
C1080 C1079 1.383 . S
C1080 C1081 1.377 . S
C1081 H1065 0.930 . S
C1081 C1080 1.377 . S
C1081 C1082 1.379 . S
C1082 H1066 0.931 . S
C1082 C1076 1.383 . S
C1082 C1081 1.379 . S
H1083 C1077 0.959 . S
H1084 C1077 0.961 . S
H1085 C1077 0.960 . S
H1086 C1078 0.930 . S
H1087 C1079 0.929 . S
H1088 C1096 0.929 . S
H1089 C1098 0.930 . S
H1090 C1100 0.930 . S
H1091 C1103 0.929 . S
H1092 C1106 0.930 . S
H1093 C1108 0.960 . S
H1094 C1108 0.960 . S
H1095 C1108 0.960 . S
C1096 H1088 0.929 . S
C1096 C1097 1.377 . S
C1096 C1098 1.384 . S
C1097 C1096 1.377 . S
C1097 C1103 1.390 . S
C1098 H1089 0.930 . S
C1098 C1096 1.384 . S
C1098 C1099 1.372 . S
C1099 C1098 1.372 . S
C1099 C1100 1.400 . S
C1099 C1104 1.490 . S
C1100 H1090 0.930 . S
C1100 C1099 1.400 . S
C1100 C1103 1.386 . S
H1101 C1117 0.930 . S
H1102 C1118 0.931 . S
C1103 H1091 0.929 . S
C1103 C1097 1.390 . S
C1103 C1100 1.386 . S
C1104 C1099 1.490 . S
C1104 C1106 1.395 . S
C1104 C1107 1.403 . S
H1105 C1111 0.930 . S
C1106 H1092 0.930 . S
C1106 C1104 1.395 . S
C1106 C1109 1.403 . S
C1107 C1104 1.403 . S
C1107 C1108 1.524 . S
C1107 C1111 1.400 . S
C1108 H1093 0.960 . S
C1108 H1094 0.960 . S
C1108 H1095 0.960 . S
C1108 C1107 1.524 . S
C1109 C1106 1.403 . S
C1109 C1110 1.392 . S
C1109 C1113 1.495 . S
C1110 C1109 1.392 . S
C1110 C1111 1.385 . S
C1110 C1112 1.478 . S
C1111 H1105 0.930 . S
C1111 C1107 1.400 . S
C1111 C1110 1.385 . S
C1112 C1110 1.478 . S
C1112 C1114 1.381 . S
C1112 C1118 1.383 . S
C1113 C1109 1.495 . S
C1113 H1119 0.959 . S
C1113 H1120 0.961 . S
C1113 H1121 0.960 . S
C1114 C1112 1.381 . S
C1114 C1115 1.394 . S
C1114 H1122 0.930 . S
C1115 C1114 1.394 . S
C1115 C1116 1.383 . S
C1115 H1123 0.929 . S
C1116 C1115 1.383 . S
C1116 C1117 1.377 . S
C1117 H1101 0.930 . S
C1117 C1116 1.377 . S
C1117 C1118 1.379 . S
C1118 H1102 0.931 . S
C1118 C1112 1.383 . S
C1118 C1117 1.379 . S
H1119 C1113 0.959 . S
H1120 C1113 0.961 . S
H1121 C1113 0.960 . S
H1122 C1114 0.930 . S
H1123 C1115 0.929 . S
H1124 C1132 0.929 . S
H1125 C1134 0.930 . S
H1126 C1136 0.930 . S
H1127 C1139 0.929 . S
H1128 C1142 0.930 . S
H1129 C1144 0.960 . S
H1130 C1144 0.960 . S
H1131 C1144 0.960 . S
C1132 H1124 0.929 . S
C1132 C1133 1.377 . S
C1132 C1134 1.384 . S
C1133 C1132 1.377 . S
C1133 C1139 1.390 . S
C1134 H1125 0.930 . S
C1134 C1132 1.384 . S
C1134 C1135 1.372 . S
C1135 C1134 1.372 . S
C1135 C1136 1.400 . S
C1135 C1140 1.490 . S
C1136 H1126 0.930 . S
C1136 C1135 1.400 . S
C1136 C1139 1.386 . S
H1137 C1153 0.930 . S
H1138 C1154 0.931 . S
C1139 H1127 0.929 . S
C1139 C1133 1.390 . S
C1139 C1136 1.386 . S
C1140 C1135 1.490 . S
C1140 C1142 1.395 . S
C1140 C1143 1.403 . S
H1141 C1147 0.930 . S
C1142 H1128 0.930 . S
C1142 C1140 1.395 . S
C1142 C1145 1.403 . S
C1143 C1140 1.403 . S
C1143 C1144 1.524 . S
C1143 C1147 1.400 . S
C1144 H1129 0.960 . S
C1144 H1130 0.960 . S
C1144 H1131 0.960 . S
C1144 C1143 1.524 . S
C1145 C1142 1.403 . S
C1145 C1146 1.392 . S
C1145 C1149 1.495 . S
C1146 C1145 1.392 . S
C1146 C1147 1.385 . S
C1146 C1148 1.478 . S
C1147 H1141 0.930 . S
C1147 C1143 1.400 . S
C1147 C1146 1.385 . S
C1148 C1146 1.478 . S
C1148 C1150 1.381 . S
C1148 C1154 1.383 . S
C1149 C1145 1.495 . S
C1149 H1155 0.959 . S
C1149 H1156 0.961 . S
C1149 H1157 0.960 . S
C1150 C1148 1.381 . S
C1150 C1151 1.394 . S
C1150 H1158 0.930 . S
C1151 C1150 1.394 . S
C1151 C1152 1.383 . S
C1151 H1159 0.929 . S
C1152 C1151 1.383 . S
C1152 C1153 1.377 . S
C1153 H1137 0.930 . S
C1153 C1152 1.377 . S
C1153 C1154 1.379 . S
C1154 H1138 0.931 . S
C1154 C1148 1.383 . S
C1154 C1153 1.379 . S
H1155 C1149 0.959 . S
H1156 C1149 0.961 . S
H1157 C1149 0.960 . S
H1158 C1150 0.930 . S
H1159 C1151 0.929 . S
H1160 C1168 0.929 . S
H1161 C1170 0.930 . S
H1162 C1172 0.930 . S
H1163 C1175 0.929 . S
H1164 C1178 0.930 . S
H1165 C1180 0.960 . S
H1166 C1180 0.960 . S
H1167 C1180 0.960 . S
C1168 H1160 0.929 . S
C1168 C1169 1.377 . S
C1168 C1170 1.384 . S
C1169 C1168 1.377 . S
C1169 C1175 1.390 . S
C1170 H1161 0.930 . S
C1170 C1168 1.384 . S
C1170 C1171 1.372 . S
C1171 C1170 1.372 . S
C1171 C1172 1.400 . S
C1171 C1176 1.490 . S
C1172 H1162 0.930 . S
C1172 C1171 1.400 . S
C1172 C1175 1.386 . S
H1173 C1189 0.930 . S
H1174 C1190 0.931 . S
C1175 H1163 0.929 . S
C1175 C1169 1.390 . S
C1175 C1172 1.386 . S
C1176 C1171 1.490 . S
C1176 C1178 1.395 . S
C1176 C1179 1.403 . S
H1177 C1183 0.930 . S
C1178 H1164 0.930 . S
C1178 C1176 1.395 . S
C1178 C1181 1.403 . S
C1179 C1176 1.403 . S
C1179 C1180 1.524 . S
C1179 C1183 1.400 . S
C1180 H1165 0.960 . S
C1180 H1166 0.960 . S
C1180 H1167 0.960 . S
C1180 C1179 1.524 . S
C1181 C1178 1.403 . S
C1181 C1182 1.392 . S
C1181 C1185 1.495 . S
C1182 C1181 1.392 . S
C1182 C1183 1.385 . S
C1182 C1184 1.478 . S
C1183 H1177 0.930 . S
C1183 C1179 1.400 . S
C1183 C1182 1.385 . S
C1184 C1182 1.478 . S
C1184 C1186 1.381 . S
C1184 C1190 1.383 . S
C1185 C1181 1.495 . S
C1185 H1191 0.959 . S
C1185 H1192 0.961 . S
C1185 H1193 0.960 . S
C1186 C1184 1.381 . S
C1186 C1187 1.394 . S
C1186 H1194 0.930 . S
C1187 C1186 1.394 . S
C1187 C1188 1.383 . S
C1187 H1195 0.929 . S
C1188 C1187 1.383 . S
C1188 C1189 1.377 . S
C1189 H1173 0.930 . S
C1189 C1188 1.377 . S
C1189 C1190 1.379 . S
C1190 H1174 0.931 . S
C1190 C1184 1.383 . S
C1190 C1189 1.379 . S
H1191 C1185 0.959 . S
H1192 C1185 0.961 . S
H1193 C1185 0.960 . S
H1194 C1186 0.930 . S
H1195 C1187 0.929 . S
H1196 C1204 0.929 . S
H1197 C1206 0.930 . S
H1198 C1208 0.930 . S
H1199 C1211 0.929 . S
H1200 C1214 0.930 . S
H1201 C1216 0.960 . S
H1202 C1216 0.960 . S
H1203 C1216 0.960 . S
C1204 H1196 0.929 . S
C1204 C1205 1.377 . S
C1204 C1206 1.384 . S
C1205 C1204 1.377 . S
C1205 C1211 1.390 . S
C1206 H1197 0.930 . S
C1206 C1204 1.384 . S
C1206 C1207 1.372 . S
C1207 C1206 1.372 . S
C1207 C1208 1.400 . S
C1207 C1212 1.490 . S
C1208 H1198 0.930 . S
C1208 C1207 1.400 . S
C1208 C1211 1.386 . S
H1209 C1225 0.930 . S
H1210 C1226 0.931 . S
C1211 H1199 0.929 . S
C1211 C1205 1.390 . S
C1211 C1208 1.386 . S
C1212 C1207 1.490 . S
C1212 C1214 1.395 . S
C1212 C1215 1.403 . S
H1213 C1219 0.930 . S
C1214 H1200 0.930 . S
C1214 C1212 1.395 . S
C1214 C1217 1.403 . S
C1215 C1212 1.403 . S
C1215 C1216 1.524 . S
C1215 C1219 1.400 . S
C1216 H1201 0.960 . S
C1216 H1202 0.960 . S
C1216 H1203 0.960 . S
C1216 C1215 1.524 . S
C1217 C1214 1.403 . S
C1217 C1218 1.392 . S
C1217 C1221 1.495 . S
C1218 C1217 1.392 . S
C1218 C1219 1.385 . S
C1218 C1220 1.478 . S
C1219 H1213 0.930 . S
C1219 C1215 1.400 . S
C1219 C1218 1.385 . S
C1220 C1218 1.478 . S
C1220 C1222 1.381 . S
C1220 C1226 1.383 . S
C1221 C1217 1.495 . S
C1221 H1227 0.959 . S
C1221 H1228 0.961 . S
C1221 H1229 0.960 . S
C1222 C1220 1.381 . S
C1222 C1223 1.394 . S
C1222 H1230 0.930 . S
C1223 C1222 1.394 . S
C1223 C1224 1.383 . S
C1223 H1231 0.929 . S
C1224 C1223 1.383 . S
C1224 C1225 1.377 . S
C1225 H1209 0.930 . S
C1225 C1224 1.377 . S
C1225 C1226 1.379 . S
C1226 H1210 0.931 . S
C1226 C1220 1.383 . S
C1226 C1225 1.379 . S
H1227 C1221 0.959 . S
H1228 C1221 0.961 . S
H1229 C1221 0.960 . S
H1230 C1222 0.930 . S
H1231 C1223 0.929 . S
H1232 C1240 0.929 . S
H1233 C1242 0.930 . S
H1234 C1244 0.930 . S
H1235 C1247 0.929 . S
H1236 C1250 0.930 . S
H1237 C1252 0.960 . S
H1238 C1252 0.960 . S
H1239 C1252 0.960 . S
C1240 H1232 0.929 . S
C1240 C1241 1.377 . S
C1240 C1242 1.384 . S
C1241 C1240 1.377 . S
C1241 C1247 1.390 . S
C1242 H1233 0.930 . S
C1242 C1240 1.384 . S
C1242 C1243 1.372 . S
C1243 C1242 1.372 . S
C1243 C1244 1.400 . S
C1243 C1248 1.490 . S
C1244 H1234 0.930 . S
C1244 C1243 1.400 . S
C1244 C1247 1.386 . S
H1245 C1261 0.930 . S
H1246 C1262 0.931 . S
C1247 H1235 0.929 . S
C1247 C1241 1.390 . S
C1247 C1244 1.386 . S
C1248 C1243 1.490 . S
C1248 C1250 1.395 . S
C1248 C1251 1.403 . S
H1249 C1255 0.930 . S
C1250 H1236 0.930 . S
C1250 C1248 1.395 . S
C1250 C1253 1.403 . S
C1251 C1248 1.403 . S
C1251 C1252 1.524 . S
C1251 C1255 1.400 . S
C1252 H1237 0.960 . S
C1252 H1238 0.960 . S
C1252 H1239 0.960 . S
C1252 C1251 1.524 . S
C1253 C1250 1.403 . S
C1253 C1254 1.392 . S
C1253 C1257 1.495 . S
C1254 C1253 1.392 . S
C1254 C1255 1.385 . S
C1254 C1256 1.478 . S
C1255 H1249 0.930 . S
C1255 C1251 1.400 . S
C1255 C1254 1.385 . S
C1256 C1254 1.478 . S
C1256 C1258 1.381 . S
C1256 C1262 1.383 . S
C1257 C1253 1.495 . S
C1257 H1263 0.959 . S
C1257 H1264 0.961 . S
C1257 H1265 0.960 . S
C1258 C1256 1.381 . S
C1258 C1259 1.394 . S
C1258 H1266 0.930 . S
C1259 C1258 1.394 . S
C1259 C1260 1.383 . S
C1259 H1267 0.929 . S
C1260 C1259 1.383 . S
C1260 C1261 1.377 . S
C1261 H1245 0.930 . S
C1261 C1260 1.377 . S
C1261 C1262 1.379 . S
C1262 H1246 0.931 . S
C1262 C1256 1.383 . S
C1262 C1261 1.379 . S
H1263 C1257 0.959 . S
H1264 C1257 0.961 . S
H1265 C1257 0.960 . S
H1266 C1258 0.930 . S
H1267 C1259 0.929 . S
H1268 C1276 0.929 . S
H1269 C1278 0.930 . S
H1270 C1280 0.930 . S
H1271 C1283 0.929 . S
H1272 C1286 0.930 . S
H1273 C1288 0.960 . S
H1274 C1288 0.960 . S
H1275 C1288 0.960 . S
C1276 H1268 0.929 . S
C1276 C1277 1.377 . S
C1276 C1278 1.384 . S
C1277 C1276 1.377 . S
C1277 C1283 1.390 . S
C1278 H1269 0.930 . S
C1278 C1276 1.384 . S
C1278 C1279 1.372 . S
C1279 C1278 1.372 . S
C1279 C1280 1.400 . S
C1279 C1284 1.490 . S
C1280 H1270 0.930 . S
C1280 C1279 1.400 . S
C1280 C1283 1.386 . S
H1281 C1297 0.930 . S
H1282 C1298 0.931 . S
C1283 H1271 0.929 . S
C1283 C1277 1.390 . S
C1283 C1280 1.386 . S
C1284 C1279 1.490 . S
C1284 C1286 1.395 . S
C1284 C1287 1.403 . S
H1285 C1291 0.930 . S
C1286 H1272 0.930 . S
C1286 C1284 1.395 . S
C1286 C1289 1.403 . S
C1287 C1284 1.403 . S
C1287 C1288 1.524 . S
C1287 C1291 1.400 . S
C1288 H1273 0.960 . S
C1288 H1274 0.960 . S
C1288 H1275 0.960 . S
C1288 C1287 1.524 . S
C1289 C1286 1.403 . S
C1289 C1290 1.392 . S
C1289 C1293 1.495 . S
C1290 C1289 1.392 . S
C1290 C1291 1.385 . S
C1290 C1292 1.478 . S
C1291 H1285 0.930 . S
C1291 C1287 1.400 . S
C1291 C1290 1.385 . S
C1292 C1290 1.478 . S
C1292 C1294 1.381 . S
C1292 C1298 1.383 . S
C1293 C1289 1.495 . S
C1293 H1299 0.959 . S
C1293 H1300 0.961 . S
C1293 H1301 0.960 . S
C1294 C1292 1.381 . S
C1294 C1295 1.394 . S
C1294 H1302 0.930 . S
C1295 C1294 1.394 . S
C1295 C1296 1.383 . S
C1295 H1303 0.929 . S
C1296 C1295 1.383 . S
C1296 C1297 1.377 . S
C1297 H1281 0.930 . S
C1297 C1296 1.377 . S
C1297 C1298 1.379 . S
C1298 H1282 0.931 . S
C1298 C1292 1.383 . S
C1298 C1297 1.379 . S
H1299 C1293 0.959 . S
H1300 C1293 0.961 . S
H1301 C1293 0.960 . S
H1302 C1294 0.930 . S
H1303 C1295 0.929 . S
H1304 C1312 0.929 . S
H1305 C1314 0.930 . S
H1306 C1316 0.930 . S
H1307 C1319 0.929 . S
H1308 C1322 0.930 . S
H1309 C1324 0.960 . S
H1310 C1324 0.960 . S
H1311 C1324 0.960 . S
C1312 H1304 0.929 . S
C1312 C1313 1.377 . S
C1312 C1314 1.384 . S
C1313 C1312 1.377 . S
C1313 C1319 1.390 . S
C1314 H1305 0.930 . S
C1314 C1312 1.384 . S
C1314 C1315 1.372 . S
C1315 C1314 1.372 . S
C1315 C1316 1.400 . S
C1315 C1320 1.490 . S
C1316 H1306 0.930 . S
C1316 C1315 1.400 . S
C1316 C1319 1.386 . S
H1317 C1333 0.930 . S
H1318 C1334 0.931 . S
C1319 H1307 0.929 . S
C1319 C1313 1.390 . S
C1319 C1316 1.386 . S
C1320 C1315 1.490 . S
C1320 C1322 1.395 . S
C1320 C1323 1.403 . S
H1321 C1327 0.930 . S
C1322 H1308 0.930 . S
C1322 C1320 1.395 . S
C1322 C1325 1.403 . S
C1323 C1320 1.403 . S
C1323 C1324 1.524 . S
C1323 C1327 1.400 . S
C1324 H1309 0.960 . S
C1324 H1310 0.960 . S
C1324 H1311 0.960 . S
C1324 C1323 1.524 . S
C1325 C1322 1.403 . S
C1325 C1326 1.392 . S
C1325 C1329 1.495 . S
C1326 C1325 1.392 . S
C1326 C1327 1.385 . S
C1326 C1328 1.478 . S
C1327 H1321 0.930 . S
C1327 C1323 1.400 . S
C1327 C1326 1.385 . S
C1328 C1326 1.478 . S
C1328 C1330 1.381 . S
C1328 C1334 1.383 . S
C1329 C1325 1.495 . S
C1329 H1335 0.959 . S
C1329 H1336 0.961 . S
C1329 H1337 0.960 . S
C1330 C1328 1.381 . S
C1330 C1331 1.394 . S
C1330 H1338 0.930 . S
C1331 C1330 1.394 . S
C1331 C1332 1.383 . S
C1331 H1339 0.929 . S
C1332 C1331 1.383 . S
C1332 C1333 1.377 . S
C1333 H1317 0.930 . S
C1333 C1332 1.377 . S
C1333 C1334 1.379 . S
C1334 H1318 0.931 . S
C1334 C1328 1.383 . S
C1334 C1333 1.379 . S
H1335 C1329 0.959 . S
H1336 C1329 0.961 . S
H1337 C1329 0.960 . S
H1338 C1330 0.930 . S
H1339 C1331 0.929 . S
H1340 C1348 0.929 . S
H1341 C1350 0.930 . S
H1342 C1352 0.930 . S
H1343 C1355 0.929 . S
H1344 C1358 0.930 . S
H1345 C1360 0.960 . S
H1346 C1360 0.960 . S
H1347 C1360 0.960 . S
C1348 H1340 0.929 . S
C1348 C1349 1.377 . S
C1348 C1350 1.384 . S
C1349 C1348 1.377 . S
C1349 C1355 1.390 . S
C1350 H1341 0.930 . S
C1350 C1348 1.384 . S
C1350 C1351 1.372 . S
C1351 C1350 1.372 . S
C1351 C1352 1.400 . S
C1351 C1356 1.490 . S
C1352 H1342 0.930 . S
C1352 C1351 1.400 . S
C1352 C1355 1.386 . S
H1353 C1369 0.930 . S
H1354 C1370 0.931 . S
C1355 H1343 0.929 . S
C1355 C1349 1.390 . S
C1355 C1352 1.386 . S
C1356 C1351 1.490 . S
C1356 C1358 1.395 . S
C1356 C1359 1.403 . S
H1357 C1363 0.930 . S
C1358 H1344 0.930 . S
C1358 C1356 1.395 . S
C1358 C1361 1.403 . S
C1359 C1356 1.403 . S
C1359 C1360 1.524 . S
C1359 C1363 1.400 . S
C1360 H1345 0.960 . S
C1360 H1346 0.960 . S
C1360 H1347 0.960 . S
C1360 C1359 1.524 . S
C1361 C1358 1.403 . S
C1361 C1362 1.392 . S
C1361 C1365 1.495 . S
C1362 C1361 1.392 . S
C1362 C1363 1.385 . S
C1362 C1364 1.478 . S
C1363 H1357 0.930 . S
C1363 C1359 1.400 . S
C1363 C1362 1.385 . S
C1364 C1362 1.478 . S
C1364 C1366 1.381 . S
C1364 C1370 1.383 . S
C1365 C1361 1.495 . S
C1365 H1371 0.959 . S
C1365 H1372 0.961 . S
C1365 H1373 0.960 . S
C1366 C1364 1.381 . S
C1366 C1367 1.394 . S
C1366 H1374 0.930 . S
C1367 C1366 1.394 . S
C1367 C1368 1.383 . S
C1367 H1375 0.929 . S
C1368 C1367 1.383 . S
C1368 C1369 1.377 . S
C1369 H1353 0.930 . S
C1369 C1368 1.377 . S
C1369 C1370 1.379 . S
C1370 H1354 0.931 . S
C1370 C1364 1.383 . S
C1370 C1369 1.379 . S
H1371 C1365 0.959 . S
H1372 C1365 0.961 . S
H1373 C1365 0.960 . S
H1374 C1366 0.930 . S
H1375 C1367 0.929 . S
C233 C11 1.071 . S
C252 C67 1.065 . S
C269 C81 1.071 . S
C288 C25 1.063 . S
C305 C39 1.072 . S
C324 C95 1.074 . S
C341 C53 1.071 . S
C360 C109 1.064 . S
C377 C123 1.073 . S
C396 C179 1.063 . S
C413 C193 1.071 . S
C432 C137 1.068 . S
C449 C151 1.071 . S
C468 C207 1.073 . S
C485 C165 1.071 . S
C504 C221 1.077 . S
C521 C13 1.046 1_556 S
C540 C218 1.099 . S
C557 C176 1.066 . S
C576 C27 1.086 . S
C593 C41 1.027 1_556 S
C612 C190 1.022 . S
C629 C204 1.056 . S
C648 C55 1.007 . S
C665 C134 1.065 . S
C684 C69 1.059 1_554 S
C701 C148 1.065 . S
C720 C83 1.084 . S
C737 C162 1.067 . S
C756 C97 1.071 1_554 S
C773 C120 1.054 . S
C792 C111 1.028 . S
C809 C125 1.040 1_554 S
C828 C106 1.022 . S
C845 C64 1.050 . S
C864 C139 1.067 . S
C881 C78 1.054 . S
C900 C153 1.080 1_554 S
C917 C167 1.027 . S
C936 C92 1.098 . S
C953 C22 1.052 . S
C972 C181 1.046 1_556 S
C989 C195 1.032 . S
C1008 C36 1.096 . S
C1025 C209 1.027 1_556 S
C1044 C50 1.096 . S
C1061 C223 1.041 . S
C1080 C8 1.021 . S
C1097 C105 1.124 . S
C1116 C7 1.148 . S
C1133 C21 1.137 . S
C1152 C63 1.096 . S
C1169 C35 1.133 . S
C1188 C77 1.100 . S
C1205 C49 1.136 . S
C1224 C91 1.094 . S
C1241 C217 1.133 . S
C1260 C119 1.099 . S
C1277 C175 1.125 . S
C1296 C133 1.151 . S
C1313 C189 1.134 . S
C1332 C147 1.154 . S
C1349 C203 1.128 . S
C1368 C161 1.095 . S
