# Generated by pormake.
# Topology umy, (4)-cn, num edge types: 1
# Building blocks:
#     Node 0, Type 0, BuildingBlock: CEKHIL_clean_sbu_0, # of connection points: 4
#     Node 1, Type 0, BuildingBlock: CEKHIL_clean_sbu_0, # of connection points: 4
#     Node 2, Type 0, BuildingBlock: CEKHIL_clean_sbu_0, # of connection points: 4
#     Node 3, Type 0, BuildingBlock: CEKHIL_clean_sbu_0, # of connection points: 4
#     Node 4, Type 0, BuildingBlock: CEKHIL_clean_sbu_0, # of connection points: 4
#     Node 5, Type 0, BuildingBlock: CEKHIL_clean_sbu_0, # of connection points: 4
#     Node 6, Type 0, BuildingBlock: CEKHIL_clean_sbu_0, # of connection points: 4
#     Node 7, Type 0, BuildingBlock: CEKHIL_clean_sbu_0, # of connection points: 4
#     Node 8, Type 0, BuildingBlock: CEKHIL_clean_sbu_0, # of connection points: 4
#     Node 9, Type 0, BuildingBlock: CEKHIL_clean_sbu_0, # of connection points: 4
#     Node 10, Type 0, BuildingBlock: CEKHIL_clean_sbu_0, # of connection points: 4
#     Node 11, Type 0, BuildingBlock: CEKHIL_clean_sbu_0, # of connection points: 4
#     Edge 12, Type (0, 0), BuildingBlock: ZUJKAS_clean_linker_0, # of connection points: 2
#     Edge 13, Type (0, 0), BuildingBlock: ZUJKAS_clean_linker_0, # of connection points: 2
#     Edge 14, Type (0, 0), BuildingBlock: ZUJKAS_clean_linker_0, # of connection points: 2
#     Edge 15, Type (0, 0), BuildingBlock: ZUJKAS_clean_linker_0, # of connection points: 2
#     Edge 16, Type (0, 0), BuildingBlock: ZUJKAS_clean_linker_0, # of connection points: 2
#     Edge 17, Type (0, 0), BuildingBlock: ZUJKAS_clean_linker_0, # of connection points: 2
#     Edge 18, Type (0, 0), BuildingBlock: ZUJKAS_clean_linker_0, # of connection points: 2
#     Edge 19, Type (0, 0), BuildingBlock: ZUJKAS_clean_linker_0, # of connection points: 2
#     Edge 20, Type (0, 0), BuildingBlock: ZUJKAS_clean_linker_0, # of connection points: 2
#     Edge 21, Type (0, 0), BuildingBlock: ZUJKAS_clean_linker_0, # of connection points: 2
#     Edge 22, Type (0, 0), BuildingBlock: ZUJKAS_clean_linker_0, # of connection points: 2
#     Edge 23, Type (0, 0), BuildingBlock: ZUJKAS_clean_linker_0, # of connection points: 2
#     Edge 24, Type (0, 0), BuildingBlock: ZUJKAS_clean_linker_0, # of connection points: 2
#     Edge 25, Type (0, 0), BuildingBlock: ZUJKAS_clean_linker_0, # of connection points: 2
#     Edge 26, Type (0, 0), BuildingBlock: ZUJKAS_clean_linker_0, # of connection points: 2
#     Edge 27, Type (0, 0), BuildingBlock: ZUJKAS_clean_linker_0, # of connection points: 2
#     Edge 28, Type (0, 0), BuildingBlock: ZUJKAS_clean_linker_0, # of connection points: 2
#     Edge 29, Type (0, 0), BuildingBlock: ZUJKAS_clean_linker_0, # of connection points: 2
#     Edge 30, Type (0, 0), BuildingBlock: ZUJKAS_clean_linker_0, # of connection points: 2
#     Edge 31, Type (0, 0), BuildingBlock: ZUJKAS_clean_linker_0, # of connection points: 2
#     Edge 32, Type (0, 0), BuildingBlock: ZUJKAS_clean_linker_0, # of connection points: 2
#     Edge 33, Type (0, 0), BuildingBlock: ZUJKAS_clean_linker_0, # of connection points: 2
#     Edge 34, Type (0, 0), BuildingBlock: ZUJKAS_clean_linker_0, # of connection points: 2
#     Edge 35, Type (0, 0), BuildingBlock: ZUJKAS_clean_linker_0, # of connection points: 2
# Relax obj value: 0.116
# Max RMSD: 0.081
# Mean RMSD: 0.081
data_MOF--net-umy--node1-CEKHIL_clean_sbu_0--edge1-ZUJKAS_clean_linker_0
_symmetry_space_group_name_H-M    P1
_symmetry_Int_Tables_number       1
_symmetry_cell_setting            triclinic
loop_
_symmetry_equiv_pos_as_xyz
'x, y, z'
_cell_length_a     48.936961
_cell_length_b     48.948683
_cell_length_c     67.021289
_cell_angle_alpha  89.997486
_cell_angle_beta   90.011975
_cell_angle_gamma 120.01551
loop_
_atom_site_label
_atom_site_type_symbol
_atom_site_fract_x
_atom_site_fract_y
_atom_site_fract_z
_atom_type_partial_charge
Co0 Co 0.05021 0.34652 0.13225 0.0
O1 O 0.03517 0.36524 0.11299 0.0
O2 O 0.07756 0.39187 0.13186 0.0
C3 C 0.00302 0.31426 0.14671 0.0
O4 O 0.07214 0.33614 0.15439 0.0
Co5 Co 0.02768 0.27501 0.1316 0.0
O6 O 0.04823 0.28356 0.15821 0.0
C7 C 0.07547 0.31712 0.10245 0.0
C8 C 0.05864 0.39234 0.11841 0.0
C9 C 0.06793 0.31148 0.16392 0.0
O10 O 0.07703 0.3413 0.11123 0.0
O11 O 0.0555 0.28866 0.10734 0.0
O12 O 0.01925 0.34381 0.15176 0.0
O13 O 0.01417 0.30604 0.13187 0.0
Co14 Co 0.70725 0.04955 0.30073 0.0
O15 O 0.67635 0.03631 0.27955 0.0
O16 O 0.68864 0.07624 0.30007 0.0
C17 C 0.69101 1.00104 0.31369 0.0
O18 O 0.73614 0.06972 0.32474 0.0
Co19 Co 0.75705 0.02797 0.30319 0.0
O20 O 0.76449 0.04592 0.33046 0.0
C21 C 0.76738 0.07947 0.27549 0.0
C22 C 0.67137 0.05876 0.28541 0.0
C23 C 0.75528 0.06512 0.33551 0.0
O24 O 0.74206 0.07866 0.28175 0.0
O25 O 0.77621 0.06022 0.28143 0.0
O26 O 0.67641 0.01628 0.31812 0.0
O27 O 0.71268 0.01408 0.30022 0.0
Co28 Co 0.6578 0.70426 0.46608 0.0
O29 O 0.63961 0.67159 0.44603 0.0
O30 O 0.61239 0.68529 0.46594 0.0
C31 C 0.69089 0.68966 0.47975 0.0
O32 O 0.66742 0.73522 0.48895 0.0
Co33 Co 0.72905 0.75459 0.46604 0.0
O34 O 0.71989 0.7652 0.4929 0.0
C35 C 0.68641 0.76006 0.4372 0.0
C36 C 0.61229 0.66694 0.45189 0.0
C37 C 0.69174 0.75588 0.49865 0.0
O38 O 0.66236 0.73715 0.4459 0.0
O39 O 0.71496 0.76867 0.44194 0.0
O40 O 0.66123 0.6753 0.48465 0.0
O41 O 0.69875 0.70987 0.46541 0.0
Co42 Co 0.95587 0.65996 0.63245 0.0
O43 O 0.97017 0.64104 0.61286 0.0
O44 O 0.92796 0.61469 0.63188 0.0
C45 C 0.00358 0.6913 0.6466 0.0
O46 O 0.93447 0.67043 0.65491 0.0
Co47 Co 0.97972 0.7317 0.63296 0.0
O48 O 0.95947 0.72285 0.65965 0.0
C49 C 0.93077 0.69093 0.60378 0.0
C50 C 0.94657 0.61403 0.61827 0.0
C51 C 0.93919 0.69488 0.66491 0.0
O52 O 0.92926 0.66619 0.61171 0.0
O53 O 0.95087 0.71903 0.60925 0.0
O54 O 0.98683 0.66182 0.65169 0.0
O55 O 0.9924 0.7001 0.63208 0.0
Co56 Co 0.30034 0.95414 0.79897 0.0
O57 O 0.33326 0.96825 0.77917 0.0
O58 O 0.31778 0.9263 0.79837 0.0
C59 C 0.3169 0.002 0.81296 0.0
O60 O 0.26883 0.93298 0.82168 0.0
Co61 Co 0.25246 0.97814 0.79992 0.0
O62 O 0.24156 0.95809 0.82663 0.0
C63 C 0.24289 0.92783 0.7714 0.0
C64 C 0.33685 0.9448 0.78465 0.0
C65 C 0.24924 0.93777 0.8318 0.0
O66 O 0.26711 0.92724 0.77849 0.0
O67 O 0.23458 0.94755 0.77719 0.0
O68 O 0.3298 0.98537 0.81796 0.0
O69 O 0.29665 0.99061 0.79859 0.0
Co70 Co 0.34427 0.29643 0.9661 0.0
O71 O 0.36258 0.32824 0.94552 0.0
O72 O 0.38965 0.31489 0.96578 0.0
C73 C 0.31171 0.31228 0.9791 0.0
O74 O 0.33457 0.26644 0.98965 0.0
Co75 Co 0.27264 0.24684 0.96705 0.0
O76 O 0.2821 0.23722 0.99402 0.0
C77 C 0.31478 0.23751 0.93971 0.0
C78 C 0.38986 0.33282 0.9514 0.0
C79 C 0.31026 0.24633 0.99963 0.0
O80 O 0.33908 0.26241 0.94661 0.0
O81 O 0.28646 0.22863 0.94513 0.0
O82 O 0.34139 0.32657 0.98394 0.0
O83 O 0.30349 0.29125 0.96525 0.0
Co84 Co 0.66061 0.9538 0.70022 0.0
O85 O 0.64254 0.96845 0.72024 0.0
O86 O 0.61529 0.92671 0.70097 0.0
C87 C 0.69285 1.00137 0.68609 0.0
O88 O 0.67002 0.93217 0.67738 0.0
Co89 Co 0.73218 0.97583 0.69947 0.0
O90 O 0.72243 0.95445 0.67316 0.0
C91 C 0.69072 0.92726 0.72854 0.0
C92 C 0.61522 0.94528 0.71482 0.0
C93 C 0.69419 0.93537 0.6677 0.0
O94 O 0.66626 0.92627 0.72053 0.0
O95 O 0.719 0.94711 0.72324 0.0
O96 O 0.66308 0.98566 0.68147 0.0
O97 O 0.70132 0.98947 0.70036 0.0
Co98 Co 0.70561 0.65578 0.86633 0.0
O99 O 0.67188 0.63714 0.8856 0.0
O100 O 0.68725 0.61035 0.86662 0.0
C101 C 0.69093 0.68838 0.85202 0.0
O102 O 0.73794 0.66627 0.84414 0.0
Co103 Co 0.75488 0.72737 0.86753 0.0
O104 O 0.76802 0.71895 0.84129 0.0
C105 C 0.75979 0.68471 0.89651 0.0
C106 C 0.66793 0.60997 0.88009 0.0
C107 C 0.75931 0.6911 0.83517 0.0
O108 O 0.73766 0.66069 0.88729 0.0
O109 O 0.76805 0.71325 0.89201 0.0
O110 O 0.67731 0.65881 0.84698 0.0
O111 O 0.71038 0.69636 0.86681 0.0
Co112 Co 0.05078 0.70689 0.03269 0.0
O113 O 0.03653 0.67423 0.0527 0.0
O114 O 0.0779 0.68868 0.03309 0.0
C115 C 0.00298 0.69149 0.0189 0.0
O116 O 0.07184 0.73795 0.0098 0.0
Co117 Co 0.02857 0.75627 0.03272 0.0
O118 O 0.04888 0.76754 0.00604 0.0
C119 C 0.07676 0.76249 0.0617 0.0
C120 C 0.0596 0.67009 0.04705 0.0
C121 C 0.06795 0.75857 0.00021 0.0
O122 O 0.07862 0.74005 0.05291 0.0
O123 O 0.05632 0.77044 0.05699 0.0
O124 O 0.01867 0.67751 0.01408 0.0
O125 O 0.01504 0.71177 0.03322 0.0
Co126 Co 0.34759 0.04948 0.19997 0.0
O127 O 0.36608 0.0349 0.21975 0.0
O128 O 0.39296 0.07631 0.20016 0.0
C129 C 0.31484 0.00188 0.18606 0.0
O130 O 0.33761 0.07102 0.17737 0.0
Co131 Co 0.27608 0.02767 0.20012 0.0
O132 O 0.28508 0.04793 0.17343 0.0
C133 C 0.3184 0.0757 0.22917 0.0
C134 C 0.3933 0.05785 0.21399 0.0
C135 C 0.31315 0.0672 0.16775 0.0
O136 O 0.34263 0.07718 0.22048 0.0
O137 O 0.28995 0.05566 0.22428 0.0
O138 O 0.34447 0.0175 0.18112 0.0
O139 O 0.30685 0.0139 0.20052 0.0
Co140 Co 0.29703 0.34403 0.36617 0.0
O141 O 0.32946 0.36219 0.38636 0.0
O142 O 0.31616 0.38947 0.36622 0.0
C143 C 0.31166 0.31078 0.35285 0.0
O144 O 0.26625 0.3343 0.34312 0.0
Co145 Co 0.24651 0.27281 0.36654 0.0
O146 O 0.23533 0.28181 0.33983 0.0
C147 C 0.24127 0.31583 0.39511 0.0
C148 C 0.33428 0.38952 0.38043 0.0
C149 C 0.24503 0.30988 0.33376 0.0
O150 O 0.264 0.33972 0.38617 0.0
O151 O 0.23275 0.28722 0.39063 0.0
O152 O 0.32622 0.3404 0.34789 0.0
O153 O 0.29124 0.30305 0.36705 0.0
Co154 Co 0.95561 0.29955 0.53433 0.0
O155 O 0.97054 0.33281 0.554 0.0
O156 O 0.92857 0.31782 0.53486 0.0
C157 C 0.0029 0.31432 0.51999 0.0
O158 O 0.93365 0.26787 0.51189 0.0
Co159 Co 0.97731 0.24981 0.53449 0.0
O160 O 0.95532 0.23709 0.50837 0.0
C161 C 0.92971 0.2443 0.56369 0.0
C162 C 0.94725 0.33674 0.54857 0.0
C163 C 0.93643 0.24634 0.50264 0.0
O164 O 0.92823 0.26699 0.55496 0.0
O165 O 0.94972 0.23586 0.55884 0.0
O166 O 0.98721 0.32835 0.51526 0.0
O167 O 0.99122 0.29442 0.53454 0.0
H168 H 0.10531 0.65532 0.038 0.0
H169 H 0.10961 0.61046 0.05027 0.0
H170 H 0.02694 0.58118 0.08674 0.0
H171 H 0.02283 0.6262 0.07485 0.0
H172 H 0.07374 0.57718 0.10671 0.0
H173 H 0.05258 0.51953 0.03254 0.0
H174 H 0.08532 0.55918 0.03323 0.0
H175 H 0.04597 0.55203 0.03733 0.0
C176 C 0.08816 0.63943 0.04872 0.0
C177 C 0.06362 0.64423 0.05536 0.0
C178 C 0.09052 0.61367 0.05562 0.0
C179 C 0.06825 0.5921 0.06914 0.0
C180 C 0.0443 0.5974 0.07623 0.0
H181 H 0.01814 0.3999 0.09416 0.0
H182 H 0.02256 0.44921 0.08247 0.0
C183 C 0.04198 0.62317 0.0694 0.0
C184 C 0.06949 0.56375 0.07579 0.0
H185 H 0.06498 0.49569 0.05902 0.0
C186 C 0.07193 0.55939 0.09629 0.0
C187 C 0.06667 0.54033 0.0622 0.0
C188 C 0.06219 0.54274 0.04012 0.0
C189 C 0.07153 0.53226 0.10358 0.0
C190 C 0.06933 0.50912 0.08995 0.0
C191 C 0.067 0.51356 0.06945 0.0
C192 C 0.06759 0.47931 0.09669 0.0
C193 C 0.07235 0.52817 0.12585 0.0
C194 C 0.09171 0.47969 0.10829 0.0
C195 C 0.08909 0.45144 0.11516 0.0
C196 C 0.06252 0.42227 0.11032 0.0
C197 C 0.03891 0.42194 0.09818 0.0
C198 C 0.04142 0.45015 0.09147 0.0
H199 H 0.06573 0.54363 0.13419 0.0
H200 H 0.05613 0.50333 0.13031 0.0
H201 H 0.09664 0.53457 0.13038 0.0
H202 H 0.11251 0.50183 0.11209 0.0
H203 H 0.1078 0.45247 0.12435 0.0
H204 H 0.64087 0.03601 0.24989 0.0
H205 H 0.59638 0.03999 0.23661 0.0
H206 H 0.59809 0.09248 0.28878 0.0
H207 H 0.64347 0.08989 0.30159 0.0
H208 H 0.53976 0.01677 0.25023 0.0
H209 H 0.59085 0.14613 0.24728 0.0
H210 H 0.61473 0.12817 0.25168 0.0
H211 H 0.59342 0.13331 0.2719 0.0
C212 C 0.63207 0.04886 0.25835 0.0
C213 C 0.64582 0.06285 0.2767 0.0
C214 C 0.60657 0.05106 0.25077 0.0
C215 C 0.59405 0.067 0.26149 0.0
C216 C 0.60782 0.08095 0.27986 0.0
H217 H 0.40113 0.02804 0.2461 0.0
H218 H 0.45 0.03128 0.25779 0.0
C219 C 0.63369 0.07926 0.28726 0.0
C220 C 0.56544 0.06724 0.25406 0.0
H221 H 0.53452 0.11509 0.24495 0.0
C222 C 0.53878 0.03835 0.24893 0.0
C223 C 0.5641 0.09538 0.25205 0.0
C224 C 0.59244 0.1275 0.25582 0.0
C225 C 0.5108 0.03671 0.24221 0.0
C226 C 0.50891 0.06463 0.24125 0.0
C227 C 0.53573 0.09361 0.24599 0.0
C228 C 0.47951 0.06427 0.23502 0.0
C229 C 0.48382 0.00508 0.23579 0.0
C230 C 0.47998 0.08297 0.21897 0.0
C231 C 0.45212 0.08164 0.2125 0.0
C232 C 0.42321 0.06148 0.22192 0.0
C233 C 0.42296 0.04356 0.23839 0.0
C234 C 0.45086 0.04519 0.24499 0.0
H235 H 0.49222 0.98858 0.23154 0.0
H236 H 0.46709 0.99431 0.2484 0.0
H237 H 0.47089 0.00752 0.22294 0.0
H238 H 0.5018 0.09807 0.21112 0.0
H239 H 0.45312 0.09577 0.19979 0.0
H240 H 0.55293 0.64176 0.46747 0.0
H241 H 0.50465 0.59545 0.45564 0.0
H242 H 0.55581 0.58736 0.40572 0.0
H243 H 0.6044 0.63282 0.41796 0.0
H244 H 0.47014 0.58166 0.42304 0.0
H245 H 0.51764 0.5003 0.42797 0.0
H246 H 0.53842 0.53975 0.43798 0.0
H247 H 0.54073 0.53302 0.41176 0.0
C248 C 0.55386 0.63016 0.45394 0.0
C249 C 0.58253 0.64074 0.44375 0.0
C250 C 0.52623 0.60366 0.44719 0.0
C251 C 0.52666 0.58735 0.43004 0.0
C252 C 0.55502 0.59883 0.41935 0.0
H253 H 0.35945 0.44914 0.36522 0.0
H254 H 0.40516 0.49736 0.3776 0.0
C255 C 0.58275 0.62501 0.42626 0.0
C256 C 0.49753 0.5583 0.42347 0.0
H257 H 0.46856 0.4809 0.41114 0.0
C258 C 0.46976 0.55959 0.42054 0.0
C259 C 0.49676 0.52924 0.42056 0.0
C260 C 0.52488 0.52534 0.42494 0.0
C261 C 0.44148 0.53287 0.4145 0.0
C262 C 0.44114 0.50424 0.41066 0.0
C263 C 0.4688 0.50287 0.41386 0.0
C264 C 0.41243 0.47527 0.40349 0.0
C265 C 0.41213 0.5355 0.41279 0.0
C266 C 0.40158 0.44649 0.41359 0.0
C267 C 0.37585 0.41876 0.40629 0.0
C268 C 0.36023 0.41923 0.3888 0.0
C269 C 0.37074 0.44808 0.37886 0.0
C270 C 0.39679 0.47575 0.38601 0.0
H271 H 0.41379 0.55495 0.42222 0.0
H272 H 0.40925 0.54078 0.39709 0.0
H273 H 0.39075 0.51321 0.41725 0.0
H274 H 0.41324 0.44542 0.42706 0.0
H275 H 0.36834 0.39691 0.41428 0.0
H276 H 0.98469 0.60628 0.59195 0.0
H277 H 0.97993 0.5569 0.58016 0.0
H278 H 0.89429 0.5043 0.61419 0.0
H279 H 0.89927 0.5538 0.62642 0.0
H280 H 0.93447 0.48175 0.61954 0.0
H281 H 0.92133 0.49562 0.53874 0.0
H282 H 0.9559 0.52865 0.54905 0.0
H283 H 0.91743 0.52015 0.55732 0.0
C284 C 0.96462 0.58423 0.59677 0.0
C285 C 0.94227 0.58399 0.61007 0.0
C286 C 0.96184 0.55597 0.58992 0.0
C287 C 0.93647 0.52683 0.596 0.0
C288 C 0.91398 0.5265 0.60919 0.0
H289 H 0.89981 0.3495 0.54085 0.0
H290 H 0.89466 0.3937 0.55339 0.0
C291 C 0.91681 0.5548 0.61613 0.0
C292 C 0.93436 0.49683 0.58936 0.0
H293 H 0.93426 0.45616 0.54791 0.0
C294 C 0.93411 0.476 0.60388 0.0
C295 C 0.93345 0.48907 0.56893 0.0
C296 C 0.93171 0.50939 0.55262 0.0
C297 C 0.934 0.44818 0.59852 0.0
C298 C 0.93479 0.44128 0.57808 0.0
C299 C 0.934 0.46159 0.56358 0.0
C300 C 0.93704 0.41349 0.57138 0.0
C301 C 0.93282 0.42636 0.61483 0.0
C302 C 0.9626 0.40988 0.57727 0.0
C303 C 0.9655 0.38454 0.57023 0.0
C304 C 0.94308 0.36246 0.55694 0.0
C305 C 0.91744 0.36603 0.55111 0.0
C306 C 0.91449 0.39133 0.55823 0.0
H307 H 0.92259 0.42971 0.62879 0.0
H308 H 0.91867 0.40127 0.61021 0.0
H309 H 0.95716 0.43158 0.61821 0.0
H310 H 0.98073 0.42706 0.587 0.0
H311 H 0.98568 0.38264 0.57489 0.0
H312 H 0.55488 0.89738 0.70789 0.0
H313 H 0.50567 0.893 0.72009 0.0
H314 H 0.55887 0.98037 0.75234 0.0
H315 H 0.60811 0.9845 0.74061 0.0
H316 H 0.51015 0.9364 0.7744 0.0
H317 H 0.4677 0.9442 0.699 0.0
H318 H 0.47564 0.91236 0.70174 0.0
H319 H 0.50745 0.95248 0.70353 0.0
C320 C 0.5561 0.91557 0.71767 0.0
C321 C 0.58542 0.94139 0.72318 0.0
C322 C 0.52793 0.91315 0.72452 0.0
C323 C 0.52852 0.9367 0.7368 0.0
C324 C 0.55779 0.962 0.74279 0.0
H325 H 0.3825 0.98289 0.75819 0.0
H326 H 0.4278 0.97889 0.74684 0.0
C327 C 0.58595 0.96433 0.73606 0.0
C328 C 0.49876 0.93531 0.74328 0.0
H329 H 0.43248 0.93404 0.72585 0.0
C330 C 0.49312 0.9358 0.76379 0.0
C331 C 0.47674 0.93498 0.72942 0.0
C332 C 0.48224 0.93628 0.7072 0.0
C333 C 0.46616 0.93601 0.77082 0.0
C334 C 0.4438 0.93499 0.75697 0.0
C335 C 0.44942 0.93445 0.73646 0.0
C336 C 0.41533 0.93625 0.76338 0.0
C337 C 0.46245 0.93843 0.793 0.0
C338 C 0.39277 0.91321 0.77612 0.0
C339 C 0.36684 0.91552 0.78274 0.0
C340 C 0.36282 0.94076 0.77656 0.0
C341 C 0.38488 0.96317 0.76327 0.0
C342 C 0.41083 0.96092 0.75675 0.0
H343 H 0.48515 0.94705 0.80105 0.0
H344 H 0.45322 0.95457 0.79628 0.0
H345 H 0.44544 0.91474 0.79895 0.0
H346 H 0.39531 0.89354 0.78106 0.0
H347 H 0.35018 0.89777 0.79288 0.0
H348 H 0.45038 0.34906 0.96152 0.0
H349 H 0.49948 0.39387 0.94916 0.0
H350 H 0.44611 0.41993 0.91021 0.0
H351 H 0.39698 0.37494 0.92224 0.0
H352 H 0.4984 0.4242 0.89166 0.0
H353 H 0.53079 0.48534 0.96489 0.0
H354 H 0.52455 0.44594 0.96545 0.0
H355 H 0.49214 0.45217 0.95987 0.0
C356 C 0.4491 0.3642 0.95023 0.0
C357 C 0.41974 0.35853 0.94296 0.0
C358 C 0.47719 0.38994 0.94327 0.0
C359 C 0.47647 0.41063 0.92902 0.0
C360 C 0.44725 0.4044 0.92128 0.0
H361 H 0.61876 0.60267 0.90306 0.0
H362 H 0.57344 0.55354 0.91455 0.0
C363 C 0.41917 0.37866 0.9282 0.0
C364 C 0.50604 0.43905 0.92237 0.0
H365 H 0.56827 0.50832 0.93895 0.0
C366 C 0.51375 0.44258 0.90199 0.0
C367 C 0.52579 0.46324 0.93582 0.0
C368 C 0.51784 0.46175 0.9577 0.0
C369 C 0.54063 0.46961 0.89469 0.0
C370 C 0.56079 0.4935 0.90822 0.0
C371 C 0.55305 0.4899 0.9286 0.0
C372 C 0.58903 0.52323 0.90146 0.0
C373 C 0.5465 0.47272 0.87248 0.0
C374 C 0.61331 0.52273 0.89054 0.0
C375 C 0.63919 0.55089 0.88374 0.0
C376 C 0.64155 0.58011 0.88804 0.0
C377 C 0.61771 0.58058 0.8995 0.0
C378 C 0.59174 0.55247 0.90609 0.0
H379 H 0.52478 0.45685 0.86394 0.0
H380 H 0.55531 0.49734 0.86745 0.0
H381 H 0.56457 0.46615 0.86881 0.0
H382 H 0.61224 0.50057 0.88723 0.0
H383 H 0.65729 0.54976 0.87509 0.0
H384 H 0.0734 0.27406 0.07559 0.0
H385 H 0.11512 0.2799 0.05295 0.0
H386 H 0.17352 0.37643 0.07173 0.0
H387 H 0.13175 0.37097 0.09445 0.0
H388 H 0.15159 0.33204 0.02102 0.0
H389 H 0.22222 0.32488 0.08397 0.0
H390 H 0.18014 0.30912 0.08596 0.0
H391 H 0.20634 0.35096 0.08623 0.0
C392 C 0.09493 0.2967 0.07478 0.0
C393 C 0.09925 0.322 0.08697 0.0
C394 C 0.11873 0.29998 0.06179 0.0
C395 C 0.14743 0.32847 0.06083 0.0
C396 C 0.15152 0.35418 0.07237 0.0
H397 H 0.32305 0.35799 0.00668 0.0
H398 H 0.28417 0.36527 0.02542 0.0
C399 C 0.12757 0.35104 0.08528 0.0
C400 C 0.17351 0.33051 0.04848 0.0
H401 H 0.2416 0.32755 0.0516 0.0
C402 C 0.17145 0.33133 0.02765 0.0
C403 C 0.19938 0.32973 0.05723 0.0
C404 C 0.20236 0.32849 0.07957 0.0
C405 C 0.19456 0.33116 0.01527 0.0
C406 C 0.21988 0.3291 0.02398 0.0
C407 C 0.22223 0.32905 0.04488 0.0
C408 C 0.24348 0.32573 0.01179 0.0
C409 C 0.19172 0.33354 0.993 0.0
C410 C 0.23367 0.30098 0.99797 0.0
C411 C 0.25583 0.29702 0.98709 0.0
C412 C 0.28833 0.31734 0.99008 0.0
C413 C 0.29818 0.34197 0.00401 0.0
C414 C 0.27597 0.34614 0.01474 0.0
H415 H 0.17826 0.34563 0.9893 0.0
H416 H 0.21526 0.34654 0.98578 0.0
H417 H 0.17873 0.30945 0.98656 0.0
H418 H 0.20883 0.28429 0.99584 0.0
H419 H 0.24745 0.27764 0.97661 0.0
H420 H 0.83083 0.1057 0.27249 0.0
H421 H 0.86667 0.14636 0.24956 0.0
H422 H 0.78822 0.15011 0.22305 0.0
H423 H 0.75216 0.11017 0.2469 0.0
H424 H 0.87094 0.14505 0.21147 0.0
H425 H 0.84775 0.24201 0.23004 0.0
H426 H 0.83259 0.2067 0.24493 0.0
H427 H 0.81321 0.20659 0.22207 0.0
C428 C 0.82113 0.11526 0.26187 0.0
C429 C 0.78861 0.10465 0.26148 0.0
C430 C 0.84171 0.13858 0.24872 0.0
C431 C 0.83036 0.15167 0.2346 0.0
C432 C 0.79779 0.14105 0.23409 0.0
H433 H 0.95729 0.25554 0.13513 0.0
H434 H 0.91299 0.21623 0.15492 0.0
C435 C 0.77713 0.11805 0.24762 0.0
C436 C 0.8529 0.17542 0.22013 0.0
H437 H 0.88165 0.2505 0.20263 0.0
C438 C 0.87323 0.16811 0.20957 0.0
C439 C 0.85621 0.20569 0.21772 0.0
C440 C 0.83651 0.2159 0.22942 0.0
C441 C 0.89714 0.19025 0.19712 0.0
C442 C 0.9 0.22026 0.19433 0.0
C443 C 0.87933 0.22744 0.2046 0.0
C444 C 0.92526 0.24499 0.1816 0.0
C445 C 0.91991 0.18156 0.18787 0.0
C446 C 0.946 0.27495 0.18956 0.0
C447 C 0.97083 0.29776 0.17806 0.0
C448 C 0.9756 0.29094 0.15844 0.0
C449 C 0.95442 0.26129 0.1503 0.0
C450 C 0.92921 0.23872 0.16167 0.0
H451 H 0.92039 0.16216 0.19617 0.0
H452 H 0.91235 0.17327 0.17236 0.0
H453 H 0.94426 0.2021 0.18746 0.0
H454 H 0.94344 0.28048 0.20486 0.0
H455 H 0.98678 0.32042 0.18473 0.0
H456 H 0.63342 0.76475 0.4309 0.0
H457 H 0.6279 0.80105 0.40817 0.0
H458 H 0.72231 0.83474 0.38643 0.0
H459 H 0.72822 0.79896 0.4091 0.0
H460 H 0.67436 0.87152 0.40886 0.0
H461 H 0.66383 0.8146 0.33531 0.0
H462 H 0.65326 0.79279 0.35849 0.0
H463 H 0.69401 0.81703 0.35178 0.0
C464 C 0.65281 0.7795 0.42104 0.0
C465 C 0.68129 0.77898 0.42187 0.0
C466 C 0.64964 0.80028 0.40812 0.0
C467 C 0.67464 0.82041 0.39556 0.0
C468 C 0.70264 0.81917 0.39586 0.0
H469 H 0.72612 0.97183 0.31226 0.0
H470 H 0.71956 0.92722 0.33228 0.0
C471 C 0.70598 0.79876 0.4089 0.0
C472 C 0.67265 0.84444 0.38315 0.0
H473 H 0.67323 0.86707 0.3349 0.0
C474 C 0.67369 0.87044 0.39269 0.0
C475 C 0.67214 0.84302 0.3621 0.0
C476 C 0.67052 0.81529 0.35122 0.0
C477 C 0.67545 0.89575 0.3817 0.0
C478 C 0.67518 0.89452 0.36056 0.0
C479 C 0.67339 0.86805 0.35107 0.0
C480 C 0.67822 0.92104 0.34803 0.0
C481 C 0.6791 0.92415 0.39289 0.0
C482 C 0.65687 0.93217 0.34991 0.0
C483 C 0.66085 0.95803 0.33865 0.0
C484 C 0.68592 0.97288 0.32502 0.0
C485 C 0.70662 0.96102 0.32267 0.0
C486 C 0.70286 0.93544 0.33409 0.0
H487 H 0.68757 0.92505 0.40839 0.0
H488 H 0.6959 0.94641 0.38519 0.0
H489 H 0.65586 0.92289 0.39376 0.0
H490 H 0.63716 0.92095 0.36014 0.0
H491 H 0.64431 0.9664 0.34065 0.0
H492 H 0.68061 0.65103 0.51176 0.0
H493 H 0.72005 0.6463 0.53165 0.0
H494 H 0.79395 0.71448 0.49378 0.0
H495 H 0.75465 0.71914 0.4737 0.0
H496 H 0.79998 0.66061 0.50352 0.0
H497 H 0.78063 0.71586 0.57051 0.0
H498 H 0.74589 0.68256 0.56045 0.0
H499 H 0.7664 0.71821 0.54608 0.0
C500 C 0.70525 0.66492 0.50761 0.0
C501 C 0.71453 0.68563 0.49123 0.0
C502 C 0.72775 0.66226 0.51903 0.0
C503 C 0.75997 0.68032 0.51434 0.0
C504 C 0.76922 0.70036 0.49768 0.0
H505 H 0.92544 0.73761 0.58496 0.0
H506 H 0.88375 0.7322 0.56268 0.0
C507 C 0.74674 0.70306 0.48625 0.0
C508 C 0.78415 0.67916 0.52715 0.0
H509 H 0.81675 0.69754 0.57375 0.0
C510 C 0.80356 0.6685 0.51892 0.0
C511 C 0.78894 0.68973 0.54718 0.0
C512 C 0.76959 0.7025 0.55661 0.0
C513 C 0.82767 0.6682 0.5302 0.0
C514 C 0.83238 0.67875 0.5502 0.0
C515 C 0.81288 0.68923 0.55845 0.0
C516 C 0.85874 0.68122 0.5625 0.0
C517 C 0.84858 0.65752 0.52057 0.0
C518 C 0.85873 0.65424 0.56966 0.0
C519 C 0.88264 0.65718 0.58258 0.0
C520 C 0.90696 0.6872 0.58855 0.0
C521 C 0.9072 0.71408 0.58079 0.0
C522 C 0.88331 0.71109 0.56803 0.0
H523 H 0.84452 0.65396 0.50423 0.0
H524 H 0.8738 0.67509 0.52325 0.0
H525 H 0.84384 0.63488 0.52737 0.0
H526 H 0.83978 0.63094 0.56569 0.0
H527 H 0.88161 0.63597 0.58826 0.0
H528 H 0.05295 0.74592 0.63272 0.0
H529 H 0.09939 0.78463 0.6512 0.0
H530 H 0.0634 0.72797 0.70445 0.0
H531 H 0.01805 0.68826 0.68558 0.0
H532 H 0.10426 0.82069 0.67905 0.0
H533 H 0.15143 0.7478 0.70925 0.0
H534 H 0.12077 0.73302 0.6906 0.0
H535 H 0.11115 0.73181 0.7167 0.0
C536 C 0.05529 0.74154 0.6483 0.0
C537 C 0.03208 0.71403 0.6577 0.0
C538 C 0.08182 0.76369 0.65888 0.0
C539 C 0.08544 0.75914 0.67923 0.0
C540 C 0.06199 0.73165 0.68865 0.0
H541 H 0.18154 0.90878 0.76321 0.0
H542 H 0.14634 0.8685 0.73994 0.0
C543 C 0.03586 0.70906 0.6779 0.0
C544 C 0.1123 0.7843 0.69084 0.0
H545 H 0.16791 0.79725 0.72622 0.0
C546 C 0.11843 0.81549 0.68911 0.0
C547 C 0.1315 0.77802 0.70374 0.0
C548 C 0.12859 0.74589 0.70499 0.0
C549 C 0.14213 0.84012 0.70036 0.0
C550 C 0.15938 0.83331 0.71453 0.0
C551 C 0.15432 0.80246 0.71567 0.0
C552 C 0.18133 0.85748 0.72898 0.0
C553 C 0.14845 0.87324 0.69678 0.0
C554 C 0.21254 0.86384 0.73141 0.0
C555 C 0.23279 0.88664 0.74519 0.0
C556 C 0.2222 0.90361 0.75665 0.0
C557 C 0.19081 0.89675 0.75434 0.0
C558 C 0.17058 0.87374 0.7409 0.0
H559 H 0.14258 0.87616 0.6812 0.0
H560 H 0.13328 0.878 0.70682 0.0
H561 H 0.17352 0.89107 0.69967 0.0
H562 H 0.22131 0.85134 0.72255 0.0
H563 H 0.25675 0.89119 0.74672 0.0
H564 H 0.33779 0.01764 0.85135 0.0
H565 H 0.34157 0.06157 0.87105 0.0
H566 H 0.31315 0.09441 0.81964 0.0
H567 H 0.30761 0.04954 0.80029 0.0
H568 H 0.37463 0.12341 0.86953 0.0
H569 H 0.24888 0.08745 0.85842 0.0
H570 H 0.26488 0.06311 0.85059 0.0
H571 H 0.26995 0.09564 0.83531 0.0
C572 C 0.33242 0.0343 0.84428 0.0
C573 C 0.32201 0.02999 0.82439 0.0
C574 C 0.33464 0.05944 0.85552 0.0
C575 C 0.32689 0.08096 0.84701 0.0
C576 C 0.31819 0.07758 0.82679 0.0
H577 H 0.3628 0.25318 0.91258 0.0
H578 H 0.368 0.21762 0.88897 0.0
C579 C 0.31526 0.05206 0.81569 0.0
C580 C 0.32697 0.10622 0.85948 0.0
H581 H 0.28068 0.13637 0.87441 0.0
C582 C 0.35407 0.12623 0.87064 0.0
C583 C 0.30002 0.10973 0.86113 0.0
C584 C 0.2692 0.08764 0.85089 0.0
C585 C 0.35483 0.14928 0.88356 0.0
C586 C 0.32809 0.1532 0.88484 0.0
C587 C 0.30128 0.13359 0.87336 0.0
C588 C 0.32604 0.17546 0.89913 0.0
C589 C 0.38378 0.16822 0.89626 0.0
C590 C 0.30039 0.16395 0.91234 0.0
C591 C 0.29693 0.18425 0.92532 0.0
C592 C 0.31928 0.21665 0.92569 0.0
C593 C 0.3453 0.22829 0.91271 0.0
C594 C 0.34841 0.20792 0.89933 0.0
H595 H 0.39825 0.1566 0.89749 0.0
H596 H 0.39867 0.19171 0.88933 0.0
H597 H 0.37727 0.17176 0.91152 0.0
H598 H 0.28286 0.13907 0.91262 0.0
H599 H 0.27679 0.17441 0.93527 0.0
H600 H 0.71981 0.75211 0.85797 0.0
H601 H 0.71365 0.79081 0.83831 0.0
H602 H 0.6455 0.71628 0.80073 0.0
H603 H 0.6519 0.67747 0.82015 0.0
H604 H 0.69068 0.76571 0.77926 0.0
H605 H 0.64203 0.81038 0.83713 0.0
H606 H 0.67809 0.81211 0.84458 0.0
H607 H 0.64341 0.77443 0.8402 0.0
C608 C 0.70331 0.74391 0.84562 0.0
C609 C 0.6863 0.71171 0.84063 0.0
C610 C 0.69963 0.76605 0.83449 0.0
C611 C 0.67868 0.75642 0.81825 0.0
C612 C 0.66161 0.72424 0.81329 0.0
H613 H 0.63519 0.87812 0.74343 0.0
H614 H 0.62927 0.83557 0.76567 0.0
C615 C 0.66531 0.70209 0.8244 0.0
C616 C 0.67614 0.78009 0.80569 0.0
H617 H 0.66135 0.84137 0.80731 0.0
C618 C 0.68391 0.78199 0.78537 0.0
C619 C 0.66702 0.80119 0.81359 0.0
C620 C 0.65685 0.79929 0.83503 0.0
C621 C 0.68399 0.80514 0.77297 0.0
C622 C 0.67631 0.8271 0.78109 0.0
C623 C 0.66741 0.82458 0.80119 0.0
C624 C 0.67942 0.85392 0.76907 0.0
C625 C 0.69277 0.80634 0.75128 0.0
C626 C 0.70951 0.8786 0.7641 0.0
C627 C 0.71302 0.90291 0.75156 0.0
C628 C 0.68643 0.90306 0.7436 0.0
C629 C 0.65618 0.87878 0.74921 0.0
C630 C 0.65273 0.85444 0.76191 0.0
H631 H 0.69206 0.78428 0.74643 0.0
H632 H 0.6766 0.81035 0.74167 0.0
H633 H 0.71707 0.82632 0.74893 0.0
H634 H 0.73038 0.87871 0.76962 0.0
H635 H 0.73671 0.92117 0.74772 0.0
H636 H 0.76658 0.63283 0.902 0.0
H637 H 0.80348 0.62812 0.92461 0.0
H638 H 0.83266 0.72053 0.94834 0.0
H639 H 0.79628 0.72567 0.92574 0.0
H640 H 0.87394 0.67883 0.92445 0.0
H641 H 0.81429 0.65848 0.99805 0.0
H642 H 0.79279 0.64761 0.97474 0.0
H643 H 0.81432 0.68822 0.98221 0.0
C644 C 0.7804 0.6519 0.9123 0.0
C645 C 0.77853 0.67968 0.91201 0.0
C646 C 0.80154 0.6492 0.92514 0.0
C647 C 0.82065 0.67393 0.93817 0.0
C648 C 0.81791 0.70109 0.9385 0.0
H649 H 0.97188 0.72465 0.02211 0.0
H650 H 0.92705 0.71829 0.00233 0.0
C651 C 0.79715 0.704 0.92552 0.0
C652 C 0.84539 0.67274 0.95028 0.0
H653 H 0.86743 0.67005 0.99825 0.0
C654 C 0.87245 0.67652 0.94057 0.0
C655 C 0.84342 0.67015 0.97128 0.0
C656 C 0.81461 0.66569 0.98229 0.0
C657 C 0.89813 0.67881 0.95137 0.0
C658 C 0.89628 0.67627 0.97246 0.0
C659 C 0.86887 0.67193 0.98211 0.0
C660 C 0.92295 0.67926 0.98479 0.0
C661 C 0.92751 0.68533 0.94011 0.0
C662 C 0.93531 0.65913 0.9818 0.0
C663 C 0.96122 0.66298 0.99294 0.0
C664 C 0.97494 0.68671 0.00753 0.0
C665 C 0.96194 0.70622 0.01093 0.0
C666 C 0.93624 0.70255 0.99966 0.0
H667 H 0.92837 0.69524 0.92506 0.0
H668 H 0.94913 0.70209 0.9484 0.0
H669 H 0.9277 0.66292 0.93812 0.0
H670 H 0.92498 0.64044 0.9708 0.0
H671 H 0.9705 0.64737 0.99011 0.0
H672 H 0.25066 0.97093 0.18983 0.0
H673 H 0.21161 0.92698 0.16964 0.0
H674 H 0.28633 0.92615 0.13613 0.0
H675 H 0.32569 0.97044 0.15612 0.0
H676 H 0.21348 0.93082 0.12252 0.0
H677 H 0.21964 0.83037 0.15691 0.0
H678 H 0.2287 0.86541 0.17099 0.0
H679 H 0.25564 0.86702 0.15232 0.0
C680 C 0.25884 0.9613 0.17826 0.0
C681 C 0.29128 0.97423 0.17454 0.0
C682 C 0.23649 0.93618 0.16676 0.0
C683 C 0.24614 0.92325 0.15152 0.0
C684 C 0.27847 0.93568 0.14795 0.0
H685 H 0.13561 0.76968 0.06761 0.0
H686 H 0.17735 0.80786 0.08963 0.0
C687 C 0.30088 0.96102 0.15934 0.0
C688 C 0.22228 0.89801 0.13862 0.0
H689 H 0.18399 0.81851 0.13023 0.0
C690 C 0.20701 0.90626 0.12416 0.0
C691 C 0.2143 0.86614 0.14068 0.0
C692 C 0.23024 0.8564 0.15607 0.0
C693 C 0.18377 0.8834 0.11169 0.0
C694 C 0.17484 0.85123 0.11419 0.0
C695 C 0.19063 0.84308 0.12843 0.0
C696 C 0.14882 0.82589 0.10232 0.0
C697 C 0.16942 0.8941 0.09573 0.0
C698 C 0.11856 0.82239 0.10274 0.0
C699 C 0.09484 0.80088 0.0901 0.0
C700 C 0.10065 0.78192 0.07698 0.0
C701 C 0.13036 0.78394 0.07751 0.0
C702 C 0.15427 0.80581 0.09005 0.0
H703 H 0.18519 0.91931 0.09181 0.0
H704 H 0.16437 0.87971 0.08197 0.0
H705 H 0.14691 0.89155 0.10132 0.0
H706 H 0.11348 0.8369 0.11252 0.0
H707 H 0.0721 0.79961 0.09031 0.0
H708 H 0.27476 0.07384 0.25541 0.0
H709 H 0.28033 0.11523 0.27817 0.0
H710 H 0.3777 0.17302 0.26085 0.0
H711 H 0.37245 0.13157 0.2379 0.0
H712 H 0.32716 0.14824 0.31086 0.0
H713 H 0.33267 0.22585 0.24832 0.0
H714 H 0.31729 0.18404 0.24501 0.0
H715 H 0.35898 0.21015 0.24753 0.0
C716 C 0.29752 0.09519 0.25652 0.0
C717 C 0.32311 0.09942 0.24466 0.0
C718 C 0.30063 0.1188 0.2696 0.0
C719 C 0.32928 0.14728 0.27101 0.0
C720 C 0.35528 0.15127 0.25981 0.0
H721 H 0.35959 0.32171 0.32733 0.0
H722 H 0.367 0.28278 0.30881 0.0
C723 C 0.35227 0.12749 0.24678 0.0
C724 C 0.33117 0.17313 0.28358 0.0
H725 H 0.33261 0.24347 0.28084 0.0
C726 C 0.32863 0.16923 0.30436 0.0
C727 C 0.33321 0.20048 0.27503 0.0
C728 C 0.33553 0.20554 0.25275 0.0
C729 C 0.32787 0.19192 0.31685 0.0
C730 C 0.3286 0.21875 0.30826 0.0
C731 C 0.33193 0.22293 0.28747 0.0
C732 C 0.32493 0.24226 0.32038 0.0
C733 C 0.32667 0.18697 0.33913 0.0
C734 C 0.29874 0.23261 0.333 0.0
C735 C 0.29476 0.2548 0.34385 0.0
C736 C 0.31646 0.2872 0.34193 0.0
C737 C 0.34246 0.2969 0.32913 0.0
C738 C 0.34671 0.27466 0.31853 0.0
H739 H 0.33721 0.17228 0.34336 0.0
H740 H 0.33931 0.20975 0.34726 0.0
H741 H 0.30167 0.17431 0.34407 0.0
H742 H 0.28099 0.20791 0.33422 0.0
H743 H 0.27429 0.24659 0.35341 0.0
H744 H 0.23714 0.36913 0.40149 0.0
H745 H 0.20135 0.37511 0.42444 0.0
H746 H 0.16696 0.28054 0.4461 0.0
H747 H 0.20226 0.27422 0.42326 0.0
H748 H 0.13151 0.33069 0.42401 0.0
H749 H 0.18737 0.3375 0.49739 0.0
H750 H 0.20912 0.34745 0.4742 0.0
H751 H 0.18369 0.30687 0.48088 0.0
C752 C 0.22234 0.3498 0.41137 0.0
C753 C 0.22254 0.32116 0.41048 0.0
C754 C 0.20185 0.35323 0.42442 0.0
C755 C 0.18169 0.32834 0.43704 0.0
C756 C 0.18258 0.30016 0.43664 0.0
H757 H 0.0309 0.27804 0.52084 0.0
H758 H 0.075 0.28392 0.50052 0.0
C759 C 0.20271 0.29657 0.42349 0.0
C760 C 0.15796 0.33062 0.44961 0.0
H761 H 0.13508 0.32876 0.49794 0.0
C762 C 0.1324 0.33069 0.44019 0.0
C763 C 0.15912 0.33027 0.47066 0.0
C764 C 0.18639 0.33075 0.48147 0.0
C765 C 0.10725 0.32914 0.45125 0.0
C766 C 0.1082 0.32851 0.47239 0.0
C767 C 0.13426 0.32923 0.48178 0.0
C768 C 0.08184 0.3257 0.48501 0.0
C769 C 0.07929 0.32666 0.4401 0.0
C770 C 0.0712 0.34749 0.48337 0.0
C771 C 0.04558 0.34383 0.49475 0.0
C772 C 0.03055 0.31873 0.50834 0.0
C773 C 0.04189 0.29758 0.51047 0.0
C774 C 0.06718 0.30096 0.49887 0.0
H775 H 0.07824 0.31845 0.42452 0.0
H776 H 0.05678 0.31015 0.44767 0.0
H777 H 0.08135 0.35026 0.43946 0.0
H778 H 0.08267 0.36733 0.47326 0.0
H779 H 0.03762 0.36073 0.49295 0.0
H780 H 0.87242 0.24016 0.5707 0.0
H781 H 0.83062 0.20349 0.59328 0.0
H782 H 0.89075 0.16826 0.61365 0.0
H783 H 0.93246 0.20448 0.59116 0.0
H784 H 0.80516 0.13383 0.59152 0.0
H785 H 0.85395 0.18625 0.66568 0.0
H786 H 0.86597 0.20903 0.64288 0.0
H787 H 0.88093 0.18319 0.64886 0.0
C788 C 0.87697 0.22503 0.58025 0.0
C789 C 0.90582 0.22526 0.57907 0.0
C790 C 0.85302 0.20402 0.59308 0.0
C791 C 0.8577 0.18334 0.60521 0.0
C792 C 0.8868 0.18428 0.60458 0.0
H793 H 0.75709 0.02937 0.68668 0.0
H794 H 0.7952 0.07413 0.6668 0.0
C795 C 0.91057 0.20495 0.59164 0.0
C796 C 0.8316 0.15905 0.61746 0.0
H797 H 0.81029 0.13402 0.66544 0.0
C798 C 0.80597 0.13398 0.6077 0.0
C799 C 0.833 0.15925 0.63852 0.0
C800 C 0.85979 0.18596 0.64969 0.0
C801 C 0.78227 0.10837 0.61841 0.0
C802 C 0.78374 0.10835 0.63954 0.0
C803 C 0.80907 0.13394 0.64928 0.0
C804 C 0.76017 0.08142 0.65179 0.0
C805 C 0.75679 0.08096 0.60687 0.0
C806 C 0.72771 0.07073 0.65025 0.0
C807 C 0.70579 0.0447 0.66137 0.0
C808 C 0.71595 0.02931 0.6746 0.0
C809 C 0.74847 0.04064 0.67659 0.0
C810 C 0.77032 0.06631 0.66525 0.0
H811 H 0.764 0.08062 0.59119 0.0
H812 H 0.75072 0.0581 0.61396 0.0
H813 H 0.73526 0.08308 0.60649 0.0
H814 H 0.71928 0.08251 0.64045 0.0
H815 H 0.6809 0.03675 0.65969 0.0
H816 H 0.19831 0.26421 0.31079 0.0
H817 H 0.17144 0.2712 0.28231 0.0
H818 H 0.23 0.37217 0.28724 0.0
H819 H 0.25734 0.36553 0.31586 0.0
H820 H 0.13831 0.30631 0.28317 0.0
H821 H 0.23539 0.35245 0.22715 0.0
H822 H 0.23577 0.33141 0.2492 0.0
H823 H 0.24407 0.37139 0.25118 0.0
C824 C 0.20577 0.28797 0.3058 0.0
C825 C 0.23005 0.31432 0.3157 0.0
C826 C 0.1903 0.29189 0.28951 0.0
C827 C 0.19885 0.32216 0.28261 0.0
C828 C 0.22332 0.34858 0.2922 0.0
H829 H 0.11588 0.36649 0.17981 0.0
H830 H 0.14788 0.37234 0.20937 0.0
C831 C 0.23883 0.34471 0.3086 0.0
C832 C 0.18106 0.32567 0.26588 0.0
H833 H 0.18642 0.34553 0.2166 0.0
C834 C 0.14887 0.3151 0.26864 0.0
C835 C 0.195 0.33745 0.24704 0.0
C836 C 0.22941 0.3487 0.24328 0.0
C837 C 0.13002 0.31527 0.25293 0.0
C838 C 0.14359 0.32568 0.23384 0.0
C839 C 0.17607 0.33744 0.23124 0.0
C840 C 0.12401 0.32246 0.21613 0.0
C841 C 0.09567 0.30414 0.2569 0.0
C842 C 0.10025 0.29246 0.21003 0.0
C843 C 0.08197 0.289 0.1932 0.0
C844 C 0.08716 0.31549 0.182 0.0
C845 C 0.11113 0.34557 0.18811 0.0
C846 C 0.12949 0.34899 0.20498 0.0
H847 H 0.09136 0.30625 0.27295 0.0
H848 H 0.08744 0.31779 0.248 0.0
H849 H 0.08128 0.27891 0.25267 0.0
H850 H 0.09605 0.27161 0.21819 0.0
H851 H 0.06386 0.26545 0.18896 0.0
H852 H 0.89463 0.26023 0.48415 0.0
H853 H 0.85868 0.23162 0.45653 0.0
H854 H 0.89539 0.16794 0.45415 0.0
H855 H 0.93129 0.19613 0.48156 0.0
H856 H 0.87445 0.21771 0.4165 0.0
H857 H 0.79748 0.11064 0.46094 0.0
H858 H 0.82349 0.14848 0.47224 0.0
H859 H 0.83895 0.12433 0.46322 0.0
C860 C 0.89514 0.2402 0.47772 0.0
C861 C 0.91577 0.2304 0.48521 0.0
C862 C 0.87458 0.22391 0.46195 0.0
C863 C 0.87409 0.19742 0.45357 0.0
C864 C 0.89509 0.18805 0.46066 0.0
H865 H 0.7936 0.05973 0.36299 0.0
H866 H 0.81902 0.0932 0.39185 0.0
C867 C 0.91572 0.20434 0.47629 0.0
C868 C 0.85181 0.17931 0.43733 0.0
H869 H 0.79236 0.10541 0.42553 0.0
C870 C 0.85613 0.19331 0.41847 0.0
C871 C 0.82791 0.14757 0.44007 0.0
C872 C 0.82139 0.13187 0.46025 0.0
C873 C 0.8383 0.17576 0.40195 0.0
C874 C 0.81528 0.14358 0.40452 0.0
C875 C 0.81008 0.13005 0.42359 0.0
C876 C 0.79835 0.1228 0.38738 0.0
C877 C 0.84534 0.19128 0.38169 0.0
C878 C 0.77773 0.12794 0.37549 0.0
C879 C 0.76307 0.10878 0.35887 0.0
C880 C 0.76877 0.08411 0.35389 0.0
C881 C 0.78875 0.07857 0.36625 0.0
C882 C 0.80331 0.09766 0.38281 0.0
H883 H 0.86755 0.21446 0.38166 0.0
H884 H 0.84728 0.17585 0.3703 0.0
H885 H 0.82574 0.1952 0.37722 0.0
H886 H 0.77315 0.14689 0.37899 0.0
H887 H 0.74773 0.11365 0.34976 0.0
H888 H 0.63839 0.89471 0.64881 0.0
H889 H 0.63084 0.85957 0.62063 0.0
H890 H 0.73103 0.89479 0.61863 0.0
H891 H 0.73894 0.92988 0.64655 0.0
H892 H 0.66186 0.87696 0.58066 0.0
H893 H 0.68822 0.79619 0.62389 0.0
H894 H 0.67655 0.82207 0.63556 0.0
H895 H 0.71642 0.83738 0.6271 0.0
C896 C 0.65884 0.89504 0.64235 0.0
C897 C 0.68927 0.91506 0.65006 0.0
C898 C 0.65445 0.87496 0.62625 0.0
C899 C 0.68034 0.87432 0.61779 0.0
C900 C 0.71071 0.89464 0.62517 0.0
H901 H 0.73651 0.79522 0.52532 0.0
H902 H 0.72937 0.82112 0.55432 0.0
C903 C 0.71516 0.91481 0.6411 0.0
C904 C 0.6761 0.85261 0.60118 0.0
H905 H 0.68931 0.79269 0.58842 0.0
C906 C 0.66731 0.85816 0.58235 0.0
C907 C 0.68317 0.82811 0.60353 0.0
C908 C 0.69135 0.82029 0.62364 0.0
C909 C 0.6671 0.84089 0.56553 0.0
C910 C 0.6755 0.81727 0.56776 0.0
C911 C 0.68302 0.81091 0.58676 0.0
C912 C 0.679 0.80057 0.55037 0.0
C913 C 0.65947 0.84906 0.54536 0.0
C914 C 0.6529 0.78 0.53872 0.0
C915 C 0.65686 0.76501 0.52208 0.0
C916 C 0.68704 0.77041 0.51681 0.0
C917 C 0.71297 0.79062 0.52882 0.0
C918 C 0.70895 0.80543 0.54544 0.0
H919 H 0.65857 0.87129 0.54572 0.0
H920 H 0.67727 0.85152 0.53415 0.0
H921 H 0.63611 0.82973 0.54036 0.0
H922 H 0.62951 0.77559 0.54246 0.0
H923 H 0.63635 0.74955 0.51322 0.0
H924 H 0.88903 0.64004 0.6793 0.0
H925 H 0.85475 0.63426 0.70758 0.0
H926 H 0.91038 0.73407 0.71922 0.0
H927 H 0.94448 0.74023 0.69104 0.0
H928 H 0.86937 0.6502 0.7487 0.0
H929 H 0.82006 0.71866 0.71347 0.0
H930 H 0.84114 0.7035 0.69948 0.0
H931 H 0.86241 0.73916 0.71381 0.0
C932 C 0.89405 0.66077 0.68791 0.0
C933 C 0.91938 0.69067 0.68272 0.0
C934 C 0.87442 0.65739 0.70406 0.0
C935 C 0.87967 0.68383 0.71523 0.0
C936 C 0.90548 0.71347 0.71051 0.0
H937 H 0.80944 0.7375 0.81479 0.0
H938 H 0.83607 0.73204 0.78568 0.0
C939 C 0.92505 0.7169 0.69441 0.0
C940 C 0.85827 0.68079 0.73182 0.0
H941 H 0.81119 0.70906 0.74841 0.0
C942 C 0.8563 0.66271 0.74859 0.0
C943 C 0.8411 0.69698 0.73154 0.0
C944 C 0.84097 0.71543 0.71353 0.0
C945 C 0.83891 0.66176 0.76555 0.0
C946 C 0.82271 0.67896 0.76553 0.0
C947 C 0.82377 0.69605 0.74845 0.0
C948 C 0.80624 0.68139 0.78346 0.0
C949 C 0.83916 0.64353 0.78363 0.0
C950 C 0.78038 0.65469 0.79187 0.0
C951 C 0.76505 0.65768 0.80869 0.0
C952 C 0.77515 0.6875 0.81728 0.0
C953 C 0.8009 0.71415 0.80863 0.0
C954 C 0.81621 0.71111 0.79194 0.0
H955 H 0.858 0.63721 0.78274 0.0
H956 H 0.8426 0.65734 0.79748 0.0
H957 H 0.81612 0.62134 0.78477 0.0
H958 H 0.77186 0.63159 0.78533 0.0
H959 H 0.7452 0.63668 0.81486 0.0
H960 H 0.20561 0.93999 0.85621 0.0
H961 H 0.17745 0.9055 0.88418 0.0
H962 H 0.22836 0.8556 0.87577 0.0
H963 H 0.25696 0.89017 0.84763 0.0
H964 H 0.13923 0.8373 0.88157 0.0
H965 H 0.23723 0.87761 0.93665 0.0
H966 H 0.2392 0.90141 0.9155 0.0
H967 H 0.24399 0.86773 0.91197 0.0
C968 C 0.21112 0.92189 0.86032 0.0
C969 C 0.23359 0.91789 0.84957 0.0
C970 C 0.19492 0.90215 0.87633 0.0
C971 C 0.20094 0.87814 0.88209 0.0
C972 C 0.22365 0.87426 0.87168 0.0
H973 H 0.1129 0.748 0.98302 0.0
H974 H 0.14495 0.77369 0.95341 0.0
C975 C 0.23988 0.89399 0.85557 0.0
C976 C 0.18232 0.85656 0.89851 0.0
H977 H 0.18689 0.83785 0.94702 0.0
C978 C 0.14966 0.83722 0.89584 0.0
C979 C 0.19608 0.8563 0.91701 0.0
C980 C 0.23102 0.87695 0.92064 0.0
C981 C 0.13023 0.81815 0.91135 0.0
C982 C 0.14374 0.81898 0.93016 0.0
C983 C 0.17659 0.83737 0.9326 0.0
C984 C 0.12392 0.8027 0.9478 0.0
C985 C 0.09537 0.79737 0.90744 0.0
C986 C 0.10172 0.81072 0.95457 0.0
C987 C 0.08337 0.79612 0.9714 0.0
C988 C 0.08698 0.77329 0.98199 0.0
C989 C 0.10938 0.76537 0.97522 0.0
C990 C 0.12777 0.78005 0.95831 0.0
H991 H 0.0905 0.79181 0.89131 0.0
H992 H 0.08552 0.77491 0.91591 0.0
H993 H 0.08285 0.80993 0.91219 0.0
H994 H 0.09885 0.82865 0.94696 0.0
H995 H 0.06655 0.80302 0.97619 0.0
H996 H 0.26782 0.06273 0.14193 0.0
H997 H 0.27413 0.09737 0.11403 0.0
H998 H 0.37417 0.15174 0.12531 0.0
H999 H 0.36823 0.11693 0.15328 0.0
H1000 H 0.29865 0.16345 0.11725 0.0
H1001 H 0.36864 0.1347 0.06455 0.0
H1002 H 0.34704 0.10928 0.08519 0.0
H1003 H 0.38348 0.14518 0.08959 0.0
C1004 C 0.29127 0.08186 0.13844 0.0
C1005 C 0.31751 0.08704 0.14994 0.0
C1006 C 0.2948 0.10165 0.12247 0.0
C1007 C 0.32462 0.12699 0.11753 0.0
C1008 C 0.35101 0.13202 0.12869 0.0
H1009 H 0.36588 0.2607 0.01854 0.0
H1010 H 0.37249 0.2353 0.04826 0.0
C1011 C 0.34752 0.11215 0.14472 0.0
C1012 C 0.3274 0.14885 0.10132 0.0
H1013 H 0.35547 0.17263 0.05408 0.0
C1014 C 0.31125 0.16562 0.10348 0.0
C1015 C 0.34421 0.15196 0.08351 0.0
C1016 C 0.36172 0.13423 0.08039 0.0
C1017 C 0.31073 0.18479 0.08812 0.0
C1018 C 0.3262 0.1867 0.0699 0.0
C1019 C 0.3435 0.171 0.06803 0.0
C1020 C 0.32256 0.20278 0.05218 0.0
C1021 C 0.29342 0.20267 0.09153 0.0
C1022 C 0.29238 0.1927 0.04441 0.0
C1023 C 0.2885 0.20719 0.02759 0.0
C1024 C 0.31478 0.23192 0.01793 0.0
C1025 C 0.34511 0.24184 0.02563 0.0
C1026 C 0.34895 0.22732 0.04259 0.0
H1027 H 0.2922 0.20717 0.10766 0.0
H1028 H 0.30492 0.2256 0.08351 0.0
H1029 H 0.26886 0.18838 0.08596 0.0
H1030 H 0.27174 0.17326 0.05123 0.0
H1031 H 0.2648 0.19862 0.02203 0.0
loop_
_geom_bond_atom_site_label_1
_geom_bond_atom_site_label_2
_geom_bond_distance
_geom_bond_site_symmetry_2
_ccdc_geom_bond_type
Co0 O1 2.216 . S
Co0 O2 2.091 . S
Co0 O4 2.004 . S
Co0 O10 2.021 . S
Co0 O12 2.137 . S
Co0 O13 2.244 . S
O1 Co0 2.216 . S
O1 C8 1.247 . S
O2 Co0 2.091 . S
O2 C8 1.261 . S
C3 O12 1.247 . S
C3 O13 1.272 . S
O4 Co0 2.004 . S
O4 C9 1.259 . S
Co5 O6 2.061 . S
Co5 O11 2.052 . S
Co5 O13 2.135 . S
O6 Co5 2.061 . S
O6 C9 1.235 . S
C7 O10 1.238 . S
C7 O11 1.241 . S
C8 O1 1.247 . S
C8 O2 1.261 . S
C9 O4 1.259 . S
C9 O6 1.235 . S
O10 Co0 2.021 . S
O10 C7 1.238 . S
O11 Co5 2.052 . S
O11 C7 1.241 . S
O12 Co0 2.137 . S
O12 C3 1.247 . S
O13 Co0 2.244 . S
O13 C3 1.272 . S
O13 Co5 2.135 . S
Co14 O15 2.216 . S
Co14 O16 2.091 . S
Co14 O18 2.004 . S
Co14 O24 2.021 . S
Co14 O26 2.137 . S
Co14 O27 2.244 . S
O15 Co14 2.216 . S
O15 C22 1.247 . S
O16 Co14 2.091 . S
O16 C22 1.261 . S
C17 O26 1.247 . S
C17 O27 1.272 . S
O18 Co14 2.004 . S
O18 C23 1.259 . S
Co19 O20 2.061 . S
Co19 O25 2.052 . S
Co19 O27 2.135 . S
O20 Co19 2.061 . S
O20 C23 1.235 . S
C21 O24 1.238 . S
C21 O25 1.241 . S
C22 O15 1.247 . S
C22 O16 1.261 . S
C23 O18 1.259 . S
C23 O20 1.235 . S
O24 Co14 2.021 . S
O24 C21 1.238 . S
O25 Co19 2.052 . S
O25 C21 1.241 . S
O26 Co14 2.137 . S
O26 C17 1.247 . S
O27 Co14 2.244 . S
O27 C17 1.272 . S
O27 Co19 2.135 . S
Co28 O29 2.216 . S
Co28 O30 2.091 . S
Co28 O32 2.004 . S
Co28 O38 2.021 . S
Co28 O40 2.137 . S
Co28 O41 2.244 . S
O29 Co28 2.216 . S
O29 C36 1.247 . S
O30 Co28 2.091 . S
O30 C36 1.261 . S
C31 O40 1.247 . S
C31 O41 1.272 . S
O32 Co28 2.004 . S
O32 C37 1.259 . S
Co33 O34 2.061 . S
Co33 O39 2.052 . S
Co33 O41 2.135 . S
O34 Co33 2.061 . S
O34 C37 1.235 . S
C35 O38 1.238 . S
C35 O39 1.241 . S
C36 O29 1.247 . S
C36 O30 1.261 . S
C37 O32 1.259 . S
C37 O34 1.235 . S
O38 Co28 2.021 . S
O38 C35 1.238 . S
O39 Co33 2.052 . S
O39 C35 1.241 . S
O40 Co28 2.137 . S
O40 C31 1.247 . S
O41 Co28 2.244 . S
O41 C31 1.272 . S
O41 Co33 2.135 . S
Co42 O43 2.216 . S
Co42 O44 2.091 . S
Co42 O46 2.004 . S
Co42 O52 2.021 . S
Co42 O54 2.137 . S
Co42 O55 2.244 . S
O43 Co42 2.216 . S
O43 C50 1.247 . S
O44 Co42 2.091 . S
O44 C50 1.261 . S
C45 O54 1.247 . S
C45 O55 1.272 . S
O46 Co42 2.004 . S
O46 C51 1.259 . S
Co47 O48 2.061 . S
Co47 O53 2.052 . S
Co47 O55 2.135 . S
O48 Co47 2.061 . S
O48 C51 1.235 . S
C49 O52 1.238 . S
C49 O53 1.241 . S
C50 O43 1.247 . S
C50 O44 1.261 . S
C51 O46 1.259 . S
C51 O48 1.235 . S
O52 Co42 2.021 . S
O52 C49 1.238 . S
O53 Co47 2.052 . S
O53 C49 1.241 . S
O54 Co42 2.137 . S
O54 C45 1.247 . S
O55 Co42 2.244 . S
O55 C45 1.272 . S
O55 Co47 2.135 . S
Co56 O57 2.216 . S
Co56 O58 2.091 . S
Co56 O60 2.004 . S
Co56 O66 2.021 . S
Co56 O68 2.137 . S
Co56 O69 2.244 . S
O57 Co56 2.216 . S
O57 C64 1.247 . S
O58 Co56 2.091 . S
O58 C64 1.261 . S
C59 O68 1.247 . S
C59 O69 1.272 . S
O60 Co56 2.004 . S
O60 C65 1.259 . S
Co61 O62 2.061 . S
Co61 O67 2.052 . S
Co61 O69 2.135 . S
O62 Co61 2.061 . S
O62 C65 1.235 . S
C63 O66 1.238 . S
C63 O67 1.241 . S
C64 O57 1.247 . S
C64 O58 1.261 . S
C65 O60 1.259 . S
C65 O62 1.235 . S
O66 Co56 2.021 . S
O66 C63 1.238 . S
O67 Co61 2.052 . S
O67 C63 1.241 . S
O68 Co56 2.137 . S
O68 C59 1.247 . S
O69 Co56 2.244 . S
O69 C59 1.272 . S
O69 Co61 2.135 . S
Co70 O71 2.216 . S
Co70 O72 2.091 . S
Co70 O74 2.004 . S
Co70 O80 2.021 . S
Co70 O82 2.137 . S
Co70 O83 2.244 . S
O71 Co70 2.216 . S
O71 C78 1.247 . S
O72 Co70 2.091 . S
O72 C78 1.261 . S
C73 O82 1.247 . S
C73 O83 1.272 . S
O74 Co70 2.004 . S
O74 C79 1.265 . S
Co75 O76 2.061 . S
Co75 O81 2.052 . S
Co75 O83 2.135 . S
O76 Co75 2.061 . S
O76 C79 1.241 . S
C77 O80 1.238 . S
C77 O81 1.241 . S
C78 O71 1.247 . S
C78 O72 1.261 . S
C79 O74 1.265 . S
C79 O76 1.241 . S
O80 Co70 2.021 . S
O80 C77 1.238 . S
O81 Co75 2.052 . S
O81 C77 1.241 . S
O82 Co70 2.137 . S
O82 C73 1.247 . S
O83 Co70 2.244 . S
O83 C73 1.272 . S
O83 Co75 2.135 . S
Co84 O85 2.216 . S
Co84 O86 2.091 . S
Co84 O88 2.004 . S
Co84 O94 2.021 . S
Co84 O96 2.137 . S
Co84 O97 2.244 . S
O85 Co84 2.216 . S
O85 C92 1.247 . S
O86 Co84 2.091 . S
O86 C92 1.261 . S
C87 O96 1.247 . S
C87 O97 1.272 . S
O88 Co84 2.004 . S
O88 C93 1.259 . S
Co89 O90 2.061 . S
Co89 O95 2.052 . S
Co89 O97 2.135 . S
O90 Co89 2.061 . S
O90 C93 1.235 . S
C91 O94 1.238 . S
C91 O95 1.241 . S
C92 O85 1.247 . S
C92 O86 1.261 . S
C93 O88 1.259 . S
C93 O90 1.235 . S
O94 Co84 2.021 . S
O94 C91 1.238 . S
O95 Co89 2.052 . S
O95 C91 1.241 . S
O96 Co84 2.137 . S
O96 C87 1.247 . S
O97 Co84 2.244 . S
O97 C87 1.272 . S
O97 Co89 2.135 . S
Co98 O99 2.216 . S
Co98 O100 2.091 . S
Co98 O102 2.004 . S
Co98 O108 2.021 . S
Co98 O110 2.137 . S
Co98 O111 2.244 . S
O99 Co98 2.216 . S
O99 C106 1.247 . S
O100 Co98 2.091 . S
O100 C106 1.261 . S
C101 O110 1.247 . S
C101 O111 1.272 . S
O102 Co98 2.004 . S
O102 C107 1.259 . S
Co103 O104 2.061 . S
Co103 O109 2.052 . S
Co103 O111 2.135 . S
O104 Co103 2.061 . S
O104 C107 1.235 . S
C105 O108 1.238 . S
C105 O109 1.241 . S
C106 O99 1.247 . S
C106 O100 1.261 . S
C107 O102 1.259 . S
C107 O104 1.235 . S
O108 Co98 2.021 . S
O108 C105 1.238 . S
O109 Co103 2.052 . S
O109 C105 1.241 . S
O110 Co98 2.137 . S
O110 C101 1.247 . S
O111 Co98 2.244 . S
O111 C101 1.272 . S
O111 Co103 2.135 . S
Co112 O113 2.216 . S
Co112 O114 2.091 . S
Co112 O116 2.004 . S
Co112 O122 2.021 . S
Co112 O124 2.137 . S
Co112 O125 2.244 . S
O113 Co112 2.216 . S
O113 C120 1.247 . S
O114 Co112 2.091 . S
O114 C120 1.261 . S
C115 O124 1.247 . S
C115 O125 1.272 . S
O116 Co112 2.004 . S
O116 C121 1.265 . S
Co117 O118 2.061 . S
Co117 O123 2.052 . S
Co117 O125 2.135 . S
O118 Co117 2.061 . S
O118 C121 1.241 . S
C119 O122 1.238 . S
C119 O123 1.241 . S
C120 O113 1.247 . S
C120 O114 1.261 . S
C121 O116 1.265 . S
C121 O118 1.241 . S
O122 Co112 2.021 . S
O122 C119 1.238 . S
O123 Co117 2.052 . S
O123 C119 1.241 . S
O124 Co112 2.137 . S
O124 C115 1.247 . S
O125 Co112 2.244 . S
O125 C115 1.272 . S
O125 Co117 2.135 . S
Co126 O127 2.216 . S
Co126 O128 2.091 . S
Co126 O130 2.004 . S
Co126 O136 2.021 . S
Co126 O138 2.137 . S
Co126 O139 2.244 . S
O127 Co126 2.216 . S
O127 C134 1.247 . S
O128 Co126 2.091 . S
O128 C134 1.261 . S
C129 O138 1.247 . S
C129 O139 1.272 . S
O130 Co126 2.004 . S
O130 C135 1.259 . S
Co131 O132 2.061 . S
Co131 O137 2.052 . S
Co131 O139 2.135 . S
O132 Co131 2.061 . S
O132 C135 1.235 . S
C133 O136 1.238 . S
C133 O137 1.241 . S
C134 O127 1.247 . S
C134 O128 1.261 . S
C135 O130 1.259 . S
C135 O132 1.235 . S
O136 Co126 2.021 . S
O136 C133 1.238 . S
O137 Co131 2.052 . S
O137 C133 1.241 . S
O138 Co126 2.137 . S
O138 C129 1.247 . S
O139 Co126 2.244 . S
O139 C129 1.272 . S
O139 Co131 2.135 . S
Co140 O141 2.216 . S
Co140 O142 2.091 . S
Co140 O144 2.004 . S
Co140 O150 2.021 . S
Co140 O152 2.137 . S
Co140 O153 2.244 . S
O141 Co140 2.216 . S
O141 C148 1.247 . S
O142 Co140 2.091 . S
O142 C148 1.261 . S
C143 O152 1.247 . S
C143 O153 1.272 . S
O144 Co140 2.004 . S
O144 C149 1.259 . S
Co145 O146 2.061 . S
Co145 O151 2.052 . S
Co145 O153 2.135 . S
O146 Co145 2.061 . S
O146 C149 1.235 . S
C147 O150 1.238 . S
C147 O151 1.241 . S
C148 O141 1.247 . S
C148 O142 1.261 . S
C149 O144 1.259 . S
C149 O146 1.235 . S
O150 Co140 2.021 . S
O150 C147 1.238 . S
O151 Co145 2.052 . S
O151 C147 1.241 . S
O152 Co140 2.137 . S
O152 C143 1.247 . S
O153 Co140 2.244 . S
O153 C143 1.272 . S
O153 Co145 2.135 . S
Co154 O155 2.216 . S
Co154 O156 2.091 . S
Co154 O158 2.004 . S
Co154 O164 2.021 . S
Co154 O166 2.137 . S
Co154 O167 2.244 . S
O155 Co154 2.216 . S
O155 C162 1.247 . S
O156 Co154 2.091 . S
O156 C162 1.261 . S
C157 O166 1.247 . S
C157 O167 1.272 . S
O158 Co154 2.004 . S
O158 C163 1.259 . S
Co159 O160 2.061 . S
Co159 O165 2.052 . S
Co159 O167 2.135 . S
O160 Co159 2.061 . S
O160 C163 1.235 . S
C161 O164 1.238 . S
C161 O165 1.241 . S
C162 O155 1.247 . S
C162 O156 1.261 . S
C163 O158 1.259 . S
C163 O160 1.235 . S
O164 Co154 2.021 . S
O164 C161 1.238 . S
O165 Co159 2.052 . S
O165 C161 1.241 . S
O166 Co154 2.137 . S
O166 C157 1.247 . S
O167 Co154 2.244 . S
O167 C157 1.272 . S
O167 Co159 2.135 . S
H168 C176 0.929 . S
H169 C178 0.930 . S
H170 C180 0.931 1_655 S
H171 C183 0.887 1_655 S
H172 C186 0.930 . S
H173 C188 0.960 1_655 S
H174 C188 0.960 . S
H175 C188 0.960 1_655 S
C176 H168 0.929 . S
C176 C177 1.377 . S
C176 C178 1.384 . S
C177 C176 1.377 . S
C177 C183 1.390 . S
C178 H169 0.930 . S
C178 C176 1.384 . S
C178 C179 1.372 . S
C179 C178 1.372 . S
C179 C180 1.400 . S
C179 C184 1.490 . S
C180 H170 0.931 1_455 S
C180 C179 1.400 . S
C180 C183 1.386 . S
H181 C197 0.930 . S
H182 C198 0.931 . S
C183 H171 0.887 1_455 S
C183 C177 1.390 . S
C183 C180 1.386 . S
C184 C179 1.490 . S
C184 C186 1.395 . S
C184 C187 1.403 . S
H185 C191 0.930 . S
C186 H172 0.930 . S
C186 C184 1.395 . S
C186 C189 1.403 . S
C187 C184 1.403 . S
C187 C188 1.524 . S
C187 C191 1.400 . S
C188 H173 0.960 1_455 S
C188 H174 0.960 . S
C188 H175 0.960 1_455 S
C188 C187 1.524 . S
C189 C186 1.403 . S
C189 C190 1.392 . S
C189 C193 1.495 . S
C190 C189 1.392 . S
C190 C191 1.385 . S
C190 C192 1.478 . S
C191 H185 0.930 . S
C191 C187 1.400 . S
C191 C190 1.385 . S
C192 C190 1.478 . S
C192 C194 1.381 . S
C192 C198 1.383 . S
C193 C189 1.495 . S
C193 H199 0.959 . S
C193 H200 0.961 . S
C193 H201 0.960 . S
C194 C192 1.381 . S
C194 C195 1.394 . S
C194 H202 0.930 . S
C195 C194 1.394 . S
C195 C196 1.383 . S
C195 H203 0.929 . S
C196 C195 1.383 . S
C196 C197 1.377 . S
C197 H181 0.930 . S
C197 C196 1.377 . S
C197 C198 1.379 . S
C198 H182 0.931 . S
C198 C192 1.383 . S
C198 C197 1.379 . S
H199 C193 0.959 . S
H200 C193 0.961 . S
H201 C193 0.960 . S
H202 C194 0.930 . S
H203 C195 0.929 . S
H204 C212 0.929 . S
H205 C214 0.930 . S
H206 C216 0.930 . S
H207 C219 0.929 . S
H208 C222 0.930 . S
H209 C224 0.960 . S
H210 C224 0.960 . S
H211 C224 0.960 . S
C212 H204 0.929 . S
C212 C213 1.377 . S
C212 C214 1.384 . S
C213 C212 1.377 . S
C213 C219 1.390 . S
C214 H205 0.930 . S
C214 C212 1.384 . S
C214 C215 1.372 . S
C215 C214 1.372 . S
C215 C216 1.400 . S
C215 C220 1.490 . S
C216 H206 0.930 . S
C216 C215 1.400 . S
C216 C219 1.386 . S
H217 C233 0.930 . S
H218 C234 0.931 . S
C219 H207 0.929 . S
C219 C213 1.390 . S
C219 C216 1.386 . S
C220 C215 1.490 . S
C220 C222 1.395 . S
C220 C223 1.403 . S
H221 C227 0.930 . S
C222 H208 0.930 . S
C222 C220 1.395 . S
C222 C225 1.403 . S
C223 C220 1.403 . S
C223 C224 1.524 . S
C223 C227 1.400 . S
C224 H209 0.960 . S
C224 H210 0.960 . S
C224 H211 0.960 . S
C224 C223 1.524 . S
C225 C222 1.403 . S
C225 C226 1.392 . S
C225 C229 1.495 . S
C226 C225 1.392 . S
C226 C227 1.385 . S
C226 C228 1.478 . S
C227 H221 0.930 . S
C227 C223 1.400 . S
C227 C226 1.385 . S
C228 C226 1.478 . S
C228 C230 1.381 . S
C228 C234 1.383 . S
C229 C225 1.495 . S
C229 H235 0.959 1_545 S
C229 H236 0.961 1_545 S
C229 H237 0.960 . S
C230 C228 1.381 . S
C230 C231 1.394 . S
C230 H238 0.930 . S
C231 C230 1.394 . S
C231 C232 1.383 . S
C231 H239 0.929 . S
C232 C231 1.383 . S
C232 C233 1.377 . S
C233 H217 0.930 . S
C233 C232 1.377 . S
C233 C234 1.379 . S
C234 H218 0.931 . S
C234 C228 1.383 . S
C234 C233 1.379 . S
H235 C229 0.959 1_565 S
H236 C229 0.961 1_565 S
H237 C229 0.960 . S
H238 C230 0.930 . S
H239 C231 0.929 . S
H240 C248 0.929 . S
H241 C250 0.930 . S
H242 C252 0.930 . S
H243 C255 0.929 . S
H244 C258 0.930 . S
H245 C260 0.960 . S
H246 C260 0.960 . S
H247 C260 0.960 . S
C248 H240 0.929 . S
C248 C249 1.377 . S
C248 C250 1.384 . S
C249 C248 1.377 . S
C249 C255 1.390 . S
C250 H241 0.930 . S
C250 C248 1.384 . S
C250 C251 1.372 . S
C251 C250 1.372 . S
C251 C252 1.400 . S
C251 C256 1.490 . S
C252 H242 0.930 . S
C252 C251 1.400 . S
C252 C255 1.386 . S
H253 C269 0.930 . S
H254 C270 0.931 . S
C255 H243 0.929 . S
C255 C249 1.390 . S
C255 C252 1.386 . S
C256 C251 1.490 . S
C256 C258 1.395 . S
C256 C259 1.403 . S
H257 C263 0.930 . S
C258 H244 0.930 . S
C258 C256 1.395 . S
C258 C261 1.403 . S
C259 C256 1.403 . S
C259 C260 1.524 . S
C259 C263 1.400 . S
C260 H245 0.960 . S
C260 H246 0.960 . S
C260 H247 0.960 . S
C260 C259 1.524 . S
C261 C258 1.403 . S
C261 C262 1.392 . S
C261 C265 1.495 . S
C262 C261 1.392 . S
C262 C263 1.385 . S
C262 C264 1.478 . S
C263 H257 0.930 . S
C263 C259 1.400 . S
C263 C262 1.385 . S
C264 C262 1.478 . S
C264 C266 1.381 . S
C264 C270 1.383 . S
C265 C261 1.495 . S
C265 H271 0.959 . S
C265 H272 0.961 . S
C265 H273 0.960 . S
C266 C264 1.381 . S
C266 C267 1.394 . S
C266 H274 0.930 . S
C267 C266 1.394 . S
C267 C268 1.383 . S
C267 H275 0.929 . S
C268 C267 1.383 . S
C268 C269 1.377 . S
C269 H253 0.930 . S
C269 C268 1.377 . S
C269 C270 1.379 . S
C270 H254 0.931 . S
C270 C264 1.383 . S
C270 C269 1.379 . S
H271 C265 0.959 . S
H272 C265 0.961 . S
H273 C265 0.960 . S
H274 C266 0.930 . S
H275 C267 0.929 . S
H276 C284 0.929 . S
H277 C286 0.930 . S
H278 C288 0.930 . S
H279 C291 0.929 . S
H280 C294 0.930 . S
H281 C296 0.960 . S
H282 C296 0.960 . S
H283 C296 0.960 . S
C284 H276 0.929 . S
C284 C285 1.377 . S
C284 C286 1.384 . S
C285 C284 1.377 . S
C285 C291 1.390 . S
C286 H277 0.930 . S
C286 C284 1.384 . S
C286 C287 1.372 . S
C287 C286 1.372 . S
C287 C288 1.400 . S
C287 C292 1.490 . S
C288 H278 0.930 . S
C288 C287 1.400 . S
C288 C291 1.386 . S
H289 C305 0.930 . S
H290 C306 0.931 . S
C291 H279 0.929 . S
C291 C285 1.390 . S
C291 C288 1.386 . S
C292 C287 1.490 . S
C292 C294 1.395 . S
C292 C295 1.403 . S
H293 C299 0.930 . S
C294 H280 0.930 . S
C294 C292 1.395 . S
C294 C297 1.403 . S
C295 C292 1.403 . S
C295 C296 1.524 . S
C295 C299 1.400 . S
C296 H281 0.960 . S
C296 H282 0.960 . S
C296 H283 0.960 . S
C296 C295 1.524 . S
C297 C294 1.403 . S
C297 C298 1.392 . S
C297 C301 1.495 . S
C298 C297 1.392 . S
C298 C299 1.385 . S
C298 C300 1.478 . S
C299 H293 0.930 . S
C299 C295 1.400 . S
C299 C298 1.385 . S
C300 C298 1.478 . S
C300 C302 1.381 . S
C300 C306 1.383 . S
C301 C297 1.495 . S
C301 H307 0.959 . S
C301 H308 0.961 . S
C301 H309 0.960 . S
C302 C300 1.381 . S
C302 C303 1.394 . S
C302 H310 0.930 . S
C303 C302 1.394 . S
C303 C304 1.383 . S
C303 H311 0.970 . S
C304 C303 1.383 . S
C304 C305 1.377 . S
C305 H289 0.930 . S
C305 C304 1.377 . S
C305 C306 1.379 . S
C306 H290 0.931 . S
C306 C300 1.383 . S
C306 C305 1.379 . S
H307 C301 0.959 . S
H308 C301 0.961 . S
H309 C301 0.960 . S
H310 C302 0.930 . S
H311 C303 0.970 . S
H312 C320 0.929 . S
H313 C322 0.930 . S
H314 C324 0.930 . S
H315 C327 0.929 . S
H316 C330 0.930 . S
H317 C332 0.960 . S
H318 C332 0.960 . S
H319 C332 0.960 . S
C320 H312 0.929 . S
C320 C321 1.377 . S
C320 C322 1.384 . S
C321 C320 1.377 . S
C321 C327 1.390 . S
C322 H313 0.930 . S
C322 C320 1.384 . S
C322 C323 1.372 . S
C323 C322 1.372 . S
C323 C324 1.400 . S
C323 C328 1.490 . S
C324 H314 0.930 . S
C324 C323 1.400 . S
C324 C327 1.386 . S
H325 C341 0.930 . S
H326 C342 0.931 . S
C327 H315 0.929 . S
C327 C321 1.390 . S
C327 C324 1.386 . S
C328 C323 1.490 . S
C328 C330 1.395 . S
C328 C331 1.403 . S
H329 C335 0.930 . S
C330 H316 0.930 . S
C330 C328 1.395 . S
C330 C333 1.403 . S
C331 C328 1.403 . S
C331 C332 1.524 . S
C331 C335 1.400 . S
C332 H317 0.960 . S
C332 H318 0.960 . S
C332 H319 0.960 . S
C332 C331 1.524 . S
C333 C330 1.403 . S
C333 C334 1.392 . S
C333 C337 1.495 . S
C334 C333 1.392 . S
C334 C335 1.385 . S
C334 C336 1.478 . S
C335 H329 0.930 . S
C335 C331 1.400 . S
C335 C334 1.385 . S
C336 C334 1.478 . S
C336 C338 1.381 . S
C336 C342 1.383 . S
C337 C333 1.495 . S
C337 H343 0.959 . S
C337 H344 0.961 . S
C337 H345 0.960 . S
C338 C336 1.381 . S
C338 C339 1.394 . S
C338 H346 0.930 . S
C339 C338 1.394 . S
C339 C340 1.383 . S
C339 H347 0.929 . S
C340 C339 1.383 . S
C340 C341 1.377 . S
C341 H325 0.930 . S
C341 C340 1.377 . S
C341 C342 1.379 . S
C342 H326 0.931 . S
C342 C336 1.383 . S
C342 C341 1.379 . S
H343 C337 0.959 . S
H344 C337 0.961 . S
H345 C337 0.960 . S
H346 C338 0.930 . S
H347 C339 0.929 . S
H348 C356 0.929 . S
H349 C358 0.930 . S
H350 C360 0.930 . S
H351 C363 0.929 . S
H352 C366 0.930 . S
H353 C368 0.960 . S
H354 C368 0.960 . S
H355 C368 0.960 . S
C356 H348 0.929 . S
C356 C357 1.377 . S
C356 C358 1.384 . S
C357 C356 1.377 . S
C357 C363 1.390 . S
C358 H349 0.930 . S
C358 C356 1.384 . S
C358 C359 1.372 . S
C359 C358 1.372 . S
C359 C360 1.400 . S
C359 C364 1.490 . S
C360 H350 0.930 . S
C360 C359 1.400 . S
C360 C363 1.386 . S
H361 C377 0.930 . S
H362 C378 0.931 . S
C363 H351 0.929 . S
C363 C357 1.390 . S
C363 C360 1.386 . S
C364 C359 1.490 . S
C364 C366 1.395 . S
C364 C367 1.403 . S
H365 C371 0.930 . S
C366 H352 0.930 . S
C366 C364 1.395 . S
C366 C369 1.403 . S
C367 C364 1.403 . S
C367 C368 1.524 . S
C367 C371 1.400 . S
C368 H353 0.960 . S
C368 H354 0.960 . S
C368 H355 0.960 . S
C368 C367 1.524 . S
C369 C366 1.403 . S
C369 C370 1.392 . S
C369 C373 1.495 . S
C370 C369 1.392 . S
C370 C371 1.385 . S
C370 C372 1.478 . S
C371 H365 0.930 . S
C371 C367 1.400 . S
C371 C370 1.385 . S
C372 C370 1.478 . S
C372 C374 1.381 . S
C372 C378 1.383 . S
C373 C369 1.495 . S
C373 H379 0.959 . S
C373 H380 0.961 . S
C373 H381 0.960 . S
C374 C372 1.381 . S
C374 C375 1.394 . S
C374 H382 0.930 . S
C375 C374 1.394 . S
C375 C376 1.383 . S
C375 H383 0.929 . S
C376 C375 1.383 . S
C376 C377 1.377 . S
C377 H361 0.930 . S
C377 C376 1.377 . S
C377 C378 1.379 . S
C378 H362 0.931 . S
C378 C372 1.383 . S
C378 C377 1.379 . S
H379 C373 0.959 . S
H380 C373 0.961 . S
H381 C373 0.960 . S
H382 C374 0.930 . S
H383 C375 0.929 . S
H384 C392 0.929 . S
H385 C394 0.930 . S
H386 C396 0.930 . S
H387 C399 0.929 . S
H388 C402 0.930 . S
H389 C404 0.960 . S
H390 C404 0.960 . S
H391 C404 0.960 . S
C392 H384 0.929 . S
C392 C393 1.377 . S
C392 C394 1.384 . S
C393 C392 1.377 . S
C393 C399 1.390 . S
C394 H385 0.930 . S
C394 C392 1.384 . S
C394 C395 1.372 . S
C395 C394 1.372 . S
C395 C396 1.400 . S
C395 C400 1.490 . S
C396 H386 0.930 . S
C396 C395 1.400 . S
C396 C399 1.386 . S
H397 C413 0.930 . S
H398 C414 0.931 . S
C399 H387 0.929 . S
C399 C393 1.390 . S
C399 C396 1.386 . S
C400 C395 1.490 . S
C400 C402 1.395 . S
C400 C403 1.403 . S
H401 C407 0.930 . S
C402 H388 0.930 . S
C402 C400 1.395 . S
C402 C405 1.403 . S
C403 C400 1.403 . S
C403 C404 1.524 . S
C403 C407 1.400 . S
C404 H389 0.960 . S
C404 H390 0.960 . S
C404 H391 0.960 . S
C404 C403 1.524 . S
C405 C402 1.403 . S
C405 C406 1.392 . S
C405 C409 1.462 1_554 S
C406 C405 1.392 . S
C406 C407 1.385 . S
C406 C408 1.478 . S
C407 H401 0.930 . S
C407 C403 1.400 . S
C407 C406 1.385 . S
C408 C406 1.478 . S
C408 C410 1.381 . S
C408 C414 1.383 . S
C409 C405 1.462 1_556 S
C409 H415 0.963 . S
C409 H416 0.984 . S
C409 H417 0.967 . S
C410 C408 1.381 . S
C410 C411 1.394 1_554 S
C410 H418 0.930 . S
C411 C410 1.394 1_556 S
C411 C412 1.383 . S
C411 H419 0.929 . S
C412 C411 1.383 . S
C412 C413 1.377 . S
C413 H397 0.930 . S
C413 C412 1.377 . S
C413 C414 1.379 1_556 S
C414 H398 0.931 . S
C414 C408 1.383 . S
C414 C413 1.379 1_554 S
H415 C409 0.963 . S
H416 C409 0.984 . S
H417 C409 0.967 . S
H418 C410 0.930 . S
H419 C411 0.929 . S
H420 C428 0.929 . S
H421 C430 0.930 . S
H422 C432 0.930 . S
H423 C435 0.929 . S
H424 C438 0.930 . S
H425 C440 0.960 . S
H426 C440 0.960 . S
H427 C440 0.960 . S
C428 H420 0.929 . S
C428 C429 1.377 . S
C428 C430 1.384 . S
C429 C428 1.377 . S
C429 C435 1.390 . S
C430 H421 0.930 . S
C430 C428 1.384 . S
C430 C431 1.372 . S
C431 C430 1.372 . S
C431 C432 1.400 . S
C431 C436 1.490 . S
C432 H422 0.930 . S
C432 C431 1.400 . S
C432 C435 1.386 . S
H433 C449 0.930 . S
H434 C450 0.931 . S
C435 H423 0.929 . S
C435 C429 1.390 . S
C435 C432 1.386 . S
C436 C431 1.490 . S
C436 C438 1.395 . S
C436 C439 1.403 . S
H437 C443 0.930 . S
C438 H424 0.930 . S
C438 C436 1.395 . S
C438 C441 1.403 . S
C439 C436 1.403 . S
C439 C440 1.524 . S
C439 C443 1.400 . S
C440 H425 0.960 . S
C440 H426 0.960 . S
C440 H427 0.960 . S
C440 C439 1.524 . S
C441 C438 1.403 . S
C441 C442 1.392 . S
C441 C445 1.495 . S
C442 C441 1.392 . S
C442 C443 1.385 . S
C442 C444 1.478 . S
C443 H437 0.930 . S
C443 C439 1.400 . S
C443 C442 1.385 . S
C444 C442 1.478 . S
C444 C446 1.381 . S
C444 C450 1.383 . S
C445 C441 1.495 . S
C445 H451 0.959 . S
C445 H452 0.961 . S
C445 H453 0.960 . S
C446 C444 1.381 . S
C446 C447 1.394 . S
C446 H454 0.930 . S
C447 C446 1.394 . S
C447 C448 1.383 . S
C447 H455 0.929 1_655 S
C448 C447 1.383 . S
C448 C449 1.377 . S
C449 H433 0.930 . S
C449 C448 1.377 . S
C449 C450 1.379 . S
C450 H434 0.931 . S
C450 C444 1.383 . S
C450 C449 1.379 . S
H451 C445 0.959 . S
H452 C445 0.961 . S
H453 C445 0.960 . S
H454 C446 0.930 . S
H455 C447 0.929 1_455 S
H456 C464 0.929 . S
H457 C466 0.930 . S
H458 C468 0.930 . S
H459 C471 0.929 . S
H460 C474 0.930 . S
H461 C476 0.960 . S
H462 C476 0.960 . S
H463 C476 0.960 . S
C464 H456 0.929 . S
C464 C465 1.377 . S
C464 C466 1.384 . S
C465 C464 1.377 . S
C465 C471 1.390 . S
C466 H457 0.930 . S
C466 C464 1.384 . S
C466 C467 1.372 . S
C467 C466 1.372 . S
C467 C468 1.400 . S
C467 C472 1.490 . S
C468 H458 0.930 . S
C468 C467 1.400 . S
C468 C471 1.386 . S
H469 C485 0.930 . S
H470 C486 0.931 . S
C471 H459 0.929 . S
C471 C465 1.390 . S
C471 C468 1.386 . S
C472 C467 1.490 . S
C472 C474 1.395 . S
C472 C475 1.403 . S
H473 C479 0.930 . S
C474 H460 0.930 . S
C474 C472 1.395 . S
C474 C477 1.403 . S
C475 C472 1.403 . S
C475 C476 1.524 . S
C475 C479 1.400 . S
C476 H461 0.960 . S
C476 H462 0.960 . S
C476 H463 0.960 . S
C476 C475 1.524 . S
C477 C474 1.403 . S
C477 C478 1.392 . S
C477 C481 1.495 . S
C478 C477 1.392 . S
C478 C479 1.385 . S
C478 C480 1.478 . S
C479 H473 0.930 . S
C479 C475 1.400 . S
C479 C478 1.385 . S
C480 C478 1.478 . S
C480 C482 1.381 . S
C480 C486 1.383 . S
C481 C477 1.495 . S
C481 H487 0.959 . S
C481 H488 0.961 . S
C481 H489 0.960 . S
C482 C480 1.381 . S
C482 C483 1.394 . S
C482 H490 0.930 . S
C483 C482 1.394 . S
C483 C484 1.383 . S
C483 H491 0.929 . S
C484 C483 1.383 . S
C484 C485 1.377 . S
C485 H469 0.930 . S
C485 C484 1.377 . S
C485 C486 1.379 . S
C486 H470 0.931 . S
C486 C480 1.383 . S
C486 C485 1.379 . S
H487 C481 0.959 . S
H488 C481 0.961 . S
H489 C481 0.960 . S
H490 C482 0.930 . S
H491 C483 0.929 . S
H492 C500 0.929 . S
H493 C502 0.930 . S
H494 C504 0.930 . S
H495 C507 0.929 . S
H496 C510 0.930 . S
H497 C512 0.960 . S
H498 C512 0.960 . S
H499 C512 0.960 . S
C500 H492 0.929 . S
C500 C501 1.377 . S
C500 C502 1.384 . S
C501 C500 1.377 . S
C501 C507 1.390 . S
C502 H493 0.930 . S
C502 C500 1.384 . S
C502 C503 1.372 . S
C503 C502 1.372 . S
C503 C504 1.400 . S
C503 C508 1.490 . S
C504 H494 0.930 . S
C504 C503 1.400 . S
C504 C507 1.386 . S
H505 C521 0.930 . S
H506 C522 0.931 . S
C507 H495 0.929 . S
C507 C501 1.390 . S
C507 C504 1.386 . S
C508 C503 1.490 . S
C508 C510 1.395 . S
C508 C511 1.403 . S
H509 C515 0.930 . S
C510 H496 0.930 . S
C510 C508 1.395 . S
C510 C513 1.403 . S
C511 C508 1.403 . S
C511 C512 1.524 . S
C511 C515 1.400 . S
C512 H497 0.960 . S
C512 H498 0.960 . S
C512 H499 0.960 . S
C512 C511 1.524 . S
C513 C510 1.403 . S
C513 C514 1.392 . S
C513 C517 1.495 . S
C514 C513 1.392 . S
C514 C515 1.385 . S
C514 C516 1.478 . S
C515 H509 0.930 . S
C515 C511 1.400 . S
C515 C514 1.385 . S
C516 C514 1.478 . S
C516 C518 1.381 . S
C516 C522 1.383 . S
C517 C513 1.495 . S
C517 H523 0.959 . S
C517 H524 0.961 . S
C517 H525 0.960 . S
C518 C516 1.381 . S
C518 C519 1.394 . S
C518 H526 0.930 . S
C519 C518 1.394 . S
C519 C520 1.383 . S
C519 H527 0.929 . S
C520 C519 1.383 . S
C520 C521 1.377 . S
C521 H505 0.930 . S
C521 C520 1.377 . S
C521 C522 1.379 . S
C522 H506 0.931 . S
C522 C516 1.383 . S
C522 C521 1.379 . S
H523 C517 0.959 . S
H524 C517 0.961 . S
H525 C517 0.960 . S
H526 C518 0.930 . S
H527 C519 0.929 . S
H528 C536 0.929 . S
H529 C538 0.930 . S
H530 C540 0.930 . S
H531 C543 0.950 . S
H532 C546 0.930 . S
H533 C548 0.960 . S
H534 C548 0.960 . S
H535 C548 0.960 . S
C536 H528 0.929 . S
C536 C537 1.377 . S
C536 C538 1.384 . S
C537 C536 1.377 . S
C537 C543 1.390 . S
C538 H529 0.930 . S
C538 C536 1.384 . S
C538 C539 1.372 . S
C539 C538 1.372 . S
C539 C540 1.400 . S
C539 C544 1.490 . S
C540 H530 0.930 . S
C540 C539 1.400 . S
C540 C543 1.386 . S
H541 C557 0.930 . S
H542 C558 0.931 . S
C543 H531 0.950 . S
C543 C537 1.390 . S
C543 C540 1.386 . S
C544 C539 1.490 . S
C544 C546 1.395 . S
C544 C547 1.403 . S
H545 C551 0.930 . S
C546 H532 0.930 . S
C546 C544 1.395 . S
C546 C549 1.403 . S
C547 C544 1.403 . S
C547 C548 1.524 . S
C547 C551 1.400 . S
C548 H533 0.960 . S
C548 H534 0.960 . S
C548 H535 0.960 . S
C548 C547 1.524 . S
C549 C546 1.403 . S
C549 C550 1.392 . S
C549 C553 1.495 . S
C550 C549 1.392 . S
C550 C551 1.385 . S
C550 C552 1.478 . S
C551 H545 0.930 . S
C551 C547 1.400 . S
C551 C550 1.385 . S
C552 C550 1.478 . S
C552 C554 1.381 . S
C552 C558 1.383 . S
C553 C549 1.495 . S
C553 H559 0.959 . S
C553 H560 0.961 . S
C553 H561 0.960 . S
C554 C552 1.381 . S
C554 C555 1.394 . S
C554 H562 0.930 . S
C555 C554 1.394 . S
C555 C556 1.383 . S
C555 H563 0.929 . S
C556 C555 1.383 . S
C556 C557 1.377 . S
C557 H541 0.930 . S
C557 C556 1.377 . S
C557 C558 1.379 . S
C558 H542 0.931 . S
C558 C552 1.383 . S
C558 C557 1.379 . S
H559 C553 0.959 . S
H560 C553 0.961 . S
H561 C553 0.960 . S
H562 C554 0.930 . S
H563 C555 0.929 . S
H564 C572 0.929 . S
H565 C574 0.930 . S
H566 C576 0.930 . S
H567 C579 0.929 . S
H568 C582 0.930 . S
H569 C584 0.960 . S
H570 C584 0.960 . S
H571 C584 0.960 . S
C572 H564 0.929 . S
C572 C573 1.377 . S
C572 C574 1.384 . S
C573 C572 1.377 . S
C573 C579 1.390 . S
C574 H565 0.930 . S
C574 C572 1.384 . S
C574 C575 1.372 . S
C575 C574 1.372 . S
C575 C576 1.400 . S
C575 C580 1.490 . S
C576 H566 0.930 . S
C576 C575 1.400 . S
C576 C579 1.386 . S
H577 C593 0.930 . S
H578 C594 0.931 . S
C579 H567 0.929 . S
C579 C573 1.390 . S
C579 C576 1.386 . S
C580 C575 1.490 . S
C580 C582 1.395 . S
C580 C583 1.403 . S
H581 C587 0.930 . S
C582 H568 0.930 . S
C582 C580 1.395 . S
C582 C585 1.403 . S
C583 C580 1.403 . S
C583 C584 1.524 . S
C583 C587 1.400 . S
C584 H569 0.960 . S
C584 H570 0.960 . S
C584 H571 0.960 . S
C584 C583 1.524 . S
C585 C582 1.403 . S
C585 C586 1.392 . S
C585 C589 1.495 . S
C586 C585 1.392 . S
C586 C587 1.385 . S
C586 C588 1.478 . S
C587 H581 0.930 . S
C587 C583 1.400 . S
C587 C586 1.385 . S
C588 C586 1.478 . S
C588 C590 1.381 . S
C588 C594 1.383 . S
C589 C585 1.495 . S
C589 H595 0.959 . S
C589 H596 0.961 . S
C589 H597 0.960 . S
C590 C588 1.381 . S
C590 C591 1.394 . S
C590 H598 0.930 . S
C591 C590 1.394 . S
C591 C592 1.383 . S
C591 H599 0.929 . S
C592 C591 1.383 . S
C592 C593 1.377 . S
C593 H577 0.930 . S
C593 C592 1.377 . S
C593 C594 1.379 . S
C594 H578 0.931 . S
C594 C588 1.383 . S
C594 C593 1.379 . S
H595 C589 0.959 . S
H596 C589 0.961 . S
H597 C589 0.960 . S
H598 C590 0.930 . S
H599 C591 0.929 . S
H600 C608 0.929 . S
H601 C610 0.930 . S
H602 C612 0.930 . S
H603 C615 0.929 . S
H604 C618 0.930 . S
H605 C620 0.960 . S
H606 C620 0.960 . S
H607 C620 0.960 . S
C608 H600 0.929 . S
C608 C609 1.377 . S
C608 C610 1.384 . S
C609 C608 1.377 . S
C609 C615 1.390 . S
C610 H601 0.930 . S
C610 C608 1.384 . S
C610 C611 1.372 . S
C611 C610 1.372 . S
C611 C612 1.400 . S
C611 C616 1.490 . S
C612 H602 0.930 . S
C612 C611 1.400 . S
C612 C615 1.386 . S
H613 C629 0.930 . S
H614 C630 0.931 . S
C615 H603 0.929 . S
C615 C609 1.390 . S
C615 C612 1.386 . S
C616 C611 1.490 . S
C616 C618 1.395 . S
C616 C619 1.403 . S
H617 C623 0.930 . S
C618 H604 0.930 . S
C618 C616 1.395 . S
C618 C621 1.403 . S
C619 C616 1.403 . S
C619 C620 1.524 . S
C619 C623 1.400 . S
C620 H605 0.960 . S
C620 H606 0.960 . S
C620 H607 0.960 . S
C620 C619 1.524 . S
C621 C618 1.403 . S
C621 C622 1.392 . S
C621 C625 1.495 . S
C622 C621 1.392 . S
C622 C623 1.385 . S
C622 C624 1.478 . S
C623 H617 0.930 . S
C623 C619 1.400 . S
C623 C622 1.385 . S
C624 C622 1.478 . S
C624 C626 1.381 . S
C624 C630 1.383 . S
C625 C621 1.495 . S
C625 H631 0.959 . S
C625 H632 0.961 . S
C625 H633 0.960 . S
C626 C624 1.381 . S
C626 C627 1.394 . S
C626 H634 0.930 . S
C627 C626 1.394 . S
C627 C628 1.383 . S
C627 H635 0.929 . S
C628 C627 1.383 . S
C628 C629 1.377 . S
C629 H613 0.930 . S
C629 C628 1.377 . S
C629 C630 1.379 . S
C630 H614 0.931 . S
C630 C624 1.383 . S
C630 C629 1.379 . S
H631 C625 0.959 . S
H632 C625 0.961 . S
H633 C625 0.960 . S
H634 C626 0.930 . S
H635 C627 0.929 . S
H636 C644 0.929 . S
H637 C646 0.930 . S
H638 C648 0.930 . S
H639 C651 0.929 . S
H640 C654 0.930 . S
H641 C656 0.960 . S
H642 C656 0.960 . S
H643 C656 0.960 . S
C644 H636 0.929 . S
C644 C645 1.377 . S
C644 C646 1.384 . S
C645 C644 1.377 . S
C645 C651 1.390 . S
C646 H637 0.930 . S
C646 C644 1.384 . S
C646 C647 1.372 . S
C647 C646 1.372 . S
C647 C648 1.400 . S
C647 C652 1.490 . S
C648 H638 0.930 . S
C648 C647 1.400 . S
C648 C651 1.386 . S
H649 C665 0.930 . S
H650 C666 0.931 . S
C651 H639 0.929 . S
C651 C645 1.390 . S
C651 C648 1.386 . S
C652 C647 1.490 . S
C652 C654 1.395 . S
C652 C655 1.403 . S
H653 C659 0.930 . S
C654 H640 0.930 . S
C654 C652 1.395 . S
C654 C657 1.403 . S
C655 C652 1.403 . S
C655 C656 1.524 . S
C655 C659 1.400 . S
C656 H641 0.960 . S
C656 H642 0.960 . S
C656 H643 0.960 . S
C656 C655 1.524 . S
C657 C654 1.403 . S
C657 C658 1.392 . S
C657 C661 1.495 . S
C658 C657 1.392 . S
C658 C659 1.385 . S
C658 C660 1.478 . S
C659 H653 0.930 . S
C659 C655 1.400 . S
C659 C658 1.385 . S
C660 C658 1.478 . S
C660 C662 1.381 . S
C660 C666 1.383 . S
C661 C657 1.495 . S
C661 H667 0.959 . S
C661 H668 0.961 . S
C661 H669 0.960 . S
C662 C660 1.381 . S
C662 C663 1.394 . S
C662 H670 0.930 . S
C663 C662 1.394 . S
C663 C664 1.383 1_556 S
C663 H671 0.929 . S
C664 C663 1.383 1_554 S
C664 C665 1.377 . S
C665 H649 0.930 . S
C665 C664 1.377 . S
C665 C666 1.379 1_554 S
C666 H650 0.931 . S
C666 C660 1.383 . S
C666 C665 1.379 1_556 S
H667 C661 0.959 . S
H668 C661 0.961 . S
H669 C661 0.960 . S
H670 C662 0.930 . S
H671 C663 0.929 . S
H672 C680 0.929 . S
H673 C682 0.930 . S
H674 C684 0.930 . S
H675 C687 0.929 . S
H676 C690 0.930 . S
H677 C692 0.960 . S
H678 C692 0.960 . S
H679 C692 0.960 . S
C680 H672 0.929 . S
C680 C681 1.377 . S
C680 C682 1.384 . S
C681 C680 1.377 . S
C681 C687 1.390 . S
C682 H673 0.930 . S
C682 C680 1.384 . S
C682 C683 1.372 . S
C683 C682 1.372 . S
C683 C684 1.400 . S
C683 C688 1.490 . S
C684 H674 0.930 . S
C684 C683 1.400 . S
C684 C687 1.386 . S
H685 C701 0.930 . S
H686 C702 0.931 . S
C687 H675 0.929 . S
C687 C681 1.390 . S
C687 C684 1.386 . S
C688 C683 1.490 . S
C688 C690 1.395 . S
C688 C691 1.403 . S
H689 C695 0.930 . S
C690 H676 0.930 . S
C690 C688 1.395 . S
C690 C693 1.403 . S
C691 C688 1.403 . S
C691 C692 1.524 . S
C691 C695 1.400 . S
C692 H677 0.960 . S
C692 H678 0.960 . S
C692 H679 0.960 . S
C692 C691 1.524 . S
C693 C690 1.403 . S
C693 C694 1.392 . S
C693 C697 1.495 . S
C694 C693 1.392 . S
C694 C695 1.385 . S
C694 C696 1.478 . S
C695 H689 0.930 . S
C695 C691 1.400 . S
C695 C694 1.385 . S
C696 C694 1.478 . S
C696 C698 1.381 . S
C696 C702 1.383 . S
C697 C693 1.495 . S
C697 H703 0.959 . S
C697 H704 0.961 . S
C697 H705 0.960 . S
C698 C696 1.381 . S
C698 C699 1.394 . S
C698 H706 0.930 . S
C699 C698 1.394 . S
C699 C700 1.383 . S
C699 H707 0.929 . S
C700 C699 1.383 . S
C700 C701 1.377 . S
C701 H685 0.930 . S
C701 C700 1.377 . S
C701 C702 1.379 . S
C702 H686 0.931 . S
C702 C696 1.383 . S
C702 C701 1.379 . S
H703 C697 0.959 . S
H704 C697 0.961 . S
H705 C697 0.960 . S
H706 C698 0.930 . S
H707 C699 0.929 . S
H708 C716 0.929 . S
H709 C718 0.930 . S
H710 C720 0.930 . S
H711 C723 0.929 . S
H712 C726 0.930 . S
H713 C728 0.960 . S
H714 C728 0.960 . S
H715 C728 0.960 . S
C716 H708 0.929 . S
C716 C717 1.377 . S
C716 C718 1.384 . S
C717 C716 1.377 . S
C717 C723 1.390 . S
C718 H709 0.930 . S
C718 C716 1.384 . S
C718 C719 1.372 . S
C719 C718 1.372 . S
C719 C720 1.400 . S
C719 C724 1.490 . S
C720 H710 0.930 . S
C720 C719 1.400 . S
C720 C723 1.386 . S
H721 C737 0.930 . S
H722 C738 0.931 . S
C723 H711 0.929 . S
C723 C717 1.390 . S
C723 C720 1.386 . S
C724 C719 1.490 . S
C724 C726 1.395 . S
C724 C727 1.403 . S
H725 C731 0.930 . S
C726 H712 0.930 . S
C726 C724 1.395 . S
C726 C729 1.403 . S
C727 C724 1.403 . S
C727 C728 1.524 . S
C727 C731 1.400 . S
C728 H713 0.960 . S
C728 H714 0.960 . S
C728 H715 0.960 . S
C728 C727 1.524 . S
C729 C726 1.403 . S
C729 C730 1.392 . S
C729 C733 1.495 . S
C730 C729 1.392 . S
C730 C731 1.385 . S
C730 C732 1.478 . S
C731 H725 0.930 . S
C731 C727 1.400 . S
C731 C730 1.385 . S
C732 C730 1.478 . S
C732 C734 1.381 . S
C732 C738 1.383 . S
C733 C729 1.495 . S
C733 H739 0.959 . S
C733 H740 0.961 . S
C733 H741 0.960 . S
C734 C732 1.381 . S
C734 C735 1.394 . S
C734 H742 0.930 . S
C735 C734 1.394 . S
C735 C736 1.383 . S
C735 H743 0.929 . S
C736 C735 1.383 . S
C736 C737 1.377 . S
C737 H721 0.930 . S
C737 C736 1.377 . S
C737 C738 1.379 . S
C738 H722 0.931 . S
C738 C732 1.383 . S
C738 C737 1.379 . S
H739 C733 0.959 . S
H740 C733 0.961 . S
H741 C733 0.960 . S
H742 C734 0.930 . S
H743 C735 0.929 . S
H744 C752 0.929 . S
H745 C754 0.930 . S
H746 C756 0.930 . S
H747 C759 0.929 . S
H748 C762 0.930 . S
H749 C764 0.960 . S
H750 C764 0.960 . S
H751 C764 0.960 . S
C752 H744 0.929 . S
C752 C753 1.377 . S
C752 C754 1.384 . S
C753 C752 1.377 . S
C753 C759 1.390 . S
C754 H745 0.930 . S
C754 C752 1.384 . S
C754 C755 1.372 . S
C755 C754 1.372 . S
C755 C756 1.400 . S
C755 C760 1.490 . S
C756 H746 0.930 . S
C756 C755 1.400 . S
C756 C759 1.386 . S
H757 C773 0.930 . S
H758 C774 0.931 . S
C759 H747 0.929 . S
C759 C753 1.390 . S
C759 C756 1.386 . S
C760 C755 1.490 . S
C760 C762 1.395 . S
C760 C763 1.403 . S
H761 C767 0.930 . S
C762 H748 0.930 . S
C762 C760 1.395 . S
C762 C765 1.403 . S
C763 C760 1.403 . S
C763 C764 1.524 . S
C763 C767 1.400 . S
C764 H749 0.960 . S
C764 H750 0.960 . S
C764 H751 0.960 . S
C764 C763 1.524 . S
C765 C762 1.403 . S
C765 C766 1.392 . S
C765 C769 1.495 . S
C766 C765 1.392 . S
C766 C767 1.385 . S
C766 C768 1.478 . S
C767 H761 0.930 . S
C767 C763 1.400 . S
C767 C766 1.385 . S
C768 C766 1.478 . S
C768 C770 1.381 . S
C768 C774 1.383 . S
C769 C765 1.495 . S
C769 H775 0.959 . S
C769 H776 0.961 . S
C769 H777 0.960 . S
C770 C768 1.381 . S
C770 C771 1.394 . S
C770 H778 0.930 . S
C771 C770 1.394 . S
C771 C772 1.383 . S
C771 H779 0.929 . S
C772 C771 1.383 . S
C772 C773 1.377 . S
C773 H757 0.930 . S
C773 C772 1.377 . S
C773 C774 1.379 . S
C774 H758 0.931 . S
C774 C768 1.383 . S
C774 C773 1.379 . S
H775 C769 0.959 . S
H776 C769 0.961 . S
H777 C769 0.960 . S
H778 C770 0.930 . S
H779 C771 0.929 . S
H780 C788 0.929 . S
H781 C790 0.930 . S
H782 C792 0.930 . S
H783 C795 0.929 . S
H784 C798 0.930 . S
H785 C800 0.960 . S
H786 C800 0.960 . S
H787 C800 0.960 . S
C788 H780 0.929 . S
C788 C789 1.377 . S
C788 C790 1.384 . S
C789 C788 1.377 . S
C789 C795 1.390 . S
C790 H781 0.930 . S
C790 C788 1.384 . S
C790 C791 1.372 . S
C791 C790 1.372 . S
C791 C792 1.400 . S
C791 C796 1.490 . S
C792 H782 0.930 . S
C792 C791 1.400 . S
C792 C795 1.386 . S
H793 C809 0.930 . S
H794 C810 0.931 . S
C795 H783 0.929 . S
C795 C789 1.390 . S
C795 C792 1.386 . S
C796 C791 1.490 . S
C796 C798 1.395 . S
C796 C799 1.403 . S
H797 C803 0.930 . S
C798 H784 0.930 . S
C798 C796 1.395 . S
C798 C801 1.403 . S
C799 C796 1.403 . S
C799 C800 1.524 . S
C799 C803 1.400 . S
C800 H785 0.960 . S
C800 H786 0.960 . S
C800 H787 0.960 . S
C800 C799 1.524 . S
C801 C798 1.403 . S
C801 C802 1.392 . S
C801 C805 1.495 . S
C802 C801 1.392 . S
C802 C803 1.385 . S
C802 C804 1.478 . S
C803 H797 0.930 . S
C803 C799 1.400 . S
C803 C802 1.385 . S
C804 C802 1.478 . S
C804 C806 1.381 . S
C804 C810 1.383 . S
C805 C801 1.495 . S
C805 H811 0.959 . S
C805 H812 0.961 . S
C805 H813 0.960 . S
C806 C804 1.381 . S
C806 C807 1.394 . S
C806 H814 0.930 . S
C807 C806 1.394 . S
C807 C808 1.383 . S
C807 H815 0.929 . S
C808 C807 1.383 . S
C808 C809 1.377 . S
C809 H793 0.930 . S
C809 C808 1.377 . S
C809 C810 1.379 . S
C810 H794 0.931 . S
C810 C804 1.383 . S
C810 C809 1.379 . S
H811 C805 0.959 . S
H812 C805 0.961 . S
H813 C805 0.960 . S
H814 C806 0.930 . S
H815 C807 0.929 . S
H816 C824 0.929 . S
H817 C826 0.930 . S
H818 C828 0.930 . S
H819 C831 0.929 . S
H820 C834 0.930 . S
H821 C836 0.960 . S
H822 C836 0.960 . S
H823 C836 0.960 . S
C824 H816 0.929 . S
C824 C825 1.377 . S
C824 C826 1.384 . S
C825 C824 1.377 . S
C825 C831 1.390 . S
C826 H817 0.930 . S
C826 C824 1.384 . S
C826 C827 1.372 . S
C827 C826 1.372 . S
C827 C828 1.400 . S
C827 C832 1.490 . S
C828 H818 0.930 . S
C828 C827 1.400 . S
C828 C831 1.386 . S
H829 C845 0.930 . S
H830 C846 0.931 . S
C831 H819 0.929 . S
C831 C825 1.390 . S
C831 C828 1.386 . S
C832 C827 1.490 . S
C832 C834 1.395 . S
C832 C835 1.403 . S
H833 C839 0.930 . S
C834 H820 0.930 . S
C834 C832 1.395 . S
C834 C837 1.403 . S
C835 C832 1.403 . S
C835 C836 1.524 . S
C835 C839 1.400 . S
C836 H821 0.960 . S
C836 H822 0.960 . S
C836 H823 0.960 . S
C836 C835 1.524 . S
C837 C834 1.403 . S
C837 C838 1.392 . S
C837 C841 1.495 . S
C838 C837 1.392 . S
C838 C839 1.385 . S
C838 C840 1.478 . S
C839 H833 0.930 . S
C839 C835 1.400 . S
C839 C838 1.385 . S
C840 C838 1.478 . S
C840 C842 1.381 . S
C840 C846 1.383 . S
C841 C837 1.495 . S
C841 H847 0.959 . S
C841 H848 0.961 . S
C841 H849 0.960 . S
C842 C840 1.381 . S
C842 C843 1.394 . S
C842 H850 0.930 . S
C843 C842 1.394 . S
C843 C844 1.383 . S
C843 H851 0.929 . S
C844 C843 1.383 . S
C844 C845 1.377 . S
C845 H829 0.930 . S
C845 C844 1.377 . S
C845 C846 1.379 . S
C846 H830 0.931 . S
C846 C840 1.383 . S
C846 C845 1.379 . S
H847 C841 0.959 . S
H848 C841 0.961 . S
H849 C841 0.960 . S
H850 C842 0.930 . S
H851 C843 0.929 . S
H852 C860 0.929 . S
H853 C862 0.930 . S
H854 C864 0.930 . S
H855 C867 0.929 . S
H856 C870 0.930 . S
H857 C872 0.960 . S
H858 C872 0.960 . S
H859 C872 0.960 . S
C860 H852 0.929 . S
C860 C861 1.377 . S
C860 C862 1.384 . S
C861 C860 1.377 . S
C861 C867 1.390 . S
C862 H853 0.930 . S
C862 C860 1.384 . S
C862 C863 1.372 . S
C863 C862 1.372 . S
C863 C864 1.400 . S
C863 C868 1.490 . S
C864 H854 0.930 . S
C864 C863 1.400 . S
C864 C867 1.386 . S
H865 C881 0.930 . S
H866 C882 0.931 . S
C867 H855 0.929 . S
C867 C861 1.390 . S
C867 C864 1.386 . S
C868 C863 1.490 . S
C868 C870 1.395 . S
C868 C871 1.403 . S
H869 C875 0.930 . S
C870 H856 0.930 . S
C870 C868 1.395 . S
C870 C873 1.403 . S
C871 C868 1.403 . S
C871 C872 1.524 . S
C871 C875 1.400 . S
C872 H857 0.960 . S
C872 H858 0.960 . S
C872 H859 0.960 . S
C872 C871 1.524 . S
C873 C870 1.403 . S
C873 C874 1.392 . S
C873 C877 1.495 . S
C874 C873 1.392 . S
C874 C875 1.385 . S
C874 C876 1.478 . S
C875 H869 0.930 . S
C875 C871 1.400 . S
C875 C874 1.385 . S
C876 C874 1.478 . S
C876 C878 1.381 . S
C876 C882 1.383 . S
C877 C873 1.495 . S
C877 H883 0.959 . S
C877 H884 0.961 . S
C877 H885 0.960 . S
C878 C876 1.381 . S
C878 C879 1.394 . S
C878 H886 0.930 . S
C879 C878 1.394 . S
C879 C880 1.383 . S
C879 H887 0.929 . S
C880 C879 1.383 . S
C880 C881 1.377 . S
C881 H865 0.930 . S
C881 C880 1.377 . S
C881 C882 1.379 . S
C882 H866 0.931 . S
C882 C876 1.383 . S
C882 C881 1.379 . S
H883 C877 0.959 . S
H884 C877 0.961 . S
H885 C877 0.960 . S
H886 C878 0.930 . S
H887 C879 0.929 . S
H888 C896 0.929 . S
H889 C898 0.930 . S
H890 C900 0.930 . S
H891 C903 0.929 . S
H892 C906 0.930 . S
H893 C908 0.960 . S
H894 C908 0.960 . S
H895 C908 0.960 . S
C896 H888 0.929 . S
C896 C897 1.377 . S
C896 C898 1.384 . S
C897 C896 1.377 . S
C897 C903 1.390 . S
C898 H889 0.930 . S
C898 C896 1.384 . S
C898 C899 1.372 . S
C899 C898 1.372 . S
C899 C900 1.400 . S
C899 C904 1.490 . S
C900 H890 0.930 . S
C900 C899 1.400 . S
C900 C903 1.386 . S
H901 C917 0.930 . S
H902 C918 0.931 . S
C903 H891 0.929 . S
C903 C897 1.390 . S
C903 C900 1.386 . S
C904 C899 1.490 . S
C904 C906 1.395 . S
C904 C907 1.403 . S
H905 C911 0.930 . S
C906 H892 0.930 . S
C906 C904 1.395 . S
C906 C909 1.403 . S
C907 C904 1.403 . S
C907 C908 1.524 . S
C907 C911 1.400 . S
C908 H893 0.960 . S
C908 H894 0.960 . S
C908 H895 0.960 . S
C908 C907 1.524 . S
C909 C906 1.403 . S
C909 C910 1.392 . S
C909 C913 1.495 . S
C910 C909 1.392 . S
C910 C911 1.385 . S
C910 C912 1.478 . S
C911 H905 0.930 . S
C911 C907 1.400 . S
C911 C910 1.385 . S
C912 C910 1.478 . S
C912 C914 1.381 . S
C912 C918 1.383 . S
C913 C909 1.495 . S
C913 H919 0.959 . S
C913 H920 0.961 . S
C913 H921 0.960 . S
C914 C912 1.381 . S
C914 C915 1.394 . S
C914 H922 0.930 . S
C915 C914 1.394 . S
C915 C916 1.383 . S
C915 H923 0.929 . S
C916 C915 1.383 . S
C916 C917 1.377 . S
C917 H901 0.930 . S
C917 C916 1.377 . S
C917 C918 1.379 . S
C918 H902 0.931 . S
C918 C912 1.383 . S
C918 C917 1.379 . S
H919 C913 0.959 . S
H920 C913 0.961 . S
H921 C913 0.960 . S
H922 C914 0.930 . S
H923 C915 0.929 . S
H924 C932 0.929 . S
H925 C934 0.930 . S
H926 C936 0.930 . S
H927 C939 0.929 . S
H928 C942 0.930 . S
H929 C944 0.960 . S
H930 C944 0.960 . S
H931 C944 0.960 . S
C932 H924 0.929 . S
C932 C933 1.377 . S
C932 C934 1.384 . S
C933 C932 1.377 . S
C933 C939 1.390 . S
C934 H925 0.930 . S
C934 C932 1.384 . S
C934 C935 1.372 . S
C935 C934 1.372 . S
C935 C936 1.400 . S
C935 C940 1.490 . S
C936 H926 0.930 . S
C936 C935 1.400 . S
C936 C939 1.386 . S
H937 C953 0.930 . S
H938 C954 0.931 . S
C939 H927 0.929 . S
C939 C933 1.390 . S
C939 C936 1.386 . S
C940 C935 1.490 . S
C940 C942 1.395 . S
C940 C943 1.403 . S
H941 C947 0.930 . S
C942 H928 0.930 . S
C942 C940 1.395 . S
C942 C945 1.403 . S
C943 C940 1.403 . S
C943 C944 1.524 . S
C943 C947 1.400 . S
C944 H929 0.960 . S
C944 H930 0.960 . S
C944 H931 0.960 . S
C944 C943 1.524 . S
C945 C942 1.403 . S
C945 C946 1.392 . S
C945 C949 1.495 . S
C946 C945 1.392 . S
C946 C947 1.385 . S
C946 C948 1.478 . S
C947 H941 0.930 . S
C947 C943 1.400 . S
C947 C946 1.385 . S
C948 C946 1.478 . S
C948 C950 1.381 . S
C948 C954 1.383 . S
C949 C945 1.495 . S
C949 H955 0.959 . S
C949 H956 0.961 . S
C949 H957 0.960 . S
C950 C948 1.381 . S
C950 C951 1.394 . S
C950 H958 0.930 . S
C951 C950 1.394 . S
C951 C952 1.383 . S
C951 H959 0.929 . S
C952 C951 1.383 . S
C952 C953 1.377 . S
C953 H937 0.930 . S
C953 C952 1.377 . S
C953 C954 1.379 . S
C954 H938 0.931 . S
C954 C948 1.383 . S
C954 C953 1.379 . S
H955 C949 0.959 . S
H956 C949 0.961 . S
H957 C949 0.960 . S
H958 C950 0.930 . S
H959 C951 0.929 . S
H960 C968 0.929 . S
H961 C970 0.930 . S
H962 C972 0.930 . S
H963 C975 0.929 . S
H964 C978 0.930 . S
H965 C980 0.960 . S
H966 C980 0.960 . S
H967 C980 0.960 . S
C968 H960 0.929 . S
C968 C969 1.377 . S
C968 C970 1.384 . S
C969 C968 1.377 . S
C969 C975 1.390 . S
C970 H961 0.930 . S
C970 C968 1.384 . S
C970 C971 1.372 . S
C971 C970 1.372 . S
C971 C972 1.400 . S
C971 C976 1.490 . S
C972 H962 0.930 . S
C972 C971 1.400 . S
C972 C975 1.386 . S
H973 C989 0.930 . S
H974 C990 0.931 . S
C975 H963 0.929 . S
C975 C969 1.390 . S
C975 C972 1.386 . S
C976 C971 1.490 . S
C976 C978 1.395 . S
C976 C979 1.403 . S
H977 C983 0.930 . S
C978 H964 0.930 . S
C978 C976 1.395 . S
C978 C981 1.403 . S
C979 C976 1.403 . S
C979 C980 1.524 . S
C979 C983 1.400 . S
C980 H965 0.960 . S
C980 H966 0.960 . S
C980 H967 0.960 . S
C980 C979 1.524 . S
C981 C978 1.403 . S
C981 C982 1.392 . S
C981 C985 1.495 . S
C982 C981 1.392 . S
C982 C983 1.385 . S
C982 C984 1.478 . S
C983 H977 0.930 . S
C983 C979 1.400 . S
C983 C982 1.385 . S
C984 C982 1.478 . S
C984 C986 1.381 . S
C984 C990 1.383 . S
C985 C981 1.495 . S
C985 H991 0.959 . S
C985 H992 0.961 . S
C985 H993 0.960 . S
C986 C984 1.381 . S
C986 C987 1.394 . S
C986 H994 0.930 . S
C987 C986 1.394 . S
C987 C988 1.383 . S
C987 H995 0.929 . S
C988 C987 1.383 . S
C988 C989 1.377 . S
C989 H973 0.930 . S
C989 C988 1.377 . S
C989 C990 1.379 . S
C990 H974 0.931 . S
C990 C984 1.383 . S
C990 C989 1.379 . S
H991 C985 0.959 . S
H992 C985 0.961 . S
H993 C985 0.960 . S
H994 C986 0.930 . S
H995 C987 0.929 . S
H996 C1004 0.929 . S
H997 C1006 0.930 . S
H998 C1008 0.930 . S
H999 C1011 0.929 . S
H1000 C1014 0.930 . S
H1001 C1016 0.960 . S
H1002 C1016 0.960 . S
H1003 C1016 0.960 . S
C1004 H996 0.929 . S
C1004 C1005 1.377 . S
C1004 C1006 1.384 . S
C1005 C1004 1.377 . S
C1005 C1011 1.390 . S
C1006 H997 0.930 . S
C1006 C1004 1.384 . S
C1006 C1007 1.372 . S
C1007 C1006 1.372 . S
C1007 C1008 1.400 . S
C1007 C1012 1.490 . S
C1008 H998 0.930 . S
C1008 C1007 1.400 . S
C1008 C1011 1.386 . S
H1009 C1025 0.930 . S
H1010 C1026 0.931 . S
C1011 H999 0.929 . S
C1011 C1005 1.390 . S
C1011 C1008 1.386 . S
C1012 C1007 1.490 . S
C1012 C1014 1.395 . S
C1012 C1015 1.403 . S
H1013 C1019 0.930 . S
C1014 H1000 0.930 . S
C1014 C1012 1.395 . S
C1014 C1017 1.403 . S
C1015 C1012 1.403 . S
C1015 C1016 1.524 . S
C1015 C1019 1.400 . S
C1016 H1001 0.960 . S
C1016 H1002 0.960 . S
C1016 H1003 0.960 . S
C1016 C1015 1.524 . S
C1017 C1014 1.403 . S
C1017 C1018 1.392 . S
C1017 C1021 1.495 . S
C1018 C1017 1.392 . S
C1018 C1019 1.385 . S
C1018 C1020 1.478 . S
C1019 H1013 0.930 . S
C1019 C1015 1.400 . S
C1019 C1018 1.385 . S
C1020 C1018 1.478 . S
C1020 C1022 1.381 . S
C1020 C1026 1.383 . S
C1021 C1017 1.495 . S
C1021 H1027 0.959 . S
C1021 H1028 0.961 . S
C1021 H1029 0.960 . S
C1022 C1020 1.381 . S
C1022 C1023 1.394 . S
C1022 H1030 0.930 . S
C1023 C1022 1.394 . S
C1023 C1024 1.383 . S
C1023 H1031 0.929 . S
C1024 C1023 1.383 . S
C1024 C1025 1.377 . S
C1025 H1009 0.930 . S
C1025 C1024 1.377 . S
C1025 C1026 1.379 . S
C1026 H1010 0.931 . S
C1026 C1020 1.383 . S
C1026 C1025 1.379 . S
H1027 C1021 0.959 . S
H1028 C1021 0.961 . S
H1029 C1021 0.960 . S
H1030 C1022 0.930 . S
H1031 C1023 0.929 . S
C177 C120 1.345 . S
C196 C8 1.330 . S
C213 C22 1.347 . S
C232 C134 1.339 . S
C249 C36 1.347 . S
C268 C148 1.341 . S
C285 C50 1.350 . S
C304 C162 1.358 . S
C321 C92 1.346 . S
C340 C64 1.333 . S
C357 C78 1.345 . S
C376 C106 1.331 . S
C393 C7 1.479 . S
C412 C73 1.515 . S
C429 C21 1.481 . S
C448 C3 1.500 1_655 S
C465 C35 1.488 . S
C484 C17 1.485 1_565 S
C501 C31 1.504 . S
C520 C49 1.499 . S
C537 C45 1.506 1_455 S
C556 C63 1.488 . S
C573 C59 1.502 1_545 S
C592 C77 1.480 . S
C609 C101 1.504 . S
C628 C91 1.463 . S
C645 C105 1.487 . S
C664 C115 1.484 1_655 S
C681 C129 1.507 1_565 S
C700 C119 1.460 . S
C717 C133 1.480 . S
C736 C143 1.505 . S
C753 C147 1.489 . S
C772 C157 1.492 1_455 S
C789 C161 1.489 . S
C808 C87 1.493 1_545 S
C825 C149 1.199 . S
C844 C9 1.191 . S
C861 C163 1.205 . S
C880 C23 1.203 . S
C897 C93 1.205 . S
C916 C37 1.196 . S
C933 C51 1.201 . S
C952 C107 1.217 . S
C969 C65 1.200 . S
C988 C121 1.173 1_556 S
C1005 C135 1.202 . S
C1024 C79 1.167 1_554 S
