# Generated by pormake.
# Topology smc, (6)-cn, num edge types: 1
# Building blocks:
#     Node 0, Type 0, BuildingBlock: KUMBUR_clean_sbu_1, # of connection points: 6
#     Node 1, Type 0, BuildingBlock: KUMBUR_clean_sbu_1, # of connection points: 6
#     Node 2, Type 0, BuildingBlock: KUMBUR_clean_sbu_1, # of connection points: 6
#     Node 3, Type 0, BuildingBlock: KUMBUR_clean_sbu_1, # of connection points: 6
#     Node 4, Type 0, BuildingBlock: KUMBUR_clean_sbu_1, # of connection points: 6
#     Node 5, Type 0, BuildingBlock: KUMBUR_clean_sbu_1, # of connection points: 6
#     Node 6, Type 0, BuildingBlock: KUMBUR_clean_sbu_1, # of connection points: 6
#     Node 7, Type 0, BuildingBlock: KUMBUR_clean_sbu_1, # of connection points: 6
#     Node 8, Type 0, BuildingBlock: KUMBUR_clean_sbu_1, # of connection points: 6
#     Edge 9, Type (0, 0), BuildingBlock: UVAHIK_clean_linker_0, # of connection points: 2
#     Edge 10, Type (0, 0), BuildingBlock: UVAHIK_clean_linker_0, # of connection points: 2
#     Edge 11, Type (0, 0), BuildingBlock: UVAHIK_clean_linker_0, # of connection points: 2
#     Edge 12, Type (0, 0), BuildingBlock: UVAHIK_clean_linker_0, # of connection points: 2
#     Edge 13, Type (0, 0), BuildingBlock: UVAHIK_clean_linker_0, # of connection points: 2
#     Edge 14, Type (0, 0), BuildingBlock: UVAHIK_clean_linker_0, # of connection points: 2
#     Edge 15, Type (0, 0), BuildingBlock: UVAHIK_clean_linker_0, # of connection points: 2
#     Edge 16, Type (0, 0), BuildingBlock: UVAHIK_clean_linker_0, # of connection points: 2
#     Edge 17, Type (0, 0), BuildingBlock: UVAHIK_clean_linker_0, # of connection points: 2
#     Edge 18, Type (0, 0), BuildingBlock: UVAHIK_clean_linker_0, # of connection points: 2
#     Edge 19, Type (0, 0), BuildingBlock: UVAHIK_clean_linker_0, # of connection points: 2
#     Edge 20, Type (0, 0), BuildingBlock: UVAHIK_clean_linker_0, # of connection points: 2
#     Edge 21, Type (0, 0), BuildingBlock: UVAHIK_clean_linker_0, # of connection points: 2
#     Edge 22, Type (0, 0), BuildingBlock: UVAHIK_clean_linker_0, # of connection points: 2
#     Edge 23, Type (0, 0), BuildingBlock: UVAHIK_clean_linker_0, # of connection points: 2
#     Edge 24, Type (0, 0), BuildingBlock: UVAHIK_clean_linker_0, # of connection points: 2
#     Edge 25, Type (0, 0), BuildingBlock: UVAHIK_clean_linker_0, # of connection points: 2
#     Edge 26, Type (0, 0), BuildingBlock: UVAHIK_clean_linker_0, # of connection points: 2
#     Edge 27, Type (0, 0), BuildingBlock: UVAHIK_clean_linker_0, # of connection points: 2
#     Edge 28, Type (0, 0), BuildingBlock: UVAHIK_clean_linker_0, # of connection points: 2
#     Edge 29, Type (0, 0), BuildingBlock: UVAHIK_clean_linker_0, # of connection points: 2
#     Edge 30, Type (0, 0), BuildingBlock: UVAHIK_clean_linker_0, # of connection points: 2
#     Edge 31, Type (0, 0), BuildingBlock: UVAHIK_clean_linker_0, # of connection points: 2
#     Edge 32, Type (0, 0), BuildingBlock: UVAHIK_clean_linker_0, # of connection points: 2
#     Edge 33, Type (0, 0), BuildingBlock: UVAHIK_clean_linker_0, # of connection points: 2
#     Edge 34, Type (0, 0), BuildingBlock: UVAHIK_clean_linker_0, # of connection points: 2
#     Edge 35, Type (0, 0), BuildingBlock: UVAHIK_clean_linker_0, # of connection points: 2
# Relax obj value: 0.161
# Max RMSD: 0.301
# Mean RMSD: 0.301
data_MOF--net-smc--node1-KUMBUR_clean_sbu_1--edge1-UVAHIK_clean_linker_0
_symmetry_space_group_name_H-M    P1
_symmetry_Int_Tables_number       1
_symmetry_cell_setting            triclinic
loop_
_symmetry_equiv_pos_as_xyz
'x, y, z'
_cell_length_a     46.647472
_cell_length_b     46.698358
_cell_length_c     52.573093
_cell_angle_alpha  89.964577
_cell_angle_beta   89.938072
_cell_angle_gamma 120.08758
loop_
_atom_site_label
_atom_site_type_symbol
_atom_site_fract_x
_atom_site_fract_y
_atom_site_fract_z
_atom_type_partial_charge
Tb0 Tb 0.04893 0.42184 0.01469 0.0
C1 C 0.03953 0.54442 0.0288 0.0
N2 N 0.02692 0.51569 0.04237 0.0
C3 C 0.05041 0.54706 0.08059 0.0
C4 C 0.05896 0.57548 0.04056 0.0
C5 C 0.03068 0.5169 0.06824 0.0
C6 C 0.06496 0.57645 0.06667 0.0
C7 C 0.04492 0.57189 0.9883 0.0
C8 C 0.03279 0.54278 1.00294 0.0
C9 C 0.06423 0.6028 1.0 0.0
C10 C 0.07143 0.60458 0.02601 0.0
Tb11 Tb 0.99468 0.46865 0.01896 0.0
N12 N 0.01532 0.51247 0.99194 0.0
C13 C 0.03774 0.56897 0.96226 0.0
C14 C 1.00728 0.5094 0.96675 0.0
C15 C 0.01871 0.5376 0.95147 0.0
H16 H 0.01776 0.49514 0.0799 0.0
H17 H 0.01269 0.53513 0.93142 0.0
H18 H 1.01129 0.36637 0.96955 0.0
H19 H 0.09436 0.40928 0.10605 0.0
H20 H 0.99202 0.48522 0.95846 0.0
H21 H 0.04667 0.59075 0.95035 0.0
H22 H 0.09341 0.43912 0.06743 0.0
H23 H 0.05373 0.54767 0.101 0.0
H24 H 0.07403 0.62545 0.98904 0.0
H25 H 0.08653 0.62861 0.03473 0.0
H26 H 0.97811 0.30525 0.96601 0.0
H27 H 0.07994 0.59979 0.07637 0.0
H28 H 0.0565 0.34881 0.10963 0.0
N29 N 0.01979 0.36569 1.00918 0.0
C30 C 0.01714 0.34694 0.02967 0.0
C31 C 0.98874 0.31668 0.9841 0.0
C32 C 0.99879 0.31214 0.02866 0.0
C33 C 1.00752 0.35118 0.9861 0.0
C34 C 0.98386 0.29706 1.0056 0.0
N35 N 0.05404 0.39629 0.05015 0.0
C36 C 0.07636 0.41281 0.06905 0.0
C37 C 0.03474 0.34471 0.07248 0.0
C38 C 0.03473 0.36293 0.05112 0.0
C39 C 0.05573 0.36182 0.09282 0.0
C40 C 0.07717 0.39596 0.09084 0.0
H41 H 0.96948 0.27035 1.00399 0.0
H42 H 0.9827 0.26694 0.05014 0.0
H43 H 0.01428 0.29553 0.08862 0.0
O44 O 0.09639 0.42611 0.01538 0.0
O45 O 0.99405 0.39016 0.01435 0.0
O46 O 0.97223 0.41892 0.03518 0.0
O47 O 0.07305 0.42518 0.98022 0.0
O48 O 0.05235 0.45258 0.04728 0.0
O49 O 1.00184 0.44805 0.05516 0.0
O50 O 0.94898 0.45785 1.00277 0.0
O51 O 0.04281 0.48984 0.99917 0.0
O52 O 0.0731 0.47473 0.0239 0.0
O53 O 0.96658 0.48695 0.03667 0.0
O54 O 0.98368 0.43591 0.98535 0.0
O55 O 0.03343 0.43691 0.98021 0.0
C56 C 0.96921 0.39183 0.02495 0.0
C57 C 0.13054 0.4624 0.98275 0.0
C58 C 0.19073 0.49631 0.97779 0.0
C59 C 0.18649 0.52085 0.96583 0.0
C60 C 0.12717 0.48753 0.97076 0.0
C61 C 0.15495 0.51652 0.96251 0.0
C62 C 0.16259 0.46712 0.98651 0.0
C63 C 0.02808 0.44654 0.06293 0.0
C64 C 0.1006 0.4315 0.99107 0.0
C65 C 0.997 0.29373 0.05037 0.0
C66 C 0.01495 0.31001 0.07229 0.0
C67 C 0.07091 0.49697 1.01005 0.0
C68 C 0.90894 0.45978 0.02957 0.0
C69 C 0.85974 0.46494 0.03613 0.0
C70 C 0.84331 0.43278 0.0464 0.0
C71 C 0.89238 0.42809 0.04038 0.0
C72 C 0.89272 0.4783 0.02779 0.0
C73 C 0.85963 0.41463 0.04865 0.0
C74 C 1.00341 0.42841 0.97229 0.0
C75 C 0.94306 0.47426 0.01994 0.0
H76 H 0.20772 0.54361 0.95925 0.0
H77 H 0.103 0.48481 0.9676 0.0
H78 H 0.15199 0.53568 0.9534 0.0
H79 H 0.16557 0.448 0.99572 0.0
H80 H 0.81795 0.42184 0.053 0.0
H81 H 0.90474 0.41385 0.04243 0.0
H82 H 0.90558 0.50287 0.01948 0.0
H83 H 0.84684 0.39004 0.05683 0.0
Tb84 Tb 0.60845 0.63864 1.0052 0.0
C85 C 0.4817 0.51356 0.03085 0.0
N86 N 0.50976 0.52839 0.04501 0.0
C87 C 0.47794 0.52136 0.08269 0.0
C88 C 0.45047 0.50281 0.04205 0.0
C89 C 0.50836 0.53159 0.07072 0.0
C90 C 0.44887 0.50706 0.06828 0.0
C91 C 0.45587 0.49489 0.98962 0.0
C92 C 0.48451 0.50961 1.00499 0.0
C93 C 0.42472 0.48468 1.00058 0.0
C94 C 0.422 0.48831 0.02677 0.0
Tb95 Tb 0.55759 0.54179 0.0243 0.0
N96 N 0.51509 0.51937 0.9951 0.0
C97 C 0.45926 0.49003 0.96383 0.0
C98 C 0.51786 0.51191 0.97035 0.0
C99 C 0.4903 0.49812 0.95426 0.0
H100 H 0.53072 0.54207 0.08196 0.0
H101 H 0.49291 0.49295 0.93459 0.0
H102 H 0.6051 0.64677 0.94267 0.0
H103 H 0.7122 0.70291 0.06892 0.0
H104 H 0.54074 0.51521 0.96276 0.0
H105 H 0.4379 0.47891 0.95137 0.0
H106 H 0.6529 0.67321 0.05701 0.0
H107 H 0.4769 0.52433 0.10303 0.0
H108 H 0.4025 0.47339 0.98905 0.0
H109 H 0.39775 0.47972 0.03505 0.0
H110 H 0.64411 0.66489 0.90637 0.0
H111 H 0.42533 0.49919 0.07759 0.0
H112 H 0.75508 0.71531 0.03616 0.0
N113 N 0.642 0.65558 0.97018 0.0
C114 C 0.67493 0.66956 0.97481 0.0
C115 C 0.65304 0.6658 0.92551 0.0
C116 C 0.69817 0.68047 0.95479 0.0
C117 C 0.63097 0.65528 0.94608 0.0
C118 C 0.68668 0.67758 0.92982 0.0
N119 N 0.6623 0.6676 0.01825 0.0
C120 C 0.67147 0.67837 0.04267 0.0
C121 C 0.71956 0.69316 1.00557 0.0
C122 C 0.68551 0.67606 0.99977 0.0
C123 C 0.72914 0.70211 0.03089 0.0
C124 C 0.705 0.69522 0.04944 0.0
H125 H 0.70371 0.68582 0.91387 0.0
H126 H 0.75037 0.70373 0.94532 0.0
H127 H 0.76912 0.7147 0.98987 0.0
O128 O 0.58612 0.66366 0.02219 0.0
O129 O 0.63701 0.61688 0.02271 0.0
O130 O 0.60844 0.56128 0.01209 0.0
O131 O 0.61971 0.68536 0.99107 0.0
O132 O 0.59411 0.62788 0.04518 0.0
O133 O 0.58453 0.57522 0.05662 0.0
O134 O 0.53784 0.49034 0.02063 0.0
O135 O 0.53855 0.57583 0.02946 0.0
O136 O 0.55728 0.60539 0.99331 0.0
O137 O 0.56638 0.51613 0.05338 0.0
O138 O 0.58438 0.55454 0.98706 0.0
O139 O 0.58286 0.60124 0.97564 0.0
C140 C 0.63586 0.58841 0.01836 0.0
C141 C 0.57232 0.6907 0.99075 0.0
C142 C 0.54118 0.7191 0.9823 0.0
C143 C 0.52431 0.69638 0.96262 0.0
C144 C 0.55555 0.66897 0.97058 0.0
C145 C 0.53149 0.67157 0.95685 0.0
C146 C 0.56495 0.71578 0.99671 0.0
C147 C 0.59127 0.60577 0.06221 0.0
C148 C 0.59748 0.68682 1.00499 0.0
C149 C 0.73213 0.6956 0.96044 0.0
C150 C 0.74281 0.70191 0.98581 0.0
C151 C 0.53393 0.59099 1.0104 0.0
C152 C 0.56839 0.46863 0.03984 0.0
C153 C 0.56541 0.41488 0.03566 0.0
C154 C 0.60031 0.4314 0.03637 0.0
C155 C 0.60309 0.48439 0.04029 0.0
C156 C 0.54965 0.43389 0.03755 0.0
C157 C 0.61888 0.46581 0.03858 0.0
C158 C 0.58908 0.57752 0.97008 0.0
C159 C 0.55129 0.48793 0.04148 0.0
H160 H 0.50544 0.6978 0.95162 0.0
H161 H 0.56118 0.65001 0.96523 0.0
H162 H 0.51851 0.65442 0.94154 0.0
H163 H 0.57811 0.73296 0.012 0.0
H164 H 0.61336 0.4177 0.03549 0.0
H165 H 0.61799 0.51102 0.04204 0.0
H166 H 0.52286 0.42181 0.03683 0.0
H167 H 0.64567 0.47813 0.03905 0.0
Tb168 Tb 0.39197 0.98757 0.99719 0.0
C169 C 0.51681 0.98635 0.02074 0.0
N170 N 0.50458 1.00016 0.03697 0.0
C171 C 0.51413 0.97371 0.07238 0.0
C172 C 0.52749 0.96479 0.02971 0.0
C173 C 0.50386 0.99496 0.06257 0.0
C174 C 0.52582 0.95839 0.05586 0.0
C175 C 0.53118 0.97992 0.97769 0.0
C176 C 0.51844 0.99383 0.99505 0.0
C177 C 0.54101 0.9577 0.98641 0.0
C178 C 0.53935 0.95031 0.01237 0.0
Tb179 Tb 0.48973 0.03529 0.01962 0.0
N180 N 0.50898 0.01576 0.98731 0.0
C181 C 0.53472 0.98958 0.9522 0.0
C182 C 0.5161 0.02788 0.96295 0.0
C183 C 0.52781 0.01417 0.94494 0.0
H184 H 0.49515 1.00706 0.07537 0.0
H185 H 0.53245 0.02334 0.92558 0.0
H186 H 0.39504 0.96052 0.94017 0.0
H187 H 0.3171 0.03629 0.03444 0.0
H188 H 0.51427 0.04897 0.95709 0.0
H189 H 0.54431 0.97941 0.93827 0.0
H190 H 0.35191 0.01018 0.03704 0.0
H191 H 0.51311 0.96922 0.09264 0.0
H192 H 0.55058 0.94662 0.9733 0.0
H193 H 0.54754 0.93356 0.01886 0.0
H194 H 0.37707 0.96412 0.89649 0.0
H195 H 0.53366 0.94186 0.06349 0.0
H196 H 0.30285 0.04965 0.9924 0.0
N197 N 0.37608 0.98926 0.95652 0.0
C198 C 0.35854 1.00481 0.95278 0.0
C199 C 0.37187 0.97586 0.91215 0.0
C200 C 0.3478 0.00757 0.92836 0.0
C201 C 0.38212 0.97398 0.93682 0.0
C202 C 0.35497 0.99309 0.90785 0.0
N203 N 0.35824 0.01005 0.99698 0.0
C204 C 0.34581 0.016 0.01865 0.0
C205 C 0.32934 0.03027 0.97134 0.0
C206 C 0.34937 0.01577 0.97385 0.0
C207 C 0.31828 0.03843 0.99346 0.0
C208 C 0.32618 0.03082 0.01723 0.0
H209 H 0.34686 0.99434 0.8888 0.0
H210 H 0.32117 0.02641 0.90678 0.0
H211 H 0.305 0.0464 0.94453 0.0
O212 O 0.37179 0.94654 0.02216 0.0
O213 O 0.41013 0.03949 1.00953 0.0
O214 O 0.46782 0.06677 0.01682 0.0
O215 O 0.34887 0.94411 0.9862 0.0
O216 O 0.40054 0.99712 0.03788 0.0
O217 O 0.45578 0.02274 0.05258 0.0
O218 O 0.54116 0.06706 0.015 0.0
O219 O 0.454 0.98264 0.02617 0.0
O220 O 0.42675 0.97048 0.98879 0.0
O221 O 0.51711 0.0679 0.04933 0.0
O222 O 0.47766 0.05357 0.98454 0.0
O223 O 0.43527 1.00374 0.97324 0.0
C224 C 0.43916 0.06599 0.01492 0.0
C225 C 0.31435 0.9077 0.01806 0.0
C226 C 0.26709 0.8522 0.02621 0.0
C227 C 0.24908 0.86716 0.03492 0.0
C228 C 0.29605 0.92184 0.02713 0.0
C229 C 0.2636 0.90161 0.0356 0.0
C230 C 0.30007 0.87306 0.01801 0.0
C231 C 0.42315 0.00845 0.0561 0.0
C232 C 0.34746 0.92822 1.00688 0.0
C233 C 0.32929 0.02358 0.92544 0.0
C234 C 0.3201 0.03497 0.94693 0.0
C235 C 0.43906 0.96173 1.00761 0.0
C236 C 0.56424 0.11822 0.03612 0.0
C237 C 0.61815 0.16934 0.0328 0.0
C238 C 0.60161 0.18758 0.0342 0.0
C239 C 0.54848 0.13708 0.03718 0.0
C240 C 0.59907 0.13445 0.03394 0.0
C241 C 0.56714 0.17154 0.03632 0.0
C242 C 0.45419 0.03512 0.96825 0.0
C243 C 0.54477 0.08168 0.03666 0.0
H244 H 0.22346 0.8524 0.04076 0.0
H245 H 0.3066 0.94839 0.02724 0.0
H246 H 0.2494 0.91265 0.0423 0.0
H247 H 0.31481 0.86256 1.01137 0.0
H248 H 0.61534 0.21437 0.03389 0.0
H249 H 0.52177 0.1252 0.0387 0.0
H250 H 0.61116 0.11983 0.03266 0.0
H251 H 0.55482 0.18592 0.03731 0.0
Tb252 Tb 0.71288 0.75597 0.35542 0.0
C253 C 0.70187 0.87729 0.36594 0.0
N254 N 0.68849 0.84868 0.37973 0.0
C255 C 0.70976 0.88049 0.41809 0.0
C256 C 0.72074 0.90847 0.37767 0.0
C257 C 0.69059 0.85022 0.40573 0.0
C258 C 0.7253 0.90971 0.40399 0.0
C259 C 0.70896 0.90437 0.32503 0.0
C260 C 0.69624 0.8754 0.33991 0.0
C261 C 0.72789 0.93539 0.33665 0.0
C262 C 0.73394 0.93742 0.36287 0.0
Tb263 Tb 0.65756 0.80132 0.35626 0.0
N264 N 0.67904 0.845 0.32905 0.0
C265 C 0.70265 0.9012 0.29884 0.0
C266 C 0.67175 0.8417 0.3037 0.0
C267 C 0.68381 0.86973 0.28817 0.0
H268 H 0.6767 0.82867 0.41742 0.0
H269 H 0.67842 0.86708 0.26801 0.0
H270 H 0.68476 0.70689 0.30555 0.0
H271 H 0.73973 0.73138 0.45032 0.0
H272 H 0.65666 0.81744 0.29549 0.0
H273 H 0.71207 0.92286 0.28674 0.0
H274 H 0.74618 0.7662 0.4129 0.0
H275 H 0.71182 0.88133 0.43862 0.0
H276 H 0.73816 0.95793 0.32551 0.0
H277 H 0.74865 0.96153 0.37156 0.0
H278 H 0.65321 0.64669 0.29696 0.0
H279 H 0.7398 0.93314 0.41368 0.0
H280 H 0.70248 0.67073 0.44818 0.0
N281 N 0.68589 0.70099 0.34547 0.0
C282 C 0.67968 0.67962 0.36494 0.0
C283 C 0.66021 0.65561 0.31623 0.0
C284 C 0.66222 0.64515 0.36107 0.0
C285 C 0.67784 0.68965 0.3211 0.0
C286 C 0.65191 0.63322 0.33637 0.0
N287 N 0.71067 0.72607 0.39067 0.0
C288 C 0.72887 0.73993 0.41213 0.0
C289 C 0.68837 0.67167 0.40909 0.0
C290 C 0.69227 0.69268 0.38851 0.0
C291 C 0.70471 0.68596 0.4319 0.0
C292 C 0.72569 0.72021 0.43321 0.0
H293 H 0.63841 0.60688 0.33256 0.0
H294 H 0.64287 0.59731 0.37934 0.0
H295 H 0.66599 0.62058 0.42145 0.0
O296 O 0.75752 0.75639 0.36182 0.0
O297 O 0.65829 0.72367 0.35262 0.0
O298 O 0.63534 0.75174 0.3728 0.0
O299 O 0.74711 0.76928 0.32515 0.0
O300 O 0.71412 0.78637 0.3876 0.0
O301 O 0.66311 0.78156 0.39347 0.0
O302 O 0.61223 0.78896 0.33854 0.0
O303 O 0.70584 0.8218 0.33692 0.0
O304 O 0.73435 0.8084 0.36457 0.0
O305 O 0.62812 0.81951 0.37173 0.0
O306 O 0.64911 0.76874 0.3231 0.0
O307 O 0.69832 0.76743 0.31861 0.0
C308 C 0.63296 0.72481 0.36277 0.0
C309 C 0.78781 0.75267 0.32742 0.0
C310 C 0.84237 0.75896 0.31943 0.0
C311 C 0.82673 0.72722 0.30844 0.0
C312 C 0.77264 0.72114 0.31641 0.0
C313 C 0.79212 0.70858 0.30687 0.0
C314 C 0.82255 0.77147 0.32877 0.0
C315 C 0.68923 0.78074 0.40246 0.0
C316 C 0.76859 0.76633 0.33901 0.0
C317 C 0.65651 0.62393 0.38181 0.0
C318 C 0.66961 0.63718 0.4058 0.0
C319 C 0.73354 0.82953 0.34866 0.0
C320 C 0.57073 0.79108 0.36336 0.0
C321 C 0.5207 0.79541 0.36775 0.0
C322 C 0.50464 0.76386 0.37912 0.0
C323 C 0.55443 0.76 0.37517 0.0
C324 C 0.55393 0.80885 0.35992 0.0
C325 C 0.52146 0.74642 0.38287 0.0
C326 C 0.66917 0.76158 0.31009 0.0
C327 C 0.60525 0.80576 0.35458 0.0
H328 H 0.84125 0.71692 0.30091 0.0
H329 H 0.74592 0.70624 0.31543 0.0
H330 H 0.78037 0.6842 0.29837 0.0
H331 H 0.83412 0.7956 0.33778 0.0
H332 H 0.4792 0.75287 0.38551 0.0
H333 H 0.5672 0.74636 0.37847 0.0
H334 H 0.56662 0.83294 0.35083 0.0
H335 H 0.50891 0.72232 0.39188 0.0
Tb336 Tb 0.26858 0.9738 0.35201 0.0
C337 C 0.14818 0.84192 0.35913 0.0
N338 N 0.1765 0.85689 0.37326 0.0
C339 C 0.14379 0.8449 0.41135 0.0
C340 C 0.11669 0.82887 0.37059 0.0
C341 C 0.1744 0.85674 0.39925 0.0
C342 C 0.11484 0.83127 0.39696 0.0
C343 C 0.122 0.82335 0.31779 0.0
C344 C 0.15066 0.83906 0.33303 0.0
C345 C 0.09069 0.81061 0.32915 0.0
C346 C 0.08805 0.81334 0.35547 0.0
Tb347 Tb 0.22432 0.87354 0.35026 0.0
N348 N 0.18132 0.85242 0.32248 0.0
C349 C 0.12573 0.8211 0.29156 0.0
C350 C 0.18515 0.84918 0.29709 0.0
C351 C 0.15744 0.83391 0.28119 0.0
H352 H 0.19574 0.86431 0.41113 0.0
H353 H 0.16053 0.8318 0.261 0.0
H354 H 0.32216 0.99724 0.30451 0.0
H355 H 0.28365 0.02359 0.44693 0.0
H356 H 0.20957 0.8584 0.2891 0.0
H357 H 0.10431 0.8093 0.2792 0.0
H358 H 0.25236 0.99453 0.40831 0.0
H359 H 0.14249 0.84548 0.43189 0.0
H360 H 0.06836 0.79859 0.31776 0.0
H361 H 0.0637 0.80308 0.36398 0.0
H362 H 0.38307 0.02788 0.29899 0.0
H363 H 0.09114 0.82172 0.40645 0.0
H364 H 0.34463 0.04869 0.44788 0.0
N365 N 0.32435 1.00331 0.34463 0.0
C366 C 0.34383 0.01834 0.36507 0.0
C367 C 0.37236 0.02514 0.31774 0.0
C368 C 0.3786 0.03639 0.36291 0.0
C369 C 0.33793 0.00774 0.32088 0.0
C370 C 0.39283 0.0391 0.33891 0.0
N371 N 0.29498 1.0013 0.38831 0.0
C372 C 0.27889 1.00471 0.40879 0.0
C373 C 0.34752 0.0343 0.40922 0.0
C374 C 0.32854 0.01706 0.38783 0.0
C375 C 0.33099 0.03563 0.43103 0.0
C376 C 0.29657 0.02147 0.43057 0.0
H377 H 0.41948 0.05275 0.33642 0.0
H378 H 0.42462 0.06567 0.38338 0.0
H379 H 0.39736 0.064 0.42399 0.0
O380 O 0.26911 0.01876 0.35705 0.0
O381 O 0.3018 0.95254 0.3486 0.0
O382 O 0.27372 0.90036 0.36703 0.0
O383 O 0.25305 0.99249 0.32172 0.0
O384 O 0.23782 0.94288 0.38349 0.0
O385 O 0.24403 0.89751 0.38782 0.0
O386 O 0.23694 0.84067 0.33273 0.0
O387 O 0.20509 0.90234 0.33104 0.0
O388 O 0.21582 0.94188 0.36023 0.0
O389 O 0.20449 0.82537 0.36494 0.0
O390 O 0.25733 0.89848 0.31727 0.0
O391 O 0.26088 0.9503 0.31441 0.0
C392 C 0.30069 0.92547 0.35745 0.0
C393 C 0.27108 0.05004 0.32119 0.0
C394 C 0.2653 0.09779 0.3101 0.0
C395 C 0.2965 0.11232 0.29816 0.0
C396 C 0.30204 0.06481 0.30913 0.0
C397 C 0.31459 0.09581 0.29759 0.0
C398 C 0.25275 0.06645 0.32147 0.0
C399 C 0.24466 0.92396 0.39758 0.0
C400 C 0.25751 0.0182 0.33455 0.0
C401 C 0.39782 0.05193 0.38454 0.0
C402 C 0.38229 0.05092 0.40768 0.0
C403 C 0.19598 0.92092 0.34319 0.0
C404 C 0.23329 0.79679 0.35813 0.0
C405 C 0.2274 0.74224 0.36487 0.0
C406 C 0.25891 0.75765 0.37626 0.0
C407 C 0.26422 0.81161 0.37018 0.0
C408 C 0.21478 0.76211 0.35582 0.0
C409 C 0.27704 0.79208 0.37901 0.0
C410 C 0.26547 0.92654 0.30508 0.0
C411 C 0.21919 0.81661 0.34838 0.0
H412 H 0.30679 0.13634 0.28912 0.0
H413 H 0.3165 0.05258 0.3088 0.0
H414 H 0.33854 0.1072 0.28831 0.0
H415 H 0.22902 0.05515 0.33117 0.0
H416 H 0.26926 0.74301 0.38342 0.0
H417 H 0.27827 0.83812 0.37288 0.0
H418 H 0.1907 0.75062 0.34672 0.0
H419 H 0.30105 0.80364 0.38814 0.0
Tb420 Tb 0.05945 0.3185 0.33399 0.0
C421 C 0.18648 0.32105 0.36029 0.0
N422 N 0.16995 0.3324 0.3745 0.0
C423 C 0.17685 0.30694 0.41177 0.0
C424 C 0.19837 0.30149 0.3713 0.0
C425 C 0.16575 0.3265 0.40005 0.0
C426 C 0.19315 0.29429 0.39733 0.0
C427 C 0.20774 0.31696 0.3192 0.0
C428 C 0.19115 0.32888 0.33457 0.0
C429 C 0.21938 0.29719 0.33003 0.0
C430 C 0.21504 0.28981 0.35606 0.0
Tb431 Tb 0.15625 0.36679 0.35432 0.0
N432 N 0.1801 0.34868 0.32481 0.0
C433 C 0.21284 0.32587 0.29353 0.0
C434 C 0.18752 0.35946 0.30016 0.0
C435 C 0.20303 0.34751 0.28406 0.0
H436 H 0.15388 0.33692 0.41136 0.0
H437 H 0.20823 0.35574 0.26448 0.0
H438 H 0.05443 0.30492 0.27195 0.0
H439 H 0.9905 0.35624 0.39409 0.0
H440 H 0.18294 0.37822 0.29265 0.0
H441 H 0.22531 0.31709 0.28107 0.0
H442 H 0.0239 0.3298 0.3844 0.0
H443 H 0.17311 0.3019 0.43197 0.0
H444 H 0.23219 0.28788 0.31851 0.0
H445 H 0.22476 0.27512 0.36423 0.0
H446 H 0.03414 0.32097 0.23414 0.0
H447 H 0.20181 0.27923 0.40647 0.0
H448 H 0.97488 0.38174 0.35945 0.0
N449 N 0.04119 0.33135 0.29784 0.0
C450 C 0.02508 0.34848 0.30109 0.0
C451 C 0.0318 0.32925 0.25284 0.0
C452 C 0.01295 0.35808 0.28017 0.0
C453 C 0.04349 0.32043 0.27424 0.0
C454 C 0.01718 0.34885 0.25574 0.0
N455 N 0.02822 0.3417 0.345 0.0
C456 C 0.0173 0.34109 0.36927 0.0
C457 C 0.99897 0.36875 0.33011 0.0
C458 C 0.01813 0.35367 0.3256 0.0
C459 C 0.98968 0.3704 0.35517 0.0
C460 C 0.99839 0.35597 0.37478 0.0
H461 H 1.00818 0.35565 0.23913 0.0
H462 H 0.98639 0.38298 0.26863 0.0
H463 H 0.97414 0.39237 0.31244 0.0
O464 O 0.03428 0.27335 0.35419 0.0
O465 O 0.07888 0.36906 0.35051 0.0
O466 O 0.13591 0.39784 0.34377 0.0
O467 O 0.01647 0.27915 0.31807 0.0
O468 O 0.07016 0.31528 0.37404 0.0
O469 O 0.122 0.35928 0.3863 0.0
O470 O 0.20757 0.39965 0.35068 0.0
O471 O 0.12266 0.3132 0.35831 0.0
O472 O 0.09318 0.30126 0.32193 0.0
O473 O 0.18159 0.40019 0.38411 0.0
O474 O 0.14373 0.38192 0.31765 0.0
O475 O 0.09893 0.33282 0.30574 0.0
C476 C 0.10772 0.39688 0.34852 0.0
C477 C 0.9768 0.23964 0.34596 0.0
C478 C 0.92874 0.18481 0.35422 0.0
C479 C 0.90958 0.20005 0.35833 0.0
C480 C 0.95722 0.25414 0.35018 0.0
C481 C 0.92384 0.2344 0.35654 0.0
C482 C 0.96267 0.20518 0.34837 0.0
C483 C 0.09156 0.33477 0.39135 0.0
C484 C 1.01125 0.25939 0.33706 0.0
C485 C 0.99558 0.37502 0.28445 0.0
C486 C 0.98859 0.38035 0.3094 0.0
C487 C 0.10884 0.29362 0.33886 0.0
C488 C 0.22882 0.45087 0.37147 0.0
C489 C 0.28247 0.50225 0.36835 0.0
C490 C 0.26567 0.52024 0.36964 0.0
C491 C 0.21276 0.46944 0.37254 0.0
C492 C 0.26364 0.46736 0.36939 0.0
C493 C 0.23116 0.50393 0.37166 0.0
C494 C 0.12097 0.36361 0.30063 0.0
C495 C 0.2098 0.41434 0.3721 0.0
H496 H 0.88331 0.18549 0.36228 0.0
H497 H 0.96749 0.28054 0.34801 0.0
H498 H 0.90873 0.24568 0.35954 0.0
H499 H 0.97822 0.19437 0.34533 0.0
H500 H 0.27921 0.54704 0.36935 0.0
H501 H 0.18605 0.45732 0.3741 0.0
H502 H 0.27593 0.45293 0.36815 0.0
H503 H 0.21861 0.51811 0.37259 0.0
Tb504 Tb 0.37907 0.08595 0.68184 0.0
C505 C 0.37278 0.21061 0.69323 0.0
N506 N 0.35981 0.18224 0.70729 0.0
C507 C 0.38406 0.21453 0.745 0.0
C508 C 0.39269 0.24193 0.70449 0.0
C509 C 0.36383 0.18412 0.73314 0.0
C510 C 0.39886 0.24353 0.7306 0.0
C511 C 0.3785 0.23707 0.6522 0.0
C512 C 0.36596 0.20835 0.66734 0.0
C513 C 0.39824 0.26824 0.66342 0.0
C514 C 0.40549 0.27064 0.68945 0.0
Tb515 Tb 0.32659 0.1348 0.68464 0.0
N516 N 0.34799 0.17779 0.65684 0.0
C517 C 0.37125 0.23353 0.62616 0.0
C518 C 0.33991 0.17413 0.63164 0.0
C519 C 0.35176 0.20193 0.61587 0.0
H520 H 0.35077 0.16274 0.74515 0.0
H521 H 0.34569 0.19899 0.59583 0.0
H522 H 0.34 0.02852 0.63829 0.0
H523 H 0.42675 0.07738 0.77334 0.0
H524 H 0.32428 0.14978 0.62375 0.0
H525 H 0.38049 0.255 0.61387 0.0
H526 H 0.42456 0.10557 0.73414 0.0
H527 H 0.38756 0.21566 0.76541 0.0
H528 H 0.40833 0.2906 0.65207 0.0
H529 H 0.42094 0.29485 0.69779 0.0
H530 H 0.30668 0.96731 0.63632 0.0
H531 H 0.41422 0.26707 0.73993 0.0
H532 H 0.38935 0.01699 0.77833 0.0
N533 N 0.34962 0.02959 0.67784 0.0
C534 C 0.34754 0.01172 0.69876 0.0
C535 C 0.31782 0.9795 0.65408 0.0
C536 C 0.32919 0.9769 0.69863 0.0
C537 C 0.33667 0.01407 0.65519 0.0
C538 C 0.31358 0.96082 0.67603 0.0
N539 N 0.38501 0.06192 0.71789 0.0
C540 C 0.40773 0.07929 0.73637 0.0
C541 C 0.36645 0.01132 0.74146 0.0
C542 C 0.36578 0.02862 0.71972 0.0
C543 C 0.38801 0.02931 0.76127 0.0
C544 C 0.40922 0.06338 0.75849 0.0
H545 H 0.29917 0.93406 0.6751 0.0
H546 H 0.31381 0.93263 0.72119 0.0
H547 H 0.34655 0.96286 0.7588 0.0
O548 O 0.42641 0.08993 0.6824 0.0
O549 O 0.32414 0.05485 0.68207 0.0
O550 O 0.303 0.08527 0.70141 0.0
O551 O 0.40254 0.08807 0.6473 0.0
O552 O 0.38283 0.11779 0.71374 0.0
O553 O 0.33292 0.11461 0.72131 0.0
O554 O 0.28129 0.12485 0.66817 0.0
O555 O 0.37448 0.15422 0.66471 0.0
O556 O 0.40386 0.13899 0.69031 0.0
O557 O 0.29939 0.15445 0.70179 0.0
O558 O 0.31442 0.10071 0.65189 0.0
O559 O 0.36329 0.09991 0.64685 0.0
C560 C 0.29956 0.05758 0.69201 0.0
C561 C 0.46009 0.12533 0.64919 0.0
C562 C 0.52027 0.15955 0.64441 0.0
C563 C 0.51584 0.18337 0.63146 0.0
C564 C 0.45653 0.14975 0.63618 0.0
C565 C 0.48421 0.17854 0.62754 0.0
C566 C 0.49224 0.13057 0.65354 0.0
C567 C 0.35858 0.11221 0.72926 0.0
C568 C 0.43025 0.09467 0.65802 0.0
C569 C 0.32809 0.95942 0.72074 0.0
C570 C 0.3467 0.97664 0.74216 0.0
C571 C 0.40243 0.16106 0.67573 0.0
C572 C 0.24182 0.12801 0.69477 0.0
C573 C 0.19263 0.13348 0.70026 0.0
C574 C 0.1767 0.10241 0.7124 0.0
C575 C 0.22574 0.09745 0.70736 0.0
C576 C 0.22536 0.14611 0.69151 0.0
C577 C 0.19324 0.08467 0.71599 0.0
C578 C 0.33327 0.0918 0.63917 0.0
C579 C 0.27583 0.14187 0.68508 0.0
H580 H 0.537 0.20595 0.62452 0.0
H581 H 0.4323 0.14666 0.63257 0.0
H582 H 0.4811 0.19715 0.61765 0.0
H583 H 0.49539 0.11202 0.66352 0.0
H584 H 0.1516 0.09205 0.71944 0.0
H585 H 0.23832 0.08361 0.71056 0.0
H586 H 0.23788 0.16981 0.68182 0.0
H587 H 0.18083 0.06095 0.72559 0.0
Tb588 Tb 0.93822 0.30479 0.66269 0.0
C589 C 0.8111 0.18037 0.68789 0.0
N590 N 0.83748 0.19339 0.70383 0.0
C591 C 0.8019 0.18444 0.7395 0.0
C592 C 0.77886 0.1694 0.69717 0.0
C593 C 0.83339 0.19488 0.72942 0.0
C594 C 0.77452 0.17175 0.72329 0.0
C595 C 0.78959 0.16481 0.64514 0.0
C596 C 0.81658 0.17819 0.66221 0.0
C597 C 0.75751 0.15456 0.65418 0.0
C598 C 0.75213 0.15656 0.68015 0.0
Tb599 Tb 0.8872 0.20751 0.68615 0.0
N600 N 0.84797 0.18784 0.65418 0.0
C601 C 0.79539 0.16103 0.61964 0.0
C602 C 0.85272 0.18059 0.62981 0.0
C603 C 0.82697 0.16836 0.61207 0.0
H604 H 0.85448 0.20424 0.74201 0.0
H605 H 0.8313 0.16359 0.59271 0.0
H606 H 0.91168 0.30204 0.60433 0.0
H607 H 0.05966 0.37916 0.70382 0.0
H608 H 0.87568 0.18263 0.62374 0.0
H609 H 0.77536 0.15098 0.60593 0.0
H610 H 0.9985 0.34456 0.70441 0.0
H611 H 0.79875 0.18602 0.75975 0.0
H612 H 0.73657 0.14435 0.64131 0.0
H613 H 0.72715 0.14785 0.68691 0.0
H614 H 0.93605 0.31932 0.56124 0.0
H615 H 0.75015 0.16371 0.73114 0.0
H616 H 0.08989 0.39298 0.6628 0.0
N617 N 0.95832 0.32045 0.62247 0.0
C618 C 0.99168 0.3376 0.61986 0.0
C619 C 0.952 0.32447 0.57757 0.0
C620 C 1.00675 0.34795 0.59582 0.0
C621 C 0.93828 0.3146 0.60191 0.0
C622 C 0.98639 0.34069 0.57444 0.0
N623 N 0.99449 0.33814 0.66428 0.0
C624 C 0.01157 0.3505 0.68647 0.0
C625 C 0.04526 0.36659 0.64027 0.0
C626 C 1.01053 0.34682 0.64164 0.0
C627 C 0.06314 0.37771 0.66299 0.0
C628 C 0.04615 0.37004 0.68618 0.0
H629 H 0.99696 0.34819 0.55558 0.0
H630 H 0.05364 0.37408 0.57577 0.0
H631 H 0.08746 0.39041 0.61479 0.0
O632 O 0.91888 0.32733 0.68676 0.0
O633 O 0.97189 0.28635 0.6746 0.0
O634 O 0.94071 0.2292 0.68367 0.0
O635 O 0.9372 0.34663 0.64943 0.0
O636 O 0.93737 0.29671 0.70371 0.0
O637 O 0.9096 0.24161 0.71873 0.0
O638 O 0.86801 0.15622 0.68164 0.0
O639 O 0.87032 0.24338 0.69173 0.0
O640 O 0.88626 0.27016 0.65417 0.0
O641 O 0.89096 0.18008 0.71651 0.0
O642 O 0.91741 0.21861 0.65099 0.0
O643 O 0.91086 0.26132 0.63904 0.0
C644 C 0.96896 0.25737 0.68073 0.0
C645 C 0.93766 0.38431 0.67923 0.0
C646 C 0.9302 0.43232 0.68513 0.0
C647 C 0.96417 0.45137 0.69117 0.0
C648 C 0.97117 0.40374 0.68558 0.0
C649 C 0.98427 0.43707 0.69164 0.0
C650 C 0.9172 0.39847 0.67939 0.0
C651 C 0.92687 0.27426 0.72208 0.0
C652 C 0.92407 0.35014 0.67013 0.0
C653 C 0.0415 0.3662 0.5941 0.0
C654 C 0.06075 0.3755 0.61631 0.0
C655 C 0.86479 0.25819 0.67281 0.0
C656 C 0.89467 0.13302 0.70461 0.0
C657 C 0.89179 0.07912 0.70306 0.0
C658 C 0.92655 0.09562 0.70548 0.0
C659 C 0.92925 0.14874 0.70682 0.0
C660 C 0.87602 0.09821 0.70278 0.0
C661 C 0.94502 0.13008 0.70728 0.0
C662 C 0.92296 0.24202 0.63445 0.0
C663 C 0.8777 0.15251 0.70385 0.0
H664 H 0.97563 0.4776 0.69502 0.0
H665 H 0.98732 0.39339 0.68529 0.0
H666 H 1.01031 0.45209 0.69621 0.0
H667 H 0.89122 0.38299 0.67476 0.0
H668 H 0.93957 0.08188 0.70627 0.0
H669 H 0.94406 0.17542 0.70827 0.0
H670 H 0.84935 0.08613 0.7007 0.0
H671 H 0.97171 0.14238 0.70909 0.0
Tb672 Tb 0.72391 0.65253 0.66679 0.0
C673 C 0.84934 0.6536 0.69217 0.0
N674 N 0.8353 0.66599 0.70806 0.0
C675 C 0.84297 0.63822 0.74348 0.0
C676 C 0.8602 0.63227 0.70135 0.0
C677 C 0.83279 0.65948 0.73354 0.0
C678 C 0.85658 0.62442 0.7273 0.0
C679 C 0.86728 0.64985 0.64967 0.0
C680 C 0.85252 0.66218 0.6666 0.0
C681 C 0.8778 0.62828 0.65866 0.0
C682 C 0.87432 0.61956 0.68443 0.0
Tb683 Tb 0.82114 0.7015 0.69039 0.0
N684 N 0.84218 0.68332 0.65855 0.0
C685 C 0.87171 0.66011 0.6243 0.0
C686 C 0.84954 0.6957 0.63429 0.0
C687 C 0.8633 0.68353 0.6167 0.0
H688 H 0.82274 0.67053 0.74614 0.0
H689 H 0.86831 0.69299 0.59743 0.0
H690 H 0.72869 0.63389 0.6072 0.0
H691 H 0.64726 0.6937 0.71255 0.0
H692 H 0.84641 0.71596 0.62824 0.0
H693 H 0.88282 0.65112 0.61069 0.0
H694 H 0.68444 0.6702 0.71089 0.0
H695 H 0.84049 0.63265 0.76362 0.0
H696 H 0.88896 0.61843 0.64586 0.0
H697 H 0.88273 0.60305 0.69109 0.0
H698 H 0.70934 0.64116 0.5651 0.0
H699 H 0.86448 0.60798 0.73505 0.0
H700 H 0.62978 0.70868 0.67263 0.0
N701 N 0.70732 0.65809 0.62728 0.0
C702 C 0.68803 0.67212 0.62603 0.0
C703 C 0.70328 0.65012 0.58209 0.0
C704 C 0.67609 0.67646 0.6026 0.0
C705 C 0.71438 0.64625 0.60588 0.0
C706 C 0.68432 0.66561 0.58041 0.0
N707 N 0.68914 0.67351 0.67058 0.0
C708 C 0.67716 0.67701 0.69343 0.0
C709 C 0.6571 0.69314 0.64847 0.0
C710 C 0.67864 0.6802 0.64853 0.0
C711 C 0.64633 0.69873 0.67184 0.0
C712 C 0.65609 0.69024 0.69441 0.0
H713 H 0.67565 0.66846 0.56199 0.0
H714 H 0.64627 0.69428 0.58442 0.0
H715 H 0.62978 0.70909 0.62464 0.0
O716 O 0.7019 0.60946 0.6896 0.0
O717 O 0.74079 0.70389 0.68012 0.0
O718 O 0.79831 0.73208 0.68813 0.0
O719 O 0.68268 0.60968 0.65255 0.0
O720 O 0.73192 0.65699 0.70787 0.0
O721 O 0.7868 0.68925 0.723 0.0
O722 O 0.87236 0.73416 0.68577 0.0
O723 O 0.7861 0.64836 0.6952 0.0
O724 O 0.75943 0.63656 0.65753 0.0
O725 O 0.84831 0.73326 0.7206 0.0
O726 O 0.80935 0.72039 0.65554 0.0
O727 O 0.76761 0.67075 0.64293 0.0
C728 C 0.76936 0.73063 0.68613 0.0
C729 C 0.64502 0.57124 0.68201 0.0
C730 C 0.59791 0.51546 0.68932 0.0
C731 C 0.57831 0.52979 0.69512 0.0
C732 C 0.62499 0.58476 0.68797 0.0
C733 C 0.59188 0.5641 0.69465 0.0
C734 C 0.63157 0.53673 0.68301 0.0
C735 C 0.75418 0.67058 0.72622 0.0
C736 C 0.67918 0.5923 0.67282 0.0
C737 C 0.6556 0.69053 0.60224 0.0
C738 C 0.6462 0.69896 0.62514 0.0
C739 C 0.77216 0.628 0.67617 0.0
C740 C 0.89489 0.78442 0.70798 0.0
C741 C 0.94844 0.83594 0.70483 0.0
C742 C 0.93161 0.85383 0.70708 0.0
C743 C 0.8788 0.8029 0.70988 0.0
C744 C 0.92968 0.80103 0.70547 0.0
C745 C 0.89715 0.83741 0.70953 0.0
C746 C 0.78631 0.7024 0.63881 0.0
C747 C 0.87587 0.74788 0.70781 0.0
H748 H 0.5522 0.51457 0.69942 0.0
H749 H 0.6347 0.61113 0.68694 0.0
H750 H 0.57643 0.57469 0.69897 0.0
H751 H 0.64742 0.52661 0.67861 0.0
H752 H 0.9451 0.88063 0.70717 0.0
H753 H 0.85209 0.79071 0.7116 0.0
H754 H 0.94198 0.78667 0.70346 0.0
H755 H 0.8846 0.85151 0.71115 0.0
C756 C 0.48765 0.58419 0.98203 0.0
C757 C 0.50064 0.58682 1.00655 0.0
C758 C 0.45442 0.57551 0.97876 0.0
C759 C 0.374 0.53209 0.01238 0.0
H760 H 0.34501 0.57093 0.96059 0.0
C761 C 0.23728 0.50129 1.00501 0.0
C762 C 0.22481 0.50193 0.98087 0.0
C763 C 0.27083 0.5111 1.00811 0.0
C764 C 0.35251 0.5593 0.97487 0.0
H765 H 0.48996 0.58478 0.04681 0.0
H766 H 0.43225 0.57003 0.04119 0.0
H767 H 0.4039 0.59071 0.96575 0.0
H768 H 0.23703 0.5116 0.94089 0.0
H769 H 0.29496 0.5272 0.94598 0.0
H770 H 0.32278 0.50016 0.02121 0.0
C771 C 0.44731 0.57385 0.02445 0.0
C772 C 0.3864 0.57083 0.97789 0.0
C773 C 0.48042 0.58251 0.02768 0.0
C774 C 0.24612 0.51114 0.95976 0.0
C775 C 0.27944 0.52044 0.96276 0.0
C776 C 0.3401 0.52022 1.00914 0.0
C777 C 0.43364 0.56946 0.99997 0.0
C778 C 0.3976 0.55742 0.99671 0.0
C779 C 0.29255 0.52133 0.98705 0.0
C780 C 0.32879 0.53366 0.99036 0.0
H781 H 0.50267 0.58726 0.9654 0.0
H782 H 0.44467 0.57223 0.95964 0.0
H783 H 0.38167 0.52104 0.02698 0.0
H784 H 0.22143 0.49464 0.02162 0.0
H785 H 0.2799 0.51174 0.02716 0.0
C786 C 0.44499 0.91665 0.02798 0.0
C787 C 0.4425 0.93199 1.00577 0.0
C788 C 0.45315 0.89167 0.02661 0.0
C789 C 0.46076 0.83394 0.98187 0.0
H790 H 0.52491 0.83855 0.03103 0.0
C791 C 0.53048 0.76332 0.96624 0.0
C792 C 0.53366 0.7461 0.98698 0.0
C793 C 0.51936 0.78577 0.96976 0.0
C794 C 0.50673 0.83668 0.01733 0.0
H795 H 0.44499 0.93222 0.96465 0.0
H796 H 0.45978 0.88905 0.96214 0.0
H797 H 0.50306 0.87615 0.03473 0.0
H798 H 0.52908 0.74012 0.0279 0.0
H799 H 0.50963 0.77968 0.03416 0.0
H800 H 0.46461 0.79466 0.96437 0.0
C801 C 0.45501 0.89587 0.98068 0.0
C802 C 0.49412 0.85822 0.01944 0.0
C803 C 0.44651 0.92064 0.98207 0.0
C804 C 0.527 0.75311 0.01157 0.0
C805 C 0.51579 0.7757 0.01511 0.0
C806 C 0.47338 0.81247 0.97975 0.0
C807 C 0.45917 0.88156 1.00297 0.0
C808 C 0.47121 0.85738 1.00157 0.0
C809 C 0.5111 0.7917 0.99413 0.0
C810 C 0.49682 0.8138 0.99726 0.0
H811 H 0.44169 0.92476 0.0465 0.0
H812 H 0.45543 0.8808 0.04413 0.0
H813 H 0.44268 0.83205 0.96806 0.0
H814 H 0.53606 0.75898 0.9471 0.0
H815 H 0.51694 0.79829 0.95326 0.0
C816 C 0.26024 0.79969 1.00623 0.0
C817 C 0.25118 0.81517 0.02504 0.0
C818 C 0.24477 0.76513 1.00481 0.0
C819 C 0.18732 0.68729 0.04101 0.0
H820 H 0.17834 0.64702 0.97495 0.0
C821 C 0.11867 0.54523 0.03137 0.0
C822 C 0.09853 0.53163 1.00987 0.0
C823 C 0.14139 0.57924 0.03261 0.0
C824 C 0.18017 0.65767 0.99357 0.0
H825 H 0.2187 0.80539 0.05755 0.0
H826 H 0.19018 0.74588 0.0538 0.0
H827 H 0.20735 0.70667 0.97856 0.0
H828 H 0.08849 0.5421 0.9719 0.0
H829 H 0.12689 0.60128 0.9742 0.0
H830 H 0.15778 0.63835 0.05567 0.0
C831 C 0.21009 0.76027 0.04057 0.0
C832 C 0.19754 0.69222 0.99575 0.0
C833 C 0.22614 0.7948 0.0424 0.0
C834 C 0.10329 0.55214 0.98891 0.0
C835 C 0.12573 0.58615 0.99019 0.0
C836 C 0.16925 0.65279 0.03873 0.0
C837 C 0.21909 0.74476 0.02174 0.0
C838 C 0.20135 0.70769 0.01951 0.0
C839 C 0.14442 0.60047 0.01239 0.0
C840 C 0.16529 0.63735 0.01495 0.0
H841 H 0.27895 0.81412 0.99217 0.0
H842 H 0.25311 0.75452 0.99032 0.0
H843 H 0.1901 0.69783 0.05979 0.0
H844 H 0.11579 0.52988 0.04772 0.0
H845 H 0.15602 0.58888 0.04971 0.0
C846 C 0.47012 0.12504 1.00272 0.0
C847 C 0.44248 0.09928 0.01509 0.0
C848 C 0.47801 0.15778 1.00549 0.0
C849 C 0.44989 0.2153 0.02516 0.0
H850 H 0.54425 0.27294 0.03587 0.0
C851 C 0.51634 0.3586 0.04657 0.0
C852 C 0.54596 0.37803 0.03291 0.0
C853 C 0.49974 0.32386 0.0452 0.0
C854 C 0.51786 0.25729 0.03278 0.0
H855 H 0.40015 0.08756 0.03895 0.0
H856 H 0.41429 0.14586 0.04415 0.0
H857 H 0.52164 0.21364 0.0325 0.0
H858 H 0.57987 0.37586 1.00575 0.0
H859 H 0.55148 0.3158 1.00377 0.0
H860 H 0.44656 0.25968 0.02547 0.0
C861 C 0.42974 0.14025 0.03218 0.0
C862 C 0.50485 0.22321 0.03084 0.0
C863 C 0.42158 0.10695 0.02919 0.0
C864 C 0.55773 0.36184 0.01712 0.0
C865 C 0.54136 0.32733 0.0159 0.0
C866 C 0.46302 0.24973 0.02727 0.0
C867 C 0.45878 0.16608 0.02102 0.0
C868 C 0.4709 0.20179 0.02624 0.0
C869 C 0.51254 0.30786 0.03028 0.0
C870 C 0.49734 0.27113 0.0304 0.0
H871 H 0.48644 0.11995 0.99132 0.0
H872 H 0.49993 0.17682 0.99595 0.0
H873 H 0.42364 0.19949 0.02168 0.0
H874 H 0.50657 0.37015 0.05902 0.0
H875 H 0.47763 0.30954 0.05653 0.0
C876 C 0.67136 0.21528 0.01441 0.0
C877 C 0.65507 0.18698 0.02994 0.0
C878 C 0.70593 0.23297 0.01251 0.0
C879 C 0.78239 0.24809 0.04604 0.0
H880 H 0.8238 0.29157 0.98258 0.0
C881 C 0.92593 0.3325 0.03389 0.0
C882 C 0.93521 0.36333 0.02282 0.0
C883 C 0.89255 0.30704 0.03361 0.0
C884 C 0.81265 0.27961 1.00046 0.0
H885 H 0.66287 0.15497 0.05539 0.0
H886 H 0.72329 0.18548 0.05165 0.0
H887 H 0.76412 0.25426 0.98423 0.0
H888 H 0.91761 0.39128 1.00179 0.0
H889 H 0.85993 0.34727 1.00106 0.0
H890 H 0.83122 0.27387 0.06221 0.0
C891 C 0.7092 0.19425 0.04119 0.0
C892 C 0.77833 0.25829 1.00147 0.0
C893 C 0.67447 0.1765 0.04312 0.0
C894 C 0.91102 0.36784 1.01065 0.0
C895 C 0.87799 0.34248 1.01007 0.0
C896 C 0.81686 0.26932 0.04498 0.0
C897 C 0.72546 0.22288 0.02595 0.0
C898 C 0.76252 0.24283 0.02441 0.0
C899 C 0.86815 0.31187 0.02181 0.0
C900 C 0.83231 0.28596 0.02231 0.0
H901 H 0.65737 0.22391 1.00365 0.0
H902 H 0.71736 0.25507 1.00084 0.0
H903 H 0.7712 0.23691 0.06411 0.0
H904 H 0.94419 0.32851 0.04345 0.0
H905 H 0.8858 0.28367 0.0427 0.0
C906 C 0.81058 0.46943 0.02252 0.0
C907 C 0.84217 0.48408 0.03366 0.0
C908 C 0.79384 0.48714 0.02013 0.0
C909 C 0.78409 0.55342 0.0475 0.0
H910 H 0.74426 0.55146 0.98239 0.0
C911 C 0.6952 0.6072 0.03196 0.0
C912 C 0.66632 0.58559 0.01842 0.0
C913 C 0.72204 0.60128 0.03309 0.0
C914 C 0.7551 0.55224 1.00077 0.0
H915 H 0.88076 0.52868 0.05138 0.0
H916 H 0.85094 0.5595 0.04773 0.0
H917 H 0.77991 0.52749 0.98636 0.0
H918 H 0.64367 0.54121 0.99502 0.0
H919 H 0.68915 0.53106 0.99721 0.0
H920 H 0.75774 0.57666 0.06221 0.0
C921 C 0.83942 0.53438 0.04063 0.0
C922 C 0.77559 0.53851 1.00299 0.0
C923 C 0.85652 0.51683 0.04258 0.0
C924 C 0.66536 0.55863 1.00563 0.0
C925 C 0.6918 0.55285 1.00668 0.0
C926 C 0.76311 0.56685 0.04536 0.0
C927 C 0.80798 0.51978 0.0292 0.0
C928 C 0.78962 0.53812 0.0265 0.0
C929 C 0.72052 0.57386 0.02046 0.0
C930 C 0.7475 0.56546 0.02211 0.0
H931 H 0.79895 0.44432 0.01538 0.0
H932 H 0.76954 0.47512 0.01141 0.0
H933 H 0.7946 0.55349 0.06587 0.0
H934 H 0.69665 0.62793 0.04226 0.0
H935 H 0.74383 0.61799 0.04391 0.0
C936 C 0.8973 0.76386 0.33002 0.0
C937 C 0.87916 0.77874 0.32174 0.0
C938 C 0.93174 0.78266 0.33296 0.0
C939 C 1.00549 0.85961 0.31175 0.0
H940 H 0.04677 0.84614 0.371 0.0
C941 C 0.14523 0.9034 0.31713 0.0
C942 C 0.16141 0.91367 0.34066 0.0
C943 C 0.1112 0.89146 0.31524 0.0
C944 C 0.03568 0.85045 0.35443 0.0
H945 H 0.88319 0.82501 0.30963 0.0
H946 H 0.94331 0.85778 0.31465 0.0
H947 H 0.98657 0.81535 0.36689 0.0
H948 H 0.15522 0.92134 0.38043 0.0
H949 H 0.09558 0.90053 0.3772 0.0
H950 H 0.0546 0.89445 0.29914 0.0
C951 C 0.93086 0.83156 0.31892 0.0
C952 C 1.00115 0.83252 0.35195 0.0
C953 C 0.89638 0.81283 0.31622 0.0
C954 C 0.14333 0.91364 0.36203 0.0
C955 C 0.10913 0.90137 0.36021 0.0
C956 C 0.04005 0.87729 0.31409 0.0
C957 C 0.94895 0.81675 0.32746 0.0
C958 C 0.98564 0.83667 0.33048 0.0
C959 C 0.0925 0.88939 0.33689 0.0
C960 C 0.05563 0.8727 0.33534 0.0
H961 H 0.88479 0.73775 0.33466 0.0
H962 H 0.94495 0.77041 0.33932 0.0
H963 H 0.99435 0.86332 0.29492 0.0
H964 H 0.15869 0.90326 0.30036 0.0
H965 H 0.09928 0.88216 0.29705 0.0
C966 C 0.11818 0.24894 0.35536 0.0
C967 C 0.1156 0.26628 0.3345 0.0
C968 C 0.12965 0.22669 0.35212 0.0
C969 C 0.15088 0.18166 0.30351 0.0
H970 H 0.21265 0.1878 0.35549 0.0
C971 C 0.21209 0.09907 0.30636 0.0
C972 C 0.24632 0.11561 0.31141 0.0
C973 C 0.19416 0.11569 0.30833 0.0
C974 C 0.19556 0.18589 0.34075 0.0
H975 H 0.12143 0.27288 0.29372 0.0
H976 H 0.14236 0.23462 0.28799 0.0
H977 H 0.18287 0.21766 0.3608 0.0
H978 H 0.28846 0.16255 0.32253 0.0
H979 H 0.25714 0.19147 0.32617 0.0
H980 H 0.16373 0.14948 0.28363 0.0
C981 C 0.13493 0.23763 0.30685 0.0
C982 C 0.17823 0.20287 0.34385 0.0
C983 C 0.12294 0.25959 0.31008 0.0
C984 C 0.2622 0.14918 0.31833 0.0
C985 C 0.24421 0.16566 0.32062 0.0
C986 C 0.16793 0.16422 0.30059 0.0
C987 C 0.13929 0.22154 0.32795 0.0
C988 C 0.15597 0.20145 0.32513 0.0
C989 C 0.20995 0.14909 0.31575 0.0
C990 C 0.19081 0.16652 0.31904 0.0
H991 H 0.11238 0.25348 0.37437 0.0
H992 H 0.13183 0.21423 0.36874 0.0
H993 H 0.13362 0.17952 0.28886 0.0
H994 H 0.1992 0.07326 0.30082 0.0
H995 H 0.16778 0.10222 0.30458 0.0
C996 C 0.92423 0.1313 0.33899 0.0
C997 C 0.91306 0.14787 0.35503 0.0
C998 C 0.90877 0.09673 0.33904 0.0
C999 C 0.84744 0.02123 0.37544 0.0
H1000 H 0.84351 0.97746 0.31189 0.0
C1001 C 0.77985 0.87887 0.37012 0.0
C1002 C 0.76092 0.86426 0.34823 0.0
C1003 C 0.80238 0.91292 0.37081 0.0
C1004 C 0.84399 0.98914 0.32978 0.0
H1005 H 0.87699 0.14024 0.3843 0.0
H1006 H 0.84877 0.08042 0.38307 0.0
H1007 H 0.87284 0.03732 0.31364 0.0
H1008 H 0.75257 0.87302 0.30926 0.0
H1009 H 0.79088 0.93234 0.31052 0.0
H1010 H 0.81644 0.97307 0.39106 0.0
C1011 C 0.87017 0.09406 0.37092 0.0
C1012 C 0.86147 0.02374 0.33093 0.0
C1013 C 0.88608 0.12865 0.37127 0.0
C1014 C 0.76659 0.88382 0.3265 0.0
C1015 C 0.78889 0.91787 0.3272 0.0
C1016 C 0.82938 0.98665 0.37415 0.0
C1017 C 0.88115 0.07748 0.35473 0.0
C1018 C 0.86339 0.04041 0.35375 0.0
C1019 C 0.80645 0.93315 0.34962 0.0
C1020 C 0.82727 0.97003 0.35128 0.0
H1021 H 0.94454 0.14489 0.32587 0.0
H1022 H 0.91857 0.08519 0.32664 0.0
H1023 H 0.84871 0.03283 0.39353 0.0
H1024 H 0.77617 0.86428 0.38712 0.0
H1025 H 0.81607 0.92344 0.3882 0.0
C1026 C 0.1747 0.68739 0.37004 0.0
C1027 C 0.20803 0.70558 0.36221 0.0
C1028 C 0.15685 0.65276 0.36793 0.0
C1029 C 0.15409 0.58479 0.33137 0.0
H1030 H 0.11306 0.52856 0.39018 0.0
C1031 C 0.13776 0.45663 0.33707 0.0
C1032 C 0.10979 0.42979 0.3484 0.0
C1033 C 0.14244 0.4884 0.33764 0.0
C1034 C 0.12366 0.54383 0.37343 0.0
H1035 H 0.24855 0.70181 0.34569 0.0
H1036 H 0.21728 0.6416 0.34144 0.0
H1037 H 0.13578 0.58861 0.39356 0.0
H1038 H 0.06452 0.41586 0.36911 0.0
H1039 H 0.07273 0.47238 0.37008 0.0
H1040 H 0.14264 0.54058 0.31124 0.0
C1041 C 0.20502 0.65404 0.34942 0.0
C1042 C 0.13682 0.57821 0.3754 0.0
C1043 C 0.22299 0.68848 0.35198 0.0
C1044 C 0.08614 0.43582 0.36003 0.0
C1045 C 0.091 0.46819 0.36074 0.0
C1046 C 0.14067 0.55061 0.32931 0.0
C1047 C 0.1718 0.63576 0.3574 0.0
C1048 C 0.15326 0.5991 0.35461 0.0
C1049 C 0.11933 0.49484 0.34949 0.0
C1050 C 0.12652 0.52979 0.35057 0.0
H1051 H 0.16261 0.69993 0.37814 0.0
H1052 H 0.13129 0.6393 0.37419 0.0
H1053 H 0.16603 0.6002 0.3149 0.0
H1054 H 0.15662 0.45332 0.32775 0.0
H1055 H 0.1649 0.50822 0.32927 0.0
C1056 C 0.33866 0.50939 0.37895 0.0
C1057 C 0.3194 0.52003 0.36575 0.0
C1058 C 0.37338 0.52704 0.37712 0.0
C1059 C 0.44275 0.59089 0.33761 0.0
H1060 H 0.49523 0.60631 0.39858 0.0
C1061 C 0.57516 0.70044 0.34747 0.0
C1062 C 0.59921 0.69611 0.36005 0.0
C1063 C 0.54224 0.67493 0.34654 0.0
C1064 C 0.48099 0.60178 0.38129 0.0
H1065 H 0.32193 0.55719 0.3396 0.0
H1066 H 0.38196 0.58821 0.33697 0.0
H1067 H 0.43519 0.56952 0.40028 0.0
H1068 H 0.60813 0.66144 0.38097 0.0
H1069 H 0.54991 0.6163 0.37957 0.0
H1070 H 0.48837 0.62403 0.31885 0.0
C1071 C 0.3704 0.56604 0.34855 0.0
C1072 C 0.44651 0.58067 0.38224 0.0
C1073 C 0.33582 0.54844 0.35036 0.0
C1074 C 0.58996 0.66529 0.3711 0.0
C1075 C 0.55669 0.63965 0.37046 0.0
C1076 C 0.47709 0.61208 0.33671 0.0
C1077 C 0.38976 0.55573 0.36197 0.0
C1078 C 0.4268 0.57551 0.36053 0.0
C1079 C 0.53239 0.64434 0.35832 0.0
C1080 C 0.49658 0.61838 0.35865 0.0
H1081 H 0.32697 0.48779 0.39113 0.0
H1082 H 0.38736 0.51813 0.38755 0.0
H1083 H 0.42863 0.58692 0.32033 0.0
H1084 H 0.58174 0.72385 0.3386 0.0
H1085 H 0.52425 0.6796 0.33728 0.0
C1086 C 0.32417 0.89127 0.34232 0.0
C1087 C 0.3294 0.92049 0.35397 0.0
C1088 C 0.34919 0.88325 0.3414 0.0
C1089 C 0.4262 0.89947 0.37392 0.0
H1090 H 0.4296 0.84707 0.31802 0.0
C1091 C 0.51735 0.8477 0.37053 0.0
C1092 C 0.50265 0.814 0.36404 0.0
C1093 C 0.49971 0.86463 0.36792 0.0
C1094 C 0.42894 0.86161 0.33382 0.0
H1095 H 0.36565 0.96536 0.37273 0.0
H1096 H 0.41028 0.95173 0.3708 0.0
H1097 H 0.39413 0.87134 0.31495 0.0
H1098 H 0.45815 0.77198 0.34914 0.0
H1099 H 0.4276 0.80147 0.34435 0.0
H1100 H 0.46115 0.88948 0.39272 0.0
C1101 C 0.38633 0.93457 0.36276 0.0
C1102 C 0.40852 0.87553 0.33211 0.0
C1103 C 0.36097 0.94261 0.36365 0.0
C1104 C 0.47013 0.79784 0.35449 0.0
C1105 C 0.45272 0.81484 0.35155 0.0
C1106 C 0.44695 0.88575 0.37552 0.0
C1107 C 0.38057 0.90446 0.35191 0.0
C1108 C 0.40608 0.89388 0.35241 0.0
C1109 C 0.46717 0.8484 0.35835 0.0
C1110 C 0.4479 0.86594 0.35574 0.0
H1111 H 0.3003 0.87407 0.33429 0.0
H1112 H 0.34338 0.85967 0.33321 0.0
H1113 H 0.42486 0.91318 0.39003 0.0
H1114 H 0.54228 0.86081 0.3781 0.0
H1115 H 0.51162 0.89049 0.37322 0.0
C1116 C 0.81257 0.25118 0.69193 0.0
C1117 C 0.83143 0.25432 0.67017 0.0
C1118 C 0.77936 0.24274 0.68976 0.0
C1119 C 0.71599 0.23722 0.64422 0.0
H1120 H 0.65427 0.16909 0.69018 0.0
C1121 C 0.57559 0.17359 0.62685 0.0
C1122 C 0.55445 0.16566 0.64795 0.0
C1123 C 0.60906 0.18369 0.63007 0.0
C1124 C 0.67108 0.18843 0.67737 0.0
H1125 H 0.8309 0.25279 0.629 0.0
H1126 H 0.77285 0.23788 0.62512 0.0
H1127 H 0.71352 0.19108 0.69527 0.0
H1128 H 0.55148 0.16133 0.68895 0.0
H1129 H 0.61028 0.1798 0.69482 0.0
H1130 H 0.67379 0.23542 0.62676 0.0
C1131 C 0.78371 0.24213 0.64391 0.0
C1132 C 0.70517 0.20098 0.68023 0.0
C1133 C 0.817 0.25072 0.6461 0.0
C1134 C 0.56722 0.167 0.67236 0.0
C1135 C 0.60095 0.17759 0.67565 0.0
C1136 C 0.68195 0.22501 0.64155 0.0
C1137 C 0.76425 0.23729 0.66575 0.0
C1138 C 0.72806 0.22524 0.6635 0.0
C1139 C 0.6225 0.1867 0.65454 0.0
C1140 C 0.65891 0.20014 0.65789 0.0
H1141 H 0.82322 0.25417 0.71072 0.0
H1142 H 0.76534 0.23983 0.70695 0.0
H1143 H 0.7329 0.25634 0.6313 0.0
H1144 H 0.56626 0.17253 0.6078 0.0
H1145 H 0.62447 0.18948 0.61328 0.0
C1146 C 0.88205 0.43677 0.66719 0.0
C1147 C 0.90889 0.44801 0.68421 0.0
C1148 C 0.86271 0.452 0.66607 0.0
C1149 C 0.84623 0.5124 0.70144 0.0
H1150 H 0.80553 0.51433 0.63778 0.0
C1151 C 0.77349 0.5809 0.69693 0.0
C1152 C 0.77582 0.59842 0.67464 0.0
C1153 C 0.78351 0.5573 0.69716 0.0
C1154 C 0.81696 0.51445 0.6557 0.0
H1155 H 0.93554 0.48423 0.71378 0.0
H1156 H 0.90403 0.51211 0.71038 0.0
H1157 H 0.83723 0.48618 0.64 0.0
H1158 H 0.78847 0.60375 0.63468 0.0
H1159 H 0.80794 0.56411 0.6352 0.0
H1160 H 0.82864 0.54294 0.71665 0.0
C1161 C 0.89689 0.49072 0.69844 0.0
C1162 C 0.83481 0.49765 0.65711 0.0
C1163 C 0.91566 0.47501 0.70002 0.0
C1164 C 0.78623 0.59034 0.65209 0.0
C1165 C 0.79736 0.56744 0.65247 0.0
C1166 C 0.82918 0.52985 0.69986 0.0
C1167 C 0.86996 0.47945 0.68153 0.0
C1168 C 0.8499 0.49646 0.68001 0.0
C1169 C 0.79736 0.55146 0.6753 0.0
C1170 C 0.81418 0.53122 0.67698 0.0
H1171 H 0.87611 0.41646 0.65433 0.0
H1172 H 0.84198 0.44201 0.65305 0.0
H1173 H 0.85662 0.51165 0.71965 0.0
H1174 H 0.7651 0.58643 0.71451 0.0
H1175 H 0.78151 0.54464 0.71488 0.0
C1176 C 0.59373 0.46305 0.67162 0.0
C1177 C 0.58285 0.47855 0.68899 0.0
C1178 C 0.57859 0.42849 0.6706 0.0
C1179 C 0.51894 0.35104 0.70597 0.0
H1180 H 0.51298 0.31016 0.64062 0.0
C1181 C 0.45015 0.20911 0.69715 0.0
C1182 C 0.43039 0.19552 0.67547 0.0
C1183 C 0.47321 0.24301 0.6983 0.0
C1184 C 0.51405 0.32102 0.65902 0.0
H1185 H 0.54778 0.46903 0.71954 0.0
H1186 H 0.52009 0.40941 0.71653 0.0
H1187 H 0.54232 0.36994 0.64397 0.0
H1188 H 0.42139 0.20579 0.63712 0.0
H1189 H 0.46058 0.26489 0.63921 0.0
H1190 H 0.48847 0.30223 0.72061 0.0
C1191 C 0.541 0.42379 0.7041 0.0
C1192 C 0.53152 0.35558 0.66107 0.0
C1193 C 0.55659 0.45831 0.7055 0.0
C1194 C 0.43591 0.21586 0.65425 0.0
C1195 C 0.45876 0.24977 0.65542 0.0
C1196 C 0.50088 0.31654 0.70381 0.0
C1197 C 0.55163 0.40824 0.68656 0.0
C1198 C 0.53412 0.37121 0.68456 0.0
C1199 C 0.47699 0.26411 0.67779 0.0
C1200 C 0.49801 0.30093 0.68028 0.0
H1201 H 0.61353 0.47747 0.6583 0.0
H1202 H 0.58811 0.41776 0.65715 0.0
H1203 H 0.52076 0.36179 0.72455 0.0
H1204 H 0.44668 0.19388 0.71371 0.0
H1205 H 0.48747 0.25272 0.71556 0.0
C1206 C 0.75055 0.77091 0.7 0.0
C1207 C 0.7721 0.76372 0.68632 0.0
C1208 C 0.75809 0.80406 0.70284 0.0
C1209 C 0.8323 0.88747 0.70257 0.0
H1210 H 0.77399 0.92332 0.69307 0.0
C1211 C 0.8855 0.02574 0.68651 0.0
C1212 C 0.87257 0.0422 0.70073 0.0
C1213 C 0.86935 0.9912 0.68587 0.0
C1214 C 0.79044 0.91356 0.69606 0.0
H1215 H 0.81658 0.78511 0.66308 0.0
H1216 H 0.82911 0.84166 0.66761 0.0
H1217 H 0.75159 0.86311 0.69021 0.0
H1218 H 0.83139 0.03474 0.72459 0.0
H1219 H 0.80288 0.97406 0.72317 0.0
H1220 H 0.87121 0.93736 0.70787 0.0
C1221 C 0.80711 0.82237 0.67689 0.0
C1222 C 0.7776 0.87912 0.69448 0.0
C1223 C 0.79979 0.7898 0.67421 0.0
C1224 C 0.84206 0.02297 0.71337 0.0
C1225 C 0.82572 0.98819 0.7126 0.0
C1226 C 0.84503 0.92155 0.70402 0.0
C1227 C 0.78718 0.83021 0.69197 0.0
C1228 C 0.79867 0.86583 0.697 0.0
C1229 C 0.83963 0.97194 0.69931 0.0
C1230 C 0.82455 0.9352 0.70012 0.0
H1231 H 0.72905 0.75129 0.70951 0.0
H1232 H 0.74211 0.80935 0.71444 0.0
H1233 H 0.84909 0.87804 0.70527 0.0
H1234 H 0.90839 0.03957 0.67593 0.0
H1235 H 0.88036 0.97951 0.67493 0.0
C1236 C 1.00503 0.84305 0.71378 0.0
C1237 C 0.9853 0.85389 0.70155 0.0
C1238 C 0.03969 0.86081 0.71129 0.0
C1239 C 0.10767 0.9256 0.67126 0.0
H1240 H 0.1624 0.93933 0.73059 0.0
C1241 C 0.24086 0.03431 0.67934 0.0
C1242 C 0.26534 0.0293 0.69043 0.0
C1243 C 0.20776 0.00913 0.67914 0.0
C1244 C 0.14751 0.93529 0.71374 0.0
H1245 H 0.98692 0.89154 0.67643 0.0
H1246 H 0.04684 0.92275 0.67269 0.0
H1247 H 0.1024 0.90267 0.73342 0.0
H1248 H 0.27472 0.99374 0.70945 0.0
H1249 H 0.21621 0.94919 0.70937 0.0
H1250 H 0.15261 0.9591 0.65186 0.0
C1251 C 0.0357 0.90034 0.684 0.0
C1252 C 0.11305 0.91425 0.71534 0.0
C1253 C 1.00119 0.88263 0.68646 0.0
C1254 C 0.25625 0.99814 0.70076 0.0
C1255 C 0.22281 0.97284 0.70087 0.0
C1256 C 0.14198 0.94674 0.66974 0.0
C1257 C 0.05554 0.88982 0.69644 0.0
C1258 C 0.09254 0.90966 0.69425 0.0
C1259 C 0.19815 0.97817 0.69016 0.0
C1260 C 0.16229 0.95241 0.69108 0.0
H1261 H 0.99377 0.82119 0.72571 0.0
H1262 H 0.05403 0.85172 0.72097 0.0
H1263 H 0.09293 0.92209 0.65442 0.0
H1264 H 0.2473 0.05797 0.67096 0.0
H1265 H 0.18951 0.01427 0.67097 0.0
C1266 C 0.19009 0.18621 0.70243 0.0
C1267 C 0.17488 0.1523 0.69652 0.0
C1268 C 0.17285 0.20349 0.69942 0.0
C1269 C 0.10321 0.20062 0.66415 0.0
H1270 H 0.09688 0.25232 0.71932 0.0
C1271 C 0.99468 0.22306 0.67164 0.0
C1272 C 0.99866 0.25336 0.68031 0.0
C1273 C 0.02085 0.21683 0.67196 0.0
C1274 C 0.09896 0.2386 0.70353 0.0
H1275 H 0.12988 0.11017 0.6824 0.0
H1276 H 0.10006 0.14025 0.67685 0.0
H1277 H 0.13387 0.22933 0.72329 0.0
H1278 H 0.03401 0.30132 0.6956 0.0
H1279 H 0.0806 0.29033 0.6962 0.0
H1280 H 0.06815 0.20923 0.64449 0.0
C1281 C 0.12525 0.15352 0.68391 0.0
C1282 C 0.12004 0.22531 0.70583 0.0
C1283 C 0.14224 0.1362 0.68727 0.0
C1284 C 0.03014 0.27779 0.68877 0.0
C1285 C 0.05667 0.27138 0.68927 0.0
C1286 C 0.08248 0.21404 0.66177 0.0
C1287 C 0.14026 0.18735 0.68998 0.0
C1288 C 0.12154 0.20525 0.68648 0.0
C1289 C 0.05221 0.24069 0.68084 0.0
C1290 C 0.07912 0.2322 0.68176 0.0
H1291 H 0.21515 0.19925 0.70976 0.0
H1292 H 0.18512 0.22954 0.70421 0.0
H1293 H 0.10436 0.18592 0.64867 0.0
H1294 H 0.97101 0.20376 0.66455 0.0
H1295 H 0.01615 0.19275 0.66572 0.0
C1296 C 0.11079 0.40403 0.27675 0.0
C1297 C 0.11819 0.37838 0.27642 0.0
C1298 C 0.10184 0.41392 0.25436 0.0
C1299 C 0.06745 0.38204 0.18989 0.0
H1300 H 0.08856 0.47242 0.17779 0.0
C1301 C 1.01116 0.41533 0.10424 0.0
C1302 C 0.03346 0.44348 0.09035 0.0
C1303 C 0.02004 0.40894 0.12825 0.0
C1304 C 0.08247 0.44704 0.18077 0.0
H1305 H 0.12343 0.34384 0.25227 0.0
H1306 H 0.1092 0.36189 0.21287 0.0
H1307 H 0.11019 0.45931 0.21548 0.0
H1308 H 0.08167 0.48782 0.09106 0.0
H1309 H 0.09704 0.47711 0.13281 0.0
H1310 H 0.04051 0.36994 0.15481 0.0
C1311 C 0.10947 0.37397 0.23051 0.0
C1312 C 0.09469 0.43943 0.20259 0.0
C1313 C 0.11805 0.36385 0.25301 0.0
C1314 C 0.06389 0.46607 0.10151 0.0
C1315 C 0.07267 0.45988 0.1255 0.0
C1316 C 0.05525 0.38965 0.16807 0.0
C1317 C 0.10029 0.39853 0.23094 0.0
C1318 C 0.08755 0.40683 0.20745 0.0
C1319 C 0.05131 0.43073 0.13895 0.0
C1320 C 0.06268 0.4223 0.16309 0.0
H1321 H 0.10983 0.41504 0.29455 0.0
H1322 H 0.09452 0.43251 0.2557 0.0
H1323 H 0.06084 0.35655 0.19305 0.0
H1324 H 0.98774 0.3973 0.0959 0.0
H1325 H 1.00273 0.38646 0.13813 0.0
C1326 C 0.68229 0.74665 0.26742 0.0
C1327 C 0.65866 0.74574 0.28458 0.0
C1328 C 0.67254 0.72882 0.2446 0.0
C1329 C 0.60232 0.6876 0.19919 0.0
H1330 H 0.65178 0.64671 0.17461 0.0
C1331 C 0.59383 0.64559 0.09529 0.0
C1332 C 0.59502 0.61678 0.08932 0.0
C1333 C 0.59881 0.65778 0.1201 0.0
C1334 C 0.6374 0.65759 0.1813 0.0
H1335 H 0.60608 0.72573 0.29073 0.0
H1336 H 0.58899 0.69466 0.25085 0.0
H1337 H 0.66573 0.67496 0.21565 0.0
H1338 H 0.60192 0.57793 0.10538 0.0
H1339 H 0.6107 0.59937 0.14913 0.0
H1340 H 0.57388 0.6701 0.16496 0.0
C1341 C 0.61519 0.70936 0.25499 0.0
C1342 C 0.6457 0.67425 0.20474 0.0
C1343 C 0.62498 0.72727 0.27789 0.0
C1344 C 0.60082 0.60014 0.10921 0.0
C1345 C 0.60605 0.61258 0.13426 0.0
C1346 C 0.59406 0.671 0.17578 0.0
C1347 C 0.63883 0.70952 0.23814 0.0
C1348 C 0.62864 0.68999 0.21386 0.0
C1349 C 0.60518 0.64168 0.14 0.0
C1350 C 0.61184 0.65623 0.16624 0.0
H1351 H 0.70847 0.76075 0.27181 0.0
H1352 H 0.69157 0.7303 0.23195 0.0
H1353 H 0.58863 0.69943 0.20539 0.0
H1354 H 0.58929 0.6592 0.08069 0.0
H1355 H 0.59846 0.68047 0.12352 0.0
C1356 C 0.37475 0.9834 0.08618 0.0
C1357 C 0.40938 1.002 0.08262 0.0
C1358 C 0.36079 0.97548 0.11045 0.0
C1359 C 0.37798 0.96806 0.17843 0.0
H1360 H 0.29532 0.96763 0.18781 0.0
C1361 C 0.29584 0.91503 0.27005 0.0
C1362 C 0.2805 0.93242 0.27913 0.0
C1363 C 0.31247 0.92327 0.24645 0.0
C1364 C 0.31852 0.96783 0.18576 0.0
H1365 H 0.45632 0.02642 0.10258 0.0
H1366 H 0.43166 0.01301 0.14538 0.0
H1367 H 0.32403 0.98494 0.14742 0.0
H1368 H 0.27039 0.97188 0.27005 0.0
H1369 H 0.29929 0.98628 0.22974 0.0
H1370 H 0.3726 0.95168 0.21728 0.0
C1371 C 0.41545 1.00437 0.129 0.0
C1372 C 0.3349 0.97744 0.16233 0.0
C1373 C 0.42961 0.01232 0.10444 0.0
C1374 C 0.28175 0.95776 0.26381 0.0
C1375 C 0.2983 0.96598 0.24044 0.0
C1376 C 0.36155 0.95851 0.20207 0.0
C1377 C 0.38073 0.98594 0.13231 0.0
C1378 C 0.36474 0.97747 0.15814 0.0
C1379 C 0.31401 0.94899 0.23132 0.0
C1380 C 0.33152 0.95825 0.20607 0.0
H1381 H 0.35796 0.97425 0.07015 0.0
H1382 H 0.33409 0.96054 0.11199 0.0
H1383 H 0.40074 0.9675 0.17594 0.0
H1384 H 0.29563 0.89555 0.28139 0.0
H1385 H 0.32395 0.90937 0.24001 0.0
C1386 C 0.43707 0.07111 0.94501 0.0
C1387 C 0.44918 0.049 0.94438 0.0
C1388 C 0.42736 0.08015 0.92256 0.0
C1389 C 0.40001 0.05052 0.85646 0.0
H1390 H 0.41282 0.13837 0.84607 0.0
C1391 C 0.34179 0.08044 0.77024 0.0
C1392 C 0.36361 0.10917 0.75672 0.0
C1393 C 0.35048 0.07434 0.79441 0.0
C1394 C 0.40899 0.11368 0.84866 0.0
H1395 H 0.46149 0.01969 0.91974 0.0
H1396 H 0.44565 0.03621 0.88038 0.0
H1397 H 0.43404 0.12628 0.8846 0.0
H1398 H 0.41082 0.15467 0.75812 0.0
H1399 H 0.42565 0.1446 0.80041 0.0
H1400 H 0.37529 0.03805 0.82039 0.0
C1401 C 0.44303 0.04622 0.89823 0.0
C1402 C 0.42099 0.10666 0.87089 0.0
C1403 C 0.45249 0.03701 0.92073 0.0
C1404 C 0.39338 0.13251 0.76833 0.0
C1405 C 0.40186 0.12668 0.79256 0.0
C1406 C 0.38771 0.05745 0.83438 0.0
C1407 C 0.42963 0.06738 0.89884 0.0
C1408 C 0.41687 0.07501 0.87508 0.0
C1409 C 0.38099 0.09708 0.80567 0.0
C1410 C 0.3922 0.08919 0.83006 0.0
H1411 H 0.4333 0.07998 0.96294 0.0
H1412 H 0.41669 0.09602 0.92399 0.0
H1413 H 0.39601 0.02578 0.85899 0.0
H1414 H 0.31898 0.06181 0.76149 0.0
H1415 H 0.33368 0.05141 0.80401 0.0
C1416 C 0.96032 0.39616 0.93837 0.0
C1417 C 0.99353 0.413 0.94652 0.0
C1418 C 0.95163 0.37992 0.91464 0.0
C1419 C 0.98922 0.37799 0.85216 0.0
H1420 H 0.90892 0.29353 0.84281 0.0
C1421 C 0.94832 0.32236 0.7523 0.0
C1422 C 0.93382 0.28794 0.74861 0.0
C1423 C 0.95417 0.33604 0.77667 0.0
C1424 C 0.93162 0.31696 0.84514 0.0
H1425 H 0.04356 0.42606 0.93563 0.0
H1426 H 0.02858 0.39775 0.89521 0.0
H1427 H 0.92131 0.32054 0.88453 0.0
H1428 H 0.91382 0.24103 0.76842 0.0
H1429 H 0.92471 0.26516 0.81128 0.0
H1430 H 1.0002 0.37431 0.81327 0.0
C1431 C 1.00909 0.39728 0.90673 0.0
C1432 C 0.93851 0.33272 0.86902 0.0
C1433 C 0.01771 0.41343 0.93021 0.0
C1434 C 0.9252 0.26761 0.77037 0.0
C1435 C 0.93122 0.28147 0.79499 0.0
C1436 C 0.98243 0.3623 0.82847 0.0
C1437 C 0.97597 0.38027 0.89844 0.0
C1438 C 0.96751 0.3635 0.87291 0.0
C1439 C 0.94601 0.31599 0.79848 0.0
C1440 C 0.95345 0.33162 0.82444 0.0
H1441 H 0.94099 0.39507 0.95048 0.0
H1442 H 0.92588 0.36734 0.90891 0.0
H1443 H 0.01158 0.40181 0.85409 0.0
H1444 H 0.95491 0.33914 0.73631 0.0
H1445 H 0.96477 0.36257 0.77834 0.0
C1446 C 0.75314 0.68155 0.77357 0.0
C1447 C 0.74046 0.66045 0.7524 0.0
C1448 C 0.73757 0.67135 0.79754 0.0
C1449 C 0.65626 0.60796 0.8261 0.0
H1450 H 0.70385 0.63434 0.88993 0.0
C1451 C 0.58821 0.58257 0.92284 0.0
C1452 C 0.60279 0.57785 0.94458 0.0
C1453 C 0.60471 0.59026 0.89938 0.0
C1454 C 0.69013 0.6263 0.87229 0.0
H1455 H 0.70299 0.61125 0.74041 0.0
H1456 H 0.67709 0.5934 0.78154 0.0
H1457 H 0.73432 0.65348 0.84992 0.0
H1458 H 0.64544 0.57623 0.95866 0.0
H1459 H 0.67403 0.5887 0.91765 0.0
H1460 H 0.6123 0.57994 0.84815 0.0
C1461 C 0.69788 0.61833 0.77979 0.0
C1462 C 0.70765 0.63779 0.84926 0.0
C1463 C 0.71298 0.6286 0.75604 0.0
C1464 C 0.63341 0.5792 0.94213 0.0
C1465 C 0.65005 0.58702 0.91866 0.0
C1466 C 0.63886 0.59628 0.849 0.0
C1467 C 0.70928 0.63969 0.80087 0.0
C1468 C 0.69098 0.62865 0.82576 0.0
C1469 C 0.63637 0.59357 0.89704 0.0
C1470 C 0.65542 0.60523 0.87251 0.0
H1471 H 0.77434 0.70618 0.77142 0.0
H1472 H 0.74716 0.68861 0.81325 0.0
H1473 H 0.64221 0.6008 0.80858 0.0
H1474 H 0.56479 0.58207 0.92432 0.0
H1475 H 0.59335 0.59548 0.88346 0.0
C1476 C 0.72545 0.80308 0.44052 0.0
C1477 C 0.69447 0.78023 0.43025 0.0
C1478 C 0.73481 0.79811 0.46464 0.0
C1479 C 0.70615 0.75182 0.52526 0.0
H1480 H 0.793 0.75963 0.52517 0.0
C1481 C 0.76593 0.7369 0.61746 0.0
C1482 C 0.781 0.71741 0.61571 0.0
C1483 C 0.75624 0.74693 0.59554 0.0
C1484 C 0.76868 0.75724 0.52557 0.0
H1485 H 0.64805 0.7355 0.43785 0.0
H1486 H 0.66412 0.72701 0.48053 0.0
H1487 H 0.77264 0.77289 0.48678 0.0
H1488 H 0.79814 0.69346 0.5896 0.0
H1489 H 0.78191 0.71148 0.55114 0.0
H1490 H 0.70239 0.73648 0.56414 0.0
C1491 C 0.68124 0.74877 0.46981 0.0
C1492 C 0.75708 0.76512 0.50359 0.0
C1493 C 0.67189 0.75372 0.44547 0.0
C1494 C 0.78709 0.70896 0.59149 0.0
C1495 C 0.77774 0.71929 0.56948 0.0
C1496 C 0.71803 0.74449 0.54743 0.0
C1497 C 0.71335 0.77022 0.47923 0.0
C1498 C 0.72561 0.7624 0.50307 0.0
C1499 C 0.76158 0.73789 0.57121 0.0
C1500 C 0.74935 0.74682 0.54784 0.0
H1501 H 0.74331 0.82379 0.42919 0.0
H1502 H 0.75943 0.81547 0.47148 0.0
H1503 H 0.68188 0.74955 0.52557 0.0
H1504 H 0.75999 0.74302 0.63575 0.0
H1505 H 0.74406 0.76135 0.59768 0.0
C1506 C 0.22455 0.93467 0.43848 0.0
C1507 C 0.24825 0.9302 0.42535 0.0
C1508 C 0.23096 0.94807 0.46304 0.0
C1509 C 0.29093 0.97372 0.51772 0.0
H1510 H 0.25887 0.03451 0.53115 0.0
C1511 C 0.28843 0.05907 0.60669 0.0
C1512 C 0.32181 0.07421 0.61428 0.0
C1513 C 0.27771 0.04019 0.58422 0.0
C1514 C 0.26772 0.01736 0.52786 0.0
H1515 H 0.29677 0.93518 0.42784 0.0
H1516 H 0.3085 0.95921 0.47053 0.0
H1517 H 0.24343 1.00272 0.49181 0.0
H1518 H 0.3702 0.08219 0.60333 0.0
H1519 H 0.35151 0.04924 0.5648 0.0
H1520 H 0.31621 0.98948 0.55348 0.0
C1521 C 0.2845 0.95167 0.46228 0.0
C1522 C 0.25873 0.99888 0.50526 0.0
C1523 C 0.27782 0.93776 0.43777 0.0
C1524 C 0.34422 0.07064 0.59845 0.0
C1525 C 0.33348 0.05153 0.57629 0.0
C1526 C 0.30021 0.9925 0.54017 0.0
C1527 C 0.26156 0.95801 0.47502 0.0
C1528 C 0.27023 0.97676 0.49975 0.0
C1529 C 0.30004 0.03573 0.56896 0.0
C1530 C 0.28889 0.01472 0.5455 0.0
H1531 H 0.20158 0.92913 0.42925 0.0
H1532 H 0.2122 0.95156 0.4723 0.0
H1533 H 0.29994 0.95669 0.51457 0.0
H1534 H 0.27042 0.06113 0.61839 0.0
H1535 H 0.25175 0.02833 0.57915 0.0
C1536 C 0.97441 0.25555 0.60975 0.0
C1537 C 0.94055 0.24546 0.6101 0.0
C1538 C 0.99225 0.26426 0.58676 0.0
C1539 C 0.98131 0.25838 0.51586 0.0
H1540 H 0.0713 0.33249 0.51549 0.0
C1541 C 0.05909 0.29234 0.4244 0.0
C1542 C 0.08025 0.32584 0.41822 0.0
C1543 C 0.0445 0.28289 0.44845 0.0
C1544 C 0.04612 0.31192 0.51515 0.0
H1545 H 0.89853 0.23556 0.5867 0.0
H1546 H 0.92915 0.25026 0.54666 0.0
H1547 H 0.04056 0.31437 0.55549 0.0
H1548 H 0.10356 0.37573 0.43299 0.0
H1549 H 0.07737 0.35936 0.47519 0.0
H1550 H 0.98613 0.25657 0.47559 0.0
C1551 C 0.94222 0.25129 0.56394 0.0
C1552 C 0.02855 0.30115 0.53824 0.0
C1553 C 0.92454 0.24286 0.58692 0.0
C1554 C 0.0875 0.34972 0.43719 0.0
C1555 C 0.07242 0.34023 0.46139 0.0
C1556 C 0.99872 0.26921 0.49286 0.0
C1557 C 0.97657 0.26284 0.56349 0.0
C1558 C 0.99583 0.27412 0.53898 0.0
C1559 C 0.05005 0.30664 0.46718 0.0
C1560 C 0.03153 0.29599 0.49206 0.0
H1561 H 0.98752 0.25824 0.62732 0.0
H1562 H 0.01845 0.2725 0.58733 0.0
H1563 H 0.95639 0.23733 0.51544 0.0
H1564 H 0.05335 0.27319 0.4104 0.0
H1565 H 0.02849 0.25675 0.4522 0.0
loop_
_geom_bond_atom_site_label_1
_geom_bond_atom_site_label_2
_geom_bond_distance
_geom_bond_site_symmetry_2
_ccdc_geom_bond_type
Tb0 N29 2.617 . S
Tb0 N35 2.572 1_556 S
Tb0 O44 2.465 1_556 S
Tb0 O45 2.387 1_455 S
Tb0 O47 2.428 . S
Tb0 O48 2.308 1_556 S
Tb0 O52 2.349 . S
Tb0 O55 2.393 . S
Tb0 C64 2.802 . S
C1 N2 1.385 1_455 S
C1 C4 1.416 . S
C1 C8 1.424 . S
N2 C1 1.385 1_655 S
N2 C5 1.331 1_655 S
N2 Tb11 2.614 . S
C3 C5 1.390 . S
C3 C6 1.339 . S
C3 H23 0.930 . S
C4 C1 1.416 . S
C4 C6 1.416 . S
C4 C10 1.448 . S
C5 N2 1.331 1_455 S
C5 C3 1.390 . S
C5 H16 0.930 1_455 S
C6 C3 1.339 . S
C6 C4 1.416 . S
C6 H27 0.930 . S
C7 C8 1.430 . S
C7 C9 1.455 . S
C7 C13 1.371 1_554 S
C8 C1 1.424 . S
C8 C7 1.430 . S
C8 N12 1.361 1_454 S
C9 C7 1.455 . S
C9 C10 1.328 . S
C9 H24 0.929 . S
C10 C4 1.448 . S
C10 C9 1.328 . S
C10 H25 0.930 . S
Tb11 N2 2.614 . S
Tb11 N12 2.572 1_554 S
Tb11 O46 2.349 . S
Tb11 O49 2.393 . S
Tb11 O50 2.465 1_554 S
Tb11 O51 2.387 1_655 S
Tb11 O53 2.428 . S
Tb11 O54 2.308 1_554 S
Tb11 C75 2.802 . S
N12 C8 1.361 1_656 S
N12 Tb11 2.572 1_556 S
N12 C14 1.340 . S
C13 C7 1.371 1_556 S
C13 C15 1.332 . S
C13 H21 0.931 . S
C14 N12 1.340 . S
C14 C15 1.407 1_655 S
C14 H20 0.930 . S
C15 C13 1.332 . S
C15 C14 1.407 1_455 S
C15 H17 0.929 . S
H16 C5 0.930 1_655 S
H17 C15 0.929 . S
H18 C33 0.930 . S
H19 C40 0.929 . S
H20 C14 0.930 . S
H21 C13 0.931 . S
H22 C36 0.930 . S
H23 C3 0.930 . S
H24 C9 0.929 . S
H25 C10 0.930 . S
H26 C31 0.930 . S
H27 C6 0.930 . S
H28 C39 0.931 . S
N29 Tb0 2.617 . S
N29 C30 1.379 . S
N29 C33 1.334 . S
C30 N29 1.379 . S
C30 C32 1.416 1_455 S
C30 C38 1.424 . S
C31 H26 0.930 . S
C31 C33 1.390 1_655 S
C31 C34 1.339 . S
C32 C30 1.416 1_655 S
C32 C34 1.416 . S
C32 C65 1.448 . S
C33 H18 0.930 . S
C33 N29 1.334 . S
C33 C31 1.390 1_455 S
C34 C31 1.339 . S
C34 C32 1.416 . S
C34 H41 0.930 . S
N35 Tb0 2.572 1_554 S
N35 C36 1.340 . S
N35 C38 1.361 1_554 S
C36 H22 0.930 . S
C36 N35 1.340 . S
C36 C40 1.407 . S
C37 C38 1.413 1_654 S
C37 C39 1.416 . S
C37 C66 1.427 1_554 S
C38 C30 1.424 . S
C38 N35 1.361 1_556 S
C38 C37 1.413 1_456 S
C39 H28 0.931 . S
C39 C37 1.416 . S
C39 C40 1.332 1_655 S
C40 H19 0.929 . S
C40 C36 1.407 . S
C40 C39 1.332 1_455 S
H41 C34 0.930 . S
H42 C65 0.930 . S
H43 C66 0.929 . S
O44 Tb0 2.465 1_554 S
O44 C64 1.264 1_554 S
O45 Tb0 2.387 1_655 S
O45 C56 1.264 1_556 S
O46 Tb11 2.349 . S
O46 C56 1.243 . S
O47 Tb0 2.428 . S
O47 C64 1.256 . S
O48 Tb0 2.308 1_554 S
O48 C63 1.266 . S
O49 Tb11 2.393 . S
O49 C63 1.248 1_655 S
O50 Tb11 2.465 1_556 S
O50 C75 1.264 1_556 S
O51 Tb11 2.387 1_455 S
O51 C67 1.264 1_554 S
O52 Tb0 2.349 . S
O52 C67 1.243 . S
O53 Tb11 2.428 . S
O53 C75 1.256 . S
O54 Tb11 2.308 1_556 S
O54 C74 1.266 . S
O55 Tb0 2.393 . S
O55 C74 1.248 1_455 S
C56 O45 1.264 1_554 S
C56 O46 1.243 . S
C57 C60 1.399 . S
C57 C62 1.383 1_556 S
C57 C64 1.496 . S
C58 C59 1.399 1_554 S
C58 C62 1.389 . S
C59 C58 1.399 1_556 S
C59 C61 1.380 . S
C59 H76 0.929 . S
C60 C57 1.399 . S
C60 C61 1.392 . S
C60 H77 0.929 . S
C61 C59 1.380 . S
C61 C60 1.392 . S
C61 H78 0.929 . S
C62 C57 1.383 1_554 S
C62 C58 1.389 . S
C62 H79 0.931 . S
C63 O48 1.266 . S
C63 O49 1.248 1_455 S
C64 Tb0 2.802 . S
C64 O44 1.264 1_556 S
C64 O47 1.256 . S
C64 C57 1.496 . S
C65 C32 1.448 . S
C65 H42 0.930 . S
C65 C66 1.328 . S
C66 C37 1.427 1_556 S
C66 H43 0.929 . S
C66 C65 1.328 . S
C67 O51 1.264 1_556 S
C67 O52 1.243 . S
C68 C71 1.399 . S
C68 C72 1.383 1_554 S
C68 C75 1.496 . S
C69 C70 1.399 1_556 S
C69 C72 1.389 . S
C70 C69 1.399 1_554 S
C70 C73 1.380 . S
C70 H80 0.929 . S
C71 C68 1.399 . S
C71 C73 1.392 . S
C71 H81 0.929 . S
C72 C68 1.383 1_556 S
C72 C69 1.389 . S
C72 H82 0.931 . S
C73 C70 1.380 . S
C73 C71 1.392 . S
C73 H83 0.929 . S
C74 O54 1.266 . S
C74 O55 1.248 1_655 S
C75 Tb11 2.802 . S
C75 O50 1.264 1_554 S
C75 O53 1.256 . S
C75 C68 1.496 . S
H76 C59 0.929 . S
H77 C60 0.929 . S
H78 C61 0.929 . S
H79 C62 0.931 . S
H80 C70 0.929 . S
H81 C71 0.929 . S
H82 C72 0.931 . S
H83 C73 0.929 . S
Tb84 N113 2.617 . S
Tb84 N119 2.572 1_556 S
Tb84 O128 2.465 1_556 S
Tb84 O129 2.387 . S
Tb84 O131 2.428 . S
Tb84 O132 2.308 1_556 S
Tb84 O136 2.349 . S
Tb84 O139 2.393 . S
Tb84 C148 2.802 . S
C85 N86 1.379 . S
C85 C88 1.416 . S
C85 C92 1.424 . S
N86 C85 1.379 . S
N86 C89 1.334 . S
N86 Tb95 2.617 . S
C87 C89 1.390 . S
C87 C90 1.339 . S
C87 H107 0.930 . S
C88 C85 1.416 . S
C88 C90 1.416 . S
C88 C94 1.448 . S
C89 N86 1.334 . S
C89 C87 1.390 . S
C89 H100 0.930 . S
C90 C87 1.339 . S
C90 C88 1.416 . S
C90 H111 0.930 . S
C91 C92 1.429 . S
C91 C93 1.454 . S
C91 C97 1.373 1_554 S
C92 C85 1.424 . S
C92 C91 1.429 . S
C92 N96 1.361 1_554 S
C93 C91 1.454 . S
C93 C94 1.328 . S
C93 H108 0.929 . S
C94 C88 1.448 . S
C94 C93 1.328 . S
C94 H109 0.930 . S
Tb95 N86 2.617 . S
Tb95 N96 2.572 1_554 S
Tb95 O130 2.349 . S
Tb95 O133 2.393 . S
Tb95 O134 2.465 1_554 S
Tb95 O135 2.387 . S
Tb95 O137 2.428 . S
Tb95 O138 2.308 1_554 S
Tb95 C159 2.802 . S
N96 C92 1.361 1_556 S
N96 Tb95 2.572 1_556 S
N96 C98 1.340 . S
C97 C91 1.373 1_556 S
C97 C99 1.332 . S
C97 H105 0.931 . S
C98 N96 1.340 . S
C98 C99 1.407 . S
C98 H104 0.930 . S
C99 C97 1.332 . S
C99 C98 1.407 . S
C99 H101 0.929 . S
H100 C89 0.930 . S
H101 C99 0.929 . S
H102 C117 0.930 . S
H103 C124 0.929 . S
H104 C98 0.930 . S
H105 C97 0.931 . S
H106 C120 0.930 . S
H107 C87 0.930 . S
H108 C93 0.929 . S
H109 C94 0.930 . S
H110 C115 0.930 . S
H111 C90 0.930 . S
H112 C123 0.931 . S
N113 Tb84 2.617 . S
N113 C114 1.379 . S
N113 C117 1.334 . S
C114 N113 1.379 . S
C114 C116 1.416 . S
C114 C122 1.424 . S
C115 H110 0.930 . S
C115 C117 1.390 . S
C115 C118 1.339 . S
C116 C114 1.416 . S
C116 C118 1.416 . S
C116 C149 1.448 . S
C117 H102 0.930 . S
C117 N113 1.334 . S
C117 C115 1.390 . S
C118 C115 1.339 . S
C118 C116 1.416 . S
C118 H125 0.930 . S
N119 Tb84 2.572 1_554 S
N119 C120 1.340 . S
N119 C122 1.361 1_554 S
C120 H106 0.930 . S
C120 N119 1.340 . S
C120 C124 1.407 . S
C121 C122 1.413 1_554 S
C121 C123 1.416 . S
C121 C150 1.427 1_554 S
C122 C114 1.424 . S
C122 N119 1.361 1_556 S
C122 C121 1.413 1_556 S
C123 H112 0.931 . S
C123 C121 1.416 . S
C123 C124 1.332 . S
C124 H103 0.929 . S
C124 C120 1.407 . S
C124 C123 1.332 . S
H125 C118 0.930 . S
H126 C149 0.930 . S
H127 C150 0.929 . S
O128 Tb84 2.465 1_554 S
O128 C148 1.264 1_554 S
O129 Tb84 2.387 . S
O129 C140 1.264 1_556 S
O130 Tb95 2.349 . S
O130 C140 1.243 . S
O131 Tb84 2.428 . S
O131 C148 1.256 . S
O132 Tb84 2.308 1_554 S
O132 C147 1.266 . S
O133 Tb95 2.393 . S
O133 C147 1.248 . S
O134 Tb95 2.465 1_556 S
O134 C159 1.264 1_556 S
O135 Tb95 2.387 . S
O135 C151 1.264 1_554 S
O136 Tb84 2.349 . S
O136 C151 1.243 . S
O137 Tb95 2.428 . S
O137 C159 1.256 . S
O138 Tb95 2.308 1_556 S
O138 C158 1.266 . S
O139 Tb84 2.393 . S
O139 C158 1.248 . S
C140 O129 1.264 1_554 S
C140 O130 1.243 . S
C141 C144 1.399 . S
C141 C146 1.383 1_556 S
C141 C148 1.496 . S
C142 C143 1.399 1_554 S
C142 C146 1.389 . S
C143 C142 1.399 1_556 S
C143 C145 1.380 . S
C143 H160 0.929 . S
C144 C141 1.399 . S
C144 C145 1.392 . S
C144 H161 0.929 . S
C145 C143 1.380 . S
C145 C144 1.392 . S
C145 H162 0.929 . S
C146 C141 1.383 1_554 S
C146 C142 1.389 . S
C146 H163 0.931 . S
C147 O132 1.266 . S
C147 O133 1.248 . S
C148 Tb84 2.802 . S
C148 O128 1.264 1_556 S
C148 O131 1.256 . S
C148 C141 1.496 . S
C149 C116 1.448 . S
C149 H126 0.930 . S
C149 C150 1.328 . S
C150 C121 1.427 1_556 S
C150 H127 0.929 . S
C150 C149 1.328 . S
C151 O135 1.264 1_556 S
C151 O136 1.243 . S
C152 C155 1.399 . S
C152 C156 1.383 1_554 S
C152 C159 1.496 . S
C153 C154 1.399 1_556 S
C153 C156 1.389 . S
C154 C153 1.399 1_554 S
C154 C157 1.380 . S
C154 H164 0.929 . S
C155 C152 1.399 . S
C155 C157 1.392 . S
C155 H165 0.929 . S
C156 C152 1.383 1_556 S
C156 C153 1.389 . S
C156 H166 0.931 . S
C157 C154 1.380 . S
C157 C155 1.392 . S
C157 H167 0.929 . S
C158 O138 1.266 . S
C158 O139 1.248 . S
C159 Tb95 2.802 . S
C159 O134 1.264 1_554 S
C159 O137 1.256 . S
C159 C152 1.496 . S
H160 C143 0.929 . S
H161 C144 0.929 . S
H162 C145 0.929 . S
H163 C146 0.931 . S
H164 C154 0.929 . S
H165 C155 0.929 . S
H166 C156 0.931 . S
H167 C157 0.929 . S
Tb168 N197 2.617 . S
Tb168 N203 2.572 1_556 S
Tb168 O212 2.465 1_556 S
Tb168 O213 2.387 1_565 S
Tb168 O215 2.428 . S
Tb168 O216 2.308 1_556 S
Tb168 O220 2.349 . S
Tb168 O223 2.393 . S
Tb168 C232 2.802 . S
C169 N170 1.386 . S
C169 C172 1.410 1_545 S
C169 C176 1.423 . S
N170 C169 1.386 . S
N170 C173 1.334 . S
N170 Tb179 2.617 . S
C171 C173 1.390 1_565 S
C171 C174 1.339 . S
C171 H191 0.930 . S
C172 C169 1.410 1_565 S
C172 C174 1.416 . S
C172 C178 1.448 . S
C173 N170 1.334 . S
C173 C171 1.390 1_545 S
C173 H184 0.930 . S
C174 C171 1.339 . S
C174 C172 1.416 . S
C174 H195 0.930 . S
C175 C176 1.430 1_565 S
C175 C177 1.455 . S
C175 C181 1.372 1_554 S
C176 C169 1.423 . S
C176 C175 1.430 1_545 S
C176 N180 1.361 1_554 S
C177 C175 1.455 . S
C177 C178 1.328 . S
C177 H192 0.929 . S
C178 C172 1.448 . S
C178 C177 1.328 . S
C178 H193 0.930 . S
Tb179 N170 2.617 . S
Tb179 N180 2.572 1_554 S
Tb179 O214 2.349 . S
Tb179 O217 2.393 . S
Tb179 O218 2.465 1_554 S
Tb179 O219 2.387 1_545 S
Tb179 O221 2.428 . S
Tb179 O222 2.308 1_554 S
Tb179 C243 2.802 . S
N180 C176 1.361 1_556 S
N180 Tb179 2.572 1_556 S
N180 C182 1.340 . S
C181 C175 1.372 1_556 S
C181 C183 1.332 1_565 S
C181 H189 0.931 . S
C182 N180 1.340 . S
C182 C183 1.407 . S
C182 H188 0.930 . S
C183 C181 1.332 1_545 S
C183 C182 1.407 . S
C183 H185 0.929 . S
H184 C173 0.930 . S
H185 C183 0.929 . S
H186 C201 0.960 . S
H187 C208 0.929 . S
H188 C182 0.930 . S
H189 C181 0.931 . S
H190 C204 0.930 . S
H191 C171 0.930 . S
H192 C177 0.929 . S
H193 C178 0.930 . S
H194 C199 0.930 . S
H195 C174 0.930 . S
H196 C207 0.931 . S
N197 Tb168 2.617 . S
N197 C198 1.379 1_565 S
N197 C201 1.334 . S
C198 N197 1.379 1_545 S
C198 C200 1.416 . S
C198 C206 1.424 . S
C199 H194 0.930 . S
C199 C201 1.362 1_545 S
C199 C202 1.339 . S
C200 C198 1.416 . S
C200 C202 1.416 . S
C200 C233 1.448 . S
C201 H186 0.960 . S
C201 N197 1.334 . S
C201 C199 1.362 1_565 S
C202 C199 1.339 . S
C202 C200 1.416 . S
C202 H209 0.930 . S
N203 Tb168 2.572 1_554 S
N203 C204 1.340 . S
N203 C206 1.361 1_564 S
C204 H190 0.930 . S
C204 N203 1.340 . S
C204 C208 1.407 1_565 S
C205 C206 1.413 1_554 S
C205 C207 1.416 . S
C205 C234 1.427 1_554 S
C206 C198 1.424 . S
C206 N203 1.361 1_546 S
C206 C205 1.413 1_556 S
C207 H196 0.931 . S
C207 C205 1.416 . S
C207 C208 1.332 . S
C208 H187 0.929 . S
C208 C204 1.407 1_545 S
C208 C207 1.332 . S
H209 C202 0.930 . S
H210 C233 0.930 . S
H211 C234 0.929 . S
O212 Tb168 2.465 1_554 S
O212 C232 1.264 1_554 S
O213 Tb168 2.387 1_545 S
O213 C224 1.264 1_556 S
O214 Tb179 2.349 . S
O214 C224 1.243 . S
O215 Tb168 2.428 . S
O215 C232 1.256 . S
O216 Tb168 2.308 1_554 S
O216 C231 1.266 . S
O217 Tb179 2.393 . S
O217 C231 1.248 1_545 S
O218 Tb179 2.465 1_556 S
O218 C243 1.264 1_556 S
O219 Tb179 2.387 1_565 S
O219 C235 1.264 1_554 S
O220 Tb168 2.349 . S
O220 C235 1.243 . S
O221 Tb179 2.428 . S
O221 C243 1.256 . S
O222 Tb179 2.308 1_556 S
O222 C242 1.266 . S
O223 Tb168 2.393 . S
O223 C242 1.248 1_565 S
C224 O213 1.264 1_554 S
C224 O214 1.243 . S
C225 C228 1.399 . S
C225 C230 1.383 1_556 S
C225 C232 1.496 . S
C226 C227 1.399 1_554 S
C226 C230 1.389 . S
C227 C226 1.399 1_556 S
C227 C229 1.380 . S
C227 H244 0.929 . S
C228 C225 1.399 . S
C228 C229 1.392 . S
C228 H245 0.929 . S
C229 C227 1.380 . S
C229 C228 1.392 . S
C229 H246 0.929 . S
C230 C225 1.383 1_554 S
C230 C226 1.389 . S
C230 H247 0.931 . S
C231 O216 1.266 . S
C231 O217 1.248 1_565 S
C232 Tb168 2.802 . S
C232 O212 1.264 1_556 S
C232 O215 1.256 . S
C232 C225 1.496 . S
C233 C200 1.448 . S
C233 H210 0.930 . S
C233 C234 1.328 . S
C234 C205 1.427 1_556 S
C234 H211 0.929 . S
C234 C233 1.328 . S
C235 O219 1.264 1_556 S
C235 O220 1.243 . S
C236 C239 1.399 . S
C236 C240 1.383 1_554 S
C236 C243 1.496 . S
C237 C238 1.399 1_556 S
C237 C240 1.389 . S
C238 C237 1.399 1_554 S
C238 C241 1.380 . S
C238 H248 0.929 . S
C239 C236 1.399 . S
C239 C241 1.392 . S
C239 H249 0.929 . S
C240 C236 1.383 1_556 S
C240 C237 1.389 . S
C240 H250 0.931 . S
C241 C238 1.380 . S
C241 C239 1.392 . S
C241 H251 0.929 . S
C242 O222 1.266 . S
C242 O223 1.248 1_545 S
C243 Tb179 2.802 . S
C243 O218 1.264 1_554 S
C243 O221 1.256 . S
C243 C236 1.496 . S
H244 C227 0.929 . S
H245 C228 0.929 . S
H246 C229 0.929 . S
H247 C230 0.931 . S
H248 C238 0.929 . S
H249 C239 0.929 . S
H250 C240 0.931 . S
H251 C241 0.929 . S
Tb252 N281 2.617 . S
Tb252 N287 2.572 . S
Tb252 O296 2.465 . S
Tb252 O297 2.387 . S
Tb252 O299 2.428 . S
Tb252 O300 2.308 . S
Tb252 O304 2.349 . S
Tb252 O307 2.393 . S
Tb252 C316 2.802 . S
C253 N254 1.379 . S
C253 C256 1.416 . S
C253 C260 1.424 . S
N254 C253 1.379 . S
N254 C257 1.334 . S
N254 Tb263 2.617 . S
C255 C257 1.390 . S
C255 C258 1.339 . S
C255 H275 0.930 . S
C256 C253 1.416 . S
C256 C258 1.416 . S
C256 C262 1.448 . S
C257 N254 1.334 . S
C257 C255 1.390 . S
C257 H268 0.930 . S
C258 C255 1.339 . S
C258 C256 1.416 . S
C258 H279 0.930 . S
C259 C260 1.413 . S
C259 C261 1.427 . S
C259 C265 1.416 . S
C260 C253 1.424 . S
C260 C259 1.413 . S
C260 N264 1.361 . S
C261 C259 1.427 . S
C261 C262 1.328 . S
C261 H276 0.929 . S
C262 C256 1.448 . S
C262 C261 1.328 . S
C262 H277 0.930 . S
Tb263 N254 2.617 . S
Tb263 N264 2.572 . S
Tb263 O298 2.349 . S
Tb263 O301 2.393 . S
Tb263 O302 2.465 . S
Tb263 O303 2.387 . S
Tb263 O305 2.428 . S
Tb263 O306 2.308 . S
Tb263 C327 2.802 . S
N264 C260 1.361 . S
N264 Tb263 2.572 . S
N264 C266 1.340 . S
C265 C259 1.416 . S
C265 C267 1.332 . S
C265 H273 0.931 . S
C266 N264 1.340 . S
C266 C267 1.407 . S
C266 H272 0.930 . S
C267 C265 1.332 . S
C267 C266 1.407 . S
C267 H269 0.929 . S
H268 C257 0.930 . S
H269 C267 0.929 . S
H270 C285 0.930 . S
H271 C292 0.929 . S
H272 C266 0.930 . S
H273 C265 0.931 . S
H274 C288 0.930 . S
H275 C255 0.930 . S
H276 C261 0.929 . S
H277 C262 0.930 . S
H278 C283 0.930 . S
H279 C258 0.930 . S
H280 C291 0.931 . S
N281 Tb252 2.617 . S
N281 C282 1.379 . S
N281 C285 1.334 . S
C282 N281 1.379 . S
C282 C284 1.416 . S
C282 C290 1.424 . S
C283 H278 0.930 . S
C283 C285 1.390 . S
C283 C286 1.339 . S
C284 C282 1.416 . S
C284 C286 1.416 . S
C284 C317 1.448 . S
C285 H270 0.930 . S
C285 N281 1.334 . S
C285 C283 1.390 . S
C286 C283 1.339 . S
C286 C284 1.416 . S
C286 H293 0.930 . S
N287 Tb252 2.572 . S
N287 C288 1.340 . S
N287 C290 1.361 . S
C288 H274 0.930 . S
C288 N287 1.340 . S
C288 C292 1.407 . S
C289 C290 1.413 . S
C289 C291 1.416 . S
C289 C318 1.427 . S
C290 C282 1.424 . S
C290 N287 1.361 . S
C290 C289 1.413 . S
C291 H280 0.931 . S
C291 C289 1.416 . S
C291 C292 1.332 . S
C292 H271 0.929 . S
C292 C288 1.407 . S
C292 C291 1.332 . S
H293 C286 0.930 . S
H294 C317 0.930 . S
H295 C318 0.929 . S
O296 Tb252 2.465 . S
O296 C316 1.264 . S
O297 Tb252 2.387 . S
O297 C308 1.264 . S
O298 Tb263 2.349 . S
O298 C308 1.243 . S
O299 Tb252 2.428 . S
O299 C316 1.256 . S
O300 Tb252 2.308 . S
O300 C315 1.266 . S
O301 Tb263 2.393 . S
O301 C315 1.248 . S
O302 Tb263 2.465 . S
O302 C327 1.264 . S
O303 Tb263 2.387 . S
O303 C319 1.264 . S
O304 Tb252 2.349 . S
O304 C319 1.243 . S
O305 Tb263 2.428 . S
O305 C327 1.256 . S
O306 Tb263 2.308 . S
O306 C326 1.266 . S
O307 Tb252 2.393 . S
O307 C326 1.248 . S
C308 O297 1.264 . S
C308 O298 1.243 . S
C309 C312 1.399 . S
C309 C314 1.383 . S
C309 C316 1.496 . S
C310 C311 1.399 . S
C310 C314 1.389 . S
C311 C310 1.399 . S
C311 C313 1.380 . S
C311 H328 0.929 . S
C312 C309 1.399 . S
C312 C313 1.392 . S
C312 H329 0.929 . S
C313 C311 1.380 . S
C313 C312 1.392 . S
C313 H330 0.929 . S
C314 C309 1.383 . S
C314 C310 1.389 . S
C314 H331 0.931 . S
C315 O300 1.266 . S
C315 O301 1.248 . S
C316 Tb252 2.802 . S
C316 O296 1.264 . S
C316 O299 1.256 . S
C316 C309 1.496 . S
C317 C284 1.448 . S
C317 H294 0.930 . S
C317 C318 1.328 . S
C318 C289 1.427 . S
C318 H295 0.929 . S
C318 C317 1.328 . S
C319 O303 1.264 . S
C319 O304 1.243 . S
C320 C323 1.399 . S
C320 C324 1.383 . S
C320 C327 1.496 . S
C321 C322 1.399 . S
C321 C324 1.389 . S
C322 C321 1.399 . S
C322 C325 1.380 . S
C322 H332 0.929 . S
C323 C320 1.399 . S
C323 C325 1.392 . S
C323 H333 0.929 . S
C324 C320 1.383 . S
C324 C321 1.389 . S
C324 H334 0.931 . S
C325 C322 1.380 . S
C325 C323 1.392 . S
C325 H335 0.929 . S
C326 O306 1.266 . S
C326 O307 1.248 . S
C327 Tb263 2.802 . S
C327 O302 1.264 . S
C327 O305 1.256 . S
C327 C320 1.496 . S
H328 C311 0.929 . S
H329 C312 0.929 . S
H330 C313 0.929 . S
H331 C314 0.931 . S
H332 C322 0.929 . S
H333 C323 0.929 . S
H334 C324 0.931 . S
H335 C325 0.929 . S
Tb336 N365 2.617 . S
Tb336 N371 2.572 . S
Tb336 O380 2.465 . S
Tb336 O381 2.387 . S
Tb336 O383 2.428 . S
Tb336 O384 2.308 . S
Tb336 O388 2.349 . S
Tb336 O391 2.393 . S
Tb336 C400 2.802 . S
C337 N338 1.379 . S
C337 C340 1.416 . S
C337 C344 1.424 . S
N338 C337 1.379 . S
N338 C341 1.334 . S
N338 Tb347 2.617 . S
C339 C341 1.390 . S
C339 C342 1.339 . S
C339 H359 0.930 . S
C340 C337 1.416 . S
C340 C342 1.416 . S
C340 C346 1.448 . S
C341 N338 1.334 . S
C341 C339 1.390 . S
C341 H352 0.930 . S
C342 C339 1.339 . S
C342 C340 1.416 . S
C342 H363 0.930 . S
C343 C344 1.413 . S
C343 C345 1.427 . S
C343 C349 1.416 . S
C344 C337 1.424 . S
C344 C343 1.413 . S
C344 N348 1.361 . S
C345 C343 1.427 . S
C345 C346 1.328 . S
C345 H360 0.929 . S
C346 C340 1.448 . S
C346 C345 1.328 . S
C346 H361 0.930 . S
Tb347 N338 2.617 . S
Tb347 N348 2.572 . S
Tb347 O382 2.349 . S
Tb347 O385 2.393 . S
Tb347 O386 2.465 . S
Tb347 O387 2.387 . S
Tb347 O389 2.428 . S
Tb347 O390 2.308 . S
Tb347 C411 2.802 . S
N348 C344 1.361 . S
N348 Tb347 2.572 . S
N348 C350 1.340 . S
C349 C343 1.416 . S
C349 C351 1.332 . S
C349 H357 0.931 . S
C350 N348 1.340 . S
C350 C351 1.407 . S
C350 H356 0.930 . S
C351 C349 1.332 . S
C351 C350 1.407 . S
C351 H353 0.929 . S
H352 C341 0.930 . S
H353 C351 0.929 . S
H354 C369 0.930 . S
H355 C376 0.929 . S
H356 C350 0.930 . S
H357 C349 0.931 . S
H358 C372 0.930 . S
H359 C339 0.930 . S
H360 C345 0.929 . S
H361 C346 0.930 . S
H362 C367 0.930 . S
H363 C342 0.930 . S
H364 C375 0.931 . S
N365 Tb336 2.617 . S
N365 C366 1.379 . S
N365 C369 1.334 . S
C366 N365 1.379 . S
C366 C368 1.416 . S
C366 C374 1.424 . S
C367 H362 0.930 . S
C367 C369 1.390 . S
C367 C370 1.339 . S
C368 C366 1.416 . S
C368 C370 1.416 . S
C368 C401 1.448 1_565 S
C369 H354 0.930 . S
C369 N365 1.334 . S
C369 C367 1.390 . S
C370 C367 1.339 . S
C370 C368 1.416 . S
C370 H377 0.930 . S
N371 Tb336 2.572 . S
N371 C372 1.340 . S
N371 C374 1.361 . S
C372 H358 0.930 . S
C372 N371 1.340 . S
C372 C376 1.407 1_565 S
C373 C374 1.413 1_545 S
C373 C375 1.416 . S
C373 C402 1.427 . S
C374 C366 1.424 . S
C374 N371 1.361 . S
C374 C373 1.413 1_565 S
C375 H364 0.931 . S
C375 C373 1.416 . S
C375 C376 1.332 . S
C376 H355 0.929 . S
C376 C372 1.407 1_545 S
C376 C375 1.332 . S
H377 C370 0.930 . S
H378 C401 0.930 . S
H379 C402 0.929 . S
O380 Tb336 2.465 . S
O380 C400 1.264 . S
O381 Tb336 2.387 . S
O381 C392 1.264 . S
O382 Tb347 2.349 . S
O382 C392 1.243 . S
O383 Tb336 2.428 . S
O383 C400 1.256 . S
O384 Tb336 2.308 . S
O384 C399 1.266 . S
O385 Tb347 2.393 . S
O385 C399 1.248 . S
O386 Tb347 2.465 . S
O386 C411 1.264 . S
O387 Tb347 2.387 . S
O387 C403 1.264 . S
O388 Tb336 2.349 . S
O388 C403 1.243 . S
O389 Tb347 2.428 . S
O389 C411 1.256 . S
O390 Tb347 2.308 . S
O390 C410 1.266 . S
O391 Tb336 2.393 . S
O391 C410 1.248 . S
C392 O381 1.264 . S
C392 O382 1.243 . S
C393 C396 1.399 . S
C393 C398 1.383 . S
C393 C400 1.496 1_545 S
C394 C395 1.399 . S
C394 C398 1.389 . S
C395 C394 1.399 . S
C395 C397 1.380 . S
C395 H412 0.929 . S
C396 C393 1.399 . S
C396 C397 1.392 . S
C396 H413 0.929 . S
C397 C395 1.380 . S
C397 C396 1.392 . S
C397 H414 0.929 . S
C398 C393 1.383 . S
C398 C394 1.389 . S
C398 H415 0.931 . S
C399 O384 1.266 . S
C399 O385 1.248 . S
C400 Tb336 2.802 . S
C400 O380 1.264 . S
C400 O383 1.256 . S
C400 C393 1.496 1_565 S
C401 C368 1.448 1_545 S
C401 H378 0.930 . S
C401 C402 1.328 . S
C402 C373 1.427 . S
C402 H379 0.929 . S
C402 C401 1.328 . S
C403 O387 1.264 . S
C403 O388 1.243 . S
C404 C407 1.399 . S
C404 C408 1.383 . S
C404 C411 1.496 . S
C405 C406 1.399 . S
C405 C408 1.389 . S
C406 C405 1.399 . S
C406 C409 1.380 . S
C406 H416 0.929 . S
C407 C404 1.399 . S
C407 C409 1.392 . S
C407 H417 0.929 . S
C408 C404 1.383 . S
C408 C405 1.389 . S
C408 H418 0.931 . S
C409 C406 1.380 . S
C409 C407 1.392 . S
C409 H419 0.929 . S
C410 O390 1.266 . S
C410 O391 1.248 . S
C411 Tb347 2.802 . S
C411 O386 1.264 . S
C411 O389 1.256 . S
C411 C404 1.496 . S
H412 C395 0.929 . S
H413 C396 0.929 . S
H414 C397 0.929 . S
H415 C398 0.931 . S
H416 C406 0.929 . S
H417 C407 0.929 . S
H418 C408 0.931 . S
H419 C409 0.929 . S
Tb420 N449 2.617 . S
Tb420 N455 2.572 . S
Tb420 O464 2.465 . S
Tb420 O465 2.387 . S
Tb420 O467 2.428 . S
Tb420 O468 2.308 . S
Tb420 O472 2.349 . S
Tb420 O475 2.393 . S
Tb420 C484 2.802 . S
C421 N422 1.379 . S
C421 C424 1.416 . S
C421 C428 1.424 . S
N422 C421 1.379 . S
N422 C425 1.334 . S
N422 Tb431 2.617 . S
C423 C425 1.390 . S
C423 C426 1.339 . S
C423 H443 0.930 . S
C424 C421 1.416 . S
C424 C426 1.416 . S
C424 C430 1.448 . S
C425 N422 1.334 . S
C425 C423 1.390 . S
C425 H436 0.930 . S
C426 C423 1.339 . S
C426 C424 1.416 . S
C426 H447 0.930 . S
C427 C428 1.413 . S
C427 C429 1.427 . S
C427 C433 1.416 . S
C428 C421 1.424 . S
C428 C427 1.413 . S
C428 N432 1.361 . S
C429 C427 1.427 . S
C429 C430 1.328 . S
C429 H444 0.929 . S
C430 C424 1.448 . S
C430 C429 1.328 . S
C430 H445 0.930 . S
Tb431 N422 2.617 . S
Tb431 N432 2.572 . S
Tb431 O466 2.349 . S
Tb431 O469 2.393 . S
Tb431 O470 2.465 . S
Tb431 O471 2.387 . S
Tb431 O473 2.428 . S
Tb431 O474 2.308 . S
Tb431 C495 2.802 . S
N432 C428 1.361 . S
N432 Tb431 2.572 . S
N432 C434 1.340 . S
C433 C427 1.416 . S
C433 C435 1.332 . S
C433 H441 0.931 . S
C434 N432 1.340 . S
C434 C435 1.407 . S
C434 H440 0.930 . S
C435 C433 1.332 . S
C435 C434 1.407 . S
C435 H437 0.929 . S
H436 C425 0.930 . S
H437 C435 0.929 . S
H438 C453 0.930 . S
H439 C460 0.929 . S
H440 C434 0.930 . S
H441 C433 0.931 . S
H442 C456 0.930 . S
H443 C423 0.930 . S
H444 C429 0.929 . S
H445 C430 0.930 . S
H446 C451 0.930 . S
H447 C426 0.930 . S
H448 C459 0.931 . S
N449 Tb420 2.617 . S
N449 C450 1.379 . S
N449 C453 1.334 . S
C450 N449 1.379 . S
C450 C452 1.416 . S
C450 C458 1.424 . S
C451 H446 0.930 . S
C451 C453 1.390 . S
C451 C454 1.339 . S
C452 C450 1.416 . S
C452 C454 1.416 . S
C452 C485 1.448 1_455 S
C453 H438 0.930 . S
C453 N449 1.334 . S
C453 C451 1.390 . S
C454 C451 1.339 . S
C454 C452 1.416 . S
C454 H461 0.930 . S
N455 Tb420 2.572 . S
N455 C456 1.340 . S
N455 C458 1.361 . S
C456 H442 0.930 . S
C456 N455 1.340 . S
C456 C460 1.407 . S
C457 C458 1.410 1_655 S
C457 C459 1.417 . S
C457 C486 1.429 . S
C458 C450 1.424 . S
C458 N455 1.361 . S
C458 C457 1.410 1_455 S
C459 H448 0.931 . S
C459 C457 1.417 . S
C459 C460 1.332 1_655 S
C460 H439 0.929 . S
C460 C456 1.407 . S
C460 C459 1.332 1_455 S
H461 C454 0.930 . S
H462 C485 0.930 . S
H463 C486 0.929 . S
O464 Tb420 2.465 . S
O464 C484 1.264 . S
O465 Tb420 2.387 . S
O465 C476 1.264 . S
O466 Tb431 2.349 . S
O466 C476 1.243 . S
O467 Tb420 2.428 . S
O467 C484 1.256 . S
O468 Tb420 2.308 . S
O468 C483 1.266 . S
O469 Tb431 2.393 . S
O469 C483 1.248 . S
O470 Tb431 2.465 . S
O470 C495 1.264 . S
O471 Tb431 2.387 . S
O471 C487 1.264 . S
O472 Tb420 2.349 . S
O472 C487 1.243 . S
O473 Tb431 2.428 . S
O473 C495 1.256 . S
O474 Tb431 2.308 . S
O474 C494 1.266 . S
O475 Tb420 2.393 . S
O475 C494 1.248 . S
C476 O465 1.264 . S
C476 O466 1.243 . S
C477 C480 1.399 . S
C477 C482 1.383 . S
C477 C484 1.496 1_655 S
C478 C479 1.399 . S
C478 C482 1.389 . S
C479 C478 1.399 . S
C479 C481 1.380 . S
C479 H496 0.929 . S
C480 C477 1.399 . S
C480 C481 1.392 . S
C480 H497 0.929 . S
C481 C479 1.380 . S
C481 C480 1.392 . S
C481 H498 0.929 . S
C482 C477 1.383 . S
C482 C478 1.389 . S
C482 H499 0.931 . S
C483 O468 1.266 . S
C483 O469 1.248 . S
C484 Tb420 2.802 . S
C484 O464 1.264 . S
C484 O467 1.256 . S
C484 C477 1.496 1_455 S
C485 C452 1.448 1_655 S
C485 H462 0.930 . S
C485 C486 1.328 . S
C486 C457 1.429 . S
C486 H463 0.929 . S
C486 C485 1.328 . S
C487 O471 1.264 . S
C487 O472 1.243 . S
C488 C491 1.399 . S
C488 C492 1.383 . S
C488 C495 1.496 . S
C489 C490 1.399 . S
C489 C492 1.389 . S
C490 C489 1.399 . S
C490 C493 1.380 . S
C490 H500 0.929 . S
C491 C488 1.399 . S
C491 C493 1.392 . S
C491 H501 0.929 . S
C492 C488 1.383 . S
C492 C489 1.389 . S
C492 H502 0.931 . S
C493 C490 1.380 . S
C493 C491 1.392 . S
C493 H503 0.929 . S
C494 O474 1.266 . S
C494 O475 1.248 . S
C495 Tb431 2.802 . S
C495 O470 1.264 . S
C495 O473 1.256 . S
C495 C488 1.496 . S
H496 C479 0.929 . S
H497 C480 0.929 . S
H498 C481 0.929 . S
H499 C482 0.931 . S
H500 C490 0.929 . S
H501 C491 0.929 . S
H502 C492 0.931 . S
H503 C493 0.929 . S
Tb504 N533 2.617 . S
Tb504 N539 2.572 . S
Tb504 O548 2.465 . S
Tb504 O549 2.387 . S
Tb504 O551 2.428 . S
Tb504 O552 2.308 . S
Tb504 O556 2.349 . S
Tb504 O559 2.393 . S
Tb504 C568 2.802 . S
C505 N506 1.379 . S
C505 C508 1.416 . S
C505 C512 1.424 . S
N506 C505 1.379 . S
N506 C509 1.334 . S
N506 Tb515 2.617 . S
C507 C509 1.390 . S
C507 C510 1.339 . S
C507 H527 0.930 . S
C508 C505 1.416 . S
C508 C510 1.416 . S
C508 C514 1.448 . S
C509 N506 1.334 . S
C509 C507 1.390 . S
C509 H520 0.930 . S
C510 C507 1.339 . S
C510 C508 1.416 . S
C510 H531 0.930 . S
C511 C512 1.413 . S
C511 C513 1.427 . S
C511 C517 1.416 . S
C512 C505 1.424 . S
C512 C511 1.413 . S
C512 N516 1.361 . S
C513 C511 1.427 . S
C513 C514 1.328 . S
C513 H528 0.929 . S
C514 C508 1.448 . S
C514 C513 1.328 . S
C514 H529 0.930 . S
Tb515 N506 2.617 . S
Tb515 N516 2.572 . S
Tb515 O550 2.349 . S
Tb515 O553 2.393 . S
Tb515 O554 2.465 . S
Tb515 O555 2.387 . S
Tb515 O557 2.428 . S
Tb515 O558 2.308 . S
Tb515 C579 2.802 . S
N516 C512 1.361 . S
N516 Tb515 2.572 . S
N516 C518 1.340 . S
C517 C511 1.416 . S
C517 C519 1.332 . S
C517 H525 0.931 . S
C518 N516 1.340 . S
C518 C519 1.407 . S
C518 H524 0.930 . S
C519 C517 1.332 . S
C519 C518 1.407 . S
C519 H521 0.929 . S
H520 C509 0.930 . S
H521 C519 0.929 . S
H522 C537 0.930 . S
H523 C544 0.929 . S
H524 C518 0.930 . S
H525 C517 0.931 . S
H526 C540 0.930 . S
H527 C507 0.930 . S
H528 C513 0.929 . S
H529 C514 0.930 . S
H530 C535 0.930 . S
H531 C510 0.930 . S
H532 C543 0.931 . S
N533 Tb504 2.617 . S
N533 C534 1.379 . S
N533 C537 1.334 . S
C534 N533 1.379 . S
C534 C536 1.416 . S
C534 C542 1.424 . S
C535 H530 0.930 . S
C535 C537 1.390 . S
C535 C538 1.339 . S
C536 C534 1.416 . S
C536 C538 1.416 . S
C536 C569 1.448 1_545 S
C537 H522 0.930 . S
C537 N533 1.334 . S
C537 C535 1.390 . S
C538 C535 1.339 . S
C538 C536 1.416 . S
C538 H545 0.930 1_545 S
N539 Tb504 2.572 . S
N539 C540 1.340 . S
N539 C542 1.361 . S
C540 H526 0.930 . S
C540 N539 1.340 . S
C540 C544 1.407 . S
C541 C542 1.413 1_565 S
C541 C543 1.416 . S
C541 C570 1.427 . S
C542 C534 1.424 . S
C542 N539 1.361 . S
C542 C541 1.413 1_545 S
C543 H532 0.931 . S
C543 C541 1.416 . S
C543 C544 1.332 1_565 S
C544 H523 0.929 . S
C544 C540 1.407 . S
C544 C543 1.332 1_545 S
H545 C538 0.930 1_565 S
H546 C569 0.930 . S
H547 C570 0.929 . S
O548 Tb504 2.465 . S
O548 C568 1.264 . S
O549 Tb504 2.387 . S
O549 C560 1.264 . S
O550 Tb515 2.349 . S
O550 C560 1.243 . S
O551 Tb504 2.428 . S
O551 C568 1.256 . S
O552 Tb504 2.308 . S
O552 C567 1.266 . S
O553 Tb515 2.393 . S
O553 C567 1.248 . S
O554 Tb515 2.465 . S
O554 C579 1.264 . S
O555 Tb515 2.387 . S
O555 C571 1.264 . S
O556 Tb504 2.349 . S
O556 C571 1.243 . S
O557 Tb515 2.428 . S
O557 C579 1.256 . S
O558 Tb515 2.308 . S
O558 C578 1.266 . S
O559 Tb504 2.393 . S
O559 C578 1.248 . S
C560 O549 1.264 . S
C560 O550 1.243 . S
C561 C564 1.399 . S
C561 C566 1.383 . S
C561 C568 1.496 . S
C562 C563 1.399 . S
C562 C566 1.389 . S
C563 C562 1.399 . S
C563 C565 1.380 . S
C563 H580 0.929 . S
C564 C561 1.399 . S
C564 C565 1.392 . S
C564 H581 0.929 . S
C565 C563 1.380 . S
C565 C564 1.392 . S
C565 H582 0.929 . S
C566 C561 1.383 . S
C566 C562 1.389 . S
C566 H583 0.931 . S
C567 O552 1.266 . S
C567 O553 1.248 . S
C568 Tb504 2.802 . S
C568 O548 1.264 . S
C568 O551 1.256 . S
C568 C561 1.496 . S
C569 C536 1.448 1_565 S
C569 H546 0.930 . S
C569 C570 1.328 . S
C570 C541 1.427 . S
C570 H547 0.929 . S
C570 C569 1.328 . S
C571 O555 1.264 . S
C571 O556 1.243 . S
C572 C575 1.399 . S
C572 C576 1.383 . S
C572 C579 1.496 . S
C573 C574 1.399 . S
C573 C576 1.389 . S
C574 C573 1.399 . S
C574 C577 1.380 . S
C574 H584 0.929 . S
C575 C572 1.399 . S
C575 C577 1.392 . S
C575 H585 0.929 . S
C576 C572 1.383 . S
C576 C573 1.389 . S
C576 H586 0.931 . S
C577 C574 1.380 . S
C577 C575 1.392 . S
C577 H587 0.929 . S
C578 O558 1.266 . S
C578 O559 1.248 . S
C579 Tb515 2.802 . S
C579 O554 1.264 . S
C579 O557 1.256 . S
C579 C572 1.496 . S
H580 C563 0.929 . S
H581 C564 0.929 . S
H582 C565 0.929 . S
H583 C566 0.931 . S
H584 C574 0.929 . S
H585 C575 0.929 . S
H586 C576 0.931 . S
H587 C577 0.929 . S
Tb588 N617 2.617 . S
Tb588 N623 2.572 . S
Tb588 O632 2.465 . S
Tb588 O633 2.387 . S
Tb588 O635 2.428 . S
Tb588 O636 2.308 . S
Tb588 O640 2.349 . S
Tb588 O643 2.393 . S
Tb588 C652 2.802 . S
C589 N590 1.379 . S
C589 C592 1.416 . S
C589 C596 1.424 . S
N590 C589 1.379 . S
N590 C593 1.334 . S
N590 Tb599 2.617 . S
C591 C593 1.390 . S
C591 C594 1.339 . S
C591 H611 0.930 . S
C592 C589 1.416 . S
C592 C594 1.416 . S
C592 C598 1.448 . S
C593 N590 1.334 . S
C593 C591 1.390 . S
C593 H604 0.930 . S
C594 C591 1.339 . S
C594 C592 1.416 . S
C594 H615 0.930 . S
C595 C596 1.413 . S
C595 C597 1.427 . S
C595 C601 1.416 . S
C596 C589 1.424 . S
C596 C595 1.413 . S
C596 N600 1.361 . S
C597 C595 1.427 . S
C597 C598 1.328 . S
C597 H612 0.929 . S
C598 C592 1.448 . S
C598 C597 1.328 . S
C598 H613 0.930 . S
Tb599 N590 2.617 . S
Tb599 N600 2.572 . S
Tb599 O634 2.349 . S
Tb599 O637 2.393 . S
Tb599 O638 2.465 . S
Tb599 O639 2.387 . S
Tb599 O641 2.428 . S
Tb599 O642 2.308 . S
Tb599 C663 2.802 . S
N600 C596 1.361 . S
N600 Tb599 2.572 . S
N600 C602 1.340 . S
C601 C595 1.416 . S
C601 C603 1.332 . S
C601 H609 0.931 . S
C602 N600 1.340 . S
C602 C603 1.407 . S
C602 H608 0.930 . S
C603 C601 1.332 . S
C603 C602 1.407 . S
C603 H605 0.929 . S
H604 C593 0.930 . S
H605 C603 0.929 . S
H606 C621 0.930 . S
H607 C628 0.929 . S
H608 C602 0.930 . S
H609 C601 0.931 . S
H610 C624 0.930 . S
H611 C591 0.930 . S
H612 C597 0.929 . S
H613 C598 0.930 . S
H614 C619 0.930 . S
H615 C594 0.930 . S
H616 C627 0.931 . S
N617 Tb588 2.617 . S
N617 C618 1.379 . S
N617 C621 1.334 . S
C618 N617 1.379 . S
C618 C620 1.416 1_655 S
C618 C626 1.424 . S
C619 H614 0.930 . S
C619 C621 1.390 . S
C619 C622 1.371 . S
C620 C618 1.416 1_455 S
C620 C622 1.416 1_455 S
C620 C653 1.448 . S
C621 H606 0.930 . S
C621 N617 1.334 . S
C621 C619 1.390 . S
C622 C619 1.371 . S
C622 C620 1.416 1_655 S
C622 H629 0.901 1_655 S
N623 Tb588 2.572 . S
N623 C624 1.340 . S
N623 C626 1.361 . S
C624 H610 0.930 . S
C624 N623 1.340 . S
C624 C628 1.407 . S
C625 C626 1.413 1_455 S
C625 C627 1.416 . S
C625 C654 1.427 . S
C626 C618 1.424 . S
C626 N623 1.361 . S
C626 C625 1.413 1_655 S
C627 H616 0.931 . S
C627 C625 1.416 . S
C627 C628 1.332 1_455 S
C628 H607 0.929 . S
C628 C624 1.407 . S
C628 C627 1.332 1_655 S
H629 C622 0.901 1_455 S
H630 C653 0.930 . S
H631 C654 0.929 . S
O632 Tb588 2.465 . S
O632 C652 1.264 . S
O633 Tb588 2.387 . S
O633 C644 1.264 . S
O634 Tb599 2.349 . S
O634 C644 1.243 . S
O635 Tb588 2.428 . S
O635 C652 1.256 . S
O636 Tb588 2.308 . S
O636 C651 1.266 . S
O637 Tb599 2.393 . S
O637 C651 1.248 . S
O638 Tb599 2.465 . S
O638 C663 1.264 . S
O639 Tb599 2.387 . S
O639 C655 1.264 . S
O640 Tb588 2.349 . S
O640 C655 1.243 . S
O641 Tb599 2.428 . S
O641 C663 1.256 . S
O642 Tb599 2.308 . S
O642 C662 1.266 . S
O643 Tb588 2.393 . S
O643 C662 1.248 . S
C644 O633 1.264 . S
C644 O634 1.243 . S
C645 C648 1.399 . S
C645 C650 1.383 . S
C645 C652 1.496 . S
C646 C647 1.399 . S
C646 C650 1.389 . S
C647 C646 1.399 . S
C647 C649 1.380 . S
C647 H664 0.929 . S
C648 C645 1.399 . S
C648 C649 1.392 . S
C648 H665 0.929 . S
C649 C647 1.380 . S
C649 C648 1.392 . S
C649 H666 0.929 . S
C650 C645 1.383 . S
C650 C646 1.389 . S
C650 H667 0.931 . S
C651 O636 1.266 . S
C651 O637 1.248 . S
C652 Tb588 2.802 . S
C652 O632 1.264 . S
C652 O635 1.256 . S
C652 C645 1.496 . S
C653 C620 1.448 . S
C653 H630 0.930 . S
C653 C654 1.328 . S
C654 C625 1.427 . S
C654 H631 0.929 . S
C654 C653 1.328 . S
C655 O639 1.264 . S
C655 O640 1.243 . S
C656 C659 1.399 . S
C656 C660 1.383 . S
C656 C663 1.496 . S
C657 C658 1.399 . S
C657 C660 1.389 . S
C658 C657 1.399 . S
C658 C661 1.380 . S
C658 H668 0.929 . S
C659 C656 1.399 . S
C659 C661 1.392 . S
C659 H669 0.929 . S
C660 C656 1.383 . S
C660 C657 1.389 . S
C660 H670 0.931 . S
C661 C658 1.380 . S
C661 C659 1.392 . S
C661 H671 0.929 . S
C662 O642 1.266 . S
C662 O643 1.248 . S
C663 Tb599 2.802 . S
C663 O638 1.264 . S
C663 O641 1.256 . S
C663 C656 1.496 . S
H664 C647 0.929 . S
H665 C648 0.929 . S
H666 C649 0.929 . S
H667 C650 0.931 . S
H668 C658 0.929 . S
H669 C659 0.929 . S
H670 C660 0.931 . S
H671 C661 0.929 . S
Tb672 N701 2.617 . S
Tb672 N707 2.572 . S
Tb672 O716 2.465 . S
Tb672 O717 2.387 . S
Tb672 O719 2.428 . S
Tb672 O720 2.308 . S
Tb672 O724 2.349 . S
Tb672 O727 2.393 . S
Tb672 C736 2.802 . S
C673 N674 1.379 . S
C673 C676 1.416 . S
C673 C680 1.424 . S
N674 C673 1.379 . S
N674 C677 1.334 . S
N674 Tb683 2.617 . S
C675 C677 1.390 . S
C675 C678 1.339 . S
C675 H695 0.930 . S
C676 C673 1.416 . S
C676 C678 1.416 . S
C676 C682 1.448 . S
C677 N674 1.334 . S
C677 C675 1.390 . S
C677 H688 0.930 . S
C678 C675 1.339 . S
C678 C676 1.416 . S
C678 H699 0.930 . S
C679 C680 1.413 . S
C679 C681 1.427 . S
C679 C685 1.416 . S
C680 C673 1.424 . S
C680 C679 1.413 . S
C680 N684 1.361 . S
C681 C679 1.427 . S
C681 C682 1.328 . S
C681 H696 0.929 . S
C682 C676 1.448 . S
C682 C681 1.328 . S
C682 H697 0.930 . S
Tb683 N674 2.617 . S
Tb683 N684 2.572 . S
Tb683 O718 2.349 . S
Tb683 O721 2.393 . S
Tb683 O722 2.465 . S
Tb683 O723 2.387 . S
Tb683 O725 2.428 . S
Tb683 O726 2.308 . S
Tb683 C747 2.802 . S
N684 C680 1.361 . S
N684 Tb683 2.572 . S
N684 C686 1.340 . S
C685 C679 1.416 . S
C685 C687 1.332 . S
C685 H693 0.931 . S
C686 N684 1.340 . S
C686 C687 1.407 . S
C686 H692 0.930 . S
C687 C685 1.332 . S
C687 C686 1.407 . S
C687 H689 0.929 . S
H688 C677 0.930 . S
H689 C687 0.929 . S
H690 C705 0.930 . S
H691 C712 0.929 . S
H692 C686 0.930 . S
H693 C685 0.931 . S
H694 C708 0.930 . S
H695 C675 0.930 . S
H696 C681 0.929 . S
H697 C682 0.930 . S
H698 C703 0.930 . S
H699 C678 0.930 . S
H700 C711 0.931 . S
N701 Tb672 2.617 . S
N701 C702 1.379 . S
N701 C705 1.334 . S
C702 N701 1.379 . S
C702 C704 1.416 . S
C702 C710 1.424 . S
C703 H698 0.930 . S
C703 C705 1.390 . S
C703 C706 1.339 . S
C704 C702 1.416 . S
C704 C706 1.416 . S
C704 C737 1.448 . S
C705 H690 0.930 . S
C705 N701 1.334 . S
C705 C703 1.390 . S
C706 C703 1.339 . S
C706 C704 1.416 . S
C706 H713 0.930 . S
N707 Tb672 2.572 . S
N707 C708 1.340 . S
N707 C710 1.361 . S
C708 H694 0.930 . S
C708 N707 1.340 . S
C708 C712 1.407 . S
C709 C710 1.413 . S
C709 C711 1.416 . S
C709 C738 1.427 . S
C710 C702 1.424 . S
C710 N707 1.361 . S
C710 C709 1.413 . S
C711 H700 0.931 . S
C711 C709 1.416 . S
C711 C712 1.332 . S
C712 H691 0.929 . S
C712 C708 1.407 . S
C712 C711 1.332 . S
H713 C706 0.930 . S
H714 C737 0.930 . S
H715 C738 0.929 . S
O716 Tb672 2.465 . S
O716 C736 1.264 . S
O717 Tb672 2.387 . S
O717 C728 1.264 . S
O718 Tb683 2.349 . S
O718 C728 1.243 . S
O719 Tb672 2.428 . S
O719 C736 1.256 . S
O720 Tb672 2.308 . S
O720 C735 1.266 . S
O721 Tb683 2.393 . S
O721 C735 1.248 . S
O722 Tb683 2.465 . S
O722 C747 1.264 . S
O723 Tb683 2.387 . S
O723 C739 1.264 . S
O724 Tb672 2.349 . S
O724 C739 1.243 . S
O725 Tb683 2.428 . S
O725 C747 1.256 . S
O726 Tb683 2.308 . S
O726 C746 1.266 . S
O727 Tb672 2.393 . S
O727 C746 1.248 . S
C728 O717 1.264 . S
C728 O718 1.243 . S
C729 C732 1.399 . S
C729 C734 1.383 . S
C729 C736 1.496 . S
C730 C731 1.399 . S
C730 C734 1.389 . S
C731 C730 1.399 . S
C731 C733 1.380 . S
C731 H748 0.929 . S
C732 C729 1.399 . S
C732 C733 1.392 . S
C732 H749 0.929 . S
C733 C731 1.380 . S
C733 C732 1.392 . S
C733 H750 0.929 . S
C734 C729 1.383 . S
C734 C730 1.389 . S
C734 H751 0.931 . S
C735 O720 1.266 . S
C735 O721 1.248 . S
C736 Tb672 2.802 . S
C736 O716 1.264 . S
C736 O719 1.256 . S
C736 C729 1.496 . S
C737 C704 1.448 . S
C737 H714 0.930 . S
C737 C738 1.328 . S
C738 C709 1.427 . S
C738 H715 0.929 . S
C738 C737 1.328 . S
C739 O723 1.264 . S
C739 O724 1.243 . S
C740 C743 1.399 . S
C740 C744 1.383 . S
C740 C747 1.496 . S
C741 C742 1.399 . S
C741 C744 1.389 . S
C742 C741 1.399 . S
C742 C745 1.380 . S
C742 H752 0.929 . S
C743 C740 1.399 . S
C743 C745 1.392 . S
C743 H753 0.929 . S
C744 C740 1.383 . S
C744 C741 1.389 . S
C744 H754 0.931 . S
C745 C742 1.380 . S
C745 C743 1.392 . S
C745 H755 0.929 . S
C746 O726 1.266 . S
C746 O727 1.248 . S
C747 Tb683 2.802 . S
C747 O722 1.264 . S
C747 O725 1.256 . S
C747 C740 1.496 . S
H748 C731 0.929 . S
H749 C732 0.929 . S
H750 C733 0.929 . S
H751 C734 0.931 . S
H752 C742 0.929 . S
H753 C743 0.929 . S
H754 C744 0.931 . S
H755 C745 0.929 . S
C756 C757 1.349 . S
C756 C758 1.327 . S
C756 H781 0.950 . S
C757 C756 1.349 . S
C757 C773 1.349 1_556 S
C758 C756 1.327 . S
C758 C777 1.429 1_556 S
C758 H782 0.950 . S
C759 C776 1.574 . S
C759 C778 1.368 . S
C759 H783 0.949 . S
H760 C764 0.949 . S
C761 C762 1.349 . S
C761 C763 1.327 . S
C761 H784 0.950 . S
C762 C761 1.349 . S
C762 C774 1.367 . S
C763 C761 1.327 . S
C763 C779 1.429 . S
C763 H785 0.950 . S
C764 H760 0.949 . S
C764 C772 1.574 . S
C764 C780 1.368 1_556 S
H765 C773 0.950 . S
H766 C771 0.950 . S
H767 C772 0.949 . S
H768 C774 0.935 1_556 S
H769 C775 0.950 . S
H770 C776 0.949 . S
C771 H766 0.950 . S
C771 C773 1.327 . S
C771 C777 1.429 . S
C772 C764 1.574 . S
C772 H767 0.949 . S
C772 C778 1.368 1_556 S
C773 C757 1.349 1_554 S
C773 H765 0.950 . S
C773 C771 1.327 . S
C774 C762 1.367 . S
C774 H768 0.935 1_554 S
C774 C775 1.324 1_554 S
C775 H769 0.950 . S
C775 C774 1.324 1_556 S
C775 C779 1.429 1_556 S
C776 C759 1.574 . S
C776 H770 0.949 . S
C776 C780 1.368 . S
C777 C758 1.429 1_554 S
C777 C771 1.429 . S
C777 C778 1.523 . S
C778 C759 1.368 . S
C778 C772 1.368 1_554 S
C778 C777 1.523 . S
C779 C763 1.429 . S
C779 C775 1.429 1_554 S
C779 C780 1.523 . S
C780 C764 1.368 1_554 S
C780 C776 1.368 . S
C780 C779 1.523 . S
H781 C756 0.950 . S
H782 C758 0.950 . S
H783 C759 0.949 . S
H784 C761 0.950 . S
H785 C763 0.950 . S
C786 C787 1.349 1_554 S
C786 C788 1.327 . S
C786 H811 0.950 . S
C787 C786 1.349 1_556 S
C787 C803 1.349 . S
C788 C786 1.327 . S
C788 C807 1.429 . S
C788 H812 0.950 . S
C789 C806 1.574 . S
C789 C808 1.368 1_556 S
C789 H813 0.949 . S
H790 C794 0.949 . S
C791 C792 1.349 1_556 S
C791 C793 1.327 . S
C791 H814 0.950 . S
C792 C791 1.349 1_554 S
C792 C804 1.349 . S
C793 C791 1.327 . S
C793 C809 1.429 1_556 S
C793 H815 0.950 . S
C794 H790 0.949 . S
C794 C802 1.574 . S
C794 C810 1.368 . S
H795 C803 0.950 . S
H796 C801 0.950 . S
H797 C802 0.949 . S
H798 C804 0.950 . S
H799 C805 0.950 . S
H800 C806 0.949 . S
C801 H796 0.950 . S
C801 C803 1.327 . S
C801 C807 1.429 1_556 S
C802 C794 1.574 . S
C802 H797 0.949 . S
C802 C808 1.368 . S
C803 C787 1.349 . S
C803 H795 0.950 . S
C803 C801 1.327 . S
C804 C792 1.349 . S
C804 H798 0.950 . S
C804 C805 1.327 . S
C805 H799 0.950 . S
C805 C804 1.327 . S
C805 C809 1.429 . S
C806 C789 1.574 . S
C806 H800 0.949 . S
C806 C810 1.368 1_556 S
C807 C788 1.429 . S
C807 C801 1.429 1_554 S
C807 C808 1.523 . S
C808 C789 1.368 1_554 S
C808 C802 1.368 . S
C808 C807 1.523 . S
C809 C793 1.429 1_554 S
C809 C805 1.429 . S
C809 C810 1.523 . S
C810 C794 1.368 . S
C810 C806 1.368 1_554 S
C810 C809 1.523 . S
H811 C786 0.950 . S
H812 C788 0.950 . S
H813 C789 0.949 . S
H814 C791 0.950 . S
H815 C793 0.950 . S
C816 C817 1.349 . S
C816 C818 1.327 1_554 S
C816 H841 0.950 1_554 S
C817 C816 1.349 . S
C817 C833 1.349 . S
C818 C816 1.327 1_556 S
C818 C837 1.429 1_556 S
C818 H842 0.950 . S
C819 C836 1.574 . S
C819 C838 1.368 . S
C819 H843 0.949 . S
H820 C824 0.949 . S
C821 C822 1.349 1_554 S
C821 C823 1.327 . S
C821 H844 0.950 . S
C822 C821 1.349 1_556 S
C822 C834 1.349 . S
C823 C821 1.327 . S
C823 C839 1.429 . S
C823 H845 0.950 . S
C824 H820 0.949 . S
C824 C832 1.574 . S
C824 C840 1.368 1_556 S
H825 C833 0.950 . S
H826 C831 0.950 . S
H827 C832 0.949 . S
H828 C834 0.950 . S
H829 C835 0.950 . S
H830 C836 0.949 . S
C831 H826 0.950 . S
C831 C833 1.327 . S
C831 C837 1.429 . S
C832 C824 1.574 . S
C832 H827 0.949 . S
C832 C838 1.368 1_556 S
C833 C817 1.349 . S
C833 H825 0.950 . S
C833 C831 1.327 . S
C834 C822 1.349 . S
C834 H828 0.950 . S
C834 C835 1.327 . S
C835 H829 0.950 . S
C835 C834 1.327 . S
C835 C839 1.429 1_556 S
C836 C819 1.574 . S
C836 H830 0.949 . S
C836 C840 1.368 . S
C837 C818 1.429 1_554 S
C837 C831 1.429 . S
C837 C838 1.523 . S
C838 C819 1.368 . S
C838 C832 1.368 1_554 S
C838 C837 1.523 . S
C839 C823 1.429 . S
C839 C835 1.429 1_554 S
C839 C840 1.523 . S
C840 C824 1.368 1_554 S
C840 C836 1.368 . S
C840 C839 1.523 . S
H841 C816 0.950 1_556 S
H842 C818 0.950 . S
H843 C819 0.949 . S
H844 C821 0.950 . S
H845 C823 0.950 . S
C846 C847 1.349 . S
C846 C848 1.327 . S
C846 H871 0.950 . S
C847 C846 1.349 . S
C847 C863 1.349 1_554 S
C848 C846 1.327 . S
C848 C867 1.429 . S
C848 H872 0.950 . S
C849 C866 1.574 . S
C849 C868 1.372 . S
C849 H873 0.949 . S
H850 C854 0.949 . S
C851 C852 1.349 . S
C851 C853 1.327 . S
C851 H874 0.950 . S
C852 C851 1.349 . S
C852 C864 1.349 . S
C853 C851 1.327 . S
C853 C869 1.429 . S
C853 H875 0.950 . S
C854 H850 0.949 . S
C854 C862 1.574 . S
C854 C870 1.368 1_554 S
H855 C863 0.950 . S
H856 C861 0.950 . S
H857 C862 0.949 . S
H858 C864 0.951 1_554 S
H859 C865 0.950 1_554 S
H860 C866 0.949 . S
C861 H856 0.950 . S
C861 C863 1.327 . S
C861 C867 1.429 1_556 S
C862 C854 1.574 . S
C862 H857 0.949 . S
C862 C868 1.365 1_554 S
C863 C847 1.349 1_556 S
C863 H855 0.950 . S
C863 C861 1.327 . S
C864 C852 1.349 . S
C864 H858 0.951 1_556 S
C864 C865 1.327 . S
C865 H859 0.950 1_556 S
C865 C864 1.327 . S
C865 C869 1.429 . S
C866 C849 1.574 . S
C866 H860 0.949 . S
C866 C870 1.368 . S
C867 C848 1.429 . S
C867 C861 1.429 1_554 S
C867 C868 1.522 1_554 S
C868 C849 1.372 . S
C868 C862 1.365 1_556 S
C868 C867 1.522 1_556 S
C869 C853 1.429 . S
C869 C865 1.429 . S
C869 C870 1.523 . S
C870 C854 1.368 1_556 S
C870 C866 1.368 . S
C870 C869 1.523 . S
H871 C846 0.950 . S
H872 C848 0.950 . S
H873 C849 0.949 . S
H874 C851 0.950 . S
H875 C853 0.950 . S
C876 C877 1.349 . S
C876 C878 1.327 . S
C876 H901 0.950 . S
C877 C876 1.349 . S
C877 C893 1.349 1_556 S
C878 C876 1.327 . S
C878 C897 1.429 . S
C878 H902 0.950 . S
C879 C896 1.574 . S
C879 C898 1.368 1_554 S
C879 H903 0.949 . S
H880 C884 0.949 . S
C881 C882 1.349 . S
C881 C883 1.327 . S
C881 H904 0.950 . S
C882 C881 1.349 . S
C882 C894 1.349 1_554 S
C883 C881 1.327 . S
C883 C899 1.429 . S
C883 H905 0.950 . S
C884 H880 0.949 . S
C884 C892 1.574 . S
C884 C900 1.375 . S
H885 C893 0.950 . S
H886 C891 0.950 . S
H887 C892 0.949 . S
H888 C894 0.950 . S
H889 C895 0.950 . S
H890 C896 0.949 . S
C891 H886 0.950 . S
C891 C893 1.327 . S
C891 C897 1.429 1_554 S
C892 C884 1.574 . S
C892 H887 0.949 . S
C892 C898 1.368 . S
C893 C877 1.349 1_554 S
C893 H885 0.950 . S
C893 C891 1.327 . S
C894 C882 1.349 1_556 S
C894 H888 0.950 . S
C894 C895 1.327 . S
C895 H889 0.950 . S
C895 C894 1.327 . S
C895 C899 1.429 1_556 S
C896 C879 1.574 . S
C896 H890 0.949 . S
C896 C900 1.362 1_554 S
C897 C878 1.429 . S
C897 C891 1.429 1_556 S
C897 C898 1.523 . S
C898 C879 1.368 1_556 S
C898 C892 1.368 . S
C898 C897 1.523 . S
C899 C883 1.429 . S
C899 C895 1.429 1_554 S
C899 C900 1.522 1_554 S
C900 C884 1.375 . S
C900 C896 1.362 1_556 S
C900 C899 1.522 1_556 S
H901 C876 0.950 . S
H902 C878 0.950 . S
H903 C879 0.949 . S
H904 C881 0.950 . S
H905 C883 0.950 . S
C906 C907 1.349 . S
C906 C908 1.327 . S
C906 H931 0.950 . S
C907 C906 1.349 . S
C907 C923 1.349 . S
C908 C906 1.327 . S
C908 C927 1.429 . S
C908 H932 0.950 . S
C909 C926 1.574 . S
C909 C928 1.368 1_554 S
C909 H933 0.949 . S
H910 C914 0.949 . S
C911 C912 1.349 . S
C911 C913 1.327 . S
C911 H934 0.950 . S
C912 C911 1.349 . S
C912 C924 1.349 1_554 S
C913 C911 1.327 . S
C913 C929 1.429 . S
C913 H935 0.950 . S
C914 H910 0.949 . S
C914 C922 1.574 . S
C914 C930 1.373 . S
H915 C923 0.950 1_554 S
H916 C921 0.948 1_554 S
H917 C922 0.949 . S
H918 C924 0.950 . S
H919 C925 0.950 . S
H920 C926 0.949 . S
C921 H916 0.948 1_556 S
C921 C923 1.328 . S
C921 C927 1.430 . S
C922 C914 1.574 . S
C922 H917 0.949 . S
C922 C928 1.368 . S
C923 C907 1.349 . S
C923 H915 0.950 1_556 S
C923 C921 1.328 . S
C924 C912 1.349 1_556 S
C924 H918 0.950 . S
C924 C925 1.327 . S
C925 H919 0.950 . S
C925 C924 1.327 . S
C925 C929 1.429 1_556 S
C926 C909 1.574 . S
C926 H920 0.949 . S
C926 C930 1.364 1_554 S
C927 C908 1.429 . S
C927 C921 1.430 . S
C927 C928 1.523 . S
C928 C909 1.368 1_556 S
C928 C922 1.368 . S
C928 C927 1.523 . S
C929 C913 1.429 . S
C929 C925 1.429 1_554 S
C929 C930 1.522 1_554 S
C930 C914 1.373 . S
C930 C926 1.364 1_556 S
C930 C929 1.522 1_556 S
H931 C906 0.950 . S
H932 C908 0.950 . S
H933 C909 0.949 . S
H934 C911 0.950 . S
H935 C913 0.950 . S
C936 C937 1.349 . S
C936 C938 1.327 . S
C936 H961 0.950 . S
C937 C936 1.349 . S
C937 C953 1.349 . S
C938 C936 1.327 . S
C938 C957 1.429 . S
C938 H962 0.950 . S
C939 C956 1.574 1_655 S
C939 C958 1.368 . S
C939 H963 0.949 . S
H940 C944 0.949 . S
C941 C942 1.349 . S
C941 C943 1.327 . S
C941 H964 0.950 . S
C942 C941 1.349 . S
C942 C954 1.349 . S
C943 C941 1.327 . S
C943 C959 1.429 . S
C943 H965 0.950 . S
C944 H940 0.949 . S
C944 C952 1.574 1_455 S
C944 C960 1.368 . S
H945 C953 0.950 . S
H946 C951 0.950 . S
H947 C952 0.949 . S
H948 C954 0.950 . S
H949 C955 0.950 . S
H950 C956 0.949 . S
C951 H946 0.950 . S
C951 C953 1.327 . S
C951 C957 1.429 . S
C952 C944 1.574 1_655 S
C952 H947 0.949 . S
C952 C958 1.368 . S
C953 C937 1.349 . S
C953 H945 0.950 . S
C953 C951 1.327 . S
C954 C942 1.349 . S
C954 H948 0.950 . S
C954 C955 1.327 . S
C955 H949 0.950 . S
C955 C954 1.327 . S
C955 C959 1.429 . S
C956 C939 1.574 1_455 S
C956 H950 0.949 . S
C956 C960 1.368 . S
C957 C938 1.429 . S
C957 C951 1.429 . S
C957 C958 1.523 . S
C958 C939 1.368 . S
C958 C952 1.368 . S
C958 C957 1.523 . S
C959 C943 1.429 . S
C959 C955 1.429 . S
C959 C960 1.523 . S
C960 C944 1.368 . S
C960 C956 1.368 . S
C960 C959 1.523 . S
H961 C936 0.950 . S
H962 C938 0.950 . S
H963 C939 0.949 . S
H964 C941 0.950 . S
H965 C943 0.950 . S
C966 C967 1.349 . S
C966 C968 1.327 . S
C966 H991 0.950 . S
C967 C966 1.349 . S
C967 C983 1.349 . S
C968 C966 1.327 . S
C968 C987 1.429 . S
C968 H992 0.950 . S
C969 C986 1.574 . S
C969 C988 1.368 . S
C969 H993 0.949 . S
H970 C974 0.949 . S
C971 C972 1.349 . S
C971 C973 1.327 . S
C971 H994 0.950 . S
C972 C971 1.349 . S
C972 C984 1.349 . S
C973 C971 1.327 . S
C973 C989 1.429 . S
C973 H995 0.950 . S
C974 H970 0.949 . S
C974 C982 1.574 . S
C974 C990 1.368 . S
H975 C983 0.950 . S
H976 C981 0.950 . S
H977 C982 0.949 . S
H978 C984 0.950 . S
H979 C985 0.950 . S
H980 C986 0.949 . S
C981 H976 0.950 . S
C981 C983 1.327 . S
C981 C987 1.429 . S
C982 C974 1.574 . S
C982 H977 0.949 . S
C982 C988 1.368 . S
C983 C967 1.349 . S
C983 H975 0.950 . S
C983 C981 1.327 . S
C984 C972 1.349 . S
C984 H978 0.950 . S
C984 C985 1.327 . S
C985 H979 0.950 . S
C985 C984 1.327 . S
C985 C989 1.429 . S
C986 C969 1.574 . S
C986 H980 0.949 . S
C986 C990 1.368 . S
C987 C968 1.429 . S
C987 C981 1.429 . S
C987 C988 1.523 . S
C988 C969 1.368 . S
C988 C982 1.368 . S
C988 C987 1.523 . S
C989 C973 1.429 . S
C989 C985 1.429 . S
C989 C990 1.523 . S
C990 C974 1.368 . S
C990 C986 1.368 . S
C990 C989 1.523 . S
H991 C966 0.950 . S
H992 C968 0.950 . S
H993 C969 0.949 . S
H994 C971 0.950 . S
H995 C973 0.950 . S
C996 C997 1.349 . S
C996 C998 1.327 . S
C996 H1021 0.950 . S
C997 C996 1.349 . S
C997 C1013 1.349 . S
C998 C996 1.327 . S
C998 C1017 1.429 . S
C998 H1022 0.950 . S
C999 C1016 1.568 1_545 S
C999 C1018 1.368 . S
C999 H1023 0.949 . S
H1000 C1004 0.949 . S
C1001 C1002 1.349 . S
C1001 C1003 1.327 . S
C1001 H1024 0.950 . S
C1002 C1001 1.349 . S
C1002 C1014 1.349 . S
C1003 C1001 1.327 . S
C1003 C1019 1.429 . S
C1003 H1025 0.950 . S
C1004 H1000 0.949 . S
C1004 C1012 1.574 1_565 S
C1004 C1020 1.368 . S
H1005 C1013 0.950 . S
H1006 C1011 0.950 . S
H1007 C1012 0.949 . S
H1008 C1014 0.950 . S
H1009 C1015 0.950 . S
H1010 C1016 0.950 . S
C1011 H1006 0.950 . S
C1011 C1013 1.327 . S
C1011 C1017 1.429 . S
C1012 C1004 1.574 1_545 S
C1012 H1007 0.949 . S
C1012 C1018 1.368 . S
C1013 C997 1.349 . S
C1013 H1005 0.950 . S
C1013 C1011 1.327 . S
C1014 C1002 1.349 . S
C1014 H1008 0.950 . S
C1014 C1015 1.327 . S
C1015 H1009 0.950 . S
C1015 C1014 1.327 . S
C1015 C1019 1.429 . S
C1016 C999 1.568 1_565 S
C1016 H1010 0.950 . S
C1016 C1020 1.373 . S
C1017 C998 1.429 . S
C1017 C1011 1.429 . S
C1017 C1018 1.523 . S
C1018 C999 1.368 . S
C1018 C1012 1.368 . S
C1018 C1017 1.523 . S
C1019 C1003 1.429 . S
C1019 C1015 1.429 . S
C1019 C1020 1.523 . S
C1020 C1004 1.368 . S
C1020 C1016 1.373 . S
C1020 C1019 1.523 . S
H1021 C996 0.950 . S
H1022 C998 0.950 . S
H1023 C999 0.949 . S
H1024 C1001 0.950 . S
H1025 C1003 0.950 . S
C1026 C1027 1.349 . S
C1026 C1028 1.327 . S
C1026 H1051 0.950 . S
C1027 C1026 1.349 . S
C1027 C1043 1.349 . S
C1028 C1026 1.327 . S
C1028 C1047 1.429 . S
C1028 H1052 0.950 . S
C1029 C1046 1.574 . S
C1029 C1048 1.368 . S
C1029 H1053 0.949 . S
H1030 C1034 0.949 . S
C1031 C1032 1.349 . S
C1031 C1033 1.327 . S
C1031 H1054 0.950 . S
C1032 C1031 1.349 . S
C1032 C1044 1.349 . S
C1033 C1031 1.327 . S
C1033 C1049 1.429 . S
C1033 H1055 0.950 . S
C1034 H1030 0.949 . S
C1034 C1042 1.574 . S
C1034 C1050 1.368 . S
H1035 C1043 0.950 . S
H1036 C1041 0.950 . S
H1037 C1042 0.949 . S
H1038 C1044 0.950 . S
H1039 C1045 0.950 . S
H1040 C1046 0.949 . S
C1041 H1036 0.950 . S
C1041 C1043 1.327 . S
C1041 C1047 1.429 . S
C1042 C1034 1.574 . S
C1042 H1037 0.949 . S
C1042 C1048 1.368 . S
C1043 C1027 1.349 . S
C1043 H1035 0.950 . S
C1043 C1041 1.327 . S
C1044 C1032 1.349 . S
C1044 H1038 0.950 . S
C1044 C1045 1.327 . S
C1045 H1039 0.950 . S
C1045 C1044 1.327 . S
C1045 C1049 1.429 . S
C1046 C1029 1.574 . S
C1046 H1040 0.949 . S
C1046 C1050 1.368 . S
C1047 C1028 1.429 . S
C1047 C1041 1.429 . S
C1047 C1048 1.523 . S
C1048 C1029 1.368 . S
C1048 C1042 1.368 . S
C1048 C1047 1.523 . S
C1049 C1033 1.429 . S
C1049 C1045 1.429 . S
C1049 C1050 1.523 . S
C1050 C1034 1.368 . S
C1050 C1046 1.368 . S
C1050 C1049 1.523 . S
H1051 C1026 0.950 . S
H1052 C1028 0.950 . S
H1053 C1029 0.949 . S
H1054 C1031 0.950 . S
H1055 C1033 0.950 . S
C1056 C1057 1.349 . S
C1056 C1058 1.327 . S
C1056 H1081 0.950 . S
C1057 C1056 1.349 . S
C1057 C1073 1.349 . S
C1058 C1056 1.327 . S
C1058 C1077 1.429 . S
C1058 H1082 0.950 . S
C1059 C1076 1.574 . S
C1059 C1078 1.368 . S
C1059 H1083 0.949 . S
H1060 C1064 0.949 . S
C1061 C1062 1.349 . S
C1061 C1063 1.327 . S
C1061 H1084 0.950 . S
C1062 C1061 1.349 . S
C1062 C1074 1.349 . S
C1063 C1061 1.327 . S
C1063 C1079 1.429 . S
C1063 H1085 0.950 . S
C1064 H1060 0.949 . S
C1064 C1072 1.574 . S
C1064 C1080 1.368 . S
H1065 C1073 0.950 . S
H1066 C1071 0.950 . S
H1067 C1072 0.949 . S
H1068 C1074 0.950 . S
H1069 C1075 0.950 . S
H1070 C1076 0.949 . S
C1071 H1066 0.950 . S
C1071 C1073 1.327 . S
C1071 C1077 1.429 . S
C1072 C1064 1.574 . S
C1072 H1067 0.949 . S
C1072 C1078 1.368 . S
C1073 C1057 1.349 . S
C1073 H1065 0.950 . S
C1073 C1071 1.327 . S
C1074 C1062 1.349 . S
C1074 H1068 0.950 . S
C1074 C1075 1.327 . S
C1075 H1069 0.950 . S
C1075 C1074 1.327 . S
C1075 C1079 1.429 . S
C1076 C1059 1.574 . S
C1076 H1070 0.949 . S
C1076 C1080 1.368 . S
C1077 C1058 1.429 . S
C1077 C1071 1.429 . S
C1077 C1078 1.523 . S
C1078 C1059 1.368 . S
C1078 C1072 1.368 . S
C1078 C1077 1.523 . S
C1079 C1063 1.429 . S
C1079 C1075 1.429 . S
C1079 C1080 1.523 . S
C1080 C1064 1.368 . S
C1080 C1076 1.368 . S
C1080 C1079 1.523 . S
H1081 C1056 0.950 . S
H1082 C1058 0.950 . S
H1083 C1059 0.949 . S
H1084 C1061 0.950 . S
H1085 C1063 0.950 . S
C1086 C1087 1.349 . S
C1086 C1088 1.327 . S
C1086 H1111 0.950 . S
C1087 C1086 1.349 . S
C1087 C1103 1.349 . S
C1088 C1086 1.327 . S
C1088 C1107 1.429 . S
C1088 H1112 0.950 . S
C1089 C1106 1.574 . S
C1089 C1108 1.368 . S
C1089 H1113 0.949 . S
H1090 C1094 0.949 . S
C1091 C1092 1.349 . S
C1091 C1093 1.327 . S
C1091 H1114 0.950 . S
C1092 C1091 1.349 . S
C1092 C1104 1.349 . S
C1093 C1091 1.327 . S
C1093 C1109 1.429 . S
C1093 H1115 0.950 . S
C1094 H1090 0.949 . S
C1094 C1102 1.574 . S
C1094 C1110 1.368 . S
H1095 C1103 0.950 . S
H1096 C1101 0.950 . S
H1097 C1102 0.949 . S
H1098 C1104 0.950 . S
H1099 C1105 0.950 . S
H1100 C1106 0.949 . S
C1101 H1096 0.950 . S
C1101 C1103 1.327 . S
C1101 C1107 1.429 . S
C1102 C1094 1.574 . S
C1102 H1097 0.949 . S
C1102 C1108 1.368 . S
C1103 C1087 1.349 . S
C1103 H1095 0.950 . S
C1103 C1101 1.327 . S
C1104 C1092 1.349 . S
C1104 H1098 0.950 . S
C1104 C1105 1.327 . S
C1105 H1099 0.950 . S
C1105 C1104 1.327 . S
C1105 C1109 1.429 . S
C1106 C1089 1.574 . S
C1106 H1100 0.949 . S
C1106 C1110 1.368 . S
C1107 C1088 1.429 . S
C1107 C1101 1.429 . S
C1107 C1108 1.523 . S
C1108 C1089 1.368 . S
C1108 C1102 1.368 . S
C1108 C1107 1.523 . S
C1109 C1093 1.429 . S
C1109 C1105 1.429 . S
C1109 C1110 1.523 . S
C1110 C1094 1.368 . S
C1110 C1106 1.368 . S
C1110 C1109 1.523 . S
H1111 C1086 0.950 . S
H1112 C1088 0.950 . S
H1113 C1089 0.949 . S
H1114 C1091 0.950 . S
H1115 C1093 0.950 . S
C1116 C1117 1.349 . S
C1116 C1118 1.327 . S
C1116 H1141 0.950 . S
C1117 C1116 1.349 . S
C1117 C1133 1.349 . S
C1118 C1116 1.327 . S
C1118 C1137 1.429 . S
C1118 H1142 0.950 . S
C1119 C1136 1.574 . S
C1119 C1138 1.368 . S
C1119 H1143 0.949 . S
H1120 C1124 0.949 . S
C1121 C1122 1.349 . S
C1121 C1123 1.327 . S
C1121 H1144 0.950 . S
C1122 C1121 1.349 . S
C1122 C1134 1.349 . S
C1123 C1121 1.327 . S
C1123 C1139 1.429 . S
C1123 H1145 0.950 . S
C1124 H1120 0.949 . S
C1124 C1132 1.574 . S
C1124 C1140 1.368 . S
H1125 C1133 0.950 . S
H1126 C1131 0.950 . S
H1127 C1132 0.949 . S
H1128 C1134 0.950 . S
H1129 C1135 0.950 . S
H1130 C1136 0.949 . S
C1131 H1126 0.950 . S
C1131 C1133 1.327 . S
C1131 C1137 1.429 . S
C1132 C1124 1.574 . S
C1132 H1127 0.949 . S
C1132 C1138 1.368 . S
C1133 C1117 1.349 . S
C1133 H1125 0.950 . S
C1133 C1131 1.327 . S
C1134 C1122 1.349 . S
C1134 H1128 0.950 . S
C1134 C1135 1.327 . S
C1135 H1129 0.950 . S
C1135 C1134 1.327 . S
C1135 C1139 1.429 . S
C1136 C1119 1.574 . S
C1136 H1130 0.949 . S
C1136 C1140 1.368 . S
C1137 C1118 1.429 . S
C1137 C1131 1.429 . S
C1137 C1138 1.523 . S
C1138 C1119 1.368 . S
C1138 C1132 1.368 . S
C1138 C1137 1.523 . S
C1139 C1123 1.429 . S
C1139 C1135 1.429 . S
C1139 C1140 1.523 . S
C1140 C1124 1.368 . S
C1140 C1136 1.368 . S
C1140 C1139 1.523 . S
H1141 C1116 0.950 . S
H1142 C1118 0.950 . S
H1143 C1119 0.949 . S
H1144 C1121 0.950 . S
H1145 C1123 0.950 . S
C1146 C1147 1.349 . S
C1146 C1148 1.327 . S
C1146 H1171 0.950 . S
C1147 C1146 1.349 . S
C1147 C1163 1.349 . S
C1148 C1146 1.327 . S
C1148 C1167 1.429 . S
C1148 H1172 0.950 . S
C1149 C1166 1.574 . S
C1149 C1168 1.368 . S
C1149 H1173 0.949 . S
H1150 C1154 0.949 . S
C1151 C1152 1.349 . S
C1151 C1153 1.327 . S
C1151 H1174 0.950 . S
C1152 C1151 1.349 . S
C1152 C1164 1.349 . S
C1153 C1151 1.327 . S
C1153 C1169 1.429 . S
C1153 H1175 0.950 . S
C1154 H1150 0.949 . S
C1154 C1162 1.574 . S
C1154 C1170 1.368 . S
H1155 C1163 0.950 . S
H1156 C1161 0.950 . S
H1157 C1162 0.949 . S
H1158 C1164 0.950 . S
H1159 C1165 0.950 . S
H1160 C1166 0.949 . S
C1161 H1156 0.950 . S
C1161 C1163 1.327 . S
C1161 C1167 1.429 . S
C1162 C1154 1.574 . S
C1162 H1157 0.949 . S
C1162 C1168 1.368 . S
C1163 C1147 1.349 . S
C1163 H1155 0.950 . S
C1163 C1161 1.327 . S
C1164 C1152 1.349 . S
C1164 H1158 0.950 . S
C1164 C1165 1.327 . S
C1165 H1159 0.950 . S
C1165 C1164 1.327 . S
C1165 C1169 1.429 . S
C1166 C1149 1.574 . S
C1166 H1160 0.949 . S
C1166 C1170 1.368 . S
C1167 C1148 1.429 . S
C1167 C1161 1.429 . S
C1167 C1168 1.523 . S
C1168 C1149 1.368 . S
C1168 C1162 1.368 . S
C1168 C1167 1.523 . S
C1169 C1153 1.429 . S
C1169 C1165 1.429 . S
C1169 C1170 1.523 . S
C1170 C1154 1.368 . S
C1170 C1166 1.368 . S
C1170 C1169 1.523 . S
H1171 C1146 0.950 . S
H1172 C1148 0.950 . S
H1173 C1149 0.949 . S
H1174 C1151 0.950 . S
H1175 C1153 0.950 . S
C1176 C1177 1.349 . S
C1176 C1178 1.327 . S
C1176 H1201 0.950 . S
C1177 C1176 1.349 . S
C1177 C1193 1.349 . S
C1178 C1176 1.327 . S
C1178 C1197 1.429 . S
C1178 H1202 0.950 . S
C1179 C1196 1.574 . S
C1179 C1198 1.368 . S
C1179 H1203 0.949 . S
H1180 C1184 0.949 . S
C1181 C1182 1.349 . S
C1181 C1183 1.327 . S
C1181 H1204 0.950 . S
C1182 C1181 1.349 . S
C1182 C1194 1.349 . S
C1183 C1181 1.327 . S
C1183 C1199 1.429 . S
C1183 H1205 0.950 . S
C1184 H1180 0.949 . S
C1184 C1192 1.574 . S
C1184 C1200 1.368 . S
H1185 C1193 0.950 . S
H1186 C1191 0.950 . S
H1187 C1192 0.949 . S
H1188 C1194 0.950 . S
H1189 C1195 0.950 . S
H1190 C1196 0.949 . S
C1191 H1186 0.950 . S
C1191 C1193 1.327 . S
C1191 C1197 1.429 . S
C1192 C1184 1.574 . S
C1192 H1187 0.949 . S
C1192 C1198 1.368 . S
C1193 C1177 1.349 . S
C1193 H1185 0.950 . S
C1193 C1191 1.327 . S
C1194 C1182 1.349 . S
C1194 H1188 0.950 . S
C1194 C1195 1.327 . S
C1195 H1189 0.950 . S
C1195 C1194 1.327 . S
C1195 C1199 1.429 . S
C1196 C1179 1.574 . S
C1196 H1190 0.949 . S
C1196 C1200 1.368 . S
C1197 C1178 1.429 . S
C1197 C1191 1.429 . S
C1197 C1198 1.523 . S
C1198 C1179 1.368 . S
C1198 C1192 1.368 . S
C1198 C1197 1.523 . S
C1199 C1183 1.429 . S
C1199 C1195 1.429 . S
C1199 C1200 1.523 . S
C1200 C1184 1.368 . S
C1200 C1196 1.368 . S
C1200 C1199 1.523 . S
H1201 C1176 0.950 . S
H1202 C1178 0.950 . S
H1203 C1179 0.949 . S
H1204 C1181 0.950 . S
H1205 C1183 0.950 . S
C1206 C1207 1.349 . S
C1206 C1208 1.327 . S
C1206 H1231 0.950 . S
C1207 C1206 1.349 . S
C1207 C1223 1.349 . S
C1208 C1206 1.327 . S
C1208 C1227 1.429 . S
C1208 H1232 0.950 . S
C1209 C1226 1.574 . S
C1209 C1228 1.368 . S
C1209 H1233 0.949 . S
H1210 C1214 0.949 . S
C1211 C1212 1.349 . S
C1211 C1213 1.327 1_545 S
C1211 H1234 0.950 . S
C1212 C1211 1.349 . S
C1212 C1224 1.349 1_545 S
C1213 C1211 1.327 1_565 S
C1213 C1229 1.429 . S
C1213 H1235 0.950 . S
C1214 H1210 0.949 . S
C1214 C1222 1.574 . S
C1214 C1230 1.368 . S
H1215 C1223 0.950 . S
H1216 C1221 0.950 . S
H1217 C1222 0.949 . S
H1218 C1224 0.950 1_545 S
H1219 C1225 0.950 . S
H1220 C1226 0.949 . S
C1221 H1216 0.950 . S
C1221 C1223 1.327 . S
C1221 C1227 1.429 . S
C1222 C1214 1.574 . S
C1222 H1217 0.949 . S
C1222 C1228 1.368 . S
C1223 C1207 1.349 . S
C1223 H1215 0.950 . S
C1223 C1221 1.327 . S
C1224 C1212 1.349 1_565 S
C1224 H1218 0.950 1_565 S
C1224 C1225 1.327 . S
C1225 H1219 0.950 . S
C1225 C1224 1.327 . S
C1225 C1229 1.429 . S
C1226 C1209 1.574 . S
C1226 H1220 0.949 . S
C1226 C1230 1.368 . S
C1227 C1208 1.429 . S
C1227 C1221 1.429 . S
C1227 C1228 1.523 . S
C1228 C1209 1.368 . S
C1228 C1222 1.368 . S
C1228 C1227 1.523 . S
C1229 C1213 1.429 . S
C1229 C1225 1.429 . S
C1229 C1230 1.523 . S
C1230 C1214 1.368 . S
C1230 C1226 1.368 . S
C1230 C1229 1.523 . S
H1231 C1206 0.950 . S
H1232 C1208 0.950 . S
H1233 C1209 0.949 . S
H1234 C1211 0.950 . S
H1235 C1213 0.950 . S
C1236 C1237 1.349 1_455 S
C1236 C1238 1.327 . S
C1236 H1261 0.951 1_455 S
C1237 C1236 1.349 1_655 S
C1237 C1253 1.349 1_655 S
C1238 C1236 1.327 . S
C1238 C1257 1.429 . S
C1238 H1262 0.950 . S
C1239 C1256 1.574 . S
C1239 C1258 1.368 . S
C1239 H1263 0.949 . S
H1240 C1244 0.949 . S
C1241 C1242 1.349 . S
C1241 C1243 1.327 . S
C1241 H1264 0.950 . S
C1242 C1241 1.349 . S
C1242 C1254 1.349 . S
C1243 C1241 1.327 . S
C1243 C1259 1.429 . S
C1243 H1265 0.950 . S
C1244 H1240 0.949 . S
C1244 C1252 1.574 . S
C1244 C1260 1.368 . S
H1245 C1253 0.950 1_655 S
H1246 C1251 0.950 . S
H1247 C1252 0.949 . S
H1248 C1254 0.950 . S
H1249 C1255 0.922 1_565 S
H1250 C1256 0.949 1_545 S
C1251 H1246 0.950 . S
C1251 C1253 1.327 . S
C1251 C1257 1.429 . S
C1252 C1244 1.574 . S
C1252 H1247 0.949 . S
C1252 C1258 1.368 . S
C1253 C1237 1.349 1_455 S
C1253 H1245 0.950 1_455 S
C1253 C1251 1.327 . S
C1254 C1242 1.349 . S
C1254 H1248 0.950 . S
C1254 C1255 1.336 . S
C1255 H1249 0.922 1_545 S
C1255 C1254 1.336 . S
C1255 C1259 1.447 . S
C1256 C1239 1.574 . S
C1256 H1250 0.949 1_565 S
C1256 C1260 1.368 . S
C1257 C1238 1.429 . S
C1257 C1251 1.429 . S
C1257 C1258 1.523 . S
C1258 C1239 1.368 . S
C1258 C1252 1.368 . S
C1258 C1257 1.523 . S
C1259 C1243 1.429 . S
C1259 C1255 1.447 . S
C1259 C1260 1.523 1_545 S
C1260 C1244 1.368 . S
C1260 C1256 1.368 . S
C1260 C1259 1.523 1_565 S
H1261 C1236 0.951 1_655 S
H1262 C1238 0.950 . S
H1263 C1239 0.949 . S
H1264 C1241 0.950 . S
H1265 C1243 0.950 . S
C1266 C1267 1.349 . S
C1266 C1268 1.327 . S
C1266 H1291 0.950 . S
C1267 C1266 1.349 . S
C1267 C1283 1.349 . S
C1268 C1266 1.327 . S
C1268 C1287 1.429 . S
C1268 H1292 0.950 . S
C1269 C1286 1.574 . S
C1269 C1288 1.368 . S
C1269 H1293 0.949 . S
H1270 C1274 0.949 . S
C1271 C1272 1.349 . S
C1271 C1273 1.327 . S
C1271 H1294 0.950 . S
C1272 C1271 1.349 . S
C1272 C1284 1.349 . S
C1273 C1271 1.327 . S
C1273 C1289 1.429 1_655 S
C1273 H1295 0.950 . S
C1274 H1270 0.949 . S
C1274 C1282 1.574 . S
C1274 C1290 1.368 . S
H1275 C1283 0.950 . S
H1276 C1281 0.950 . S
H1277 C1282 0.949 . S
H1278 C1284 0.950 . S
H1279 C1285 0.950 . S
H1280 C1286 0.949 1_655 S
C1281 H1276 0.950 . S
C1281 C1283 1.327 . S
C1281 C1287 1.429 . S
C1282 C1274 1.574 . S
C1282 H1277 0.949 . S
C1282 C1288 1.368 . S
C1283 C1267 1.349 . S
C1283 H1275 0.950 . S
C1283 C1281 1.327 . S
C1284 C1272 1.349 . S
C1284 H1278 0.950 . S
C1284 C1285 1.327 1_655 S
C1285 H1279 0.950 . S
C1285 C1284 1.327 1_455 S
C1285 C1289 1.429 . S
C1286 C1269 1.574 . S
C1286 H1280 0.949 1_455 S
C1286 C1290 1.368 . S
C1287 C1268 1.429 . S
C1287 C1281 1.429 . S
C1287 C1288 1.523 . S
C1288 C1269 1.368 . S
C1288 C1282 1.368 . S
C1288 C1287 1.523 . S
C1289 C1273 1.429 1_455 S
C1289 C1285 1.429 . S
C1289 C1290 1.523 . S
C1290 C1274 1.368 . S
C1290 C1286 1.368 . S
C1290 C1289 1.523 . S
H1291 C1266 0.950 . S
H1292 C1268 0.950 . S
H1293 C1269 0.949 . S
H1294 C1271 0.950 . S
H1295 C1273 0.950 . S
C1296 C1297 1.349 . S
C1296 C1298 1.327 . S
C1296 H1321 0.950 . S
C1297 C1296 1.349 . S
C1297 C1313 1.349 . S
C1298 C1296 1.327 . S
C1298 C1317 1.429 . S
C1298 H1322 0.950 . S
C1299 C1316 1.574 . S
C1299 C1318 1.368 . S
C1299 H1323 0.949 . S
H1300 C1304 0.949 . S
C1301 C1302 1.349 . S
C1301 C1303 1.327 . S
C1301 H1324 0.950 . S
C1302 C1301 1.349 . S
C1302 C1314 1.349 . S
C1303 C1301 1.327 . S
C1303 C1319 1.429 . S
C1303 H1325 0.950 . S
C1304 H1300 0.949 . S
C1304 C1312 1.574 . S
C1304 C1320 1.368 . S
H1305 C1313 0.950 . S
H1306 C1311 0.950 . S
H1307 C1312 0.949 . S
H1308 C1314 0.950 . S
H1309 C1315 0.950 . S
H1310 C1316 0.949 . S
C1311 H1306 0.950 . S
C1311 C1313 1.327 . S
C1311 C1317 1.429 . S
C1312 C1304 1.574 . S
C1312 H1307 0.949 . S
C1312 C1318 1.368 . S
C1313 C1297 1.349 . S
C1313 H1305 0.950 . S
C1313 C1311 1.327 . S
C1314 C1302 1.349 . S
C1314 H1308 0.950 . S
C1314 C1315 1.327 . S
C1315 H1309 0.950 . S
C1315 C1314 1.327 . S
C1315 C1319 1.429 . S
C1316 C1299 1.574 . S
C1316 H1310 0.949 . S
C1316 C1320 1.368 . S
C1317 C1298 1.429 . S
C1317 C1311 1.429 . S
C1317 C1318 1.523 . S
C1318 C1299 1.368 . S
C1318 C1312 1.368 . S
C1318 C1317 1.523 . S
C1319 C1303 1.429 . S
C1319 C1315 1.429 . S
C1319 C1320 1.523 . S
C1320 C1304 1.368 . S
C1320 C1316 1.368 . S
C1320 C1319 1.523 . S
H1321 C1296 0.950 . S
H1322 C1298 0.950 . S
H1323 C1299 0.949 . S
H1324 C1301 0.950 . S
H1325 C1303 0.950 . S
C1326 C1327 1.349 . S
C1326 C1328 1.327 . S
C1326 H1351 0.950 . S
C1327 C1326 1.349 . S
C1327 C1343 1.349 . S
C1328 C1326 1.327 . S
C1328 C1347 1.429 . S
C1328 H1352 0.950 . S
C1329 C1346 1.574 . S
C1329 C1348 1.368 . S
C1329 H1353 0.949 . S
H1330 C1334 0.949 . S
C1331 C1332 1.349 . S
C1331 C1333 1.327 . S
C1331 H1354 0.950 . S
C1332 C1331 1.349 . S
C1332 C1344 1.349 . S
C1333 C1331 1.327 . S
C1333 C1349 1.429 . S
C1333 H1355 0.950 . S
C1334 H1330 0.949 . S
C1334 C1342 1.574 . S
C1334 C1350 1.368 . S
H1335 C1343 0.950 . S
H1336 C1341 0.950 . S
H1337 C1342 0.949 . S
H1338 C1344 0.950 . S
H1339 C1345 0.950 . S
H1340 C1346 0.949 . S
C1341 H1336 0.950 . S
C1341 C1343 1.327 . S
C1341 C1347 1.429 . S
C1342 C1334 1.574 . S
C1342 H1337 0.949 . S
C1342 C1348 1.368 . S
C1343 C1327 1.349 . S
C1343 H1335 0.950 . S
C1343 C1341 1.327 . S
C1344 C1332 1.349 . S
C1344 H1338 0.950 . S
C1344 C1345 1.327 . S
C1345 H1339 0.950 . S
C1345 C1344 1.327 . S
C1345 C1349 1.429 . S
C1346 C1329 1.574 . S
C1346 H1340 0.949 . S
C1346 C1350 1.368 . S
C1347 C1328 1.429 . S
C1347 C1341 1.429 . S
C1347 C1348 1.523 . S
C1348 C1329 1.368 . S
C1348 C1342 1.368 . S
C1348 C1347 1.523 . S
C1349 C1333 1.429 . S
C1349 C1345 1.429 . S
C1349 C1350 1.523 . S
C1350 C1334 1.368 . S
C1350 C1346 1.368 . S
C1350 C1349 1.523 . S
H1351 C1326 0.950 . S
H1352 C1328 0.950 . S
H1353 C1329 0.949 . S
H1354 C1331 0.950 . S
H1355 C1333 0.950 . S
C1356 C1357 1.349 . S
C1356 C1358 1.327 . S
C1356 H1381 0.950 . S
C1357 C1356 1.349 . S
C1357 C1373 1.349 . S
C1358 C1356 1.327 . S
C1358 C1377 1.429 . S
C1358 H1382 0.950 . S
C1359 C1376 1.574 . S
C1359 C1378 1.368 . S
C1359 H1383 0.949 . S
H1360 C1364 0.949 . S
C1361 C1362 1.349 . S
C1361 C1363 1.327 . S
C1361 H1384 0.950 . S
C1362 C1361 1.349 . S
C1362 C1374 1.349 . S
C1363 C1361 1.327 . S
C1363 C1379 1.429 . S
C1363 H1385 0.950 . S
C1364 H1360 0.949 . S
C1364 C1372 1.574 . S
C1364 C1380 1.368 . S
H1365 C1373 0.950 1_545 S
H1366 C1371 0.950 . S
H1367 C1372 0.949 . S
H1368 C1374 0.950 . S
H1369 C1375 0.950 . S
H1370 C1376 0.949 . S
C1371 H1366 0.950 . S
C1371 C1373 1.327 . S
C1371 C1377 1.429 . S
C1372 C1364 1.574 . S
C1372 H1367 0.949 . S
C1372 C1378 1.368 . S
C1373 C1357 1.349 . S
C1373 H1365 0.950 1_565 S
C1373 C1371 1.327 . S
C1374 C1362 1.349 . S
C1374 H1368 0.950 . S
C1374 C1375 1.327 . S
C1375 H1369 0.950 . S
C1375 C1374 1.327 . S
C1375 C1379 1.429 . S
C1376 C1359 1.574 . S
C1376 H1370 0.949 . S
C1376 C1380 1.368 . S
C1377 C1358 1.429 . S
C1377 C1371 1.429 . S
C1377 C1378 1.523 . S
C1378 C1359 1.368 . S
C1378 C1372 1.368 . S
C1378 C1377 1.523 . S
C1379 C1363 1.429 . S
C1379 C1375 1.429 . S
C1379 C1380 1.523 . S
C1380 C1364 1.368 . S
C1380 C1376 1.368 . S
C1380 C1379 1.523 . S
H1381 C1356 0.950 . S
H1382 C1358 0.950 . S
H1383 C1359 0.949 . S
H1384 C1361 0.950 . S
H1385 C1363 0.950 . S
C1386 C1387 1.349 . S
C1386 C1388 1.327 . S
C1386 H1411 0.950 . S
C1387 C1386 1.349 . S
C1387 C1403 1.349 . S
C1388 C1386 1.327 . S
C1388 C1407 1.429 . S
C1388 H1412 0.950 . S
C1389 C1406 1.574 . S
C1389 C1408 1.368 . S
C1389 H1413 0.949 . S
H1390 C1394 0.949 . S
C1391 C1392 1.349 . S
C1391 C1393 1.327 . S
C1391 H1414 0.950 . S
C1392 C1391 1.349 . S
C1392 C1404 1.349 . S
C1393 C1391 1.327 . S
C1393 C1409 1.429 . S
C1393 H1415 0.950 . S
C1394 H1390 0.949 . S
C1394 C1402 1.574 . S
C1394 C1410 1.368 . S
H1395 C1403 0.950 1_565 S
H1396 C1401 0.950 . S
H1397 C1402 0.949 . S
H1398 C1404 0.950 . S
H1399 C1405 0.950 . S
H1400 C1406 0.949 . S
C1401 H1396 0.950 . S
C1401 C1403 1.327 . S
C1401 C1407 1.429 . S
C1402 C1394 1.574 . S
C1402 H1397 0.949 . S
C1402 C1408 1.368 . S
C1403 C1387 1.349 . S
C1403 H1395 0.950 1_545 S
C1403 C1401 1.327 . S
C1404 C1392 1.349 . S
C1404 H1398 0.950 . S
C1404 C1405 1.327 . S
C1405 H1399 0.950 . S
C1405 C1404 1.327 . S
C1405 C1409 1.429 . S
C1406 C1389 1.574 . S
C1406 H1400 0.949 . S
C1406 C1410 1.368 . S
C1407 C1388 1.429 . S
C1407 C1401 1.429 . S
C1407 C1408 1.523 . S
C1408 C1389 1.368 . S
C1408 C1402 1.368 . S
C1408 C1407 1.523 . S
C1409 C1393 1.429 . S
C1409 C1405 1.429 . S
C1409 C1410 1.523 . S
C1410 C1394 1.368 . S
C1410 C1406 1.368 . S
C1410 C1409 1.523 . S
H1411 C1386 0.950 . S
H1412 C1388 0.950 . S
H1413 C1389 0.949 . S
H1414 C1391 0.950 . S
H1415 C1393 0.950 . S
C1416 C1417 1.349 . S
C1416 C1418 1.327 . S
C1416 H1441 0.950 . S
C1417 C1416 1.349 . S
C1417 C1433 1.349 . S
C1418 C1416 1.327 . S
C1418 C1437 1.429 . S
C1418 H1442 0.950 . S
C1419 C1436 1.574 . S
C1419 C1438 1.368 . S
C1419 H1443 0.949 . S
H1420 C1424 0.949 . S
C1421 C1422 1.349 . S
C1421 C1423 1.327 . S
C1421 H1444 0.950 . S
C1422 C1421 1.349 . S
C1422 C1434 1.349 . S
C1423 C1421 1.327 . S
C1423 C1439 1.429 . S
C1423 H1445 0.950 . S
C1424 H1420 0.949 . S
C1424 C1432 1.574 . S
C1424 C1440 1.368 . S
H1425 C1433 0.950 . S
H1426 C1431 0.950 . S
H1427 C1432 0.949 . S
H1428 C1434 0.950 . S
H1429 C1435 0.950 . S
H1430 C1436 0.949 . S
C1431 H1426 0.950 . S
C1431 C1433 1.327 . S
C1431 C1437 1.429 . S
C1432 C1424 1.574 . S
C1432 H1427 0.949 . S
C1432 C1438 1.368 . S
C1433 C1417 1.349 . S
C1433 H1425 0.950 . S
C1433 C1431 1.327 . S
C1434 C1422 1.349 . S
C1434 H1428 0.950 . S
C1434 C1435 1.327 . S
C1435 H1429 0.950 . S
C1435 C1434 1.327 . S
C1435 C1439 1.429 . S
C1436 C1419 1.574 . S
C1436 H1430 0.949 . S
C1436 C1440 1.368 . S
C1437 C1418 1.429 . S
C1437 C1431 1.429 . S
C1437 C1438 1.523 . S
C1438 C1419 1.368 . S
C1438 C1432 1.368 . S
C1438 C1437 1.523 . S
C1439 C1423 1.429 . S
C1439 C1435 1.429 . S
C1439 C1440 1.523 . S
C1440 C1424 1.368 . S
C1440 C1436 1.368 . S
C1440 C1439 1.523 . S
H1441 C1416 0.950 . S
H1442 C1418 0.950 . S
H1443 C1419 0.949 . S
H1444 C1421 0.950 . S
H1445 C1423 0.950 . S
C1446 C1447 1.349 . S
C1446 C1448 1.327 . S
C1446 H1471 0.950 . S
C1447 C1446 1.349 . S
C1447 C1463 1.349 . S
C1448 C1446 1.327 . S
C1448 C1467 1.429 . S
C1448 H1472 0.950 . S
C1449 C1466 1.574 . S
C1449 C1468 1.368 . S
C1449 H1473 0.949 . S
H1450 C1454 0.949 . S
C1451 C1452 1.349 . S
C1451 C1453 1.327 . S
C1451 H1474 0.950 . S
C1452 C1451 1.349 . S
C1452 C1464 1.349 . S
C1453 C1451 1.327 . S
C1453 C1469 1.429 . S
C1453 H1475 0.950 . S
C1454 H1450 0.949 . S
C1454 C1462 1.574 . S
C1454 C1470 1.368 . S
H1455 C1463 0.950 . S
H1456 C1461 0.950 . S
H1457 C1462 0.949 . S
H1458 C1464 0.950 . S
H1459 C1465 0.950 . S
H1460 C1466 0.949 . S
C1461 H1456 0.950 . S
C1461 C1463 1.327 . S
C1461 C1467 1.429 . S
C1462 C1454 1.574 . S
C1462 H1457 0.949 . S
C1462 C1468 1.368 . S
C1463 C1447 1.349 . S
C1463 H1455 0.950 . S
C1463 C1461 1.327 . S
C1464 C1452 1.349 . S
C1464 H1458 0.950 . S
C1464 C1465 1.327 . S
C1465 H1459 0.950 . S
C1465 C1464 1.327 . S
C1465 C1469 1.429 . S
C1466 C1449 1.574 . S
C1466 H1460 0.949 . S
C1466 C1470 1.368 . S
C1467 C1448 1.429 . S
C1467 C1461 1.429 . S
C1467 C1468 1.523 . S
C1468 C1449 1.368 . S
C1468 C1462 1.368 . S
C1468 C1467 1.523 . S
C1469 C1453 1.429 . S
C1469 C1465 1.429 . S
C1469 C1470 1.523 . S
C1470 C1454 1.368 . S
C1470 C1466 1.368 . S
C1470 C1469 1.523 . S
H1471 C1446 0.950 . S
H1472 C1448 0.950 . S
H1473 C1449 0.949 . S
H1474 C1451 0.950 . S
H1475 C1453 0.950 . S
C1476 C1477 1.349 . S
C1476 C1478 1.327 . S
C1476 H1501 0.950 . S
C1477 C1476 1.349 . S
C1477 C1493 1.349 . S
C1478 C1476 1.327 . S
C1478 C1497 1.429 . S
C1478 H1502 0.950 . S
C1479 C1496 1.574 . S
C1479 C1498 1.368 . S
C1479 H1503 0.949 . S
H1480 C1484 0.949 . S
C1481 C1482 1.349 . S
C1481 C1483 1.327 . S
C1481 H1504 0.950 . S
C1482 C1481 1.349 . S
C1482 C1494 1.349 . S
C1483 C1481 1.327 . S
C1483 C1499 1.429 . S
C1483 H1505 0.950 . S
C1484 H1480 0.949 . S
C1484 C1492 1.574 . S
C1484 C1500 1.368 . S
H1485 C1493 0.950 . S
H1486 C1491 0.950 . S
H1487 C1492 0.949 . S
H1488 C1494 0.950 . S
H1489 C1495 0.950 . S
H1490 C1496 0.949 . S
C1491 H1486 0.950 . S
C1491 C1493 1.327 . S
C1491 C1497 1.429 . S
C1492 C1484 1.574 . S
C1492 H1487 0.949 . S
C1492 C1498 1.368 . S
C1493 C1477 1.349 . S
C1493 H1485 0.950 . S
C1493 C1491 1.327 . S
C1494 C1482 1.349 . S
C1494 H1488 0.950 . S
C1494 C1495 1.327 . S
C1495 H1489 0.950 . S
C1495 C1494 1.327 . S
C1495 C1499 1.429 . S
C1496 C1479 1.574 . S
C1496 H1490 0.949 . S
C1496 C1500 1.368 . S
C1497 C1478 1.429 . S
C1497 C1491 1.429 . S
C1497 C1498 1.523 . S
C1498 C1479 1.368 . S
C1498 C1492 1.368 . S
C1498 C1497 1.523 . S
C1499 C1483 1.429 . S
C1499 C1495 1.429 . S
C1499 C1500 1.523 . S
C1500 C1484 1.368 . S
C1500 C1496 1.368 . S
C1500 C1499 1.523 . S
H1501 C1476 0.950 . S
H1502 C1478 0.950 . S
H1503 C1479 0.949 . S
H1504 C1481 0.950 . S
H1505 C1483 0.950 . S
C1506 C1507 1.349 . S
C1506 C1508 1.327 . S
C1506 H1531 0.950 . S
C1507 C1506 1.349 . S
C1507 C1523 1.349 . S
C1508 C1506 1.327 . S
C1508 C1527 1.429 . S
C1508 H1532 0.950 1_565 S
C1509 C1526 1.574 1_565 S
C1509 C1528 1.368 1_565 S
C1509 H1533 0.949 . S
H1510 C1514 0.949 . S
C1511 C1512 1.349 . S
C1511 C1513 1.327 . S
C1511 H1534 0.950 . S
C1512 C1511 1.349 . S
C1512 C1524 1.349 . S
C1513 C1511 1.327 . S
C1513 C1529 1.429 . S
C1513 H1535 0.950 . S
C1514 H1510 0.949 . S
C1514 C1522 1.574 . S
C1514 C1530 1.368 . S
H1515 C1523 0.950 . S
H1516 C1521 0.950 . S
H1517 C1522 0.949 . S
H1518 C1524 0.950 . S
H1519 C1525 0.950 . S
H1520 C1526 0.949 . S
C1521 H1516 0.950 . S
C1521 C1523 1.327 . S
C1521 C1527 1.429 . S
C1522 C1514 1.574 . S
C1522 H1517 0.949 . S
C1522 C1528 1.368 . S
C1523 C1507 1.349 . S
C1523 H1515 0.950 . S
C1523 C1521 1.327 . S
C1524 C1512 1.349 . S
C1524 H1518 0.950 . S
C1524 C1525 1.327 . S
C1525 H1519 0.950 . S
C1525 C1524 1.327 . S
C1525 C1529 1.429 . S
C1526 C1509 1.574 1_545 S
C1526 H1520 0.949 . S
C1526 C1530 1.368 . S
C1527 C1508 1.429 . S
C1527 C1521 1.429 . S
C1527 C1528 1.523 1_565 S
C1528 C1509 1.368 1_545 S
C1528 C1522 1.368 . S
C1528 C1527 1.523 1_545 S
C1529 C1513 1.429 . S
C1529 C1525 1.429 . S
C1529 C1530 1.523 . S
C1530 C1514 1.368 . S
C1530 C1526 1.368 . S
C1530 C1529 1.523 . S
H1531 C1506 0.950 . S
H1532 C1508 0.950 1_545 S
H1533 C1509 0.949 . S
H1534 C1511 0.950 . S
H1535 C1513 0.950 . S
C1536 C1537 1.349 . S
C1536 C1538 1.327 . S
C1536 H1561 0.950 . S
C1537 C1536 1.349 . S
C1537 C1553 1.349 . S
C1538 C1536 1.327 . S
C1538 C1557 1.429 . S
C1538 H1562 0.950 . S
C1539 C1556 1.574 . S
C1539 C1558 1.368 . S
C1539 H1563 0.949 . S
H1540 C1544 0.949 . S
C1541 C1542 1.349 . S
C1541 C1543 1.327 . S
C1541 H1564 0.950 . S
C1542 C1541 1.349 . S
C1542 C1554 1.349 . S
C1543 C1541 1.327 . S
C1543 C1559 1.429 . S
C1543 H1565 0.948 . S
C1544 H1540 0.949 . S
C1544 C1552 1.571 1_455 S
C1544 C1560 1.368 . S
H1545 C1553 0.950 . S
H1546 C1551 0.950 . S
H1547 C1552 0.948 1_455 S
H1548 C1554 0.950 . S
H1549 C1555 0.950 . S
H1550 C1556 0.949 . S
C1551 H1546 0.950 . S
C1551 C1553 1.327 . S
C1551 C1557 1.429 . S
C1552 C1544 1.571 1_655 S
C1552 H1547 0.948 1_655 S
C1552 C1558 1.371 . S
C1553 C1537 1.349 . S
C1553 H1545 0.950 . S
C1553 C1551 1.327 . S
C1554 C1542 1.349 . S
C1554 H1548 0.950 . S
C1554 C1555 1.327 . S
C1555 H1549 0.950 . S
C1555 C1554 1.327 . S
C1555 C1559 1.429 . S
C1556 C1539 1.574 . S
C1556 H1550 0.949 . S
C1556 C1560 1.368 1_655 S
C1557 C1538 1.429 . S
C1557 C1551 1.429 . S
C1557 C1558 1.523 . S
C1558 C1539 1.368 . S
C1558 C1552 1.371 . S
C1558 C1557 1.523 . S
C1559 C1543 1.429 . S
C1559 C1555 1.429 . S
C1559 C1560 1.523 . S
C1560 C1544 1.368 . S
C1560 C1556 1.368 1_455 S
C1560 C1559 1.523 . S
H1561 C1536 0.950 . S
H1562 C1538 0.950 . S
H1563 C1539 0.949 . S
H1564 C1541 0.950 . S
H1565 C1543 0.948 . S
C757 C151 1.090 . S
C762 C58 0.970 . S
C787 C235 1.090 . S
C792 C142 0.970 . S
C817 C226 0.970 . S
C822 C67 1.090 . S
C847 C224 1.420 . S
C852 C153 1.226 . S
C877 C237 1.226 . S
C882 C56 1.420 . S
C907 C69 1.226 . S
C912 C140 1.420 . S
C937 C310 0.970 . S
C942 C403 1.090 . S
C967 C487 1.090 . S
C972 C394 0.970 . S
C997 C478 0.970 . S
C1002 C319 1.090 . S
C1027 C405 1.226 . S
C1032 C476 1.420 . S
C1057 C489 1.226 . S
C1062 C308 1.420 . S
C1087 C392 1.420 . S
C1092 C321 1.226 . S
C1117 C655 1.090 . S
C1122 C562 0.970 . S
C1147 C646 0.970 . S
C1152 C739 1.090 . S
C1177 C730 0.970 . S
C1182 C571 1.090 . S
C1207 C728 1.420 . S
C1212 C657 1.226 . S
C1237 C741 1.226 . S
C1242 C560 1.420 . S
C1267 C573 1.226 . S
C1272 C644 1.420 . S
C1297 C494 2.451 . S
C1302 C63 2.585 . S
C1327 C326 2.450 . S
C1332 C147 2.585 . S
C1357 C231 2.585 . S
C1362 C410 2.450 . S
C1387 C242 2.451 . S
C1392 C567 2.585 . S
C1417 C74 2.450 . S
C1422 C651 2.585 . S
C1447 C735 2.585 . S
C1452 C158 2.451 . S
C1477 C315 2.585 . S
C1482 C746 2.451 . S
C1507 C399 2.585 . S
C1512 C578 2.450 . S
C1537 C662 2.450 . S
C1542 C483 2.585 . S
