# Generated by pormake.
# Topology qtz-x, (6)-cn, num edge types: 1
# Building blocks:
#     Node 0, Type 0, BuildingBlock: JUFBIX_clean_sbu_0, # of connection points: 6
#     Node 1, Type 0, BuildingBlock: JUFBIX_clean_sbu_0, # of connection points: 6
#     Node 2, Type 0, BuildingBlock: JUFBIX_clean_sbu_0, # of connection points: 6
#     Edge 3, Type (0, 0), BuildingBlock: FUNLAD_clean_linker_1, # of connection points: 2
#     Edge 4, Type (0, 0), BuildingBlock: FUNLAD_clean_linker_1, # of connection points: 2
#     Edge 5, Type (0, 0), BuildingBlock: FUNLAD_clean_linker_1, # of connection points: 2
#     Edge 6, Type (0, 0), BuildingBlock: FUNLAD_clean_linker_1, # of connection points: 2
#     Edge 7, Type (0, 0), BuildingBlock: FUNLAD_clean_linker_1, # of connection points: 2
#     Edge 8, Type (0, 0), BuildingBlock: FUNLAD_clean_linker_1, # of connection points: 2
#     Edge 9, Type (0, 0), BuildingBlock: FUNLAD_clean_linker_1, # of connection points: 2
#     Edge 10, Type (0, 0), BuildingBlock: FUNLAD_clean_linker_1, # of connection points: 2
#     Edge 11, Type (0, 0), BuildingBlock: FUNLAD_clean_linker_1, # of connection points: 2
# Relax obj value: 0.464
# Max RMSD: 0.292
# Mean RMSD: 0.292
data_MOF--net-qtz-x--node1-JUFBIX_clean_sbu_0--edge1-FUNLAD_clean_linker_1
_symmetry_space_group_name_H-M    P1
_symmetry_Int_Tables_number       1
_symmetry_cell_setting            triclinic
loop_
_symmetry_equiv_pos_as_xyz
'x, y, z'
_cell_length_a     15.418025
_cell_length_b     15.424366
_cell_length_c     44.987298
_cell_angle_alpha  89.945367
_cell_angle_beta   89.963766
_cell_angle_gamma 119.67589
loop_
_atom_site_label
_atom_site_type_symbol
_atom_site_fract_x
_atom_site_fract_y
_atom_site_fract_z
_atom_type_partial_charge
Co0 Co 0.14361 0.52775 0.14415 0.0
C1 C 0.0442 0.63227 0.15838 0.0
Co2 Co 0.99829 0.43749 0.16677 0.0
C3 C 0.26836 0.64913 0.09681 0.0
C4 C 0.35097 0.61132 0.12729 0.0
N5 N 0.26116 0.60451 0.12325 0.0
N6 N 0.35711 0.67971 0.08356 0.0
C7 C 0.41017 0.65725 0.10281 0.0
H8 H 0.20634 0.65086 0.0861 0.0
H9 H 0.36951 0.57834 0.1457 0.0
C10 C 0.09805 0.33306 0.15274 0.0
N11 N 0.87876 0.35784 0.1864 0.0
C12 C 0.85034 0.36729 0.21406 0.0
C13 C 0.80508 0.26903 0.1766 0.0
N14 N 0.76227 0.28738 0.22184 0.0
C15 C 0.73378 0.22556 0.19837 0.0
C16 C 0.98035 0.43228 0.10607 0.0
O17 O 0.16491 0.41661 0.14267 0.0
O18 O 1.01907 0.32579 0.164 0.0
O19 O 0.92971 0.40285 0.1298 0.0
O20 O 0.07429 0.48667 0.10759 0.0
O21 O 0.9789 0.54959 0.16949 0.0
H22 H 0.80561 0.23554 0.15553 0.0
H23 H 0.89633 0.42843 0.22878 0.0
O24 O 0.12109 0.63846 0.14583 0.0
O25 O 0.21196 0.56726 0.18106 0.0
O26 O 0.06823 0.47389 0.2035 0.0
C27 C 0.16196 0.53302 0.20488 0.0
H28 H 0.48385 0.66744 0.0988 0.0
H29 H 0.66829 0.15205 0.19762 0.0
Co30 Co 0.4899 0.97903 0.48051 0.0
C31 C 0.69045 0.037 0.49084 0.0
Co32 Co 0.57746 0.1243 0.50347 0.0
C33 C 0.37135 0.83963 0.43505 0.0
C34 C 0.43008 0.77555 0.46569 0.0
N35 N 0.42312 0.85817 0.46066 0.0
N36 N 0.34838 0.75029 0.4235 0.0
C37 C 0.38448 0.70909 0.44276 0.0
H38 H 0.35685 0.89352 0.42397 0.0
H39 H 0.47052 0.76658 0.48398 0.0
C40 C 0.37716 0.06677 0.4933 0.0
N41 N 0.64425 0.2476 0.52249 0.0
C42 C 0.67426 0.26837 0.55109 0.0
C43 C 0.65475 0.33396 0.51157 0.0
N44 N 0.70125 0.36339 0.55835 0.0
C45 C 0.689 0.40469 0.53359 0.0
C46 C 0.58108 0.14073 0.44218 0.0
O47 O 0.37205 0.98955 0.48142 0.0
O48 O 0.45938 0.13359 0.50404 0.0
O49 O 0.61258 0.18972 0.46608 0.0
O50 O 0.526 0.04666 0.44332 0.0
O51 O 0.69525 0.11404 0.50278 0.0
H52 H 0.63112 0.34312 0.48974 0.0
H53 H 0.66737 0.21273 0.56704 0.0
O54 O 0.6085 0.97024 0.47989 0.0
O55 O 0.45473 0.91219 0.51784 0.0
O56 O 0.54114 0.05601 0.54064 0.0
C57 C 0.4866 0.96158 0.54179 0.0
H58 H 0.38106 0.63776 0.43999 0.0
H59 H 0.69685 0.47835 0.5322 0.0
Co60 Co 0.5354 0.5519 0.81491 0.0
C61 C 0.38943 0.35229 0.82199 0.0
Co62 Co 0.58808 0.46097 0.83858 0.0
C63 C 0.53226 0.68132 0.76942 0.0
C64 C 0.40139 0.62168 0.79674 0.0
N65 N 0.49003 0.62487 0.79383 0.0
N66 N 0.47257 0.7112 0.75658 0.0
C67 C 0.39022 0.67449 0.77375 0.0
H68 H 0.60298 0.69537 0.7602 0.0
H69 H 0.34658 0.57993 0.81369 0.0
C70 C 0.73385 0.66047 0.8315 0.0
N71 N 0.63264 0.38626 0.85882 0.0
C72 C 0.68336 0.40917 0.88466 0.0
C73 C 0.62336 0.29791 0.85063 0.0
N74 N 0.70599 0.33853 0.89293 0.0
C75 C 0.66908 0.26875 0.87152 0.0
C76 C 0.61568 0.46396 0.77824 0.0
O77 O 0.6646 0.66644 0.81794 0.0
O78 O 0.71614 0.57748 0.84264 0.0
O79 O 0.63021 0.43157 0.80251 0.0
O80 O 0.57318 0.51656 0.77845 0.0
O81 O 0.4598 0.3453 0.83438 0.0
H82 H 0.58629 0.25766 0.83065 0.0
H83 H 0.70475 0.47741 0.89675 0.0
O84 O 0.40622 0.43627 0.81201 0.0
O85 O 0.49869 0.58689 0.85178 0.0
O86 O 0.54616 0.49137 0.87468 0.0
C87 C 0.51028 0.54972 0.87572 0.0
H88 H 0.32579 0.68321 0.76964 0.0
H89 H 0.67455 0.20143 0.87112 0.0
H90 H 0.96646 0.71298 0.17271 0.0
C91 C 1.03146 0.72068 0.1609 0.0
H92 H 0.1625 0.81869 0.13715 0.0
H93 H 0.98691 0.10739 0.10797 0.0
H94 H 0.95021 1.01671 0.06142 0.0
H95 H 0.9753 0.87141 0.05609 0.0
H96 H 0.03671 0.81553 0.09738 0.0
C97 C 0.09824 0.80987 0.14963 0.0
C98 C 0.08473 0.89838 0.15287 0.0
C99 C 0.05039 0.931 0.1284 0.0
C100 C 0.03695 1.0154 0.13138 0.0
C101 C 1.00001 0.04475 0.10681 0.0
C102 C 0.9783 0.99314 0.07998 0.0
C103 C 0.99235 0.91128 0.07698 0.0
C104 C 1.02775 0.88009 0.10084 0.0
H105 H 0.17734 0.25333 0.13905 0.0
C106 C 0.11171 0.24517 0.15058 0.0
H107 H 0.98054 0.14679 0.17422 0.0
H108 H 0.15787 0.85922 0.20354 0.0
H109 H 0.19621 0.95098 0.24996 0.0
H110 H 0.17136 0.09642 0.25526 0.0
H111 H 0.10857 0.15145 0.21408 0.0
C112 C 0.04528 0.15599 0.16193 0.0
C113 C 0.05931 0.06779 0.15872 0.0
C114 C 0.09409 0.03546 0.18316 0.0
C115 C 0.10745 0.951 0.18018 0.0
C116 C 0.14491 0.92195 0.20471 0.0
C117 C 0.16752 0.97415 0.23145 0.0
C118 C 0.15361 0.05611 0.23443 0.0
C119 C 0.11742 0.08681 0.21064 0.0
H120 H 0.30039 0.15018 0.50479 0.0
C121 C 0.28985 0.08126 0.49493 0.0
H122 H 0.18571 0.94285 0.47604 0.0
H123 H 0.82575 0.95826 0.54083 0.0
H124 H 0.83487 0.83021 0.56977 0.0
H125 H 0.97096 0.7925 0.56164 0.0
H126 H 0.09917 0.88302 0.52459 0.0
C127 C 0.19914 1.01383 0.48501 0.0
C128 C 0.11345 0.03208 0.48825 0.0
C129 C 0.03789 0.97682 0.50948 0.0
C130 C 0.95865 0.9976 0.51388 0.0
C131 C 0.88621 0.94385 0.53603 0.0
C132 C 0.89088 0.87055 0.55294 0.0
C133 C 0.96761 0.84942 0.54839 0.0
C134 C 0.04063 0.90187 0.52702 0.0
H135 H 0.76791 0.9541 0.47948 0.0
C136 C 0.77791 0.0227 0.48944 0.0
H137 H 0.88106 0.1607 0.50877 0.0
H138 H 0.24265 0.1473 0.4443 0.0
H139 H 0.23483 0.27686 0.4159 0.0
H140 H 0.09814 0.31398 0.42385 0.0
H141 H 0.96882 0.22194 0.46044 0.0
C142 C 0.86817 0.09005 0.49968 0.0
C143 C 0.95418 0.07232 0.4966 0.0
C144 C 1.02993 0.12787 0.47546 0.0
C145 C 0.10924 0.10717 0.47108 0.0
C146 C 0.18212 0.16157 0.44911 0.0
C147 C 0.17806 0.23567 0.43245 0.0
C148 C 0.10112 0.25653 0.43693 0.0
C149 C 1.02746 0.20321 0.45804 0.0
H150 H 0.8908 0.73942 0.84644 0.0
C151 C 0.83464 0.74829 0.83434 0.0
H152 H 0.80483 0.84664 0.80936 0.0
H153 H 0.21277 0.16009 0.88472 0.0
H154 H 0.10789 0.10018 0.92863 0.0
H155 H 0.93474 0.96093 0.92536 0.0
H156 H 0.86559 0.88038 0.87824 0.0
C157 C 0.8591 0.83752 0.82241 0.0
C158 C 0.96256 0.924 0.82454 0.0
C159 C 1.00153 0.97103 0.85227 0.0
C160 C 0.10094 0.05251 0.85408 0.0
C161 C 0.1379 0.0979 0.88206 0.0
C162 C 0.07841 0.06444 0.90745 0.0
C163 C 0.98097 0.98598 0.90561 0.0
C164 C 0.94244 0.93986 0.87841 0.0
H165 H 0.23176 0.27458 0.80775 0.0
C166 C 0.28846 0.26467 0.81913 0.0
H167 H 0.319 0.16411 0.84262 0.0
H168 H 0.91044 0.85223 0.76787 0.0
H169 H 1.01438 0.91403 0.72383 0.0
H170 H 0.18658 0.05518 0.727 0.0
H171 H 0.25633 0.13446 0.7742 0.0
C172 C 0.26431 0.17448 0.83023 0.0
C173 C 0.16057 0.08844 0.82809 0.0
C174 C 0.1213 0.04195 0.80031 0.0
C175 C 1.02205 0.96014 0.79852 0.0
C176 C 0.98503 0.91491 0.77051 0.0
C177 C 0.04399 0.94943 0.74505 0.0
C178 C 0.14097 0.02879 0.74683 0.0
C179 C 0.17982 0.07427 0.77408 0.0
H180 H 0.48366 0.52827 0.92372 0.0
C181 C 0.48412 0.57304 0.90494 0.0
H182 H 0.47251 0.69889 0.89191 0.0
H183 H 0.25958 0.53703 0.02585 0.0
H184 H 0.1211 0.41159 -0.00248 0.0
H185 H 0.12923 0.40686 0.94285 0.0
H186 H 0.27869 0.52599 0.91627 0.0
C187 C 0.46723 0.64926 0.90984 0.0
C188 C 0.4511 0.67165 0.94088 0.0
C189 C 0.36165 0.60568 0.95596 0.0
C190 C 0.35541 0.61174 0.98736 0.0
C191 C 0.26775 0.53919 0.00198 0.0
C192 C 0.18749 0.46614 0.98597 0.0
C193 C 0.19223 0.46315 0.95519 0.0
C194 C 0.27837 0.53158 0.94025 0.0
H195 H 0.32872 0.72858 0.041 0.0
C196 C 0.37632 0.706 0.05258 0.0
H197 H 0.48446 0.661 0.04727 0.0
H198 H 0.62733 0.8181 0.91794 0.0
H199 H 0.76423 0.95015 0.94565 0.0
H200 H 0.75258 0.96377 -3e-05 0.0
H201 H 0.60354 0.84603 0.02696 0.0
C202 C 0.43758 0.68575 0.03651 0.0
C203 C 0.43758 0.68715 0.00341 0.0
C204 C 0.52386 0.75814 0.98792 0.0
C205 C 0.53055 0.75047 0.95659 0.0
C206 C 0.6186 0.82071 0.94174 0.0
C207 C 0.69754 0.89686 0.95736 0.0
C208 C 0.69091 0.90459 0.98796 0.0
C209 C 0.6052 0.83638 0.00318 0.0
H210 H 0.65234 0.27477 0.41386 0.0
C211 C 0.61116 0.19364 0.41356 0.0
H212 H 0.55211 0.06416 0.38691 0.0
H213 H 0.54599 0.26496 0.26604 0.0
H214 H 0.36863 0.16371 0.27635 0.0
H215 H 0.30953 0.07979 0.32483 0.0
H216 H 0.42722 0.09593 0.36318 0.0
C217 C 0.59481 0.14519 0.38761 0.0
C218 C 0.63126 0.20004 0.35901 0.0
C219 C 0.56139 0.18989 0.3369 0.0
C220 C 0.5954 0.23756 0.30888 0.0
C221 C 0.52405 0.22768 0.28736 0.0
C222 C 0.4221 0.17072 0.29311 0.0
C223 C 0.38883 0.12366 0.32042 0.0
C224 C 0.45725 0.1333 0.34221 0.0
H225 H 0.66435 0.18287 0.25525 0.0
C226 C 0.71585 0.26126 0.25063 0.0
H227 H 0.78717 0.40734 0.26807 0.0
H228 H 0.78709 0.23085 0.3957 0.0
H229 H 0.96255 0.34451 0.38699 0.0
H230 H 1.01935 0.44062 0.34042 0.0
H231 H 0.9026 0.41739 0.30119 0.0
C232 C 0.73629 0.32877 0.27221 0.0
C233 C 0.69927 0.29502 0.303 0.0
C234 C 0.76888 0.31173 0.32592 0.0
C235 C 0.73519 0.2614 0.35362 0.0
C236 C 0.80731 0.27183 0.375 0.0
C237 C 0.90869 0.33595 0.37015 0.0
C238 C 0.94091 0.38921 0.34377 0.0
C239 C 0.87264 0.37581 0.32155 0.0
H240 H 0.56858 0.81063 0.72171 0.0
C241 C 0.49158 0.76345 0.72873 0.0
H242 H 0.34006 0.69992 0.71671 0.0
H243 H 0.3843 1.01161 0.61949 0.0
H244 H 0.28315 0.03355 0.65683 0.0
H245 H 0.25222 0.9495 0.70551 0.0
H246 H 0.32164 0.84302 0.71717 0.0
C247 C 0.41714 0.74836 0.71011 0.0
C248 C 0.43652 0.79862 0.68055 0.0
C249 C 0.39599 0.86152 0.67419 0.0
C250 C 0.41511 0.91121 0.64628 0.0
C251 C 0.37277 0.9727 0.64042 0.0
C252 C 0.31456 0.98596 0.66164 0.0
C253 C 0.29712 0.93868 0.68904 0.0
C254 C 0.33727 0.87735 0.6954 0.0
H255 H 0.41573 0.82754 0.57031 0.0
C256 C 0.4626 0.90828 0.57049 0.0
H257 H 0.54444 0.03644 0.59712 0.0
H258 H 0.5083 0.6672 0.68258 0.0
H259 H 0.61423 0.65029 0.64601 0.0
H260 H 0.66419 0.75206 0.6003 0.0
H261 H 0.60466 0.86813 0.5903 0.0
C262 C 0.49951 0.95557 0.5964 0.0
C263 C 0.4766 0.89987 0.62501 0.0
C264 C 0.5171 0.83686 0.63129 0.0
C265 C 0.49406 0.78337 0.65862 0.0
C266 C 0.52834 0.71438 0.66311 0.0
C267 C 0.58865 0.70324 0.64216 0.0
C268 C 0.61621 0.76004 0.61633 0.0
C269 C 0.58099 0.82605 0.61081 0.0
H270 H 0.79018 0.28615 0.91906 0.0
C271 C 0.76002 0.33668 0.91874 0.0
H272 H 0.74145 0.44378 0.94284 0.0
H273 H 0.85906 0.22649 0.05058 0.0
H274 H 0.70873 0.0731 0.0375 0.0
H275 H 0.60936 0.06599 -0.00633 0.0
H276 H 0.66052 0.21141 0.96243 0.0
C277 C 0.77102 0.39296 0.94271 0.0
C278 C 0.82987 0.39431 0.969 0.0
C279 C 0.79559 0.30943 0.98773 0.0
C280 C 0.84964 0.31492 0.01391 0.0
C281 C 0.81785 0.22767 0.03128 0.0
C282 C 0.73221 0.13893 0.02388 0.0
C283 C 0.67648 0.13486 -0.00085 0.0
C284 C 0.70721 0.21891 0.98126 0.0
H285 H 0.85066 0.3804 0.07627 0.0
C286 C 0.93037 0.40682 0.07703 0.0
H287 H 0.06121 0.44481 0.05253 0.0
H288 H 0.92259 0.56575 0.93588 0.0
H289 H 0.07363 0.71832 0.94892 0.0
H290 H 0.16145 0.73108 -0.00406 0.0
H291 H 0.09934 0.59163 0.03004 0.0
C292 C 0.98148 0.41827 0.05175 0.0
C293 C 0.93384 0.40676 0.02222 0.0
C294 C 0.9706 0.49012 0.00283 0.0
C295 C 0.91895 0.48349 0.97605 0.0
C296 C 0.95797 0.56723 0.95679 0.0
C297 C 0.04478 0.65523 0.96395 0.0
C298 C 0.09423 0.6624 -0.0096 0.0
C299 C 0.05764 0.58142 0.00979 0.0
H300 H 0.29336 0.60782 0.23433 0.0
C301 C 0.21234 0.56396 0.23391 0.0
H302 H 0.07956 0.49731 0.25928 0.0
H303 H 0.24862 0.46906 0.38236 0.0
H304 H 0.15609 0.29487 0.36796 0.0
H305 H 0.0907 0.24649 0.31711 0.0
H306 H 0.11545 0.37182 0.28037 0.0
C307 C 0.16049 0.54266 0.25946 0.0
C308 C 0.21049 0.57401 0.2889 0.0
C309 C 0.19873 0.50008 0.30979 0.0
C310 C 0.23905 0.52823 0.3389 0.0
C311 C 0.22165 0.4523 0.35974 0.0
C312 C 0.16851 0.3519 0.35182 0.0
C313 C 0.13153 0.32459 0.32317 0.0
C314 C 0.14616 0.39739 0.30232 0.0
H315 H 0.2579 0.74144 0.38526 0.0
C316 C 0.30554 0.7149 0.39463 0.0
H317 H 0.38072 0.63418 0.38662 0.0
H318 H 0.24029 0.73566 0.25531 0.0
H319 H 0.34842 0.90983 0.26756 0.0
H320 H 0.44056 0.95805 0.31497 0.0
H321 H 0.41951 0.83301 0.35127 0.0
C322 C 0.33154 0.65942 0.37775 0.0
C323 C 0.29416 0.6306 0.34672 0.0
C324 C 0.3127 0.70478 0.32499 0.0
C325 C 0.26686 0.67653 0.29655 0.0
C326 C 0.27817 0.7524 0.27649 0.0
C327 C 0.33948 0.85288 0.28333 0.0
C328 C 0.39058 0.88014 0.31014 0.0
C329 C 0.37729 0.80743 0.33087 0.0
H330 H 0.69611 0.40616 0.75188 0.0
C331 C 0.65015 0.44137 0.75039 0.0
H332 H 0.5815 0.49811 0.72183 0.0
H333 H 0.86155 0.57028 0.61194 0.0
H334 H 0.9087 0.74012 0.62587 0.0
H335 H 0.84485 0.77417 0.67214 0.0
H336 H 0.73381 0.63902 0.70469 0.0
C337 C 0.62543 0.4608 0.72362 0.0
C338 C 0.66352 0.43921 0.69583 0.0
C339 C 0.7273 0.51922 0.6769 0.0
C340 C 0.7625 0.49957 0.64994 0.0
C341 C 0.82933 0.58102 0.63201 0.0
C342 C 0.85795 0.67884 0.63994 0.0
C343 C 0.8222 0.69802 0.66602 0.0
C344 C 0.75809 0.61956 0.68445 0.0
H345 H 0.67948 0.45279 0.59151 0.0
C346 C 0.70945 0.40304 0.58767 0.0
H347 H 0.77721 0.32693 0.60656 0.0
H348 H 0.53831 0.26659 0.72626 0.0
H349 H 0.50763 0.10046 0.71495 0.0
H350 H 0.58256 0.06975 0.67062 0.0
H351 H 0.6806 0.20248 0.63607 0.0
C352 C 0.7464 0.37568 0.61055 0.0
C353 C 0.73181 0.39975 0.64161 0.0
C354 C 0.67555 0.32074 0.66178 0.0
C355 C 0.63833 0.33988 0.68845 0.0
C356 C 0.57424 0.25797 0.70675 0.0
C357 C 0.55469 0.16169 0.70031 0.0
C358 C 0.59574 0.14408 0.67517 0.0
C359 C 0.65307 0.22165 0.65563 0.0
loop_
_geom_bond_atom_site_label_1
_geom_bond_atom_site_label_2
_geom_bond_distance
_geom_bond_site_symmetry_2
_ccdc_geom_bond_type
Co0 N5 2.057 . S
Co0 O17 2.021 . S
Co0 O20 2.062 1_455 S
Co0 O24 2.117 . S
Co0 O25 2.020 . S
C1 O21 1.259 . S
C1 O24 1.258 1_655 S
Co2 N11 2.057 . S
Co2 O18 2.117 . S
Co2 O19 2.020 . S
Co2 O21 2.021 . S
Co2 O26 2.062 1_655 S
C3 N5 1.316 . S
C3 N6 1.347 . S
C3 H8 0.931 . S
C4 N5 1.375 . S
C4 C7 1.350 . S
C4 H9 0.930 . S
N5 Co0 2.057 . S
N5 C3 1.316 . S
N5 C4 1.375 . S
N6 C3 1.347 . S
N6 C7 1.373 . S
C7 C4 1.350 . S
C7 N6 1.373 . S
C7 H28 0.931 . S
H8 C3 0.931 . S
H9 C4 0.930 . S
C10 O17 1.259 . S
C10 O18 1.258 1_455 S
N11 Co2 2.057 . S
N11 C12 1.316 . S
N11 C13 1.375 . S
C12 N11 1.316 . S
C12 N14 1.347 . S
C12 H23 0.931 . S
C13 N11 1.375 . S
C13 C15 1.350 . S
C13 H22 0.930 . S
N14 C12 1.347 . S
N14 C15 1.373 . S
C15 C13 1.350 . S
C15 N14 1.373 . S
C15 H29 0.931 . S
C16 O19 1.256 . S
C16 O20 1.255 . S
O17 Co0 2.021 . S
O17 C10 1.259 . S
O18 Co2 2.117 . S
O18 C10 1.258 1_655 S
O19 Co2 2.020 . S
O19 C16 1.256 . S
O20 Co0 2.062 1_655 S
O20 C16 1.255 . S
O21 C1 1.259 . S
O21 Co2 2.021 . S
H22 C13 0.930 . S
H23 C12 0.931 . S
O24 Co0 2.117 . S
O24 C1 1.258 1_455 S
O25 Co0 2.020 . S
O25 C27 1.256 . S
O26 Co2 2.062 1_455 S
O26 C27 1.255 . S
C27 O25 1.256 . S
C27 O26 1.255 . S
H28 C7 0.931 . S
H29 C15 0.931 . S
Co30 N35 2.057 . S
Co30 O47 2.021 . S
Co30 O50 2.062 1_565 S
Co30 O54 2.117 . S
Co30 O55 2.020 . S
C31 O51 1.259 . S
C31 O54 1.258 1_545 S
Co32 N41 2.057 . S
Co32 O48 2.117 . S
Co32 O49 2.020 . S
Co32 O51 2.021 . S
Co32 O56 2.062 1_545 S
C33 N35 1.316 . S
C33 N36 1.347 . S
C33 H38 0.931 . S
C34 N35 1.375 . S
C34 C37 1.350 . S
C34 H39 0.930 . S
N35 Co30 2.057 . S
N35 C33 1.316 . S
N35 C34 1.375 . S
N36 C33 1.347 . S
N36 C37 1.373 . S
C37 C34 1.350 . S
C37 N36 1.373 . S
C37 H58 0.931 . S
H38 C33 0.931 . S
H39 C34 0.930 . S
C40 O47 1.259 1_545 S
C40 O48 1.258 . S
N41 Co32 2.057 . S
N41 C42 1.316 . S
N41 C43 1.375 . S
C42 N41 1.316 . S
C42 N44 1.347 . S
C42 H53 0.931 . S
C43 N41 1.375 . S
C43 C45 1.350 . S
C43 H52 0.930 . S
N44 C42 1.347 . S
N44 C45 1.373 . S
C45 C43 1.350 . S
C45 N44 1.373 . S
C45 H59 0.931 . S
C46 O49 1.256 . S
C46 O50 1.255 . S
O47 Co30 2.021 . S
O47 C40 1.259 1_565 S
O48 Co32 2.117 . S
O48 C40 1.258 . S
O49 Co32 2.020 . S
O49 C46 1.256 . S
O50 Co30 2.062 1_545 S
O50 C46 1.255 . S
O51 C31 1.259 . S
O51 Co32 2.021 . S
H52 C43 0.930 . S
H53 C42 0.931 . S
O54 Co30 2.117 . S
O54 C31 1.258 1_565 S
O55 Co30 2.020 . S
O55 C57 1.256 . S
O56 Co32 2.062 1_565 S
O56 C57 1.255 . S
C57 O55 1.256 . S
C57 O56 1.255 . S
H58 C37 0.931 . S
H59 C45 0.931 . S
Co60 N65 2.057 . S
Co60 O77 2.021 . S
Co60 O80 2.062 . S
Co60 O84 2.117 . S
Co60 O85 2.020 . S
C61 O81 1.259 . S
C61 O84 1.258 . S
Co62 N71 2.057 . S
Co62 O78 2.117 . S
Co62 O79 2.020 . S
Co62 O81 2.021 . S
Co62 O86 2.062 . S
C63 N65 1.316 . S
C63 N66 1.347 . S
C63 H68 0.931 . S
C64 N65 1.375 . S
C64 C67 1.350 . S
C64 H69 0.930 . S
N65 Co60 2.057 . S
N65 C63 1.316 . S
N65 C64 1.375 . S
N66 C63 1.347 . S
N66 C67 1.373 . S
C67 C64 1.350 . S
C67 N66 1.373 . S
C67 H88 0.931 . S
H68 C63 0.931 . S
H69 C64 0.930 . S
C70 O77 1.259 . S
C70 O78 1.258 . S
N71 Co62 2.057 . S
N71 C72 1.316 . S
N71 C73 1.375 . S
C72 N71 1.316 . S
C72 N74 1.347 . S
C72 H83 0.931 . S
C73 N71 1.375 . S
C73 C75 1.350 . S
C73 H82 0.930 . S
N74 C72 1.347 . S
N74 C75 1.373 . S
C75 C73 1.350 . S
C75 N74 1.373 . S
C75 H89 0.931 . S
C76 O79 1.256 . S
C76 O80 1.255 . S
O77 Co60 2.021 . S
O77 C70 1.259 . S
O78 Co62 2.117 . S
O78 C70 1.258 . S
O79 Co62 2.020 . S
O79 C76 1.256 . S
O80 Co60 2.062 . S
O80 C76 1.255 . S
O81 C61 1.259 . S
O81 Co62 2.021 . S
H82 C73 0.930 . S
H83 C72 0.931 . S
O84 Co60 2.117 . S
O84 C61 1.258 . S
O85 Co60 2.020 . S
O85 C87 1.256 . S
O86 Co62 2.062 . S
O86 C87 1.255 . S
C87 O85 1.256 . S
C87 O86 1.255 . S
H88 C67 0.931 . S
H89 C75 0.931 . S
H90 C91 0.951 . S
C91 H90 0.951 . S
C91 C97 1.265 1_655 S
H92 C97 0.950 . S
H93 C101 0.949 . S
H94 C102 0.950 . S
H95 C103 0.955 . S
H96 C104 0.951 . S
C97 C91 1.265 1_455 S
C97 H92 0.950 . S
C97 C98 1.478 . S
C98 C97 1.478 . S
C98 C99 1.397 . S
C98 C115 1.394 1_455 S
C99 C98 1.397 . S
C99 C100 1.438 1_565 S
C99 C104 1.429 . S
C100 C99 1.438 1_545 S
C100 C101 1.428 . S
C100 C113 1.394 1_455 S
C101 H93 0.949 . S
C101 C100 1.428 . S
C101 C102 1.345 . S
C102 H94 0.950 . S
C102 C101 1.345 . S
C102 C103 1.424 . S
C103 H95 0.955 . S
C103 C102 1.424 . S
C103 C104 1.347 1_545 S
C104 H96 0.951 . S
C104 C99 1.429 . S
C104 C103 1.347 1_565 S
H105 C106 0.951 . S
C106 H105 0.951 . S
C106 C112 1.265 1_455 S
H107 C112 0.950 . S
H108 C116 0.949 . S
H109 C117 0.950 . S
H110 C118 0.951 . S
H111 C119 0.951 . S
C112 C106 1.265 1_655 S
C112 H107 0.950 . S
C112 C113 1.478 . S
C113 C100 1.394 1_655 S
C113 C112 1.478 . S
C113 C114 1.397 . S
C114 C113 1.397 . S
C114 C115 1.438 1_545 S
C114 C119 1.429 . S
C115 C98 1.394 1_655 S
C115 C114 1.438 1_565 S
C115 C116 1.428 . S
C116 H108 0.949 . S
C116 C115 1.428 . S
C116 C117 1.345 . S
C117 H109 0.950 . S
C117 C116 1.345 . S
C117 C118 1.424 . S
C118 H110 0.951 . S
C118 C117 1.424 . S
C118 C119 1.347 1_565 S
C119 H111 0.951 . S
C119 C114 1.429 . S
C119 C118 1.347 1_545 S
H120 C121 0.951 . S
C121 H120 0.951 . S
C121 C127 1.265 . S
H122 C127 0.950 1_565 S
H123 C131 0.949 . S
H124 C132 0.950 . S
H125 C133 0.951 . S
H126 C134 0.951 . S
C127 C121 1.265 . S
C127 H122 0.950 1_545 S
C127 C128 1.478 . S
C128 C127 1.478 . S
C128 C129 1.397 1_545 S
C128 C145 1.394 . S
C129 C128 1.397 1_565 S
C129 C130 1.438 1_455 S
C129 C134 1.429 . S
C130 C129 1.438 1_655 S
C130 C131 1.428 . S
C130 C143 1.394 1_565 S
C131 H123 0.949 . S
C131 C130 1.428 . S
C131 C132 1.345 . S
C132 H124 0.950 . S
C132 C131 1.345 . S
C132 C133 1.424 . S
C133 H125 0.951 . S
C133 C132 1.424 . S
C133 C134 1.347 1_655 S
C134 H126 0.951 . S
C134 C129 1.429 . S
C134 C133 1.347 1_455 S
H135 C136 0.951 . S
C136 H135 0.951 . S
C136 C142 1.265 . S
H137 C142 0.950 . S
H138 C146 0.949 . S
H139 C147 0.950 . S
H140 C148 0.951 . S
H141 C149 0.951 . S
C142 C136 1.265 . S
C142 H137 0.950 . S
C142 C143 1.478 . S
C143 C130 1.394 1_545 S
C143 C142 1.478 . S
C143 C144 1.397 1_655 S
C144 C143 1.397 1_455 S
C144 C145 1.438 . S
C144 C149 1.429 . S
C145 C128 1.394 . S
C145 C144 1.438 . S
C145 C146 1.428 . S
C146 H138 0.949 . S
C146 C145 1.428 . S
C146 C147 1.345 . S
C147 H139 0.950 . S
C147 C146 1.345 . S
C147 C148 1.424 . S
C148 H140 0.951 . S
C148 C147 1.424 . S
C148 C149 1.347 . S
C149 H141 0.951 . S
C149 C144 1.429 . S
C149 C148 1.347 . S
H150 C151 0.951 . S
C151 H150 0.951 . S
C151 C157 1.265 . S
H152 C157 0.950 . S
H153 C161 0.949 . S
H154 C162 0.950 . S
H155 C163 0.951 . S
H156 C164 0.951 . S
C157 C151 1.265 . S
C157 H152 0.950 . S
C157 C158 1.478 . S
C158 C157 1.478 . S
C158 C159 1.397 . S
C158 C175 1.394 . S
C159 C158 1.397 . S
C159 C160 1.438 1_665 S
C159 C164 1.429 . S
C160 C159 1.438 1_445 S
C160 C161 1.428 . S
C160 C173 1.394 . S
C161 H153 0.949 . S
C161 C160 1.428 . S
C161 C162 1.345 . S
C162 H154 0.950 . S
C162 C161 1.345 . S
C162 C163 1.424 1_445 S
C163 H155 0.951 . S
C163 C162 1.424 1_665 S
C163 C164 1.347 . S
C164 H156 0.951 . S
C164 C159 1.429 . S
C164 C163 1.347 . S
H165 C166 0.951 . S
C166 H165 0.951 . S
C166 C172 1.265 . S
H167 C172 0.950 . S
H168 C176 0.949 . S
H169 C177 0.950 1_655 S
H170 C178 0.951 . S
H171 C179 0.951 . S
C172 C166 1.265 . S
C172 H167 0.950 . S
C172 C173 1.478 . S
C173 C160 1.394 . S
C173 C172 1.478 . S
C173 C174 1.397 . S
C174 C173 1.397 . S
C174 C175 1.438 1_445 S
C174 C179 1.429 . S
C175 C158 1.394 . S
C175 C174 1.438 1_665 S
C175 C176 1.428 . S
C176 H168 0.949 . S
C176 C175 1.428 . S
C176 C177 1.345 1_655 S
C177 H169 0.950 1_455 S
C177 C176 1.345 1_455 S
C177 C178 1.424 . S
C178 H170 0.951 . S
C178 C177 1.424 . S
C178 C179 1.347 1_565 S
C179 H171 0.951 . S
C179 C174 1.429 . S
C179 C178 1.347 1_545 S
H180 C181 0.951 . S
C181 H180 0.951 . S
C181 C187 1.265 . S
H182 C187 0.950 . S
H183 C191 0.949 . S
H184 C192 0.950 1_554 S
H185 C193 0.951 . S
H186 C194 0.951 . S
C187 C181 1.265 . S
C187 H182 0.950 . S
C187 C188 1.478 . S
C188 C187 1.478 . S
C188 C189 1.397 . S
C188 C205 1.394 . S
C189 C188 1.397 . S
C189 C190 1.438 . S
C189 C194 1.429 . S
C190 C189 1.438 . S
C190 C191 1.428 1_556 S
C190 C203 1.394 1_556 S
C191 H183 0.949 . S
C191 C190 1.428 1_554 S
C191 C192 1.345 1_554 S
C192 H184 0.950 1_556 S
C192 C191 1.345 1_556 S
C192 C193 1.424 . S
C193 H185 0.951 . S
C193 C192 1.424 . S
C193 C194 1.347 . S
C194 H186 0.951 . S
C194 C189 1.429 . S
C194 C193 1.347 . S
H195 C196 0.951 . S
C196 H195 0.951 . S
C196 C202 1.265 . S
H197 C202 0.950 . S
H198 C206 0.949 . S
H199 C207 0.950 . S
H200 C208 0.951 . S
H201 C209 0.951 . S
C202 C196 1.265 . S
C202 H197 0.950 . S
C202 C203 1.478 . S
C203 C190 1.394 1_554 S
C203 C202 1.478 . S
C203 C204 1.397 1_554 S
C204 C203 1.397 1_556 S
C204 C205 1.438 . S
C204 C209 1.429 1_556 S
C205 C188 1.394 . S
C205 C204 1.438 . S
C205 C206 1.428 . S
C206 H198 0.949 . S
C206 C205 1.428 . S
C206 C207 1.345 . S
C207 H199 0.950 . S
C207 C206 1.345 . S
C207 C208 1.424 . S
C208 H200 0.951 . S
C208 C207 1.424 . S
C208 C209 1.347 1_556 S
C209 H201 0.951 . S
C209 C204 1.429 1_554 S
C209 C208 1.347 1_554 S
H210 C211 0.951 . S
C211 H210 0.951 . S
C211 C217 1.265 . S
H212 C217 0.950 . S
H213 C221 0.949 . S
H214 C222 0.950 . S
H215 C223 0.951 . S
H216 C224 0.951 . S
C217 C211 1.265 . S
C217 H212 0.950 . S
C217 C218 1.478 . S
C218 C217 1.478 . S
C218 C219 1.397 . S
C218 C235 1.394 . S
C219 C218 1.397 . S
C219 C220 1.438 . S
C219 C224 1.429 . S
C220 C219 1.438 . S
C220 C221 1.428 . S
C220 C233 1.394 . S
C221 H213 0.949 . S
C221 C220 1.428 . S
C221 C222 1.345 . S
C222 H214 0.950 . S
C222 C221 1.345 . S
C222 C223 1.424 . S
C223 H215 0.951 . S
C223 C222 1.424 . S
C223 C224 1.347 . S
C224 H216 0.951 . S
C224 C219 1.429 . S
C224 C223 1.347 . S
H225 C226 0.951 . S
C226 H225 0.951 . S
C226 C232 1.265 . S
H227 C232 0.950 . S
H228 C236 0.949 . S
H229 C237 0.950 . S
H230 C238 0.951 . S
H231 C239 0.951 . S
C232 C226 1.265 . S
C232 H227 0.950 . S
C232 C233 1.478 . S
C233 C220 1.394 . S
C233 C232 1.478 . S
C233 C234 1.397 . S
C234 C233 1.397 . S
C234 C235 1.438 . S
C234 C239 1.429 . S
C235 C218 1.394 . S
C235 C234 1.438 . S
C235 C236 1.428 . S
C236 H228 0.949 . S
C236 C235 1.428 . S
C236 C237 1.345 . S
C237 H229 0.950 . S
C237 C236 1.345 . S
C237 C238 1.424 . S
C238 H230 0.951 . S
C238 C237 1.424 . S
C238 C239 1.347 . S
C239 H231 0.951 . S
C239 C234 1.429 . S
C239 C238 1.347 . S
H240 C241 0.951 . S
C241 H240 0.951 . S
C241 C247 1.265 . S
H242 C247 0.950 . S
H243 C251 0.949 . S
H244 C252 0.950 . S
H245 C253 0.951 1_545 S
H246 C254 0.951 . S
C247 C241 1.265 . S
C247 H242 0.950 . S
C247 C248 1.478 . S
C248 C247 1.478 . S
C248 C249 1.397 . S
C248 C265 1.394 . S
C249 C248 1.397 . S
C249 C250 1.438 . S
C249 C254 1.429 . S
C250 C249 1.438 . S
C250 C251 1.428 . S
C250 C263 1.394 . S
C251 H243 0.949 . S
C251 C250 1.428 . S
C251 C252 1.345 1_565 S
C252 H244 0.950 . S
C252 C251 1.345 1_545 S
C252 C253 1.424 1_545 S
C253 H245 0.951 1_565 S
C253 C252 1.424 1_565 S
C253 C254 1.347 . S
C254 H246 0.951 . S
C254 C249 1.429 . S
C254 C253 1.347 . S
H255 C256 0.951 . S
C256 H255 0.951 . S
C256 C262 1.265 . S
H257 C262 0.950 . S
H258 C266 0.949 . S
H259 C267 0.950 . S
H260 C268 0.951 . S
H261 C269 0.951 . S
C262 C256 1.265 . S
C262 H257 0.950 . S
C262 C263 1.478 . S
C263 C250 1.394 . S
C263 C262 1.478 . S
C263 C264 1.397 . S
C264 C263 1.397 . S
C264 C265 1.438 . S
C264 C269 1.429 . S
C265 C248 1.394 . S
C265 C264 1.438 . S
C265 C266 1.428 . S
C266 H258 0.949 . S
C266 C265 1.428 . S
C266 C267 1.345 . S
C267 H259 0.950 . S
C267 C266 1.345 . S
C267 C268 1.424 . S
C268 H260 0.951 . S
C268 C267 1.424 . S
C268 C269 1.347 . S
C269 H261 0.951 . S
C269 C264 1.429 . S
C269 C268 1.347 . S
H270 C271 0.951 . S
C271 H270 0.951 . S
C271 C277 1.265 . S
H272 C277 0.950 . S
H273 C281 0.949 . S
H274 C282 0.950 . S
H275 C283 0.951 . S
H276 C284 0.951 1_556 S
C277 C271 1.265 . S
C277 H272 0.950 . S
C277 C278 1.478 . S
C278 C277 1.478 . S
C278 C279 1.397 1_556 S
C278 C295 1.394 1_556 S
C279 C278 1.397 1_554 S
C279 C280 1.438 . S
C279 C284 1.429 . S
C280 C279 1.438 . S
C280 C281 1.428 . S
C280 C293 1.394 . S
C281 H273 0.949 . S
C281 C280 1.428 . S
C281 C282 1.345 . S
C282 H274 0.950 . S
C282 C281 1.345 . S
C282 C283 1.424 . S
C283 H275 0.951 . S
C283 C282 1.424 . S
C283 C284 1.347 . S
C284 H276 0.951 1_554 S
C284 C279 1.429 . S
C284 C283 1.347 . S
H285 C286 0.951 . S
C286 H285 0.951 . S
C286 C292 1.265 . S
H287 C292 0.950 . S
H288 C296 0.949 . S
H289 C297 0.950 . S
H290 C298 0.951 1_455 S
H291 C299 0.951 . S
C292 C286 1.265 . S
C292 H287 0.950 . S
C292 C293 1.478 . S
C293 C280 1.394 . S
C293 C292 1.478 . S
C293 C294 1.397 . S
C294 C293 1.397 . S
C294 C295 1.438 . S
C294 C299 1.429 . S
C295 C278 1.394 1_554 S
C295 C294 1.438 . S
C295 C296 1.428 1_554 S
C296 H288 0.949 . S
C296 C295 1.428 1_556 S
C296 C297 1.345 . S
C297 H289 0.950 . S
C297 C296 1.345 . S
C297 C298 1.424 1_556 S
C298 H290 0.951 1_655 S
C298 C297 1.424 1_554 S
C298 C299 1.347 . S
C299 H291 0.951 . S
C299 C294 1.429 . S
C299 C298 1.347 . S
H300 C301 0.951 . S
C301 H300 0.951 . S
C301 C307 1.265 . S
H302 C307 0.950 . S
H303 C311 0.949 . S
H304 C312 0.950 . S
H305 C313 0.951 . S
H306 C314 0.951 . S
C307 C301 1.265 . S
C307 H302 0.950 . S
C307 C308 1.478 . S
C308 C307 1.478 . S
C308 C309 1.397 . S
C308 C325 1.394 . S
C309 C308 1.397 . S
C309 C310 1.438 . S
C309 C314 1.429 . S
C310 C309 1.438 . S
C310 C311 1.428 . S
C310 C323 1.394 . S
C311 H303 0.949 . S
C311 C310 1.428 . S
C311 C312 1.345 . S
C312 H304 0.950 . S
C312 C311 1.345 . S
C312 C313 1.424 . S
C313 H305 0.951 . S
C313 C312 1.424 . S
C313 C314 1.347 . S
C314 H306 0.951 . S
C314 C309 1.429 . S
C314 C313 1.347 . S
H315 C316 0.951 . S
C316 H315 0.951 . S
C316 C322 1.265 . S
H317 C322 0.950 . S
H318 C326 0.949 . S
H319 C327 0.950 . S
H320 C328 0.951 . S
H321 C329 0.951 . S
C322 C316 1.265 . S
C322 H317 0.950 . S
C322 C323 1.478 . S
C323 C310 1.394 . S
C323 C322 1.478 . S
C323 C324 1.397 . S
C324 C323 1.397 . S
C324 C325 1.438 . S
C324 C329 1.429 . S
C325 C308 1.394 . S
C325 C324 1.438 . S
C325 C326 1.428 . S
C326 H318 0.949 . S
C326 C325 1.428 . S
C326 C327 1.345 . S
C327 H319 0.950 . S
C327 C326 1.345 . S
C327 C328 1.424 . S
C328 H320 0.951 . S
C328 C327 1.424 . S
C328 C329 1.347 . S
C329 H321 0.951 . S
C329 C324 1.429 . S
C329 C328 1.347 . S
H330 C331 0.951 . S
C331 H330 0.951 . S
C331 C337 1.265 . S
H332 C337 0.950 . S
H333 C341 0.949 . S
H334 C342 0.950 . S
H335 C343 0.951 . S
H336 C344 0.951 . S
C337 C331 1.265 . S
C337 H332 0.950 . S
C337 C338 1.478 . S
C338 C337 1.478 . S
C338 C339 1.397 . S
C338 C355 1.394 . S
C339 C338 1.397 . S
C339 C340 1.438 . S
C339 C344 1.429 . S
C340 C339 1.438 . S
C340 C341 1.428 . S
C340 C353 1.394 . S
C341 H333 0.949 . S
C341 C340 1.428 . S
C341 C342 1.345 . S
C342 H334 0.950 . S
C342 C341 1.345 . S
C342 C343 1.424 . S
C343 H335 0.951 . S
C343 C342 1.424 . S
C343 C344 1.347 . S
C344 H336 0.951 . S
C344 C339 1.429 . S
C344 C343 1.347 . S
H345 C346 0.951 . S
C346 H345 0.951 . S
C346 C352 1.265 . S
H347 C352 0.950 . S
H348 C356 0.949 . S
H349 C357 0.950 . S
H350 C358 0.951 . S
H351 C359 0.951 . S
C352 C346 1.265 . S
C352 H347 0.950 . S
C352 C353 1.478 . S
C353 C340 1.394 . S
C353 C352 1.478 . S
C353 C354 1.397 . S
C354 C353 1.397 . S
C354 C355 1.438 . S
C354 C359 1.429 . S
C355 C338 1.394 . S
C355 C354 1.438 . S
C355 C356 1.428 . S
C356 H348 0.949 . S
C356 C355 1.428 . S
C356 C357 1.345 . S
C357 H349 0.950 . S
C357 C356 1.345 . S
C357 C358 1.424 . S
C358 H350 0.951 . S
C358 C357 1.424 . S
C358 C359 1.347 . S
C359 H351 0.951 . S
C359 C354 1.429 . S
C359 C358 1.347 . S
C91 C1 1.693 . S
C106 C10 1.693 . S
C121 C40 1.707 . S
C136 C31 1.707 . S
C151 C70 1.715 . S
C166 C61 1.715 . S
C181 C87 0.997 . S
C196 N6 1.005 . S
C211 C46 0.931 . S
C226 N14 0.796 . S
C241 N66 1.020 . S
C256 C57 1.035 . S
C271 N74 0.851 . S
C286 C16 0.921 . S
C301 C27 1.061 . S
C316 N36 1.054 . S
C331 C76 0.930 . S
C346 N44 0.775 . S
