# Generated by pormake.
# Topology mdf, (4)-cn, num edge types: 1
# Building blocks:
#     Node 0, Type 0, BuildingBlock: KUFVIS_clean_sbu_0, # of connection points: 4
#     Node 1, Type 0, BuildingBlock: KUFVIS_clean_sbu_0, # of connection points: 4
#     Node 2, Type 0, BuildingBlock: KUFVIS_clean_sbu_0, # of connection points: 4
#     Node 3, Type 0, BuildingBlock: KUFVIS_clean_sbu_0, # of connection points: 4
#     Node 4, Type 0, BuildingBlock: KUFVIS_clean_sbu_0, # of connection points: 4
#     Node 5, Type 0, BuildingBlock: KUFVIS_clean_sbu_0, # of connection points: 4
#     Node 6, Type 0, BuildingBlock: KUFVIS_clean_sbu_0, # of connection points: 4
#     Node 7, Type 0, BuildingBlock: KUFVIS_clean_sbu_0, # of connection points: 4
#     Edge 8, Type (0, 0), BuildingBlock: AJUNOK_clean_linker_0, # of connection points: 2
#     Edge 9, Type (0, 0), BuildingBlock: AJUNOK_clean_linker_0, # of connection points: 2
#     Edge 10, Type (0, 0), BuildingBlock: AJUNOK_clean_linker_0, # of connection points: 2
#     Edge 11, Type (0, 0), BuildingBlock: AJUNOK_clean_linker_0, # of connection points: 2
#     Edge 12, Type (0, 0), BuildingBlock: AJUNOK_clean_linker_0, # of connection points: 2
#     Edge 13, Type (0, 0), BuildingBlock: AJUNOK_clean_linker_0, # of connection points: 2
#     Edge 14, Type (0, 0), BuildingBlock: AJUNOK_clean_linker_0, # of connection points: 2
#     Edge 15, Type (0, 0), BuildingBlock: AJUNOK_clean_linker_0, # of connection points: 2
#     Edge 16, Type (0, 0), BuildingBlock: AJUNOK_clean_linker_0, # of connection points: 2
#     Edge 17, Type (0, 0), BuildingBlock: AJUNOK_clean_linker_0, # of connection points: 2
#     Edge 18, Type (0, 0), BuildingBlock: AJUNOK_clean_linker_0, # of connection points: 2
#     Edge 19, Type (0, 0), BuildingBlock: AJUNOK_clean_linker_0, # of connection points: 2
#     Edge 20, Type (0, 0), BuildingBlock: AJUNOK_clean_linker_0, # of connection points: 2
#     Edge 21, Type (0, 0), BuildingBlock: AJUNOK_clean_linker_0, # of connection points: 2
#     Edge 22, Type (0, 0), BuildingBlock: AJUNOK_clean_linker_0, # of connection points: 2
#     Edge 23, Type (0, 0), BuildingBlock: AJUNOK_clean_linker_0, # of connection points: 2
# Relax obj value: 0.028
# Max RMSD: 0.051
# Mean RMSD: 0.051
data_MOF--net-mdf--node1-KUFVIS_clean_sbu_0--edge1-AJUNOK_clean_linker_0
_symmetry_space_group_name_H-M    P1
_symmetry_Int_Tables_number       1
_symmetry_cell_setting            triclinic
loop_
_symmetry_equiv_pos_as_xyz
'x, y, z'
_cell_length_a     27.611507
_cell_length_b     27.407009
_cell_length_c     9.181205
_cell_angle_alpha  90.023341
_cell_angle_beta   89.79278
_cell_angle_gamma 94.262181
loop_
_atom_site_label
_atom_site_type_symbol
_atom_site_fract_x
_atom_site_fract_y
_atom_site_fract_z
_atom_type_partial_charge
Mn0 Mn 0.24637 0.5307 0.45354 0.0
Mn1 Mn 0.25115 0.50931 0.10715 0.0
C2 C 0.1923 0.46275 0.36312 0.0
C3 C 0.21459 0.5908 0.60721 0.0
C4 C 0.32735 0.47792 0.33705 0.0
O5 O 0.29914 0.58256 0.36564 0.0
O6 O 0.25351 0.57599 0.17987 0.0
C7 C 0.1543 0.54833 0.09419 0.0
N8 N 0.18684 0.51774 0.04009 0.0
C9 C 0.12712 0.4804 0.87891 0.0
C10 C 0.09407 0.51381 0.92404 0.0
C11 C 0.10733 0.54716 0.03547 0.0
C12 C 0.17219 0.48154 0.94862 0.0
H13 H 0.1643 0.57367 0.18097 0.0
C14 C 0.2911 0.59545 0.2359 0.0
O15 O 0.25082 0.56649 0.64738 0.0
O16 O 0.19689 0.57998 0.47984 0.0
N17 N 0.24612 0.44948 0.00181 0.0
C18 C 0.28634 0.43033 0.94651 0.0
C19 C 0.28399 0.40447 0.81532 0.0
C20 C 0.23974 0.39691 0.74184 0.0
C21 C 0.19893 0.41833 0.79586 0.0
C22 C 0.20464 0.44697 0.92168 0.0
H23 H 0.32146 0.44123 0.98966 0.0
O24 O 0.19363 0.47536 0.49852 0.0
O25 O 0.22177 0.49059 0.28673 0.0
O26 O 0.30013 0.48526 0.44759 0.0
O27 O 0.31675 0.49199 0.20414 0.0
C28 C 0.15474 0.4177 0.71901 0.0
C29 C 0.11781 0.4469 0.76525 0.0
H30 H 0.05844 0.51386 0.87503 0.0
H31 H 0.08175 0.57225 0.07466 0.0
H32 H 0.3172 0.39393 0.76605 0.0
H33 H 0.23832 0.37788 0.63832 0.0
H34 H 0.14926 0.39563 0.62186 0.0
H35 H 0.08358 0.44531 0.70781 0.0
Mn36 Mn 0.48311 0.74887 0.58756 0.0
Mn37 Mn 0.52542 0.72201 0.90391 0.0
C38 C 0.5475 0.80693 0.68413 0.0
C39 C 0.42081 0.78151 0.44582 0.0
C40 C 0.54369 0.6641 0.63623 0.0
O41 O 0.43396 0.69513 0.68764 0.0
O42 O 0.45529 0.71924 0.90984 0.0
C43 C 0.5064 0.81295 0.05685 0.0
N44 N 0.52813 0.7703 0.04683 0.0
C45 C 0.57742 0.7882 0.25328 0.0
C46 C 0.55383 0.83155 0.27347 0.0
C47 C 0.5187 0.84449 0.17324 0.0
C48 C 0.56632 0.76121 0.12877 0.0
H49 H 0.48022 0.82242 0.97616 0.0
C50 C 0.42737 0.69388 0.82686 0.0
O51 O 0.44602 0.7468 0.3986 0.0
O52 O 0.43044 0.79644 0.57775 0.0
N53 N 0.59253 0.72443 0.91893 0.0
C54 C 0.62793 0.7237 0.81613 0.0
C55 C 0.67539 0.73747 0.8573 0.0
C56 C 0.68554 0.74784 0.00476 0.0
C57 C 0.6487 0.7421 0.10988 0.0
C58 C 0.60173 0.7365 0.05877 0.0
H59 H 0.61952 0.71929 0.70228 0.0
O60 O 0.53339 0.80649 0.5507 0.0
O61 O 0.52278 0.77266 0.75643 0.0
O62 O 0.53352 0.69748 0.54654 0.0
O63 O 0.52739 0.66514 0.76642 0.0
C64 C 0.65512 0.7531 0.25789 0.0
C65 C 0.61766 0.77541 0.33368 0.0
H66 H 0.56548 0.85745 0.35734 0.0
H67 H 0.50194 0.87877 0.18434 0.0
H68 H 0.70309 0.74292 0.77445 0.0
H69 H 0.72038 0.76545 0.03312 0.0
H70 H 0.69024 0.75021 0.3057 0.0
H71 H 0.62337 0.78976 0.44221 0.0
Mn72 Mn 0.28113 0.97556 0.93708 0.0
Mn73 Mn 0.26515 1.00398 0.59316 0.0
C74 C 0.33532 0.04326 0.83957 0.0
C75 C 0.31457 0.91127 0.07681 0.0
C76 C 0.19973 0.03487 0.84856 0.0
O77 O 0.2237 0.92671 0.86372 0.0
O78 O 0.26299 0.93883 0.6677 0.0
C79 C 0.35474 0.95665 0.51462 0.0
N80 N 0.32424 0.99294 0.49354 0.0
C81 C 0.37858 0.03218 0.31796 0.0
C82 C 0.40991 0.9946 0.33424 0.0
C83 C 0.39815 0.95688 0.43442 0.0
C84 C 0.33691 0.03101 0.40551 0.0
H85 H 0.34634 0.92798 0.59326 0.0
C86 C 0.22524 0.92102 0.72737 0.0
O87 O 0.28117 0.93739 0.12652 0.0
O88 O 0.32943 0.92277 0.9464 0.0
N89 N 0.26747 0.06482 0.49383 0.0
C90 C 0.2271 0.08898 0.46507 0.0
C91 C 0.22572 0.11859 0.34131 0.0
C92 C 0.26611 0.12413 0.24877 0.0
C93 C 0.30738 0.09927 0.27955 0.0
C94 C 0.30524 0.06741 0.39865 0.0
H95 H 0.19442 0.08245 0.52894 0.0
O96 O 0.33727 0.02785 0.9718 0.0
O97 O 0.30267 0.0181 0.76596 0.0
O98 O 0.2284 0.02402 0.95237 0.0
O99 O 0.20591 0.02232 0.71289 0.0
C100 C 0.34853 0.10093 0.18808 0.0
C101 C 0.38578 0.06952 0.21372 0.0
H102 H 0.44275 0.99409 0.26952 0.0
H103 H 0.42226 0.92788 0.44901 0.0
H104 H 0.19265 0.13503 0.31362 0.0
H105 H 0.26392 0.14531 0.15006 0.0
H106 H 0.35099 0.12452 0.09352 0.0
H107 H 0.41741 0.07137 0.14333 0.0
Mn108 Mn 0.04081 0.76204 0.0823 0.0
Mn109 Mn 0.97496 0.79037 0.36705 0.0
C110 C 0.97281 0.70692 0.1566 0.0
C111 C 0.10705 0.72481 0.96472 0.0
C112 C 0.97531 0.84731 0.08698 0.0
O113 O 0.08493 0.81403 0.20555 0.0
O114 O 0.04175 0.80867 0.41417 0.0
C115 C 1.00689 0.72283 0.5901 0.0
N116 N 0.9711 0.74256 0.51418 0.0
C117 C 0.91044 0.71063 0.6788 0.0
C118 C 0.94553 0.68639 0.75403 0.0
C119 C 0.99436 0.69238 0.70901 0.0
C120 C 0.92434 0.73442 0.55075 0.0
H121 H 0.04396 0.72919 0.55595 0.0
C122 C 0.07957 0.82316 0.34336 0.0
O123 O 0.08662 0.76162 0.91009 0.0
O124 O 0.09143 0.71148 0.09352 0.0
N125 N 0.90797 0.77471 0.33636 0.0
C126 C 0.87776 0.79515 0.24076 0.0
C127 C 0.82881 0.79703 0.27626 0.0
C128 C 0.81168 0.77716 0.40856 0.0
C129 C 0.8432 0.75555 0.50303 0.0
C130 C 0.89106 0.7535 0.46015 0.0
H131 H 0.89053 0.81029 0.13908 0.0
O132 O 0.99048 0.70639 0.02612 0.0
O133 O 0.99553 0.73985 0.23707 0.0
O134 O 0.99485 0.81491 0.01098 0.0
O135 O 0.97535 0.8449 0.22519 0.0
C136 C 0.82995 0.73911 0.64251 0.0
C137 C 0.86315 0.71496 0.72884 0.0
H138 H 0.93539 0.66327 0.84604 0.0
H139 H 0.02211 0.67433 0.76662 0.0
H140 H 0.80436 0.81349 0.20205 0.0
H141 H 0.77392 0.77638 0.43373 0.0
H142 H 0.79414 0.74492 0.68216 0.0
H143 H 0.85323 0.70179 0.83567 0.0
Mn144 Mn 0.74435 0.03872 0.95829 0.0
Mn145 Mn 0.75589 0.99491 0.62778 0.0
C146 C 0.68683 0.97326 0.87888 0.0
C147 C 0.71515 0.10283 0.1007 0.0
C148 C 0.82506 0.97435 0.87857 0.0
O149 O 0.79516 0.08711 0.84988 0.0
O150 O 0.77483 0.06514 0.62293 0.0
C151 C 0.67471 0.04459 0.49685 0.0
N152 N 0.70137 1.0052 0.51013 0.0
C153 C 0.6547 0.96091 0.3287 0.0
C154 C 0.62944 1.00245 0.30131 0.0
C155 C 0.63799 0.04387 0.39054 0.0
C156 C 0.68908 0.96352 0.43952 0.0
H157 H 0.68141 0.07569 0.56823 0.0
C158 C 0.79798 0.0935 0.71127 0.0
O159 O 0.75076 0.07826 0.14486 0.0
O160 O 0.69685 0.09007 0.9753 0.0
N161 N 0.73754 0.92813 0.60979 0.0
C162 C 0.75338 0.88957 0.6835 0.0
C163 C 0.73945 0.84268 0.63487 0.0
C164 C 0.71227 0.83663 0.50665 0.0
C165 C 0.69742 0.87727 0.43018 0.0
C166 C 0.70872 0.9225 0.49204 0.0
H167 H 0.77547 0.89451 0.77957 0.0
O168 O 0.69101 0.98518 0.01512 0.0
O169 O 0.71526 1.00131 0.79661 0.0
O170 O 0.798 0.99033 0.979 0.0
O171 O 0.8154 0.9801 0.74299 0.0
C172 C 0.67147 0.87589 0.29769 0.0
C173 C 0.64746 0.91684 0.252 0.0
H174 H 0.60193 1.00208 0.21741 0.0
H175 H 0.61644 0.07495 0.37715 0.0
H176 H 0.75025 0.81152 0.69471 0.0
H177 H 0.70203 0.80021 0.47434 0.0
H178 H 0.67021 0.84466 0.22771 0.0
H179 H 0.62363 0.91408 0.15865 0.0
Mn180 Mn 0.992 0.2473 0.08524 0.0
Mn181 Mn 0.05233 0.2171 0.38412 0.0
C182 C 0.06351 0.29521 0.16063 0.0
C183 C 0.93209 0.28873 0.96029 0.0
C184 C 0.06182 0.16364 0.09757 0.0
O185 O 0.93975 0.20302 0.19987 0.0
O186 O 0.98585 0.18821 0.39227 0.0
C187 C 0.99612 0.28537 0.5506 0.0
N188 N 0.03769 0.26267 0.52916 0.0
C189 C 0.07912 0.30942 0.71552 0.0
C190 C 0.03695 0.33373 0.74171 0.0
C191 C 0.99605 0.32324 0.65325 0.0
C192 C 0.07885 0.2779 0.59713 0.0
H193 H 0.96456 0.27657 0.48357 0.0
C194 C 0.9455 0.18445 0.3266 0.0
O195 O 0.9491 0.24944 0.90879 0.0
O196 O 0.9483 0.30287 0.08733 0.0
N197 N 0.11784 0.24168 0.40548 0.0
C198 C 0.1579 0.22763 0.33516 0.0
C199 C 0.20348 0.23723 0.39987 0.0
C200 C 0.207 0.2603 0.53588 0.0
C201 C 0.16544 0.27532 0.60465 0.0
C202 C 0.12128 0.26494 0.53512 0.0
H203 H 0.15481 0.20767 0.23375 0.0
O204 O 0.04824 0.29571 0.02783 0.0
O205 O 0.03636 0.26676 0.2443 0.0
O206 O 0.03283 0.18936 0.02769 0.0
O207 O 0.07026 0.16933 0.23358 0.0
C208 C 0.16546 0.29907 0.74075 0.0
C209 C 0.12235 0.31703 0.79498 0.0
H210 H 0.0363 0.36193 0.82425 0.0
H211 H 0.96519 0.34484 0.66131 0.0
H212 H 0.23561 0.22482 0.34961 0.0
H213 H 0.24165 0.26522 0.58689 0.0
H214 H 0.19858 0.30656 0.80028 0.0
H215 H 0.1236 0.33929 0.89217 0.0
Mn216 Mn 0.78138 0.47246 0.44814 0.0
Mn217 Mn 0.73584 0.52431 0.16825 0.0
C218 C 0.83032 0.54289 0.3512 0.0
C219 C 0.82283 0.41111 0.5731 0.0
C220 C 0.68978 0.52545 0.45581 0.0
O221 O 0.72931 0.42222 0.34806 0.0
O222 O 0.7336 0.45488 0.12433 0.0
C223 C 0.79716 0.51055 0.91448 0.0
N224 N 0.76997 0.53871 0.9978 0.0
C225 C 0.77394 0.60302 0.82418 0.0
C226 C 0.80224 0.57557 0.73476 0.0
C227 C 0.81532 0.5298 0.7832 0.0
C228 C 0.75927 0.58377 0.95802 0.0
H229 H 0.80581 0.47469 0.95069 0.0
C230 C 0.7216 0.4195 0.20896 0.0
O231 O 0.78659 0.43165 0.62887 0.0
O232 O 0.83378 0.42348 0.43944 0.0
N233 N 0.7386 0.5924 0.20053 0.0
C234 C 0.74379 0.61862 0.32633 0.0
C235 C 0.75197 0.66917 0.31953 0.0
C236 C 0.75761 0.6918 0.18365 0.0
C237 C 0.75382 0.66397 0.05595 0.0
C238 C 0.74496 0.61368 0.06924 0.0
H239 H 0.74525 0.60152 0.43103 0.0
O240 O 0.83521 0.52559 0.47982 0.0
O241 O 0.79696 0.51667 0.2777 0.0
O242 O 0.72809 0.5177 0.5265 0.0
O243 O 0.68733 0.51165 0.32518 0.0
C244 C 0.76383 0.68334 0.91694 0.0
C245 C 0.76762 0.65184 0.79702 0.0
H246 H 0.81784 0.59185 0.63642 0.0
H247 H 0.84018 0.50995 0.72228 0.0
H248 H 0.75579 0.69006 0.41902 0.0
H249 H 0.76709 0.73029 0.17866 0.0
H250 H 0.77171 0.72216 0.9034 0.0
H251 H 0.77268 0.66533 0.68772 0.0
Mn252 Mn 0.53426 0.26474 0.57743 0.0
Mn253 Mn 0.46425 0.29387 0.85815 0.0
C254 C 0.46365 0.2124 0.64004 0.0
C255 C 0.60105 0.22933 0.45931 0.0
C256 C 0.47007 0.35084 0.57537 0.0
O257 O 0.5789 0.31308 0.70778 0.0
O258 O 0.53202 0.31081 0.90916 0.0
C259 C 0.49146 0.22294 0.08026 0.0
N260 N 0.45727 0.24572 0.00645 0.0
C261 C 0.39448 0.2152 0.16918 0.0
C262 C 0.42889 0.19146 0.24913 0.0
C263 C 0.47749 0.19377 0.20091 0.0
C264 C 0.41002 0.23866 0.0412 0.0
H265 H 0.52843 0.22686 0.04494 0.0
C266 C 0.57225 0.32204 0.84474 0.0
O267 O 0.58097 0.2668 0.4089 0.0
O268 O 0.58422 0.21326 0.58454 0.0
N269 N 0.39665 0.27964 0.82608 0.0
C270 C 0.36751 0.30074 0.72922 0.0
C271 C 0.31745 0.29785 0.75273 0.0
C272 C 0.29764 0.27519 0.87853 0.0
C273 C 0.32833 0.25489 0.97822 0.0
C274 C 0.37779 0.25692 0.94604 0.0
H275 H 0.38191 0.31992 0.63502 0.0
O276 O 0.48347 0.21153 0.51224 0.0
O277 O 0.48614 0.2434 0.72695 0.0
O278 O 0.49117 0.31863 0.50426 0.0
O279 O 0.46635 0.34839 0.71371 0.0
C280 C 0.31211 0.23535 0.11236 0.0
C281 C 0.34534 0.21608 0.20913 0.0
H282 H 0.41805 0.17032 0.34493 0.0
H283 H 0.50427 0.17439 0.25865 0.0
H284 H 0.29498 0.31545 0.67655 0.0
H285 H 0.2592 0.27406 0.89996 0.0
H286 H 0.27414 0.23498 0.14062 0.0
H287 H 0.33258 0.20103 0.31194 0.0
C288 C 0.34191 0.67064 0.9113 0.0
C289 C 0.39107 0.66077 0.90668 0.0
C290 C 0.31075 0.65095 0.02248 0.0
C291 C 0.32736 0.6213 0.13545 0.0
H292 H 0.32798 0.69565 0.83319 0.0
H293 H 0.27328 0.65993 0.02203 0.0
S294 S 0.45312 0.58461 0.17344 0.0
N295 N 0.45491 0.61906 0.02559 0.0
N296 N 0.39646 0.58267 0.23281 0.0
C297 C 0.37632 0.61105 0.13165 0.0
C298 C 0.4079 0.63047 0.01778 0.0
C299 C 0.39773 0.81262 0.19845 0.0
C300 C 0.38748 0.80705 0.34756 0.0
C301 C 0.37449 0.84626 0.11111 0.0
C302 C 0.33603 0.87197 0.16631 0.0
H303 H 0.42393 0.79063 0.15006 0.0
H304 H 0.38662 0.85182 0.99963 0.0
S305 S 0.27456 0.84149 0.51845 0.0
N306 N 0.32532 0.81387 0.52875 0.0
N307 N 0.27604 0.87109 0.36141 0.0
C308 C 0.31893 0.85822 0.30704 0.0
C309 C 0.34548 0.82691 0.39835 0.0
C310 C 0.11545 0.84267 0.58997 0.0
C311 C 0.11692 0.85053 0.43675 0.0
C312 C 0.14918 0.86629 0.68553 0.0
C313 C 0.18387 0.90179 0.63394 0.0
H314 H 0.088 0.81733 0.63782 0.0
H315 H 0.14854 0.85601 0.7995 0.0
S316 S 0.18783 0.95328 0.25914 0.0
N317 N 0.14761 0.90583 0.24759 0.0
N318 N 0.2077 0.95445 0.42823 0.0
C319 C 0.18107 0.91541 0.48527 0.0
C320 C 0.14847 0.88907 0.3865 0.0
C321 C 0.16678 0.65832 0.93947 0.0
C322 C 0.14135 0.69571 0.87607 0.0
C323 C 0.19329 0.62641 0.85323 0.0
C324 C 0.19362 0.62901 0.70027 0.0
H325 H 0.16581 0.65342 0.0564 0.0
H326 H 0.21283 0.59873 0.90574 0.0
S327 S 0.14553 0.72757 0.48173 0.0
N328 N 0.1289 0.7392 0.65043 0.0
N329 N 0.17461 0.67742 0.49129 0.0
C330 C 0.17196 0.66831 0.63675 0.0
C331 C 0.14687 0.70191 0.7239 0.0
C332 C 0.88261 0.10668 0.62461 0.0
C333 C 0.83696 0.12553 0.63997 0.0
C334 C 0.9157 0.12405 0.51649 0.0
C335 C 0.90489 0.16105 0.41688 0.0
H336 H 0.89189 0.07623 0.69176 0.0
H337 H 0.95046 0.10817 0.51092 0.0
S338 S 0.79163 0.22541 0.41695 0.0
N339 N 0.78342 0.18507 0.55037 0.0
N340 N 0.84592 0.21804 0.34786 0.0
C341 C 0.85975 0.18103 0.43272 0.0
C342 C 0.82591 0.16328 0.54376 0.0
C343 C 0.87202 0.29876 0.75526 0.0
C344 C 0.90117 0.3194 0.86927 0.0
C345 C 0.84762 0.32843 0.65743 0.0
C346 C 0.85265 0.37981 0.66619 0.0
H347 H 0.86816 0.25942 0.74114 0.0
H348 H 0.82446 0.31122 0.57481 0.0
S349 S 0.92996 0.45206 0.93184 0.0
N350 N 0.93514 0.39471 0.97979 0.0
N351 N 0.89321 0.44946 0.79036 0.0
C352 C 0.88286 0.40059 0.7769 0.0
C353 C 0.90598 0.37069 0.87981 0.0
C354 C 0.69805 0.36554 0.99708 0.0
C355 C 0.68746 0.38207 0.13918 0.0
C356 C 0.66128 0.34663 0.90137 0.0
C357 C 0.61204 0.34389 0.94285 0.0
H358 H 0.73501 0.37002 0.9564 0.0
H359 H 0.6715 0.33478 0.79374 0.0
S360 S 0.56524 0.38514 0.30161 0.0
N361 N 0.62461 0.39498 0.315 0.0
N362 N 0.55532 0.36095 0.13894 0.0
C363 C 0.60134 0.35972 0.08657 0.0
C364 C 0.63895 0.37803 0.18375 0.0
C365 C 0.69905 0.14379 0.34297 0.0
C366 C 0.6938 0.14165 0.19082 0.0
C367 C 0.66946 0.17219 0.43096 0.0
C368 C 0.63687 0.20335 0.36837 0.0
H369 H 0.72477 0.12156 0.39434 0.0
H370 H 0.67209 0.16959 0.54832 0.0
S371 S 0.62566 0.2256 0.97066 0.0
N372 N 0.66194 0.18086 0.98038 0.0
N373 N 0.61239 0.23962 0.14061 0.0
C374 C 0.63773 0.20724 0.21474 0.0
C375 C 0.66493 0.17556 0.12701 0.0
C376 C 0.39037 0.45785 0.52065 0.0
C377 C 0.37288 0.45279 0.37615 0.0
C378 C 0.42395 0.4271 0.57952 0.0
C379 C 0.44267 0.38917 0.49784 0.0
H380 H 0.37608 0.48459 0.59295 0.0
H381 H 0.43351 0.43187 0.69323 0.0
S382 S 0.41639 0.36487 0.10657 0.0
N383 N 0.38278 0.41031 0.14744 0.0
N384 N 0.44521 0.35207 0.25748 0.0
C385 C 0.42879 0.38595 0.34966 0.0
C386 C 0.39436 0.41777 0.28918 0.0
C387 C 0.65232 0.88431 0.88558 0.0
C388 C 0.65105 0.93169 0.82716 0.0
C389 C 0.61787 0.84547 0.84684 0.0
C390 C 0.58111 0.85007 0.74264 0.0
H391 H 0.68031 0.87704 0.96325 0.0
H392 H 0.6207 0.81196 0.9004 0.0
S393 S 0.5527 0.96975 0.58651 0.0
N394 N 0.60218 0.98348 0.6834 0.0
N395 N 0.54113 0.90999 0.60106 0.0
C396 C 0.57799 0.89821 0.6888 0.0
C397 C 0.61186 0.9386 0.73269 0.0
C398 C 0.12429 0.14494 0.90752 0.0
C399 C 0.09075 0.12829 0.01631 0.0
C400 C 0.15757 0.1137 0.84632 0.0
C401 C 0.15817 0.06439 0.88992 0.0
H402 H 0.12658 0.18306 0.87506 0.0
H403 H 0.1846 0.12896 0.76996 0.0
S404 S 0.07267 1.00105 0.153 0.0
N405 N 0.05756 0.05825 0.1547 0.0
N406 N 0.11806 0.99941 0.03557 0.0
C407 C 0.12281 0.0468 0.99174 0.0
C408 C 0.08966 0.07871 0.05582 0.0
C409 C 0.89309 0.65417 0.13593 0.0
C410 C 0.93642 0.66648 0.21178 0.0
C411 C 0.86116 0.61321 0.17441 0.0
C412 C 0.86756 0.58399 0.29756 0.0
H413 H 0.88412 0.67589 0.04354 0.0
H414 H 0.83238 0.60379 0.1036 0.0
S415 S 0.98302 0.59052 0.50776 0.0
N416 N 0.99054 0.63707 0.39363 0.0
N417 N 0.92766 0.56556 0.4788 0.0
C418 C 0.91242 0.59457 0.37082 0.0
C419 C 0.94684 0.63441 0.32585 0.0
C420 C 0.41761 0.08986 0.81251 0.0
C421 C 0.36717 0.08654 0.78578 0.0
C422 C 0.44811 0.13105 0.768 0.0
C423 C 0.42971 0.1705 0.69261 0.0
H424 H 0.43374 0.06024 0.86809 0.0
H425 H 0.48661 0.13168 0.79088 0.0
S426 S 0.29993 0.18294 0.61449 0.0
N427 N 0.29985 0.13059 0.7028 0.0
N428 N 0.35739 0.2034 0.59671 0.0
C429 C 0.37947 0.16757 0.66602 0.0
C430 C 0.34819 0.12695 0.71862 0.0
C431 C 0.88512 0.94744 0.06576 0.0
C432 C 0.86798 0.94576 0.92131 0.0
C433 C 0.922 0.91827 0.11339 0.0
C434 C 0.94376 0.88474 0.02049 0.0
H435 H 0.86924 0.97099 0.1447 0.0
H436 H 0.93206 0.92081 0.2272 0.0
S437 S 0.91507 0.86802 0.62774 0.0
N438 N 0.87863 0.90965 0.68187 0.0
N439 N 0.94656 0.85404 0.77256 0.0
C440 C 0.92845 0.88395 0.87388 0.0
C441 C 0.89109 0.91439 0.82443 0.0
C442 C 0.14727 0.34036 0.18496 0.0
C443 C 0.09714 0.33642 0.2178 0.0
C444 C 0.17794 0.38138 0.23004 0.0
C445 C 0.15957 0.42067 0.30689 0.0
H446 H 0.16296 0.31147 0.12439 0.0
H447 H 0.21642 0.38189 0.20656 0.0
S448 S 0.03053 0.43018 0.40946 0.0
N449 N 0.03062 0.37664 0.32686 0.0
N450 N 0.08748 0.45342 0.40787 0.0
C451 C 0.1095 0.41729 0.33825 0.0
C452 C 0.07856 0.37545 0.29432 0.0
C453 C 0.5909 0.61815 0.4472 0.0
C454 C 0.57871 0.62587 0.59421 0.0
C455 C 0.62551 0.58507 0.40602 0.0
C456 C 0.65135 0.55852 0.5091 0.0
H457 H 0.57366 0.63804 0.36225 0.0
H458 H 0.63296 0.58132 0.29081 0.0
S459 S 0.63335 0.5642 0.90924 0.0
N460 N 0.59527 0.60244 0.84433 0.0
N461 N 0.66104 0.54218 0.76634 0.0
C462 C 0.63972 0.56581 0.65659 0.0
C463 C 0.60343 0.59874 0.6989 0.0
loop_
_geom_bond_atom_site_label_1
_geom_bond_atom_site_label_2
_geom_bond_distance
_geom_bond_site_symmetry_2
_ccdc_geom_bond_type
Mn0 O5 2.095 . S
Mn0 O15 2.162 . S
Mn0 O16 2.297 . S
Mn0 O24 2.385 . S
Mn0 O25 2.209 . S
Mn0 O26 2.094 . S
Mn1 O6 2.121 . S
Mn1 N8 2.257 1_554 S
Mn1 N17 2.282 . S
Mn1 O25 2.215 . S
Mn1 O27 2.117 . S
C2 O24 1.234 . S
C2 O25 1.283 . S
C3 O15 1.281 . S
C3 O16 1.236 . S
C4 O26 1.240 . S
C4 O27 1.264 . S
O5 Mn0 2.095 . S
O5 C14 1.250 . S
O6 Mn1 2.121 . S
O6 C14 1.258 . S
C7 N8 1.326 . S
C7 C11 1.460 . S
C7 H13 0.929 . S
N8 Mn1 2.257 1_556 S
N8 C7 1.326 . S
N8 C12 1.362 . S
C9 C10 1.258 . S
C9 C12 1.431 . S
C9 C29 1.449 . S
C10 C9 1.258 . S
C10 C11 1.477 . S
C10 H30 0.931 . S
C11 C7 1.460 . S
C11 C10 1.477 . S
C11 H31 0.930 . S
C12 N8 1.362 . S
C12 C9 1.431 . S
C12 C22 1.476 . S
H13 C7 0.929 . S
C14 O5 1.250 . S
C14 O6 1.258 . S
O15 Mn0 2.162 . S
O15 C3 1.281 . S
O16 Mn0 2.297 . S
O16 C3 1.236 . S
N17 Mn1 2.282 . S
N17 C18 1.328 . S
N17 C22 1.318 1_554 S
C18 N17 1.328 . S
C18 C19 1.457 . S
C18 H23 0.929 . S
C19 C18 1.457 . S
C19 C20 1.291 . S
C19 H32 0.931 . S
C20 C19 1.291 . S
C20 C21 1.373 1_554 S
C20 H33 0.929 . S
C21 C20 1.373 1_556 S
C21 C22 1.396 . S
C21 C28 1.403 . S
C22 C12 1.476 . S
C22 N17 1.318 1_556 S
C22 C21 1.396 . S
H23 C18 0.929 . S
O24 Mn0 2.385 . S
O24 C2 1.234 . S
O25 Mn0 2.209 . S
O25 Mn1 2.215 . S
O25 C2 1.283 . S
O26 Mn0 2.094 . S
O26 C4 1.240 . S
O27 Mn1 2.117 . S
O27 C4 1.264 . S
C28 C21 1.403 . S
C28 C29 1.399 . S
C28 H34 0.929 . S
C29 C9 1.449 . S
C29 C28 1.399 . S
C29 H35 0.930 . S
H30 C10 0.931 . S
H31 C11 0.930 . S
H32 C19 0.931 . S
H33 C20 0.929 . S
H34 C28 0.929 . S
H35 C29 0.930 . S
Mn36 O41 2.095 . S
Mn36 O51 2.162 . S
Mn36 O52 2.297 . S
Mn36 O60 2.385 . S
Mn36 O61 2.209 . S
Mn36 O62 2.094 . S
Mn37 O42 2.121 . S
Mn37 N44 2.257 1_556 S
Mn37 N53 2.282 . S
Mn37 O61 2.215 . S
Mn37 O63 2.117 . S
C38 O60 1.234 . S
C38 O61 1.283 . S
C39 O51 1.281 . S
C39 O52 1.236 . S
C40 O62 1.240 . S
C40 O63 1.264 . S
O41 Mn36 2.095 . S
O41 C50 1.250 . S
O42 Mn37 2.121 . S
O42 C50 1.258 . S
C43 N44 1.326 . S
C43 C47 1.460 . S
C43 H49 0.929 . S
N44 Mn37 2.257 1_554 S
N44 C43 1.326 . S
N44 C48 1.362 . S
C45 C46 1.258 . S
C45 C48 1.431 . S
C45 C65 1.449 . S
C46 C45 1.258 . S
C46 C47 1.477 . S
C46 H66 0.931 . S
C47 C43 1.460 . S
C47 C46 1.477 . S
C47 H67 0.930 . S
C48 N44 1.362 . S
C48 C45 1.431 . S
C48 C58 1.476 . S
H49 C43 0.929 . S
C50 O41 1.250 . S
C50 O42 1.258 . S
O51 Mn36 2.162 . S
O51 C39 1.281 . S
O52 Mn36 2.297 . S
O52 C39 1.236 . S
N53 Mn37 2.282 . S
N53 C54 1.328 . S
N53 C58 1.318 1_556 S
C54 N53 1.328 . S
C54 C55 1.457 . S
C54 H59 0.929 . S
C55 C54 1.457 . S
C55 C56 1.291 . S
C55 H68 0.931 . S
C56 C55 1.291 . S
C56 C57 1.373 1_556 S
C56 H69 0.929 . S
C57 C56 1.373 1_554 S
C57 C58 1.396 . S
C57 C64 1.403 . S
C58 C48 1.476 . S
C58 N53 1.318 1_554 S
C58 C57 1.396 . S
H59 C54 0.929 . S
O60 Mn36 2.385 . S
O60 C38 1.234 . S
O61 Mn36 2.209 . S
O61 Mn37 2.215 . S
O61 C38 1.283 . S
O62 Mn36 2.094 . S
O62 C40 1.240 . S
O63 Mn37 2.117 . S
O63 C40 1.264 . S
C64 C57 1.403 . S
C64 C65 1.399 . S
C64 H70 0.929 . S
C65 C45 1.449 . S
C65 C64 1.399 . S
C65 H71 0.930 . S
H66 C46 0.931 . S
H67 C47 0.930 . S
H68 C55 0.931 . S
H69 C56 0.929 . S
H70 C64 0.929 . S
H71 C65 0.930 . S
Mn72 O77 2.095 . S
Mn72 O87 2.162 1_556 S
Mn72 O88 2.297 . S
Mn72 O96 2.385 1_565 S
Mn72 O97 2.209 1_565 S
Mn72 O98 2.094 1_566 S
Mn73 O78 2.121 1_545 S
Mn73 N80 2.257 . S
Mn73 N89 2.282 . S
Mn73 O97 2.215 . S
Mn73 O99 2.117 . S
C74 O96 1.234 . S
C74 O97 1.283 . S
C75 O87 1.281 . S
C75 O88 1.236 1_554 S
C76 O98 1.240 1_556 S
C76 O99 1.264 . S
O77 Mn72 2.095 . S
O77 C86 1.250 . S
O78 Mn73 2.121 1_565 S
O78 C86 1.258 . S
C79 N80 1.326 . S
C79 C83 1.460 . S
C79 H85 0.929 1_545 S
N80 Mn73 2.257 . S
N80 C79 1.326 . S
N80 C84 1.362 . S
C81 C82 1.258 . S
C81 C84 1.431 . S
C81 C101 1.449 . S
C82 C81 1.258 . S
C82 C83 1.477 . S
C82 H102 0.931 . S
C83 C79 1.460 . S
C83 C82 1.477 . S
C83 H103 0.930 1_545 S
C84 N80 1.362 . S
C84 C81 1.431 . S
C84 C94 1.476 . S
H85 C79 0.929 1_565 S
C86 O77 1.250 . S
C86 O78 1.258 . S
O87 Mn72 2.162 1_554 S
O87 C75 1.281 . S
O88 Mn72 2.297 . S
O88 C75 1.236 1_556 S
N89 Mn73 2.282 . S
N89 C90 1.328 . S
N89 C94 1.318 . S
C90 N89 1.328 . S
C90 C91 1.457 . S
C90 H95 0.929 . S
C91 C90 1.457 . S
C91 C92 1.291 . S
C91 H104 0.931 . S
C92 C91 1.291 . S
C92 C93 1.373 . S
C92 H105 0.929 . S
C93 C92 1.373 . S
C93 C94 1.396 . S
C93 C100 1.403 . S
C94 C84 1.476 . S
C94 N89 1.318 . S
C94 C93 1.396 . S
H95 C90 0.929 . S
O96 Mn72 2.385 1_545 S
O96 C74 1.234 . S
O97 Mn72 2.209 1_545 S
O97 Mn73 2.215 . S
O97 C74 1.283 . S
O98 Mn72 2.094 1_544 S
O98 C76 1.240 1_554 S
O99 Mn73 2.117 . S
O99 C76 1.264 . S
C100 C93 1.403 . S
C100 C101 1.399 . S
C100 H106 0.929 . S
C101 C81 1.449 . S
C101 C100 1.399 . S
C101 H107 0.930 . S
H102 C82 0.931 . S
H103 C83 0.930 1_565 S
H104 C91 0.931 . S
H105 C92 0.929 . S
H106 C100 0.929 . S
H107 C101 0.930 . S
Mn108 O113 2.095 . S
Mn108 O123 2.162 1_554 S
Mn108 O124 2.297 . S
Mn108 O132 2.385 1_455 S
Mn108 O133 2.209 1_455 S
Mn108 O134 2.094 1_454 S
Mn109 O114 2.121 1_655 S
Mn109 N116 2.257 . S
Mn109 N125 2.282 . S
Mn109 O133 2.215 . S
Mn109 O135 2.117 . S
C110 O132 1.234 . S
C110 O133 1.283 . S
C111 O123 1.281 . S
C111 O124 1.236 1_556 S
C112 O134 1.240 1_554 S
C112 O135 1.264 . S
O113 Mn108 2.095 . S
O113 C122 1.250 . S
O114 Mn109 2.121 1_455 S
O114 C122 1.258 . S
C115 N116 1.326 . S
C115 C119 1.460 . S
C115 H121 0.929 1_655 S
N116 Mn109 2.257 . S
N116 C115 1.326 . S
N116 C120 1.362 . S
C117 C118 1.258 . S
C117 C120 1.431 . S
C117 C137 1.449 . S
C118 C117 1.258 . S
C118 C119 1.477 . S
C118 H138 0.931 . S
C119 C115 1.460 . S
C119 C118 1.477 . S
C119 H139 0.930 1_655 S
C120 N116 1.362 . S
C120 C117 1.431 . S
C120 C130 1.476 . S
H121 C115 0.929 1_455 S
C122 O113 1.250 . S
C122 O114 1.258 . S
O123 Mn108 2.162 1_556 S
O123 C111 1.281 . S
O124 Mn108 2.297 . S
O124 C111 1.236 1_554 S
N125 Mn109 2.282 . S
N125 C126 1.328 . S
N125 C130 1.318 . S
C126 N125 1.328 . S
C126 C127 1.457 . S
C126 H131 0.929 . S
C127 C126 1.457 . S
C127 C128 1.291 . S
C127 H140 0.931 . S
C128 C127 1.291 . S
C128 C129 1.373 . S
C128 H141 0.929 . S
C129 C128 1.373 . S
C129 C130 1.396 . S
C129 C136 1.403 . S
C130 C120 1.476 . S
C130 N125 1.318 . S
C130 C129 1.396 . S
H131 C126 0.929 . S
O132 Mn108 2.385 1_655 S
O132 C110 1.234 . S
O133 Mn108 2.209 1_655 S
O133 Mn109 2.215 . S
O133 C110 1.283 . S
O134 Mn108 2.094 1_656 S
O134 C112 1.240 1_556 S
O135 Mn109 2.117 . S
O135 C112 1.264 . S
C136 C129 1.403 . S
C136 C137 1.399 . S
C136 H142 0.929 . S
C137 C117 1.449 . S
C137 C136 1.399 . S
C137 H143 0.930 . S
H138 C118 0.931 . S
H139 C119 0.930 1_455 S
H140 C127 0.931 . S
H141 C128 0.929 . S
H142 C136 0.929 . S
H143 C137 0.930 . S
Mn144 O149 2.095 . S
Mn144 O159 2.162 1_556 S
Mn144 O160 2.297 . S
Mn144 O168 2.385 1_545 S
Mn144 O169 2.209 1_545 S
Mn144 O170 2.094 1_546 S
Mn145 O150 2.121 1_565 S
Mn145 N152 2.257 . S
Mn145 N161 2.282 . S
Mn145 O169 2.215 . S
Mn145 O171 2.117 . S
C146 O168 1.234 . S
C146 O169 1.283 . S
C147 O159 1.281 . S
C147 O160 1.236 1_554 S
C148 O170 1.240 1_556 S
C148 O171 1.264 . S
O149 Mn144 2.095 . S
O149 C158 1.250 . S
O150 Mn145 2.121 1_545 S
O150 C158 1.258 . S
C151 N152 1.326 . S
C151 C155 1.460 . S
C151 H157 0.929 1_565 S
N152 Mn145 2.257 . S
N152 C151 1.326 . S
N152 C156 1.362 . S
C153 C154 1.258 . S
C153 C156 1.431 . S
C153 C173 1.449 . S
C154 C153 1.258 . S
C154 C155 1.477 . S
C154 H174 0.931 . S
C155 C151 1.460 . S
C155 C154 1.477 . S
C155 H175 0.930 1_565 S
C156 N152 1.362 . S
C156 C153 1.431 . S
C156 C166 1.476 . S
H157 C151 0.929 1_545 S
C158 O149 1.250 . S
C158 O150 1.258 . S
O159 Mn144 2.162 1_554 S
O159 C147 1.281 . S
O160 Mn144 2.297 . S
O160 C147 1.236 1_556 S
N161 Mn145 2.282 . S
N161 C162 1.328 . S
N161 C166 1.318 . S
C162 N161 1.328 . S
C162 C163 1.457 . S
C162 H167 0.929 . S
C163 C162 1.457 . S
C163 C164 1.291 . S
C163 H176 0.931 . S
C164 C163 1.291 . S
C164 C165 1.373 . S
C164 H177 0.929 . S
C165 C164 1.373 . S
C165 C166 1.396 . S
C165 C172 1.403 . S
C166 C156 1.476 . S
C166 N161 1.318 . S
C166 C165 1.396 . S
H167 C162 0.929 . S
O168 Mn144 2.385 1_565 S
O168 C146 1.234 . S
O169 Mn144 2.209 1_565 S
O169 Mn145 2.215 . S
O169 C146 1.283 . S
O170 Mn144 2.094 1_564 S
O170 C148 1.240 1_554 S
O171 Mn145 2.117 . S
O171 C148 1.264 . S
C172 C165 1.403 . S
C172 C173 1.399 . S
C172 H178 0.929 . S
C173 C153 1.449 . S
C173 C172 1.399 . S
C173 H179 0.930 . S
H174 C154 0.931 . S
H175 C155 0.930 1_545 S
H176 C163 0.931 . S
H177 C164 0.929 . S
H178 C172 0.929 . S
H179 C173 0.930 . S
Mn180 O185 2.095 . S
Mn180 O195 2.162 1_554 S
Mn180 O196 2.297 . S
Mn180 O204 2.385 1_655 S
Mn180 O205 2.209 1_655 S
Mn180 O206 2.094 1_654 S
Mn181 O186 2.121 1_455 S
Mn181 N188 2.257 . S
Mn181 N197 2.282 . S
Mn181 O205 2.215 . S
Mn181 O207 2.117 . S
C182 O204 1.234 . S
C182 O205 1.283 . S
C183 O195 1.281 . S
C183 O196 1.236 1_556 S
C184 O206 1.240 1_554 S
C184 O207 1.264 . S
O185 Mn180 2.095 . S
O185 C194 1.250 . S
O186 Mn181 2.121 1_655 S
O186 C194 1.258 . S
C187 N188 1.326 . S
C187 C191 1.460 . S
C187 H193 0.929 1_455 S
N188 Mn181 2.257 . S
N188 C187 1.326 . S
N188 C192 1.362 . S
C189 C190 1.258 . S
C189 C192 1.431 . S
C189 C209 1.449 . S
C190 C189 1.258 . S
C190 C191 1.477 . S
C190 H210 0.931 . S
C191 C187 1.460 . S
C191 C190 1.477 . S
C191 H211 0.930 1_455 S
C192 N188 1.362 . S
C192 C189 1.431 . S
C192 C202 1.476 . S
H193 C187 0.929 1_655 S
C194 O185 1.250 . S
C194 O186 1.258 . S
O195 Mn180 2.162 1_556 S
O195 C183 1.281 . S
O196 Mn180 2.297 . S
O196 C183 1.236 1_554 S
N197 Mn181 2.282 . S
N197 C198 1.328 . S
N197 C202 1.318 . S
C198 N197 1.328 . S
C198 C199 1.457 . S
C198 H203 0.929 . S
C199 C198 1.457 . S
C199 C200 1.291 . S
C199 H212 0.931 . S
C200 C199 1.291 . S
C200 C201 1.373 . S
C200 H213 0.929 . S
C201 C200 1.373 . S
C201 C202 1.396 . S
C201 C208 1.403 . S
C202 C192 1.476 . S
C202 N197 1.318 . S
C202 C201 1.396 . S
H203 C198 0.929 . S
O204 Mn180 2.385 1_455 S
O204 C182 1.234 . S
O205 Mn180 2.209 1_455 S
O205 Mn181 2.215 . S
O205 C182 1.283 . S
O206 Mn180 2.094 1_456 S
O206 C184 1.240 1_556 S
O207 Mn181 2.117 . S
O207 C184 1.264 . S
C208 C201 1.403 . S
C208 C209 1.399 . S
C208 H214 0.929 . S
C209 C189 1.449 . S
C209 C208 1.399 . S
C209 H215 0.930 . S
H210 C190 0.931 . S
H211 C191 0.930 1_655 S
H212 C199 0.931 . S
H213 C200 0.929 . S
H214 C208 0.929 . S
H215 C209 0.930 . S
Mn216 O221 2.095 . S
Mn216 O231 2.162 . S
Mn216 O232 2.297 . S
Mn216 O240 2.385 . S
Mn216 O241 2.209 . S
Mn216 O242 2.094 . S
Mn217 O222 2.121 . S
Mn217 N224 2.257 1_554 S
Mn217 N233 2.282 . S
Mn217 O241 2.215 . S
Mn217 O243 2.117 . S
C218 O240 1.234 . S
C218 O241 1.283 . S
C219 O231 1.281 . S
C219 O232 1.236 . S
C220 O242 1.240 . S
C220 O243 1.264 . S
O221 Mn216 2.095 . S
O221 C230 1.250 . S
O222 Mn217 2.121 . S
O222 C230 1.258 . S
C223 N224 1.326 . S
C223 C227 1.460 . S
C223 H229 0.929 . S
N224 Mn217 2.257 1_556 S
N224 C223 1.326 . S
N224 C228 1.362 . S
C225 C226 1.258 . S
C225 C228 1.431 . S
C225 C245 1.449 . S
C226 C225 1.258 . S
C226 C227 1.477 . S
C226 H246 0.931 . S
C227 C223 1.460 . S
C227 C226 1.477 . S
C227 H247 0.930 . S
C228 N224 1.362 . S
C228 C225 1.431 . S
C228 C238 1.476 . S
H229 C223 0.929 . S
C230 O221 1.250 . S
C230 O222 1.258 . S
O231 Mn216 2.162 . S
O231 C219 1.281 . S
O232 Mn216 2.297 . S
O232 C219 1.236 . S
N233 Mn217 2.282 . S
N233 C234 1.328 . S
N233 C238 1.318 1_554 S
C234 N233 1.328 . S
C234 C235 1.457 . S
C234 H239 0.929 . S
C235 C234 1.457 . S
C235 C236 1.291 . S
C235 H248 0.931 . S
C236 C235 1.291 . S
C236 C237 1.373 1_554 S
C236 H249 0.929 . S
C237 C236 1.373 1_556 S
C237 C238 1.396 . S
C237 C244 1.403 . S
C238 C228 1.476 . S
C238 N233 1.318 1_556 S
C238 C237 1.396 . S
H239 C234 0.929 . S
O240 Mn216 2.385 . S
O240 C218 1.234 . S
O241 Mn216 2.209 . S
O241 Mn217 2.215 . S
O241 C218 1.283 . S
O242 Mn216 2.094 . S
O242 C220 1.240 . S
O243 Mn217 2.117 . S
O243 C220 1.264 . S
C244 C237 1.403 . S
C244 C245 1.399 . S
C244 H250 0.929 . S
C245 C225 1.449 . S
C245 C244 1.399 . S
C245 H251 0.930 . S
H246 C226 0.931 . S
H247 C227 0.930 . S
H248 C235 0.931 . S
H249 C236 0.929 . S
H250 C244 0.929 . S
H251 C245 0.930 . S
Mn252 O257 2.095 . S
Mn252 O267 2.162 . S
Mn252 O268 2.297 . S
Mn252 O276 2.385 . S
Mn252 O277 2.209 . S
Mn252 O278 2.094 . S
Mn253 O258 2.121 . S
Mn253 N260 2.257 1_556 S
Mn253 N269 2.282 . S
Mn253 O277 2.215 . S
Mn253 O279 2.117 . S
C254 O276 1.234 . S
C254 O277 1.283 . S
C255 O267 1.281 . S
C255 O268 1.236 . S
C256 O278 1.240 . S
C256 O279 1.264 . S
O257 Mn252 2.095 . S
O257 C266 1.250 . S
O258 Mn253 2.121 . S
O258 C266 1.258 . S
C259 N260 1.326 . S
C259 C263 1.460 . S
C259 H265 0.929 . S
N260 Mn253 2.257 1_554 S
N260 C259 1.326 . S
N260 C264 1.362 . S
C261 C262 1.258 . S
C261 C264 1.431 . S
C261 C281 1.449 . S
C262 C261 1.258 . S
C262 C263 1.477 . S
C262 H282 0.931 . S
C263 C259 1.460 . S
C263 C262 1.477 . S
C263 H283 0.930 . S
C264 N260 1.362 . S
C264 C261 1.431 . S
C264 C274 1.476 . S
H265 C259 0.929 . S
C266 O257 1.250 . S
C266 O258 1.258 . S
O267 Mn252 2.162 . S
O267 C255 1.281 . S
O268 Mn252 2.297 . S
O268 C255 1.236 . S
N269 Mn253 2.282 . S
N269 C270 1.328 . S
N269 C274 1.318 1_556 S
C270 N269 1.328 . S
C270 C271 1.457 . S
C270 H275 0.929 . S
C271 C270 1.457 . S
C271 C272 1.291 . S
C271 H284 0.931 . S
C272 C271 1.291 . S
C272 C273 1.373 1_556 S
C272 H285 0.929 . S
C273 C272 1.373 1_554 S
C273 C274 1.396 . S
C273 C280 1.403 . S
C274 C264 1.476 . S
C274 N269 1.318 1_554 S
C274 C273 1.396 . S
H275 C270 0.929 . S
O276 Mn252 2.385 . S
O276 C254 1.234 . S
O277 Mn252 2.209 . S
O277 Mn253 2.215 . S
O277 C254 1.283 . S
O278 Mn252 2.094 . S
O278 C256 1.240 . S
O279 Mn253 2.117 . S
O279 C256 1.264 . S
C280 C273 1.403 . S
C280 C281 1.399 . S
C280 H286 0.929 . S
C281 C261 1.449 . S
C281 C280 1.399 . S
C281 H287 0.930 . S
H282 C262 0.931 . S
H283 C263 0.930 . S
H284 C271 0.931 . S
H285 C272 0.929 . S
H286 C280 0.929 . S
H287 C281 0.930 . S
C288 C289 1.369 . S
C288 C290 1.419 1_556 S
C288 H292 0.930 . S
C289 C288 1.369 . S
C289 C298 1.429 . S
C290 C288 1.419 1_554 S
C290 C291 1.363 . S
C290 H293 0.929 . S
C291 C290 1.363 . S
C291 C297 1.428 . S
H292 C288 0.930 . S
H293 C290 0.929 . S
S294 N295 1.613 1_554 S
S294 N296 1.610 . S
N295 S294 1.613 1_556 S
N295 C298 1.350 . S
N296 S294 1.610 . S
N296 C297 1.351 . S
C297 C291 1.428 . S
C297 N296 1.351 . S
C297 C298 1.434 1_554 S
C298 C289 1.429 . S
C298 N295 1.350 . S
C298 C297 1.434 1_556 S
C299 C300 1.369 . S
C299 C301 1.419 . S
C299 H303 0.930 . S
C300 C299 1.369 . S
C300 C309 1.429 . S
C301 C299 1.419 . S
C301 C302 1.363 . S
C301 H304 0.929 . S
C302 C301 1.363 . S
C302 C308 1.428 . S
H303 C299 0.930 . S
H304 C301 0.929 . S
S305 N306 1.613 . S
S305 N307 1.610 . S
N306 S305 1.613 . S
N306 C309 1.350 . S
N307 S305 1.610 . S
N307 C308 1.351 . S
C308 C302 1.428 . S
C308 N307 1.351 . S
C308 C309 1.434 . S
C309 C300 1.429 . S
C309 N306 1.350 . S
C309 C308 1.434 . S
C310 C311 1.369 . S
C310 C312 1.419 . S
C310 H314 0.930 . S
C311 C310 1.369 . S
C311 C320 1.429 . S
C312 C310 1.419 . S
C312 C313 1.363 . S
C312 H315 0.929 . S
C313 C312 1.363 . S
C313 C319 1.428 . S
H314 C310 0.930 . S
H315 C312 0.929 . S
S316 N317 1.613 . S
S316 N318 1.610 . S
N317 S316 1.613 . S
N317 C320 1.350 . S
N318 S316 1.610 . S
N318 C319 1.351 . S
C319 C313 1.428 . S
C319 N318 1.351 . S
C319 C320 1.434 . S
C320 C311 1.429 . S
C320 N317 1.350 . S
C320 C319 1.434 . S
C321 C322 1.369 . S
C321 C323 1.419 . S
C321 H325 0.930 . S
C322 C321 1.369 . S
C322 C331 1.429 . S
C323 C321 1.419 . S
C323 C324 1.363 . S
C323 H326 0.929 . S
C324 C323 1.363 . S
C324 C330 1.428 . S
H325 C321 0.930 . S
H326 C323 0.929 . S
S327 N328 1.613 . S
S327 N329 1.610 . S
N328 S327 1.613 . S
N328 C331 1.350 . S
N329 S327 1.610 . S
N329 C330 1.351 . S
C330 C324 1.428 . S
C330 N329 1.351 . S
C330 C331 1.434 . S
C331 C322 1.429 . S
C331 N328 1.350 . S
C331 C330 1.434 . S
C332 C333 1.369 . S
C332 C334 1.419 . S
C332 H336 0.930 . S
C333 C332 1.369 . S
C333 C342 1.429 . S
C334 C332 1.419 . S
C334 C335 1.363 . S
C334 H337 0.929 . S
C335 C334 1.363 . S
C335 C341 1.428 . S
H336 C332 0.930 . S
H337 C334 0.929 . S
S338 N339 1.613 . S
S338 N340 1.610 . S
N339 S338 1.613 . S
N339 C342 1.350 . S
N340 S338 1.610 . S
N340 C341 1.351 . S
C341 C335 1.428 . S
C341 N340 1.351 . S
C341 C342 1.434 . S
C342 C333 1.429 . S
C342 N339 1.350 . S
C342 C341 1.434 . S
C343 C344 1.369 . S
C343 C345 1.419 . S
C343 H347 0.930 . S
C344 C343 1.369 . S
C344 C353 1.429 . S
C345 C343 1.419 . S
C345 C346 1.363 . S
C345 H348 0.929 . S
C346 C345 1.363 . S
C346 C352 1.428 . S
H347 C343 0.930 . S
H348 C345 0.929 . S
S349 N350 1.613 . S
S349 N351 1.610 1_554 S
N350 S349 1.613 . S
N350 C353 1.350 1_554 S
N351 S349 1.610 1_556 S
N351 C352 1.351 . S
C352 C346 1.428 . S
C352 N351 1.351 . S
C352 C353 1.434 . S
C353 C344 1.429 . S
C353 N350 1.350 1_556 S
C353 C352 1.434 . S
C354 C355 1.369 1_556 S
C354 C356 1.419 . S
C354 H358 0.930 . S
C355 C354 1.369 1_554 S
C355 C364 1.429 . S
C356 C354 1.419 . S
C356 C357 1.363 . S
C356 H359 0.929 . S
C357 C356 1.363 . S
C357 C363 1.428 1_556 S
H358 C354 0.930 . S
H359 C356 0.929 . S
S360 N361 1.613 . S
S360 N362 1.610 . S
N361 S360 1.613 . S
N361 C364 1.350 . S
N362 S360 1.610 . S
N362 C363 1.351 . S
C363 C357 1.428 1_554 S
C363 N362 1.351 . S
C363 C364 1.434 . S
C364 C355 1.429 . S
C364 N361 1.350 . S
C364 C363 1.434 . S
C365 C366 1.369 . S
C365 C367 1.419 . S
C365 H369 0.930 . S
C366 C365 1.369 . S
C366 C375 1.429 . S
C367 C365 1.419 . S
C367 C368 1.363 . S
C367 H370 0.929 . S
C368 C367 1.363 . S
C368 C374 1.428 . S
H369 C365 0.930 . S
H370 C367 0.929 . S
S371 N372 1.613 . S
S371 N373 1.610 . S
N372 S371 1.613 . S
N372 C375 1.350 . S
N373 S371 1.610 . S
N373 C374 1.351 . S
C374 C368 1.428 . S
C374 N373 1.351 . S
C374 C375 1.434 . S
C375 C366 1.429 . S
C375 N372 1.350 . S
C375 C374 1.434 . S
C376 C377 1.369 . S
C376 C378 1.419 . S
C376 H380 0.930 . S
C377 C376 1.369 . S
C377 C386 1.429 . S
C378 C376 1.419 . S
C378 C379 1.363 . S
C378 H381 0.929 . S
C379 C378 1.363 . S
C379 C385 1.428 . S
H380 C376 0.930 . S
H381 C378 0.929 . S
S382 N383 1.613 . S
S382 N384 1.610 . S
N383 S382 1.613 . S
N383 C386 1.350 . S
N384 S382 1.610 . S
N384 C385 1.351 . S
C385 C379 1.428 . S
C385 N384 1.351 . S
C385 C386 1.434 . S
C386 C377 1.429 . S
C386 N383 1.350 . S
C386 C385 1.434 . S
C387 C388 1.369 . S
C387 C389 1.419 . S
C387 H391 0.930 . S
C388 C387 1.369 . S
C388 C397 1.429 . S
C389 C387 1.419 . S
C389 C390 1.363 . S
C389 H392 0.929 . S
C390 C389 1.363 . S
C390 C396 1.428 . S
H391 C387 0.930 . S
H392 C389 0.929 . S
S393 N394 1.613 . S
S393 N395 1.610 . S
N394 S393 1.613 . S
N394 C397 1.350 . S
N395 S393 1.610 . S
N395 C396 1.351 . S
C396 C390 1.428 . S
C396 N395 1.351 . S
C396 C397 1.434 . S
C397 C388 1.429 . S
C397 N394 1.350 . S
C397 C396 1.434 . S
C398 C399 1.369 1_556 S
C398 C400 1.419 . S
C398 H402 0.930 . S
C399 C398 1.369 1_554 S
C399 C408 1.429 . S
C400 C398 1.419 . S
C400 C401 1.363 . S
C400 H403 0.929 . S
C401 C400 1.363 . S
C401 C407 1.428 1_556 S
H402 C398 0.930 . S
H403 C400 0.929 . S
S404 N405 1.613 . S
S404 N406 1.610 . S
N405 S404 1.613 . S
N405 C408 1.350 . S
N406 S404 1.610 . S
N406 C407 1.351 . S
C407 C401 1.428 1_554 S
C407 N406 1.351 . S
C407 C408 1.434 . S
C408 C399 1.429 . S
C408 N405 1.350 . S
C408 C407 1.434 . S
C409 C410 1.369 . S
C409 C411 1.419 . S
C409 H413 0.930 . S
C410 C409 1.369 . S
C410 C419 1.429 . S
C411 C409 1.419 . S
C411 C412 1.363 . S
C411 H414 0.929 . S
C412 C411 1.363 . S
C412 C418 1.428 . S
H413 C409 0.930 . S
H414 C411 0.929 . S
S415 N416 1.613 . S
S415 N417 1.610 . S
N416 S415 1.613 . S
N416 C419 1.350 . S
N417 S415 1.610 . S
N417 C418 1.351 . S
C418 C412 1.428 . S
C418 N417 1.351 . S
C418 C419 1.434 . S
C419 C410 1.429 . S
C419 N416 1.350 . S
C419 C418 1.434 . S
C420 C421 1.369 . S
C420 C422 1.419 . S
C420 H424 0.930 . S
C421 C420 1.369 . S
C421 C430 1.429 . S
C422 C420 1.419 . S
C422 C423 1.363 . S
C422 H425 0.929 . S
C423 C422 1.363 . S
C423 C429 1.428 . S
H424 C420 0.930 . S
H425 C422 0.929 . S
S426 N427 1.613 . S
S426 N428 1.610 . S
N427 S426 1.613 . S
N427 C430 1.350 . S
N428 S426 1.610 . S
N428 C429 1.351 . S
C429 C423 1.428 . S
C429 N428 1.351 . S
C429 C430 1.434 . S
C430 C421 1.429 . S
C430 N427 1.350 . S
C430 C429 1.434 . S
C431 C432 1.369 . S
C431 C433 1.419 1_556 S
C431 H435 0.930 . S
C432 C431 1.369 . S
C432 C441 1.429 . S
C433 C431 1.419 1_554 S
C433 C434 1.363 . S
C433 H436 0.929 . S
C434 C433 1.363 . S
C434 C440 1.428 . S
H435 C431 0.930 . S
H436 C433 0.929 . S
S437 N438 1.613 1_554 S
S437 N439 1.610 . S
N438 S437 1.613 1_556 S
N438 C441 1.350 . S
N439 S437 1.610 . S
N439 C440 1.351 . S
C440 C434 1.428 . S
C440 N439 1.351 . S
C440 C441 1.434 1_554 S
C441 C432 1.429 . S
C441 N438 1.350 . S
C441 C440 1.434 1_556 S
C442 C443 1.369 . S
C442 C444 1.419 . S
C442 H446 0.930 . S
C443 C442 1.369 . S
C443 C452 1.429 . S
C444 C442 1.419 . S
C444 C445 1.363 . S
C444 H447 0.929 . S
C445 C444 1.363 . S
C445 C451 1.428 . S
H446 C442 0.930 . S
H447 C444 0.929 . S
S448 N449 1.613 . S
S448 N450 1.610 . S
N449 S448 1.613 . S
N449 C452 1.350 . S
N450 S448 1.610 . S
N450 C451 1.351 . S
C451 C445 1.428 . S
C451 N450 1.351 . S
C451 C452 1.434 . S
C452 C443 1.429 . S
C452 N449 1.350 . S
C452 C451 1.434 . S
C453 C454 1.369 . S
C453 C455 1.419 . S
C453 H457 0.930 . S
C454 C453 1.369 . S
C454 C463 1.429 . S
C455 C453 1.419 . S
C455 C456 1.363 . S
C455 H458 0.929 . S
C456 C455 1.363 . S
C456 C462 1.428 . S
H457 C453 0.930 . S
H458 C455 0.929 . S
S459 N460 1.613 . S
S459 N461 1.610 . S
N460 S459 1.613 . S
N460 C463 1.350 . S
N461 S459 1.610 . S
N461 C462 1.351 . S
C462 C456 1.428 . S
C462 N461 1.351 . S
C462 C463 1.434 . S
C463 C454 1.429 . S
C463 N460 1.350 . S
C463 C462 1.434 . S
C289 C50 1.372 . S
C291 C14 1.372 . S
C300 C39 1.455 . S
C302 C75 1.455 . S
C311 C122 1.373 . S
C313 C86 1.372 . S
C322 C111 1.454 . S
C324 C3 1.455 . S
C333 C158 1.376 . S
C335 C194 1.380 . S
C344 C183 1.455 . S
C346 C219 1.454 . S
C355 C230 1.377 . S
C357 C266 1.373 . S
C366 C147 1.455 . S
C368 C255 1.454 . S
C377 C4 1.463 . S
C379 C256 1.460 . S
C388 C146 1.446 . S
C390 C38 1.446 . S
C399 C184 1.461 . S
C401 C76 1.464 . S
C410 C110 1.448 . S
C412 C218 1.443 . S
C421 C74 1.447 . S
C423 C254 1.442 . S
C432 C148 1.462 . S
C434 C112 1.460 . S
C443 C182 1.446 . S
C445 C2 1.446 . S
C454 C40 1.460 . S
C456 C220 1.464 . S
