# Generated by pormake.
# Topology uoh, (4)-cn, num edge types: 1
# Building blocks:
#     Node 0, Type 0, BuildingBlock: NAHDIM_clean_sbu_0, # of connection points: 4
#     Node 1, Type 0, BuildingBlock: NAHDIM_clean_sbu_0, # of connection points: 4
#     Node 2, Type 0, BuildingBlock: NAHDIM_clean_sbu_0, # of connection points: 4
#     Node 3, Type 0, BuildingBlock: NAHDIM_clean_sbu_0, # of connection points: 4
#     Node 4, Type 0, BuildingBlock: NAHDIM_clean_sbu_0, # of connection points: 4
#     Node 5, Type 0, BuildingBlock: NAHDIM_clean_sbu_0, # of connection points: 4
#     Node 6, Type 0, BuildingBlock: NAHDIM_clean_sbu_0, # of connection points: 4
#     Node 7, Type 0, BuildingBlock: NAHDIM_clean_sbu_0, # of connection points: 4
#     Node 8, Type 0, BuildingBlock: NAHDIM_clean_sbu_0, # of connection points: 4
#     Node 9, Type 0, BuildingBlock: NAHDIM_clean_sbu_0, # of connection points: 4
#     Node 10, Type 0, BuildingBlock: NAHDIM_clean_sbu_0, # of connection points: 4
#     Node 11, Type 0, BuildingBlock: NAHDIM_clean_sbu_0, # of connection points: 4
#     Node 12, Type 0, BuildingBlock: NAHDIM_clean_sbu_0, # of connection points: 4
#     Node 13, Type 0, BuildingBlock: NAHDIM_clean_sbu_0, # of connection points: 4
#     Node 14, Type 0, BuildingBlock: NAHDIM_clean_sbu_0, # of connection points: 4
#     Node 15, Type 0, BuildingBlock: NAHDIM_clean_sbu_0, # of connection points: 4
#     Node 16, Type 0, BuildingBlock: NAHDIM_clean_sbu_0, # of connection points: 4
#     Node 17, Type 0, BuildingBlock: NAHDIM_clean_sbu_0, # of connection points: 4
#     Node 18, Type 0, BuildingBlock: NAHDIM_clean_sbu_0, # of connection points: 4
#     Node 19, Type 0, BuildingBlock: NAHDIM_clean_sbu_0, # of connection points: 4
#     Node 20, Type 0, BuildingBlock: NAHDIM_clean_sbu_0, # of connection points: 4
#     Node 21, Type 0, BuildingBlock: NAHDIM_clean_sbu_0, # of connection points: 4
#     Node 22, Type 0, BuildingBlock: NAHDIM_clean_sbu_0, # of connection points: 4
#     Node 23, Type 0, BuildingBlock: NAHDIM_clean_sbu_0, # of connection points: 4
#     Node 24, Type 0, BuildingBlock: NAHDIM_clean_sbu_0, # of connection points: 4
#     Node 25, Type 0, BuildingBlock: NAHDIM_clean_sbu_0, # of connection points: 4
#     Node 26, Type 0, BuildingBlock: NAHDIM_clean_sbu_0, # of connection points: 4
#     Node 27, Type 0, BuildingBlock: NAHDIM_clean_sbu_0, # of connection points: 4
#     Node 28, Type 0, BuildingBlock: NAHDIM_clean_sbu_0, # of connection points: 4
#     Node 29, Type 0, BuildingBlock: NAHDIM_clean_sbu_0, # of connection points: 4
#     Node 30, Type 0, BuildingBlock: NAHDIM_clean_sbu_0, # of connection points: 4
#     Node 31, Type 0, BuildingBlock: NAHDIM_clean_sbu_0, # of connection points: 4
#     Node 32, Type 0, BuildingBlock: NAHDIM_clean_sbu_0, # of connection points: 4
#     Node 33, Type 0, BuildingBlock: NAHDIM_clean_sbu_0, # of connection points: 4
#     Node 34, Type 0, BuildingBlock: NAHDIM_clean_sbu_0, # of connection points: 4
#     Node 35, Type 0, BuildingBlock: NAHDIM_clean_sbu_0, # of connection points: 4
#     Edge 36, Type (0, 0), BuildingBlock: AJUNOK_clean_linker_0, # of connection points: 2
#     Edge 37, Type (0, 0), BuildingBlock: AJUNOK_clean_linker_0, # of connection points: 2
#     Edge 38, Type (0, 0), BuildingBlock: AJUNOK_clean_linker_0, # of connection points: 2
#     Edge 39, Type (0, 0), BuildingBlock: AJUNOK_clean_linker_0, # of connection points: 2
#     Edge 40, Type (0, 0), BuildingBlock: AJUNOK_clean_linker_0, # of connection points: 2
#     Edge 41, Type (0, 0), BuildingBlock: AJUNOK_clean_linker_0, # of connection points: 2
#     Edge 42, Type (0, 0), BuildingBlock: AJUNOK_clean_linker_0, # of connection points: 2
#     Edge 43, Type (0, 0), BuildingBlock: AJUNOK_clean_linker_0, # of connection points: 2
#     Edge 44, Type (0, 0), BuildingBlock: AJUNOK_clean_linker_0, # of connection points: 2
#     Edge 45, Type (0, 0), BuildingBlock: AJUNOK_clean_linker_0, # of connection points: 2
#     Edge 46, Type (0, 0), BuildingBlock: AJUNOK_clean_linker_0, # of connection points: 2
#     Edge 47, Type (0, 0), BuildingBlock: AJUNOK_clean_linker_0, # of connection points: 2
#     Edge 48, Type (0, 0), BuildingBlock: AJUNOK_clean_linker_0, # of connection points: 2
#     Edge 49, Type (0, 0), BuildingBlock: AJUNOK_clean_linker_0, # of connection points: 2
#     Edge 50, Type (0, 0), BuildingBlock: AJUNOK_clean_linker_0, # of connection points: 2
#     Edge 51, Type (0, 0), BuildingBlock: AJUNOK_clean_linker_0, # of connection points: 2
#     Edge 52, Type (0, 0), BuildingBlock: AJUNOK_clean_linker_0, # of connection points: 2
#     Edge 53, Type (0, 0), BuildingBlock: AJUNOK_clean_linker_0, # of connection points: 2
#     Edge 54, Type (0, 0), BuildingBlock: AJUNOK_clean_linker_0, # of connection points: 2
#     Edge 55, Type (0, 0), BuildingBlock: AJUNOK_clean_linker_0, # of connection points: 2
#     Edge 56, Type (0, 0), BuildingBlock: AJUNOK_clean_linker_0, # of connection points: 2
#     Edge 57, Type (0, 0), BuildingBlock: AJUNOK_clean_linker_0, # of connection points: 2
#     Edge 58, Type (0, 0), BuildingBlock: AJUNOK_clean_linker_0, # of connection points: 2
#     Edge 59, Type (0, 0), BuildingBlock: AJUNOK_clean_linker_0, # of connection points: 2
#     Edge 60, Type (0, 0), BuildingBlock: AJUNOK_clean_linker_0, # of connection points: 2
#     Edge 61, Type (0, 0), BuildingBlock: AJUNOK_clean_linker_0, # of connection points: 2
#     Edge 62, Type (0, 0), BuildingBlock: AJUNOK_clean_linker_0, # of connection points: 2
#     Edge 63, Type (0, 0), BuildingBlock: AJUNOK_clean_linker_0, # of connection points: 2
#     Edge 64, Type (0, 0), BuildingBlock: AJUNOK_clean_linker_0, # of connection points: 2
#     Edge 65, Type (0, 0), BuildingBlock: AJUNOK_clean_linker_0, # of connection points: 2
#     Edge 66, Type (0, 0), BuildingBlock: AJUNOK_clean_linker_0, # of connection points: 2
#     Edge 67, Type (0, 0), BuildingBlock: AJUNOK_clean_linker_0, # of connection points: 2
#     Edge 68, Type (0, 0), BuildingBlock: AJUNOK_clean_linker_0, # of connection points: 2
#     Edge 69, Type (0, 0), BuildingBlock: AJUNOK_clean_linker_0, # of connection points: 2
#     Edge 70, Type (0, 0), BuildingBlock: AJUNOK_clean_linker_0, # of connection points: 2
#     Edge 71, Type (0, 0), BuildingBlock: AJUNOK_clean_linker_0, # of connection points: 2
#     Edge 72, Type (0, 0), BuildingBlock: AJUNOK_clean_linker_0, # of connection points: 2
#     Edge 73, Type (0, 0), BuildingBlock: AJUNOK_clean_linker_0, # of connection points: 2
#     Edge 74, Type (0, 0), BuildingBlock: AJUNOK_clean_linker_0, # of connection points: 2
#     Edge 75, Type (0, 0), BuildingBlock: AJUNOK_clean_linker_0, # of connection points: 2
#     Edge 76, Type (0, 0), BuildingBlock: AJUNOK_clean_linker_0, # of connection points: 2
#     Edge 77, Type (0, 0), BuildingBlock: AJUNOK_clean_linker_0, # of connection points: 2
#     Edge 78, Type (0, 0), BuildingBlock: AJUNOK_clean_linker_0, # of connection points: 2
#     Edge 79, Type (0, 0), BuildingBlock: AJUNOK_clean_linker_0, # of connection points: 2
#     Edge 80, Type (0, 0), BuildingBlock: AJUNOK_clean_linker_0, # of connection points: 2
#     Edge 81, Type (0, 0), BuildingBlock: AJUNOK_clean_linker_0, # of connection points: 2
#     Edge 82, Type (0, 0), BuildingBlock: AJUNOK_clean_linker_0, # of connection points: 2
#     Edge 83, Type (0, 0), BuildingBlock: AJUNOK_clean_linker_0, # of connection points: 2
#     Edge 84, Type (0, 0), BuildingBlock: AJUNOK_clean_linker_0, # of connection points: 2
#     Edge 85, Type (0, 0), BuildingBlock: AJUNOK_clean_linker_0, # of connection points: 2
#     Edge 86, Type (0, 0), BuildingBlock: AJUNOK_clean_linker_0, # of connection points: 2
#     Edge 87, Type (0, 0), BuildingBlock: AJUNOK_clean_linker_0, # of connection points: 2
#     Edge 88, Type (0, 0), BuildingBlock: AJUNOK_clean_linker_0, # of connection points: 2
#     Edge 89, Type (0, 0), BuildingBlock: AJUNOK_clean_linker_0, # of connection points: 2
#     Edge 90, Type (0, 0), BuildingBlock: AJUNOK_clean_linker_0, # of connection points: 2
#     Edge 91, Type (0, 0), BuildingBlock: AJUNOK_clean_linker_0, # of connection points: 2
#     Edge 92, Type (0, 0), BuildingBlock: AJUNOK_clean_linker_0, # of connection points: 2
#     Edge 93, Type (0, 0), BuildingBlock: AJUNOK_clean_linker_0, # of connection points: 2
#     Edge 94, Type (0, 0), BuildingBlock: AJUNOK_clean_linker_0, # of connection points: 2
#     Edge 95, Type (0, 0), BuildingBlock: AJUNOK_clean_linker_0, # of connection points: 2
#     Edge 96, Type (0, 0), BuildingBlock: AJUNOK_clean_linker_0, # of connection points: 2
#     Edge 97, Type (0, 0), BuildingBlock: AJUNOK_clean_linker_0, # of connection points: 2
#     Edge 98, Type (0, 0), BuildingBlock: AJUNOK_clean_linker_0, # of connection points: 2
#     Edge 99, Type (0, 0), BuildingBlock: AJUNOK_clean_linker_0, # of connection points: 2
#     Edge 100, Type (0, 0), BuildingBlock: AJUNOK_clean_linker_0, # of connection points: 2
#     Edge 101, Type (0, 0), BuildingBlock: AJUNOK_clean_linker_0, # of connection points: 2
#     Edge 102, Type (0, 0), BuildingBlock: AJUNOK_clean_linker_0, # of connection points: 2
#     Edge 103, Type (0, 0), BuildingBlock: AJUNOK_clean_linker_0, # of connection points: 2
#     Edge 104, Type (0, 0), BuildingBlock: AJUNOK_clean_linker_0, # of connection points: 2
#     Edge 105, Type (0, 0), BuildingBlock: AJUNOK_clean_linker_0, # of connection points: 2
#     Edge 106, Type (0, 0), BuildingBlock: AJUNOK_clean_linker_0, # of connection points: 2
#     Edge 107, Type (0, 0), BuildingBlock: AJUNOK_clean_linker_0, # of connection points: 2
# Relax obj value: 0.223
# Max RMSD: 0.252
# Mean RMSD: 0.252
data_MOF--net-uoh--node1-NAHDIM_clean_sbu_0--edge1-AJUNOK_clean_linker_0
_symmetry_space_group_name_H-M    P1
_symmetry_Int_Tables_number       1
_symmetry_cell_setting            triclinic
loop_
_symmetry_equiv_pos_as_xyz
'x, y, z'
_cell_length_a     67.175553
_cell_length_b     67.184637
_cell_length_c     18.930865
_cell_angle_alpha  89.995635
_cell_angle_beta   89.979817
_cell_angle_gamma 119.98737
loop_
_atom_site_label
_atom_site_type_symbol
_atom_site_fract_x
_atom_site_fract_y
_atom_site_fract_z
_atom_type_partial_charge
C0 C 0.2098 0.16131 0.18519 0.0
O1 O 0.19739 0.13976 0.16536 0.0
O2 O 0.23617 0.14376 0.0384 0.0
Zn3 Zn 0.24245 0.15035 0.14211 0.0
O4 O 0.22636 0.12255 0.20506 0.0
C5 C 0.28829 0.15809 0.12394 0.0
O6 O 0.27889 0.14519 0.06794 0.0
O7 O 0.23141 0.17148 0.17578 0.0
C8 C 0.23456 0.10962 0.21953 0.0
O9 O 0.25194 0.11164 0.18216 0.0
C10 C 0.21936 0.12604 0.01124 0.0
O11 O 0.20394 0.11019 0.0529 0.0
O12 O 0.27624 0.16374 0.16163 0.0
C13 C 0.83086 0.04306 0.16033 0.0
O14 O 0.85202 0.05238 0.1364 0.0
O15 O 0.84928 0.08677 0.02252 0.0
Zn16 Zn 0.84202 0.08706 0.12556 0.0
O17 O 0.86938 0.09864 0.19031 0.0
C18 C 0.83445 0.12439 0.09685 0.0
O19 O 0.84813 0.12668 0.04407 0.0
O20 O 0.82085 0.05486 0.15842 0.0
C21 C 0.88227 0.11967 0.20605 0.0
O22 O 0.88005 0.13526 0.17069 0.0
C23 C 0.86824 0.09047 0.99632 0.0
O24 O 0.88514 0.09406 0.03894 0.0
O25 O 0.82844 0.1077 0.13949 0.0
C26 C 0.94788 0.79141 0.21413 0.0
O27 O 0.93922 0.80504 0.20698 0.0
O28 O 0.9006 0.77607 0.08949 0.0
Zn29 Zn 0.90268 0.76228 0.18103 0.0
O30 O 0.89343 0.77439 0.2633 0.0
C31 C 0.85997 0.72198 0.16412 0.0
O32 O 0.85481 0.73771 0.1457 0.0
O33 O 0.93503 0.77013 0.20155 0.0
C34 C 0.88158 0.78429 0.26719 0.0
O35 O 0.8734 0.78831 0.20929 0.0
C36 C 0.91458 0.77975 0.03922 0.0
O37 O 0.93146 0.77552 0.0492 0.0
O38 O 0.88068 0.72827 0.18007 0.0
C39 C 0.16818 0.2075 0.33241 0.0
O40 O 0.14705 0.19593 0.35659 0.0
O41 O 0.15037 0.23342 0.47092 0.0
Zn42 Zn 0.15757 0.24068 0.36771 0.0
O43 O 0.13006 0.22525 0.3034 0.0
C44 C 0.16588 0.28605 0.39455 0.0
O45 O 0.15351 0.27555 0.45054 0.0
O46 O 0.17842 0.22931 0.33444 0.0
C47 C 0.11751 0.2339 0.28902 0.0
O48 O 0.11999 0.25146 0.32638 0.0
C49 C 0.13138 0.21827 0.49722 0.0
O50 O 0.11445 0.20497 0.45469 0.0
O51 O 0.17122 0.27479 0.35212 0.0
C52 C 0.79317 0.95448 0.30084 0.0
O53 O 0.80736 0.94695 0.31583 0.0
O54 O 0.77161 0.91072 0.44762 0.0
Zn55 Zn 0.76359 0.90984 0.34521 0.0
O56 O 0.78012 0.89945 0.27943 0.0
C57 C 0.71861 0.87026 0.36842 0.0
O58 O 0.72883 0.86712 0.42296 0.0
O59 O 0.77186 0.94136 0.31233 0.0
C60 C 0.77302 0.8784 0.26672 0.0
O61 O 0.75682 0.86273 0.30688 0.0
C62 C 0.78632 0.90613 0.47321 0.0
O63 O 0.79798 0.90029 0.43057 0.0
O64 O 0.72987 0.88801 0.33022 0.0
C65 C 0.03923 0.83052 0.33631 0.0
O66 O 0.04832 0.85136 0.36266 0.0
O67 O 0.08285 0.84772 0.47231 0.0
Zn68 Zn 0.0834 0.8424 0.36804 0.0
O69 O 0.09432 0.87048 0.30688 0.0
C70 C 0.12224 0.83688 0.38959 0.0
O71 O 0.12386 0.8492 0.44541 0.0
O72 O 0.05139 0.82091 0.33474 0.0
C73 C 0.11542 0.88436 0.2944 0.0
O74 O 0.13094 0.88323 0.33357 0.0
C75 C 0.08617 0.86592 0.50295 0.0
O76 O 0.09 0.88381 0.46464 0.0
O77 O 0.10506 0.83042 0.34873 0.0
C78 C 0.74673 0.80276 0.75291 0.0
O79 O 0.74131 0.81435 0.70859 0.0
O80 O 0.75735 0.84395 0.9477 0.0
Zn81 Zn 0.74988 0.83743 0.84471 0.0
O82 O 0.77278 0.86178 0.7801 0.0
C83 C 0.71047 0.84412 0.85841 0.0
O84 O 0.72105 0.85563 0.9156 0.0
O85 O 0.74991 0.80874 0.81749 0.0
C86 C 0.77168 0.87966 0.76572 0.0
O87 O 0.75801 0.88415 0.80355 0.0
C88 C 0.77687 0.8583 0.97296 0.0
O89 O 0.79412 0.87032 0.92986 0.0
O90 O 0.71916 0.83431 0.82272 0.0
C91 C 0.1745 0.95085 0.83283 0.0
O92 O 0.15385 0.94403 0.85815 0.0
O93 O 0.15253 0.90922 0.97642 0.0
Zn94 Zn 0.15847 0.9064 0.87375 0.0
O95 O 0.13119 0.89768 0.81074 0.0
C96 C 0.16049 0.86564 0.90521 0.0
O97 O 0.14856 0.86554 0.96036 0.0
O98 O 0.18241 0.93721 0.83672 0.0
C99 C 0.11718 0.87723 0.79167 0.0
O100 O 0.11817 0.86025 0.82252 0.0
C101 C 0.13507 0.90937 0.00146 0.0
O102 O 0.119 0.90767 0.9582 0.0
O103 O 0.16766 0.8822 0.86148 0.0
C104 C 0.04275 0.21765 0.82972 0.0
O105 O 0.04981 0.20385 0.85354 0.0
O106 O 0.08757 0.2411 0.97082 0.0
Zn107 Zn 0.08777 0.24722 0.86678 0.0
O108 O 0.09623 0.22829 0.80455 0.0
C109 C 0.12867 0.29112 0.88315 0.0
O110 O 0.13153 0.28071 0.9377 0.0
O111 O 0.05629 0.23919 0.83387 0.0
C112 C 0.11663 0.23393 0.78731 0.0
O113 O 0.1338 0.25112 0.82036 0.0
C114 C 0.08768 0.22397 0.99875 0.0
O115 O 0.08778 0.20823 0.95782 0.0
O116 O 0.11053 0.28038 0.84624 0.0
C117 C 0.79282 0.75493 0.65885 0.0
O118 O 0.79228 0.74668 0.59552 0.0
O119 O 0.85175 0.76954 0.58877 0.0
Zn120 Zn 0.83707 0.75632 0.68207 0.0
O121 O 0.8587 0.77227 0.76171 0.0
C122 C 0.84381 0.71789 0.66492 0.0
O123 O 0.86291 0.7338 0.63566 0.0
O124 O 0.80942 0.75937 0.70012 0.0
C125 C 0.88024 0.78002 0.76112 0.0
O126 O 0.89022 0.7794 0.70217 0.0
C127 C 0.84897 0.7833 0.54944 0.0
O128 O 0.83549 0.79113 0.56997 0.0
O129 O 0.82928 0.72332 0.68711 0.0
C130 C 0.2183 0.0371 0.67804 0.0
O131 O 0.20487 0.04428 0.6519 0.0
O132 O 0.24213 0.08209 0.54048 0.0
Zn133 Zn 0.24775 0.08227 0.64487 0.0
O134 O 0.22815 0.09025 0.70566 0.0
C135 C 0.29106 0.12402 0.63183 0.0
O136 O 0.28104 0.12633 0.57532 0.0
O137 O 0.23987 0.05076 0.67749 0.0
C138 C 0.2331 0.11066 0.72021 0.0
O139 O 0.24958 0.12772 0.68462 0.0
C140 C 0.22495 0.08189 0.5118 0.0
O141 O 0.209 0.08189 0.55201 0.0
O142 O 0.28052 0.10569 0.66806 0.0
C143 C 0.95797 0.17668 0.66751 0.0
O144 O 0.95044 0.15584 0.6428 0.0
O145 O 0.91564 0.15668 0.52214 0.0
Zn146 Zn 0.91393 0.16263 0.6255 0.0
O147 O 0.90417 0.13512 0.68848 0.0
C148 C 0.87393 0.16573 0.59795 0.0
O149 O 0.87251 0.15211 0.54607 0.0
O150 O 0.94513 0.18548 0.66203 0.0
C151 C 0.88362 0.12103 0.70631 0.0
O152 O 0.86677 0.12182 0.6737 0.0
C153 C 0.91327 0.13832 0.49521 0.0
O154 O 0.91019 0.12141 0.53709 0.0
O155 O 0.89108 0.17342 0.63948 0.0
C156 C 0.87418 0.49814 0.55007 0.0
O157 O 0.8605 0.47638 0.53443 0.0
O158 O 0.89262 0.47667 0.39727 0.0
Zn159 Zn 0.90326 0.48417 0.49793 0.0
O160 O 0.88822 0.45745 0.56571 0.0
C161 C 0.94625 0.489 0.45582 0.0
O162 O 0.93303 0.47494 0.40624 0.0
O163 O 0.89539 0.50731 0.53508 0.0
C164 C 0.89645 0.44465 0.58177 0.0
O165 O 0.91381 0.44638 0.54497 0.0
C166 C 0.8786 0.457 0.37245 0.0
O167 O 0.8687 0.43935 0.41558 0.0
O168 O 0.9374 0.49617 0.50148 0.0
C169 C 0.49178 0.37481 0.50809 0.0
O170 O 0.51242 0.38216 0.48196 0.0
O171 O 0.51203 0.41893 0.36869 0.0
Zn172 Zn 0.50682 0.41962 0.47288 0.0
O173 O 0.53449 0.42803 0.53342 0.0
C174 C 0.50499 0.46124 0.45938 0.0
O175 O 0.51753 0.46371 0.40322 0.0
O176 O 0.48355 0.3882 0.50669 0.0
C177 C 0.54981 0.4485 0.5477 0.0
O178 O 0.5504 0.46541 0.51117 0.0
C179 C 0.52918 0.41905 0.3401 0.0
O180 O 0.54557 0.41996 0.38025 0.0
O181 O 0.49718 0.44286 0.49535 0.0
C182 C 0.61516 0.08257 0.56995 0.0
O183 O 0.59846 0.07538 0.61655 0.0
O184 O 0.58033 0.08903 0.37935 0.0
Zn185 Zn 0.58039 0.08131 0.48184 0.0
O186 O 0.57511 0.10121 0.54991 0.0
C187 C 0.53741 0.03943 0.46248 0.0
O188 O 0.53598 0.05081 0.40812 0.0
O189 O 0.61105 0.08533 0.50634 0.0
C190 C 0.55497 0.0973 0.56377 0.0
O191 O 0.53788 0.08268 0.52397 0.0
C192 C 0.57889 0.10574 0.35388 0.0
O193 O 0.57726 0.12021 0.39688 0.0
O194 O 0.55546 0.04874 0.50023 0.0
C195 C 0.83541 0.5495 0.67963 0.0
O196 O 0.81422 0.53844 0.70348 0.0
O197 O 0.81435 0.57439 0.80173 0.0
Zn198 Zn 0.82329 0.58205 0.69971 0.0
O199 O 0.79734 0.56582 0.6303 0.0
C200 C 0.82723 0.62556 0.72133 0.0
O201 O 0.81149 0.61316 0.76843 0.0
O202 O 0.8453 0.57124 0.67429 0.0
C203 C 0.78239 0.57146 0.61558 0.0
O204 O 0.78137 0.58718 0.65409 0.0
C205 C 0.79517 0.55895 0.8261 0.0
O206 O 0.77876 0.54569 0.78202 0.0
O207 O 0.83625 0.61611 0.68531 0.0
C208 C 0.44977 0.28835 0.66148 0.0
O209 O 0.46351 0.28122 0.68534 0.0
O210 O 0.42828 0.24505 0.80276 0.0
Zn211 Zn 0.42071 0.24362 0.69959 0.0
O212 O 0.43899 0.23464 0.63619 0.0
C213 C 0.37762 0.20254 0.72303 0.0
O214 O 0.38895 0.20115 0.77756 0.0
O215 O 0.42821 0.27481 0.66519 0.0
C216 C 0.43314 0.21393 0.62236 0.0
O217 O 0.41689 0.19749 0.66037 0.0
C218 C 0.44574 0.24522 0.82921 0.0
O219 O 0.461 0.24472 0.78698 0.0
O220 O 0.38742 0.22011 0.68321 0.0
C221 C 0.70916 0.13457 0.66356 0.0
O222 O 0.71455 0.13693 0.73093 0.0
O223 O 0.75244 0.18462 0.74726 0.0
Zn224 Zn 0.75298 0.1768 0.64535 0.0
O225 O 0.75767 0.20162 0.57683 0.0
C226 C 0.79664 0.17873 0.66637 0.0
O227 O 0.79813 0.19141 0.72116 0.0
O228 O 0.72306 0.1492 0.61964 0.0
C229 C 0.77763 0.2182 0.5632 0.0
O230 O 0.79489 0.22112 0.60308 0.0
C231 C 0.74991 0.2007 0.77273 0.0
O232 O 0.74741 0.21469 0.72994 0.0
O233 O 0.7786 0.17011 0.62856 0.0
C234 C 0.45139 0.1616 0.1574 0.0
O235 O 0.46485 0.18259 0.18073 0.0
O236 O 0.42769 0.18129 0.30118 0.0
Zn237 Zn 0.42135 0.17609 0.19714 0.0
O238 O 0.44004 0.20388 0.13642 0.0
C239 C 0.37791 0.17373 0.21508 0.0
O240 O 0.38887 0.18703 0.26898 0.0
O241 O 0.42977 0.15309 0.16219 0.0
C242 C 0.43472 0.21908 0.12207 0.0
O243 O 0.41813 0.21937 0.15794 0.0
C244 C 0.4447 0.19846 0.32975 0.0
O245 O 0.46007 0.21493 0.28958 0.0
O246 O 0.38812 0.16585 0.17755 0.0
C247 C 0.8618 0.28681 0.1426 0.0
O248 O 0.86298 0.28353 0.21052 0.0
O249 O 0.81218 0.24444 0.24501 0.0
Zn250 Zn 0.81835 0.24246 0.14204 0.0
O251 O 0.79233 0.23695 0.0779 0.0
C252 C 0.81709 0.19891 0.16465 0.0
O253 O 0.80523 0.19759 0.22143 0.0
O254 O 0.84504 0.27171 0.107 0.0
C255 C 0.77583 0.21687 0.06536 0.0
O256 O 0.77369 0.19974 0.10435 0.0
C257 C 0.79442 0.24409 0.26965 0.0
O258 O 0.77884 0.24316 0.22577 0.0
O259 O 0.8248 0.21663 0.12562 0.0
C260 C 0.70477 0.55109 0.16377 0.0
O261 O 0.7142 0.53964 0.18991 0.0
O262 O 0.74918 0.57626 0.30073 0.0
Zn263 Zn 0.74834 0.58371 0.19818 0.0
O264 O 0.75845 0.56734 0.13082 0.0
C265 C 0.78834 0.62736 0.21552 0.0
O266 O 0.7927 0.61519 0.26073 0.0
O267 O 0.71597 0.5729 0.16706 0.0
C268 C 0.77864 0.57143 0.11731 0.0
O269 O 0.79582 0.58647 0.15598 0.0
C270 C 0.75278 0.56067 0.32457 0.0
O271 O 0.75564 0.54734 0.27992 0.0
O272 O 0.76928 0.61768 0.18266 0.0
C273 C 0.49512 0.11717 0.01277 0.0
O274 O 0.51648 0.13022 0.99177 0.0
O275 O 0.51749 0.09352 0.87898 0.0
Zn276 Zn 0.50912 0.08603 0.98142 0.0
O277 O 0.53549 0.10263 0.04914 0.0
C278 C 0.5033 0.04096 0.96185 0.0
O279 O 0.51748 0.0513 0.90906 0.0
O280 O 0.48637 0.09551 0.00985 0.0
C281 C 0.54965 0.09589 0.0632 0.0
O282 O 0.54943 0.07961 0.02428 0.0
C283 C 0.53703 0.10838 0.85509 0.0
O284 O 0.55381 0.12054 0.89952 0.0
O285 O 0.49642 0.05222 0.99847 0.0
C286 C 0.90902 0.37487 0.00352 0.0
O287 O 0.90773 0.37597 0.9345 0.0
O288 O 0.90466 0.41681 0.90033 0.0
Zn289 Zn 0.91353 0.42042 0.00307 0.0
O290 O 0.89227 0.42489 0.06733 0.0
C291 C 0.95295 0.46461 0.97199 0.0
O292 O 0.93961 0.46421 0.92064 0.0
O293 O 0.91249 0.39204 0.04055 0.0
C294 C 0.89469 0.44441 0.08218 0.0
O295 O 0.90965 0.46242 0.04613 0.0
C296 C 0.88762 0.41749 0.87414 0.0
O297 O 0.87351 0.42 0.91643 0.0
O298 O 0.94547 0.44756 0.01388 0.0
C299 C 0.61903 0.50351 0.00644 0.0
O300 O 0.61171 0.48281 0.98098 0.0
O301 O 0.57525 0.48164 0.86713 0.0
Zn302 Zn 0.57417 0.48816 0.97022 0.0
O303 O 0.56517 0.46104 0.03413 0.0
C304 C 0.53277 0.49002 0.94959 0.0
O305 O 0.53041 0.4763 0.89687 0.0
O306 O 0.60557 0.51165 0.00417 0.0
C307 C 0.54454 0.44584 0.04743 0.0
O308 O 0.528 0.44517 0.00877 0.0
C309 C 0.57505 0.46409 0.84136 0.0
O310 O 0.57429 0.44835 0.88421 0.0
O311 O 0.55097 0.49836 0.98674 0.0
C312 C 0.54388 0.83653 0.83181 0.0
O313 O 0.53333 0.81548 0.80681 0.0
O314 O 0.57045 0.81897 0.69951 0.0
Zn315 Zn 0.57794 0.82697 0.80227 0.0
O316 O 0.56297 0.79988 0.86832 0.0
C317 C 0.62331 0.83564 0.77432 0.0
O318 O 0.6125 0.82284 0.71941 0.0
O319 O 0.56572 0.84738 0.83321 0.0
C320 C 0.57178 0.78753 0.88354 0.0
O321 O 0.58938 0.78999 0.84643 0.0
C322 C 0.55592 0.79955 0.6742 0.0
O323 O 0.54343 0.78254 0.7176 0.0
O324 O 0.61221 0.8411 0.81708 0.0
C325 C 0.17432 0.71393 0.82769 0.0
O326 O 0.19634 0.72239 0.81498 0.0
O327 O 0.20303 0.76155 0.70109 0.0
Zn328 Zn 0.18975 0.75951 0.79749 0.0
O329 O 0.21377 0.76956 0.87298 0.0
C330 C 0.17305 0.78668 0.86273 0.0
O331 O 0.17441 0.77596 0.91899 0.0
O332 O 0.16593 0.72707 0.82087 0.0
C333 C 0.22746 0.79079 0.88382 0.0
O334 O 0.22787 0.80576 0.83834 0.0
C335 C 0.19004 0.74984 0.65042 0.0
O336 O 0.16813 0.73576 0.66311 0.0
O337 O 0.17737 0.78128 0.80262 0.0
C338 C 0.28313 0.4591 0.88936 0.0
O339 O 0.27407 0.47199 0.8745 0.0
O340 O 0.24077 0.43675 0.74111 0.0
Zn341 Zn 0.23963 0.42794 0.84298 0.0
O342 O 0.22758 0.44276 0.91004 0.0
C343 C 0.20186 0.38329 0.81104 0.0
O344 O 0.19951 0.39485 0.7589 0.0
O345 O 0.2715 0.4377 0.87659 0.0
C346 C 0.20635 0.43443 0.92343 0.0
O347 O 0.19122 0.41781 0.88331 0.0
C348 C 0.23697 0.45201 0.71552 0.0
O349 O 0.23235 0.46454 0.75839 0.0
O350 O 0.21873 0.39374 0.85313 0.0
C351 C 0.4923 0.87419 0.96866 0.0
O352 O 0.47078 0.86072 0.98734 0.0
O353 O 0.47022 0.89565 0.11255 0.0
Zn354 Zn 0.47812 0.9043 0.01046 0.0
O355 O 0.45157 0.88803 0.94303 0.0
C356 C 0.48241 0.94829 0.03694 0.0
O357 O 0.46799 0.9366 0.08789 0.0
O358 O 0.50124 0.8957 0.97801 0.0
C359 C 0.43715 0.89451 0.92984 0.0
O360 O 0.43708 0.91046 0.96967 0.0
C361 C 0.45046 0.88156 0.13679 0.0
O362 O 0.43318 0.87078 0.0928 0.0
O363 O 0.49008 0.93821 0.99796 0.0
C364 C 0.1235 0.62118 0.9418 0.0
O365 O 0.13543 0.61137 0.96023 0.0
O366 O 0.1001 0.57799 0.08019 0.0
Zn367 Zn 0.09086 0.5773 0.97876 0.0
O368 O 0.10502 0.56497 0.91009 0.0
C369 C 0.04606 0.54066 0.01471 0.0
O370 O 0.05792 0.53859 0.06647 0.0
O371 O 0.10174 0.60962 0.94707 0.0
C372 C 0.09604 0.54379 0.89496 0.0
O373 O 0.07866 0.52873 0.933 0.0
C374 C 0.11364 0.57169 0.1049 0.0
O375 O 0.12388 0.56443 0.06137 0.0
O376 O 0.05639 0.55703 0.97077 0.0
C377 C 0.37498 0.50043 0.00884 0.0
O378 O 0.38516 0.52161 0.0327 0.0
O379 O 0.42196 0.51931 0.13193 0.0
Zn380 Zn 0.41981 0.51176 0.02847 0.0
O381 O 0.43011 0.53885 0.96345 0.0
C382 C 0.45854 0.50527 0.04132 0.0
O383 O 0.46246 0.51901 0.09536 0.0
O384 O 0.3868 0.49051 0.00324 0.0
C385 C 0.4511 0.55326 0.9514 0.0
O386 O 0.46686 0.55301 0.99173 0.0
C387 C 0.42445 0.53766 0.15948 0.0
O388 O 0.42587 0.55405 0.11828 0.0
O389 O 0.44014 0.49841 0.00605 0.0
C390 C 0.07837 0.45575 0.47849 0.0
O391 O 0.07511 0.45587 0.54687 0.0
O392 O 0.08673 0.50531 0.57789 0.0
Zn393 Zn 0.07854 0.49953 0.47474 0.0
O394 O 0.09996 0.52495 0.4098 0.0
C395 C 0.03836 0.50367 0.50024 0.0
O396 O 0.05046 0.51598 0.55443 0.0
O397 O 0.07955 0.47191 0.44074 0.0
C398 C 0.09739 0.54196 0.39493 0.0
O399 O 0.08252 0.54501 0.43151 0.0
C400 C 0.10387 0.52299 0.60382 0.0
O401 O 0.11846 0.53912 0.5611 0.0
O402 O 0.04675 0.49458 0.46002 0.0
C403 C 0.50951 0.62496 0.49189 0.0
O404 O 0.48905 0.61752 0.51951 0.0
O405 O 0.48904 0.58217 0.63426 0.0
Zn406 Zn 0.49521 0.58085 0.53092 0.0
O407 O 0.46791 0.57202 0.46805 0.0
C408 C 0.49667 0.53951 0.55215 0.0
O409 O 0.48339 0.53781 0.60544 0.0
O410 O 0.51837 0.61214 0.49537 0.0
C411 C 0.45306 0.55161 0.45129 0.0
O412 O 0.45279 0.53445 0.48536 0.0
C413 C 0.47103 0.58101 0.65992 0.0
O414 O 0.45475 0.579 0.61701 0.0
O415 O 0.50505 0.55743 0.51372 0.0
C416 C 0.38183 0.91675 0.41548 0.0
O417 O 0.40005 0.92381 0.3751 0.0
O418 O 0.40929 0.90386 0.6131 0.0
Zn419 Zn 0.4119 0.91286 0.51087 0.0
O420 O 0.41584 0.89189 0.44363 0.0
C421 C 0.4565 0.95238 0.53708 0.0
O422 O 0.45643 0.93966 0.58989 0.0
O423 O 0.38316 0.91212 0.4798 0.0
C424 C 0.43548 0.8946 0.42879 0.0
O425 O 0.4532 0.90888 0.46713 0.0
C426 C 0.41012 0.88674 0.63792 0.0
O427 O 0.41251 0.87283 0.59445 0.0
O428 O 0.43895 0.94465 0.4973 0.0
C429 C 0.12256 0.41121 0.34595 0.0
O430 O 0.12391 0.41066 0.2768 0.0
O431 O 0.17127 0.42049 0.2438 0.0
Zn432 Zn 0.16676 0.41247 0.34712 0.0
O433 O 0.19163 0.43566 0.40978 0.0
C434 C 0.17507 0.37459 0.3237 0.0
O435 O 0.18691 0.38701 0.26929 0.0
O436 O 0.13818 0.41113 0.38335 0.0
C437 C 0.20994 0.43536 0.42388 0.0
O438 O 0.21475 0.42162 0.38761 0.0
C439 C 0.1869 0.43918 0.21733 0.0
O440 O 0.20182 0.45531 0.25933 0.0
O441 O 0.16481 0.38196 0.36309 0.0
C442 C 0.55391 0.71064 0.33371 0.0
O443 O 0.5418 0.7189 0.30461 0.0
O444 O 0.57824 0.7555 0.20084 0.0
Zn445 Zn 0.58474 0.75537 0.30463 0.0
O446 O 0.56627 0.76399 0.36832 0.0
C447 C 0.62783 0.79619 0.28703 0.0
O448 O 0.61615 0.79874 0.23567 0.0
O449 O 0.57562 0.72343 0.33606 0.0
C450 C 0.57125 0.78431 0.38428 0.0
O451 O 0.58779 0.80159 0.34955 0.0
C452 C 0.56213 0.75773 0.17411 0.0
O453 O 0.54772 0.75982 0.21619 0.0
O454 O 0.61813 0.77793 0.32391 0.0
C455 C 0.29044 0.87277 0.29766 0.0
O456 O 0.28617 0.87154 0.22962 0.0
O457 O 0.24545 0.82607 0.20497 0.0
Zn458 Zn 0.24496 0.83198 0.30844 0.0
O459 O 0.23942 0.80541 0.36997 0.0
C460 C 0.20075 0.82919 0.29638 0.0
O461 O 0.19878 0.81697 0.2399 0.0
O462 O 0.27513 0.85835 0.339 0.0
C463 C 0.22025 0.78684 0.37216 0.0
O464 O 0.2046 0.78334 0.32456 0.0
C465 C 0.25073 0.81204 0.17795 0.0
O466 O 0.25575 0.79948 0.21941 0.0
O467 O 0.21945 0.83827 0.33103 0.0
C468 C 0.23774 0.13709 0.8194 0.0
C469 C 0.22531 0.11516 0.78864 0.0
C470 C 0.23473 0.14064 0.89052 0.0
C471 C 0.21904 0.12247 0.93375 0.0
H472 H 0.25098 0.15139 0.78982 0.0
H473 H 0.24558 0.15762 0.91243 0.0
S474 S 0.17919 0.06266 0.8752 0.0
N475 N 0.1944 0.07568 0.80414 0.0
N476 N 0.18869 0.08239 0.93788 0.0
C477 C 0.20501 0.10092 0.90205 0.0
C478 C 0.20815 0.09727 0.82949 0.0
C479 C 0.85724 0.0985 0.80498 0.0
C480 C 0.87925 0.10856 0.77447 0.0
C481 C 0.85364 0.09143 0.87566 0.0
C482 C 0.87188 0.09407 0.91887 0.0
H483 H 0.84284 0.09726 0.7755 0.0
H484 H 0.83656 0.08488 0.89732 0.0
S485 S 0.932 0.11535 0.86066 0.0
N486 N 0.91895 0.11772 0.79 0.0
N487 N 0.91216 0.10449 0.92295 0.0
C488 C 0.89356 0.10218 0.88732 0.0
C489 C 0.89724 0.10939 0.81512 0.0
C490 C 0.88973 0.78702 0.95793 0.0
C491 C 0.90931 0.78483 0.96766 0.0
C492 C 0.88149 0.78722 0.89038 0.0
C493 C 0.89248 0.78528 0.82963 0.0
H494 H 0.87991 0.78737 0.00282 0.0
H495 H 0.86566 0.78771 0.88607 0.0
S496 S 0.94688 0.78363 0.82565 0.0
N497 N 0.94143 0.78408 0.91049 0.0
N498 N 0.92582 0.7844 0.78318 0.0
C499 C 0.91329 0.78528 0.83821 0.0
C500 C 0.92172 0.78505 0.90733 0.0
C501 C 0.14619 0.23351 0.61796 0.0
C502 C 0.12777 0.21827 0.57467 0.0
C503 C 0.14274 0.23707 0.68868 0.0
C504 C 0.12071 0.22559 0.71915 0.0
H505 H 0.16333 0.24369 0.59632 0.0
H506 H 0.1573 0.24997 0.71821 0.0
S507 S 0.0674 0.18064 0.63276 0.0
N508 N 0.08721 0.18919 0.57047 0.0
N509 N 0.08071 0.19583 0.70351 0.0
C510 C 0.10248 0.20876 0.67842 0.0
C511 C 0.10601 0.20513 0.60618 0.0
C512 C 0.79444 0.88895 0.57862 0.0
C513 C 0.78727 0.90372 0.55068 0.0
C514 C 0.79106 0.8827 0.6501 0.0
C515 C 0.78046 0.89105 0.69637 0.0
H516 H 0.80134 0.88095 0.54434 0.0
H517 H 0.79554 0.87012 0.66797 0.0
S518 S 0.76333 0.93426 0.65211 0.0
N519 N 0.77256 0.92946 0.57673 0.0
N520 N 0.76632 0.91785 0.7111 0.0
C521 C 0.77537 0.90764 0.67046 0.0
C522 C 0.77871 0.91391 0.59756 0.0
C523 C 0.10831 0.89247 0.68276 0.0
C524 C 0.10449 0.87343 0.72421 0.0
C525 C 0.10098 0.88978 0.61236 0.0
C526 C 0.08952 0.86796 0.58062 0.0
H527 H 0.11824 0.90978 0.70331 0.0
H528 H 0.10554 0.90508 0.58165 0.0
S529 S 0.07094 0.81219 0.67034 0.0
N530 N 0.08531 0.83172 0.73137 0.0
N531 N 0.07148 0.82666 0.59921 0.0
C532 C 0.08369 0.84862 0.62332 0.0
C533 C 0.09115 0.85136 0.69508 0.0
C534 C 0.76202 0.85047 0.16752 0.0
C535 C 0.77778 0.87196 0.19651 0.0
C536 C 0.76261 0.84588 0.09572 0.0
C537 C 0.77917 0.86244 0.05017 0.0
H538 H 0.74814 0.83757 0.19928 0.0
H539 H 0.74938 0.82949 0.07527 0.0
S540 S 0.82668 0.91999 0.10226 0.0
N541 N 0.81216 0.90895 0.17601 0.0
N542 N 0.81341 0.90018 0.04095 0.0
C543 C 0.79625 0.88325 0.07959 0.0
C544 C 0.79552 0.88803 0.15279 0.0
C545 C 0.10445 0.89364 0.17786 0.0
C546 C 0.12186 0.89626 0.22497 0.0
C547 C 0.10914 0.89937 0.10628 0.0
C548 C 0.13141 0.90793 0.07895 0.0
H549 H 0.08675 0.88576 0.19525 0.0
H550 H 0.09491 0.89573 0.07153 0.0
S551 S 0.18398 0.92285 0.18259 0.0
N552 N 0.16294 0.9116 0.24106 0.0
N553 N 0.17172 0.92232 0.10654 0.0
C554 C 0.14936 0.91276 0.12663 0.0
C555 C 0.1446 0.907 0.19965 0.0
C556 C 0.09907 0.2097 0.10467 0.0
C557 C 0.09092 0.22362 0.07616 0.0
C558 C 0.10603 0.21192 0.17539 0.0
C559 C 0.10507 0.22812 0.2205 0.0
H560 H 0.1013 0.19786 0.07132 0.0
H561 H 0.11337 0.20169 0.19355 0.0
S562 S 0.08075 0.26546 0.17514 0.0
N563 N 0.07912 0.25177 0.10107 0.0
N564 N 0.09214 0.25592 0.23388 0.0
C565 C 0.09502 0.24066 0.19427 0.0
C566 C 0.088 0.23845 0.12212 0.0
C567 C 0.88632 0.78587 0.39755 0.0
C568 C 0.8752 0.78851 0.33826 0.0
C569 C 0.87843 0.78558 0.46588 0.0
C570 C 0.85921 0.78814 0.47806 0.0
H571 H 0.90073 0.78301 0.39128 0.0
H572 H 0.88699 0.78246 0.50941 0.0
S573 S 0.82576 0.79871 0.34222 0.0
N574 N 0.84532 0.79608 0.29674 0.0
N575 N 0.83054 0.79572 0.42608 0.0
C576 C 0.84895 0.79259 0.42 0.0
C577 C 0.85694 0.79274 0.34984 0.0
C578 C 0.21048 0.09237 0.40442 0.0
C579 C 0.22456 0.0846 0.43415 0.0
C580 C 0.21257 0.09874 0.33315 0.0
C581 C 0.22879 0.09756 0.2887 0.0
H582 H 0.19861 0.09475 0.43714 0.0
H583 H 0.20222 0.10584 0.31395 0.0
S584 S 0.26654 0.07402 0.33764 0.0
N585 N 0.25289 0.07289 0.41136 0.0
N586 N 0.2568 0.0848 0.27749 0.0
C587 C 0.24149 0.08785 0.31628 0.0
C588 C 0.23942 0.08145 0.389 0.0
C589 C 0.89996 0.11238 0.38985 0.0
C590 C 0.91 0.13473 0.41776 0.0
C591 C 0.89263 0.10791 0.31942 0.0
C592 C 0.89502 0.12562 0.27403 0.0
H593 H 0.89652 0.09797 0.4235 0.0
H594 H 0.88382 0.0902 0.30184 0.0
S595 S 0.92457 0.18783 0.31731 0.0
N596 N 0.92519 0.17528 0.3916 0.0
N597 N 0.91138 0.16688 0.25936 0.0
C598 C 0.90696 0.14833 0.29948 0.0
C599 C 0.91442 0.15288 0.37129 0.0
C600 C 0.87414 0.42843 0.19656 0.0
C601 C 0.88545 0.44731 0.15032 0.0
C602 C 0.8703 0.43147 0.26747 0.0
C603 C 0.87758 0.4535 0.2949 0.0
H604 H 0.86953 0.41128 0.17934 0.0
H605 H 0.86296 0.41659 0.30186 0.0
S606 S 0.90292 0.50786 0.19224 0.0
N607 N 0.90018 0.48828 0.13432 0.0
N608 N 0.89291 0.49398 0.26751 0.0
C609 C 0.88666 0.47218 0.24758 0.0
C610 C 0.89058 0.46909 0.17529 0.0
C611 C 0.55762 0.437 0.1608 0.0
C612 C 0.53937 0.43383 0.11658 0.0
C613 C 0.55397 0.43081 0.23228 0.0
C614 C 0.53195 0.42128 0.26238 0.0
H615 H 0.57511 0.44554 0.14122 0.0
H616 H 0.56875 0.4348 0.2649 0.0
S617 S 0.47769 0.40502 0.1667 0.0
N618 N 0.49792 0.4172 0.10602 0.0
N619 N 0.49113 0.40567 0.24038 0.0
C620 C 0.51327 0.41608 0.2175 0.0
C621 C 0.51695 0.42226 0.14455 0.0
C622 C 0.56496 0.11849 0.25032 0.0
C623 C 0.57574 0.10671 0.27671 0.0
C624 C 0.55808 0.11626 0.17951 0.0
C625 C 0.56176 0.10219 0.13227 0.0
H626 H 0.56059 0.12849 0.28535 0.0
H627 H 0.54868 0.12467 0.16288 0.0
S628 S 0.59354 0.07146 0.17205 0.0
N629 N 0.59287 0.08324 0.24787 0.0
N630 N 0.58002 0.07908 0.11486 0.0
C631 C 0.5744 0.092 0.15657 0.0
C632 C 0.58132 0.09421 0.22877 0.0
C633 C 0.80918 0.57259 0.94857 0.0
C634 C 0.79095 0.5582 0.9033 0.0
C635 C 0.80532 0.57534 0.01962 0.0
C636 C 0.78304 0.56389 0.04831 0.0
H637 H 0.82653 0.58268 0.92839 0.0
H638 H 0.81977 0.58762 0.0509 0.0
S639 S 0.72996 0.52099 0.95598 0.0
N640 N 0.75021 0.52994 0.895 0.0
N641 N 0.74293 0.53506 0.02866 0.0
C642 C 0.76494 0.54791 0.00536 0.0
C643 C 0.76889 0.54508 0.93284 0.0
C644 C 0.4314 0.24574 0.95045 0.0
C645 C 0.44695 0.24314 0.90691 0.0
C646 C 0.42905 0.23993 0.02214 0.0
C647 C 0.44205 0.2311 0.05313 0.0
H648 H 0.42008 0.25128 0.92838 0.0
H649 H 0.41582 0.24092 0.05202 0.0
S650 S 0.4883 0.22511 0.96573 0.0
N651 N 0.47793 0.23429 0.90256 0.0
N652 N 0.47349 0.22331 0.03743 0.0
C653 C 0.45919 0.23045 0.01189 0.0
C654 C 0.46164 0.23647 0.93874 0.0
C655 C 0.74895 0.18639 0.89474 0.0
C656 C 0.75203 0.20447 0.85007 0.0
C657 C 0.75471 0.19015 0.96638 0.0
C658 C 0.76408 0.21221 0.99605 0.0
H659 H 0.74297 0.16935 0.87358 0.0
H660 H 0.75326 0.17591 0.99729 0.0
S661 S 0.77188 0.26455 0.90472 0.0
N662 N 0.76214 0.2446 0.84273 0.0
N663 N 0.7732 0.25174 0.97757 0.0
C664 C 0.76539 0.23003 0.95346 0.0
C665 C 0.75931 0.22614 0.8804 0.0
C666 C 0.4552 0.22688 0.50912 0.0
C667 C 0.43994 0.20869 0.55324 0.0
C668 C 0.4578 0.2232 0.43768 0.0
C669 C 0.44518 0.20122 0.40751 0.0
H670 H 0.46427 0.24436 0.52871 0.0
H671 H 0.46874 0.23795 0.40514 0.0
S672 S 0.40659 0.14706 0.50297 0.0
N673 N 0.41476 0.1673 0.56365 0.0
N674 N 0.41959 0.16045 0.42942 0.0
C675 C 0.43149 0.18257 0.45233 0.0
C676 C 0.42893 0.18628 0.52521 0.0
C677 C 0.80443 0.2396 0.46433 0.0
C678 C 0.78216 0.2295 0.49308 0.0
C679 C 0.80839 0.24546 0.39272 0.0
C680 C 0.7903 0.24169 0.34702 0.0
H681 H 0.81876 0.24168 0.49609 0.0
H682 H 0.82566 0.25208 0.37249 0.0
S683 S 0.72951 0.21964 0.39903 0.0
N684 N 0.7423 0.21884 0.47257 0.0
N685 N 0.74976 0.23003 0.33792 0.0
C686 C 0.76831 0.23353 0.37641 0.0
C687 C 0.76424 0.22739 0.44943 0.0
C688 C 0.76067 0.57718 0.51824 0.0
C689 C 0.77056 0.56473 0.54619 0.0
C690 C 0.75387 0.57481 0.44743 0.0
C691 C 0.75657 0.55981 0.40157 0.0
H692 H 0.75932 0.58986 0.55002 0.0
H693 H 0.74735 0.58562 0.42792 0.0
S694 S 0.77772 0.52019 0.452 0.0
N695 N 0.77986 0.53455 0.52504 0.0
N696 N 0.76707 0.53008 0.39186 0.0
C697 C 0.76466 0.54584 0.43029 0.0
C698 C 0.77164 0.54829 0.50258 0.0
C699 C 0.56844 0.11575 0.6823 0.0
C700 C 0.55036 0.10441 0.63339 0.0
C701 C 0.56409 0.11823 0.75322 0.0
C702 C 0.5415 0.10941 0.7781 0.0
H703 H 0.58605 0.12169 0.66681 0.0
H704 H 0.57848 0.12598 0.78943 0.0
S705 S 0.48844 0.08235 0.66919 0.0
N706 N 0.50924 0.08731 0.6131 0.0
N707 N 0.50109 0.09189 0.74636 0.0
C708 C 0.52343 0.09979 0.7287 0.0
C709 C 0.52786 0.09735 0.65636 0.0
C710 C 0.87552 0.43555 0.69724 0.0
C711 C 0.89041 0.4327 0.65118 0.0
C712 C 0.87349 0.42912 0.76845 0.0
C713 C 0.88627 0.41961 0.7965 0.0
H714 H 0.86632 0.44404 0.67942 0.0
H715 H 0.86285 0.43293 0.80248 0.0
S716 S 0.92385 0.404 0.6952 0.0
N717 N 0.91533 0.41634 0.63651 0.0
N718 N 0.91151 0.40429 0.7703 0.0
C719 C 0.89954 0.41468 0.74967 0.0
C720 C 0.90158 0.42119 0.67704 0.0
C721 C 0.57037 0.47511 0.64765 0.0
C722 C 0.56151 0.45321 0.61717 0.0
C723 C 0.57593 0.4787 0.71949 0.0
C724 C 0.57304 0.46058 0.76373 0.0
H725 H 0.57161 0.48933 0.61715 0.0
H726 H 0.58154 0.49562 0.74104 0.0
S727 S 0.55468 0.40097 0.70676 0.0
N728 N 0.55327 0.4139 0.63435 0.0
N729 N 0.5638 0.42066 0.76949 0.0
C730 C 0.56627 0.43911 0.73256 0.0
C731 C 0.56051 0.43543 0.65925 0.0
C732 C 0.57068 0.81411 0.55284 0.0
C733 C 0.55582 0.7957 0.59688 0.0
C734 C 0.57416 0.81053 0.48216 0.0
C735 C 0.56297 0.78839 0.4525 0.0
H736 H 0.58063 0.83135 0.57383 0.0
H737 H 0.58677 0.82511 0.45201 0.0
S738 S 0.51895 0.73499 0.54098 0.0
N739 N 0.52734 0.75497 0.60263 0.0
N740 N 0.53383 0.74824 0.46964 0.0
C741 C 0.5465 0.77013 0.49399 0.0
C742 C 0.54295 0.77378 0.56619 0.0
C743 C 0.19017 0.758 0.45267 0.0
C744 C 0.21358 0.77298 0.43795 0.0
C745 C 0.1828 0.74922 0.52077 0.0
C746 C 0.19855 0.75513 0.57673 0.0
H747 H 0.17723 0.75419 0.41267 0.0
H748 H 0.16449 0.73893 0.53034 0.0
S749 S 0.2621 0.78934 0.56228 0.0
N750 N 0.25277 0.79007 0.48219 0.0
N751 N 0.23887 0.77367 0.61023 0.0
C752 C 0.22214 0.76819 0.56115 0.0
C753 C 0.22967 0.77706 0.49172 0.0
C754 C 0.23519 0.4367 0.52251 0.0
C755 C 0.22158 0.44495 0.49231 0.0
C756 C 0.2414 0.44045 0.59387 0.0
C757 C 0.2344 0.45275 0.63786 0.0
H758 H 0.2398 0.42589 0.49235 0.0
H759 H 0.25076 0.43258 0.61544 0.0
S760 S 0.20275 0.48212 0.58077 0.0
N761 N 0.2044 0.46908 0.50896 0.0
N762 N 0.21613 0.47616 0.64323 0.0
C763 C 0.22282 0.46309 0.60665 0.0
C764 C 0.2164 0.45918 0.53383 0.0
C765 C 0.42419 0.87307 0.24003 0.0
C766 C 0.44642 0.88051 0.21404 0.0
C767 C 0.42054 0.87607 0.31117 0.0
C768 C 0.439 0.88659 0.35919 0.0
H769 H 0.4096 0.86613 0.20449 0.0
H770 H 0.40326 0.8713 0.32746 0.0
S771 S 0.49993 0.90465 0.32052 0.0
N772 N 0.48668 0.8956 0.24392 0.0
N773 N 0.47986 0.90117 0.37762 0.0
C774 C 0.46101 0.89212 0.33521 0.0
C775 C 0.46473 0.88913 0.26264 0.0
C776 C 0.12133 0.55356 0.2089 0.0
C777 C 0.11419 0.56852 0.18229 0.0
C778 C 0.1175 0.54647 0.27965 0.0
C779 C 0.10638 0.55407 0.32658 0.0
H780 H 0.12863 0.5461 0.17402 0.0
H781 H 0.12206 0.53384 0.29628 0.0
S782 S 0.08905 0.59739 0.28676 0.0
N783 N 0.09896 0.59367 0.21108 0.0
N784 N 0.09176 0.58035 0.34392 0.0
C785 C 0.10126 0.5708 0.30232 0.0
C786 C 0.10513 0.578 0.2302 0.0
C787 C 0.4253 0.52257 0.27934 0.0
C788 C 0.42792 0.54097 0.23696 0.0
C789 C 0.4317 0.52576 0.35057 0.0
C790 C 0.44112 0.54752 0.38238 0.0
H791 H 0.41915 0.50567 0.25674 0.0
H792 H 0.4305 0.51128 0.37949 0.0
S793 S 0.4478 0.6005 0.29828 0.0
N794 N 0.43776 0.5811 0.23469 0.0
N795 N 0.4498 0.58712 0.3687 0.0
C796 C 0.44203 0.56565 0.34234 0.0
C797 C 0.43545 0.56238 0.26962 0.0
C798 C 0.11676 0.55428 0.77901 0.0
C799 C 0.10144 0.5371 0.82579 0.0
C800 C 0.11855 0.5493 0.7082 0.0
C801 C 0.10507 0.52694 0.68123 0.0
H802 H 0.12659 0.57203 0.79598 0.0
H803 H 0.12964 0.56337 0.67361 0.0
S804 S 0.06578 0.47492 0.78473 0.0
N805 N 0.0751 0.49617 0.84227 0.0
N806 N 0.07845 0.48683 0.70926 0.0
C807 C 0.0912 0.50924 0.72877 0.0
C808 C 0.08942 0.51431 0.80101 0.0
C809 C 0.43993 0.56258 0.8353 0.0
C810 C 0.45741 0.56539 0.88235 0.0
C811 C 0.4447 0.56903 0.76422 0.0
C812 C 0.46713 0.5785 0.7373 0.0
H813 H 0.42216 0.55414 0.85234 0.0
H814 H 0.43045 0.56532 0.72946 0.0
S815 S 0.51975 0.59382 0.84119 0.0
N816 N 0.49859 0.58156 0.89898 0.0
N817 N 0.50752 0.59363 0.76541 0.0
C818 C 0.48507 0.58334 0.78502 0.0
C819 C 0.48022 0.57684 0.85755 0.0
C820 C 0.42889 0.87443 0.81313 0.0
C821 C 0.42521 0.88848 0.86049 0.0
C822 C 0.42253 0.87269 0.74195 0.0
C823 C 0.41228 0.88496 0.71528 0.0
H824 H 0.43797 0.86572 0.82998 0.0
H825 H 0.42697 0.86276 0.7069 0.0
S826 S 0.39442 0.92015 0.81999 0.0
N827 N 0.40731 0.91193 0.87766 0.0
N828 N 0.39542 0.90869 0.74389 0.0
C829 C 0.40655 0.89732 0.76329 0.0
C830 C 0.41295 0.89903 0.8359 0.0
C831 C 0.21197 0.45603 0.11115 0.0
C832 C 0.19016 0.4411 0.13971 0.0
C833 C 0.2166 0.45503 0.03946 0.0
C834 C 0.19956 0.43912 0.99347 0.0
H835 H 0.22599 0.46763 0.14506 0.0
H836 H 0.23405 0.46594 0.02103 0.0
S837 S 0.13836 0.39961 0.03958 0.0
N838 N 0.15045 0.41241 0.11469 0.0
N839 N 0.15905 0.41058 0.97995 0.0
C840 C 0.17711 0.42566 0.0201 0.0
C841 C 0.17245 0.42659 0.09325 0.0
C842 C 0.55053 0.7771 0.99852 0.0
C843 C 0.56603 0.77528 0.95241 0.0
C844 C 0.5484 0.77016 0.06923 0.0
C845 C 0.56168 0.76112 0.09676 0.0
H846 H 0.5408 0.78508 0.98113 0.0
H847 H 0.53711 0.77303 0.10327 0.0
S848 S 0.60147 0.74862 0.99496 0.0
N849 N 0.59244 0.76072 0.93706 0.0
N850 N 0.58843 0.74766 0.06984 0.0
C851 C 0.57578 0.75739 0.04983 0.0
C852 C 0.57793 0.76444 0.9777 0.0
C853 C 0.24379 0.78699 0.07264 0.0
C854 C 0.24885 0.80838 0.10067 0.0
C855 C 0.23834 0.78194 0.00101 0.0
C856 C 0.23803 0.79819 0.95464 0.0
H857 H 0.24277 0.77359 0.10686 0.0
H858 H 0.23335 0.7648 0.9826 0.0
S859 S 0.25371 0.85806 0.00019 0.0
N860 N 0.25588 0.84686 0.07538 0.0
N861 N 0.24586 0.83751 0.94075 0.0
C862 C 0.24486 0.82028 0.98104 0.0
C863 C 0.25017 0.82531 0.05411 0.0
C864 C 0.20096 0.20788 0.26769 0.0
C865 C 0.17886 0.19535 0.29763 0.0
C866 C 0.21087 0.19679 0.23132 0.0
C867 C 0.19898 0.17277 0.22298 0.0
H868 H 0.21066 0.22644 0.2718 0.0
H869 H 0.22788 0.20716 0.20902 0.0
S870 S 0.14111 0.13185 0.2943 0.0
N871 N 0.14575 0.15739 0.31859 0.0
N872 N 0.16426 0.13668 0.25006 0.0
C873 C 0.17699 0.16 0.25337 0.0
C874 C 0.16698 0.17125 0.2908 0.0
C875 C 0.82457 0.98857 0.24011 0.0
C876 C 0.80191 0.97705 0.26584 0.0
C877 C 0.83346 0.00961 0.2051 0.0
C878 C 0.82014 0.02019 0.19463 0.0
H879 H 0.83564 0.98127 0.24649 0.0
H880 H 0.85107 0.0177 0.18675 0.0
S881 S 0.75964 0.99714 0.25165 0.0
N882 N 0.76615 0.97767 0.27818 0.0
N883 N 0.78297 0.01745 0.21258 0.0
C884 C 0.79738 0.00887 0.2199 0.0
C885 C 0.78825 0.98727 0.25541 0.0
C886 C 0.98298 0.82323 0.26909 0.0
C887 C 0.97137 0.80065 0.24275 0.0
C888 C 0.00471 0.83245 0.29967 0.0
C889 C 0.01594 0.81959 0.30492 0.0
H890 H 0.97516 0.83394 0.26698 0.0
H891 H 0.01275 0.84994 0.31909 0.0
S892 S 0.99327 0.75968 0.24256 0.0
N893 N 0.97283 0.76559 0.22301 0.0
N894 N 0.01394 0.78307 0.28029 0.0
C895 C 0.00468 0.797 0.27827 0.0
C896 C 0.98236 0.78751 0.24725 0.0
C897 C 0.77309 0.76459 0.75218 0.0
C898 C 0.77648 0.7625 0.6799 0.0
C899 C 0.76183 0.77615 0.77513 0.0
C900 C 0.75369 0.78632 0.72668 0.0
H901 H 0.78015 0.75817 0.79163 0.0
H902 H 0.76067 0.77819 0.83148 0.0
S903 S 0.75542 0.78287 0.53104 0.0
N904 N 0.76861 0.76924 0.55962 0.0
N905 N 0.74742 0.79113 0.60253 0.0
C906 C 0.7553 0.78273 0.654 0.0
C907 C 0.76671 0.77077 0.63064 0.0
C908 C 0.18465 0.00404 0.73441 0.0
C909 C 0.208 0.01482 0.71558 0.0
C910 C 0.17428 0.98362 0.77298 0.0
C911 C 0.18669 0.97286 0.79387 0.0
H912 H 0.17422 0.01157 0.72025 0.0
H913 H 0.15622 0.97614 0.7859 0.0
S914 S 0.2483 0.99377 0.75712 0.0
N915 N 0.24336 0.01319 0.72038 0.0
N916 N 0.22365 0.97438 0.79242 0.0
C917 C 0.21004 0.98326 0.77496 0.0
C918 C 0.22074 0.00433 0.73603 0.0
C919 C 0.98964 0.17504 0.73002 0.0
C920 C 0.97968 0.18811 0.70815 0.0
C921 C 0.00966 0.18471 0.77055 0.0
C922 C 0.02079 0.20798 0.79055 0.0
H923 H 0.98183 0.15701 0.71638 0.0
H924 H 0.0166 0.17381 0.78536 0.0
S925 S 0.00175 0.24978 0.74736 0.0
N926 N 0.98231 0.22557 0.71002 0.0
N927 N 0.02029 0.24393 0.78591 0.0
C928 C 0.01106 0.22134 0.76927 0.0
C929 C 0.99044 0.21137 0.72822 0.0
C930 C 0.86679 0.54771 0.61308 0.0
C931 C 0.84626 0.5365 0.65238 0.0
C932 C 0.87605 0.53528 0.58114 0.0
C933 C 0.86499 0.51122 0.58689 0.0
H934 H 0.8755 0.56615 0.6054 0.0
H935 H 0.89162 0.54452 0.55018 0.0
S936 S 0.81238 0.47393 0.6908 0.0
N937 N 0.81632 0.50006 0.70031 0.0
N938 N 0.83359 0.47684 0.63978 0.0
C939 C 0.84497 0.49991 0.6282 0.0
C940 C 0.83565 0.51252 0.66113 0.0
C941 C 0.48284 0.32158 0.60346 0.0
C942 C 0.4596 0.31057 0.62379 0.0
C943 C 0.49277 0.34205 0.56512 0.0
C944 C 0.48001 0.3526 0.54602 0.0
H945 H 0.49353 0.31424 0.61643 0.0
H946 H 0.51077 0.34976 0.55118 0.0
S947 S 0.41853 0.33102 0.58697 0.0
N948 N 0.42398 0.31175 0.62219 0.0
N949 N 0.44286 0.35061 0.55055 0.0
C950 C 0.45676 0.34194 0.56629 0.0
C951 C 0.44652 0.32083 0.605 0.0
C952 C 0.64461 0.09564 0.66584 0.0
C953 C 0.6392 0.09169 0.59349 0.0
C954 C 0.66747 0.10831 0.68869 0.0
C955 C 0.68572 0.11752 0.63998 0.0
H956 H 0.63112 0.09003 0.70507 0.0
H957 H 0.67071 0.112 0.74455 0.0
S958 S 0.681 0.10813 0.44602 0.0
N959 N 0.65415 0.09508 0.47422 0.0
N960 N 0.69707 0.11894 0.51717 0.0
C961 C 0.68064 0.11203 0.56809 0.0
C962 C 0.65739 0.09909 0.54484 0.0
C963 C 0.48472 0.16186 0.09951 0.0
C964 C 0.46155 0.14939 0.12035 0.0
C965 C 0.49509 0.15132 0.06333 0.0
C966 C 0.48282 0.12777 0.04686 0.0
H967 H 0.49507 0.18006 0.11079 0.0
H968 H 0.51305 0.16179 0.04919 0.0
S969 S 0.42145 0.08735 0.08837 0.0
N970 N 0.42637 0.11222 0.12077 0.0
N971 N 0.44599 0.09224 0.05308 0.0
C972 C 0.45952 0.11503 0.06678 0.0
C973 C 0.44886 0.12587 0.10339 0.0
C974 C 0.88916 0.33205 6e-05 0.0
C975 C 0.90145 0.35251 0.03881 0.0
C976 C 0.87752 0.31074 0.0341 0.0
C977 C 0.87781 0.30898 0.10821 0.0
H978 H 0.88733 0.33251 0.94333 0.0
H979 H 0.86737 0.29562 0.00202 0.0
S980 S 0.91097 0.35706 0.23286 0.0
N981 N 0.91585 0.36944 0.15453 0.0
N982 N 0.89394 0.32931 0.21849 0.0
C983 C 0.89168 0.32909 0.1471 0.0
C984 C 0.90349 0.35087 0.1124 0.0
C985 C 0.66976 0.54934 0.11043 0.0
C986 C 0.68301 0.53886 0.12366 0.0
C987 C 0.64925 0.53797 0.07157 0.0
C988 C 0.64142 0.51584 0.04371 0.0
H989 H 0.67512 0.56634 0.13089 0.0
H990 H 0.63943 0.54658 0.06374 0.0
S991 S 0.67078 0.48155 0.05958 0.0
N992 N 0.68736 0.50545 0.10336 0.0
N993 N 0.64918 0.48428 0.02998 0.0
C994 C 0.65485 0.50541 0.05529 0.0
C995 C 0.67553 0.51686 0.09541 0.0
C996 C 0.52932 0.8772 0.92893 0.0
C997 C 0.50519 0.86454 0.93278 0.0
C998 C 0.54174 0.86823 0.89519 0.0
C999 C 0.53046 0.84634 0.86345 0.0
H1000 H 0.53874 0.89406 0.95297 0.0
H1001 H 0.56032 0.87845 0.89468 0.0
S1002 S 0.46724 0.80701 0.8543 0.0
N1003 N 0.47038 0.82947 0.89899 0.0
N1004 N 0.49354 0.81271 0.83529 0.0
C1005 C 0.50625 0.83377 0.86547 0.0
C1006 C 0.49367 0.84282 0.90026 0.0
C1007 C 0.15916 0.65529 0.89791 0.0
C1008 C 0.13549 0.64477 0.91227 0.0
C1009 C 0.17129 0.6774 0.86955 0.0
C1010 C 0.16036 0.69012 0.85458 0.0
H1011 H 0.16856 0.64638 0.90844 0.0
H1012 H 0.18952 0.68461 0.86004 0.0
S1013 S 0.09848 0.67046 0.88158 0.0
N1014 N 0.10138 0.64868 0.90862 0.0
N1015 N 0.12429 0.69047 0.85549 0.0
C1016 C 0.13663 0.67984 0.8682 0.0
C1017 C 0.12418 0.65714 0.89697 0.0
C1018 C 0.31902 0.45816 0.91852 0.0
C1019 C 0.30607 0.46933 0.92262 0.0
C1020 C 0.34111 0.46805 0.94791 0.0
C1021 C 0.35096 0.48938 0.98297 0.0
H1022 H 0.31226 0.4419 0.89113 0.0
H1023 H 0.35065 0.45908 0.94194 0.0
S1024 S 0.323 0.52437 0.01442 0.0
N1025 N 0.30398 0.50204 0.96861 0.0
N1026 N 0.34525 0.52052 0.02425 0.0
C1027 C 0.33779 0.50029 0.98956 0.0
C1028 C 0.31542 0.49031 0.95923 0.0
C1029 C 0.08609 0.43879 0.372 0.0
C1030 C 0.08472 0.4396 0.44614 0.0
C1031 C 0.09667 0.42779 0.33942 0.0
C1032 C 0.10645 0.4173 0.37976 0.0
H1033 H 0.08003 0.44779 0.33873 0.0
H1034 H 0.09855 0.42893 0.28249 0.0
S1035 S 0.10341 0.41054 0.57484 0.0
N1036 N 0.09098 0.42593 0.5584 0.0
N1037 N 0.11093 0.40525 0.49713 0.0
C1038 C 0.10325 0.41605 0.45353 0.0
C1039 C 0.09235 0.42718 0.48676 0.0
C1040 C 0.5444 0.65813 0.43768 0.0
C1041 C 0.52062 0.64661 0.45096 0.0
C1042 C 0.55505 0.67865 0.39872 0.0
C1043 C 0.54223 0.68819 0.37073 0.0
H1044 H 0.55492 0.65143 0.45835 0.0
H1045 H 0.57347 0.68715 0.3909 0.0
S1046 S 0.47908 0.66378 0.38703 0.0
N1047 N 0.4844 0.64572 0.43071 0.0
N1048 N 0.50422 0.68396 0.35723 0.0
C1049 C 0.51832 0.67648 0.38232 0.0
C1050 C 0.50757 0.6558 0.42256 0.0
C1051 C 0.3395 0.90015 0.42798 0.0
C1052 C 0.35906 0.90995 0.38432 0.0
C1053 C 0.31737 0.88945 0.39935 0.0
C1054 C 0.31383 0.88812 0.32582 0.0
H1055 H 0.34117 0.8997 0.48479 0.0
H1056 H 0.30293 0.88125 0.43534 0.0
S1057 S 0.35929 0.91451 0.18869 0.0
N1058 N 0.37349 0.92026 0.264 0.0
N1059 N 0.3318 0.90008 0.21014 0.0
C1060 C 0.3332 0.89953 0.28167 0.0
C1061 C 0.35584 0.91046 0.31093 0.0
C1062 C 0.32404 0.15589 0.10639 0.0
C1063 C 0.31147 0.16325 0.14756 0.0
C1064 C 0.34529 0.1591 0.12908 0.0
C1065 C 0.35495 0.16986 0.1939 0.0
H1066 H 0.31739 0.14738 0.05623 0.0
H1067 H 0.35424 0.15316 0.09512 0.0
S1068 S 0.32904 0.19231 0.32201 0.0
N1069 N 0.31032 0.18185 0.25667 0.0
N1070 N 0.35023 0.18788 0.29925 0.0
C1071 C 0.34264 0.17742 0.23561 0.0
C1072 C 0.32095 0.17414 0.21245 0.0
C1073 C 0.81643 0.16226 0.1946 0.0
C1074 C 0.82082 0.17963 0.14513 0.0
C1075 C 0.82025 0.1441 0.17796 0.0
C1076 C 0.82859 0.14257 0.11113 0.0
H1077 H 0.81035 0.16285 0.24714 0.0
H1078 H 0.81713 0.13147 0.21846 0.0
S1079 S 0.84072 0.18242 0.9603 0.0
N1080 N 0.83254 0.19328 0.02475 0.0
N1081 N 0.83966 0.15921 0.99356 0.0
C1082 C 0.83238 0.15944 0.06043 0.0
C1083 C 0.82853 0.17794 0.07739 0.0
C1084 C 0.82861 0.66 0.22625 0.0
C1085 C 0.80614 0.65148 0.20034 0.0
C1086 C 0.84599 0.68258 0.21268 0.0
C1087 C 0.8416 0.69771 0.17317 0.0
H1088 H 0.83293 0.64915 0.25733 0.0
H1089 H 0.86289 0.68831 0.23458 0.0
S1090 S 0.78586 0.6838 0.09133 0.0
N1091 N 0.7806 0.65986 0.1316 0.0
N1092 N 0.81322 0.70237 0.10647 0.0
C1093 C 0.81928 0.68938 0.14617 0.0
C1094 C 0.80158 0.66628 0.15962 0.0
C1095 C 0.16534 0.34208 0.40662 0.0
C1096 C 0.17413 0.35259 0.34087 0.0
C1097 C 0.16357 0.32103 0.42415 0.0
C1098 C 0.17041 0.30947 0.37663 0.0
H1099 H 0.15959 0.35007 0.44505 0.0
H1100 H 0.15634 0.31361 0.47513 0.0
S1101 S 0.19523 0.32993 0.19804 0.0
N1102 N 0.19037 0.35013 0.22845 0.0
N1103 N 0.18695 0.31047 0.26128 0.0
C1104 C 0.17975 0.32001 0.31118 0.0
C1105 C 0.18161 0.34156 0.29334 0.0
C1106 C 0.66163 0.81416 0.36888 0.0
C1107 C 0.6511 0.81519 0.3058 0.0
C1108 C 0.68321 0.83221 0.38922 0.0
C1109 C 0.69521 0.85205 0.34729 0.0
H1110 H 0.6531 0.79934 0.40333 0.0
H1111 H 0.69055 0.83047 0.43818 0.0
S1112 S 0.67534 0.86321 0.17637 0.0
N1113 N 0.65445 0.83769 0.20104 0.0
N1114 N 0.69492 0.87157 0.23918 0.0
C1115 C 0.68487 0.85334 0.28402 0.0
C1116 C 0.66288 0.83493 0.26329 0.0
C1117 C 0.16154 0.82403 0.27828 0.0
C1118 C 0.18086 0.83101 0.32197 0.0
C1119 C 0.14241 0.82536 0.30126 0.0
C1120 C 0.14177 0.83368 0.369 0.0
H1121 H 0.16124 0.81769 0.22544 0.0
H1122 H 0.1282 0.82022 0.26498 0.0
S1123 S 0.18728 0.85263 0.506 0.0
N1124 N 0.1977 0.84554 0.43768 0.0
N1125 N 0.16178 0.84795 0.48094 0.0
C1126 C 0.16076 0.84021 0.41392 0.0
C1127 C 0.18028 0.83894 0.3904 0.0
C1128 C 0.67601 0.84821 0.88207 0.0
C1129 C 0.68901 0.84318 0.83454 0.0
C1130 C 0.65522 0.84663 0.86144 0.0
C1131 C 0.64666 0.84005 0.79236 0.0
H1132 H 0.68163 0.85286 0.93623 0.0
H1133 H 0.64548 0.84992 0.90068 0.0
S1134 S 0.67561 0.82786 0.64516 0.0
N1135 N 0.69281 0.83327 0.71354 0.0
N1136 N 0.65387 0.8304 0.67471 0.0
C1137 C 0.66001 0.83595 0.74345 0.0
C1138 C 0.68111 0.83746 0.76454 0.0
C1139 C 0.1637 0.81158 0.93762 0.0
C1140 C 0.16913 0.80646 0.8707 0.0
C1141 C 0.16108 0.83079 0.94811 0.0
C1142 C 0.164 0.84584 0.89231 0.0
H1143 H 0.16153 0.80074 0.98268 0.0
H1144 H 0.1569 0.83392 0.00071 0.0
S1145 S 0.17772 0.84 0.70613 0.0
N1146 N 0.17691 0.81792 0.74713 0.0
N1147 N 0.1721 0.85406 0.7671 0.0
C1148 C 0.16933 0.84093 0.82495 0.0
C1149 C 0.17182 0.82123 0.81406 0.0
C1150 C 0.18351 0.34905 0.89092 0.0
C1151 C 0.18356 0.35936 0.82614 0.0
C1152 C 0.16566 0.32708 0.90881 0.0
C1153 C 0.14708 0.31448 0.86275 0.0
H1154 H 0.1972 0.35813 0.92887 0.0
H1155 H 0.16641 0.32005 0.95957 0.0
S1156 S 0.13959 0.33308 0.68467 0.0
N1157 N 0.16382 0.35483 0.71435 0.0
N1158 N 0.13028 0.31359 0.748 0.0
C1159 C 0.14705 0.32441 0.79723 0.0
C1160 C 0.16528 0.3468 0.77893 0.0
C1161 C 0.82216 0.67929 0.72199 0.0
C1162 C 0.83998 0.6944 0.6769 0.0
C1163 C 0.81851 0.6573 0.73662 0.0
C1164 C 0.83241 0.64935 0.70636 0.0
H1165 H 0.81096 0.68449 0.74695 0.0
H1166 H 0.80448 0.64641 0.77161 0.0
S1167 S 0.88138 0.68208 0.58405 0.0
N1168 N 0.87175 0.69983 0.60172 0.0
N1169 N 0.86476 0.65839 0.62893 0.0
C1170 C 0.85028 0.66422 0.66092 0.0
C1171 C 0.8541 0.68675 0.64629 0.0
C1172 C 0.32543 0.16287 0.61276 0.0
C1173 C 0.31322 0.14354 0.65652 0.0
C1174 C 0.34592 0.182 0.63531 0.0
C1175 C 0.35511 0.18263 0.70263 0.0
H1176 H 0.31917 0.16329 0.56036 0.0
H1177 H 0.35476 0.19628 0.59907 0.0
S1178 S 0.3293 0.13689 0.83919 0.0
N1179 N 0.3115 0.12651 0.77156 0.0
N1180 N 0.34999 0.16245 0.81388 0.0
C1181 C 0.34297 0.16352 0.74735 0.0
C1182 C 0.32207 0.14399 0.72432 0.0
C1183 C 0.85338 0.17931 0.67765 0.0
C1184 C 0.85462 0.1699 0.61246 0.0
C1185 C 0.83458 0.18206 0.69453 0.0
C1186 C 0.81625 0.17552 0.64697 0.0
H1187 H 0.86684 0.18425 0.71665 0.0
H1188 H 0.83437 0.18917 0.74569 0.0
S1189 S 0.81187 0.1515 0.4671 0.0
N1190 N 0.83634 0.15505 0.4986 0.0
N1191 N 0.80106 0.1602 0.53029 0.0
C1192 C 0.81746 0.16649 0.58099 0.0
C1193 C 0.83662 0.16371 0.56376 0.0
C1194 C 0.0044 0.50694 0.53768 0.0
C1195 C 0.01529 0.50063 0.48605 0.0
C1196 C 0.98235 0.50371 0.52667 0.0
C1197 C 0.9703 0.49405 0.46354 0.0
H1198 H 0.01276 0.51409 0.58769 0.0
H1199 H 0.97454 0.50837 0.56879 0.0
S1200 S 0.992 0.47655 0.30875 0.0
N1201 N 0.01291 0.48558 0.36742 0.0
N1202 N 0.97153 0.47955 0.34671 0.0
C1203 C 0.98126 0.4883 0.41053 0.0
C1204 C 0.00372 0.49156 0.42179 0.0
C1205 C 0.50874 0.51952 0.46507 0.0
C1206 C 0.4993 0.51964 0.53136 0.0
C1207 C 0.51016 0.50046 0.44205 0.0
C1208 C 0.50223 0.48068 0.4843 0.0
H1209 H 0.51485 0.53417 0.43001 0.0
H1210 H 0.51756 0.5013 0.39052 0.0
S1211 S 0.47688 0.47252 0.66376 0.0
N1212 N 0.48245 0.49844 0.64 0.0
N1213 N 0.48511 0.46264 0.59677 0.0
C1214 C 0.49292 0.4806 0.55106 0.0
C1215 C 0.49149 0.50006 0.57457 0.0
C1216 C 0.49811 0.00653 0.43788 0.0
C1217 C 0.5174 0.01696 0.48257 0.0
C1218 C 0.47851 0.98583 0.45634 0.0
C1219 C 0.47735 0.97461 0.5203 0.0
H1220 H 0.49803 0.01442 0.38805 0.0
H1221 H 0.46421 0.97854 0.41972 0.0
S1222 S 0.52303 0.9949 0.65707 0.0
N1223 N 0.53401 0.01459 0.59443 0.0
N1224 N 0.49718 0.97566 0.62907 0.0
C1225 C 0.49651 0.98482 0.56567 0.0
C1226 C 0.51652 0.00596 0.54683 0.0
C1227 C 0.50507 0.00514 0.9404 0.0
C1228 C 0.49723 0.01721 0.98198 0.0
C1229 C 0.50048 0.98308 0.95918 0.0
C1230 C 0.48784 0.9721 0.02038 0.0
H1231 H 0.51491 0.01276 0.89277 0.0
H1232 H 0.50681 0.97455 0.92492 0.0
S1233 S 0.46366 0.99635 0.14841 0.0
N1234 N 0.47633 0.01656 0.08791 0.0
N1235 N 0.46773 0.97514 0.1232 0.0
C1236 C 0.47993 0.98397 0.06271 0.0
C1237 C 0.48459 0.00648 0.0435 0.0
C1238 C 0.98867 0.48649 0.04387 0.0
C1239 C 0.97625 0.48479 0.98217 0.0
C1240 C 0.0109 0.50496 0.05453 0.0
C1241 C 0.02175 0.52253 0.00391 0.0
H1242 H 0.98126 0.47338 0.0844 0.0
H1243 H 0.01974 0.50522 0.10268 0.0
S1244 S 0.99652 0.52652 0.83357 0.0
N1245 N 0.97629 0.50258 0.87005 0.0
N1246 N 0.01812 0.53727 0.89006 0.0
C1247 C 0.00938 0.52132 0.94246 0.0
C1248 C 0.98666 0.50246 0.93159 0.0
C1249 C 0.51586 0.5071 0.03053 0.0
C1250 C 0.51358 0.4938 0.97044 0.0
C1251 C 0.49783 0.51026 0.05352 0.0
C1252 C 0.47669 0.50031 0.01743 0.0
H1253 H 0.5317 0.51514 0.06055 0.0
H1254 H 0.50065 0.5208 0.09986 0.0
S1255 S 0.4616 0.46362 0.85734 0.0
N1256 N 0.48829 0.47036 0.87535 0.0
N1257 N 0.45441 0.47634 0.91865 0.0
C1258 C 0.47407 0.48686 0.95735 0.0
C1259 C 0.49249 0.48363 0.93382 0.0
loop_
_geom_bond_atom_site_label_1
_geom_bond_atom_site_label_2
_geom_bond_distance
_geom_bond_site_symmetry_2
_ccdc_geom_bond_type
C0 O1 1.160 . S
C0 O7 1.185 . S
O1 C0 1.160 . S
O2 Zn3 1.899 . S
O2 C10 1.284 . S
Zn3 O2 1.899 . S
Zn3 O4 2.032 . S
Zn3 O7 2.086 . S
Zn3 O12 1.977 . S
O4 Zn3 2.032 . S
O4 C8 1.278 . S
C5 O6 1.203 . S
C5 O12 1.267 . S
O6 C5 1.203 . S
O7 C0 1.185 . S
O7 Zn3 2.086 . S
C8 O4 1.278 . S
C8 O9 1.211 . S
O9 C8 1.211 . S
C10 O2 1.284 . S
C10 O11 1.273 . S
O11 C10 1.273 . S
O12 Zn3 1.977 . S
O12 C5 1.267 . S
C13 O14 1.160 . S
C13 O20 1.185 . S
O14 C13 1.160 . S
O15 Zn16 1.899 . S
O15 C23 1.284 . S
Zn16 O15 1.899 . S
Zn16 O17 2.032 . S
Zn16 O20 2.086 . S
Zn16 O25 1.977 . S
O17 Zn16 2.032 . S
O17 C21 1.278 . S
C18 O19 1.203 . S
C18 O25 1.267 . S
O19 C18 1.203 . S
O20 C13 1.185 . S
O20 Zn16 2.086 . S
C21 O17 1.278 . S
C21 O22 1.211 . S
O22 C21 1.211 . S
C23 O15 1.284 . S
C23 O24 1.273 . S
O24 C23 1.273 . S
O25 Zn16 1.977 . S
O25 C18 1.267 . S
C26 O27 1.160 . S
C26 O33 1.185 . S
O27 C26 1.160 . S
O28 Zn29 1.899 . S
O28 C36 1.284 . S
Zn29 O28 1.899 . S
Zn29 O30 2.032 . S
Zn29 O33 2.086 . S
Zn29 O38 1.977 . S
O30 Zn29 2.032 . S
O30 C34 1.278 . S
C31 O32 1.203 . S
C31 O38 1.267 . S
O32 C31 1.203 . S
O33 C26 1.185 . S
O33 Zn29 2.086 . S
C34 O30 1.278 . S
C34 O35 1.211 . S
O35 C34 1.211 . S
C36 O28 1.284 . S
C36 O37 1.273 . S
O37 C36 1.273 . S
O38 Zn29 1.977 . S
O38 C31 1.267 . S
C39 O40 1.160 . S
C39 O46 1.185 . S
O40 C39 1.160 . S
O41 Zn42 1.899 . S
O41 C49 1.284 . S
Zn42 O41 1.899 . S
Zn42 O43 2.032 . S
Zn42 O46 2.086 . S
Zn42 O51 1.977 . S
O43 Zn42 2.032 . S
O43 C47 1.278 . S
C44 O45 1.203 . S
C44 O51 1.267 . S
O45 C44 1.203 . S
O46 C39 1.185 . S
O46 Zn42 2.086 . S
C47 O43 1.278 . S
C47 O48 1.211 . S
O48 C47 1.211 . S
C49 O41 1.284 . S
C49 O50 1.273 . S
O50 C49 1.273 . S
O51 Zn42 1.977 . S
O51 C44 1.267 . S
C52 O53 1.160 . S
C52 O59 1.185 . S
O53 C52 1.160 . S
O54 Zn55 1.899 . S
O54 C62 1.284 . S
Zn55 O54 1.899 . S
Zn55 O56 2.032 . S
Zn55 O59 2.086 . S
Zn55 O64 1.977 . S
O56 Zn55 2.032 . S
O56 C60 1.278 . S
C57 O58 1.203 . S
C57 O64 1.267 . S
O58 C57 1.203 . S
O59 C52 1.185 . S
O59 Zn55 2.086 . S
C60 O56 1.278 . S
C60 O61 1.211 . S
O61 C60 1.211 . S
C62 O54 1.284 . S
C62 O63 1.273 . S
O63 C62 1.273 . S
O64 Zn55 1.977 . S
O64 C57 1.267 . S
C65 O66 1.160 . S
C65 O72 1.185 . S
O66 C65 1.160 . S
O67 Zn68 1.899 . S
O67 C75 1.284 . S
Zn68 O67 1.899 . S
Zn68 O69 2.032 . S
Zn68 O72 2.086 . S
Zn68 O77 1.977 . S
O69 Zn68 2.032 . S
O69 C73 1.278 . S
C70 O71 1.203 . S
C70 O77 1.267 . S
O71 C70 1.203 . S
O72 C65 1.185 . S
O72 Zn68 2.086 . S
C73 O69 1.278 . S
C73 O74 1.211 . S
O74 C73 1.211 . S
C75 O67 1.284 . S
C75 O76 1.273 . S
O76 C75 1.273 . S
O77 Zn68 1.977 . S
O77 C70 1.267 . S
C78 O79 1.160 . S
C78 O85 1.185 . S
O79 C78 1.160 . S
O80 Zn81 1.899 . S
O80 C88 1.284 . S
Zn81 O80 1.899 . S
Zn81 O82 2.032 . S
Zn81 O85 2.086 . S
Zn81 O90 1.977 . S
O82 Zn81 2.032 . S
O82 C86 1.278 . S
C83 O84 1.203 . S
C83 O90 1.267 . S
O84 C83 1.203 . S
O85 C78 1.185 . S
O85 Zn81 2.086 . S
C86 O82 1.278 . S
C86 O87 1.211 . S
O87 C86 1.211 . S
C88 O80 1.284 . S
C88 O89 1.273 . S
O89 C88 1.273 . S
O90 Zn81 1.977 . S
O90 C83 1.267 . S
C91 O92 1.160 . S
C91 O98 1.185 . S
O92 C91 1.160 . S
O93 Zn94 1.899 . S
O93 C101 1.284 . S
Zn94 O93 1.899 . S
Zn94 O95 2.032 . S
Zn94 O98 2.086 . S
Zn94 O103 1.977 . S
O95 Zn94 2.032 . S
O95 C99 1.278 . S
C96 O97 1.203 . S
C96 O103 1.267 . S
O97 C96 1.203 . S
O98 C91 1.185 . S
O98 Zn94 2.086 . S
C99 O95 1.278 . S
C99 O100 1.211 . S
O100 C99 1.211 . S
C101 O93 1.284 . S
C101 O102 1.273 . S
O102 C101 1.273 . S
O103 Zn94 1.977 . S
O103 C96 1.267 . S
C104 O105 1.160 . S
C104 O111 1.185 . S
O105 C104 1.160 . S
O106 Zn107 1.899 . S
O106 C114 1.284 . S
Zn107 O106 1.899 . S
Zn107 O108 2.032 . S
Zn107 O111 2.086 . S
Zn107 O116 1.977 . S
O108 Zn107 2.032 . S
O108 C112 1.278 . S
C109 O110 1.203 . S
C109 O116 1.267 . S
O110 C109 1.203 . S
O111 C104 1.185 . S
O111 Zn107 2.086 . S
C112 O108 1.278 . S
C112 O113 1.211 . S
O113 C112 1.211 . S
C114 O106 1.284 . S
C114 O115 1.273 . S
O115 C114 1.273 . S
O116 Zn107 1.977 . S
O116 C109 1.267 . S
C117 O118 1.160 . S
C117 O124 1.185 . S
O118 C117 1.160 . S
O119 Zn120 1.899 . S
O119 C127 1.284 . S
Zn120 O119 1.899 . S
Zn120 O121 2.032 . S
Zn120 O124 2.086 . S
Zn120 O129 1.977 . S
O121 Zn120 2.032 . S
O121 C125 1.278 . S
C122 O123 1.203 . S
C122 O129 1.267 . S
O123 C122 1.203 . S
O124 C117 1.185 . S
O124 Zn120 2.086 . S
C125 O121 1.278 . S
C125 O126 1.211 . S
O126 C125 1.211 . S
C127 O119 1.284 . S
C127 O128 1.273 . S
O128 C127 1.273 . S
O129 Zn120 1.977 . S
O129 C122 1.267 . S
C130 O131 1.160 . S
C130 O137 1.185 . S
O131 C130 1.160 . S
O132 Zn133 1.899 . S
O132 C140 1.284 . S
Zn133 O132 1.899 . S
Zn133 O134 2.032 . S
Zn133 O137 2.086 . S
Zn133 O142 1.977 . S
O134 Zn133 2.032 . S
O134 C138 1.278 . S
C135 O136 1.203 . S
C135 O142 1.267 . S
O136 C135 1.203 . S
O137 C130 1.185 . S
O137 Zn133 2.086 . S
C138 O134 1.278 . S
C138 O139 1.211 . S
O139 C138 1.211 . S
C140 O132 1.284 . S
C140 O141 1.273 . S
O141 C140 1.273 . S
O142 Zn133 1.977 . S
O142 C135 1.267 . S
C143 O144 1.160 . S
C143 O150 1.185 . S
O144 C143 1.160 . S
O145 Zn146 1.899 . S
O145 C153 1.284 . S
Zn146 O145 1.899 . S
Zn146 O147 2.032 . S
Zn146 O150 2.086 . S
Zn146 O155 1.977 . S
O147 Zn146 2.032 . S
O147 C151 1.278 . S
C148 O149 1.203 . S
C148 O155 1.267 . S
O149 C148 1.203 . S
O150 C143 1.185 . S
O150 Zn146 2.086 . S
C151 O147 1.278 . S
C151 O152 1.211 . S
O152 C151 1.211 . S
C153 O145 1.284 . S
C153 O154 1.273 . S
O154 C153 1.273 . S
O155 Zn146 1.977 . S
O155 C148 1.267 . S
C156 O157 1.160 . S
C156 O163 1.185 . S
O157 C156 1.160 . S
O158 Zn159 1.899 . S
O158 C166 1.284 . S
Zn159 O158 1.899 . S
Zn159 O160 2.032 . S
Zn159 O163 2.086 . S
Zn159 O168 1.977 . S
O160 Zn159 2.032 . S
O160 C164 1.278 . S
C161 O162 1.203 . S
C161 O168 1.267 . S
O162 C161 1.203 . S
O163 C156 1.185 . S
O163 Zn159 2.086 . S
C164 O160 1.278 . S
C164 O165 1.211 . S
O165 C164 1.211 . S
C166 O158 1.284 . S
C166 O167 1.273 . S
O167 C166 1.273 . S
O168 Zn159 1.977 . S
O168 C161 1.267 . S
C169 O170 1.160 . S
C169 O176 1.185 . S
O170 C169 1.160 . S
O171 Zn172 1.899 . S
O171 C179 1.284 . S
Zn172 O171 1.899 . S
Zn172 O173 2.032 . S
Zn172 O176 2.086 . S
Zn172 O181 1.977 . S
O173 Zn172 2.032 . S
O173 C177 1.278 . S
C174 O175 1.203 . S
C174 O181 1.267 . S
O175 C174 1.203 . S
O176 C169 1.185 . S
O176 Zn172 2.086 . S
C177 O173 1.278 . S
C177 O178 1.211 . S
O178 C177 1.211 . S
C179 O171 1.284 . S
C179 O180 1.273 . S
O180 C179 1.273 . S
O181 Zn172 1.977 . S
O181 C174 1.267 . S
C182 O183 1.160 . S
C182 O189 1.185 . S
O183 C182 1.160 . S
O184 Zn185 1.899 . S
O184 C192 1.284 . S
Zn185 O184 1.899 . S
Zn185 O186 2.032 . S
Zn185 O189 2.086 . S
Zn185 O194 1.977 . S
O186 Zn185 2.032 . S
O186 C190 1.278 . S
C187 O188 1.203 . S
C187 O194 1.267 . S
O188 C187 1.203 . S
O189 C182 1.185 . S
O189 Zn185 2.086 . S
C190 O186 1.278 . S
C190 O191 1.211 . S
O191 C190 1.211 . S
C192 O184 1.284 . S
C192 O193 1.273 . S
O193 C192 1.273 . S
O194 Zn185 1.977 . S
O194 C187 1.267 . S
C195 O196 1.160 . S
C195 O202 1.185 . S
O196 C195 1.160 . S
O197 Zn198 1.899 . S
O197 C205 1.284 . S
Zn198 O197 1.899 . S
Zn198 O199 2.032 . S
Zn198 O202 2.086 . S
Zn198 O207 1.977 . S
O199 Zn198 2.032 . S
O199 C203 1.278 . S
C200 O201 1.203 . S
C200 O207 1.267 . S
O201 C200 1.203 . S
O202 C195 1.185 . S
O202 Zn198 2.086 . S
C203 O199 1.278 . S
C203 O204 1.211 . S
O204 C203 1.211 . S
C205 O197 1.284 . S
C205 O206 1.273 . S
O206 C205 1.273 . S
O207 Zn198 1.977 . S
O207 C200 1.267 . S
C208 O209 1.160 . S
C208 O215 1.185 . S
O209 C208 1.160 . S
O210 Zn211 1.899 . S
O210 C218 1.284 . S
Zn211 O210 1.899 . S
Zn211 O212 2.032 . S
Zn211 O215 2.086 . S
Zn211 O220 1.977 . S
O212 Zn211 2.032 . S
O212 C216 1.278 . S
C213 O214 1.203 . S
C213 O220 1.267 . S
O214 C213 1.203 . S
O215 C208 1.185 . S
O215 Zn211 2.086 . S
C216 O212 1.278 . S
C216 O217 1.211 . S
O217 C216 1.211 . S
C218 O210 1.284 . S
C218 O219 1.273 . S
O219 C218 1.273 . S
O220 Zn211 1.977 . S
O220 C213 1.267 . S
C221 O222 1.160 . S
C221 O228 1.185 . S
O222 C221 1.160 . S
O223 Zn224 1.899 . S
O223 C231 1.284 . S
Zn224 O223 1.899 . S
Zn224 O225 2.032 . S
Zn224 O228 2.086 . S
Zn224 O233 1.977 . S
O225 Zn224 2.032 . S
O225 C229 1.278 . S
C226 O227 1.203 . S
C226 O233 1.267 . S
O227 C226 1.203 . S
O228 C221 1.185 . S
O228 Zn224 2.086 . S
C229 O225 1.278 . S
C229 O230 1.211 . S
O230 C229 1.211 . S
C231 O223 1.284 . S
C231 O232 1.273 . S
O232 C231 1.273 . S
O233 Zn224 1.977 . S
O233 C226 1.267 . S
C234 O235 1.160 . S
C234 O241 1.185 . S
O235 C234 1.160 . S
O236 Zn237 1.899 . S
O236 C244 1.284 . S
Zn237 O236 1.899 . S
Zn237 O238 2.032 . S
Zn237 O241 2.086 . S
Zn237 O246 1.977 . S
O238 Zn237 2.032 . S
O238 C242 1.278 . S
C239 O240 1.203 . S
C239 O246 1.267 . S
O240 C239 1.203 . S
O241 C234 1.185 . S
O241 Zn237 2.086 . S
C242 O238 1.278 . S
C242 O243 1.211 . S
O243 C242 1.211 . S
C244 O236 1.284 . S
C244 O245 1.273 . S
O245 C244 1.273 . S
O246 Zn237 1.977 . S
O246 C239 1.267 . S
C247 O248 1.160 . S
C247 O254 1.185 . S
O248 C247 1.160 . S
O249 Zn250 1.899 . S
O249 C257 1.284 . S
Zn250 O249 1.899 . S
Zn250 O251 2.032 . S
Zn250 O254 2.086 . S
Zn250 O259 1.977 . S
O251 Zn250 2.032 . S
O251 C255 1.278 . S
C252 O253 1.203 . S
C252 O259 1.267 . S
O253 C252 1.203 . S
O254 C247 1.185 . S
O254 Zn250 2.086 . S
C255 O251 1.278 . S
C255 O256 1.211 . S
O256 C255 1.211 . S
C257 O249 1.284 . S
C257 O258 1.273 . S
O258 C257 1.273 . S
O259 Zn250 1.977 . S
O259 C252 1.267 . S
C260 O261 1.160 . S
C260 O267 1.185 . S
O261 C260 1.160 . S
O262 Zn263 1.899 . S
O262 C270 1.284 . S
Zn263 O262 1.899 . S
Zn263 O264 2.032 . S
Zn263 O267 2.086 . S
Zn263 O272 1.977 . S
O264 Zn263 2.032 . S
O264 C268 1.278 . S
C265 O266 1.203 . S
C265 O272 1.267 . S
O266 C265 1.203 . S
O267 C260 1.185 . S
O267 Zn263 2.086 . S
C268 O264 1.278 . S
C268 O269 1.211 . S
O269 C268 1.211 . S
C270 O262 1.284 . S
C270 O271 1.273 . S
O271 C270 1.273 . S
O272 Zn263 1.977 . S
O272 C265 1.267 . S
C273 O274 1.160 . S
C273 O280 1.185 . S
O274 C273 1.160 . S
O275 Zn276 1.899 1_556 S
O275 C283 1.284 . S
Zn276 O275 1.899 1_554 S
Zn276 O277 2.032 . S
Zn276 O280 2.086 . S
Zn276 O285 1.977 . S
O277 Zn276 2.032 . S
O277 C281 1.278 . S
C278 O279 1.203 1_554 S
C278 O285 1.267 . S
O279 C278 1.203 1_556 S
O280 C273 1.185 . S
O280 Zn276 2.086 . S
C281 O277 1.278 . S
C281 O282 1.211 . S
O282 C281 1.211 . S
C283 O275 1.284 . S
C283 O284 1.273 . S
O284 C283 1.273 . S
O285 Zn276 1.977 . S
O285 C278 1.267 . S
C286 O287 1.160 . S
C286 O293 1.185 . S
O287 C286 1.160 . S
O288 Zn289 1.899 1_556 S
O288 C296 1.284 . S
Zn289 O288 1.899 1_554 S
Zn289 O290 2.032 . S
Zn289 O293 2.086 . S
Zn289 O298 1.977 . S
O290 Zn289 2.032 . S
O290 C294 1.278 . S
C291 O292 1.203 1_554 S
C291 O298 1.267 . S
O292 C291 1.203 1_556 S
O293 C286 1.185 . S
O293 Zn289 2.086 . S
C294 O290 1.278 . S
C294 O295 1.211 . S
O295 C294 1.211 . S
C296 O288 1.284 . S
C296 O297 1.273 . S
O297 C296 1.273 . S
O298 Zn289 1.977 . S
O298 C291 1.267 . S
C299 O300 1.160 . S
C299 O306 1.185 . S
O300 C299 1.160 . S
O301 Zn302 1.899 1_556 S
O301 C309 1.284 . S
Zn302 O301 1.899 1_554 S
Zn302 O303 2.032 . S
Zn302 O306 2.086 . S
Zn302 O311 1.977 . S
O303 Zn302 2.032 . S
O303 C307 1.278 . S
C304 O305 1.203 1_554 S
C304 O311 1.267 . S
O305 C304 1.203 1_556 S
O306 C299 1.185 . S
O306 Zn302 2.086 . S
C307 O303 1.278 . S
C307 O308 1.211 . S
O308 C307 1.211 . S
C309 O301 1.284 . S
C309 O310 1.273 . S
O310 C309 1.273 . S
O311 Zn302 1.977 . S
O311 C304 1.267 . S
C312 O313 1.160 . S
C312 O319 1.185 . S
O313 C312 1.160 . S
O314 Zn315 1.899 . S
O314 C322 1.284 . S
Zn315 O314 1.899 . S
Zn315 O316 2.032 . S
Zn315 O319 2.086 . S
Zn315 O324 1.977 . S
O316 Zn315 2.032 . S
O316 C320 1.278 . S
C317 O318 1.203 . S
C317 O324 1.267 . S
O318 C317 1.203 . S
O319 C312 1.185 . S
O319 Zn315 2.086 . S
C320 O316 1.278 . S
C320 O321 1.211 . S
O321 C320 1.211 . S
C322 O314 1.284 . S
C322 O323 1.273 . S
O323 C322 1.273 . S
O324 Zn315 1.977 . S
O324 C317 1.267 . S
C325 O326 1.160 . S
C325 O332 1.185 . S
O326 C325 1.160 . S
O327 Zn328 1.899 . S
O327 C335 1.284 . S
Zn328 O327 1.899 . S
Zn328 O329 2.032 . S
Zn328 O332 2.086 . S
Zn328 O337 1.977 . S
O329 Zn328 2.032 . S
O329 C333 1.278 . S
C330 O331 1.203 . S
C330 O337 1.267 . S
O331 C330 1.203 . S
O332 C325 1.185 . S
O332 Zn328 2.086 . S
C333 O329 1.278 . S
C333 O334 1.211 . S
O334 C333 1.211 . S
C335 O327 1.284 . S
C335 O336 1.273 . S
O336 C335 1.273 . S
O337 Zn328 1.977 . S
O337 C330 1.267 . S
C338 O339 1.160 . S
C338 O345 1.185 . S
O339 C338 1.160 . S
O340 Zn341 1.899 . S
O340 C348 1.284 . S
Zn341 O340 1.899 . S
Zn341 O342 2.032 . S
Zn341 O345 2.086 . S
Zn341 O350 1.977 . S
O342 Zn341 2.032 . S
O342 C346 1.278 . S
C343 O344 1.203 . S
C343 O350 1.267 . S
O344 C343 1.203 . S
O345 C338 1.185 . S
O345 Zn341 2.086 . S
C346 O342 1.278 . S
C346 O347 1.211 . S
O347 C346 1.211 . S
C348 O340 1.284 . S
C348 O349 1.273 . S
O349 C348 1.273 . S
O350 Zn341 1.977 . S
O350 C343 1.267 . S
C351 O352 1.160 . S
C351 O358 1.185 . S
O352 C351 1.160 . S
O353 Zn354 1.899 1_554 S
O353 C361 1.284 . S
Zn354 O353 1.899 1_556 S
Zn354 O355 2.032 . S
Zn354 O358 2.086 . S
Zn354 O363 1.977 . S
O355 Zn354 2.032 . S
O355 C359 1.278 . S
C356 O357 1.203 1_556 S
C356 O363 1.267 . S
O357 C356 1.203 1_554 S
O358 C351 1.185 . S
O358 Zn354 2.086 . S
C359 O355 1.278 . S
C359 O360 1.211 . S
O360 C359 1.211 . S
C361 O353 1.284 . S
C361 O362 1.273 . S
O362 C361 1.273 . S
O363 Zn354 1.977 . S
O363 C356 1.267 . S
C364 O365 1.160 . S
C364 O371 1.185 . S
O365 C364 1.160 . S
O366 Zn367 1.899 1_554 S
O366 C374 1.284 . S
Zn367 O366 1.899 1_556 S
Zn367 O368 2.032 . S
Zn367 O371 2.086 . S
Zn367 O376 1.977 . S
O368 Zn367 2.032 . S
O368 C372 1.278 . S
C369 O370 1.203 1_556 S
C369 O376 1.267 . S
O370 C369 1.203 1_554 S
O371 C364 1.185 . S
O371 Zn367 2.086 . S
C372 O368 1.278 . S
C372 O373 1.211 . S
O373 C372 1.211 . S
C374 O366 1.284 . S
C374 O375 1.273 . S
O375 C374 1.273 . S
O376 Zn367 1.977 . S
O376 C369 1.267 . S
C377 O378 1.160 . S
C377 O384 1.185 . S
O378 C377 1.160 . S
O379 Zn380 1.899 1_554 S
O379 C387 1.284 . S
Zn380 O379 1.899 1_556 S
Zn380 O381 2.032 . S
Zn380 O384 2.086 . S
Zn380 O389 1.977 . S
O381 Zn380 2.032 . S
O381 C385 1.278 . S
C382 O383 1.203 1_556 S
C382 O389 1.267 . S
O383 C382 1.203 1_554 S
O384 C377 1.185 . S
O384 Zn380 2.086 . S
C385 O381 1.278 . S
C385 O386 1.211 . S
O386 C385 1.211 . S
C387 O379 1.284 . S
C387 O388 1.273 . S
O388 C387 1.273 . S
O389 Zn380 1.977 . S
O389 C382 1.267 . S
C390 O391 1.160 . S
C390 O397 1.185 . S
O391 C390 1.160 . S
O392 Zn393 1.899 . S
O392 C400 1.284 . S
Zn393 O392 1.899 . S
Zn393 O394 2.032 . S
Zn393 O397 2.086 . S
Zn393 O402 1.977 . S
O394 Zn393 2.032 . S
O394 C398 1.278 . S
C395 O396 1.203 . S
C395 O402 1.267 . S
O396 C395 1.203 . S
O397 C390 1.185 . S
O397 Zn393 2.086 . S
C398 O394 1.278 . S
C398 O399 1.211 . S
O399 C398 1.211 . S
C400 O392 1.284 . S
C400 O401 1.273 . S
O401 C400 1.273 . S
O402 Zn393 1.977 . S
O402 C395 1.267 . S
C403 O404 1.160 . S
C403 O410 1.185 . S
O404 C403 1.160 . S
O405 Zn406 1.899 . S
O405 C413 1.284 . S
Zn406 O405 1.899 . S
Zn406 O407 2.032 . S
Zn406 O410 2.086 . S
Zn406 O415 1.977 . S
O407 Zn406 2.032 . S
O407 C411 1.278 . S
C408 O409 1.203 . S
C408 O415 1.267 . S
O409 C408 1.203 . S
O410 C403 1.185 . S
O410 Zn406 2.086 . S
C411 O407 1.278 . S
C411 O412 1.211 . S
O412 C411 1.211 . S
C413 O405 1.284 . S
C413 O414 1.273 . S
O414 C413 1.273 . S
O415 Zn406 1.977 . S
O415 C408 1.267 . S
C416 O417 1.160 . S
C416 O423 1.185 . S
O417 C416 1.160 . S
O418 Zn419 1.899 . S
O418 C426 1.284 . S
Zn419 O418 1.899 . S
Zn419 O420 2.032 . S
Zn419 O423 2.086 . S
Zn419 O428 1.977 . S
O420 Zn419 2.032 . S
O420 C424 1.278 . S
C421 O422 1.203 . S
C421 O428 1.267 . S
O422 C421 1.203 . S
O423 C416 1.185 . S
O423 Zn419 2.086 . S
C424 O420 1.278 . S
C424 O425 1.211 . S
O425 C424 1.211 . S
C426 O418 1.284 . S
C426 O427 1.273 . S
O427 C426 1.273 . S
O428 Zn419 1.977 . S
O428 C421 1.267 . S
C429 O430 1.160 . S
C429 O436 1.185 . S
O430 C429 1.160 . S
O431 Zn432 1.899 . S
O431 C439 1.284 . S
Zn432 O431 1.899 . S
Zn432 O433 2.032 . S
Zn432 O436 2.086 . S
Zn432 O441 1.977 . S
O433 Zn432 2.032 . S
O433 C437 1.278 . S
C434 O435 1.203 . S
C434 O441 1.267 . S
O435 C434 1.203 . S
O436 C429 1.185 . S
O436 Zn432 2.086 . S
C437 O433 1.278 . S
C437 O438 1.211 . S
O438 C437 1.211 . S
C439 O431 1.284 . S
C439 O440 1.273 . S
O440 C439 1.273 . S
O441 Zn432 1.977 . S
O441 C434 1.267 . S
C442 O443 1.160 . S
C442 O449 1.185 . S
O443 C442 1.160 . S
O444 Zn445 1.899 . S
O444 C452 1.284 . S
Zn445 O444 1.899 . S
Zn445 O446 2.032 . S
Zn445 O449 2.086 . S
Zn445 O454 1.977 . S
O446 Zn445 2.032 . S
O446 C450 1.278 . S
C447 O448 1.203 . S
C447 O454 1.267 . S
O448 C447 1.203 . S
O449 C442 1.185 . S
O449 Zn445 2.086 . S
C450 O446 1.278 . S
C450 O451 1.211 . S
O451 C450 1.211 . S
C452 O444 1.284 . S
C452 O453 1.273 . S
O453 C452 1.273 . S
O454 Zn445 1.977 . S
O454 C447 1.267 . S
C455 O456 1.160 . S
C455 O462 1.185 . S
O456 C455 1.160 . S
O457 Zn458 1.899 . S
O457 C465 1.284 . S
Zn458 O457 1.899 . S
Zn458 O459 2.032 . S
Zn458 O462 2.086 . S
Zn458 O467 1.977 . S
O459 Zn458 2.032 . S
O459 C463 1.278 . S
C460 O461 1.203 . S
C460 O467 1.267 . S
O461 C460 1.203 . S
O462 C455 1.185 . S
O462 Zn458 2.086 . S
C463 O459 1.278 . S
C463 O464 1.211 . S
O464 C463 1.211 . S
C465 O457 1.284 . S
C465 O466 1.273 . S
O466 C465 1.273 . S
O467 Zn458 1.977 . S
O467 C460 1.267 . S
C468 C469 1.369 . S
C468 C470 1.419 . S
C468 H472 0.930 . S
C469 C468 1.369 . S
C469 C478 1.429 . S
C470 C468 1.419 . S
C470 C471 1.363 1_556 S
C470 H473 0.929 1_556 S
C471 C470 1.363 1_554 S
C471 C477 1.428 1_554 S
H472 C468 0.930 . S
H473 C470 0.929 1_554 S
S474 N475 1.613 . S
S474 N476 1.610 1_556 S
N475 S474 1.613 . S
N475 C478 1.350 . S
N476 S474 1.610 1_554 S
N476 C477 1.351 1_554 S
C477 C471 1.428 1_556 S
C477 N476 1.351 1_556 S
C477 C478 1.434 . S
C478 C469 1.429 . S
C478 N475 1.350 . S
C478 C477 1.434 . S
C479 C480 1.369 . S
C479 C481 1.419 . S
C479 H483 0.930 . S
C480 C479 1.369 . S
C480 C489 1.429 . S
C481 C479 1.419 . S
C481 C482 1.363 1_556 S
C481 H484 0.929 1_556 S
C482 C481 1.363 1_554 S
C482 C488 1.428 1_554 S
H483 C479 0.930 . S
H484 C481 0.929 1_554 S
S485 N486 1.613 . S
S485 N487 1.610 1_556 S
N486 S485 1.613 . S
N486 C489 1.350 . S
N487 S485 1.610 1_554 S
N487 C488 1.351 1_554 S
C488 C482 1.428 1_556 S
C488 N487 1.351 1_556 S
C488 C489 1.434 . S
C489 C480 1.429 . S
C489 N486 1.350 . S
C489 C488 1.434 . S
C490 C491 1.369 1_556 S
C490 C492 1.419 . S
C490 H494 0.930 1_556 S
C491 C490 1.369 1_554 S
C491 C500 1.429 1_554 S
C492 C490 1.419 . S
C492 C493 1.363 . S
C492 H495 0.929 . S
C493 C492 1.363 . S
C493 C499 1.428 . S
H494 C490 0.930 1_554 S
H495 C492 0.929 . S
S496 N497 1.613 1_556 S
S496 N498 1.610 . S
N497 S496 1.613 1_554 S
N497 C500 1.350 1_554 S
N498 S496 1.610 . S
N498 C499 1.351 . S
C499 C493 1.428 . S
C499 N498 1.351 . S
C499 C500 1.434 . S
C500 C491 1.429 1_556 S
C500 N497 1.350 1_556 S
C500 C499 1.434 . S
C501 C502 1.369 . S
C501 C503 1.419 . S
C501 H505 0.930 . S
C502 C501 1.369 . S
C502 C511 1.429 . S
C503 C501 1.419 . S
C503 C504 1.363 . S
C503 H506 0.929 . S
C504 C503 1.363 . S
C504 C510 1.428 . S
H505 C501 0.930 . S
H506 C503 0.929 . S
S507 N508 1.613 . S
S507 N509 1.610 . S
N508 S507 1.613 . S
N508 C511 1.350 . S
N509 S507 1.610 . S
N509 C510 1.351 . S
C510 C504 1.428 . S
C510 N509 1.351 . S
C510 C511 1.434 . S
C511 C502 1.429 . S
C511 N508 1.350 . S
C511 C510 1.434 . S
C512 C513 1.369 . S
C512 C514 1.419 . S
C512 H516 0.930 . S
C513 C512 1.369 . S
C513 C522 1.429 . S
C514 C512 1.419 . S
C514 C515 1.363 . S
C514 H517 0.929 . S
C515 C514 1.363 . S
C515 C521 1.428 . S
H516 C512 0.930 . S
H517 C514 0.929 . S
S518 N519 1.613 . S
S518 N520 1.610 . S
N519 S518 1.613 . S
N519 C522 1.350 . S
N520 S518 1.610 . S
N520 C521 1.351 . S
C521 C515 1.428 . S
C521 N520 1.351 . S
C521 C522 1.434 . S
C522 C513 1.429 . S
C522 N519 1.350 . S
C522 C521 1.434 . S
C523 C524 1.369 . S
C523 C525 1.419 . S
C523 H527 0.930 . S
C524 C523 1.369 . S
C524 C533 1.429 . S
C525 C523 1.419 . S
C525 C526 1.363 . S
C525 H528 0.929 . S
C526 C525 1.363 . S
C526 C532 1.428 . S
H527 C523 0.930 . S
H528 C525 0.929 . S
S529 N530 1.613 . S
S529 N531 1.610 . S
N530 S529 1.613 . S
N530 C533 1.350 . S
N531 S529 1.610 . S
N531 C532 1.351 . S
C532 C526 1.428 . S
C532 N531 1.351 . S
C532 C533 1.434 . S
C533 C524 1.429 . S
C533 N530 1.350 . S
C533 C532 1.434 . S
C534 C535 1.369 . S
C534 C536 1.419 . S
C534 H538 0.930 . S
C535 C534 1.369 . S
C535 C544 1.429 . S
C536 C534 1.419 . S
C536 C537 1.363 1_554 S
C536 H539 0.929 1_554 S
C537 C536 1.363 1_556 S
C537 C543 1.428 1_556 S
H538 C534 0.930 . S
H539 C536 0.929 1_556 S
S540 N541 1.613 . S
S540 N542 1.610 1_554 S
N541 S540 1.613 . S
N541 C544 1.350 . S
N542 S540 1.610 1_556 S
N542 C543 1.351 1_556 S
C543 C537 1.428 1_554 S
C543 N542 1.351 1_554 S
C543 C544 1.434 . S
C544 C535 1.429 . S
C544 N541 1.350 . S
C544 C543 1.434 . S
C545 C546 1.369 . S
C545 C547 1.419 . S
C545 H549 0.930 . S
C546 C545 1.369 . S
C546 C555 1.429 . S
C547 C545 1.419 . S
C547 C548 1.363 1_554 S
C547 H550 0.929 1_554 S
C548 C547 1.363 1_556 S
C548 C554 1.428 1_556 S
H549 C545 0.930 . S
H550 C547 0.929 1_556 S
S551 N552 1.613 . S
S551 N553 1.610 1_554 S
N552 S551 1.613 . S
N552 C555 1.350 . S
N553 S551 1.610 1_556 S
N553 C554 1.351 1_556 S
C554 C548 1.428 1_554 S
C554 N553 1.351 1_554 S
C554 C555 1.434 . S
C555 C546 1.429 . S
C555 N552 1.350 . S
C555 C554 1.434 . S
C556 C557 1.369 1_554 S
C556 C558 1.419 . S
C556 H560 0.930 1_554 S
C557 C556 1.369 1_556 S
C557 C566 1.429 1_556 S
C558 C556 1.419 . S
C558 C559 1.363 . S
C558 H561 0.929 . S
C559 C558 1.363 . S
C559 C565 1.428 . S
H560 C556 0.930 1_556 S
H561 C558 0.929 . S
S562 N563 1.613 1_554 S
S562 N564 1.610 . S
N563 S562 1.613 1_556 S
N563 C566 1.350 1_556 S
N564 S562 1.610 . S
N564 C565 1.351 . S
C565 C559 1.428 . S
C565 N564 1.351 . S
C565 C566 1.434 . S
C566 C557 1.429 1_554 S
C566 N563 1.350 1_554 S
C566 C565 1.434 . S
C567 C568 1.369 . S
C567 C569 1.419 . S
C567 H571 0.930 . S
C568 C567 1.369 . S
C568 C577 1.429 . S
C569 C567 1.419 . S
C569 C570 1.363 . S
C569 H572 0.929 . S
C570 C569 1.363 . S
C570 C576 1.428 . S
H571 C567 0.930 . S
H572 C569 0.929 . S
S573 N574 1.613 . S
S573 N575 1.610 . S
N574 S573 1.613 . S
N574 C577 1.350 . S
N575 S573 1.610 . S
N575 C576 1.351 . S
C576 C570 1.428 . S
C576 N575 1.351 . S
C576 C577 1.434 . S
C577 C568 1.429 . S
C577 N574 1.350 . S
C577 C576 1.434 . S
C578 C579 1.369 . S
C578 C580 1.419 . S
C578 H582 0.930 . S
C579 C578 1.369 . S
C579 C588 1.429 . S
C580 C578 1.419 . S
C580 C581 1.363 . S
C580 H583 0.929 . S
C581 C580 1.363 . S
C581 C587 1.428 . S
H582 C578 0.930 . S
H583 C580 0.929 . S
S584 N585 1.613 . S
S584 N586 1.610 . S
N585 S584 1.613 . S
N585 C588 1.350 . S
N586 S584 1.610 . S
N586 C587 1.351 . S
C587 C581 1.428 . S
C587 N586 1.351 . S
C587 C588 1.434 . S
C588 C579 1.429 . S
C588 N585 1.350 . S
C588 C587 1.434 . S
C589 C590 1.369 . S
C589 C591 1.419 . S
C589 H593 0.930 . S
C590 C589 1.369 . S
C590 C599 1.429 . S
C591 C589 1.419 . S
C591 C592 1.363 . S
C591 H594 0.929 . S
C592 C591 1.363 . S
C592 C598 1.428 . S
H593 C589 0.930 . S
H594 C591 0.929 . S
S595 N596 1.613 . S
S595 N597 1.610 . S
N596 S595 1.613 . S
N596 C599 1.350 . S
N597 S595 1.610 . S
N597 C598 1.351 . S
C598 C592 1.428 . S
C598 N597 1.351 . S
C598 C599 1.434 . S
C599 C590 1.429 . S
C599 N596 1.350 . S
C599 C598 1.434 . S
C600 C601 1.369 . S
C600 C602 1.419 . S
C600 H604 0.930 . S
C601 C600 1.369 . S
C601 C610 1.429 . S
C602 C600 1.419 . S
C602 C603 1.363 . S
C602 H605 0.929 . S
C603 C602 1.363 . S
C603 C609 1.428 . S
H604 C600 0.930 . S
H605 C602 0.929 . S
S606 N607 1.613 . S
S606 N608 1.610 . S
N607 S606 1.613 . S
N607 C610 1.350 . S
N608 S606 1.610 . S
N608 C609 1.351 . S
C609 C603 1.428 . S
C609 N608 1.351 . S
C609 C610 1.434 . S
C610 C601 1.429 . S
C610 N607 1.350 . S
C610 C609 1.434 . S
C611 C612 1.369 . S
C611 C613 1.419 . S
C611 H615 0.930 . S
C612 C611 1.369 . S
C612 C621 1.429 . S
C613 C611 1.419 . S
C613 C614 1.363 . S
C613 H616 0.929 . S
C614 C613 1.363 . S
C614 C620 1.428 . S
H615 C611 0.930 . S
H616 C613 0.929 . S
S617 N618 1.613 . S
S617 N619 1.610 . S
N618 S617 1.613 . S
N618 C621 1.350 . S
N619 S617 1.610 . S
N619 C620 1.351 . S
C620 C614 1.428 . S
C620 N619 1.351 . S
C620 C621 1.434 . S
C621 C612 1.429 . S
C621 N618 1.350 . S
C621 C620 1.434 . S
C622 C623 1.369 . S
C622 C624 1.419 . S
C622 H626 0.930 . S
C623 C622 1.369 . S
C623 C632 1.429 . S
C624 C622 1.419 . S
C624 C625 1.363 . S
C624 H627 0.929 . S
C625 C624 1.363 . S
C625 C631 1.428 . S
H626 C622 0.930 . S
H627 C624 0.929 . S
S628 N629 1.613 . S
S628 N630 1.610 . S
N629 S628 1.613 . S
N629 C632 1.350 . S
N630 S628 1.610 . S
N630 C631 1.351 . S
C631 C625 1.428 . S
C631 N630 1.351 . S
C631 C632 1.434 . S
C632 C623 1.429 . S
C632 N629 1.350 . S
C632 C631 1.434 . S
C633 C634 1.369 . S
C633 C635 1.419 . S
C633 H637 0.930 . S
C634 C633 1.369 . S
C634 C643 1.429 . S
C635 C633 1.419 . S
C635 C636 1.363 . S
C635 H638 0.929 . S
C636 C635 1.363 . S
C636 C642 1.428 . S
H637 C633 0.930 . S
H638 C635 0.929 . S
S639 N640 1.613 . S
S639 N641 1.610 . S
N640 S639 1.613 . S
N640 C643 1.350 . S
N641 S639 1.610 . S
N641 C642 1.351 . S
C642 C636 1.428 . S
C642 N641 1.351 . S
C642 C643 1.434 . S
C643 C634 1.429 . S
C643 N640 1.350 . S
C643 C642 1.434 . S
C644 C645 1.369 . S
C644 C646 1.419 . S
C644 H648 0.930 . S
C645 C644 1.369 . S
C645 C654 1.429 . S
C646 C644 1.419 . S
C646 C647 1.363 . S
C646 H649 0.929 . S
C647 C646 1.363 . S
C647 C653 1.428 . S
H648 C644 0.930 . S
H649 C646 0.929 . S
S650 N651 1.613 . S
S650 N652 1.610 . S
N651 S650 1.613 . S
N651 C654 1.350 . S
N652 S650 1.610 . S
N652 C653 1.351 . S
C653 C647 1.428 . S
C653 N652 1.351 . S
C653 C654 1.434 . S
C654 C645 1.429 . S
C654 N651 1.350 . S
C654 C653 1.434 . S
C655 C656 1.369 . S
C655 C657 1.419 . S
C655 H659 0.930 . S
C656 C655 1.369 . S
C656 C665 1.429 . S
C657 C655 1.419 . S
C657 C658 1.363 . S
C657 H660 0.929 . S
C658 C657 1.363 . S
C658 C664 1.428 . S
H659 C655 0.930 . S
H660 C657 0.929 . S
S661 N662 1.613 . S
S661 N663 1.610 . S
N662 S661 1.613 . S
N662 C665 1.350 . S
N663 S661 1.610 . S
N663 C664 1.351 . S
C664 C658 1.428 . S
C664 N663 1.351 . S
C664 C665 1.434 . S
C665 C656 1.429 . S
C665 N662 1.350 . S
C665 C664 1.434 . S
C666 C667 1.369 . S
C666 C668 1.419 . S
C666 H670 0.930 . S
C667 C666 1.369 . S
C667 C676 1.429 . S
C668 C666 1.419 . S
C668 C669 1.363 . S
C668 H671 0.929 . S
C669 C668 1.363 . S
C669 C675 1.428 . S
H670 C666 0.930 . S
H671 C668 0.929 . S
S672 N673 1.613 . S
S672 N674 1.610 . S
N673 S672 1.613 . S
N673 C676 1.350 . S
N674 S672 1.610 . S
N674 C675 1.351 . S
C675 C669 1.428 . S
C675 N674 1.351 . S
C675 C676 1.434 . S
C676 C667 1.429 . S
C676 N673 1.350 . S
C676 C675 1.434 . S
C677 C678 1.369 . S
C677 C679 1.419 . S
C677 H681 0.930 . S
C678 C677 1.369 . S
C678 C687 1.429 . S
C679 C677 1.419 . S
C679 C680 1.363 . S
C679 H682 0.929 . S
C680 C679 1.363 . S
C680 C686 1.428 . S
H681 C677 0.930 . S
H682 C679 0.929 . S
S683 N684 1.613 . S
S683 N685 1.610 . S
N684 S683 1.613 . S
N684 C687 1.350 . S
N685 S683 1.610 . S
N685 C686 1.351 . S
C686 C680 1.428 . S
C686 N685 1.351 . S
C686 C687 1.434 . S
C687 C678 1.429 . S
C687 N684 1.350 . S
C687 C686 1.434 . S
C688 C689 1.369 . S
C688 C690 1.419 . S
C688 H692 0.930 . S
C689 C688 1.369 . S
C689 C698 1.429 . S
C690 C688 1.419 . S
C690 C691 1.363 . S
C690 H693 0.929 . S
C691 C690 1.363 . S
C691 C697 1.428 . S
H692 C688 0.930 . S
H693 C690 0.929 . S
S694 N695 1.613 . S
S694 N696 1.610 . S
N695 S694 1.613 . S
N695 C698 1.350 . S
N696 S694 1.610 . S
N696 C697 1.351 . S
C697 C691 1.428 . S
C697 N696 1.351 . S
C697 C698 1.434 . S
C698 C689 1.429 . S
C698 N695 1.350 . S
C698 C697 1.434 . S
C699 C700 1.369 . S
C699 C701 1.419 . S
C699 H703 0.930 . S
C700 C699 1.369 . S
C700 C709 1.429 . S
C701 C699 1.419 . S
C701 C702 1.363 . S
C701 H704 0.929 . S
C702 C701 1.363 . S
C702 C708 1.428 . S
H703 C699 0.930 . S
H704 C701 0.929 . S
S705 N706 1.613 . S
S705 N707 1.610 . S
N706 S705 1.613 . S
N706 C709 1.350 . S
N707 S705 1.610 . S
N707 C708 1.351 . S
C708 C702 1.428 . S
C708 N707 1.351 . S
C708 C709 1.434 . S
C709 C700 1.429 . S
C709 N706 1.350 . S
C709 C708 1.434 . S
C710 C711 1.369 . S
C710 C712 1.419 . S
C710 H714 0.930 . S
C711 C710 1.369 . S
C711 C720 1.429 . S
C712 C710 1.419 . S
C712 C713 1.363 . S
C712 H715 0.929 . S
C713 C712 1.363 . S
C713 C719 1.428 . S
H714 C710 0.930 . S
H715 C712 0.929 . S
S716 N717 1.613 . S
S716 N718 1.610 . S
N717 S716 1.613 . S
N717 C720 1.350 . S
N718 S716 1.610 . S
N718 C719 1.351 . S
C719 C713 1.428 . S
C719 N718 1.351 . S
C719 C720 1.434 . S
C720 C711 1.429 . S
C720 N717 1.350 . S
C720 C719 1.434 . S
C721 C722 1.369 . S
C721 C723 1.419 . S
C721 H725 0.930 . S
C722 C721 1.369 . S
C722 C731 1.429 . S
C723 C721 1.419 . S
C723 C724 1.363 . S
C723 H726 0.929 . S
C724 C723 1.363 . S
C724 C730 1.428 . S
H725 C721 0.930 . S
H726 C723 0.929 . S
S727 N728 1.613 . S
S727 N729 1.610 . S
N728 S727 1.613 . S
N728 C731 1.350 . S
N729 S727 1.610 . S
N729 C730 1.351 . S
C730 C724 1.428 . S
C730 N729 1.351 . S
C730 C731 1.434 . S
C731 C722 1.429 . S
C731 N728 1.350 . S
C731 C730 1.434 . S
C732 C733 1.369 . S
C732 C734 1.419 . S
C732 H736 0.930 . S
C733 C732 1.369 . S
C733 C742 1.429 . S
C734 C732 1.419 . S
C734 C735 1.363 . S
C734 H737 0.929 . S
C735 C734 1.363 . S
C735 C741 1.428 . S
H736 C732 0.930 . S
H737 C734 0.929 . S
S738 N739 1.613 . S
S738 N740 1.610 . S
N739 S738 1.613 . S
N739 C742 1.350 . S
N740 S738 1.610 . S
N740 C741 1.351 . S
C741 C735 1.428 . S
C741 N740 1.351 . S
C741 C742 1.434 . S
C742 C733 1.429 . S
C742 N739 1.350 . S
C742 C741 1.434 . S
C743 C744 1.369 . S
C743 C745 1.419 . S
C743 H747 0.930 . S
C744 C743 1.369 . S
C744 C753 1.429 . S
C745 C743 1.419 . S
C745 C746 1.363 . S
C745 H748 0.929 . S
C746 C745 1.363 . S
C746 C752 1.428 . S
H747 C743 0.930 . S
H748 C745 0.929 . S
S749 N750 1.613 . S
S749 N751 1.610 . S
N750 S749 1.613 . S
N750 C753 1.350 . S
N751 S749 1.610 . S
N751 C752 1.351 . S
C752 C746 1.428 . S
C752 N751 1.351 . S
C752 C753 1.434 . S
C753 C744 1.429 . S
C753 N750 1.350 . S
C753 C752 1.434 . S
C754 C755 1.369 . S
C754 C756 1.419 . S
C754 H758 0.930 . S
C755 C754 1.369 . S
C755 C764 1.429 . S
C756 C754 1.419 . S
C756 C757 1.363 . S
C756 H759 0.929 . S
C757 C756 1.363 . S
C757 C763 1.428 . S
H758 C754 0.930 . S
H759 C756 0.929 . S
S760 N761 1.613 . S
S760 N762 1.610 . S
N761 S760 1.613 . S
N761 C764 1.350 . S
N762 S760 1.610 . S
N762 C763 1.351 . S
C763 C757 1.428 . S
C763 N762 1.351 . S
C763 C764 1.434 . S
C764 C755 1.429 . S
C764 N761 1.350 . S
C764 C763 1.434 . S
C765 C766 1.369 . S
C765 C767 1.419 . S
C765 H769 0.930 . S
C766 C765 1.369 . S
C766 C775 1.429 . S
C767 C765 1.419 . S
C767 C768 1.363 . S
C767 H770 0.929 . S
C768 C767 1.363 . S
C768 C774 1.428 . S
H769 C765 0.930 . S
H770 C767 0.929 . S
S771 N772 1.613 . S
S771 N773 1.610 . S
N772 S771 1.613 . S
N772 C775 1.350 . S
N773 S771 1.610 . S
N773 C774 1.351 . S
C774 C768 1.428 . S
C774 N773 1.351 . S
C774 C775 1.434 . S
C775 C766 1.429 . S
C775 N772 1.350 . S
C775 C774 1.434 . S
C776 C777 1.369 . S
C776 C778 1.419 . S
C776 H780 0.930 . S
C777 C776 1.369 . S
C777 C786 1.429 . S
C778 C776 1.419 . S
C778 C779 1.363 . S
C778 H781 0.929 . S
C779 C778 1.363 . S
C779 C785 1.428 . S
H780 C776 0.930 . S
H781 C778 0.929 . S
S782 N783 1.613 . S
S782 N784 1.610 . S
N783 S782 1.613 . S
N783 C786 1.350 . S
N784 S782 1.610 . S
N784 C785 1.351 . S
C785 C779 1.428 . S
C785 N784 1.351 . S
C785 C786 1.434 . S
C786 C777 1.429 . S
C786 N783 1.350 . S
C786 C785 1.434 . S
C787 C788 1.369 . S
C787 C789 1.419 . S
C787 H791 0.930 . S
C788 C787 1.369 . S
C788 C797 1.429 . S
C789 C787 1.419 . S
C789 C790 1.363 . S
C789 H792 0.929 . S
C790 C789 1.363 . S
C790 C796 1.428 . S
H791 C787 0.930 . S
H792 C789 0.929 . S
S793 N794 1.613 . S
S793 N795 1.610 . S
N794 S793 1.613 . S
N794 C797 1.350 . S
N795 S793 1.610 . S
N795 C796 1.351 . S
C796 C790 1.428 . S
C796 N795 1.351 . S
C796 C797 1.434 . S
C797 C788 1.429 . S
C797 N794 1.350 . S
C797 C796 1.434 . S
C798 C799 1.369 . S
C798 C800 1.419 . S
C798 H802 0.930 . S
C799 C798 1.369 . S
C799 C808 1.429 . S
C800 C798 1.419 . S
C800 C801 1.363 . S
C800 H803 0.929 . S
C801 C800 1.363 . S
C801 C807 1.428 . S
H802 C798 0.930 . S
H803 C800 0.929 . S
S804 N805 1.613 . S
S804 N806 1.610 . S
N805 S804 1.613 . S
N805 C808 1.350 . S
N806 S804 1.610 . S
N806 C807 1.351 . S
C807 C801 1.428 . S
C807 N806 1.351 . S
C807 C808 1.434 . S
C808 C799 1.429 . S
C808 N805 1.350 . S
C808 C807 1.434 . S
C809 C810 1.369 . S
C809 C811 1.419 . S
C809 H813 0.930 . S
C810 C809 1.369 . S
C810 C819 1.429 . S
C811 C809 1.419 . S
C811 C812 1.363 . S
C811 H814 0.929 . S
C812 C811 1.363 . S
C812 C818 1.428 . S
H813 C809 0.930 . S
H814 C811 0.929 . S
S815 N816 1.613 . S
S815 N817 1.610 . S
N816 S815 1.613 . S
N816 C819 1.350 . S
N817 S815 1.610 . S
N817 C818 1.351 . S
C818 C812 1.428 . S
C818 N817 1.351 . S
C818 C819 1.434 . S
C819 C810 1.429 . S
C819 N816 1.350 . S
C819 C818 1.434 . S
C820 C821 1.369 . S
C820 C822 1.419 . S
C820 H824 0.930 . S
C821 C820 1.369 . S
C821 C830 1.429 . S
C822 C820 1.419 . S
C822 C823 1.363 . S
C822 H825 0.929 . S
C823 C822 1.363 . S
C823 C829 1.428 . S
H824 C820 0.930 . S
H825 C822 0.929 . S
S826 N827 1.613 . S
S826 N828 1.610 . S
N827 S826 1.613 . S
N827 C830 1.350 . S
N828 S826 1.610 . S
N828 C829 1.351 . S
C829 C823 1.428 . S
C829 N828 1.351 . S
C829 C830 1.434 . S
C830 C821 1.429 . S
C830 N827 1.350 . S
C830 C829 1.434 . S
C831 C832 1.369 . S
C831 C833 1.419 . S
C831 H835 0.930 . S
C832 C831 1.369 . S
C832 C841 1.429 . S
C833 C831 1.419 . S
C833 C834 1.363 . S
C833 H836 0.929 . S
C834 C833 1.363 . S
C834 C840 1.428 . S
H835 C831 0.930 . S
H836 C833 0.929 . S
S837 N838 1.613 . S
S837 N839 1.610 . S
N838 S837 1.613 . S
N838 C841 1.350 . S
N839 S837 1.610 . S
N839 C840 1.351 . S
C840 C834 1.428 . S
C840 N839 1.351 . S
C840 C841 1.434 . S
C841 C832 1.429 . S
C841 N838 1.350 . S
C841 C840 1.434 . S
C842 C843 1.369 . S
C842 C844 1.419 . S
C842 H846 0.930 . S
C843 C842 1.369 . S
C843 C852 1.429 . S
C844 C842 1.419 . S
C844 C845 1.363 . S
C844 H847 0.929 . S
C845 C844 1.363 . S
C845 C851 1.428 . S
H846 C842 0.930 . S
H847 C844 0.929 . S
S848 N849 1.613 . S
S848 N850 1.610 . S
N849 S848 1.613 . S
N849 C852 1.350 . S
N850 S848 1.610 . S
N850 C851 1.351 . S
C851 C845 1.428 . S
C851 N850 1.351 . S
C851 C852 1.434 . S
C852 C843 1.429 . S
C852 N849 1.350 . S
C852 C851 1.434 . S
C853 C854 1.369 . S
C853 C855 1.419 . S
C853 H857 0.930 . S
C854 C853 1.369 . S
C854 C863 1.429 . S
C855 C853 1.419 . S
C855 C856 1.363 . S
C855 H858 0.929 . S
C856 C855 1.363 . S
C856 C862 1.428 . S
H857 C853 0.930 . S
H858 C855 0.929 . S
S859 N860 1.613 . S
S859 N861 1.610 . S
N860 S859 1.613 . S
N860 C863 1.350 . S
N861 S859 1.610 . S
N861 C862 1.351 . S
C862 C856 1.428 . S
C862 N861 1.351 . S
C862 C863 1.434 . S
C863 C854 1.429 . S
C863 N860 1.350 . S
C863 C862 1.434 . S
C864 C865 1.369 . S
C864 C866 1.419 . S
C864 H868 0.930 . S
C865 C864 1.369 . S
C865 C874 1.429 . S
C866 C864 1.419 . S
C866 C867 1.363 . S
C866 H869 0.929 . S
C867 C866 1.363 . S
C867 C873 1.428 . S
H868 C864 0.930 . S
H869 C866 0.929 . S
S870 N871 1.613 . S
S870 N872 1.610 . S
N871 S870 1.613 . S
N871 C874 1.350 . S
N872 S870 1.610 . S
N872 C873 1.351 . S
C873 C867 1.428 . S
C873 N872 1.351 . S
C873 C874 1.434 . S
C874 C865 1.429 . S
C874 N871 1.350 . S
C874 C873 1.434 . S
C875 C876 1.369 . S
C875 C877 1.419 1_565 S
C875 H879 0.930 . S
C876 C875 1.369 . S
C876 C885 1.429 . S
C877 C875 1.419 1_545 S
C877 C878 1.363 . S
C877 H880 0.929 . S
C878 C877 1.363 . S
C878 C884 1.428 . S
H879 C875 0.930 . S
H880 C877 0.929 . S
S881 N882 1.613 1_545 S
S881 N883 1.610 . S
N882 S881 1.613 1_565 S
N882 C885 1.350 . S
N883 S881 1.610 . S
N883 C884 1.351 . S
C884 C878 1.428 . S
C884 N883 1.351 . S
C884 C885 1.434 1_545 S
C885 C876 1.429 . S
C885 N882 1.350 . S
C885 C884 1.434 1_565 S
C886 C887 1.369 . S
C886 C888 1.419 1_655 S
C886 H890 0.930 . S
C887 C886 1.369 . S
C887 C896 1.429 . S
C888 C886 1.419 1_455 S
C888 C889 1.363 . S
C888 H891 0.929 . S
C889 C888 1.363 . S
C889 C895 1.428 . S
H890 C886 0.930 . S
H891 C888 0.929 . S
S892 N893 1.613 1_455 S
S892 N894 1.610 . S
N893 S892 1.613 1_655 S
N893 C896 1.350 . S
N894 S892 1.610 . S
N894 C895 1.351 . S
C895 C889 1.428 . S
C895 N894 1.351 . S
C895 C896 1.434 1_455 S
C896 C887 1.429 . S
C896 N893 1.350 . S
C896 C895 1.434 1_655 S
C897 C898 1.369 . S
C897 C899 1.419 . S
C897 H901 0.930 . S
C898 C897 1.369 . S
C898 C907 1.429 . S
C899 C897 1.419 . S
C899 C900 1.363 . S
C899 H902 0.929 . S
C900 C899 1.363 . S
C900 C906 1.428 . S
H901 C897 0.930 . S
H902 C899 0.929 . S
S903 N904 1.613 . S
S903 N905 1.610 . S
N904 S903 1.613 . S
N904 C907 1.350 . S
N905 S903 1.610 . S
N905 C906 1.351 . S
C906 C900 1.428 . S
C906 N905 1.351 . S
C906 C907 1.434 . S
C907 C898 1.429 . S
C907 N904 1.350 . S
C907 C906 1.434 . S
C908 C909 1.369 . S
C908 C910 1.419 1_545 S
C908 H912 0.930 . S
C909 C908 1.369 . S
C909 C918 1.429 . S
C910 C908 1.419 1_565 S
C910 C911 1.363 . S
C910 H913 0.929 . S
C911 C910 1.363 . S
C911 C917 1.428 . S
H912 C908 0.930 . S
H913 C910 0.929 . S
S914 N915 1.613 1_565 S
S914 N916 1.610 . S
N915 S914 1.613 1_545 S
N915 C918 1.350 . S
N916 S914 1.610 . S
N916 C917 1.351 . S
C917 C911 1.428 . S
C917 N916 1.351 . S
C917 C918 1.434 1_565 S
C918 C909 1.429 . S
C918 N915 1.350 . S
C918 C917 1.434 1_545 S
C919 C920 1.369 . S
C919 C921 1.419 1_655 S
C919 H923 0.930 . S
C920 C919 1.369 . S
C920 C929 1.429 . S
C921 C919 1.419 1_455 S
C921 C922 1.363 . S
C921 H924 0.929 . S
C922 C921 1.363 . S
C922 C928 1.428 . S
H923 C919 0.930 . S
H924 C921 0.929 . S
S925 N926 1.613 . S
S925 N927 1.610 1_655 S
N926 S925 1.613 . S
N926 C929 1.350 . S
N927 S925 1.610 1_455 S
N927 C928 1.351 . S
C928 C922 1.428 . S
C928 N927 1.351 . S
C928 C929 1.434 1_455 S
C929 C920 1.429 . S
C929 N926 1.350 . S
C929 C928 1.434 1_655 S
C930 C931 1.369 . S
C930 C932 1.419 . S
C930 H934 0.930 . S
C931 C930 1.369 . S
C931 C940 1.429 . S
C932 C930 1.419 . S
C932 C933 1.363 . S
C932 H935 0.929 . S
C933 C932 1.363 . S
C933 C939 1.428 . S
H934 C930 0.930 . S
H935 C932 0.929 . S
S936 N937 1.613 . S
S936 N938 1.610 . S
N937 S936 1.613 . S
N937 C940 1.350 . S
N938 S936 1.610 . S
N938 C939 1.351 . S
C939 C933 1.428 . S
C939 N938 1.351 . S
C939 C940 1.434 . S
C940 C931 1.429 . S
C940 N937 1.350 . S
C940 C939 1.434 . S
C941 C942 1.369 . S
C941 C943 1.419 . S
C941 H945 0.930 . S
C942 C941 1.369 . S
C942 C951 1.429 . S
C943 C941 1.419 . S
C943 C944 1.363 . S
C943 H946 0.929 . S
C944 C943 1.363 . S
C944 C950 1.428 . S
H945 C941 0.930 . S
H946 C943 0.929 . S
S947 N948 1.613 . S
S947 N949 1.610 . S
N948 S947 1.613 . S
N948 C951 1.350 . S
N949 S947 1.610 . S
N949 C950 1.351 . S
C950 C944 1.428 . S
C950 N949 1.351 . S
C950 C951 1.434 . S
C951 C942 1.429 . S
C951 N948 1.350 . S
C951 C950 1.434 . S
C952 C953 1.369 . S
C952 C954 1.419 . S
C952 H956 0.930 . S
C953 C952 1.369 . S
C953 C962 1.429 . S
C954 C952 1.419 . S
C954 C955 1.363 . S
C954 H957 0.929 . S
C955 C954 1.363 . S
C955 C961 1.428 . S
H956 C952 0.930 . S
H957 C954 0.929 . S
S958 N959 1.613 . S
S958 N960 1.610 . S
N959 S958 1.613 . S
N959 C962 1.350 . S
N960 S958 1.610 . S
N960 C961 1.351 . S
C961 C955 1.428 . S
C961 N960 1.351 . S
C961 C962 1.434 . S
C962 C953 1.429 . S
C962 N959 1.350 . S
C962 C961 1.434 . S
C963 C964 1.369 . S
C963 C965 1.419 . S
C963 H967 0.930 . S
C964 C963 1.369 . S
C964 C973 1.429 . S
C965 C963 1.419 . S
C965 C966 1.363 . S
C965 H968 0.929 . S
C966 C965 1.363 . S
C966 C972 1.428 . S
H967 C963 0.930 . S
H968 C965 0.929 . S
S969 N970 1.613 . S
S969 N971 1.610 . S
N970 S969 1.613 . S
N970 C973 1.350 1_556 S
N971 S969 1.610 . S
N971 C972 1.351 1_556 S
C972 C966 1.428 . S
C972 N971 1.351 1_554 S
C972 C973 1.434 . S
C973 C964 1.429 . S
C973 N970 1.350 1_554 S
C973 C972 1.434 . S
C974 C975 1.369 . S
C974 C976 1.419 . S
C974 H978 0.930 1_554 S
C975 C974 1.369 . S
C975 C984 1.429 . S
C976 C974 1.419 . S
C976 C977 1.363 . S
C976 H979 0.930 . S
C977 C976 1.363 . S
C977 C983 1.428 . S
H978 C974 0.930 1_556 S
H979 C976 0.930 . S
S980 N981 1.613 . S
S980 N982 1.610 . S
N981 S980 1.613 . S
N981 C984 1.350 . S
N982 S980 1.610 . S
N982 C983 1.351 . S
C983 C977 1.428 . S
C983 N982 1.351 . S
C983 C984 1.434 . S
C984 C975 1.429 . S
C984 N981 1.350 . S
C984 C983 1.434 . S
C985 C986 1.369 . S
C985 C987 1.419 . S
C985 H989 0.930 . S
C986 C985 1.369 . S
C986 C995 1.429 . S
C987 C985 1.419 . S
C987 C988 1.363 . S
C987 H990 0.929 . S
C988 C987 1.363 . S
C988 C994 1.428 . S
H989 C985 0.930 . S
H990 C987 0.929 . S
S991 N992 1.613 1_556 S
S991 N993 1.611 . S
N992 S991 1.613 1_554 S
N992 C995 1.350 . S
N993 S991 1.611 . S
N993 C994 1.349 1_556 S
C994 C988 1.428 . S
C994 N993 1.349 1_554 S
C994 C995 1.434 . S
C995 C986 1.429 . S
C995 N992 1.350 . S
C995 C994 1.434 . S
C996 C997 1.369 . S
C996 C998 1.419 . S
C996 H1000 0.930 1_556 S
C997 C996 1.369 . S
C997 C1006 1.429 . S
C998 C996 1.419 . S
C998 C999 1.363 . S
C998 H1001 0.928 . S
C999 C998 1.363 . S
C999 C1005 1.428 . S
H1000 C996 0.930 1_554 S
H1001 C998 0.928 . S
S1002 N1003 1.613 . S
S1002 N1004 1.610 . S
N1003 S1002 1.613 . S
N1003 C1006 1.350 . S
N1004 S1002 1.610 . S
N1004 C1005 1.351 . S
C1005 C999 1.428 . S
C1005 N1004 1.351 . S
C1005 C1006 1.434 . S
C1006 C997 1.429 . S
C1006 N1003 1.350 . S
C1006 C1005 1.434 . S
C1007 C1008 1.369 . S
C1007 C1009 1.419 . S
C1007 H1011 0.930 1_556 S
C1008 C1007 1.369 . S
C1008 C1017 1.429 . S
C1009 C1007 1.419 . S
C1009 C1010 1.363 . S
C1009 H1012 0.929 . S
C1010 C1009 1.363 . S
C1010 C1016 1.428 . S
H1011 C1007 0.930 1_554 S
H1012 C1009 0.929 . S
S1013 N1014 1.613 . S
S1013 N1015 1.610 . S
N1014 S1013 1.613 . S
N1014 C1017 1.350 . S
N1015 S1013 1.610 . S
N1015 C1016 1.351 . S
C1016 C1010 1.428 . S
C1016 N1015 1.351 . S
C1016 C1017 1.434 . S
C1017 C1008 1.429 . S
C1017 N1014 1.350 . S
C1017 C1016 1.434 . S
C1018 C1019 1.369 . S
C1018 C1020 1.419 . S
C1018 H1022 0.930 . S
C1019 C1018 1.369 . S
C1019 C1028 1.429 . S
C1020 C1018 1.419 . S
C1020 C1021 1.363 . S
C1020 H1023 0.929 . S
C1021 C1020 1.363 . S
C1021 C1027 1.428 . S
H1022 C1018 0.930 . S
H1023 C1020 0.929 . S
S1024 N1025 1.613 . S
S1024 N1026 1.610 . S
N1025 S1024 1.613 . S
N1025 C1028 1.350 . S
N1026 S1024 1.610 . S
N1026 C1027 1.351 . S
C1027 C1021 1.428 . S
C1027 N1026 1.351 . S
C1027 C1028 1.434 . S
C1028 C1019 1.429 . S
C1028 N1025 1.350 . S
C1028 C1027 1.434 . S
C1029 C1030 1.369 . S
C1029 C1031 1.419 . S
C1029 H1033 0.930 . S
C1030 C1029 1.369 . S
C1030 C1039 1.429 . S
C1031 C1029 1.419 . S
C1031 C1032 1.363 . S
C1031 H1034 0.929 . S
C1032 C1031 1.363 . S
C1032 C1038 1.428 . S
H1033 C1029 0.930 . S
H1034 C1031 0.929 . S
S1035 N1036 1.613 . S
S1035 N1037 1.610 . S
N1036 S1035 1.613 . S
N1036 C1039 1.350 . S
N1037 S1035 1.610 . S
N1037 C1038 1.351 . S
C1038 C1032 1.428 . S
C1038 N1037 1.351 . S
C1038 C1039 1.434 . S
C1039 C1030 1.429 . S
C1039 N1036 1.350 . S
C1039 C1038 1.434 . S
C1040 C1041 1.369 . S
C1040 C1042 1.419 . S
C1040 H1044 0.930 . S
C1041 C1040 1.369 . S
C1041 C1050 1.429 . S
C1042 C1040 1.419 . S
C1042 C1043 1.363 . S
C1042 H1045 0.929 . S
C1043 C1042 1.363 . S
C1043 C1049 1.428 . S
H1044 C1040 0.930 . S
H1045 C1042 0.929 . S
S1046 N1047 1.613 . S
S1046 N1048 1.610 . S
N1047 S1046 1.613 . S
N1047 C1050 1.350 . S
N1048 S1046 1.610 . S
N1048 C1049 1.351 . S
C1049 C1043 1.428 . S
C1049 N1048 1.351 . S
C1049 C1050 1.434 . S
C1050 C1041 1.429 . S
C1050 N1047 1.350 . S
C1050 C1049 1.434 . S
C1051 C1052 1.369 . S
C1051 C1053 1.419 . S
C1051 H1055 0.930 . S
C1052 C1051 1.369 . S
C1052 C1061 1.429 . S
C1053 C1051 1.419 . S
C1053 C1054 1.363 . S
C1053 H1056 0.929 . S
C1054 C1053 1.363 . S
C1054 C1060 1.428 . S
H1055 C1051 0.930 . S
H1056 C1053 0.929 . S
S1057 N1058 1.613 . S
S1057 N1059 1.610 . S
N1058 S1057 1.613 . S
N1058 C1061 1.350 . S
N1059 S1057 1.610 . S
N1059 C1060 1.351 . S
C1060 C1054 1.428 . S
C1060 N1059 1.351 . S
C1060 C1061 1.434 . S
C1061 C1052 1.429 . S
C1061 N1058 1.350 . S
C1061 C1060 1.434 . S
C1062 C1063 1.369 . S
C1062 C1064 1.419 . S
C1062 H1066 0.930 . S
C1063 C1062 1.369 . S
C1063 C1072 1.429 . S
C1064 C1062 1.419 . S
C1064 C1065 1.363 . S
C1064 H1067 0.929 . S
C1065 C1064 1.363 . S
C1065 C1071 1.428 . S
H1066 C1062 0.930 . S
H1067 C1064 0.929 . S
S1068 N1069 1.613 . S
S1068 N1070 1.610 . S
N1069 S1068 1.613 . S
N1069 C1072 1.350 . S
N1070 S1068 1.610 . S
N1070 C1071 1.351 . S
C1071 C1065 1.428 . S
C1071 N1070 1.351 . S
C1071 C1072 1.434 . S
C1072 C1063 1.429 . S
C1072 N1069 1.350 . S
C1072 C1071 1.434 . S
C1073 C1074 1.369 . S
C1073 C1075 1.419 . S
C1073 H1077 0.930 . S
C1074 C1073 1.369 . S
C1074 C1083 1.429 . S
C1075 C1073 1.419 . S
C1075 C1076 1.363 . S
C1075 H1078 0.929 . S
C1076 C1075 1.363 . S
C1076 C1082 1.428 . S
H1077 C1073 0.930 . S
H1078 C1075 0.929 . S
S1079 N1080 1.613 . S
S1079 N1081 1.610 . S
N1080 S1079 1.613 . S
N1080 C1083 1.350 . S
N1081 S1079 1.610 . S
N1081 C1082 1.351 . S
C1082 C1076 1.428 . S
C1082 N1081 1.351 . S
C1082 C1083 1.434 . S
C1083 C1074 1.429 . S
C1083 N1080 1.350 . S
C1083 C1082 1.434 . S
C1084 C1085 1.369 . S
C1084 C1086 1.419 . S
C1084 H1088 0.930 . S
C1085 C1084 1.369 . S
C1085 C1094 1.429 . S
C1086 C1084 1.419 . S
C1086 C1087 1.363 . S
C1086 H1089 0.929 . S
C1087 C1086 1.363 . S
C1087 C1093 1.428 . S
H1088 C1084 0.930 . S
H1089 C1086 0.929 . S
S1090 N1091 1.613 . S
S1090 N1092 1.610 . S
N1091 S1090 1.613 . S
N1091 C1094 1.350 . S
N1092 S1090 1.610 . S
N1092 C1093 1.351 . S
C1093 C1087 1.428 . S
C1093 N1092 1.351 . S
C1093 C1094 1.434 . S
C1094 C1085 1.429 . S
C1094 N1091 1.350 . S
C1094 C1093 1.434 . S
C1095 C1096 1.369 . S
C1095 C1097 1.419 . S
C1095 H1099 0.930 . S
C1096 C1095 1.369 . S
C1096 C1105 1.429 . S
C1097 C1095 1.419 . S
C1097 C1098 1.363 . S
C1097 H1100 0.929 . S
C1098 C1097 1.363 . S
C1098 C1104 1.428 . S
H1099 C1095 0.930 . S
H1100 C1097 0.929 . S
S1101 N1102 1.613 . S
S1101 N1103 1.610 . S
N1102 S1101 1.613 . S
N1102 C1105 1.350 . S
N1103 S1101 1.610 . S
N1103 C1104 1.351 . S
C1104 C1098 1.428 . S
C1104 N1103 1.351 . S
C1104 C1105 1.434 . S
C1105 C1096 1.429 . S
C1105 N1102 1.350 . S
C1105 C1104 1.434 . S
C1106 C1107 1.369 . S
C1106 C1108 1.419 . S
C1106 H1110 0.930 . S
C1107 C1106 1.369 . S
C1107 C1116 1.429 . S
C1108 C1106 1.419 . S
C1108 C1109 1.363 . S
C1108 H1111 0.929 . S
C1109 C1108 1.363 . S
C1109 C1115 1.428 . S
H1110 C1106 0.930 . S
H1111 C1108 0.929 . S
S1112 N1113 1.613 . S
S1112 N1114 1.610 . S
N1113 S1112 1.613 . S
N1113 C1116 1.350 . S
N1114 S1112 1.610 . S
N1114 C1115 1.351 . S
C1115 C1109 1.428 . S
C1115 N1114 1.351 . S
C1115 C1116 1.434 . S
C1116 C1107 1.429 . S
C1116 N1113 1.350 . S
C1116 C1115 1.434 . S
C1117 C1118 1.369 . S
C1117 C1119 1.419 . S
C1117 H1121 0.930 . S
C1118 C1117 1.369 . S
C1118 C1127 1.429 . S
C1119 C1117 1.419 . S
C1119 C1120 1.363 . S
C1119 H1122 0.929 . S
C1120 C1119 1.363 . S
C1120 C1126 1.428 . S
H1121 C1117 0.930 . S
H1122 C1119 0.929 . S
S1123 N1124 1.613 . S
S1123 N1125 1.610 . S
N1124 S1123 1.613 . S
N1124 C1127 1.350 . S
N1125 S1123 1.610 . S
N1125 C1126 1.351 . S
C1126 C1120 1.428 . S
C1126 N1125 1.351 . S
C1126 C1127 1.434 . S
C1127 C1118 1.429 . S
C1127 N1124 1.350 . S
C1127 C1126 1.434 . S
C1128 C1129 1.369 . S
C1128 C1130 1.419 . S
C1128 H1132 0.930 . S
C1129 C1128 1.369 . S
C1129 C1138 1.429 . S
C1130 C1128 1.419 . S
C1130 C1131 1.363 . S
C1130 H1133 0.929 . S
C1131 C1130 1.363 . S
C1131 C1137 1.428 . S
H1132 C1128 0.930 . S
H1133 C1130 0.929 . S
S1134 N1135 1.613 . S
S1134 N1136 1.610 . S
N1135 S1134 1.613 . S
N1135 C1138 1.350 . S
N1136 S1134 1.610 . S
N1136 C1137 1.351 . S
C1137 C1131 1.428 . S
C1137 N1136 1.351 . S
C1137 C1138 1.434 . S
C1138 C1129 1.429 . S
C1138 N1135 1.350 . S
C1138 C1137 1.434 . S
C1139 C1140 1.369 . S
C1139 C1141 1.419 . S
C1139 H1143 0.930 . S
C1140 C1139 1.369 . S
C1140 C1149 1.429 . S
C1141 C1139 1.419 . S
C1141 C1142 1.363 . S
C1141 H1144 0.929 . S
C1142 C1141 1.363 . S
C1142 C1148 1.428 . S
H1143 C1139 0.930 . S
H1144 C1141 0.929 . S
S1145 N1146 1.613 . S
S1145 N1147 1.610 . S
N1146 S1145 1.613 . S
N1146 C1149 1.350 . S
N1147 S1145 1.610 . S
N1147 C1148 1.351 . S
C1148 C1142 1.428 . S
C1148 N1147 1.351 . S
C1148 C1149 1.434 . S
C1149 C1140 1.429 . S
C1149 N1146 1.350 . S
C1149 C1148 1.434 . S
C1150 C1151 1.369 . S
C1150 C1152 1.419 . S
C1150 H1154 0.930 . S
C1151 C1150 1.369 . S
C1151 C1160 1.429 . S
C1152 C1150 1.419 . S
C1152 C1153 1.363 . S
C1152 H1155 0.929 . S
C1153 C1152 1.363 . S
C1153 C1159 1.428 . S
H1154 C1150 0.930 . S
H1155 C1152 0.929 . S
S1156 N1157 1.613 . S
S1156 N1158 1.610 . S
N1157 S1156 1.613 . S
N1157 C1160 1.350 . S
N1158 S1156 1.610 . S
N1158 C1159 1.351 . S
C1159 C1153 1.428 . S
C1159 N1158 1.351 . S
C1159 C1160 1.434 . S
C1160 C1151 1.429 . S
C1160 N1157 1.350 . S
C1160 C1159 1.434 . S
C1161 C1162 1.369 . S
C1161 C1163 1.419 . S
C1161 H1165 0.930 . S
C1162 C1161 1.369 . S
C1162 C1171 1.429 . S
C1163 C1161 1.419 . S
C1163 C1164 1.363 . S
C1163 H1166 0.929 . S
C1164 C1163 1.363 . S
C1164 C1170 1.428 . S
H1165 C1161 0.930 . S
H1166 C1163 0.929 . S
S1167 N1168 1.613 . S
S1167 N1169 1.610 . S
N1168 S1167 1.613 . S
N1168 C1171 1.350 . S
N1169 S1167 1.610 . S
N1169 C1170 1.351 . S
C1170 C1164 1.428 . S
C1170 N1169 1.351 . S
C1170 C1171 1.434 . S
C1171 C1162 1.429 . S
C1171 N1168 1.350 . S
C1171 C1170 1.434 . S
C1172 C1173 1.369 . S
C1172 C1174 1.419 . S
C1172 H1176 0.930 . S
C1173 C1172 1.369 . S
C1173 C1182 1.429 . S
C1174 C1172 1.419 . S
C1174 C1175 1.363 . S
C1174 H1177 0.929 . S
C1175 C1174 1.363 . S
C1175 C1181 1.428 . S
H1176 C1172 0.930 . S
H1177 C1174 0.929 . S
S1178 N1179 1.613 . S
S1178 N1180 1.610 . S
N1179 S1178 1.613 . S
N1179 C1182 1.350 . S
N1180 S1178 1.610 . S
N1180 C1181 1.351 . S
C1181 C1175 1.428 . S
C1181 N1180 1.351 . S
C1181 C1182 1.434 . S
C1182 C1173 1.429 . S
C1182 N1179 1.350 . S
C1182 C1181 1.434 . S
C1183 C1184 1.369 . S
C1183 C1185 1.419 . S
C1183 H1187 0.930 . S
C1184 C1183 1.369 . S
C1184 C1193 1.429 . S
C1185 C1183 1.419 . S
C1185 C1186 1.363 . S
C1185 H1188 0.929 . S
C1186 C1185 1.363 . S
C1186 C1192 1.428 . S
H1187 C1183 0.930 . S
H1188 C1185 0.929 . S
S1189 N1190 1.613 . S
S1189 N1191 1.610 . S
N1190 S1189 1.613 . S
N1190 C1193 1.350 . S
N1191 S1189 1.610 . S
N1191 C1192 1.351 . S
C1192 C1186 1.428 . S
C1192 N1191 1.351 . S
C1192 C1193 1.434 . S
C1193 C1184 1.429 . S
C1193 N1190 1.350 . S
C1193 C1192 1.434 . S
C1194 C1195 1.369 . S
C1194 C1196 1.395 1_455 S
C1194 H1198 0.930 . S
C1195 C1194 1.369 . S
C1195 C1204 1.411 1_455 S
C1196 C1194 1.395 1_655 S
C1196 C1197 1.376 . S
C1196 H1199 0.943 1_655 S
C1197 C1196 1.376 . S
C1197 C1203 1.428 . S
H1198 C1194 0.930 . S
H1199 C1196 0.943 1_455 S
S1200 N1201 1.613 . S
S1200 N1202 1.610 . S
N1201 S1200 1.613 . S
N1201 C1204 1.338 . S
N1202 S1200 1.610 . S
N1202 C1203 1.351 . S
C1203 C1197 1.428 . S
C1203 N1202 1.351 . S
C1203 C1204 1.467 . S
C1204 C1195 1.411 1_655 S
C1204 N1201 1.338 . S
C1204 C1203 1.467 . S
C1205 C1206 1.369 . S
C1205 C1207 1.419 . S
C1205 H1209 0.930 . S
C1206 C1205 1.369 . S
C1206 C1215 1.429 . S
C1207 C1205 1.419 . S
C1207 C1208 1.363 . S
C1207 H1210 0.929 . S
C1208 C1207 1.363 . S
C1208 C1214 1.428 . S
H1209 C1205 0.930 . S
H1210 C1207 0.929 . S
S1211 N1212 1.613 . S
S1211 N1213 1.610 . S
N1212 S1211 1.613 . S
N1212 C1215 1.350 . S
N1213 S1211 1.610 . S
N1213 C1214 1.351 . S
C1214 C1208 1.428 . S
C1214 N1213 1.351 . S
C1214 C1215 1.434 . S
C1215 C1206 1.429 . S
C1215 N1212 1.350 . S
C1215 C1214 1.434 . S
C1216 C1217 1.369 . S
C1216 C1218 1.438 . S
C1216 H1220 0.930 . S
C1217 C1216 1.369 . S
C1217 C1226 1.429 1_545 S
C1218 C1216 1.438 . S
C1218 C1219 1.320 1_545 S
C1218 H1221 0.955 . S
C1219 C1218 1.320 1_565 S
C1219 C1225 1.428 . S
H1220 C1216 0.930 . S
H1221 C1218 0.955 . S
S1222 N1223 1.613 . S
S1222 N1224 1.610 . S
N1223 S1222 1.613 . S
N1223 C1226 1.350 . S
N1224 S1222 1.610 . S
N1224 C1225 1.351 . S
C1225 C1219 1.428 . S
C1225 N1224 1.351 . S
C1225 C1226 1.434 . S
C1226 C1217 1.429 1_565 S
C1226 N1223 1.350 . S
C1226 C1225 1.434 . S
C1227 C1228 1.369 1_556 S
C1227 C1229 1.419 . S
C1227 H1231 0.930 . S
C1228 C1227 1.369 1_554 S
C1228 C1237 1.429 1_545 S
C1229 C1227 1.419 . S
C1229 C1230 1.363 1_545 S
C1229 H1232 0.929 . S
C1230 C1229 1.363 1_565 S
C1230 C1236 1.428 1_556 S
H1231 C1227 0.930 . S
H1232 C1229 0.929 . S
S1233 N1234 1.613 . S
S1233 N1235 1.610 . S
N1234 S1233 1.613 . S
N1234 C1237 1.350 . S
N1235 S1233 1.610 . S
N1235 C1236 1.351 . S
C1236 C1230 1.428 1_554 S
C1236 N1235 1.351 . S
C1236 C1237 1.434 . S
C1237 C1228 1.429 1_565 S
C1237 N1234 1.350 . S
C1237 C1236 1.434 . S
C1238 C1239 1.369 . S
C1238 C1240 1.419 1_655 S
C1238 H1242 0.930 . S
C1239 C1238 1.369 . S
C1239 C1248 1.429 1_554 S
C1240 C1238 1.419 1_455 S
C1240 C1241 1.363 1_554 S
C1240 H1243 0.929 . S
C1241 C1240 1.363 1_556 S
C1241 C1247 1.428 . S
H1242 C1238 0.930 . S
H1243 C1240 0.929 . S
S1244 N1245 1.613 1_455 S
S1244 N1246 1.610 . S
N1245 S1244 1.613 1_655 S
N1245 C1248 1.350 . S
N1246 S1244 1.610 . S
N1246 C1247 1.351 . S
C1247 C1241 1.428 . S
C1247 N1246 1.351 . S
C1247 C1248 1.434 1_455 S
C1248 C1239 1.429 1_556 S
C1248 N1245 1.350 . S
C1248 C1247 1.434 1_655 S
C1249 C1250 1.369 . S
C1249 C1251 1.419 . S
C1249 H1253 0.930 . S
C1250 C1249 1.369 . S
C1250 C1259 1.429 1_554 S
C1251 C1249 1.419 . S
C1251 C1252 1.363 1_554 S
C1251 H1254 0.929 . S
C1252 C1251 1.363 1_556 S
C1252 C1258 1.428 . S
H1253 C1249 0.930 . S
H1254 C1251 0.929 . S
S1255 N1256 1.613 . S
S1255 N1257 1.610 . S
N1256 S1255 1.613 . S
N1256 C1259 1.350 . S
N1257 S1255 1.610 . S
N1257 C1258 1.351 . S
C1258 C1252 1.428 . S
C1258 N1257 1.351 . S
C1258 C1259 1.434 . S
C1259 C1250 1.429 1_556 S
C1259 N1256 1.350 . S
C1259 C1258 1.434 . S
C469 C138 1.256 . S
C471 C10 1.308 . S
C480 C151 1.247 . S
C482 C23 1.308 . S
C491 C36 1.302 . S
C493 C125 1.254 . S
C502 C49 1.305 . S
C504 C112 1.246 . S
C513 C62 1.301 . S
C515 C86 1.250 . S
C524 C99 1.250 . S
C526 C75 1.302 . S
C535 C60 1.256 . S
C537 C88 1.308 . S
C546 C73 1.258 . S
C548 C101 1.306 . S
C557 C114 1.301 . S
C559 C47 1.251 . S
C568 C34 1.256 . S
C570 C127 1.308 . S
C579 C140 1.304 . S
C581 C8 1.246 . S
C590 C153 1.302 . S
C592 C21 1.253 . S
C601 C294 1.253 . S
C603 C166 1.303 . S
C612 C307 1.258 . S
C614 C179 1.305 . S
C623 C192 1.307 . S
C625 C281 1.257 . S
C634 C205 1.303 . S
C636 C268 1.246 1_556 S
C645 C218 1.306 . S
C647 C242 1.246 1_556 S
C656 C231 1.309 . S
C658 C255 1.253 1_556 S
C667 C216 1.248 . S
C669 C244 1.303 . S
C678 C229 1.247 . S
C680 C257 1.308 . S
C689 C203 1.244 . S
C691 C270 1.305 . S
C700 C190 1.255 . S
C702 C283 1.303 . S
C711 C164 1.258 . S
C713 C296 1.306 . S
C722 C177 1.255 . S
C724 C309 1.308 . S
C733 C322 1.303 . S
C735 C450 1.246 . S
C744 C463 1.244 . S
C746 C335 1.305 . S
C755 C437 1.244 . S
C757 C348 1.305 . S
C766 C361 1.302 . S
C768 C424 1.247 . S
C777 C374 1.301 . S
C779 C398 1.249 . S
C788 C387 1.310 . S
C790 C411 1.253 . S
C799 C372 1.252 . S
C801 C400 1.302 . S
C810 C385 1.258 . S
C812 C413 1.306 . S
C821 C359 1.258 . S
C823 C426 1.305 . S
C832 C439 1.301 . S
C834 C346 1.250 1_554 S
C843 C320 1.246 1_554 S
C845 C452 1.303 . S
C854 C465 1.305 . S
C856 C333 1.256 1_554 S
C865 C39 1.362 . S
C867 C0 1.365 . S
C876 C52 1.368 . S
C878 C13 1.367 . S
C887 C26 1.368 . S
C889 C65 1.367 . S
C898 C117 1.363 . S
C900 C78 1.366 . S
C909 C130 1.363 . S
C911 C91 1.367 . S
C920 C143 1.368 . S
C922 C104 1.367 . S
C931 C195 1.362 . S
C933 C156 1.365 . S
C942 C208 1.366 . S
C944 C169 1.367 . S
C953 C182 1.364 . S
C955 C221 1.367 . S
C964 C234 1.369 . S
C966 C273 1.366 . S
C975 C286 1.368 . S
C977 C247 1.365 . S
C986 C260 1.365 . S
C988 C299 1.363 . S
C997 C351 1.366 . S
C999 C312 1.363 . S
C1008 C364 1.367 . S
C1010 C325 1.364 . S
C1019 C338 1.362 . S
C1021 C377 1.363 . S
C1030 C390 1.363 . S
C1032 C429 1.367 . S
C1041 C403 1.365 . S
C1043 C442 1.363 . S
C1052 C416 1.368 . S
C1054 C455 1.364 . S
C1063 C5 1.391 . S
C1065 C239 1.380 . S
C1074 C252 1.390 . S
C1076 C18 1.380 . S
C1085 C265 1.390 . S
C1087 C31 1.379 . S
C1096 C434 1.378 . S
C1098 C44 1.390 . S
C1107 C447 1.379 . S
C1109 C57 1.388 . S
C1118 C460 1.387 . S
C1120 C70 1.382 . S
C1129 C83 1.386 . S
C1131 C317 1.383 . S
C1140 C330 1.380 . S
C1142 C96 1.387 . S
C1151 C343 1.381 . S
C1153 C109 1.386 . S
C1162 C122 1.377 . S
C1164 C200 1.390 . S
C1173 C135 1.391 . S
C1175 C213 1.379 . S
C1184 C148 1.379 . S
C1186 C226 1.389 . S
C1195 C395 1.392 . S
C1197 C161 1.379 . S
C1206 C408 1.383 . S
C1208 C174 1.385 . S
C1217 C187 1.390 . S
C1219 C421 1.380 . S
C1228 C278 1.391 . S
C1230 C356 1.379 . S
C1239 C291 1.388 . S
C1241 C369 1.381 . S
C1250 C304 1.378 . S
C1252 C382 1.389 . S
