# Generated by pormake.
# Topology yfj, (5)-cn, num edge types: 1
# Building blocks:
#     Node 0, Type 0, BuildingBlock: XOMCOT_clean_sbu_1, # of connection points: 5
#     Node 1, Type 0, BuildingBlock: XOMCOT_clean_sbu_1, # of connection points: 5
#     Node 2, Type 0, BuildingBlock: XOMCOT_clean_sbu_1, # of connection points: 5
#     Node 3, Type 0, BuildingBlock: XOMCOT_clean_sbu_1, # of connection points: 5
#     Node 4, Type 0, BuildingBlock: XOMCOT_clean_sbu_1, # of connection points: 5
#     Node 5, Type 0, BuildingBlock: XOMCOT_clean_sbu_1, # of connection points: 5
#     Node 6, Type 0, BuildingBlock: XOMCOT_clean_sbu_1, # of connection points: 5
#     Node 7, Type 0, BuildingBlock: XOMCOT_clean_sbu_1, # of connection points: 5
#     Node 8, Type 0, BuildingBlock: XOMCOT_clean_sbu_1, # of connection points: 5
#     Node 9, Type 0, BuildingBlock: XOMCOT_clean_sbu_1, # of connection points: 5
#     Node 10, Type 0, BuildingBlock: XOMCOT_clean_sbu_1, # of connection points: 5
#     Node 11, Type 0, BuildingBlock: XOMCOT_clean_sbu_1, # of connection points: 5
#     Node 12, Type 0, BuildingBlock: XOMCOT_clean_sbu_1, # of connection points: 5
#     Node 13, Type 0, BuildingBlock: XOMCOT_clean_sbu_1, # of connection points: 5
#     Node 14, Type 0, BuildingBlock: XOMCOT_clean_sbu_1, # of connection points: 5
#     Node 15, Type 0, BuildingBlock: XOMCOT_clean_sbu_1, # of connection points: 5
#     Edge 16, Type (0, 0), BuildingBlock: EZIPEK_clean_linker_0, # of connection points: 2
#     Edge 17, Type (0, 0), BuildingBlock: EZIPEK_clean_linker_0, # of connection points: 2
#     Edge 18, Type (0, 0), BuildingBlock: EZIPEK_clean_linker_0, # of connection points: 2
#     Edge 19, Type (0, 0), BuildingBlock: EZIPEK_clean_linker_0, # of connection points: 2
#     Edge 20, Type (0, 0), BuildingBlock: EZIPEK_clean_linker_0, # of connection points: 2
#     Edge 21, Type (0, 0), BuildingBlock: EZIPEK_clean_linker_0, # of connection points: 2
#     Edge 22, Type (0, 0), BuildingBlock: EZIPEK_clean_linker_0, # of connection points: 2
#     Edge 23, Type (0, 0), BuildingBlock: EZIPEK_clean_linker_0, # of connection points: 2
#     Edge 24, Type (0, 0), BuildingBlock: EZIPEK_clean_linker_0, # of connection points: 2
#     Edge 25, Type (0, 0), BuildingBlock: EZIPEK_clean_linker_0, # of connection points: 2
#     Edge 26, Type (0, 0), BuildingBlock: EZIPEK_clean_linker_0, # of connection points: 2
#     Edge 27, Type (0, 0), BuildingBlock: EZIPEK_clean_linker_0, # of connection points: 2
#     Edge 28, Type (0, 0), BuildingBlock: EZIPEK_clean_linker_0, # of connection points: 2
#     Edge 29, Type (0, 0), BuildingBlock: EZIPEK_clean_linker_0, # of connection points: 2
#     Edge 30, Type (0, 0), BuildingBlock: EZIPEK_clean_linker_0, # of connection points: 2
#     Edge 31, Type (0, 0), BuildingBlock: EZIPEK_clean_linker_0, # of connection points: 2
#     Edge 32, Type (0, 0), BuildingBlock: EZIPEK_clean_linker_0, # of connection points: 2
#     Edge 33, Type (0, 0), BuildingBlock: EZIPEK_clean_linker_0, # of connection points: 2
#     Edge 34, Type (0, 0), BuildingBlock: EZIPEK_clean_linker_0, # of connection points: 2
#     Edge 35, Type (0, 0), BuildingBlock: EZIPEK_clean_linker_0, # of connection points: 2
#     Edge 36, Type (0, 0), BuildingBlock: EZIPEK_clean_linker_0, # of connection points: 2
#     Edge 37, Type (0, 0), BuildingBlock: EZIPEK_clean_linker_0, # of connection points: 2
#     Edge 38, Type (0, 0), BuildingBlock: EZIPEK_clean_linker_0, # of connection points: 2
#     Edge 39, Type (0, 0), BuildingBlock: EZIPEK_clean_linker_0, # of connection points: 2
#     Edge 40, Type (0, 0), BuildingBlock: EZIPEK_clean_linker_0, # of connection points: 2
#     Edge 41, Type (0, 0), BuildingBlock: EZIPEK_clean_linker_0, # of connection points: 2
#     Edge 42, Type (0, 0), BuildingBlock: EZIPEK_clean_linker_0, # of connection points: 2
#     Edge 43, Type (0, 0), BuildingBlock: EZIPEK_clean_linker_0, # of connection points: 2
#     Edge 44, Type (0, 0), BuildingBlock: EZIPEK_clean_linker_0, # of connection points: 2
#     Edge 45, Type (0, 0), BuildingBlock: EZIPEK_clean_linker_0, # of connection points: 2
#     Edge 46, Type (0, 0), BuildingBlock: EZIPEK_clean_linker_0, # of connection points: 2
#     Edge 47, Type (0, 0), BuildingBlock: EZIPEK_clean_linker_0, # of connection points: 2
#     Edge 48, Type (0, 0), BuildingBlock: EZIPEK_clean_linker_0, # of connection points: 2
#     Edge 49, Type (0, 0), BuildingBlock: EZIPEK_clean_linker_0, # of connection points: 2
#     Edge 50, Type (0, 0), BuildingBlock: EZIPEK_clean_linker_0, # of connection points: 2
#     Edge 51, Type (0, 0), BuildingBlock: EZIPEK_clean_linker_0, # of connection points: 2
#     Edge 52, Type (0, 0), BuildingBlock: EZIPEK_clean_linker_0, # of connection points: 2
#     Edge 53, Type (0, 0), BuildingBlock: EZIPEK_clean_linker_0, # of connection points: 2
#     Edge 54, Type (0, 0), BuildingBlock: EZIPEK_clean_linker_0, # of connection points: 2
#     Edge 55, Type (0, 0), BuildingBlock: EZIPEK_clean_linker_0, # of connection points: 2
# Relax obj value: 0.475
# Max RMSD: 0.243
# Mean RMSD: 0.243
data_MOF--net-yfj--node1-XOMCOT_clean_sbu_1--edge1-EZIPEK_clean_linker_0
_symmetry_space_group_name_H-M    P1
_symmetry_Int_Tables_number       1
_symmetry_cell_setting            triclinic
loop_
_symmetry_equiv_pos_as_xyz
'x, y, z'
_cell_length_a     37.239298
_cell_length_b     37.638931
_cell_length_c     34.490989
_cell_angle_alpha  90.030082
_cell_angle_beta   89.946631
_cell_angle_gamma 89.966553
loop_
_atom_site_label
_atom_site_type_symbol
_atom_site_fract_x
_atom_site_fract_y
_atom_site_fract_z
_atom_type_partial_charge
C0 C 0.12261 0.09105 0.36924 0.0
C1 C 0.12115 0.08427 0.40807 0.0
N2 N 0.12069 0.11541 0.4268 0.0
N3 N 0.12273 0.1266 0.36246 0.0
C4 C 0.12237 0.14057 0.39871 0.0
H5 H 0.1263 0.07071 0.3476 0.0
Co6 Co 0.13509 0.14548 0.31244 0.0
C7 C 0.13811 0.21749 0.34186 0.0
O8 O 0.10681 0.22006 0.32461 0.0
N9 N 0.15144 0.16082 0.26202 0.0
C10 C 0.15115 0.17531 0.1991 0.0
C11 C 0.13165 0.17547 0.23345 0.0
C12 C 0.18307 0.15231 0.24397 0.0
N13 N 0.18356 0.16064 0.2058 0.0
O14 O 0.17864 0.12105 0.31926 0.0
H15 H 0.10394 0.18357 0.2367 0.0
H16 H 0.20496 0.13829 0.25746 0.0
O17 O 0.15612 0.18843 0.33807 0.0
C18 C 0.20178 0.09638 0.31871 0.0
O19 O 0.19224 0.06445 0.30738 0.0
N20 N 0.11014 0.10686 0.28906 0.0
C21 C 0.0671 0.0467 0.27881 0.0
C22 C 0.05293 0.07756 0.29541 0.0
C23 C 0.0747 0.1076 0.29946 0.0
C24 C 0.12316 0.07879 0.2683 0.0
C25 C 0.10216 0.04796 0.26352 0.0
H26 H 0.06416 0.13064 0.31442 0.0
H27 H 0.15009 0.0795 0.25684 0.0
H28 H 0.12768 0.16782 0.40472 0.0
H29 H 0.12194 0.05838 0.42173 0.0
H30 H 0.1415 0.18357 0.17092 0.0
H31 H 0.02573 0.07798 0.30657 0.0
H32 H 0.11349 0.02497 0.24911 0.0
C33 C 0.92912 0.64664 0.62038 0.0
C34 C 0.9323 0.6443 0.65999 0.0
N35 N 0.90207 0.62967 0.67417 0.0
N36 N 0.89655 0.63456 0.60945 0.0
C37 C 0.88135 0.62301 0.64285 0.0
H38 H 0.94882 0.65806 0.60107 0.0
Co39 Co 0.87642 0.64214 0.55985 0.0
C40 C 0.79998 0.6098 0.5876 0.0
O41 O 0.79255 0.58046 0.56864 0.0
N42 N 0.85746 0.65201 0.50956 0.0
C43 C 0.82234 0.66064 0.4579 0.0
C44 C 0.82675 0.64169 0.49208 0.0
C45 C 0.8713 0.67682 0.48502 0.0
N46 N 0.8504 0.6829 0.45377 0.0
O47 O 0.86324 0.68687 0.57498 0.0
H48 H 0.808 0.62271 0.50397 0.0
H49 H 0.89594 0.69109 0.49006 0.0
O50 O 0.82943 0.62612 0.58032 0.0
C51 C 0.88887 0.70872 0.57237 0.0
O52 O 0.91806 0.69807 0.55436 0.0
N53 N 0.89337 0.59779 0.5445 0.0
C54 C 0.94668 0.54432 0.53731 0.0
C55 C 0.9164 0.54034 0.56219 0.0
C56 C 0.88993 0.56702 0.56488 0.0
C57 C 0.92204 0.60267 0.52075 0.0
C58 C 0.94883 0.57704 0.51737 0.0
H59 H 0.86885 0.5645 0.58628 0.0
H60 H 0.92638 0.62836 0.50759 0.0
H61 H 0.85479 0.61176 0.6448 0.0
H62 H 0.9547 0.65351 0.67728 0.0
H63 H 0.79973 0.65903 0.43829 0.0
H64 H 0.91327 0.51865 0.582 0.0
H65 H 0.97242 0.58451 0.50102 0.0
C66 C 0.35994 0.4227 0.87949 0.0
C67 C 0.37009 0.42797 0.91699 0.0
N68 N 0.38055 0.39675 0.93261 0.0
N69 N 0.36098 0.38775 0.87107 0.0
C70 C 0.37195 0.37252 0.90471 0.0
H71 H 0.35369 0.44381 0.85949 0.0
Co72 Co 0.35538 0.36806 0.82037 0.0
C73 C 0.3961 0.29629 0.84901 0.0
O74 O 0.43065 0.30202 0.84464 0.0
N75 N 0.34882 0.34972 0.76867 0.0
C76 C 0.35831 0.3385 0.70576 0.0
C77 C 0.37307 0.33745 0.74274 0.0
C78 C 0.3193 0.35661 0.74657 0.0
N79 N 0.32433 0.35071 0.70839 0.0
O80 O 0.33292 0.41095 0.80257 0.0
H81 H 0.40078 0.33154 0.7496 0.0
H82 H 0.29533 0.36955 0.75713 0.0
O83 O 0.37453 0.32156 0.83968 0.0
C84 C 0.30396 0.42841 0.80723 0.0
O85 O 0.30172 0.45856 0.78827 0.0
N86 N 0.4018 0.38863 0.80695 0.0
C87 C 0.45479 0.44196 0.80178 0.0
C88 C 0.45661 0.41569 0.83065 0.0
C89 C 0.42993 0.38911 0.8326 0.0
C90 C 0.40257 0.41148 0.77602 0.0
C91 C 0.42833 0.43841 0.77325 0.0
H92 H 0.43024 0.37108 0.85692 0.0
H93 H 0.38124 0.41132 0.75485 0.0
H94 H 0.37333 0.34418 0.90817 0.0
H95 H 0.36976 0.45352 0.93127 0.0
H96 H 0.37221 0.3329 0.67887 0.0
H97 H 0.47714 0.41697 0.85282 0.0
H98 H 0.42638 0.45759 0.74994 0.0
C99 C 0.58752 0.86953 0.11602 0.0
C100 C 0.58244 0.87296 0.15534 0.0
N101 N 0.61404 0.88178 0.17155 0.0
N102 N 0.62231 0.87556 0.10734 0.0
C103 C 0.63766 0.88383 0.14178 0.0
H104 H 0.56738 0.86161 0.09519 0.0
Co105 Co 0.64146 0.86655 0.05781 0.0
C106 C 0.7189 0.89797 0.08486 0.0
O107 O 0.73091 0.92554 0.0655 0.0
N108 N 0.65898 0.85498 1.00717 0.0
C109 C 0.69417 0.84017 0.95717 0.0
C110 C 0.69119 0.86084 0.99034 0.0
C111 C 0.64283 0.83106 0.98315 0.0
N112 N 0.66371 0.82127 0.95287 0.0
O113 O 0.65577 0.82266 0.07412 0.0
H114 H 0.7121 0.87734 1.00244 0.0
H115 H 0.61678 0.81951 0.98853 0.0
O116 O 0.68846 0.88463 0.07534 0.0
C117 C 0.63089 0.80001 0.07119 0.0
O118 O 0.60035 0.81045 0.05586 0.0
N119 N 0.62394 0.91032 0.04154 0.0
C120 C 0.57212 0.96518 0.0357 0.0
C121 C 0.60339 0.96873 0.05903 0.0
C122 C 0.62909 0.94138 0.06099 0.0
C123 C 0.59427 0.90578 0.01928 0.0
C124 C 0.56818 0.93217 0.01658 0.0
H125 H 0.65103 0.94372 0.08136 0.0
H126 H 0.58874 0.87999 1.00689 0.0
H127 H 0.66596 0.88885 0.14564 0.0
H128 H 0.55773 0.86825 0.17107 0.0
H129 H 0.71755 0.83795 0.93866 0.0
H130 H 0.608 0.99065 0.07819 0.0
H131 H 0.5438 0.92521 1.00138 0.0
C132 C 0.14059 0.43201 0.89487 0.0
C133 C 0.13226 0.43777 0.85674 0.0
N134 N 0.12649 0.40627 0.83878 0.0
N135 N 0.14229 0.39693 0.90142 0.0
C136 C 0.13548 0.38198 0.86644 0.0
H137 H 0.1456 0.45225 0.91643 0.0
Co138 Co 0.15329 0.37781 0.95048 0.0
C139 C 0.12524 0.3033 0.91901 0.0
O140 O 0.09087 0.31044 0.92119 0.0
N141 N 0.1671 0.35961 1.00056 0.0
C142 C 0.18488 0.32362 0.04846 0.0
C143 C 0.1649 0.32621 0.01468 0.0
C144 C 0.18825 0.37676 0.02688 0.0
N145 N 0.19969 0.35552 0.05612 0.0
O146 O 0.20106 0.37576 0.93533 0.0
H147 H 0.15123 0.30449 1.00047 0.0
H148 H 0.19641 0.40415 0.02416 0.0
O149 O 0.14734 0.32779 0.92937 0.0
C150 C 0.21587 0.40598 0.9398 0.0
O151 O 0.19842 0.43026 0.95952 0.0
N152 N 0.10447 0.3861 0.96631 0.0
C153 C 0.05079 0.43872 0.97235 0.0
C154 C 0.04915 0.41274 0.94322 0.0
C155 C 0.07636 0.38678 0.94053 0.0
C156 C 0.10358 0.40869 0.9974 0.0
C157 C 0.0773 0.4351 1.00079 0.0
H158 H 0.07732 0.37142 0.91425 0.0
H159 H 0.12593 0.41017 0.01707 0.0
H160 H 0.13865 0.35394 0.8615 0.0
H161 H 0.13182 0.46372 0.84338 0.0
H162 H 0.18925 0.29978 0.06535 0.0
H163 H 0.02905 0.41455 0.92063 0.0
H164 H 0.07946 0.45446 0.02394 0.0
C165 C 0.58278 0.63339 0.14763 0.0
C166 C 0.5783 0.62951 0.10824 0.0
N167 N 0.61075 0.62396 0.09208 0.0
N168 N 0.61799 0.63108 0.15642 0.0
C169 C 0.63432 0.625 0.12185 0.0
H170 H 0.56174 0.63868 0.16846 0.0
Co171 Co 0.63725 0.64173 0.20578 0.0
C172 C 0.71433 0.61425 0.17984 0.0
O173 O 0.71719 0.58334 0.19721 0.0
N174 N 0.65554 0.65503 0.25601 0.0
C175 C 0.67697 0.65584 0.31657 0.0
C176 C 0.67548 0.63689 0.28201 0.0
C177 C 0.64597 0.68509 0.27555 0.0
N178 N 0.6583 0.68633 0.31237 0.0
O179 O 0.64283 0.6867 0.19003 0.0
H180 H 0.68676 0.61082 0.27687 0.0
H181 H 0.62855 0.70534 0.26415 0.0
O182 O 0.68589 0.63283 0.18457 0.0
C183 C 0.61446 0.70521 0.19157 0.0
O184 O 0.58589 0.69267 0.20919 0.0
N185 N 0.62689 0.5956 0.222 0.0
C186 C 0.57517 0.54067 0.22928 0.0
C187 C 0.60357 0.53898 0.20167 0.0
C188 C 0.62945 0.56619 0.19912 0.0
C189 C 0.60028 0.59797 0.24884 0.0
C190 C 0.5743 0.57167 0.25235 0.0
H191 H 0.64845 0.56575 0.17539 0.0
H192 H 0.59595 0.62269 0.26411 0.0
H193 H 0.66299 0.6225 0.11801 0.0
H194 H 0.55317 0.63076 0.09256 0.0
H195 H 0.68988 0.64734 0.3431 0.0
H196 H 0.60508 0.51908 0.17945 0.0
H197 H 0.55186 0.57789 0.27101 0.0
C198 C 0.37702 0.07508 0.4025 0.0
C199 C 0.37943 0.06756 0.36363 0.0
N200 N 0.38179 0.0985 0.34433 0.0
N201 N 0.37714 0.11061 0.40767 0.0
C202 C 0.38053 0.12421 0.37157 0.0
H203 H 0.37388 0.05588 0.42555 0.0
Co204 Co 0.36669 0.13117 0.45569 0.0
C205 C 0.3932 0.20438 0.41671 0.0
O206 O 0.4278 0.19836 0.41385 0.0
N207 N 0.35351 0.15005 0.50525 0.0
C208 C 0.35175 0.17626 0.56335 0.0
C209 C 0.36962 0.17443 0.52804 0.0
C210 C 0.32576 0.13787 0.52734 0.0
N211 N 0.32405 0.15318 0.56277 0.0
O212 O 0.31986 0.13514 0.43977 0.0
H213 H 0.39361 0.18891 0.52013 0.0
H214 H 0.3078 0.11691 0.51865 0.0
O215 O 0.37328 0.18074 0.43306 0.0
C216 C 0.30205 0.10646 0.44076 0.0
O217 O 0.31516 0.07978 0.46063 0.0
N218 N 0.41456 0.1217 0.47173 0.0
C219 C 0.47146 0.07112 0.48033 0.0
C220 C 0.47097 0.09674 0.45014 0.0
C221 C 0.44317 0.12195 0.44692 0.0
C222 C 0.41385 0.09715 0.50075 0.0
C223 C 0.44093 0.07161 0.50481 0.0
H224 H 0.44213 0.13741 0.42075 0.0
H225 H 0.38968 0.09372 0.51766 0.0
H226 H 0.38032 0.1522 0.36481 0.0
H227 H 0.37881 0.04149 0.35038 0.0
H228 H 0.35923 0.19244 0.58799 0.0
H229 H 0.48955 0.09583 0.42623 0.0
H230 H 0.43531 0.05055 0.52506 0.0
C231 C 0.93883 0.87905 0.65076 0.0
C232 C 0.94494 0.88163 0.61141 0.0
N233 N 0.91351 0.87667 0.59279 0.0
N234 N 0.90377 0.87213 0.65697 0.0
C235 C 0.88938 0.87006 0.62112 0.0
H236 H 0.95871 0.8816 0.67342 0.0
Co237 Co 0.88189 0.86219 0.70489 0.0
C238 C 0.80428 0.88781 0.6774 0.0
O239 O 0.7992 0.91528 0.70022 0.0
N240 N 0.86099 0.84959 0.75435 0.0
C241 C 0.84191 0.85042 0.81593 0.0
C242 C 0.84392 0.86936 0.78139 0.0
C243 C 0.86791 0.81854 0.77322 0.0
N244 N 0.8572 0.81827 0.81067 0.0
O245 O 0.87945 0.81602 0.69005 0.0
H246 H 0.83587 0.89672 0.77729 0.0
H247 H 0.88341 0.7972 0.76123 0.0
O248 O 0.83349 0.8698 0.68006 0.0
C249 C 0.90955 0.80033 0.69346 0.0
O250 O 0.93614 0.81614 0.71155 0.0
N251 N 0.88996 0.90917 0.7203 0.0
C252 C 0.93916 0.96635 0.72915 0.0
C253 C 0.91204 0.96637 0.70002 0.0
C254 C 0.88733 0.93809 0.69671 0.0
C255 C 0.91573 0.90812 0.74814 0.0
C256 C 0.94051 0.93548 0.75239 0.0
H257 H 0.86945 0.93733 0.67202 0.0
H258 H 0.92044 0.8837 0.76384 0.0
H259 H 0.86217 0.86199 0.61568 0.0
H260 H 0.97034 0.88744 0.59751 0.0
H261 H 0.83171 0.86027 0.8433 0.0
H262 H 0.91101 0.98581 0.67725 0.0
H263 H 0.96251 0.93021 0.77191 0.0
C264 C 0.64745 0.57484 0.87417 0.0
C265 C 0.64297 0.56938 0.91331 0.0
N266 N 0.63699 0.60105 0.9302 0.0
N267 N 0.64483 0.60985 0.86633 0.0
C268 C 0.63808 0.62513 0.9012 0.0
H269 H 0.65294 0.55458 0.85274 0.0
Co270 Co 0.65384 0.62857 0.81665 0.0
C271 C 0.62685 0.70406 0.84938 0.0
O272 O 0.5918 0.70108 0.84704 0.0
N273 N 0.66535 0.64616 0.76503 0.0
C274 C 0.66121 0.65625 0.70118 0.0
C275 C 0.64286 0.65596 0.73619 0.0
C276 C 0.69764 0.64264 0.74654 0.0
N277 N 0.69578 0.64751 0.70768 0.0
O278 O 0.70083 0.63383 0.83095 0.0
H279 H 0.61425 0.65975 0.73964 0.0
H280 H 0.72209 0.63407 0.76034 0.0
O281 O 0.64642 0.67815 0.83737 0.0
C282 C 0.71855 0.60523 0.82715 0.0
O283 O 0.70497 0.57997 0.80543 0.0
N284 N 0.60596 0.61715 0.80274 0.0
C285 C 0.5474 0.56835 0.79585 0.0
C286 C 0.54791 0.59599 0.82401 0.0
C287 C 0.57677 0.62021 0.82648 0.0
C288 C 0.60721 0.58978 0.77692 0.0
C289 C 0.57917 0.56528 0.7736 0.0
H290 H 0.57755 0.63806 0.85089 0.0
H291 H 0.63203 0.58423 0.76176 0.0
H292 H 0.63424 0.65324 0.90569 0.0
H293 H 0.64393 0.54414 0.9283 0.0
H294 H 0.64954 0.66058 0.67284 0.0
H295 H 0.52832 0.59776 0.84685 0.0
H296 H 0.58443 0.54245 0.75554 0.0
C297 C 0.42406 0.13079 0.12806 0.0
C298 C 0.42642 0.12598 0.16736 0.0
N299 N 0.39377 0.11694 0.18091 0.0
N300 N 0.38968 0.12662 0.11657 0.0
C301 C 0.3723 0.11636 0.14932 0.0
H302 H 0.44627 0.13733 0.10927 0.0
Co303 Co 0.37257 0.13955 0.06643 0.0
C304 C 0.29494 0.11505 0.09652 0.0
O305 O 0.29916 0.08043 0.09586 0.0
N306 N 0.35701 0.15462 0.01629 0.0
C307 C 0.33242 0.15988 0.9576 0.0
C308 C 0.33209 0.14098 0.99213 0.0
C309 C 0.37195 0.18177 0.99573 0.0
N310 N 0.35763 0.1855 0.95998 0.0
O311 O 0.36894 0.18622 0.08267 0.0
H312 H 0.31533 0.11834 0.99885 0.0
H313 H 0.39354 0.19827 1.00621 0.0
O314 O 0.32152 0.13429 0.0854 0.0
C315 C 0.39942 0.20064 0.08543 0.0
O316 O 0.4269 0.18517 0.06845 0.0
N317 N 0.38156 0.09243 0.04901 0.0
C318 C 0.43636 0.04157 0.04313 0.0
C319 C 0.40839 0.0372 0.07011 0.0
C320 C 0.381 0.06307 0.07256 0.0
C321 C 0.40631 0.09417 0.01975 0.0
C322 C 0.43368 0.06921 0.01637 0.0
H323 H 0.36276 0.06175 0.09677 0.0
H324 H 0.40885 0.11767 1.00217 0.0
H325 H 0.34445 0.10872 0.15031 0.0
H326 H 0.4505 0.12843 0.18473 0.0
H327 H 0.31564 0.15501 0.93256 0.0
H328 H 0.40941 0.01588 0.09114 0.0
H329 H 0.45459 0.07338 0.99496 0.0
C330 C 0.86426 0.92591 0.37884 0.0
C331 C 0.8706 0.9295 0.41788 0.0
N332 N 0.88175 0.89795 0.43173 0.0
N333 N 0.8704 0.89202 0.36799 0.0
C334 C 0.88158 0.87571 0.40091 0.0
H335 H 0.85496 0.94667 0.3597 0.0
Co336 Co 0.85929 0.87463 0.31816 0.0
C337 C 0.88454 0.79778 0.34723 0.0
O338 O 0.9195 0.79996 0.34294 0.0
N339 N 0.84618 0.85793 0.26681 0.0
C340 C 0.85006 0.84548 0.20347 0.0
C341 C 0.86802 0.84539 0.23861 0.0
C342 C 0.81445 0.86348 0.24793 0.0
N343 N 0.81627 0.85717 0.2093 0.0
O344 O 0.81168 0.87151 0.33386 0.0
H345 H 0.89612 0.83911 0.2426 0.0
H346 H 0.79062 0.87419 0.26126 0.0
O347 O 0.86533 0.82462 0.33743 0.0
C348 C 0.79538 0.9009 0.32924 0.0
O349 O 0.81063 0.92487 0.30707 0.0
N350 N 0.90723 0.88407 0.30262 0.0
C351 C 0.96977 0.92578 0.28759 0.0
C352 C 0.96877 0.89942 0.31711 0.0
C353 C 0.93772 0.87879 0.32376 0.0
C354 C 0.90652 0.91095 0.27619 0.0
C355 C 0.93666 0.93195 0.26878 0.0
H356 H 0.93727 0.86161 0.34871 0.0
H357 H 0.88127 0.91843 0.26303 0.0
H358 H 0.88883 0.848 0.40283 0.0
H359 H 0.86728 0.95344 0.43492 0.0
H360 H 0.86152 0.83913 0.17546 0.0
H361 H 0.99008 0.89587 0.3377 0.0
H362 H 0.93267 0.95448 0.24989 0.0
C363 C 0.08759 0.39449 0.61617 0.0
C364 C 0.08129 0.39904 0.65518 0.0
N365 N 0.11211 0.39285 0.67437 0.0
N366 N 0.12226 0.38554 0.61068 0.0
C367 C 0.1366 0.38488 0.64685 0.0
H368 H 0.06798 0.39685 0.59322 0.0
Co369 Co 0.14274 0.37225 0.56281 0.0
C370 C 0.21896 0.39368 0.59263 0.0
O371 O 0.22201 0.42457 0.57524 0.0
N372 N 0.16366 0.35666 0.51455 0.0
C373 C 0.20172 0.34324 0.46652 0.0
C374 C 0.1966 0.36319 0.49981 0.0
C375 C 0.14915 0.3331 0.48902 0.0
N376 N 0.17165 0.32446 0.45932 0.0
O377 O 0.13977 0.32574 0.57894 0.0
H378 H 0.21626 0.38053 0.51283 0.0
H379 H 0.12273 0.32162 0.49273 0.0
O380 O 0.19074 0.37491 0.58752 0.0
C381 C 0.10766 0.31402 0.57874 0.0
O382 O 0.08216 0.33187 0.56111 0.0
N383 N 0.13951 0.41993 0.54579 0.0
C384 C 0.08481 0.47109 0.54206 0.0
C385 C 0.11291 0.4745 0.56914 0.0
C386 C 0.14018 0.44837 0.57065 0.0
C387 C 0.11574 0.41991 0.51565 0.0
C388 C 0.08804 0.44473 0.51368 0.0
H389 H 0.15793 0.44811 0.59542 0.0
H390 H 0.11384 0.39729 0.49661 0.0
H391 H 0.16411 0.37787 0.6533 0.0
H392 H 0.05598 0.40613 0.66857 0.0
H393 H 0.2261 0.34201 0.44945 0.0
H394 H 0.11194 0.49506 0.59109 0.0
H395 H 0.0674 0.44141 0.49185 0.0
C396 C 0.65337 0.92346 0.38819 0.0
C397 C 0.64781 0.92664 0.3491 0.0
N398 N 0.64058 0.89432 0.33458 0.0
N399 N 0.65108 0.88894 0.39888 0.0
C400 C 0.6423 0.87195 0.36536 0.0
H401 H 0.65794 0.94559 0.4074 0.0
Co402 Co 0.65866 0.87073 0.45031 0.0
C403 C 0.62329 0.79495 0.42815 0.0
O404 O 0.5952 0.78935 0.45039 0.0
N405 N 0.66798 0.85311 0.50276 0.0
C406 C 0.67668 0.81985 0.55595 0.0
C407 C 0.65875 0.8225 0.52069 0.0
C408 C 0.69094 0.86862 0.52865 0.0
N409 N 0.69717 0.84901 0.56069 0.0
O410 O 0.67885 0.91525 0.46589 0.0
H411 H 0.64133 0.8025 0.50849 0.0
H412 H 0.70501 0.89318 0.52368 0.0
O413 O 0.64126 0.82376 0.43228 0.0
C414 C 0.70809 0.93208 0.46043 0.0
O415 O 0.71028 0.96364 0.47646 0.0
N416 N 0.61186 0.88867 0.46511 0.0
C417 C 0.55827 0.94099 0.47196 0.0
C418 C 0.55649 0.91519 0.44251 0.0
C419 C 0.58352 0.88898 0.43976 0.0
C420 C 0.61067 0.9104 0.49694 0.0
C421 C 0.58459 0.93691 0.50054 0.0
H422 H 0.5834 0.87123 0.41513 0.0
H423 H 0.63216 0.91028 0.51786 0.0
H424 H 0.63683 0.84381 0.36337 0.0
H425 H 0.64798 0.95112 0.33262 0.0
H426 H 0.67565 0.79765 0.57586 0.0
H427 H 0.53594 0.9168 0.42038 0.0
H428 H 0.58645 0.95567 0.52429 0.0
C429 C 0.08986 0.13645 0.64754 0.0
C430 C 0.08547 0.13357 0.60823 0.0
N431 N 0.11754 0.12619 0.59201 0.0
N432 N 0.12479 0.13215 0.65652 0.0
C433 C 0.14085 0.1247 0.62211 0.0
H434 H 0.06885 0.14208 0.66827 0.0
Co435 Co 0.1426 0.14246 0.70652 0.0
C436 C 0.21727 0.11132 0.67713 0.0
O437 O 0.20893 0.0775 0.67719 0.0
N438 N 0.15911 0.15575 0.75718 0.0
C439 C 0.18623 0.16121 0.81465 0.0
C440 C 0.18437 0.14159 0.78057 0.0
C441 C 0.14618 0.1839 0.77783 0.0
N442 N 0.16225 0.18804 0.8127 0.0
O443 O 0.15 0.1886 0.69082 0.0
H444 H 0.20023 0.11839 0.77349 0.0
H445 H 0.12478 0.20099 0.76803 0.0
O446 O 0.19303 0.13344 0.68806 0.0
C447 C 0.12196 0.20749 0.68977 0.0
O448 O 0.09226 0.1945 0.70471 0.0
N449 N 0.13015 0.0955 0.72268 0.0
C450 C 0.07373 0.04612 0.72775 0.0
C451 C 0.10097 0.04192 0.69996 0.0
C452 C 0.12892 0.06708 0.69774 0.0
C453 C 0.10609 0.09707 0.75261 0.0
C454 C 0.07784 0.07284 0.75557 0.0
H455 H 0.14586 0.0663 0.67246 0.0
H456 H 0.10516 0.11996 0.77139 0.0
H457 H 0.16904 0.11866 0.61896 0.0
H458 H 0.06044 0.13645 0.59258 0.0
H459 H 0.20369 0.15604 0.83907 0.0
H460 H 0.09881 0.02148 0.67798 0.0
H461 H 0.05754 0.07685 0.77768 0.0
C462 C 0.8627 0.58722 0.89052 0.0
C463 C 0.86792 0.58378 0.85137 0.0
N464 N 0.8743 0.61615 0.83658 0.0
N465 N 0.86484 0.62185 0.90085 0.0
C466 C 0.87277 0.63878 0.86714 0.0
H467 H 0.8583 0.56534 0.91017 0.0
Co468 Co 0.85813 0.63918 0.95257 0.0
C469 C 0.8961 0.71408 0.92882 0.0
O470 O 0.92462 0.72423 0.94827 0.0
N471 N 0.84994 0.65503 1.00514 0.0
C472 C 0.85661 0.66274 0.06904 0.0
C473 C 0.87353 0.66408 0.03316 0.0
C474 C 0.81866 0.64968 0.02498 0.0
N475 N 0.82196 0.65345 0.06379 0.0
O476 O 0.83325 0.59712 0.96644 0.0
H477 H 0.90193 0.66822 0.02833 0.0
H478 H 0.79426 0.6398 0.01193 0.0
O479 O 0.88117 0.68456 0.93822 0.0
C480 C 0.80315 0.58214 0.96113 0.0
O481 O 0.79895 0.55118 0.97809 0.0
N482 N 0.90282 0.61625 0.96664 0.0
C483 C 0.96064 0.56673 0.97511 0.0
C484 C 0.96004 0.59285 0.94539 0.0
C485 C 0.93197 0.61784 0.94266 0.0
C486 C 0.90236 0.59129 0.99535 0.0
C487 C 0.92975 0.56605 0.99902 0.0
H488 H 0.93235 0.63663 0.91896 0.0
H489 H 0.87936 0.58892 0.0143 0.0
H490 H 0.87734 0.66702 0.86482 0.0
H491 H 0.86793 0.55923 0.835 0.0
H492 H 0.86933 0.66629 0.09697 0.0
H493 H 0.97938 0.59338 0.92221 0.0
H494 H 0.92482 0.54494 0.01944 0.0
C495 C 0.43523 0.39073 0.15154 0.0
C496 C 0.44095 0.39415 0.11226 0.0
N497 N 0.41094 0.3838 0.09373 0.0
N498 N 0.40159 0.37878 0.15766 0.0
C499 C 0.38774 0.37415 0.12175 0.0
H500 H 0.45442 0.39623 0.17427 0.0
Co501 Co 0.38109 0.36649 0.20545 0.0
C502 C 0.30383 0.38934 0.17739 0.0
O503 O 0.29949 0.41773 0.199 0.0
N504 N 0.36119 0.35135 0.25415 0.0
C505 C 0.32939 0.34294 0.30838 0.0
C506 C 0.33247 0.36273 0.27458 0.0
C507 C 0.37502 0.32473 0.2764 0.0
N508 N 0.3561 0.31873 0.30928 0.0
O509 O 0.38329 0.32005 0.19006 0.0
H510 H 0.31492 0.38409 0.2657 0.0
H511 H 0.39911 0.31029 0.26922 0.0
O512 O 0.33261 0.37078 0.18042 0.0
C513 C 0.41543 0.3088 0.19308 0.0
O514 O 0.43992 0.32827 0.21036 0.0
N515 N 0.38489 0.41409 0.22191 0.0
C516 C 0.43799 0.46659 0.22459 0.0
C517 C 0.40921 0.46944 0.19829 0.0
C518 C 0.38275 0.44257 0.19728 0.0
C519 C 0.4094 0.41434 0.25127 0.0
C520 C 0.43629 0.43995 0.2528 0.0
H521 H 0.36433 0.44195 0.17313 0.0
H522 H 0.41236 0.3915 0.2699 0.0
H523 H 0.36158 0.36298 0.116 0.0
H524 H 0.4651 0.40382 0.09831 0.0
H525 H 0.30886 0.34583 0.33039 0.0
H526 H 0.40906 0.49017 0.17654 0.0
H527 H 0.45754 0.43705 0.27401 0.0
C528 C 0.09452 0.10117 0.49055 0.0
C529 C 0.12095 0.11921 0.46856 0.0
C530 C 0.14918 0.13967 0.52911 0.0
C531 C 0.1233 0.1201 0.55088 0.0
N532 N 0.08052 0.07238 0.55131 0.0
N533 N 0.17799 0.1491 0.46677 0.0
C534 C 0.09885 0.09775 0.53114 0.0
C535 C 0.14958 0.13675 0.48779 0.0
N536 N 0.06446 0.08839 0.47275 0.0
N537 N 0.17314 0.16122 0.54752 0.0
H538 H 0.18027 0.14545 0.43696 0.0
H539 H 0.20095 0.15989 0.47914 0.0
H540 H 0.17503 0.16312 0.57736 0.0
H541 H 0.18976 0.17925 0.53334 0.0
H542 H 0.0429 0.07751 0.48793 0.0
H543 H 0.05939 0.09229 0.44331 0.0
H544 H 0.0645 0.05325 0.53799 0.0
H545 H 0.08491 0.06792 0.58081 0.0
C546 C 0.85873 0.64232 0.77259 0.0
C547 C 0.88289 0.62306 0.79635 0.0
C548 C 0.91757 0.60569 0.73872 0.0
C549 C 0.89364 0.62526 0.7149 0.0
N550 N 0.83734 0.6567 0.70841 0.0
N551 N 0.9392 0.59283 0.80364 0.0
C552 C 0.86302 0.64196 0.73158 0.0
C553 C 0.91341 0.60646 0.77974 0.0
N554 N 0.83283 0.66281 0.7894 0.0
N555 N 0.94284 0.58446 0.72169 0.0
H556 H 0.93738 0.5945 0.83378 0.0
H557 H 0.9638 0.58315 0.79395 0.0
H558 H 0.945 0.58173 0.69168 0.0
H559 H 0.95909 0.56681 0.7369 0.0
H560 H 0.81701 0.68095 0.77432 0.0
H561 H 0.82956 0.66443 0.81918 0.0
H562 H 0.81151 0.66271 0.71801 0.0
H563 H 0.84121 0.66252 0.67929 0.0
C564 C 0.40123 0.35508 0.02968 0.0
C565 C 0.40427 0.38621 0.05264 0.0
C566 C 0.40609 0.42207 0.9938 0.0
C567 C 0.39624 0.392 0.97128 0.0
N568 N 0.41162 0.33006 0.96624 0.0
N569 N 0.40427 0.45 0.05673 0.0
C570 C 0.40081 0.35803 0.9885 0.0
C571 C 0.40524 0.41989 0.0347 0.0
N572 N 0.39903 0.32268 0.04711 0.0
N573 N 0.42132 0.45087 0.97636 0.0
H574 H 0.40228 0.44936 0.08691 0.0
H575 H 0.40165 0.47527 0.04468 0.0
H576 H 0.42876 0.45044 0.94717 0.0
H577 H 0.43146 0.47246 0.99181 0.0
H578 H 0.39274 0.29951 0.03201 0.0
H579 H 0.40074 0.31952 0.07703 0.0
H580 H 0.41744 0.305 0.9774 0.0
H581 H 0.42169 0.33397 0.93834 0.0
C582 C 0.65127 0.86295 0.27165 0.0
C583 C 0.63115 0.88726 0.29446 0.0
C584 C 0.60163 0.90935 0.23535 0.0
C585 C 0.62098 0.88439 0.21275 0.0
N586 N 0.66275 0.83493 0.21117 0.0
N587 N 0.57988 0.9259 0.29913 0.0
C588 C 0.64511 0.86062 0.23124 0.0
C589 C 0.60415 0.90824 0.27652 0.0
N590 N 0.67656 0.84159 0.28814 0.0
N591 N 0.58219 0.93526 0.21728 0.0
H592 H 0.57972 0.92367 0.32929 0.0
H593 H 0.55767 0.9393 0.28803 0.0
H594 H 0.58107 0.93757 0.18716 0.0
H595 H 0.5703 0.95641 0.23194 0.0
H596 H 0.69199 0.82358 0.2722 0.0
H597 H 0.68212 0.84171 0.31752 0.0
H598 H 0.65936 0.83001 0.18169 0.0
H599 H 0.65936 0.83001 0.18169 0.0
C600 C 0.12104 0.36471 0.73884 0.0
C601 C 0.11698 0.39565 0.7158 0.0
C602 C 0.10645 0.43056 0.77453 0.0
C603 C 0.11634 0.40107 0.79796 0.0
N604 N 0.10648 0.33785 0.8003 0.0
N605 N 0.11092 0.45904 0.71192 0.0
C606 C 0.11688 0.36709 0.77986 0.0
C607 C 0.11125 0.42886 0.73381 0.0
N608 N 0.12841 0.33293 0.72163 0.0
N609 N 0.08718 0.45781 0.79026 0.0
H610 H 0.11516 0.45866 0.682 0.0
H611 H 0.11012 0.48439 0.7241 0.0
H612 H 0.07662 0.45628 0.81825 0.0
H613 H 0.07689 0.47875 0.77391 0.0
H614 H 0.13566 0.31039 0.73734 0.0
H615 H 0.13014 0.32992 0.69168 0.0
H616 H 0.10418 0.31261 0.78814 0.0
H617 H 0.0934 0.34026 0.82692 0.0
C618 C 0.60164 0.58994 0.98976 0.0
C619 C 0.63043 0.60743 0.97093 0.0
C620 C 0.64409 0.63895 0.03141 0.0
C621 C 0.61824 0.618 0.05135 0.0
N622 N 0.57926 0.56686 0.0505 0.0
N623 N 0.6845 0.64215 0.97639 0.0
C624 C 0.59892 0.59155 0.03077 0.0
C625 C 0.6533 0.63015 0.99249 0.0
N626 N 0.57616 0.5728 0.96837 0.0
N627 N 0.65854 0.6682 0.04881 0.0
H628 H 0.69278 0.63477 0.94862 0.0
H629 H 0.70376 0.65616 0.99208 0.0
H630 H 0.65066 0.67684 0.07625 0.0
H631 H 0.67525 0.68597 0.03427 0.0
H632 H 0.55286 0.56223 0.98052 0.0
H633 H 0.5764 0.57264 0.93813 0.0
H634 H 0.56706 0.54525 0.03698 0.0
H635 H 0.57875 0.56563 0.0807 0.0
C636 C 0.41107 0.08596 0.28176 0.0
C637 C 0.38318 0.10264 0.30282 0.0
C638 C 0.35809 0.12616 0.24217 0.0
C639 C 0.38571 0.10828 0.22098 0.0
N640 N 0.43004 0.06184 0.2201 0.0
N641 N 0.32616 0.13277 0.30333 0.0
C642 C 0.40954 0.08524 0.24078 0.0
C643 C 0.35555 0.12123 0.2831 0.0
N644 N 0.43995 0.07219 0.30096 0.0
N645 N 0.33443 0.14797 0.22365 0.0
H646 H 0.32249 0.12773 0.33276 0.0
H647 H 0.30373 0.14453 0.29075 0.0
H648 H 0.33215 0.14946 0.19384 0.0
H649 H 0.3173 0.16555 0.23782 0.0
H650 H 0.46272 0.06256 0.28685 0.0
H651 H 0.44279 0.07389 0.33099 0.0
H652 H 0.44588 0.04233 0.233 0.0
H653 H 0.42777 0.05929 0.19006 0.0
C654 C 0.91613 0.91294 0.4908 0.0
C655 C 0.89159 0.89035 0.47149 0.0
C656 C 0.88632 0.85482 0.53094 0.0
C657 C 0.9064 0.88078 0.55165 0.0
N658 N 0.93135 0.94005 0.55192 0.0
N659 N 0.84779 0.84333 0.47578 0.0
C660 C 0.91895 0.91137 0.53175 0.0
C661 C 0.87523 0.86206 0.49218 0.0
N662 N 0.93745 0.93539 0.46995 0.0
N663 N 0.87843 0.82304 0.54786 0.0
H664 H 0.83682 0.84981 0.44894 0.0
H665 H 0.83332 0.82394 0.49055 0.0
H666 H 0.88679 0.81656 0.57572 0.0
H667 H 0.86692 0.80186 0.53289 0.0
H668 H 0.95783 0.95044 0.48256 0.0
H669 H 0.93754 0.93567 0.4397 0.0
H670 H 0.9381 0.96398 0.53858 0.0
H671 H 0.93043 0.9416 0.58207 0.0
C672 C 0.23178 0.10901 0.12597 0.0
C673 C 0.26268 0.13062 0.11891 0.0
C674 C 0.23939 0.17331 0.16795 0.0
C675 C 0.21041 0.15036 0.17687 0.0
N676 N 0.18053 0.09474 0.16715 0.0
N677 N 0.28379 0.19143 0.12071 0.0
C678 C 0.20702 0.11782 0.15647 0.0
C679 C 0.26337 0.16508 0.13654 0.0
N680 N 0.22411 0.08195 0.10089 0.0
N681 N 0.24441 0.20291 0.19016 0.0
H682 H 0.29635 0.18891 0.09392 0.0
H683 H 0.2836 0.21754 0.13068 0.0
H684 H 0.22679 0.20995 0.21245 0.0
H685 H 0.26744 0.21856 0.18868 0.0
H686 H 0.2008 0.06676 0.10218 0.0
H687 H 0.23859 0.07785 0.07538 0.0
H688 H 0.1789 0.06866 0.15727 0.0
H689 H 0.16153 0.10093 0.18834 0.0
C690 C 0.88039 0.70453 0.39374 0.0
C691 C 0.85562 0.71015 0.42431 0.0
C692 C 0.84073 0.76906 0.39709 0.0
C693 C 0.86921 0.7658 0.36926 0.0
N694 N 0.90837 0.72609 0.3343 0.0
N695 N 0.81463 0.74841 0.45785 0.0
C696 C 0.88687 0.73213 0.36579 0.0
C697 C 0.83635 0.74253 0.42652 0.0
N698 N 0.8977 0.67253 0.39183 0.0
N699 N 0.81636 0.79608 0.39447 0.0
H700 H 0.81087 0.72958 0.47965 0.0
H701 H 0.80257 0.77271 0.46398 0.0
H702 H 0.8153 0.81376 0.37155 0.0
H703 H 0.7936 0.79804 0.41187 0.0
H704 H 0.91758 0.66606 0.3719 0.0
H705 H 0.89232 0.65191 0.41119 0.0
H706 H 0.92287 0.70295 0.32935 0.0
H707 H 0.90972 0.74366 0.31097 0.0
C708 C 0.28822 0.33715 0.64879 0.0
C709 C 0.30004 0.36169 0.67739 0.0
C710 C 0.25577 0.40505 0.65317 0.0
C711 C 0.24677 0.38222 0.62183 0.0
N712 N 0.25934 0.32833 0.58638 0.0
N713 N 0.30146 0.42255 0.69915 0.0
C714 C 0.26441 0.34872 0.61866 0.0
C715 C 0.28561 0.39668 0.67732 0.0
N716 N 0.2984 0.30239 0.65132 0.0
N717 N 0.23486 0.43397 0.66122 0.0
H718 H 0.32506 0.41819 0.71464 0.0
H719 H 0.29377 0.44916 0.69798 0.0
H720 H 0.21191 0.44034 0.64536 0.0
H721 H 0.23806 0.44924 0.6862 0.0
H722 H 0.28795 0.28247 0.63367 0.0
H723 H 0.31484 0.29288 0.67345 0.0
H724 H 0.27431 0.30558 0.58047 0.0
H725 H 0.24241 0.33587 0.56379 0.0
C726 C 0.67225 0.75875 0.93089 0.0
C727 C 0.65689 0.79275 0.92516 0.0
C728 C 0.62693 0.77034 0.86602 0.0
C729 C 0.64234 0.73583 0.87161 0.0
N730 N 0.68996 0.70242 0.90338 0.0
N731 N 0.62383 0.8329 0.88514 0.0
C732 C 0.66813 0.73155 0.90214 0.0
C733 C 0.63541 0.79903 0.89202 0.0
N734 N 0.68981 0.75196 0.96485 0.0
N735 N 0.60447 0.77579 0.83527 0.0
H736 H 0.62938 0.85385 0.90404 0.0
H737 H 0.61064 0.84091 0.86007 0.0
H738 H 0.60166 0.75743 0.81282 0.0
H739 H 0.58848 0.79823 0.83186 0.0
H740 H 0.69779 0.7266 0.97335 0.0
H741 H 0.69346 0.77124 0.98623 0.0
H742 H 0.71157 0.70013 0.92237 0.0
H743 H 0.68992 0.68241 0.88279 0.0
C744 C 0.26046 0.3764 0.07707 0.0
C745 C 0.22554 0.36404 0.08667 0.0
C746 C 0.24281 0.36542 0.15598 0.0
C747 C 0.27652 0.38088 0.14629 0.0
N748 N 0.31225 0.41034 0.09761 0.0
N749 N 0.18134 0.35308 0.13602 0.0
C750 C 0.28385 0.38903 0.10681 0.0
C751 C 0.21617 0.3602 0.12643 0.0
N752 N 0.27204 0.37451 0.03962 0.0
N753 N 0.23639 0.3552 0.19333 0.0
H754 H 0.16124 0.35027 0.11521 0.0
H755 H 0.17177 0.35329 0.16439 0.0
H756 H 0.25491 0.35917 0.21561 0.0
H757 H 0.21401 0.34047 0.20162 0.0
H758 H 0.29838 0.37999 0.03132 0.0
H759 H 0.25635 0.36346 0.01776 0.0
H760 H 0.31701 0.41973 0.06965 0.0
H761 H 0.32895 0.42142 0.11863 0.0
C762 C 0.60627 0.75405 0.37222 0.0
C763 C 0.6332 0.7679 0.39729 0.0
C764 C 0.67778 0.73074 0.36261 0.0
C765 C 0.64999 0.71337 0.34162 0.0
N766 N 0.58639 0.70353 0.33439 0.0
N767 N 0.69413 0.76328 0.42072 0.0
C768 C 0.61382 0.72371 0.34863 0.0
C769 C 0.66892 0.75462 0.39361 0.0
N770 N 0.57374 0.77064 0.36958 0.0
N771 N 0.71271 0.72557 0.35204 0.0
H772 H 0.6885 0.77925 0.44466 0.0
H773 H 0.71954 0.75169 0.42156 0.0
H774 H 0.72005 0.70956 0.32866 0.0
H775 H 0.73392 0.74004 0.36382 0.0
H776 H 0.55448 0.76368 0.34902 0.0
H777 H 0.56766 0.79386 0.38476 0.0
H778 H 0.55954 0.70815 0.34132 0.0
H779 H 0.59069 0.67972 0.31965 0.0
C780 C 0.25559 0.16 0.64444 0.0
C781 C 0.25099 0.12377 0.65524 0.0
C782 C 0.30218 0.10906 0.61159 0.0
C783 C 0.30028 0.1435 0.59481 0.0
N784 N 0.27286 0.20132 0.59384 0.0
N785 N 0.27914 0.06607 0.65804 0.0
C786 C 0.27643 0.16886 0.61099 0.0
C787 C 0.277 0.09884 0.64123 0.0
N788 N 0.24337 0.1863 0.66823 0.0
N789 N 0.32944 0.08691 0.60049 0.0
H790 H 0.26827 0.06088 0.68532 0.0
H791 H 0.29292 0.0446 0.64624 0.0
H792 H 0.34926 0.09456 0.58085 0.0
H793 H 0.3342 0.06192 0.6122 0.0
H794 H 0.24887 0.2131 0.66339 0.0
H795 H 0.23253 0.18111 0.69551 0.0
H796 H 0.25339 0.21969 0.60227 0.0
H797 H 0.28721 0.20847 0.56905 0.0
C798 C 0.90885 0.74822 0.86731 0.0
C799 C 0.8834 0.73715 0.89554 0.0
C800 C 0.83864 0.77621 0.86381 0.0
C801 C 0.86581 0.7912 0.83977 0.0
N802 N 0.92922 0.7964 0.82653 0.0
N803 N 0.82463 0.74515 0.92374 0.0
C804 C 0.90158 0.77838 0.84354 0.0
C805 C 0.84829 0.75222 0.8945 0.0
N806 N 0.93996 0.72946 0.8626 0.0
N807 N 0.80349 0.78397 0.85662 0.0
H808 H 0.83069 0.72813 0.94666 0.0
H809 H 0.80016 0.75828 0.92677 0.0
H810 H 0.79554 0.80035 0.83382 0.0
H811 H 0.78225 0.77142 0.87075 0.0
H812 H 0.95791 0.7343 0.84 0.0
H813 H 0.94569 0.70659 0.87855 0.0
H814 H 0.9561 0.78983 0.83092 0.0
H815 H 0.92567 0.82052 0.81221 0.0
C816 C 0.73347 0.66454 0.65022 0.0
C817 C 0.7233 0.63907 0.67867 0.0
C818 C 0.76893 0.59807 0.65188 0.0
C819 C 0.7756 0.6215 0.62036 0.0
N820 N 0.76074 0.67592 0.58729 0.0
N821 N 0.72662 0.57832 0.70066 0.0
C822 C 0.75705 0.65458 0.61905 0.0
C823 C 0.73999 0.60504 0.6781 0.0
N824 N 0.72145 0.69866 0.65369 0.0
N825 N 0.7907 0.56928 0.65736 0.0
H826 H 0.70361 0.58115 0.71757 0.0
H827 H 0.73567 0.55217 0.69902 0.0
H828 H 0.812 0.56312 0.63889 0.0
H829 H 0.78986 0.55369 0.68231 0.0
H830 H 0.73031 0.71939 0.63615 0.0
H831 H 0.70516 0.70689 0.67661 0.0
H832 H 0.74486 0.69826 0.58239 0.0
H833 H 0.77789 0.66983 0.56431 0.0
C834 C 0.34266 0.23965 0.92219 0.0
C835 C 0.36685 0.21177 0.93056 0.0
C836 C 0.40678 0.23387 0.87836 0.0
C837 C 0.38347 0.26355 0.872 0.0
N838 N 0.32073 0.27888 0.87267 0.0
N839 N 0.42225 0.18171 0.91718 0.0
C840 C 0.349 0.26235 0.88983 0.0
C841 C 0.39904 0.20871 0.90869 0.0
N842 N 0.31368 0.24498 0.94573 0.0
N843 N 0.4339 0.22752 0.85257 0.0
H844 H 0.41617 0.16198 0.93737 0.0
H845 H 0.4481 0.17969 0.90592 0.0
H846 H 0.4367 0.24196 0.82697 0.0
H847 H 0.45062 0.2054 0.85345 0.0
H848 H 0.29716 0.26727 0.94347 0.0
H849 H 0.30832 0.22891 0.96969 0.0
H850 H 0.29448 0.2764 0.88281 0.0
H851 H 0.32244 0.28881 0.84456 0.0
C852 C 0.77893 0.84065 0.1516 0.0
C853 C 0.78967 0.86622 0.17967 0.0
C854 C 0.74687 0.90869 0.15062 0.0
C855 C 0.74005 0.88499 0.11941 0.0
N856 N 0.75402 0.82971 0.08757 0.0
N857 N 0.78915 0.9277 0.19965 0.0
C858 C 0.75714 0.85118 0.11929 0.0
C859 C 0.77481 0.90103 0.17773 0.0
N860 N 0.78871 0.806 0.1564 0.0
N861 N 0.72635 0.93855 0.15467 0.0
H862 H 0.81173 0.92424 0.21705 0.0
H863 H 0.78147 0.9542 0.19693 0.0
H864 H 0.70556 0.94488 0.13561 0.0
H865 H 0.72749 0.95486 0.17907 0.0
H866 H 0.77936 0.78557 0.13876 0.0
H867 H 0.80331 0.79727 0.18036 0.0
H868 H 0.76919 0.80672 0.0837 0.0
H869 H 0.73797 0.83618 0.06382 0.0
C870 C 0.16974 0.27569 0.36123 0.0
C871 C 0.14829 0.24567 0.37113 0.0
C872 C 0.15 0.26503 0.43852 0.0
C873 C 0.16591 0.29781 0.42894 0.0
N874 N 0.18463 0.33703 0.37729 0.0
N875 N 0.10381 0.22551 0.41744 0.0
C876 C 0.17438 0.30398 0.38908 0.0
C877 C 0.13414 0.24422 0.40921 0.0
N878 N 0.18489 0.27767 0.3253 0.0
N879 N 0.15204 0.25218 0.47515 0.0
H880 H 0.08873 0.2129 0.39599 0.0
H881 H 0.0923 0.22575 0.44507 0.0
H882 H 0.16692 0.26506 0.4966 0.0
H883 H 0.14303 0.22661 0.48177 0.0
H884 H 0.20319 0.29737 0.31755 0.0
H885 H 0.18101 0.25802 0.30436 0.0
H886 H 0.18829 0.34371 0.34825 0.0
H887 H 0.18561 0.35866 0.39611 0.0
C888 C 0.75984 0.8642 0.58003 0.0
C889 C 0.72383 0.85669 0.59068 0.0
C890 C 0.74076 0.86719 0.65914 0.0
C891 C 0.77589 0.87803 0.64764 0.0
N892 N 0.81182 0.90002 0.5947 0.0
N893 N 0.67832 0.85905 0.64008 0.0
C894 C 0.78356 0.88015 0.60736 0.0
C895 C 0.71379 0.86032 0.63026 0.0
N896 N 0.77187 0.85531 0.54397 0.0
N897 N 0.73315 0.86295 0.69757 0.0
H898 H 0.65812 0.8551 0.61962 0.0
H899 H 0.66882 0.86525 0.66768 0.0
H900 H 0.75193 0.86783 0.71935 0.0
H901 H 0.70921 0.85196 0.70758 0.0
H902 H 0.79868 0.85807 0.53591 0.0
H903 H 0.75603 0.84151 0.52409 0.0
H904 H 0.81684 0.90476 0.5654 0.0
H905 H 0.82784 0.91464 0.61371 0.0
C906 C 0.17318 0.2648 0.88396 0.0
C907 C 0.1375 0.26895 0.89852 0.0
C908 C 0.12069 0.21413 0.86202 0.0
C909 C 0.15414 0.21472 0.8423 0.0
N910 N 0.21135 0.24258 0.83215 0.0
N911 N 0.08064 0.23988 0.91014 0.0
C912 C 0.18014 0.24053 0.8528 0.0
C913 C 0.11213 0.24135 0.88987 0.0
N914 N 0.20115 0.2815 0.9019 0.0
N915 N 0.09789 0.18631 0.85533 0.0
H916 H 0.07746 0.25238 0.9369 0.0
H917 H 0.05839 0.22503 0.9019 0.0
H918 H 0.10428 0.16549 0.83661 0.0
H919 H 0.07352 0.18242 0.86937 0.0
H920 H 0.22788 0.27746 0.89419 0.0
H921 H 0.19849 0.29438 0.92845 0.0
H922 H 0.22984 0.26311 0.83554 0.0
H923 H 0.21713 0.22554 0.80911 0.0
C924 C 0.7853 0.66832 0.12275 0.0
C925 C 0.79538 0.64381 0.09328 0.0
C926 C 0.74872 0.60265 0.1173 0.0
C927 C 0.74176 0.6251 0.14966 0.0
N928 N 0.75722 0.6778 0.18566 0.0
N929 N 0.79197 0.58383 0.069 0.0
C930 C 0.7611 0.6576 0.15301 0.0
C931 C 0.77842 0.60995 0.09228 0.0
N932 N 0.7977 0.70239 0.12096 0.0
N933 N 0.72621 0.57493 0.10942 0.0
H934 H 0.81548 0.58699 0.05299 0.0
H935 H 0.7825 0.55779 0.06931 0.0
H936 H 0.70387 0.56894 0.12644 0.0
H937 H 0.72758 0.56032 0.08377 0.0
H938 H 0.78899 0.72244 0.13949 0.0
H939 H 0.81417 0.71141 0.09859 0.0
H940 H 0.7734 0.69961 0.19192 0.0
H941 H 0.73978 0.67098 0.20814 0.0
C942 C 0.33903 0.26229 0.34293 0.0
C943 C 0.36283 0.29153 0.33872 0.0
C944 C 0.39882 0.26831 0.39341 0.0
C945 C 0.37792 0.23649 0.39469 0.0
N946 N 0.32529 0.20495 0.37126 0.0
N947 N 0.41606 0.32214 0.35891 0.0
C948 C 0.34683 0.23428 0.37012 0.0
C949 C 0.3929 0.29436 0.36371 0.0
N950 N 0.30883 0.26127 0.32045 0.0
N951 N 0.42321 0.27456 0.42222 0.0
H952 H 0.41104 0.34299 0.33976 0.0
H953 H 0.44108 0.32364 0.37223 0.0
H954 H 0.42634 0.25755 0.44585 0.0
H955 H 0.43737 0.29823 0.42526 0.0
H956 H 0.28738 0.24407 0.325 0.0
H957 H 0.30431 0.27898 0.29776 0.0
H958 H 0.30625 0.19877 0.3503 0.0
H959 H 0.32616 0.18603 0.39292 0.0
C960 C 0.02091 0.00641 0.24777 0.0
C961 C 0.04546 0.01309 0.2783 0.0
C962 C 0.0318 0.95395 0.30499 0.0
C963 C 1.00196 0.9506 0.27951 0.0
N964 N 0.98851 0.96136 0.21225 0.0
N965 N 0.07283 0.99353 0.33803 0.0
C966 C 1.00212 0.97342 0.24653 0.0
C967 C 0.05046 0.98696 0.30752 0.0
N968 N 0.01475 0.03182 0.22033 0.0
N969 N 0.04694 0.9243 0.32062 0.0
H970 H 0.08751 0.01699 0.34071 0.0
H971 H 0.07443 0.97672 0.36199 0.0
H972 H 0.0405 0.89908 0.31014 0.0
H973 H 0.07016 0.92488 0.33746 0.0
H974 H 0.99397 0.02995 0.20019 0.0
H975 H 0.02863 0.05588 0.21954 0.0
H976 H 0.99063 0.97531 0.18627 0.0
H977 H 0.97946 0.93526 0.20909 0.0
C978 C 0.02384 0.48491 0.5719 0.0
C979 C 0.05045 0.49231 0.5433 0.0
C980 C 1.00382 0.5214 0.50397 0.0
C981 C 0.97868 0.51849 0.53488 0.0
N982 N 0.96087 0.47314 0.57998 0.0
N983 N 0.06616 0.52224 0.48403 0.0
C984 C 0.98724 0.4939 0.56467 0.0
C985 C 0.04042 0.51188 0.50986 0.0
N986 N 0.03296 0.46871 0.60584 0.0
N987 N 0.99169 0.52909 0.4676 0.0
H988 H 0.09334 0.51649 0.488 0.0
H989 H 0.06095 0.53949 0.46109 0.0
H990 H 0.96432 0.53181 0.46171 0.0
H991 H 1.00795 0.52827 0.44301 0.0
H992 H 0.01482 0.46552 0.62863 0.0
H993 H 0.05922 0.46208 0.61287 0.0
H994 H 0.96575 0.45314 0.60021 0.0
H995 H 0.93618 0.47058 0.56602 0.0
C996 C 0.50281 0.4793 0.76985 0.0
C997 C 0.47877 0.47427 0.80127 0.0
C998 C 0.48892 0.53682 0.82012 0.0
C999 C 0.51776 0.53958 0.79312 0.0
N1000 N 0.52826 0.52277 0.72666 0.0
N1001 N 0.44953 0.49894 0.85781 0.0
C1002 C 0.51838 0.51334 0.76333 0.0
C1003 C 0.47229 0.50313 0.82709 0.0
N1004 N 0.51129 0.45143 0.74621 0.0
N1005 N 0.47225 0.56698 0.83261 0.0
H1006 H 0.43511 0.47568 0.86289 0.0
H1007 H 0.4471 0.51786 0.87975 0.0
H1008 H 0.47728 0.59145 0.81947 0.0
H1009 H 0.44935 0.56693 0.84999 0.0
H1010 H 0.53127 0.45303 0.72507 0.0
H1011 H 0.50085 0.42597 0.75027 0.0
H1012 H 0.5261 0.50573 0.70294 0.0
H1013 H 0.53352 0.54918 0.71932 0.0
C1014 C 0.49776 0.02817 0.07102 0.0
C1015 C 0.47042 0.02027 0.0435 0.0
C1016 C 0.51532 0.98948 1.00361 0.0
C1017 C 0.54104 0.99203 0.0339 0.0
N1018 N 0.56134 0.03715 0.07811 0.0
N1019 N 0.45265 0.98968 0.98532 0.0
C1020 C 0.53387 0.01736 0.06354 0.0
C1021 C 0.47915 0.99986 0.01027 0.0
N1022 N 0.48978 0.04714 0.10368 0.0
N1023 N 0.52657 0.98106 0.96707 0.0
H1024 H 0.42571 0.99626 0.98975 0.0
H1025 H 0.457 0.97188 0.96263 0.0
H1026 H 0.55374 0.97749 0.96058 0.0
H1027 H 0.50986 0.98204 0.94287 0.0
H1028 H 0.50794 0.05023 0.12642 0.0
H1029 H 0.46434 0.05737 0.10948 0.0
H1030 H 0.55784 0.0573 0.09849 0.0
H1031 H 0.58567 0.03897 0.06326 0.0
C1032 C 1.00408 0.47799 1.00373 0.0
C1033 C 0.02763 0.47158 0.97217 0.0
C1034 C 0.01844 0.53376 0.95142 0.0
C1035 C 0.9899 0.5377 0.9786 0.0
N1036 N 0.98096 0.52344 0.04597 0.0
N1037 N 0.05711 0.49435 0.91476 0.0
C1038 C 0.9894 0.51252 0.00938 0.0
C1039 C 0.0345 0.49964 0.94542 0.0
N1040 N 0.99529 0.45104 0.02842 0.0
N1041 N 0.03541 0.56331 0.93779 0.0
H1042 H 0.07142 0.47091 0.91044 0.0
H1043 H 0.05965 0.5126 0.89219 0.0
H1044 H 0.03063 0.58827 0.94996 0.0
H1045 H 0.05822 0.56246 0.92029 0.0
H1046 H 0.97571 0.45381 0.04986 0.0
H1047 H 1.00502 0.42521 0.02502 0.0
H1048 H 0.98336 0.50708 0.07021 0.0
H1049 H 0.97684 0.55024 0.05246 0.0
C1050 C 0.48184 0.50772 0.25637 0.0
C1051 C 0.47165 0.48866 0.2227 0.0
C1052 C 0.53463 0.49087 0.2007 0.0
C1053 C 0.54332 0.51471 0.23118 0.0
N1054 N 0.53092 0.52195 0.29917 0.0
N1055 N 0.48861 0.46619 0.15949 0.0
C1056 C 0.51848 0.51655 0.26244 0.0
C1057 C 0.49802 0.48179 0.19368 0.0
N1058 N 0.45629 0.51787 0.28253 0.0
N1059 N 0.56108 0.47088 0.18425 0.0
H1060 H 0.46226 0.45975 0.15258 0.0
H1061 H 0.50655 0.46335 0.13645 0.0
H1062 H 0.58639 0.46909 0.19707 0.0
H1063 H 0.55618 0.4511 0.16377 0.0
H1064 H 0.46187 0.5346 0.30586 0.0
H1065 H 0.42904 0.51252 0.27845 0.0
H1066 H 0.51464 0.52022 0.3237 0.0
H1067 H 0.55838 0.52363 0.30505 0.0
C1068 C 0.54289 1.0028 0.4474 0.0
C1069 C 0.53513 0.97386 0.47264 0.0
C1070 C 0.49785 0.01418 0.51181 0.0
C1071 C 0.4995 0.04082 0.48255 0.0
N1072 N 0.5457 0.06667 0.44283 0.0
N1073 N 0.50179 0.9517 0.52742 0.0
C1074 C 0.52794 0.03709 0.45519 0.0
C1075 C 0.51146 0.9795 0.50429 0.0
N1076 N 0.56523 0.99806 0.4164 0.0
N1077 N 0.48975 0.02361 0.54898 0.0
H1078 H 0.51087 0.92582 0.52263 0.0
H1079 H 0.48214 0.95401 0.54885 0.0
H1080 H 0.48709 0.05022 0.55708 0.0
H1081 H 0.49126 0.00597 0.57222 0.0
H1082 H 0.56837 0.01721 0.39483 0.0
H1083 H 0.57852 0.97427 0.41067 0.0
H1084 H 0.56862 0.06583 0.4255 0.0
H1085 H 0.54109 0.09146 0.45549 0.0
C1086 C 0.02989 0.00426 0.75921 0.0
C1087 C 0.03915 0.02551 0.72683 0.0
C1088 C 0.97651 0.02035 0.70386 0.0
C1089 C 0.96945 0.99412 0.73254 0.0
N1090 N 0.98115 0.98623 0.80063 0.0
N1091 N 0.02045 0.05394 0.66723 0.0
C1092 C 0.99381 0.99302 0.76425 0.0
C1093 C 0.01232 0.03332 0.69859 0.0
N1094 N 0.05566 0.99415 0.78507 0.0
N1095 N 0.94849 0.03844 0.68788 0.0
H1096 H 0.04527 0.06618 0.66336 0.0
H1097 H 1.00311 0.05687 0.64373 0.0
H1098 H 0.92276 0.03673 0.69974 0.0
H1099 H 0.9516 0.05968 0.66882 0.0
H1100 H 0.05064 0.97597 0.80723 0.0
H1101 H 0.08262 1.0012 0.78196 0.0
H1102 H 0.99701 0.9883 0.82542 0.0
H1103 H 0.95372 0.98317 0.80605 0.0
C1104 C 0.25535 0.13292 0.3992 0.0
C1105 C 0.27379 0.10174 0.41115 0.0
C1106 C 0.25683 0.07251 0.35043 0.0
C1107 C 0.23506 0.10183 0.3415 0.0
N1108 N 0.23123 0.16551 0.34495 0.0
N1109 N 0.28496 0.03846 0.40075 0.0
C1110 C 0.23956 0.13393 0.36215 0.0
C1111 C 0.27286 0.07051 0.38752 0.0
N1112 N 0.25203 0.16118 0.42387 0.0
N1113 N 0.26393 0.04784 0.32244 0.0
H1114 H 0.29206 0.03345 0.42929 0.0
H1115 H 0.2825 0.01503 0.38489 0.0
H1116 H 0.25477 0.051 0.29404 0.0
H1117 H 0.28274 0.02758 0.32579 0.0
H1118 H 0.23656 0.18354 0.41766 0.0
H1119 H 0.26112 0.16043 0.45248 0.0
H1120 H 0.23642 0.19018 0.35747 0.0
H1121 H 0.22369 0.16692 0.31589 0.0
C1122 C 0.87042 0.73475 0.63553 0.0
C1123 C 0.89225 0.73681 0.60189 0.0
C1124 C 0.93659 0.7718 0.63732 0.0
C1125 C 0.91491 0.76832 0.67064 0.0
N1126 N 0.86941 0.73761 0.70572 0.0
N1127 N 0.93966 0.7667 0.56737 0.0
C1128 C 0.88508 0.74565 0.67108 0.0
C1129 C 0.92384 0.75788 0.60182 0.0
N1130 N 0.83508 0.72537 0.63287 0.0
N1131 N 0.96909 0.78841 0.63991 0.0
H1132 H 0.9281 0.76 0.54078 0.0
H1133 H 0.96122 0.78409 0.56474 0.0
H1134 H 0.97959 0.79686 0.66634 0.0
H1135 H 0.98724 0.79041 0.61707 0.0
H1136 H 0.81758 0.72507 0.65644 0.0
H1137 H 0.82206 0.72313 0.60623 0.0
H1138 H 0.84602 0.72287 0.7086 0.0
H1139 H 0.88195 0.74404 0.73184 0.0
C1140 C 0.26734 0.3885 0.89983 0.0
C1141 C 0.24467 0.41599 0.9125 0.0
C1142 C 0.25277 0.4466 0.85082 0.0
C1143 C 0.27761 0.42019 0.83896 0.0
N1144 N 0.28963 0.35766 0.84488 0.0
N1145 N 0.22733 0.47769 0.90524 0.0
C1146 C 0.28029 0.38887 0.86153 0.0
C1147 C 0.24085 0.44713 0.88972 0.0
N1148 N 0.27662 0.36177 0.92462 0.0
N1149 N 0.23727 0.46862 0.8242 0.0
H1150 H 0.22301 0.48097 0.93484 0.0
H1151 H 0.22614 0.50145 0.88976 0.0
H1152 H 0.24023 0.46471 0.79444 0.0
H1153 H 0.21678 0.48637 0.83127 0.0
H1154 H 0.29578 0.34252 0.91775 0.0
H1155 H 0.26776 0.36122 0.95326 0.0
H1156 H 0.28356 0.33355 0.85794 0.0
H1157 H 0.29616 0.35563 0.81606 0.0
C1158 C 0.59947 0.74846 0.09905 0.0
C1159 C 0.6311 0.76885 0.0968 0.0
C1160 C 0.64637 0.75424 0.16317 0.0
C1161 C 0.6133 0.73607 0.16638 0.0
N1162 N 0.55413 0.72365 0.14093 0.0
N1163 N 0.69177 0.77596 0.1191 0.0
C1164 C 0.5884 0.73553 0.13543 0.0
C1165 C 0.6569 0.76732 0.12671 0.0
N1166 N 0.58128 0.74016 0.06593 0.0
N1167 N 0.66798 0.75737 0.19504 0.0
H1168 H 0.71244 0.774 0.13924 0.0
H1169 H 0.70056 0.78054 0.09081 0.0
H1170 H 0.65948 0.74914 0.22247 0.0
H1171 H 0.69253 0.77057 0.19518 0.0
H1172 H 0.55966 0.72263 0.06516 0.0
H1173 H 0.59101 0.74749 0.03866 0.0
H1174 H 0.53446 0.72475 0.11952 0.0
H1175 H 0.54395 0.71724 0.16814 0.0
C1176 C 0.76604 0.62731 0.8708 0.0
C1177 C 0.74634 0.59789 0.8564 0.0
C1178 C 0.75116 0.56892 0.91879 0.0
C1179 C 0.77682 0.59403 0.93091 0.0
N1180 N 0.7989 0.65384 0.92339 0.0
N1181 N 0.73095 0.53555 0.86398 0.0
C1182 C 0.78162 0.62531 0.90827 0.0
C1183 C 0.74248 0.56694 0.87932 0.0
N1184 N 0.76823 0.65765 0.84907 0.0
N1185 N 0.73341 0.54841 0.94516 0.0
H1186 H 0.72902 0.53108 0.83429 0.0
H1187 H 0.72901 0.51244 0.88054 0.0
H1188 H 0.73559 0.55294 0.97493 0.0
H1189 H 0.71284 0.53105 0.93729 0.0
H1190 H 0.77714 0.68208 0.85933 0.0
H1191 H 0.7609 0.65827 0.81987 0.0
H1192 H 0.80836 0.6752 0.90728 0.0
H1193 H 0.80253 0.65642 0.95283 0.0
C1194 C 0.39097 0.22571 0.15252 0.0
C1195 C 0.40618 0.2284 0.11452 0.0
C1196 C 0.44139 0.27987 0.13559 0.0
C1197 C 0.42516 0.27665 0.1724 0.0
N1198 N 0.39829 0.23967 0.22032 0.0
N1199 N 0.4477 0.25713 0.07031 0.0
C1200 C 0.40487 0.24698 0.1822 0.0
C1201 C 0.43252 0.25487 0.10636 0.0
N1202 N 0.36201 0.20492 0.16081 0.0
N1203 N 0.46344 0.30806 0.12822 0.0
H1204 H 0.4375 0.24394 0.04613 0.0
H1205 H 0.47028 0.27234 0.06401 0.0
H1206 H 0.47276 0.32462 0.15022 0.0
H1207 H 0.47242 0.31527 0.10077 0.0
H1208 H 0.34656 0.20925 0.1856 0.0
H1209 H 0.35084 0.18593 0.14297 0.0
H1210 H 0.38579 0.21639 0.22965 0.0
H1211 H 0.40934 0.25511 0.24243 0.0
C1212 C 0.7696 0.94399 0.37672 0.0
C1213 C 0.76724 0.91067 0.35764 0.0
C1214 C 0.73362 0.88697 0.41271 0.0
C1215 C 0.73531 0.9207 0.43086 0.0
N1216 N 0.77483 0.97069 0.43972 0.0
N1217 N 0.74144 0.85219 0.35412 0.0
C1218 C 0.75921 0.94627 0.41586 0.0
C1219 C 0.74721 0.88273 0.37461 0.0
N1220 N 0.78043 0.97389 0.35768 0.0
N1221 N 0.72406 0.85819 0.43403 0.0
H1222 H 0.7494 0.84949 0.32523 0.0
H1223 H 0.7259 0.83112 0.36413 0.0
H1224 H 0.72281 0.86025 0.4639 0.0
H1225 H 0.72411 0.83219 0.42386 0.0
H1226 H 0.78098 0.99877 0.37102 0.0
H1227 H 0.78286 0.97518 0.32766 0.0
H1228 H 0.79481 0.98805 0.43023 0.0
H1229 H 0.77234 0.96934 0.46982 0.0
C1230 C 0.09287 0.26449 0.67022 0.0
C1231 C 0.11951 0.23806 0.66326 0.0
C1232 C 0.12075 0.2538 0.59539 0.0
C1233 C 0.0994 0.28324 0.60286 0.0
N1234 N 0.05969 0.31527 0.64507 0.0
N1235 N 0.16878 0.21976 0.62112 0.0
C1236 C 0.08336 0.28805 0.63964 0.0
C1237 C 0.13638 0.23584 0.62642 0.0
N1238 N 0.07805 0.26776 0.70633 0.0
N1239 N 0.12678 0.2439 0.55813 0.0
H1240 H 0.18453 0.21055 0.64367 0.0
H1241 H 0.18284 0.22178 0.59504 0.0
H1242 H 0.1132 0.25653 0.53553 0.0
H1243 H 0.14101 0.22106 0.55096 0.0
H1244 H 0.05636 0.28409 0.71291 0.0
H1245 H 0.08838 0.25449 0.73043 0.0
H1246 H 0.04925 0.32279 0.6718 0.0
H1247 H 0.04988 0.33019 0.62196 0.0
loop_
_geom_bond_atom_site_label_1
_geom_bond_atom_site_label_2
_geom_bond_distance
_geom_bond_site_symmetry_2
_ccdc_geom_bond_type
C0 C1 1.351 . S
C0 N3 1.368 . S
C0 H5 0.931 . S
C1 C0 1.351 . S
C1 N2 1.373 . S
C1 H29 0.930 . S
N2 C1 1.373 . S
N2 C4 1.340 . S
N3 C0 1.368 . S
N3 C4 1.321 . S
N3 Co6 2.135 . S
C4 N2 1.340 . S
C4 N3 1.321 . S
C4 H28 0.930 . S
H5 C0 0.931 . S
Co6 N3 2.135 . S
Co6 N9 2.121 . S
Co6 O14 2.055 . S
Co6 O17 2.039 . S
Co6 N20 2.140 . S
C7 O8 1.227 . S
C7 O17 1.265 . S
O8 C7 1.227 . S
N9 Co6 2.121 . S
N9 C11 1.375 . S
N9 C12 1.313 . S
C10 C11 1.338 . S
C10 N13 1.377 . S
C10 H30 0.930 . S
C11 N9 1.375 . S
C11 C10 1.338 . S
C11 H15 0.931 . S
C12 N9 1.313 . S
C12 N13 1.344 . S
C12 H16 0.930 . S
N13 C10 1.377 . S
N13 C12 1.344 . S
O14 Co6 2.055 . S
O14 C18 1.253 . S
H15 C11 0.931 . S
H16 C12 0.930 . S
O17 Co6 2.039 . S
O17 C7 1.265 . S
C18 O14 1.253 . S
C18 O19 1.227 . S
O19 C18 1.227 . S
N20 Co6 2.140 . S
N20 C23 1.346 . S
N20 C24 1.345 . S
C21 C22 1.387 . S
C21 C25 1.391 . S
C22 C21 1.387 . S
C22 C23 1.369 . S
C22 H31 0.929 . S
C23 N20 1.346 . S
C23 C22 1.369 . S
C23 H26 0.928 . S
C24 N20 1.345 . S
C24 C25 1.371 . S
C24 H27 0.931 . S
C25 C21 1.391 . S
C25 C24 1.371 . S
C25 H32 0.930 . S
H26 C23 0.928 . S
H27 C24 0.931 . S
H28 C4 0.930 . S
H29 C1 0.930 . S
H30 C10 0.930 . S
H31 C22 0.929 . S
H32 C25 0.930 . S
C33 C34 1.351 . S
C33 N36 1.368 . S
C33 H38 0.931 . S
C34 C33 1.351 . S
C34 N35 1.373 . S
C34 H62 0.930 . S
N35 C34 1.373 . S
N35 C37 1.340 . S
N36 C33 1.368 . S
N36 C37 1.321 . S
N36 Co39 2.135 . S
C37 N35 1.340 . S
C37 N36 1.321 . S
C37 H61 0.930 . S
H38 C33 0.931 . S
Co39 N36 2.135 . S
Co39 N42 2.121 . S
Co39 O47 2.055 . S
Co39 O50 2.039 . S
Co39 N53 2.140 . S
C40 O41 1.227 . S
C40 O50 1.265 . S
O41 C40 1.227 . S
N42 Co39 2.121 . S
N42 C44 1.375 . S
N42 C45 1.313 . S
C43 C44 1.338 . S
C43 N46 1.377 . S
C43 H63 0.930 . S
C44 N42 1.375 . S
C44 C43 1.338 . S
C44 H48 0.931 . S
C45 N42 1.313 . S
C45 N46 1.344 . S
C45 H49 0.930 . S
N46 C43 1.377 . S
N46 C45 1.344 . S
O47 Co39 2.055 . S
O47 C51 1.253 . S
H48 C44 0.931 . S
H49 C45 0.930 . S
O50 Co39 2.039 . S
O50 C40 1.265 . S
C51 O47 1.253 . S
C51 O52 1.227 . S
O52 C51 1.227 . S
N53 Co39 2.140 . S
N53 C56 1.346 . S
N53 C57 1.345 . S
C54 C55 1.387 . S
C54 C58 1.391 . S
C55 C54 1.387 . S
C55 C56 1.369 . S
C55 H64 0.929 . S
C56 N53 1.346 . S
C56 C55 1.369 . S
C56 H59 0.928 . S
C57 N53 1.345 . S
C57 C58 1.371 . S
C57 H60 0.931 . S
C58 C54 1.391 . S
C58 C57 1.371 . S
C58 H65 0.930 . S
H59 C56 0.928 . S
H60 C57 0.931 . S
H61 C37 0.930 . S
H62 C34 0.930 . S
H63 C43 0.930 . S
H64 C55 0.929 . S
H65 C58 0.930 . S
C66 C67 1.351 . S
C66 N69 1.368 . S
C66 H71 0.931 . S
C67 C66 1.351 . S
C67 N68 1.373 . S
C67 H95 0.930 . S
N68 C67 1.373 . S
N68 C70 1.340 . S
N69 C66 1.368 . S
N69 C70 1.321 . S
N69 Co72 2.135 . S
C70 N68 1.340 . S
C70 N69 1.321 . S
C70 H94 0.930 . S
H71 C66 0.931 . S
Co72 N69 2.135 . S
Co72 N75 2.121 . S
Co72 O80 2.055 . S
Co72 O83 2.039 . S
Co72 N86 2.140 . S
C73 O74 1.227 . S
C73 O83 1.265 . S
O74 C73 1.227 . S
N75 Co72 2.121 . S
N75 C77 1.375 . S
N75 C78 1.313 . S
C76 C77 1.338 . S
C76 N79 1.377 . S
C76 H96 0.930 . S
C77 N75 1.375 . S
C77 C76 1.338 . S
C77 H81 0.931 . S
C78 N75 1.313 . S
C78 N79 1.344 . S
C78 H82 0.930 . S
N79 C76 1.377 . S
N79 C78 1.344 . S
O80 Co72 2.055 . S
O80 C84 1.253 . S
H81 C77 0.931 . S
H82 C78 0.930 . S
O83 Co72 2.039 . S
O83 C73 1.265 . S
C84 O80 1.253 . S
C84 O85 1.227 . S
O85 C84 1.227 . S
N86 Co72 2.140 . S
N86 C89 1.346 . S
N86 C90 1.345 . S
C87 C88 1.387 . S
C87 C91 1.391 . S
C88 C87 1.387 . S
C88 C89 1.369 . S
C88 H97 0.929 . S
C89 N86 1.346 . S
C89 C88 1.369 . S
C89 H92 0.928 . S
C90 N86 1.345 . S
C90 C91 1.371 . S
C90 H93 0.931 . S
C91 C87 1.391 . S
C91 C90 1.371 . S
C91 H98 0.930 . S
H92 C89 0.928 . S
H93 C90 0.931 . S
H94 C70 0.930 . S
H95 C67 0.930 . S
H96 C76 0.930 . S
H97 C88 0.929 . S
H98 C91 0.930 . S
C99 C100 1.351 . S
C99 N102 1.368 . S
C99 H104 0.931 . S
C100 C99 1.351 . S
C100 N101 1.373 . S
C100 H128 0.930 . S
N101 C100 1.373 . S
N101 C103 1.340 . S
N102 C99 1.368 . S
N102 C103 1.321 . S
N102 Co105 2.135 . S
C103 N101 1.340 . S
C103 N102 1.321 . S
C103 H127 0.930 . S
H104 C99 0.931 . S
Co105 N102 2.135 . S
Co105 N108 2.121 . S
Co105 O113 2.055 . S
Co105 O116 2.039 . S
Co105 N119 2.140 . S
C106 O107 1.227 . S
C106 O116 1.265 . S
O107 C106 1.227 . S
N108 Co105 2.121 . S
N108 C110 1.375 . S
N108 C111 1.313 . S
C109 C110 1.338 1_556 S
C109 N112 1.377 . S
C109 H129 0.930 . S
C110 N108 1.375 . S
C110 C109 1.338 1_554 S
C110 H114 0.931 . S
C111 N108 1.313 . S
C111 N112 1.344 1_554 S
C111 H115 0.930 . S
N112 C109 1.377 . S
N112 C111 1.344 1_556 S
O113 Co105 2.055 . S
O113 C117 1.253 . S
H114 C110 0.931 . S
H115 C111 0.930 . S
O116 Co105 2.039 . S
O116 C106 1.265 . S
C117 O113 1.253 . S
C117 O118 1.227 . S
O118 C117 1.227 . S
N119 Co105 2.140 . S
N119 C122 1.346 . S
N119 C123 1.345 . S
C120 C121 1.387 . S
C120 C124 1.391 . S
C121 C120 1.387 . S
C121 C122 1.369 . S
C121 H130 0.929 . S
C122 N119 1.346 . S
C122 C121 1.369 . S
C122 H125 0.928 . S
C123 N119 1.345 . S
C123 C124 1.371 . S
C123 H126 0.931 . S
C124 C120 1.391 . S
C124 C123 1.371 . S
C124 H131 0.930 . S
H125 C122 0.928 . S
H126 C123 0.931 . S
H127 C103 0.930 . S
H128 C100 0.930 . S
H129 C109 0.930 . S
H130 C121 0.929 . S
H131 C124 0.930 . S
C132 C133 1.351 . S
C132 N135 1.368 . S
C132 H137 0.931 . S
C133 C132 1.351 . S
C133 N134 1.373 . S
C133 H161 0.930 . S
N134 C133 1.373 . S
N134 C136 1.340 . S
N135 C132 1.368 . S
N135 C136 1.321 . S
N135 Co138 2.135 . S
C136 N134 1.340 . S
C136 N135 1.321 . S
C136 H160 0.930 . S
H137 C132 0.931 . S
Co138 N135 2.135 . S
Co138 N141 2.121 . S
Co138 O146 2.055 . S
Co138 O149 2.039 . S
Co138 N152 2.140 . S
C139 O140 1.227 . S
C139 O149 1.265 . S
O140 C139 1.227 . S
N141 Co138 2.121 . S
N141 C143 1.375 . S
N141 C144 1.313 . S
C142 C143 1.338 1_554 S
C142 N145 1.377 . S
C142 H162 0.930 . S
C143 N141 1.375 . S
C143 C142 1.338 1_556 S
C143 H147 0.931 . S
C144 N141 1.313 . S
C144 N145 1.344 1_556 S
C144 H148 0.930 . S
N145 C142 1.377 . S
N145 C144 1.344 1_554 S
O146 Co138 2.055 . S
O146 C150 1.253 . S
H147 C143 0.931 . S
H148 C144 0.930 . S
O149 Co138 2.039 . S
O149 C139 1.265 . S
C150 O146 1.253 . S
C150 O151 1.227 . S
O151 C150 1.227 . S
N152 Co138 2.140 . S
N152 C155 1.346 . S
N152 C156 1.345 . S
C153 C154 1.387 . S
C153 C157 1.391 . S
C154 C153 1.387 . S
C154 C155 1.369 . S
C154 H163 0.929 . S
C155 N152 1.346 . S
C155 C154 1.369 . S
C155 H158 0.928 . S
C156 N152 1.345 . S
C156 C157 1.371 . S
C156 H159 0.931 . S
C157 C153 1.391 . S
C157 C156 1.371 . S
C157 H164 0.930 . S
H158 C155 0.928 . S
H159 C156 0.931 . S
H160 C136 0.930 . S
H161 C133 0.930 . S
H162 C142 0.930 . S
H163 C154 0.929 . S
H164 C157 0.930 . S
C165 C166 1.351 . S
C165 N168 1.368 . S
C165 H170 0.931 . S
C166 C165 1.351 . S
C166 N167 1.373 . S
C166 H194 0.930 . S
N167 C166 1.373 . S
N167 C169 1.340 . S
N168 C165 1.368 . S
N168 C169 1.321 . S
N168 Co171 2.135 . S
C169 N167 1.340 . S
C169 N168 1.321 . S
C169 H193 0.930 . S
H170 C165 0.931 . S
Co171 N168 2.135 . S
Co171 N174 2.121 . S
Co171 O179 2.055 . S
Co171 O182 2.039 . S
Co171 N185 2.140 . S
C172 O173 1.227 . S
C172 O182 1.265 . S
O173 C172 1.227 . S
N174 Co171 2.121 . S
N174 C176 1.375 . S
N174 C177 1.313 . S
C175 C176 1.338 . S
C175 N178 1.377 . S
C175 H195 0.930 . S
C176 N174 1.375 . S
C176 C175 1.338 . S
C176 H180 0.931 . S
C177 N174 1.313 . S
C177 N178 1.344 . S
C177 H181 0.930 . S
N178 C175 1.377 . S
N178 C177 1.344 . S
O179 Co171 2.055 . S
O179 C183 1.253 . S
H180 C176 0.931 . S
H181 C177 0.930 . S
O182 Co171 2.039 . S
O182 C172 1.265 . S
C183 O179 1.253 . S
C183 O184 1.227 . S
O184 C183 1.227 . S
N185 Co171 2.140 . S
N185 C188 1.346 . S
N185 C189 1.345 . S
C186 C187 1.387 . S
C186 C190 1.391 . S
C187 C186 1.387 . S
C187 C188 1.369 . S
C187 H196 0.929 . S
C188 N185 1.346 . S
C188 C187 1.369 . S
C188 H191 0.928 . S
C189 N185 1.345 . S
C189 C190 1.371 . S
C189 H192 0.931 . S
C190 C186 1.391 . S
C190 C189 1.371 . S
C190 H197 0.930 . S
H191 C188 0.928 . S
H192 C189 0.931 . S
H193 C169 0.930 . S
H194 C166 0.930 . S
H195 C175 0.930 . S
H196 C187 0.929 . S
H197 C190 0.930 . S
C198 C199 1.351 . S
C198 N201 1.368 . S
C198 H203 0.931 . S
C199 C198 1.351 . S
C199 N200 1.373 . S
C199 H227 0.930 . S
N200 C199 1.373 . S
N200 C202 1.340 . S
N201 C198 1.368 . S
N201 C202 1.321 . S
N201 Co204 2.135 . S
C202 N200 1.340 . S
C202 N201 1.321 . S
C202 H226 0.930 . S
H203 C198 0.931 . S
Co204 N201 2.135 . S
Co204 N207 2.121 . S
Co204 O212 2.055 . S
Co204 O215 2.039 . S
Co204 N218 2.140 . S
C205 O206 1.227 . S
C205 O215 1.265 . S
O206 C205 1.227 . S
N207 Co204 2.121 . S
N207 C209 1.375 . S
N207 C210 1.313 . S
C208 C209 1.338 . S
C208 N211 1.377 . S
C208 H228 0.930 . S
C209 N207 1.375 . S
C209 C208 1.338 . S
C209 H213 0.931 . S
C210 N207 1.313 . S
C210 N211 1.344 . S
C210 H214 0.930 . S
N211 C208 1.377 . S
N211 C210 1.344 . S
O212 Co204 2.055 . S
O212 C216 1.253 . S
H213 C209 0.931 . S
H214 C210 0.930 . S
O215 Co204 2.039 . S
O215 C205 1.265 . S
C216 O212 1.253 . S
C216 O217 1.227 . S
O217 C216 1.227 . S
N218 Co204 2.140 . S
N218 C221 1.346 . S
N218 C222 1.345 . S
C219 C220 1.387 . S
C219 C223 1.391 . S
C220 C219 1.387 . S
C220 C221 1.369 . S
C220 H229 0.929 . S
C221 N218 1.346 . S
C221 C220 1.369 . S
C221 H224 0.928 . S
C222 N218 1.345 . S
C222 C223 1.371 . S
C222 H225 0.931 . S
C223 C219 1.391 . S
C223 C222 1.371 . S
C223 H230 0.930 . S
H224 C221 0.928 . S
H225 C222 0.931 . S
H226 C202 0.930 . S
H227 C199 0.930 . S
H228 C208 0.930 . S
H229 C220 0.929 . S
H230 C223 0.930 . S
C231 C232 1.351 . S
C231 N234 1.368 . S
C231 H236 0.931 . S
C232 C231 1.351 . S
C232 N233 1.373 . S
C232 H260 0.930 . S
N233 C232 1.373 . S
N233 C235 1.340 . S
N234 C231 1.368 . S
N234 C235 1.321 . S
N234 Co237 2.135 . S
C235 N233 1.340 . S
C235 N234 1.321 . S
C235 H259 0.930 . S
H236 C231 0.931 . S
Co237 N234 2.135 . S
Co237 N240 2.121 . S
Co237 O245 2.055 . S
Co237 O248 2.039 . S
Co237 N251 2.140 . S
C238 O239 1.227 . S
C238 O248 1.265 . S
O239 C238 1.227 . S
N240 Co237 2.121 . S
N240 C242 1.375 . S
N240 C243 1.313 . S
C241 C242 1.338 . S
C241 N244 1.377 . S
C241 H261 0.930 . S
C242 N240 1.375 . S
C242 C241 1.338 . S
C242 H246 0.931 . S
C243 N240 1.313 . S
C243 N244 1.344 . S
C243 H247 0.930 . S
N244 C241 1.377 . S
N244 C243 1.344 . S
O245 Co237 2.055 . S
O245 C249 1.253 . S
H246 C242 0.931 . S
H247 C243 0.930 . S
O248 Co237 2.039 . S
O248 C238 1.265 . S
C249 O245 1.253 . S
C249 O250 1.227 . S
O250 C249 1.227 . S
N251 Co237 2.140 . S
N251 C254 1.346 . S
N251 C255 1.345 . S
C252 C253 1.387 . S
C252 C256 1.391 . S
C253 C252 1.387 . S
C253 C254 1.369 . S
C253 H262 0.929 . S
C254 N251 1.346 . S
C254 C253 1.369 . S
C254 H257 0.928 . S
C255 N251 1.345 . S
C255 C256 1.371 . S
C255 H258 0.931 . S
C256 C252 1.391 . S
C256 C255 1.371 . S
C256 H263 0.930 . S
H257 C254 0.928 . S
H258 C255 0.931 . S
H259 C235 0.930 . S
H260 C232 0.930 . S
H261 C241 0.930 . S
H262 C253 0.929 . S
H263 C256 0.930 . S
C264 C265 1.351 . S
C264 N267 1.368 . S
C264 H269 0.931 . S
C265 C264 1.351 . S
C265 N266 1.373 . S
C265 H293 0.930 . S
N266 C265 1.373 . S
N266 C268 1.340 . S
N267 C264 1.368 . S
N267 C268 1.321 . S
N267 Co270 2.135 . S
C268 N266 1.340 . S
C268 N267 1.321 . S
C268 H292 0.930 . S
H269 C264 0.931 . S
Co270 N267 2.135 . S
Co270 N273 2.121 . S
Co270 O278 2.055 . S
Co270 O281 2.039 . S
Co270 N284 2.140 . S
C271 O272 1.227 . S
C271 O281 1.265 . S
O272 C271 1.227 . S
N273 Co270 2.121 . S
N273 C275 1.375 . S
N273 C276 1.313 . S
C274 C275 1.338 . S
C274 N277 1.377 . S
C274 H294 0.930 . S
C275 N273 1.375 . S
C275 C274 1.338 . S
C275 H279 0.931 . S
C276 N273 1.313 . S
C276 N277 1.344 . S
C276 H280 0.930 . S
N277 C274 1.377 . S
N277 C276 1.344 . S
O278 Co270 2.055 . S
O278 C282 1.253 . S
H279 C275 0.931 . S
H280 C276 0.930 . S
O281 Co270 2.039 . S
O281 C271 1.265 . S
C282 O278 1.253 . S
C282 O283 1.227 . S
O283 C282 1.227 . S
N284 Co270 2.140 . S
N284 C287 1.346 . S
N284 C288 1.345 . S
C285 C286 1.387 . S
C285 C289 1.391 . S
C286 C285 1.387 . S
C286 C287 1.369 . S
C286 H295 0.929 . S
C287 N284 1.346 . S
C287 C286 1.369 . S
C287 H290 0.928 . S
C288 N284 1.345 . S
C288 C289 1.371 . S
C288 H291 0.931 . S
C289 C285 1.391 . S
C289 C288 1.371 . S
C289 H296 0.930 . S
H290 C287 0.928 . S
H291 C288 0.931 . S
H292 C268 0.930 . S
H293 C265 0.930 . S
H294 C274 0.930 . S
H295 C286 0.929 . S
H296 C289 0.930 . S
C297 C298 1.351 . S
C297 N300 1.368 . S
C297 H302 0.931 . S
C298 C297 1.351 . S
C298 N299 1.373 . S
C298 H326 0.930 . S
N299 C298 1.373 . S
N299 C301 1.340 . S
N300 C297 1.368 . S
N300 C301 1.321 . S
N300 Co303 2.135 . S
C301 N299 1.340 . S
C301 N300 1.321 . S
C301 H325 0.930 . S
H302 C297 0.931 . S
Co303 N300 2.135 . S
Co303 N306 2.121 . S
Co303 O311 2.055 . S
Co303 O314 2.039 . S
Co303 N317 2.140 . S
C304 O305 1.227 . S
C304 O314 1.265 . S
O305 C304 1.227 . S
N306 Co303 2.121 . S
N306 C308 1.375 . S
N306 C309 1.313 . S
C307 C308 1.338 1_556 S
C307 N310 1.377 . S
C307 H327 0.930 . S
C308 N306 1.375 . S
C308 C307 1.338 1_554 S
C308 H312 0.931 . S
C309 N306 1.313 . S
C309 N310 1.344 1_554 S
C309 H313 0.930 . S
N310 C307 1.377 . S
N310 C309 1.344 1_556 S
O311 Co303 2.055 . S
O311 C315 1.253 . S
H312 C308 0.931 . S
H313 C309 0.930 . S
O314 Co303 2.039 . S
O314 C304 1.265 . S
C315 O311 1.253 . S
C315 O316 1.227 . S
O316 C315 1.227 . S
N317 Co303 2.140 . S
N317 C320 1.346 . S
N317 C321 1.345 . S
C318 C319 1.387 . S
C318 C322 1.391 . S
C319 C318 1.387 . S
C319 C320 1.369 . S
C319 H328 0.929 . S
C320 N317 1.346 . S
C320 C319 1.369 . S
C320 H323 0.928 . S
C321 N317 1.345 . S
C321 C322 1.371 . S
C321 H324 0.931 . S
C322 C318 1.391 . S
C322 C321 1.371 . S
C322 H329 0.930 . S
H323 C320 0.928 . S
H324 C321 0.931 . S
H325 C301 0.930 . S
H326 C298 0.930 . S
H327 C307 0.930 . S
H328 C319 0.929 . S
H329 C322 0.930 . S
C330 C331 1.351 . S
C330 N333 1.368 . S
C330 H335 0.931 . S
C331 C330 1.351 . S
C331 N332 1.373 . S
C331 H359 0.930 . S
N332 C331 1.373 . S
N332 C334 1.340 . S
N333 C330 1.368 . S
N333 C334 1.321 . S
N333 Co336 2.135 . S
C334 N332 1.340 . S
C334 N333 1.321 . S
C334 H358 0.930 . S
H335 C330 0.931 . S
Co336 N333 2.135 . S
Co336 N339 2.121 . S
Co336 O344 2.055 . S
Co336 O347 2.039 . S
Co336 N350 2.140 . S
C337 O338 1.227 . S
C337 O347 1.265 . S
O338 C337 1.227 . S
N339 Co336 2.121 . S
N339 C341 1.375 . S
N339 C342 1.313 . S
C340 C341 1.338 . S
C340 N343 1.377 . S
C340 H360 0.930 . S
C341 N339 1.375 . S
C341 C340 1.338 . S
C341 H345 0.931 . S
C342 N339 1.313 . S
C342 N343 1.344 . S
C342 H346 0.930 . S
N343 C340 1.377 . S
N343 C342 1.344 . S
O344 Co336 2.055 . S
O344 C348 1.253 . S
H345 C341 0.931 . S
H346 C342 0.930 . S
O347 Co336 2.039 . S
O347 C337 1.265 . S
C348 O344 1.253 . S
C348 O349 1.227 . S
O349 C348 1.227 . S
N350 Co336 2.140 . S
N350 C353 1.346 . S
N350 C354 1.345 . S
C351 C352 1.387 . S
C351 C355 1.391 . S
C352 C351 1.387 . S
C352 C353 1.369 . S
C352 H361 0.929 . S
C353 N350 1.346 . S
C353 C352 1.369 . S
C353 H356 0.928 . S
C354 N350 1.345 . S
C354 C355 1.371 . S
C354 H357 0.931 . S
C355 C351 1.391 . S
C355 C354 1.371 . S
C355 H362 0.930 . S
H356 C353 0.928 . S
H357 C354 0.931 . S
H358 C334 0.930 . S
H359 C331 0.930 . S
H360 C340 0.930 . S
H361 C352 0.929 . S
H362 C355 0.930 . S
C363 C364 1.351 . S
C363 N366 1.368 . S
C363 H368 0.931 . S
C364 C363 1.351 . S
C364 N365 1.373 . S
C364 H392 0.930 . S
N365 C364 1.373 . S
N365 C367 1.340 . S
N366 C363 1.368 . S
N366 C367 1.321 . S
N366 Co369 2.135 . S
C367 N365 1.340 . S
C367 N366 1.321 . S
C367 H391 0.930 . S
H368 C363 0.931 . S
Co369 N366 2.135 . S
Co369 N372 2.121 . S
Co369 O377 2.055 . S
Co369 O380 2.039 . S
Co369 N383 2.140 . S
C370 O371 1.227 . S
C370 O380 1.265 . S
O371 C370 1.227 . S
N372 Co369 2.121 . S
N372 C374 1.375 . S
N372 C375 1.313 . S
C373 C374 1.338 . S
C373 N376 1.377 . S
C373 H393 0.930 . S
C374 N372 1.375 . S
C374 C373 1.338 . S
C374 H378 0.931 . S
C375 N372 1.313 . S
C375 N376 1.344 . S
C375 H379 0.930 . S
N376 C373 1.377 . S
N376 C375 1.344 . S
O377 Co369 2.055 . S
O377 C381 1.253 . S
H378 C374 0.931 . S
H379 C375 0.930 . S
O380 Co369 2.039 . S
O380 C370 1.265 . S
C381 O377 1.253 . S
C381 O382 1.227 . S
O382 C381 1.227 . S
N383 Co369 2.140 . S
N383 C386 1.346 . S
N383 C387 1.345 . S
C384 C385 1.387 . S
C384 C388 1.391 . S
C385 C384 1.387 . S
C385 C386 1.369 . S
C385 H394 0.929 . S
C386 N383 1.346 . S
C386 C385 1.369 . S
C386 H389 0.928 . S
C387 N383 1.345 . S
C387 C388 1.371 . S
C387 H390 0.931 . S
C388 C384 1.391 . S
C388 C387 1.371 . S
C388 H395 0.930 . S
H389 C386 0.928 . S
H390 C387 0.931 . S
H391 C367 0.930 . S
H392 C364 0.930 . S
H393 C373 0.930 . S
H394 C385 0.929 . S
H395 C388 0.930 . S
C396 C397 1.351 . S
C396 N399 1.368 . S
C396 H401 0.931 . S
C397 C396 1.351 . S
C397 N398 1.373 . S
C397 H425 0.930 . S
N398 C397 1.373 . S
N398 C400 1.340 . S
N399 C396 1.368 . S
N399 C400 1.321 . S
N399 Co402 2.135 . S
C400 N398 1.340 . S
C400 N399 1.321 . S
C400 H424 0.930 . S
H401 C396 0.931 . S
Co402 N399 2.135 . S
Co402 N405 2.121 . S
Co402 O410 2.055 . S
Co402 O413 2.039 . S
Co402 N416 2.140 . S
C403 O404 1.227 . S
C403 O413 1.265 . S
O404 C403 1.227 . S
N405 Co402 2.121 . S
N405 C407 1.375 . S
N405 C408 1.313 . S
C406 C407 1.338 . S
C406 N409 1.377 . S
C406 H426 0.930 . S
C407 N405 1.375 . S
C407 C406 1.338 . S
C407 H411 0.931 . S
C408 N405 1.313 . S
C408 N409 1.344 . S
C408 H412 0.930 . S
N409 C406 1.377 . S
N409 C408 1.344 . S
O410 Co402 2.055 . S
O410 C414 1.253 . S
H411 C407 0.931 . S
H412 C408 0.930 . S
O413 Co402 2.039 . S
O413 C403 1.265 . S
C414 O410 1.253 . S
C414 O415 1.227 . S
O415 C414 1.227 . S
N416 Co402 2.140 . S
N416 C419 1.346 . S
N416 C420 1.345 . S
C417 C418 1.387 . S
C417 C421 1.391 . S
C418 C417 1.387 . S
C418 C419 1.369 . S
C418 H427 0.929 . S
C419 N416 1.346 . S
C419 C418 1.369 . S
C419 H422 0.928 . S
C420 N416 1.345 . S
C420 C421 1.371 . S
C420 H423 0.931 . S
C421 C417 1.391 . S
C421 C420 1.371 . S
C421 H428 0.930 . S
H422 C419 0.928 . S
H423 C420 0.931 . S
H424 C400 0.930 . S
H425 C397 0.930 . S
H426 C406 0.930 . S
H427 C418 0.929 . S
H428 C421 0.930 . S
C429 C430 1.351 . S
C429 N432 1.368 . S
C429 H434 0.931 . S
C430 C429 1.351 . S
C430 N431 1.373 . S
C430 H458 0.930 . S
N431 C430 1.373 . S
N431 C433 1.340 . S
N432 C429 1.368 . S
N432 C433 1.321 . S
N432 Co435 2.135 . S
C433 N431 1.340 . S
C433 N432 1.321 . S
C433 H457 0.930 . S
H434 C429 0.931 . S
Co435 N432 2.135 . S
Co435 N438 2.121 . S
Co435 O443 2.055 . S
Co435 O446 2.039 . S
Co435 N449 2.140 . S
C436 O437 1.227 . S
C436 O446 1.265 . S
O437 C436 1.227 . S
N438 Co435 2.121 . S
N438 C440 1.375 . S
N438 C441 1.313 . S
C439 C440 1.338 . S
C439 N442 1.377 . S
C439 H459 0.930 . S
C440 N438 1.375 . S
C440 C439 1.338 . S
C440 H444 0.931 . S
C441 N438 1.313 . S
C441 N442 1.344 . S
C441 H445 0.930 . S
N442 C439 1.377 . S
N442 C441 1.344 . S
O443 Co435 2.055 . S
O443 C447 1.253 . S
H444 C440 0.931 . S
H445 C441 0.930 . S
O446 Co435 2.039 . S
O446 C436 1.265 . S
C447 O443 1.253 . S
C447 O448 1.227 . S
O448 C447 1.227 . S
N449 Co435 2.140 . S
N449 C452 1.346 . S
N449 C453 1.345 . S
C450 C451 1.387 . S
C450 C454 1.391 . S
C451 C450 1.387 . S
C451 C452 1.369 . S
C451 H460 0.929 . S
C452 N449 1.346 . S
C452 C451 1.369 . S
C452 H455 0.928 . S
C453 N449 1.345 . S
C453 C454 1.371 . S
C453 H456 0.931 . S
C454 C450 1.391 . S
C454 C453 1.371 . S
C454 H461 0.930 . S
H455 C452 0.928 . S
H456 C453 0.931 . S
H457 C433 0.930 . S
H458 C430 0.930 . S
H459 C439 0.930 . S
H460 C451 0.929 . S
H461 C454 0.930 . S
C462 C463 1.351 . S
C462 N465 1.368 . S
C462 H467 0.931 . S
C463 C462 1.351 . S
C463 N464 1.373 . S
C463 H491 0.930 . S
N464 C463 1.373 . S
N464 C466 1.340 . S
N465 C462 1.368 . S
N465 C466 1.321 . S
N465 Co468 2.135 . S
C466 N464 1.340 . S
C466 N465 1.321 . S
C466 H490 0.930 . S
H467 C462 0.931 . S
Co468 N465 2.135 . S
Co468 N471 2.121 . S
Co468 O476 2.055 . S
Co468 O479 2.039 . S
Co468 N482 2.140 . S
C469 O470 1.227 . S
C469 O479 1.265 . S
O470 C469 1.227 . S
N471 Co468 2.121 . S
N471 C473 1.375 . S
N471 C474 1.313 . S
C472 C473 1.338 1_554 S
C472 N475 1.377 . S
C472 H492 0.930 . S
C473 N471 1.375 . S
C473 C472 1.338 1_556 S
C473 H477 0.931 . S
C474 N471 1.313 . S
C474 N475 1.344 1_556 S
C474 H478 0.930 . S
N475 C472 1.377 . S
N475 C474 1.344 1_554 S
O476 Co468 2.055 . S
O476 C480 1.253 . S
H477 C473 0.931 . S
H478 C474 0.930 . S
O479 Co468 2.039 . S
O479 C469 1.265 . S
C480 O476 1.253 . S
C480 O481 1.227 . S
O481 C480 1.227 . S
N482 Co468 2.140 . S
N482 C485 1.346 . S
N482 C486 1.345 . S
C483 C484 1.387 . S
C483 C487 1.391 . S
C484 C483 1.387 . S
C484 C485 1.369 . S
C484 H493 0.929 . S
C485 N482 1.346 . S
C485 C484 1.369 . S
C485 H488 0.928 . S
C486 N482 1.345 . S
C486 C487 1.371 . S
C486 H489 0.931 . S
C487 C483 1.391 . S
C487 C486 1.371 . S
C487 H494 0.930 . S
H488 C485 0.928 . S
H489 C486 0.931 . S
H490 C466 0.930 . S
H491 C463 0.930 . S
H492 C472 0.930 . S
H493 C484 0.929 . S
H494 C487 0.930 . S
C495 C496 1.351 . S
C495 N498 1.368 . S
C495 H500 0.931 . S
C496 C495 1.351 . S
C496 N497 1.373 . S
C496 H524 0.930 . S
N497 C496 1.373 . S
N497 C499 1.340 . S
N498 C495 1.368 . S
N498 C499 1.321 . S
N498 Co501 2.135 . S
C499 N497 1.340 . S
C499 N498 1.321 . S
C499 H523 0.930 . S
H500 C495 0.931 . S
Co501 N498 2.135 . S
Co501 N504 2.121 . S
Co501 O509 2.055 . S
Co501 O512 2.039 . S
Co501 N515 2.140 . S
C502 O503 1.227 . S
C502 O512 1.265 . S
O503 C502 1.227 . S
N504 Co501 2.121 . S
N504 C506 1.375 . S
N504 C507 1.313 . S
C505 C506 1.338 . S
C505 N508 1.377 . S
C505 H525 0.930 . S
C506 N504 1.375 . S
C506 C505 1.338 . S
C506 H510 0.931 . S
C507 N504 1.313 . S
C507 N508 1.344 . S
C507 H511 0.930 . S
N508 C505 1.377 . S
N508 C507 1.344 . S
O509 Co501 2.055 . S
O509 C513 1.253 . S
H510 C506 0.931 . S
H511 C507 0.930 . S
O512 Co501 2.039 . S
O512 C502 1.265 . S
C513 O509 1.253 . S
C513 O514 1.227 . S
O514 C513 1.227 . S
N515 Co501 2.140 . S
N515 C518 1.346 . S
N515 C519 1.345 . S
C516 C517 1.387 . S
C516 C520 1.391 . S
C517 C516 1.387 . S
C517 C518 1.369 . S
C517 H526 0.929 . S
C518 N515 1.346 . S
C518 C517 1.369 . S
C518 H521 0.928 . S
C519 N515 1.345 . S
C519 C520 1.371 . S
C519 H522 0.931 . S
C520 C516 1.391 . S
C520 C519 1.371 . S
C520 H527 0.930 . S
H521 C518 0.928 . S
H522 C519 0.931 . S
H523 C499 0.930 . S
H524 C496 0.930 . S
H525 C505 0.930 . S
H526 C517 0.929 . S
H527 C520 0.930 . S
C528 C529 1.363 . S
C528 C534 1.379 . S
C528 N536 1.356 . S
C529 C528 1.363 . S
C529 C535 1.363 . S
C530 C531 1.363 . S
C530 C535 1.379 . S
C530 N537 1.356 . S
C531 C530 1.363 . S
C531 C534 1.363 . S
N532 C534 1.356 . S
N532 H544 0.984 . S
N532 H545 0.985 . S
N533 C535 1.356 . S
N533 H538 0.984 . S
N533 H539 0.985 . S
C534 C528 1.379 . S
C534 C531 1.363 . S
C534 N532 1.356 . S
C535 C529 1.363 . S
C535 C530 1.379 . S
C535 N533 1.356 . S
N536 C528 1.356 . S
N536 H542 0.984 . S
N536 H543 0.984 . S
N537 C530 1.356 . S
N537 H540 0.984 . S
N537 H541 0.985 . S
H538 N533 0.984 . S
H539 N533 0.985 . S
H540 N537 0.984 . S
H541 N537 0.985 . S
H542 N536 0.984 . S
H543 N536 0.984 . S
H544 N532 0.984 . S
H545 N532 0.985 . S
C546 C547 1.363 . S
C546 C552 1.379 . S
C546 N554 1.356 . S
C547 C546 1.363 . S
C547 C553 1.363 . S
C548 C549 1.363 . S
C548 C553 1.379 . S
C548 N555 1.356 . S
C549 C548 1.363 . S
C549 C552 1.363 . S
N550 C552 1.356 . S
N550 H562 0.984 . S
N550 H563 0.985 . S
N551 C553 1.356 . S
N551 H556 0.984 . S
N551 H557 0.985 . S
C552 C546 1.379 . S
C552 C549 1.363 . S
C552 N550 1.356 . S
C553 C547 1.363 . S
C553 C548 1.379 . S
C553 N551 1.356 . S
N554 C546 1.356 . S
N554 H560 0.984 . S
N554 H561 0.984 . S
N555 C548 1.356 . S
N555 H558 0.984 . S
N555 H559 0.985 . S
H556 N551 0.984 . S
H557 N551 0.985 . S
H558 N555 0.984 . S
H559 N555 0.985 . S
H560 N554 0.984 . S
H561 N554 0.984 . S
H562 N550 0.984 . S
H563 N550 0.985 . S
C564 C565 1.363 . S
C564 C570 1.379 1_554 S
C564 N572 1.356 . S
C565 C564 1.363 . S
C565 C571 1.363 . S
C566 C567 1.363 . S
C566 C571 1.379 1_556 S
C566 N573 1.356 . S
C567 C566 1.363 . S
C567 C570 1.363 . S
N568 C570 1.356 . S
N568 H580 0.984 . S
N568 H581 0.985 . S
N569 C571 1.356 . S
N569 H574 0.984 . S
N569 H575 0.985 . S
C570 C564 1.379 1_556 S
C570 C567 1.363 . S
C570 N568 1.356 . S
C571 C565 1.363 . S
C571 C566 1.379 1_554 S
C571 N569 1.356 . S
N572 C564 1.356 . S
N572 H578 0.984 . S
N572 H579 0.984 . S
N573 C566 1.356 . S
N573 H576 0.984 . S
N573 H577 0.985 . S
H574 N569 0.984 . S
H575 N569 0.985 . S
H576 N573 0.984 . S
H577 N573 0.985 . S
H578 N572 0.984 . S
H579 N572 0.984 . S
H580 N568 0.984 . S
H581 N568 0.985 . S
C582 C583 1.363 . S
C582 C588 1.379 . S
C582 N590 1.356 . S
C583 C582 1.363 . S
C583 C589 1.363 . S
C584 C585 1.363 . S
C584 C589 1.379 . S
C584 N591 1.356 . S
C585 C584 1.363 . S
C585 C588 1.363 . S
N586 C588 1.356 . S
N586 H598 0.984 . S
N586 H599 0.985 . S
N587 C589 1.356 . S
N587 H592 0.984 . S
N587 H593 0.985 . S
C588 C582 1.379 . S
C588 C585 1.363 . S
C588 N586 1.356 . S
C589 C583 1.363 . S
C589 C584 1.379 . S
C589 N587 1.356 . S
N590 C582 1.356 . S
N590 H596 0.984 . S
N590 H597 0.984 . S
N591 C584 1.356 . S
N591 H594 0.984 . S
N591 H595 0.985 . S
H592 N587 0.984 . S
H593 N587 0.985 . S
H594 N591 0.984 . S
H595 N591 0.985 . S
H596 N590 0.984 . S
H597 N590 0.984 . S
H598 N586 0.984 . S
H599 N586 0.985 . S
C600 C601 1.363 . S
C600 C606 1.379 . S
C600 N608 1.356 . S
C601 C600 1.363 . S
C601 C607 1.363 . S
C602 C603 1.363 . S
C602 C607 1.379 . S
C602 N609 1.356 . S
C603 C602 1.363 . S
C603 C606 1.363 . S
N604 C606 1.356 . S
N604 H616 0.984 . S
N604 H617 0.985 . S
N605 C607 1.356 . S
N605 H610 0.984 . S
N605 H611 0.985 . S
C606 C600 1.379 . S
C606 C603 1.363 . S
C606 N604 1.356 . S
C607 C601 1.363 . S
C607 C602 1.379 . S
C607 N605 1.356 . S
N608 C600 1.356 . S
N608 H614 0.984 . S
N608 H615 0.984 . S
N609 C602 1.356 . S
N609 H612 0.984 . S
N609 H613 0.985 . S
H610 N605 0.984 . S
H611 N605 0.985 . S
H612 N609 0.984 . S
H613 N609 0.985 . S
H614 N608 0.984 . S
H615 N608 0.984 . S
H616 N604 0.984 . S
H617 N604 0.985 . S
C618 C619 1.363 . S
C618 C624 1.379 1_556 S
C618 N626 1.356 . S
C619 C618 1.363 . S
C619 C625 1.363 . S
C620 C621 1.363 . S
C620 C625 1.379 1_554 S
C620 N627 1.356 . S
C621 C620 1.363 . S
C621 C624 1.363 . S
N622 C624 1.356 . S
N622 H634 0.984 . S
N622 H635 0.985 . S
N623 C625 1.356 . S
N623 H628 0.984 . S
N623 H629 0.985 . S
C624 C618 1.379 1_554 S
C624 C621 1.363 . S
C624 N622 1.356 . S
C625 C619 1.363 . S
C625 C620 1.379 1_556 S
C625 N623 1.356 . S
N626 C618 1.356 . S
N626 H632 0.984 . S
N626 H633 0.984 . S
N627 C620 1.356 . S
N627 H630 0.984 . S
N627 H631 0.985 . S
H628 N623 0.984 . S
H629 N623 0.985 . S
H630 N627 0.984 . S
H631 N627 0.985 . S
H632 N626 0.984 . S
H633 N626 0.984 . S
H634 N622 0.984 . S
H635 N622 0.985 . S
C636 C637 1.363 . S
C636 C642 1.379 . S
C636 N644 1.356 . S
C637 C636 1.363 . S
C637 C643 1.363 . S
C638 C639 1.363 . S
C638 C643 1.379 . S
C638 N645 1.356 . S
C639 C638 1.363 . S
C639 C642 1.363 . S
N640 C642 1.356 . S
N640 H652 0.984 . S
N640 H653 0.985 . S
N641 C643 1.356 . S
N641 H646 0.984 . S
N641 H647 0.985 . S
C642 C636 1.379 . S
C642 C639 1.363 . S
C642 N640 1.356 . S
C643 C637 1.363 . S
C643 C638 1.379 . S
C643 N641 1.356 . S
N644 C636 1.356 . S
N644 H650 0.984 . S
N644 H651 0.984 . S
N645 C638 1.356 . S
N645 H648 0.984 . S
N645 H649 0.985 . S
H646 N641 0.984 . S
H647 N641 0.985 . S
H648 N645 0.984 . S
H649 N645 0.985 . S
H650 N644 0.984 . S
H651 N644 0.984 . S
H652 N640 0.984 . S
H653 N640 0.985 . S
C654 C655 1.363 . S
C654 C660 1.379 . S
C654 N662 1.356 . S
C655 C654 1.363 . S
C655 C661 1.363 . S
C656 C657 1.363 . S
C656 C661 1.379 . S
C656 N663 1.356 . S
C657 C656 1.363 . S
C657 C660 1.363 . S
N658 C660 1.356 . S
N658 H670 0.984 . S
N658 H671 0.985 . S
N659 C661 1.356 . S
N659 H664 0.984 . S
N659 H665 0.985 . S
C660 C654 1.379 . S
C660 C657 1.363 . S
C660 N658 1.356 . S
C661 C655 1.363 . S
C661 C656 1.379 . S
C661 N659 1.356 . S
N662 C654 1.356 . S
N662 H668 0.984 . S
N662 H669 0.984 . S
N663 C656 1.356 . S
N663 H666 0.984 . S
N663 H667 0.985 . S
H664 N659 0.984 . S
H665 N659 0.985 . S
H666 N663 0.984 . S
H667 N663 0.985 . S
H668 N662 0.984 . S
H669 N662 0.984 . S
H670 N658 0.984 . S
H671 N658 0.985 . S
C672 C673 1.363 . S
C672 C678 1.379 . S
C672 N680 1.356 . S
C673 C672 1.363 . S
C673 C679 1.363 . S
C674 C675 1.363 . S
C674 C679 1.379 . S
C674 N681 1.356 . S
C675 C674 1.363 . S
C675 C678 1.363 . S
N676 C678 1.356 . S
N676 H688 0.984 . S
N676 H689 0.985 . S
N677 C679 1.356 . S
N677 H682 0.984 . S
N677 H683 0.985 . S
C678 C672 1.379 . S
C678 C675 1.363 . S
C678 N676 1.356 . S
C679 C673 1.363 . S
C679 C674 1.379 . S
C679 N677 1.356 . S
N680 C672 1.356 . S
N680 H686 0.984 . S
N680 H687 0.984 . S
N681 C674 1.356 . S
N681 H684 0.984 . S
N681 H685 0.985 . S
H682 N677 0.984 . S
H683 N677 0.985 . S
H684 N681 0.984 . S
H685 N681 0.985 . S
H686 N680 0.984 . S
H687 N680 0.984 . S
H688 N676 0.984 . S
H689 N676 0.985 . S
C690 C691 1.363 . S
C690 C696 1.379 . S
C690 N698 1.356 . S
C691 C690 1.363 . S
C691 C697 1.363 . S
C692 C693 1.363 . S
C692 C697 1.379 . S
C692 N699 1.356 . S
C693 C692 1.363 . S
C693 C696 1.363 . S
N694 C696 1.356 . S
N694 H706 0.984 . S
N694 H707 0.985 . S
N695 C697 1.356 . S
N695 H700 0.984 . S
N695 H701 0.985 . S
C696 C690 1.379 . S
C696 C693 1.363 . S
C696 N694 1.356 . S
C697 C691 1.363 . S
C697 C692 1.379 . S
C697 N695 1.356 . S
N698 C690 1.356 . S
N698 H704 0.984 . S
N698 H705 0.984 . S
N699 C692 1.356 . S
N699 H702 0.984 . S
N699 H703 0.985 . S
H700 N695 0.984 . S
H701 N695 0.985 . S
H702 N699 0.984 . S
H703 N699 0.985 . S
H704 N698 0.984 . S
H705 N698 0.984 . S
H706 N694 0.984 . S
H707 N694 0.985 . S
C708 C709 1.363 . S
C708 C714 1.379 . S
C708 N716 1.356 . S
C709 C708 1.363 . S
C709 C715 1.363 . S
C710 C711 1.363 . S
C710 C715 1.379 . S
C710 N717 1.356 . S
C711 C710 1.363 . S
C711 C714 1.363 . S
N712 C714 1.356 . S
N712 H724 0.984 . S
N712 H725 0.985 . S
N713 C715 1.356 . S
N713 H718 0.984 . S
N713 H719 0.985 . S
C714 C708 1.379 . S
C714 C711 1.363 . S
C714 N712 1.356 . S
C715 C709 1.363 . S
C715 C710 1.379 . S
C715 N713 1.356 . S
N716 C708 1.356 . S
N716 H722 0.984 . S
N716 H723 0.984 . S
N717 C710 1.356 . S
N717 H720 0.984 . S
N717 H721 0.985 . S
H718 N713 0.984 . S
H719 N713 0.985 . S
H720 N717 0.984 . S
H721 N717 0.985 . S
H722 N716 0.984 . S
H723 N716 0.984 . S
H724 N712 0.984 . S
H725 N712 0.985 . S
C726 C727 1.363 . S
C726 C732 1.379 . S
C726 N734 1.356 . S
C727 C726 1.363 . S
C727 C733 1.363 . S
C728 C729 1.363 . S
C728 C733 1.379 . S
C728 N735 1.356 . S
C729 C728 1.363 . S
C729 C732 1.363 . S
N730 C732 1.356 . S
N730 H742 0.984 . S
N730 H743 0.985 . S
N731 C733 1.356 . S
N731 H736 0.984 . S
N731 H737 0.985 . S
C732 C726 1.379 . S
C732 C729 1.363 . S
C732 N730 1.356 . S
C733 C727 1.363 . S
C733 C728 1.379 . S
C733 N731 1.356 . S
N734 C726 1.356 . S
N734 H740 0.984 . S
N734 H741 0.984 . S
N735 C728 1.356 . S
N735 H738 0.984 . S
N735 H739 0.985 . S
H736 N731 0.984 . S
H737 N731 0.985 . S
H738 N735 0.984 . S
H739 N735 0.985 . S
H740 N734 0.984 . S
H741 N734 0.984 . S
H742 N730 0.984 . S
H743 N730 0.985 . S
C744 C745 1.363 . S
C744 C750 1.379 . S
C744 N752 1.356 . S
C745 C744 1.363 . S
C745 C751 1.363 . S
C746 C747 1.363 . S
C746 C751 1.379 . S
C746 N753 1.356 . S
C747 C746 1.363 . S
C747 C750 1.363 . S
N748 C750 1.356 . S
N748 H760 0.984 . S
N748 H761 0.985 . S
N749 C751 1.356 . S
N749 H754 0.984 . S
N749 H755 0.985 . S
C750 C744 1.379 . S
C750 C747 1.363 . S
C750 N748 1.356 . S
C751 C745 1.363 . S
C751 C746 1.379 . S
C751 N749 1.356 . S
N752 C744 1.356 . S
N752 H758 0.984 . S
N752 H759 0.984 . S
N753 C746 1.356 . S
N753 H756 0.984 . S
N753 H757 0.985 . S
H754 N749 0.984 . S
H755 N749 0.985 . S
H756 N753 0.984 . S
H757 N753 0.985 . S
H758 N752 0.984 . S
H759 N752 0.984 . S
H760 N748 0.984 . S
H761 N748 0.985 . S
C762 C763 1.363 . S
C762 C768 1.379 . S
C762 N770 1.356 . S
C763 C762 1.363 . S
C763 C769 1.363 . S
C764 C765 1.363 . S
C764 C769 1.379 . S
C764 N771 1.356 . S
C765 C764 1.363 . S
C765 C768 1.363 . S
N766 C768 1.356 . S
N766 H778 0.984 . S
N766 H779 0.985 . S
N767 C769 1.356 . S
N767 H772 0.984 . S
N767 H773 0.985 . S
C768 C762 1.379 . S
C768 C765 1.363 . S
C768 N766 1.356 . S
C769 C763 1.363 . S
C769 C764 1.379 . S
C769 N767 1.356 . S
N770 C762 1.356 . S
N770 H776 0.984 . S
N770 H777 0.984 . S
N771 C764 1.356 . S
N771 H774 0.984 . S
N771 H775 0.985 . S
H772 N767 0.984 . S
H773 N767 0.985 . S
H774 N771 0.984 . S
H775 N771 0.985 . S
H776 N770 0.984 . S
H777 N770 0.984 . S
H778 N766 0.984 . S
H779 N766 0.985 . S
C780 C781 1.363 . S
C780 C786 1.379 . S
C780 N788 1.356 . S
C781 C780 1.363 . S
C781 C787 1.363 . S
C782 C783 1.363 . S
C782 C787 1.379 . S
C782 N789 1.356 . S
C783 C782 1.363 . S
C783 C786 1.363 . S
N784 C786 1.356 . S
N784 H796 0.984 . S
N784 H797 0.985 . S
N785 C787 1.356 . S
N785 H790 0.984 . S
N785 H791 0.985 . S
C786 C780 1.379 . S
C786 C783 1.363 . S
C786 N784 1.356 . S
C787 C781 1.363 . S
C787 C782 1.379 . S
C787 N785 1.356 . S
N788 C780 1.356 . S
N788 H794 0.984 . S
N788 H795 0.984 . S
N789 C782 1.356 . S
N789 H792 0.984 . S
N789 H793 0.985 . S
H790 N785 0.984 . S
H791 N785 0.985 . S
H792 N789 0.984 . S
H793 N789 0.985 . S
H794 N788 0.984 . S
H795 N788 0.984 . S
H796 N784 0.984 . S
H797 N784 0.985 . S
C798 C799 1.363 . S
C798 C804 1.379 . S
C798 N806 1.356 . S
C799 C798 1.363 . S
C799 C805 1.363 . S
C800 C801 1.363 . S
C800 C805 1.379 . S
C800 N807 1.356 . S
C801 C800 1.363 . S
C801 C804 1.363 . S
N802 C804 1.356 . S
N802 H814 0.984 . S
N802 H815 0.985 . S
N803 C805 1.356 . S
N803 H808 0.984 . S
N803 H809 0.985 . S
C804 C798 1.379 . S
C804 C801 1.363 . S
C804 N802 1.356 . S
C805 C799 1.363 . S
C805 C800 1.379 . S
C805 N803 1.356 . S
N806 C798 1.356 . S
N806 H812 0.984 . S
N806 H813 0.984 . S
N807 C800 1.356 . S
N807 H810 0.984 . S
N807 H811 0.985 . S
H808 N803 0.984 . S
H809 N803 0.985 . S
H810 N807 0.984 . S
H811 N807 0.985 . S
H812 N806 0.984 . S
H813 N806 0.984 . S
H814 N802 0.984 . S
H815 N802 0.985 . S
C816 C817 1.363 . S
C816 C822 1.379 . S
C816 N824 1.356 . S
C817 C816 1.363 . S
C817 C823 1.363 . S
C818 C819 1.363 . S
C818 C823 1.379 . S
C818 N825 1.356 . S
C819 C818 1.363 . S
C819 C822 1.363 . S
N820 C822 1.356 . S
N820 H832 0.984 . S
N820 H833 0.985 . S
N821 C823 1.356 . S
N821 H826 0.984 . S
N821 H827 0.985 . S
C822 C816 1.379 . S
C822 C819 1.363 . S
C822 N820 1.356 . S
C823 C817 1.363 . S
C823 C818 1.379 . S
C823 N821 1.356 . S
N824 C816 1.356 . S
N824 H830 0.984 . S
N824 H831 0.984 . S
N825 C818 1.356 . S
N825 H828 0.984 . S
N825 H829 0.985 . S
H826 N821 0.984 . S
H827 N821 0.985 . S
H828 N825 0.984 . S
H829 N825 0.985 . S
H830 N824 0.984 . S
H831 N824 0.984 . S
H832 N820 0.984 . S
H833 N820 0.985 . S
C834 C835 1.363 . S
C834 C840 1.379 . S
C834 N842 1.356 . S
C835 C834 1.363 . S
C835 C841 1.363 . S
C836 C837 1.363 . S
C836 C841 1.379 . S
C836 N843 1.356 . S
C837 C836 1.363 . S
C837 C840 1.363 . S
N838 C840 1.356 . S
N838 H850 0.984 . S
N838 H851 0.985 . S
N839 C841 1.356 . S
N839 H844 0.984 . S
N839 H845 0.985 . S
C840 C834 1.379 . S
C840 C837 1.363 . S
C840 N838 1.356 . S
C841 C835 1.363 . S
C841 C836 1.379 . S
C841 N839 1.356 . S
N842 C834 1.356 . S
N842 H848 0.984 . S
N842 H849 0.984 . S
N843 C836 1.356 . S
N843 H846 0.984 . S
N843 H847 0.985 . S
H844 N839 0.984 . S
H845 N839 0.985 . S
H846 N843 0.984 . S
H847 N843 0.985 . S
H848 N842 0.984 . S
H849 N842 0.984 . S
H850 N838 0.984 . S
H851 N838 0.985 . S
C852 C853 1.363 . S
C852 C858 1.379 . S
C852 N860 1.356 . S
C853 C852 1.363 . S
C853 C859 1.363 . S
C854 C855 1.363 . S
C854 C859 1.379 . S
C854 N861 1.356 . S
C855 C854 1.363 . S
C855 C858 1.363 . S
N856 C858 1.356 . S
N856 H868 0.984 . S
N856 H869 0.985 . S
N857 C859 1.356 . S
N857 H862 0.984 . S
N857 H863 0.985 . S
C858 C852 1.379 . S
C858 C855 1.363 . S
C858 N856 1.356 . S
C859 C853 1.363 . S
C859 C854 1.379 . S
C859 N857 1.356 . S
N860 C852 1.356 . S
N860 H866 0.984 . S
N860 H867 0.984 . S
N861 C854 1.356 . S
N861 H864 0.984 . S
N861 H865 0.985 . S
H862 N857 0.984 . S
H863 N857 0.985 . S
H864 N861 0.984 . S
H865 N861 0.985 . S
H866 N860 0.984 . S
H867 N860 0.984 . S
H868 N856 0.984 . S
H869 N856 0.985 . S
C870 C871 1.363 . S
C870 C876 1.379 . S
C870 N878 1.356 . S
C871 C870 1.363 . S
C871 C877 1.363 . S
C872 C873 1.363 . S
C872 C877 1.379 . S
C872 N879 1.356 . S
C873 C872 1.363 . S
C873 C876 1.363 . S
N874 C876 1.356 . S
N874 H886 0.984 . S
N874 H887 0.985 . S
N875 C877 1.356 . S
N875 H880 0.984 . S
N875 H881 0.985 . S
C876 C870 1.379 . S
C876 C873 1.363 . S
C876 N874 1.356 . S
C877 C871 1.363 . S
C877 C872 1.379 . S
C877 N875 1.356 . S
N878 C870 1.356 . S
N878 H884 0.984 . S
N878 H885 0.984 . S
N879 C872 1.356 . S
N879 H882 0.984 . S
N879 H883 0.985 . S
H880 N875 0.984 . S
H881 N875 0.985 . S
H882 N879 0.984 . S
H883 N879 0.985 . S
H884 N878 0.984 . S
H885 N878 0.984 . S
H886 N874 0.984 . S
H887 N874 0.985 . S
C888 C889 1.363 . S
C888 C894 1.379 . S
C888 N896 1.356 . S
C889 C888 1.363 . S
C889 C895 1.363 . S
C890 C891 1.363 . S
C890 C895 1.379 . S
C890 N897 1.356 . S
C891 C890 1.363 . S
C891 C894 1.363 . S
N892 C894 1.356 . S
N892 H904 0.984 . S
N892 H905 0.985 . S
N893 C895 1.356 . S
N893 H898 0.984 . S
N893 H899 0.985 . S
C894 C888 1.379 . S
C894 C891 1.363 . S
C894 N892 1.356 . S
C895 C889 1.363 . S
C895 C890 1.379 . S
C895 N893 1.356 . S
N896 C888 1.356 . S
N896 H902 0.984 . S
N896 H903 0.984 . S
N897 C890 1.356 . S
N897 H900 0.984 . S
N897 H901 0.985 . S
H898 N893 0.984 . S
H899 N893 0.985 . S
H900 N897 0.984 . S
H901 N897 0.985 . S
H902 N896 0.984 . S
H903 N896 0.984 . S
H904 N892 0.984 . S
H905 N892 0.985 . S
C906 C907 1.363 . S
C906 C912 1.379 . S
C906 N914 1.356 . S
C907 C906 1.363 . S
C907 C913 1.363 . S
C908 C909 1.363 . S
C908 C913 1.379 . S
C908 N915 1.356 . S
C909 C908 1.363 . S
C909 C912 1.363 . S
N910 C912 1.356 . S
N910 H922 0.984 . S
N910 H923 0.985 . S
N911 C913 1.356 . S
N911 H916 0.984 . S
N911 H917 0.985 . S
C912 C906 1.379 . S
C912 C909 1.363 . S
C912 N910 1.356 . S
C913 C907 1.363 . S
C913 C908 1.379 . S
C913 N911 1.356 . S
N914 C906 1.356 . S
N914 H920 0.984 . S
N914 H921 0.984 . S
N915 C908 1.356 . S
N915 H918 0.984 . S
N915 H919 0.985 . S
H916 N911 0.984 . S
H917 N911 0.985 . S
H918 N915 0.984 . S
H919 N915 0.985 . S
H920 N914 0.984 . S
H921 N914 0.984 . S
H922 N910 0.984 . S
H923 N910 0.985 . S
C924 C925 1.363 . S
C924 C930 1.379 . S
C924 N932 1.356 . S
C925 C924 1.363 . S
C925 C931 1.363 . S
C926 C927 1.363 . S
C926 C931 1.379 . S
C926 N933 1.356 . S
C927 C926 1.363 . S
C927 C930 1.363 . S
N928 C930 1.356 . S
N928 H940 0.984 . S
N928 H941 0.985 . S
N929 C931 1.356 . S
N929 H934 0.984 . S
N929 H935 0.985 . S
C930 C924 1.379 . S
C930 C927 1.363 . S
C930 N928 1.356 . S
C931 C925 1.363 . S
C931 C926 1.379 . S
C931 N929 1.356 . S
N932 C924 1.356 . S
N932 H938 0.984 . S
N932 H939 0.984 . S
N933 C926 1.356 . S
N933 H936 0.984 . S
N933 H937 0.985 . S
H934 N929 0.984 . S
H935 N929 0.985 . S
H936 N933 0.984 . S
H937 N933 0.985 . S
H938 N932 0.984 . S
H939 N932 0.984 . S
H940 N928 0.984 . S
H941 N928 0.985 . S
C942 C943 1.363 . S
C942 C948 1.379 . S
C942 N950 1.356 . S
C943 C942 1.363 . S
C943 C949 1.363 . S
C944 C945 1.363 . S
C944 C949 1.379 . S
C944 N951 1.356 . S
C945 C944 1.363 . S
C945 C948 1.363 . S
N946 C948 1.356 . S
N946 H958 0.984 . S
N946 H959 0.985 . S
N947 C949 1.356 . S
N947 H952 0.984 . S
N947 H953 0.985 . S
C948 C942 1.379 . S
C948 C945 1.363 . S
C948 N946 1.356 . S
C949 C943 1.363 . S
C949 C944 1.379 . S
C949 N947 1.356 . S
N950 C942 1.356 . S
N950 H956 0.984 . S
N950 H957 0.984 . S
N951 C944 1.356 . S
N951 H954 0.984 . S
N951 H955 0.985 . S
H952 N947 0.984 . S
H953 N947 0.985 . S
H954 N951 0.984 . S
H955 N951 0.985 . S
H956 N950 0.984 . S
H957 N950 0.984 . S
H958 N946 0.984 . S
H959 N946 0.985 . S
C960 C961 1.363 1_655 S
C960 C966 1.379 1_545 S
C960 N968 1.356 1_655 S
C961 C960 1.363 1_455 S
C961 C967 1.363 . S
C962 C963 1.363 1_455 S
C962 C967 1.379 1_565 S
C962 N969 1.356 1_455 S
C963 C962 1.363 1_655 S
C963 C966 1.363 . S
N964 C966 1.356 . S
N964 H976 0.984 . S
N964 H977 0.985 . S
N965 C967 1.356 . S
N965 H970 0.984 . S
N965 H971 0.985 . S
C966 C960 1.379 1_565 S
C966 C963 1.363 . S
C966 N964 1.356 . S
C967 C961 1.363 . S
C967 C962 1.379 1_545 S
C967 N965 1.356 . S
N968 C960 1.356 1_455 S
N968 H974 0.984 1_455 S
N968 H975 0.984 . S
N969 C962 1.356 1_655 S
N969 H972 0.984 . S
N969 H973 0.985 1_655 S
H970 N965 0.984 . S
H971 N965 0.985 . S
H972 N969 0.984 . S
H973 N969 0.985 1_455 S
H974 N968 0.984 1_655 S
H975 N968 0.984 . S
H976 N964 0.984 . S
H977 N964 0.985 . S
C978 C979 1.363 . S
C978 C984 1.379 1_455 S
C978 N986 1.356 . S
C979 C978 1.363 . S
C979 C985 1.363 . S
C980 C981 1.363 . S
C980 C985 1.379 1_655 S
C980 N987 1.356 . S
C981 C980 1.363 . S
C981 C984 1.363 . S
N982 C984 1.356 . S
N982 H994 0.984 . S
N982 H995 0.985 . S
N983 C985 1.356 . S
N983 H988 0.984 . S
N983 H989 0.985 . S
C984 C978 1.379 1_655 S
C984 C981 1.363 . S
C984 N982 1.356 . S
C985 C979 1.363 . S
C985 C980 1.379 1_455 S
C985 N983 1.356 . S
N986 C978 1.356 . S
N986 H992 0.984 . S
N986 H993 0.984 . S
N987 C980 1.356 . S
N987 H990 0.984 . S
N987 H991 0.985 . S
H988 N983 0.984 . S
H989 N983 0.985 . S
H990 N987 0.984 . S
H991 N987 0.985 . S
H992 N986 0.984 . S
H993 N986 0.984 . S
H994 N982 0.984 . S
H995 N982 0.985 . S
C996 C997 1.363 . S
C996 C1002 1.379 . S
C996 N1004 1.356 . S
C997 C996 1.363 . S
C997 C1003 1.363 . S
C998 C999 1.363 . S
C998 C1003 1.379 . S
C998 N1005 1.356 . S
C999 C998 1.363 . S
C999 C1002 1.363 . S
N1000 C1002 1.356 . S
N1000 H1012 0.984 . S
N1000 H1013 0.985 . S
N1001 C1003 1.356 . S
N1001 H1006 0.984 . S
N1001 H1007 0.985 . S
C1002 C996 1.379 . S
C1002 C999 1.363 . S
C1002 N1000 1.356 . S
C1003 C997 1.363 . S
C1003 C998 1.379 . S
C1003 N1001 1.356 . S
N1004 C996 1.356 . S
N1004 H1010 0.984 . S
N1004 H1011 0.984 . S
N1005 C998 1.356 . S
N1005 H1008 0.984 . S
N1005 H1009 0.985 . S
H1006 N1001 0.984 . S
H1007 N1001 0.985 . S
H1008 N1005 0.984 . S
H1009 N1005 0.985 . S
H1010 N1004 0.984 . S
H1011 N1004 0.984 . S
H1012 N1000 0.984 . S
H1013 N1000 0.985 . S
C1014 C1015 1.363 . S
C1014 C1020 1.379 . S
C1014 N1022 1.356 . S
C1015 C1014 1.363 . S
C1015 C1021 1.363 1_545 S
C1016 C1017 1.363 . S
C1016 C1021 1.379 . S
C1016 N1023 1.356 1_554 S
C1017 C1016 1.363 . S
C1017 C1020 1.363 1_565 S
N1018 C1020 1.356 1_565 S
N1018 H1030 0.984 1_565 S
N1018 H1031 0.985 . S
N1019 C1021 1.356 1_546 S
N1019 H1024 0.984 . S
N1019 H1025 0.985 1_545 S
C1020 C1014 1.379 . S
C1020 C1017 1.363 1_545 S
C1020 N1018 1.356 1_545 S
C1021 C1015 1.363 1_565 S
C1021 C1016 1.379 . S
C1021 N1019 1.356 1_564 S
N1022 C1014 1.356 . S
N1022 H1028 0.984 . S
N1022 H1029 0.984 . S
N1023 C1016 1.356 1_556 S
N1023 H1026 0.984 . S
N1023 H1027 0.985 . S
H1024 N1019 0.984 . S
H1025 N1019 0.985 1_565 S
H1026 N1023 0.984 . S
H1027 N1023 0.985 . S
H1028 N1022 0.984 . S
H1029 N1022 0.984 . S
H1030 N1018 0.984 1_545 S
H1031 N1018 0.985 . S
C1032 C1033 1.363 1_655 S
C1032 C1038 1.379 . S
C1032 N1040 1.356 1_656 S
C1033 C1032 1.363 1_455 S
C1033 C1039 1.363 . S
C1034 C1035 1.363 1_455 S
C1034 C1039 1.379 . S
C1034 N1041 1.356 1_455 S
C1035 C1034 1.363 1_655 S
C1035 C1038 1.363 . S
N1036 C1038 1.356 1_554 S
N1036 H1048 0.984 . S
N1036 H1049 0.985 . S
N1037 C1039 1.356 . S
N1037 H1042 0.984 . S
N1037 H1043 0.985 . S
C1038 C1032 1.379 . S
C1038 C1035 1.363 . S
C1038 N1036 1.356 1_556 S
C1039 C1033 1.363 . S
C1039 C1034 1.379 . S
C1039 N1037 1.356 . S
N1040 C1032 1.356 1_454 S
N1040 H1046 0.984 1_455 S
N1040 H1047 0.984 . S
N1041 C1034 1.356 1_655 S
N1041 H1044 0.984 . S
N1041 H1045 0.985 1_655 S
H1042 N1037 0.984 . S
H1043 N1037 0.985 . S
H1044 N1041 0.984 . S
H1045 N1041 0.985 1_455 S
H1046 N1040 0.984 1_655 S
H1047 N1040 0.984 . S
H1048 N1036 0.984 . S
H1049 N1036 0.985 . S
C1050 C1051 1.363 . S
C1050 C1056 1.379 . S
C1050 N1058 1.356 . S
C1051 C1050 1.363 . S
C1051 C1057 1.363 . S
C1052 C1053 1.363 . S
C1052 C1057 1.379 . S
C1052 N1059 1.356 . S
C1053 C1052 1.363 . S
C1053 C1056 1.363 . S
N1054 C1056 1.356 . S
N1054 H1066 0.984 . S
N1054 H1067 0.985 . S
N1055 C1057 1.356 . S
N1055 H1060 0.984 . S
N1055 H1061 0.985 . S
C1056 C1050 1.379 . S
C1056 C1053 1.363 . S
C1056 N1054 1.356 . S
C1057 C1051 1.363 . S
C1057 C1052 1.379 . S
C1057 N1055 1.356 . S
N1058 C1050 1.356 . S
N1058 H1064 0.984 . S
N1058 H1065 0.984 . S
N1059 C1052 1.356 . S
N1059 H1062 0.984 . S
N1059 H1063 0.985 . S
H1060 N1055 0.984 . S
H1061 N1055 0.985 . S
H1062 N1059 0.984 . S
H1063 N1059 0.985 . S
H1064 N1058 0.984 . S
H1065 N1058 0.984 . S
H1066 N1054 0.984 . S
H1067 N1054 0.985 . S
C1068 C1069 1.363 . S
C1068 C1074 1.379 1_565 S
C1068 N1076 1.356 . S
C1069 C1068 1.363 . S
C1069 C1075 1.363 . S
C1070 C1071 1.363 . S
C1070 C1075 1.379 1_545 S
C1070 N1077 1.356 . S
C1071 C1070 1.363 . S
C1071 C1074 1.363 . S
N1072 C1074 1.356 . S
N1072 H1084 0.984 . S
N1072 H1085 0.985 . S
N1073 C1075 1.356 . S
N1073 H1078 0.984 . S
N1073 H1079 0.985 . S
C1074 C1068 1.379 1_545 S
C1074 C1071 1.363 . S
C1074 N1072 1.356 . S
C1075 C1069 1.363 . S
C1075 C1070 1.379 1_565 S
C1075 N1073 1.356 . S
N1076 C1068 1.356 . S
N1076 H1082 0.984 . S
N1076 H1083 0.984 . S
N1077 C1070 1.356 . S
N1077 H1080 0.984 . S
N1077 H1081 0.985 . S
H1078 N1073 0.984 . S
H1079 N1073 0.985 . S
H1080 N1077 0.984 . S
H1081 N1077 0.985 . S
H1082 N1076 0.984 . S
H1083 N1076 0.984 . S
H1084 N1072 0.984 . S
H1085 N1072 0.985 . S
C1086 C1087 1.363 1_565 S
C1086 C1092 1.379 1_455 S
C1086 N1094 1.356 1_565 S
C1087 C1086 1.363 1_545 S
C1087 C1093 1.363 . S
C1088 C1089 1.363 1_545 S
C1088 C1093 1.379 1_655 S
C1088 N1095 1.356 1_545 S
C1089 C1088 1.363 1_565 S
C1089 C1092 1.363 . S
N1090 C1092 1.356 . S
N1090 H1102 0.984 . S
N1090 H1103 0.985 . S
N1091 C1093 1.356 . S
N1091 H1096 0.984 . S
N1091 H1097 0.985 . S
C1092 C1086 1.379 1_655 S
C1092 C1089 1.363 . S
C1092 N1090 1.356 . S
C1093 C1087 1.363 . S
C1093 C1088 1.379 1_455 S
C1093 N1091 1.356 . S
N1094 C1086 1.356 1_545 S
N1094 H1100 0.984 1_545 S
N1094 H1101 0.984 . S
N1095 C1088 1.356 1_565 S
N1095 H1098 0.984 . S
N1095 H1099 0.985 1_565 S
H1096 N1091 0.984 . S
H1097 N1091 0.985 . S
H1098 N1095 0.984 . S
H1099 N1095 0.985 1_545 S
H1100 N1094 0.984 1_565 S
H1101 N1094 0.984 . S
H1102 N1090 0.984 . S
H1103 N1090 0.985 . S
C1104 C1105 1.363 . S
C1104 C1110 1.379 . S
C1104 N1112 1.356 . S
C1105 C1104 1.363 . S
C1105 C1111 1.363 . S
C1106 C1107 1.363 . S
C1106 C1111 1.379 . S
C1106 N1113 1.356 . S
C1107 C1106 1.363 . S
C1107 C1110 1.363 . S
N1108 C1110 1.356 . S
N1108 H1120 0.984 . S
N1108 H1121 0.985 . S
N1109 C1111 1.356 . S
N1109 H1114 0.984 . S
N1109 H1115 0.985 . S
C1110 C1104 1.379 . S
C1110 C1107 1.363 . S
C1110 N1108 1.356 . S
C1111 C1105 1.363 . S
C1111 C1106 1.379 . S
C1111 N1109 1.356 . S
N1112 C1104 1.356 . S
N1112 H1118 0.984 . S
N1112 H1119 0.984 . S
N1113 C1106 1.356 . S
N1113 H1116 0.984 . S
N1113 H1117 0.985 . S
H1114 N1109 0.984 . S
H1115 N1109 0.985 . S
H1116 N1113 0.984 . S
H1117 N1113 0.985 . S
H1118 N1112 0.984 . S
H1119 N1112 0.984 . S
H1120 N1108 0.984 . S
H1121 N1108 0.985 . S
C1122 C1123 1.363 . S
C1122 C1128 1.379 . S
C1122 N1130 1.356 . S
C1123 C1122 1.363 . S
C1123 C1129 1.363 . S
C1124 C1125 1.363 . S
C1124 C1129 1.379 . S
C1124 N1131 1.356 . S
C1125 C1124 1.363 . S
C1125 C1128 1.363 . S
N1126 C1128 1.356 . S
N1126 H1138 0.984 . S
N1126 H1139 0.985 . S
N1127 C1129 1.356 . S
N1127 H1132 0.984 . S
N1127 H1133 0.985 . S
C1128 C1122 1.379 . S
C1128 C1125 1.363 . S
C1128 N1126 1.356 . S
C1129 C1123 1.363 . S
C1129 C1124 1.379 . S
C1129 N1127 1.356 . S
N1130 C1122 1.356 . S
N1130 H1136 0.984 . S
N1130 H1137 0.984 . S
N1131 C1124 1.356 . S
N1131 H1134 0.984 . S
N1131 H1135 0.985 . S
H1132 N1127 0.984 . S
H1133 N1127 0.985 . S
H1134 N1131 0.984 . S
H1135 N1131 0.985 . S
H1136 N1130 0.984 . S
H1137 N1130 0.984 . S
H1138 N1126 0.984 . S
H1139 N1126 0.985 . S
C1140 C1141 1.363 . S
C1140 C1146 1.379 . S
C1140 N1148 1.356 . S
C1141 C1140 1.363 . S
C1141 C1147 1.363 . S
C1142 C1143 1.363 . S
C1142 C1147 1.379 . S
C1142 N1149 1.356 . S
C1143 C1142 1.363 . S
C1143 C1146 1.363 . S
N1144 C1146 1.356 . S
N1144 H1156 0.984 . S
N1144 H1157 0.985 . S
N1145 C1147 1.356 . S
N1145 H1150 0.984 . S
N1145 H1151 0.985 . S
C1146 C1140 1.379 . S
C1146 C1143 1.363 . S
C1146 N1144 1.356 . S
C1147 C1141 1.363 . S
C1147 C1142 1.379 . S
C1147 N1145 1.356 . S
N1148 C1140 1.356 . S
N1148 H1154 0.984 . S
N1148 H1155 0.984 . S
N1149 C1142 1.356 . S
N1149 H1152 0.984 . S
N1149 H1153 0.985 . S
H1150 N1145 0.984 . S
H1151 N1145 0.985 . S
H1152 N1149 0.984 . S
H1153 N1149 0.985 . S
H1154 N1148 0.984 . S
H1155 N1148 0.984 . S
H1156 N1144 0.984 . S
H1157 N1144 0.985 . S
C1158 C1159 1.363 . S
C1158 C1164 1.379 . S
C1158 N1166 1.356 . S
C1159 C1158 1.363 . S
C1159 C1165 1.363 . S
C1160 C1161 1.363 . S
C1160 C1165 1.379 . S
C1160 N1167 1.356 . S
C1161 C1160 1.363 . S
C1161 C1164 1.363 . S
N1162 C1164 1.356 . S
N1162 H1174 0.984 . S
N1162 H1175 0.985 . S
N1163 C1165 1.356 . S
N1163 H1168 0.984 . S
N1163 H1169 0.985 . S
C1164 C1158 1.379 . S
C1164 C1161 1.363 . S
C1164 N1162 1.356 . S
C1165 C1159 1.363 . S
C1165 C1160 1.379 . S
C1165 N1163 1.356 . S
N1166 C1158 1.356 . S
N1166 H1172 0.984 . S
N1166 H1173 0.984 . S
N1167 C1160 1.356 . S
N1167 H1170 0.984 . S
N1167 H1171 0.985 . S
H1168 N1163 0.984 . S
H1169 N1163 0.985 . S
H1170 N1167 0.984 . S
H1171 N1167 0.985 . S
H1172 N1166 0.984 . S
H1173 N1166 0.984 . S
H1174 N1162 0.984 . S
H1175 N1162 0.985 . S
C1176 C1177 1.363 . S
C1176 C1182 1.379 . S
C1176 N1184 1.356 . S
C1177 C1176 1.363 . S
C1177 C1183 1.363 . S
C1178 C1179 1.363 . S
C1178 C1183 1.379 . S
C1178 N1185 1.356 . S
C1179 C1178 1.363 . S
C1179 C1182 1.363 . S
N1180 C1182 1.356 . S
N1180 H1192 0.984 . S
N1180 H1193 0.985 . S
N1181 C1183 1.356 . S
N1181 H1186 0.984 . S
N1181 H1187 0.985 . S
C1182 C1176 1.379 . S
C1182 C1179 1.363 . S
C1182 N1180 1.356 . S
C1183 C1177 1.363 . S
C1183 C1178 1.379 . S
C1183 N1181 1.356 . S
N1184 C1176 1.356 . S
N1184 H1190 0.984 . S
N1184 H1191 0.984 . S
N1185 C1178 1.356 . S
N1185 H1188 0.984 . S
N1185 H1189 0.985 . S
H1186 N1181 0.984 . S
H1187 N1181 0.985 . S
H1188 N1185 0.984 . S
H1189 N1185 0.985 . S
H1190 N1184 0.984 . S
H1191 N1184 0.984 . S
H1192 N1180 0.984 . S
H1193 N1180 0.985 . S
C1194 C1195 1.363 . S
C1194 C1200 1.379 . S
C1194 N1202 1.356 . S
C1195 C1194 1.363 . S
C1195 C1201 1.363 . S
C1196 C1197 1.363 . S
C1196 C1201 1.379 . S
C1196 N1203 1.356 . S
C1197 C1196 1.363 . S
C1197 C1200 1.363 . S
N1198 C1200 1.356 . S
N1198 H1210 0.984 . S
N1198 H1211 0.985 . S
N1199 C1201 1.356 . S
N1199 H1204 0.984 . S
N1199 H1205 0.985 . S
C1200 C1194 1.379 . S
C1200 C1197 1.363 . S
C1200 N1198 1.356 . S
C1201 C1195 1.363 . S
C1201 C1196 1.379 . S
C1201 N1199 1.356 . S
N1202 C1194 1.356 . S
N1202 H1208 0.984 . S
N1202 H1209 0.984 . S
N1203 C1196 1.356 . S
N1203 H1206 0.984 . S
N1203 H1207 0.985 . S
H1204 N1199 0.984 . S
H1205 N1199 0.985 . S
H1206 N1203 0.984 . S
H1207 N1203 0.985 . S
H1208 N1202 0.984 . S
H1209 N1202 0.984 . S
H1210 N1198 0.984 . S
H1211 N1198 0.985 . S
C1212 C1213 1.363 . S
C1212 C1218 1.379 . S
C1212 N1220 1.356 . S
C1213 C1212 1.363 . S
C1213 C1219 1.363 . S
C1214 C1215 1.363 . S
C1214 C1219 1.379 . S
C1214 N1221 1.356 . S
C1215 C1214 1.363 . S
C1215 C1218 1.363 . S
N1216 C1218 1.356 . S
N1216 H1228 0.984 . S
N1216 H1229 0.985 . S
N1217 C1219 1.356 . S
N1217 H1222 0.984 . S
N1217 H1223 0.985 . S
C1218 C1212 1.379 . S
C1218 C1215 1.363 . S
C1218 N1216 1.356 . S
C1219 C1213 1.363 . S
C1219 C1214 1.379 . S
C1219 N1217 1.356 . S
N1220 C1212 1.356 . S
N1220 H1226 0.984 . S
N1220 H1227 0.984 . S
N1221 C1214 1.356 . S
N1221 H1224 0.984 . S
N1221 H1225 0.985 . S
H1222 N1217 0.984 . S
H1223 N1217 0.985 . S
H1224 N1221 0.984 . S
H1225 N1221 0.985 . S
H1226 N1220 0.984 . S
H1227 N1220 0.984 . S
H1228 N1216 0.984 . S
H1229 N1216 0.985 . S
C1230 C1231 1.363 . S
C1230 C1236 1.379 . S
C1230 N1238 1.356 . S
C1231 C1230 1.363 . S
C1231 C1237 1.363 . S
C1232 C1233 1.363 . S
C1232 C1237 1.379 . S
C1232 N1239 1.356 . S
C1233 C1232 1.363 . S
C1233 C1236 1.363 . S
N1234 C1236 1.356 . S
N1234 H1246 0.984 . S
N1234 H1247 0.985 . S
N1235 C1237 1.356 . S
N1235 H1240 0.984 . S
N1235 H1241 0.985 . S
C1236 C1230 1.379 . S
C1236 C1233 1.363 . S
C1236 N1234 1.356 . S
C1237 C1231 1.363 . S
C1237 C1232 1.379 . S
C1237 N1235 1.356 . S
N1238 C1230 1.356 . S
N1238 H1244 0.984 . S
N1238 H1245 0.984 . S
N1239 C1232 1.356 . S
N1239 H1242 0.984 . S
N1239 H1243 0.985 . S
H1240 N1235 0.984 . S
H1241 N1235 0.985 . S
H1242 N1239 0.984 . S
H1243 N1239 0.985 . S
H1244 N1238 0.984 . S
H1245 N1238 0.984 . S
H1246 N1234 0.984 . S
H1247 N1234 0.985 . S
C529 N2 0.638 . S
C531 N431 0.638 . S
C547 N464 0.638 . S
C549 N35 0.638 . S
C565 N497 0.638 . S
C567 N68 0.638 . S
C583 N398 0.638 . S
C585 N101 0.638 . S
C601 N365 0.638 . S
C603 N134 0.638 . S
C619 N266 0.638 . S
C621 N167 0.638 . S
C637 N200 0.638 . S
C639 N299 0.638 . S
C655 N332 0.638 . S
C657 N233 0.638 . S
C673 C304 2.061 . S
C675 N13 2.213 . S
C691 N46 2.213 . S
C693 C337 2.061 . S
C709 N79 2.213 . S
C711 C370 2.062 . S
C727 N112 2.213 . S
C729 C271 2.062 . S
C745 N145 2.213 . S
C747 C502 2.062 . S
C763 C403 2.062 . S
C765 N178 2.213 . S
C781 C436 2.061 . S
C783 N211 2.213 . S
C799 C469 2.061 . S
C801 N244 2.213 . S
C817 N277 2.213 . S
C819 C40 2.062 . S
C835 N310 2.213 . S
C837 C73 2.062 . S
C853 N343 2.213 . S
C855 C106 2.061 . S
C871 C7 2.061 . S
C873 N376 2.213 . S
C889 N409 2.213 . S
C891 C238 2.061 . S
C907 C139 2.061 . S
C909 N442 2.213 . S
C925 N475 2.213 . S
C927 C172 2.062 . S
C943 N508 2.213 . S
C945 C205 2.062 . S
C961 C21 1.380 . S
C963 C351 1.380 . S
C979 C384 1.380 . S
C981 C54 1.380 . S
C997 C87 1.380 . S
C999 C285 1.380 . S
C1015 C318 1.380 . S
C1017 C120 1.380 . S
C1033 C153 1.380 . S
C1035 C483 1.380 . S
C1051 C516 1.380 . S
C1053 C186 1.380 . S
C1069 C417 1.380 . S
C1071 C219 1.380 . S
C1087 C450 1.380 . S
C1089 C252 1.380 . S
C1105 C216 1.033 . S
C1107 C18 1.033 . S
C1123 C51 1.033 . S
C1125 C249 1.033 . S
C1141 C150 1.033 . S
C1143 C84 1.033 . S
C1159 C117 1.033 . S
C1161 C183 1.033 . S
C1177 C282 1.033 . S
C1179 C480 1.033 . S
C1195 C315 1.033 . S
C1197 C513 1.033 . S
C1213 C348 1.033 . S
C1215 C414 1.033 . S
C1231 C447 1.033 . S
C1233 C381 1.033 . S
