# Generated by pormake.
# Topology uka, (4)-cn, num edge types: 1
# Building blocks:
#     Node 0, Type 0, BuildingBlock: TATPOV_clean_sbu_0, # of connection points: 4
#     Node 1, Type 0, BuildingBlock: TATPOV_clean_sbu_0, # of connection points: 4
#     Node 2, Type 0, BuildingBlock: TATPOV_clean_sbu_0, # of connection points: 4
#     Node 3, Type 0, BuildingBlock: TATPOV_clean_sbu_0, # of connection points: 4
#     Node 4, Type 0, BuildingBlock: TATPOV_clean_sbu_0, # of connection points: 4
#     Node 5, Type 0, BuildingBlock: TATPOV_clean_sbu_0, # of connection points: 4
#     Node 6, Type 0, BuildingBlock: TATPOV_clean_sbu_0, # of connection points: 4
#     Node 7, Type 0, BuildingBlock: TATPOV_clean_sbu_0, # of connection points: 4
#     Node 8, Type 0, BuildingBlock: TATPOV_clean_sbu_0, # of connection points: 4
#     Node 9, Type 0, BuildingBlock: TATPOV_clean_sbu_0, # of connection points: 4
#     Node 10, Type 0, BuildingBlock: TATPOV_clean_sbu_0, # of connection points: 4
#     Node 11, Type 0, BuildingBlock: TATPOV_clean_sbu_0, # of connection points: 4
#     Node 12, Type 0, BuildingBlock: TATPOV_clean_sbu_0, # of connection points: 4
#     Node 13, Type 0, BuildingBlock: TATPOV_clean_sbu_0, # of connection points: 4
#     Node 14, Type 0, BuildingBlock: TATPOV_clean_sbu_0, # of connection points: 4
#     Node 15, Type 0, BuildingBlock: TATPOV_clean_sbu_0, # of connection points: 4
#     Node 16, Type 0, BuildingBlock: TATPOV_clean_sbu_0, # of connection points: 4
#     Node 17, Type 0, BuildingBlock: TATPOV_clean_sbu_0, # of connection points: 4
#     Node 18, Type 0, BuildingBlock: TATPOV_clean_sbu_0, # of connection points: 4
#     Node 19, Type 0, BuildingBlock: TATPOV_clean_sbu_0, # of connection points: 4
#     Node 20, Type 0, BuildingBlock: TATPOV_clean_sbu_0, # of connection points: 4
#     Node 21, Type 0, BuildingBlock: TATPOV_clean_sbu_0, # of connection points: 4
#     Node 22, Type 0, BuildingBlock: TATPOV_clean_sbu_0, # of connection points: 4
#     Node 23, Type 0, BuildingBlock: TATPOV_clean_sbu_0, # of connection points: 4
#     Node 24, Type 0, BuildingBlock: TATPOV_clean_sbu_0, # of connection points: 4
#     Node 25, Type 0, BuildingBlock: TATPOV_clean_sbu_0, # of connection points: 4
#     Node 26, Type 0, BuildingBlock: TATPOV_clean_sbu_0, # of connection points: 4
#     Node 27, Type 0, BuildingBlock: TATPOV_clean_sbu_0, # of connection points: 4
#     Node 28, Type 0, BuildingBlock: TATPOV_clean_sbu_0, # of connection points: 4
#     Node 29, Type 0, BuildingBlock: TATPOV_clean_sbu_0, # of connection points: 4
#     Node 30, Type 0, BuildingBlock: TATPOV_clean_sbu_0, # of connection points: 4
#     Node 31, Type 0, BuildingBlock: TATPOV_clean_sbu_0, # of connection points: 4
#     Edge 32, Type (0, 0), BuildingBlock: CIFDUS_clean_linker_0, # of connection points: 2
#     Edge 33, Type (0, 0), BuildingBlock: CIFDUS_clean_linker_0, # of connection points: 2
#     Edge 34, Type (0, 0), BuildingBlock: CIFDUS_clean_linker_0, # of connection points: 2
#     Edge 35, Type (0, 0), BuildingBlock: CIFDUS_clean_linker_0, # of connection points: 2
#     Edge 36, Type (0, 0), BuildingBlock: CIFDUS_clean_linker_0, # of connection points: 2
#     Edge 37, Type (0, 0), BuildingBlock: CIFDUS_clean_linker_0, # of connection points: 2
#     Edge 38, Type (0, 0), BuildingBlock: CIFDUS_clean_linker_0, # of connection points: 2
#     Edge 39, Type (0, 0), BuildingBlock: CIFDUS_clean_linker_0, # of connection points: 2
#     Edge 40, Type (0, 0), BuildingBlock: CIFDUS_clean_linker_0, # of connection points: 2
#     Edge 41, Type (0, 0), BuildingBlock: CIFDUS_clean_linker_0, # of connection points: 2
#     Edge 42, Type (0, 0), BuildingBlock: CIFDUS_clean_linker_0, # of connection points: 2
#     Edge 43, Type (0, 0), BuildingBlock: CIFDUS_clean_linker_0, # of connection points: 2
#     Edge 44, Type (0, 0), BuildingBlock: CIFDUS_clean_linker_0, # of connection points: 2
#     Edge 45, Type (0, 0), BuildingBlock: CIFDUS_clean_linker_0, # of connection points: 2
#     Edge 46, Type (0, 0), BuildingBlock: CIFDUS_clean_linker_0, # of connection points: 2
#     Edge 47, Type (0, 0), BuildingBlock: CIFDUS_clean_linker_0, # of connection points: 2
#     Edge 48, Type (0, 0), BuildingBlock: CIFDUS_clean_linker_0, # of connection points: 2
#     Edge 49, Type (0, 0), BuildingBlock: CIFDUS_clean_linker_0, # of connection points: 2
#     Edge 50, Type (0, 0), BuildingBlock: CIFDUS_clean_linker_0, # of connection points: 2
#     Edge 51, Type (0, 0), BuildingBlock: CIFDUS_clean_linker_0, # of connection points: 2
#     Edge 52, Type (0, 0), BuildingBlock: CIFDUS_clean_linker_0, # of connection points: 2
#     Edge 53, Type (0, 0), BuildingBlock: CIFDUS_clean_linker_0, # of connection points: 2
#     Edge 54, Type (0, 0), BuildingBlock: CIFDUS_clean_linker_0, # of connection points: 2
#     Edge 55, Type (0, 0), BuildingBlock: CIFDUS_clean_linker_0, # of connection points: 2
#     Edge 56, Type (0, 0), BuildingBlock: CIFDUS_clean_linker_0, # of connection points: 2
#     Edge 57, Type (0, 0), BuildingBlock: CIFDUS_clean_linker_0, # of connection points: 2
#     Edge 58, Type (0, 0), BuildingBlock: CIFDUS_clean_linker_0, # of connection points: 2
#     Edge 59, Type (0, 0), BuildingBlock: CIFDUS_clean_linker_0, # of connection points: 2
#     Edge 60, Type (0, 0), BuildingBlock: CIFDUS_clean_linker_0, # of connection points: 2
#     Edge 61, Type (0, 0), BuildingBlock: CIFDUS_clean_linker_0, # of connection points: 2
#     Edge 62, Type (0, 0), BuildingBlock: CIFDUS_clean_linker_0, # of connection points: 2
#     Edge 63, Type (0, 0), BuildingBlock: CIFDUS_clean_linker_0, # of connection points: 2
#     Edge 64, Type (0, 0), BuildingBlock: CIFDUS_clean_linker_0, # of connection points: 2
#     Edge 65, Type (0, 0), BuildingBlock: CIFDUS_clean_linker_0, # of connection points: 2
#     Edge 66, Type (0, 0), BuildingBlock: CIFDUS_clean_linker_0, # of connection points: 2
#     Edge 67, Type (0, 0), BuildingBlock: CIFDUS_clean_linker_0, # of connection points: 2
#     Edge 68, Type (0, 0), BuildingBlock: CIFDUS_clean_linker_0, # of connection points: 2
#     Edge 69, Type (0, 0), BuildingBlock: CIFDUS_clean_linker_0, # of connection points: 2
#     Edge 70, Type (0, 0), BuildingBlock: CIFDUS_clean_linker_0, # of connection points: 2
#     Edge 71, Type (0, 0), BuildingBlock: CIFDUS_clean_linker_0, # of connection points: 2
#     Edge 72, Type (0, 0), BuildingBlock: CIFDUS_clean_linker_0, # of connection points: 2
#     Edge 73, Type (0, 0), BuildingBlock: CIFDUS_clean_linker_0, # of connection points: 2
#     Edge 74, Type (0, 0), BuildingBlock: CIFDUS_clean_linker_0, # of connection points: 2
#     Edge 75, Type (0, 0), BuildingBlock: CIFDUS_clean_linker_0, # of connection points: 2
#     Edge 76, Type (0, 0), BuildingBlock: CIFDUS_clean_linker_0, # of connection points: 2
#     Edge 77, Type (0, 0), BuildingBlock: CIFDUS_clean_linker_0, # of connection points: 2
#     Edge 78, Type (0, 0), BuildingBlock: CIFDUS_clean_linker_0, # of connection points: 2
#     Edge 79, Type (0, 0), BuildingBlock: CIFDUS_clean_linker_0, # of connection points: 2
#     Edge 80, Type (0, 0), BuildingBlock: CIFDUS_clean_linker_0, # of connection points: 2
#     Edge 81, Type (0, 0), BuildingBlock: CIFDUS_clean_linker_0, # of connection points: 2
#     Edge 82, Type (0, 0), BuildingBlock: CIFDUS_clean_linker_0, # of connection points: 2
#     Edge 83, Type (0, 0), BuildingBlock: CIFDUS_clean_linker_0, # of connection points: 2
#     Edge 84, Type (0, 0), BuildingBlock: CIFDUS_clean_linker_0, # of connection points: 2
#     Edge 85, Type (0, 0), BuildingBlock: CIFDUS_clean_linker_0, # of connection points: 2
#     Edge 86, Type (0, 0), BuildingBlock: CIFDUS_clean_linker_0, # of connection points: 2
#     Edge 87, Type (0, 0), BuildingBlock: CIFDUS_clean_linker_0, # of connection points: 2
#     Edge 88, Type (0, 0), BuildingBlock: CIFDUS_clean_linker_0, # of connection points: 2
#     Edge 89, Type (0, 0), BuildingBlock: CIFDUS_clean_linker_0, # of connection points: 2
#     Edge 90, Type (0, 0), BuildingBlock: CIFDUS_clean_linker_0, # of connection points: 2
#     Edge 91, Type (0, 0), BuildingBlock: CIFDUS_clean_linker_0, # of connection points: 2
#     Edge 92, Type (0, 0), BuildingBlock: CIFDUS_clean_linker_0, # of connection points: 2
#     Edge 93, Type (0, 0), BuildingBlock: CIFDUS_clean_linker_0, # of connection points: 2
#     Edge 94, Type (0, 0), BuildingBlock: CIFDUS_clean_linker_0, # of connection points: 2
#     Edge 95, Type (0, 0), BuildingBlock: CIFDUS_clean_linker_0, # of connection points: 2
# Relax obj value: 0.179
# Max RMSD: 0.208
# Mean RMSD: 0.208
data_MOF--net-uka--node1-TATPOV_clean_sbu_0--edge1-CIFDUS_clean_linker_0
_symmetry_space_group_name_H-M    P1
_symmetry_Int_Tables_number       1
_symmetry_cell_setting            triclinic
loop_
_symmetry_equiv_pos_as_xyz
'x, y, z'
_cell_length_a     51.677422
_cell_length_b     51.67978
_cell_length_c     37.951345
_cell_angle_alpha  89.854285
_cell_angle_beta   90.124035
_cell_angle_gamma 89.790617
loop_
_atom_site_label
_atom_site_type_symbol
_atom_site_fract_x
_atom_site_fract_y
_atom_site_fract_z
_atom_type_partial_charge
Zn0 Zn 0.06667 0.18587 0.20077 0.0
Zn1 Zn 0.10861 0.21135 0.21309 0.0
O2 O 0.1132 0.17242 0.22576 0.0
O3 O 0.0806 0.15003 0.20542 0.0
O4 O 0.14528 0.22464 0.21375 0.0
O5 O 0.06082 0.20088 0.15333 0.0
O6 O 0.0949 0.22468 0.16532 0.0
C7 C 0.10202 0.15064 0.22146 0.0
C8 C 0.06531 0.22273 0.26119 0.0
O9 O 0.08817 0.2291 0.25217 0.0
O10 O 0.05339 0.20511 0.24449 0.0
C11 C 0.16159 0.21713 0.23675 0.0
O12 O 0.15382 0.20195 0.26243 0.0
C13 C 0.0762 0.21878 0.14502 0.0
Zn14 Zn 0.97169 0.84739 0.51633 0.0
Zn15 Zn 0.96143 0.89512 0.52068 0.0
O16 O 0.00098 0.89196 0.52816 0.0
O17 O 0.00982 0.85286 0.50936 0.0
O18 O 0.95668 0.93365 0.51686 0.0
O19 O 0.94831 0.84089 0.47574 0.0
O20 O 0.94697 0.88335 0.47235 0.0
C21 C 0.01754 0.87454 0.52053 0.0
C22 C 0.94413 0.86029 0.57937 0.0
O23 O 0.94108 0.88227 0.56454 0.0
O24 O 0.95788 0.84297 0.5651 0.0
C25 C 0.96877 0.94927 0.53668 0.0
O26 O 0.98244 0.94002 0.56313 0.0
C27 C 0.9415 0.86122 0.45968 0.0
Zn28 Zn 0.42145 0.67614 0.80595 0.0
Zn29 Zn 0.38161 0.69551 0.77504 0.0
O30 O 0.39939 0.72939 0.79085 0.0
O31 O 0.43298 0.71218 0.81832 0.0
O32 O 0.35032 0.70636 0.7471 0.0
O33 O 0.43676 0.65935 0.76469 0.0
O34 O 0.40259 0.67488 0.73718 0.0
C35 C 0.42026 0.73189 0.80844 0.0
C36 C 0.37539 0.66012 0.83928 0.0
O37 O 0.36539 0.67627 0.81777 0.0
O38 O 0.3994 0.65543 0.83809 0.0
C39 C 0.33708 0.72659 0.75323 0.0
O40 O 0.34408 0.74201 0.77899 0.0
C41 C 0.42382 0.66215 0.7367 0.0
Zn42 Zn 0.5648 0.15656 0.03842 0.0
Zn43 Zn 0.53532 0.11781 0.03062 0.0
O44 O 0.50623 0.14315 0.04364 0.0
O45 O 0.53186 0.17693 0.04854 0.0
O46 O 0.51906 0.08294 0.02082 0.0
O47 O 0.58033 0.15795 -0.00866 0.0
O48 O 0.55135 0.12781 0.9815 0.0
C49 C 0.50935 0.1672 0.04965 0.0
C50 C 0.57693 0.12095 0.09011 0.0
O51 O 0.55749 0.11007 0.07569 0.0
O52 O 0.58565 0.14169 0.07723 0.0
C53 C 0.53336 0.06718 0.00395 0.0
O54 O 0.55656 0.0747 -0.00568 0.0
C55 C 0.56892 0.14304 0.9702 0.0
Zn56 Zn 0.08119 0.75424 0.22404 0.0
Zn57 Zn 0.12992 0.7472 0.22865 0.0
O58 O 0.12436 0.78635 0.21903 0.0
O59 O 0.08327 0.79279 0.23041 0.0
O60 O 0.16779 0.74461 0.24099 0.0
O61 O 0.07196 0.73048 0.2635 0.0
O62 O 0.11391 0.73069 0.27331 0.0
C63 C 0.10518 0.80181 0.22222 0.0
C64 C 0.10332 0.7275 0.16425 0.0
O65 O 0.12372 0.72608 0.18312 0.0
O66 O 0.08364 0.73977 0.17504 0.0
C67 C 0.18723 0.74774 0.221 0.0
O68 O 0.18356 0.75265 0.18737 0.0
C69 C 0.09114 0.72402 0.28224 0.0
Zn70 Zn 0.47933 0.84648 0.48295 0.0
Zn71 Zn 0.49902 0.89142 0.46522 0.0
O72 O 0.45928 0.89377 0.46276 0.0
O73 O 0.44266 0.85959 0.48818 0.0
O74 O 0.5086 0.92894 0.45913 0.0
O75 O 0.50384 0.84275 0.52385 0.0
O76 O 0.51661 0.88244 0.51217 0.0
C77 C 0.43949 0.88125 0.47314 0.0
C78 C 0.50688 0.8474 0.41541 0.0
O79 O 0.51396 0.87016 0.42403 0.0
O80 O 0.4914 0.83481 0.43478 0.0
C81 C 0.49701 0.94326 0.43679 0.0
O82 O 0.48128 0.9325 0.4139 0.0
C83 C 0.51771 0.86213 0.53115 0.0
Zn84 Zn 0.41961 0.23215 0.73282 0.0
Zn85 Zn 0.37107 0.2421 0.72418 0.0
O86 O 0.37607 0.20244 0.72079 0.0
O87 O 0.41465 0.19409 0.7421 0.0
O88 O 0.33237 0.24639 0.72579 0.0
O89 O 0.42418 0.25814 0.77152 0.0
O90 O 0.38181 0.26164 0.76894 0.0
C91 C 0.39345 0.18603 0.72958 0.0
C92 C 0.40635 0.25632 0.66558 0.0
O93 O 0.38408 0.25994 0.67908 0.0
O94 O 0.42362 0.24381 0.68224 0.0
C95 C 0.31671 0.23855 0.70232 0.0
O96 O 0.32588 0.22774 0.67362 0.0
C97 C 0.40331 0.26761 0.78315 0.0
Zn98 Zn 0.0345 0.17196 -0.00744 0.0
Zn99 Zn 0.00534 0.13162 0.9853 0.0
O100 O 0.04398 0.12272 0.97501 0.0
O101 O 0.06891 0.15471 -0.00885 0.0
O102 O 0.99009 0.09575 0.98738 0.0
O103 O 0.01956 0.18123 0.03875 0.0
O104 O 0.99363 0.14786 0.03241 0.0
C105 C 0.0666 0.13218 0.9788 0.0
C106 C 0.99844 0.17271 0.9315 0.0
O107 O 0.98944 0.15154 0.94362 0.0
O108 O 0.01729 0.18376 0.94674 0.0
C109 C 0.99746 0.07905 0.96497 0.0
O110 O 0.01161 0.0867 0.9382 0.0
C111 C 0.0013 0.16736 0.04996 0.0
Zn112 Zn 0.90813 0.70203 0.70196 0.0
Zn113 Zn 0.85729 0.70396 0.70751 0.0
O114 O 0.86683 0.74135 0.69373 0.0
O115 O 0.90938 0.74084 0.69502 0.0
O116 O 0.81895 0.70695 0.71569 0.0
O117 O 0.9131 0.68633 0.74916 0.0
O118 O 0.87099 0.69071 0.75606 0.0
C119 C 0.88834 0.75312 0.69085 0.0
C120 C 0.88152 0.67078 0.65048 0.0
O121 O 0.86098 0.67891 0.66535 0.0
O122 O 0.90354 0.67814 0.661 0.0
C123 C 0.8041 0.71522 0.69139 0.0
O124 O 0.81398 0.72057 0.66035 0.0
C125 C 0.89314 0.68398 0.76801 0.0
Zn126 Zn 0.04421 0.17855 0.43676 0.0
Zn127 Zn 0.02247 0.13154 0.44349 0.0
O128 O 0.9929 0.15252 0.42032 0.0
O129 O 0.00993 0.19154 0.41761 0.0
O130 O 0.00703 0.09722 0.45658 0.0
O131 O 0.05251 0.18172 0.48763 0.0
O132 O 0.03485 0.14319 0.49239 0.0
C133 C 0.99101 0.17646 0.41249 0.0
C134 C 0.07036 0.13713 0.39843 0.0
O135 O 0.0521 0.12278 0.40949 0.0
O136 O 0.07089 0.16094 0.40632 0.0
C137 C 0.98964 0.08462 0.44041 0.0
O138 O 0.98009 0.09377 0.41076 0.0
C139 C 0.0463 0.16244 0.50625 0.0
Zn140 Zn 0.57484 0.24078 0.24291 0.0
Zn141 Zn 0.62218 0.25589 0.22746 0.0
O142 O 0.62195 0.2161 0.22692 0.0
O143 O 0.58513 0.20327 0.24954 0.0
O144 O 0.66001 0.2638 0.22157 0.0
O145 O 0.57273 0.2662 0.28295 0.0
O146 O 0.61397 0.27438 0.27388 0.0
C147 C 0.60711 0.19783 0.23685 0.0
C148 C 0.58016 0.2662 0.17452 0.0
O149 O 0.60316 0.27137 0.18443 0.0
O150 O 0.56546 0.25263 0.19376 0.0
C151 C 0.67456 0.25174 0.20016 0.0
O152 O 0.66435 0.23461 0.17877 0.0
C153 C 0.59333 0.27778 0.2915 0.0
Zn154 Zn 0.5245 0.81967 0.98583 0.0
Zn155 Zn 0.50712 0.869 0.98205 0.0
O156 O 0.54599 0.86867 0.96918 0.0
O157 O 0.56142 0.82939 0.97657 0.0
O158 O 0.50065 0.90753 0.98099 0.0
O159 O 0.51182 0.81748 0.03583 0.0
O160 O 0.49698 0.85752 0.03191 0.0
C161 C 0.56503 0.85289 0.96873 0.0
C162 C 0.48412 0.82991 0.93244 0.0
O163 O 0.48346 0.85285 0.94462 0.0
O164 O 0.49992 0.81331 0.94465 0.0
C165 C 0.48612 0.92064 0.00129 0.0
O166 O 0.47158 0.90859 0.02441 0.0
C167 C 0.50019 0.83664 0.04925 0.0
Zn168 Zn 0.92939 0.3129 0.7651 0.0
Zn169 Zn 0.88177 0.29527 0.76093 0.0
O170 O 0.89877 0.26443 0.78747 0.0
O171 O 0.93846 0.27974 0.79063 0.0
O172 O 0.84451 0.2863 0.75064 0.0
O173 O 0.93505 0.31593 0.71383 0.0
O174 O 0.8951 0.30165 0.71004 0.0
C175 C 0.92232 0.26195 0.79719 0.0
C176 C 0.89372 0.3453 0.80138 0.0
O177 O 0.87803 0.3273 0.79322 0.0
O178 O 0.91697 0.34419 0.79113 0.0
C179 C 0.83297 0.26462 0.75122 0.0
O180 O 0.84558 0.24375 0.76127 0.0
C181 C 0.91578 0.30963 0.69531 0.0
Zn182 Zn 0.42771 0.17542 0.52304 0.0
Zn183 Zn 0.45242 0.13319 0.50838 0.0
O184 O 0.48268 0.15417 0.52909 0.0
O185 O 0.46162 0.19041 0.53982 0.0
O186 O 0.46787 0.09926 0.49246 0.0
O187 O 0.41524 0.18271 0.47516 0.0
O188 O 0.4383 0.14843 0.46089 0.0
C189 C 0.48249 0.17744 0.54014 0.0
C190 C 0.40819 0.13396 0.563 0.0
O191 O 0.42669 0.12192 0.54795 0.0
O192 O 0.40397 0.15749 0.55582 0.0
C193 C 0.48485 0.08674 0.50985 0.0
O194 O 0.49346 0.09632 0.53967 0.0
C195 C 0.42379 0.16744 0.45204 0.0
Zn196 Zn 0.58798 0.69722 0.28158 0.0
Zn197 Zn 0.63175 0.72003 0.268 0.0
O198 O 0.61137 0.75098 0.28831 0.0
O199 O 0.57396 0.73187 0.2975 0.0
O200 O 0.66631 0.73407 0.25316 0.0
O201 O 0.58208 0.68498 0.23323 0.0
O202 O 0.61741 0.70663 0.22012 0.0
C203 C 0.58788 0.75201 0.29842 0.0
C204 C 0.62871 0.67558 0.32196 0.0
O205 O 0.64174 0.69334 0.30691 0.0
O206 O 0.60495 0.67294 0.31497 0.0
C207 C 0.67948 0.75012 0.27098 0.0
O208 O 0.6701 0.75893 0.30081 0.0
C209 C 0.59826 0.69272 0.21075 0.0
Zn210 Zn 0.06478 0.83066 0.00647 0.0
Zn211 Zn 0.04726 0.87807 0.00019 0.0
O212 O 0.01376 0.85981 0.01574 0.0
O213 O 0.02822 0.81969 0.01801 0.0
O214 O 0.0371 0.91476 0.9882 0.0
O215 O 0.07843 0.82738 0.95819 0.0
O216 O 0.06183 0.86636 0.9515 0.0
C217 C 0.00982 0.83579 0.02123 0.0
C218 C 0.08847 0.865 0.05565 0.0
O219 O 0.07287 0.88153 0.04232 0.0
O220 O 0.08901 0.84204 0.04423 0.0
C221 C 0.01957 0.9288 0.00188 0.0
O222 O 0.0057 0.91964 0.02803 0.0
C223 C 0.07374 0.84677 0.93892 0.0
Zn224 Zn 0.59403 0.83055 0.77314 0.0
Zn225 Zn 0.62502 0.79425 0.76 0.0
O226 O 0.5978 0.77079 0.78241 0.0
O227 O 0.57222 0.803 0.79755 0.0
O228 O 0.65488 0.77148 0.74602 0.0
O229 O 0.5861 0.84138 0.72472 0.0
O230 O 0.61243 0.80934 0.71164 0.0
C231 C 0.57743 0.77896 0.7977 0.0
C232 C 0.6366 0.83893 0.81326 0.0
O233 O 0.64085 0.81654 0.80033 0.0
O234 O 0.61799 0.8522 0.80126 0.0
C235 C 0.66751 0.7584 0.76869 0.0
O236 O 0.65994 0.75867 0.80172 0.0
C237 C 0.59733 0.82765 0.70195 0.0
Zn238 Zn 0.44119 0.34346 0.02055 0.0
Zn239 Zn 0.4635 0.38612 0.00606 0.0
O240 O 0.49452 0.36652 0.02804 0.0
O241 O 0.47512 0.32949 0.03876 0.0
O242 O 0.47739 0.42077 -0.00936 0.0
O243 O 0.4294 0.33516 0.97303 0.0
O244 O 0.4505 0.37044 0.95815 0.0
C245 C 0.49528 0.34335 0.03966 0.0
C246 C 0.4189 0.38335 0.05997 0.0
O247 O 0.43688 0.39626 0.04521 0.0
O248 O 0.41596 0.35972 0.05264 0.0
C249 C 0.4942 0.43335 0.00802 0.0
O250 O 0.50368 0.42326 0.03715 0.0
C251 C 0.43701 0.35073 0.94966 0.0
Zn252 Zn 0.92125 0.29073 0.23017 0.0
Zn253 Zn 0.87692 0.27418 0.22607 0.0
O254 O 0.87681 0.31453 0.22947 0.0
O255 O 0.91523 0.32683 0.21281 0.0
O256 O 0.83888 0.26646 0.22159 0.0
O257 O 0.93457 0.26379 0.19792 0.0
O258 O 0.89421 0.25523 0.18415 0.0
C259 C 0.89248 0.33275 0.22192 0.0
C260 C 0.90681 0.26471 0.29269 0.0
O261 O 0.88878 0.25686 0.27244 0.0
O262 O 0.92179 0.28254 0.28246 0.0
C263 C 0.82371 0.27713 0.24357 0.0
O264 O 0.83363 0.29138 0.26882 0.0
C265 C 0.91837 0.25142 0.17962 0.0
Zn266 Zn 0.00886 0.64951 0.50579 0.0
Zn267 Zn 0.02263 0.60386 0.49826 0.0
O268 O 0.98425 0.60382 0.51461 0.0
O269 O 0.97074 0.64298 0.50215 0.0
O270 O 0.02849 0.56622 0.48695 0.0
O271 O 0.02887 0.663 0.46511 0.0
O272 O 0.03221 0.62188 0.45101 0.0
C273 C 0.96583 0.62026 0.51247 0.0
C274 C 0.04313 0.63239 0.56043 0.0
O275 O 0.04719 0.61353 0.53952 0.0
O276 O 0.02583 0.64902 0.55342 0.0
C277 C 0.02455 0.54842 0.50944 0.0
O278 O 0.01848 0.55484 0.54188 0.0
C279 C 0.03558 0.64569 0.44356 0.0
Zn280 Zn 0.58286 0.2483 0.74133 0.0
Zn281 Zn 0.62998 0.23305 0.72653 0.0
O282 O 0.62773 0.27297 0.72148 0.0
O283 O 0.59131 0.28626 0.74487 0.0
O284 O 0.66851 0.2258 0.72335 0.0
O285 O 0.58015 0.22482 0.78332 0.0
O286 O 0.62125 0.21589 0.77409 0.0
C287 C 0.61259 0.29145 0.73008 0.0
C288 C 0.58848 0.21998 0.67488 0.0
O289 O 0.61165 0.21528 0.68473 0.0
O290 O 0.57382 0.23422 0.69333 0.0
C291 C 0.68376 0.24083 0.70691 0.0
O292 O 0.67398 0.25983 0.68802 0.0
C293 C 0.60073 0.2132 0.79224 0.0
Zn294 Zn 0.9727 0.32754 0.96714 0.0
Zn295 Zn 0.99509 0.36817 0.97816 0.0
O296 O 0.95574 0.37457 0.96817 0.0
O297 O 0.93637 0.33782 0.97801 0.0
O298 O 0.0064 0.4046 0.98833 0.0
O299 O 0.99335 0.30845 0.00223 0.0
O300 O 0.00815 0.34592 0.02037 0.0
C301 C 0.93484 0.36165 0.97095 0.0
C302 C 0.00707 0.33981 0.9114 0.0
O303 O 0.01486 0.3563 0.93395 0.0
O304 O 0.98651 0.32721 0.91724 0.0
C305 C 0.00242 0.42104 0.96394 0.0
O306 O 0.99392 0.41282 0.93329 0.0
C307 C 0.00721 0.32133 0.0232 0.0
Zn308 Zn 0.92473 0.77003 0.22783 0.0
Zn309 Zn 0.87562 0.77429 0.21712 0.0
O310 O 0.88406 0.73536 0.21165 0.0
O311 O 0.92326 0.7313 0.23332 0.0
O312 O 0.83673 0.77531 0.21569 0.0
O313 O 0.92451 0.79369 0.26928 0.0
O314 O 0.88211 0.79085 0.26572 0.0
C315 C 0.90314 0.72102 0.22052 0.0
C316 C 0.9118 0.79595 0.1627 0.0
O317 O 0.88871 0.79564 0.17447 0.0
O318 O 0.92994 0.78498 0.17954 0.0
C319 C 0.82286 0.76139 0.19567 0.0
O320 O 0.83414 0.74653 0.17217 0.0
C321 C 0.90235 0.79865 0.28155 0.0
Zn322 Zn 0.5434 0.66447 0.51918 0.0
Zn323 Zn 0.51592 0.62582 0.49286 0.0
O324 O 0.5542 0.62083 0.47826 0.0
O325 O 0.57772 0.65116 0.50273 0.0
O326 O 0.50059 0.59073 0.48304 0.0
O327 O 0.53185 0.65811 0.56874 0.0
O328 O 0.50562 0.62968 0.54479 0.0
C329 C 0.57619 0.63135 0.48338 0.0
C330 C 0.50379 0.67771 0.46383 0.0
O331 O 0.49847 0.65365 0.46235 0.0
O332 O 0.52096 0.68573 0.48518 0.0
C333 C 0.50897 0.57558 0.45931 0.0
O334 O 0.52546 0.58446 0.43595 0.0
C335 C 0.51357 0.64209 0.57157 0.0
Zn336 Zn 0.40677 0.27306 0.22031 0.0
Zn337 Zn 0.3602 0.25589 0.20863 0.0
O338 O 0.35949 0.29523 0.19853 0.0
O339 O 0.39594 0.31057 0.21938 0.0
O340 O 0.32257 0.24586 0.20571 0.0
O341 O 0.41035 0.25264 0.26514 0.0
O342 O 0.36914 0.24317 0.25848 0.0
C343 C 0.37411 0.31447 0.20509 0.0
C344 C 0.40289 0.2391 0.15972 0.0
O345 O 0.37989 0.23515 0.17061 0.0
O346 O 0.41711 0.25563 0.17488 0.0
C347 C 0.30626 0.25577 0.18445 0.0
O348 O 0.31423 0.27242 0.16064 0.0
C349 C 0.39 0.24189 0.27627 0.0
Zn350 Zn 0.48357 0.67667 -0.00803 0.0
Zn351 Zn 0.50224 0.63056 0.9732 0.0
O352 O 0.46259 0.62825 0.9742 0.0
O353 O 0.44663 0.66415 -0.00397 0.0
O354 O 0.51174 0.59323 0.96507 0.0
O355 O 0.508 0.67765 0.03317 0.0
O356 O 0.52075 0.63816 0.01966 0.0
C357 C 0.44315 0.64158 0.9841 0.0
C358 C 0.51147 0.67601 0.92475 0.0
O359 O 0.51647 0.65237 0.93191 0.0
O360 O 0.49716 0.68918 0.94512 0.0
C361 C 0.49941 0.57949 0.94299 0.0
O362 O 0.48259 0.59078 0.92191 0.0
C363 C 0.52188 0.65795 0.03944 0.0
Zn364 Zn 0.09287 0.78198 0.68417 0.0
Zn365 Zn 0.14373 0.78103 0.68363 0.0
O366 O 0.13413 0.74354 0.66959 0.0
O367 O 0.09198 0.74331 0.6776 0.0
O368 O 0.18224 0.78031 0.69112 0.0
O369 O 0.08965 0.79779 0.73152 0.0
O370 O 0.13207 0.79397 0.73293 0.0
C371 C 0.11267 0.73147 0.66977 0.0
C372 C 0.11604 0.81402 0.62994 0.0
O373 O 0.13767 0.80668 0.64268 0.0
O374 O 0.09496 0.80577 0.64253 0.0
C375 C 0.19779 0.76381 0.67817 0.0
O376 O 0.18899 0.74628 0.65624 0.0
C377 C 0.11086 0.80044 0.74767 0.0
Zn378 Zn 0.9386 0.32411 0.42244 0.0
Zn379 Zn 0.96881 0.36479 0.42776 0.0
O380 O 0.99371 0.34029 0.40107 0.0
O381 O 0.96773 0.30689 0.39578 0.0
O382 O 0.98892 0.3971 0.43879 0.0
O383 O 0.93466 0.31836 0.47371 0.0
O384 O 0.95902 0.35301 0.47826 0.0
C385 C 0.98946 0.31737 0.39015 0.0
C386 C 0.91719 0.36837 0.38788 0.0
O387 O 0.939 0.37822 0.39591 0.0
O388 O 0.91186 0.34558 0.39764 0.0
C389 C 0.996 0.41377 0.41616 0.0
O390 O 0.99152 0.40945 0.38259 0.0
C391 C 0.94592 0.33496 0.4926 0.0
Zn392 Zn 0.42196 0.81934 0.30021 0.0
Zn393 Zn 0.38501 0.79203 0.28117 0.0
O394 O 0.40551 0.76376 0.3087 0.0
O395 O 0.43349 0.79057 0.33237 0.0
O396 O 0.35318 0.77521 0.26073 0.0
O397 O 0.43926 0.82327 0.25447 0.0
O398 O 0.40335 0.80541 0.23541 0.0
C399 C 0.42428 0.76796 0.32986 0.0
C400 C 0.37727 0.84057 0.32694 0.0
O401 O 0.36943 0.8185 0.3166 0.0
O402 O 0.39963 0.84802 0.31822 0.0
C403 C 0.33407 0.7684 0.27956 0.0
O404 O 0.33578 0.77046 0.31399 0.0
C405 C 0.42509 0.81616 0.22921 0.0
Zn406 Zn 0.96664 0.6681 0.01779 0.0
Zn407 Zn 0.97444 0.61793 0.01807 0.0
O408 O 0.00976 0.63276 0.03351 0.0
O409 O 0.00449 0.67474 0.02697 0.0
O410 O 0.98194 0.58 0.01214 0.0
O411 O 0.95152 0.66922 0.96984 0.0
O412 O 0.96003 0.62744 0.96831 0.0
C413 C 0.01881 0.65565 0.03492 0.0
C414 C 0.93687 0.64057 0.07046 0.0
O415 O 0.9477 0.62026 0.05842 0.0
O416 O 0.94217 0.66263 0.05793 0.0
C417 C 0.99143 0.56541 0.03592 0.0
O418 O 0.99631 0.57502 0.06725 0.0
C419 C 0.95116 0.6479 0.95368 0.0
Zn420 Zn 0.07889 0.18464 0.77248 0.0
Zn421 Zn 0.12213 0.21076 0.76476 0.0
O422 O 0.09885 0.24053 0.78261 0.0
O423 O 0.06246 0.21858 0.78691 0.0
O424 O 0.15695 0.22593 0.75341 0.0
O425 O 0.07627 0.17383 0.7229 0.0
O426 O 0.1112 0.19739 0.7156 0.0
C427 C 0.07469 0.23972 0.78935 0.0
C428 C 0.11866 0.16501 0.81677 0.0
O429 O 0.13105 0.18404 0.80378 0.0
O430 O 0.09567 0.16069 0.80697 0.0
C431 C 0.17255 0.23466 0.77635 0.0
O432 O 0.16523 0.23574 0.80945 0.0
C433 C 0.09335 0.18319 0.70291 0.0
Zn434 Zn 0.54827 0.33465 0.53409 0.0
Zn435 Zn 0.52976 0.38058 0.52532 0.0
O436 O 0.49625 0.36199 0.53951 0.0
O437 O 0.51175 0.32233 0.5431 0.0
O438 O 0.51921 0.41708 0.5128 0.0
O439 O 0.56416 0.33081 0.48743 0.0
O440 O 0.54495 0.36813 0.47711 0.0
C441 C 0.49281 0.33791 0.54507 0.0
C442 C 0.56895 0.36873 0.58464 0.0
O443 O 0.55371 0.38476 0.56946 0.0
O444 O 0.57064 0.34574 0.57364 0.0
C445 C 0.50307 0.43087 0.52968 0.0
O446 O 0.49195 0.42129 0.55792 0.0
C447 C 0.55839 0.34891 0.46648 0.0
H448 H 0.06283 0.10117 0.34739 0.0
H449 H 0.12018 0.15239 0.39094 0.0
H450 H 0.14427 0.15143 0.33588 0.0
H451 H 0.13938 0.14909 0.27216 0.0
H452 H 0.07838 0.10311 0.22721 0.0
H453 H 0.06678 0.08721 0.28547 0.0
C454 C 0.08123 0.11109 0.34529 0.0
C455 C 0.08926 0.12765 0.37244 0.0
C456 C 0.09422 0.11162 0.31282 0.0
C457 C 0.1133 0.14013 0.3698 0.0
C458 C 0.12705 0.13964 0.33828 0.0
C459 C 0.12433 0.13465 0.2749 0.0
C460 C 0.10821 0.12912 0.24604 0.0
C461 C 0.11632 0.12746 0.30879 0.0
C462 C 0.09014 0.10893 0.24947 0.0
C463 C 0.08314 0.10015 0.28297 0.0
H464 H 0.05893 0.84576 0.50012 0.0
H465 H 0.03674 0.90782 0.56976 0.0
H466 H 0.07385 0.89853 0.60745 0.0
H467 H 0.10275 0.86415 0.62943 0.0
H468 H 0.12276 0.80039 0.56199 0.0
H469 H 0.0971 0.81923 0.51417 0.0
C470 C 0.06284 0.85792 0.52277 0.0
C471 C 0.04457 0.8767 0.53299 0.0
C472 C 0.08368 0.85182 0.54506 0.0
C473 C 0.0502 0.89285 0.56173 0.0
C474 C 0.07134 0.88738 0.58354 0.0
C475 C 0.1027 0.8553 0.60352 0.0
C476 C 0.11427 0.83093 0.59905 0.0
C477 C 0.08686 0.86563 0.5769 0.0
C478 C 0.11404 0.81929 0.56574 0.0
C479 C 0.09899 0.82985 0.53863 0.0
H480 H 0.49453 0.81482 0.86625 0.0
H481 H 0.43233 0.82452 0.9403 0.0
H482 H 0.40393 0.79802 0.90332 0.0
H483 H 0.40025 0.76514 0.8562 0.0
H484 H 0.46358 0.75434 0.78409 0.0
H485 H 0.48748 0.78932 0.81236 0.0
C486 C 0.47445 0.81185 0.87348 0.0
C487 C 0.46541 0.82135 0.90577 0.0
C488 C 0.45851 0.79631 0.85239 0.0
C489 C 0.43951 0.81743 0.91531 0.0
C490 C 0.42339 0.8021 0.89434 0.0
C491 C 0.41891 0.77117 0.84608 0.0
C492 C 0.43027 0.75741 0.81823 0.0
C493 C 0.43312 0.7904 0.86372 0.0
C494 C 0.45457 0.76487 0.80548 0.0
C495 C 0.46836 0.7846 0.82194 0.0
H496 H 0.43917 0.25386 0.11336 0.0
H497 H 0.39362 0.18807 0.14474 0.0
H498 H 0.4211 0.15956 0.10907 0.0
H499 H 0.46221 0.15288 0.07649 0.0
H500 H 0.50741 0.21949 0.04662 0.0
H501 H 0.47586 0.24812 0.0739 0.0
C502 C 0.43492 0.23334 0.11177 0.0
C503 C 0.41469 0.22298 0.13194 0.0
C504 C 0.45101 0.21716 0.09189 0.0
C505 C 0.40911 0.19647 0.12936 0.0
C506 C 0.42498 0.18015 0.10925 0.0
C507 C 0.46482 0.17368 0.07533 0.0
C508 C 0.48747 0.184 0.06032 0.0
C509 C 0.44663 0.19017 0.09153 0.0
C510 C 0.49048 0.21101 0.05878 0.0
C511 C 0.47242 0.22744 0.0743 0.0
H512 H 0.14309 0.82181 0.18084 0.0
H513 H 0.06908 0.84059 0.22668 0.0
H514 H 0.06077 0.87179 0.17975 0.0
H515 H 0.06802 0.88106 0.11694 0.0
H516 H 0.13946 0.85736 0.06848 0.0
H517 H 0.15573 0.84175 0.12507 0.0
C518 C 0.12565 0.83355 0.1815 0.0
C519 C 0.1062 0.82799 0.20624 0.0
C520 C 0.12032 0.85034 0.15322 0.0
C521 C 0.08405 0.8439 0.20725 0.0
C522 C 0.07916 0.86163 0.18017 0.0
C523 C 0.08772 0.87391 0.11933 0.0
C524 C 0.10241 0.86989 0.08874 0.0
C525 C 0.09613 0.86322 0.15149 0.0
C526 C 0.12783 0.86046 0.09183 0.0
C527 C 0.13696 0.85115 0.12411 0.0
H528 H 0.3779 0.89156 0.34357 0.0
H529 H 0.35133 0.81766 0.38116 0.0
H530 H 0.36198 0.82977 0.44136 0.0
H531 H 0.39506 0.85286 0.47549 0.0
H532 H 0.42594 0.92456 0.43546 0.0
H533 H 0.39678 0.92254 0.38517 0.0
C534 C 0.37298 0.87878 0.36527 0.0
C535 C 0.36555 0.8532 0.35793 0.0
C536 C 0.38099 0.8852 0.39947 0.0
C537 C 0.35804 0.83717 0.38604 0.0
C538 C 0.36462 0.84392 0.42056 0.0
C539 C 0.39455 0.86871 0.4567 0.0
C540 C 0.41388 0.88784 0.45778 0.0
C541 C 0.37877 0.86661 0.42669 0.0
C542 C 0.41208 0.9089 0.43431 0.0
C543 C 0.39551 0.90765 0.40527 0.0
H544 H 0.35443 0.16412 0.69168 0.0
H545 H 0.43076 0.14812 0.73266 0.0
H546 H 0.43926 0.11902 0.68373 0.0
H547 H 0.43112 0.11325 0.62032 0.0
H548 H 0.35679 0.13397 0.5772 0.0
H549 H 0.34099 0.1449 0.63576 0.0
C550 C 0.37248 0.15335 0.69084 0.0
C551 C 0.39254 0.15958 0.71446 0.0
C552 C 0.37781 0.13778 0.66145 0.0
C553 C 0.41533 0.14456 0.71395 0.0
C554 C 0.42034 0.12803 0.68567 0.0
C555 C 0.41098 0.11853 0.62415 0.0
C556 C 0.39536 0.1237 0.59461 0.0
C557 C 0.40271 0.12666 0.65762 0.0
C558 C 0.36924 0.1303 0.59969 0.0
C559 C 0.36036 0.13701 0.63316 0.0
H560 H 0.10746 0.11615 0.83678 0.0
H561 H 0.15027 0.18361 0.86851 0.0
H562 H 0.14556 0.17131 0.93024 0.0
H563 H 0.11526 0.15165 0.97188 0.0
H564 H 0.06733 0.08809 0.93849 0.0
H565 H 0.08907 0.08741 0.8817 0.0
C566 C 0.11682 0.12743 0.85721 0.0
C567 C 0.12806 0.15134 0.84848 0.0
C568 C 0.11254 0.12113 0.89262 0.0
C569 C 0.14095 0.16543 0.87474 0.0
C570 C 0.13796 0.15854 0.91014 0.0
C571 C 0.11036 0.13686 0.95278 0.0
C572 C 0.08839 0.12129 0.95821 0.0
C573 C 0.12157 0.13797 0.9192 0.0
C574 C 0.08332 0.10122 0.93424 0.0
C575 C 0.09556 0.10103 0.90149 0.0
H576 H 0.89439 0.84626 0.58821 0.0
H577 H 0.96669 0.85609 0.64297 0.0
H578 H 0.95296 0.82572 0.68857 0.0
H579 H 0.92534 0.78883 0.70357 0.0
H580 H 0.85368 0.77734 0.64748 0.0
H581 H 0.86181 0.81606 0.61211 0.0
C582 C 0.90643 0.84278 0.61121 0.0
C583 C 0.9314 0.85336 0.61254 0.0
C584 C 0.89882 0.82435 0.63644 0.0
C585 C 0.94724 0.84835 0.64185 0.0
C586 C 0.93956 0.83065 0.66757 0.0
C587 C 0.91114 0.79529 0.68432 0.0
C588 C 0.8893 0.77998 0.67749 0.0
C589 C 0.91616 0.8173 0.66376 0.0
C590 C 0.87078 0.78871 0.65299 0.0
C591 C 0.87551 0.81077 0.63258 0.0
H592 H 0.97015 0.22405 0.41996 0.0
H593 H 0.96011 0.15204 0.36464 0.0
H594 H 0.9281 0.17246 0.32566 0.0
H595 H 0.90924 0.21275 0.3012 0.0
H596 H 0.92136 0.28486 0.35555 0.0
H597 H 0.94466 0.26206 0.40256 0.0
C598 C 0.96045 0.21269 0.39991 0.0
C599 C 0.96772 0.18677 0.39468 0.0
C600 C 0.94233 0.2246 0.37752 0.0
C601 C 0.95486 0.1721 0.36899 0.0
C602 C 0.93669 0.18381 0.34659 0.0
C603 C 0.91636 0.22331 0.32389 0.0
C604 C 0.91381 0.2504 0.32495 0.0
C605 C 0.93113 0.21034 0.34968 0.0
C606 C 0.92328 0.264 0.3542 0.0
C607 C 0.93687 0.25106 0.38076 0.0
H608 H 0.62485 0.12413 0.11823 0.0
H609 H 0.54603 0.10547 0.14418 0.0
H610 H 0.55215 0.12249 0.20344 0.0
H611 H 0.5743 0.15658 0.23681 0.0
H612 H 0.65162 0.17911 0.20727 0.0
H613 H 0.65218 0.14614 0.16162 0.0
C614 C 0.60952 0.12245 0.1376 0.0
C615 C 0.58474 0.11473 0.12656 0.0
C616 C 0.61271 0.1339 0.17077 0.0
C617 C 0.56516 0.11186 0.15188 0.0
C618 C 0.56853 0.12209 0.18566 0.0
C619 C 0.59173 0.15353 0.22147 0.0
C620 C 0.61232 0.17123 0.22405 0.0
C621 C 0.59137 0.13544 0.19392 0.0
C622 C 0.6351 0.16638 0.20491 0.0
C623 C 0.63537 0.14761 0.17854 0.0
H624 H 0.60822 0.82333 0.95944 0.0
H625 H 0.57773 0.90003 0.94061 0.0
H626 H 0.60944 0.90675 0.89415 0.0
H627 H 0.63361 0.88506 0.84733 0.0
H628 H 0.65902 0.80627 0.86179 0.0
H629 H 0.64338 0.80678 0.92221 0.0
C630 C 0.60909 0.84188 0.94605 0.0
C631 C 0.58978 0.86063 0.95217 0.0
C632 C 0.62652 0.84513 0.91812 0.0
C633 C 0.59179 0.88489 0.93557 0.0
C634 C 0.60992 0.88875 0.90885 0.0
C635 C 0.6369 0.86844 0.86432 0.0
C636 C 0.64551 0.84503 0.84941 0.0
C637 C 0.62568 0.86814 0.89793 0.0
C638 C 0.65124 0.8242 0.8721 0.0
C639 C 0.64178 0.8243 0.90658 0.0
H640 H 0.97135 0.24502 0.80431 0.0
H641 H 0.89345 0.22826 0.83741 0.0
H642 H 0.91004 0.19609 0.87959 0.0
H643 H 0.94744 0.17683 0.9121 0.0
H644 H 0.02491 0.19703 0.88033 0.0
H645 H 0.00782 0.22362 0.83262 0.0
C646 C 0.95793 0.23426 0.82059 0.0
C647 C 0.93126 0.23939 0.81821 0.0
C648 C 0.96762 0.2165 0.84525 0.0
C649 C 0.9141 0.22475 0.83883 0.0
C650 C 0.92361 0.20648 0.86311 0.0
C651 C 0.96046 0.18669 0.89421 0.0
C652 C 0.98738 0.18514 0.89977 0.0
C653 C 0.95042 0.20276 0.86731 0.0
C654 C 0.00413 0.19814 0.8767 0.0
C655 C 0.99438 0.21339 0.84945 0.0
H656 H 0.55925 0.24465 0.62742 0.0
H657 H 0.5921 0.16994 0.65135 0.0
H658 H 0.56391 0.14984 0.60699 0.0
H659 H 0.52494 0.15315 0.56867 0.0
H660 H 0.49232 0.22857 0.54693 0.0
H661 H 0.5255 0.24882 0.58287 0.0
C662 C 0.56067 0.22404 0.62223 0.0
C663 C 0.5774 0.20868 0.64265 0.0
C664 C 0.54414 0.21275 0.59749 0.0
C665 C 0.57936 0.18209 0.63572 0.0
C666 C 0.56305 0.17062 0.61066 0.0
C667 C 0.52552 0.17404 0.57118 0.0
C668 C 0.50581 0.18929 0.55588 0.0
C669 C 0.5446 0.18564 0.59243 0.0
C670 C 0.50687 0.21635 0.55915 0.0
C671 C 0.52589 0.22799 0.57963 0.0
H672 H 0.53729 0.76413 0.30479 0.0
H673 H 0.61365 0.79352 0.32663 0.0
H674 H 0.59478 0.82902 0.36088 0.0
H675 H 0.5567 0.84775 0.39159 0.0
H676 H 0.48097 0.81658 0.37062 0.0
H677 H 0.49936 0.78595 0.32868 0.0
C678 C 0.54983 0.7785 0.31663 0.0
C679 C 0.57683 0.77595 0.31372 0.0
C680 C 0.53891 0.79848 0.3366 0.0
C681 C 0.59279 0.79498 0.32866 0.0
C682 C 0.58201 0.81521 0.34838 0.0
C683 C 0.54425 0.83476 0.37697 0.0
C684 C 0.51759 0.83413 0.38432 0.0
C685 C 0.55512 0.81666 0.35351 0.0
C686 C 0.50159 0.81709 0.36557 0.0
C687 C 0.51209 0.79956 0.3417 0.0
H688 H 0.92833 0.77261 0.10445 0.0
H689 H 0.91252 0.84762 0.14851 0.0
H690 H 0.93886 0.86811 0.10256 0.0
H691 H 0.9735 0.86316 0.05804 0.0
H692 H 0.99063 0.78716 0.01714 0.0
H693 H 0.95634 0.7686 0.05295 0.0
C694 C 0.9298 0.79354 0.10295 0.0
C695 C 0.91856 0.8087 0.12941 0.0
C696 C 0.94567 0.80491 0.0774 0.0
C697 C 0.92078 0.83571 0.12791 0.0
C698 C 0.93613 0.84734 0.10196 0.0
C699 C 0.96914 0.8427 0.05617 0.0
C700 C 0.98493 0.82647 0.03553 0.0
C701 C 0.94977 0.83196 0.07772 0.0
C702 C 0.97906 0.79998 0.03331 0.0
C703 C 0.95947 0.78932 0.05383 0.0
H704 H 0.50047 0.72395 0.90091 0.0
H705 H 0.55054 0.65861 0.88112 0.0
H706 H 0.57442 0.68411 0.83737 0.0
H707 H 0.58335 0.72659 0.80896 0.0
H708 H 0.53368 0.79164 0.83299 0.0
H709 H 0.50782 0.76457 0.87143 0.0
C710 C 0.51648 0.71507 0.88692 0.0
C711 C 0.52386 0.68946 0.89463 0.0
C712 C 0.53041 0.72993 0.86273 0.0
C713 C 0.54446 0.67831 0.87578 0.0
C714 C 0.55821 0.69294 0.85091 0.0
C715 C 0.56662 0.73472 0.82216 0.0
C716 C 0.56054 0.76119 0.81794 0.0
C717 C 0.55173 0.71903 0.84477 0.0
C718 C 0.53885 0.77139 0.83548 0.0
C719 C 0.52395 0.75594 0.85753 0.0
H720 H 0.58338 0.31511 0.1474 0.0
H721 H 0.55246 0.23912 0.12751 0.0
H722 H 0.52644 0.25614 0.0791 0.0
H723 H 0.50729 0.29314 0.04926 0.0
H724 H 0.53518 0.37007 0.07068 0.0
H725 H 0.56783 0.35223 0.11107 0.0
C726 C 0.57147 0.30228 0.13171 0.0
C727 C 0.56962 0.27598 0.14098 0.0
C728 C 0.55572 0.31241 0.10458 0.0
C729 C 0.55398 0.25947 0.12087 0.0
C730 C 0.53903 0.26918 0.09331 0.0
C731 C 0.52081 0.30602 0.06227 0.0
C732 C 0.51855 0.33288 0.05751 0.0
C733 C 0.53891 0.29573 0.08599 0.0
C734 C 0.53647 0.34928 0.07405 0.0
C735 C 0.55502 0.3391 0.09734 0.0
H736 H 0.85279 0.34893 0.26376 0.0
H737 H 0.92268 0.3762 0.21473 0.0
H738 H 0.93331 0.40097 0.26718 0.0
H739 H 0.93208 0.39732 0.33188 0.0
H740 H 0.86487 0.36471 0.38185 0.0
H741 H 0.8436 0.36033 0.32489 0.0
C742 C 0.86965 0.36138 0.26381 0.0
C743 C 0.88817 0.3589 0.23691 0.0
C744 C 0.87664 0.37388 0.29518 0.0
C745 C 0.90887 0.37654 0.23617 0.0
C746 C 0.91521 0.39044 0.26649 0.0
C747 C 0.9122 0.39071 0.33046 0.0
C748 C 0.9005 0.38009 0.36056 0.0
C749 C 0.90081 0.38661 0.29731 0.0
C750 C 0.87453 0.37218 0.35866 0.0
C751 C 0.86245 0.36942 0.326 0.0
H752 H 0.89881 0.62209 0.64277 0.0
H753 H 0.86482 0.68602 0.58619 0.0
H754 H 0.88395 0.67047 0.53128 0.0
H755 H 0.92062 0.64684 0.50532 0.0
H756 H 0.95613 0.58411 0.56323 0.0
H757 H 0.92539 0.59017 0.61106 0.0
C758 C 0.89442 0.63169 0.61798 0.0
C759 C 0.88077 0.65521 0.61827 0.0
C760 C 0.9063 0.62313 0.58691 0.0
C761 C 0.87521 0.66777 0.58634 0.0
C762 C 0.88651 0.65908 0.55507 0.0
C763 C 0.92089 0.63378 0.52774 0.0
C764 C 0.94126 0.6158 0.53142 0.0
C765 C 0.9037 0.63798 0.55575 0.0
C766 C 0.94099 0.59849 0.56005 0.0
C767 C 0.92356 0.60213 0.58768 0.0
H768 H 0.61868 0.36197 0.60379 0.0
H769 H 0.54407 0.38463 0.6435 0.0
H770 H 0.55519 0.3672 0.70147 0.0
H771 H 0.57982 0.33307 0.73216 0.0
H772 H 0.65343 0.30828 0.69039 0.0
H773 H 0.64959 0.33967 0.6428 0.0
C774 C 0.60554 0.36449 0.62579 0.0
C775 C 0.58043 0.3739 0.61938 0.0
C776 C 0.61162 0.3532 0.65845 0.0
C777 C 0.5635 0.37733 0.64788 0.0
C778 C 0.56969 0.36687 0.68089 0.0
C779 C 0.59555 0.33524 0.71354 0.0
C780 C 0.61619 0.31732 0.71369 0.0
C781 C 0.59275 0.35275 0.68536 0.0
C782 C 0.63682 0.3211 0.69013 0.0
C783 C 0.63458 0.33901 0.66269 0.0
H784 H 0.92959 0.40255 0.92636 0.0
H785 H 0.8859 0.34151 0.97545 0.0
H786 H 0.85951 0.33712 0.92261 0.0
H787 H 0.86286 0.33788 0.85801 0.0
H788 H 0.91156 0.39452 0.80793 0.0
H789 H 0.92132 0.41384 0.86487 0.0
C790 C 0.91341 0.38923 0.9262 0.0
C791 C 0.91089 0.37104 0.95359 0.0
C792 C 0.89977 0.38538 0.89466 0.0
C793 C 0.88901 0.35491 0.95387 0.0
C794 C 0.87413 0.3521 0.92336 0.0
C795 C 0.8744 0.35535 0.85942 0.0
C796 C 0.88744 0.36411 0.82925 0.0
C797 C 0.8814 0.36518 0.89255 0.0
C798 C 0.90194 0.38702 0.83114 0.0
C799 C 0.90775 0.39792 0.86378 0.0
H800 H 0.95142 0.63287 0.1375 0.0
H801 H 0.88547 0.64985 0.07193 0.0
H802 H 0.86409 0.67163 0.12093 0.0
H803 H 0.8709 0.69705 0.17437 0.0
H804 H 0.93959 0.68438 0.23702 0.0
H805 H 0.9527 0.6492 0.19827 0.0
C806 C 0.93173 0.64001 0.13474 0.0
C807 C 0.91998 0.63997 0.10139 0.0
C808 C 0.92042 0.65409 0.16235 0.0
C809 C 0.89471 0.64961 0.09759 0.0
C810 C 0.88269 0.66244 0.12547 0.0
C811 C 0.8882 0.68592 0.18042 0.0
C812 C 0.90479 0.69403 0.20764 0.0
C813 C 0.89633 0.66661 0.15692 0.0
C814 C 0.92683 0.67902 0.21559 0.0
C815 C 0.93445 0.65896 0.19326 0.0
H816 H 0.62054 0.62561 0.33819 0.0
H817 H 0.65777 0.69465 0.3758 0.0
H818 H 0.6514 0.6806 0.43661 0.0
H819 H 0.62151 0.65749 0.4756 0.0
H820 H 0.57975 0.59135 0.43637 0.0
H821 H 0.60235 0.59465 0.38034 0.0
C822 C 0.6285 0.63682 0.35977 0.0
C823 C 0.6387 0.66148 0.35287 0.0
C824 C 0.62317 0.62943 0.39453 0.0
C825 C 0.64951 0.67573 0.38062 0.0
C826 C 0.64543 0.66788 0.41546 0.0
C827 C 0.61813 0.64311 0.45536 0.0
C828 C 0.59787 0.62515 0.45932 0.0
C829 C 0.6301 0.64608 0.42245 0.0
C830 C 0.59449 0.60603 0.43344 0.0
C831 C 0.60731 0.60802 0.40123 0.0
H832 H 0.36811 0.37951 0.07474 0.0
H833 H 0.44049 0.40601 0.11734 0.0
H834 H 0.42748 0.39211 0.17611 0.0
H835 H 0.40359 0.35814 0.20756 0.0
H836 H 0.33341 0.32763 0.16222 0.0
H837 H 0.33682 0.35788 0.11325 0.0
C838 C 0.38026 0.38372 0.09736 0.0
C839 C 0.40558 0.39265 0.09175 0.0
C840 C 0.37338 0.37389 0.1305 0.0
C841 C 0.42106 0.39869 0.12101 0.0
C842 C 0.41382 0.39017 0.15458 0.0
C843 C 0.38843 0.35883 0.18777 0.0
C844 C 0.36912 0.33965 0.18743 0.0
C845 C 0.39125 0.37541 0.15866 0.0
C846 C 0.34906 0.34152 0.16244 0.0
C847 C 0.35108 0.35875 0.13419 0.0
H848 H 0.39907 0.6707 0.98195 0.0
H849 H 0.42813 0.59402 0.96025 0.0
H850 H 0.39529 0.58835 0.91495 0.0
H851 H 0.37304 0.61223 0.86795 0.0
H852 H 0.34912 0.69088 0.88504 0.0
H853 H 0.3634 0.68836 0.94614 0.0
C854 C 0.39744 0.65227 0.96853 0.0
C855 C 0.41696 0.63344 0.9728 0.0
C856 C 0.37948 0.64976 0.94096 0.0
C857 C 0.41397 0.60928 0.95631 0.0
C858 C 0.39524 0.60607 0.93018 0.0
C859 C 0.36934 0.62816 0.88586 0.0
C860 C 0.36201 0.65227 0.87175 0.0
C861 C 0.37991 0.62721 0.9199 0.0
C862 C 0.35587 0.6724 0.89509 0.0
C863 C 0.36471 0.67117 0.92992 0.0
H864 H 0.07767 0.69498 0.68718 0.0
H865 H 0.14246 0.70928 0.61863 0.0
H866 H 0.12966 0.67292 0.58138 0.0
H867 H 0.09381 0.64504 0.5609 0.0
H868 H 0.0278 0.63338 0.62804 0.0
H869 H 0.04757 0.65992 0.6738 0.0
C870 C 0.08947 0.68955 0.66475 0.0
C871 C 0.11057 0.70509 0.65514 0.0
C872 C 0.08157 0.66913 0.64302 0.0
C873 C 0.126 0.69769 0.62641 0.0
C874 C 0.11853 0.67703 0.60491 0.0
C875 C 0.08451 0.64724 0.58632 0.0
C876 C 0.05948 0.63737 0.59132 0.0
C877 C 0.09547 0.66366 0.61181 0.0
C878 C 0.0472 0.6407 0.62393 0.0
C879 C 0.05833 0.65618 0.64986 0.0
H880 H 0.98891 0.26642 0.37481 0.0
H881 H 0.03416 0.33543 0.35924 0.0
H882 H 0.06342 0.3115 0.32015 0.0
H883 H 0.07374 0.27162 0.28645 0.0
H884 H 0.02612 0.20394 0.30086 0.0
H885 H 1.0001 0.22676 0.34425 0.0
C886 C 0.00513 0.27634 0.36293 0.0
C887 C 0.00904 0.30281 0.36954 0.0
C888 C 0.02139 0.26267 0.3401 0.0
C889 C 0.0306 0.3151 0.3545 0.0
C890 C 0.04727 0.30143 0.33204 0.0
C891 C 0.0579 0.26182 0.29951 0.0
C892 C 0.05178 0.23617 0.29024 0.0
C893 C 0.04254 0.27531 0.32407 0.0
C894 C 0.0311 0.22374 0.30723 0.0
C895 C 0.0162 0.23676 0.33209 0.0
H896 H 0.46476 0.66977 0.41522 0.0
H897 H 0.51344 0.72916 0.46004 0.0
H898 H 0.49318 0.76148 0.42273 0.0
H899 H 0.46196 0.77337 0.37828 0.0
H900 H 0.41253 0.71571 0.3316 0.0
H901 H 0.43264 0.6823 0.36899 0.0
C902 C 0.47087 0.68978 0.41681 0.0
C903 C 0.49064 0.69688 0.44061 0.0
C904 C 0.45901 0.70862 0.39507 0.0
C905 C 0.4983 0.72296 0.44221 0.0
C906 C 0.48673 0.74158 0.42082 0.0
C907 C 0.45553 0.75352 0.37596 0.0
C908 C 0.43581 0.74712 0.35198 0.0
C909 C 0.46711 0.73464 0.39728 0.0
C910 C 0.4277 0.72122 0.3498 0.0
C911 C 0.43922 0.70212 0.37117 0.0
H912 H 0.04872 0.69823 0.02777 0.0
H913 H 0.04505 0.6247 0.08144 0.0
H914 H 0.07788 0.63904 0.12342 0.0
H915 H 0.0989 0.67616 0.15275 0.0
H916 H 0.09986 0.75026 0.1007 0.0
H917 H 0.07755 0.732 0.04979 0.0
C918 C 0.05572 0.68506 0.04798 0.0
C919 C 0.04402 0.66073 0.05206 0.0
C920 C 0.07404 0.6937 0.07257 0.0
C921 C 0.05358 0.64365 0.07793 0.0
C922 C 0.07222 0.65193 0.10217 0.0
C923 C 0.09538 0.68785 0.12943 0.0
C924 C 0.10101 0.7144 0.13016 0.0
C925 C 0.08141 0.67744 0.10095 0.0
C926 C 0.09588 0.72968 0.10033 0.0
C927 C 0.08281 0.71932 0.07147 0.0
H928 H 0.09249 0.28046 0.82841 0.0
H929 H 0.02441 0.2508 0.77659 0.0
H930 H 0.99781 0.28379 0.80474 0.0
H931 H 0.99264 0.31513 0.85199 0.0
H932 H 0.05979 0.34393 0.90668 0.0
H933 H 0.08796 0.31773 0.86911 0.0
C934 C 0.07194 0.28165 0.82274 0.0
C935 C 0.06032 0.2629 0.80111 0.0
C936 C 0.0565 0.30027 0.8399 0.0
C937 C 0.0337 0.2647 0.79377 0.0
C938 C 0.01844 0.2835 0.80987 0.0
C939 C 0.01349 0.31623 0.85505 0.0
C940 C 0.02407 0.33107 0.88243 0.0
C941 C 0.02943 0.30052 0.83422 0.0
C942 C 0.05113 0.33259 0.88581 0.0
C943 C 0.06725 0.31736 0.86459 0.0
H944 H 0.47504 0.289 0.5412 0.0
H945 H 0.45514 0.36475 0.58034 0.0
H946 H 0.42105 0.34589 0.61687 0.0
H947 H 0.40384 0.3069 0.64674 0.0
H948 H 0.42682 0.23142 0.61004 0.0
H949 H 0.45205 0.25101 0.56279 0.0
C950 C 0.46278 0.30147 0.55702 0.0
C951 C 0.46794 0.32811 0.55872 0.0
C952 C 0.44384 0.29042 0.57863 0.0
C953 C 0.45165 0.34412 0.5788 0.0
C954 C 0.43229 0.33331 0.59992 0.0
C955 C 0.41357 0.29487 0.62746 0.0
C956 C 0.41366 0.26786 0.63167 0.0
C957 C 0.42915 0.30634 0.60141 0.0
C958 C 0.4266 0.25229 0.60708 0.0
C959 C 0.44122 0.26348 0.58034 0.0
H960 H 0.2831 0.22919 0.23757 0.0
H961 H 0.26648 0.27032 0.14093 0.0
H962 H 0.22024 0.26268 0.1491 0.0
H963 H 0.18453 0.2443 0.18369 0.0
H964 H 0.20136 0.20351 0.28056 0.0
H965 H 0.24749 0.2113 0.27238 0.0
C966 C 0.2694 0.23639 0.21815 0.0
C967 C 0.27831 0.25022 0.18858 0.0
C968 C 0.24284 0.23216 0.22319 0.0
C969 C 0.26021 0.25957 0.16389 0.0
C970 C 0.23374 0.25526 0.16859 0.0
C971 C 0.19826 0.23723 0.20314 0.0
C972 C 0.18942 0.22334 0.23272 0.0
C973 C 0.22483 0.24164 0.19819 0.0
C974 C 0.20755 0.21428 0.25757 0.0
C975 C 0.23398 0.21865 0.25287 0.0
H976 H 0.94975 0.97258 0.47752 0.0
H977 H 0.9936 0.98782 0.57218 0.0
H978 H 0.00279 0.03151 0.55129 0.0
H979 H 0.00118 0.06408 0.50443 0.0
H980 H 0.95809 0.04883 0.40919 0.0
H981 H 0.94578 0.00637 0.43214 0.0
C982 C 0.96103 0.98555 0.49384 0.0
C983 C 0.97113 0.97681 0.5263 0.0
C984 C 0.96663 0.01053 0.4814 0.0
C985 C 0.98567 0.99394 0.54706 0.0
C986 C 0.99103 0.01892 0.53507 0.0
C987 C 0.98901 0.05154 0.48868 0.0
C988 C 0.98082 0.05953 0.45494 0.0
C989 C 0.98211 0.02718 0.50196 0.0
C990 C 0.96479 0.04313 0.43514 0.0
C991 C 0.95775 0.01884 0.44825 0.0
H992 H 0.30388 0.76727 0.76005 0.0
H993 H 0.31632 0.69719 0.70064 0.0
H994 H 0.27522 0.70361 0.67015 0.0
H995 H 0.23442 0.7275 0.66314 0.0
H996 H 0.2217 0.79722 0.72324 0.0
H997 H 0.26429 0.79265 0.75029 0.0
C998 C 0.2977 0.75349 0.74027 0.0
C999 C 0.31308 0.73167 0.73294 0.0
C1000 C 0.27393 0.75718 0.72294 0.0
C1001 C 0.30482 0.7141 0.70702 0.0
C1002 C 0.28129 0.71773 0.68953 0.0
C1003 C 0.24106 0.74186 0.68185 0.0
C1004 C 0.22476 0.76253 0.69132 0.0
C1005 C 0.26549 0.73897 0.6977 0.0
C1006 C 0.23375 0.78101 0.71558 0.0
C1007 C 0.25811 0.7784 0.73116 0.0
H1008 H 0.49315 0.04042 0.03339 0.0
H1009 H 0.55498 0.03367 0.95758 0.0
H1010 H 0.54419 0.98844 0.94786 0.0
H1011 H 0.51946 0.95011 0.96362 0.0
H1012 H 0.45877 0.95546 0.04124 0.0
H1013 H 0.46664 0.00192 0.04714 0.0
C1014 C 0.50405 0.0291 0.01448 0.0
C1015 C 0.52495 0.04039 -0.00357 0.0
C1016 C 0.49802 0.00281 0.00939 0.0
C1017 C 0.53894 0.02544 0.97208 0.0
C1018 C 0.53278 0.99954 0.96644 0.0
C1019 C 0.5077 0.96142 0.98158 0.0
C1020 C 0.48864 0.94922 0.00209 0.0
C1021 C 0.51269 0.98792 0.98538 0.0
C1022 C 0.47364 0.9643 0.02519 0.0
C1023 C 0.47818 0.99087 0.02866 0.0
H1024 H 0.23338 0.75434 0.18712 0.0
H1025 H 0.20042 0.74131 0.2901 0.0
H1026 H 0.24311 0.74475 0.3169 0.0
H1027 H 0.28935 0.75418 0.31182 0.0
H1028 H 0.3226 0.76744 0.20912 0.0
H1029 H 0.28039 0.7609 0.18166 0.0
C1030 C 0.23555 0.75206 0.21538 0.0
C1031 C 0.21361 0.74781 0.2365 0.0
C1032 C 0.26025 0.75415 0.2308 0.0
C1033 C 0.21688 0.74474 0.27311 0.0
C1034 C 0.24132 0.74672 0.28855 0.0
C1035 C 0.28746 0.7554 0.28339 0.0
C1036 C 0.30912 0.76151 0.26267 0.0
C1037 C 0.26308 0.75183 0.26774 0.0
C1038 C 0.30627 0.76285 0.22582 0.0
C1039 C 0.28208 0.75919 0.21004 0.0
H1040 H 0.52045 0.97106 0.48869 0.0
H1041 H 0.47288 0.97955 0.39567 0.0
H1042 H 0.46655 0.02535 0.40874 0.0
H1043 H 0.47095 0.06182 0.44958 0.0
H1044 H 0.51749 0.05299 0.5435 0.0
H1045 H 0.52783 0.00853 0.52692 0.0
C1046 C 0.50904 0.98298 0.47092 0.0
C1047 C 0.49696 0.97175 0.4414 0.0
C1048 C 0.50501 0.00921 0.47898 0.0
C1049 C 0.4823 0.98759 0.41867 0.0
C1050 C 0.47856 0.0138 0.42621 0.0
C1051 C 0.48354 0.05028 0.46631 0.0
C1052 C 0.49315 0.06068 0.49799 0.0
C1053 C 0.48922 0.02462 0.45681 0.0
C1054 C 0.50965 0.04547 0.51912 0.0
C1055 C 0.51557 0.02 0.50967 0.0
H1056 H 0.19553 0.22674 0.7128 0.0
H1057 H 0.21066 0.25518 0.81771 0.0
H1058 H 0.25633 0.26058 0.8031 0.0
H1059 H 0.29236 0.25445 0.762 0.0
H1060 H 0.27752 0.22447 0.65782 0.0
H1061 H 0.23127 0.2226 0.67072 0.0
C1062 C 0.20873 0.23439 0.7324 0.0
C1063 C 0.19965 0.24042 0.7664 0.0
C1064 C 0.23505 0.23702 0.72403 0.0
C1065 C 0.21709 0.25028 0.79141 0.0
C1066 C 0.24324 0.25333 0.78309 0.0
C1067 C 0.27902 0.24771 0.74194 0.0
C1068 C 0.28847 0.23947 0.70902 0.0
C1069 C 0.2525 0.24632 0.74971 0.0
C1070 C 0.27084 0.23083 0.68341 0.0
C1071 C 0.24437 0.22973 0.69078 0.0
H1072 H 0.02045 0.03911 0.93087 0.0
H1073 H 0.96913 0.05611 0.0174 0.0
H1074 H 0.9702 0.01065 0.03544 0.0
H1075 H 0.98858 0.96673 0.02935 0.0
H1076 H 0.04127 0.95084 0.94385 0.0
H1077 H 0.03678 0.99516 0.92287 0.0
C1078 C 0.00916 0.03287 0.95337 0.0
C1079 C 0.99482 0.05106 0.97281 0.0
C1080 C 0.01037 0.00689 0.96411 0.0
C1081 C 0.98039 0.04254 0.00198 0.0
C1082 C 0.98108 0.01655 0.01242 0.0
C1083 C 0.99892 0.97292 0.006 0.0
C1084 C 0.01542 0.95547 0.98846 0.0
C1085 C 0.99649 0.99866 -0.00584 0.0
C1086 C 0.02863 0.96385 0.95814 0.0
C1087 C 0.02604 0.98922 0.94601 0.0
H1088 H 0.77858 0.70895 0.75352 0.0
H1089 H 0.76785 0.73523 0.64637 0.0
H1090 H 0.72387 0.74913 0.66026 0.0
H1091 H 0.68967 0.75669 0.70375 0.0
H1092 H 0.7007 0.73126 0.81122 0.0
H1093 H 0.74326 0.71397 0.79612 0.0
C1094 C 0.76657 0.7175 0.73309 0.0
C1095 C 0.77663 0.72124 0.69902 0.0
C1096 C 0.74137 0.72572 0.74134 0.0
C1097 C 0.76069 0.73223 0.67286 0.0
C1098 C 0.73553 0.74024 0.68079 0.0
C1099 C 0.70125 0.74715 0.72384 0.0
C1100 C 0.69206 0.7455 0.75866 0.0
C1101 C 0.72585 0.73752 0.71509 0.0
C1102 C 0.70731 0.73294 0.78426 0.0
C1103 C 0.73171 0.72308 0.77566 0.0
H1104 H 0.70175 0.27944 0.24827 0.0
H1105 H 0.71133 0.23123 0.15646 0.0
H1106 H 0.75834 0.23471 0.16178 0.0
H1107 H 0.79675 0.25078 0.19327 0.0
H1108 H 0.78669 0.2984 0.28563 0.0
H1109 H 0.73985 0.29562 0.27936 0.0
C1110 C 0.71407 0.26982 0.22923 0.0
C1111 C 0.70299 0.25513 0.20196 0.0
C1112 C 0.74104 0.27162 0.2327 0.0
C1113 C 0.71932 0.24268 0.17769 0.0
C1114 C 0.74622 0.2446 0.18077 0.0
C1115 C 0.78432 0.26051 0.21207 0.0
C1116 C 0.79528 0.27473 0.23992 0.0
C1117 C 0.7573 0.25886 0.20833 0.0
C1118 C 0.77884 0.28726 0.26398 0.0
C1119 C 0.75201 0.28575 0.2604 0.0
H1120 H 0.71909 0.27817 0.69378 0.0
H1121 H 0.71172 0.20105 0.73631 0.0
H1122 H 0.75755 0.20111 0.75278 0.0
H1123 H 0.7993 0.22406 0.75765 0.0
H1124 H 0.80524 0.30207 0.71743 0.0
H1125 H 0.76045 0.30063 0.69774 0.0
C1126 C 0.72754 0.26121 0.70625 0.0
C1127 C 0.712 0.23961 0.71368 0.0
C1128 C 0.75365 0.26164 0.71645 0.0
C1129 C 0.72326 0.21794 0.73025 0.0
C1130 C 0.74945 0.21799 0.73978 0.0
C1131 C 0.79081 0.2407 0.74448 0.0
C1132 C 0.80567 0.26316 0.73921 0.0
C1133 C 0.76477 0.2399 0.73348 0.0
C1134 C 0.79429 0.28457 0.72213 0.0
C1135 C 0.76864 0.28377 0.71071 0.0
H1136 H 0.79515 0.7845 0.24777 0.0
H1137 H 0.78719 0.73364 0.15832 0.0
H1138 H 0.74164 0.72693 0.17265 0.0
H1139 H 0.70497 0.73323 0.21269 0.0
H1140 H 0.71335 0.78309 0.30311 0.0
H1141 H 0.75789 0.7925 0.28612 0.0
C1142 C 0.78342 0.77215 0.23114 0.0
C1143 C 0.79466 0.75949 0.20209 0.0
C1144 C 0.75737 0.76804 0.23984 0.0
C1145 C 0.7791 0.74357 0.18089 0.0
C1146 C 0.75306 0.73966 0.18912 0.0
C1147 C 0.71645 0.74631 0.22859 0.0
C1148 C 0.70584 0.75729 0.2593 0.0
C1149 C 0.74213 0.75143 0.21889 0.0
C1150 C 0.72102 0.77426 0.27946 0.0
C1151 C 0.74651 0.77965 0.26977 0.0
H1152 H 0.47704 0.46006 0.95053 0.0
H1153 H 0.52729 0.46658 0.0411 0.0
H1154 H 0.53566 0.51179 0.02652 0.0
H1155 H 0.52566 0.5504 -0.00873 0.0
H1156 H 0.47431 0.54424 0.9018 0.0
H1157 H 0.4698 0.49788 0.91248 0.0
C1158 C 0.49002 0.47127 0.96693 0.0
C1159 C 0.50127 0.45997 -0.00287 0.0
C1160 C 0.49454 0.49737 0.95864 0.0
C1161 C 0.5182 0.47478 0.01787 0.0
C1162 C 0.523 0.50068 0.00957 0.0
C1163 C 0.51379 0.53888 0.97373 0.0
C1164 C 0.50016 0.55089 0.94595 0.0
C1165 C 0.51083 0.51232 0.98046 0.0
C1166 C 0.48493 0.53558 0.92349 0.0
C1167 C 0.48224 0.50906 0.92967 0.0
H1168 H 0.00284 0.43016 0.48361 0.0
H1169 H 0.01178 0.45452 0.37542 0.0
H1170 H 0.02381 0.49783 0.39501 0.0
H1171 H 0.02814 0.52968 0.44257 0.0
H1172 H 0.01759 0.50558 0.55059 0.0
H1173 H 0.01007 0.46122 0.53128 0.0
C1174 C 0.00769 0.44483 0.46426 0.0
C1175 C 0.00617 0.4391 0.42805 0.0
C1176 C 0.01417 0.46981 0.47567 0.0
C1177 C 0.01263 0.45838 0.40343 0.0
C1178 C 0.01947 0.4832 0.41462 0.0
C1179 C 0.02453 0.51468 0.46197 0.0
C1180 C 0.02323 0.52105 0.498 0.0
C1181 C 0.01975 0.48927 0.45064 0.0
C1182 C 0.01855 0.50131 0.5227 0.0
C1183 C 0.01419 0.47591 0.51167 0.0
H1184 H 0.01065 0.4448 0.02716 0.0
H1185 H 0.99604 0.46054 0.91707 0.0
H1186 H 0.99225 0.50661 0.92959 0.0
H1187 H 0.99032 0.54204 0.97204 0.0
H1188 H 0.00456 0.5268 0.08227 0.0
H1189 H 0.01127 0.48092 0.06939 0.0
C1190 C 0.00696 0.45833 0.00583 0.0
C1191 C 0.00347 0.44915 0.97125 0.0
C1192 C 0.00447 0.48486 0.01327 0.0
C1193 C 0.99869 0.467 0.94395 0.0
C1194 C 0.99644 0.49338 0.95109 0.0
C1195 C 0.99495 0.52873 -0.00671 0.0
C1196 C 0.99666 0.53782 0.02813 0.0
C1197 C 0.99878 0.50245 0.98572 0.0
C1198 C 0.003 0.52032 0.05524 0.0
C1199 C 0.00684 0.49407 0.04789 0.0
H1200 H 0.51936 0.45461 0.46968 0.0
H1201 H 0.47563 0.46811 0.56471 0.0
H1202 H 0.47087 0.51374 0.54897 0.0
H1203 H 0.48253 0.55042 0.51107 0.0
H1204 H 0.52716 0.53701 0.41675 0.0
H1205 H 0.52769 0.49065 0.42909 0.0
C1206 C 0.50862 0.46747 0.48686 0.0
C1207 C 0.49818 0.45798 0.5186 0.0
C1208 C 0.50609 0.49372 0.47777 0.0
C1209 C 0.48403 0.47489 0.54027 0.0
C1210 C 0.48131 0.50102 0.53129 0.0
C1211 C 0.49201 0.53735 0.49284 0.0
C1212 C 0.50503 0.5473 0.46319 0.0
C1213 C 0.49273 0.51074 0.50048 0.0
C1214 C 0.5171 0.52998 0.43985 0.0
C1215 C 0.51754 0.50344 0.44699 0.0
H1216 H 0.02014 0.2712 0.01902 0.0
H1217 H 0.03238 0.3393 0.08246 0.0
H1218 H 0.05893 0.31372 0.12364 0.0
H1219 H 0.07512 0.27097 0.14383 0.0
H1220 H 0.06048 0.20338 0.08056 0.0
H1221 H 0.03891 0.23016 0.03608 0.0
C1222 C 0.02852 0.28058 0.04189 0.0
C1223 C 0.02383 0.30698 0.04819 0.0
C1224 C 0.04356 0.2659 0.06506 0.0
C1225 C 0.03544 0.3189 0.07738 0.0
C1226 C 0.05065 0.30432 0.10078 0.0
C1227 C 0.06783 0.26233 0.11977 0.0
C1228 C 0.06935 0.23538 0.1151 0.0
C1229 C 0.05448 0.27769 0.09513 0.0
C1230 C 0.05946 0.22412 0.08439 0.0
C1231 C 0.04696 0.23934 0.05925 0.0
H1232 H 0.92615 0.84286 0.29946 0.0
H1233 H 0.87478 0.78409 0.33889 0.0
H1234 H 0.87955 0.80104 0.3988 0.0
H1235 H 0.90405 0.82814 0.44033 0.0
H1236 H 0.95401 0.88806 0.40067 0.0
H1237 H 0.94365 0.8756 0.34006 0.0
C1238 C 0.91555 0.83425 0.32116 0.0
C1239 C 0.9005 0.81215 0.31532 0.0
C1240 C 0.91826 0.84422 0.35524 0.0
C1241 C 0.8865 0.80115 0.34314 0.0
C1242 C 0.88936 0.81072 0.37729 0.0
C1243 C 0.91204 0.83888 0.4183 0.0
C1244 C 0.92998 0.85866 0.42456 0.0
C1245 C 0.90599 0.83159 0.38375 0.0
C1246 C 0.94012 0.87276 0.39619 0.0
C1247 C 0.93439 0.86549 0.36164 0.0
H1248 H 0.47341 0.64821 0.72618 0.0
H1249 H 0.40034 0.65699 0.67201 0.0
H1250 H 0.42163 0.6476 0.61576 0.0
H1251 H 0.46193 0.64161 0.58173 0.0
H1252 H 0.5351 0.63847 0.63641 0.0
H1253 H 0.5128 0.64063 0.6931 0.0
C1254 C 0.46196 0.64769 0.7022 0.0
C1255 C 0.43533 0.65335 0.70322 0.0
C1256 C 0.47444 0.6434 0.67013 0.0
C1257 C 0.42089 0.65278 0.67184 0.0
C1258 C 0.43306 0.64747 0.63974 0.0
C1259 C 0.47283 0.64088 0.60619 0.0
C1260 C 0.5 0.63975 0.60527 0.0
C1261 C 0.45995 0.64342 0.6385 0.0
C1262 C 0.51415 0.63932 0.6368 0.0
C1263 C 0.50143 0.64061 0.66907 0.0
H1264 H 0.5613 0.18384 0.81609 0.0
H1265 H 0.64037 0.20481 0.83822 0.0
H1266 H 0.63877 0.18085 0.89388 0.0
H1267 H 0.61304 0.1588 0.93912 0.0
H1268 H 0.53423 0.13705 0.91663 0.0
H1269 H 0.5378 0.15571 0.85752 0.0
C1270 C 0.57822 0.18293 0.83303 0.0
C1271 C 0.60072 0.19649 0.82369 0.0
C1272 C 0.57723 0.16888 0.86465 0.0
C1273 C 0.62278 0.1947 0.8452 0.0
C1274 C 0.62186 0.18103 0.87695 0.0
C1275 C 0.59687 0.15757 0.9209 0.0
C1276 C 0.5733 0.14695 0.93223 0.0
C1277 C 0.59895 0.16869 0.88734 0.0
C1278 C 0.55258 0.14512 0.90841 0.0
C1279 C 0.55451 0.15608 0.87481 0.0
H1280 H 0.07391 0.67984 0.43437 0.0
H1281 H 0.02201 0.62969 0.37786 0.0
H1282 H 0.03567 0.64904 0.32181 0.0
H1283 H 0.05934 0.68325 0.29003 0.0
H1284 H 0.11346 0.73123 0.34628 0.0
H1285 H 0.1022 0.70958 0.40167 0.0
C1286 C 0.06598 0.67292 0.40964 0.0
C1287 C 0.04687 0.65369 0.40988 0.0
C1288 C 0.07415 0.68387 0.3778 0.0
C1289 C 0.03681 0.64449 0.37799 0.0
C1290 C 0.04447 0.65566 0.34611 0.0
C1291 C 0.0688 0.6887 0.31444 0.0
C1292 C 0.08682 0.70898 0.31452 0.0
C1293 C 0.06262 0.67583 0.34585 0.0
C1294 C 0.09945 0.71569 0.3459 0.0
C1295 C 0.09296 0.7034 0.37746 0.0
H1296 H 0.58231 0.87202 0.67054 0.0
H1297 H 0.5947 0.79077 0.65076 0.0
H1298 H 0.57177 0.79464 0.59446 0.0
H1299 H 0.5436 0.82008 0.5549 0.0
H1300 H 0.53224 0.90155 0.57412 0.0
H1301 H 0.55934 0.89868 0.62696 0.0
C1302 C 0.58044 0.85529 0.65351 0.0
C1303 C 0.58982 0.8311 0.66481 0.0
C1304 C 0.56702 0.85762 0.62159 0.0
C1305 C 0.58766 0.80961 0.64248 0.0
C1306 C 0.5743 0.81175 0.61054 0.0
C1307 C 0.5472 0.83719 0.57064 0.0
C1308 C 0.53557 0.86086 0.56131 0.0
C1309 C 0.56309 0.83545 0.60053 0.0
C1310 C 0.54084 0.88309 0.58117 0.0
C1311 C 0.55631 0.88146 0.61128 0.0
H1312 H 0.44206 0.3003 0.80091 0.0
H1313 H 0.36562 0.27579 0.83171 0.0
H1314 H 0.36788 0.30315 0.88403 0.0
H1315 H 0.39353 0.3299 0.92401 0.0
H1316 H 0.46968 0.35512 0.89353 0.0
H1317 H 0.46534 0.33225 0.83726 0.0
C1318 C 0.42587 0.30111 0.81903 0.0
C1319 C 0.40394 0.28568 0.81304 0.0
C1320 C 0.42719 0.31712 0.84877 0.0
C1321 C 0.38279 0.28732 0.83607 0.0
C1322 C 0.38407 0.30295 0.86591 0.0
C1323 C 0.40889 0.3309 0.9046 0.0
C1324 C 0.43196 0.34386 0.91276 0.0
C1325 C 0.4064 0.3174 0.8729 0.0
C1326 C 0.4517 0.34533 0.88755 0.0
C1327 C 0.44934 0.33198 0.85567 0.0
H1328 H 0.96568 0.22997 0.18004 0.0
H1329 H 0.89292 0.22845 0.12407 0.0
H1330 H 0.91136 0.19797 0.08132 0.0
H1331 H 0.94989 0.17571 0.0567 0.0
H1332 H 0.02257 0.1799 0.11218 0.0
H1333 H 0.00231 0.20513 0.15902 0.0
C1334 C 0.95374 0.22299 0.15853 0.0
C1335 C 0.92815 0.23186 0.1547 0.0
C1336 C 0.96446 0.20581 0.13428 0.0
C1337 C 0.91279 0.22211 0.12725 0.0
C1338 C 0.92332 0.20469 0.10291 0.0
C1339 C 0.96094 0.18149 0.0797 0.0
C1340 C 0.98756 0.17603 0.08144 0.0
C1341 C 0.94932 0.19684 0.10578 0.0
C1342 C 0.00203 0.18397 0.1107 0.0
C1343 C 0.99051 0.1985 0.13721 0.0
H1344 H 0.90884 0.67332 0.93087 0.0
H1345 H 0.96896 0.62108 0.89682 0.0
H1346 H 0.9543 0.6257 0.83559 0.0
H1347 H 0.92756 0.64864 0.79168 0.0
H1348 H 0.86638 0.69957 0.82606 0.0
H1349 H 0.87793 0.69107 0.88765 0.0
C1350 C 0.91848 0.66271 0.91001 0.0
C1351 C 0.94018 0.64727 0.91793 0.0
C1352 C 0.90979 0.66528 0.87519 0.0
C1353 C 0.95228 0.63315 0.89108 0.0
C1354 C 0.94397 0.63589 0.85618 0.0
C1355 C 0.9165 0.6575 0.81275 0.0
C1356 C 0.89643 0.67498 0.80458 0.0
C1357 C 0.92323 0.65248 0.84789 0.0
C1358 C 0.88191 0.68607 0.83187 0.0
C1359 C 0.88864 0.68136 0.86699 0.0
H1360 H 0.06192 0.14954 0.66946 0.0
H1361 H 0.11864 0.20911 0.65044 0.0
H1362 H 0.10921 0.20752 0.58736 0.0
H1363 H 0.08271 0.19138 0.53858 0.0
H1364 H 0.02615 0.13171 0.55777 0.0
H1365 H 0.03758 0.13135 0.62027 0.0
C1366 C 0.07242 0.16203 0.65151 0.0
C1367 C 0.09073 0.17963 0.66459 0.0
C1368 C 0.06669 0.16124 0.61553 0.0
C1369 C 0.10442 0.19542 0.64098 0.0
C1370 C 0.09891 0.19465 0.60499 0.0
C1371 C 0.07284 0.17834 0.55646 0.0
C1372 C 0.05336 0.16188 0.5438 0.0
C1373 C 0.07967 0.17806 0.59215 0.0
C1374 C 0.0411 0.14469 0.56704 0.0
C1375 C 0.04764 0.14444 0.60269 0.0
H1376 H 0.6025 0.32958 0.43971 0.0
H1377 H 0.52742 0.3591 0.41007 0.0
H1378 H 0.53252 0.34092 0.35093 0.0
H1379 H 0.55559 0.31087 0.31141 0.0
H1380 H 0.63132 0.28269 0.3405 0.0
H1381 H 0.62886 0.30619 0.39633 0.0
C1382 C 0.58763 0.33265 0.41988 0.0
C1383 C 0.56454 0.34533 0.42905 0.0
C1384 C 0.59062 0.32196 0.38628 0.0
C1385 C 0.5454 0.34947 0.40336 0.0
C1386 C 0.54818 0.3388 0.36977 0.0
C1387 C 0.57165 0.31022 0.32987 0.0
C1388 C 0.59335 0.29472 0.32252 0.0
C1389 C 0.57022 0.32406 0.36153 0.0
C1390 C 0.61436 0.29437 0.34597 0.0
C1391 C 0.61293 0.30774 0.37782 0.0
H1392 H 0.45006 0.83725 0.06879 0.0
H1393 H 0.52781 0.8296 0.10876 0.0
H1394 H 0.51117 0.82299 0.16846 0.0
H1395 H 0.47468 0.81856 0.20862 0.0
H1396 H 0.39653 0.82237 0.16877 0.0
H1397 H 0.41302 0.83097 0.10929 0.0
C1398 C 0.4632 0.83438 0.0908 0.0
C1399 C 0.49001 0.83429 0.085 0.0
C1400 C 0.45343 0.82965 0.12469 0.0
C1401 C 0.5071 0.82997 0.11311 0.0
C1402 C 0.4976 0.82611 0.14704 0.0
C1403 C 0.46123 0.82133 0.18692 0.0
C1404 C 0.43446 0.82006 0.19296 0.0
C1405 C 0.47083 0.82577 0.15305 0.0
C1406 C 0.41724 0.82323 0.16461 0.0
C1407 C 0.42666 0.82826 0.13073 0.0
H1408 H 0.91042 0.3078 0.52957 0.0
H1409 H 0.97581 0.35877 0.54224 0.0
H1410 H 0.97213 0.35523 0.60627 0.0
H1411 H 0.9507 0.33731 0.65825 0.0
H1412 H 0.88437 0.28758 0.64577 0.0
H1413 H 0.88805 0.29106 0.58167 0.0
C1414 C 0.92392 0.31811 0.54633 0.0
C1415 C 0.94349 0.33338 0.53124 0.0
C1416 C 0.92151 0.31621 0.58298 0.0
C1417 C 0.96059 0.34688 0.55326 0.0
C1418 C 0.95853 0.34483 0.58982 0.0
C1419 C 0.93707 0.32716 0.64153 0.0
C1420 C 0.91741 0.31203 0.65666 0.0
C1421 C 0.93913 0.32948 0.6049 0.0
C1422 C 0.89967 0.29932 0.6347 0.0
C1423 C 0.9018 0.30127 0.59811 0.0
H1424 H 0.42886 0.21091 0.29837 0.0
H1425 H 0.35278 0.23835 0.32653 0.0
H1426 H 0.35537 0.21482 0.38255 0.0
H1427 H 0.38092 0.18967 0.42519 0.0
H1428 H 0.45623 0.16061 0.39622 0.0
H1429 H 0.45206 0.18094 0.33809 0.0
C1430 C 0.41287 0.21164 0.31684 0.0
C1431 C 0.39091 0.22672 0.30901 0.0
C1432 C 0.41428 0.19762 0.34844 0.0
C1433 C 0.36996 0.22704 0.33241 0.0
C1434 C 0.37143 0.2136 0.3643 0.0
C1435 C 0.39618 0.18739 0.40583 0.0
C1436 C 0.41895 0.17396 0.41487 0.0
C1437 C 0.39369 0.19923 0.3728 0.0
C1438 C 0.4385 0.17079 0.38965 0.0
C1439 C 0.43623 0.18265 0.35664 0.0
H1440 H 0.55248 0.69731 0.05929 0.0
H1441 H 0.53116 0.61917 0.08622 0.0
H1442 H 0.55673 0.62179 0.14054 0.0
H1443 H 0.58028 0.64845 0.18335 0.0
H1444 H 0.60298 0.72602 0.15558 0.0
H1445 H 0.58234 0.72135 0.09777 0.0
C1446 C 0.55374 0.68082 0.07697 0.0
C1447 C 0.53964 0.65831 0.06957 0.0
C1448 C 0.56875 0.68237 0.10764 0.0
C1449 C 0.54175 0.63674 0.09187 0.0
C1450 C 0.5563 0.63826 0.1228 0.0
C1451 C 0.58126 0.66403 0.16419 0.0
C1452 C 0.59275 0.68762 0.17352 0.0
C1453 C 0.56922 0.66124 0.13138 0.0
C1454 C 0.59426 0.70768 0.14868 0.0
C1455 C 0.58222 0.70511 0.11589 0.0
H1456 H 0.07738 0.8352 0.77478 0.0
H1457 H 0.14375 0.7882 0.80144 0.0
H1458 H 0.13947 0.80054 0.86342 0.0
H1459 H 0.11404 0.82107 0.91037 0.0
H1460 H 0.04857 0.86928 0.8835 0.0
H1461 H 0.05554 0.86046 0.82087 0.0
C1462 C 0.09104 0.8279 0.79417 0.0
C1463 C 0.11056 0.81049 0.7839 0.0
C1464 C 0.08858 0.83525 0.82951 0.0
C1465 C 0.12851 0.80153 0.80892 0.0
C1466 C 0.126 0.8085 0.84429 0.0
C1467 C 0.10154 0.82993 0.89071 0.0
C1468 C 0.0806 0.84547 0.90135 0.0
C1469 C 0.1057 0.8248 0.85494 0.0
C1470 C 0.06479 0.85723 0.8758 0.0
C1471 C 0.06866 0.85205 0.84008 0.0
loop_
_geom_bond_atom_site_label_1
_geom_bond_atom_site_label_2
_geom_bond_distance
_geom_bond_site_symmetry_2
_ccdc_geom_bond_type
Zn0 O3 2.031 . S
Zn0 O5 2.049 . S
Zn0 O10 2.067 . S
Zn1 O2 1.962 . S
Zn1 O4 1.986 . S
Zn1 O6 1.996 . S
Zn1 O9 1.943 . S
O2 Zn1 1.962 . S
O2 C7 1.254 . S
O3 Zn0 2.031 . S
O3 C7 1.269 . S
O4 Zn1 1.986 . S
O4 C11 1.262 . S
O5 Zn0 2.049 . S
O5 C13 1.260 . S
O6 Zn1 1.996 . S
O6 C13 1.257 . S
C7 O2 1.254 . S
C7 O3 1.269 . S
C8 O9 1.249 . S
C8 O10 1.270 . S
O9 Zn1 1.943 . S
O9 C8 1.249 . S
O10 Zn0 2.067 . S
O10 C8 1.270 . S
C11 O4 1.262 . S
C11 O12 1.232 . S
O12 C11 1.232 . S
C13 O5 1.260 . S
C13 O6 1.257 . S
Zn14 O17 2.031 1_655 S
Zn14 O19 2.049 . S
Zn14 O24 2.067 . S
Zn15 O16 1.962 1_655 S
Zn15 O18 1.986 . S
Zn15 O20 1.996 . S
Zn15 O23 1.943 . S
O16 Zn15 1.962 1_455 S
O16 C21 1.254 . S
O17 Zn14 2.031 1_455 S
O17 C21 1.269 . S
O18 Zn15 1.986 . S
O18 C25 1.262 . S
O19 Zn14 2.049 . S
O19 C27 1.260 . S
O20 Zn15 1.996 . S
O20 C27 1.257 . S
C21 O16 1.254 . S
C21 O17 1.269 . S
C22 O23 1.249 . S
C22 O24 1.270 . S
O23 Zn15 1.943 . S
O23 C22 1.249 . S
O24 Zn14 2.067 . S
O24 C22 1.270 . S
C25 O18 1.262 . S
C25 O26 1.232 . S
O26 C25 1.232 . S
C27 O19 1.260 . S
C27 O20 1.257 . S
Zn28 O31 2.031 . S
Zn28 O33 2.049 . S
Zn28 O38 2.067 . S
Zn29 O30 1.962 . S
Zn29 O32 1.986 . S
Zn29 O34 1.996 . S
Zn29 O37 1.943 . S
O30 Zn29 1.962 . S
O30 C35 1.254 . S
O31 Zn28 2.031 . S
O31 C35 1.269 . S
O32 Zn29 1.986 . S
O32 C39 1.262 . S
O33 Zn28 2.049 . S
O33 C41 1.260 . S
O34 Zn29 1.996 . S
O34 C41 1.257 . S
C35 O30 1.254 . S
C35 O31 1.269 . S
C36 O37 1.249 . S
C36 O38 1.270 . S
O37 Zn29 1.943 . S
O37 C36 1.249 . S
O38 Zn28 2.067 . S
O38 C36 1.270 . S
C39 O32 1.262 . S
C39 O40 1.232 . S
O40 C39 1.232 . S
C41 O33 1.260 . S
C41 O34 1.257 . S
Zn42 O45 2.031 . S
Zn42 O47 2.049 1_554 S
Zn42 O52 2.067 . S
Zn43 O44 1.962 . S
Zn43 O46 1.986 1_554 S
Zn43 O48 1.996 1_554 S
Zn43 O51 1.943 . S
O44 Zn43 1.962 . S
O44 C49 1.254 . S
O45 Zn42 2.031 . S
O45 C49 1.269 . S
O46 Zn43 1.986 1_556 S
O46 C53 1.262 1_556 S
O47 Zn42 2.049 1_556 S
O47 C55 1.260 . S
O48 Zn43 1.996 1_556 S
O48 C55 1.257 . S
C49 O44 1.254 . S
C49 O45 1.269 . S
C50 O51 1.249 . S
C50 O52 1.270 . S
O51 Zn43 1.943 . S
O51 C50 1.249 . S
O52 Zn42 2.067 . S
O52 C50 1.270 . S
C53 O46 1.262 1_554 S
C53 O54 1.232 . S
O54 C53 1.232 . S
C55 O47 1.260 . S
C55 O48 1.257 . S
Zn56 O59 2.031 . S
Zn56 O61 2.049 . S
Zn56 O66 2.067 . S
Zn57 O58 1.962 . S
Zn57 O60 1.986 . S
Zn57 O62 1.996 . S
Zn57 O65 1.943 . S
O58 Zn57 1.962 . S
O58 C63 1.254 . S
O59 Zn56 2.031 . S
O59 C63 1.269 . S
O60 Zn57 1.986 . S
O60 C67 1.262 . S
O61 Zn56 2.049 . S
O61 C69 1.260 . S
O62 Zn57 1.996 . S
O62 C69 1.257 . S
C63 O58 1.254 . S
C63 O59 1.269 . S
C64 O65 1.249 . S
C64 O66 1.270 . S
O65 Zn57 1.943 . S
O65 C64 1.249 . S
O66 Zn56 2.067 . S
O66 C64 1.270 . S
C67 O60 1.262 . S
C67 O68 1.232 . S
O68 C67 1.232 . S
C69 O61 1.260 . S
C69 O62 1.257 . S
Zn70 O73 2.031 . S
Zn70 O75 2.049 . S
Zn70 O80 2.067 . S
Zn71 O72 1.962 . S
Zn71 O74 1.986 . S
Zn71 O76 1.996 . S
Zn71 O79 1.943 . S
O72 Zn71 1.962 . S
O72 C77 1.254 . S
O73 Zn70 2.031 . S
O73 C77 1.269 . S
O74 Zn71 1.986 . S
O74 C81 1.262 . S
O75 Zn70 2.049 . S
O75 C83 1.260 . S
O76 Zn71 1.996 . S
O76 C83 1.257 . S
C77 O72 1.254 . S
C77 O73 1.269 . S
C78 O79 1.249 . S
C78 O80 1.270 . S
O79 Zn71 1.943 . S
O79 C78 1.249 . S
O80 Zn70 2.067 . S
O80 C78 1.270 . S
C81 O74 1.262 . S
C81 O82 1.232 . S
O82 C81 1.232 . S
C83 O75 1.260 . S
C83 O76 1.257 . S
Zn84 O87 2.031 . S
Zn84 O89 2.049 . S
Zn84 O94 2.067 . S
Zn85 O86 1.962 . S
Zn85 O88 1.986 . S
Zn85 O90 1.996 . S
Zn85 O93 1.943 . S
O86 Zn85 1.962 . S
O86 C91 1.254 . S
O87 Zn84 2.031 . S
O87 C91 1.269 . S
O88 Zn85 1.986 . S
O88 C95 1.262 . S
O89 Zn84 2.049 . S
O89 C97 1.260 . S
O90 Zn85 1.996 . S
O90 C97 1.257 . S
C91 O86 1.254 . S
C91 O87 1.269 . S
C92 O93 1.249 . S
C92 O94 1.270 . S
O93 Zn85 1.943 . S
O93 C92 1.249 . S
O94 Zn84 2.067 . S
O94 C92 1.270 . S
C95 O88 1.262 . S
C95 O96 1.232 . S
O96 C95 1.232 . S
C97 O89 1.260 . S
C97 O90 1.257 . S
Zn98 O101 2.031 1_655 S
Zn98 O103 2.049 1_556 S
Zn98 O108 2.067 . S
Zn99 O100 1.962 1_655 S
Zn99 O102 1.986 1_556 S
Zn99 O104 1.996 1_556 S
Zn99 O107 1.943 . S
O100 Zn99 1.962 1_455 S
O100 C105 1.254 . S
O101 Zn98 2.031 1_455 S
O101 C105 1.269 . S
O102 Zn99 1.986 1_554 S
O102 C109 1.262 1_554 S
O103 Zn98 2.049 1_554 S
O103 C111 1.260 . S
O104 Zn99 1.996 1_554 S
O104 C111 1.257 . S
C105 O100 1.254 . S
C105 O101 1.269 . S
C106 O107 1.249 . S
C106 O108 1.270 . S
O107 Zn99 1.943 . S
O107 C106 1.249 . S
O108 Zn98 2.067 . S
O108 C106 1.270 . S
C109 O102 1.262 1_556 S
C109 O110 1.232 . S
O110 C109 1.232 . S
C111 O103 1.260 . S
C111 O104 1.257 . S
Zn112 O115 2.031 . S
Zn112 O117 2.049 . S
Zn112 O122 2.067 . S
Zn113 O114 1.962 . S
Zn113 O116 1.986 . S
Zn113 O118 1.996 . S
Zn113 O121 1.943 . S
O114 Zn113 1.962 . S
O114 C119 1.254 . S
O115 Zn112 2.031 . S
O115 C119 1.269 . S
O116 Zn113 1.986 . S
O116 C123 1.262 . S
O117 Zn112 2.049 . S
O117 C125 1.260 . S
O118 Zn113 1.996 . S
O118 C125 1.257 . S
C119 O114 1.254 . S
C119 O115 1.269 . S
C120 O121 1.249 . S
C120 O122 1.270 . S
O121 Zn113 1.943 . S
O121 C120 1.249 . S
O122 Zn112 2.067 . S
O122 C120 1.270 . S
C123 O116 1.262 . S
C123 O124 1.232 . S
O124 C123 1.232 . S
C125 O117 1.260 . S
C125 O118 1.257 . S
Zn126 O129 2.031 1_455 S
Zn126 O131 2.049 . S
Zn126 O136 2.067 . S
Zn127 O128 1.962 1_455 S
Zn127 O130 1.986 . S
Zn127 O132 1.996 . S
Zn127 O135 1.943 . S
O128 Zn127 1.962 1_655 S
O128 C133 1.254 . S
O129 Zn126 2.031 1_655 S
O129 C133 1.269 . S
O130 Zn127 1.986 . S
O130 C137 1.262 . S
O131 Zn126 2.049 . S
O131 C139 1.260 . S
O132 Zn127 1.996 . S
O132 C139 1.257 . S
C133 O128 1.254 . S
C133 O129 1.269 . S
C134 O135 1.249 . S
C134 O136 1.270 . S
O135 Zn127 1.943 . S
O135 C134 1.249 . S
O136 Zn126 2.067 . S
O136 C134 1.270 . S
C137 O130 1.262 . S
C137 O138 1.232 . S
O138 C137 1.232 . S
C139 O131 1.260 . S
C139 O132 1.257 . S
Zn140 O143 2.031 . S
Zn140 O145 2.049 . S
Zn140 O150 2.067 . S
Zn141 O142 1.962 . S
Zn141 O144 1.986 . S
Zn141 O146 1.996 . S
Zn141 O149 1.943 . S
O142 Zn141 1.962 . S
O142 C147 1.254 . S
O143 Zn140 2.031 . S
O143 C147 1.269 . S
O144 Zn141 1.986 . S
O144 C151 1.262 . S
O145 Zn140 2.049 . S
O145 C153 1.260 . S
O146 Zn141 1.996 . S
O146 C153 1.257 . S
C147 O142 1.254 . S
C147 O143 1.269 . S
C148 O149 1.249 . S
C148 O150 1.270 . S
O149 Zn141 1.943 . S
O149 C148 1.249 . S
O150 Zn140 2.067 . S
O150 C148 1.270 . S
C151 O144 1.262 . S
C151 O152 1.232 . S
O152 C151 1.232 . S
C153 O145 1.260 . S
C153 O146 1.257 . S
Zn154 O157 2.031 . S
Zn154 O159 2.049 1_556 S
Zn154 O164 2.067 . S
Zn155 O156 1.962 . S
Zn155 O158 1.986 1_556 S
Zn155 O160 1.996 1_556 S
Zn155 O163 1.943 . S
O156 Zn155 1.962 . S
O156 C161 1.254 . S
O157 Zn154 2.031 . S
O157 C161 1.269 . S
O158 Zn155 1.986 1_554 S
O158 C165 1.262 1_554 S
O159 Zn154 2.049 1_554 S
O159 C167 1.260 . S
O160 Zn155 1.996 1_554 S
O160 C167 1.257 . S
C161 O156 1.254 . S
C161 O157 1.269 . S
C162 O163 1.249 . S
C162 O164 1.270 . S
O163 Zn155 1.943 . S
O163 C162 1.249 . S
O164 Zn154 2.067 . S
O164 C162 1.270 . S
C165 O158 1.262 1_556 S
C165 O166 1.232 . S
O166 C165 1.232 . S
C167 O159 1.260 . S
C167 O160 1.257 . S
Zn168 O171 2.031 . S
Zn168 O173 2.049 . S
Zn168 O178 2.067 . S
Zn169 O170 1.962 . S
Zn169 O172 1.986 . S
Zn169 O174 1.996 . S
Zn169 O177 1.943 . S
O170 Zn169 1.962 . S
O170 C175 1.254 . S
O171 Zn168 2.031 . S
O171 C175 1.269 . S
O172 Zn169 1.986 . S
O172 C179 1.262 . S
O173 Zn168 2.049 . S
O173 C181 1.260 . S
O174 Zn169 1.996 . S
O174 C181 1.257 . S
C175 O170 1.254 . S
C175 O171 1.269 . S
C176 O177 1.249 . S
C176 O178 1.270 . S
O177 Zn169 1.943 . S
O177 C176 1.249 . S
O178 Zn168 2.067 . S
O178 C176 1.270 . S
C179 O172 1.262 . S
C179 O180 1.232 . S
O180 C179 1.232 . S
C181 O173 1.260 . S
C181 O174 1.257 . S
Zn182 O185 2.031 . S
Zn182 O187 2.049 . S
Zn182 O192 2.067 . S
Zn183 O184 1.962 . S
Zn183 O186 1.986 . S
Zn183 O188 1.996 . S
Zn183 O191 1.943 . S
O184 Zn183 1.962 . S
O184 C189 1.254 . S
O185 Zn182 2.031 . S
O185 C189 1.269 . S
O186 Zn183 1.986 . S
O186 C193 1.262 . S
O187 Zn182 2.049 . S
O187 C195 1.260 . S
O188 Zn183 1.996 . S
O188 C195 1.257 . S
C189 O184 1.254 . S
C189 O185 1.269 . S
C190 O191 1.249 . S
C190 O192 1.270 . S
O191 Zn183 1.943 . S
O191 C190 1.249 . S
O192 Zn182 2.067 . S
O192 C190 1.270 . S
C193 O186 1.262 . S
C193 O194 1.232 . S
O194 C193 1.232 . S
C195 O187 1.260 . S
C195 O188 1.257 . S
Zn196 O199 2.031 . S
Zn196 O201 2.049 . S
Zn196 O206 2.067 . S
Zn197 O198 1.962 . S
Zn197 O200 1.986 . S
Zn197 O202 1.996 . S
Zn197 O205 1.943 . S
O198 Zn197 1.962 . S
O198 C203 1.254 . S
O199 Zn196 2.031 . S
O199 C203 1.269 . S
O200 Zn197 1.986 . S
O200 C207 1.262 . S
O201 Zn196 2.049 . S
O201 C209 1.260 . S
O202 Zn197 1.996 . S
O202 C209 1.257 . S
C203 O198 1.254 . S
C203 O199 1.269 . S
C204 O205 1.249 . S
C204 O206 1.270 . S
O205 Zn197 1.943 . S
O205 C204 1.249 . S
O206 Zn196 2.067 . S
O206 C204 1.270 . S
C207 O200 1.262 . S
C207 O208 1.232 . S
O208 C207 1.232 . S
C209 O201 1.260 . S
C209 O202 1.257 . S
Zn210 O213 2.031 1_455 S
Zn210 O215 2.049 1_554 S
Zn210 O220 2.067 . S
Zn211 O212 1.962 1_455 S
Zn211 O214 1.986 1_554 S
Zn211 O216 1.996 1_554 S
Zn211 O219 1.943 . S
O212 Zn211 1.962 1_655 S
O212 C217 1.254 . S
O213 Zn210 2.031 1_655 S
O213 C217 1.269 . S
O214 Zn211 1.986 1_556 S
O214 C221 1.262 1_556 S
O215 Zn210 2.049 1_556 S
O215 C223 1.260 . S
O216 Zn211 1.996 1_556 S
O216 C223 1.257 . S
C217 O212 1.254 . S
C217 O213 1.269 . S
C218 O219 1.249 . S
C218 O220 1.270 . S
O219 Zn211 1.943 . S
O219 C218 1.249 . S
O220 Zn210 2.067 . S
O220 C218 1.270 . S
C221 O214 1.262 1_554 S
C221 O222 1.232 . S
O222 C221 1.232 . S
C223 O215 1.260 . S
C223 O216 1.257 . S
Zn224 O227 2.031 . S
Zn224 O229 2.049 . S
Zn224 O234 2.067 . S
Zn225 O226 1.962 . S
Zn225 O228 1.986 . S
Zn225 O230 1.996 . S
Zn225 O233 1.943 . S
O226 Zn225 1.962 . S
O226 C231 1.254 . S
O227 Zn224 2.031 . S
O227 C231 1.269 . S
O228 Zn225 1.986 . S
O228 C235 1.262 . S
O229 Zn224 2.049 . S
O229 C237 1.260 . S
O230 Zn225 1.996 . S
O230 C237 1.257 . S
C231 O226 1.254 . S
C231 O227 1.269 . S
C232 O233 1.249 . S
C232 O234 1.270 . S
O233 Zn225 1.943 . S
O233 C232 1.249 . S
O234 Zn224 2.067 . S
O234 C232 1.270 . S
C235 O228 1.262 . S
C235 O236 1.232 . S
O236 C235 1.232 . S
C237 O229 1.260 . S
C237 O230 1.257 . S
Zn238 O241 2.031 . S
Zn238 O243 2.049 1_554 S
Zn238 O248 2.067 . S
Zn239 O240 1.962 . S
Zn239 O242 1.986 1_554 S
Zn239 O244 1.996 1_554 S
Zn239 O247 1.943 . S
O240 Zn239 1.962 . S
O240 C245 1.254 . S
O241 Zn238 2.031 . S
O241 C245 1.269 . S
O242 Zn239 1.986 1_556 S
O242 C249 1.262 1_556 S
O243 Zn238 2.049 1_556 S
O243 C251 1.260 . S
O244 Zn239 1.996 1_556 S
O244 C251 1.257 . S
C245 O240 1.254 . S
C245 O241 1.269 . S
C246 O247 1.249 . S
C246 O248 1.270 . S
O247 Zn239 1.943 . S
O247 C246 1.249 . S
O248 Zn238 2.067 . S
O248 C246 1.270 . S
C249 O242 1.262 1_554 S
C249 O250 1.232 . S
O250 C249 1.232 . S
C251 O243 1.260 . S
C251 O244 1.257 . S
Zn252 O255 2.031 . S
Zn252 O257 2.049 . S
Zn252 O262 2.067 . S
Zn253 O254 1.962 . S
Zn253 O256 1.986 . S
Zn253 O258 1.996 . S
Zn253 O261 1.943 . S
O254 Zn253 1.962 . S
O254 C259 1.254 . S
O255 Zn252 2.031 . S
O255 C259 1.269 . S
O256 Zn253 1.986 . S
O256 C263 1.262 . S
O257 Zn252 2.049 . S
O257 C265 1.260 . S
O258 Zn253 1.996 . S
O258 C265 1.257 . S
C259 O254 1.254 . S
C259 O255 1.269 . S
C260 O261 1.249 . S
C260 O262 1.270 . S
O261 Zn253 1.943 . S
O261 C260 1.249 . S
O262 Zn252 2.067 . S
O262 C260 1.270 . S
C263 O256 1.262 . S
C263 O264 1.232 . S
O264 C263 1.232 . S
C265 O257 1.260 . S
C265 O258 1.257 . S
Zn266 O269 2.031 1_455 S
Zn266 O271 2.049 . S
Zn266 O276 2.067 . S
Zn267 O268 1.962 1_455 S
Zn267 O270 1.986 . S
Zn267 O272 1.996 . S
Zn267 O275 1.943 . S
O268 Zn267 1.962 1_655 S
O268 C273 1.254 . S
O269 Zn266 2.031 1_655 S
O269 C273 1.269 . S
O270 Zn267 1.986 . S
O270 C277 1.262 . S
O271 Zn266 2.049 . S
O271 C279 1.260 . S
O272 Zn267 1.996 . S
O272 C279 1.257 . S
C273 O268 1.254 . S
C273 O269 1.269 . S
C274 O275 1.249 . S
C274 O276 1.270 . S
O275 Zn267 1.943 . S
O275 C274 1.249 . S
O276 Zn266 2.067 . S
O276 C274 1.270 . S
C277 O270 1.262 . S
C277 O278 1.232 . S
O278 C277 1.232 . S
C279 O271 1.260 . S
C279 O272 1.257 . S
Zn280 O283 2.031 . S
Zn280 O285 2.049 . S
Zn280 O290 2.067 . S
Zn281 O282 1.962 . S
Zn281 O284 1.986 . S
Zn281 O286 1.996 . S
Zn281 O289 1.943 . S
O282 Zn281 1.962 . S
O282 C287 1.254 . S
O283 Zn280 2.031 . S
O283 C287 1.269 . S
O284 Zn281 1.986 . S
O284 C291 1.262 . S
O285 Zn280 2.049 . S
O285 C293 1.260 . S
O286 Zn281 1.996 . S
O286 C293 1.257 . S
C287 O282 1.254 . S
C287 O283 1.269 . S
C288 O289 1.249 . S
C288 O290 1.270 . S
O289 Zn281 1.943 . S
O289 C288 1.249 . S
O290 Zn280 2.067 . S
O290 C288 1.270 . S
C291 O284 1.262 . S
C291 O292 1.232 . S
O292 C291 1.232 . S
C293 O285 1.260 . S
C293 O286 1.257 . S
Zn294 O297 2.031 1_455 S
Zn294 O299 2.049 1_556 S
Zn294 O304 2.067 . S
Zn295 O296 1.962 1_455 S
Zn295 O298 1.986 1_556 S
Zn295 O300 1.996 1_556 S
Zn295 O303 1.943 . S
O296 Zn295 1.962 1_655 S
O296 C301 1.254 . S
O297 Zn294 2.031 1_655 S
O297 C301 1.269 . S
O298 Zn295 1.986 1_554 S
O298 C305 1.262 1_554 S
O299 Zn294 2.049 1_554 S
O299 C307 1.260 . S
O300 Zn295 1.996 1_554 S
O300 C307 1.257 . S
C301 O296 1.254 . S
C301 O297 1.269 . S
C302 O303 1.249 . S
C302 O304 1.270 . S
O303 Zn295 1.943 . S
O303 C302 1.249 . S
O304 Zn294 2.067 . S
O304 C302 1.270 . S
C305 O298 1.262 1_556 S
C305 O306 1.232 . S
O306 C305 1.232 . S
C307 O299 1.260 . S
C307 O300 1.257 . S
Zn308 O311 2.031 . S
Zn308 O313 2.049 . S
Zn308 O318 2.067 . S
Zn309 O310 1.962 . S
Zn309 O312 1.986 . S
Zn309 O314 1.996 . S
Zn309 O317 1.943 . S
O310 Zn309 1.962 . S
O310 C315 1.254 . S
O311 Zn308 2.031 . S
O311 C315 1.269 . S
O312 Zn309 1.986 . S
O312 C319 1.262 . S
O313 Zn308 2.049 . S
O313 C321 1.260 . S
O314 Zn309 1.996 . S
O314 C321 1.257 . S
C315 O310 1.254 . S
C315 O311 1.269 . S
C316 O317 1.249 . S
C316 O318 1.270 . S
O317 Zn309 1.943 . S
O317 C316 1.249 . S
O318 Zn308 2.067 . S
O318 C316 1.270 . S
C319 O312 1.262 . S
C319 O320 1.232 . S
O320 C319 1.232 . S
C321 O313 1.260 . S
C321 O314 1.257 . S
Zn322 O325 2.031 . S
Zn322 O327 2.049 . S
Zn322 O332 2.067 . S
Zn323 O324 1.962 . S
Zn323 O326 1.986 . S
Zn323 O328 1.996 . S
Zn323 O331 1.943 . S
O324 Zn323 1.962 . S
O324 C329 1.254 . S
O325 Zn322 2.031 . S
O325 C329 1.269 . S
O326 Zn323 1.986 . S
O326 C333 1.262 . S
O327 Zn322 2.049 . S
O327 C335 1.260 . S
O328 Zn323 1.996 . S
O328 C335 1.257 . S
C329 O324 1.254 . S
C329 O325 1.269 . S
C330 O331 1.249 . S
C330 O332 1.270 . S
O331 Zn323 1.943 . S
O331 C330 1.249 . S
O332 Zn322 2.067 . S
O332 C330 1.270 . S
C333 O326 1.262 . S
C333 O334 1.232 . S
O334 C333 1.232 . S
C335 O327 1.260 . S
C335 O328 1.257 . S
Zn336 O339 2.031 . S
Zn336 O341 2.049 . S
Zn336 O346 2.067 . S
Zn337 O338 1.962 . S
Zn337 O340 1.986 . S
Zn337 O342 1.996 . S
Zn337 O345 1.943 . S
O338 Zn337 1.962 . S
O338 C343 1.254 . S
O339 Zn336 2.031 . S
O339 C343 1.269 . S
O340 Zn337 1.986 . S
O340 C347 1.262 . S
O341 Zn336 2.049 . S
O341 C349 1.260 . S
O342 Zn337 1.996 . S
O342 C349 1.257 . S
C343 O338 1.254 . S
C343 O339 1.269 . S
C344 O345 1.249 . S
C344 O346 1.270 . S
O345 Zn337 1.943 . S
O345 C344 1.249 . S
O346 Zn336 2.067 . S
O346 C344 1.270 . S
C347 O340 1.262 . S
C347 O348 1.232 . S
O348 C347 1.232 . S
C349 O341 1.260 . S
C349 O342 1.257 . S
Zn350 O353 2.031 . S
Zn350 O355 2.049 1_556 S
Zn350 O360 2.067 . S
Zn351 O352 1.962 . S
Zn351 O354 1.986 1_556 S
Zn351 O356 1.996 1_556 S
Zn351 O359 1.943 . S
O352 Zn351 1.962 . S
O352 C357 1.254 . S
O353 Zn350 2.031 . S
O353 C357 1.269 . S
O354 Zn351 1.986 1_554 S
O354 C361 1.262 1_554 S
O355 Zn350 2.049 1_554 S
O355 C363 1.260 . S
O356 Zn351 1.996 1_554 S
O356 C363 1.257 . S
C357 O352 1.254 . S
C357 O353 1.269 . S
C358 O359 1.249 . S
C358 O360 1.270 . S
O359 Zn351 1.943 . S
O359 C358 1.249 . S
O360 Zn350 2.067 . S
O360 C358 1.270 . S
C361 O354 1.262 1_556 S
C361 O362 1.232 . S
O362 C361 1.232 . S
C363 O355 1.260 . S
C363 O356 1.257 . S
Zn364 O367 2.031 . S
Zn364 O369 2.049 . S
Zn364 O374 2.067 . S
Zn365 O366 1.962 . S
Zn365 O368 1.986 . S
Zn365 O370 1.996 . S
Zn365 O373 1.943 . S
O366 Zn365 1.962 . S
O366 C371 1.254 . S
O367 Zn364 2.031 . S
O367 C371 1.269 . S
O368 Zn365 1.986 . S
O368 C375 1.262 . S
O369 Zn364 2.049 . S
O369 C377 1.260 . S
O370 Zn365 1.996 . S
O370 C377 1.257 . S
C371 O366 1.254 . S
C371 O367 1.269 . S
C372 O373 1.249 . S
C372 O374 1.270 . S
O373 Zn365 1.943 . S
O373 C372 1.249 . S
O374 Zn364 2.067 . S
O374 C372 1.270 . S
C375 O368 1.262 . S
C375 O376 1.232 . S
O376 C375 1.232 . S
C377 O369 1.260 . S
C377 O370 1.257 . S
Zn378 O381 2.031 1_655 S
Zn378 O383 2.049 . S
Zn378 O388 2.067 . S
Zn379 O380 1.962 1_655 S
Zn379 O382 1.986 . S
Zn379 O384 1.996 . S
Zn379 O387 1.943 . S
O380 Zn379 1.962 1_455 S
O380 C385 1.254 . S
O381 Zn378 2.031 1_455 S
O381 C385 1.269 . S
O382 Zn379 1.986 . S
O382 C389 1.262 . S
O383 Zn378 2.049 . S
O383 C391 1.260 . S
O384 Zn379 1.996 . S
O384 C391 1.257 . S
C385 O380 1.254 . S
C385 O381 1.269 . S
C386 O387 1.249 . S
C386 O388 1.270 . S
O387 Zn379 1.943 . S
O387 C386 1.249 . S
O388 Zn378 2.067 . S
O388 C386 1.270 . S
C389 O382 1.262 . S
C389 O390 1.232 . S
O390 C389 1.232 . S
C391 O383 1.260 . S
C391 O384 1.257 . S
Zn392 O395 2.031 . S
Zn392 O397 2.049 . S
Zn392 O402 2.067 . S
Zn393 O394 1.962 . S
Zn393 O396 1.986 . S
Zn393 O398 1.996 . S
Zn393 O401 1.943 . S
O394 Zn393 1.962 . S
O394 C399 1.254 . S
O395 Zn392 2.031 . S
O395 C399 1.269 . S
O396 Zn393 1.986 . S
O396 C403 1.262 . S
O397 Zn392 2.049 . S
O397 C405 1.260 . S
O398 Zn393 1.996 . S
O398 C405 1.257 . S
C399 O394 1.254 . S
C399 O395 1.269 . S
C400 O401 1.249 . S
C400 O402 1.270 . S
O401 Zn393 1.943 . S
O401 C400 1.249 . S
O402 Zn392 2.067 . S
O402 C400 1.270 . S
C403 O396 1.262 . S
C403 O404 1.232 . S
O404 C403 1.232 . S
C405 O397 1.260 . S
C405 O398 1.257 . S
Zn406 O409 2.031 1_655 S
Zn406 O411 2.049 1_554 S
Zn406 O416 2.067 . S
Zn407 O408 1.962 1_655 S
Zn407 O410 1.986 1_554 S
Zn407 O412 1.996 1_554 S
Zn407 O415 1.943 . S
O408 Zn407 1.962 1_455 S
O408 C413 1.254 . S
O409 Zn406 2.031 1_455 S
O409 C413 1.269 . S
O410 Zn407 1.986 1_556 S
O410 C417 1.262 1_556 S
O411 Zn406 2.049 1_556 S
O411 C419 1.260 . S
O412 Zn407 1.996 1_556 S
O412 C419 1.257 . S
C413 O408 1.254 . S
C413 O409 1.269 . S
C414 O415 1.249 . S
C414 O416 1.270 . S
O415 Zn407 1.943 . S
O415 C414 1.249 . S
O416 Zn406 2.067 . S
O416 C414 1.270 . S
C417 O410 1.262 1_554 S
C417 O418 1.232 . S
O418 C417 1.232 . S
C419 O411 1.260 . S
C419 O412 1.257 . S
Zn420 O423 2.031 . S
Zn420 O425 2.049 . S
Zn420 O430 2.067 . S
Zn421 O422 1.962 . S
Zn421 O424 1.986 . S
Zn421 O426 1.996 . S
Zn421 O429 1.943 . S
O422 Zn421 1.962 . S
O422 C427 1.254 . S
O423 Zn420 2.031 . S
O423 C427 1.269 . S
O424 Zn421 1.986 . S
O424 C431 1.262 . S
O425 Zn420 2.049 . S
O425 C433 1.260 . S
O426 Zn421 1.996 . S
O426 C433 1.257 . S
C427 O422 1.254 . S
C427 O423 1.269 . S
C428 O429 1.249 . S
C428 O430 1.270 . S
O429 Zn421 1.943 . S
O429 C428 1.249 . S
O430 Zn420 2.067 . S
O430 C428 1.270 . S
C431 O424 1.262 . S
C431 O432 1.232 . S
O432 C431 1.232 . S
C433 O425 1.260 . S
C433 O426 1.257 . S
Zn434 O437 2.031 . S
Zn434 O439 2.049 . S
Zn434 O444 2.067 . S
Zn435 O436 1.962 . S
Zn435 O438 1.986 . S
Zn435 O440 1.996 . S
Zn435 O443 1.943 . S
O436 Zn435 1.962 . S
O436 C441 1.254 . S
O437 Zn434 2.031 . S
O437 C441 1.269 . S
O438 Zn435 1.986 . S
O438 C445 1.262 . S
O439 Zn434 2.049 . S
O439 C447 1.260 . S
O440 Zn435 1.996 . S
O440 C447 1.257 . S
C441 O436 1.254 . S
C441 O437 1.269 . S
C442 O443 1.249 . S
C442 O444 1.270 . S
O443 Zn435 1.943 . S
O443 C442 1.249 . S
O444 Zn434 2.067 . S
O444 C442 1.270 . S
C445 O438 1.262 . S
C445 O446 1.232 . S
O446 C445 1.232 . S
C447 O439 1.260 . S
C447 O440 1.257 . S
H448 C454 0.930 . S
H449 C457 0.930 . S
H450 C458 0.930 . S
H451 C459 0.930 . S
H452 C462 0.930 . S
H453 C463 0.930 . S
C454 H448 0.930 . S
C454 C455 1.355 . S
C454 C456 1.415 . S
C455 C454 1.355 . S
C455 C457 1.419 . S
C456 C454 1.415 . S
C456 C461 1.425 . S
C456 C463 1.409 . S
C457 H449 0.930 . S
C457 C455 1.419 . S
C457 C458 1.362 . S
C458 H450 0.930 . S
C458 C457 1.362 . S
C458 C461 1.409 . S
C459 H451 0.930 . S
C459 C460 1.355 . S
C459 C461 1.415 . S
C460 C459 1.355 . S
C460 C462 1.419 . S
C461 C456 1.425 . S
C461 C458 1.409 . S
C461 C459 1.415 . S
C462 H452 0.930 . S
C462 C460 1.419 . S
C462 C463 1.362 . S
C463 H453 0.930 . S
C463 C456 1.409 . S
C463 C462 1.362 . S
H464 C470 0.930 . S
H465 C473 0.930 . S
H466 C474 0.930 . S
H467 C475 0.930 . S
H468 C478 0.930 . S
H469 C479 0.930 . S
C470 H464 0.930 . S
C470 C471 1.355 . S
C470 C472 1.415 . S
C471 C470 1.355 . S
C471 C473 1.419 . S
C472 C470 1.415 . S
C472 C477 1.425 . S
C472 C479 1.409 . S
C473 H465 0.930 . S
C473 C471 1.419 . S
C473 C474 1.362 . S
C474 H466 0.930 . S
C474 C473 1.362 . S
C474 C477 1.409 . S
C475 H467 0.930 . S
C475 C476 1.355 . S
C475 C477 1.415 . S
C476 C475 1.355 . S
C476 C478 1.419 . S
C477 C472 1.425 . S
C477 C474 1.409 . S
C477 C475 1.415 . S
C478 H468 0.930 . S
C478 C476 1.419 . S
C478 C479 1.362 . S
C479 H469 0.930 . S
C479 C472 1.409 . S
C479 C478 1.362 . S
H480 C486 0.930 . S
H481 C489 0.930 . S
H482 C490 0.930 . S
H483 C491 0.930 . S
H484 C494 0.930 . S
H485 C495 0.930 . S
C486 H480 0.930 . S
C486 C487 1.355 . S
C486 C488 1.415 . S
C487 C486 1.355 . S
C487 C489 1.419 . S
C488 C486 1.415 . S
C488 C493 1.425 . S
C488 C495 1.409 . S
C489 H481 0.930 . S
C489 C487 1.419 . S
C489 C490 1.362 . S
C490 H482 0.930 . S
C490 C489 1.362 . S
C490 C493 1.409 . S
C491 H483 0.930 . S
C491 C492 1.355 . S
C491 C493 1.415 . S
C492 C491 1.355 . S
C492 C494 1.419 . S
C493 C488 1.425 . S
C493 C490 1.409 . S
C493 C491 1.415 . S
C494 H484 0.930 . S
C494 C492 1.419 . S
C494 C495 1.362 . S
C495 H485 0.930 . S
C495 C488 1.409 . S
C495 C494 1.362 . S
H496 C502 0.930 . S
H497 C505 0.930 . S
H498 C506 0.930 . S
H499 C507 0.930 . S
H500 C510 0.930 . S
H501 C511 0.930 . S
C502 H496 0.930 . S
C502 C503 1.355 . S
C502 C504 1.415 . S
C503 C502 1.355 . S
C503 C505 1.419 . S
C504 C502 1.415 . S
C504 C509 1.425 . S
C504 C511 1.409 . S
C505 H497 0.930 . S
C505 C503 1.419 . S
C505 C506 1.362 . S
C506 H498 0.930 . S
C506 C505 1.362 . S
C506 C509 1.409 . S
C507 H499 0.930 . S
C507 C508 1.355 . S
C507 C509 1.415 . S
C508 C507 1.355 . S
C508 C510 1.419 . S
C509 C504 1.425 . S
C509 C506 1.409 . S
C509 C507 1.415 . S
C510 H500 0.930 . S
C510 C508 1.419 . S
C510 C511 1.362 . S
C511 H501 0.930 . S
C511 C504 1.409 . S
C511 C510 1.362 . S
H512 C518 0.930 . S
H513 C521 0.930 . S
H514 C522 0.930 . S
H515 C523 0.930 . S
H516 C526 0.930 . S
H517 C527 0.930 . S
C518 H512 0.930 . S
C518 C519 1.355 . S
C518 C520 1.415 . S
C519 C518 1.355 . S
C519 C521 1.419 . S
C520 C518 1.415 . S
C520 C525 1.425 . S
C520 C527 1.409 . S
C521 H513 0.930 . S
C521 C519 1.419 . S
C521 C522 1.362 . S
C522 H514 0.930 . S
C522 C521 1.362 . S
C522 C525 1.409 . S
C523 H515 0.930 . S
C523 C524 1.355 . S
C523 C525 1.415 . S
C524 C523 1.355 . S
C524 C526 1.419 . S
C525 C520 1.425 . S
C525 C522 1.409 . S
C525 C523 1.415 . S
C526 H516 0.930 . S
C526 C524 1.419 . S
C526 C527 1.362 . S
C527 H517 0.930 . S
C527 C520 1.409 . S
C527 C526 1.362 . S
H528 C534 0.930 . S
H529 C537 0.930 . S
H530 C538 0.930 . S
H531 C539 0.930 . S
H532 C542 0.930 . S
H533 C543 0.930 . S
C534 H528 0.930 . S
C534 C535 1.355 . S
C534 C536 1.415 . S
C535 C534 1.355 . S
C535 C537 1.419 . S
C536 C534 1.415 . S
C536 C541 1.425 . S
C536 C543 1.409 . S
C537 H529 0.930 . S
C537 C535 1.419 . S
C537 C538 1.362 . S
C538 H530 0.930 . S
C538 C537 1.362 . S
C538 C541 1.409 . S
C539 H531 0.930 . S
C539 C540 1.355 . S
C539 C541 1.415 . S
C540 C539 1.355 . S
C540 C542 1.419 . S
C541 C536 1.425 . S
C541 C538 1.409 . S
C541 C539 1.415 . S
C542 H532 0.930 . S
C542 C540 1.419 . S
C542 C543 1.362 . S
C543 H533 0.930 . S
C543 C536 1.409 . S
C543 C542 1.362 . S
H544 C550 0.930 . S
H545 C553 0.930 . S
H546 C554 0.930 . S
H547 C555 0.930 . S
H548 C558 0.930 . S
H549 C559 0.930 . S
C550 H544 0.930 . S
C550 C551 1.355 . S
C550 C552 1.415 . S
C551 C550 1.355 . S
C551 C553 1.419 . S
C552 C550 1.415 . S
C552 C557 1.425 . S
C552 C559 1.409 . S
C553 H545 0.930 . S
C553 C551 1.419 . S
C553 C554 1.362 . S
C554 H546 0.930 . S
C554 C553 1.362 . S
C554 C557 1.409 . S
C555 H547 0.930 . S
C555 C556 1.355 . S
C555 C557 1.415 . S
C556 C555 1.355 . S
C556 C558 1.419 . S
C557 C552 1.425 . S
C557 C554 1.409 . S
C557 C555 1.415 . S
C558 H548 0.930 . S
C558 C556 1.419 . S
C558 C559 1.362 . S
C559 H549 0.930 . S
C559 C552 1.409 . S
C559 C558 1.362 . S
H560 C566 0.930 . S
H561 C569 0.930 . S
H562 C570 0.930 . S
H563 C571 0.930 . S
H564 C574 0.930 . S
H565 C575 0.930 . S
C566 H560 0.930 . S
C566 C567 1.355 . S
C566 C568 1.415 . S
C567 C566 1.355 . S
C567 C569 1.419 . S
C568 C566 1.415 . S
C568 C573 1.425 . S
C568 C575 1.409 . S
C569 H561 0.930 . S
C569 C567 1.419 . S
C569 C570 1.362 . S
C570 H562 0.930 . S
C570 C569 1.362 . S
C570 C573 1.409 . S
C571 H563 0.930 . S
C571 C572 1.355 . S
C571 C573 1.415 . S
C572 C571 1.355 . S
C572 C574 1.419 . S
C573 C568 1.425 . S
C573 C570 1.409 . S
C573 C571 1.415 . S
C574 H564 0.930 . S
C574 C572 1.419 . S
C574 C575 1.362 . S
C575 H565 0.930 . S
C575 C568 1.409 . S
C575 C574 1.362 . S
H576 C582 0.930 . S
H577 C585 0.930 . S
H578 C586 0.930 . S
H579 C587 0.930 . S
H580 C590 0.930 . S
H581 C591 0.930 . S
C582 H576 0.930 . S
C582 C583 1.355 . S
C582 C584 1.415 . S
C583 C582 1.355 . S
C583 C585 1.419 . S
C584 C582 1.415 . S
C584 C589 1.425 . S
C584 C591 1.409 . S
C585 H577 0.930 . S
C585 C583 1.419 . S
C585 C586 1.362 . S
C586 H578 0.930 . S
C586 C585 1.362 . S
C586 C589 1.409 . S
C587 H579 0.930 . S
C587 C588 1.355 . S
C587 C589 1.415 . S
C588 C587 1.355 . S
C588 C590 1.419 . S
C589 C584 1.425 . S
C589 C586 1.409 . S
C589 C587 1.415 . S
C590 H580 0.930 . S
C590 C588 1.419 . S
C590 C591 1.362 . S
C591 H581 0.930 . S
C591 C584 1.409 . S
C591 C590 1.362 . S
H592 C598 0.930 . S
H593 C601 0.930 . S
H594 C602 0.930 . S
H595 C603 0.930 . S
H596 C606 0.930 . S
H597 C607 0.930 . S
C598 H592 0.930 . S
C598 C599 1.355 . S
C598 C600 1.415 . S
C599 C598 1.355 . S
C599 C601 1.419 . S
C600 C598 1.415 . S
C600 C605 1.425 . S
C600 C607 1.409 . S
C601 H593 0.930 . S
C601 C599 1.419 . S
C601 C602 1.362 . S
C602 H594 0.930 . S
C602 C601 1.362 . S
C602 C605 1.409 . S
C603 H595 0.930 . S
C603 C604 1.355 . S
C603 C605 1.415 . S
C604 C603 1.355 . S
C604 C606 1.419 . S
C605 C600 1.425 . S
C605 C602 1.409 . S
C605 C603 1.415 . S
C606 H596 0.930 . S
C606 C604 1.419 . S
C606 C607 1.362 . S
C607 H597 0.930 . S
C607 C600 1.409 . S
C607 C606 1.362 . S
H608 C614 0.930 . S
H609 C617 0.930 . S
H610 C618 0.930 . S
H611 C619 0.930 . S
H612 C622 0.930 . S
H613 C623 0.930 . S
C614 H608 0.930 . S
C614 C615 1.355 . S
C614 C616 1.415 . S
C615 C614 1.355 . S
C615 C617 1.419 . S
C616 C614 1.415 . S
C616 C621 1.425 . S
C616 C623 1.409 . S
C617 H609 0.930 . S
C617 C615 1.419 . S
C617 C618 1.362 . S
C618 H610 0.930 . S
C618 C617 1.362 . S
C618 C621 1.409 . S
C619 H611 0.930 . S
C619 C620 1.355 . S
C619 C621 1.415 . S
C620 C619 1.355 . S
C620 C622 1.419 . S
C621 C616 1.425 . S
C621 C618 1.409 . S
C621 C619 1.415 . S
C622 H612 0.930 . S
C622 C620 1.419 . S
C622 C623 1.362 . S
C623 H613 0.930 . S
C623 C616 1.409 . S
C623 C622 1.362 . S
H624 C630 0.930 . S
H625 C633 0.930 . S
H626 C634 0.930 . S
H627 C635 0.930 . S
H628 C638 0.930 . S
H629 C639 0.930 . S
C630 H624 0.930 . S
C630 C631 1.355 . S
C630 C632 1.415 . S
C631 C630 1.355 . S
C631 C633 1.419 . S
C632 C630 1.415 . S
C632 C637 1.425 . S
C632 C639 1.409 . S
C633 H625 0.930 . S
C633 C631 1.419 . S
C633 C634 1.362 . S
C634 H626 0.930 . S
C634 C633 1.362 . S
C634 C637 1.409 . S
C635 H627 0.930 . S
C635 C636 1.355 . S
C635 C637 1.415 . S
C636 C635 1.355 . S
C636 C638 1.419 . S
C637 C632 1.425 . S
C637 C634 1.409 . S
C637 C635 1.415 . S
C638 H628 0.930 . S
C638 C636 1.419 . S
C638 C639 1.362 . S
C639 H629 0.930 . S
C639 C632 1.409 . S
C639 C638 1.362 . S
H640 C646 0.930 . S
H641 C649 0.930 . S
H642 C650 0.930 . S
H643 C651 0.930 . S
H644 C654 0.930 . S
H645 C655 0.930 . S
C646 H640 0.930 . S
C646 C647 1.355 . S
C646 C648 1.415 . S
C647 C646 1.355 . S
C647 C649 1.419 . S
C648 C646 1.415 . S
C648 C653 1.425 . S
C648 C655 1.409 . S
C649 H641 0.930 . S
C649 C647 1.419 . S
C649 C650 1.362 . S
C650 H642 0.930 . S
C650 C649 1.362 . S
C650 C653 1.409 . S
C651 H643 0.930 . S
C651 C652 1.355 . S
C651 C653 1.415 . S
C652 C651 1.355 . S
C652 C654 1.419 . S
C653 C648 1.425 . S
C653 C650 1.409 . S
C653 C651 1.415 . S
C654 H644 0.930 . S
C654 C652 1.419 . S
C654 C655 1.362 . S
C655 H645 0.930 . S
C655 C648 1.409 . S
C655 C654 1.362 . S
H656 C662 0.930 . S
H657 C665 0.930 . S
H658 C666 0.930 . S
H659 C667 0.930 . S
H660 C670 0.930 . S
H661 C671 0.930 . S
C662 H656 0.930 . S
C662 C663 1.355 . S
C662 C664 1.415 . S
C663 C662 1.355 . S
C663 C665 1.419 . S
C664 C662 1.415 . S
C664 C669 1.425 . S
C664 C671 1.409 . S
C665 H657 0.930 . S
C665 C663 1.419 . S
C665 C666 1.362 . S
C666 H658 0.930 . S
C666 C665 1.362 . S
C666 C669 1.409 . S
C667 H659 0.930 . S
C667 C668 1.355 . S
C667 C669 1.415 . S
C668 C667 1.355 . S
C668 C670 1.419 . S
C669 C664 1.425 . S
C669 C666 1.409 . S
C669 C667 1.415 . S
C670 H660 0.930 . S
C670 C668 1.419 . S
C670 C671 1.362 . S
C671 H661 0.930 . S
C671 C664 1.409 . S
C671 C670 1.362 . S
H672 C678 0.930 . S
H673 C681 0.930 . S
H674 C682 0.930 . S
H675 C683 0.930 . S
H676 C686 0.930 . S
H677 C687 0.930 . S
C678 H672 0.930 . S
C678 C679 1.355 . S
C678 C680 1.415 . S
C679 C678 1.355 . S
C679 C681 1.419 . S
C680 C678 1.415 . S
C680 C685 1.425 . S
C680 C687 1.409 . S
C681 H673 0.930 . S
C681 C679 1.419 . S
C681 C682 1.362 . S
C682 H674 0.930 . S
C682 C681 1.362 . S
C682 C685 1.409 . S
C683 H675 0.930 . S
C683 C684 1.355 . S
C683 C685 1.415 . S
C684 C683 1.355 . S
C684 C686 1.419 . S
C685 C680 1.425 . S
C685 C682 1.409 . S
C685 C683 1.415 . S
C686 H676 0.930 . S
C686 C684 1.419 . S
C686 C687 1.362 . S
C687 H677 0.930 . S
C687 C680 1.409 . S
C687 C686 1.362 . S
H688 C694 0.930 . S
H689 C697 0.930 . S
H690 C698 0.930 . S
H691 C699 0.930 . S
H692 C702 0.930 . S
H693 C703 0.930 . S
C694 H688 0.930 . S
C694 C695 1.355 . S
C694 C696 1.415 . S
C695 C694 1.355 . S
C695 C697 1.419 . S
C696 C694 1.415 . S
C696 C701 1.425 . S
C696 C703 1.409 . S
C697 H689 0.930 . S
C697 C695 1.419 . S
C697 C698 1.362 . S
C698 H690 0.930 . S
C698 C697 1.362 . S
C698 C701 1.409 . S
C699 H691 0.930 . S
C699 C700 1.355 . S
C699 C701 1.415 . S
C700 C699 1.355 . S
C700 C702 1.419 . S
C701 C696 1.425 . S
C701 C698 1.409 . S
C701 C699 1.415 . S
C702 H692 0.930 . S
C702 C700 1.419 . S
C702 C703 1.362 . S
C703 H693 0.930 . S
C703 C696 1.409 . S
C703 C702 1.362 . S
H704 C710 0.930 . S
H705 C713 0.930 . S
H706 C714 0.930 . S
H707 C715 0.930 . S
H708 C718 0.930 . S
H709 C719 0.930 . S
C710 H704 0.930 . S
C710 C711 1.355 . S
C710 C712 1.415 . S
C711 C710 1.355 . S
C711 C713 1.419 . S
C712 C710 1.415 . S
C712 C717 1.425 . S
C712 C719 1.409 . S
C713 H705 0.930 . S
C713 C711 1.419 . S
C713 C714 1.362 . S
C714 H706 0.930 . S
C714 C713 1.362 . S
C714 C717 1.409 . S
C715 H707 0.930 . S
C715 C716 1.355 . S
C715 C717 1.415 . S
C716 C715 1.355 . S
C716 C718 1.419 . S
C717 C712 1.425 . S
C717 C714 1.409 . S
C717 C715 1.415 . S
C718 H708 0.930 . S
C718 C716 1.419 . S
C718 C719 1.362 . S
C719 H709 0.930 . S
C719 C712 1.409 . S
C719 C718 1.362 . S
H720 C726 0.930 . S
H721 C729 0.930 . S
H722 C730 0.930 . S
H723 C731 0.930 . S
H724 C734 0.930 . S
H725 C735 0.930 . S
C726 H720 0.930 . S
C726 C727 1.355 . S
C726 C728 1.415 . S
C727 C726 1.355 . S
C727 C729 1.419 . S
C728 C726 1.415 . S
C728 C733 1.425 . S
C728 C735 1.409 . S
C729 H721 0.930 . S
C729 C727 1.419 . S
C729 C730 1.362 . S
C730 H722 0.930 . S
C730 C729 1.362 . S
C730 C733 1.409 . S
C731 H723 0.930 . S
C731 C732 1.355 . S
C731 C733 1.415 . S
C732 C731 1.355 . S
C732 C734 1.419 . S
C733 C728 1.425 . S
C733 C730 1.409 . S
C733 C731 1.415 . S
C734 H724 0.930 . S
C734 C732 1.419 . S
C734 C735 1.362 . S
C735 H725 0.930 . S
C735 C728 1.409 . S
C735 C734 1.362 . S
H736 C742 0.930 . S
H737 C745 0.930 . S
H738 C746 0.930 . S
H739 C747 0.930 . S
H740 C750 0.930 . S
H741 C751 0.930 . S
C742 H736 0.930 . S
C742 C743 1.355 . S
C742 C744 1.415 . S
C743 C742 1.355 . S
C743 C745 1.419 . S
C744 C742 1.415 . S
C744 C749 1.425 . S
C744 C751 1.409 . S
C745 H737 0.930 . S
C745 C743 1.419 . S
C745 C746 1.362 . S
C746 H738 0.930 . S
C746 C745 1.362 . S
C746 C749 1.409 . S
C747 H739 0.930 . S
C747 C748 1.355 . S
C747 C749 1.415 . S
C748 C747 1.355 . S
C748 C750 1.419 . S
C749 C744 1.425 . S
C749 C746 1.409 . S
C749 C747 1.415 . S
C750 H740 0.930 . S
C750 C748 1.419 . S
C750 C751 1.362 . S
C751 H741 0.930 . S
C751 C744 1.409 . S
C751 C750 1.362 . S
H752 C758 0.930 . S
H753 C761 0.930 . S
H754 C762 0.930 . S
H755 C763 0.930 . S
H756 C766 0.930 . S
H757 C767 0.930 . S
C758 H752 0.930 . S
C758 C759 1.355 . S
C758 C760 1.415 . S
C759 C758 1.355 . S
C759 C761 1.419 . S
C760 C758 1.415 . S
C760 C765 1.425 . S
C760 C767 1.409 . S
C761 H753 0.930 . S
C761 C759 1.419 . S
C761 C762 1.362 . S
C762 H754 0.930 . S
C762 C761 1.362 . S
C762 C765 1.409 . S
C763 H755 0.930 . S
C763 C764 1.355 . S
C763 C765 1.415 . S
C764 C763 1.355 . S
C764 C766 1.419 . S
C765 C760 1.425 . S
C765 C762 1.409 . S
C765 C763 1.415 . S
C766 H756 0.930 . S
C766 C764 1.419 . S
C766 C767 1.362 . S
C767 H757 0.930 . S
C767 C760 1.409 . S
C767 C766 1.362 . S
H768 C774 0.930 . S
H769 C777 0.930 . S
H770 C778 0.930 . S
H771 C779 0.930 . S
H772 C782 0.930 . S
H773 C783 0.930 . S
C774 H768 0.930 . S
C774 C775 1.355 . S
C774 C776 1.415 . S
C775 C774 1.355 . S
C775 C777 1.419 . S
C776 C774 1.415 . S
C776 C781 1.425 . S
C776 C783 1.409 . S
C777 H769 0.930 . S
C777 C775 1.419 . S
C777 C778 1.362 . S
C778 H770 0.930 . S
C778 C777 1.362 . S
C778 C781 1.409 . S
C779 H771 0.930 . S
C779 C780 1.355 . S
C779 C781 1.415 . S
C780 C779 1.355 . S
C780 C782 1.419 . S
C781 C776 1.425 . S
C781 C778 1.409 . S
C781 C779 1.415 . S
C782 H772 0.930 . S
C782 C780 1.419 . S
C782 C783 1.362 . S
C783 H773 0.930 . S
C783 C776 1.409 . S
C783 C782 1.362 . S
H784 C790 0.930 . S
H785 C793 0.930 . S
H786 C794 0.930 . S
H787 C795 0.930 . S
H788 C798 0.930 . S
H789 C799 0.930 . S
C790 H784 0.930 . S
C790 C791 1.355 . S
C790 C792 1.415 . S
C791 C790 1.355 . S
C791 C793 1.419 . S
C792 C790 1.415 . S
C792 C797 1.425 . S
C792 C799 1.409 . S
C793 H785 0.930 . S
C793 C791 1.419 . S
C793 C794 1.362 . S
C794 H786 0.930 . S
C794 C793 1.362 . S
C794 C797 1.409 . S
C795 H787 0.930 . S
C795 C796 1.355 . S
C795 C797 1.415 . S
C796 C795 1.355 . S
C796 C798 1.419 . S
C797 C792 1.425 . S
C797 C794 1.409 . S
C797 C795 1.415 . S
C798 H788 0.930 . S
C798 C796 1.419 . S
C798 C799 1.362 . S
C799 H789 0.930 . S
C799 C792 1.409 . S
C799 C798 1.362 . S
H800 C806 0.930 . S
H801 C809 0.930 . S
H802 C810 0.930 . S
H803 C811 0.930 . S
H804 C814 0.930 . S
H805 C815 0.930 . S
C806 H800 0.930 . S
C806 C807 1.355 . S
C806 C808 1.415 . S
C807 C806 1.355 . S
C807 C809 1.419 . S
C808 C806 1.415 . S
C808 C813 1.425 . S
C808 C815 1.409 . S
C809 H801 0.930 . S
C809 C807 1.419 . S
C809 C810 1.362 . S
C810 H802 0.930 . S
C810 C809 1.362 . S
C810 C813 1.409 . S
C811 H803 0.930 . S
C811 C812 1.355 . S
C811 C813 1.415 . S
C812 C811 1.355 . S
C812 C814 1.419 . S
C813 C808 1.425 . S
C813 C810 1.409 . S
C813 C811 1.415 . S
C814 H804 0.930 . S
C814 C812 1.419 . S
C814 C815 1.362 . S
C815 H805 0.930 . S
C815 C808 1.409 . S
C815 C814 1.362 . S
H816 C822 0.930 . S
H817 C825 0.930 . S
H818 C826 0.930 . S
H819 C827 0.930 . S
H820 C830 0.930 . S
H821 C831 0.930 . S
C822 H816 0.930 . S
C822 C823 1.355 . S
C822 C824 1.415 . S
C823 C822 1.355 . S
C823 C825 1.419 . S
C824 C822 1.415 . S
C824 C829 1.425 . S
C824 C831 1.409 . S
C825 H817 0.930 . S
C825 C823 1.419 . S
C825 C826 1.362 . S
C826 H818 0.930 . S
C826 C825 1.362 . S
C826 C829 1.409 . S
C827 H819 0.930 . S
C827 C828 1.355 . S
C827 C829 1.415 . S
C828 C827 1.355 . S
C828 C830 1.419 . S
C829 C824 1.425 . S
C829 C826 1.409 . S
C829 C827 1.415 . S
C830 H820 0.930 . S
C830 C828 1.419 . S
C830 C831 1.362 . S
C831 H821 0.930 . S
C831 C824 1.409 . S
C831 C830 1.362 . S
H832 C838 0.930 . S
H833 C841 0.930 . S
H834 C842 0.930 . S
H835 C843 0.930 . S
H836 C846 0.930 . S
H837 C847 0.930 . S
C838 H832 0.930 . S
C838 C839 1.355 . S
C838 C840 1.415 . S
C839 C838 1.355 . S
C839 C841 1.419 . S
C840 C838 1.415 . S
C840 C845 1.425 . S
C840 C847 1.409 . S
C841 H833 0.930 . S
C841 C839 1.419 . S
C841 C842 1.362 . S
C842 H834 0.930 . S
C842 C841 1.362 . S
C842 C845 1.409 . S
C843 H835 0.930 . S
C843 C844 1.355 . S
C843 C845 1.415 . S
C844 C843 1.355 . S
C844 C846 1.419 . S
C845 C840 1.425 . S
C845 C842 1.409 . S
C845 C843 1.415 . S
C846 H836 0.930 . S
C846 C844 1.419 . S
C846 C847 1.362 . S
C847 H837 0.930 . S
C847 C840 1.409 . S
C847 C846 1.362 . S
H848 C854 0.930 . S
H849 C857 0.930 . S
H850 C858 0.930 . S
H851 C859 0.930 . S
H852 C862 0.930 . S
H853 C863 0.930 . S
C854 H848 0.930 . S
C854 C855 1.355 . S
C854 C856 1.415 . S
C855 C854 1.355 . S
C855 C857 1.419 . S
C856 C854 1.415 . S
C856 C861 1.425 . S
C856 C863 1.409 . S
C857 H849 0.930 . S
C857 C855 1.419 . S
C857 C858 1.362 . S
C858 H850 0.930 . S
C858 C857 1.362 . S
C858 C861 1.409 . S
C859 H851 0.930 . S
C859 C860 1.355 . S
C859 C861 1.415 . S
C860 C859 1.355 . S
C860 C862 1.419 . S
C861 C856 1.425 . S
C861 C858 1.409 . S
C861 C859 1.415 . S
C862 H852 0.930 . S
C862 C860 1.419 . S
C862 C863 1.362 . S
C863 H853 0.930 . S
C863 C856 1.409 . S
C863 C862 1.362 . S
H864 C870 0.930 . S
H865 C873 0.930 . S
H866 C874 0.930 . S
H867 C875 0.930 . S
H868 C878 0.930 . S
H869 C879 0.930 . S
C870 H864 0.930 . S
C870 C871 1.355 . S
C870 C872 1.415 . S
C871 C870 1.355 . S
C871 C873 1.419 . S
C872 C870 1.415 . S
C872 C877 1.425 . S
C872 C879 1.409 . S
C873 H865 0.930 . S
C873 C871 1.419 . S
C873 C874 1.362 . S
C874 H866 0.930 . S
C874 C873 1.362 . S
C874 C877 1.409 . S
C875 H867 0.930 . S
C875 C876 1.355 . S
C875 C877 1.415 . S
C876 C875 1.355 . S
C876 C878 1.419 . S
C877 C872 1.425 . S
C877 C874 1.409 . S
C877 C875 1.415 . S
C878 H868 0.930 . S
C878 C876 1.419 . S
C878 C879 1.362 . S
C879 H869 0.930 . S
C879 C872 1.409 . S
C879 C878 1.362 . S
H880 C886 0.930 . S
H881 C889 0.930 . S
H882 C890 0.930 . S
H883 C891 0.930 . S
H884 C894 0.930 . S
H885 C895 0.930 . S
C886 H880 0.930 . S
C886 C887 1.355 . S
C886 C888 1.415 . S
C887 C886 1.355 . S
C887 C889 1.419 . S
C888 C886 1.415 . S
C888 C893 1.425 . S
C888 C895 1.409 . S
C889 H881 0.930 . S
C889 C887 1.419 . S
C889 C890 1.362 . S
C890 H882 0.930 . S
C890 C889 1.362 . S
C890 C893 1.409 . S
C891 H883 0.930 . S
C891 C892 1.355 . S
C891 C893 1.415 . S
C892 C891 1.355 . S
C892 C894 1.419 . S
C893 C888 1.425 . S
C893 C890 1.409 . S
C893 C891 1.415 . S
C894 H884 0.930 . S
C894 C892 1.419 . S
C894 C895 1.362 . S
C895 H885 0.930 . S
C895 C888 1.409 . S
C895 C894 1.362 . S
H896 C902 0.930 . S
H897 C905 0.930 . S
H898 C906 0.930 . S
H899 C907 0.930 . S
H900 C910 0.930 . S
H901 C911 0.930 . S
C902 H896 0.930 . S
C902 C903 1.355 . S
C902 C904 1.415 . S
C903 C902 1.355 . S
C903 C905 1.419 . S
C904 C902 1.415 . S
C904 C909 1.425 . S
C904 C911 1.409 . S
C905 H897 0.930 . S
C905 C903 1.419 . S
C905 C906 1.362 . S
C906 H898 0.930 . S
C906 C905 1.362 . S
C906 C909 1.409 . S
C907 H899 0.930 . S
C907 C908 1.355 . S
C907 C909 1.415 . S
C908 C907 1.355 . S
C908 C910 1.419 . S
C909 C904 1.425 . S
C909 C906 1.409 . S
C909 C907 1.415 . S
C910 H900 0.930 . S
C910 C908 1.419 . S
C910 C911 1.362 . S
C911 H901 0.930 . S
C911 C904 1.409 . S
C911 C910 1.362 . S
H912 C918 0.930 . S
H913 C921 0.930 . S
H914 C922 0.930 . S
H915 C923 0.930 . S
H916 C926 0.930 . S
H917 C927 0.930 . S
C918 H912 0.930 . S
C918 C919 1.355 . S
C918 C920 1.415 . S
C919 C918 1.355 . S
C919 C921 1.419 . S
C920 C918 1.415 . S
C920 C925 1.425 . S
C920 C927 1.409 . S
C921 H913 0.930 . S
C921 C919 1.419 . S
C921 C922 1.362 . S
C922 H914 0.930 . S
C922 C921 1.362 . S
C922 C925 1.409 . S
C923 H915 0.930 . S
C923 C924 1.355 . S
C923 C925 1.415 . S
C924 C923 1.355 . S
C924 C926 1.419 . S
C925 C920 1.425 . S
C925 C922 1.409 . S
C925 C923 1.415 . S
C926 H916 0.930 . S
C926 C924 1.419 . S
C926 C927 1.362 . S
C927 H917 0.930 . S
C927 C920 1.409 . S
C927 C926 1.362 . S
H928 C934 0.930 . S
H929 C937 0.930 . S
H930 C938 0.930 . S
H931 C939 0.930 . S
H932 C942 0.930 . S
H933 C943 0.930 . S
C934 H928 0.930 . S
C934 C935 1.355 . S
C934 C936 1.415 . S
C935 C934 1.355 . S
C935 C937 1.419 . S
C936 C934 1.415 . S
C936 C941 1.425 . S
C936 C943 1.409 . S
C937 H929 0.930 . S
C937 C935 1.419 . S
C937 C938 1.362 . S
C938 H930 0.930 . S
C938 C937 1.362 . S
C938 C941 1.409 . S
C939 H931 0.930 . S
C939 C940 1.355 . S
C939 C941 1.415 . S
C940 C939 1.355 . S
C940 C942 1.419 . S
C941 C936 1.425 . S
C941 C938 1.409 . S
C941 C939 1.415 . S
C942 H932 0.930 . S
C942 C940 1.419 . S
C942 C943 1.362 . S
C943 H933 0.930 . S
C943 C936 1.409 . S
C943 C942 1.362 . S
H944 C950 0.930 . S
H945 C953 0.930 . S
H946 C954 0.930 . S
H947 C955 0.930 . S
H948 C958 0.930 . S
H949 C959 0.930 . S
C950 H944 0.930 . S
C950 C951 1.355 . S
C950 C952 1.415 . S
C951 C950 1.355 . S
C951 C953 1.419 . S
C952 C950 1.415 . S
C952 C957 1.425 . S
C952 C959 1.409 . S
C953 H945 0.930 . S
C953 C951 1.419 . S
C953 C954 1.362 . S
C954 H946 0.930 . S
C954 C953 1.362 . S
C954 C957 1.409 . S
C955 H947 0.930 . S
C955 C956 1.355 . S
C955 C957 1.415 . S
C956 C955 1.355 . S
C956 C958 1.419 . S
C957 C952 1.425 . S
C957 C954 1.409 . S
C957 C955 1.415 . S
C958 H948 0.930 . S
C958 C956 1.419 . S
C958 C959 1.362 . S
C959 H949 0.930 . S
C959 C952 1.409 . S
C959 C958 1.362 . S
H960 C966 0.930 . S
H961 C969 0.930 . S
H962 C970 0.930 . S
H963 C971 0.930 . S
H964 C974 0.930 . S
H965 C975 0.930 . S
C966 H960 0.930 . S
C966 C967 1.355 . S
C966 C968 1.415 . S
C967 C966 1.355 . S
C967 C969 1.419 . S
C968 C966 1.415 . S
C968 C973 1.425 . S
C968 C975 1.409 . S
C969 H961 0.930 . S
C969 C967 1.419 . S
C969 C970 1.362 . S
C970 H962 0.930 . S
C970 C969 1.362 . S
C970 C973 1.409 . S
C971 H963 0.930 . S
C971 C972 1.355 . S
C971 C973 1.415 . S
C972 C971 1.355 . S
C972 C974 1.419 . S
C973 C968 1.425 . S
C973 C970 1.409 . S
C973 C971 1.415 . S
C974 H964 0.930 . S
C974 C972 1.419 . S
C974 C975 1.362 . S
C975 H965 0.930 . S
C975 C968 1.409 . S
C975 C974 1.362 . S
H976 C982 0.930 . S
H977 C985 0.930 . S
H978 C986 0.930 . S
H979 C987 0.930 . S
H980 C990 0.930 . S
H981 C991 0.930 . S
C982 H976 0.930 . S
C982 C983 1.355 . S
C982 C984 1.415 . S
C983 C982 1.355 . S
C983 C985 1.419 1_655 S
C984 C982 1.415 . S
C984 C989 1.425 1_665 S
C984 C991 1.409 1_565 S
C985 H977 0.930 . S
C985 C983 1.419 1_455 S
C985 C986 1.362 . S
C986 H978 0.930 . S
C986 C985 1.362 . S
C986 C989 1.409 1_565 S
C987 H979 0.930 . S
C987 C988 1.355 . S
C987 C989 1.415 . S
C988 C987 1.355 . S
C988 C990 1.419 1_455 S
C989 C984 1.425 1_445 S
C989 C986 1.409 1_545 S
C989 C987 1.415 . S
C990 H980 0.930 . S
C990 C988 1.419 1_655 S
C990 C991 1.362 . S
C991 H981 0.930 . S
C991 C984 1.409 1_545 S
C991 C990 1.362 . S
H992 C998 0.930 . S
H993 C1001 0.930 . S
H994 C1002 0.930 . S
H995 C1003 0.930 . S
H996 C1006 0.930 . S
H997 C1007 0.930 . S
C998 H992 0.930 . S
C998 C999 1.355 . S
C998 C1000 1.415 . S
C999 C998 1.355 . S
C999 C1001 1.419 . S
C1000 C998 1.415 . S
C1000 C1005 1.425 . S
C1000 C1007 1.409 . S
C1001 H993 0.930 . S
C1001 C999 1.419 . S
C1001 C1002 1.362 . S
C1002 H994 0.930 . S
C1002 C1001 1.362 . S
C1002 C1005 1.409 . S
C1003 H995 0.930 . S
C1003 C1004 1.355 . S
C1003 C1005 1.415 . S
C1004 C1003 1.355 . S
C1004 C1006 1.419 . S
C1005 C1000 1.425 . S
C1005 C1002 1.409 . S
C1005 C1003 1.415 . S
C1006 H996 0.930 . S
C1006 C1004 1.419 . S
C1006 C1007 1.362 . S
C1007 H997 0.930 . S
C1007 C1000 1.409 . S
C1007 C1006 1.362 . S
H1008 C1014 0.930 . S
H1009 C1017 0.930 . S
H1010 C1018 0.924 1_565 S
H1011 C1019 0.930 . S
H1012 C1022 0.930 . S
H1013 C1023 0.924 1_545 S
C1014 H1008 0.930 . S
C1014 C1015 1.355 . S
C1014 C1016 1.415 . S
C1015 C1014 1.355 . S
C1015 C1017 1.419 . S
C1016 C1014 1.415 . S
C1016 C1021 1.425 1_544 S
C1016 C1023 1.409 1_545 S
C1017 H1009 0.930 . S
C1017 C1015 1.419 . S
C1017 C1018 1.362 1_554 S
C1018 H1010 0.924 1_545 S
C1018 C1017 1.362 1_556 S
C1018 C1021 1.409 1_545 S
C1019 H1011 0.930 . S
C1019 C1020 1.355 . S
C1019 C1021 1.415 . S
C1020 C1019 1.355 . S
C1020 C1022 1.419 . S
C1021 C1016 1.425 1_566 S
C1021 C1018 1.409 1_565 S
C1021 C1019 1.415 . S
C1022 H1012 0.930 . S
C1022 C1020 1.419 . S
C1022 C1023 1.362 1_556 S
C1023 H1013 0.924 1_565 S
C1023 C1016 1.409 1_565 S
C1023 C1022 1.362 1_554 S
H1024 C1030 0.930 . S
H1025 C1033 0.930 . S
H1026 C1034 0.930 . S
H1027 C1035 0.930 . S
H1028 C1038 0.930 . S
H1029 C1039 0.930 . S
C1030 H1024 0.930 . S
C1030 C1031 1.355 . S
C1030 C1032 1.415 . S
C1031 C1030 1.355 . S
C1031 C1033 1.419 . S
C1032 C1030 1.415 . S
C1032 C1037 1.425 . S
C1032 C1039 1.409 . S
C1033 H1025 0.930 . S
C1033 C1031 1.419 . S
C1033 C1034 1.362 . S
C1034 H1026 0.930 . S
C1034 C1033 1.362 . S
C1034 C1037 1.409 . S
C1035 H1027 0.930 . S
C1035 C1036 1.355 . S
C1035 C1037 1.415 . S
C1036 C1035 1.355 . S
C1036 C1038 1.419 . S
C1037 C1032 1.425 . S
C1037 C1034 1.409 . S
C1037 C1035 1.415 . S
C1038 H1028 0.930 . S
C1038 C1036 1.419 . S
C1038 C1039 1.362 . S
C1039 H1029 0.930 . S
C1039 C1032 1.409 . S
C1039 C1038 1.362 . S
H1040 C1046 0.930 . S
H1041 C1049 0.930 . S
H1042 C1050 0.913 1_545 S
H1043 C1051 0.930 . S
H1044 C1054 0.930 . S
H1045 C1055 0.913 1_565 S
C1046 H1040 0.930 . S
C1046 C1047 1.355 . S
C1046 C1048 1.415 . S
C1047 C1046 1.355 . S
C1047 C1049 1.419 . S
C1048 C1046 1.415 . S
C1048 C1053 1.425 1_565 S
C1048 C1055 1.409 1_565 S
C1049 H1041 0.930 . S
C1049 C1047 1.419 . S
C1049 C1050 1.362 . S
C1050 H1042 0.913 1_565 S
C1050 C1049 1.362 . S
C1050 C1053 1.409 1_565 S
C1051 H1043 0.930 . S
C1051 C1052 1.355 . S
C1051 C1053 1.415 . S
C1052 C1051 1.355 . S
C1052 C1054 1.419 . S
C1053 C1048 1.425 1_545 S
C1053 C1050 1.409 1_545 S
C1053 C1051 1.415 . S
C1054 H1044 0.930 . S
C1054 C1052 1.419 . S
C1054 C1055 1.362 . S
C1055 H1045 0.913 1_545 S
C1055 C1048 1.409 1_545 S
C1055 C1054 1.362 . S
H1056 C1062 0.930 . S
H1057 C1065 0.930 . S
H1058 C1066 0.930 . S
H1059 C1067 0.930 . S
H1060 C1070 0.930 . S
H1061 C1071 0.930 . S
C1062 H1056 0.930 . S
C1062 C1063 1.355 . S
C1062 C1064 1.415 . S
C1063 C1062 1.355 . S
C1063 C1065 1.419 . S
C1064 C1062 1.415 . S
C1064 C1069 1.425 . S
C1064 C1071 1.409 . S
C1065 H1057 0.930 . S
C1065 C1063 1.419 . S
C1065 C1066 1.362 . S
C1066 H1058 0.930 . S
C1066 C1065 1.362 . S
C1066 C1069 1.409 . S
C1067 H1059 0.930 . S
C1067 C1068 1.355 . S
C1067 C1069 1.415 . S
C1068 C1067 1.355 . S
C1068 C1070 1.419 . S
C1069 C1064 1.425 . S
C1069 C1066 1.409 . S
C1069 C1067 1.415 . S
C1070 H1060 0.930 . S
C1070 C1068 1.419 . S
C1070 C1071 1.362 . S
C1071 H1061 0.930 . S
C1071 C1064 1.409 . S
C1071 C1070 1.362 . S
H1072 C1078 0.930 . S
H1073 C1081 0.930 . S
H1074 C1082 0.930 . S
H1075 C1083 0.930 . S
H1076 C1086 0.930 . S
H1077 C1087 0.930 . S
C1078 H1072 0.930 . S
C1078 C1079 1.355 . S
C1078 C1080 1.415 . S
C1079 C1078 1.355 . S
C1079 C1081 1.419 1_656 S
C1080 C1078 1.415 . S
C1080 C1085 1.425 1_646 S
C1080 C1087 1.409 1_545 S
C1081 H1073 0.930 . S
C1081 C1079 1.419 1_454 S
C1081 C1082 1.362 . S
C1082 H1074 0.930 . S
C1082 C1081 1.362 . S
C1082 C1085 1.409 1_545 S
C1083 H1075 0.930 . S
C1083 C1084 1.355 . S
C1083 C1085 1.415 . S
C1084 C1083 1.355 . S
C1084 C1086 1.419 1_454 S
C1085 C1080 1.425 1_464 S
C1085 C1082 1.409 1_565 S
C1085 C1083 1.415 . S
C1086 H1076 0.930 . S
C1086 C1084 1.419 1_656 S
C1086 C1087 1.362 . S
C1087 H1077 0.930 . S
C1087 C1080 1.409 1_565 S
C1087 C1086 1.362 . S
H1088 C1094 0.930 . S
H1089 C1097 0.930 . S
H1090 C1098 0.930 . S
H1091 C1099 0.930 . S
H1092 C1102 0.930 . S
H1093 C1103 0.930 . S
C1094 H1088 0.930 . S
C1094 C1095 1.355 . S
C1094 C1096 1.415 . S
C1095 C1094 1.355 . S
C1095 C1097 1.419 . S
C1096 C1094 1.415 . S
C1096 C1101 1.425 . S
C1096 C1103 1.409 . S
C1097 H1089 0.930 . S
C1097 C1095 1.419 . S
C1097 C1098 1.362 . S
C1098 H1090 0.930 . S
C1098 C1097 1.362 . S
C1098 C1101 1.409 . S
C1099 H1091 0.930 . S
C1099 C1100 1.355 . S
C1099 C1101 1.415 . S
C1100 C1099 1.355 . S
C1100 C1102 1.419 . S
C1101 C1096 1.425 . S
C1101 C1098 1.409 . S
C1101 C1099 1.415 . S
C1102 H1092 0.930 . S
C1102 C1100 1.419 . S
C1102 C1103 1.362 . S
C1103 H1093 0.930 . S
C1103 C1096 1.409 . S
C1103 C1102 1.362 . S
H1104 C1110 0.930 . S
H1105 C1113 0.930 . S
H1106 C1114 0.930 . S
H1107 C1115 0.930 . S
H1108 C1118 0.930 . S
H1109 C1119 0.930 . S
C1110 H1104 0.930 . S
C1110 C1111 1.355 . S
C1110 C1112 1.415 . S
C1111 C1110 1.355 . S
C1111 C1113 1.419 . S
C1112 C1110 1.415 . S
C1112 C1117 1.425 . S
C1112 C1119 1.409 . S
C1113 H1105 0.930 . S
C1113 C1111 1.419 . S
C1113 C1114 1.362 . S
C1114 H1106 0.930 . S
C1114 C1113 1.362 . S
C1114 C1117 1.409 . S
C1115 H1107 0.930 . S
C1115 C1116 1.355 . S
C1115 C1117 1.415 . S
C1116 C1115 1.355 . S
C1116 C1118 1.419 . S
C1117 C1112 1.425 . S
C1117 C1114 1.409 . S
C1117 C1115 1.415 . S
C1118 H1108 0.930 . S
C1118 C1116 1.419 . S
C1118 C1119 1.362 . S
C1119 H1109 0.930 . S
C1119 C1112 1.409 . S
C1119 C1118 1.362 . S
H1120 C1126 0.930 . S
H1121 C1129 0.930 . S
H1122 C1130 0.930 . S
H1123 C1131 0.930 . S
H1124 C1134 0.930 . S
H1125 C1135 0.930 . S
C1126 H1120 0.930 . S
C1126 C1127 1.355 . S
C1126 C1128 1.415 . S
C1127 C1126 1.355 . S
C1127 C1129 1.419 . S
C1128 C1126 1.415 . S
C1128 C1133 1.425 . S
C1128 C1135 1.409 . S
C1129 H1121 0.930 . S
C1129 C1127 1.419 . S
C1129 C1130 1.362 . S
C1130 H1122 0.930 . S
C1130 C1129 1.362 . S
C1130 C1133 1.409 . S
C1131 H1123 0.930 . S
C1131 C1132 1.355 . S
C1131 C1133 1.415 . S
C1132 C1131 1.355 . S
C1132 C1134 1.419 . S
C1133 C1128 1.425 . S
C1133 C1130 1.409 . S
C1133 C1131 1.415 . S
C1134 H1124 0.930 . S
C1134 C1132 1.419 . S
C1134 C1135 1.362 . S
C1135 H1125 0.930 . S
C1135 C1128 1.409 . S
C1135 C1134 1.362 . S
H1136 C1142 0.930 . S
H1137 C1145 0.930 . S
H1138 C1146 0.930 . S
H1139 C1147 0.930 . S
H1140 C1150 0.930 . S
H1141 C1151 0.930 . S
C1142 H1136 0.930 . S
C1142 C1143 1.355 . S
C1142 C1144 1.415 . S
C1143 C1142 1.355 . S
C1143 C1145 1.419 . S
C1144 C1142 1.415 . S
C1144 C1149 1.425 . S
C1144 C1151 1.409 . S
C1145 H1137 0.930 . S
C1145 C1143 1.419 . S
C1145 C1146 1.362 . S
C1146 H1138 0.930 . S
C1146 C1145 1.362 . S
C1146 C1149 1.409 . S
C1147 H1139 0.930 . S
C1147 C1148 1.355 . S
C1147 C1149 1.415 . S
C1148 C1147 1.355 . S
C1148 C1150 1.419 . S
C1149 C1144 1.425 . S
C1149 C1146 1.409 . S
C1149 C1147 1.415 . S
C1150 H1140 0.930 . S
C1150 C1148 1.419 . S
C1150 C1151 1.362 . S
C1151 H1141 0.930 . S
C1151 C1144 1.409 . S
C1151 C1150 1.362 . S
H1152 C1158 0.930 . S
H1153 C1161 0.930 . S
H1154 C1162 0.930 . S
H1155 C1163 0.930 . S
H1156 C1166 0.930 . S
H1157 C1167 0.930 . S
C1158 H1152 0.930 . S
C1158 C1159 1.355 . S
C1158 C1160 1.415 . S
C1159 C1158 1.355 . S
C1159 C1161 1.419 1_554 S
C1160 C1158 1.415 . S
C1160 C1165 1.425 1_554 S
C1160 C1167 1.409 . S
C1161 H1153 0.930 . S
C1161 C1159 1.419 1_556 S
C1161 C1162 1.362 . S
C1162 H1154 0.930 . S
C1162 C1161 1.362 . S
C1162 C1165 1.409 . S
C1163 H1155 0.930 . S
C1163 C1164 1.355 . S
C1163 C1165 1.415 . S
C1164 C1163 1.355 . S
C1164 C1166 1.419 1_556 S
C1165 C1160 1.425 1_556 S
C1165 C1162 1.409 . S
C1165 C1163 1.415 . S
C1166 H1156 0.930 . S
C1166 C1164 1.419 1_554 S
C1166 C1167 1.362 . S
C1167 H1157 0.930 . S
C1167 C1160 1.409 . S
C1167 C1166 1.362 . S
H1168 C1174 0.930 . S
H1169 C1177 0.933 . S
H1170 C1178 0.930 . S
H1171 C1179 0.930 . S
H1172 C1182 0.933 . S
H1173 C1183 0.930 . S
C1174 H1168 0.930 . S
C1174 C1175 1.355 . S
C1174 C1176 1.415 . S
C1175 C1174 1.355 . S
C1175 C1177 1.410 1_655 S
C1176 C1174 1.415 . S
C1176 C1181 1.425 1_655 S
C1176 C1183 1.409 . S
C1177 H1169 0.933 . S
C1177 C1175 1.410 1_455 S
C1177 C1178 1.369 . S
C1178 H1170 0.930 . S
C1178 C1177 1.369 . S
C1178 C1181 1.409 . S
C1179 H1171 0.930 . S
C1179 C1180 1.355 . S
C1179 C1181 1.415 . S
C1180 C1179 1.355 . S
C1180 C1182 1.410 1_455 S
C1181 C1176 1.425 1_455 S
C1181 C1178 1.409 . S
C1181 C1179 1.415 . S
C1182 H1172 0.933 . S
C1182 C1180 1.410 1_655 S
C1182 C1183 1.369 . S
C1183 H1173 0.930 . S
C1183 C1176 1.409 . S
C1183 C1182 1.369 . S
H1184 C1190 0.930 . S
H1185 C1193 0.930 . S
H1186 C1194 0.930 . S
H1187 C1195 0.930 . S
H1188 C1198 0.930 . S
H1189 C1199 0.930 . S
C1190 H1184 0.930 . S
C1190 C1191 1.355 1_654 S
C1190 C1192 1.415 . S
C1191 C1190 1.355 1_456 S
C1191 C1193 1.419 . S
C1192 C1190 1.415 . S
C1192 C1197 1.425 1_654 S
C1192 C1199 1.409 . S
C1193 H1185 0.930 . S
C1193 C1191 1.419 . S
C1193 C1194 1.362 . S
C1194 H1186 0.930 . S
C1194 C1193 1.362 . S
C1194 C1197 1.409 . S
C1195 H1187 0.930 . S
C1195 C1196 1.355 1_456 S
C1195 C1197 1.415 . S
C1196 C1195 1.355 1_654 S
C1196 C1198 1.419 . S
C1197 C1192 1.425 1_456 S
C1197 C1194 1.409 . S
C1197 C1195 1.415 . S
C1198 H1188 0.930 . S
C1198 C1196 1.419 . S
C1198 C1199 1.362 . S
C1199 H1189 0.930 . S
C1199 C1192 1.409 . S
C1199 C1198 1.362 . S
H1200 C1206 0.930 . S
H1201 C1209 0.930 . S
H1202 C1210 0.930 . S
H1203 C1211 0.930 . S
H1204 C1214 0.930 . S
H1205 C1215 0.930 . S
C1206 H1200 0.930 . S
C1206 C1207 1.355 . S
C1206 C1208 1.415 . S
C1207 C1206 1.355 . S
C1207 C1209 1.419 . S
C1208 C1206 1.415 . S
C1208 C1213 1.425 . S
C1208 C1215 1.409 . S
C1209 H1201 0.930 . S
C1209 C1207 1.419 . S
C1209 C1210 1.362 . S
C1210 H1202 0.930 . S
C1210 C1209 1.362 . S
C1210 C1213 1.409 . S
C1211 H1203 0.930 . S
C1211 C1212 1.355 . S
C1211 C1213 1.415 . S
C1212 C1211 1.355 . S
C1212 C1214 1.419 . S
C1213 C1208 1.425 . S
C1213 C1210 1.409 . S
C1213 C1211 1.415 . S
C1214 H1204 0.930 . S
C1214 C1212 1.419 . S
C1214 C1215 1.362 . S
C1215 H1205 0.930 . S
C1215 C1208 1.409 . S
C1215 C1214 1.362 . S
H1216 C1222 0.930 . S
H1217 C1225 0.930 . S
H1218 C1226 0.930 . S
H1219 C1227 0.930 . S
H1220 C1230 0.930 . S
H1221 C1231 0.930 . S
C1222 H1216 0.930 . S
C1222 C1223 1.355 . S
C1222 C1224 1.415 . S
C1223 C1222 1.355 . S
C1223 C1225 1.419 . S
C1224 C1222 1.415 . S
C1224 C1229 1.425 . S
C1224 C1231 1.409 . S
C1225 H1217 0.930 . S
C1225 C1223 1.419 . S
C1225 C1226 1.362 . S
C1226 H1218 0.930 . S
C1226 C1225 1.362 . S
C1226 C1229 1.409 . S
C1227 H1219 0.930 . S
C1227 C1228 1.355 . S
C1227 C1229 1.415 . S
C1228 C1227 1.355 . S
C1228 C1230 1.419 . S
C1229 C1224 1.425 . S
C1229 C1226 1.409 . S
C1229 C1227 1.415 . S
C1230 H1220 0.930 . S
C1230 C1228 1.419 . S
C1230 C1231 1.362 . S
C1231 H1221 0.930 . S
C1231 C1224 1.409 . S
C1231 C1230 1.362 . S
H1232 C1238 0.930 . S
H1233 C1241 0.930 . S
H1234 C1242 0.930 . S
H1235 C1243 0.930 . S
H1236 C1246 0.930 . S
H1237 C1247 0.930 . S
C1238 H1232 0.930 . S
C1238 C1239 1.355 . S
C1238 C1240 1.415 . S
C1239 C1238 1.355 . S
C1239 C1241 1.419 . S
C1240 C1238 1.415 . S
C1240 C1245 1.425 . S
C1240 C1247 1.409 . S
C1241 H1233 0.930 . S
C1241 C1239 1.419 . S
C1241 C1242 1.362 . S
C1242 H1234 0.930 . S
C1242 C1241 1.362 . S
C1242 C1245 1.409 . S
C1243 H1235 0.930 . S
C1243 C1244 1.355 . S
C1243 C1245 1.415 . S
C1244 C1243 1.355 . S
C1244 C1246 1.419 . S
C1245 C1240 1.425 . S
C1245 C1242 1.409 . S
C1245 C1243 1.415 . S
C1246 H1236 0.930 . S
C1246 C1244 1.419 . S
C1246 C1247 1.362 . S
C1247 H1237 0.930 . S
C1247 C1240 1.409 . S
C1247 C1246 1.362 . S
H1248 C1254 0.930 . S
H1249 C1257 0.930 . S
H1250 C1258 0.930 . S
H1251 C1259 0.930 . S
H1252 C1262 0.930 . S
H1253 C1263 0.930 . S
C1254 H1248 0.930 . S
C1254 C1255 1.355 . S
C1254 C1256 1.415 . S
C1255 C1254 1.355 . S
C1255 C1257 1.419 . S
C1256 C1254 1.415 . S
C1256 C1261 1.425 . S
C1256 C1263 1.409 . S
C1257 H1249 0.930 . S
C1257 C1255 1.419 . S
C1257 C1258 1.362 . S
C1258 H1250 0.930 . S
C1258 C1257 1.362 . S
C1258 C1261 1.409 . S
C1259 H1251 0.930 . S
C1259 C1260 1.355 . S
C1259 C1261 1.415 . S
C1260 C1259 1.355 . S
C1260 C1262 1.419 . S
C1261 C1256 1.425 . S
C1261 C1258 1.409 . S
C1261 C1259 1.415 . S
C1262 H1252 0.930 . S
C1262 C1260 1.419 . S
C1262 C1263 1.362 . S
C1263 H1253 0.930 . S
C1263 C1256 1.409 . S
C1263 C1262 1.362 . S
H1264 C1270 0.930 . S
H1265 C1273 0.930 . S
H1266 C1274 0.930 . S
H1267 C1275 0.930 . S
H1268 C1278 0.930 . S
H1269 C1279 0.930 . S
C1270 H1264 0.930 . S
C1270 C1271 1.355 . S
C1270 C1272 1.415 . S
C1271 C1270 1.355 . S
C1271 C1273 1.419 . S
C1272 C1270 1.415 . S
C1272 C1277 1.425 . S
C1272 C1279 1.409 . S
C1273 H1265 0.930 . S
C1273 C1271 1.419 . S
C1273 C1274 1.362 . S
C1274 H1266 0.930 . S
C1274 C1273 1.362 . S
C1274 C1277 1.409 . S
C1275 H1267 0.930 . S
C1275 C1276 1.355 . S
C1275 C1277 1.415 . S
C1276 C1275 1.355 . S
C1276 C1278 1.419 . S
C1277 C1272 1.425 . S
C1277 C1274 1.409 . S
C1277 C1275 1.415 . S
C1278 H1268 0.930 . S
C1278 C1276 1.419 . S
C1278 C1279 1.362 . S
C1279 H1269 0.930 . S
C1279 C1272 1.409 . S
C1279 C1278 1.362 . S
H1280 C1286 0.930 . S
H1281 C1289 0.930 . S
H1282 C1290 0.930 . S
H1283 C1291 0.930 . S
H1284 C1294 0.930 . S
H1285 C1295 0.930 . S
C1286 H1280 0.930 . S
C1286 C1287 1.355 . S
C1286 C1288 1.415 . S
C1287 C1286 1.355 . S
C1287 C1289 1.419 . S
C1288 C1286 1.415 . S
C1288 C1293 1.425 . S
C1288 C1295 1.409 . S
C1289 H1281 0.930 . S
C1289 C1287 1.419 . S
C1289 C1290 1.362 . S
C1290 H1282 0.930 . S
C1290 C1289 1.362 . S
C1290 C1293 1.409 . S
C1291 H1283 0.930 . S
C1291 C1292 1.355 . S
C1291 C1293 1.415 . S
C1292 C1291 1.355 . S
C1292 C1294 1.419 . S
C1293 C1288 1.425 . S
C1293 C1290 1.409 . S
C1293 C1291 1.415 . S
C1294 H1284 0.930 . S
C1294 C1292 1.419 . S
C1294 C1295 1.362 . S
C1295 H1285 0.930 . S
C1295 C1288 1.409 . S
C1295 C1294 1.362 . S
H1296 C1302 0.930 . S
H1297 C1305 0.930 . S
H1298 C1306 0.930 . S
H1299 C1307 0.930 . S
H1300 C1310 0.930 . S
H1301 C1311 0.930 . S
C1302 H1296 0.930 . S
C1302 C1303 1.355 . S
C1302 C1304 1.415 . S
C1303 C1302 1.355 . S
C1303 C1305 1.419 . S
C1304 C1302 1.415 . S
C1304 C1309 1.425 . S
C1304 C1311 1.409 . S
C1305 H1297 0.930 . S
C1305 C1303 1.419 . S
C1305 C1306 1.362 . S
C1306 H1298 0.930 . S
C1306 C1305 1.362 . S
C1306 C1309 1.409 . S
C1307 H1299 0.930 . S
C1307 C1308 1.355 . S
C1307 C1309 1.415 . S
C1308 C1307 1.355 . S
C1308 C1310 1.419 . S
C1309 C1304 1.425 . S
C1309 C1306 1.409 . S
C1309 C1307 1.415 . S
C1310 H1300 0.930 . S
C1310 C1308 1.419 . S
C1310 C1311 1.362 . S
C1311 H1301 0.930 . S
C1311 C1304 1.409 . S
C1311 C1310 1.362 . S
H1312 C1318 0.930 . S
H1313 C1321 0.930 . S
H1314 C1322 0.930 . S
H1315 C1323 0.930 . S
H1316 C1326 0.930 . S
H1317 C1327 0.930 . S
C1318 H1312 0.930 . S
C1318 C1319 1.355 . S
C1318 C1320 1.415 . S
C1319 C1318 1.355 . S
C1319 C1321 1.419 . S
C1320 C1318 1.415 . S
C1320 C1325 1.425 . S
C1320 C1327 1.409 . S
C1321 H1313 0.930 . S
C1321 C1319 1.419 . S
C1321 C1322 1.362 . S
C1322 H1314 0.930 . S
C1322 C1321 1.362 . S
C1322 C1325 1.409 . S
C1323 H1315 0.930 . S
C1323 C1324 1.355 . S
C1323 C1325 1.415 . S
C1324 C1323 1.355 . S
C1324 C1326 1.419 . S
C1325 C1320 1.425 . S
C1325 C1322 1.409 . S
C1325 C1323 1.415 . S
C1326 H1316 0.930 . S
C1326 C1324 1.419 . S
C1326 C1327 1.362 . S
C1327 H1317 0.930 . S
C1327 C1320 1.409 . S
C1327 C1326 1.362 . S
H1328 C1334 0.930 . S
H1329 C1337 0.930 . S
H1330 C1338 0.930 . S
H1331 C1339 0.930 . S
H1332 C1342 0.930 . S
H1333 C1343 0.930 . S
C1334 H1328 0.930 . S
C1334 C1335 1.355 . S
C1334 C1336 1.415 . S
C1335 C1334 1.355 . S
C1335 C1337 1.419 . S
C1336 C1334 1.415 . S
C1336 C1341 1.425 . S
C1336 C1343 1.409 . S
C1337 H1329 0.930 . S
C1337 C1335 1.419 . S
C1337 C1338 1.362 . S
C1338 H1330 0.930 . S
C1338 C1337 1.362 . S
C1338 C1341 1.409 . S
C1339 H1331 0.930 . S
C1339 C1340 1.355 . S
C1339 C1341 1.415 . S
C1340 C1339 1.355 . S
C1340 C1342 1.419 . S
C1341 C1336 1.425 . S
C1341 C1338 1.409 . S
C1341 C1339 1.415 . S
C1342 H1332 0.930 . S
C1342 C1340 1.419 . S
C1342 C1343 1.362 . S
C1343 H1333 0.930 . S
C1343 C1336 1.409 . S
C1343 C1342 1.362 . S
H1344 C1350 0.930 . S
H1345 C1353 0.930 . S
H1346 C1354 0.930 . S
H1347 C1355 0.930 . S
H1348 C1358 0.930 . S
H1349 C1359 0.930 . S
C1350 H1344 0.930 . S
C1350 C1351 1.355 . S
C1350 C1352 1.415 . S
C1351 C1350 1.355 . S
C1351 C1353 1.419 . S
C1352 C1350 1.415 . S
C1352 C1357 1.425 . S
C1352 C1359 1.409 . S
C1353 H1345 0.930 . S
C1353 C1351 1.419 . S
C1353 C1354 1.362 . S
C1354 H1346 0.930 . S
C1354 C1353 1.362 . S
C1354 C1357 1.409 . S
C1355 H1347 0.930 . S
C1355 C1356 1.355 . S
C1355 C1357 1.415 . S
C1356 C1355 1.355 . S
C1356 C1358 1.419 . S
C1357 C1352 1.425 . S
C1357 C1354 1.409 . S
C1357 C1355 1.415 . S
C1358 H1348 0.930 . S
C1358 C1356 1.419 . S
C1358 C1359 1.362 . S
C1359 H1349 0.930 . S
C1359 C1352 1.409 . S
C1359 C1358 1.362 . S
H1360 C1366 0.930 . S
H1361 C1369 0.930 . S
H1362 C1370 0.930 . S
H1363 C1371 0.930 . S
H1364 C1374 0.930 . S
H1365 C1375 0.930 . S
C1366 H1360 0.930 . S
C1366 C1367 1.355 . S
C1366 C1368 1.415 . S
C1367 C1366 1.355 . S
C1367 C1369 1.419 . S
C1368 C1366 1.415 . S
C1368 C1373 1.425 . S
C1368 C1375 1.409 . S
C1369 H1361 0.930 . S
C1369 C1367 1.419 . S
C1369 C1370 1.362 . S
C1370 H1362 0.930 . S
C1370 C1369 1.362 . S
C1370 C1373 1.409 . S
C1371 H1363 0.930 . S
C1371 C1372 1.355 . S
C1371 C1373 1.415 . S
C1372 C1371 1.355 . S
C1372 C1374 1.419 . S
C1373 C1368 1.425 . S
C1373 C1370 1.409 . S
C1373 C1371 1.415 . S
C1374 H1364 0.930 . S
C1374 C1372 1.419 . S
C1374 C1375 1.362 . S
C1375 H1365 0.930 . S
C1375 C1368 1.409 . S
C1375 C1374 1.362 . S
H1376 C1382 0.930 . S
H1377 C1385 0.930 . S
H1378 C1386 0.930 . S
H1379 C1387 0.930 . S
H1380 C1390 0.930 . S
H1381 C1391 0.930 . S
C1382 H1376 0.930 . S
C1382 C1383 1.355 . S
C1382 C1384 1.415 . S
C1383 C1382 1.355 . S
C1383 C1385 1.419 . S
C1384 C1382 1.415 . S
C1384 C1389 1.425 . S
C1384 C1391 1.409 . S
C1385 H1377 0.930 . S
C1385 C1383 1.419 . S
C1385 C1386 1.362 . S
C1386 H1378 0.930 . S
C1386 C1385 1.362 . S
C1386 C1389 1.409 . S
C1387 H1379 0.930 . S
C1387 C1388 1.355 . S
C1387 C1389 1.415 . S
C1388 C1387 1.355 . S
C1388 C1390 1.419 . S
C1389 C1384 1.425 . S
C1389 C1386 1.409 . S
C1389 C1387 1.415 . S
C1390 H1380 0.930 . S
C1390 C1388 1.419 . S
C1390 C1391 1.362 . S
C1391 H1381 0.930 . S
C1391 C1384 1.409 . S
C1391 C1390 1.362 . S
H1392 C1398 0.930 . S
H1393 C1401 0.930 . S
H1394 C1402 0.930 . S
H1395 C1403 0.930 . S
H1396 C1406 0.930 . S
H1397 C1407 0.930 . S
C1398 H1392 0.930 . S
C1398 C1399 1.355 . S
C1398 C1400 1.415 . S
C1399 C1398 1.355 . S
C1399 C1401 1.419 . S
C1400 C1398 1.415 . S
C1400 C1405 1.425 . S
C1400 C1407 1.409 . S
C1401 H1393 0.930 . S
C1401 C1399 1.419 . S
C1401 C1402 1.362 . S
C1402 H1394 0.930 . S
C1402 C1401 1.362 . S
C1402 C1405 1.409 . S
C1403 H1395 0.930 . S
C1403 C1404 1.355 . S
C1403 C1405 1.415 . S
C1404 C1403 1.355 . S
C1404 C1406 1.419 . S
C1405 C1400 1.425 . S
C1405 C1402 1.409 . S
C1405 C1403 1.415 . S
C1406 H1396 0.930 . S
C1406 C1404 1.419 . S
C1406 C1407 1.362 . S
C1407 H1397 0.930 . S
C1407 C1400 1.409 . S
C1407 C1406 1.362 . S
H1408 C1414 0.930 . S
H1409 C1417 0.930 . S
H1410 C1418 0.930 . S
H1411 C1419 0.930 . S
H1412 C1422 0.930 . S
H1413 C1423 0.930 . S
C1414 H1408 0.930 . S
C1414 C1415 1.355 . S
C1414 C1416 1.415 . S
C1415 C1414 1.355 . S
C1415 C1417 1.419 . S
C1416 C1414 1.415 . S
C1416 C1421 1.425 . S
C1416 C1423 1.409 . S
C1417 H1409 0.930 . S
C1417 C1415 1.419 . S
C1417 C1418 1.362 . S
C1418 H1410 0.930 . S
C1418 C1417 1.362 . S
C1418 C1421 1.409 . S
C1419 H1411 0.930 . S
C1419 C1420 1.355 . S
C1419 C1421 1.415 . S
C1420 C1419 1.355 . S
C1420 C1422 1.419 . S
C1421 C1416 1.425 . S
C1421 C1418 1.409 . S
C1421 C1419 1.415 . S
C1422 H1412 0.930 . S
C1422 C1420 1.419 . S
C1422 C1423 1.362 . S
C1423 H1413 0.930 . S
C1423 C1416 1.409 . S
C1423 C1422 1.362 . S
H1424 C1430 0.930 . S
H1425 C1433 0.930 . S
H1426 C1434 0.930 . S
H1427 C1435 0.930 . S
H1428 C1438 0.930 . S
H1429 C1439 0.930 . S
C1430 H1424 0.930 . S
C1430 C1431 1.355 . S
C1430 C1432 1.415 . S
C1431 C1430 1.355 . S
C1431 C1433 1.419 . S
C1432 C1430 1.415 . S
C1432 C1437 1.425 . S
C1432 C1439 1.409 . S
C1433 H1425 0.930 . S
C1433 C1431 1.419 . S
C1433 C1434 1.362 . S
C1434 H1426 0.930 . S
C1434 C1433 1.362 . S
C1434 C1437 1.409 . S
C1435 H1427 0.930 . S
C1435 C1436 1.355 . S
C1435 C1437 1.415 . S
C1436 C1435 1.355 . S
C1436 C1438 1.419 . S
C1437 C1432 1.425 . S
C1437 C1434 1.409 . S
C1437 C1435 1.415 . S
C1438 H1428 0.930 . S
C1438 C1436 1.419 . S
C1438 C1439 1.362 . S
C1439 H1429 0.930 . S
C1439 C1432 1.409 . S
C1439 C1438 1.362 . S
H1440 C1446 0.930 . S
H1441 C1449 0.930 . S
H1442 C1450 0.930 . S
H1443 C1451 0.930 . S
H1444 C1454 0.930 . S
H1445 C1455 0.930 . S
C1446 H1440 0.930 . S
C1446 C1447 1.355 . S
C1446 C1448 1.415 . S
C1447 C1446 1.355 . S
C1447 C1449 1.419 . S
C1448 C1446 1.415 . S
C1448 C1453 1.425 . S
C1448 C1455 1.409 . S
C1449 H1441 0.930 . S
C1449 C1447 1.419 . S
C1449 C1450 1.362 . S
C1450 H1442 0.930 . S
C1450 C1449 1.362 . S
C1450 C1453 1.409 . S
C1451 H1443 0.930 . S
C1451 C1452 1.355 . S
C1451 C1453 1.415 . S
C1452 C1451 1.355 . S
C1452 C1454 1.419 . S
C1453 C1448 1.425 . S
C1453 C1450 1.409 . S
C1453 C1451 1.415 . S
C1454 H1444 0.930 . S
C1454 C1452 1.419 . S
C1454 C1455 1.362 . S
C1455 H1445 0.930 . S
C1455 C1448 1.409 . S
C1455 C1454 1.362 . S
H1456 C1462 0.930 . S
H1457 C1465 0.930 . S
H1458 C1466 0.930 . S
H1459 C1467 0.930 . S
H1460 C1470 0.930 . S
H1461 C1471 0.930 . S
C1462 H1456 0.930 . S
C1462 C1463 1.355 . S
C1462 C1464 1.415 . S
C1463 C1462 1.355 . S
C1463 C1465 1.419 . S
C1464 C1462 1.415 . S
C1464 C1469 1.425 . S
C1464 C1471 1.409 . S
C1465 H1457 0.930 . S
C1465 C1463 1.419 . S
C1465 C1466 1.362 . S
C1466 H1458 0.930 . S
C1466 C1465 1.362 . S
C1466 C1469 1.409 . S
C1467 H1459 0.930 . S
C1467 C1468 1.355 . S
C1467 C1469 1.415 . S
C1468 C1467 1.355 . S
C1468 C1470 1.419 . S
C1469 C1464 1.425 . S
C1469 C1466 1.409 . S
C1469 C1467 1.415 . S
C1470 H1460 0.930 . S
C1470 C1468 1.419 . S
C1470 C1471 1.362 . S
C1471 H1461 0.930 . S
C1471 C1464 1.409 . S
C1471 C1470 1.362 . S
C455 C134 1.070 . S
C460 C7 0.996 . S
C471 C21 1.043 . S
C476 C372 1.015 . S
C487 C162 1.051 . S
C492 C35 1.009 . S
C503 C344 1.064 . S
C508 C49 1.000 . S
C519 C63 1.076 . S
C524 C218 0.964 . S
C535 C400 1.065 . S
C540 C77 1.003 . S
C551 C91 1.040 . S
C556 C190 1.010 . S
C567 C428 1.069 . S
C572 C105 1.000 . S
C583 C22 1.064 . S
C588 C119 1.005 . S
C599 C133 1.066 . S
C604 C260 0.983 . S
C615 C50 1.026 . S
C620 C147 1.036 . S
C631 C161 1.051 . S
C636 C232 1.004 . S
C647 C175 1.071 . S
C652 C106 0.975 . S
C663 C288 1.039 . S
C668 C189 1.018 . S
C679 C203 0.996 . S
C684 C78 1.072 . S
C695 C316 0.973 . S
C700 C217 1.069 . S
C711 C358 1.064 . S
C716 C231 1.004 . S
C727 C148 0.968 . S
C732 C245 1.075 . S
C743 C259 1.018 . S
C748 C386 1.040 . S
C759 C120 1.044 . S
C764 C273 1.021 . S
C775 C442 1.040 . S
C780 C287 1.025 . S
C791 C301 1.068 . S
C796 C176 0.973 . S
C807 C414 0.984 . S
C812 C315 1.060 . S
C823 C204 1.065 . S
C828 C329 1.003 . S
C839 C246 1.054 . S
C844 C343 1.013 . S
C855 C357 1.075 . S
C860 C36 0.969 . S
C871 C371 1.047 . S
C876 C274 1.011 . S
C887 C385 1.023 . S
C892 C8 1.042 . S
C903 C330 0.988 . S
C908 C399 1.057 . S
C919 C413 1.075 . S
C924 C64 0.969 . S
C935 C427 1.050 . S
C940 C302 0.997 . S
C951 C441 1.018 . S
C956 C92 1.048 . S
C967 C347 1.305 . S
C972 C11 1.305 . S
C983 C25 1.270 . S
C988 C137 1.270 . S
C999 C39 1.313 . S
C1004 C375 1.313 . S
C1015 C53 1.316 . S
C1020 C165 1.316 . S
C1031 C67 1.313 . S
C1036 C403 1.313 . S
C1047 C81 1.285 . S
C1052 C193 1.285 . S
C1063 C431 1.270 . S
C1068 C95 1.270 . S
C1079 C109 1.286 . S
C1084 C221 1.286 . S
C1095 C123 1.312 . S
C1100 C235 1.312 . S
C1111 C151 1.311 . S
C1116 C263 1.311 . S
C1127 C291 1.316 . S
C1132 C179 1.316 . S
C1143 C319 1.297 . S
C1148 C207 1.297 . S
C1159 C249 1.274 . S
C1164 C361 1.274 . S
C1175 C389 1.296 . S
C1180 C277 1.296 . S
C1191 C305 1.309 . S
C1196 C417 1.309 . S
C1207 C445 1.311 . S
C1212 C333 1.311 . S
C1223 C307 1.459 . S
C1228 C13 1.409 . S
C1239 C321 1.488 . S
C1244 C27 1.514 . S
C1255 C41 1.510 . S
C1260 C335 1.499 . S
C1271 C293 1.515 . S
C1276 C55 1.484 . S
C1287 C279 1.506 . S
C1292 C69 1.504 . S
C1303 C237 1.409 . S
C1308 C83 1.459 . S
C1319 C97 1.514 . S
C1324 C251 1.489 . S
C1335 C265 1.501 . S
C1340 C111 1.434 . S
C1351 C419 1.475 . S
C1356 C125 1.516 . S
C1367 C433 1.433 . S
C1372 C139 1.500 . S
C1383 C447 1.416 . S
C1388 C153 1.479 . S
C1399 C167 1.425 . S
C1404 C405 1.492 . S
C1415 C391 1.409 . S
C1420 C181 1.450 . S
C1431 C349 1.515 . S
C1436 C195 1.484 . S
C1447 C363 1.516 . S
C1452 C209 1.478 . S
C1463 C377 1.494 . S
C1468 C223 1.512 . S
