# Generated by pormake.
# Topology ull, (4)-cn, num edge types: 1
# Building blocks:
#     Node 0, Type 0, BuildingBlock: QUQFOY_clean_sbu_1, # of connection points: 4
#     Node 1, Type 0, BuildingBlock: QUQFOY_clean_sbu_1, # of connection points: 4
#     Node 2, Type 0, BuildingBlock: QUQFOY_clean_sbu_1, # of connection points: 4
#     Node 3, Type 0, BuildingBlock: QUQFOY_clean_sbu_1, # of connection points: 4
#     Node 4, Type 0, BuildingBlock: QUQFOY_clean_sbu_1, # of connection points: 4
#     Node 5, Type 0, BuildingBlock: QUQFOY_clean_sbu_1, # of connection points: 4
#     Node 6, Type 0, BuildingBlock: QUQFOY_clean_sbu_1, # of connection points: 4
#     Node 7, Type 0, BuildingBlock: QUQFOY_clean_sbu_1, # of connection points: 4
#     Node 8, Type 0, BuildingBlock: QUQFOY_clean_sbu_1, # of connection points: 4
#     Node 9, Type 0, BuildingBlock: QUQFOY_clean_sbu_1, # of connection points: 4
#     Node 10, Type 0, BuildingBlock: QUQFOY_clean_sbu_1, # of connection points: 4
#     Node 11, Type 0, BuildingBlock: QUQFOY_clean_sbu_1, # of connection points: 4
#     Node 12, Type 0, BuildingBlock: QUQFOY_clean_sbu_1, # of connection points: 4
#     Node 13, Type 0, BuildingBlock: QUQFOY_clean_sbu_1, # of connection points: 4
#     Node 14, Type 0, BuildingBlock: QUQFOY_clean_sbu_1, # of connection points: 4
#     Node 15, Type 0, BuildingBlock: QUQFOY_clean_sbu_1, # of connection points: 4
#     Node 16, Type 0, BuildingBlock: QUQFOY_clean_sbu_1, # of connection points: 4
#     Node 17, Type 0, BuildingBlock: QUQFOY_clean_sbu_1, # of connection points: 4
#     Node 18, Type 0, BuildingBlock: QUQFOY_clean_sbu_1, # of connection points: 4
#     Node 19, Type 0, BuildingBlock: QUQFOY_clean_sbu_1, # of connection points: 4
#     Node 20, Type 0, BuildingBlock: QUQFOY_clean_sbu_1, # of connection points: 4
#     Node 21, Type 0, BuildingBlock: QUQFOY_clean_sbu_1, # of connection points: 4
#     Node 22, Type 0, BuildingBlock: QUQFOY_clean_sbu_1, # of connection points: 4
#     Node 23, Type 0, BuildingBlock: QUQFOY_clean_sbu_1, # of connection points: 4
#     Node 24, Type 0, BuildingBlock: QUQFOY_clean_sbu_1, # of connection points: 4
#     Node 25, Type 0, BuildingBlock: QUQFOY_clean_sbu_1, # of connection points: 4
#     Node 26, Type 0, BuildingBlock: QUQFOY_clean_sbu_1, # of connection points: 4
#     Node 27, Type 0, BuildingBlock: QUQFOY_clean_sbu_1, # of connection points: 4
#     Node 28, Type 0, BuildingBlock: QUQFOY_clean_sbu_1, # of connection points: 4
#     Node 29, Type 0, BuildingBlock: QUQFOY_clean_sbu_1, # of connection points: 4
#     Node 30, Type 0, BuildingBlock: QUQFOY_clean_sbu_1, # of connection points: 4
#     Node 31, Type 0, BuildingBlock: QUQFOY_clean_sbu_1, # of connection points: 4
#     Node 32, Type 0, BuildingBlock: QUQFOY_clean_sbu_1, # of connection points: 4
#     Node 33, Type 0, BuildingBlock: QUQFOY_clean_sbu_1, # of connection points: 4
#     Node 34, Type 0, BuildingBlock: QUQFOY_clean_sbu_1, # of connection points: 4
#     Node 35, Type 0, BuildingBlock: QUQFOY_clean_sbu_1, # of connection points: 4
#     Node 36, Type 0, BuildingBlock: QUQFOY_clean_sbu_1, # of connection points: 4
#     Node 37, Type 0, BuildingBlock: QUQFOY_clean_sbu_1, # of connection points: 4
#     Node 38, Type 0, BuildingBlock: QUQFOY_clean_sbu_1, # of connection points: 4
#     Node 39, Type 0, BuildingBlock: QUQFOY_clean_sbu_1, # of connection points: 4
#     Node 40, Type 0, BuildingBlock: QUQFOY_clean_sbu_1, # of connection points: 4
#     Node 41, Type 0, BuildingBlock: QUQFOY_clean_sbu_1, # of connection points: 4
#     Node 42, Type 0, BuildingBlock: QUQFOY_clean_sbu_1, # of connection points: 4
#     Node 43, Type 0, BuildingBlock: QUQFOY_clean_sbu_1, # of connection points: 4
#     Node 44, Type 0, BuildingBlock: QUQFOY_clean_sbu_1, # of connection points: 4
#     Node 45, Type 0, BuildingBlock: QUQFOY_clean_sbu_1, # of connection points: 4
#     Node 46, Type 0, BuildingBlock: QUQFOY_clean_sbu_1, # of connection points: 4
#     Node 47, Type 0, BuildingBlock: QUQFOY_clean_sbu_1, # of connection points: 4
#     Edge 48, Type (0, 0), BuildingBlock: EZIPEK_clean_linker_0, # of connection points: 2
#     Edge 49, Type (0, 0), BuildingBlock: EZIPEK_clean_linker_0, # of connection points: 2
#     Edge 50, Type (0, 0), BuildingBlock: EZIPEK_clean_linker_0, # of connection points: 2
#     Edge 51, Type (0, 0), BuildingBlock: EZIPEK_clean_linker_0, # of connection points: 2
#     Edge 52, Type (0, 0), BuildingBlock: EZIPEK_clean_linker_0, # of connection points: 2
#     Edge 53, Type (0, 0), BuildingBlock: EZIPEK_clean_linker_0, # of connection points: 2
#     Edge 54, Type (0, 0), BuildingBlock: EZIPEK_clean_linker_0, # of connection points: 2
#     Edge 55, Type (0, 0), BuildingBlock: EZIPEK_clean_linker_0, # of connection points: 2
#     Edge 56, Type (0, 0), BuildingBlock: EZIPEK_clean_linker_0, # of connection points: 2
#     Edge 57, Type (0, 0), BuildingBlock: EZIPEK_clean_linker_0, # of connection points: 2
#     Edge 58, Type (0, 0), BuildingBlock: EZIPEK_clean_linker_0, # of connection points: 2
#     Edge 59, Type (0, 0), BuildingBlock: EZIPEK_clean_linker_0, # of connection points: 2
#     Edge 60, Type (0, 0), BuildingBlock: EZIPEK_clean_linker_0, # of connection points: 2
#     Edge 61, Type (0, 0), BuildingBlock: EZIPEK_clean_linker_0, # of connection points: 2
#     Edge 62, Type (0, 0), BuildingBlock: EZIPEK_clean_linker_0, # of connection points: 2
#     Edge 63, Type (0, 0), BuildingBlock: EZIPEK_clean_linker_0, # of connection points: 2
#     Edge 64, Type (0, 0), BuildingBlock: EZIPEK_clean_linker_0, # of connection points: 2
#     Edge 65, Type (0, 0), BuildingBlock: EZIPEK_clean_linker_0, # of connection points: 2
#     Edge 66, Type (0, 0), BuildingBlock: EZIPEK_clean_linker_0, # of connection points: 2
#     Edge 67, Type (0, 0), BuildingBlock: EZIPEK_clean_linker_0, # of connection points: 2
#     Edge 68, Type (0, 0), BuildingBlock: EZIPEK_clean_linker_0, # of connection points: 2
#     Edge 69, Type (0, 0), BuildingBlock: EZIPEK_clean_linker_0, # of connection points: 2
#     Edge 70, Type (0, 0), BuildingBlock: EZIPEK_clean_linker_0, # of connection points: 2
#     Edge 71, Type (0, 0), BuildingBlock: EZIPEK_clean_linker_0, # of connection points: 2
#     Edge 72, Type (0, 0), BuildingBlock: EZIPEK_clean_linker_0, # of connection points: 2
#     Edge 73, Type (0, 0), BuildingBlock: EZIPEK_clean_linker_0, # of connection points: 2
#     Edge 74, Type (0, 0), BuildingBlock: EZIPEK_clean_linker_0, # of connection points: 2
#     Edge 75, Type (0, 0), BuildingBlock: EZIPEK_clean_linker_0, # of connection points: 2
#     Edge 76, Type (0, 0), BuildingBlock: EZIPEK_clean_linker_0, # of connection points: 2
#     Edge 77, Type (0, 0), BuildingBlock: EZIPEK_clean_linker_0, # of connection points: 2
#     Edge 78, Type (0, 0), BuildingBlock: EZIPEK_clean_linker_0, # of connection points: 2
#     Edge 79, Type (0, 0), BuildingBlock: EZIPEK_clean_linker_0, # of connection points: 2
#     Edge 80, Type (0, 0), BuildingBlock: EZIPEK_clean_linker_0, # of connection points: 2
#     Edge 81, Type (0, 0), BuildingBlock: EZIPEK_clean_linker_0, # of connection points: 2
#     Edge 82, Type (0, 0), BuildingBlock: EZIPEK_clean_linker_0, # of connection points: 2
#     Edge 83, Type (0, 0), BuildingBlock: EZIPEK_clean_linker_0, # of connection points: 2
#     Edge 84, Type (0, 0), BuildingBlock: EZIPEK_clean_linker_0, # of connection points: 2
#     Edge 85, Type (0, 0), BuildingBlock: EZIPEK_clean_linker_0, # of connection points: 2
#     Edge 86, Type (0, 0), BuildingBlock: EZIPEK_clean_linker_0, # of connection points: 2
#     Edge 87, Type (0, 0), BuildingBlock: EZIPEK_clean_linker_0, # of connection points: 2
#     Edge 88, Type (0, 0), BuildingBlock: EZIPEK_clean_linker_0, # of connection points: 2
#     Edge 89, Type (0, 0), BuildingBlock: EZIPEK_clean_linker_0, # of connection points: 2
#     Edge 90, Type (0, 0), BuildingBlock: EZIPEK_clean_linker_0, # of connection points: 2
#     Edge 91, Type (0, 0), BuildingBlock: EZIPEK_clean_linker_0, # of connection points: 2
#     Edge 92, Type (0, 0), BuildingBlock: EZIPEK_clean_linker_0, # of connection points: 2
#     Edge 93, Type (0, 0), BuildingBlock: EZIPEK_clean_linker_0, # of connection points: 2
#     Edge 94, Type (0, 0), BuildingBlock: EZIPEK_clean_linker_0, # of connection points: 2
#     Edge 95, Type (0, 0), BuildingBlock: EZIPEK_clean_linker_0, # of connection points: 2
#     Edge 96, Type (0, 0), BuildingBlock: EZIPEK_clean_linker_0, # of connection points: 2
#     Edge 97, Type (0, 0), BuildingBlock: EZIPEK_clean_linker_0, # of connection points: 2
#     Edge 98, Type (0, 0), BuildingBlock: EZIPEK_clean_linker_0, # of connection points: 2
#     Edge 99, Type (0, 0), BuildingBlock: EZIPEK_clean_linker_0, # of connection points: 2
#     Edge 100, Type (0, 0), BuildingBlock: EZIPEK_clean_linker_0, # of connection points: 2
#     Edge 101, Type (0, 0), BuildingBlock: EZIPEK_clean_linker_0, # of connection points: 2
#     Edge 102, Type (0, 0), BuildingBlock: EZIPEK_clean_linker_0, # of connection points: 2
#     Edge 103, Type (0, 0), BuildingBlock: EZIPEK_clean_linker_0, # of connection points: 2
#     Edge 104, Type (0, 0), BuildingBlock: EZIPEK_clean_linker_0, # of connection points: 2
#     Edge 105, Type (0, 0), BuildingBlock: EZIPEK_clean_linker_0, # of connection points: 2
#     Edge 106, Type (0, 0), BuildingBlock: EZIPEK_clean_linker_0, # of connection points: 2
#     Edge 107, Type (0, 0), BuildingBlock: EZIPEK_clean_linker_0, # of connection points: 2
#     Edge 108, Type (0, 0), BuildingBlock: EZIPEK_clean_linker_0, # of connection points: 2
#     Edge 109, Type (0, 0), BuildingBlock: EZIPEK_clean_linker_0, # of connection points: 2
#     Edge 110, Type (0, 0), BuildingBlock: EZIPEK_clean_linker_0, # of connection points: 2
#     Edge 111, Type (0, 0), BuildingBlock: EZIPEK_clean_linker_0, # of connection points: 2
#     Edge 112, Type (0, 0), BuildingBlock: EZIPEK_clean_linker_0, # of connection points: 2
#     Edge 113, Type (0, 0), BuildingBlock: EZIPEK_clean_linker_0, # of connection points: 2
#     Edge 114, Type (0, 0), BuildingBlock: EZIPEK_clean_linker_0, # of connection points: 2
#     Edge 115, Type (0, 0), BuildingBlock: EZIPEK_clean_linker_0, # of connection points: 2
#     Edge 116, Type (0, 0), BuildingBlock: EZIPEK_clean_linker_0, # of connection points: 2
#     Edge 117, Type (0, 0), BuildingBlock: EZIPEK_clean_linker_0, # of connection points: 2
#     Edge 118, Type (0, 0), BuildingBlock: EZIPEK_clean_linker_0, # of connection points: 2
#     Edge 119, Type (0, 0), BuildingBlock: EZIPEK_clean_linker_0, # of connection points: 2
#     Edge 120, Type (0, 0), BuildingBlock: EZIPEK_clean_linker_0, # of connection points: 2
#     Edge 121, Type (0, 0), BuildingBlock: EZIPEK_clean_linker_0, # of connection points: 2
#     Edge 122, Type (0, 0), BuildingBlock: EZIPEK_clean_linker_0, # of connection points: 2
#     Edge 123, Type (0, 0), BuildingBlock: EZIPEK_clean_linker_0, # of connection points: 2
#     Edge 124, Type (0, 0), BuildingBlock: EZIPEK_clean_linker_0, # of connection points: 2
#     Edge 125, Type (0, 0), BuildingBlock: EZIPEK_clean_linker_0, # of connection points: 2
#     Edge 126, Type (0, 0), BuildingBlock: EZIPEK_clean_linker_0, # of connection points: 2
#     Edge 127, Type (0, 0), BuildingBlock: EZIPEK_clean_linker_0, # of connection points: 2
#     Edge 128, Type (0, 0), BuildingBlock: EZIPEK_clean_linker_0, # of connection points: 2
#     Edge 129, Type (0, 0), BuildingBlock: EZIPEK_clean_linker_0, # of connection points: 2
#     Edge 130, Type (0, 0), BuildingBlock: EZIPEK_clean_linker_0, # of connection points: 2
#     Edge 131, Type (0, 0), BuildingBlock: EZIPEK_clean_linker_0, # of connection points: 2
#     Edge 132, Type (0, 0), BuildingBlock: EZIPEK_clean_linker_0, # of connection points: 2
#     Edge 133, Type (0, 0), BuildingBlock: EZIPEK_clean_linker_0, # of connection points: 2
#     Edge 134, Type (0, 0), BuildingBlock: EZIPEK_clean_linker_0, # of connection points: 2
#     Edge 135, Type (0, 0), BuildingBlock: EZIPEK_clean_linker_0, # of connection points: 2
#     Edge 136, Type (0, 0), BuildingBlock: EZIPEK_clean_linker_0, # of connection points: 2
#     Edge 137, Type (0, 0), BuildingBlock: EZIPEK_clean_linker_0, # of connection points: 2
#     Edge 138, Type (0, 0), BuildingBlock: EZIPEK_clean_linker_0, # of connection points: 2
#     Edge 139, Type (0, 0), BuildingBlock: EZIPEK_clean_linker_0, # of connection points: 2
#     Edge 140, Type (0, 0), BuildingBlock: EZIPEK_clean_linker_0, # of connection points: 2
#     Edge 141, Type (0, 0), BuildingBlock: EZIPEK_clean_linker_0, # of connection points: 2
#     Edge 142, Type (0, 0), BuildingBlock: EZIPEK_clean_linker_0, # of connection points: 2
#     Edge 143, Type (0, 0), BuildingBlock: EZIPEK_clean_linker_0, # of connection points: 2
# Relax obj value: 0.011
# Max RMSD: 0.066
# Mean RMSD: 0.066
data_MOF--net-ull--node1-QUQFOY_clean_sbu_1--edge1-EZIPEK_clean_linker_0
_symmetry_space_group_name_H-M    P1
_symmetry_Int_Tables_number       1
_symmetry_cell_setting            triclinic
loop_
_symmetry_equiv_pos_as_xyz
'x, y, z'
_cell_length_a     46.528487
_cell_length_b     46.538848
_cell_length_c     46.631618
_cell_angle_alpha  89.898705
_cell_angle_beta   89.929941
_cell_angle_gamma 90.049239
loop_
_atom_site_label
_atom_site_type_symbol
_atom_site_fract_x
_atom_site_fract_y
_atom_site_fract_z
_atom_type_partial_charge
O0 O 1.00797 0.3405 0.22872 0.0
Cd1 Cd 1.01014 0.37876 0.20636 0.0
Cd2 Cd 0.03602 0.34441 0.16659 0.0
O3 O 0.0356 0.31459 0.20008 0.0
O4 O 1.01165 0.41038 0.23577 0.0
O5 O 0.0478 0.39996 0.20669 0.0
C6 C 0.03797 0.41475 0.228 0.0
C7 C 0.07652 0.35368 0.13788 0.0
C8 C 0.02085 0.31712 0.223 0.0
C9 C 0.97711 0.36868 0.1526 0.0
O10 O 0.99708 0.35111 0.14641 0.0
O11 O 0.97875 0.38442 0.17491 0.0
O12 O 0.06246 0.3299 0.13576 0.0
O13 O 0.06859 0.37178 0.15728 0.0
O14 O 0.68536 1.00089 0.23235 0.0
Cd15 Cd 0.64807 1.00405 0.20867 0.0
Cd16 Cd 0.68305 0.03249 0.17231 0.0
O17 O 0.70973 0.03385 0.20836 0.0
O18 O 0.61454 1.00311 0.23598 0.0
O19 O 0.62719 0.04174 0.21118 0.0
C20 C 0.61085 0.03006 0.23036 0.0
C21 C 0.67221 0.07265 0.1438 0.0
C22 C 0.70753 0.01667 0.2296 0.0
C23 C 0.66168 0.97382 0.15444 0.0
O24 O 0.6802 0.99361 0.15088 0.0
O25 O 0.64383 0.97489 0.17514 0.0
O26 O 0.69718 0.06069 0.14281 0.0
O27 O 0.65367 0.0628 0.16193 0.0
O28 O 0.02005 0.6881 0.232 0.0
Cd29 Cd 0.01739 0.65014 0.20926 0.0
Cd30 Cd 0.99263 0.68513 0.1695 0.0
O31 O 0.99297 0.71456 0.20326 0.0
O32 O 0.01642 0.61751 0.23763 0.0
O33 O 0.97927 0.62976 0.21066 0.0
C34 C 0.98973 0.6139 0.23089 0.0
C35 C 0.95265 0.67518 0.14054 0.0
C36 C 1.00741 0.71166 0.22632 0.0
C37 C 0.05087 0.65998 0.15547 0.0
O38 O 0.03154 0.67826 0.1494 0.0
O39 O 0.04858 0.64404 0.17762 0.0
O40 O 0.96647 0.6991 0.13821 0.0
O41 O 0.96032 0.65751 0.16048 0.0
O42 O 0.33892 0.01931 0.23205 0.0
Cd43 Cd 0.37799 0.01716 0.21088 0.0
Cd44 Cd 0.34339 0.99501 0.16879 0.0
O45 O 0.3116 0.99669 0.20039 0.0
O46 O 0.40861 0.01464 0.24113 0.0
O47 O 0.39862 0.97903 0.21131 0.0
C48 C 0.413 0.98848 0.23306 0.0
C49 C 0.34742 0.95574 0.13626 0.0
C50 C 0.3147 1.00902 0.22462 0.0
C51 C 0.37234 0.05305 0.15847 0.0
O52 O 0.35454 0.03395 0.15068 0.0
O53 O 0.38647 0.05023 0.18168 0.0
O54 O 0.32848 0.97569 0.13346 0.0
O55 O 0.36339 0.95735 0.15879 0.0
O56 O 1.00849 0.68889 0.79444 0.0
Cd57 Cd 1.0117 0.65072 0.81674 0.0
Cd58 Cd 0.0356 0.68548 0.85697 0.0
O59 O 0.03517 0.71537 0.82342 0.0
O60 O 0.01465 0.6192 0.78737 0.0
O61 O 0.05023 0.63115 0.81647 0.0
C62 C 0.04106 0.6159 0.79523 0.0
C63 C 0.07578 0.67571 0.88582 0.0
C64 C 0.02083 0.71253 0.8003 0.0
C65 C 0.97749 0.65913 0.87024 0.0
O66 O 0.99658 0.67757 0.87669 0.0
O67 O 0.98011 0.64359 0.84788 0.0
O68 O 0.06175 0.69947 0.88828 0.0
O69 O 0.06811 0.65807 0.86591 0.0
O70 O 0.33887 1.00834 0.79099 0.0
Cd71 Cd 0.37655 1.01025 0.81427 0.0
Cd72 Cd 0.34132 0.03577 0.85298 0.0
O73 O 0.31247 0.03646 0.81872 0.0
O74 O 0.40925 1.00934 0.78604 0.0
O75 O 0.39869 0.04737 0.81249 0.0
C76 C 0.41408 0.0359 0.79246 0.0
C77 C 0.35242 0.07509 0.88242 0.0
C78 C 0.31549 0.0216 0.79595 0.0
C79 C 0.36431 0.97688 0.86748 0.0
O80 O 0.34608 0.99645 0.87287 0.0
O81 O 0.38127 0.97905 0.8461 0.0
O82 O 0.32791 0.06225 0.88421 0.0
O83 O 0.3702 0.06675 0.86286 0.0
O84 O 0.01791 0.33422 0.79305 0.0
Cd85 Cd 0.01565 0.37259 0.81493 0.0
Cd86 Cd 0.99072 0.33848 0.8552 0.0
O87 O 0.99077 0.30827 0.82222 0.0
O88 O 0.0132 0.40371 0.78495 0.0
O89 O 0.97778 0.39338 0.81492 0.0
C90 C 0.98701 0.40795 0.79316 0.0
C91 C 0.95041 0.34902 0.88351 0.0
C92 C 1.00523 0.31079 0.79912 0.0
C93 C 0.04947 0.36335 0.86841 0.0
O94 O 0.02977 0.34556 0.87497 0.0
O95 O 0.04742 0.37893 0.84596 0.0
O96 O 0.96405 0.32508 0.88638 0.0
O97 O 0.95866 0.3665 0.86362 0.0
O98 O 0.6838 0.02442 0.79145 0.0
Cd99 Cd 0.64627 0.02138 0.81494 0.0
Cd100 Cd 0.68174 0.99329 0.85195 0.0
O101 O 0.70888 0.9926 0.8161 0.0
O102 O 0.61347 0.01977 0.78682 0.0
O103 O 0.62584 0.98339 0.81485 0.0
C104 C 0.60992 0.99327 0.79438 0.0
C105 C 0.67325 0.95303 0.88129 0.0
C106 C 0.70634 1.0093 0.79452 0.0
C107 C 0.65851 0.05208 0.86904 0.0
O108 O 0.67674 0.03213 0.87313 0.0
O109 O 0.64134 0.05115 0.84779 0.0
O110 O 0.6974 0.96662 0.88209 0.0
O111 O 0.6544 0.96113 0.86267 0.0
O112 O 0.23329 1.00928 0.33584 0.0
Cd113 Cd 0.21058 1.01123 0.37394 0.0
Cd114 Cd 0.17086 0.03728 0.33985 0.0
O115 O 0.20465 0.03733 0.3103 0.0
O116 O 0.23903 1.0112 0.40649 0.0
O117 O 0.21227 0.04883 0.39524 0.0
C118 C 0.23243 0.0378 0.4108 0.0
C119 C 0.1424 0.07765 0.35007 0.0
C120 C 0.22763 0.0226 0.31268 0.0
C121 C 0.15618 0.97852 0.36363 0.0
O122 O 0.15016 0.99843 0.34594 0.0
O123 O 0.17853 0.98015 0.37936 0.0
O124 O 0.14022 0.06429 0.32597 0.0
O125 O 0.16182 0.06916 0.36794 0.0
O126 O 0.0178 0.23459 0.33317 0.0
Cd127 Cd 0.0151 0.212 0.37122 0.0
Cd128 Cd 0.99233 0.17149 0.33609 0.0
O129 O 0.99205 0.2051 0.30634 0.0
O130 O 1.0121 0.24156 0.40256 0.0
O131 O 0.97689 0.21159 0.39154 0.0
C132 C 0.98591 0.23315 0.40646 0.0
C133 C 0.95259 0.14193 0.34589 0.0
C134 C 1.00581 0.22859 0.30944 0.0
C135 C 0.05057 0.15936 0.36243 0.0
O136 O 0.03185 0.15273 0.34375 0.0
O137 O 0.04742 0.18157 0.37811 0.0
O138 O 0.96673 0.13963 0.3222 0.0
O139 O 0.95997 0.162 0.36349 0.0
O140 O 0.7929 0.02144 0.33962 0.0
Cd141 Cd 0.81663 0.01869 0.37682 0.0
Cd142 Cd 0.85362 0.99139 0.34167 0.0
O143 O 0.8174 0.98904 0.31524 0.0
O144 O 0.78857 0.01713 0.40973 0.0
O145 O 0.81637 0.98065 0.39719 0.0
C146 C 0.79592 0.99056 0.41313 0.0
C147 C 0.88358 0.95199 0.35143 0.0
C148 C 0.79583 1.00578 0.31751 0.0
C149 C 0.86981 0.05079 0.36303 0.0
O150 O 0.87377 0.03103 0.34462 0.0
O151 O 0.84916 0.04918 0.38096 0.0
O152 O 0.8837 0.96432 0.32664 0.0
O153 O 0.86546 0.96099 0.37036 0.0
O154 O 1.00792 0.7941 0.33678 0.0
Cd155 Cd 1.00984 0.81706 0.37463 0.0
Cd156 Cd 0.03465 0.85686 0.33968 0.0
O157 O 0.03522 0.82286 0.31048 0.0
O158 O 1.00982 0.78841 0.40697 0.0
O159 O 0.04731 0.8157 0.39614 0.0
C160 C 0.03634 0.79527 0.41147 0.0
C161 C 0.07433 0.88636 0.3497 0.0
C162 C 0.02088 0.79966 0.31339 0.0
C163 C 0.97595 0.87045 0.36413 0.0
O164 O 0.99529 0.8765 0.34582 0.0
O165 O 0.97824 0.84838 0.38018 0.0
O166 O 0.06061 0.88844 0.32578 0.0
O167 O 0.06653 0.86658 0.36755 0.0
O168 O 0.23425 0.01942 0.68445 0.0
Cd169 Cd 0.21156 0.01732 0.64647 0.0
Cd170 Cd 0.17216 0.99097 0.6811 0.0
O171 O 0.20586 0.99162 0.71061 0.0
O172 O 0.24062 0.01573 0.61447 0.0
O173 O 0.21153 0.97969 0.6255 0.0
C174 C 0.23266 0.98946 0.61031 0.0
C175 C 0.14353 0.9505 0.67172 0.0
C176 C 0.22875 1.00646 0.70785 0.0
C177 C 0.15731 0.04962 0.65674 0.0
O178 O 0.15147 0.02962 0.67442 0.0
O179 O 0.17968 0.04832 0.64096 0.0
O180 O 0.14142 0.96428 0.69559 0.0
O181 O 0.163 0.95858 0.65368 0.0
O182 O 1.00803 0.23093 0.68809 0.0
Cd183 Cd 1.0101 0.20962 0.64943 0.0
Cd184 Cd 0.03375 0.1682 0.68295 0.0
O185 O 0.03394 0.20057 0.71384 0.0
O186 O 0.01329 0.24003 0.6188 0.0
O187 O 0.04812 0.20931 0.62885 0.0
C188 C 0.03934 0.23142 0.61454 0.0
C189 C 0.07364 0.13931 0.67244 0.0
C190 C 0.02016 0.22412 0.71153 0.0
C191 C 0.975 0.15657 0.65729 0.0
O192 O 0.99441 0.14921 0.67498 0.0
O193 O 0.97754 0.17947 0.64242 0.0
O194 O 0.0592 0.13586 0.69581 0.0
O195 O 0.06635 0.15997 0.65547 0.0
O196 O 0.792 1.00562 0.6842 0.0
Cd197 Cd 0.81604 1.00895 0.64711 0.0
Cd198 Cd 0.8524 0.03671 0.68224 0.0
O199 O 0.81593 0.03849 0.70856 0.0
O200 O 0.78894 1.00847 0.61343 0.0
O201 O 0.81368 0.04689 0.62652 0.0
C202 C 0.79454 0.03546 0.61002 0.0
C203 C 0.88171 0.07633 0.67115 0.0
C204 C 0.79463 0.02135 0.70632 0.0
C205 C 0.86988 0.97785 0.66128 0.0
O206 O 0.87329 0.99746 0.67994 0.0
O207 O 0.84945 0.97936 0.64315 0.0
O208 O 0.882 0.06484 0.69633 0.0
O209 O 0.86373 0.06643 0.65256 0.0
O210 O 0.01822 0.79364 0.68881 0.0
Cd211 Cd 0.01605 0.81615 0.65059 0.0
Cd212 Cd 0.99275 0.85688 0.68568 0.0
O213 O 0.99241 0.82329 0.71545 0.0
O214 O 0.01333 0.78678 0.619 0.0
O215 O 0.97807 0.81669 0.63001 0.0
C216 C 0.98719 0.79522 0.615 0.0
C217 C 0.95307 0.88673 0.67663 0.0
C218 C 1.00612 0.79977 0.71249 0.0
C219 C 0.05131 0.86896 0.65962 0.0
O220 O 0.03232 0.87567 0.67806 0.0
O221 O 0.0484 0.84665 0.64405 0.0
O222 O 0.96747 0.88873 0.70015 0.0
O223 O 0.96017 0.86682 0.65873 0.0
O224 O 0.34068 0.23144 1.00533 0.0
Cd225 Cd 0.37928 0.20973 1.00748 0.0
Cd226 Cd 0.34598 0.1697 0.03409 0.0
O227 O 0.31539 0.20254 0.03343 0.0
O228 O 0.41092 0.23932 1.00749 0.0
O229 O 0.40064 0.21179 0.0449 0.0
C230 C 0.41541 0.23265 0.03402 0.0
C231 C 0.35776 0.14247 0.07495 0.0
C232 C 0.31744 0.22538 0.01839 0.0
C233 C 0.36954 0.15527 0.9752 0.0
O234 O 0.35229 0.14897 0.99543 0.0
O235 O 0.38506 0.17784 0.97652 0.0
O236 O 0.33369 0.13881 0.06175 0.0
O237 O 0.37463 0.16261 0.06599 0.0
O238 O 0.33952 0.79668 0.01775 0.0
Cd239 Cd 0.37567 0.8218 1.00946 0.0
Cd240 Cd 0.33644 0.85251 0.98553 0.0
O241 O 0.31388 0.81443 0.98222 0.0
O242 O 0.41011 0.7954 1.00827 0.0
O243 O 0.3926 0.81728 0.96997 0.0
C244 C 0.41072 0.79932 0.98082 0.0
C245 C 0.34727 0.88394 0.9478 0.0
C246 C 0.31742 0.79558 1.00171 0.0
C247 C 0.35875 0.87359 0.04106 0.0
O248 O 0.33628 0.87022 0.02602 0.0
O249 O 0.38102 0.85893 0.03473 0.0
O250 O 0.32161 0.88254 0.95829 0.0
O251 O 0.36646 0.86659 0.95773 0.0
O252 O 0.23419 0.33456 0.01429 0.0
Cd253 Cd 0.21196 0.3728 1.01124 0.0
Cd254 Cd 0.17147 0.33772 0.98861 0.0
O255 O 0.20487 0.30771 0.98835 0.0
O256 O 0.24175 0.40407 1.00842 0.0
O257 O 0.2122 0.39296 0.97298 0.0
C258 C 0.23371 0.40791 0.98218 0.0
C259 C 0.14182 0.34801 0.94923 0.0
C260 C 0.22823 0.31078 1.0023 0.0
C261 C 0.15915 0.36435 0.04654 0.0
O262 O 0.15267 0.3454 0.02805 0.0
O263 O 0.18134 0.38013 0.04327 0.0
O264 O 0.13915 0.32434 0.96341 0.0
O265 O 0.16224 0.36536 0.95639 0.0
O266 O 0.68633 0.23217 0.02163 0.0
Cd267 Cd 0.64811 0.20958 0.02 0.0
Cd268 Cd 0.68265 0.16966 0.99443 0.0
O269 O 0.71245 0.20316 0.99458 0.0
O270 O 0.61619 0.23869 0.0174 0.0
O271 O 0.62738 0.20878 0.98228 0.0
C272 C 0.61221 0.23018 0.99134 0.0
C273 C 0.67336 0.14079 0.95427 0.0
C274 C 0.70976 0.22635 1.00884 0.0
C275 C 0.65781 0.15568 0.05313 0.0
O276 O 0.67548 0.14948 0.03327 0.0
O277 O 0.64226 0.17818 0.05151 0.0
O278 O 0.6969 0.13826 0.9686 0.0
O279 O 0.65552 0.16062 0.96178 0.0
O280 O 0.79403 0.68429 0.02045 0.0
Cd281 Cd 0.81704 0.64652 0.01722 0.0
Cd282 Cd 0.85462 0.68134 0.9903 0.0
O283 O 0.81896 0.70857 0.98818 0.0
O284 O 0.78886 0.61364 0.01748 0.0
O285 O 0.81454 0.62592 0.97938 0.0
C286 C 0.79472 0.61 0.99064 0.0
C287 C 0.88445 0.67098 0.95101 0.0
C288 C 0.7974 0.70659 1.005 0.0
C289 C 0.87056 0.65913 0.04916 0.0
O290 O 0.87477 0.67792 0.02978 0.0
O291 O 0.84982 0.64135 0.04718 0.0
O292 O 0.88524 0.69569 0.96344 0.0
O293 O 0.86581 0.65241 0.9599 0.0
O294 O 0.6881 0.79336 1.0018 0.0
Cd295 Cd 0.65083 0.8169 1.00604 0.0
Cd296 Cd 0.68715 0.85439 0.03087 0.0
O297 O 0.71386 0.81827 0.03274 0.0
O298 O 0.61821 0.78855 1.00853 0.0
O299 O 0.63165 0.81621 0.04468 0.0
C300 C 0.6155 0.79576 0.03514 0.0
C301 C 0.67755 0.88411 0.07032 0.0
C302 C 0.71088 0.79644 0.01651 0.0
C303 C 0.66242 0.8699 0.9728 0.0
O304 O 0.68204 0.87416 0.99128 0.0
O305 O 0.64467 0.84924 0.97575 0.0
O306 O 0.702 0.8851 0.05729 0.0
O307 O 0.65898 0.8653 0.06197 0.0
O308 O 0.23464 0.68394 1.00557 0.0
Cd309 Cd 0.21105 0.64678 1.00977 0.0
Cd310 Cd 0.17396 0.68237 0.03536 0.0
O311 O 0.20991 0.70926 0.03708 0.0
O312 O 0.23925 0.61416 0.01266 0.0
O313 O 0.21155 0.62817 0.04866 0.0
C314 C 0.23207 0.61197 0.03936 0.0
C315 C 0.14371 0.67279 0.0745 0.0
C316 C 0.2315 0.70658 0.02042 0.0
C317 C 0.1583 0.6593 0.97677 0.0
O318 O 0.15428 0.67844 0.99577 0.0
O319 O 0.17878 0.64128 0.97924 0.0
O320 O 0.1432 0.69734 0.06165 0.0
O321 O 0.16226 0.65401 0.06612 0.0
O322 O 0.79209 0.33705 1.00699 0.0
Cd323 Cd 0.81467 0.37525 1.00798 0.0
Cd324 Cd 0.85482 0.34107 0.03306 0.0
O325 O 0.82109 0.31146 0.03457 0.0
O326 O 0.78557 0.40718 1.00994 0.0
O327 O 0.81536 0.39648 0.04538 0.0
C328 C 0.79404 0.41154 0.03596 0.0
C329 C 0.88468 0.35206 0.07207 0.0
C330 C 0.79783 0.31391 0.02034 0.0
C331 C 0.86762 0.36476 0.97379 0.0
O332 O 0.87388 0.34686 0.99342 0.0
O333 O 0.84548 0.38073 0.97589 0.0
O334 O 0.88688 0.32792 0.05873 0.0
O335 O 0.86465 0.36956 0.06429 0.0
O336 O 0.50271 0.84298 0.73103 0.0
Cd337 Cd 0.50552 0.8813 0.70894 0.0
Cd338 Cd 0.53518 0.84803 0.67158 0.0
O339 O 0.53599 0.81973 0.70654 0.0
O340 O 0.50656 0.91338 0.738 0.0
O341 O 0.54331 0.90195 0.71011 0.0
C342 C 0.53314 0.91726 0.73086 0.0
C343 C 0.57615 0.85963 0.64428 0.0
C344 C 0.51853 0.82098 0.72762 0.0
C345 C 0.47585 0.86941 0.65415 0.0
O346 O 0.49642 0.8519 0.64984 0.0
O347 O 0.47619 0.88627 0.67567 0.0
O348 O 0.56404 0.83479 0.64224 0.0
O349 O 0.56595 0.87755 0.66274 0.0
O350 O 0.1914 0.50885 0.73054 0.0
Cd351 Cd 0.15268 0.51125 0.70917 0.0
Cd352 Cd 0.18692 0.53435 0.6681 0.0
O353 O 0.2176 0.53481 0.7005 0.0
O354 O 0.12201 0.51394 0.73954 0.0
O355 O 0.13202 0.54925 0.70931 0.0
C356 C 0.11768 0.54008 0.73125 0.0
C357 C 0.17643 0.57373 0.63869 0.0
C358 C 0.21503 0.52092 0.72394 0.0
C359 C 0.16094 0.47586 0.65668 0.0
O360 O 0.17925 0.49487 0.64967 0.0
O361 O 0.14536 0.47889 0.679 0.0
O362 O 0.19988 0.55935 0.6355 0.0
O363 O 0.15941 0.56673 0.65943 0.0
O364 O 0.52352 0.18406 0.73126 0.0
Cd365 Cd 0.51952 0.14692 0.70754 0.0
Cd366 Cd 0.49203 0.18244 0.67131 0.0
O367 O 0.49075 0.20887 0.7076 0.0
O368 O 0.51952 0.11331 0.73477 0.0
O369 O 0.48125 0.12709 0.71015 0.0
C370 C 0.49244 0.11043 0.72932 0.0
C371 C 0.45221 0.1722 0.64213 0.0
C372 C 0.50799 0.2064 0.72873 0.0
C373 C 0.55049 0.16025 0.65364 0.0
O374 O 0.53118 0.17929 0.6503 0.0
O375 O 0.54884 0.14218 0.67413 0.0
O376 O 0.46443 0.19707 0.64154 0.0
O377 O 0.46154 0.15345 0.66029 0.0
O378 O 0.83814 0.51782 0.73172 0.0
Cd379 Cd 0.87548 0.51364 0.70838 0.0
Cd380 Cd 0.83976 0.48798 0.67136 0.0
O381 O 0.81294 0.48589 0.70748 0.0
O382 O 0.90802 0.51116 0.73671 0.0
O383 O 0.89457 0.47493 0.70912 0.0
C384 C 0.91066 0.48447 0.72956 0.0
C385 C 0.84994 0.44891 0.64115 0.0
C386 C 0.81555 0.50272 0.7289 0.0
C387 C 0.86319 0.5468 0.65576 0.0
O388 O 0.84386 0.52785 0.65179 0.0
O389 O 0.8812 0.54419 0.67616 0.0
O390 O 0.82522 0.46141 0.6406 0.0
O391 O 0.86853 0.45755 0.65974 0.0
O392 O 0.50339 0.1796 0.28951 0.0
Cd393 Cd 0.50627 0.14252 0.31362 0.0
Cd394 Cd 0.53481 0.17737 0.35004 0.0
O395 O 0.53581 0.20412 0.31396 0.0
O396 O 0.50619 0.10885 0.28665 0.0
O397 O 0.54426 0.12215 0.31185 0.0
C398 C 0.53312 0.10562 0.29259 0.0
C399 C 0.57508 0.16794 0.37889 0.0
C400 C 0.51898 0.20185 0.2925 0.0
C401 C 0.4759 0.15605 0.36799 0.0
O402 O 0.49606 0.17412 0.37174 0.0
O403 O 0.47676 0.13847 0.34707 0.0
O404 O 0.56256 0.19264 0.37927 0.0
O405 O 0.56588 0.14896 0.36093 0.0
O406 O 0.83623 0.51024 0.29247 0.0
Cd407 Cd 0.87437 0.51194 0.31496 0.0
Cd408 Cd 0.84049 0.53784 0.35483 0.0
O409 O 0.81084 0.53824 0.32125 0.0
O410 O 0.90687 0.51186 0.28645 0.0
O411 O 0.89597 0.54938 0.31347 0.0
C412 C 0.91141 0.53839 0.2932 0.0
C413 C 0.85089 0.57785 0.38357 0.0
C414 C 0.81312 0.52361 0.29826 0.0
C415 C 0.86389 0.47886 0.36884 0.0
O416 O 0.84635 0.4988 0.37512 0.0
O417 O 0.87957 0.48052 0.34647 0.0
O418 O 0.82667 0.56453 0.38567 0.0
O419 O 0.86877 0.56955 0.36407 0.0
O420 O 0.52235 0.83819 0.2949 0.0
Cd421 Cd 0.51388 0.87424 0.32009 0.0
Cd422 Cd 0.48931 0.83495 0.35042 0.0
O423 O 0.48661 0.81245 0.31242 0.0
O424 O 0.5146 0.90945 0.29472 0.0
O425 O 0.47483 0.89185 0.314 0.0
C426 C 0.48696 0.91044 0.29732 0.0
C427 C 0.451 0.84593 0.38105 0.0
C428 C 0.50628 0.81603 0.29376 0.0
C429 C 0.54417 0.85707 0.37278 0.0
O430 O 0.52943 0.83443 0.36902 0.0
O431 O 0.53799 0.87928 0.35799 0.0
O432 O 0.46114 0.82015 0.37958 0.0
O433 O 0.46159 0.8652 0.36411 0.0
O434 O 0.18663 0.52218 0.29408 0.0
Cd435 Cd 0.14839 0.51859 0.3162 0.0
Cd436 Cd 0.18316 0.49238 0.35463 0.0
O437 O 0.2113 0.49077 0.31959 0.0
O438 O 0.11681 0.51701 0.28673 0.0
O439 O 0.12804 0.4805 0.31505 0.0
C440 C 0.11299 0.49046 0.29398 0.0
C441 C 0.17353 0.45283 0.38463 0.0
C442 C 0.20926 0.50737 0.29789 0.0
C443 C 0.15923 0.55139 0.36922 0.0
O444 O 0.17797 0.53212 0.37416 0.0
O445 O 0.14209 0.54914 0.34806 0.0
O446 O 0.19768 0.46637 0.38588 0.0
O447 O 0.15514 0.46081 0.3655 0.0
O448 O 0.73165 0.50335 0.84055 0.0
Cd449 Cd 0.70834 0.50757 0.87799 0.0
Cd450 Cd 0.67099 0.5338 0.84206 0.0
O451 O 0.7068 0.5345 0.81483 0.0
O452 O 0.73634 0.50734 0.91088 0.0
O453 O 0.71107 0.54562 0.89834 0.0
C454 C 0.73065 0.53427 0.9144 0.0
C455 C 0.64165 0.5739 0.85112 0.0
C456 C 0.72838 0.51783 0.81762 0.0
C457 C 0.65473 0.47539 0.86599 0.0
O458 O 0.65045 0.49451 0.84696 0.0
O459 O 0.67555 0.47764 0.88356 0.0
O460 O 0.64065 0.56058 0.82692 0.0
O461 O 0.66037 0.56554 0.86978 0.0
O462 O 0.52131 0.73305 0.83517 0.0
Cd463 Cd 0.51718 0.71043 0.87285 0.0
Cd464 Cd 0.49198 0.67237 0.83772 0.0
O465 O 0.48983 0.70806 0.81023 0.0
O466 O 0.51437 0.7408 0.9034 0.0
O467 O 0.47886 0.71114 0.89293 0.0
C468 C 0.48795 0.73309 0.90723 0.0
C469 C 0.45247 0.64278 0.84851 0.0
C470 C 0.5063 0.72983 0.81269 0.0
C471 C 0.55053 0.65745 0.86242 0.0
O472 O 0.53175 0.65277 0.84315 0.0
O473 O 0.54783 0.6785 0.87967 0.0
O474 O 0.46506 0.64151 0.82389 0.0
O475 O 0.46129 0.66177 0.86662 0.0
O476 O 0.29672 0.5178 0.83369 0.0
Cd477 Cd 0.31865 0.51522 0.87198 0.0
Cd478 Cd 0.3594 0.49183 0.83756 0.0
O479 O 0.3264 0.49167 0.80738 0.0
O480 O 0.28874 0.51194 0.9031 0.0
O481 O 0.31887 0.47691 0.89203 0.0
C482 C 0.29711 0.48573 0.90681 0.0
C483 C 0.38799 0.45176 0.84796 0.0
C484 C 0.303 0.50561 0.81013 0.0
C485 C 0.37163 0.55027 0.86337 0.0
O486 O 0.3785 0.53116 0.84517 0.0
O487 O 0.34913 0.54752 0.87879 0.0
O488 O 0.39125 0.46592 0.82438 0.0
O489 O 0.36762 0.4594 0.86512 0.0
O490 O 0.50571 0.29065 0.83969 0.0
Cd491 Cd 0.50877 0.3139 0.87724 0.0
Cd492 Cd 0.53549 0.35129 0.84171 0.0
O493 O 0.53758 0.31548 0.81478 0.0
O494 O 0.51012 0.28545 0.90982 0.0
O495 O 0.54669 0.31344 0.89773 0.0
C496 C 0.53662 0.29289 0.91351 0.0
C497 C 0.57443 0.38179 0.85147 0.0
C498 C 0.5209 0.29385 0.81723 0.0
C499 C 0.47662 0.36708 0.86457 0.0
O500 O 0.4959 0.37114 0.84567 0.0
O501 O 0.47857 0.34641 0.88241 0.0
O502 O 0.56178 0.38223 0.82688 0.0
O503 O 0.56619 0.36292 0.87007 0.0
O504 O 0.73376 0.51993 0.18686 0.0
Cd505 Cd 0.71268 0.51867 0.1479 0.0
Cd506 Cd 0.67018 0.49566 0.18178 0.0
O507 O 0.70124 0.49801 0.21393 0.0
O508 O 0.74267 0.51472 0.11717 0.0
O509 O 0.71058 0.48091 0.12714 0.0
C510 C 0.73282 0.48917 0.11261 0.0
C511 C 0.63809 0.45592 0.17846 0.0
C512 C 0.72576 0.50995 0.211 0.0
C513 C 0.66024 0.55408 0.15311 0.0
O514 O 0.65184 0.53422 0.16982 0.0
O515 O 0.68417 0.55217 0.14 0.0
O516 O 0.63476 0.47629 0.19679 0.0
O517 O 0.66081 0.45744 0.16267 0.0
O518 O 0.50665 0.73315 0.18334 0.0
Cd519 Cd 0.50933 0.71041 0.1458 0.0
Cd520 Cd 0.53754 0.67263 0.17932 0.0
O521 O 0.53932 0.70813 0.20687 0.0
O522 O 0.51167 0.73966 0.11407 0.0
O523 O 0.54752 0.71078 0.12587 0.0
C524 C 0.53818 0.73206 0.11072 0.0
C525 C 0.57776 0.64439 0.16784 0.0
C526 C 0.5225 0.7297 0.20521 0.0
C527 C 0.47799 0.65632 0.15776 0.0
O528 O 0.4983 0.65164 0.17544 0.0
O529 O 0.47897 0.67785 0.14083 0.0
O530 O 0.56571 0.64268 0.1927 0.0
O531 O 0.56787 0.6629 0.1498 0.0
O532 O 0.29585 0.50531 0.18925 0.0
Cd533 Cd 0.31863 0.50848 0.15157 0.0
Cd534 Cd 0.35666 0.53459 0.1864 0.0
O535 O 0.321 0.53694 0.21391 0.0
O536 O 0.289 0.5103 0.12023 0.0
O537 O 0.31808 0.54636 0.13079 0.0
C538 C 0.29663 0.53669 0.11608 0.0
C539 C 0.38668 0.5738 0.17558 0.0
C540 C 0.29919 0.52046 0.21163 0.0
C541 C 0.37137 0.47532 0.16323 0.0
O542 O 0.37615 0.4947 0.18184 0.0
O543 O 0.35028 0.47747 0.14594 0.0
O544 O 0.38795 0.56107 0.20013 0.0
O545 O 0.36752 0.56525 0.15751 0.0
O546 O 0.52091 0.29332 0.18524 0.0
Cd547 Cd 0.51386 0.3195 0.1495 0.0
Cd548 Cd 0.48865 0.34949 0.18865 0.0
O549 O 0.48489 0.31094 0.21038 0.0
O550 O 0.51596 0.29468 0.11415 0.0
O551 O 0.47557 0.31397 0.1302 0.0
C552 C 0.48841 0.29739 0.11205 0.0
C553 C 0.45089 0.38108 0.1782 0.0
C554 C 0.50427 0.29197 0.20693 0.0
C555 C 0.5444 0.37161 0.16808 0.0
O556 O 0.52906 0.36767 0.19027 0.0
O557 O 0.53856 0.3572 0.14561 0.0
O558 O 0.46081 0.37868 0.20393 0.0
O559 O 0.46136 0.36454 0.15858 0.0
O560 O 0.83511 0.73315 0.51002 0.0
Cd561 Cd 0.87366 0.71111 0.51117 0.0
Cd562 Cd 0.83946 0.66973 0.53509 0.0
O563 O 0.80945 0.70307 0.53647 0.0
O564 O 0.90512 0.7408 0.51337 0.0
O565 O 0.89515 0.71043 0.54859 0.0
C566 C 0.90982 0.73214 0.53928 0.0
C567 C 0.84899 0.63943 0.57429 0.0
C568 C 0.81183 0.7267 0.52282 0.0
C569 C 0.86444 0.65848 0.47598 0.0
O570 O 0.8465 0.65136 0.49531 0.0
O571 O 0.87983 0.681 0.4786 0.0
O572 O 0.82529 0.63752 0.56013 0.0
O573 O 0.86688 0.65946 0.56719 0.0
O574 O 0.83617 0.29362 0.51531 0.0
Cd575 Cd 0.87406 0.31642 0.51292 0.0
Cd576 Cd 0.8391 0.35651 0.48911 0.0
O577 O 0.80979 0.32251 0.48837 0.0
O578 O 0.90583 0.28724 0.50985 0.0
O579 O 0.89412 0.31698 0.47468 0.0
C580 C 0.90935 0.29557 0.48362 0.0
C581 C 0.84894 0.38628 0.4497 0.0
C582 C 0.81273 0.29924 0.50254 0.0
C583 C 0.86422 0.36922 0.54768 0.0
O584 O 0.84594 0.37564 0.52848 0.0
O585 O 0.88026 0.34717 0.54497 0.0
O586 O 0.82501 0.38826 0.46352 0.0
O587 O 0.86685 0.36653 0.45726 0.0
O588 O 0.73341 0.83911 0.52066 0.0
Cd589 Cd 0.71277 0.87847 0.51971 0.0
Cd590 Cd 0.66953 0.84497 0.4971 0.0
O591 O 0.7003 0.81242 0.49933 0.0
O592 O 0.74325 0.90886 0.51578 0.0
O593 O 0.71091 0.8998 0.48217 0.0
C594 C 0.73342 0.9139 0.49037 0.0
C595 C 0.63724 0.84821 0.45761 0.0
C596 C 0.725 0.81502 0.51088 0.0
C597 C 0.66022 0.87382 0.55541 0.0
O598 O 0.6515 0.85721 0.53569 0.0
O599 O 0.68444 0.88644 0.55342 0.0
O600 O 0.63388 0.83006 0.4782 0.0
O601 O 0.66003 0.86394 0.45882 0.0
O602 O 0.18508 0.73338 0.52094 0.0
Cd603 Cd 0.14757 0.7101 0.51644 0.0
Cd604 Cd 0.18328 0.67336 0.48994 0.0
O605 O 0.21028 0.70927 0.48885 0.0
O606 O 0.11432 0.73776 0.516 0.0
O607 O 0.1282 0.71285 0.47803 0.0
C608 C 0.11159 0.73218 0.489 0.0
C609 C 0.17322 0.6439 0.45037 0.0
C610 C 0.20773 0.73051 0.50592 0.0
C611 C 0.15982 0.65634 0.548 0.0
O612 O 0.17916 0.6527 0.52908 0.0
O613 O 0.14171 0.67672 0.54565 0.0
O614 O 0.19783 0.64297 0.46303 0.0
O615 O 0.15482 0.66279 0.45895 0.0
O616 O 0.29433 0.18751 0.51891 0.0
Cd617 Cd 0.31682 0.14928 0.51648 0.0
Cd618 Cd 0.35693 0.18389 0.49167 0.0
O619 O 0.32342 0.21369 0.49182 0.0
O620 O 0.2881 0.11684 0.51545 0.0
O621 O 0.31543 0.12884 0.47846 0.0
C622 C 0.29498 0.11315 0.48885 0.0
C623 C 0.38598 0.17369 0.45181 0.0
C624 C 0.30025 0.21102 0.50624 0.0
C625 C 0.37075 0.15893 0.54996 0.0
O626 O 0.37697 0.1771 0.53055 0.0
O627 O 0.34846 0.14312 0.54776 0.0
O628 O 0.38848 0.19756 0.4656 0.0
O629 O 0.36596 0.1561 0.45959 0.0
O630 O 0.19033 0.29409 0.50752 0.0
Cd631 Cd 0.15221 0.31653 0.51014 0.0
Cd632 Cd 0.18684 0.35647 0.53491 0.0
O633 O 0.2166 0.32282 0.53469 0.0
O634 O 0.12041 0.28721 0.5125 0.0
O635 O 0.13207 0.31606 0.54833 0.0
C636 C 0.1168 0.29492 0.53887 0.0
C637 C 0.176 0.38471 0.57515 0.0
C638 C 0.2138 0.29973 0.52025 0.0
C639 C 0.16149 0.37055 0.47667 0.0
O640 O 0.17965 0.37673 0.49606 0.0
O641 O 0.1458 0.34815 0.47882 0.0
O642 O 0.19999 0.38772 0.56159 0.0
O643 O 0.15875 0.3646 0.56699 0.0
O644 O 0.73289 0.18628 0.50319 0.0
Cd645 Cd 0.71024 0.14806 0.50547 0.0
Cd646 Cd 0.6696 0.18301 0.52903 0.0
O647 O 0.70308 0.21279 0.52897 0.0
O648 O 0.73915 0.11591 0.50634 0.0
O649 O 0.71135 0.12697 0.54324 0.0
C650 C 0.73201 0.11166 0.53279 0.0
C651 C 0.6405 0.17401 0.56917 0.0
C652 C 0.72663 0.20994 0.51528 0.0
C653 C 0.65683 0.15722 0.47097 0.0
O654 O 0.65017 0.17564 0.48993 0.0
O655 O 0.67926 0.14174 0.47367 0.0
O656 O 0.63825 0.19757 0.55475 0.0
O657 O 0.66024 0.15599 0.56175 0.0
O658 O 0.29363 0.84008 0.50305 0.0
Cd659 Cd 0.31711 0.87754 0.50549 0.0
Cd660 Cd 0.35432 0.84239 0.53269 0.0
O661 O 0.31824 0.81559 0.53531 0.0
O662 O 0.28872 0.91013 0.50715 0.0
O663 O 0.31714 0.89807 0.54326 0.0
C664 C 0.29636 0.91371 0.53354 0.0
C665 C 0.38462 0.85261 0.57159 0.0
C666 C 0.29663 0.81787 0.51865 0.0
C667 C 0.37 0.8641 0.47324 0.0
O668 O 0.37413 0.84568 0.49298 0.0
O669 O 0.34932 0.88197 0.47485 0.0
O670 O 0.38516 0.82789 0.55916 0.0
O671 O 0.36598 0.87121 0.56295 0.0
C672 C 0.10382 0.44447 0.26693 0.0
C673 C 0.09348 0.47131 0.27714 0.0
C674 C 0.04799 0.46285 0.25155 0.0
C675 C 0.05708 0.43454 0.24457 0.0
N676 N 0.0913 0.39623 0.25259 0.0
N677 N 0.05338 0.50358 0.28347 0.0
C678 C 0.08435 0.42472 0.2542 0.0
C679 C 0.06489 0.47986 0.27062 0.0
N680 N 0.1325 0.4382 0.26805 0.0
N681 N 0.02384 0.47398 0.23916 0.0
H682 H 0.06466 0.51605 0.29822 0.0
H683 H 0.03177 0.50916 0.28173 0.0
H684 H 1.01144 0.46262 0.22441 0.0
H685 H 0.0178 0.49543 0.24125 0.0
H686 H 0.14134 0.42012 0.25827 0.0
H687 H 0.1479 0.45249 0.27576 0.0
H688 H 0.10977 0.38771 0.26194 0.0
H689 H 0.07726 0.38057 0.24494 0.0
C690 C 0.58983 0.04852 0.27689 0.0
C691 C 0.58931 0.0476 0.24638 0.0
C692 C 0.5526 0.08552 0.24612 0.0
C693 C 0.5513 0.08461 0.2766 0.0
N694 N 0.56425 0.06057 0.32056 0.0
N695 N 0.56546 0.06059 0.20236 0.0
C696 C 0.5686 0.06469 0.29185 0.0
C697 C 0.56925 0.06472 0.23112 0.0
N698 N 0.6115 0.03534 0.29168 0.0
N699 N 0.53931 0.10718 0.2314 0.0
H700 H 0.57673 0.04512 0.19075 0.0
H701 H 0.54908 0.07038 0.19069 0.0
H702 H 0.5276 0.12343 0.24134 0.0
H703 H 0.54228 0.11068 0.20952 0.0
H704 H 0.61471 0.03809 0.31361 0.0
H705 H 0.62799 0.02393 0.28178 0.0
H706 H 0.57418 0.04424 0.33221 0.0
H707 H 0.54851 0.07153 0.33214 0.0
C708 C 0.95354 0.57345 0.23171 0.0
C709 C 0.97111 0.59316 0.2469 0.0
C710 C 0.95321 0.57302 0.29238 0.0
C711 C 0.93279 0.55627 0.27718 0.0
N712 N 0.90978 0.54539 0.23197 0.0
N713 N 0.98294 0.61565 0.29214 0.0
C714 C 0.93199 0.55767 0.2467 0.0
C715 C 0.9698 0.59396 0.27739 0.0
N716 N 0.9579 0.56913 0.20305 0.0
N717 N 0.95742 0.56843 0.32102 0.0
H718 H 0.99416 0.6323 0.28218 0.0
H719 H 0.98009 0.61885 0.31407 0.0
H720 H 0.94633 0.55275 0.3326 0.0
H721 H 0.97403 0.57803 0.33252 0.0
H722 H 0.94762 0.55294 0.19154 0.0
H723 H 0.97398 0.57962 0.19147 0.0
H724 H 0.90665 0.5484 0.21005 0.0
H725 H 0.89273 0.53479 0.24194 0.0
C726 C 0.47166 0.93354 0.2505 0.0
C727 C 0.46933 0.93168 0.2809 0.0
C728 C 0.4286 0.96525 0.27947 0.0
C729 C 0.43278 0.96929 0.24951 0.0
N730 N 0.46207 0.96142 0.20757 0.0
N731 N 0.44954 0.95069 0.32477 0.0
C732 C 0.45542 0.95461 0.23532 0.0
C733 C 0.44894 0.94899 0.29551 0.0
N734 N 0.4882 0.91424 0.23584 0.0
N735 N 0.4044 0.97564 0.29248 0.0
H736 H 0.46455 0.93974 0.33726 0.0
H737 H 0.43714 0.96523 0.33639 0.0
H738 H 0.38837 0.98675 0.2815 0.0
H739 H 0.39878 0.97067 0.31355 0.0
H740 H 0.48809 0.91254 0.21357 0.0
H741 H 0.49996 0.89805 0.24583 0.0
H742 H 0.48026 0.95365 0.19711 0.0
H743 H 0.451 0.97699 0.19588 0.0
C744 C 0.06977 0.55028 0.75493 0.0
C745 C 0.09791 0.55953 0.74746 0.0
C746 C 0.08757 0.6067 0.76876 0.0
C747 C 0.06078 0.5963 0.7792 0.0
N748 N 0.02914 0.55598 0.787 0.0
N749 N 0.13584 0.59449 0.75392 0.0
C750 C 0.05263 0.56745 0.77361 0.0
C751 C 0.10746 0.58718 0.75621 0.0
N752 N 0.05883 0.52573 0.74324 0.0
N753 N 0.09364 0.63543 0.76953 0.0
H754 H 0.15153 0.5805 0.74623 0.0
H755 H 0.14431 0.61327 0.76266 0.0
H756 H 0.07932 0.65076 0.77734 0.0
H757 H 0.11159 0.64437 0.75952 0.0
H758 H 0.03747 0.51963 0.74569 0.0
H759 H 0.07011 0.51311 0.7286 0.0
H760 H 0.024 0.53425 0.78611 0.0
H761 H 0.01652 0.56749 0.80148 0.0
C762 C 0.43418 0.05508 0.7458 0.0
C763 C 0.43564 0.05329 0.77622 0.0
C764 C 0.47388 0.08972 0.7761 0.0
C765 C 0.4742 0.08955 0.74556 0.0
N766 N 0.45914 0.06676 0.70166 0.0
N767 N 0.46149 0.06407 0.81968 0.0
C768 C 0.45569 0.0706 0.73051 0.0
C769 C 0.45691 0.06916 0.79118 0.0
N770 N 0.41137 0.04343 0.73146 0.0
N771 N 0.4884 0.11052 0.79086 0.0
H772 H 0.44994 0.04876 0.83132 0.0
H773 H 0.47867 0.07287 0.83098 0.0
H774 H 0.50035 0.12665 0.78093 0.0
H775 H 0.48624 0.1135 0.8129 0.0
H776 H 0.40773 0.04682 0.70967 0.0
H777 H 0.39445 0.03289 0.74169 0.0
H778 H 0.44816 0.05108 0.6901 0.0
H779 H 0.47515 0.07711 0.68984 0.0
C780 C 0.95954 0.47262 0.75015 0.0
C781 C 0.9304 0.46486 0.74556 0.0
C782 C 0.93951 0.41844 0.76901 0.0
C783 C 0.96751 0.42774 0.77698 0.0
N784 N 1.00189 0.46649 0.77968 0.0
N785 N 0.89107 0.43285 0.75709 0.0
C786 C 0.97694 0.45562 0.76877 0.0
C787 C 0.91991 0.43846 0.75681 0.0
N788 N 0.97104 0.49556 0.73587 0.0
N789 N 0.93192 0.39018 0.77162 0.0
H790 H 0.87571 0.44732 0.7496 0.0
H791 H 0.88221 0.41519 0.76768 0.0
H792 H 0.94599 0.3743 0.77877 0.0
H793 H 0.91275 0.38195 0.7635 0.0
H794 H 0.99292 0.50016 0.73592 0.0
H795 H 0.95933 0.50808 0.72147 0.0
H796 H 1.00831 0.48766 0.77649 0.0
H797 H 0.0146 0.45544 0.79441 0.0
C798 C 0.56112 0.98274 0.77239 0.0
C799 C 0.58977 0.97399 0.77846 0.0
C800 C 0.57947 0.92698 0.75702 0.0
C801 C 0.55227 0.93699 0.74746 0.0
N802 N 0.5195 0.97681 0.74171 0.0
N803 N 0.62812 0.94014 0.76917 0.0
C804 C 0.54366 0.96556 0.75397 0.0
C805 C 0.59951 0.94677 0.76871 0.0
N806 N 0.55012 1.00681 0.78502 0.0
N807 N 0.58589 0.89833 0.75626 0.0
H808 H 0.64396 0.95449 0.77582 0.0
H809 H 0.63641 0.92163 0.75971 0.0
H810 H 0.57135 0.88268 0.74954 0.0
H811 H 0.6044 0.88981 0.76554 0.0
H812 H 0.52854 1.0126 0.78356 0.0
H813 H 0.56179 0.01937 0.79938 0.0
H814 H 0.51381 0.99838 0.74347 0.0
H815 H 0.50669 0.96535 0.72739 0.0
C816 C 0.27905 0.05687 0.4314 0.0
C817 C 0.24848 0.0557 0.43208 0.0
C818 C 0.24834 0.09354 0.4688 0.0
C819 C 0.27888 0.0925 0.47026 0.0
N820 N 0.32273 0.06809 0.45733 0.0
N821 N 0.2045 0.06836 0.45639 0.0
C822 C 0.29407 0.07262 0.45286 0.0
C823 C 0.23326 0.07267 0.45228 0.0
N824 N 0.29386 0.04439 0.40937 0.0
N825 N 0.23364 0.11538 0.48176 0.0
H826 H 0.19284 0.05276 0.44535 0.0
H827 H 0.19293 0.07811 0.47286 0.0
H828 H 0.24367 0.13195 0.49293 0.0
H829 H 0.2117 0.11876 0.4788 0.0
H830 H 0.31587 0.04722 0.4063 0.0
H831 H 0.2839 0.0338 0.3924 0.0
H832 H 0.33421 0.05178 0.44721 0.0
H833 H 0.33432 0.07855 0.47335 0.0
C834 C 0.91903 0.27014 0.43676 0.0
C835 C 0.92913 0.27985 0.46382 0.0
C836 C 0.97518 0.2555 0.45476 0.0
C837 C 0.96626 0.24887 0.42641 0.0
N838 N 0.93179 0.25657 0.38838 0.0
N839 N 0.96903 0.28646 0.49606 0.0
C840 C 0.93875 0.25803 0.41681 0.0
C841 C 0.95784 0.27381 0.47215 0.0
N842 N 0.89036 0.27115 0.43044 0.0
N843 N 0.99963 0.24342 0.46558 0.0
H844 H 0.95747 0.30074 0.50885 0.0
H845 H 0.99065 0.28517 0.50145 0.0
H846 H 1.0123 0.22902 0.45405 0.0
H847 H 1.0057 0.24533 0.48694 0.0
H848 H 0.88163 0.26164 0.4122 0.0
H849 H 0.87486 0.27856 0.44478 0.0
H850 H 0.91315 0.26566 0.37996 0.0
H851 H 0.94595 0.24923 0.37268 0.0
C852 C 0.7566 0.96206 0.47972 0.0
C853 C 0.74877 0.93401 0.47052 0.0
C854 C 0.76858 0.94476 0.42284 0.0
C855 C 0.77975 0.97126 0.43311 0.0
N856 N 0.78853 1.00277 0.47321 0.0
N857 N 0.75382 0.89648 0.43503 0.0
C858 C 0.77486 0.97931 0.46209 0.0
C859 C 0.75653 0.92474 0.44254 0.0
N860 N 0.74574 0.97273 0.50477 0.0
N861 N 0.76819 0.93909 0.39408 0.0
H862 H 0.74643 0.88065 0.44906 0.0
H863 H 0.76194 0.88822 0.41591 0.0
H864 H 0.7755 0.95357 0.37863 0.0
H865 H 0.75762 0.92139 0.38539 0.0
H866 H 0.74839 0.99402 0.51112 0.0
H867 H 0.73159 0.96119 0.51779 0.0
H868 H 0.78807 1.00796 0.49493 0.0
H869 H 0.80267 0.01546 0.4613 0.0
C870 C 0.07029 0.79406 0.45365 0.0
C871 C 0.05423 0.77907 0.43258 0.0
C872 C 0.07186 0.73327 0.45225 0.0
C873 C 0.09084 0.74839 0.47066 0.0
N874 N 0.11194 0.7938 0.48462 0.0
N875 N 0.0445 0.73427 0.4082 0.0
C876 C 0.09102 0.77899 0.47034 0.0
C877 C 0.05618 0.7486 0.43095 0.0
N878 N 0.06519 0.82258 0.45837 0.0
N879 N 0.06809 0.70434 0.45562 0.0
H880 H 0.03389 0.74456 0.3914 0.0
H881 H 0.04796 0.71248 0.40444 0.0
H882 H 0.07852 0.69247 0.47148 0.0
H883 H 0.05238 0.69273 0.44471 0.0
H884 H 0.07415 0.83388 0.47544 0.0
H885 H 0.04974 0.83422 0.44708 0.0
H886 H 0.11489 0.8159 0.48248 0.0
H887 H 0.12822 0.78386 0.49629 0.0
C888 C 0.25545 0.97935 0.56189 0.0
C889 C 0.2488 0.97029 0.59028 0.0
C890 C 0.27018 0.92322 0.57991 0.0
C891 C 0.28013 0.93346 0.55293 0.0
N892 N 0.28666 0.97355 0.52063 0.0
N893 N 0.25707 0.93589 0.62837 0.0
C894 C 0.27398 0.96219 0.54454 0.0
C895 C 0.2582 0.94287 0.59989 0.0
N896 N 0.24322 1.00371 0.55101 0.0
N897 N 0.2708 0.89451 0.58614 0.0
H898 H 0.25005 0.95006 0.64417 0.0
H899 H 0.26628 0.91723 0.63666 0.0
H900 H 0.27784 0.87898 0.57167 0.0
H901 H 0.26117 0.88583 0.60439 0.0
H902 H 0.24505 1.00977 0.52957 0.0
H903 H 0.22881 0.01631 0.56262 0.0
H904 H 0.2852 0.9952 0.5151 0.0
H905 H 0.30105 0.96205 0.5079 0.0
C906 C 0.08693 0.25578 0.60466 0.0
C907 C 0.05917 0.24749 0.59495 0.0
C908 C 0.06791 0.27376 0.54992 0.0
C909 C 0.0968 0.27887 0.55824 0.0
N910 N 0.13552 0.26848 0.59119 0.0
N911 N 0.02541 0.24417 0.55588 0.0
C912 C 0.10681 0.26813 0.58497 0.0
C913 C 0.05023 0.25529 0.56688 0.0
N914 N 0.09398 0.25327 0.63301 0.0
N915 N 0.05693 0.28742 0.52643 0.0
H916 H 1.01248 0.22964 0.56702 0.0
H917 H 0.01921 0.24704 0.53466 0.0
H918 H 0.06884 0.30171 0.5139 0.0
H919 H 0.03524 0.28695 0.52121 0.0
H920 H 0.11287 0.2617 0.64158 0.0
H921 H 0.07973 0.24579 0.64858 0.0
H922 H 0.14415 0.25824 0.6091 0.0
H923 H 0.15108 0.27619 0.57703 0.0
C924 C 0.79376 0.07152 0.56953 0.0
C925 C 0.77849 0.05334 0.58871 0.0
C926 C 0.73299 0.06988 0.56744 0.0
C927 C 0.7481 0.09081 0.55116 0.0
N928 N 0.79299 0.11522 0.54138 0.0
N929 N 0.73287 0.03958 0.60964 0.0
C930 C 0.77856 0.09256 0.55334 0.0
C931 C 0.74789 0.05356 0.5886 0.0
N932 N 0.82274 0.06818 0.56608 0.0
N933 N 0.70453 0.06492 0.56217 0.0
H934 H 0.74266 0.02823 0.62622 0.0
H935 H 0.71074 0.0417 0.61232 0.0
H936 H 0.69302 0.07591 0.54642 0.0
H937 H 0.69317 0.04792 0.57134 0.0
H938 H 0.83448 0.07888 0.55029 0.0
H939 H 0.83452 0.0525 0.5769 0.0
H940 H 0.81475 0.1191 0.54496 0.0
H941 H 0.78279 0.13185 0.53041 0.0
C942 C 0.92034 0.75743 0.58592 0.0
C943 C 0.92995 0.74808 0.55854 0.0
C944 C 0.97592 0.77303 0.56665 0.0
C945 C 0.9675 0.77929 0.59528 0.0
N946 N 0.93401 0.77067 0.63409 0.0
N947 N 0.96914 0.74256 0.52505 0.0
C948 C 0.94035 0.7696 0.60547 0.0
C949 C 0.95839 0.75468 0.54947 0.0
N950 N 0.89183 0.75605 0.59293 0.0
N951 N 1.00004 0.78547 0.5554 0.0
H952 H 0.95735 0.72839 0.51237 0.0
H953 H 0.99063 0.74428 0.51895 0.0
H954 H 1.01295 0.79964 0.56695 0.0
H955 H 1.00563 0.784 0.53381 0.0
H956 H 0.88343 0.7653 0.61147 0.0
H957 H 0.87607 0.74862 0.57891 0.0
H958 H 0.9157 0.76118 0.64287 0.0
H959 H 0.94841 0.77808 0.64952 0.0
C960 C 0.47386 0.25054 0.08857 0.0
C961 C 0.47161 0.28101 0.0902 0.0
C962 C 0.43195 0.27969 0.05544 0.0
C963 C 0.43576 0.24954 0.05212 0.0
N964 N 0.46457 0.20745 0.06089 0.0
N965 N 0.453 0.32499 0.07013 0.0
C966 C 0.45801 0.23533 0.0673 0.0
C967 C 0.45199 0.2957 0.07209 0.0
N968 N 0.48982 0.23582 0.10832 0.0
N969 N 0.40832 0.29291 0.04409 0.0
H970 H 0.4678 0.33741 0.08145 0.0
H971 H 0.44124 0.33667 0.05512 0.0
H972 H 0.39258 0.28204 0.03248 0.0
H973 H 0.40284 0.31413 0.04856 0.0
H974 H 0.48953 0.2135 0.11014 0.0
H975 H 0.50126 0.24579 0.1247 0.0
H976 H 0.48252 0.19689 0.06907 0.0
H977 H 0.45373 0.19576 0.04518 0.0
C978 C 0.46038 0.78084 0.9684 0.0
C979 C 0.43063 0.78254 0.96202 0.0
C980 C 0.43937 0.75553 0.91767 0.0
C981 C 0.46817 0.74992 0.92631 0.0
N982 N 0.50399 0.75297 0.96365 0.0
N983 N 0.39087 0.76514 0.93353 0.0
C984 C 0.47814 0.76144 0.95272 0.0
C985 C 0.41982 0.76803 0.93752 0.0
N986 N 0.47204 0.79853 0.9886 0.0
N987 N 0.4309 0.75068 0.89005 0.0
H988 H 0.37566 0.77271 0.9481 0.0
H989 H 0.38213 0.75237 0.91738 0.0
H990 H 0.44491 0.744 0.87395 0.0
H991 H 0.41083 0.75688 0.8823 0.0
H992 H 0.49413 0.80073 0.99135 0.0
H993 H 0.45998 0.81346 1.00013 0.0
H994 H 0.51135 0.75949 0.98363 0.0
H995 H 0.51662 0.737 0.95438 0.0
C996 C 0.2719 0.43848 0.91608 0.0
C997 C 0.28109 0.46576 0.92627 0.0
C998 C 0.2557 0.45651 0.97164 0.0
C999 C 0.24965 0.42798 0.96277 0.0
N1000 N 0.25833 0.38988 0.92866 0.0
N1001 N 0.28632 0.49833 0.96612 0.0
C1002 C 0.2595 0.41839 0.93556 0.0
C1003 C 0.27425 0.47414 0.95473 0.0
N1004 N 0.27364 0.43208 0.88753 0.0
N1005 N 0.24277 0.46732 0.99559 0.0
H1006 H 0.3008 0.51125 0.95488 0.0
H1007 H 0.28433 0.50391 0.98762 0.0
H1008 H 0.22827 0.45562 1.00806 0.0
H1009 H 0.24402 0.48887 1.00118 0.0
H1010 H 0.26454 0.41365 0.87868 0.0
H1011 H 0.28123 0.44651 0.87216 0.0
H1012 H 0.26792 0.38147 0.9103 0.0
H1013 H 0.25063 0.37415 0.94264 0.0
C1014 C 0.56397 0.25302 0.98018 0.0
C1015 C 0.59245 0.246 0.97159 0.0
C1016 C 0.58268 0.26645 0.92401 0.0
C1017 C 0.55566 0.27682 0.93374 0.0
N1018 N 0.52297 0.28439 0.97326 0.0
N1019 N 0.63099 0.25319 0.9374 0.0
C1020 C 0.54692 0.27131 0.96246 0.0
C1021 C 0.60241 0.25471 0.94408 0.0
N1022 N 0.55273 0.24137 1.00466 0.0
N1023 N 0.58917 0.26647 0.89541 0.0
H1024 H 0.64664 0.24636 0.95185 0.0
H1025 H 0.63955 0.26191 0.91864 0.0
H1026 H 0.57489 0.27337 0.87964 0.0
H1027 H 0.60744 0.25652 0.88712 0.0
H1028 H 0.5312 0.24348 1.01045 0.0
H1029 H 0.56412 0.22716 0.01769 0.0
H1030 H 0.51723 0.28341 0.99484 0.0
H1031 H 0.51045 0.29863 0.96134 0.0
C1032 C 0.77767 0.55287 0.93443 0.0
C1033 C 0.7471 0.55211 0.93538 0.0
C1034 C 0.74765 0.59019 0.97185 0.0
C1035 C 0.77822 0.58908 0.97275 0.0
N1036 N 0.8218 0.56442 0.95948 0.0
N1037 N 0.70342 0.56546 0.95984 0.0
C1038 C 0.79307 0.56892 0.9554 0.0
C1039 C 0.73222 0.56941 0.95555 0.0
N1040 N 0.79212 0.53961 0.91261 0.0
N1041 N 0.73325 0.61201 0.98519 0.0
H1042 H 0.6915 0.55001 0.94885 0.0
H1043 H 0.69204 0.57537 0.97633 0.0
H1044 H 0.7435 0.62825 0.99663 0.0
H1045 H 0.71133 0.61563 0.98251 0.0
H1046 H 0.8141 0.54219 0.90915 0.0
H1047 H 0.78189 0.52839 0.89623 0.0
H1048 H 0.83312 0.54792 0.94949 0.0
H1049 H 0.83368 0.57519 0.97508 0.0
C1050 C 0.54895 0.75633 0.06327 0.0
C1051 C 0.5579 0.74838 0.09127 0.0
C1052 C 0.60557 0.76887 0.08122 0.0
C1053 C 0.5955 0.77987 0.05463 0.0
N1054 N 0.55514 0.78952 0.02373 0.0
N1055 N 0.59266 0.75458 0.12937 0.0
C1056 C 0.56648 0.77513 0.04658 0.0
C1057 C 0.58565 0.75674 0.10099 0.0
N1058 N 0.52436 0.74501 0.05199 0.0
N1059 N 0.63431 0.76877 0.08729 0.0
H1060 H 0.57826 0.74761 0.14505 0.0
H1061 H 0.61162 0.76297 0.1378 0.0
H1062 H 0.64991 0.77617 0.07301 0.0
H1063 H 0.64284 0.75839 0.10518 0.0
H1064 H 0.51825 0.74814 0.03077 0.0
H1065 H 0.51169 0.72997 0.06276 0.0
H1066 H 0.53323 0.78953 0.01937 0.0
H1067 H 0.5669 0.80404 1.01133 0.0
C1068 C 0.25242 0.56324 0.05197 0.0
C1069 C 0.24807 0.5925 0.0592 0.0
C1070 C 0.27201 0.58396 0.10535 0.0
C1071 C 0.28008 0.5559 0.09631 0.0
N1072 N 0.28222 0.52107 0.05802 0.0
N1073 N 0.25979 0.6322 0.09048 0.0
C1074 C 0.27141 0.5461 0.06879 0.0
C1075 C 0.25958 0.60332 0.08525 0.0
N1076 N 0.23752 0.55138 0.02975 0.0
N1077 N 0.27464 0.59179 0.13346 0.0
H1078 H 0.25201 0.64738 0.07598 0.0
H1079 H 0.27056 0.64126 0.10786 0.0
H1080 H 0.28172 0.57782 0.14945 0.0
H1081 H 0.2665 0.61103 0.14147 0.0
H1082 H 0.23711 0.52938 0.02603 0.0
H1083 H 0.22296 0.56293 0.01726 0.0
H1084 H 0.27842 0.51427 0.03711 0.0
H1085 H 0.29742 0.50866 0.06878 0.0
C1086 C 0.75634 0.44151 0.1022 0.0
C1087 C 0.74787 0.46922 0.09256 0.0
C1088 C 0.77262 0.46038 0.04674 0.0
C1089 C 0.77822 0.43161 0.05529 0.0
N1090 N 0.76857 0.39294 0.08867 0.0
N1091 N 0.74322 0.50286 0.05338 0.0
C1092 C 0.76815 0.42163 0.08232 0.0
C1093 C 0.7547 0.47808 0.06416 0.0
N1094 N 0.7545 0.43449 0.13063 0.0
N1095 N 0.7853 0.47125 0.02259 0.0
H1096 H 0.72936 0.51594 0.06512 0.0
H1097 H 0.74511 0.50892 0.03194 0.0
H1098 H 0.79912 0.45926 1.0097 0.0
H1099 H 0.78437 0.49289 0.01691 0.0
H1100 H 0.76319 0.41567 0.13909 0.0
H1101 H 0.74721 0.44868 0.1463 0.0
H1102 H 0.75877 0.38434 0.10688 0.0
H1103 H 0.77577 0.37732 0.07437 0.0
C1104 C 0.98511 0.26237 0.27236 0.0
C1105 C 1.00936 0.24892 0.28498 0.0
C1106 C 0.04152 0.27994 0.25664 0.0
C1107 C 0.0173 0.29231 0.24291 0.0
N1108 N 0.9665 0.29042 0.23266 0.0
N1109 N 0.0604 0.23989 0.28402 0.0
C1110 C 0.98921 0.28203 0.24926 0.0
C1111 C 0.03751 0.25621 0.27554 0.0
N1112 N 0.95827 0.25749 0.28327 0.0
N1113 N 0.06819 0.29168 0.2528 0.0
H1114 H 0.05821 0.22194 0.29726 0.0
H1115 H 0.08102 0.24233 0.27563 0.0
H1116 H 0.07205 0.30922 0.23939 0.0
H1117 H 0.08607 0.28563 0.26479 0.0
H1118 H 0.94022 0.26919 0.27712 0.0
H1119 H 0.95433 0.24339 0.30024 0.0
H1120 H 0.94606 0.28146 0.2344 0.0
H1121 H 0.96872 0.30427 0.21517 0.0
C1122 C 0.78161 1.01133 0.26524 0.0
C1123 C 0.77363 1.00741 0.29445 0.0
C1124 C 0.72316 0.01487 0.28123 0.0
C1125 C 0.73068 0.01481 0.2517 0.0
N1126 N 0.76714 1.00628 0.21568 0.0
N1127 N 0.73566 0.99826 0.32871 0.0
C1128 C 0.75995 1.01117 0.24366 0.0
C1129 C 0.74405 1.00708 0.30201 0.0
N1130 N 0.8096 0.01657 0.25803 0.0
N1131 N 0.69641 0.02355 0.28968 0.0
H1132 H 0.75009 0.99085 0.34414 0.0
H1133 H 0.71419 0.99516 0.33432 0.0
H1134 H 0.68103 0.03118 0.27533 0.0
H1135 H 0.69077 0.0264 0.31113 0.0
H1136 H 0.81594 0.0224 0.23737 0.0
H1137 H 0.82605 0.01815 0.27309 0.0
H1138 H 0.78785 1.00066 0.20927 0.0
H1139 H 0.75201 1.00479 0.19929 0.0
C1140 C 0.9862 0.74871 0.25973 0.0
C1141 C 1.01068 0.73617 0.24658 0.0
C1142 C 0.04228 0.76554 0.27704 0.0
C1143 C 0.01781 0.77924 0.28899 0.0
N1144 N 0.96693 0.78887 0.28657 0.0
N1145 N 0.06178 0.7376 0.23776 0.0
C1146 C 0.98989 0.77231 0.27877 0.0
C1147 C 0.03867 0.74608 0.25377 0.0
N1148 N 0.95953 0.73725 0.25521 0.0
N1149 N 0.06883 0.77001 0.28874 0.0
H1150 H 0.05996 0.72394 0.22013 0.0
H1151 H 0.08226 0.74633 0.24011 0.0
H1152 H 0.07239 0.7839 0.30589 0.0
H1153 H 0.08691 0.75811 0.28307 0.0
H1154 H 0.94139 0.74343 0.26676 0.0
H1155 H 0.95587 0.71977 0.24174 0.0
H1156 H 0.94657 0.7867 0.27755 0.0
H1157 H 0.96888 0.80675 0.29987 0.0
C1158 C 0.26202 0.04396 0.27645 0.0
C1159 C 0.24762 0.01958 0.28787 0.0
C1160 C 0.27638 0.98795 0.25685 0.0
C1161 C 0.28986 1.01241 0.24453 0.0
N1162 N 0.29077 0.06377 0.23772 0.0
N1163 N 0.2361 0.96918 0.28415 0.0
C1164 C 0.2812 0.04046 0.25287 0.0
C1165 C 0.25331 0.9918 0.27659 0.0
N1166 N 0.2585 0.07025 0.28899 0.0
N1167 N 0.28649 0.96105 0.25084 0.0
H1168 H 0.21871 0.97124 0.29813 0.0
H1169 H 0.23728 0.94907 0.27445 0.0
H1170 H 0.30331 0.95726 0.23655 0.0
H1171 H 0.27978 0.94267 0.26173 0.0
H1172 H 0.27092 0.08814 0.28375 0.0
H1173 H 0.24479 0.07373 0.30634 0.0
H1174 H 0.28301 0.08451 0.24085 0.0
H1175 H 0.30443 0.062 0.22005 0.0
C1176 C 0.98925 0.74701 0.7733 0.0
C1177 C 0.01734 0.73712 0.78011 0.0
C1178 C 0.03767 0.77276 0.74694 0.0
C1179 C 1.00958 0.77967 0.73716 0.0
N1180 N 0.95852 0.7708 0.73866 0.0
N1181 N 0.06832 0.73801 0.77065 0.0
C1182 C 0.98528 0.76626 0.74985 0.0
C1183 C 0.04162 0.74944 0.76635 0.0
N1184 N 0.96641 0.7386 0.78979 0.0
N1185 N 0.06056 0.78907 0.73833 0.0
H1186 H 0.07216 0.72081 0.78448 0.0
H1187 H 0.08629 0.74394 0.75867 0.0
H1188 H 0.05841 0.80671 0.72469 0.0
H1189 H 0.0811 0.78697 0.74693 0.0
H1190 H 0.9459 0.7473 0.78772 0.0
H1191 H 0.96853 0.72501 0.80748 0.0
H1192 H 0.94045 0.7591 0.74487 0.0
H1193 H 0.95469 0.78459 0.72144 0.0
C1194 C 0.26237 0.98587 0.74511 0.0
C1195 C 0.24887 1.01008 0.73243 0.0
C1196 C 0.27888 0.04227 0.76162 0.0
C1197 C 0.29117 0.01807 0.77548 0.0
N1198 N 0.28929 0.96719 0.7855 0.0
N1199 N 0.23915 0.061 0.73371 0.0
C1200 C 0.28129 0.98995 0.76874 0.0
C1201 C 0.2556 0.03821 0.74223 0.0
N1202 N 0.2583 0.95911 0.73379 0.0
N1203 N 0.29027 0.06901 0.76582 0.0
H1204 H 0.22147 0.05883 0.72015 0.0
H1205 H 0.24119 0.08152 0.74237 0.0
H1206 H 0.30748 0.07292 0.77957 0.0
H1207 H 0.2843 0.08693 0.75381 0.0
H1208 H 0.27012 0.9412 0.74011 0.0
H1209 H 0.24494 0.95519 0.71629 0.0
H1210 H 0.28051 0.9467 0.78339 0.0
H1211 H 0.30245 0.96937 0.80346 0.0
C1212 C 0.98854 0.25028 0.74637 0.0
C1213 C 0.01668 0.24353 0.7366 0.0
C1214 C 0.03683 0.27603 0.77274 0.0
C1215 C 1.00871 0.28598 0.77935 0.0
N1216 N 0.95772 0.28491 0.76998 0.0
N1217 N 0.06775 0.25235 0.73824 0.0
C1218 C 0.98447 0.27356 0.7657 0.0
C1219 C 0.04093 0.25684 0.74935 0.0
N1220 N 0.96573 0.23392 0.7377 0.0
N1221 N 0.05956 0.28435 0.78934 0.0
H1222 H 0.07169 0.23858 0.72107 0.0
H1223 H 0.08577 0.26406 0.7445 0.0
H1224 H 0.05731 0.29786 0.80703 0.0
H1225 H 0.08007 0.27562 0.78738 0.0
H1226 H 0.94515 0.23595 0.74627 0.0
H1227 H 0.96797 0.21631 0.72406 0.0
H1228 H 0.93979 0.27889 0.75807 0.0
H1229 H 0.9538 0.30209 0.78375 0.0
C1230 C 0.74283 0.01909 0.72196 0.0
C1231 C 0.77241 0.01932 0.72945 0.0
C1232 C 0.75873 0.01557 0.78029 0.0
C1233 C 0.72951 1.01138 0.77235 0.0
N1234 N 0.69545 1.0018 0.73442 0.0
N1235 N 0.80848 1.01092 0.76585 0.0
C1236 C 0.72204 1.011 0.74281 0.0
C1237 C 0.78042 0.01566 0.75866 0.0
N1238 N 0.73432 0.02772 0.69527 0.0
N1239 N 0.76585 0.0208 0.80822 0.0
H1240 H 0.82495 1.00954 0.75075 0.0
H1241 H 0.81488 1.0053 0.78651 0.0
H1242 H 0.7507 0.02221 0.82463 0.0
H1243 H 0.78648 0.02681 0.81453 0.0
H1244 H 0.7128 0.03035 0.68966 0.0
H1245 H 0.74865 0.03551 0.67989 0.0
H1246 H 0.68996 0.9987 0.71299 0.0
H1247 H 0.68009 0.99404 0.74879 0.0
C1248 C 0.26226 0.27364 0.98208 0.0
C1249 C 0.24845 0.28627 1.00609 0.0
C1250 C 0.27935 0.25836 0.0386 0.0
C1251 C 0.29222 0.24473 0.01461 0.0
N1252 N 0.29085 0.23408 0.96399 0.0
N1253 N 0.23874 0.2853 0.0569 0.0
C1254 C 0.28211 0.25077 0.98647 0.0
C1255 C 0.25546 0.27696 0.03428 0.0
N1256 N 0.25756 0.28438 0.95519 0.0
N1257 N 0.29078 0.25476 0.06535 0.0
H1258 H 0.22067 0.29832 0.05445 0.0
H1259 H 0.24099 0.27699 0.07753 0.0
H1260 H 0.30842 0.24159 0.06945 0.0
H1261 H 0.28434 0.26672 0.08308 0.0
H1262 H 0.26953 0.27826 0.93733 0.0
H1263 H 0.24332 0.30116 0.95103 0.0
H1264 H 0.28206 0.23559 0.94352 0.0
H1265 H 0.30479 0.2167 0.96644 0.0
C1266 C 0.28296 0.72313 0.01886 0.0
C1267 C 0.25323 0.72997 0.01752 0.0
C1268 C 0.26579 0.7806 1.00961 0.0
C1269 C 0.29525 0.77298 1.00675 0.0
N1270 N 0.33087 0.73543 1.00281 0.0
N1271 N 0.21653 0.76466 1.00526 0.0
C1272 C 0.30359 0.74379 1.00979 0.0
C1273 C 0.24463 0.75857 1.01119 0.0
N1274 N 0.29162 0.69725 0.02969 0.0
N1275 N 0.25795 0.80878 0.0121 0.0
H1276 H 0.20038 0.74914 1.005 0.0
H1277 H 0.20981 0.78462 0.99763 0.0
H1278 H 0.27273 0.82562 0.01243 0.0
H1279 H 0.23706 0.81516 0.01703 0.0
H1280 H 0.31309 0.6923 0.03364 0.0
H1281 H 0.27727 0.68199 0.03772 0.0
H1282 H 0.33716 0.71396 1.00199 0.0
H1283 H 0.34633 0.74957 0.99481 0.0
C1284 C 0.77044 0.27863 0.99017 0.0
C1285 C 0.77753 0.28928 0.01783 0.0
C1286 C 0.74446 0.25422 0.03939 0.0
C1287 C 0.73436 0.24666 1.01163 0.0
N1288 N 0.73507 0.25474 0.96049 0.0
N1289 N 0.76854 0.28975 0.06879 0.0
C1290 C 0.74675 0.25954 0.98694 0.0
C1291 C 0.76395 0.27763 0.04251 0.0
N1292 N 0.78691 0.28612 0.96703 0.0
N1293 N 0.73611 0.23845 0.06272 0.0
H1294 H 0.78243 0.30703 0.072 0.0
H1295 H 0.75673 0.28428 0.08699 0.0
H1296 H 0.72244 0.22074 0.06124 0.0
H1297 H 0.74498 0.2411 0.08305 0.0
H1298 H 0.78459 0.27681 0.94687 0.0
H1299 H 0.80487 0.29943 0.96868 0.0
H1300 H 0.74118 0.2661 0.9422 0.0
H1301 H 0.71747 0.24128 0.95716 0.0
C1302 C 0.78427 0.75931 1.0104 0.0
C1303 C 0.77569 0.73017 1.0069 0.0
C1304 C 0.72565 0.74443 0.01526 0.0
C1305 C 0.73366 0.77389 0.01463 0.0
N1306 N 0.77066 0.80917 1.00483 0.0
N1307 N 0.73688 0.69669 0.99848 0.0
C1308 C 0.76301 0.78135 1.01032 0.0
C1309 C 0.74597 0.72321 1.00714 0.0
N1310 N 0.81245 0.76604 0.01515 0.0
N1311 N 0.69899 0.73645 0.02472 0.0
H1312 H 0.75086 0.68112 0.9905 0.0
H1313 H 0.71524 0.69148 0.99595 0.0
H1314 H 0.68399 0.75109 0.03261 0.0
H1315 H 0.69314 0.71505 0.02793 0.0
H1316 H 0.81923 0.78667 0.02062 0.0
H1317 H 0.82862 0.75065 0.01673 0.0
H1318 H 0.79141 0.81509 0.99877 0.0
H1319 H 0.75583 0.82585 1.00324 0.0
C1320 C 0.50692 0.78189 0.7984 0.0
C1321 C 0.50781 0.75256 0.79005 0.0
C1322 C 0.51308 0.76795 0.73983 0.0
C1323 C 0.51636 0.79697 0.74886 0.0
N1324 N 0.52373 0.82992 0.7882 0.0
N1325 N 0.51787 0.71779 0.75289 0.0
C1326 C 0.5154 0.80347 0.77859 0.0
C1327 C 0.51256 0.74555 0.76076 0.0
N1328 N 0.49691 0.78936 0.82493 0.0
N1329 N 0.50912 0.76168 0.7115 0.0
H1330 H 0.51865 0.70083 0.76748 0.0
H1331 H 0.52436 0.71211 0.73227 0.0
H1332 H 0.50812 0.77734 0.69553 0.0
H1333 H 0.50378 0.74118 0.70427 0.0
H1334 H 0.49348 0.81064 0.831 0.0
H1335 H 0.4888 0.77441 0.83955 0.0
H1336 H 0.52584 0.83475 0.80992 0.0
H1337 H 0.53181 0.84588 0.77467 0.0
C1338 C 0.27661 0.53726 0.7755 0.0
C1339 C 0.28312 0.50914 0.78545 0.0
C1340 C 0.24964 0.48907 0.75019 0.0
C1341 C 0.24002 0.51726 0.74342 0.0
N1342 N 0.24204 0.56832 0.75208 0.0
N1343 N 0.27354 0.45819 0.78459 0.0
C1344 C 0.25304 0.54146 0.75653 0.0
C1345 C 0.26921 0.48495 0.77326 0.0
N1346 N 0.29347 0.5599 0.7836 0.0
N1347 N 0.24064 0.46629 0.73403 0.0
H1348 H 0.28761 0.45424 0.80153 0.0
H1349 H 0.26146 0.44028 0.77878 0.0
H1350 H 0.22682 0.46854 0.71657 0.0
H1351 H 0.24908 0.44567 0.73608 0.0
H1352 H 0.29158 0.58042 0.77486 0.0
H1353 H 0.31131 0.55751 0.79692 0.0
H1354 H 0.24855 0.58631 0.76364 0.0
H1355 H 0.22469 0.57234 0.73852 0.0
C1356 C 0.51887 0.24224 0.80125 0.0
C1357 C 0.51874 0.27189 0.79397 0.0
C1358 C 0.51413 0.25868 0.74313 0.0
C1359 C 0.51025 0.22938 0.75097 0.0
N1360 N 0.50155 0.19492 0.78884 0.0
N1361 N 0.5094 0.30823 0.75798 0.0
C1362 C 0.51049 0.22163 0.78045 0.0
C1363 C 0.51449 0.28015 0.76489 0.0
N1364 N 0.52807 0.2335 0.82769 0.0
N1365 N 0.51878 0.26608 0.71513 0.0
H1366 H 0.50814 0.32456 0.77319 0.0
H1367 H 0.50336 0.31478 0.73747 0.0
H1368 H 0.51992 0.25109 0.6986 0.0
H1369 H 0.52456 0.28679 0.70882 0.0
H1370 H 0.53097 0.21194 0.83304 0.0
H1371 H 0.536 0.24769 0.84306 0.0
H1372 H 0.49894 0.18915 0.81029 0.0
H1373 H 0.49347 0.17977 0.7745 0.0
C1374 C 0.76324 0.50925 0.74342 0.0
C1375 C 0.79252 0.50511 0.75116 0.0
C1376 C 0.77991 0.51474 0.80134 0.0
C1377 C 0.75023 0.51488 0.79425 0.0
N1378 N 0.71367 0.50524 0.75865 0.0
N1379 N 0.82686 0.49638 0.78906 0.0
C1380 C 0.74183 0.51017 0.7653 0.0
C1381 C 0.80031 0.50562 0.7806 0.0
N1382 N 0.75581 0.51369 0.71543 0.0
N1383 N 0.78891 0.52447 0.82746 0.0
H1384 H 0.84191 0.48786 0.77482 0.0
H1385 H 0.83256 0.494 0.81054 0.0
H1386 H 0.77491 0.53321 0.84259 0.0
H1387 H 0.81055 0.52709 0.83264 0.0
H1388 H 0.73514 0.51964 0.7092 0.0
H1389 H 0.77074 0.51451 0.69878 0.0
H1390 H 0.70702 0.49893 0.73827 0.0
H1391 H 0.69739 0.50433 0.77398 0.0
C1392 C 0.51146 0.25412 0.27942 0.0
C1393 C 0.51688 0.22535 0.27079 0.0
C1394 C 0.51071 0.23978 0.22046 0.0
C1395 C 0.50847 0.269 0.22891 0.0
N1396 N 0.51425 0.30437 0.26642 0.0
N1397 N 0.52861 0.19247 0.23252 0.0
C1398 C 0.51101 0.27632 0.2584 0.0
C1399 C 0.51855 0.21866 0.24111 0.0
N1400 N 0.50531 0.26024 0.30741 0.0
N1401 N 0.50411 0.23189 0.19304 0.0
H1402 H 0.53586 0.17692 0.24693 0.0
H1403 H 0.53276 0.18745 0.21115 0.0
H1404 H 0.49697 0.24646 0.17761 0.0
H1405 H 0.50271 0.21053 0.18652 0.0
H1406 H 0.49828 0.28039 0.31414 0.0
H1407 H 0.50427 0.24463 0.32344 0.0
H1408 H 0.51903 0.31048 0.28737 0.0
H1409 H 0.51537 0.32128 0.25177 0.0
C1410 C 0.77709 0.54501 0.26388 0.0
C1411 C 0.78824 0.52066 0.27844 0.0
C1412 C 0.75726 0.48897 0.24976 0.0
C1413 C 0.7453 0.5134 0.23601 0.0
N1414 N 0.73875 0.56477 0.23468 0.0
N1415 N 0.78406 0.47036 0.29031 0.0
C1416 C 0.75368 0.54148 0.24455 0.0
C1417 C 0.77681 0.49289 0.27291 0.0
N1418 N 0.78974 0.57129 0.26739 0.0
N1419 N 0.75112 0.46203 0.23984 0.0
H1420 H 0.79789 0.47251 0.30778 0.0
H1421 H 0.77425 0.45027 0.28921 0.0
H1422 H 0.73694 0.4582 0.22298 0.0
H1423 H 0.7618 0.44364 0.24678 0.0
H1424 H 0.78473 0.58914 0.25487 0.0
H1425 H 0.80694 0.5748 0.28127 0.0
H1426 H 0.7419 0.58556 0.24231 0.0
H1427 H 0.72121 0.56296 0.22088 0.0
C1428 C 0.52244 0.78112 0.22149 0.0
C1429 C 0.52098 0.75145 0.2286 0.0
C1430 C 0.51441 0.76441 0.27919 0.0
C1431 C 0.51139 0.7938 0.27133 0.0
N1432 N 0.50701 0.82919 0.23363 0.0
N1433 N 0.50999 0.71495 0.26395 0.0
C1434 C 0.51398 0.80194 0.24209 0.0
C1435 C 0.51554 0.74305 0.25741 0.0
N1436 N 0.53275 0.78952 0.19532 0.0
N1437 N 0.5174 0.75685 0.30736 0.0
H1438 H 0.50967 0.69863 0.24868 0.0
H1439 H 0.50288 0.70832 0.2841 0.0
H1440 H 0.51798 0.7718 0.32397 0.0
H1441 H 0.52248 0.73605 0.31392 0.0
H1442 H 0.53677 0.81092 0.19007 0.0
H1443 H 0.54031 0.77499 0.18006 0.0
H1444 H 0.50584 0.83538 0.21218 0.0
H1445 H 0.49935 0.84473 0.24777 0.0
C1446 C 0.28419 0.51461 0.26385 0.0
C1447 C 0.27676 0.5188 0.23456 0.0
C1448 C 0.2262 0.51 0.2467 0.0
C1449 C 0.23302 0.50975 0.27638 0.0
N1450 N 0.26853 0.51875 0.31318 0.0
N1451 N 0.23924 0.52836 0.20001 0.0
C1452 C 0.26204 0.51398 0.28503 0.0
C1453 C 0.24731 0.51885 0.22655 0.0
N1454 N 0.31212 0.5099 0.27152 0.0
N1455 N 0.19994 0.50066 0.23746 0.0
H1456 H 0.25379 0.53676 0.18515 0.0
H1457 H 0.2178 0.53111 0.19415 0.0
H1458 H 0.18442 0.49219 0.25125 0.0
H1459 H 0.19498 0.49811 0.21581 0.0
H1460 H 0.31811 0.50387 0.29221 0.0
H1461 H 0.32893 0.50903 0.25678 0.0
H1462 H 0.28899 0.52475 0.32002 0.0
H1463 H 0.25303 0.51981 0.32929 0.0
C1464 C 0.77531 0.75265 0.49282 0.0
C1465 C 0.78694 0.74665 0.52036 0.0
C1466 C 0.75291 0.78074 0.5418 0.0
C1467 C 0.74435 0.78972 0.51394 0.0
N1468 N 0.74958 0.78634 0.46259 0.0
N1469 N 0.78887 0.7569 0.57098 0.0
C1470 C 0.75592 0.77607 0.48932 0.0
C1471 C 0.77611 0.76101 0.54491 0.0
N1472 N 0.78228 0.73546 0.47012 0.0
N1473 N 0.73834 0.79056 0.56529 0.0
H1474 H 0.80582 0.7426 0.57417 0.0
H1475 H 0.78418 0.76924 0.589 0.0
H1476 H 0.72095 0.80463 0.56376 0.0
H1477 H 0.74159 0.78268 0.58595 0.0
H1478 H 0.77234 0.73688 0.45017 0.0
H1479 H 0.796 0.71785 0.47203 0.0
H1480 H 0.75998 0.77948 0.44404 0.0
H1481 H 0.7355 0.8034 0.45905 0.0
C1482 C 0.75411 0.24468 0.48428 0.0
C1483 C 0.74667 0.23472 0.51217 0.0
C1484 C 0.77799 0.27155 0.53318 0.0
C1485 C 0.78844 0.27861 0.5054 0.0
N1486 N 0.78914 0.26925 0.45453 0.0
N1487 N 0.75432 0.23623 0.56332 0.0
C1488 C 0.7771 0.26461 0.48089 0.0
C1489 C 0.7592 0.24763 0.53671 0.0
N1490 N 0.73859 0.23578 0.46107 0.0
N1491 N 0.78541 0.28821 0.55613 0.0
H1492 H 0.74097 0.21856 0.56684 0.0
H1493 H 0.76543 0.24269 0.58158 0.0
H1494 H 0.79866 0.30623 0.55431 0.0
H1495 H 0.77621 0.28593 0.57638 0.0
H1496 H 0.74107 0.2445 0.44063 0.0
H1497 H 0.7212 0.22173 0.46275 0.0
H1498 H 0.78397 0.25716 0.43648 0.0
H1499 H 0.80609 0.28353 0.45111 0.0
C1500 C 0.24481 0.80259 0.51713 0.0
C1501 C 0.27432 0.79482 0.51705 0.0
C1502 C 0.26016 0.7441 0.51272 0.0
C1503 C 0.23105 0.75244 0.50858 0.0
N1504 N 0.19737 0.79096 0.49967 0.0
N1505 N 0.31006 0.7581 0.50827 0.0
C1506 C 0.22384 0.78209 0.50874 0.0
C1507 C 0.28206 0.76553 0.51308 0.0
N1508 N 0.23655 0.82925 0.5262 0.0
N1509 N 0.26696 0.71596 0.51761 0.0
H1510 H 0.32671 0.77304 0.50711 0.0
H1511 H 0.31625 0.73741 0.5024 0.0
H1512 H 0.25162 0.69967 0.51882 0.0
H1513 H 0.2875 0.70932 0.52354 0.0
H1514 H 0.21509 0.83498 0.52906 0.0
H1515 H 0.25103 0.84443 0.53407 0.0
H1516 H 0.19204 0.81255 0.49703 0.0
H1517 H 0.18198 0.77687 0.49153 0.0
C1518 C 0.24831 0.2724 0.48908 0.0
C1519 C 0.23827 0.27935 0.51702 0.0
C1520 C 0.27333 0.24575 0.53758 0.0
C1521 C 0.28028 0.23582 0.5096 0.0
N1522 N 0.27154 0.23723 0.45862 0.0
N1523 N 0.23861 0.26988 0.56792 0.0
C1524 C 0.26717 0.24862 0.48527 0.0
C1525 C 0.25021 0.26544 0.54135 0.0
N1526 N 0.24044 0.28907 0.46623 0.0
N1527 N 0.2894 0.23704 0.56053 0.0
H1528 H 0.22155 0.28391 0.57162 0.0
H1529 H 0.24425 0.25784 0.58589 0.0
H1530 H 0.30692 0.2232 0.55858 0.0
H1531 H 0.28723 0.24576 0.58097 0.0
H1532 H 0.24933 0.28686 0.44584 0.0
H1533 H 0.22718 0.30702 0.46825 0.0
H1534 H 0.26 0.2436 0.44057 0.0
H1535 H 0.28489 0.21964 0.45488 0.0
C1536 C 0.09559 0.38063 0.09497 0.0
C1537 C 0.10015 0.36036 0.11737 0.0
C1538 C 0.14608 0.34617 0.09557 0.0
C1539 C 0.14133 0.36613 0.07298 0.0
N1540 N 0.11523 0.40637 0.05388 0.0
N1541 N 0.13193 0.32841 0.14261 0.0
C1542 C 0.11728 0.38477 0.07368 0.0
C1543 C 0.12615 0.34455 0.11877 0.0
N1544 N 0.06987 0.39471 0.09314 0.0
N1545 N 0.16921 0.32812 0.09427 0.0
H1546 H 0.11776 0.32695 0.15992 0.0
H1547 H 0.15156 0.31842 0.1464 0.0
H1548 H 0.18505 0.32988 0.07851 0.0
H1549 H 0.17217 0.31067 0.10793 0.0
H1550 H 0.06373 0.40715 0.07563 0.0
H1551 H 0.05365 0.39258 0.10846 0.0
H1552 H 0.09976 0.42248 0.05463 0.0
H1553 H 0.13062 0.40956 0.03789 0.0
C1554 C 0.65354 0.08605 0.09517 0.0
C1555 C 0.66418 0.09484 0.12231 0.0
C1556 C 0.66685 0.14482 0.10544 0.0
C1557 C 0.65608 0.13603 0.0783 0.0
N1558 N 0.63307 0.10003 0.04931 0.0
N1559 N 0.67525 0.13273 0.15551 0.0
C1560 C 0.64749 0.10713 0.07384 0.0
C1561 C 0.66889 0.12435 0.12817 0.0
N1562 N 0.65012 0.05743 0.08948 0.0
N1563 N 0.67673 0.17226 0.10897 0.0
H1564 H 0.67735 0.11814 0.1724 0.0
H1565 H 0.67613 0.15412 0.16197 0.0
H1566 H 0.67535 0.18793 0.09303 0.0
H1567 H 0.68797 0.1791 0.127 0.0
H1568 H 0.6458 0.0493 0.06915 0.0
H1569 H 0.65329 0.04144 0.10485 0.0
H1570 H 0.62382 0.08 0.0457 0.0
H1571 H 0.62803 0.11512 0.03351 0.0
C1572 C 0.93593 0.64775 0.09723 0.0
C1573 C 0.92979 0.66767 0.11951 0.0
C1574 C 0.88205 0.6765 0.09872 0.0
C1575 C 0.88954 0.65923 0.07479 0.0
N1576 N 0.92358 0.62928 0.05005 0.0
N1577 N 0.89779 0.70176 0.14154 0.0
C1578 C 0.91638 0.64484 0.07386 0.0
C1579 C 0.90295 0.68213 0.12037 0.0
N1580 N 0.96053 0.63173 0.09838 0.0
N1581 N 0.8548 0.68732 0.10077 0.0
H1582 H 0.91193 0.70521 0.15854 0.0
H1583 H 0.88026 0.71562 0.1417 0.0
H1584 H 0.83917 0.68391 0.0851 0.0
H1585 H 0.84687 0.69779 0.1188 0.0
H1586 H 0.96495 0.61475 0.08458 0.0
H1587 H 0.9759 0.63405 0.11445 0.0
H1588 H 0.94404 0.62116 0.04615 0.0
H1589 H 0.90928 0.62566 0.03321 0.0
C1590 C 0.3367 0.91661 0.06574 0.0
C1591 C 0.358 0.89473 0.06558 0.0
C1592 C 0.37615 0.91539 0.11064 0.0
C1593 C 0.35098 0.93291 0.11343 0.0
N1594 N 0.3018 0.93846 0.09653 0.0
N1595 N 0.39299 0.86903 0.09468 0.0
C1596 C 0.32948 0.92996 0.09195 0.0
C1597 C 0.37631 0.89269 0.09003 0.0
N1598 N 0.32394 0.9258 0.04102 0.0
N1599 N 0.40049 0.92067 0.12609 0.0
H1600 H 0.39208 0.85063 0.08211 0.0
H1601 H 0.40487 0.86635 0.11346 0.0
H1602 H 0.40344 0.93856 0.13901 0.0
H1603 H 0.41945 0.9092 0.12272 0.0
H1604 H 0.30916 0.94266 0.04086 0.0
H1605 H 0.33122 0.91982 0.02073 0.0
H1606 H 0.28575 0.93537 0.08121 0.0
H1607 H 0.29404 0.94404 0.11674 0.0
C1608 C 0.12432 0.68567 0.90712 0.0
C1609 C 0.09916 0.66848 0.90639 0.0
C1610 C 0.11695 0.64045 0.94756 0.0
C1611 C 0.14008 0.66006 0.95057 0.0
N1612 N 0.16604 0.70176 0.93394 0.0
N1613 N 0.07001 0.6308 0.92701 0.0
C1614 C 0.14393 0.6827 0.93041 0.0
C1615 C 0.09525 0.64589 0.92664 0.0
N1616 N 0.1298 0.7043 0.88507 0.0
N1617 N 0.11564 0.61677 0.96489 0.0
H1618 H 0.05361 0.63404 0.91215 0.0
H1619 H 0.06432 0.61646 0.9432 0.0
H1620 H 0.13072 0.61268 0.98092 0.0
H1621 H 0.10108 0.60004 0.96198 0.0
H1622 H 0.14903 0.71549 0.88267 0.0
H1623 H 0.11597 0.70676 0.86763 0.0
H1624 H 0.16801 0.7208 0.92237 0.0
H1625 H 0.18189 0.69921 0.94955 0.0
C1626 C 0.3573 0.12623 0.89941 0.0
C1627 C 0.36098 0.09643 0.90454 0.0
C1628 C 0.37792 0.10684 0.95337 0.0
C1629 C 0.37033 0.13612 0.94962 0.0
N1630 N 0.35047 0.17366 0.91985 0.0
N1631 N 0.3737 0.05771 0.93651 0.0
C1632 C 0.3598 0.14595 0.92269 0.0
C1633 C 0.37119 0.08657 0.93152 0.0
N1634 N 0.35135 0.13562 0.87228 0.0
N1635 N 0.39216 0.09861 0.97767 0.0
H1636 H 0.37016 0.04227 0.92072 0.0
H1637 H 0.37762 0.04889 0.95666 0.0
H1638 H 0.39773 0.11307 0.99382 0.0
H1639 H 0.40078 0.07821 0.98073 0.0
H1640 H 0.3513 0.15721 0.86639 0.0
H1641 H 0.34877 0.12162 0.85501 0.0
H1642 H 0.33941 0.18121 0.90197 0.0
H1643 H 0.35193 0.18881 0.93622 0.0
C1644 C 0.90996 0.38328 0.94604 0.0
C1645 C 0.88562 0.36502 0.94747 0.0
C1646 C 0.9007 0.34117 0.90292 0.0
C1647 C 0.92692 0.35669 0.90372 0.0
N1648 N 0.95767 0.39158 0.92653 0.0
N1649 N 0.85731 0.32639 0.92797 0.0
C1650 C 0.9317 0.37785 0.92516 0.0
C1651 C 0.88069 0.34409 0.9259 0.0
N1652 N 0.91221 0.40575 0.96475 0.0
N1653 N 0.89477 0.32409 0.87984 0.0
H1654 H 0.84144 0.32904 0.94355 0.0
H1655 H 0.85419 0.30836 0.91518 0.0
H1656 H 0.90899 0.32164 0.86269 0.0
H1657 H 0.87498 0.31424 0.87642 0.0
H1658 H 0.92794 0.4216 0.9633 0.0
H1659 H 0.89676 0.40991 0.98044 0.0
H1660 H 0.96389 0.40469 0.94348 0.0
H1661 H 0.97399 0.38847 0.91151 0.0
C1662 C 0.6778 0.88219 0.92268 0.0
C1663 C 0.66118 0.88905 0.94728 0.0
C1664 C 0.6477 0.93527 0.92551 0.0
C1665 C 0.667 0.92984 0.90247 0.0
N1666 N 0.70098 0.89879 0.87891 0.0
N1667 N 0.63111 0.92203 0.97325 0.0
C1668 C 0.68209 0.90337 0.90092 0.0
C1669 C 0.64608 0.91546 0.94886 0.0
N1670 N 0.68922 0.85524 0.92011 0.0
N1671 N 0.63105 0.95948 0.92516 0.0
H1672 H 0.62844 0.90752 0.99012 0.0
H1673 H 0.62256 0.94222 0.97756 0.0
H1674 H 0.6325 0.9751 0.9092 0.0
H1675 H 0.61442 0.96333 0.93958 0.0
H1676 H 0.69929 0.8477 0.90167 0.0
H1677 H 0.68671 0.83943 0.93581 0.0
H1678 H 0.71527 0.88163 0.87812 0.0
H1679 H 0.70334 0.91304 0.86177 0.0
C1680 C 0.09987 0.09628 0.37792 0.0
C1681 C 0.12194 0.10112 0.35732 0.0
C1682 C 0.09955 0.14691 0.34362 0.0
C1683 C 0.07726 0.14184 0.36385 0.0
N1684 N 0.05903 0.11548 0.40433 0.0
N1685 N 0.14654 0.13333 0.32522 0.0
C1686 C 0.07847 0.11776 0.38244 0.0
C1687 C 0.12293 0.12722 0.34162 0.0
N1688 N 0.09841 0.07048 0.39193 0.0
N1689 N 0.09781 0.17011 0.32569 0.0
H1690 H 0.164 0.11936 0.32352 0.0
H1691 H 0.15005 0.15305 0.31526 0.0
H1692 H 0.08194 0.1858 0.32774 0.0
H1693 H 0.11121 0.17329 0.30808 0.0
H1694 H 0.0811 0.06416 0.40462 0.0
H1695 H 0.11379 0.05438 0.38951 0.0
H1696 H 0.06019 0.09998 0.4204 0.0
H1697 H 0.04296 0.13072 0.4078 0.0
C1698 C 0.9329 0.10128 0.37595 0.0
C1699 C 0.92929 0.12113 0.35299 0.0
C1700 C 0.88494 0.09643 0.3385 0.0
C1701 C 0.88837 0.0768 0.36162 0.0
N1702 N 0.91211 0.06347 0.40549 0.0
N1703 N 0.89919 0.14156 0.31633 0.0
C1704 C 0.91116 0.08033 0.38148 0.0
C1705 C 0.90447 0.11985 0.33541 0.0
N1706 N 0.95791 0.10128 0.39134 0.0
N1707 N 0.86328 0.09231 0.31912 0.0
H1708 H 0.91292 0.15913 0.3138 0.0
H1709 H 0.88014 0.14359 0.30483 0.0
H1710 H 0.84746 0.07661 0.32166 0.0
H1711 H 0.8617 0.10346 0.29982 0.0
H1712 H 0.96338 0.08535 0.40604 0.0
H1713 H 0.97439 0.1161 0.38798 0.0
H1714 H 0.92634 0.06686 0.42236 0.0
H1715 H 0.89708 0.04734 0.40966 0.0
C1716 C 0.90344 0.90246 0.34354 0.0
C1717 C 0.90485 0.92911 0.3582 0.0
C1718 C 0.94917 0.91347 0.38238 0.0
C1719 C 0.9497 0.88859 0.36493 0.0
N1720 N 0.92825 0.8592 0.32825 0.0
N1721 N 0.92985 0.96127 0.39017 0.0
C1722 C 0.92692 0.8829 0.3455 0.0
C1723 C 0.92772 0.93482 0.3776 0.0
N1724 N 0.8793 0.89566 0.32829 0.0
N1725 N 0.96925 0.9166 0.40354 0.0
H1726 H 0.9146 0.97744 0.38737 0.0
H1727 H 0.94766 0.96804 0.40183 0.0
H1728 H 0.9854 0.90149 0.40719 0.0
H1729 H 0.96856 0.93275 0.41893 0.0
H1730 H 0.87555 0.87554 0.31934 0.0
H1731 H 0.86175 0.90949 0.3266 0.0
H1732 H 0.91438 0.85555 0.31114 0.0
H1733 H 0.94431 0.84369 0.33017 0.0
C1734 C 0.14588 0.92607 0.35418 0.0
C1735 C 0.13674 0.9531 0.36508 0.0
C1736 C 0.08711 0.93526 0.36837 0.0
C1737 C 0.09625 0.90825 0.35753 0.0
N1738 N 0.13462 0.87572 0.34579 0.0
N1739 N 0.1005 0.98153 0.38846 0.0
C1740 C 0.12581 0.90293 0.35239 0.0
C1741 C 0.10786 0.95706 0.37401 0.0
N1742 N 0.17327 0.92303 0.34398 0.0
N1743 N 0.05845 0.94028 0.37256 0.0
H1744 H 0.11534 0.99765 0.39321 0.0
H1745 H 0.08054 0.98481 0.39799 0.0
H1746 H 0.04276 0.92445 0.37007 0.0
H1747 H 0.04993 0.96047 0.377 0.0
H1748 H 0.18032 0.90511 0.33266 0.0
H1749 H 0.18866 0.93929 0.34515 0.0
H1750 H 0.15611 0.86963 0.34459 0.0
H1751 H 0.12032 0.85855 0.34376 0.0
C1752 C 0.10003 0.88161 0.67888 0.0
C1753 C 0.078 0.8865 0.65838 0.0
C1754 C 0.10096 0.93184 0.64403 0.0
C1755 C 0.12284 0.92712 0.6648 0.0
N1756 N 0.1469 0.89521 0.6975 0.0
N1757 N 0.06033 0.91249 0.61748 0.0
C1758 C 0.1235 0.90122 0.68084 0.0
C1759 C 0.07951 0.91039 0.63956 0.0
N1760 N 0.09796 0.85864 0.69709 0.0
N1761 N 0.09971 0.95753 0.6298 0.0
H1762 H 0.04422 0.89728 0.61403 0.0
H1763 H 0.06177 0.92781 0.60125 0.0
H1764 H 0.1151 0.97364 0.63222 0.0
H1765 H 0.08252 0.96378 0.61697 0.0
H1766 H 0.11112 0.85565 0.71486 0.0
H1767 H 0.08202 0.843 0.6951 0.0
H1768 H 0.15018 0.87559 0.70772 0.0
H1769 H 0.16442 0.90912 0.6992 0.0
C1770 C 0.10863 0.06997 0.64673 0.0
C1771 C 0.13749 0.07463 0.65533 0.0
C1772 C 0.12547 0.12429 0.66876 0.0
C1773 C 0.09599 0.11814 0.66411 0.0
N1774 N 0.05883 0.08535 0.64903 0.0
N1775 N 0.17356 0.10545 0.67613 0.0
C1776 C 0.0874 0.09108 0.65298 0.0
C1777 C 0.14611 0.10176 0.66635 0.0
N1778 N 0.10177 0.04551 0.63202 0.0
N1779 N 0.13366 0.15165 0.67557 0.0
H1780 H 0.18935 0.08966 0.67445 0.0
H1781 H 0.1803 0.12342 0.68756 0.0
H1782 H 0.11896 0.16837 0.67817 0.0
H1783 H 0.155 0.15834 0.67641 0.0
H1784 H 0.08178 0.04175 0.62277 0.0
H1785 H 0.11701 0.02993 0.62677 0.0
H1786 H 0.05078 0.06501 0.64438 0.0
H1787 H 0.04278 0.10073 0.65185 0.0
C1788 C 0.95017 0.11128 0.64219 0.0
C1789 C 0.94863 0.13855 0.65562 0.0
C1790 C 0.90013 0.1271 0.67341 0.0
C1791 C 0.90332 0.09858 0.66326 0.0
N1792 N 0.93155 0.06261 0.63897 0.0
N1793 N 0.92302 0.17257 0.68497 0.0
C1794 C 0.92824 0.09051 0.64755 0.0
C1795 C 0.92365 0.14668 0.67117 0.0
N1796 N 0.97258 0.10545 0.62414 0.0
N1797 N 0.87442 0.13549 0.68487 0.0
H1798 H 0.93938 0.1878 0.68303 0.0
H1799 H 0.90713 0.17845 0.69954 0.0
H1800 H 0.85695 0.12154 0.68689 0.0
H1801 H 0.86954 0.15664 0.69018 0.0
H1802 H 0.97386 0.0871 0.61149 0.0
H1803 H 0.9889 0.12028 0.61993 0.0
H1804 H 0.95054 0.05442 0.63049 0.0
H1805 H 0.91576 0.04695 0.64189 0.0
C1806 C 0.90503 0.90864 0.68784 0.0
C1807 C 0.92978 0.90769 0.67008 0.0
C1808 C 0.91166 0.94907 0.64251 0.0
C1809 C 0.88883 0.95213 0.66247 0.0
N1810 N 0.86384 0.93577 0.7048 0.0
N1811 N 0.95836 0.9283 0.63202 0.0
C1812 C 0.88548 0.93207 0.68526 0.0
C1813 C 0.93338 0.92801 0.64753 0.0
N1814 N 0.89981 0.8866 0.70657 0.0
N1815 N 0.91266 0.96647 0.61887 0.0
H1816 H 0.97478 0.91337 0.63498 0.0
H1817 H 0.96386 0.94453 0.61764 0.0
H1818 H 0.89772 0.98274 0.61513 0.0
H1819 H 0.92688 0.96345 0.6019 0.0
H1820 H 0.88081 0.88433 0.71815 0.0
H1821 H 0.91356 0.86903 0.70875 0.0
H1822 H 0.8623 0.92428 0.7239 0.0
H1823 H 0.84801 0.95149 0.70263 0.0
C1824 C 0.35756 0.10358 0.14721 0.0
C1825 C 0.37479 0.07936 0.14044 0.0
C1826 C 0.3866 0.10074 0.09359 0.0
C1827 C 0.36618 0.12286 0.09878 0.0
N1828 N 0.33243 0.14616 0.13019 0.0
N1829 N 0.40602 0.05433 0.10787 0.0
C1830 C 0.35195 0.12467 0.12567 0.0
C1831 C 0.38975 0.07802 0.11395 0.0
N1832 N 0.34645 0.10618 0.17425 0.0
N1833 N 0.40271 0.10132 0.06904 0.0
H1834 H 0.40997 0.03821 0.12295 0.0
H1835 H 0.41468 0.04995 0.08778 0.0
H1836 H 0.40021 0.11691 0.05316 0.0
H1837 H 0.41989 0.08759 0.0651 0.0
H1838 H 0.33569 0.1243 0.18162 0.0
H1839 H 0.34993 0.09091 0.19027 0.0
H1840 H 0.31875 0.14709 0.14782 0.0
H1841 H 0.32903 0.16274 0.1155 0.0
C1842 C 0.35031 0.9257 0.8772 0.0
C1843 C 0.36466 0.95105 0.88626 0.0
C1844 C 0.37177 0.93014 0.9342 0.0
C1845 C 0.35483 0.90607 0.92601 0.0
N1846 N 0.32749 0.8805 0.89043 0.0
N1847 N 0.389 0.97819 0.92276 0.0
C1848 C 0.34412 0.90364 0.89761 0.0
C1849 C 0.37563 0.95334 0.91454 0.0
N1850 N 0.34261 0.92283 0.84904 0.0
N1851 N 0.38401 0.93085 0.96086 0.0
H1852 H 0.39391 0.99468 0.90837 0.0
H1853 H 0.39434 0.98314 0.94383 0.0
H1854 H 0.38035 0.91518 0.97646 0.0
H1855 H 0.39906 0.94607 0.96726 0.0
H1856 H 0.33448 0.90402 0.84018 0.0
H1857 H 0.34617 0.93883 0.83376 0.0
H1858 H 0.31619 0.8787 0.87129 0.0
H1859 H 0.32386 0.86328 0.90433 0.0
C1860 C 0.07134 0.37364 0.91631 0.0
C1861 C 0.07512 0.36496 0.88741 0.0
C1862 C 0.12519 0.35156 0.89796 0.0
C1863 C 0.11994 0.35629 0.92753 0.0
N1864 N 0.08821 0.37142 0.96552 0.0
N1865 N 0.10492 0.34401 0.8506 0.0
C1866 C 0.09311 0.36744 0.93686 0.0
C1867 C 0.10203 0.3539 0.87804 0.0
N1868 N 0.04706 0.38835 0.92386 0.0
N1869 N 0.15232 0.34476 0.88898 0.0
H1870 H 0.08866 0.34564 0.83531 0.0
H1871 H 0.1227 0.33255 0.84338 0.0
H1872 H 0.16949 0.34227 0.90315 0.0
H1873 H 0.15836 0.34386 0.8675 0.0
H1874 H 0.0439 0.39769 0.94388 0.0
H1875 H 0.031 0.39353 0.90912 0.0
H1876 H 0.06811 0.37608 0.97414 0.0
H1877 H 0.10406 0.36858 0.98108 0.0
C1878 C 0.66841 0.12654 0.90239 0.0
C1879 C 0.66584 0.11939 0.93186 0.0
C1880 C 0.65118 0.07034 0.91898 0.0
C1881 C 0.65764 0.07632 0.88983 0.0
N1882 N 0.67437 0.1094 0.85358 0.0
N1883 N 0.6555 0.08455 0.96884 0.0
C1884 C 0.66638 0.10437 0.88136 0.0
C1885 C 0.6573 0.09131 0.94032 0.0
N1886 N 0.6729 0.1545 0.89454 0.0
N1887 N 0.63837 0.04483 0.92606 0.0
H1888 H 0.65809 0.09968 0.98511 0.0
H1889 H 0.65294 0.06369 0.97652 0.0
H1890 H 0.63306 0.02934 0.9108 0.0
H1891 H 0.63055 0.04002 0.94643 0.0
H1892 H 0.67198 0.16172 0.87342 0.0
H1893 H 0.67538 0.17102 0.90943 0.0
H1894 H 0.68414 0.12832 0.84669 0.0
H1895 H 0.67301 0.09387 0.83755 0.0
C1896 C 0.95552 0.64723 0.91785 0.0
C1897 C 0.9518 0.6567 0.88917 0.0
C1898 C 0.90144 0.66896 0.89979 0.0
C1899 C 0.90652 0.66333 0.92924 0.0
N1900 N 0.93827 0.64784 0.96703 0.0
N1901 N 0.92192 0.6781 0.8527 0.0
C1902 C 0.93347 0.65239 0.93844 0.0
C1903 C 0.92478 0.66757 0.87994 0.0
N1904 N 0.98006 0.63283 0.92518 0.0
N1905 N 0.87427 0.67556 0.89087 0.0
H1906 H 0.9383 0.67708 0.83746 0.0
H1907 H 0.904 0.68945 0.84564 0.0
H1908 H 0.85694 0.67715 0.90501 0.0
H1909 H 0.86837 0.67714 0.8694 0.0
H1910 H 0.98323 0.62296 0.94497 0.0
H1911 H 0.99639 0.62851 0.91045 0.0
H1912 H 0.95837 0.64323 0.97563 0.0
H1913 H 0.92231 0.65023 0.98258 0.0
C1914 C 0.64909 0.95151 0.10706 0.0
C1915 C 0.66195 0.94892 0.13451 0.0
C1916 C 0.6835 0.90274 0.12061 0.0
C1917 C 0.67053 0.90524 0.09318 0.0
N1918 N 0.63762 0.92938 0.0613 0.0
N1919 N 0.68721 0.92049 0.16951 0.0
C1920 C 0.65213 0.92878 0.0868 0.0
C1921 C 0.6778 0.92394 0.14194 0.0
N1922 N 0.63473 0.9762 0.10012 0.0
N1923 N 0.70181 0.88039 0.12598 0.0
H1924 H 0.68388 0.93584 0.18545 0.0
H1925 H 0.69646 0.90169 0.17729 0.0
H1926 H 0.70528 0.86375 0.11142 0.0
H1927 H 0.71467 0.87888 0.14415 0.0
H1928 H 0.62789 0.9813 0.0795 0.0
H1929 H 0.63072 0.99247 0.11495 0.0
H1930 H 0.6216 0.94417 0.05642 0.0
H1931 H 0.64025 0.91387 0.04541 0.0
C1932 C 0.07227 0.64968 0.10734 0.0
C1933 C 0.07635 0.65808 0.13627 0.0
C1934 C 0.12681 0.66996 0.1257 0.0
C1935 C 0.12143 0.66544 0.09614 0.0
N1936 N 0.08914 0.65184 0.05809 0.0
N1937 N 0.10675 0.67801 0.17311 0.0
C1938 C 0.09423 0.65531 0.08677 0.0
C1939 C 0.10357 0.6683 0.14563 0.0
N1940 N 0.04754 0.63574 0.09975 0.0
N1941 N 0.15416 0.67578 0.13467 0.0
H1942 H 0.09043 0.67688 0.1884 0.0
H1943 H 0.12491 0.68888 0.18033 0.0
H1944 H 0.17143 0.67766 0.12049 0.0
H1945 H 0.16019 0.67644 0.15614 0.0
H1946 H 0.04412 0.6266 0.07969 0.0
H1947 H 0.03133 0.63095 0.11449 0.0
H1948 H 0.06887 0.64792 0.04952 0.0
H1949 H 0.10502 0.65449 0.04249 0.0
C1950 C 0.95535 0.37792 0.1044 0.0
C1951 C 0.95153 0.36974 0.13348 0.0
C1952 C 0.90141 0.35627 0.12322 0.0
C1953 C 0.90665 0.36056 0.09356 0.0
N1954 N 0.93848 0.37482 0.05525 0.0
N1955 N 0.92173 0.3492 0.17063 0.0
C1956 C 0.93355 0.37142 0.08398 0.0
C1957 C 0.92461 0.35881 0.14305 0.0
N1958 N 0.97967 0.39247 0.09653 0.0
N1959 N 0.87426 0.34972 0.13235 0.0
H1960 H 0.93802 0.35086 0.18587 0.0
H1961 H 0.9039 0.33784 0.17802 0.0
H1962 H 0.85705 0.34711 0.11826 0.0
H1963 H 0.86825 0.34918 0.15386 0.0
H1964 H 0.98282 0.40146 0.07633 0.0
H1965 H 0.99577 0.39785 0.11113 0.0
H1966 H 0.95862 0.37923 0.04654 0.0
H1967 H 0.92263 0.37169 0.03975 0.0
C1968 C 0.61735 0.89295 0.58154 0.0
C1969 C 0.64248 0.87581 0.58184 0.0
C1970 C 0.62708 0.85384 0.62734 0.0
C1971 C 0.6001 0.86773 0.62467 0.0
N1972 N 0.56867 0.89993 0.59896 0.0
N1973 N 0.6718 0.83967 0.60445 0.0
C1974 C 0.59514 0.88754 0.60196 0.0
C1975 C 0.64771 0.85648 0.60485 0.0
N1976 N 0.61488 0.9144 0.56165 0.0
N1977 N 0.63305 0.83847 0.65163 0.0
H1978 H 0.68793 0.84199 0.58906 0.0
H1979 H 0.67526 0.82259 0.61845 0.0
H1980 H 0.61835 0.83625 0.66841 0.0
H1981 H 0.65321 0.83002 0.6563 0.0
H1982 H 0.59839 0.9295 0.56165 0.0
H1983 H 0.6309 0.91864 0.54653 0.0
H1984 H 0.5625 0.91183 0.58109 0.0
H1985 H 0.55201 0.89686 0.61362 0.0
C1986 C 0.15495 0.58701 0.59136 0.0
C1987 C 0.16817 0.59587 0.61729 0.0
C1988 C 0.16898 0.64585 0.60017 0.0
C1989 C 0.15905 0.63638 0.57295 0.0
N1990 N 0.14252 0.59839 0.54206 0.0
N1991 N 0.18833 0.63296 0.64695 0.0
C1992 C 0.15181 0.60707 0.56848 0.0
C1993 C 0.17501 0.62518 0.62201 0.0
N1994 N 0.14499 0.55944 0.58889 0.0
N1995 N 0.17289 0.67456 0.60498 0.0
H1996 H 0.19214 0.6185 0.66365 0.0
H1997 H 0.19693 0.65324 0.65073 0.0
H1998 H 0.16978 0.69015 0.58921 0.0
H1999 H 0.17735 0.68331 0.625 0.0
H2000 H 0.13265 0.55215 0.57179 0.0
H2001 H 0.14721 0.54415 0.60512 0.0
H2002 H 0.14037 0.57699 0.536 0.0
H2003 H 0.13794 0.6128 0.52554 0.0
C2004 C 0.38077 0.16803 0.60237 0.0
C2005 C 0.38994 0.15706 0.57543 0.0
C2006 C 0.4395 0.1536 0.59329 0.0
C2007 C 0.43033 0.16452 0.62022 0.0
N2008 N 0.39194 0.1765 0.65262 0.0
N2009 N 0.42616 0.13359 0.54706 0.0
C2010 C 0.40079 0.16983 0.62548 0.0
C2011 C 0.41879 0.14801 0.57151 0.0
N2012 N 0.35339 0.17826 0.60538 0.0
N2013 N 0.46817 0.14947 0.58825 0.0
H2014 H 0.41134 0.12893 0.53093 0.0
H2015 H 0.44609 0.12401 0.54377 0.0
H2016 H 0.48386 0.15216 0.604 0.0
H2017 H 0.47671 0.14495 0.56812 0.0
H2018 H 0.34632 0.18965 0.62323 0.0
H2019 H 0.33802 0.17694 0.58918 0.0
H2020 H 0.37045 0.17784 0.65867 0.0
H2021 H 0.4062 0.1784 0.66978 0.0
C2022 C 0.87565 0.41649 0.57054 0.0
C2023 C 0.86583 0.38779 0.57359 0.0
C2024 C 0.85151 0.39787 0.62341 0.0
C2025 C 0.85767 0.42738 0.61892 0.0
N2026 N 0.87474 0.46553 0.58826 0.0
N2027 N 0.84297 0.35102 0.60212 0.0
C2028 C 0.86977 0.43687 0.59256 0.0
C2029 C 0.85374 0.37829 0.59997 0.0
N2030 N 0.89108 0.42403 0.54671 0.0
N2031 N 0.8437 0.38861 0.65013 0.0
H2032 H 0.84473 0.33594 0.58569 0.0
H2033 H 0.83081 0.34378 0.61943 0.0
H2034 H 0.84148 0.40254 0.66751 0.0
H2035 H 0.84165 0.36703 0.6557 0.0
H2036 H 0.90119 0.44382 0.5441 0.0
H2037 H 0.89598 0.40941 0.53047 0.0
H2038 H 0.88025 0.47437 0.56849 0.0
H2039 H 0.87177 0.48095 0.60422 0.0
C2040 C 0.62422 0.1777 0.39884 0.0
C2041 C 0.59846 0.1614 0.39969 0.0
C2042 C 0.61543 0.13672 0.44324 0.0
C2043 C 0.63909 0.15584 0.44452 0.0
N2044 N 0.66628 0.19503 0.42431 0.0
N2045 N 0.56824 0.12657 0.42359 0.0
C2046 C 0.6437 0.17631 0.42236 0.0
C2047 C 0.59389 0.14085 0.42188 0.0
N2048 N 0.6303 0.19398 0.37516 0.0
N2049 N 0.61358 0.11467 0.46256 0.0
H2050 H 0.55198 0.12881 0.40841 0.0
H2051 H 0.56215 0.11399 0.44105 0.0
H2052 H 0.6288 0.11148 0.47868 0.0
H2053 H 0.59849 0.0982 0.46122 0.0
H2054 H 0.64989 0.20428 0.37181 0.0
H2055 H 0.61659 0.19516 0.35751 0.0
H2056 H 0.66893 0.21279 0.41097 0.0
H2057 H 0.68181 0.1936 0.44036 0.0
C2058 C 0.84272 0.62715 0.40373 0.0
C2059 C 0.85831 0.60099 0.40427 0.0
C2060 C 0.88379 0.61695 0.44766 0.0
C2061 C 0.86536 0.64112 0.44927 0.0
N2062 N 0.82706 0.6697 0.42948 0.0
N2063 N 0.89277 0.56983 0.42725 0.0
C2064 C 0.84495 0.64651 0.42728 0.0
C2065 C 0.87898 0.59575 0.42612 0.0
N2066 N 0.82621 0.63363 0.38036 0.0
N2067 N 0.90585 0.61436 0.46682 0.0
H2068 H 0.89009 0.55388 0.4118 0.0
H2069 H 0.90548 0.56325 0.44439 0.0
H2070 H 0.90956 0.62941 0.48297 0.0
H2071 H 0.92184 0.59881 0.46534 0.0
H2072 H 0.81635 0.65344 0.37718 0.0
H2073 H 0.82432 0.6199 0.36279 0.0
H2074 H 0.80934 0.67306 0.4163 0.0
H2075 H 0.82919 0.68513 0.44554 0.0
C2076 C 0.3819 0.84354 0.42496 0.0
C2077 C 0.38863 0.863 0.4474 0.0
C2078 C 0.43582 0.87233 0.42568 0.0
C2079 C 0.42882 0.85341 0.40279 0.0
N2080 N 0.39343 0.82553 0.37745 0.0
N2081 N 0.41916 0.89992 0.46668 0.0
C2082 C 0.40129 0.84034 0.4015 0.0
C2083 C 0.41469 0.87877 0.44687 0.0
N2084 N 0.35733 0.82745 0.42656 0.0
N2085 N 0.4632 0.88278 0.42814 0.0
H2086 H 0.40428 0.90473 0.48273 0.0
H2087 H 0.43634 0.91424 0.46584 0.0
H2088 H 0.47941 0.87843 0.41331 0.0
H2089 H 0.4706 0.89392 0.446 0.0
H2090 H 0.35284 0.81036 0.4129 0.0
H2091 H 0.34201 0.83013 0.44269 0.0
H2092 H 0.37272 0.8179 0.37382 0.0
H2093 H 0.40706 0.82296 0.35986 0.0
C2094 C 0.15582 0.43976 0.43382 0.0
C2095 C 0.16618 0.43079 0.40661 0.0
C2096 C 0.16979 0.38106 0.4241 0.0
C2097 C 0.15937 0.39002 0.45134 0.0
N2098 N 0.13639 0.42606 0.48029 0.0
N2099 N 0.17731 0.39261 0.37373 0.0
C2100 C 0.15049 0.41887 0.45558 0.0
C2101 C 0.1712 0.40127 0.40106 0.0
N2102 N 0.15181 0.46839 0.43909 0.0
N2103 N 0.17992 0.3537 0.42073 0.0
H2104 H 0.17903 0.40699 0.35662 0.0
H2105 H 0.17837 0.37116 0.36754 0.0
H2106 H 0.17895 0.33822 0.43689 0.0
H2107 H 0.19094 0.34676 0.40258 0.0
H2108 H 0.14769 0.47676 0.45936 0.0
H2109 H 0.15417 0.48418 0.42335 0.0
H2110 H 0.12692 0.44599 0.48385 0.0
H2111 H 0.13182 0.41109 0.49636 0.0
C2112 C 0.59686 0.5911 0.87603 0.0
C2113 C 0.62055 0.59708 0.85766 0.0
C2114 C 0.60123 0.64542 0.84831 0.0
C2115 C 0.57601 0.63815 0.86388 0.0
N2116 N 0.54887 0.60432 0.89207 0.0
N2117 N 0.64551 0.62927 0.82573 0.0
C2118 C 0.57371 0.61114 0.87787 0.0
C2119 C 0.62289 0.62418 0.84379 0.0
N2120 N 0.59645 0.56617 0.89161 0.0
N2121 N 0.60445 0.67277 0.83801 0.0
H2122 H 0.66248 0.61484 0.82318 0.0
H2123 H 0.64699 0.64705 0.81227 0.0
H2124 H 0.58882 0.68862 0.84063 0.0
H2125 H 0.62331 0.68053 0.8288 0.0
H2126 H 0.58147 0.5617 0.90759 0.0
H2127 H 0.61233 0.55047 0.88996 0.0
H2128 H 0.54402 0.58387 0.89972 0.0
H2129 H 0.53225 0.61903 0.89512 0.0
C2130 C 0.40233 0.62346 0.84305 0.0
C2131 C 0.42971 0.62165 0.85625 0.0
C2132 C 0.41503 0.57704 0.88067 0.0
C2133 C 0.3893 0.57688 0.86447 0.0
N2134 N 0.35799 0.59923 0.82993 0.0
N2135 N 0.46311 0.59644 0.88677 0.0
C2136 C 0.38265 0.60011 0.84582 0.0
C2137 C 0.43619 0.59857 0.87521 0.0
N2138 N 0.39504 0.64781 0.82831 0.0
N2139 N 0.41908 0.55657 0.90133 0.0
H2140 H 0.47901 0.61193 0.88362 0.0
H2141 H 0.47042 0.57856 0.89802 0.0
H2142 H 0.40396 0.54051 0.90554 0.0
H2143 H 0.43604 0.55679 0.91585 0.0
H2144 H 0.37453 0.65186 0.82041 0.0
H2145 H 0.40904 0.66519 0.82595 0.0
H2146 H 0.35341 0.61344 0.81331 0.0
H2147 H 0.34245 0.58326 0.83255 0.0
C2148 C 0.40674 0.40163 0.84085 0.0
C2149 C 0.40818 0.42824 0.8556 0.0
C2150 C 0.45267 0.41296 0.87958 0.0
C2151 C 0.4513 0.38645 0.86469 0.0
N2152 N 0.42495 0.35292 0.83559 0.0
N2153 N 0.42927 0.45778 0.89248 0.0
C2154 C 0.42757 0.37996 0.84676 0.0
C2155 C 0.43006 0.43335 0.87623 0.0
N2156 N 0.38583 0.39741 0.82071 0.0
N2157 N 0.47625 0.41905 0.89599 0.0
H2158 H 0.41385 0.4738 0.88979 0.0
H2159 H 0.4427 0.46149 0.90992 0.0
H2160 H 0.49246 0.40408 0.89994 0.0
H2161 H 0.48058 0.4392 0.9046 0.0
H2162 H 0.38537 0.38002 0.80672 0.0
H2163 H 0.36937 0.41217 0.81699 0.0
H2164 H 0.40696 0.34573 0.82448 0.0
H2165 H 0.43999 0.33674 0.83938 0.0
C2166 C 0.62439 0.40201 0.84652 0.0
C2167 C 0.59645 0.40383 0.85862 0.0
C2168 C 0.60782 0.45153 0.87834 0.0
C2169 C 0.6358 0.44962 0.86636 0.0
N2170 N 0.67273 0.42169 0.8433 0.0
N2171 N 0.5627 0.42775 0.88977 0.0
C2172 C 0.64473 0.42433 0.85187 0.0
C2173 C 0.5886 0.42776 0.87585 0.0
N2174 N 0.63115 0.37924 0.82928 0.0
N2175 N 0.59939 0.47649 0.89129 0.0
H2176 H 0.5476 0.41133 0.88757 0.0
H2177 H 0.55676 0.44296 0.90498 0.0
H2178 H 0.61337 0.49368 0.89476 0.0
H2179 H 0.57834 0.48089 0.89741 0.0
H2180 H 0.64977 0.37804 0.81696 0.0
H2181 H 0.61731 0.36189 0.82611 0.0
H2182 H 0.68153 0.40285 0.83516 0.0
H2183 H 0.68797 0.43787 0.84624 0.0
C2184 C 0.56848 0.41496 0.19042 0.0
C2185 C 0.56868 0.39309 0.16915 0.0
C2186 C 0.61312 0.41487 0.15045 0.0
C2187 C 0.61567 0.43258 0.1754 0.0
N2188 N 0.59911 0.43813 0.22461 0.0
N2189 N 0.59833 0.36793 0.13427 0.0
C2190 C 0.59446 0.42917 0.19715 0.0
C2191 C 0.59311 0.3916 0.15069 0.0
N2192 N 0.54363 0.42342 0.20349 0.0
N2193 N 0.62819 0.42051 0.12594 0.0
H2194 H 0.58638 0.34908 0.13568 0.0
H2195 H 0.61709 0.36574 0.12219 0.0
H2196 H 0.6405 0.43886 0.12274 0.0
H2197 H 0.625 0.40881 0.10715 0.0
H2198 H 0.54318 0.44029 0.21821 0.0
H2199 H 0.52337 0.41689 0.19654 0.0
H2200 H 0.58408 0.43466 0.24089 0.0
H2201 H 0.61924 0.44459 0.23196 0.0
C2202 C 0.64969 0.60558 0.16567 0.0
C2203 C 0.64195 0.58013 0.15073 0.0
C2204 C 0.59292 0.59843 0.1442 0.0
C2205 C 0.60054 0.6237 0.15945 0.0
N2206 N 0.6371 0.65451 0.17896 0.0
N2207 N 0.60892 0.55495 0.12017 0.0
C2208 C 0.62931 0.62831 0.16828 0.0
C2209 C 0.61438 0.57749 0.13813 0.0
N2210 N 0.6759 0.60734 0.17877 0.0
N2211 N 0.56489 0.59388 0.13665 0.0
H2212 H 0.62441 0.53949 0.11528 0.0
H2213 H 0.59021 0.55293 0.10814 0.0
H2214 H 0.54877 0.60905 0.14004 0.0
H2215 H 0.55718 0.57451 0.1286 0.0
H2216 H 0.68157 0.62365 0.19293 0.0
H2217 H 0.69164 0.59152 0.17674 0.0
H2218 H 0.65827 0.66034 0.1832 0.0
H2219 H 0.62253 0.67137 0.18135 0.0
C2220 C 0.45717 0.60722 0.15005 0.0
C2221 C 0.4529 0.63638 0.15778 0.0
C2222 C 0.40296 0.62529 0.17148 0.0
C2223 C 0.40861 0.59563 0.16745 0.0
N2224 N 0.44118 0.55769 0.154 0.0
N2225 N 0.42252 0.67327 0.17775 0.0
C2226 C 0.43572 0.58642 0.15688 0.0
C2227 C 0.42585 0.64556 0.16865 0.0
N2228 N 0.48149 0.59965 0.13543 0.0
N2229 N 0.37567 0.63404 0.17791 0.0
H2230 H 0.43858 0.68879 0.17577 0.0
H2231 H 0.4046 0.6805 0.18899 0.0
H2232 H 0.35868 0.61965 0.1807 0.0
H2233 H 0.36934 0.65548 0.17824 0.0
H2234 H 0.48495 0.57935 0.12677 0.0
H2235 H 0.49717 0.61459 0.12955 0.0
H2236 H 0.46148 0.54933 0.14976 0.0
H2237 H 0.42564 0.54187 0.15751 0.0
C2238 C 0.40121 0.40167 0.18347 0.0
C2239 C 0.4291 0.40345 0.17125 0.0
C2240 C 0.41625 0.44938 0.14837 0.0
C2241 C 0.38975 0.44921 0.16339 0.0
N2242 N 0.35722 0.42644 0.19667 0.0
N2243 N 0.46452 0.43007 0.14421 0.0
C2244 C 0.38219 0.42557 0.18118 0.0
C2245 C 0.43689 0.42743 0.15395 0.0
N2246 N 0.39272 0.37681 0.19666 0.0
N2247 N 0.42156 0.47053 0.12867 0.0
H2248 H 0.4803 0.41459 0.14781 0.0
H2249 H 0.4725 0.44852 0.13437 0.0
H2250 H 0.40702 0.48707 0.12449 0.0
H2251 H 0.43912 0.47044 0.11482 0.0
H2252 H 0.37177 0.37291 0.20352 0.0
H2253 H 0.4061 0.35893 0.19857 0.0
H2254 H 0.35205 0.41171 0.21269 0.0
H2255 H 0.34224 0.44299 0.19467 0.0
C2256 C 0.88274 0.57632 0.61482 0.0
C2257 C 0.86274 0.57312 0.63758 0.0
C2258 C 0.83803 0.61727 0.6222 0.0
C2259 C 0.85565 0.61831 0.59738 0.0
N2260 N 0.8935 0.5978 0.56853 0.0
N2261 N 0.82086 0.58979 0.6631 0.0
C2262 C 0.87799 0.59781 0.59347 0.0
C2263 C 0.84033 0.59351 0.64139 0.0
N2264 N 0.90615 0.55864 0.61353 0.0
N2265 N 0.81967 0.63951 0.62778 0.0
H2266 H 0.8229 0.57383 0.6787 0.0
H2267 H 0.80195 0.60158 0.66495 0.0
H2268 H 0.81774 0.65731 0.61429 0.0
H2269 H 0.80822 0.64166 0.64684 0.0
H2270 H 0.92316 0.56164 0.59932 0.0
H2271 H 0.90971 0.54213 0.62826 0.0
H2272 H 0.90769 0.58153 0.56278 0.0
H2273 H 0.89077 0.61311 0.55241 0.0
C2274 C 0.87704 0.45519 0.41525 0.0
C2275 C 0.86472 0.453 0.38755 0.0
C2276 C 0.84757 0.40426 0.39886 0.0
C2277 C 0.85663 0.40801 0.42762 0.0
N2278 N 0.8791 0.43701 0.46407 0.0
N2279 N 0.83697 0.42647 0.3529 0.0
C2280 C 0.8714 0.43338 0.436 0.0
C2281 C 0.84995 0.42763 0.37917 0.0
N2282 N 0.89448 0.47801 0.42147 0.0
N2283 N 0.83691 0.37824 0.39041 0.0
H2284 H 0.83887 0.4428 0.33766 0.0
H2285 H 0.82297 0.41018 0.34671 0.0
H2286 H 0.8346 0.36092 0.40449 0.0
H2287 H 0.83251 0.37301 0.36918 0.0
H2288 H 0.90639 0.47977 0.44025 0.0
H2289 H 0.89897 0.49424 0.40664 0.0
H2290 H 0.88686 0.45623 0.47241 0.0
H2291 H 0.87621 0.42113 0.47963 0.0
C2292 C 0.56784 0.83566 0.4167 0.0
C2293 C 0.56811 0.85673 0.39457 0.0
C2294 C 0.61224 0.87592 0.41638 0.0
C2295 C 0.61483 0.85105 0.43431 0.0
N2296 N 0.59841 0.80175 0.44044 0.0
N2297 N 0.59756 0.89191 0.36938 0.0
C2298 C 0.59372 0.82915 0.43111 0.0
C2299 C 0.59237 0.87544 0.39307 0.0
N2300 N 0.54297 0.82253 0.42514 0.0
N2301 N 0.62715 0.90058 0.42187 0.0
H2302 H 0.58566 0.89046 0.35058 0.0
H2303 H 0.61624 0.90414 0.36717 0.0
H2304 H 0.63933 0.9039 0.44022 0.0
H2305 H 0.62394 0.91935 0.41004 0.0
H2306 H 0.54242 0.80797 0.44219 0.0
H2307 H 0.52275 0.82931 0.41831 0.0
H2308 H 0.58346 0.78535 0.43713 0.0
H2309 H 0.61852 0.7945 0.44707 0.0
C2310 C 0.18031 0.62368 0.4008 0.0
C2311 C 0.16598 0.62259 0.42768 0.0
C2312 C 0.1444 0.57606 0.41477 0.0
C2313 C 0.15868 0.57722 0.38792 0.0
N2314 N 0.18593 0.60383 0.35289 0.0
N2315 N 0.1304 0.60069 0.45847 0.0
C2316 C 0.17523 0.60168 0.38014 0.0
C2317 C 0.14661 0.59977 0.434 0.0
N2318 N 0.19927 0.64549 0.39533 0.0
N2319 N 0.12961 0.55177 0.42229 0.0
H2320 H 0.1321 0.61707 0.47356 0.0
H2321 H 0.11377 0.58641 0.46296 0.0
H2322 H 0.12647 0.53463 0.40824 0.0
H2323 H 0.12175 0.54779 0.44282 0.0
H2324 H 0.2131 0.64592 0.37778 0.0
H2325 H 0.20217 0.66282 0.4092 0.0
H2326 H 0.19584 0.62217 0.34476 0.0
H2327 H 0.18301 0.58789 0.33746 0.0
C2328 C 0.42351 0.1647 0.37955 0.0
C2329 C 0.45138 0.156 0.38857 0.0
C2330 C 0.43561 0.15711 0.43887 0.0
C2331 C 0.40769 0.16552 0.42986 0.0
N2332 N 0.37321 0.17177 0.39193 0.0
N2333 N 0.48219 0.13759 0.4257 0.0
C2334 C 0.40102 0.16736 0.40024 0.0
C2335 C 0.45687 0.15032 0.41796 0.0
N2336 N 0.41896 0.17207 0.35153 0.0
N2337 N 0.44194 0.15606 0.4675 0.0
H2338 H 0.49789 0.13183 0.41079 0.0
H2339 H 0.48663 0.13029 0.44633 0.0
H2340 H 0.42659 0.15917 0.48352 0.0
H2341 H 0.46267 0.15363 0.4755 0.0
H2342 H 0.40021 0.18179 0.34419 0.0
H2343 H 0.43473 0.17032 0.33573 0.0
H2344 H 0.36632 0.17033 0.37075 0.0
H2345 H 0.35648 0.17471 0.40654 0.0
C2346 C 0.14518 0.45098 0.61169 0.0
C2347 C 0.15912 0.44959 0.63869 0.0
C2348 C 0.18132 0.40354 0.62545 0.0
C2349 C 0.16784 0.40521 0.59821 0.0
N2350 N 0.13281 0.42717 0.56703 0.0
N2351 N 0.18577 0.42265 0.6738 0.0
C2352 C 0.14828 0.42781 0.59195 0.0
C2353 C 0.17557 0.42511 0.64641 0.0
N2354 N 0.12992 0.47506 0.60456 0.0
N2355 N 0.20023 0.38173 0.63088 0.0
H2356 H 0.18221 0.43827 0.68942 0.0
H2357 H 0.19582 0.40438 0.68181 0.0
H2358 H 0.20376 0.36489 0.61656 0.0
H2359 H 0.21339 0.3808 0.64888 0.0
H2360 H 0.12224 0.47936 0.58406 0.0
H2361 H 0.12593 0.4916 0.61912 0.0
H2362 H 0.11615 0.44131 0.56235 0.0
H2363 H 0.13523 0.41114 0.55163 0.0
C2364 C 0.6196 0.18564 0.61741 0.0
C2365 C 0.62002 0.16765 0.5929 0.0
C2366 C 0.57865 0.14061 0.61193 0.0
C2367 C 0.57606 0.16088 0.63446 0.0
N2368 N 0.5932 0.20327 0.65872 0.0
N2369 N 0.59876 0.1294 0.5652 0.0
C2370 C 0.5964 0.1835 0.63728 0.0
C2371 C 0.59948 0.14519 0.5899 0.0
N2372 N 0.64191 0.20421 0.62205 0.0
N2373 N 0.56102 0.1171 0.61149 0.0
H2374 H 0.61355 0.13201 0.54858 0.0
H2375 H 0.58234 0.11509 0.56013 0.0
H2376 H 0.54488 0.11367 0.62666 0.0
H2377 H 0.5637 0.09991 0.59749 0.0
H2378 H 0.64454 0.21596 0.64083 0.0
H2379 H 0.65933 0.20604 0.60805 0.0
H2380 H 0.60493 0.22228 0.65989 0.0
H2381 H 0.57768 0.20139 0.67479 0.0
C2382 C 0.45627 0.87508 0.60435 0.0
C2383 C 0.45115 0.86928 0.63382 0.0
C2384 C 0.40058 0.85821 0.62287 0.0
C2385 C 0.40682 0.86026 0.59317 0.0
N2386 N 0.44071 0.86931 0.55503 0.0
N2387 N 0.4192 0.85253 0.67112 0.0
C2388 C 0.4347 0.86844 0.58375 0.0
C2389 C 0.42339 0.86046 0.64318 0.0
N2390 N 0.48153 0.8878 0.59624 0.0
N2391 N 0.37283 0.85409 0.63163 0.0
H2392 H 0.43524 0.85371 0.68666 0.0
H2393 H 0.40049 0.84274 0.67855 0.0
H2394 H 0.35583 0.8516 0.61727 0.0
H2395 H 0.3663 0.85544 0.65294 0.0
H2396 H 0.48566 0.89518 0.57556 0.0
H2397 H 0.49746 0.89348 0.6109 0.0
H2398 H 0.46138 0.87161 0.54677 0.0
H2399 H 0.42517 0.86606 0.53925 0.0
loop_
_geom_bond_atom_site_label_1
_geom_bond_atom_site_label_2
_geom_bond_distance
_geom_bond_site_symmetry_2
_ccdc_geom_bond_type
O0 Cd1 2.223 . S
O0 C8 1.315 . S
Cd1 O0 2.223 . S
Cd1 O4 2.297 . S
Cd1 O5 2.439 . S
Cd1 O11 2.240 . S
Cd2 O3 2.240 . S
Cd2 O10 2.223 . S
Cd2 O12 2.297 . S
Cd2 O13 2.439 . S
O3 Cd2 2.240 . S
O3 C8 1.279 . S
O4 Cd1 2.297 . S
O4 C6 1.247 . S
O5 Cd1 2.439 . S
O5 C6 1.208 . S
C6 O4 1.247 . S
C6 O5 1.208 . S
C7 O12 1.247 . S
C7 O13 1.208 . S
C8 O0 1.315 . S
C8 O3 1.279 . S
C9 O10 1.315 . S
C9 O11 1.279 . S
O10 Cd2 2.223 . S
O10 C9 1.315 . S
O11 Cd1 2.240 . S
O11 C9 1.279 . S
O12 Cd2 2.297 . S
O12 C7 1.247 . S
O13 Cd2 2.439 . S
O13 C7 1.208 . S
O14 Cd15 2.223 . S
O14 C22 1.315 . S
Cd15 O14 2.223 . S
Cd15 O18 2.297 . S
Cd15 O19 2.439 . S
Cd15 O25 2.240 . S
Cd16 O17 2.240 . S
Cd16 O24 2.223 . S
Cd16 O26 2.297 . S
Cd16 O27 2.439 . S
O17 Cd16 2.240 . S
O17 C22 1.279 . S
O18 Cd15 2.297 . S
O18 C20 1.247 . S
O19 Cd15 2.439 . S
O19 C20 1.208 . S
C20 O18 1.247 . S
C20 O19 1.208 . S
C21 O26 1.247 . S
C21 O27 1.208 . S
C22 O14 1.315 . S
C22 O17 1.279 . S
C23 O24 1.315 . S
C23 O25 1.279 . S
O24 Cd16 2.223 . S
O24 C23 1.315 . S
O25 Cd15 2.240 . S
O25 C23 1.279 . S
O26 Cd16 2.297 . S
O26 C21 1.247 . S
O27 Cd16 2.439 . S
O27 C21 1.208 . S
O28 Cd29 2.223 . S
O28 C36 1.315 . S
Cd29 O28 2.223 . S
Cd29 O32 2.297 . S
Cd29 O33 2.439 . S
Cd29 O39 2.240 . S
Cd30 O31 2.240 . S
Cd30 O38 2.223 . S
Cd30 O40 2.297 . S
Cd30 O41 2.439 . S
O31 Cd30 2.240 . S
O31 C36 1.279 . S
O32 Cd29 2.297 . S
O32 C34 1.247 . S
O33 Cd29 2.439 . S
O33 C34 1.208 . S
C34 O32 1.247 . S
C34 O33 1.208 . S
C35 O40 1.247 . S
C35 O41 1.208 . S
C36 O28 1.315 . S
C36 O31 1.279 . S
C37 O38 1.315 . S
C37 O39 1.279 . S
O38 Cd30 2.223 . S
O38 C37 1.315 . S
O39 Cd29 2.240 . S
O39 C37 1.279 . S
O40 Cd30 2.297 . S
O40 C35 1.247 . S
O41 Cd30 2.439 . S
O41 C35 1.208 . S
O42 Cd43 2.223 . S
O42 C50 1.315 . S
Cd43 O42 2.223 . S
Cd43 O46 2.297 . S
Cd43 O47 2.439 . S
Cd43 O53 2.240 . S
Cd44 O45 2.240 . S
Cd44 O52 2.223 . S
Cd44 O54 2.297 . S
Cd44 O55 2.439 . S
O45 Cd44 2.240 . S
O45 C50 1.279 . S
O46 Cd43 2.297 . S
O46 C48 1.247 . S
O47 Cd43 2.439 . S
O47 C48 1.208 . S
C48 O46 1.247 . S
C48 O47 1.208 . S
C49 O54 1.247 . S
C49 O55 1.208 . S
C50 O42 1.315 . S
C50 O45 1.279 . S
C51 O52 1.315 . S
C51 O53 1.279 . S
O52 Cd44 2.223 . S
O52 C51 1.315 . S
O53 Cd43 2.240 . S
O53 C51 1.279 . S
O54 Cd44 2.297 . S
O54 C49 1.247 . S
O55 Cd44 2.439 . S
O55 C49 1.208 . S
O56 Cd57 2.223 . S
O56 C64 1.315 . S
Cd57 O56 2.223 . S
Cd57 O60 2.297 . S
Cd57 O61 2.439 . S
Cd57 O67 2.240 . S
Cd58 O59 2.240 . S
Cd58 O66 2.223 . S
Cd58 O68 2.297 . S
Cd58 O69 2.439 . S
O59 Cd58 2.240 . S
O59 C64 1.279 . S
O60 Cd57 2.297 . S
O60 C62 1.247 . S
O61 Cd57 2.439 . S
O61 C62 1.208 . S
C62 O60 1.247 . S
C62 O61 1.208 . S
C63 O68 1.247 . S
C63 O69 1.208 . S
C64 O56 1.315 . S
C64 O59 1.279 . S
C65 O66 1.315 . S
C65 O67 1.279 . S
O66 Cd58 2.223 . S
O66 C65 1.315 . S
O67 Cd57 2.240 . S
O67 C65 1.279 . S
O68 Cd58 2.297 . S
O68 C63 1.247 . S
O69 Cd58 2.439 . S
O69 C63 1.208 . S
O70 Cd71 2.223 . S
O70 C78 1.315 . S
Cd71 O70 2.223 . S
Cd71 O74 2.297 . S
Cd71 O75 2.439 . S
Cd71 O81 2.240 . S
Cd72 O73 2.240 . S
Cd72 O80 2.223 . S
Cd72 O82 2.297 . S
Cd72 O83 2.439 . S
O73 Cd72 2.240 . S
O73 C78 1.279 . S
O74 Cd71 2.297 . S
O74 C76 1.247 . S
O75 Cd71 2.439 . S
O75 C76 1.208 . S
C76 O74 1.247 . S
C76 O75 1.208 . S
C77 O82 1.247 . S
C77 O83 1.208 . S
C78 O70 1.315 . S
C78 O73 1.279 . S
C79 O80 1.315 . S
C79 O81 1.279 . S
O80 Cd72 2.223 . S
O80 C79 1.315 . S
O81 Cd71 2.240 . S
O81 C79 1.279 . S
O82 Cd72 2.297 . S
O82 C77 1.247 . S
O83 Cd72 2.439 . S
O83 C77 1.208 . S
O84 Cd85 2.223 . S
O84 C92 1.315 . S
Cd85 O84 2.223 . S
Cd85 O88 2.297 . S
Cd85 O89 2.439 . S
Cd85 O95 2.240 . S
Cd86 O87 2.240 . S
Cd86 O94 2.223 . S
Cd86 O96 2.297 . S
Cd86 O97 2.439 . S
O87 Cd86 2.240 . S
O87 C92 1.279 . S
O88 Cd85 2.297 . S
O88 C90 1.247 . S
O89 Cd85 2.439 . S
O89 C90 1.208 . S
C90 O88 1.247 . S
C90 O89 1.208 . S
C91 O96 1.247 . S
C91 O97 1.208 . S
C92 O84 1.315 . S
C92 O87 1.279 . S
C93 O94 1.315 . S
C93 O95 1.279 . S
O94 Cd86 2.223 . S
O94 C93 1.315 . S
O95 Cd85 2.240 . S
O95 C93 1.279 . S
O96 Cd86 2.297 . S
O96 C91 1.247 . S
O97 Cd86 2.439 . S
O97 C91 1.208 . S
O98 Cd99 2.223 . S
O98 C106 1.315 . S
Cd99 O98 2.223 . S
Cd99 O102 2.297 . S
Cd99 O103 2.439 . S
Cd99 O109 2.240 . S
Cd100 O101 2.240 . S
Cd100 O108 2.223 . S
Cd100 O110 2.297 . S
Cd100 O111 2.439 . S
O101 Cd100 2.240 . S
O101 C106 1.279 . S
O102 Cd99 2.297 . S
O102 C104 1.247 . S
O103 Cd99 2.439 . S
O103 C104 1.208 . S
C104 O102 1.247 . S
C104 O103 1.208 . S
C105 O110 1.247 . S
C105 O111 1.208 . S
C106 O98 1.315 . S
C106 O101 1.279 . S
C107 O108 1.315 . S
C107 O109 1.279 . S
O108 Cd100 2.223 . S
O108 C107 1.315 . S
O109 Cd99 2.240 . S
O109 C107 1.279 . S
O110 Cd100 2.297 . S
O110 C105 1.247 . S
O111 Cd100 2.439 . S
O111 C105 1.208 . S
O112 Cd113 2.223 . S
O112 C120 1.315 . S
Cd113 O112 2.223 . S
Cd113 O116 2.297 . S
Cd113 O117 2.439 . S
Cd113 O123 2.240 . S
Cd114 O115 2.240 . S
Cd114 O122 2.223 . S
Cd114 O124 2.297 . S
Cd114 O125 2.439 . S
O115 Cd114 2.240 . S
O115 C120 1.279 . S
O116 Cd113 2.297 . S
O116 C118 1.247 . S
O117 Cd113 2.439 . S
O117 C118 1.208 . S
C118 O116 1.247 . S
C118 O117 1.208 . S
C119 O124 1.247 . S
C119 O125 1.208 . S
C120 O112 1.315 . S
C120 O115 1.279 . S
C121 O122 1.315 . S
C121 O123 1.279 . S
O122 Cd114 2.223 . S
O122 C121 1.315 . S
O123 Cd113 2.240 . S
O123 C121 1.279 . S
O124 Cd114 2.297 . S
O124 C119 1.247 . S
O125 Cd114 2.439 . S
O125 C119 1.208 . S
O126 Cd127 2.223 . S
O126 C134 1.315 . S
Cd127 O126 2.223 . S
Cd127 O130 2.297 . S
Cd127 O131 2.439 . S
Cd127 O137 2.240 . S
Cd128 O129 2.240 . S
Cd128 O136 2.223 . S
Cd128 O138 2.297 . S
Cd128 O139 2.439 . S
O129 Cd128 2.240 . S
O129 C134 1.279 . S
O130 Cd127 2.297 . S
O130 C132 1.247 . S
O131 Cd127 2.439 . S
O131 C132 1.208 . S
C132 O130 1.247 . S
C132 O131 1.208 . S
C133 O138 1.247 . S
C133 O139 1.208 . S
C134 O126 1.315 . S
C134 O129 1.279 . S
C135 O136 1.315 . S
C135 O137 1.279 . S
O136 Cd128 2.223 . S
O136 C135 1.315 . S
O137 Cd127 2.240 . S
O137 C135 1.279 . S
O138 Cd128 2.297 . S
O138 C133 1.247 . S
O139 Cd128 2.439 . S
O139 C133 1.208 . S
O140 Cd141 2.223 . S
O140 C148 1.315 . S
Cd141 O140 2.223 . S
Cd141 O144 2.297 . S
Cd141 O145 2.439 . S
Cd141 O151 2.240 . S
Cd142 O143 2.240 . S
Cd142 O150 2.223 . S
Cd142 O152 2.297 . S
Cd142 O153 2.439 . S
O143 Cd142 2.240 . S
O143 C148 1.279 . S
O144 Cd141 2.297 . S
O144 C146 1.247 . S
O145 Cd141 2.439 . S
O145 C146 1.208 . S
C146 O144 1.247 . S
C146 O145 1.208 . S
C147 O152 1.247 . S
C147 O153 1.208 . S
C148 O140 1.315 . S
C148 O143 1.279 . S
C149 O150 1.315 . S
C149 O151 1.279 . S
O150 Cd142 2.223 . S
O150 C149 1.315 . S
O151 Cd141 2.240 . S
O151 C149 1.279 . S
O152 Cd142 2.297 . S
O152 C147 1.247 . S
O153 Cd142 2.439 . S
O153 C147 1.208 . S
O154 Cd155 2.223 . S
O154 C162 1.315 . S
Cd155 O154 2.223 . S
Cd155 O158 2.297 . S
Cd155 O159 2.439 . S
Cd155 O165 2.240 . S
Cd156 O157 2.240 . S
Cd156 O164 2.223 . S
Cd156 O166 2.297 . S
Cd156 O167 2.439 . S
O157 Cd156 2.240 . S
O157 C162 1.279 . S
O158 Cd155 2.297 . S
O158 C160 1.247 . S
O159 Cd155 2.439 . S
O159 C160 1.208 . S
C160 O158 1.247 . S
C160 O159 1.208 . S
C161 O166 1.247 . S
C161 O167 1.208 . S
C162 O154 1.315 . S
C162 O157 1.279 . S
C163 O164 1.315 . S
C163 O165 1.279 . S
O164 Cd156 2.223 . S
O164 C163 1.315 . S
O165 Cd155 2.240 . S
O165 C163 1.279 . S
O166 Cd156 2.297 . S
O166 C161 1.247 . S
O167 Cd156 2.439 . S
O167 C161 1.208 . S
O168 Cd169 2.223 . S
O168 C176 1.315 . S
Cd169 O168 2.223 . S
Cd169 O172 2.297 . S
Cd169 O173 2.439 . S
Cd169 O179 2.240 . S
Cd170 O171 2.240 . S
Cd170 O178 2.223 . S
Cd170 O180 2.297 . S
Cd170 O181 2.439 . S
O171 Cd170 2.240 . S
O171 C176 1.279 . S
O172 Cd169 2.297 . S
O172 C174 1.247 . S
O173 Cd169 2.439 . S
O173 C174 1.208 . S
C174 O172 1.247 . S
C174 O173 1.208 . S
C175 O180 1.247 . S
C175 O181 1.208 . S
C176 O168 1.315 . S
C176 O171 1.279 . S
C177 O178 1.315 . S
C177 O179 1.279 . S
O178 Cd170 2.223 . S
O178 C177 1.315 . S
O179 Cd169 2.240 . S
O179 C177 1.279 . S
O180 Cd170 2.297 . S
O180 C175 1.247 . S
O181 Cd170 2.439 . S
O181 C175 1.208 . S
O182 Cd183 2.223 . S
O182 C190 1.315 . S
Cd183 O182 2.223 . S
Cd183 O186 2.297 . S
Cd183 O187 2.439 . S
Cd183 O193 2.240 . S
Cd184 O185 2.240 . S
Cd184 O192 2.223 . S
Cd184 O194 2.297 . S
Cd184 O195 2.439 . S
O185 Cd184 2.240 . S
O185 C190 1.279 . S
O186 Cd183 2.297 . S
O186 C188 1.247 . S
O187 Cd183 2.439 . S
O187 C188 1.208 . S
C188 O186 1.247 . S
C188 O187 1.208 . S
C189 O194 1.247 . S
C189 O195 1.208 . S
C190 O182 1.315 . S
C190 O185 1.279 . S
C191 O192 1.315 . S
C191 O193 1.279 . S
O192 Cd184 2.223 . S
O192 C191 1.315 . S
O193 Cd183 2.240 . S
O193 C191 1.279 . S
O194 Cd184 2.297 . S
O194 C189 1.247 . S
O195 Cd184 2.439 . S
O195 C189 1.208 . S
O196 Cd197 2.223 . S
O196 C204 1.315 . S
Cd197 O196 2.223 . S
Cd197 O200 2.297 . S
Cd197 O201 2.439 . S
Cd197 O207 2.240 . S
Cd198 O199 2.240 . S
Cd198 O206 2.223 . S
Cd198 O208 2.297 . S
Cd198 O209 2.439 . S
O199 Cd198 2.240 . S
O199 C204 1.279 . S
O200 Cd197 2.297 . S
O200 C202 1.247 . S
O201 Cd197 2.439 . S
O201 C202 1.208 . S
C202 O200 1.247 . S
C202 O201 1.208 . S
C203 O208 1.247 . S
C203 O209 1.208 . S
C204 O196 1.315 . S
C204 O199 1.279 . S
C205 O206 1.315 . S
C205 O207 1.279 . S
O206 Cd198 2.223 . S
O206 C205 1.315 . S
O207 Cd197 2.240 . S
O207 C205 1.279 . S
O208 Cd198 2.297 . S
O208 C203 1.247 . S
O209 Cd198 2.439 . S
O209 C203 1.208 . S
O210 Cd211 2.223 . S
O210 C218 1.315 . S
Cd211 O210 2.223 . S
Cd211 O214 2.297 . S
Cd211 O215 2.439 . S
Cd211 O221 2.240 . S
Cd212 O213 2.240 . S
Cd212 O220 2.223 . S
Cd212 O222 2.297 . S
Cd212 O223 2.439 . S
O213 Cd212 2.240 . S
O213 C218 1.279 . S
O214 Cd211 2.297 . S
O214 C216 1.247 . S
O215 Cd211 2.439 . S
O215 C216 1.208 . S
C216 O214 1.247 . S
C216 O215 1.208 . S
C217 O222 1.247 . S
C217 O223 1.208 . S
C218 O210 1.315 . S
C218 O213 1.279 . S
C219 O220 1.315 . S
C219 O221 1.279 . S
O220 Cd212 2.223 . S
O220 C219 1.315 . S
O221 Cd211 2.240 . S
O221 C219 1.279 . S
O222 Cd212 2.297 . S
O222 C217 1.247 . S
O223 Cd212 2.439 . S
O223 C217 1.208 . S
O224 Cd225 2.223 . S
O224 C232 1.315 . S
Cd225 O224 2.223 . S
Cd225 O228 2.297 . S
Cd225 O229 2.439 . S
Cd225 O235 2.240 . S
Cd226 O227 2.240 . S
Cd226 O234 2.223 . S
Cd226 O236 2.297 . S
Cd226 O237 2.439 . S
O227 Cd226 2.240 . S
O227 C232 1.279 . S
O228 Cd225 2.297 . S
O228 C230 1.247 . S
O229 Cd225 2.439 . S
O229 C230 1.208 . S
C230 O228 1.247 . S
C230 O229 1.208 . S
C231 O236 1.247 . S
C231 O237 1.208 . S
C232 O224 1.315 . S
C232 O227 1.279 . S
C233 O234 1.315 . S
C233 O235 1.279 . S
O234 Cd226 2.223 . S
O234 C233 1.315 . S
O235 Cd225 2.240 . S
O235 C233 1.279 . S
O236 Cd226 2.297 . S
O236 C231 1.247 . S
O237 Cd226 2.439 . S
O237 C231 1.208 . S
O238 Cd239 2.223 . S
O238 C246 1.315 . S
Cd239 O238 2.223 . S
Cd239 O242 2.297 . S
Cd239 O243 2.439 . S
Cd239 O249 2.240 . S
Cd240 O241 2.240 . S
Cd240 O248 2.223 . S
Cd240 O250 2.297 . S
Cd240 O251 2.439 . S
O241 Cd240 2.240 . S
O241 C246 1.279 . S
O242 Cd239 2.297 . S
O242 C244 1.247 . S
O243 Cd239 2.439 . S
O243 C244 1.208 . S
C244 O242 1.247 . S
C244 O243 1.208 . S
C245 O250 1.247 . S
C245 O251 1.208 . S
C246 O238 1.315 . S
C246 O241 1.279 . S
C247 O248 1.315 . S
C247 O249 1.279 . S
O248 Cd240 2.223 . S
O248 C247 1.315 . S
O249 Cd239 2.240 . S
O249 C247 1.279 . S
O250 Cd240 2.297 . S
O250 C245 1.247 . S
O251 Cd240 2.439 . S
O251 C245 1.208 . S
O252 Cd253 2.223 . S
O252 C260 1.315 . S
Cd253 O252 2.223 . S
Cd253 O256 2.297 . S
Cd253 O257 2.439 . S
Cd253 O263 2.240 . S
Cd254 O255 2.240 . S
Cd254 O262 2.223 . S
Cd254 O264 2.297 . S
Cd254 O265 2.439 . S
O255 Cd254 2.240 . S
O255 C260 1.279 . S
O256 Cd253 2.297 . S
O256 C258 1.247 . S
O257 Cd253 2.439 . S
O257 C258 1.208 . S
C258 O256 1.247 . S
C258 O257 1.208 . S
C259 O264 1.247 . S
C259 O265 1.208 . S
C260 O252 1.315 . S
C260 O255 1.279 . S
C261 O262 1.315 . S
C261 O263 1.279 . S
O262 Cd254 2.223 . S
O262 C261 1.315 . S
O263 Cd253 2.240 . S
O263 C261 1.279 . S
O264 Cd254 2.297 . S
O264 C259 1.247 . S
O265 Cd254 2.439 . S
O265 C259 1.208 . S
O266 Cd267 2.223 . S
O266 C274 1.315 . S
Cd267 O266 2.223 . S
Cd267 O270 2.297 . S
Cd267 O271 2.439 . S
Cd267 O277 2.240 . S
Cd268 O269 2.240 . S
Cd268 O276 2.223 . S
Cd268 O278 2.297 . S
Cd268 O279 2.439 . S
O269 Cd268 2.240 . S
O269 C274 1.279 . S
O270 Cd267 2.297 . S
O270 C272 1.247 . S
O271 Cd267 2.439 . S
O271 C272 1.208 . S
C272 O270 1.247 . S
C272 O271 1.208 . S
C273 O278 1.247 . S
C273 O279 1.208 . S
C274 O266 1.315 . S
C274 O269 1.279 . S
C275 O276 1.315 . S
C275 O277 1.279 . S
O276 Cd268 2.223 . S
O276 C275 1.315 . S
O277 Cd267 2.240 . S
O277 C275 1.279 . S
O278 Cd268 2.297 . S
O278 C273 1.247 . S
O279 Cd268 2.439 . S
O279 C273 1.208 . S
O280 Cd281 2.223 . S
O280 C288 1.315 . S
Cd281 O280 2.223 . S
Cd281 O284 2.297 . S
Cd281 O285 2.439 . S
Cd281 O291 2.240 . S
Cd282 O283 2.240 . S
Cd282 O290 2.223 . S
Cd282 O292 2.297 . S
Cd282 O293 2.439 . S
O283 Cd282 2.240 . S
O283 C288 1.279 . S
O284 Cd281 2.297 . S
O284 C286 1.247 . S
O285 Cd281 2.439 . S
O285 C286 1.208 . S
C286 O284 1.247 . S
C286 O285 1.208 . S
C287 O292 1.247 . S
C287 O293 1.208 . S
C288 O280 1.315 . S
C288 O283 1.279 . S
C289 O290 1.315 . S
C289 O291 1.279 . S
O290 Cd282 2.223 . S
O290 C289 1.315 . S
O291 Cd281 2.240 . S
O291 C289 1.279 . S
O292 Cd282 2.297 . S
O292 C287 1.247 . S
O293 Cd282 2.439 . S
O293 C287 1.208 . S
O294 Cd295 2.223 . S
O294 C302 1.315 . S
Cd295 O294 2.223 . S
Cd295 O298 2.297 . S
Cd295 O299 2.439 . S
Cd295 O305 2.240 . S
Cd296 O297 2.240 . S
Cd296 O304 2.223 . S
Cd296 O306 2.297 . S
Cd296 O307 2.439 . S
O297 Cd296 2.240 . S
O297 C302 1.279 . S
O298 Cd295 2.297 . S
O298 C300 1.247 . S
O299 Cd295 2.439 . S
O299 C300 1.208 . S
C300 O298 1.247 . S
C300 O299 1.208 . S
C301 O306 1.247 . S
C301 O307 1.208 . S
C302 O294 1.315 . S
C302 O297 1.279 . S
C303 O304 1.315 . S
C303 O305 1.279 . S
O304 Cd296 2.223 . S
O304 C303 1.315 . S
O305 Cd295 2.240 . S
O305 C303 1.279 . S
O306 Cd296 2.297 . S
O306 C301 1.247 . S
O307 Cd296 2.439 . S
O307 C301 1.208 . S
O308 Cd309 2.223 . S
O308 C316 1.315 . S
Cd309 O308 2.223 . S
Cd309 O312 2.297 . S
Cd309 O313 2.439 . S
Cd309 O319 2.240 . S
Cd310 O311 2.240 . S
Cd310 O318 2.223 . S
Cd310 O320 2.297 . S
Cd310 O321 2.439 . S
O311 Cd310 2.240 . S
O311 C316 1.279 . S
O312 Cd309 2.297 . S
O312 C314 1.247 . S
O313 Cd309 2.439 . S
O313 C314 1.208 . S
C314 O312 1.247 . S
C314 O313 1.208 . S
C315 O320 1.247 . S
C315 O321 1.208 . S
C316 O308 1.315 . S
C316 O311 1.279 . S
C317 O318 1.315 . S
C317 O319 1.279 . S
O318 Cd310 2.223 . S
O318 C317 1.315 . S
O319 Cd309 2.240 . S
O319 C317 1.279 . S
O320 Cd310 2.297 . S
O320 C315 1.247 . S
O321 Cd310 2.439 . S
O321 C315 1.208 . S
O322 Cd323 2.223 . S
O322 C330 1.315 . S
Cd323 O322 2.223 . S
Cd323 O326 2.297 . S
Cd323 O327 2.439 . S
Cd323 O333 2.240 . S
Cd324 O325 2.240 . S
Cd324 O332 2.223 . S
Cd324 O334 2.297 . S
Cd324 O335 2.439 . S
O325 Cd324 2.240 . S
O325 C330 1.279 . S
O326 Cd323 2.297 . S
O326 C328 1.247 . S
O327 Cd323 2.439 . S
O327 C328 1.208 . S
C328 O326 1.247 . S
C328 O327 1.208 . S
C329 O334 1.247 . S
C329 O335 1.208 . S
C330 O322 1.315 . S
C330 O325 1.279 . S
C331 O332 1.315 . S
C331 O333 1.279 . S
O332 Cd324 2.223 . S
O332 C331 1.315 . S
O333 Cd323 2.240 . S
O333 C331 1.279 . S
O334 Cd324 2.297 . S
O334 C329 1.247 . S
O335 Cd324 2.439 . S
O335 C329 1.208 . S
O336 Cd337 2.223 . S
O336 C344 1.315 . S
Cd337 O336 2.223 . S
Cd337 O340 2.297 . S
Cd337 O341 2.439 . S
Cd337 O347 2.240 . S
Cd338 O339 2.240 . S
Cd338 O346 2.223 . S
Cd338 O348 2.297 . S
Cd338 O349 2.439 . S
O339 Cd338 2.240 . S
O339 C344 1.279 . S
O340 Cd337 2.297 . S
O340 C342 1.247 . S
O341 Cd337 2.439 . S
O341 C342 1.208 . S
C342 O340 1.247 . S
C342 O341 1.208 . S
C343 O348 1.247 . S
C343 O349 1.208 . S
C344 O336 1.315 . S
C344 O339 1.279 . S
C345 O346 1.315 . S
C345 O347 1.279 . S
O346 Cd338 2.223 . S
O346 C345 1.315 . S
O347 Cd337 2.240 . S
O347 C345 1.279 . S
O348 Cd338 2.297 . S
O348 C343 1.247 . S
O349 Cd338 2.439 . S
O349 C343 1.208 . S
O350 Cd351 2.223 . S
O350 C358 1.315 . S
Cd351 O350 2.223 . S
Cd351 O354 2.297 . S
Cd351 O355 2.439 . S
Cd351 O361 2.240 . S
Cd352 O353 2.240 . S
Cd352 O360 2.223 . S
Cd352 O362 2.297 . S
Cd352 O363 2.439 . S
O353 Cd352 2.240 . S
O353 C358 1.279 . S
O354 Cd351 2.297 . S
O354 C356 1.247 . S
O355 Cd351 2.439 . S
O355 C356 1.208 . S
C356 O354 1.247 . S
C356 O355 1.208 . S
C357 O362 1.247 . S
C357 O363 1.208 . S
C358 O350 1.315 . S
C358 O353 1.279 . S
C359 O360 1.315 . S
C359 O361 1.279 . S
O360 Cd352 2.223 . S
O360 C359 1.315 . S
O361 Cd351 2.240 . S
O361 C359 1.279 . S
O362 Cd352 2.297 . S
O362 C357 1.247 . S
O363 Cd352 2.439 . S
O363 C357 1.208 . S
O364 Cd365 2.223 . S
O364 C372 1.315 . S
Cd365 O364 2.223 . S
Cd365 O368 2.297 . S
Cd365 O369 2.439 . S
Cd365 O375 2.240 . S
Cd366 O367 2.240 . S
Cd366 O374 2.223 . S
Cd366 O376 2.297 . S
Cd366 O377 2.439 . S
O367 Cd366 2.240 . S
O367 C372 1.279 . S
O368 Cd365 2.297 . S
O368 C370 1.247 . S
O369 Cd365 2.439 . S
O369 C370 1.208 . S
C370 O368 1.247 . S
C370 O369 1.208 . S
C371 O376 1.247 . S
C371 O377 1.208 . S
C372 O364 1.315 . S
C372 O367 1.279 . S
C373 O374 1.315 . S
C373 O375 1.279 . S
O374 Cd366 2.223 . S
O374 C373 1.315 . S
O375 Cd365 2.240 . S
O375 C373 1.279 . S
O376 Cd366 2.297 . S
O376 C371 1.247 . S
O377 Cd366 2.439 . S
O377 C371 1.208 . S
O378 Cd379 2.223 . S
O378 C386 1.315 . S
Cd379 O378 2.223 . S
Cd379 O382 2.297 . S
Cd379 O383 2.439 . S
Cd379 O389 2.240 . S
Cd380 O381 2.240 . S
Cd380 O388 2.223 . S
Cd380 O390 2.297 . S
Cd380 O391 2.439 . S
O381 Cd380 2.240 . S
O381 C386 1.279 . S
O382 Cd379 2.297 . S
O382 C384 1.247 . S
O383 Cd379 2.439 . S
O383 C384 1.208 . S
C384 O382 1.247 . S
C384 O383 1.208 . S
C385 O390 1.247 . S
C385 O391 1.208 . S
C386 O378 1.315 . S
C386 O381 1.279 . S
C387 O388 1.315 . S
C387 O389 1.279 . S
O388 Cd380 2.223 . S
O388 C387 1.315 . S
O389 Cd379 2.240 . S
O389 C387 1.279 . S
O390 Cd380 2.297 . S
O390 C385 1.247 . S
O391 Cd380 2.439 . S
O391 C385 1.208 . S
O392 Cd393 2.223 . S
O392 C400 1.315 . S
Cd393 O392 2.223 . S
Cd393 O396 2.297 . S
Cd393 O397 2.439 . S
Cd393 O403 2.240 . S
Cd394 O395 2.240 . S
Cd394 O402 2.223 . S
Cd394 O404 2.297 . S
Cd394 O405 2.439 . S
O395 Cd394 2.240 . S
O395 C400 1.279 . S
O396 Cd393 2.297 . S
O396 C398 1.247 . S
O397 Cd393 2.439 . S
O397 C398 1.208 . S
C398 O396 1.247 . S
C398 O397 1.208 . S
C399 O404 1.247 . S
C399 O405 1.208 . S
C400 O392 1.315 . S
C400 O395 1.279 . S
C401 O402 1.315 . S
C401 O403 1.279 . S
O402 Cd394 2.223 . S
O402 C401 1.315 . S
O403 Cd393 2.240 . S
O403 C401 1.279 . S
O404 Cd394 2.297 . S
O404 C399 1.247 . S
O405 Cd394 2.439 . S
O405 C399 1.208 . S
O406 Cd407 2.223 . S
O406 C414 1.315 . S
Cd407 O406 2.223 . S
Cd407 O410 2.297 . S
Cd407 O411 2.439 . S
Cd407 O417 2.240 . S
Cd408 O409 2.240 . S
Cd408 O416 2.223 . S
Cd408 O418 2.297 . S
Cd408 O419 2.439 . S
O409 Cd408 2.240 . S
O409 C414 1.279 . S
O410 Cd407 2.297 . S
O410 C412 1.247 . S
O411 Cd407 2.439 . S
O411 C412 1.208 . S
C412 O410 1.247 . S
C412 O411 1.208 . S
C413 O418 1.247 . S
C413 O419 1.208 . S
C414 O406 1.315 . S
C414 O409 1.279 . S
C415 O416 1.315 . S
C415 O417 1.279 . S
O416 Cd408 2.223 . S
O416 C415 1.315 . S
O417 Cd407 2.240 . S
O417 C415 1.279 . S
O418 Cd408 2.297 . S
O418 C413 1.247 . S
O419 Cd408 2.439 . S
O419 C413 1.208 . S
O420 Cd421 2.223 . S
O420 C428 1.315 . S
Cd421 O420 2.223 . S
Cd421 O424 2.297 . S
Cd421 O425 2.439 . S
Cd421 O431 2.240 . S
Cd422 O423 2.240 . S
Cd422 O430 2.223 . S
Cd422 O432 2.297 . S
Cd422 O433 2.439 . S
O423 Cd422 2.240 . S
O423 C428 1.279 . S
O424 Cd421 2.297 . S
O424 C426 1.247 . S
O425 Cd421 2.439 . S
O425 C426 1.208 . S
C426 O424 1.247 . S
C426 O425 1.208 . S
C427 O432 1.247 . S
C427 O433 1.208 . S
C428 O420 1.315 . S
C428 O423 1.279 . S
C429 O430 1.315 . S
C429 O431 1.279 . S
O430 Cd422 2.223 . S
O430 C429 1.315 . S
O431 Cd421 2.240 . S
O431 C429 1.279 . S
O432 Cd422 2.297 . S
O432 C427 1.247 . S
O433 Cd422 2.439 . S
O433 C427 1.208 . S
O434 Cd435 2.223 . S
O434 C442 1.315 . S
Cd435 O434 2.223 . S
Cd435 O438 2.297 . S
Cd435 O439 2.439 . S
Cd435 O445 2.240 . S
Cd436 O437 2.240 . S
Cd436 O444 2.223 . S
Cd436 O446 2.297 . S
Cd436 O447 2.439 . S
O437 Cd436 2.240 . S
O437 C442 1.279 . S
O438 Cd435 2.297 . S
O438 C440 1.247 . S
O439 Cd435 2.439 . S
O439 C440 1.208 . S
C440 O438 1.247 . S
C440 O439 1.208 . S
C441 O446 1.247 . S
C441 O447 1.208 . S
C442 O434 1.315 . S
C442 O437 1.279 . S
C443 O444 1.315 . S
C443 O445 1.279 . S
O444 Cd436 2.223 . S
O444 C443 1.315 . S
O445 Cd435 2.240 . S
O445 C443 1.279 . S
O446 Cd436 2.297 . S
O446 C441 1.247 . S
O447 Cd436 2.439 . S
O447 C441 1.208 . S
O448 Cd449 2.223 . S
O448 C456 1.315 . S
Cd449 O448 2.223 . S
Cd449 O452 2.297 . S
Cd449 O453 2.439 . S
Cd449 O459 2.240 . S
Cd450 O451 2.240 . S
Cd450 O458 2.223 . S
Cd450 O460 2.297 . S
Cd450 O461 2.439 . S
O451 Cd450 2.240 . S
O451 C456 1.279 . S
O452 Cd449 2.297 . S
O452 C454 1.247 . S
O453 Cd449 2.439 . S
O453 C454 1.208 . S
C454 O452 1.247 . S
C454 O453 1.208 . S
C455 O460 1.247 . S
C455 O461 1.208 . S
C456 O448 1.315 . S
C456 O451 1.279 . S
C457 O458 1.315 . S
C457 O459 1.279 . S
O458 Cd450 2.223 . S
O458 C457 1.315 . S
O459 Cd449 2.240 . S
O459 C457 1.279 . S
O460 Cd450 2.297 . S
O460 C455 1.247 . S
O461 Cd450 2.439 . S
O461 C455 1.208 . S
O462 Cd463 2.223 . S
O462 C470 1.315 . S
Cd463 O462 2.223 . S
Cd463 O466 2.297 . S
Cd463 O467 2.439 . S
Cd463 O473 2.240 . S
Cd464 O465 2.240 . S
Cd464 O472 2.223 . S
Cd464 O474 2.297 . S
Cd464 O475 2.439 . S
O465 Cd464 2.240 . S
O465 C470 1.279 . S
O466 Cd463 2.297 . S
O466 C468 1.247 . S
O467 Cd463 2.439 . S
O467 C468 1.208 . S
C468 O466 1.247 . S
C468 O467 1.208 . S
C469 O474 1.247 . S
C469 O475 1.208 . S
C470 O462 1.315 . S
C470 O465 1.279 . S
C471 O472 1.315 . S
C471 O473 1.279 . S
O472 Cd464 2.223 . S
O472 C471 1.315 . S
O473 Cd463 2.240 . S
O473 C471 1.279 . S
O474 Cd464 2.297 . S
O474 C469 1.247 . S
O475 Cd464 2.439 . S
O475 C469 1.208 . S
O476 Cd477 2.223 . S
O476 C484 1.315 . S
Cd477 O476 2.223 . S
Cd477 O480 2.297 . S
Cd477 O481 2.439 . S
Cd477 O487 2.240 . S
Cd478 O479 2.240 . S
Cd478 O486 2.223 . S
Cd478 O488 2.297 . S
Cd478 O489 2.439 . S
O479 Cd478 2.240 . S
O479 C484 1.279 . S
O480 Cd477 2.297 . S
O480 C482 1.247 . S
O481 Cd477 2.439 . S
O481 C482 1.208 . S
C482 O480 1.247 . S
C482 O481 1.208 . S
C483 O488 1.247 . S
C483 O489 1.208 . S
C484 O476 1.315 . S
C484 O479 1.279 . S
C485 O486 1.315 . S
C485 O487 1.279 . S
O486 Cd478 2.223 . S
O486 C485 1.315 . S
O487 Cd477 2.240 . S
O487 C485 1.279 . S
O488 Cd478 2.297 . S
O488 C483 1.247 . S
O489 Cd478 2.439 . S
O489 C483 1.208 . S
O490 Cd491 2.223 . S
O490 C498 1.315 . S
Cd491 O490 2.223 . S
Cd491 O494 2.297 . S
Cd491 O495 2.439 . S
Cd491 O501 2.240 . S
Cd492 O493 2.240 . S
Cd492 O500 2.223 . S
Cd492 O502 2.297 . S
Cd492 O503 2.439 . S
O493 Cd492 2.240 . S
O493 C498 1.279 . S
O494 Cd491 2.297 . S
O494 C496 1.247 . S
O495 Cd491 2.439 . S
O495 C496 1.208 . S
C496 O494 1.247 . S
C496 O495 1.208 . S
C497 O502 1.247 . S
C497 O503 1.208 . S
C498 O490 1.315 . S
C498 O493 1.279 . S
C499 O500 1.315 . S
C499 O501 1.279 . S
O500 Cd492 2.223 . S
O500 C499 1.315 . S
O501 Cd491 2.240 . S
O501 C499 1.279 . S
O502 Cd492 2.297 . S
O502 C497 1.247 . S
O503 Cd492 2.439 . S
O503 C497 1.208 . S
O504 Cd505 2.223 . S
O504 C512 1.315 . S
Cd505 O504 2.223 . S
Cd505 O508 2.297 . S
Cd505 O509 2.439 . S
Cd505 O515 2.240 . S
Cd506 O507 2.240 . S
Cd506 O514 2.223 . S
Cd506 O516 2.297 . S
Cd506 O517 2.439 . S
O507 Cd506 2.240 . S
O507 C512 1.279 . S
O508 Cd505 2.297 . S
O508 C510 1.247 . S
O509 Cd505 2.439 . S
O509 C510 1.208 . S
C510 O508 1.247 . S
C510 O509 1.208 . S
C511 O516 1.247 . S
C511 O517 1.208 . S
C512 O504 1.315 . S
C512 O507 1.279 . S
C513 O514 1.315 . S
C513 O515 1.279 . S
O514 Cd506 2.223 . S
O514 C513 1.315 . S
O515 Cd505 2.240 . S
O515 C513 1.279 . S
O516 Cd506 2.297 . S
O516 C511 1.247 . S
O517 Cd506 2.439 . S
O517 C511 1.208 . S
O518 Cd519 2.223 . S
O518 C526 1.315 . S
Cd519 O518 2.223 . S
Cd519 O522 2.297 . S
Cd519 O523 2.439 . S
Cd519 O529 2.240 . S
Cd520 O521 2.240 . S
Cd520 O528 2.223 . S
Cd520 O530 2.297 . S
Cd520 O531 2.439 . S
O521 Cd520 2.240 . S
O521 C526 1.279 . S
O522 Cd519 2.297 . S
O522 C524 1.247 . S
O523 Cd519 2.439 . S
O523 C524 1.208 . S
C524 O522 1.247 . S
C524 O523 1.208 . S
C525 O530 1.247 . S
C525 O531 1.208 . S
C526 O518 1.315 . S
C526 O521 1.279 . S
C527 O528 1.315 . S
C527 O529 1.279 . S
O528 Cd520 2.223 . S
O528 C527 1.315 . S
O529 Cd519 2.240 . S
O529 C527 1.279 . S
O530 Cd520 2.297 . S
O530 C525 1.247 . S
O531 Cd520 2.439 . S
O531 C525 1.208 . S
O532 Cd533 2.223 . S
O532 C540 1.315 . S
Cd533 O532 2.223 . S
Cd533 O536 2.297 . S
Cd533 O537 2.439 . S
Cd533 O543 2.240 . S
Cd534 O535 2.240 . S
Cd534 O542 2.223 . S
Cd534 O544 2.297 . S
Cd534 O545 2.439 . S
O535 Cd534 2.240 . S
O535 C540 1.279 . S
O536 Cd533 2.297 . S
O536 C538 1.247 . S
O537 Cd533 2.439 . S
O537 C538 1.208 . S
C538 O536 1.247 . S
C538 O537 1.208 . S
C539 O544 1.247 . S
C539 O545 1.208 . S
C540 O532 1.315 . S
C540 O535 1.279 . S
C541 O542 1.315 . S
C541 O543 1.279 . S
O542 Cd534 2.223 . S
O542 C541 1.315 . S
O543 Cd533 2.240 . S
O543 C541 1.279 . S
O544 Cd534 2.297 . S
O544 C539 1.247 . S
O545 Cd534 2.439 . S
O545 C539 1.208 . S
O546 Cd547 2.223 . S
O546 C554 1.315 . S
Cd547 O546 2.223 . S
Cd547 O550 2.297 . S
Cd547 O551 2.439 . S
Cd547 O557 2.240 . S
Cd548 O549 2.240 . S
Cd548 O556 2.223 . S
Cd548 O558 2.297 . S
Cd548 O559 2.439 . S
O549 Cd548 2.240 . S
O549 C554 1.279 . S
O550 Cd547 2.297 . S
O550 C552 1.247 . S
O551 Cd547 2.439 . S
O551 C552 1.208 . S
C552 O550 1.247 . S
C552 O551 1.208 . S
C553 O558 1.247 . S
C553 O559 1.208 . S
C554 O546 1.315 . S
C554 O549 1.279 . S
C555 O556 1.315 . S
C555 O557 1.279 . S
O556 Cd548 2.223 . S
O556 C555 1.315 . S
O557 Cd547 2.240 . S
O557 C555 1.279 . S
O558 Cd548 2.297 . S
O558 C553 1.247 . S
O559 Cd548 2.439 . S
O559 C553 1.208 . S
O560 Cd561 2.223 . S
O560 C568 1.315 . S
Cd561 O560 2.223 . S
Cd561 O564 2.297 . S
Cd561 O565 2.439 . S
Cd561 O571 2.240 . S
Cd562 O563 2.240 . S
Cd562 O570 2.223 . S
Cd562 O572 2.297 . S
Cd562 O573 2.439 . S
O563 Cd562 2.240 . S
O563 C568 1.279 . S
O564 Cd561 2.297 . S
O564 C566 1.247 . S
O565 Cd561 2.439 . S
O565 C566 1.208 . S
C566 O564 1.247 . S
C566 O565 1.208 . S
C567 O572 1.247 . S
C567 O573 1.208 . S
C568 O560 1.315 . S
C568 O563 1.279 . S
C569 O570 1.315 . S
C569 O571 1.279 . S
O570 Cd562 2.223 . S
O570 C569 1.315 . S
O571 Cd561 2.240 . S
O571 C569 1.279 . S
O572 Cd562 2.297 . S
O572 C567 1.247 . S
O573 Cd562 2.439 . S
O573 C567 1.208 . S
O574 Cd575 2.223 . S
O574 C582 1.315 . S
Cd575 O574 2.223 . S
Cd575 O578 2.297 . S
Cd575 O579 2.439 . S
Cd575 O585 2.240 . S
Cd576 O577 2.240 . S
Cd576 O584 2.223 . S
Cd576 O586 2.297 . S
Cd576 O587 2.439 . S
O577 Cd576 2.240 . S
O577 C582 1.279 . S
O578 Cd575 2.297 . S
O578 C580 1.247 . S
O579 Cd575 2.439 . S
O579 C580 1.208 . S
C580 O578 1.247 . S
C580 O579 1.208 . S
C581 O586 1.247 . S
C581 O587 1.208 . S
C582 O574 1.315 . S
C582 O577 1.279 . S
C583 O584 1.315 . S
C583 O585 1.279 . S
O584 Cd576 2.223 . S
O584 C583 1.315 . S
O585 Cd575 2.240 . S
O585 C583 1.279 . S
O586 Cd576 2.297 . S
O586 C581 1.247 . S
O587 Cd576 2.439 . S
O587 C581 1.208 . S
O588 Cd589 2.223 . S
O588 C596 1.315 . S
Cd589 O588 2.223 . S
Cd589 O592 2.297 . S
Cd589 O593 2.439 . S
Cd589 O599 2.240 . S
Cd590 O591 2.240 . S
Cd590 O598 2.223 . S
Cd590 O600 2.297 . S
Cd590 O601 2.439 . S
O591 Cd590 2.240 . S
O591 C596 1.279 . S
O592 Cd589 2.297 . S
O592 C594 1.247 . S
O593 Cd589 2.439 . S
O593 C594 1.208 . S
C594 O592 1.247 . S
C594 O593 1.208 . S
C595 O600 1.247 . S
C595 O601 1.208 . S
C596 O588 1.315 . S
C596 O591 1.279 . S
C597 O598 1.315 . S
C597 O599 1.279 . S
O598 Cd590 2.223 . S
O598 C597 1.315 . S
O599 Cd589 2.240 . S
O599 C597 1.279 . S
O600 Cd590 2.297 . S
O600 C595 1.247 . S
O601 Cd590 2.439 . S
O601 C595 1.208 . S
O602 Cd603 2.223 . S
O602 C610 1.315 . S
Cd603 O602 2.223 . S
Cd603 O606 2.297 . S
Cd603 O607 2.439 . S
Cd603 O613 2.240 . S
Cd604 O605 2.240 . S
Cd604 O612 2.223 . S
Cd604 O614 2.297 . S
Cd604 O615 2.439 . S
O605 Cd604 2.240 . S
O605 C610 1.279 . S
O606 Cd603 2.297 . S
O606 C608 1.247 . S
O607 Cd603 2.439 . S
O607 C608 1.208 . S
C608 O606 1.247 . S
C608 O607 1.208 . S
C609 O614 1.247 . S
C609 O615 1.208 . S
C610 O602 1.315 . S
C610 O605 1.279 . S
C611 O612 1.315 . S
C611 O613 1.279 . S
O612 Cd604 2.223 . S
O612 C611 1.315 . S
O613 Cd603 2.240 . S
O613 C611 1.279 . S
O614 Cd604 2.297 . S
O614 C609 1.247 . S
O615 Cd604 2.439 . S
O615 C609 1.208 . S
O616 Cd617 2.223 . S
O616 C624 1.315 . S
Cd617 O616 2.223 . S
Cd617 O620 2.297 . S
Cd617 O621 2.439 . S
Cd617 O627 2.240 . S
Cd618 O619 2.240 . S
Cd618 O626 2.223 . S
Cd618 O628 2.297 . S
Cd618 O629 2.439 . S
O619 Cd618 2.240 . S
O619 C624 1.279 . S
O620 Cd617 2.297 . S
O620 C622 1.247 . S
O621 Cd617 2.439 . S
O621 C622 1.208 . S
C622 O620 1.247 . S
C622 O621 1.208 . S
C623 O628 1.247 . S
C623 O629 1.208 . S
C624 O616 1.315 . S
C624 O619 1.279 . S
C625 O626 1.315 . S
C625 O627 1.279 . S
O626 Cd618 2.223 . S
O626 C625 1.315 . S
O627 Cd617 2.240 . S
O627 C625 1.279 . S
O628 Cd618 2.297 . S
O628 C623 1.247 . S
O629 Cd618 2.439 . S
O629 C623 1.208 . S
O630 Cd631 2.223 . S
O630 C638 1.315 . S
Cd631 O630 2.223 . S
Cd631 O634 2.297 . S
Cd631 O635 2.439 . S
Cd631 O641 2.240 . S
Cd632 O633 2.240 . S
Cd632 O640 2.223 . S
Cd632 O642 2.297 . S
Cd632 O643 2.439 . S
O633 Cd632 2.240 . S
O633 C638 1.279 . S
O634 Cd631 2.297 . S
O634 C636 1.247 . S
O635 Cd631 2.439 . S
O635 C636 1.208 . S
C636 O634 1.247 . S
C636 O635 1.208 . S
C637 O642 1.247 . S
C637 O643 1.208 . S
C638 O630 1.315 . S
C638 O633 1.279 . S
C639 O640 1.315 . S
C639 O641 1.279 . S
O640 Cd632 2.223 . S
O640 C639 1.315 . S
O641 Cd631 2.240 . S
O641 C639 1.279 . S
O642 Cd632 2.297 . S
O642 C637 1.247 . S
O643 Cd632 2.439 . S
O643 C637 1.208 . S
O644 Cd645 2.223 . S
O644 C652 1.315 . S
Cd645 O644 2.223 . S
Cd645 O648 2.297 . S
Cd645 O649 2.439 . S
Cd645 O655 2.240 . S
Cd646 O647 2.240 . S
Cd646 O654 2.223 . S
Cd646 O656 2.297 . S
Cd646 O657 2.439 . S
O647 Cd646 2.240 . S
O647 C652 1.279 . S
O648 Cd645 2.297 . S
O648 C650 1.247 . S
O649 Cd645 2.439 . S
O649 C650 1.208 . S
C650 O648 1.247 . S
C650 O649 1.208 . S
C651 O656 1.247 . S
C651 O657 1.208 . S
C652 O644 1.315 . S
C652 O647 1.279 . S
C653 O654 1.315 . S
C653 O655 1.279 . S
O654 Cd646 2.223 . S
O654 C653 1.315 . S
O655 Cd645 2.240 . S
O655 C653 1.279 . S
O656 Cd646 2.297 . S
O656 C651 1.247 . S
O657 Cd646 2.439 . S
O657 C651 1.208 . S
O658 Cd659 2.223 . S
O658 C666 1.315 . S
Cd659 O658 2.223 . S
Cd659 O662 2.297 . S
Cd659 O663 2.439 . S
Cd659 O669 2.240 . S
Cd660 O661 2.240 . S
Cd660 O668 2.223 . S
Cd660 O670 2.297 . S
Cd660 O671 2.439 . S
O661 Cd660 2.240 . S
O661 C666 1.279 . S
O662 Cd659 2.297 . S
O662 C664 1.247 . S
O663 Cd659 2.439 . S
O663 C664 1.208 . S
C664 O662 1.247 . S
C664 O663 1.208 . S
C665 O670 1.247 . S
C665 O671 1.208 . S
C666 O658 1.315 . S
C666 O661 1.279 . S
C667 O668 1.315 . S
C667 O669 1.279 . S
O668 Cd660 2.223 . S
O668 C667 1.315 . S
O669 Cd659 2.240 . S
O669 C667 1.279 . S
O670 Cd660 2.297 . S
O670 C665 1.247 . S
O671 Cd660 2.439 . S
O671 C665 1.208 . S
C672 C673 1.363 . S
C672 C678 1.379 . S
C672 N680 1.356 . S
C673 C672 1.363 . S
C673 C679 1.363 . S
C674 C675 1.363 . S
C674 C679 1.379 . S
C674 N681 1.356 . S
C675 C674 1.363 . S
C675 C678 1.363 . S
N676 C678 1.356 . S
N676 H688 0.984 . S
N676 H689 0.985 . S
N677 C679 1.356 . S
N677 H682 0.984 . S
N677 H683 0.985 . S
C678 C672 1.379 . S
C678 C675 1.363 . S
C678 N676 1.356 . S
C679 C673 1.363 . S
C679 C674 1.379 . S
C679 N677 1.356 . S
N680 C672 1.356 . S
N680 H686 0.984 . S
N680 H687 0.984 . S
N681 C674 1.356 . S
N681 H684 0.984 . S
N681 H685 0.985 . S
H682 N677 0.984 . S
H683 N677 0.985 . S
H684 N681 0.984 . S
H685 N681 0.985 . S
H686 N680 0.984 . S
H687 N680 0.984 . S
H688 N676 0.984 . S
H689 N676 0.985 . S
C690 C691 1.363 . S
C690 C696 1.379 . S
C690 N698 1.356 . S
C691 C690 1.363 . S
C691 C697 1.363 . S
C692 C693 1.363 . S
C692 C697 1.379 . S
C692 N699 1.356 . S
C693 C692 1.363 . S
C693 C696 1.363 . S
N694 C696 1.356 . S
N694 H706 0.984 . S
N694 H707 0.985 . S
N695 C697 1.356 . S
N695 H700 0.984 . S
N695 H701 0.985 . S
C696 C690 1.379 . S
C696 C693 1.363 . S
C696 N694 1.356 . S
C697 C691 1.363 . S
C697 C692 1.379 . S
C697 N695 1.356 . S
N698 C690 1.356 . S
N698 H704 0.984 . S
N698 H705 0.984 . S
N699 C692 1.356 . S
N699 H702 0.984 . S
N699 H703 0.985 . S
H700 N695 0.984 . S
H701 N695 0.985 . S
H702 N699 0.984 . S
H703 N699 0.985 . S
H704 N698 0.984 . S
H705 N698 0.984 . S
H706 N694 0.984 . S
H707 N694 0.985 . S
C708 C709 1.363 . S
C708 C714 1.379 . S
C708 N716 1.356 . S
C709 C708 1.363 . S
C709 C715 1.363 . S
C710 C711 1.363 . S
C710 C715 1.379 . S
C710 N717 1.356 . S
C711 C710 1.363 . S
C711 C714 1.363 . S
N712 C714 1.356 . S
N712 H724 0.984 . S
N712 H725 0.985 . S
N713 C715 1.356 . S
N713 H718 0.984 . S
N713 H719 0.985 . S
C714 C708 1.379 . S
C714 C711 1.363 . S
C714 N712 1.356 . S
C715 C709 1.363 . S
C715 C710 1.379 . S
C715 N713 1.356 . S
N716 C708 1.356 . S
N716 H722 0.984 . S
N716 H723 0.984 . S
N717 C710 1.356 . S
N717 H720 0.984 . S
N717 H721 0.985 . S
H718 N713 0.984 . S
H719 N713 0.985 . S
H720 N717 0.984 . S
H721 N717 0.985 . S
H722 N716 0.984 . S
H723 N716 0.984 . S
H724 N712 0.984 . S
H725 N712 0.985 . S
C726 C727 1.363 . S
C726 C732 1.379 . S
C726 N734 1.356 . S
C727 C726 1.363 . S
C727 C733 1.363 . S
C728 C729 1.363 . S
C728 C733 1.379 . S
C728 N735 1.356 . S
C729 C728 1.363 . S
C729 C732 1.363 . S
N730 C732 1.356 . S
N730 H742 0.984 . S
N730 H743 0.985 . S
N731 C733 1.356 . S
N731 H736 0.984 . S
N731 H737 0.985 . S
C732 C726 1.379 . S
C732 C729 1.363 . S
C732 N730 1.356 . S
C733 C727 1.363 . S
C733 C728 1.379 . S
C733 N731 1.356 . S
N734 C726 1.356 . S
N734 H740 0.984 . S
N734 H741 0.984 . S
N735 C728 1.356 . S
N735 H738 0.984 . S
N735 H739 0.985 . S
H736 N731 0.984 . S
H737 N731 0.985 . S
H738 N735 0.984 . S
H739 N735 0.985 . S
H740 N734 0.984 . S
H741 N734 0.984 . S
H742 N730 0.984 . S
H743 N730 0.985 . S
C744 C745 1.363 . S
C744 C750 1.379 . S
C744 N752 1.356 . S
C745 C744 1.363 . S
C745 C751 1.363 . S
C746 C747 1.363 . S
C746 C751 1.379 . S
C746 N753 1.356 . S
C747 C746 1.363 . S
C747 C750 1.363 . S
N748 C750 1.356 . S
N748 H760 0.984 . S
N748 H761 0.985 . S
N749 C751 1.356 . S
N749 H754 0.984 . S
N749 H755 0.985 . S
C750 C744 1.379 . S
C750 C747 1.363 . S
C750 N748 1.356 . S
C751 C745 1.363 . S
C751 C746 1.379 . S
C751 N749 1.356 . S
N752 C744 1.356 . S
N752 H758 0.984 . S
N752 H759 0.984 . S
N753 C746 1.356 . S
N753 H756 0.984 . S
N753 H757 0.985 . S
H754 N749 0.984 . S
H755 N749 0.985 . S
H756 N753 0.984 . S
H757 N753 0.985 . S
H758 N752 0.984 . S
H759 N752 0.984 . S
H760 N748 0.984 . S
H761 N748 0.985 . S
C762 C763 1.363 . S
C762 C768 1.379 . S
C762 N770 1.356 . S
C763 C762 1.363 . S
C763 C769 1.363 . S
C764 C765 1.363 . S
C764 C769 1.379 . S
C764 N771 1.356 . S
C765 C764 1.363 . S
C765 C768 1.363 . S
N766 C768 1.356 . S
N766 H778 0.984 . S
N766 H779 0.985 . S
N767 C769 1.356 . S
N767 H772 0.984 . S
N767 H773 0.985 . S
C768 C762 1.379 . S
C768 C765 1.363 . S
C768 N766 1.356 . S
C769 C763 1.363 . S
C769 C764 1.379 . S
C769 N767 1.356 . S
N770 C762 1.356 . S
N770 H776 0.984 . S
N770 H777 0.984 . S
N771 C764 1.356 . S
N771 H774 0.984 . S
N771 H775 0.985 . S
H772 N767 0.984 . S
H773 N767 0.985 . S
H774 N771 0.984 . S
H775 N771 0.985 . S
H776 N770 0.984 . S
H777 N770 0.984 . S
H778 N766 0.984 . S
H779 N766 0.985 . S
C780 C781 1.363 . S
C780 C786 1.379 . S
C780 N788 1.356 . S
C781 C780 1.363 . S
C781 C787 1.363 . S
C782 C783 1.363 . S
C782 C787 1.379 . S
C782 N789 1.356 . S
C783 C782 1.363 . S
C783 C786 1.363 . S
N784 C786 1.356 . S
N784 H796 0.984 . S
N784 H797 0.985 . S
N785 C787 1.356 . S
N785 H790 0.984 . S
N785 H791 0.985 . S
C786 C780 1.379 . S
C786 C783 1.363 . S
C786 N784 1.356 . S
C787 C781 1.363 . S
C787 C782 1.379 . S
C787 N785 1.356 . S
N788 C780 1.356 . S
N788 H794 0.984 . S
N788 H795 0.984 . S
N789 C782 1.356 . S
N789 H792 0.984 . S
N789 H793 0.985 . S
H790 N785 0.984 . S
H791 N785 0.985 . S
H792 N789 0.984 . S
H793 N789 0.985 . S
H794 N788 0.984 . S
H795 N788 0.984 . S
H796 N784 0.984 . S
H797 N784 0.985 . S
C798 C799 1.363 . S
C798 C804 1.379 . S
C798 N806 1.356 . S
C799 C798 1.363 . S
C799 C805 1.363 . S
C800 C801 1.363 . S
C800 C805 1.379 . S
C800 N807 1.356 . S
C801 C800 1.363 . S
C801 C804 1.363 . S
N802 C804 1.356 . S
N802 H814 0.984 . S
N802 H815 0.985 . S
N803 C805 1.356 . S
N803 H808 0.984 . S
N803 H809 0.985 . S
C804 C798 1.379 . S
C804 C801 1.363 . S
C804 N802 1.356 . S
C805 C799 1.363 . S
C805 C800 1.379 . S
C805 N803 1.356 . S
N806 C798 1.356 . S
N806 H812 0.984 . S
N806 H813 0.984 . S
N807 C800 1.356 . S
N807 H810 0.984 . S
N807 H811 0.985 . S
H808 N803 0.984 . S
H809 N803 0.985 . S
H810 N807 0.984 . S
H811 N807 0.985 . S
H812 N806 0.984 . S
H813 N806 0.984 . S
H814 N802 0.984 . S
H815 N802 0.985 . S
C816 C817 1.363 . S
C816 C822 1.379 . S
C816 N824 1.356 . S
C817 C816 1.363 . S
C817 C823 1.363 . S
C818 C819 1.363 . S
C818 C823 1.379 . S
C818 N825 1.356 . S
C819 C818 1.363 . S
C819 C822 1.363 . S
N820 C822 1.356 . S
N820 H832 0.984 . S
N820 H833 0.985 . S
N821 C823 1.356 . S
N821 H826 0.984 . S
N821 H827 0.985 . S
C822 C816 1.379 . S
C822 C819 1.363 . S
C822 N820 1.356 . S
C823 C817 1.363 . S
C823 C818 1.379 . S
C823 N821 1.356 . S
N824 C816 1.356 . S
N824 H830 0.984 . S
N824 H831 0.984 . S
N825 C818 1.356 . S
N825 H828 0.984 . S
N825 H829 0.985 . S
H826 N821 0.984 . S
H827 N821 0.985 . S
H828 N825 0.984 . S
H829 N825 0.985 . S
H830 N824 0.984 . S
H831 N824 0.984 . S
H832 N820 0.984 . S
H833 N820 0.985 . S
C834 C835 1.363 . S
C834 C840 1.379 . S
C834 N842 1.356 . S
C835 C834 1.363 . S
C835 C841 1.363 . S
C836 C837 1.363 . S
C836 C841 1.379 . S
C836 N843 1.356 . S
C837 C836 1.363 . S
C837 C840 1.363 . S
N838 C840 1.356 . S
N838 H850 0.984 . S
N838 H851 0.985 . S
N839 C841 1.356 . S
N839 H844 0.984 . S
N839 H845 0.985 . S
C840 C834 1.379 . S
C840 C837 1.363 . S
C840 N838 1.356 . S
C841 C835 1.363 . S
C841 C836 1.379 . S
C841 N839 1.356 . S
N842 C834 1.356 . S
N842 H848 0.984 . S
N842 H849 0.984 . S
N843 C836 1.356 . S
N843 H846 0.984 . S
N843 H847 0.985 . S
H844 N839 0.984 . S
H845 N839 0.985 . S
H846 N843 0.984 . S
H847 N843 0.985 . S
H848 N842 0.984 . S
H849 N842 0.984 . S
H850 N838 0.984 . S
H851 N838 0.985 . S
C852 C853 1.363 . S
C852 C858 1.379 . S
C852 N860 1.356 . S
C853 C852 1.363 . S
C853 C859 1.363 . S
C854 C855 1.363 . S
C854 C859 1.379 . S
C854 N861 1.356 . S
C855 C854 1.363 . S
C855 C858 1.363 . S
N856 C858 1.356 . S
N856 H868 0.984 . S
N856 H869 0.985 . S
N857 C859 1.356 . S
N857 H862 0.984 . S
N857 H863 0.985 . S
C858 C852 1.379 . S
C858 C855 1.363 . S
C858 N856 1.356 . S
C859 C853 1.363 . S
C859 C854 1.379 . S
C859 N857 1.356 . S
N860 C852 1.356 . S
N860 H866 0.984 . S
N860 H867 0.984 . S
N861 C854 1.356 . S
N861 H864 0.984 . S
N861 H865 0.985 . S
H862 N857 0.984 . S
H863 N857 0.985 . S
H864 N861 0.984 . S
H865 N861 0.985 . S
H866 N860 0.984 . S
H867 N860 0.984 . S
H868 N856 0.984 . S
H869 N856 0.985 . S
C870 C871 1.363 . S
C870 C876 1.379 . S
C870 N878 1.356 . S
C871 C870 1.363 . S
C871 C877 1.363 . S
C872 C873 1.363 . S
C872 C877 1.379 . S
C872 N879 1.356 . S
C873 C872 1.363 . S
C873 C876 1.363 . S
N874 C876 1.356 . S
N874 H886 0.984 . S
N874 H887 0.985 . S
N875 C877 1.356 . S
N875 H880 0.984 . S
N875 H881 0.985 . S
C876 C870 1.379 . S
C876 C873 1.363 . S
C876 N874 1.356 . S
C877 C871 1.363 . S
C877 C872 1.379 . S
C877 N875 1.356 . S
N878 C870 1.356 . S
N878 H884 0.984 . S
N878 H885 0.984 . S
N879 C872 1.356 . S
N879 H882 0.984 . S
N879 H883 0.985 . S
H880 N875 0.984 . S
H881 N875 0.985 . S
H882 N879 0.984 . S
H883 N879 0.985 . S
H884 N878 0.984 . S
H885 N878 0.984 . S
H886 N874 0.984 . S
H887 N874 0.985 . S
C888 C889 1.363 . S
C888 C894 1.379 . S
C888 N896 1.356 . S
C889 C888 1.363 . S
C889 C895 1.363 . S
C890 C891 1.363 . S
C890 C895 1.379 . S
C890 N897 1.356 . S
C891 C890 1.363 . S
C891 C894 1.363 . S
N892 C894 1.356 . S
N892 H904 0.984 . S
N892 H905 0.985 . S
N893 C895 1.356 . S
N893 H898 0.984 . S
N893 H899 0.985 . S
C894 C888 1.379 . S
C894 C891 1.363 . S
C894 N892 1.356 . S
C895 C889 1.363 . S
C895 C890 1.379 . S
C895 N893 1.356 . S
N896 C888 1.356 . S
N896 H902 0.984 . S
N896 H903 0.984 . S
N897 C890 1.356 . S
N897 H900 0.984 . S
N897 H901 0.985 . S
H898 N893 0.984 . S
H899 N893 0.985 . S
H900 N897 0.984 . S
H901 N897 0.985 . S
H902 N896 0.984 . S
H903 N896 0.984 . S
H904 N892 0.984 . S
H905 N892 0.985 . S
C906 C907 1.363 . S
C906 C912 1.379 . S
C906 N914 1.356 . S
C907 C906 1.363 . S
C907 C913 1.363 . S
C908 C909 1.363 . S
C908 C913 1.379 . S
C908 N915 1.356 . S
C909 C908 1.363 . S
C909 C912 1.363 . S
N910 C912 1.356 . S
N910 H922 0.984 . S
N910 H923 0.985 . S
N911 C913 1.356 . S
N911 H916 0.984 . S
N911 H917 0.985 . S
C912 C906 1.379 . S
C912 C909 1.363 . S
C912 N910 1.356 . S
C913 C907 1.363 . S
C913 C908 1.379 . S
C913 N911 1.356 . S
N914 C906 1.356 . S
N914 H920 0.984 . S
N914 H921 0.984 . S
N915 C908 1.356 . S
N915 H918 0.984 . S
N915 H919 0.985 . S
H916 N911 0.984 . S
H917 N911 0.985 . S
H918 N915 0.984 . S
H919 N915 0.985 . S
H920 N914 0.984 . S
H921 N914 0.984 . S
H922 N910 0.984 . S
H923 N910 0.985 . S
C924 C925 1.363 . S
C924 C930 1.379 . S
C924 N932 1.356 . S
C925 C924 1.363 . S
C925 C931 1.363 . S
C926 C927 1.363 . S
C926 C931 1.379 . S
C926 N933 1.356 . S
C927 C926 1.363 . S
C927 C930 1.363 . S
N928 C930 1.356 . S
N928 H940 0.984 . S
N928 H941 0.985 . S
N929 C931 1.356 . S
N929 H934 0.984 . S
N929 H935 0.985 . S
C930 C924 1.379 . S
C930 C927 1.363 . S
C930 N928 1.356 . S
C931 C925 1.363 . S
C931 C926 1.379 . S
C931 N929 1.356 . S
N932 C924 1.356 . S
N932 H938 0.984 . S
N932 H939 0.984 . S
N933 C926 1.356 . S
N933 H936 0.984 . S
N933 H937 0.985 . S
H934 N929 0.984 . S
H935 N929 0.985 . S
H936 N933 0.984 . S
H937 N933 0.985 . S
H938 N932 0.984 . S
H939 N932 0.984 . S
H940 N928 0.984 . S
H941 N928 0.985 . S
C942 C943 1.363 . S
C942 C948 1.379 . S
C942 N950 1.356 . S
C943 C942 1.363 . S
C943 C949 1.363 . S
C944 C945 1.363 . S
C944 C949 1.379 . S
C944 N951 1.356 . S
C945 C944 1.363 . S
C945 C948 1.363 . S
N946 C948 1.356 . S
N946 H958 0.984 . S
N946 H959 0.985 . S
N947 C949 1.356 . S
N947 H952 0.984 . S
N947 H953 0.985 . S
C948 C942 1.379 . S
C948 C945 1.363 . S
C948 N946 1.356 . S
C949 C943 1.363 . S
C949 C944 1.379 . S
C949 N947 1.356 . S
N950 C942 1.356 . S
N950 H956 0.984 . S
N950 H957 0.984 . S
N951 C944 1.356 . S
N951 H954 0.984 . S
N951 H955 0.985 . S
H952 N947 0.984 . S
H953 N947 0.985 . S
H954 N951 0.984 . S
H955 N951 0.985 . S
H956 N950 0.984 . S
H957 N950 0.984 . S
H958 N946 0.984 . S
H959 N946 0.985 . S
C960 C961 1.363 . S
C960 C966 1.379 . S
C960 N968 1.356 . S
C961 C960 1.363 . S
C961 C967 1.363 . S
C962 C963 1.363 . S
C962 C967 1.379 . S
C962 N969 1.356 . S
C963 C962 1.363 . S
C963 C966 1.363 . S
N964 C966 1.356 . S
N964 H976 0.984 . S
N964 H977 0.985 . S
N965 C967 1.356 . S
N965 H970 0.984 . S
N965 H971 0.985 . S
C966 C960 1.379 . S
C966 C963 1.363 . S
C966 N964 1.356 . S
C967 C961 1.363 . S
C967 C962 1.379 . S
C967 N965 1.356 . S
N968 C960 1.356 . S
N968 H974 0.984 . S
N968 H975 0.984 . S
N969 C962 1.356 . S
N969 H972 0.984 . S
N969 H973 0.985 . S
H970 N965 0.984 . S
H971 N965 0.985 . S
H972 N969 0.984 . S
H973 N969 0.985 . S
H974 N968 0.984 . S
H975 N968 0.984 . S
H976 N964 0.984 . S
H977 N964 0.985 . S
C978 C979 1.363 . S
C978 C984 1.379 . S
C978 N986 1.356 . S
C979 C978 1.363 . S
C979 C985 1.363 . S
C980 C981 1.363 . S
C980 C985 1.379 . S
C980 N987 1.356 . S
C981 C980 1.363 . S
C981 C984 1.363 . S
N982 C984 1.356 . S
N982 H994 0.984 . S
N982 H995 0.985 . S
N983 C985 1.356 . S
N983 H988 0.984 . S
N983 H989 0.985 . S
C984 C978 1.379 . S
C984 C981 1.363 . S
C984 N982 1.356 . S
C985 C979 1.363 . S
C985 C980 1.379 . S
C985 N983 1.356 . S
N986 C978 1.356 . S
N986 H992 0.984 . S
N986 H993 0.984 . S
N987 C980 1.356 . S
N987 H990 0.984 . S
N987 H991 0.985 . S
H988 N983 0.984 . S
H989 N983 0.985 . S
H990 N987 0.984 . S
H991 N987 0.985 . S
H992 N986 0.984 . S
H993 N986 0.984 . S
H994 N982 0.984 . S
H995 N982 0.985 . S
C996 C997 1.363 . S
C996 C1002 1.379 . S
C996 N1004 1.356 . S
C997 C996 1.363 . S
C997 C1003 1.363 . S
C998 C999 1.363 . S
C998 C1003 1.379 . S
C998 N1005 1.356 . S
C999 C998 1.363 . S
C999 C1002 1.363 . S
N1000 C1002 1.356 . S
N1000 H1012 0.984 . S
N1000 H1013 0.985 . S
N1001 C1003 1.356 . S
N1001 H1006 0.984 . S
N1001 H1007 0.985 . S
C1002 C996 1.379 . S
C1002 C999 1.363 . S
C1002 N1000 1.356 . S
C1003 C997 1.363 . S
C1003 C998 1.379 . S
C1003 N1001 1.356 . S
N1004 C996 1.356 . S
N1004 H1010 0.984 . S
N1004 H1011 0.984 . S
N1005 C998 1.356 . S
N1005 H1008 0.984 . S
N1005 H1009 0.985 . S
H1006 N1001 0.984 . S
H1007 N1001 0.985 . S
H1008 N1005 0.984 . S
H1009 N1005 0.985 . S
H1010 N1004 0.984 . S
H1011 N1004 0.984 . S
H1012 N1000 0.984 . S
H1013 N1000 0.985 . S
C1014 C1015 1.363 . S
C1014 C1020 1.379 . S
C1014 N1022 1.356 . S
C1015 C1014 1.363 . S
C1015 C1021 1.363 . S
C1016 C1017 1.363 . S
C1016 C1021 1.379 . S
C1016 N1023 1.356 . S
C1017 C1016 1.363 . S
C1017 C1020 1.363 . S
N1018 C1020 1.356 . S
N1018 H1030 0.984 . S
N1018 H1031 0.985 . S
N1019 C1021 1.356 . S
N1019 H1024 0.984 . S
N1019 H1025 0.985 . S
C1020 C1014 1.379 . S
C1020 C1017 1.363 . S
C1020 N1018 1.356 . S
C1021 C1015 1.363 . S
C1021 C1016 1.379 . S
C1021 N1019 1.356 . S
N1022 C1014 1.356 . S
N1022 H1028 0.984 . S
N1022 H1029 0.984 . S
N1023 C1016 1.356 . S
N1023 H1026 0.984 . S
N1023 H1027 0.985 . S
H1024 N1019 0.984 . S
H1025 N1019 0.985 . S
H1026 N1023 0.984 . S
H1027 N1023 0.985 . S
H1028 N1022 0.984 . S
H1029 N1022 0.984 . S
H1030 N1018 0.984 . S
H1031 N1018 0.985 . S
C1032 C1033 1.363 . S
C1032 C1038 1.379 . S
C1032 N1040 1.356 . S
C1033 C1032 1.363 . S
C1033 C1039 1.363 . S
C1034 C1035 1.363 . S
C1034 C1039 1.379 . S
C1034 N1041 1.356 . S
C1035 C1034 1.363 . S
C1035 C1038 1.363 . S
N1036 C1038 1.356 . S
N1036 H1048 0.984 . S
N1036 H1049 0.985 . S
N1037 C1039 1.356 . S
N1037 H1042 0.984 . S
N1037 H1043 0.985 . S
C1038 C1032 1.379 . S
C1038 C1035 1.363 . S
C1038 N1036 1.356 . S
C1039 C1033 1.363 . S
C1039 C1034 1.379 . S
C1039 N1037 1.356 . S
N1040 C1032 1.356 . S
N1040 H1046 0.984 . S
N1040 H1047 0.984 . S
N1041 C1034 1.356 . S
N1041 H1044 0.984 . S
N1041 H1045 0.985 . S
H1042 N1037 0.984 . S
H1043 N1037 0.985 . S
H1044 N1041 0.984 . S
H1045 N1041 0.985 . S
H1046 N1040 0.984 . S
H1047 N1040 0.984 . S
H1048 N1036 0.984 . S
H1049 N1036 0.985 . S
C1050 C1051 1.363 . S
C1050 C1056 1.379 . S
C1050 N1058 1.356 . S
C1051 C1050 1.363 . S
C1051 C1057 1.363 . S
C1052 C1053 1.363 . S
C1052 C1057 1.379 . S
C1052 N1059 1.356 . S
C1053 C1052 1.363 . S
C1053 C1056 1.363 . S
N1054 C1056 1.356 . S
N1054 H1066 0.984 . S
N1054 H1067 0.985 . S
N1055 C1057 1.356 . S
N1055 H1060 0.984 . S
N1055 H1061 0.985 . S
C1056 C1050 1.379 . S
C1056 C1053 1.363 . S
C1056 N1054 1.356 . S
C1057 C1051 1.363 . S
C1057 C1052 1.379 . S
C1057 N1055 1.356 . S
N1058 C1050 1.356 . S
N1058 H1064 0.984 . S
N1058 H1065 0.984 . S
N1059 C1052 1.356 . S
N1059 H1062 0.984 . S
N1059 H1063 0.985 . S
H1060 N1055 0.984 . S
H1061 N1055 0.985 . S
H1062 N1059 0.984 . S
H1063 N1059 0.985 . S
H1064 N1058 0.984 . S
H1065 N1058 0.984 . S
H1066 N1054 0.984 . S
H1067 N1054 0.985 . S
C1068 C1069 1.363 . S
C1068 C1074 1.379 . S
C1068 N1076 1.356 . S
C1069 C1068 1.363 . S
C1069 C1075 1.363 . S
C1070 C1071 1.363 . S
C1070 C1075 1.379 . S
C1070 N1077 1.356 . S
C1071 C1070 1.363 . S
C1071 C1074 1.363 . S
N1072 C1074 1.356 . S
N1072 H1084 0.984 . S
N1072 H1085 0.985 . S
N1073 C1075 1.356 . S
N1073 H1078 0.984 . S
N1073 H1079 0.985 . S
C1074 C1068 1.379 . S
C1074 C1071 1.363 . S
C1074 N1072 1.356 . S
C1075 C1069 1.363 . S
C1075 C1070 1.379 . S
C1075 N1073 1.356 . S
N1076 C1068 1.356 . S
N1076 H1082 0.984 . S
N1076 H1083 0.984 . S
N1077 C1070 1.356 . S
N1077 H1080 0.984 . S
N1077 H1081 0.985 . S
H1078 N1073 0.984 . S
H1079 N1073 0.985 . S
H1080 N1077 0.984 . S
H1081 N1077 0.985 . S
H1082 N1076 0.984 . S
H1083 N1076 0.984 . S
H1084 N1072 0.984 . S
H1085 N1072 0.985 . S
C1086 C1087 1.363 . S
C1086 C1092 1.379 . S
C1086 N1094 1.356 . S
C1087 C1086 1.363 . S
C1087 C1093 1.363 . S
C1088 C1089 1.363 . S
C1088 C1093 1.379 . S
C1088 N1095 1.356 . S
C1089 C1088 1.363 . S
C1089 C1092 1.363 . S
N1090 C1092 1.356 . S
N1090 H1102 0.984 . S
N1090 H1103 0.985 . S
N1091 C1093 1.356 . S
N1091 H1096 0.984 . S
N1091 H1097 0.985 . S
C1092 C1086 1.379 . S
C1092 C1089 1.363 . S
C1092 N1090 1.356 . S
C1093 C1087 1.363 . S
C1093 C1088 1.379 . S
C1093 N1091 1.356 . S
N1094 C1086 1.356 . S
N1094 H1100 0.984 . S
N1094 H1101 0.984 . S
N1095 C1088 1.356 . S
N1095 H1098 0.984 . S
N1095 H1099 0.985 . S
H1096 N1091 0.984 . S
H1097 N1091 0.985 . S
H1098 N1095 0.984 . S
H1099 N1095 0.985 . S
H1100 N1094 0.984 . S
H1101 N1094 0.984 . S
H1102 N1090 0.984 . S
H1103 N1090 0.985 . S
C1104 C1105 1.363 . S
C1104 C1110 1.379 . S
C1104 N1112 1.356 . S
C1105 C1104 1.363 . S
C1105 C1111 1.363 1_655 S
C1106 C1107 1.363 . S
C1106 C1111 1.379 . S
C1106 N1113 1.356 . S
C1107 C1106 1.363 . S
C1107 C1110 1.363 1_455 S
N1108 C1110 1.356 . S
N1108 H1120 0.984 . S
N1108 H1121 0.985 1_655 S
N1109 C1111 1.356 . S
N1109 H1114 0.984 1_455 S
N1109 H1115 0.985 . S
C1110 C1104 1.379 . S
C1110 C1107 1.363 1_655 S
C1110 N1108 1.356 . S
C1111 C1105 1.363 1_455 S
C1111 C1106 1.379 . S
C1111 N1109 1.356 . S
N1112 C1104 1.356 . S
N1112 H1118 0.984 . S
N1112 H1119 0.984 . S
N1113 C1106 1.356 . S
N1113 H1116 0.984 . S
N1113 H1117 0.985 . S
H1114 N1109 0.984 1_655 S
H1115 N1109 0.985 . S
H1116 N1113 0.984 . S
H1117 N1113 0.985 . S
H1118 N1112 0.984 . S
H1119 N1112 0.984 . S
H1120 N1108 0.984 . S
H1121 N1108 0.985 1_455 S
C1122 C1123 1.363 . S
C1122 C1128 1.379 1_565 S
C1122 N1130 1.356 . S
C1123 C1122 1.363 . S
C1123 C1129 1.363 . S
C1124 C1125 1.363 . S
C1124 C1129 1.379 1_545 S
C1124 N1131 1.356 . S
C1125 C1124 1.363 . S
C1125 C1128 1.363 . S
N1126 C1128 1.356 . S
N1126 H1138 0.984 . S
N1126 H1139 0.985 . S
N1127 C1129 1.356 . S
N1127 H1132 0.984 . S
N1127 H1133 0.985 . S
C1128 C1122 1.379 1_545 S
C1128 C1125 1.363 . S
C1128 N1126 1.356 . S
C1129 C1123 1.363 . S
C1129 C1124 1.379 1_565 S
C1129 N1127 1.356 . S
N1130 C1122 1.356 . S
N1130 H1136 0.984 . S
N1130 H1137 0.984 . S
N1131 C1124 1.356 . S
N1131 H1134 0.984 . S
N1131 H1135 0.985 . S
H1132 N1127 0.984 . S
H1133 N1127 0.985 . S
H1134 N1131 0.984 . S
H1135 N1131 0.985 . S
H1136 N1130 0.984 . S
H1137 N1130 0.984 . S
H1138 N1126 0.984 . S
H1139 N1126 0.985 . S
C1140 C1141 1.363 . S
C1140 C1146 1.379 . S
C1140 N1148 1.356 . S
C1141 C1140 1.363 . S
C1141 C1147 1.363 1_655 S
C1142 C1143 1.363 . S
C1142 C1147 1.379 . S
C1142 N1149 1.356 . S
C1143 C1142 1.363 . S
C1143 C1146 1.363 1_455 S
N1144 C1146 1.356 . S
N1144 H1156 0.984 . S
N1144 H1157 0.985 . S
N1145 C1147 1.356 . S
N1145 H1150 0.984 . S
N1145 H1151 0.985 . S
C1146 C1140 1.379 . S
C1146 C1143 1.363 1_655 S
C1146 N1144 1.356 . S
C1147 C1141 1.363 1_455 S
C1147 C1142 1.379 . S
C1147 N1145 1.356 . S
N1148 C1140 1.356 . S
N1148 H1154 0.984 . S
N1148 H1155 0.984 . S
N1149 C1142 1.356 . S
N1149 H1152 0.984 . S
N1149 H1153 0.985 . S
H1150 N1145 0.984 . S
H1151 N1145 0.985 . S
H1152 N1149 0.984 . S
H1153 N1149 0.985 . S
H1154 N1148 0.984 . S
H1155 N1148 0.984 . S
H1156 N1144 0.984 . S
H1157 N1144 0.985 . S
C1158 C1159 1.363 . S
C1158 C1164 1.379 . S
C1158 N1166 1.356 . S
C1159 C1158 1.363 . S
C1159 C1165 1.363 1_545 S
C1160 C1161 1.363 . S
C1160 C1165 1.379 . S
C1160 N1167 1.356 . S
C1161 C1160 1.363 . S
C1161 C1164 1.363 1_565 S
N1162 C1164 1.356 . S
N1162 H1174 0.984 . S
N1162 H1175 0.985 . S
N1163 C1165 1.356 . S
N1163 H1168 0.984 . S
N1163 H1169 0.985 . S
C1164 C1158 1.379 . S
C1164 C1161 1.363 1_545 S
C1164 N1162 1.356 . S
C1165 C1159 1.363 1_565 S
C1165 C1160 1.379 . S
C1165 N1163 1.356 . S
N1166 C1158 1.356 . S
N1166 H1172 0.984 . S
N1166 H1173 0.984 . S
N1167 C1160 1.356 . S
N1167 H1170 0.984 . S
N1167 H1171 0.985 . S
H1168 N1163 0.984 . S
H1169 N1163 0.985 . S
H1170 N1167 0.984 . S
H1171 N1167 0.985 . S
H1172 N1166 0.984 . S
H1173 N1166 0.984 . S
H1174 N1162 0.984 . S
H1175 N1162 0.985 . S
C1176 C1177 1.363 1_655 S
C1176 C1182 1.379 . S
C1176 N1184 1.356 . S
C1177 C1176 1.363 1_455 S
C1177 C1183 1.363 . S
C1178 C1179 1.363 1_455 S
C1178 C1183 1.379 . S
C1178 N1185 1.356 . S
C1179 C1178 1.363 1_655 S
C1179 C1182 1.363 . S
N1180 C1182 1.356 . S
N1180 H1192 0.984 . S
N1180 H1193 0.985 . S
N1181 C1183 1.356 . S
N1181 H1186 0.984 . S
N1181 H1187 0.985 . S
C1182 C1176 1.379 . S
C1182 C1179 1.363 . S
C1182 N1180 1.356 . S
C1183 C1177 1.363 . S
C1183 C1178 1.379 . S
C1183 N1181 1.356 . S
N1184 C1176 1.356 . S
N1184 H1190 0.984 . S
N1184 H1191 0.984 . S
N1185 C1178 1.356 . S
N1185 H1188 0.984 . S
N1185 H1189 0.985 . S
H1186 N1181 0.984 . S
H1187 N1181 0.985 . S
H1188 N1185 0.984 . S
H1189 N1185 0.985 . S
H1190 N1184 0.984 . S
H1191 N1184 0.984 . S
H1192 N1180 0.984 . S
H1193 N1180 0.985 . S
C1194 C1195 1.363 . S
C1194 C1200 1.379 . S
C1194 N1202 1.356 . S
C1195 C1194 1.363 . S
C1195 C1201 1.363 1_565 S
C1196 C1197 1.363 . S
C1196 C1201 1.379 . S
C1196 N1203 1.356 . S
C1197 C1196 1.363 . S
C1197 C1200 1.363 1_545 S
N1198 C1200 1.356 . S
N1198 H1210 0.984 . S
N1198 H1211 0.985 1_565 S
N1199 C1201 1.356 . S
N1199 H1204 0.984 1_545 S
N1199 H1205 0.985 . S
C1200 C1194 1.379 . S
C1200 C1197 1.363 1_565 S
C1200 N1198 1.356 . S
C1201 C1195 1.363 1_545 S
C1201 C1196 1.379 . S
C1201 N1199 1.356 . S
N1202 C1194 1.356 . S
N1202 H1208 0.984 . S
N1202 H1209 0.984 . S
N1203 C1196 1.356 . S
N1203 H1206 0.984 . S
N1203 H1207 0.985 . S
H1204 N1199 0.984 1_565 S
H1205 N1199 0.985 . S
H1206 N1203 0.984 . S
H1207 N1203 0.985 . S
H1208 N1202 0.984 . S
H1209 N1202 0.984 . S
H1210 N1198 0.984 . S
H1211 N1198 0.985 1_545 S
C1212 C1213 1.363 1_655 S
C1212 C1218 1.379 . S
C1212 N1220 1.356 . S
C1213 C1212 1.363 1_455 S
C1213 C1219 1.363 . S
C1214 C1215 1.363 1_455 S
C1214 C1219 1.379 . S
C1214 N1221 1.356 . S
C1215 C1214 1.363 1_655 S
C1215 C1218 1.363 . S
N1216 C1218 1.356 . S
N1216 H1228 0.984 . S
N1216 H1229 0.985 . S
N1217 C1219 1.356 . S
N1217 H1222 0.984 . S
N1217 H1223 0.985 . S
C1218 C1212 1.379 . S
C1218 C1215 1.363 . S
C1218 N1216 1.356 . S
C1219 C1213 1.363 . S
C1219 C1214 1.379 . S
C1219 N1217 1.356 . S
N1220 C1212 1.356 . S
N1220 H1226 0.984 . S
N1220 H1227 0.984 1_655 S
N1221 C1214 1.356 . S
N1221 H1224 0.984 1_455 S
N1221 H1225 0.985 . S
H1222 N1217 0.984 . S
H1223 N1217 0.985 . S
H1224 N1221 0.984 1_655 S
H1225 N1221 0.985 . S
H1226 N1220 0.984 . S
H1227 N1220 0.984 1_455 S
H1228 N1216 0.984 . S
H1229 N1216 0.985 . S
C1230 C1231 1.363 . S
C1230 C1236 1.379 1_545 S
C1230 N1238 1.356 . S
C1231 C1230 1.363 . S
C1231 C1237 1.363 . S
C1232 C1233 1.363 . S
C1232 C1237 1.379 1_565 S
C1232 N1239 1.356 . S
C1233 C1232 1.363 . S
C1233 C1236 1.363 . S
N1234 C1236 1.356 . S
N1234 H1246 0.984 . S
N1234 H1247 0.985 . S
N1235 C1237 1.356 . S
N1235 H1240 0.984 . S
N1235 H1241 0.985 . S
C1236 C1230 1.379 1_565 S
C1236 C1233 1.363 . S
C1236 N1234 1.356 . S
C1237 C1231 1.363 . S
C1237 C1232 1.379 1_545 S
C1237 N1235 1.356 . S
N1238 C1230 1.356 . S
N1238 H1244 0.984 . S
N1238 H1245 0.984 . S
N1239 C1232 1.356 . S
N1239 H1242 0.984 . S
N1239 H1243 0.985 . S
H1240 N1235 0.984 . S
H1241 N1235 0.985 . S
H1242 N1239 0.984 . S
H1243 N1239 0.985 . S
H1244 N1238 0.984 . S
H1245 N1238 0.984 . S
H1246 N1234 0.984 . S
H1247 N1234 0.985 . S
C1248 C1249 1.363 . S
C1248 C1254 1.379 . S
C1248 N1256 1.356 . S
C1249 C1248 1.363 . S
C1249 C1255 1.363 1_556 S
C1250 C1251 1.363 . S
C1250 C1255 1.379 . S
C1250 N1257 1.356 . S
C1251 C1250 1.363 . S
C1251 C1254 1.363 1_554 S
N1252 C1254 1.356 . S
N1252 H1264 0.984 . S
N1252 H1265 0.985 . S
N1253 C1255 1.356 . S
N1253 H1258 0.984 . S
N1253 H1259 0.985 . S
C1254 C1248 1.379 . S
C1254 C1251 1.363 1_556 S
C1254 N1252 1.356 . S
C1255 C1249 1.363 1_554 S
C1255 C1250 1.379 . S
C1255 N1253 1.356 . S
N1256 C1248 1.356 . S
N1256 H1262 0.984 . S
N1256 H1263 0.984 . S
N1257 C1250 1.356 . S
N1257 H1260 0.984 . S
N1257 H1261 0.985 . S
H1258 N1253 0.984 . S
H1259 N1253 0.985 . S
H1260 N1257 0.984 . S
H1261 N1257 0.985 . S
H1262 N1256 0.984 . S
H1263 N1256 0.984 . S
H1264 N1252 0.984 . S
H1265 N1252 0.985 . S
C1266 C1267 1.363 1_556 S
C1266 C1272 1.379 . S
C1266 N1274 1.356 . S
C1267 C1266 1.363 1_554 S
C1267 C1273 1.363 . S
C1268 C1269 1.363 1_554 S
C1268 C1273 1.379 . S
C1268 N1275 1.356 . S
C1269 C1268 1.363 1_556 S
C1269 C1272 1.363 . S
N1270 C1272 1.356 . S
N1270 H1282 0.984 . S
N1270 H1283 0.985 . S
N1271 C1273 1.356 . S
N1271 H1276 0.984 . S
N1271 H1277 0.985 . S
C1272 C1266 1.379 . S
C1272 C1269 1.363 . S
C1272 N1270 1.356 . S
C1273 C1267 1.363 . S
C1273 C1268 1.379 . S
C1273 N1271 1.356 . S
N1274 C1266 1.356 . S
N1274 H1280 0.984 . S
N1274 H1281 0.984 1_556 S
N1275 C1268 1.356 . S
N1275 H1278 0.984 1_554 S
N1275 H1279 0.985 . S
H1276 N1271 0.984 . S
H1277 N1271 0.985 . S
H1278 N1275 0.984 1_556 S
H1279 N1275 0.985 . S
H1280 N1274 0.984 . S
H1281 N1274 0.984 1_554 S
H1282 N1270 0.984 . S
H1283 N1270 0.985 . S
C1284 C1285 1.363 1_556 S
C1284 C1290 1.379 . S
C1284 N1292 1.356 . S
C1285 C1284 1.363 1_554 S
C1285 C1291 1.363 . S
C1286 C1287 1.363 1_554 S
C1286 C1291 1.379 . S
C1286 N1293 1.356 . S
C1287 C1286 1.363 1_556 S
C1287 C1290 1.363 . S
N1288 C1290 1.356 . S
N1288 H1300 0.984 . S
N1288 H1301 0.985 . S
N1289 C1291 1.356 . S
N1289 H1294 0.984 . S
N1289 H1295 0.985 . S
C1290 C1284 1.379 . S
C1290 C1287 1.363 . S
C1290 N1288 1.356 . S
C1291 C1285 1.363 . S
C1291 C1286 1.379 . S
C1291 N1289 1.356 . S
N1292 C1284 1.356 . S
N1292 H1298 0.984 . S
N1292 H1299 0.973 1_556 S
N1293 C1286 1.356 . S
N1293 H1296 0.973 1_554 S
N1293 H1297 0.985 . S
H1294 N1289 0.984 . S
H1295 N1289 0.985 . S
H1296 N1293 0.973 1_556 S
H1297 N1293 0.985 . S
H1298 N1292 0.984 . S
H1299 N1292 0.973 1_554 S
H1300 N1288 0.984 . S
H1301 N1288 0.985 . S
C1302 C1303 1.363 . S
C1302 C1308 1.379 . S
C1302 N1310 1.356 . S
C1303 C1302 1.363 . S
C1303 C1309 1.363 1_556 S
C1304 C1305 1.363 . S
C1304 C1309 1.379 . S
C1304 N1311 1.356 . S
C1305 C1304 1.363 . S
C1305 C1308 1.363 1_554 S
N1306 C1308 1.356 . S
N1306 H1318 0.984 . S
N1306 H1319 0.985 1_556 S
N1307 C1309 1.356 . S
N1307 H1312 0.984 1_554 S
N1307 H1313 0.985 . S
C1308 C1302 1.379 . S
C1308 C1305 1.363 1_556 S
C1308 N1306 1.356 . S
C1309 C1303 1.363 1_554 S
C1309 C1304 1.379 . S
C1309 N1307 1.356 . S
N1310 C1302 1.356 . S
N1310 H1316 0.984 . S
N1310 H1317 0.984 . S
N1311 C1304 1.356 . S
N1311 H1314 0.984 . S
N1311 H1315 0.985 . S
H1312 N1307 0.984 1_556 S
H1313 N1307 0.985 . S
H1314 N1311 0.984 . S
H1315 N1311 0.985 . S
H1316 N1310 0.984 . S
H1317 N1310 0.984 . S
H1318 N1306 0.984 . S
H1319 N1306 0.985 1_554 S
C1320 C1321 1.363 . S
C1320 C1326 1.379 . S
C1320 N1328 1.356 . S
C1321 C1320 1.363 . S
C1321 C1327 1.363 . S
C1322 C1323 1.363 . S
C1322 C1327 1.379 . S
C1322 N1329 1.356 . S
C1323 C1322 1.363 . S
C1323 C1326 1.363 . S
N1324 C1326 1.356 . S
N1324 H1336 0.984 . S
N1324 H1337 0.985 . S
N1325 C1327 1.356 . S
N1325 H1330 0.984 . S
N1325 H1331 0.985 . S
C1326 C1320 1.379 . S
C1326 C1323 1.363 . S
C1326 N1324 1.356 . S
C1327 C1321 1.363 . S
C1327 C1322 1.379 . S
C1327 N1325 1.356 . S
N1328 C1320 1.356 . S
N1328 H1334 0.984 . S
N1328 H1335 0.984 . S
N1329 C1322 1.356 . S
N1329 H1332 0.984 . S
N1329 H1333 0.985 . S
H1330 N1325 0.984 . S
H1331 N1325 0.985 . S
H1332 N1329 0.984 . S
H1333 N1329 0.985 . S
H1334 N1328 0.984 . S
H1335 N1328 0.984 . S
H1336 N1324 0.984 . S
H1337 N1324 0.985 . S
C1338 C1339 1.363 . S
C1338 C1344 1.379 . S
C1338 N1346 1.356 . S
C1339 C1338 1.363 . S
C1339 C1345 1.363 . S
C1340 C1341 1.363 . S
C1340 C1345 1.379 . S
C1340 N1347 1.356 . S
C1341 C1340 1.363 . S
C1341 C1344 1.363 . S
N1342 C1344 1.356 . S
N1342 H1354 0.984 . S
N1342 H1355 0.985 . S
N1343 C1345 1.356 . S
N1343 H1348 0.984 . S
N1343 H1349 0.985 . S
C1344 C1338 1.379 . S
C1344 C1341 1.363 . S
C1344 N1342 1.356 . S
C1345 C1339 1.363 . S
C1345 C1340 1.379 . S
C1345 N1343 1.356 . S
N1346 C1338 1.356 . S
N1346 H1352 0.984 . S
N1346 H1353 0.984 . S
N1347 C1340 1.356 . S
N1347 H1350 0.984 . S
N1347 H1351 0.985 . S
H1348 N1343 0.984 . S
H1349 N1343 0.985 . S
H1350 N1347 0.984 . S
H1351 N1347 0.985 . S
H1352 N1346 0.984 . S
H1353 N1346 0.984 . S
H1354 N1342 0.984 . S
H1355 N1342 0.985 . S
C1356 C1357 1.363 . S
C1356 C1362 1.379 . S
C1356 N1364 1.356 . S
C1357 C1356 1.363 . S
C1357 C1363 1.363 . S
C1358 C1359 1.363 . S
C1358 C1363 1.379 . S
C1358 N1365 1.356 . S
C1359 C1358 1.363 . S
C1359 C1362 1.363 . S
N1360 C1362 1.356 . S
N1360 H1372 0.984 . S
N1360 H1373 0.985 . S
N1361 C1363 1.356 . S
N1361 H1366 0.984 . S
N1361 H1367 0.985 . S
C1362 C1356 1.379 . S
C1362 C1359 1.363 . S
C1362 N1360 1.356 . S
C1363 C1357 1.363 . S
C1363 C1358 1.379 . S
C1363 N1361 1.356 . S
N1364 C1356 1.356 . S
N1364 H1370 0.984 . S
N1364 H1371 0.984 . S
N1365 C1358 1.356 . S
N1365 H1368 0.984 . S
N1365 H1369 0.985 . S
H1366 N1361 0.984 . S
H1367 N1361 0.985 . S
H1368 N1365 0.984 . S
H1369 N1365 0.985 . S
H1370 N1364 0.984 . S
H1371 N1364 0.984 . S
H1372 N1360 0.984 . S
H1373 N1360 0.985 . S
C1374 C1375 1.363 . S
C1374 C1380 1.379 . S
C1374 N1382 1.356 . S
C1375 C1374 1.363 . S
C1375 C1381 1.363 . S
C1376 C1377 1.363 . S
C1376 C1381 1.379 . S
C1376 N1383 1.356 . S
C1377 C1376 1.363 . S
C1377 C1380 1.363 . S
N1378 C1380 1.356 . S
N1378 H1390 0.984 . S
N1378 H1391 0.985 . S
N1379 C1381 1.356 . S
N1379 H1384 0.984 . S
N1379 H1385 0.985 . S
C1380 C1374 1.379 . S
C1380 C1377 1.363 . S
C1380 N1378 1.356 . S
C1381 C1375 1.363 . S
C1381 C1376 1.379 . S
C1381 N1379 1.356 . S
N1382 C1374 1.356 . S
N1382 H1388 0.984 . S
N1382 H1389 0.984 . S
N1383 C1376 1.356 . S
N1383 H1386 0.984 . S
N1383 H1387 0.985 . S
H1384 N1379 0.984 . S
H1385 N1379 0.985 . S
H1386 N1383 0.984 . S
H1387 N1383 0.985 . S
H1388 N1382 0.984 . S
H1389 N1382 0.984 . S
H1390 N1378 0.984 . S
H1391 N1378 0.985 . S
C1392 C1393 1.363 . S
C1392 C1398 1.379 . S
C1392 N1400 1.356 . S
C1393 C1392 1.363 . S
C1393 C1399 1.363 . S
C1394 C1395 1.363 . S
C1394 C1399 1.379 . S
C1394 N1401 1.356 . S
C1395 C1394 1.363 . S
C1395 C1398 1.363 . S
N1396 C1398 1.356 . S
N1396 H1408 0.984 . S
N1396 H1409 0.985 . S
N1397 C1399 1.356 . S
N1397 H1402 0.984 . S
N1397 H1403 0.985 . S
C1398 C1392 1.379 . S
C1398 C1395 1.363 . S
C1398 N1396 1.356 . S
C1399 C1393 1.363 . S
C1399 C1394 1.379 . S
C1399 N1397 1.356 . S
N1400 C1392 1.356 . S
N1400 H1406 0.984 . S
N1400 H1407 0.984 . S
N1401 C1394 1.356 . S
N1401 H1404 0.984 . S
N1401 H1405 0.985 . S
H1402 N1397 0.984 . S
H1403 N1397 0.985 . S
H1404 N1401 0.984 . S
H1405 N1401 0.985 . S
H1406 N1400 0.984 . S
H1407 N1400 0.984 . S
H1408 N1396 0.984 . S
H1409 N1396 0.985 . S
C1410 C1411 1.363 . S
C1410 C1416 1.379 . S
C1410 N1418 1.356 . S
C1411 C1410 1.363 . S
C1411 C1417 1.363 . S
C1412 C1413 1.363 . S
C1412 C1417 1.379 . S
C1412 N1419 1.356 . S
C1413 C1412 1.363 . S
C1413 C1416 1.363 . S
N1414 C1416 1.356 . S
N1414 H1426 0.984 . S
N1414 H1427 0.985 . S
N1415 C1417 1.356 . S
N1415 H1420 0.984 . S
N1415 H1421 0.985 . S
C1416 C1410 1.379 . S
C1416 C1413 1.363 . S
C1416 N1414 1.356 . S
C1417 C1411 1.363 . S
C1417 C1412 1.379 . S
C1417 N1415 1.356 . S
N1418 C1410 1.356 . S
N1418 H1424 0.984 . S
N1418 H1425 0.984 . S
N1419 C1412 1.356 . S
N1419 H1422 0.984 . S
N1419 H1423 0.985 . S
H1420 N1415 0.984 . S
H1421 N1415 0.985 . S
H1422 N1419 0.984 . S
H1423 N1419 0.985 . S
H1424 N1418 0.984 . S
H1425 N1418 0.984 . S
H1426 N1414 0.984 . S
H1427 N1414 0.985 . S
C1428 C1429 1.363 . S
C1428 C1434 1.379 . S
C1428 N1436 1.356 . S
C1429 C1428 1.363 . S
C1429 C1435 1.363 . S
C1430 C1431 1.363 . S
C1430 C1435 1.379 . S
C1430 N1437 1.356 . S
C1431 C1430 1.363 . S
C1431 C1434 1.363 . S
N1432 C1434 1.356 . S
N1432 H1444 0.984 . S
N1432 H1445 0.985 . S
N1433 C1435 1.356 . S
N1433 H1438 0.984 . S
N1433 H1439 0.985 . S
C1434 C1428 1.379 . S
C1434 C1431 1.363 . S
C1434 N1432 1.356 . S
C1435 C1429 1.363 . S
C1435 C1430 1.379 . S
C1435 N1433 1.356 . S
N1436 C1428 1.356 . S
N1436 H1442 0.984 . S
N1436 H1443 0.984 . S
N1437 C1430 1.356 . S
N1437 H1440 0.984 . S
N1437 H1441 0.985 . S
H1438 N1433 0.984 . S
H1439 N1433 0.985 . S
H1440 N1437 0.984 . S
H1441 N1437 0.985 . S
H1442 N1436 0.984 . S
H1443 N1436 0.984 . S
H1444 N1432 0.984 . S
H1445 N1432 0.985 . S
C1446 C1447 1.363 . S
C1446 C1452 1.379 . S
C1446 N1454 1.356 . S
C1447 C1446 1.363 . S
C1447 C1453 1.363 . S
C1448 C1449 1.363 . S
C1448 C1453 1.379 . S
C1448 N1455 1.356 . S
C1449 C1448 1.363 . S
C1449 C1452 1.363 . S
N1450 C1452 1.356 . S
N1450 H1462 0.984 . S
N1450 H1463 0.985 . S
N1451 C1453 1.356 . S
N1451 H1456 0.984 . S
N1451 H1457 0.985 . S
C1452 C1446 1.379 . S
C1452 C1449 1.363 . S
C1452 N1450 1.356 . S
C1453 C1447 1.363 . S
C1453 C1448 1.379 . S
C1453 N1451 1.356 . S
N1454 C1446 1.356 . S
N1454 H1460 0.984 . S
N1454 H1461 0.984 . S
N1455 C1448 1.356 . S
N1455 H1458 0.984 . S
N1455 H1459 0.985 . S
H1456 N1451 0.984 . S
H1457 N1451 0.985 . S
H1458 N1455 0.984 . S
H1459 N1455 0.985 . S
H1460 N1454 0.984 . S
H1461 N1454 0.984 . S
H1462 N1450 0.984 . S
H1463 N1450 0.985 . S
C1464 C1465 1.363 . S
C1464 C1470 1.379 . S
C1464 N1472 1.356 . S
C1465 C1464 1.363 . S
C1465 C1471 1.363 . S
C1466 C1467 1.363 . S
C1466 C1471 1.379 . S
C1466 N1473 1.356 . S
C1467 C1466 1.363 . S
C1467 C1470 1.363 . S
N1468 C1470 1.356 . S
N1468 H1480 0.984 . S
N1468 H1481 0.985 . S
N1469 C1471 1.356 . S
N1469 H1474 0.984 . S
N1469 H1475 0.985 . S
C1470 C1464 1.379 . S
C1470 C1467 1.363 . S
C1470 N1468 1.356 . S
C1471 C1465 1.363 . S
C1471 C1466 1.379 . S
C1471 N1469 1.356 . S
N1472 C1464 1.356 . S
N1472 H1478 0.984 . S
N1472 H1479 0.984 . S
N1473 C1466 1.356 . S
N1473 H1476 0.984 . S
N1473 H1477 0.985 . S
H1474 N1469 0.984 . S
H1475 N1469 0.985 . S
H1476 N1473 0.984 . S
H1477 N1473 0.985 . S
H1478 N1472 0.984 . S
H1479 N1472 0.984 . S
H1480 N1468 0.984 . S
H1481 N1468 0.985 . S
C1482 C1483 1.363 . S
C1482 C1488 1.379 . S
C1482 N1490 1.356 . S
C1483 C1482 1.363 . S
C1483 C1489 1.363 . S
C1484 C1485 1.363 . S
C1484 C1489 1.379 . S
C1484 N1491 1.356 . S
C1485 C1484 1.363 . S
C1485 C1488 1.363 . S
N1486 C1488 1.356 . S
N1486 H1498 0.984 . S
N1486 H1499 0.985 . S
N1487 C1489 1.356 . S
N1487 H1492 0.984 . S
N1487 H1493 0.985 . S
C1488 C1482 1.379 . S
C1488 C1485 1.363 . S
C1488 N1486 1.356 . S
C1489 C1483 1.363 . S
C1489 C1484 1.379 . S
C1489 N1487 1.356 . S
N1490 C1482 1.356 . S
N1490 H1496 0.984 . S
N1490 H1497 0.984 . S
N1491 C1484 1.356 . S
N1491 H1494 0.984 . S
N1491 H1495 0.985 . S
H1492 N1487 0.984 . S
H1493 N1487 0.985 . S
H1494 N1491 0.984 . S
H1495 N1491 0.985 . S
H1496 N1490 0.984 . S
H1497 N1490 0.984 . S
H1498 N1486 0.984 . S
H1499 N1486 0.985 . S
C1500 C1501 1.363 . S
C1500 C1506 1.379 . S
C1500 N1508 1.356 . S
C1501 C1500 1.363 . S
C1501 C1507 1.363 . S
C1502 C1503 1.363 . S
C1502 C1507 1.379 . S
C1502 N1509 1.356 . S
C1503 C1502 1.363 . S
C1503 C1506 1.363 . S
N1504 C1506 1.356 . S
N1504 H1516 0.984 . S
N1504 H1517 0.985 . S
N1505 C1507 1.356 . S
N1505 H1510 0.984 . S
N1505 H1511 0.985 . S
C1506 C1500 1.379 . S
C1506 C1503 1.363 . S
C1506 N1504 1.356 . S
C1507 C1501 1.363 . S
C1507 C1502 1.379 . S
C1507 N1505 1.356 . S
N1508 C1500 1.356 . S
N1508 H1514 0.984 . S
N1508 H1515 0.984 . S
N1509 C1502 1.356 . S
N1509 H1512 0.984 . S
N1509 H1513 0.985 . S
H1510 N1505 0.984 . S
H1511 N1505 0.985 . S
H1512 N1509 0.984 . S
H1513 N1509 0.985 . S
H1514 N1508 0.984 . S
H1515 N1508 0.984 . S
H1516 N1504 0.984 . S
H1517 N1504 0.985 . S
C1518 C1519 1.363 . S
C1518 C1524 1.379 . S
C1518 N1526 1.356 . S
C1519 C1518 1.363 . S
C1519 C1525 1.363 . S
C1520 C1521 1.363 . S
C1520 C1525 1.379 . S
C1520 N1527 1.356 . S
C1521 C1520 1.363 . S
C1521 C1524 1.363 . S
N1522 C1524 1.356 . S
N1522 H1534 0.984 . S
N1522 H1535 0.985 . S
N1523 C1525 1.356 . S
N1523 H1528 0.984 . S
N1523 H1529 0.985 . S
C1524 C1518 1.379 . S
C1524 C1521 1.363 . S
C1524 N1522 1.356 . S
C1525 C1519 1.363 . S
C1525 C1520 1.379 . S
C1525 N1523 1.356 . S
N1526 C1518 1.356 . S
N1526 H1532 0.984 . S
N1526 H1533 0.984 . S
N1527 C1520 1.356 . S
N1527 H1530 0.984 . S
N1527 H1531 0.985 . S
H1528 N1523 0.984 . S
H1529 N1523 0.985 . S
H1530 N1527 0.984 . S
H1531 N1527 0.985 . S
H1532 N1526 0.984 . S
H1533 N1526 0.984 . S
H1534 N1522 0.984 . S
H1535 N1522 0.985 . S
C1536 C1537 1.363 . S
C1536 C1542 1.379 . S
C1536 N1544 1.356 . S
C1537 C1536 1.363 . S
C1537 C1543 1.363 . S
C1538 C1539 1.363 . S
C1538 C1543 1.379 . S
C1538 N1545 1.356 . S
C1539 C1538 1.363 . S
C1539 C1542 1.363 . S
N1540 C1542 1.356 . S
N1540 H1552 0.984 . S
N1540 H1553 0.985 1_554 S
N1541 C1543 1.356 . S
N1541 H1546 0.984 . S
N1541 H1547 0.985 . S
C1542 C1536 1.379 . S
C1542 C1539 1.363 . S
C1542 N1540 1.356 . S
C1543 C1537 1.363 . S
C1543 C1538 1.379 . S
C1543 N1541 1.356 . S
N1544 C1536 1.356 . S
N1544 H1550 0.984 . S
N1544 H1551 0.984 . S
N1545 C1538 1.356 . S
N1545 H1548 0.984 . S
N1545 H1549 0.985 . S
H1546 N1541 0.984 . S
H1547 N1541 0.985 . S
H1548 N1545 0.984 . S
H1549 N1545 0.985 . S
H1550 N1544 0.984 . S
H1551 N1544 0.984 . S
H1552 N1540 0.984 . S
H1553 N1540 0.985 1_556 S
C1554 C1555 1.363 . S
C1554 C1560 1.379 . S
C1554 N1562 1.356 . S
C1555 C1554 1.363 . S
C1555 C1561 1.363 . S
C1556 C1557 1.363 . S
C1556 C1561 1.379 . S
C1556 N1563 1.356 . S
C1557 C1556 1.363 . S
C1557 C1560 1.363 . S
N1558 C1560 1.356 1_556 S
N1558 H1570 0.984 . S
N1558 H1571 0.985 . S
N1559 C1561 1.356 . S
N1559 H1564 0.984 . S
N1559 H1565 0.985 . S
C1560 C1554 1.379 . S
C1560 C1557 1.363 . S
C1560 N1558 1.356 1_554 S
C1561 C1555 1.363 . S
C1561 C1556 1.379 . S
C1561 N1559 1.356 . S
N1562 C1554 1.356 . S
N1562 H1568 0.984 . S
N1562 H1569 0.984 . S
N1563 C1556 1.356 . S
N1563 H1566 0.984 . S
N1563 H1567 0.985 . S
H1564 N1559 0.984 . S
H1565 N1559 0.985 . S
H1566 N1563 0.984 . S
H1567 N1563 0.985 . S
H1568 N1562 0.984 . S
H1569 N1562 0.984 . S
H1570 N1558 0.984 . S
H1571 N1558 0.985 . S
C1572 C1573 1.363 . S
C1572 C1578 1.379 . S
C1572 N1580 1.356 . S
C1573 C1572 1.363 . S
C1573 C1579 1.363 . S
C1574 C1575 1.363 . S
C1574 C1579 1.379 . S
C1574 N1581 1.356 . S
C1575 C1574 1.363 . S
C1575 C1578 1.363 . S
N1576 C1578 1.356 . S
N1576 H1588 0.984 . S
N1576 H1589 0.985 1_554 S
N1577 C1579 1.356 . S
N1577 H1582 0.984 . S
N1577 H1583 0.985 . S
C1578 C1572 1.379 . S
C1578 C1575 1.363 . S
C1578 N1576 1.356 . S
C1579 C1573 1.363 . S
C1579 C1574 1.379 . S
C1579 N1577 1.356 . S
N1580 C1572 1.356 . S
N1580 H1586 0.984 . S
N1580 H1587 0.984 . S
N1581 C1574 1.356 . S
N1581 H1584 0.984 . S
N1581 H1585 0.985 . S
H1582 N1577 0.984 . S
H1583 N1577 0.985 . S
H1584 N1581 0.984 . S
H1585 N1581 0.985 . S
H1586 N1580 0.984 . S
H1587 N1580 0.984 . S
H1588 N1576 0.984 . S
H1589 N1576 0.985 1_556 S
C1590 C1591 1.363 . S
C1590 C1596 1.379 . S
C1590 N1598 1.356 . S
C1591 C1590 1.363 . S
C1591 C1597 1.363 . S
C1592 C1593 1.363 . S
C1592 C1597 1.379 . S
C1592 N1599 1.356 . S
C1593 C1592 1.363 . S
C1593 C1596 1.363 . S
N1594 C1596 1.356 . S
N1594 H1606 0.984 . S
N1594 H1607 0.985 . S
N1595 C1597 1.356 . S
N1595 H1600 0.984 . S
N1595 H1601 0.985 . S
C1596 C1590 1.379 . S
C1596 C1593 1.363 . S
C1596 N1594 1.356 . S
C1597 C1591 1.363 . S
C1597 C1592 1.379 . S
C1597 N1595 1.356 . S
N1598 C1590 1.356 . S
N1598 H1604 0.984 . S
N1598 H1605 0.984 1_554 S
N1599 C1592 1.356 . S
N1599 H1602 0.984 . S
N1599 H1603 0.985 . S
H1600 N1595 0.984 . S
H1601 N1595 0.985 . S
H1602 N1599 0.984 . S
H1603 N1599 0.985 . S
H1604 N1598 0.984 . S
H1605 N1598 0.984 1_556 S
H1606 N1594 0.984 . S
H1607 N1594 0.985 . S
C1608 C1609 1.363 . S
C1608 C1614 1.379 . S
C1608 N1616 1.356 . S
C1609 C1608 1.363 . S
C1609 C1615 1.363 . S
C1610 C1611 1.363 . S
C1610 C1615 1.379 . S
C1610 N1617 1.356 . S
C1611 C1610 1.363 . S
C1611 C1614 1.363 . S
N1612 C1614 1.356 . S
N1612 H1624 0.984 . S
N1612 H1625 0.985 . S
N1613 C1615 1.356 . S
N1613 H1618 0.984 . S
N1613 H1619 0.985 . S
C1614 C1608 1.379 . S
C1614 C1611 1.363 . S
C1614 N1612 1.356 . S
C1615 C1609 1.363 . S
C1615 C1610 1.379 . S
C1615 N1613 1.356 . S
N1616 C1608 1.356 . S
N1616 H1622 0.984 . S
N1616 H1623 0.984 . S
N1617 C1610 1.356 . S
N1617 H1620 0.984 1_556 S
N1617 H1621 0.985 . S
H1618 N1613 0.984 . S
H1619 N1613 0.985 . S
H1620 N1617 0.984 1_554 S
H1621 N1617 0.985 . S
H1622 N1616 0.984 . S
H1623 N1616 0.984 . S
H1624 N1612 0.984 . S
H1625 N1612 0.985 . S
C1626 C1627 1.363 . S
C1626 C1632 1.379 . S
C1626 N1634 1.356 . S
C1627 C1626 1.363 . S
C1627 C1633 1.363 . S
C1628 C1629 1.363 . S
C1628 C1633 1.379 . S
C1628 N1635 1.356 1_556 S
C1629 C1628 1.363 . S
C1629 C1632 1.363 . S
N1630 C1632 1.356 . S
N1630 H1642 0.984 . S
N1630 H1643 0.985 . S
N1631 C1633 1.356 . S
N1631 H1636 0.984 . S
N1631 H1637 0.985 . S
C1632 C1626 1.379 . S
C1632 C1629 1.363 . S
C1632 N1630 1.356 . S
C1633 C1627 1.363 . S
C1633 C1628 1.379 . S
C1633 N1631 1.356 . S
N1634 C1626 1.356 . S
N1634 H1640 0.984 . S
N1634 H1641 0.984 . S
N1635 C1628 1.356 1_554 S
N1635 H1638 0.984 . S
N1635 H1639 0.985 . S
H1636 N1631 0.984 . S
H1637 N1631 0.985 . S
H1638 N1635 0.984 . S
H1639 N1635 0.985 . S
H1640 N1634 0.984 . S
H1641 N1634 0.984 . S
H1642 N1630 0.984 . S
H1643 N1630 0.985 . S
C1644 C1645 1.363 . S
C1644 C1650 1.379 . S
C1644 N1652 1.356 . S
C1645 C1644 1.363 . S
C1645 C1651 1.363 . S
C1646 C1647 1.363 . S
C1646 C1651 1.379 . S
C1646 N1653 1.356 . S
C1647 C1646 1.363 . S
C1647 C1650 1.363 . S
N1648 C1650 1.356 . S
N1648 H1660 0.984 . S
N1648 H1661 0.985 . S
N1649 C1651 1.356 . S
N1649 H1654 0.984 1_556 S
N1649 H1655 0.985 . S
C1650 C1644 1.379 . S
C1650 C1647 1.363 . S
C1650 N1648 1.356 . S
C1651 C1645 1.363 . S
C1651 C1646 1.379 . S
C1651 N1649 1.356 . S
N1652 C1644 1.356 . S
N1652 H1658 0.984 . S
N1652 H1659 0.984 . S
N1653 C1646 1.356 . S
N1653 H1656 0.984 . S
N1653 H1657 0.985 . S
H1654 N1649 0.984 1_554 S
H1655 N1649 0.985 . S
H1656 N1653 0.984 . S
H1657 N1653 0.985 . S
H1658 N1652 0.984 . S
H1659 N1652 0.984 . S
H1660 N1648 0.984 . S
H1661 N1648 0.985 . S
C1662 C1663 1.363 . S
C1662 C1668 1.379 . S
C1662 N1670 1.356 . S
C1663 C1662 1.363 . S
C1663 C1669 1.363 . S
C1664 C1665 1.363 . S
C1664 C1669 1.379 . S
C1664 N1671 1.356 . S
C1665 C1664 1.363 . S
C1665 C1668 1.363 . S
N1666 C1668 1.356 . S
N1666 H1678 0.984 . S
N1666 H1679 0.985 . S
N1667 C1669 1.356 . S
N1667 H1672 0.984 1_556 S
N1667 H1673 0.985 . S
C1668 C1662 1.379 . S
C1668 C1665 1.363 . S
C1668 N1666 1.356 . S
C1669 C1663 1.363 . S
C1669 C1664 1.379 . S
C1669 N1667 1.356 . S
N1670 C1662 1.356 . S
N1670 H1676 0.984 . S
N1670 H1677 0.984 . S
N1671 C1664 1.356 . S
N1671 H1674 0.984 . S
N1671 H1675 0.985 . S
H1672 N1667 0.984 1_554 S
H1673 N1667 0.985 . S
H1674 N1671 0.984 . S
H1675 N1671 0.985 . S
H1676 N1670 0.984 . S
H1677 N1670 0.984 . S
H1678 N1666 0.984 . S
H1679 N1666 0.985 . S
C1680 C1681 1.363 . S
C1680 C1686 1.379 . S
C1680 N1688 1.356 . S
C1681 C1680 1.363 . S
C1681 C1687 1.363 . S
C1682 C1683 1.363 . S
C1682 C1687 1.379 . S
C1682 N1689 1.356 . S
C1683 C1682 1.363 . S
C1683 C1686 1.363 . S
N1684 C1686 1.356 . S
N1684 H1696 0.984 . S
N1684 H1697 0.985 1_455 S
N1685 C1687 1.356 . S
N1685 H1690 0.984 . S
N1685 H1691 0.985 . S
C1686 C1680 1.379 . S
C1686 C1683 1.363 . S
C1686 N1684 1.356 . S
C1687 C1681 1.363 . S
C1687 C1682 1.379 . S
C1687 N1685 1.356 . S
N1688 C1680 1.356 . S
N1688 H1694 0.984 . S
N1688 H1695 0.984 . S
N1689 C1682 1.356 . S
N1689 H1692 0.984 . S
N1689 H1693 0.985 . S
H1690 N1685 0.984 . S
H1691 N1685 0.985 . S
H1692 N1689 0.984 . S
H1693 N1689 0.985 . S
H1694 N1688 0.984 . S
H1695 N1688 0.984 . S
H1696 N1684 0.984 . S
H1697 N1684 0.985 1_655 S
C1698 C1699 1.363 . S
C1698 C1704 1.379 . S
C1698 N1706 1.356 . S
C1699 C1698 1.363 . S
C1699 C1705 1.363 . S
C1700 C1701 1.363 . S
C1700 C1705 1.379 . S
C1700 N1707 1.356 . S
C1701 C1700 1.363 . S
C1701 C1704 1.363 . S
N1702 C1704 1.356 . S
N1702 H1714 0.984 . S
N1702 H1715 0.985 1_545 S
N1703 C1705 1.356 . S
N1703 H1708 0.984 . S
N1703 H1709 0.985 . S
C1704 C1698 1.379 . S
C1704 C1701 1.363 . S
C1704 N1702 1.356 . S
C1705 C1699 1.363 . S
C1705 C1700 1.379 . S
C1705 N1703 1.356 . S
N1706 C1698 1.356 . S
N1706 H1712 0.984 . S
N1706 H1713 0.984 . S
N1707 C1700 1.356 . S
N1707 H1710 0.984 . S
N1707 H1711 0.985 . S
H1708 N1703 0.984 . S
H1709 N1703 0.985 . S
H1710 N1707 0.984 . S
H1711 N1707 0.985 . S
H1712 N1706 0.984 . S
H1713 N1706 0.984 . S
H1714 N1702 0.984 . S
H1715 N1702 0.985 1_565 S
C1716 C1717 1.363 . S
C1716 C1722 1.379 . S
C1716 N1724 1.356 . S
C1717 C1716 1.363 . S
C1717 C1723 1.363 . S
C1718 C1719 1.363 . S
C1718 C1723 1.379 . S
C1718 N1725 1.356 . S
C1719 C1718 1.363 . S
C1719 C1722 1.363 . S
N1720 C1722 1.356 . S
N1720 H1732 0.984 . S
N1720 H1733 0.985 . S
N1721 C1723 1.356 . S
N1721 H1726 0.984 . S
N1721 H1727 0.985 . S
C1722 C1716 1.379 . S
C1722 C1719 1.363 . S
C1722 N1720 1.356 . S
C1723 C1717 1.363 . S
C1723 C1718 1.379 . S
C1723 N1721 1.356 . S
N1724 C1716 1.356 . S
N1724 H1730 0.984 . S
N1724 H1731 0.984 . S
N1725 C1718 1.356 . S
N1725 H1728 0.984 1_655 S
N1725 H1729 0.985 . S
H1726 N1721 0.984 . S
H1727 N1721 0.985 . S
H1728 N1725 0.984 1_455 S
H1729 N1725 0.985 . S
H1730 N1724 0.984 . S
H1731 N1724 0.984 . S
H1732 N1720 0.984 . S
H1733 N1720 0.985 . S
C1734 C1735 1.363 . S
C1734 C1740 1.379 . S
C1734 N1742 1.356 . S
C1735 C1734 1.363 . S
C1735 C1741 1.363 . S
C1736 C1737 1.363 . S
C1736 C1741 1.379 . S
C1736 N1743 1.356 . S
C1737 C1736 1.363 . S
C1737 C1740 1.363 . S
N1738 C1740 1.356 . S
N1738 H1750 0.984 . S
N1738 H1751 0.985 . S
N1739 C1741 1.356 . S
N1739 H1744 0.984 1_565 S
N1739 H1745 0.985 . S
C1740 C1734 1.379 . S
C1740 C1737 1.363 . S
C1740 N1738 1.356 . S
C1741 C1735 1.363 . S
C1741 C1736 1.379 . S
C1741 N1739 1.356 . S
N1742 C1734 1.356 . S
N1742 H1748 0.984 . S
N1742 H1749 0.984 . S
N1743 C1736 1.356 . S
N1743 H1746 0.984 . S
N1743 H1747 0.985 . S
H1744 N1739 0.984 1_545 S
H1745 N1739 0.985 . S
H1746 N1743 0.984 . S
H1747 N1743 0.985 . S
H1748 N1742 0.984 . S
H1749 N1742 0.984 . S
H1750 N1738 0.984 . S
H1751 N1738 0.985 . S
C1752 C1753 1.363 . S
C1752 C1758 1.379 . S
C1752 N1760 1.356 . S
C1753 C1752 1.363 . S
C1753 C1759 1.363 . S
C1754 C1755 1.363 . S
C1754 C1759 1.379 . S
C1754 N1761 1.356 . S
C1755 C1754 1.363 . S
C1755 C1758 1.363 . S
N1756 C1758 1.356 . S
N1756 H1768 0.984 . S
N1756 H1769 0.985 . S
N1757 C1759 1.356 . S
N1757 H1762 0.984 . S
N1757 H1763 0.985 . S
C1758 C1752 1.379 . S
C1758 C1755 1.363 . S
C1758 N1756 1.356 . S
C1759 C1753 1.363 . S
C1759 C1754 1.379 . S
C1759 N1757 1.356 . S
N1760 C1752 1.356 . S
N1760 H1766 0.984 . S
N1760 H1767 0.984 1_455 S
N1761 C1754 1.356 . S
N1761 H1764 0.984 . S
N1761 H1765 0.985 . S
H1762 N1757 0.984 . S
H1763 N1757 0.985 . S
H1764 N1761 0.984 . S
H1765 N1761 0.985 . S
H1766 N1760 0.984 . S
H1767 N1760 0.984 1_655 S
H1768 N1756 0.984 . S
H1769 N1756 0.985 . S
C1770 C1771 1.363 . S
C1770 C1776 1.379 . S
C1770 N1778 1.356 . S
C1771 C1770 1.363 . S
C1771 C1777 1.363 . S
C1772 C1773 1.363 . S
C1772 C1777 1.379 . S
C1772 N1779 1.356 . S
C1773 C1772 1.363 . S
C1773 C1776 1.363 . S
N1774 C1776 1.356 . S
N1774 H1786 0.984 . S
N1774 H1787 0.985 . S
N1775 C1777 1.356 . S
N1775 H1780 0.984 . S
N1775 H1781 0.985 . S
C1776 C1770 1.379 . S
C1776 C1773 1.363 . S
C1776 N1774 1.356 . S
C1777 C1771 1.363 . S
C1777 C1772 1.379 . S
C1777 N1775 1.356 . S
N1778 C1770 1.356 . S
N1778 H1784 0.984 . S
N1778 H1785 0.984 1_545 S
N1779 C1772 1.356 . S
N1779 H1782 0.984 . S
N1779 H1783 0.985 . S
H1780 N1775 0.984 . S
H1781 N1775 0.985 . S
H1782 N1779 0.984 . S
H1783 N1779 0.985 . S
H1784 N1778 0.984 . S
H1785 N1778 0.984 1_565 S
H1786 N1774 0.984 . S
H1787 N1774 0.985 . S
C1788 C1789 1.363 . S
C1788 C1794 1.379 . S
C1788 N1796 1.356 . S
C1789 C1788 1.363 . S
C1789 C1795 1.363 . S
C1790 C1791 1.363 . S
C1790 C1795 1.379 . S
C1790 N1797 1.356 . S
C1791 C1790 1.363 . S
C1791 C1794 1.363 . S
N1792 C1794 1.356 . S
N1792 H1804 0.984 . S
N1792 H1805 0.985 . S
N1793 C1795 1.356 . S
N1793 H1798 0.984 1_655 S
N1793 H1799 0.985 . S
C1794 C1788 1.379 . S
C1794 C1791 1.363 . S
C1794 N1792 1.356 . S
C1795 C1789 1.363 . S
C1795 C1790 1.379 . S
C1795 N1793 1.356 . S
N1796 C1788 1.356 . S
N1796 H1802 0.984 . S
N1796 H1803 0.984 . S
N1797 C1790 1.356 . S
N1797 H1800 0.984 . S
N1797 H1801 0.985 . S
H1798 N1793 0.984 1_455 S
H1799 N1793 0.985 . S
H1800 N1797 0.984 . S
H1801 N1797 0.985 . S
H1802 N1796 0.984 . S
H1803 N1796 0.984 . S
H1804 N1792 0.984 . S
H1805 N1792 0.985 . S
C1806 C1807 1.363 . S
C1806 C1812 1.379 . S
C1806 N1814 1.356 . S
C1807 C1806 1.363 . S
C1807 C1813 1.363 . S
C1808 C1809 1.363 . S
C1808 C1813 1.379 . S
C1808 N1815 1.356 . S
C1809 C1808 1.363 . S
C1809 C1812 1.363 . S
N1810 C1812 1.356 . S
N1810 H1822 0.984 . S
N1810 H1823 0.985 . S
N1811 C1813 1.356 . S
N1811 H1816 0.984 . S
N1811 H1817 0.985 . S
C1812 C1806 1.379 . S
C1812 C1809 1.363 . S
C1812 N1810 1.356 . S
C1813 C1807 1.363 . S
C1813 C1808 1.379 . S
C1813 N1811 1.356 . S
N1814 C1806 1.356 . S
N1814 H1820 0.984 . S
N1814 H1821 0.984 . S
N1815 C1808 1.356 . S
N1815 H1818 0.984 1_565 S
N1815 H1819 0.985 . S
H1816 N1811 0.984 . S
H1817 N1811 0.985 . S
H1818 N1815 0.984 1_545 S
H1819 N1815 0.985 . S
H1820 N1814 0.984 . S
H1821 N1814 0.984 . S
H1822 N1810 0.984 . S
H1823 N1810 0.985 . S
C1824 C1825 1.363 . S
C1824 C1830 1.379 . S
C1824 N1832 1.356 . S
C1825 C1824 1.363 . S
C1825 C1831 1.363 . S
C1826 C1827 1.363 . S
C1826 C1831 1.379 . S
C1826 N1833 1.356 . S
C1827 C1826 1.363 . S
C1827 C1830 1.363 . S
N1828 C1830 1.356 . S
N1828 H1840 0.984 . S
N1828 H1841 0.985 . S
N1829 C1831 1.364 . S
N1829 H1834 0.979 1_545 S
N1829 H1835 0.983 1_545 S
C1830 C1824 1.379 . S
C1830 C1827 1.363 . S
C1830 N1828 1.356 . S
C1831 C1825 1.363 . S
C1831 C1826 1.379 . S
C1831 N1829 1.364 . S
N1832 C1824 1.356 . S
N1832 H1838 0.984 . S
N1832 H1839 0.984 . S
N1833 C1826 1.356 . S
N1833 H1836 0.984 . S
N1833 H1837 0.985 . S
H1834 N1829 0.979 1_565 S
H1835 N1829 0.983 1_565 S
H1836 N1833 0.984 . S
H1837 N1833 0.985 . S
H1838 N1832 0.984 . S
H1839 N1832 0.984 . S
H1840 N1828 0.984 . S
H1841 N1828 0.985 . S
C1842 C1843 1.363 . S
C1842 C1848 1.379 . S
C1842 N1850 1.356 . S
C1843 C1842 1.363 . S
C1843 C1849 1.363 . S
C1844 C1845 1.363 . S
C1844 C1849 1.379 . S
C1844 N1851 1.356 . S
C1845 C1844 1.363 . S
C1845 C1848 1.363 . S
N1846 C1848 1.356 . S
N1846 H1858 0.984 . S
N1846 H1859 0.985 . S
N1847 C1849 1.356 . S
N1847 H1852 0.984 1_565 S
N1847 H1853 0.985 . S
C1848 C1842 1.379 . S
C1848 C1845 1.363 . S
C1848 N1846 1.356 . S
C1849 C1843 1.363 . S
C1849 C1844 1.379 . S
C1849 N1847 1.356 . S
N1850 C1842 1.356 . S
N1850 H1856 0.984 . S
N1850 H1857 0.984 . S
N1851 C1844 1.356 . S
N1851 H1854 0.984 . S
N1851 H1855 0.985 . S
H1852 N1847 0.984 1_545 S
H1853 N1847 0.985 . S
H1854 N1851 0.984 . S
H1855 N1851 0.985 . S
H1856 N1850 0.984 . S
H1857 N1850 0.984 . S
H1858 N1846 0.984 . S
H1859 N1846 0.985 . S
C1860 C1861 1.363 . S
C1860 C1866 1.379 . S
C1860 N1868 1.356 . S
C1861 C1860 1.363 . S
C1861 C1867 1.363 . S
C1862 C1863 1.363 . S
C1862 C1867 1.379 . S
C1862 N1869 1.356 . S
C1863 C1862 1.363 . S
C1863 C1866 1.363 . S
N1864 C1866 1.356 . S
N1864 H1876 0.984 . S
N1864 H1877 0.985 . S
N1865 C1867 1.356 . S
N1865 H1870 0.984 . S
N1865 H1871 0.985 . S
C1866 C1860 1.379 . S
C1866 C1863 1.363 . S
C1866 N1864 1.356 . S
C1867 C1861 1.363 . S
C1867 C1862 1.379 . S
C1867 N1865 1.356 . S
N1868 C1860 1.356 . S
N1868 H1874 0.986 . S
N1868 H1875 0.984 1_455 S
N1869 C1862 1.356 . S
N1869 H1872 0.984 . S
N1869 H1873 0.985 . S
H1870 N1865 0.984 . S
H1871 N1865 0.985 . S
H1872 N1869 0.984 . S
H1873 N1869 0.985 . S
H1874 N1868 0.986 . S
H1875 N1868 0.984 1_655 S
H1876 N1864 0.984 . S
H1877 N1864 0.985 . S
C1878 C1879 1.363 . S
C1878 C1884 1.379 . S
C1878 N1886 1.356 . S
C1879 C1878 1.363 . S
C1879 C1885 1.363 . S
C1880 C1881 1.363 . S
C1880 C1885 1.379 . S
C1880 N1887 1.356 1_545 S
C1881 C1880 1.363 . S
C1881 C1884 1.363 . S
N1882 C1884 1.356 . S
N1882 H1894 0.984 . S
N1882 H1895 0.985 . S
N1883 C1885 1.356 . S
N1883 H1888 0.984 . S
N1883 H1889 0.985 . S
C1884 C1878 1.379 . S
C1884 C1881 1.363 . S
C1884 N1882 1.356 . S
C1885 C1879 1.363 . S
C1885 C1880 1.379 . S
C1885 N1883 1.356 . S
N1886 C1878 1.356 . S
N1886 H1892 0.984 . S
N1886 H1893 0.984 . S
N1887 C1880 1.356 1_565 S
N1887 H1890 0.984 . S
N1887 H1891 0.985 . S
H1888 N1883 0.984 . S
H1889 N1883 0.985 . S
H1890 N1887 0.984 . S
H1891 N1887 0.985 . S
H1892 N1886 0.984 . S
H1893 N1886 0.984 . S
H1894 N1882 0.984 . S
H1895 N1882 0.985 . S
C1896 C1897 1.363 . S
C1896 C1902 1.379 . S
C1896 N1904 1.356 . S
C1897 C1896 1.363 . S
C1897 C1903 1.363 . S
C1898 C1899 1.363 . S
C1898 C1903 1.379 . S
C1898 N1905 1.356 . S
C1899 C1898 1.363 . S
C1899 C1902 1.363 . S
N1900 C1902 1.356 . S
N1900 H1912 0.984 . S
N1900 H1913 0.985 . S
N1901 C1903 1.356 . S
N1901 H1906 0.984 . S
N1901 H1907 0.985 . S
C1902 C1896 1.379 . S
C1902 C1899 1.363 . S
C1902 N1900 1.356 . S
C1903 C1897 1.363 . S
C1903 C1898 1.379 . S
C1903 N1901 1.356 . S
N1904 C1896 1.356 . S
N1904 H1910 0.984 . S
N1904 H1911 0.984 1_655 S
N1905 C1898 1.356 . S
N1905 H1908 0.984 . S
N1905 H1909 0.985 . S
H1906 N1901 0.984 . S
H1907 N1901 0.985 . S
H1908 N1905 0.984 . S
H1909 N1905 0.985 . S
H1910 N1904 0.984 . S
H1911 N1904 0.984 1_455 S
H1912 N1900 0.984 . S
H1913 N1900 0.985 . S
C1914 C1915 1.363 . S
C1914 C1920 1.379 . S
C1914 N1922 1.356 . S
C1915 C1914 1.363 . S
C1915 C1921 1.363 . S
C1916 C1917 1.363 . S
C1916 C1921 1.379 . S
C1916 N1923 1.356 . S
C1917 C1916 1.363 . S
C1917 C1920 1.363 . S
N1918 C1920 1.356 . S
N1918 H1930 0.984 . S
N1918 H1931 0.985 . S
N1919 C1921 1.356 . S
N1919 H1924 0.984 . S
N1919 H1925 0.985 . S
C1920 C1914 1.379 . S
C1920 C1917 1.363 . S
C1920 N1918 1.356 . S
C1921 C1915 1.363 . S
C1921 C1916 1.379 . S
C1921 N1919 1.356 . S
N1922 C1914 1.356 . S
N1922 H1928 0.984 . S
N1922 H1929 0.984 1_565 S
N1923 C1916 1.356 . S
N1923 H1926 0.984 . S
N1923 H1927 0.985 . S
H1924 N1919 0.984 . S
H1925 N1919 0.985 . S
H1926 N1923 0.984 . S
H1927 N1923 0.985 . S
H1928 N1922 0.984 . S
H1929 N1922 0.984 1_545 S
H1930 N1918 0.984 . S
H1931 N1918 0.985 . S
C1932 C1933 1.363 . S
C1932 C1938 1.379 . S
C1932 N1940 1.356 . S
C1933 C1932 1.363 . S
C1933 C1939 1.363 . S
C1934 C1935 1.363 . S
C1934 C1939 1.379 . S
C1934 N1941 1.356 . S
C1935 C1934 1.363 . S
C1935 C1938 1.363 . S
N1936 C1938 1.356 . S
N1936 H1948 0.984 . S
N1936 H1949 0.985 . S
N1937 C1939 1.356 . S
N1937 H1942 0.984 . S
N1937 H1943 0.985 . S
C1938 C1932 1.379 . S
C1938 C1935 1.363 . S
C1938 N1936 1.356 . S
C1939 C1933 1.363 . S
C1939 C1934 1.379 . S
C1939 N1937 1.356 . S
N1940 C1932 1.356 . S
N1940 H1946 0.984 . S
N1940 H1947 0.984 1_455 S
N1941 C1934 1.356 . S
N1941 H1944 0.984 . S
N1941 H1945 0.985 . S
H1942 N1937 0.984 . S
H1943 N1937 0.985 . S
H1944 N1941 0.984 . S
H1945 N1941 0.985 . S
H1946 N1940 0.984 . S
H1947 N1940 0.984 1_655 S
H1948 N1936 0.984 . S
H1949 N1936 0.985 . S
C1950 C1951 1.363 . S
C1950 C1956 1.379 . S
C1950 N1958 1.356 . S
C1951 C1950 1.363 . S
C1951 C1957 1.363 . S
C1952 C1953 1.363 . S
C1952 C1957 1.379 . S
C1952 N1959 1.356 . S
C1953 C1952 1.363 . S
C1953 C1956 1.363 . S
N1954 C1956 1.356 . S
N1954 H1966 0.984 . S
N1954 H1967 0.985 . S
N1955 C1957 1.356 . S
N1955 H1960 0.984 . S
N1955 H1961 0.985 . S
C1956 C1950 1.379 . S
C1956 C1953 1.363 . S
C1956 N1954 1.356 . S
C1957 C1951 1.363 . S
C1957 C1952 1.379 . S
C1957 N1955 1.356 . S
N1958 C1950 1.356 . S
N1958 H1964 0.990 . S
N1958 H1965 0.984 1_655 S
N1959 C1952 1.356 . S
N1959 H1962 0.984 . S
N1959 H1963 0.985 . S
H1960 N1955 0.984 . S
H1961 N1955 0.985 . S
H1962 N1959 0.984 . S
H1963 N1959 0.985 . S
H1964 N1958 0.990 . S
H1965 N1958 0.984 1_455 S
H1966 N1954 0.984 . S
H1967 N1954 0.985 . S
C1968 C1969 1.363 . S
C1968 C1974 1.379 . S
C1968 N1976 1.356 . S
C1969 C1968 1.363 . S
C1969 C1975 1.363 . S
C1970 C1971 1.363 . S
C1970 C1975 1.379 . S
C1970 N1977 1.356 . S
C1971 C1970 1.363 . S
C1971 C1974 1.363 . S
N1972 C1974 1.356 . S
N1972 H1984 0.984 . S
N1972 H1985 0.985 . S
N1973 C1975 1.356 . S
N1973 H1978 0.984 . S
N1973 H1979 0.985 . S
C1974 C1968 1.379 . S
C1974 C1971 1.363 . S
C1974 N1972 1.356 . S
C1975 C1969 1.363 . S
C1975 C1970 1.379 . S
C1975 N1973 1.356 . S
N1976 C1968 1.356 . S
N1976 H1982 0.984 . S
N1976 H1983 0.984 . S
N1977 C1970 1.356 . S
N1977 H1980 0.984 . S
N1977 H1981 0.985 . S
H1978 N1973 0.984 . S
H1979 N1973 0.985 . S
H1980 N1977 0.984 . S
H1981 N1977 0.985 . S
H1982 N1976 0.984 . S
H1983 N1976 0.984 . S
H1984 N1972 0.984 . S
H1985 N1972 0.985 . S
C1986 C1987 1.363 . S
C1986 C1992 1.379 . S
C1986 N1994 1.356 . S
C1987 C1986 1.363 . S
C1987 C1993 1.363 . S
C1988 C1989 1.363 . S
C1988 C1993 1.379 . S
C1988 N1995 1.356 . S
C1989 C1988 1.363 . S
C1989 C1992 1.363 . S
N1990 C1992 1.356 . S
N1990 H2002 0.984 . S
N1990 H2003 0.985 . S
N1991 C1993 1.356 . S
N1991 H1996 0.984 . S
N1991 H1997 0.985 . S
C1992 C1986 1.379 . S
C1992 C1989 1.363 . S
C1992 N1990 1.356 . S
C1993 C1987 1.363 . S
C1993 C1988 1.379 . S
C1993 N1991 1.356 . S
N1994 C1986 1.356 . S
N1994 H2000 0.984 . S
N1994 H2001 0.984 . S
N1995 C1988 1.356 . S
N1995 H1998 0.984 . S
N1995 H1999 0.985 . S
H1996 N1991 0.984 . S
H1997 N1991 0.985 . S
H1998 N1995 0.984 . S
H1999 N1995 0.985 . S
H2000 N1994 0.984 . S
H2001 N1994 0.984 . S
H2002 N1990 0.984 . S
H2003 N1990 0.985 . S
C2004 C2005 1.363 . S
C2004 C2010 1.379 . S
C2004 N2012 1.356 . S
C2005 C2004 1.363 . S
C2005 C2011 1.363 . S
C2006 C2007 1.363 . S
C2006 C2011 1.379 . S
C2006 N2013 1.356 . S
C2007 C2006 1.363 . S
C2007 C2010 1.363 . S
N2008 C2010 1.356 . S
N2008 H2020 0.984 . S
N2008 H2021 0.985 . S
N2009 C2011 1.356 . S
N2009 H2014 0.984 . S
N2009 H2015 0.985 . S
C2010 C2004 1.379 . S
C2010 C2007 1.363 . S
C2010 N2008 1.356 . S
C2011 C2005 1.363 . S
C2011 C2006 1.379 . S
C2011 N2009 1.356 . S
N2012 C2004 1.356 . S
N2012 H2018 0.984 . S
N2012 H2019 0.984 . S
N2013 C2006 1.356 . S
N2013 H2016 0.984 . S
N2013 H2017 0.985 . S
H2014 N2009 0.984 . S
H2015 N2009 0.985 . S
H2016 N2013 0.984 . S
H2017 N2013 0.985 . S
H2018 N2012 0.984 . S
H2019 N2012 0.984 . S
H2020 N2008 0.984 . S
H2021 N2008 0.985 . S
C2022 C2023 1.363 . S
C2022 C2028 1.379 . S
C2022 N2030 1.356 . S
C2023 C2022 1.363 . S
C2023 C2029 1.363 . S
C2024 C2025 1.363 . S
C2024 C2029 1.379 . S
C2024 N2031 1.356 . S
C2025 C2024 1.363 . S
C2025 C2028 1.363 . S
N2026 C2028 1.356 . S
N2026 H2038 0.984 . S
N2026 H2039 0.985 . S
N2027 C2029 1.356 . S
N2027 H2032 0.984 . S
N2027 H2033 0.985 . S
C2028 C2022 1.379 . S
C2028 C2025 1.363 . S
C2028 N2026 1.356 . S
C2029 C2023 1.363 . S
C2029 C2024 1.379 . S
C2029 N2027 1.356 . S
N2030 C2022 1.356 . S
N2030 H2036 0.984 . S
N2030 H2037 0.984 . S
N2031 C2024 1.356 . S
N2031 H2034 0.984 . S
N2031 H2035 0.985 . S
H2032 N2027 0.984 . S
H2033 N2027 0.985 . S
H2034 N2031 0.984 . S
H2035 N2031 0.985 . S
H2036 N2030 0.984 . S
H2037 N2030 0.984 . S
H2038 N2026 0.984 . S
H2039 N2026 0.985 . S
C2040 C2041 1.363 . S
C2040 C2046 1.379 . S
C2040 N2048 1.356 . S
C2041 C2040 1.363 . S
C2041 C2047 1.363 . S
C2042 C2043 1.363 . S
C2042 C2047 1.379 . S
C2042 N2049 1.356 . S
C2043 C2042 1.363 . S
C2043 C2046 1.363 . S
N2044 C2046 1.356 . S
N2044 H2056 0.984 . S
N2044 H2057 0.985 . S
N2045 C2047 1.356 . S
N2045 H2050 0.984 . S
N2045 H2051 0.985 . S
C2046 C2040 1.379 . S
C2046 C2043 1.363 . S
C2046 N2044 1.356 . S
C2047 C2041 1.363 . S
C2047 C2042 1.379 . S
C2047 N2045 1.356 . S
N2048 C2040 1.356 . S
N2048 H2054 0.984 . S
N2048 H2055 0.984 . S
N2049 C2042 1.356 . S
N2049 H2052 0.984 . S
N2049 H2053 0.985 . S
H2050 N2045 0.984 . S
H2051 N2045 0.985 . S
H2052 N2049 0.984 . S
H2053 N2049 0.985 . S
H2054 N2048 0.984 . S
H2055 N2048 0.984 . S
H2056 N2044 0.984 . S
H2057 N2044 0.985 . S
C2058 C2059 1.363 . S
C2058 C2064 1.379 . S
C2058 N2066 1.356 . S
C2059 C2058 1.363 . S
C2059 C2065 1.363 . S
C2060 C2061 1.363 . S
C2060 C2065 1.379 . S
C2060 N2067 1.356 . S
C2061 C2060 1.363 . S
C2061 C2064 1.363 . S
N2062 C2064 1.356 . S
N2062 H2074 0.984 . S
N2062 H2075 0.985 . S
N2063 C2065 1.356 . S
N2063 H2068 0.984 . S
N2063 H2069 0.985 . S
C2064 C2058 1.379 . S
C2064 C2061 1.363 . S
C2064 N2062 1.356 . S
C2065 C2059 1.363 . S
C2065 C2060 1.379 . S
C2065 N2063 1.356 . S
N2066 C2058 1.356 . S
N2066 H2072 0.984 . S
N2066 H2073 0.984 . S
N2067 C2060 1.356 . S
N2067 H2070 0.984 . S
N2067 H2071 0.985 . S
H2068 N2063 0.984 . S
H2069 N2063 0.985 . S
H2070 N2067 0.984 . S
H2071 N2067 0.985 . S
H2072 N2066 0.984 . S
H2073 N2066 0.984 . S
H2074 N2062 0.984 . S
H2075 N2062 0.985 . S
C2076 C2077 1.363 . S
C2076 C2082 1.379 . S
C2076 N2084 1.356 . S
C2077 C2076 1.363 . S
C2077 C2083 1.363 . S
C2078 C2079 1.363 . S
C2078 C2083 1.379 . S
C2078 N2085 1.356 . S
C2079 C2078 1.363 . S
C2079 C2082 1.363 . S
N2080 C2082 1.356 . S
N2080 H2092 0.984 . S
N2080 H2093 0.985 . S
N2081 C2083 1.356 . S
N2081 H2086 0.984 . S
N2081 H2087 0.985 . S
C2082 C2076 1.379 . S
C2082 C2079 1.363 . S
C2082 N2080 1.356 . S
C2083 C2077 1.363 . S
C2083 C2078 1.379 . S
C2083 N2081 1.356 . S
N2084 C2076 1.356 . S
N2084 H2090 0.984 . S
N2084 H2091 0.984 . S
N2085 C2078 1.356 . S
N2085 H2088 0.984 . S
N2085 H2089 0.985 . S
H2086 N2081 0.984 . S
H2087 N2081 0.985 . S
H2088 N2085 0.984 . S
H2089 N2085 0.985 . S
H2090 N2084 0.984 . S
H2091 N2084 0.984 . S
H2092 N2080 0.984 . S
H2093 N2080 0.985 . S
C2094 C2095 1.363 . S
C2094 C2100 1.379 . S
C2094 N2102 1.356 . S
C2095 C2094 1.363 . S
C2095 C2101 1.363 . S
C2096 C2097 1.363 . S
C2096 C2101 1.379 . S
C2096 N2103 1.356 . S
C2097 C2096 1.363 . S
C2097 C2100 1.363 . S
N2098 C2100 1.356 . S
N2098 H2110 0.984 . S
N2098 H2111 0.985 . S
N2099 C2101 1.356 . S
N2099 H2104 0.984 . S
N2099 H2105 0.985 . S
C2100 C2094 1.379 . S
C2100 C2097 1.363 . S
C2100 N2098 1.356 . S
C2101 C2095 1.363 . S
C2101 C2096 1.379 . S
C2101 N2099 1.356 . S
N2102 C2094 1.356 . S
N2102 H2108 0.984 . S
N2102 H2109 0.984 . S
N2103 C2096 1.356 . S
N2103 H2106 0.984 . S
N2103 H2107 0.985 . S
H2104 N2099 0.984 . S
H2105 N2099 0.985 . S
H2106 N2103 0.984 . S
H2107 N2103 0.985 . S
H2108 N2102 0.984 . S
H2109 N2102 0.984 . S
H2110 N2098 0.984 . S
H2111 N2098 0.985 . S
C2112 C2113 1.363 . S
C2112 C2118 1.379 . S
C2112 N2120 1.356 . S
C2113 C2112 1.363 . S
C2113 C2119 1.363 . S
C2114 C2115 1.363 . S
C2114 C2119 1.379 . S
C2114 N2121 1.356 . S
C2115 C2114 1.363 . S
C2115 C2118 1.363 . S
N2116 C2118 1.356 . S
N2116 H2128 0.984 . S
N2116 H2129 0.985 . S
N2117 C2119 1.356 . S
N2117 H2122 0.984 . S
N2117 H2123 0.985 . S
C2118 C2112 1.379 . S
C2118 C2115 1.363 . S
C2118 N2116 1.356 . S
C2119 C2113 1.363 . S
C2119 C2114 1.379 . S
C2119 N2117 1.356 . S
N2120 C2112 1.356 . S
N2120 H2126 0.984 . S
N2120 H2127 0.984 . S
N2121 C2114 1.356 . S
N2121 H2124 0.984 . S
N2121 H2125 0.985 . S
H2122 N2117 0.984 . S
H2123 N2117 0.985 . S
H2124 N2121 0.984 . S
H2125 N2121 0.985 . S
H2126 N2120 0.984 . S
H2127 N2120 0.984 . S
H2128 N2116 0.984 . S
H2129 N2116 0.985 . S
C2130 C2131 1.363 . S
C2130 C2136 1.379 . S
C2130 N2138 1.356 . S
C2131 C2130 1.363 . S
C2131 C2137 1.363 . S
C2132 C2133 1.363 . S
C2132 C2137 1.379 . S
C2132 N2139 1.356 . S
C2133 C2132 1.363 . S
C2133 C2136 1.363 . S
N2134 C2136 1.356 . S
N2134 H2146 0.984 . S
N2134 H2147 0.985 . S
N2135 C2137 1.356 . S
N2135 H2140 0.984 . S
N2135 H2141 0.985 . S
C2136 C2130 1.379 . S
C2136 C2133 1.363 . S
C2136 N2134 1.356 . S
C2137 C2131 1.363 . S
C2137 C2132 1.379 . S
C2137 N2135 1.356 . S
N2138 C2130 1.356 . S
N2138 H2144 0.984 . S
N2138 H2145 0.984 . S
N2139 C2132 1.356 . S
N2139 H2142 0.984 . S
N2139 H2143 0.985 . S
H2140 N2135 0.984 . S
H2141 N2135 0.985 . S
H2142 N2139 0.984 . S
H2143 N2139 0.985 . S
H2144 N2138 0.984 . S
H2145 N2138 0.984 . S
H2146 N2134 0.984 . S
H2147 N2134 0.985 . S
C2148 C2149 1.363 . S
C2148 C2154 1.379 . S
C2148 N2156 1.356 . S
C2149 C2148 1.363 . S
C2149 C2155 1.363 . S
C2150 C2151 1.363 . S
C2150 C2155 1.379 . S
C2150 N2157 1.356 . S
C2151 C2150 1.363 . S
C2151 C2154 1.363 . S
N2152 C2154 1.356 . S
N2152 H2164 0.984 . S
N2152 H2165 0.985 . S
N2153 C2155 1.356 . S
N2153 H2158 0.984 . S
N2153 H2159 0.985 . S
C2154 C2148 1.379 . S
C2154 C2151 1.363 . S
C2154 N2152 1.356 . S
C2155 C2149 1.363 . S
C2155 C2150 1.379 . S
C2155 N2153 1.356 . S
N2156 C2148 1.356 . S
N2156 H2162 0.984 . S
N2156 H2163 0.984 . S
N2157 C2150 1.356 . S
N2157 H2160 0.984 . S
N2157 H2161 0.985 . S
H2158 N2153 0.984 . S
H2159 N2153 0.985 . S
H2160 N2157 0.984 . S
H2161 N2157 0.985 . S
H2162 N2156 0.984 . S
H2163 N2156 0.984 . S
H2164 N2152 0.984 . S
H2165 N2152 0.985 . S
C2166 C2167 1.363 . S
C2166 C2172 1.379 . S
C2166 N2174 1.356 . S
C2167 C2166 1.363 . S
C2167 C2173 1.363 . S
C2168 C2169 1.363 . S
C2168 C2173 1.379 . S
C2168 N2175 1.356 . S
C2169 C2168 1.363 . S
C2169 C2172 1.363 . S
N2170 C2172 1.356 . S
N2170 H2182 0.984 . S
N2170 H2183 0.985 . S
N2171 C2173 1.356 . S
N2171 H2176 0.984 . S
N2171 H2177 0.985 . S
C2172 C2166 1.379 . S
C2172 C2169 1.363 . S
C2172 N2170 1.356 . S
C2173 C2167 1.363 . S
C2173 C2168 1.379 . S
C2173 N2171 1.356 . S
N2174 C2166 1.356 . S
N2174 H2180 0.984 . S
N2174 H2181 0.984 . S
N2175 C2168 1.356 . S
N2175 H2178 0.984 . S
N2175 H2179 0.985 . S
H2176 N2171 0.984 . S
H2177 N2171 0.985 . S
H2178 N2175 0.984 . S
H2179 N2175 0.985 . S
H2180 N2174 0.984 . S
H2181 N2174 0.984 . S
H2182 N2170 0.984 . S
H2183 N2170 0.985 . S
C2184 C2185 1.363 . S
C2184 C2190 1.379 . S
C2184 N2192 1.356 . S
C2185 C2184 1.363 . S
C2185 C2191 1.363 . S
C2186 C2187 1.363 . S
C2186 C2191 1.379 . S
C2186 N2193 1.356 . S
C2187 C2186 1.363 . S
C2187 C2190 1.363 . S
N2188 C2190 1.356 . S
N2188 H2200 0.984 . S
N2188 H2201 0.985 . S
N2189 C2191 1.356 . S
N2189 H2194 0.984 . S
N2189 H2195 0.985 . S
C2190 C2184 1.379 . S
C2190 C2187 1.363 . S
C2190 N2188 1.356 . S
C2191 C2185 1.363 . S
C2191 C2186 1.379 . S
C2191 N2189 1.356 . S
N2192 C2184 1.356 . S
N2192 H2198 0.984 . S
N2192 H2199 0.984 . S
N2193 C2186 1.356 . S
N2193 H2196 0.984 . S
N2193 H2197 0.985 . S
H2194 N2189 0.984 . S
H2195 N2189 0.985 . S
H2196 N2193 0.984 . S
H2197 N2193 0.985 . S
H2198 N2192 0.984 . S
H2199 N2192 0.984 . S
H2200 N2188 0.984 . S
H2201 N2188 0.985 . S
C2202 C2203 1.363 . S
C2202 C2208 1.379 . S
C2202 N2210 1.356 . S
C2203 C2202 1.363 . S
C2203 C2209 1.363 . S
C2204 C2205 1.363 . S
C2204 C2209 1.379 . S
C2204 N2211 1.356 . S
C2205 C2204 1.363 . S
C2205 C2208 1.363 . S
N2206 C2208 1.356 . S
N2206 H2218 0.984 . S
N2206 H2219 0.985 . S
N2207 C2209 1.356 . S
N2207 H2212 0.984 . S
N2207 H2213 0.985 . S
C2208 C2202 1.379 . S
C2208 C2205 1.363 . S
C2208 N2206 1.356 . S
C2209 C2203 1.363 . S
C2209 C2204 1.379 . S
C2209 N2207 1.356 . S
N2210 C2202 1.356 . S
N2210 H2216 0.984 . S
N2210 H2217 0.984 . S
N2211 C2204 1.356 . S
N2211 H2214 0.984 . S
N2211 H2215 0.985 . S
H2212 N2207 0.984 . S
H2213 N2207 0.985 . S
H2214 N2211 0.984 . S
H2215 N2211 0.985 . S
H2216 N2210 0.984 . S
H2217 N2210 0.984 . S
H2218 N2206 0.984 . S
H2219 N2206 0.985 . S
C2220 C2221 1.363 . S
C2220 C2226 1.379 . S
C2220 N2228 1.356 . S
C2221 C2220 1.363 . S
C2221 C2227 1.363 . S
C2222 C2223 1.363 . S
C2222 C2227 1.379 . S
C2222 N2229 1.356 . S
C2223 C2222 1.363 . S
C2223 C2226 1.363 . S
N2224 C2226 1.356 . S
N2224 H2236 0.984 . S
N2224 H2237 0.985 . S
N2225 C2227 1.356 . S
N2225 H2230 0.984 . S
N2225 H2231 0.985 . S
C2226 C2220 1.379 . S
C2226 C2223 1.363 . S
C2226 N2224 1.356 . S
C2227 C2221 1.363 . S
C2227 C2222 1.379 . S
C2227 N2225 1.356 . S
N2228 C2220 1.356 . S
N2228 H2234 0.984 . S
N2228 H2235 0.984 . S
N2229 C2222 1.356 . S
N2229 H2232 0.984 . S
N2229 H2233 0.985 . S
H2230 N2225 0.984 . S
H2231 N2225 0.985 . S
H2232 N2229 0.984 . S
H2233 N2229 0.985 . S
H2234 N2228 0.984 . S
H2235 N2228 0.984 . S
H2236 N2224 0.984 . S
H2237 N2224 0.985 . S
C2238 C2239 1.363 . S
C2238 C2244 1.379 . S
C2238 N2246 1.356 . S
C2239 C2238 1.363 . S
C2239 C2245 1.363 . S
C2240 C2241 1.363 . S
C2240 C2245 1.379 . S
C2240 N2247 1.356 . S
C2241 C2240 1.363 . S
C2241 C2244 1.363 . S
N2242 C2244 1.356 . S
N2242 H2254 0.984 . S
N2242 H2255 0.985 . S
N2243 C2245 1.356 . S
N2243 H2248 0.984 . S
N2243 H2249 0.985 . S
C2244 C2238 1.379 . S
C2244 C2241 1.363 . S
C2244 N2242 1.356 . S
C2245 C2239 1.363 . S
C2245 C2240 1.379 . S
C2245 N2243 1.356 . S
N2246 C2238 1.356 . S
N2246 H2252 0.984 . S
N2246 H2253 0.984 . S
N2247 C2240 1.356 . S
N2247 H2250 0.984 . S
N2247 H2251 0.985 . S
H2248 N2243 0.984 . S
H2249 N2243 0.985 . S
H2250 N2247 0.984 . S
H2251 N2247 0.985 . S
H2252 N2246 0.984 . S
H2253 N2246 0.984 . S
H2254 N2242 0.984 . S
H2255 N2242 0.985 . S
C2256 C2257 1.363 . S
C2256 C2262 1.379 . S
C2256 N2264 1.356 . S
C2257 C2256 1.363 . S
C2257 C2263 1.363 . S
C2258 C2259 1.363 . S
C2258 C2263 1.379 . S
C2258 N2265 1.356 . S
C2259 C2258 1.363 . S
C2259 C2262 1.363 . S
N2260 C2262 1.356 . S
N2260 H2272 0.984 . S
N2260 H2273 0.985 . S
N2261 C2263 1.356 . S
N2261 H2266 0.984 . S
N2261 H2267 0.985 . S
C2262 C2256 1.379 . S
C2262 C2259 1.363 . S
C2262 N2260 1.356 . S
C2263 C2257 1.363 . S
C2263 C2258 1.379 . S
C2263 N2261 1.356 . S
N2264 C2256 1.356 . S
N2264 H2270 0.984 . S
N2264 H2271 0.984 . S
N2265 C2258 1.356 . S
N2265 H2268 0.984 . S
N2265 H2269 0.985 . S
H2266 N2261 0.984 . S
H2267 N2261 0.985 . S
H2268 N2265 0.984 . S
H2269 N2265 0.985 . S
H2270 N2264 0.984 . S
H2271 N2264 0.984 . S
H2272 N2260 0.984 . S
H2273 N2260 0.985 . S
C2274 C2275 1.363 . S
C2274 C2280 1.379 . S
C2274 N2282 1.356 . S
C2275 C2274 1.363 . S
C2275 C2281 1.363 . S
C2276 C2277 1.363 . S
C2276 C2281 1.379 . S
C2276 N2283 1.356 . S
C2277 C2276 1.363 . S
C2277 C2280 1.363 . S
N2278 C2280 1.356 . S
N2278 H2290 0.984 . S
N2278 H2291 0.985 . S
N2279 C2281 1.356 . S
N2279 H2284 0.984 . S
N2279 H2285 0.985 . S
C2280 C2274 1.379 . S
C2280 C2277 1.363 . S
C2280 N2278 1.356 . S
C2281 C2275 1.363 . S
C2281 C2276 1.379 . S
C2281 N2279 1.356 . S
N2282 C2274 1.356 . S
N2282 H2288 0.984 . S
N2282 H2289 0.984 . S
N2283 C2276 1.356 . S
N2283 H2286 0.984 . S
N2283 H2287 0.985 . S
H2284 N2279 0.984 . S
H2285 N2279 0.985 . S
H2286 N2283 0.984 . S
H2287 N2283 0.985 . S
H2288 N2282 0.984 . S
H2289 N2282 0.984 . S
H2290 N2278 0.984 . S
H2291 N2278 0.985 . S
C2292 C2293 1.363 . S
C2292 C2298 1.379 . S
C2292 N2300 1.356 . S
C2293 C2292 1.363 . S
C2293 C2299 1.363 . S
C2294 C2295 1.363 . S
C2294 C2299 1.379 . S
C2294 N2301 1.356 . S
C2295 C2294 1.363 . S
C2295 C2298 1.363 . S
N2296 C2298 1.356 . S
N2296 H2308 0.984 . S
N2296 H2309 0.985 . S
N2297 C2299 1.356 . S
N2297 H2302 0.984 . S
N2297 H2303 0.985 . S
C2298 C2292 1.379 . S
C2298 C2295 1.363 . S
C2298 N2296 1.356 . S
C2299 C2293 1.363 . S
C2299 C2294 1.379 . S
C2299 N2297 1.356 . S
N2300 C2292 1.356 . S
N2300 H2306 0.984 . S
N2300 H2307 0.984 . S
N2301 C2294 1.356 . S
N2301 H2304 0.984 . S
N2301 H2305 0.985 . S
H2302 N2297 0.984 . S
H2303 N2297 0.985 . S
H2304 N2301 0.984 . S
H2305 N2301 0.985 . S
H2306 N2300 0.984 . S
H2307 N2300 0.984 . S
H2308 N2296 0.984 . S
H2309 N2296 0.985 . S
C2310 C2311 1.363 . S
C2310 C2316 1.379 . S
C2310 N2318 1.356 . S
C2311 C2310 1.363 . S
C2311 C2317 1.363 . S
C2312 C2313 1.363 . S
C2312 C2317 1.379 . S
C2312 N2319 1.356 . S
C2313 C2312 1.363 . S
C2313 C2316 1.363 . S
N2314 C2316 1.356 . S
N2314 H2326 0.984 . S
N2314 H2327 0.985 . S
N2315 C2317 1.356 . S
N2315 H2320 0.984 . S
N2315 H2321 0.985 . S
C2316 C2310 1.379 . S
C2316 C2313 1.363 . S
C2316 N2314 1.356 . S
C2317 C2311 1.363 . S
C2317 C2312 1.379 . S
C2317 N2315 1.356 . S
N2318 C2310 1.356 . S
N2318 H2324 0.984 . S
N2318 H2325 0.984 . S
N2319 C2312 1.356 . S
N2319 H2322 0.984 . S
N2319 H2323 0.985 . S
H2320 N2315 0.984 . S
H2321 N2315 0.985 . S
H2322 N2319 0.984 . S
H2323 N2319 0.985 . S
H2324 N2318 0.984 . S
H2325 N2318 0.984 . S
H2326 N2314 0.984 . S
H2327 N2314 0.985 . S
C2328 C2329 1.363 . S
C2328 C2334 1.379 . S
C2328 N2336 1.356 . S
C2329 C2328 1.363 . S
C2329 C2335 1.363 . S
C2330 C2331 1.363 . S
C2330 C2335 1.379 . S
C2330 N2337 1.356 . S
C2331 C2330 1.363 . S
C2331 C2334 1.363 . S
N2332 C2334 1.356 . S
N2332 H2344 0.984 . S
N2332 H2345 0.985 . S
N2333 C2335 1.356 . S
N2333 H2338 0.984 . S
N2333 H2339 0.985 . S
C2334 C2328 1.379 . S
C2334 C2331 1.363 . S
C2334 N2332 1.356 . S
C2335 C2329 1.363 . S
C2335 C2330 1.379 . S
C2335 N2333 1.356 . S
N2336 C2328 1.356 . S
N2336 H2342 0.984 . S
N2336 H2343 0.984 . S
N2337 C2330 1.356 . S
N2337 H2340 0.984 . S
N2337 H2341 0.985 . S
H2338 N2333 0.984 . S
H2339 N2333 0.985 . S
H2340 N2337 0.984 . S
H2341 N2337 0.985 . S
H2342 N2336 0.984 . S
H2343 N2336 0.984 . S
H2344 N2332 0.984 . S
H2345 N2332 0.985 . S
C2346 C2347 1.363 . S
C2346 C2352 1.379 . S
C2346 N2354 1.356 . S
C2347 C2346 1.363 . S
C2347 C2353 1.363 . S
C2348 C2349 1.363 . S
C2348 C2353 1.379 . S
C2348 N2355 1.356 . S
C2349 C2348 1.363 . S
C2349 C2352 1.363 . S
N2350 C2352 1.356 . S
N2350 H2362 0.984 . S
N2350 H2363 0.985 . S
N2351 C2353 1.356 . S
N2351 H2356 0.984 . S
N2351 H2357 0.985 . S
C2352 C2346 1.379 . S
C2352 C2349 1.363 . S
C2352 N2350 1.356 . S
C2353 C2347 1.363 . S
C2353 C2348 1.379 . S
C2353 N2351 1.356 . S
N2354 C2346 1.356 . S
N2354 H2360 0.984 . S
N2354 H2361 0.984 . S
N2355 C2348 1.356 . S
N2355 H2358 0.984 . S
N2355 H2359 0.985 . S
H2356 N2351 0.984 . S
H2357 N2351 0.985 . S
H2358 N2355 0.984 . S
H2359 N2355 0.985 . S
H2360 N2354 0.984 . S
H2361 N2354 0.984 . S
H2362 N2350 0.984 . S
H2363 N2350 0.985 . S
C2364 C2365 1.363 . S
C2364 C2370 1.379 . S
C2364 N2372 1.356 . S
C2365 C2364 1.363 . S
C2365 C2371 1.363 . S
C2366 C2367 1.363 . S
C2366 C2371 1.379 . S
C2366 N2373 1.356 . S
C2367 C2366 1.363 . S
C2367 C2370 1.363 . S
N2368 C2370 1.356 . S
N2368 H2380 0.984 . S
N2368 H2381 0.985 . S
N2369 C2371 1.356 . S
N2369 H2374 0.984 . S
N2369 H2375 0.985 . S
C2370 C2364 1.379 . S
C2370 C2367 1.363 . S
C2370 N2368 1.356 . S
C2371 C2365 1.363 . S
C2371 C2366 1.379 . S
C2371 N2369 1.356 . S
N2372 C2364 1.356 . S
N2372 H2378 0.984 . S
N2372 H2379 0.984 . S
N2373 C2366 1.356 . S
N2373 H2376 0.984 . S
N2373 H2377 0.985 . S
H2374 N2369 0.984 . S
H2375 N2369 0.985 . S
H2376 N2373 0.984 . S
H2377 N2373 0.985 . S
H2378 N2372 0.984 . S
H2379 N2372 0.984 . S
H2380 N2368 0.984 . S
H2381 N2368 0.985 . S
C2382 C2383 1.363 . S
C2382 C2388 1.379 . S
C2382 N2390 1.356 . S
C2383 C2382 1.363 . S
C2383 C2389 1.363 . S
C2384 C2385 1.363 . S
C2384 C2389 1.379 . S
C2384 N2391 1.356 . S
C2385 C2384 1.363 . S
C2385 C2388 1.363 . S
N2386 C2388 1.356 . S
N2386 H2398 0.984 . S
N2386 H2399 0.985 . S
N2387 C2389 1.356 . S
N2387 H2392 0.984 . S
N2387 H2393 0.985 . S
C2388 C2382 1.379 . S
C2388 C2385 1.363 . S
C2388 N2386 1.356 . S
C2389 C2383 1.363 . S
C2389 C2384 1.379 . S
C2389 N2387 1.356 . S
N2390 C2382 1.356 . S
N2390 H2396 0.984 . S
N2390 H2397 0.984 . S
N2391 C2384 1.356 . S
N2391 H2394 0.984 . S
N2391 H2395 0.985 . S
H2392 N2387 0.984 . S
H2393 N2387 0.985 . S
H2394 N2391 0.984 . S
H2395 N2391 0.985 . S
H2396 N2390 0.984 . S
H2397 N2390 0.984 . S
H2398 N2386 0.984 . S
H2399 N2386 0.985 . S
C673 C440 1.465 . S
C675 C6 1.465 . S
C691 C20 1.465 . S
C693 C398 1.465 . S
C709 C34 1.465 . S
C711 C412 1.465 . S
C727 C426 1.465 . S
C729 C48 1.465 . S
C745 C356 1.465 . S
C747 C62 1.465 . S
C763 C76 1.465 . S
C765 C370 1.465 . S
C781 C384 1.465 . S
C783 C90 1.465 . S
C799 C104 1.465 . S
C801 C342 1.465 . S
C817 C118 1.465 . S
C819 C622 1.465 . S
C835 C580 1.465 . S
C837 C132 1.465 . S
C853 C594 1.465 . S
C855 C146 1.465 . S
C871 C160 1.465 . S
C873 C608 1.465 . S
C889 C174 1.465 . S
C891 C664 1.465 . S
C907 C188 1.465 . S
C909 C636 1.465 . S
C925 C202 1.465 . S
C927 C650 1.465 . S
C943 C566 1.465 . S
C945 C216 1.465 . S
C961 C552 1.465 . S
C963 C230 1.465 . S
C979 C244 1.465 . S
C981 C468 1.465 . S
C997 C482 1.465 . S
C999 C258 1.465 . S
C1015 C272 1.465 . S
C1017 C496 1.465 . S
C1033 C454 1.465 . S
C1035 C286 1.465 . S
C1051 C524 1.465 . S
C1053 C300 1.465 . S
C1069 C314 1.465 . S
C1071 C538 1.465 . S
C1087 C510 1.465 . S
C1089 C328 1.465 . S
C1105 C134 1.596 . S
C1107 C8 1.596 . S
C1123 C148 1.596 . S
C1125 C22 1.596 . S
C1141 C36 1.596 . S
C1143 C162 1.596 . S
C1159 C120 1.596 . S
C1161 C50 1.596 . S
C1177 C64 1.596 . S
C1179 C218 1.596 . S
C1195 C176 1.596 . S
C1197 C78 1.596 . S
C1213 C190 1.596 . S
C1215 C92 1.596 . S
C1231 C204 1.596 . S
C1233 C106 1.596 . S
C1249 C260 1.596 . S
C1251 C232 1.596 . S
C1267 C316 1.596 . S
C1269 C246 1.596 . S
C1285 C330 1.596 . S
C1287 C274 1.596 . S
C1303 C288 1.596 . S
C1305 C302 1.596 . S
C1321 C470 1.596 . S
C1323 C344 1.596 . S
C1339 C484 1.596 . S
C1341 C358 1.596 . S
C1357 C498 1.596 . S
C1359 C372 1.596 . S
C1375 C386 1.596 . S
C1377 C456 1.596 . S
C1393 C400 1.596 . S
C1395 C554 1.596 . S
C1411 C414 1.596 . S
C1413 C512 1.596 . S
C1429 C526 1.596 . S
C1431 C428 1.596 . S
C1447 C540 1.596 . S
C1449 C442 1.596 . S
C1465 C568 1.596 . S
C1467 C596 1.596 . S
C1483 C652 1.596 . S
C1485 C582 1.596 . S
C1501 C666 1.596 . S
C1503 C610 1.596 . S
C1519 C638 1.596 . S
C1521 C624 1.596 . S
C1537 C7 1.397 . S
C1539 C261 1.377 1_554 S
C1555 C21 1.397 . S
C1557 C275 1.377 1_554 S
C1573 C35 1.397 . S
C1575 C289 1.377 1_554 S
C1591 C247 1.377 1_554 S
C1593 C49 1.397 . S
C1609 C63 1.397 . S
C1611 C317 1.377 1_556 S
C1627 C77 1.397 . S
C1629 C233 1.377 1_556 S
C1645 C331 1.377 1_556 S
C1647 C91 1.397 . S
C1663 C303 1.377 1_556 S
C1665 C105 1.397 . S
C1681 C119 1.397 . S
C1683 C135 1.377 1_455 S
C1699 C133 1.397 . S
C1701 C149 1.377 1_545 S
C1717 C147 1.397 . S
C1719 C163 1.377 1_655 S
C1735 C121 1.377 1_565 S
C1737 C161 1.397 . S
C1753 C219 1.377 1_455 S
C1755 C175 1.397 . S
C1771 C177 1.377 1_545 S
C1773 C189 1.397 . S
C1789 C191 1.377 1_655 S
C1791 C203 1.397 . S
C1807 C217 1.397 . S
C1809 C205 1.377 1_565 S
C1825 C51 1.377 1_545 S
C1827 C231 1.397 . S
C1843 C79 1.377 1_565 S
C1845 C245 1.397 . S
C1861 C93 1.377 1_455 S
C1863 C259 1.397 . S
C1879 C273 1.397 . S
C1881 C107 1.377 1_545 S
C1897 C65 1.377 1_655 S
C1899 C287 1.397 . S
C1915 C23 1.377 1_565 S
C1917 C301 1.397 . S
C1933 C37 1.377 1_455 S
C1935 C315 1.397 . S
C1951 C9 1.377 1_655 S
C1953 C329 1.397 . S
C1969 C597 1.377 . S
C1971 C343 1.397 . S
C1987 C357 1.397 . S
C1989 C611 1.377 . S
C2005 C625 1.377 . S
C2007 C371 1.397 . S
C2023 C583 1.377 . S
C2025 C385 1.397 . S
C2041 C399 1.397 . S
C2043 C653 1.377 . S
C2059 C413 1.397 . S
C2061 C569 1.377 . S
C2077 C667 1.377 . S
C2079 C427 1.397 . S
C2095 C441 1.397 . S
C2097 C639 1.377 . S
C2113 C455 1.397 . S
C2115 C471 1.377 . S
C2131 C469 1.397 . S
C2133 C485 1.377 . S
C2149 C483 1.397 . S
C2151 C499 1.377 . S
C2167 C497 1.397 . S
C2169 C457 1.377 . S
C2185 C555 1.377 . S
C2187 C511 1.397 . S
C2203 C513 1.377 . S
C2205 C525 1.397 . S
C2221 C527 1.377 . S
C2223 C539 1.397 . S
C2239 C553 1.397 . S
C2241 C541 1.377 . S
C2257 C387 1.377 . S
C2259 C567 1.397 . S
C2275 C415 1.377 . S
C2277 C581 1.397 . S
C2293 C429 1.377 . S
C2295 C595 1.397 . S
C2311 C609 1.397 . S
C2313 C443 1.377 . S
C2329 C401 1.377 . S
C2331 C623 1.397 . S
C2347 C359 1.377 . S
C2349 C637 1.397 . S
C2365 C651 1.397 . S
C2367 C373 1.377 . S
C2383 C345 1.377 . S
C2385 C665 1.397 . S
