# Generated by pormake.
# Topology sow, (4)-cn, num edge types: 1
# Building blocks:
#     Node 0, Type 0, BuildingBlock: ESEHIV_clean_sbu_0, # of connection points: 4
#     Node 1, Type 0, BuildingBlock: ESEHIV_clean_sbu_0, # of connection points: 4
#     Node 2, Type 0, BuildingBlock: ESEHIV_clean_sbu_0, # of connection points: 4
#     Node 3, Type 0, BuildingBlock: ESEHIV_clean_sbu_0, # of connection points: 4
#     Node 4, Type 0, BuildingBlock: ESEHIV_clean_sbu_0, # of connection points: 4
#     Node 5, Type 0, BuildingBlock: ESEHIV_clean_sbu_0, # of connection points: 4
#     Node 6, Type 0, BuildingBlock: ESEHIV_clean_sbu_0, # of connection points: 4
#     Node 7, Type 0, BuildingBlock: ESEHIV_clean_sbu_0, # of connection points: 4
#     Edge 8, Type (0, 0), BuildingBlock: OJICUG_clean_linker_0, # of connection points: 2
#     Edge 9, Type (0, 0), BuildingBlock: OJICUG_clean_linker_0, # of connection points: 2
#     Edge 10, Type (0, 0), BuildingBlock: OJICUG_clean_linker_0, # of connection points: 2
#     Edge 11, Type (0, 0), BuildingBlock: OJICUG_clean_linker_0, # of connection points: 2
#     Edge 12, Type (0, 0), BuildingBlock: OJICUG_clean_linker_0, # of connection points: 2
#     Edge 13, Type (0, 0), BuildingBlock: OJICUG_clean_linker_0, # of connection points: 2
#     Edge 14, Type (0, 0), BuildingBlock: OJICUG_clean_linker_0, # of connection points: 2
#     Edge 15, Type (0, 0), BuildingBlock: OJICUG_clean_linker_0, # of connection points: 2
#     Edge 16, Type (0, 0), BuildingBlock: OJICUG_clean_linker_0, # of connection points: 2
#     Edge 17, Type (0, 0), BuildingBlock: OJICUG_clean_linker_0, # of connection points: 2
#     Edge 18, Type (0, 0), BuildingBlock: OJICUG_clean_linker_0, # of connection points: 2
#     Edge 19, Type (0, 0), BuildingBlock: OJICUG_clean_linker_0, # of connection points: 2
#     Edge 20, Type (0, 0), BuildingBlock: OJICUG_clean_linker_0, # of connection points: 2
#     Edge 21, Type (0, 0), BuildingBlock: OJICUG_clean_linker_0, # of connection points: 2
#     Edge 22, Type (0, 0), BuildingBlock: OJICUG_clean_linker_0, # of connection points: 2
#     Edge 23, Type (0, 0), BuildingBlock: OJICUG_clean_linker_0, # of connection points: 2
# Relax obj value: 0.069
# Max RMSD: 0.227
# Mean RMSD: 0.189
data_MOF--net-sow--node1-ESEHIV_clean_sbu_0--edge1-OJICUG_clean_linker_0
_symmetry_space_group_name_H-M    P1
_symmetry_Int_Tables_number       1
_symmetry_cell_setting            triclinic
loop_
_symmetry_equiv_pos_as_xyz
'x, y, z'
_cell_length_a     36.076645
_cell_length_b     14.176299
_cell_length_c     16.942252
_cell_angle_alpha  91.52246
_cell_angle_beta   89.610807
_cell_angle_gamma 90.274736
loop_
_atom_site_label
_atom_site_type_symbol
_atom_site_fract_x
_atom_site_fract_y
_atom_site_fract_z
_atom_type_partial_charge
Cu0 Cu 0.16756 0.18369 0.21622 0.0
N1 N 0.19321 0.13084 0.2994 0.0
N2 N 0.23342 0.11521 0.39837 0.0
C3 C 0.2216 0.17043 0.33966 0.0
C4 C 0.21146 0.03766 0.39416 0.0
C5 C 0.18673 0.04761 0.33322 0.0
O6 O 0.20346 0.25464 0.15377 0.0
C7 C 0.1017 0.29272 0.21917 0.0
O8 O 0.10627 0.2927 0.14216 0.0
H9 H 0.23324 0.23846 0.32566 0.0
H10 H 0.16522 -0.00177 0.3154 0.0
N11 N 0.14606 0.08691 0.15439 0.0
N12 N 0.10267 0.00066 0.09194 0.0
C13 C 0.1096 0.0664 0.14904 0.0
C14 C 0.16286 0.0305 0.10014 0.0
C15 C 0.13614 0.97761 0.06114 0.0
C16 C 0.20128 0.26364 0.07929 0.0
O17 O 0.17159 0.23245 0.04232 0.0
H18 H 0.08836 0.10205 0.18371 0.0
H19 H 0.19231 0.03074 0.08768 0.0
O20 O 0.12709 0.25827 0.26138 0.0
H21 H 0.21246 0.97862 0.43325 0.0
H22 H 0.14089 0.92753 1.01283 0.0
Cu23 Cu 0.39823 0.32499 0.70805 0.0
N24 N 0.37416 0.35802 0.80315 0.0
N25 N 0.33124 0.36422 0.89943 0.0
C26 C 0.34089 0.32638 0.82806 0.0
C27 C 0.35969 0.42197 0.91997 0.0
C28 C 0.38601 0.41818 0.86042 0.0
O29 O 0.36145 0.28351 0.63124 0.0
C30 C 0.44415 0.19146 0.78605 0.0
O31 O 0.42202 0.20346 0.84733 0.0
H32 H 0.32442 0.27538 0.79488 0.0
H33 H 0.41198 0.45656 0.85889 0.0
N34 N 0.42292 0.42932 0.66717 0.0
N35 N 0.46898 0.51499 0.61614 0.0
C36 C 0.45996 0.4432 0.66357 0.0
C37 C 0.40813 0.49504 0.62117 0.0
C38 C 0.43648 0.54779 0.5894 0.0
C39 C 0.34837 0.20012 0.62528 0.0
O40 O 0.3605 0.13525 0.67255 0.0
H41 H 0.47996 0.39745 0.69042 0.0
H42 H 0.37894 0.5004 0.60794 0.0
O43 O 0.43649 0.23112 0.72174 0.0
H44 H 0.36125 0.4648 0.9737 0.0
H45 H 0.43357 0.60356 0.54747 0.0
Cu46 Cu 0.66015 0.25443 0.82504 0.0
N47 N 0.68302 0.30059 0.73445 0.0
N48 N 0.72241 0.31809 0.63291 0.0
C49 C 0.71403 0.26858 0.69806 0.0
C50 C 0.69541 0.38354 0.62865 0.0
C51 C 0.67126 0.37252 0.69115 0.0
O52 O 0.69748 0.19179 0.88817 0.0
C53 C 0.5977 0.1368 0.84399 0.0
O54 O 0.60793 0.13796 0.91822 0.0
H55 H 0.73011 0.21043 0.71944 0.0
H56 H 0.6466 0.4135 0.70385 0.0
N57 N 0.63837 0.355 0.88207 0.0
N58 N 0.59423 0.44496 0.93815 0.0
C59 C 0.60191 0.37572 0.88444 0.0
C60 C 0.65439 0.41464 0.93487 0.0
C61 C 0.62715 0.46973 0.97005 0.0
C62 C 0.69601 0.1877 0.96319 0.0
O63 O 0.66699 0.22206 1.00108 0.0
H64 H 0.58116 0.33795 0.85009 0.0
H65 H 0.68359 0.41534 0.94898 0.0
O66 O 0.61925 0.17286 0.79307 0.0
H67 H 0.69268 0.43469 0.5828 0.0
H68 H 0.63114 0.52281 1.01638 0.0
Cu69 Cu 0.89299 0.12998 0.32567 0.0
N70 N 0.86742 0.09098 0.23487 0.0
N71 N 0.82437 0.08255 0.14037 0.0
C72 C 0.83387 0.12035 0.2116 0.0
C73 C 0.85319 0.02722 0.11821 0.0
C74 C 0.87961 0.03232 0.17672 0.0
O75 O 0.8577 0.17489 0.40539 0.0
C76 C 0.95497 0.252 0.34565 0.0
O77 O 0.95056 0.234 0.42084 0.0
H78 H 0.81737 0.17099 0.24513 0.0
H79 H 0.90615 -0.00288 0.17632 0.0
N80 N 0.91693 0.02713 0.36859 0.0
N81 N 0.96155 0.94271 0.42345 0.0
C82 C 0.95376 0.01295 0.37406 0.0
C83 C 0.90096 0.96257 0.41479 0.0
C84 C 0.92843 0.91052 0.44891 0.0
C85 C 0.84077 0.25338 0.40688 0.0
O86 O 0.84807 0.31508 0.35232 0.0
H87 H 0.97448 0.05742 0.34711 0.0
H88 H 0.87151 0.95771 0.42656 0.0
O89 O 0.931 0.22074 0.2966 0.0
H90 H 0.8552 0.98628 0.06354 0.0
H91 H 0.92443 0.85584 0.49161 0.0
Cu92 Cu 0.89751 0.75164 0.98921 0.0
N93 N 0.91745 0.65264 0.92668 0.0
N94 N 0.95768 0.57551 0.84746 0.0
C95 C 0.95341 0.64029 0.90668 0.0
C96 C 0.92315 0.54466 0.83037 0.0
C97 C 0.89844 0.59182 0.87971 0.0
O98 O 0.93815 0.83121 0.02743 0.0
C99 C 0.86313 0.82598 0.85267 0.0
O100 O 0.89233 0.7926 0.81481 0.0
H101 H 0.9758 0.6829 0.93071 0.0
H102 H 0.86853 0.58711 0.87762 0.0
N103 N 0.87184 0.70465 0.07614 0.0
N104 N 0.83166 0.6985 0.17732 0.0
C105 C 0.84572 0.75116 0.11873 0.0
C106 C 0.87446 0.61937 0.10855 0.0
C107 C 0.84968 0.61528 0.17095 0.0
C108 C 0.96069 0.8702 0.98012 0.0
O109 O 0.95435 0.8639 0.90392 0.0
H110 H 0.83676 0.82172 0.1058 0.0
H111 H 0.89305 0.56411 0.08817 0.0
O112 O 0.86138 0.82007 0.9275 0.0
H113 H 0.91615 0.49491 0.78317 0.0
H114 H 0.84565 0.55608 0.20917 0.0
Cu115 Cu 0.66015 0.80666 0.50948 0.0
N116 N 0.63017 0.89126 0.45615 0.0
N117 N 0.58449 0.94154 0.37918 0.0
C118 C 0.60034 0.8667 0.41287 0.0
C119 C 0.60533 0.01665 0.40207 0.0
C120 C 0.63343 0.98541 0.44985 0.0
O121 O 0.62673 0.7126 0.55367 0.0
C122 C 0.71897 0.81279 0.40327 0.0
O123 O 0.71612 0.90274 0.42299 0.0
H124 H 0.5909 0.79483 0.40451 0.0
H125 H 0.6549 0.02814 0.47742 0.0
N126 N 0.68579 0.86782 0.59189 0.0
N127 N 0.73081 0.90032 0.67878 0.0
C128 C 0.72032 0.84718 0.61533 0.0
C129 C 0.67391 0.93661 0.64206 0.0
C130 C 0.70163 0.95668 0.69597 0.0
C131 C 0.61079 0.64998 0.5105 0.0
O132 O 0.62111 0.63934 0.43629 0.0
H133 H 0.73695 0.79194 0.58781 0.0
H134 H 0.64682 0.96881 0.64029 0.0
O135 O 0.69658 0.75455 0.43461 0.0
H136 H 0.60059 0.08887 0.38579 0.0
H137 H 0.70032 0.00829 0.74416 0.0
Cu138 Cu 0.3996 0.74389 0.02205 0.0
N139 N 0.42517 0.84077 0.07632 0.0
N140 N 0.4653 0.91162 0.1592 0.0
C141 C 0.44979 0.82916 0.13461 0.0
C142 C 0.44973 0.97802 0.11456 0.0
C143 C 0.42489 0.93415 0.06372 0.0
O144 O 0.43651 0.65266 0.98497 0.0
C145 C 0.3384 0.74647 0.12208 0.0
O146 O 0.3398 0.83566 0.10293 0.0
H147 H 0.45701 0.76115 0.15705 0.0
H148 H 0.40815 0.96793 0.02006 0.0
N149 N 0.37537 0.79193 0.93465 0.0
N150 N 0.33153 0.81828 0.84512 0.0
C151 C 0.34031 0.77352 0.91194 0.0
C152 C 0.38939 0.84995 0.88032 0.0
C153 C 0.36244 0.8664 0.82505 0.0
C154 C 0.45297 0.59854 0.03198 0.0
O155 O 0.44179 0.59589 0.10583 0.0
H156 H 0.32195 0.72634 0.94291 0.0
H157 H 0.41734 0.87792 0.88072 0.0
O158 O 0.3627 0.69037 0.09299 0.0
H159 H 0.45581 0.05284 0.11826 0.0
H160 H 0.36541 0.91061 0.77427 0.0
Cu161 Cu 0.16051 0.69093 0.53124 0.0
N162 N 0.13585 0.59919 0.59024 0.0
N163 N 0.09171 0.54111 0.66906 0.0
C164 C 0.09949 0.59942 0.60942 0.0
C165 C 0.1243 0.50103 0.68719 0.0
C166 C 0.15142 0.53642 0.63806 0.0
O167 O 0.12356 0.77715 0.49196 0.0
C168 C 0.19648 0.76066 0.6717 0.0
O169 O 0.16633 0.73348 0.70874 0.0
H170 H 0.07964 0.64747 0.58519 0.0
H171 H 0.18089 0.5236 0.64164 0.0
N172 N 0.18603 0.63768 0.44484 0.0
N173 N 0.22608 0.62886 0.3433 0.0
C174 C 0.21008 0.6851 0.39937 0.0
C175 C 0.1867 0.54793 0.41699 0.0
C176 C 0.21143 0.54222 0.3543 0.0
C177 C 0.10264 0.82447 0.53879 0.0
O178 O 0.10888 0.82287 0.61504 0.0
H179 H 0.21638 0.75923 0.40898 0.0
H180 H 0.17069 0.49063 0.44111 0.0
O181 O 0.19798 0.75361 0.59665 0.0
H182 H 0.12858 0.4539 0.7355 0.0
H183 H 0.21794 0.47925 0.31952 0.0
C184 C 0.26536 0.31443 0.90659 0.0
C185 C 0.29796 0.34515 0.9446 0.0
H186 H 0.20937 0.26627 0.91877 0.0
C187 C 0.29764 0.35479 0.02756 0.0
H188 H 0.26429 0.30785 0.84287 0.0
C189 C 0.26597 0.33109 0.07137 0.0
C190 C 0.23374 0.29778 0.03327 0.0
H191 H 0.32221 0.3779 0.05895 0.0
H192 H 0.26703 0.33706 0.13519 0.0
C193 C 0.23367 0.29135 0.95026 0.0
C194 C 0.27827 0.06399 0.4995 0.0
C195 C 0.26253 0.13597 0.45487 0.0
H196 H 0.31747 0.02743 0.58804 0.0
C197 C 0.2756 0.22894 0.46704 0.0
H198 H 0.26941 -0.0086 0.49156 0.0
C199 C 0.30352 0.24931 0.52179 0.0
C200 C 0.31908 0.17749 0.56646 0.0
H201 H 0.264 0.28681 0.43523 0.0
H202 H 0.31267 0.32184 0.52956 0.0
C203 C 0.30608 0.08456 0.55474 0.0
C204 C 0.7588 0.13241 0.13444 0.0
C205 C 0.79138 0.10209 0.09574 0.0
H206 H 0.70327 0.18207 0.12337 0.0
C207 C 0.79149 0.09428 1.01269 0.0
H208 H 0.75742 0.13746 0.19823 0.0
C209 C 0.76023 0.11949 0.96948 0.0
C210 C 0.7281 0.15282 1.00833 0.0
H211 H 0.8161 0.07161 0.98079 0.0
H212 H 0.76158 0.11481 0.9056 0.0
C213 C 0.72759 0.15736 0.09136 0.0
C214 C 0.7715 0.21593 0.5734 0.0
C215 C 0.75297 0.30305 0.57809 0.0
H216 H 0.81355 0.13215 0.51646 0.0
C217 C 0.76446 0.37473 0.52713 0.0
H218 H 0.76335 0.15849 0.61063 0.0
C219 C 0.79317 0.3592 0.47228 0.0
C220 C 0.81134 0.27178 0.46718 0.0
H221 H 0.7514 0.44326 0.52953 0.0
H222 H 0.801 0.41574 0.43366 0.0
C223 C 0.80032 0.20061 0.51888 0.0
C224 C 0.78099 0.65832 0.27112 0.0
C225 C 0.80354 0.72613 0.23461 0.0
H226 H 0.73645 0.63199 0.35255 0.0
C227 C 0.79807 0.8219 0.25482 0.0
H228 H 0.78421 0.58402 0.25658 0.0
C229 C 0.77074 0.84926 0.3095 0.0
C230 C 0.74797 0.78174 0.34555 0.0
H231 H 0.8152 0.87605 0.22913 0.0
H232 H 0.76752 0.92382 0.32336 0.0
C233 C 0.75344 0.68582 0.32583 0.0
C234 C 0.76604 0.90881 0.80403 0.0
C235 C 0.76502 0.89246 0.72179 0.0
H236 H 0.79779 0.90056 0.91019 0.0
C237 C 0.79757 0.8629 0.68262 0.0
H238 H 0.74143 0.9315 0.83598 0.0
C239 C 0.82988 0.84581 0.72488 0.0
C240 C 0.8304 0.85708 0.80759 0.0
H241 H 0.79789 0.85147 0.61919 0.0
H242 H 0.85408 0.82054 0.69274 0.0
C243 C 0.79833 0.89082 0.84657 0.0
C244 C 0.26379 0.78938 0.84164 0.0
C245 C 0.29702 0.81202 0.80244 0.0
H246 H 0.206 0.75702 0.8316 0.0
C247 C 0.29611 0.82533 0.72045 0.0
H248 H 0.26327 0.78052 0.90488 0.0
C249 C 0.26316 0.8123 0.6783 0.0
C250 C 0.23027 0.78603 0.71719 0.0
H251 H 0.32113 0.8425 0.6882 0.0
H252 H 0.26374 0.82031 0.61489 0.0
C253 C 0.23082 0.77676 0.7996 0.0
C254 C 0.30606 0.61887 0.19841 0.0
C255 C 0.30904 0.71387 0.17711 0.0
H256 H 0.27747 0.51716 0.26822 0.0
C257 C 0.28355 0.77916 0.20952 0.0
H258 H 0.32513 0.56666 0.17427 0.0
C259 C 0.25625 0.75089 0.26283 0.0
C260 C 0.25354 0.65641 0.28552 0.0
H261 H 0.28472 0.85278 0.19411 0.0
H262 H 0.23713 0.80346 0.28594 0.0
C263 C 0.27857 0.59041 0.25195 0.0
C264 C 0.0582 0.29955 0.33558 0.0
C265 C 0.06404 0.30597 0.25372 0.0
H266 H 1.01905 0.27932 0.42918 0.0
C267 C 0.03296 0.31049 0.20425 0.0
H268 H 0.08147 0.29659 0.3755 0.0
C269 C 0.99711 0.29989 0.23498 0.0
C270 C 0.99149 0.28534 0.31599 0.0
H271 H 0.03634 0.31582 0.14095 0.0
H272 H 0.97399 0.29774 0.19451 0.0
C273 C 1.02231 0.28973 0.36641 0.0
C274 C 0.49389 0.12547 0.87114 0.0
C275 C 0.48179 0.15202 0.79627 0.0
H276 H 0.54028 0.0976 0.9448 0.0
C277 C 0.50766 0.15388 0.7338 0.0
H278 H 0.47465 0.12206 0.92036 0.0
C279 C 0.54534 0.13979 0.74776 0.0
C280 C 0.55795 0.12347 0.8245 0.0
H281 H 0.49926 0.17275 0.67504 0.0
H282 H 0.56479 0.14851 0.69947 0.0
C283 C 0.53162 0.11122 0.8851 0.0
C284 C 0.05841 0.54257 0.79721 0.0
C285 C 0.05769 0.53962 0.7142 0.0
H286 H 1.02687 0.55747 0.9048 0.0
C287 C 1.02331 0.54312 0.676 0.0
H288 H 0.08455 0.54132 0.82815 0.0
C289 C 0.99035 0.55083 0.71981 0.0
C290 C 0.99118 0.55743 0.80275 0.0
H291 H 1.02206 0.54128 0.61214 0.0
H292 H 0.96433 0.55563 0.68877 0.0
C293 C 1.02552 0.55247 0.841 0.0
C294 C 0.49739 0.85872 0.27852 0.0
C295 C 0.49385 0.92397 0.21804 0.0
H296 H 0.52825 0.81433 0.3779 0.0
C297 C 0.51947 -0.00105 0.21449 0.0
H298 H 0.4777 0.80144 0.28427 0.0
C299 C 0.54867 0.00641 0.26852 0.0
C300 C 0.55289 0.93903 0.32723 0.0
H301 H 0.51773 0.05007 0.16837 0.0
H302 H 0.56864 0.06303 0.26257 0.0
C303 C 0.52646 0.86616 0.33234 0.0
C304 C 0.0367 0.96131 0.11694 0.0
C305 C 0.0668 0.96949 0.0643 0.0
H306 H 0.97947 0.92309 0.13186 0.0
C307 C 0.06121 0.94839 0.98378 0.0
H308 H 0.04023 0.97698 0.17934 0.0
C309 C 1.02644 0.91915 0.95645 0.0
C310 C 0.99651 0.90886 1.00915 0.0
H311 H 0.08368 0.95546 0.94165 0.0
H312 H 1.02329 0.90261 0.89405 0.0
C313 C 1.00196 0.93045 0.08976 0.0
C314 C 0.54743 0.58553 0.48366 0.0
C315 C 0.57581 0.60581 0.53807 0.0
H316 H 0.49095 0.54235 0.46643 0.0
C317 C 0.56895 0.59146 0.61877 0.0
H318 H 0.55164 0.59677 0.42122 0.0
C319 C 0.53422 0.55851 0.64437 0.0
C320 C 0.5055 0.54225 0.59003 0.0
H321 H 0.59026 0.60676 0.66205 0.0
H322 H 0.52931 0.54899 0.70676 0.0
C323 C 0.51257 0.55528 0.50946 0.0
C324 C 0.49599 0.5311 0.92749 0.0
C325 C 0.48809 0.55198 1.00748 0.0
H326 H 0.53607 0.47861 0.84292 0.0
C327 C 0.51531 0.53423 0.06414 0.0
H328 H 0.47561 0.54421 0.88248 0.0
C329 C 0.55006 0.49943 0.04123 0.0
C330 C 0.55813 0.47941 0.96138 0.0
H331 H 0.51022 0.55017 0.12615 0.0
H332 H 0.57066 0.48777 0.08607 0.0
C333 C 0.53052 0.49378 0.90482 0.0
C334 C 0.03678 0.87191 0.56095 0.0
C335 C 0.06741 0.86326 0.50961 0.0
H336 H 0.97897 0.90271 0.57324 0.0
C337 C 0.06294 0.88429 0.42956 0.0
H338 H 0.0392 0.85555 0.62279 0.0
C339 C 1.02835 0.91234 0.4014 0.0
C340 C 0.99749 0.91743 0.45238 0.0
H341 H 0.08606 0.87809 0.38863 0.0
H342 H 1.02541 0.92746 0.33944 0.0
C343 C 1.00216 0.89779 0.53248 0.0
loop_
_geom_bond_atom_site_label_1
_geom_bond_atom_site_label_2
_geom_bond_distance
_geom_bond_site_symmetry_2
_ccdc_geom_bond_type
Cu0 N1 1.999 . S
Cu0 O6 1.974 . S
Cu0 N11 1.985 . S
Cu0 O20 1.959 . S
N1 Cu0 1.999 . S
N1 C3 1.263 . S
N1 C5 1.389 . S
N2 C3 1.358 . S
N2 C4 1.400 . S
C3 N1 1.263 . S
C3 N2 1.358 . S
C3 H9 0.930 . S
C4 N2 1.400 . S
C4 C5 1.351 . S
C4 H21 0.930 . S
C5 N1 1.389 . S
C5 C4 1.351 . S
C5 H10 0.930 . S
O6 Cu0 1.974 . S
O6 C16 1.282 . S
C7 O8 1.261 . S
C7 O20 1.251 . S
O8 C7 1.261 . S
H9 C3 0.930 . S
H10 C5 0.930 . S
N11 Cu0 1.985 . S
N11 C13 1.335 . S
N11 C14 1.390 1_554 S
N12 C13 1.345 . S
N12 C15 1.336 1_554 S
C13 N11 1.335 . S
C13 N12 1.345 . S
C13 H18 0.930 . S
C14 N11 1.390 1_556 S
C14 C15 1.347 . S
C14 H19 0.930 . S
C15 N12 1.336 1_556 S
C15 C14 1.347 . S
C15 H22 0.929 . S
C16 O6 1.282 . S
C16 O17 1.216 . S
O17 C16 1.216 . S
H18 C13 0.930 . S
H19 C14 0.930 . S
O20 Cu0 1.959 . S
O20 C7 1.251 . S
H21 C4 0.930 . S
H22 C15 0.929 . S
Cu23 N24 1.999 . S
Cu23 O29 1.974 . S
Cu23 N34 1.985 . S
Cu23 O43 1.959 . S
N24 Cu23 1.999 . S
N24 C26 1.263 . S
N24 C28 1.389 . S
N25 C26 1.358 . S
N25 C27 1.400 . S
C26 N24 1.263 . S
C26 N25 1.358 . S
C26 H32 0.930 . S
C27 N25 1.400 . S
C27 C28 1.351 . S
C27 H44 0.930 . S
C28 N24 1.389 . S
C28 C27 1.351 . S
C28 H33 0.930 . S
O29 Cu23 1.974 . S
O29 C39 1.282 . S
C30 O31 1.261 . S
C30 O43 1.251 . S
O31 C30 1.261 . S
H32 C26 0.930 . S
H33 C28 0.930 . S
N34 Cu23 1.985 . S
N34 C36 1.335 . S
N34 C37 1.390 . S
N35 C36 1.345 . S
N35 C38 1.336 . S
C36 N34 1.335 . S
C36 N35 1.345 . S
C36 H41 0.930 . S
C37 N34 1.390 . S
C37 C38 1.346 . S
C37 H42 0.930 . S
C38 N35 1.336 . S
C38 C37 1.346 . S
C38 H45 0.929 . S
C39 O29 1.282 . S
C39 O40 1.216 . S
O40 C39 1.216 . S
H41 C36 0.930 . S
H42 C37 0.930 . S
O43 Cu23 1.959 . S
O43 C30 1.251 . S
H44 C27 0.930 . S
H45 C38 0.929 . S
Cu46 N47 1.999 . S
Cu46 O52 1.974 . S
Cu46 N57 1.985 . S
Cu46 O66 1.959 . S
N47 Cu46 1.999 . S
N47 C49 1.263 . S
N47 C51 1.389 . S
N48 C49 1.358 . S
N48 C50 1.400 . S
C49 N47 1.263 . S
C49 N48 1.358 . S
C49 H55 0.930 . S
C50 N48 1.400 . S
C50 C51 1.351 . S
C50 H67 0.930 . S
C51 N47 1.389 . S
C51 C50 1.351 . S
C51 H56 0.930 . S
O52 Cu46 1.974 . S
O52 C62 1.282 . S
C53 O54 1.261 . S
C53 O66 1.251 . S
O54 C53 1.261 . S
H55 C49 0.930 . S
H56 C51 0.930 . S
N57 Cu46 1.985 . S
N57 C59 1.335 . S
N57 C60 1.389 1_556 S
N58 C59 1.345 . S
N58 C61 1.336 1_556 S
C59 N57 1.335 . S
C59 N58 1.345 . S
C59 H64 0.930 . S
C60 N57 1.389 1_554 S
C60 C61 1.347 . S
C60 H65 0.930 . S
C61 N58 1.336 1_554 S
C61 C60 1.347 . S
C61 H68 0.929 . S
C62 O52 1.282 . S
C62 O63 1.216 . S
O63 C62 1.216 . S
H64 C59 0.930 . S
H65 C60 0.930 . S
O66 Cu46 1.959 . S
O66 C53 1.251 . S
H67 C50 0.930 . S
H68 C61 0.929 . S
Cu69 N70 1.999 . S
Cu69 O75 1.974 . S
Cu69 N80 1.985 . S
Cu69 O89 1.959 . S
N70 Cu69 1.999 . S
N70 C72 1.263 . S
N70 C74 1.389 . S
N71 C72 1.358 . S
N71 C73 1.400 . S
C72 N70 1.263 . S
C72 N71 1.358 . S
C72 H78 0.930 . S
C73 N71 1.400 . S
C73 C74 1.351 . S
C73 H90 0.930 . S
C74 N70 1.389 . S
C74 C73 1.351 . S
C74 H79 0.930 . S
O75 Cu69 1.974 . S
O75 C85 1.282 . S
C76 O77 1.261 . S
C76 O89 1.251 . S
O77 C76 1.261 . S
H78 C72 0.930 . S
H79 C74 0.930 . S
N80 Cu69 1.985 . S
N80 C82 1.335 1_545 S
N80 C83 1.390 . S
N81 C82 1.345 . S
N81 C84 1.336 . S
C82 N80 1.335 1_565 S
C82 N81 1.345 . S
C82 H87 0.930 . S
C83 N80 1.390 . S
C83 C84 1.346 1_545 S
C83 H88 0.930 . S
C84 N81 1.336 . S
C84 C83 1.346 1_565 S
C84 H91 0.929 . S
C85 O75 1.282 . S
C85 O86 1.216 . S
O86 C85 1.216 . S
H87 C82 0.930 . S
H88 C83 0.930 . S
O89 Cu69 1.959 . S
O89 C76 1.251 . S
H90 C73 0.930 . S
H91 C84 0.929 . S
Cu92 N93 1.999 . S
Cu92 O98 1.974 1_556 S
Cu92 N103 1.985 1_566 S
Cu92 O112 1.959 . S
N93 Cu92 1.999 . S
N93 C95 1.263 . S
N93 C97 1.389 . S
N94 C95 1.358 . S
N94 C96 1.400 . S
C95 N93 1.263 . S
C95 N94 1.358 . S
C95 H101 0.930 . S
C96 N94 1.400 . S
C96 C97 1.351 . S
C96 H113 0.930 . S
C97 N93 1.389 . S
C97 C96 1.351 . S
C97 H102 0.930 . S
O98 Cu92 1.974 1_554 S
O98 C108 1.279 1_564 S
C99 O100 1.261 1_565 S
C99 O112 1.251 . S
O100 C99 1.261 1_545 S
H101 C95 0.930 . S
H102 C97 0.930 . S
N103 Cu92 1.985 1_544 S
N103 C105 1.332 1_545 S
N103 C106 1.390 . S
N104 C105 1.338 1_545 S
N104 C107 1.336 . S
C105 N103 1.332 1_565 S
C105 N104 1.338 1_565 S
C105 H110 0.938 . S
C106 N103 1.390 . S
C106 C107 1.346 . S
C106 H111 0.930 . S
C107 N104 1.336 . S
C107 C106 1.346 . S
C107 H114 0.929 . S
C108 O98 1.279 1_546 S
C108 O109 1.218 . S
O109 C108 1.218 . S
H110 C105 0.938 . S
H111 C106 0.930 . S
O112 Cu92 1.959 . S
O112 C99 1.251 . S
H113 C96 0.930 . S
H114 C107 0.929 . S
Cu115 N116 1.999 . S
Cu115 O121 1.974 . S
Cu115 N126 1.985 . S
Cu115 O135 1.959 1_565 S
N116 Cu115 1.999 . S
N116 C118 1.263 . S
N116 C120 1.389 1_565 S
N117 C118 1.358 . S
N117 C119 1.400 . S
C118 N116 1.263 . S
C118 N117 1.358 . S
C118 H124 0.930 . S
C119 N117 1.400 . S
C119 C120 1.351 1_565 S
C119 H136 0.930 1_565 S
C120 N116 1.389 1_545 S
C120 C119 1.351 1_545 S
C120 H125 0.930 . S
O121 Cu115 1.974 . S
O121 C131 1.282 . S
C122 O123 1.261 . S
C122 O135 1.251 1_565 S
O123 C122 1.261 . S
H124 C118 0.930 . S
H125 C120 0.930 . S
N126 Cu115 1.985 . S
N126 C128 1.335 1_565 S
N126 C129 1.390 . S
N127 C128 1.345 . S
N127 C130 1.336 1_545 S
C128 N126 1.335 1_545 S
C128 N127 1.345 . S
C128 H133 0.930 . S
C129 N126 1.390 . S
C129 C130 1.346 . S
C129 H134 0.930 . S
C130 N127 1.336 1_565 S
C130 C129 1.346 . S
C130 H137 0.929 . S
C131 O121 1.282 . S
C131 O132 1.216 . S
O132 C131 1.216 . S
H133 C128 0.930 . S
H134 C129 0.930 . S
O135 Cu115 1.959 1_545 S
O135 C122 1.251 1_545 S
H136 C119 0.930 1_545 S
H137 C130 0.929 . S
Cu138 N139 1.999 . S
Cu138 O144 1.974 1_554 S
Cu138 N149 1.985 1_554 S
Cu138 O158 1.959 . S
N139 Cu138 1.999 . S
N139 C141 1.263 . S
N139 C143 1.389 . S
N140 C141 1.358 . S
N140 C142 1.400 . S
C141 N139 1.263 . S
C141 N140 1.358 . S
C141 H147 0.930 . S
C142 N140 1.400 . S
C142 C143 1.351 . S
C142 H159 0.930 . S
C143 N139 1.389 . S
C143 C142 1.351 . S
C143 H148 0.930 . S
O144 Cu138 1.974 1_556 S
O144 C154 1.282 1_556 S
C145 O146 1.261 . S
C145 O158 1.251 . S
O146 C145 1.261 . S
H147 C141 0.930 . S
H148 C143 0.930 . S
N149 Cu138 1.985 1_556 S
N149 C151 1.335 . S
N149 C152 1.390 . S
N150 C151 1.345 . S
N150 C153 1.336 . S
C151 N149 1.335 . S
C151 N150 1.345 . S
C151 H156 0.930 . S
C152 N149 1.390 . S
C152 C153 1.346 . S
C152 H157 0.930 . S
C153 N150 1.336 . S
C153 C152 1.346 . S
C153 H160 0.929 . S
C154 O144 1.282 1_554 S
C154 O155 1.218 . S
O155 C154 1.218 . S
H156 C151 0.930 . S
H157 C152 0.930 . S
O158 Cu138 1.959 . S
O158 C145 1.251 . S
H159 C142 0.930 . S
H160 C153 0.929 . S
Cu161 N162 1.999 . S
Cu161 O167 1.974 . S
Cu161 N172 1.985 . S
Cu161 O181 1.959 . S
N162 Cu161 1.999 . S
N162 C164 1.263 . S
N162 C166 1.389 . S
N163 C164 1.358 . S
N163 C165 1.400 . S
C164 N162 1.263 . S
C164 N163 1.358 . S
C164 H170 0.930 . S
C165 N163 1.400 . S
C165 C166 1.351 . S
C165 H182 0.930 . S
C166 N162 1.389 . S
C166 C165 1.351 . S
C166 H171 0.930 . S
O167 Cu161 1.974 . S
O167 C177 1.282 . S
C168 O169 1.261 . S
C168 O181 1.251 . S
O169 C168 1.261 . S
H170 C164 0.930 . S
H171 C166 0.930 . S
N172 Cu161 1.985 . S
N172 C174 1.335 . S
N172 C175 1.390 . S
N173 C174 1.345 . S
N173 C176 1.336 . S
C174 N172 1.335 . S
C174 N173 1.345 . S
C174 H179 0.930 . S
C175 N172 1.390 . S
C175 C176 1.346 . S
C175 H180 0.930 . S
C176 N173 1.336 . S
C176 C175 1.346 . S
C176 H183 0.929 . S
C177 O167 1.282 . S
C177 O178 1.216 . S
O178 C177 1.216 . S
H179 C174 0.930 . S
H180 C175 0.930 . S
O181 Cu161 1.959 . S
O181 C168 1.251 . S
H182 C165 0.930 . S
H183 C176 0.929 . S
C184 C185 1.387 . S
C184 H188 0.950 . S
C184 C193 1.390 . S
C185 C184 1.387 . S
C185 C187 1.387 . S
H186 C193 0.950 . S
C187 C185 1.387 . S
C187 C189 1.390 . S
C187 H191 0.950 . S
H188 C184 0.950 . S
C189 C187 1.390 . S
C189 C190 1.387 . S
C189 H192 0.950 1_556 S
C190 C189 1.387 . S
C190 C193 1.387 . S
H191 C187 0.950 . S
H192 C189 0.950 1_554 S
C193 C184 1.390 . S
C193 H186 0.950 . S
C193 C190 1.387 . S
C194 C195 1.387 . S
C194 H198 0.950 . S
C194 C203 1.390 . S
C195 C194 1.387 . S
C195 C197 1.387 . S
H196 C203 0.950 . S
C197 C195 1.387 . S
C197 C199 1.390 . S
C197 H201 0.950 . S
H198 C194 0.950 . S
C199 C197 1.390 . S
C199 C200 1.387 . S
C199 H202 0.950 . S
C200 C199 1.387 . S
C200 C203 1.387 . S
H201 C197 0.950 . S
H202 C199 0.950 . S
C203 C194 1.390 . S
C203 H196 0.950 . S
C203 C200 1.387 . S
C204 C205 1.387 . S
C204 H208 0.950 . S
C204 C213 1.390 . S
C205 C204 1.387 . S
C205 C207 1.387 . S
H206 C213 0.950 1_565 S
C207 C205 1.387 . S
C207 C209 1.390 . S
C207 H211 0.950 . S
H208 C204 0.950 . S
C209 C207 1.390 . S
C209 C210 1.387 . S
C209 H212 0.950 1_554 S
C210 C209 1.387 . S
C210 C213 1.387 . S
H211 C207 0.950 . S
H212 C209 0.950 1_556 S
C213 C204 1.390 . S
C213 H206 0.950 1_545 S
C213 C210 1.387 . S
C214 C215 1.387 . S
C214 H218 0.950 1_545 S
C214 C223 1.390 . S
C215 C214 1.387 . S
C215 C217 1.387 . S
H216 C223 0.950 1_565 S
C217 C215 1.387 . S
C217 C219 1.390 . S
C217 H221 0.950 . S
H218 C214 0.950 1_565 S
C219 C217 1.390 . S
C219 C220 1.387 . S
C219 H222 0.950 . S
C220 C219 1.387 . S
C220 C223 1.387 . S
H221 C217 0.950 . S
H222 C219 0.950 . S
C223 C214 1.390 . S
C223 H216 0.950 1_545 S
C223 C220 1.387 . S
C224 C225 1.387 . S
C224 H228 0.950 . S
C224 C233 1.390 . S
C225 C224 1.387 . S
C225 C227 1.387 1_545 S
H226 C233 0.950 . S
C227 C225 1.387 1_565 S
C227 C229 1.390 . S
C227 H231 0.950 . S
H228 C224 0.950 . S
C229 C227 1.390 . S
C229 C230 1.387 1_565 S
C229 H232 0.950 . S
C230 C229 1.387 1_545 S
C230 C233 1.387 . S
H231 C227 0.950 . S
H232 C229 0.950 . S
C233 C224 1.390 . S
C233 H226 0.950 . S
C233 C230 1.387 . S
C234 C235 1.387 1_565 S
C234 H238 0.950 . S
C234 C243 1.390 . S
C235 C234 1.387 1_545 S
C235 C237 1.387 . S
H236 C243 0.950 . S
C237 C235 1.387 . S
C237 C239 1.390 . S
C237 H241 0.950 . S
H238 C234 0.950 . S
C239 C237 1.390 . S
C239 C240 1.387 1_545 S
C239 H242 0.950 . S
C240 C239 1.387 1_565 S
C240 C243 1.387 . S
H241 C237 0.950 . S
H242 C239 0.950 . S
C243 C234 1.390 . S
C243 H236 0.950 . S
C243 C240 1.387 . S
C244 C245 1.387 . S
C244 H248 0.950 . S
C244 C253 1.390 . S
C245 C244 1.387 . S
C245 C247 1.387 . S
H246 C253 0.950 . S
C247 C245 1.387 . S
C247 C249 1.390 . S
C247 H251 0.950 . S
H248 C244 0.950 . S
C249 C247 1.390 . S
C249 C250 1.387 . S
C249 H252 0.950 . S
C250 C249 1.387 . S
C250 C253 1.387 . S
H251 C247 0.950 . S
H252 C249 0.950 . S
C253 C244 1.390 . S
C253 H246 0.950 . S
C253 C250 1.387 . S
C254 C255 1.387 . S
C254 H258 0.950 . S
C254 C263 1.390 . S
C255 C254 1.387 . S
C255 C257 1.387 . S
H256 C263 0.950 . S
C257 C255 1.387 . S
C257 C259 1.390 . S
C257 H261 0.950 . S
H258 C254 0.950 . S
C259 C257 1.390 . S
C259 C260 1.387 . S
C259 H262 0.950 . S
C260 C259 1.387 . S
C260 C263 1.387 . S
H261 C257 0.950 . S
H262 C259 0.950 . S
C263 C254 1.390 . S
C263 H256 0.950 . S
C263 C260 1.387 . S
C264 C265 1.387 . S
C264 H268 0.950 . S
C264 C273 1.390 1_455 S
C265 C264 1.387 . S
C265 C267 1.387 . S
H266 C273 0.950 . S
C267 C265 1.387 . S
C267 C269 1.390 1_455 S
C267 H271 0.950 . S
H268 C264 0.950 . S
C269 C267 1.390 1_655 S
C269 C270 1.387 . S
C269 H272 0.950 . S
C270 C269 1.387 . S
C270 C273 1.387 . S
H271 C267 0.950 . S
H272 C269 0.950 . S
C273 C264 1.390 1_655 S
C273 H266 0.950 . S
C273 C270 1.387 . S
C274 C275 1.387 . S
C274 H278 0.950 . S
C274 C283 1.390 . S
C275 C274 1.387 . S
C275 C277 1.387 . S
H276 C283 0.950 . S
C277 C275 1.387 . S
C277 C279 1.390 . S
C277 H281 0.950 . S
H278 C274 0.950 . S
C279 C277 1.390 . S
C279 C280 1.387 . S
C279 H282 0.950 . S
C280 C279 1.387 . S
C280 C283 1.387 . S
H281 C277 0.950 . S
H282 C279 0.950 . S
C283 C274 1.390 . S
C283 H276 0.950 . S
C283 C280 1.387 . S
C284 C285 1.378 1_655 S
C284 H288 0.942 1_655 S
C284 C293 1.408 . S
C285 C284 1.378 1_455 S
C285 C287 1.389 . S
H286 C293 0.950 . S
C287 C285 1.389 . S
C287 C289 1.388 1_455 S
C287 H291 0.951 . S
H288 C284 0.942 1_455 S
C289 C287 1.388 1_655 S
C289 C290 1.387 . S
C289 H292 0.950 . S
C290 C289 1.387 . S
C290 C293 1.387 . S
H291 C287 0.951 . S
H292 C289 0.950 . S
C293 C284 1.408 . S
C293 H286 0.950 . S
C293 C290 1.387 . S
C294 C295 1.387 . S
C294 H298 0.950 . S
C294 C303 1.390 . S
C295 C294 1.387 . S
C295 C297 1.387 . S
H296 C303 0.950 . S
C297 C295 1.387 . S
C297 C299 1.390 . S
C297 H301 0.950 . S
H298 C294 0.950 . S
C299 C297 1.390 . S
C299 C300 1.387 . S
C299 H302 0.950 . S
C300 C299 1.387 . S
C300 C303 1.387 . S
H301 C297 0.950 . S
H302 C299 0.950 . S
C303 C294 1.390 . S
C303 H296 0.950 . S
C303 C300 1.387 . S
C304 C305 1.381 1_554 S
C304 H308 0.950 . S
C304 C313 1.390 1_455 S
C305 C304 1.381 1_556 S
C305 C307 1.393 . S
H306 C313 0.950 . S
C307 C305 1.393 . S
C307 C309 1.390 1_455 S
C307 H311 0.950 . S
H308 C304 0.950 . S
C309 C307 1.390 1_655 S
C309 C310 1.387 1_556 S
C309 H312 0.950 . S
C310 C309 1.387 1_554 S
C310 C313 1.387 . S
H311 C307 0.950 . S
H312 C309 0.950 . S
C313 C304 1.390 1_655 S
C313 H306 0.950 . S
C313 C310 1.387 . S
C314 C315 1.387 . S
C314 H318 0.950 . S
C314 C323 1.390 . S
C315 C314 1.387 . S
C315 C317 1.387 . S
H316 C323 0.950 . S
C317 C315 1.387 . S
C317 C319 1.390 . S
C317 H321 0.950 . S
H318 C314 0.950 . S
C319 C317 1.390 . S
C319 C320 1.387 . S
C319 H322 0.950 . S
C320 C319 1.387 . S
C320 C323 1.387 . S
H321 C317 0.950 . S
H322 C319 0.950 . S
C323 C314 1.390 . S
C323 H316 0.950 . S
C323 C320 1.387 . S
C324 C325 1.387 . S
C324 H328 0.950 . S
C324 C333 1.390 . S
C325 C324 1.387 . S
C325 C327 1.387 1_556 S
H326 C333 0.950 . S
C327 C325 1.387 1_554 S
C327 C329 1.390 . S
C327 H331 0.950 . S
H328 C324 0.950 . S
C329 C327 1.390 . S
C329 C330 1.393 . S
C329 H332 0.950 . S
C330 C329 1.393 . S
C330 C333 1.381 1_554 S
H331 C327 0.950 . S
H332 C329 0.950 . S
C333 C324 1.390 . S
C333 H326 0.950 . S
C333 C330 1.381 1_556 S
C334 C335 1.387 . S
C334 H338 0.950 . S
C334 C343 1.390 . S
C335 C334 1.387 . S
C335 C337 1.387 . S
H336 C343 0.959 . S
C337 C335 1.387 . S
C337 C339 1.390 . S
C337 H341 0.950 . S
H338 C334 0.950 . S
C339 C337 1.390 . S
C339 C340 1.387 1_455 S
C339 H342 0.950 1_455 S
C340 C339 1.387 1_655 S
C340 C343 1.387 1_655 S
H341 C337 0.950 . S
H342 C339 0.950 1_655 S
C343 C334 1.390 . S
C343 H336 0.959 . S
C343 C340 1.387 1_455 S
C185 N25 1.850 . S
C190 C16 2.068 1_556 S
C195 N2 1.746 . S
C200 C39 1.799 . S
C205 N71 1.850 . S
C210 C62 2.068 1_554 S
C215 N48 1.748 . S
C220 C85 1.801 . S
C225 N104 1.843 . S
C230 C122 1.889 1_545 S
C235 N127 1.722 . S
C240 C99 1.824 . S
C245 N150 1.846 . S
C250 C168 1.890 . S
C255 C145 1.826 . S
C260 N173 1.725 . S
C265 C7 1.538 . S
C270 C76 1.552 . S
C275 C30 1.555 . S
C280 C53 1.541 . S
C285 N163 1.605 . S
C290 N94 1.351 . S
C295 N140 1.347 . S
C300 N117 1.604 . S
C305 N12 1.512 1_556 S
C310 C108 1.425 1_554 S
C315 C131 1.569 . S
C320 N35 1.655 . S
C325 C154 1.425 1_556 S
C330 N58 1.512 1_554 S
C335 C177 1.569 . S
C340 N81 1.655 . S
