# Generated by pormake.
# Topology sra, (4)-cn, num edge types: 1
# Building blocks:
#     Node 0, Type 0, BuildingBlock: AZAVOO_clean_sbu_0, # of connection points: 4
#     Node 1, Type 0, BuildingBlock: AZAVOO_clean_sbu_0, # of connection points: 4
#     Node 2, Type 0, BuildingBlock: AZAVOO_clean_sbu_0, # of connection points: 4
#     Node 3, Type 0, BuildingBlock: AZAVOO_clean_sbu_0, # of connection points: 4
#     Node 4, Type 0, BuildingBlock: AZAVOO_clean_sbu_0, # of connection points: 4
#     Node 5, Type 0, BuildingBlock: AZAVOO_clean_sbu_0, # of connection points: 4
#     Node 6, Type 0, BuildingBlock: AZAVOO_clean_sbu_0, # of connection points: 4
#     Node 7, Type 0, BuildingBlock: AZAVOO_clean_sbu_0, # of connection points: 4
#     Edge 8, Type (0, 0), BuildingBlock: TEMPAE_clean_linker_10, # of connection points: 2
#     Edge 9, Type (0, 0), BuildingBlock: TEMPAE_clean_linker_10, # of connection points: 2
#     Edge 10, Type (0, 0), BuildingBlock: TEMPAE_clean_linker_10, # of connection points: 2
#     Edge 11, Type (0, 0), BuildingBlock: TEMPAE_clean_linker_10, # of connection points: 2
#     Edge 12, Type (0, 0), BuildingBlock: TEMPAE_clean_linker_10, # of connection points: 2
#     Edge 13, Type (0, 0), BuildingBlock: TEMPAE_clean_linker_10, # of connection points: 2
#     Edge 14, Type (0, 0), BuildingBlock: TEMPAE_clean_linker_10, # of connection points: 2
#     Edge 15, Type (0, 0), BuildingBlock: TEMPAE_clean_linker_10, # of connection points: 2
#     Edge 16, Type (0, 0), BuildingBlock: TEMPAE_clean_linker_10, # of connection points: 2
#     Edge 17, Type (0, 0), BuildingBlock: TEMPAE_clean_linker_10, # of connection points: 2
#     Edge 18, Type (0, 0), BuildingBlock: TEMPAE_clean_linker_10, # of connection points: 2
#     Edge 19, Type (0, 0), BuildingBlock: TEMPAE_clean_linker_10, # of connection points: 2
#     Edge 20, Type (0, 0), BuildingBlock: TEMPAE_clean_linker_10, # of connection points: 2
#     Edge 21, Type (0, 0), BuildingBlock: TEMPAE_clean_linker_10, # of connection points: 2
#     Edge 22, Type (0, 0), BuildingBlock: TEMPAE_clean_linker_10, # of connection points: 2
#     Edge 23, Type (0, 0), BuildingBlock: TEMPAE_clean_linker_10, # of connection points: 2
# Relax obj value: 0.077
# Max RMSD: 0.074
# Mean RMSD: 0.074
data_MOF--net-sra--node1-AZAVOO_clean_sbu_0--edge1-TEMPAE_clean_linker_10
_symmetry_space_group_name_H-M    P1
_symmetry_Int_Tables_number       1
_symmetry_cell_setting            triclinic
loop_
_symmetry_equiv_pos_as_xyz
'x, y, z'
_cell_length_a     27.345676
_cell_length_b     39.410064
_cell_length_c     44.706204
_cell_angle_alpha  90.080052
_cell_angle_beta   89.987121
_cell_angle_gamma 89.92074
loop_
_atom_site_label
_atom_site_type_symbol
_atom_site_fract_x
_atom_site_fract_y
_atom_site_fract_z
_atom_type_partial_charge
Mg0 Mg 0.00628 0.03685 0.17186 0.0
O1 O 0.02119 0.09323 0.16423 0.0
O2 O 0.09694 0.09849 0.14603 0.0
Mg3 Mg 0.13081 0.04519 0.14329 0.0
C4 C 0.05637 0.11144 0.15452 0.0
C5 C 0.90474 0.02236 0.19167 0.0
O6 O 0.93036 0.99488 0.19738 0.0
O7 O -0.00277 0.02929 0.12165 0.0
O8 O 0.07551 0.03056 0.10681 0.0
O9 O 0.03642 0.04173 0.21777 0.0
O10 O 0.08005 0.02776 0.17783 0.0
C11 C 0.02999 0.02646 0.10146 0.0
C12 C 0.07854 0.03525 0.20584 0.0
O13 O 0.92576 0.04698 0.17869 0.0
Mg14 Mg 0.00752 0.44263 0.15804 0.0
O15 O 0.011 0.3846 0.15235 0.0
O16 O 0.94465 0.36912 0.12648 0.0
Mg17 Mg 0.89769 0.41593 0.11751 0.0
C18 C 0.98469 0.36191 0.13974 0.0
C19 C 0.09459 0.46217 0.19604 0.0
O20 O 0.05781 0.47877 0.2081 0.0
O21 O 0.02768 0.45051 0.10915 0.0
O22 O 0.95757 0.43677 0.08645 0.0
O23 O 0.96683 0.43735 0.20072 0.0
O24 O 0.93168 0.44069 0.15623 0.0
C25 C 0.00162 0.44758 0.08559 0.0
C26 C 0.92746 0.43669 0.18469 0.0
O27 O 0.08671 0.44406 0.173 0.0
Mg28 Mg 0.98966 0.97765 0.81359 0.0
O29 O 0.01031 0.9223 0.82241 0.0
O30 O 0.08848 0.92035 0.83696 0.0
Mg31 Mg 0.11752 0.975 0.83715 0.0
C32 C 0.04809 0.90571 0.83069 0.0
C33 C 0.8838 0.98609 0.79814 0.0
O34 O 0.9047 0.01462 0.78996 0.0
O35 O 0.98546 0.98747 0.8637 0.0
O36 O 0.06507 0.98892 0.87543 0.0
O37 O 0.0149 0.97061 0.7669 0.0
O38 O 0.06194 0.98876 0.80399 0.0
C39 C 0.01998 0.99195 0.88248 0.0
C40 C 0.05792 0.97848 0.77676 0.0
O41 O 0.90972 0.96369 0.81097 0.0
Mg42 Mg 0.03167 0.5726 0.82115 0.0
O43 O 0.03175 0.63077 0.82741 0.0
O44 O 0.96103 0.64375 0.84997 0.0
Mg45 Mg 0.91474 0.59608 0.85539 0.0
C46 C 0.00238 0.65235 0.83909 0.0
C47 C 0.12561 0.54441 0.79727 0.0
O48 O 0.09246 0.52093 0.79238 0.0
O49 O 0.04451 0.56448 0.87099 0.0
O50 O 0.97032 0.57592 0.88952 0.0
O51 O -0.00272 0.57706 0.77621 0.0
O52 O 0.95613 0.57311 0.81864 0.0
C53 C 0.01462 0.56624 0.89288 0.0
C54 C 0.95571 0.57675 0.79005 0.0
O55 O 0.11278 0.57142 0.81073 0.0
Mg56 Mg 0.55075 0.53191 0.66745 0.0
O57 O 0.54516 0.58988 0.66371 0.0
O58 O 0.6116 0.60898 0.63999 0.0
Mg59 Mg 0.66005 0.56362 0.6288 0.0
C60 C 0.57059 0.61411 0.65288 0.0
C61 C 0.46227 0.51865 0.70795 0.0
O62 O 0.49864 0.50667 0.72398 0.0
O63 O 0.53115 0.52674 0.61801 0.0
O64 O 0.60023 0.54513 0.59672 0.0
O65 O 0.59127 0.53681 0.71044 0.0
O66 O 0.62654 0.53581 0.66588 0.0
C67 C 0.55686 0.53325 0.59487 0.0
C68 C 0.63034 0.53969 0.69436 0.0
O69 O 0.47112 0.53008 0.68194 0.0
Mg70 Mg 0.46994 0.93531 0.6659 0.0
O71 O 0.47025 0.87746 0.66223 0.0
O72 O 0.40726 0.86149 0.63375 0.0
Mg73 Mg 0.36668 0.90939 0.61909 0.0
C74 C 0.44471 0.85445 0.64962 0.0
C75 C 0.54942 0.9439 0.71346 0.0
O76 O 0.50979 0.95368 0.72769 0.0
O77 O 0.5004 0.93991 0.61857 0.0
O78 O 0.43425 0.92533 0.59214 0.0
O79 O 0.41953 0.9321 0.70487 0.0
O80 O 0.39509 0.93699 0.65796 0.0
C81 C 0.47879 0.93505 0.5936 0.0
C82 C 0.3841 0.93368 0.68575 0.0
O83 O 0.5458 0.93408 0.68646 0.0
Mg84 Mg 0.52627 0.44906 0.31611 0.0
O85 O 0.52684 0.39092 0.32104 0.0
O86 O 0.5993 0.37623 0.3404 0.0
Mg87 Mg 0.64525 0.42383 0.34679 0.0
C88 C 0.55682 0.36853 0.33069 0.0
C89 C 0.43095 0.4705 0.28788 0.0
O90 O 0.4635 0.49153 0.2768 0.0
O91 O 0.51583 0.45451 0.36653 0.0
O92 O 0.59054 0.44066 0.38285 0.0
O93 O 0.55811 0.44528 0.27035 0.0
O94 O 0.60162 0.44836 0.31203 0.0
C95 C 0.54658 0.45028 0.38771 0.0
C96 C 0.60024 0.44439 0.28348 0.0
O97 O 0.44474 0.44882 0.30712 0.0
Mg98 Mg 0.48749 0.0425 0.32945 0.0
O99 O 0.48568 0.10027 0.33425 0.0
O100 O 0.41926 0.11496 0.36034 0.0
Mg101 Mg 0.37942 0.0662 0.37315 0.0
C102 C 0.45799 0.12274 0.34599 0.0
C103 C 0.57026 0.03558 0.28441 0.0
O104 O 0.53204 0.02396 0.26988 0.0
O105 O 0.5138 0.03662 0.3776 0.0
O106 O 0.44512 0.0505 0.40188 0.0
O107 O 0.44124 0.0473 0.28892 0.0
O108 O 0.41183 0.04007 0.33459 0.0
C109 C 0.48985 0.04102 0.40184 0.0
C110 C 0.40394 0.04524 0.3066 0.0
O111 O 0.56488 0.04554 0.31127 0.0
C112 C 0.03397 0.31484 0.16255 0.0
C113 C 0.00014 0.32588 0.14105 0.0
C114 C 0.04625 0.28033 0.16513 0.0
C115 C 0.02472 0.25643 0.14546 0.0
C116 C -0.00821 0.26759 0.12312 0.0
C117 C 0.97965 0.3021 0.12132 0.0
C118 C 0.08113 0.26932 0.18943 0.0
C119 C 0.96859 0.24296 0.10145 0.0
C120 C 0.08121 0.16888 0.13581 0.0
C121 C 0.04965 0.14874 0.15303 0.0
C122 C 0.07401 0.20408 0.13346 0.0
C123 C 0.03472 0.21954 0.14899 0.0
C124 C 0.00349 0.19948 0.16697 0.0
C125 C 0.01112 0.16433 0.16861 0.0
C126 C 0.10772 0.2246 0.1138 0.0
C127 C 0.96152 0.21508 0.18416 0.0
H128 H 0.04983 0.33302 0.17794 0.0
H129 H 0.95385 0.31045 0.10445 0.0
H130 H 0.0619 0.25239 0.20537 0.0
H131 H 0.11183 0.25457 0.17969 0.0
H132 H 0.09636 0.29118 0.20205 0.0
H133 H 0.94599 0.25598 0.08429 0.0
H134 H -0.00275 0.22785 0.08994 0.0
H135 H 0.94499 0.2249 0.11381 0.0
H136 H 0.11099 0.15705 0.12364 0.0
H137 H 0.98681 0.14904 0.18219 0.0
H138 H 0.12418 0.24568 0.1268 0.0
H139 H 0.08653 0.23615 0.09525 0.0
H140 H 0.13761 0.20897 0.10408 0.0
H141 H 0.97506 0.23592 0.19866 0.0
H142 H 0.94222 0.19625 0.19836 0.0
H143 H 0.93476 0.2263 0.16835 0.0
C144 C 0.00792 0.85094 0.81692 0.0
C145 C 0.04517 0.8682 0.83221 0.0
C146 C 0.00458 0.81546 0.81787 0.0
C147 C 0.03884 0.79673 0.83493 0.0
C148 C 0.07666 0.81393 0.85035 0.0
C149 C 0.07962 0.84947 0.8486 0.0
C150 C 0.96408 0.79803 0.8008 0.0
C151 C 0.11337 0.79485 0.86914 0.0
C152 C -0.00662 0.71063 0.86028 0.0
C153 C 0.0155 0.68879 0.83948 0.0
C154 C 0.0023 0.74564 0.85978 0.0
C155 C 0.03348 0.75929 0.8376 0.0
C156 C 0.05697 0.73731 0.81699 0.0
C157 C 0.04803 0.70222 0.81834 0.0
C158 C 0.97724 0.76813 0.8825 0.0
C159 C 0.08996 0.751 0.79278 0.0
H160 H 0.98147 0.86517 0.80392 0.0
H161 H 0.10845 0.86263 0.86052 0.0
H162 H 0.97964 0.77856 0.78557 0.0
H163 H 0.93941 0.78476 0.81662 0.0
H164 H 0.94198 0.81612 0.78736 0.0
H165 H 0.14136 0.81188 0.87908 0.0
H166 H 0.09423 0.78138 0.8875 0.0
H167 H 0.13217 0.77534 0.85541 0.0
H168 H 0.96862 0.70036 0.87691 0.0
H169 H 0.06509 0.68548 0.80214 0.0
H170 H 0.95079 0.78506 0.87104 0.0
H171 H 0.00442 0.78454 0.89389 0.0
H172 H 0.95726 0.75328 0.8997 0.0
H173 H 0.06835 0.7671 0.77729 0.0
H174 H 0.10771 0.73045 0.77964 0.0
H175 H 0.11881 0.76728 0.80266 0.0
C176 C 0.57321 0.67507 0.6376 0.0
C177 C 0.55144 0.64925 0.65457 0.0
C178 C 0.5547 0.70824 0.63806 0.0
C179 C 0.5137 0.71591 0.65618 0.0
C180 C 0.49197 0.69017 0.67375 0.0
C181 C 0.51094 0.65706 0.67261 0.0
C182 C 0.5786 0.73497 0.6188 0.0
C183 C 0.44853 0.69756 0.69359 0.0
C184 C 0.49546 0.80925 0.67387 0.0
C185 C 0.46 0.81854 0.65269 0.0
C186 C 0.51209 0.77564 0.67595 0.0
C187 C 0.49323 0.75084 0.65617 0.0
C188 C 0.45671 0.75986 0.6352 0.0
C189 C 0.44034 0.79357 0.63383 0.0
C190 C 0.55067 0.76685 0.69884 0.0
C191 C 0.43605 0.73415 0.61356 0.0
H192 H 0.60437 0.66929 0.62349 0.0
H193 H 0.49402 0.63732 0.68591 0.0
H194 H 0.55161 0.74531 0.60267 0.0
H195 H 0.59124 0.7564 0.6329 0.0
H196 H 0.61037 0.72487 0.60608 0.0
H197 H 0.43682 0.67496 0.70656 0.0
H198 H 0.45754 0.71829 0.70947 0.0
H199 H 0.41728 0.70638 0.67982 0.0
H200 H 0.51056 0.8283 0.68871 0.0
H201 H 0.413 0.80049 0.61736 0.0
H202 H 0.58486 0.7591 0.68733 0.0
H203 H 0.53853 0.74502 0.71261 0.0
H204 H 0.55904 0.7885 0.71392 0.0
H205 H 0.46552 0.72476 0.59861 0.0
H206 H 0.4063 0.74489 0.59953 0.0
H207 H 0.42153 0.71193 0.62589 0.0
C208 C 0.50078 0.32124 0.31539 0.0
C209 C 0.54163 0.33249 0.33157 0.0
C210 C 0.48602 0.28714 0.31651 0.0
C211 C 0.51233 0.26395 0.33456 0.0
C212 C 0.55349 0.27517 0.35097 0.0
C213 C 0.56782 0.30922 0.34912 0.0
C214 C 0.44232 0.27593 0.2984 0.0
C215 C 0.58211 0.25128 0.37076 0.0
C216 C 0.44998 0.18357 0.36134 0.0
C217 C 0.47105 0.15897 0.34263 0.0
C218 C 0.4627 0.21791 0.35874 0.0
C219 C 0.49676 0.22793 0.33661 0.0
C220 C 0.51744 0.20334 0.31727 0.0
C221 C 0.50462 0.16911 0.32066 0.0
C222 C 0.44044 0.24338 0.38006 0.0
C223 C 0.55344 0.21316 0.29317 0.0
H224 H 0.48049 0.33903 0.30169 0.0
H225 H 0.59922 0.3177 0.36187 0.0
H226 H 0.45298 0.25502 0.28307 0.0
H227 H 0.41354 0.26591 0.31347 0.0
H228 H 0.42651 0.29693 0.28495 0.0
H229 H 0.61304 0.2641 0.38222 0.0
H230 H 0.55765 0.24022 0.38798 0.0
H231 H 0.59686 0.22993 0.3573 0.0
H232 H 0.42415 0.17593 0.37844 0.0
H233 H 0.52072 0.1503 0.30592 0.0
H234 H 0.42158 0.26371 0.36738 0.0
H235 H 0.46971 0.25562 0.39344 0.0
H236 H 0.41379 0.23155 0.39563 0.0
H237 H 0.53736 0.23301 0.27859 0.0
H238 H 0.56433 0.19121 0.27903 0.0
H239 H 0.5868 0.22407 0.30349 0.0
C240 C 0.34479 0.06769 0.26926 0.0
C241 C 0.3539 0.04874 0.29511 0.0
C242 C 0.29786 0.06877 0.25672 0.0
C243 C 0.2599 0.04948 0.26986 0.0
C244 C 0.26866 0.03114 0.29652 0.0
C245 C 0.31554 0.03144 0.30912 0.0
C246 C 0.28941 0.08947 0.22879 0.0
C247 C 0.22942 0.00956 0.31072 0.0
C248 C 0.12829 0.06288 0.24568 0.0
C249 C 0.124 0.03854 0.22299 0.0
C250 C 0.17262 0.0671 0.26104 0.0
C251 C 0.21264 0.04569 0.25405 0.0
C252 C 0.20789 0.02053 0.23162 0.0
C253 C 0.1638 0.01767 0.21599 0.0
C254 C 0.17701 0.09486 0.28418 0.0
C255 C 0.24935 0.99659 0.22412 0.0
H256 H 0.37446 0.0814 0.25868 0.0
H257 H 0.32278 0.01669 0.3291 0.0
H258 H 0.28384 0.07227 0.20943 0.0
H259 H 0.25587 0.10513 0.23115 0.0
H260 H 0.32074 0.10643 0.22374 0.0
H261 H 0.24113 0.99888 0.33256 0.0
H262 H 0.19556 0.02457 0.31417 0.0
H263 H 0.22013 0.98824 0.2955 0.0
H264 H 0.09748 0.07923 0.25079 0.0
H265 H 0.16018 0.99874 0.1985 0.0
H266 H 0.20647 0.11271 0.27764 0.0
H267 H 0.18736 0.08393 0.30613 0.0
H268 H 0.14243 0.10938 0.28691 0.0
H269 H 0.2809 0.0111 0.21526 0.0
H270 H 0.23867 0.97726 0.20724 0.0
H271 H 0.26189 0.98333 0.24462 0.0
C272 C 0.67867 0.41372 0.27612 0.0
C273 C 0.64516 0.4382 0.26647 0.0
C274 C 0.72346 0.40939 0.26134 0.0
C275 C 0.73546 0.43105 0.23719 0.0
C276 C 0.70102 0.4553 0.22698 0.0
C277 C 0.65573 0.45812 0.24147 0.0
C278 C 0.75846 0.38239 0.27211 0.0
C279 C 0.71304 0.47953 0.20189 0.0
C280 C 0.86956 0.45047 0.22542 0.0
C281 C 0.87931 0.43302 0.19882 0.0
C282 C 0.82278 0.45001 0.23812 0.0
C283 C 0.7855 0.43052 0.22441 0.0
C284 C 0.79581 0.41164 0.19818 0.0
C285 C 0.84254 0.41365 0.18531 0.0
C286 C 0.81287 0.47127 0.26562 0.0
C287 C 0.75747 0.38955 0.18367 0.0
H288 H 0.66985 0.39799 0.29524 0.0
H289 H 0.62957 0.47712 0.23423 0.0
H290 H 0.77254 0.36737 0.25293 0.0
H291 H 0.79035 0.39448 0.28311 0.0
H292 H 0.74103 0.36485 0.28836 0.0
H293 H 0.68149 0.49594 0.19588 0.0
H294 H 0.74401 0.49601 0.20868 0.0
H295 H 0.72476 0.46534 0.1817 0.0
H296 H 0.89809 0.46566 0.23564 0.0
H297 H 0.85048 0.39982 0.16492 0.0
H298 H 0.80033 0.4549 0.28425 0.0
H299 H 0.78315 0.48971 0.26091 0.0
H300 H 0.84571 0.48549 0.27313 0.0
H301 H 0.74154 0.372 0.20043 0.0
H302 H 0.77254 0.37438 0.16483 0.0
H303 H 0.72722 0.40554 0.17505 0.0
C304 C 0.1041 0.94205 0.7411 0.0
C305 C 0.10199 0.97099 0.75926 0.0
C306 C 0.14799 0.93253 0.72714 0.0
C307 C 0.18995 0.95309 0.73087 0.0
C308 C 0.18726 0.98309 0.74827 0.0
C309 C 0.14343 0.99136 0.7627 0.0
C310 C 0.14998 0.89991 0.70944 0.0
C311 C 0.23092 0.00614 0.75212 0.0
C312 C 0.31988 0.9213 0.72375 0.0
C313 C 0.33273 0.93376 0.69553 0.0
C314 C 0.27221 0.92533 0.73474 0.0
C315 C 0.23729 0.9431 0.71736 0.0
C316 C 0.24955 0.95438 0.6883 0.0
C317 C 0.29708 0.94916 0.67756 0.0
C318 C 0.25993 0.91208 0.76551 0.0
C319 C 0.2136 0.97401 0.66937 0.0
H320 H 0.07207 0.92604 0.73891 0.0
H321 H 0.14153 0.01374 0.77679 0.0
H322 H 0.16418 0.9047 0.6866 0.0
H323 H 0.17558 0.88194 0.7204 0.0
H324 H 0.11357 0.8876 0.70761 0.0
H325 H 0.22166 0.02968 0.7646 0.0
H326 H 0.26026 0.99261 0.76441 0.0
H327 H 0.2459 0.0133 0.72994 0.0
H328 H 0.34735 0.90907 0.73752 0.0
H329 H 0.30704 0.95892 0.65573 0.0
H330 H 0.22472 0.89812 0.76507 0.0
H331 H 0.25561 0.93367 0.78124 0.0
H332 H 0.28883 0.89496 0.77432 0.0
H333 H 0.17806 0.96058 0.66816 0.0
H334 H 0.22727 0.97814 0.64626 0.0
H335 H 0.20667 0.99912 0.67983 0.0
C336 C 0.7049 0.57561 0.6964 0.0
C337 C 0.67713 0.54894 0.70807 0.0
C338 C 0.75009 0.58425 0.70912 0.0
C339 C 0.76834 0.56486 0.73331 0.0
C340 C 0.74017 0.53787 0.74513 0.0
C341 C 0.69432 0.53066 0.73268 0.0
C342 C 0.77826 0.61398 0.6967 0.0
C343 C 0.759 0.51602 0.77037 0.0
C344 C 0.90481 0.55972 0.74679 0.0
C345 C 0.90937 0.57797 0.77351 0.0
C346 C 0.85915 0.55594 0.73297 0.0
C347 C 0.81761 0.57184 0.74572 0.0
C348 C 0.82276 0.59223 0.77163 0.0
C349 C 0.86858 0.59453 0.78558 0.0
C350 C 0.85492 0.53327 0.70583 0.0
C351 C 0.77964 0.61061 0.78519 0.0
H352 H 0.69092 0.59006 0.67766 0.0
H353 H 0.67257 0.50999 0.74153 0.0
H354 H 0.78767 0.63192 0.71497 0.0
H355 H 0.81313 0.60505 0.68676 0.0
H356 H 0.75733 0.62788 0.67929 0.0
H357 H 0.73291 0.4956 0.77654 0.0
H358 H 0.79427 0.50416 0.76383 0.0
H359 H 0.76605 0.53183 0.79044 0.0
H360 H 0.93644 0.5467 0.73766 0.0
H361 H 0.87241 0.60903 0.80605 0.0
H362 H 0.83683 0.54697 0.68722 0.0
H363 H 0.83177 0.51101 0.7113 0.0
H364 H 0.89108 0.52398 0.69795 0.0
H365 H 0.75918 0.62459 0.76765 0.0
H366 H 0.79098 0.62883 0.80285 0.0
H367 H 0.75413 0.59199 0.79525 0.0
C368 C 0.60102 0.95773 0.75789 0.0
C369 C 0.59765 0.94631 0.72822 0.0
C370 C 0.64659 0.96246 0.77161 0.0
C371 C 0.68975 0.95564 0.75523 0.0
C372 C 0.68662 0.943 0.72563 0.0
C373 C 0.64054 0.93846 0.71247 0.0
C374 C 0.64856 0.97585 0.80326 0.0
C375 C 0.73195 0.9354 0.70751 0.0
C376 C 0.80533 0.00369 0.7744 0.0
C377 C 0.83263 0.97899 0.78958 0.0
C378 C 0.75837 0.99656 0.76364 0.0
C379 C 0.73818 0.96394 0.76823 0.0
C380 C 0.76485 0.93919 0.78434 0.0
C381 C 0.81186 0.94702 0.79485 0.0
C382 C 0.73089 0.02367 0.74666 0.0
C383 C 0.74426 0.90421 0.78976 0.0
H384 H 0.56803 0.96365 0.7703 0.0
H385 H 0.63822 0.92947 0.68959 0.0
H386 H 0.67216 0.9594 0.81729 0.0
H387 H 0.665 0.00158 0.80334 0.0
H388 H 0.61175 0.97739 0.81369 0.0
H389 H 0.72323 0.9237 0.68553 0.0
H390 H 0.75255 0.95921 0.70353 0.0
H391 H 0.75642 0.91801 0.72003 0.0
H392 H 0.82104 0.0285 0.77034 0.0
H393 H 0.83275 0.92781 0.8066 0.0
H394 H 0.69465 0.02816 0.75711 0.0
H395 H 0.72429 0.01509 0.72336 0.0
H396 H 0.75107 0.04811 0.74595 0.0
H397 H 0.70782 0.90609 0.80056 0.0
H398 H 0.76851 0.88851 0.80411 0.0
H399 H 0.7391 0.89094 0.76809 0.0
C400 C 0.37386 0.5348 0.70436 0.0
C401 C 0.41261 0.52106 0.72096 0.0
C402 C 0.32721 0.5386 0.71703 0.0
C403 C 0.31921 0.52845 0.747 0.0
C404 C 0.35805 0.51433 0.7638 0.0
C405 C 0.40426 0.51075 0.75056 0.0
C406 C 0.28654 0.55362 0.69841 0.0
C407 C 0.35086 0.50321 0.79582 0.0
C408 C 0.21041 0.56614 0.78822 0.0
C409 C 0.17588 0.54003 0.78563 0.0
C410 C 0.25739 0.56265 0.7759 0.0
C411 C 0.27004 0.53233 0.76072 0.0
C412 C 0.23559 0.50571 0.75842 0.0
C413 C 0.18895 0.50989 0.7709 0.0
C414 C 0.2933 0.59154 0.77883 0.0
C415 C 0.24782 0.47296 0.74248 0.0
H416 H 0.38002 0.54286 0.6815 0.0
H417 H 0.434 0.50016 0.76358 0.0
H418 H 0.2557 0.53544 0.69684 0.0
H419 H 0.27232 0.57695 0.7093 0.0
H420 H 0.29873 0.56011 0.67541 0.0
H421 H 0.38483 0.49267 0.80579 0.0
H422 H 0.33857 0.52504 0.80961 0.0
H423 H 0.32182 0.48363 0.79701 0.0
H424 H 0.20057 0.58951 0.79955 0.0
H425 H 0.16253 0.48954 0.76884 0.0
H426 H 0.30397 0.60071 0.7563 0.0
H427 H 0.3271 0.58261 0.79008 0.0
H428 H 0.27805 0.61321 0.79175 0.0
H429 H 0.25711 0.47823 0.71878 0.0
H430 H 0.21713 0.45453 0.74306 0.0
H431 H 0.28039 0.46099 0.75286 0.0
C432 C 0.6606 0.04561 0.28572 0.0
C433 C 0.6186 0.03644 0.26966 0.0
C434 C 0.7068 0.04511 0.27208 0.0
C435 C 0.71093 0.03534 0.24169 0.0
C436 C 0.66854 0.02694 0.22517 0.0
C437 C 0.62289 0.02753 0.23938 0.0
C438 C 0.75133 0.05417 0.29039 0.0
C439 C 0.67155 0.01653 0.19269 0.0
C440 C 0.82847 0.05619 0.20047 0.0
C441 C 0.85397 0.02539 0.20267 0.0
C442 C 0.78158 0.05979 0.21286 0.0
C443 C 0.75985 0.03192 0.22769 0.0
C444 C 0.785 0.00059 0.22942 0.0
C445 C 0.83175 0.99771 0.21688 0.0
C446 C 0.75563 0.09353 0.21053 0.0
C447 C 0.76286 0.97024 0.24494 0.0
H448 H 0.65752 0.05262 0.3091 0.0
H449 H 0.59055 0.02065 0.22675 0.0
H450 H 0.77567 0.03172 0.29229 0.0
H451 H 0.77249 0.07445 0.2791 0.0
H452 H 0.74163 0.06291 0.31327 0.0
H453 H 0.63487 0.01274 0.18255 0.0
H454 H 0.69138 0.03606 0.1796 0.0
H455 H 0.69251 0.99251 0.19065 0.0
H456 H 0.84548 0.07769 0.18954 0.0
H457 H 0.85115 0.97379 0.21861 0.0
H458 H 0.74889 0.10393 0.23323 0.0
H459 H 0.71947 0.09016 0.19969 0.0
H460 H 0.77698 0.1124 0.19752 0.0
H461 H 0.75576 0.97638 0.26878 0.0
H462 H 0.78693 0.94754 0.24389 0.0
H463 H 0.7272 0.96378 0.23458 0.0
C464 C 0.18312 0.44589 0.19732 0.0
C465 C 0.14373 0.46382 0.20979 0.0
C466 C 0.22961 0.44692 0.21056 0.0
C467 C 0.23679 0.46632 0.23687 0.0
C468 C 0.19722 0.48446 0.24956 0.0
C469 C 0.15117 0.48301 0.23585 0.0
C470 C 0.27107 0.42731 0.19638 0.0
C471 C 0.20354 0.50544 0.2776 0.0
C472 C 0.34683 0.44559 0.28533 0.0
C473 C 0.38033 0.47043 0.27621 0.0
C474 C 0.29977 0.4441 0.27289 0.0
C475 C 0.28595 0.46807 0.25088 0.0
C476 C 0.31926 0.49357 0.242 0.0
C477 C 0.36605 0.49444 0.25477 0.0
C478 C 0.26508 0.4166 0.28294 0.0
C479 C 0.30573 0.51965 0.21868 0.0
H480 H 0.17764 0.43098 0.17721 0.0
H481 H 0.12093 0.49691 0.24567 0.0
H482 H 0.30101 0.4449 0.19011 0.0
H483 H 0.28637 0.40892 0.21266 0.0
H484 H 0.25933 0.41324 0.17606 0.0
H485 H 0.16892 0.5178 0.28477 0.0
H486 H 0.21696 0.48919 0.29611 0.0
H487 H 0.23142 0.5254 0.27383 0.0
H488 H 0.35762 0.42693 0.30186 0.0
H489 H 0.39167 0.51376 0.24763 0.0
H490 H 0.25518 0.40026 0.26365 0.0
H491 H 0.23074 0.42806 0.2915 0.0
H492 H 0.28108 0.40037 0.30074 0.0
H493 H 0.29707 0.50682 0.19722 0.0
H494 H 0.33553 0.53824 0.2147 0.0
H495 H 0.27245 0.53367 0.22574 0.0
C496 C 0.04325 0.99502 0.05422 0.0
C497 C 0.01568 0.01853 0.07055 0.0
C498 C 0.03475 0.98996 0.02368 0.0
C499 C -0.00114 0.00978 0.00897 0.0
C500 C 0.96937 0.03252 0.02567 0.0
C501 C 0.97775 0.03632 0.05651 0.0
C502 C 0.06616 0.96477 0.00688 0.0
C503 C 0.93145 0.05453 0.01067 0.0
C504 C 0.03659 0.02429 0.92889 0.0
C505 C 0.0083 0.00021 0.91376 0.0
C506 C 0.03084 0.02958 0.95964 0.0
C507 C -0.00291 0.00944 0.97577 0.0
C508 C 0.96671 0.98619 0.96033 0.0
C509 C 0.97227 0.98215 0.92927 0.0
C510 C 0.06304 0.0553 0.97511 0.0
C511 C 0.93099 0.96385 0.97683 0.0
H512 H 0.07228 0.98106 0.06527 0.0
H513 H 0.95667 0.05466 0.06925 0.0
H514 H 0.04317 0.94837 0.99242 0.0
H515 H 0.092 0.97857 0.99214 0.0
H516 H 0.0877 0.94836 0.02219 0.0
H517 H 0.90695 0.06709 0.02716 0.0
H518 H 0.95009 0.07449 -0.00258 0.0
H519 H 0.9089 0.03942 -0.00506 0.0
H520 H 0.06409 0.03848 0.91671 0.0
H521 H 0.95059 0.9634 0.91747 0.0
H522 H 0.09091 0.04195 0.98879 0.0
H523 H 0.04107 0.07139 0.99046 0.0
H524 H 0.08229 0.07198 0.95894 0.0
H525 H 0.9515 0.9442 0.98943 0.0
H526 H 0.90525 0.95092 0.96135 0.0
H527 H 0.90964 0.97881 0.99332 0.0
C528 C 0.06659 0.52893 0.92529 0.0
C529 C 0.02933 0.55326 0.92259 0.0
C530 C 0.0736 0.51128 0.95227 0.0
C531 C 0.04278 0.51837 0.97695 0.0
C532 C 0.00813 0.54501 0.97504 0.0
C533 C 0.00176 0.56205 0.94787 0.0
C534 C 0.11131 0.48334 0.95354 0.0
C535 C 0.97502 0.5538 0.00099 0.0
C536 C -0.00291 0.45129 0.03005 0.0
C537 C 0.02039 0.46055 0.05675 0.0
C538 C 0.00716 0.46823 0.00325 0.0
C539 C 0.0412 0.49528 0.00318 0.0
C540 C 0.0679 0.50286 0.02946 0.0
C541 C 0.05726 0.48529 0.05601 0.0
C542 C 0.97843 0.45893 0.97557 0.0
C543 C 0.10486 0.53124 0.03019 0.0
H544 H 0.08817 0.52207 0.90586 0.0
H545 H 0.97346 0.58124 0.94605 0.0
H546 H 0.13091 0.48357 0.97526 0.0
H547 H 0.09276 0.45842 0.95145 0.0
H548 H 0.13846 0.48552 0.93515 0.0
H549 H 0.95399 0.57751 -0.00301 0.0
H550 H 0.94869 0.53281 0.00469 0.0
H551 H -0.00339 0.55687 0.02182 0.0
H552 H 0.96915 0.43179 0.03034 0.0
H553 H 0.07561 0.49251 0.07654 0.0
H554 H 0.00316 0.45618 0.95605 0.0
H555 H 0.95204 0.47951 0.97037 0.0
H556 H 0.95772 0.43492 0.97843 0.0
H557 H 0.12776 0.53108 0.00971 0.0
H558 H 0.12907 0.52952 0.05008 0.0
H559 H 0.08538 0.55594 0.031 0.0
C560 C 0.56156 0.44655 0.4425 0.0
C561 C 0.53261 0.45851 0.41888 0.0
C562 C 0.55437 0.45811 0.47177 0.0
C563 C 0.51734 0.48236 0.47762 0.0
C564 C 0.48546 0.49257 0.45435 0.0
C565 C 0.49346 0.48047 0.42513 0.0
C566 C 0.58887 0.44619 0.49599 0.0
C567 C 0.44515 0.518 0.4598 0.0
C568 C 0.50341 0.49895 0.5607 0.0
C569 C 0.53809 0.52475 0.56476 0.0
C570 C 0.49287 0.48647 0.53193 0.0
C571 C 0.51751 0.50027 0.50689 0.0
C572 C 0.54907 0.52837 0.51074 0.0
C573 C 0.55906 0.54018 0.53962 0.0
C574 C 0.45841 0.45683 0.52866 0.0
C575 C 0.57559 0.54422 0.48461 0.0
H576 H 0.59127 0.42904 0.43796 0.0
H577 H 0.47069 0.48964 0.40701 0.0
H578 H 0.61295 0.46747 0.50287 0.0
H579 H 0.5681 0.43801 0.51603 0.0
H580 H 0.61232 0.42478 0.48846 0.0
H581 H 0.41774 0.51786 0.44146 0.0
H582 H 0.42627 0.51286 0.48129 0.0
H583 H 0.46111 0.54382 0.46126 0.0
H584 H 0.48681 0.48707 0.58005 0.0
H585 H 0.58514 0.56062 0.54258 0.0
H586 H 0.47995 0.43319 0.52566 0.0
H587 H 0.43483 0.45986 0.50865 0.0
H588 H 0.4348 0.45378 0.5487 0.0
H589 H 0.60359 0.52624 0.47606 0.0
H590 H 0.59416 0.56825 0.4909 0.0
H591 H 0.54979 0.54952 0.46606 0.0
C592 C 0.54244 0.96753 0.56501 0.0
C593 C 0.50318 0.94462 0.56529 0.0
C594 C 0.55719 0.98314 0.53821 0.0
C595 C 0.53159 0.97584 0.51144 0.0
C596 C 0.49595 0.94981 0.51117 0.0
C597 C 0.48241 0.93442 0.53807 0.0
C598 C 0.59702 0.00954 0.53917 0.0
C599 C 0.46816 0.94071 0.48307 0.0
C600 C 0.48932 0.04224 0.45735 0.0
C601 C 0.51162 0.03117 0.43085 0.0
C602 C 0.49968 0.02663 0.48469 0.0
C603 C 0.53354 0.99944 0.48558 0.0
C604 C 0.56085 0.99116 0.45966 0.0
C605 C 0.54937 0.00707 0.4324 0.0
C606 C 0.47023 0.03681 0.51188 0.0
C607 C 0.59892 0.96345 0.46 0.0
H608 H 0.55936 0.97514 0.58589 0.0
H609 H 0.453 0.91599 0.538 0.0
H610 H 0.61787 0.01023 0.51788 0.0
H611 H 0.5804 0.03492 0.54271 0.0
H612 H 0.62277 0.0047 0.55791 0.0
H613 H 0.44518 0.91773 0.48604 0.0
H614 H 0.44396 0.96215 0.47668 0.0
H615 H 0.49375 0.93615 0.46426 0.0
H616 H 0.46108 0.06155 0.45643 0.0
H617 H 0.5674 0.99876 0.41206 0.0
H618 H 0.49448 0.04049 0.53148 0.0
H619 H 0.44402 0.01629 0.5175 0.0
H620 H 0.44921 0.06058 0.50819 0.0
H621 H 0.61811 0.96236 0.48185 0.0
H622 H 0.62632 0.96716 0.44195 0.0
H623 H 0.58092 0.9386 0.45625 0.0
loop_
_geom_bond_atom_site_label_1
_geom_bond_atom_site_label_2
_geom_bond_distance
_geom_bond_site_symmetry_2
_ccdc_geom_bond_type
Mg0 O1 2.028 . S
Mg0 O7 1.986 . S
Mg0 O9 2.114 . S
Mg0 O10 2.251 . S
Mg0 O13 2.010 1_455 S
O1 Mg0 2.028 . S
O1 C4 1.250 . S
O2 Mg3 2.028 . S
O2 C4 1.248 . S
Mg3 O2 2.028 . S
Mg3 O8 2.032 . S
Mg3 O10 2.079 . S
C4 O1 1.250 . S
C4 O2 1.248 . S
C5 O6 1.264 . S
C5 O13 1.249 . S
O6 C5 1.264 . S
O7 Mg0 1.986 . S
O7 C11 1.246 . S
O8 Mg3 2.032 . S
O8 C11 1.259 . S
O9 Mg0 2.114 . S
O9 C12 1.252 . S
O10 Mg0 2.251 . S
O10 Mg3 2.079 . S
O10 C12 1.273 . S
C11 O7 1.246 . S
C11 O8 1.259 . S
C12 O9 1.252 . S
C12 O10 1.273 . S
O13 Mg0 2.010 1_655 S
O13 C5 1.249 . S
Mg14 O15 2.028 . S
Mg14 O21 1.986 . S
Mg14 O23 2.114 1_455 S
Mg14 O24 2.251 1_455 S
Mg14 O27 2.010 . S
O15 Mg14 2.028 . S
O15 C18 1.250 . S
O16 Mg17 2.028 . S
O16 C18 1.248 1_655 S
Mg17 O16 2.028 . S
Mg17 O22 2.032 . S
Mg17 O24 2.079 . S
C18 O15 1.250 . S
C18 O16 1.248 1_455 S
C19 O20 1.264 . S
C19 O27 1.249 . S
O20 C19 1.264 . S
O21 Mg14 1.986 . S
O21 C25 1.246 . S
O22 Mg17 2.032 . S
O22 C25 1.259 1_655 S
O23 Mg14 2.114 1_655 S
O23 C26 1.252 . S
O24 Mg14 2.251 1_655 S
O24 Mg17 2.079 . S
O24 C26 1.273 . S
C25 O21 1.246 . S
C25 O22 1.259 1_455 S
C26 O23 1.252 . S
C26 O24 1.273 . S
O27 Mg14 2.010 . S
O27 C19 1.249 . S
Mg28 O29 2.028 . S
Mg28 O35 1.986 . S
Mg28 O37 2.114 . S
Mg28 O38 2.251 . S
Mg28 O41 2.010 1_455 S
O29 Mg28 2.028 . S
O29 C32 1.250 . S
O30 Mg31 2.028 . S
O30 C32 1.248 . S
Mg31 O30 2.028 . S
Mg31 O36 2.032 . S
Mg31 O38 2.079 . S
C32 O29 1.250 . S
C32 O30 1.248 . S
C33 O34 1.264 . S
C33 O41 1.249 . S
O34 C33 1.264 . S
O35 Mg28 1.986 . S
O35 C39 1.246 . S
O36 Mg31 2.032 . S
O36 C39 1.259 . S
O37 Mg28 2.114 . S
O37 C40 1.252 . S
O38 Mg28 2.251 . S
O38 Mg31 2.079 . S
O38 C40 1.273 . S
C39 O35 1.246 . S
C39 O36 1.259 . S
C40 O37 1.252 . S
C40 O38 1.273 . S
O41 Mg28 2.010 1_655 S
O41 C33 1.249 . S
Mg42 O43 2.028 . S
Mg42 O49 1.986 . S
Mg42 O51 2.114 1_455 S
Mg42 O52 2.251 1_455 S
Mg42 O55 2.010 . S
O43 Mg42 2.028 . S
O43 C46 1.250 . S
O44 Mg45 2.028 . S
O44 C46 1.248 1_655 S
Mg45 O44 2.028 . S
Mg45 O50 2.032 . S
Mg45 O52 2.079 . S
C46 O43 1.250 . S
C46 O44 1.248 1_455 S
C47 O48 1.264 . S
C47 O55 1.249 . S
O48 C47 1.264 . S
O49 Mg42 1.986 . S
O49 C53 1.246 . S
O50 Mg45 2.032 . S
O50 C53 1.259 1_655 S
O51 Mg42 2.114 1_655 S
O51 C54 1.252 . S
O52 Mg42 2.251 1_655 S
O52 Mg45 2.079 . S
O52 C54 1.273 . S
C53 O49 1.246 . S
C53 O50 1.259 1_455 S
C54 O51 1.252 . S
C54 O52 1.273 . S
O55 Mg42 2.010 . S
O55 C47 1.249 . S
Mg56 O57 2.028 . S
Mg56 O63 1.986 . S
Mg56 O65 2.114 . S
Mg56 O66 2.251 . S
Mg56 O69 2.010 . S
O57 Mg56 2.028 . S
O57 C60 1.250 . S
O58 Mg59 2.028 . S
O58 C60 1.248 . S
Mg59 O58 2.028 . S
Mg59 O64 2.032 . S
Mg59 O66 2.079 . S
C60 O57 1.250 . S
C60 O58 1.248 . S
C61 O62 1.264 . S
C61 O69 1.249 . S
O62 C61 1.264 . S
O63 Mg56 1.986 . S
O63 C67 1.246 . S
O64 Mg59 2.032 . S
O64 C67 1.259 . S
O65 Mg56 2.114 . S
O65 C68 1.252 . S
O66 Mg56 2.251 . S
O66 Mg59 2.079 . S
O66 C68 1.273 . S
C67 O63 1.246 . S
C67 O64 1.259 . S
C68 O65 1.252 . S
C68 O66 1.273 . S
O69 Mg56 2.010 . S
O69 C61 1.249 . S
Mg70 O71 2.028 . S
Mg70 O77 1.986 . S
Mg70 O79 2.114 . S
Mg70 O80 2.251 . S
Mg70 O83 2.010 . S
O71 Mg70 2.028 . S
O71 C74 1.250 . S
O72 Mg73 2.028 . S
O72 C74 1.248 . S
Mg73 O72 2.028 . S
Mg73 O78 2.032 . S
Mg73 O80 2.079 . S
C74 O71 1.250 . S
C74 O72 1.248 . S
C75 O76 1.264 . S
C75 O83 1.249 . S
O76 C75 1.264 . S
O77 Mg70 1.986 . S
O77 C81 1.246 . S
O78 Mg73 2.032 . S
O78 C81 1.259 . S
O79 Mg70 2.114 . S
O79 C82 1.252 . S
O80 Mg70 2.251 . S
O80 Mg73 2.079 . S
O80 C82 1.273 . S
C81 O77 1.246 . S
C81 O78 1.259 . S
C82 O79 1.252 . S
C82 O80 1.273 . S
O83 Mg70 2.010 . S
O83 C75 1.249 . S
Mg84 O85 2.028 . S
Mg84 O91 1.986 . S
Mg84 O93 2.114 . S
Mg84 O94 2.251 . S
Mg84 O97 2.010 . S
O85 Mg84 2.028 . S
O85 C88 1.250 . S
O86 Mg87 2.028 . S
O86 C88 1.248 . S
Mg87 O86 2.028 . S
Mg87 O92 2.032 . S
Mg87 O94 2.079 . S
C88 O85 1.250 . S
C88 O86 1.248 . S
C89 O90 1.264 . S
C89 O97 1.249 . S
O90 C89 1.264 . S
O91 Mg84 1.986 . S
O91 C95 1.246 . S
O92 Mg87 2.032 . S
O92 C95 1.259 . S
O93 Mg84 2.114 . S
O93 C96 1.252 . S
O94 Mg84 2.251 . S
O94 Mg87 2.079 . S
O94 C96 1.273 . S
C95 O91 1.246 . S
C95 O92 1.259 . S
C96 O93 1.252 . S
C96 O94 1.273 . S
O97 Mg84 2.010 . S
O97 C89 1.249 . S
Mg98 O99 2.028 . S
Mg98 O105 1.986 . S
Mg98 O107 2.114 . S
Mg98 O108 2.251 . S
Mg98 O111 2.010 . S
O99 Mg98 2.028 . S
O99 C102 1.250 . S
O100 Mg101 2.028 . S
O100 C102 1.248 . S
Mg101 O100 2.028 . S
Mg101 O106 2.032 . S
Mg101 O108 2.079 . S
C102 O99 1.250 . S
C102 O100 1.248 . S
C103 O104 1.264 . S
C103 O111 1.249 . S
O104 C103 1.264 . S
O105 Mg98 1.986 . S
O105 C109 1.246 . S
O106 Mg101 2.032 . S
O106 C109 1.259 . S
O107 Mg98 2.114 . S
O107 C110 1.252 . S
O108 Mg98 2.251 . S
O108 Mg101 2.079 . S
O108 C110 1.273 . S
C109 O105 1.246 . S
C109 O106 1.259 . S
C110 O107 1.252 . S
C110 O108 1.273 . S
O111 Mg98 2.010 . S
O111 C103 1.249 . S
C112 C113 1.391 . S
C112 C114 1.394 . S
C112 H128 0.931 . S
C113 C112 1.391 . S
C113 C117 1.376 1_455 S
C114 C112 1.394 . S
C114 C115 1.369 . S
C114 C118 1.531 . S
C115 C114 1.369 . S
C115 C116 1.410 1_455 S
C115 C123 1.503 . S
C116 C115 1.410 1_655 S
C116 C117 1.392 . S
C116 C119 1.511 . S
C117 C113 1.376 1_655 S
C117 C116 1.392 . S
C117 H129 0.929 . S
C118 C114 1.531 . S
C118 H130 0.960 . S
C118 H131 0.962 . S
C118 H132 0.960 . S
C119 C116 1.511 . S
C119 H133 0.961 . S
C119 H134 0.961 . S
C119 H135 0.961 . S
C120 C121 1.370 . S
C120 C122 1.363 . S
C120 H136 0.931 . S
C121 C120 1.370 . S
C121 C125 1.408 . S
C122 C120 1.363 . S
C122 C123 1.370 . S
C122 C126 1.524 . S
C123 C115 1.503 . S
C123 C122 1.370 . S
C123 C124 1.403 . S
C124 C123 1.403 . S
C124 C125 1.404 . S
C124 C127 1.539 1_455 S
C125 C121 1.408 . S
C125 C124 1.404 . S
C125 H137 0.930 . S
C126 C122 1.524 . S
C126 H138 0.956 . S
C126 H139 0.961 . S
C126 H140 0.961 . S
C127 C124 1.539 1_655 S
C127 H141 0.958 1_655 S
C127 H142 0.961 . S
C127 H143 0.960 . S
H128 C112 0.931 . S
H129 C117 0.929 . S
H130 C118 0.960 . S
H131 C118 0.962 . S
H132 C118 0.960 . S
H133 C119 0.961 . S
H134 C119 0.961 . S
H135 C119 0.961 . S
H136 C120 0.931 . S
H137 C125 0.930 . S
H138 C126 0.956 . S
H139 C126 0.961 . S
H140 C126 0.961 . S
H141 C127 0.958 1_455 S
H142 C127 0.961 . S
H143 C127 0.960 . S
C144 C145 1.391 1_655 S
C144 C146 1.394 . S
C144 H160 0.931 . S
C145 C144 1.391 1_455 S
C145 C149 1.376 . S
C146 C144 1.394 . S
C146 C147 1.369 1_655 S
C146 C150 1.531 . S
C147 C146 1.369 1_455 S
C147 C148 1.410 . S
C147 C155 1.503 . S
C148 C147 1.410 . S
C148 C149 1.392 . S
C148 C151 1.511 . S
C149 C145 1.376 . S
C149 C148 1.392 . S
C149 H161 0.929 . S
C150 C146 1.531 . S
C150 H162 0.960 . S
C150 H163 0.962 . S
C150 H164 0.960 . S
C151 C148 1.511 . S
C151 H165 0.961 . S
C151 H166 0.961 . S
C151 H167 0.961 . S
C152 C153 1.377 . S
C152 C154 1.365 . S
C152 H168 0.923 1_455 S
C153 C152 1.377 . S
C153 C157 1.408 . S
C154 C152 1.365 . S
C154 C155 1.370 . S
C154 C158 1.524 1_455 S
C155 C147 1.503 . S
C155 C154 1.370 . S
C155 C156 1.403 . S
C156 C155 1.403 . S
C156 C157 1.404 . S
C156 C159 1.539 . S
C157 C153 1.408 . S
C157 C156 1.404 . S
C157 H169 0.930 . S
C158 C154 1.524 1_655 S
C158 H170 0.956 . S
C158 H171 0.961 1_655 S
C158 H172 0.961 . S
C159 C156 1.539 . S
C159 H173 0.958 . S
C159 H174 0.961 . S
C159 H175 0.960 . S
H160 C144 0.931 . S
H161 C149 0.929 . S
H162 C150 0.960 . S
H163 C150 0.962 . S
H164 C150 0.960 . S
H165 C151 0.961 . S
H166 C151 0.961 . S
H167 C151 0.961 . S
H168 C152 0.923 1_655 S
H169 C157 0.930 . S
H170 C158 0.956 . S
H171 C158 0.961 1_455 S
H172 C158 0.961 . S
H173 C159 0.958 . S
H174 C159 0.961 . S
H175 C159 0.960 . S
C176 C177 1.391 . S
C176 C178 1.394 . S
C176 H192 0.931 . S
C177 C176 1.391 . S
C177 C181 1.376 . S
C178 C176 1.394 . S
C178 C179 1.369 . S
C178 C182 1.531 . S
C179 C178 1.369 . S
C179 C180 1.410 . S
C179 C187 1.503 . S
C180 C179 1.410 . S
C180 C181 1.392 . S
C180 C183 1.511 . S
C181 C177 1.376 . S
C181 C180 1.392 . S
C181 H193 0.929 . S
C182 C178 1.531 . S
C182 H194 0.960 . S
C182 H195 0.962 . S
C182 H196 0.960 . S
C183 C180 1.511 . S
C183 H197 0.961 . S
C183 H198 0.961 . S
C183 H199 0.961 . S
C184 C185 1.370 . S
C184 C186 1.363 . S
C184 H200 0.931 . S
C185 C184 1.370 . S
C185 C189 1.408 . S
C186 C184 1.363 . S
C186 C187 1.370 . S
C186 C190 1.524 . S
C187 C179 1.503 . S
C187 C186 1.370 . S
C187 C188 1.403 . S
C188 C187 1.403 . S
C188 C189 1.404 . S
C188 C191 1.539 . S
C189 C185 1.408 . S
C189 C188 1.404 . S
C189 H201 0.930 . S
C190 C186 1.524 . S
C190 H202 0.956 . S
C190 H203 0.961 . S
C190 H204 0.961 . S
C191 C188 1.539 . S
C191 H205 0.958 . S
C191 H206 0.961 . S
C191 H207 0.960 . S
H192 C176 0.931 . S
H193 C181 0.929 . S
H194 C182 0.960 . S
H195 C182 0.962 . S
H196 C182 0.960 . S
H197 C183 0.961 . S
H198 C183 0.961 . S
H199 C183 0.961 . S
H200 C184 0.931 . S
H201 C189 0.930 . S
H202 C190 0.956 . S
H203 C190 0.961 . S
H204 C190 0.961 . S
H205 C191 0.958 . S
H206 C191 0.961 . S
H207 C191 0.960 . S
C208 C209 1.391 . S
C208 C210 1.394 . S
C208 H224 0.931 . S
C209 C208 1.391 . S
C209 C213 1.376 . S
C210 C208 1.394 . S
C210 C211 1.369 . S
C210 C214 1.531 . S
C211 C210 1.369 . S
C211 C212 1.410 . S
C211 C219 1.503 . S
C212 C211 1.410 . S
C212 C213 1.392 . S
C212 C215 1.511 . S
C213 C209 1.376 . S
C213 C212 1.392 . S
C213 H225 0.929 . S
C214 C210 1.531 . S
C214 H226 0.960 . S
C214 H227 0.962 . S
C214 H228 0.960 . S
C215 C212 1.511 . S
C215 H229 0.961 . S
C215 H230 0.961 . S
C215 H231 0.961 . S
C216 C217 1.370 . S
C216 C218 1.363 . S
C216 H232 0.931 . S
C217 C216 1.370 . S
C217 C221 1.408 . S
C218 C216 1.363 . S
C218 C219 1.370 . S
C218 C222 1.524 . S
C219 C211 1.503 . S
C219 C218 1.370 . S
C219 C220 1.403 . S
C220 C219 1.403 . S
C220 C221 1.404 . S
C220 C223 1.539 . S
C221 C217 1.408 . S
C221 C220 1.404 . S
C221 H233 0.930 . S
C222 C218 1.524 . S
C222 H234 0.956 . S
C222 H235 0.961 . S
C222 H236 0.961 . S
C223 C220 1.539 . S
C223 H237 0.958 . S
C223 H238 0.961 . S
C223 H239 0.960 . S
H224 C208 0.931 . S
H225 C213 0.929 . S
H226 C214 0.960 . S
H227 C214 0.962 . S
H228 C214 0.960 . S
H229 C215 0.961 . S
H230 C215 0.961 . S
H231 C215 0.961 . S
H232 C216 0.931 . S
H233 C221 0.930 . S
H234 C222 0.956 . S
H235 C222 0.961 . S
H236 C222 0.961 . S
H237 C223 0.958 . S
H238 C223 0.961 . S
H239 C223 0.960 . S
C240 C241 1.391 . S
C240 C242 1.394 . S
C240 H256 0.931 . S
C241 C240 1.391 . S
C241 C245 1.376 . S
C242 C240 1.394 . S
C242 C243 1.369 . S
C242 C246 1.531 . S
C243 C242 1.369 . S
C243 C244 1.410 . S
C243 C251 1.503 . S
C244 C243 1.410 . S
C244 C245 1.392 . S
C244 C247 1.511 . S
C245 C241 1.376 . S
C245 C244 1.392 . S
C245 H257 0.929 . S
C246 C242 1.531 . S
C246 H258 0.960 . S
C246 H259 0.962 . S
C246 H260 0.960 . S
C247 C244 1.511 . S
C247 H261 0.961 . S
C247 H262 0.961 . S
C247 H263 0.961 1_545 S
C248 C249 1.370 . S
C248 C250 1.363 . S
C248 H264 0.931 . S
C249 C248 1.370 . S
C249 C253 1.408 . S
C250 C248 1.363 . S
C250 C251 1.370 . S
C250 C254 1.524 . S
C251 C243 1.503 . S
C251 C250 1.370 . S
C251 C252 1.403 . S
C252 C251 1.403 . S
C252 C253 1.404 . S
C252 C255 1.539 1_545 S
C253 C249 1.408 . S
C253 C252 1.404 . S
C253 H265 0.954 . S
C254 C250 1.524 . S
C254 H266 0.956 . S
C254 H267 0.961 . S
C254 H268 0.961 . S
C255 C252 1.539 1_565 S
C255 H269 0.958 . S
C255 H270 0.961 . S
C255 H271 0.960 . S
H256 C240 0.931 . S
H257 C245 0.929 . S
H258 C246 0.960 . S
H259 C246 0.962 . S
H260 C246 0.960 . S
H261 C247 0.961 . S
H262 C247 0.961 . S
H263 C247 0.961 1_565 S
H264 C248 0.931 . S
H265 C253 0.954 . S
H266 C254 0.956 . S
H267 C254 0.961 . S
H268 C254 0.961 . S
H269 C255 0.958 . S
H270 C255 0.961 . S
H271 C255 0.960 . S
C272 C273 1.391 . S
C272 C274 1.394 . S
C272 H288 0.931 . S
C273 C272 1.391 . S
C273 C277 1.376 . S
C274 C272 1.394 . S
C274 C275 1.369 . S
C274 C278 1.531 . S
C275 C274 1.369 . S
C275 C276 1.410 . S
C275 C283 1.503 . S
C276 C275 1.410 . S
C276 C277 1.392 . S
C276 C279 1.511 . S
C277 C273 1.376 . S
C277 C276 1.392 . S
C277 H289 0.929 . S
C278 C274 1.531 . S
C278 H290 0.960 . S
C278 H291 0.962 . S
C278 H292 0.960 . S
C279 C276 1.511 . S
C279 H293 0.961 . S
C279 H294 0.961 . S
C279 H295 0.961 . S
C280 C281 1.370 . S
C280 C282 1.363 . S
C280 H296 0.931 . S
C281 C280 1.370 . S
C281 C285 1.408 . S
C282 C280 1.363 . S
C282 C283 1.370 . S
C282 C286 1.524 . S
C283 C275 1.503 . S
C283 C282 1.370 . S
C283 C284 1.403 . S
C284 C283 1.403 . S
C284 C285 1.404 . S
C284 C287 1.539 . S
C285 C281 1.408 . S
C285 C284 1.404 . S
C285 H297 0.930 . S
C286 C282 1.524 . S
C286 H298 0.956 . S
C286 H299 0.961 . S
C286 H300 0.961 . S
C287 C284 1.539 . S
C287 H301 0.958 . S
C287 H302 0.961 . S
C287 H303 0.960 . S
H288 C272 0.931 . S
H289 C277 0.929 . S
H290 C278 0.960 . S
H291 C278 0.962 . S
H292 C278 0.960 . S
H293 C279 0.961 . S
H294 C279 0.961 . S
H295 C279 0.961 . S
H296 C280 0.931 . S
H297 C285 0.930 . S
H298 C286 0.956 . S
H299 C286 0.961 . S
H300 C286 0.961 . S
H301 C287 0.958 . S
H302 C287 0.961 . S
H303 C287 0.960 . S
C304 C305 1.391 . S
C304 C306 1.394 . S
C304 H320 0.931 . S
C305 C304 1.391 . S
C305 C309 1.376 . S
C306 C304 1.394 . S
C306 C307 1.369 . S
C306 C310 1.531 . S
C307 C306 1.369 . S
C307 C308 1.410 . S
C307 C315 1.503 . S
C308 C307 1.410 . S
C308 C309 1.392 . S
C308 C311 1.511 1_565 S
C309 C305 1.376 . S
C309 C308 1.392 . S
C309 H321 0.929 . S
C310 C306 1.531 . S
C310 H322 0.960 . S
C310 H323 0.962 . S
C310 H324 0.960 . S
C311 C308 1.511 1_545 S
C311 H325 0.961 . S
C311 H326 0.961 . S
C311 H327 0.961 . S
C312 C313 1.370 . S
C312 C314 1.363 . S
C312 H328 0.931 . S
C313 C312 1.370 . S
C313 C317 1.408 . S
C314 C312 1.363 . S
C314 C315 1.370 . S
C314 C318 1.524 . S
C315 C307 1.503 . S
C315 C314 1.370 . S
C315 C316 1.403 . S
C316 C315 1.403 . S
C316 C317 1.404 . S
C316 C319 1.539 . S
C317 C313 1.408 . S
C317 C316 1.404 . S
C317 H329 0.930 . S
C318 C314 1.524 . S
C318 H330 0.956 . S
C318 H331 0.961 . S
C318 H332 0.961 . S
C319 C316 1.539 . S
C319 H333 0.958 . S
C319 H334 0.961 . S
C319 H335 0.960 . S
H320 C304 0.931 . S
H321 C309 0.929 . S
H322 C310 0.960 . S
H323 C310 0.962 . S
H324 C310 0.960 . S
H325 C311 0.961 . S
H326 C311 0.961 . S
H327 C311 0.961 . S
H328 C312 0.931 . S
H329 C317 0.930 . S
H330 C318 0.956 . S
H331 C318 0.961 . S
H332 C318 0.961 . S
H333 C319 0.958 . S
H334 C319 0.961 . S
H335 C319 0.960 . S
C336 C337 1.391 . S
C336 C338 1.394 . S
C336 H352 0.931 . S
C337 C336 1.391 . S
C337 C341 1.376 . S
C338 C336 1.394 . S
C338 C339 1.369 . S
C338 C342 1.531 . S
C339 C338 1.369 . S
C339 C340 1.410 . S
C339 C347 1.503 . S
C340 C339 1.410 . S
C340 C341 1.392 . S
C340 C343 1.511 . S
C341 C337 1.376 . S
C341 C340 1.392 . S
C341 H353 0.929 . S
C342 C338 1.531 . S
C342 H354 0.960 . S
C342 H355 0.962 . S
C342 H356 0.960 . S
C343 C340 1.511 . S
C343 H357 0.961 . S
C343 H358 0.961 . S
C343 H359 0.961 . S
C344 C345 1.370 . S
C344 C346 1.363 . S
C344 H360 0.931 . S
C345 C344 1.370 . S
C345 C349 1.408 . S
C346 C344 1.363 . S
C346 C347 1.370 . S
C346 C350 1.524 . S
C347 C339 1.503 . S
C347 C346 1.370 . S
C347 C348 1.403 . S
C348 C347 1.403 . S
C348 C349 1.404 . S
C348 C351 1.539 . S
C349 C345 1.408 . S
C349 C348 1.404 . S
C349 H361 0.930 . S
C350 C346 1.524 . S
C350 H362 0.956 . S
C350 H363 0.961 . S
C350 H364 0.961 . S
C351 C348 1.539 . S
C351 H365 0.958 . S
C351 H366 0.961 . S
C351 H367 0.960 . S
H352 C336 0.931 . S
H353 C341 0.929 . S
H354 C342 0.960 . S
H355 C342 0.962 . S
H356 C342 0.960 . S
H357 C343 0.961 . S
H358 C343 0.961 . S
H359 C343 0.961 . S
H360 C344 0.931 . S
H361 C349 0.930 . S
H362 C350 0.956 . S
H363 C350 0.961 . S
H364 C350 0.961 . S
H365 C351 0.958 . S
H366 C351 0.961 . S
H367 C351 0.960 . S
C368 C369 1.391 . S
C368 C370 1.394 . S
C368 H384 0.931 . S
C369 C368 1.391 . S
C369 C373 1.376 . S
C370 C368 1.394 . S
C370 C371 1.369 . S
C370 C374 1.531 . S
C371 C370 1.369 . S
C371 C372 1.410 . S
C371 C379 1.503 . S
C372 C371 1.410 . S
C372 C373 1.392 . S
C372 C375 1.511 . S
C373 C369 1.376 . S
C373 C372 1.392 . S
C373 H385 0.929 . S
C374 C370 1.531 . S
C374 H386 0.960 . S
C374 H387 0.962 . S
C374 H388 0.960 . S
C375 C372 1.511 . S
C375 H389 0.961 1_565 S
C375 H390 0.961 . S
C375 H391 0.961 . S
C376 C377 1.370 . S
C376 C378 1.363 . S
C376 H392 0.931 . S
C377 C376 1.370 . S
C377 C381 1.408 . S
C378 C376 1.363 . S
C378 C379 1.370 . S
C378 C382 1.524 . S
C379 C371 1.503 . S
C379 C378 1.370 . S
C379 C380 1.403 . S
C380 C379 1.403 . S
C380 C381 1.404 . S
C380 C383 1.539 . S
C381 C377 1.408 . S
C381 C380 1.404 . S
C381 H393 0.930 . S
C382 C378 1.524 . S
C382 H394 0.956 . S
C382 H395 0.961 1_565 S
C382 H396 0.961 1_565 S
C383 C380 1.539 . S
C383 H397 0.958 . S
C383 H398 0.961 . S
C383 H399 0.960 . S
H384 C368 0.931 . S
H385 C373 0.929 . S
H386 C374 0.960 . S
H387 C374 0.962 . S
H388 C374 0.960 . S
H389 C375 0.961 1_545 S
H390 C375 0.961 . S
H391 C375 0.961 . S
H392 C376 0.931 . S
H393 C381 0.930 . S
H394 C382 0.956 . S
H395 C382 0.961 1_545 S
H396 C382 0.961 1_545 S
H397 C383 0.958 . S
H398 C383 0.961 . S
H399 C383 0.960 . S
C400 C401 1.391 . S
C400 C402 1.394 . S
C400 H416 0.931 . S
C401 C400 1.391 . S
C401 C405 1.376 . S
C402 C400 1.394 . S
C402 C403 1.369 . S
C402 C406 1.531 . S
C403 C402 1.369 . S
C403 C404 1.410 . S
C403 C411 1.503 . S
C404 C403 1.410 . S
C404 C405 1.392 . S
C404 C407 1.511 . S
C405 C401 1.376 . S
C405 C404 1.392 . S
C405 H417 0.929 . S
C406 C402 1.531 . S
C406 H418 0.960 . S
C406 H419 0.962 . S
C406 H420 0.960 . S
C407 C404 1.511 . S
C407 H421 0.961 . S
C407 H422 0.961 . S
C407 H423 0.961 . S
C408 C409 1.370 . S
C408 C410 1.363 . S
C408 H424 0.931 . S
C409 C408 1.370 . S
C409 C413 1.408 . S
C410 C408 1.363 . S
C410 C411 1.370 . S
C410 C414 1.524 . S
C411 C403 1.503 . S
C411 C410 1.370 . S
C411 C412 1.403 . S
C412 C411 1.403 . S
C412 C413 1.404 . S
C412 C415 1.539 . S
C413 C409 1.408 . S
C413 C412 1.404 . S
C413 H425 0.930 . S
C414 C410 1.524 . S
C414 H426 0.956 . S
C414 H427 0.961 . S
C414 H428 0.961 . S
C415 C412 1.539 . S
C415 H429 0.958 . S
C415 H430 0.961 . S
C415 H431 0.960 . S
H416 C400 0.931 . S
H417 C405 0.929 . S
H418 C406 0.960 . S
H419 C406 0.962 . S
H420 C406 0.960 . S
H421 C407 0.961 . S
H422 C407 0.961 . S
H423 C407 0.961 . S
H424 C408 0.931 . S
H425 C413 0.930 . S
H426 C414 0.956 . S
H427 C414 0.961 . S
H428 C414 0.961 . S
H429 C415 0.958 . S
H430 C415 0.961 . S
H431 C415 0.960 . S
C432 C433 1.391 . S
C432 C434 1.394 . S
C432 H448 0.931 . S
C433 C432 1.391 . S
C433 C437 1.376 . S
C434 C432 1.394 . S
C434 C435 1.369 . S
C434 C438 1.531 . S
C435 C434 1.369 . S
C435 C436 1.410 . S
C435 C443 1.503 . S
C436 C435 1.410 . S
C436 C437 1.392 . S
C436 C439 1.511 . S
C437 C433 1.376 . S
C437 C436 1.392 . S
C437 H449 0.929 . S
C438 C434 1.531 . S
C438 H450 0.960 . S
C438 H451 0.962 . S
C438 H452 0.960 . S
C439 C436 1.511 . S
C439 H453 0.961 . S
C439 H454 0.961 . S
C439 H455 0.961 . S
C440 C441 1.370 . S
C440 C442 1.363 . S
C440 H456 0.931 . S
C441 C440 1.370 . S
C441 C445 1.408 . S
C442 C440 1.363 . S
C442 C443 1.370 . S
C442 C446 1.524 . S
C443 C435 1.503 . S
C443 C442 1.370 . S
C443 C444 1.403 . S
C444 C443 1.403 . S
C444 C445 1.404 . S
C444 C447 1.539 1_545 S
C445 C441 1.408 . S
C445 C444 1.404 . S
C445 H457 0.930 1_545 S
C446 C442 1.524 . S
C446 H458 0.956 . S
C446 H459 0.961 . S
C446 H460 0.961 . S
C447 C444 1.539 1_565 S
C447 H461 0.958 . S
C447 H462 0.961 . S
C447 H463 0.960 . S
H448 C432 0.931 . S
H449 C437 0.929 . S
H450 C438 0.960 . S
H451 C438 0.962 . S
H452 C438 0.960 . S
H453 C439 0.961 . S
H454 C439 0.961 . S
H455 C439 0.961 . S
H456 C440 0.931 . S
H457 C445 0.930 1_565 S
H458 C446 0.956 . S
H459 C446 0.961 . S
H460 C446 0.961 . S
H461 C447 0.958 . S
H462 C447 0.961 . S
H463 C447 0.960 . S
C464 C465 1.391 . S
C464 C466 1.394 . S
C464 H480 0.931 . S
C465 C464 1.391 . S
C465 C469 1.376 . S
C466 C464 1.394 . S
C466 C467 1.369 . S
C466 C470 1.531 . S
C467 C466 1.369 . S
C467 C468 1.410 . S
C467 C475 1.503 . S
C468 C467 1.410 . S
C468 C469 1.392 . S
C468 C471 1.511 . S
C469 C465 1.376 . S
C469 C468 1.392 . S
C469 H481 0.929 . S
C470 C466 1.531 . S
C470 H482 0.960 . S
C470 H483 0.962 . S
C470 H484 0.960 . S
C471 C468 1.511 . S
C471 H485 0.961 . S
C471 H486 0.961 . S
C471 H487 0.961 . S
C472 C473 1.370 . S
C472 C474 1.363 . S
C472 H488 0.931 . S
C473 C472 1.370 . S
C473 C477 1.408 . S
C474 C472 1.363 . S
C474 C475 1.370 . S
C474 C478 1.524 . S
C475 C467 1.503 . S
C475 C474 1.370 . S
C475 C476 1.403 . S
C476 C475 1.403 . S
C476 C477 1.404 . S
C476 C479 1.539 . S
C477 C473 1.408 . S
C477 C476 1.404 . S
C477 H489 0.930 . S
C478 C474 1.524 . S
C478 H490 0.956 . S
C478 H491 0.961 . S
C478 H492 0.961 . S
C479 C476 1.539 . S
C479 H493 0.958 . S
C479 H494 0.961 . S
C479 H495 0.960 . S
H480 C464 0.931 . S
H481 C469 0.929 . S
H482 C470 0.960 . S
H483 C470 0.962 . S
H484 C470 0.960 . S
H485 C471 0.961 . S
H486 C471 0.961 . S
H487 C471 0.961 . S
H488 C472 0.931 . S
H489 C477 0.930 . S
H490 C478 0.956 . S
H491 C478 0.961 . S
H492 C478 0.961 . S
H493 C479 0.958 . S
H494 C479 0.961 . S
H495 C479 0.960 . S
C496 C497 1.391 1_565 S
C496 C498 1.394 . S
C496 H512 0.931 . S
C497 C496 1.391 1_545 S
C497 C501 1.376 1_455 S
C498 C496 1.394 . S
C498 C499 1.376 . S
C498 C502 1.531 . S
C499 C498 1.376 . S
C499 C500 1.397 1_465 S
C499 C507 1.508 1_554 S
C500 C499 1.397 1_645 S
C500 C501 1.392 . S
C500 C503 1.511 . S
C501 C497 1.376 1_655 S
C501 C500 1.392 . S
C501 H513 0.929 . S
C502 C498 1.531 . S
C502 H514 0.960 . S
C502 H515 0.962 . S
C502 H516 0.960 . S
C503 C500 1.511 . S
C503 H517 0.961 . S
C503 H518 0.961 1_554 S
C503 H519 0.961 . S
C504 C505 1.391 . S
C504 C506 1.356 1_565 S
C504 H520 0.917 1_565 S
C505 C504 1.391 . S
C505 C509 1.408 1_455 S
C506 C504 1.356 1_545 S
C506 C507 1.370 1_545 S
C506 C510 1.524 . S
C507 C499 1.508 1_556 S
C507 C506 1.370 1_565 S
C507 C508 1.403 1_455 S
C508 C507 1.403 1_655 S
C508 C509 1.404 . S
C508 C511 1.539 . S
C509 C505 1.408 1_655 S
C509 C508 1.404 . S
C509 H521 0.930 . S
C510 C506 1.524 . S
C510 H522 0.956 . S
C510 H523 0.961 . S
C510 H524 0.961 . S
C511 C508 1.539 . S
C511 H525 0.958 1_556 S
C511 H526 0.961 . S
C511 H527 0.960 1_556 S
H512 C496 0.931 . S
H513 C501 0.929 . S
H514 C502 0.960 . S
H515 C502 0.962 . S
H516 C502 0.960 . S
H517 C503 0.961 . S
H518 C503 0.961 1_556 S
H519 C503 0.961 . S
H520 C504 0.917 1_545 S
H521 C509 0.930 . S
H522 C510 0.956 . S
H523 C510 0.961 . S
H524 C510 0.961 . S
H525 C511 0.958 1_554 S
H526 C511 0.961 . S
H527 C511 0.960 1_554 S
C528 C529 1.391 . S
C528 C530 1.394 . S
C528 H544 0.931 . S
C529 C528 1.391 . S
C529 C533 1.376 1_455 S
C530 C528 1.394 . S
C530 C531 1.369 . S
C530 C534 1.531 . S
C531 C530 1.369 . S
C531 C532 1.410 1_455 S
C531 C539 1.503 1_556 S
C532 C531 1.410 1_655 S
C532 C533 1.392 . S
C532 C535 1.511 . S
C533 C529 1.376 1_655 S
C533 C532 1.392 . S
C533 H545 0.929 . S
C534 C530 1.531 . S
C534 H546 0.960 1_556 S
C534 H547 0.962 . S
C534 H548 0.960 . S
C535 C532 1.511 . S
C535 H549 0.961 . S
C535 H550 0.961 . S
C535 H551 0.961 . S
C536 C537 1.370 . S
C536 C538 1.363 . S
C536 H552 0.931 . S
C537 C536 1.370 . S
C537 C541 1.408 1_455 S
C538 C536 1.363 . S
C538 C539 1.370 . S
C538 C542 1.506 1_554 S
C539 C531 1.503 1_554 S
C539 C538 1.370 . S
C539 C540 1.403 1_455 S
C540 C539 1.403 1_655 S
C540 C541 1.404 . S
C540 C543 1.539 . S
C541 C537 1.408 1_655 S
C541 C540 1.404 . S
C541 H553 0.930 . S
C542 C538 1.506 1_556 S
C542 H554 0.966 . S
C542 H555 0.979 . S
C542 H556 0.951 1_556 S
C543 C540 1.539 . S
C543 H557 0.958 . S
C543 H558 0.961 . S
C543 H559 0.960 . S
H544 C528 0.931 . S
H545 C533 0.929 . S
H546 C534 0.960 1_554 S
H547 C534 0.962 . S
H548 C534 0.960 . S
H549 C535 0.961 . S
H550 C535 0.961 . S
H551 C535 0.961 . S
H552 C536 0.931 . S
H553 C541 0.930 . S
H554 C542 0.966 . S
H555 C542 0.979 . S
H556 C542 0.951 1_554 S
H557 C543 0.958 . S
H558 C543 0.961 . S
H559 C543 0.960 . S
C560 C561 1.391 . S
C560 C562 1.394 . S
C560 H576 0.931 . S
C561 C560 1.391 . S
C561 C565 1.376 . S
C562 C560 1.394 . S
C562 C563 1.369 . S
C562 C566 1.531 . S
C563 C562 1.369 . S
C563 C564 1.410 . S
C563 C571 1.503 . S
C564 C563 1.410 . S
C564 C565 1.392 . S
C564 C567 1.511 . S
C565 C561 1.376 . S
C565 C564 1.392 . S
C565 H577 0.929 . S
C566 C562 1.531 . S
C566 H578 0.960 . S
C566 H579 0.962 . S
C566 H580 0.960 . S
C567 C564 1.511 . S
C567 H581 0.961 . S
C567 H582 0.961 . S
C567 H583 0.961 . S
C568 C569 1.370 . S
C568 C570 1.363 . S
C568 H584 0.931 . S
C569 C568 1.370 . S
C569 C573 1.408 . S
C570 C568 1.363 . S
C570 C571 1.370 . S
C570 C574 1.524 . S
C571 C563 1.503 . S
C571 C570 1.370 . S
C571 C572 1.403 . S
C572 C571 1.403 . S
C572 C573 1.404 . S
C572 C575 1.539 . S
C573 C569 1.408 . S
C573 C572 1.404 . S
C573 H585 0.930 . S
C574 C570 1.524 . S
C574 H586 0.956 . S
C574 H587 0.961 . S
C574 H588 0.961 . S
C575 C572 1.539 . S
C575 H589 0.958 . S
C575 H590 0.961 . S
C575 H591 0.960 . S
H576 C560 0.931 . S
H577 C565 0.929 . S
H578 C566 0.960 . S
H579 C566 0.962 . S
H580 C566 0.960 . S
H581 C567 0.961 . S
H582 C567 0.961 . S
H583 C567 0.961 . S
H584 C568 0.931 . S
H585 C573 0.930 . S
H586 C574 0.956 . S
H587 C574 0.961 . S
H588 C574 0.961 . S
H589 C575 0.958 . S
H590 C575 0.961 . S
H591 C575 0.960 . S
C592 C593 1.391 . S
C592 C594 1.394 . S
C592 H608 0.931 . S
C593 C592 1.391 . S
C593 C597 1.376 . S
C594 C592 1.394 . S
C594 C595 1.369 . S
C594 C598 1.531 . S
C595 C594 1.369 . S
C595 C596 1.410 . S
C595 C603 1.497 1_565 S
C596 C595 1.410 . S
C596 C597 1.392 . S
C596 C599 1.511 1_565 S
C597 C593 1.376 . S
C597 C596 1.392 . S
C597 H609 0.929 . S
C598 C594 1.531 . S
C598 H610 0.960 . S
C598 H611 0.962 . S
C598 H612 0.960 . S
C599 C596 1.511 1_545 S
C599 H613 0.961 . S
C599 H614 0.961 . S
C599 H615 0.961 . S
C600 C601 1.370 . S
C600 C602 1.363 . S
C600 H616 0.931 . S
C601 C600 1.370 . S
C601 C605 1.408 1_545 S
C602 C600 1.363 . S
C602 C603 1.387 . S
C602 C606 1.524 . S
C603 C595 1.497 1_545 S
C603 C602 1.387 . S
C603 C604 1.393 1_545 S
C604 C603 1.393 1_565 S
C604 C605 1.404 . S
C604 C607 1.539 . S
C605 C601 1.408 1_565 S
C605 C604 1.404 . S
C605 H617 0.930 . S
C606 C602 1.524 . S
C606 H618 0.956 . S
C606 H619 0.961 . S
C606 H620 0.961 . S
C607 C604 1.539 . S
C607 H621 0.958 . S
C607 H622 0.961 . S
C607 H623 0.960 . S
H608 C592 0.931 . S
H609 C597 0.929 . S
H610 C598 0.960 . S
H611 C598 0.962 . S
H612 C598 0.960 . S
H613 C599 0.961 . S
H614 C599 0.961 . S
H615 C599 0.961 . S
H616 C600 0.931 . S
H617 C605 0.930 . S
H618 C606 0.956 . S
H619 C606 0.961 . S
H620 C606 0.961 . S
H621 C607 0.958 . S
H622 C607 0.961 . S
H623 C607 0.960 . S
C113 C18 1.467 . S
C121 C4 1.477 . S
C145 C32 1.464 . S
C153 C46 1.478 . S
C177 C60 1.477 . S
C185 C74 1.463 . S
C209 C88 1.457 . S
C217 C102 1.480 . S
C241 C110 1.490 . S
C249 C12 1.488 . S
C273 C96 1.469 . S
C281 C26 1.480 . S
C305 C40 1.474 . S
C313 C82 1.483 . S
C337 C68 1.470 . S
C345 C54 1.481 . S
C369 C75 1.277 . S
C377 C33 1.246 . S
C401 C61 1.178 . S
C409 C47 1.218 . S
C433 C103 1.176 . S
C441 C5 1.212 . S
C465 C19 1.177 . S
C473 C89 1.211 . S
C497 C11 1.357 . S
C505 C39 1.334 . S
C529 C53 1.303 . S
C537 C25 1.335 . S
C561 C95 1.351 . S
C569 C67 1.326 . S
C593 C81 1.303 . S
C601 C109 1.335 . S
