# Generated by pormake.
# Topology nia-e, (7)-cn, num edge types: 1
# Building blocks:
#     Node 0, Type 0, BuildingBlock: OLANEW_clean_sbu_3, # of connection points: 7
#     Node 1, Type 0, BuildingBlock: OLANEW_clean_sbu_3, # of connection points: 7
#     Node 2, Type 0, BuildingBlock: OLANEW_clean_sbu_3, # of connection points: 7
#     Node 3, Type 0, BuildingBlock: OLANEW_clean_sbu_3, # of connection points: 7
#     Node 4, Type 0, BuildingBlock: OLANEW_clean_sbu_3, # of connection points: 7
#     Node 5, Type 0, BuildingBlock: OLANEW_clean_sbu_3, # of connection points: 7
#     Node 6, Type 0, BuildingBlock: OLANEW_clean_sbu_3, # of connection points: 7
#     Node 7, Type 0, BuildingBlock: OLANEW_clean_sbu_3, # of connection points: 7
#     Node 8, Type 0, BuildingBlock: OLANEW_clean_sbu_3, # of connection points: 7
#     Node 9, Type 0, BuildingBlock: OLANEW_clean_sbu_3, # of connection points: 7
#     Node 10, Type 0, BuildingBlock: OLANEW_clean_sbu_3, # of connection points: 7
#     Node 11, Type 0, BuildingBlock: OLANEW_clean_sbu_3, # of connection points: 7
#     Edge 12, Type (0, 0), BuildingBlock: XIVTED_clean_linker_0, # of connection points: 2
#     Edge 13, Type (0, 0), BuildingBlock: XIVTED_clean_linker_0, # of connection points: 2
#     Edge 14, Type (0, 0), BuildingBlock: XIVTED_clean_linker_0, # of connection points: 2
#     Edge 15, Type (0, 0), BuildingBlock: XIVTED_clean_linker_0, # of connection points: 2
#     Edge 16, Type (0, 0), BuildingBlock: XIVTED_clean_linker_0, # of connection points: 2
#     Edge 17, Type (0, 0), BuildingBlock: XIVTED_clean_linker_0, # of connection points: 2
#     Edge 18, Type (0, 0), BuildingBlock: XIVTED_clean_linker_0, # of connection points: 2
#     Edge 19, Type (0, 0), BuildingBlock: XIVTED_clean_linker_0, # of connection points: 2
#     Edge 20, Type (0, 0), BuildingBlock: XIVTED_clean_linker_0, # of connection points: 2
#     Edge 21, Type (0, 0), BuildingBlock: XIVTED_clean_linker_0, # of connection points: 2
#     Edge 22, Type (0, 0), BuildingBlock: XIVTED_clean_linker_0, # of connection points: 2
#     Edge 23, Type (0, 0), BuildingBlock: XIVTED_clean_linker_0, # of connection points: 2
#     Edge 24, Type (0, 0), BuildingBlock: XIVTED_clean_linker_0, # of connection points: 2
#     Edge 25, Type (0, 0), BuildingBlock: XIVTED_clean_linker_0, # of connection points: 2
#     Edge 26, Type (0, 0), BuildingBlock: XIVTED_clean_linker_0, # of connection points: 2
#     Edge 27, Type (0, 0), BuildingBlock: XIVTED_clean_linker_0, # of connection points: 2
#     Edge 28, Type (0, 0), BuildingBlock: XIVTED_clean_linker_0, # of connection points: 2
#     Edge 29, Type (0, 0), BuildingBlock: XIVTED_clean_linker_0, # of connection points: 2
#     Edge 30, Type (0, 0), BuildingBlock: XIVTED_clean_linker_0, # of connection points: 2
#     Edge 31, Type (0, 0), BuildingBlock: XIVTED_clean_linker_0, # of connection points: 2
#     Edge 32, Type (0, 0), BuildingBlock: XIVTED_clean_linker_0, # of connection points: 2
#     Edge 33, Type (0, 0), BuildingBlock: XIVTED_clean_linker_0, # of connection points: 2
#     Edge 34, Type (0, 0), BuildingBlock: XIVTED_clean_linker_0, # of connection points: 2
#     Edge 35, Type (0, 0), BuildingBlock: XIVTED_clean_linker_0, # of connection points: 2
#     Edge 36, Type (0, 0), BuildingBlock: XIVTED_clean_linker_0, # of connection points: 2
#     Edge 37, Type (0, 0), BuildingBlock: XIVTED_clean_linker_0, # of connection points: 2
#     Edge 38, Type (0, 0), BuildingBlock: XIVTED_clean_linker_0, # of connection points: 2
#     Edge 39, Type (0, 0), BuildingBlock: XIVTED_clean_linker_0, # of connection points: 2
#     Edge 40, Type (0, 0), BuildingBlock: XIVTED_clean_linker_0, # of connection points: 2
#     Edge 41, Type (0, 0), BuildingBlock: XIVTED_clean_linker_0, # of connection points: 2
#     Edge 42, Type (0, 0), BuildingBlock: XIVTED_clean_linker_0, # of connection points: 2
#     Edge 43, Type (0, 0), BuildingBlock: XIVTED_clean_linker_0, # of connection points: 2
#     Edge 44, Type (0, 0), BuildingBlock: XIVTED_clean_linker_0, # of connection points: 2
#     Edge 45, Type (0, 0), BuildingBlock: XIVTED_clean_linker_0, # of connection points: 2
#     Edge 46, Type (0, 0), BuildingBlock: XIVTED_clean_linker_0, # of connection points: 2
#     Edge 47, Type (0, 0), BuildingBlock: XIVTED_clean_linker_0, # of connection points: 2
#     Edge 48, Type (0, 0), BuildingBlock: XIVTED_clean_linker_0, # of connection points: 2
#     Edge 49, Type (0, 0), BuildingBlock: XIVTED_clean_linker_0, # of connection points: 2
#     Edge 50, Type (0, 0), BuildingBlock: XIVTED_clean_linker_0, # of connection points: 2
#     Edge 51, Type (0, 0), BuildingBlock: XIVTED_clean_linker_0, # of connection points: 2
#     Edge 52, Type (0, 0), BuildingBlock: XIVTED_clean_linker_0, # of connection points: 2
#     Edge 53, Type (0, 0), BuildingBlock: XIVTED_clean_linker_0, # of connection points: 2
# Relax obj value: 0.212
# Max RMSD: 0.283
# Mean RMSD: 0.283
data_MOF--net-nia-e--node1-OLANEW_clean_sbu_3--edge1-XIVTED_clean_linker_0
_symmetry_space_group_name_H-M    P1
_symmetry_Int_Tables_number       1
_symmetry_cell_setting            triclinic
loop_
_symmetry_equiv_pos_as_xyz
'x, y, z'
_cell_length_a     45.621212
_cell_length_b     66.030617
_cell_length_c     0.98062087
_cell_angle_alpha  89.986723
_cell_angle_beta   119.99117
_cell_angle_gamma 45.657162
loop_
_atom_site_label
_atom_site_type_symbol
_atom_site_fract_x
_atom_site_fract_y
_atom_site_fract_z
_atom_type_partial_charge
C0 C -0.00246 0.18459 12.80603 0.0
C1 C 0.05746 0.15469 14.17418 0.0
C2 C 0.08344 0.12705 13.95991 0.0
C3 C 0.04965 0.12965 12.40815 0.0
C4 C -0.00999 0.1603 11.09736 0.0
N5 N -0.03187 0.18565 11.36233 0.0
C6 C -0.05446 0.16859 9.45728 0.0
C7 C -0.15879 0.21327 6.8921 0.0
C8 C -0.17447 0.2237 5.15967 0.0
C9 C -0.22164 0.23621 3.52031 0.0
C10 C -0.25311 0.23811 3.60461 0.0
C11 C -0.23697 0.22707 5.33423 0.0
C12 C -0.1898 0.21453 6.976 0.0
Cd13 Cd -0.01622 0.0996 9.19922 0.0
Cd14 Cd 0.12004 0.02097 14.04221 0.0
C15 C -0.14024 0.27591 10.73799 0.0
C16 C -0.22081 0.32089 10.39266 0.0
C17 C -0.22218 0.34177 9.94687 0.0
C18 C -0.18162 0.32972 9.96895 0.0
C19 C -0.14098 0.29688 10.34256 0.0
C20 C -0.17867 0.2876 10.84878 0.0
Co21 Co -0.11013 0.22402 9.73938 0.0
N22 N -0.12395 0.24776 7.80504 0.0
N23 N -0.1883 0.2619 8.13394 0.0
C24 C -0.21824 0.28717 6.54112 0.0
C25 C -0.27807 0.31613 5.25706 0.0
C26 C -0.30338 0.31685 5.72778 0.0
C27 C -0.26899 0.2891 7.45092 0.0
C28 C -0.20951 0.26103 8.66065 0.0
N29 N -0.10946 0.20715 11.40393 0.0
N30 N -0.10957 0.19964 8.5839 0.0
N31 N -0.09774 0.24193 11.16303 0.0
O32 O 0.07823 0.00837 12.90343 0.0
O33 O -8e-05 0.05488 9.95305 0.0
C34 C -0.12315 0.1399 5.4971 0.0
O35 O -0.11684 0.13649 6.93178 0.0
O36 O -0.08145 0.12664 5.77443 0.0
C37 C 0.11769 0.04055 10.71333 0.0
O38 O 0.06322 0.06564 9.37235 0.0
O39 O 0.14416 0.02398 12.43268 0.0
C40 C -0.18176 0.27948 6.36582 0.0
O41 O -0.20354 0.30181 4.91121 0.0
O42 O 0.00501 0.0998 12.02459 0.0
O43 O 0.08421 0.05742 15.05215 0.0
C44 C -0.1643 0.22945 10.53122 0.0
O45 O -0.17569 0.22287 11.29703 0.0
C46 C -0.06051 0.17328 13.08309 0.0
C47 C -0.04426 0.14757 12.83185 0.0
C48 C 0.01079 0.11329 14.29143 0.0
C49 C 0.04667 0.10452 16.11746 0.0
C50 C 0.02891 0.13013 16.4535 0.0
C51 C -0.02488 0.16491 14.91026 0.0
C52 C 0.03196 0.02593 11.23071 0.0
O53 O -0.04264 0.14957 8.70954 0.0
C54 C 0.03336 0.08845 13.78143 0.0
C55 C -0.08446 0.23442 7.65024 0.0
C56 C -0.03424 0.22089 9.11942 0.0
C57 C 0.00223 0.20972 8.92679 0.0
C58 C -0.01173 0.21296 7.23915 0.0
C59 C -0.06363 0.22853 5.68767 0.0
C60 C -0.09902 0.2384 5.92562 0.0
C61 C -0.03998 0.21692 12.6794 0.0
O62 O -0.01933 0.22167 13.91675 0.0
H63 H 0.08328 0.15262 15.36653 0.0
H64 H 0.12968 0.10353 15.00447 0.0
H65 H 0.06947 0.10826 12.26721 0.0
H66 H -0.14993 0.2218 5.08242 0.0
H67 H -0.28956 0.24776 2.33617 0.0
H68 H -0.17714 0.20537 8.30969 0.0
H69 H -0.25389 0.36722 9.64579 0.0
H70 H -0.10981 0.28752 10.34331 0.0
H71 H -0.175 0.27074 11.34126 0.0
H72 H -0.30435 0.33727 3.93613 0.0
H73 H -0.34953 0.33891 4.76219 0.0
H74 H -0.28823 0.28971 7.81992 0.0
H75 H -0.07277 0.15478 11.41797 0.0
H76 H 0.08943 0.07783 17.26358 0.0
H77 H -0.03768 0.18505 15.10531 0.0
H78 H -0.02434 0.22057 10.3765 0.0
H79 H 0.01659 0.20511 7.11645 0.0
H80 H -0.13886 0.25016 4.74395 0.0
C81 C 1.80542 -0.41226 60.01342 0.0
C82 C 1.85117 -0.42121 61.33545 0.0
C83 C 1.88303 -0.42933 60.94748 0.0
C84 C 1.86901 -0.4285 59.27374 0.0
C85 C 1.82264 -0.41927 58.01538 0.0
N86 N 1.79367 -0.41127 58.44634 0.0
C87 C 1.80223 -0.4193 56.27584 0.0
C88 C 1.73382 -0.41147 53.78422 0.0
C89 C 1.69294 -0.38242 51.99312 0.0
C90 C 1.6674 -0.38096 50.33788 0.0
C91 C 1.68279 -0.40854 50.46411 0.0
C92 C 1.72418 -0.43777 52.24725 0.0
C93 C 1.74987 -0.43934 53.90482 0.0
Cd94 Cd 1.8952 -0.47197 55.59909 0.0
Cd95 Cd 2.05372 -0.52889 60.94827 0.0
C96 C 1.67452 -0.37798 58.09109 0.0
C97 C 1.61208 -0.37577 57.28287 0.0
C98 C 1.57213 -0.34255 56.85631 0.0
C99 C 1.58398 -0.32748 57.13841 0.0
C100 C 1.63494 -0.34503 57.72847 0.0
C101 C 1.6644 -0.39399 57.98451 0.0
Co102 Co 1.73744 -0.40313 56.875 0.0
N103 N 1.67664 -0.35396 55.09365 0.0
N104 N 1.68213 -0.39571 55.31319 0.0
C105 C 1.62952 -0.36362 53.81379 0.0
C106 C 1.58613 -0.35695 52.59112 0.0
C107 C 1.60081 -0.38482 53.01799 0.0
C108 C 1.65775 -0.41839 54.63233 0.0
C109 C 1.69883 -0.42307 55.78687 0.0
N110 N 1.78866 -0.4506 58.40391 0.0
N111 N 1.75978 -0.41293 55.48161 0.0
N112 N 1.72416 -0.39475 58.52288 0.0
O113 O 2.07711 -0.56437 59.75656 0.0
O114 O 1.99116 -0.5301 56.8629 0.0
C115 C 1.82755 -0.46666 52.40898 0.0
O116 O 1.86246 -0.49012 54.11083 0.0
O117 O 1.82215 -0.44498 52.20209 0.0
C118 C 1.95303 -0.46076 56.4751 0.0
O119 O 1.90771 -0.44418 54.81432 0.0
O120 O 1.96914 -0.48 57.80675 0.0
C121 C 1.62618 -0.33973 53.68744 0.0
O122 O 1.57774 -0.30681 52.31761 0.0
O123 O 1.94267 -0.5011 58.93266 0.0
O124 O 2.01841 -0.5322 61.98023 0.0
C125 C 1.76005 -0.45466 57.56554 0.0
O126 O 1.78571 -0.48471 58.27114 0.0
C127 C 1.84933 -0.47849 60.01678 0.0
C128 C 1.88362 -0.49138 59.68203 0.0
C129 C 1.94024 -0.51233 61.15579 0.0
C130 C 1.96524 -0.5249 63.03916 0.0
C131 C 1.93272 -0.51464 63.43358 0.0
C132 C 1.87373 -0.49025 61.89968 0.0
C133 C 2.04597 -0.55819 58.14408 0.0
O134 O 1.82013 -0.42224 55.43463 0.0
C135 C 1.96953 -0.51672 60.67703 0.0
C136 C 1.68221 -0.335 55.05601 0.0
C137 C 1.70379 -0.33354 56.62193 0.0
C138 C 1.70997 -0.3157 56.61008 0.0
C139 C 1.6922 -0.29763 55.00073 0.0
C140 C 1.66551 -0.29589 53.33217 0.0
C141 C 1.66195 -0.31545 53.39386 0.0
C142 C 1.76521 -0.4024 60.05091 0.0
O143 O 1.76598 -0.39865 61.37999 0.0
H144 H 1.86217 -0.42209 62.62082 0.0
H145 H 1.91892 -0.43659 61.95251 0.0
H146 H 1.89426 -0.43557 59.0019 0.0
H147 H 1.6809 -0.36101 51.87764 0.0
H148 H 1.66304 -0.4074 49.18297 0.0
H149 H 1.78237 -0.46231 55.27479 0.0
H150 H 1.53249 -0.32889 56.38077 0.0
H151 H 1.6435 -0.33305 57.88274 0.0
H152 H 1.69663 -0.4203 58.41892 0.0
H153 H 1.54265 -0.33131 51.35494 0.0
H154 H 1.56807 -0.38038 52.10224 0.0
H155 H 1.66892 -0.43965 54.96704 0.0
H156 H 1.86437 -0.48262 58.23205 0.0
H157 H 2.00955 -0.54172 64.20001 0.0
H158 H 1.84707 -0.48039 62.16085 0.0
H159 H 1.7141 -0.3451 57.83397 0.0
H160 H 1.69831 -0.28439 55.06073 0.0
H161 H 1.64161 -0.31457 52.1353 0.0
C162 C -0.25601 0.5855 12.96292 0.0
C163 C -0.24059 0.59178 14.34508 0.0
C164 C -0.23273 0.60853 14.15708 0.0
C165 C -0.24032 0.61862 12.61419 0.0
C166 C -0.25571 0.61149 11.28776 0.0
N167 N -0.26317 0.59599 11.53213 0.0
C168 C -0.26349 0.61772 9.61931 0.0
C169 C -0.28598 0.61016 6.97341 0.0
C170 C -0.33647 0.64355 5.30981 0.0
C171 C -0.34869 0.6494 3.63063 0.0
C172 C -0.31039 0.62203 3.60487 0.0
C173 C -0.25951 0.58884 5.2648 0.0
C174 C -0.24718 0.58291 6.94618 0.0
Cd175 Cd -0.20723 0.63435 9.14651 0.0
Cd176 Cd -0.14369 0.617 12.50198 0.0
C177 C -0.30291 0.55618 10.72693 0.0
C178 C -0.29417 0.5179 9.9931 0.0
C179 C -0.34528 0.53721 9.45714 0.0
C180 C -0.37356 0.5645 9.66292 0.0
C181 C -0.35297 0.57447 10.26199 0.0
C182 C -0.27168 0.52648 10.7221 0.0
Co183 Co -0.27909 0.58473 9.8464 0.0
N184 N -0.36279 0.62907 7.95657 0.0
N185 N -0.29372 0.57287 8.17912 0.0
C186 C -0.34858 0.59555 6.63437 0.0
C187 C -0.3616 0.5868 5.37496 0.0
C188 C -0.31549 0.55412 5.82275 0.0
C189 C -0.25803 0.53108 7.49794 0.0
C190 C -0.24843 0.54168 8.68574 0.0
N191 N -0.19874 0.53846 11.46256 0.0
N192 N -0.2726 0.60426 8.71208 0.0
N193 N -0.28317 0.56729 11.25014 0.0
O194 O -0.0809 0.60906 12.82995 0.0
O195 O -0.1331 0.62259 9.93228 0.0
C196 C -0.24762 0.64633 5.48329 0.0
O197 O -0.20246 0.61605 6.97656 0.0
O198 O -0.27537 0.67049 5.6828 0.0
C199 C -0.25438 0.69317 10.44884 0.0
O200 O -0.25853 0.6881 9.14386 0.0
O201 O -0.21405 0.66771 12.15156 0.0
C202 C -0.38792 0.62737 6.51145 0.0
O203 O -0.44387 0.65264 5.09526 0.0
O204 O -0.1442 0.57901 11.78233 0.0
O205 O -0.09557 0.56709 14.66649 0.0
C206 C -0.19381 0.52212 10.55416 0.0
O207 O -0.14381 0.49135 11.28854 0.0
C208 C -0.15063 0.52595 13.12391 0.0
C209 C -0.13309 0.5346 12.83592 0.0
C210 C -0.10184 0.53454 14.22994 0.0
C211 C -0.07817 0.51895 16.06582 0.0
C212 C -0.08971 0.50604 16.45687 0.0
C213 C -0.12757 0.51043 14.95586 0.0
C214 C -0.09257 0.61433 11.29908 0.0
O215 O -0.27138 0.64005 8.85243 0.0
C216 C -0.1098 0.55934 13.57495 0.0
C217 C -0.39558 0.66104 7.82247 0.0
C218 C -0.39186 0.66287 9.31348 0.0
C219 C -0.42581 0.69406 9.13934 0.0
C220 C -0.46565 0.72425 7.44914 0.0
C221 C -0.47341 0.72381 5.87611 0.0
C222 C -0.43707 0.69191 6.09564 0.0
C223 C -0.26833 0.56957 12.78862 0.0
O224 O -0.26701 0.5593 13.99217 0.0
H225 H -0.23475 0.58406 15.52492 0.0
H226 H -0.22049 0.61354 15.21121 0.0
H227 H -0.2335 0.63097 12.48544 0.0
H228 H -0.36597 0.66504 5.31754 0.0
H229 H -0.31982 0.62658 2.30601 0.0
H230 H -0.20697 0.55721 8.22599 0.0
H231 H -0.36126 0.52956 8.98819 0.0
H232 H -0.37549 0.59617 10.37272 0.0
H233 H -0.23009 0.51005 11.28074 0.0
H234 H -0.40555 0.60436 4.09993 0.0
H235 H -0.32428 0.54656 4.88228 0.0
H236 H -0.22276 0.50584 7.86114 0.0
H237 H -0.15176 0.54648 11.40857 0.0
H238 H -0.0538 0.51876 17.16001 0.0
H239 H -0.14121 0.50357 15.18217 0.0
H240 H -0.36534 0.64082 10.57411 0.0
H241 H -0.49266 0.74813 7.34293 0.0
H242 H -0.44235 0.69124 4.89845 0.0
C243 C 1.18718 -0.0846 59.90794 0.0
C244 C 1.18612 -0.08291 61.30764 0.0
C245 C 1.15092 -0.05094 61.09716 0.0
C246 C 1.11796 -0.02164 59.51829 0.0
C247 C 1.12112 -0.02522 58.1745 0.0
N248 N 1.15439 -0.05595 58.43762 0.0
C249 C 1.09494 0.00029 56.49859 0.0
C250 C 1.08899 0.00843 53.87216 0.0
C251 C 1.03142 0.03329 52.16995 0.0
C252 C 1.00848 0.05432 50.50258 0.0
C253 C 1.04273 0.05081 50.52874 0.0
C254 C 1.09977 0.02656 52.22791 0.0
C255 C 1.12282 0.00552 53.89758 0.0
Cd256 Cd 1.04718 0.07403 56.28753 0.0
Cd257 Cd 1.11693 0.05283 61.18164 0.0
C258 C 1.23357 -0.13236 57.72002 0.0
C259 C 1.29178 -0.16656 57.05088 0.0
C260 C 1.27131 -0.17657 56.52934 0.0
C261 C 1.23509 -0.16658 56.7081 0.0
C262 C 1.21529 -0.14387 57.27116 0.0
C263 C 1.27492 -0.1458 57.735 0.0
Co264 Co 1.1625 -0.06071 56.76477 0.0
N265 N 1.0957 -0.04602 54.89855 0.0
N266 N 1.17139 -0.06543 55.11093 0.0
C267 C 1.13558 -0.05992 53.58203 0.0
C268 C 1.14282 -0.065 52.3376 0.0
C269 C 1.18819 -0.07592 52.78347 0.0
C270 C 1.22507 -0.08155 54.4424 0.0
C271 C 1.21507 -0.07589 55.61542 0.0
N272 N 1.23106 -0.07695 58.35964 0.0
N273 N 1.1122 -0.01263 55.5917 0.0
N274 N 1.21139 -0.10787 58.21296 0.0
O275 O 1.11005 0.08908 60.0434 0.0
O276 O 1.06304 0.10324 57.0774 0.0
C277 C 0.99798 0.11005 52.59597 0.0
O278 O 1.0521 0.08306 54.0004 0.0
O279 O 0.96783 0.11842 52.88953 0.0
C280 C 0.97839 0.10175 57.86004 0.0
O281 O 0.97606 0.104 56.5085 0.0
O282 O 1.0246 0.08308 59.57716 0.0
C283 C 1.09274 -0.04911 53.46297 0.0
O284 O 1.05412 -0.0429 52.06314 0.0
O285 O 1.14536 0.01679 59.1102 0.0
O286 O 1.19585 -0.00388 62.15933 0.0
C287 C 1.2489 -0.08203 57.46882 0.0
O288 O 1.29275 -0.09141 58.20854 0.0
C289 C 1.25361 -0.07728 60.03647 0.0
C290 C 1.22599 -0.04636 59.787 0.0
C291 C 1.23585 -0.04276 61.29795 0.0
C292 C 1.28155 -0.07208 63.1517 0.0
C293 C 1.31435 -0.10455 63.4699 0.0
C294 C 1.29857 -0.10688 61.88408 0.0
C295 C 1.08512 0.106 58.3622 0.0
O296 O 1.05195 0.03441 55.77349 0.0
C297 C 1.19194 -0.00807 60.84981 0.0
C298 C 1.05036 -0.02967 54.78071 0.0
C299 C 1.06278 -0.04578 56.29033 0.0
C300 C 1.01879 -0.03083 56.13241 0.0
C301 C 0.96155 -0.00019 54.44138 0.0
C302 C 0.94747 0.01545 52.85451 0.0
C303 C 0.99223 0.00098 53.05618 0.0
C304 C 1.21903 -0.11419 59.76517 0.0
O305 O 1.25093 -0.14425 61.00581 0.0
H306 H 1.21152 -0.10533 62.51929 0.0
H307 H 1.14957 -0.04895 62.16483 0.0
H308 H 1.09207 0.00259 59.38019 0.0
H309 H 1.00426 0.03661 52.13725 0.0
H310 H 1.02494 0.06711 49.2387 0.0
H311 H 1.1666 -0.01254 55.20805 0.0
H312 H 1.28646 -0.19401 56.08765 0.0
H313 H 1.18603 -0.13526 57.36437 0.0
H314 H 1.29401 -0.14023 58.27518 0.0
H315 H 1.11484 -0.0609 51.07624 0.0
H316 H 1.19507 -0.0803 51.85479 0.0
H317 H 1.26044 -0.09053 54.80507 0.0
H318 H 1.19247 -0.02423 58.35712 0.0
H319 H 1.2901 -0.06955 64.34061 0.0
H320 H 1.32069 -0.13118 62.0785 0.0
H321 H 1.106 -0.07075 57.555 0.0
H322 H 0.92854 0.01002 54.34615 0.0
H323 H 0.98179 0.01303 51.84739 0.0
C324 C -0.62234 0.51379 12.77358 0.0
C325 C -0.61316 0.49583 14.0636 0.0
C326 C -0.6617 0.51194 13.64963 0.0
C327 C -0.71776 0.54526 11.98097 0.0
C328 C -0.72364 0.56162 10.75586 0.0
N329 N -0.67622 0.54482 11.2132 0.0
C330 C -0.77596 0.59702 9.02509 0.0
C331 C -0.81121 0.64 6.59743 0.0
C332 C -0.84556 0.64795 4.78023 0.0
C333 C -0.8893 0.68039 3.15607 0.0
C334 C -0.89916 0.7051 3.33921 0.0
C335 C -0.86566 0.6975 5.14784 0.0
C336 C -0.82194 0.6651 6.77433 0.0
Cd337 Cd -0.89736 0.66246 8.35774 0.0
Cd338 Cd -0.82974 0.60877 13.68822 0.0
C339 C -0.57067 0.51798 10.91112 0.0
C340 C -0.54085 0.53146 10.14009 0.0
C341 C -0.51746 0.50617 9.76753 0.0
C342 C -0.51736 0.48537 10.06386 0.0
C343 C -0.54498 0.49171 10.60308 0.0
C344 C -0.56497 0.53611 10.80022 0.0
Co345 Co -0.68531 0.5684 9.66814 0.0
N346 N -0.69975 0.55577 7.86931 0.0
N347 N -0.69496 0.59252 8.12986 0.0
C348 C -0.70538 0.59103 6.62664 0.0
C349 C -0.71292 0.60909 5.42032 0.0
C350 C -0.70922 0.62803 5.86675 0.0
C351 C -0.69846 0.62874 7.48173 0.0
C352 C -0.69151 0.61011 8.6187 0.0
N353 N -0.67182 0.58446 11.21913 0.0
N354 N -0.76631 0.60675 8.2641 0.0
N355 N -0.60273 0.52629 11.32295 0.0
O356 O -0.90419 0.66815 12.54808 0.0
O357 O -0.93912 0.69291 9.67822 0.0
C358 C -0.96521 0.72344 5.23355 0.0
O359 O -0.93109 0.71303 6.94937 0.0
O360 O -0.96518 0.70459 4.98338 0.0
C361 C -0.9169 0.63215 9.19368 0.0
O362 O -0.94213 0.65004 7.53404 0.0
O363 O -0.87718 0.62439 10.53388 0.0
C364 C -0.70798 0.57002 6.47632 0.0
O365 O -0.71771 0.56533 5.0906 0.0
O366 O -0.80438 0.62386 11.67784 0.0
O367 O -0.75228 0.5925 14.71622 0.0
C368 C -0.67808 0.60545 10.39695 0.0
O369 O -0.67388 0.621 11.11568 0.0
C370 C -0.66515 0.57966 12.82247 0.0
C371 C -0.7137 0.59924 12.47087 0.0
C372 C -0.70878 0.59023 13.9308 0.0
C373 C -0.65495 0.56481 15.82022 0.0
C374 C -0.6057 0.54682 16.23492 0.0
C375 C -0.61066 0.55343 14.71284 0.0
C376 C -0.94085 0.69484 10.9423 0.0
O377 O -0.82941 0.6171 8.15845 0.0
C378 C -0.75816 0.60396 13.42939 0.0
C379 C -0.70826 0.53828 7.79669 0.0
C380 C -0.66459 0.50495 9.3388 0.0
C381 C -0.67257 0.48803 9.29579 0.0
C382 C -0.72329 0.50347 7.68013 0.0
C383 C -0.7664 0.53582 6.03658 0.0
C384 C -0.75877 0.55335 6.12755 0.0
C385 C -0.58013 0.50295 12.83224 0.0
O386 O -0.52516 0.47208 14.16355 0.0
H387 H -0.57033 0.47044 15.34191 0.0
H388 H -0.65584 0.49874 14.62884 0.0
H389 H -0.75474 0.55788 11.68709 0.0
H390 H -0.83861 0.62916 4.6199 0.0
H391 H -0.93304 0.7302 2.08193 0.0
H392 H -0.79682 0.65976 8.16369 0.0
H393 H -0.49647 0.50144 9.33769 0.0
H394 H -0.54681 0.4765 10.77165 0.0
H395 H -0.57954 0.55394 11.21081 0.0
H396 H -0.72138 0.60867 4.18189 0.0
H397 H -0.71459 0.6421 4.96434 0.0
H398 H -0.69527 0.64302 7.83064 0.0
H399 H -0.75522 0.61982 11.01781 0.0
H400 H -0.65083 0.55808 16.97044 0.0
H401 H -0.57286 0.53841 14.9888 0.0
H402 H -0.6235 0.49137 10.55711 0.0
H403 H -0.72789 0.48953 7.71616 0.0
H404 H -0.79098 0.57812 4.88618 0.0
C405 C 1.44524 -0.48658 60.05765 0.0
C406 C 1.48829 -0.5208 61.47147 0.0
C407 C 1.47359 -0.53437 61.29317 0.0
C408 C 1.41697 -0.51386 59.72954 0.0
C409 C 1.37617 -0.47988 58.37105 0.0
N410 N 1.39298 -0.46877 58.60516 0.0
C411 C 1.31409 -0.45276 56.68364 0.0
C412 C 1.22504 -0.39183 53.99139 0.0
C413 C 1.20754 -0.39136 52.32558 0.0
C414 C 1.14956 -0.3634 50.61862 0.0
C415 C 1.10871 -0.33589 50.56823 0.0
C416 C 1.12575 -0.33649 52.22971 0.0
C417 C 1.18371 -0.36441 53.93869 0.0
Cd418 Cd 1.23726 -0.45906 56.20379 0.0
Cd419 Cd 1.31596 -0.51076 59.60009 0.0
C420 C 1.39602 -0.41115 57.75322 0.0
C421 C 1.35408 -0.35717 56.94462 0.0
C422 C 1.38376 -0.36583 56.45457 0.0
C423 C 1.42229 -0.39776 56.71876 0.0
C424 C 1.42751 -0.42017 57.33299 0.0
C425 C 1.36273 -0.38076 57.68512 0.0
Co426 Co 1.3373 -0.42329 56.88445 0.0
N427 N 1.34313 -0.42987 55.02993 0.0
N428 N 1.28095 -0.37757 55.17898 0.0
C429 C 1.27067 -0.36909 53.62587 0.0
C430 C 1.22895 -0.33457 52.31421 0.0
C431 C 1.19999 -0.31058 52.71596 0.0
C432 C 1.21293 -0.32132 54.3945 0.0
C433 C 1.25507 -0.35624 55.63595 0.0
N434 N 1.3231 -0.40922 58.45693 0.0
N435 N 1.28439 -0.42074 55.75052 0.0
N436 N 1.39917 -0.4333 58.29573 0.0
O437 O 1.26568 -0.5089 59.87667 0.0
O438 O 1.19739 -0.46556 56.91964 0.0
C439 C 1.1226 -0.39256 52.7621 0.0
O440 O 1.14175 -0.39902 54.40357 0.0
O441 O 1.15765 -0.41661 52.70957 0.0
C442 C 1.33378 -0.54254 57.32954 0.0
O443 O 1.28306 -0.5109 56.04706 0.0
O444 O 1.3663 -0.55205 59.03317 0.0
C445 C 1.30624 -0.39877 53.54408 0.0
O446 O 1.30321 -0.39558 52.13947 0.0
O447 O 1.2883 -0.4597 58.90593 0.0
O448 O 1.36083 -0.50583 61.80754 0.0
C449 C 1.27861 -0.3743 57.50371 0.0
O450 O 1.25807 -0.35807 58.19985 0.0
C451 C 1.34562 -0.43052 60.14271 0.0
C452 C 1.31799 -0.43476 59.88923 0.0
C453 C 1.34702 -0.46357 61.31109 0.0
C454 C 1.4001 -0.48443 63.13782 0.0
C455 C 1.42579 -0.47787 63.49737 0.0
C456 C 1.39888 -0.45116 61.9693 0.0
C457 C 1.21381 -0.4845 58.29606 0.0
O458 O 1.29058 -0.46005 55.9376 0.0
C459 C 1.32889 -0.47594 60.69291 0.0
C460 C 1.37461 -0.46029 55.00456 0.0
C461 C 1.43388 -0.49093 56.55489 0.0
C462 C 1.46464 -0.52014 56.53325 0.0
C463 C 1.43742 -0.51889 54.92312 0.0
C464 C 1.37898 -0.48778 53.2599 0.0
C465 C 1.34748 -0.45878 53.34021 0.0
C466 C 1.4491 -0.46648 59.87145 0.0
O467 O 1.49766 -0.47991 61.0915 0.0
H468 H 1.53152 -0.53646 62.66913 0.0
H469 H 1.50595 -0.5607 62.3725 0.0
H470 H 1.40549 -0.52405 59.61102 0.0
H471 H 1.23861 -0.41267 52.35113 0.0
H472 H 1.06384 -0.3143 49.24779 0.0
H473 H 1.19602 -0.36474 55.21729 0.0
H474 H 1.3796 -0.34845 55.98023 0.0
H475 H 1.45596 -0.44451 57.49083 0.0
H476 H 1.34365 -0.37541 58.20736 0.0
H477 H 1.21906 -0.32638 51.03064 0.0
H478 H 1.16777 -0.28375 51.73262 0.0
H479 H 1.19133 -0.30308 54.71516 0.0
H480 H 1.27699 -0.41828 58.46727 0.0
H481 H 1.42296 -0.50686 64.25198 0.0
H482 H 1.42039 -0.44771 62.17165 0.0
H483 H 1.45738 -0.49218 57.75145 0.0
H484 H 1.46296 -0.54224 54.97153 0.0
H485 H 1.30252 -0.43462 52.08488 0.0
C486 C 0.30119 0.30129 33.72653 0.0
C487 C 0.30113 0.30978 32.41695 0.0
C488 C 0.32521 0.3177 32.80963 0.0
C489 C 0.34848 0.3171 34.47679 0.0
C490 C 0.34709 0.30835 35.72171 0.0
N491 N 0.32464 0.30061 35.28442 0.0
C492 C 0.36381 0.30853 37.45627 0.0
C493 C 0.36328 0.30173 39.91708 0.0
C494 C 0.41929 0.27291 41.72375 0.0
C495 C 0.4314 0.27216 43.35832 0.0
C496 C 0.38774 0.30024 43.19593 0.0
C497 C 0.33203 0.32926 41.39733 0.0
C498 C 0.31982 0.3301 39.76051 0.0
Cd499 Cd 0.36659 0.36057 38.10514 0.0
Cd500 Cd 0.30489 0.40878 32.83164 0.0
C501 C 0.28056 0.26715 35.63581 0.0
C502 C 0.23907 0.26505 36.39543 0.0
C503 C 0.27459 0.23216 36.7753 0.0
C504 C 0.31082 0.21721 36.49147 0.0
C505 C 0.31447 0.23456 35.94922 0.0
C506 C 0.24039 0.28306 35.74452 0.0
Co507 Co 0.3185 0.29258 36.85234 0.0
N508 N 0.39553 0.24346 38.64165 0.0
N509 N 0.31163 0.28525 38.41136 0.0
C510 C 0.35612 0.25317 39.91123 0.0
C511 C 0.35234 0.24654 41.12872 0.0
C512 C 0.30134 0.27442 40.69532 0.0
C513 C 0.25572 0.30798 39.08035 0.0
C514 C 0.26267 0.31263 37.9315 0.0
N515 N 0.24069 0.34008 35.31484 0.0
N516 N 0.35075 0.30254 38.23993 0.0
N517 N 0.28708 0.28394 35.21111 0.0
O518 O 0.28818 0.44519 33.9218 0.0
O519 O 0.32749 0.41509 36.77493 0.0
C520 C 0.37187 0.36004 41.15844 0.0
O521 O 0.32442 0.38442 39.42755 0.0
O522 O 0.41584 0.33548 41.45531 0.0
C523 C 0.43392 0.34249 37.3396 0.0
O524 O 0.45557 0.32878 39.00382 0.0
O525 O 0.3831 0.36087 35.99467 0.0
C526 C 0.40396 0.22926 40.04431 0.0
O527 O 0.45173 0.1964 41.42443 0.0
O528 O 0.28352 0.38883 34.82367 0.0
O529 O 0.23446 0.41757 31.79432 0.0
C530 C 0.22177 0.34418 36.15011 0.0
O531 O 0.17144 0.37423 35.44123 0.0
C532 C 0.21036 0.36799 33.7058 0.0
C533 C 0.22599 0.38075 34.0447 0.0
C534 C 0.20921 0.40136 32.57739 0.0
C535 C 0.16836 0.41395 30.69352 0.0
C536 C 0.14754 0.40404 30.29163 0.0
C537 C 0.17052 0.3798 31.82181 0.0
C538 C 0.30315 0.44083 35.50651 0.0
O539 O 0.39438 0.31111 38.30717 0.0
C540 C 0.24177 0.40439 33.07286 0.0
C541 C 0.44072 0.22469 38.70615 0.0
C542 C 0.43263 0.2229 37.15761 0.0
C543 C 0.47564 0.20523 37.19656 0.0
C544 C 0.52838 0.18778 38.81416 0.0
C545 C 0.53994 0.18654 40.46249 0.0
C546 C 0.49508 0.20579 40.37561 0.0
C547 C 0.28019 0.29139 33.69004 0.0
O548 O 0.26017 0.28755 32.36318 0.0
H549 H 0.28315 0.31038 31.1394 0.0
H550 H 0.32539 0.32458 31.8151 0.0
H551 H 0.36566 0.32392 34.75458 0.0
H552 H 0.45348 0.25115 41.86772 0.0
H553 H 0.39715 0.29965 44.46117 0.0
H554 H 0.27666 0.3529 38.37888 0.0
H555 H 0.27196 0.21876 37.20929 0.0
H556 H 0.34376 0.22271 35.78758 0.0
H557 H 0.2105 0.3092 35.33698 0.0
H558 H 0.38725 0.22092 42.36537 0.0
H559 H 0.29711 0.27001 41.60652 0.0
H560 H 0.21658 0.32924 38.74016 0.0
H561 H 0.25573 0.37189 35.49607 0.0
H562 H 0.15445 0.43035 29.54043 0.0
H563 H 0.15801 0.37005 31.55758 0.0
H564 H 0.39396 0.23409 35.93823 0.0
H565 H 0.56039 0.17465 38.77665 0.0
H566 H 0.50284 0.20515 41.62171 0.0
C567 C 1.71909 -0.29964 80.86207 0.0
C568 C 1.68862 -0.26964 79.48258 0.0
C569 C 1.66154 -0.24154 79.65795 0.0
C570 C 1.66538 -0.24386 81.18833 0.0
C571 C 1.69685 -0.27473 82.52042 0.0
N572 N 1.7221 -0.30047 82.29041 0.0
C573 C 1.7045 -0.28309 84.16275 0.0
C574 C 1.74883 -0.32867 86.79569 0.0
C575 C 1.79104 -0.3385 88.5067 0.0
C576 C 1.80542 -0.35136 90.16594 0.0
C577 C 1.77746 -0.35425 90.12256 0.0
C578 C 1.73464 -0.34391 88.41464 0.0
C579 C 1.72015 -0.33102 86.75295 0.0
Cd580 Cd 1.60438 -0.21372 84.27726 0.0
Cd581 Cd 1.47835 -0.13651 79.36398 0.0
C582 C 1.81584 -0.39217 83.07261 0.0
C583 C 1.842 -0.44045 83.80068 0.0
C584 C 1.89337 -0.46089 84.32234 0.0
C585 C 1.90485 -0.44688 84.10565 0.0
C586 C 1.86651 -0.41257 83.51815 0.0
C587 C 1.80206 -0.40565 83.07774 0.0
Co588 Co 1.75867 -0.33948 83.96713 0.0
N589 N 1.83313 -0.36159 85.87116 0.0
N590 N 1.79396 -0.37803 85.62838 0.0
C591 C 1.84954 -0.40284 87.1927 0.0
C592 C 1.87834 -0.43302 88.46984 0.0
C593 C 1.84656 -0.43542 88.02224 0.0
C594 C 1.78742 -0.40802 86.333 0.0
C595 C 1.76161 -0.37866 85.12909 0.0
N596 N 1.6914 -0.3245 82.3439 0.0
N597 N 1.7332 -0.31479 85.085 0.0
N598 N 1.77786 -0.35761 82.56996 0.0
O599 O 1.43423 -0.12304 80.45842 0.0
O600 O 1.51254 -0.16829 83.44983 0.0
C601 C 1.6575 -0.25253 87.99415 0.0
O602 O 1.6302 -0.25186 86.61714 0.0
O603 O 1.66293 -0.23729 87.65764 0.0
C604 C 1.58631 -0.15523 82.68422 0.0
O605 O 1.6112 -0.17996 84.0421 0.0
O606 O 1.54264 -0.13907 80.96816 0.0
C607 C 1.87207 -0.39375 87.32494 0.0
O608 O 1.9265 -0.41541 88.74929 0.0
O609 O 1.56762 -0.21553 81.49896 0.0
O610 O 1.49677 -0.17432 78.44795 0.0
C611 C 1.7024 -0.34766 83.25499 0.0
O612 O 1.66294 -0.3426 82.50627 0.0
C613 C 1.63514 -0.29125 80.63088 0.0
C614 C 1.60256 -0.26513 80.82169 0.0
C615 C 1.55529 -0.23094 79.3111 0.0
C616 C 1.53506 -0.22302 77.49848 0.0
C617 C 1.56448 -0.24929 77.23279 0.0
C618 C 1.61582 -0.28372 78.82436 0.0
C619 C 1.45848 -0.13963 82.1319 0.0
O620 O 1.69187 -0.26337 84.86663 0.0
C621 C 1.53637 -0.20517 79.75659 0.0
C622 C 1.84724 -0.34729 85.97667 0.0
C623 C 1.83743 -0.3334 84.48076 0.0
C624 C 1.85421 -0.32155 84.63132 0.0
C625 C 1.88318 -0.32458 86.30609 0.0
C626 C 1.89754 -0.34067 87.88695 0.0
C627 C 1.87789 -0.35103 87.68842 0.0
C628 C 1.75165 -0.33247 81.03331 0.0
O629 O 1.75653 -0.33757 79.82419 0.0
H630 H 1.68562 -0.26784 78.31191 0.0
H631 H 1.63729 -0.21792 78.60188 0.0
H632 H 1.64378 -0.22218 81.30249 0.0
H633 H 1.81236 -0.33592 88.55213 0.0
H634 H 1.78856 -0.36417 91.40636 0.0
H635 H 1.68612 -0.32247 85.43597 0.0
H636 H 1.92302 -0.48743 84.7882 0.0
H637 H 1.87584 -0.40178 83.40338 0.0
H638 H 1.76055 -0.38928 82.52367 0.0
H639 H 1.92355 -0.45395 89.76132 0.0
H640 H 1.86779 -0.45853 88.97726 0.0
H641 H 1.76324 -0.40999 85.97511 0.0
H642 H 1.61842 -0.27173 82.2263 0.0
H643 H 1.4984 -0.19649 76.31388 0.0
H644 H 1.64154 -0.30416 78.67855 0.0
H645 H 1.82006 -0.33346 83.23818 0.0
H646 H 1.89748 -0.3163 86.39813 0.0
H647 H 1.88831 -0.36317 88.89354 0.0
C648 C -0.21156 0.37585 33.66401 0.0
C649 C -0.2678 0.41027 32.27001 0.0
C650 C -0.30631 0.42382 32.43782 0.0
C651 C -0.28833 0.40308 33.97163 0.0
C652 C -0.23151 0.36889 35.31036 0.0
N653 N -0.19704 0.35778 35.08751 0.0
C654 C -0.20323 0.34158 36.95877 0.0
C655 C -0.11217 0.28018 39.59185 0.0
C656 C -0.09446 0.27951 41.26416 0.0
C657 C -0.06011 0.25137 42.93415 0.0
C658 C -0.04361 0.22385 42.94145 0.0
C659 C -0.06207 0.22467 41.27208 0.0
C660 C -0.09643 0.25278 39.59985 0.0
Cd661 Cd -0.2851 0.34964 37.40557 0.0
Cd662 Cd -0.38375 0.39988 34.01643 0.0
C663 C -0.05914 0.29999 35.92133 0.0
C664 C 0.02483 0.24649 36.67554 0.0
C665 C 0.04755 0.25511 37.16975 0.0
C666 C 0.01611 0.28684 36.92851 0.0
C667 C -0.03683 0.30901 36.34239 0.0
C668 C -0.02987 0.26985 35.9579 0.0
Co669 Co -0.1245 0.31198 36.75897 0.0
N670 N -0.09006 0.31687 38.68621 0.0
N671 N -0.05251 0.26598 38.41103 0.0
C672 C -0.01104 0.25648 39.97915 0.0
C673 C 0.04492 0.22184 41.23458 0.0
C674 C 0.05428 0.1988 40.75887 0.0
C675 C 0.00827 0.21062 39.06086 0.0
C676 C -0.04647 0.24561 37.87845 0.0
N677 N -0.1462 0.29956 35.10204 0.0
N678 N -0.1485 0.30939 37.86597 0.0
N679 N -0.1125 0.32215 35.38347 0.0
O680 O -0.43162 0.39402 33.7394 0.0
O681 O -0.34715 0.35023 36.66174 0.0
C682 C -0.19352 0.28732 41.07046 0.0
O683 O -0.20879 0.2875 39.57136 0.0
O684 O -0.21794 0.31537 40.87831 0.0
C685 C -0.39184 0.43566 36.03915 0.0
O686 O -0.3477 0.4037 37.35558 0.0
O687 O -0.41553 0.44504 34.3345 0.0
C688 C -0.03211 0.28536 40.13155 0.0
O689 O 0.00279 0.28106 41.57085 0.0
O690 O -0.2913 0.34902 34.74525 0.0
O691 O -0.37505 0.39539 31.85207 0.0
C692 C -0.10039 0.26478 35.99314 0.0
O693 O -0.10457 0.24955 35.23345 0.0
C694 C -0.20362 0.32154 33.43241 0.0
C695 C -0.23363 0.32525 33.70933 0.0
C696 C -0.29339 0.35399 32.31199 0.0
C697 C -0.32265 0.37543 30.4826 0.0
C698 C -0.29233 0.36958 30.09718 0.0
C699 C -0.23229 0.34287 31.60359 0.0
C700 C -0.39784 0.36806 35.29754 0.0
O701 O -0.22545 0.34877 37.70646 0.0
C702 C -0.32249 0.36566 32.95477 0.0
C703 C -0.11806 0.34596 38.83595 0.0
C704 C -0.15505 0.3778 37.35815 0.0
C705 C -0.17961 0.40529 37.54415 0.0
C706 C -0.16615 0.40125 39.23323 0.0
C707 C -0.12623 0.3691 40.79448 0.0
C708 C -0.10349 0.34182 40.56378 0.0
C709 C -0.16308 0.35572 33.84749 0.0
O710 O -0.16763 0.36941 32.6518 0.0
H711 H -0.28163 0.42611 31.0938 0.0
H712 H -0.35016 0.45031 31.37294 0.0
H713 H -0.31803 0.41326 34.08087 0.0
H714 H -0.1077 0.30086 41.27077 0.0
H715 H -0.0171 0.20211 44.23333 0.0
H716 H -0.1114 0.25331 38.31255 0.0
H717 H 0.08856 0.23784 37.62974 0.0
H718 H -0.06071 0.33319 36.20297 0.0
H719 H -0.04944 0.26459 35.42143 0.0
H720 H 0.08012 0.21285 42.52815 0.0
H721 H 0.09717 0.17191 41.69608 0.0
H722 H 0.0155 0.19316 38.67776 0.0
H723 H -0.2101 0.30825 35.13012 0.0
H724 H -0.36913 0.39772 29.38498 0.0
H725 H -0.20872 0.33981 31.3829 0.0
H726 H -0.16278 0.38121 36.09883 0.0
H727 H -0.1845 0.42283 39.34829 0.0
H728 H -0.07309 0.31703 41.75165 0.0
C729 C 1.76196 -0.62523 80.65364 0.0
C730 C 1.70749 -0.60751 79.23367 0.0
C731 C 1.69984 -0.62422 79.46323 0.0
C732 C 1.74605 -0.65789 81.08023 0.0
C733 C 1.7993 -0.67404 82.4408 0.0
N734 N 1.80347 -0.65666 82.15729 0.0
C735 C 1.85485 -0.70961 84.16255 0.0
C736 C 1.95772 -0.75166 86.83808 0.0
C737 C 1.9709 -0.75924 88.53746 0.0
C738 C 2.02614 -0.79123 90.24255 0.0
C739 C 2.06837 -0.81591 90.25717 0.0
C740 C 2.0552 -0.80876 88.56223 0.0
C741 C 1.99998 -0.77679 86.85506 0.0
Cd742 Cd 1.87671 -0.77426 84.55667 0.0
Cd743 Cd 1.75524 -0.73177 79.95911 0.0
C744 C 1.86322 -0.62966 82.81503 0.0
C745 C 1.9323 -0.64074 83.32258 0.0
C746 C 1.91514 -0.61668 83.77931 0.0
C747 C 1.87043 -0.59779 83.67575 0.0
C748 C 1.84478 -0.60455 83.21084 0.0
C749 C 1.90493 -0.64632 82.77754 0.0
Co750 Co 1.87519 -0.67988 83.87016 0.0
N751 N 1.87005 -0.66848 85.66244 0.0
N752 N 1.94731 -0.70361 85.56914 0.0
C753 C 1.96381 -0.70278 87.1088 0.0
C754 C 2.01925 -0.72153 88.46928 0.0
C755 C 2.05476 -0.74044 88.13056 0.0
C756 C 2.03454 -0.74022 86.46079 0.0
C757 C 1.97865 -0.7209 85.16791 0.0
N758 N 1.89187 -0.69453 82.36051 0.0
N759 N 1.90092 -0.71901 85.08488 0.0
N760 N 1.83783 -0.63713 82.37546 0.0
O761 O 1.81675 -0.78907 80.87909 0.0
O762 O 1.88948 -0.81519 83.88329 0.0
C763 C 1.9968 -0.83218 87.99809 0.0
O764 O 1.97887 -0.82367 86.35886 0.0
O765 O 1.95894 -0.81272 88.04571 0.0
C766 C 1.75296 -0.72977 83.3599 0.0
O767 O 1.80741 -0.75426 84.65455 0.0
O768 O 1.72528 -0.71491 81.60385 0.0
C769 C 1.91965 -0.68237 87.15079 0.0
O770 O 1.9274 -0.67767 88.53151 0.0
O771 O 1.84047 -0.73956 81.68735 0.0
O772 O 1.76484 -0.70895 78.66276 0.0
C773 C 1.94707 -0.71598 83.33379 0.0
O774 O 1.97034 -0.73138 82.68671 0.0
C775 C 1.85725 -0.69027 80.69374 0.0
C776 C 1.86052 -0.71255 80.96577 0.0
C777 C 1.81803 -0.70474 79.46747 0.0
C778 C 1.77829 -0.67788 77.60398 0.0
C779 C 1.77812 -0.65709 77.25986 0.0
C780 C 1.81637 -0.66241 78.83197 0.0
C781 C 1.86573 -0.81628 82.52337 0.0
O782 O 1.85874 -0.72961 84.90804 0.0
C783 C 1.80932 -0.72014 79.93947 0.0
C784 C 1.82682 -0.65249 85.6642 0.0
C785 C 1.76922 -0.61989 84.08892 0.0
C786 C 1.72756 -0.60413 84.09331 0.0
C787 C 1.74293 -0.61985 85.705 0.0
C788 C 1.80095 -0.65121 87.38181 0.0
C789 C 1.84248 -0.66781 87.32354 0.0
C790 C 1.78132 -0.6138 80.78707 0.0
O791 O 1.74633 -0.58297 79.499 0.0
H792 H 1.67224 -0.58184 77.99394 0.0
H793 H 1.65825 -0.61119 78.38176 0.0
H794 H 1.74052 -0.67094 81.23516 0.0
H795 H 1.93845 -0.74055 88.5407 0.0
H796 H 2.11108 -0.84067 91.57639 0.0
H797 H 1.99026 -0.77191 85.55183 0.0
H798 H 1.93537 -0.61171 84.14927 0.0
H799 H 1.81079 -0.59047 83.1569 0.0
H800 H 1.91556 -0.66311 82.29913 0.0
H801 H 2.03482 -0.72185 89.7512 0.0
H802 H 2.09784 -0.75518 89.15833 0.0
H803 H 2.06152 -0.75453 86.19507 0.0
H804 H 1.89288 -0.73397 82.40639 0.0
H805 H 1.7457 -0.67205 76.42562 0.0
H806 H 1.81437 -0.64525 78.61662 0.0
H807 H 1.75627 -0.60569 82.88312 0.0
H808 H 1.70918 -0.60675 85.6448 0.0
H809 H 1.88728 -0.69188 88.5926 0.0
C810 C 0.34932 -0.03028 34.00504 0.0
C811 C 0.32224 -0.03369 32.75277 0.0
C812 C 0.35655 -0.06702 33.16457 0.0
C813 C 0.41647 -0.09596 34.79449 0.0
C814 C 0.44056 -0.0906 35.98417 0.0
N815 N 0.40571 -0.05859 35.53102 0.0
C816 C 0.50169 -0.11551 37.66617 0.0
C817 C 0.56798 -0.1208 39.99755 0.0
C818 C 0.59638 -0.14051 41.85132 0.0
C819 C 0.65114 -0.15954 43.41592 0.0
C820 C 0.67797 -0.15917 43.13648 0.0
C821 C 0.65031 -0.14007 41.29057 0.0
C822 C 0.59557 -0.12103 39.72364 0.0
Cd823 Cd 0.61276 -0.19261 38.2704 0.0
Cd824 Cd 0.51652 -0.17596 32.9573 0.0
C825 C 0.34416 0.02151 35.81544 0.0
C826 C 0.34802 0.05574 36.42098 0.0
C827 C 0.31619 0.06763 36.86585 0.0
C828 C 0.29542 0.05832 36.69605 0.0
C829 C 0.31016 0.0348 36.19611 0.0
C830 C 0.36 0.03373 35.82223 0.0
Co831 Co 0.43954 -0.05213 37.01741 0.0
N832 N 0.43907 -0.06155 38.898 0.0
N833 N 0.47394 -0.04589 38.49185 0.0
C834 C 0.48178 -0.04894 40.01822 0.0
C835 C 0.507 -0.04376 41.16109 0.0
C836 C 0.52273 -0.03554 40.62492 0.0
C837 C 0.51319 -0.03272 38.98169 0.0
C838 C 0.48785 -0.03831 37.91148 0.0
N839 N 0.4448 -0.04134 35.37275 0.0
N840 N 0.51178 -0.10121 38.39211 0.0
N841 N 0.36184 -0.00401 35.40349 0.0
O842 O 0.6071 -0.21195 34.02888 0.0
O843 O 0.65357 -0.22082 36.8821 0.0
C844 C 0.71071 -0.21642 41.36372 0.0
O845 O 0.68319 -0.19892 39.64292 0.0
O846 O 0.69087 -0.22107 41.63075 0.0
C847 C 0.58883 -0.22499 37.48465 0.0
O848 O 0.62097 -0.23297 39.13569 0.0
O849 O 0.56024 -0.19859 36.12765 0.0
C850 C 0.4619 -0.05782 40.25303 0.0
O851 O 0.46615 -0.06209 41.68076 0.0
O852 O 0.52835 -0.14071 34.95289 0.0
O853 O 0.4676 -0.12022 31.92495 0.0
C854 C 0.47104 -0.0356 36.11627 0.0
O855 O 0.48205 -0.02925 35.31833 0.0
C856 C 0.4312 -0.04385 33.7704 0.0
C857 C 0.46896 -0.07635 34.12115 0.0
C858 C 0.45207 -0.0811 32.67629 0.0
C859 C 0.40007 -0.05225 30.7913 0.0
C860 C 0.36352 -0.01883 30.36835 0.0
C861 C 0.37843 -0.01478 31.88731 0.0
C862 C 0.65244 -0.22652 35.61841 0.0
O863 O 0.54369 -0.1499 38.52536 0.0
C864 C 0.48539 -0.11583 33.19695 0.0
C865 C 0.42611 -0.07542 39.08604 0.0
C866 C 0.37174 -0.0576 37.61283 0.0
C867 C 0.35898 -0.07081 37.79539 0.0
C868 C 0.39965 -0.10147 39.47417 0.0
C869 C 0.4533 -0.11883 41.02622 0.0
C870 C 0.46642 -0.1058 40.8095 0.0
C871 C 0.32397 0.00095 33.93996 0.0
O872 O 0.26836 0.03105 32.64483 0.0
H873 H 0.2765 -0.01158 31.50415 0.0
H874 H 0.3368 -0.07037 32.21324 0.0
H875 H 0.44287 -0.1213 35.08512 0.0
H876 H 0.57633 -0.14124 42.08605 0.0
H877 H 0.72036 -0.17392 44.34766 0.0
H878 H 0.5751 -0.10674 38.30469 0.0
H879 H 0.30515 0.08567 37.26068 0.0
H880 H 0.29562 0.0267 36.11372 0.0
H881 H 0.38146 0.02624 35.36625 0.0
H882 H 0.51425 -0.04589 42.41569 0.0
H883 H 0.54203 -0.03122 41.4763 0.0
H884 H 0.52465 -0.0261 38.5599 0.0
H885 H 0.51006 -0.09826 35.56574 0.0
H886 H 0.38698 -0.0557 29.65501 0.0
H887 H 0.3495 0.01055 31.61602 0.0
H888 H 0.33817 -0.03281 36.3491 0.0
H889 H 0.38785 -0.11054 39.58811 0.0
H890 H 0.50763 -0.119 41.99296 0.0
C891 C 2.27421 -0.6991 80.78056 0.0
C892 C 2.27212 -0.70483 79.38057 0.0
C893 C 2.31839 -0.7221 79.5858 0.0
C894 C 2.36526 -0.73316 81.16126 0.0
C895 C 2.3645 -0.72662 82.50742 0.0
N896 N 2.32006 -0.71075 82.24963 0.0
C897 C 2.40543 -0.7331 84.18676 0.0
C898 C 2.4247 -0.72592 86.84422 0.0
C899 C 2.47453 -0.75875 88.54388 0.0
C900 C 2.50991 -0.7647 90.23811 0.0
C901 C 2.49593 -0.73796 90.24154 0.0
C902 C 2.44688 -0.70535 88.54637 0.0
C903 C 2.41146 -0.69934 86.84962 0.0
Cd904 Cd 2.49937 -0.74629 84.40864 0.0
Cd905 Cd 2.43803 -0.71366 79.5017 0.0
C906 C 2.215 -0.66881 82.98389 0.0
C907 C 2.16414 -0.63093 83.77577 0.0
C908 C 2.16049 -0.64877 84.22392 0.0
C909 C 2.18027 -0.67501 83.9382 0.0
C910 C 2.20875 -0.68557 83.35666 0.0
C911 C 2.18868 -0.63989 83.05836 0.0
Co912 Co 2.31762 -0.69942 83.93417 0.0
N913 N 2.36253 -0.74328 85.79636 0.0
N914 N 2.31519 -0.68761 85.60595 0.0
C915 C 2.33982 -0.71036 87.16156 0.0
C916 C 2.33829 -0.7021 88.45981 0.0
C917 C 2.31068 -0.66996 88.04477 0.0
C918 C 2.28563 -0.64702 86.36842 0.0
C919 C 2.289 -0.65711 85.1414 0.0
N920 N 2.27172 -0.65377 82.352 0.0
N921 N 2.38881 -0.7199 85.10126 0.0
N922 N 2.24679 -0.68067 82.48703 0.0
O923 O 2.48462 -0.70414 80.71037 0.0
O924 O 2.52454 -0.72746 83.66608 0.0
C925 C 2.56581 -0.76076 88.10352 0.0
O926 O 2.51357 -0.73058 86.72452 0.0
O927 O 2.58497 -0.784 87.78597 0.0
C928 C 2.54175 -0.7991 82.75908 0.0
O929 O 2.55081 -0.79589 84.14522 0.0
O930 O 2.50264 -0.77338 81.07264 0.0
C931 C 2.36631 -0.7419 87.26594 0.0
O932 O 2.3914 -0.76698 88.67442 0.0
O933 O 2.39651 -0.69478 81.60589 0.0
O934 O 2.34869 -0.67108 78.56211 0.0
C935 C 2.2646 -0.6378 83.28283 0.0
O936 O 2.23804 -0.60747 82.56973 0.0
C937 C 2.25748 -0.64115 80.65601 0.0
C938 C 2.29916 -0.65123 80.88234 0.0
C939 C 2.296 -0.64883 79.39098 0.0
C940 C 2.24598 -0.63123 77.56853 0.0
C941 C 2.20083 -0.6181 77.26558 0.0
C942 C 2.20705 -0.6236 78.83253 0.0
C943 C 2.51678 -0.71331 82.408 0.0
O944 O 2.45859 -0.75459 84.92609 0.0
C945 C 2.3492 -0.67108 79.86279 0.0
C946 C 2.39287 -0.77428 85.83086 0.0
C947 C 2.36355 -0.77344 84.28573 0.0
C948 C 2.39209 -0.80315 84.31592 0.0
C949 C 2.44976 -0.83462 85.92931 0.0
C950 C 2.47954 -0.83721 87.58635 0.0
C951 C 2.451 -0.80656 87.49807 0.0
C952 C 2.23254 -0.68227 80.92535 0.0
O953 O 2.18601 -0.67076 79.67941 0.0
H954 H 2.23617 -0.69621 78.17075 0.0
H955 H 2.31767 -0.72663 78.51578 0.0
H956 H 2.4 -0.74568 81.29591 0.0
H957 H 2.48614 -0.77971 88.55498 0.0
H958 H 2.52335 -0.74259 91.55246 0.0
H959 H 2.37428 -0.67414 85.54431 0.0
H960 H 2.13891 -0.64074 84.68923 0.0
H961 H 2.2258 -0.70658 83.19013 0.0
H962 H 2.1871 -0.62433 82.56088 0.0
H963 H 2.35763 -0.7197 89.74472 0.0
H964 H 2.30856 -0.66282 89.01767 0.0
H965 H 2.26405 -0.62232 86.04007 0.0
H966 H 2.33742 -0.66467 82.29836 0.0
H967 H 2.2433 -0.62939 76.40284 0.0
H968 H 2.17466 -0.61596 78.65872 0.0
H969 H 2.31804 -0.75032 83.08644 0.0
H970 H 2.47029 -0.85705 85.88865 0.0
H971 H 2.47296 -0.80785 88.74909 0.0
H972 H -0.32545 0.35522 7.44211 0.0
H973 H -0.53763 0.48652 6.92599 0.0
H974 H -0.21445 0.31977 13.30834 0.0
H975 H -0.41889 0.41768 12.95797 0.0
H976 H -0.46766 0.43975 6.92827 0.0
H977 H -0.40451 0.38974 7.2281 0.0
C978 C -0.31758 0.35408 8.69813 0.0
C979 C -0.26369 0.33464 10.39607 0.0
C980 C -0.45737 0.4342 8.24222 0.0
C981 C -0.35431 0.37555 10.1411 0.0
C982 C -0.49754 0.46104 8.23577 0.0
C983 C -0.48401 0.45574 9.93947 0.0
C984 C -0.40276 0.40192 9.9767 0.0
C985 C -0.43103 0.42256 11.61182 0.0
C986 C -0.36288 0.37426 8.56919 0.0
C987 C -0.25555 0.3344 11.97814 0.0
N988 N -0.39173 0.39705 11.59827 0.0
N989 N -0.3006 0.35491 11.80689 0.0
H990 H 1.53898 -0.452 59.45836 0.0
H991 H 1.5235 -0.35185 53.96611 0.0
H992 H 1.39151 -0.36507 53.60527 0.0
H993 H 1.66697 -0.43251 59.95955 0.0
H994 H 1.4865 -0.3678 53.60618 0.0
H995 H 1.59725 -0.45672 59.45212 0.0
C996 C 1.51947 -0.43479 58.14963 0.0
C997 C 1.4604 -0.40795 56.53362 0.0
C998 C 1.52668 -0.38254 54.99626 0.0
C999 C 1.52609 -0.41257 56.52589 0.0
C1000 C 1.54781 -0.37348 55.19786 0.0
C1001 C 1.59783 -0.39068 56.9975 0.0
C1002 C 1.55518 -0.40857 56.61515 0.0
C1003 C 1.62807 -0.4186 58.55009 0.0
C1004 C 1.55253 -0.43723 58.1516 0.0
C1005 C 1.4369 -0.38599 54.88224 0.0
N1006 N 1.60564 -0.42628 58.33234 0.0
N1007 N 1.46957 -0.38843 54.93009 0.0
H1008 H -0.25936 0.38922 6.72634 0.0
H1009 H -0.18293 0.45085 12.78016 0.0
H1010 H -0.10603 0.32103 12.70318 0.0
H1011 H -0.33838 0.51758 6.85833 0.0
H1012 H -0.14234 0.40107 12.61952 0.0
H1013 H -0.27615 0.43372 6.56946 0.0
C1014 C -0.22812 0.38331 7.98877 0.0
C1015 C -0.18117 0.35153 9.72579 0.0
C1016 C -0.18489 0.42662 11.34491 0.0
C1017 C -0.20127 0.40268 9.58944 0.0
C1018 C -0.20789 0.45499 11.43573 0.0
C1019 C -0.26436 0.4882 9.83859 0.0
C1020 C -0.21873 0.43169 9.64349 0.0
C1021 C -0.29501 0.49227 8.13059 0.0
C1022 C -0.23794 0.40878 7.90829 0.0
C1023 C -0.14243 0.3452 11.33404 0.0
N1024 N -0.27214 0.46438 8.08468 0.0
N1025 N -0.15392 0.37081 11.23791 0.0
H1026 H 1.47318 -0.26604 53.89257 0.0
H1027 H 1.40057 -0.20402 59.90108 0.0
H1028 H 1.60204 -0.31503 59.90389 0.0
H1029 H 1.27549 -0.15903 53.9313 0.0
H1030 H 1.47328 -0.23565 59.79257 0.0
H1031 H 1.39964 -0.21751 53.72631 0.0
C1032 C 1.48603 -0.26592 55.1641 0.0
C1033 C 1.54348 -0.2944 56.91272 0.0
C1034 C 1.42964 -0.21828 58.49623 0.0
C1035 C 1.45956 -0.23977 56.76057 0.0
C1036 C 1.38817 -0.20012 58.55753 0.0
C1037 C 1.33241 -0.1794 56.92916 0.0
C1038 C 1.41495 -0.21556 56.79352 0.0
C1039 C 1.31838 -0.17524 55.22403 0.0
C1040 C 1.44408 -0.2384 55.07673 0.0
C1041 C 1.55809 -0.29334 58.52746 0.0
N1042 N 1.35949 -0.1935 55.20657 0.0
N1043 N 1.51622 -0.26679 58.4227 0.0
H1044 H -0.49064 0.53783 12.77194 0.0
H1045 H -0.4756 0.59817 6.45172 0.0
H1046 H -0.58306 0.57049 6.90578 0.0
H1047 H -0.37531 0.56145 12.38518 0.0
H1048 H -0.53551 0.6038 6.36813 0.0
H1049 H -0.46749 0.56068 12.45557 0.0
C1050 C -0.50734 0.55068 11.40434 0.0
C1051 C -0.53791 0.55186 9.87062 0.0
C1052 C -0.50142 0.59536 7.67965 0.0
C1053 C -0.51136 0.57764 9.49889 0.0
C1054 C -0.46766 0.59252 7.71843 0.0
C1055 C -0.42057 0.57927 9.42766 0.0
C1056 C -0.4871 0.5841 9.37496 0.0
C1057 C -0.41149 0.57191 11.03819 0.0
C1058 C -0.49394 0.56356 11.22468 0.0
C1059 C -0.55853 0.56864 8.12941 0.0
N1060 N -0.44362 0.57365 10.98631 0.0
N1061 N -0.54422 0.58043 7.99835 0.0
H1062 H 1.17719 -0.16084 53.47745 0.0
H1063 H 1.35666 -0.34523 59.6603 0.0
H1064 H 1.27231 -0.21218 59.43502 0.0
H1065 H 1.26653 -0.29367 53.76677 0.0
H1066 H 1.30704 -0.29142 59.42705 0.0
H1067 H 1.18816 -0.20254 53.35856 0.0
C1068 C 1.19855 -0.18022 54.74289 0.0
C1069 C 1.22386 -0.18318 56.46665 0.0
C1070 C 1.29723 -0.29169 58.17371 0.0
C1071 C 1.23905 -0.23198 56.37308 0.0
C1072 C 1.32534 -0.32234 58.30575 0.0
C1073 C 1.3163 -0.32389 56.73905 0.0
C1074 C 1.25988 -0.26253 56.46161 0.0
C1075 C 1.27541 -0.2936 55.01675 0.0
C1076 C 1.20543 -0.20429 54.68402 0.0
C1077 C 1.25188 -0.20899 58.07634 0.0
N1078 N 1.24933 -0.26433 54.93123 0.0
N1079 N 1.25987 -0.23292 58.00291 0.0
H1080 H 0.26953 0.24133 39.70027 0.0
H1081 H -0.03558 0.34076 34.1715 0.0
H1082 H 0.12164 0.32132 33.69623 0.0
H1083 H 0.1181 0.25444 40.04021 0.0
H1084 H 0.01344 0.34528 34.17156 0.0
H1085 H 0.20779 0.257 40.03914 0.0
C1086 C 0.22368 0.26278 38.46187 0.0
C1087 C 0.20048 0.27991 36.6666 0.0
C1088 C 0.03595 0.32598 35.47654 0.0
C1089 C 0.12961 0.29746 37.02435 0.0
C1090 C 0.00774 0.32367 35.48221 0.0
C1091 C 0.03749 0.29709 37.10644 0.0
C1092 C 0.09424 0.30146 37.10704 0.0
C1093 C 0.09384 0.27522 38.75864 0.0
C1094 C 0.18843 0.27167 38.65107 0.0
C1095 C 0.14095 0.30753 35.1035 0.0
N1096 N 0.12066 0.27754 38.70788 0.0
N1097 N 0.10757 0.31506 35.30997 0.0
H1098 H 1.90634 -0.49453 87.00068 0.0
H1099 H 1.76696 -0.52906 81.01358 0.0
H1100 H 1.75313 -0.42236 80.98802 0.0
H1101 H 1.92855 -0.60317 86.87843 0.0
H1102 H 1.7463 -0.4839 81.17933 0.0
H1103 H 1.89991 -0.52804 87.17485 0.0
C1104 C 1.8707 -0.48548 85.72399 0.0
C1105 C 1.83072 -0.45607 83.97293 0.0
C1106 C 1.78552 -0.50985 82.44709 0.0
C1107 C 1.82357 -0.49456 84.14485 0.0
C1108 C 1.79697 -0.5355 82.35728 0.0
C1109 C 1.84952 -0.56973 83.93487 0.0
C1110 C 1.82714 -0.51871 84.12544 0.0
C1111 C 1.88756 -0.57701 85.6335 0.0
C1112 C 1.86701 -0.50458 85.82033 0.0
C1113 C 1.78495 -0.44507 82.36186 0.0
N1114 N 1.87602 -0.55181 85.67602 0.0
N1115 N 1.78321 -0.46473 82.47703 0.0
H1116 H 0.1826 0.10194 34.00037 0.0
H1117 H 0.13117 0.1827 39.89011 0.0
H1118 H 0.31631 0.05629 39.85678 0.0
H1119 H -0.00374 0.23543 33.87284 0.0
H1120 H 0.19563 0.12977 40.08314 0.0
H1121 H 0.11121 0.1438 34.11443 0.0
C1122 C 0.19699 0.09995 35.33098 0.0
C1123 C 0.25523 0.07577 36.92174 0.0
C1124 C 0.15169 0.15268 38.72339 0.0
C1125 C 0.17416 0.12384 37.05365 0.0
C1126 C 0.11491 0.18283 38.61671 0.0
C1127 C 0.05872 0.2134 36.86009 0.0
C1128 C 0.13248 0.15317 37.05357 0.0
C1129 C 0.03944 0.21231 35.25237 0.0
C1130 C 0.15627 0.12405 35.39079 0.0
C1131 C 0.27172 0.07459 38.60152 0.0
N1132 N 0.07661 0.1828 35.37889 0.0
N1133 N 0.2314 0.09857 38.61584 0.0
H1134 H 2.21246 -0.70839 87.06571 0.0
H1135 H 2.04669 -0.69911 86.42008 0.0
H1136 H 2.10906 -0.6679 81.08092 0.0
H1137 H 1.9227 -0.62313 80.47276 0.0
H1138 H 2.12305 -0.72244 86.74983 0.0
H1139 H 2.16243 -0.71185 87.03461 0.0
C1140 C 2.18081 -0.70168 85.7634 0.0
C1141 C 2.165 -0.68807 84.07796 0.0
C1142 C 2.07933 -0.70079 85.36742 0.0
C1143 C 2.10629 -0.69125 84.00511 0.0
C1144 C 2.03597 -0.68795 85.17504 0.0
C1145 C 1.97878 -0.65939 83.41818 0.0
C1146 C 2.06493 -0.6842 83.7989 0.0
C1147 C 1.96655 -0.64532 81.84887 0.0
C1148 C 2.152 -0.70361 85.73959 0.0
C1149 C 2.12282 -0.67892 82.41401 0.0
N1150 N 2.00924 -0.65759 82.08108 0.0
N1151 N 2.0939 -0.67987 82.40771 0.0
H1152 H 0.29702 0.20576 33.69113 0.0
H1153 H 0.42413 0.0415 39.62288 0.0
H1154 H 0.38928 0.15577 39.62347 0.0
H1155 H 0.31122 0.09873 33.52804 0.0
H1156 H 0.43479 0.07319 39.78341 0.0
H1157 H 0.32427 0.15766 33.75126 0.0
C1158 C 0.32483 0.184 35.02327 0.0
C1159 C 0.34093 0.18462 36.65459 0.0
C1160 C 0.40863 0.07839 38.4119 0.0
C1161 C 0.3712 0.13005 36.72847 0.0
C1162 C 0.40292 0.06013 38.32441 0.0
C1163 C 0.36664 0.06771 36.56024 0.0
C1164 C 0.37698 0.1049 36.71721 0.0
C1165 C 0.33973 0.09216 34.91489 0.0
C1166 C 0.33988 0.15675 35.05344 0.0
C1167 C 0.37605 0.15618 38.33685 0.0
N1168 N 0.34456 0.1104 35.02739 0.0
N1169 N 0.38938 0.13029 38.3242 0.0
H1170 H 2.19607 -0.63428 87.04852 0.0
H1171 H 1.90262 -0.43433 81.38592 0.0
H1172 H 2.07731 -0.563 81.05633 0.0
H1173 H 2.01763 -0.50849 87.26015 0.0
H1174 H 1.97755 -0.47786 81.44266 0.0
H1175 H 2.1437 -0.58615 87.34482 0.0
C1176 C 2.15947 -0.60836 85.80284 0.0
C1177 C 2.14033 -0.60241 84.02212 0.0
C1178 C 1.98704 -0.48435 82.7368 0.0
C1179 C 2.07928 -0.54713 84.33252 0.0
C1180 C 1.94452 -0.45939 82.71003 0.0
C1181 C 1.95411 -0.46802 84.31913 0.0
C1182 C 2.03923 -0.51807 84.38403 0.0
C1183 C 2.00867 -0.50095 85.98998 0.0
C1184 C 2.12949 -0.58088 85.96855 0.0
C1185 C 2.0931 -0.5685 82.4519 0.0
N1186 N 2.04883 -0.52493 85.97022 0.0
N1187 N 2.06339 -0.54202 82.63439 0.0
H1188 H 0.25315 0.03932 28.77806 0.0
H1189 H 0.0155 0.14149 18.90412 0.0
H1190 H 0.35119 -0.0093 27.33468 0.0
H1191 H 0.13601 0.09269 18.44338 0.0
H1192 H 0.09144 0.11209 22.3246 0.0
H1193 H 0.16489 0.08406 25.37561 0.0
C1194 C 0.25604 0.03834 27.7428 0.0
C1195 C 0.30956 0.011 28.33957 0.0
C1196 C 0.10141 0.10828 21.48303 0.0
C1197 C 0.20861 0.06174 24.4269 0.0
C1198 C 0.05767 0.12534 19.51984 0.0
C1199 C 0.06967 0.11938 18.39744 0.0
C1200 C 0.15754 0.0851 22.32229 0.0
C1201 C 0.12512 0.09783 19.26373 0.0
C1202 C 0.20545 0.06374 25.79011 0.0
C1203 C 0.31083 0.01095 26.93891 0.0
N1204 N 0.16691 0.08128 21.16927 0.0
N1205 N 0.26136 0.03566 25.06036 0.0
H1206 H 2.08928 -0.55081 74.63406 0.0
H1207 H 2.02543 -0.58178 66.29864 0.0
H1208 H 2.20156 -0.64985 75.50336 0.0
H1209 H 1.90719 -0.48077 65.17364 0.0
H1210 H 2.08311 -0.60684 69.70656 0.0
H1211 H 2.01517 -0.52439 71.23086 0.0
C1212 C 2.09759 -0.56703 74.11679 0.0
C1213 C 2.15134 -0.60253 75.3455 0.0
C1214 C 2.04424 -0.57918 68.72365 0.0
C1215 C 2.06773 -0.57266 71.46565 0.0
C1216 C 2.01122 -0.56489 66.7751 0.0
C1217 C 1.96161 -0.5292 65.45662 0.0
C1218 C 2.0283 -0.5577 69.37806 0.0
C1219 C 1.94506 -0.50844 66.14768 0.0
C1220 C 2.05558 -0.55198 72.17477 0.0
C1221 C 2.16052 -0.62241 74.60318 0.0
N1222 N 1.97879 -0.52299 68.06553 0.0
N1223 N 2.11948 -0.60722 72.71605 0.0
H1224 H 0.15089 0.36956 28.63229 0.0
H1225 H -0.1147 0.54013 18.131 0.0
H1226 H 0.04604 0.47114 27.34339 0.0
H1227 H -0.0116 0.44015 19.1715 0.0
H1228 H -0.06481 0.5155 21.47864 0.0
H1229 H 0.08472 0.39462 25.18768 0.0
C1230 C 0.11328 0.39715 27.6259 0.0
C1231 C 0.10399 0.41834 28.26795 0.0
C1232 C -0.05338 0.49884 20.98125 0.0
C1233 C 0.02866 0.4471 24.34123 0.0
C1234 C -0.08221 0.51301 19.06475 0.0
C1235 C -0.06723 0.49212 18.37993 0.0
C1236 C -0.00833 0.46328 22.24266 0.0
C1237 C -0.02451 0.45708 19.64906 0.0
C1238 C 0.07577 0.41143 25.66239 0.0
C1239 C 0.05502 0.45388 26.90677 0.0
N1240 N 0.0041 0.44361 21.52917 0.0
N1241 N 0.01961 0.46704 25.01661 0.0
H1242 H 1.57717 -0.22562 75.65551 0.0
H1243 H 1.33335 -0.15146 65.03077 0.0
H1244 H 1.5012 -0.24773 74.44593 0.0
H1245 H 1.40418 -0.12551 66.45288 0.0
H1246 H 1.40511 -0.19471 68.45459 0.0
H1247 H 1.52619 -0.19752 72.30602 0.0
C1248 C 1.55096 -0.2254 74.68759 0.0
C1249 C 1.54396 -0.2394 75.32591 0.0
C1250 C 1.4055 -0.17993 68.01295 0.0
C1251 C 1.48329 -0.20599 71.4615 0.0
C1252 C 1.36486 -0.15547 66.06111 0.0
C1253 C 1.36284 -0.13487 65.46489 0.0
C1254 C 1.44438 -0.18382 69.36797 0.0
C1255 C 1.40411 -0.14074 66.85566 0.0
C1256 C 1.52129 -0.20903 72.76883 0.0
C1257 C 1.50821 -0.23761 74.00634 0.0
N1258 N 1.44275 -0.1644 68.7345 0.0
N1259 N 1.47863 -0.22083 72.12899 0.0
H1260 H -0.58103 0.5566 19.07822 0.0
H1261 H -0.28763 0.35648 27.5024 0.0
H1262 H -0.50492 0.47783 18.01753 0.0
H1263 H -0.37416 0.43835 28.27567 0.0
H1264 H -0.35683 0.3994 24.10171 0.0
H1265 H -0.49632 0.51303 22.49516 0.0
C1266 C -0.54587 0.53004 19.57077 0.0
C1267 C -0.55002 0.52078 18.26677 0.0
C1268 C -0.36004 0.40792 25.02342 0.0
C1269 C -0.45278 0.4703 22.1988 0.0
C1270 C -0.32033 0.38344 26.96376 0.0
C1271 C -0.32546 0.39399 28.16286 0.0
C1272 C -0.40491 0.4431 24.28787 0.0
C1273 C -0.36892 0.4292 27.39517 0.0
C1274 C -0.49748 0.50509 21.5245 0.0
C1275 C -0.50319 0.48601 18.9793 0.0
N1276 N -0.40707 0.45239 25.511 0.0
N1277 N -0.45675 0.46192 20.90177 0.0
H1278 H 1.76519 -0.66434 74.37245 0.0
H1279 H 1.45803 -0.46408 66.08077 0.0
H1280 H 1.69308 -0.58719 75.56359 0.0
H1281 H 1.52382 -0.54626 65.30549 0.0
H1282 H 1.55019 -0.50655 69.45395 0.0
H1283 H 1.68473 -0.61935 70.96643 0.0
C1284 C 1.73276 -0.63776 73.91116 0.0
C1285 C 1.73566 -0.62946 75.24839 0.0
C1286 C 1.5447 -0.51517 68.53564 0.0
C1287 C 1.64221 -0.57751 71.33194 0.0
C1288 C 1.49237 -0.49097 66.61215 0.0
C1289 C 1.48351 -0.50179 65.42077 0.0
C1290 C 1.5884 -0.55032 69.25839 0.0
C1291 C 1.52897 -0.53689 66.1782 0.0
C1292 C 1.68659 -0.61204 71.9645 0.0
C1293 C 1.6925 -0.59461 74.57562 0.0
N1294 N 1.57914 -0.55981 68.04356 0.0
N1295 N 1.64703 -0.56985 72.6592 0.0
H1296 H 1.89192 -0.71897 90.39096 0.0
H1297 H -0.17046 0.28879 2.20752 0.0
H1298 H 1.74916 -0.61483 88.5778 0.0
H1299 H -0.00124 0.18944 4.82228 0.0
H1300 H 1.78079 -0.65109 93.32789 0.0
H1301 H 1.91938 -0.73956 93.39448 0.0
C1302 C 1.86621 -0.70036 90.6118 0.0
C1303 C 1.81774 -0.66494 89.20142 0.0
C1304 C -0.15623 0.28029 0.38566 0.0
C1305 C 1.84856 -0.68858 92.63338 0.0
C1306 C -0.13965 0.27033 2.13391 0.0
C1307 C -0.08322 0.23759 3.78209 0.0
C1308 C -0.11634 0.25737 0.26809 0.0
C1309 C -0.04501 0.21504 3.59441 0.0
C1310 C 1.88184 -0.71222 92.32705 0.0
C1311 C 1.78594 -0.64232 89.58079 0.0
N1312 N -0.0622 0.22535 1.8721 0.0
N1313 N 1.80181 -0.65449 91.24813 0.0
H1314 H 0.51124 -0.13075 44.54211 0.0
H1315 H 1.6538 -0.30304 50.37112 0.0
H1316 H 0.48455 -0.17417 41.78534 0.0
H1317 H 1.6149 -0.23381 52.11833 0.0
H1318 H 1.60734 -0.26242 47.4076 0.0
H1319 H 0.5673 -0.17596 47.56431 0.0
C1320 C 0.51798 -0.15013 44.57822 0.0
C1321 C 0.49296 -0.14857 42.90457 0.0
C1322 C 1.60948 -0.25641 48.45327 0.0
C1323 C 0.55681 -0.20034 46.36425 0.0
C1324 C 1.63571 -0.27949 50.14414 0.0
C1325 C 1.63898 -0.27226 51.52601 0.0
C1326 C 1.58697 -0.22607 48.1478 0.0
C1327 C 1.61521 -0.24132 51.14064 0.0
C1328 C 0.54954 -0.17576 46.30101 0.0
C1329 C 0.50259 -0.17422 43.03766 0.0
N1330 N 0.5898 -0.21961 49.50107 0.0
N1331 N 0.5337 -0.19903 44.73615 0.0
H1332 H -0.54719 0.7404 2.40947 0.0
H1333 H 2.57144 -0.85776 90.56733 0.0
H1334 H -0.5143 0.78285 4.9959 0.0
H1335 H 2.52206 -0.89638 88.83336 0.0
H1336 H 2.66545 -0.91478 93.56821 0.0
H1337 H 1.34578 -0.16084 93.54202 0.0
C1338 C -0.55776 0.76128 2.33196 0.0
C1339 C -0.52313 0.75678 3.97045 0.0
C1340 C 2.63394 -0.91064 92.51796 0.0
C1341 C -0.62437 0.82129 0.46827 0.0
C1342 C 2.58004 -0.87801 90.80486 0.0
C1343 C 2.53823 -0.87191 89.41479 0.0
C1344 C 2.64647 -0.93752 92.84188 0.0
C1345 C 2.55278 -0.89962 89.81692 0.0
C1346 C -0.60818 0.79331 0.5904 0.0
C1347 C -0.53993 0.78517 3.77668 0.0
N1348 N 1.25904 -0.09426 91.47936 0.0
N1349 N -0.58936 0.81621 2.06078 0.0
H1350 H 0.57398 0.19579 43.35006 0.0
H1351 H 0.9084 0.02388 49.41304 0.0
H1352 H 0.64269 0.12445 41.76282 0.0
H1353 H 0.84839 0.07238 51.96561 0.0
H1354 H 0.80909 0.06752 46.37273 0.0
H1355 H 0.67231 0.15665 46.32737 0.0
C1356 C 0.60935 0.17205 43.61647 0.0
C1357 C 0.59932 0.16378 42.27593 0.0
C1358 C 0.81757 0.0688 47.59368 0.0
C1359 C 0.71213 0.11924 45.67175 0.0
C1360 C 0.87434 0.04406 49.32817 0.0
C1361 C 0.88694 0.04436 50.95345 0.0
C1362 C 0.77264 0.09435 47.46686 0.0
C1363 C 0.84072 0.07095 50.75495 0.0
C1364 C 0.66553 0.14982 45.3151 0.0
C1365 C 0.64749 0.13269 42.70944 0.0
N1366 N 0.78563 0.09485 49.04559 0.0
N1367 N 0.70141 0.11178 44.35685 0.0
H1368 H 1.99012 -0.4019 91.33877 0.0
H1369 H -0.87863 0.60375 3.16603 0.0
H1370 H 1.89955 -0.30163 88.75411 0.0
H1371 H -0.77057 0.50032 4.7253 0.0
H1372 H -0.95943 0.62517 0.20545 0.0
H1373 H 0.08351 0.53709 0.18123 0.0
C1374 C 1.98514 -0.38343 91.41404 0.0
C1375 C 1.93845 -0.35017 89.78368 0.0
C1376 C -0.91795 0.59779 1.20832 0.0
C1377 C 2.02369 -0.37094 93.25137 0.0
C1378 C -0.87159 0.58547 2.89706 0.0
C1379 C -0.8172 0.54998 4.22649 0.0
C1380 C -0.9102 0.57451 0.85119 0.0
C1381 C -0.81154 0.52777 3.7892 0.0
C1382 C 2.02772 -0.39389 93.13898 0.0
C1383 C 1.93504 -0.32761 89.96935 0.0
N1384 N 0.14354 0.54036 2.15301 0.0
N1385 N 0.97633 -0.3384 91.66944 0.0
H1386 H -0.0151 0.3147 44.27731 0.0
H1387 H 1.26703 -0.44719 50.25901 0.0
H1388 H -0.18673 0.41091 41.65726 0.0
H1389 H 1.43098 -0.52249 52.03728 0.0
H1390 H 1.2268 -0.4434 47.26194 0.0
H1391 H 0.02206 0.30865 47.32696 0.0
C1392 C -0.04515 0.3343 44.34724 0.0
C1393 C -0.10422 0.36341 42.69938 0.0
C1394 C 1.27168 -0.46088 48.32117 0.0
C1395 C -0.06163 0.35685 46.20154 0.0
C1396 C 1.29473 -0.46297 50.03251 0.0
C1397 C 1.35294 -0.48545 51.43402 0.0
C1398 C 1.30707 -0.48161 48.00988 0.0
C1399 C 1.38643 -0.50545 51.04495 0.0
C1400 C -0.02381 0.331 46.08893 0.0
C1401 C -0.14084 0.38821 42.88385 0.0
N1402 N 0.01681 0.33362 49.38378 0.0
N1403 N -0.11899 0.38442 44.59953 0.0
H1404 H 1.68797 -0.24083 90.69742 0.0
H1405 H -0.21237 0.60274 4.29979 0.0
H1406 H 1.6666 -0.29445 89.43938 0.0
H1407 H -0.31607 0.70605 2.54989 0.0
H1408 H -0.22874 0.61414 1.44245 0.0
H1409 H 1.70457 -0.2562 93.48836 0.0
C1410 C 1.68771 -0.25634 91.02371 0.0
C1411 C 1.67559 -0.26623 89.82492 0.0
C1412 C -0.24827 0.63427 1.68464 0.0
C1413 C 1.69485 -0.28398 93.03039 0.0
C1414 C -0.23906 0.62786 3.3064 0.0
C1415 C -0.26288 0.6535 3.66244 0.0
C1416 C -0.27989 0.66609 0.45703 0.0
C1417 C -0.29701 0.68557 2.33232 0.0
C1418 C 1.69672 -0.26484 92.60855 0.0
C1419 C 1.67561 -0.28623 90.32327 0.0
N1420 N -0.30363 0.69073 0.80962 0.0
N1421 N 1.68525 -0.29459 91.89756 0.0
H1422 H -0.11751 0.21991 42.23592 0.0
H1423 H 0.88889 0.1769 49.88222 0.0
H1424 H -0.18564 0.2876 44.00473 0.0
H1425 H 1.04582 0.09683 51.21822 0.0
H1426 H 0.84799 0.21785 47.13867 0.0
H1427 H 0.93377 0.1737 45.06385 0.0
C1428 C -0.12122 0.22491 43.22909 0.0
C1429 C -0.15581 0.25764 42.8862 0.0
C1430 C 0.89121 0.19123 48.02488 0.0
C1431 C -0.10024 0.20563 46.05635 0.0
C1432 C 0.91447 0.16774 49.58113 0.0
C1433 C 0.97099 0.13336 50.78736 0.0
C1434 C 0.92405 0.18026 47.63858 0.0
C1435 C 1.00212 0.12313 50.32598 0.0
C1436 C -0.09254 0.19862 44.83372 0.0
C1437 C -0.15932 0.26278 44.21403 0.0
N1438 N 0.97814 0.14652 48.77808 0.0
N1439 N -0.1328 0.23728 45.71882 0.0
H1440 H 2.0518 -0.85349 91.72716 0.0
H1441 H -1.02125 0.74534 1.50987 0.0
H1442 H 2.08091 -0.88657 88.25296 0.0
H1443 H -1.00815 0.77976 5.23672 0.0
H1444 H 0.87705 -0.15261 92.94223 0.0
H1445 H 0.16865 0.04546 0.39392 0.0
C1446 C 2.07892 -0.87284 91.56619 0.0
C1447 C 2.05802 -0.86527 89.74863 0.0
C1448 C -1.08197 0.799 0.18081 0.0
C1449 C 2.16879 -0.93181 92.99269 0.0
C1450 C -1.03514 0.76529 1.74952 0.0
C1451 C -1.00801 0.75769 3.60175 0.0
C1452 C -1.1029 0.82548 0.46159 0.0
C1453 C -1.02776 0.78452 3.83177 0.0
C1454 C 2.13447 -0.90594 93.19174 0.0
C1455 C 2.09515 -0.89128 89.62459 0.0
N1456 N 0.27157 -0.01937 2.27748 0.0
N1457 N 2.14829 -0.92352 91.21962 0.0
H1458 H 0.76462 -0.24071 45.0858 0.0
H1459 H 1.06962 -0.36787 49.02698 0.0
H1460 H 0.78496 -0.23331 41.34417 0.0
H1461 H 1.03488 -0.34352 52.51028 0.0
H1462 H 0.9661 -0.31845 46.1804 0.0
H1463 H 0.86341 -0.27788 47.82386 0.0
C1464 C 0.78967 -0.24652 44.84003 0.0
C1465 C 0.76667 -0.23403 42.98704 0.0
C1466 C 0.98121 -0.32364 47.56643 0.0
C1467 C 0.88027 -0.27727 46.11714 0.0
C1468 C 1.04027 -0.35188 49.19114 0.0
C1469 C 1.06095 -0.36005 51.01098 0.0
C1470 C 0.94264 -0.3039 47.76808 0.0
C1471 C 1.02093 -0.33831 51.13797 0.0
C1472 C 0.84604 -0.26771 46.40285 0.0
C1473 C 0.80101 -0.24233 42.74988 0.0
N1474 N 0.96379 -0.31162 49.54371 0.0
N1475 N 0.85648 -0.26397 44.29976 0.0
H1476 H -0.13372 0.13551 2.56528 0.0
H1477 H 2.53873 -0.72076 89.53257 0.0
H1478 H -0.22508 0.17609 4.2612 0.0
H1479 H 2.68217 -0.81657 90.73939 0.0
H1480 H 2.60615 -0.7312 92.34356 0.0
H1481 H -0.20799 0.15073 -0.22593 0.0
C1482 C -0.1699 0.14817 2.33569 0.0
C1483 C -0.1729 0.15428 3.6598 0.0
C1484 C 2.62249 -0.74994 91.99216 0.0
C1485 C -0.25816 0.17182 0.45676 0.0
C1486 C 2.58426 -0.74411 90.39835 0.0
C1487 C 2.60488 -0.76791 89.9052 0.0
C1488 C 2.6812 -0.77914 93.05009 0.0
C1489 C 2.66427 -0.7976 91.06719 0.0
C1490 C -0.21199 0.15658 0.74952 0.0
C1491 C -0.22097 0.17076 3.28068 0.0
N1492 N 2.70014 -0.80208 92.56384 0.0
N1493 N -0.26193 0.17901 1.70835 0.0
H1494 H 1.8581 -0.52004 52.40904 0.0
H1495 H 0.29556 0.41655 41.04251 0.0
H1496 H 1.73453 -0.41361 48.63819 0.0
H1497 H 0.46085 0.30742 44.92548 0.0
H1498 H 1.65925 -0.41662 43.77941 0.0
H1499 H 0.4765 0.31437 49.62405 0.0
C1500 C 1.8227 -0.49696 50.99488 0.0
C1501 C 1.79968 -0.4667 50.75373 0.0
C1502 C 1.69124 -0.44139 44.02671 0.0
C1503 C 1.75916 -0.46917 47.57097 0.0
C1504 C 0.33494 0.39324 42.46753 0.0
C1505 C 0.37714 0.36169 42.75932 0.0
C1506 C 0.39704 0.36559 45.8873 0.0
C1507 C 0.42746 0.33232 44.638 0.0
C1508 C 1.80288 -0.49837 49.40918 0.0
C1509 C 1.75397 -0.43759 48.88795 0.0
N1510 N 0.43616 0.335 46.13129 0.0
N1511 N 1.73543 -0.43959 47.36815 0.0
H1512 H -1.05205 0.75564 7.53984 0.0
H1513 H 0.22279 0.00718 12.97152 0.0
H1514 H 0.41609 -0.1259 13.54495 0.0
H1515 H 0.09359 0.03992 7.53612 0.0
H1516 H 0.29156 -0.03073 12.72753 0.0
H1517 H 0.21916 -0.02752 7.12497 0.0
C1518 C 0.30535 -0.07942 8.76063 0.0
C1519 C -0.98521 0.72868 10.58522 0.0
C1520 C 0.2479 -0.0148 11.56819 0.0
C1521 C 0.27633 -0.04716 10.11846 0.0
C1522 C 0.20854 0.007 11.70206 0.0
C1523 C 0.15279 0.0262 10.2888 0.0
C1524 C 0.23175 -0.01787 10.02374 0.0
C1525 C 0.13636 0.02533 8.66297 0.0
C1526 C 0.2626 -0.04897 8.52394 0.0
C1527 C 0.37341 -0.10463 12.12007 0.0
N1528 N 0.17613 0.00295 8.59244 0.0
N1529 N 0.33138 -0.07488 11.853 0.0
H1530 H 1.10144 -0.43746 55.02302 0.0
H1531 H 2.05584 -0.49686 59.87138 0.0
H1532 H 1.23276 -0.51785 60.96374 0.0
H1533 H 1.93356 -0.42713 53.80349 0.0
H1534 H 1.11728 -0.50101 60.33995 0.0
H1535 H 1.03577 -0.42952 54.5938 0.0
C1536 C 1.11645 -0.45337 56.23989 0.0
C1537 C 1.17286 -0.47849 58.03144 0.0
C1538 C 1.07681 -0.48477 58.90564 0.0
C1539 C 1.09776 -0.46948 57.54765 0.0
C1540 C 2.04203 -0.48243 58.63652 0.0
C1541 C 1.98969 -0.46197 56.79336 0.0
C1542 C 1.05983 -0.46636 57.32077 0.0
C1543 C 1.97371 -0.44341 55.24966 0.0
C1544 C 1.07891 -0.44884 55.99209 0.0
C1545 C 1.18978 -0.49828 59.55535 0.0
N1546 N 1.00831 -0.44613 55.54749 0.0
N1547 N 1.15244 -0.49338 59.27765 0.0
H1548 H 1.07531 -0.12214 12.65941 0.0
H1549 H 0.97169 0.03694 7.76358 0.0
H1550 H -0.31603 0.74962 7.43871 0.0
H1551 H 1.063 -0.01956 13.62142 0.0
H1552 H 0.96489 0.0036 7.18448 0.0
H1553 H 1.0403 -0.07192 12.51662 0.0
C1554 C 1.05688 -0.10346 11.45869 0.0
C1555 C -0.28939 0.72752 10.08214 0.0
C1556 C 0.98539 -0.00096 8.58449 0.0
C1557 C 1.01766 -0.05192 9.92902 0.0
C1558 C 0.98911 0.0181 8.91425 0.0
C1559 C 1.0188 0.01097 10.75184 0.0
C1560 C 1.01081 -0.02683 10.09774 0.0
C1561 C 1.0406 -0.01367 12.192 0.0
C1562 C 1.03708 -0.07485 11.38206 0.0
C1563 C 1.03165 -0.08385 8.54186 0.0
N1564 N 1.03656 -0.03184 11.83798 0.0
N1565 N 1.01409 -0.05659 8.52669 0.0
H1566 H 0.79248 0.20987 60.70209 0.0
H1567 H 0.86821 0.16608 54.62838 0.0
H1568 H 2.02018 -0.5506 54.82265 0.0
H1569 H 0.96879 0.09085 60.19326 0.0
H1570 H 0.78899 0.20912 54.40306 0.0
H1571 H 0.84986 0.16511 60.31447 0.0
C1572 C 0.77826 0.21711 59.3195 0.0
C1573 C 2.0752 -0.58503 57.79968 0.0
C1574 C 0.82789 0.18298 55.65198 0.0
C1575 C 0.79519 0.2005 57.34731 0.0
C1576 C 0.87297 0.15834 55.7753 0.0
C1577 C 0.9255 0.12501 57.44804 0.0
C1578 C 0.83572 0.17406 57.21387 0.0
C1579 C 0.92941 0.11642 58.89263 0.0
C1580 C 0.81097 0.19153 59.09425 0.0
C1581 C 0.7119 0.25968 56.03134 0.0
N1582 N 0.88559 0.14087 58.75442 0.0
N1583 N 0.74572 0.23426 55.8619 0.0
H1584 H 0.00103 0.59301 13.98921 0.0
H1585 H -1.00884 0.65208 6.51307 0.0
H1586 H -0.11574 0.63226 8.0574 0.0
H1587 H -0.87571 0.59793 12.58779 0.0
H1588 H -0.04765 0.64459 7.04675 0.0
H1589 H 0.04754 0.59419 13.50744 0.0
C1590 C -0.01465 0.6017 12.58742 0.0
C1591 C -0.06153 0.6127 11.05953 0.0
C1592 C -0.00963 0.63424 8.26402 0.0
C1593 C -0.00864 0.61432 10.49501 0.0
C1594 C -0.9878 0.63853 7.96047 0.0
C1595 C -0.93926 0.62602 9.50718 0.0
C1596 C 0.01629 0.61744 10.12768 0.0
C1597 C -0.91363 0.60847 11.35088 0.0
C1598 C 0.01198 0.60233 12.31371 0.0
C1599 C -0.07982 0.62359 9.2763 0.0
N1600 N 0.06402 0.60492 11.60859 0.0
N1601 N -0.0536 0.62436 9.04034 0.0
H1602 H 0.15634 0.10191 60.72317 0.0
H1603 H 1.26689 -0.53708 54.3333 0.0
H1604 H -0.00284 0.16678 54.93414 0.0
H1605 H 0.09614 0.22752 59.50946 0.0
H1606 H -0.0502 0.25166 54.2602 0.0
H1607 H 0.13824 0.14684 60.10043 0.0
C1608 C 0.11786 0.12553 59.31024 0.0
C1609 C 0.07785 0.13084 57.88584 0.0
C1610 C -0.01788 0.24644 55.38565 0.0
C1611 C 0.05605 0.18287 57.16617 0.0
C1612 C -0.03451 0.27385 55.42277 0.0
C1613 C 1.35211 -0.56923 56.95349 0.0
C1614 C 0.03926 0.2126 56.89562 0.0
C1615 C 0.06339 0.23357 58.32395 0.0
C1616 C 0.10754 0.15121 58.95073 0.0
C1617 C 0.02898 0.16178 56.07368 0.0
N1618 N 0.07818 0.20741 58.2816 0.0
N1619 N 0.01878 0.18699 55.77513 0.0
H1620 H 0.39689 0.37112 33.92346 0.0
H1621 H 0.65842 0.32045 38.61313 0.0
H1622 H 0.53597 0.31326 39.99181 0.0
H1623 H 0.50095 0.39714 32.63518 0.0
H1624 H 0.62062 0.31081 39.10364 0.0
H1625 H 0.44079 0.37437 33.39634 0.0
C1626 C 0.43652 0.35919 35.14552 0.0
C1627 C 0.4621 0.34252 37.00252 0.0
C1628 C 0.5945 0.32961 37.68311 0.0
C1629 C 0.51322 0.3456 36.41049 0.0
C1630 C 0.61611 0.33505 37.39918 0.0
C1631 C 0.58264 0.35983 35.58096 0.0
C1632 C 0.53916 0.34891 36.1367 0.0
C1633 C 0.52812 0.37794 34.06318 0.0
C1634 C 0.46171 0.36093 34.84322 0.0
C1635 C 0.51441 0.32669 38.53387 0.0
N1636 N 0.50802 0.37219 34.37648 0.0
N1637 N 0.53811 0.32874 38.20354 0.0
H1638 H 0.50986 0.0042 79.93375 0.0
H1639 H 1.63598 -0.15772 85.93096 0.0
H1640 H 0.59384 -0.03828 85.80341 0.0
H1641 H 1.57085 -0.11989 80.32119 0.0
H1642 H 0.63651 -0.12132 86.1786 0.0
H1643 H 0.54623 -0.04704 80.28078 0.0
C1644 C 0.53646 -0.01616 81.30432 0.0
C1645 C 0.54811 -0.01261 82.83271 0.0
C1646 C 0.62322 -0.12162 84.91314 0.0
C1647 C 0.58934 -0.0714 83.23895 0.0
C1648 C 1.6236 -0.14255 84.77631 0.0
C1649 C 1.60218 -0.14125 83.08648 0.0
C1650 C 0.60205 -0.0994 83.34803 0.0
C1651 C 0.58581 -0.12114 81.63399 0.0
C1652 C 0.55747 -0.04554 81.50655 0.0
C1653 C 0.58361 -0.04 84.58649 0.0
N1654 N 0.58564 -0.10067 81.78688 0.0
N1655 N 0.6021 -0.06805 84.73328 0.0
H1656 H 0.7657 -0.28378 39.02706 0.0
H1657 H 0.87156 -0.33249 33.73452 0.0
H1658 H 0.65688 -0.22267 32.98576 0.0
H1659 H -0.37963 0.42776 39.11414 0.0
H1660 H 0.80452 -0.28771 33.88772 0.0
H1661 H 0.84956 -0.32559 39.44973 0.0
C1662 C 0.75961 -0.27891 37.79809 0.0
C1663 C 0.7043 -0.25003 35.96474 0.0
C1664 C 0.84062 -0.31427 35.05214 0.0
C1665 C 0.79943 -0.29709 36.44056 0.0
C1666 C 0.87913 -0.33988 34.97126 0.0
C1667 C -0.42216 0.46215 36.39455 0.0
C1668 C 0.84687 -0.32329 36.56235 0.0
C1669 C 0.93224 -0.38254 37.97638 0.0
C1670 C 0.80732 -0.30274 38.03955 0.0
C1671 C 0.69866 -0.24486 34.41955 0.0
N1672 N 0.89324 -0.35706 38.00233 0.0
N1673 N 0.74551 -0.26816 34.69207 0.0
H1674 H 1.79221 -0.77207 86.4001 0.0
H1675 H 1.48019 -0.66309 80.15236 0.0
H1676 H 1.64041 -0.66933 81.32491 0.0
H1677 H 1.62271 -0.75424 85.83173 0.0
H1678 H 1.53718 -0.66134 80.81875 0.0
H1679 H 1.73189 -0.76286 86.5468 0.0
C1680 C 1.74644 -0.7472 85.35458 0.0
C1681 C 1.72106 -0.72166 83.82305 0.0
C1682 C 1.55598 -0.68149 81.93717 0.0
C1683 C 1.65196 -0.71119 83.96087 0.0
C1684 C 1.52339 -0.68251 81.55181 0.0
C1685 C 1.54711 -0.70911 82.92908 0.0
C1686 C 1.61341 -0.70781 83.69688 0.0
C1687 C 1.60303 -0.7334 84.72769 0.0
C1688 C 1.71196 -0.74202 85.43111 0.0
C1689 C 1.66159 -0.68997 82.50661 0.0
N1690 N 1.63486 -0.73264 85.04778 0.0
N1691 N 1.62903 -0.68587 82.58523 0.0
H1692 H 0.52712 -0.21542 34.10331 0.0
H1693 H 0.34318 0.4371 38.87025 0.0
H1694 H 0.65908 -0.28824 40.19507 0.0
H1695 H 0.236 0.50357 32.92524 0.0
H1696 H 1.67175 -0.35703 39.37941 0.0
H1697 H 1.53959 -0.25608 33.64205 0.0
C1698 C 0.55862 -0.23996 35.34591 0.0
C1699 C 0.59275 -0.24856 37.19029 0.0
C1700 C 1.65206 -0.35183 37.96443 0.0
C1701 C 1.60689 -0.29536 36.67292 0.0
C1702 C 1.66205 -0.37607 37.67145 0.0
C1703 C 0.29136 0.46661 35.85412 0.0
C1704 C 1.61705 -0.32131 36.42579 0.0
C1705 C 1.60245 -0.33909 34.35481 0.0
C1706 C 1.56602 -0.26321 35.08171 0.0
C1707 C 1.6329 -0.2806 38.74608 0.0
N1708 N 1.59329 -0.31597 34.67489 0.0
N1709 N 1.63867 -0.30291 38.45311 0.0
H1710 H 1.3464 -0.09621 79.72416 0.0
H1711 H 2.65615 -0.86007 85.97731 0.0
H1712 H 1.49004 -0.14589 85.49536 0.0
H1713 H 1.17084 0.02087 80.28832 0.0
H1714 H 1.3776 -0.07537 86.14634 0.0
H1715 H 1.2835 -0.06084 80.21217 0.0
C1716 C 1.36479 -0.1 81.10679 0.0
C1717 C 1.42322 -0.12353 82.56006 0.0
C1718 C 1.33215 -0.05459 84.87942 0.0
C1719 C 1.35119 -0.08245 83.12068 0.0
C1720 C 1.29345 -0.02499 84.78739 0.0
C1721 C 2.58116 -0.83341 83.10048 0.0
C1722 C 1.31177 -0.05568 83.27355 0.0
C1723 C 1.21585 -0.00012 81.60107 0.0
C1724 C 1.32888 -0.07979 81.38784 0.0
C1725 C 1.44504 -0.1278 84.33327 0.0
N1726 N 1.25422 -0.0288 81.71243 0.0
N1727 N 1.40874 -0.10684 84.55221 0.0
loop_
_geom_bond_atom_site_label_1
_geom_bond_atom_site_label_2
_geom_bond_distance
_geom_bond_site_symmetry_2
_ccdc_geom_bond_type
C0 C1 1.359 . S
C0 N5 1.330 . S
C0 C61 1.504 . S
C1 C0 1.359 . S
C1 C2 1.366 . S
C1 H63 0.929 . S
C2 C1 1.366 . S
C2 C3 1.415 . S
C2 H64 0.932 . S
C3 C2 1.415 . S
C3 C4 1.366 . S
C3 H65 0.931 . S
C4 C3 1.366 . S
C4 N5 1.325 . S
C4 C6 1.516 . S
N5 C0 1.330 . S
N5 C4 1.325 . S
N5 Co21 1.869 . S
C6 C4 1.516 . S
C6 N30 1.316 . S
C6 O53 1.263 . S
C7 C8 1.421 . S
C7 C12 1.360 . S
C7 N30 1.436 . S
C8 C7 1.421 . S
C8 C9 1.379 . S
C8 H66 0.929 . S
C9 C8 1.379 . S
C9 C10 1.417 . S
C10 C9 1.417 . S
C10 C11 1.352 . S
C10 H67 0.929 . S
C11 C10 1.352 . S
C11 C12 1.393 . S
C12 C7 1.360 . S
C12 C11 1.393 . S
C12 H68 0.931 . S
Cd13 O33 2.329 . S
Cd13 O35 2.350 . S
Cd13 O36 2.277 . S
Cd13 O38 2.173 . S
Cd13 O42 2.263 . S
Cd13 O53 2.366 . S
Cd14 O32 2.352 . S
Cd14 O39 2.250 . S
Cd14 O43 2.308 . S
C15 C19 1.403 . S
C15 C20 1.370 . S
C15 N31 1.423 . S
C16 C17 1.389 . S
C16 C20 1.389 . S
C17 C16 1.389 . S
C17 C18 1.379 . S
C17 H69 0.929 . S
C18 C17 1.379 . S
C18 C19 1.405 . S
C19 C15 1.403 . S
C19 C18 1.405 . S
C19 H70 0.932 . S
C20 C15 1.370 . S
C20 C16 1.389 . S
C20 H71 0.931 . S
Co21 N5 1.869 . S
Co21 N22 1.955 . S
Co21 N23 1.864 . S
Co21 N29 1.958 . S
Co21 N30 1.953 . S
Co21 N31 1.974 . S
N22 Co21 1.955 . S
N22 C40 1.329 . S
N22 C55 1.432 . S
N23 Co21 1.864 . S
N23 C24 1.327 . S
N23 C28 1.342 . S
C24 N23 1.327 . S
C24 C25 1.407 . S
C24 C40 1.481 . S
C25 C24 1.407 . S
C25 C26 1.364 . S
C25 H72 0.930 . S
C26 C25 1.364 . S
C26 C27 1.390 . S
C26 H73 0.931 . S
C27 C26 1.390 . S
C27 C28 1.346 . S
C27 H74 0.930 . S
C28 N23 1.342 . S
C28 C27 1.346 . S
C28 C44 1.516 . S
N29 Co21 1.958 . S
N29 C44 1.324 . S
N29 C46 1.427 . S
N30 C6 1.316 . S
N30 C7 1.436 . S
N30 Co21 1.953 . S
N31 C15 1.423 . S
N31 Co21 1.974 . S
N31 C61 1.309 . S
O32 Cd14 2.352 . S
O32 C52 1.235 . S
O33 Cd13 2.329 . S
O33 C52 1.270 . S
C34 O35 1.270 . S
C34 O36 1.248 . S
O35 Cd13 2.350 . S
O35 C34 1.270 . S
O36 Cd13 2.277 . S
O36 C34 1.248 . S
C37 O38 1.277 . S
C37 O39 1.230 . S
O38 Cd13 2.173 . S
O38 C37 1.277 . S
O39 Cd14 2.250 . S
O39 C37 1.230 . S
C40 N22 1.329 . S
C40 C24 1.481 . S
C40 O41 1.246 . S
O41 C40 1.246 . S
O42 Cd13 2.263 . S
O42 C54 1.258 . S
O43 Cd14 2.308 . S
O43 C54 1.274 . S
C44 C28 1.516 . S
C44 N29 1.324 . S
C44 O45 1.238 . S
O45 C44 1.238 . S
C46 N29 1.427 . S
C46 C47 1.394 . S
C46 C51 1.395 . S
C47 C46 1.394 . S
C47 C48 1.380 . S
C47 H75 0.929 . S
C48 C47 1.380 . S
C48 C49 1.384 . S
C48 C54 1.495 . S
C49 C48 1.384 . S
C49 C50 1.382 . S
C49 H76 0.930 . S
C50 C49 1.382 . S
C50 C51 1.398 . S
C51 C46 1.395 . S
C51 C50 1.398 . S
C51 H77 0.930 . S
C52 O32 1.235 . S
C52 O33 1.270 . S
O53 C6 1.263 . S
O53 Cd13 2.366 . S
C54 O42 1.258 . S
C54 O43 1.274 . S
C54 C48 1.495 . S
C55 N22 1.432 . S
C55 C56 1.381 . S
C55 C60 1.385 . S
C56 C55 1.381 . S
C56 C57 1.371 . S
C56 H78 0.932 . S
C57 C56 1.371 . S
C57 C58 1.400 . S
C58 C57 1.400 . S
C58 C59 1.351 . S
C58 H79 0.930 . S
C59 C58 1.351 . S
C59 C60 1.388 . S
C60 C55 1.385 . S
C60 C59 1.388 . S
C60 H80 0.929 . S
C61 C0 1.504 . S
C61 N31 1.309 . S
C61 O62 1.258 . S
O62 C61 1.258 . S
H63 C1 0.929 . S
H64 C2 0.932 . S
H65 C3 0.931 . S
H66 C8 0.929 . S
H67 C10 0.929 . S
H68 C12 0.931 . S
H69 C17 0.929 . S
H70 C19 0.932 . S
H71 C20 0.931 . S
H72 C25 0.930 . S
H73 C26 0.931 . S
H74 C27 0.930 . S
H75 C47 0.929 . S
H76 C49 0.930 . S
H77 C51 0.930 . S
H78 C56 0.932 . S
H79 C58 0.930 . S
H80 C60 0.929 . S
C81 C82 1.359 . S
C81 N86 1.330 . S
C81 C142 1.504 . S
C82 C81 1.359 . S
C82 C83 1.366 . S
C82 H144 0.929 . S
C83 C82 1.366 . S
C83 C84 1.415 . S
C83 H145 0.932 . S
C84 C83 1.415 . S
C84 C85 1.366 . S
C84 H146 0.931 . S
C85 C84 1.366 . S
C85 N86 1.325 . S
C85 C87 1.516 . S
N86 C81 1.330 . S
N86 C85 1.325 . S
N86 Co102 1.869 . S
C87 C85 1.516 . S
C87 N111 1.316 . S
C87 O134 1.263 . S
C88 C89 1.421 . S
C88 C93 1.360 . S
C88 N111 1.436 . S
C89 C88 1.421 . S
C89 C90 1.379 . S
C89 H147 0.929 . S
C90 C89 1.379 . S
C90 C91 1.417 . S
C91 C90 1.417 . S
C91 C92 1.352 . S
C91 H148 0.929 . S
C92 C91 1.352 . S
C92 C93 1.393 . S
C93 C88 1.360 . S
C93 C92 1.393 . S
C93 H149 0.931 . S
Cd94 O114 2.329 . S
Cd94 O116 2.350 . S
Cd94 O117 2.277 . S
Cd94 O119 2.173 . S
Cd94 O123 2.263 . S
Cd94 O134 2.366 . S
Cd95 O113 2.352 . S
Cd95 O120 2.250 . S
Cd95 O124 2.308 . S
C96 C100 1.403 . S
C96 C101 1.370 . S
C96 N112 1.423 . S
C97 C98 1.389 . S
C97 C101 1.389 . S
C98 C97 1.389 . S
C98 C99 1.379 . S
C98 H150 0.929 . S
C99 C98 1.379 . S
C99 C100 1.405 . S
C100 C96 1.403 . S
C100 C99 1.405 . S
C100 H151 0.932 . S
C101 C96 1.370 . S
C101 C97 1.389 . S
C101 H152 0.931 . S
Co102 N86 1.869 . S
Co102 N103 1.955 . S
Co102 N104 1.864 . S
Co102 N110 1.958 . S
Co102 N111 1.953 . S
Co102 N112 1.974 . S
N103 Co102 1.955 . S
N103 C121 1.329 . S
N103 C136 1.432 . S
N104 Co102 1.864 . S
N104 C105 1.327 . S
N104 C109 1.342 . S
C105 N104 1.327 . S
C105 C106 1.407 . S
C105 C121 1.481 . S
C106 C105 1.407 . S
C106 C107 1.364 . S
C106 H153 0.930 . S
C107 C106 1.364 . S
C107 C108 1.390 . S
C107 H154 0.931 . S
C108 C107 1.390 . S
C108 C109 1.346 . S
C108 H155 0.930 . S
C109 N104 1.342 . S
C109 C108 1.346 . S
C109 C125 1.516 . S
N110 Co102 1.958 . S
N110 C125 1.324 . S
N110 C127 1.427 . S
N111 C87 1.316 . S
N111 C88 1.436 . S
N111 Co102 1.953 . S
N112 C96 1.423 . S
N112 Co102 1.974 . S
N112 C142 1.309 . S
O113 Cd95 2.352 . S
O113 C133 1.235 . S
O114 Cd94 2.329 . S
O114 C133 1.270 . S
C115 O116 1.270 . S
C115 O117 1.248 . S
O116 Cd94 2.350 . S
O116 C115 1.270 . S
O117 Cd94 2.277 . S
O117 C115 1.248 . S
C118 O119 1.277 . S
C118 O120 1.230 . S
O119 Cd94 2.173 . S
O119 C118 1.277 . S
O120 Cd95 2.250 . S
O120 C118 1.230 . S
C121 N103 1.329 . S
C121 C105 1.481 . S
C121 O122 1.246 . S
O122 C121 1.246 . S
O123 Cd94 2.263 . S
O123 C135 1.258 . S
O124 Cd95 2.308 . S
O124 C135 1.274 . S
C125 C109 1.516 . S
C125 N110 1.324 . S
C125 O126 1.238 . S
O126 C125 1.238 . S
C127 N110 1.427 . S
C127 C128 1.394 . S
C127 C132 1.395 . S
C128 C127 1.394 . S
C128 C129 1.380 . S
C128 H156 0.929 . S
C129 C128 1.380 . S
C129 C130 1.384 . S
C129 C135 1.495 . S
C130 C129 1.384 . S
C130 C131 1.382 . S
C130 H157 0.930 . S
C131 C130 1.382 . S
C131 C132 1.398 . S
C132 C127 1.395 . S
C132 C131 1.398 . S
C132 H158 0.930 . S
C133 O113 1.235 . S
C133 O114 1.270 . S
O134 C87 1.263 . S
O134 Cd94 2.366 . S
C135 O123 1.258 . S
C135 O124 1.274 . S
C135 C129 1.495 . S
C136 N103 1.432 . S
C136 C137 1.381 . S
C136 C141 1.385 . S
C137 C136 1.381 . S
C137 C138 1.371 . S
C137 H159 0.932 . S
C138 C137 1.371 . S
C138 C139 1.400 . S
C139 C138 1.400 . S
C139 C140 1.351 . S
C139 H160 0.930 . S
C140 C139 1.351 . S
C140 C141 1.388 . S
C141 C136 1.385 . S
C141 C140 1.388 . S
C141 H161 0.929 . S
C142 C81 1.504 . S
C142 N112 1.309 . S
C142 O143 1.258 . S
O143 C142 1.258 . S
H144 C82 0.929 . S
H145 C83 0.932 . S
H146 C84 0.931 . S
H147 C89 0.929 . S
H148 C91 0.929 . S
H149 C93 0.931 . S
H150 C98 0.929 . S
H151 C100 0.932 . S
H152 C101 0.931 . S
H153 C106 0.930 . S
H154 C107 0.931 . S
H155 C108 0.930 . S
H156 C128 0.929 . S
H157 C130 0.930 . S
H158 C132 0.930 . S
H159 C137 0.932 . S
H160 C139 0.930 . S
H161 C141 0.929 . S
C162 C163 1.359 . S
C162 N167 1.330 . S
C162 C223 1.504 . S
C163 C162 1.359 . S
C163 C164 1.366 . S
C163 H225 0.929 . S
C164 C163 1.366 . S
C164 C165 1.415 . S
C164 H226 0.932 . S
C165 C164 1.415 . S
C165 C166 1.366 . S
C165 H227 0.931 . S
C166 C165 1.366 . S
C166 N167 1.325 . S
C166 C168 1.516 . S
N167 C162 1.330 . S
N167 C166 1.325 . S
N167 Co183 1.869 . S
C168 C166 1.516 . S
C168 N192 1.316 . S
C168 O215 1.263 . S
C169 C170 1.421 . S
C169 C174 1.360 . S
C169 N192 1.436 . S
C170 C169 1.421 . S
C170 C171 1.379 . S
C170 H228 0.929 . S
C171 C170 1.379 . S
C171 C172 1.417 . S
C172 C171 1.417 . S
C172 C173 1.352 . S
C172 H229 0.929 . S
C173 C172 1.352 . S
C173 C174 1.393 . S
C174 C169 1.360 . S
C174 C173 1.393 . S
C174 H230 0.931 . S
Cd175 O195 2.329 . S
Cd175 O197 2.350 . S
Cd175 O198 2.277 . S
Cd175 O200 2.173 . S
Cd175 O204 2.263 . S
Cd175 O215 2.366 . S
Cd176 O194 2.352 . S
Cd176 O201 2.250 . S
Cd176 O205 2.308 . S
C177 C181 1.403 . S
C177 C182 1.370 . S
C177 N193 1.423 . S
C178 C179 1.389 . S
C178 C182 1.389 . S
C179 C178 1.389 . S
C179 C180 1.379 . S
C179 H231 0.929 . S
C180 C179 1.379 . S
C180 C181 1.405 . S
C181 C177 1.403 . S
C181 C180 1.405 . S
C181 H232 0.932 . S
C182 C177 1.370 . S
C182 C178 1.389 . S
C182 H233 0.931 . S
Co183 N167 1.869 . S
Co183 N184 1.955 . S
Co183 N185 1.864 . S
Co183 N191 1.958 . S
Co183 N192 1.953 . S
Co183 N193 1.974 . S
N184 Co183 1.955 . S
N184 C202 1.329 . S
N184 C217 1.432 . S
N185 Co183 1.864 . S
N185 C186 1.327 . S
N185 C190 1.342 . S
C186 N185 1.327 . S
C186 C187 1.407 . S
C186 C202 1.481 . S
C187 C186 1.407 . S
C187 C188 1.364 . S
C187 H234 0.930 . S
C188 C187 1.364 . S
C188 C189 1.390 . S
C188 H235 0.931 . S
C189 C188 1.390 . S
C189 C190 1.346 . S
C189 H236 0.930 . S
C190 N185 1.342 . S
C190 C189 1.346 . S
C190 C206 1.516 . S
N191 Co183 1.958 . S
N191 C206 1.324 . S
N191 C208 1.427 . S
N192 C168 1.316 . S
N192 C169 1.436 . S
N192 Co183 1.953 . S
N193 C177 1.423 . S
N193 Co183 1.974 . S
N193 C223 1.309 . S
O194 Cd176 2.352 . S
O194 C214 1.235 . S
O195 Cd175 2.329 . S
O195 C214 1.270 . S
C196 O197 1.270 . S
C196 O198 1.248 . S
O197 Cd175 2.350 . S
O197 C196 1.270 . S
O198 Cd175 2.277 . S
O198 C196 1.248 . S
C199 O200 1.277 . S
C199 O201 1.230 . S
O200 Cd175 2.173 . S
O200 C199 1.277 . S
O201 Cd176 2.250 . S
O201 C199 1.230 . S
C202 N184 1.329 . S
C202 C186 1.481 . S
C202 O203 1.246 . S
O203 C202 1.246 . S
O204 Cd175 2.263 . S
O204 C216 1.258 . S
O205 Cd176 2.308 . S
O205 C216 1.274 . S
C206 C190 1.516 . S
C206 N191 1.324 . S
C206 O207 1.238 . S
O207 C206 1.238 . S
C208 N191 1.427 . S
C208 C209 1.394 . S
C208 C213 1.395 . S
C209 C208 1.394 . S
C209 C210 1.380 . S
C209 H237 0.929 . S
C210 C209 1.380 . S
C210 C211 1.384 . S
C210 C216 1.495 . S
C211 C210 1.384 . S
C211 C212 1.382 . S
C211 H238 0.930 . S
C212 C211 1.382 . S
C212 C213 1.398 . S
C213 C208 1.395 . S
C213 C212 1.398 . S
C213 H239 0.930 . S
C214 O194 1.235 . S
C214 O195 1.270 . S
O215 C168 1.263 . S
O215 Cd175 2.366 . S
C216 O204 1.258 . S
C216 O205 1.274 . S
C216 C210 1.495 . S
C217 N184 1.432 . S
C217 C218 1.381 . S
C217 C222 1.385 . S
C218 C217 1.381 . S
C218 C219 1.371 . S
C218 H240 0.932 . S
C219 C218 1.371 . S
C219 C220 1.400 . S
C220 C219 1.400 . S
C220 C221 1.351 . S
C220 H241 0.930 . S
C221 C220 1.351 . S
C221 C222 1.388 . S
C222 C217 1.385 . S
C222 C221 1.388 . S
C222 H242 0.929 . S
C223 C162 1.504 . S
C223 N193 1.309 . S
C223 O224 1.258 . S
O224 C223 1.258 . S
H225 C163 0.929 . S
H226 C164 0.932 . S
H227 C165 0.931 . S
H228 C170 0.929 . S
H229 C172 0.929 . S
H230 C174 0.931 . S
H231 C179 0.929 . S
H232 C181 0.932 . S
H233 C182 0.931 . S
H234 C187 0.930 . S
H235 C188 0.931 . S
H236 C189 0.930 . S
H237 C209 0.929 . S
H238 C211 0.930 . S
H239 C213 0.930 . S
H240 C218 0.932 . S
H241 C220 0.930 . S
H242 C222 0.929 . S
C243 C244 1.359 . S
C243 N248 1.330 . S
C243 C304 1.504 . S
C244 C243 1.359 . S
C244 C245 1.366 . S
C244 H306 0.929 . S
C245 C244 1.366 . S
C245 C246 1.415 . S
C245 H307 0.932 . S
C246 C245 1.415 . S
C246 C247 1.366 . S
C246 H308 0.931 . S
C247 C246 1.366 . S
C247 N248 1.325 . S
C247 C249 1.516 . S
N248 C243 1.330 . S
N248 C247 1.325 . S
N248 Co264 1.869 . S
C249 C247 1.516 . S
C249 N273 1.316 . S
C249 O296 1.263 . S
C250 C251 1.421 . S
C250 C255 1.360 . S
C250 N273 1.436 . S
C251 C250 1.421 . S
C251 C252 1.379 . S
C251 H309 0.929 . S
C252 C251 1.379 . S
C252 C253 1.417 . S
C253 C252 1.417 . S
C253 C254 1.352 . S
C253 H310 0.929 . S
C254 C253 1.352 . S
C254 C255 1.393 . S
C255 C250 1.360 . S
C255 C254 1.393 . S
C255 H311 0.931 . S
Cd256 O276 2.329 . S
Cd256 O278 2.350 . S
Cd256 O279 2.277 . S
Cd256 O281 2.173 . S
Cd256 O285 2.263 . S
Cd256 O296 2.366 . S
Cd257 O275 2.352 . S
Cd257 O282 2.250 . S
Cd257 O286 2.308 . S
C258 C262 1.403 . S
C258 C263 1.370 . S
C258 N274 1.423 . S
C259 C260 1.389 . S
C259 C263 1.389 . S
C260 C259 1.389 . S
C260 C261 1.379 . S
C260 H312 0.929 . S
C261 C260 1.379 . S
C261 C262 1.405 . S
C262 C258 1.403 . S
C262 C261 1.405 . S
C262 H313 0.932 . S
C263 C258 1.370 . S
C263 C259 1.389 . S
C263 H314 0.931 . S
Co264 N248 1.869 . S
Co264 N265 1.955 . S
Co264 N266 1.864 . S
Co264 N272 1.958 . S
Co264 N273 1.953 . S
Co264 N274 1.974 . S
N265 Co264 1.955 . S
N265 C283 1.329 . S
N265 C298 1.432 . S
N266 Co264 1.864 . S
N266 C267 1.327 . S
N266 C271 1.342 . S
C267 N266 1.327 . S
C267 C268 1.407 . S
C267 C283 1.481 . S
C268 C267 1.407 . S
C268 C269 1.364 . S
C268 H315 0.930 . S
C269 C268 1.364 . S
C269 C270 1.390 . S
C269 H316 0.931 . S
C270 C269 1.390 . S
C270 C271 1.346 . S
C270 H317 0.930 . S
C271 N266 1.342 . S
C271 C270 1.346 . S
C271 C287 1.516 . S
N272 Co264 1.958 . S
N272 C287 1.324 . S
N272 C289 1.427 . S
N273 C249 1.316 . S
N273 C250 1.436 . S
N273 Co264 1.953 . S
N274 C258 1.423 . S
N274 Co264 1.974 . S
N274 C304 1.309 . S
O275 Cd257 2.352 . S
O275 C295 1.235 . S
O276 Cd256 2.329 . S
O276 C295 1.270 . S
C277 O278 1.270 . S
C277 O279 1.248 . S
O278 Cd256 2.350 . S
O278 C277 1.270 . S
O279 Cd256 2.277 . S
O279 C277 1.248 . S
C280 O281 1.277 . S
C280 O282 1.230 . S
O281 Cd256 2.173 . S
O281 C280 1.277 . S
O282 Cd257 2.250 . S
O282 C280 1.230 . S
C283 N265 1.329 . S
C283 C267 1.481 . S
C283 O284 1.246 . S
O284 C283 1.246 . S
O285 Cd256 2.263 . S
O285 C297 1.258 . S
O286 Cd257 2.308 . S
O286 C297 1.274 . S
C287 C271 1.516 . S
C287 N272 1.324 . S
C287 O288 1.238 . S
O288 C287 1.238 . S
C289 N272 1.427 . S
C289 C290 1.394 . S
C289 C294 1.395 . S
C290 C289 1.394 . S
C290 C291 1.380 . S
C290 H318 0.929 . S
C291 C290 1.380 . S
C291 C292 1.384 . S
C291 C297 1.495 . S
C292 C291 1.384 . S
C292 C293 1.382 . S
C292 H319 0.930 . S
C293 C292 1.382 . S
C293 C294 1.398 . S
C294 C289 1.395 . S
C294 C293 1.398 . S
C294 H320 0.930 . S
C295 O275 1.235 . S
C295 O276 1.270 . S
O296 C249 1.263 . S
O296 Cd256 2.366 . S
C297 O285 1.258 . S
C297 O286 1.274 . S
C297 C291 1.495 . S
C298 N265 1.432 . S
C298 C299 1.381 . S
C298 C303 1.385 . S
C299 C298 1.381 . S
C299 C300 1.371 . S
C299 H321 0.932 . S
C300 C299 1.371 . S
C300 C301 1.400 . S
C301 C300 1.400 . S
C301 C302 1.351 . S
C301 H322 0.930 . S
C302 C301 1.351 . S
C302 C303 1.388 . S
C303 C298 1.385 . S
C303 C302 1.388 . S
C303 H323 0.929 . S
C304 C243 1.504 . S
C304 N274 1.309 . S
C304 O305 1.258 . S
O305 C304 1.258 . S
H306 C244 0.929 . S
H307 C245 0.932 . S
H308 C246 0.931 . S
H309 C251 0.929 . S
H310 C253 0.929 . S
H311 C255 0.931 . S
H312 C260 0.929 . S
H313 C262 0.932 . S
H314 C263 0.931 . S
H315 C268 0.930 . S
H316 C269 0.931 . S
H317 C270 0.930 . S
H318 C290 0.929 . S
H319 C292 0.930 . S
H320 C294 0.930 . S
H321 C299 0.932 . S
H322 C301 0.930 . S
H323 C303 0.929 . S
C324 C325 1.359 . S
C324 N329 1.330 . S
C324 C385 1.504 . S
C325 C324 1.359 . S
C325 C326 1.366 . S
C325 H387 0.929 . S
C326 C325 1.366 . S
C326 C327 1.415 . S
C326 H388 0.932 . S
C327 C326 1.415 . S
C327 C328 1.366 . S
C327 H389 0.931 . S
C328 C327 1.366 . S
C328 N329 1.325 . S
C328 C330 1.516 . S
N329 C324 1.330 . S
N329 C328 1.325 . S
N329 Co345 1.869 . S
C330 C328 1.516 . S
C330 N354 1.316 . S
C330 O377 1.263 . S
C331 C332 1.421 . S
C331 C336 1.360 . S
C331 N354 1.436 . S
C332 C331 1.421 . S
C332 C333 1.379 . S
C332 H390 0.929 . S
C333 C332 1.379 . S
C333 C334 1.417 . S
C334 C333 1.417 . S
C334 C335 1.352 . S
C334 H391 0.929 . S
C335 C334 1.352 . S
C335 C336 1.393 . S
C336 C331 1.360 . S
C336 C335 1.393 . S
C336 H392 0.931 . S
Cd337 O357 2.329 . S
Cd337 O359 2.350 . S
Cd337 O360 2.277 . S
Cd337 O362 2.173 . S
Cd337 O366 2.263 . S
Cd337 O377 2.366 . S
Cd338 O356 2.352 . S
Cd338 O363 2.250 . S
Cd338 O367 2.308 . S
C339 C343 1.403 . S
C339 C344 1.370 . S
C339 N355 1.423 . S
C340 C341 1.389 . S
C340 C344 1.389 . S
C341 C340 1.389 . S
C341 C342 1.379 . S
C341 H393 0.929 . S
C342 C341 1.379 . S
C342 C343 1.405 . S
C343 C339 1.403 . S
C343 C342 1.405 . S
C343 H394 0.932 . S
C344 C339 1.370 . S
C344 C340 1.389 . S
C344 H395 0.931 . S
Co345 N329 1.869 . S
Co345 N346 1.955 . S
Co345 N347 1.864 . S
Co345 N353 1.958 . S
Co345 N354 1.953 . S
Co345 N355 1.974 . S
N346 Co345 1.955 . S
N346 C364 1.329 . S
N346 C379 1.432 . S
N347 Co345 1.864 . S
N347 C348 1.327 . S
N347 C352 1.342 . S
C348 N347 1.327 . S
C348 C349 1.407 . S
C348 C364 1.481 . S
C349 C348 1.407 . S
C349 C350 1.364 . S
C349 H396 0.930 . S
C350 C349 1.364 . S
C350 C351 1.390 . S
C350 H397 0.931 . S
C351 C350 1.390 . S
C351 C352 1.346 . S
C351 H398 0.930 . S
C352 N347 1.342 . S
C352 C351 1.346 . S
C352 C368 1.516 . S
N353 Co345 1.958 . S
N353 C368 1.324 . S
N353 C370 1.427 . S
N354 C330 1.316 . S
N354 C331 1.436 . S
N354 Co345 1.953 . S
N355 C339 1.423 . S
N355 Co345 1.974 . S
N355 C385 1.309 . S
O356 Cd338 2.352 . S
O356 C376 1.235 . S
O357 Cd337 2.329 . S
O357 C376 1.270 . S
C358 O359 1.270 . S
C358 O360 1.248 . S
O359 Cd337 2.350 . S
O359 C358 1.270 . S
O360 Cd337 2.277 . S
O360 C358 1.248 . S
C361 O362 1.277 . S
C361 O363 1.230 . S
O362 Cd337 2.173 . S
O362 C361 1.277 . S
O363 Cd338 2.250 . S
O363 C361 1.230 . S
C364 N346 1.329 . S
C364 C348 1.481 . S
C364 O365 1.246 . S
O365 C364 1.246 . S
O366 Cd337 2.263 . S
O366 C378 1.258 . S
O367 Cd338 2.308 . S
O367 C378 1.274 . S
C368 C352 1.516 . S
C368 N353 1.324 . S
C368 O369 1.238 . S
O369 C368 1.238 . S
C370 N353 1.427 . S
C370 C371 1.394 . S
C370 C375 1.395 . S
C371 C370 1.394 . S
C371 C372 1.380 . S
C371 H399 0.929 . S
C372 C371 1.380 . S
C372 C373 1.384 . S
C372 C378 1.495 . S
C373 C372 1.384 . S
C373 C374 1.382 . S
C373 H400 0.930 . S
C374 C373 1.382 . S
C374 C375 1.398 . S
C375 C370 1.395 . S
C375 C374 1.398 . S
C375 H401 0.930 . S
C376 O356 1.235 . S
C376 O357 1.270 . S
O377 C330 1.263 . S
O377 Cd337 2.366 . S
C378 O366 1.258 . S
C378 O367 1.274 . S
C378 C372 1.495 . S
C379 N346 1.432 . S
C379 C380 1.381 . S
C379 C384 1.385 . S
C380 C379 1.381 . S
C380 C381 1.371 . S
C380 H402 0.932 . S
C381 C380 1.371 . S
C381 C382 1.400 . S
C382 C381 1.400 . S
C382 C383 1.351 . S
C382 H403 0.930 . S
C383 C382 1.351 . S
C383 C384 1.388 . S
C384 C379 1.385 . S
C384 C383 1.388 . S
C384 H404 0.929 . S
C385 C324 1.504 . S
C385 N355 1.309 . S
C385 O386 1.258 . S
O386 C385 1.258 . S
H387 C325 0.929 . S
H388 C326 0.932 . S
H389 C327 0.931 . S
H390 C332 0.929 . S
H391 C334 0.929 . S
H392 C336 0.931 . S
H393 C341 0.929 . S
H394 C343 0.932 . S
H395 C344 0.931 . S
H396 C349 0.930 . S
H397 C350 0.931 . S
H398 C351 0.930 . S
H399 C371 0.929 . S
H400 C373 0.930 . S
H401 C375 0.930 . S
H402 C380 0.932 . S
H403 C382 0.930 . S
H404 C384 0.929 . S
C405 C406 1.359 . S
C405 N410 1.330 . S
C405 C466 1.504 . S
C406 C405 1.359 . S
C406 C407 1.366 . S
C406 H468 0.929 . S
C407 C406 1.366 . S
C407 C408 1.415 . S
C407 H469 0.932 . S
C408 C407 1.415 . S
C408 C409 1.366 . S
C408 H470 0.931 . S
C409 C408 1.366 . S
C409 N410 1.325 . S
C409 C411 1.516 . S
N410 C405 1.330 . S
N410 C409 1.325 . S
N410 Co426 1.869 . S
C411 C409 1.516 . S
C411 N435 1.316 . S
C411 O458 1.263 . S
C412 C413 1.421 . S
C412 C417 1.360 . S
C412 N435 1.436 . S
C413 C412 1.421 . S
C413 C414 1.379 . S
C413 H471 0.929 . S
C414 C413 1.379 . S
C414 C415 1.417 . S
C415 C414 1.417 . S
C415 C416 1.352 . S
C415 H472 0.929 . S
C416 C415 1.352 . S
C416 C417 1.393 . S
C417 C412 1.360 . S
C417 C416 1.393 . S
C417 H473 0.931 . S
Cd418 O438 2.329 . S
Cd418 O440 2.350 . S
Cd418 O441 2.277 . S
Cd418 O443 2.173 . S
Cd418 O447 2.263 . S
Cd418 O458 2.366 . S
Cd419 O437 2.352 . S
Cd419 O444 2.250 . S
Cd419 O448 2.308 . S
C420 C424 1.403 . S
C420 C425 1.370 . S
C420 N436 1.423 . S
C421 C422 1.389 . S
C421 C425 1.389 . S
C422 C421 1.389 . S
C422 C423 1.379 . S
C422 H474 0.929 . S
C423 C422 1.379 . S
C423 C424 1.405 . S
C424 C420 1.403 . S
C424 C423 1.405 . S
C424 H475 0.932 . S
C425 C420 1.370 . S
C425 C421 1.389 . S
C425 H476 0.931 . S
Co426 N410 1.869 . S
Co426 N427 1.955 . S
Co426 N428 1.864 . S
Co426 N434 1.958 . S
Co426 N435 1.953 . S
Co426 N436 1.974 . S
N427 Co426 1.955 . S
N427 C445 1.329 . S
N427 C460 1.432 . S
N428 Co426 1.864 . S
N428 C429 1.327 . S
N428 C433 1.342 . S
C429 N428 1.327 . S
C429 C430 1.407 . S
C429 C445 1.481 . S
C430 C429 1.407 . S
C430 C431 1.364 . S
C430 H477 0.930 . S
C431 C430 1.364 . S
C431 C432 1.390 . S
C431 H478 0.931 . S
C432 C431 1.390 . S
C432 C433 1.346 . S
C432 H479 0.930 . S
C433 N428 1.342 . S
C433 C432 1.346 . S
C433 C449 1.516 . S
N434 Co426 1.958 . S
N434 C449 1.324 . S
N434 C451 1.427 . S
N435 C411 1.316 . S
N435 C412 1.436 . S
N435 Co426 1.953 . S
N436 C420 1.423 . S
N436 Co426 1.974 . S
N436 C466 1.309 . S
O437 Cd419 2.352 . S
O437 C457 1.235 . S
O438 Cd418 2.329 . S
O438 C457 1.270 . S
C439 O440 1.270 . S
C439 O441 1.248 . S
O440 Cd418 2.350 . S
O440 C439 1.270 . S
O441 Cd418 2.277 . S
O441 C439 1.248 . S
C442 O443 1.277 . S
C442 O444 1.230 . S
O443 Cd418 2.173 . S
O443 C442 1.277 . S
O444 Cd419 2.250 . S
O444 C442 1.230 . S
C445 N427 1.329 . S
C445 C429 1.481 . S
C445 O446 1.246 . S
O446 C445 1.246 . S
O447 Cd418 2.263 . S
O447 C459 1.258 . S
O448 Cd419 2.308 . S
O448 C459 1.274 . S
C449 C433 1.516 . S
C449 N434 1.324 . S
C449 O450 1.238 . S
O450 C449 1.238 . S
C451 N434 1.427 . S
C451 C452 1.394 . S
C451 C456 1.395 . S
C452 C451 1.394 . S
C452 C453 1.380 . S
C452 H480 0.929 . S
C453 C452 1.380 . S
C453 C454 1.384 . S
C453 C459 1.495 . S
C454 C453 1.384 . S
C454 C455 1.382 . S
C454 H481 0.930 . S
C455 C454 1.382 . S
C455 C456 1.398 . S
C456 C451 1.395 . S
C456 C455 1.398 . S
C456 H482 0.930 . S
C457 O437 1.235 . S
C457 O438 1.270 . S
O458 C411 1.263 . S
O458 Cd418 2.366 . S
C459 O447 1.258 . S
C459 O448 1.274 . S
C459 C453 1.495 . S
C460 N427 1.432 . S
C460 C461 1.381 . S
C460 C465 1.385 . S
C461 C460 1.381 . S
C461 C462 1.371 . S
C461 H483 0.932 . S
C462 C461 1.371 . S
C462 C463 1.400 . S
C463 C462 1.400 . S
C463 C464 1.351 . S
C463 H484 0.930 . S
C464 C463 1.351 . S
C464 C465 1.388 . S
C465 C460 1.385 . S
C465 C464 1.388 . S
C465 H485 0.929 . S
C466 C405 1.504 . S
C466 N436 1.309 . S
C466 O467 1.258 . S
O467 C466 1.258 . S
H468 C406 0.929 . S
H469 C407 0.932 . S
H470 C408 0.931 . S
H471 C413 0.929 . S
H472 C415 0.929 . S
H473 C417 0.931 . S
H474 C422 0.929 . S
H475 C424 0.932 . S
H476 C425 0.931 . S
H477 C430 0.930 . S
H478 C431 0.931 . S
H479 C432 0.930 . S
H480 C452 0.929 . S
H481 C454 0.930 . S
H482 C456 0.930 . S
H483 C461 0.932 . S
H484 C463 0.930 . S
H485 C465 0.929 . S
C486 C487 1.359 . S
C486 N491 1.330 . S
C486 C547 1.504 . S
C487 C486 1.359 . S
C487 C488 1.366 . S
C487 H549 0.929 . S
C488 C487 1.366 . S
C488 C489 1.415 . S
C488 H550 0.932 . S
C489 C488 1.415 . S
C489 C490 1.366 . S
C489 H551 0.931 . S
C490 C489 1.366 . S
C490 N491 1.325 . S
C490 C492 1.516 . S
N491 C486 1.330 . S
N491 C490 1.325 . S
N491 Co507 1.869 . S
C492 C490 1.516 . S
C492 N516 1.316 . S
C492 O539 1.263 . S
C493 C494 1.421 . S
C493 C498 1.360 . S
C493 N516 1.436 . S
C494 C493 1.421 . S
C494 C495 1.379 . S
C494 H552 0.929 . S
C495 C494 1.379 . S
C495 C496 1.417 . S
C496 C495 1.417 . S
C496 C497 1.352 . S
C496 H553 0.929 . S
C497 C496 1.352 . S
C497 C498 1.393 . S
C498 C493 1.360 . S
C498 C497 1.393 . S
C498 H554 0.931 . S
Cd499 O519 2.329 . S
Cd499 O521 2.350 . S
Cd499 O522 2.277 . S
Cd499 O524 2.173 . S
Cd499 O528 2.263 . S
Cd499 O539 2.366 . S
Cd500 O518 2.352 . S
Cd500 O525 2.250 . S
Cd500 O529 2.308 . S
C501 C505 1.403 . S
C501 C506 1.370 . S
C501 N517 1.423 . S
C502 C503 1.389 . S
C502 C506 1.389 . S
C503 C502 1.389 . S
C503 C504 1.379 . S
C503 H555 0.929 . S
C504 C503 1.379 . S
C504 C505 1.405 . S
C505 C501 1.403 . S
C505 C504 1.405 . S
C505 H556 0.932 . S
C506 C501 1.370 . S
C506 C502 1.389 . S
C506 H557 0.931 . S
Co507 N491 1.869 . S
Co507 N508 1.955 . S
Co507 N509 1.864 . S
Co507 N515 1.958 . S
Co507 N516 1.953 . S
Co507 N517 1.974 . S
N508 Co507 1.955 . S
N508 C526 1.329 . S
N508 C541 1.432 . S
N509 Co507 1.864 . S
N509 C510 1.327 . S
N509 C514 1.342 . S
C510 N509 1.327 . S
C510 C511 1.407 . S
C510 C526 1.481 . S
C511 C510 1.407 . S
C511 C512 1.364 . S
C511 H558 0.930 . S
C512 C511 1.364 . S
C512 C513 1.390 . S
C512 H559 0.931 . S
C513 C512 1.390 . S
C513 C514 1.346 . S
C513 H560 0.930 . S
C514 N509 1.342 . S
C514 C513 1.346 . S
C514 C530 1.516 . S
N515 Co507 1.958 . S
N515 C530 1.324 . S
N515 C532 1.427 . S
N516 C492 1.316 . S
N516 C493 1.436 . S
N516 Co507 1.953 . S
N517 C501 1.423 . S
N517 Co507 1.974 . S
N517 C547 1.309 . S
O518 Cd500 2.352 . S
O518 C538 1.235 . S
O519 Cd499 2.329 . S
O519 C538 1.270 . S
C520 O521 1.270 . S
C520 O522 1.248 . S
O521 Cd499 2.350 . S
O521 C520 1.270 . S
O522 Cd499 2.277 . S
O522 C520 1.248 . S
C523 O524 1.277 . S
C523 O525 1.230 . S
O524 Cd499 2.173 . S
O524 C523 1.277 . S
O525 Cd500 2.250 . S
O525 C523 1.230 . S
C526 N508 1.329 . S
C526 C510 1.481 . S
C526 O527 1.246 . S
O527 C526 1.246 . S
O528 Cd499 2.263 . S
O528 C540 1.258 . S
O529 Cd500 2.308 . S
O529 C540 1.274 . S
C530 C514 1.516 . S
C530 N515 1.324 . S
C530 O531 1.238 . S
O531 C530 1.238 . S
C532 N515 1.427 . S
C532 C533 1.394 . S
C532 C537 1.395 . S
C533 C532 1.394 . S
C533 C534 1.380 . S
C533 H561 0.929 . S
C534 C533 1.380 . S
C534 C535 1.384 . S
C534 C540 1.495 . S
C535 C534 1.384 . S
C535 C536 1.382 . S
C535 H562 0.930 . S
C536 C535 1.382 . S
C536 C537 1.398 . S
C537 C532 1.395 . S
C537 C536 1.398 . S
C537 H563 0.930 . S
C538 O518 1.235 . S
C538 O519 1.270 . S
O539 C492 1.263 . S
O539 Cd499 2.366 . S
C540 O528 1.258 . S
C540 O529 1.274 . S
C540 C534 1.495 . S
C541 N508 1.432 . S
C541 C542 1.381 . S
C541 C546 1.385 . S
C542 C541 1.381 . S
C542 C543 1.371 . S
C542 H564 0.932 . S
C543 C542 1.371 . S
C543 C544 1.400 . S
C544 C543 1.400 . S
C544 C545 1.351 . S
C544 H565 0.930 . S
C545 C544 1.351 . S
C545 C546 1.388 . S
C546 C541 1.385 . S
C546 C545 1.388 . S
C546 H566 0.929 . S
C547 C486 1.504 . S
C547 N517 1.309 . S
C547 O548 1.258 . S
O548 C547 1.258 . S
H549 C487 0.929 . S
H550 C488 0.932 . S
H551 C489 0.931 . S
H552 C494 0.929 . S
H553 C496 0.929 . S
H554 C498 0.931 . S
H555 C503 0.929 . S
H556 C505 0.932 . S
H557 C506 0.931 . S
H558 C511 0.930 . S
H559 C512 0.931 . S
H560 C513 0.930 . S
H561 C533 0.929 . S
H562 C535 0.930 . S
H563 C537 0.930 . S
H564 C542 0.932 . S
H565 C544 0.930 . S
H566 C546 0.929 . S
C567 C568 1.359 . S
C567 N572 1.330 . S
C567 C628 1.504 . S
C568 C567 1.359 . S
C568 C569 1.366 . S
C568 H630 0.929 . S
C569 C568 1.366 . S
C569 C570 1.415 . S
C569 H631 0.932 . S
C570 C569 1.415 . S
C570 C571 1.366 . S
C570 H632 0.931 . S
C571 C570 1.366 . S
C571 N572 1.325 . S
C571 C573 1.516 . S
N572 C567 1.330 . S
N572 C571 1.325 . S
N572 Co588 1.869 . S
C573 C571 1.516 . S
C573 N597 1.316 . S
C573 O620 1.263 . S
C574 C575 1.421 . S
C574 C579 1.360 . S
C574 N597 1.436 . S
C575 C574 1.421 . S
C575 C576 1.379 . S
C575 H633 0.929 . S
C576 C575 1.379 . S
C576 C577 1.417 . S
C577 C576 1.417 . S
C577 C578 1.352 . S
C577 H634 0.929 . S
C578 C577 1.352 . S
C578 C579 1.393 . S
C579 C574 1.360 . S
C579 C578 1.393 . S
C579 H635 0.931 . S
Cd580 O600 2.329 . S
Cd580 O602 2.350 . S
Cd580 O603 2.277 . S
Cd580 O605 2.173 . S
Cd580 O609 2.263 . S
Cd580 O620 2.366 . S
Cd581 O599 2.352 . S
Cd581 O606 2.250 . S
Cd581 O610 2.308 . S
C582 C586 1.403 . S
C582 C587 1.370 . S
C582 N598 1.423 . S
C583 C584 1.389 . S
C583 C587 1.389 . S
C584 C583 1.389 . S
C584 C585 1.379 . S
C584 H636 0.929 . S
C585 C584 1.379 . S
C585 C586 1.405 . S
C586 C582 1.403 . S
C586 C585 1.405 . S
C586 H637 0.932 . S
C587 C582 1.370 . S
C587 C583 1.389 . S
C587 H638 0.931 . S
Co588 N572 1.869 . S
Co588 N589 1.955 . S
Co588 N590 1.864 . S
Co588 N596 1.958 . S
Co588 N597 1.953 . S
Co588 N598 1.974 . S
N589 Co588 1.955 . S
N589 C607 1.329 . S
N589 C622 1.432 . S
N590 Co588 1.864 . S
N590 C591 1.327 . S
N590 C595 1.342 . S
C591 N590 1.327 . S
C591 C592 1.407 . S
C591 C607 1.481 . S
C592 C591 1.407 . S
C592 C593 1.364 . S
C592 H639 0.930 . S
C593 C592 1.364 . S
C593 C594 1.390 . S
C593 H640 0.931 . S
C594 C593 1.390 . S
C594 C595 1.346 . S
C594 H641 0.930 . S
C595 N590 1.342 . S
C595 C594 1.346 . S
C595 C611 1.516 . S
N596 Co588 1.958 . S
N596 C611 1.324 . S
N596 C613 1.427 . S
N597 C573 1.316 . S
N597 C574 1.436 . S
N597 Co588 1.953 . S
N598 C582 1.423 . S
N598 Co588 1.974 . S
N598 C628 1.309 . S
O599 Cd581 2.352 . S
O599 C619 1.235 . S
O600 Cd580 2.329 . S
O600 C619 1.270 . S
C601 O602 1.270 . S
C601 O603 1.248 . S
O602 Cd580 2.350 . S
O602 C601 1.270 . S
O603 Cd580 2.277 . S
O603 C601 1.248 . S
C604 O605 1.277 . S
C604 O606 1.230 . S
O605 Cd580 2.173 . S
O605 C604 1.277 . S
O606 Cd581 2.250 . S
O606 C604 1.230 . S
C607 N589 1.329 . S
C607 C591 1.481 . S
C607 O608 1.246 . S
O608 C607 1.246 . S
O609 Cd580 2.263 . S
O609 C621 1.258 . S
O610 Cd581 2.308 . S
O610 C621 1.274 . S
C611 C595 1.516 . S
C611 N596 1.324 . S
C611 O612 1.238 . S
O612 C611 1.238 . S
C613 N596 1.427 . S
C613 C614 1.394 . S
C613 C618 1.395 . S
C614 C613 1.394 . S
C614 C615 1.380 . S
C614 H642 0.929 . S
C615 C614 1.380 . S
C615 C616 1.384 . S
C615 C621 1.495 . S
C616 C615 1.384 . S
C616 C617 1.382 . S
C616 H643 0.930 . S
C617 C616 1.382 . S
C617 C618 1.398 . S
C618 C613 1.395 . S
C618 C617 1.398 . S
C618 H644 0.930 . S
C619 O599 1.235 . S
C619 O600 1.270 . S
O620 C573 1.263 . S
O620 Cd580 2.366 . S
C621 O609 1.258 . S
C621 O610 1.274 . S
C621 C615 1.495 . S
C622 N589 1.432 . S
C622 C623 1.381 . S
C622 C627 1.385 . S
C623 C622 1.381 . S
C623 C624 1.371 . S
C623 H645 0.932 . S
C624 C623 1.371 . S
C624 C625 1.400 . S
C625 C624 1.400 . S
C625 C626 1.351 . S
C625 H646 0.930 . S
C626 C625 1.351 . S
C626 C627 1.388 . S
C627 C622 1.385 . S
C627 C626 1.388 . S
C627 H647 0.929 . S
C628 C567 1.504 . S
C628 N598 1.309 . S
C628 O629 1.258 . S
O629 C628 1.258 . S
H630 C568 0.929 . S
H631 C569 0.932 . S
H632 C570 0.931 . S
H633 C575 0.929 . S
H634 C577 0.929 . S
H635 C579 0.931 . S
H636 C584 0.929 . S
H637 C586 0.932 . S
H638 C587 0.931 . S
H639 C592 0.930 . S
H640 C593 0.931 . S
H641 C594 0.930 . S
H642 C614 0.929 . S
H643 C616 0.930 . S
H644 C618 0.930 . S
H645 C623 0.932 . S
H646 C625 0.930 . S
H647 C627 0.929 . S
C648 C649 1.359 . S
C648 N653 1.330 . S
C648 C709 1.504 . S
C649 C648 1.359 . S
C649 C650 1.366 . S
C649 H711 0.929 . S
C650 C649 1.366 . S
C650 C651 1.415 . S
C650 H712 0.932 . S
C651 C650 1.415 . S
C651 C652 1.366 . S
C651 H713 0.931 . S
C652 C651 1.366 . S
C652 N653 1.325 . S
C652 C654 1.516 . S
N653 C648 1.330 . S
N653 C652 1.325 . S
N653 Co669 1.869 . S
C654 C652 1.516 . S
C654 N678 1.316 . S
C654 O701 1.263 . S
C655 C656 1.421 . S
C655 C660 1.360 . S
C655 N678 1.436 . S
C656 C655 1.421 . S
C656 C657 1.379 . S
C656 H714 0.929 . S
C657 C656 1.379 . S
C657 C658 1.417 . S
C658 C657 1.417 . S
C658 C659 1.352 . S
C658 H715 0.929 . S
C659 C658 1.352 . S
C659 C660 1.393 . S
C660 C655 1.360 . S
C660 C659 1.393 . S
C660 H716 0.931 . S
Cd661 O681 2.329 . S
Cd661 O683 2.350 . S
Cd661 O684 2.277 . S
Cd661 O686 2.173 . S
Cd661 O690 2.263 . S
Cd661 O701 2.366 . S
Cd662 O680 2.352 . S
Cd662 O687 2.250 . S
Cd662 O691 2.308 . S
C663 C667 1.403 . S
C663 C668 1.370 . S
C663 N679 1.423 . S
C664 C665 1.389 . S
C664 C668 1.389 . S
C665 C664 1.389 . S
C665 C666 1.379 . S
C665 H717 0.929 . S
C666 C665 1.379 . S
C666 C667 1.405 . S
C667 C663 1.403 . S
C667 C666 1.405 . S
C667 H718 0.932 . S
C668 C663 1.370 . S
C668 C664 1.389 . S
C668 H719 0.931 . S
Co669 N653 1.869 . S
Co669 N670 1.955 . S
Co669 N671 1.864 . S
Co669 N677 1.958 . S
Co669 N678 1.953 . S
Co669 N679 1.974 . S
N670 Co669 1.955 . S
N670 C688 1.329 . S
N670 C703 1.432 . S
N671 Co669 1.864 . S
N671 C672 1.327 . S
N671 C676 1.342 . S
C672 N671 1.327 . S
C672 C673 1.407 . S
C672 C688 1.481 . S
C673 C672 1.407 . S
C673 C674 1.364 . S
C673 H720 0.930 . S
C674 C673 1.364 . S
C674 C675 1.390 . S
C674 H721 0.931 . S
C675 C674 1.390 . S
C675 C676 1.346 . S
C675 H722 0.930 . S
C676 N671 1.342 . S
C676 C675 1.346 . S
C676 C692 1.516 . S
N677 Co669 1.958 . S
N677 C692 1.324 . S
N677 C694 1.427 . S
N678 C654 1.316 . S
N678 C655 1.436 . S
N678 Co669 1.953 . S
N679 C663 1.423 . S
N679 Co669 1.974 . S
N679 C709 1.309 . S
O680 Cd662 2.352 . S
O680 C700 1.235 . S
O681 Cd661 2.329 . S
O681 C700 1.270 . S
C682 O683 1.270 . S
C682 O684 1.248 . S
O683 Cd661 2.350 . S
O683 C682 1.270 . S
O684 Cd661 2.277 . S
O684 C682 1.248 . S
C685 O686 1.277 . S
C685 O687 1.230 . S
O686 Cd661 2.173 . S
O686 C685 1.277 . S
O687 Cd662 2.250 . S
O687 C685 1.230 . S
C688 N670 1.329 . S
C688 C672 1.481 . S
C688 O689 1.246 . S
O689 C688 1.246 . S
O690 Cd661 2.263 . S
O690 C702 1.258 . S
O691 Cd662 2.308 . S
O691 C702 1.274 . S
C692 C676 1.516 . S
C692 N677 1.324 . S
C692 O693 1.238 . S
O693 C692 1.238 . S
C694 N677 1.427 . S
C694 C695 1.394 . S
C694 C699 1.395 . S
C695 C694 1.394 . S
C695 C696 1.380 . S
C695 H723 0.929 . S
C696 C695 1.380 . S
C696 C697 1.384 . S
C696 C702 1.495 . S
C697 C696 1.384 . S
C697 C698 1.382 . S
C697 H724 0.930 . S
C698 C697 1.382 . S
C698 C699 1.398 . S
C699 C694 1.395 . S
C699 C698 1.398 . S
C699 H725 0.930 . S
C700 O680 1.235 . S
C700 O681 1.270 . S
O701 C654 1.263 . S
O701 Cd661 2.366 . S
C702 O690 1.258 . S
C702 O691 1.274 . S
C702 C696 1.495 . S
C703 N670 1.432 . S
C703 C704 1.381 . S
C703 C708 1.385 . S
C704 C703 1.381 . S
C704 C705 1.371 . S
C704 H726 0.932 . S
C705 C704 1.371 . S
C705 C706 1.400 . S
C706 C705 1.400 . S
C706 C707 1.351 . S
C706 H727 0.930 . S
C707 C706 1.351 . S
C707 C708 1.388 . S
C708 C703 1.385 . S
C708 C707 1.388 . S
C708 H728 0.929 . S
C709 C648 1.504 . S
C709 N679 1.309 . S
C709 O710 1.258 . S
O710 C709 1.258 . S
H711 C649 0.929 . S
H712 C650 0.932 . S
H713 C651 0.931 . S
H714 C656 0.929 . S
H715 C658 0.929 . S
H716 C660 0.931 . S
H717 C665 0.929 . S
H718 C667 0.932 . S
H719 C668 0.931 . S
H720 C673 0.930 . S
H721 C674 0.931 . S
H722 C675 0.930 . S
H723 C695 0.929 . S
H724 C697 0.930 . S
H725 C699 0.930 . S
H726 C704 0.932 . S
H727 C706 0.930 . S
H728 C708 0.929 . S
C729 C730 1.359 . S
C729 N734 1.330 . S
C729 C790 1.504 . S
C730 C729 1.359 . S
C730 C731 1.366 . S
C730 H792 0.929 . S
C731 C730 1.366 . S
C731 C732 1.415 . S
C731 H793 0.932 . S
C732 C731 1.415 . S
C732 C733 1.366 . S
C732 H794 0.931 . S
C733 C732 1.366 . S
C733 N734 1.325 . S
C733 C735 1.516 . S
N734 C729 1.330 . S
N734 C733 1.325 . S
N734 Co750 1.869 . S
C735 C733 1.516 . S
C735 N759 1.316 . S
C735 O782 1.263 . S
C736 C737 1.421 . S
C736 C741 1.360 . S
C736 N759 1.436 . S
C737 C736 1.421 . S
C737 C738 1.379 . S
C737 H795 0.929 . S
C738 C737 1.379 . S
C738 C739 1.417 . S
C739 C738 1.417 . S
C739 C740 1.352 . S
C739 H796 0.929 . S
C740 C739 1.352 . S
C740 C741 1.393 . S
C741 C736 1.360 . S
C741 C740 1.393 . S
C741 H797 0.931 . S
Cd742 O762 2.329 . S
Cd742 O764 2.350 . S
Cd742 O765 2.277 . S
Cd742 O767 2.173 . S
Cd742 O771 2.263 . S
Cd742 O782 2.366 . S
Cd743 O761 2.352 . S
Cd743 O768 2.250 . S
Cd743 O772 2.308 . S
C744 C748 1.403 . S
C744 C749 1.370 . S
C744 N760 1.423 . S
C745 C746 1.389 . S
C745 C749 1.389 . S
C746 C745 1.389 . S
C746 C747 1.379 . S
C746 H798 0.929 . S
C747 C746 1.379 . S
C747 C748 1.405 . S
C748 C744 1.403 . S
C748 C747 1.405 . S
C748 H799 0.932 . S
C749 C744 1.370 . S
C749 C745 1.389 . S
C749 H800 0.931 . S
Co750 N734 1.869 . S
Co750 N751 1.955 . S
Co750 N752 1.864 . S
Co750 N758 1.958 . S
Co750 N759 1.953 . S
Co750 N760 1.974 . S
N751 Co750 1.955 . S
N751 C769 1.329 . S
N751 C784 1.432 . S
N752 Co750 1.864 . S
N752 C753 1.327 . S
N752 C757 1.342 . S
C753 N752 1.327 . S
C753 C754 1.407 . S
C753 C769 1.481 . S
C754 C753 1.407 . S
C754 C755 1.364 . S
C754 H801 0.930 . S
C755 C754 1.364 . S
C755 C756 1.390 . S
C755 H802 0.931 . S
C756 C755 1.390 . S
C756 C757 1.346 . S
C756 H803 0.930 . S
C757 N752 1.342 . S
C757 C756 1.346 . S
C757 C773 1.516 . S
N758 Co750 1.958 . S
N758 C773 1.324 . S
N758 C775 1.427 . S
N759 C735 1.316 . S
N759 C736 1.436 . S
N759 Co750 1.953 . S
N760 C744 1.423 . S
N760 Co750 1.974 . S
N760 C790 1.309 . S
O761 Cd743 2.352 . S
O761 C781 1.235 . S
O762 Cd742 2.329 . S
O762 C781 1.270 . S
C763 O764 1.270 . S
C763 O765 1.248 . S
O764 Cd742 2.350 . S
O764 C763 1.270 . S
O765 Cd742 2.277 . S
O765 C763 1.248 . S
C766 O767 1.277 . S
C766 O768 1.230 . S
O767 Cd742 2.173 . S
O767 C766 1.277 . S
O768 Cd743 2.250 . S
O768 C766 1.230 . S
C769 N751 1.329 . S
C769 C753 1.481 . S
C769 O770 1.246 . S
O770 C769 1.246 . S
O771 Cd742 2.263 . S
O771 C783 1.258 . S
O772 Cd743 2.308 . S
O772 C783 1.274 . S
C773 C757 1.516 . S
C773 N758 1.324 . S
C773 O774 1.238 . S
O774 C773 1.238 . S
C775 N758 1.427 . S
C775 C776 1.394 . S
C775 C780 1.395 . S
C776 C775 1.394 . S
C776 C777 1.380 . S
C776 H804 0.929 . S
C777 C776 1.380 . S
C777 C778 1.384 . S
C777 C783 1.495 . S
C778 C777 1.384 . S
C778 C779 1.382 . S
C778 H805 0.930 . S
C779 C778 1.382 . S
C779 C780 1.398 . S
C780 C775 1.395 . S
C780 C779 1.398 . S
C780 H806 0.930 . S
C781 O761 1.235 . S
C781 O762 1.270 . S
O782 C735 1.263 . S
O782 Cd742 2.366 . S
C783 O771 1.258 . S
C783 O772 1.274 . S
C783 C777 1.495 . S
C784 N751 1.432 . S
C784 C785 1.381 . S
C784 C789 1.385 . S
C785 C784 1.381 . S
C785 C786 1.371 . S
C785 H807 0.932 . S
C786 C785 1.371 . S
C786 C787 1.400 . S
C787 C786 1.400 . S
C787 C788 1.351 . S
C787 H808 0.930 . S
C788 C787 1.351 . S
C788 C789 1.388 . S
C789 C784 1.385 . S
C789 C788 1.388 . S
C789 H809 0.929 . S
C790 C729 1.504 . S
C790 N760 1.309 . S
C790 O791 1.258 . S
O791 C790 1.258 . S
H792 C730 0.929 . S
H793 C731 0.932 . S
H794 C732 0.931 . S
H795 C737 0.929 . S
H796 C739 0.929 . S
H797 C741 0.931 . S
H798 C746 0.929 . S
H799 C748 0.932 . S
H800 C749 0.931 . S
H801 C754 0.930 . S
H802 C755 0.931 . S
H803 C756 0.930 . S
H804 C776 0.929 . S
H805 C778 0.930 . S
H806 C780 0.930 . S
H807 C785 0.932 . S
H808 C787 0.930 . S
H809 C789 0.929 . S
C810 C811 1.359 . S
C810 N815 1.330 . S
C810 C871 1.504 . S
C811 C810 1.359 . S
C811 C812 1.366 . S
C811 H873 0.929 . S
C812 C811 1.366 . S
C812 C813 1.415 . S
C812 H874 0.932 . S
C813 C812 1.415 . S
C813 C814 1.366 . S
C813 H875 0.931 . S
C814 C813 1.366 . S
C814 N815 1.325 . S
C814 C816 1.516 . S
N815 C810 1.330 . S
N815 C814 1.325 . S
N815 Co831 1.869 . S
C816 C814 1.516 . S
C816 N840 1.316 . S
C816 O863 1.263 . S
C817 C818 1.421 . S
C817 C822 1.360 . S
C817 N840 1.436 . S
C818 C817 1.421 . S
C818 C819 1.379 . S
C818 H876 0.929 . S
C819 C818 1.379 . S
C819 C820 1.417 . S
C820 C819 1.417 . S
C820 C821 1.352 . S
C820 H877 0.929 . S
C821 C820 1.352 . S
C821 C822 1.393 . S
C822 C817 1.360 . S
C822 C821 1.393 . S
C822 H878 0.931 . S
Cd823 O843 2.329 . S
Cd823 O845 2.350 . S
Cd823 O846 2.277 . S
Cd823 O848 2.173 . S
Cd823 O852 2.263 . S
Cd823 O863 2.366 . S
Cd824 O842 2.352 . S
Cd824 O849 2.250 . S
Cd824 O853 2.308 . S
C825 C829 1.403 . S
C825 C830 1.370 . S
C825 N841 1.423 . S
C826 C827 1.389 . S
C826 C830 1.389 . S
C827 C826 1.389 . S
C827 C828 1.379 . S
C827 H879 0.929 . S
C828 C827 1.379 . S
C828 C829 1.405 . S
C829 C825 1.403 . S
C829 C828 1.405 . S
C829 H880 0.932 . S
C830 C825 1.370 . S
C830 C826 1.389 . S
C830 H881 0.931 . S
Co831 N815 1.869 . S
Co831 N832 1.955 . S
Co831 N833 1.864 . S
Co831 N839 1.958 . S
Co831 N840 1.953 . S
Co831 N841 1.974 . S
N832 Co831 1.955 . S
N832 C850 1.329 . S
N832 C865 1.432 . S
N833 Co831 1.864 . S
N833 C834 1.327 . S
N833 C838 1.342 . S
C834 N833 1.327 . S
C834 C835 1.407 . S
C834 C850 1.481 . S
C835 C834 1.407 . S
C835 C836 1.364 . S
C835 H882 0.930 . S
C836 C835 1.364 . S
C836 C837 1.390 . S
C836 H883 0.931 . S
C837 C836 1.390 . S
C837 C838 1.346 . S
C837 H884 0.930 . S
C838 N833 1.342 . S
C838 C837 1.346 . S
C838 C854 1.516 . S
N839 Co831 1.958 . S
N839 C854 1.324 . S
N839 C856 1.427 . S
N840 C816 1.316 . S
N840 C817 1.436 . S
N840 Co831 1.953 . S
N841 C825 1.423 . S
N841 Co831 1.974 . S
N841 C871 1.309 . S
O842 Cd824 2.352 . S
O842 C862 1.235 . S
O843 Cd823 2.329 . S
O843 C862 1.270 . S
C844 O845 1.270 . S
C844 O846 1.248 . S
O845 Cd823 2.350 . S
O845 C844 1.270 . S
O846 Cd823 2.277 . S
O846 C844 1.248 . S
C847 O848 1.277 . S
C847 O849 1.230 . S
O848 Cd823 2.173 . S
O848 C847 1.277 . S
O849 Cd824 2.250 . S
O849 C847 1.230 . S
C850 N832 1.329 . S
C850 C834 1.481 . S
C850 O851 1.246 . S
O851 C850 1.246 . S
O852 Cd823 2.263 . S
O852 C864 1.258 . S
O853 Cd824 2.308 . S
O853 C864 1.274 . S
C854 C838 1.516 . S
C854 N839 1.324 . S
C854 O855 1.238 . S
O855 C854 1.238 . S
C856 N839 1.427 . S
C856 C857 1.394 . S
C856 C861 1.395 . S
C857 C856 1.394 . S
C857 C858 1.380 . S
C857 H885 0.929 . S
C858 C857 1.380 . S
C858 C859 1.384 . S
C858 C864 1.495 . S
C859 C858 1.384 . S
C859 C860 1.382 . S
C859 H886 0.930 . S
C860 C859 1.382 . S
C860 C861 1.398 . S
C861 C856 1.395 . S
C861 C860 1.398 . S
C861 H887 0.930 . S
C862 O842 1.235 . S
C862 O843 1.270 . S
O863 C816 1.263 . S
O863 Cd823 2.366 . S
C864 O852 1.258 . S
C864 O853 1.274 . S
C864 C858 1.495 . S
C865 N832 1.432 . S
C865 C866 1.381 . S
C865 C870 1.385 . S
C866 C865 1.381 . S
C866 C867 1.371 . S
C866 H888 0.932 . S
C867 C866 1.371 . S
C867 C868 1.400 . S
C868 C867 1.400 . S
C868 C869 1.351 . S
C868 H889 0.930 . S
C869 C868 1.351 . S
C869 C870 1.388 . S
C870 C865 1.385 . S
C870 C869 1.388 . S
C870 H890 0.929 . S
C871 C810 1.504 . S
C871 N841 1.309 . S
C871 O872 1.258 . S
O872 C871 1.258 . S
H873 C811 0.929 . S
H874 C812 0.932 . S
H875 C813 0.931 . S
H876 C818 0.929 . S
H877 C820 0.929 . S
H878 C822 0.931 . S
H879 C827 0.929 . S
H880 C829 0.932 . S
H881 C830 0.931 . S
H882 C835 0.930 . S
H883 C836 0.931 . S
H884 C837 0.930 . S
H885 C857 0.929 . S
H886 C859 0.930 . S
H887 C861 0.930 . S
H888 C866 0.932 . S
H889 C868 0.930 . S
H890 C870 0.929 . S
C891 C892 1.359 . S
C891 N896 1.330 . S
C891 C952 1.504 . S
C892 C891 1.359 . S
C892 C893 1.366 . S
C892 H954 0.929 . S
C893 C892 1.366 . S
C893 C894 1.415 . S
C893 H955 0.932 . S
C894 C893 1.415 . S
C894 C895 1.366 . S
C894 H956 0.931 . S
C895 C894 1.366 . S
C895 N896 1.325 . S
C895 C897 1.516 . S
N896 C891 1.330 . S
N896 C895 1.325 . S
N896 Co912 1.869 . S
C897 C895 1.516 . S
C897 N921 1.316 . S
C897 O944 1.263 . S
C898 C899 1.421 . S
C898 C903 1.360 . S
C898 N921 1.436 . S
C899 C898 1.421 . S
C899 C900 1.379 . S
C899 H957 0.929 . S
C900 C899 1.379 . S
C900 C901 1.417 . S
C901 C900 1.417 . S
C901 C902 1.352 . S
C901 H958 0.929 . S
C902 C901 1.352 . S
C902 C903 1.393 . S
C903 C898 1.360 . S
C903 C902 1.393 . S
C903 H959 0.931 . S
Cd904 O924 2.329 . S
Cd904 O926 2.350 . S
Cd904 O927 2.277 . S
Cd904 O929 2.173 . S
Cd904 O933 2.263 . S
Cd904 O944 2.366 . S
Cd905 O923 2.352 . S
Cd905 O930 2.250 . S
Cd905 O934 2.308 . S
C906 C910 1.403 . S
C906 C911 1.370 . S
C906 N922 1.423 . S
C907 C908 1.389 . S
C907 C911 1.389 . S
C908 C907 1.389 . S
C908 C909 1.379 . S
C908 H960 0.929 . S
C909 C908 1.379 . S
C909 C910 1.405 . S
C910 C906 1.403 . S
C910 C909 1.405 . S
C910 H961 0.932 . S
C911 C906 1.370 . S
C911 C907 1.389 . S
C911 H962 0.931 . S
Co912 N896 1.869 . S
Co912 N913 1.955 . S
Co912 N914 1.864 . S
Co912 N920 1.958 . S
Co912 N921 1.953 . S
Co912 N922 1.974 . S
N913 Co912 1.955 . S
N913 C931 1.329 . S
N913 C946 1.432 . S
N914 Co912 1.864 . S
N914 C915 1.327 . S
N914 C919 1.342 . S
C915 N914 1.327 . S
C915 C916 1.407 . S
C915 C931 1.481 . S
C916 C915 1.407 . S
C916 C917 1.364 . S
C916 H963 0.930 . S
C917 C916 1.364 . S
C917 C918 1.390 . S
C917 H964 0.931 . S
C918 C917 1.390 . S
C918 C919 1.346 . S
C918 H965 0.930 . S
C919 N914 1.342 . S
C919 C918 1.346 . S
C919 C935 1.516 . S
N920 Co912 1.958 . S
N920 C935 1.324 . S
N920 C937 1.427 . S
N921 C897 1.316 . S
N921 C898 1.436 . S
N921 Co912 1.953 . S
N922 C906 1.423 . S
N922 Co912 1.974 . S
N922 C952 1.309 . S
O923 Cd905 2.352 . S
O923 C943 1.235 . S
O924 Cd904 2.329 . S
O924 C943 1.270 . S
C925 O926 1.270 . S
C925 O927 1.248 . S
O926 Cd904 2.350 . S
O926 C925 1.270 . S
O927 Cd904 2.277 . S
O927 C925 1.248 . S
C928 O929 1.277 . S
C928 O930 1.230 . S
O929 Cd904 2.173 . S
O929 C928 1.277 . S
O930 Cd905 2.250 . S
O930 C928 1.230 . S
C931 N913 1.329 . S
C931 C915 1.481 . S
C931 O932 1.246 . S
O932 C931 1.246 . S
O933 Cd904 2.263 . S
O933 C945 1.258 . S
O934 Cd905 2.308 . S
O934 C945 1.274 . S
C935 C919 1.516 . S
C935 N920 1.324 . S
C935 O936 1.238 . S
O936 C935 1.238 . S
C937 N920 1.427 . S
C937 C938 1.394 . S
C937 C942 1.395 . S
C938 C937 1.394 . S
C938 C939 1.380 . S
C938 H966 0.929 . S
C939 C938 1.380 . S
C939 C940 1.384 . S
C939 C945 1.495 . S
C940 C939 1.384 . S
C940 C941 1.382 . S
C940 H967 0.930 . S
C941 C940 1.382 . S
C941 C942 1.398 . S
C942 C937 1.395 . S
C942 C941 1.398 . S
C942 H968 0.930 . S
C943 O923 1.235 . S
C943 O924 1.270 . S
O944 C897 1.263 . S
O944 Cd904 2.366 . S
C945 O933 1.258 . S
C945 O934 1.274 . S
C945 C939 1.495 . S
C946 N913 1.432 . S
C946 C947 1.381 . S
C946 C951 1.385 . S
C947 C946 1.381 . S
C947 C948 1.371 . S
C947 H969 0.932 . S
C948 C947 1.371 . S
C948 C949 1.400 . S
C949 C948 1.400 . S
C949 C950 1.351 . S
C949 H970 0.930 . S
C950 C949 1.351 . S
C950 C951 1.388 . S
C951 C946 1.385 . S
C951 C950 1.388 . S
C951 H971 0.929 . S
C952 C891 1.504 . S
C952 N922 1.309 . S
C952 O953 1.258 . S
O953 C952 1.258 . S
H954 C892 0.929 . S
H955 C893 0.932 . S
H956 C894 0.931 . S
H957 C899 0.929 . S
H958 C901 0.929 . S
H959 C903 0.931 . S
H960 C908 0.929 . S
H961 C910 0.932 . S
H962 C911 0.931 . S
H963 C916 0.930 . S
H964 C917 0.931 . S
H965 C918 0.930 . S
H966 C938 0.929 . S
H967 C940 0.930 . S
H968 C942 0.930 . S
H969 C947 0.932 . S
H970 C949 0.930 . S
H971 C951 0.929 . S
H972 C978 0.930 . S
H973 C982 0.930 . S
H974 C987 0.929 . S
H975 C985 0.929 . S
H976 C980 0.929 . S
H977 C986 0.929 . S
C978 H972 0.930 . S
C978 C979 1.367 . S
C978 C986 1.378 . S
C979 C978 1.367 . S
C979 C987 1.433 . S
C980 H976 0.929 . S
C980 C982 1.378 . S
C980 C984 1.350 . S
C981 C984 1.463 . S
C981 C986 1.350 . S
C981 N989 1.427 . S
C982 H973 0.930 . S
C982 C980 1.378 . S
C982 C983 1.367 . S
C983 C982 1.367 . S
C983 C985 1.433 . S
C984 C980 1.350 . S
C984 C981 1.463 . S
C984 N988 1.427 . S
C985 H975 0.929 . S
C985 C983 1.433 . S
C985 N988 1.384 . S
C986 H977 0.929 . S
C986 C978 1.378 . S
C986 C981 1.350 . S
C987 H974 0.929 . S
C987 C979 1.433 . S
C987 N989 1.384 . S
N988 C984 1.427 . S
N988 C985 1.384 . S
N989 C981 1.427 . S
N989 C987 1.384 . S
H990 C996 0.930 . S
H991 C1000 0.930 . S
H992 C1005 0.929 . S
H993 C1003 0.929 . S
H994 C998 0.929 . S
H995 C1004 0.929 . S
C996 H990 0.930 . S
C996 C997 1.367 . S
C996 C1004 1.378 . S
C997 C996 1.367 . S
C997 C1005 1.433 . S
C998 H994 0.929 . S
C998 C1000 1.378 . S
C998 C1002 1.350 . S
C999 C1002 1.463 . S
C999 C1004 1.350 . S
C999 N1007 1.427 . S
C1000 H991 0.930 . S
C1000 C998 1.378 . S
C1000 C1001 1.367 . S
C1001 C1000 1.367 . S
C1001 C1003 1.433 . S
C1002 C998 1.350 . S
C1002 C999 1.463 . S
C1002 N1006 1.427 . S
C1003 H993 0.929 . S
C1003 C1001 1.433 . S
C1003 N1006 1.384 . S
C1004 H995 0.929 . S
C1004 C996 1.378 . S
C1004 C999 1.350 . S
C1005 H992 0.929 . S
C1005 C997 1.433 . S
C1005 N1007 1.384 . S
N1006 C1002 1.427 . S
N1006 C1003 1.384 . S
N1007 C999 1.427 . S
N1007 C1005 1.384 . S
H1008 C1014 0.930 . S
H1009 C1018 0.930 . S
H1010 C1023 0.929 . S
H1011 C1021 0.929 . S
H1012 C1016 0.929 . S
H1013 C1022 0.929 . S
C1014 H1008 0.930 . S
C1014 C1015 1.367 . S
C1014 C1022 1.378 . S
C1015 C1014 1.367 . S
C1015 C1023 1.433 . S
C1016 H1012 0.929 . S
C1016 C1018 1.378 . S
C1016 C1020 1.350 . S
C1017 C1020 1.463 . S
C1017 C1022 1.350 . S
C1017 N1025 1.427 . S
C1018 H1009 0.930 . S
C1018 C1016 1.378 . S
C1018 C1019 1.367 . S
C1019 C1018 1.367 . S
C1019 C1021 1.433 . S
C1020 C1016 1.350 . S
C1020 C1017 1.463 . S
C1020 N1024 1.427 . S
C1021 H1011 0.929 . S
C1021 C1019 1.433 . S
C1021 N1024 1.384 . S
C1022 H1013 0.929 . S
C1022 C1014 1.378 . S
C1022 C1017 1.350 . S
C1023 H1010 0.929 . S
C1023 C1015 1.433 . S
C1023 N1025 1.384 . S
N1024 C1020 1.427 . S
N1024 C1021 1.384 . S
N1025 C1017 1.427 . S
N1025 C1023 1.384 . S
H1026 C1032 0.930 . S
H1027 C1036 0.930 . S
H1028 C1041 0.929 . S
H1029 C1039 0.929 . S
H1030 C1034 0.929 . S
H1031 C1040 0.929 . S
C1032 H1026 0.930 . S
C1032 C1033 1.367 . S
C1032 C1040 1.378 . S
C1033 C1032 1.367 . S
C1033 C1041 1.433 . S
C1034 H1030 0.929 . S
C1034 C1036 1.378 . S
C1034 C1038 1.350 . S
C1035 C1038 1.463 . S
C1035 C1040 1.350 . S
C1035 N1043 1.427 . S
C1036 H1027 0.930 . S
C1036 C1034 1.378 . S
C1036 C1037 1.367 . S
C1037 C1036 1.367 . S
C1037 C1039 1.433 . S
C1038 C1034 1.350 . S
C1038 C1035 1.463 . S
C1038 N1042 1.427 . S
C1039 H1029 0.929 . S
C1039 C1037 1.433 . S
C1039 N1042 1.384 . S
C1040 H1031 0.929 . S
C1040 C1032 1.378 . S
C1040 C1035 1.350 . S
C1041 H1028 0.929 . S
C1041 C1033 1.433 . S
C1041 N1043 1.384 . S
N1042 C1038 1.427 . S
N1042 C1039 1.384 . S
N1043 C1035 1.427 . S
N1043 C1041 1.384 . S
H1044 C1050 0.930 . S
H1045 C1054 0.930 . S
H1046 C1059 0.929 . S
H1047 C1057 0.929 . S
H1048 C1052 0.929 . S
H1049 C1058 0.929 . S
C1050 H1044 0.930 . S
C1050 C1051 1.367 . S
C1050 C1058 1.378 . S
C1051 C1050 1.367 . S
C1051 C1059 1.433 . S
C1052 H1048 0.929 . S
C1052 C1054 1.378 . S
C1052 C1056 1.350 . S
C1053 C1056 1.463 . S
C1053 C1058 1.350 . S
C1053 N1061 1.427 . S
C1054 H1045 0.930 . S
C1054 C1052 1.378 . S
C1054 C1055 1.367 . S
C1055 C1054 1.367 . S
C1055 C1057 1.433 . S
C1056 C1052 1.350 . S
C1056 C1053 1.463 . S
C1056 N1060 1.427 . S
C1057 H1047 0.929 . S
C1057 C1055 1.433 . S
C1057 N1060 1.384 . S
C1058 H1049 0.929 . S
C1058 C1050 1.378 . S
C1058 C1053 1.350 . S
C1059 H1046 0.929 . S
C1059 C1051 1.433 . S
C1059 N1061 1.384 . S
N1060 C1056 1.427 . S
N1060 C1057 1.384 . S
N1061 C1053 1.427 . S
N1061 C1059 1.384 . S
H1062 C1068 0.930 . S
H1063 C1072 0.930 . S
H1064 C1077 0.929 . S
H1065 C1075 0.929 . S
H1066 C1070 0.929 . S
H1067 C1076 0.929 . S
C1068 H1062 0.930 . S
C1068 C1069 1.367 . S
C1068 C1076 1.378 . S
C1069 C1068 1.367 . S
C1069 C1077 1.433 . S
C1070 H1066 0.929 . S
C1070 C1072 1.378 . S
C1070 C1074 1.350 . S
C1071 C1074 1.463 . S
C1071 C1076 1.350 . S
C1071 N1079 1.427 . S
C1072 H1063 0.930 . S
C1072 C1070 1.378 . S
C1072 C1073 1.367 . S
C1073 C1072 1.367 . S
C1073 C1075 1.433 . S
C1074 C1070 1.350 . S
C1074 C1071 1.463 . S
C1074 N1078 1.427 . S
C1075 H1065 0.929 . S
C1075 C1073 1.433 . S
C1075 N1078 1.384 . S
C1076 H1067 0.929 . S
C1076 C1068 1.378 . S
C1076 C1071 1.350 . S
C1077 H1064 0.929 . S
C1077 C1069 1.433 . S
C1077 N1079 1.384 . S
N1078 C1074 1.427 . S
N1078 C1075 1.384 . S
N1079 C1071 1.427 . S
N1079 C1077 1.384 . S
H1080 C1086 0.930 . S
H1081 C1090 0.930 . S
H1082 C1095 0.929 . S
H1083 C1093 0.929 . S
H1084 C1088 0.929 . S
H1085 C1094 0.929 . S
C1086 H1080 0.930 . S
C1086 C1087 1.367 . S
C1086 C1094 1.378 . S
C1087 C1086 1.367 . S
C1087 C1095 1.433 . S
C1088 H1084 0.929 . S
C1088 C1090 1.378 . S
C1088 C1092 1.350 . S
C1089 C1092 1.463 . S
C1089 C1094 1.350 . S
C1089 N1097 1.427 . S
C1090 H1081 0.930 . S
C1090 C1088 1.378 . S
C1090 C1091 1.367 . S
C1091 C1090 1.367 . S
C1091 C1093 1.433 . S
C1092 C1088 1.350 . S
C1092 C1089 1.463 . S
C1092 N1096 1.427 . S
C1093 H1083 0.929 . S
C1093 C1091 1.433 . S
C1093 N1096 1.384 . S
C1094 H1085 0.929 . S
C1094 C1086 1.378 . S
C1094 C1089 1.350 . S
C1095 H1082 0.929 . S
C1095 C1087 1.433 . S
C1095 N1097 1.384 . S
N1096 C1092 1.427 . S
N1096 C1093 1.384 . S
N1097 C1089 1.427 . S
N1097 C1095 1.384 . S
H1098 C1104 0.930 . S
H1099 C1108 0.930 . S
H1100 C1113 0.929 . S
H1101 C1111 0.929 . S
H1102 C1106 0.929 . S
H1103 C1112 0.929 . S
C1104 H1098 0.930 . S
C1104 C1105 1.367 . S
C1104 C1112 1.378 . S
C1105 C1104 1.367 . S
C1105 C1113 1.433 . S
C1106 H1102 0.929 . S
C1106 C1108 1.378 . S
C1106 C1110 1.350 . S
C1107 C1110 1.463 . S
C1107 C1112 1.350 . S
C1107 N1115 1.427 . S
C1108 H1099 0.930 . S
C1108 C1106 1.378 . S
C1108 C1109 1.367 . S
C1109 C1108 1.367 . S
C1109 C1111 1.433 . S
C1110 C1106 1.350 . S
C1110 C1107 1.463 . S
C1110 N1114 1.427 . S
C1111 H1101 0.929 . S
C1111 C1109 1.433 . S
C1111 N1114 1.384 . S
C1112 H1103 0.929 . S
C1112 C1104 1.378 . S
C1112 C1107 1.350 . S
C1113 H1100 0.929 . S
C1113 C1105 1.433 . S
C1113 N1115 1.384 . S
N1114 C1110 1.427 . S
N1114 C1111 1.384 . S
N1115 C1107 1.427 . S
N1115 C1113 1.384 . S
H1116 C1122 0.930 . S
H1117 C1126 0.930 . S
H1118 C1131 0.929 . S
H1119 C1129 0.929 . S
H1120 C1124 0.929 . S
H1121 C1130 0.929 . S
C1122 H1116 0.930 . S
C1122 C1123 1.367 . S
C1122 C1130 1.378 . S
C1123 C1122 1.367 . S
C1123 C1131 1.433 . S
C1124 H1120 0.929 . S
C1124 C1126 1.378 . S
C1124 C1128 1.350 . S
C1125 C1128 1.463 . S
C1125 C1130 1.350 . S
C1125 N1133 1.427 . S
C1126 H1117 0.930 . S
C1126 C1124 1.378 . S
C1126 C1127 1.367 . S
C1127 C1126 1.367 . S
C1127 C1129 1.433 . S
C1128 C1124 1.350 . S
C1128 C1125 1.463 . S
C1128 N1132 1.427 . S
C1129 H1119 0.929 . S
C1129 C1127 1.433 . S
C1129 N1132 1.384 . S
C1130 H1121 0.929 . S
C1130 C1122 1.378 . S
C1130 C1125 1.350 . S
C1131 H1118 0.929 . S
C1131 C1123 1.433 . S
C1131 N1133 1.384 . S
N1132 C1128 1.427 . S
N1132 C1129 1.384 . S
N1133 C1125 1.427 . S
N1133 C1131 1.384 . S
H1134 C1140 0.930 . S
H1135 C1144 0.930 . S
H1136 C1149 0.929 . S
H1137 C1147 0.929 . S
H1138 C1142 0.929 . S
H1139 C1148 0.929 . S
C1140 H1134 0.930 . S
C1140 C1141 1.367 . S
C1140 C1148 1.378 . S
C1141 C1140 1.367 . S
C1141 C1149 1.433 . S
C1142 H1138 0.929 . S
C1142 C1144 1.378 . S
C1142 C1146 1.350 . S
C1143 C1146 1.463 . S
C1143 C1148 1.350 . S
C1143 N1151 1.427 . S
C1144 H1135 0.930 . S
C1144 C1142 1.378 . S
C1144 C1145 1.367 . S
C1145 C1144 1.367 . S
C1145 C1147 1.433 . S
C1146 C1142 1.350 . S
C1146 C1143 1.463 . S
C1146 N1150 1.427 . S
C1147 H1137 0.929 . S
C1147 C1145 1.433 . S
C1147 N1150 1.384 . S
C1148 H1139 0.929 . S
C1148 C1140 1.378 . S
C1148 C1143 1.350 . S
C1149 H1136 0.929 . S
C1149 C1141 1.433 . S
C1149 N1151 1.384 . S
N1150 C1146 1.427 . S
N1150 C1147 1.384 . S
N1151 C1143 1.427 . S
N1151 C1149 1.384 . S
H1152 C1158 0.930 . S
H1153 C1162 0.930 . S
H1154 C1167 0.929 . S
H1155 C1165 0.929 . S
H1156 C1160 0.929 . S
H1157 C1166 0.929 . S
C1158 H1152 0.930 . S
C1158 C1159 1.367 . S
C1158 C1166 1.378 . S
C1159 C1158 1.367 . S
C1159 C1167 1.433 . S
C1160 H1156 0.929 . S
C1160 C1162 1.378 . S
C1160 C1164 1.350 . S
C1161 C1164 1.463 . S
C1161 C1166 1.350 . S
C1161 N1169 1.427 . S
C1162 H1153 0.930 . S
C1162 C1160 1.378 . S
C1162 C1163 1.367 . S
C1163 C1162 1.367 . S
C1163 C1165 1.433 . S
C1164 C1160 1.350 . S
C1164 C1161 1.463 . S
C1164 N1168 1.427 . S
C1165 H1155 0.929 . S
C1165 C1163 1.433 . S
C1165 N1168 1.384 . S
C1166 H1157 0.929 . S
C1166 C1158 1.378 . S
C1166 C1161 1.350 . S
C1167 H1154 0.929 . S
C1167 C1159 1.433 . S
C1167 N1169 1.384 . S
N1168 C1164 1.427 . S
N1168 C1165 1.384 . S
N1169 C1161 1.427 . S
N1169 C1167 1.384 . S
H1170 C1176 0.930 . S
H1171 C1180 0.930 . S
H1172 C1185 0.929 . S
H1173 C1183 0.929 . S
H1174 C1178 0.929 . S
H1175 C1184 0.929 . S
C1176 H1170 0.930 . S
C1176 C1177 1.367 . S
C1176 C1184 1.378 . S
C1177 C1176 1.367 . S
C1177 C1185 1.433 . S
C1178 H1174 0.929 . S
C1178 C1180 1.378 . S
C1178 C1182 1.350 . S
C1179 C1182 1.463 . S
C1179 C1184 1.350 . S
C1179 N1187 1.427 . S
C1180 H1171 0.930 . S
C1180 C1178 1.378 . S
C1180 C1181 1.367 . S
C1181 C1180 1.367 . S
C1181 C1183 1.433 . S
C1182 C1178 1.350 . S
C1182 C1179 1.463 . S
C1182 N1186 1.427 . S
C1183 H1173 0.929 . S
C1183 C1181 1.433 . S
C1183 N1186 1.384 . S
C1184 H1175 0.929 . S
C1184 C1176 1.378 . S
C1184 C1179 1.350 . S
C1185 H1172 0.929 . S
C1185 C1177 1.433 . S
C1185 N1187 1.384 . S
N1186 C1182 1.427 . S
N1186 C1183 1.384 . S
N1187 C1179 1.427 . S
N1187 C1185 1.384 . S
H1188 C1194 0.930 . S
H1189 C1198 0.930 . S
H1190 C1203 0.929 . S
H1191 C1201 0.929 . S
H1192 C1196 0.929 . S
H1193 C1202 0.929 . S
C1194 H1188 0.930 . S
C1194 C1195 1.367 . S
C1194 C1202 1.378 . S
C1195 C1194 1.367 . S
C1195 C1203 1.433 . S
C1196 H1192 0.929 . S
C1196 C1198 1.378 . S
C1196 C1200 1.350 . S
C1197 C1200 1.463 . S
C1197 C1202 1.350 . S
C1197 N1205 1.427 . S
C1198 H1189 0.930 . S
C1198 C1196 1.378 . S
C1198 C1199 1.367 . S
C1199 C1198 1.367 . S
C1199 C1201 1.433 . S
C1200 C1196 1.350 . S
C1200 C1197 1.463 . S
C1200 N1204 1.427 . S
C1201 H1191 0.929 . S
C1201 C1199 1.433 . S
C1201 N1204 1.384 . S
C1202 H1193 0.929 . S
C1202 C1194 1.378 . S
C1202 C1197 1.350 . S
C1203 H1190 0.929 . S
C1203 C1195 1.433 . S
C1203 N1205 1.384 . S
N1204 C1200 1.427 . S
N1204 C1201 1.384 . S
N1205 C1197 1.427 . S
N1205 C1203 1.384 . S
H1206 C1212 0.930 . S
H1207 C1216 0.930 . S
H1208 C1221 0.929 . S
H1209 C1219 0.929 . S
H1210 C1214 0.929 . S
H1211 C1220 0.929 . S
C1212 H1206 0.930 . S
C1212 C1213 1.367 . S
C1212 C1220 1.378 . S
C1213 C1212 1.367 . S
C1213 C1221 1.433 . S
C1214 H1210 0.929 . S
C1214 C1216 1.378 . S
C1214 C1218 1.350 . S
C1215 C1218 1.463 . S
C1215 C1220 1.350 . S
C1215 N1223 1.427 . S
C1216 H1207 0.930 . S
C1216 C1214 1.378 . S
C1216 C1217 1.367 . S
C1217 C1216 1.367 . S
C1217 C1219 1.433 . S
C1218 C1214 1.350 . S
C1218 C1215 1.463 . S
C1218 N1222 1.427 . S
C1219 H1209 0.929 . S
C1219 C1217 1.433 . S
C1219 N1222 1.384 . S
C1220 H1211 0.929 . S
C1220 C1212 1.378 . S
C1220 C1215 1.350 . S
C1221 H1208 0.929 . S
C1221 C1213 1.433 . S
C1221 N1223 1.384 . S
N1222 C1218 1.427 . S
N1222 C1219 1.384 . S
N1223 C1215 1.427 . S
N1223 C1221 1.384 . S
H1224 C1230 0.930 . S
H1225 C1234 0.930 . S
H1226 C1239 0.929 . S
H1227 C1237 0.929 . S
H1228 C1232 0.929 . S
H1229 C1238 0.929 . S
C1230 H1224 0.930 . S
C1230 C1231 1.367 . S
C1230 C1238 1.378 . S
C1231 C1230 1.367 . S
C1231 C1239 1.433 . S
C1232 H1228 0.929 . S
C1232 C1234 1.378 . S
C1232 C1236 1.350 . S
C1233 C1236 1.463 . S
C1233 C1238 1.350 . S
C1233 N1241 1.427 . S
C1234 H1225 0.930 . S
C1234 C1232 1.378 . S
C1234 C1235 1.367 . S
C1235 C1234 1.367 . S
C1235 C1237 1.433 . S
C1236 C1232 1.350 . S
C1236 C1233 1.463 . S
C1236 N1240 1.427 . S
C1237 H1227 0.929 . S
C1237 C1235 1.433 . S
C1237 N1240 1.384 . S
C1238 H1229 0.929 . S
C1238 C1230 1.378 . S
C1238 C1233 1.350 . S
C1239 H1226 0.929 . S
C1239 C1231 1.433 . S
C1239 N1241 1.384 . S
N1240 C1236 1.427 . S
N1240 C1237 1.384 . S
N1241 C1233 1.427 . S
N1241 C1239 1.384 . S
H1242 C1248 0.930 . S
H1243 C1252 0.930 . S
H1244 C1257 0.929 . S
H1245 C1255 0.929 . S
H1246 C1250 0.929 . S
H1247 C1256 0.929 . S
C1248 H1242 0.930 . S
C1248 C1249 1.367 . S
C1248 C1256 1.378 . S
C1249 C1248 1.367 . S
C1249 C1257 1.433 . S
C1250 H1246 0.929 . S
C1250 C1252 1.378 . S
C1250 C1254 1.350 . S
C1251 C1254 1.463 . S
C1251 C1256 1.350 . S
C1251 N1259 1.427 . S
C1252 H1243 0.930 . S
C1252 C1250 1.378 . S
C1252 C1253 1.367 . S
C1253 C1252 1.367 . S
C1253 C1255 1.433 . S
C1254 C1250 1.350 . S
C1254 C1251 1.463 . S
C1254 N1258 1.427 . S
C1255 H1245 0.929 . S
C1255 C1253 1.433 . S
C1255 N1258 1.384 . S
C1256 H1247 0.929 . S
C1256 C1248 1.378 . S
C1256 C1251 1.350 . S
C1257 H1244 0.929 . S
C1257 C1249 1.433 . S
C1257 N1259 1.384 . S
N1258 C1254 1.427 . S
N1258 C1255 1.384 . S
N1259 C1251 1.427 . S
N1259 C1257 1.384 . S
H1260 C1266 0.930 . S
H1261 C1270 0.930 . S
H1262 C1275 0.929 . S
H1263 C1273 0.929 . S
H1264 C1268 0.929 . S
H1265 C1274 0.929 . S
C1266 H1260 0.930 . S
C1266 C1267 1.367 . S
C1266 C1274 1.378 . S
C1267 C1266 1.367 . S
C1267 C1275 1.433 . S
C1268 H1264 0.929 . S
C1268 C1270 1.378 . S
C1268 C1272 1.350 . S
C1269 C1272 1.463 . S
C1269 C1274 1.350 . S
C1269 N1277 1.427 . S
C1270 H1261 0.930 . S
C1270 C1268 1.378 . S
C1270 C1271 1.367 . S
C1271 C1270 1.367 . S
C1271 C1273 1.433 . S
C1272 C1268 1.350 . S
C1272 C1269 1.463 . S
C1272 N1276 1.427 . S
C1273 H1263 0.929 . S
C1273 C1271 1.433 . S
C1273 N1276 1.384 . S
C1274 H1265 0.929 . S
C1274 C1266 1.378 . S
C1274 C1269 1.350 . S
C1275 H1262 0.929 . S
C1275 C1267 1.433 . S
C1275 N1277 1.384 . S
N1276 C1272 1.427 . S
N1276 C1273 1.384 . S
N1277 C1269 1.427 . S
N1277 C1275 1.384 . S
H1278 C1284 0.930 . S
H1279 C1288 0.930 . S
H1280 C1293 0.929 . S
H1281 C1291 0.929 . S
H1282 C1286 0.929 . S
H1283 C1292 0.929 . S
C1284 H1278 0.930 . S
C1284 C1285 1.367 . S
C1284 C1292 1.378 . S
C1285 C1284 1.367 . S
C1285 C1293 1.433 . S
C1286 H1282 0.929 . S
C1286 C1288 1.378 . S
C1286 C1290 1.350 . S
C1287 C1290 1.463 . S
C1287 C1292 1.350 . S
C1287 N1295 1.427 . S
C1288 H1279 0.930 . S
C1288 C1286 1.378 . S
C1288 C1289 1.367 . S
C1289 C1288 1.367 . S
C1289 C1291 1.433 . S
C1290 C1286 1.350 . S
C1290 C1287 1.463 . S
C1290 N1294 1.427 . S
C1291 H1281 0.929 . S
C1291 C1289 1.433 . S
C1291 N1294 1.384 . S
C1292 H1283 0.929 . S
C1292 C1284 1.378 . S
C1292 C1287 1.350 . S
C1293 H1280 0.929 . S
C1293 C1285 1.433 . S
C1293 N1295 1.384 . S
N1294 C1290 1.427 . S
N1294 C1291 1.384 . S
N1295 C1287 1.427 . S
N1295 C1293 1.384 . S
H1296 C1302 0.930 . S
H1297 C1306 0.930 . S
H1298 C1311 0.929 . S
H1299 C1309 0.929 . S
H1300 C1304 0.930 1_556 S
H1301 C1310 0.930 1_554 S
C1302 H1296 0.930 . S
C1302 C1303 1.367 . S
C1302 C1310 1.377 . S
C1303 C1302 1.367 . S
C1303 C1311 1.433 . S
C1304 H1300 0.930 1_554 S
C1304 C1306 1.377 . S
C1304 C1308 1.349 . S
C1305 C1308 1.463 1_556 S
C1305 C1310 1.350 . S
C1305 N1313 1.427 . S
C1306 H1297 0.930 . S
C1306 C1304 1.377 . S
C1306 C1307 1.367 . S
C1307 C1306 1.367 . S
C1307 C1309 1.433 . S
C1308 C1304 1.349 . S
C1308 C1305 1.463 1_554 S
C1308 N1312 1.427 . S
C1309 H1299 0.929 . S
C1309 C1307 1.433 . S
C1309 N1312 1.384 . S
C1310 H1301 0.930 1_556 S
C1310 C1302 1.377 . S
C1310 C1305 1.350 . S
C1311 H1298 0.929 . S
C1311 C1303 1.433 . S
C1311 N1313 1.384 . S
N1312 C1308 1.427 . S
N1312 C1309 1.384 . S
N1313 C1305 1.427 . S
N1313 C1311 1.384 . S
H1314 C1320 0.930 . S
H1315 C1324 0.930 . S
H1316 C1329 0.929 . S
H1317 C1327 0.929 . S
H1318 C1322 0.929 . S
H1319 C1328 0.929 . S
C1320 H1314 0.930 . S
C1320 C1321 1.367 . S
C1320 C1328 1.378 . S
C1321 C1320 1.367 . S
C1321 C1329 1.433 . S
C1322 H1318 0.929 . S
C1322 C1324 1.378 . S
C1322 C1326 1.350 . S
C1323 C1326 1.463 1_455 S
C1323 C1328 1.350 . S
C1323 N1331 1.427 . S
C1324 H1315 0.930 . S
C1324 C1322 1.378 . S
C1324 C1325 1.367 . S
C1325 C1324 1.367 . S
C1325 C1327 1.433 . S
C1326 C1322 1.350 . S
C1326 C1323 1.463 1_655 S
C1326 N1330 1.427 . S
C1327 H1317 0.929 . S
C1327 C1325 1.433 . S
C1327 N1330 1.384 . S
C1328 H1319 0.929 . S
C1328 C1320 1.378 . S
C1328 C1323 1.350 . S
C1329 H1316 0.929 . S
C1329 C1321 1.433 . S
C1329 N1331 1.384 . S
N1330 C1326 1.427 . S
N1330 C1327 1.384 . S
N1331 C1323 1.427 . S
N1331 C1329 1.384 . S
H1332 C1338 0.930 . S
H1333 C1342 0.930 . S
H1334 C1347 0.929 . S
H1335 C1345 0.929 . S
H1336 C1340 0.929 1_554 S
H1337 C1346 0.929 1_556 S
C1338 H1332 0.930 . S
C1338 C1339 1.367 . S
C1338 C1346 1.378 . S
C1339 C1338 1.367 . S
C1339 C1347 1.433 . S
C1340 H1336 0.929 1_556 S
C1340 C1342 1.378 . S
C1340 C1344 1.350 . S
C1341 C1344 1.463 1_564 S
C1341 C1346 1.350 . S
C1341 N1349 1.427 . S
C1342 H1333 0.930 . S
C1342 C1340 1.378 . S
C1342 C1343 1.367 . S
C1343 C1342 1.367 . S
C1343 C1345 1.433 . S
C1344 C1340 1.350 . S
C1344 C1341 1.463 1_546 S
C1344 N1348 1.427 . S
C1345 H1335 0.929 . S
C1345 C1343 1.433 . S
C1345 N1348 1.384 . S
C1346 H1337 0.929 1_554 S
C1346 C1338 1.378 . S
C1346 C1341 1.350 . S
C1347 H1334 0.929 . S
C1347 C1339 1.433 . S
C1347 N1349 1.384 . S
N1348 C1344 1.427 . S
N1348 C1345 1.384 . S
N1349 C1341 1.427 . S
N1349 C1347 1.384 . S
H1350 C1356 0.930 . S
H1351 C1360 0.930 . S
H1352 C1365 0.929 . S
H1353 C1363 0.929 . S
H1354 C1358 0.929 . S
H1355 C1364 0.929 . S
C1356 H1350 0.930 . S
C1356 C1357 1.367 . S
C1356 C1364 1.378 . S
C1357 C1356 1.367 . S
C1357 C1365 1.433 . S
C1358 H1354 0.929 . S
C1358 C1360 1.378 . S
C1358 C1362 1.350 . S
C1359 C1362 1.463 . S
C1359 C1364 1.350 . S
C1359 N1367 1.427 . S
C1360 H1351 0.930 . S
C1360 C1358 1.378 . S
C1360 C1361 1.367 . S
C1361 C1360 1.367 . S
C1361 C1363 1.433 . S
C1362 C1358 1.350 . S
C1362 C1359 1.463 . S
C1362 N1366 1.427 . S
C1363 H1353 0.929 . S
C1363 C1361 1.433 . S
C1363 N1366 1.384 . S
C1364 H1355 0.929 . S
C1364 C1356 1.378 . S
C1364 C1359 1.350 . S
C1365 H1352 0.929 . S
C1365 C1357 1.433 . S
C1365 N1367 1.384 . S
N1366 C1362 1.427 . S
N1366 C1363 1.384 . S
N1367 C1359 1.427 . S
N1367 C1365 1.384 . S
H1368 C1374 0.930 . S
H1369 C1378 0.930 . S
H1370 C1383 0.929 . S
H1371 C1381 0.929 . S
H1372 C1376 0.929 1_556 S
H1373 C1382 0.929 1_554 S
C1374 H1368 0.930 . S
C1374 C1375 1.367 . S
C1374 C1382 1.378 . S
C1375 C1374 1.367 . S
C1375 C1383 1.433 . S
C1376 H1372 0.929 1_554 S
C1376 C1378 1.378 . S
C1376 C1380 1.350 . S
C1377 C1380 1.463 1_656 S
C1377 C1382 1.350 . S
C1377 N1385 1.427 . S
C1378 H1369 0.930 . S
C1378 C1376 1.378 . S
C1378 C1379 1.367 . S
C1379 C1378 1.367 . S
C1379 C1381 1.433 . S
C1380 C1376 1.350 . S
C1380 C1377 1.463 1_454 S
C1380 N1384 1.427 . S
C1381 H1371 0.929 . S
C1381 C1379 1.433 . S
C1381 N1384 1.384 . S
C1382 H1373 0.929 1_556 S
C1382 C1374 1.378 . S
C1382 C1377 1.350 . S
C1383 H1370 0.929 . S
C1383 C1375 1.433 . S
C1383 N1385 1.384 . S
N1384 C1380 1.427 . S
N1384 C1381 1.384 . S
N1385 C1377 1.427 . S
N1385 C1383 1.384 . S
H1386 C1392 0.930 . S
H1387 C1396 0.930 . S
H1388 C1401 0.929 . S
H1389 C1399 0.929 . S
H1390 C1394 0.929 . S
H1391 C1400 0.929 . S
C1392 H1386 0.930 . S
C1392 C1393 1.367 . S
C1392 C1400 1.378 . S
C1393 C1392 1.367 . S
C1393 C1401 1.433 . S
C1394 H1390 0.929 . S
C1394 C1396 1.378 . S
C1394 C1398 1.350 . S
C1395 C1398 1.463 1_565 S
C1395 C1400 1.350 . S
C1395 N1403 1.427 . S
C1396 H1387 0.930 . S
C1396 C1394 1.378 . S
C1396 C1397 1.367 . S
C1397 C1396 1.367 . S
C1397 C1399 1.433 . S
C1398 C1394 1.350 . S
C1398 C1395 1.463 1_545 S
C1398 N1402 1.427 . S
C1399 H1389 0.929 . S
C1399 C1397 1.433 . S
C1399 N1402 1.384 . S
C1400 H1391 0.929 . S
C1400 C1392 1.378 . S
C1400 C1395 1.350 . S
C1401 H1388 0.929 . S
C1401 C1393 1.433 . S
C1401 N1403 1.384 . S
N1402 C1398 1.427 . S
N1402 C1399 1.384 . S
N1403 C1395 1.427 . S
N1403 C1401 1.384 . S
H1404 C1410 0.930 . S
H1405 C1414 0.930 . S
H1406 C1419 0.929 . S
H1407 C1417 0.929 . S
H1408 C1412 0.929 . S
H1409 C1418 0.929 . S
C1410 H1404 0.930 . S
C1410 C1411 1.367 . S
C1410 C1418 1.378 . S
C1411 C1410 1.367 . S
C1411 C1419 1.433 . S
C1412 H1408 0.929 . S
C1412 C1414 1.378 . S
C1412 C1416 1.350 . S
C1413 C1416 1.463 1_556 S
C1413 C1418 1.350 . S
C1413 N1421 1.427 . S
C1414 H1405 0.930 . S
C1414 C1412 1.378 . S
C1414 C1415 1.367 . S
C1415 C1414 1.367 . S
C1415 C1417 1.433 . S
C1416 C1412 1.350 . S
C1416 C1413 1.463 1_554 S
C1416 N1420 1.427 . S
C1417 H1407 0.929 . S
C1417 C1415 1.433 . S
C1417 N1420 1.384 . S
C1418 H1409 0.929 . S
C1418 C1410 1.378 . S
C1418 C1413 1.350 . S
C1419 H1406 0.929 . S
C1419 C1411 1.433 . S
C1419 N1421 1.384 . S
N1420 C1416 1.427 . S
N1420 C1417 1.384 . S
N1421 C1413 1.427 . S
N1421 C1419 1.384 . S
H1422 C1428 0.930 . S
H1423 C1432 0.930 . S
H1424 C1437 0.929 . S
H1425 C1435 0.929 . S
H1426 C1430 0.929 1_455 S
H1427 C1436 0.929 . S
C1428 H1422 0.930 . S
C1428 C1429 1.367 . S
C1428 C1436 1.378 . S
C1429 C1428 1.367 . S
C1429 C1437 1.433 . S
C1430 H1426 0.929 1_655 S
C1430 C1432 1.378 . S
C1430 C1434 1.350 . S
C1431 C1434 1.463 1_455 S
C1431 C1436 1.350 . S
C1431 N1439 1.427 . S
C1432 H1423 0.930 . S
C1432 C1430 1.378 . S
C1432 C1433 1.367 . S
C1433 C1432 1.367 . S
C1433 C1435 1.433 . S
C1434 C1430 1.350 . S
C1434 C1431 1.463 1_655 S
C1434 N1438 1.427 . S
C1435 H1425 0.929 . S
C1435 C1433 1.433 . S
C1435 N1438 1.384 . S
C1436 H1427 0.929 . S
C1436 C1428 1.378 . S
C1436 C1431 1.350 . S
C1437 H1424 0.929 . S
C1437 C1429 1.433 . S
C1437 N1439 1.384 . S
N1438 C1434 1.427 . S
N1438 C1435 1.384 . S
N1439 C1431 1.427 . S
N1439 C1437 1.384 . S
H1440 C1446 0.930 . S
H1441 C1450 0.930 . S
H1442 C1455 0.929 . S
H1443 C1453 0.929 . S
H1444 C1448 0.929 1_556 S
H1445 C1454 0.929 1_554 S
C1446 H1440 0.930 . S
C1446 C1447 1.367 . S
C1446 C1454 1.378 . S
C1447 C1446 1.367 . S
C1447 C1455 1.433 . S
C1448 H1444 0.929 1_554 S
C1448 C1450 1.378 . S
C1448 C1452 1.350 . S
C1449 C1452 1.463 1_546 S
C1449 C1454 1.350 . S
C1449 N1457 1.427 1_545 S
C1450 H1441 0.930 . S
C1450 C1448 1.378 . S
C1450 C1451 1.367 . S
C1451 C1450 1.367 . S
C1451 C1453 1.433 . S
C1452 C1448 1.350 . S
C1452 C1449 1.463 1_564 S
C1452 N1456 1.427 1_565 S
C1453 H1443 0.929 . S
C1453 C1451 1.433 . S
C1453 N1456 1.384 1_565 S
C1454 H1445 0.929 1_556 S
C1454 C1446 1.378 . S
C1454 C1449 1.350 . S
C1455 H1442 0.929 . S
C1455 C1447 1.433 . S
C1455 N1457 1.384 1_545 S
N1456 C1452 1.427 1_545 S
N1456 C1453 1.384 1_545 S
N1457 C1449 1.427 1_565 S
N1457 C1455 1.384 1_565 S
H1458 C1464 0.930 . S
H1459 C1468 0.930 . S
H1460 C1473 0.929 . S
H1461 C1471 0.929 . S
H1462 C1466 0.929 . S
H1463 C1472 0.929 . S
C1464 H1458 0.930 . S
C1464 C1465 1.367 . S
C1464 C1472 1.378 . S
C1465 C1464 1.367 . S
C1465 C1473 1.433 . S
C1466 H1462 0.929 . S
C1466 C1468 1.378 . S
C1466 C1470 1.350 . S
C1467 C1470 1.463 . S
C1467 C1472 1.350 . S
C1467 N1475 1.427 . S
C1468 H1459 0.930 . S
C1468 C1466 1.378 . S
C1468 C1469 1.367 . S
C1469 C1468 1.367 . S
C1469 C1471 1.433 . S
C1470 C1466 1.350 . S
C1470 C1467 1.463 . S
C1470 N1474 1.427 . S
C1471 H1461 0.929 . S
C1471 C1469 1.433 . S
C1471 N1474 1.384 . S
C1472 H1463 0.929 . S
C1472 C1464 1.378 . S
C1472 C1467 1.350 . S
C1473 H1460 0.929 . S
C1473 C1465 1.433 . S
C1473 N1475 1.384 . S
N1474 C1470 1.427 . S
N1474 C1471 1.384 . S
N1475 C1467 1.427 . S
N1475 C1473 1.384 . S
H1476 C1482 0.930 . S
H1477 C1486 0.930 . S
H1478 C1491 0.929 . S
H1479 C1489 0.929 . S
H1480 C1484 0.929 . S
H1481 C1490 0.929 . S
C1482 H1476 0.930 . S
C1482 C1483 1.367 . S
C1482 C1490 1.378 . S
C1483 C1482 1.367 . S
C1483 C1491 1.433 . S
C1484 H1480 0.929 . S
C1484 C1486 1.378 . S
C1484 C1488 1.350 . S
C1485 C1488 1.463 1_454 S
C1485 C1490 1.350 . S
C1485 N1493 1.427 . S
C1486 H1477 0.930 . S
C1486 C1484 1.378 . S
C1486 C1487 1.367 . S
C1487 C1486 1.367 . S
C1487 C1489 1.433 . S
C1488 C1484 1.350 . S
C1488 C1485 1.463 1_656 S
C1488 N1492 1.427 . S
C1489 H1479 0.929 . S
C1489 C1487 1.433 . S
C1489 N1492 1.384 . S
C1490 H1481 0.929 . S
C1490 C1482 1.378 . S
C1490 C1485 1.350 . S
C1491 H1478 0.929 . S
C1491 C1483 1.433 . S
C1491 N1493 1.384 . S
N1492 C1488 1.427 . S
N1492 C1489 1.384 . S
N1493 C1485 1.427 . S
N1493 C1491 1.384 . S
H1494 C1500 0.930 . S
H1495 C1504 0.930 . S
H1496 C1509 0.929 . S
H1497 C1507 0.929 . S
H1498 C1502 0.929 . S
H1499 C1508 0.929 . S
C1500 H1494 0.930 . S
C1500 C1501 1.367 . S
C1500 C1508 1.378 1_545 S
C1501 C1500 1.367 . S
C1501 C1509 1.433 . S
C1502 H1498 0.929 . S
C1502 C1504 1.378 1_545 S
C1502 C1506 1.350 1_545 S
C1503 C1506 1.463 1_545 S
C1503 C1508 1.350 1_545 S
C1503 N1511 1.427 . S
C1504 H1495 0.930 . S
C1504 C1502 1.378 1_565 S
C1504 C1505 1.367 . S
C1505 C1504 1.367 . S
C1505 C1507 1.433 . S
C1506 C1502 1.350 1_565 S
C1506 C1503 1.463 1_565 S
C1506 N1510 1.427 . S
C1507 H1497 0.929 . S
C1507 C1505 1.433 . S
C1507 N1510 1.384 . S
C1508 H1499 0.929 . S
C1508 C1500 1.378 1_565 S
C1508 C1503 1.350 1_565 S
C1509 H1496 0.929 . S
C1509 C1501 1.433 . S
C1509 N1511 1.384 . S
N1510 C1506 1.427 . S
N1510 C1507 1.384 . S
N1511 C1503 1.427 . S
N1511 C1509 1.384 . S
H1512 C1518 0.930 1_565 S
H1513 C1522 0.930 . S
H1514 C1527 0.929 . S
H1515 C1525 0.929 . S
H1516 C1520 0.929 . S
H1517 C1526 0.929 . S
C1518 H1512 0.930 1_545 S
C1518 C1519 1.367 . S
C1518 C1526 1.378 . S
C1519 C1518 1.367 . S
C1519 C1527 1.433 . S
C1520 H1516 0.929 . S
C1520 C1522 1.378 . S
C1520 C1524 1.350 . S
C1521 C1524 1.463 . S
C1521 C1526 1.350 . S
C1521 N1529 1.427 . S
C1522 H1513 0.930 . S
C1522 C1520 1.378 . S
C1522 C1523 1.367 . S
C1523 C1522 1.367 . S
C1523 C1525 1.433 . S
C1524 C1520 1.350 . S
C1524 C1521 1.463 . S
C1524 N1528 1.427 . S
C1525 H1515 0.929 . S
C1525 C1523 1.433 . S
C1525 N1528 1.384 . S
C1526 H1517 0.929 . S
C1526 C1518 1.378 . S
C1526 C1521 1.350 . S
C1527 H1514 0.929 . S
C1527 C1519 1.433 . S
C1527 N1529 1.384 . S
N1528 C1524 1.427 . S
N1528 C1525 1.384 . S
N1529 C1521 1.427 . S
N1529 C1527 1.384 . S
H1530 C1536 0.930 . S
H1531 C1540 0.930 . S
H1532 C1545 0.929 . S
H1533 C1543 0.929 . S
H1534 C1538 0.929 . S
H1535 C1544 0.929 . S
C1536 H1530 0.930 . S
C1536 C1537 1.367 . S
C1536 C1544 1.378 . S
C1537 C1536 1.367 . S
C1537 C1545 1.433 . S
C1538 H1534 0.929 . S
C1538 C1540 1.378 1_455 S
C1538 C1542 1.350 . S
C1539 C1542 1.463 . S
C1539 C1544 1.350 . S
C1539 N1547 1.427 . S
C1540 H1531 0.930 . S
C1540 C1538 1.378 1_655 S
C1540 C1541 1.367 . S
C1541 C1540 1.367 . S
C1541 C1543 1.433 . S
C1542 C1538 1.350 . S
C1542 C1539 1.463 . S
C1542 N1546 1.427 . S
C1543 H1533 0.929 . S
C1543 C1541 1.433 . S
C1543 N1546 1.384 1_655 S
C1544 H1535 0.929 . S
C1544 C1536 1.378 . S
C1544 C1539 1.350 . S
C1545 H1532 0.929 . S
C1545 C1537 1.433 . S
C1545 N1547 1.384 . S
N1546 C1542 1.427 . S
N1546 C1543 1.384 1_455 S
N1547 C1539 1.427 . S
N1547 C1545 1.384 . S
H1548 C1554 0.930 . S
H1549 C1558 0.930 . S
H1550 C1563 0.929 . S
H1551 C1561 0.929 . S
H1552 C1556 0.929 . S
H1553 C1562 0.929 . S
C1554 H1548 0.930 . S
C1554 C1555 1.367 1_545 S
C1554 C1562 1.378 . S
C1555 C1554 1.367 1_565 S
C1555 C1563 1.433 . S
C1556 H1552 0.929 . S
C1556 C1558 1.378 . S
C1556 C1560 1.350 . S
C1557 C1560 1.463 . S
C1557 C1562 1.350 . S
C1557 N1565 1.439 . S
C1558 H1549 0.930 . S
C1558 C1556 1.378 . S
C1558 C1559 1.367 . S
C1559 C1558 1.367 . S
C1559 C1561 1.433 . S
C1560 C1556 1.350 . S
C1560 C1557 1.463 . S
C1560 N1564 1.427 . S
C1561 H1551 0.929 . S
C1561 C1559 1.433 . S
C1561 N1564 1.384 . S
C1562 H1553 0.929 . S
C1562 C1554 1.378 . S
C1562 C1557 1.350 . S
C1563 H1550 0.929 . S
C1563 C1555 1.433 . S
C1563 N1565 1.377 1_565 S
N1564 C1560 1.427 . S
N1564 C1561 1.384 . S
N1565 C1557 1.439 . S
N1565 C1563 1.377 1_545 S
H1566 C1572 0.930 . S
H1567 C1576 0.930 . S
H1568 C1581 0.929 1_545 S
H1569 C1579 0.929 . S
H1570 C1574 0.929 . S
H1571 C1580 0.929 . S
C1572 H1566 0.930 . S
C1572 C1573 1.367 . S
C1572 C1580 1.378 . S
C1573 C1572 1.367 . S
C1573 C1581 1.433 . S
C1574 H1570 0.929 . S
C1574 C1576 1.378 . S
C1574 C1578 1.350 . S
C1575 C1578 1.463 . S
C1575 C1580 1.350 . S
C1575 N1583 1.427 . S
C1576 H1567 0.930 . S
C1576 C1574 1.378 . S
C1576 C1577 1.367 . S
C1577 C1576 1.367 . S
C1577 C1579 1.433 . S
C1578 C1574 1.350 . S
C1578 C1575 1.463 . S
C1578 N1582 1.427 . S
C1579 H1569 0.929 . S
C1579 C1577 1.433 . S
C1579 N1582 1.384 . S
C1580 H1571 0.929 . S
C1580 C1572 1.378 . S
C1580 C1575 1.350 . S
C1581 H1568 0.929 1_565 S
C1581 C1573 1.433 . S
C1581 N1583 1.384 . S
N1582 C1578 1.427 . S
N1582 C1579 1.384 . S
N1583 C1575 1.427 . S
N1583 C1581 1.384 . S
H1584 C1590 0.930 . S
H1585 C1594 0.930 . S
H1586 C1599 0.929 . S
H1587 C1597 0.929 . S
H1588 C1592 0.929 . S
H1589 C1598 0.929 . S
C1590 H1584 0.930 . S
C1590 C1591 1.367 . S
C1590 C1598 1.378 . S
C1591 C1590 1.367 . S
C1591 C1599 1.433 . S
C1592 H1588 0.929 . S
C1592 C1594 1.378 1_655 S
C1592 C1596 1.350 . S
C1593 C1596 1.463 . S
C1593 C1598 1.350 . S
C1593 N1601 1.427 . S
C1594 H1585 0.930 . S
C1594 C1592 1.378 1_455 S
C1594 C1595 1.367 . S
C1595 C1594 1.367 . S
C1595 C1597 1.433 . S
C1596 C1592 1.350 . S
C1596 C1593 1.463 . S
C1596 N1600 1.427 . S
C1597 H1587 0.929 . S
C1597 C1595 1.433 . S
C1597 N1600 1.384 1_455 S
C1598 H1589 0.929 . S
C1598 C1590 1.378 . S
C1598 C1593 1.350 . S
C1599 H1586 0.929 . S
C1599 C1591 1.433 . S
C1599 N1601 1.384 . S
N1600 C1596 1.427 . S
N1600 C1597 1.384 1_655 S
N1601 C1593 1.427 . S
N1601 C1599 1.384 . S
H1602 C1608 0.930 . S
H1603 C1612 0.930 . S
H1604 C1617 0.929 . S
H1605 C1615 0.938 1_545 S
H1606 C1610 0.929 . S
H1607 C1616 0.929 . S
C1608 H1602 0.930 . S
C1608 C1609 1.367 . S
C1608 C1616 1.378 . S
C1609 C1608 1.367 . S
C1609 C1617 1.433 . S
C1610 H1606 0.929 . S
C1610 C1612 1.378 1_565 S
C1610 C1614 1.350 . S
C1611 C1614 1.463 . S
C1611 C1616 1.350 . S
C1611 N1619 1.427 . S
C1612 H1603 0.930 . S
C1612 C1610 1.378 1_545 S
C1612 C1613 1.367 . S
C1613 C1612 1.367 . S
C1613 C1615 1.420 1_545 S
C1614 C1610 1.350 . S
C1614 C1611 1.463 . S
C1614 N1618 1.427 . S
C1615 H1605 0.938 1_565 S
C1615 C1613 1.420 1_565 S
C1615 N1618 1.392 . S
C1616 H1607 0.929 . S
C1616 C1608 1.378 . S
C1616 C1611 1.350 . S
C1617 H1604 0.929 . S
C1617 C1609 1.433 . S
C1617 N1619 1.384 . S
N1618 C1614 1.427 . S
N1618 C1615 1.392 . S
N1619 C1611 1.427 . S
N1619 C1617 1.384 . S
H1620 C1626 0.930 . S
H1621 C1630 0.930 . S
H1622 C1635 0.929 . S
H1623 C1633 0.929 1_455 S
H1624 C1628 0.929 . S
H1625 C1634 0.929 . S
C1626 H1620 0.930 . S
C1626 C1627 1.367 . S
C1626 C1634 1.378 . S
C1627 C1626 1.367 . S
C1627 C1635 1.433 . S
C1628 H1624 0.929 . S
C1628 C1630 1.378 . S
C1628 C1632 1.350 . S
C1629 C1632 1.463 . S
C1629 C1634 1.350 . S
C1629 N1637 1.427 . S
C1630 H1621 0.930 . S
C1630 C1628 1.378 . S
C1630 C1631 1.367 . S
C1631 C1630 1.367 . S
C1631 C1633 1.433 . S
C1632 C1628 1.350 . S
C1632 C1629 1.463 . S
C1632 N1636 1.427 . S
C1633 H1623 0.929 1_655 S
C1633 C1631 1.433 . S
C1633 N1636 1.384 . S
C1634 H1625 0.929 . S
C1634 C1626 1.378 . S
C1634 C1629 1.350 . S
C1635 H1622 0.929 . S
C1635 C1627 1.433 . S
C1635 N1637 1.384 . S
N1636 C1632 1.427 . S
N1636 C1633 1.384 . S
N1637 C1629 1.427 . S
N1637 C1635 1.384 . S
H1638 C1644 0.930 1_545 S
H1639 C1648 0.930 . S
H1640 C1653 0.929 . S
H1641 C1651 0.929 . S
H1642 C1646 0.929 . S
H1643 C1652 0.929 . S
C1644 H1638 0.930 1_565 S
C1644 C1645 1.367 . S
C1644 C1652 1.378 . S
C1645 C1644 1.367 . S
C1645 C1653 1.433 . S
C1646 H1642 0.929 . S
C1646 C1648 1.378 1_455 S
C1646 C1650 1.350 . S
C1647 C1650 1.463 . S
C1647 C1652 1.350 . S
C1647 N1655 1.427 . S
C1648 H1639 0.930 . S
C1648 C1646 1.378 1_655 S
C1648 C1649 1.367 . S
C1649 C1648 1.367 . S
C1649 C1651 1.433 . S
C1650 C1646 1.350 . S
C1650 C1647 1.463 . S
C1650 N1654 1.427 . S
C1651 H1641 0.929 . S
C1651 C1649 1.433 . S
C1651 N1654 1.384 1_655 S
C1652 H1643 0.929 . S
C1652 C1644 1.378 . S
C1652 C1647 1.350 . S
C1653 H1640 0.929 . S
C1653 C1645 1.433 . S
C1653 N1655 1.384 . S
N1654 C1650 1.427 . S
N1654 C1651 1.384 1_455 S
N1655 C1647 1.427 . S
N1655 C1653 1.384 . S
H1656 C1662 0.930 . S
H1657 C1666 0.930 . S
H1658 C1671 0.929 . S
H1659 C1669 0.929 . S
H1660 C1664 0.929 . S
H1661 C1670 0.929 . S
C1662 H1656 0.930 . S
C1662 C1663 1.367 . S
C1662 C1670 1.378 . S
C1663 C1662 1.367 . S
C1663 C1671 1.433 . S
C1664 H1660 0.929 . S
C1664 C1666 1.378 1_545 S
C1664 C1668 1.350 . S
C1665 C1668 1.463 . S
C1665 C1670 1.350 . S
C1665 N1673 1.427 . S
C1666 H1657 0.930 . S
C1666 C1664 1.378 1_565 S
C1666 C1667 1.367 . S
C1667 C1666 1.367 . S
C1667 C1669 1.433 . S
C1668 C1664 1.350 . S
C1668 C1665 1.463 . S
C1668 N1672 1.427 . S
C1669 H1659 0.929 . S
C1669 C1667 1.433 . S
C1669 N1672 1.384 1_565 S
C1670 H1661 0.929 . S
C1670 C1662 1.378 . S
C1670 C1665 1.350 . S
C1671 H1658 0.929 . S
C1671 C1663 1.433 . S
C1671 N1673 1.384 . S
N1672 C1668 1.427 . S
N1672 C1669 1.384 1_545 S
N1673 C1665 1.427 . S
N1673 C1671 1.384 . S
H1674 C1680 0.930 . S
H1675 C1684 0.905 1_655 S
H1676 C1689 0.929 . S
H1677 C1687 0.929 . S
H1678 C1682 0.929 . S
H1679 C1688 0.929 . S
C1680 H1674 0.930 . S
C1680 C1681 1.367 . S
C1680 C1688 1.378 . S
C1681 C1680 1.367 . S
C1681 C1689 1.433 . S
C1682 H1678 0.929 . S
C1682 C1684 1.378 . S
C1682 C1686 1.350 . S
C1683 C1686 1.463 . S
C1683 C1688 1.350 . S
C1683 N1691 1.427 . S
C1684 H1675 0.905 1_455 S
C1684 C1682 1.378 . S
C1684 C1685 1.367 . S
C1685 C1684 1.367 . S
C1685 C1687 1.433 . S
C1686 C1682 1.350 . S
C1686 C1683 1.463 . S
C1686 N1690 1.427 . S
C1687 H1677 0.929 . S
C1687 C1685 1.433 . S
C1687 N1690 1.384 . S
C1688 H1679 0.929 . S
C1688 C1680 1.378 . S
C1688 C1683 1.350 . S
C1689 H1676 0.929 . S
C1689 C1681 1.433 . S
C1689 N1691 1.384 . S
N1690 C1686 1.427 . S
N1690 C1687 1.384 . S
N1691 C1683 1.427 . S
N1691 C1689 1.384 . S
H1692 C1698 0.930 . S
H1693 C1702 0.930 . S
H1694 C1707 0.929 . S
H1695 C1705 0.929 1_565 S
H1696 C1700 0.929 . S
H1697 C1706 0.929 . S
C1698 H1692 0.930 . S
C1698 C1699 1.367 . S
C1698 C1706 1.378 1_455 S
C1699 C1698 1.367 . S
C1699 C1707 1.433 . S
C1700 H1696 0.929 . S
C1700 C1702 1.378 . S
C1700 C1704 1.350 . S
C1701 C1704 1.463 . S
C1701 C1706 1.350 . S
C1701 N1709 1.427 . S
C1702 H1693 0.930 . S
C1702 C1700 1.378 . S
C1702 C1703 1.367 . S
C1703 C1702 1.367 . S
C1703 C1705 1.433 . S
C1704 C1700 1.350 . S
C1704 C1701 1.463 . S
C1704 N1708 1.427 . S
C1705 H1695 0.929 1_545 S
C1705 C1703 1.433 . S
C1705 N1708 1.384 . S
C1706 H1697 0.929 . S
C1706 C1698 1.378 1_655 S
C1706 C1701 1.350 . S
C1707 H1694 0.929 . S
C1707 C1699 1.433 . S
C1707 N1709 1.384 1_455 S
N1708 C1704 1.427 . S
N1708 C1705 1.384 . S
N1709 C1701 1.427 . S
N1709 C1707 1.384 1_655 S
H1710 C1716 0.930 . S
H1711 C1720 0.930 . S
H1712 C1725 0.929 . S
H1713 C1723 0.929 . S
H1714 C1718 0.929 . S
H1715 C1724 0.929 . S
C1716 H1710 0.930 . S
C1716 C1717 1.367 . S
C1716 C1724 1.378 . S
C1717 C1716 1.367 . S
C1717 C1725 1.433 . S
C1718 H1714 0.929 . S
C1718 C1720 1.378 1_565 S
C1718 C1722 1.350 . S
C1719 C1722 1.463 . S
C1719 C1724 1.350 . S
C1719 N1727 1.427 . S
C1720 H1711 0.930 . S
C1720 C1718 1.378 1_545 S
C1720 C1721 1.367 . S
C1721 C1720 1.367 . S
C1721 C1723 1.433 . S
C1722 C1718 1.350 . S
C1722 C1719 1.463 . S
C1722 N1726 1.427 . S
C1723 H1713 0.929 . S
C1723 C1721 1.433 . S
C1723 N1726 1.384 1_545 S
C1724 H1715 0.929 . S
C1724 C1716 1.378 . S
C1724 C1719 1.350 . S
C1725 H1712 0.929 . S
C1725 C1717 1.433 . S
C1725 N1727 1.384 . S
N1726 C1722 1.427 . S
N1726 C1723 1.384 1_565 S
N1727 C1719 1.427 . S
N1727 C1725 1.384 . S
C979 C16 2.625 . S
C983 C342 2.489 . S
C997 C423 2.498 . S
C1001 C97 2.620 . S
C1015 C18 2.500 . S
C1019 C178 2.625 . S
C1033 C99 2.496 . S
C1037 C259 2.627 . S
C1051 C340 2.627 . S
C1055 C180 2.498 . S
C1069 C261 2.496 . S
C1073 C421 2.627 . S
C1087 C502 2.621 . S
C1091 C666 2.487 . S
C1105 C583 2.619 . S
C1109 C747 2.489 . S
C1123 C828 2.493 . S
C1127 C664 2.618 . S
C1141 C909 2.490 . S
C1145 C745 2.625 . S
C1159 C504 2.490 . S
C1163 C826 2.618 . S
C1177 C907 2.620 . S
C1181 C585 2.488 . S
C1195 C860 1.657 . S
C1199 C50 1.664 . S
C1213 C941 1.659 . S
C1217 C131 1.658 . S
C1231 C536 1.665 . S
C1235 C212 1.658 . S
C1249 C617 1.658 . S
C1253 C293 1.665 . S
C1267 C374 1.656 . S
C1271 C698 1.663 . S
C1285 C779 1.656 . S
C1289 C455 1.661 . S
C1303 C788 0.976 . S
C1307 C59 0.968 . S
C1321 C869 0.955 . S
C1325 C140 0.973 . S
C1339 C221 0.965 . S
C1343 C950 0.976 . S
C1357 C545 0.976 . S
C1361 C302 0.968 . S
C1375 C626 0.959 . S
C1379 C383 0.975 . S
C1393 C707 0.968 . S
C1397 C464 0.976 . S
C1411 C601 1.561 . S
C1415 C196 1.574 . S
C1429 C682 1.574 . S
C1433 C277 1.561 . S
C1447 C763 1.567 . S
C1451 C358 1.574 . S
C1465 C844 1.573 . S
C1469 C439 1.566 . S
C1483 C34 1.563 . S
C1487 C925 1.575 . S
C1501 C115 1.569 . S
C1505 C520 1.563 . S
C1519 C376 1.571 1_545 S
C1523 C37 1.658 . S
C1537 C457 1.569 . S
C1541 C118 1.644 . S
C1555 C199 1.656 . S
C1559 C52 1.573 1_655 S
C1573 C133 1.553 1_565 S
C1577 C280 1.637 . S
C1591 C214 1.555 . S
C1595 C361 1.654 . S
C1609 C295 1.548 1_455 S
C1613 C442 1.641 . S
C1627 C523 1.648 . S
C1631 C700 1.572 1_655 S
C1645 C781 1.549 1_565 S
C1649 C604 1.647 . S
C1663 C862 1.573 . S
C1667 C685 1.651 . S
C1681 C766 1.645 . S
C1685 C943 1.549 1_455 S
C1699 C847 1.646 . S
C1703 C538 1.570 1_545 S
C1717 C619 1.548 . S
C1721 C928 1.642 . S
