# Generated by pormake.
# Topology can, (4)-cn, num edge types: 1
# Building blocks:
#     Node 0, Type 0, BuildingBlock: AZAVOO_clean_sbu_0, # of connection points: 4
#     Node 1, Type 0, BuildingBlock: AZAVOO_clean_sbu_0, # of connection points: 4
#     Node 2, Type 0, BuildingBlock: AZAVOO_clean_sbu_0, # of connection points: 4
#     Node 3, Type 0, BuildingBlock: AZAVOO_clean_sbu_0, # of connection points: 4
#     Node 4, Type 0, BuildingBlock: AZAVOO_clean_sbu_0, # of connection points: 4
#     Node 5, Type 0, BuildingBlock: AZAVOO_clean_sbu_0, # of connection points: 4
#     Node 6, Type 0, BuildingBlock: AZAVOO_clean_sbu_0, # of connection points: 4
#     Node 7, Type 0, BuildingBlock: AZAVOO_clean_sbu_0, # of connection points: 4
#     Node 8, Type 0, BuildingBlock: AZAVOO_clean_sbu_0, # of connection points: 4
#     Node 9, Type 0, BuildingBlock: AZAVOO_clean_sbu_0, # of connection points: 4
#     Node 10, Type 0, BuildingBlock: AZAVOO_clean_sbu_0, # of connection points: 4
#     Node 11, Type 0, BuildingBlock: AZAVOO_clean_sbu_0, # of connection points: 4
#     Edge 12, Type (0, 0), BuildingBlock: UVAHIK_clean_linker_0, # of connection points: 2
#     Edge 13, Type (0, 0), BuildingBlock: UVAHIK_clean_linker_0, # of connection points: 2
#     Edge 14, Type (0, 0), BuildingBlock: UVAHIK_clean_linker_0, # of connection points: 2
#     Edge 15, Type (0, 0), BuildingBlock: UVAHIK_clean_linker_0, # of connection points: 2
#     Edge 16, Type (0, 0), BuildingBlock: UVAHIK_clean_linker_0, # of connection points: 2
#     Edge 17, Type (0, 0), BuildingBlock: UVAHIK_clean_linker_0, # of connection points: 2
#     Edge 18, Type (0, 0), BuildingBlock: UVAHIK_clean_linker_0, # of connection points: 2
#     Edge 19, Type (0, 0), BuildingBlock: UVAHIK_clean_linker_0, # of connection points: 2
#     Edge 20, Type (0, 0), BuildingBlock: UVAHIK_clean_linker_0, # of connection points: 2
#     Edge 21, Type (0, 0), BuildingBlock: UVAHIK_clean_linker_0, # of connection points: 2
#     Edge 22, Type (0, 0), BuildingBlock: UVAHIK_clean_linker_0, # of connection points: 2
#     Edge 23, Type (0, 0), BuildingBlock: UVAHIK_clean_linker_0, # of connection points: 2
#     Edge 24, Type (0, 0), BuildingBlock: UVAHIK_clean_linker_0, # of connection points: 2
#     Edge 25, Type (0, 0), BuildingBlock: UVAHIK_clean_linker_0, # of connection points: 2
#     Edge 26, Type (0, 0), BuildingBlock: UVAHIK_clean_linker_0, # of connection points: 2
#     Edge 27, Type (0, 0), BuildingBlock: UVAHIK_clean_linker_0, # of connection points: 2
#     Edge 28, Type (0, 0), BuildingBlock: UVAHIK_clean_linker_0, # of connection points: 2
#     Edge 29, Type (0, 0), BuildingBlock: UVAHIK_clean_linker_0, # of connection points: 2
#     Edge 30, Type (0, 0), BuildingBlock: UVAHIK_clean_linker_0, # of connection points: 2
#     Edge 31, Type (0, 0), BuildingBlock: UVAHIK_clean_linker_0, # of connection points: 2
#     Edge 32, Type (0, 0), BuildingBlock: UVAHIK_clean_linker_0, # of connection points: 2
#     Edge 33, Type (0, 0), BuildingBlock: UVAHIK_clean_linker_0, # of connection points: 2
#     Edge 34, Type (0, 0), BuildingBlock: UVAHIK_clean_linker_0, # of connection points: 2
#     Edge 35, Type (0, 0), BuildingBlock: UVAHIK_clean_linker_0, # of connection points: 2
# Relax obj value: 0.087
# Max RMSD: 0.099
# Mean RMSD: 0.099
data_MOF--net-can--node1-AZAVOO_clean_sbu_0--edge1-UVAHIK_clean_linker_0
_symmetry_space_group_name_H-M    P1
_symmetry_Int_Tables_number       1
_symmetry_cell_setting            triclinic
loop_
_symmetry_equiv_pos_as_xyz
'x, y, z'
_cell_length_a     74.607935
_cell_length_b     74.597042
_cell_length_c     33.994546
_cell_angle_alpha  90.042852
_cell_angle_beta   89.929937
_cell_angle_gamma 120.00559
loop_
_atom_site_label
_atom_site_type_symbol
_atom_site_fract_x
_atom_site_fract_y
_atom_site_fract_z
_atom_type_partial_charge
Mg0 Mg 0.07649 0.399 0.25867 0.0
O1 O 0.07206 0.42713 0.26573 0.0
O2 O 0.08293 0.4407 0.32549 0.0
Mg3 Mg 0.09573 0.42224 0.35585 0.0
C4 C 0.07503 0.44052 0.29212 0.0
C5 C 0.05362 0.37942 0.18286 0.0
O6 O 0.04696 0.36395 0.20783 0.0
O7 O 0.11113 0.42056 0.24822 0.0
O8 O 0.12118 0.43312 0.30907 0.0
O9 O 0.04605 0.3788 0.28768 0.0
O10 O 0.07579 0.39521 0.31948 0.0
C11 C 0.1252 0.43197 0.2729 0.0
C12 C 0.05598 0.38371 0.32071 0.0
O13 O 0.06778 0.39722 0.19389 0.0
Mg14 Mg 0.67404 0.0738 0.75814 0.0
O15 O 0.64135 0.06893 0.76428 0.0
O16 O 0.63742 0.07836 0.82457 0.0
Mg17 Mg 0.66806 0.09012 0.85702 0.0
C18 C 0.63038 0.07126 0.79041 0.0
C19 C 0.67199 0.05282 0.68051 0.0
O20 O 0.68074 0.04585 0.70492 0.0
O21 O 0.687 0.10875 0.75116 0.0
O22 O 0.68372 0.1168 0.81318 0.0
O23 O 0.6635 0.04263 0.78456 0.0
O24 O 0.67617 0.0716 0.81876 0.0
C25 C 0.68948 0.12204 0.77758 0.0
C26 C 0.66797 0.05182 0.81838 0.0
O27 O 0.66805 0.06662 0.69263 0.0
Mg28 Mg 0.60738 0.68116 0.2564 0.0
O29 O 0.57909 0.64967 0.26957 0.0
O30 O 0.56856 0.64866 0.3314 0.0
Mg31 Mg 0.59019 0.68049 0.35808 0.0
C32 C 0.56675 0.64015 0.29795 0.0
C33 C 0.61727 0.68288 0.16583 0.0
O34 O 0.63072 0.70223 0.17435 0.0
O35 O 0.58607 0.69501 0.25052 0.0
O36 O 0.57809 0.69498 0.31403 0.0
O37 O 0.62799 0.67027 0.28121 0.0
O38 O 0.61465 0.68579 0.316 0.0
C39 C 0.57701 0.69924 0.27801 0.0
C40 C 0.62513 0.67641 0.31506 0.0
O41 O 0.60472 0.67135 0.19221 0.0
Mg42 Mg 0.91742 0.59382 0.74583 0.0
O43 O 0.9217 0.56585 0.75587 0.0
O44 O 0.91268 0.5544 0.81737 0.0
Mg45 Mg 0.90174 0.57476 0.84686 0.0
C46 C 0.91937 0.55327 0.78343 0.0
C47 C 0.92594 0.60651 0.65691 0.0
O48 O 0.92032 0.61979 0.66842 0.0
O49 O 0.88226 0.57209 0.74028 0.0
O50 O 0.87488 0.56287 0.80346 0.0
O51 O 0.94885 0.61493 0.77068 0.0
O52 O 0.92014 0.60009 0.80589 0.0
C53 C 0.86923 0.56229 0.76779 0.0
C54 C 0.93994 0.61143 0.80472 0.0
O55 O 0.92452 0.5928 0.68092 0.0
Mg56 Mg 0.31636 0.92028 0.25097 0.0
O57 O 0.34829 0.92378 0.26167 0.0
O58 O 0.34949 0.91421 0.32341 0.0
Mg59 Mg 0.31812 0.90383 0.35208 0.0
C60 C 0.35789 0.92098 0.2899 0.0
C61 C 0.32004 0.94055 0.17258 0.0
O62 O 0.31047 0.94716 0.19581 0.0
O63 O 0.30231 0.88512 0.24509 0.0
O64 O 0.30272 0.87706 0.30837 0.0
O65 O 0.32738 0.95185 0.27586 0.0
O66 O 0.31264 0.92311 0.31094 0.0
C67 C 0.29809 0.87178 0.27242 0.0
C68 C 0.32166 0.94296 0.30985 0.0
O69 O 0.32413 0.92704 0.18576 0.0
Mg70 Mg 0.38842 0.31541 0.75628 0.0
O71 O 0.41766 0.34639 0.76884 0.0
O72 O 0.42748 0.34744 0.83118 0.0
Mg73 Mg 0.40493 0.31609 0.85847 0.0
C74 C 0.42988 0.35579 0.79739 0.0
C75 C 0.39296 0.34124 0.68318 0.0
O76 O 0.39498 0.35362 0.71245 0.0
O77 O 0.40853 0.30022 0.75182 0.0
O78 O 0.41627 0.30031 0.81546 0.0
O79 O 0.3687 0.32774 0.7796 0.0
O80 O 0.3811 0.31189 0.81592 0.0
C81 C 0.41715 0.29568 0.77958 0.0
C82 C 0.37124 0.32189 0.81395 0.0
O83 O 0.39088 0.3236 0.69092 0.0
Mg84 Mg 0.58743 0.919 0.24373 0.0
O85 O 0.5589 0.92271 0.23647 0.0
O86 O 0.54631 0.91316 0.17576 0.0
Mg87 Mg 0.56627 0.90244 0.14412 0.0
C88 C 0.54574 0.92003 0.20984 0.0
C89 C 0.58821 0.94236 0.31851 0.0
O90 O 0.58562 0.95291 0.29037 0.0
O91 O 0.56627 0.8839 0.25016 0.0
O92 O 0.55577 0.87573 0.18775 0.0
O93 O 0.60795 0.95035 0.21791 0.0
O94 O 0.59225 0.92149 0.18328 0.0
C95 C 0.55613 0.87051 0.22342 0.0
C96 C 0.60375 0.94128 0.18397 0.0
O97 O 0.5885 0.92593 0.30955 0.0
Mg98 Mg 0.66187 0.58494 0.74212 0.0
O99 O 0.62976 0.55617 0.73663 0.0
O100 O 0.62666 0.54248 0.6769 0.0
Mg101 Mg 0.65685 0.56252 0.64368 0.0
C102 C 0.61935 0.54238 0.71089 0.0
C103 C 0.66926 0.60031 0.82947 0.0
O104 O 0.68803 0.61225 0.81568 0.0
O105 O 0.67646 0.56435 0.74955 0.0
O106 O 0.67435 0.55365 0.68732 0.0
O107 O 0.65049 0.60482 0.71537 0.0
O108 O 0.66379 0.58903 0.68142 0.0
C109 C 0.68024 0.55454 0.7229 0.0
C110 C 0.65537 0.60041 0.68162 0.0
O111 O 0.65572 0.58638 0.80738 0.0
Mg112 Mg 0.07083 0.66728 0.23235 0.0
O113 O 0.06678 0.63502 0.22428 0.0
O114 O 0.07705 0.6322 0.16408 0.0
Mg115 Mg 0.08828 0.66322 0.13327 0.0
C116 C 0.06971 0.62461 0.19784 0.0
C117 C 0.06218 0.6724 0.32119 0.0
O118 O 0.06893 0.69156 0.30985 0.0
O119 O 0.10584 0.68084 0.24019 0.0
O120 O 0.11451 0.67884 0.17795 0.0
O121 O 0.03984 0.65682 0.20533 0.0
O122 O 0.0691 0.67037 0.17186 0.0
C123 C 0.11943 0.68413 0.21382 0.0
C124 C 0.0493 0.66205 0.17178 0.0
O125 O 0.06282 0.65967 0.29717 0.0
Mg126 Mg 0.40347 0.07438 0.73606 0.0
O127 O 0.43168 0.07031 0.7266 0.0
O128 O 0.44383 0.08041 0.66574 0.0
Mg129 Mg 0.4241 0.09206 0.63648 0.0
C130 C 0.44453 0.07307 0.69922 0.0
C131 C 0.40323 0.05035 0.80974 0.0
O132 O 0.40565 0.03991 0.78111 0.0
O133 O 0.42503 0.10929 0.74385 0.0
O134 O 0.43532 0.11827 0.68154 0.0
O135 O 0.38252 0.04341 0.70927 0.0
O136 O 0.39826 0.07265 0.67576 0.0
C137 C 0.43522 0.123 0.71765 0.0
C138 C 0.38662 0.05287 0.67573 0.0
O139 O 0.40283 0.06678 0.8014 0.0
Mg140 Mg 0.33278 0.41244 0.24112 0.0
O141 O 0.36496 0.44153 0.23721 0.0
O142 O 0.36764 0.45599 0.17835 0.0
Mg143 Mg 0.33727 0.43707 0.14536 0.0
C144 C 0.37519 0.45561 0.21178 0.0
C145 C 0.33297 0.39065 0.31547 0.0
O146 O 0.32403 0.37605 0.28879 0.0
O147 O 0.31806 0.4325 0.25197 0.0
O148 O 0.32045 0.44561 0.1917 0.0
O149 O 0.34446 0.39353 0.21183 0.0
O150 O 0.33097 0.40979 0.18009 0.0
C151 C 0.3147 0.44356 0.22764 0.0
C152 C 0.33964 0.39861 0.17878 0.0
O153 O 0.33811 0.40911 0.30607 0.0
Mg154 Mg 0.92186 0.3243 0.74472 0.0
O155 O 0.92429 0.35579 0.73401 0.0
O156 O 0.91513 0.3571 0.67203 0.0
Mg157 Mg 0.90603 0.32607 0.64306 0.0
C158 C 0.92138 0.36534 0.70582 0.0
C159 C 0.94357 0.3485 0.81944 0.0
O160 O 0.95418 0.36152 0.79115 0.0
O161 O 0.88658 0.30936 0.74934 0.0
O162 O 0.87888 0.30975 0.68583 0.0
O163 O 0.9538 0.33601 0.72095 0.0
O164 O 0.92542 0.32115 0.68492 0.0
C165 C 0.87339 0.30487 0.72164 0.0
C166 C 0.94526 0.33034 0.68667 0.0
O167 O 0.92768 0.33133 0.81043 0.0
C168 C 0.04882 0.39302 0.11841 0.0
C169 C 0.04311 0.3764 0.14446 0.0
C170 C 0.03767 0.39026 0.08365 0.0
C171 C 0.00038 0.34959 0.01593 0.0
H172 H 0.98838 0.39233 0.98357 0.0
C173 C 0.94451 0.3367 0.88816 0.0
C174 C 0.95194 0.3526 0.85996 0.0
C175 C 0.9545 0.33991 0.92446 0.0
C176 C 0.99169 0.38031 0.99216 0.0
H177 H 0.0214 0.34377 0.15405 0.0
H178 H 0.00192 0.33906 0.09405 0.0
H179 H 0.00905 0.39738 0.04252 0.0
H180 H 0.97494 0.38466 0.84861 0.0
H181 H 0.99225 0.39023 0.91183 0.0
H182 H 0.98297 0.33251 0.96566 0.0
C183 C 0.01515 0.35417 0.10002 0.0
C184 C 0.00363 0.38323 0.02581 0.0
C185 C 0.0263 0.35691 0.13461 0.0
C186 C 0.96887 0.37206 0.86962 0.0
C187 C 0.97875 0.3753 0.90595 0.0
C188 C 0.98837 0.34663 0.98244 0.0
C189 C 0.02057 0.37083 0.07423 0.0
C190 C 0.00815 0.36792 0.03808 0.0
C191 C 0.972 0.35912 0.93339 0.0
C192 C 0.98393 0.36196 0.97011 0.0
H193 H 0.0617 0.40824 0.12512 0.0
H194 H 0.04247 0.40336 0.06415 0.0
H195 H 0.00383 0.33761 0.02411 0.0
H196 H 0.93149 0.32154 0.88167 0.0
H197 H 0.94876 0.32723 0.94527 0.0
C198 C 0.60251 0.94396 0.38609 0.0
C199 C 0.59355 0.95121 0.35864 0.0
C200 C 0.61008 0.95427 0.42192 0.0
C201 C 0.60802 0.99181 0.49035 0.0
H202 H 0.66328 0.00408 0.51923 0.0
C203 C 0.65348 0.04859 0.61639 0.0
C204 C 0.66462 0.0428 0.64164 0.0
C205 C 0.64496 0.03769 0.58143 0.0
C206 C 0.64775 0.0006 0.5119 0.0
H207 H 0.58454 0.97431 0.3481 0.0
H208 H 0.5976 0.99215 0.41054 0.0
H209 H 0.64674 0.98308 0.46122 0.0
H210 H 0.67592 0.02129 0.64945 0.0
H211 H 0.66091 0.00222 0.58915 0.0
H212 H 0.60894 0.0092 0.54116 0.0
C213 C 0.59883 0.97855 0.40443 0.0
C214 C 0.63825 0.98852 0.47866 0.0
C215 C 0.59142 0.96836 0.36855 0.0
C216 C 0.66749 0.02624 0.63067 0.0
C217 C 0.65894 0.01532 0.59589 0.0
C218 C 0.61747 0.0038 0.52375 0.0
C219 C 0.60866 0.97191 0.43114 0.0
C220 C 0.6183 0.98401 0.46747 0.0
C221 C 0.64737 0.02074 0.57101 0.0
C222 C 0.63747 0.00838 0.53493 0.0
H223 H 0.60438 0.93079 0.37935 0.0
H224 H 0.61733 0.94863 0.44217 0.0
H225 H 0.59256 0.98845 0.48265 0.0
H226 H 0.651 0.0613 0.62395 0.0
H227 H 0.63642 0.0425 0.56264 0.0
C228 C 0.6113 0.65209 0.12627 0.0
C229 C 0.61924 0.67356 0.12875 0.0
C230 C 0.61556 0.64345 0.09362 0.0
C231 C 0.6528 0.6583 0.0102 0.0
H232 H 0.6151 0.602 0.97697 0.0
C233 C 0.67783 0.61874 0.89435 0.0
C234 C 0.66293 0.60557 0.86706 0.0
C235 C 0.672 0.62581 0.92741 0.0
C236 C 0.62577 0.61784 0.98544 0.0
H237 H 0.63691 0.70268 0.09792 0.0
H238 H 0.64346 0.68755 0.03995 0.0
H239 H 0.60473 0.61737 0.02862 0.0
H240 H 0.63013 0.58912 0.85349 0.0
H241 H 0.62007 0.602 0.90994 0.0
H242 H 0.67336 0.6592 0.96555 0.0
C243 C 0.63464 0.6774 0.06392 0.0
C244 C 0.61992 0.62659 0.01566 0.0
C245 C 0.6307 0.68609 0.09698 0.0
C246 C 0.642 0.59912 0.87415 0.0
C247 C 0.63621 0.60649 0.90676 0.0
C248 C 0.6585 0.64968 0.97952 0.0
C249 C 0.62757 0.656 0.06218 0.0
C250 C 0.63339 0.64692 0.02869 0.0
C251 C 0.65116 0.62022 0.93357 0.0
C252 C 0.64513 0.62927 0.9668 0.0
H253 H 0.60256 0.64199 0.1504 0.0
H254 H 0.61008 0.627 0.09391 0.0
H255 H 0.66382 0.67385 0.01969 0.0
H256 H 0.69407 0.62388 0.88982 0.0
H257 H 0.68393 0.63589 0.94786 0.0
C258 C 0.03629 0.64355 0.36338 0.0
C259 C 0.0505 0.66475 0.35849 0.0
C260 C 0.02311 0.63651 0.39598 0.0
C261 C 0.00158 0.65566 0.47384 0.0
H262 H 0.98071 0.60034 0.51521 0.0
C263 C 0.93656 0.62259 0.59002 0.0
C264 C 0.93752 0.60999 0.61963 0.0
C265 C 0.94952 0.62801 0.55709 0.0
C266 C 0.98651 0.61594 0.50446 0.0
H267 H 0.06283 0.69504 0.3851 0.0
H268 H 0.04065 0.6827 0.44309 0.0
H269 H 0.00669 0.61297 0.46375 0.0
H270 H 0.95254 0.59283 0.63753 0.0
H271 H 0.97562 0.60288 0.58132 0.0
H272 H 0.98232 0.6591 0.51608 0.0
C273 C 0.03902 0.67153 0.42096 0.0
C274 C 0.00126 0.62311 0.47433 0.0
C275 C 0.05194 0.67863 0.38791 0.0
C276 C 0.95126 0.60241 0.61505 0.0
C277 C 0.9645 0.60815 0.58257 0.0
C278 C 0.98712 0.64864 0.50447 0.0
C279 C 0.02405 0.65042 0.42501 0.0
C280 C 0.00895 0.64304 0.45837 0.0
C281 C 0.96408 0.62131 0.55336 0.0
C282 C 0.97926 0.62863 0.52014 0.0
H283 H 0.03464 0.63245 0.34108 0.0
H284 H 0.01166 0.62021 0.39748 0.0
H285 H 0.00674 0.67096 0.46204 0.0
H286 H 0.92603 0.62856 0.59262 0.0
H287 H 0.94826 0.63768 0.53481 0.0
C288 C 0.38948 0.04867 0.87787 0.0
C289 C 0.39818 0.04141 0.84981 0.0
C290 C 0.38213 0.0383 0.91369 0.0
C291 C 0.38435 0.00073 0.98139 0.0
H292 H 0.32907 0.98831 0.01072 0.0
C293 C 0.33922 0.94473 0.10916 0.0
C294 C 0.32783 0.95052 0.13381 0.0
C295 C 0.34783 0.95545 0.07404 0.0
C296 C 0.34461 0.99183 0.0033 0.0
H297 H 0.40704 0.01827 0.83824 0.0
H298 H 0.39437 0.00034 0.90081 0.0
H299 H 0.34543 0.00916 0.95252 0.0
H300 H 0.31636 0.97196 0.14056 0.0
H301 H 0.33157 0.99074 0.08017 0.0
H302 H 0.38364 0.98359 0.03243 0.0
C303 C 0.39315 0.01398 0.89508 0.0
C304 C 0.354 0.00382 0.96993 0.0
C305 C 0.40033 0.02421 0.85916 0.0
C306 C 0.32494 0.96698 0.12223 0.0
C307 C 0.3336 0.97773 0.08737 0.0
C308 C 0.37502 0.98885 0.01501 0.0
C309 C 0.38352 0.02061 0.92234 0.0
C310 C 0.37397 0.00842 0.95861 0.0
C311 C 0.34528 0.97222 0.06291 0.0
C312 C 0.35503 0.98428 0.02644 0.0
H313 H 0.38762 0.06188 0.8716 0.0
H314 H 0.37503 0.04394 0.9344 0.0
H315 H 0.39981 0.00413 0.9735 0.0
H316 H 0.34172 0.9321 0.11723 0.0
H317 H 0.35648 0.95059 0.05562 0.0
C318 C 0.33427 0.36548 0.36213 0.0
C319 C 0.33866 0.38576 0.35408 0.0
C320 C 0.34084 0.36087 0.39715 0.0
C321 C 0.37906 0.3853 0.47721 0.0
H322 H 0.344 0.33327 0.53058 0.0
C323 C 0.39463 0.3671 0.63454 0.0
C324 C 0.39045 0.34689 0.64267 0.0
C325 C 0.38987 0.37203 0.59786 0.0
C326 C 0.3541 0.34773 0.51571 0.0
H327 H 0.35304 0.41706 0.37699 0.0
H328 H 0.36419 0.40891 0.43871 0.0
H329 H 0.33162 0.3417 0.47106 0.0
H330 H 0.37883 0.31621 0.61807 0.0
H331 H 0.37052 0.32486 0.55378 0.0
H332 H 0.40139 0.39141 0.52242 0.0
C333 C 0.35597 0.39664 0.41749 0.0
C334 C 0.34699 0.35259 0.48162 0.0
C335 C 0.34943 0.40128 0.38229 0.0
C336 C 0.38221 0.33192 0.61273 0.0
C337 C 0.3773 0.33682 0.57605 0.0
C338 C 0.38613 0.38047 0.51146 0.0
C339 C 0.3519 0.3764 0.42518 0.0
C340 C 0.35937 0.37144 0.46192 0.0
C341 C 0.38072 0.35684 0.5685 0.0
C342 C 0.37372 0.36163 0.53109 0.0
H343 H 0.32608 0.35315 0.341 0.0
H344 H 0.33767 0.34519 0.40177 0.0
H345 H 0.38915 0.39978 0.46243 0.0
H346 H 0.40104 0.37902 0.65692 0.0
H347 H 0.39257 0.38754 0.59308 0.0
C348 C 0.97357 0.628 0.84147 0.0
C349 C 0.95191 0.6186 0.84155 0.0
C350 C 0.98457 0.63396 0.87688 0.0
C351 C 0.97934 0.64406 0.98216 0.0
H352 H 0.0248 0.63348 0.99619 0.0
C353 C 0.0162 0.64662 0.13339 0.0
C354 C 0.03794 0.6576 0.13427 0.0
C355 C 0.00571 0.64246 0.09752 0.0
C356 C 0.01221 0.63663 0.99254 0.0
H357 H 0.92486 0.60883 0.8786 0.0
H358 H 0.94382 0.61842 0.93999 0.0
H359 H 0.00689 0.62577 0.93316 0.0
H360 H 0.06567 0.67345 0.09834 0.0
H361 H 0.04738 0.6658 0.03606 0.0
H362 H 0.98446 0.65449 0.04199 0.0
C363 C 0.95244 0.62149 0.91278 0.0
C364 C 0.00204 0.63234 0.95641 0.0
C365 C 0.94152 0.61571 0.87751 0.0
C366 C 0.04893 0.66454 0.09871 0.0
C367 C 0.03849 0.66021 0.06298 0.0
C368 C 0.9894 0.64816 0.01841 0.0
C369 C 0.97407 0.63058 0.91296 0.0
C370 C 0.98545 0.63596 0.95082 0.0
C371 C 0.0168 0.64909 0.06201 0.0
C372 C 0.00591 0.64448 0.02389 0.0
H373 H 0.98202 0.63057 0.81417 0.0
H374 H 0.00127 0.64123 0.87597 0.0
H375 H 0.96685 0.64736 0.97864 0.0
H376 H 0.00731 0.64116 0.16033 0.0
H377 H 0.98894 0.63378 0.09746 0.0
C378 C 0.31927 0.94478 0.38269 0.0
C379 C 0.32688 0.95501 0.34664 0.0
C380 C 0.32496 0.95578 0.4179 0.0
C381 C 0.36545 0.00483 0.46059 0.0
H382 H 0.32674 0.98882 0.54766 0.0
C383 C 0.38314 0.05245 0.60278 0.0
C384 C 0.37917 0.04148 0.63833 0.0
C385 C 0.37637 0.04195 0.56718 0.0
C386 C 0.33772 0.99331 0.52365 0.0
H387 H 0.3457 0.98493 0.31902 0.0
H388 H 0.35526 0.00433 0.38069 0.0
H389 H 0.31507 0.97114 0.48454 0.0
H390 H 0.36451 0.01088 0.66456 0.0
H391 H 0.35239 0.99244 0.60194 0.0
H392 H 0.38798 0.02725 0.49971 0.0
C393 C 0.34533 0.98768 0.38173 0.0
C394 C 0.33108 0.98321 0.48753 0.0
C395 C 0.33974 0.97661 0.3464 0.0
C396 C 0.36789 0.01975 0.63762 0.0
C397 C 0.36091 0.00921 0.60189 0.0
C398 C 0.37201 0.01506 0.49657 0.0
C399 C 0.33818 0.97733 0.41791 0.0
C400 C 0.34491 0.98876 0.45566 0.0
C401 C 0.36524 0.02026 0.56639 0.0
C402 C 0.35823 0.00931 0.52844 0.0
H403 H 0.30902 0.9282 0.38389 0.0
H404 H 0.31935 0.94727 0.44519 0.0
H405 H 0.3766 0.00924 0.43692 0.0
H406 H 0.39134 0.06919 0.60231 0.0
H407 H 0.37961 0.05081 0.54026 0.0
C408 C 0.36681 0.32048 0.88669 0.0
C409 C 0.36532 0.32848 0.85024 0.0
C410 C 0.36297 0.32781 0.92152 0.0
C411 C 0.36185 0.37304 0.96195 0.0
H412 H 0.33631 0.3366 0.05125 0.0
C413 C 0.33846 0.39764 0.10533 0.0
C414 C 0.34387 0.39188 0.14079 0.0
C415 C 0.34128 0.39033 0.06945 0.0
C416 C 0.34363 0.34695 0.02661 0.0
H417 H 0.35766 0.34971 0.82149 0.0
H418 H 0.35038 0.3622 0.88254 0.0
H419 H 0.33897 0.32217 0.98859 0.0
H420 H 0.3566 0.37401 0.16641 0.0
H421 H 0.3613 0.36101 0.10348 0.0
H422 H 0.36616 0.39775 9e-05 0.0
C423 C 0.35507 0.35063 0.88416 0.0
C424 C 0.34515 0.33873 0.99075 0.0
C425 C 0.35906 0.34336 0.8492 0.0
C426 C 0.35233 0.37877 0.13959 0.0
C427 C 0.35493 0.37125 0.10367 0.0
C428 C 0.36013 0.38123 -0.00225 0.0
C429 C 0.3573 0.34314 0.92074 0.0
C430 C 0.35446 0.3517 0.9581 0.0
C431 C 0.3493 0.37688 0.06834 0.0
C432 C 0.35116 0.36827 0.03045 0.0
H433 H 0.37124 0.30873 0.88847 0.0
H434 H 0.36504 0.32183 0.94913 0.0
H435 H 0.36942 0.38351 0.9376 0.0
H436 H 0.33162 0.40745 0.10516 0.0
H437 H 0.33661 0.39471 0.04264 0.0
C438 C 0.97931 0.34756 0.65121 0.0
C439 C 0.95765 0.33521 0.65033 0.0
C440 C 0.99076 0.35223 0.61635 0.0
C441 C 0.98683 0.3351 0.51259 0.0
H442 H 0.03231 0.39091 0.49595 0.0
C443 C 0.02328 0.36656 0.36026 0.0
C444 C 0.04501 0.37754 0.35876 0.0
C445 C 0.01305 0.36088 0.39645 0.0
C446 C 0.01975 0.37522 0.50038 0.0
H447 H 0.93109 0.31758 0.61243 0.0
H448 H 0.95084 0.32629 0.55196 0.0
H449 H 0.01395 0.38184 0.5587 0.0
H450 H 0.07301 0.39059 0.39399 0.0
H451 H 0.05512 0.38105 0.45696 0.0
H452 H 0.99236 0.32869 0.45382 0.0
C453 C 0.9591 0.33216 0.57941 0.0
C454 C 0.0093 0.37 0.53633 0.0
C455 C 0.94772 0.32741 0.61413 0.0
C456 C 0.05627 0.38253 0.39409 0.0
C457 C 0.04606 0.37704 0.43019 0.0
C458 C -0.00285 0.34039 0.47654 0.0
C459 C 0.98074 0.34463 0.58005 0.0
C460 C 0.99262 0.34991 0.54273 0.0
C461 C 0.02437 0.3662 0.43171 0.0
C462 C 0.01362 0.36051 0.47006 0.0
H463 H 0.9874 0.35368 0.67873 0.0
H464 H 0.00746 0.36167 0.61788 0.0
H465 H 0.97431 0.31938 0.51683 0.0
H466 H 0.01418 0.36243 0.33353 0.0
H467 H 0.99628 0.35261 0.3969 0.0
C468 C 0.65037 0.01844 0.85592 0.0
C469 C 0.66243 0.04013 0.85561 0.0
C470 C 0.64467 0.00769 0.89162 0.0
C471 C 0.63664 0.01461 0.99544 0.0
H472 H 0.64169 0.96594 0.01229 0.0
C473 C 0.6219 0.9748 0.14699 0.0
C474 C 0.61104 0.95307 0.14696 0.0
C475 C 0.62884 0.98572 0.11164 0.0
C476 C 0.63996 0.97937 0.00789 0.0
H477 H 0.67875 0.06749 0.89231 0.0
H478 H 0.66855 0.04879 0.95426 0.0
H479 H 0.6521 0.98398 0.94932 0.0
H480 H 0.59934 0.92575 0.10996 0.0
H481 H 0.61072 0.94467 0.0486 0.0
H482 H 0.62418 0.00988 0.05362 0.0
C483 C 0.66324 0.04013 0.92704 0.0
C484 C 0.64594 0.98968 0.97187 0.0
C485 C 0.66905 0.05082 0.89151 0.0
C486 C 0.60738 0.94249 0.11103 0.0
C487 C 0.61418 0.95335 0.0758 0.0
C488 C 0.63051 0.00423 0.03134 0.0
C489 C 0.65087 0.0185 0.92746 0.0
C490 C 0.64434 0.00739 0.96536 0.0
C491 C 0.62502 0.97508 0.07566 0.0
C492 C 0.63208 0.98647 0.03795 0.0
H493 H 0.64511 0.0098 0.8287 0.0
H494 H 0.63505 0.99099 0.89122 0.0
H495 H 0.63504 0.02812 0.99095 0.0
H496 H 0.62507 0.98337 0.17427 0.0
H497 H 0.63739 0.00247 0.11253 0.0
C498 C 0.62921 0.67887 0.38785 0.0
C499 C 0.63109 0.67052 0.35208 0.0
C500 C 0.63263 0.67187 0.42347 0.0
C501 C 0.633 0.62675 0.46638 0.0
H502 H 0.65734 0.66331 0.55596 0.0
C503 C 0.65715 0.60288 0.60845 0.0
C504 C 0.65125 0.60781 0.64432 0.0
C505 C 0.6541 0.61035 0.57309 0.0
C506 C 0.65031 0.65293 0.53126 0.0
H507 H 0.63925 0.64916 0.32536 0.0
H508 H 0.64586 0.6373 0.38775 0.0
H509 H 0.65519 0.67761 0.49275 0.0
H510 H 0.63768 0.62464 0.67125 0.0
H511 H 0.63265 0.63807 0.60897 0.0
H512 H 0.62859 0.60217 0.50487 0.0
C513 C 0.6411 0.64884 0.38825 0.0
C514 C 0.64909 0.66108 0.49507 0.0
C515 C 0.63751 0.65576 0.35251 0.0
C516 C 0.64228 0.62048 0.64406 0.0
C517 C 0.63948 0.62822 0.60854 0.0
C518 C 0.63442 0.61866 0.50244 0.0
C519 C 0.63828 0.65653 0.42415 0.0
C520 C 0.64039 0.64807 0.46222 0.0
C521 C 0.64539 0.62319 0.5728 0.0
C522 C 0.64307 0.63168 0.53517 0.0
H523 H 0.62466 0.69056 0.38849 0.0
H524 H 0.63016 0.67804 0.45049 0.0
H525 H 0.62581 0.61624 0.44194 0.0
H526 H 0.66451 0.59355 0.60752 0.0
H527 H 0.65908 0.60652 0.54597 0.0
C528 C 0.06161 0.59634 0.24653 0.0
C529 C 0.06559 0.60351 0.20747 0.0
C530 C 0.05952 0.57721 0.25629 0.0
C531 C 0.04934 0.52715 0.2161 0.0
H532 H 0.08333 0.52805 0.30311 0.0
C533 C 0.06738 0.46136 0.24424 0.0
C534 C 0.07001 0.45694 0.28329 0.0
C535 C 0.06434 0.47799 0.23578 0.0
C536 C 0.07341 0.52734 0.27922 0.0
H537 H 0.06957 0.59573 0.14778 0.0
H538 H 0.0658 0.56225 0.16492 0.0
H539 H 0.082 0.5591 0.287 0.0
H540 H 0.07043 0.46582 0.34421 0.0
H541 H 0.0645 0.49435 0.32959 0.0
H542 H 0.04069 0.49534 0.20834 0.0
C543 C 0.06433 0.5715 0.18792 0.0
C544 C 0.07271 0.54519 0.26994 0.0
C545 C 0.06661 0.59073 0.17817 0.0
C546 C 0.06873 0.46898 0.31376 0.0
C547 C 0.06544 0.48543 0.30534 0.0
C548 C 0.04986 0.50918 0.22563 0.0
C549 C 0.06117 0.56474 0.22718 0.0
C550 C 0.06083 0.54534 0.2381 0.0
C551 C 0.06364 0.49042 0.2662 0.0
C552 C 0.06206 0.50911 0.25712 0.0
H553 H 0.06066 0.60574 0.26985 0.0
H554 H 0.05687 0.57227 0.28674 0.0
H555 H 0.0399 0.5268 0.19159 0.0
H556 H 0.06836 0.45242 0.22006 0.0
H557 H 0.06327 0.4815 0.20526 0.0
C558 C 0.46585 0.0653 0.74561 0.0
C559 C 0.46123 0.06832 0.70695 0.0
C560 C 0.48259 0.06231 0.75311 0.0
C561 C 0.53195 0.0724 0.70833 0.0
H562 H 0.53193 0.03817 0.79416 0.0
C563 C 0.60243 0.0629 0.74082 0.0
C564 C 0.60917 0.06654 0.78014 0.0
C565 C 0.58309 0.06019 0.73067 0.0
C566 C 0.53213 0.04779 0.77013 0.0
H567 H 0.46992 0.06949 0.64567 0.0
H568 H 0.4987 0.06373 0.65862 0.0
H569 H 0.50017 0.03846 0.77805 0.0
H570 H 0.60044 0.06923 0.83986 0.0
H571 H 0.56665 0.06441 0.82205 0.0
H572 H 0.5639 0.08175 0.7005 0.0
C573 C 0.48981 0.06429 0.6833 0.0
C574 C 0.51399 0.04803 0.76097 0.0
C575 C 0.47322 0.06749 0.67585 0.0
C576 C 0.59578 0.06658 0.80927 0.0
C577 C 0.57637 0.06368 0.79914 0.0
C578 C 0.55 0.072 0.71726 0.0
C579 C 0.49496 0.06206 0.72208 0.0
C580 C 0.51375 0.06056 0.73026 0.0
C581 C 0.57 0.06084 0.75965 0.0
C582 C 0.55035 0.0599 0.74854 0.0
H583 H 0.45694 0.06587 0.77027 0.0
H584 H 0.48623 0.06091 0.78337 0.0
H585 H 0.53251 0.08254 0.68501 0.0
H586 H 0.61231 0.06271 0.71764 0.0
H587 H 0.57847 0.05782 0.70005 0.0
C588 C 0.54471 0.61086 0.25256 0.0
C589 C 0.54905 0.61909 0.29087 0.0
C590 C 0.52699 0.5919 0.24498 0.0
C591 C 0.48674 0.54353 0.28944 0.0
H592 H 0.45316 0.5441 0.20301 0.0
C593 C 0.40294 0.47691 0.26082 0.0
C594 C 0.3963 0.47244 0.22153 0.0
C595 C 0.42235 0.49384 0.26988 0.0
C596 C 0.46248 0.54348 0.22681 0.0
H597 H 0.5386 0.61328 0.35157 0.0
H598 H 0.50763 0.57999 0.33818 0.0
H599 H 0.4859 0.57501 0.21768 0.0
H600 H 0.40523 0.48156 0.16086 0.0
H601 H 0.43919 0.51054 0.17649 0.0
H602 H 0.46337 0.51188 0.29832 0.0
C603 C 0.518 0.58834 0.31411 0.0
C604 C 0.48122 0.56126 0.23528 0.0
C605 C 0.53567 0.60745 0.3217 0.0
C606 C 0.40976 0.48476 0.19147 0.0
C607 C 0.42921 0.50148 0.20047 0.0
C608 C 0.46802 0.5256 0.2807 0.0
C609 C 0.51328 0.58062 0.27553 0.0
C610 C 0.49355 0.56148 0.26663 0.0
C611 C 0.43561 0.50651 0.23981 0.0
C612 C 0.45566 0.52537 0.24922 0.0
H613 H 0.55469 0.61933 0.2281 0.0
H614 H 0.52384 0.58616 0.21503 0.0
H615 H 0.49602 0.54328 0.31367 0.0
H616 H 0.3929 0.46773 0.28466 0.0
H617 H 0.42666 0.49735 0.30051 0.0
C618 C 0.92702 0.53205 0.73637 0.0
C619 C 0.92358 0.53621 0.77516 0.0
C620 C 0.92938 0.51501 0.72811 0.0
C621 C 0.94163 0.47731 0.77211 0.0
H622 H 0.90763 0.44146 0.68773 0.0
C623 C 0.92695 0.39415 0.75134 0.0
C624 C 0.92472 0.38639 0.71287 0.0
C625 C 0.92886 0.41352 0.7581 0.0
C626 C 0.91754 0.45145 0.71092 0.0
H627 H 0.92074 0.52611 0.83587 0.0
H628 H 0.92497 0.4964 0.82135 0.0
H629 H 0.9078 0.4736 0.70088 0.0
H630 H 0.92365 0.39329 0.65121 0.0
H631 H 0.92753 0.42723 0.66291 0.0
H632 H 0.95143 0.4552 0.78213 0.0
C633 C 0.92583 0.50637 0.79739 0.0
C634 C 0.91757 0.46986 0.7185 0.0
C635 C 0.92328 0.52332 0.80564 0.0
C636 C 0.92509 0.3987 0.68125 0.0
C637 C 0.92721 0.41813 0.68799 0.0
C638 C 0.94174 0.45896 0.76431 0.0
C639 C 0.92855 0.50185 0.75847 0.0
C640 C 0.92948 0.48289 0.74936 0.0
C641 C 0.9288 0.42566 0.72653 0.0
C642 C 0.92955 0.4457 0.73381 0.0
H643 H 0.92739 0.54167 0.71216 0.0
H644 H 0.93169 0.51201 0.69788 0.0
H645 H 0.95111 0.48719 0.79584 0.0
H646 H 0.92668 0.38505 0.7764 0.0
H647 H 0.92978 0.41867 0.7882 0.0
C648 C 0.39157 0.92577 0.3151 0.0
C649 C 0.37921 0.925 0.28324 0.0
C650 C 0.41123 0.92838 0.30873 0.0
C651 C 0.45234 0.94336 0.23276 0.0
H652 H 0.46729 0.90965 0.29624 0.0
C653 C 0.51567 0.92406 0.18936 0.0
C654 C 0.52885 0.92433 0.21919 0.0
C655 C 0.499 0.9269 0.19844 0.0
C656 C 0.46347 0.91939 0.27864 0.0
H657 H 0.37803 0.9268 0.21967 0.0
H658 H 0.41205 0.93076 0.20849 0.0
H659 H 0.43515 0.90944 0.30971 0.0
H660 H 0.53513 0.92838 0.2819 0.0
H661 H 0.50587 0.93316 0.29769 0.0
H662 H 0.48044 0.95267 0.20084 0.0
C663 C 0.40676 0.92979 0.2385 0.0
C664 C 0.44506 0.91932 0.2864 0.0
C665 C 0.38717 0.92738 0.2449 0.0
C666 C 0.52526 0.92801 0.25821 0.0
C667 C 0.50846 0.93066 0.26732 0.0
C668 C 0.47068 0.94328 0.22479 0.0
C669 C 0.41894 0.93007 0.27031 0.0
C670 C 0.43916 0.93116 0.26335 0.0
C671 C 0.49504 0.92991 0.23758 0.0
C672 C 0.47634 0.93115 0.24747 0.0
H673 H 0.38601 0.92423 0.34506 0.0
H674 H 0.42034 0.92895 0.33397 0.0
H675 H 0.44847 0.95294 0.21486 0.0
H676 H 0.51804 0.92135 0.15898 0.0
H677 H 0.48881 0.92607 0.17497 0.0
C678 C 0.59174 0.5218 0.76064 0.0
C679 C 0.59841 0.52533 0.72123 0.0
C680 C 0.57248 0.50495 0.77063 0.0
C681 C 0.52144 0.46749 0.73062 0.0
H682 H 0.52041 0.43172 0.81436 0.0
C683 C 0.45309 0.38473 0.75223 0.0
C684 C 0.44776 0.37677 0.79061 0.0
C685 C 0.47055 0.40405 0.74549 0.0
C686 C 0.52028 0.44171 0.7914 0.0
H687 H 0.58976 0.51428 0.66133 0.0
H688 H 0.5561 0.48498 0.67885 0.0
H689 H 0.55244 0.4636 0.79963 0.0
H690 H 0.45622 0.38326 0.85217 0.0
H691 H 0.4864 0.41719 0.8405 0.0
H692 H 0.4893 0.44569 0.72235 0.0
C693 C 0.5658 0.49526 0.70194 0.0
C694 C 0.53867 0.45996 0.78291 0.0
C695 C 0.58514 0.51197 0.69197 0.0
C696 C 0.45999 0.38884 0.8222 0.0
C697 C 0.47737 0.40826 0.81548 0.0
C698 C 0.50298 0.44934 0.73934 0.0
C699 C 0.5594 0.49144 0.74141 0.0
C700 C 0.5395 0.47288 0.75211 0.0
C701 C 0.48302 0.416 0.77699 0.0
C702 C 0.50224 0.43606 0.76948 0.0
H703 H 0.60157 0.53179 0.78392 0.0
H704 H 0.56784 0.50244 0.80126 0.0
H705 H 0.52159 0.47732 0.70703 0.0
H706 H 0.44405 0.37583 0.72717 0.0
H707 H 0.47457 0.40934 0.71542 0.0
C708 C 0.15384 0.43469 0.23022 0.0
C709 C 0.14723 0.44243 0.26123 0.0
C710 C 0.1749 0.44158 0.22507 0.0
C711 C 0.22173 0.4622 0.28561 0.0
H712 H 0.24749 0.46278 0.18626 0.0
C713 C 0.30044 0.46701 0.2153 0.0
C714 C 0.30135 0.45211 0.23921 0.0
C715 C 0.28472 0.47177 0.22044 0.0
C716 C 0.24074 0.46309 0.21429 0.0
H717 H 0.15754 0.46498 0.30851 0.0
H718 H 0.19422 0.47732 0.29889 0.0
H719 H 0.21405 0.46106 0.18655 0.0
H720 H 0.28755 0.43181 0.28936 0.0
H721 H 0.25994 0.43986 0.29802 0.0
H722 H 0.24831 0.46397 0.31336 0.0
C723 C 0.18316 0.46546 0.27938 0.0
C724 C 0.22143 0.46184 0.21441 0.0
C725 C 0.16215 0.45847 0.28473 0.0
C726 C 0.28727 0.44336 0.27047 0.0
C727 C 0.27144 0.44802 0.27546 0.0
C728 C 0.24107 0.46351 0.28549 0.0
C729 C 0.18972 0.45647 0.25061 0.0
C730 C 0.21146 0.46085 0.25007 0.0
C731 C 0.26952 0.46165 0.24946 0.0
C732 C 0.25056 0.46343 0.24985 0.0
H733 H 0.14271 0.4223 0.21169 0.0
H734 H 0.17939 0.43423 0.20272 0.0
H735 H 0.21442 0.46124 0.31368 0.0
H736 H 0.31126 0.47427 0.19129 0.0
H737 H 0.28397 0.48271 0.20057 0.0
C738 C 0.84326 0.28765 0.76849 0.0
C739 C 0.85098 0.29186 0.72987 0.0
C740 C 0.82236 0.27334 0.77549 0.0
C741 C 0.77159 0.23978 0.72372 0.0
H742 H 0.76293 0.20278 0.81075 0.0
C743 C 0.71196 0.15177 0.73272 0.0
C744 C 0.70155 0.14449 0.76877 0.0
C745 C 0.7266 0.17277 0.728 0.0
C746 C 0.76504 0.21315 0.78664 0.0
H747 H 0.84254 0.28504 0.66825 0.0
H748 H 0.80688 0.25971 0.68037 0.0
H749 H 0.79583 0.23463 0.80449 0.0
H750 H 0.69691 0.15394 0.82671 0.0
H751 H 0.72272 0.19025 0.81852 0.0
H752 H 0.74111 0.21708 0.70448 0.0
C753 C 0.81651 0.26772 0.70544 0.0
C754 C 0.78388 0.23155 0.78315 0.0
C755 C 0.83719 0.28222 0.69846 0.0
C756 C 0.70485 0.15889 0.79871 0.0
C757 C 0.7196 0.17972 0.79413 0.0
C758 C 0.75289 0.22109 0.72677 0.0
C759 C 0.80886 0.26268 0.74405 0.0
C760 C 0.78764 0.24491 0.75111 0.0
C761 C 0.73112 0.18668 0.75933 0.0
C762 C 0.74965 0.2075 0.7579 0.0
H763 H 0.85343 0.29501 0.7933 0.0
H764 H 0.81695 0.27026 0.80563 0.0
H765 H 0.77366 0.24989 0.6992 0.0
H766 H 0.70971 0.14114 0.70901 0.0
H767 H 0.7354 0.17784 0.70089 0.0
C768 C 0.56193 0.71413 0.23056 0.0
C769 C 0.56613 0.71079 0.26928 0.0
C770 C 0.55323 0.72666 0.22324 0.0
C771 C 0.53038 0.75547 0.27462 0.0
H772 H 0.55566 0.79367 0.18782 0.0
C773 C 0.55045 0.84115 0.26777 0.0
C774 C 0.5468 0.84811 0.23187 0.0
C775 C 0.54569 0.82055 0.27188 0.0
C776 C 0.5482 0.78289 0.21183 0.0
H777 H 0.56381 0.71748 0.33073 0.0
H778 H 0.54981 0.73977 0.31808 0.0
H779 H 0.56086 0.76416 0.19374 0.0
H780 H 0.5332 0.83832 0.17371 0.0
H781 H 0.52546 0.80273 0.18084 0.0
H782 H 0.51924 0.77553 0.29419 0.0
C783 C 0.55245 0.73233 0.29318 0.0
C784 C 0.55105 0.76585 0.21514 0.0
C785 C 0.56077 0.71963 0.30045 0.0
C786 C 0.53657 0.83363 0.20158 0.0
C787 C 0.53208 0.81321 0.20555 0.0
C788 C 0.52794 0.77282 0.27176 0.0
C789 C 0.54887 0.73636 0.25449 0.0
C790 C 0.54269 0.75222 0.24721 0.0
C791 C 0.53736 0.80673 0.2401 0.0
C792 C 0.5372 0.78687 0.24077 0.0
H793 H 0.56567 0.70737 0.20592 0.0
H794 H 0.55033 0.72907 0.19306 0.0
H795 H 0.52319 0.74501 0.29913 0.0
H796 H 0.55819 0.85184 0.29174 0.0
H797 H 0.54994 0.81586 0.29881 0.0
C798 C 0.83273 0.54126 0.791 0.0
C799 C 0.84667 0.55188 0.76012 0.0
C800 C 0.81186 0.53517 0.78755 0.0
C801 C 0.76865 0.52395 0.72491 0.0
H802 H 0.75706 0.55704 0.79748 0.0
C803 C 0.7022 0.5401 0.69997 0.0
C804 C 0.69406 0.54609 0.73141 0.0
C805 C 0.71794 0.53556 0.70615 0.0
C806 C 0.75964 0.54717 0.77772 0.0
H807 H 0.84911 0.56257 0.69996 0.0
H808 H 0.81222 0.55143 0.69378 0.0
H809 H 0.78999 0.55793 0.80095 0.0
H810 H 0.69484 0.55013 0.79463 0.0
H811 H 0.7217 0.54113 0.80587 0.0
H812 H 0.73822 0.51276 0.70206 0.0
C813 C 0.81776 0.54815 0.72074 0.0
C814 C 0.77865 0.54789 0.77951 0.0
C815 C 0.83884 0.55453 0.72433 0.0
C816 C 0.70096 0.54584 0.76972 0.0
C817 C 0.71651 0.54086 0.77604 0.0
C818 C 0.74936 0.52281 0.7237 0.0
C819 C 0.80437 0.53919 0.75294 0.0
C820 C 0.78347 0.53667 0.75259 0.0
C821 C 0.72577 0.53643 0.74411 0.0
C822 C 0.7448 0.53488 0.74938 0.0
H823 H 0.8381 0.53864 0.81884 0.0
H824 H 0.80172 0.52816 0.81261 0.0
H825 H 0.77205 0.51502 0.70414 0.0
H826 H 0.6973 0.54005 0.66997 0.0
H827 H 0.72471 0.53255 0.68061 0.0
C828 C 0.2815 0.8419 0.22487 0.0
C829 C 0.28568 0.84936 0.26366 0.0
C830 C 0.26774 0.8209 0.21751 0.0
C831 C 0.23596 0.76945 0.26844 0.0
H832 H 0.19821 0.75978 0.1823 0.0
C833 C 0.14864 0.70715 0.2592 0.0
C834 C 0.14179 0.69676 0.22303 0.0
C835 C 0.1694 0.72244 0.26412 0.0
C836 C 0.2088 0.76219 0.20617 0.0
H837 H 0.27936 0.84038 0.32515 0.0
H838 H 0.25494 0.80453 0.31247 0.0
H839 H 0.22924 0.79337 0.18881 0.0
H840 H 0.15186 0.69285 0.16515 0.0
H841 H 0.18772 0.71978 0.17368 0.0
H842 H 0.21426 0.73851 0.28722 0.0
C843 C 0.26259 0.81446 0.28751 0.0
C844 C 0.22673 0.78142 0.20979 0.0
C845 C 0.27655 0.83525 0.29482 0.0
C846 C 0.15646 0.70075 0.19323 0.0
C847 C 0.17704 0.71614 0.198 0.0
C848 C 0.21772 0.75034 0.26529 0.0
C849 C 0.25759 0.80702 0.24877 0.0
C850 C 0.24035 0.78552 0.2415 0.0
C851 C 0.1835 0.72762 0.23289 0.0
C852 C 0.20387 0.74672 0.23447 0.0
H853 H 0.28847 0.85234 0.20023 0.0
H854 H 0.26467 0.81568 0.18726 0.0
H855 H 0.2463 0.77178 0.29268 0.0
H856 H 0.13779 0.7044 0.2828 0.0
H857 H 0.17409 0.73119 0.2913 0.0
C858 C 0.43253 0.28087 0.73265 0.0
C859 C 0.4274 0.28348 0.77116 0.0
C860 C 0.4409 0.26805 0.72535 0.0
C861 C 0.46139 0.23721 0.77662 0.0
H862 H 0.43828 0.20145 0.68588 0.0
C863 C 0.44117 0.15178 0.76389 0.0
C864 C 0.4449 0.14528 0.72749 0.0
C865 C 0.44619 0.17237 0.7693 0.0
C866 C 0.44517 0.21155 0.711 0.0
H867 H 0.4275 0.27506 0.8323 0.0
H868 H 0.44096 0.25224 0.81955 0.0
H869 H 0.43329 0.231 0.69336 0.0
H870 H 0.45898 0.15586 0.66987 0.0
H871 H 0.46727 0.19151 0.67929 0.0
H872 H 0.47177 0.21645 0.79552 0.0
C873 C 0.43933 0.2605 0.79492 0.0
C874 C 0.44241 0.22861 0.71524 0.0
C875 C 0.43134 0.27351 0.80222 0.0
C876 C 0.45552 0.1602 0.69808 0.0
C877 C 0.46033 0.18065 0.70337 0.0
C878 C 0.46375 0.21985 0.77275 0.0
C879 C 0.44395 0.25731 0.75636 0.0
C880 C 0.44998 0.24136 0.74866 0.0
C881 C 0.4549 0.18669 0.73836 0.0
C882 C 0.45528 0.20666 0.74029 0.0
H883 H 0.42988 0.28853 0.70815 0.0
H884 H 0.44462 0.26628 0.69532 0.0
H885 H 0.46793 0.24698 0.80224 0.0
H886 H 0.43313 0.14074 0.78723 0.0
H887 H 0.44182 0.1767 0.79658 0.0
loop_
_geom_bond_atom_site_label_1
_geom_bond_atom_site_label_2
_geom_bond_distance
_geom_bond_site_symmetry_2
_ccdc_geom_bond_type
Mg0 O1 2.028 . S
Mg0 O7 1.986 . S
Mg0 O9 2.114 . S
Mg0 O10 2.251 . S
Mg0 O13 2.010 . S
O1 Mg0 2.028 . S
O1 C4 1.250 . S
O2 Mg3 2.028 . S
O2 C4 1.248 . S
Mg3 O2 2.028 . S
Mg3 O8 2.032 . S
Mg3 O10 2.079 . S
C4 O1 1.250 . S
C4 O2 1.248 . S
C5 O6 1.264 . S
C5 O13 1.249 . S
O6 C5 1.264 . S
O7 Mg0 1.986 . S
O7 C11 1.246 . S
O8 Mg3 2.032 . S
O8 C11 1.259 . S
O9 Mg0 2.114 . S
O9 C12 1.252 . S
O10 Mg0 2.251 . S
O10 Mg3 2.079 . S
O10 C12 1.273 . S
C11 O7 1.246 . S
C11 O8 1.259 . S
C12 O9 1.252 . S
C12 O10 1.273 . S
O13 Mg0 2.010 . S
O13 C5 1.249 . S
Mg14 O15 2.028 . S
Mg14 O21 1.986 . S
Mg14 O23 2.114 . S
Mg14 O24 2.251 . S
Mg14 O27 2.010 . S
O15 Mg14 2.028 . S
O15 C18 1.250 . S
O16 Mg17 2.028 . S
O16 C18 1.248 . S
Mg17 O16 2.028 . S
Mg17 O22 2.032 . S
Mg17 O24 2.079 . S
C18 O15 1.250 . S
C18 O16 1.248 . S
C19 O20 1.264 . S
C19 O27 1.249 . S
O20 C19 1.264 . S
O21 Mg14 1.986 . S
O21 C25 1.246 . S
O22 Mg17 2.032 . S
O22 C25 1.259 . S
O23 Mg14 2.114 . S
O23 C26 1.252 . S
O24 Mg14 2.251 . S
O24 Mg17 2.079 . S
O24 C26 1.273 . S
C25 O21 1.246 . S
C25 O22 1.259 . S
C26 O23 1.252 . S
C26 O24 1.273 . S
O27 Mg14 2.010 . S
O27 C19 1.249 . S
Mg28 O29 2.028 . S
Mg28 O35 1.986 . S
Mg28 O37 2.114 . S
Mg28 O38 2.251 . S
Mg28 O41 2.010 . S
O29 Mg28 2.028 . S
O29 C32 1.250 . S
O30 Mg31 2.028 . S
O30 C32 1.248 . S
Mg31 O30 2.028 . S
Mg31 O36 2.032 . S
Mg31 O38 2.079 . S
C32 O29 1.250 . S
C32 O30 1.248 . S
C33 O34 1.264 . S
C33 O41 1.249 . S
O34 C33 1.264 . S
O35 Mg28 1.986 . S
O35 C39 1.246 . S
O36 Mg31 2.032 . S
O36 C39 1.259 . S
O37 Mg28 2.114 . S
O37 C40 1.252 . S
O38 Mg28 2.251 . S
O38 Mg31 2.079 . S
O38 C40 1.273 . S
C39 O35 1.246 . S
C39 O36 1.259 . S
C40 O37 1.252 . S
C40 O38 1.273 . S
O41 Mg28 2.010 . S
O41 C33 1.249 . S
Mg42 O43 2.028 . S
Mg42 O49 1.986 . S
Mg42 O51 2.114 . S
Mg42 O52 2.251 . S
Mg42 O55 2.010 . S
O43 Mg42 2.028 . S
O43 C46 1.250 . S
O44 Mg45 2.028 . S
O44 C46 1.248 . S
Mg45 O44 2.028 . S
Mg45 O50 2.032 . S
Mg45 O52 2.079 . S
C46 O43 1.250 . S
C46 O44 1.248 . S
C47 O48 1.264 . S
C47 O55 1.249 . S
O48 C47 1.264 . S
O49 Mg42 1.986 . S
O49 C53 1.246 . S
O50 Mg45 2.032 . S
O50 C53 1.259 . S
O51 Mg42 2.114 . S
O51 C54 1.252 . S
O52 Mg42 2.251 . S
O52 Mg45 2.079 . S
O52 C54 1.273 . S
C53 O49 1.246 . S
C53 O50 1.259 . S
C54 O51 1.252 . S
C54 O52 1.273 . S
O55 Mg42 2.010 . S
O55 C47 1.249 . S
Mg56 O57 2.028 . S
Mg56 O63 1.986 . S
Mg56 O65 2.114 . S
Mg56 O66 2.251 . S
Mg56 O69 2.010 . S
O57 Mg56 2.028 . S
O57 C60 1.250 . S
O58 Mg59 2.028 . S
O58 C60 1.248 . S
Mg59 O58 2.028 . S
Mg59 O64 2.032 . S
Mg59 O66 2.079 . S
C60 O57 1.250 . S
C60 O58 1.248 . S
C61 O62 1.264 . S
C61 O69 1.249 . S
O62 C61 1.264 . S
O63 Mg56 1.986 . S
O63 C67 1.246 . S
O64 Mg59 2.032 . S
O64 C67 1.259 . S
O65 Mg56 2.114 . S
O65 C68 1.252 . S
O66 Mg56 2.251 . S
O66 Mg59 2.079 . S
O66 C68 1.273 . S
C67 O63 1.246 . S
C67 O64 1.259 . S
C68 O65 1.252 . S
C68 O66 1.273 . S
O69 Mg56 2.010 . S
O69 C61 1.249 . S
Mg70 O71 2.028 . S
Mg70 O77 1.986 . S
Mg70 O79 2.114 . S
Mg70 O80 2.251 . S
Mg70 O83 2.010 . S
O71 Mg70 2.028 . S
O71 C74 1.250 . S
O72 Mg73 2.028 . S
O72 C74 1.248 . S
Mg73 O72 2.028 . S
Mg73 O78 2.032 . S
Mg73 O80 2.079 . S
C74 O71 1.250 . S
C74 O72 1.248 . S
C75 O76 1.264 . S
C75 O83 1.249 . S
O76 C75 1.264 . S
O77 Mg70 1.986 . S
O77 C81 1.246 . S
O78 Mg73 2.032 . S
O78 C81 1.259 . S
O79 Mg70 2.114 . S
O79 C82 1.252 . S
O80 Mg70 2.251 . S
O80 Mg73 2.079 . S
O80 C82 1.273 . S
C81 O77 1.246 . S
C81 O78 1.259 . S
C82 O79 1.252 . S
C82 O80 1.273 . S
O83 Mg70 2.010 . S
O83 C75 1.249 . S
Mg84 O85 2.028 . S
Mg84 O91 1.986 . S
Mg84 O93 2.114 . S
Mg84 O94 2.251 . S
Mg84 O97 2.010 . S
O85 Mg84 2.028 . S
O85 C88 1.250 . S
O86 Mg87 2.028 . S
O86 C88 1.248 . S
Mg87 O86 2.028 . S
Mg87 O92 2.032 . S
Mg87 O94 2.079 . S
C88 O85 1.250 . S
C88 O86 1.248 . S
C89 O90 1.264 . S
C89 O97 1.249 . S
O90 C89 1.264 . S
O91 Mg84 1.986 . S
O91 C95 1.246 . S
O92 Mg87 2.032 . S
O92 C95 1.259 . S
O93 Mg84 2.114 . S
O93 C96 1.252 . S
O94 Mg84 2.251 . S
O94 Mg87 2.079 . S
O94 C96 1.273 . S
C95 O91 1.246 . S
C95 O92 1.259 . S
C96 O93 1.252 . S
C96 O94 1.273 . S
O97 Mg84 2.010 . S
O97 C89 1.249 . S
Mg98 O99 2.028 . S
Mg98 O105 1.986 . S
Mg98 O107 2.114 . S
Mg98 O108 2.251 . S
Mg98 O111 2.010 . S
O99 Mg98 2.028 . S
O99 C102 1.250 . S
O100 Mg101 2.028 . S
O100 C102 1.248 . S
Mg101 O100 2.028 . S
Mg101 O106 2.032 . S
Mg101 O108 2.079 . S
C102 O99 1.250 . S
C102 O100 1.248 . S
C103 O104 1.264 . S
C103 O111 1.249 . S
O104 C103 1.264 . S
O105 Mg98 1.986 . S
O105 C109 1.246 . S
O106 Mg101 2.032 . S
O106 C109 1.259 . S
O107 Mg98 2.114 . S
O107 C110 1.252 . S
O108 Mg98 2.251 . S
O108 Mg101 2.079 . S
O108 C110 1.273 . S
C109 O105 1.246 . S
C109 O106 1.259 . S
C110 O107 1.252 . S
C110 O108 1.273 . S
O111 Mg98 2.010 . S
O111 C103 1.249 . S
Mg112 O113 2.028 . S
Mg112 O119 1.986 . S
Mg112 O121 2.114 . S
Mg112 O122 2.251 . S
Mg112 O125 2.010 . S
O113 Mg112 2.028 . S
O113 C116 1.250 . S
O114 Mg115 2.028 . S
O114 C116 1.248 . S
Mg115 O114 2.028 . S
Mg115 O120 2.032 . S
Mg115 O122 2.079 . S
C116 O113 1.250 . S
C116 O114 1.248 . S
C117 O118 1.264 . S
C117 O125 1.249 . S
O118 C117 1.264 . S
O119 Mg112 1.986 . S
O119 C123 1.246 . S
O120 Mg115 2.032 . S
O120 C123 1.259 . S
O121 Mg112 2.114 . S
O121 C124 1.252 . S
O122 Mg112 2.251 . S
O122 Mg115 2.079 . S
O122 C124 1.273 . S
C123 O119 1.246 . S
C123 O120 1.259 . S
C124 O121 1.252 . S
C124 O122 1.273 . S
O125 Mg112 2.010 . S
O125 C117 1.249 . S
Mg126 O127 2.028 . S
Mg126 O133 1.986 . S
Mg126 O135 2.114 . S
Mg126 O136 2.251 . S
Mg126 O139 2.010 . S
O127 Mg126 2.028 . S
O127 C130 1.250 . S
O128 Mg129 2.028 . S
O128 C130 1.248 . S
Mg129 O128 2.028 . S
Mg129 O134 2.032 . S
Mg129 O136 2.079 . S
C130 O127 1.250 . S
C130 O128 1.248 . S
C131 O132 1.264 . S
C131 O139 1.249 . S
O132 C131 1.264 . S
O133 Mg126 1.986 . S
O133 C137 1.246 . S
O134 Mg129 2.032 . S
O134 C137 1.259 . S
O135 Mg126 2.114 . S
O135 C138 1.252 . S
O136 Mg126 2.251 . S
O136 Mg129 2.079 . S
O136 C138 1.273 . S
C137 O133 1.246 . S
C137 O134 1.259 . S
C138 O135 1.252 . S
C138 O136 1.273 . S
O139 Mg126 2.010 . S
O139 C131 1.249 . S
Mg140 O141 2.028 . S
Mg140 O147 1.986 . S
Mg140 O149 2.114 . S
Mg140 O150 2.251 . S
Mg140 O153 2.010 . S
O141 Mg140 2.028 . S
O141 C144 1.250 . S
O142 Mg143 2.028 . S
O142 C144 1.248 . S
Mg143 O142 2.028 . S
Mg143 O148 2.032 . S
Mg143 O150 2.079 . S
C144 O141 1.250 . S
C144 O142 1.248 . S
C145 O146 1.264 . S
C145 O153 1.249 . S
O146 C145 1.264 . S
O147 Mg140 1.986 . S
O147 C151 1.246 . S
O148 Mg143 2.032 . S
O148 C151 1.259 . S
O149 Mg140 2.114 . S
O149 C152 1.252 . S
O150 Mg140 2.251 . S
O150 Mg143 2.079 . S
O150 C152 1.273 . S
C151 O147 1.246 . S
C151 O148 1.259 . S
C152 O149 1.252 . S
C152 O150 1.273 . S
O153 Mg140 2.010 . S
O153 C145 1.249 . S
Mg154 O155 2.028 . S
Mg154 O161 1.986 . S
Mg154 O163 2.114 . S
Mg154 O164 2.251 . S
Mg154 O167 2.010 . S
O155 Mg154 2.028 . S
O155 C158 1.250 . S
O156 Mg157 2.028 . S
O156 C158 1.248 . S
Mg157 O156 2.028 . S
Mg157 O162 2.032 . S
Mg157 O164 2.079 . S
C158 O155 1.250 . S
C158 O156 1.248 . S
C159 O160 1.264 . S
C159 O167 1.249 . S
O160 C159 1.264 . S
O161 Mg154 1.986 . S
O161 C165 1.246 . S
O162 Mg157 2.032 . S
O162 C165 1.259 . S
O163 Mg154 2.114 . S
O163 C166 1.252 . S
O164 Mg154 2.251 . S
O164 Mg157 2.079 . S
O164 C166 1.273 . S
C165 O161 1.246 . S
C165 O162 1.259 . S
C166 O163 1.252 . S
C166 O164 1.273 . S
O167 Mg154 2.010 . S
O167 C159 1.249 . S
C168 C169 1.349 . S
C168 C170 1.327 . S
C168 H193 0.950 . S
C169 C168 1.349 . S
C169 C185 1.349 . S
C170 C168 1.327 . S
C170 C189 1.429 . S
C170 H194 0.950 . S
C171 C188 1.574 1_554 S
C171 C190 1.368 1_655 S
C171 H195 0.949 . S
H172 C176 0.949 . S
C173 C174 1.349 . S
C173 C175 1.327 . S
C173 H196 0.950 . S
C174 C173 1.349 . S
C174 C186 1.349 . S
C175 C173 1.327 . S
C175 C191 1.429 . S
C175 H197 0.950 . S
C176 H172 0.949 . S
C176 C184 1.574 1_556 S
C176 C192 1.368 1_455 S
H177 C185 0.950 . S
H178 C183 0.950 . S
H179 C184 0.949 . S
H180 C186 0.950 . S
H181 C187 0.950 . S
H182 C188 0.949 . S
C183 H178 0.950 . S
C183 C185 1.327 . S
C183 C189 1.429 . S
C184 C176 1.574 1_554 S
C184 H179 0.949 . S
C184 C190 1.368 . S
C185 C169 1.349 . S
C185 H177 0.950 . S
C185 C183 1.327 . S
C186 C174 1.349 . S
C186 H180 0.950 . S
C186 C187 1.327 . S
C187 H181 0.950 . S
C187 C186 1.327 . S
C187 C191 1.429 . S
C188 C171 1.574 1_556 S
C188 H182 0.949 . S
C188 C192 1.368 . S
C189 C170 1.429 . S
C189 C183 1.429 . S
C189 C190 1.523 . S
C190 C171 1.368 1_455 S
C190 C184 1.368 . S
C190 C189 1.523 . S
C191 C175 1.429 . S
C191 C187 1.429 . S
C191 C192 1.523 . S
C192 C176 1.368 1_655 S
C192 C188 1.368 . S
C192 C191 1.523 . S
H193 C168 0.950 . S
H194 C170 0.950 . S
H195 C171 0.949 . S
H196 C173 0.950 . S
H197 C175 0.950 . S
C198 C199 1.349 . S
C198 C200 1.327 . S
C198 H223 0.950 . S
C199 C198 1.349 . S
C199 C215 1.349 . S
C200 C198 1.327 . S
C200 C219 1.429 . S
C200 H224 0.950 . S
C201 C218 1.574 . S
C201 C220 1.368 1_545 S
C201 H225 0.949 . S
H202 C206 0.949 . S
C203 C204 1.349 . S
C203 C205 1.327 . S
C203 H226 0.950 . S
C204 C203 1.349 . S
C204 C216 1.349 . S
C205 C203 1.327 . S
C205 C221 1.429 . S
C205 H227 0.950 . S
C206 H202 0.949 . S
C206 C214 1.574 . S
C206 C222 1.368 1_565 S
H207 C215 0.950 . S
H208 C213 0.950 1_545 S
H209 C214 0.949 . S
H210 C216 0.950 . S
H211 C217 0.950 1_565 S
H212 C218 0.949 . S
C213 H208 0.950 1_565 S
C213 C215 1.327 . S
C213 C219 1.429 . S
C214 C206 1.574 . S
C214 H209 0.949 . S
C214 C220 1.368 . S
C215 C199 1.349 . S
C215 H207 0.950 . S
C215 C213 1.327 . S
C216 C204 1.349 . S
C216 H210 0.950 . S
C216 C217 1.327 . S
C217 H211 0.950 1_545 S
C217 C216 1.327 . S
C217 C221 1.429 . S
C218 C201 1.574 . S
C218 H212 0.949 . S
C218 C222 1.368 . S
C219 C200 1.429 . S
C219 C213 1.429 . S
C219 C220 1.523 . S
C220 C201 1.368 1_565 S
C220 C214 1.368 . S
C220 C219 1.523 . S
C221 C205 1.429 . S
C221 C217 1.429 . S
C221 C222 1.523 . S
C222 C206 1.368 1_545 S
C222 C218 1.368 . S
C222 C221 1.523 . S
H223 C198 0.950 . S
H224 C200 0.950 . S
H225 C201 0.949 . S
H226 C203 0.950 . S
H227 C205 0.950 . S
C228 C229 1.349 . S
C228 C230 1.327 . S
C228 H253 0.950 . S
C229 C228 1.349 . S
C229 C245 1.349 . S
C230 C228 1.327 . S
C230 C249 1.429 . S
C230 H254 0.950 . S
C231 C248 1.574 1_554 S
C231 C250 1.368 . S
C231 H255 0.949 . S
H232 C236 0.949 . S
C233 C234 1.349 . S
C233 C235 1.327 . S
C233 H256 0.950 . S
C234 C233 1.349 . S
C234 C246 1.349 . S
C235 C233 1.327 . S
C235 C251 1.429 . S
C235 H257 0.950 . S
C236 H232 0.949 . S
C236 C244 1.574 1_556 S
C236 C252 1.368 . S
H237 C245 0.950 . S
H238 C243 0.950 . S
H239 C244 0.949 . S
H240 C246 0.950 . S
H241 C247 0.950 . S
H242 C248 0.949 . S
C243 H238 0.950 . S
C243 C245 1.327 . S
C243 C249 1.429 . S
C244 C236 1.574 1_554 S
C244 H239 0.949 . S
C244 C250 1.368 . S
C245 C229 1.349 . S
C245 H237 0.950 . S
C245 C243 1.327 . S
C246 C234 1.349 . S
C246 H240 0.950 . S
C246 C247 1.327 . S
C247 H241 0.950 . S
C247 C246 1.327 . S
C247 C251 1.429 . S
C248 C231 1.574 1_556 S
C248 H242 0.949 . S
C248 C252 1.368 . S
C249 C230 1.429 . S
C249 C243 1.429 . S
C249 C250 1.523 . S
C250 C231 1.368 . S
C250 C244 1.368 . S
C250 C249 1.523 . S
C251 C235 1.429 . S
C251 C247 1.429 . S
C251 C252 1.523 . S
C252 C236 1.368 . S
C252 C248 1.368 . S
C252 C251 1.523 . S
H253 C228 0.950 . S
H254 C230 0.950 . S
H255 C231 0.949 . S
H256 C233 0.950 . S
H257 C235 0.950 . S
C258 C259 1.349 . S
C258 C260 1.327 . S
C258 H283 0.950 . S
C259 C258 1.349 . S
C259 C275 1.349 . S
C260 C258 1.327 . S
C260 C279 1.429 . S
C260 H284 0.950 . S
C261 C278 1.574 1_455 S
C261 C280 1.368 . S
C261 H285 0.949 . S
H262 C266 0.949 . S
C263 C264 1.349 . S
C263 C265 1.327 . S
C263 H286 0.950 . S
C264 C263 1.349 . S
C264 C276 1.349 . S
C265 C263 1.327 . S
C265 C281 1.429 . S
C265 H287 0.950 . S
C266 H262 0.949 . S
C266 C274 1.574 1_655 S
C266 C282 1.368 . S
H267 C275 0.950 . S
H268 C273 0.950 . S
H269 C274 0.949 . S
H270 C276 0.950 . S
H271 C277 0.950 . S
H272 C278 0.949 . S
C273 H268 0.950 . S
C273 C275 1.327 . S
C273 C279 1.429 . S
C274 C266 1.574 1_455 S
C274 H269 0.949 . S
C274 C280 1.368 . S
C275 C259 1.349 . S
C275 H267 0.950 . S
C275 C273 1.327 . S
C276 C264 1.349 . S
C276 H270 0.950 . S
C276 C277 1.327 . S
C277 H271 0.950 . S
C277 C276 1.327 . S
C277 C281 1.429 . S
C278 C261 1.574 1_655 S
C278 H272 0.949 . S
C278 C282 1.368 . S
C279 C260 1.429 . S
C279 C273 1.429 . S
C279 C280 1.523 . S
C280 C261 1.368 . S
C280 C274 1.368 . S
C280 C279 1.523 . S
C281 C265 1.429 . S
C281 C277 1.429 . S
C281 C282 1.523 . S
C282 C266 1.368 . S
C282 C278 1.368 . S
C282 C281 1.523 . S
H283 C258 0.950 . S
H284 C260 0.950 . S
H285 C261 0.949 . S
H286 C263 0.950 . S
H287 C265 0.950 . S
C288 C289 1.349 . S
C288 C290 1.327 . S
C288 H313 0.950 . S
C289 C288 1.349 . S
C289 C305 1.349 . S
C290 C288 1.327 . S
C290 C309 1.429 . S
C290 H314 0.950 . S
C291 C308 1.574 1_556 S
C291 C310 1.368 1_565 S
C291 H315 0.949 . S
H292 C296 0.949 . S
C293 C294 1.349 . S
C293 C295 1.327 . S
C293 H316 0.950 . S
C294 C293 1.349 . S
C294 C306 1.349 . S
C295 C293 1.327 . S
C295 C311 1.429 . S
C295 H317 0.950 . S
C296 H292 0.949 . S
C296 C304 1.574 1_554 S
C296 C312 1.368 1_545 S
H297 C305 0.950 . S
H298 C303 0.950 . S
H299 C304 0.949 . S
H300 C306 0.950 . S
H301 C307 0.950 . S
H302 C308 0.949 . S
C303 H298 0.950 . S
C303 C305 1.327 . S
C303 C309 1.429 . S
C304 C296 1.574 1_556 S
C304 H299 0.949 . S
C304 C310 1.368 . S
C305 C289 1.349 . S
C305 H297 0.950 . S
C305 C303 1.327 . S
C306 C294 1.349 . S
C306 H300 0.950 . S
C306 C307 1.327 . S
C307 H301 0.950 . S
C307 C306 1.327 . S
C307 C311 1.429 . S
C308 C291 1.574 1_554 S
C308 H302 0.949 . S
C308 C312 1.368 . S
C309 C290 1.429 . S
C309 C303 1.429 . S
C309 C310 1.523 . S
C310 C291 1.368 1_545 S
C310 C304 1.368 . S
C310 C309 1.523 . S
C311 C295 1.429 . S
C311 C307 1.429 . S
C311 C312 1.523 . S
C312 C296 1.368 1_565 S
C312 C308 1.368 . S
C312 C311 1.523 . S
H313 C288 0.950 . S
H314 C290 0.950 . S
H315 C291 0.949 . S
H316 C293 0.950 . S
H317 C295 0.950 . S
C318 C319 1.349 . S
C318 C320 1.327 . S
C318 H343 0.950 . S
C319 C318 1.349 . S
C319 C335 1.349 . S
C320 C318 1.327 . S
C320 C339 1.429 . S
C320 H344 0.950 . S
C321 C338 1.574 . S
C321 C340 1.368 . S
C321 H345 0.949 . S
H322 C326 0.949 . S
C323 C324 1.349 . S
C323 C325 1.327 . S
C323 H346 0.950 . S
C324 C323 1.349 . S
C324 C336 1.349 . S
C325 C323 1.327 . S
C325 C341 1.429 . S
C325 H347 0.950 . S
C326 H322 0.949 . S
C326 C334 1.574 . S
C326 C342 1.368 . S
H327 C335 0.950 . S
H328 C333 0.950 . S
H329 C334 0.949 . S
H330 C336 0.950 . S
H331 C337 0.950 . S
H332 C338 0.949 . S
C333 H328 0.950 . S
C333 C335 1.327 . S
C333 C339 1.429 . S
C334 C326 1.574 . S
C334 H329 0.949 . S
C334 C340 1.368 . S
C335 C319 1.349 . S
C335 H327 0.950 . S
C335 C333 1.327 . S
C336 C324 1.349 . S
C336 H330 0.950 . S
C336 C337 1.327 . S
C337 H331 0.950 . S
C337 C336 1.327 . S
C337 C341 1.429 . S
C338 C321 1.574 . S
C338 H332 0.949 . S
C338 C342 1.368 . S
C339 C320 1.429 . S
C339 C333 1.429 . S
C339 C340 1.523 . S
C340 C321 1.368 . S
C340 C334 1.368 . S
C340 C339 1.523 . S
C341 C325 1.429 . S
C341 C337 1.429 . S
C341 C342 1.523 . S
C342 C326 1.368 . S
C342 C338 1.368 . S
C342 C341 1.523 . S
H343 C318 0.950 . S
H344 C320 0.950 . S
H345 C321 0.949 . S
H346 C323 0.950 . S
H347 C325 0.950 . S
C348 C349 1.349 . S
C348 C350 1.327 . S
C348 H373 0.950 . S
C349 C348 1.349 . S
C349 C365 1.349 . S
C350 C348 1.327 . S
C350 C369 1.429 . S
C350 H374 0.950 . S
C351 C368 1.574 1_656 S
C351 C370 1.368 . S
C351 H375 0.949 . S
H352 C356 0.949 . S
C353 C354 1.349 . S
C353 C355 1.327 . S
C353 H376 0.950 . S
C354 C353 1.349 . S
C354 C366 1.349 . S
C355 C353 1.327 . S
C355 C371 1.429 . S
C355 H377 0.950 . S
C356 H352 0.949 . S
C356 C364 1.574 1_454 S
C356 C372 1.368 . S
H357 C365 0.950 . S
H358 C363 0.950 . S
H359 C364 0.949 . S
H360 C366 0.950 . S
H361 C367 0.950 . S
H362 C368 0.949 . S
C363 H358 0.950 . S
C363 C365 1.327 . S
C363 C369 1.429 . S
C364 C356 1.574 1_656 S
C364 H359 0.949 . S
C364 C370 1.368 . S
C365 C349 1.349 . S
C365 H357 0.950 . S
C365 C363 1.327 . S
C366 C354 1.349 . S
C366 H360 0.950 . S
C366 C367 1.327 . S
C367 H361 0.950 . S
C367 C366 1.327 . S
C367 C371 1.429 . S
C368 C351 1.574 1_454 S
C368 H362 0.949 . S
C368 C372 1.368 . S
C369 C350 1.429 . S
C369 C363 1.429 . S
C369 C370 1.523 . S
C370 C351 1.368 . S
C370 C364 1.368 . S
C370 C369 1.523 . S
C371 C355 1.429 . S
C371 C367 1.429 . S
C371 C372 1.523 . S
C372 C356 1.368 . S
C372 C368 1.368 . S
C372 C371 1.523 . S
H373 C348 0.950 . S
H374 C350 0.950 . S
H375 C351 0.949 . S
H376 C353 0.950 . S
H377 C355 0.950 . S
C378 C379 1.349 . S
C378 C380 1.327 . S
C378 H403 0.950 . S
C379 C378 1.349 . S
C379 C395 1.349 . S
C380 C378 1.327 . S
C380 C399 1.429 . S
C380 H404 0.950 . S
C381 C398 1.574 . S
C381 C400 1.368 1_545 S
C381 H405 0.949 . S
H382 C386 0.949 . S
C383 C384 1.349 . S
C383 C385 1.327 . S
C383 H406 0.950 . S
C384 C383 1.349 . S
C384 C396 1.349 . S
C385 C383 1.327 . S
C385 C401 1.429 . S
C385 H407 0.950 . S
C386 H382 0.949 . S
C386 C394 1.574 . S
C386 C402 1.368 1_565 S
H387 C395 0.950 . S
H388 C393 0.950 . S
H389 C394 0.949 . S
H390 C396 0.950 . S
H391 C397 0.950 . S
H392 C398 0.949 . S
C393 H388 0.950 . S
C393 C395 1.327 . S
C393 C399 1.429 . S
C394 C386 1.574 . S
C394 H389 0.949 . S
C394 C400 1.368 . S
C395 C379 1.349 . S
C395 H387 0.950 . S
C395 C393 1.327 . S
C396 C384 1.349 . S
C396 H390 0.950 . S
C396 C397 1.327 . S
C397 H391 0.950 . S
C397 C396 1.327 . S
C397 C401 1.429 . S
C398 C381 1.574 . S
C398 H392 0.949 . S
C398 C402 1.368 . S
C399 C380 1.429 . S
C399 C393 1.429 . S
C399 C400 1.523 . S
C400 C381 1.368 1_565 S
C400 C394 1.368 . S
C400 C399 1.523 . S
C401 C385 1.429 . S
C401 C397 1.429 . S
C401 C402 1.523 . S
C402 C386 1.368 1_545 S
C402 C398 1.368 . S
C402 C401 1.523 . S
H403 C378 0.950 . S
H404 C380 0.950 . S
H405 C381 0.949 . S
H406 C383 0.950 . S
H407 C385 0.950 . S
C408 C409 1.349 . S
C408 C410 1.327 . S
C408 H433 0.950 . S
C409 C408 1.349 . S
C409 C425 1.349 . S
C410 C408 1.327 . S
C410 C429 1.429 . S
C410 H434 0.950 . S
C411 C428 1.574 1_556 S
C411 C430 1.368 . S
C411 H435 0.949 . S
H412 C416 0.949 . S
C413 C414 1.349 . S
C413 C415 1.327 . S
C413 H436 0.950 . S
C414 C413 1.349 . S
C414 C426 1.349 . S
C415 C413 1.327 . S
C415 C431 1.429 . S
C415 H437 0.950 . S
C416 H412 0.949 . S
C416 C424 1.574 1_554 S
C416 C432 1.368 . S
H417 C425 0.950 . S
H418 C423 0.950 . S
H419 C424 0.949 . S
H420 C426 0.950 . S
H421 C427 0.950 . S
H422 C428 0.949 . S
C423 H418 0.950 . S
C423 C425 1.327 . S
C423 C429 1.429 . S
C424 C416 1.574 1_556 S
C424 H419 0.949 . S
C424 C430 1.368 . S
C425 C409 1.349 . S
C425 H417 0.950 . S
C425 C423 1.327 . S
C426 C414 1.349 . S
C426 H420 0.950 . S
C426 C427 1.327 . S
C427 H421 0.950 . S
C427 C426 1.327 . S
C427 C431 1.429 . S
C428 C411 1.574 1_554 S
C428 H422 0.949 . S
C428 C432 1.368 . S
C429 C410 1.429 . S
C429 C423 1.429 . S
C429 C430 1.523 . S
C430 C411 1.368 . S
C430 C424 1.368 . S
C430 C429 1.523 . S
C431 C415 1.429 . S
C431 C427 1.429 . S
C431 C432 1.523 . S
C432 C416 1.368 . S
C432 C428 1.368 . S
C432 C431 1.523 . S
H433 C408 0.950 . S
H434 C410 0.950 . S
H435 C411 0.949 . S
H436 C413 0.950 . S
H437 C415 0.950 . S
C438 C439 1.349 . S
C438 C440 1.327 . S
C438 H463 0.950 . S
C439 C438 1.349 . S
C439 C455 1.349 . S
C440 C438 1.327 . S
C440 C459 1.429 . S
C440 H464 0.950 . S
C441 C458 1.574 . S
C441 C460 1.368 . S
C441 H465 0.949 . S
H442 C446 0.949 . S
C443 C444 1.349 . S
C443 C445 1.327 . S
C443 H466 0.950 . S
C444 C443 1.349 . S
C444 C456 1.349 . S
C445 C443 1.327 . S
C445 C461 1.429 . S
C445 H467 0.950 . S
C446 H442 0.949 . S
C446 C454 1.574 . S
C446 C462 1.368 . S
H447 C455 0.950 . S
H448 C453 0.950 . S
H449 C454 0.949 . S
H450 C456 0.950 . S
H451 C457 0.950 . S
H452 C458 0.949 . S
C453 H448 0.950 . S
C453 C455 1.327 . S
C453 C459 1.429 . S
C454 C446 1.574 . S
C454 H449 0.949 . S
C454 C460 1.368 1_455 S
C455 C439 1.349 . S
C455 H447 0.950 . S
C455 C453 1.327 . S
C456 C444 1.349 . S
C456 H450 0.950 . S
C456 C457 1.327 . S
C457 H451 0.950 . S
C457 C456 1.327 . S
C457 C461 1.429 . S
C458 C441 1.574 . S
C458 H452 0.949 . S
C458 C462 1.368 1_655 S
C459 C440 1.429 . S
C459 C453 1.429 . S
C459 C460 1.523 . S
C460 C441 1.368 . S
C460 C454 1.368 1_655 S
C460 C459 1.523 . S
C461 C445 1.429 . S
C461 C457 1.429 . S
C461 C462 1.523 . S
C462 C446 1.368 . S
C462 C458 1.368 1_455 S
C462 C461 1.523 . S
H463 C438 0.950 . S
H464 C440 0.950 . S
H465 C441 0.949 . S
H466 C443 0.950 . S
H467 C445 0.950 . S
C468 C469 1.349 . S
C468 C470 1.327 . S
C468 H493 0.950 . S
C469 C468 1.349 . S
C469 C485 1.349 . S
C470 C468 1.327 . S
C470 C489 1.429 . S
C470 H494 0.950 . S
C471 C488 1.574 1_556 S
C471 C490 1.368 . S
C471 H495 0.949 . S
H472 C476 0.949 . S
C473 C474 1.349 . S
C473 C475 1.327 . S
C473 H496 0.950 . S
C474 C473 1.349 . S
C474 C486 1.349 . S
C475 C473 1.327 . S
C475 C491 1.429 . S
C475 H497 0.950 . S
C476 H472 0.949 . S
C476 C484 1.574 1_554 S
C476 C492 1.368 . S
H477 C485 0.950 . S
H478 C483 0.950 . S
H479 C484 0.949 . S
H480 C486 0.950 . S
H481 C487 0.950 . S
H482 C488 0.949 . S
C483 H478 0.950 . S
C483 C485 1.327 . S
C483 C489 1.429 . S
C484 C476 1.574 1_556 S
C484 H479 0.949 . S
C484 C490 1.368 1_565 S
C485 C469 1.349 . S
C485 H477 0.950 . S
C485 C483 1.327 . S
C486 C474 1.349 . S
C486 H480 0.950 . S
C486 C487 1.327 . S
C487 H481 0.950 . S
C487 C486 1.327 . S
C487 C491 1.429 . S
C488 C471 1.574 1_554 S
C488 H482 0.949 . S
C488 C492 1.368 1_545 S
C489 C470 1.429 . S
C489 C483 1.429 . S
C489 C490 1.523 . S
C490 C471 1.368 . S
C490 C484 1.368 1_545 S
C490 C489 1.523 . S
C491 C475 1.429 . S
C491 C487 1.429 . S
C491 C492 1.523 . S
C492 C476 1.368 . S
C492 C488 1.368 1_565 S
C492 C491 1.523 . S
H493 C468 0.950 . S
H494 C470 0.950 . S
H495 C471 0.949 . S
H496 C473 0.950 . S
H497 C475 0.950 . S
C498 C499 1.349 . S
C498 C500 1.327 . S
C498 H523 0.950 . S
C499 C498 1.349 . S
C499 C515 1.349 . S
C500 C498 1.327 . S
C500 C519 1.429 . S
C500 H524 0.950 . S
C501 C518 1.574 . S
C501 C520 1.368 . S
C501 H525 0.949 . S
H502 C506 0.949 . S
C503 C504 1.349 . S
C503 C505 1.327 . S
C503 H526 0.950 . S
C504 C503 1.349 . S
C504 C516 1.349 . S
C505 C503 1.327 . S
C505 C521 1.429 . S
C505 H527 0.950 . S
C506 H502 0.949 . S
C506 C514 1.574 . S
C506 C522 1.368 . S
H507 C515 0.950 . S
H508 C513 0.950 . S
H509 C514 0.949 . S
H510 C516 0.950 . S
H511 C517 0.950 . S
H512 C518 0.949 . S
C513 H508 0.950 . S
C513 C515 1.327 . S
C513 C519 1.429 . S
C514 C506 1.574 . S
C514 H509 0.949 . S
C514 C520 1.368 . S
C515 C499 1.349 . S
C515 H507 0.950 . S
C515 C513 1.327 . S
C516 C504 1.349 . S
C516 H510 0.950 . S
C516 C517 1.327 . S
C517 H511 0.950 . S
C517 C516 1.327 . S
C517 C521 1.429 . S
C518 C501 1.574 . S
C518 H512 0.949 . S
C518 C522 1.368 . S
C519 C500 1.429 . S
C519 C513 1.429 . S
C519 C520 1.523 . S
C520 C501 1.368 . S
C520 C514 1.368 . S
C520 C519 1.523 . S
C521 C505 1.429 . S
C521 C517 1.429 . S
C521 C522 1.523 . S
C522 C506 1.368 . S
C522 C518 1.368 . S
C522 C521 1.523 . S
H523 C498 0.950 . S
H524 C500 0.950 . S
H525 C501 0.949 . S
H526 C503 0.950 . S
H527 C505 0.950 . S
C528 C529 1.349 . S
C528 C530 1.327 . S
C528 H553 0.950 . S
C529 C528 1.349 . S
C529 C545 1.349 . S
C530 C528 1.327 . S
C530 C549 1.429 . S
C530 H554 0.950 . S
C531 C548 1.574 . S
C531 C550 1.368 . S
C531 H555 0.949 . S
H532 C536 0.949 . S
C533 C534 1.349 . S
C533 C535 1.327 . S
C533 H556 0.950 . S
C534 C533 1.349 . S
C534 C546 1.349 . S
C535 C533 1.327 . S
C535 C551 1.429 . S
C535 H557 0.950 . S
C536 H532 0.949 . S
C536 C544 1.574 . S
C536 C552 1.368 . S
H537 C545 0.950 . S
H538 C543 0.950 . S
H539 C544 0.949 . S
H540 C546 0.950 . S
H541 C547 0.950 . S
H542 C548 0.949 . S
C543 H538 0.950 . S
C543 C545 1.327 . S
C543 C549 1.429 . S
C544 C536 1.574 . S
C544 H539 0.949 . S
C544 C550 1.368 . S
C545 C529 1.349 . S
C545 H537 0.950 . S
C545 C543 1.327 . S
C546 C534 1.349 . S
C546 H540 0.950 . S
C546 C547 1.327 . S
C547 H541 0.950 . S
C547 C546 1.327 . S
C547 C551 1.429 . S
C548 C531 1.574 . S
C548 H542 0.949 . S
C548 C552 1.368 . S
C549 C530 1.429 . S
C549 C543 1.429 . S
C549 C550 1.523 . S
C550 C531 1.368 . S
C550 C544 1.368 . S
C550 C549 1.523 . S
C551 C535 1.429 . S
C551 C547 1.429 . S
C551 C552 1.523 . S
C552 C536 1.368 . S
C552 C548 1.368 . S
C552 C551 1.523 . S
H553 C528 0.950 . S
H554 C530 0.950 . S
H555 C531 0.949 . S
H556 C533 0.950 . S
H557 C535 0.950 . S
C558 C559 1.349 . S
C558 C560 1.327 . S
C558 H583 0.950 . S
C559 C558 1.349 . S
C559 C575 1.349 . S
C560 C558 1.327 . S
C560 C579 1.429 . S
C560 H584 0.950 . S
C561 C578 1.574 . S
C561 C580 1.368 . S
C561 H585 0.949 . S
H562 C566 0.949 . S
C563 C564 1.349 . S
C563 C565 1.327 . S
C563 H586 0.950 . S
C564 C563 1.349 . S
C564 C576 1.349 . S
C565 C563 1.327 . S
C565 C581 1.429 . S
C565 H587 0.950 . S
C566 H562 0.949 . S
C566 C574 1.574 . S
C566 C582 1.368 . S
H567 C575 0.950 . S
H568 C573 0.950 . S
H569 C574 0.949 . S
H570 C576 0.950 . S
H571 C577 0.950 . S
H572 C578 0.949 . S
C573 H568 0.950 . S
C573 C575 1.327 . S
C573 C579 1.429 . S
C574 C566 1.574 . S
C574 H569 0.949 . S
C574 C580 1.368 . S
C575 C559 1.349 . S
C575 H567 0.950 . S
C575 C573 1.327 . S
C576 C564 1.349 . S
C576 H570 0.950 . S
C576 C577 1.327 . S
C577 H571 0.950 . S
C577 C576 1.327 . S
C577 C581 1.429 . S
C578 C561 1.574 . S
C578 H572 0.949 . S
C578 C582 1.368 . S
C579 C560 1.429 . S
C579 C573 1.429 . S
C579 C580 1.523 . S
C580 C561 1.368 . S
C580 C574 1.368 . S
C580 C579 1.523 . S
C581 C565 1.429 . S
C581 C577 1.429 . S
C581 C582 1.523 . S
C582 C566 1.368 . S
C582 C578 1.368 . S
C582 C581 1.523 . S
H583 C558 0.950 . S
H584 C560 0.950 . S
H585 C561 0.949 . S
H586 C563 0.950 . S
H587 C565 0.950 . S
C588 C589 1.349 . S
C588 C590 1.327 . S
C588 H613 0.950 . S
C589 C588 1.349 . S
C589 C605 1.349 . S
C590 C588 1.327 . S
C590 C609 1.429 . S
C590 H614 0.950 . S
C591 C608 1.574 . S
C591 C610 1.368 . S
C591 H615 0.949 . S
H592 C596 0.949 . S
C593 C594 1.349 . S
C593 C595 1.327 . S
C593 H616 0.950 . S
C594 C593 1.349 . S
C594 C606 1.349 . S
C595 C593 1.327 . S
C595 C611 1.429 . S
C595 H617 0.950 . S
C596 H592 0.949 . S
C596 C604 1.574 . S
C596 C612 1.368 . S
H597 C605 0.950 . S
H598 C603 0.950 . S
H599 C604 0.949 . S
H600 C606 0.950 . S
H601 C607 0.950 . S
H602 C608 0.949 . S
C603 H598 0.950 . S
C603 C605 1.327 . S
C603 C609 1.429 . S
C604 C596 1.574 . S
C604 H599 0.949 . S
C604 C610 1.368 . S
C605 C589 1.349 . S
C605 H597 0.950 . S
C605 C603 1.327 . S
C606 C594 1.349 . S
C606 H600 0.950 . S
C606 C607 1.327 . S
C607 H601 0.950 . S
C607 C606 1.327 . S
C607 C611 1.429 . S
C608 C591 1.574 . S
C608 H602 0.949 . S
C608 C612 1.368 . S
C609 C590 1.429 . S
C609 C603 1.429 . S
C609 C610 1.523 . S
C610 C591 1.368 . S
C610 C604 1.368 . S
C610 C609 1.523 . S
C611 C595 1.429 . S
C611 C607 1.429 . S
C611 C612 1.523 . S
C612 C596 1.368 . S
C612 C608 1.368 . S
C612 C611 1.523 . S
H613 C588 0.950 . S
H614 C590 0.950 . S
H615 C591 0.949 . S
H616 C593 0.950 . S
H617 C595 0.950 . S
C618 C619 1.349 . S
C618 C620 1.327 . S
C618 H643 0.950 . S
C619 C618 1.349 . S
C619 C635 1.349 . S
C620 C618 1.327 . S
C620 C639 1.429 . S
C620 H644 0.950 . S
C621 C638 1.574 . S
C621 C640 1.368 . S
C621 H645 0.949 . S
H622 C626 0.949 . S
C623 C624 1.349 . S
C623 C625 1.327 . S
C623 H646 0.950 . S
C624 C623 1.349 . S
C624 C636 1.349 . S
C625 C623 1.327 . S
C625 C641 1.429 . S
C625 H647 0.950 . S
C626 H622 0.949 . S
C626 C634 1.574 . S
C626 C642 1.368 . S
H627 C635 0.950 . S
H628 C633 0.950 . S
H629 C634 0.949 . S
H630 C636 0.950 . S
H631 C637 0.950 . S
H632 C638 0.949 . S
C633 H628 0.950 . S
C633 C635 1.327 . S
C633 C639 1.429 . S
C634 C626 1.574 . S
C634 H629 0.949 . S
C634 C640 1.368 . S
C635 C619 1.349 . S
C635 H627 0.950 . S
C635 C633 1.327 . S
C636 C624 1.349 . S
C636 H630 0.950 . S
C636 C637 1.327 . S
C637 H631 0.950 . S
C637 C636 1.327 . S
C637 C641 1.429 . S
C638 C621 1.574 . S
C638 H632 0.949 . S
C638 C642 1.368 . S
C639 C620 1.429 . S
C639 C633 1.429 . S
C639 C640 1.523 . S
C640 C621 1.368 . S
C640 C634 1.368 . S
C640 C639 1.523 . S
C641 C625 1.429 . S
C641 C637 1.429 . S
C641 C642 1.523 . S
C642 C626 1.368 . S
C642 C638 1.368 . S
C642 C641 1.523 . S
H643 C618 0.950 . S
H644 C620 0.950 . S
H645 C621 0.949 . S
H646 C623 0.950 . S
H647 C625 0.950 . S
C648 C649 1.349 . S
C648 C650 1.327 . S
C648 H673 0.950 . S
C649 C648 1.349 . S
C649 C665 1.349 . S
C650 C648 1.327 . S
C650 C669 1.429 . S
C650 H674 0.950 . S
C651 C668 1.574 . S
C651 C670 1.368 . S
C651 H675 0.949 . S
H652 C656 0.949 . S
C653 C654 1.349 . S
C653 C655 1.327 . S
C653 H676 0.950 . S
C654 C653 1.349 . S
C654 C666 1.349 . S
C655 C653 1.327 . S
C655 C671 1.429 . S
C655 H677 0.950 . S
C656 H652 0.949 . S
C656 C664 1.574 . S
C656 C672 1.368 . S
H657 C665 0.950 . S
H658 C663 0.950 . S
H659 C664 0.949 . S
H660 C666 0.950 . S
H661 C667 0.950 . S
H662 C668 0.949 . S
C663 H658 0.950 . S
C663 C665 1.327 . S
C663 C669 1.429 . S
C664 C656 1.574 . S
C664 H659 0.949 . S
C664 C670 1.368 . S
C665 C649 1.349 . S
C665 H657 0.950 . S
C665 C663 1.327 . S
C666 C654 1.349 . S
C666 H660 0.950 . S
C666 C667 1.327 . S
C667 H661 0.950 . S
C667 C666 1.327 . S
C667 C671 1.429 . S
C668 C651 1.574 . S
C668 H662 0.949 . S
C668 C672 1.368 . S
C669 C650 1.429 . S
C669 C663 1.429 . S
C669 C670 1.523 . S
C670 C651 1.368 . S
C670 C664 1.368 . S
C670 C669 1.523 . S
C671 C655 1.429 . S
C671 C667 1.429 . S
C671 C672 1.523 . S
C672 C656 1.368 . S
C672 C668 1.368 . S
C672 C671 1.523 . S
H673 C648 0.950 . S
H674 C650 0.950 . S
H675 C651 0.949 . S
H676 C653 0.950 . S
H677 C655 0.950 . S
C678 C679 1.349 . S
C678 C680 1.327 . S
C678 H703 0.950 . S
C679 C678 1.349 . S
C679 C695 1.349 . S
C680 C678 1.327 . S
C680 C699 1.429 . S
C680 H704 0.950 . S
C681 C698 1.574 . S
C681 C700 1.368 . S
C681 H705 0.949 . S
H682 C686 0.949 . S
C683 C684 1.349 . S
C683 C685 1.327 . S
C683 H706 0.950 . S
C684 C683 1.349 . S
C684 C696 1.349 . S
C685 C683 1.327 . S
C685 C701 1.429 . S
C685 H707 0.950 . S
C686 H682 0.949 . S
C686 C694 1.574 . S
C686 C702 1.368 . S
H687 C695 0.950 . S
H688 C693 0.950 . S
H689 C694 0.949 . S
H690 C696 0.950 . S
H691 C697 0.950 . S
H692 C698 0.949 . S
C693 H688 0.950 . S
C693 C695 1.327 . S
C693 C699 1.429 . S
C694 C686 1.574 . S
C694 H689 0.949 . S
C694 C700 1.368 . S
C695 C679 1.349 . S
C695 H687 0.950 . S
C695 C693 1.327 . S
C696 C684 1.349 . S
C696 H690 0.950 . S
C696 C697 1.327 . S
C697 H691 0.950 . S
C697 C696 1.327 . S
C697 C701 1.429 . S
C698 C681 1.574 . S
C698 H692 0.949 . S
C698 C702 1.368 . S
C699 C680 1.429 . S
C699 C693 1.429 . S
C699 C700 1.523 . S
C700 C681 1.368 . S
C700 C694 1.368 . S
C700 C699 1.523 . S
C701 C685 1.429 . S
C701 C697 1.429 . S
C701 C702 1.523 . S
C702 C686 1.368 . S
C702 C698 1.368 . S
C702 C701 1.523 . S
H703 C678 0.950 . S
H704 C680 0.950 . S
H705 C681 0.949 . S
H706 C683 0.950 . S
H707 C685 0.950 . S
C708 C709 1.349 . S
C708 C710 1.327 . S
C708 H733 0.950 . S
C709 C708 1.349 . S
C709 C725 1.349 . S
C710 C708 1.327 . S
C710 C729 1.429 . S
C710 H734 0.950 . S
C711 C728 1.574 . S
C711 C730 1.368 . S
C711 H735 0.949 . S
H712 C716 0.949 . S
C713 C714 1.349 . S
C713 C715 1.327 . S
C713 H736 0.950 . S
C714 C713 1.349 . S
C714 C726 1.349 . S
C715 C713 1.327 . S
C715 C731 1.429 . S
C715 H737 0.950 . S
C716 H712 0.949 . S
C716 C724 1.574 . S
C716 C732 1.368 . S
H717 C725 0.950 . S
H718 C723 0.950 . S
H719 C724 0.949 . S
H720 C726 0.950 . S
H721 C727 0.950 . S
H722 C728 0.949 . S
C723 H718 0.950 . S
C723 C725 1.327 . S
C723 C729 1.429 . S
C724 C716 1.574 . S
C724 H719 0.949 . S
C724 C730 1.368 . S
C725 C709 1.349 . S
C725 H717 0.950 . S
C725 C723 1.327 . S
C726 C714 1.349 . S
C726 H720 0.950 . S
C726 C727 1.327 . S
C727 H721 0.950 . S
C727 C726 1.327 . S
C727 C731 1.429 . S
C728 C711 1.574 . S
C728 H722 0.949 . S
C728 C732 1.368 . S
C729 C710 1.429 . S
C729 C723 1.429 . S
C729 C730 1.523 . S
C730 C711 1.368 . S
C730 C724 1.368 . S
C730 C729 1.523 . S
C731 C715 1.429 . S
C731 C727 1.429 . S
C731 C732 1.523 . S
C732 C716 1.368 . S
C732 C728 1.368 . S
C732 C731 1.523 . S
H733 C708 0.950 . S
H734 C710 0.950 . S
H735 C711 0.949 . S
H736 C713 0.950 . S
H737 C715 0.950 . S
C738 C739 1.349 . S
C738 C740 1.327 . S
C738 H763 0.950 . S
C739 C738 1.349 . S
C739 C755 1.349 . S
C740 C738 1.327 . S
C740 C759 1.429 . S
C740 H764 0.950 . S
C741 C758 1.574 . S
C741 C760 1.368 . S
C741 H765 0.949 . S
H742 C746 0.949 . S
C743 C744 1.349 . S
C743 C745 1.327 . S
C743 H766 0.950 . S
C744 C743 1.349 . S
C744 C756 1.349 . S
C745 C743 1.327 . S
C745 C761 1.429 . S
C745 H767 0.950 . S
C746 H742 0.949 . S
C746 C754 1.574 . S
C746 C762 1.368 . S
H747 C755 0.950 . S
H748 C753 0.950 . S
H749 C754 0.949 . S
H750 C756 0.950 . S
H751 C757 0.950 . S
H752 C758 0.949 . S
C753 H748 0.950 . S
C753 C755 1.327 . S
C753 C759 1.429 . S
C754 C746 1.574 . S
C754 H749 0.949 . S
C754 C760 1.368 . S
C755 C739 1.349 . S
C755 H747 0.950 . S
C755 C753 1.327 . S
C756 C744 1.349 . S
C756 H750 0.950 . S
C756 C757 1.327 . S
C757 H751 0.950 . S
C757 C756 1.327 . S
C757 C761 1.429 . S
C758 C741 1.574 . S
C758 H752 0.949 . S
C758 C762 1.368 . S
C759 C740 1.429 . S
C759 C753 1.429 . S
C759 C760 1.523 . S
C760 C741 1.368 . S
C760 C754 1.368 . S
C760 C759 1.523 . S
C761 C745 1.429 . S
C761 C757 1.429 . S
C761 C762 1.523 . S
C762 C746 1.368 . S
C762 C758 1.368 . S
C762 C761 1.523 . S
H763 C738 0.950 . S
H764 C740 0.950 . S
H765 C741 0.949 . S
H766 C743 0.950 . S
H767 C745 0.950 . S
C768 C769 1.349 . S
C768 C770 1.327 . S
C768 H793 0.950 . S
C769 C768 1.349 . S
C769 C785 1.349 . S
C770 C768 1.327 . S
C770 C789 1.429 . S
C770 H794 0.950 . S
C771 C788 1.574 . S
C771 C790 1.368 . S
C771 H795 0.949 . S
H772 C776 0.949 . S
C773 C774 1.349 . S
C773 C775 1.327 . S
C773 H796 0.950 . S
C774 C773 1.349 . S
C774 C786 1.349 . S
C775 C773 1.327 . S
C775 C791 1.429 . S
C775 H797 0.950 . S
C776 H772 0.949 . S
C776 C784 1.574 . S
C776 C792 1.368 . S
H777 C785 0.950 . S
H778 C783 0.950 . S
H779 C784 0.949 . S
H780 C786 0.950 . S
H781 C787 0.950 . S
H782 C788 0.949 . S
C783 H778 0.950 . S
C783 C785 1.327 . S
C783 C789 1.429 . S
C784 C776 1.574 . S
C784 H779 0.949 . S
C784 C790 1.368 . S
C785 C769 1.349 . S
C785 H777 0.950 . S
C785 C783 1.327 . S
C786 C774 1.349 . S
C786 H780 0.950 . S
C786 C787 1.327 . S
C787 H781 0.950 . S
C787 C786 1.327 . S
C787 C791 1.429 . S
C788 C771 1.574 . S
C788 H782 0.949 . S
C788 C792 1.368 . S
C789 C770 1.429 . S
C789 C783 1.429 . S
C789 C790 1.523 . S
C790 C771 1.368 . S
C790 C784 1.368 . S
C790 C789 1.523 . S
C791 C775 1.429 . S
C791 C787 1.429 . S
C791 C792 1.523 . S
C792 C776 1.368 . S
C792 C788 1.368 . S
C792 C791 1.523 . S
H793 C768 0.950 . S
H794 C770 0.950 . S
H795 C771 0.949 . S
H796 C773 0.950 . S
H797 C775 0.950 . S
C798 C799 1.349 . S
C798 C800 1.327 . S
C798 H823 0.950 . S
C799 C798 1.349 . S
C799 C815 1.349 . S
C800 C798 1.327 . S
C800 C819 1.429 . S
C800 H824 0.950 . S
C801 C818 1.574 . S
C801 C820 1.368 . S
C801 H825 0.949 . S
H802 C806 0.949 . S
C803 C804 1.349 . S
C803 C805 1.327 . S
C803 H826 0.950 . S
C804 C803 1.349 . S
C804 C816 1.349 . S
C805 C803 1.327 . S
C805 C821 1.429 . S
C805 H827 0.950 . S
C806 H802 0.949 . S
C806 C814 1.574 . S
C806 C822 1.368 . S
H807 C815 0.950 . S
H808 C813 0.950 . S
H809 C814 0.949 . S
H810 C816 0.950 . S
H811 C817 0.950 . S
H812 C818 0.949 . S
C813 H808 0.950 . S
C813 C815 1.327 . S
C813 C819 1.429 . S
C814 C806 1.574 . S
C814 H809 0.949 . S
C814 C820 1.368 . S
C815 C799 1.349 . S
C815 H807 0.950 . S
C815 C813 1.327 . S
C816 C804 1.349 . S
C816 H810 0.950 . S
C816 C817 1.327 . S
C817 H811 0.950 . S
C817 C816 1.327 . S
C817 C821 1.429 . S
C818 C801 1.574 . S
C818 H812 0.949 . S
C818 C822 1.368 . S
C819 C800 1.429 . S
C819 C813 1.429 . S
C819 C820 1.523 . S
C820 C801 1.368 . S
C820 C814 1.368 . S
C820 C819 1.523 . S
C821 C805 1.429 . S
C821 C817 1.429 . S
C821 C822 1.523 . S
C822 C806 1.368 . S
C822 C818 1.368 . S
C822 C821 1.523 . S
H823 C798 0.950 . S
H824 C800 0.950 . S
H825 C801 0.949 . S
H826 C803 0.950 . S
H827 C805 0.950 . S
C828 C829 1.349 . S
C828 C830 1.327 . S
C828 H853 0.950 . S
C829 C828 1.349 . S
C829 C845 1.349 . S
C830 C828 1.327 . S
C830 C849 1.429 . S
C830 H854 0.950 . S
C831 C848 1.574 . S
C831 C850 1.368 . S
C831 H855 0.949 . S
H832 C836 0.949 . S
C833 C834 1.349 . S
C833 C835 1.327 . S
C833 H856 0.950 . S
C834 C833 1.349 . S
C834 C846 1.349 . S
C835 C833 1.327 . S
C835 C851 1.429 . S
C835 H857 0.950 . S
C836 H832 0.949 . S
C836 C844 1.574 . S
C836 C852 1.368 . S
H837 C845 0.950 . S
H838 C843 0.950 . S
H839 C844 0.949 . S
H840 C846 0.950 . S
H841 C847 0.950 . S
H842 C848 0.949 . S
C843 H838 0.950 . S
C843 C845 1.327 . S
C843 C849 1.429 . S
C844 C836 1.574 . S
C844 H839 0.949 . S
C844 C850 1.368 . S
C845 C829 1.349 . S
C845 H837 0.950 . S
C845 C843 1.327 . S
C846 C834 1.349 . S
C846 H840 0.950 . S
C846 C847 1.327 . S
C847 H841 0.950 . S
C847 C846 1.327 . S
C847 C851 1.429 . S
C848 C831 1.574 . S
C848 H842 0.949 . S
C848 C852 1.368 . S
C849 C830 1.429 . S
C849 C843 1.429 . S
C849 C850 1.523 . S
C850 C831 1.368 . S
C850 C844 1.368 . S
C850 C849 1.523 . S
C851 C835 1.429 . S
C851 C847 1.429 . S
C851 C852 1.523 . S
C852 C836 1.368 . S
C852 C848 1.368 . S
C852 C851 1.523 . S
H853 C828 0.950 . S
H854 C830 0.950 . S
H855 C831 0.949 . S
H856 C833 0.950 . S
H857 C835 0.950 . S
C858 C859 1.349 . S
C858 C860 1.327 . S
C858 H883 0.950 . S
C859 C858 1.349 . S
C859 C875 1.349 . S
C860 C858 1.327 . S
C860 C879 1.429 . S
C860 H884 0.950 . S
C861 C878 1.574 . S
C861 C880 1.368 . S
C861 H885 0.949 . S
H862 C866 0.949 . S
C863 C864 1.349 . S
C863 C865 1.327 . S
C863 H886 0.950 . S
C864 C863 1.349 . S
C864 C876 1.349 . S
C865 C863 1.327 . S
C865 C881 1.429 . S
C865 H887 0.950 . S
C866 H862 0.949 . S
C866 C874 1.574 . S
C866 C882 1.368 . S
H867 C875 0.950 . S
H868 C873 0.950 . S
H869 C874 0.949 . S
H870 C876 0.950 . S
H871 C877 0.950 . S
H872 C878 0.949 . S
C873 H868 0.950 . S
C873 C875 1.327 . S
C873 C879 1.429 . S
C874 C866 1.574 . S
C874 H869 0.949 . S
C874 C880 1.368 . S
C875 C859 1.349 . S
C875 H867 0.950 . S
C875 C873 1.327 . S
C876 C864 1.349 . S
C876 H870 0.950 . S
C876 C877 1.327 . S
C877 H871 0.950 . S
C877 C876 1.327 . S
C877 C881 1.429 . S
C878 C861 1.574 . S
C878 H872 0.949 . S
C878 C882 1.368 . S
C879 C860 1.429 . S
C879 C873 1.429 . S
C879 C880 1.523 . S
C880 C861 1.368 . S
C880 C874 1.368 . S
C880 C879 1.523 . S
C881 C865 1.429 . S
C881 C877 1.429 . S
C881 C882 1.523 . S
C882 C866 1.368 . S
C882 C878 1.368 . S
C882 C881 1.523 . S
H883 C858 0.950 . S
H884 C860 0.950 . S
H885 C861 0.949 . S
H886 C863 0.950 . S
H887 C865 0.950 . S
C169 C5 1.127 . S
C174 C159 1.127 . S
C199 C89 1.127 . S
C204 C19 1.127 . S
C229 C33 1.127 . S
C234 C103 1.127 . S
C259 C117 1.127 . S
C264 C47 1.127 . S
C289 C131 1.127 . S
C294 C61 1.127 . S
C319 C145 1.127 . S
C324 C75 1.127 . S
C349 C54 1.606 . S
C354 C124 1.606 . S
C379 C68 1.606 . S
C384 C138 1.606 . S
C409 C82 1.605 . S
C414 C152 1.605 . S
C439 C166 1.606 . S
C444 C12 1.606 . S
C469 C26 1.606 . S
C474 C96 1.606 . S
C499 C40 1.606 . S
C504 C110 1.606 . S
C529 C116 1.304 . S
C534 C4 1.304 . S
C559 C130 1.304 . S
C564 C18 1.304 . S
C589 C32 1.304 . S
C594 C144 1.304 . S
C619 C46 1.304 . S
C624 C158 1.304 . S
C649 C60 1.304 . S
C654 C88 1.304 . S
C679 C102 1.304 . S
C684 C74 1.304 . S
C709 C11 1.184 . S
C714 C151 1.184 . S
C739 C165 1.185 . S
C744 C25 1.185 . S
C769 C39 1.184 . S
C774 C95 1.184 . S
C799 C53 1.184 . S
C804 C109 1.184 . S
C829 C67 1.185 . S
C834 C123 1.185 . S
C859 C81 1.184 . S
C864 C137 1.184 . S
