# Generated by pormake.
# Topology ato, (4)-cn, num edge types: 1
# Building blocks:
#     Node 0, Type 0, BuildingBlock: TATPOV_clean_sbu_0, # of connection points: 4
#     Node 1, Type 0, BuildingBlock: TATPOV_clean_sbu_0, # of connection points: 4
#     Node 2, Type 0, BuildingBlock: TATPOV_clean_sbu_0, # of connection points: 4
#     Node 3, Type 0, BuildingBlock: TATPOV_clean_sbu_0, # of connection points: 4
#     Node 4, Type 0, BuildingBlock: TATPOV_clean_sbu_0, # of connection points: 4
#     Node 5, Type 0, BuildingBlock: TATPOV_clean_sbu_0, # of connection points: 4
#     Node 6, Type 0, BuildingBlock: TATPOV_clean_sbu_0, # of connection points: 4
#     Node 7, Type 0, BuildingBlock: TATPOV_clean_sbu_0, # of connection points: 4
#     Node 8, Type 0, BuildingBlock: TATPOV_clean_sbu_0, # of connection points: 4
#     Node 9, Type 0, BuildingBlock: TATPOV_clean_sbu_0, # of connection points: 4
#     Node 10, Type 0, BuildingBlock: TATPOV_clean_sbu_0, # of connection points: 4
#     Node 11, Type 0, BuildingBlock: TATPOV_clean_sbu_0, # of connection points: 4
#     Node 12, Type 0, BuildingBlock: TATPOV_clean_sbu_0, # of connection points: 4
#     Node 13, Type 0, BuildingBlock: TATPOV_clean_sbu_0, # of connection points: 4
#     Node 14, Type 0, BuildingBlock: TATPOV_clean_sbu_0, # of connection points: 4
#     Node 15, Type 0, BuildingBlock: TATPOV_clean_sbu_0, # of connection points: 4
#     Node 16, Type 0, BuildingBlock: TATPOV_clean_sbu_0, # of connection points: 4
#     Node 17, Type 0, BuildingBlock: TATPOV_clean_sbu_0, # of connection points: 4
#     Node 18, Type 0, BuildingBlock: TATPOV_clean_sbu_0, # of connection points: 4
#     Node 19, Type 0, BuildingBlock: TATPOV_clean_sbu_0, # of connection points: 4
#     Node 20, Type 0, BuildingBlock: TATPOV_clean_sbu_0, # of connection points: 4
#     Node 21, Type 0, BuildingBlock: TATPOV_clean_sbu_0, # of connection points: 4
#     Node 22, Type 0, BuildingBlock: TATPOV_clean_sbu_0, # of connection points: 4
#     Node 23, Type 0, BuildingBlock: TATPOV_clean_sbu_0, # of connection points: 4
#     Node 24, Type 0, BuildingBlock: TATPOV_clean_sbu_0, # of connection points: 4
#     Node 25, Type 0, BuildingBlock: TATPOV_clean_sbu_0, # of connection points: 4
#     Node 26, Type 0, BuildingBlock: TATPOV_clean_sbu_0, # of connection points: 4
#     Node 27, Type 0, BuildingBlock: TATPOV_clean_sbu_0, # of connection points: 4
#     Node 28, Type 0, BuildingBlock: TATPOV_clean_sbu_0, # of connection points: 4
#     Node 29, Type 0, BuildingBlock: TATPOV_clean_sbu_0, # of connection points: 4
#     Node 30, Type 0, BuildingBlock: TATPOV_clean_sbu_0, # of connection points: 4
#     Node 31, Type 0, BuildingBlock: TATPOV_clean_sbu_0, # of connection points: 4
#     Node 32, Type 0, BuildingBlock: TATPOV_clean_sbu_0, # of connection points: 4
#     Node 33, Type 0, BuildingBlock: TATPOV_clean_sbu_0, # of connection points: 4
#     Node 34, Type 0, BuildingBlock: TATPOV_clean_sbu_0, # of connection points: 4
#     Node 35, Type 0, BuildingBlock: TATPOV_clean_sbu_0, # of connection points: 4
#     Edge 36, Type (0, 0), BuildingBlock: EZIPEK_clean_linker_0, # of connection points: 2
#     Edge 37, Type (0, 0), BuildingBlock: EZIPEK_clean_linker_0, # of connection points: 2
#     Edge 38, Type (0, 0), BuildingBlock: EZIPEK_clean_linker_0, # of connection points: 2
#     Edge 39, Type (0, 0), BuildingBlock: EZIPEK_clean_linker_0, # of connection points: 2
#     Edge 40, Type (0, 0), BuildingBlock: EZIPEK_clean_linker_0, # of connection points: 2
#     Edge 41, Type (0, 0), BuildingBlock: EZIPEK_clean_linker_0, # of connection points: 2
#     Edge 42, Type (0, 0), BuildingBlock: EZIPEK_clean_linker_0, # of connection points: 2
#     Edge 43, Type (0, 0), BuildingBlock: EZIPEK_clean_linker_0, # of connection points: 2
#     Edge 44, Type (0, 0), BuildingBlock: EZIPEK_clean_linker_0, # of connection points: 2
#     Edge 45, Type (0, 0), BuildingBlock: EZIPEK_clean_linker_0, # of connection points: 2
#     Edge 46, Type (0, 0), BuildingBlock: EZIPEK_clean_linker_0, # of connection points: 2
#     Edge 47, Type (0, 0), BuildingBlock: EZIPEK_clean_linker_0, # of connection points: 2
#     Edge 48, Type (0, 0), BuildingBlock: EZIPEK_clean_linker_0, # of connection points: 2
#     Edge 49, Type (0, 0), BuildingBlock: EZIPEK_clean_linker_0, # of connection points: 2
#     Edge 50, Type (0, 0), BuildingBlock: EZIPEK_clean_linker_0, # of connection points: 2
#     Edge 51, Type (0, 0), BuildingBlock: EZIPEK_clean_linker_0, # of connection points: 2
#     Edge 52, Type (0, 0), BuildingBlock: EZIPEK_clean_linker_0, # of connection points: 2
#     Edge 53, Type (0, 0), BuildingBlock: EZIPEK_clean_linker_0, # of connection points: 2
#     Edge 54, Type (0, 0), BuildingBlock: EZIPEK_clean_linker_0, # of connection points: 2
#     Edge 55, Type (0, 0), BuildingBlock: EZIPEK_clean_linker_0, # of connection points: 2
#     Edge 56, Type (0, 0), BuildingBlock: EZIPEK_clean_linker_0, # of connection points: 2
#     Edge 57, Type (0, 0), BuildingBlock: EZIPEK_clean_linker_0, # of connection points: 2
#     Edge 58, Type (0, 0), BuildingBlock: EZIPEK_clean_linker_0, # of connection points: 2
#     Edge 59, Type (0, 0), BuildingBlock: EZIPEK_clean_linker_0, # of connection points: 2
#     Edge 60, Type (0, 0), BuildingBlock: EZIPEK_clean_linker_0, # of connection points: 2
#     Edge 61, Type (0, 0), BuildingBlock: EZIPEK_clean_linker_0, # of connection points: 2
#     Edge 62, Type (0, 0), BuildingBlock: EZIPEK_clean_linker_0, # of connection points: 2
#     Edge 63, Type (0, 0), BuildingBlock: EZIPEK_clean_linker_0, # of connection points: 2
#     Edge 64, Type (0, 0), BuildingBlock: EZIPEK_clean_linker_0, # of connection points: 2
#     Edge 65, Type (0, 0), BuildingBlock: EZIPEK_clean_linker_0, # of connection points: 2
#     Edge 66, Type (0, 0), BuildingBlock: EZIPEK_clean_linker_0, # of connection points: 2
#     Edge 67, Type (0, 0), BuildingBlock: EZIPEK_clean_linker_0, # of connection points: 2
#     Edge 68, Type (0, 0), BuildingBlock: EZIPEK_clean_linker_0, # of connection points: 2
#     Edge 69, Type (0, 0), BuildingBlock: EZIPEK_clean_linker_0, # of connection points: 2
#     Edge 70, Type (0, 0), BuildingBlock: EZIPEK_clean_linker_0, # of connection points: 2
#     Edge 71, Type (0, 0), BuildingBlock: EZIPEK_clean_linker_0, # of connection points: 2
#     Edge 72, Type (0, 0), BuildingBlock: EZIPEK_clean_linker_0, # of connection points: 2
#     Edge 73, Type (0, 0), BuildingBlock: EZIPEK_clean_linker_0, # of connection points: 2
#     Edge 74, Type (0, 0), BuildingBlock: EZIPEK_clean_linker_0, # of connection points: 2
#     Edge 75, Type (0, 0), BuildingBlock: EZIPEK_clean_linker_0, # of connection points: 2
#     Edge 76, Type (0, 0), BuildingBlock: EZIPEK_clean_linker_0, # of connection points: 2
#     Edge 77, Type (0, 0), BuildingBlock: EZIPEK_clean_linker_0, # of connection points: 2
#     Edge 78, Type (0, 0), BuildingBlock: EZIPEK_clean_linker_0, # of connection points: 2
#     Edge 79, Type (0, 0), BuildingBlock: EZIPEK_clean_linker_0, # of connection points: 2
#     Edge 80, Type (0, 0), BuildingBlock: EZIPEK_clean_linker_0, # of connection points: 2
#     Edge 81, Type (0, 0), BuildingBlock: EZIPEK_clean_linker_0, # of connection points: 2
#     Edge 82, Type (0, 0), BuildingBlock: EZIPEK_clean_linker_0, # of connection points: 2
#     Edge 83, Type (0, 0), BuildingBlock: EZIPEK_clean_linker_0, # of connection points: 2
#     Edge 84, Type (0, 0), BuildingBlock: EZIPEK_clean_linker_0, # of connection points: 2
#     Edge 85, Type (0, 0), BuildingBlock: EZIPEK_clean_linker_0, # of connection points: 2
#     Edge 86, Type (0, 0), BuildingBlock: EZIPEK_clean_linker_0, # of connection points: 2
#     Edge 87, Type (0, 0), BuildingBlock: EZIPEK_clean_linker_0, # of connection points: 2
#     Edge 88, Type (0, 0), BuildingBlock: EZIPEK_clean_linker_0, # of connection points: 2
#     Edge 89, Type (0, 0), BuildingBlock: EZIPEK_clean_linker_0, # of connection points: 2
#     Edge 90, Type (0, 0), BuildingBlock: EZIPEK_clean_linker_0, # of connection points: 2
#     Edge 91, Type (0, 0), BuildingBlock: EZIPEK_clean_linker_0, # of connection points: 2
#     Edge 92, Type (0, 0), BuildingBlock: EZIPEK_clean_linker_0, # of connection points: 2
#     Edge 93, Type (0, 0), BuildingBlock: EZIPEK_clean_linker_0, # of connection points: 2
#     Edge 94, Type (0, 0), BuildingBlock: EZIPEK_clean_linker_0, # of connection points: 2
#     Edge 95, Type (0, 0), BuildingBlock: EZIPEK_clean_linker_0, # of connection points: 2
#     Edge 96, Type (0, 0), BuildingBlock: EZIPEK_clean_linker_0, # of connection points: 2
#     Edge 97, Type (0, 0), BuildingBlock: EZIPEK_clean_linker_0, # of connection points: 2
#     Edge 98, Type (0, 0), BuildingBlock: EZIPEK_clean_linker_0, # of connection points: 2
#     Edge 99, Type (0, 0), BuildingBlock: EZIPEK_clean_linker_0, # of connection points: 2
#     Edge 100, Type (0, 0), BuildingBlock: EZIPEK_clean_linker_0, # of connection points: 2
#     Edge 101, Type (0, 0), BuildingBlock: EZIPEK_clean_linker_0, # of connection points: 2
#     Edge 102, Type (0, 0), BuildingBlock: EZIPEK_clean_linker_0, # of connection points: 2
#     Edge 103, Type (0, 0), BuildingBlock: EZIPEK_clean_linker_0, # of connection points: 2
#     Edge 104, Type (0, 0), BuildingBlock: EZIPEK_clean_linker_0, # of connection points: 2
#     Edge 105, Type (0, 0), BuildingBlock: EZIPEK_clean_linker_0, # of connection points: 2
#     Edge 106, Type (0, 0), BuildingBlock: EZIPEK_clean_linker_0, # of connection points: 2
#     Edge 107, Type (0, 0), BuildingBlock: EZIPEK_clean_linker_0, # of connection points: 2
# Relax obj value: 0.033
# Max RMSD: 0.049
# Mean RMSD: 0.049
data_MOF--net-ato--node1-TATPOV_clean_sbu_0--edge1-EZIPEK_clean_linker_0
_symmetry_space_group_name_H-M    P1
_symmetry_Int_Tables_number       1
_symmetry_cell_setting            triclinic
loop_
_symmetry_equiv_pos_as_xyz
'x, y, z'
_cell_length_a     74.826533
_cell_length_b     74.460962
_cell_length_c     18.493242
_cell_angle_alpha  90.114955
_cell_angle_beta   89.824448
_cell_angle_gamma 120.22547
loop_
_atom_site_label
_atom_site_type_symbol
_atom_site_fract_x
_atom_site_fract_y
_atom_site_fract_z
_atom_type_partial_charge
Zn0 Zn 0.23926 0.07012 0.13044 0.0
Zn1 Zn 0.23339 0.04257 0.23693 0.0
O2 O 0.22371 0.06166 0.2837 0.0
O3 O 0.22751 0.08307 0.19489 0.0
O4 O 0.22632 0.02015 0.31241 0.0
O5 O 0.22103 0.04742 0.06202 0.0
O6 O 0.21711 0.02536 0.14871 0.0
C7 C 0.22222 0.07683 0.25912 0.0
C8 C 0.27671 0.07092 0.17566 0.0
O9 O 0.26478 0.05635 0.21861 0.0
O10 O 0.26958 0.0794 0.13457 0.0
C11 C 0.22618 0.02324 0.38005 0.0
O12 O 0.23192 0.04197 0.40413 0.0
C13 C 0.21351 0.02902 0.08473 0.0
Zn14 Zn 0.91109 0.16631 0.14081 0.0
Zn15 Zn 0.93531 0.18962 0.25036 0.0
O16 O 0.91796 0.16033 0.29604 0.0
O17 O 0.89848 0.14145 0.20532 0.0
O18 O 0.95653 0.20583 0.32831 0.0
O19 O 0.93463 0.17211 0.07592 0.0
O20 O 0.9541 0.19307 0.16309 0.0
C21 C 0.90395 0.14299 0.27072 0.0
C22 C 0.90481 0.20036 0.18363 0.0
O23 O 0.9182 0.20396 0.23265 0.0
O24 O 0.89968 0.18567 0.13884 0.0
C25 C 0.95217 0.2039 0.3954 0.0
O26 O 0.93287 0.19215 0.41628 0.0
C27 C 0.95216 0.18544 0.09983 0.0
Zn28 Zn 0.8109 0.74198 0.14554 0.0
Zn29 Zn 0.7883 0.74293 0.25725 0.0
O30 O 0.81769 0.75488 0.30086 0.0
O31 O 0.83591 0.75414 0.20816 0.0
O32 O 0.77235 0.74791 0.33657 0.0
O33 O 0.80505 0.75988 0.08219 0.0
O34 O 0.7845 0.75827 0.17095 0.0
C35 C 0.83476 0.75814 0.27389 0.0
C36 C 0.77703 0.70149 0.18831 0.0
O37 O 0.77377 0.71131 0.2385 0.0
O38 O 0.7915 0.71108 0.14297 0.0
C39 C 0.77492 0.74627 0.40368 0.0
O40 O 0.78742 0.73969 0.42436 0.0
C41 C 0.79183 0.76401 0.1074 0.0
Zn42 Zn 0.06126 0.24134 0.85835 0.0
Zn43 Zn 0.03729 0.24029 0.74774 0.0
O44 O 0.05412 0.22782 0.70268 0.0
O45 O 0.07343 0.22872 0.79407 0.0
O46 O 0.01618 0.23584 0.67025 0.0
O47 O 0.03746 0.22368 0.92268 0.0
O48 O 0.01827 0.22496 0.83469 0.0
C49 C 0.06791 0.22447 0.72877 0.0
C50 C 0.06831 0.28184 0.81494 0.0
O51 O 0.05493 0.2719 0.76586 0.0
O52 O 0.07321 0.27231 0.8602 0.0
C53 C 0.01936 0.2356 0.60271 0.0
O54 O 0.03762 0.23969 0.57939 0.0
C55 C 0.02002 0.21936 0.89816 0.0
Zn56 Zn 0.73453 0.8156 0.8683 0.0
Zn57 Zn 0.73614 0.79311 0.75681 0.0
O58 O 0.74885 0.82273 0.71332 0.0
O59 O 0.74748 0.84077 0.80576 0.0
O60 O 0.74102 0.77667 0.6788 0.0
O61 O 0.75178 0.80939 0.93312 0.0
O62 O 0.75119 0.78933 0.844 0.0
C63 C 0.7521 0.83984 0.74057 0.0
C64 C 0.69444 0.78245 0.82195 0.0
O65 O 0.70454 0.7791 0.77314 0.0
O66 O 0.70374 0.79668 0.86841 0.0
C67 C 0.74143 0.78022 0.61136 0.0
O68 O 0.73724 0.79437 0.58839 0.0
C69 C 0.75643 0.7965 0.90796 0.0
Zn70 Zn 0.15602 0.91871 0.85282 0.0
Zn71 Zn 0.17794 0.94129 0.73787 0.0
O72 O 0.14836 0.92335 0.69643 0.0
O73 O 0.13065 0.90534 0.79157 0.0
O74 O 0.19365 0.96142 0.65653 0.0
O75 O 0.16268 0.94344 0.9132 0.0
O76 O 0.1824 0.96152 0.82136 0.0
C77 C 0.1314 0.90981 0.72528 0.0
C78 C 0.18946 0.91178 0.80926 0.0
O79 O 0.19242 0.92446 0.75801 0.0
O80 O 0.17531 0.9072 0.85561 0.0
C81 C 0.19162 0.95636 0.5901 0.0
O82 O 0.17973 0.93681 0.57144 0.0
C83 C 0.17564 0.96063 0.88539 0.0
Zn84 Zn 0.73537 0.915 0.87195 0.0
Zn85 Zn 0.73977 0.94088 0.76356 0.0
O86 O 0.75115 0.92282 0.7212 0.0
O87 O 0.74769 0.90188 0.81097 0.0
O88 O 0.74724 0.96209 0.68313 0.0
O89 O 0.75277 0.93782 0.94007 0.0
O90 O 0.75417 0.95896 0.85376 0.0
C91 C 0.75314 0.90806 0.74678 0.0
C92 C 0.69677 0.91107 0.82184 0.0
O93 O 0.70794 0.92482 0.77511 0.0
O94 O 0.70488 0.90478 0.8679 0.0
C95 C 0.73933 0.95688 0.6204 0.0
O96 O 0.72452 0.93765 0.6088 0.0
C97 C 0.75837 0.95591 0.91784 0.0
Zn98 Zn 0.05954 0.81669 0.86142 0.0
Zn99 Zn 0.03502 0.79321 0.75197 0.0
O100 O 0.05147 0.82265 0.70675 0.0
O101 O 0.07109 0.84156 0.79728 0.0
O102 O 0.01357 0.77634 0.67524 0.0
O103 O 0.03603 0.81006 0.92767 0.0
O104 O 0.0164 0.78935 0.84023 0.0
C105 C 0.06525 0.84006 0.73235 0.0
C106 C 0.06675 0.78355 0.81555 0.0
O107 O 0.05293 0.77964 0.7679 0.0
O108 O 0.07186 0.79814 0.8607 0.0
C109 C 0.01679 0.77942 0.6076 0.0
O110 O 0.03523 0.79326 0.58398 0.0
C111 C 0.01847 0.79673 0.90393 0.0
Zn112 Zn 0.15853 0.23985 0.85439 0.0
Zn113 Zn 0.18111 0.2387 0.74291 0.0
O114 O 0.1517 0.2264 0.69925 0.0
O115 O 0.13345 0.22709 0.79189 0.0
O116 O 0.19711 0.23378 0.66386 0.0
O117 O 0.16477 0.22238 0.91869 0.0
O118 O 0.1851 0.22363 0.82973 0.0
C119 C 0.13457 0.22294 0.72627 0.0
C120 C 0.19202 0.28034 0.80951 0.0
O121 O 0.19537 0.27036 0.76015 0.0
O122 O 0.17765 0.27085 0.85528 0.0
C123 C 0.19536 0.23648 0.59695 0.0
O124 O 0.18371 0.24411 0.57663 0.0
C125 C 0.17791 0.21813 0.89357 0.0
Zn126 Zn 0.90918 0.74099 0.14399 0.0
Zn127 Zn 0.93275 0.74176 0.25507 0.0
O128 O 0.91574 0.75415 0.2993 0.0
O129 O 0.89694 0.75378 0.20713 0.0
O130 O 0.95358 0.7465 0.33398 0.0
O131 O 0.93313 0.7585 0.08005 0.0
O132 O 0.95207 0.7571 0.16873 0.0
C133 C 0.90217 0.75777 0.27275 0.0
C134 C 0.90181 0.70032 0.18738 0.0
O135 O 0.91518 0.71013 0.23667 0.0
O136 O 0.89702 0.70998 0.14234 0.0
C137 C 0.94934 0.74502 0.40113 0.0
O138 O 0.93028 0.73869 0.42199 0.0
C139 C 0.95049 0.76272 0.10509 0.0
Zn140 Zn 0.23655 0.16796 0.13201 0.0
Zn141 Zn 0.23493 0.19044 0.24322 0.0
O142 O 0.22361 0.16109 0.28793 0.0
O143 O 0.22501 0.14301 0.19571 0.0
O144 O 0.22978 0.20667 0.32125 0.0
O145 O 0.21824 0.17303 0.06835 0.0
O146 O 0.21915 0.19344 0.15672 0.0
C147 C 0.22087 0.14409 0.26135 0.0
C148 C 0.27648 0.20238 0.17479 0.0
O149 O 0.26644 0.20539 0.22469 0.0
O150 O 0.2672 0.18791 0.12908 0.0
C151 C 0.22892 0.20281 0.38858 0.0
O152 O 0.23284 0.18848 0.41158 0.0
C153 C 0.21354 0.18589 0.09338 0.0
Zn154 Zn 0.81155 0.06536 0.15226 0.0
Zn155 Zn 0.78915 0.0436 0.26713 0.0
O156 O 0.81873 0.06149 0.30923 0.0
O157 O 0.83682 0.07876 0.21351 0.0
O158 O 0.7725 0.02497 0.35129 0.0
O159 O 0.8045 0.04022 0.0945 0.0
O160 O 0.78465 0.02234 0.18651 0.0
C161 C 0.83584 0.07469 0.28022 0.0
C162 C 0.779 0.07365 0.18972 0.0
O163 O 0.77552 0.06102 0.24168 0.0
O164 O 0.79331 0.07783 0.14454 0.0
C165 C 0.77977 0.01512 0.38464 0.0
O166 O 0.79767 0.01749 0.36421 0.0
C167 C 0.79152 0.02309 0.12263 0.0
Zn168 Zn 0.9024 0.40111 0.47337 0.0
Zn169 Zn 0.90094 0.3772 0.58499 0.0
O170 O 0.88933 0.39491 0.62943 0.0
O171 O 0.89062 0.41422 0.53703 0.0
O172 O 0.89621 0.35601 0.66311 0.0
O173 O 0.88418 0.37725 0.41021 0.0
O174 O 0.88519 0.35799 0.49892 0.0
C175 C 0.88643 0.40899 0.60263 0.0
C176 C 0.94239 0.40728 0.51587 0.0
O177 O 0.9324 0.39419 0.56589 0.0
O178 O 0.93307 0.41231 0.47034 0.0
C179 C 0.89501 0.35891 0.73035 0.0
O180 O 0.89819 0.37698 0.75331 0.0
C181 C 0.87955 0.3597 0.4355 0.0
Zn182 Zn 0.57587 0.49833 0.47697 0.0
Zn183 Zn 0.60052 0.52249 0.58414 0.0
O184 O 0.58334 0.49371 0.63336 0.0
O185 O 0.56378 0.47409 0.544 0.0
O186 O 0.62229 0.53955 0.65948 0.0
O187 O 0.59895 0.50353 0.41088 0.0
O188 O 0.6188 0.52505 0.49622 0.0
C189 C 0.56939 0.47614 0.60937 0.0
C190 C 0.56971 0.53266 0.51661 0.0
O191 O 0.58337 0.53671 0.56502 0.0
O192 O 0.56434 0.51758 0.47343 0.0
C193 C 0.61867 0.53917 0.72689 0.0
O194 O 0.59957 0.52835 0.75078 0.0
C195 C 0.61659 0.51697 0.43362 0.0
Zn196 Zn 0.48139 0.07925 0.47861 0.0
Zn197 Zn 0.45876 0.07993 0.59165 0.0
O198 O 0.48786 0.09163 0.63635 0.0
O199 O 0.50622 0.09164 0.54277 0.0
O200 O 0.44227 0.08403 0.67061 0.0
O201 O 0.47485 0.09696 0.41661 0.0
O202 O 0.45552 0.09632 0.50808 0.0
C203 C 0.505 0.09525 0.60893 0.0
C204 C 0.44756 0.03868 0.51967 0.0
O205 O 0.44419 0.04844 0.56981 0.0
O206 O 0.46225 0.04832 0.47515 0.0
C207 C 0.44411 0.0818 0.73784 0.0
O208 O 0.45644 0.07514 0.75973 0.0
C209 C 0.46232 0.10177 0.44384 0.0
Zn210 Zn 0.72497 0.57178 0.18982 0.0
Zn211 Zn 0.70128 0.57115 0.07996 0.0
O212 O 0.71844 0.55922 0.034 0.0
O213 O 0.73743 0.55949 0.12542 0.0
O214 O 0.68041 0.56628 0.00142 0.0
O215 O 0.70125 0.55392 0.254 0.0
O216 O 0.68216 0.5556 0.16646 0.0
C217 C 0.73217 0.55571 0.05977 0.0
C218 C 0.7319 0.61244 0.14857 0.0
O219 O 0.71859 0.60274 0.09903 0.0
O220 O 0.73678 0.60271 0.19299 0.0
C221 C 0.685 0.57362 0.93772 0.0
O222 O 0.70443 0.58627 0.92023 0.0
C223 C 0.68385 0.5498 0.22967 0.0
Zn224 Zn 0.40244 0.15079 0.19935 0.0
Zn225 Zn 0.40847 0.13 0.09099 0.0
O226 O 0.41858 0.15917 0.047 0.0
O227 O 0.4154 0.17637 0.13868 0.0
O228 O 0.41589 0.11565 0.01323 0.0
O229 O 0.41929 0.1449 0.26847 0.0
O230 O 0.42433 0.12831 0.17874 0.0
C231 C 0.4206 0.17585 0.07395 0.0
C232 C 0.36492 0.1147 0.14938 0.0
O233 O 0.37693 0.1121 0.10697 0.0
O234 O 0.37206 0.1302 0.19153 0.0
C235 C 0.40744 0.11076 0.95131 0.0
O236 O 0.39245 0.11439 0.9355 0.0
C237 C 0.42706 0.13445 0.24427 0.0
Zn238 Zn 0.826 0.25031 0.19333 0.0
Zn239 Zn 0.84903 0.27479 0.08363 0.0
O240 O 0.81991 0.25734 0.0382 0.0
O241 O 0.80127 0.2376 0.12904 0.0
O242 O 0.86502 0.29613 0.00556 0.0
O243 O 0.83163 0.27387 0.25836 0.0
O244 O 0.85244 0.29355 0.17111 0.0
C245 C 0.80272 0.24319 0.06376 0.0
C246 C 0.86006 0.24434 0.14989 0.0
O247 O 0.86349 0.25777 0.10086 0.0
O248 O 0.84546 0.23906 0.1949 0.0
C249 C 0.86363 0.29157 0.93873 0.0
O250 O 0.85265 0.27205 0.9185 0.0
C251 C 0.84485 0.29152 0.23443 0.0
Zn252 Zn 0.40481 0.25282 0.19817 0.0
Zn253 Zn 0.40787 0.27706 0.0867 0.0
O254 O 0.41956 0.259 0.04668 0.0
O255 O 0.41745 0.23958 0.13968 0.0
O256 O 0.41437 0.29734 0.00383 0.0
O257 O 0.42191 0.27643 0.26371 0.0
O258 O 0.42237 0.29633 0.17446 0.0
C259 C 0.42224 0.24489 0.07443 0.0
C260 C 0.36547 0.24702 0.1484 0.0
O261 O 0.37614 0.26045 0.10011 0.0
O262 O 0.37415 0.24158 0.19521 0.0
C263 C 0.40567 0.29173 0.94239 0.0
O264 O 0.39062 0.27249 0.9331 0.0
C265 C 0.42691 0.29415 0.23914 0.0
Zn266 Zn 0.72886 0.15217 0.19116 0.0
Zn267 Zn 0.70444 0.12878 0.08157 0.0
O268 O 0.72156 0.15809 0.03561 0.0
O269 O 0.74104 0.17691 0.12652 0.0
O270 O 0.68301 0.11192 0.00468 0.0
O271 O 0.70542 0.14632 0.25628 0.0
O272 O 0.68576 0.12561 0.16887 0.0
C273 C 0.73546 0.17544 0.06129 0.0
C274 C 0.73515 0.11824 0.14865 0.0
O275 O 0.72164 0.11455 0.10004 0.0
O276 O 0.74047 0.13304 0.19301 0.0
C277 C 0.6861 0.11524 0.93707 0.0
O278 O 0.70444 0.12931 0.9134 0.0
C279 C 0.68782 0.1332 0.23225 0.0
Zn280 Zn 0.8224 0.57037 0.1883 0.0
Zn281 Zn 0.8454 0.57015 0.07677 0.0
O282 O 0.81629 0.55837 0.03163 0.0
O283 O 0.79765 0.55834 0.12419 0.0
O284 O 0.86151 0.56581 0.99696 0.0
O285 O 0.82825 0.55214 0.25025 0.0
O286 O 0.84901 0.55423 0.16153 0.0
C287 C 0.79907 0.55475 0.05818 0.0
C288 C 0.85631 0.6112 0.14823 0.0
O289 O 0.85977 0.60163 0.09768 0.0
O290 O 0.8417 0.60135 0.1929 0.0
C291 C 0.86556 0.57448 0.93519 0.0
O292 O 0.85997 0.58819 0.92034 0.0
C293 C 0.84149 0.54809 0.22464 0.0
Zn294 Zn 0.57916 0.0795 0.47476 0.0
Zn295 Zn 0.60262 0.07924 0.58418 0.0
O296 O 0.58595 0.09167 0.63067 0.0
O297 O 0.56725 0.0922 0.53977 0.0
O298 O 0.62346 0.08348 0.6624 0.0
O299 O 0.60299 0.0971 0.41078 0.0
O300 O 0.62182 0.09467 0.49772 0.0
C301 C 0.57255 0.09573 0.60544 0.0
C302 C 0.57138 0.03839 0.51439 0.0
O303 O 0.58476 0.04775 0.56404 0.0
O304 O 0.56675 0.04848 0.47065 0.0
C305 C 0.61896 0.08084 0.72937 0.0
O306 O 0.59969 0.07349 0.74992 0.0
C307 C 0.62027 0.10075 0.43482 0.0
Zn308 Zn 0.90236 0.50109 0.47185 0.0
Zn309 Zn 0.89722 0.5226 0.57956 0.0
O310 O 0.888 0.49373 0.62511 0.0
O311 O 0.89074 0.47597 0.53444 0.0
O312 O 0.88972 0.53677 0.6581 0.0
O313 O 0.88423 0.50563 0.40429 0.0
O314 O 0.88094 0.52389 0.49212 0.0
C315 C 0.88613 0.47696 0.59955 0.0
C316 C 0.94023 0.53798 0.51694 0.0
O317 O 0.92859 0.54066 0.56095 0.0
O318 O 0.93274 0.52229 0.4755 0.0
C319 C 0.90072 0.5463 0.71279 0.0
O320 O 0.91903 0.54819 0.72068 0.0
C321 C 0.87715 0.51674 0.42782 0.0
Zn322 Zn 0.47798 0.40289 0.48154 0.0
Zn323 Zn 0.45429 0.37947 0.59206 0.0
O324 O 0.48339 0.39666 0.63825 0.0
O325 O 0.5025 0.41551 0.54658 0.0
O326 O 0.43709 0.35993 0.67336 0.0
O327 O 0.47177 0.37845 0.42073 0.0
O328 O 0.45065 0.35935 0.50841 0.0
C329 C 0.50079 0.4103 0.61237 0.0
C330 C 0.44467 0.41026 0.51779 0.0
O331 O 0.44079 0.39707 0.56813 0.0
O332 O 0.45946 0.41509 0.4741 0.0
C333 C 0.44418 0.34963 0.70478 0.0
O334 O 0.46196 0.35192 0.68329 0.0
C335 C 0.45843 0.36097 0.44557 0.0
Zn336 Zn 0.56635 0.73499 0.79471 0.0
Zn337 Zn 0.56278 0.71032 0.90596 0.0
O338 O 0.55111 0.7284 0.94596 0.0
O339 O 0.55377 0.74825 0.8536 0.0
O340 O 0.55603 0.68989 0.98853 0.0
O341 O 0.54918 0.71145 0.72887 0.0
O342 O 0.54835 0.69127 0.81777 0.0
C343 C 0.54869 0.7427 0.91852 0.0
C344 C 0.6054 0.74016 0.845 0.0
O345 O 0.59452 0.72671 0.89297 0.0
O346 O 0.59696 0.74587 0.79817 0.0
C347 C 0.5648 0.69533 0.04991 0.0
O348 O 0.58005 0.71447 0.05932 0.0
C349 C 0.54399 0.69364 0.75307 0.0
Zn350 Zn 0.2426 0.83587 0.79904 0.0
Zn351 Zn 0.26724 0.85952 0.90797 0.0
O352 O 0.25054 0.83015 0.95351 0.0
O353 O 0.23076 0.81107 0.86358 0.0
O354 O 0.28856 0.87626 0.9855 0.0
O355 O 0.26608 0.84214 0.73319 0.0
O356 O 0.28589 0.86305 0.81995 0.0
C357 C 0.23664 0.81272 0.9285 0.0
C358 C 0.2357 0.86932 0.84314 0.0
O359 O 0.24949 0.87326 0.89097 0.0
O360 O 0.23051 0.8546 0.79849 0.0
C361 C 0.28512 0.87257 0.0528 0.0
O362 O 0.26676 0.8581 0.07487 0.0
C363 C 0.2837 0.85544 0.75653 0.0
Zn364 Zn 0.14685 0.41165 0.80552 0.0
Zn365 Zn 0.12386 0.41259 0.91664 0.0
O366 O 0.15312 0.42481 0.9615 0.0
O367 O 0.17161 0.42419 0.86948 0.0
O368 O 0.10705 0.41698 0.99431 0.0
O369 O 0.14094 0.4294 0.74157 0.0
O370 O 0.1204 0.42807 0.82996 0.0
C371 C 0.17031 0.42826 0.93503 0.0
C372 C 0.11321 0.37112 0.84843 0.0
O373 O 0.10975 0.38101 0.89782 0.0
O374 O 0.12773 0.38069 0.80323 0.0
C375 C 0.11115 0.41851 0.06155 0.0
O376 O 0.12621 0.41585 0.08482 0.0
C377 C 0.12783 0.43373 0.76648 0.0
Zn378 Zn 0.39265 0.90858 0.51595 0.0
Zn379 Zn 0.36973 0.90906 0.40487 0.0
O380 O 0.38662 0.89653 0.36029 0.0
O381 O 0.40487 0.89585 0.45249 0.0
O382 O 0.3492 0.90528 0.32549 0.0
O383 O 0.36847 0.89111 0.57885 0.0
O384 O 0.35008 0.89368 0.49065 0.0
C385 C 0.39991 0.89244 0.38649 0.0
C386 C 0.40099 0.9498 0.47577 0.0
O387 O 0.38775 0.94052 0.42564 0.0
O388 O 0.40534 0.93962 0.52009 0.0
C389 C 0.35262 0.90431 0.25854 0.0
O390 O 0.37065 0.90716 0.23759 0.0
C391 C 0.35133 0.88759 0.55391 0.0
Zn392 Zn 0.07122 0.4859 0.52764 0.0
Zn393 Zn 0.07281 0.46363 0.41629 0.0
O394 O 0.08405 0.49303 0.3723 0.0
O395 O 0.08317 0.51112 0.46531 0.0
O396 O 0.07836 0.44812 0.33697 0.0
O397 O 0.08913 0.48039 0.5918 0.0
O398 O 0.08831 0.4602 0.5028 0.0
C399 C 0.08709 0.51008 0.3994 0.0
C400 C 0.03123 0.45165 0.48348 0.0
O401 O 0.04129 0.44854 0.43389 0.0
O402 O 0.04051 0.46615 0.52911 0.0
C403 C 0.0749 0.44928 0.27035 0.0
O404 O 0.06597 0.45982 0.25069 0.0
C405 C 0.09376 0.46751 0.56651 0.0
Zn406 Zn 0.49248 0.58469 0.51234 0.0
Zn407 Zn 0.5159 0.60777 0.40082 0.0
O408 O 0.48662 0.59071 0.35585 0.0
O409 O 0.46773 0.57216 0.44834 0.0
O410 O 0.533 0.62707 0.31881 0.0
O411 O 0.49907 0.60932 0.57264 0.0
O412 O 0.51992 0.62816 0.484 0.0
C413 C 0.46925 0.57725 0.38247 0.0
C414 C 0.52542 0.57686 0.47508 0.0
O415 O 0.52924 0.58997 0.42451 0.0
O416 O 0.51079 0.57225 0.51932 0.0
C417 C 0.52601 0.6375 0.28764 0.0
O418 O 0.50838 0.63547 0.30969 0.0
C419 C 0.51236 0.62672 0.54711 0.0
Zn420 Zn 0.06589 0.58263 0.53112 0.0
Zn421 Zn 0.07162 0.60997 0.42486 0.0
O422 O 0.08149 0.59099 0.37883 0.0
O423 O 0.07792 0.56972 0.46779 0.0
O424 O 0.07913 0.63191 0.34761 0.0
O425 O 0.08378 0.60538 0.59992 0.0
O426 O 0.08755 0.62738 0.51322 0.0
C427 C 0.0832 0.57597 0.40356 0.0
C428 C 0.02832 0.58165 0.48524 0.0
O429 O 0.04019 0.59623 0.44219 0.0
O430 O 0.03555 0.57323 0.52624 0.0
C431 C 0.07337 0.62736 0.28224 0.0
O432 O 0.06099 0.60784 0.26412 0.0
C433 C 0.09105 0.62378 0.57742 0.0
Zn434 Zn 0.39287 0.48755 0.51606 0.0
Zn435 Zn 0.36927 0.46402 0.40608 0.0
O436 O 0.38672 0.49325 0.36014 0.0
O437 O 0.40558 0.51236 0.45156 0.0
O438 O 0.34839 0.44755 0.32755 0.0
O439 O 0.3691 0.48155 0.57994 0.0
O440 O 0.35013 0.46035 0.49249 0.0
C441 C 0.4005 0.51067 0.38569 0.0
C442 C 0.39979 0.45379 0.47523 0.0
O443 O 0.38652 0.44996 0.42556 0.0
O444 O 0.40464 0.46851 0.51959 0.0
C445 C 0.35292 0.4495 0.2606 0.0
O446 O 0.37222 0.46153 0.24018 0.0
C447 C 0.35173 0.46797 0.55557 0.0
Zn448 Zn 0.49111 0.90909 0.51414 0.0
Zn449 Zn 0.51391 0.9079 0.4036 0.0
O450 O 0.48472 0.89607 0.35847 0.0
O451 O 0.46633 0.89695 0.45043 0.0
O452 O 0.53 0.90252 0.32611 0.0
O453 O 0.49661 0.89116 0.57877 0.0
O454 O 0.51734 0.89265 0.49092 0.0
C455 C 0.4676 0.89288 0.38486 0.0
C456 C 0.52533 0.94946 0.47157 0.0
O457 O 0.52862 0.93955 0.42177 0.0
O458 O 0.51071 0.93996 0.51647 0.0
C459 C 0.53096 0.90727 0.25961 0.0
O460 O 0.52197 0.91751 0.23717 0.0
C461 C 0.50985 0.88697 0.5543 0.0
Zn462 Zn 0.24298 0.41002 0.79956 0.0
Zn463 Zn 0.26754 0.41134 0.90859 0.0
O464 O 0.25068 0.42353 0.95521 0.0
O465 O 0.23085 0.4224 0.86526 0.0
O466 O 0.28897 0.41607 0.98513 0.0
O467 O 0.26646 0.42793 0.73441 0.0
O468 O 0.28615 0.42691 0.82107 0.0
C469 C 0.23666 0.42671 0.93027 0.0
C470 C 0.23656 0.36967 0.8419 0.0
O471 O 0.2501 0.3797 0.89047 0.0
O472 O 0.23135 0.3791 0.79734 0.0
C473 C 0.28585 0.41623 0.05274 0.0
O474 O 0.26751 0.41177 0.0764 0.0
C475 C 0.28406 0.43248 0.75796 0.0
Zn476 Zn 0.56769 0.83605 0.79377 0.0
Zn477 Zn 0.56572 0.85814 0.90537 0.0
O478 O 0.55318 0.82852 0.94842 0.0
O479 O 0.55483 0.81073 0.85569 0.0
O480 O 0.56024 0.87389 0.98403 0.0
O481 O 0.55037 0.84214 0.72879 0.0
O482 O 0.5507 0.86198 0.81824 0.0
C483 C 0.55012 0.8115 0.92088 0.0
C484 C 0.60765 0.86928 0.84139 0.0
O485 O 0.59741 0.87242 0.89025 0.0
O486 O 0.59846 0.85519 0.79435 0.0
C487 C 0.56543 0.87478 0.04991 0.0
O488 O 0.5761 0.86605 0.07011 0.0
C489 C 0.54556 0.85489 0.75415 0.0
Zn490 Zn 0.14646 0.73405 0.80858 0.0
Zn491 Zn 0.12407 0.71155 0.9239 0.0
O492 O 0.1536 0.72953 0.96588 0.0
O493 O 0.17156 0.7475 0.87098 0.0
O494 O 0.10723 0.69146 0.00461 0.0
O495 O 0.14004 0.70913 0.74987 0.0
O496 O 0.12001 0.69117 0.84132 0.0
C497 C 0.17064 0.74306 0.93736 0.0
C498 C 0.11305 0.74117 0.84919 0.0
O499 O 0.10996 0.72859 0.90092 0.0
O500 O 0.12728 0.74562 0.8033 0.0
C501 C 0.11318 0.69317 0.06995 0.0
O502 O 0.13068 0.70942 0.08999 0.0
C503 C 0.12708 0.69197 0.77784 0.0
C504 C 0.22241 0.98605 0.52914 0.0
C505 C 0.20064 0.97284 0.53391 0.0
C506 C 0.19595 0.99112 0.4318 0.0
C507 C 0.21757 0.00545 0.43116 0.0
N508 N 0.25137 0.01802 0.48275 0.0
N509 N 0.16639 0.96491 0.49862 0.0
C510 C 0.2308 0.00336 0.48104 0.0
C511 C 0.18731 0.97581 0.48718 0.0
N512 N 0.23509 0.98155 0.56866 0.0
N513 N 0.18357 0.99224 0.37983 0.0
H514 H 0.15938 0.95388 0.53948 0.0
H515 H 0.15603 0.96806 0.47205 0.0
H516 H 0.18889 0.00404 0.34133 0.0
H517 H 0.16825 0.98068 0.37174 0.0
H518 H 0.25108 0.98919 0.56235 0.0
H519 H 0.22947 0.96893 0.60395 0.0
H520 H 0.26139 0.01885 0.52322 0.0
H521 H 0.25827 0.03022 0.44577 0.0
C522 C -0.0129 0.20616 0.54917 0.0
C523 C 0.00178 0.22777 0.55133 0.0
C524 C 0.98283 0.23401 0.45557 0.0
C525 C 0.96911 0.21225 0.44966 0.0
N526 N 0.96052 0.17732 0.48079 0.0
N527 N 0.01527 0.26215 0.50207 0.0
C528 C 0.97177 0.19823 0.4941 0.0
C529 C 0.00015 0.24166 0.50301 0.0
N530 N -0.01216 0.19313 0.5996 0.0
N531 N 0.97883 0.24738 0.41786 0.0
H532 H 0.02763 0.26845 0.53824 0.0
H533 H 0.01633 0.27263 0.46278 0.0
H534 H 0.96627 0.24231 0.38294 0.0
H535 H -0.0131 0.26341 0.42527 0.0
H536 H 0.97607 0.17779 0.60665 0.0
H537 H -0.00045 0.19795 0.638 0.0
H538 H 0.96338 0.16649 0.50565 0.0
H539 H 0.94951 0.17082 0.43984 0.0
C540 C 0.7797 0.77176 0.50152 0.0
C541 C 0.76614 0.75449 0.45798 0.0
C542 C 0.73622 0.75474 0.51245 0.0
C543 C 0.74974 0.77087 0.55992 0.0
N544 N 0.78413 0.79309 0.60668 0.0
N545 N 0.73151 0.72758 0.42835 0.0
C546 C 0.77141 0.77878 0.55682 0.0
C547 C 0.74437 0.74547 0.46499 0.0
N548 N 0.80048 0.7823 0.48717 0.0
N549 N 0.71562 0.74843 0.51226 0.0
H550 H 0.73694 0.72034 0.39353 0.0
H551 H 0.7156 0.71896 0.43667 0.0
H552 H 0.70901 0.75424 0.54835 0.0
H553 H 0.70528 0.73847 0.47357 0.0
H554 H 0.81088 0.79638 0.51137 0.0
H555 H 0.80721 0.77809 0.44598 0.0
H556 H 0.79962 0.79747 0.61295 0.0
H557 H 0.77893 0.79959 0.64549 0.0
C558 C 0.75641 0.96593 0.498 0.0
C559 C 0.74866 0.97161 0.55876 0.0
C560 C 0.76171 0.00636 0.5063 0.0
C561 C 0.76779 -3e-05 0.44293 0.0
N562 N 0.76607 0.97196 0.37164 0.0
N563 N 0.74041 -0.00414 0.61456 0.0
C564 C 0.76367 0.97922 0.43676 0.0
C565 C 0.75028 0.99145 0.56112 0.0
N566 N 0.75798 0.94841 0.50004 0.0
N567 N 0.76766 0.02683 0.51588 0.0
H568 H 0.73173 0.98526 0.65504 0.0
H569 H 0.73923 0.00921 0.61493 0.0
H570 H 0.77621 0.03826 0.4776 0.0
H571 H 0.76567 0.03277 0.56434 0.0
H572 H 0.76555 0.94479 0.46024 0.0
H573 H 0.75375 0.93862 0.54485 0.0
H574 H 0.7613 0.95638 0.36236 0.0
H575 H 0.77073 0.981 0.32482 0.0
C576 C -0.00376 0.75344 0.51044 0.0
C577 C -0.00087 0.76997 0.55646 0.0
C578 C 0.97033 0.77098 0.49717 0.0
C579 C 0.96635 0.75336 0.45512 0.0
N580 N 0.97353 0.72595 0.42795 0.0
N581 N -0.01249 0.79291 0.60071 0.0
C582 C 0.97882 0.74411 0.46327 0.0
C583 C -0.01434 0.77817 0.5522 0.0
N584 N 0.0103 0.74684 0.51134 0.0
N585 N 0.96033 0.78165 0.48163 0.0
H586 H -0.00075 0.79954 0.63918 0.0
H587 H 0.97658 0.79757 0.60626 0.0
H588 H 0.94938 0.7773 0.44062 0.0
H589 H 0.96423 0.79594 0.5046 0.0
H590 H 0.01048 0.73653 0.47366 0.0
H591 H 0.0227 0.75271 0.54729 0.0
H592 H 0.9806 0.71719 0.43718 0.0
H593 H 0.96086 0.71868 0.39327 0.0
C594 C 0.234 0.22757 0.48993 0.0
C595 C 0.22063 0.21223 0.43983 0.0
C596 C 0.19067 0.212 0.49552 0.0
C597 C 0.20418 0.22846 0.54205 0.0
N598 N 0.23881 0.25409 0.57713 0.0
N599 N 0.1866 0.19159 0.38808 0.0
C600 C 0.2259 0.23682 0.53766 0.0
C601 C 0.19909 0.20509 0.44029 0.0
N602 N 0.25441 0.23315 0.4923 0.0
N603 N 0.16976 0.20204 0.50696 0.0
H604 H 0.19179 0.18508 0.34931 0.0
H605 H 0.17136 0.18792 0.37998 0.0
H606 H 0.1629 0.20618 0.54788 0.0
H607 H 0.15925 0.18843 0.48045 0.0
H608 H 0.2645 0.2424 0.53282 0.0
H609 H 0.26106 0.22744 0.45599 0.0
H610 H 0.25482 0.2623 0.57098 0.0
H611 H 0.23342 0.26131 0.61221 0.0
C612 C 0.90096 0.34033 0.83282 0.0
C613 C 0.88732 0.34119 0.78158 0.0
C614 C 0.85807 0.31026 0.83609 0.0
C615 C 0.87193 0.30843 0.88374 0.0
N616 N 0.90684 0.31974 0.92108 0.0
N617 N 0.85339 0.32563 0.72764 0.0
C618 C 0.89347 0.32297 0.88052 0.0
C619 C 0.86606 0.32565 0.78087 0.0
N620 N 0.92102 0.3562 0.83626 0.0
N621 N 0.83718 0.29818 0.84647 0.0
H622 H 0.85817 0.33732 0.68888 0.0
H623 H 0.83849 0.31328 0.71876 0.0
H624 H 0.83059 0.28713 0.88747 0.0
H625 H 0.82631 0.3004 0.81899 0.0
H626 H 0.93113 0.3578 0.87761 0.0
H627 H 0.92729 0.36861 0.79995 0.0
H628 H 0.92286 0.32848 0.91586 0.0
H629 H 0.90192 0.30714 0.95611 0.0
C630 C 0.65026 0.54127 0.7826 0.0
C631 C 0.63612 0.5487 0.77906 0.0
C632 C 0.65368 0.57214 0.88141 0.0
C633 C 0.66866 0.56576 0.88139 0.0
N634 N 0.68299 0.54632 0.82642 0.0
N635 N 0.626 0.57327 0.81708 0.0
C636 C 0.66756 0.55107 0.8299 0.0
C637 C 0.63824 0.56468 0.82646 0.0
N638 N 0.64646 0.52398 0.74411 0.0
N639 N 0.65411 0.58517 0.93443 0.0
H640 H 0.61465 0.56828 0.7772 0.0
H641 H 0.62814 0.58641 0.84462 0.0
H642 H 0.66577 0.59177 0.97324 0.0
H643 H 0.64231 0.58849 0.94279 0.0
H644 H 0.65481 0.51636 0.75064 0.0
H645 H 0.63373 0.51597 0.71019 0.0
H646 H 0.68443 0.53781 0.78439 0.0
H647 H 0.69525 0.55205 0.86288 0.0
C648 C 0.41975 0.07472 0.84222 0.0
C649 C 0.4342 0.08895 0.79151 0.0
C650 C 0.4291 0.11675 0.84048 0.0
C651 C 0.41601 0.10297 0.89499 0.0
N652 N 0.40048 0.06956 0.95364 0.0
N653 N 0.4556 0.12433 0.75061 0.0
C654 C 0.41184 0.08216 0.89767 0.0
C655 C 0.43959 0.11018 0.79249 0.0
N656 N 0.41296 0.05397 0.83554 0.0
N657 N 0.43157 0.13619 0.83465 0.0
H658 H 0.4641 0.12034 0.71611 0.0
H659 H 0.46181 0.14033 0.75483 0.0
H660 H 0.42511 0.14206 0.87104 0.0
H661 H 0.43882 0.14599 0.79085 0.0
H662 H 0.40085 0.0425 0.8658 0.0
H663 H 0.4183 0.04797 0.79535 0.0
H664 H 0.3989 0.05508 0.96357 0.0
H665 H 0.39362 0.07415 0.99321 0.0
C666 C 0.42799 0.31366 0.75608 0.0
C667 C 0.43236 0.33446 0.76315 0.0
C668 C 0.41582 0.32605 0.88298 0.0
C669 C 0.41412 0.30619 0.87969 0.0
N670 N 0.4225 0.2827 0.81788 0.0
N671 N 0.43305 0.36143 0.83794 0.0
C672 C 0.42116 0.30035 0.81738 0.0
C673 C 0.42686 0.34093 0.82768 0.0
N674 N 0.42983 0.30638 0.69018 0.0
N675 N 0.40641 0.33053 0.93788 0.0
H676 H 0.44138 0.37287 0.79943 0.0
H677 H 0.43151 0.36738 0.88707 0.0
H678 H 0.39798 0.31995 0.97871 0.0
H679 H 0.4053 0.34392 0.93915 0.0
H680 H 0.42486 0.29078 0.68036 0.0
H681 H 0.43423 0.31547 0.64347 0.0
H682 H 0.42961 0.27896 0.77674 0.0
H683 H 0.41853 0.27287 0.86248 0.0
C684 C 0.66631 0.08994 0.83726 0.0
C685 C 0.6684 0.10563 0.88604 0.0
C686 C 0.6389 0.10585 0.82915 0.0
C687 C 0.63579 0.08905 0.78403 0.0
N688 N 0.64452 0.06307 0.75127 0.0
N689 N 0.6553 0.12684 0.93529 0.0
C690 C 0.64899 0.08056 0.7896 0.0
C691 C 0.65418 0.11296 0.88434 0.0
N692 N 0.68099 0.08415 0.83605 0.0
N693 N 0.62814 0.1159 0.81637 0.0
H694 H 0.66701 0.13353 0.97383 0.0
H695 H 0.64384 0.13069 0.94261 0.0
H696 H 0.61718 0.11162 0.7754 0.0
H697 H 0.63137 0.12971 0.84173 0.0
H698 H 0.68174 0.0746 0.79647 0.0
H699 H 0.6933 0.08997 0.8724 0.0
H700 H 0.65218 0.05478 0.75833 0.0
H701 H 0.63196 0.0558 0.71615 0.0
C702 C 0.87364 0.53915 0.80666 0.0
C703 C 0.89206 0.55368 0.77041 0.0
C704 C 0.89413 0.58172 0.84679 0.0
C705 C 0.87468 0.5675 0.87791 0.0
N706 N 0.84392 0.53356 0.87696 0.0
N707 N 0.91829 0.58928 0.74787 0.0
C708 C 0.86388 0.54644 0.85498 0.0
C709 C 0.90193 0.57512 0.78836 0.0
N710 N 0.86588 0.51829 0.79727 0.0
N711 N 0.90549 0.60131 0.87472 0.0
H712 H 0.92438 0.58506 0.7046 0.0
H713 H 0.92471 0.60529 0.75315 0.0
H714 H 0.90029 0.60668 0.91746 0.0
H715 H 0.92072 0.61165 0.85975 0.0
H716 H 0.85381 0.507 0.82823 0.0
H717 H 0.87278 0.51224 0.7636 0.0
H718 H 0.83454 0.51873 0.85573 0.0
H719 H 0.836 0.53834 0.91116 0.0
C720 C 0.54251 0.67351 0.23636 0.0
C721 C 0.53785 0.65261 0.22911 0.0
C722 C 0.5542 0.66085 0.10895 0.0
C723 C 0.55622 0.68084 0.11251 0.0
N724 N 0.54834 0.70462 0.17487 0.0
N725 N 0.53663 0.62546 0.15396 0.0
C726 C 0.54941 0.68682 0.17509 0.0
C727 C 0.5431 0.64602 0.16433 0.0
N728 N 0.54091 0.68086 0.30242 0.0
N729 N 0.56336 0.65619 0.05371 0.0
H730 H 0.52826 0.61406 0.19255 0.0
H731 H 0.53799 0.61944 0.10471 0.0
H732 H 0.57182 0.66672 0.0128 0.0
H733 H 0.56425 0.64267 0.05219 0.0
H734 H 0.5461 0.69651 0.31232 0.0
H735 H 0.53648 0.67177 0.34911 0.0
H736 H 0.54141 0.7085 0.21624 0.0
H737 H 0.55237 0.71447 0.13031 0.0
C738 C 0.32653 0.90881 0.18668 0.0
C739 C 0.33528 0.89643 0.20602 0.0
C740 C 0.31248 0.86954 0.11976 0.0
C741 C 0.30269 0.88119 0.10426 0.0
N742 N 0.29848 0.91066 0.12769 0.0
N743 N 0.33418 0.8635 0.20139 0.0
C744 C 0.30918 0.9005 0.13908 0.0
C745 C 0.32764 0.8764 0.17521 0.0
N746 N 0.33524 0.92873 0.21199 0.0
N747 N 0.30755 0.85208 0.08037 0.0
H748 H 0.34507 0.86777 0.24261 0.0
H749 H 0.3275 0.8479 0.18706 0.0
H750 H 0.29619 0.84624 0.04041 0.0
H751 H 0.31582 0.84428 0.0831 0.0
H752 H 0.33107 0.93936 0.19421 0.0
H753 H 0.34778 0.93517 0.24738 0.0
H754 H 0.30091 0.92363 0.15706 0.0
H755 H 0.28612 0.90526 0.09168 0.0
C756 C 0.09886 0.4551 0.16615 0.0
C757 C 0.0834 0.4411 0.21483 0.0
C758 C 0.08654 0.41223 0.16438 0.0
C759 C 0.10088 0.42598 0.11239 0.0
N760 N 0.11874 0.45993 0.05685 0.0
N761 N 0.06014 0.40597 0.25369 0.0
C762 C 0.10631 0.44721 0.11087 0.0
C763 C 0.07661 0.41954 0.21227 0.0
N764 N 0.10744 0.47609 0.17559 0.0
N765 N 0.08258 0.39221 0.1684 0.0
H766 H 0.05242 0.41077 0.28885 0.0
H767 H 0.05301 0.38988 0.24907 0.0
H768 H 0.08875 0.38604 0.13196 0.0
H769 H 0.07422 0.38208 0.21025 0.0
H770 H 0.12038 0.48712 0.14733 0.0
H771 H 0.10292 0.48263 0.21648 0.0
H772 H 0.12107 0.47475 0.04748 0.0
H773 H 0.12566 0.45524 0.01793 0.0
C774 C 0.07962 0.66112 0.22883 0.0
C775 C 0.08256 0.64372 0.22566 0.0
C776 C 0.10302 0.65746 0.11439 0.0
C777 C 0.10174 0.67577 0.12151 0.0
N778 N 0.09062 0.69621 0.18856 0.0
N779 N 0.10008 0.62704 0.17316 0.0
C780 C 0.09058 0.67795 0.17976 0.0
C781 C 0.09492 0.64223 0.17013 0.0
N782 N 0.06573 0.66116 0.27698 0.0
N783 N 0.11215 0.65465 0.0546 0.0
H784 H 0.09504 0.6159 0.21404 0.0
H785 H 0.11094 0.62655 0.13914 0.0
H786 H 0.11944 0.6659 0.01458 0.0
H787 H 0.11125 0.64058 0.04195 0.0
H788 H 0.06124 0.67231 0.27722 0.0
H789 H 0.05729 0.64901 0.3131 0.0
H790 H 0.08492 0.69977 0.23445 0.0
H791 H 0.09755 0.70844 0.15166 0.0
C792 C 0.33308 0.45447 0.16103 0.0
C793 C 0.33611 0.44076 0.20587 0.0
C794 C 0.30554 0.41085 0.15237 0.0
C795 C 0.30351 0.42447 0.10384 0.0
N796 N 0.31672 0.45896 0.05516 0.0
N797 N 0.32724 0.4059 0.23808 0.0
C798 C 0.3178 0.44618 0.10584 0.0
C799 C 0.32284 0.41892 0.20003 0.0
N800 N 0.34392 0.4754 0.17408 0.0
N801 N 0.29079 0.39023 0.15333 0.0
H802 H 0.3398 0.41128 0.27318 0.0
H803 H 0.31953 0.38986 0.2308 0.0
H804 H 0.27849 0.38363 0.11697 0.0
H805 H 0.28999 0.37989 0.19275 0.0
H806 H 0.34075 0.48599 0.14895 0.0
H807 H 0.35489 0.48216 0.21503 0.0
H808 H 0.32823 0.4744 0.04801 0.0
H809 H 0.30501 0.45385 0.01665 0.0
C810 C 0.53107 0.87729 0.19744 0.0
C811 C 0.54008 0.89911 0.20641 0.0
C812 C 0.56509 0.90505 0.1096 0.0
C813 C 0.55712 0.88328 0.10486 0.0
N814 N 0.53409 0.84862 0.14931 0.0
N815 N 0.56731 0.93388 0.17877 0.0
C816 C 0.54066 0.8694 0.15067 0.0
C817 C 0.5575 0.91305 0.16433 0.0
N818 N 0.51263 0.86409 0.23038 0.0
N819 N 0.57981 0.91806 0.06139 0.0
H820 H 0.56223 0.94026 0.21852 0.0
H821 H 0.58136 0.9447 0.15564 0.0
H822 H 0.58646 0.91289 0.02305 0.0
H823 H 0.58453 0.93375 0.05624 0.0
H824 H 0.50404 0.84822 0.21965 0.0
H825 H 0.5048 0.86918 0.26372 0.0
H826 H 0.52407 0.83812 0.18763 0.0
H827 H 0.53965 0.84193 0.11262 0.0
C828 C 0.17409 0.98824 0.95781 0.0
C829 C 0.18557 0.97908 0.93232 0.0
C830 C 0.21573 0.00394 0.00192 0.0
C831 C 0.20368 0.01184 0.03258 0.0
N832 N 0.17118 0.01083 0.04623 0.0
N833 N 0.216 0.97567 0.93842 0.0
C834 C 0.18278 0.00385 0.0122 0.0
C835 C 0.20608 0.9863 0.95627 0.0
N836 N 0.15514 0.98231 0.92865 0.0
N837 N 0.23653 0.01362 0.01508 0.0
H838 H 0.20958 0.9626 0.90503 0.0
H839 H 0.22993 0.97871 0.96147 0.0
H840 H 0.24419 0.02636 0.04961 0.0
H841 H 0.24654 0.01013 0.98734 0.0
H842 H 0.14677 0.9897 0.93966 0.0
H843 H 0.14843 0.97089 0.88876 0.0
H844 H 0.15529 0.00421 0.03939 0.0
H845 H 0.17726 0.02249 0.08549 0.0
C846 C 0.97748 0.21453 0.02227 0.0
C847 C 0.96994 0.1942 0.04996 0.0
C848 C -0.00651 0.18942 0.97066 0.0
C849 C 0.00215 0.21031 0.94757 0.0
N850 N 0.00512 0.24402 0.9599 0.0
N851 N 0.97202 0.16303 0.05849 0.0
C852 C -0.00512 0.22323 0.97559 0.0
C853 C 0.97827 0.1818 0.02628 0.0
N854 N 0.9675 0.22521 0.03824 0.0
N855 N -0.00056 0.17677 0.93796 0.0
H856 H 0.96087 0.15704 0.09934 0.0
H857 H 0.97896 0.15414 0.049 0.0
H858 H 0.0106 0.18195 0.89712 0.0
H859 H -0.00773 0.16083 0.94702 0.0
H860 H 0.97079 0.23901 0.01276 0.0
H861 H 0.9547 0.2195 0.07257 0.0
H862 H 0.00204 0.25463 0.98567 0.0
H863 H 0.01788 0.25109 0.92541 0.0
C864 C 0.75347 0.7676 0.9841 0.0
C865 C 0.76585 0.78803 0.95666 0.0
C866 C 0.79449 0.7936 0.03519 0.0
C867 C 0.78265 0.77266 0.05835 0.0
N868 N 0.75244 0.73852 0.04614 0.0
N869 N 0.79873 0.81973 0.94766 0.0
C870 C 0.76255 0.75931 0.03051 0.0
C871 C 0.78656 0.80086 0.97992 0.0
N872 N 0.73283 0.75641 0.96809 0.0
N873 N 0.81304 0.8066 0.06751 0.0
H874 H 0.79332 0.82546 0.90698 0.0
H875 H 0.81454 0.82897 0.95687 0.0
H876 H 0.81926 0.80166 0.10805 0.0
H877 H 0.8215 0.82255 0.05842 0.0
H878 H 0.72255 0.74248 0.99348 0.0
H879 H 0.72553 0.76178 0.93365 0.0
H880 H 0.73887 0.72765 0.02052 0.0
H881 H 0.75841 0.73173 0.08045 0.0
C882 C 0.7535 0.97891 0.0034 0.0
C883 C 0.76694 0.97301 0.97067 0.0
C884 C 0.79527 -0.00299 0.0492 0.0
C885 C 0.78244 0.00444 0.07641 0.0
N886 N 0.75035 0.00486 0.07206 0.0
N887 N 0.80083 0.97722 0.95627 0.0
C888 C 0.76176 -0.00405 0.05201 0.0
C889 C 0.7879 0.98223 0.99202 0.0
N890 N 0.73273 0.9679 0.98938 0.0
N891 N 0.81426 0.00377 0.07941 0.0
H892 H 0.7958 0.96628 0.91463 0.0
H893 H 0.81677 0.98492 0.96399 0.0
H894 H 0.81994 0.01445 0.12188 0.0
H895 H 0.82365 -0.00241 0.06689 0.0
H896 H 0.72187 0.96987 0.01828 0.0
H897 H 0.72606 0.95559 0.9527 0.0
H898 H 0.73618 0.00095 0.04892 0.0
H899 H 0.75567 0.01736 0.10773 0.0
C900 C -0.00677 0.76765 0.9817 0.0
C901 C 0.00074 0.78796 0.954 0.0
C902 C 0.97715 0.79271 0.03317 0.0
C903 C 0.96849 0.77181 0.05623 0.0
N904 N 0.96564 0.73815 0.04427 0.0
N905 N -0.00138 0.81911 0.94542 0.0
C906 C 0.97582 0.75893 0.02841 0.0
C907 C -0.00761 0.80035 0.97764 0.0
N908 N 0.00321 0.75697 0.96556 0.0
N909 N 0.97117 0.80535 0.06584 0.0
H910 H 0.00979 0.82513 0.90464 0.0
H911 H -0.00835 0.82798 0.95484 0.0
H912 H 0.96001 0.80016 0.10666 0.0
H913 H 0.97833 0.82128 0.05681 0.0
H914 H -5e-05 0.74318 0.99098 0.0
H915 H 0.01596 0.7627 0.93102 0.0
H916 H 0.96875 0.72755 0.01868 0.0
H917 H 0.95289 0.73108 0.07882 0.0
C918 C 0.18325 0.18148 0.02206 0.0
C919 C 0.20403 0.19428 0.04454 0.0
C920 C 0.20732 0.22286 0.96984 0.0
C921 C 0.18712 0.20953 0.94282 0.0
N922 N 0.15656 0.17568 0.93529 0.0
N923 N 0.23715 0.22571 0.03125 0.0
C924 C 0.17523 0.18868 0.96682 0.0
C925 C 0.21644 0.2146 0.0162 0.0
N926 N 0.1711 0.16272 0.05502 0.0
N927 N 0.21751 0.2436 0.95347 0.0
H928 H 0.24451 0.22036 0.06552 0.0
H929 H 0.24741 0.23952 0.00519 0.0
H930 H 0.2115 0.25036 0.91917 0.0
H931 H 0.23118 0.25448 0.97852 0.0
H932 H 0.15525 0.15352 0.04641 0.0
H933 H 0.17658 0.15704 0.09561 0.0
H934 H 0.14803 0.15976 0.94501 0.0
H935 H 0.15027 0.18055 0.8948 0.0
C936 C 0.84946 0.33324 0.36386 0.0
C937 C 0.87022 0.34163 0.38677 0.0
C938 C 0.87388 0.31649 0.31231 0.0
C939 C 0.85373 0.30927 0.28462 0.0
N940 N 0.82301 0.3119 0.27642 0.0
N941 N 0.90348 0.34394 0.37437 0.0
C942 C 0.84165 0.31793 0.30839 0.0
C943 C 0.8828 0.33398 0.35884 0.0
N944 N 0.83713 0.33956 0.39655 0.0
N945 N 0.8842 0.30614 0.2964 0.0
H946 H 0.91071 0.35677 0.40874 0.0
H947 H 0.91386 0.3406 0.34859 0.0
H948 H 0.87832 0.29327 0.26212 0.0
H949 H 0.89784 0.30918 0.32189 0.0
H950 H 0.8213 0.33262 0.38758 0.0
H951 H 0.84247 0.35078 0.43729 0.0
H952 H 0.81435 0.31908 0.28598 0.0
H953 H 0.81687 0.30066 0.23579 0.0
C954 C 0.65748 0.52021 0.30389 0.0
C955 C 0.66604 0.54096 0.27934 0.0
C956 C 0.64151 0.54553 0.35357 0.0
C957 C 0.63413 0.5254 0.38285 0.0
N958 N 0.63633 0.49434 0.39365 0.0
N959 N 0.669 0.57472 0.28965 0.0
C960 C 0.64243 0.5129 0.36007 0.0
C961 C 0.65881 0.55401 0.30645 0.0
N962 N 0.66336 0.50739 0.27204 0.0
N963 N 0.6315 0.55624 0.36855 0.0
H964 H 0.68175 0.58167 0.25507 0.0
H965 H 0.66593 0.58543 0.31472 0.0
H966 H 0.61878 0.55069 0.40316 0.0
H967 H 0.63467 0.56985 0.34195 0.0
H968 H 0.65625 0.49152 0.28227 0.0
H969 H 0.67436 0.51234 0.23074 0.0
H970 H 0.64327 0.48543 0.3848 0.0
H971 H 0.62529 0.48857 0.43491 0.0
C972 C 0.45629 0.13982 0.32421 0.0
C973 C 0.43632 0.12641 0.29566 0.0
C974 C 0.4326 0.0977 0.37104 0.0
C975 C 0.4531 0.11076 0.39639 0.0
N976 N 0.48521 0.14341 0.39519 0.0
N977 N 0.40551 0.0926 0.28746 0.0
C978 C 0.46517 0.13163 0.37248 0.0
C979 C 0.42446 0.10535 0.31798 0.0
N980 N 0.46658 0.16041 0.30568 0.0
N981 N 0.42091 0.07798 0.39803 0.0
H982 H 0.39829 0.09784 0.25212 0.0
H983 H 0.39716 0.07655 0.29396 0.0
H984 H 0.42666 0.07112 0.43289 0.0
H985 H 0.40512 0.06855 0.38916 0.0
H986 H 0.48022 0.17158 0.32999 0.0
H987 H 0.46088 0.16667 0.26802 0.0
H988 H 0.49568 0.15793 0.37407 0.0
H989 H 0.49179 0.13822 0.43347 0.0
C990 C 0.42221 0.31901 0.31585 0.0
C991 C 0.43534 0.31179 0.28985 0.0
C992 C 0.46237 0.33453 0.37502 0.0
C993 C 0.44991 0.34297 0.39645 0.0
N994 N 0.41949 0.34594 0.37965 0.0
N995 N 0.46853 0.31393 0.28723 0.0
C996 C 0.43021 0.33592 0.36496 0.0
C997 C 0.45562 0.31987 0.31748 0.0
N998 N 0.40184 0.30918 0.29585 0.0
N999 N 0.48038 0.34018 0.41102 0.0
H1000 H 0.46399 0.30322 0.24496 0.0
H1001 H 0.48416 0.32072 0.29983 0.0
H1002 H 0.48567 0.35087 0.4535 0.0
H1003 H 0.48923 0.33315 0.403 0.0
H1004 H 0.39096 0.31212 0.31985 0.0
H1005 H 0.39532 0.29684 0.25929 0.0
H1006 H 0.40629 0.34315 0.35151 0.0
H1007 H 0.42459 0.35825 0.41612 0.0
C1008 C 0.66205 0.10435 0.30952 0.0
C1009 C 0.67005 0.12476 0.282 0.0
C1010 C 0.64717 0.13034 0.36208 0.0
C1011 C 0.63806 0.1094 0.38511 0.0
N1012 N 0.634 0.07524 0.37189 0.0
N1013 N 0.66886 0.15643 0.27383 0.0
C1014 C 0.64473 0.09604 0.35651 0.0
C1015 C 0.66225 0.13759 0.30606 0.0
N1016 N 0.67152 0.0932 0.2931 0.0
N1017 N 0.64177 0.14337 0.39522 0.0
H1018 H 0.67991 0.16215 0.23259 0.0
H1019 H 0.66231 0.16566 0.28367 0.0
H1020 H 0.63074 0.13846 0.43642 0.0
H1021 H 0.6493 0.15932 0.38617 0.0
H1022 H 0.66789 0.07929 0.31846 0.0
H1023 H 0.68423 0.09862 0.2585 0.0
H1024 H 0.63665 0.06439 0.34574 0.0
H1025 H 0.62123 0.06842 0.40643 0.0
C1026 C 0.8799 0.54503 0.34911 0.0
C1027 C 0.86772 0.52452 0.37612 0.0
C1028 C 0.83928 0.51846 0.29565 0.0
C1029 C 0.85082 0.53952 0.27344 0.0
N1030 N 0.88057 0.57393 0.28713 0.0
N1031 N 0.83542 0.49216 0.38195 0.0
C1032 C 0.87075 0.55311 0.30216 0.0
C1033 C 0.84728 0.51129 0.35115 0.0
N1034 N 0.90043 0.55658 0.36646 0.0
N1035 N 0.82096 0.5053 0.26236 0.0
H1036 H 0.84098 0.48645 0.42225 0.0
H1037 H 0.81973 0.48252 0.37154 0.0
H1038 H 0.81473 0.51019 0.22169 0.0
H1039 H 0.81269 0.48932 0.27087 0.0
H1040 H 0.91065 0.5706 0.34142 0.0
H1041 H 0.90776 0.55143 0.40168 0.0
H1042 H 0.89392 0.58492 0.31353 0.0
H1043 H 0.87455 0.5806 0.25251 0.0
C1044 C 0.50854 0.65334 0.61689 0.0
C1045 C 0.52098 0.64486 0.59558 0.0
C1046 C 0.54873 0.6689 0.67585 0.0
C1047 C 0.53559 0.6761 0.70194 0.0
N1048 N 0.50242 0.67402 0.70444 0.0
N1049 N 0.55147 0.64199 0.61198 0.0
C1050 C 0.51532 0.66804 0.6743 0.0
C1051 C 0.54073 0.65197 0.62681 0.0
N1052 N 0.49052 0.64766 0.58093 0.0
N1053 N 0.5691 0.67875 0.69579 0.0
H1054 H 0.54637 0.62969 0.57546 0.0
H1055 H 0.5647 0.64482 0.63997 0.0
H1056 H 0.57563 0.69111 0.73232 0.0
H1057 H 0.57999 0.67582 0.67179 0.0
H1058 H 0.48168 0.6547 0.58887 0.0
H1059 H 0.48522 0.63695 0.53852 0.0
H1060 H 0.4868 0.66724 0.69187 0.0
H1061 H 0.50699 0.68479 0.74656 0.0
C1062 C 0.30917 0.85091 0.68246 0.0
C1063 C 0.30139 0.86378 0.70629 0.0
C1064 C 0.32663 0.89235 0.63096 0.0
C1065 C 0.33334 0.87897 0.60286 0.0
N1066 N 0.32956 0.84497 0.59342 0.0
N1067 N 0.29989 0.89529 0.69439 0.0
C1068 C 0.32421 0.85806 0.62629 0.0
C1069 C 0.30934 0.88412 0.67819 0.0
N1070 N 0.30259 0.83213 0.71511 0.0
N1071 N 0.33731 0.91312 0.61498 0.0
H1072 H 0.28723 0.88994 0.72923 0.0
H1073 H 0.30347 0.90915 0.6687 0.0
H1074 H 0.35002 0.91986 0.58019 0.0
H1075 H 0.33465 0.92401 0.64075 0.0
H1076 H 0.30915 0.8229 0.70549 0.0
H1077 H 0.29159 0.82647 0.75648 0.0
H1078 H 0.32202 0.82902 0.60278 0.0
H1079 H 0.34054 0.84979 0.55207 0.0
C1080 C 0.0989 0.42969 0.689 0.0
C1081 C 0.119 0.44273 0.71731 0.0
C1082 C 0.12356 0.47127 0.63931 0.0
C1083 C 0.10288 0.45874 0.61544 0.0
N1084 N 0.06953 0.42746 0.62628 0.0
N1085 N 0.14971 0.47639 0.72746 0.0
C1086 C 0.09016 0.43832 0.64255 0.0
C1087 C 0.13117 0.46368 0.69463 0.0
N1088 N 0.08845 0.40887 0.70424 0.0
N1089 N 0.13601 0.49015 0.6076 0.0
H1090 H 0.15569 0.47122 0.76807 0.0
H1091 H 0.15842 0.49235 0.71872 0.0
H1092 H 0.13083 0.49612 0.56698 0.0
H1093 H 0.15182 0.49919 0.61726 0.0
H1094 H 0.07486 0.39821 0.67822 0.0
H1095 H 0.09417 0.40185 0.73862 0.0
H1096 H 0.05904 0.41357 0.65144 0.0
H1097 H 0.06243 0.43309 0.59197 0.0
C1098 C 0.1289 0.66388 0.70983 0.0
C1099 C 0.11746 0.67345 0.73126 0.0
C1100 C 0.08822 0.64916 0.65683 0.0
C1101 C 0.10038 0.6409 0.62998 0.0
N1102 N 0.13259 0.64101 0.62481 0.0
N1103 N 0.08761 0.67759 0.71787 0.0
C1104 C 0.12081 0.64836 0.65501 0.0
C1105 C 0.09744 0.66669 0.70312 0.0
N1106 N 0.14725 0.66937 0.7431 0.0
N1107 N 0.06767 0.63987 0.63972 0.0
H1108 H 0.09365 0.69046 0.75216 0.0
H1109 H 0.07419 0.67495 0.69171 0.0
H1110 H 0.06032 0.62717 0.6049 0.0
H1111 H 0.05747 0.64362 0.66459 0.0
H1112 H 0.15548 0.66168 0.73512 0.0
H1113 H 0.15352 0.68074 0.78333 0.0
H1114 H 0.14827 0.64724 0.63519 0.0
H1115 H 0.12695 0.62947 0.58514 0.0
C1116 C 0.30952 0.42941 0.67964 0.0
C1117 C 0.30178 0.4419 0.70791 0.0
C1118 C 0.32504 0.47067 0.62886 0.0
C1119 C 0.3339 0.45875 0.60516 0.0
N1120 N 0.33738 0.42833 0.61694 0.0
N1121 N 0.30347 0.47499 0.71748 0.0
C1122 C 0.3269 0.43852 0.63288 0.0
C1123 C 0.30988 0.46272 0.68467 0.0
N1124 N 0.29976 0.40863 0.6952 0.0
N1125 N 0.33074 0.48931 0.59656 0.0
H1126 H 0.29236 0.46957 0.7585 0.0
H1127 H 0.31023 0.49088 0.7083 0.0
H1128 H 0.34184 0.49553 0.55558 0.0
H1129 H 0.32342 0.49783 0.6061 0.0
H1130 H 0.3032 0.39829 0.66928 0.0
H1131 H 0.287 0.40126 0.72962 0.0
H1132 H 0.33448 0.41467 0.64248 0.0
H1133 H 0.35019 0.43435 0.58261 0.0
C1134 C 0.51537 0.85027 0.68192 0.0
C1135 C 0.536 0.86328 0.70565 0.0
C1136 C 0.53899 0.89199 0.63256 0.0
C1137 C 0.51901 0.87847 0.60409 0.0
N1138 N 0.48891 0.84437 0.59401 0.0
N1139 N 0.56878 0.89523 0.69546 0.0
C1140 C 0.50735 0.85748 0.62673 0.0
C1141 C 0.54819 0.88382 0.67892 0.0
N1142 N 0.50335 0.8313 0.71368 0.0
N1143 N 0.54887 0.91281 0.61745 0.0
H1144 H 0.57617 0.88993 0.72984 0.0
H1145 H 0.57897 0.90928 0.67058 0.0
H1146 H 0.5428 0.9195 0.58317 0.0
H1147 H 0.56232 0.92376 0.64348 0.0
H1148 H 0.48757 0.8219 0.70411 0.0
H1149 H 0.50882 0.82561 0.7543 0.0
H1150 H 0.4806 0.82839 0.60268 0.0
H1151 H 0.4826 0.84926 0.55363 0.0
C1152 C 0.33349 0.09242 0.2233 0.0
C1153 C 0.3425 0.09928 0.15383 0.0
C1154 C 0.30801 0.08038 0.10036 0.0
C1155 C 0.29907 0.07789 0.17019 0.0
N1156 N 0.30389 0.08355 0.29938 0.0
N1157 N 0.33794 0.10107 0.02511 0.0
C1158 C 0.3119 0.08413 0.23232 0.0
C1159 C 0.32971 0.09336 0.0917 0.0
N1160 N 0.34557 0.09367 0.28054 0.0
N1161 N 0.29578 0.0701 0.04247 0.0
H1162 H 0.35368 0.11099 0.01604 0.0
H1163 H 0.32887 0.09902 0.97974 0.0
H1164 H 0.2799 0.05985 0.04746 0.0
H1165 H 0.30171 0.06993 0.99158 0.0
H1166 H 0.33952 0.08723 0.331 0.0
H1167 H 0.36136 0.09902 0.27512 0.0
H1168 H 0.31311 0.09012 0.34491 0.0
H1169 H 0.2883 0.07827 0.30887 0.0
C1170 C 0.86151 0.21169 0.15575 0.0
C1171 C 0.87228 0.23372 0.15393 0.0
C1172 C 0.90513 0.23427 0.16924 0.0
C1173 C 0.89399 0.21239 0.17954 0.0
N1174 N 0.86123 0.18106 0.19999 0.0
N1175 N 0.90406 0.26627 0.17183 0.0
C1176 C 0.87206 0.20133 0.1779 0.0
C1177 C 0.89405 0.24516 0.16408 0.0
N1178 N 0.84134 0.20059 0.13389 0.0
N1179 N 0.92614 0.24456 0.16138 0.0
H1180 H 0.89652 0.27482 0.1691 0.0
H1181 H 0.91951 0.27509 0.18715 0.0
H1182 H 0.93482 0.23717 0.16413 0.0
H1183 H 0.93476 0.26011 0.14595 0.0
H1184 H 0.83339 0.18449 0.1277 0.0
H1185 H 0.83327 0.2076 0.11425 0.0
H1186 H 0.8452 0.1729 0.20632 0.0
H1187 H 0.86837 0.17312 0.21967 0.0
C1188 C 0.73178 0.64606 0.16561 0.0
C1189 C 0.74283 0.6354 0.154 0.0
C1190 C 0.77539 0.66732 0.17962 0.0
C1191 C 0.76471 0.67853 0.18296 0.0
N1192 N 0.73307 0.67925 0.16627 0.0
N1193 N 0.7755 0.63706 0.13289 0.0
C1194 C 0.74296 0.66811 0.17255 0.0
C1195 C 0.76476 0.6464 0.15599 0.0
N1196 N 0.71075 0.63515 0.17299 0.0
N1197 N 0.79555 0.67644 0.20139 0.0
H1198 H 0.76828 0.62197 0.11225 0.0
H1199 H 0.79153 0.64503 0.12678 0.0
H1200 H 0.80368 0.69153 0.22193 0.0
H1201 H 0.80345 0.6683 0.20652 0.0
H1202 H 0.70218 0.64197 0.18936 0.0
H1203 H 0.702 0.61901 0.16881 0.0
H1204 H 0.71765 0.67261 0.15076 0.0
H1205 H 0.74067 0.6954 0.17047 0.0
C1206 C 0.06813 0.31549 0.82918 0.0
C1207 C 0.07923 0.30482 0.81892 0.0
C1208 C 0.11177 0.33699 0.84205 0.0
C1209 C 0.10102 0.34815 0.84402 0.0
N1210 N 0.06927 0.34858 0.82623 0.0
N1211 N 0.11191 0.30646 0.79854 0.0
C1212 C 0.07925 0.33758 0.83406 0.0
C1213 C 0.10116 0.31589 0.82035 0.0
N1214 N 0.04712 0.30457 0.83732 0.0
N1215 N 0.13198 0.34634 0.86343 0.0
H1216 H 0.1047 0.29121 0.77937 0.0
H1217 H 0.12793 0.31443 0.79198 0.0
H1218 H 0.14012 0.36158 0.88264 0.0
H1219 H 0.13994 0.33829 0.8696 0.0
H1220 H 0.03855 0.31146 0.85278 0.0
H1221 H 0.03841 0.2884 0.83482 0.0
H1222 H 0.0538 0.34176 0.81102 0.0
H1223 H 0.07683 0.36476 0.82867 0.0
C1224 C 0.66113 0.78235 0.82387 0.0
C1225 C 0.67153 0.77084 0.82336 0.0
C1226 C 0.63822 0.73847 0.83527 0.0
C1227 C 0.62825 0.7503 0.84417 0.0
N1228 N 0.6311 0.7837 0.86416 0.0
N1229 N 0.67044 0.73818 0.84093 0.0
C1230 C 0.63999 0.77232 0.84356 0.0
C1231 C 0.66023 0.74892 0.83234 0.0
N1232 N 0.67127 0.80274 0.80303 0.0
N1233 N 0.62674 0.7174 0.82655 0.0
H1234 H 0.68652 0.74526 0.83946 0.0
H1235 H 0.66305 0.72255 0.85552 0.0
H1236 H 0.61062 0.70917 0.82784 0.0
H1237 H 0.63316 0.70833 0.81199 0.0
H1238 H 0.66385 0.81127 0.79582 0.0
H1239 H 0.6866 0.81048 0.7852 0.0
H1240 H 0.6395 0.79977 0.87125 0.0
H1241 H 0.6158 0.77691 0.88186 0.0
C1242 C 0.19147 0.87946 0.82002 0.0
C1243 C 0.20193 0.90144 0.81484 0.0
C1244 C 0.23523 0.90277 0.82737 0.0
C1245 C 0.22452 0.88101 0.84023 0.0
N1246 N 0.19234 0.84957 0.86611 0.0
N1247 N 0.23356 0.93444 0.82722 0.0
C1248 C 0.20259 0.86963 0.84174 0.0
C1249 C 0.22379 0.91327 0.8222 0.0
N1250 N 0.17106 0.86786 0.80145 0.0
N1251 N 0.25616 0.91327 0.81705 0.0
H1252 H 0.22576 0.94273 0.82448 0.0
H1253 H 0.24914 0.94364 0.84045 0.0
H1254 H 0.2651 0.90617 0.82003 0.0
H1255 H 0.26441 0.92865 0.79958 0.0
H1256 H 0.16325 0.8517 0.79755 0.0
H1257 H 0.16252 0.87442 0.78228 0.0
H1258 H 0.17641 0.84122 0.87482 0.0
H1259 H 0.19997 0.84203 0.88514 0.0
C1260 C 0.66409 0.91306 0.83182 0.0
C1261 C 0.67392 0.90114 0.82172 0.0
C1262 C 0.64083 0.86913 0.83941 0.0
C1263 C 0.63057 0.88077 0.84096 0.0
N1264 N 0.63203 0.91371 0.82651 0.0
N1265 N 0.67079 0.86775 0.79839 0.0
C1266 C 0.64207 0.90275 0.83395 0.0
C1267 C 0.66201 0.87914 0.82031 0.0
N1268 N 0.67569 0.93404 0.84241 0.0
N1269 N 0.63053 0.84862 0.8588 0.0
H1270 H 0.68611 0.87456 0.781 0.0
H1271 H 0.66227 0.85175 0.78988 0.0
H1272 H 0.61518 0.84089 0.87641 0.0
H1273 H 0.63785 0.83995 0.86516 0.0
H1274 H 0.66934 0.94312 0.85786 0.0
H1275 H 0.69181 0.94215 0.84173 0.0
H1276 H 0.63959 0.92945 0.8134 0.0
H1277 H 0.61596 0.90674 0.82746 0.0
C1278 C 0.06729 0.75013 0.8304 0.0
C1279 C 0.07797 0.7719 0.81785 0.0
C1280 C 0.11106 0.7735 0.83744 0.0
C1281 C 0.10062 0.75151 0.84267 0.0
N1282 N 0.06903 0.71849 0.82997 0.0
N1283 N 0.11008 0.80339 0.79191 0.0
C1284 C 0.07877 0.73966 0.83526 0.0
C1285 C 0.09989 0.78331 0.81608 0.0
N1286 N 0.04636 0.73958 0.84083 0.0
N1287 N 0.13149 0.78512 0.85577 0.0
H1288 H 0.1024 0.81092 0.77329 0.0
H1289 H 0.126 0.81178 0.783 0.0
H1290 H 0.14007 0.77859 0.87472 0.0
H1291 H 0.13929 0.80128 0.85969 0.0
H1292 H 0.03815 0.72418 0.85814 0.0
H1293 H 0.03739 0.74665 0.8381 0.0
H1294 H 0.05345 0.70929 0.81675 0.0
H1295 H 0.07686 0.71023 0.83234 0.0
C1296 C 0.22595 0.31404 0.8223 0.0
C1297 C 0.20414 0.30333 0.81324 0.0
C1298 C 0.20384 0.33549 0.83731 0.0
C1299 C 0.22578 0.34669 0.83794 0.0
N1300 N 0.25794 0.34716 0.81801 0.0
N1301 N 0.17301 0.30492 0.79499 0.0
C1302 C 0.23696 0.33614 0.82697 0.0
C1303 C 0.19328 0.31438 0.81572 0.0
N1304 N 0.23608 0.30315 0.82949 0.0
N1305 N 0.19303 0.3448 0.85984 0.0
H1306 H 0.16491 0.28967 0.77585 0.0
H1307 H 0.16496 0.31288 0.78923 0.0
H1308 H 0.20021 0.36005 0.87906 0.0
H1309 H 0.17704 0.33673 0.86695 0.0
H1310 H 0.25159 0.31008 0.84406 0.0
H1311 H 0.2286 0.28698 0.82713 0.0
H1312 H 0.26654 0.34036 0.80207 0.0
H1313 H 0.26657 0.36334 0.82032 0.0
C1314 C 0.86883 0.66643 0.1814 0.0
C1315 C 0.89075 0.67733 0.18284 0.0
C1316 C 0.89041 0.64449 0.16491 0.0
C1317 C 0.86864 0.63414 0.15477 0.0
N1318 N 0.83786 0.63638 0.13699 0.0
N1319 N 0.92271 0.67735 0.16363 0.0
C1320 C 0.85805 0.64545 0.15832 0.0
C1321 C 0.90169 0.66655 0.1714 0.0
N1322 N 0.85823 0.67592 0.20433 0.0
N1323 N 0.90022 0.63328 0.17133 0.0
H1324 H 0.93155 0.69349 0.1675 0.0
H1325 H 0.93119 0.67044 0.14728 0.0
H1326 H 0.89253 0.61712 0.16768 0.0
H1327 H 0.91566 0.63988 0.18657 0.0
H1328 H 0.84221 0.66805 0.21089 0.0
H1329 H 0.86557 0.69109 0.22435 0.0
H1330 H 0.83002 0.64458 0.13192 0.0
H1331 H 0.82961 0.62126 0.11676 0.0
C1332 C 0.33206 0.24758 0.15864 0.0
C1333 C 0.3426 0.23633 0.14904 0.0
C1334 C 0.31035 0.20368 0.16983 0.0
C1335 C 0.29936 0.21459 0.17154 0.0
N1336 N 0.29922 0.24668 0.15493 0.0
N1337 N 0.34081 0.20348 0.12746 0.0
C1338 C 0.31004 0.23652 0.16253 0.0
C1339 C 0.33143 0.2143 0.1492 0.0
N1340 N 0.34303 0.26868 0.16706 0.0
N1341 N 0.30088 0.1833 0.19068 0.0
H1342 H 0.35608 0.21073 0.10917 0.0
H1343 H 0.3328 0.18742 0.12002 0.0
H1344 H 0.28565 0.17514 0.20939 0.0
H1345 H 0.3088 0.17523 0.19704 0.0
H1346 H 0.33624 0.27737 0.18214 0.0
H1347 H 0.35913 0.27733 0.16474 0.0
H1348 H 0.30612 0.26229 0.14048 0.0
H1349 H 0.28311 0.23912 0.15705 0.0
C1350 C 0.76767 0.11684 0.15328 0.0
C1351 C 0.74574 0.106 0.15326 0.0
C1352 C 0.74529 0.07321 0.1735 0.0
C1353 C 0.76711 0.08453 0.18231 0.0
N1354 N 0.79847 0.11766 0.19682 0.0
N1355 N 0.71345 0.07428 0.17546 0.0
C1356 C 0.77814 0.10652 0.17682 0.0
C1357 C 0.73442 0.08426 0.16648 0.0
N1358 N 0.77853 0.13686 0.12869 0.0
N1359 N 0.73502 0.05202 0.16894 0.0
H1360 H 0.70491 0.08179 0.1712 0.0
H1361 H 0.70475 0.05895 0.19312 0.0
H1362 H 0.7424 0.04335 0.17307 0.0
H1363 H 0.71948 0.04317 0.15474 0.0
H1364 H 0.79451 0.14481 0.12111 0.0
H1365 H 0.77138 0.14474 0.1084 0.0
H1366 H 0.80665 0.13382 0.20047 0.0
H1367 H 0.80653 0.11074 0.21738 0.0
C1368 C -0.00233 0.4176 0.49697 0.0
C1369 C 0.00836 0.43947 0.48669 0.0
C1370 C 0.97644 0.44001 0.5096 0.0
C1371 C 0.96525 0.41798 0.51178 0.0
N1372 N 0.96461 0.38549 0.49501 0.0
N1373 N 0.00688 0.47069 0.46552 0.0
C1374 C 0.97567 0.40662 0.50214 0.0
C1375 C -0.00258 0.45044 0.48776 0.0
N1376 N 0.00847 0.40742 0.5047 0.0
N1377 N 0.96725 0.45104 0.53097 0.0
H1378 H 0.02206 0.47869 0.44621 0.0
H1379 H -0.00101 0.47877 0.45869 0.0
H1380 H 0.9521 0.44398 0.55037 0.0
H1381 H 0.97535 0.46715 0.537 0.0
H1382 H 0.00159 0.39189 0.52016 0.0
H1383 H 0.02455 0.41489 0.50154 0.0
H1384 H 0.9713 0.37668 0.4801 0.0
H1385 H 0.94852 0.3769 0.49797 0.0
C1386 C 0.57021 0.56653 0.49824 0.0
C1387 C 0.55899 0.54477 0.51112 0.0
C1388 C 0.52653 0.54407 0.48702 0.0
C1389 C 0.53743 0.56608 0.48227 0.0
N1390 N 0.56939 0.59865 0.49727 0.0
N1391 N 0.52622 0.5138 0.53522 0.0
C1392 C 0.55923 0.57748 0.49163 0.0
C1393 C 0.53706 0.53383 0.5107 0.0
N1394 N 0.59118 0.57662 0.48924 0.0
N1395 N 0.50627 0.53285 0.46628 0.0
H1396 H 0.53339 0.50598 0.5559 0.0
H1397 H 0.51023 0.50579 0.54245 0.0
H1398 H 0.49819 0.53972 0.44548 0.0
H1399 H 0.49821 0.5167 0.46219 0.0
H1400 H 0.59979 0.592 0.47192 0.0
H1401 H 0.59979 0.56918 0.49289 0.0
H1402 H 0.5849 0.6075 0.51185 0.0
H1403 H 0.56194 0.60726 0.49385 0.0
C1404 C 0.4132 0.00577 0.50189 0.0
C1405 C 0.43491 0.01577 0.51298 0.0
C1406 C 0.43426 0.98333 0.48502 0.0
C1407 C 0.41235 0.97275 0.4823 0.0
N1408 N 0.38061 0.9732 0.50104 0.0
N1409 N 0.46529 0.01287 0.53166 0.0
C1410 C 0.40166 0.98375 0.49415 0.0
C1411 C 0.44521 0.00418 0.50938 0.0
N1412 N 0.40369 0.01728 0.49564 0.0
N1413 N 0.4447 0.97368 0.46195 0.0
H1414 H 0.47363 0.02789 0.55273 0.0
H1415 H 0.47289 0.00445 0.53665 0.0
H1416 H 0.43726 0.95863 0.44091 0.0
H1417 H 0.46074 0.98137 0.45631 0.0
H1418 H 0.38834 0.01096 0.47965 0.0
H1419 H 0.41156 0.03342 0.50023 0.0
H1420 H 0.37228 0.98025 0.5176 0.0
H1421 H 0.37159 0.95709 0.49633 0.0
C1422 C 0.57101 0.00457 0.49582 0.0
C1423 C 0.56017 0.01544 0.50773 0.0
C1424 C 0.52746 0.98385 0.48065 0.0
C1425 C 0.53789 0.97239 0.4773 0.0
N1426 N 0.56926 0.97118 0.49465 0.0
N1427 N 0.52767 0.01418 0.52824 0.0
C1428 C 0.55961 0.98255 0.48829 0.0
C1429 C 0.53826 0.0047 0.50503 0.0
N1430 N 0.59205 0.01527 0.48868 0.0
N1431 N 0.50738 0.97503 0.45826 0.0
H1432 H 0.53499 0.02921 0.5495 0.0
H1433 H 0.51163 0.00637 0.53384 0.0
H1434 H 0.49914 0.96 0.43719 0.0
H1435 H 0.49967 0.98335 0.45317 0.0
H1436 H 0.60046 0.0083 0.47215 0.0
H1437 H 0.60097 0.03139 0.49307 0.0
H1438 H 0.58463 0.97762 0.51059 0.0
H1439 H 0.5615 0.95503 0.49015 0.0
C1440 C 0.97131 0.55985 0.44057 0.0
C1441 C 0.96265 0.55332 0.5107 0.0
C1442 C -0.0026 0.57256 0.56196 0.0
C1443 C 0.006 0.57475 0.4917 0.0
N1444 N 0.00062 0.56864 0.36293 0.0
N1445 N 0.96795 0.55199 0.63919 0.0
C1446 C -0.00712 0.56822 0.43035 0.0
C1447 C 0.97577 0.55952 0.57203 0.0
N1448 N 0.95893 0.55826 0.38387 0.0
N1449 N 0.0099 0.58313 0.61897 0.0
H1450 H 0.95231 0.5419 0.64935 0.0
H1451 H 0.9773 0.5543 0.68396 0.0
H1452 H 0.02574 0.59338 0.61296 0.0
H1453 H 0.0042 0.58352 0.67008 0.0
H1454 H 0.96471 0.56446 0.33293 0.0
H1455 H 0.94315 0.55285 0.39009 0.0
H1456 H -0.00877 0.56185 0.31795 0.0
H1457 H 0.01621 0.5741 0.35267 0.0
C1458 C 0.43263 0.45304 0.48277 0.0
C1459 C 0.41071 0.44188 0.48085 0.0
C1460 C 0.41076 0.4093 0.49941 0.0
C1461 C 0.43251 0.42086 0.51022 0.0
N1462 N 0.46338 0.45418 0.52853 0.0
N1463 N 0.37859 0.40973 0.49981 0.0
C1464 C 0.44323 0.44288 0.50659 0.0
C1465 C 0.39962 0.42006 0.49243 0.0
N1466 N 0.4434 0.4732 0.45955 0.0
N1467 N 0.40085 0.38816 0.49277 0.0
H1468 H 0.36985 0.41702 0.49567 0.0
H1469 H 0.37001 0.39426 0.51619 0.0
H1470 H 0.40844 0.37968 0.4965 0.0
H1471 H 0.38543 0.37922 0.47711 0.0
H1472 H 0.45942 0.4814 0.45335 0.0
H1473 H 0.4362 0.48099 0.43891 0.0
H1474 H 0.47128 0.47031 0.53348 0.0
H1475 H 0.4715 0.44735 0.54937 0.0
C1476 C 0.2306 0.10544 0.34486 0.0
C1477 C 0.21535 0.08854 0.30457 0.0
C1478 C 0.19666 0.10708 0.28522 0.0
C1479 C 0.21469 0.12551 0.30636 0.0
N1480 N 0.24578 0.14206 0.37668 0.0
N1481 N 0.18106 0.07022 0.25665 0.0
C1482 C 0.23041 0.12446 0.3452 0.0
C1483 C 0.19707 0.08822 0.28345 0.0
N1484 N 0.24581 0.10345 0.37785 0.0
N1485 N 0.17999 0.10831 0.26226 0.0
H1486 H 0.18157 0.05644 0.25638 0.0
H1487 H 0.16742 0.06872 0.23649 0.0
H1488 H 0.18003 0.12236 0.2639 0.0
H1489 H 0.16612 0.09567 0.24508 0.0
H1490 H 0.25774 0.11506 0.40806 0.0
H1491 H 0.2457 0.08937 0.37747 0.0
H1492 H 0.25854 0.14304 0.40264 0.0
H1493 H 0.2453 0.15582 0.37804 0.0
C1494 C 0.85668 0.10464 0.36114 0.0
C1495 C 0.85479 0.08725 0.3231 0.0
C1496 C 0.89166 0.10603 0.29544 0.0
C1497 C 0.8922 0.12451 0.31702 0.0
N1498 N 0.8791 0.14091 0.39546 0.0
N1499 N 0.87078 0.06846 0.27961 0.0
C1500 C 0.87606 0.12352 0.35991 0.0
C1501 C 0.87266 0.08692 0.30054 0.0
N1502 N 0.83956 0.10343 0.39239 0.0
N1503 N 0.90891 0.10733 0.26506 0.0
H1504 H 0.85661 0.05459 0.28331 0.0
H1505 H 0.88308 0.06665 0.26304 0.0
H1506 H 0.92287 0.12145 0.2628 0.0
H1507 H 0.90955 0.09481 0.24301 0.0
H1508 H 0.83912 0.11599 0.4151 0.0
H1509 H 0.82557 0.08942 0.39562 0.0
H1510 H 0.86827 0.14138 0.42957 0.0
H1511 H 0.89338 0.15464 0.39477 0.0
C1512 C 0.89045 0.78288 0.29439 0.0
C1513 C 0.89058 0.7649 0.31774 0.0
C1514 C 0.85481 0.74939 0.35863 0.0
C1515 C 0.85339 0.76479 0.31853 0.0
N1516 N 0.86999 0.79953 0.27292 0.0
N1517 N 0.87666 0.73558 0.3975 0.0
C1518 C 0.87153 0.783 0.29641 0.0
C1519 C 0.87407 0.74987 0.36007 0.0
N1520 N 0.90807 0.79885 0.26523 0.0
N1521 N 0.83739 0.73355 0.38928 0.0
H1522 H 0.89087 0.73614 0.3987 0.0
H1523 H 0.86552 0.72433 0.43122 0.0
H1524 H 0.82345 0.73356 0.39023 0.0
H1525 H 0.83663 0.72061 0.41368 0.0
H1526 H 0.90911 0.8121 0.24242 0.0
H1527 H 0.92192 0.79862 0.26506 0.0
H1528 H 0.88247 0.81359 0.25602 0.0
H1529 H 0.85588 0.79923 0.27447 0.0
C1530 C 0.07879 0.19885 0.70555 0.0
C1531 C 0.07939 0.21729 0.68352 0.0
C1532 C 0.11471 0.23114 0.63939 0.0
C1533 C 0.11585 0.21599 0.68178 0.0
N1534 N 0.09876 0.18221 0.73548 0.0
N1535 N 0.09524 0.24847 0.6124 0.0
C1536 C 0.09753 0.19837 0.70631 0.0
C1537 C 0.09631 0.23231 0.64242 0.0
N1538 N 0.06056 0.18269 0.73013 0.0
N1539 N 0.13158 0.2449 0.60033 0.0
H1540 H 0.08156 0.24899 0.6127 0.0
H1541 H 0.10762 0.26119 0.58758 0.0
H1542 H 0.14493 0.24381 0.598 0.0
H1543 H 0.13185 0.25614 0.56626 0.0
H1544 H 0.05861 0.16848 0.74695 0.0
H1545 H 0.04697 0.18341 0.72953 0.0
H1546 H 0.08641 0.16921 0.75919 0.0
H1547 H 0.11264 0.18203 0.7348 0.0
C1548 C 0.77765 0.87665 0.7218 0.0
C1549 C 0.75959 0.85886 0.69689 0.0
C1550 C 0.74558 0.88052 0.657 0.0
C1551 C 0.76029 0.89648 0.70189 0.0
N1552 N 0.7935 0.91293 0.75862 0.0
N1553 N 0.72931 0.84403 0.62237 0.0
C1554 C 0.77779 0.89576 0.72628 0.0
C1555 C 0.74484 0.86104 0.65602 0.0
N1556 N 0.79371 0.87452 0.74571 0.0
N1557 N 0.73179 0.8838 0.61959 0.0
H1558 H 0.72916 0.82995 0.62014 0.0
H1559 H 0.71685 0.84377 0.59661 0.0
H1560 H 0.73253 0.89817 0.62031 0.0
H1561 H 0.72075 0.87307 0.5844 0.0
H1562 H 0.80767 0.88673 0.76442 0.0
H1563 H 0.79317 0.86024 0.74254 0.0
H1564 H 0.8063 0.91343 0.78249 0.0
H1565 H 0.79351 0.92697 0.76055 0.0
C1566 C 0.09409 0.89612 0.70824 0.0
C1567 C 0.11243 0.89728 0.68239 0.0
C1568 C 0.09317 0.861 0.6446 0.0
C1569 C 0.07636 0.85877 0.68676 0.0
N1570 N 0.05733 0.87402 0.7347 0.0
N1571 N 0.12799 0.88439 0.59935 0.0
C1572 C 0.07555 0.87651 0.70884 0.0
C1573 C 0.11132 0.88093 0.64006 0.0
N1574 N 0.09517 0.9135 0.73723 0.0
N1575 N 0.0923 0.84377 0.61498 0.0
H1576 H 0.14114 0.8991 0.59566 0.0
H1577 H 0.1282 0.87341 0.56504 0.0
H1578 H 0.0788 0.82928 0.61626 0.0
H1579 H 0.10471 0.84371 0.58973 0.0
H1580 H 0.08283 0.91387 0.76181 0.0
H1581 H 0.10889 0.92786 0.73547 0.0
H1582 H 0.05523 0.88615 0.75167 0.0
H1583 H 0.04388 0.85943 0.73504 0.0
C1584 C 0.89519 0.43805 0.68669 0.0
C1585 C 0.87977 0.42106 0.64717 0.0
C1586 C 0.86168 0.44011 0.62533 0.0
C1587 C 0.87997 0.45848 0.64501 0.0
N1588 N 0.91166 0.47516 0.71201 0.0
N1589 N 0.84554 0.40308 0.59871 0.0
C1590 C 0.89565 0.45738 0.68387 0.0
C1591 C 0.86171 0.42104 0.62508 0.0
N1592 N 0.90986 0.43579 0.72244 0.0
N1593 N 0.84509 0.4415 0.60251 0.0
H1594 H 0.84573 0.38915 0.59973 0.0
H1595 H 0.83213 0.40183 0.57716 0.0
H1596 H 0.8454 0.45569 0.60289 0.0
H1597 H 0.83099 0.42885 0.58717 0.0
H1598 H 0.92151 0.44732 0.75379 0.0
H1599 H 0.90933 0.42152 0.72438 0.0
H1600 H 0.92467 0.47612 0.73596 0.0
H1601 H 0.91169 0.48919 0.71136 0.0
C1602 C 0.52158 0.43928 0.69663 0.0
C1603 C 0.5193 0.42181 0.6581 0.0
C1604 C 0.55643 0.43928 0.6362 0.0
C1605 C 0.55756 0.45806 0.65723 0.0
N1606 N 0.54488 0.47507 0.73437 0.0
N1607 N 0.53437 0.402 0.61629 0.0
C1608 C 0.54139 0.45761 0.69829 0.0
C1609 C 0.53691 0.42065 0.63813 0.0
N1610 N 0.50449 0.43873 0.72537 0.0
N1611 N 0.5737 0.43994 0.60881 0.0
H1612 H 0.51984 0.38851 0.61766 0.0
H1613 H 0.54641 0.39964 0.60087 0.0
H1614 H 0.58794 0.45379 0.60835 0.0
H1615 H 0.57408 0.42718 0.58779 0.0
H1616 H 0.50446 0.45145 0.74852 0.0
H1617 H 0.4901 0.4251 0.72585 0.0
H1618 H 0.534 0.47593 0.76706 0.0
H1619 H 0.55951 0.48837 0.73552 0.0
C1620 C 0.54476 0.08745 0.69423 0.0
C1621 C 0.56113 0.10269 0.65203 0.0
C1622 C 0.54165 0.12039 0.63196 0.0
C1623 C 0.52366 0.10195 0.65339 0.0
N1624 N 0.508 0.0704 0.72263 0.0
N1625 N 0.57825 0.1368 0.60093 0.0
C1626 C 0.52533 0.08658 0.69277 0.0
C1627 C 0.56073 0.12061 0.62967 0.0
N1628 N 0.54767 0.07335 0.73158 0.0
N1629 N 0.53985 0.13684 0.60933 0.0
H1630 H 0.5922 0.13676 0.60042 0.0
H1631 H 0.57911 0.15004 0.57877 0.0
H1632 H 0.52563 0.13631 0.61105 0.0
H1633 H 0.55222 0.15105 0.59302 0.0
H1634 H 0.53665 0.06202 0.76539 0.0
H1635 H 0.56203 0.07424 0.73281 0.0
H1636 H 0.50747 0.05746 0.74609 0.0
H1637 H 0.49391 0.0701 0.72367 0.0
C1638 C 0.76087 0.56435 0.97415 0.0
C1639 C 0.74386 0.54895 0.01386 0.0
C1640 C 0.7622 0.53016 0.03532 0.0
C1641 C 0.78055 0.54812 0.01292 0.0
N1642 N 0.79658 0.57788 0.93522 0.0
N1643 N 0.72511 0.51403 0.0576 0.0
C1644 C 0.77947 0.56355 0.97195 0.0
C1645 C 0.74336 0.53045 0.0344 0.0
N1646 N 0.75961 0.58046 0.94461 0.0
N1647 N 0.76345 0.51383 0.06265 0.0
H1648 H 0.71145 0.51462 0.05683 0.0
H1649 H 0.72323 0.4998 0.07365 0.0
H1650 H 0.77741 0.51381 0.06216 0.0
H1651 H 0.75104 0.5005 0.08442 0.0
H1652 H 0.77192 0.59335 0.92029 0.0
H1653 H 0.74578 0.58068 0.94436 0.0
H1654 H 0.79702 0.58949 0.90278 0.0
H1655 H 0.81008 0.57704 0.93339 0.0
C1656 C 0.44607 0.21274 0.05448 0.0
C1657 C 0.42787 0.1949 0.03066 0.0
C1658 C 0.41426 0.21661 0.98743 0.0
C1659 C 0.42915 0.23284 0.03102 0.0
N1660 N 0.4624 0.24937 0.08736 0.0
N1661 N 0.39722 0.17972 0.95797 0.0
C1662 C 0.44652 0.23203 0.05645 0.0
C1663 C 0.41311 0.19695 0.98937 0.0
N1664 N 0.46204 0.2106 0.07938 0.0
N1665 N 0.40072 0.21985 0.94824 0.0
H1666 H 0.39672 0.16546 0.95778 0.0
H1667 H 0.38469 0.17943 0.93258 0.0
H1668 H 0.40177 0.23436 0.94662 0.0
H1669 H 0.38969 0.20894 0.91344 0.0
H1670 H 0.47607 0.22285 0.09728 0.0
H1671 H 0.46136 0.19623 0.07784 0.0
H1672 H 0.47513 0.24988 0.11194 0.0
H1673 H 0.46264 0.26352 0.08738 0.0
C1674 C 0.76362 0.19568 0.97452 0.0
C1675 C 0.74697 0.1941 0.01574 0.0
C1676 C 0.76617 0.23138 0.03896 0.0
C1677 C 0.78431 0.23137 0.01778 0.0
N1678 N 0.8004 0.21646 0.94639 0.0
N1679 N 0.72933 0.21049 0.06613 0.0
C1680 C 0.78292 0.21462 0.97692 0.0
C1681 C 0.74711 0.21225 0.0389 0.0
N1682 N 0.76111 0.17867 0.9377 0.0
N1683 N 0.76781 0.24942 0.06375 0.0
H1684 H 0.71544 0.19628 0.06517 0.0
H1685 H 0.72816 0.22273 0.08799 0.0
H1686 H 0.78201 0.26331 0.06355 0.0
H1687 H 0.75538 0.25091 0.08086 0.0
H1688 H 0.77243 0.17848 0.9055 0.0
H1689 H 0.74685 0.16491 0.93603 0.0
H1690 H 0.80113 0.20444 0.92049 0.0
H1691 H 0.81437 0.23054 0.94657 0.0
C1692 C 0.55624 0.77064 0.0067 0.0
C1693 C 0.54158 0.75459 0.96194 0.0
C1694 C 0.52456 0.77462 0.93922 0.0
C1695 C 0.54261 0.7924 0.96419 0.0
N1696 N 0.57287 0.80732 0.03894 0.0
N1697 N 0.50857 0.73821 0.9039 0.0
C1698 C 0.55723 0.79023 0.00596 0.0
C1699 C 0.52426 0.75541 0.93615 0.0
N1700 N 0.56972 0.7673 0.04593 0.0
N1701 N 0.50862 0.77679 0.91416 0.0
H1702 H 0.50841 0.72409 0.90311 0.0
H1703 H 0.49591 0.73776 0.87895 0.0
H1704 H 0.50923 0.79111 0.91642 0.0
H1705 H 0.49466 0.76457 0.8955 0.0
H1706 H 0.58059 0.77807 0.08149 0.0
H1707 H 0.56879 0.75285 0.04666 0.0
H1708 H 0.58532 0.80756 0.06475 0.0
H1709 H 0.57321 0.82149 0.04025 0.0
C1710 C 0.20785 0.75673 0.9558 0.0
C1711 C 0.18948 0.75565 0.98071 0.0
C1712 C 0.20862 0.79211 0.01634 0.0
C1713 C 0.22548 0.79417 0.97482 0.0
N1714 N 0.24459 0.77879 0.92895 0.0
N1715 N 0.17376 0.76889 0.06157 0.0
C1716 C 0.22636 0.77636 0.95427 0.0
C1717 C 0.1905 0.77218 0.02165 0.0
N1718 N 0.20684 0.73921 0.92843 0.0
N1719 N 0.20943 0.80946 0.04454 0.0
H1720 H 0.1606 0.75418 0.06564 0.0
H1721 H 0.17346 0.78002 0.09482 0.0
H1722 H 0.22291 0.82397 0.04259 0.0
H1723 H 0.19701 0.80961 0.0693 0.0
H1724 H 0.21921 0.73873 0.90471 0.0
H1725 H 0.19313 0.72486 0.93074 0.0
H1726 H 0.24674 0.76661 0.91296 0.0
H1727 H 0.25802 0.79339 0.92798 0.0
C1728 C 0.19003 0.41975 0.02124 0.0
C1729 C 0.18889 0.43511 0.98008 0.0
C1730 C 0.22593 0.45233 0.95593 0.0
C1731 C 0.22531 0.43378 0.97664 0.0
N1732 N 0.20957 0.40241 0.04665 0.0
N1733 N 0.20599 0.4692 0.92885 0.0
C1734 C 0.20844 0.41863 0.01753 0.0
C1735 C 0.20722 0.45287 0.95635 0.0
N1736 N 0.17309 0.40574 0.05946 0.0
N1737 N 0.24413 0.46853 0.93132 0.0
H1738 H 0.19211 0.46935 0.93018 0.0
H1739 H 0.21836 0.48238 0.90611 0.0
H1740 H 0.2577 0.46777 0.93112 0.0
H1741 H 0.24608 0.48277 0.91506 0.0
H1742 H 0.17274 0.39425 0.09236 0.0
H1743 H 0.15972 0.40679 0.06207 0.0
H1744 H 0.19728 0.38965 0.07163 0.0
H1745 H 0.22326 0.40191 0.04561 0.0
C1746 C 0.41193 0.86765 0.363 0.0
C1747 C 0.41165 0.88565 0.34074 0.0
C1748 C 0.44751 0.90161 0.30043 0.0
C1749 C 0.44905 0.88617 0.33979 0.0
N1750 N 0.43269 0.85131 0.38407 0.0
N1751 N 0.4255 0.9153 0.26245 0.0
C1752 C 0.43098 0.86778 0.3611 0.0
C1753 C 0.42817 0.90095 0.2991 0.0
N1754 N 0.39431 0.85143 0.39104 0.0
N1755 N 0.46492 0.91765 0.27043 0.0
H1756 H 0.41122 0.9146 0.26117 0.0
H1757 H 0.43666 0.92677 0.22937 0.0
H1758 H 0.47893 0.91777 0.26956 0.0
H1759 H 0.4656 0.9306 0.2465 0.0
H1760 H 0.39331 0.83808 0.41275 0.0
H1761 H 0.38038 0.85151 0.39121 0.0
H1762 H 0.42029 0.83715 0.40067 0.0
H1763 H 0.44688 0.85178 0.38258 0.0
C1764 C 0.07558 0.54733 0.31836 0.0
C1765 C 0.09048 0.56458 0.35835 0.0
C1766 C 0.11049 0.54743 0.37803 0.0
C1767 C 0.09313 0.5287 0.35471 0.0
N1768 N 0.06372 0.51201 0.27648 0.0
N1769 N 0.12509 0.5844 0.40274 0.0
C1770 C 0.0774 0.52922 0.31434 0.0
C1771 C 0.10927 0.56586 0.3786 0.0
N1772 N 0.059 0.54784 0.29022 0.0
N1773 N 0.12715 0.54683 0.40484 0.0
H1774 H 0.12387 0.59778 0.40294 0.0
H1775 H 0.13946 0.58683 0.41863 0.0
H1776 H 0.12783 0.53316 0.4033 0.0
H1777 H 0.14009 0.55951 0.42724 0.0
H1778 H 0.04644 0.53524 0.26578 0.0
H1779 H 0.058 0.56133 0.2918 0.0
H1780 H 0.05199 0.51124 0.24419 0.0
H1781 H 0.06529 0.49888 0.27341 0.0
C1782 C 0.43275 0.56633 0.36023 0.0
C1783 C 0.45053 0.56581 0.33758 0.0
C1784 C 0.42925 0.52978 0.2989 0.0
C1785 C 0.41273 0.52898 0.33914 0.0
N1786 N 0.39559 0.54658 0.38329 0.0
N1787 N 0.4652 0.55078 0.26006 0.0
C1788 C 0.41335 0.54756 0.35968 0.0
C1789 C 0.44846 0.54882 0.29668 0.0
N1790 N 0.43505 0.58442 0.38744 0.0
N1791 N 0.42691 0.51197 0.26878 0.0
H1792 H 0.47916 0.56487 0.25832 0.0
H1793 H 0.46499 0.53921 0.22784 0.0
H1794 H 0.41264 0.49822 0.26833 0.0
H1795 H 0.43873 0.51076 0.24382 0.0
H1796 H 0.4231 0.58601 0.4093 0.0
H1797 H 0.44941 0.59813 0.38671 0.0
H1798 H 0.39453 0.55939 0.3995 0.0
H1799 H 0.38151 0.53256 0.38279 0.0
loop_
_geom_bond_atom_site_label_1
_geom_bond_atom_site_label_2
_geom_bond_distance
_geom_bond_site_symmetry_2
_ccdc_geom_bond_type
Zn0 O3 2.031 . S
Zn0 O5 2.049 . S
Zn0 O10 2.067 . S
Zn1 O2 1.962 . S
Zn1 O4 1.986 . S
Zn1 O6 1.996 . S
Zn1 O9 1.943 . S
O2 Zn1 1.962 . S
O2 C7 1.254 . S
O3 Zn0 2.031 . S
O3 C7 1.269 . S
O4 Zn1 1.986 . S
O4 C11 1.262 . S
O5 Zn0 2.049 . S
O5 C13 1.260 . S
O6 Zn1 1.996 . S
O6 C13 1.257 . S
C7 O2 1.254 . S
C7 O3 1.269 . S
C8 O9 1.249 . S
C8 O10 1.270 . S
O9 Zn1 1.943 . S
O9 C8 1.249 . S
O10 Zn0 2.067 . S
O10 C8 1.270 . S
C11 O4 1.262 . S
C11 O12 1.232 . S
O12 C11 1.232 . S
C13 O5 1.260 . S
C13 O6 1.257 . S
Zn14 O17 2.031 . S
Zn14 O19 2.049 . S
Zn14 O24 2.067 . S
Zn15 O16 1.962 . S
Zn15 O18 1.986 . S
Zn15 O20 1.996 . S
Zn15 O23 1.943 . S
O16 Zn15 1.962 . S
O16 C21 1.254 . S
O17 Zn14 2.031 . S
O17 C21 1.269 . S
O18 Zn15 1.986 . S
O18 C25 1.262 . S
O19 Zn14 2.049 . S
O19 C27 1.260 . S
O20 Zn15 1.996 . S
O20 C27 1.257 . S
C21 O16 1.254 . S
C21 O17 1.269 . S
C22 O23 1.249 . S
C22 O24 1.270 . S
O23 Zn15 1.943 . S
O23 C22 1.249 . S
O24 Zn14 2.067 . S
O24 C22 1.270 . S
C25 O18 1.262 . S
C25 O26 1.232 . S
O26 C25 1.232 . S
C27 O19 1.260 . S
C27 O20 1.257 . S
Zn28 O31 2.031 . S
Zn28 O33 2.049 . S
Zn28 O38 2.067 . S
Zn29 O30 1.962 . S
Zn29 O32 1.986 . S
Zn29 O34 1.996 . S
Zn29 O37 1.943 . S
O30 Zn29 1.962 . S
O30 C35 1.254 . S
O31 Zn28 2.031 . S
O31 C35 1.269 . S
O32 Zn29 1.986 . S
O32 C39 1.262 . S
O33 Zn28 2.049 . S
O33 C41 1.260 . S
O34 Zn29 1.996 . S
O34 C41 1.257 . S
C35 O30 1.254 . S
C35 O31 1.269 . S
C36 O37 1.249 . S
C36 O38 1.270 . S
O37 Zn29 1.943 . S
O37 C36 1.249 . S
O38 Zn28 2.067 . S
O38 C36 1.270 . S
C39 O32 1.262 . S
C39 O40 1.232 . S
O40 C39 1.232 . S
C41 O33 1.260 . S
C41 O34 1.257 . S
Zn42 O45 2.031 . S
Zn42 O47 2.049 . S
Zn42 O52 2.067 . S
Zn43 O44 1.962 . S
Zn43 O46 1.986 . S
Zn43 O48 1.996 . S
Zn43 O51 1.943 . S
O44 Zn43 1.962 . S
O44 C49 1.254 . S
O45 Zn42 2.031 . S
O45 C49 1.269 . S
O46 Zn43 1.986 . S
O46 C53 1.262 . S
O47 Zn42 2.049 . S
O47 C55 1.260 . S
O48 Zn43 1.996 . S
O48 C55 1.257 . S
C49 O44 1.254 . S
C49 O45 1.269 . S
C50 O51 1.249 . S
C50 O52 1.270 . S
O51 Zn43 1.943 . S
O51 C50 1.249 . S
O52 Zn42 2.067 . S
O52 C50 1.270 . S
C53 O46 1.262 . S
C53 O54 1.232 . S
O54 C53 1.232 . S
C55 O47 1.260 . S
C55 O48 1.257 . S
Zn56 O59 2.031 . S
Zn56 O61 2.049 . S
Zn56 O66 2.067 . S
Zn57 O58 1.962 . S
Zn57 O60 1.986 . S
Zn57 O62 1.996 . S
Zn57 O65 1.943 . S
O58 Zn57 1.962 . S
O58 C63 1.254 . S
O59 Zn56 2.031 . S
O59 C63 1.269 . S
O60 Zn57 1.986 . S
O60 C67 1.262 . S
O61 Zn56 2.049 . S
O61 C69 1.260 . S
O62 Zn57 1.996 . S
O62 C69 1.257 . S
C63 O58 1.254 . S
C63 O59 1.269 . S
C64 O65 1.249 . S
C64 O66 1.270 . S
O65 Zn57 1.943 . S
O65 C64 1.249 . S
O66 Zn56 2.067 . S
O66 C64 1.270 . S
C67 O60 1.262 . S
C67 O68 1.232 . S
O68 C67 1.232 . S
C69 O61 1.260 . S
C69 O62 1.257 . S
Zn70 O73 2.031 . S
Zn70 O75 2.049 . S
Zn70 O80 2.067 . S
Zn71 O72 1.962 . S
Zn71 O74 1.986 . S
Zn71 O76 1.996 . S
Zn71 O79 1.943 . S
O72 Zn71 1.962 . S
O72 C77 1.254 . S
O73 Zn70 2.031 . S
O73 C77 1.269 . S
O74 Zn71 1.986 . S
O74 C81 1.262 . S
O75 Zn70 2.049 . S
O75 C83 1.260 . S
O76 Zn71 1.996 . S
O76 C83 1.257 . S
C77 O72 1.254 . S
C77 O73 1.269 . S
C78 O79 1.249 . S
C78 O80 1.270 . S
O79 Zn71 1.943 . S
O79 C78 1.249 . S
O80 Zn70 2.067 . S
O80 C78 1.270 . S
C81 O74 1.262 . S
C81 O82 1.232 . S
O82 C81 1.232 . S
C83 O75 1.260 . S
C83 O76 1.257 . S
Zn84 O87 2.031 . S
Zn84 O89 2.049 . S
Zn84 O94 2.067 . S
Zn85 O86 1.962 . S
Zn85 O88 1.986 . S
Zn85 O90 1.996 . S
Zn85 O93 1.943 . S
O86 Zn85 1.962 . S
O86 C91 1.254 . S
O87 Zn84 2.031 . S
O87 C91 1.269 . S
O88 Zn85 1.986 . S
O88 C95 1.262 . S
O89 Zn84 2.049 . S
O89 C97 1.260 . S
O90 Zn85 1.996 . S
O90 C97 1.257 . S
C91 O86 1.254 . S
C91 O87 1.269 . S
C92 O93 1.249 . S
C92 O94 1.270 . S
O93 Zn85 1.943 . S
O93 C92 1.249 . S
O94 Zn84 2.067 . S
O94 C92 1.270 . S
C95 O88 1.262 . S
C95 O96 1.232 . S
O96 C95 1.232 . S
C97 O89 1.260 . S
C97 O90 1.257 . S
Zn98 O101 2.031 . S
Zn98 O103 2.049 . S
Zn98 O108 2.067 . S
Zn99 O100 1.962 . S
Zn99 O102 1.986 . S
Zn99 O104 1.996 . S
Zn99 O107 1.943 . S
O100 Zn99 1.962 . S
O100 C105 1.254 . S
O101 Zn98 2.031 . S
O101 C105 1.269 . S
O102 Zn99 1.986 . S
O102 C109 1.262 . S
O103 Zn98 2.049 . S
O103 C111 1.260 . S
O104 Zn99 1.996 . S
O104 C111 1.257 . S
C105 O100 1.254 . S
C105 O101 1.269 . S
C106 O107 1.249 . S
C106 O108 1.270 . S
O107 Zn99 1.943 . S
O107 C106 1.249 . S
O108 Zn98 2.067 . S
O108 C106 1.270 . S
C109 O102 1.262 . S
C109 O110 1.232 . S
O110 C109 1.232 . S
C111 O103 1.260 . S
C111 O104 1.257 . S
Zn112 O115 2.031 . S
Zn112 O117 2.049 . S
Zn112 O122 2.067 . S
Zn113 O114 1.962 . S
Zn113 O116 1.986 . S
Zn113 O118 1.996 . S
Zn113 O121 1.943 . S
O114 Zn113 1.962 . S
O114 C119 1.254 . S
O115 Zn112 2.031 . S
O115 C119 1.269 . S
O116 Zn113 1.986 . S
O116 C123 1.262 . S
O117 Zn112 2.049 . S
O117 C125 1.260 . S
O118 Zn113 1.996 . S
O118 C125 1.257 . S
C119 O114 1.254 . S
C119 O115 1.269 . S
C120 O121 1.249 . S
C120 O122 1.270 . S
O121 Zn113 1.943 . S
O121 C120 1.249 . S
O122 Zn112 2.067 . S
O122 C120 1.270 . S
C123 O116 1.262 . S
C123 O124 1.232 . S
O124 C123 1.232 . S
C125 O117 1.260 . S
C125 O118 1.257 . S
Zn126 O129 2.031 . S
Zn126 O131 2.049 . S
Zn126 O136 2.067 . S
Zn127 O128 1.962 . S
Zn127 O130 1.986 . S
Zn127 O132 1.996 . S
Zn127 O135 1.943 . S
O128 Zn127 1.962 . S
O128 C133 1.254 . S
O129 Zn126 2.031 . S
O129 C133 1.269 . S
O130 Zn127 1.986 . S
O130 C137 1.262 . S
O131 Zn126 2.049 . S
O131 C139 1.260 . S
O132 Zn127 1.996 . S
O132 C139 1.257 . S
C133 O128 1.254 . S
C133 O129 1.269 . S
C134 O135 1.249 . S
C134 O136 1.270 . S
O135 Zn127 1.943 . S
O135 C134 1.249 . S
O136 Zn126 2.067 . S
O136 C134 1.270 . S
C137 O130 1.262 . S
C137 O138 1.232 . S
O138 C137 1.232 . S
C139 O131 1.260 . S
C139 O132 1.257 . S
Zn140 O143 2.031 . S
Zn140 O145 2.049 . S
Zn140 O150 2.067 . S
Zn141 O142 1.962 . S
Zn141 O144 1.986 . S
Zn141 O146 1.996 . S
Zn141 O149 1.943 . S
O142 Zn141 1.962 . S
O142 C147 1.254 . S
O143 Zn140 2.031 . S
O143 C147 1.269 . S
O144 Zn141 1.986 . S
O144 C151 1.262 . S
O145 Zn140 2.049 . S
O145 C153 1.260 . S
O146 Zn141 1.996 . S
O146 C153 1.257 . S
C147 O142 1.254 . S
C147 O143 1.269 . S
C148 O149 1.249 . S
C148 O150 1.270 . S
O149 Zn141 1.943 . S
O149 C148 1.249 . S
O150 Zn140 2.067 . S
O150 C148 1.270 . S
C151 O144 1.262 . S
C151 O152 1.232 . S
O152 C151 1.232 . S
C153 O145 1.260 . S
C153 O146 1.257 . S
Zn154 O157 2.031 . S
Zn154 O159 2.049 . S
Zn154 O164 2.067 . S
Zn155 O156 1.962 . S
Zn155 O158 1.986 . S
Zn155 O160 1.996 . S
Zn155 O163 1.943 . S
O156 Zn155 1.962 . S
O156 C161 1.254 . S
O157 Zn154 2.031 . S
O157 C161 1.269 . S
O158 Zn155 1.986 . S
O158 C165 1.262 . S
O159 Zn154 2.049 . S
O159 C167 1.260 . S
O160 Zn155 1.996 . S
O160 C167 1.257 . S
C161 O156 1.254 . S
C161 O157 1.269 . S
C162 O163 1.249 . S
C162 O164 1.270 . S
O163 Zn155 1.943 . S
O163 C162 1.249 . S
O164 Zn154 2.067 . S
O164 C162 1.270 . S
C165 O158 1.262 . S
C165 O166 1.232 . S
O166 C165 1.232 . S
C167 O159 1.260 . S
C167 O160 1.257 . S
Zn168 O171 2.031 . S
Zn168 O173 2.049 . S
Zn168 O178 2.067 . S
Zn169 O170 1.962 . S
Zn169 O172 1.986 . S
Zn169 O174 1.996 . S
Zn169 O177 1.943 . S
O170 Zn169 1.962 . S
O170 C175 1.254 . S
O171 Zn168 2.031 . S
O171 C175 1.269 . S
O172 Zn169 1.986 . S
O172 C179 1.262 . S
O173 Zn168 2.049 . S
O173 C181 1.260 . S
O174 Zn169 1.996 . S
O174 C181 1.257 . S
C175 O170 1.254 . S
C175 O171 1.269 . S
C176 O177 1.249 . S
C176 O178 1.270 . S
O177 Zn169 1.943 . S
O177 C176 1.249 . S
O178 Zn168 2.067 . S
O178 C176 1.270 . S
C179 O172 1.262 . S
C179 O180 1.232 . S
O180 C179 1.232 . S
C181 O173 1.260 . S
C181 O174 1.257 . S
Zn182 O185 2.031 . S
Zn182 O187 2.049 . S
Zn182 O192 2.067 . S
Zn183 O184 1.962 . S
Zn183 O186 1.986 . S
Zn183 O188 1.996 . S
Zn183 O191 1.943 . S
O184 Zn183 1.962 . S
O184 C189 1.254 . S
O185 Zn182 2.031 . S
O185 C189 1.269 . S
O186 Zn183 1.986 . S
O186 C193 1.262 . S
O187 Zn182 2.049 . S
O187 C195 1.260 . S
O188 Zn183 1.996 . S
O188 C195 1.257 . S
C189 O184 1.254 . S
C189 O185 1.269 . S
C190 O191 1.249 . S
C190 O192 1.270 . S
O191 Zn183 1.943 . S
O191 C190 1.249 . S
O192 Zn182 2.067 . S
O192 C190 1.270 . S
C193 O186 1.262 . S
C193 O194 1.232 . S
O194 C193 1.232 . S
C195 O187 1.260 . S
C195 O188 1.257 . S
Zn196 O199 2.031 . S
Zn196 O201 2.049 . S
Zn196 O206 2.067 . S
Zn197 O198 1.962 . S
Zn197 O200 1.986 . S
Zn197 O202 1.996 . S
Zn197 O205 1.943 . S
O198 Zn197 1.962 . S
O198 C203 1.254 . S
O199 Zn196 2.031 . S
O199 C203 1.269 . S
O200 Zn197 1.986 . S
O200 C207 1.262 . S
O201 Zn196 2.049 . S
O201 C209 1.260 . S
O202 Zn197 1.996 . S
O202 C209 1.257 . S
C203 O198 1.254 . S
C203 O199 1.269 . S
C204 O205 1.249 . S
C204 O206 1.270 . S
O205 Zn197 1.943 . S
O205 C204 1.249 . S
O206 Zn196 2.067 . S
O206 C204 1.270 . S
C207 O200 1.262 . S
C207 O208 1.232 . S
O208 C207 1.232 . S
C209 O201 1.260 . S
C209 O202 1.257 . S
Zn210 O213 2.031 . S
Zn210 O215 2.049 . S
Zn210 O220 2.067 . S
Zn211 O212 1.962 . S
Zn211 O214 1.986 . S
Zn211 O216 1.996 . S
Zn211 O219 1.943 . S
O212 Zn211 1.962 . S
O212 C217 1.254 . S
O213 Zn210 2.031 . S
O213 C217 1.269 . S
O214 Zn211 1.986 . S
O214 C221 1.262 1_554 S
O215 Zn210 2.049 . S
O215 C223 1.260 . S
O216 Zn211 1.996 . S
O216 C223 1.257 . S
C217 O212 1.254 . S
C217 O213 1.269 . S
C218 O219 1.249 . S
C218 O220 1.270 . S
O219 Zn211 1.943 . S
O219 C218 1.249 . S
O220 Zn210 2.067 . S
O220 C218 1.270 . S
C221 O214 1.262 1_556 S
C221 O222 1.232 . S
O222 C221 1.232 . S
C223 O215 1.260 . S
C223 O216 1.257 . S
Zn224 O227 2.031 . S
Zn224 O229 2.049 . S
Zn224 O234 2.067 . S
Zn225 O226 1.962 . S
Zn225 O228 1.986 . S
Zn225 O230 1.996 . S
Zn225 O233 1.943 . S
O226 Zn225 1.962 . S
O226 C231 1.254 . S
O227 Zn224 2.031 . S
O227 C231 1.269 . S
O228 Zn225 1.986 . S
O228 C235 1.262 1_554 S
O229 Zn224 2.049 . S
O229 C237 1.260 . S
O230 Zn225 1.996 . S
O230 C237 1.257 . S
C231 O226 1.254 . S
C231 O227 1.269 . S
C232 O233 1.249 . S
C232 O234 1.270 . S
O233 Zn225 1.943 . S
O233 C232 1.249 . S
O234 Zn224 2.067 . S
O234 C232 1.270 . S
C235 O228 1.262 1_556 S
C235 O236 1.232 . S
O236 C235 1.232 . S
C237 O229 1.260 . S
C237 O230 1.257 . S
Zn238 O241 2.031 . S
Zn238 O243 2.049 . S
Zn238 O248 2.067 . S
Zn239 O240 1.962 . S
Zn239 O242 1.986 . S
Zn239 O244 1.996 . S
Zn239 O247 1.943 . S
O240 Zn239 1.962 . S
O240 C245 1.254 . S
O241 Zn238 2.031 . S
O241 C245 1.269 . S
O242 Zn239 1.986 . S
O242 C249 1.262 1_554 S
O243 Zn238 2.049 . S
O243 C251 1.260 . S
O244 Zn239 1.996 . S
O244 C251 1.257 . S
C245 O240 1.254 . S
C245 O241 1.269 . S
C246 O247 1.249 . S
C246 O248 1.270 . S
O247 Zn239 1.943 . S
O247 C246 1.249 . S
O248 Zn238 2.067 . S
O248 C246 1.270 . S
C249 O242 1.262 1_556 S
C249 O250 1.232 . S
O250 C249 1.232 . S
C251 O243 1.260 . S
C251 O244 1.257 . S
Zn252 O255 2.031 . S
Zn252 O257 2.049 . S
Zn252 O262 2.067 . S
Zn253 O254 1.962 . S
Zn253 O256 1.986 . S
Zn253 O258 1.996 . S
Zn253 O261 1.943 . S
O254 Zn253 1.962 . S
O254 C259 1.254 . S
O255 Zn252 2.031 . S
O255 C259 1.269 . S
O256 Zn253 1.986 . S
O256 C263 1.262 1_554 S
O257 Zn252 2.049 . S
O257 C265 1.260 . S
O258 Zn253 1.996 . S
O258 C265 1.257 . S
C259 O254 1.254 . S
C259 O255 1.269 . S
C260 O261 1.249 . S
C260 O262 1.270 . S
O261 Zn253 1.943 . S
O261 C260 1.249 . S
O262 Zn252 2.067 . S
O262 C260 1.270 . S
C263 O256 1.262 1_556 S
C263 O264 1.232 . S
O264 C263 1.232 . S
C265 O257 1.260 . S
C265 O258 1.257 . S
Zn266 O269 2.031 . S
Zn266 O271 2.049 . S
Zn266 O276 2.067 . S
Zn267 O268 1.962 . S
Zn267 O270 1.986 . S
Zn267 O272 1.996 . S
Zn267 O275 1.943 . S
O268 Zn267 1.962 . S
O268 C273 1.254 . S
O269 Zn266 2.031 . S
O269 C273 1.269 . S
O270 Zn267 1.986 . S
O270 C277 1.262 1_554 S
O271 Zn266 2.049 . S
O271 C279 1.260 . S
O272 Zn267 1.996 . S
O272 C279 1.257 . S
C273 O268 1.254 . S
C273 O269 1.269 . S
C274 O275 1.249 . S
C274 O276 1.270 . S
O275 Zn267 1.943 . S
O275 C274 1.249 . S
O276 Zn266 2.067 . S
O276 C274 1.270 . S
C277 O270 1.262 1_556 S
C277 O278 1.232 . S
O278 C277 1.232 . S
C279 O271 1.260 . S
C279 O272 1.257 . S
Zn280 O283 2.031 . S
Zn280 O285 2.049 . S
Zn280 O290 2.067 . S
Zn281 O282 1.962 . S
Zn281 O284 1.986 . S
Zn281 O286 1.996 . S
Zn281 O289 1.943 . S
O282 Zn281 1.962 . S
O282 C287 1.254 . S
O283 Zn280 2.031 . S
O283 C287 1.269 . S
O284 Zn281 1.986 . S
O284 C291 1.262 1_554 S
O285 Zn280 2.049 . S
O285 C293 1.260 . S
O286 Zn281 1.996 . S
O286 C293 1.257 . S
C287 O282 1.254 . S
C287 O283 1.269 . S
C288 O289 1.249 . S
C288 O290 1.270 . S
O289 Zn281 1.943 . S
O289 C288 1.249 . S
O290 Zn280 2.067 . S
O290 C288 1.270 . S
C291 O284 1.262 1_556 S
C291 O292 1.232 . S
O292 C291 1.232 . S
C293 O285 1.260 . S
C293 O286 1.257 . S
Zn294 O297 2.031 . S
Zn294 O299 2.049 . S
Zn294 O304 2.067 . S
Zn295 O296 1.962 . S
Zn295 O298 1.986 . S
Zn295 O300 1.996 . S
Zn295 O303 1.943 . S
O296 Zn295 1.962 . S
O296 C301 1.254 . S
O297 Zn294 2.031 . S
O297 C301 1.269 . S
O298 Zn295 1.986 . S
O298 C305 1.262 . S
O299 Zn294 2.049 . S
O299 C307 1.260 . S
O300 Zn295 1.996 . S
O300 C307 1.257 . S
C301 O296 1.254 . S
C301 O297 1.269 . S
C302 O303 1.249 . S
C302 O304 1.270 . S
O303 Zn295 1.943 . S
O303 C302 1.249 . S
O304 Zn294 2.067 . S
O304 C302 1.270 . S
C305 O298 1.262 . S
C305 O306 1.232 . S
O306 C305 1.232 . S
C307 O299 1.260 . S
C307 O300 1.257 . S
Zn308 O311 2.031 . S
Zn308 O313 2.049 . S
Zn308 O318 2.067 . S
Zn309 O310 1.962 . S
Zn309 O312 1.986 . S
Zn309 O314 1.996 . S
Zn309 O317 1.943 . S
O310 Zn309 1.962 . S
O310 C315 1.254 . S
O311 Zn308 2.031 . S
O311 C315 1.269 . S
O312 Zn309 1.986 . S
O312 C319 1.262 . S
O313 Zn308 2.049 . S
O313 C321 1.260 . S
O314 Zn309 1.996 . S
O314 C321 1.257 . S
C315 O310 1.254 . S
C315 O311 1.269 . S
C316 O317 1.249 . S
C316 O318 1.270 . S
O317 Zn309 1.943 . S
O317 C316 1.249 . S
O318 Zn308 2.067 . S
O318 C316 1.270 . S
C319 O312 1.262 . S
C319 O320 1.232 . S
O320 C319 1.232 . S
C321 O313 1.260 . S
C321 O314 1.257 . S
Zn322 O325 2.031 . S
Zn322 O327 2.049 . S
Zn322 O332 2.067 . S
Zn323 O324 1.962 . S
Zn323 O326 1.986 . S
Zn323 O328 1.996 . S
Zn323 O331 1.943 . S
O324 Zn323 1.962 . S
O324 C329 1.254 . S
O325 Zn322 2.031 . S
O325 C329 1.269 . S
O326 Zn323 1.986 . S
O326 C333 1.262 . S
O327 Zn322 2.049 . S
O327 C335 1.260 . S
O328 Zn323 1.996 . S
O328 C335 1.257 . S
C329 O324 1.254 . S
C329 O325 1.269 . S
C330 O331 1.249 . S
C330 O332 1.270 . S
O331 Zn323 1.943 . S
O331 C330 1.249 . S
O332 Zn322 2.067 . S
O332 C330 1.270 . S
C333 O326 1.262 . S
C333 O334 1.232 . S
O334 C333 1.232 . S
C335 O327 1.260 . S
C335 O328 1.257 . S
Zn336 O339 2.031 . S
Zn336 O341 2.049 . S
Zn336 O346 2.067 . S
Zn337 O338 1.962 . S
Zn337 O340 1.986 . S
Zn337 O342 1.996 . S
Zn337 O345 1.943 . S
O338 Zn337 1.962 . S
O338 C343 1.254 . S
O339 Zn336 2.031 . S
O339 C343 1.269 . S
O340 Zn337 1.986 . S
O340 C347 1.262 1_556 S
O341 Zn336 2.049 . S
O341 C349 1.260 . S
O342 Zn337 1.996 . S
O342 C349 1.257 . S
C343 O338 1.254 . S
C343 O339 1.269 . S
C344 O345 1.249 . S
C344 O346 1.270 . S
O345 Zn337 1.943 . S
O345 C344 1.249 . S
O346 Zn336 2.067 . S
O346 C344 1.270 . S
C347 O340 1.262 1_554 S
C347 O348 1.232 . S
O348 C347 1.232 . S
C349 O341 1.260 . S
C349 O342 1.257 . S
Zn350 O353 2.031 . S
Zn350 O355 2.049 . S
Zn350 O360 2.067 . S
Zn351 O352 1.962 . S
Zn351 O354 1.986 . S
Zn351 O356 1.996 . S
Zn351 O359 1.943 . S
O352 Zn351 1.962 . S
O352 C357 1.254 . S
O353 Zn350 2.031 . S
O353 C357 1.269 . S
O354 Zn351 1.986 . S
O354 C361 1.262 1_556 S
O355 Zn350 2.049 . S
O355 C363 1.260 . S
O356 Zn351 1.996 . S
O356 C363 1.257 . S
C357 O352 1.254 . S
C357 O353 1.269 . S
C358 O359 1.249 . S
C358 O360 1.270 . S
O359 Zn351 1.943 . S
O359 C358 1.249 . S
O360 Zn350 2.067 . S
O360 C358 1.270 . S
C361 O354 1.262 1_554 S
C361 O362 1.232 . S
O362 C361 1.232 . S
C363 O355 1.260 . S
C363 O356 1.257 . S
Zn364 O367 2.031 . S
Zn364 O369 2.049 . S
Zn364 O374 2.067 . S
Zn365 O366 1.962 . S
Zn365 O368 1.986 . S
Zn365 O370 1.996 . S
Zn365 O373 1.943 . S
O366 Zn365 1.962 . S
O366 C371 1.254 . S
O367 Zn364 2.031 . S
O367 C371 1.269 . S
O368 Zn365 1.986 . S
O368 C375 1.262 1_556 S
O369 Zn364 2.049 . S
O369 C377 1.260 . S
O370 Zn365 1.996 . S
O370 C377 1.257 . S
C371 O366 1.254 . S
C371 O367 1.269 . S
C372 O373 1.249 . S
C372 O374 1.270 . S
O373 Zn365 1.943 . S
O373 C372 1.249 . S
O374 Zn364 2.067 . S
O374 C372 1.270 . S
C375 O368 1.262 1_554 S
C375 O376 1.232 . S
O376 C375 1.232 . S
C377 O369 1.260 . S
C377 O370 1.257 . S
Zn378 O381 2.031 . S
Zn378 O383 2.049 . S
Zn378 O388 2.067 . S
Zn379 O380 1.962 . S
Zn379 O382 1.986 . S
Zn379 O384 1.996 . S
Zn379 O387 1.943 . S
O380 Zn379 1.962 . S
O380 C385 1.254 . S
O381 Zn378 2.031 . S
O381 C385 1.269 . S
O382 Zn379 1.986 . S
O382 C389 1.262 . S
O383 Zn378 2.049 . S
O383 C391 1.260 . S
O384 Zn379 1.996 . S
O384 C391 1.257 . S
C385 O380 1.254 . S
C385 O381 1.269 . S
C386 O387 1.249 . S
C386 O388 1.270 . S
O387 Zn379 1.943 . S
O387 C386 1.249 . S
O388 Zn378 2.067 . S
O388 C386 1.270 . S
C389 O382 1.262 . S
C389 O390 1.232 . S
O390 C389 1.232 . S
C391 O383 1.260 . S
C391 O384 1.257 . S
Zn392 O395 2.031 . S
Zn392 O397 2.049 . S
Zn392 O402 2.067 . S
Zn393 O394 1.962 . S
Zn393 O396 1.986 . S
Zn393 O398 1.996 . S
Zn393 O401 1.943 . S
O394 Zn393 1.962 . S
O394 C399 1.254 . S
O395 Zn392 2.031 . S
O395 C399 1.269 . S
O396 Zn393 1.986 . S
O396 C403 1.262 . S
O397 Zn392 2.049 . S
O397 C405 1.260 . S
O398 Zn393 1.996 . S
O398 C405 1.257 . S
C399 O394 1.254 . S
C399 O395 1.269 . S
C400 O401 1.249 . S
C400 O402 1.270 . S
O401 Zn393 1.943 . S
O401 C400 1.249 . S
O402 Zn392 2.067 . S
O402 C400 1.270 . S
C403 O396 1.262 . S
C403 O404 1.232 . S
O404 C403 1.232 . S
C405 O397 1.260 . S
C405 O398 1.257 . S
Zn406 O409 2.031 . S
Zn406 O411 2.049 . S
Zn406 O416 2.067 . S
Zn407 O408 1.962 . S
Zn407 O410 1.986 . S
Zn407 O412 1.996 . S
Zn407 O415 1.943 . S
O408 Zn407 1.962 . S
O408 C413 1.254 . S
O409 Zn406 2.031 . S
O409 C413 1.269 . S
O410 Zn407 1.986 . S
O410 C417 1.262 . S
O411 Zn406 2.049 . S
O411 C419 1.260 . S
O412 Zn407 1.996 . S
O412 C419 1.257 . S
C413 O408 1.254 . S
C413 O409 1.269 . S
C414 O415 1.249 . S
C414 O416 1.270 . S
O415 Zn407 1.943 . S
O415 C414 1.249 . S
O416 Zn406 2.067 . S
O416 C414 1.270 . S
C417 O410 1.262 . S
C417 O418 1.232 . S
O418 C417 1.232 . S
C419 O411 1.260 . S
C419 O412 1.257 . S
Zn420 O423 2.031 . S
Zn420 O425 2.049 . S
Zn420 O430 2.067 . S
Zn421 O422 1.962 . S
Zn421 O424 1.986 . S
Zn421 O426 1.996 . S
Zn421 O429 1.943 . S
O422 Zn421 1.962 . S
O422 C427 1.254 . S
O423 Zn420 2.031 . S
O423 C427 1.269 . S
O424 Zn421 1.986 . S
O424 C431 1.262 . S
O425 Zn420 2.049 . S
O425 C433 1.260 . S
O426 Zn421 1.996 . S
O426 C433 1.257 . S
C427 O422 1.254 . S
C427 O423 1.269 . S
C428 O429 1.249 . S
C428 O430 1.270 . S
O429 Zn421 1.943 . S
O429 C428 1.249 . S
O430 Zn420 2.067 . S
O430 C428 1.270 . S
C431 O424 1.262 . S
C431 O432 1.232 . S
O432 C431 1.232 . S
C433 O425 1.260 . S
C433 O426 1.257 . S
Zn434 O437 2.031 . S
Zn434 O439 2.049 . S
Zn434 O444 2.067 . S
Zn435 O436 1.962 . S
Zn435 O438 1.986 . S
Zn435 O440 1.996 . S
Zn435 O443 1.943 . S
O436 Zn435 1.962 . S
O436 C441 1.254 . S
O437 Zn434 2.031 . S
O437 C441 1.269 . S
O438 Zn435 1.986 . S
O438 C445 1.262 . S
O439 Zn434 2.049 . S
O439 C447 1.260 . S
O440 Zn435 1.996 . S
O440 C447 1.257 . S
C441 O436 1.254 . S
C441 O437 1.269 . S
C442 O443 1.249 . S
C442 O444 1.270 . S
O443 Zn435 1.943 . S
O443 C442 1.249 . S
O444 Zn434 2.067 . S
O444 C442 1.270 . S
C445 O438 1.262 . S
C445 O446 1.232 . S
O446 C445 1.232 . S
C447 O439 1.260 . S
C447 O440 1.257 . S
Zn448 O451 2.031 . S
Zn448 O453 2.049 . S
Zn448 O458 2.067 . S
Zn449 O450 1.962 . S
Zn449 O452 1.986 . S
Zn449 O454 1.996 . S
Zn449 O457 1.943 . S
O450 Zn449 1.962 . S
O450 C455 1.254 . S
O451 Zn448 2.031 . S
O451 C455 1.269 . S
O452 Zn449 1.986 . S
O452 C459 1.262 . S
O453 Zn448 2.049 . S
O453 C461 1.260 . S
O454 Zn449 1.996 . S
O454 C461 1.257 . S
C455 O450 1.254 . S
C455 O451 1.269 . S
C456 O457 1.249 . S
C456 O458 1.270 . S
O457 Zn449 1.943 . S
O457 C456 1.249 . S
O458 Zn448 2.067 . S
O458 C456 1.270 . S
C459 O452 1.262 . S
C459 O460 1.232 . S
O460 C459 1.232 . S
C461 O453 1.260 . S
C461 O454 1.257 . S
Zn462 O465 2.031 . S
Zn462 O467 2.049 . S
Zn462 O472 2.067 . S
Zn463 O464 1.962 . S
Zn463 O466 1.986 . S
Zn463 O468 1.996 . S
Zn463 O471 1.943 . S
O464 Zn463 1.962 . S
O464 C469 1.254 . S
O465 Zn462 2.031 . S
O465 C469 1.269 . S
O466 Zn463 1.986 . S
O466 C473 1.262 1_556 S
O467 Zn462 2.049 . S
O467 C475 1.260 . S
O468 Zn463 1.996 . S
O468 C475 1.257 . S
C469 O464 1.254 . S
C469 O465 1.269 . S
C470 O471 1.249 . S
C470 O472 1.270 . S
O471 Zn463 1.943 . S
O471 C470 1.249 . S
O472 Zn462 2.067 . S
O472 C470 1.270 . S
C473 O466 1.262 1_554 S
C473 O474 1.232 . S
O474 C473 1.232 . S
C475 O467 1.260 . S
C475 O468 1.257 . S
Zn476 O479 2.031 . S
Zn476 O481 2.049 . S
Zn476 O486 2.067 . S
Zn477 O478 1.962 . S
Zn477 O480 1.986 . S
Zn477 O482 1.996 . S
Zn477 O485 1.943 . S
O478 Zn477 1.962 . S
O478 C483 1.254 . S
O479 Zn476 2.031 . S
O479 C483 1.269 . S
O480 Zn477 1.986 . S
O480 C487 1.262 1_556 S
O481 Zn476 2.049 . S
O481 C489 1.260 . S
O482 Zn477 1.996 . S
O482 C489 1.257 . S
C483 O478 1.254 . S
C483 O479 1.269 . S
C484 O485 1.249 . S
C484 O486 1.270 . S
O485 Zn477 1.943 . S
O485 C484 1.249 . S
O486 Zn476 2.067 . S
O486 C484 1.270 . S
C487 O480 1.262 1_554 S
C487 O488 1.232 . S
O488 C487 1.232 . S
C489 O481 1.260 . S
C489 O482 1.257 . S
Zn490 O493 2.031 . S
Zn490 O495 2.049 . S
Zn490 O500 2.067 . S
Zn491 O492 1.962 . S
Zn491 O494 1.986 . S
Zn491 O496 1.996 . S
Zn491 O499 1.943 . S
O492 Zn491 1.962 . S
O492 C497 1.254 . S
O493 Zn490 2.031 . S
O493 C497 1.269 . S
O494 Zn491 1.986 . S
O494 C501 1.262 1_556 S
O495 Zn490 2.049 . S
O495 C503 1.260 . S
O496 Zn491 1.996 . S
O496 C503 1.257 . S
C497 O492 1.254 . S
C497 O493 1.269 . S
C498 O499 1.249 . S
C498 O500 1.270 . S
O499 Zn491 1.943 . S
O499 C498 1.249 . S
O500 Zn490 2.067 . S
O500 C498 1.270 . S
C501 O494 1.262 1_554 S
C501 O502 1.232 . S
O502 C501 1.232 . S
C503 O495 1.260 . S
C503 O496 1.257 . S
C504 C505 1.363 1_545 S
C504 C510 1.379 . S
C504 N512 1.356 . S
C505 C504 1.363 1_565 S
C505 C511 1.363 . S
C506 C507 1.363 1_565 S
C506 C511 1.379 . S
C506 N513 1.356 . S
C507 C506 1.363 1_545 S
C507 C510 1.363 . S
N508 C510 1.356 . S
N508 H520 0.984 . S
N508 H521 0.985 . S
N509 C511 1.356 . S
N509 H514 0.984 . S
N509 H515 0.985 . S
C510 C504 1.379 . S
C510 C507 1.363 . S
C510 N508 1.356 . S
C511 C505 1.363 . S
C511 C506 1.379 . S
C511 N509 1.356 . S
N512 C504 1.356 . S
N512 H518 0.984 . S
N512 H519 0.984 1_545 S
N513 C506 1.356 . S
N513 H516 0.984 1_565 S
N513 H517 0.985 . S
H514 N509 0.984 . S
H515 N509 0.985 . S
H516 N513 0.984 1_545 S
H517 N513 0.985 . S
H518 N512 0.984 . S
H519 N512 0.984 1_565 S
H520 N508 0.984 . S
H521 N508 0.985 . S
C522 C523 1.354 1_655 S
C522 C528 1.406 . S
C522 N530 1.334 1_655 S
C523 C522 1.354 1_455 S
C523 C529 1.363 . S
C524 C525 1.354 1_455 S
C524 C529 1.406 . S
C524 N531 1.334 1_455 S
C525 C524 1.354 1_655 S
C525 C528 1.363 . S
N526 C528 1.356 . S
N526 H538 0.984 . S
N526 H539 0.985 . S
N527 C529 1.356 . S
N527 H532 0.984 . S
N527 H533 0.985 . S
C528 C522 1.406 . S
C528 C525 1.363 . S
C528 N526 1.356 . S
C529 C523 1.363 . S
C529 C524 1.406 . S
C529 N527 1.356 . S
N530 C522 1.334 1_455 S
N530 H536 0.984 1_455 S
N530 H537 0.984 . S
N531 C524 1.334 1_655 S
N531 H534 0.984 . S
N531 H535 0.985 1_655 S
H532 N527 0.984 . S
H533 N527 0.985 . S
H534 N531 0.984 . S
H535 N531 0.985 1_455 S
H536 N530 0.984 1_655 S
H537 N530 0.984 . S
H538 N526 0.984 . S
H539 N526 0.985 . S
C540 C541 1.363 . S
C540 C546 1.379 . S
C540 N548 1.356 . S
C541 C540 1.363 . S
C541 C547 1.363 . S
C542 C543 1.363 . S
C542 C547 1.379 . S
C542 N549 1.356 . S
C543 C542 1.363 . S
C543 C546 1.363 . S
N544 C546 1.356 . S
N544 H556 0.984 . S
N544 H557 0.985 . S
N545 C547 1.356 . S
N545 H550 0.984 . S
N545 H551 0.985 . S
C546 C540 1.379 . S
C546 C543 1.363 . S
C546 N544 1.356 . S
C547 C541 1.363 . S
C547 C542 1.379 . S
C547 N545 1.356 . S
N548 C540 1.356 . S
N548 H554 0.984 . S
N548 H555 0.984 . S
N549 C542 1.356 . S
N549 H552 0.984 . S
N549 H553 0.985 . S
H550 N545 0.984 . S
H551 N545 0.985 . S
H552 N549 0.984 . S
H553 N549 0.985 . S
H554 N548 0.984 . S
H555 N548 0.984 . S
H556 N544 0.984 . S
H557 N544 0.985 . S
C558 C559 1.363 . S
C558 C564 1.379 . S
C558 N566 1.356 . S
C559 C558 1.363 . S
C559 C565 1.363 1_565 S
C560 C561 1.363 . S
C560 C565 1.379 . S
C560 N567 1.356 . S
C561 C560 1.363 . S
C561 C564 1.363 1_545 S
N562 C564 1.356 . S
N562 H574 0.984 . S
N562 H575 0.985 1_565 S
N563 C565 1.356 . S
N563 H568 0.984 1_545 S
N563 H569 0.985 . S
C564 C558 1.379 . S
C564 C561 1.363 1_565 S
C564 N562 1.356 . S
C565 C559 1.363 1_545 S
C565 C560 1.379 . S
C565 N563 1.356 . S
N566 C558 1.356 . S
N566 H572 0.984 . S
N566 H573 0.984 . S
N567 C560 1.356 . S
N567 H570 0.984 . S
N567 H571 0.985 . S
H568 N563 0.984 1_565 S
H569 N563 0.985 . S
H570 N567 0.984 . S
H571 N567 0.985 . S
H572 N566 0.984 . S
H573 N566 0.984 . S
H574 N562 0.984 . S
H575 N562 0.985 1_545 S
C576 C577 1.363 . S
C576 C582 1.379 1_455 S
C576 N584 1.356 . S
C577 C576 1.363 . S
C577 C583 1.363 . S
C578 C579 1.363 . S
C578 C583 1.379 1_655 S
C578 N585 1.356 . S
C579 C578 1.363 . S
C579 C582 1.363 . S
N580 C582 1.356 . S
N580 H592 0.984 . S
N580 H593 0.985 . S
N581 C583 1.356 . S
N581 H586 0.984 . S
N581 H587 0.985 . S
C582 C576 1.379 1_655 S
C582 C579 1.363 . S
C582 N580 1.356 . S
C583 C577 1.363 . S
C583 C578 1.379 1_455 S
C583 N581 1.356 . S
N584 C576 1.356 . S
N584 H590 0.984 . S
N584 H591 0.984 . S
N585 C578 1.356 . S
N585 H588 0.984 . S
N585 H589 0.985 . S
H586 N581 0.984 . S
H587 N581 0.985 . S
H588 N585 0.984 . S
H589 N585 0.985 . S
H590 N584 0.984 . S
H591 N584 0.984 . S
H592 N580 0.984 . S
H593 N580 0.985 . S
C594 C595 1.363 . S
C594 C600 1.379 . S
C594 N602 1.356 . S
C595 C594 1.363 . S
C595 C601 1.363 . S
C596 C597 1.363 . S
C596 C601 1.379 . S
C596 N603 1.356 . S
C597 C596 1.363 . S
C597 C600 1.363 . S
N598 C600 1.356 . S
N598 H610 0.984 . S
N598 H611 0.985 . S
N599 C601 1.356 . S
N599 H604 0.984 . S
N599 H605 0.985 . S
C600 C594 1.379 . S
C600 C597 1.363 . S
C600 N598 1.356 . S
C601 C595 1.363 . S
C601 C596 1.379 . S
C601 N599 1.356 . S
N602 C594 1.356 . S
N602 H608 0.984 . S
N602 H609 0.984 . S
N603 C596 1.356 . S
N603 H606 0.984 . S
N603 H607 0.985 . S
H604 N599 0.984 . S
H605 N599 0.985 . S
H606 N603 0.984 . S
H607 N603 0.985 . S
H608 N602 0.984 . S
H609 N602 0.984 . S
H610 N598 0.984 . S
H611 N598 0.985 . S
C612 C613 1.363 . S
C612 C618 1.379 . S
C612 N620 1.356 . S
C613 C612 1.363 . S
C613 C619 1.363 . S
C614 C615 1.363 . S
C614 C619 1.379 . S
C614 N621 1.356 . S
C615 C614 1.363 . S
C615 C618 1.363 . S
N616 C618 1.356 . S
N616 H628 0.984 . S
N616 H629 0.985 . S
N617 C619 1.356 . S
N617 H622 0.984 . S
N617 H623 0.985 . S
C618 C612 1.379 . S
C618 C615 1.363 . S
C618 N616 1.356 . S
C619 C613 1.363 . S
C619 C614 1.379 . S
C619 N617 1.356 . S
N620 C612 1.356 . S
N620 H626 0.984 . S
N620 H627 0.984 . S
N621 C614 1.356 . S
N621 H624 0.984 . S
N621 H625 0.985 . S
H622 N617 0.984 . S
H623 N617 0.985 . S
H624 N621 0.984 . S
H625 N621 0.985 . S
H626 N620 0.984 . S
H627 N620 0.984 . S
H628 N616 0.984 . S
H629 N616 0.985 . S
C630 C631 1.363 . S
C630 C636 1.379 . S
C630 N638 1.356 . S
C631 C630 1.363 . S
C631 C637 1.363 . S
C632 C633 1.363 . S
C632 C637 1.379 . S
C632 N639 1.356 . S
C633 C632 1.363 . S
C633 C636 1.363 . S
N634 C636 1.356 . S
N634 H646 0.984 . S
N634 H647 0.985 . S
N635 C637 1.356 . S
N635 H640 0.984 . S
N635 H641 0.985 . S
C636 C630 1.379 . S
C636 C633 1.363 . S
C636 N634 1.356 . S
C637 C631 1.363 . S
C637 C632 1.379 . S
C637 N635 1.356 . S
N638 C630 1.356 . S
N638 H644 0.984 . S
N638 H645 0.984 . S
N639 C632 1.356 . S
N639 H642 0.984 . S
N639 H643 0.985 . S
H640 N635 0.984 . S
H641 N635 0.985 . S
H642 N639 0.984 . S
H643 N639 0.985 . S
H644 N638 0.984 . S
H645 N638 0.984 . S
H646 N634 0.984 . S
H647 N634 0.985 . S
C648 C649 1.363 . S
C648 C654 1.379 . S
C648 N656 1.356 . S
C649 C648 1.363 . S
C649 C655 1.363 . S
C650 C651 1.363 . S
C650 C655 1.379 . S
C650 N657 1.356 . S
C651 C650 1.363 . S
C651 C654 1.363 . S
N652 C654 1.356 . S
N652 H664 0.984 . S
N652 H665 0.985 . S
N653 C655 1.356 . S
N653 H658 0.984 . S
N653 H659 0.985 . S
C654 C648 1.379 . S
C654 C651 1.363 . S
C654 N652 1.356 . S
C655 C649 1.363 . S
C655 C650 1.379 . S
C655 N653 1.356 . S
N656 C648 1.356 . S
N656 H662 0.984 . S
N656 H663 0.984 . S
N657 C650 1.356 . S
N657 H660 0.984 . S
N657 H661 0.985 . S
H658 N653 0.984 . S
H659 N653 0.985 . S
H660 N657 0.984 . S
H661 N657 0.985 . S
H662 N656 0.984 . S
H663 N656 0.984 . S
H664 N652 0.984 . S
H665 N652 0.985 . S
C666 C667 1.363 . S
C666 C672 1.379 . S
C666 N674 1.356 . S
C667 C666 1.363 . S
C667 C673 1.363 . S
C668 C669 1.363 . S
C668 C673 1.379 . S
C668 N675 1.356 . S
C669 C668 1.363 . S
C669 C672 1.363 . S
N670 C672 1.356 . S
N670 H682 0.984 . S
N670 H683 0.985 . S
N671 C673 1.356 . S
N671 H676 0.984 . S
N671 H677 0.985 . S
C672 C666 1.379 . S
C672 C669 1.363 . S
C672 N670 1.356 . S
C673 C667 1.363 . S
C673 C668 1.379 . S
C673 N671 1.356 . S
N674 C666 1.356 . S
N674 H680 0.984 . S
N674 H681 0.984 . S
N675 C668 1.356 . S
N675 H678 0.984 1_556 S
N675 H679 0.985 . S
H676 N671 0.984 . S
H677 N671 0.985 . S
H678 N675 0.984 1_554 S
H679 N675 0.985 . S
H680 N674 0.984 . S
H681 N674 0.984 . S
H682 N670 0.984 . S
H683 N670 0.985 . S
C684 C685 1.363 . S
C684 C690 1.379 . S
C684 N692 1.356 . S
C685 C684 1.363 . S
C685 C691 1.363 . S
C686 C687 1.363 . S
C686 C691 1.379 . S
C686 N693 1.356 . S
C687 C686 1.363 . S
C687 C690 1.363 . S
N688 C690 1.356 . S
N688 H700 0.984 . S
N688 H701 0.985 . S
N689 C691 1.356 . S
N689 H694 0.984 . S
N689 H695 0.985 . S
C690 C684 1.379 . S
C690 C687 1.363 . S
C690 N688 1.356 . S
C691 C685 1.363 . S
C691 C686 1.379 . S
C691 N689 1.356 . S
N692 C684 1.356 . S
N692 H698 0.984 . S
N692 H699 0.984 . S
N693 C686 1.356 . S
N693 H696 0.984 . S
N693 H697 0.985 . S
H694 N689 0.984 . S
H695 N689 0.985 . S
H696 N693 0.984 . S
H697 N693 0.985 . S
H698 N692 0.984 . S
H699 N692 0.984 . S
H700 N688 0.984 . S
H701 N688 0.985 . S
C702 C703 1.363 . S
C702 C708 1.379 . S
C702 N710 1.356 . S
C703 C702 1.363 . S
C703 C709 1.363 . S
C704 C705 1.363 . S
C704 C709 1.379 . S
C704 N711 1.356 . S
C705 C704 1.363 . S
C705 C708 1.363 . S
N706 C708 1.356 . S
N706 H718 0.984 . S
N706 H719 0.985 . S
N707 C709 1.356 . S
N707 H712 0.984 . S
N707 H713 0.985 . S
C708 C702 1.379 . S
C708 C705 1.363 . S
C708 N706 1.356 . S
C709 C703 1.363 . S
C709 C704 1.379 . S
C709 N707 1.356 . S
N710 C702 1.356 . S
N710 H716 0.984 . S
N710 H717 0.984 . S
N711 C704 1.356 . S
N711 H714 0.984 . S
N711 H715 0.985 . S
H712 N707 0.984 . S
H713 N707 0.985 . S
H714 N711 0.984 . S
H715 N711 0.985 . S
H716 N710 0.984 . S
H717 N710 0.984 . S
H718 N706 0.984 . S
H719 N706 0.985 . S
C720 C721 1.363 . S
C720 C726 1.379 . S
C720 N728 1.356 . S
C721 C720 1.363 . S
C721 C727 1.363 . S
C722 C723 1.363 . S
C722 C727 1.379 . S
C722 N729 1.356 . S
C723 C722 1.363 . S
C723 C726 1.363 . S
N724 C726 1.356 . S
N724 H736 0.984 . S
N724 H737 0.985 . S
N725 C727 1.356 . S
N725 H730 0.984 . S
N725 H731 0.985 . S
C726 C720 1.379 . S
C726 C723 1.363 . S
C726 N724 1.356 . S
C727 C721 1.363 . S
C727 C722 1.379 . S
C727 N725 1.356 . S
N728 C720 1.356 . S
N728 H734 0.984 . S
N728 H735 0.984 . S
N729 C722 1.356 . S
N729 H732 0.980 1_554 S
N729 H733 0.985 . S
H730 N725 0.984 . S
H731 N725 0.985 . S
H732 N729 0.980 1_556 S
H733 N729 0.985 . S
H734 N728 0.984 . S
H735 N728 0.984 . S
H736 N724 0.984 . S
H737 N724 0.985 . S
C738 C739 1.363 . S
C738 C744 1.379 . S
C738 N746 1.356 . S
C739 C738 1.363 . S
C739 C745 1.363 . S
C740 C741 1.363 . S
C740 C745 1.379 . S
C740 N747 1.356 . S
C741 C740 1.363 . S
C741 C744 1.363 . S
N742 C744 1.356 . S
N742 H754 0.984 . S
N742 H755 0.985 . S
N743 C745 1.356 . S
N743 H748 0.984 . S
N743 H749 0.985 . S
C744 C738 1.379 . S
C744 C741 1.363 . S
C744 N742 1.356 . S
C745 C739 1.363 . S
C745 C740 1.379 . S
C745 N743 1.356 . S
N746 C738 1.356 . S
N746 H752 0.984 . S
N746 H753 0.984 . S
N747 C740 1.356 . S
N747 H750 0.984 . S
N747 H751 0.985 . S
H748 N743 0.984 . S
H749 N743 0.985 . S
H750 N747 0.984 . S
H751 N747 0.985 . S
H752 N746 0.984 . S
H753 N746 0.984 . S
H754 N742 0.984 . S
H755 N742 0.985 . S
C756 C757 1.363 . S
C756 C762 1.379 . S
C756 N764 1.356 . S
C757 C756 1.363 . S
C757 C763 1.363 . S
C758 C759 1.363 . S
C758 C763 1.379 . S
C758 N765 1.356 . S
C759 C758 1.363 . S
C759 C762 1.363 . S
N760 C762 1.356 . S
N760 H772 0.984 . S
N760 H773 0.985 . S
N761 C763 1.356 . S
N761 H766 0.984 . S
N761 H767 0.985 . S
C762 C756 1.379 . S
C762 C759 1.363 . S
C762 N760 1.356 . S
C763 C757 1.363 . S
C763 C758 1.379 . S
C763 N761 1.356 . S
N764 C756 1.356 . S
N764 H770 0.984 . S
N764 H771 0.984 . S
N765 C758 1.356 . S
N765 H768 0.984 . S
N765 H769 0.985 . S
H766 N761 0.984 . S
H767 N761 0.985 . S
H768 N765 0.984 . S
H769 N765 0.985 . S
H770 N764 0.984 . S
H771 N764 0.984 . S
H772 N760 0.984 . S
H773 N760 0.985 . S
C774 C775 1.363 . S
C774 C780 1.379 . S
C774 N782 1.356 . S
C775 C774 1.363 . S
C775 C781 1.363 . S
C776 C777 1.363 . S
C776 C781 1.379 . S
C776 N783 1.356 . S
C777 C776 1.363 . S
C777 C780 1.363 . S
N778 C780 1.356 . S
N778 H790 0.984 . S
N778 H791 0.985 . S
N779 C781 1.356 . S
N779 H784 0.984 . S
N779 H785 0.985 . S
C780 C774 1.379 . S
C780 C777 1.363 . S
C780 N778 1.356 . S
C781 C775 1.363 . S
C781 C776 1.379 . S
C781 N779 1.356 . S
N782 C774 1.356 . S
N782 H788 0.984 . S
N782 H789 0.984 . S
N783 C776 1.356 . S
N783 H786 0.984 . S
N783 H787 0.985 . S
H784 N779 0.984 . S
H785 N779 0.985 . S
H786 N783 0.984 . S
H787 N783 0.985 . S
H788 N782 0.984 . S
H789 N782 0.984 . S
H790 N778 0.984 . S
H791 N778 0.985 . S
C792 C793 1.363 . S
C792 C798 1.379 . S
C792 N800 1.356 . S
C793 C792 1.363 . S
C793 C799 1.363 . S
C794 C795 1.363 . S
C794 C799 1.379 . S
C794 N801 1.356 . S
C795 C794 1.363 . S
C795 C798 1.363 . S
N796 C798 1.356 . S
N796 H808 0.984 . S
N796 H809 0.985 . S
N797 C799 1.356 . S
N797 H802 0.984 . S
N797 H803 0.985 . S
C798 C792 1.379 . S
C798 C795 1.363 . S
C798 N796 1.356 . S
C799 C793 1.363 . S
C799 C794 1.379 . S
C799 N797 1.356 . S
N800 C792 1.356 . S
N800 H806 0.984 . S
N800 H807 0.984 . S
N801 C794 1.356 . S
N801 H804 0.984 . S
N801 H805 0.985 . S
H802 N797 0.984 . S
H803 N797 0.985 . S
H804 N801 0.984 . S
H805 N801 0.985 . S
H806 N800 0.984 . S
H807 N800 0.984 . S
H808 N796 0.984 . S
H809 N796 0.985 . S
C810 C811 1.363 . S
C810 C816 1.379 . S
C810 N818 1.356 . S
C811 C810 1.363 . S
C811 C817 1.363 . S
C812 C813 1.363 . S
C812 C817 1.379 . S
C812 N819 1.356 . S
C813 C812 1.363 . S
C813 C816 1.363 . S
N814 C816 1.356 . S
N814 H826 0.984 . S
N814 H827 0.985 . S
N815 C817 1.356 . S
N815 H820 0.984 . S
N815 H821 0.985 . S
C816 C810 1.379 . S
C816 C813 1.363 . S
C816 N814 1.356 . S
C817 C811 1.363 . S
C817 C812 1.379 . S
C817 N815 1.356 . S
N818 C810 1.356 . S
N818 H824 0.984 . S
N818 H825 0.984 . S
N819 C812 1.356 . S
N819 H822 0.984 . S
N819 H823 0.985 . S
H820 N815 0.984 . S
H821 N815 0.985 . S
H822 N819 0.984 . S
H823 N819 0.985 . S
H824 N818 0.984 . S
H825 N818 0.984 . S
H826 N814 0.984 . S
H827 N814 0.985 . S
C828 C829 1.363 1_554 S
C828 C834 1.379 . S
C828 N836 1.356 1_554 S
C829 C828 1.363 1_556 S
C829 C835 1.363 1_565 S
C830 C831 1.363 1_556 S
C830 C835 1.379 . S
C830 N837 1.356 1_556 S
C831 C830 1.363 1_554 S
C831 C834 1.363 1_545 S
N832 C834 1.356 . S
N832 H844 0.984 . S
N832 H845 0.985 1_565 S
N833 C835 1.356 . S
N833 H838 0.984 1_545 S
N833 H839 0.985 . S
C834 C828 1.379 . S
C834 C831 1.363 1_565 S
C834 N832 1.356 . S
C835 C829 1.363 1_545 S
C835 C830 1.379 . S
C835 N833 1.356 . S
N836 C828 1.356 1_556 S
N836 H842 0.984 1_556 S
N836 H843 0.984 . S
N837 C830 1.356 1_554 S
N837 H840 0.984 . S
N837 H841 0.985 1_554 S
H838 N833 0.984 1_565 S
H839 N833 0.985 . S
H840 N837 0.984 . S
H841 N837 0.985 1_556 S
H842 N836 0.984 1_554 S
H843 N836 0.984 . S
H844 N832 0.984 . S
H845 N832 0.985 1_545 S
C846 C847 1.354 1_455 S
C846 C852 1.409 1_554 S
C846 N854 1.332 1_455 S
C847 C846 1.354 1_655 S
C847 C853 1.363 . S
C848 C849 1.354 1_655 S
C848 C853 1.409 1_556 S
C848 N855 1.331 1_655 S
C849 C848 1.354 1_455 S
C849 C852 1.363 . S
N850 C852 1.356 . S
N850 H862 0.984 . S
N850 H863 0.985 . S
N851 C853 1.356 . S
N851 H856 0.984 . S
N851 H857 0.985 . S
C852 C846 1.409 1_556 S
C852 C849 1.363 . S
C852 N850 1.356 . S
C853 C847 1.363 . S
C853 C848 1.409 1_554 S
C853 N851 1.356 . S
N854 C846 1.332 1_655 S
N854 H860 0.984 1_655 S
N854 H861 0.984 . S
N855 C848 1.331 1_455 S
N855 H858 0.984 . S
N855 H859 0.985 1_455 S
H856 N851 0.984 . S
H857 N851 0.985 . S
H858 N855 0.984 . S
H859 N855 0.985 1_655 S
H860 N854 0.984 1_455 S
H861 N854 0.984 . S
H862 N850 0.984 . S
H863 N850 0.985 . S
C864 C865 1.363 . S
C864 C870 1.379 1_556 S
C864 N872 1.356 . S
C865 C864 1.363 . S
C865 C871 1.363 . S
C866 C867 1.363 . S
C866 C871 1.379 1_554 S
C866 N873 1.356 . S
C867 C866 1.363 . S
C867 C870 1.363 . S
N868 C870 1.356 . S
N868 H880 0.984 . S
N868 H881 0.985 . S
N869 C871 1.356 . S
N869 H874 0.984 . S
N869 H875 0.985 . S
C870 C864 1.379 1_554 S
C870 C867 1.363 . S
C870 N868 1.356 . S
C871 C865 1.363 . S
C871 C866 1.379 1_556 S
C871 N869 1.356 . S
N872 C864 1.356 . S
N872 H878 0.984 . S
N872 H879 0.984 . S
N873 C866 1.356 . S
N873 H876 0.984 . S
N873 H877 0.985 . S
H874 N869 0.984 . S
H875 N869 0.985 . S
H876 N873 0.984 . S
H877 N873 0.985 . S
H878 N872 0.984 . S
H879 N872 0.984 . S
H880 N868 0.984 . S
H881 N868 0.985 . S
C882 C883 1.363 . S
C882 C888 1.379 1_556 S
C882 N890 1.356 . S
C883 C882 1.363 . S
C883 C889 1.363 1_565 S
C884 C885 1.363 . S
C884 C889 1.379 1_554 S
C884 N891 1.356 . S
C885 C884 1.363 . S
C885 C888 1.363 1_545 S
N886 C888 1.356 . S
N886 H898 0.984 . S
N886 H899 0.985 1_565 S
N887 C889 1.356 . S
N887 H892 0.984 1_545 S
N887 H893 0.985 . S
C888 C882 1.379 1_554 S
C888 C885 1.363 1_565 S
C888 N886 1.356 . S
C889 C883 1.363 1_545 S
C889 C884 1.379 1_556 S
C889 N887 1.356 . S
N890 C882 1.356 . S
N890 H896 0.984 1_556 S
N890 H897 0.984 . S
N891 C884 1.356 . S
N891 H894 0.984 . S
N891 H895 0.985 1_554 S
H892 N887 0.984 1_565 S
H893 N887 0.985 . S
H894 N891 0.984 . S
H895 N891 0.985 1_556 S
H896 N890 0.984 1_554 S
H897 N890 0.984 . S
H898 N886 0.984 . S
H899 N886 0.985 1_545 S
C900 C901 1.363 1_655 S
C900 C906 1.379 1_556 S
C900 N908 1.356 . S
C901 C900 1.363 1_455 S
C901 C907 1.363 . S
C902 C903 1.363 1_455 S
C902 C907 1.379 1_554 S
C902 N909 1.356 . S
C903 C902 1.363 1_655 S
C903 C906 1.363 . S
N904 C906 1.356 . S
N904 H916 0.984 1_554 S
N904 H917 0.985 . S
N905 C907 1.356 . S
N905 H910 0.984 . S
N905 H911 0.985 1_556 S
C906 C900 1.379 1_554 S
C906 C903 1.363 . S
C906 N904 1.356 . S
C907 C901 1.363 . S
C907 C902 1.379 1_556 S
C907 N905 1.356 . S
N908 C900 1.356 . S
N908 H914 0.984 . S
N908 H915 0.984 1_655 S
N909 C902 1.356 . S
N909 H912 0.984 1_455 S
N909 H913 0.985 . S
H910 N905 0.984 . S
H911 N905 0.985 1_554 S
H912 N909 0.984 1_655 S
H913 N909 0.985 . S
H914 N908 0.984 . S
H915 N908 0.984 1_455 S
H916 N904 0.984 1_556 S
H917 N904 0.985 . S
C918 C919 1.363 1_556 S
C918 C924 1.379 . S
C918 N926 1.356 1_556 S
C919 C918 1.363 1_554 S
C919 C925 1.363 . S
C920 C921 1.363 1_554 S
C920 C925 1.379 . S
C920 N927 1.356 1_554 S
C921 C920 1.363 1_556 S
C921 C924 1.363 . S
N922 C924 1.356 . S
N922 H934 0.984 . S
N922 H935 0.985 . S
N923 C925 1.356 . S
N923 H928 0.984 . S
N923 H929 0.985 . S
C924 C918 1.379 . S
C924 C921 1.363 . S
C924 N922 1.356 . S
C925 C919 1.363 . S
C925 C920 1.379 . S
C925 N923 1.356 . S
N926 C918 1.356 1_554 S
N926 H932 0.984 1_554 S
N926 H933 0.984 . S
N927 C920 1.356 1_556 S
N927 H930 0.984 . S
N927 H931 0.985 1_556 S
H928 N923 0.984 . S
H929 N923 0.985 . S
H930 N927 0.984 . S
H931 N927 0.985 1_554 S
H932 N926 0.984 1_556 S
H933 N926 0.984 . S
H934 N922 0.984 . S
H935 N922 0.985 . S
C936 C937 1.363 . S
C936 C942 1.379 . S
C936 N944 1.356 . S
C937 C936 1.363 . S
C937 C943 1.363 . S
C938 C939 1.363 . S
C938 C943 1.379 . S
C938 N945 1.356 . S
C939 C938 1.363 . S
C939 C942 1.363 . S
N940 C942 1.356 . S
N940 H952 0.984 . S
N940 H953 0.985 . S
N941 C943 1.356 . S
N941 H946 0.984 . S
N941 H947 0.985 . S
C942 C936 1.379 . S
C942 C939 1.363 . S
C942 N940 1.356 . S
C943 C937 1.363 . S
C943 C938 1.379 . S
C943 N941 1.356 . S
N944 C936 1.356 . S
N944 H950 0.984 . S
N944 H951 0.984 . S
N945 C938 1.356 . S
N945 H948 0.984 . S
N945 H949 0.985 . S
H946 N941 0.984 . S
H947 N941 0.985 . S
H948 N945 0.984 . S
H949 N945 0.985 . S
H950 N944 0.984 . S
H951 N944 0.984 . S
H952 N940 0.984 . S
H953 N940 0.985 . S
C954 C955 1.363 . S
C954 C960 1.379 . S
C954 N962 1.356 . S
C955 C954 1.363 . S
C955 C961 1.363 . S
C956 C957 1.363 . S
C956 C961 1.379 . S
C956 N963 1.356 . S
C957 C956 1.363 . S
C957 C960 1.363 . S
N958 C960 1.356 . S
N958 H970 0.984 . S
N958 H971 0.985 . S
N959 C961 1.356 . S
N959 H964 0.984 . S
N959 H965 0.985 . S
C960 C954 1.379 . S
C960 C957 1.363 . S
C960 N958 1.356 . S
C961 C955 1.363 . S
C961 C956 1.379 . S
C961 N959 1.356 . S
N962 C954 1.356 . S
N962 H968 0.984 . S
N962 H969 0.984 . S
N963 C956 1.356 . S
N963 H966 0.984 . S
N963 H967 0.985 . S
H964 N959 0.984 . S
H965 N959 0.985 . S
H966 N963 0.984 . S
H967 N963 0.985 . S
H968 N962 0.984 . S
H969 N962 0.984 . S
H970 N958 0.984 . S
H971 N958 0.985 . S
C972 C973 1.363 . S
C972 C978 1.379 . S
C972 N980 1.356 . S
C973 C972 1.363 . S
C973 C979 1.363 . S
C974 C975 1.363 . S
C974 C979 1.379 . S
C974 N981 1.356 . S
C975 C974 1.363 . S
C975 C978 1.363 . S
N976 C978 1.356 . S
N976 H988 0.984 . S
N976 H989 0.985 . S
N977 C979 1.356 . S
N977 H982 0.984 . S
N977 H983 0.985 . S
C978 C972 1.379 . S
C978 C975 1.363 . S
C978 N976 1.356 . S
C979 C973 1.363 . S
C979 C974 1.379 . S
C979 N977 1.356 . S
N980 C972 1.356 . S
N980 H986 0.984 . S
N980 H987 0.984 . S
N981 C974 1.356 . S
N981 H984 0.984 . S
N981 H985 0.985 . S
H982 N977 0.984 . S
H983 N977 0.985 . S
H984 N981 0.984 . S
H985 N981 0.985 . S
H986 N980 0.984 . S
H987 N980 0.984 . S
H988 N976 0.984 . S
H989 N976 0.985 . S
C990 C991 1.363 . S
C990 C996 1.379 . S
C990 N998 1.356 . S
C991 C990 1.363 . S
C991 C997 1.363 . S
C992 C993 1.363 . S
C992 C997 1.379 . S
C992 N999 1.356 . S
C993 C992 1.363 . S
C993 C996 1.363 . S
N994 C996 1.356 . S
N994 H1006 0.984 . S
N994 H1007 0.985 . S
N995 C997 1.356 . S
N995 H1000 0.984 . S
N995 H1001 0.985 . S
C996 C990 1.379 . S
C996 C993 1.363 . S
C996 N994 1.356 . S
C997 C991 1.363 . S
C997 C992 1.379 . S
C997 N995 1.356 . S
N998 C990 1.356 . S
N998 H1004 0.984 . S
N998 H1005 0.984 . S
N999 C992 1.356 . S
N999 H1002 0.984 . S
N999 H1003 0.985 . S
H1000 N995 0.984 . S
H1001 N995 0.985 . S
H1002 N999 0.984 . S
H1003 N999 0.985 . S
H1004 N998 0.984 . S
H1005 N998 0.984 . S
H1006 N994 0.984 . S
H1007 N994 0.985 . S
C1008 C1009 1.363 . S
C1008 C1014 1.379 . S
C1008 N1016 1.356 . S
C1009 C1008 1.363 . S
C1009 C1015 1.363 . S
C1010 C1011 1.363 . S
C1010 C1015 1.379 . S
C1010 N1017 1.356 . S
C1011 C1010 1.363 . S
C1011 C1014 1.363 . S
N1012 C1014 1.356 . S
N1012 H1024 0.984 . S
N1012 H1025 0.985 . S
N1013 C1015 1.356 . S
N1013 H1018 0.984 . S
N1013 H1019 0.985 . S
C1014 C1008 1.379 . S
C1014 C1011 1.363 . S
C1014 N1012 1.356 . S
C1015 C1009 1.363 . S
C1015 C1010 1.379 . S
C1015 N1013 1.356 . S
N1016 C1008 1.356 . S
N1016 H1022 0.984 . S
N1016 H1023 0.984 . S
N1017 C1010 1.356 . S
N1017 H1020 0.984 . S
N1017 H1021 0.985 . S
H1018 N1013 0.984 . S
H1019 N1013 0.985 . S
H1020 N1017 0.984 . S
H1021 N1017 0.985 . S
H1022 N1016 0.984 . S
H1023 N1016 0.984 . S
H1024 N1012 0.984 . S
H1025 N1012 0.985 . S
C1026 C1027 1.363 . S
C1026 C1032 1.379 . S
C1026 N1034 1.356 . S
C1027 C1026 1.363 . S
C1027 C1033 1.363 . S
C1028 C1029 1.363 . S
C1028 C1033 1.379 . S
C1028 N1035 1.356 . S
C1029 C1028 1.363 . S
C1029 C1032 1.363 . S
N1030 C1032 1.356 . S
N1030 H1042 0.984 . S
N1030 H1043 0.985 . S
N1031 C1033 1.356 . S
N1031 H1036 0.984 . S
N1031 H1037 0.985 . S
C1032 C1026 1.379 . S
C1032 C1029 1.363 . S
C1032 N1030 1.356 . S
C1033 C1027 1.363 . S
C1033 C1028 1.379 . S
C1033 N1031 1.356 . S
N1034 C1026 1.356 . S
N1034 H1040 0.984 . S
N1034 H1041 0.984 . S
N1035 C1028 1.356 . S
N1035 H1038 0.984 . S
N1035 H1039 0.985 . S
H1036 N1031 0.984 . S
H1037 N1031 0.985 . S
H1038 N1035 0.984 . S
H1039 N1035 0.985 . S
H1040 N1034 0.984 . S
H1041 N1034 0.984 . S
H1042 N1030 0.984 . S
H1043 N1030 0.985 . S
C1044 C1045 1.363 . S
C1044 C1050 1.379 . S
C1044 N1052 1.356 . S
C1045 C1044 1.363 . S
C1045 C1051 1.363 . S
C1046 C1047 1.363 . S
C1046 C1051 1.379 . S
C1046 N1053 1.356 . S
C1047 C1046 1.363 . S
C1047 C1050 1.363 . S
N1048 C1050 1.356 . S
N1048 H1060 0.984 . S
N1048 H1061 0.985 . S
N1049 C1051 1.356 . S
N1049 H1054 0.984 . S
N1049 H1055 0.985 . S
C1050 C1044 1.379 . S
C1050 C1047 1.363 . S
C1050 N1048 1.356 . S
C1051 C1045 1.363 . S
C1051 C1046 1.379 . S
C1051 N1049 1.356 . S
N1052 C1044 1.356 . S
N1052 H1058 0.984 . S
N1052 H1059 0.984 . S
N1053 C1046 1.356 . S
N1053 H1056 0.984 . S
N1053 H1057 0.985 . S
H1054 N1049 0.984 . S
H1055 N1049 0.985 . S
H1056 N1053 0.984 . S
H1057 N1053 0.985 . S
H1058 N1052 0.984 . S
H1059 N1052 0.984 . S
H1060 N1048 0.984 . S
H1061 N1048 0.985 . S
C1062 C1063 1.363 . S
C1062 C1068 1.379 . S
C1062 N1070 1.356 . S
C1063 C1062 1.363 . S
C1063 C1069 1.363 . S
C1064 C1065 1.363 . S
C1064 C1069 1.379 . S
C1064 N1071 1.356 . S
C1065 C1064 1.363 . S
C1065 C1068 1.363 . S
N1066 C1068 1.356 . S
N1066 H1078 0.984 . S
N1066 H1079 0.985 . S
N1067 C1069 1.356 . S
N1067 H1072 0.984 . S
N1067 H1073 0.985 . S
C1068 C1062 1.379 . S
C1068 C1065 1.363 . S
C1068 N1066 1.356 . S
C1069 C1063 1.363 . S
C1069 C1064 1.379 . S
C1069 N1067 1.356 . S
N1070 C1062 1.356 . S
N1070 H1076 0.984 . S
N1070 H1077 0.984 . S
N1071 C1064 1.356 . S
N1071 H1074 0.984 . S
N1071 H1075 0.985 . S
H1072 N1067 0.984 . S
H1073 N1067 0.985 . S
H1074 N1071 0.984 . S
H1075 N1071 0.985 . S
H1076 N1070 0.984 . S
H1077 N1070 0.984 . S
H1078 N1066 0.984 . S
H1079 N1066 0.985 . S
C1080 C1081 1.363 . S
C1080 C1086 1.379 . S
C1080 N1088 1.356 . S
C1081 C1080 1.363 . S
C1081 C1087 1.363 . S
C1082 C1083 1.363 . S
C1082 C1087 1.379 . S
C1082 N1089 1.356 . S
C1083 C1082 1.363 . S
C1083 C1086 1.363 . S
N1084 C1086 1.356 . S
N1084 H1096 0.984 . S
N1084 H1097 0.985 . S
N1085 C1087 1.356 . S
N1085 H1090 0.984 . S
N1085 H1091 0.985 . S
C1086 C1080 1.379 . S
C1086 C1083 1.363 . S
C1086 N1084 1.356 . S
C1087 C1081 1.363 . S
C1087 C1082 1.379 . S
C1087 N1085 1.356 . S
N1088 C1080 1.356 . S
N1088 H1094 0.984 . S
N1088 H1095 0.984 . S
N1089 C1082 1.356 . S
N1089 H1092 0.984 . S
N1089 H1093 0.985 . S
H1090 N1085 0.984 . S
H1091 N1085 0.985 . S
H1092 N1089 0.984 . S
H1093 N1089 0.985 . S
H1094 N1088 0.984 . S
H1095 N1088 0.984 . S
H1096 N1084 0.984 . S
H1097 N1084 0.985 . S
C1098 C1099 1.363 . S
C1098 C1104 1.379 . S
C1098 N1106 1.356 . S
C1099 C1098 1.363 . S
C1099 C1105 1.363 . S
C1100 C1101 1.363 . S
C1100 C1105 1.379 . S
C1100 N1107 1.356 . S
C1101 C1100 1.363 . S
C1101 C1104 1.363 . S
N1102 C1104 1.356 . S
N1102 H1114 0.984 . S
N1102 H1115 0.985 . S
N1103 C1105 1.356 . S
N1103 H1108 0.984 . S
N1103 H1109 0.985 . S
C1104 C1098 1.379 . S
C1104 C1101 1.363 . S
C1104 N1102 1.356 . S
C1105 C1099 1.363 . S
C1105 C1100 1.379 . S
C1105 N1103 1.356 . S
N1106 C1098 1.356 . S
N1106 H1112 0.984 . S
N1106 H1113 0.984 . S
N1107 C1100 1.356 . S
N1107 H1110 0.984 . S
N1107 H1111 0.985 . S
H1108 N1103 0.984 . S
H1109 N1103 0.985 . S
H1110 N1107 0.984 . S
H1111 N1107 0.985 . S
H1112 N1106 0.984 . S
H1113 N1106 0.984 . S
H1114 N1102 0.984 . S
H1115 N1102 0.985 . S
C1116 C1117 1.363 . S
C1116 C1122 1.379 . S
C1116 N1124 1.356 . S
C1117 C1116 1.363 . S
C1117 C1123 1.363 . S
C1118 C1119 1.363 . S
C1118 C1123 1.379 . S
C1118 N1125 1.356 . S
C1119 C1118 1.363 . S
C1119 C1122 1.363 . S
N1120 C1122 1.356 . S
N1120 H1132 0.984 . S
N1120 H1133 0.985 . S
N1121 C1123 1.356 . S
N1121 H1126 0.984 . S
N1121 H1127 0.985 . S
C1122 C1116 1.379 . S
C1122 C1119 1.363 . S
C1122 N1120 1.356 . S
C1123 C1117 1.363 . S
C1123 C1118 1.379 . S
C1123 N1121 1.356 . S
N1124 C1116 1.356 . S
N1124 H1130 0.984 . S
N1124 H1131 0.984 . S
N1125 C1118 1.356 . S
N1125 H1128 0.984 . S
N1125 H1129 0.985 . S
H1126 N1121 0.984 . S
H1127 N1121 0.985 . S
H1128 N1125 0.984 . S
H1129 N1125 0.985 . S
H1130 N1124 0.984 . S
H1131 N1124 0.984 . S
H1132 N1120 0.984 . S
H1133 N1120 0.985 . S
C1134 C1135 1.363 . S
C1134 C1140 1.379 . S
C1134 N1142 1.356 . S
C1135 C1134 1.363 . S
C1135 C1141 1.363 . S
C1136 C1137 1.363 . S
C1136 C1141 1.379 . S
C1136 N1143 1.356 . S
C1137 C1136 1.363 . S
C1137 C1140 1.363 . S
N1138 C1140 1.356 . S
N1138 H1150 0.984 . S
N1138 H1151 0.985 . S
N1139 C1141 1.356 . S
N1139 H1144 0.984 . S
N1139 H1145 0.985 . S
C1140 C1134 1.379 . S
C1140 C1137 1.363 . S
C1140 N1138 1.356 . S
C1141 C1135 1.363 . S
C1141 C1136 1.379 . S
C1141 N1139 1.356 . S
N1142 C1134 1.356 . S
N1142 H1148 0.984 . S
N1142 H1149 0.984 . S
N1143 C1136 1.356 . S
N1143 H1146 0.984 . S
N1143 H1147 0.985 . S
H1144 N1139 0.984 . S
H1145 N1139 0.985 . S
H1146 N1143 0.984 . S
H1147 N1143 0.985 . S
H1148 N1142 0.984 . S
H1149 N1142 0.984 . S
H1150 N1138 0.984 . S
H1151 N1138 0.985 . S
C1152 C1153 1.363 . S
C1152 C1158 1.379 . S
C1152 N1160 1.356 . S
C1153 C1152 1.363 . S
C1153 C1159 1.363 . S
C1154 C1155 1.363 . S
C1154 C1159 1.379 . S
C1154 N1161 1.356 . S
C1155 C1154 1.363 . S
C1155 C1158 1.363 . S
N1156 C1158 1.356 . S
N1156 H1168 0.984 . S
N1156 H1169 0.985 . S
N1157 C1159 1.356 . S
N1157 H1162 0.984 . S
N1157 H1163 0.985 1_554 S
C1158 C1152 1.379 . S
C1158 C1155 1.363 . S
C1158 N1156 1.356 . S
C1159 C1153 1.363 . S
C1159 C1154 1.379 . S
C1159 N1157 1.356 . S
N1160 C1152 1.356 . S
N1160 H1166 0.984 . S
N1160 H1167 0.984 . S
N1161 C1154 1.356 . S
N1161 H1164 0.984 . S
N1161 H1165 0.985 . S
H1162 N1157 0.984 . S
H1163 N1157 0.985 1_556 S
H1164 N1161 0.984 . S
H1165 N1161 0.985 . S
H1166 N1160 0.984 . S
H1167 N1160 0.984 . S
H1168 N1156 0.984 . S
H1169 N1156 0.985 . S
C1170 C1171 1.363 . S
C1170 C1176 1.379 . S
C1170 N1178 1.356 . S
C1171 C1170 1.363 . S
C1171 C1177 1.363 . S
C1172 C1173 1.363 . S
C1172 C1177 1.379 . S
C1172 N1179 1.356 . S
C1173 C1172 1.363 . S
C1173 C1176 1.363 . S
N1174 C1176 1.356 . S
N1174 H1186 0.984 . S
N1174 H1187 0.985 . S
N1175 C1177 1.356 . S
N1175 H1180 0.984 . S
N1175 H1181 0.985 . S
C1176 C1170 1.379 . S
C1176 C1173 1.363 . S
C1176 N1174 1.356 . S
C1177 C1171 1.363 . S
C1177 C1172 1.379 . S
C1177 N1175 1.356 . S
N1178 C1170 1.356 . S
N1178 H1184 0.984 . S
N1178 H1185 0.984 . S
N1179 C1172 1.356 . S
N1179 H1182 0.984 . S
N1179 H1183 0.985 . S
H1180 N1175 0.984 . S
H1181 N1175 0.985 . S
H1182 N1179 0.984 . S
H1183 N1179 0.985 . S
H1184 N1178 0.984 . S
H1185 N1178 0.984 . S
H1186 N1174 0.984 . S
H1187 N1174 0.985 . S
C1188 C1189 1.363 . S
C1188 C1194 1.379 . S
C1188 N1196 1.356 . S
C1189 C1188 1.363 . S
C1189 C1195 1.363 . S
C1190 C1191 1.363 . S
C1190 C1195 1.379 . S
C1190 N1197 1.356 . S
C1191 C1190 1.363 . S
C1191 C1194 1.363 . S
N1192 C1194 1.356 . S
N1192 H1204 0.984 . S
N1192 H1205 0.985 . S
N1193 C1195 1.356 . S
N1193 H1198 0.984 . S
N1193 H1199 0.985 . S
C1194 C1188 1.379 . S
C1194 C1191 1.363 . S
C1194 N1192 1.356 . S
C1195 C1189 1.363 . S
C1195 C1190 1.379 . S
C1195 N1193 1.356 . S
N1196 C1188 1.356 . S
N1196 H1202 0.984 . S
N1196 H1203 0.984 . S
N1197 C1190 1.356 . S
N1197 H1200 0.984 . S
N1197 H1201 0.985 . S
H1198 N1193 0.984 . S
H1199 N1193 0.985 . S
H1200 N1197 0.984 . S
H1201 N1197 0.985 . S
H1202 N1196 0.984 . S
H1203 N1196 0.984 . S
H1204 N1192 0.984 . S
H1205 N1192 0.985 . S
C1206 C1207 1.363 . S
C1206 C1212 1.379 . S
C1206 N1214 1.356 . S
C1207 C1206 1.363 . S
C1207 C1213 1.363 . S
C1208 C1209 1.363 . S
C1208 C1213 1.379 . S
C1208 N1215 1.356 . S
C1209 C1208 1.363 . S
C1209 C1212 1.363 . S
N1210 C1212 1.356 . S
N1210 H1222 0.984 . S
N1210 H1223 0.985 . S
N1211 C1213 1.356 . S
N1211 H1216 0.984 . S
N1211 H1217 0.985 . S
C1212 C1206 1.379 . S
C1212 C1209 1.363 . S
C1212 N1210 1.356 . S
C1213 C1207 1.363 . S
C1213 C1208 1.379 . S
C1213 N1211 1.356 . S
N1214 C1206 1.356 . S
N1214 H1220 0.984 . S
N1214 H1221 0.984 . S
N1215 C1208 1.356 . S
N1215 H1218 0.984 . S
N1215 H1219 0.985 . S
H1216 N1211 0.984 . S
H1217 N1211 0.985 . S
H1218 N1215 0.984 . S
H1219 N1215 0.985 . S
H1220 N1214 0.984 . S
H1221 N1214 0.984 . S
H1222 N1210 0.984 . S
H1223 N1210 0.985 . S
C1224 C1225 1.363 . S
C1224 C1230 1.379 . S
C1224 N1232 1.356 . S
C1225 C1224 1.363 . S
C1225 C1231 1.363 . S
C1226 C1227 1.363 . S
C1226 C1231 1.379 . S
C1226 N1233 1.356 . S
C1227 C1226 1.363 . S
C1227 C1230 1.363 . S
N1228 C1230 1.356 . S
N1228 H1240 0.984 . S
N1228 H1241 0.985 . S
N1229 C1231 1.356 . S
N1229 H1234 0.984 . S
N1229 H1235 0.985 . S
C1230 C1224 1.379 . S
C1230 C1227 1.363 . S
C1230 N1228 1.356 . S
C1231 C1225 1.363 . S
C1231 C1226 1.379 . S
C1231 N1229 1.356 . S
N1232 C1224 1.356 . S
N1232 H1238 0.984 . S
N1232 H1239 0.984 . S
N1233 C1226 1.356 . S
N1233 H1236 0.984 . S
N1233 H1237 0.985 . S
H1234 N1229 0.984 . S
H1235 N1229 0.985 . S
H1236 N1233 0.984 . S
H1237 N1233 0.985 . S
H1238 N1232 0.984 . S
H1239 N1232 0.984 . S
H1240 N1228 0.984 . S
H1241 N1228 0.985 . S
C1242 C1243 1.363 . S
C1242 C1248 1.379 . S
C1242 N1250 1.356 . S
C1243 C1242 1.363 . S
C1243 C1249 1.363 . S
C1244 C1245 1.363 . S
C1244 C1249 1.379 . S
C1244 N1251 1.356 . S
C1245 C1244 1.363 . S
C1245 C1248 1.363 . S
N1246 C1248 1.356 . S
N1246 H1258 0.984 . S
N1246 H1259 0.985 . S
N1247 C1249 1.356 . S
N1247 H1252 0.984 . S
N1247 H1253 0.985 . S
C1248 C1242 1.379 . S
C1248 C1245 1.363 . S
C1248 N1246 1.356 . S
C1249 C1243 1.363 . S
C1249 C1244 1.379 . S
C1249 N1247 1.356 . S
N1250 C1242 1.356 . S
N1250 H1256 0.984 . S
N1250 H1257 0.984 . S
N1251 C1244 1.356 . S
N1251 H1254 0.984 . S
N1251 H1255 0.985 . S
H1252 N1247 0.984 . S
H1253 N1247 0.985 . S
H1254 N1251 0.984 . S
H1255 N1251 0.985 . S
H1256 N1250 0.984 . S
H1257 N1250 0.984 . S
H1258 N1246 0.984 . S
H1259 N1246 0.985 . S
C1260 C1261 1.363 . S
C1260 C1266 1.379 . S
C1260 N1268 1.356 . S
C1261 C1260 1.363 . S
C1261 C1267 1.363 . S
C1262 C1263 1.363 . S
C1262 C1267 1.379 . S
C1262 N1269 1.356 . S
C1263 C1262 1.363 . S
C1263 C1266 1.363 . S
N1264 C1266 1.356 . S
N1264 H1276 0.984 . S
N1264 H1277 0.985 . S
N1265 C1267 1.356 . S
N1265 H1270 0.984 . S
N1265 H1271 0.985 . S
C1266 C1260 1.379 . S
C1266 C1263 1.363 . S
C1266 N1264 1.356 . S
C1267 C1261 1.363 . S
C1267 C1262 1.379 . S
C1267 N1265 1.356 . S
N1268 C1260 1.356 . S
N1268 H1274 0.984 . S
N1268 H1275 0.984 . S
N1269 C1262 1.356 . S
N1269 H1272 0.984 . S
N1269 H1273 0.985 1_556 S
H1270 N1265 0.984 . S
H1271 N1265 0.985 . S
H1272 N1269 0.984 . S
H1273 N1269 0.985 1_554 S
H1274 N1268 0.984 . S
H1275 N1268 0.984 . S
H1276 N1264 0.984 . S
H1277 N1264 0.985 . S
C1278 C1279 1.363 . S
C1278 C1284 1.379 . S
C1278 N1286 1.356 . S
C1279 C1278 1.363 . S
C1279 C1285 1.363 . S
C1280 C1281 1.363 . S
C1280 C1285 1.379 . S
C1280 N1287 1.356 . S
C1281 C1280 1.363 . S
C1281 C1284 1.363 . S
N1282 C1284 1.356 . S
N1282 H1294 0.984 1_556 S
N1282 H1295 0.985 . S
N1283 C1285 1.356 . S
N1283 H1288 0.984 . S
N1283 H1289 0.985 . S
C1284 C1278 1.379 . S
C1284 C1281 1.363 . S
C1284 N1282 1.356 . S
C1285 C1279 1.363 . S
C1285 C1280 1.379 . S
C1285 N1283 1.356 . S
N1286 C1278 1.356 . S
N1286 H1292 0.984 . S
N1286 H1293 0.984 . S
N1287 C1280 1.356 . S
N1287 H1290 0.984 . S
N1287 H1291 0.985 . S
H1288 N1283 0.984 . S
H1289 N1283 0.985 . S
H1290 N1287 0.984 . S
H1291 N1287 0.985 . S
H1292 N1286 0.984 . S
H1293 N1286 0.984 . S
H1294 N1282 0.984 1_554 S
H1295 N1282 0.985 . S
C1296 C1297 1.363 . S
C1296 C1302 1.379 . S
C1296 N1304 1.356 . S
C1297 C1296 1.363 . S
C1297 C1303 1.363 . S
C1298 C1299 1.363 . S
C1298 C1303 1.379 . S
C1298 N1305 1.356 . S
C1299 C1298 1.363 . S
C1299 C1302 1.363 . S
N1300 C1302 1.356 . S
N1300 H1312 0.984 . S
N1300 H1313 0.985 . S
N1301 C1303 1.356 . S
N1301 H1306 0.984 . S
N1301 H1307 0.985 . S
C1302 C1296 1.379 . S
C1302 C1299 1.363 . S
C1302 N1300 1.356 . S
C1303 C1297 1.363 . S
C1303 C1298 1.379 . S
C1303 N1301 1.356 . S
N1304 C1296 1.356 . S
N1304 H1310 0.984 . S
N1304 H1311 0.984 . S
N1305 C1298 1.356 . S
N1305 H1308 0.984 . S
N1305 H1309 0.985 . S
H1306 N1301 0.984 . S
H1307 N1301 0.985 . S
H1308 N1305 0.984 . S
H1309 N1305 0.985 . S
H1310 N1304 0.984 . S
H1311 N1304 0.984 . S
H1312 N1300 0.984 . S
H1313 N1300 0.985 . S
C1314 C1315 1.363 . S
C1314 C1320 1.379 . S
C1314 N1322 1.356 . S
C1315 C1314 1.363 . S
C1315 C1321 1.363 . S
C1316 C1317 1.363 . S
C1316 C1321 1.379 . S
C1316 N1323 1.356 . S
C1317 C1316 1.363 . S
C1317 C1320 1.363 . S
N1318 C1320 1.356 . S
N1318 H1330 0.984 . S
N1318 H1331 0.985 . S
N1319 C1321 1.356 . S
N1319 H1324 0.984 . S
N1319 H1325 0.985 . S
C1320 C1314 1.379 . S
C1320 C1317 1.363 . S
C1320 N1318 1.356 . S
C1321 C1315 1.363 . S
C1321 C1316 1.379 . S
C1321 N1319 1.356 . S
N1322 C1314 1.356 . S
N1322 H1328 0.984 . S
N1322 H1329 0.984 . S
N1323 C1316 1.356 . S
N1323 H1326 0.984 . S
N1323 H1327 0.985 . S
H1324 N1319 0.984 . S
H1325 N1319 0.985 . S
H1326 N1323 0.984 . S
H1327 N1323 0.985 . S
H1328 N1322 0.984 . S
H1329 N1322 0.984 . S
H1330 N1318 0.984 . S
H1331 N1318 0.985 . S
C1332 C1333 1.363 . S
C1332 C1338 1.379 . S
C1332 N1340 1.356 . S
C1333 C1332 1.363 . S
C1333 C1339 1.363 . S
C1334 C1335 1.363 . S
C1334 C1339 1.379 . S
C1334 N1341 1.356 . S
C1335 C1334 1.363 . S
C1335 C1338 1.363 . S
N1336 C1338 1.356 . S
N1336 H1348 0.984 . S
N1336 H1349 0.985 . S
N1337 C1339 1.356 . S
N1337 H1342 0.984 . S
N1337 H1343 0.985 . S
C1338 C1332 1.379 . S
C1338 C1335 1.363 . S
C1338 N1336 1.356 . S
C1339 C1333 1.363 . S
C1339 C1334 1.379 . S
C1339 N1337 1.356 . S
N1340 C1332 1.356 . S
N1340 H1346 0.984 1_554 S
N1340 H1347 0.984 . S
N1341 C1334 1.356 . S
N1341 H1344 0.984 . S
N1341 H1345 0.985 . S
H1342 N1337 0.984 . S
H1343 N1337 0.985 . S
H1344 N1341 0.984 . S
H1345 N1341 0.985 . S
H1346 N1340 0.984 1_556 S
H1347 N1340 0.984 . S
H1348 N1336 0.984 . S
H1349 N1336 0.985 . S
C1350 C1351 1.363 . S
C1350 C1356 1.379 . S
C1350 N1358 1.356 . S
C1351 C1350 1.363 . S
C1351 C1357 1.363 . S
C1352 C1353 1.363 . S
C1352 C1357 1.379 . S
C1352 N1359 1.356 . S
C1353 C1352 1.363 . S
C1353 C1356 1.363 . S
N1354 C1356 1.356 . S
N1354 H1366 0.984 . S
N1354 H1367 0.985 . S
N1355 C1357 1.356 . S
N1355 H1360 0.984 . S
N1355 H1361 0.985 . S
C1356 C1350 1.379 . S
C1356 C1353 1.363 . S
C1356 N1354 1.356 . S
C1357 C1351 1.363 . S
C1357 C1352 1.379 . S
C1357 N1355 1.356 . S
N1358 C1350 1.356 . S
N1358 H1364 0.984 1_554 S
N1358 H1365 0.984 . S
N1359 C1352 1.356 . S
N1359 H1362 0.984 . S
N1359 H1363 0.985 . S
H1360 N1355 0.984 . S
H1361 N1355 0.985 . S
H1362 N1359 0.984 . S
H1363 N1359 0.985 . S
H1364 N1358 0.984 1_556 S
H1365 N1358 0.984 . S
H1366 N1354 0.984 . S
H1367 N1354 0.985 . S
C1368 C1369 1.363 . S
C1368 C1374 1.379 1_455 S
C1368 N1376 1.356 . S
C1369 C1368 1.363 . S
C1369 C1375 1.363 . S
C1370 C1371 1.363 . S
C1370 C1375 1.379 1_655 S
C1370 N1377 1.356 . S
C1371 C1370 1.363 . S
C1371 C1374 1.363 . S
N1372 C1374 1.356 . S
N1372 H1384 0.984 . S
N1372 H1385 0.985 . S
N1373 C1375 1.356 . S
N1373 H1378 0.984 . S
N1373 H1379 0.985 . S
C1374 C1368 1.379 1_655 S
C1374 C1371 1.363 . S
C1374 N1372 1.356 . S
C1375 C1369 1.363 . S
C1375 C1370 1.379 1_455 S
C1375 N1373 1.356 . S
N1376 C1368 1.356 . S
N1376 H1382 0.984 . S
N1376 H1383 0.984 . S
N1377 C1370 1.356 . S
N1377 H1380 0.984 . S
N1377 H1381 0.985 . S
H1378 N1373 0.984 . S
H1379 N1373 0.985 . S
H1380 N1377 0.984 . S
H1381 N1377 0.985 . S
H1382 N1376 0.984 . S
H1383 N1376 0.984 . S
H1384 N1372 0.984 . S
H1385 N1372 0.985 . S
C1386 C1387 1.363 . S
C1386 C1392 1.379 . S
C1386 N1394 1.356 . S
C1387 C1386 1.363 . S
C1387 C1393 1.363 . S
C1388 C1389 1.363 . S
C1388 C1393 1.379 . S
C1388 N1395 1.356 . S
C1389 C1388 1.363 . S
C1389 C1392 1.363 . S
N1390 C1392 1.356 . S
N1390 H1402 0.984 . S
N1390 H1403 0.985 . S
N1391 C1393 1.356 . S
N1391 H1396 0.984 . S
N1391 H1397 0.985 . S
C1392 C1386 1.379 . S
C1392 C1389 1.363 . S
C1392 N1390 1.356 . S
C1393 C1387 1.363 . S
C1393 C1388 1.379 . S
C1393 N1391 1.356 . S
N1394 C1386 1.356 . S
N1394 H1400 0.984 . S
N1394 H1401 0.984 . S
N1395 C1388 1.356 . S
N1395 H1398 0.984 . S
N1395 H1399 0.985 . S
H1396 N1391 0.984 . S
H1397 N1391 0.985 . S
H1398 N1395 0.984 . S
H1399 N1395 0.985 . S
H1400 N1394 0.984 . S
H1401 N1394 0.984 . S
H1402 N1390 0.984 . S
H1403 N1390 0.985 . S
C1404 C1405 1.363 . S
C1404 C1410 1.379 1_545 S
C1404 N1412 1.356 . S
C1405 C1404 1.363 . S
C1405 C1411 1.363 . S
C1406 C1407 1.363 . S
C1406 C1411 1.379 1_565 S
C1406 N1413 1.356 . S
C1407 C1406 1.363 . S
C1407 C1410 1.363 . S
N1408 C1410 1.356 . S
N1408 H1420 0.984 . S
N1408 H1421 0.985 . S
N1409 C1411 1.356 . S
N1409 H1414 0.984 . S
N1409 H1415 0.985 . S
C1410 C1404 1.379 1_565 S
C1410 C1407 1.363 . S
C1410 N1408 1.356 . S
C1411 C1405 1.363 . S
C1411 C1406 1.379 1_545 S
C1411 N1409 1.356 . S
N1412 C1404 1.356 . S
N1412 H1418 0.984 . S
N1412 H1419 0.984 . S
N1413 C1406 1.356 . S
N1413 H1416 0.984 . S
N1413 H1417 0.985 . S
H1414 N1409 0.984 . S
H1415 N1409 0.985 . S
H1416 N1413 0.984 . S
H1417 N1413 0.985 . S
H1418 N1412 0.984 . S
H1419 N1412 0.984 . S
H1420 N1408 0.984 . S
H1421 N1408 0.985 . S
C1422 C1423 1.363 . S
C1422 C1428 1.379 1_545 S
C1422 N1430 1.356 . S
C1423 C1422 1.363 . S
C1423 C1429 1.363 . S
C1424 C1425 1.363 . S
C1424 C1429 1.379 1_565 S
C1424 N1431 1.356 . S
C1425 C1424 1.363 . S
C1425 C1428 1.363 . S
N1426 C1428 1.356 . S
N1426 H1438 0.984 . S
N1426 H1439 0.985 . S
N1427 C1429 1.356 . S
N1427 H1432 0.984 . S
N1427 H1433 0.985 . S
C1428 C1422 1.379 1_565 S
C1428 C1425 1.363 . S
C1428 N1426 1.356 . S
C1429 C1423 1.363 . S
C1429 C1424 1.379 1_545 S
C1429 N1427 1.356 . S
N1430 C1422 1.356 . S
N1430 H1436 0.984 . S
N1430 H1437 0.984 . S
N1431 C1424 1.356 . S
N1431 H1434 0.984 . S
N1431 H1435 0.985 . S
H1432 N1427 0.984 . S
H1433 N1427 0.985 . S
H1434 N1431 0.984 . S
H1435 N1431 0.985 . S
H1436 N1430 0.984 . S
H1437 N1430 0.984 . S
H1438 N1426 0.984 . S
H1439 N1426 0.985 . S
C1440 C1441 1.363 . S
C1440 C1446 1.379 1_655 S
C1440 N1448 1.356 . S
C1441 C1440 1.363 . S
C1441 C1447 1.363 . S
C1442 C1443 1.363 . S
C1442 C1447 1.379 1_455 S
C1442 N1449 1.356 . S
C1443 C1442 1.363 . S
C1443 C1446 1.363 . S
N1444 C1446 1.356 . S
N1444 H1456 0.984 . S
N1444 H1457 0.985 . S
N1445 C1447 1.356 . S
N1445 H1450 0.984 . S
N1445 H1451 0.985 . S
C1446 C1440 1.379 1_455 S
C1446 C1443 1.363 . S
C1446 N1444 1.356 . S
C1447 C1441 1.363 . S
C1447 C1442 1.379 1_655 S
C1447 N1445 1.356 . S
N1448 C1440 1.356 . S
N1448 H1454 0.984 . S
N1448 H1455 0.984 . S
N1449 C1442 1.356 . S
N1449 H1452 0.984 . S
N1449 H1453 0.985 . S
H1450 N1445 0.984 . S
H1451 N1445 0.985 . S
H1452 N1449 0.984 . S
H1453 N1449 0.985 . S
H1454 N1448 0.984 . S
H1455 N1448 0.984 . S
H1456 N1444 0.984 . S
H1457 N1444 0.985 . S
C1458 C1459 1.363 . S
C1458 C1464 1.379 . S
C1458 N1466 1.356 . S
C1459 C1458 1.363 . S
C1459 C1465 1.363 . S
C1460 C1461 1.363 . S
C1460 C1465 1.379 . S
C1460 N1467 1.356 . S
C1461 C1460 1.363 . S
C1461 C1464 1.363 . S
N1462 C1464 1.356 . S
N1462 H1474 0.984 . S
N1462 H1475 0.985 . S
N1463 C1465 1.356 . S
N1463 H1468 0.984 . S
N1463 H1469 0.985 . S
C1464 C1458 1.379 . S
C1464 C1461 1.363 . S
C1464 N1462 1.356 . S
C1465 C1459 1.363 . S
C1465 C1460 1.379 . S
C1465 N1463 1.356 . S
N1466 C1458 1.356 . S
N1466 H1472 0.984 . S
N1466 H1473 0.984 . S
N1467 C1460 1.356 . S
N1467 H1470 0.984 . S
N1467 H1471 0.985 . S
H1468 N1463 0.984 . S
H1469 N1463 0.985 . S
H1470 N1467 0.984 . S
H1471 N1467 0.985 . S
H1472 N1466 0.984 . S
H1473 N1466 0.984 . S
H1474 N1462 0.984 . S
H1475 N1462 0.985 . S
C1476 C1477 1.363 . S
C1476 C1482 1.379 . S
C1476 N1484 1.356 . S
C1477 C1476 1.363 . S
C1477 C1483 1.363 . S
C1478 C1479 1.363 . S
C1478 C1483 1.379 . S
C1478 N1485 1.356 . S
C1479 C1478 1.363 . S
C1479 C1482 1.363 . S
N1480 C1482 1.356 . S
N1480 H1492 0.984 . S
N1480 H1493 0.985 . S
N1481 C1483 1.356 . S
N1481 H1486 0.984 . S
N1481 H1487 0.985 . S
C1482 C1476 1.379 . S
C1482 C1479 1.363 . S
C1482 N1480 1.356 . S
C1483 C1477 1.363 . S
C1483 C1478 1.379 . S
C1483 N1481 1.356 . S
N1484 C1476 1.356 . S
N1484 H1490 0.984 . S
N1484 H1491 0.984 . S
N1485 C1478 1.356 . S
N1485 H1488 0.984 . S
N1485 H1489 0.985 . S
H1486 N1481 0.984 . S
H1487 N1481 0.985 . S
H1488 N1485 0.984 . S
H1489 N1485 0.985 . S
H1490 N1484 0.984 . S
H1491 N1484 0.984 . S
H1492 N1480 0.984 . S
H1493 N1480 0.985 . S
C1494 C1495 1.363 . S
C1494 C1500 1.379 . S
C1494 N1502 1.356 . S
C1495 C1494 1.363 . S
C1495 C1501 1.363 . S
C1496 C1497 1.363 . S
C1496 C1501 1.379 . S
C1496 N1503 1.356 . S
C1497 C1496 1.363 . S
C1497 C1500 1.363 . S
N1498 C1500 1.356 . S
N1498 H1510 0.984 . S
N1498 H1511 0.985 . S
N1499 C1501 1.356 . S
N1499 H1504 0.984 . S
N1499 H1505 0.985 . S
C1500 C1494 1.379 . S
C1500 C1497 1.363 . S
C1500 N1498 1.356 . S
C1501 C1495 1.363 . S
C1501 C1496 1.379 . S
C1501 N1499 1.356 . S
N1502 C1494 1.356 . S
N1502 H1508 0.984 . S
N1502 H1509 0.984 . S
N1503 C1496 1.356 . S
N1503 H1506 0.984 . S
N1503 H1507 0.985 . S
H1504 N1499 0.984 . S
H1505 N1499 0.985 . S
H1506 N1503 0.984 . S
H1507 N1503 0.985 . S
H1508 N1502 0.984 . S
H1509 N1502 0.984 . S
H1510 N1498 0.984 . S
H1511 N1498 0.985 . S
C1512 C1513 1.363 . S
C1512 C1518 1.379 . S
C1512 N1520 1.356 . S
C1513 C1512 1.363 . S
C1513 C1519 1.363 . S
C1514 C1515 1.363 . S
C1514 C1519 1.379 . S
C1514 N1521 1.356 . S
C1515 C1514 1.363 . S
C1515 C1518 1.363 . S
N1516 C1518 1.356 . S
N1516 H1528 0.984 . S
N1516 H1529 0.985 . S
N1517 C1519 1.356 . S
N1517 H1522 0.984 . S
N1517 H1523 0.985 . S
C1518 C1512 1.379 . S
C1518 C1515 1.363 . S
C1518 N1516 1.356 . S
C1519 C1513 1.363 . S
C1519 C1514 1.379 . S
C1519 N1517 1.356 . S
N1520 C1512 1.356 . S
N1520 H1526 0.984 . S
N1520 H1527 0.984 . S
N1521 C1514 1.356 . S
N1521 H1524 0.984 . S
N1521 H1525 0.985 . S
H1522 N1517 0.984 . S
H1523 N1517 0.985 . S
H1524 N1521 0.984 . S
H1525 N1521 0.985 . S
H1526 N1520 0.984 . S
H1527 N1520 0.984 . S
H1528 N1516 0.984 . S
H1529 N1516 0.985 . S
C1530 C1531 1.363 . S
C1530 C1536 1.379 . S
C1530 N1538 1.356 . S
C1531 C1530 1.363 . S
C1531 C1537 1.363 . S
C1532 C1533 1.363 . S
C1532 C1537 1.379 . S
C1532 N1539 1.356 . S
C1533 C1532 1.363 . S
C1533 C1536 1.363 . S
N1534 C1536 1.356 . S
N1534 H1546 0.984 . S
N1534 H1547 0.985 . S
N1535 C1537 1.356 . S
N1535 H1540 0.984 . S
N1535 H1541 0.985 . S
C1536 C1530 1.379 . S
C1536 C1533 1.363 . S
C1536 N1534 1.356 . S
C1537 C1531 1.363 . S
C1537 C1532 1.379 . S
C1537 N1535 1.356 . S
N1538 C1530 1.356 . S
N1538 H1544 0.984 . S
N1538 H1545 0.984 . S
N1539 C1532 1.356 . S
N1539 H1542 0.984 . S
N1539 H1543 0.985 . S
H1540 N1535 0.984 . S
H1541 N1535 0.985 . S
H1542 N1539 0.984 . S
H1543 N1539 0.985 . S
H1544 N1538 0.984 . S
H1545 N1538 0.984 . S
H1546 N1534 0.984 . S
H1547 N1534 0.985 . S
C1548 C1549 1.363 . S
C1548 C1554 1.379 . S
C1548 N1556 1.356 . S
C1549 C1548 1.363 . S
C1549 C1555 1.363 . S
C1550 C1551 1.363 . S
C1550 C1555 1.379 . S
C1550 N1557 1.356 . S
C1551 C1550 1.363 . S
C1551 C1554 1.363 . S
N1552 C1554 1.356 . S
N1552 H1564 0.984 . S
N1552 H1565 0.985 . S
N1553 C1555 1.356 . S
N1553 H1558 0.984 . S
N1553 H1559 0.985 . S
C1554 C1548 1.379 . S
C1554 C1551 1.363 . S
C1554 N1552 1.356 . S
C1555 C1549 1.363 . S
C1555 C1550 1.379 . S
C1555 N1553 1.356 . S
N1556 C1548 1.356 . S
N1556 H1562 0.984 . S
N1556 H1563 0.984 . S
N1557 C1550 1.356 . S
N1557 H1560 0.984 . S
N1557 H1561 0.985 . S
H1558 N1553 0.984 . S
H1559 N1553 0.985 . S
H1560 N1557 0.984 . S
H1561 N1557 0.985 . S
H1562 N1556 0.984 . S
H1563 N1556 0.984 . S
H1564 N1552 0.984 . S
H1565 N1552 0.985 . S
C1566 C1567 1.363 . S
C1566 C1572 1.379 . S
C1566 N1574 1.356 . S
C1567 C1566 1.363 . S
C1567 C1573 1.363 . S
C1568 C1569 1.363 . S
C1568 C1573 1.379 . S
C1568 N1575 1.356 . S
C1569 C1568 1.363 . S
C1569 C1572 1.363 . S
N1570 C1572 1.356 . S
N1570 H1582 0.984 . S
N1570 H1583 0.985 . S
N1571 C1573 1.356 . S
N1571 H1576 0.984 . S
N1571 H1577 0.985 . S
C1572 C1566 1.379 . S
C1572 C1569 1.363 . S
C1572 N1570 1.356 . S
C1573 C1567 1.363 . S
C1573 C1568 1.379 . S
C1573 N1571 1.356 . S
N1574 C1566 1.356 . S
N1574 H1580 0.984 . S
N1574 H1581 0.984 . S
N1575 C1568 1.356 . S
N1575 H1578 0.984 . S
N1575 H1579 0.985 . S
H1576 N1571 0.984 . S
H1577 N1571 0.985 . S
H1578 N1575 0.984 . S
H1579 N1575 0.985 . S
H1580 N1574 0.984 . S
H1581 N1574 0.984 . S
H1582 N1570 0.984 . S
H1583 N1570 0.985 . S
C1584 C1585 1.363 . S
C1584 C1590 1.379 . S
C1584 N1592 1.356 . S
C1585 C1584 1.363 . S
C1585 C1591 1.363 . S
C1586 C1587 1.363 . S
C1586 C1591 1.379 . S
C1586 N1593 1.356 . S
C1587 C1586 1.363 . S
C1587 C1590 1.363 . S
N1588 C1590 1.356 . S
N1588 H1600 0.984 . S
N1588 H1601 0.985 . S
N1589 C1591 1.356 . S
N1589 H1594 0.984 . S
N1589 H1595 0.985 . S
C1590 C1584 1.379 . S
C1590 C1587 1.363 . S
C1590 N1588 1.356 . S
C1591 C1585 1.363 . S
C1591 C1586 1.379 . S
C1591 N1589 1.356 . S
N1592 C1584 1.356 . S
N1592 H1598 0.984 . S
N1592 H1599 0.984 . S
N1593 C1586 1.356 . S
N1593 H1596 0.984 . S
N1593 H1597 0.985 . S
H1594 N1589 0.984 . S
H1595 N1589 0.985 . S
H1596 N1593 0.984 . S
H1597 N1593 0.985 . S
H1598 N1592 0.984 . S
H1599 N1592 0.984 . S
H1600 N1588 0.984 . S
H1601 N1588 0.985 . S
C1602 C1603 1.363 . S
C1602 C1608 1.379 . S
C1602 N1610 1.356 . S
C1603 C1602 1.363 . S
C1603 C1609 1.363 . S
C1604 C1605 1.363 . S
C1604 C1609 1.379 . S
C1604 N1611 1.356 . S
C1605 C1604 1.363 . S
C1605 C1608 1.363 . S
N1606 C1608 1.356 . S
N1606 H1618 0.984 . S
N1606 H1619 0.985 . S
N1607 C1609 1.356 . S
N1607 H1612 0.984 . S
N1607 H1613 0.985 . S
C1608 C1602 1.379 . S
C1608 C1605 1.363 . S
C1608 N1606 1.356 . S
C1609 C1603 1.363 . S
C1609 C1604 1.379 . S
C1609 N1607 1.356 . S
N1610 C1602 1.356 . S
N1610 H1616 0.984 . S
N1610 H1617 0.984 . S
N1611 C1604 1.356 . S
N1611 H1614 0.984 . S
N1611 H1615 0.985 . S
H1612 N1607 0.984 . S
H1613 N1607 0.985 . S
H1614 N1611 0.984 . S
H1615 N1611 0.985 . S
H1616 N1610 0.984 . S
H1617 N1610 0.984 . S
H1618 N1606 0.984 . S
H1619 N1606 0.985 . S
C1620 C1621 1.363 . S
C1620 C1626 1.379 . S
C1620 N1628 1.356 . S
C1621 C1620 1.363 . S
C1621 C1627 1.363 . S
C1622 C1623 1.363 . S
C1622 C1627 1.379 . S
C1622 N1629 1.356 . S
C1623 C1622 1.363 . S
C1623 C1626 1.363 . S
N1624 C1626 1.356 . S
N1624 H1636 0.984 . S
N1624 H1637 0.985 . S
N1625 C1627 1.356 . S
N1625 H1630 0.984 . S
N1625 H1631 0.985 . S
C1626 C1620 1.379 . S
C1626 C1623 1.363 . S
C1626 N1624 1.356 . S
C1627 C1621 1.363 . S
C1627 C1622 1.379 . S
C1627 N1625 1.356 . S
N1628 C1620 1.356 . S
N1628 H1634 0.984 . S
N1628 H1635 0.984 . S
N1629 C1622 1.356 . S
N1629 H1632 0.984 . S
N1629 H1633 0.985 . S
H1630 N1625 0.984 . S
H1631 N1625 0.985 . S
H1632 N1629 0.984 . S
H1633 N1629 0.985 . S
H1634 N1628 0.984 . S
H1635 N1628 0.984 . S
H1636 N1624 0.984 . S
H1637 N1624 0.985 . S
C1638 C1639 1.363 . S
C1638 C1644 1.379 . S
C1638 N1646 1.356 . S
C1639 C1638 1.363 . S
C1639 C1645 1.363 . S
C1640 C1641 1.363 . S
C1640 C1645 1.379 . S
C1640 N1647 1.356 . S
C1641 C1640 1.363 . S
C1641 C1644 1.363 . S
N1642 C1644 1.356 . S
N1642 H1654 0.984 1_554 S
N1642 H1655 0.985 . S
N1643 C1645 1.356 . S
N1643 H1648 0.984 . S
N1643 H1649 0.985 . S
C1644 C1638 1.379 . S
C1644 C1641 1.363 . S
C1644 N1642 1.356 . S
C1645 C1639 1.363 . S
C1645 C1640 1.379 . S
C1645 N1643 1.356 . S
N1646 C1638 1.356 . S
N1646 H1652 0.984 1_554 S
N1646 H1653 0.984 . S
N1647 C1640 1.356 . S
N1647 H1650 0.984 . S
N1647 H1651 0.985 . S
H1648 N1643 0.984 . S
H1649 N1643 0.985 . S
H1650 N1647 0.984 . S
H1651 N1647 0.985 . S
H1652 N1646 0.984 1_556 S
H1653 N1646 0.984 . S
H1654 N1642 0.984 1_556 S
H1655 N1642 0.985 . S
C1656 C1657 1.363 . S
C1656 C1662 1.379 . S
C1656 N1664 1.356 . S
C1657 C1656 1.363 . S
C1657 C1663 1.363 . S
C1658 C1659 1.363 . S
C1658 C1663 1.379 . S
C1658 N1665 1.356 . S
C1659 C1658 1.363 . S
C1659 C1662 1.363 . S
N1660 C1662 1.356 . S
N1660 H1672 0.984 . S
N1660 H1673 0.985 . S
N1661 C1663 1.356 . S
N1661 H1666 0.984 . S
N1661 H1667 0.985 1_554 S
C1662 C1656 1.379 . S
C1662 C1659 1.363 . S
C1662 N1660 1.356 . S
C1663 C1657 1.363 . S
C1663 C1658 1.379 . S
C1663 N1661 1.356 . S
N1664 C1656 1.356 . S
N1664 H1670 0.984 . S
N1664 H1671 0.984 . S
N1665 C1658 1.356 . S
N1665 H1668 0.984 . S
N1665 H1669 0.985 1_554 S
H1666 N1661 0.984 . S
H1667 N1661 0.985 1_556 S
H1668 N1665 0.984 . S
H1669 N1665 0.985 1_556 S
H1670 N1664 0.984 . S
H1671 N1664 0.984 . S
H1672 N1660 0.984 . S
H1673 N1660 0.985 . S
C1674 C1675 1.363 . S
C1674 C1680 1.379 . S
C1674 N1682 1.356 . S
C1675 C1674 1.363 . S
C1675 C1681 1.363 . S
C1676 C1677 1.363 . S
C1676 C1681 1.379 . S
C1676 N1683 1.356 . S
C1677 C1676 1.363 . S
C1677 C1680 1.363 . S
N1678 C1680 1.356 . S
N1678 H1690 0.984 1_554 S
N1678 H1691 0.985 . S
N1679 C1681 1.356 . S
N1679 H1684 0.984 . S
N1679 H1685 0.985 . S
C1680 C1674 1.379 . S
C1680 C1677 1.363 . S
C1680 N1678 1.356 . S
C1681 C1675 1.363 . S
C1681 C1676 1.379 . S
C1681 N1679 1.356 . S
N1682 C1674 1.356 . S
N1682 H1688 0.984 1_554 S
N1682 H1689 0.984 . S
N1683 C1676 1.356 . S
N1683 H1686 0.984 . S
N1683 H1687 0.985 . S
H1684 N1679 0.984 . S
H1685 N1679 0.985 . S
H1686 N1683 0.984 . S
H1687 N1683 0.985 . S
H1688 N1682 0.984 1_556 S
H1689 N1682 0.984 . S
H1690 N1678 0.984 1_556 S
H1691 N1678 0.985 . S
C1692 C1693 1.363 . S
C1692 C1698 1.379 . S
C1692 N1700 1.356 . S
C1693 C1692 1.363 . S
C1693 C1699 1.363 . S
C1694 C1695 1.363 . S
C1694 C1699 1.379 . S
C1694 N1701 1.356 . S
C1695 C1694 1.363 . S
C1695 C1698 1.363 . S
N1696 C1698 1.356 . S
N1696 H1708 0.984 1_556 S
N1696 H1709 0.985 . S
N1697 C1699 1.356 . S
N1697 H1702 0.984 . S
N1697 H1703 0.985 . S
C1698 C1692 1.379 . S
C1698 C1695 1.363 . S
C1698 N1696 1.356 . S
C1699 C1693 1.363 . S
C1699 C1694 1.379 . S
C1699 N1697 1.356 . S
N1700 C1692 1.356 . S
N1700 H1706 0.984 1_556 S
N1700 H1707 0.984 . S
N1701 C1694 1.356 . S
N1701 H1704 0.984 . S
N1701 H1705 0.985 . S
H1702 N1697 0.984 . S
H1703 N1697 0.985 . S
H1704 N1701 0.984 . S
H1705 N1701 0.985 . S
H1706 N1700 0.984 1_554 S
H1707 N1700 0.984 . S
H1708 N1696 0.984 1_554 S
H1709 N1696 0.985 . S
C1710 C1711 1.363 . S
C1710 C1716 1.379 . S
C1710 N1718 1.356 . S
C1711 C1710 1.363 . S
C1711 C1717 1.363 . S
C1712 C1713 1.363 . S
C1712 C1717 1.379 . S
C1712 N1719 1.356 . S
C1713 C1712 1.363 . S
C1713 C1716 1.363 . S
N1714 C1716 1.356 . S
N1714 H1726 0.984 . S
N1714 H1727 0.985 . S
N1715 C1717 1.356 . S
N1715 H1720 0.984 . S
N1715 H1721 0.985 1_556 S
C1716 C1710 1.379 . S
C1716 C1713 1.363 . S
C1716 N1714 1.356 . S
C1717 C1711 1.363 . S
C1717 C1712 1.379 . S
C1717 N1715 1.356 . S
N1718 C1710 1.356 . S
N1718 H1724 0.984 . S
N1718 H1725 0.984 . S
N1719 C1712 1.356 . S
N1719 H1722 0.984 . S
N1719 H1723 0.985 1_556 S
H1720 N1715 0.984 . S
H1721 N1715 0.985 1_554 S
H1722 N1719 0.984 . S
H1723 N1719 0.985 1_554 S
H1724 N1718 0.984 . S
H1725 N1718 0.984 . S
H1726 N1714 0.984 . S
H1727 N1714 0.985 . S
C1728 C1729 1.363 . S
C1728 C1734 1.379 . S
C1728 N1736 1.356 . S
C1729 C1728 1.363 . S
C1729 C1735 1.363 . S
C1730 C1731 1.363 . S
C1730 C1735 1.379 . S
C1730 N1737 1.356 . S
C1731 C1730 1.363 . S
C1731 C1734 1.363 . S
N1732 C1734 1.356 . S
N1732 H1744 0.984 1_556 S
N1732 H1745 0.985 . S
N1733 C1735 1.356 . S
N1733 H1738 0.984 . S
N1733 H1739 0.985 . S
C1734 C1728 1.379 . S
C1734 C1731 1.363 . S
C1734 N1732 1.356 . S
C1735 C1729 1.363 . S
C1735 C1730 1.379 . S
C1735 N1733 1.356 . S
N1736 C1728 1.356 . S
N1736 H1742 0.984 1_556 S
N1736 H1743 0.984 . S
N1737 C1730 1.356 . S
N1737 H1740 0.984 . S
N1737 H1741 0.985 . S
H1738 N1733 0.984 . S
H1739 N1733 0.985 . S
H1740 N1737 0.984 . S
H1741 N1737 0.985 . S
H1742 N1736 0.984 1_554 S
H1743 N1736 0.984 . S
H1744 N1732 0.984 1_554 S
H1745 N1732 0.985 . S
C1746 C1747 1.363 . S
C1746 C1752 1.379 . S
C1746 N1754 1.356 . S
C1747 C1746 1.363 . S
C1747 C1753 1.363 . S
C1748 C1749 1.363 . S
C1748 C1753 1.379 . S
C1748 N1755 1.356 . S
C1749 C1748 1.363 . S
C1749 C1752 1.363 . S
N1750 C1752 1.356 . S
N1750 H1762 0.984 . S
N1750 H1763 0.985 . S
N1751 C1753 1.356 . S
N1751 H1756 0.984 . S
N1751 H1757 0.985 . S
C1752 C1746 1.379 . S
C1752 C1749 1.363 . S
C1752 N1750 1.356 . S
C1753 C1747 1.363 . S
C1753 C1748 1.379 . S
C1753 N1751 1.356 . S
N1754 C1746 1.356 . S
N1754 H1760 0.984 . S
N1754 H1761 0.984 . S
N1755 C1748 1.356 . S
N1755 H1758 0.984 . S
N1755 H1759 0.985 . S
H1756 N1751 0.984 . S
H1757 N1751 0.985 . S
H1758 N1755 0.984 . S
H1759 N1755 0.985 . S
H1760 N1754 0.984 . S
H1761 N1754 0.984 . S
H1762 N1750 0.984 . S
H1763 N1750 0.985 . S
C1764 C1765 1.363 . S
C1764 C1770 1.379 . S
C1764 N1772 1.356 . S
C1765 C1764 1.363 . S
C1765 C1771 1.363 . S
C1766 C1767 1.363 . S
C1766 C1771 1.379 . S
C1766 N1773 1.356 . S
C1767 C1766 1.363 . S
C1767 C1770 1.363 . S
N1768 C1770 1.356 . S
N1768 H1780 0.984 . S
N1768 H1781 0.985 . S
N1769 C1771 1.356 . S
N1769 H1774 0.984 . S
N1769 H1775 0.985 . S
C1770 C1764 1.379 . S
C1770 C1767 1.363 . S
C1770 N1768 1.356 . S
C1771 C1765 1.363 . S
C1771 C1766 1.379 . S
C1771 N1769 1.356 . S
N1772 C1764 1.356 . S
N1772 H1778 0.984 . S
N1772 H1779 0.984 . S
N1773 C1766 1.356 . S
N1773 H1776 0.984 . S
N1773 H1777 0.985 . S
H1774 N1769 0.984 . S
H1775 N1769 0.985 . S
H1776 N1773 0.984 . S
H1777 N1773 0.985 . S
H1778 N1772 0.984 . S
H1779 N1772 0.984 . S
H1780 N1768 0.984 . S
H1781 N1768 0.985 . S
C1782 C1783 1.363 . S
C1782 C1788 1.379 . S
C1782 N1790 1.356 . S
C1783 C1782 1.363 . S
C1783 C1789 1.363 . S
C1784 C1785 1.363 . S
C1784 C1789 1.379 . S
C1784 N1791 1.356 . S
C1785 C1784 1.363 . S
C1785 C1788 1.363 . S
N1786 C1788 1.356 . S
N1786 H1798 0.984 . S
N1786 H1799 0.985 . S
N1787 C1789 1.356 . S
N1787 H1792 0.984 . S
N1787 H1793 0.985 . S
C1788 C1782 1.379 . S
C1788 C1785 1.363 . S
C1788 N1786 1.356 . S
C1789 C1783 1.363 . S
C1789 C1784 1.379 . S
C1789 N1787 1.356 . S
N1790 C1782 1.356 . S
N1790 H1796 0.984 . S
N1790 H1797 0.984 . S
N1791 C1784 1.356 . S
N1791 H1794 0.984 . S
N1791 H1795 0.985 . S
H1792 N1787 0.984 . S
H1793 N1787 0.985 . S
H1794 N1791 0.984 . S
H1795 N1791 0.985 . S
H1796 N1790 0.984 . S
H1797 N1790 0.984 . S
H1798 N1786 0.984 . S
H1799 N1786 0.985 . S
C505 C81 1.574 . S
C507 C11 1.574 . S
C523 C53 1.574 . S
C525 C25 1.574 . S
C541 C39 1.574 . S
C543 C67 1.574 . S
C559 C95 1.574 . S
C561 C165 1.574 . S
C577 C109 1.574 . S
C579 C137 1.574 . S
C595 C151 1.574 . S
C597 C123 1.574 . S
C613 C179 1.574 . S
C615 C249 1.574 . S
C631 C193 1.574 . S
C633 C221 1.574 . S
C649 C207 1.574 . S
C651 C235 1.574 . S
C667 C333 1.574 . S
C669 C263 1.574 . S
C685 C277 1.574 . S
C687 C305 1.574 . S
C703 C319 1.574 . S
C705 C291 1.574 . S
C721 C417 1.574 . S
C723 C347 1.574 . S
C739 C389 1.574 . S
C741 C361 1.574 . S
C757 C403 1.574 . S
C759 C375 1.574 . S
C775 C431 1.574 . S
C777 C501 1.574 . S
C793 C445 1.574 . S
C795 C473 1.574 . S
C811 C459 1.574 . S
C813 C487 1.574 . S
C829 C83 1.181 . S
C831 C13 1.181 . S
C847 C27 1.181 . S
C849 C55 1.181 . S
C865 C69 1.182 . S
C867 C41 1.182 . S
C883 C97 1.181 . S
C885 C167 1.181 . S
C901 C111 1.181 . S
C903 C139 1.181 . S
C919 C153 1.182 . S
C921 C125 1.182 . S
C937 C181 1.181 . S
C939 C251 1.181 . S
C955 C223 1.181 . S
C957 C195 1.181 . S
C973 C237 1.182 . S
C975 C209 1.182 . S
C991 C265 1.181 . S
C993 C335 1.181 . S
C1009 C279 1.181 . S
C1011 C307 1.181 . S
C1027 C321 1.182 . S
C1029 C293 1.182 . S
C1045 C419 1.181 . S
C1047 C349 1.181 . S
C1063 C363 1.181 . S
C1065 C391 1.181 . S
C1081 C377 1.182 . S
C1083 C405 1.182 . S
C1099 C503 1.181 . S
C1101 C433 1.181 . S
C1117 C475 1.181 . S
C1119 C447 1.181 . S
C1135 C489 1.182 . S
C1137 C461 1.182 . S
C1153 C232 1.506 . S
C1155 C8 1.506 . S
C1171 C246 1.506 . S
C1173 C22 1.506 . S
C1189 C218 1.506 . S
C1191 C36 1.506 . S
C1207 C50 1.506 . S
C1209 C372 1.506 . S
C1225 C64 1.506 . S
C1227 C344 1.506 . S
C1243 C78 1.506 . S
C1245 C358 1.506 . S
C1261 C92 1.506 . S
C1263 C484 1.506 . S
C1279 C106 1.506 . S
C1281 C498 1.506 . S
C1297 C120 1.506 . S
C1299 C470 1.506 . S
C1315 C134 1.506 . S
C1317 C288 1.506 . S
C1333 C260 1.506 . S
C1335 C148 1.506 . S
C1351 C274 1.506 . S
C1353 C162 1.506 . S
C1369 C400 1.506 . S
C1371 C176 1.506 . S
C1387 C190 1.506 . S
C1389 C414 1.506 . S
C1405 C204 1.506 . S
C1407 C386 1.506 . S
C1423 C302 1.506 . S
C1425 C456 1.506 . S
C1441 C316 1.506 . S
C1443 C428 1.506 . S
C1459 C442 1.506 . S
C1461 C330 1.506 . S
C1477 C7 1.400 . S
C1479 C147 1.400 . S
C1495 C161 1.400 . S
C1497 C21 1.400 . S
C1513 C133 1.400 . S
C1515 C35 1.400 . S
C1531 C49 1.400 . S
C1533 C119 1.400 . S
C1549 C63 1.400 . S
C1551 C91 1.400 . S
C1567 C77 1.400 . S
C1569 C105 1.400 . S
C1585 C175 1.400 . S
C1587 C315 1.400 . S
C1603 C329 1.400 . S
C1605 C189 1.400 . S
C1621 C301 1.400 . S
C1623 C203 1.400 . S
C1639 C217 1.400 . S
C1641 C287 1.400 . S
C1657 C231 1.400 . S
C1659 C259 1.400 . S
C1675 C273 1.400 . S
C1677 C245 1.400 . S
C1693 C343 1.400 . S
C1695 C483 1.400 . S
C1711 C497 1.400 . S
C1713 C357 1.400 . S
C1729 C371 1.400 . S
C1731 C469 1.400 . S
C1747 C385 1.400 . S
C1749 C455 1.400 . S
C1765 C427 1.400 . S
C1767 C399 1.400 . S
C1783 C413 1.400 . S
C1785 C441 1.400 . S
