# Generated by pormake.
# Topology unw, (4)-cn, num edge types: 1
# Building blocks:
#     Node 0, Type 0, BuildingBlock: KOZSID_clean_sbu_0, # of connection points: 4
#     Node 1, Type 0, BuildingBlock: KOZSID_clean_sbu_0, # of connection points: 4
#     Node 2, Type 0, BuildingBlock: KOZSID_clean_sbu_0, # of connection points: 4
#     Node 3, Type 0, BuildingBlock: KOZSID_clean_sbu_0, # of connection points: 4
#     Node 4, Type 0, BuildingBlock: KOZSID_clean_sbu_0, # of connection points: 4
#     Node 5, Type 0, BuildingBlock: KOZSID_clean_sbu_0, # of connection points: 4
#     Node 6, Type 0, BuildingBlock: KOZSID_clean_sbu_0, # of connection points: 4
#     Node 7, Type 0, BuildingBlock: KOZSID_clean_sbu_0, # of connection points: 4
#     Node 8, Type 0, BuildingBlock: KOZSID_clean_sbu_0, # of connection points: 4
#     Node 9, Type 0, BuildingBlock: KOZSID_clean_sbu_0, # of connection points: 4
#     Node 10, Type 0, BuildingBlock: KOZSID_clean_sbu_0, # of connection points: 4
#     Node 11, Type 0, BuildingBlock: KOZSID_clean_sbu_0, # of connection points: 4
#     Node 12, Type 0, BuildingBlock: KOZSID_clean_sbu_0, # of connection points: 4
#     Node 13, Type 0, BuildingBlock: KOZSID_clean_sbu_0, # of connection points: 4
#     Node 14, Type 0, BuildingBlock: KOZSID_clean_sbu_0, # of connection points: 4
#     Node 15, Type 0, BuildingBlock: KOZSID_clean_sbu_0, # of connection points: 4
#     Node 16, Type 0, BuildingBlock: KOZSID_clean_sbu_0, # of connection points: 4
#     Node 17, Type 0, BuildingBlock: KOZSID_clean_sbu_0, # of connection points: 4
#     Node 18, Type 0, BuildingBlock: KOZSID_clean_sbu_0, # of connection points: 4
#     Node 19, Type 0, BuildingBlock: KOZSID_clean_sbu_0, # of connection points: 4
#     Node 20, Type 0, BuildingBlock: KOZSID_clean_sbu_0, # of connection points: 4
#     Node 21, Type 0, BuildingBlock: KOZSID_clean_sbu_0, # of connection points: 4
#     Node 22, Type 0, BuildingBlock: KOZSID_clean_sbu_0, # of connection points: 4
#     Node 23, Type 0, BuildingBlock: KOZSID_clean_sbu_0, # of connection points: 4
#     Edge 24, Type (0, 0), BuildingBlock: TEMPAE_clean_linker_10, # of connection points: 2
#     Edge 25, Type (0, 0), BuildingBlock: TEMPAE_clean_linker_10, # of connection points: 2
#     Edge 26, Type (0, 0), BuildingBlock: TEMPAE_clean_linker_10, # of connection points: 2
#     Edge 27, Type (0, 0), BuildingBlock: TEMPAE_clean_linker_10, # of connection points: 2
#     Edge 28, Type (0, 0), BuildingBlock: TEMPAE_clean_linker_10, # of connection points: 2
#     Edge 29, Type (0, 0), BuildingBlock: TEMPAE_clean_linker_10, # of connection points: 2
#     Edge 30, Type (0, 0), BuildingBlock: TEMPAE_clean_linker_10, # of connection points: 2
#     Edge 31, Type (0, 0), BuildingBlock: TEMPAE_clean_linker_10, # of connection points: 2
#     Edge 32, Type (0, 0), BuildingBlock: TEMPAE_clean_linker_10, # of connection points: 2
#     Edge 33, Type (0, 0), BuildingBlock: TEMPAE_clean_linker_10, # of connection points: 2
#     Edge 34, Type (0, 0), BuildingBlock: TEMPAE_clean_linker_10, # of connection points: 2
#     Edge 35, Type (0, 0), BuildingBlock: TEMPAE_clean_linker_10, # of connection points: 2
#     Edge 36, Type (0, 0), BuildingBlock: TEMPAE_clean_linker_10, # of connection points: 2
#     Edge 37, Type (0, 0), BuildingBlock: TEMPAE_clean_linker_10, # of connection points: 2
#     Edge 38, Type (0, 0), BuildingBlock: TEMPAE_clean_linker_10, # of connection points: 2
#     Edge 39, Type (0, 0), BuildingBlock: TEMPAE_clean_linker_10, # of connection points: 2
#     Edge 40, Type (0, 0), BuildingBlock: TEMPAE_clean_linker_10, # of connection points: 2
#     Edge 41, Type (0, 0), BuildingBlock: TEMPAE_clean_linker_10, # of connection points: 2
#     Edge 42, Type (0, 0), BuildingBlock: TEMPAE_clean_linker_10, # of connection points: 2
#     Edge 43, Type (0, 0), BuildingBlock: TEMPAE_clean_linker_10, # of connection points: 2
#     Edge 44, Type (0, 0), BuildingBlock: TEMPAE_clean_linker_10, # of connection points: 2
#     Edge 45, Type (0, 0), BuildingBlock: TEMPAE_clean_linker_10, # of connection points: 2
#     Edge 46, Type (0, 0), BuildingBlock: TEMPAE_clean_linker_10, # of connection points: 2
#     Edge 47, Type (0, 0), BuildingBlock: TEMPAE_clean_linker_10, # of connection points: 2
#     Edge 48, Type (0, 0), BuildingBlock: TEMPAE_clean_linker_10, # of connection points: 2
#     Edge 49, Type (0, 0), BuildingBlock: TEMPAE_clean_linker_10, # of connection points: 2
#     Edge 50, Type (0, 0), BuildingBlock: TEMPAE_clean_linker_10, # of connection points: 2
#     Edge 51, Type (0, 0), BuildingBlock: TEMPAE_clean_linker_10, # of connection points: 2
#     Edge 52, Type (0, 0), BuildingBlock: TEMPAE_clean_linker_10, # of connection points: 2
#     Edge 53, Type (0, 0), BuildingBlock: TEMPAE_clean_linker_10, # of connection points: 2
#     Edge 54, Type (0, 0), BuildingBlock: TEMPAE_clean_linker_10, # of connection points: 2
#     Edge 55, Type (0, 0), BuildingBlock: TEMPAE_clean_linker_10, # of connection points: 2
#     Edge 56, Type (0, 0), BuildingBlock: TEMPAE_clean_linker_10, # of connection points: 2
#     Edge 57, Type (0, 0), BuildingBlock: TEMPAE_clean_linker_10, # of connection points: 2
#     Edge 58, Type (0, 0), BuildingBlock: TEMPAE_clean_linker_10, # of connection points: 2
#     Edge 59, Type (0, 0), BuildingBlock: TEMPAE_clean_linker_10, # of connection points: 2
#     Edge 60, Type (0, 0), BuildingBlock: TEMPAE_clean_linker_10, # of connection points: 2
#     Edge 61, Type (0, 0), BuildingBlock: TEMPAE_clean_linker_10, # of connection points: 2
#     Edge 62, Type (0, 0), BuildingBlock: TEMPAE_clean_linker_10, # of connection points: 2
#     Edge 63, Type (0, 0), BuildingBlock: TEMPAE_clean_linker_10, # of connection points: 2
#     Edge 64, Type (0, 0), BuildingBlock: TEMPAE_clean_linker_10, # of connection points: 2
#     Edge 65, Type (0, 0), BuildingBlock: TEMPAE_clean_linker_10, # of connection points: 2
#     Edge 66, Type (0, 0), BuildingBlock: TEMPAE_clean_linker_10, # of connection points: 2
#     Edge 67, Type (0, 0), BuildingBlock: TEMPAE_clean_linker_10, # of connection points: 2
#     Edge 68, Type (0, 0), BuildingBlock: TEMPAE_clean_linker_10, # of connection points: 2
#     Edge 69, Type (0, 0), BuildingBlock: TEMPAE_clean_linker_10, # of connection points: 2
#     Edge 70, Type (0, 0), BuildingBlock: TEMPAE_clean_linker_10, # of connection points: 2
#     Edge 71, Type (0, 0), BuildingBlock: TEMPAE_clean_linker_10, # of connection points: 2
# Relax obj value: 0.341
# Max RMSD: 0.292
# Mean RMSD: 0.270
data_MOF--net-unw--node1-KOZSID_clean_sbu_0--edge1-TEMPAE_clean_linker_10
_symmetry_space_group_name_H-M    P1
_symmetry_Int_Tables_number       1
_symmetry_cell_setting            triclinic
loop_
_symmetry_equiv_pos_as_xyz
'x, y, z'
_cell_length_a     62.434037
_cell_length_b     52.70197
_cell_length_c     55.774028
_cell_angle_alpha  90.000304
_cell_angle_beta   90.548191
_cell_angle_gamma 89.978149
loop_
_atom_site_label
_atom_site_type_symbol
_atom_site_fract_x
_atom_site_fract_y
_atom_site_fract_z
_atom_type_partial_charge
C0 C 0.12762 0.43803 0.20494 0.0
C1 C 0.11549 0.44089 0.18423 0.0
C2 C 0.10508 0.41829 0.18065 0.0
C3 C 0.1115 0.40291 0.1993 0.0
N4 N 0.12478 0.4148 0.21493 0.0
Co5 Co 0.1409 0.39925 0.2424 0.0
N6 N 0.13365 0.36402 0.23157 0.0
C7 C 0.12085 0.35758 0.21281 0.0
C8 C 0.1206 0.332 0.20829 0.0
C9 C 0.1343 0.32161 0.22489 0.0
C10 C 0.142 0.34148 0.23885 0.0
N11 N 0.15692 0.38417 0.27001 0.0
C12 C 0.16185 0.35967 0.27466 0.0
C13 C 0.17242 0.3572 0.29659 0.0
C14 C 0.17477 0.38112 0.30566 0.0
C15 C 0.16535 0.39676 0.289 0.0
N16 N 0.14911 0.43438 0.25235 0.0
C17 C 0.1595 0.44148 0.27261 0.0
C18 C 0.1654 0.46658 0.2727 0.0
C19 C 0.15911 0.47573 0.25078 0.0
C20 C 0.14967 0.4556 0.2387 0.0
N21 N 0.11444 0.39993 0.26281 0.0
C22 C 0.08129 0.38864 0.29551 0.0
C23 C 0.0981 0.40478 0.30204 0.0
C24 C 0.11432 0.41027 0.28546 0.0
C25 C 0.08017 0.38054 0.27178 0.0
C26 C 0.09643 0.38682 0.25583 0.0
N27 N 0.1668 0.3977 0.22251 0.0
C28 C 0.20525 0.39847 0.21839 0.0
C29 C 0.2035 0.38921 0.19486 0.0
C30 C 0.18301 0.38558 0.18522 0.0
C31 C 0.16511 0.39003 0.19914 0.0
C32 C 0.18672 0.40265 0.23186 0.0
H33 H 0.15 0.38627 0.19085 0.0
H34 H 0.18867 0.40929 0.24995 0.0
H35 H 0.12671 0.42248 0.29168 0.0
H36 H 0.09411 0.38018 0.23813 0.0
C37 C 0.11062 0.37626 0.19876 0.0
C38 C 0.14329 0.45659 0.21353 0.0
C39 C 0.15763 0.33841 0.25843 0.0
C40 C 0.16651 0.42328 0.28918 0.0
H41 H 0.11525 0.45702 0.17223 0.0
H42 H 0.09578 0.41291 0.16498 0.0
H43 H 0.11212 0.32218 0.19405 0.0
H44 H 0.13847 0.30173 0.22615 0.0
H45 H 0.17827 0.33997 0.30493 0.0
H46 H 0.18308 0.38652 0.32199 0.0
H47 H 0.17462 0.47652 0.28628 0.0
H48 H 0.16212 0.49459 0.24391 0.0
H49 H 0.09922 0.4123 0.32008 0.0
H50 H 0.06687 0.36901 0.26555 0.0
H51 H 0.22077 0.402 0.22653 0.0
H52 H 0.18065 0.37809 0.16731 0.0
C53 C 0.61865 0.10413 0.31359 0.0
C54 C 0.60475 0.10341 0.33274 0.0
C55 C 0.59383 0.12619 0.33243 0.0
C56 C 0.60168 0.13945 0.31311 0.0
N57 N 0.61663 0.12615 0.30138 0.0
Co58 Co 0.63442 0.13819 0.27474 0.0
N59 N 0.62932 0.17403 0.28308 0.0
C60 C 0.61322 0.18283 0.29665 0.0
C61 C 0.61463 0.20858 0.30026 0.0
C62 C 0.63258 0.21623 0.28809 0.0
C63 C 0.64109 0.19469 0.27744 0.0
N64 N 0.65243 0.14967 0.2481 0.0
C65 C 0.66189 0.17239 0.24485 0.0
C66 C 0.67232 0.17301 0.22293 0.0
C67 C 0.66924 0.14969 0.21241 0.0
C68 C 0.65702 0.1362 0.2283 0.0
N69 N 0.63932 0.10239 0.26644 0.0
C70 C 0.6452 0.09329 0.24499 0.0
C71 C 0.64832 0.06744 0.24551 0.0
C72 C 0.64421 0.06015 0.26874 0.0
C73 C 0.63874 0.08204 0.28105 0.0
N74 N 0.60932 0.13926 0.25326 0.0
C75 C 0.57418 0.14237 0.2217 0.0
C76 C 0.57613 0.12203 0.23782 0.0
C77 C 0.59402 0.12066 0.25331 0.0
C78 C 0.58997 0.1611 0.22191 0.0
C79 C 0.60714 0.15938 0.23791 0.0
N80 N 0.65944 0.13791 0.29599 0.0
C81 C 0.6973 0.13216 0.30202 0.0
C82 C 0.69627 0.14489 0.32408 0.0
C83 C 0.67622 0.15262 0.33236 0.0
C84 C 0.65807 0.14895 0.31811 0.0
C85 C 0.67866 0.12876 0.28829 0.0
H86 H 0.64304 0.15605 0.32461 0.0
H87 H 0.67988 0.11964 0.27103 0.0
H88 H 0.59551 0.10467 0.26534 0.0
H89 H 0.61868 0.17455 0.23779 0.0
C90 C 0.60024 0.16588 0.30964 0.0
C91 C 0.63315 0.08362 0.30648 0.0
C92 C 0.65958 0.19418 0.26115 0.0
C93 C 0.65269 0.11 0.2273 0.0
H94 H 0.60304 0.08828 0.34571 0.0
H95 H 0.58275 0.13296 0.34581 0.0
H96 H 0.60457 0.2202 0.31152 0.0
H97 H 0.63873 0.23539 0.28743 0.0
H98 H 0.68099 0.18872 0.21516 0.0
H99 H 0.67571 0.14316 0.19557 0.0
H100 H 0.65435 0.05557 0.23125 0.0
H101 H 0.64555 0.0411 0.27577 0.0
H102 H 0.56411 0.10723 0.23823 0.0
H103 H 0.58884 0.17733 0.21003 0.0
H104 H 0.71247 0.12556 0.29511 0.0
H105 H 0.67465 0.1627 0.34918 0.0
C106 C 0.89337 0.55837 0.21843 0.0
C107 C 0.90747 0.55976 0.1995 0.0
C108 C 0.91867 0.58215 0.20245 0.0
C109 C 0.91076 0.59309 0.22301 0.0
N110 N 0.89551 0.57873 0.23303 0.0
Co111 Co 0.87747 0.5878 0.26059 0.0
N112 N 0.88324 0.62429 0.2564 0.0
C113 C 0.89977 0.63427 0.24424 0.0
C114 C 0.89946 0.66034 0.24434 0.0
C115 C 0.88183 0.66694 0.25756 0.0
C116 C 0.87236 0.64446 0.26498 0.0
N117 N 0.85893 0.59619 0.28792 0.0
C118 C 0.84981 0.61857 0.29371 0.0
C119 C 0.83839 0.61633 0.3149 0.0
C120 C 0.84065 0.59167 0.32247 0.0
C121 C 0.85332 0.58023 0.30565 0.0
N122 N 0.87212 0.55126 0.2648 0.0
C123 C 0.86561 0.53961 0.28487 0.0
C124 C 0.86231 0.51404 0.28142 0.0
C125 C 0.86692 0.50961 0.25769 0.0
C126 C 0.87281 0.5328 0.24809 0.0
N127 N 0.9024 0.58617 0.2825 0.0
C128 C 0.93984 0.5905 0.31063 0.0
C129 C 0.92226 0.60618 0.31464 0.0
C130 C 0.90399 0.60398 0.30033 0.0
C131 C 0.93815 0.57187 0.29267 0.0
C132 C 0.91907 0.56969 0.27907 0.0
N133 N 0.85281 0.59073 0.23886 0.0
C134 C 0.81484 0.58785 0.23139 0.0
C135 C 0.81671 0.60361 0.21117 0.0
C136 C 0.83724 0.61129 0.20439 0.0
C137 C 0.85494 0.60461 0.21832 0.0
C138 C 0.83312 0.58155 0.24495 0.0
H139 H 0.87029 0.61186 0.21303 0.0
H140 H 0.83126 0.57017 0.26088 0.0
H141 H 0.89155 0.6177 0.30318 0.0
H142 H 0.91806 0.55534 0.26528 0.0
C143 C 0.9126 0.61882 0.22952 0.0
C144 C 0.87864 0.53731 0.22313 0.0
C145 C 0.854 0.64268 0.28135 0.0
C146 C 0.85752 0.55409 0.30387 0.0
H147 H 0.90917 0.54628 0.185 0.0
H148 H 0.93001 0.5903 0.19008 0.0
H149 H 0.91019 0.67305 0.23508 0.0
H150 H 0.87661 0.68611 0.26129 0.0
H151 H 0.82976 0.63107 0.32426 0.0
H152 H 0.83348 0.58303 0.33806 0.0
H153 H 0.85577 0.50059 0.29405 0.0
H154 H 0.86555 0.49165 0.24841 0.0
H155 H 0.923 0.62107 0.32803 0.0
H156 H 0.95148 0.55935 0.28903 0.0
H157 H 0.79935 0.58103 0.23708 0.0
H158 H 0.83963 0.62368 0.18916 0.0
C159 C 0.37544 0.9273 0.30003 0.0
C160 C 0.38855 0.92874 0.32012 0.0
C161 C 0.39989 0.90623 0.32101 0.0
C162 C 0.39307 0.89232 0.30143 0.0
N163 N 0.37839 0.90501 0.2884 0.0
Co164 Co 0.36165 0.89169 0.26097 0.0
N165 N 0.36688 0.85619 0.27045 0.0
C166 C 0.38271 0.84818 0.28519 0.0
C167 C 0.38193 0.82242 0.28892 0.0
C168 C 0.36472 0.81392 0.27555 0.0
C169 C 0.35597 0.83499 0.26413 0.0
N170 N 0.34437 0.87923 0.23365 0.0
C171 C 0.33528 0.85624 0.23028 0.0
C172 C 0.32527 0.85511 0.2079 0.0
C173 C 0.32825 0.8783 0.19719 0.0
C174 C 0.33999 0.89225 0.21341 0.0
N175 N 0.35667 0.92719 0.25153 0.0
C176 C 0.35125 0.9357 0.2296 0.0
C177 C 0.34747 0.96145 0.22949 0.0
C178 C 0.35055 0.9693 0.25283 0.0
C179 C 0.35605 0.94783 0.2658 0.0
N180 N 0.38773 0.88983 0.24113 0.0
C181 C 0.42735 0.87877 0.21916 0.0
C182 C 0.409 0.86429 0.21442 0.0
C183 C 0.38981 0.86968 0.22582 0.0
C184 C 0.42486 0.90039 0.2338 0.0
C185 C 0.40485 0.90577 0.24433 0.0
N186 N 0.33605 0.89207 0.28091 0.0
C187 C 0.29784 0.89554 0.28544 0.0
C188 C 0.29921 0.88399 0.30814 0.0
C189 C 0.31952 0.87793 0.31724 0.0
C190 C 0.33755 0.88209 0.30347 0.0
C191 C 0.31653 0.89958 0.27215 0.0
H192 H 0.35267 0.87594 0.31078 0.0
H193 H 0.31515 0.90787 0.2545 0.0
H194 H 0.37699 0.85639 0.22302 0.0
H195 H 0.40352 0.92209 0.25595 0.0
C196 C 0.39495 0.86581 0.29863 0.0
C197 C 0.36056 0.94712 0.29158 0.0
C198 C 0.3381 0.83444 0.24656 0.0
C199 C 0.34422 0.91843 0.21202 0.0
H200 H 0.38942 0.94411 0.33295 0.0
H201 H 0.41048 0.9 0.33532 0.0
H202 H 0.39195 0.81129 0.30087 0.0
H203 H 0.35923 0.79448 0.27452 0.0
H204 H 0.31708 0.83909 0.19986 0.0
H205 H 0.32211 0.8844 0.17992 0.0
H206 H 0.34151 0.97282 0.2147 0.0
H207 H 0.34844 0.98835 0.25967 0.0
H208 H 0.40946 0.84808 0.20251 0.0
H209 H 0.43839 0.9125 0.23797 0.0
H210 H 0.28247 0.90083 0.27779 0.0
H211 H 0.32152 0.86855 0.33439 0.0
C212 C 0.10922 0.56373 0.78251 0.0
C213 C 0.09583 0.56828 0.80166 0.0
C214 C 0.08511 0.59055 0.79646 0.0
C215 C 0.09256 0.59827 0.77444 0.0
N216 N 0.10708 0.58205 0.76565 0.0
Co217 Co 0.12441 0.58667 0.73652 0.0
N218 N 0.11961 0.62367 0.73648 0.0
C219 C 0.10338 0.63562 0.74758 0.0
C220 C 0.10316 0.66123 0.74309 0.0
C221 C 0.12012 0.66548 0.72809 0.0
C222 C 0.12993 0.64214 0.72432 0.0
N223 N 0.1425 0.5907 0.70786 0.0
C224 C 0.1523 0.61172 0.69941 0.0
C225 C 0.16514 0.60563 0.67998 0.0
C226 C 0.16232 0.58025 0.67556 0.0
C227 C 0.14834 0.57206 0.69272 0.0
N228 N 0.12859 0.54956 0.73648 0.0
C229 C 0.13448 0.53512 0.71782 0.0
C230 C 0.13698 0.51003 0.72407 0.0
C231 C 0.1326 0.50886 0.74816 0.0
C232 C 0.12762 0.53337 0.75517 0.0
N233 N 0.09872 0.58332 0.71585 0.0
C234 C 0.05959 0.58864 0.69088 0.0
C235 C 0.07804 0.60094 0.68307 0.0
C236 C 0.09719 0.59829 0.69581 0.0
C237 C 0.06136 0.57232 0.71073 0.0
C238 C 0.08123 0.56948 0.72266 0.0
N239 N 0.14971 0.5913 0.75703 0.0
C240 C 0.18735 0.58578 0.7654 0.0
C241 C 0.18632 0.60365 0.78406 0.0
C242 C 0.16641 0.61432 0.78938 0.0
C243 C 0.14845 0.60791 0.77578 0.0
C244 C 0.16881 0.57978 0.75215 0.0
H245 H 0.13361 0.61715 0.78006 0.0
H246 H 0.16999 0.56637 0.73761 0.0
H247 H 0.11035 0.60983 0.69006 0.0
H248 H 0.08217 0.5571 0.73806 0.0
C249 C 0.09085 0.62282 0.76467 0.0
C250 C 0.12293 0.54133 0.77968 0.0
C251 C 0.14762 0.63779 0.70747 0.0
C252 C 0.14329 0.54663 0.69755 0.0
H253 H 0.09422 0.55687 0.81768 0.0
H254 H 0.07433 0.60073 0.80812 0.0
H255 H 0.09232 0.67526 0.75029 0.0
H256 H 0.1245 0.68363 0.72052 0.0
H257 H 0.17527 0.61818 0.66976 0.0
H258 H 0.17019 0.56898 0.66202 0.0
H259 H 0.14306 0.49482 0.71301 0.0
H260 H 0.1337 0.49214 0.75934 0.0
H261 H 0.07741 0.61394 0.66803 0.0
H262 H 0.04745 0.56227 0.71724 0.0
H263 H 0.20238 0.57683 0.76083 0.0
H264 H 0.16477 0.62849 0.8033 0.0
C265 C 0.38267 0.09865 0.69766 0.0
C266 C 0.39955 0.09977 0.68181 0.0
C267 C 0.41051 0.12185 0.68708 0.0
C268 C 0.39969 0.13286 0.70583 0.0
N269 N 0.38284 0.11888 0.71258 0.0
Co270 Co 0.36093 0.12827 0.73632 0.0
N271 N 0.36792 0.16468 0.7336 0.0
C272 C 0.38656 0.17404 0.7254 0.0
C273 C 0.38772 0.19995 0.72736 0.0
C274 C 0.36877 0.2072 0.73762 0.0
C275 C 0.35688 0.18522 0.74123 0.0
N276 N 0.33843 0.13715 0.75959 0.0
C277 C 0.32845 0.15962 0.76306 0.0
C278 C 0.31167 0.15674 0.77907 0.0
C279 C 0.31212 0.13205 0.78679 0.0
C280 C 0.32871 0.12097 0.77472 0.0
N281 N 0.35448 0.0918 0.73923 0.0
C282 C 0.34446 0.08024 0.75741 0.0
C283 C 0.34148 0.05474 0.75325 0.0
C284 C 0.34999 0.05025 0.731 0.0
C285 C 0.35771 0.07335 0.72293 0.0
N286 N 0.38214 0.12589 0.76257 0.0
C287 C 0.41672 0.13155 0.79483 0.0
C288 C 0.39819 0.14629 0.79696 0.0
C289 C 0.38137 0.1434 0.78066 0.0
C290 C 0.4167 0.11218 0.77745 0.0
C291 C 0.39911 0.10947 0.76168 0.0
N292 N 0.34007 0.1317 0.7102 0.0
C293 C 0.3038 0.12909 0.69553 0.0
C294 C 0.3089 0.14484 0.67609 0.0
C295 C 0.33029 0.15195 0.67308 0.0
C296 C 0.34552 0.14537 0.69035 0.0
C297 C 0.31969 0.12258 0.71231 0.0
H298 H 0.36156 0.15239 0.68811 0.0
H299 H 0.31527 0.11125 0.72758 0.0
H300 H 0.3683 0.15659 0.78205 0.0
H301 H 0.39974 0.09502 0.74796 0.0
C302 C 0.40112 0.15835 0.71313 0.0
C303 C 0.36722 0.07786 0.69948 0.0
C304 C 0.33627 0.18426 0.754 0.0
C305 C 0.33291 0.09482 0.77383 0.0
H306 H 0.40331 0.08626 0.66785 0.0
H307 H 0.42383 0.12973 0.67728 0.0
H308 H 0.4006 0.2122 0.72161 0.0
H309 H 0.3645 0.22644 0.74231 0.0
H310 H 0.30041 0.17101 0.78492 0.0
H311 H 0.30106 0.12304 0.79895 0.0
H312 H 0.33254 0.04146 0.76406 0.0
H313 H 0.34981 0.03236 0.72149 0.0
H314 H 0.39696 0.16085 0.81058 0.0
H315 H 0.43054 0.10006 0.7752 0.0
H316 H 0.28748 0.12307 0.69859 0.0
H317 H 0.3351 0.16354 0.65803 0.0
C318 C 0.87413 0.43222 0.79636 0.0
C319 C 0.88929 0.43686 0.8141 0.0
C320 C 0.9025 0.41585 0.81477 0.0
C321 C 0.89466 0.39957 0.79745 0.0
N322 N 0.87754 0.40935 0.786 0.0
Co323 Co 0.85933 0.39192 0.76201 0.0
N324 N 0.86888 0.35808 0.77282 0.0
C325 C 0.88663 0.35322 0.78592 0.0
C326 C 0.88841 0.32795 0.79169 0.0
C327 C 0.87081 0.3164 0.78139 0.0
C328 C 0.85929 0.33526 0.76959 0.0
N329 N 0.84092 0.37521 0.73786 0.0
C330 C 0.83406 0.35095 0.7369 0.0
C331 C 0.82248 0.34672 0.71583 0.0
C332 C 0.82207 0.36928 0.70351 0.0
C333 C 0.83352 0.38597 0.7175 0.0
N334 N 0.84983 0.42572 0.75138 0.0
C335 C 0.84141 0.43176 0.72989 0.0
C336 C 0.83526 0.45684 0.72874 0.0
C337 C 0.84007 0.46687 0.75096 0.0
C338 C 0.84887 0.44727 0.76435 0.0
N339 N 0.8829 0.39215 0.73876 0.0
C340 C 0.91795 0.38844 0.70763 0.0
C341 C 0.9148 0.41035 0.72155 0.0
C342 C 0.89693 0.41199 0.73677 0.0
C343 C 0.90311 0.36878 0.70946 0.0
C344 C 0.88604 0.37084 0.72517 0.0
N345 N 0.83612 0.39046 0.78522 0.0
C346 C 0.79852 0.38587 0.79311 0.0
C347 C 0.80325 0.37544 0.81571 0.0
C348 C 0.82457 0.3753 0.82359 0.0
C349 C 0.8407 0.38273 0.8081 0.0
C350 C 0.81524 0.39352 0.77818 0.0
H351 H 0.85698 0.38051 0.81421 0.0
H352 H 0.81139 0.40032 0.7604 0.0
H353 H 0.89468 0.42899 0.74729 0.0
H354 H 0.87569 0.35464 0.72667 0.0
C355 C 0.89855 0.37326 0.79624 0.0
C356 C 0.85665 0.4494 0.78911 0.0
C357 C 0.84011 0.33111 0.75434 0.0
C358 C 0.83472 0.41241 0.71419 0.0
H359 H 0.89037 0.45326 0.8257 0.0
H360 H 0.91515 0.41209 0.82768 0.0
H361 H 0.90042 0.31913 0.80307 0.0
H362 H 0.86694 0.29646 0.78263 0.0
H363 H 0.81538 0.32913 0.7097 0.0
H364 H 0.8139 0.37316 0.6867 0.0
H365 H 0.82692 0.46627 0.71416 0.0
H366 H 0.83713 0.48613 0.75682 0.0
H367 H 0.92601 0.42599 0.72066 0.0
H368 H 0.90511 0.35136 0.69939 0.0
H369 H 0.78221 0.38656 0.78636 0.0
H370 H 0.82892 0.36812 0.84118 0.0
C371 C 0.62798 0.93065 0.7116 0.0
C372 C 0.61517 0.93364 0.69142 0.0
C373 C 0.60328 0.91163 0.68928 0.0
C374 C 0.60951 0.89646 0.70825 0.0
N375 N 0.62435 0.9079 0.72206 0.0
Co376 Co 0.64022 0.89261 0.74917 0.0
N377 N 0.63438 0.85786 0.73777 0.0
C378 C 0.61873 0.85115 0.72227 0.0
C379 C 0.6192 0.82563 0.71716 0.0
C380 C 0.63605 0.81593 0.73042 0.0
C381 C 0.6449 0.83608 0.7431 0.0
N382 N 0.65623 0.87802 0.77645 0.0
C383 C 0.66468 0.85459 0.77891 0.0
C384 C 0.67397 0.85178 0.80152 0.0
C385 C 0.67121 0.87443 0.81333 0.0
C386 C 0.66031 0.88975 0.79745 0.0
N387 N 0.64607 0.92732 0.76031 0.0
C388 C 0.65129 0.93452 0.7827 0.0
C389 C 0.65604 0.96003 0.78395 0.0
C390 C 0.65377 0.96906 0.76086 0.0
C391 C 0.64777 0.94851 0.74689 0.0
N392 N 0.6138 0.89101 0.76816 0.0
C393 C 0.57448 0.88363 0.79166 0.0
C394 C 0.57862 0.90618 0.77894 0.0
C395 C 0.59847 0.90958 0.76745 0.0
C396 C 0.59071 0.86535 0.79265 0.0
C397 C 0.60999 0.86936 0.78098 0.0
N398 N 0.6663 0.89295 0.73015 0.0
C399 C 0.70476 0.89312 0.72785 0.0
C400 C 0.70364 0.88285 0.70464 0.0
C401 C 0.68347 0.87958 0.69399 0.0
C402 C 0.66513 0.88466 0.70697 0.0
C403 C 0.68582 0.89831 0.74025 0.0
H404 H 0.65 0.88024 0.69863 0.0
H405 H 0.68694 0.90544 0.75836 0.0
H406 H 0.60125 0.92686 0.75751 0.0
H407 H 0.62153 0.85422 0.78168 0.0
C408 C 0.60704 0.86988 0.70959 0.0
C409 C 0.64348 0.94923 0.72104 0.0
C410 C 0.66239 0.83416 0.76105 0.0
C411 C 0.65709 0.91608 0.7998 0.0
H412 H 0.61489 0.94963 0.67925 0.0
H413 H 0.59276 0.90654 0.67451 0.0
H414 H 0.60922 0.81547 0.70442 0.0
H415 H 0.64121 0.79634 0.73056 0.0
H416 H 0.68171 0.83508 0.80885 0.0
H417 H 0.67712 0.87937 0.83102 0.0
H418 H 0.66202 0.97042 0.79935 0.0
H419 H 0.65665 0.98828 0.75486 0.0
H420 H 0.56662 0.92097 0.77772 0.0
H421 H 0.58831 0.84736 0.80162 0.0
H422 H 0.72007 0.89625 0.73665 0.0
H423 H 0.68169 0.87134 0.67629 0.0
C424 C 0.27409 0.09995 0.38806 0.0
C425 C 0.29177 0.10066 0.40326 0.0
C426 C 0.29193 0.12445 0.41358 0.0
C427 C 0.27443 0.13696 0.4041 0.0
N428 N 0.26335 0.12227 0.38872 0.0
Co429 Co 0.23875 0.13295 0.36858 0.0
N430 N 0.24664 0.16912 0.37105 0.0
C431 C 0.25976 0.17925 0.38776 0.0
C432 C 0.263 0.20475 0.38419 0.0
C433 C 0.25099 0.21088 0.3642 0.0
C434 C 0.2408 0.18877 0.35675 0.0
N435 N 0.214 0.14292 0.34845 0.0
C436 C 0.21039 0.16478 0.33642 0.0
C437 C 0.19033 0.16427 0.32539 0.0
C438 C 0.18132 0.14119 0.33074 0.0
C439 C 0.19621 0.12893 0.34484 0.0
N440 N 0.23122 0.0968 0.36604 0.0
C441 C 0.2119 0.08715 0.36055 0.0
C442 C 0.21243 0.06111 0.35847 0.0
C443 C 0.23344 0.05427 0.36275 0.0
C444 C 0.2445 0.07658 0.36716 0.0
N445 N 0.22085 0.1371 0.39733 0.0
C446 C 0.1986 0.14928 0.43956 0.0
C447 C 0.19706 0.16455 0.41917 0.0
C448 C 0.20816 0.15825 0.39854 0.0
C449 C 0.21072 0.12679 0.438 0.0
C450 C 0.22181 0.12106 0.41665 0.0
N451 N 0.25648 0.13028 0.33998 0.0
C452 C 0.25846 0.12733 0.29698 0.0
C453 C 0.27806 0.14037 0.2974 0.0
C454 C 0.28764 0.14549 0.31965 0.0
C455 C 0.27658 0.14049 0.34061 0.0
C456 C 0.24802 0.12218 0.31859 0.0
H457 H 0.28376 0.14667 0.35721 0.0
H458 H 0.23246 0.11327 0.3179 0.0
H459 H 0.20695 0.17129 0.38379 0.0
H460 H 0.2316 0.10417 0.41597 0.0
C461 C 0.2717 0.16348 0.40336 0.0
C462 C 0.26741 0.0783 0.37304 0.0
C463 C 0.22462 0.18709 0.33726 0.0
C464 C 0.19573 0.10317 0.3515 0.0
H465 H 0.30363 0.08599 0.40608 0.0
H466 H 0.30438 0.13231 0.42499 0.0
H467 H 0.27361 0.21718 0.39417 0.0
H468 H 0.24997 0.22949 0.35611 0.0
H469 H 0.18279 0.17911 0.31489 0.0
H470 H 0.16604 0.13397 0.32447 0.0
H471 H 0.19951 0.04873 0.35281 0.0
H472 H 0.23996 0.03525 0.36224 0.0
H473 H 0.18755 0.18176 0.41923 0.0
H474 H 0.21222 0.11428 0.45331 0.0
H475 H 0.25062 0.12262 0.28017 0.0
H476 H 0.30313 0.15469 0.32087 0.0
C477 C 0.90537 0.22997 0.42111 0.0
C478 C 0.91799 0.20915 0.4159 0.0
C479 C 0.92633 0.21346 0.39342 0.0
C480 C 0.91833 0.23666 0.38625 0.0
N481 N 0.90572 0.24702 0.40298 0.0
Co482 Co 0.88832 0.27812 0.39968 0.0
N483 N 0.88903 0.27643 0.36439 0.0
C484 C 0.90386 0.26393 0.35155 0.0
C485 C 0.90134 0.26764 0.32732 0.0
C486 C 0.88403 0.28359 0.32494 0.0
C487 C 0.87676 0.28864 0.34794 0.0
N488 N 0.87017 0.30878 0.39696 0.0
C489 C 0.85812 0.31698 0.37819 0.0
C490 C 0.84634 0.33827 0.38467 0.0
C491 C 0.8521 0.34409 0.40783 0.0
C492 C 0.8667 0.32587 0.41446 0.0
N493 N 0.88827 0.27987 0.435 0.0
C494 C 0.88421 0.30044 0.44843 0.0
C495 C 0.88421 0.29496 0.47254 0.0
C496 C 0.88826 0.26936 0.47416 0.0
C497 C 0.89058 0.26068 0.45085 0.0
N498 N 0.91436 0.29929 0.39847 0.0
C499 C 0.9531 0.32299 0.38575 0.0
C500 C 0.93335 0.33205 0.37729 0.0
C501 C 0.91444 0.31983 0.38345 0.0
C502 C 0.95279 0.30331 0.40283 0.0
C503 C 0.9332 0.29199 0.40923 0.0
N504 N 0.8626 0.25703 0.39979 0.0
C505 C 0.82647 0.24844 0.41214 0.0
C506 C 0.82541 0.22757 0.39652 0.0
C507 C 0.84349 0.22156 0.38306 0.0
C508 C 0.86179 0.23641 0.38495 0.0
C509 C 0.8453 0.26289 0.41358 0.0
H510 H 0.87522 0.23139 0.37397 0.0
H511 H 0.84576 0.27902 0.42549 0.0
H512 H 0.90008 0.32623 0.37457 0.0
H513 H 0.93345 0.27636 0.42177 0.0
C514 C 0.91754 0.24601 0.36262 0.0
C515 C 0.89411 0.23422 0.44374 0.0
C516 C 0.85941 0.30662 0.35365 0.0
C517 C 0.87447 0.32169 0.43783 0.0
H518 H 0.92064 0.19259 0.42703 0.0
H519 H 0.93584 0.20042 0.38297 0.0
H520 H 0.91058 0.25926 0.31304 0.0
H521 H 0.87773 0.29091 0.30817 0.0
H522 H 0.83489 0.34873 0.37388 0.0
H523 H 0.8457 0.35918 0.41881 0.0
H524 H 0.87989 0.30751 0.48708 0.0
H525 H 0.88865 0.25839 0.49052 0.0
H526 H 0.93244 0.34788 0.36494 0.0
H527 H 0.96755 0.29578 0.41026 0.0
H528 H 0.81285 0.25368 0.42295 0.0
H529 H 0.84333 0.20594 0.37043 0.0
C530 C 0.80048 0.88619 0.41532 0.0
C531 C 0.81919 0.90038 0.41469 0.0
C532 C 0.81891 0.91336 0.39324 0.0
C533 C 0.80021 0.90633 0.38182 0.0
N534 N 0.7888 0.88995 0.39503 0.0
Co535 Co 0.76253 0.87207 0.38467 0.0
N536 N 0.76908 0.87694 0.35044 0.0
C537 C 0.78269 0.89422 0.34152 0.0
C538 C 0.78468 0.89214 0.31708 0.0
C539 C 0.77135 0.87252 0.31041 0.0
C540 C 0.76173 0.86381 0.3312 0.0
N541 N 0.73612 0.85427 0.37491 0.0
C542 C 0.73103 0.84355 0.35362 0.0
C543 C 0.71034 0.83383 0.35409 0.0
C544 C 0.70248 0.83865 0.37658 0.0
C545 C 0.71865 0.85115 0.38856 0.0
N546 N 0.75626 0.8671 0.41879 0.0
C547 C 0.73698 0.86265 0.42837 0.0
C548 C 0.73829 0.85879 0.45277 0.0
C549 C 0.75974 0.86084 0.45856 0.0
C550 C 0.77027 0.86579 0.43731 0.0
N551 N 0.74654 0.90421 0.38426 0.0
C552 C 0.72512 0.9508 0.37943 0.0
C553 C 0.72274 0.93176 0.36224 0.0
C554 C 0.7334 0.90885 0.36498 0.0
C555 C 0.73789 0.94577 0.39977 0.0
C556 C 0.74864 0.92228 0.40178 0.0
N557 N 0.77823 0.84009 0.38393 0.0
C558 C 0.77654 0.79458 0.38199 0.0
C559 C 0.79515 0.79424 0.3681 0.0
C560 C 0.80648 0.81688 0.36511 0.0
C561 C 0.79773 0.83955 0.37303 0.0
C562 C 0.76847 0.81782 0.39005 0.0
H563 H 0.80594 0.8568 0.36845 0.0
H564 H 0.75347 0.81796 0.39951 0.0
H565 H 0.73124 0.89502 0.35099 0.0
H566 H 0.75888 0.91884 0.41718 0.0
C567 C 0.79625 0.90817 0.35697 0.0
C568 C 0.79348 0.86938 0.43495 0.0
C569 C 0.74474 0.84434 0.33228 0.0
C570 C 0.71959 0.8561 0.41337 0.0
H571 H 0.83207 0.90092 0.4277 0.0
H572 H 0.83175 0.92473 0.38599 0.0
H573 H 0.79536 0.90269 0.30561 0.0
H574 H 0.76915 0.86547 0.29235 0.0
H575 H 0.70173 0.82447 0.33966 0.0
H576 H 0.68711 0.8329 0.38357 0.0
H577 H 0.72548 0.85339 0.46466 0.0
H578 H 0.76689 0.85844 0.47617 0.0
H579 H 0.71273 0.93464 0.34648 0.0
H580 H 0.74002 0.96003 0.41356 0.0
H581 H 0.76749 0.77739 0.38512 0.0
H582 H 0.82137 0.81733 0.35529 0.0
C583 C 0.10942 0.76569 0.42837 0.0
C584 C 0.09396 0.7845 0.42792 0.0
C585 C 0.08285 0.78159 0.40657 0.0
C586 C 0.09216 0.76117 0.39523 0.0
N587 N 0.1082 0.7512 0.40837 0.0
Co588 Co 0.12811 0.72412 0.39847 0.0
N589 N 0.12183 0.72991 0.36421 0.0
C590 C 0.10438 0.7418 0.35531 0.0
C591 C 0.10457 0.74311 0.33071 0.0
C592 C 0.12313 0.73112 0.32392 0.0
C593 C 0.13325 0.72293 0.34482 0.0
N594 N 0.14851 0.69733 0.38925 0.0
C595 C 0.15794 0.69324 0.36791 0.0
C596 C 0.17085 0.67176 0.36894 0.0
C597 C 0.16925 0.66224 0.39178 0.0
C598 C 0.15547 0.67827 0.4034 0.0
N599 N 0.13402 0.71827 0.43276 0.0
C600 C 0.14208 0.6971 0.44277 0.0
C601 C 0.14547 0.69983 0.46707 0.0
C602 C 0.13927 0.72426 0.47238 0.0
C603 C 0.13244 0.73497 0.45096 0.0
N604 N 0.10477 0.69893 0.39869 0.0
C605 C 0.06846 0.66818 0.39157 0.0
C606 C 0.08655 0.66534 0.37733 0.0
C607 C 0.10425 0.68096 0.38094 0.0
C608 C 0.06924 0.68595 0.41035 0.0
C609 C 0.08777 0.7008 0.41393 0.0
N610 N 0.15108 0.74926 0.39704 0.0
C611 C 0.18805 0.76141 0.40189 0.0
C612 C 0.18426 0.78395 0.38902 0.0
C613 C 0.16336 0.78897 0.38111 0.0
C614 C 0.14714 0.77158 0.38534 0.0
C615 C 0.17119 0.74433 0.40577 0.0
H616 H 0.13148 0.7759 0.37826 0.0
H617 H 0.17447 0.72691 0.4153 0.0
H618 H 0.11701 0.67926 0.36825 0.0
H619 H 0.08798 0.71456 0.42829 0.0
C620 C 0.09062 0.75544 0.37059 0.0
C621 C 0.12475 0.76099 0.44799 0.0
C622 C 0.15294 0.70745 0.34587 0.0
C623 C 0.15138 0.67848 0.42816 0.0
H624 H 0.09131 0.79897 0.44135 0.0
H625 H 0.07059 0.79407 0.39943 0.0
H626 H 0.09313 0.75265 0.31912 0.0
H627 H 0.12854 0.72879 0.30569 0.0
H628 H 0.18009 0.6635 0.35459 0.0
H629 H 0.17761 0.64598 0.39916 0.0
H630 H 0.15308 0.68643 0.47914 0.0
H631 H 0.14021 0.73338 0.48975 0.0
H632 H 0.08655 0.65213 0.36244 0.0
H633 H 0.05554 0.68864 0.42185 0.0
H634 H 0.20391 0.75685 0.40863 0.0
H635 H 0.15958 0.80573 0.37066 0.0
C636 C 0.20845 0.88367 0.58093 0.0
C637 C 0.19058 0.8992 0.58208 0.0
C638 C 0.19175 0.91151 0.60389 0.0
C639 C 0.21019 0.90278 0.61486 0.0
N640 N 0.22057 0.88599 0.60108 0.0
Co641 Co 0.2461 0.86604 0.61033 0.0
N642 N 0.24065 0.87078 0.64485 0.0
C643 C 0.22816 0.88892 0.65441 0.0
C644 C 0.22672 0.88671 0.67888 0.0
C645 C 0.23923 0.86613 0.68491 0.0
C646 C 0.2479 0.857 0.66374 0.0
N647 N 0.27158 0.8458 0.61896 0.0
C648 C 0.27664 0.8344 0.63996 0.0
C649 C 0.29671 0.82303 0.63862 0.0
C650 C 0.3042 0.82752 0.61593 0.0
C651 C 0.28848 0.84147 0.60469 0.0
N652 N 0.25144 0.86151 0.5759 0.0
C653 C 0.27021 0.85574 0.5657 0.0
C654 C 0.26818 0.85247 0.54128 0.0
C655 C 0.24679 0.85629 0.53611 0.0
C656 C 0.23704 0.86166 0.55772 0.0
N657 N 0.26375 0.89694 0.61098 0.0
C658 C 0.28582 0.94286 0.61775 0.0
C659 C 0.28897 0.92241 0.63329 0.0
C660 C 0.27791 0.89988 0.62965 0.0
C661 C 0.27224 0.93943 0.59776 0.0
C662 C 0.26127 0.91622 0.59471 0.0
N663 N 0.22863 0.83536 0.61077 0.0
C664 C 0.2254 0.79016 0.60613 0.0
C665 C 0.20727 0.78997 0.62093 0.0
C666 C 0.19929 0.81336 0.62883 0.0
C667 C 0.20993 0.83568 0.62324 0.0
C668 C 0.23592 0.81307 0.6014 0.0
H669 H 0.20369 0.8531 0.63041 0.0
H670 H 0.25044 0.81265 0.59105 0.0
H671 H 0.28031 0.88515 0.64274 0.0
H672 H 0.25031 0.9141 0.57973 0.0
C673 C 0.21485 0.90396 0.63959 0.0
C674 C 0.21421 0.86703 0.56079 0.0
C675 C 0.2639 0.83642 0.66199 0.0
C676 C 0.28739 0.84725 0.58007 0.0
H677 H 0.17781 0.90104 0.56897 0.0
H678 H 0.17968 0.92374 0.61154 0.0
H679 H 0.21688 0.89783 0.69081 0.0
H680 H 0.24153 0.85874 0.70283 0.0
H681 H 0.30525 0.81294 0.65265 0.0
H682 H 0.31906 0.82079 0.60838 0.0
H683 H 0.2804 0.84622 0.52896 0.0
H684 H 0.23915 0.85476 0.51867 0.0
H685 H 0.29961 0.92401 0.64869 0.0
H686 H 0.2695 0.95478 0.5852 0.0
H687 H 0.23187 0.77276 0.59889 0.0
H688 H 0.1856 0.81461 0.64052 0.0
C689 C 0.09932 0.23353 0.58465 0.0
C690 C 0.08733 0.21173 0.58776 0.0
C691 C 0.07804 0.21377 0.61005 0.0
C692 C 0.08487 0.2367 0.61925 0.0
N693 N 0.09761 0.24902 0.60389 0.0
Co694 Co 0.11377 0.28049 0.61021 0.0
N695 N 0.11213 0.2758 0.64521 0.0
C696 C 0.09789 0.261 0.65661 0.0
C697 C 0.10095 0.26121 0.68103 0.0
C698 C 0.11796 0.2773 0.68507 0.0
C699 C 0.12428 0.28629 0.66281 0.0
N700 N 0.13046 0.31173 0.61586 0.0
C701 C 0.14124 0.31921 0.63576 0.0
C702 C 0.15028 0.34302 0.63233 0.0
C703 C 0.14482 0.35049 0.60946 0.0
C704 C 0.13272 0.33098 0.60023 0.0
N705 N 0.115 0.28513 0.57522 0.0
C706 C 0.11844 0.307 0.56352 0.0
C707 C 0.11981 0.30344 0.53914 0.0
C708 C 0.11728 0.27775 0.53556 0.0
C709 C 0.11442 0.2671 0.55803 0.0
N710 N 0.087 0.30025 0.61175 0.0
C711 C 0.04759 0.32392 0.62097 0.0
C712 C 0.06612 0.33118 0.63328 0.0
C713 C 0.08545 0.319 0.62868 0.0
C714 C 0.04923 0.30525 0.60311 0.0
C715 C 0.06923 0.29398 0.59843 0.0
N716 N 0.14025 0.2608 0.60974 0.0
C717 C 0.17739 0.2557 0.59952 0.0
C718 C 0.1787 0.23409 0.61412 0.0
C719 C 0.1602 0.22544 0.62533 0.0
C720 C 0.14125 0.23897 0.62293 0.0
C721 C 0.15792 0.2689 0.59762 0.0
H722 H 0.12751 0.23202 0.63235 0.0
H723 H 0.15727 0.28598 0.58696 0.0
H724 H 0.09888 0.32405 0.63989 0.0
H725 H 0.07017 0.27951 0.58476 0.0
C726 C 0.08501 0.24367 0.64363 0.0
C727 C 0.11159 0.23999 0.56315 0.0
C728 C 0.14096 0.30565 0.6588 0.0
C729 C 0.1261 0.32824 0.57618 0.0
H730 H 0.08585 0.19593 0.57545 0.0
H731 H 0.06885 0.19933 0.61914 0.0
H732 H 0.09256 0.25007 0.69426 0.0
H733 H 0.12489 0.28171 0.70242 0.0
H734 H 0.15946 0.35408 0.64514 0.0
H735 H 0.14959 0.36777 0.60049 0.0
H736 H 0.12393 0.31743 0.52575 0.0
H737 H 0.1181 0.26807 0.51851 0.0
H738 H 0.06547 0.3453 0.64739 0.0
H739 H 0.03515 0.29916 0.59318 0.0
H740 H 0.19143 0.26292 0.59053 0.0
H741 H 0.16048 0.20855 0.63642 0.0
C742 C 0.73347 0.09359 0.61848 0.0
C743 C 0.71587 0.0938 0.60318 0.0
C744 C 0.71541 0.11752 0.59268 0.0
C745 C 0.73269 0.13045 0.60217 0.0
N746 N 0.7439 0.11607 0.6177 0.0
Co747 Co 0.76824 0.1272 0.6379 0.0
N748 N 0.75981 0.16316 0.63534 0.0
C749 C 0.74662 0.17305 0.61855 0.0
C750 C 0.74261 0.19833 0.6225 0.0
C751 C 0.75411 0.20453 0.64285 0.0
C752 C 0.76486 0.1827 0.6501 0.0
N753 N 0.79272 0.13768 0.65806 0.0
C754 C 0.79568 0.15949 0.67035 0.0
C755 C 0.8157 0.15958 0.68149 0.0
C756 C 0.8253 0.13684 0.67598 0.0
C757 C 0.81079 0.12421 0.66168 0.0
N758 N 0.77631 0.09126 0.64057 0.0
C759 C 0.79574 0.08198 0.6462 0.0
C760 C 0.79545 0.05596 0.64863 0.0
C761 C 0.7745 0.04878 0.64444 0.0
C762 C 0.76323 0.07087 0.6397 0.0
N763 N 0.78614 0.13155 0.60926 0.0
C764 C 0.80883 0.14338 0.56728 0.0
C765 C 0.80991 0.15901 0.58749 0.0
C766 C 0.79855 0.1529 0.60799 0.0
C767 C 0.79691 0.12078 0.56895 0.0
C768 C 0.78561 0.11521 0.59016 0.0
N769 N 0.75052 0.12418 0.66642 0.0
C770 C 0.74854 0.12072 0.70935 0.0
C771 C 0.72883 0.13349 0.70899 0.0
C772 C 0.7192 0.13878 0.6868 0.0
C773 C 0.73031 0.13411 0.66581 0.0
C774 C 0.75906 0.11599 0.68773 0.0
H775 H 0.72309 0.14031 0.64923 0.0
H776 H 0.77472 0.10731 0.68837 0.0
H777 H 0.79938 0.16616 0.62262 0.0
H778 H 0.77603 0.09816 0.59094 0.0
C779 C 0.73502 0.15703 0.60285 0.0
C780 C 0.74032 0.07234 0.63383 0.0
C781 C 0.7806 0.18101 0.67005 0.0
C782 C 0.8117 0.09839 0.65516 0.0
H783 H 0.70428 0.07882 0.60043 0.0
H784 H 0.70289 0.12505 0.58116 0.0
H785 H 0.73166 0.21047 0.61265 0.0
H786 H 0.75425 0.22295 0.65137 0.0
H787 H 0.82273 0.17453 0.69228 0.0
H788 H 0.84067 0.13002 0.68241 0.0
H789 H 0.80847 0.04384 0.65451 0.0
H790 H 0.76813 0.0297 0.64523 0.0
H791 H 0.8193 0.1763 0.58741 0.0
H792 H 0.79573 0.10799 0.55379 0.0
H793 H 0.75638 0.11593 0.72615 0.0
H794 H 0.70365 0.14784 0.68568 0.0
C795 C 0.88099 0.76767 0.57801 0.0
C796 C 0.88822 0.79213 0.58236 0.0
C797 C 0.88907 0.795 0.60667 0.0
C798 C 0.88245 0.77217 0.61574 0.0
N799 N 0.87799 0.75462 0.59881 0.0
Co800 Co 0.86642 0.71961 0.60476 0.0
N801 N 0.87045 0.72288 0.64031 0.0
C802 C 0.87559 0.74428 0.65228 0.0
C803 C 0.87709 0.74108 0.67661 0.0
C804 C 0.87234 0.71613 0.68042 0.0
C805 C 0.86823 0.70545 0.65807 0.0
N806 N 0.85454 0.68491 0.61053 0.0
C807 C 0.85376 0.67085 0.63089 0.0
C808 C 0.84458 0.64726 0.62669 0.0
C809 C 0.83907 0.64659 0.60296 0.0
C810 C 0.84525 0.66967 0.59405 0.0
N811 N 0.86266 0.7164 0.56905 0.0
C812 C 0.85296 0.69703 0.55747 0.0
C813 C 0.85219 0.69987 0.53307 0.0
C814 C 0.86154 0.72277 0.52877 0.0
C815 C 0.86753 0.73271 0.55091 0.0
N816 N 0.89549 0.70494 0.60301 0.0
C817 C 0.93307 0.67729 0.61385 0.0
C818 C 0.91737 0.66746 0.59821 0.0
C819 C 0.89886 0.68162 0.59288 0.0
C820 C 0.93037 0.70228 0.62191 0.0
C821 C 0.91175 0.71576 0.61607 0.0
N822 N 0.83747 0.73404 0.60782 0.0
C823 C 0.81406 0.76923 0.59933 0.0
C824 C 0.80375 0.7656 0.62117 0.0
C825 C 0.80863 0.74397 0.63461 0.0
C826 C 0.82546 0.72836 0.62751 0.0
C827 C 0.83047 0.75272 0.59272 0.0
H828 H 0.82959 0.71281 0.63897 0.0
H829 H 0.83815 0.75592 0.57609 0.0
H830 H 0.88684 0.67299 0.58164 0.0
H831 H 0.91003 0.73431 0.62369 0.0
C832 C 0.88054 0.76648 0.64 0.0
C833 C 0.87417 0.75929 0.55405 0.0
C834 C 0.85934 0.67988 0.65495 0.0
C835 C 0.8448 0.67643 0.56998 0.0
H836 H 0.89148 0.80674 0.56925 0.0
H837 H 0.89352 0.81191 0.61654 0.0
H838 H 0.88123 0.75518 0.68999 0.0
H839 H 0.8714 0.70708 0.69779 0.0
H840 H 0.84184 0.63229 0.63959 0.0
H841 H 0.83182 0.63095 0.59327 0.0
H842 H 0.8452 0.68706 0.52 0.0
H843 H 0.86283 0.73155 0.51134 0.0
H844 H 0.91898 0.64862 0.59069 0.0
H845 H 0.94191 0.71103 0.63392 0.0
H846 H 0.81007 0.78525 0.58797 0.0
H847 H 0.80062 0.74019 0.65138 0.0
C848 C 0.40107 0.2907 0.08815 0.0
C849 C 0.41453 0.311 0.09276 0.0
C850 C 0.42366 0.30654 0.11501 0.0
C851 C 0.41526 0.28378 0.12267 0.0
N852 N 0.40165 0.27384 0.10643 0.0
Co853 Co 0.38355 0.24345 0.11047 0.0
N854 N 0.38584 0.24526 0.14572 0.0
C855 C 0.40117 0.25773 0.15815 0.0
C856 C 0.39859 0.25552 0.18249 0.0
C857 C 0.38073 0.24058 0.18537 0.0
C858 C 0.37342 0.23428 0.16252 0.0
N859 N 0.36493 0.21343 0.1139 0.0
C860 C 0.35392 0.20539 0.1332 0.0
C861 C 0.34317 0.18292 0.12807 0.0
C862 C 0.34782 0.17682 0.10474 0.0
C863 C 0.36114 0.19577 0.09693 0.0
N864 N 0.38175 0.24154 0.07525 0.0
C865 C 0.37674 0.22102 0.06206 0.0
C866 C 0.3757 0.22645 0.03794 0.0
C867 C 0.38017 0.25196 0.0361 0.0
C868 C 0.38374 0.26057 0.05927 0.0
N869 N 0.40902 0.22144 0.11079 0.0
C870 C 0.44783 0.19689 0.12148 0.0
C871 C 0.42874 0.18887 0.13184 0.0
C872 C 0.40968 0.20146 0.12649 0.0
C873 C 0.44691 0.21624 0.10419 0.0
C874 C 0.4272 0.22789 0.09868 0.0
N875 N 0.35845 0.26551 0.11125 0.0
C876 C 0.32209 0.27594 0.10035 0.0
C877 C 0.32282 0.29732 0.1154 0.0
C878 C 0.34177 0.30238 0.12802 0.0
C879 C 0.35924 0.2864 0.1257 0.0
C880 C 0.34019 0.26028 0.09844 0.0
H881 H 0.37336 0.29088 0.13603 0.0
H882 H 0.33941 0.24386 0.0869 0.0
H883 H 0.39584 0.19602 0.13657 0.0
H884 H 0.4269 0.24313 0.08572 0.0
C885 C 0.41496 0.27489 0.14649 0.0
C886 C 0.38852 0.28681 0.06607 0.0
C887 C 0.35554 0.21682 0.15719 0.0
C888 C 0.36769 0.19971 0.07317 0.0
H889 H 0.41716 0.32736 0.08143 0.0
H890 H 0.43393 0.31929 0.12507 0.0
H891 H 0.40795 0.26458 0.1965 0.0
H892 H 0.37393 0.23504 0.20235 0.0
H893 H 0.3334 0.17179 0.14006 0.0
H894 H 0.34176 0.16084 0.09456 0.0
H895 H 0.37064 0.21393 0.02359 0.0
H896 H 0.38019 0.263 0.01975 0.0
H897 H 0.42874 0.17417 0.14543 0.0
H898 H 0.46136 0.22282 0.0956 0.0
H899 H 0.3077 0.27134 0.09027 0.0
H900 H 0.34299 0.31822 0.14034 0.0
C901 C 0.38795 0.7164 0.88905 0.0
C902 C 0.40187 0.69612 0.89162 0.0
C903 C 0.41279 0.69425 0.87027 0.0
C904 C 0.40493 0.7135 0.85593 0.0
N905 N 0.38996 0.72722 0.86721 0.0
Co906 Co 0.37245 0.75469 0.85324 0.0
N907 N 0.37753 0.74266 0.82029 0.0
C908 C 0.39351 0.72722 0.81343 0.0
C909 C 0.39203 0.72114 0.7895 0.0
C910 C 0.37415 0.73369 0.78099 0.0
C911 C 0.36575 0.74702 0.80021 0.0
N912 N 0.35494 0.78234 0.83978 0.0
C913 C 0.34557 0.78404 0.81797 0.0
C914 C 0.33538 0.80734 0.81528 0.0
C915 C 0.33851 0.82038 0.83638 0.0
C916 C 0.3505 0.80448 0.85069 0.0
N917 N 0.36734 0.76653 0.88615 0.0
C918 C 0.3615 0.78999 0.89283 0.0
C919 C 0.35806 0.79158 0.91714 0.0
C920 C 0.36193 0.76758 0.926 0.0
C921 C 0.36754 0.75275 0.90653 0.0
N922 N 0.39794 0.77649 0.85092 0.0
C923 C 0.43562 0.80467 0.84455 0.0
C924 C 0.4201 0.80334 0.82644 0.0
C925 C 0.40139 0.78946 0.83002 0.0
C926 C 0.43171 0.79223 0.86632 0.0
C927 C 0.41277 0.77808 0.86911 0.0
N928 N 0.3472 0.73283 0.85478 0.0
C929 C 0.30934 0.72691 0.86034 0.0
C930 C 0.3107 0.70209 0.85128 0.0
C931 C 0.33088 0.69281 0.84499 0.0
C932 C 0.34879 0.70836 0.84688 0.0
C933 C 0.32782 0.74194 0.86206 0.0
H934 H 0.36387 0.70075 0.84107 0.0
H935 H 0.32639 0.76114 0.86862 0.0
H936 H 0.38991 0.78876 0.8155 0.0
H937 H 0.41028 0.76801 0.88572 0.0
C938 C 0.4064 0.71478 0.83075 0.0
C939 C 0.37328 0.72581 0.90742 0.0
C940 C 0.34738 0.76466 0.79911 0.0
C941 C 0.35446 0.80751 0.87543 0.0
H942 H 0.40358 0.68378 0.90702 0.0
H943 H 0.42387 0.67943 0.86525 0.0
H944 H 0.40199 0.70801 0.77968 0.0
H945 H 0.36799 0.73279 0.76283 0.0
H946 H 0.32671 0.81426 0.7997 0.0
H947 H 0.33208 0.83879 0.84101 0.0
H948 H 0.35205 0.80772 0.92702 0.0
H949 H 0.36044 0.7616 0.94446 0.0
H950 H 0.42253 0.81277 0.80941 0.0
H951 H 0.44345 0.79281 0.88073 0.0
H952 H 0.29409 0.7348 0.86567 0.0
H953 H 0.33278 0.67397 0.83754 0.0
C954 C 0.22612 0.41659 0.89075 0.0
C955 C 0.20983 0.41173 0.9068 0.0
C956 C 0.21422 0.3883 0.91677 0.0
C957 C 0.23287 0.38015 0.90624 0.0
N958 N 0.24034 0.39719 0.8905 0.0
Co959 Co 0.26493 0.39266 0.86895 0.0
N960 N 0.26321 0.35549 0.87123 0.0
C961 C 0.25397 0.3425 0.88916 0.0
C962 C 0.25629 0.31673 0.88653 0.0
C963 C 0.26776 0.31355 0.86579 0.0
C964 C 0.27169 0.33766 0.85672 0.0
N965 N 0.28939 0.38871 0.84704 0.0
C966 C 0.29463 0.36858 0.83324 0.0
C967 C 0.31149 0.37487 0.81823 0.0
C968 C 0.31747 0.39924 0.82384 0.0
C969 C 0.30373 0.40683 0.8415 0.0
N970 N 0.2665 0.42988 0.86701 0.0
C971 C 0.28348 0.44383 0.86054 0.0
C972 C 0.27875 0.46934 0.85958 0.0
C973 C 0.25746 0.47125 0.8656 0.0
C974 C 0.25049 0.44675 0.86988 0.0
N975 N 0.28484 0.39222 0.89661 0.0
C976 C 0.30817 0.3811 0.9387 0.0
C977 C 0.31282 0.36905 0.91707 0.0
C978 C 0.30114 0.37483 0.89644 0.0
C979 C 0.29274 0.40056 0.93843 0.0
C980 C 0.28125 0.40589 0.91709 0.0
N981 N 0.24527 0.39168 0.84145 0.0
C982 C 0.239 0.3967 0.79905 0.0
C983 C 0.22187 0.37948 0.80001 0.0
C984 C 0.21554 0.37057 0.82249 0.0
C985 C 0.22747 0.3767 0.84283 0.0
C986 C 0.25039 0.40274 0.82008 0.0
H987 H 0.22295 0.36799 0.85949 0.0
H988 H 0.26403 0.41522 0.81884 0.0
H989 H 0.3045 0.36377 0.88072 0.0
H990 H 0.26873 0.42006 0.91744 0.0
C991 C 0.24042 0.35495 0.90551 0.0
C992 C 0.22859 0.43966 0.87621 0.0
C993 C 0.2848 0.34317 0.83545 0.0
C994 C 0.30078 0.43201 0.84917 0.0
H995 H 0.1961 0.42352 0.91059 0.0
H996 H 0.20413 0.37773 0.92888 0.0
H997 H 0.24985 0.30196 0.89786 0.0
H998 H 0.2728 0.29556 0.85839 0.0
H999 H 0.31867 0.3634 0.8044 0.0
H1000 H 0.3295 0.41056 0.81499 0.0
H1001 H 0.28895 0.4845 0.8533 0.0
H1002 H 0.24798 0.48844 0.86604 0.0
H1003 H 0.32491 0.35431 0.91629 0.0
H1004 H 0.28882 0.41057 0.95476 0.0
H1005 H 0.2443 0.40436 0.7821 0.0
H1006 H 0.20194 0.35798 0.82429 0.0
C1007 C 0.60203 0.27724 0.91794 0.0
C1008 C 0.58929 0.29826 0.91365 0.0
C1009 C 0.58038 0.29489 0.89111 0.0
C1010 C 0.58818 0.272 0.88298 0.0
N1011 N 0.60119 0.26098 0.8992 0.0
Co1012 Co 0.61851 0.2301 0.89467 0.0
N1013 N 0.617 0.23324 0.8595 0.0
C1014 C 0.60226 0.24664 0.84706 0.0
C1015 C 0.60548 0.24532 0.82275 0.0
C1016 C 0.62315 0.23002 0.81994 0.0
C1017 C 0.62972 0.22266 0.84277 0.0
N1018 N 0.63637 0.19953 0.89077 0.0
C1019 C 0.64781 0.19205 0.87161 0.0
C1020 C 0.65791 0.16903 0.87619 0.0
C1021 C 0.6524 0.16204 0.89907 0.0
C1022 C 0.63925 0.18105 0.90715 0.0
N1023 N 0.61954 0.22688 0.9298 0.0
C1024 C 0.62361 0.20566 0.9424 0.0
C1025 C 0.62427 0.21016 0.9667 0.0
C1026 C 0.62057 0.23577 0.96928 0.0
C1027 C 0.61779 0.24542 0.94633 0.0
N1028 N 0.59247 0.20907 0.89298 0.0
C1029 C 0.55342 0.18598 0.88008 0.0
C1030 C 0.57277 0.17774 0.87037 0.0
C1031 C 0.59186 0.18963 0.87671 0.0
C1032 C 0.55432 0.20442 0.89833 0.0
C1033 C 0.5741 0.21552 0.90473 0.0
N1034 N 0.6443 0.25105 0.89508 0.0
C1035 C 0.68178 0.257 0.90402 0.0
C1036 C 0.68239 0.27741 0.88795 0.0
C1037 C 0.66344 0.28539 0.87691 0.0
C1038 C 0.64464 0.2721 0.88078 0.0
C1039 C 0.66243 0.24395 0.90734 0.0
H1040 H 0.63053 0.2783 0.87125 0.0
H1041 H 0.66228 0.22755 0.91894 0.0
H1042 H 0.60586 0.18404 0.86698 0.0
H1043 H 0.57433 0.23034 0.91811 0.0
C1044 C 0.58868 0.26392 0.8589 0.0
C1045 C 0.61406 0.27212 0.94016 0.0
C1046 C 0.64729 0.2048 0.84819 0.0
C1047 C 0.63225 0.18435 0.93084 0.0
H1048 H 0.587 0.31437 0.92538 0.0
H1049 H 0.57071 0.30842 0.88121 0.0
H1050 H 0.59673 0.25526 0.80879 0.0
H1051 H 0.63037 0.22504 0.80303 0.0
H1052 H 0.66786 0.1582 0.86415 0.0
H1053 H 0.65786 0.14547 0.90883 0.0
H1054 H 0.62861 0.19691 0.98075 0.0
H1055 H 0.62056 0.24609 0.98603 0.0
H1056 H 0.57314 0.16294 0.8569 0.0
H1057 H 0.53981 0.21123 0.90665 0.0
H1058 H 0.69625 0.25046 0.91293 0.0
H1059 H 0.66332 0.30132 0.86461 0.0
C1060 C 0.77867 0.60086 0.89621 0.0
C1061 C 0.79687 0.60118 0.9106 0.0
C1062 C 0.79777 0.625 0.92087 0.0
C1063 C 0.78014 0.63789 0.91215 0.0
N1064 N 0.76831 0.62339 0.89731 0.0
Co1065 Co 0.74329 0.63443 0.87814 0.0
N1066 N 0.7518 0.67041 0.8801 0.0
C1067 C 0.76544 0.68041 0.89637 0.0
C1068 C 0.76893 0.70582 0.89248 0.0
C1069 C 0.75658 0.712 0.87275 0.0
C1070 C 0.74599 0.69001 0.86574 0.0
N1071 N 0.71817 0.64483 0.85891 0.0
C1072 C 0.71476 0.66658 0.84666 0.0
C1073 C 0.69443 0.66657 0.83627 0.0
C1074 C 0.68504 0.64388 0.84227 0.0
C1075 C 0.7 0.63135 0.85607 0.0
N1076 N 0.73501 0.5985 0.87616 0.0
C1077 C 0.71536 0.58928 0.87152 0.0
C1078 C 0.71542 0.56322 0.86957 0.0
C1079 C 0.73644 0.55593 0.87303 0.0
C1080 C 0.74797 0.57801 0.87689 0.0
N1081 N 0.72642 0.63895 0.90757 0.0
C1082 C 0.70522 0.65009 0.95075 0.0
C1083 C 0.70357 0.66619 0.93088 0.0
C1084 C 0.71415 0.66035 0.9097 0.0
C1085 C 0.71702 0.62751 0.94816 0.0
C1086 C 0.72756 0.62232 0.92641 0.0
N1087 N 0.76011 0.63093 0.84894 0.0
C1088 C 0.76281 0.62102 0.80692 0.0
C1089 C 0.78318 0.63221 0.80621 0.0
C1090 C 0.79215 0.64136 0.82758 0.0
C1091 C 0.7804 0.64064 0.8486 0.0
C1092 C 0.75152 0.62053 0.82854 0.0
H1093 H 0.78754 0.64878 0.86445 0.0
H1094 H 0.73564 0.61247 0.82864 0.0
H1095 H 0.71278 0.67373 0.89519 0.0
H1096 H 0.73705 0.60524 0.92499 0.0
C1097 C 0.77769 0.66447 0.91153 0.0
C1098 C 0.77108 0.57939 0.88155 0.0
C1099 C 0.72965 0.68824 0.84645 0.0
C1100 C 0.69921 0.60565 0.86296 0.0
H1101 H 0.80853 0.58619 0.91294 0.0
H1102 H 0.81071 0.63259 0.93173 0.0
H1103 H 0.77997 0.71811 0.90202 0.0
H1104 H 0.75569 0.73053 0.86448 0.0
H1105 H 0.68704 0.68147 0.8257 0.0
H1106 H 0.66948 0.63702 0.83653 0.0
H1107 H 0.70215 0.55111 0.86445 0.0
H1108 H 0.74267 0.53678 0.87228 0.0
H1109 H 0.69427 0.68353 0.9317 0.0
H1110 H 0.71868 0.6144 0.963 0.0
H1111 H 0.75531 0.61365 0.79078 0.0
H1112 H 0.80801 0.6497 0.82796 0.0
C1113 C 0.61533 0.71835 0.11128 0.0
C1114 C 0.60154 0.69782 0.11042 0.0
C1115 C 0.59173 0.69683 0.1325 0.0
C1116 C 0.60006 0.71681 0.14554 0.0
N1117 N 0.61426 0.73017 0.13277 0.0
Co1118 Co 0.63248 0.75813 0.14459 0.0
N1119 N 0.62925 0.74748 0.17823 0.0
C1120 C 0.61361 0.73245 0.18669 0.0
C1121 C 0.61622 0.7275 0.21074 0.0
C1122 C 0.63446 0.74036 0.21763 0.0
C1123 C 0.64195 0.75276 0.19739 0.0
N1124 N 0.65106 0.78599 0.15574 0.0
C1125 C 0.6618 0.78837 0.17673 0.0
C1126 C 0.67244 0.81152 0.17772 0.0
C1127 C 0.66815 0.82376 0.15643 0.0
C1128 C 0.65507 0.80758 0.14371 0.0
N1129 N 0.63548 0.76877 0.11099 0.0
C1130 C 0.64091 0.79196 0.10312 0.0
C1131 C 0.6429 0.79265 0.07856 0.0
C1132 C 0.63859 0.76834 0.07079 0.0
C1133 C 0.63418 0.75424 0.09112 0.0
N1134 N 0.60714 0.78019 0.14838 0.0
C1135 C 0.56922 0.80711 0.15933 0.0
C1136 C 0.58782 0.80953 0.17344 0.0
C1137 C 0.60619 0.79571 0.16802 0.0
C1138 C 0.5706 0.79186 0.1386 0.0
C1139 C 0.58975 0.77886 0.1333 0.0
N1140 N 0.6575 0.73597 0.14187 0.0
C1141 C 0.69488 0.72921 0.13365 0.0
C1142 C 0.69389 0.70484 0.14381 0.0
C1143 C 0.6741 0.69622 0.15208 0.0
C1144 C 0.65626 0.71193 0.15095 0.0
C1145 C 0.67644 0.74445 0.13273 0.0
H1146 H 0.64158 0.70481 0.15827 0.0
H1147 H 0.67758 0.76329 0.12526 0.0
H1148 H 0.61943 0.79706 0.18044 0.0
H1149 H 0.59024 0.76701 0.11751 0.0
C1150 C 0.59991 0.71923 0.17072 0.0
C1151 C 0.62888 0.72717 0.09156 0.0
C1152 C 0.66046 0.7702 0.19671 0.0
C1153 C 0.64935 0.80987 0.11933 0.0
H1154 H 0.5992 0.68477 0.09565 0.0
H1155 H 0.58109 0.68211 0.13882 0.0
H1156 H 0.60676 0.71487 0.22168 0.0
H1157 H 0.64149 0.74025 0.23542 0.0
H1158 H 0.68205 0.81897 0.19236 0.0
H1159 H 0.67442 0.84189 0.15067 0.0
H1160 H 0.64842 0.80835 0.06775 0.0
H1161 H 0.63915 0.76165 0.05247 0.0
H1162 H 0.58825 0.82168 0.18907 0.0
H1163 H 0.55685 0.78918 0.12692 0.0
H1164 H 0.70982 0.73659 0.12683 0.0
H1165 H 0.67251 0.6778 0.16049 0.0
C1166 C 0.22521 0.60369 0.10629 0.0
C1167 C 0.2068 0.60359 0.09223 0.0
C1168 C 0.20567 0.62711 0.0814 0.0
C1169 C 0.22339 0.64026 0.08948 0.0
N1170 N 0.23546 0.62621 0.10448 0.0
Co1171 Co 0.26094 0.63778 0.12255 0.0
N1172 N 0.25241 0.67368 0.1197 0.0
C1173 C 0.23844 0.68324 0.10356 0.0
C1174 C 0.23489 0.70871 0.10709 0.0
C1175 C 0.24749 0.71535 0.1265 0.0
C1176 C 0.25827 0.69354 0.13368 0.0
N1177 N 0.28656 0.64881 0.14051 0.0
C1178 C 0.29001 0.6708 0.15228 0.0
C1179 C 0.31051 0.67124 0.16218 0.0
C1180 C 0.31996 0.64848 0.15638 0.0
C1181 C 0.30483 0.6355 0.14318 0.0
N1182 N 0.26921 0.60194 0.12555 0.0
C1183 C 0.28897 0.59286 0.12992 0.0
C1184 C 0.28897 0.56687 0.13265 0.0
C1185 C 0.26789 0.5595 0.12993 0.0
C1186 C 0.25626 0.58145 0.12572 0.0
N1187 N 0.27702 0.64108 0.09252 0.0
C1188 C 0.29718 0.65061 0.04852 0.0
C1189 C 0.29919 0.6675 0.06773 0.0
C1190 C 0.28913 0.66244 0.08935 0.0
C1191 C 0.28559 0.62807 0.05216 0.0
C1192 C 0.27555 0.62369 0.07434 0.0
N1193 N 0.24497 0.63565 0.15242 0.0
C1194 C 0.2453 0.63264 0.19547 0.0
C1195 C 0.22552 0.64523 0.19637 0.0
C1196 C 0.2148 0.65043 0.17478 0.0
C1197 C 0.2248 0.64564 0.15311 0.0
C1198 C 0.25468 0.62779 0.17321 0.0
H1199 H 0.21669 0.65163 0.13696 0.0
H1200 H 0.27036 0.61916 0.17287 0.0
H1201 H 0.29075 0.67639 0.10334 0.0
H1202 H 0.26618 0.60664 0.07663 0.0
C1203 C 0.22586 0.66685 0.0892 0.0
C1204 C 0.23309 0.58263 0.12128 0.0
C1205 C 0.27466 0.69198 0.1529 0.0
C1206 C 0.3054 0.6095 0.13727 0.0
H1207 H 0.19515 0.58852 0.09044 0.0
H1208 H 0.19258 0.63436 0.07055 0.0
H1209 H 0.22357 0.72072 0.09763 0.0
H1210 H 0.24833 0.734 0.13451 0.0
H1211 H 0.31786 0.68638 0.17247 0.0
H1212 H 0.3356 0.64181 0.16205 0.0
H1213 H 0.30237 0.55491 0.13767 0.0
H1214 H 0.26171 0.54037 0.13129 0.0
H1215 H 0.30834 0.68486 0.06601 0.0
H1216 H 0.28373 0.61439 0.03781 0.0
H1217 H 0.25404 0.62795 0.21174 0.0
H1218 H 0.19915 0.65932 0.1746 0.0
C1219 C 0.78561 0.40417 0.11091 0.0
C1220 C 0.80325 0.40093 0.09631 0.0
C1221 C 0.80205 0.3765 0.08752 0.0
C1222 C 0.78383 0.36616 0.09724 0.0
N1223 N 0.77362 0.3828 0.11133 0.0
Co1224 Co 0.74844 0.3758 0.13132 0.0
N1225 N 0.75423 0.33903 0.1314 0.0
C1226 C 0.7665 0.32653 0.11558 0.0
C1227 C 0.76849 0.30126 0.12125 0.0
C1228 C 0.75663 0.29787 0.14168 0.0
C1229 C 0.74777 0.3213 0.14728 0.0
N1230 N 0.72328 0.36942 0.15136 0.0
C1231 C 0.71892 0.34909 0.16517 0.0
C1232 C 0.69903 0.35183 0.17586 0.0
C1233 C 0.69096 0.37485 0.16844 0.0
C1234 C 0.70621 0.38482 0.15354 0.0
N1235 N 0.74284 0.41248 0.13114 0.0
C1236 C 0.72405 0.42399 0.13531 0.0
C1237 C 0.72601 0.45003 0.13539 0.0
C1238 C 0.74735 0.45486 0.13117 0.0
C1239 C 0.75715 0.43145 0.12874 0.0
N1240 N 0.73044 0.37116 0.1025 0.0
C1241 C 0.70658 0.35966 0.06088 0.0
C1242 C 0.70474 0.34499 0.08161 0.0
C1243 C 0.71663 0.351 0.10201 0.0
C1244 C 0.72003 0.38106 0.06169 0.0
C1245 C 0.73194 0.38643 0.08271 0.0
N1246 N 0.76618 0.37931 0.16016 0.0
C1247 C 0.76971 0.3901 0.20194 0.0
C1248 C 0.78828 0.37509 0.20398 0.0
C1249 C 0.79615 0.36375 0.18308 0.0
C1250 C 0.78512 0.36641 0.16146 0.0
C1251 C 0.75884 0.39183 0.1799 0.0
H1252 H 0.79132 0.35666 0.14606 0.0
H1253 H 0.74411 0.40253 0.17899 0.0
H1254 H 0.71495 0.33873 0.1173 0.0
H1255 H 0.74267 0.40252 0.08287 0.0
C1256 C 0.7794 0.34005 0.09936 0.0
C1257 C 0.77998 0.42735 0.12418 0.0
C1258 C 0.73253 0.32633 0.1668 0.0
C1259 C 0.70701 0.40999 0.14504 0.0
H1260 H 0.8159 0.41436 0.0928 0.0
H1261 H 0.81399 0.36686 0.07692 0.0
H1262 H 0.7784 0.28726 0.11248 0.0
H1263 H 0.75502 0.28022 0.15138 0.0
H1264 H 0.69111 0.33856 0.18764 0.0
H1265 H 0.67614 0.38363 0.174 0.0
H1266 H 0.71379 0.46381 0.13977 0.0
H1267 H 0.75495 0.4733 0.13052 0.0
H1268 H 0.69425 0.32862 0.08204 0.0
H1269 H 0.72182 0.39301 0.04604 0.0
H1270 H 0.76325 0.39992 0.2173 0.0
H1271 H 0.81012 0.35162 0.18342 0.0
C1272 C 0.20685 0.54626 0.12005 0.0
C1273 C 0.21846 0.56432 0.13324 0.0
C1274 C 0.19375 0.52833 0.13162 0.0
C1275 C 0.19227 0.52843 0.157 0.0
C1276 C 0.20396 0.54681 0.17031 0.0
C1277 C 0.21697 0.5644 0.15828 0.0
C1278 C 0.18174 0.50902 0.11673 0.0
C1279 C 0.20291 0.54775 0.19733 0.0
C1280 C 0.14541 0.49639 0.18872 0.0
C1281 C 0.15485 0.47385 0.1969 0.0
C1282 C 0.15722 0.51404 0.17519 0.0
C1283 C 0.17898 0.50902 0.16976 0.0
C1284 C 0.18834 0.48587 0.17755 0.0
C1285 C 0.17619 0.46868 0.19112 0.0
C1286 C 0.1466 0.53843 0.16735 0.0
C1287 C 0.21138 0.47956 0.17216 0.0
H1288 H 0.20836 0.54584 0.10071 0.0
H1289 H 0.22606 0.5783 0.16848 0.0
H1290 H 0.18722 0.48963 0.12152 0.0
H1291 H 0.16436 0.51001 0.12061 0.0
H1292 H 0.18404 0.51191 0.09719 0.0
H1293 H 0.21236 0.56374 0.20497 0.0
H1294 H 0.18603 0.54974 0.20309 0.0
H1295 H 0.2091 0.52974 0.205 0.0
H1296 H 0.12899 0.5005 0.1935 0.0
H1297 H 0.18351 0.4513 0.19765 0.0
H1298 H 0.14831 0.54102 0.14772 0.0
H1299 H 0.15463 0.55475 0.17621 0.0
H1300 H 0.1293 0.53889 0.17182 0.0
H1301 H 0.21435 0.48127 0.15265 0.0
H1302 H 0.21579 0.46007 0.17802 0.0
H1303 H 0.2221 0.49327 0.18142 0.0
C1304 C 0.55913 0.14813 0.18035 0.0
C1305 C 0.55565 0.14508 0.205 0.0
C1306 C 0.54225 0.15447 0.16461 0.0
C1307 C 0.52146 0.15849 0.17381 0.0
C1308 C 0.51775 0.15464 0.19861 0.0
C1309 C 0.53487 0.14773 0.21387 0.0
C1310 C 0.54683 0.15773 0.13826 0.0
C1311 C 0.49591 0.15904 0.20924 0.0
C1312 C 0.4835 0.2037 0.14112 0.0
C1313 C 0.46846 0.18694 0.13115 0.0
C1314 C 0.50106 0.19467 0.15461 0.0
C1315 C 0.50388 0.16817 0.15784 0.0
C1316 C 0.48936 0.15113 0.14667 0.0
C1317 C 0.47168 0.16072 0.13372 0.0
C1318 C 0.51598 0.21354 0.16642 0.0
C1319 C 0.49205 0.12279 0.14911 0.0
H1320 H 0.57523 0.14609 0.17349 0.0
H1321 H 0.53224 0.14569 0.23296 0.0
H1322 H 0.53509 0.14683 0.12731 0.0
H1323 H 0.54511 0.178 0.13324 0.0
H1324 H 0.56325 0.1514 0.1336 0.0
H1325 H 0.49545 0.15425 0.22863 0.0
H1326 H 0.49134 0.17926 0.20699 0.0
H1327 H 0.4837 0.1475 0.19966 0.0
H1328 H 0.48085 0.22397 0.13953 0.0
H1329 H 0.46002 0.14772 0.12608 0.0
H1330 H 0.53278 0.20962 0.16131 0.0
H1331 H 0.51505 0.21161 0.1862 0.0
H1332 H 0.51204 0.23343 0.1615 0.0
H1333 H 0.50865 0.11716 0.14454 0.0
H1334 H 0.48071 0.11214 0.1374 0.0
H1335 H 0.48932 0.11707 0.16797 0.0
C1336 C 0.79603 0.44587 0.1614 0.0
C1337 C 0.79631 0.44363 0.13637 0.0
C1338 C 0.81067 0.46153 0.17366 0.0
C1339 C 0.82598 0.47558 0.16057 0.0
C1340 C 0.82632 0.47345 0.13522 0.0
C1341 C 0.81139 0.4576 0.1234 0.0
C1342 C 0.8096 0.46317 0.20066 0.0
C1343 C 0.84231 0.48811 0.12059 0.0
C1344 C 0.84865 0.53304 0.19365 0.0
C1345 C 0.86749 0.52311 0.2037 0.0
C1346 C 0.83544 0.51817 0.17869 0.0
C1347 C 0.84129 0.49273 0.1736 0.0
C1348 C 0.86093 0.4831 0.18281 0.0
C1349 C 0.87376 0.49839 0.19787 0.0
C1350 C 0.81465 0.52927 0.16948 0.0
C1351 C 0.86787 0.4562 0.17778 0.0
H1352 H 0.78424 0.43534 0.17144 0.0
H1353 H 0.8112 0.45663 0.10401 0.0
H1354 H 0.82526 0.45777 0.20873 0.0
H1355 H 0.80624 0.483 0.20614 0.0
H1356 H 0.79702 0.45064 0.20817 0.0
H1357 H 0.84105 0.48369 0.10116 0.0
H1358 H 0.83977 0.50877 0.12311 0.0
H1359 H 0.85883 0.48377 0.12686 0.0
H1360 H 0.84374 0.55208 0.19843 0.0
H1361 H 0.88824 0.49069 0.2059 0.0
H1362 H 0.801 0.51949 0.17812 0.0
H1363 H 0.81304 0.52621 0.14987 0.0
H1364 H 0.81337 0.54993 0.17323 0.0
H1365 H 0.85693 0.44279 0.18689 0.0
H1366 H 0.88449 0.45244 0.18413 0.0
H1367 H 0.86687 0.45219 0.15827 0.0
C1368 C 0.54445 0.8234 0.1916 0.0
C1369 C 0.54863 0.81962 0.16706 0.0
C1370 C 0.52556 0.83518 0.19946 0.0
C1371 C 0.50973 0.8427 0.18258 0.0
C1372 C 0.51361 0.83887 0.15781 0.0
C1373 C 0.53302 0.82768 0.15035 0.0
C1374 C 0.52236 0.83904 0.22603 0.0
C1375 C 0.49699 0.84603 0.13919 0.0
C1376 C 0.45288 0.844 0.20688 0.0
C1377 C 0.44872 0.87011 0.20972 0.0
C1378 C 0.47221 0.83508 0.19731 0.0
C1379 C 0.4885 0.85247 0.19113 0.0
C1380 C 0.48478 0.87882 0.1944 0.0
C1381 C 0.46493 0.88733 0.20343 0.0
C1382 C 0.47524 0.80684 0.19404 0.0
C1383 C 0.5019 0.89801 0.18865 0.0
H1384 H 0.55577 0.81668 0.20498 0.0
H1385 H 0.5359 0.82528 0.13137 0.0
H1386 H 0.51751 0.85891 0.2297 0.0
H1387 H 0.50929 0.82655 0.23238 0.0
H1388 H 0.53706 0.83474 0.23665 0.0
H1389 H 0.50264 0.84271 0.12062 0.0
H1390 H 0.48222 0.83475 0.14201 0.0
H1391 H 0.49259 0.86631 0.14108 0.0
H1392 H 0.44107 0.83021 0.21242 0.0
H1393 H 0.4621 0.9075 0.20537 0.0
H1394 H 0.48817 0.79995 0.20616 0.0
H1395 H 0.4802 0.80266 0.1754 0.0
H1396 H 0.46043 0.79595 0.19788 0.0
H1397 H 0.51643 0.8942 0.19969 0.0
H1398 H 0.49657 0.9178 0.19201 0.0
H1399 H 0.50659 0.89628 0.16959 0.0
C1400 C 0.19578 0.46757 0.87887 0.0
C1401 C 0.2102 0.45351 0.86507 0.0
C1402 C 0.1797 0.48252 0.86786 0.0
C1403 C 0.17814 0.48354 0.84247 0.0
C1404 C 0.19254 0.46899 0.82856 0.0
C1405 C 0.20838 0.4543 0.84003 0.0
C1406 C 0.16472 0.49768 0.88335 0.0
C1407 C 0.19155 0.46935 0.8015 0.0
C1408 C 0.12828 0.50479 0.80789 0.0
C1409 C 0.13439 0.52895 0.80004 0.0
C1410 C 0.1418 0.49034 0.82296 0.0
C1411 C 0.16198 0.50025 0.83018 0.0
C1412 C 0.16757 0.52532 0.82339 0.0
C1413 C 0.15367 0.53935 0.80843 0.0
C1414 C 0.13509 0.46384 0.82982 0.0
C1415 C 0.18886 0.53675 0.83052 0.0
H1416 H 0.1975 0.46753 0.89822 0.0
H1417 H 0.21965 0.44362 0.82934 0.0
H1418 H 0.16729 0.51825 0.88023 0.0
H1419 H 0.14784 0.49345 0.87843 0.0
H1420 H 0.16713 0.49368 0.90274 0.0
H1421 H 0.20336 0.45622 0.79335 0.0
H1422 H 0.17529 0.46395 0.79514 0.0
H1423 H 0.19474 0.48884 0.79489 0.0
H1424 H 0.11343 0.49669 0.80118 0.0
H1425 H 0.15846 0.55793 0.80217 0.0
H1426 H 0.1377 0.46065 0.84929 0.0
H1427 H 0.14506 0.44984 0.82011 0.0
H1428 H 0.11799 0.46013 0.8254 0.0
H1429 H 0.19181 0.53433 0.85003 0.0
H1430 H 0.18977 0.55728 0.82608 0.0
H1431 H 0.2019 0.52675 0.821 0.0
C1432 C 0.53108 0.17297 0.84454 0.0
C1433 C 0.53275 0.17669 0.86947 0.0
C1434 C 0.51216 0.164 0.83377 0.0
C1435 C 0.49408 0.15898 0.8481 0.0
C1436 C 0.49548 0.16279 0.87325 0.0
C1437 C 0.5148 0.17159 0.88365 0.0
C1438 C 0.51144 0.1604 0.80689 0.0
C1439 C 0.47648 0.15791 0.8891 0.0
C1440 C 0.44113 0.16356 0.81426 0.0
C1441 C 0.4362 0.138 0.8095 0.0
C1442 C 0.45934 0.17048 0.82765 0.0
C1443 C 0.47342 0.15146 0.83628 0.0
C1444 C 0.4686 0.12559 0.83173 0.0
C1445 C 0.45005 0.11916 0.81843 0.0
C1446 C 0.46384 0.1983 0.83192 0.0
C1447 C 0.48332 0.10475 0.84042 0.0
H1448 H 0.54455 0.1775 0.83322 0.0
H1449 H 0.51588 0.1743 0.90288 0.0
H1450 H 0.50604 0.14089 0.80243 0.0
H1451 H 0.4997 0.17375 0.79877 0.0
H1452 H 0.52727 0.16365 0.79849 0.0
H1453 H 0.48036 0.16077 0.90839 0.0
H1454 H 0.46316 0.17084 0.88402 0.0
H1455 H 0.47063 0.13821 0.8865 0.0
H1456 H 0.43097 0.17842 0.80699 0.0
H1457 H 0.44639 0.09938 0.81505 0.0
H1458 H 0.47852 0.20394 0.82224 0.0
H1459 H 0.46679 0.20187 0.85128 0.0
H1460 H 0.45043 0.21062 0.82576 0.0
H1461 H 0.49904 0.10642 0.83145 0.0
H1462 H 0.47669 0.08557 0.83676 0.0
H1463 H 0.48627 0.10668 0.85998 0.0
C1464 C 0.78716 0.56092 0.84461 0.0
C1465 C 0.78589 0.56116 0.86968 0.0
C1466 C 0.79988 0.54302 0.83259 0.0
C1467 C 0.81147 0.52457 0.84592 0.0
C1468 C 0.81036 0.52489 0.87133 0.0
C1469 C 0.79757 0.54319 0.88291 0.0
C1470 C 0.8006 0.54363 0.80554 0.0
C1471 C 0.82226 0.50552 0.88626 0.0
C1472 C 0.82481 0.46358 0.81224 0.0
C1473 C 0.84619 0.46754 0.80584 0.0
C1474 C 0.81358 0.48156 0.82591 0.0
C1475 C 0.82388 0.50433 0.83314 0.0
C1476 C 0.84566 0.50819 0.82701 0.0
C1477 C 0.85656 0.48974 0.81342 0.0
C1478 C 0.79047 0.47648 0.83201 0.0
C1479 C 0.85724 0.5322 0.83413 0.0
H1480 H 0.77802 0.5747 0.83437 0.0
H1481 H 0.79625 0.543 0.90227 0.0
H1482 H 0.8174 0.5455 0.79951 0.0
H1483 H 0.79428 0.52555 0.79814 0.0
H1484 H 0.79108 0.55955 0.79788 0.0
H1485 H 0.82061 0.50904 0.9058 0.0
H1486 H 0.81606 0.48625 0.88216 0.0
H1487 H 0.83952 0.50564 0.88172 0.0
H1488 H 0.81674 0.44649 0.80616 0.0
H1489 H 0.87295 0.49305 0.80804 0.0
H1490 H 0.78003 0.49064 0.82295 0.0
H1491 H 0.78803 0.47852 0.8516 0.0
H1492 H 0.78523 0.45719 0.82645 0.0
H1493 H 0.84965 0.5487 0.82506 0.0
H1494 H 0.87446 0.53167 0.82933 0.0
H1495 H 0.85593 0.53535 0.85373 0.0
C1496 C 0.53396 0.88329 0.79074 0.0
C1497 C 0.55326 0.87784 0.8028 0.0
C1498 C 0.51424 0.87387 0.79914 0.0
C1499 C 0.51379 0.85837 0.81995 0.0
C1500 C 0.53305 0.8541 0.83293 0.0
C1501 C 0.5524 0.86408 0.82438 0.0
C1502 C 0.49405 0.87939 0.78501 0.0
C1503 C 0.53346 0.83764 0.8551 0.0
C1504 C 0.46083 0.84144 0.8502 0.0
C1505 C 0.45616 0.81787 0.83976 0.0
C1506 C 0.47938 0.85506 0.84378 0.0
C1507 C 0.49373 0.84462 0.82683 0.0
C1508 C 0.48915 0.82055 0.81664 0.0
C1509 C 0.47035 0.80765 0.82302 0.0
C1510 C 0.48341 0.8808 0.85476 0.0
C1511 C 0.50412 0.8084 0.79888 0.0
H1512 H 0.53433 0.89381 0.77405 0.0
H1513 H 0.56711 0.86025 0.83422 0.0
H1514 H 0.48856 0.86187 0.77582 0.0
H1515 H 0.48105 0.8855 0.79716 0.0
H1516 H 0.49653 0.89435 0.77128 0.0
H1517 H 0.54935 0.8378 0.86423 0.0
H1518 H 0.52117 0.84402 0.86799 0.0
H1519 H 0.52954 0.81779 0.85007 0.0
H1520 H 0.44967 0.84951 0.86287 0.0
H1521 H 0.46662 0.78949 0.81485 0.0
H1522 H 0.48413 0.89537 0.84042 0.0
H1523 H 0.49911 0.88097 0.86422 0.0
H1524 H 0.47076 0.88627 0.86764 0.0
H1525 H 0.50562 0.82066 0.78282 0.0
H1526 H 0.49851 0.78935 0.79304 0.0
H1527 H 0.52034 0.80644 0.80697 0.0
C1528 C 0.11582 0.2159 0.52462 0.0
C1529 C 0.12249 0.22043 0.54827 0.0
C1530 C 0.1282 0.20095 0.50907 0.0
C1531 C 0.14772 0.19011 0.51738 0.0
C1532 C 0.15379 0.19339 0.54177 0.0
C1533 C 0.1411 0.20853 0.55689 0.0
C1534 C 0.12102 0.1981 0.48329 0.0
C1535 C 0.17433 0.1822 0.55159 0.0
C1536 C 0.1741 0.14227 0.47497 0.0
C1537 C 0.18795 0.15803 0.46205 0.0
C1538 C 0.16152 0.15209 0.49379 0.0
C1539 C 0.16283 0.17824 0.49981 0.0
C1540 C 0.1777 0.19379 0.48765 0.0
C1541 C 0.19005 0.18352 0.4691 0.0
C1542 C 0.14614 0.13475 0.50651 0.0
C1543 C 0.17988 0.22168 0.49344 0.0
H1544 H 0.10133 0.22496 0.51802 0.0
H1545 H 0.14628 0.21204 0.57518 0.0
H1546 H 0.13222 0.2085 0.47148 0.0
H1547 H 0.12138 0.17786 0.47788 0.0
H1548 H 0.1046 0.20562 0.48018 0.0
H1549 H 0.17501 0.18291 0.57149 0.0
H1550 H 0.17616 0.16221 0.54571 0.0
H1551 H 0.18816 0.193 0.54455 0.0
H1552 H 0.17234 0.1226 0.46964 0.0
H1553 H 0.20098 0.19575 0.45949 0.0
H1554 H 0.12945 0.13997 0.50157 0.0
H1555 H 0.1478 0.13698 0.52622 0.0
H1556 H 0.14874 0.11451 0.50179 0.0
H1557 H 0.16464 0.23159 0.48911 0.0
H1558 H 0.19296 0.23087 0.48325 0.0
H1559 H 0.18306 0.22434 0.51287 0.0
C1560 C 0.81829 0.17732 0.53779 0.0
C1561 C 0.81976 0.15178 0.54486 0.0
C1562 C 0.83072 0.18707 0.51909 0.0
C1563 C 0.84495 0.17089 0.50671 0.0
C1564 C 0.8456 0.14472 0.5127 0.0
C1565 C 0.83302 0.13545 0.53175 0.0
C1566 C 0.82922 0.21502 0.51326 0.0
C1567 C 0.8601 0.12671 0.49952 0.0
C1568 C 0.8655 0.20163 0.4495 0.0
C1569 C 0.88434 0.21323 0.45781 0.0
C1570 C 0.85326 0.18602 0.46462 0.0
C1571 C 0.85996 0.18211 0.48872 0.0
C1572 C 0.87988 0.1923 0.49652 0.0
C1573 C 0.89186 0.20761 0.48092 0.0
C1574 C 0.83237 0.17544 0.4552 0.0
C1575 C 0.88774 0.18875 0.52198 0.0
H1576 H 0.80772 0.18999 0.54742 0.0
H1577 H 0.83424 0.1157 0.53701 0.0
H1578 H 0.84495 0.22424 0.51663 0.0
H1579 H 0.82524 0.21766 0.49399 0.0
H1580 H 0.81693 0.2249 0.52409 0.0
H1581 H 0.85724 0.10662 0.5046 0.0
H1582 H 0.85773 0.12876 0.47987 0.0
H1583 H 0.87707 0.13145 0.50358 0.0
H1584 H 0.85968 0.20593 0.4316 0.0
H1585 H 0.90655 0.21642 0.48726 0.0
H1586 H 0.81916 0.18855 0.45995 0.0
H1587 H 0.82883 0.15663 0.46315 0.0
H1588 H 0.83256 0.17358 0.43538 0.0
H1589 H 0.87733 0.19965 0.5343 0.0
H1590 H 0.9045 0.19536 0.52448 0.0
H1591 H 0.88678 0.1685 0.52725 0.0
C1592 C 0.80588 0.82825 0.45269 0.0
C1593 C 0.80854 0.8546 0.4507 0.0
C1594 C 0.81836 0.81379 0.46878 0.0
C1595 C 0.8344 0.82579 0.48292 0.0
C1596 C 0.83764 0.85229 0.48043 0.0
C1597 C 0.82429 0.86646 0.46487 0.0
C1598 C 0.81376 0.7858 0.47133 0.0
C1599 C 0.85481 0.86588 0.49467 0.0
C1600 C 0.84873 0.79443 0.54252 0.0
C1601 C 0.86604 0.77877 0.53641 0.0
C1602 C 0.83846 0.80988 0.5254 0.0
C1603 C 0.84637 0.81092 0.5017 0.0
C1604 C 0.86496 0.79677 0.4959 0.0
C1605 C 0.87443 0.78064 0.51323 0.0
C1606 C 0.81851 0.82416 0.53248 0.0
C1607 C 0.87454 0.7982 0.47121 0.0
H1608 H 0.79358 0.81898 0.44197 0.0
H1609 H 0.82575 0.8869 0.46455 0.0
H1610 H 0.82849 0.77459 0.46813 0.0
H1611 H 0.80856 0.7817 0.48991 0.0
H1612 H 0.80107 0.77922 0.45868 0.0
H1613 H 0.85778 0.8853 0.4877 0.0
H1614 H 0.8499 0.86745 0.51366 0.0
H1615 H 0.87005 0.85503 0.4943 0.0
H1616 H 0.84271 0.79414 0.56061 0.0
H1617 H 0.88813 0.76908 0.50855 0.0
H1618 H 0.8048 0.81798 0.52109 0.0
H1619 H 0.82069 0.84478 0.52947 0.0
H1620 H 0.81431 0.82111 0.55157 0.0
H1621 H 0.8635 0.78932 0.45797 0.0
H1622 H 0.89026 0.78839 0.47031 0.0
H1623 H 0.87667 0.81831 0.46582 0.0
C1624 C 0.12519 0.7892 0.4843 0.0
C1625 C 0.13446 0.7816 0.4627 0.0
C1626 C 0.13631 0.80529 0.50034 0.0
C1627 C 0.15726 0.81373 0.49469 0.0
C1628 C 0.16622 0.80684 0.47234 0.0
C1629 C 0.15471 0.79085 0.45669 0.0
C1630 C 0.12607 0.81227 0.52382 0.0
C1631 C 0.18845 0.81522 0.46544 0.0
C1632 C 0.18483 0.86752 0.5293 0.0
C1633 C 0.19808 0.85399 0.54521 0.0
C1634 C 0.17097 0.85475 0.51322 0.0
C1635 C 0.17057 0.82783 0.51284 0.0
C1636 C 0.18377 0.81419 0.52916 0.0
C1637 C 0.19736 0.82742 0.54504 0.0
C1638 C 0.15721 0.87005 0.49617 0.0
C1639 C 0.18401 0.78554 0.52944 0.0
H1640 H 0.10963 0.78172 0.48907 0.0
H1641 H 0.16191 0.78476 0.44008 0.0
H1642 H 0.1348 0.80282 0.53877 0.0
H1643 H 0.12715 0.83303 0.52687 0.0
H1644 H 0.10898 0.80649 0.52446 0.0
H1645 H 0.19232 0.81011 0.44663 0.0
H1646 H 0.19014 0.83604 0.4676 0.0
H1647 H 0.20041 0.80612 0.47752 0.0
H1648 H 0.1858 0.88804 0.52889 0.0
H1649 H 0.20774 0.81694 0.55719 0.0
H1650 H 0.14025 0.86392 0.49735 0.0
H1651 H 0.16241 0.86666 0.47748 0.0
H1652 H 0.15813 0.89072 0.49991 0.0
H1653 H 0.16755 0.77812 0.53188 0.0
H1654 H 0.19446 0.7778 0.54393 0.0
H1655 H 0.18982 0.77832 0.51197 0.0
C1656 C 0.64741 0.98848 0.69563 0.0
C1657 C 0.65625 0.96627 0.70533 0.0
C1658 C 0.66021 0.00583 0.68286 0.0
C1659 C 0.68234 1.00078 0.67963 0.0
C1660 C 0.69111 0.97795 0.68896 0.0
C1661 C 0.67801 0.96114 0.70183 0.0
C1662 C 0.65018 0.02994 0.67342 0.0
C1663 C 0.71449 0.97152 0.68587 0.0
C1664 C 0.71388 0.0362 0.63143 0.0
C1665 C 0.72478 0.05452 0.64505 0.0
C1666 C 0.69983 0.01879 0.64235 0.0
C1667 C 0.69656 0.01977 0.66749 0.0
C1668 C 0.70746 0.0385 0.6812 0.0
C1669 C 0.72152 0.05547 0.66985 0.0
C1670 C 0.68878 0.99905 0.62704 0.0
C1671 C 0.70446 0.04047 0.70796 0.0
H1672 H 0.63064 0.99261 0.69864 0.0
H1673 H 0.68487 0.94404 0.70948 0.0
H1674 H 0.65763 0.04656 0.68243 0.0
H1675 H 0.65322 0.03187 0.65394 0.0
H1676 H 0.63262 0.03055 0.6764 0.0
H1677 H 0.71847 0.95227 0.69272 0.0
H1678 H 0.71884 0.97254 0.66665 0.0
H1679 H 0.72452 0.98559 0.6956 0.0
H1680 H 0.71666 0.03519 0.6123 0.0
H1681 H 0.73002 0.0696 0.68039 0.0
H1682 H 0.67118 1.0003 0.62932 0.0
H1683 H 0.69378 0.97981 0.63291 0.0
H1684 H 0.69249 1.00123 0.60771 0.0
H1685 H 0.68721 0.04253 0.71212 0.0
H1686 H 0.71328 0.05682 0.71586 0.0
H1687 H 0.71017 0.02281 0.71677 0.0
C1688 C 0.97141 0.67233 0.62815 0.0
C1689 C 0.95137 0.66135 0.62298 0.0
C1690 C 0.98804 0.65823 0.63897 0.0
C1691 C 0.98486 0.63226 0.64448 0.0
C1692 C 0.96498 0.62078 0.63862 0.0
C1693 C 0.94847 0.63545 0.62814 0.0
C1694 C 0.00894 0.67133 0.64491 0.0
C1695 C 0.96099 0.59309 0.64383 0.0
C1696 C 0.03656 0.59497 0.65424 0.0
C1697 C 0.03866 0.59514 0.67932 0.0
C1698 C 0.01857 0.6057 0.64271 0.0
C1699 C 0.00239 0.61737 0.65654 0.0
C1700 C 0.00395 0.61652 0.68193 0.0
C1701 C 0.02198 0.60525 0.69301 0.0
C1702 C 0.01743 0.60564 0.61566 0.0
C1703 C 0.98723 0.6289 0.69741 0.0
H1704 H 0.97412 0.69211 0.62389 0.0
H1705 H 0.93306 0.6267 0.62465 0.0
H1706 H 0.01224 0.67003 0.66446 0.0
H1707 H 0.02232 0.66174 0.63561 0.0
H1708 H 0.00884 0.69167 0.63966 0.0
H1709 H 0.94517 0.5866 0.6369 0.0
H1710 H 0.9737 0.58127 0.63569 0.0
H1711 H 0.96163 0.58977 0.66347 0.0
H1712 H 0.04942 0.58717 0.64358 0.0
H1713 H 0.02366 0.60578 0.71237 0.0
H1714 H 0.01963 0.62524 0.60886 0.0
H1715 H 1.00146 0.59904 0.60941 0.0
H1716 H 0.02991 0.59333 0.60765 0.0
H1717 H 0.98768 0.64976 0.69474 0.0
H1718 H 0.9898 0.62482 0.71676 0.0
H1719 H 0.97098 0.62234 0.69212 0.0
C1720 C 0.36708 0.03838 0.67483 0.0
C1721 C 0.35946 0.06301 0.67856 0.0
C1722 C 0.35571 0.02127 0.66014 0.0
C1723 C 0.33625 0.02904 0.649 0.0
C1724 C 0.32964 0.05469 0.65104 0.0
C1725 C 0.34129 0.07134 0.66593 0.0
C1726 C 0.36342 0.99419 0.65855 0.0
C1727 C 0.30921 0.06399 0.63934 0.0
C1728 C 0.30949 0.9802 0.60766 0.0
C1729 C 0.29614 0.96755 0.62383 0.0
C1730 C 0.32202 1.00111 0.61516 0.0
C1731 C 0.32115 0.00941 0.63934 0.0
C1732 C 0.30671 0.99754 0.65525 0.0
C1733 C 0.2944 0.97691 0.64728 0.0
C1734 C 0.33694 0.01348 0.59757 0.0
C1735 C 0.30504 0.00575 0.68114 0.0
H1736 H 0.38101 0.03194 0.68487 0.0
H1737 H 0.33534 0.09037 0.66904 0.0
H1738 H 0.35292 0.98187 0.6695 0.0
H1739 H 0.3625 0.98727 0.63979 0.0
H1740 H 0.38015 0.99207 0.66521 0.0
H1741 H 0.30849 0.08505 0.63873 0.0
H1742 H 0.30759 0.05646 0.62084 0.0
H1743 H 0.29529 0.05708 0.6497 0.0
H1744 H 0.31092 0.973 0.58954 0.0
H1745 H 0.28387 0.96739 0.65975 0.0
H1746 H 0.35371 0.00821 0.60206 0.0
H1747 H 0.33576 0.03445 0.59871 0.0
H1748 H 0.33348 0.0075 0.57883 0.0
H1749 H 0.32052 0.00234 0.69054 0.0
H1750 H 0.29227 0.99538 0.69083 0.0
H1751 H 0.30164 0.02637 0.68221 0.0
C1752 C 0.02274 0.36068 0.62695 0.0
C1753 C 0.02673 0.33455 0.62871 0.0
C1754 C 0.0047 0.3717 0.6378 0.0
C1755 C 0.99067 0.35635 0.65139 0.0
C1756 C 0.99446 0.32984 0.65279 0.0
C1757 C 0.01232 0.31924 0.64123 0.0
C1758 C 1.001 0.39987 0.63527 0.0
C1759 C 0.98019 0.31278 0.66738 0.0
C1760 C 0.9577 0.38523 0.70195 0.0
C1761 C 0.93697 0.38472 0.69209 0.0
C1762 C 0.97543 0.37677 0.68867 0.0
C1763 C 0.97241 0.36797 0.66481 0.0
C1764 C 0.95166 0.36886 0.65436 0.0
C1765 C 0.9342 0.37695 0.66818 0.0
C1766 C 0.99719 0.37592 0.70065 0.0
C1767 C 0.94772 0.36027 0.62888 0.0
H1768 H 0.03404 0.37257 0.6175 0.0
H1769 H 0.01565 0.29913 0.64302 0.0
H1770 H 0.98432 0.40362 0.62917 0.0
H1771 H 0.00312 0.40923 0.65295 0.0
H1772 H 0.0122 0.40873 0.62237 0.0
H1773 H 0.98508 0.29254 0.66635 0.0
H1774 H 0.98065 0.3188 0.68645 0.0
H1775 H 0.96334 0.31445 0.66108 0.0
H1776 H 0.95986 0.39087 0.72051 0.0
H1777 H 0.91818 0.37649 0.66051 0.0
H1778 H 0.00917 0.38587 0.6895 0.0
H1779 H 0.0025 0.35591 0.70243 0.0
H1780 H 0.99713 0.38472 0.71875 0.0
H1781 H 0.95926 0.36948 0.61664 0.0
H1782 H 0.93119 0.36465 0.6226 0.0
H1783 H 0.95025 0.33948 0.62758 0.0
C1784 C 0.69909 0.98518 0.39089 0.0
C1785 C 0.71434 0.97556 0.37499 0.0
C1786 C 0.68554 0.00543 0.38404 0.0
C1787 C 0.6873 0.0161 0.36078 0.0
C1788 C 0.70374 0.00755 0.34543 0.0
C1789 C 0.71703 0.98749 0.35274 0.0
C1790 C 0.66851 0.0143 0.4011 0.0
C1791 C 0.70638 0.01838 0.32055 0.0
C1792 C 0.63969 0.04111 0.32511 0.0
C1793 C 0.64412 0.0671 0.32432 0.0
C1794 C 0.65284 0.02447 0.33832 0.0
C1795 C 0.6708 0.03412 0.35117 0.0
C1796 C 0.67433 0.06069 0.35183 0.0
C1797 C 0.66094 0.07686 0.33832 0.0
C1798 C 0.64841 0.99634 0.33705 0.0
C1799 C 0.69307 0.07192 0.3654 0.0
H1800 H 0.6969 0.97593 0.40805 0.0
H1801 H 0.72893 0.98019 0.34049 0.0
H1802 H 0.66778 0.03533 0.40152 0.0
H1803 H 0.65264 0.00736 0.39484 0.0
H1804 H 0.67137 0.00716 0.4196 0.0
H1805 H 0.72093 0.01102 0.31157 0.0
H1806 H 0.69219 0.01347 0.30935 0.0
H1807 H 0.70739 0.03938 0.3213 0.0
H1808 H 0.62653 0.03367 0.31441 0.0
H1809 H 0.66433 0.09701 0.33768 0.0
H1810 H 0.64859 0.98793 0.35528 0.0
H1811 H 0.66119 0.98688 0.32663 0.0
H1812 H 0.63273 0.99212 0.32836 0.0
H1813 H 0.69485 0.06293 0.3833 0.0
H1814 H 0.69136 0.09276 0.36775 0.0
H1815 H 0.70802 0.06827 0.35539 0.0
C1816 C 0.97842 0.60343 0.31204 0.0
C1817 C 0.96004 0.59556 0.32418 0.0
C1818 C 0.99613 0.61354 0.32463 0.0
C1819 C 0.9956 0.61542 0.35001 0.0
C1820 C 0.97753 0.60608 0.36239 0.0
C1821 C 0.95988 0.59658 0.34932 0.0
C1822 C 0.01493 0.6235 0.31066 0.0
C1823 C 0.97644 0.60709 0.38939 0.0
C1824 C 0.04929 0.62775 0.38117 0.0
C1825 C 0.04861 0.65409 0.3849 0.0
C1826 C 0.03184 0.61473 0.3708 0.0
C1827 C 0.0134 0.62844 0.3634 0.0
C1828 C 0.01237 0.65492 0.36786 0.0
C1829 C 0.0299 0.66737 0.37875 0.0
C1830 C 0.03345 0.58645 0.36699 0.0
C1831 C 0.99317 0.67037 0.36004 0.0
H1832 H 0.97843 0.60308 0.29261 0.0
H1833 H 0.94562 0.59064 0.35873 0.0
H1834 H 0.0163 0.64431 0.3133 0.0
H1835 H 0.03005 0.61485 0.31734 0.0
H1836 H 0.01335 0.6196 0.29115 0.0
H1837 H 0.96238 0.59663 0.3964 0.0
H1838 H 0.99122 0.59896 0.39749 0.0
H1839 H 0.97536 0.62713 0.39535 0.0
H1840 H 0.06377 0.61744 0.38584 0.0
H1841 H 0.02945 0.68777 0.38122 0.0
H1842 H 0.03419 0.58229 0.34752 0.0
H1843 H 0.01901 0.57682 0.37403 0.0
H1844 H 0.04787 0.57822 0.37585 0.0
H1845 H 0.99146 0.66954 0.34023 0.0
H1846 H 0.9945 0.69057 0.36555 0.0
H1847 H 0.97834 0.66233 0.36774 0.0
C1848 C 0.32751 0.95989 0.31338 0.0
C1849 C 0.34898 0.96472 0.30793 0.0
C1850 C 0.31498 0.97789 0.32559 0.0
C1851 C 0.32406 1.00154 0.33234 0.0
C1852 C 0.346 0.00616 0.32745 0.0
C1853 C 0.35819 0.98771 0.31527 0.0
C1854 C 0.29177 0.97191 0.33039 0.0
C1855 C 0.35639 0.03101 0.33424 0.0
C1856 C 0.28545 0.05758 0.33825 0.0
C1857 C 0.28284 0.05936 0.36312 0.0
C1858 C 0.29904 0.03922 0.32809 0.0
C1859 C 0.31024 0.02191 0.34314 0.0
C1860 C 0.30766 0.0237 0.36835 0.0
C1861 C 0.29395 0.04232 0.37802 0.0
C1862 C 0.30119 0.03815 0.30118 0.0
C1863 C 0.31911 0.00563 0.38509 0.0
H1864 H 0.32032 0.94224 0.30744 0.0
H1865 H 0.3747 0.99161 0.31069 0.0
H1866 H 0.28809 0.97518 0.34956 0.0
H1867 H 0.28137 0.98478 0.31969 0.0
H1868 H 0.28762 0.95199 0.32576 0.0
H1869 H 0.37389 0.031 0.33081 0.0
H1870 H 0.34891 0.04664 0.32379 0.0
H1871 H 0.35375 0.03514 0.3535 0.0
H1872 H 0.27673 0.07061 0.32668 0.0
H1873 H 0.29155 0.04319 0.39722 0.0
H1874 H 0.29534 0.01958 0.29443 0.0
H1875 H 0.31828 0.03978 0.29615 0.0
H1876 H 0.29202 0.05348 0.29202 0.0
H1877 H 0.31373 0.98592 0.38148 0.0
H1878 H 0.31614 0.01009 0.40424 0.0
H1879 H 0.33661 0.00626 0.3819 0.0
C1880 C 0.06103 0.35346 0.31506 0.0
C1881 C 0.06514 0.37954 0.31303 0.0
C1882 C 0.04451 0.34429 0.32962 0.0
C1883 C 0.03139 0.36162 0.34219 0.0
C1884 C 0.03601 0.38796 0.34097 0.0
C1885 C 0.05297 0.3966 0.32657 0.0
C1886 C 0.04049 0.31606 0.33065 0.0
C1887 C 0.02228 0.40713 0.35376 0.0
C1888 C 0.97392 0.33983 0.35081 0.0
C1889 C 0.97346 0.333 0.37519 0.0
C1890 C 0.99242 0.34973 0.34022 0.0
C1891 C 0.01141 0.35235 0.35403 0.0
C1892 C 0.01133 0.34514 0.37855 0.0
C1893 C 0.99236 0.33568 0.38887 0.0
C1894 C 0.99164 0.35715 0.31405 0.0
C1895 C 0.03135 0.34721 0.39378 0.0
H1896 H 0.07059 0.3402 0.30484 0.0
H1897 H 0.05607 0.41677 0.325 0.0
H1898 H 0.03866 0.30976 0.3495 0.0
H1899 H 0.02534 0.31153 0.32102 0.0
H1900 H 0.05364 0.305 0.32235 0.0
H1901 H 0.02921 0.42652 0.3531 0.0
H1902 H 0.00613 0.40761 0.34529 0.0
H1903 H 0.02018 0.40162 0.37278 0.0
H1904 H 0.95979 0.33712 0.33968 0.0
H1905 H 0.99231 0.33058 0.40768 0.0
H1906 H 0.00267 0.34494 0.30367 0.0
H1907 H 0.99707 0.37705 0.31186 0.0
H1908 H 0.9753 0.35535 0.30617 0.0
H1909 H 0.04423 0.33536 0.386 0.0
H1910 H 0.02868 0.34106 0.41257 0.0
H1911 H 0.03717 0.36709 0.39391 0.0
C1912 C 0.6966 0.68299 0.9818 0.0
C1913 C 0.69501 0.65774 0.97389 0.0
C1914 C 0.68565 0.69155 0.00217 0.0
C1915 C 0.67266 0.67451 0.01524 0.0
C1916 C 0.67151 0.64876 0.00788 0.0
C1917 C 0.68275 0.64065 0.98735 0.0
C1918 C 0.68762 0.71909 0.00938 0.0
C1919 C 0.65792 0.62994 0.02128 0.0
C1920 C 0.65785 0.6981 0.07771 0.0
C1921 C 0.63805 0.70979 0.07329 0.0
C1922 C 0.6688 0.68528 0.05935 0.0
C1923 C 0.65975 0.68421 0.03593 0.0
C1924 C 0.6392 0.695 0.03178 0.0
C1925 C 0.62864 0.70772 0.0505 0.0
C1926 C 0.6906 0.67417 0.06474 0.0
C1927 C 0.62887 0.69437 0.00722 0.0
H1928 H 0.70634 0.69626 0.97183 0.0
H1929 H 0.68133 0.62115 0.98138 0.0
H1930 H 0.6717 0.72841 0.00817 0.0
H1931 H 0.69316 0.72056 0.02828 0.0
H1932 H 0.69896 0.7297 0.99787 0.0
H1933 H 0.65977 0.61032 0.01432 0.0
H1934 H 0.6622 0.63011 0.04063 0.0
H1935 H 0.64081 0.63546 0.01973 0.0
H1936 H 0.6652 0.69995 0.0953 0.0
H1937 H 0.61342 0.71701 0.04707 0.0
H1938 H 0.70305 0.68566 0.05574 0.0
H1939 H 0.69174 0.65457 0.05762 0.0
H1940 H 0.69422 0.67383 0.08429 0.0
H1941 H 0.63809 0.70657 0.99481 0.0
H1942 H 0.61204 0.70119 0.00748 0.0
H1943 H 0.62912 0.67481 0.99988 0.0
C1944 C 0.31984 0.64051 0.01236 0.0
C1945 C 0.3068 0.65751 0.02497 0.0
C1946 C 0.33098 0.64835 0.99172 0.0
C1947 C 0.32894 0.67371 0.98344 0.0
C1948 C 0.31502 0.69053 0.99553 0.0
C1949 C 0.30417 0.68224 0.01603 0.0
C1950 C 0.34556 0.6298 0.97931 0.0
C1951 C 0.31211 0.71763 0.9873 0.0
C1952 C 0.37269 0.7081 0.94907 0.0
C1953 C 0.36389 0.70901 0.92593 0.0
C1954 C 0.36205 0.69539 0.96768 0.0
C1955 C 0.34207 0.68341 0.96302 0.0
C1956 C 0.33369 0.68333 0.93929 0.0
C1957 C 0.3447 0.69621 0.92104 0.0
C1958 C 0.37161 0.69601 0.99263 0.0
C1959 C 0.31252 0.67089 0.93339 0.0
H1960 H 0.32201 0.62142 0.01919 0.0
H1961 H 0.29385 0.69537 0.02543 0.0
H1962 H 0.342 0.62937 0.95979 0.0
H1963 H 0.36245 0.63602 0.98153 0.0
H1964 H 0.34402 0.61028 0.9866 0.0
H1965 H 0.29993 0.72794 0.99796 0.0
H1966 H 0.32755 0.72794 0.98887 0.0
H1967 H 0.30717 0.71811 0.96815 0.0
H1968 H 0.38748 0.7182 0.95278 0.0
H1969 H 0.33787 0.69714 0.90311 0.0
H1970 H 0.37197 0.67665 1.00043 0.0
H1971 H 0.36149 0.70794 0.00437 0.0
H1972 H 0.38814 0.70382 0.99284 0.0
H1973 H 0.31193 0.65147 0.94103 0.0
H1974 H 0.30955 0.66976 0.91374 0.0
H1975 H 0.29935 0.68194 0.94158 0.0
C1976 C 0.32958 0.3876 0.97703 0.0
C1977 C 0.31848 0.3715 0.9612 0.0
C1978 C 0.34146 0.37763 0.99658 0.0
C1979 C 0.34209 0.351 1.00044 0.0
C1980 C 0.33007 0.33489 0.98508 0.0
C1981 C 0.3185 0.3453 0.96575 0.0
C1982 C 0.35397 0.39546 0.01255 0.0
C1983 C 0.32995 0.30645 0.98856 0.0
C1984 C 0.38819 0.31519 0.03005 0.0
C1985 C 0.37914 0.30803 0.05188 0.0
C1986 C 0.37693 0.33089 0.01386 0.0
C1987 C 0.35602 0.33944 0.01958 0.0
C1988 C 0.34749 0.33357 0.04239 0.0
C1989 C 0.35918 0.31792 0.05825 0.0
C1990 C 0.38677 0.3367 0.98987 0.0
C1991 C 0.32534 0.34212 0.04938 0.0
H1992 H 0.32966 0.40784 0.97357 0.0
H1993 H 0.30971 0.33278 0.95377 0.0
H1994 H 0.35041 0.39165 0.03166 0.0
H1995 H 0.37137 0.39223 0.01009 0.0
H1996 H 0.35036 0.41568 0.00857 0.0
H1997 H 0.31899 0.29669 0.97576 0.0
H1998 H 0.34635 0.29881 0.98612 0.0
H1999 H 0.32499 0.30171 0.00708 0.0
H2000 H 0.40358 0.30733 0.02509 0.0
H2001 H 0.35216 0.31222 0.07509 0.0
H2002 H 0.38498 0.35714 0.98551 0.0
H2003 H 0.37828 0.32578 0.97566 0.0
H2004 H 0.40404 0.33166 0.98941 0.0
H2005 H 0.32283 0.36236 0.0447 0.0
H2006 H 0.32246 0.33954 0.06886 0.0
H2007 H 0.31324 0.33087 0.0393 0.0
C2008 C 0.68128 0.36832 0.02615 0.0
C2009 C 0.69471 0.35158 0.03881 0.0
C2010 C 0.66764 0.35944 0.00761 0.0
C2011 C 0.66752 0.33327 1.00161 0.0
C2012 C 0.68195 0.31665 0.0135 0.0
C2013 C 0.69531 0.32599 0.03185 0.0
C2014 C 0.65273 0.37783 0.99517 0.0
C2015 C 0.68264 0.28869 0.00759 0.0
C2016 C 0.61882 0.2978 0.97763 0.0
C2017 C 0.62499 0.29247 0.95411 0.0
C2018 C 0.63184 0.31264 0.99284 0.0
C2019 C 0.65146 0.32252 0.98424 0.0
C2020 C 0.65684 0.31883 0.95984 0.0
C2021 C 0.64355 0.30377 0.94509 0.0
C2022 C 0.62534 0.31611 0.01863 0.0
C2023 C 0.6774 0.32911 0.94971 0.0
H2024 H 0.68071 0.38809 0.03147 0.0
H2025 H 0.7059 0.31303 0.04132 0.0
H2026 H 0.65371 0.37557 0.97543 0.0
H2027 H 0.63598 0.3737 1.00033 0.0
H2028 H 0.65641 0.39785 0.99989 0.0
H2029 H 0.69548 0.27855 0.01766 0.0
H2030 H 0.66704 0.2798 0.01196 0.0
H2031 H 0.68528 0.28595 0.98812 0.0
H2032 H 0.60435 0.28921 0.98451 0.0
H2033 H 0.64833 0.29964 0.92689 0.0
H2034 H 0.62694 0.33628 0.02403 0.0
H2035 H 0.63615 0.30482 0.03041 0.0
H2036 H 0.6086 0.3099 0.02177 0.0
H2037 H 0.68066 0.34855 0.95644 0.0
H2038 H 0.67697 0.32951 0.92979 0.0
H2039 H 0.69093 0.31683 0.9555 0.0
C2040 C 0.19091 0.31267 0.26383 0.0
C2041 C 0.16848 0.31374 0.26332 0.0
C2042 C 0.20169 0.29152 0.27338 0.0
C2043 C 0.1897 0.27071 0.28208 0.0
C2044 C 0.16706 0.27097 0.27991 0.0
C2045 C 0.15669 0.29271 0.27096 0.0
C2046 C 0.22578 0.29232 0.27582 0.0
C2047 C 0.15369 0.2489 0.28834 0.0
C2048 C 0.21762 0.20851 0.29789 0.0
C2049 C 0.21831 0.20982 0.32299 0.0
C2050 C 0.20863 0.2283 0.28419 0.0
C2051 C 0.20054 0.25009 0.29592 0.0
C2052 C 0.20191 0.25181 0.32124 0.0
C2053 C 0.21032 0.23142 0.33448 0.0
C2054 C 0.2069 0.22538 0.25733 0.0
C2055 C 0.19391 0.27491 0.33447 0.0
H2056 H 0.19998 0.3291 0.2581 0.0
H2057 H 0.13934 0.2937 0.27096 0.0
H2058 H 0.23023 0.29425 0.29504 0.0
H2059 H 0.23299 0.27442 0.26926 0.0
H2060 H 0.23284 0.30846 0.26582 0.0
H2061 H 0.13679 0.25039 0.2821 0.0
H2062 H 0.16047 0.23071 0.28184 0.0
H2063 H 0.15386 0.24826 0.30822 0.0
H2064 H 0.22338 0.19151 0.28908 0.0
H2065 H 0.21009 0.23208 0.3539 0.0
H2066 H 0.21375 0.24218 0.24821 0.0
H2067 H 0.18977 0.22422 0.25197 0.0
H2068 H 0.21522 0.20809 0.25084 0.0
H2069 H 0.2008 0.29242 0.32662 0.0
H2070 H 0.19806 0.27432 0.35387 0.0
H2071 H 0.17624 0.27625 0.33258 0.0
C2072 C 0.806 0.18667 0.38929 0.0
C2073 C 0.80529 0.21307 0.39251 0.0
C2074 C 0.78805 0.17326 0.38088 0.0
C2075 C 0.76892 0.18658 0.37556 0.0
C2076 C 0.76763 0.21293 0.38041 0.0
C2077 C 0.78586 0.22588 0.38884 0.0
C2078 C 0.79004 0.14515 0.37617 0.0
C2079 C 0.74744 0.22778 0.37516 0.0
C2080 C 0.73315 0.16325 0.32485 0.0
C2081 C 0.71599 0.15253 0.33732 0.0
C2082 C 0.7507 0.17379 0.33714 0.0
C2083 C 0.75112 0.17365 0.36254 0.0
C2084 C 0.73424 0.16202 0.37524 0.0
C2085 C 0.71686 0.15158 0.36247 0.0
C2086 C 0.76844 0.18592 0.32291 0.0
C2087 C 0.73418 0.16139 0.4023 0.0
H2088 H 0.82091 0.17661 0.3924 0.0
H2089 H 0.78522 0.24629 0.39112 0.0
H2090 H 0.77605 0.1348 0.38342 0.0
H2091 H 0.7903 0.14176 0.35654 0.0
H2092 H 0.8049 0.13706 0.3842 0.0
H2093 H 0.74824 0.2474 0.38241 0.0
H2094 H 0.74484 0.2289 0.35548 0.0
H2095 H 0.73334 0.21807 0.38288 0.0
H2096 H 0.73243 0.16442 0.30546 0.0
H2097 H 0.70371 0.14312 0.37218 0.0
H2098 H 0.78413 0.17763 0.32817 0.0
H2099 H 0.76915 0.20653 0.3269 0.0
H2100 H 0.76615 0.18345 0.30327 0.0
H2101 H 0.74949 0.15348 0.40926 0.0
H2102 H 0.72074 0.14992 0.40941 0.0
H2103 H 0.73278 0.181 0.40935 0.0
C2104 C 0.82265 0.6708 0.28902 0.0
C2105 C 0.84459 0.66599 0.29164 0.0
C2106 C 0.81306 0.69113 0.30114 0.0
C2107 C 0.82582 0.70686 0.3161 0.0
C2108 C 0.84806 0.70213 0.31855 0.0
C2109 C 0.85713 0.68153 0.30647 0.0
C2110 C 0.78927 0.69549 0.29829 0.0
C2111 C 0.86224 0.71866 0.33411 0.0
C2112 C 0.80818 0.77367 0.33076 0.0
C2113 C 0.80178 0.77128 0.35472 0.0
C2114 C 0.81549 0.75271 0.3178 0.0
C2115 C 0.81616 0.72865 0.32894 0.0
C2116 C 0.80889 0.72583 0.35279 0.0
C2117 C 0.80178 0.74724 0.36545 0.0
C2118 C 0.8231 0.7565 0.29241 0.0
C2119 C 0.80917 0.70033 0.36511 0.0
H2120 H 0.81299 0.65828 0.27791 0.0
H2121 H 0.874 0.67723 0.30895 0.0
H2122 H 0.78141 0.69387 0.31598 0.0
H2123 H 0.78618 0.71497 0.29156 0.0
H2124 H 0.7817 0.68171 0.28574 0.0
H2125 H 0.87929 0.71264 0.3337 0.0
H2126 H 0.86119 0.73868 0.32805 0.0
H2127 H 0.8567 0.71804 0.35293 0.0
H2128 H 0.80758 0.79208 0.32211 0.0
H2129 H 0.79676 0.7453 0.38391 0.0
H2130 H 0.81454 0.74342 0.28005 0.0
H2131 H 0.84043 0.75195 0.29136 0.0
H2132 H 0.82064 0.77627 0.28603 0.0
H2133 H 0.80086 0.68597 0.35384 0.0
H2134 H 0.80142 0.70095 0.38295 0.0
H2135 H 0.82597 0.69386 0.36756 0.0
C2136 C 0.26287 0.86378 0.30936 0.0
C2137 C 0.27993 0.87558 0.3215 0.0
C2138 C 0.2467 0.85116 0.32202 0.0
C2139 C 0.24782 0.84996 0.34738 0.0
C2140 C 0.26429 0.86307 0.35978 0.0
C2141 C 0.27995 0.87602 0.3467 0.0
C2142 C 0.22905 0.83796 0.30816 0.0
C2143 C 0.26619 0.86209 0.38677 0.0
C2144 C 0.19829 0.82763 0.38031 0.0
C2145 C 0.20192 0.80135 0.38192 0.0
C2146 C 0.21323 0.8438 0.36952 0.0
C2147 C 0.23258 0.8336 0.36075 0.0
C2148 C 0.23702 0.80742 0.36381 0.0
C2149 C 0.22156 0.79157 0.37415 0.0
C2150 C 0.20779 0.87154 0.36642 0.0
C2151 C 0.25774 0.79593 0.35524 0.0
H2152 H 0.26274 0.86313 0.28994 0.0
H2153 H 0.29282 0.88557 0.35625 0.0
H2154 H 0.23099 0.8171 0.30983 0.0
H2155 H 0.21319 0.84293 0.31566 0.0
H2156 H 0.22912 0.84299 0.28882 0.0
H2157 H 0.27874 0.87513 0.39378 0.0
H2158 H 0.25071 0.86703 0.39518 0.0
H2159 H 0.27027 0.84248 0.39244 0.0
H2160 H 0.18339 0.83551 0.38678 0.0
H2161 H 0.22451 0.77133 0.3751 0.0
H2162 H 0.20591 0.87588 0.34704 0.0
H2163 H 0.22097 0.88363 0.37342 0.0
H2164 H 0.19275 0.87682 0.37566 0.0
H2165 H 0.25832 0.79676 0.33538 0.0
H2166 H 0.25957 0.77583 0.3609 0.0
H2167 H 0.27159 0.80693 0.36226 0.0
C2168 C 0.15252 0.66155 0.66903 0.0
C2169 C 0.15624 0.65969 0.6938 0.0
C2170 C 0.16117 0.68153 0.65569 0.0
C2171 C 0.17258 0.70103 0.66767 0.0
C2172 C 0.1755 0.69987 0.69289 0.0
C2173 C 0.16761 0.67892 0.70562 0.0
C2174 C 0.15835 0.68156 0.62876 0.0
C2175 C 0.18671 0.72088 0.70645 0.0
C2176 C 0.2108 0.74463 0.63479 0.0
C2177 C 0.19777 0.76583 0.63004 0.0
C2178 C 0.20258 0.72299 0.64615 0.0
C2179 C 0.18106 0.7229 0.65388 0.0
C2180 C 0.16768 0.7439 0.64875 0.0
C2181 C 0.17602 0.76473 0.6363 0.0
C2182 C 0.2171 0.70048 0.65041 0.0
C2183 C 0.14479 0.74485 0.65726 0.0
H2184 H 0.14311 0.64707 0.66002 0.0
H2185 H 0.17008 0.67765 0.72485 0.0
H2186 H 0.14855 0.69808 0.62308 0.0
H2187 H 0.17417 0.68341 0.62002 0.0
H2188 H 0.15046 0.664 0.6221 0.0
H2189 H 0.18669 0.7177 0.72615 0.0
H2190 H 0.20355 0.72248 0.7005 0.0
H2191 H 0.17879 0.73931 0.70257 0.0
H2192 H 0.22766 0.74514 0.63042 0.0
H2193 H 0.16551 0.78049 0.63208 0.0
H2194 H 0.20911 0.68275 0.64438 0.0
H2195 H 0.22052 0.69849 0.66986 0.0
H2196 H 0.23257 0.70237 0.64089 0.0
H2197 H 0.13546 0.72895 0.64943 0.0
H2198 H 0.1367 0.76294 0.65242 0.0
H2199 H 0.14442 0.74263 0.67704 0.0
C2200 C 0.29284 0.18221 0.65497 0.0
C2201 C 0.29181 0.15631 0.66081 0.0
C2202 C 0.2757 0.19447 0.64346 0.0
C2203 C 0.25694 0.1806 0.6378 0.0
C2204 C 0.25629 0.15414 0.64225 0.0
C2205 C 0.27374 0.14229 0.65375 0.0
C2206 C 0.27707 0.22272 0.63912 0.0
C2207 C 0.2366 0.13867 0.63634 0.0
C2208 C 0.20489 0.21667 0.64351 0.0
C2209 C 0.19932 0.22141 0.61953 0.0
C2210 C 0.22353 0.20335 0.64953 0.0
C2211 C 0.23703 0.19447 0.6311 0.0
C2212 C 0.23169 0.19948 0.60679 0.0
C2213 C 0.21287 0.21308 0.60126 0.0
C2214 C 0.22873 0.19875 0.67571 0.0
C2215 C 0.24574 0.1903 0.58671 0.0
H2216 H 0.30657 0.19334 0.66062 0.0
H2217 H 0.27298 0.1222 0.65784 0.0
H2218 H 0.27106 0.22756 0.62091 0.0
H2219 H 0.26682 0.23279 0.6522 0.0
H2220 H 0.29371 0.22993 0.64113 0.0
H2221 H 0.23975 0.11795 0.63752 0.0
H2222 H 0.22369 0.14349 0.6491 0.0
H2223 H 0.23059 0.14319 0.61805 0.0
H2224 H 0.19454 0.22344 0.65765 0.0
H2225 H 0.20849 0.21669 0.58272 0.0
H2226 H 0.24444 0.20735 0.68036 0.0
H2227 H 0.22999 0.17807 0.67921 0.0
H2228 H 0.21643 0.20681 0.68779 0.0
H2229 H 0.262 0.19858 0.58863 0.0
H2230 H 0.23917 0.19542 0.56877 0.0
H2231 H 0.24752 0.16938 0.58768 0.0
C2232 C 0.78581 0.19948 0.71101 0.0
C2233 C 0.78519 0.20296 0.68609 0.0
C2234 C 0.7935 0.21868 0.72634 0.0
C2235 C 0.80019 0.2421 0.71648 0.0
C2236 C 0.79862 0.24606 0.69139 0.0
C2237 C 0.79174 0.2262 0.67647 0.0
C2238 C 0.79563 0.21333 0.75284 0.0
C2239 C 0.80498 0.27099 0.68014 0.0
C2240 C 0.80823 0.30266 0.7522 0.0
C2241 C 0.83051 0.3055 0.75094 0.0
C2242 C 0.79801 0.28124 0.7424 0.0
C2243 C 0.8105 0.26191 0.73177 0.0
C2244 C 0.83315 0.26358 0.73268 0.0
C2245 C 0.84286 0.28566 0.74168 0.0
C2246 C 0.77386 0.28061 0.74133 0.0
C2247 C 0.84712 0.24297 0.72238 0.0
H2248 H 0.78117 0.18127 0.71838 0.0
H2249 H 0.79218 0.22861 0.65719 0.0
H2250 H 0.81286 0.21156 0.75765 0.0
H2251 H 0.78905 0.22922 0.76352 0.0
H2252 H 0.78737 0.19552 0.75802 0.0
H2253 H 0.80045 0.27197 0.66085 0.0
H2254 H 0.79727 0.28702 0.68965 0.0
H2255 H 0.82257 0.27358 0.68175 0.0
H2256 H 0.79868 0.31821 0.75905 0.0
H2257 H 0.86002 0.28803 0.73999 0.0
H2258 H 0.7677 0.26142 0.74558 0.0
H2259 H 0.76845 0.28532 0.72284 0.0
H2260 H 0.76662 0.29451 0.75386 0.0
H2261 H 0.86404 0.24481 0.72849 0.0
H2262 H 0.84672 0.24409 0.70252 0.0
H2263 H 0.84112 0.22394 0.72755 0.0
C2264 C 0.79819 0.80989 0.63509 0.0
C2265 C 0.78986 0.78552 0.63125 0.0
C2266 C 0.78623 0.82846 0.64705 0.0
C2267 C 0.7653 0.82259 0.6548 0.0
C2268 C 0.75661 0.79817 0.65031 0.0
C2269 C 0.76916 0.77977 0.63888 0.0
C2270 C 0.79624 0.85401 0.65207 0.0
C2271 C 0.73416 0.79139 0.65782 0.0
C2272 C 0.73719 0.8569 0.70528 0.0
C2273 C 0.72273 0.87225 0.69248 0.0
C2274 C 0.75217 0.84179 0.69325 0.0
C2275 C 0.75242 0.84178 0.66786 0.0
C2276 C 0.73892 0.85858 0.65495 0.0
C2277 C 0.72444 0.87387 0.66745 0.0
C2278 C 0.76671 0.82459 0.70769 0.0
C2279 C 0.73857 0.85902 0.62787 0.0
H2280 H 0.8144 0.81411 0.62952 0.0
H2281 H 0.76283 0.76085 0.63593 0.0
H2282 H 0.78599 0.86939 0.64471 0.0
H2283 H 0.79747 0.85702 0.67172 0.0
H2284 H 0.81248 0.85576 0.64428 0.0
H2285 H 0.72942 0.77206 0.65186 0.0
H2286 H 0.73292 0.79231 0.67763 0.0
H2287 H 0.72256 0.80527 0.65026 0.0
H2288 H 0.73589 0.85535 0.72459 0.0
H2289 H 0.71355 0.88607 0.6575 0.0
H2290 H 0.78337 0.82565 0.70101 0.0
H2291 H 0.76129 0.80465 0.7057 0.0
H2292 H 0.76673 0.82947 0.72707 0.0
H2293 H 0.75503 0.86084 0.62078 0.0
H2294 H 0.72865 0.87481 0.62063 0.0
H2295 H 0.73193 0.84084 0.62106 0.0
C2296 C 0.28867 0.13668 0.254 0.0
C2297 C 0.28771 0.15086 0.27524 0.0
C2298 C 0.29851 0.14665 0.23344 0.0
C2299 C 0.30759 0.1713 0.23426 0.0
C2300 C 0.30612 0.18588 0.25545 0.0
C2301 C 0.29609 0.17558 0.27555 0.0
C2302 C 0.29957 0.13068 0.21103 0.0
C2303 C 0.31558 0.21223 0.2571 0.0
C2304 C 0.35342 0.18912 0.19341 0.0
C2305 C 0.34319 0.2052 0.17693 0.0
C2306 C 0.3419 0.17747 0.21184 0.0
C2307 C 0.31954 0.18163 0.21348 0.0
C2308 C 0.30903 0.19718 0.19629 0.0
C2309 C 0.32104 0.20884 0.17818 0.0
C2310 C 0.35374 0.16121 0.22989 0.0
C2311 C 0.28519 0.20182 0.19727 0.0
H2312 H 0.28218 0.11761 0.25363 0.0
H2313 H 0.29484 0.18698 0.29166 0.0
H2314 H 0.29315 0.14145 0.19545 0.0
H2315 H 0.31651 0.12601 0.2071 0.0
H2316 H 0.29044 0.11269 0.21275 0.0
H2317 H 0.3127 0.22126 0.27477 0.0
H2318 H 0.33312 0.21135 0.25416 0.0
H2319 H 0.30865 0.22454 0.24288 0.0
H2320 H 0.37049 0.18579 0.1919 0.0
H2321 H 0.31316 0.22087 0.16501 0.0
H2322 H 0.34639 0.14207 0.23075 0.0
H2323 H 0.35246 0.16977 0.248 0.0
H2324 H 0.37097 0.1591 0.22554 0.0
H2325 H 0.27648 0.18349 0.19787 0.0
H2326 H 0.27925 0.21292 0.18163 0.0
H2327 H 0.28124 0.21233 0.21388 0.0
C2328 C 0.83483 0.30355 0.31807 0.0
C2329 C 0.84722 0.3186 0.33354 0.0
C2330 C 0.82478 0.31409 0.29775 0.0
C2331 C 0.82652 0.34051 0.29337 0.0
C2332 C 0.83845 0.35591 0.30942 0.0
C2333 C 0.84927 0.34461 0.32881 0.0
C2334 C 0.81302 0.29682 0.28051 0.0
C2335 C 0.84004 0.38426 0.30596 0.0
C2336 C 0.82054 0.36384 0.22929 0.0
C2337 C 0.79855 0.36943 0.22774 0.0
C2338 C 0.82978 0.35433 0.25047 0.0
C2339 C 0.81705 0.3517 0.27116 0.0
C2340 C 0.79525 0.35906 0.27035 0.0
C2341 C 0.78615 0.3673 0.24856 0.0
C2342 C 0.85297 0.34611 0.25035 0.0
C2343 C 0.78139 0.35761 0.29234 0.0
H2344 H 0.8336 0.28335 0.32151 0.0
H2345 H 0.85949 0.35615 0.34023 0.0
H2346 H 0.7961 0.30293 0.27854 0.0
H2347 H 0.8204 0.29806 0.26252 0.0
H2348 H 0.8133 0.2767 0.28644 0.0
H2349 H 0.84726 0.39386 0.32183 0.0
H2350 H 0.85005 0.3885 0.29015 0.0
H2351 H 0.82394 0.39249 0.30249 0.0
H2352 H 0.83057 0.36622 0.21371 0.0
H2353 H 0.76913 0.37123 0.24778 0.0
H2354 H 0.85422 0.32586 0.25568 0.0
H2355 H 0.86235 0.35728 0.26361 0.0
H2356 H 0.86042 0.34845 0.23248 0.0
H2357 H 0.77837 0.33747 0.29696 0.0
H2358 H 0.7657 0.36718 0.28958 0.0
H2359 H 0.78968 0.36646 0.30792 0.0
C2360 C 0.66609 0.78354 0.23941 0.0
C2361 C 0.6746 0.77438 0.21795 0.0
C2362 C 0.67954 0.79168 0.25817 0.0
C2363 C 0.70203 0.7917 0.25498 0.0
C2364 C 0.71073 0.78181 0.23356 0.0
C2365 C 0.69688 0.77308 0.21535 0.0
C2366 C 0.66959 0.80159 0.2809 0.0
C2367 C 0.73455 0.78205 0.22919 0.0
C2368 C 0.72885 0.84397 0.29094 0.0
C2369 C 0.73735 0.83055 0.31048 0.0
C2370 C 0.71862 0.83128 0.27193 0.0
C2371 C 0.71603 0.80459 0.273 0.0
C2372 C 0.7251 0.79085 0.29243 0.0
C2373 C 0.7358 0.80403 0.31089 0.0
C2374 C 0.70961 0.84662 0.2513 0.0
C2375 C 0.72234 0.7625 0.29452 0.0
H2376 H 0.64888 0.78544 0.24113 0.0
H2377 H 0.70341 0.76645 0.19852 0.0
H2378 H 0.67777 0.79339 0.29687 0.0
H2379 H 0.67154 0.82249 0.28181 0.0
H2380 H 0.65223 0.79712 0.28185 0.0
H2381 H 0.7389 0.77094 0.21302 0.0
H2382 H 0.73996 0.80192 0.22666 0.0
H2383 H 0.74341 0.77429 0.24488 0.0
H2384 H 0.72939 0.86453 0.29098 0.0
H2385 H 0.74206 0.79375 0.32629 0.0
H2386 H 0.69187 0.84678 0.25217 0.0
H2387 H 0.71407 0.83793 0.23393 0.0
H2388 H 0.71537 0.86656 0.25162 0.0
H2389 H 0.70533 0.75816 0.2984 0.0
H2390 H 0.73249 0.75431 0.30905 0.0
H2391 H 0.72633 0.753 0.27738 0.0
C2392 C 0.21698 0.63987 0.24011 0.0
C2393 C 0.21663 0.65476 0.21928 0.0
C2394 C 0.20777 0.64876 0.26144 0.0
C2395 C 0.19794 0.673 0.26182 0.0
C2396 C 0.1981 0.68835 0.24104 0.0
C2397 C 0.20757 0.67913 0.22013 0.0
C2398 C 0.20811 0.632 0.28338 0.0
C2399 C 0.18778 0.71429 0.2407 0.0
C2400 C 0.15364 0.68502 0.30648 0.0
C2401 C 0.16412 0.70008 0.3236 0.0
C2402 C 0.16449 0.67611 0.28628 0.0
C2403 C 0.18647 0.68192 0.28349 0.0
C2404 C 0.1972 0.69687 0.30097 0.0
C2405 C 0.18584 0.70582 0.32087 0.0
C2406 C 0.15243 0.66045 0.26793 0.0
C2407 C 0.22068 0.7032 0.29875 0.0
H2408 H 0.22397 0.62105 0.23958 0.0
H2409 H 0.20779 0.69105 0.2043 0.0
H2410 H 0.2148 0.64252 0.29897 0.0
H2411 H 0.19151 0.62642 0.28799 0.0
H2412 H 0.21772 0.61451 0.28067 0.0
H2413 H 0.18983 0.72413 0.22325 0.0
H2414 H 0.17039 0.71248 0.24425 0.0
H2415 H 0.19474 0.72634 0.25509 0.0
H2416 H 0.13699 0.67998 0.3091 0.0
H2417 H 0.19395 0.71701 0.33451 0.0
H2418 H 0.16003 0.64153 0.26613 0.0
H2419 H 0.15315 0.6698 0.25012 0.0
H2420 H 0.13535 0.65777 0.27272 0.0
H2421 H 0.23022 0.68546 0.29777 0.0
H2422 H 0.2267 0.71472 0.31407 0.0
H2423 H 0.22348 0.71384 0.28192 0.0
C2424 C 0.3424 0.77512 0.7556 0.0
C2425 C 0.33359 0.76741 0.7774 0.0
C2426 C 0.3292 0.78271 0.7364 0.0
C2427 C 0.3067 0.78372 0.73948 0.0
C2428 C 0.29769 0.77504 0.76119 0.0
C2429 C 0.31127 0.76676 0.77983 0.0
C2430 C 0.33945 0.79123 0.71335 0.0
C2431 C 0.27389 0.77638 0.76549 0.0
C2432 C 0.28121 0.83627 0.70265 0.0
C2433 C 0.27175 0.82276 0.68371 0.0
C2434 C 0.29142 0.82361 0.72168 0.0
C2435 C 0.29312 0.7968 0.72119 0.0
C2436 C 0.28329 0.78301 0.70226 0.0
C2437 C 0.27252 0.79619 0.68384 0.0
C2438 C 0.30122 0.83905 0.7418 0.0
C2439 C 0.28521 0.75451 0.70072 0.0
H2440 H 0.35964 0.77655 0.75395 0.0
H2441 H 0.30451 0.76123 0.7969 0.0
H2442 H 0.33083 0.78311 0.69764 0.0
H2443 H 0.33847 0.81219 0.7119 0.0
H2444 H 0.35657 0.7856 0.71246 0.0
H2445 H 0.26918 0.76576 0.78182 0.0
H2446 H 0.2691 0.79652 0.76771 0.0
H2447 H 0.2648 0.76875 0.74991 0.0
H2448 H 0.28131 0.85683 0.70217 0.0
H2449 H 0.26556 0.78581 0.66889 0.0
H2450 H 0.31894 0.83818 0.74078 0.0
H2451 H 0.29656 0.83114 0.75944 0.0
H2452 H 0.29625 0.85928 0.74102 0.0
H2453 H 0.30209 0.74935 0.69697 0.0
H2454 H 0.27483 0.74643 0.68635 0.0
H2455 H 0.28094 0.74559 0.71804 0.0
C2456 C 0.20613 0.34338 0.7767 0.0
C2457 C 0.21146 0.36925 0.77791 0.0
C2458 C 0.19541 0.33323 0.75672 0.0
C2459 C 0.19022 0.34918 0.73712 0.0
C2460 C 0.19624 0.37511 0.73775 0.0
C2461 C 0.20672 0.38489 0.75822 0.0
C2462 C 0.18922 0.30552 0.75685 0.0
C2463 C 0.19128 0.3926 0.717 0.0
C2464 C 0.17598 0.31554 0.67876 0.0
C2465 C 0.15357 0.31624 0.67919 0.0
C2466 C 0.18819 0.32679 0.69718 0.0
C2467 C 0.17766 0.33878 0.71653 0.0
C2468 C 0.15499 0.33975 0.71681 0.0
C2469 C 0.14323 0.32881 0.69792 0.0
C2470 C 0.21232 0.3258 0.696 0.0
C2471 C 0.14314 0.35204 0.73724 0.0
H2472 H 0.2103 0.33095 0.79151 0.0
H2473 H 0.21078 0.40487 0.75899 0.0
H2474 H 0.17154 0.30371 0.75546 0.0
H2475 H 0.1961 0.29573 0.74109 0.0
H2476 H 0.19476 0.2956 0.77335 0.0
H2477 H 0.19844 0.41173 0.71951 0.0
H2478 H 0.19736 0.38436 0.70007 0.0
H2479 H 0.17369 0.39473 0.71492 0.0
H2480 H 0.18389 0.30629 0.6639 0.0
H2481 H 0.1259 0.33007 0.69776 0.0
H2482 H 0.21879 0.31479 0.7114 0.0
H2483 H 0.21904 0.34524 0.69733 0.0
H2484 H 0.21801 0.31693 0.67914 0.0
H2485 H 0.14731 0.34235 0.75433 0.0
H2486 H 0.12549 0.3513 0.73467 0.0
H2487 H 0.14806 0.37217 0.7391 0.0
C2488 C 0.71095 0.1684 0.7313 0.0
C2489 C 0.71908 0.14356 0.7312 0.0
C2490 C 0.70058 0.17823 0.75138 0.0
C2491 C 0.69849 0.16299 0.77208 0.0
C2492 C 0.70744 0.13827 0.77254 0.0
C2493 C 0.71765 0.1288 0.75202 0.0
C2494 C 0.69129 0.20469 0.75014 0.0
C2495 C 0.70571 0.12162 0.79445 0.0
C2496 C 0.68262 0.1982 0.82864 0.0
C2497 C 0.66047 0.19426 0.82865 0.0
C2498 C 0.69541 0.18746 0.81071 0.0
C2499 C 0.68568 0.17253 0.7925 0.0
C2500 C 0.66331 0.16813 0.79285 0.0
C2501 C 0.65099 0.17886 0.8111 0.0
C2502 C 0.71923 0.19236 0.81106 0.0
C2503 C 0.6523 0.15252 0.77365 0.0
H2504 H 0.71257 0.18018 0.71548 0.0
H2505 H 0.72399 0.10964 0.75204 0.0
H2506 H 0.67362 0.20377 0.752 0.0
H2507 H 0.69755 0.21639 0.76517 0.0
H2508 H 0.69502 0.2144 0.73301 0.0
H2509 H 0.71509 0.10381 0.79269 0.0
H2510 H 0.71141 0.13199 0.8106 0.0
H2511 H 0.68868 0.1166 0.79742 0.0
H2512 H 0.68986 0.20973 0.84263 0.0
H2513 H 0.63389 0.17534 0.81165 0.0
H2514 H 0.72378 0.20336 0.79494 0.0
H2515 H 0.7281 0.17412 0.81046 0.0
H2516 H 0.72444 0.20306 0.82726 0.0
H2517 H 0.65436 0.16173 0.75593 0.0
H2518 H 0.63489 0.15025 0.77698 0.0
H2519 H 0.65971 0.13343 0.7726 0.0
C2520 C 0.82612 0.66956 0.6774 0.0
C2521 C 0.84844 0.66794 0.67571 0.0
C2522 C 0.81546 0.66076 0.69775 0.0
C2523 C 0.82745 0.65011 0.71692 0.0
C2524 C 0.84996 0.64735 0.71481 0.0
C2525 C 0.86022 0.65634 0.69415 0.0
C2526 C 0.79148 0.66413 0.69925 0.0
C2527 C 0.86328 0.63606 0.73484 0.0
C2528 C 0.80398 0.65983 0.77861 0.0
C2529 C 0.7946 0.63618 0.78328 0.0
C2530 C 0.81501 0.66435 0.75729 0.0
C2531 C 0.81673 0.64474 0.74009 0.0
C2532 C 0.80735 0.62075 0.74466 0.0
C2533 C 0.79627 0.61678 0.7662 0.0
C2534 C 0.82453 0.69031 0.75303 0.0
C2535 C 0.80891 0.5994 0.72673 0.0
H2536 H 0.81702 0.67843 0.66303 0.0
H2537 H 0.87749 0.65506 0.69268 0.0
H2538 H 0.78374 0.6461 0.70465 0.0
H2539 H 0.78773 0.67848 0.71315 0.0
H2540 H 0.78432 0.67047 0.68194 0.0
H2541 H 0.88009 0.63258 0.72935 0.0
H2542 H 0.86343 0.64919 0.75039 0.0
H2543 H 0.85619 0.61791 0.74095 0.0
H2544 H 0.8024 0.67505 0.79155 0.0
H2545 H 0.78912 0.59845 0.76979 0.0
H2546 H 0.81691 0.69912 0.73702 0.0
H2547 H 0.84191 0.68864 0.74939 0.0
H2548 H 0.82235 0.70322 0.76857 0.0
H2549 H 0.80069 0.60488 0.70979 0.0
H2550 H 0.80163 0.58156 0.73345 0.0
H2551 H 0.82593 0.59572 0.72239 0.0
C2552 C 0.23925 0.3678 0.1923 0.0
C2553 C 0.2225 0.38099 0.18094 0.0
C2554 C 0.25549 0.35625 0.17893 0.0
C2555 C 0.25475 0.35752 0.15356 0.0
C2556 C 0.23845 0.37171 0.14201 0.0
C2557 C 0.2227 0.38358 0.15585 0.0
C2558 C 0.27296 0.34179 0.19194 0.0
C2559 C 0.237 0.37332 0.115 0.0
C2560 C 0.30643 0.33983 0.12285 0.0
C2561 C 0.30383 0.31355 0.11981 0.0
C2562 C 0.29019 0.35471 0.13282 0.0
C2563 C 0.27066 0.34315 0.13929 0.0
C2564 C 0.26717 0.31714 0.13411 0.0
C2565 C 0.28388 0.30256 0.12457 0.0
C2566 C 0.29462 0.38233 0.13812 0.0
C2567 C 0.24629 0.30431 0.14014 0.0
H2568 H 0.23918 0.36543 0.2116 0.0
H2569 H 0.21009 0.39422 0.14692 0.0
H2570 H 0.27151 0.32125 0.18789 0.0
H2571 H 0.28893 0.34807 0.1857 0.0
H2572 H 0.27223 0.34436 0.21169 0.0
H2573 H 0.22431 0.38667 0.10886 0.0
H2574 H 0.25252 0.37945 0.10744 0.0
H2575 H 0.23343 0.35424 0.10756 0.0
H2576 H 0.32168 0.34853 0.11866 0.0
H2577 H 0.28175 0.28229 0.1223 0.0
H2578 H 0.29646 0.38493 0.15778 0.0
H2579 H 0.28105 0.3944 0.13214 0.0
H2580 H 0.30946 0.38912 0.12936 0.0
H2581 H 0.24491 0.30254 0.15988 0.0
H2582 H 0.24509 0.28504 0.13214 0.0
H2583 H 0.23253 0.31586 0.1337 0.0
C2584 C 0.2918 0.66004 0.85002 0.0
C2585 C 0.2913 0.68642 0.84639 0.0
C2586 C 0.27502 0.64444 0.84186 0.0
C2587 C 0.25714 0.65548 0.8301 0.0
C2588 C 0.25597 0.68221 0.82761 0.0
C2589 C 0.27309 0.69734 0.83568 0.0
C2590 C 0.27692 0.61605 0.84485 0.0
C2591 C 0.23701 0.69478 0.81549 0.0
C2592 C 0.22441 0.61882 0.78392 0.0
C2593 C 0.20585 0.61305 0.79679 0.0
C2594 C 0.24162 0.63167 0.79487 0.0
C2595 C 0.24017 0.63914 0.81921 0.0
C2596 C 0.22197 0.63221 0.83262 0.0
C2597 C 0.20513 0.61908 0.82131 0.0
C2598 C 0.26094 0.63832 0.78004 0.0
C2599 C 0.21978 0.6398 0.85859 0.0
H2600 H 0.30564 0.65148 0.85867 0.0
H2601 H 0.27263 0.71764 0.83256 0.0
H2602 H 0.26227 0.60824 0.85319 0.0
H2603 H 0.27846 0.60701 0.82698 0.0
H2604 H 0.29101 0.61059 0.85602 0.0
H2605 H 0.23777 0.71581 0.81663 0.0
H2606 H 0.23642 0.68927 0.79629 0.0
H2607 H 0.22187 0.68827 0.82374 0.0
H2608 H 0.22508 0.61446 0.76495 0.0
H2609 H 0.19102 0.61424 0.83152 0.0
H2610 H 0.27586 0.63235 0.78944 0.0
H2611 H 0.26177 0.65919 0.77761 0.0
H2612 H 0.26044 0.62925 0.76207 0.0
H2613 H 0.23425 0.63421 0.86899 0.0
H2614 H 0.20551 0.63112 0.86704 0.0
H2615 H 0.21835 0.66075 0.85986 0.0
C2616 C 0.31345 0.31554 0.81794 0.0
C2617 C 0.29171 0.3217 0.81998 0.0
C2618 C 0.32007 0.29491 0.80402 0.0
C2619 C 0.30451 0.27849 0.79389 0.0
C2620 C 0.28246 0.28424 0.79632 0.0
C2621 C 0.27635 0.30621 0.80881 0.0
C2622 C 0.34375 0.29047 0.80064 0.0
C2623 C 0.26534 0.26671 0.78667 0.0
C2624 C 0.32087 0.22802 0.74864 0.0
C2625 C 0.32728 0.20826 0.7639 0.0
C2626 C 0.31364 0.25124 0.758 0.0
C2627 C 0.31145 0.25403 0.78315 0.0
C2628 C 0.3172 0.2337 0.79852 0.0
C2629 C 0.32603 0.21165 0.78877 0.0
C2630 C 0.30867 0.27267 0.74087 0.0
C2631 C 0.31408 0.23516 0.82533 0.0
H2632 H 0.32538 0.32669 0.82745 0.0
H2633 H 0.25951 0.31077 0.81069 0.0
H2634 H 0.34926 0.27478 0.81241 0.0
H2635 H 0.34709 0.28494 0.78183 0.0
H2636 H 0.35333 0.30762 0.80511 0.0
H2637 H 0.249 0.27278 0.79193 0.0
H2638 H 0.26602 0.26616 0.76683 0.0
H2639 H 0.26812 0.2471 0.7933 0.0
H2640 H 0.32212 0.22554 0.7294 0.0
H2641 H 0.33174 0.19682 0.80069 0.0
H2642 H 0.3127 0.29141 0.74879 0.0
H2643 H 0.29133 0.27253 0.73643 0.0
H2644 H 0.31756 0.2705 0.72383 0.0
H2645 H 0.32636 0.24776 0.83346 0.0
H2646 H 0.31545 0.21623 0.83397 0.0
H2647 H 0.29812 0.24323 0.8295 0.0
C2648 C 0.70837 0.28811 0.85635 0.0
C2649 C 0.70263 0.28931 0.88052 0.0
C2650 C 0.72562 0.30218 0.84764 0.0
C2651 C 0.73728 0.31809 0.86351 0.0
C2652 C 0.73201 0.3187 0.88818 0.0
C2653 C 0.71474 0.30408 0.89647 0.0
C2654 C 0.73093 0.30061 0.8213 0.0
C2655 C 0.74412 0.33539 0.9056 0.0
C2656 C 0.79139 0.33845 0.84025 0.0
C2657 C 0.78665 0.36214 0.82991 0.0
C2658 C 0.77572 0.32446 0.85227 0.0
C2659 C 0.75472 0.33427 0.8539 0.0
C2660 C 0.74994 0.35849 0.84415 0.0
C2661 C 0.76597 0.37212 0.83219 0.0
C2662 C 0.78142 0.29862 0.86217 0.0
C2663 C 0.7277 0.36958 0.8456 0.0
H2664 H 0.69893 0.27655 0.8441 0.0
H2665 H 0.71016 0.30498 0.91514 0.0
H2666 H 0.72846 0.31941 0.81276 0.0
H2667 H 0.74801 0.29546 0.819 0.0
H2668 H 0.72089 0.28643 0.81165 0.0
H2669 H 0.7386 0.3329 0.92433 0.0
H2670 H 0.76151 0.33117 0.90489 0.0
H2671 H 0.74202 0.35559 0.90045 0.0
H2672 H 0.80722 0.33033 0.83817 0.0
H2673 H 0.76227 0.39047 0.82441 0.0
H2674 H 0.77308 0.28374 0.85156 0.0
H2675 H 0.776 0.29683 0.88098 0.0
H2676 H 0.79892 0.29487 0.86162 0.0
H2677 H 0.71645 0.35799 0.83465 0.0
H2678 H 0.72705 0.38947 0.83904 0.0
H2679 H 0.72197 0.36908 0.86436 0.0
C2680 C 0.71673 0.7329 0.841 0.0
C2681 C 0.72423 0.71032 0.83088 0.0
C2682 C 0.7087 0.75256 0.82651 0.0
C2683 C 0.70736 0.74915 0.80133 0.0
C2684 C 0.71524 0.7265 0.79097 0.0
C2685 C 0.72371 0.70738 0.8059 0.0
C2686 C 0.7008 0.77657 0.83828 0.0
C2687 C 0.71369 0.72188 0.76431 0.0
C2688 C 0.66257 0.78891 0.77454 0.0
C2689 C 0.67381 0.80992 0.76587 0.0
C2690 C 0.67347 0.76801 0.78439 0.0
C2691 C 0.69612 0.76855 0.78635 0.0
C2692 C 0.70758 0.7892 0.77647 0.0
C2693 C 0.69625 0.80961 0.76624 0.0
C2694 C 0.66063 0.74616 0.79423 0.0
C2695 C 0.73167 0.79074 0.77839 0.0
H2696 H 0.71639 0.73485 0.86034 0.0
H2697 H 0.72912 0.68965 0.79815 0.0
H2698 H 0.70775 0.79346 0.82938 0.0
H2699 H 0.68314 0.77787 0.83633 0.0
H2700 H 0.70496 0.77729 0.85768 0.0
H2701 H 0.72242 0.70447 0.75884 0.0
H2702 H 0.69661 0.71982 0.75899 0.0
H2703 H 0.72019 0.73829 0.75428 0.0
H2704 H 0.64522 0.78944 0.77492 0.0
H2705 H 0.70489 0.82611 0.75988 0.0
H2706 H 0.66105 0.74675 0.81412 0.0
H2707 H 0.66764 0.72777 0.78862 0.0
H2708 H 0.64362 0.74684 0.78821 0.0
H2709 H 0.7363 0.79503 0.79722 0.0
H2710 H 0.7383 0.8058 0.76666 0.0
H2711 H 0.73913 0.77235 0.7736 0.0
C2712 C 0.7122 0.66246 0.14556 0.0
C2713 C 0.71334 0.68897 0.14787 0.0
C2714 C 0.72892 0.64679 0.15372 0.0
C2715 C 0.74747 0.65788 0.16402 0.0
C2716 C 0.74939 0.68467 0.16485 0.0
C2717 C 0.73225 0.6999 0.15689 0.0
C2718 C 0.72618 0.61835 0.15257 0.0
C2719 C 0.7691 0.69726 0.17527 0.0
C2720 C 0.7798 0.62251 0.21149 0.0
C2721 C 0.79758 0.61419 0.19844 0.0
C2722 C 0.76305 0.63596 0.2003 0.0
C2723 C 0.76419 0.64158 0.1755 0.0
C2724 C 0.78165 0.63242 0.16202 0.0
C2725 C 0.798 0.61862 0.17359 0.0
C2726 C 0.7445 0.645 0.21524 0.0
C2727 C 0.78354 0.63812 0.1356 0.0
H2728 H 0.69781 0.65387 0.13815 0.0
H2729 H 0.73326 0.72032 0.15893 0.0
H2730 H 0.7404 0.60933 0.14439 0.0
H2731 H 0.72477 0.61068 0.17102 0.0
H2732 H 0.7117 0.61273 0.14213 0.0
H2733 H 0.76904 0.71811 0.17238 0.0
H2734 H 0.77 0.69356 0.19484 0.0
H2735 H 0.78376 0.68918 0.16718 0.0
H2736 H 0.77938 0.61952 0.2307 0.0
H2737 H 0.81145 0.61188 0.16324 0.0
H2738 H 0.72909 0.63916 0.20684 0.0
H2739 H 0.74455 0.66604 0.21611 0.0
H2740 H 0.74519 0.63745 0.23383 0.0
H2741 H 0.76873 0.63238 0.1259 0.0
H2742 H 0.7974 0.62831 0.12737 0.0
H2743 H 0.78547 0.65887 0.13299 0.0
C2744 C 0.33867 0.79031 0.23005 0.0
C2745 C 0.32705 0.81037 0.24002 0.0
C2746 C 0.32816 0.76982 0.21902 0.0
C2747 C 0.30551 0.76991 0.21707 0.0
C2748 C 0.29367 0.78958 0.22808 0.0
C2749 C 0.30462 0.80951 0.23961 0.0
C2750 C 0.3414 0.74893 0.20802 0.0
C2751 C 0.26957 0.79068 0.22608 0.0
C2752 C 0.28605 0.73682 0.16057 0.0
C2753 C 0.27913 0.71343 0.16949 0.0
C2754 C 0.2934 0.75594 0.1761 0.0
C2755 C 0.29465 0.75116 0.20109 0.0
C2756 C 0.28723 0.72771 0.21023 0.0
C2757 C 0.27944 0.70916 0.19429 0.0
C2758 C 0.30077 0.78083 0.16561 0.0
C2759 C 0.28867 0.72164 0.23664 0.0
H2760 H 0.35601 0.7913 0.2297 0.0
H2761 H 0.29568 0.8253 0.24697 0.0
H2762 H 0.33474 0.73006 0.21266 0.0
H2763 H 0.34093 0.75068 0.1882 0.0
H2764 H 0.3584 0.7497 0.21406 0.0
H2765 H 0.26263 0.80508 0.23831 0.0
H2766 H 0.26494 0.79563 0.20739 0.0
H2767 H 0.2624 0.77193 0.23014 0.0
H2768 H 0.28656 0.73981 0.14135 0.0
H2769 H 0.27444 0.69083 0.20109 0.0
H2770 H 0.31843 0.78244 0.16749 0.0
H2771 H 0.2936 0.79698 0.17547 0.0
H2772 H 0.29647 0.78262 0.14631 0.0
H2773 H 0.30574 0.71927 0.2419 0.0
H2774 H 0.27993 0.70395 0.24119 0.0
H2775 H 0.28214 0.73746 0.24747 0.0
C2776 C 0.71769 0.28355 0.17641 0.0
C2777 C 0.72665 0.30641 0.18435 0.0
C2778 C 0.70931 0.26604 0.1927 0.0
C2779 C 0.70894 0.27212 0.21744 0.0
C2780 C 0.71832 0.29503 0.22563 0.0
C2781 C 0.72724 0.31186 0.20894 0.0
C2782 C 0.69992 0.24154 0.18325 0.0
C2783 C 0.71775 0.30252 0.25173 0.0
C2784 C 0.66218 0.23848 0.24553 0.0
C2785 C 0.67221 0.21732 0.25584 0.0
C2786 C 0.67425 0.25791 0.23512 0.0
C2787 C 0.69681 0.25547 0.234 0.0
C2788 C 0.7071 0.23485 0.24562 0.0
C2789 C 0.69463 0.2161 0.25664 0.0
C2790 C 0.66268 0.27996 0.22353 0.0
C2791 C 0.73104 0.23127 0.24449 0.0
H2792 H 0.71647 0.27977 0.15734 0.0
H2793 H 0.7338 0.32984 0.21495 0.0
H2794 H 0.7061 0.22518 0.19377 0.0
H2795 H 0.68225 0.24184 0.18517 0.0
H2796 H 0.70369 0.23843 0.16404 0.0
H2797 H 0.7284 0.31892 0.25567 0.0
H2798 H 0.70112 0.30782 0.25652 0.0
H2799 H 0.72253 0.2864 0.26339 0.0
H2800 H 0.64485 0.23908 0.24421 0.0
H2801 H 0.70231 0.19947 0.26431 0.0
H2802 H 0.66262 0.27753 0.20377 0.0
H2803 H 0.67098 0.29808 0.22766 0.0
H2804 H 0.64581 0.28138 0.22956 0.0
H2805 H 0.73536 0.22459 0.22629 0.0
H2806 H 0.73684 0.21705 0.25776 0.0
H2807 H 0.73955 0.24944 0.24768 0.0
loop_
_geom_bond_atom_site_label_1
_geom_bond_atom_site_label_2
_geom_bond_distance
_geom_bond_site_symmetry_2
_ccdc_geom_bond_type
C0 C1 1.443 . S
C0 N4 1.376 . S
C0 C38 1.389 . S
C1 C0 1.443 . S
C1 C2 1.340 . S
C1 H41 0.951 . S
C2 C1 1.340 . S
C2 C3 1.439 . S
C2 H42 0.950 . S
C3 C2 1.439 . S
C3 N4 1.374 . S
C3 C37 1.395 . S
N4 C0 1.376 . S
N4 C3 1.374 . S
N4 Co5 2.008 . S
Co5 N4 2.008 . S
Co5 N6 1.995 . S
Co5 N11 2.008 . S
Co5 N16 1.995 . S
Co5 N21 2.282 . S
Co5 N27 2.282 . S
N6 Co5 1.995 . S
N6 C7 1.376 . S
N6 C10 1.383 . S
C7 N6 1.376 . S
C7 C8 1.446 . S
C7 C37 1.391 . S
C8 C7 1.446 . S
C8 C9 1.339 . S
C8 H43 0.949 . S
C9 C8 1.339 . S
C9 C10 1.439 . S
C9 H44 0.950 . S
C10 N6 1.383 . S
C10 C9 1.439 . S
C10 C39 1.392 . S
N11 Co5 2.008 . S
N11 C12 1.376 . S
N11 C15 1.374 . S
C12 N11 1.376 . S
C12 C13 1.443 . S
C12 C39 1.389 . S
C13 C12 1.443 . S
C13 C14 1.340 . S
C13 H45 0.951 . S
C14 C13 1.340 . S
C14 C15 1.439 . S
C14 H46 0.950 . S
C15 N11 1.374 . S
C15 C14 1.439 . S
C15 C40 1.395 . S
N16 Co5 1.995 . S
N16 C17 1.376 . S
N16 C20 1.383 . S
C17 N16 1.376 . S
C17 C18 1.446 . S
C17 C40 1.391 . S
C18 C17 1.446 . S
C18 C19 1.339 . S
C18 H47 0.949 . S
C19 C18 1.339 . S
C19 C20 1.439 . S
C19 H48 0.950 . S
C20 N16 1.383 . S
C20 C19 1.439 . S
C20 C38 1.392 . S
N21 Co5 2.282 . S
N21 C24 1.332 . S
N21 C26 1.332 . S
C22 C23 1.386 . S
C22 C25 1.388 . S
C23 C22 1.386 . S
C23 C24 1.382 . S
C23 H49 0.950 . S
C24 N21 1.332 . S
C24 C23 1.382 . S
C24 H35 0.952 . S
C25 C22 1.388 . S
C25 C26 1.382 . S
C25 H50 0.950 . S
C26 N21 1.332 . S
C26 C25 1.382 . S
C26 H36 0.948 . S
N27 Co5 2.282 . S
N27 C31 1.332 . S
N27 C32 1.332 . S
C28 C29 1.388 . S
C28 C32 1.382 . S
C28 H51 0.950 . S
C29 C28 1.388 . S
C29 C30 1.386 . S
C30 C29 1.386 . S
C30 C31 1.382 . S
C30 H52 0.950 . S
C31 N27 1.332 . S
C31 C30 1.382 . S
C31 H33 0.952 . S
C32 N27 1.332 . S
C32 C28 1.382 . S
C32 H34 0.948 . S
H33 C31 0.952 . S
H34 C32 0.948 . S
H35 C24 0.952 . S
H36 C26 0.948 . S
C37 C3 1.395 . S
C37 C7 1.391 . S
C38 C0 1.389 . S
C38 C20 1.392 . S
C39 C10 1.392 . S
C39 C12 1.389 . S
C40 C15 1.395 . S
C40 C17 1.391 . S
H41 C1 0.951 . S
H42 C2 0.950 . S
H43 C8 0.949 . S
H44 C9 0.950 . S
H45 C13 0.951 . S
H46 C14 0.950 . S
H47 C18 0.949 . S
H48 C19 0.950 . S
H49 C23 0.950 . S
H50 C25 0.950 . S
H51 C28 0.950 . S
H52 C30 0.950 . S
C53 C54 1.443 . S
C53 N57 1.376 . S
C53 C91 1.389 . S
C54 C53 1.443 . S
C54 C55 1.340 . S
C54 H94 0.951 . S
C55 C54 1.340 . S
C55 C56 1.439 . S
C55 H95 0.950 . S
C56 C55 1.439 . S
C56 N57 1.374 . S
C56 C90 1.395 . S
N57 C53 1.376 . S
N57 C56 1.374 . S
N57 Co58 2.008 . S
Co58 N57 2.008 . S
Co58 N59 1.995 . S
Co58 N64 2.008 . S
Co58 N69 1.995 . S
Co58 N74 2.282 . S
Co58 N80 2.282 . S
N59 Co58 1.995 . S
N59 C60 1.376 . S
N59 C63 1.383 . S
C60 N59 1.376 . S
C60 C61 1.446 . S
C60 C90 1.391 . S
C61 C60 1.446 . S
C61 C62 1.339 . S
C61 H96 0.949 . S
C62 C61 1.339 . S
C62 C63 1.439 . S
C62 H97 0.950 . S
C63 N59 1.383 . S
C63 C62 1.439 . S
C63 C92 1.392 . S
N64 Co58 2.008 . S
N64 C65 1.376 . S
N64 C68 1.374 . S
C65 N64 1.376 . S
C65 C66 1.443 . S
C65 C92 1.389 . S
C66 C65 1.443 . S
C66 C67 1.340 . S
C66 H98 0.951 . S
C67 C66 1.340 . S
C67 C68 1.439 . S
C67 H99 0.950 . S
C68 N64 1.374 . S
C68 C67 1.439 . S
C68 C93 1.395 . S
N69 Co58 1.995 . S
N69 C70 1.376 . S
N69 C73 1.383 . S
C70 N69 1.376 . S
C70 C71 1.446 . S
C70 C93 1.391 . S
C71 C70 1.446 . S
C71 C72 1.339 . S
C71 H100 0.949 . S
C72 C71 1.339 . S
C72 C73 1.439 . S
C72 H101 0.950 . S
C73 N69 1.383 . S
C73 C72 1.439 . S
C73 C91 1.392 . S
N74 Co58 2.282 . S
N74 C77 1.332 . S
N74 C79 1.332 . S
C75 C76 1.386 . S
C75 C78 1.388 . S
C76 C75 1.386 . S
C76 C77 1.382 . S
C76 H102 0.950 . S
C77 N74 1.332 . S
C77 C76 1.382 . S
C77 H88 0.952 . S
C78 C75 1.388 . S
C78 C79 1.382 . S
C78 H103 0.950 . S
C79 N74 1.332 . S
C79 C78 1.382 . S
C79 H89 0.948 . S
N80 Co58 2.282 . S
N80 C84 1.332 . S
N80 C85 1.332 . S
C81 C82 1.388 . S
C81 C85 1.382 . S
C81 H104 0.950 . S
C82 C81 1.388 . S
C82 C83 1.386 . S
C83 C82 1.386 . S
C83 C84 1.382 . S
C83 H105 0.950 . S
C84 N80 1.332 . S
C84 C83 1.382 . S
C84 H86 0.952 . S
C85 N80 1.332 . S
C85 C81 1.382 . S
C85 H87 0.948 . S
H86 C84 0.952 . S
H87 C85 0.948 . S
H88 C77 0.952 . S
H89 C79 0.948 . S
C90 C56 1.395 . S
C90 C60 1.391 . S
C91 C53 1.389 . S
C91 C73 1.392 . S
C92 C63 1.392 . S
C92 C65 1.389 . S
C93 C68 1.395 . S
C93 C70 1.391 . S
H94 C54 0.951 . S
H95 C55 0.950 . S
H96 C61 0.949 . S
H97 C62 0.950 . S
H98 C66 0.951 . S
H99 C67 0.950 . S
H100 C71 0.949 . S
H101 C72 0.950 . S
H102 C76 0.950 . S
H103 C78 0.950 . S
H104 C81 0.950 . S
H105 C83 0.950 . S
C106 C107 1.443 . S
C106 N110 1.376 . S
C106 C144 1.389 . S
C107 C106 1.443 . S
C107 C108 1.340 . S
C107 H147 0.951 . S
C108 C107 1.340 . S
C108 C109 1.439 . S
C108 H148 0.950 . S
C109 C108 1.439 . S
C109 N110 1.374 . S
C109 C143 1.395 . S
N110 C106 1.376 . S
N110 C109 1.374 . S
N110 Co111 2.008 . S
Co111 N110 2.008 . S
Co111 N112 1.995 . S
Co111 N117 2.008 . S
Co111 N122 1.995 . S
Co111 N127 2.282 . S
Co111 N133 2.282 . S
N112 Co111 1.995 . S
N112 C113 1.376 . S
N112 C116 1.383 . S
C113 N112 1.376 . S
C113 C114 1.446 . S
C113 C143 1.391 . S
C114 C113 1.446 . S
C114 C115 1.339 . S
C114 H149 0.949 . S
C115 C114 1.339 . S
C115 C116 1.439 . S
C115 H150 0.950 . S
C116 N112 1.383 . S
C116 C115 1.439 . S
C116 C145 1.392 . S
N117 Co111 2.008 . S
N117 C118 1.376 . S
N117 C121 1.374 . S
C118 N117 1.376 . S
C118 C119 1.443 . S
C118 C145 1.389 . S
C119 C118 1.443 . S
C119 C120 1.340 . S
C119 H151 0.951 . S
C120 C119 1.340 . S
C120 C121 1.439 . S
C120 H152 0.950 . S
C121 N117 1.374 . S
C121 C120 1.439 . S
C121 C146 1.395 . S
N122 Co111 1.995 . S
N122 C123 1.376 . S
N122 C126 1.383 . S
C123 N122 1.376 . S
C123 C124 1.446 . S
C123 C146 1.391 . S
C124 C123 1.446 . S
C124 C125 1.339 . S
C124 H153 0.949 . S
C125 C124 1.339 . S
C125 C126 1.439 . S
C125 H154 0.950 . S
C126 N122 1.383 . S
C126 C125 1.439 . S
C126 C144 1.392 . S
N127 Co111 2.282 . S
N127 C130 1.332 . S
N127 C132 1.332 . S
C128 C129 1.386 . S
C128 C131 1.388 . S
C129 C128 1.386 . S
C129 C130 1.382 . S
C129 H155 0.950 . S
C130 N127 1.332 . S
C130 C129 1.382 . S
C130 H141 0.952 . S
C131 C128 1.388 . S
C131 C132 1.382 . S
C131 H156 0.950 . S
C132 N127 1.332 . S
C132 C131 1.382 . S
C132 H142 0.948 . S
N133 Co111 2.282 . S
N133 C137 1.332 . S
N133 C138 1.332 . S
C134 C135 1.388 . S
C134 C138 1.382 . S
C134 H157 0.950 . S
C135 C134 1.388 . S
C135 C136 1.386 . S
C136 C135 1.386 . S
C136 C137 1.382 . S
C136 H158 0.950 . S
C137 N133 1.332 . S
C137 C136 1.382 . S
C137 H139 0.952 . S
C138 N133 1.332 . S
C138 C134 1.382 . S
C138 H140 0.948 . S
H139 C137 0.952 . S
H140 C138 0.948 . S
H141 C130 0.952 . S
H142 C132 0.948 . S
C143 C109 1.395 . S
C143 C113 1.391 . S
C144 C106 1.389 . S
C144 C126 1.392 . S
C145 C116 1.392 . S
C145 C118 1.389 . S
C146 C121 1.395 . S
C146 C123 1.391 . S
H147 C107 0.951 . S
H148 C108 0.950 . S
H149 C114 0.949 . S
H150 C115 0.950 . S
H151 C119 0.951 . S
H152 C120 0.950 . S
H153 C124 0.949 . S
H154 C125 0.950 . S
H155 C129 0.950 . S
H156 C131 0.950 . S
H157 C134 0.950 . S
H158 C136 0.950 . S
C159 C160 1.443 . S
C159 N163 1.376 . S
C159 C197 1.389 . S
C160 C159 1.443 . S
C160 C161 1.340 . S
C160 H200 0.951 . S
C161 C160 1.340 . S
C161 C162 1.439 . S
C161 H201 0.950 . S
C162 C161 1.439 . S
C162 N163 1.374 . S
C162 C196 1.395 . S
N163 C159 1.376 . S
N163 C162 1.374 . S
N163 Co164 2.008 . S
Co164 N163 2.008 . S
Co164 N165 1.995 . S
Co164 N170 2.008 . S
Co164 N175 1.995 . S
Co164 N180 2.282 . S
Co164 N186 2.282 . S
N165 Co164 1.995 . S
N165 C166 1.376 . S
N165 C169 1.383 . S
C166 N165 1.376 . S
C166 C167 1.446 . S
C166 C196 1.391 . S
C167 C166 1.446 . S
C167 C168 1.339 . S
C167 H202 0.949 . S
C168 C167 1.339 . S
C168 C169 1.439 . S
C168 H203 0.950 . S
C169 N165 1.383 . S
C169 C168 1.439 . S
C169 C198 1.392 . S
N170 Co164 2.008 . S
N170 C171 1.376 . S
N170 C174 1.374 . S
C171 N170 1.376 . S
C171 C172 1.443 . S
C171 C198 1.389 . S
C172 C171 1.443 . S
C172 C173 1.340 . S
C172 H204 0.951 . S
C173 C172 1.340 . S
C173 C174 1.439 . S
C173 H205 0.950 . S
C174 N170 1.374 . S
C174 C173 1.439 . S
C174 C199 1.395 . S
N175 Co164 1.995 . S
N175 C176 1.376 . S
N175 C179 1.383 . S
C176 N175 1.376 . S
C176 C177 1.446 . S
C176 C199 1.391 . S
C177 C176 1.446 . S
C177 C178 1.339 . S
C177 H206 0.949 . S
C178 C177 1.339 . S
C178 C179 1.439 . S
C178 H207 0.950 . S
C179 N175 1.383 . S
C179 C178 1.439 . S
C179 C197 1.392 . S
N180 Co164 2.282 . S
N180 C183 1.332 . S
N180 C185 1.332 . S
C181 C182 1.386 . S
C181 C184 1.388 . S
C182 C181 1.386 . S
C182 C183 1.382 . S
C182 H208 0.950 . S
C183 N180 1.332 . S
C183 C182 1.382 . S
C183 H194 0.952 . S
C184 C181 1.388 . S
C184 C185 1.382 . S
C184 H209 0.950 . S
C185 N180 1.332 . S
C185 C184 1.382 . S
C185 H195 0.948 . S
N186 Co164 2.282 . S
N186 C190 1.332 . S
N186 C191 1.332 . S
C187 C188 1.388 . S
C187 C191 1.382 . S
C187 H210 0.950 . S
C188 C187 1.388 . S
C188 C189 1.386 . S
C189 C188 1.386 . S
C189 C190 1.382 . S
C189 H211 0.950 . S
C190 N186 1.332 . S
C190 C189 1.382 . S
C190 H192 0.952 . S
C191 N186 1.332 . S
C191 C187 1.382 . S
C191 H193 0.948 . S
H192 C190 0.952 . S
H193 C191 0.948 . S
H194 C183 0.952 . S
H195 C185 0.948 . S
C196 C162 1.395 . S
C196 C166 1.391 . S
C197 C159 1.389 . S
C197 C179 1.392 . S
C198 C169 1.392 . S
C198 C171 1.389 . S
C199 C174 1.395 . S
C199 C176 1.391 . S
H200 C160 0.951 . S
H201 C161 0.950 . S
H202 C167 0.949 . S
H203 C168 0.950 . S
H204 C172 0.951 . S
H205 C173 0.950 . S
H206 C177 0.949 . S
H207 C178 0.950 . S
H208 C182 0.950 . S
H209 C184 0.950 . S
H210 C187 0.950 . S
H211 C189 0.950 . S
C212 C213 1.443 . S
C212 N216 1.376 . S
C212 C250 1.389 . S
C213 C212 1.443 . S
C213 C214 1.340 . S
C213 H253 0.951 . S
C214 C213 1.340 . S
C214 C215 1.439 . S
C214 H254 0.950 . S
C215 C214 1.439 . S
C215 N216 1.374 . S
C215 C249 1.395 . S
N216 C212 1.376 . S
N216 C215 1.374 . S
N216 Co217 2.008 . S
Co217 N216 2.008 . S
Co217 N218 1.995 . S
Co217 N223 2.008 . S
Co217 N228 1.995 . S
Co217 N233 2.282 . S
Co217 N239 2.282 . S
N218 Co217 1.995 . S
N218 C219 1.376 . S
N218 C222 1.383 . S
C219 N218 1.376 . S
C219 C220 1.446 . S
C219 C249 1.391 . S
C220 C219 1.446 . S
C220 C221 1.339 . S
C220 H255 0.949 . S
C221 C220 1.339 . S
C221 C222 1.439 . S
C221 H256 0.950 . S
C222 N218 1.383 . S
C222 C221 1.439 . S
C222 C251 1.392 . S
N223 Co217 2.008 . S
N223 C224 1.376 . S
N223 C227 1.374 . S
C224 N223 1.376 . S
C224 C225 1.443 . S
C224 C251 1.389 . S
C225 C224 1.443 . S
C225 C226 1.340 . S
C225 H257 0.951 . S
C226 C225 1.340 . S
C226 C227 1.439 . S
C226 H258 0.950 . S
C227 N223 1.374 . S
C227 C226 1.439 . S
C227 C252 1.395 . S
N228 Co217 1.995 . S
N228 C229 1.376 . S
N228 C232 1.383 . S
C229 N228 1.376 . S
C229 C230 1.446 . S
C229 C252 1.391 . S
C230 C229 1.446 . S
C230 C231 1.339 . S
C230 H259 0.949 . S
C231 C230 1.339 . S
C231 C232 1.439 . S
C231 H260 0.950 . S
C232 N228 1.383 . S
C232 C231 1.439 . S
C232 C250 1.392 . S
N233 Co217 2.282 . S
N233 C236 1.332 . S
N233 C238 1.332 . S
C234 C235 1.386 . S
C234 C237 1.388 . S
C235 C234 1.386 . S
C235 C236 1.382 . S
C235 H261 0.950 . S
C236 N233 1.332 . S
C236 C235 1.382 . S
C236 H247 0.952 . S
C237 C234 1.388 . S
C237 C238 1.382 . S
C237 H262 0.950 . S
C238 N233 1.332 . S
C238 C237 1.382 . S
C238 H248 0.948 . S
N239 Co217 2.282 . S
N239 C243 1.332 . S
N239 C244 1.332 . S
C240 C241 1.388 . S
C240 C244 1.382 . S
C240 H263 0.950 . S
C241 C240 1.388 . S
C241 C242 1.386 . S
C242 C241 1.386 . S
C242 C243 1.382 . S
C242 H264 0.950 . S
C243 N239 1.332 . S
C243 C242 1.382 . S
C243 H245 0.952 . S
C244 N239 1.332 . S
C244 C240 1.382 . S
C244 H246 0.948 . S
H245 C243 0.952 . S
H246 C244 0.948 . S
H247 C236 0.952 . S
H248 C238 0.948 . S
C249 C215 1.395 . S
C249 C219 1.391 . S
C250 C212 1.389 . S
C250 C232 1.392 . S
C251 C222 1.392 . S
C251 C224 1.389 . S
C252 C227 1.395 . S
C252 C229 1.391 . S
H253 C213 0.951 . S
H254 C214 0.950 . S
H255 C220 0.949 . S
H256 C221 0.950 . S
H257 C225 0.951 . S
H258 C226 0.950 . S
H259 C230 0.949 . S
H260 C231 0.950 . S
H261 C235 0.950 . S
H262 C237 0.950 . S
H263 C240 0.950 . S
H264 C242 0.950 . S
C265 C266 1.443 . S
C265 N269 1.376 . S
C265 C303 1.389 . S
C266 C265 1.443 . S
C266 C267 1.340 . S
C266 H306 0.951 . S
C267 C266 1.340 . S
C267 C268 1.439 . S
C267 H307 0.950 . S
C268 C267 1.439 . S
C268 N269 1.374 . S
C268 C302 1.395 . S
N269 C265 1.376 . S
N269 C268 1.374 . S
N269 Co270 2.008 . S
Co270 N269 2.008 . S
Co270 N271 1.995 . S
Co270 N276 2.008 . S
Co270 N281 1.995 . S
Co270 N286 2.282 . S
Co270 N292 2.282 . S
N271 Co270 1.995 . S
N271 C272 1.376 . S
N271 C275 1.383 . S
C272 N271 1.376 . S
C272 C273 1.446 . S
C272 C302 1.391 . S
C273 C272 1.446 . S
C273 C274 1.339 . S
C273 H308 0.949 . S
C274 C273 1.339 . S
C274 C275 1.439 . S
C274 H309 0.950 . S
C275 N271 1.383 . S
C275 C274 1.439 . S
C275 C304 1.392 . S
N276 Co270 2.008 . S
N276 C277 1.376 . S
N276 C280 1.374 . S
C277 N276 1.376 . S
C277 C278 1.443 . S
C277 C304 1.389 . S
C278 C277 1.443 . S
C278 C279 1.340 . S
C278 H310 0.951 . S
C279 C278 1.340 . S
C279 C280 1.439 . S
C279 H311 0.950 . S
C280 N276 1.374 . S
C280 C279 1.439 . S
C280 C305 1.395 . S
N281 Co270 1.995 . S
N281 C282 1.376 . S
N281 C285 1.383 . S
C282 N281 1.376 . S
C282 C283 1.446 . S
C282 C305 1.391 . S
C283 C282 1.446 . S
C283 C284 1.339 . S
C283 H312 0.949 . S
C284 C283 1.339 . S
C284 C285 1.439 . S
C284 H313 0.950 . S
C285 N281 1.383 . S
C285 C284 1.439 . S
C285 C303 1.392 . S
N286 Co270 2.282 . S
N286 C289 1.332 . S
N286 C291 1.332 . S
C287 C288 1.386 . S
C287 C290 1.388 . S
C288 C287 1.386 . S
C288 C289 1.382 . S
C288 H314 0.950 . S
C289 N286 1.332 . S
C289 C288 1.382 . S
C289 H300 0.952 . S
C290 C287 1.388 . S
C290 C291 1.382 . S
C290 H315 0.950 . S
C291 N286 1.332 . S
C291 C290 1.382 . S
C291 H301 0.948 . S
N292 Co270 2.282 . S
N292 C296 1.332 . S
N292 C297 1.332 . S
C293 C294 1.388 . S
C293 C297 1.382 . S
C293 H316 0.950 . S
C294 C293 1.388 . S
C294 C295 1.386 . S
C295 C294 1.386 . S
C295 C296 1.382 . S
C295 H317 0.950 . S
C296 N292 1.332 . S
C296 C295 1.382 . S
C296 H298 0.952 . S
C297 N292 1.332 . S
C297 C293 1.382 . S
C297 H299 0.948 . S
H298 C296 0.952 . S
H299 C297 0.948 . S
H300 C289 0.952 . S
H301 C291 0.948 . S
C302 C268 1.395 . S
C302 C272 1.391 . S
C303 C265 1.389 . S
C303 C285 1.392 . S
C304 C275 1.392 . S
C304 C277 1.389 . S
C305 C280 1.395 . S
C305 C282 1.391 . S
H306 C266 0.951 . S
H307 C267 0.950 . S
H308 C273 0.949 . S
H309 C274 0.950 . S
H310 C278 0.951 . S
H311 C279 0.950 . S
H312 C283 0.949 . S
H313 C284 0.950 . S
H314 C288 0.950 . S
H315 C290 0.950 . S
H316 C293 0.950 . S
H317 C295 0.950 . S
C318 C319 1.443 . S
C318 N322 1.376 . S
C318 C356 1.389 . S
C319 C318 1.443 . S
C319 C320 1.340 . S
C319 H359 0.951 . S
C320 C319 1.340 . S
C320 C321 1.439 . S
C320 H360 0.950 . S
C321 C320 1.439 . S
C321 N322 1.374 . S
C321 C355 1.395 . S
N322 C318 1.376 . S
N322 C321 1.374 . S
N322 Co323 2.008 . S
Co323 N322 2.008 . S
Co323 N324 1.995 . S
Co323 N329 2.008 . S
Co323 N334 1.995 . S
Co323 N339 2.282 . S
Co323 N345 2.282 . S
N324 Co323 1.995 . S
N324 C325 1.376 . S
N324 C328 1.383 . S
C325 N324 1.376 . S
C325 C326 1.446 . S
C325 C355 1.391 . S
C326 C325 1.446 . S
C326 C327 1.339 . S
C326 H361 0.949 . S
C327 C326 1.339 . S
C327 C328 1.439 . S
C327 H362 0.950 . S
C328 N324 1.383 . S
C328 C327 1.439 . S
C328 C357 1.392 . S
N329 Co323 2.008 . S
N329 C330 1.376 . S
N329 C333 1.374 . S
C330 N329 1.376 . S
C330 C331 1.443 . S
C330 C357 1.389 . S
C331 C330 1.443 . S
C331 C332 1.340 . S
C331 H363 0.951 . S
C332 C331 1.340 . S
C332 C333 1.439 . S
C332 H364 0.950 . S
C333 N329 1.374 . S
C333 C332 1.439 . S
C333 C358 1.395 . S
N334 Co323 1.995 . S
N334 C335 1.376 . S
N334 C338 1.383 . S
C335 N334 1.376 . S
C335 C336 1.446 . S
C335 C358 1.391 . S
C336 C335 1.446 . S
C336 C337 1.339 . S
C336 H365 0.949 . S
C337 C336 1.339 . S
C337 C338 1.439 . S
C337 H366 0.950 . S
C338 N334 1.383 . S
C338 C337 1.439 . S
C338 C356 1.392 . S
N339 Co323 2.282 . S
N339 C342 1.332 . S
N339 C344 1.332 . S
C340 C341 1.386 . S
C340 C343 1.388 . S
C341 C340 1.386 . S
C341 C342 1.382 . S
C341 H367 0.950 . S
C342 N339 1.332 . S
C342 C341 1.382 . S
C342 H353 0.952 . S
C343 C340 1.388 . S
C343 C344 1.382 . S
C343 H368 0.950 . S
C344 N339 1.332 . S
C344 C343 1.382 . S
C344 H354 0.948 . S
N345 Co323 2.282 . S
N345 C349 1.332 . S
N345 C350 1.332 . S
C346 C347 1.388 . S
C346 C350 1.382 . S
C346 H369 0.950 . S
C347 C346 1.388 . S
C347 C348 1.386 . S
C348 C347 1.386 . S
C348 C349 1.382 . S
C348 H370 0.950 . S
C349 N345 1.332 . S
C349 C348 1.382 . S
C349 H351 0.952 . S
C350 N345 1.332 . S
C350 C346 1.382 . S
C350 H352 0.948 . S
H351 C349 0.952 . S
H352 C350 0.948 . S
H353 C342 0.952 . S
H354 C344 0.948 . S
C355 C321 1.395 . S
C355 C325 1.391 . S
C356 C318 1.389 . S
C356 C338 1.392 . S
C357 C328 1.392 . S
C357 C330 1.389 . S
C358 C333 1.395 . S
C358 C335 1.391 . S
H359 C319 0.951 . S
H360 C320 0.950 . S
H361 C326 0.949 . S
H362 C327 0.950 . S
H363 C331 0.951 . S
H364 C332 0.950 . S
H365 C336 0.949 . S
H366 C337 0.950 . S
H367 C341 0.950 . S
H368 C343 0.950 . S
H369 C346 0.950 . S
H370 C348 0.950 . S
C371 C372 1.443 . S
C371 N375 1.376 . S
C371 C409 1.389 . S
C372 C371 1.443 . S
C372 C373 1.340 . S
C372 H412 0.951 . S
C373 C372 1.340 . S
C373 C374 1.439 . S
C373 H413 0.950 . S
C374 C373 1.439 . S
C374 N375 1.374 . S
C374 C408 1.395 . S
N375 C371 1.376 . S
N375 C374 1.374 . S
N375 Co376 2.008 . S
Co376 N375 2.008 . S
Co376 N377 1.995 . S
Co376 N382 2.008 . S
Co376 N387 1.995 . S
Co376 N392 2.282 . S
Co376 N398 2.282 . S
N377 Co376 1.995 . S
N377 C378 1.376 . S
N377 C381 1.383 . S
C378 N377 1.376 . S
C378 C379 1.446 . S
C378 C408 1.391 . S
C379 C378 1.446 . S
C379 C380 1.339 . S
C379 H414 0.949 . S
C380 C379 1.339 . S
C380 C381 1.439 . S
C380 H415 0.950 . S
C381 N377 1.383 . S
C381 C380 1.439 . S
C381 C410 1.392 . S
N382 Co376 2.008 . S
N382 C383 1.376 . S
N382 C386 1.374 . S
C383 N382 1.376 . S
C383 C384 1.443 . S
C383 C410 1.389 . S
C384 C383 1.443 . S
C384 C385 1.340 . S
C384 H416 0.951 . S
C385 C384 1.340 . S
C385 C386 1.439 . S
C385 H417 0.950 . S
C386 N382 1.374 . S
C386 C385 1.439 . S
C386 C411 1.395 . S
N387 Co376 1.995 . S
N387 C388 1.376 . S
N387 C391 1.383 . S
C388 N387 1.376 . S
C388 C389 1.446 . S
C388 C411 1.391 . S
C389 C388 1.446 . S
C389 C390 1.339 . S
C389 H418 0.949 . S
C390 C389 1.339 . S
C390 C391 1.439 . S
C390 H419 0.950 . S
C391 N387 1.383 . S
C391 C390 1.439 . S
C391 C409 1.392 . S
N392 Co376 2.282 . S
N392 C395 1.332 . S
N392 C397 1.332 . S
C393 C394 1.386 . S
C393 C396 1.388 . S
C394 C393 1.386 . S
C394 C395 1.382 . S
C394 H420 0.950 . S
C395 N392 1.332 . S
C395 C394 1.382 . S
C395 H406 0.952 . S
C396 C393 1.388 . S
C396 C397 1.382 . S
C396 H421 0.950 . S
C397 N392 1.332 . S
C397 C396 1.382 . S
C397 H407 0.948 . S
N398 Co376 2.282 . S
N398 C402 1.332 . S
N398 C403 1.332 . S
C399 C400 1.388 . S
C399 C403 1.382 . S
C399 H422 0.950 . S
C400 C399 1.388 . S
C400 C401 1.386 . S
C401 C400 1.386 . S
C401 C402 1.382 . S
C401 H423 0.950 . S
C402 N398 1.332 . S
C402 C401 1.382 . S
C402 H404 0.952 . S
C403 N398 1.332 . S
C403 C399 1.382 . S
C403 H405 0.948 . S
H404 C402 0.952 . S
H405 C403 0.948 . S
H406 C395 0.952 . S
H407 C397 0.948 . S
C408 C374 1.395 . S
C408 C378 1.391 . S
C409 C371 1.389 . S
C409 C391 1.392 . S
C410 C381 1.392 . S
C410 C383 1.389 . S
C411 C386 1.395 . S
C411 C388 1.391 . S
H412 C372 0.951 . S
H413 C373 0.950 . S
H414 C379 0.949 . S
H415 C380 0.950 . S
H416 C384 0.951 . S
H417 C385 0.950 . S
H418 C389 0.949 . S
H419 C390 0.950 . S
H420 C394 0.950 . S
H421 C396 0.950 . S
H422 C399 0.950 . S
H423 C401 0.950 . S
C424 C425 1.443 . S
C424 N428 1.376 . S
C424 C462 1.389 . S
C425 C424 1.443 . S
C425 C426 1.340 . S
C425 H465 0.951 . S
C426 C425 1.340 . S
C426 C427 1.439 . S
C426 H466 0.950 . S
C427 C426 1.439 . S
C427 N428 1.374 . S
C427 C461 1.395 . S
N428 C424 1.376 . S
N428 C427 1.374 . S
N428 Co429 2.008 . S
Co429 N428 2.008 . S
Co429 N430 1.995 . S
Co429 N435 2.008 . S
Co429 N440 1.995 . S
Co429 N445 2.282 . S
Co429 N451 2.282 . S
N430 Co429 1.995 . S
N430 C431 1.376 . S
N430 C434 1.383 . S
C431 N430 1.376 . S
C431 C432 1.446 . S
C431 C461 1.391 . S
C432 C431 1.446 . S
C432 C433 1.339 . S
C432 H467 0.949 . S
C433 C432 1.339 . S
C433 C434 1.439 . S
C433 H468 0.950 . S
C434 N430 1.383 . S
C434 C433 1.439 . S
C434 C463 1.392 . S
N435 Co429 2.008 . S
N435 C436 1.376 . S
N435 C439 1.374 . S
C436 N435 1.376 . S
C436 C437 1.443 . S
C436 C463 1.389 . S
C437 C436 1.443 . S
C437 C438 1.340 . S
C437 H469 0.951 . S
C438 C437 1.340 . S
C438 C439 1.439 . S
C438 H470 0.950 . S
C439 N435 1.374 . S
C439 C438 1.439 . S
C439 C464 1.395 . S
N440 Co429 1.995 . S
N440 C441 1.376 . S
N440 C444 1.383 . S
C441 N440 1.376 . S
C441 C442 1.446 . S
C441 C464 1.391 . S
C442 C441 1.446 . S
C442 C443 1.339 . S
C442 H471 0.949 . S
C443 C442 1.339 . S
C443 C444 1.439 . S
C443 H472 0.950 . S
C444 N440 1.383 . S
C444 C443 1.439 . S
C444 C462 1.392 . S
N445 Co429 2.282 . S
N445 C448 1.332 . S
N445 C450 1.332 . S
C446 C447 1.386 . S
C446 C449 1.388 . S
C447 C446 1.386 . S
C447 C448 1.382 . S
C447 H473 0.950 . S
C448 N445 1.332 . S
C448 C447 1.382 . S
C448 H459 0.952 . S
C449 C446 1.388 . S
C449 C450 1.382 . S
C449 H474 0.950 . S
C450 N445 1.332 . S
C450 C449 1.382 . S
C450 H460 0.948 . S
N451 Co429 2.282 . S
N451 C455 1.332 . S
N451 C456 1.332 . S
C452 C453 1.388 . S
C452 C456 1.382 . S
C452 H475 0.950 . S
C453 C452 1.388 . S
C453 C454 1.386 . S
C454 C453 1.386 . S
C454 C455 1.382 . S
C454 H476 0.950 . S
C455 N451 1.332 . S
C455 C454 1.382 . S
C455 H457 0.952 . S
C456 N451 1.332 . S
C456 C452 1.382 . S
C456 H458 0.948 . S
H457 C455 0.952 . S
H458 C456 0.948 . S
H459 C448 0.952 . S
H460 C450 0.948 . S
C461 C427 1.395 . S
C461 C431 1.391 . S
C462 C424 1.389 . S
C462 C444 1.392 . S
C463 C434 1.392 . S
C463 C436 1.389 . S
C464 C439 1.395 . S
C464 C441 1.391 . S
H465 C425 0.951 . S
H466 C426 0.950 . S
H467 C432 0.949 . S
H468 C433 0.950 . S
H469 C437 0.951 . S
H470 C438 0.950 . S
H471 C442 0.949 . S
H472 C443 0.950 . S
H473 C447 0.950 . S
H474 C449 0.950 . S
H475 C452 0.950 . S
H476 C454 0.950 . S
C477 C478 1.443 . S
C477 N481 1.376 . S
C477 C515 1.389 . S
C478 C477 1.443 . S
C478 C479 1.340 . S
C478 H518 0.951 . S
C479 C478 1.340 . S
C479 C480 1.439 . S
C479 H519 0.950 . S
C480 C479 1.439 . S
C480 N481 1.374 . S
C480 C514 1.395 . S
N481 C477 1.376 . S
N481 C480 1.374 . S
N481 Co482 2.008 . S
Co482 N481 2.008 . S
Co482 N483 1.995 . S
Co482 N488 2.008 . S
Co482 N493 1.995 . S
Co482 N498 2.282 . S
Co482 N504 2.282 . S
N483 Co482 1.995 . S
N483 C484 1.376 . S
N483 C487 1.383 . S
C484 N483 1.376 . S
C484 C485 1.446 . S
C484 C514 1.391 . S
C485 C484 1.446 . S
C485 C486 1.339 . S
C485 H520 0.949 . S
C486 C485 1.339 . S
C486 C487 1.439 . S
C486 H521 0.950 . S
C487 N483 1.383 . S
C487 C486 1.439 . S
C487 C516 1.392 . S
N488 Co482 2.008 . S
N488 C489 1.376 . S
N488 C492 1.374 . S
C489 N488 1.376 . S
C489 C490 1.443 . S
C489 C516 1.389 . S
C490 C489 1.443 . S
C490 C491 1.340 . S
C490 H522 0.951 . S
C491 C490 1.340 . S
C491 C492 1.439 . S
C491 H523 0.950 . S
C492 N488 1.374 . S
C492 C491 1.439 . S
C492 C517 1.395 . S
N493 Co482 1.995 . S
N493 C494 1.376 . S
N493 C497 1.383 . S
C494 N493 1.376 . S
C494 C495 1.446 . S
C494 C517 1.391 . S
C495 C494 1.446 . S
C495 C496 1.339 . S
C495 H524 0.949 . S
C496 C495 1.339 . S
C496 C497 1.439 . S
C496 H525 0.950 . S
C497 N493 1.383 . S
C497 C496 1.439 . S
C497 C515 1.392 . S
N498 Co482 2.282 . S
N498 C501 1.332 . S
N498 C503 1.332 . S
C499 C500 1.386 . S
C499 C502 1.388 . S
C500 C499 1.386 . S
C500 C501 1.382 . S
C500 H526 0.950 . S
C501 N498 1.332 . S
C501 C500 1.382 . S
C501 H512 0.952 . S
C502 C499 1.388 . S
C502 C503 1.382 . S
C502 H527 0.950 . S
C503 N498 1.332 . S
C503 C502 1.382 . S
C503 H513 0.948 . S
N504 Co482 2.282 . S
N504 C508 1.332 . S
N504 C509 1.332 . S
C505 C506 1.388 . S
C505 C509 1.382 . S
C505 H528 0.950 . S
C506 C505 1.388 . S
C506 C507 1.386 . S
C507 C506 1.386 . S
C507 C508 1.382 . S
C507 H529 0.950 . S
C508 N504 1.332 . S
C508 C507 1.382 . S
C508 H510 0.952 . S
C509 N504 1.332 . S
C509 C505 1.382 . S
C509 H511 0.948 . S
H510 C508 0.952 . S
H511 C509 0.948 . S
H512 C501 0.952 . S
H513 C503 0.948 . S
C514 C480 1.395 . S
C514 C484 1.391 . S
C515 C477 1.389 . S
C515 C497 1.392 . S
C516 C487 1.392 . S
C516 C489 1.389 . S
C517 C492 1.395 . S
C517 C494 1.391 . S
H518 C478 0.951 . S
H519 C479 0.950 . S
H520 C485 0.949 . S
H521 C486 0.950 . S
H522 C490 0.951 . S
H523 C491 0.950 . S
H524 C495 0.949 . S
H525 C496 0.950 . S
H526 C500 0.950 . S
H527 C502 0.950 . S
H528 C505 0.950 . S
H529 C507 0.950 . S
C530 C531 1.443 . S
C530 N534 1.376 . S
C530 C568 1.389 . S
C531 C530 1.443 . S
C531 C532 1.340 . S
C531 H571 0.951 . S
C532 C531 1.340 . S
C532 C533 1.439 . S
C532 H572 0.950 . S
C533 C532 1.439 . S
C533 N534 1.374 . S
C533 C567 1.395 . S
N534 C530 1.376 . S
N534 C533 1.374 . S
N534 Co535 2.008 . S
Co535 N534 2.008 . S
Co535 N536 1.995 . S
Co535 N541 2.008 . S
Co535 N546 1.995 . S
Co535 N551 2.282 . S
Co535 N557 2.282 . S
N536 Co535 1.995 . S
N536 C537 1.376 . S
N536 C540 1.383 . S
C537 N536 1.376 . S
C537 C538 1.446 . S
C537 C567 1.391 . S
C538 C537 1.446 . S
C538 C539 1.339 . S
C538 H573 0.949 . S
C539 C538 1.339 . S
C539 C540 1.439 . S
C539 H574 0.950 . S
C540 N536 1.383 . S
C540 C539 1.439 . S
C540 C569 1.392 . S
N541 Co535 2.008 . S
N541 C542 1.376 . S
N541 C545 1.374 . S
C542 N541 1.376 . S
C542 C543 1.443 . S
C542 C569 1.389 . S
C543 C542 1.443 . S
C543 C544 1.340 . S
C543 H575 0.951 . S
C544 C543 1.340 . S
C544 C545 1.439 . S
C544 H576 0.950 . S
C545 N541 1.374 . S
C545 C544 1.439 . S
C545 C570 1.395 . S
N546 Co535 1.995 . S
N546 C547 1.376 . S
N546 C550 1.383 . S
C547 N546 1.376 . S
C547 C548 1.446 . S
C547 C570 1.391 . S
C548 C547 1.446 . S
C548 C549 1.339 . S
C548 H577 0.949 . S
C549 C548 1.339 . S
C549 C550 1.439 . S
C549 H578 0.950 . S
C550 N546 1.383 . S
C550 C549 1.439 . S
C550 C568 1.392 . S
N551 Co535 2.282 . S
N551 C554 1.332 . S
N551 C556 1.332 . S
C552 C553 1.386 . S
C552 C555 1.388 . S
C553 C552 1.386 . S
C553 C554 1.382 . S
C553 H579 0.950 . S
C554 N551 1.332 . S
C554 C553 1.382 . S
C554 H565 0.952 . S
C555 C552 1.388 . S
C555 C556 1.382 . S
C555 H580 0.950 . S
C556 N551 1.332 . S
C556 C555 1.382 . S
C556 H566 0.948 . S
N557 Co535 2.282 . S
N557 C561 1.332 . S
N557 C562 1.332 . S
C558 C559 1.388 . S
C558 C562 1.382 . S
C558 H581 0.950 . S
C559 C558 1.388 . S
C559 C560 1.386 . S
C560 C559 1.386 . S
C560 C561 1.382 . S
C560 H582 0.950 . S
C561 N557 1.332 . S
C561 C560 1.382 . S
C561 H563 0.952 . S
C562 N557 1.332 . S
C562 C558 1.382 . S
C562 H564 0.948 . S
H563 C561 0.952 . S
H564 C562 0.948 . S
H565 C554 0.952 . S
H566 C556 0.948 . S
C567 C533 1.395 . S
C567 C537 1.391 . S
C568 C530 1.389 . S
C568 C550 1.392 . S
C569 C540 1.392 . S
C569 C542 1.389 . S
C570 C545 1.395 . S
C570 C547 1.391 . S
H571 C531 0.951 . S
H572 C532 0.950 . S
H573 C538 0.949 . S
H574 C539 0.950 . S
H575 C543 0.951 . S
H576 C544 0.950 . S
H577 C548 0.949 . S
H578 C549 0.950 . S
H579 C553 0.950 . S
H580 C555 0.950 . S
H581 C558 0.950 . S
H582 C560 0.950 . S
C583 C584 1.443 . S
C583 N587 1.376 . S
C583 C621 1.389 . S
C584 C583 1.443 . S
C584 C585 1.340 . S
C584 H624 0.951 . S
C585 C584 1.340 . S
C585 C586 1.439 . S
C585 H625 0.950 . S
C586 C585 1.439 . S
C586 N587 1.374 . S
C586 C620 1.395 . S
N587 C583 1.376 . S
N587 C586 1.374 . S
N587 Co588 2.008 . S
Co588 N587 2.008 . S
Co588 N589 1.995 . S
Co588 N594 2.008 . S
Co588 N599 1.995 . S
Co588 N604 2.282 . S
Co588 N610 2.282 . S
N589 Co588 1.995 . S
N589 C590 1.376 . S
N589 C593 1.383 . S
C590 N589 1.376 . S
C590 C591 1.446 . S
C590 C620 1.391 . S
C591 C590 1.446 . S
C591 C592 1.339 . S
C591 H626 0.949 . S
C592 C591 1.339 . S
C592 C593 1.439 . S
C592 H627 0.950 . S
C593 N589 1.383 . S
C593 C592 1.439 . S
C593 C622 1.392 . S
N594 Co588 2.008 . S
N594 C595 1.376 . S
N594 C598 1.374 . S
C595 N594 1.376 . S
C595 C596 1.443 . S
C595 C622 1.389 . S
C596 C595 1.443 . S
C596 C597 1.340 . S
C596 H628 0.951 . S
C597 C596 1.340 . S
C597 C598 1.439 . S
C597 H629 0.950 . S
C598 N594 1.374 . S
C598 C597 1.439 . S
C598 C623 1.395 . S
N599 Co588 1.995 . S
N599 C600 1.376 . S
N599 C603 1.383 . S
C600 N599 1.376 . S
C600 C601 1.446 . S
C600 C623 1.391 . S
C601 C600 1.446 . S
C601 C602 1.339 . S
C601 H630 0.949 . S
C602 C601 1.339 . S
C602 C603 1.439 . S
C602 H631 0.950 . S
C603 N599 1.383 . S
C603 C602 1.439 . S
C603 C621 1.392 . S
N604 Co588 2.282 . S
N604 C607 1.332 . S
N604 C609 1.332 . S
C605 C606 1.386 . S
C605 C608 1.388 . S
C606 C605 1.386 . S
C606 C607 1.382 . S
C606 H632 0.950 . S
C607 N604 1.332 . S
C607 C606 1.382 . S
C607 H618 0.952 . S
C608 C605 1.388 . S
C608 C609 1.382 . S
C608 H633 0.950 . S
C609 N604 1.332 . S
C609 C608 1.382 . S
C609 H619 0.948 . S
N610 Co588 2.282 . S
N610 C614 1.332 . S
N610 C615 1.332 . S
C611 C612 1.388 . S
C611 C615 1.382 . S
C611 H634 0.950 . S
C612 C611 1.388 . S
C612 C613 1.386 . S
C613 C612 1.386 . S
C613 C614 1.382 . S
C613 H635 0.950 . S
C614 N610 1.332 . S
C614 C613 1.382 . S
C614 H616 0.952 . S
C615 N610 1.332 . S
C615 C611 1.382 . S
C615 H617 0.948 . S
H616 C614 0.952 . S
H617 C615 0.948 . S
H618 C607 0.952 . S
H619 C609 0.948 . S
C620 C586 1.395 . S
C620 C590 1.391 . S
C621 C583 1.389 . S
C621 C603 1.392 . S
C622 C593 1.392 . S
C622 C595 1.389 . S
C623 C598 1.395 . S
C623 C600 1.391 . S
H624 C584 0.951 . S
H625 C585 0.950 . S
H626 C591 0.949 . S
H627 C592 0.950 . S
H628 C596 0.951 . S
H629 C597 0.950 . S
H630 C601 0.949 . S
H631 C602 0.950 . S
H632 C606 0.950 . S
H633 C608 0.950 . S
H634 C611 0.950 . S
H635 C613 0.950 . S
C636 C637 1.443 . S
C636 N640 1.376 . S
C636 C674 1.389 . S
C637 C636 1.443 . S
C637 C638 1.340 . S
C637 H677 0.951 . S
C638 C637 1.340 . S
C638 C639 1.439 . S
C638 H678 0.950 . S
C639 C638 1.439 . S
C639 N640 1.374 . S
C639 C673 1.395 . S
N640 C636 1.376 . S
N640 C639 1.374 . S
N640 Co641 2.008 . S
Co641 N640 2.008 . S
Co641 N642 1.995 . S
Co641 N647 2.008 . S
Co641 N652 1.995 . S
Co641 N657 2.282 . S
Co641 N663 2.282 . S
N642 Co641 1.995 . S
N642 C643 1.376 . S
N642 C646 1.383 . S
C643 N642 1.376 . S
C643 C644 1.446 . S
C643 C673 1.391 . S
C644 C643 1.446 . S
C644 C645 1.339 . S
C644 H679 0.949 . S
C645 C644 1.339 . S
C645 C646 1.439 . S
C645 H680 0.950 . S
C646 N642 1.383 . S
C646 C645 1.439 . S
C646 C675 1.392 . S
N647 Co641 2.008 . S
N647 C648 1.376 . S
N647 C651 1.374 . S
C648 N647 1.376 . S
C648 C649 1.443 . S
C648 C675 1.389 . S
C649 C648 1.443 . S
C649 C650 1.340 . S
C649 H681 0.951 . S
C650 C649 1.340 . S
C650 C651 1.439 . S
C650 H682 0.950 . S
C651 N647 1.374 . S
C651 C650 1.439 . S
C651 C676 1.395 . S
N652 Co641 1.995 . S
N652 C653 1.376 . S
N652 C656 1.383 . S
C653 N652 1.376 . S
C653 C654 1.446 . S
C653 C676 1.391 . S
C654 C653 1.446 . S
C654 C655 1.339 . S
C654 H683 0.949 . S
C655 C654 1.339 . S
C655 C656 1.439 . S
C655 H684 0.950 . S
C656 N652 1.383 . S
C656 C655 1.439 . S
C656 C674 1.392 . S
N657 Co641 2.282 . S
N657 C660 1.332 . S
N657 C662 1.332 . S
C658 C659 1.386 . S
C658 C661 1.388 . S
C659 C658 1.386 . S
C659 C660 1.382 . S
C659 H685 0.950 . S
C660 N657 1.332 . S
C660 C659 1.382 . S
C660 H671 0.952 . S
C661 C658 1.388 . S
C661 C662 1.382 . S
C661 H686 0.950 . S
C662 N657 1.332 . S
C662 C661 1.382 . S
C662 H672 0.948 . S
N663 Co641 2.282 . S
N663 C667 1.332 . S
N663 C668 1.332 . S
C664 C665 1.388 . S
C664 C668 1.382 . S
C664 H687 0.950 . S
C665 C664 1.388 . S
C665 C666 1.386 . S
C666 C665 1.386 . S
C666 C667 1.382 . S
C666 H688 0.950 . S
C667 N663 1.332 . S
C667 C666 1.382 . S
C667 H669 0.952 . S
C668 N663 1.332 . S
C668 C664 1.382 . S
C668 H670 0.948 . S
H669 C667 0.952 . S
H670 C668 0.948 . S
H671 C660 0.952 . S
H672 C662 0.948 . S
C673 C639 1.395 . S
C673 C643 1.391 . S
C674 C636 1.389 . S
C674 C656 1.392 . S
C675 C646 1.392 . S
C675 C648 1.389 . S
C676 C651 1.395 . S
C676 C653 1.391 . S
H677 C637 0.951 . S
H678 C638 0.950 . S
H679 C644 0.949 . S
H680 C645 0.950 . S
H681 C649 0.951 . S
H682 C650 0.950 . S
H683 C654 0.949 . S
H684 C655 0.950 . S
H685 C659 0.950 . S
H686 C661 0.950 . S
H687 C664 0.950 . S
H688 C666 0.950 . S
C689 C690 1.443 . S
C689 N693 1.376 . S
C689 C727 1.389 . S
C690 C689 1.443 . S
C690 C691 1.340 . S
C690 H730 0.951 . S
C691 C690 1.340 . S
C691 C692 1.439 . S
C691 H731 0.950 . S
C692 C691 1.439 . S
C692 N693 1.374 . S
C692 C726 1.395 . S
N693 C689 1.376 . S
N693 C692 1.374 . S
N693 Co694 2.008 . S
Co694 N693 2.008 . S
Co694 N695 1.995 . S
Co694 N700 2.008 . S
Co694 N705 1.995 . S
Co694 N710 2.282 . S
Co694 N716 2.282 . S
N695 Co694 1.995 . S
N695 C696 1.376 . S
N695 C699 1.383 . S
C696 N695 1.376 . S
C696 C697 1.446 . S
C696 C726 1.391 . S
C697 C696 1.446 . S
C697 C698 1.339 . S
C697 H732 0.949 . S
C698 C697 1.339 . S
C698 C699 1.439 . S
C698 H733 0.950 . S
C699 N695 1.383 . S
C699 C698 1.439 . S
C699 C728 1.392 . S
N700 Co694 2.008 . S
N700 C701 1.376 . S
N700 C704 1.374 . S
C701 N700 1.376 . S
C701 C702 1.443 . S
C701 C728 1.389 . S
C702 C701 1.443 . S
C702 C703 1.340 . S
C702 H734 0.951 . S
C703 C702 1.340 . S
C703 C704 1.439 . S
C703 H735 0.950 . S
C704 N700 1.374 . S
C704 C703 1.439 . S
C704 C729 1.395 . S
N705 Co694 1.995 . S
N705 C706 1.376 . S
N705 C709 1.383 . S
C706 N705 1.376 . S
C706 C707 1.446 . S
C706 C729 1.391 . S
C707 C706 1.446 . S
C707 C708 1.339 . S
C707 H736 0.949 . S
C708 C707 1.339 . S
C708 C709 1.439 . S
C708 H737 0.950 . S
C709 N705 1.383 . S
C709 C708 1.439 . S
C709 C727 1.392 . S
N710 Co694 2.282 . S
N710 C713 1.332 . S
N710 C715 1.332 . S
C711 C712 1.386 . S
C711 C714 1.388 . S
C712 C711 1.386 . S
C712 C713 1.382 . S
C712 H738 0.950 . S
C713 N710 1.332 . S
C713 C712 1.382 . S
C713 H724 0.952 . S
C714 C711 1.388 . S
C714 C715 1.382 . S
C714 H739 0.950 . S
C715 N710 1.332 . S
C715 C714 1.382 . S
C715 H725 0.948 . S
N716 Co694 2.282 . S
N716 C720 1.332 . S
N716 C721 1.332 . S
C717 C718 1.388 . S
C717 C721 1.382 . S
C717 H740 0.950 . S
C718 C717 1.388 . S
C718 C719 1.386 . S
C719 C718 1.386 . S
C719 C720 1.382 . S
C719 H741 0.950 . S
C720 N716 1.332 . S
C720 C719 1.382 . S
C720 H722 0.952 . S
C721 N716 1.332 . S
C721 C717 1.382 . S
C721 H723 0.948 . S
H722 C720 0.952 . S
H723 C721 0.948 . S
H724 C713 0.952 . S
H725 C715 0.948 . S
C726 C692 1.395 . S
C726 C696 1.391 . S
C727 C689 1.389 . S
C727 C709 1.392 . S
C728 C699 1.392 . S
C728 C701 1.389 . S
C729 C704 1.395 . S
C729 C706 1.391 . S
H730 C690 0.951 . S
H731 C691 0.950 . S
H732 C697 0.949 . S
H733 C698 0.950 . S
H734 C702 0.951 . S
H735 C703 0.950 . S
H736 C707 0.949 . S
H737 C708 0.950 . S
H738 C712 0.950 . S
H739 C714 0.950 . S
H740 C717 0.950 . S
H741 C719 0.950 . S
C742 C743 1.443 . S
C742 N746 1.376 . S
C742 C780 1.389 . S
C743 C742 1.443 . S
C743 C744 1.340 . S
C743 H783 0.951 . S
C744 C743 1.340 . S
C744 C745 1.439 . S
C744 H784 0.950 . S
C745 C744 1.439 . S
C745 N746 1.374 . S
C745 C779 1.395 . S
N746 C742 1.376 . S
N746 C745 1.374 . S
N746 Co747 2.008 . S
Co747 N746 2.008 . S
Co747 N748 1.995 . S
Co747 N753 2.008 . S
Co747 N758 1.995 . S
Co747 N763 2.282 . S
Co747 N769 2.282 . S
N748 Co747 1.995 . S
N748 C749 1.376 . S
N748 C752 1.383 . S
C749 N748 1.376 . S
C749 C750 1.446 . S
C749 C779 1.391 . S
C750 C749 1.446 . S
C750 C751 1.339 . S
C750 H785 0.949 . S
C751 C750 1.339 . S
C751 C752 1.439 . S
C751 H786 0.950 . S
C752 N748 1.383 . S
C752 C751 1.439 . S
C752 C781 1.392 . S
N753 Co747 2.008 . S
N753 C754 1.376 . S
N753 C757 1.374 . S
C754 N753 1.376 . S
C754 C755 1.443 . S
C754 C781 1.389 . S
C755 C754 1.443 . S
C755 C756 1.340 . S
C755 H787 0.951 . S
C756 C755 1.340 . S
C756 C757 1.439 . S
C756 H788 0.950 . S
C757 N753 1.374 . S
C757 C756 1.439 . S
C757 C782 1.395 . S
N758 Co747 1.995 . S
N758 C759 1.376 . S
N758 C762 1.383 . S
C759 N758 1.376 . S
C759 C760 1.446 . S
C759 C782 1.391 . S
C760 C759 1.446 . S
C760 C761 1.339 . S
C760 H789 0.949 . S
C761 C760 1.339 . S
C761 C762 1.439 . S
C761 H790 0.950 . S
C762 N758 1.383 . S
C762 C761 1.439 . S
C762 C780 1.392 . S
N763 Co747 2.282 . S
N763 C766 1.332 . S
N763 C768 1.332 . S
C764 C765 1.386 . S
C764 C767 1.388 . S
C765 C764 1.386 . S
C765 C766 1.382 . S
C765 H791 0.950 . S
C766 N763 1.332 . S
C766 C765 1.382 . S
C766 H777 0.952 . S
C767 C764 1.388 . S
C767 C768 1.382 . S
C767 H792 0.950 . S
C768 N763 1.332 . S
C768 C767 1.382 . S
C768 H778 0.948 . S
N769 Co747 2.282 . S
N769 C773 1.332 . S
N769 C774 1.332 . S
C770 C771 1.388 . S
C770 C774 1.382 . S
C770 H793 0.950 . S
C771 C770 1.388 . S
C771 C772 1.386 . S
C772 C771 1.386 . S
C772 C773 1.382 . S
C772 H794 0.950 . S
C773 N769 1.332 . S
C773 C772 1.382 . S
C773 H775 0.952 . S
C774 N769 1.332 . S
C774 C770 1.382 . S
C774 H776 0.948 . S
H775 C773 0.952 . S
H776 C774 0.948 . S
H777 C766 0.952 . S
H778 C768 0.948 . S
C779 C745 1.395 . S
C779 C749 1.391 . S
C780 C742 1.389 . S
C780 C762 1.392 . S
C781 C752 1.392 . S
C781 C754 1.389 . S
C782 C757 1.395 . S
C782 C759 1.391 . S
H783 C743 0.951 . S
H784 C744 0.950 . S
H785 C750 0.949 . S
H786 C751 0.950 . S
H787 C755 0.951 . S
H788 C756 0.950 . S
H789 C760 0.949 . S
H790 C761 0.950 . S
H791 C765 0.950 . S
H792 C767 0.950 . S
H793 C770 0.950 . S
H794 C772 0.950 . S
C795 C796 1.443 . S
C795 N799 1.376 . S
C795 C833 1.389 . S
C796 C795 1.443 . S
C796 C797 1.340 . S
C796 H836 0.951 . S
C797 C796 1.340 . S
C797 C798 1.439 . S
C797 H837 0.950 . S
C798 C797 1.439 . S
C798 N799 1.374 . S
C798 C832 1.395 . S
N799 C795 1.376 . S
N799 C798 1.374 . S
N799 Co800 2.008 . S
Co800 N799 2.008 . S
Co800 N801 1.995 . S
Co800 N806 2.008 . S
Co800 N811 1.995 . S
Co800 N816 2.282 . S
Co800 N822 2.282 . S
N801 Co800 1.995 . S
N801 C802 1.376 . S
N801 C805 1.383 . S
C802 N801 1.376 . S
C802 C803 1.446 . S
C802 C832 1.391 . S
C803 C802 1.446 . S
C803 C804 1.339 . S
C803 H838 0.949 . S
C804 C803 1.339 . S
C804 C805 1.439 . S
C804 H839 0.950 . S
C805 N801 1.383 . S
C805 C804 1.439 . S
C805 C834 1.392 . S
N806 Co800 2.008 . S
N806 C807 1.376 . S
N806 C810 1.374 . S
C807 N806 1.376 . S
C807 C808 1.443 . S
C807 C834 1.389 . S
C808 C807 1.443 . S
C808 C809 1.340 . S
C808 H840 0.951 . S
C809 C808 1.340 . S
C809 C810 1.439 . S
C809 H841 0.950 . S
C810 N806 1.374 . S
C810 C809 1.439 . S
C810 C835 1.395 . S
N811 Co800 1.995 . S
N811 C812 1.376 . S
N811 C815 1.383 . S
C812 N811 1.376 . S
C812 C813 1.446 . S
C812 C835 1.391 . S
C813 C812 1.446 . S
C813 C814 1.339 . S
C813 H842 0.949 . S
C814 C813 1.339 . S
C814 C815 1.439 . S
C814 H843 0.950 . S
C815 N811 1.383 . S
C815 C814 1.439 . S
C815 C833 1.392 . S
N816 Co800 2.282 . S
N816 C819 1.332 . S
N816 C821 1.332 . S
C817 C818 1.386 . S
C817 C820 1.388 . S
C818 C817 1.386 . S
C818 C819 1.382 . S
C818 H844 0.950 . S
C819 N816 1.332 . S
C819 C818 1.382 . S
C819 H830 0.952 . S
C820 C817 1.388 . S
C820 C821 1.382 . S
C820 H845 0.950 . S
C821 N816 1.332 . S
C821 C820 1.382 . S
C821 H831 0.948 . S
N822 Co800 2.282 . S
N822 C826 1.332 . S
N822 C827 1.332 . S
C823 C824 1.388 . S
C823 C827 1.382 . S
C823 H846 0.950 . S
C824 C823 1.388 . S
C824 C825 1.386 . S
C825 C824 1.386 . S
C825 C826 1.382 . S
C825 H847 0.950 . S
C826 N822 1.332 . S
C826 C825 1.382 . S
C826 H828 0.952 . S
C827 N822 1.332 . S
C827 C823 1.382 . S
C827 H829 0.948 . S
H828 C826 0.952 . S
H829 C827 0.948 . S
H830 C819 0.952 . S
H831 C821 0.948 . S
C832 C798 1.395 . S
C832 C802 1.391 . S
C833 C795 1.389 . S
C833 C815 1.392 . S
C834 C805 1.392 . S
C834 C807 1.389 . S
C835 C810 1.395 . S
C835 C812 1.391 . S
H836 C796 0.951 . S
H837 C797 0.950 . S
H838 C803 0.949 . S
H839 C804 0.950 . S
H840 C808 0.951 . S
H841 C809 0.950 . S
H842 C813 0.949 . S
H843 C814 0.950 . S
H844 C818 0.950 . S
H845 C820 0.950 . S
H846 C823 0.950 . S
H847 C825 0.950 . S
C848 C849 1.443 . S
C848 N852 1.376 . S
C848 C886 1.389 . S
C849 C848 1.443 . S
C849 C850 1.340 . S
C849 H889 0.951 . S
C850 C849 1.340 . S
C850 C851 1.439 . S
C850 H890 0.950 . S
C851 C850 1.439 . S
C851 N852 1.374 . S
C851 C885 1.395 . S
N852 C848 1.376 . S
N852 C851 1.374 . S
N852 Co853 2.008 . S
Co853 N852 2.008 . S
Co853 N854 1.995 . S
Co853 N859 2.008 . S
Co853 N864 1.995 . S
Co853 N869 2.282 . S
Co853 N875 2.282 . S
N854 Co853 1.995 . S
N854 C855 1.376 . S
N854 C858 1.383 . S
C855 N854 1.376 . S
C855 C856 1.446 . S
C855 C885 1.391 . S
C856 C855 1.446 . S
C856 C857 1.339 . S
C856 H891 0.949 . S
C857 C856 1.339 . S
C857 C858 1.439 . S
C857 H892 0.950 . S
C858 N854 1.383 . S
C858 C857 1.439 . S
C858 C887 1.392 . S
N859 Co853 2.008 . S
N859 C860 1.376 . S
N859 C863 1.374 . S
C860 N859 1.376 . S
C860 C861 1.443 . S
C860 C887 1.389 . S
C861 C860 1.443 . S
C861 C862 1.340 . S
C861 H893 0.951 . S
C862 C861 1.340 . S
C862 C863 1.439 . S
C862 H894 0.950 . S
C863 N859 1.374 . S
C863 C862 1.439 . S
C863 C888 1.395 . S
N864 Co853 1.995 . S
N864 C865 1.376 . S
N864 C868 1.383 . S
C865 N864 1.376 . S
C865 C866 1.446 . S
C865 C888 1.391 . S
C866 C865 1.446 . S
C866 C867 1.339 . S
C866 H895 0.949 . S
C867 C866 1.339 . S
C867 C868 1.439 . S
C867 H896 0.950 . S
C868 N864 1.383 . S
C868 C867 1.439 . S
C868 C886 1.392 . S
N869 Co853 2.282 . S
N869 C872 1.332 . S
N869 C874 1.332 . S
C870 C871 1.386 . S
C870 C873 1.388 . S
C871 C870 1.386 . S
C871 C872 1.382 . S
C871 H897 0.950 . S
C872 N869 1.332 . S
C872 C871 1.382 . S
C872 H883 0.952 . S
C873 C870 1.388 . S
C873 C874 1.382 . S
C873 H898 0.950 . S
C874 N869 1.332 . S
C874 C873 1.382 . S
C874 H884 0.948 . S
N875 Co853 2.282 . S
N875 C879 1.332 . S
N875 C880 1.332 . S
C876 C877 1.388 . S
C876 C880 1.382 . S
C876 H899 0.950 . S
C877 C876 1.388 . S
C877 C878 1.386 . S
C878 C877 1.386 . S
C878 C879 1.382 . S
C878 H900 0.950 . S
C879 N875 1.332 . S
C879 C878 1.382 . S
C879 H881 0.952 . S
C880 N875 1.332 . S
C880 C876 1.382 . S
C880 H882 0.948 . S
H881 C879 0.952 . S
H882 C880 0.948 . S
H883 C872 0.952 . S
H884 C874 0.948 . S
C885 C851 1.395 . S
C885 C855 1.391 . S
C886 C848 1.389 . S
C886 C868 1.392 . S
C887 C858 1.392 . S
C887 C860 1.389 . S
C888 C863 1.395 . S
C888 C865 1.391 . S
H889 C849 0.951 . S
H890 C850 0.950 . S
H891 C856 0.949 . S
H892 C857 0.950 . S
H893 C861 0.951 . S
H894 C862 0.950 . S
H895 C866 0.949 . S
H896 C867 0.950 . S
H897 C871 0.950 . S
H898 C873 0.950 . S
H899 C876 0.950 . S
H900 C878 0.950 . S
C901 C902 1.443 . S
C901 N905 1.376 . S
C901 C939 1.389 . S
C902 C901 1.443 . S
C902 C903 1.340 . S
C902 H942 0.951 . S
C903 C902 1.340 . S
C903 C904 1.439 . S
C903 H943 0.950 . S
C904 C903 1.439 . S
C904 N905 1.374 . S
C904 C938 1.395 . S
N905 C901 1.376 . S
N905 C904 1.374 . S
N905 Co906 2.008 . S
Co906 N905 2.008 . S
Co906 N907 1.995 . S
Co906 N912 2.008 . S
Co906 N917 1.995 . S
Co906 N922 2.282 . S
Co906 N928 2.282 . S
N907 Co906 1.995 . S
N907 C908 1.376 . S
N907 C911 1.383 . S
C908 N907 1.376 . S
C908 C909 1.446 . S
C908 C938 1.391 . S
C909 C908 1.446 . S
C909 C910 1.339 . S
C909 H944 0.949 . S
C910 C909 1.339 . S
C910 C911 1.439 . S
C910 H945 0.950 . S
C911 N907 1.383 . S
C911 C910 1.439 . S
C911 C940 1.392 . S
N912 Co906 2.008 . S
N912 C913 1.376 . S
N912 C916 1.374 . S
C913 N912 1.376 . S
C913 C914 1.443 . S
C913 C940 1.389 . S
C914 C913 1.443 . S
C914 C915 1.340 . S
C914 H946 0.951 . S
C915 C914 1.340 . S
C915 C916 1.439 . S
C915 H947 0.950 . S
C916 N912 1.374 . S
C916 C915 1.439 . S
C916 C941 1.395 . S
N917 Co906 1.995 . S
N917 C918 1.376 . S
N917 C921 1.383 . S
C918 N917 1.376 . S
C918 C919 1.446 . S
C918 C941 1.391 . S
C919 C918 1.446 . S
C919 C920 1.339 . S
C919 H948 0.949 . S
C920 C919 1.339 . S
C920 C921 1.439 . S
C920 H949 0.950 . S
C921 N917 1.383 . S
C921 C920 1.439 . S
C921 C939 1.392 . S
N922 Co906 2.282 . S
N922 C925 1.332 . S
N922 C927 1.332 . S
C923 C924 1.386 . S
C923 C926 1.388 . S
C924 C923 1.386 . S
C924 C925 1.382 . S
C924 H950 0.950 . S
C925 N922 1.332 . S
C925 C924 1.382 . S
C925 H936 0.952 . S
C926 C923 1.388 . S
C926 C927 1.382 . S
C926 H951 0.950 . S
C927 N922 1.332 . S
C927 C926 1.382 . S
C927 H937 0.948 . S
N928 Co906 2.282 . S
N928 C932 1.332 . S
N928 C933 1.332 . S
C929 C930 1.388 . S
C929 C933 1.382 . S
C929 H952 0.950 . S
C930 C929 1.388 . S
C930 C931 1.386 . S
C931 C930 1.386 . S
C931 C932 1.382 . S
C931 H953 0.950 . S
C932 N928 1.332 . S
C932 C931 1.382 . S
C932 H934 0.952 . S
C933 N928 1.332 . S
C933 C929 1.382 . S
C933 H935 0.948 . S
H934 C932 0.952 . S
H935 C933 0.948 . S
H936 C925 0.952 . S
H937 C927 0.948 . S
C938 C904 1.395 . S
C938 C908 1.391 . S
C939 C901 1.389 . S
C939 C921 1.392 . S
C940 C911 1.392 . S
C940 C913 1.389 . S
C941 C916 1.395 . S
C941 C918 1.391 . S
H942 C902 0.951 . S
H943 C903 0.950 . S
H944 C909 0.949 . S
H945 C910 0.950 . S
H946 C914 0.951 . S
H947 C915 0.950 . S
H948 C919 0.949 . S
H949 C920 0.950 . S
H950 C924 0.950 . S
H951 C926 0.950 . S
H952 C929 0.950 . S
H953 C931 0.950 . S
C954 C955 1.443 . S
C954 N958 1.376 . S
C954 C992 1.389 . S
C955 C954 1.443 . S
C955 C956 1.340 . S
C955 H995 0.951 . S
C956 C955 1.340 . S
C956 C957 1.439 . S
C956 H996 0.950 . S
C957 C956 1.439 . S
C957 N958 1.374 . S
C957 C991 1.395 . S
N958 C954 1.376 . S
N958 C957 1.374 . S
N958 Co959 2.008 . S
Co959 N958 2.008 . S
Co959 N960 1.995 . S
Co959 N965 2.008 . S
Co959 N970 1.995 . S
Co959 N975 2.282 . S
Co959 N981 2.282 . S
N960 Co959 1.995 . S
N960 C961 1.376 . S
N960 C964 1.383 . S
C961 N960 1.376 . S
C961 C962 1.446 . S
C961 C991 1.391 . S
C962 C961 1.446 . S
C962 C963 1.339 . S
C962 H997 0.949 . S
C963 C962 1.339 . S
C963 C964 1.439 . S
C963 H998 0.950 . S
C964 N960 1.383 . S
C964 C963 1.439 . S
C964 C993 1.392 . S
N965 Co959 2.008 . S
N965 C966 1.376 . S
N965 C969 1.374 . S
C966 N965 1.376 . S
C966 C967 1.443 . S
C966 C993 1.389 . S
C967 C966 1.443 . S
C967 C968 1.340 . S
C967 H999 0.951 . S
C968 C967 1.340 . S
C968 C969 1.439 . S
C968 H1000 0.950 . S
C969 N965 1.374 . S
C969 C968 1.439 . S
C969 C994 1.395 . S
N970 Co959 1.995 . S
N970 C971 1.376 . S
N970 C974 1.383 . S
C971 N970 1.376 . S
C971 C972 1.446 . S
C971 C994 1.391 . S
C972 C971 1.446 . S
C972 C973 1.339 . S
C972 H1001 0.949 . S
C973 C972 1.339 . S
C973 C974 1.439 . S
C973 H1002 0.950 . S
C974 N970 1.383 . S
C974 C973 1.439 . S
C974 C992 1.392 . S
N975 Co959 2.282 . S
N975 C978 1.332 . S
N975 C980 1.332 . S
C976 C977 1.386 . S
C976 C979 1.388 . S
C977 C976 1.386 . S
C977 C978 1.382 . S
C977 H1003 0.950 . S
C978 N975 1.332 . S
C978 C977 1.382 . S
C978 H989 0.952 . S
C979 C976 1.388 . S
C979 C980 1.382 . S
C979 H1004 0.950 . S
C980 N975 1.332 . S
C980 C979 1.382 . S
C980 H990 0.948 . S
N981 Co959 2.282 . S
N981 C985 1.332 . S
N981 C986 1.332 . S
C982 C983 1.388 . S
C982 C986 1.382 . S
C982 H1005 0.950 . S
C983 C982 1.388 . S
C983 C984 1.386 . S
C984 C983 1.386 . S
C984 C985 1.382 . S
C984 H1006 0.950 . S
C985 N981 1.332 . S
C985 C984 1.382 . S
C985 H987 0.952 . S
C986 N981 1.332 . S
C986 C982 1.382 . S
C986 H988 0.948 . S
H987 C985 0.952 . S
H988 C986 0.948 . S
H989 C978 0.952 . S
H990 C980 0.948 . S
C991 C957 1.395 . S
C991 C961 1.391 . S
C992 C954 1.389 . S
C992 C974 1.392 . S
C993 C964 1.392 . S
C993 C966 1.389 . S
C994 C969 1.395 . S
C994 C971 1.391 . S
H995 C955 0.951 . S
H996 C956 0.950 . S
H997 C962 0.949 . S
H998 C963 0.950 . S
H999 C967 0.951 . S
H1000 C968 0.950 . S
H1001 C972 0.949 . S
H1002 C973 0.950 . S
H1003 C977 0.950 . S
H1004 C979 0.950 . S
H1005 C982 0.950 . S
H1006 C984 0.950 . S
C1007 C1008 1.443 . S
C1007 N1011 1.376 . S
C1007 C1045 1.389 . S
C1008 C1007 1.443 . S
C1008 C1009 1.340 . S
C1008 H1048 0.951 . S
C1009 C1008 1.340 . S
C1009 C1010 1.439 . S
C1009 H1049 0.950 . S
C1010 C1009 1.439 . S
C1010 N1011 1.374 . S
C1010 C1044 1.395 . S
N1011 C1007 1.376 . S
N1011 C1010 1.374 . S
N1011 Co1012 2.008 . S
Co1012 N1011 2.008 . S
Co1012 N1013 1.995 . S
Co1012 N1018 2.008 . S
Co1012 N1023 1.995 . S
Co1012 N1028 2.282 . S
Co1012 N1034 2.282 . S
N1013 Co1012 1.995 . S
N1013 C1014 1.376 . S
N1013 C1017 1.383 . S
C1014 N1013 1.376 . S
C1014 C1015 1.446 . S
C1014 C1044 1.391 . S
C1015 C1014 1.446 . S
C1015 C1016 1.339 . S
C1015 H1050 0.949 . S
C1016 C1015 1.339 . S
C1016 C1017 1.439 . S
C1016 H1051 0.950 . S
C1017 N1013 1.383 . S
C1017 C1016 1.439 . S
C1017 C1046 1.392 . S
N1018 Co1012 2.008 . S
N1018 C1019 1.376 . S
N1018 C1022 1.374 . S
C1019 N1018 1.376 . S
C1019 C1020 1.443 . S
C1019 C1046 1.389 . S
C1020 C1019 1.443 . S
C1020 C1021 1.340 . S
C1020 H1052 0.951 . S
C1021 C1020 1.340 . S
C1021 C1022 1.439 . S
C1021 H1053 0.950 . S
C1022 N1018 1.374 . S
C1022 C1021 1.439 . S
C1022 C1047 1.395 . S
N1023 Co1012 1.995 . S
N1023 C1024 1.376 . S
N1023 C1027 1.383 . S
C1024 N1023 1.376 . S
C1024 C1025 1.446 . S
C1024 C1047 1.391 . S
C1025 C1024 1.446 . S
C1025 C1026 1.339 . S
C1025 H1054 0.949 . S
C1026 C1025 1.339 . S
C1026 C1027 1.439 . S
C1026 H1055 0.950 . S
C1027 N1023 1.383 . S
C1027 C1026 1.439 . S
C1027 C1045 1.392 . S
N1028 Co1012 2.282 . S
N1028 C1031 1.332 . S
N1028 C1033 1.332 . S
C1029 C1030 1.386 . S
C1029 C1032 1.388 . S
C1030 C1029 1.386 . S
C1030 C1031 1.382 . S
C1030 H1056 0.950 . S
C1031 N1028 1.332 . S
C1031 C1030 1.382 . S
C1031 H1042 0.952 . S
C1032 C1029 1.388 . S
C1032 C1033 1.382 . S
C1032 H1057 0.950 . S
C1033 N1028 1.332 . S
C1033 C1032 1.382 . S
C1033 H1043 0.948 . S
N1034 Co1012 2.282 . S
N1034 C1038 1.332 . S
N1034 C1039 1.332 . S
C1035 C1036 1.388 . S
C1035 C1039 1.382 . S
C1035 H1058 0.950 . S
C1036 C1035 1.388 . S
C1036 C1037 1.386 . S
C1037 C1036 1.386 . S
C1037 C1038 1.382 . S
C1037 H1059 0.950 . S
C1038 N1034 1.332 . S
C1038 C1037 1.382 . S
C1038 H1040 0.952 . S
C1039 N1034 1.332 . S
C1039 C1035 1.382 . S
C1039 H1041 0.948 . S
H1040 C1038 0.952 . S
H1041 C1039 0.948 . S
H1042 C1031 0.952 . S
H1043 C1033 0.948 . S
C1044 C1010 1.395 . S
C1044 C1014 1.391 . S
C1045 C1007 1.389 . S
C1045 C1027 1.392 . S
C1046 C1017 1.392 . S
C1046 C1019 1.389 . S
C1047 C1022 1.395 . S
C1047 C1024 1.391 . S
H1048 C1008 0.951 . S
H1049 C1009 0.950 . S
H1050 C1015 0.949 . S
H1051 C1016 0.950 . S
H1052 C1020 0.951 . S
H1053 C1021 0.950 . S
H1054 C1025 0.949 . S
H1055 C1026 0.950 . S
H1056 C1030 0.950 . S
H1057 C1032 0.950 . S
H1058 C1035 0.950 . S
H1059 C1037 0.950 . S
C1060 C1061 1.443 . S
C1060 N1064 1.376 . S
C1060 C1098 1.389 . S
C1061 C1060 1.443 . S
C1061 C1062 1.340 . S
C1061 H1101 0.951 . S
C1062 C1061 1.340 . S
C1062 C1063 1.439 . S
C1062 H1102 0.950 . S
C1063 C1062 1.439 . S
C1063 N1064 1.374 . S
C1063 C1097 1.395 . S
N1064 C1060 1.376 . S
N1064 C1063 1.374 . S
N1064 Co1065 2.008 . S
Co1065 N1064 2.008 . S
Co1065 N1066 1.995 . S
Co1065 N1071 2.008 . S
Co1065 N1076 1.995 . S
Co1065 N1081 2.282 . S
Co1065 N1087 2.282 . S
N1066 Co1065 1.995 . S
N1066 C1067 1.376 . S
N1066 C1070 1.383 . S
C1067 N1066 1.376 . S
C1067 C1068 1.446 . S
C1067 C1097 1.391 . S
C1068 C1067 1.446 . S
C1068 C1069 1.339 . S
C1068 H1103 0.949 . S
C1069 C1068 1.339 . S
C1069 C1070 1.439 . S
C1069 H1104 0.950 . S
C1070 N1066 1.383 . S
C1070 C1069 1.439 . S
C1070 C1099 1.392 . S
N1071 Co1065 2.008 . S
N1071 C1072 1.376 . S
N1071 C1075 1.374 . S
C1072 N1071 1.376 . S
C1072 C1073 1.443 . S
C1072 C1099 1.389 . S
C1073 C1072 1.443 . S
C1073 C1074 1.340 . S
C1073 H1105 0.951 . S
C1074 C1073 1.340 . S
C1074 C1075 1.439 . S
C1074 H1106 0.950 . S
C1075 N1071 1.374 . S
C1075 C1074 1.439 . S
C1075 C1100 1.395 . S
N1076 Co1065 1.995 . S
N1076 C1077 1.376 . S
N1076 C1080 1.383 . S
C1077 N1076 1.376 . S
C1077 C1078 1.446 . S
C1077 C1100 1.391 . S
C1078 C1077 1.446 . S
C1078 C1079 1.339 . S
C1078 H1107 0.949 . S
C1079 C1078 1.339 . S
C1079 C1080 1.439 . S
C1079 H1108 0.950 . S
C1080 N1076 1.383 . S
C1080 C1079 1.439 . S
C1080 C1098 1.392 . S
N1081 Co1065 2.282 . S
N1081 C1084 1.332 . S
N1081 C1086 1.332 . S
C1082 C1083 1.386 . S
C1082 C1085 1.388 . S
C1083 C1082 1.386 . S
C1083 C1084 1.382 . S
C1083 H1109 0.950 . S
C1084 N1081 1.332 . S
C1084 C1083 1.382 . S
C1084 H1095 0.952 . S
C1085 C1082 1.388 . S
C1085 C1086 1.382 . S
C1085 H1110 0.950 . S
C1086 N1081 1.332 . S
C1086 C1085 1.382 . S
C1086 H1096 0.948 . S
N1087 Co1065 2.282 . S
N1087 C1091 1.332 . S
N1087 C1092 1.332 . S
C1088 C1089 1.388 . S
C1088 C1092 1.382 . S
C1088 H1111 0.950 . S
C1089 C1088 1.388 . S
C1089 C1090 1.386 . S
C1090 C1089 1.386 . S
C1090 C1091 1.382 . S
C1090 H1112 0.950 . S
C1091 N1087 1.332 . S
C1091 C1090 1.382 . S
C1091 H1093 0.952 . S
C1092 N1087 1.332 . S
C1092 C1088 1.382 . S
C1092 H1094 0.948 . S
H1093 C1091 0.952 . S
H1094 C1092 0.948 . S
H1095 C1084 0.952 . S
H1096 C1086 0.948 . S
C1097 C1063 1.395 . S
C1097 C1067 1.391 . S
C1098 C1060 1.389 . S
C1098 C1080 1.392 . S
C1099 C1070 1.392 . S
C1099 C1072 1.389 . S
C1100 C1075 1.395 . S
C1100 C1077 1.391 . S
H1101 C1061 0.951 . S
H1102 C1062 0.950 . S
H1103 C1068 0.949 . S
H1104 C1069 0.950 . S
H1105 C1073 0.951 . S
H1106 C1074 0.950 . S
H1107 C1078 0.949 . S
H1108 C1079 0.950 . S
H1109 C1083 0.950 . S
H1110 C1085 0.950 . S
H1111 C1088 0.950 . S
H1112 C1090 0.950 . S
C1113 C1114 1.443 . S
C1113 N1117 1.376 . S
C1113 C1151 1.389 . S
C1114 C1113 1.443 . S
C1114 C1115 1.340 . S
C1114 H1154 0.951 . S
C1115 C1114 1.340 . S
C1115 C1116 1.439 . S
C1115 H1155 0.950 . S
C1116 C1115 1.439 . S
C1116 N1117 1.374 . S
C1116 C1150 1.395 . S
N1117 C1113 1.376 . S
N1117 C1116 1.374 . S
N1117 Co1118 2.008 . S
Co1118 N1117 2.008 . S
Co1118 N1119 1.995 . S
Co1118 N1124 2.008 . S
Co1118 N1129 1.995 . S
Co1118 N1134 2.282 . S
Co1118 N1140 2.282 . S
N1119 Co1118 1.995 . S
N1119 C1120 1.376 . S
N1119 C1123 1.383 . S
C1120 N1119 1.376 . S
C1120 C1121 1.446 . S
C1120 C1150 1.391 . S
C1121 C1120 1.446 . S
C1121 C1122 1.339 . S
C1121 H1156 0.949 . S
C1122 C1121 1.339 . S
C1122 C1123 1.439 . S
C1122 H1157 0.950 . S
C1123 N1119 1.383 . S
C1123 C1122 1.439 . S
C1123 C1152 1.392 . S
N1124 Co1118 2.008 . S
N1124 C1125 1.376 . S
N1124 C1128 1.374 . S
C1125 N1124 1.376 . S
C1125 C1126 1.443 . S
C1125 C1152 1.389 . S
C1126 C1125 1.443 . S
C1126 C1127 1.340 . S
C1126 H1158 0.951 . S
C1127 C1126 1.340 . S
C1127 C1128 1.439 . S
C1127 H1159 0.950 . S
C1128 N1124 1.374 . S
C1128 C1127 1.439 . S
C1128 C1153 1.395 . S
N1129 Co1118 1.995 . S
N1129 C1130 1.376 . S
N1129 C1133 1.383 . S
C1130 N1129 1.376 . S
C1130 C1131 1.446 . S
C1130 C1153 1.391 . S
C1131 C1130 1.446 . S
C1131 C1132 1.339 . S
C1131 H1160 0.949 . S
C1132 C1131 1.339 . S
C1132 C1133 1.439 . S
C1132 H1161 0.950 . S
C1133 N1129 1.383 . S
C1133 C1132 1.439 . S
C1133 C1151 1.392 . S
N1134 Co1118 2.282 . S
N1134 C1137 1.332 . S
N1134 C1139 1.332 . S
C1135 C1136 1.386 . S
C1135 C1138 1.388 . S
C1136 C1135 1.386 . S
C1136 C1137 1.382 . S
C1136 H1162 0.950 . S
C1137 N1134 1.332 . S
C1137 C1136 1.382 . S
C1137 H1148 0.952 . S
C1138 C1135 1.388 . S
C1138 C1139 1.382 . S
C1138 H1163 0.950 . S
C1139 N1134 1.332 . S
C1139 C1138 1.382 . S
C1139 H1149 0.948 . S
N1140 Co1118 2.282 . S
N1140 C1144 1.332 . S
N1140 C1145 1.332 . S
C1141 C1142 1.388 . S
C1141 C1145 1.382 . S
C1141 H1164 0.950 . S
C1142 C1141 1.388 . S
C1142 C1143 1.386 . S
C1143 C1142 1.386 . S
C1143 C1144 1.382 . S
C1143 H1165 0.950 . S
C1144 N1140 1.332 . S
C1144 C1143 1.382 . S
C1144 H1146 0.952 . S
C1145 N1140 1.332 . S
C1145 C1141 1.382 . S
C1145 H1147 0.948 . S
H1146 C1144 0.952 . S
H1147 C1145 0.948 . S
H1148 C1137 0.952 . S
H1149 C1139 0.948 . S
C1150 C1116 1.395 . S
C1150 C1120 1.391 . S
C1151 C1113 1.389 . S
C1151 C1133 1.392 . S
C1152 C1123 1.392 . S
C1152 C1125 1.389 . S
C1153 C1128 1.395 . S
C1153 C1130 1.391 . S
H1154 C1114 0.951 . S
H1155 C1115 0.950 . S
H1156 C1121 0.949 . S
H1157 C1122 0.950 . S
H1158 C1126 0.951 . S
H1159 C1127 0.950 . S
H1160 C1131 0.949 . S
H1161 C1132 0.950 . S
H1162 C1136 0.950 . S
H1163 C1138 0.950 . S
H1164 C1141 0.950 . S
H1165 C1143 0.950 . S
C1166 C1167 1.443 . S
C1166 N1170 1.376 . S
C1166 C1204 1.389 . S
C1167 C1166 1.443 . S
C1167 C1168 1.340 . S
C1167 H1207 0.951 . S
C1168 C1167 1.340 . S
C1168 C1169 1.439 . S
C1168 H1208 0.950 . S
C1169 C1168 1.439 . S
C1169 N1170 1.374 . S
C1169 C1203 1.395 . S
N1170 C1166 1.376 . S
N1170 C1169 1.374 . S
N1170 Co1171 2.008 . S
Co1171 N1170 2.008 . S
Co1171 N1172 1.995 . S
Co1171 N1177 2.008 . S
Co1171 N1182 1.995 . S
Co1171 N1187 2.282 . S
Co1171 N1193 2.282 . S
N1172 Co1171 1.995 . S
N1172 C1173 1.376 . S
N1172 C1176 1.383 . S
C1173 N1172 1.376 . S
C1173 C1174 1.446 . S
C1173 C1203 1.391 . S
C1174 C1173 1.446 . S
C1174 C1175 1.339 . S
C1174 H1209 0.949 . S
C1175 C1174 1.339 . S
C1175 C1176 1.439 . S
C1175 H1210 0.950 . S
C1176 N1172 1.383 . S
C1176 C1175 1.439 . S
C1176 C1205 1.392 . S
N1177 Co1171 2.008 . S
N1177 C1178 1.376 . S
N1177 C1181 1.374 . S
C1178 N1177 1.376 . S
C1178 C1179 1.443 . S
C1178 C1205 1.389 . S
C1179 C1178 1.443 . S
C1179 C1180 1.340 . S
C1179 H1211 0.951 . S
C1180 C1179 1.340 . S
C1180 C1181 1.439 . S
C1180 H1212 0.950 . S
C1181 N1177 1.374 . S
C1181 C1180 1.439 . S
C1181 C1206 1.395 . S
N1182 Co1171 1.995 . S
N1182 C1183 1.376 . S
N1182 C1186 1.383 . S
C1183 N1182 1.376 . S
C1183 C1184 1.446 . S
C1183 C1206 1.391 . S
C1184 C1183 1.446 . S
C1184 C1185 1.339 . S
C1184 H1213 0.949 . S
C1185 C1184 1.339 . S
C1185 C1186 1.439 . S
C1185 H1214 0.950 . S
C1186 N1182 1.383 . S
C1186 C1185 1.439 . S
C1186 C1204 1.392 . S
N1187 Co1171 2.282 . S
N1187 C1190 1.332 . S
N1187 C1192 1.332 . S
C1188 C1189 1.386 . S
C1188 C1191 1.388 . S
C1189 C1188 1.386 . S
C1189 C1190 1.382 . S
C1189 H1215 0.950 . S
C1190 N1187 1.332 . S
C1190 C1189 1.382 . S
C1190 H1201 0.952 . S
C1191 C1188 1.388 . S
C1191 C1192 1.382 . S
C1191 H1216 0.950 . S
C1192 N1187 1.332 . S
C1192 C1191 1.382 . S
C1192 H1202 0.948 . S
N1193 Co1171 2.282 . S
N1193 C1197 1.332 . S
N1193 C1198 1.332 . S
C1194 C1195 1.388 . S
C1194 C1198 1.382 . S
C1194 H1217 0.950 . S
C1195 C1194 1.388 . S
C1195 C1196 1.386 . S
C1196 C1195 1.386 . S
C1196 C1197 1.382 . S
C1196 H1218 0.950 . S
C1197 N1193 1.332 . S
C1197 C1196 1.382 . S
C1197 H1199 0.952 . S
C1198 N1193 1.332 . S
C1198 C1194 1.382 . S
C1198 H1200 0.948 . S
H1199 C1197 0.952 . S
H1200 C1198 0.948 . S
H1201 C1190 0.952 . S
H1202 C1192 0.948 . S
C1203 C1169 1.395 . S
C1203 C1173 1.391 . S
C1204 C1166 1.389 . S
C1204 C1186 1.392 . S
C1205 C1176 1.392 . S
C1205 C1178 1.389 . S
C1206 C1181 1.395 . S
C1206 C1183 1.391 . S
H1207 C1167 0.951 . S
H1208 C1168 0.950 . S
H1209 C1174 0.949 . S
H1210 C1175 0.950 . S
H1211 C1179 0.951 . S
H1212 C1180 0.950 . S
H1213 C1184 0.949 . S
H1214 C1185 0.950 . S
H1215 C1189 0.950 . S
H1216 C1191 0.950 . S
H1217 C1194 0.950 . S
H1218 C1196 0.950 . S
C1219 C1220 1.443 . S
C1219 N1223 1.376 . S
C1219 C1257 1.389 . S
C1220 C1219 1.443 . S
C1220 C1221 1.340 . S
C1220 H1260 0.951 . S
C1221 C1220 1.340 . S
C1221 C1222 1.439 . S
C1221 H1261 0.950 . S
C1222 C1221 1.439 . S
C1222 N1223 1.374 . S
C1222 C1256 1.395 . S
N1223 C1219 1.376 . S
N1223 C1222 1.374 . S
N1223 Co1224 2.008 . S
Co1224 N1223 2.008 . S
Co1224 N1225 1.995 . S
Co1224 N1230 2.008 . S
Co1224 N1235 1.995 . S
Co1224 N1240 2.282 . S
Co1224 N1246 2.282 . S
N1225 Co1224 1.995 . S
N1225 C1226 1.376 . S
N1225 C1229 1.383 . S
C1226 N1225 1.376 . S
C1226 C1227 1.446 . S
C1226 C1256 1.391 . S
C1227 C1226 1.446 . S
C1227 C1228 1.339 . S
C1227 H1262 0.949 . S
C1228 C1227 1.339 . S
C1228 C1229 1.439 . S
C1228 H1263 0.950 . S
C1229 N1225 1.383 . S
C1229 C1228 1.439 . S
C1229 C1258 1.392 . S
N1230 Co1224 2.008 . S
N1230 C1231 1.376 . S
N1230 C1234 1.374 . S
C1231 N1230 1.376 . S
C1231 C1232 1.443 . S
C1231 C1258 1.389 . S
C1232 C1231 1.443 . S
C1232 C1233 1.340 . S
C1232 H1264 0.951 . S
C1233 C1232 1.340 . S
C1233 C1234 1.439 . S
C1233 H1265 0.950 . S
C1234 N1230 1.374 . S
C1234 C1233 1.439 . S
C1234 C1259 1.395 . S
N1235 Co1224 1.995 . S
N1235 C1236 1.376 . S
N1235 C1239 1.383 . S
C1236 N1235 1.376 . S
C1236 C1237 1.446 . S
C1236 C1259 1.391 . S
C1237 C1236 1.446 . S
C1237 C1238 1.339 . S
C1237 H1266 0.949 . S
C1238 C1237 1.339 . S
C1238 C1239 1.439 . S
C1238 H1267 0.950 . S
C1239 N1235 1.383 . S
C1239 C1238 1.439 . S
C1239 C1257 1.392 . S
N1240 Co1224 2.282 . S
N1240 C1243 1.332 . S
N1240 C1245 1.332 . S
C1241 C1242 1.386 . S
C1241 C1244 1.388 . S
C1242 C1241 1.386 . S
C1242 C1243 1.382 . S
C1242 H1268 0.950 . S
C1243 N1240 1.332 . S
C1243 C1242 1.382 . S
C1243 H1254 0.952 . S
C1244 C1241 1.388 . S
C1244 C1245 1.382 . S
C1244 H1269 0.950 . S
C1245 N1240 1.332 . S
C1245 C1244 1.382 . S
C1245 H1255 0.948 . S
N1246 Co1224 2.282 . S
N1246 C1250 1.332 . S
N1246 C1251 1.332 . S
C1247 C1248 1.388 . S
C1247 C1251 1.382 . S
C1247 H1270 0.950 . S
C1248 C1247 1.388 . S
C1248 C1249 1.386 . S
C1249 C1248 1.386 . S
C1249 C1250 1.382 . S
C1249 H1271 0.950 . S
C1250 N1246 1.332 . S
C1250 C1249 1.382 . S
C1250 H1252 0.952 . S
C1251 N1246 1.332 . S
C1251 C1247 1.382 . S
C1251 H1253 0.948 . S
H1252 C1250 0.952 . S
H1253 C1251 0.948 . S
H1254 C1243 0.952 . S
H1255 C1245 0.948 . S
C1256 C1222 1.395 . S
C1256 C1226 1.391 . S
C1257 C1219 1.389 . S
C1257 C1239 1.392 . S
C1258 C1229 1.392 . S
C1258 C1231 1.389 . S
C1259 C1234 1.395 . S
C1259 C1236 1.391 . S
H1260 C1220 0.951 . S
H1261 C1221 0.950 . S
H1262 C1227 0.949 . S
H1263 C1228 0.950 . S
H1264 C1232 0.951 . S
H1265 C1233 0.950 . S
H1266 C1237 0.949 . S
H1267 C1238 0.950 . S
H1268 C1242 0.950 . S
H1269 C1244 0.950 . S
H1270 C1247 0.950 . S
H1271 C1249 0.950 . S
C1272 C1273 1.391 . S
C1272 C1274 1.394 . S
C1272 H1288 0.931 . S
C1273 C1272 1.391 . S
C1273 C1277 1.376 . S
C1274 C1272 1.394 . S
C1274 C1275 1.369 . S
C1274 C1278 1.531 . S
C1275 C1274 1.369 . S
C1275 C1276 1.410 . S
C1275 C1283 1.503 . S
C1276 C1275 1.410 . S
C1276 C1277 1.392 . S
C1276 C1279 1.511 . S
C1277 C1273 1.376 . S
C1277 C1276 1.392 . S
C1277 H1289 0.929 . S
C1278 C1274 1.531 . S
C1278 H1290 0.960 . S
C1278 H1291 0.962 . S
C1278 H1292 0.960 . S
C1279 C1276 1.511 . S
C1279 H1293 0.961 . S
C1279 H1294 0.961 . S
C1279 H1295 0.961 . S
C1280 C1281 1.370 . S
C1280 C1282 1.363 . S
C1280 H1296 0.931 . S
C1281 C1280 1.370 . S
C1281 C1285 1.408 . S
C1282 C1280 1.363 . S
C1282 C1283 1.370 . S
C1282 C1286 1.524 . S
C1283 C1275 1.503 . S
C1283 C1282 1.370 . S
C1283 C1284 1.403 . S
C1284 C1283 1.403 . S
C1284 C1285 1.404 . S
C1284 C1287 1.539 . S
C1285 C1281 1.408 . S
C1285 C1284 1.404 . S
C1285 H1297 0.930 . S
C1286 C1282 1.524 . S
C1286 H1298 0.956 . S
C1286 H1299 0.961 . S
C1286 H1300 0.961 . S
C1287 C1284 1.539 . S
C1287 H1301 0.958 . S
C1287 H1302 0.961 . S
C1287 H1303 0.960 . S
H1288 C1272 0.931 . S
H1289 C1277 0.929 . S
H1290 C1278 0.960 . S
H1291 C1278 0.962 . S
H1292 C1278 0.960 . S
H1293 C1279 0.961 . S
H1294 C1279 0.961 . S
H1295 C1279 0.961 . S
H1296 C1280 0.931 . S
H1297 C1285 0.930 . S
H1298 C1286 0.956 . S
H1299 C1286 0.961 . S
H1300 C1286 0.961 . S
H1301 C1287 0.958 . S
H1302 C1287 0.961 . S
H1303 C1287 0.960 . S
C1304 C1305 1.391 . S
C1304 C1306 1.394 . S
C1304 H1320 0.931 . S
C1305 C1304 1.391 . S
C1305 C1309 1.376 . S
C1306 C1304 1.394 . S
C1306 C1307 1.369 . S
C1306 C1310 1.531 . S
C1307 C1306 1.369 . S
C1307 C1308 1.410 . S
C1307 C1315 1.503 . S
C1308 C1307 1.410 . S
C1308 C1309 1.392 . S
C1308 C1311 1.511 . S
C1309 C1305 1.376 . S
C1309 C1308 1.392 . S
C1309 H1321 0.929 . S
C1310 C1306 1.531 . S
C1310 H1322 0.960 . S
C1310 H1323 0.962 . S
C1310 H1324 0.960 . S
C1311 C1308 1.511 . S
C1311 H1325 0.961 . S
C1311 H1326 0.961 . S
C1311 H1327 0.961 . S
C1312 C1313 1.370 . S
C1312 C1314 1.363 . S
C1312 H1328 0.931 . S
C1313 C1312 1.370 . S
C1313 C1317 1.408 . S
C1314 C1312 1.363 . S
C1314 C1315 1.370 . S
C1314 C1318 1.524 . S
C1315 C1307 1.503 . S
C1315 C1314 1.370 . S
C1315 C1316 1.403 . S
C1316 C1315 1.403 . S
C1316 C1317 1.404 . S
C1316 C1319 1.539 . S
C1317 C1313 1.408 . S
C1317 C1316 1.404 . S
C1317 H1329 0.930 . S
C1318 C1314 1.524 . S
C1318 H1330 0.956 . S
C1318 H1331 0.961 . S
C1318 H1332 0.961 . S
C1319 C1316 1.539 . S
C1319 H1333 0.958 . S
C1319 H1334 0.961 . S
C1319 H1335 0.960 . S
H1320 C1304 0.931 . S
H1321 C1309 0.929 . S
H1322 C1310 0.960 . S
H1323 C1310 0.962 . S
H1324 C1310 0.960 . S
H1325 C1311 0.961 . S
H1326 C1311 0.961 . S
H1327 C1311 0.961 . S
H1328 C1312 0.931 . S
H1329 C1317 0.930 . S
H1330 C1318 0.956 . S
H1331 C1318 0.961 . S
H1332 C1318 0.961 . S
H1333 C1319 0.958 . S
H1334 C1319 0.961 . S
H1335 C1319 0.960 . S
C1336 C1337 1.391 . S
C1336 C1338 1.394 . S
C1336 H1352 0.931 . S
C1337 C1336 1.391 . S
C1337 C1341 1.376 . S
C1338 C1336 1.394 . S
C1338 C1339 1.369 . S
C1338 C1342 1.531 . S
C1339 C1338 1.369 . S
C1339 C1340 1.410 . S
C1339 C1347 1.503 . S
C1340 C1339 1.410 . S
C1340 C1341 1.392 . S
C1340 C1343 1.511 . S
C1341 C1337 1.376 . S
C1341 C1340 1.392 . S
C1341 H1353 0.929 . S
C1342 C1338 1.531 . S
C1342 H1354 0.960 . S
C1342 H1355 0.962 . S
C1342 H1356 0.960 . S
C1343 C1340 1.511 . S
C1343 H1357 0.961 . S
C1343 H1358 0.961 . S
C1343 H1359 0.961 . S
C1344 C1345 1.370 . S
C1344 C1346 1.363 . S
C1344 H1360 0.931 . S
C1345 C1344 1.370 . S
C1345 C1349 1.408 . S
C1346 C1344 1.363 . S
C1346 C1347 1.370 . S
C1346 C1350 1.524 . S
C1347 C1339 1.503 . S
C1347 C1346 1.370 . S
C1347 C1348 1.403 . S
C1348 C1347 1.403 . S
C1348 C1349 1.404 . S
C1348 C1351 1.539 . S
C1349 C1345 1.408 . S
C1349 C1348 1.404 . S
C1349 H1361 0.930 . S
C1350 C1346 1.524 . S
C1350 H1362 0.956 . S
C1350 H1363 0.961 . S
C1350 H1364 0.961 . S
C1351 C1348 1.539 . S
C1351 H1365 0.958 . S
C1351 H1366 0.961 . S
C1351 H1367 0.960 . S
H1352 C1336 0.931 . S
H1353 C1341 0.929 . S
H1354 C1342 0.960 . S
H1355 C1342 0.962 . S
H1356 C1342 0.960 . S
H1357 C1343 0.961 . S
H1358 C1343 0.961 . S
H1359 C1343 0.961 . S
H1360 C1344 0.931 . S
H1361 C1349 0.930 . S
H1362 C1350 0.956 . S
H1363 C1350 0.961 . S
H1364 C1350 0.961 . S
H1365 C1351 0.958 . S
H1366 C1351 0.961 . S
H1367 C1351 0.960 . S
C1368 C1369 1.391 . S
C1368 C1370 1.394 . S
C1368 H1384 0.931 . S
C1369 C1368 1.391 . S
C1369 C1373 1.376 . S
C1370 C1368 1.394 . S
C1370 C1371 1.369 . S
C1370 C1374 1.531 . S
C1371 C1370 1.369 . S
C1371 C1372 1.410 . S
C1371 C1379 1.503 . S
C1372 C1371 1.410 . S
C1372 C1373 1.392 . S
C1372 C1375 1.511 . S
C1373 C1369 1.376 . S
C1373 C1372 1.392 . S
C1373 H1385 0.929 . S
C1374 C1370 1.531 . S
C1374 H1386 0.960 . S
C1374 H1387 0.962 . S
C1374 H1388 0.960 . S
C1375 C1372 1.511 . S
C1375 H1389 0.961 . S
C1375 H1390 0.961 . S
C1375 H1391 0.961 . S
C1376 C1377 1.370 . S
C1376 C1378 1.363 . S
C1376 H1392 0.931 . S
C1377 C1376 1.370 . S
C1377 C1381 1.408 . S
C1378 C1376 1.363 . S
C1378 C1379 1.370 . S
C1378 C1382 1.524 . S
C1379 C1371 1.503 . S
C1379 C1378 1.370 . S
C1379 C1380 1.403 . S
C1380 C1379 1.403 . S
C1380 C1381 1.404 . S
C1380 C1383 1.539 . S
C1381 C1377 1.408 . S
C1381 C1380 1.404 . S
C1381 H1393 0.930 . S
C1382 C1378 1.524 . S
C1382 H1394 0.956 . S
C1382 H1395 0.961 . S
C1382 H1396 0.961 . S
C1383 C1380 1.539 . S
C1383 H1397 0.958 . S
C1383 H1398 0.961 . S
C1383 H1399 0.960 . S
H1384 C1368 0.931 . S
H1385 C1373 0.929 . S
H1386 C1374 0.960 . S
H1387 C1374 0.962 . S
H1388 C1374 0.960 . S
H1389 C1375 0.961 . S
H1390 C1375 0.961 . S
H1391 C1375 0.961 . S
H1392 C1376 0.931 . S
H1393 C1381 0.930 . S
H1394 C1382 0.956 . S
H1395 C1382 0.961 . S
H1396 C1382 0.961 . S
H1397 C1383 0.958 . S
H1398 C1383 0.961 . S
H1399 C1383 0.960 . S
C1400 C1401 1.391 . S
C1400 C1402 1.394 . S
C1400 H1416 0.931 . S
C1401 C1400 1.391 . S
C1401 C1405 1.376 . S
C1402 C1400 1.394 . S
C1402 C1403 1.369 . S
C1402 C1406 1.531 . S
C1403 C1402 1.369 . S
C1403 C1404 1.410 . S
C1403 C1411 1.503 . S
C1404 C1403 1.410 . S
C1404 C1405 1.392 . S
C1404 C1407 1.511 . S
C1405 C1401 1.376 . S
C1405 C1404 1.392 . S
C1405 H1417 0.929 . S
C1406 C1402 1.531 . S
C1406 H1418 0.960 . S
C1406 H1419 0.962 . S
C1406 H1420 0.960 . S
C1407 C1404 1.511 . S
C1407 H1421 0.961 . S
C1407 H1422 0.961 . S
C1407 H1423 0.961 . S
C1408 C1409 1.370 . S
C1408 C1410 1.363 . S
C1408 H1424 0.931 . S
C1409 C1408 1.370 . S
C1409 C1413 1.408 . S
C1410 C1408 1.363 . S
C1410 C1411 1.370 . S
C1410 C1414 1.524 . S
C1411 C1403 1.503 . S
C1411 C1410 1.370 . S
C1411 C1412 1.403 . S
C1412 C1411 1.403 . S
C1412 C1413 1.404 . S
C1412 C1415 1.539 . S
C1413 C1409 1.408 . S
C1413 C1412 1.404 . S
C1413 H1425 0.930 . S
C1414 C1410 1.524 . S
C1414 H1426 0.956 . S
C1414 H1427 0.961 . S
C1414 H1428 0.961 . S
C1415 C1412 1.539 . S
C1415 H1429 0.958 . S
C1415 H1430 0.961 . S
C1415 H1431 0.960 . S
H1416 C1400 0.931 . S
H1417 C1405 0.929 . S
H1418 C1406 0.960 . S
H1419 C1406 0.962 . S
H1420 C1406 0.960 . S
H1421 C1407 0.961 . S
H1422 C1407 0.961 . S
H1423 C1407 0.961 . S
H1424 C1408 0.931 . S
H1425 C1413 0.930 . S
H1426 C1414 0.956 . S
H1427 C1414 0.961 . S
H1428 C1414 0.961 . S
H1429 C1415 0.958 . S
H1430 C1415 0.961 . S
H1431 C1415 0.960 . S
C1432 C1433 1.391 . S
C1432 C1434 1.394 . S
C1432 H1448 0.931 . S
C1433 C1432 1.391 . S
C1433 C1437 1.376 . S
C1434 C1432 1.394 . S
C1434 C1435 1.369 . S
C1434 C1438 1.531 . S
C1435 C1434 1.369 . S
C1435 C1436 1.410 . S
C1435 C1443 1.503 . S
C1436 C1435 1.410 . S
C1436 C1437 1.392 . S
C1436 C1439 1.511 . S
C1437 C1433 1.376 . S
C1437 C1436 1.392 . S
C1437 H1449 0.929 . S
C1438 C1434 1.531 . S
C1438 H1450 0.960 . S
C1438 H1451 0.962 . S
C1438 H1452 0.960 . S
C1439 C1436 1.511 . S
C1439 H1453 0.961 . S
C1439 H1454 0.961 . S
C1439 H1455 0.961 . S
C1440 C1441 1.370 . S
C1440 C1442 1.363 . S
C1440 H1456 0.931 . S
C1441 C1440 1.370 . S
C1441 C1445 1.408 . S
C1442 C1440 1.363 . S
C1442 C1443 1.370 . S
C1442 C1446 1.524 . S
C1443 C1435 1.503 . S
C1443 C1442 1.370 . S
C1443 C1444 1.403 . S
C1444 C1443 1.403 . S
C1444 C1445 1.404 . S
C1444 C1447 1.539 . S
C1445 C1441 1.408 . S
C1445 C1444 1.404 . S
C1445 H1457 0.930 . S
C1446 C1442 1.524 . S
C1446 H1458 0.956 . S
C1446 H1459 0.961 . S
C1446 H1460 0.961 . S
C1447 C1444 1.539 . S
C1447 H1461 0.958 . S
C1447 H1462 0.961 . S
C1447 H1463 0.960 . S
H1448 C1432 0.931 . S
H1449 C1437 0.929 . S
H1450 C1438 0.960 . S
H1451 C1438 0.962 . S
H1452 C1438 0.960 . S
H1453 C1439 0.961 . S
H1454 C1439 0.961 . S
H1455 C1439 0.961 . S
H1456 C1440 0.931 . S
H1457 C1445 0.930 . S
H1458 C1446 0.956 . S
H1459 C1446 0.961 . S
H1460 C1446 0.961 . S
H1461 C1447 0.958 . S
H1462 C1447 0.961 . S
H1463 C1447 0.960 . S
C1464 C1465 1.391 . S
C1464 C1466 1.394 . S
C1464 H1480 0.931 . S
C1465 C1464 1.391 . S
C1465 C1469 1.376 . S
C1466 C1464 1.394 . S
C1466 C1467 1.369 . S
C1466 C1470 1.531 . S
C1467 C1466 1.369 . S
C1467 C1468 1.410 . S
C1467 C1475 1.503 . S
C1468 C1467 1.410 . S
C1468 C1469 1.392 . S
C1468 C1471 1.511 . S
C1469 C1465 1.376 . S
C1469 C1468 1.392 . S
C1469 H1481 0.929 . S
C1470 C1466 1.531 . S
C1470 H1482 0.960 . S
C1470 H1483 0.962 . S
C1470 H1484 0.960 . S
C1471 C1468 1.511 . S
C1471 H1485 0.961 . S
C1471 H1486 0.961 . S
C1471 H1487 0.961 . S
C1472 C1473 1.370 . S
C1472 C1474 1.363 . S
C1472 H1488 0.931 . S
C1473 C1472 1.370 . S
C1473 C1477 1.408 . S
C1474 C1472 1.363 . S
C1474 C1475 1.370 . S
C1474 C1478 1.524 . S
C1475 C1467 1.503 . S
C1475 C1474 1.370 . S
C1475 C1476 1.403 . S
C1476 C1475 1.403 . S
C1476 C1477 1.404 . S
C1476 C1479 1.539 . S
C1477 C1473 1.408 . S
C1477 C1476 1.404 . S
C1477 H1489 0.930 . S
C1478 C1474 1.524 . S
C1478 H1490 0.956 . S
C1478 H1491 0.961 . S
C1478 H1492 0.961 . S
C1479 C1476 1.539 . S
C1479 H1493 0.958 . S
C1479 H1494 0.961 . S
C1479 H1495 0.960 . S
H1480 C1464 0.931 . S
H1481 C1469 0.929 . S
H1482 C1470 0.960 . S
H1483 C1470 0.962 . S
H1484 C1470 0.960 . S
H1485 C1471 0.961 . S
H1486 C1471 0.961 . S
H1487 C1471 0.961 . S
H1488 C1472 0.931 . S
H1489 C1477 0.930 . S
H1490 C1478 0.956 . S
H1491 C1478 0.961 . S
H1492 C1478 0.961 . S
H1493 C1479 0.958 . S
H1494 C1479 0.961 . S
H1495 C1479 0.960 . S
C1496 C1497 1.391 . S
C1496 C1498 1.394 . S
C1496 H1512 0.931 . S
C1497 C1496 1.391 . S
C1497 C1501 1.376 . S
C1498 C1496 1.394 . S
C1498 C1499 1.369 . S
C1498 C1502 1.531 . S
C1499 C1498 1.369 . S
C1499 C1500 1.410 . S
C1499 C1507 1.503 . S
C1500 C1499 1.410 . S
C1500 C1501 1.392 . S
C1500 C1503 1.511 . S
C1501 C1497 1.376 . S
C1501 C1500 1.392 . S
C1501 H1513 0.929 . S
C1502 C1498 1.531 . S
C1502 H1514 0.960 . S
C1502 H1515 0.962 . S
C1502 H1516 0.960 . S
C1503 C1500 1.511 . S
C1503 H1517 0.961 . S
C1503 H1518 0.961 . S
C1503 H1519 0.961 . S
C1504 C1505 1.370 . S
C1504 C1506 1.363 . S
C1504 H1520 0.931 . S
C1505 C1504 1.370 . S
C1505 C1509 1.408 . S
C1506 C1504 1.363 . S
C1506 C1507 1.370 . S
C1506 C1510 1.524 . S
C1507 C1499 1.503 . S
C1507 C1506 1.370 . S
C1507 C1508 1.403 . S
C1508 C1507 1.403 . S
C1508 C1509 1.404 . S
C1508 C1511 1.539 . S
C1509 C1505 1.408 . S
C1509 C1508 1.404 . S
C1509 H1521 0.930 . S
C1510 C1506 1.524 . S
C1510 H1522 0.956 . S
C1510 H1523 0.961 . S
C1510 H1524 0.961 . S
C1511 C1508 1.539 . S
C1511 H1525 0.958 . S
C1511 H1526 0.961 . S
C1511 H1527 0.960 . S
H1512 C1496 0.931 . S
H1513 C1501 0.929 . S
H1514 C1502 0.960 . S
H1515 C1502 0.962 . S
H1516 C1502 0.960 . S
H1517 C1503 0.961 . S
H1518 C1503 0.961 . S
H1519 C1503 0.961 . S
H1520 C1504 0.931 . S
H1521 C1509 0.930 . S
H1522 C1510 0.956 . S
H1523 C1510 0.961 . S
H1524 C1510 0.961 . S
H1525 C1511 0.958 . S
H1526 C1511 0.961 . S
H1527 C1511 0.960 . S
C1528 C1529 1.391 . S
C1528 C1530 1.394 . S
C1528 H1544 0.931 . S
C1529 C1528 1.391 . S
C1529 C1533 1.376 . S
C1530 C1528 1.394 . S
C1530 C1531 1.369 . S
C1530 C1534 1.531 . S
C1531 C1530 1.369 . S
C1531 C1532 1.410 . S
C1531 C1539 1.503 . S
C1532 C1531 1.410 . S
C1532 C1533 1.392 . S
C1532 C1535 1.511 . S
C1533 C1529 1.376 . S
C1533 C1532 1.392 . S
C1533 H1545 0.929 . S
C1534 C1530 1.531 . S
C1534 H1546 0.960 . S
C1534 H1547 0.962 . S
C1534 H1548 0.960 . S
C1535 C1532 1.511 . S
C1535 H1549 0.961 . S
C1535 H1550 0.961 . S
C1535 H1551 0.961 . S
C1536 C1537 1.370 . S
C1536 C1538 1.363 . S
C1536 H1552 0.931 . S
C1537 C1536 1.370 . S
C1537 C1541 1.408 . S
C1538 C1536 1.363 . S
C1538 C1539 1.370 . S
C1538 C1542 1.524 . S
C1539 C1531 1.503 . S
C1539 C1538 1.370 . S
C1539 C1540 1.403 . S
C1540 C1539 1.403 . S
C1540 C1541 1.404 . S
C1540 C1543 1.539 . S
C1541 C1537 1.408 . S
C1541 C1540 1.404 . S
C1541 H1553 0.930 . S
C1542 C1538 1.524 . S
C1542 H1554 0.956 . S
C1542 H1555 0.961 . S
C1542 H1556 0.961 . S
C1543 C1540 1.539 . S
C1543 H1557 0.958 . S
C1543 H1558 0.961 . S
C1543 H1559 0.960 . S
H1544 C1528 0.931 . S
H1545 C1533 0.929 . S
H1546 C1534 0.960 . S
H1547 C1534 0.962 . S
H1548 C1534 0.960 . S
H1549 C1535 0.961 . S
H1550 C1535 0.961 . S
H1551 C1535 0.961 . S
H1552 C1536 0.931 . S
H1553 C1541 0.930 . S
H1554 C1542 0.956 . S
H1555 C1542 0.961 . S
H1556 C1542 0.961 . S
H1557 C1543 0.958 . S
H1558 C1543 0.961 . S
H1559 C1543 0.960 . S
C1560 C1561 1.391 . S
C1560 C1562 1.394 . S
C1560 H1576 0.931 . S
C1561 C1560 1.391 . S
C1561 C1565 1.376 . S
C1562 C1560 1.394 . S
C1562 C1563 1.369 . S
C1562 C1566 1.531 . S
C1563 C1562 1.369 . S
C1563 C1564 1.410 . S
C1563 C1571 1.503 . S
C1564 C1563 1.410 . S
C1564 C1565 1.392 . S
C1564 C1567 1.511 . S
C1565 C1561 1.376 . S
C1565 C1564 1.392 . S
C1565 H1577 0.929 . S
C1566 C1562 1.531 . S
C1566 H1578 0.960 . S
C1566 H1579 0.962 . S
C1566 H1580 0.960 . S
C1567 C1564 1.511 . S
C1567 H1581 0.961 . S
C1567 H1582 0.961 . S
C1567 H1583 0.961 . S
C1568 C1569 1.370 . S
C1568 C1570 1.363 . S
C1568 H1584 0.931 . S
C1569 C1568 1.370 . S
C1569 C1573 1.408 . S
C1570 C1568 1.363 . S
C1570 C1571 1.370 . S
C1570 C1574 1.524 . S
C1571 C1563 1.503 . S
C1571 C1570 1.370 . S
C1571 C1572 1.403 . S
C1572 C1571 1.403 . S
C1572 C1573 1.404 . S
C1572 C1575 1.539 . S
C1573 C1569 1.408 . S
C1573 C1572 1.404 . S
C1573 H1585 0.930 . S
C1574 C1570 1.524 . S
C1574 H1586 0.956 . S
C1574 H1587 0.961 . S
C1574 H1588 0.961 . S
C1575 C1572 1.539 . S
C1575 H1589 0.958 . S
C1575 H1590 0.961 . S
C1575 H1591 0.960 . S
H1576 C1560 0.931 . S
H1577 C1565 0.929 . S
H1578 C1566 0.960 . S
H1579 C1566 0.962 . S
H1580 C1566 0.960 . S
H1581 C1567 0.961 . S
H1582 C1567 0.961 . S
H1583 C1567 0.961 . S
H1584 C1568 0.931 . S
H1585 C1573 0.930 . S
H1586 C1574 0.956 . S
H1587 C1574 0.961 . S
H1588 C1574 0.961 . S
H1589 C1575 0.958 . S
H1590 C1575 0.961 . S
H1591 C1575 0.960 . S
C1592 C1593 1.391 . S
C1592 C1594 1.394 . S
C1592 H1608 0.931 . S
C1593 C1592 1.391 . S
C1593 C1597 1.376 . S
C1594 C1592 1.394 . S
C1594 C1595 1.369 . S
C1594 C1598 1.531 . S
C1595 C1594 1.369 . S
C1595 C1596 1.410 . S
C1595 C1603 1.503 . S
C1596 C1595 1.410 . S
C1596 C1597 1.392 . S
C1596 C1599 1.511 . S
C1597 C1593 1.376 . S
C1597 C1596 1.392 . S
C1597 H1609 0.929 . S
C1598 C1594 1.531 . S
C1598 H1610 0.960 . S
C1598 H1611 0.962 . S
C1598 H1612 0.960 . S
C1599 C1596 1.511 . S
C1599 H1613 0.961 . S
C1599 H1614 0.961 . S
C1599 H1615 0.961 . S
C1600 C1601 1.370 . S
C1600 C1602 1.363 . S
C1600 H1616 0.931 . S
C1601 C1600 1.370 . S
C1601 C1605 1.408 . S
C1602 C1600 1.363 . S
C1602 C1603 1.370 . S
C1602 C1606 1.524 . S
C1603 C1595 1.503 . S
C1603 C1602 1.370 . S
C1603 C1604 1.403 . S
C1604 C1603 1.403 . S
C1604 C1605 1.404 . S
C1604 C1607 1.539 . S
C1605 C1601 1.408 . S
C1605 C1604 1.404 . S
C1605 H1617 0.930 . S
C1606 C1602 1.524 . S
C1606 H1618 0.956 . S
C1606 H1619 0.961 . S
C1606 H1620 0.961 . S
C1607 C1604 1.539 . S
C1607 H1621 0.958 . S
C1607 H1622 0.961 . S
C1607 H1623 0.960 . S
H1608 C1592 0.931 . S
H1609 C1597 0.929 . S
H1610 C1598 0.960 . S
H1611 C1598 0.962 . S
H1612 C1598 0.960 . S
H1613 C1599 0.961 . S
H1614 C1599 0.961 . S
H1615 C1599 0.961 . S
H1616 C1600 0.931 . S
H1617 C1605 0.930 . S
H1618 C1606 0.956 . S
H1619 C1606 0.961 . S
H1620 C1606 0.961 . S
H1621 C1607 0.958 . S
H1622 C1607 0.961 . S
H1623 C1607 0.960 . S
C1624 C1625 1.391 . S
C1624 C1626 1.394 . S
C1624 H1640 0.931 . S
C1625 C1624 1.391 . S
C1625 C1629 1.376 . S
C1626 C1624 1.394 . S
C1626 C1627 1.369 . S
C1626 C1630 1.531 . S
C1627 C1626 1.369 . S
C1627 C1628 1.410 . S
C1627 C1635 1.503 . S
C1628 C1627 1.410 . S
C1628 C1629 1.392 . S
C1628 C1631 1.511 . S
C1629 C1625 1.376 . S
C1629 C1628 1.392 . S
C1629 H1641 0.929 . S
C1630 C1626 1.531 . S
C1630 H1642 0.960 . S
C1630 H1643 0.962 . S
C1630 H1644 0.960 . S
C1631 C1628 1.511 . S
C1631 H1645 0.961 . S
C1631 H1646 0.961 . S
C1631 H1647 0.961 . S
C1632 C1633 1.370 . S
C1632 C1634 1.363 . S
C1632 H1648 0.931 . S
C1633 C1632 1.370 . S
C1633 C1637 1.408 . S
C1634 C1632 1.363 . S
C1634 C1635 1.370 . S
C1634 C1638 1.524 . S
C1635 C1627 1.503 . S
C1635 C1634 1.370 . S
C1635 C1636 1.403 . S
C1636 C1635 1.403 . S
C1636 C1637 1.404 . S
C1636 C1639 1.539 . S
C1637 C1633 1.408 . S
C1637 C1636 1.404 . S
C1637 H1649 0.930 . S
C1638 C1634 1.524 . S
C1638 H1650 0.956 . S
C1638 H1651 0.961 . S
C1638 H1652 0.961 . S
C1639 C1636 1.539 . S
C1639 H1653 0.958 . S
C1639 H1654 0.961 . S
C1639 H1655 0.960 . S
H1640 C1624 0.931 . S
H1641 C1629 0.929 . S
H1642 C1630 0.960 . S
H1643 C1630 0.962 . S
H1644 C1630 0.960 . S
H1645 C1631 0.961 . S
H1646 C1631 0.961 . S
H1647 C1631 0.961 . S
H1648 C1632 0.931 . S
H1649 C1637 0.930 . S
H1650 C1638 0.956 . S
H1651 C1638 0.961 . S
H1652 C1638 0.961 . S
H1653 C1639 0.958 . S
H1654 C1639 0.961 . S
H1655 C1639 0.960 . S
C1656 C1657 1.391 . S
C1656 C1658 1.394 . S
C1656 H1672 0.931 . S
C1657 C1656 1.391 . S
C1657 C1661 1.376 . S
C1658 C1656 1.394 . S
C1658 C1659 1.369 . S
C1658 C1662 1.531 . S
C1659 C1658 1.369 . S
C1659 C1660 1.410 . S
C1659 C1667 1.503 . S
C1660 C1659 1.410 . S
C1660 C1661 1.392 . S
C1660 C1663 1.511 . S
C1661 C1657 1.376 . S
C1661 C1660 1.392 . S
C1661 H1673 0.929 . S
C1662 C1658 1.531 . S
C1662 H1674 0.960 . S
C1662 H1675 0.962 1_565 S
C1662 H1676 0.960 . S
C1663 C1660 1.511 . S
C1663 H1677 0.961 . S
C1663 H1678 0.961 . S
C1663 H1679 0.961 . S
C1664 C1665 1.370 . S
C1664 C1666 1.363 . S
C1664 H1680 0.931 . S
C1665 C1664 1.370 . S
C1665 C1669 1.428 . S
C1666 C1664 1.363 . S
C1666 C1667 1.370 1_545 S
C1666 C1670 1.524 . S
C1667 C1659 1.503 . S
C1667 C1666 1.370 1_565 S
C1667 C1668 1.403 . S
C1668 C1667 1.403 . S
C1668 C1669 1.390 1_565 S
C1668 C1671 1.539 . S
C1669 C1665 1.428 . S
C1669 C1668 1.390 1_545 S
C1669 H1681 0.925 1_545 S
C1670 C1666 1.524 . S
C1670 H1682 0.956 . S
C1670 H1683 0.961 . S
C1670 H1684 0.961 . S
C1671 C1668 1.539 . S
C1671 H1685 0.958 . S
C1671 H1686 0.961 . S
C1671 H1687 0.960 . S
H1672 C1656 0.931 . S
H1673 C1661 0.929 . S
H1674 C1662 0.960 . S
H1675 C1662 0.962 1_545 S
H1676 C1662 0.960 . S
H1677 C1663 0.961 . S
H1678 C1663 0.961 . S
H1679 C1663 0.961 . S
H1680 C1664 0.931 . S
H1681 C1669 0.925 1_565 S
H1682 C1670 0.956 . S
H1683 C1670 0.961 . S
H1684 C1670 0.961 . S
H1685 C1671 0.958 . S
H1686 C1671 0.961 . S
H1687 C1671 0.960 . S
C1688 C1689 1.391 . S
C1688 C1690 1.394 . S
C1688 H1704 0.931 . S
C1689 C1688 1.391 . S
C1689 C1693 1.376 . S
C1690 C1688 1.394 . S
C1690 C1691 1.369 . S
C1690 C1694 1.531 . S
C1691 C1690 1.369 . S
C1691 C1692 1.410 . S
C1691 C1699 1.503 . S
C1692 C1691 1.410 . S
C1692 C1693 1.392 . S
C1692 C1695 1.511 . S
C1693 C1689 1.376 . S
C1693 C1692 1.392 . S
C1693 H1705 0.929 . S
C1694 C1690 1.531 . S
C1694 H1706 0.960 . S
C1694 H1707 0.962 . S
C1694 H1708 0.960 . S
C1695 C1692 1.511 . S
C1695 H1709 0.961 . S
C1695 H1710 0.961 . S
C1695 H1711 0.961 . S
C1696 C1697 1.370 . S
C1696 C1698 1.363 . S
C1696 H1712 0.931 . S
C1697 C1696 1.370 . S
C1697 C1701 1.408 1_455 S
C1698 C1696 1.363 . S
C1698 C1699 1.370 1_455 S
C1698 C1702 1.524 . S
C1699 C1691 1.503 . S
C1699 C1698 1.370 1_655 S
C1699 C1700 1.403 . S
C1700 C1699 1.403 . S
C1700 C1701 1.404 . S
C1700 C1703 1.539 . S
C1701 C1697 1.408 1_655 S
C1701 C1700 1.404 . S
C1701 H1713 0.930 . S
C1702 C1698 1.524 . S
C1702 H1714 0.956 . S
C1702 H1715 0.961 . S
C1702 H1716 0.961 . S
C1703 C1700 1.539 . S
C1703 H1717 0.958 . S
C1703 H1718 0.961 . S
C1703 H1719 0.960 . S
H1704 C1688 0.931 . S
H1705 C1693 0.929 . S
H1706 C1694 0.960 . S
H1707 C1694 0.962 . S
H1708 C1694 0.960 . S
H1709 C1695 0.961 . S
H1710 C1695 0.961 . S
H1711 C1695 0.961 . S
H1712 C1696 0.931 . S
H1713 C1701 0.930 . S
H1714 C1702 0.956 . S
H1715 C1702 0.961 . S
H1716 C1702 0.961 . S
H1717 C1703 0.958 . S
H1718 C1703 0.961 . S
H1719 C1703 0.960 . S
C1720 C1721 1.391 . S
C1720 C1722 1.394 . S
C1720 H1736 0.931 . S
C1721 C1720 1.391 . S
C1721 C1725 1.376 . S
C1722 C1720 1.394 . S
C1722 C1723 1.369 . S
C1722 C1726 1.531 . S
C1723 C1722 1.369 . S
C1723 C1724 1.410 . S
C1723 C1731 1.503 . S
C1724 C1723 1.410 . S
C1724 C1725 1.392 . S
C1724 C1727 1.511 . S
C1725 C1721 1.376 . S
C1725 C1724 1.392 . S
C1725 H1737 0.929 . S
C1726 C1722 1.531 . S
C1726 H1738 0.960 . S
C1726 H1739 0.962 . S
C1726 H1740 0.960 . S
C1727 C1724 1.511 . S
C1727 H1741 0.961 . S
C1727 H1742 0.961 . S
C1727 H1743 0.961 . S
C1728 C1729 1.370 . S
C1728 C1730 1.363 1_565 S
C1728 H1744 0.931 . S
C1729 C1728 1.370 . S
C1729 C1733 1.408 1_565 S
C1730 C1728 1.363 1_545 S
C1730 C1731 1.370 . S
C1730 C1734 1.524 1_545 S
C1731 C1723 1.503 . S
C1731 C1730 1.370 . S
C1731 C1732 1.403 . S
C1732 C1731 1.403 . S
C1732 C1733 1.404 . S
C1732 C1735 1.539 . S
C1733 C1729 1.408 1_545 S
C1733 C1732 1.404 . S
C1733 H1745 0.930 . S
C1734 C1730 1.524 1_565 S
C1734 H1746 0.956 . S
C1734 H1747 0.961 1_565 S
C1734 H1748 0.961 . S
C1735 C1732 1.539 . S
C1735 H1749 0.958 . S
C1735 H1750 0.961 . S
C1735 H1751 0.960 . S
H1736 C1720 0.931 . S
H1737 C1725 0.929 . S
H1738 C1726 0.960 . S
H1739 C1726 0.962 . S
H1740 C1726 0.960 . S
H1741 C1727 0.961 . S
H1742 C1727 0.961 . S
H1743 C1727 0.961 . S
H1744 C1728 0.931 . S
H1745 C1733 0.930 . S
H1746 C1734 0.956 . S
H1747 C1734 0.961 1_545 S
H1748 C1734 0.961 . S
H1749 C1735 0.958 . S
H1750 C1735 0.961 . S
H1751 C1735 0.960 . S
C1752 C1753 1.391 . S
C1752 C1754 1.394 . S
C1752 H1768 0.931 . S
C1753 C1752 1.391 . S
C1753 C1757 1.376 . S
C1754 C1752 1.394 . S
C1754 C1755 1.369 . S
C1754 C1758 1.531 1_455 S
C1755 C1754 1.369 . S
C1755 C1756 1.410 . S
C1755 C1763 1.503 . S
C1756 C1755 1.410 . S
C1756 C1757 1.392 . S
C1756 C1759 1.511 . S
C1757 C1753 1.376 . S
C1757 C1756 1.392 . S
C1757 H1769 0.929 . S
C1758 C1754 1.531 1_655 S
C1758 H1770 0.960 . S
C1758 H1771 0.962 . S
C1758 H1772 0.960 . S
C1759 C1756 1.511 . S
C1759 H1773 0.961 . S
C1759 H1774 0.961 . S
C1759 H1775 0.961 . S
C1760 C1761 1.370 . S
C1760 C1762 1.363 . S
C1760 H1776 0.931 . S
C1761 C1760 1.370 . S
C1761 C1765 1.408 . S
C1762 C1760 1.363 . S
C1762 C1763 1.370 1_655 S
C1762 C1766 1.524 . S
C1763 C1755 1.503 . S
C1763 C1762 1.370 1_455 S
C1763 C1764 1.409 . S
C1764 C1763 1.409 . S
C1764 C1765 1.370 1_455 S
C1764 C1767 1.571 . S
C1765 C1761 1.408 . S
C1765 C1764 1.370 1_655 S
C1765 H1777 0.930 . S
C1766 C1762 1.524 . S
C1766 H1778 0.956 . S
C1766 H1779 0.961 1_655 S
C1766 H1780 0.961 . S
C1767 C1764 1.571 . S
C1767 H1781 0.958 . S
C1767 H1782 0.961 . S
C1767 H1783 0.960 . S
H1768 C1752 0.931 . S
H1769 C1757 0.929 . S
H1770 C1758 0.960 . S
H1771 C1758 0.962 . S
H1772 C1758 0.960 . S
H1773 C1759 0.961 . S
H1774 C1759 0.961 . S
H1775 C1759 0.961 . S
H1776 C1760 0.931 . S
H1777 C1765 0.930 . S
H1778 C1766 0.956 . S
H1779 C1766 0.961 1_455 S
H1780 C1766 0.961 . S
H1781 C1767 0.958 . S
H1782 C1767 0.961 . S
H1783 C1767 0.960 . S
C1784 C1785 1.391 1_545 S
C1784 C1786 1.394 . S
C1784 H1800 0.931 . S
C1785 C1784 1.391 1_565 S
C1785 C1789 1.376 . S
C1786 C1784 1.394 . S
C1786 C1787 1.369 . S
C1786 C1790 1.531 . S
C1787 C1786 1.369 . S
C1787 C1788 1.451 . S
C1787 C1795 1.503 . S
C1788 C1787 1.451 . S
C1788 C1789 1.365 1_545 S
C1788 C1791 1.498 1_545 S
C1789 C1785 1.376 . S
C1789 C1788 1.365 1_565 S
C1789 H1801 0.929 . S
C1790 C1786 1.531 . S
C1790 H1802 0.960 . S
C1790 H1803 0.962 . S
C1790 H1804 0.960 . S
C1791 C1788 1.498 1_565 S
C1791 H1805 0.961 . S
C1791 H1806 0.946 1_565 S
C1791 H1807 0.961 . S
C1792 C1793 1.370 . S
C1792 C1794 1.363 . S
C1792 H1808 0.931 . S
C1793 C1792 1.370 . S
C1793 C1797 1.408 . S
C1794 C1792 1.363 . S
C1794 C1795 1.370 . S
C1794 C1798 1.524 . S
C1795 C1787 1.503 . S
C1795 C1794 1.370 . S
C1795 C1796 1.403 . S
C1796 C1795 1.403 . S
C1796 C1797 1.404 . S
C1796 C1799 1.539 . S
C1797 C1793 1.408 . S
C1797 C1796 1.404 . S
C1797 H1809 0.930 . S
C1798 C1794 1.524 . S
C1798 H1810 0.956 . S
C1798 H1811 0.961 . S
C1798 H1812 0.961 . S
C1799 C1796 1.539 . S
C1799 H1813 0.958 . S
C1799 H1814 0.961 . S
C1799 H1815 0.960 . S
H1800 C1784 0.931 . S
H1801 C1789 0.929 . S
H1802 C1790 0.960 . S
H1803 C1790 0.962 . S
H1804 C1790 0.960 . S
H1805 C1791 0.961 . S
H1806 C1791 0.946 1_545 S
H1807 C1791 0.961 . S
H1808 C1792 0.931 . S
H1809 C1797 0.930 . S
H1810 C1798 0.956 . S
H1811 C1798 0.961 . S
H1812 C1798 0.961 . S
H1813 C1799 0.958 . S
H1814 C1799 0.961 . S
H1815 C1799 0.960 . S
C1816 C1817 1.350 1_455 S
C1816 C1818 1.422 . S
C1816 H1832 0.945 . S
C1817 C1816 1.350 1_655 S
C1817 C1821 1.376 . S
C1818 C1816 1.422 . S
C1818 C1819 1.369 . S
C1818 C1822 1.531 . S
C1819 C1818 1.369 . S
C1819 C1820 1.410 1_455 S
C1819 C1827 1.503 . S
C1820 C1819 1.410 1_655 S
C1820 C1821 1.392 . S
C1820 C1823 1.511 . S
C1821 C1817 1.376 . S
C1821 C1820 1.392 . S
C1821 H1833 0.929 . S
C1822 C1818 1.531 . S
C1822 H1834 0.960 . S
C1822 H1835 0.962 . S
C1822 H1836 0.960 . S
C1823 C1820 1.511 . S
C1823 H1837 0.961 . S
C1823 H1838 0.961 . S
C1823 H1839 0.961 . S
C1824 C1825 1.370 . S
C1824 C1826 1.363 . S
C1824 H1840 0.931 . S
C1825 C1824 1.370 . S
C1825 C1829 1.408 . S
C1826 C1824 1.363 . S
C1826 C1827 1.370 . S
C1826 C1830 1.524 . S
C1827 C1819 1.503 . S
C1827 C1826 1.370 . S
C1827 C1828 1.403 . S
C1828 C1827 1.403 . S
C1828 C1829 1.404 . S
C1828 C1831 1.539 . S
C1829 C1825 1.408 . S
C1829 C1828 1.404 . S
C1829 H1841 0.930 . S
C1830 C1826 1.524 . S
C1830 H1842 0.956 . S
C1830 H1843 0.961 . S
C1830 H1844 0.961 . S
C1831 C1828 1.539 . S
C1831 H1845 0.958 . S
C1831 H1846 0.961 . S
C1831 H1847 0.960 1_455 S
H1832 C1816 0.945 . S
H1833 C1821 0.929 . S
H1834 C1822 0.960 . S
H1835 C1822 0.962 . S
H1836 C1822 0.960 . S
H1837 C1823 0.961 . S
H1838 C1823 0.961 . S
H1839 C1823 0.961 . S
H1840 C1824 0.931 . S
H1841 C1829 0.930 . S
H1842 C1830 0.956 . S
H1843 C1830 0.961 . S
H1844 C1830 0.961 . S
H1845 C1831 0.958 . S
H1846 C1831 0.961 . S
H1847 C1831 0.960 1_655 S
C1848 C1849 1.391 . S
C1848 C1850 1.394 . S
C1848 H1864 0.931 . S
C1849 C1848 1.391 . S
C1849 C1853 1.376 . S
C1850 C1848 1.394 . S
C1850 C1851 1.369 . S
C1850 C1854 1.531 . S
C1851 C1850 1.369 . S
C1851 C1852 1.410 . S
C1851 C1859 1.503 . S
C1852 C1851 1.410 . S
C1852 C1853 1.392 . S
C1852 C1855 1.511 . S
C1853 C1849 1.376 . S
C1853 C1852 1.392 . S
C1853 H1865 0.929 . S
C1854 C1850 1.531 . S
C1854 H1866 0.960 . S
C1854 H1867 0.962 . S
C1854 H1868 0.960 . S
C1855 C1852 1.511 . S
C1855 H1869 0.961 . S
C1855 H1870 0.961 . S
C1855 H1871 0.961 1_565 S
C1856 C1857 1.373 1_565 S
C1856 C1858 1.362 . S
C1856 H1872 0.930 . S
C1857 C1856 1.373 1_545 S
C1857 C1861 1.408 . S
C1858 C1856 1.362 . S
C1858 C1859 1.370 . S
C1858 C1862 1.524 . S
C1859 C1851 1.503 . S
C1859 C1858 1.370 . S
C1859 C1860 1.403 1_565 S
C1860 C1859 1.403 1_545 S
C1860 C1861 1.404 . S
C1860 C1863 1.539 . S
C1861 C1857 1.408 . S
C1861 C1860 1.404 . S
C1861 H1873 0.930 . S
C1862 C1858 1.524 . S
C1862 H1874 0.956 . S
C1862 H1875 0.961 . S
C1862 H1876 0.961 . S
C1863 C1860 1.539 . S
C1863 H1877 0.958 . S
C1863 H1878 0.961 . S
C1863 H1879 0.960 . S
H1864 C1848 0.931 . S
H1865 C1853 0.929 . S
H1866 C1854 0.960 . S
H1867 C1854 0.962 . S
H1868 C1854 0.960 . S
H1869 C1855 0.961 . S
H1870 C1855 0.961 . S
H1871 C1855 0.961 1_545 S
H1872 C1856 0.930 . S
H1873 C1861 0.930 . S
H1874 C1862 0.956 . S
H1875 C1862 0.961 . S
H1876 C1862 0.961 . S
H1877 C1863 0.958 . S
H1878 C1863 0.961 . S
H1879 C1863 0.960 . S
C1880 C1881 1.391 . S
C1880 C1882 1.365 1_455 S
C1880 H1896 0.931 . S
C1881 C1880 1.391 . S
C1881 C1885 1.376 . S
C1882 C1880 1.365 1_655 S
C1882 C1883 1.365 1_655 S
C1882 C1886 1.566 . S
C1883 C1882 1.365 1_455 S
C1883 C1884 1.410 . S
C1883 C1891 1.503 1_455 S
C1884 C1883 1.410 . S
C1884 C1885 1.392 . S
C1884 C1887 1.511 . S
C1885 C1881 1.376 . S
C1885 C1884 1.392 . S
C1885 H1897 0.929 . S
C1886 C1882 1.566 . S
C1886 H1898 0.960 . S
C1886 H1899 0.962 . S
C1886 H1900 0.960 . S
C1887 C1884 1.511 . S
C1887 H1901 0.961 . S
C1887 H1902 0.961 . S
C1887 H1903 0.961 . S
C1888 C1889 1.370 . S
C1888 C1890 1.363 . S
C1888 H1904 0.931 . S
C1889 C1888 1.370 . S
C1889 C1893 1.408 . S
C1890 C1888 1.363 . S
C1890 C1891 1.370 . S
C1890 C1894 1.524 . S
C1891 C1883 1.503 1_655 S
C1891 C1890 1.370 . S
C1891 C1892 1.403 . S
C1892 C1891 1.403 . S
C1892 C1893 1.404 . S
C1892 C1895 1.539 1_655 S
C1893 C1889 1.408 . S
C1893 C1892 1.404 . S
C1893 H1905 0.930 . S
C1894 C1890 1.524 . S
C1894 H1906 0.956 . S
C1894 H1907 0.961 . S
C1894 H1908 0.961 . S
C1895 C1892 1.539 1_455 S
C1895 H1909 0.958 . S
C1895 H1910 0.961 . S
C1895 H1911 0.960 . S
H1896 C1880 0.931 . S
H1897 C1885 0.929 . S
H1898 C1886 0.960 . S
H1899 C1886 0.962 . S
H1900 C1886 0.960 . S
H1901 C1887 0.961 . S
H1902 C1887 0.961 . S
H1903 C1887 0.961 . S
H1904 C1888 0.931 . S
H1905 C1893 0.930 . S
H1906 C1894 0.956 . S
H1907 C1894 0.961 . S
H1908 C1894 0.961 . S
H1909 C1895 0.958 . S
H1910 C1895 0.961 . S
H1911 C1895 0.960 . S
C1912 C1913 1.391 . S
C1912 C1914 1.394 . S
C1912 H1928 0.931 . S
C1913 C1912 1.391 . S
C1913 C1917 1.376 . S
C1914 C1912 1.394 . S
C1914 C1915 1.369 . S
C1914 C1918 1.531 . S
C1915 C1914 1.369 . S
C1915 C1916 1.410 . S
C1915 C1923 1.503 . S
C1916 C1915 1.410 . S
C1916 C1917 1.392 . S
C1916 C1919 1.511 . S
C1917 C1913 1.376 . S
C1917 C1916 1.392 . S
C1917 H1929 0.929 . S
C1918 C1914 1.531 . S
C1918 H1930 0.960 . S
C1918 H1931 0.962 . S
C1918 H1932 0.960 . S
C1919 C1916 1.511 . S
C1919 H1933 0.961 . S
C1919 H1934 0.961 1_556 S
C1919 H1935 0.961 . S
C1920 C1921 1.370 . S
C1920 C1922 1.363 . S
C1920 H1936 0.931 . S
C1921 C1920 1.370 . S
C1921 C1925 1.408 . S
C1922 C1920 1.363 . S
C1922 C1923 1.370 1_554 S
C1922 C1926 1.524 . S
C1923 C1915 1.503 . S
C1923 C1922 1.370 1_556 S
C1923 C1924 1.403 . S
C1924 C1923 1.403 . S
C1924 C1925 1.404 1_556 S
C1924 C1927 1.539 . S
C1925 C1921 1.408 . S
C1925 C1924 1.404 1_554 S
C1925 H1937 0.930 . S
C1926 C1922 1.524 . S
C1926 H1938 0.956 . S
C1926 H1939 0.961 . S
C1926 H1940 0.961 . S
C1927 C1924 1.539 . S
C1927 H1941 0.958 . S
C1927 H1942 0.961 . S
C1927 H1943 0.960 . S
H1928 C1912 0.931 . S
H1929 C1917 0.929 . S
H1930 C1918 0.960 . S
H1931 C1918 0.962 . S
H1932 C1918 0.960 . S
H1933 C1919 0.961 . S
H1934 C1919 0.961 1_554 S
H1935 C1919 0.961 . S
H1936 C1920 0.931 . S
H1937 C1925 0.930 . S
H1938 C1926 0.956 . S
H1939 C1926 0.961 . S
H1940 C1926 0.961 . S
H1941 C1927 0.958 . S
H1942 C1927 0.961 . S
H1943 C1927 0.960 . S
C1944 C1945 1.391 . S
C1944 C1946 1.394 . S
C1944 H1960 0.931 . S
C1945 C1944 1.391 . S
C1945 C1949 1.376 . S
C1946 C1944 1.394 . S
C1946 C1947 1.369 . S
C1946 C1950 1.531 1_554 S
C1947 C1946 1.369 . S
C1947 C1948 1.410 . S
C1947 C1955 1.483 1_554 S
C1948 C1947 1.410 . S
C1948 C1949 1.392 . S
C1948 C1951 1.511 . S
C1949 C1945 1.376 . S
C1949 C1948 1.392 . S
C1949 H1961 0.929 . S
C1950 C1946 1.531 1_556 S
C1950 H1962 0.960 . S
C1950 H1963 0.962 1_556 S
C1950 H1964 0.960 . S
C1951 C1948 1.511 . S
C1951 H1965 0.961 . S
C1951 H1966 0.961 . S
C1951 H1967 0.961 . S
C1952 C1953 1.370 . S
C1952 C1954 1.363 1_556 S
C1952 H1968 0.931 . S
C1953 C1952 1.370 . S
C1953 C1957 1.408 . S
C1954 C1952 1.363 1_554 S
C1954 C1955 1.361 1_554 S
C1954 C1958 1.524 . S
C1955 C1947 1.483 1_556 S
C1955 C1954 1.361 1_556 S
C1955 C1956 1.433 . S
C1956 C1955 1.433 . S
C1956 C1957 1.404 . S
C1956 C1959 1.539 . S
C1957 C1953 1.408 . S
C1957 C1956 1.404 . S
C1957 H1969 0.930 . S
C1958 C1954 1.524 . S
C1958 H1970 0.956 . S
C1958 H1971 0.961 . S
C1958 H1972 0.961 . S
C1959 C1956 1.539 . S
C1959 H1973 0.958 . S
C1959 H1974 0.961 . S
C1959 H1975 0.960 . S
H1960 C1944 0.931 . S
H1961 C1949 0.929 . S
H1962 C1950 0.960 . S
H1963 C1950 0.962 1_554 S
H1964 C1950 0.960 . S
H1965 C1951 0.961 . S
H1966 C1951 0.961 . S
H1967 C1951 0.961 . S
H1968 C1952 0.931 . S
H1969 C1957 0.930 . S
H1970 C1958 0.956 . S
H1971 C1958 0.961 . S
H1972 C1958 0.961 . S
H1973 C1959 0.958 . S
H1974 C1959 0.961 . S
H1975 C1959 0.960 . S
C1976 C1977 1.391 . S
C1976 C1978 1.394 . S
C1976 H1992 0.931 . S
C1977 C1976 1.391 . S
C1977 C1981 1.376 . S
C1978 C1976 1.394 . S
C1978 C1979 1.369 . S
C1978 C1982 1.531 1_556 S
C1979 C1978 1.369 . S
C1979 C1980 1.410 . S
C1979 C1987 1.503 . S
C1980 C1979 1.410 . S
C1980 C1981 1.392 . S
C1980 C1983 1.511 . S
C1981 C1977 1.376 . S
C1981 C1980 1.392 . S
C1981 H1993 0.929 . S
C1982 C1978 1.531 1_554 S
C1982 H1994 0.960 . S
C1982 H1995 0.966 . S
C1982 H1996 0.960 . S
C1983 C1980 1.511 . S
C1983 H1997 0.961 . S
C1983 H1998 0.961 . S
C1983 H1999 0.961 . S
C1984 C1985 1.366 1_556 S
C1984 C1986 1.366 . S
C1984 H2000 0.932 . S
C1985 C1984 1.366 1_554 S
C1985 C1989 1.408 . S
C1986 C1984 1.366 . S
C1986 C1987 1.370 . S
C1986 C1990 1.524 . S
C1987 C1979 1.503 . S
C1987 C1986 1.370 . S
C1987 C1988 1.403 1_556 S
C1988 C1987 1.403 1_554 S
C1988 C1989 1.404 . S
C1988 C1991 1.539 . S
C1989 C1985 1.408 . S
C1989 C1988 1.404 . S
C1989 H2001 0.930 . S
C1990 C1986 1.524 . S
C1990 H2002 0.956 . S
C1990 H2003 0.961 . S
C1990 H2004 0.961 . S
C1991 C1988 1.539 . S
C1991 H2005 0.958 . S
C1991 H2006 0.961 . S
C1991 H2007 0.960 . S
H1992 C1976 0.931 . S
H1993 C1981 0.929 . S
H1994 C1982 0.960 . S
H1995 C1982 0.966 . S
H1996 C1982 0.960 . S
H1997 C1983 0.961 . S
H1998 C1983 0.961 . S
H1999 C1983 0.961 . S
H2000 C1984 0.932 . S
H2001 C1989 0.930 . S
H2002 C1990 0.956 . S
H2003 C1990 0.961 . S
H2004 C1990 0.961 . S
H2005 C1991 0.958 . S
H2006 C1991 0.961 . S
H2007 C1991 0.960 . S
C2008 C2009 1.391 . S
C2008 C2010 1.394 . S
C2008 H2024 0.931 . S
C2009 C2008 1.391 . S
C2009 C2013 1.376 . S
C2010 C2008 1.394 . S
C2010 C2011 1.369 . S
C2010 C2014 1.531 . S
C2011 C2010 1.369 . S
C2011 C2012 1.410 . S
C2011 C2019 1.503 . S
C2012 C2011 1.410 . S
C2012 C2013 1.392 . S
C2012 C2015 1.511 . S
C2013 C2009 1.376 . S
C2013 C2012 1.392 . S
C2013 H2025 0.929 . S
C2014 C2010 1.531 . S
C2014 H2026 0.960 1_554 S
C2014 H2027 0.962 . S
C2014 H2028 0.960 . S
C2015 C2012 1.511 . S
C2015 H2029 0.961 . S
C2015 H2030 0.961 . S
C2015 H2031 0.961 . S
C2016 C2017 1.370 1_554 S
C2016 C2018 1.363 . S
C2016 H2032 0.931 . S
C2017 C2016 1.370 1_556 S
C2017 C2021 1.408 . S
C2018 C2016 1.363 . S
C2018 C2019 1.370 . S
C2018 C2022 1.524 . S
C2019 C2011 1.503 . S
C2019 C2018 1.370 . S
C2019 C2020 1.403 1_554 S
C2020 C2019 1.403 1_556 S
C2020 C2021 1.404 . S
C2020 C2023 1.539 . S
C2021 C2017 1.408 . S
C2021 C2020 1.404 . S
C2021 H2033 0.930 . S
C2022 C2018 1.524 . S
C2022 H2034 0.956 . S
C2022 H2035 0.961 . S
C2022 H2036 0.961 . S
C2023 C2020 1.539 . S
C2023 H2037 0.958 . S
C2023 H2038 0.961 . S
C2023 H2039 0.960 . S
H2024 C2008 0.931 . S
H2025 C2013 0.929 . S
H2026 C2014 0.960 1_556 S
H2027 C2014 0.962 . S
H2028 C2014 0.960 . S
H2029 C2015 0.961 . S
H2030 C2015 0.961 . S
H2031 C2015 0.961 . S
H2032 C2016 0.931 . S
H2033 C2021 0.930 . S
H2034 C2022 0.956 . S
H2035 C2022 0.961 . S
H2036 C2022 0.961 . S
H2037 C2023 0.958 . S
H2038 C2023 0.961 . S
H2039 C2023 0.960 . S
C2040 C2041 1.391 . S
C2040 C2042 1.394 . S
C2040 H2056 0.931 . S
C2041 C2040 1.391 . S
C2041 C2045 1.376 . S
C2042 C2040 1.394 . S
C2042 C2043 1.369 . S
C2042 C2046 1.531 . S
C2043 C2042 1.369 . S
C2043 C2044 1.410 . S
C2043 C2051 1.503 . S
C2044 C2043 1.410 . S
C2044 C2045 1.392 . S
C2044 C2047 1.511 . S
C2045 C2041 1.376 . S
C2045 C2044 1.392 . S
C2045 H2057 0.929 . S
C2046 C2042 1.531 . S
C2046 H2058 0.960 . S
C2046 H2059 0.962 . S
C2046 H2060 0.960 . S
C2047 C2044 1.511 . S
C2047 H2061 0.961 . S
C2047 H2062 0.961 . S
C2047 H2063 0.961 . S
C2048 C2049 1.370 . S
C2048 C2050 1.363 . S
C2048 H2064 0.931 . S
C2049 C2048 1.370 . S
C2049 C2053 1.408 . S
C2050 C2048 1.363 . S
C2050 C2051 1.370 . S
C2050 C2054 1.524 . S
C2051 C2043 1.503 . S
C2051 C2050 1.370 . S
C2051 C2052 1.403 . S
C2052 C2051 1.403 . S
C2052 C2053 1.404 . S
C2052 C2055 1.539 . S
C2053 C2049 1.408 . S
C2053 C2052 1.404 . S
C2053 H2065 0.930 . S
C2054 C2050 1.524 . S
C2054 H2066 0.956 . S
C2054 H2067 0.961 . S
C2054 H2068 0.961 . S
C2055 C2052 1.539 . S
C2055 H2069 0.958 . S
C2055 H2070 0.961 . S
C2055 H2071 0.960 . S
H2056 C2040 0.931 . S
H2057 C2045 0.929 . S
H2058 C2046 0.960 . S
H2059 C2046 0.962 . S
H2060 C2046 0.960 . S
H2061 C2047 0.961 . S
H2062 C2047 0.961 . S
H2063 C2047 0.961 . S
H2064 C2048 0.931 . S
H2065 C2053 0.930 . S
H2066 C2054 0.956 . S
H2067 C2054 0.961 . S
H2068 C2054 0.961 . S
H2069 C2055 0.958 . S
H2070 C2055 0.961 . S
H2071 C2055 0.960 . S
C2072 C2073 1.391 . S
C2072 C2074 1.394 . S
C2072 H2088 0.931 . S
C2073 C2072 1.391 . S
C2073 C2077 1.376 . S
C2074 C2072 1.394 . S
C2074 C2075 1.369 . S
C2074 C2078 1.531 . S
C2075 C2074 1.369 . S
C2075 C2076 1.410 . S
C2075 C2083 1.503 . S
C2076 C2075 1.410 . S
C2076 C2077 1.392 . S
C2076 C2079 1.511 . S
C2077 C2073 1.376 . S
C2077 C2076 1.392 . S
C2077 H2089 0.929 . S
C2078 C2074 1.531 . S
C2078 H2090 0.960 . S
C2078 H2091 0.962 . S
C2078 H2092 0.960 . S
C2079 C2076 1.511 . S
C2079 H2093 0.961 . S
C2079 H2094 0.961 . S
C2079 H2095 0.961 . S
C2080 C2081 1.370 . S
C2080 C2082 1.363 . S
C2080 H2096 0.931 . S
C2081 C2080 1.370 . S
C2081 C2085 1.408 . S
C2082 C2080 1.363 . S
C2082 C2083 1.370 . S
C2082 C2086 1.524 . S
C2083 C2075 1.503 . S
C2083 C2082 1.370 . S
C2083 C2084 1.403 . S
C2084 C2083 1.403 . S
C2084 C2085 1.404 . S
C2084 C2087 1.539 . S
C2085 C2081 1.408 . S
C2085 C2084 1.404 . S
C2085 H2097 0.930 . S
C2086 C2082 1.524 . S
C2086 H2098 0.956 . S
C2086 H2099 0.961 . S
C2086 H2100 0.961 . S
C2087 C2084 1.539 . S
C2087 H2101 0.958 . S
C2087 H2102 0.961 . S
C2087 H2103 0.960 . S
H2088 C2072 0.931 . S
H2089 C2077 0.929 . S
H2090 C2078 0.960 . S
H2091 C2078 0.962 . S
H2092 C2078 0.960 . S
H2093 C2079 0.961 . S
H2094 C2079 0.961 . S
H2095 C2079 0.961 . S
H2096 C2080 0.931 . S
H2097 C2085 0.930 . S
H2098 C2086 0.956 . S
H2099 C2086 0.961 . S
H2100 C2086 0.961 . S
H2101 C2087 0.958 . S
H2102 C2087 0.961 . S
H2103 C2087 0.960 . S
C2104 C2105 1.391 . S
C2104 C2106 1.394 . S
C2104 H2120 0.931 . S
C2105 C2104 1.391 . S
C2105 C2109 1.376 . S
C2106 C2104 1.394 . S
C2106 C2107 1.369 . S
C2106 C2110 1.531 . S
C2107 C2106 1.369 . S
C2107 C2108 1.410 . S
C2107 C2115 1.503 . S
C2108 C2107 1.410 . S
C2108 C2109 1.392 . S
C2108 C2111 1.511 . S
C2109 C2105 1.376 . S
C2109 C2108 1.392 . S
C2109 H2121 0.929 . S
C2110 C2106 1.531 . S
C2110 H2122 0.960 . S
C2110 H2123 0.962 . S
C2110 H2124 0.960 . S
C2111 C2108 1.511 . S
C2111 H2125 0.961 . S
C2111 H2126 0.961 . S
C2111 H2127 0.961 . S
C2112 C2113 1.370 . S
C2112 C2114 1.363 . S
C2112 H2128 0.931 . S
C2113 C2112 1.370 . S
C2113 C2117 1.408 . S
C2114 C2112 1.363 . S
C2114 C2115 1.370 . S
C2114 C2118 1.524 . S
C2115 C2107 1.503 . S
C2115 C2114 1.370 . S
C2115 C2116 1.403 . S
C2116 C2115 1.403 . S
C2116 C2117 1.404 . S
C2116 C2119 1.539 . S
C2117 C2113 1.408 . S
C2117 C2116 1.404 . S
C2117 H2129 0.930 . S
C2118 C2114 1.524 . S
C2118 H2130 0.956 . S
C2118 H2131 0.961 . S
C2118 H2132 0.961 . S
C2119 C2116 1.539 . S
C2119 H2133 0.958 . S
C2119 H2134 0.961 . S
C2119 H2135 0.960 . S
H2120 C2104 0.931 . S
H2121 C2109 0.929 . S
H2122 C2110 0.960 . S
H2123 C2110 0.962 . S
H2124 C2110 0.960 . S
H2125 C2111 0.961 . S
H2126 C2111 0.961 . S
H2127 C2111 0.961 . S
H2128 C2112 0.931 . S
H2129 C2117 0.930 . S
H2130 C2118 0.956 . S
H2131 C2118 0.961 . S
H2132 C2118 0.961 . S
H2133 C2119 0.958 . S
H2134 C2119 0.961 . S
H2135 C2119 0.960 . S
C2136 C2137 1.391 . S
C2136 C2138 1.394 . S
C2136 H2152 0.931 . S
C2137 C2136 1.391 . S
C2137 C2141 1.376 . S
C2138 C2136 1.394 . S
C2138 C2139 1.369 . S
C2138 C2142 1.531 . S
C2139 C2138 1.369 . S
C2139 C2140 1.410 . S
C2139 C2147 1.503 . S
C2140 C2139 1.410 . S
C2140 C2141 1.392 . S
C2140 C2143 1.511 . S
C2141 C2137 1.376 . S
C2141 C2140 1.392 . S
C2141 H2153 0.929 . S
C2142 C2138 1.531 . S
C2142 H2154 0.960 . S
C2142 H2155 0.962 . S
C2142 H2156 0.960 . S
C2143 C2140 1.511 . S
C2143 H2157 0.961 . S
C2143 H2158 0.961 . S
C2143 H2159 0.961 . S
C2144 C2145 1.370 . S
C2144 C2146 1.363 . S
C2144 H2160 0.931 . S
C2145 C2144 1.370 . S
C2145 C2149 1.408 . S
C2146 C2144 1.363 . S
C2146 C2147 1.370 . S
C2146 C2150 1.524 . S
C2147 C2139 1.503 . S
C2147 C2146 1.370 . S
C2147 C2148 1.403 . S
C2148 C2147 1.403 . S
C2148 C2149 1.404 . S
C2148 C2151 1.539 . S
C2149 C2145 1.408 . S
C2149 C2148 1.404 . S
C2149 H2161 0.930 . S
C2150 C2146 1.524 . S
C2150 H2162 0.956 . S
C2150 H2163 0.961 . S
C2150 H2164 0.961 . S
C2151 C2148 1.539 . S
C2151 H2165 0.958 . S
C2151 H2166 0.961 . S
C2151 H2167 0.960 . S
H2152 C2136 0.931 . S
H2153 C2141 0.929 . S
H2154 C2142 0.960 . S
H2155 C2142 0.962 . S
H2156 C2142 0.960 . S
H2157 C2143 0.961 . S
H2158 C2143 0.961 . S
H2159 C2143 0.961 . S
H2160 C2144 0.931 . S
H2161 C2149 0.930 . S
H2162 C2150 0.956 . S
H2163 C2150 0.961 . S
H2164 C2150 0.961 . S
H2165 C2151 0.958 . S
H2166 C2151 0.961 . S
H2167 C2151 0.960 . S
C2168 C2169 1.391 . S
C2168 C2170 1.394 . S
C2168 H2184 0.931 . S
C2169 C2168 1.391 . S
C2169 C2173 1.376 . S
C2170 C2168 1.394 . S
C2170 C2171 1.369 . S
C2170 C2174 1.531 . S
C2171 C2170 1.369 . S
C2171 C2172 1.410 . S
C2171 C2179 1.503 . S
C2172 C2171 1.410 . S
C2172 C2173 1.392 . S
C2172 C2175 1.511 . S
C2173 C2169 1.376 . S
C2173 C2172 1.392 . S
C2173 H2185 0.929 . S
C2174 C2170 1.531 . S
C2174 H2186 0.960 . S
C2174 H2187 0.962 . S
C2174 H2188 0.960 . S
C2175 C2172 1.511 . S
C2175 H2189 0.961 . S
C2175 H2190 0.961 . S
C2175 H2191 0.961 . S
C2176 C2177 1.370 . S
C2176 C2178 1.363 . S
C2176 H2192 0.931 . S
C2177 C2176 1.370 . S
C2177 C2181 1.408 . S
C2178 C2176 1.363 . S
C2178 C2179 1.370 . S
C2178 C2182 1.524 . S
C2179 C2171 1.503 . S
C2179 C2178 1.370 . S
C2179 C2180 1.403 . S
C2180 C2179 1.403 . S
C2180 C2181 1.404 . S
C2180 C2183 1.539 . S
C2181 C2177 1.408 . S
C2181 C2180 1.404 . S
C2181 H2193 0.930 . S
C2182 C2178 1.524 . S
C2182 H2194 0.956 . S
C2182 H2195 0.961 . S
C2182 H2196 0.961 . S
C2183 C2180 1.539 . S
C2183 H2197 0.958 . S
C2183 H2198 0.961 . S
C2183 H2199 0.960 . S
H2184 C2168 0.931 . S
H2185 C2173 0.929 . S
H2186 C2174 0.960 . S
H2187 C2174 0.962 . S
H2188 C2174 0.960 . S
H2189 C2175 0.961 . S
H2190 C2175 0.961 . S
H2191 C2175 0.961 . S
H2192 C2176 0.931 . S
H2193 C2181 0.930 . S
H2194 C2182 0.956 . S
H2195 C2182 0.961 . S
H2196 C2182 0.961 . S
H2197 C2183 0.958 . S
H2198 C2183 0.961 . S
H2199 C2183 0.960 . S
C2200 C2201 1.391 . S
C2200 C2202 1.394 . S
C2200 H2216 0.931 . S
C2201 C2200 1.391 . S
C2201 C2205 1.376 . S
C2202 C2200 1.394 . S
C2202 C2203 1.369 . S
C2202 C2206 1.531 . S
C2203 C2202 1.369 . S
C2203 C2204 1.410 . S
C2203 C2211 1.503 . S
C2204 C2203 1.410 . S
C2204 C2205 1.392 . S
C2204 C2207 1.511 . S
C2205 C2201 1.376 . S
C2205 C2204 1.392 . S
C2205 H2217 0.929 . S
C2206 C2202 1.531 . S
C2206 H2218 0.960 . S
C2206 H2219 0.962 . S
C2206 H2220 0.960 . S
C2207 C2204 1.511 . S
C2207 H2221 0.961 . S
C2207 H2222 0.961 . S
C2207 H2223 0.961 . S
C2208 C2209 1.370 . S
C2208 C2210 1.363 . S
C2208 H2224 0.931 . S
C2209 C2208 1.370 . S
C2209 C2213 1.408 . S
C2210 C2208 1.363 . S
C2210 C2211 1.370 . S
C2210 C2214 1.524 . S
C2211 C2203 1.503 . S
C2211 C2210 1.370 . S
C2211 C2212 1.403 . S
C2212 C2211 1.403 . S
C2212 C2213 1.404 . S
C2212 C2215 1.539 . S
C2213 C2209 1.408 . S
C2213 C2212 1.404 . S
C2213 H2225 0.930 . S
C2214 C2210 1.524 . S
C2214 H2226 0.956 . S
C2214 H2227 0.961 . S
C2214 H2228 0.961 . S
C2215 C2212 1.539 . S
C2215 H2229 0.958 . S
C2215 H2230 0.961 . S
C2215 H2231 0.960 . S
H2216 C2200 0.931 . S
H2217 C2205 0.929 . S
H2218 C2206 0.960 . S
H2219 C2206 0.962 . S
H2220 C2206 0.960 . S
H2221 C2207 0.961 . S
H2222 C2207 0.961 . S
H2223 C2207 0.961 . S
H2224 C2208 0.931 . S
H2225 C2213 0.930 . S
H2226 C2214 0.956 . S
H2227 C2214 0.961 . S
H2228 C2214 0.961 . S
H2229 C2215 0.958 . S
H2230 C2215 0.961 . S
H2231 C2215 0.960 . S
C2232 C2233 1.391 . S
C2232 C2234 1.394 . S
C2232 H2248 0.931 . S
C2233 C2232 1.391 . S
C2233 C2237 1.376 . S
C2234 C2232 1.394 . S
C2234 C2235 1.369 . S
C2234 C2238 1.531 . S
C2235 C2234 1.369 . S
C2235 C2236 1.410 . S
C2235 C2243 1.503 . S
C2236 C2235 1.410 . S
C2236 C2237 1.392 . S
C2236 C2239 1.511 . S
C2237 C2233 1.376 . S
C2237 C2236 1.392 . S
C2237 H2249 0.929 . S
C2238 C2234 1.531 . S
C2238 H2250 0.960 . S
C2238 H2251 0.962 . S
C2238 H2252 0.960 . S
C2239 C2236 1.511 . S
C2239 H2253 0.961 . S
C2239 H2254 0.961 . S
C2239 H2255 0.961 . S
C2240 C2241 1.370 . S
C2240 C2242 1.363 . S
C2240 H2256 0.931 . S
C2241 C2240 1.370 . S
C2241 C2245 1.408 . S
C2242 C2240 1.363 . S
C2242 C2243 1.370 . S
C2242 C2246 1.524 . S
C2243 C2235 1.503 . S
C2243 C2242 1.370 . S
C2243 C2244 1.403 . S
C2244 C2243 1.403 . S
C2244 C2245 1.404 . S
C2244 C2247 1.539 . S
C2245 C2241 1.408 . S
C2245 C2244 1.404 . S
C2245 H2257 0.930 . S
C2246 C2242 1.524 . S
C2246 H2258 0.956 . S
C2246 H2259 0.961 . S
C2246 H2260 0.961 . S
C2247 C2244 1.539 . S
C2247 H2261 0.958 . S
C2247 H2262 0.961 . S
C2247 H2263 0.960 . S
H2248 C2232 0.931 . S
H2249 C2237 0.929 . S
H2250 C2238 0.960 . S
H2251 C2238 0.962 . S
H2252 C2238 0.960 . S
H2253 C2239 0.961 . S
H2254 C2239 0.961 . S
H2255 C2239 0.961 . S
H2256 C2240 0.931 . S
H2257 C2245 0.930 . S
H2258 C2246 0.956 . S
H2259 C2246 0.961 . S
H2260 C2246 0.961 . S
H2261 C2247 0.958 . S
H2262 C2247 0.961 . S
H2263 C2247 0.960 . S
C2264 C2265 1.391 . S
C2264 C2266 1.394 . S
C2264 H2280 0.931 . S
C2265 C2264 1.391 . S
C2265 C2269 1.376 . S
C2266 C2264 1.394 . S
C2266 C2267 1.369 . S
C2266 C2270 1.531 . S
C2267 C2266 1.369 . S
C2267 C2268 1.410 . S
C2267 C2275 1.503 . S
C2268 C2267 1.410 . S
C2268 C2269 1.392 . S
C2268 C2271 1.511 . S
C2269 C2265 1.376 . S
C2269 C2268 1.392 . S
C2269 H2281 0.929 . S
C2270 C2266 1.531 . S
C2270 H2282 0.960 . S
C2270 H2283 0.962 . S
C2270 H2284 0.960 . S
C2271 C2268 1.511 . S
C2271 H2285 0.961 . S
C2271 H2286 0.961 . S
C2271 H2287 0.961 . S
C2272 C2273 1.370 . S
C2272 C2274 1.363 . S
C2272 H2288 0.931 . S
C2273 C2272 1.370 . S
C2273 C2277 1.408 . S
C2274 C2272 1.363 . S
C2274 C2275 1.370 . S
C2274 C2278 1.524 . S
C2275 C2267 1.503 . S
C2275 C2274 1.370 . S
C2275 C2276 1.403 . S
C2276 C2275 1.403 . S
C2276 C2277 1.404 . S
C2276 C2279 1.539 . S
C2277 C2273 1.408 . S
C2277 C2276 1.404 . S
C2277 H2289 0.930 . S
C2278 C2274 1.524 . S
C2278 H2290 0.956 . S
C2278 H2291 0.961 . S
C2278 H2292 0.961 . S
C2279 C2276 1.539 . S
C2279 H2293 0.958 . S
C2279 H2294 0.961 . S
C2279 H2295 0.960 . S
H2280 C2264 0.931 . S
H2281 C2269 0.929 . S
H2282 C2270 0.960 . S
H2283 C2270 0.962 . S
H2284 C2270 0.960 . S
H2285 C2271 0.961 . S
H2286 C2271 0.961 . S
H2287 C2271 0.961 . S
H2288 C2272 0.931 . S
H2289 C2277 0.930 . S
H2290 C2278 0.956 . S
H2291 C2278 0.961 . S
H2292 C2278 0.961 . S
H2293 C2279 0.958 . S
H2294 C2279 0.961 . S
H2295 C2279 0.960 . S
C2296 C2297 1.391 . S
C2296 C2298 1.394 . S
C2296 H2312 0.931 . S
C2297 C2296 1.391 . S
C2297 C2301 1.376 . S
C2298 C2296 1.394 . S
C2298 C2299 1.369 . S
C2298 C2302 1.531 . S
C2299 C2298 1.369 . S
C2299 C2300 1.410 . S
C2299 C2307 1.503 . S
C2300 C2299 1.410 . S
C2300 C2301 1.392 . S
C2300 C2303 1.511 . S
C2301 C2297 1.376 . S
C2301 C2300 1.392 . S
C2301 H2313 0.929 . S
C2302 C2298 1.531 . S
C2302 H2314 0.960 . S
C2302 H2315 0.962 . S
C2302 H2316 0.960 . S
C2303 C2300 1.511 . S
C2303 H2317 0.961 . S
C2303 H2318 0.961 . S
C2303 H2319 0.961 . S
C2304 C2305 1.370 . S
C2304 C2306 1.363 . S
C2304 H2320 0.931 . S
C2305 C2304 1.370 . S
C2305 C2309 1.408 . S
C2306 C2304 1.363 . S
C2306 C2307 1.370 . S
C2306 C2310 1.524 . S
C2307 C2299 1.503 . S
C2307 C2306 1.370 . S
C2307 C2308 1.403 . S
C2308 C2307 1.403 . S
C2308 C2309 1.404 . S
C2308 C2311 1.539 . S
C2309 C2305 1.408 . S
C2309 C2308 1.404 . S
C2309 H2321 0.930 . S
C2310 C2306 1.524 . S
C2310 H2322 0.956 . S
C2310 H2323 0.961 . S
C2310 H2324 0.961 . S
C2311 C2308 1.539 . S
C2311 H2325 0.958 . S
C2311 H2326 0.961 . S
C2311 H2327 0.960 . S
H2312 C2296 0.931 . S
H2313 C2301 0.929 . S
H2314 C2302 0.960 . S
H2315 C2302 0.962 . S
H2316 C2302 0.960 . S
H2317 C2303 0.961 . S
H2318 C2303 0.961 . S
H2319 C2303 0.961 . S
H2320 C2304 0.931 . S
H2321 C2309 0.930 . S
H2322 C2310 0.956 . S
H2323 C2310 0.961 . S
H2324 C2310 0.961 . S
H2325 C2311 0.958 . S
H2326 C2311 0.961 . S
H2327 C2311 0.960 . S
C2328 C2329 1.391 . S
C2328 C2330 1.394 . S
C2328 H2344 0.931 . S
C2329 C2328 1.391 . S
C2329 C2333 1.376 . S
C2330 C2328 1.394 . S
C2330 C2331 1.369 . S
C2330 C2334 1.531 . S
C2331 C2330 1.369 . S
C2331 C2332 1.410 . S
C2331 C2339 1.503 . S
C2332 C2331 1.410 . S
C2332 C2333 1.392 . S
C2332 C2335 1.511 . S
C2333 C2329 1.376 . S
C2333 C2332 1.392 . S
C2333 H2345 0.929 . S
C2334 C2330 1.531 . S
C2334 H2346 0.960 . S
C2334 H2347 0.962 . S
C2334 H2348 0.960 . S
C2335 C2332 1.511 . S
C2335 H2349 0.961 . S
C2335 H2350 0.961 . S
C2335 H2351 0.961 . S
C2336 C2337 1.370 . S
C2336 C2338 1.363 . S
C2336 H2352 0.931 . S
C2337 C2336 1.370 . S
C2337 C2341 1.408 . S
C2338 C2336 1.363 . S
C2338 C2339 1.370 . S
C2338 C2342 1.524 . S
C2339 C2331 1.503 . S
C2339 C2338 1.370 . S
C2339 C2340 1.403 . S
C2340 C2339 1.403 . S
C2340 C2341 1.404 . S
C2340 C2343 1.539 . S
C2341 C2337 1.408 . S
C2341 C2340 1.404 . S
C2341 H2353 0.930 . S
C2342 C2338 1.524 . S
C2342 H2354 0.956 . S
C2342 H2355 0.961 . S
C2342 H2356 0.961 . S
C2343 C2340 1.539 . S
C2343 H2357 0.958 . S
C2343 H2358 0.961 . S
C2343 H2359 0.960 . S
H2344 C2328 0.931 . S
H2345 C2333 0.929 . S
H2346 C2334 0.960 . S
H2347 C2334 0.962 . S
H2348 C2334 0.960 . S
H2349 C2335 0.961 . S
H2350 C2335 0.961 . S
H2351 C2335 0.961 . S
H2352 C2336 0.931 . S
H2353 C2341 0.930 . S
H2354 C2342 0.956 . S
H2355 C2342 0.961 . S
H2356 C2342 0.961 . S
H2357 C2343 0.958 . S
H2358 C2343 0.961 . S
H2359 C2343 0.960 . S
C2360 C2361 1.391 . S
C2360 C2362 1.394 . S
C2360 H2376 0.931 . S
C2361 C2360 1.391 . S
C2361 C2365 1.376 . S
C2362 C2360 1.394 . S
C2362 C2363 1.369 . S
C2362 C2366 1.531 . S
C2363 C2362 1.369 . S
C2363 C2364 1.410 . S
C2363 C2371 1.503 . S
C2364 C2363 1.410 . S
C2364 C2365 1.392 . S
C2364 C2367 1.511 . S
C2365 C2361 1.376 . S
C2365 C2364 1.392 . S
C2365 H2377 0.929 . S
C2366 C2362 1.531 . S
C2366 H2378 0.960 . S
C2366 H2379 0.962 . S
C2366 H2380 0.960 . S
C2367 C2364 1.511 . S
C2367 H2381 0.961 . S
C2367 H2382 0.961 . S
C2367 H2383 0.961 . S
C2368 C2369 1.370 . S
C2368 C2370 1.363 . S
C2368 H2384 0.931 . S
C2369 C2368 1.370 . S
C2369 C2373 1.408 . S
C2370 C2368 1.363 . S
C2370 C2371 1.370 . S
C2370 C2374 1.524 . S
C2371 C2363 1.503 . S
C2371 C2370 1.370 . S
C2371 C2372 1.403 . S
C2372 C2371 1.403 . S
C2372 C2373 1.404 . S
C2372 C2375 1.539 . S
C2373 C2369 1.408 . S
C2373 C2372 1.404 . S
C2373 H2385 0.930 . S
C2374 C2370 1.524 . S
C2374 H2386 0.956 . S
C2374 H2387 0.961 . S
C2374 H2388 0.961 . S
C2375 C2372 1.539 . S
C2375 H2389 0.958 . S
C2375 H2390 0.961 . S
C2375 H2391 0.960 . S
H2376 C2360 0.931 . S
H2377 C2365 0.929 . S
H2378 C2366 0.960 . S
H2379 C2366 0.962 . S
H2380 C2366 0.960 . S
H2381 C2367 0.961 . S
H2382 C2367 0.961 . S
H2383 C2367 0.961 . S
H2384 C2368 0.931 . S
H2385 C2373 0.930 . S
H2386 C2374 0.956 . S
H2387 C2374 0.961 . S
H2388 C2374 0.961 . S
H2389 C2375 0.958 . S
H2390 C2375 0.961 . S
H2391 C2375 0.960 . S
C2392 C2393 1.391 . S
C2392 C2394 1.394 . S
C2392 H2408 0.931 . S
C2393 C2392 1.391 . S
C2393 C2397 1.376 . S
C2394 C2392 1.394 . S
C2394 C2395 1.369 . S
C2394 C2398 1.531 . S
C2395 C2394 1.369 . S
C2395 C2396 1.410 . S
C2395 C2403 1.503 . S
C2396 C2395 1.410 . S
C2396 C2397 1.392 . S
C2396 C2399 1.511 . S
C2397 C2393 1.376 . S
C2397 C2396 1.392 . S
C2397 H2409 0.929 . S
C2398 C2394 1.531 . S
C2398 H2410 0.960 . S
C2398 H2411 0.962 . S
C2398 H2412 0.960 . S
C2399 C2396 1.511 . S
C2399 H2413 0.961 . S
C2399 H2414 0.961 . S
C2399 H2415 0.961 . S
C2400 C2401 1.370 . S
C2400 C2402 1.363 . S
C2400 H2416 0.931 . S
C2401 C2400 1.370 . S
C2401 C2405 1.408 . S
C2402 C2400 1.363 . S
C2402 C2403 1.370 . S
C2402 C2406 1.524 . S
C2403 C2395 1.503 . S
C2403 C2402 1.370 . S
C2403 C2404 1.403 . S
C2404 C2403 1.403 . S
C2404 C2405 1.404 . S
C2404 C2407 1.539 . S
C2405 C2401 1.408 . S
C2405 C2404 1.404 . S
C2405 H2417 0.930 . S
C2406 C2402 1.524 . S
C2406 H2418 0.956 . S
C2406 H2419 0.961 . S
C2406 H2420 0.961 . S
C2407 C2404 1.539 . S
C2407 H2421 0.958 . S
C2407 H2422 0.961 . S
C2407 H2423 0.960 . S
H2408 C2392 0.931 . S
H2409 C2397 0.929 . S
H2410 C2398 0.960 . S
H2411 C2398 0.962 . S
H2412 C2398 0.960 . S
H2413 C2399 0.961 . S
H2414 C2399 0.961 . S
H2415 C2399 0.961 . S
H2416 C2400 0.931 . S
H2417 C2405 0.930 . S
H2418 C2406 0.956 . S
H2419 C2406 0.961 . S
H2420 C2406 0.961 . S
H2421 C2407 0.958 . S
H2422 C2407 0.961 . S
H2423 C2407 0.960 . S
C2424 C2425 1.391 . S
C2424 C2426 1.394 . S
C2424 H2440 0.931 . S
C2425 C2424 1.391 . S
C2425 C2429 1.376 . S
C2426 C2424 1.394 . S
C2426 C2427 1.369 . S
C2426 C2430 1.531 . S
C2427 C2426 1.369 . S
C2427 C2428 1.410 . S
C2427 C2435 1.503 . S
C2428 C2427 1.410 . S
C2428 C2429 1.392 . S
C2428 C2431 1.511 . S
C2429 C2425 1.376 . S
C2429 C2428 1.392 . S
C2429 H2441 0.929 . S
C2430 C2426 1.531 . S
C2430 H2442 0.960 . S
C2430 H2443 0.962 . S
C2430 H2444 0.960 . S
C2431 C2428 1.511 . S
C2431 H2445 0.961 . S
C2431 H2446 0.961 . S
C2431 H2447 0.961 . S
C2432 C2433 1.370 . S
C2432 C2434 1.363 . S
C2432 H2448 0.931 . S
C2433 C2432 1.370 . S
C2433 C2437 1.408 . S
C2434 C2432 1.363 . S
C2434 C2435 1.370 . S
C2434 C2438 1.524 . S
C2435 C2427 1.503 . S
C2435 C2434 1.370 . S
C2435 C2436 1.403 . S
C2436 C2435 1.403 . S
C2436 C2437 1.404 . S
C2436 C2439 1.539 . S
C2437 C2433 1.408 . S
C2437 C2436 1.404 . S
C2437 H2449 0.930 . S
C2438 C2434 1.524 . S
C2438 H2450 0.956 . S
C2438 H2451 0.961 . S
C2438 H2452 0.961 . S
C2439 C2436 1.539 . S
C2439 H2453 0.958 . S
C2439 H2454 0.961 . S
C2439 H2455 0.960 . S
H2440 C2424 0.931 . S
H2441 C2429 0.929 . S
H2442 C2430 0.960 . S
H2443 C2430 0.962 . S
H2444 C2430 0.960 . S
H2445 C2431 0.961 . S
H2446 C2431 0.961 . S
H2447 C2431 0.961 . S
H2448 C2432 0.931 . S
H2449 C2437 0.930 . S
H2450 C2438 0.956 . S
H2451 C2438 0.961 . S
H2452 C2438 0.961 . S
H2453 C2439 0.958 . S
H2454 C2439 0.961 . S
H2455 C2439 0.960 . S
C2456 C2457 1.391 . S
C2456 C2458 1.394 . S
C2456 H2472 0.931 . S
C2457 C2456 1.391 . S
C2457 C2461 1.376 . S
C2458 C2456 1.394 . S
C2458 C2459 1.369 . S
C2458 C2462 1.531 . S
C2459 C2458 1.369 . S
C2459 C2460 1.410 . S
C2459 C2467 1.503 . S
C2460 C2459 1.410 . S
C2460 C2461 1.392 . S
C2460 C2463 1.511 . S
C2461 C2457 1.376 . S
C2461 C2460 1.392 . S
C2461 H2473 0.929 . S
C2462 C2458 1.531 . S
C2462 H2474 0.960 . S
C2462 H2475 0.962 . S
C2462 H2476 0.960 . S
C2463 C2460 1.511 . S
C2463 H2477 0.961 . S
C2463 H2478 0.961 . S
C2463 H2479 0.961 . S
C2464 C2465 1.370 . S
C2464 C2466 1.363 . S
C2464 H2480 0.931 . S
C2465 C2464 1.370 . S
C2465 C2469 1.408 . S
C2466 C2464 1.363 . S
C2466 C2467 1.370 . S
C2466 C2470 1.524 . S
C2467 C2459 1.503 . S
C2467 C2466 1.370 . S
C2467 C2468 1.403 . S
C2468 C2467 1.403 . S
C2468 C2469 1.404 . S
C2468 C2471 1.539 . S
C2469 C2465 1.408 . S
C2469 C2468 1.404 . S
C2469 H2481 0.930 . S
C2470 C2466 1.524 . S
C2470 H2482 0.956 . S
C2470 H2483 0.961 . S
C2470 H2484 0.961 . S
C2471 C2468 1.539 . S
C2471 H2485 0.958 . S
C2471 H2486 0.961 . S
C2471 H2487 0.960 . S
H2472 C2456 0.931 . S
H2473 C2461 0.929 . S
H2474 C2462 0.960 . S
H2475 C2462 0.962 . S
H2476 C2462 0.960 . S
H2477 C2463 0.961 . S
H2478 C2463 0.961 . S
H2479 C2463 0.961 . S
H2480 C2464 0.931 . S
H2481 C2469 0.930 . S
H2482 C2470 0.956 . S
H2483 C2470 0.961 . S
H2484 C2470 0.961 . S
H2485 C2471 0.958 . S
H2486 C2471 0.961 . S
H2487 C2471 0.960 . S
C2488 C2489 1.391 . S
C2488 C2490 1.394 . S
C2488 H2504 0.931 . S
C2489 C2488 1.391 . S
C2489 C2493 1.376 . S
C2490 C2488 1.394 . S
C2490 C2491 1.369 . S
C2490 C2494 1.531 . S
C2491 C2490 1.369 . S
C2491 C2492 1.410 . S
C2491 C2499 1.503 . S
C2492 C2491 1.410 . S
C2492 C2493 1.392 . S
C2492 C2495 1.511 . S
C2493 C2489 1.376 . S
C2493 C2492 1.392 . S
C2493 H2505 0.929 . S
C2494 C2490 1.531 . S
C2494 H2506 0.960 . S
C2494 H2507 0.962 . S
C2494 H2508 0.960 . S
C2495 C2492 1.511 . S
C2495 H2509 0.961 . S
C2495 H2510 0.961 . S
C2495 H2511 0.961 . S
C2496 C2497 1.370 . S
C2496 C2498 1.363 . S
C2496 H2512 0.931 . S
C2497 C2496 1.370 . S
C2497 C2501 1.408 . S
C2498 C2496 1.363 . S
C2498 C2499 1.370 . S
C2498 C2502 1.524 . S
C2499 C2491 1.503 . S
C2499 C2498 1.370 . S
C2499 C2500 1.403 . S
C2500 C2499 1.403 . S
C2500 C2501 1.404 . S
C2500 C2503 1.539 . S
C2501 C2497 1.408 . S
C2501 C2500 1.404 . S
C2501 H2513 0.930 . S
C2502 C2498 1.524 . S
C2502 H2514 0.956 . S
C2502 H2515 0.961 . S
C2502 H2516 0.961 . S
C2503 C2500 1.539 . S
C2503 H2517 0.958 . S
C2503 H2518 0.961 . S
C2503 H2519 0.960 . S
H2504 C2488 0.931 . S
H2505 C2493 0.929 . S
H2506 C2494 0.960 . S
H2507 C2494 0.962 . S
H2508 C2494 0.960 . S
H2509 C2495 0.961 . S
H2510 C2495 0.961 . S
H2511 C2495 0.961 . S
H2512 C2496 0.931 . S
H2513 C2501 0.930 . S
H2514 C2502 0.956 . S
H2515 C2502 0.961 . S
H2516 C2502 0.961 . S
H2517 C2503 0.958 . S
H2518 C2503 0.961 . S
H2519 C2503 0.960 . S
C2520 C2521 1.391 . S
C2520 C2522 1.394 . S
C2520 H2536 0.931 . S
C2521 C2520 1.391 . S
C2521 C2525 1.376 . S
C2522 C2520 1.394 . S
C2522 C2523 1.369 . S
C2522 C2526 1.531 . S
C2523 C2522 1.369 . S
C2523 C2524 1.410 . S
C2523 C2531 1.503 . S
C2524 C2523 1.410 . S
C2524 C2525 1.392 . S
C2524 C2527 1.511 . S
C2525 C2521 1.376 . S
C2525 C2524 1.392 . S
C2525 H2537 0.929 . S
C2526 C2522 1.531 . S
C2526 H2538 0.960 . S
C2526 H2539 0.962 . S
C2526 H2540 0.960 . S
C2527 C2524 1.511 . S
C2527 H2541 0.961 . S
C2527 H2542 0.961 . S
C2527 H2543 0.961 . S
C2528 C2529 1.370 . S
C2528 C2530 1.363 . S
C2528 H2544 0.931 . S
C2529 C2528 1.370 . S
C2529 C2533 1.408 . S
C2530 C2528 1.363 . S
C2530 C2531 1.370 . S
C2530 C2534 1.524 . S
C2531 C2523 1.503 . S
C2531 C2530 1.370 . S
C2531 C2532 1.403 . S
C2532 C2531 1.403 . S
C2532 C2533 1.404 . S
C2532 C2535 1.539 . S
C2533 C2529 1.408 . S
C2533 C2532 1.404 . S
C2533 H2545 0.930 . S
C2534 C2530 1.524 . S
C2534 H2546 0.956 . S
C2534 H2547 0.961 . S
C2534 H2548 0.961 . S
C2535 C2532 1.539 . S
C2535 H2549 0.958 . S
C2535 H2550 0.961 . S
C2535 H2551 0.960 . S
H2536 C2520 0.931 . S
H2537 C2525 0.929 . S
H2538 C2526 0.960 . S
H2539 C2526 0.962 . S
H2540 C2526 0.960 . S
H2541 C2527 0.961 . S
H2542 C2527 0.961 . S
H2543 C2527 0.961 . S
H2544 C2528 0.931 . S
H2545 C2533 0.930 . S
H2546 C2534 0.956 . S
H2547 C2534 0.961 . S
H2548 C2534 0.961 . S
H2549 C2535 0.958 . S
H2550 C2535 0.961 . S
H2551 C2535 0.960 . S
C2552 C2553 1.391 . S
C2552 C2554 1.394 . S
C2552 H2568 0.931 . S
C2553 C2552 1.391 . S
C2553 C2557 1.376 . S
C2554 C2552 1.394 . S
C2554 C2555 1.369 . S
C2554 C2558 1.531 . S
C2555 C2554 1.369 . S
C2555 C2556 1.410 . S
C2555 C2563 1.503 . S
C2556 C2555 1.410 . S
C2556 C2557 1.392 . S
C2556 C2559 1.511 . S
C2557 C2553 1.376 . S
C2557 C2556 1.392 . S
C2557 H2569 0.929 . S
C2558 C2554 1.531 . S
C2558 H2570 0.960 . S
C2558 H2571 0.962 . S
C2558 H2572 0.960 . S
C2559 C2556 1.511 . S
C2559 H2573 0.961 . S
C2559 H2574 0.961 . S
C2559 H2575 0.961 . S
C2560 C2561 1.370 . S
C2560 C2562 1.363 . S
C2560 H2576 0.931 . S
C2561 C2560 1.370 . S
C2561 C2565 1.408 . S
C2562 C2560 1.363 . S
C2562 C2563 1.370 . S
C2562 C2566 1.524 . S
C2563 C2555 1.503 . S
C2563 C2562 1.370 . S
C2563 C2564 1.403 . S
C2564 C2563 1.403 . S
C2564 C2565 1.404 . S
C2564 C2567 1.539 . S
C2565 C2561 1.408 . S
C2565 C2564 1.404 . S
C2565 H2577 0.930 . S
C2566 C2562 1.524 . S
C2566 H2578 0.956 . S
C2566 H2579 0.961 . S
C2566 H2580 0.961 . S
C2567 C2564 1.539 . S
C2567 H2581 0.958 . S
C2567 H2582 0.961 . S
C2567 H2583 0.960 . S
H2568 C2552 0.931 . S
H2569 C2557 0.929 . S
H2570 C2558 0.960 . S
H2571 C2558 0.962 . S
H2572 C2558 0.960 . S
H2573 C2559 0.961 . S
H2574 C2559 0.961 . S
H2575 C2559 0.961 . S
H2576 C2560 0.931 . S
H2577 C2565 0.930 . S
H2578 C2566 0.956 . S
H2579 C2566 0.961 . S
H2580 C2566 0.961 . S
H2581 C2567 0.958 . S
H2582 C2567 0.961 . S
H2583 C2567 0.960 . S
C2584 C2585 1.391 . S
C2584 C2586 1.394 . S
C2584 H2600 0.931 . S
C2585 C2584 1.391 . S
C2585 C2589 1.376 . S
C2586 C2584 1.394 . S
C2586 C2587 1.369 . S
C2586 C2590 1.531 . S
C2587 C2586 1.369 . S
C2587 C2588 1.410 . S
C2587 C2595 1.503 . S
C2588 C2587 1.410 . S
C2588 C2589 1.392 . S
C2588 C2591 1.511 . S
C2589 C2585 1.376 . S
C2589 C2588 1.392 . S
C2589 H2601 0.929 . S
C2590 C2586 1.531 . S
C2590 H2602 0.960 . S
C2590 H2603 0.962 . S
C2590 H2604 0.960 . S
C2591 C2588 1.511 . S
C2591 H2605 0.961 . S
C2591 H2606 0.961 . S
C2591 H2607 0.961 . S
C2592 C2593 1.370 . S
C2592 C2594 1.363 . S
C2592 H2608 0.931 . S
C2593 C2592 1.370 . S
C2593 C2597 1.408 . S
C2594 C2592 1.363 . S
C2594 C2595 1.370 . S
C2594 C2598 1.524 . S
C2595 C2587 1.503 . S
C2595 C2594 1.370 . S
C2595 C2596 1.403 . S
C2596 C2595 1.403 . S
C2596 C2597 1.404 . S
C2596 C2599 1.539 . S
C2597 C2593 1.408 . S
C2597 C2596 1.404 . S
C2597 H2609 0.930 . S
C2598 C2594 1.524 . S
C2598 H2610 0.956 . S
C2598 H2611 0.961 . S
C2598 H2612 0.961 . S
C2599 C2596 1.539 . S
C2599 H2613 0.958 . S
C2599 H2614 0.961 . S
C2599 H2615 0.960 . S
H2600 C2584 0.931 . S
H2601 C2589 0.929 . S
H2602 C2590 0.960 . S
H2603 C2590 0.962 . S
H2604 C2590 0.960 . S
H2605 C2591 0.961 . S
H2606 C2591 0.961 . S
H2607 C2591 0.961 . S
H2608 C2592 0.931 . S
H2609 C2597 0.930 . S
H2610 C2598 0.956 . S
H2611 C2598 0.961 . S
H2612 C2598 0.961 . S
H2613 C2599 0.958 . S
H2614 C2599 0.961 . S
H2615 C2599 0.960 . S
C2616 C2617 1.391 . S
C2616 C2618 1.394 . S
C2616 H2632 0.931 . S
C2617 C2616 1.391 . S
C2617 C2621 1.376 . S
C2618 C2616 1.394 . S
C2618 C2619 1.369 . S
C2618 C2622 1.531 . S
C2619 C2618 1.369 . S
C2619 C2620 1.410 . S
C2619 C2627 1.503 . S
C2620 C2619 1.410 . S
C2620 C2621 1.392 . S
C2620 C2623 1.511 . S
C2621 C2617 1.376 . S
C2621 C2620 1.392 . S
C2621 H2633 0.929 . S
C2622 C2618 1.531 . S
C2622 H2634 0.960 . S
C2622 H2635 0.962 . S
C2622 H2636 0.960 . S
C2623 C2620 1.511 . S
C2623 H2637 0.961 . S
C2623 H2638 0.961 . S
C2623 H2639 0.961 . S
C2624 C2625 1.370 . S
C2624 C2626 1.363 . S
C2624 H2640 0.931 . S
C2625 C2624 1.370 . S
C2625 C2629 1.408 . S
C2626 C2624 1.363 . S
C2626 C2627 1.370 . S
C2626 C2630 1.524 . S
C2627 C2619 1.503 . S
C2627 C2626 1.370 . S
C2627 C2628 1.403 . S
C2628 C2627 1.403 . S
C2628 C2629 1.404 . S
C2628 C2631 1.539 . S
C2629 C2625 1.408 . S
C2629 C2628 1.404 . S
C2629 H2641 0.930 . S
C2630 C2626 1.524 . S
C2630 H2642 0.956 . S
C2630 H2643 0.961 . S
C2630 H2644 0.961 . S
C2631 C2628 1.539 . S
C2631 H2645 0.958 . S
C2631 H2646 0.961 . S
C2631 H2647 0.960 . S
H2632 C2616 0.931 . S
H2633 C2621 0.929 . S
H2634 C2622 0.960 . S
H2635 C2622 0.962 . S
H2636 C2622 0.960 . S
H2637 C2623 0.961 . S
H2638 C2623 0.961 . S
H2639 C2623 0.961 . S
H2640 C2624 0.931 . S
H2641 C2629 0.930 . S
H2642 C2630 0.956 . S
H2643 C2630 0.961 . S
H2644 C2630 0.961 . S
H2645 C2631 0.958 . S
H2646 C2631 0.961 . S
H2647 C2631 0.960 . S
C2648 C2649 1.391 . S
C2648 C2650 1.394 . S
C2648 H2664 0.931 . S
C2649 C2648 1.391 . S
C2649 C2653 1.376 . S
C2650 C2648 1.394 . S
C2650 C2651 1.369 . S
C2650 C2654 1.531 . S
C2651 C2650 1.369 . S
C2651 C2652 1.410 . S
C2651 C2659 1.503 . S
C2652 C2651 1.410 . S
C2652 C2653 1.392 . S
C2652 C2655 1.511 . S
C2653 C2649 1.376 . S
C2653 C2652 1.392 . S
C2653 H2665 0.929 . S
C2654 C2650 1.531 . S
C2654 H2666 0.960 . S
C2654 H2667 0.962 . S
C2654 H2668 0.960 . S
C2655 C2652 1.511 . S
C2655 H2669 0.961 . S
C2655 H2670 0.961 . S
C2655 H2671 0.961 . S
C2656 C2657 1.370 . S
C2656 C2658 1.363 . S
C2656 H2672 0.931 . S
C2657 C2656 1.370 . S
C2657 C2661 1.408 . S
C2658 C2656 1.363 . S
C2658 C2659 1.370 . S
C2658 C2662 1.524 . S
C2659 C2651 1.503 . S
C2659 C2658 1.370 . S
C2659 C2660 1.403 . S
C2660 C2659 1.403 . S
C2660 C2661 1.404 . S
C2660 C2663 1.539 . S
C2661 C2657 1.408 . S
C2661 C2660 1.404 . S
C2661 H2673 0.930 . S
C2662 C2658 1.524 . S
C2662 H2674 0.956 . S
C2662 H2675 0.961 . S
C2662 H2676 0.961 . S
C2663 C2660 1.539 . S
C2663 H2677 0.958 . S
C2663 H2678 0.961 . S
C2663 H2679 0.960 . S
H2664 C2648 0.931 . S
H2665 C2653 0.929 . S
H2666 C2654 0.960 . S
H2667 C2654 0.962 . S
H2668 C2654 0.960 . S
H2669 C2655 0.961 . S
H2670 C2655 0.961 . S
H2671 C2655 0.961 . S
H2672 C2656 0.931 . S
H2673 C2661 0.930 . S
H2674 C2662 0.956 . S
H2675 C2662 0.961 . S
H2676 C2662 0.961 . S
H2677 C2663 0.958 . S
H2678 C2663 0.961 . S
H2679 C2663 0.960 . S
C2680 C2681 1.391 . S
C2680 C2682 1.394 . S
C2680 H2696 0.931 . S
C2681 C2680 1.391 . S
C2681 C2685 1.376 . S
C2682 C2680 1.394 . S
C2682 C2683 1.369 . S
C2682 C2686 1.531 . S
C2683 C2682 1.369 . S
C2683 C2684 1.410 . S
C2683 C2691 1.503 . S
C2684 C2683 1.410 . S
C2684 C2685 1.392 . S
C2684 C2687 1.511 . S
C2685 C2681 1.376 . S
C2685 C2684 1.392 . S
C2685 H2697 0.929 . S
C2686 C2682 1.531 . S
C2686 H2698 0.960 . S
C2686 H2699 0.962 . S
C2686 H2700 0.960 . S
C2687 C2684 1.511 . S
C2687 H2701 0.961 . S
C2687 H2702 0.961 . S
C2687 H2703 0.961 . S
C2688 C2689 1.370 . S
C2688 C2690 1.363 . S
C2688 H2704 0.931 . S
C2689 C2688 1.370 . S
C2689 C2693 1.408 . S
C2690 C2688 1.363 . S
C2690 C2691 1.370 . S
C2690 C2694 1.524 . S
C2691 C2683 1.503 . S
C2691 C2690 1.370 . S
C2691 C2692 1.403 . S
C2692 C2691 1.403 . S
C2692 C2693 1.404 . S
C2692 C2695 1.539 . S
C2693 C2689 1.408 . S
C2693 C2692 1.404 . S
C2693 H2705 0.930 . S
C2694 C2690 1.524 . S
C2694 H2706 0.956 . S
C2694 H2707 0.961 . S
C2694 H2708 0.961 . S
C2695 C2692 1.539 . S
C2695 H2709 0.958 . S
C2695 H2710 0.961 . S
C2695 H2711 0.960 . S
H2696 C2680 0.931 . S
H2697 C2685 0.929 . S
H2698 C2686 0.960 . S
H2699 C2686 0.962 . S
H2700 C2686 0.960 . S
H2701 C2687 0.961 . S
H2702 C2687 0.961 . S
H2703 C2687 0.961 . S
H2704 C2688 0.931 . S
H2705 C2693 0.930 . S
H2706 C2694 0.956 . S
H2707 C2694 0.961 . S
H2708 C2694 0.961 . S
H2709 C2695 0.958 . S
H2710 C2695 0.961 . S
H2711 C2695 0.960 . S
C2712 C2713 1.391 . S
C2712 C2714 1.394 . S
C2712 H2728 0.931 . S
C2713 C2712 1.391 . S
C2713 C2717 1.376 . S
C2714 C2712 1.394 . S
C2714 C2715 1.369 . S
C2714 C2718 1.531 . S
C2715 C2714 1.369 . S
C2715 C2716 1.410 . S
C2715 C2723 1.503 . S
C2716 C2715 1.410 . S
C2716 C2717 1.392 . S
C2716 C2719 1.511 . S
C2717 C2713 1.376 . S
C2717 C2716 1.392 . S
C2717 H2729 0.929 . S
C2718 C2714 1.531 . S
C2718 H2730 0.960 . S
C2718 H2731 0.962 . S
C2718 H2732 0.960 . S
C2719 C2716 1.511 . S
C2719 H2733 0.961 . S
C2719 H2734 0.961 . S
C2719 H2735 0.961 . S
C2720 C2721 1.370 . S
C2720 C2722 1.363 . S
C2720 H2736 0.931 . S
C2721 C2720 1.370 . S
C2721 C2725 1.408 . S
C2722 C2720 1.363 . S
C2722 C2723 1.370 . S
C2722 C2726 1.524 . S
C2723 C2715 1.503 . S
C2723 C2722 1.370 . S
C2723 C2724 1.403 . S
C2724 C2723 1.403 . S
C2724 C2725 1.404 . S
C2724 C2727 1.539 . S
C2725 C2721 1.408 . S
C2725 C2724 1.404 . S
C2725 H2737 0.930 . S
C2726 C2722 1.524 . S
C2726 H2738 0.956 . S
C2726 H2739 0.961 . S
C2726 H2740 0.961 . S
C2727 C2724 1.539 . S
C2727 H2741 0.958 . S
C2727 H2742 0.961 . S
C2727 H2743 0.960 . S
H2728 C2712 0.931 . S
H2729 C2717 0.929 . S
H2730 C2718 0.960 . S
H2731 C2718 0.962 . S
H2732 C2718 0.960 . S
H2733 C2719 0.961 . S
H2734 C2719 0.961 . S
H2735 C2719 0.961 . S
H2736 C2720 0.931 . S
H2737 C2725 0.930 . S
H2738 C2726 0.956 . S
H2739 C2726 0.961 . S
H2740 C2726 0.961 . S
H2741 C2727 0.958 . S
H2742 C2727 0.961 . S
H2743 C2727 0.960 . S
C2744 C2745 1.391 . S
C2744 C2746 1.394 . S
C2744 H2760 0.931 . S
C2745 C2744 1.391 . S
C2745 C2749 1.376 . S
C2746 C2744 1.394 . S
C2746 C2747 1.369 . S
C2746 C2750 1.531 . S
C2747 C2746 1.369 . S
C2747 C2748 1.410 . S
C2747 C2755 1.503 . S
C2748 C2747 1.410 . S
C2748 C2749 1.392 . S
C2748 C2751 1.511 . S
C2749 C2745 1.376 . S
C2749 C2748 1.392 . S
C2749 H2761 0.929 . S
C2750 C2746 1.531 . S
C2750 H2762 0.960 . S
C2750 H2763 0.962 . S
C2750 H2764 0.960 . S
C2751 C2748 1.511 . S
C2751 H2765 0.961 . S
C2751 H2766 0.961 . S
C2751 H2767 0.961 . S
C2752 C2753 1.370 . S
C2752 C2754 1.363 . S
C2752 H2768 0.931 . S
C2753 C2752 1.370 . S
C2753 C2757 1.408 . S
C2754 C2752 1.363 . S
C2754 C2755 1.370 . S
C2754 C2758 1.524 . S
C2755 C2747 1.503 . S
C2755 C2754 1.370 . S
C2755 C2756 1.403 . S
C2756 C2755 1.403 . S
C2756 C2757 1.404 . S
C2756 C2759 1.539 . S
C2757 C2753 1.408 . S
C2757 C2756 1.404 . S
C2757 H2769 0.930 . S
C2758 C2754 1.524 . S
C2758 H2770 0.956 . S
C2758 H2771 0.961 . S
C2758 H2772 0.961 . S
C2759 C2756 1.539 . S
C2759 H2773 0.958 . S
C2759 H2774 0.961 . S
C2759 H2775 0.960 . S
H2760 C2744 0.931 . S
H2761 C2749 0.929 . S
H2762 C2750 0.960 . S
H2763 C2750 0.962 . S
H2764 C2750 0.960 . S
H2765 C2751 0.961 . S
H2766 C2751 0.961 . S
H2767 C2751 0.961 . S
H2768 C2752 0.931 . S
H2769 C2757 0.930 . S
H2770 C2758 0.956 . S
H2771 C2758 0.961 . S
H2772 C2758 0.961 . S
H2773 C2759 0.958 . S
H2774 C2759 0.961 . S
H2775 C2759 0.960 . S
C2776 C2777 1.391 . S
C2776 C2778 1.394 . S
C2776 H2792 0.931 . S
C2777 C2776 1.391 . S
C2777 C2781 1.376 . S
C2778 C2776 1.394 . S
C2778 C2779 1.369 . S
C2778 C2782 1.531 . S
C2779 C2778 1.369 . S
C2779 C2780 1.410 . S
C2779 C2787 1.503 . S
C2780 C2779 1.410 . S
C2780 C2781 1.392 . S
C2780 C2783 1.511 . S
C2781 C2777 1.376 . S
C2781 C2780 1.392 . S
C2781 H2793 0.929 . S
C2782 C2778 1.531 . S
C2782 H2794 0.960 . S
C2782 H2795 0.962 . S
C2782 H2796 0.960 . S
C2783 C2780 1.511 . S
C2783 H2797 0.961 . S
C2783 H2798 0.961 . S
C2783 H2799 0.961 . S
C2784 C2785 1.370 . S
C2784 C2786 1.363 . S
C2784 H2800 0.931 . S
C2785 C2784 1.370 . S
C2785 C2789 1.408 . S
C2786 C2784 1.363 . S
C2786 C2787 1.370 . S
C2786 C2790 1.524 . S
C2787 C2779 1.503 . S
C2787 C2786 1.370 . S
C2787 C2788 1.403 . S
C2788 C2787 1.403 . S
C2788 C2789 1.404 . S
C2788 C2791 1.539 . S
C2789 C2785 1.408 . S
C2789 C2788 1.404 . S
C2789 H2801 0.930 . S
C2790 C2786 1.524 . S
C2790 H2802 0.956 . S
C2790 H2803 0.961 . S
C2790 H2804 0.961 . S
C2791 C2788 1.539 . S
C2791 H2805 0.958 . S
C2791 H2806 0.961 . S
C2791 H2807 0.960 . S
H2792 C2776 0.931 . S
H2793 C2781 0.929 . S
H2794 C2782 0.960 . S
H2795 C2782 0.962 . S
H2796 C2782 0.960 . S
H2797 C2783 0.961 . S
H2798 C2783 0.961 . S
H2799 C2783 0.961 . S
H2800 C2784 0.931 . S
H2801 C2789 0.930 . S
H2802 C2790 0.956 . S
H2803 C2790 0.961 . S
H2804 C2790 0.961 . S
H2805 C2791 0.958 . S
H2806 C2791 0.961 . S
H2807 C2791 0.960 . S
C1273 C1204 2.451 . S
C1281 C38 2.351 . S
C1305 C75 2.314 . S
C1313 C870 2.237 . S
C1337 C1257 2.198 . S
C1345 C144 2.130 . S
C1369 C1135 2.224 . S
C1377 C181 2.284 . S
C1401 C992 2.225 . S
C1409 C250 2.113 . S
C1433 C1029 2.250 . S
C1441 C287 2.329 . S
C1465 C1098 2.437 . S
C1473 C356 2.368 . S
C1497 C393 2.290 . S
C1505 C923 2.205 . S
C1529 C727 2.232 . S
C1537 C446 2.161 . S
C1561 C764 2.191 . S
C1569 C515 2.232 . S
C1593 C568 2.232 . S
C1601 C833 2.267 . S
C1625 C621 2.256 . S
C1633 C674 2.218 . S
C1657 C409 2.262 . S
C1665 C780 2.384 . S
C1689 C817 2.287 . S
C1697 C234 2.393 . S
C1721 C303 2.080 . S
C1729 C658 2.179 . S
C1753 C711 2.251 . S
C1761 C340 2.365 . S
C1785 C552 2.166 . S
C1793 C91 2.100 . S
C1817 C128 2.370 . S
C1825 C605 2.313 . S
C1849 C197 2.310 . S
C1857 C462 2.375 . S
C1881 C22 2.345 . S
C1889 C499 2.282 . S
C1913 C1082 2.215 . S
C1921 C1151 2.292 . S
C1945 C1188 2.223 . S
C1953 C939 2.281 . S
C1977 C976 2.137 . S
C1985 C886 2.207 . S
C2009 C1241 2.148 . S
C2017 C1045 2.205 . S
C2041 C39 1.889 . S
C2049 C463 1.958 . S
C2073 C506 1.341 . S
C2081 C82 1.334 . S
C2105 C145 1.464 . S
C2113 C559 1.551 . S
C2137 C188 1.410 . S
C2145 C612 1.422 . S
C2169 C251 1.544 . S
C2177 C665 1.536 . S
C2201 C294 1.361 . S
C2209 C718 1.308 . S
C2233 C781 1.968 . S
C2241 C357 1.885 . S
C2265 C824 1.428 . S
C2273 C400 1.467 . S
C2297 C453 1.673 . S
C2305 C887 1.631 . S
C2329 C516 1.615 . S
C2337 C1248 1.659 . S
C2361 C1152 1.964 . S
C2369 C569 1.958 . S
C2393 C1195 1.668 . S
C2401 C622 1.636 . S
C2425 C940 1.926 . S
C2433 C675 1.962 . S
C2457 C983 1.610 . S
C2465 C728 1.650 . S
C2489 C771 1.613 . S
C2497 C1046 1.654 . S
C2521 C834 1.670 . S
C2529 C1089 1.649 . S
C2553 C29 1.389 . S
C2561 C877 1.402 . S
C2585 C930 1.460 . S
C2593 C241 1.427 . S
C2617 C993 1.977 . S
C2625 C304 1.881 . S
C2649 C1036 1.369 . S
C2657 C347 1.449 . S
C2681 C1099 2.001 . S
C2689 C410 1.923 . S
C2713 C1142 1.465 . S
C2721 C135 1.422 . S
C2745 C198 1.930 . S
C2753 C1205 1.982 . S
C2777 C1258 1.975 . S
C2785 C92 1.880 . S
