# Generated by pormake.
# Topology smm, (6)-cn, num edge types: 1
# Building blocks:
#     Node 0, Type 0, BuildingBlock: KUMBUR_clean_sbu_1, # of connection points: 6
#     Node 1, Type 0, BuildingBlock: KUMBUR_clean_sbu_1, # of connection points: 6
#     Node 2, Type 0, BuildingBlock: KUMBUR_clean_sbu_1, # of connection points: 6
#     Node 3, Type 0, BuildingBlock: KUMBUR_clean_sbu_1, # of connection points: 6
#     Node 4, Type 0, BuildingBlock: KUMBUR_clean_sbu_1, # of connection points: 6
#     Node 5, Type 0, BuildingBlock: KUMBUR_clean_sbu_1, # of connection points: 6
#     Node 6, Type 0, BuildingBlock: KUMBUR_clean_sbu_1, # of connection points: 6
#     Node 7, Type 0, BuildingBlock: KUMBUR_clean_sbu_1, # of connection points: 6
#     Node 8, Type 0, BuildingBlock: KUMBUR_clean_sbu_1, # of connection points: 6
#     Edge 9, Type (0, 0), BuildingBlock: AJUNOK_clean_linker_0, # of connection points: 2
#     Edge 10, Type (0, 0), BuildingBlock: AJUNOK_clean_linker_0, # of connection points: 2
#     Edge 11, Type (0, 0), BuildingBlock: AJUNOK_clean_linker_0, # of connection points: 2
#     Edge 12, Type (0, 0), BuildingBlock: AJUNOK_clean_linker_0, # of connection points: 2
#     Edge 13, Type (0, 0), BuildingBlock: AJUNOK_clean_linker_0, # of connection points: 2
#     Edge 14, Type (0, 0), BuildingBlock: AJUNOK_clean_linker_0, # of connection points: 2
#     Edge 15, Type (0, 0), BuildingBlock: AJUNOK_clean_linker_0, # of connection points: 2
#     Edge 16, Type (0, 0), BuildingBlock: AJUNOK_clean_linker_0, # of connection points: 2
#     Edge 17, Type (0, 0), BuildingBlock: AJUNOK_clean_linker_0, # of connection points: 2
#     Edge 18, Type (0, 0), BuildingBlock: AJUNOK_clean_linker_0, # of connection points: 2
#     Edge 19, Type (0, 0), BuildingBlock: AJUNOK_clean_linker_0, # of connection points: 2
#     Edge 20, Type (0, 0), BuildingBlock: AJUNOK_clean_linker_0, # of connection points: 2
#     Edge 21, Type (0, 0), BuildingBlock: AJUNOK_clean_linker_0, # of connection points: 2
#     Edge 22, Type (0, 0), BuildingBlock: AJUNOK_clean_linker_0, # of connection points: 2
#     Edge 23, Type (0, 0), BuildingBlock: AJUNOK_clean_linker_0, # of connection points: 2
#     Edge 24, Type (0, 0), BuildingBlock: AJUNOK_clean_linker_0, # of connection points: 2
#     Edge 25, Type (0, 0), BuildingBlock: AJUNOK_clean_linker_0, # of connection points: 2
#     Edge 26, Type (0, 0), BuildingBlock: AJUNOK_clean_linker_0, # of connection points: 2
#     Edge 27, Type (0, 0), BuildingBlock: AJUNOK_clean_linker_0, # of connection points: 2
#     Edge 28, Type (0, 0), BuildingBlock: AJUNOK_clean_linker_0, # of connection points: 2
#     Edge 29, Type (0, 0), BuildingBlock: AJUNOK_clean_linker_0, # of connection points: 2
#     Edge 30, Type (0, 0), BuildingBlock: AJUNOK_clean_linker_0, # of connection points: 2
#     Edge 31, Type (0, 0), BuildingBlock: AJUNOK_clean_linker_0, # of connection points: 2
#     Edge 32, Type (0, 0), BuildingBlock: AJUNOK_clean_linker_0, # of connection points: 2
#     Edge 33, Type (0, 0), BuildingBlock: AJUNOK_clean_linker_0, # of connection points: 2
#     Edge 34, Type (0, 0), BuildingBlock: AJUNOK_clean_linker_0, # of connection points: 2
#     Edge 35, Type (0, 0), BuildingBlock: AJUNOK_clean_linker_0, # of connection points: 2
# Relax obj value: 0.140
# Max RMSD: 0.240
# Mean RMSD: 0.194
data_MOF--net-smm--node1-KUMBUR_clean_sbu_1--edge1-AJUNOK_clean_linker_0
_symmetry_space_group_name_H-M    P1
_symmetry_Int_Tables_number       1
_symmetry_cell_setting            triclinic
loop_
_symmetry_equiv_pos_as_xyz
'x, y, z'
_cell_length_a     46.058261
_cell_length_b     61.04114
_cell_length_c     10.953039
_cell_angle_alpha  96.411694
_cell_angle_beta   97.673698
_cell_angle_gamma 122.49891
loop_
_atom_site_label
_atom_site_type_symbol
_atom_site_fract_x
_atom_site_fract_y
_atom_site_fract_z
_atom_type_partial_charge
Tb0 Tb 1.0339 0.19911 0.10153 0.0
C1 C 0.19257 0.2714 0.32492 0.0
N2 N 0.16449 0.27012 0.35916 0.0
C3 C 0.19185 0.27967 0.57791 0.0
C4 C 0.22117 0.27634 0.4167 0.0
C5 C 0.16439 0.27511 0.48381 0.0
C6 C 0.2203 0.28013 0.54427 0.0
C7 C 0.2207 0.26778 0.15848 0.0
C8 C 0.19239 0.26731 0.19685 0.0
C9 C 0.24934 0.27292 0.24982 0.0
C10 C 0.24965 0.2773 0.37845 0.0
Tb11 Tb 0.1239 0.26557 0.19699 0.0
N12 N 0.16433 0.26256 0.11031 0.0
C13 C 0.21947 0.26315 0.02936 0.0
C14 C 0.16386 0.25916 0.98453 0.0
C15 C 0.19098 0.25889 0.94217 0.0
H16 H 0.14413 0.2768 0.51208 0.0
H17 H 0.19023 0.25591 0.84223 0.0
H18 H 1.01204 0.18667 0.78409 0.0
H19 H 0.96099 0.19638 0.45073 0.0
H20 H 0.14358 0.25753 0.91586 0.0
H21 H 0.24062 0.2632 0.99608 0.0
H22 H 1.00978 0.19819 0.3734 0.0
H23 H 0.19144 0.28345 0.67639 0.0
H24 H 0.27136 0.27345 0.22191 0.0
H25 H 0.27187 0.28111 0.4476 0.0
H26 H 0.96452 0.17965 0.6221 0.0
H27 H 0.24171 0.28387 0.61751 0.0
H28 H 0.9102 0.18915 0.30015 0.0
N29 N 0.99237 0.19381 0.93886 0.0
C30 C 0.96364 0.19143 0.9729 0.0
C31 C 0.96448 0.18397 0.72033 0.0
C32 C 0.93473 0.18614 0.88173 0.0
C33 C 0.99223 0.18883 0.81372 0.0
C34 C 0.93588 0.18316 0.75437 0.0
N35 N 0.99011 0.19701 0.18401 0.0
C36 C 0.98917 0.19702 0.30805 0.0
C37 C 0.93237 0.18914 0.1378 0.0
C38 C 0.96218 0.19258 0.09907 0.0
C39 C 0.93235 0.1911 0.26627 0.0
C40 C 0.96097 0.19514 0.35173 0.0
H41 H 0.91405 0.17885 0.68137 0.0
H42 H 0.88205 0.17787 0.85071 0.0
H43 H 0.8797 0.17958 0.07498 0.0
O44 O 1.02486 0.16645 0.1857 0.0
O45 O 1.03051 0.23405 0.16332 0.0
O46 O 0.07954 0.2688 0.11843 0.0
O47 O 0.99757 0.16122 0.99492 0.0
O48 O 0.0643 0.2107 0.29764 0.0
O49 O 0.09184 0.25564 0.33743 0.0
O50 O 0.1619 0.30171 0.15391 0.0
O51 O 0.12343 0.22854 0.21169 0.0
O52 O 0.07821 0.19971 0.04602 0.0
O53 O 0.14208 0.30069 0.32588 0.0
O54 O 0.09709 0.25729 0.99928 0.0
O55 O 0.06262 0.21176 0.95064 0.0
C56 C 0.048 0.25854 0.14381 0.0
C57 C 0.98056 0.12093 0.05884 0.0
C58 C 0.97343 0.0792 0.08022 0.0
C59 C 0.94233 0.06559 0.98357 0.0
C60 C 0.94904 0.10683 0.96461 0.0
C61 C 0.93011 0.07933 0.92733 0.0
C62 C 0.99256 0.10712 0.11826 0.0
C63 C 0.07776 0.23343 0.37715 0.0
C64 C 1.00217 0.14996 0.08157 0.0
C65 C 0.90477 0.18243 0.91975 0.0
C66 C 0.90348 0.1836 0.04728 0.0
C67 C 0.10626 0.20568 0.12749 0.0
C68 C 0.18595 0.34404 0.2967 0.0
C69 C 0.2236 0.38715 0.24777 0.0
C70 C 0.22872 0.39944 0.37219 0.0
C71 C 0.19118 0.35657 0.42044 0.0
C72 C 0.20196 0.35933 0.21012 0.0
C73 C 0.21235 0.38418 0.4575 0.0
C74 C 0.07743 0.2346 0.91552 0.0
C75 C 0.16315 0.3151 0.258 0.0
H76 H 0.92748 0.0442 0.95052 0.0
H77 H 0.93935 0.11713 0.9174 0.0
H78 H 0.90615 0.06867 0.85325 0.0
H79 H 1.01675 0.11803 0.19166 0.0
H80 H 0.24521 0.42088 0.40294 0.0
H81 H 0.17882 0.34507 0.48849 0.0
H82 H 0.19685 0.34965 0.11316 0.0
H83 H 0.21582 0.3937 0.55223 0.0
Tb84 Tb 0.95055 0.8925 0.09663 0.0
C85 C 1.01643 0.83059 0.96711 0.0
N86 N 0.98392 0.82413 0.90959 0.0
C87 C 0.99296 0.8133 0.70729 0.0
C88 C 1.03904 0.82952 0.8956 0.0
C89 C 0.9714 0.81458 0.78217 0.0
C90 C 1.02705 0.82104 0.76406 0.0
C91 C 0.06089 0.84559 0.16078 0.0
C92 C 1.02718 0.83833 0.09867 0.0
C93 C 0.08362 0.84484 0.08942 0.0
C94 C 0.07273 0.83681 0.9574 0.0
Tb95 Tb 0.95214 0.82688 0.04421 0.0
N96 N 1.00508 0.83986 0.16503 0.0
C97 C 0.0708 0.85351 0.29277 0.0
C98 C 1.0139 0.84632 0.29386 0.0
C99 C 0.04706 0.85362 0.35956 0.0
H100 H 0.94454 0.80732 0.73812 0.0
H101 H 0.05412 0.85904 0.46174 0.0
H102 H 0.93233 0.88902 0.37854 0.0
H103 H 0.89501 0.90969 0.68082 0.0
H104 H 0.9954 0.84528 0.34694 0.0
H105 H 0.0965 0.85923 0.34407 0.0
H106 H 0.93717 0.90349 0.80768 0.0
H107 H 0.98313 0.80605 0.60604 0.0
H108 H 0.1097 0.85042 0.13548 0.0
H109 H 0.09056 0.83624 0.90391 0.0
H110 H 0.88503 0.88385 0.47784 0.0
H111 H 0.04366 0.81994 0.70573 0.0
H112 H 0.84748 0.90844 0.76804 0.0
N113 N 0.90815 0.88785 0.19755 0.0
C114 C 0.8844 0.89172 0.13435 0.0
C115 C 0.88396 0.88543 0.3802 0.0
C116 C 0.85834 0.89119 0.18993 0.0
C117 C 0.90994 0.88692 0.32189 0.0
C118 C 0.85761 0.88717 0.31316 0.0
N119 N 0.91236 0.8968 0.9634 0.0
C120 C 0.91572 0.90168 0.84553 0.0
C121 C 0.86264 0.9006 0.94524 0.0
C122 C 0.88656 0.89632 0.01338 0.0
C123 C 0.86556 0.90519 0.82374 0.0
C124 C 0.89217 0.90566 0.77368 0.0
H125 H 0.83778 0.88651 0.35897 0.0
H126 H 0.8157 0.89626 0.16748 0.0
H127 H 0.8189 0.90429 0.95056 0.0
O128 O 0.96541 0.93149 0.08907 0.0
O129 O 0.89716 0.85618 0.04807 0.0
O130 O 0.89612 0.81741 0.01992 0.0
O131 O 0.98349 0.92257 0.26008 0.0
O132 O 0.95775 0.88043 0.91031 0.0
O133 O 0.9321 0.83472 0.87024 0.0
O134 O 0.94397 0.79515 0.13838 0.0
O135 O 1.00717 0.87115 0.07296 0.0
O136 O 0.99629 0.9022 0.02015 0.0
O137 O 0.92286 0.78609 0.94455 0.0
O138 O 0.93659 0.83502 0.21524 0.0
O139 O 0.97024 0.88007 0.25256 0.0
C140 C 0.8798 0.8302 0.02221 0.0
C141 C 1.00077 0.96818 0.272 0.0
C142 C 1.01153 1.012 0.28214 0.0
C143 C 1.0371 1.02174 0.39519 0.0
C144 C 1.02601 0.97807 0.38615 0.0
C145 C 0.04418 1.00478 0.44696 0.0
C146 C 0.99335 0.98517 0.22067 0.0
C147 C 0.94528 0.85746 0.83245 0.0
C148 C 0.9822 0.94021 0.20712 0.0
C149 C 0.8347 0.89562 0.12278 0.0
C150 C 0.83677 0.90032 1.00076 0.0
C151 C 1.01961 0.89652 0.0522 0.0
C152 C 0.92615 0.75036 0.01928 0.0
C153 C 0.90666 0.70164 0.0222 0.0
C154 C 0.93078 0.70588 0.94602 0.0
C155 C 0.94984 0.75178 0.94786 0.0
C156 C 0.9039 0.72457 0.05666 0.0
C157 C 0.95175 0.73008 0.91127 0.0
C158 C 0.95137 0.85803 0.29281 0.0
C159 C 0.92424 0.77547 0.04035 0.0
H160 H 0.05108 0.04235 0.44453 0.0
H161 H 1.03196 0.96524 0.42777 0.0
H162 H 0.06373 1.01234 0.5347 0.0
H163 H 0.97358 0.97763 0.13317 0.0
H164 H 0.93346 0.68998 0.90984 0.0
H165 H 0.9667 0.76986 0.91657 0.0
H166 H 0.88505 0.72253 0.11157 0.0
H167 H 0.96987 0.73197 0.85304 0.0
Tb168 Tb 0.21814 0.06448 0.03547 0.0
C169 C 0.21601 0.96244 0.08671 0.0
N170 N 0.23628 0.98798 0.156 0.0
C171 C 0.23572 0.97245 0.34758 0.0
C172 C 0.20389 0.94086 0.14672 0.0
C173 C 0.24736 0.99323 0.28409 0.0
C174 C 0.2137 0.94615 0.27876 0.0
C175 C 0.18394 0.93168 0.88171 0.0
C176 C 0.20606 0.95789 0.95471 0.0
C177 C 0.17238 0.91018 0.94171 0.0
C178 C 0.18221 0.91476 0.07352 0.0
Tb179 Tb 0.25598 1.01887 0.03652 0.0
N180 N 0.21602 0.97918 0.89971 0.0
C181 C 0.17316 0.92783 0.75101 0.0
C182 C 0.20641 0.97549 0.77179 0.0
C183 C 0.18453 0.94982 0.69595 0.0
H184 H 0.26658 1.01326 0.33701 0.0
H185 H 0.17688 0.94701 0.59467 0.0
H186 H 0.2129 0.07136 0.73519 0.0
H187 H 0.29277 0.13546 0.4831 0.0
H188 H 0.21633 0.99195 0.72619 0.0
H189 H 0.15606 0.90797 0.69174 0.0
H190 H 0.25611 0.09078 0.34899 0.0
H191 H 0.24437 0.97673 0.44927 0.0
H192 H 0.15523 0.88988 0.88714 0.0
H193 H 0.17261 0.8979 0.11812 0.0
H194 H 0.23649 0.10828 0.62686 0.0
H195 H 0.20484 0.93007 0.32838 0.0
H196 H 0.31148 0.17465 0.38881 0.0
N197 N 0.24091 0.09588 0.91911 0.0
C198 C 0.25947 0.1212 0.98999 0.0
C199 C 0.24382 0.11222 0.72888 0.0
C200 C 0.27063 0.14302 0.9319 0.0
C201 C 0.2319 0.09113 0.79053 0.0
C202 C 0.26318 0.1383 0.79983 0.0
N203 N 0.2574 0.10388 0.17595 0.0
C204 C 0.26588 0.10732 0.30415 0.0
C205 C 0.28682 0.15132 0.19706 0.0
C206 C 0.26766 0.12532 0.12198 0.0
C207 C 0.29633 0.15493 0.32809 0.0
C208 C 0.28607 0.13287 0.38162 0.0
H209 H 0.27146 0.15457 0.75175 0.0
H210 H 0.29678 0.18576 0.96404 0.0
H211 H 0.31071 0.193 0.19546 0.0
O212 O 0.19602 0.08339 0.12621 0.0
O213 O 0.27874 0.08712 0.0374 0.0
O214 O 0.30124 0.0609 0.04553 0.0
O215 O 0.1739 0.06248 0.93543 0.0
O216 O 0.21674 0.04729 0.20277 0.0
O217 O 0.26473 0.04425 0.21769 0.0
O218 O 0.27906 1.00356 0.9314 0.0
O219 O 0.19668 0.99563 0.03095 0.0
O220 O 0.17401 1.02156 0.04145 0.0
O221 O 0.2959 1.01573 0.13264 0.0
O222 O 0.25738 0.03622 0.87058 0.0
O223 O 0.20957 0.03949 0.85271 0.0
C224 C 0.30633 0.0845 0.04183 0.0
C225 C 0.17018 0.10059 0.98763 0.0
C226 C 0.15485 0.13457 0.01316 0.0
C227 C 0.1613 0.13877 0.89363 0.0
C228 C 0.17368 0.10504 0.86567 0.0
C229 C 0.17045 0.12425 0.82136 0.0
C230 C 0.16031 0.11566 0.06252 0.0
C231 C 0.23976 0.04384 0.26708 0.0
C232 C 0.17339 0.07828 0.0246 0.0
C233 C 0.28847 0.16879 0.00709 0.0
C234 C 0.29631 0.1729 0.13908 0.0
C235 C 0.16934 0.99759 0.03638 0.0
C236 C 0.33574 1.01374 0.02264 0.0
C237 C 0.37822 1.00371 0.96805 0.0
C238 C 0.40509 0.03061 0.01858 0.0
C239 C 0.36361 0.04034 0.07235 0.0
C240 C 0.34303 0.99522 0.97092 0.0
C241 C 0.39806 0.04873 0.06946 0.0
C242 C 0.23457 0.03959 0.80474 0.0
C243 C 0.29948 1.00512 0.03076 0.0
H244 H 0.15797 0.15293 0.85327 0.0
H245 H 0.17784 0.09299 0.80066 0.0
H246 H 0.17391 0.12729 0.72748 0.0
H247 H 0.15582 0.11207 0.15487 0.0
H248 H 0.43191 0.0375 0.0219 0.0
H249 H 0.35878 0.05453 0.11595 0.0
H250 H 0.3216 0.97451 0.93374 0.0
H251 H 0.41957 0.06931 0.10875 0.0
Tb252 Tb 0.82757 0.52531 0.08809 0.0
C253 C 0.67617 0.48308 0.89908 0.0
N254 N 0.70681 0.50294 0.87577 0.0
C255 C 0.68192 0.48566 0.65272 0.0
C256 C 0.64802 0.46292 0.79986 0.0
C257 C 0.70818 0.50581 0.75407 0.0
C258 C 0.65196 0.46375 0.67568 0.0
C259 C 0.63954 0.46544 0.04945 0.0
C260 C 0.67185 0.48417 0.02219 0.0
C261 C 0.61197 0.44474 0.95154 0.0
C262 C 0.61629 0.44337 0.82719 0.0
Tb263 Tb 0.74823 0.53327 0.0537 0.0
N264 N 0.69951 0.50375 0.11567 0.0
C265 C 0.636 0.46818 0.17441 0.0
C266 C 0.69624 0.50695 0.23722 0.0
C267 C 0.66435 0.48921 0.26834 0.0
H268 H 0.72827 0.52403 0.73317 0.0
H269 H 0.66155 0.49181 0.36427 0.0
H270 H 0.8487 0.52813 0.39971 0.0
H271 H 0.90691 0.58001 0.77622 0.0
H272 H 0.71816 0.52326 0.30958 0.0
H273 H 0.61147 0.4543 0.19917 0.0
H274 H 0.85414 0.54308 0.82793 0.0
H275 H 0.68428 0.48758 0.55707 0.0
H276 H 0.58703 0.42989 0.97072 0.0
H277 H 0.59449 0.42762 0.75221 0.0
H278 H 0.89817 0.5585 0.57813 0.0
H279 H 0.63112 0.44851 0.59674 0.0
H280 H 0.95934 0.61313 0.94571 0.0
N281 N 0.87123 0.55191 0.26649 0.0
C282 C 0.90172 0.57235 0.24515 0.0
C283 C 0.89914 0.56327 0.48616 0.0
C284 C 0.93134 0.59007 0.34547 0.0
C285 C 0.87051 0.54627 0.38397 0.0
C286 C 0.9294 0.58568 0.46765 0.0
N287 N 0.87518 0.55688 0.02613 0.0
C288 C 0.87624 0.55804 0.90312 0.0
C289 C 0.93518 0.59534 0.0953 0.0
C290 C 0.90402 0.57462 0.12117 0.0
C291 C 0.93599 0.59729 0.96954 0.0
C292 C 0.9064 0.57858 0.87326 0.0
H293 H 0.9517 0.59869 0.54713 0.0
H294 H 0.98533 0.62483 0.39608 0.0
H295 H 0.98843 0.62974 0.17739 0.0
O296 O 0.85176 0.5085 0.99897 0.0
O297 O 0.8427 0.56952 0.09934 0.0
O298 O 0.79386 0.57115 0.03916 0.0
O299 O 0.83722 0.49947 0.17151 0.0
O300 O 0.79667 0.51378 0.89455 0.0
O301 O 0.77691 0.54114 0.90051 0.0
O302 O 0.74302 0.56025 0.17078 0.0
O303 O 0.73756 0.49538 0.10357 0.0
O304 O 0.77375 0.4866 0.01697 0.0
O305 O 0.71525 0.54407 0.97163 0.0
O306 O 0.78167 0.54661 0.247 0.0
O307 O 0.80086 0.51893 0.24425 0.0
C308 C 0.82831 0.5836 0.07463 0.0
C309 C 0.88244 0.49389 0.12604 0.0
C310 C 0.91113 0.46924 0.15066 0.0
C311 C 0.94252 0.4935 0.21531 0.0
C312 C 0.91459 0.51738 0.19015 0.0
C313 C 0.94416 0.51714 0.23487 0.0
C314 C 0.88063 0.46949 0.10686 0.0
C315 C 0.78736 0.52779 0.83938 0.0
C316 C 0.85093 0.49498 0.08387 0.0
C317 C 0.96239 0.61092 0.32009 0.0
C318 C 0.96425 0.6136 0.19544 0.0
C319 C 0.74461 0.47803 0.05986 0.0
C320 C 0.70566 0.57465 0.08887 0.0
C321 C 0.69783 0.6053 0.21776 0.0
C322 C 0.67529 0.60372 0.11198 0.0
C323 C 0.68346 0.57347 0.98345 0.0
C324 C 0.71294 0.5907 0.20535 0.0
C325 C 0.6684 0.588 0.99524 0.0
C326 C 0.79137 0.53298 0.30495 0.0
C327 C 0.72156 0.55948 0.0773 0.0
H328 H 0.96614 0.49418 0.25157 0.0
H329 H 0.91693 0.53605 0.20647 0.0
H330 H 0.96868 0.53551 0.2851 0.0
H331 H 0.856 0.45109 0.05729 0.0
H332 H 0.6627 0.61438 0.11973 0.0
H333 H 0.6777 0.56131 0.89212 0.0
H334 H 0.73064 0.59205 0.28635 0.0
H335 H 0.65117 0.58695 0.91391 0.0
Tb336 Tb 0.53796 0.23797 0.06113 0.0
C337 C 0.59153 0.1705 0.91435 0.0
N338 N 0.55926 0.16594 0.87002 0.0
C339 C 0.56023 0.15093 0.6588 0.0
C340 C 0.60998 0.16651 0.83107 0.0
C341 C 0.54261 0.15457 0.74495 0.0
C342 C 0.59431 0.15735 0.70172 0.0
C343 C 0.63775 0.18106 0.09341 0.0
C344 C 0.60531 0.17757 0.04437 0.0
C345 C 0.65648 0.17778 0.01021 0.0
C346 C 0.64277 0.17071 0.87961 0.0
Tb347 Tb 0.53277 0.17061 0.0245 0.0
N348 N 0.58642 0.18032 0.12294 0.0
C349 C 0.64992 0.187 0.22471 0.0
C350 C 0.59677 0.18398 0.25105 0.0
C351 C 0.62915 0.18817 0.3038 0.0
H352 H 0.51515 0.14721 0.71112 0.0
H353 H 0.63786 0.19198 0.4052 0.0
H354 H 0.55064 0.26103 0.36664 0.0
H355 H 0.44498 0.2216 0.64548 0.0
H356 H 0.58037 0.18441 0.31201 0.0
H357 H 0.67486 0.18999 0.26584 0.0
H358 H 0.49808 0.22599 0.75714 0.0
H359 H 0.54707 0.14242 0.55984 0.0
H360 H 0.68123 0.18002 0.04587 0.0
H361 H 0.65729 0.16778 0.81696 0.0
H362 H 0.5185 0.27096 0.5008 0.0
H363 H 0.60763 0.154 0.63495 0.0
H364 H 0.40829 0.2293 0.76554 0.0
N365 N 0.51234 0.24869 0.1963 0.0
C366 C 0.48285 0.24697 0.1402 0.0
C367 C 0.50799 0.26395 0.39971 0.0
C368 C 0.46406 0.253 0.21303 0.0
C369 C 0.52583 0.25787 0.3235 0.0
C370 C 0.47676 0.26124 0.34442 0.0
N371 N 0.49079 0.23427 0.94097 0.0
C372 C 0.48199 0.22848 0.81202 0.0
C373 C 0.44144 0.23786 0.94794 0.0
C374 C 0.47174 0.23957 0.00881 0.0
C375 C 0.43145 0.23086 0.81585 0.0
C376 C 0.452 0.22638 0.74769 0.0
H377 H 0.46305 0.26606 0.40371 0.0
H378 H 0.41865 0.25538 0.20696 0.0
H379 H 0.39882 0.24207 0.97536 0.0
O380 O 0.55219 0.27474 0.00562 0.0
O381 O 0.48164 0.19903 0.05685 0.0
O382 O 0.47796 0.15992 0.98255 0.0
O383 O 0.58519 0.27433 0.16005 0.0
O384 O 0.543 0.22371 0.87885 0.0
O385 O 0.51225 0.17811 0.84893 0.0
O386 O 0.52026 0.14368 0.14384 0.0
O387 O 0.58252 0.21009 0.10865 0.0
O388 O 0.58159 0.23819 0.99567 0.0
O389 O 0.51415 0.13093 0.94311 0.0
O390 O 0.51835 0.18137 0.19248 0.0
O391 O 0.55245 0.22732 0.23692 0.0
C392 C 0.46252 0.17174 0.01985 0.0
C393 C 0.60101 0.31865 0.14131 0.0
C394 C 0.64398 0.36805 0.15179 0.0
C395 C 0.64052 0.37236 0.27669 0.0
C396 C 0.59805 0.32538 0.26311 0.0
C397 C 0.61775 0.35167 0.32982 0.0
C398 C 0.62432 0.34039 0.08422 0.0
C399 C 0.52815 0.20016 0.80549 0.0
C400 C 0.58288 0.28896 0.08582 0.0
C401 C 0.43358 0.25097 0.15253 0.0
C402 C 0.4223 0.24341 0.02051 0.0
C403 C 0.59882 0.22899 0.04824 0.0
C404 C 0.504 0.0988 0.07333 0.0
C405 C 0.5071 0.07196 0.21618 0.0
C406 C 0.49834 0.05216 0.11219 0.0
C407 C 0.49488 0.07872 0.97001 0.0
C408 C 0.51022 0.09535 0.19658 0.0
C409 C 0.4926 0.0557 0.98966 0.0
C410 C 0.53475 0.20438 0.27277 0.0
C411 C 0.51443 0.12515 0.0534 0.0
H412 H 0.65562 0.39227 0.33551 0.0
H413 H 0.5812 0.31002 0.30958 0.0
H414 H 0.61563 0.35613 0.42538 0.0
H415 H 0.62698 0.33582 0.98965 0.0
H416 H 0.4963 0.03412 0.12583 0.0
H417 H 0.49102 0.08128 0.8742 0.0
H418 H 0.51869 0.11116 0.27733 0.0
H419 H 0.48622 0.04053 0.90967 0.0
Tb420 Tb 0.91355 0.32715 0.14174 0.0
C421 C 1.02909 0.44091 0.15454 0.0
N422 N 1.02576 0.418 0.10425 0.0
C423 C 0.04314 0.43458 0.91973 0.0
C424 C 1.03854 0.46119 0.08668 0.0
C425 C 1.03492 0.41547 0.99211 0.0
C426 C 0.04459 0.45743 0.96656 0.0
C427 C 1.02773 0.46809 0.33135 0.0
C428 C 1.02377 0.44443 0.27596 0.0
C429 C 1.03637 0.48801 0.26255 0.0
C430 C 0.04171 0.48456 0.14073 0.0
Tb431 Tb 1.0147 0.39012 0.23969 0.0
N432 N 1.01448 0.42451 0.33947 0.0
C433 C 1.02344 0.47118 0.45509 0.0
C434 C 1.01277 0.42813 0.46326 0.0
C435 C 1.01638 0.45126 0.52186 0.0
H436 H 1.03758 0.39942 0.95996 0.0
H437 H 1.01414 0.45386 0.61877 0.0
H438 H 0.89962 0.31359 0.4205 0.0
H439 H 0.89458 0.26611 0.70153 0.0
H440 H 1.00829 0.41303 0.51566 0.0
H441 H 1.02634 0.48913 0.50095 0.0
H442 H 0.9058 0.30632 0.83453 0.0
H443 H 0.04944 0.43206 0.82963 0.0
H444 H 1.03932 0.5063 0.30321 0.0
H445 H 0.04867 0.50025 0.08949 0.0
H446 H 0.88592 0.27712 0.52471 0.0
H447 H 0.05152 0.47243 0.91097 0.0
H448 H 0.87913 0.2268 0.78857 0.0
N449 N 0.90222 0.29497 0.25004 0.0
C450 C 0.89379 0.27164 0.18032 0.0
C451 C 0.88934 0.2755 0.4296 0.0
C452 C 0.88456 0.24964 0.23516 0.0
C453 C 0.89805 0.29663 0.37079 0.0
C454 C 0.88334 0.25205 0.36266 0.0
N455 N 0.90168 0.2912 1.00241 0.0
C456 C 0.90121 0.28997 0.87681 0.0
C457 C 0.88437 0.24578 0.9768 0.0
C458 C 0.89324 0.26964 0.05226 0.0
C459 C 0.88524 0.24471 0.84939 0.0
C460 C 0.89389 0.26694 0.7996 0.0
H461 H 0.87612 0.23555 0.40837 0.0
H462 H 0.86745 0.2084 0.19965 0.0
H463 H 0.86594 0.20492 0.97159 0.0
O464 O 0.86173 0.30557 0.02527 0.0
O465 O 0.95484 0.3169 0.168 0.0
O466 O 1.01293 0.3533 0.18903 0.0
O467 O 0.87156 0.32473 0.21465 0.0
O468 O 0.93524 0.34723 0.98942 0.0
O469 O 0.99551 0.36546 0.04395 0.0
O470 O 0.05575 0.40522 0.40546 0.0
O471 O 0.96913 0.39402 0.24761 0.0
O472 O 0.9229 0.36336 0.08471 0.0
O473 O 0.06796 0.41556 0.23078 0.0
O474 O 0.99553 0.36584 0.38051 0.0
O475 O 0.93712 0.35174 0.33833 0.0
C476 C 0.98937 0.32735 0.17552 0.0
C477 C 0.81188 0.28719 0.12026 0.0
C478 C 0.74705 0.26435 0.10312 0.0
C479 C 0.74633 0.2426 0.13665 0.0
C480 C 0.80911 0.26459 0.15104 0.0
C481 C 0.77685 0.24266 0.15955 0.0
C482 C 0.78034 0.28703 0.09567 0.0
C483 C 0.96587 0.35606 0.95859 0.0
C484 C 0.84741 0.31014 0.11062 0.0
C485 C 0.87521 0.22569 0.15967 0.0
C486 C 0.87471 0.22373 0.03052 0.0
C487 C 0.94218 0.38738 0.15627 0.0
C488 C 0.11727 0.42823 0.39438 0.0
C489 C 0.17959 0.46147 0.50387 0.0
C490 C 0.18808 0.44389 0.45506 0.0
C491 C 0.12688 0.41144 0.34699 0.0
C492 C 0.14389 0.45354 0.47341 0.0
C493 C 0.16192 0.4191 0.37733 0.0
C494 C 0.96586 0.3574 0.41727 0.0
C495 C 0.08047 0.42065 0.35112 0.0
H496 H 0.72186 0.22542 0.14619 0.0
H497 H 0.83192 0.26372 0.1684 0.0
H498 H 0.77549 0.2255 0.18435 0.0
H499 H 0.78166 0.30415 0.07051 0.0
H500 H 0.2152 0.44954 0.47596 0.0
H501 H 0.10719 0.39268 0.28415 0.0
H502 H 0.13705 0.46713 0.50821 0.0
H503 H 0.16891 0.4059 0.33876 0.0
Tb504 Tb 0.43798 0.89018 0.76506 0.0
C505 C 0.59311 0.97209 0.99043 0.0
N506 N 0.56532 0.97159 0.02317 0.0
C507 C 0.59456 0.98549 0.24236 0.0
C508 C 0.62243 0.97869 0.08365 0.0
C509 C 0.566 0.97874 0.14684 0.0
C510 C 0.62286 0.98538 0.21076 0.0
C511 C 0.6194 0.96442 0.8265 0.0
C512 C 0.59166 0.96514 0.86263 0.0
C513 C 0.64872 0.97114 0.91938 0.0
C514 C 0.65027 0.97832 0.04735 0.0
Tb515 Tb 0.52215 0.96203 0.85697 0.0
N516 N 0.56257 0.9583 0.77452 0.0
C517 C 0.61686 0.95694 0.69799 0.0
C518 C 0.56078 0.95212 0.64894 0.0
C519 C 0.58752 0.95091 0.60892 0.0
H520 H 0.54521 0.98013 0.17265 0.0
H521 H 0.58574 0.94574 0.50914 0.0
H522 H 0.41608 0.87255 0.44971 0.0
H523 H 0.35384 0.86834 0.09148 0.0
H524 H 0.53962 0.94887 0.5786 0.0
H525 H 0.63763 0.95611 0.66645 0.0
H526 H 0.40892 0.88077 0.02504 0.0
H527 H 0.59491 0.99108 0.34018 0.0
H528 H 0.67037 0.97082 0.89318 0.0
H529 H 0.67309 0.98342 0.11769 0.0
H530 H 0.36691 0.86051 0.27921 0.0
H531 H 0.645 0.99067 0.28512 0.0
H532 H 0.30226 0.85914 0.93797 0.0
N533 N 0.39372 0.87891 0.59656 0.0
C534 C 0.36329 0.87402 0.62542 0.0
C535 C 0.3659 0.86528 0.37573 0.0
C536 C 0.33346 0.86583 0.53018 0.0
C537 C 0.39448 0.87299 0.47341 0.0
C538 C 0.33552 0.86236 0.40394 0.0
N539 N 0.38937 0.88053 0.83722 0.0
C540 C 0.38696 0.87764 0.95805 0.0
C541 C 0.32872 0.86682 0.78335 0.0
C542 C 0.36082 0.87443 0.74993 0.0
C543 C 0.3265 0.86501 0.90838 0.0
C544 C 0.35559 0.87008 0.99554 0.0
H545 H 0.3131 0.85582 0.32782 0.0
H546 H 0.27877 0.8535 0.49187 0.0
H547 H 0.27467 0.85443 0.71398 0.0
O548 O 0.44267 0.86364 0.85718 0.0
O549 O 0.42796 0.92022 0.83877 0.0
O550 O 0.47232 0.9596 0.80041 0.0
O551 O 0.40903 0.85048 0.66984 0.0
O552 O 0.46678 0.90538 0.96565 0.0
O553 O 0.4927 0.95075 0.0055 0.0
O554 O 0.55463 0.99563 0.78649 0.0
O555 O 0.52625 0.928 0.89199 0.0
O556 O 0.48699 0.899 0.71761 0.0
O557 O 0.54244 0.99975 0.9676 0.0
O558 O 0.49197 0.95066 0.66078 0.0
O559 O 0.46491 0.90564 0.61425 0.0
C560 C 0.44109 0.94487 0.82703 0.0
C561 C 0.39442 0.81969 0.79502 0.0
C562 C 0.37848 0.77702 0.82757 0.0
C563 C 0.34677 0.77189 0.85525 0.0
C564 C 0.36216 0.81455 0.81616 0.0
C565 C 0.33852 0.79069 0.84841 0.0
C566 C 0.40242 0.801 0.79994 0.0
C567 C 0.47859 0.92811 0.04316 0.0
C568 C 0.42041 0.8437 0.76313 0.0
C569 C 0.30192 0.8597 0.56362 0.0
C570 C 0.29954 0.86016 0.69004 0.0
C571 C 0.51356 0.90593 0.80855 0.0
C572 C 0.55384 0.03357 0.85703 0.0
C573 C 0.54237 0.05764 0.71543 0.0
C574 C 0.55571 0.07892 0.81841 0.0
C575 C 0.56626 0.05486 0.95868 0.0
C576 C 0.54129 0.03478 0.73471 0.0
C577 C 0.56743 0.07744 0.93927 0.0
C578 C 0.47481 0.9279 0.57792 0.0
C579 C 0.55772 1.01197 0.88238 0.0
H580 H 0.32836 0.7533 0.8797 0.0
H581 H 0.35502 0.82851 0.80641 0.0
H582 H 0.31378 0.78669 0.86665 0.0
H583 H 0.42743 0.80512 0.78251 0.0
H584 H 0.55701 0.09674 0.80522 0.0
H585 H 0.5759 0.05427 0.05328 0.0
H586 H 0.53211 1.01867 0.65473 0.0
H587 H 0.57735 0.09385 0.01838 0.0
Tb588 Tb 0.35922 0.61667 0.89918 0.0
C589 C 0.45426 0.5697 0.83464 0.0
N590 N 0.42414 0.5652 0.76498 0.0
C591 C 0.43561 0.55047 0.57608 0.0
C592 C 0.47508 0.56314 0.77819 0.0
C593 C 0.41418 0.55518 0.63744 0.0
C594 C 0.46614 0.55431 0.64687 0.0
C595 C 0.49088 0.58021 0.0417 0.0
C596 C 0.46216 0.57826 0.96479 0.0
C597 C 0.51065 0.57259 0.9863 0.0
C598 C 0.50274 0.564 0.85507 0.0
Tb599 Tb 0.38903 0.56932 0.87951 0.0
N600 N 0.44005 0.58258 0.01667 0.0
C601 C 0.4975 0.58806 0.17278 0.0
C602 C 0.44508 0.5884 0.1452 0.0
C603 C 0.47444 0.59221 0.22476 0.0
H604 H 0.389 0.54952 0.58293 0.0
H605 H 0.47845 0.59729 0.32624 0.0
H606 H 0.33659 0.61004 0.17284 0.0
H607 H 0.28565 0.6068 0.44369 0.0
H608 H 0.42634 0.58939 0.18849 0.0
H609 H 0.51961 0.59009 0.23471 0.0
H610 H 0.33918 0.621 0.5981 0.0
H611 H 0.42775 0.54274 0.47501 0.0
H612 H 0.53168 0.57271 0.04468 0.0
H613 H 0.51798 0.55776 0.81408 0.0
H614 H 0.2823 0.58871 0.24958 0.0
H615 H 0.48193 0.54954 0.59981 0.0
H616 H 0.22737 0.58263 0.49733 0.0
N617 N 0.31016 0.59746 0.97921 0.0
C618 C 0.27945 0.58925 0.89812 0.0
C619 C 0.28091 0.58831 0.1503 0.0
C620 C 0.24768 0.5786 0.93913 0.0
C621 C 0.3117 0.59915 0.10544 0.0
C622 C 0.24859 0.57763 0.06658 0.0
N623 N 0.31191 0.6038 0.74018 0.0
C624 C 0.31408 0.60946 0.6231 0.0
C625 C 0.2489 0.58393 0.68804 0.0
C626 C 0.28025 0.59209 0.7743 0.0
C627 C 0.25082 0.58839 0.56615 0.0
C628 C 0.28362 0.60167 0.53464 0.0
H629 H 0.22478 0.56962 0.10208 0.0
H630 H 0.19161 0.56159 0.88226 0.0
H631 H 0.19255 0.56605 0.66211 0.0
O632 O 0.35164 0.64676 0.87313 0.0
O633 O 0.32254 0.57322 0.88054 0.0
O634 O 0.33981 0.55472 0.74413 0.0
O635 O 0.37571 0.6466 0.05669 0.0
O636 O 0.37992 0.61692 0.72794 0.0
O637 O 0.37511 0.57669 0.69457 0.0
O638 O 0.35776 0.54034 0.97553 0.0
O639 O 0.43333 0.61191 0.94954 0.0
O640 O 0.41349 0.63628 0.86852 0.0
O641 O 0.38373 0.53282 0.84222 0.0
O642 O 0.36827 0.57447 0.04102 0.0
O643 O 0.38929 0.61802 0.07492 0.0
C644 C 0.31448 0.55583 0.77855 0.0
C645 C 0.38543 0.6863 0.02247 0.0
C646 C 0.44206 0.73252 0.94402 0.0
C647 C 0.44814 0.76088 0.03148 0.0
C648 C 0.36472 0.69866 0.08314 0.0
C649 C 0.3794 0.73044 0.10832 0.0
C650 C 0.42299 0.70123 0.97235 0.0
C651 C 0.37831 0.59738 0.65441 0.0
C652 C 0.36407 0.65804 0.99264 0.0
C653 C 0.21633 0.5699 0.85264 0.0
C654 C 0.2169 0.57246 0.7273 0.0
C655 C 0.43946 0.63369 0.91253 0.0
C656 C 0.32994 0.49658 0.86365 0.0
C657 C 0.28616 0.45396 0.90052 0.0
C658 C 0.27141 0.44433 0.77064 0.0
C659 C 0.31467 0.48722 0.73348 0.0
C660 C 0.31521 0.48012 0.94702 0.0
C661 C 0.28543 0.46105 0.68738 0.0
C662 C 0.37943 0.59668 0.11864 0.0
C663 C 0.36196 0.52294 0.91546 0.0
H664 H 0.46399 0.78114 0.01745 0.0
H665 H 0.33949 0.68507 0.10431 0.0
H666 H 0.36421 0.73732 0.14667 0.0
H667 H 0.43051 0.68875 0.92892 0.0
H668 H 0.24882 0.42406 0.73496 0.0
H669 H 0.32554 0.49993 0.66782 0.0
H670 H 0.32676 0.48748 0.04784 0.0
H671 H 0.27379 0.45377 0.5873 0.0
Tb672 Tb 0.64967 0.78305 0.9327 0.0
C673 C 0.61655 0.66776 0.96251 0.0
N674 N 0.64052 0.6925 0.03522 0.0
C675 C 0.64217 0.67411 0.21628 0.0
C676 C 0.60618 0.64508 0.01237 0.0
C677 C 0.6532 0.69606 0.16109 0.0
C678 C 0.61911 0.64845 0.14103 0.0
C679 C 0.57754 0.63987 0.75916 0.0
C680 C 0.60253 0.66522 0.83706 0.0
C681 C 0.56938 0.61726 0.80563 0.0
C682 C 0.58396 0.61987 0.93158 0.0
Tb683 Tb 0.66259 0.72479 0.92352 0.0
N684 N 0.61315 0.68768 0.79251 0.0
C685 C 0.56237 0.63797 0.63569 0.0
C686 C 0.59872 0.68585 0.67106 0.0
C687 C 0.57274 0.66111 0.59204 0.0
H688 H 0.67362 0.71556 0.21712 0.0
H689 H 0.56139 0.65991 0.49633 0.0
H690 H 0.65439 0.79344 0.64324 0.0
H691 H 0.72711 0.84493 0.39867 0.0
H692 H 0.6068 0.70298 0.63258 0.0
H693 H 0.54281 0.61877 0.57329 0.0
H694 H 0.68075 0.80341 0.25311 0.0
H695 H 0.65256 0.67696 0.31559 0.0
H696 H 0.55237 0.59778 0.74349 0.0
H697 H 0.5785 0.60238 0.96537 0.0
H698 H 0.69108 0.83049 0.54815 0.0
H699 H 0.61144 0.63142 0.18309 0.0
H700 H 0.76285 0.88527 0.31794 0.0
N701 N 0.6851 0.81356 0.83069 0.0
C702 C 0.70977 0.83761 0.90877 0.0
C703 C 0.69736 0.83266 0.6493 0.0
C704 C 0.72892 0.86028 0.85876 0.0
C705 C 0.6775 0.81113 0.70313 0.0
C706 C 0.72339 0.85739 0.72746 0.0
N707 N 0.69469 0.8177 0.08614 0.0
C708 C 0.6983 0.81958 0.21366 0.0
C709 C 0.73877 0.86478 0.1217 0.0
C710 C 0.71471 0.83974 0.03972 0.0
C711 C 0.744 0.86641 0.252 0.0
C712 C 0.72392 0.84365 0.29799 0.0
H713 H 0.73788 0.87437 0.68568 0.0
H714 H 0.76519 0.9031 0.90392 0.0
H715 H 0.7733 0.90714 0.1332 0.0
O716 O 0.63472 0.80741 0.0186 0.0
O717 O 0.70439 0.791 0.92056 0.0
O718 O 0.70739 0.76319 0.03368 0.0
O719 O 0.62015 0.79376 0.81981 0.0
O720 O 0.63896 0.76425 0.09843 0.0
O721 O 0.6756 0.74941 0.11086 0.0
O722 O 0.68526 0.71435 0.79273 0.0
O723 O 0.608 0.71134 0.92484 0.0
O724 O 0.59786 0.7448 0.91776 0.0
O725 O 0.69411 0.71152 0.9897 0.0
O726 O 0.67144 0.74445 0.76141 0.0
O727 O 0.63105 0.75532 0.75013 0.0
C728 C 0.72375 0.7835 0.98183 0.0
C729 C 0.58742 0.80885 0.90637 0.0
C730 C 0.55403 0.82995 0.87619 0.0
C731 C 0.52357 0.80574 0.88192 0.0
C732 C 0.5562 0.78533 0.91081 0.0
C733 C 0.52476 0.78386 0.89798 0.0
C734 C 0.58644 0.83147 0.88936 0.0
C735 C 0.65456 0.75437 0.15976 0.0
C736 C 0.62015 0.80896 0.91266 0.0
C737 C 0.75136 0.88529 0.94074 0.0
C738 C 0.7559 0.88757 0.07142 0.0
C739 C 0.58705 0.71982 0.91992 0.0
C740 C 0.71982 0.69652 0.85356 0.0
C741 C 0.73013 0.66937 0.71062 0.0
C742 C 0.75334 0.67034 0.81187 0.0
C743 C 0.74298 0.69734 0.95404 0.0
C744 C 0.71347 0.68255 0.73215 0.0
C745 C 0.75979 0.68439 0.93289 0.0
C746 C 0.65158 0.75054 0.69654 0.0
C747 C 0.69856 0.70686 0.87801 0.0
H748 H 0.49836 0.80356 0.87137 0.0
H749 H 0.556 0.76783 0.92194 0.0
H750 H 0.50098 0.76531 0.89765 0.0
H751 H 0.6103 0.84968 0.883 0.0
H752 H 0.76641 0.66022 0.7973 0.0
H753 H 0.74758 0.70757 0.04917 0.0
H754 H 0.69425 0.68083 0.65573 0.0
H755 H 0.77751 0.68499 0.01079 0.0
C756 C 0.23816 0.42593 0.15281 0.0
C757 C 0.23973 0.40363 0.15689 0.0
C758 C 0.25394 0.44247 0.0709 0.0
C759 C 0.27098 0.43683 0.98846 0.0
H760 H 0.22446 0.43058 0.21293 0.0
H761 H 0.25246 0.45958 0.07093 0.0
S762 S 0.28465 0.38224 0.96624 0.0
N763 N 0.26151 0.37767 0.07518 0.0
N764 N 0.29053 0.40878 0.91842 0.0
C765 C 0.27317 0.41491 0.99159 0.0
C766 C 0.25748 0.39816 0.07609 0.0
C767 C 0.81908 0.79816 0.07373 0.0
C768 C 0.83907 0.81573 0.99922 0.0
C769 C 0.78268 0.78835 0.06747 0.0
C770 C 0.76352 0.79554 0.98712 0.0
H771 H 0.83195 0.79249 0.14086 0.0
H772 H 0.76949 0.77505 0.12835 0.0
S773 S 0.80148 0.83856 0.76115 0.0
N774 N 0.83504 0.83828 0.83463 0.0
N775 N 0.76795 0.82018 0.82447 0.0
C776 C 0.78296 0.81263 0.91039 0.0
C777 C 0.82002 0.82258 0.91632 0.0
C778 C 0.41206 0.99334 0.8356 0.0
C779 C 0.38871 0.98554 0.9177 0.0
C780 C 0.42804 0.97981 0.80513 0.0
C781 C 0.4214 0.95758 0.85443 0.0
H782 H 0.419 1.01072 0.79744 0.0
H783 H 0.44634 0.98722 0.74392 0.0
S784 S 0.36358 0.92981 0.07941 0.0
N785 N 0.36012 0.95429 0.04906 0.0
N786 N 0.39039 0.92923 0.99478 0.0
C787 C 0.39759 0.94932 0.93534 0.0
C788 C 0.38115 0.96309 0.96576 0.0
C789 C 0.40676 0.12309 1.00266 0.0
C790 C 0.42203 0.15118 0.02547 0.0
C791 C 0.37084 0.10302 0.00694 0.0
C792 C 0.34562 0.10839 0.03581 0.0
H793 H 0.42295 0.11601 0.98058 0.0
H794 H 0.36261 0.08254 0.98448 0.0
S795 S 0.36961 0.17839 0.1015 0.0
N796 N 0.40665 0.18263 0.07664 0.0
N797 N 0.34092 0.14602 0.08521 0.0
C798 C 0.36031 0.13646 0.05755 0.0
C799 C 0.39734 0.15715 0.053 0.0
C800 C 0.98276 0.2815 0.16307 0.0
C801 C 1.00366 0.30926 0.16634 0.0
C802 C 0.99665 0.2653 0.15623 0.0
C803 C 1.03242 0.27564 0.15183 0.0
H804 H 0.95536 0.27204 0.1668 0.0
H805 H 0.97894 0.24441 0.15426 0.0
S806 S 0.09932 0.34667 0.15873 0.0
N807 N 0.06294 0.34564 0.16312 0.0
N808 N 0.08831 0.31607 0.15462 0.0
C809 C 0.05348 0.30324 0.15597 0.0
C810 C 1.03945 0.31962 0.16203 0.0
C811 C 0.90366 0.65894 0.07106 0.0
C812 C 0.88655 0.6728 0.05518 0.0
C813 C 0.88605 0.63134 0.07998 0.0
C814 C 0.84937 0.61464 0.0751 0.0
H815 H 0.93171 0.66957 0.07515 0.0
H816 H 0.90157 0.62298 0.08854 0.0
S817 S 0.79063 0.63986 0.04677 0.0
N818 N 0.82941 0.66621 0.04278 0.0
N819 N 0.79698 0.61604 0.06193 0.0
C820 C 0.832 0.62848 0.06471 0.0
C821 C 0.85006 0.65664 0.05495 0.0
C822 C 0.26434 0.53077 0.58614 0.0
C823 C 0.27716 0.53428 0.71573 0.0
C824 C 0.23103 0.50816 0.52005 0.0
C825 C 0.20927 0.4882 0.5811 0.0
H826 H 0.28058 0.54524 0.53469 0.0
H827 H 0.22308 0.50556 0.41902 0.0
S828 S 0.23041 0.48852 0.92022 0.0
N829 N 0.26509 0.51658 0.90349 0.0
N830 N 0.20283 0.47396 0.77964 0.0
C831 C 0.22126 0.49212 0.71176 0.0
C832 C 0.25506 0.51522 0.77904 0.0
C833 C 0.71221 0.62709 0.57001 0.0
C834 C 0.7219 0.65349 0.58379 0.0
C835 C 0.70417 0.61157 0.45106 0.0
C836 C 0.70564 0.62195 0.34188 0.0
H837 H 0.71045 0.61829 0.65164 0.0
H838 H 0.6965 0.59122 0.44446 0.0
S839 S 0.73141 0.69038 0.32833 0.0
N840 N 0.73323 0.68957 0.47927 0.0
N841 N 0.71902 0.6605 0.25551 0.0
C842 C 0.71552 0.64836 0.35447 0.0
C843 C 0.72339 0.6641 0.47549 0.0
C844 C 0.54948 0.08561 0.42106 0.0
C845 C 0.51501 0.06875 0.34515 0.0
C846 C 0.55805 0.08159 0.54038 0.0
C847 C 0.53241 0.06069 0.58756 0.0
H848 H 0.57003 0.10166 0.38698 0.0
H849 H 0.585 0.09482 0.59598 0.0
S850 S 0.43724 1.0138 0.43187 0.0
N851 N 0.45446 0.0322 0.32879 0.0
N852 N 0.47043 1.02471 0.55429 0.0
C853 C 0.49755 0.0444 0.51437 0.0
C854 C 0.48888 0.04845 0.3927 0.0
C855 C 0.10744 0.14403 0.00528 0.0
C856 C 0.13991 0.14933 0.07125 0.0
C857 C 0.09691 0.16183 0.02738 0.0
C858 C 0.11811 0.1864 0.11704 0.0
H859 H 0.09065 0.1264 0.92996 0.0
H860 H 0.07205 0.15643 0.9698 0.0
S861 S 0.20432 0.2091 0.32549 0.0
N862 N 0.19247 0.18069 0.23586 0.0
N863 N 0.17233 0.21344 0.28145 0.0
C864 C 0.14982 0.1913 0.18904 0.0
C865 C 0.16074 0.17312 0.16521 0.0
C866 C 0.96801 1.02279 0.21183 0.0
C867 C 1.00286 0.02963 0.23119 0.0
C868 C 0.95931 0.03962 0.16808 0.0
C869 C 0.98494 0.06361 0.13925 0.0
H870 H 0.94742 1.00445 0.23225 0.0
H871 H 0.93212 0.03367 0.15589 0.0
S872 S 0.07993 0.0898 0.17084 0.0
N873 N 0.06316 0.06148 0.21807 0.0
N874 N 0.04681 0.09315 0.13255 0.0
C875 C 1.02005 0.07071 0.15875 0.0
C876 C 1.02893 0.05361 0.20478 0.0
C877 C 0.08889 0.92077 0.03058 0.0
C878 C 0.05975 0.92151 0.05732 0.0
C879 C 0.12294 0.94442 0.02424 0.0
C880 C 0.13178 0.97135 0.04294 0.0
H881 H 0.08538 0.9016 0.0113 0.0
H882 H 0.14252 0.94119 1.00247 0.0
S883 S 0.06759 0.98661 0.12192 0.0
N884 N 0.04541 0.95405 0.10711 0.0
N885 N 0.10648 0.99591 0.09468 0.0
C886 C 0.10325 0.97229 0.07117 0.0
C887 C 0.06884 0.94855 0.07806 0.0
C888 C 0.93954 0.44606 0.07643 0.0
C889 C 0.91273 0.44494 0.13077 0.0
C890 C 0.9474 0.4267 0.0796 0.0
C891 C 0.93041 0.40599 0.14321 0.0
H892 H 0.95522 0.46249 0.03302 0.0
H893 H 0.96702 0.42801 0.03146 0.0
S894 S 0.85373 0.39062 0.28036 0.0
N895 N 0.86535 0.41847 0.23313 0.0
N896 N 0.88149 0.38303 0.24444 0.0
C897 C 0.90183 0.40338 0.18994 0.0
C898 C 0.89291 0.42268 0.18324 0.0
C899 C 0.69079 0.44198 0.12839 0.0
C900 C 0.71907 0.4485 0.06957 0.0
C901 C 0.66551 0.4159 0.14032 0.0
C902 C 0.66745 0.39379 0.10344 0.0
H903 H 0.68849 0.45751 0.17114 0.0
H904 H 0.64476 0.41341 0.18588 0.0
S905 S 0.73721 0.39835 0.94904 0.0
N906 N 0.7472 0.42913 0.97205 0.0
N907 N 0.7015 0.38067 0.0041 0.0
C908 C 0.6957 0.39953 0.04437 0.0
C909 C 0.7211 0.42645 0.02711 0.0
C910 C 0.6501 0.23605 0.95417 0.0
C911 C 0.63794 0.24231 0.05544 0.0
C912 C 0.68611 0.24506 0.96646 0.0
C913 C 0.71207 0.26175 0.07883 0.0
H914 H 0.63131 0.2229 0.86667 0.0
H915 H 0.69339 0.23783 0.88926 0.0
S916 S 0.69483 0.28621 0.36772 0.0
N917 N 0.6554 0.26742 0.26977 0.0
N918 N 0.72279 0.2853 0.29052 0.0
C919 C 0.70049 0.26938 0.17787 0.0
C920 C 0.66369 0.25955 0.16668 0.0
C921 C 0.56445 0.87597 0.93831 0.0
C922 C 0.54931 0.85188 0.84895 0.0
C923 C 0.55363 0.89366 0.92395 0.0
C924 C 0.52701 0.88807 0.81987 0.0
H925 H 0.58361 0.8806 0.02292 0.0
H926 H 0.56554 0.91147 0.9971 0.0
S927 S 0.48036 0.82827 0.55564 0.0
N928 N 0.5075 0.8243 0.64974 0.0
N929 N 0.48726 0.85674 0.62293 0.0
C930 C 0.51271 0.86446 0.72812 0.0
C931 C 0.52378 0.84669 0.74257 0.0
C932 C 0.41041 0.73298 0.73937 0.0
C933 C 0.41105 0.72185 0.84447 0.0
C934 C 0.39638 0.74852 0.72965 0.0
C935 C 0.38775 0.75798 0.83276 0.0
H936 H 0.42042 0.729 0.66184 0.0
H937 H 0.39486 0.75502 0.64228 0.0
S938 S 0.43514 0.76669 0.22997 0.0
N939 N 0.42519 0.73125 0.13012 0.0
N940 N 0.41125 0.77307 0.08053 0.0
C941 C 0.39363 0.75213 0.94641 0.0
C942 C 0.39815 0.72566 0.94425 0.0
C943 C 0.52004 0.69751 0.85385 0.0
C944 C 0.54942 0.69949 0.92611 0.0
C945 C 0.48481 0.67648 0.85087 0.0
C946 C 0.47723 0.65648 0.92036 0.0
H947 H 0.52425 0.71181 0.79619 0.0
H948 H 0.46334 0.67564 0.79126 0.0
S949 S 0.54472 0.65498 0.13976 0.0
N950 N 0.56812 0.68113 0.07969 0.0
N951 N 0.503 0.64207 0.07283 0.0
C952 C 0.50651 0.65898 0.99645 0.0
C953 C 0.54214 0.6803 0.99977 0.0
C954 C 0.07209 0.21281 0.69562 0.0
C955 C 0.07728 0.23469 0.7785 0.0
C956 C 0.07199 0.21249 0.56674 0.0
C957 C 0.07733 0.23411 0.51454 0.0
H958 H 0.06833 0.19577 0.73072 0.0
H959 H 0.06805 0.19521 0.50783 0.0
S960 S 0.09187 0.29625 0.69076 0.0
N961 N 0.08779 0.27851 0.79842 0.0
N962 N 0.08746 0.27802 0.55746 0.0
C963 C 0.0825 0.25612 0.59656 0.0
C964 C 0.08266 0.25643 0.72787 0.0
C965 C 0.92397 0.83517 0.5978 0.0
C966 C 0.94755 0.85788 0.69571 0.0
C967 C 0.92585 0.8354 0.4698 0.0
C968 C 0.95139 0.85835 0.43216 0.0
H969 H 0.90346 0.81704 0.61986 0.0
H970 H 0.90659 0.81738 0.39922 0.0
S971 S 1.02086 0.92295 0.65166 0.0
N972 N 0.99837 0.90391 0.74497 0.0
N973 N 1.00181 0.9043 0.50707 0.0
C974 C 0.97554 0.8811 0.52957 0.0
C975 C 0.97356 0.8809 0.65983 0.0
C976 C 0.2055 0.03105 0.57234 0.0
C977 C 0.23608 0.04096 0.66781 0.0
C978 C 0.2071 0.03211 0.44451 0.0
C979 C 0.23927 0.04289 0.40481 0.0
H980 H 0.18001 1.02227 0.59642 0.0
H981 H 0.18268 1.0241 0.37561 0.0
S982 S 0.32746 0.07322 0.61795 0.0
N983 N 0.2999 0.06304 0.71276 0.0
N984 N 0.30278 0.065 0.47513 0.0
C985 C 0.27006 0.05316 0.4996 0.0
C986 C 0.26845 0.05211 0.6296 0.0
C987 C 0.79129 0.55129 0.52583 0.0
C988 C 0.78902 0.53113 0.44003 0.0
C989 C 0.79103 0.55016 0.65411 0.0
C990 C 0.7883 0.52875 0.70275 0.0
H991 H 0.79387 0.56832 0.4943 0.0
H992 H 0.79316 0.56634 0.71602 0.0
S993 S 0.7785 0.46962 0.51589 0.0
N994 N 0.78156 0.48809 0.41285 0.0
N995 N 0.78154 0.4863 0.65174 0.0
C996 C 0.78538 0.50828 0.61745 0.0
C997 C 0.78548 0.50933 0.48711 0.0
C998 C 0.50454 0.18198 0.44164 0.0
C999 C 0.53383 0.20361 0.40925 0.0
C1000 C 0.50293 0.1803 0.56875 0.0
C1001 C 0.53073 0.20007 0.66957 0.0
H1002 H 0.48224 0.16632 0.36779 0.0
H1003 H 0.47943 0.16372 0.58806 0.0
S1004 S 0.61555 0.25897 0.63709 0.0
N1005 N 0.59251 0.24401 0.4901 0.0
N1006 N 0.58999 0.24086 0.72673 0.0
C1007 C 0.56071 0.2213 0.63812 0.0
C1008 C 0.56216 0.22309 0.50908 0.0
C1009 C 0.94282 0.36017 0.6138 0.0
C1010 C 0.96619 0.35687 0.5555 0.0
C1011 C 0.94294 0.35983 0.74294 0.0
C1012 C 0.96652 0.35631 0.821 0.0
H1013 H 0.92436 0.36322 0.55938 0.0
H1014 H 0.92453 0.36267 0.78231 0.0
S1015 S 1.03086 0.34434 0.71388 0.0
N1016 N 1.01231 0.34845 0.58652 0.0
N1017 N 1.01222 0.34768 0.82689 0.0
C1018 C 0.98953 0.35253 0.76357 0.0
C1019 C 0.98949 0.3529 0.63214 0.0
C1020 C 0.47229 0.90713 0.36005 0.0
C1021 C 0.47488 0.92813 0.44105 0.0
C1022 C 0.47295 0.90708 0.23195 0.0
C1023 C 0.47702 0.92829 0.17903 0.0
H1024 H 0.4704 0.8907 0.39608 0.0
H1025 H 0.47092 0.89044 0.17464 0.0
S1026 S 0.4868 0.98864 0.35051 0.0
N1027 N 0.48261 0.97099 0.45853 0.0
N1028 N 0.48413 0.97105 0.21886 0.0
C1029 C 0.48004 0.94951 0.25908 0.0
C1030 C 0.47909 0.94945 0.38945 0.0
C1031 C 0.39812 0.62082 0.34769 0.0
C1032 C 0.37848 0.59682 0.25512 0.0
C1033 C 0.3975 0.62102 0.47632 0.0
C1034 C 0.37746 0.59723 0.51756 0.0
H1035 H 0.41436 0.6396 0.32079 0.0
H1036 H 0.4134 0.63989 0.54427 0.0
S1037 S 0.31772 0.52936 0.31167 0.0
N1038 N 0.33571 0.54888 0.21371 0.0
N1039 N 0.33511 0.54922 0.45328 0.0
C1040 C 0.35691 0.57321 0.42542 0.0
C1041 C 0.35731 0.57302 0.295 0.0
C1042 C 0.68053 0.75531 0.51065 0.0
C1043 C 0.65089 0.75018 0.55765 0.0
C1044 C 0.68158 0.75672 0.38316 0.0
C1045 C 0.6529 0.75284 0.29553 0.0
H1046 H 0.70359 0.75888 0.57367 0.0
H1047 H 0.70537 0.76124 0.35347 0.0
S1048 S 0.56779 0.73676 0.36576 0.0
N1049 N 0.59126 0.73989 0.50249 0.0
N1050 N 0.59331 0.74241 0.26459 0.0
C1051 C 0.62289 0.74724 0.34049 0.0
C1052 C 0.62179 0.74583 0.47036 0.0
loop_
_geom_bond_atom_site_label_1
_geom_bond_atom_site_label_2
_geom_bond_distance
_geom_bond_site_symmetry_2
_ccdc_geom_bond_type
Tb0 N29 2.617 1_454 S
Tb0 N35 2.572 1_455 S
Tb0 O44 2.465 1_455 S
Tb0 O45 2.392 . S
Tb0 O47 2.428 1_455 S
Tb0 O48 2.308 . S
Tb0 O52 2.349 . S
Tb0 O55 2.393 1_554 S
Tb0 C64 2.802 1_455 S
C1 N2 1.379 . S
C1 C4 1.416 . S
C1 C8 1.424 . S
N2 C1 1.379 . S
N2 C5 1.334 . S
N2 Tb11 2.617 . S
C3 C5 1.390 . S
C3 C6 1.339 . S
C3 H23 0.930 . S
C4 C1 1.416 . S
C4 C6 1.416 . S
C4 C10 1.448 . S
C5 N2 1.334 . S
C5 C3 1.390 . S
C5 H16 0.930 . S
C6 C3 1.339 . S
C6 C4 1.416 . S
C6 H27 0.930 . S
C7 C8 1.413 . S
C7 C9 1.427 . S
C7 C13 1.416 . S
C8 C1 1.424 . S
C8 C7 1.413 . S
C8 N12 1.361 . S
C9 C7 1.427 . S
C9 C10 1.328 . S
C9 H24 0.929 . S
C10 C4 1.448 . S
C10 C9 1.328 . S
C10 H25 0.930 . S
Tb11 N2 2.617 . S
Tb11 N12 2.572 . S
Tb11 O46 2.349 . S
Tb11 O49 2.393 . S
Tb11 O50 2.465 . S
Tb11 O51 2.387 . S
Tb11 O53 2.428 . S
Tb11 O54 2.308 . S
Tb11 C75 2.802 . S
N12 C8 1.361 . S
N12 Tb11 2.572 . S
N12 C14 1.340 . S
C13 C7 1.416 . S
C13 C15 1.332 . S
C13 H21 0.931 . S
C14 N12 1.340 . S
C14 C15 1.407 . S
C14 H20 0.930 1_554 S
C15 C13 1.332 . S
C15 C14 1.407 . S
C15 H17 0.929 1_554 S
H16 C5 0.930 . S
H17 C15 0.929 1_556 S
H18 C33 0.930 . S
H19 C40 0.929 . S
H20 C14 0.930 1_556 S
H21 C13 0.931 . S
H22 C36 0.930 . S
H23 C3 0.930 . S
H24 C9 0.929 . S
H25 C10 0.930 . S
H26 C31 0.930 . S
H27 C6 0.930 . S
H28 C39 0.931 . S
N29 Tb0 2.617 1_656 S
N29 C30 1.379 . S
N29 C33 1.334 . S
C30 N29 1.379 . S
C30 C32 1.416 . S
C30 C38 1.424 1_556 S
C31 H26 0.930 . S
C31 C33 1.390 . S
C31 C34 1.339 . S
C32 C30 1.416 . S
C32 C34 1.416 . S
C32 C65 1.448 . S
C33 H18 0.930 . S
C33 N29 1.334 . S
C33 C31 1.390 . S
C34 C31 1.339 . S
C34 C32 1.416 . S
C34 H41 0.930 . S
N35 Tb0 2.572 1_655 S
N35 C36 1.340 . S
N35 C38 1.361 . S
C36 H22 0.930 . S
C36 N35 1.340 . S
C36 C40 1.407 . S
C37 C38 1.413 . S
C37 C39 1.416 . S
C37 C66 1.427 . S
C38 C30 1.424 1_554 S
C38 N35 1.361 . S
C38 C37 1.413 . S
C39 H28 0.931 . S
C39 C37 1.416 . S
C39 C40 1.332 . S
C40 H19 0.929 . S
C40 C36 1.407 . S
C40 C39 1.332 . S
H41 C34 0.930 . S
H42 C65 0.930 . S
H43 C66 0.929 . S
O44 Tb0 2.465 1_655 S
O44 C64 1.264 . S
O45 Tb0 2.392 . S
O45 C56 1.264 . S
O46 Tb11 2.349 . S
O46 C56 1.243 . S
O47 Tb0 2.428 1_655 S
O47 C64 1.256 . S
O48 Tb0 2.308 . S
O48 C63 1.266 . S
O49 Tb11 2.393 . S
O49 C63 1.248 . S
O50 Tb11 2.465 . S
O50 C75 1.264 . S
O51 Tb11 2.387 . S
O51 C67 1.264 . S
O52 Tb0 2.349 . S
O52 C67 1.243 . S
O53 Tb11 2.428 . S
O53 C75 1.256 . S
O54 Tb11 2.308 . S
O54 C74 1.266 1_554 S
O55 Tb0 2.393 1_556 S
O55 C74 1.248 . S
C56 O45 1.264 . S
C56 O46 1.243 . S
C57 C60 1.399 1_554 S
C57 C62 1.383 . S
C57 C64 1.496 . S
C58 C59 1.399 . S
C58 C62 1.389 . S
C59 C58 1.399 . S
C59 C61 1.380 1_554 S
C59 H76 0.929 . S
C60 C57 1.399 1_556 S
C60 C61 1.392 . S
C60 H77 0.929 . S
C61 C59 1.380 1_556 S
C61 C60 1.392 . S
C61 H78 0.929 . S
C62 C57 1.383 . S
C62 C58 1.389 . S
C62 H79 0.931 . S
C63 O48 1.266 . S
C63 O49 1.248 . S
C64 Tb0 2.802 1_655 S
C64 O44 1.264 . S
C64 O47 1.256 . S
C64 C57 1.496 . S
C65 C32 1.448 . S
C65 H42 0.930 . S
C65 C66 1.328 1_556 S
C66 C37 1.427 . S
C66 H43 0.929 . S
C66 C65 1.328 1_554 S
C67 O51 1.264 . S
C67 O52 1.243 . S
C68 C71 1.399 . S
C68 C72 1.383 . S
C68 C75 1.496 . S
C69 C70 1.399 . S
C69 C72 1.389 . S
C70 C69 1.399 . S
C70 C73 1.380 . S
C70 H80 0.929 . S
C71 C68 1.399 . S
C71 C73 1.392 . S
C71 H81 0.929 . S
C72 C68 1.383 . S
C72 C69 1.389 . S
C72 H82 0.931 . S
C73 C70 1.380 . S
C73 C71 1.392 . S
C73 H83 0.929 . S
C74 O54 1.266 1_556 S
C74 O55 1.248 . S
C75 Tb11 2.802 . S
C75 O50 1.264 . S
C75 O53 1.256 . S
C75 C68 1.496 . S
H76 C59 0.929 . S
H77 C60 0.929 . S
H78 C61 0.929 . S
H79 C62 0.931 . S
H80 C70 0.929 . S
H81 C71 0.929 . S
H82 C72 0.931 . S
H83 C73 0.929 . S
Tb84 N113 2.617 . S
Tb84 N119 2.572 . S
Tb84 O128 2.465 . S
Tb84 O129 2.387 . S
Tb84 O131 2.428 . S
Tb84 O132 2.308 1_554 S
Tb84 O136 2.349 . S
Tb84 O139 2.393 . S
Tb84 C148 2.802 . S
C85 N86 1.379 . S
C85 C88 1.416 . S
C85 C92 1.424 1_556 S
N86 C85 1.379 . S
N86 C89 1.334 . S
N86 Tb95 2.617 1_556 S
C87 C89 1.390 . S
C87 C90 1.339 . S
C87 H107 0.930 . S
C88 C85 1.416 . S
C88 C90 1.416 . S
C88 C94 1.448 1_655 S
C89 N86 1.334 . S
C89 C87 1.390 . S
C89 H100 0.930 . S
C90 C87 1.339 . S
C90 C88 1.416 . S
C90 H111 0.938 . S
C91 C92 1.413 1_455 S
C91 C93 1.427 . S
C91 C97 1.416 . S
C92 C85 1.424 1_554 S
C92 C91 1.413 1_655 S
C92 N96 1.361 . S
C93 C91 1.427 . S
C93 C94 1.328 1_554 S
C93 H108 0.929 . S
C94 C88 1.448 1_455 S
C94 C93 1.328 1_556 S
C94 H109 0.930 . S
Tb95 N86 2.617 1_554 S
Tb95 N96 2.572 . S
Tb95 O130 2.349 . S
Tb95 O133 2.393 1_554 S
Tb95 O134 2.465 . S
Tb95 O135 2.387 . S
Tb95 O137 2.428 1_554 S
Tb95 O138 2.308 . S
Tb95 C159 2.802 . S
N96 C92 1.361 . S
N96 Tb95 2.572 . S
N96 C98 1.340 . S
C97 C91 1.416 . S
C97 C99 1.305 1_455 S
C97 H105 0.931 . S
C98 N96 1.340 . S
C98 C99 1.436 . S
C98 H104 0.930 . S
C99 C97 1.305 1_655 S
C99 C98 1.436 . S
C99 H101 0.929 1_655 S
H100 C89 0.930 . S
H101 C99 0.929 1_455 S
H102 C117 0.930 . S
H103 C124 0.929 . S
H104 C98 0.930 . S
H105 C97 0.931 . S
H106 C120 0.930 . S
H107 C87 0.930 . S
H108 C93 0.929 . S
H109 C94 0.930 . S
H110 C115 0.930 . S
H111 C90 0.938 . S
H112 C123 0.931 . S
N113 Tb84 2.617 . S
N113 C114 1.379 . S
N113 C117 1.334 . S
C114 N113 1.379 . S
C114 C116 1.416 . S
C114 C122 1.424 . S
C115 H110 0.930 . S
C115 C117 1.390 . S
C115 C118 1.339 . S
C116 C114 1.416 . S
C116 C118 1.416 . S
C116 C149 1.448 . S
C117 H102 0.930 . S
C117 N113 1.334 . S
C117 C115 1.390 . S
C118 C115 1.339 . S
C118 C116 1.416 . S
C118 H125 0.930 . S
N119 Tb84 2.572 . S
N119 C120 1.340 1_554 S
N119 C122 1.361 . S
C120 H106 0.930 . S
C120 N119 1.340 1_556 S
C120 C124 1.407 . S
C121 C122 1.413 . S
C121 C123 1.416 1_554 S
C121 C150 1.427 . S
C122 C114 1.424 . S
C122 N119 1.361 . S
C122 C121 1.413 . S
C123 H112 0.931 . S
C123 C121 1.416 1_556 S
C123 C124 1.332 . S
C124 H103 0.929 . S
C124 C120 1.407 . S
C124 C123 1.332 . S
H125 C118 0.930 . S
H126 C149 0.930 . S
H127 C150 0.929 . S
O128 Tb84 2.465 . S
O128 C148 1.264 . S
O129 Tb84 2.387 . S
O129 C140 1.264 . S
O130 Tb95 2.349 . S
O130 C140 1.243 . S
O131 Tb84 2.428 . S
O131 C148 1.256 . S
O132 Tb84 2.308 1_556 S
O132 C147 1.266 . S
O133 Tb95 2.393 1_556 S
O133 C147 1.248 . S
O134 Tb95 2.465 . S
O134 C159 1.264 . S
O135 Tb95 2.387 . S
O135 C151 1.264 . S
O136 Tb84 2.349 . S
O136 C151 1.243 . S
O137 Tb95 2.428 1_556 S
O137 C159 1.256 1_556 S
O138 Tb95 2.308 . S
O138 C158 1.266 . S
O139 Tb84 2.393 . S
O139 C158 1.248 . S
C140 O129 1.264 . S
C140 O130 1.243 . S
C141 C144 1.399 . S
C141 C146 1.383 . S
C141 C148 1.496 . S
C142 C143 1.399 . S
C142 C146 1.389 . S
C143 C142 1.399 . S
C143 C145 1.380 . S
C143 H160 0.929 1_565 S
C144 C141 1.399 . S
C144 C145 1.392 . S
C144 H161 0.929 . S
C145 C143 1.380 . S
C145 C144 1.392 . S
C145 H162 0.929 . S
C146 C141 1.383 . S
C146 C142 1.389 . S
C146 H163 0.931 1_554 S
C147 O132 1.266 . S
C147 O133 1.248 . S
C148 Tb84 2.802 . S
C148 O128 1.264 . S
C148 O131 1.256 . S
C148 C141 1.496 . S
C149 C116 1.448 . S
C149 H126 0.930 . S
C149 C150 1.328 . S
C150 C121 1.427 . S
C150 H127 0.929 . S
C150 C149 1.328 . S
C151 O135 1.264 . S
C151 O136 1.243 . S
C152 C155 1.399 1_554 S
C152 C156 1.383 . S
C152 C159 1.496 . S
C153 C154 1.399 . S
C153 C156 1.389 . S
C154 C153 1.399 . S
C154 C157 1.380 1_554 S
C154 H164 0.929 . S
C155 C152 1.399 1_556 S
C155 C157 1.392 . S
C155 H165 0.929 . S
C156 C152 1.383 . S
C156 C153 1.389 . S
C156 H166 0.931 . S
C157 C154 1.380 1_556 S
C157 C155 1.392 . S
C157 H167 0.929 . S
C158 O138 1.266 . S
C158 O139 1.248 . S
C159 Tb95 2.802 . S
C159 O134 1.264 . S
C159 O137 1.256 1_554 S
C159 C152 1.496 . S
H160 C143 0.929 1_545 S
H161 C144 0.929 . S
H162 C145 0.929 . S
H163 C146 0.931 1_556 S
H164 C154 0.929 . S
H165 C155 0.929 . S
H166 C156 0.931 . S
H167 C157 0.929 . S
Tb168 N197 2.617 . S
Tb168 N203 2.572 1_556 S
Tb168 O212 2.465 1_556 S
Tb168 O213 2.387 . S
Tb168 O215 2.428 . S
Tb168 O216 2.308 1_556 S
Tb168 O220 2.349 . S
Tb168 O223 2.393 . S
Tb168 C232 2.802 1_556 S
C169 N170 1.379 . S
C169 C172 1.416 . S
C169 C176 1.424 1_554 S
N170 C169 1.379 . S
N170 C173 1.334 . S
N170 Tb179 2.617 . S
C171 C173 1.390 . S
C171 C174 1.339 . S
C171 H191 0.930 . S
C172 C169 1.416 . S
C172 C174 1.416 . S
C172 C178 1.448 . S
C173 N170 1.334 . S
C173 C171 1.390 . S
C173 H184 0.930 . S
C174 C171 1.339 . S
C174 C172 1.416 . S
C174 H195 0.930 . S
C175 C176 1.413 . S
C175 C177 1.427 1_556 S
C175 C181 1.416 . S
C176 C169 1.424 1_556 S
C176 C175 1.413 . S
C176 N180 1.361 . S
C177 C175 1.427 1_554 S
C177 C178 1.328 . S
C177 H192 0.929 1_554 S
C178 C172 1.448 . S
C178 C177 1.328 . S
C178 H193 0.930 . S
Tb179 N170 2.617 . S
Tb179 N180 2.572 1_554 S
Tb179 O214 2.349 1_565 S
Tb179 O217 2.393 1_565 S
Tb179 O218 2.465 1_554 S
Tb179 O219 2.387 . S
Tb179 O221 2.428 . S
Tb179 O222 2.308 1_564 S
Tb179 C243 2.802 . S
N180 C176 1.361 . S
N180 Tb179 2.572 1_556 S
N180 C182 1.340 . S
C181 C175 1.416 . S
C181 C183 1.332 . S
C181 H189 0.931 . S
C182 N180 1.340 . S
C182 C183 1.407 . S
C182 H188 0.930 . S
C183 C181 1.332 . S
C183 C182 1.407 . S
C183 H185 0.929 . S
H184 C173 0.930 . S
H185 C183 0.929 . S
H186 C201 0.930 . S
H187 C208 0.929 . S
H188 C182 0.930 . S
H189 C181 0.931 . S
H190 C204 0.930 . S
H191 C171 0.930 . S
H192 C177 0.929 1_556 S
H193 C178 0.930 . S
H194 C199 0.930 . S
H195 C174 0.930 . S
H196 C207 0.931 . S
N197 Tb168 2.617 . S
N197 C198 1.379 . S
N197 C201 1.334 . S
C198 N197 1.379 . S
C198 C200 1.416 . S
C198 C206 1.424 1_556 S
C199 H194 0.930 . S
C199 C201 1.390 . S
C199 C202 1.339 . S
C200 C198 1.416 . S
C200 C202 1.416 . S
C200 C233 1.448 . S
C201 H186 0.930 . S
C201 N197 1.334 . S
C201 C199 1.390 . S
C202 C199 1.339 . S
C202 C200 1.416 . S
C202 H209 0.930 . S
N203 Tb168 2.572 1_554 S
N203 C204 1.340 . S
N203 C206 1.361 . S
C204 H190 0.930 . S
C204 N203 1.340 . S
C204 C208 1.407 . S
C205 C206 1.413 . S
C205 C207 1.416 . S
C205 C234 1.427 . S
C206 C198 1.424 1_554 S
C206 N203 1.361 . S
C206 C205 1.413 . S
C207 H196 0.931 . S
C207 C205 1.416 . S
C207 C208 1.332 . S
C208 H187 0.929 . S
C208 C204 1.407 . S
C208 C207 1.332 . S
H209 C202 0.930 . S
H210 C233 0.930 . S
H211 C234 0.929 . S
O212 Tb168 2.465 1_554 S
O212 C232 1.264 . S
O213 Tb168 2.387 . S
O213 C224 1.264 1_556 S
O214 Tb179 2.349 1_545 S
O214 C224 1.243 . S
O215 Tb168 2.428 . S
O215 C232 1.256 1_556 S
O216 Tb168 2.308 1_554 S
O216 C231 1.266 . S
O217 Tb179 2.393 1_545 S
O217 C231 1.248 . S
O218 Tb179 2.465 1_556 S
O218 C243 1.264 1_556 S
O219 Tb179 2.387 . S
O219 C235 1.264 1_554 S
O220 Tb168 2.349 . S
O220 C235 1.243 1_545 S
O221 Tb179 2.428 . S
O221 C243 1.256 . S
O222 Tb179 2.308 1_546 S
O222 C242 1.266 . S
O223 Tb168 2.393 . S
O223 C242 1.248 . S
C224 O213 1.264 1_554 S
C224 O214 1.243 . S
C225 C228 1.399 1_554 S
C225 C230 1.383 . S
C225 C232 1.496 . S
C226 C227 1.399 . S
C226 C230 1.389 . S
C227 C226 1.399 . S
C227 C229 1.380 1_554 S
C227 H244 0.929 . S
C228 C225 1.399 1_556 S
C228 C229 1.392 . S
C228 H245 0.929 . S
C229 C227 1.380 1_556 S
C229 C228 1.392 . S
C229 H246 0.929 . S
C230 C225 1.383 . S
C230 C226 1.389 . S
C230 H247 0.931 . S
C231 O216 1.266 . S
C231 O217 1.248 . S
C232 Tb168 2.802 1_554 S
C232 O212 1.264 . S
C232 O215 1.256 1_554 S
C232 C225 1.496 . S
C233 C200 1.448 . S
C233 H210 0.930 . S
C233 C234 1.328 1_556 S
C234 C205 1.427 . S
C234 H211 0.929 . S
C234 C233 1.328 1_554 S
C235 O219 1.264 1_556 S
C235 O220 1.243 1_565 S
C236 C239 1.399 1_556 S
C236 C240 1.383 . S
C236 C243 1.496 1_556 S
C237 C238 1.399 . S
C237 C240 1.389 . S
C238 C237 1.399 . S
C238 C241 1.380 1_556 S
C238 H248 0.929 . S
C239 C236 1.399 1_554 S
C239 C241 1.392 . S
C239 H249 0.929 . S
C240 C236 1.383 . S
C240 C237 1.389 . S
C240 H250 0.931 . S
C241 C238 1.380 1_554 S
C241 C239 1.392 . S
C241 H251 0.929 . S
C242 O222 1.266 . S
C242 O223 1.248 . S
C243 Tb179 2.802 . S
C243 O218 1.264 1_554 S
C243 O221 1.256 . S
C243 C236 1.496 1_554 S
H244 C227 0.929 . S
H245 C228 0.929 . S
H246 C229 0.929 . S
H247 C230 0.931 . S
H248 C238 0.929 . S
H249 C239 0.929 . S
H250 C240 0.931 . S
H251 C241 0.929 . S
Tb252 N281 2.617 . S
Tb252 N287 2.572 . S
Tb252 O296 2.465 . S
Tb252 O297 2.387 . S
Tb252 O299 2.428 . S
Tb252 O300 2.308 1_554 S
Tb252 O304 2.349 . S
Tb252 O307 2.393 . S
Tb252 C316 2.802 . S
C253 N254 1.379 . S
C253 C256 1.416 . S
C253 C260 1.424 1_556 S
N254 C253 1.379 . S
N254 C257 1.334 . S
N254 Tb263 2.617 1_556 S
C255 C257 1.390 . S
C255 C258 1.339 . S
C255 H275 0.930 . S
C256 C253 1.416 . S
C256 C258 1.416 . S
C256 C262 1.448 . S
C257 N254 1.334 . S
C257 C255 1.390 . S
C257 H268 0.930 . S
C258 C255 1.339 . S
C258 C256 1.416 . S
C258 H279 0.930 . S
C259 C260 1.413 . S
C259 C261 1.427 1_554 S
C259 C265 1.416 . S
C260 C253 1.424 1_554 S
C260 C259 1.413 . S
C260 N264 1.361 . S
C261 C259 1.427 1_556 S
C261 C262 1.328 . S
C261 H276 0.929 . S
C262 C256 1.448 . S
C262 C261 1.328 . S
C262 H277 0.930 . S
Tb263 N254 2.617 1_554 S
Tb263 N264 2.572 . S
Tb263 O298 2.349 . S
Tb263 O301 2.393 1_554 S
Tb263 O302 2.465 . S
Tb263 O303 2.387 . S
Tb263 O305 2.428 1_554 S
Tb263 O306 2.308 . S
Tb263 C327 2.802 . S
N264 C260 1.361 . S
N264 Tb263 2.572 . S
N264 C266 1.340 . S
C265 C259 1.416 . S
C265 C267 1.332 . S
C265 H273 0.931 . S
C266 N264 1.340 . S
C266 C267 1.407 . S
C266 H272 0.930 . S
C267 C265 1.332 . S
C267 C266 1.407 . S
C267 H269 0.929 . S
H268 C257 0.930 . S
H269 C267 0.929 . S
H270 C285 0.930 . S
H271 C292 0.929 . S
H272 C266 0.930 . S
H273 C265 0.931 . S
H274 C288 0.930 . S
H275 C255 0.930 . S
H276 C261 0.929 . S
H277 C262 0.930 . S
H278 C283 0.930 . S
H279 C258 0.930 . S
H280 C291 0.931 1_556 S
N281 Tb252 2.617 . S
N281 C282 1.379 . S
N281 C285 1.334 . S
C282 N281 1.379 . S
C282 C284 1.416 . S
C282 C290 1.424 . S
C283 H278 0.930 . S
C283 C285 1.390 . S
C283 C286 1.339 . S
C284 C282 1.416 . S
C284 C286 1.416 . S
C284 C317 1.448 . S
C285 H270 0.930 . S
C285 N281 1.334 . S
C285 C283 1.390 . S
C286 C283 1.339 . S
C286 C284 1.416 . S
C286 H293 0.930 . S
N287 Tb252 2.572 . S
N287 C288 1.340 1_554 S
N287 C290 1.361 . S
C288 H274 0.930 . S
C288 N287 1.340 1_556 S
C288 C292 1.407 . S
C289 C290 1.413 . S
C289 C291 1.416 . S
C289 C318 1.427 . S
C290 C282 1.424 . S
C290 N287 1.361 . S
C290 C289 1.413 . S
C291 H280 0.931 1_554 S
C291 C289 1.416 . S
C291 C292 1.332 1_554 S
C292 H271 0.929 . S
C292 C288 1.407 . S
C292 C291 1.332 1_556 S
H293 C286 0.930 . S
H294 C317 0.930 . S
H295 C318 0.929 . S
O296 Tb252 2.465 . S
O296 C316 1.264 . S
O297 Tb252 2.387 . S
O297 C308 1.264 . S
O298 Tb263 2.349 . S
O298 C308 1.243 . S
O299 Tb252 2.428 . S
O299 C316 1.256 . S
O300 Tb252 2.308 1_556 S
O300 C315 1.266 . S
O301 Tb263 2.393 1_556 S
O301 C315 1.248 . S
O302 Tb263 2.465 . S
O302 C327 1.264 . S
O303 Tb263 2.387 . S
O303 C319 1.264 . S
O304 Tb252 2.349 . S
O304 C319 1.243 . S
O305 Tb263 2.428 1_556 S
O305 C327 1.256 1_556 S
O306 Tb263 2.308 . S
O306 C326 1.266 . S
O307 Tb252 2.393 . S
O307 C326 1.248 . S
C308 O297 1.264 . S
C308 O298 1.243 . S
C309 C312 1.399 . S
C309 C314 1.383 1_554 S
C309 C316 1.496 . S
C310 C311 1.399 1_556 S
C310 C314 1.389 . S
C311 C310 1.399 1_554 S
C311 C313 1.380 . S
C311 H328 0.929 . S
C312 C309 1.399 . S
C312 C313 1.392 . S
C312 H329 0.929 . S
C313 C311 1.380 . S
C313 C312 1.392 . S
C313 H330 0.929 . S
C314 C309 1.383 1_556 S
C314 C310 1.389 . S
C314 H331 0.931 . S
C315 O300 1.266 . S
C315 O301 1.248 . S
C316 Tb252 2.802 . S
C316 O296 1.264 . S
C316 O299 1.256 . S
C316 C309 1.496 . S
C317 C284 1.448 . S
C317 H294 0.930 . S
C317 C318 1.328 . S
C318 C289 1.427 . S
C318 H295 0.929 . S
C318 C317 1.328 . S
C319 O303 1.264 . S
C319 O304 1.243 . S
C320 C323 1.399 . S
C320 C324 1.383 . S
C320 C327 1.496 . S
C321 C322 1.399 . S
C321 C324 1.389 . S
C322 C321 1.399 . S
C322 C325 1.380 . S
C322 H332 0.929 . S
C323 C320 1.399 . S
C323 C325 1.392 . S
C323 H333 0.929 1_554 S
C324 C320 1.383 . S
C324 C321 1.389 . S
C324 H334 0.931 . S
C325 C322 1.380 . S
C325 C323 1.392 . S
C325 H335 0.929 1_554 S
C326 O306 1.266 . S
C326 O307 1.248 . S
C327 Tb263 2.802 . S
C327 O302 1.264 . S
C327 O305 1.256 1_554 S
C327 C320 1.496 . S
H328 C311 0.929 . S
H329 C312 0.929 . S
H330 C313 0.929 . S
H331 C314 0.931 . S
H332 C322 0.929 . S
H333 C323 0.929 1_556 S
H334 C324 0.931 . S
H335 C325 0.929 1_556 S
Tb336 N365 2.617 . S
Tb336 N371 2.572 1_554 S
Tb336 O380 2.465 1_554 S
Tb336 O381 2.387 . S
Tb336 O383 2.428 . S
Tb336 O384 2.308 1_554 S
Tb336 O388 2.349 . S
Tb336 O391 2.393 . S
Tb336 C400 2.802 . S
C337 N338 1.379 . S
C337 C340 1.416 . S
C337 C344 1.424 1_556 S
N338 C337 1.379 . S
N338 C341 1.334 . S
N338 Tb347 2.617 . S
C339 C341 1.390 . S
C339 C342 1.339 . S
C339 H359 0.930 . S
C340 C337 1.416 . S
C340 C342 1.416 . S
C340 C346 1.448 . S
C341 N338 1.334 . S
C341 C339 1.390 . S
C341 H352 0.930 . S
C342 C339 1.339 . S
C342 C340 1.416 . S
C342 H363 0.930 . S
C343 C344 1.413 . S
C343 C345 1.427 . S
C343 C349 1.416 . S
C344 C337 1.424 1_554 S
C344 C343 1.413 . S
C344 N348 1.361 . S
C345 C343 1.427 . S
C345 C346 1.328 1_554 S
C345 H360 0.929 . S
C346 C340 1.448 . S
C346 C345 1.328 1_556 S
C346 H361 0.930 . S
Tb347 N338 2.617 . S
Tb347 N348 2.572 1_556 S
Tb347 O382 2.349 . S
Tb347 O385 2.393 . S
Tb347 O386 2.465 1_556 S
Tb347 O387 2.389 1_556 S
Tb347 O389 2.428 . S
Tb347 O390 2.308 1_556 S
Tb347 C411 2.802 1_556 S
N348 C344 1.361 . S
N348 Tb347 2.572 1_554 S
N348 C350 1.340 . S
C349 C343 1.416 . S
C349 C351 1.332 . S
C349 H357 0.931 . S
C350 N348 1.340 . S
C350 C351 1.407 . S
C350 H356 0.930 . S
C351 C349 1.332 . S
C351 C350 1.407 . S
C351 H353 0.929 . S
H352 C341 0.930 . S
H353 C351 0.929 . S
H354 C369 0.930 . S
H355 C376 0.929 . S
H356 C350 0.930 . S
H357 C349 0.931 . S
H358 C372 0.930 . S
H359 C339 0.930 . S
H360 C345 0.929 . S
H361 C346 0.930 . S
H362 C367 0.930 . S
H363 C342 0.930 . S
H364 C375 0.931 . S
N365 Tb336 2.617 . S
N365 C366 1.379 . S
N365 C369 1.334 . S
C366 N365 1.379 . S
C366 C368 1.416 . S
C366 C374 1.424 1_554 S
C367 H362 0.930 . S
C367 C369 1.390 . S
C367 C370 1.339 . S
C368 C366 1.416 . S
C368 C370 1.416 . S
C368 C401 1.448 . S
C369 H354 0.930 . S
C369 N365 1.334 . S
C369 C367 1.390 . S
C370 C367 1.339 . S
C370 C368 1.416 . S
C370 H377 0.930 . S
N371 Tb336 2.572 1_556 S
N371 C372 1.340 . S
N371 C374 1.361 . S
C372 H358 0.930 . S
C372 N371 1.340 . S
C372 C376 1.407 . S
C373 C374 1.413 . S
C373 C375 1.416 . S
C373 C402 1.427 1_556 S
C374 C366 1.424 1_556 S
C374 N371 1.361 . S
C374 C373 1.413 . S
C375 H364 0.931 . S
C375 C373 1.416 . S
C375 C376 1.332 . S
C376 H355 0.929 . S
C376 C372 1.407 . S
C376 C375 1.332 . S
H377 C370 0.930 . S
H378 C401 0.930 . S
H379 C402 0.929 1_556 S
O380 Tb336 2.465 1_556 S
O380 C400 1.264 1_556 S
O381 Tb336 2.387 . S
O381 C392 1.264 1_554 S
O382 Tb347 2.349 . S
O382 C392 1.243 . S
O383 Tb336 2.428 . S
O383 C400 1.256 . S
O384 Tb336 2.308 1_556 S
O384 C399 1.266 . S
O385 Tb347 2.393 . S
O385 C399 1.248 . S
O386 Tb347 2.465 1_554 S
O386 C411 1.264 . S
O387 Tb347 2.389 1_554 S
O387 C403 1.265 . S
O388 Tb336 2.349 . S
O388 C403 1.243 . S
O389 Tb347 2.428 . S
O389 C411 1.256 1_556 S
O390 Tb347 2.308 1_554 S
O390 C410 1.266 . S
O391 Tb336 2.393 . S
O391 C410 1.248 . S
C392 O381 1.264 1_556 S
C392 O382 1.243 . S
C393 C396 1.399 . S
C393 C398 1.383 1_554 S
C393 C400 1.496 . S
C394 C395 1.399 . S
C394 C398 1.389 . S
C395 C394 1.399 . S
C395 C397 1.379 1_556 S
C395 H412 0.929 . S
C396 C393 1.399 . S
C396 C397 1.392 . S
C396 H413 0.929 . S
C397 C395 1.379 1_554 S
C397 C396 1.392 . S
C397 H414 0.929 . S
C398 C393 1.383 1_556 S
C398 C394 1.389 . S
C398 H415 0.931 . S
C399 O384 1.266 . S
C399 O385 1.248 . S
C400 Tb336 2.802 . S
C400 O380 1.264 1_554 S
C400 O383 1.256 . S
C400 C393 1.496 . S
C401 C368 1.448 . S
C401 H378 0.930 . S
C401 C402 1.328 . S
C402 C373 1.427 1_554 S
C402 H379 0.929 1_554 S
C402 C401 1.328 . S
C403 O387 1.265 . S
C403 O388 1.243 . S
C404 C407 1.399 1_554 S
C404 C408 1.383 . S
C404 C411 1.496 . S
C405 C406 1.399 . S
C405 C408 1.389 . S
C406 C405 1.399 . S
C406 C409 1.380 1_554 S
C406 H416 0.929 . S
C407 C404 1.399 1_556 S
C407 C409 1.392 . S
C407 H417 0.929 . S
C408 C404 1.383 . S
C408 C405 1.389 . S
C408 H418 0.931 . S
C409 C406 1.380 1_556 S
C409 C407 1.392 . S
C409 H419 0.929 . S
C410 O390 1.266 . S
C410 O391 1.248 . S
C411 Tb347 2.802 1_554 S
C411 O386 1.264 . S
C411 O389 1.256 1_554 S
C411 C404 1.496 . S
H412 C395 0.929 . S
H413 C396 0.929 . S
H414 C397 0.929 . S
H415 C398 0.931 . S
H416 C406 0.929 . S
H417 C407 0.929 . S
H418 C408 0.931 . S
H419 C409 0.929 . S
Tb420 N449 2.617 . S
Tb420 N455 2.572 . S
Tb420 O464 2.465 1_554 S
Tb420 O465 2.387 . S
Tb420 O467 2.428 . S
Tb420 O468 2.308 1_554 S
Tb420 O472 2.349 . S
Tb420 O475 2.393 . S
Tb420 C484 2.802 . S
C421 N422 1.379 . S
C421 C424 1.416 . S
C421 C428 1.424 . S
N422 C421 1.379 . S
N422 C425 1.334 1_554 S
N422 Tb431 2.617 . S
C423 C425 1.390 . S
C423 C426 1.339 . S
C423 H443 0.930 . S
C424 C421 1.416 . S
C424 C426 1.416 1_554 S
C424 C430 1.448 1_655 S
C425 N422 1.334 1_556 S
C425 C423 1.390 . S
C425 H436 0.930 . S
C426 C423 1.339 . S
C426 C424 1.416 1_556 S
C426 H447 0.930 . S
C427 C428 1.413 . S
C427 C429 1.427 1_655 S
C427 C433 1.416 . S
C428 C421 1.424 . S
C428 C427 1.413 . S
C428 N432 1.361 . S
C429 C427 1.427 1_455 S
C429 C430 1.328 . S
C429 H444 0.929 . S
C430 C424 1.448 1_455 S
C430 C429 1.328 . S
C430 H445 0.930 . S
Tb431 N422 2.617 . S
Tb431 N432 2.572 . S
Tb431 O466 2.349 . S
Tb431 O469 2.393 1_554 S
Tb431 O470 2.465 1_655 S
Tb431 O471 2.387 . S
Tb431 O473 2.428 1_655 S
Tb431 O474 2.308 . S
Tb431 C495 2.802 1_655 S
N432 C428 1.361 . S
N432 Tb431 2.572 . S
N432 C434 1.340 . S
C433 C427 1.416 . S
C433 C435 1.332 . S
C433 H441 0.912 . S
C434 N432 1.340 . S
C434 C435 1.407 . S
C434 H440 0.930 . S
C435 C433 1.332 . S
C435 C434 1.407 . S
C435 H437 0.929 . S
H436 C425 0.930 . S
H437 C435 0.929 . S
H438 C453 0.930 . S
H439 C460 0.929 . S
H440 C434 0.930 . S
H441 C433 0.912 . S
H442 C456 0.930 . S
H443 C423 0.930 . S
H444 C429 0.929 . S
H445 C430 0.930 . S
H446 C451 0.930 . S
H447 C426 0.930 . S
H448 C459 0.931 . S
N449 Tb420 2.617 . S
N449 C450 1.379 . S
N449 C453 1.334 . S
C450 N449 1.379 . S
C450 C452 1.416 . S
C450 C458 1.424 . S
C451 H446 0.930 . S
C451 C453 1.390 . S
C451 C454 1.339 . S
C452 C450 1.416 . S
C452 C454 1.416 . S
C452 C485 1.448 . S
C453 H438 0.930 . S
C453 N449 1.334 . S
C453 C451 1.390 . S
C454 C451 1.339 . S
C454 C452 1.416 . S
C454 H461 0.930 . S
N455 Tb420 2.572 . S
N455 C456 1.340 1_554 S
N455 C458 1.361 . S
C456 H442 0.930 . S
C456 N455 1.340 1_556 S
C456 C460 1.407 . S
C457 C458 1.413 . S
C457 C459 1.416 1_554 S
C457 C486 1.427 . S
C458 C450 1.424 . S
C458 N455 1.361 . S
C458 C457 1.413 . S
C459 H448 0.931 . S
C459 C457 1.416 1_556 S
C459 C460 1.332 . S
C460 H439 0.929 . S
C460 C456 1.407 . S
C460 C459 1.332 . S
H461 C454 0.930 . S
H462 C485 0.930 . S
H463 C486 0.929 . S
O464 Tb420 2.465 1_556 S
O464 C484 1.264 1_556 S
O465 Tb420 2.387 . S
O465 C476 1.264 . S
O466 Tb431 2.349 . S
O466 C476 1.243 . S
O467 Tb420 2.428 . S
O467 C484 1.256 . S
O468 Tb420 2.308 1_556 S
O468 C483 1.266 . S
O469 Tb431 2.393 1_556 S
O469 C483 1.248 . S
O470 Tb431 2.465 1_455 S
O470 C495 1.264 . S
O471 Tb431 2.387 . S
O471 C487 1.264 . S
O472 Tb420 2.349 . S
O472 C487 1.243 . S
O473 Tb431 2.428 1_455 S
O473 C495 1.256 . S
O474 Tb431 2.308 . S
O474 C494 1.266 . S
O475 Tb420 2.393 . S
O475 C494 1.248 . S
C476 O465 1.264 . S
C476 O466 1.243 . S
C477 C480 1.399 . S
C477 C482 1.383 1_554 S
C477 C484 1.496 . S
C478 C479 1.399 . S
C478 C482 1.389 . S
C479 C478 1.399 . S
C479 C481 1.380 1_556 S
C479 H496 0.929 . S
C480 C477 1.399 . S
C480 C481 1.392 . S
C480 H497 0.929 . S
C481 C479 1.380 1_554 S
C481 C480 1.392 . S
C481 H498 0.929 . S
C482 C477 1.383 1_556 S
C482 C478 1.389 . S
C482 H499 0.931 . S
C483 O468 1.266 . S
C483 O469 1.248 . S
C484 Tb420 2.802 . S
C484 O464 1.264 1_554 S
C484 O467 1.256 . S
C484 C477 1.496 . S
C485 C452 1.448 . S
C485 H462 0.930 . S
C485 C486 1.328 . S
C486 C457 1.427 . S
C486 H463 0.929 . S
C486 C485 1.328 . S
C487 O471 1.264 . S
C487 O472 1.243 . S
C488 C491 1.399 . S
C488 C492 1.383 . S
C488 C495 1.496 . S
C489 C490 1.399 . S
C489 C492 1.389 . S
C490 C489 1.399 . S
C490 C493 1.380 . S
C490 H500 0.929 . S
C491 C488 1.399 . S
C491 C493 1.392 . S
C491 H501 0.929 . S
C492 C488 1.383 . S
C492 C489 1.389 . S
C492 H502 0.931 . S
C493 C490 1.380 . S
C493 C491 1.392 . S
C493 H503 0.929 . S
C494 O474 1.266 . S
C494 O475 1.248 . S
C495 Tb431 2.802 1_455 S
C495 O470 1.264 . S
C495 O473 1.256 . S
C495 C488 1.496 . S
H496 C479 0.929 . S
H497 C480 0.929 . S
H498 C481 0.929 . S
H499 C482 0.931 . S
H500 C490 0.929 . S
H501 C491 0.929 . S
H502 C492 0.931 . S
H503 C493 0.929 . S
Tb504 N533 2.617 . S
Tb504 N539 2.572 . S
Tb504 O548 2.465 . S
Tb504 O549 2.387 . S
Tb504 O551 2.428 . S
Tb504 O552 2.308 . S
Tb504 O556 2.349 . S
Tb504 O559 2.393 . S
Tb504 C568 2.802 . S
C505 N506 1.379 . S
C505 C508 1.416 . S
C505 C512 1.424 1_554 S
N506 C505 1.379 . S
N506 C509 1.334 . S
N506 Tb515 2.617 1_554 S
C507 C509 1.390 . S
C507 C510 1.339 . S
C507 H527 0.930 . S
C508 C505 1.416 . S
C508 C510 1.416 . S
C508 C514 1.448 . S
C509 N506 1.334 . S
C509 C507 1.390 . S
C509 H520 0.930 . S
C510 C507 1.339 . S
C510 C508 1.416 . S
C510 H531 0.930 . S
C511 C512 1.413 . S
C511 C513 1.427 . S
C511 C517 1.416 . S
C512 C505 1.424 1_556 S
C512 C511 1.413 . S
C512 N516 1.361 . S
C513 C511 1.427 . S
C513 C514 1.328 1_556 S
C513 H528 0.929 . S
C514 C508 1.448 . S
C514 C513 1.328 1_554 S
C514 H529 0.930 . S
Tb515 N506 2.617 1_556 S
Tb515 N516 2.572 . S
Tb515 O550 2.349 . S
Tb515 O553 2.393 1_556 S
Tb515 O554 2.465 . S
Tb515 O555 2.387 . S
Tb515 O557 2.428 . S
Tb515 O558 2.308 . S
Tb515 C579 2.802 . S
N516 C512 1.361 . S
N516 Tb515 2.572 . S
N516 C518 1.340 . S
C517 C511 1.416 . S
C517 C519 1.332 . S
C517 H525 0.931 . S
C518 N516 1.340 . S
C518 C519 1.407 . S
C518 H524 0.930 . S
C519 C517 1.332 . S
C519 C518 1.407 . S
C519 H521 0.929 . S
H520 C509 0.930 . S
H521 C519 0.929 . S
H522 C537 0.930 . S
H523 C544 0.929 1_554 S
H524 C518 0.930 . S
H525 C517 0.931 . S
H526 C540 0.930 1_554 S
H527 C507 0.930 . S
H528 C513 0.929 . S
H529 C514 0.930 . S
H530 C535 0.930 . S
H531 C510 0.930 . S
H532 C543 0.931 . S
N533 Tb504 2.617 . S
N533 C534 1.379 . S
N533 C537 1.334 . S
C534 N533 1.379 . S
C534 C536 1.416 . S
C534 C542 1.424 . S
C535 H530 0.930 . S
C535 C537 1.390 . S
C535 C538 1.339 . S
C536 C534 1.416 . S
C536 C538 1.416 . S
C536 C569 1.448 . S
C537 H522 0.930 . S
C537 N533 1.334 . S
C537 C535 1.390 . S
C538 C535 1.339 . S
C538 C536 1.416 . S
C538 H545 0.930 . S
N539 Tb504 2.572 . S
N539 C540 1.340 . S
N539 C542 1.361 . S
C540 H526 0.930 1_556 S
C540 N539 1.340 . S
C540 C544 1.407 . S
C541 C542 1.413 . S
C541 C543 1.416 . S
C541 C570 1.427 . S
C542 C534 1.424 . S
C542 N539 1.361 . S
C542 C541 1.413 . S
C543 H532 0.931 . S
C543 C541 1.416 . S
C543 C544 1.332 . S
C544 H523 0.929 1_556 S
C544 C540 1.407 . S
C544 C543 1.332 . S
H545 C538 0.930 . S
H546 C569 0.930 . S
H547 C570 0.929 . S
O548 Tb504 2.465 . S
O548 C568 1.264 . S
O549 Tb504 2.387 . S
O549 C560 1.264 . S
O550 Tb515 2.349 . S
O550 C560 1.243 . S
O551 Tb504 2.428 . S
O551 C568 1.256 . S
O552 Tb504 2.308 . S
O552 C567 1.266 1_556 S
O553 Tb515 2.393 1_554 S
O553 C567 1.248 . S
O554 Tb515 2.465 . S
O554 C579 1.264 . S
O555 Tb515 2.387 . S
O555 C571 1.264 . S
O556 Tb504 2.349 . S
O556 C571 1.243 . S
O557 Tb515 2.428 . S
O557 C579 1.256 . S
O558 Tb515 2.308 . S
O558 C578 1.266 . S
O559 Tb504 2.393 . S
O559 C578 1.248 . S
C560 O549 1.264 . S
C560 O550 1.243 . S
C561 C564 1.399 . S
C561 C566 1.383 . S
C561 C568 1.496 . S
C562 C563 1.399 . S
C562 C566 1.389 . S
C563 C562 1.399 . S
C563 C565 1.380 . S
C563 H580 0.929 . S
C564 C561 1.399 . S
C564 C565 1.392 . S
C564 H581 0.929 . S
C565 C563 1.380 . S
C565 C564 1.392 . S
C565 H582 0.929 . S
C566 C561 1.383 . S
C566 C562 1.389 . S
C566 H583 0.931 . S
C567 O552 1.266 1_554 S
C567 O553 1.248 . S
C568 Tb504 2.802 . S
C568 O548 1.264 . S
C568 O551 1.256 . S
C568 C561 1.496 . S
C569 C536 1.448 . S
C569 H546 0.930 . S
C569 C570 1.328 . S
C570 C541 1.427 . S
C570 H547 0.929 . S
C570 C569 1.328 . S
C571 O555 1.264 . S
C571 O556 1.243 . S
C572 C575 1.399 . S
C572 C576 1.383 . S
C572 C579 1.496 1_545 S
C573 C574 1.399 . S
C573 C576 1.389 . S
C574 C573 1.399 . S
C574 C577 1.380 . S
C574 H584 0.929 . S
C575 C572 1.399 . S
C575 C577 1.392 . S
C575 H585 0.929 1_556 S
C576 C572 1.383 . S
C576 C573 1.389 . S
C576 H586 0.950 . S
C577 C574 1.380 . S
C577 C575 1.392 . S
C577 H587 0.929 1_556 S
C578 O558 1.266 . S
C578 O559 1.248 . S
C579 Tb515 2.802 . S
C579 O554 1.264 . S
C579 O557 1.256 . S
C579 C572 1.496 1_565 S
H580 C563 0.929 . S
H581 C564 0.929 . S
H582 C565 0.929 . S
H583 C566 0.931 . S
H584 C574 0.929 . S
H585 C575 0.929 1_554 S
H586 C576 0.950 . S
H587 C577 0.929 1_554 S
Tb588 N617 2.617 1_556 S
Tb588 N623 2.572 . S
Tb588 O632 2.465 . S
Tb588 O633 2.387 . S
Tb588 O635 2.428 1_556 S
Tb588 O636 2.308 . S
Tb588 O640 2.349 . S
Tb588 O643 2.393 1_556 S
Tb588 C652 2.802 . S
C589 N590 1.379 . S
C589 C592 1.416 . S
C589 C596 1.424 . S
N590 C589 1.379 . S
N590 C593 1.334 . S
N590 Tb599 2.617 . S
C591 C593 1.390 . S
C591 C594 1.339 . S
C591 H611 0.930 . S
C592 C589 1.416 . S
C592 C594 1.416 . S
C592 C598 1.448 . S
C593 N590 1.334 . S
C593 C591 1.390 . S
C593 H604 0.930 . S
C594 C591 1.339 . S
C594 C592 1.416 . S
C594 H615 0.930 . S
C595 C596 1.413 1_554 S
C595 C597 1.427 . S
C595 C601 1.416 . S
C596 C589 1.424 . S
C596 C595 1.413 1_556 S
C596 N600 1.361 1_556 S
C597 C595 1.427 . S
C597 C598 1.328 1_554 S
C597 H612 0.929 . S
C598 C592 1.448 . S
C598 C597 1.328 1_556 S
C598 H613 0.930 . S
Tb599 N590 2.617 . S
Tb599 N600 2.572 1_556 S
Tb599 O634 2.349 . S
Tb599 O637 2.393 . S
Tb599 O638 2.465 1_556 S
Tb599 O639 2.387 . S
Tb599 O641 2.428 . S
Tb599 O642 2.308 1_556 S
Tb599 C663 2.802 . S
N600 C596 1.361 1_554 S
N600 Tb599 2.572 1_554 S
N600 C602 1.340 . S
C601 C595 1.416 . S
C601 C603 1.332 . S
C601 H609 0.931 . S
C602 N600 1.340 . S
C602 C603 1.407 . S
C602 H608 0.930 . S
C603 C601 1.332 . S
C603 C602 1.407 . S
C603 H605 0.929 . S
H604 C593 0.930 . S
H605 C603 0.929 . S
H606 C621 0.930 . S
H607 C628 0.929 . S
H608 C602 0.930 . S
H609 C601 0.931 . S
H610 C624 0.930 . S
H611 C591 0.930 . S
H612 C597 0.929 . S
H613 C598 0.930 . S
H614 C619 0.930 . S
H615 C594 0.930 . S
H616 C627 0.931 . S
N617 Tb588 2.617 1_554 S
N617 C618 1.377 1_554 S
N617 C621 1.334 . S
C618 N617 1.377 1_556 S
C618 C620 1.412 1_556 S
C618 C626 1.430 . S
C619 H614 0.930 . S
C619 C621 1.390 . S
C619 C622 1.339 . S
C620 C618 1.412 1_554 S
C620 C622 1.416 . S
C620 C653 1.448 1_554 S
C621 H606 0.930 . S
C621 N617 1.334 . S
C621 C619 1.390 . S
C622 C619 1.339 . S
C622 C620 1.416 . S
C622 H629 0.930 . S
N623 Tb588 2.572 . S
N623 C624 1.340 . S
N623 C626 1.361 . S
C624 H610 0.930 . S
C624 N623 1.340 . S
C624 C628 1.407 . S
C625 C626 1.413 . S
C625 C627 1.416 . S
C625 C654 1.427 . S
C626 C618 1.430 . S
C626 N623 1.361 . S
C626 C625 1.413 . S
C627 H616 0.931 . S
C627 C625 1.416 . S
C627 C628 1.332 . S
C628 H607 0.929 . S
C628 C624 1.407 . S
C628 C627 1.332 . S
H629 C622 0.930 . S
H630 C653 0.930 1_554 S
H631 C654 0.929 . S
O632 Tb588 2.465 . S
O632 C652 1.264 . S
O633 Tb588 2.387 . S
O633 C644 1.264 . S
O634 Tb599 2.349 . S
O634 C644 1.243 . S
O635 Tb588 2.428 1_554 S
O635 C652 1.256 1_554 S
O636 Tb588 2.308 . S
O636 C651 1.266 . S
O637 Tb599 2.393 . S
O637 C651 1.248 . S
O638 Tb599 2.465 1_554 S
O638 C663 1.264 1_554 S
O639 Tb599 2.387 . S
O639 C655 1.264 . S
O640 Tb588 2.349 . S
O640 C655 1.243 . S
O641 Tb599 2.428 . S
O641 C663 1.256 . S
O642 Tb599 2.308 1_554 S
O642 C662 1.266 . S
O643 Tb588 2.393 1_554 S
O643 C662 1.248 . S
C644 O633 1.264 . S
C644 O634 1.243 . S
C645 C648 1.399 1_556 S
C645 C650 1.383 . S
C645 C652 1.496 . S
C646 C647 1.399 . S
C646 C650 1.389 . S
C647 C646 1.399 . S
C647 C649 1.380 1_556 S
C647 H664 0.929 . S
C648 C645 1.399 1_554 S
C648 C649 1.392 . S
C648 H665 0.929 . S
C649 C647 1.380 1_554 S
C649 C648 1.392 . S
C649 H666 0.929 . S
C650 C645 1.383 . S
C650 C646 1.389 . S
C650 H667 0.931 . S
C651 O636 1.266 . S
C651 O637 1.248 . S
C652 Tb588 2.802 . S
C652 O632 1.264 . S
C652 O635 1.256 1_556 S
C652 C645 1.496 . S
C653 C620 1.448 1_556 S
C653 H630 0.930 1_556 S
C653 C654 1.328 . S
C654 C625 1.427 . S
C654 H631 0.929 . S
C654 C653 1.328 . S
C655 O639 1.264 . S
C655 O640 1.243 . S
C656 C659 1.399 . S
C656 C660 1.383 1_556 S
C656 C663 1.496 . S
C657 C658 1.399 1_554 S
C657 C660 1.389 . S
C658 C657 1.399 1_556 S
C658 C661 1.380 . S
C658 H668 0.929 . S
C659 C656 1.399 . S
C659 C661 1.392 . S
C659 H669 0.929 . S
C660 C656 1.383 1_554 S
C660 C657 1.389 . S
C660 H670 0.931 . S
C661 C658 1.380 . S
C661 C659 1.392 . S
C661 H671 0.929 . S
C662 O642 1.266 . S
C662 O643 1.248 . S
C663 Tb599 2.802 . S
C663 O638 1.264 1_556 S
C663 O641 1.256 . S
C663 C656 1.496 . S
H664 C647 0.929 . S
H665 C648 0.929 . S
H666 C649 0.929 . S
H667 C650 0.931 . S
H668 C658 0.929 . S
H669 C659 0.929 . S
H670 C660 0.931 . S
H671 C661 0.929 . S
Tb672 N701 2.617 . S
Tb672 N707 2.572 1_556 S
Tb672 O716 2.465 1_556 S
Tb672 O717 2.387 . S
Tb672 O719 2.428 . S
Tb672 O720 2.308 1_556 S
Tb672 O724 2.349 . S
Tb672 O727 2.393 . S
Tb672 C736 2.802 . S
C673 N674 1.379 1_556 S
C673 C676 1.416 . S
C673 C680 1.424 . S
N674 C673 1.379 1_554 S
N674 C677 1.334 . S
N674 Tb683 2.617 1_554 S
C675 C677 1.390 . S
C675 C678 1.339 . S
C675 H695 0.930 . S
C676 C673 1.416 . S
C676 C678 1.416 1_556 S
C676 C682 1.448 . S
C677 N674 1.334 . S
C677 C675 1.390 . S
C677 H688 0.930 . S
C678 C675 1.339 . S
C678 C676 1.416 1_554 S
C678 H699 0.930 . S
C679 C680 1.413 . S
C679 C681 1.427 . S
C679 C685 1.416 . S
C680 C673 1.424 . S
C680 C679 1.413 . S
C680 N684 1.361 . S
C681 C679 1.427 . S
C681 C682 1.328 . S
C681 H696 0.929 . S
C682 C676 1.448 . S
C682 C681 1.328 . S
C682 H697 0.930 . S
Tb683 N674 2.617 1_556 S
Tb683 N684 2.572 . S
Tb683 O718 2.349 . S
Tb683 O721 2.393 1_556 S
Tb683 O722 2.465 . S
Tb683 O723 2.387 . S
Tb683 O725 2.428 . S
Tb683 O726 2.308 . S
Tb683 C747 2.802 . S
N684 C680 1.361 . S
N684 Tb683 2.572 . S
N684 C686 1.340 . S
C685 C679 1.416 . S
C685 C687 1.332 . S
C685 H693 0.931 . S
C686 N684 1.340 . S
C686 C687 1.407 . S
C686 H692 0.930 . S
C687 C685 1.332 . S
C687 C686 1.407 . S
C687 H689 0.929 . S
H688 C677 0.930 . S
H689 C687 0.929 . S
H690 C705 0.930 . S
H691 C712 0.929 . S
H692 C686 0.930 . S
H693 C685 0.931 . S
H694 C708 0.930 . S
H695 C675 0.930 . S
H696 C681 0.929 . S
H697 C682 0.930 . S
H698 C703 0.930 . S
H699 C678 0.930 . S
H700 C711 0.931 . S
N701 Tb672 2.617 . S
N701 C702 1.379 . S
N701 C705 1.334 . S
C702 N701 1.379 . S
C702 C704 1.416 . S
C702 C710 1.424 . S
C703 H698 0.930 . S
C703 C705 1.390 . S
C703 C706 1.339 . S
C704 C702 1.416 . S
C704 C706 1.416 . S
C704 C737 1.448 . S
C705 H690 0.930 . S
C705 N701 1.334 . S
C705 C703 1.390 . S
C706 C703 1.339 . S
C706 C704 1.416 . S
C706 H713 0.930 . S
N707 Tb672 2.572 1_554 S
N707 C708 1.340 . S
N707 C710 1.361 1_554 S
C708 H694 0.930 . S
C708 N707 1.340 . S
C708 C712 1.407 . S
C709 C710 1.413 1_554 S
C709 C711 1.416 . S
C709 C738 1.427 1_554 S
C710 C702 1.424 . S
C710 N707 1.361 1_556 S
C710 C709 1.413 1_556 S
C711 H700 0.931 . S
C711 C709 1.416 . S
C711 C712 1.332 . S
C712 H691 0.929 . S
C712 C708 1.407 . S
C712 C711 1.332 . S
H713 C706 0.930 . S
H714 C737 0.930 . S
H715 C738 0.929 1_554 S
O716 Tb672 2.465 1_554 S
O716 C736 1.264 1_554 S
O717 Tb672 2.387 . S
O717 C728 1.264 . S
O718 Tb683 2.349 . S
O718 C728 1.243 . S
O719 Tb672 2.428 . S
O719 C736 1.256 . S
O720 Tb672 2.308 1_554 S
O720 C735 1.266 . S
O721 Tb683 2.393 1_554 S
O721 C735 1.248 . S
O722 Tb683 2.465 . S
O722 C747 1.264 . S
O723 Tb683 2.387 . S
O723 C739 1.264 . S
O724 Tb672 2.349 . S
O724 C739 1.243 . S
O725 Tb683 2.428 . S
O725 C747 1.256 . S
O726 Tb683 2.308 . S
O726 C746 1.266 . S
O727 Tb672 2.393 . S
O727 C746 1.248 . S
C728 O717 1.264 . S
C728 O718 1.243 . S
C729 C732 1.399 . S
C729 C734 1.383 1_556 S
C729 C736 1.496 . S
C730 C731 1.399 1_554 S
C730 C734 1.389 . S
C731 C730 1.399 1_556 S
C731 C733 1.380 . S
C731 H748 0.929 . S
C732 C729 1.399 . S
C732 C733 1.392 . S
C732 H749 0.929 . S
C733 C731 1.380 . S
C733 C732 1.392 . S
C733 H750 0.929 . S
C734 C729 1.383 1_554 S
C734 C730 1.389 . S
C734 H751 0.931 . S
C735 O720 1.266 . S
C735 O721 1.248 . S
C736 Tb672 2.802 . S
C736 O716 1.264 1_556 S
C736 O719 1.256 . S
C736 C729 1.496 . S
C737 C704 1.448 . S
C737 H714 0.930 . S
C737 C738 1.328 . S
C738 C709 1.427 1_556 S
C738 H715 0.929 1_556 S
C738 C737 1.328 . S
C739 O723 1.264 . S
C739 O724 1.243 . S
C740 C743 1.399 . S
C740 C744 1.383 . S
C740 C747 1.496 . S
C741 C742 1.399 . S
C741 C744 1.389 . S
C742 C741 1.399 . S
C742 C745 1.380 . S
C742 H752 0.929 . S
C743 C740 1.399 . S
C743 C745 1.392 . S
C743 H753 0.929 . S
C744 C740 1.383 . S
C744 C741 1.389 . S
C744 H754 0.931 . S
C745 C742 1.380 . S
C745 C743 1.392 . S
C745 H755 0.929 . S
C746 O726 1.266 . S
C746 O727 1.248 . S
C747 Tb683 2.802 . S
C747 O722 1.264 . S
C747 O725 1.256 . S
C747 C740 1.496 . S
H748 C731 0.929 . S
H749 C732 0.929 . S
H750 C733 0.929 . S
H751 C734 0.931 . S
H752 C742 0.929 . S
H753 C743 0.929 . S
H754 C744 0.931 . S
H755 C745 0.929 . S
C756 C757 1.369 . S
C756 C758 1.419 . S
C756 H760 0.930 . S
C757 C756 1.369 . S
C757 C766 1.429 . S
C758 C756 1.419 . S
C758 C759 1.363 . S
C758 H761 0.929 . S
C759 C758 1.363 . S
C759 C765 1.428 . S
H760 C756 0.930 . S
H761 C758 0.929 . S
S762 N763 1.613 . S
S762 N764 1.610 . S
N763 S762 1.613 . S
N763 C766 1.350 . S
N764 S762 1.610 . S
N764 C765 1.351 . S
C765 C759 1.428 . S
C765 N764 1.351 . S
C765 C766 1.434 . S
C766 C757 1.429 . S
C766 N763 1.350 . S
C766 C765 1.434 . S
C767 C768 1.369 . S
C767 C769 1.419 . S
C767 H771 0.930 . S
C768 C767 1.369 . S
C768 C777 1.429 1_554 S
C769 C767 1.419 . S
C769 C770 1.363 1_554 S
C769 H772 0.929 . S
C770 C769 1.363 1_556 S
C770 C776 1.428 . S
H771 C767 0.930 . S
H772 C769 0.929 . S
S773 N774 1.613 . S
S773 N775 1.610 . S
N774 S773 1.613 . S
N774 C777 1.350 . S
N775 S773 1.610 . S
N775 C776 1.351 . S
C776 C770 1.428 . S
C776 N775 1.351 . S
C776 C777 1.434 . S
C777 C768 1.429 1_556 S
C777 N774 1.350 . S
C777 C776 1.434 . S
C778 C779 1.369 . S
C778 C780 1.419 . S
C778 H782 0.930 . S
C779 C778 1.369 . S
C779 C788 1.429 . S
C780 C778 1.419 . S
C780 C781 1.363 . S
C780 H783 0.929 . S
C781 C780 1.363 . S
C781 C787 1.428 . S
H782 C778 0.930 . S
H783 C780 0.929 . S
S784 N785 1.613 . S
S784 N786 1.610 . S
N785 S784 1.613 . S
N785 C788 1.350 . S
N786 S784 1.610 . S
N786 C787 1.351 . S
C787 C781 1.428 . S
C787 N786 1.351 . S
C787 C788 1.434 . S
C788 C779 1.429 . S
C788 N785 1.350 . S
C788 C787 1.434 . S
C789 C790 1.369 . S
C789 C791 1.419 1_556 S
C789 H793 0.930 . S
C790 C789 1.369 . S
C790 C799 1.429 1_556 S
C791 C789 1.419 1_554 S
C791 C792 1.363 . S
C791 H794 0.929 . S
C792 C791 1.363 . S
C792 C798 1.428 . S
H793 C789 0.930 . S
H794 C791 0.929 . S
S795 N796 1.613 . S
S795 N797 1.610 . S
N796 S795 1.613 . S
N796 C799 1.350 . S
N797 S795 1.610 . S
N797 C798 1.351 . S
C798 C792 1.428 . S
C798 N797 1.351 . S
C798 C799 1.434 . S
C799 C790 1.429 1_554 S
C799 N796 1.350 . S
C799 C798 1.434 . S
C800 C801 1.369 . S
C800 C802 1.419 . S
C800 H804 0.930 . S
C801 C800 1.369 . S
C801 C810 1.429 1_655 S
C802 C800 1.419 . S
C802 C803 1.363 . S
C802 H805 0.929 . S
C803 C802 1.363 . S
C803 C809 1.428 1_655 S
H804 C800 0.930 . S
H805 C802 0.929 . S
S806 N807 1.613 . S
S806 N808 1.610 . S
N807 S806 1.613 . S
N807 C810 1.350 . S
N808 S806 1.610 . S
N808 C809 1.351 . S
C809 C803 1.428 1_455 S
C809 N808 1.351 . S
C809 C810 1.434 . S
C810 C801 1.429 1_455 S
C810 N807 1.350 . S
C810 C809 1.434 . S
C811 C812 1.369 . S
C811 C813 1.419 . S
C811 H815 0.930 . S
C812 C811 1.369 . S
C812 C821 1.429 . S
C813 C811 1.419 . S
C813 C814 1.363 . S
C813 H816 0.929 . S
C814 C813 1.363 . S
C814 C820 1.428 . S
H815 C811 0.930 . S
H816 C813 0.929 . S
S817 N818 1.613 . S
S817 N819 1.610 . S
N818 S817 1.613 . S
N818 C821 1.350 . S
N819 S817 1.610 . S
N819 C820 1.351 . S
C820 C814 1.428 . S
C820 N819 1.351 . S
C820 C821 1.434 . S
C821 C812 1.429 . S
C821 N818 1.350 . S
C821 C820 1.434 . S
C822 C823 1.369 . S
C822 C824 1.419 . S
C822 H826 0.930 . S
C823 C822 1.369 . S
C823 C832 1.429 . S
C824 C822 1.419 . S
C824 C825 1.363 . S
C824 H827 0.929 . S
C825 C824 1.363 . S
C825 C831 1.428 . S
H826 C822 0.930 . S
H827 C824 0.929 . S
S828 N829 1.613 . S
S828 N830 1.610 . S
N829 S828 1.613 . S
N829 C832 1.350 . S
N830 S828 1.610 . S
N830 C831 1.351 . S
C831 C825 1.428 . S
C831 N830 1.351 . S
C831 C832 1.434 . S
C832 C823 1.429 . S
C832 N829 1.350 . S
C832 C831 1.434 . S
C833 C834 1.369 . S
C833 C835 1.419 . S
C833 H837 0.930 . S
C834 C833 1.369 . S
C834 C843 1.429 . S
C835 C833 1.419 . S
C835 C836 1.363 . S
C835 H838 0.929 . S
C836 C835 1.363 . S
C836 C842 1.428 . S
H837 C833 0.930 . S
H838 C835 0.929 . S
S839 N840 1.613 . S
S839 N841 1.610 . S
N840 S839 1.613 . S
N840 C843 1.350 . S
N841 S839 1.610 . S
N841 C842 1.351 . S
C842 C836 1.428 . S
C842 N841 1.351 . S
C842 C843 1.434 . S
C843 C834 1.429 . S
C843 N840 1.350 . S
C843 C842 1.434 . S
C844 C845 1.369 . S
C844 C846 1.419 . S
C844 H848 0.930 . S
C845 C844 1.369 . S
C845 C854 1.429 . S
C846 C844 1.419 . S
C846 C847 1.363 . S
C846 H849 0.929 . S
C847 C846 1.363 . S
C847 C853 1.428 . S
H848 C844 0.930 . S
H849 C846 0.929 . S
S850 N851 1.581 1_565 S
S850 N852 1.610 . S
N851 S850 1.581 1_545 S
N851 C854 1.370 . S
N852 S850 1.610 . S
N852 C853 1.351 1_565 S
C853 C847 1.428 . S
C853 N852 1.351 1_545 S
C853 C854 1.434 . S
C854 C845 1.429 . S
C854 N851 1.370 . S
C854 C853 1.434 . S
C855 C856 1.369 . S
C855 C857 1.419 . S
C855 H859 0.930 . S
C856 C855 1.369 . S
C856 C865 1.429 . S
C857 C855 1.419 . S
C857 C858 1.363 . S
C857 H860 0.929 . S
C858 C857 1.363 . S
C858 C864 1.428 . S
H859 C855 0.930 . S
H860 C857 0.929 . S
S861 N862 1.613 . S
S861 N863 1.610 . S
N862 S861 1.613 . S
N862 C865 1.350 . S
N863 S861 1.610 . S
N863 C864 1.351 . S
C864 C858 1.428 . S
C864 N863 1.351 . S
C864 C865 1.434 . S
C865 C856 1.429 . S
C865 N862 1.350 . S
C865 C864 1.434 . S
C866 C867 1.369 . S
C866 C868 1.429 . S
C866 H870 0.930 . S
C867 C866 1.369 . S
C867 C876 1.429 1_565 S
C868 C866 1.429 . S
C868 C869 1.355 1_565 S
C868 H871 0.927 . S
C869 C868 1.355 1_545 S
C869 C875 1.428 . S
H870 C866 0.930 . S
H871 C868 0.927 . S
S872 N873 1.613 . S
S872 N874 1.610 . S
N873 S872 1.613 . S
N873 C876 1.350 1_455 S
N874 S872 1.610 . S
N874 C875 1.351 1_455 S
C875 C869 1.428 . S
C875 N874 1.351 1_655 S
C875 C876 1.434 . S
C876 C867 1.429 1_545 S
C876 N873 1.350 1_655 S
C876 C875 1.434 . S
C877 C878 1.369 . S
C877 C879 1.419 1_554 S
C877 H881 0.930 1_554 S
C878 C877 1.369 . S
C878 C887 1.429 . S
C879 C877 1.419 1_556 S
C879 C880 1.363 1_556 S
C879 H882 0.929 . S
C880 C879 1.363 1_554 S
C880 C886 1.428 . S
H881 C877 0.930 1_556 S
H882 C879 0.929 . S
S883 N884 1.613 . S
S883 N885 1.610 . S
N884 S883 1.613 . S
N884 C887 1.350 . S
N885 S883 1.610 . S
N885 C886 1.351 . S
C886 C880 1.428 . S
C886 N885 1.351 . S
C886 C887 1.434 . S
C887 C878 1.429 . S
C887 N884 1.350 . S
C887 C886 1.434 . S
C888 C889 1.369 . S
C888 C890 1.419 1_556 S
C888 H892 0.930 . S
C889 C888 1.369 . S
C889 C898 1.429 . S
C890 C888 1.419 1_554 S
C890 C891 1.363 . S
C890 H893 0.929 . S
C891 C890 1.363 . S
C891 C897 1.428 . S
H892 C888 0.930 . S
H893 C890 0.929 . S
S894 N895 1.613 1_554 S
S894 N896 1.610 . S
N895 S894 1.613 1_556 S
N895 C898 1.350 . S
N896 S894 1.610 . S
N896 C897 1.351 . S
C897 C891 1.428 . S
C897 N896 1.351 . S
C897 C898 1.434 1_554 S
C898 C889 1.429 . S
C898 N895 1.350 . S
C898 C897 1.434 1_556 S
C899 C900 1.373 . S
C899 C901 1.419 1_554 S
C899 H903 0.930 . S
C900 C899 1.373 . S
C900 C909 1.423 1_554 S
C901 C899 1.419 1_556 S
C901 C902 1.363 . S
C901 H904 0.929 1_556 S
C902 C901 1.363 . S
C902 C908 1.428 . S
H903 C899 0.930 . S
H904 C901 0.929 1_554 S
S905 N906 1.613 . S
S905 N907 1.610 . S
N906 S905 1.613 . S
N906 C909 1.350 . S
N907 S905 1.610 . S
N907 C908 1.351 . S
C908 C902 1.428 . S
C908 N907 1.351 . S
C908 C909 1.434 . S
C909 C900 1.423 1_556 S
C909 N906 1.350 . S
C909 C908 1.434 . S
C910 C911 1.369 . S
C910 C912 1.419 . S
C910 H914 0.930 . S
C911 C910 1.369 . S
C911 C920 1.429 1_556 S
C912 C910 1.419 . S
C912 C913 1.363 . S
C912 H915 0.929 . S
C913 C912 1.363 . S
C913 C919 1.428 . S
H914 C910 0.930 . S
H915 C912 0.929 . S
S916 N917 1.613 . S
S916 N918 1.610 . S
N917 S916 1.613 . S
N917 C920 1.350 . S
N918 S916 1.610 . S
N918 C919 1.351 1_554 S
C919 C913 1.428 . S
C919 N918 1.351 1_556 S
C919 C920 1.434 1_556 S
C920 C911 1.429 1_554 S
C920 N917 1.350 . S
C920 C919 1.434 1_554 S
C921 C922 1.369 . S
C921 C923 1.419 . S
C921 H925 0.930 . S
C922 C921 1.369 . S
C922 C931 1.429 1_554 S
C923 C921 1.419 . S
C923 C924 1.363 1_554 S
C923 H926 0.929 . S
C924 C923 1.363 1_556 S
C924 C930 1.428 . S
H925 C921 0.930 . S
H926 C923 0.929 . S
S927 N928 1.613 . S
S927 N929 1.610 . S
N928 S927 1.613 . S
N928 C931 1.350 . S
N929 S927 1.610 . S
N929 C930 1.351 . S
C930 C924 1.428 . S
C930 N929 1.351 . S
C930 C931 1.434 . S
C931 C922 1.429 1_556 S
C931 N928 1.350 . S
C931 C930 1.434 . S
C932 C933 1.369 . S
C932 C934 1.419 . S
C932 H936 0.930 . S
C933 C932 1.369 . S
C933 C942 1.429 . S
C934 C932 1.419 . S
C934 C935 1.363 . S
C934 H937 0.929 . S
C935 C934 1.363 . S
C935 C941 1.428 1_556 S
H936 C932 0.930 . S
H937 C934 0.929 . S
S938 N939 1.613 . S
S938 N940 1.610 . S
N939 S938 1.613 . S
N939 C942 1.350 1_554 S
N940 S938 1.610 . S
N940 C941 1.351 . S
C941 C935 1.428 1_554 S
C941 N940 1.351 . S
C941 C942 1.434 1_554 S
C942 C933 1.429 . S
C942 N939 1.350 1_556 S
C942 C941 1.434 1_556 S
C943 C944 1.369 . S
C943 C945 1.419 . S
C943 H947 0.930 . S
C944 C943 1.369 . S
C944 C953 1.429 . S
C945 C943 1.419 . S
C945 C946 1.363 . S
C945 H948 0.929 . S
C946 C945 1.363 . S
C946 C952 1.428 . S
H947 C943 0.930 . S
H948 C945 0.929 . S
S949 N950 1.613 . S
S949 N951 1.610 . S
N950 S949 1.613 . S
N950 C953 1.350 . S
N951 S949 1.610 . S
N951 C952 1.351 . S
C952 C946 1.428 . S
C952 N951 1.351 . S
C952 C953 1.434 . S
C953 C944 1.429 . S
C953 N950 1.350 . S
C953 C952 1.434 . S
C954 C955 1.369 . S
C954 C956 1.419 . S
C954 H958 0.930 . S
C955 C954 1.369 . S
C955 C964 1.429 . S
C956 C954 1.419 . S
C956 C957 1.363 . S
C956 H959 0.929 . S
C957 C956 1.363 . S
C957 C963 1.428 . S
H958 C954 0.930 . S
H959 C956 0.929 . S
S960 N961 1.613 . S
S960 N962 1.610 . S
N961 S960 1.613 . S
N961 C964 1.350 . S
N962 S960 1.610 . S
N962 C963 1.351 . S
C963 C957 1.428 . S
C963 N962 1.351 . S
C963 C964 1.434 . S
C964 C955 1.429 . S
C964 N961 1.350 . S
C964 C963 1.434 . S
C965 C966 1.369 . S
C965 C967 1.419 . S
C965 H969 0.930 . S
C966 C965 1.369 . S
C966 C975 1.429 . S
C967 C965 1.419 . S
C967 C968 1.363 . S
C967 H970 0.929 . S
C968 C967 1.363 . S
C968 C974 1.428 . S
H969 C965 0.930 . S
H970 C967 0.929 . S
S971 N972 1.613 . S
S971 N973 1.610 . S
N972 S971 1.613 . S
N972 C975 1.350 . S
N973 S971 1.610 . S
N973 C974 1.351 . S
C974 C968 1.428 . S
C974 N973 1.351 . S
C974 C975 1.434 . S
C975 C966 1.429 . S
C975 N972 1.350 . S
C975 C974 1.434 . S
C976 C977 1.364 1_565 S
C976 C978 1.408 1_565 S
C976 H980 0.948 . S
C977 C976 1.364 1_545 S
C977 C986 1.429 . S
C978 C976 1.408 1_545 S
C978 C979 1.363 . S
C978 H981 0.929 1_545 S
C979 C978 1.363 . S
C979 C985 1.428 . S
H980 C976 0.948 . S
H981 C978 0.929 1_565 S
S982 N983 1.613 . S
S982 N984 1.610 . S
N983 S982 1.613 . S
N983 C986 1.350 . S
N984 S982 1.610 . S
N984 C985 1.351 . S
C985 C979 1.428 . S
C985 N984 1.351 . S
C985 C986 1.434 . S
C986 C977 1.429 . S
C986 N983 1.350 . S
C986 C985 1.434 . S
C987 C988 1.369 . S
C987 C989 1.419 . S
C987 H991 0.930 . S
C988 C987 1.369 . S
C988 C997 1.429 . S
C989 C987 1.419 . S
C989 C990 1.363 . S
C989 H992 0.929 . S
C990 C989 1.363 . S
C990 C996 1.428 . S
H991 C987 0.930 . S
H992 C989 0.929 . S
S993 N994 1.613 . S
S993 N995 1.610 . S
N994 S993 1.613 . S
N994 C997 1.350 . S
N995 S993 1.610 . S
N995 C996 1.351 . S
C996 C990 1.428 . S
C996 N995 1.351 . S
C996 C997 1.434 . S
C997 C988 1.429 . S
C997 N994 1.350 . S
C997 C996 1.434 . S
C998 C999 1.369 . S
C998 C1000 1.419 . S
C998 H1002 0.930 . S
C999 C998 1.369 . S
C999 C1008 1.429 . S
C1000 C998 1.419 . S
C1000 C1001 1.363 . S
C1000 H1003 0.929 . S
C1001 C1000 1.363 . S
C1001 C1007 1.428 . S
H1002 C998 0.930 . S
H1003 C1000 0.929 . S
S1004 N1005 1.613 . S
S1004 N1006 1.610 . S
N1005 S1004 1.613 . S
N1005 C1008 1.350 . S
N1006 S1004 1.610 . S
N1006 C1007 1.351 . S
C1007 C1001 1.428 . S
C1007 N1006 1.351 . S
C1007 C1008 1.434 . S
C1008 C999 1.429 . S
C1008 N1005 1.350 . S
C1008 C1007 1.434 . S
C1009 C1010 1.369 . S
C1009 C1011 1.419 . S
C1009 H1013 0.930 . S
C1010 C1009 1.369 . S
C1010 C1019 1.429 . S
C1011 C1009 1.419 . S
C1011 C1012 1.363 . S
C1011 H1014 0.929 . S
C1012 C1011 1.363 . S
C1012 C1018 1.428 . S
H1013 C1009 0.930 . S
H1014 C1011 0.929 . S
S1015 N1016 1.613 . S
S1015 N1017 1.610 . S
N1016 S1015 1.613 . S
N1016 C1019 1.350 . S
N1017 S1015 1.610 . S
N1017 C1018 1.351 . S
C1018 C1012 1.428 . S
C1018 N1017 1.351 . S
C1018 C1019 1.434 . S
C1019 C1010 1.429 . S
C1019 N1016 1.350 . S
C1019 C1018 1.434 . S
C1020 C1021 1.369 . S
C1020 C1022 1.419 . S
C1020 H1024 0.930 . S
C1021 C1020 1.369 . S
C1021 C1030 1.429 . S
C1022 C1020 1.419 . S
C1022 C1023 1.363 . S
C1022 H1025 0.929 . S
C1023 C1022 1.363 . S
C1023 C1029 1.428 . S
H1024 C1020 0.930 . S
H1025 C1022 0.929 . S
S1026 N1027 1.613 . S
S1026 N1028 1.610 . S
N1027 S1026 1.613 . S
N1027 C1030 1.350 . S
N1028 S1026 1.610 . S
N1028 C1029 1.351 . S
C1029 C1023 1.428 . S
C1029 N1028 1.351 . S
C1029 C1030 1.434 . S
C1030 C1021 1.429 . S
C1030 N1027 1.350 . S
C1030 C1029 1.434 . S
C1031 C1032 1.369 . S
C1031 C1033 1.419 . S
C1031 H1035 0.930 . S
C1032 C1031 1.369 . S
C1032 C1041 1.429 . S
C1033 C1031 1.419 . S
C1033 C1034 1.363 . S
C1033 H1036 0.929 . S
C1034 C1033 1.363 . S
C1034 C1040 1.428 . S
H1035 C1031 0.930 . S
H1036 C1033 0.929 . S
S1037 N1038 1.613 . S
S1037 N1039 1.610 . S
N1038 S1037 1.613 . S
N1038 C1041 1.350 . S
N1039 S1037 1.610 . S
N1039 C1040 1.351 . S
C1040 C1034 1.428 . S
C1040 N1039 1.351 . S
C1040 C1041 1.434 . S
C1041 C1032 1.429 . S
C1041 N1038 1.350 . S
C1041 C1040 1.434 . S
C1042 C1043 1.369 . S
C1042 C1044 1.419 . S
C1042 H1046 0.930 . S
C1043 C1042 1.369 . S
C1043 C1052 1.429 . S
C1044 C1042 1.419 . S
C1044 C1045 1.363 . S
C1044 H1047 0.929 . S
C1045 C1044 1.363 . S
C1045 C1051 1.428 . S
H1046 C1042 0.930 . S
H1047 C1044 0.929 . S
S1048 N1049 1.613 . S
S1048 N1050 1.610 . S
N1049 S1048 1.613 . S
N1049 C1052 1.350 . S
N1050 S1048 1.610 . S
N1050 C1051 1.351 . S
C1051 C1045 1.428 . S
C1051 N1050 1.351 . S
C1051 C1052 1.434 . S
C1052 C1043 1.429 . S
C1052 N1049 1.350 . S
C1052 C1051 1.434 . S
C757 C69 1.206 . S
C759 C657 1.264 . S
C768 C140 2.278 . S
C770 C728 2.295 . S
C779 C237 1.228 . S
C781 C560 1.511 . S
C790 C392 2.539 . S
C792 C224 2.569 . S
C801 C476 2.392 . S
C803 C56 2.373 1_655 S
C812 C153 1.910 . S
C814 C308 2.208 . S
C823 C644 1.817 . S
C825 C489 1.684 . S
C834 C741 1.340 . S
C836 C321 1.372 . S
C845 C405 1.962 . S
C847 C573 2.019 . S
C856 C226 1.533 . S
C858 C67 1.940 . S
C867 C142 1.407 . S
C869 C58 1.452 . S
C878 C151 3.078 1_455 S
C880 C235 3.119 1_554 S
C889 C310 1.711 . S
C891 C487 2.276 . S
C900 C319 2.130 . S
C902 C394 1.692 . S
C911 C403 2.227 1_556 S
C913 C478 1.619 . S
C922 C730 1.835 . S
C924 C571 2.446 . S
C933 C646 0.876 . S
C935 C562 0.971 . S
C944 C739 2.138 . S
C946 C655 2.130 . S
C955 C74 1.510 . S
C957 C63 1.505 . S
C966 C147 1.561 . S
C968 C158 1.555 . S
C977 C242 1.624 . S
C979 C231 1.631 . S
C988 C326 1.534 . S
C990 C315 1.539 . S
C999 C410 1.545 . S
C1001 C399 1.542 . S
C1010 C494 1.557 . S
C1012 C483 1.566 . S
C1021 C578 1.525 . S
C1023 C567 1.522 . S
C1032 C662 1.507 . S
C1034 C651 1.501 . S
C1043 C746 1.557 . S
C1045 C735 1.551 . S
