# Generated by pormake.
# Topology zfb, (5)-cn, num edge types: 1
# Building blocks:
#     Node 0, Type 0, BuildingBlock: BEQFEK_clean_sbu_0, # of connection points: 5
#     Node 1, Type 0, BuildingBlock: BEQFEK_clean_sbu_0, # of connection points: 5
#     Node 2, Type 0, BuildingBlock: BEQFEK_clean_sbu_0, # of connection points: 5
#     Node 3, Type 0, BuildingBlock: BEQFEK_clean_sbu_0, # of connection points: 5
#     Node 4, Type 0, BuildingBlock: BEQFEK_clean_sbu_0, # of connection points: 5
#     Node 5, Type 0, BuildingBlock: BEQFEK_clean_sbu_0, # of connection points: 5
#     Node 6, Type 0, BuildingBlock: BEQFEK_clean_sbu_0, # of connection points: 5
#     Node 7, Type 0, BuildingBlock: BEQFEK_clean_sbu_0, # of connection points: 5
#     Edge 8, Type (0, 0), BuildingBlock: UVAHIK_clean_linker_0, # of connection points: 2
#     Edge 9, Type (0, 0), BuildingBlock: UVAHIK_clean_linker_0, # of connection points: 2
#     Edge 10, Type (0, 0), BuildingBlock: UVAHIK_clean_linker_0, # of connection points: 2
#     Edge 11, Type (0, 0), BuildingBlock: UVAHIK_clean_linker_0, # of connection points: 2
#     Edge 12, Type (0, 0), BuildingBlock: UVAHIK_clean_linker_0, # of connection points: 2
#     Edge 13, Type (0, 0), BuildingBlock: UVAHIK_clean_linker_0, # of connection points: 2
#     Edge 14, Type (0, 0), BuildingBlock: UVAHIK_clean_linker_0, # of connection points: 2
#     Edge 15, Type (0, 0), BuildingBlock: UVAHIK_clean_linker_0, # of connection points: 2
#     Edge 16, Type (0, 0), BuildingBlock: UVAHIK_clean_linker_0, # of connection points: 2
#     Edge 17, Type (0, 0), BuildingBlock: UVAHIK_clean_linker_0, # of connection points: 2
#     Edge 18, Type (0, 0), BuildingBlock: UVAHIK_clean_linker_0, # of connection points: 2
#     Edge 19, Type (0, 0), BuildingBlock: UVAHIK_clean_linker_0, # of connection points: 2
#     Edge 20, Type (0, 0), BuildingBlock: UVAHIK_clean_linker_0, # of connection points: 2
#     Edge 21, Type (0, 0), BuildingBlock: UVAHIK_clean_linker_0, # of connection points: 2
#     Edge 22, Type (0, 0), BuildingBlock: UVAHIK_clean_linker_0, # of connection points: 2
#     Edge 23, Type (0, 0), BuildingBlock: UVAHIK_clean_linker_0, # of connection points: 2
#     Edge 24, Type (0, 0), BuildingBlock: UVAHIK_clean_linker_0, # of connection points: 2
#     Edge 25, Type (0, 0), BuildingBlock: UVAHIK_clean_linker_0, # of connection points: 2
#     Edge 26, Type (0, 0), BuildingBlock: UVAHIK_clean_linker_0, # of connection points: 2
#     Edge 27, Type (0, 0), BuildingBlock: UVAHIK_clean_linker_0, # of connection points: 2
# Relax obj value: 0.125
# Max RMSD: 0.143
# Mean RMSD: 0.143
data_MOF--net-zfb--node1-BEQFEK_clean_sbu_0--edge1-UVAHIK_clean_linker_0
_symmetry_space_group_name_H-M    P1
_symmetry_Int_Tables_number       1
_symmetry_cell_setting            triclinic
loop_
_symmetry_equiv_pos_as_xyz
'x, y, z'
_cell_length_a     38.840273
_cell_length_b     38.759741
_cell_length_c     47.664537
_cell_angle_alpha  90.017685
_cell_angle_beta   89.999814
_cell_angle_gamma 89.988939
loop_
_atom_site_label
_atom_site_type_symbol
_atom_site_fract_x
_atom_site_fract_y
_atom_site_fract_z
_atom_type_partial_charge
Co0 Co 0.19709 0.35336 0.06169 0.0
Co1 Co 0.20793 0.35818 0.99642 0.0
C2 C 0.14383 0.38473 0.02432 0.0
O3 O 0.15441 0.3754 0.04846 0.0
O4 O 0.16174 0.37946 0.00229 0.0
C5 C 0.17848 0.36621 0.11801 0.0
O6 O 0.16743 0.39499 0.10657 0.0
C7 C 0.19473 0.34793 0.93623 0.0
C8 C 0.24725 0.3522 0.9187 0.0
C9 C 0.21326 0.3462 0.91136 0.0
N10 N 0.21683 0.35461 0.95725 0.0
N11 N 0.24811 0.35748 0.94658 0.0
C12 C 0.15727 0.34065 0.94048 0.0
H13 H 0.14251 0.36491 0.93762 0.0
H14 H 0.15262 0.33104 0.96209 0.0
H15 H 0.14793 0.32142 0.92499 0.0
C16 C 0.20056 0.27888 0.04835 0.0
N17 N 0.20434 0.31224 0.04105 0.0
N18 N 0.21032 0.31421 0.01393 0.0
C19 C 0.21187 0.28204 0.00327 0.0
C20 C 0.20518 0.2585 0.0246 0.0
C21 C 0.18815 0.26753 0.07662 0.0
H22 H 0.16836 0.28577 0.08445 0.0
H23 H 0.17693 0.24124 0.076 0.0
H24 H 0.21008 0.26784 0.09155 0.0
O25 O 0.2346 0.3879 0.05746 0.0
O26 O 0.24228 0.39049 0.01145 0.0
H27 H 0.24051 0.29141 0.96559 0.0
H28 H 0.22879 0.24697 0.97073 0.0
C29 C 0.21996 0.27401 0.97326 0.0
H30 H 0.1966 0.27802 0.96029 0.0
H31 H 0.27016 0.36235 0.95845 0.0
O32 O 0.19256 0.34359 0.10246 0.0
C33 C 0.24969 0.40058 0.0361 0.0
Co34 Co 0.63979 0.20678 0.57011 0.0
Co35 Co 0.63309 0.21356 0.50442 0.0
C36 C 0.60901 0.15057 0.53437 0.0
O37 O 0.61843 0.16261 0.55806 0.0
O38 O 0.61348 0.16749 0.51176 0.0
C39 C 0.66211 0.17581 0.62191 0.0
O40 O 0.66916 0.14925 0.60577 0.0
C41 C 0.63891 0.19986 0.44355 0.0
C42 C 0.62874 0.25176 0.42618 0.0
C43 C 0.63555 0.21799 0.41865 0.0
N44 N 0.63441 0.22203 0.46497 0.0
N45 N 0.62839 0.25298 0.4544 0.0
C46 C 0.64373 0.16178 0.44693 0.0
H47 H 0.61861 0.14875 0.44367 0.0
H48 H 0.6532 0.1556 0.46829 0.0
H49 H 0.662 0.15169 0.43105 0.0
C50 C 0.71362 0.21862 0.55541 0.0
N51 N 0.68004 0.21615 0.54847 0.0
N52 N 0.67715 0.2179 0.52098 0.0
C53 C 0.70868 0.22102 0.50953 0.0
C54 C 0.73293 0.22166 0.53096 0.0
C55 C 0.72685 0.21824 0.58488 0.0
H56 H 0.70886 0.23233 0.59884 0.0
H57 H 0.72866 0.19115 0.59222 0.0
H58 H 0.75275 0.23024 0.5862 0.0
O59 O 0.604 0.24292 0.56587 0.0
O60 O 0.60068 0.24786 0.5196 0.0
H61 H 0.70406 0.24249 0.46835 0.0
H62 H 0.74309 0.21777 0.47348 0.0
C63 C 0.71534 0.21942 0.4786 0.0
H64 H 0.70265 0.19626 0.46986 0.0
H65 H 0.6236 0.27492 0.46649 0.0
O66 O 0.65022 0.20319 0.61087 0.0
C67 C 0.59093 0.25657 0.54405 0.0
Co68 Co 0.79523 0.64166 0.06085 0.0
Co69 Co 0.79176 0.63835 0.99496 0.0
C70 C 0.85349 0.61348 0.02567 0.0
O71 O 0.83995 0.62083 0.04932 0.0
O72 O 0.83786 0.61954 0.00271 0.0
C73 C 0.82285 0.66124 0.11499 0.0
O74 O 0.85036 0.67013 0.10067 0.0
C75 C 0.8071 0.64888 0.93488 0.0
C76 C 0.75786 0.63261 0.91569 0.0
C77 C 0.79074 0.64385 0.90937 0.0
N78 N 0.78478 0.64098 0.95546 0.0
N79 N 0.75536 0.63148 0.94382 0.0
C80 C 0.84406 0.65802 0.93956 0.0
H81 H 0.86043 0.63567 0.93373 0.0
H82 H 0.8487 0.6647 0.96187 0.0
H83 H 0.85155 0.68004 0.92602 0.0
C84 C 0.78487 0.71654 0.0483 0.0
N85 N 0.78686 0.68317 0.04037 0.0
N86 N 0.78591 0.68158 0.01276 0.0
C87 C 0.78364 0.71378 0.00233 0.0
C88 C 0.78317 0.73692 0.02443 0.0
C89 C 0.78759 0.72887 0.07794 0.0
H90 H 0.81493 0.72789 0.08459 0.0
H91 H 0.77836 0.75584 0.08006 0.0
H92 H 0.77238 0.71185 0.09193 0.0
O93 O 0.75883 0.60653 0.05455 0.0
O94 O 0.75806 0.60427 0.00817 0.0
H95 H 0.77576 0.74981 0.96823 0.0
H96 H 0.80887 0.71794 0.96268 0.0
C97 C 0.78299 0.72245 0.97174 0.0
H98 H 0.76427 0.70563 0.96076 0.0
H99 H 0.73377 0.62347 0.9551 0.0
O100 O 0.7967 0.6496 0.10205 0.0
C101 C 0.74733 0.59371 0.03183 0.0
Co102 Co 0.3595 0.79741 0.56965 0.0
Co103 Co 0.36366 0.79215 0.50386 0.0
C104 C 0.38607 0.85559 0.53244 0.0
O105 O 0.37885 0.84215 0.55617 0.0
O106 O 0.38088 0.83939 0.50956 0.0
C107 C 0.36922 0.81965 0.62573 0.0
O108 O 0.3964 0.83417 0.61434 0.0
C109 C 0.35883 0.79996 0.44201 0.0
C110 C 0.35418 0.74517 0.42962 0.0
C111 C 0.35496 0.77837 0.41893 0.0
N112 N 0.3602 0.78023 0.46521 0.0
N113 N 0.35772 0.74755 0.45759 0.0
C114 C 0.35828 0.83856 0.44242 0.0
H115 H 0.38502 0.84831 0.44034 0.0
H116 H 0.34762 0.84807 0.46257 0.0
H117 H 0.34269 0.84883 0.42479 0.0
C118 C 0.28569 0.7835 0.55699 0.0
N119 N 0.3189 0.78684 0.5492 0.0
N120 N 0.32071 0.7862 0.52165 0.0
C121 C 0.28882 0.78312 0.51097 0.0
C122 C 0.26548 0.78095 0.53297 0.0
C123 C 0.27378 0.78334 0.58683 0.0
H124 H 0.29178 0.76789 0.59982 0.0
H125 H 0.27388 0.81017 0.59496 0.0
H126 H 0.24742 0.77254 0.58872 0.0
O127 O 0.39593 0.76178 0.56523 0.0
O128 O 0.39856 0.7605 0.51884 0.0
H129 H 0.28659 0.76223 0.46948 0.0
H130 H 0.25325 0.79346 0.47679 0.0
C131 C 0.28065 0.7868 0.4804 0.0
H132 H 0.29672 0.80747 0.47118 0.0
H133 H 0.35783 0.72688 0.4716 0.0
O134 O 0.34908 0.80209 0.6103 0.0
C135 C 0.40931 0.75044 0.54265 0.0
Co136 Co 0.69428 0.14343 0.97964 0.0
Co137 Co 0.70569 0.13646 0.04483 0.0
C138 C 0.64094 0.11173 0.01635 0.0
O139 O 0.65116 0.12165 0.99228 0.0
O140 O 0.65933 0.11612 0.03823 0.0
C141 C 0.67316 0.13562 0.92272 0.0
O142 O 0.65633 0.10934 0.93341 0.0
C143 C 0.69224 0.14768 0.1049 0.0
C144 C 0.73934 0.12598 0.12405 0.0
C145 C 0.70786 0.14074 0.1304 0.0
N146 N 0.71363 0.13757 0.08429 0.0
N147 N 0.74179 0.12479 0.0959 0.0
C148 C 0.6565 0.1608 0.10018 0.0
H149 H 0.63776 0.14087 0.10698 0.0
H150 H 0.65228 0.16679 0.07767 0.0
H151 H 0.6519 0.18424 0.11299 0.0
C152 C 0.69943 0.21728 0.99459 0.0
N153 N 0.70237 0.18367 0.00128 0.0
N154 N 0.70892 0.18084 0.02827 0.0
C155 C 0.71185 0.21266 0.0394 0.0
C156 C 0.70537 0.23691 0.01856 0.0
C157 C 0.68667 0.22971 0.96672 0.0
H158 H 0.66721 0.21151 0.95833 0.0
H159 H 0.67491 0.25571 0.96826 0.0
H160 H 0.70856 0.23067 0.95178 0.0
O161 O 0.73124 0.10821 0.98326 0.0
O162 O 0.73971 0.10436 0.02912 0.0
H163 H 0.73958 0.19976 0.07696 0.0
H164 H 0.73361 0.24546 0.07143 0.0
C165 C 0.72143 0.21969 0.06928 0.0
H166 H 0.69795 0.2191 0.08248 0.0
H167 H 0.7624 0.11452 0.08459 0.0
O168 O 0.69106 0.15458 0.9389 0.0
C169 C 0.74662 0.09488 0.00422 0.0
Co170 Co 0.85713 0.7012 0.4706 0.0
Co171 Co 0.86536 0.71298 0.53557 0.0
C172 C 0.88732 0.64694 0.50733 0.0
O173 O 0.87749 0.65716 0.48321 0.0
O174 O 0.8839 0.66587 0.52904 0.0
C175 C 0.83865 0.67056 0.41698 0.0
O176 O 0.83591 0.64162 0.43115 0.0
C177 C 0.85651 0.70062 0.59603 0.0
C178 C 0.87777 0.74876 0.6139 0.0
C179 C 0.86399 0.71708 0.6211 0.0
N180 N 0.8654 0.72172 0.57487 0.0
N181 N 0.87793 0.75051 0.58571 0.0
C182 C 0.84408 0.6644 0.59217 0.0
H183 H 0.86476 0.64624 0.59848 0.0
H184 H 0.83705 0.65961 0.56994 0.0
H185 H 0.82146 0.65942 0.60577 0.0
C186 C 0.78344 0.70982 0.48647 0.0
N187 N 0.81732 0.71143 0.49254 0.0
N188 N 0.82104 0.7176 0.51954 0.0
C189 C 0.78975 0.7211 0.53133 0.0
C190 C 0.7648 0.71566 0.51097 0.0
C191 C 0.76977 0.69803 0.45872 0.0
H192 H 0.77975 0.67181 0.45426 0.0
H193 H 0.74128 0.69712 0.45821 0.0
H194 H 0.77922 0.71551 0.44198 0.0
O195 O 0.89409 0.73664 0.47377 0.0
O196 O 0.898 0.74589 0.5195 0.0
H197 H 0.8034 0.74777 0.56922 0.0
H198 H 0.75779 0.74058 0.56487 0.0
C199 C 0.78374 0.72927 0.56164 0.0
H200 H 0.78564 0.70525 0.57415 0.0
H201 H 0.8873 0.77108 0.57383 0.0
O202 O 0.84628 0.69826 0.42985 0.0
C203 C 0.90777 0.752 0.49458 0.0
Co204 Co 0.29425 0.85511 0.9784 0.0
Co205 Co 0.28857 0.85611 0.04419 0.0
C206 C 0.35076 0.88318 0.0158 0.0
O207 O 0.33799 0.87618 0.99181 0.0
O208 O 0.33464 0.87626 0.03838 0.0
C209 C 0.31485 0.86795 0.92227 0.0
O210 O 0.32801 0.89564 0.93401 0.0
C211 C 0.30143 0.84652 0.10463 0.0
C212 C 0.2482 0.84473 0.121 0.0
C213 C 0.28239 0.84275 0.12908 0.0
N214 N 0.27941 0.8506 0.08313 0.0
N215 N 0.24768 0.84978 0.09309 0.0
C216 C 0.33964 0.84375 0.1013 0.0
H217 H 0.35119 0.86979 0.10355 0.0
H218 H 0.34617 0.83369 0.08017 0.0
H219 H 0.35081 0.82661 0.11758 0.0
C220 C 0.28663 0.78004 0.98873 0.0
N221 N 0.28645 0.81304 0.99768 0.0
N222 N 0.2848 0.81343 0.02525 0.0
C223 C 0.28408 0.78071 0.03474 0.0
C224 C 0.28532 0.75853 0.01197 0.0
C225 C 0.29164 0.76957 0.95881 0.0
H226 H 0.31694 0.7792 0.95136 0.0
H227 H 0.29063 0.74113 0.95624 0.0
H228 H 0.27142 0.78174 0.94567 0.0
O229 O 0.25693 0.8895 0.98429 0.0
O230 O 0.25483 0.89013 0.03073 0.0
H231 H 0.28137 0.74251 0.06793 0.0
H232 H 0.30766 0.77991 0.07525 0.0
C233 C 0.28364 0.77082 0.0651 0.0
H234 H 0.26155 0.78346 0.07562 0.0
H235 H 0.22562 0.85217 0.08074 0.0
O236 O 0.29862 0.84648 0.93747 0.0
C237 C 0.24468 0.90144 0.0071 0.0
Co238 Co 0.14205 0.29959 0.47192 0.0
Co239 Co 0.13632 0.2893 0.53739 0.0
C240 C 0.11277 0.35423 0.51084 0.0
O241 O 0.12161 0.34299 0.48672 0.0
O242 O 0.11733 0.33634 0.53298 0.0
C243 C 0.13355 0.3249 0.41635 0.0
O244 O 0.10702 0.34029 0.42801 0.0
C245 C 0.13926 0.29512 0.59947 0.0
C246 C 0.14692 0.24037 0.61089 0.0
C247 C 0.14384 0.27314 0.62221 0.0
N248 N 0.13963 0.27606 0.57586 0.0
N249 N 0.14391 0.24337 0.58291 0.0
C250 C 0.13758 0.33369 0.59983 0.0
H251 H 0.14888 0.34442 0.58033 0.0
H252 H 0.15147 0.34432 0.61824 0.0
H253 H 0.11022 0.34182 0.60097 0.0
C254 C 0.21573 0.28844 0.48509 0.0
N255 N 0.18228 0.28871 0.49255 0.0
N256 N 0.18001 0.28611 0.51999 0.0
C257 C 0.21192 0.28485 0.53098 0.0
C258 C 0.23574 0.2861 0.50923 0.0
C259 C 0.22801 0.2915 0.45544 0.0
H260 H 0.2116 0.27552 0.44151 0.0
H261 H 0.2257 0.31877 0.44859 0.0
H262 H 0.25519 0.28308 0.45335 0.0
O263 O 0.10593 0.26382 0.47474 0.0
O264 O 0.1024 0.2573 0.52084 0.0
H265 H 0.21454 0.26237 0.57188 0.0
H266 H 0.24604 0.2959 0.56603 0.0
C267 C 0.21922 0.28771 0.56176 0.0
H268 H 0.20167 0.30692 0.57129 0.0
H269 H 0.1454 0.22315 0.5685 0.0
O270 O 0.15283 0.30596 0.43142 0.0
C271 C 0.09226 0.2499 0.49619 0.0
C272 C 0.21413 0.94904 0.98129 0.0
C273 C 0.22303 0.93293 0.00669 0.0
C274 C 0.20088 0.98264 0.98124 0.0
C275 C 0.17293 0.0548 0.02929 0.0
H276 H 0.21557 0.11173 0.97213 0.0
C277 C 0.21388 0.19791 0.04156 0.0
C278 C 0.19983 0.2208 0.02181 0.0
C279 C 0.20909 0.16235 0.03866 0.0
C280 C 0.2032 0.09605 0.98802 0.0
H281 H 0.22191 0.93836 0.05204 0.0
H282 H 0.20054 0.99667 0.05193 0.0
H283 H 0.21848 0.0492 0.96817 0.0
H284 H 0.16877 0.22451 0.9841 0.0
H285 H 0.16225 0.16212 0.97817 0.0
H286 H 0.16024 0.10227 0.05011 0.0
C287 C 0.203 0.98364 0.03195 0.0
C288 C 0.20451 0.06015 0.98568 0.0
C289 C 0.21564 0.94999 0.03202 0.0
C290 C 0.18065 0.20745 0.99925 0.0
C291 C 0.17658 0.17188 0.99599 0.0
C292 C 0.17239 0.09071 0.03193 0.0
C293 C 0.19674 0.001 0.00655 0.0
C294 C 0.19012 0.03895 0.00664 0.0
C295 C 0.19077 0.14911 0.01567 0.0
C296 C 0.18808 0.1115 0.01157 0.0
H297 H 0.21908 0.93646 0.9614 0.0
H298 H 0.19535 0.99472 0.96126 0.0
H299 H 0.16074 0.03952 0.04548 0.0
H300 H 0.22899 0.20749 0.059 0.0
H301 H 0.22052 0.14509 0.05393 0.0
C302 C 0.03786 0.23818 0.47015 0.0
C303 C 0.05932 0.23116 0.49321 0.0
C304 C 0.00281 0.23033 0.47137 0.0
C305 C 0.93321 0.18466 0.50634 0.0
H306 H 0.88652 0.27312 0.50646 0.0
C307 C 0.79138 0.19777 0.5418 0.0
C308 C 0.77083 0.22217 0.52794 0.0
C309 C 0.8269 0.19664 0.53706 0.0
C310 C 0.89877 0.24805 0.50594 0.0
H311 H 0.06188 0.20644 0.53399 0.0
H312 H 0.00067 0.19185 0.53564 0.0
H313 H 0.94745 0.27035 0.4954 0.0
H314 H 0.77116 0.26529 0.49914 0.0
H315 H 0.83248 0.26225 0.48949 0.0
H316 H 0.88442 0.16208 0.51612 0.0
C317 C 0.01094 0.20396 0.51694 0.0
C318 C 0.93378 0.24655 0.49967 0.0
C319 C 0.04592 0.21235 0.51597 0.0
C320 C 0.78645 0.24595 0.50982 0.0
C321 C 0.82174 0.2444 0.5046 0.0
C322 C 0.89785 0.18601 0.51201 0.0
C323 C 0.98887 0.21464 0.49533 0.0
C324 C 0.9513 0.21492 0.4999 0.0
C325 C 0.84252 0.21962 0.51803 0.0
C326 C 0.88017 0.21781 0.51201 0.0
H327 H 0.04733 0.25265 0.4523 0.0
H328 H 0.98617 0.23859 0.4544 0.0
H329 H 0.94637 0.16002 0.50679 0.0
H330 H 0.7799 0.17901 0.5558 0.0
H331 H 0.84202 0.17768 0.54829 0.0
C332 C 0.78445 0.04828 0.02332 0.0
C333 C 0.76741 0.06324 1.00029 0.0
C334 C 0.79519 0.01391 0.0223 0.0
C335 C 0.76341 0.93556 0.99118 0.0
H336 H 0.84193 0.89196 0.02683 0.0
C337 C 0.81558 0.78941 0.01021 0.0
C338 C 0.78622 0.77467 0.02246 0.0
C339 C 0.81772 0.82509 0.00648 0.0
C340 C 0.81998 0.90386 0.01668 0.0
H341 H 0.75206 0.0551 0.95699 0.0
H342 H 0.7708 0.99511 0.95532 0.0
H343 H 0.84185 0.95463 0.01938 0.0
H344 H 0.7363 0.78489 0.0407 0.0
H345 H 0.73968 0.84757 0.03383 0.0
H346 H 0.74104 0.88517 0.98924 0.0
C347 C 0.77533 0.00987 0.97427 0.0
C348 C 0.81993 0.93959 0.01245 0.0
C349 C 0.76482 0.04432 0.9752 0.0
C350 C 0.75919 0.79594 0.03131 0.0
C351 C 0.76108 0.83158 0.02722 0.0
C352 C 0.76326 0.90005 0.99575 0.0
C353 C 0.78896 0.99389 0.99828 0.0
C354 C 0.79149 0.9558 0.99985 0.0
C355 C 0.79023 0.84642 0.01453 0.0
C356 C 0.79132 0.88392 0.00884 0.0
H357 H 0.78717 0.06226 0.04288 0.0
H358 H 0.80569 0.00228 0.04112 0.0
H359 H 0.74088 0.94738 0.98183 0.0
H360 H 0.83666 0.77323 0.00321 0.0
H361 H 0.84036 0.83589 0.99653 0.0
C362 C 0.96227 0.76252 0.46839 0.0
C363 C 0.94041 0.77101 0.49085 0.0
C364 C 0.99731 0.77043 0.46975 0.0
C365 C 0.06614 0.81712 0.50616 0.0
H366 H 0.11259 0.72853 0.50629 0.0
C367 C 0.20653 0.80278 0.54504 0.0
C368 C 0.22759 0.77942 0.5305 0.0
C369 C 0.17106 0.80375 0.53988 0.0
C370 C 0.10039 0.75364 0.50582 0.0
H371 H 0.93699 0.79859 0.53036 0.0
H372 H -0.00189 0.81311 0.53231 0.0
H373 H 0.05221 0.7317 0.49351 0.0
H374 H 0.22829 0.73798 0.50009 0.0
H375 H 0.1671 0.74056 0.49005 0.0
H376 H 0.11449 0.83927 0.51793 0.0
C377 C 0.98827 0.79983 0.51398 0.0
C378 C 0.06571 0.75539 0.4985 0.0
C379 C 0.95331 0.79147 0.51285 0.0
C380 C 0.21255 0.75636 0.51145 0.0
C381 C 0.17736 0.75769 0.50592 0.0
C382 C 0.10117 0.81551 0.51297 0.0
C383 C 0.01081 0.78754 0.49328 0.0
C384 C 0.04826 0.78708 0.49865 0.0
C385 C 0.15611 0.78163 0.51984 0.0
C386 C 0.11873 0.78366 0.51299 0.0
H387 H 0.95315 0.7468 0.45113 0.0
H388 H 0.01427 0.76102 0.4534 0.0
H389 H 0.05306 0.8418 0.50662 0.0
H390 H 0.21758 0.82104 0.55968 0.0
H391 H 0.15549 0.82205 0.55143 0.0
C392 C 0.71581 0.54734 0.05824 0.0
C393 C 0.72563 0.56232 0.03261 0.0
C394 C 0.70227 0.51389 0.05893 0.0
C395 C 0.67487 0.44024 0.01242 0.0
H396 H 0.71696 0.38512 0.07102 0.0
C397 C 0.71487 0.29734 0.00169 0.0
C398 C 0.7014 0.2747 0.02188 0.0
C399 C 0.71038 0.33293 0.0045 0.0
C400 C 0.70471 0.4003 0.05475 0.0
H401 H 0.72588 0.55508 0.98742 0.0
H402 H 0.7039 0.49699 0.98866 0.0
H403 H 0.7197 0.44777 0.07375 0.0
H404 H 0.67214 0.27151 0.06057 0.0
H405 H 0.66617 0.33397 0.06629 0.0
H406 H 0.66244 0.39219 0.99247 0.0
C407 C 0.7059 0.51083 0.00832 0.0
C408 C 0.70594 0.43625 0.05637 0.0
C409 C 0.71889 0.54431 0.00761 0.0
C410 C 0.68355 0.28834 0.04503 0.0
C411 C 0.67976 0.32397 0.04818 0.0
C412 C 0.67437 0.40428 0.01052 0.0
C413 C 0.69871 0.49459 0.03405 0.0
C414 C 0.69183 0.45676 0.03483 0.0
C415 C 0.69298 0.34647 0.02785 0.0
C416 C 0.68993 0.38413 0.03137 0.0
H417 H 0.72023 0.56069 0.07788 0.0
H418 H 0.69606 0.50264 0.0791 0.0
H419 H 0.66292 0.45505 0.99581 0.0
H420 H 0.72907 0.28755 0.98383 0.0
H421 H 0.72114 0.34996 0.98875 0.0
C422 C 0.45954 0.72505 0.56871 0.0
C423 C 0.44135 0.72974 0.54352 0.0
C424 C 0.49353 0.71301 0.56827 0.0
C425 C 0.56271 0.67962 0.52008 0.0
H426 H 0.62196 0.73519 0.56752 0.0
C427 C 0.70321 0.72782 0.49882 0.0
C428 C 0.72748 0.71087 0.51572 0.0
C429 C 0.668 0.72359 0.50387 0.0
C430 C 0.6056 0.71932 0.55439 0.0
H431 H 0.44337 0.72203 0.49841 0.0
H432 H 0.50227 0.70239 0.49754 0.0
H433 H 0.55982 0.73657 0.57474 0.0
H434 H 0.73418 0.67579 0.55073 0.0
H435 H 0.67247 0.66964 0.56024 0.0
H436 H 0.60894 0.66447 0.4986 0.0
C437 C 0.49064 0.70752 0.51776 0.0
C438 C 0.57004 0.71973 0.55865 0.0
C439 C 0.45671 0.71915 0.51823 0.0
C440 C 0.71598 0.68956 0.53766 0.0
C441 C 0.68084 0.68578 0.54299 0.0
C442 C 0.59827 0.67972 0.51556 0.0
C443 C 0.51002 0.70569 0.54262 0.0
C444 C 0.548 0.7005 0.54113 0.0
C445 C 0.65671 0.70277 0.52611 0.0
C446 C 0.61975 0.70005 0.53238 0.0
H447 H 0.44835 0.73262 0.5886 0.0
H448 H 0.50737 0.711 0.58792 0.0
H449 H 0.5467 0.66394 0.50655 0.0
H450 H 0.71148 0.7447 0.48201 0.0
H451 H 0.64958 0.7371 0.4908 0.0
C452 C 0.26778 0.45236 0.06369 0.0
C453 C 0.27052 0.43235 0.03918 0.0
C454 C 0.27816 0.48687 0.06362 0.0
C455 C 0.32292 0.55563 0.0239 0.0
H456 H 0.24375 0.61084 0.0452 0.0
C457 C 0.26264 0.69943 0.00323 0.0
C458 C 0.28919 0.72078 0.01288 0.0
C459 C 0.2647 0.66374 0.00699 0.0
C460 C 0.26604 0.59575 0.03918 0.0
H461 H 0.2904 0.43152 0.99662 0.0
H462 H 0.30876 0.49162 0.99669 0.0
H463 H 0.2434 0.54888 0.05383 0.0
H464 H 0.33915 0.72228 0.03292 0.0
H465 H 0.34318 0.65952 0.03901 0.0
H466 H 0.34527 0.60285 0.00893 0.0
C467 C 0.29822 0.48078 0.0158 0.0
C468 C 0.26607 0.56038 0.04446 0.0
C469 C 0.28759 0.44635 0.01576 0.0
C470 C 0.31845 0.70604 0.02531 0.0
C471 C 0.32076 0.67031 0.02872 0.0
C472 C 0.3231 0.59126 0.01899 0.0
C473 C 0.29183 0.50184 0.0392 0.0
C474 C 0.29429 0.53986 0.03657 0.0
C475 C 0.29356 0.64892 0.02013 0.0
C476 C 0.29437 0.61148 0.02616 0.0
H477 H 0.25497 0.44237 0.08216 0.0
H478 H 0.27349 0.50246 0.08211 0.0
H479 H 0.34494 0.54037 0.01754 0.0
H480 H 0.23987 0.71046 0.99364 0.0
H481 H 0.24353 0.64771 0.99997 0.0
C482 C 0.29157 0.2675 0.5303 0.0
C483 C 0.27355 0.28931 0.51195 0.0
C484 C 0.32665 0.27246 0.53513 0.0
C485 C 0.40502 0.30266 0.504 0.0
H486 H 0.43824 0.31157 0.58041 0.0
C487 C 0.54933 0.29922 0.52435 0.0
C488 C 0.55931 0.27746 0.54646 0.0
C489 C 0.51547 0.31113 0.5225 0.0
C490 C 0.42951 0.30891 0.55896 0.0
H491 H 0.27812 0.33302 0.48383 0.0
H492 H 0.34015 0.3405 0.49115 0.0
H493 H 0.37642 0.30892 0.57138 0.0
H494 H 0.54262 0.2536 0.58524 0.0
H495 H 0.48352 0.27298 0.58154 0.0
H496 H 0.45758 0.30004 0.49144 0.0
C497 C 0.32682 0.31999 0.50211 0.0
C498 C 0.39411 0.30756 0.55383 0.0
C499 C 0.29151 0.31547 0.49773 0.0
C500 C 0.53572 0.27047 0.56801 0.0
C501 C 0.50166 0.28171 0.56585 0.0
C502 C 0.4404 0.30329 0.50913 0.0
C503 C 0.3445 0.29887 0.52121 0.0
C504 C 0.38166 0.30378 0.52637 0.0
C505 C 0.49067 0.30079 0.54234 0.0
C506 C 0.4532 0.30569 0.53675 0.0
H507 H 0.27835 0.24692 0.54128 0.0
H508 H 0.33994 0.25552 0.54961 0.0
H509 H 0.39593 0.29956 0.48266 0.0
H510 H 0.56717 0.30533 0.50759 0.0
H511 H 0.50833 0.32682 0.50464 0.0
C512 C 0.09293 0.41273 0.04692 0.0
C513 C 0.11144 0.40471 0.02242 0.0
C514 C 0.0645 0.43462 0.04586 0.0
C515 C 0.02672 0.50395 0.00305 0.0
H516 H 0.94758 0.48908 0.05115 0.0
C517 C 0.90191 0.58606 0.99901 0.0
C518 C 0.88646 0.59435 0.02485 0.0
C519 C 0.93041 0.5641 0.99798 0.0
C520 C 0.96969 0.49376 0.03783 0.0
H521 H 0.11362 0.41239 0.97734 0.0
H522 H 0.06343 0.45028 0.97546 0.0
H523 H 0.99326 0.44609 0.0496 0.0
H524 H 0.89001 0.5875 0.06996 0.0
H525 H 0.9398 0.54932 0.06809 0.0
H526 H 0.00282 0.55161 0.9912 0.0
C527 C 0.07144 0.44006 0.99558 0.0
C528 C 0.99582 0.46911 0.03688 0.0
C529 C 0.10003 0.41813 0.99663 0.0
C530 C 0.90114 0.58152 0.0497 0.0
C531 C 0.9295 0.55943 0.04863 0.0
C532 C 0.00043 0.52856 0.00389 0.0
C533 C 0.05369 0.44895 0.02026 0.0
C534 C 0.02483 0.47406 0.01972 0.0
C535 C 0.94392 0.54988 0.02273 0.0
C536 C 0.97183 0.52386 0.02152 0.0
H537 H 0.10098 0.40293 0.06717 0.0
H538 H 0.05171 0.44124 0.06532 0.0
H539 H 0.04894 0.50879 0.98991 0.0
H540 H 0.89135 0.5956 0.97946 0.0
H541 H 0.94095 0.55712 0.97771 0.0
C542 C 0.41382 0.9056 0.55678 0.0
C543 C 0.4039 0.88932 0.53169 0.0
C544 C 0.43449 0.93504 0.55621 0.0
C545 C 0.49787 0.97857 0.51111 0.0
H546 H 0.48783 0.05293 0.56493 0.0
C547 C 0.57802 0.1044 0.50759 0.0
C548 C 0.58939 0.11786 0.53339 0.0
C549 C 0.55592 0.076 0.50683 0.0
C550 C 0.49116 0.03216 0.54997 0.0
H551 H 0.40636 0.8924 0.48625 0.0
H552 H 0.44194 0.94417 0.48531 0.0
H553 H 0.44563 0.00639 0.56404 0.0
H554 H 0.58764 0.11097 0.57858 0.0
H555 H 0.54928 0.06128 0.57716 0.0
H556 H 0.54339 0.00447 0.49702 0.0
C557 C 0.43436 0.93365 0.50543 0.0
C558 C 0.46695 0.00555 0.54941 0.0
C559 C 0.41375 0.90412 0.50598 0.0
C560 C 0.57928 0.10139 0.55834 0.0
C561 C 0.55707 0.07309 0.55757 0.0
C562 C 0.52201 0.00526 0.5116 0.0
C563 C 0.44559 0.94899 0.53055 0.0
C564 C 0.47015 0.97832 0.53011 0.0
C565 C 0.54464 0.06053 0.53184 0.0
C566 C 0.51904 0.03219 0.53117 0.0
H567 H 0.40671 0.89494 0.57697 0.0
H568 H 0.44289 0.94603 0.57595 0.0
H569 H 0.50142 0.95768 0.4963 0.0
H570 H 0.58534 0.11641 0.48795 0.0
H571 H 0.54665 0.06696 0.48669 0.0
C572 C 0.39952 0.91431 0.99268 0.0
C573 C 0.38365 0.90235 0.01733 0.0
C574 C 0.42844 0.93557 0.9941 0.0
C575 C 0.4721 0.99636 0.04169 0.0
H576 H 0.54508 0.99023 0.98641 0.0
C577 C 0.59735 0.0785 0.04432 0.0
C578 C 0.60866 0.09161 0.01838 0.0
C579 C 0.5694 0.05582 0.04555 0.0
C580 C 0.52472 0.99241 0.00185 0.0
H581 H 0.38671 0.90215 0.06281 0.0
H582 H 0.43765 0.93878 0.06522 0.0
H583 H 0.49918 0.94743 0.98639 0.0
H584 H 0.59825 0.09254 0.9736 0.0
H585 H 0.54959 0.05319 0.97587 0.0
H586 H 0.49797 0.04137 0.05716 0.0
C587 C 0.42722 0.93228 0.04482 0.0
C588 C 0.49845 0.9679 0.00185 0.0
C589 C 0.39817 0.91107 0.04341 0.0
C590 C 0.59044 0.08278 0.99392 0.0
C591 C 0.56269 0.06002 0.99515 0.0
C592 C 0.49857 0.0208 0.04179 0.0
C593 C 0.44233 0.94523 0.02018 0.0
C594 C 0.47158 0.96983 0.02153 0.0
C595 C 0.55238 0.04572 0.02087 0.0
C596 C 0.52486 0.01931 0.02161 0.0
H597 H 0.38901 0.90819 0.97223 0.0
H598 H 0.43917 0.9454 0.97471 0.0
H599 H 0.45155 0.99886 0.0569 0.0
H600 H 0.61074 0.08485 0.06357 0.0
H601 H 0.56197 0.04515 0.06566 0.0
C602 C 0.91665 0.60138 0.53607 0.0
C603 C 0.90594 0.61376 0.50974 0.0
C604 C 0.93757 0.57213 0.538 0.0
C605 C 0.96946 0.497 0.49708 0.0
H606 H 0.04642 0.50087 0.54889 0.0
C607 C 0.08362 0.40437 0.48794 0.0
C608 C 0.0934 0.38706 0.51261 0.0
C609 C 0.06119 0.43242 0.48908 0.0
C610 C 0.02488 0.49935 0.53451 0.0
H611 H 0.9079 0.60436 0.46487 0.0
H612 H 0.94469 0.55393 0.4682 0.0
H613 H 0.00423 0.54761 0.54835 0.0
H614 H 0.08879 0.38703 0.55801 0.0
H615 H 0.04978 0.43646 0.55993 0.0
H616 H 0.99064 0.44918 0.48278 0.0
C617 C 0.9366 0.56643 0.48743 0.0
C618 C 0.0006 0.52599 0.53427 0.0
C619 C 0.91557 0.59551 0.4855 0.0
C620 C 0.08169 0.39968 0.5386 0.0
C621 C 0.0594 0.428 0.53974 0.0
C622 C 0.99385 0.47059 0.49716 0.0
C623 C 0.94831 0.55469 0.51366 0.0
C624 C 0.97279 0.52529 0.51533 0.0
C625 C 0.04823 0.444 0.51491 0.0
C626 C 0.02199 0.47169 0.51565 0.0
H627 H 0.90951 0.6147 0.55519 0.0
H628 H 0.94561 0.5634 0.55856 0.0
H629 H 0.94801 0.49526 0.48263 0.0
H630 H 0.09229 0.39556 0.46756 0.0
H631 H 0.05347 0.44472 0.46966 0.0
C632 C 0.19043 0.33223 0.16185 0.0
C633 C 0.17456 0.36046 0.14856 0.0
C634 C 0.18685 0.32727 0.1908 0.0
C635 C 0.13011 0.34831 0.25002 0.0
H636 H 0.2098 0.32914 0.29648 0.0
C637 C 0.12161 0.35339 0.3703 0.0
C638 C 0.14007 0.32885 0.38591 0.0
C639 C 0.12672 0.35655 0.34142 0.0
C640 C 0.18718 0.33398 0.28379 0.0
H641 H 0.14237 0.40549 0.15525 0.0
H642 H 0.13593 0.39662 0.20557 0.0
H643 H 0.21669 0.33502 0.24576 0.0
H644 H 0.17868 0.28854 0.38345 0.0
H645 H 0.18702 0.29344 0.33285 0.0
H646 H 0.10041 0.34684 0.28772 0.0
C647 C 0.15107 0.37831 0.19362 0.0
C648 C 0.19118 0.33741 0.25474 0.0
C649 C 0.15492 0.38347 0.1648 0.0
C650 C 0.1641 0.30777 0.37202 0.0
C651 C 0.169 0.31072 0.34302 0.0
C652 C 0.12604 0.34458 0.27897 0.0
C653 C 0.167 0.3502 0.20695 0.0
C654 C 0.16273 0.34498 0.23761 0.0
C655 C 0.15018 0.335 0.3273 0.0
C656 C 0.15457 0.33776 0.29631 0.0
H657 H 0.20575 0.31405 0.14992 0.0
H658 H 0.19921 0.30524 0.20049 0.0
H659 H 0.10761 0.35358 0.23729 0.0
H660 H 0.10315 0.37028 0.38039 0.0
H661 H 0.11234 0.37609 0.33018 0.0
C662 C 0.69508 0.16564 0.87956 0.0
C663 C 0.67237 0.14198 0.89208 0.0
C664 C 0.6953 0.17022 0.85042 0.0
C665 C 0.66818 0.12689 0.78442 0.0
H666 H 0.68328 0.21718 0.75175 0.0
C667 C 0.6826 0.14455 0.66485 0.0
C668 C 0.66659 0.17344 0.65274 0.0
C669 C 0.68537 0.14156 0.69401 0.0
C670 C 0.67876 0.19181 0.7605 0.0
H671 H 0.63135 0.10537 0.88389 0.0
H672 H 0.63104 0.11402 0.83338 0.0
H673 H 0.68245 0.21077 0.80258 0.0
H674 H 0.64132 0.2221 0.66179 0.0
H675 H 0.64538 0.21654 0.71254 0.0
H676 H 0.66316 0.10811 0.74247 0.0
C677 C 0.64941 0.12837 0.84586 0.0
C678 C 0.67873 0.18805 0.7897 0.0
C679 C 0.6494 0.12358 0.87491 0.0
C680 C 0.65391 0.19954 0.67042 0.0
C681 C 0.65644 0.19644 0.69958 0.0
C682 C 0.66799 0.13068 0.75527 0.0
C683 C 0.67261 0.15145 0.83317 0.0
C684 C 0.67327 0.15555 0.80206 0.0
C685 C 0.67195 0.16727 0.71179 0.0
C686 C 0.67317 0.1632 0.74289 0.0
H687 H 0.71319 0.18014 0.89219 0.0
H688 H 0.71378 0.18794 0.84141 0.0
H689 H 0.66444 0.10135 0.79311 0.0
H690 H 0.69288 0.12409 0.65183 0.0
H691 H 0.69806 0.11904 0.7026 0.0
C692 C 0.84804 0.69777 0.36999 0.0
C693 C 0.83425 0.67079 0.38613 0.0
C694 C 0.84538 0.69732 0.34075 0.0
C695 C 0.8272 0.63783 0.28093 0.0
H696 H 0.82097 0.72352 0.23921 0.0
C697 C 0.79884 0.64447 0.16177 0.0
C698 C 0.8225 0.66385 0.14596 0.0
C699 C 0.7993 0.64578 0.19108 0.0
C700 C 0.82284 0.69943 0.25064 0.0
H701 H 0.80592 0.6227 0.38436 0.0
H702 H 0.79985 0.6226 0.33349 0.0
H703 H 0.82206 0.72497 0.29036 0.0
H704 H 0.86463 0.70041 0.14843 0.0
H705 H 0.86476 0.70337 0.19978 0.0
H706 H 0.82683 0.61244 0.24095 0.0
C707 C 0.81385 0.64357 0.34322 0.0
C708 C 0.82367 0.70018 0.27998 0.0
C709 C 0.81708 0.64372 0.37246 0.0
C710 C 0.84617 0.68511 0.16006 0.0
C711 C 0.84616 0.68693 0.18938 0.0
C712 C 0.82571 0.6371 0.25163 0.0
C713 C 0.82829 0.67019 0.32688 0.0
C714 C 0.82616 0.66939 0.29558 0.0
C715 C 0.82296 0.66701 0.20515 0.0
C716 C 0.82378 0.66789 0.23622 0.0
H717 H 0.8617 0.71887 0.3799 0.0
H718 H 0.85747 0.71796 0.32905 0.0
H719 H 0.82984 0.6136 0.292 0.0
H720 H 0.78035 0.62777 0.15152 0.0
H721 H 0.78102 0.63033 0.20277 0.0
C722 C 0.34148 0.88292 0.87606 0.0
C723 C 0.31946 0.8617 0.89185 0.0
C724 C 0.34634 0.87693 0.84744 0.0
C725 C 0.3065 0.83768 0.78549 0.0
H726 H 0.39931 0.8396 0.75556 0.0
C727 C 0.33667 0.80419 0.6695 0.0
C728 C 0.36247 0.8236 0.65613 0.0
C729 C 0.33097 0.80761 0.69836 0.0
C730 C 0.37316 0.83942 0.76345 0.0
H731 H 0.28506 0.81766 0.88991 0.0
H732 H 0.29336 0.80744 0.83971 0.0
H733 H 0.39008 0.84805 0.80562 0.0
H734 H 0.40199 0.86235 0.66249 0.0
H735 H 0.39152 0.86897 0.71246 0.0
H736 H 0.28945 0.82981 0.74326 0.0
C737 C 0.30681 0.82871 0.84958 0.0
C738 C 0.36792 0.84415 0.79218 0.0
C739 C 0.30219 0.83449 0.87832 0.0
C740 C 0.38212 0.84678 0.67216 0.0
C741 C 0.37625 0.8504 0.70091 0.0
C742 C 0.3117 0.83325 0.75666 0.0
C743 C 0.32909 0.84977 0.83389 0.0
C744 C 0.33454 0.84355 0.80349 0.0
C745 C 0.35078 0.83069 0.71446 0.0
C746 C 0.34511 0.83431 0.74524 0.0
H747 H 0.35517 0.9041 0.88581 0.0
H748 H 0.36338 0.89382 0.83582 0.0
H749 H 0.28045 0.8374 0.7936 0.0
H750 H 0.32114 0.78603 0.65773 0.0
H751 H 0.31142 0.79172 0.70811 0.0
C752 C 0.81675 0.68019 0.87182 0.0
C753 C 0.80465 0.64805 0.8809 0.0
C754 C 0.82641 0.68497 0.84384 0.0
C755 C 0.81392 0.6457 0.77328 0.0
H756 H 0.88304 0.71291 0.75223 0.0
C757 C 0.82701 0.69426 0.65957 0.0
C758 C 0.85957 0.7042 0.64988 0.0
C759 C 0.82237 0.68488 0.68761 0.0
C760 C 0.86405 0.69358 0.75762 0.0
H761 H 0.79394 0.59543 0.86863 0.0
H762 H 0.81251 0.603 0.82013 0.0
H763 H 0.87345 0.70034 0.80143 0.0
H764 H 0.91294 0.71168 0.66125 0.0
H765 H 0.90546 0.69364 0.70991 0.0
H766 H 0.80557 0.63782 0.72948 0.0
C767 C 0.81354 0.62499 0.83412 0.0
C768 C 0.8581 0.6868 0.78599 0.0
C769 C 0.80323 0.62047 0.86193 0.0
C770 C 0.88758 0.70404 0.6684 0.0
C771 C 0.88315 0.69401 0.6963 0.0
C772 C 0.8203 0.65202 0.74492 0.0
C773 C 0.82459 0.6575 0.8245 0.0
C774 C 0.8326 0.66313 0.79425 0.0
C775 C 0.85036 0.68481 0.70644 0.0
C776 C 0.84508 0.67644 0.73667 0.0
H777 H 0.8173 0.702 0.88604 0.0
H778 H 0.83409 0.71055 0.83722 0.0
H779 H 0.79371 0.62766 0.77867 0.0
H780 H 0.80489 0.69505 0.64574 0.0
H781 H 0.79659 0.67876 0.69466 0.0
C782 C 0.32748 0.76768 0.3727 0.0
C783 C 0.35023 0.78729 0.38907 0.0
C784 C 0.32358 0.7745 0.34418 0.0
C785 C 0.33755 0.84104 0.28999 0.0
H786 H 0.32472 0.76315 0.23993 0.0
C787 C 0.32291 0.85415 0.16902 0.0
C788 C 0.29459 0.83623 0.1579 0.0
C789 C 0.3332 0.84857 0.19679 0.0
C790 C 0.32824 0.78514 0.25368 0.0
H791 H 0.38754 0.82885 0.38833 0.0
H792 H 0.38083 0.84083 0.33825 0.0
H793 H 0.33655 0.753 0.28942 0.0
H794 H 0.25476 0.79871 0.16684 0.0
H795 H 0.27293 0.78865 0.21515 0.0
H796 H 0.32917 0.87309 0.25396 0.0
C797 C 0.3654 0.82065 0.34766 0.0
C798 C 0.33486 0.77937 0.28204 0.0
C799 C 0.36915 0.8139 0.37635 0.0
C800 C 0.27679 0.8127 0.1749 0.0
C801 C 0.28731 0.80681 0.20245 0.0
C802 C 0.33118 0.8468 0.26149 0.0
C803 C 0.34272 0.80082 0.33122 0.0
C804 C 0.33881 0.80723 0.30067 0.0
C805 C 0.31553 0.82475 0.21369 0.0
C806 C 0.32575 0.81888 0.24322 0.0
H807 H 0.31245 0.74709 0.382 0.0
H808 H 0.30532 0.75922 0.33232 0.0
H809 H 0.34024 0.86307 0.3038 0.0
H810 H 0.33658 0.87301 0.15653 0.0
H811 H 0.35502 0.86275 0.205 0.0
C812 C 0.17127 0.26346 0.66868 0.0
C813 C 0.14732 0.28157 0.6523 0.0
C814 C 0.17454 0.27034 0.69726 0.0
C815 C 0.15531 0.33603 0.7514 0.0
H816 H 0.17669 0.26034 0.80171 0.0
C817 C 0.17049 0.35196 0.87213 0.0
C818 C 0.20101 0.33767 0.88287 0.0
C819 C 0.16018 0.34478 0.8446 0.0
C820 C 0.17074 0.28171 0.78789 0.0
H821 H 0.107 0.32019 0.65316 0.0
H822 H 0.11245 0.33215 0.70333 0.0
H823 H 0.16508 0.24853 0.75241 0.0
H824 H 0.24459 0.30474 0.87351 0.0
H825 H 0.22637 0.29179 0.82565 0.0
H826 H 0.16095 0.3691 0.78719 0.0
C827 C 0.12939 0.31324 0.6939 0.0
C828 C 0.16426 0.27502 0.75961 0.0
C829 C 0.12632 0.30649 0.66515 0.0
C830 C 0.22089 0.31598 0.86575 0.0
C831 C 0.21036 0.30841 0.83846 0.0
C832 C 0.16146 0.34267 0.77981 0.0
C833 C 0.15353 0.29516 0.71031 0.0
C834 C 0.15725 0.30216 0.74086 0.0
C835 C 0.18002 0.32287 0.82755 0.0
C836 C 0.16995 0.31563 0.79817 0.0
H837 H 0.18785 0.24416 0.65928 0.0
H838 H 0.1939 0.25642 0.70906 0.0
H839 H 0.15029 0.35758 0.73754 0.0
H840 H 0.15507 0.36933 0.88473 0.0
H841 H 0.13671 0.35628 0.83665 0.0
C842 C 0.68576 0.17956 0.16803 0.0
C843 C 0.69429 0.14631 0.15886 0.0
C844 C 0.67609 0.1852 0.19592 0.0
C845 C 0.68138 0.14372 0.26641 0.0
H846 H 0.62084 0.21907 0.28681 0.0
C847 C 0.67025 0.19091 0.38065 0.0
C848 C 0.63909 0.20524 0.38974 0.0
C849 C 0.67468 0.18167 0.35255 0.0
C850 C 0.63734 0.19749 0.2816 0.0
H851 H 0.69859 0.09271 0.17086 0.0
H852 H 0.67983 0.10194 0.21911 0.0
H853 H 0.63051 0.20611 0.2377 0.0
H854 H 0.58792 0.22084 0.3772 0.0
H855 H 0.59471 0.20303 0.32838 0.0
H856 H 0.68689 0.13399 0.31025 0.0
C857 C 0.68173 0.12405 0.20533 0.0
C858 C 0.64342 0.19044 0.25327 0.0
C859 C 0.69214 0.11861 0.17763 0.0
C860 C 0.61216 0.20969 0.37053 0.0
C861 C 0.61627 0.1998 0.34252 0.0
C862 C 0.67476 0.15032 0.29471 0.0
C863 C 0.67422 0.15754 0.21507 0.0
C864 C 0.66594 0.16377 0.24524 0.0
C865 C 0.64779 0.18612 0.33301 0.0
C866 C 0.65307 0.17765 0.30276 0.0
H867 H 0.68794 0.20139 0.15395 0.0
H868 H 0.67125 0.21145 0.2026 0.0
H869 H 0.69929 0.12327 0.26127 0.0
H870 H 0.69162 0.18804 0.39508 0.0
H871 H 0.69959 0.17204 0.34606 0.0
loop_
_geom_bond_atom_site_label_1
_geom_bond_atom_site_label_2
_geom_bond_distance
_geom_bond_site_symmetry_2
_ccdc_geom_bond_type
Co0 O3 1.970 . S
Co0 N17 1.989 . S
Co0 O25 1.967 . S
Co0 O32 1.920 . S
Co1 O4 1.966 1_556 S
Co1 N10 2.022 . S
Co1 N18 1.993 1_556 S
Co1 O26 1.932 1_556 S
C2 O3 1.258 . S
C2 O4 1.263 . S
O3 Co0 1.970 . S
O3 C2 1.258 . S
O4 Co1 1.966 1_554 S
O4 C2 1.263 . S
C5 O6 1.235 . S
C5 O32 1.289 . S
O6 C5 1.235 . S
C7 C9 1.400 . S
C7 N10 1.351 . S
C7 C12 1.501 . S
C8 C9 1.387 . S
C8 N11 1.341 . S
C9 C7 1.400 . S
C9 C8 1.387 . S
N10 Co1 2.022 . S
N10 C7 1.351 . S
N10 N11 1.365 . S
N11 C8 1.341 . S
N11 N10 1.365 . S
N11 H31 0.862 . S
C12 C7 1.501 . S
C12 H13 0.961 . S
C12 H14 0.961 . S
C12 H15 0.960 . S
H13 C12 0.961 . S
H14 C12 0.961 . S
H15 C12 0.960 . S
C16 N17 1.342 . S
C16 C20 1.401 . S
C16 C21 1.499 . S
N17 Co0 1.989 . S
N17 C16 1.342 . S
N17 N18 1.388 . S
N18 Co1 1.993 1_554 S
N18 N17 1.388 . S
N18 C19 1.346 . S
C19 N18 1.346 . S
C19 C20 1.396 . S
C19 C29 1.510 1_554 S
C20 C16 1.401 . S
C20 C19 1.396 . S
C21 C16 1.499 . S
C21 H22 0.959 . S
C21 H23 0.960 . S
C21 H24 0.961 . S
H22 C21 0.959 . S
H23 C21 0.960 . S
H24 C21 0.961 . S
O25 Co0 1.967 . S
O25 C33 1.258 . S
O26 Co1 1.932 1_554 S
O26 C33 1.306 . S
H27 C29 0.959 . S
H28 C29 0.961 . S
C29 C19 1.510 1_556 S
C29 H27 0.959 . S
C29 H28 0.961 . S
C29 H30 0.960 . S
H30 C29 0.960 . S
H31 N11 0.862 . S
O32 Co0 1.920 . S
O32 C5 1.289 . S
C33 O25 1.258 . S
C33 O26 1.306 . S
Co34 O37 1.970 . S
Co34 N51 1.989 . S
Co34 O59 1.967 . S
Co34 O66 1.920 . S
Co35 O38 1.966 . S
Co35 N44 2.022 . S
Co35 N52 1.993 . S
Co35 O60 1.941 . S
C36 O37 1.258 . S
C36 O38 1.263 . S
O37 Co34 1.970 . S
O37 C36 1.258 . S
O38 Co35 1.966 . S
O38 C36 1.263 . S
C39 O40 1.235 . S
C39 O66 1.289 . S
O40 C39 1.235 . S
C41 C43 1.400 . S
C41 N44 1.351 . S
C41 C46 1.501 . S
C42 C43 1.387 . S
C42 N45 1.341 . S
C43 C41 1.400 . S
C43 C42 1.387 . S
N44 Co35 2.022 . S
N44 C41 1.351 . S
N44 N45 1.365 . S
N45 C42 1.341 . S
N45 N44 1.365 . S
N45 H65 0.862 . S
C46 C41 1.501 . S
C46 H47 0.961 . S
C46 H48 0.961 . S
C46 H49 0.960 . S
H47 C46 0.961 . S
H48 C46 0.961 . S
H49 C46 0.960 . S
C50 N51 1.342 . S
C50 C54 1.401 . S
C50 C55 1.499 . S
N51 Co34 1.989 . S
N51 C50 1.342 . S
N51 N52 1.388 . S
N52 Co35 1.993 . S
N52 N51 1.388 . S
N52 C53 1.346 . S
C53 N52 1.346 . S
C53 C54 1.396 . S
C53 C63 1.510 . S
C54 C50 1.401 . S
C54 C53 1.396 . S
C55 C50 1.499 . S
C55 H56 0.959 . S
C55 H57 0.960 . S
C55 H58 0.961 . S
H56 C55 0.959 . S
H57 C55 0.960 . S
H58 C55 0.961 . S
O59 Co34 1.967 . S
O59 C67 1.258 . S
O60 Co35 1.941 . S
O60 C67 1.266 . S
H61 C63 0.959 . S
H62 C63 0.961 . S
C63 C53 1.510 . S
C63 H61 0.959 . S
C63 H62 0.961 . S
C63 H64 0.960 . S
H64 C63 0.960 . S
H65 N45 0.862 . S
O66 Co34 1.920 . S
O66 C39 1.289 . S
C67 O59 1.258 . S
C67 O60 1.266 . S
Co68 O71 1.970 . S
Co68 N85 1.989 . S
Co68 O93 1.967 . S
Co68 O100 1.920 . S
Co69 O72 1.966 1_556 S
Co69 N78 2.022 . S
Co69 N86 1.993 1_556 S
Co69 O94 1.932 1_556 S
C70 O71 1.258 . S
C70 O72 1.263 . S
O71 Co68 1.970 . S
O71 C70 1.258 . S
O72 Co69 1.966 1_554 S
O72 C70 1.263 . S
C73 O74 1.235 . S
C73 O100 1.289 . S
O74 C73 1.235 . S
C75 C77 1.400 . S
C75 N78 1.351 . S
C75 C80 1.501 . S
C76 C77 1.387 . S
C76 N79 1.341 . S
C77 C75 1.400 . S
C77 C76 1.387 . S
N78 Co69 2.022 . S
N78 C75 1.351 . S
N78 N79 1.365 . S
N79 C76 1.341 . S
N79 N78 1.365 . S
N79 H99 0.862 . S
C80 C75 1.501 . S
C80 H81 0.961 . S
C80 H82 0.961 . S
C80 H83 0.960 . S
H81 C80 0.961 . S
H82 C80 0.961 . S
H83 C80 0.960 . S
C84 N85 1.342 . S
C84 C88 1.401 . S
C84 C89 1.499 . S
N85 Co68 1.989 . S
N85 C84 1.342 . S
N85 N86 1.388 . S
N86 Co69 1.993 1_554 S
N86 N85 1.388 . S
N86 C87 1.346 . S
C87 N86 1.346 . S
C87 C88 1.396 . S
C87 C97 1.510 1_554 S
C88 C84 1.401 . S
C88 C87 1.396 . S
C89 C84 1.499 . S
C89 H90 0.959 . S
C89 H91 0.960 . S
C89 H92 0.961 . S
H90 C89 0.959 . S
H91 C89 0.960 . S
H92 C89 0.961 . S
O93 Co68 1.967 . S
O93 C101 1.258 . S
O94 Co69 1.932 1_554 S
O94 C101 1.306 . S
H95 C97 0.959 . S
H96 C97 0.961 . S
C97 C87 1.510 1_556 S
C97 H95 0.959 . S
C97 H96 0.961 . S
C97 H98 0.960 . S
H98 C97 0.960 . S
H99 N79 0.862 . S
O100 Co68 1.920 . S
O100 C73 1.289 . S
C101 O93 1.258 . S
C101 O94 1.306 . S
Co102 O105 1.970 . S
Co102 N119 1.989 . S
Co102 O127 1.967 . S
Co102 O134 1.920 . S
Co103 O106 1.966 . S
Co103 N112 2.022 . S
Co103 N120 1.993 . S
Co103 O128 1.941 . S
C104 O105 1.258 . S
C104 O106 1.263 . S
O105 Co102 1.970 . S
O105 C104 1.258 . S
O106 Co103 1.966 . S
O106 C104 1.263 . S
C107 O108 1.235 . S
C107 O134 1.289 . S
O108 C107 1.235 . S
C109 C111 1.400 . S
C109 N112 1.351 . S
C109 C114 1.501 . S
C110 C111 1.387 . S
C110 N113 1.341 . S
C111 C109 1.400 . S
C111 C110 1.387 . S
N112 Co103 2.022 . S
N112 C109 1.351 . S
N112 N113 1.365 . S
N113 C110 1.341 . S
N113 N112 1.365 . S
N113 H133 0.862 . S
C114 C109 1.501 . S
C114 H115 0.961 . S
C114 H116 0.961 . S
C114 H117 0.960 . S
H115 C114 0.961 . S
H116 C114 0.961 . S
H117 C114 0.960 . S
C118 N119 1.342 . S
C118 C122 1.401 . S
C118 C123 1.499 . S
N119 Co102 1.989 . S
N119 C118 1.342 . S
N119 N120 1.388 . S
N120 Co103 1.993 . S
N120 N119 1.388 . S
N120 C121 1.346 . S
C121 N120 1.346 . S
C121 C122 1.396 . S
C121 C131 1.510 . S
C122 C118 1.401 . S
C122 C121 1.396 . S
C123 C118 1.499 . S
C123 H124 0.959 . S
C123 H125 0.960 . S
C123 H126 0.961 . S
H124 C123 0.959 . S
H125 C123 0.960 . S
H126 C123 0.961 . S
O127 Co102 1.967 . S
O127 C135 1.258 . S
O128 Co103 1.941 . S
O128 C135 1.266 . S
H129 C131 0.959 . S
H130 C131 0.961 . S
C131 C121 1.510 . S
C131 H129 0.959 . S
C131 H130 0.961 . S
C131 H132 0.960 . S
H132 C131 0.960 . S
H133 N113 0.862 . S
O134 Co102 1.920 . S
O134 C107 1.289 . S
C135 O127 1.258 . S
C135 O128 1.266 . S
Co136 O139 1.970 . S
Co136 N153 1.974 1_556 S
Co136 O161 1.967 . S
Co136 O168 1.920 . S
Co137 O140 1.966 . S
Co137 N146 2.022 . S
Co137 N154 1.993 . S
Co137 O162 1.941 . S
C138 O139 1.258 1_554 S
C138 O140 1.263 . S
O139 Co136 1.970 . S
O139 C138 1.258 1_556 S
O140 Co137 1.966 . S
O140 C138 1.263 . S
C141 O142 1.235 . S
C141 O168 1.289 . S
O142 C141 1.235 . S
C143 C145 1.400 . S
C143 N146 1.351 . S
C143 C148 1.501 . S
C144 C145 1.387 . S
C144 N147 1.341 . S
C145 C143 1.400 . S
C145 C144 1.387 . S
N146 Co137 2.022 . S
N146 C143 1.351 . S
N146 N147 1.365 . S
N147 C144 1.341 . S
N147 N146 1.365 . S
N147 H167 0.862 . S
C148 C143 1.501 . S
C148 H149 0.961 . S
C148 H150 0.961 . S
C148 H151 0.960 . S
H149 C148 0.961 . S
H150 C148 0.961 . S
H151 C148 0.960 . S
C152 N153 1.332 1_556 S
C152 C156 1.401 1_556 S
C152 C157 1.499 . S
N153 Co136 1.974 1_554 S
N153 C152 1.332 1_554 S
N153 N154 1.420 . S
N154 Co137 1.993 . S
N154 N153 1.420 . S
N154 C155 1.346 . S
C155 N154 1.346 . S
C155 C156 1.396 . S
C155 C165 1.510 . S
C156 C152 1.401 1_554 S
C156 C155 1.396 . S
C157 C152 1.499 . S
C157 H158 0.959 . S
C157 H159 0.960 . S
C157 H160 0.961 . S
H158 C157 0.959 . S
H159 C157 0.960 . S
H160 C157 0.961 . S
O161 Co136 1.967 . S
O161 C169 1.258 1_556 S
O162 Co137 1.941 . S
O162 C169 1.266 . S
H163 C165 0.959 . S
H164 C165 0.961 . S
C165 C155 1.510 . S
C165 H163 0.959 . S
C165 H164 0.961 . S
C165 H166 0.960 . S
H166 C165 0.960 . S
H167 N147 0.862 . S
O168 Co136 1.920 . S
O168 C141 1.289 . S
C169 O161 1.258 1_554 S
C169 O162 1.266 . S
Co170 O173 1.970 . S
Co170 N187 1.989 . S
Co170 O195 1.967 . S
Co170 O202 1.920 . S
Co171 O174 1.966 . S
Co171 N180 2.022 . S
Co171 N188 1.993 . S
Co171 O196 1.941 . S
C172 O173 1.258 . S
C172 O174 1.263 . S
O173 Co170 1.970 . S
O173 C172 1.258 . S
O174 Co171 1.966 . S
O174 C172 1.263 . S
C175 O176 1.235 . S
C175 O202 1.289 . S
O176 C175 1.235 . S
C177 C179 1.400 . S
C177 N180 1.351 . S
C177 C182 1.501 . S
C178 C179 1.387 . S
C178 N181 1.341 . S
C179 C177 1.400 . S
C179 C178 1.387 . S
N180 Co171 2.022 . S
N180 C177 1.351 . S
N180 N181 1.365 . S
N181 C178 1.341 . S
N181 N180 1.365 . S
N181 H201 0.862 . S
C182 C177 1.501 . S
C182 H183 0.961 . S
C182 H184 0.961 . S
C182 H185 0.960 . S
H183 C182 0.961 . S
H184 C182 0.961 . S
H185 C182 0.960 . S
C186 N187 1.342 . S
C186 C190 1.401 . S
C186 C191 1.499 . S
N187 Co170 1.989 . S
N187 C186 1.342 . S
N187 N188 1.388 . S
N188 Co171 1.993 . S
N188 N187 1.388 . S
N188 C189 1.346 . S
C189 N188 1.346 . S
C189 C190 1.396 . S
C189 C199 1.510 . S
C190 C186 1.401 . S
C190 C189 1.396 . S
C191 C186 1.499 . S
C191 H192 0.959 . S
C191 H193 0.960 . S
C191 H194 0.961 . S
H192 C191 0.959 . S
H193 C191 0.960 . S
H194 C191 0.961 . S
O195 Co170 1.967 . S
O195 C203 1.258 . S
O196 Co171 1.941 . S
O196 C203 1.266 . S
H197 C199 0.959 . S
H198 C199 0.961 . S
C199 C189 1.510 . S
C199 H197 0.959 . S
C199 H198 0.961 . S
C199 H200 0.960 . S
H200 C199 0.960 . S
H201 N181 0.862 . S
O202 Co170 1.920 . S
O202 C175 1.289 . S
C203 O195 1.258 . S
C203 O196 1.266 . S
Co204 O207 1.970 . S
Co204 N221 1.974 1_556 S
Co204 O229 1.967 . S
Co204 O236 1.920 . S
Co205 O208 1.966 . S
Co205 N214 2.022 . S
Co205 N222 1.993 . S
Co205 O230 1.941 . S
C206 O207 1.258 1_554 S
C206 O208 1.263 . S
O207 Co204 1.970 . S
O207 C206 1.258 1_556 S
O208 Co205 1.966 . S
O208 C206 1.263 . S
C209 O210 1.235 . S
C209 O236 1.289 . S
O210 C209 1.235 . S
C211 C213 1.400 . S
C211 N214 1.351 . S
C211 C216 1.501 . S
C212 C213 1.387 . S
C212 N215 1.341 . S
C213 C211 1.400 . S
C213 C212 1.387 . S
N214 Co205 2.022 . S
N214 C211 1.351 . S
N214 N215 1.365 . S
N215 C212 1.341 . S
N215 N214 1.365 . S
N215 H235 0.862 . S
C216 C211 1.501 . S
C216 H217 0.961 . S
C216 H218 0.961 . S
C216 H219 0.960 . S
H217 C216 0.961 . S
H218 C216 0.961 . S
H219 C216 0.960 . S
C220 N221 1.332 1_556 S
C220 C224 1.401 1_556 S
C220 C225 1.499 . S
N221 Co204 1.974 1_554 S
N221 C220 1.332 1_554 S
N221 N222 1.420 . S
N222 Co205 1.993 . S
N222 N221 1.420 . S
N222 C223 1.346 . S
C223 N222 1.346 . S
C223 C224 1.396 . S
C223 C233 1.510 . S
C224 C220 1.401 1_554 S
C224 C223 1.396 . S
C225 C220 1.499 . S
C225 H226 0.959 . S
C225 H227 0.960 . S
C225 H228 0.961 . S
H226 C225 0.959 . S
H227 C225 0.960 . S
H228 C225 0.961 . S
O229 Co204 1.967 . S
O229 C237 1.258 1_556 S
O230 Co205 1.941 . S
O230 C237 1.266 . S
H231 C233 0.959 . S
H232 C233 0.961 . S
C233 C223 1.510 . S
C233 H231 0.959 . S
C233 H232 0.961 . S
C233 H234 0.960 . S
H234 C233 0.960 . S
H235 N215 0.862 . S
O236 Co204 1.920 . S
O236 C209 1.289 . S
C237 O229 1.258 1_554 S
C237 O230 1.266 . S
Co238 O241 1.970 . S
Co238 N255 1.989 . S
Co238 O263 1.967 . S
Co238 O270 1.920 . S
Co239 O242 1.966 . S
Co239 N248 2.022 . S
Co239 N256 1.993 . S
Co239 O264 1.941 . S
C240 O241 1.258 . S
C240 O242 1.263 . S
O241 Co238 1.970 . S
O241 C240 1.258 . S
O242 Co239 1.966 . S
O242 C240 1.263 . S
C243 O244 1.235 . S
C243 O270 1.289 . S
O244 C243 1.235 . S
C245 C247 1.400 . S
C245 N248 1.351 . S
C245 C250 1.501 . S
C246 C247 1.387 . S
C246 N249 1.341 . S
C247 C245 1.400 . S
C247 C246 1.387 . S
N248 Co239 2.022 . S
N248 C245 1.351 . S
N248 N249 1.365 . S
N249 C246 1.341 . S
N249 N248 1.365 . S
N249 H269 0.862 . S
C250 C245 1.501 . S
C250 H251 0.961 . S
C250 H252 0.961 . S
C250 H253 0.960 . S
H251 C250 0.961 . S
H252 C250 0.961 . S
H253 C250 0.960 . S
C254 N255 1.342 . S
C254 C258 1.401 . S
C254 C259 1.499 . S
N255 Co238 1.989 . S
N255 C254 1.342 . S
N255 N256 1.388 . S
N256 Co239 1.993 . S
N256 N255 1.388 . S
N256 C257 1.346 . S
C257 N256 1.346 . S
C257 C258 1.396 . S
C257 C267 1.510 . S
C258 C254 1.401 . S
C258 C257 1.396 . S
C259 C254 1.499 . S
C259 H260 0.959 . S
C259 H261 0.960 . S
C259 H262 0.961 . S
H260 C259 0.959 . S
H261 C259 0.960 . S
H262 C259 0.961 . S
O263 Co238 1.967 . S
O263 C271 1.258 . S
O264 Co239 1.941 . S
O264 C271 1.266 . S
H265 C267 0.959 . S
H266 C267 0.961 . S
C267 C257 1.510 . S
C267 H265 0.959 . S
C267 H266 0.961 . S
C267 H268 0.960 . S
H268 C267 0.960 . S
H269 N249 0.862 . S
O270 Co238 1.920 . S
O270 C243 1.289 . S
C271 O263 1.258 . S
C271 O264 1.266 . S
C272 C273 1.349 1_556 S
C272 C274 1.327 1_565 S
C272 H297 0.950 . S
C273 C272 1.349 1_554 S
C273 C289 1.349 . S
C274 C272 1.327 1_545 S
C274 C293 1.429 1_556 S
C274 H298 0.950 . S
C275 C292 1.574 . S
C275 C294 1.368 . S
C275 H299 0.949 . S
H276 C280 0.947 1_556 S
C277 C278 1.349 . S
C277 C279 1.327 . S
C277 H300 0.950 . S
C278 C277 1.349 . S
C278 C290 1.349 . S
C279 C277 1.327 . S
C279 C295 1.429 . S
C279 H301 0.950 . S
C280 H276 0.947 1_554 S
C280 C288 1.574 1_554 S
C280 C296 1.371 . S
H281 C289 0.950 . S
H282 C287 0.950 . S
H283 C288 0.949 . S
H284 C290 0.950 1_556 S
H285 C291 0.950 1_556 S
H286 C292 0.949 . S
C287 H282 0.950 . S
C287 C289 1.327 1_545 S
C287 C293 1.429 . S
C288 C280 1.574 1_556 S
C288 H283 0.949 . S
C288 C294 1.368 1_556 S
C289 C273 1.349 . S
C289 H281 0.950 . S
C289 C287 1.327 1_565 S
C290 C278 1.349 . S
C290 H284 0.950 1_554 S
C290 C291 1.327 . S
C291 H285 0.950 1_554 S
C291 C290 1.327 . S
C291 C295 1.429 . S
C292 C275 1.574 . S
C292 H286 0.949 . S
C292 C296 1.368 . S
C293 C274 1.429 1_554 S
C293 C287 1.429 . S
C293 C294 1.523 . S
C294 C275 1.368 . S
C294 C288 1.368 1_554 S
C294 C293 1.523 . S
C295 C279 1.429 . S
C295 C291 1.429 . S
C295 C296 1.523 . S
C296 C280 1.371 . S
C296 C292 1.368 . S
C296 C295 1.523 . S
H297 C272 0.950 . S
H298 C274 0.950 . S
H299 C275 0.949 . S
H300 C277 0.950 . S
H301 C279 0.950 . S
C302 C303 1.349 . S
C302 C304 1.327 1_455 S
C302 H327 0.950 . S
C303 C302 1.349 . S
C303 C319 1.349 . S
C304 C302 1.327 1_655 S
C304 C323 1.429 . S
C304 H328 0.950 . S
C305 C322 1.574 . S
C305 C324 1.368 . S
C305 H329 0.949 . S
H306 C310 0.949 . S
C307 C308 1.349 . S
C307 C309 1.327 . S
C307 H330 0.950 . S
C308 C307 1.349 . S
C308 C320 1.349 . S
C309 C307 1.327 . S
C309 C325 1.429 . S
C309 H331 0.950 . S
C310 H306 0.949 . S
C310 C318 1.574 . S
C310 C326 1.368 . S
H311 C319 0.950 . S
H312 C317 0.950 . S
H313 C318 0.949 . S
H314 C320 0.950 . S
H315 C321 0.950 . S
H316 C322 0.949 . S
C317 H312 0.950 . S
C317 C319 1.327 1_655 S
C317 C323 1.429 . S
C318 C310 1.574 . S
C318 H313 0.949 . S
C318 C324 1.368 . S
C319 C303 1.349 . S
C319 H311 0.950 . S
C319 C317 1.327 1_455 S
C320 C308 1.349 . S
C320 H314 0.950 . S
C320 C321 1.327 . S
C321 H315 0.950 . S
C321 C320 1.327 . S
C321 C325 1.429 . S
C322 C305 1.574 . S
C322 H316 0.949 . S
C322 C326 1.368 . S
C323 C304 1.429 . S
C323 C317 1.429 . S
C323 C324 1.523 . S
C324 C305 1.368 . S
C324 C318 1.368 . S
C324 C323 1.523 . S
C325 C309 1.429 . S
C325 C321 1.429 . S
C325 C326 1.523 . S
C326 C310 1.368 . S
C326 C322 1.368 . S
C326 C325 1.523 . S
H327 C302 0.950 . S
H328 C304 0.950 . S
H329 C305 0.949 . S
H330 C307 0.950 . S
H331 C309 0.950 . S
C332 C333 1.349 . S
C332 C334 1.327 1_545 S
C332 H357 0.950 . S
C333 C332 1.349 . S
C333 C349 1.349 1_554 S
C334 C332 1.327 1_565 S
C334 C353 1.429 . S
C334 H358 0.950 . S
C335 C352 1.574 . S
C335 C354 1.368 1_556 S
C335 H359 0.949 . S
H336 C340 0.949 . S
C337 C338 1.349 . S
C337 C339 1.327 1_554 S
C337 H360 0.950 1_554 S
C338 C337 1.349 . S
C338 C350 1.349 . S
C339 C337 1.327 1_556 S
C339 C355 1.426 1_556 S
C339 H361 0.952 . S
C340 H336 0.949 . S
C340 C348 1.574 . S
C340 C356 1.368 . S
H341 C349 0.950 . S
H342 C347 0.950 . S
H343 C348 0.949 . S
H344 C350 0.950 . S
H345 C351 0.950 . S
H346 C352 0.949 . S
C347 H342 0.950 . S
C347 C349 1.327 1_565 S
C347 C353 1.429 1_556 S
C348 C340 1.574 . S
C348 H343 0.949 . S
C348 C354 1.368 . S
C349 C333 1.349 1_556 S
C349 H341 0.950 . S
C349 C347 1.327 1_545 S
C350 C338 1.349 . S
C350 H344 0.950 . S
C350 C351 1.327 . S
C351 H345 0.950 . S
C351 C350 1.327 . S
C351 C355 1.429 . S
C352 C335 1.574 . S
C352 H346 0.949 . S
C352 C356 1.368 1_556 S
C353 C334 1.429 . S
C353 C347 1.429 1_554 S
C353 C354 1.523 . S
C354 C335 1.368 1_554 S
C354 C348 1.368 . S
C354 C353 1.523 . S
C355 C339 1.426 1_554 S
C355 C351 1.429 . S
C355 C356 1.523 . S
C356 C340 1.368 . S
C356 C352 1.368 1_554 S
C356 C355 1.523 . S
H357 C332 0.950 . S
H358 C334 0.950 . S
H359 C335 0.949 . S
H360 C337 0.950 1_556 S
H361 C339 0.952 . S
C362 C363 1.349 . S
C362 C364 1.327 1_655 S
C362 H387 0.950 . S
C363 C362 1.349 . S
C363 C379 1.349 . S
C364 C362 1.327 1_455 S
C364 C383 1.429 . S
C364 H388 0.950 . S
C365 C382 1.574 . S
C365 C384 1.368 . S
C365 H389 0.949 . S
H366 C370 0.949 . S
C367 C368 1.349 . S
C367 C369 1.327 . S
C367 H390 0.950 . S
C368 C367 1.349 . S
C368 C380 1.349 . S
C369 C367 1.327 . S
C369 C385 1.429 . S
C369 H391 0.950 . S
C370 H366 0.949 . S
C370 C378 1.574 . S
C370 C386 1.368 . S
H371 C379 0.950 . S
H372 C377 0.950 . S
H373 C378 0.949 . S
H374 C380 0.950 . S
H375 C381 0.950 . S
H376 C382 0.949 . S
C377 H372 0.950 . S
C377 C379 1.327 1_455 S
C377 C383 1.429 . S
C378 C370 1.574 . S
C378 H373 0.949 . S
C378 C384 1.368 . S
C379 C363 1.349 . S
C379 H371 0.950 . S
C379 C377 1.327 1_655 S
C380 C368 1.349 . S
C380 H374 0.950 . S
C380 C381 1.327 . S
C381 H375 0.950 . S
C381 C380 1.327 . S
C381 C385 1.429 . S
C382 C365 1.574 . S
C382 H376 0.949 . S
C382 C386 1.368 . S
C383 C364 1.429 . S
C383 C377 1.429 . S
C383 C384 1.523 . S
C384 C365 1.368 . S
C384 C378 1.368 . S
C384 C383 1.523 . S
C385 C369 1.429 . S
C385 C381 1.429 . S
C385 C386 1.523 . S
C386 C370 1.368 . S
C386 C382 1.368 . S
C386 C385 1.523 . S
H387 C362 0.950 . S
H388 C364 0.950 . S
H389 C365 0.949 . S
H390 C367 0.950 . S
H391 C369 0.950 . S
C392 C393 1.349 . S
C392 C394 1.327 . S
C392 H417 0.950 . S
C393 C392 1.349 . S
C393 C409 1.349 . S
C394 C392 1.327 . S
C394 C413 1.429 . S
C394 H418 0.950 . S
C395 C412 1.574 . S
C395 C414 1.368 . S
C395 H419 0.949 1_554 S
H396 C400 0.949 . S
C397 C398 1.349 1_556 S
C397 C399 1.327 . S
C397 H420 0.950 . S
C398 C397 1.349 1_554 S
C398 C410 1.349 . S
C399 C397 1.327 . S
C399 C415 1.429 1_556 S
C399 H421 0.950 . S
C400 H396 0.949 . S
C400 C408 1.574 . S
C400 C416 1.368 . S
H401 C409 0.950 1_556 S
H402 C407 0.950 1_556 S
H403 C408 0.949 . S
H404 C410 0.950 . S
H405 C411 0.950 . S
H406 C412 0.947 1_556 S
C407 H402 0.950 1_554 S
C407 C409 1.327 . S
C407 C413 1.429 . S
C408 C400 1.574 . S
C408 H403 0.949 . S
C408 C414 1.368 . S
C409 C393 1.349 . S
C409 H401 0.950 1_554 S
C409 C407 1.327 . S
C410 C398 1.349 . S
C410 H404 0.950 . S
C410 C411 1.327 . S
C411 H405 0.950 . S
C411 C410 1.327 . S
C411 C415 1.429 . S
C412 C395 1.574 . S
C412 H406 0.947 1_554 S
C412 C416 1.370 . S
C413 C394 1.429 . S
C413 C407 1.429 . S
C413 C414 1.523 . S
C414 C395 1.368 . S
C414 C408 1.368 . S
C414 C413 1.523 . S
C415 C399 1.429 1_554 S
C415 C411 1.429 . S
C415 C416 1.523 . S
C416 C400 1.368 . S
C416 C412 1.370 . S
C416 C415 1.523 . S
H417 C392 0.950 . S
H418 C394 0.950 . S
H419 C395 0.949 1_556 S
H420 C397 0.950 . S
H421 C399 0.950 . S
C422 C423 1.349 . S
C422 C424 1.327 . S
C422 H447 0.950 . S
C423 C422 1.349 . S
C423 C439 1.349 . S
C424 C422 1.327 . S
C424 C443 1.429 . S
C424 H448 0.950 . S
C425 C442 1.574 . S
C425 C444 1.368 . S
C425 H449 0.949 . S
H426 C430 0.949 . S
C427 C428 1.349 . S
C427 C429 1.327 . S
C427 H450 0.950 . S
C428 C427 1.349 . S
C428 C440 1.349 . S
C429 C427 1.327 . S
C429 C445 1.429 . S
C429 H451 0.950 . S
C430 H426 0.949 . S
C430 C438 1.574 . S
C430 C446 1.368 . S
H431 C439 0.950 . S
H432 C437 0.950 . S
H433 C438 0.949 . S
H434 C440 0.950 . S
H435 C441 0.950 . S
H436 C442 0.949 . S
C437 H432 0.950 . S
C437 C439 1.327 . S
C437 C443 1.429 . S
C438 C430 1.574 . S
C438 H433 0.949 . S
C438 C444 1.368 . S
C439 C423 1.349 . S
C439 H431 0.950 . S
C439 C437 1.327 . S
C440 C428 1.349 . S
C440 H434 0.950 . S
C440 C441 1.327 . S
C441 H435 0.950 . S
C441 C440 1.327 . S
C441 C445 1.429 . S
C442 C425 1.574 . S
C442 H436 0.949 . S
C442 C446 1.368 . S
C443 C424 1.429 . S
C443 C437 1.429 . S
C443 C444 1.523 . S
C444 C425 1.368 . S
C444 C438 1.368 . S
C444 C443 1.523 . S
C445 C429 1.429 . S
C445 C441 1.429 . S
C445 C446 1.523 . S
C446 C430 1.368 . S
C446 C442 1.368 . S
C446 C445 1.523 . S
H447 C422 0.950 . S
H448 C424 0.950 . S
H449 C425 0.949 . S
H450 C427 0.950 . S
H451 C429 0.950 . S
C452 C453 1.349 . S
C452 C454 1.327 . S
C452 H477 0.950 . S
C453 C452 1.349 . S
C453 C469 1.349 . S
C454 C452 1.327 . S
C454 C473 1.429 . S
C454 H478 0.950 . S
C455 C472 1.573 1_554 S
C455 C474 1.368 . S
C455 H479 0.949 1_554 S
H456 C460 0.949 . S
C457 C458 1.349 1_556 S
C457 C459 1.327 . S
C457 H480 0.950 . S
C458 C457 1.349 1_554 S
C458 C470 1.349 . S
C459 C457 1.327 . S
C459 C475 1.429 1_556 S
C459 H481 0.950 . S
C460 H456 0.949 . S
C460 C468 1.574 . S
C460 C476 1.368 . S
H461 C469 0.950 1_556 S
H462 C467 0.950 1_556 S
H463 C468 0.949 . S
H464 C470 0.950 . S
H465 C471 0.950 . S
H466 C472 0.959 . S
C467 H462 0.950 1_554 S
C467 C469 1.327 . S
C467 C473 1.429 . S
C468 C460 1.574 . S
C468 H463 0.949 . S
C468 C474 1.368 . S
C469 C453 1.349 . S
C469 H461 0.950 1_554 S
C469 C467 1.327 . S
C470 C458 1.349 . S
C470 H464 0.950 . S
C470 C471 1.327 . S
C471 H465 0.950 . S
C471 C470 1.327 . S
C471 C475 1.429 . S
C472 C455 1.573 1_556 S
C472 H466 0.959 . S
C472 C476 1.358 1_556 S
C473 C454 1.429 . S
C473 C467 1.429 . S
C473 C474 1.523 . S
C474 C455 1.368 . S
C474 C468 1.368 . S
C474 C473 1.523 . S
C475 C459 1.429 1_554 S
C475 C471 1.429 . S
C475 C476 1.523 . S
C476 C460 1.368 . S
C476 C472 1.358 1_554 S
C476 C475 1.523 . S
H477 C452 0.950 . S
H478 C454 0.950 . S
H479 C455 0.949 1_556 S
H480 C457 0.950 . S
H481 C459 0.950 . S
C482 C483 1.349 . S
C482 C484 1.327 . S
C482 H507 0.950 . S
C483 C482 1.349 . S
C483 C499 1.349 . S
C484 C482 1.327 . S
C484 C503 1.429 . S
C484 H508 0.950 . S
C485 C502 1.574 . S
C485 C504 1.368 . S
C485 H509 0.949 . S
H486 C490 0.949 . S
C487 C488 1.349 . S
C487 C489 1.327 . S
C487 H510 0.950 . S
C488 C487 1.349 . S
C488 C500 1.349 . S
C489 C487 1.327 . S
C489 C505 1.429 . S
C489 H511 0.950 . S
C490 H486 0.949 . S
C490 C498 1.574 . S
C490 C506 1.368 . S
H491 C499 0.950 . S
H492 C497 0.950 . S
H493 C498 0.949 . S
H494 C500 0.950 . S
H495 C501 0.950 . S
H496 C502 0.949 . S
C497 H492 0.950 . S
C497 C499 1.327 . S
C497 C503 1.429 . S
C498 C490 1.574 . S
C498 H493 0.949 . S
C498 C504 1.368 . S
C499 C483 1.349 . S
C499 H491 0.950 . S
C499 C497 1.327 . S
C500 C488 1.349 . S
C500 H494 0.950 . S
C500 C501 1.327 . S
C501 H495 0.950 . S
C501 C500 1.327 . S
C501 C505 1.429 . S
C502 C485 1.574 . S
C502 H496 0.949 . S
C502 C506 1.368 . S
C503 C484 1.429 . S
C503 C497 1.429 . S
C503 C504 1.523 . S
C504 C485 1.368 . S
C504 C498 1.368 . S
C504 C503 1.523 . S
C505 C489 1.429 . S
C505 C501 1.429 . S
C505 C506 1.523 . S
C506 C490 1.368 . S
C506 C502 1.368 . S
C506 C505 1.523 . S
H507 C482 0.950 . S
H508 C484 0.950 . S
H509 C485 0.949 . S
H510 C487 0.950 . S
H511 C489 0.950 . S
C512 C513 1.349 . S
C512 C514 1.327 . S
C512 H537 0.950 . S
C513 C512 1.349 . S
C513 C529 1.349 . S
C514 C512 1.327 . S
C514 C533 1.429 . S
C514 H538 0.950 . S
C515 C532 1.574 1_455 S
C515 C534 1.368 . S
C515 H539 0.949 1_554 S
H516 C520 0.949 . S
C517 C518 1.349 . S
C517 C519 1.327 . S
C517 H540 0.950 1_554 S
C518 C517 1.349 . S
C518 C530 1.349 . S
C519 C517 1.327 . S
C519 C535 1.429 . S
C519 H541 0.950 1_554 S
C520 H516 0.949 . S
C520 C528 1.574 1_655 S
C520 C536 1.368 . S
H521 C529 0.950 1_556 S
H522 C527 0.950 1_556 S
H523 C528 0.949 . S
H524 C530 0.950 . S
H525 C531 0.950 . S
H526 C532 0.949 1_556 S
C527 H522 0.950 1_554 S
C527 C529 1.327 . S
C527 C533 1.429 . S
C528 C520 1.574 1_455 S
C528 H523 0.949 . S
C528 C534 1.368 . S
C529 C513 1.349 . S
C529 H521 0.950 1_554 S
C529 C527 1.327 . S
C530 C518 1.349 . S
C530 H524 0.950 . S
C530 C531 1.327 . S
C531 H525 0.950 . S
C531 C530 1.327 . S
C531 C535 1.429 . S
C532 C515 1.574 1_655 S
C532 H526 0.949 1_554 S
C532 C536 1.368 . S
C533 C514 1.429 . S
C533 C527 1.429 . S
C533 C534 1.523 . S
C534 C515 1.368 . S
C534 C528 1.368 . S
C534 C533 1.523 . S
C535 C519 1.429 . S
C535 C531 1.429 . S
C535 C536 1.523 . S
C536 C520 1.368 . S
C536 C532 1.368 . S
C536 C535 1.523 . S
H537 C512 0.950 . S
H538 C514 0.950 . S
H539 C515 0.949 1_556 S
H540 C517 0.950 1_556 S
H541 C519 0.950 1_556 S
C542 C543 1.349 . S
C542 C544 1.327 . S
C542 H567 0.950 . S
C543 C542 1.349 . S
C543 C559 1.349 . S
C544 C542 1.327 . S
C544 C563 1.429 . S
C544 H568 0.950 . S
C545 C562 1.574 1_565 S
C545 C564 1.368 . S
C545 H569 0.949 . S
H546 C550 0.949 . S
C547 C548 1.349 . S
C547 C549 1.327 . S
C547 H570 0.950 . S
C548 C547 1.349 . S
C548 C560 1.349 . S
C549 C547 1.327 . S
C549 C565 1.429 . S
C549 H571 0.950 . S
C550 H546 0.949 . S
C550 C558 1.574 1_545 S
C550 C566 1.368 . S
H551 C559 0.950 . S
H552 C557 0.950 . S
H553 C558 0.949 . S
H554 C560 0.950 . S
H555 C561 0.950 . S
H556 C562 0.949 . S
C557 H552 0.950 . S
C557 C559 1.327 . S
C557 C563 1.429 . S
C558 C550 1.574 1_565 S
C558 H553 0.949 . S
C558 C564 1.368 . S
C559 C543 1.349 . S
C559 H551 0.950 . S
C559 C557 1.327 . S
C560 C548 1.349 . S
C560 H554 0.950 . S
C560 C561 1.327 . S
C561 H555 0.950 . S
C561 C560 1.327 . S
C561 C565 1.429 . S
C562 C545 1.574 1_545 S
C562 H556 0.949 . S
C562 C566 1.368 . S
C563 C544 1.429 . S
C563 C557 1.429 . S
C563 C564 1.523 . S
C564 C545 1.368 . S
C564 C558 1.368 . S
C564 C563 1.523 . S
C565 C549 1.429 . S
C565 C561 1.429 . S
C565 C566 1.523 . S
C566 C550 1.368 . S
C566 C562 1.368 . S
C566 C565 1.523 . S
H567 C542 0.950 . S
H568 C544 0.950 . S
H569 C545 0.949 . S
H570 C547 0.950 . S
H571 C549 0.950 . S
C572 C573 1.349 1_556 S
C572 C574 1.327 . S
C572 H597 0.950 . S
C573 C572 1.349 1_554 S
C573 C589 1.349 . S
C574 C572 1.327 . S
C574 C593 1.429 1_556 S
C574 H598 0.950 . S
C575 C592 1.579 . S
C575 C594 1.368 . S
C575 H599 0.949 . S
H576 C580 0.949 . S
C577 C578 1.349 . S
C577 C579 1.327 . S
C577 H600 0.950 . S
C578 C577 1.349 . S
C578 C590 1.349 1_554 S
C579 C577 1.327 . S
C579 C595 1.429 . S
C579 H601 0.950 . S
C580 H576 0.949 . S
C580 C588 1.579 . S
C580 C596 1.368 1_556 S
H581 C589 0.950 . S
H582 C587 0.950 . S
H583 C588 0.949 1_565 S
H584 C590 0.950 . S
H585 C591 0.950 . S
H586 C592 0.949 1_545 S
C587 H582 0.950 . S
C587 C589 1.327 . S
C587 C593 1.429 . S
C588 C580 1.579 . S
C588 H583 0.949 1_545 S
C588 C594 1.363 1_546 S
C589 C573 1.349 . S
C589 H581 0.950 . S
C589 C587 1.327 . S
C590 C578 1.349 1_556 S
C590 H584 0.950 . S
C590 C591 1.327 . S
C591 H585 0.950 . S
C591 C590 1.327 . S
C591 C595 1.429 1_556 S
C592 C575 1.579 . S
C592 H586 0.949 1_565 S
C592 C596 1.363 1_565 S
C593 C574 1.429 1_554 S
C593 C587 1.429 . S
C593 C594 1.523 . S
C594 C575 1.368 . S
C594 C588 1.363 1_564 S
C594 C593 1.523 . S
C595 C579 1.429 . S
C595 C591 1.429 1_554 S
C595 C596 1.523 . S
C596 C580 1.368 1_554 S
C596 C592 1.363 1_545 S
C596 C595 1.523 . S
H597 C572 0.950 . S
H598 C574 0.950 . S
H599 C575 0.949 . S
H600 C577 0.950 . S
H601 C579 0.950 . S
C602 C603 1.349 . S
C602 C604 1.327 . S
C602 H627 0.950 . S
C603 C602 1.349 . S
C603 C619 1.349 . S
C604 C602 1.327 . S
C604 C623 1.429 . S
C604 H628 0.950 . S
C605 C622 1.579 . S
C605 C624 1.363 1_455 S
C605 H629 0.949 1_455 S
H606 C610 0.949 1_455 S
C607 C608 1.349 . S
C607 C609 1.327 . S
C607 H630 0.950 . S
C608 C607 1.349 . S
C608 C620 1.349 . S
C609 C607 1.327 . S
C609 C625 1.429 . S
C609 H631 0.950 . S
C610 H606 0.949 1_655 S
C610 C618 1.579 . S
C610 C626 1.363 1_655 S
H611 C619 0.950 . S
H612 C617 0.950 . S
H613 C618 0.949 . S
H614 C620 0.950 . S
H615 C621 0.950 . S
H616 C622 0.949 . S
C617 H612 0.950 . S
C617 C619 1.327 . S
C617 C623 1.429 . S
C618 C610 1.579 . S
C618 H613 0.949 . S
C618 C624 1.368 . S
C619 C603 1.349 . S
C619 H611 0.950 . S
C619 C617 1.327 . S
C620 C608 1.349 . S
C620 H614 0.950 . S
C620 C621 1.327 . S
C621 H615 0.950 . S
C621 C620 1.327 . S
C621 C625 1.429 . S
C622 C605 1.579 . S
C622 H616 0.949 . S
C622 C626 1.368 . S
C623 C604 1.429 . S
C623 C617 1.429 . S
C623 C624 1.523 . S
C624 C605 1.363 1_655 S
C624 C618 1.368 . S
C624 C623 1.523 . S
C625 C609 1.429 . S
C625 C621 1.429 . S
C625 C626 1.523 . S
C626 C610 1.363 1_455 S
C626 C622 1.368 . S
C626 C625 1.523 . S
H627 C602 0.950 . S
H628 C604 0.950 . S
H629 C605 0.949 1_655 S
H630 C607 0.950 . S
H631 C609 0.950 . S
C632 C633 1.349 . S
C632 C634 1.327 . S
C632 H657 0.950 . S
C633 C632 1.349 . S
C633 C649 1.349 . S
C634 C632 1.327 . S
C634 C653 1.429 . S
C634 H658 0.950 . S
C635 C652 1.574 . S
C635 C654 1.368 . S
C635 H659 0.949 . S
H636 C640 0.949 . S
C637 C638 1.349 . S
C637 C639 1.327 . S
C637 H660 0.950 . S
C638 C637 1.349 . S
C638 C650 1.349 . S
C639 C637 1.327 . S
C639 C655 1.429 . S
C639 H661 0.950 . S
C640 H636 0.949 . S
C640 C648 1.574 . S
C640 C656 1.368 . S
H641 C649 0.950 . S
H642 C647 0.950 . S
H643 C648 0.949 . S
H644 C650 0.950 . S
H645 C651 0.950 . S
H646 C652 0.949 . S
C647 H642 0.950 . S
C647 C649 1.327 . S
C647 C653 1.429 . S
C648 C640 1.574 . S
C648 H643 0.949 . S
C648 C654 1.368 . S
C649 C633 1.349 . S
C649 H641 0.950 . S
C649 C647 1.327 . S
C650 C638 1.349 . S
C650 H644 0.950 . S
C650 C651 1.327 . S
C651 H645 0.950 . S
C651 C650 1.327 . S
C651 C655 1.429 . S
C652 C635 1.574 . S
C652 H646 0.949 . S
C652 C656 1.368 . S
C653 C634 1.429 . S
C653 C647 1.429 . S
C653 C654 1.523 . S
C654 C635 1.368 . S
C654 C648 1.368 . S
C654 C653 1.523 . S
C655 C639 1.429 . S
C655 C651 1.429 . S
C655 C656 1.523 . S
C656 C640 1.368 . S
C656 C652 1.368 . S
C656 C655 1.523 . S
H657 C632 0.950 . S
H658 C634 0.950 . S
H659 C635 0.949 . S
H660 C637 0.950 . S
H661 C639 0.950 . S
C662 C663 1.349 . S
C662 C664 1.327 . S
C662 H687 0.950 . S
C663 C662 1.349 . S
C663 C679 1.349 . S
C664 C662 1.327 . S
C664 C683 1.429 . S
C664 H688 0.950 . S
C665 C682 1.574 . S
C665 C684 1.368 . S
C665 H689 0.949 . S
H666 C670 0.949 . S
C667 C668 1.349 . S
C667 C669 1.327 . S
C667 H690 0.950 . S
C668 C667 1.349 . S
C668 C680 1.349 . S
C669 C667 1.327 . S
C669 C685 1.429 . S
C669 H691 0.950 . S
C670 H666 0.949 . S
C670 C678 1.574 . S
C670 C686 1.368 . S
H671 C679 0.950 . S
H672 C677 0.950 . S
H673 C678 0.949 . S
H674 C680 0.950 . S
H675 C681 0.950 . S
H676 C682 0.949 . S
C677 H672 0.950 . S
C677 C679 1.327 . S
C677 C683 1.429 . S
C678 C670 1.574 . S
C678 H673 0.949 . S
C678 C684 1.368 . S
C679 C663 1.349 . S
C679 H671 0.950 . S
C679 C677 1.327 . S
C680 C668 1.349 . S
C680 H674 0.950 . S
C680 C681 1.327 . S
C681 H675 0.950 . S
C681 C680 1.327 . S
C681 C685 1.429 . S
C682 C665 1.574 . S
C682 H676 0.949 . S
C682 C686 1.368 . S
C683 C664 1.429 . S
C683 C677 1.429 . S
C683 C684 1.523 . S
C684 C665 1.368 . S
C684 C678 1.368 . S
C684 C683 1.523 . S
C685 C669 1.429 . S
C685 C681 1.429 . S
C685 C686 1.523 . S
C686 C670 1.368 . S
C686 C682 1.368 . S
C686 C685 1.523 . S
H687 C662 0.950 . S
H688 C664 0.950 . S
H689 C665 0.949 . S
H690 C667 0.950 . S
H691 C669 0.950 . S
C692 C693 1.349 . S
C692 C694 1.327 . S
C692 H717 0.950 . S
C693 C692 1.349 . S
C693 C709 1.349 . S
C694 C692 1.327 . S
C694 C713 1.429 . S
C694 H718 0.950 . S
C695 C712 1.574 . S
C695 C714 1.368 . S
C695 H719 0.949 . S
H696 C700 0.949 . S
C697 C698 1.349 . S
C697 C699 1.327 . S
C697 H720 0.950 . S
C698 C697 1.349 . S
C698 C710 1.349 . S
C699 C697 1.327 . S
C699 C715 1.429 . S
C699 H721 0.950 . S
C700 H696 0.949 . S
C700 C708 1.574 . S
C700 C716 1.368 . S
H701 C709 0.950 . S
H702 C707 0.950 . S
H703 C708 0.949 . S
H704 C710 0.950 . S
H705 C711 0.950 . S
H706 C712 0.949 . S
C707 H702 0.950 . S
C707 C709 1.327 . S
C707 C713 1.429 . S
C708 C700 1.574 . S
C708 H703 0.949 . S
C708 C714 1.368 . S
C709 C693 1.349 . S
C709 H701 0.950 . S
C709 C707 1.327 . S
C710 C698 1.349 . S
C710 H704 0.950 . S
C710 C711 1.327 . S
C711 H705 0.950 . S
C711 C710 1.327 . S
C711 C715 1.429 . S
C712 C695 1.574 . S
C712 H706 0.949 . S
C712 C716 1.368 . S
C713 C694 1.429 . S
C713 C707 1.429 . S
C713 C714 1.523 . S
C714 C695 1.368 . S
C714 C708 1.368 . S
C714 C713 1.523 . S
C715 C699 1.429 . S
C715 C711 1.429 . S
C715 C716 1.523 . S
C716 C700 1.368 . S
C716 C712 1.368 . S
C716 C715 1.523 . S
H717 C692 0.950 . S
H718 C694 0.950 . S
H719 C695 0.949 . S
H720 C697 0.950 . S
H721 C699 0.950 . S
C722 C723 1.349 . S
C722 C724 1.327 . S
C722 H747 0.950 . S
C723 C722 1.349 . S
C723 C739 1.349 . S
C724 C722 1.327 . S
C724 C743 1.429 . S
C724 H748 0.950 . S
C725 C742 1.574 . S
C725 C744 1.368 . S
C725 H749 0.949 . S
H726 C730 0.949 . S
C727 C728 1.349 . S
C727 C729 1.327 . S
C727 H750 0.950 . S
C728 C727 1.349 . S
C728 C740 1.349 . S
C729 C727 1.327 . S
C729 C745 1.429 . S
C729 H751 0.950 . S
C730 H726 0.949 . S
C730 C738 1.574 . S
C730 C746 1.368 . S
H731 C739 0.950 . S
H732 C737 0.950 . S
H733 C738 0.949 . S
H734 C740 0.950 . S
H735 C741 0.950 . S
H736 C742 0.949 . S
C737 H732 0.950 . S
C737 C739 1.327 . S
C737 C743 1.429 . S
C738 C730 1.574 . S
C738 H733 0.949 . S
C738 C744 1.368 . S
C739 C723 1.349 . S
C739 H731 0.950 . S
C739 C737 1.327 . S
C740 C728 1.349 . S
C740 H734 0.950 . S
C740 C741 1.327 . S
C741 H735 0.950 . S
C741 C740 1.327 . S
C741 C745 1.429 . S
C742 C725 1.574 . S
C742 H736 0.949 . S
C742 C746 1.368 . S
C743 C724 1.429 . S
C743 C737 1.429 . S
C743 C744 1.523 . S
C744 C725 1.368 . S
C744 C738 1.368 . S
C744 C743 1.523 . S
C745 C729 1.429 . S
C745 C741 1.429 . S
C745 C746 1.523 . S
C746 C730 1.368 . S
C746 C742 1.368 . S
C746 C745 1.523 . S
H747 C722 0.950 . S
H748 C724 0.950 . S
H749 C725 0.949 . S
H750 C727 0.950 . S
H751 C729 0.950 . S
C752 C753 1.349 . S
C752 C754 1.327 . S
C752 H777 0.950 . S
C753 C752 1.349 . S
C753 C769 1.349 . S
C754 C752 1.327 . S
C754 C773 1.429 . S
C754 H778 0.950 . S
C755 C772 1.574 . S
C755 C774 1.368 . S
C755 H779 0.949 . S
H756 C760 0.949 . S
C757 C758 1.349 . S
C757 C759 1.327 . S
C757 H780 0.950 . S
C758 C757 1.349 . S
C758 C770 1.349 . S
C759 C757 1.327 . S
C759 C775 1.429 . S
C759 H781 0.950 . S
C760 H756 0.949 . S
C760 C768 1.574 . S
C760 C776 1.368 . S
H761 C769 0.950 . S
H762 C767 0.950 . S
H763 C768 0.949 . S
H764 C770 0.950 . S
H765 C771 0.950 . S
H766 C772 0.949 . S
C767 H762 0.950 . S
C767 C769 1.327 . S
C767 C773 1.429 . S
C768 C760 1.574 . S
C768 H763 0.949 . S
C768 C774 1.368 . S
C769 C753 1.349 . S
C769 H761 0.950 . S
C769 C767 1.327 . S
C770 C758 1.349 . S
C770 H764 0.950 . S
C770 C771 1.327 . S
C771 H765 0.950 . S
C771 C770 1.327 . S
C771 C775 1.429 . S
C772 C755 1.574 . S
C772 H766 0.949 . S
C772 C776 1.368 . S
C773 C754 1.429 . S
C773 C767 1.429 . S
C773 C774 1.523 . S
C774 C755 1.368 . S
C774 C768 1.368 . S
C774 C773 1.523 . S
C775 C759 1.429 . S
C775 C771 1.429 . S
C775 C776 1.523 . S
C776 C760 1.368 . S
C776 C772 1.368 . S
C776 C775 1.523 . S
H777 C752 0.950 . S
H778 C754 0.950 . S
H779 C755 0.949 . S
H780 C757 0.950 . S
H781 C759 0.950 . S
C782 C783 1.349 . S
C782 C784 1.327 . S
C782 H807 0.950 . S
C783 C782 1.349 . S
C783 C799 1.349 . S
C784 C782 1.327 . S
C784 C803 1.429 . S
C784 H808 0.950 . S
C785 C802 1.574 . S
C785 C804 1.368 . S
C785 H809 0.949 . S
H786 C790 0.949 . S
C787 C788 1.349 . S
C787 C789 1.327 . S
C787 H810 0.950 . S
C788 C787 1.349 . S
C788 C800 1.349 . S
C789 C787 1.327 . S
C789 C805 1.429 . S
C789 H811 0.950 . S
C790 H786 0.949 . S
C790 C798 1.574 . S
C790 C806 1.368 . S
H791 C799 0.950 . S
H792 C797 0.950 . S
H793 C798 0.949 . S
H794 C800 0.950 . S
H795 C801 0.950 . S
H796 C802 0.949 . S
C797 H792 0.950 . S
C797 C799 1.327 . S
C797 C803 1.429 . S
C798 C790 1.574 . S
C798 H793 0.949 . S
C798 C804 1.368 . S
C799 C783 1.349 . S
C799 H791 0.950 . S
C799 C797 1.327 . S
C800 C788 1.349 . S
C800 H794 0.950 . S
C800 C801 1.327 . S
C801 H795 0.950 . S
C801 C800 1.327 . S
C801 C805 1.429 . S
C802 C785 1.574 . S
C802 H796 0.949 . S
C802 C806 1.368 . S
C803 C784 1.429 . S
C803 C797 1.429 . S
C803 C804 1.523 . S
C804 C785 1.368 . S
C804 C798 1.368 . S
C804 C803 1.523 . S
C805 C789 1.429 . S
C805 C801 1.429 . S
C805 C806 1.523 . S
C806 C790 1.368 . S
C806 C802 1.368 . S
C806 C805 1.523 . S
H807 C782 0.950 . S
H808 C784 0.950 . S
H809 C785 0.949 . S
H810 C787 0.950 . S
H811 C789 0.950 . S
C812 C813 1.349 . S
C812 C814 1.327 . S
C812 H837 0.950 . S
C813 C812 1.349 . S
C813 C829 1.349 . S
C814 C812 1.327 . S
C814 C833 1.429 . S
C814 H838 0.950 . S
C815 C832 1.574 . S
C815 C834 1.368 . S
C815 H839 0.949 . S
H816 C820 0.949 . S
C817 C818 1.349 . S
C817 C819 1.327 . S
C817 H840 0.950 . S
C818 C817 1.349 . S
C818 C830 1.349 . S
C819 C817 1.327 . S
C819 C835 1.429 . S
C819 H841 0.950 . S
C820 H816 0.949 . S
C820 C828 1.574 . S
C820 C836 1.368 . S
H821 C829 0.950 . S
H822 C827 0.950 . S
H823 C828 0.949 . S
H824 C830 0.950 . S
H825 C831 0.950 . S
H826 C832 0.949 . S
C827 H822 0.950 . S
C827 C829 1.327 . S
C827 C833 1.429 . S
C828 C820 1.574 . S
C828 H823 0.949 . S
C828 C834 1.368 . S
C829 C813 1.349 . S
C829 H821 0.950 . S
C829 C827 1.327 . S
C830 C818 1.349 . S
C830 H824 0.950 . S
C830 C831 1.327 . S
C831 H825 0.950 . S
C831 C830 1.327 . S
C831 C835 1.429 . S
C832 C815 1.574 . S
C832 H826 0.949 . S
C832 C836 1.368 . S
C833 C814 1.429 . S
C833 C827 1.429 . S
C833 C834 1.523 . S
C834 C815 1.368 . S
C834 C828 1.368 . S
C834 C833 1.523 . S
C835 C819 1.429 . S
C835 C831 1.429 . S
C835 C836 1.523 . S
C836 C820 1.368 . S
C836 C832 1.368 . S
C836 C835 1.523 . S
H837 C812 0.950 . S
H838 C814 0.950 . S
H839 C815 0.949 . S
H840 C817 0.950 . S
H841 C819 0.950 . S
C842 C843 1.349 . S
C842 C844 1.327 . S
C842 H867 0.950 . S
C843 C842 1.349 . S
C843 C859 1.349 . S
C844 C842 1.327 . S
C844 C863 1.429 . S
C844 H868 0.950 . S
C845 C862 1.574 . S
C845 C864 1.368 . S
C845 H869 0.949 . S
H846 C850 0.949 . S
C847 C848 1.349 . S
C847 C849 1.327 . S
C847 H870 0.950 . S
C848 C847 1.349 . S
C848 C860 1.349 . S
C849 C847 1.327 . S
C849 C865 1.429 . S
C849 H871 0.950 . S
C850 H846 0.949 . S
C850 C858 1.574 . S
C850 C866 1.368 . S
H851 C859 0.950 . S
H852 C857 0.950 . S
H853 C858 0.949 . S
H854 C860 0.950 . S
H855 C861 0.950 . S
H856 C862 0.949 . S
C857 H852 0.950 . S
C857 C859 1.327 . S
C857 C863 1.429 . S
C858 C850 1.574 . S
C858 H853 0.949 . S
C858 C864 1.368 . S
C859 C843 1.349 . S
C859 H851 0.950 . S
C859 C857 1.327 . S
C860 C848 1.349 . S
C860 H854 0.950 . S
C860 C861 1.327 . S
C861 H855 0.950 . S
C861 C860 1.327 . S
C861 C865 1.429 . S
C862 C845 1.574 . S
C862 H856 0.949 . S
C862 C866 1.368 . S
C863 C844 1.429 . S
C863 C857 1.429 . S
C863 C864 1.523 . S
C864 C845 1.368 . S
C864 C858 1.368 . S
C864 C863 1.523 . S
C865 C849 1.429 . S
C865 C861 1.429 . S
C865 C866 1.523 . S
C866 C850 1.368 . S
C866 C862 1.368 . S
C866 C865 1.523 . S
H867 C842 0.950 . S
H868 C844 0.950 . S
H869 C845 0.949 . S
H870 C847 0.950 . S
H871 C849 0.950 . S
C273 C237 1.451 . S
C278 C20 1.476 . S
C303 C271 1.451 . S
C308 C54 1.476 . S
C333 C169 1.451 . S
C338 C88 1.476 . S
C363 C203 1.451 . S
C368 C122 1.476 . S
C393 C101 1.451 . S
C398 C156 1.476 . S
C423 C135 1.451 . S
C428 C190 1.476 . S
C453 C33 1.451 . S
C458 C224 1.476 . S
C483 C258 1.476 . S
C488 C67 1.451 . S
C513 C2 0.224 . S
C518 C70 0.224 . S
C543 C104 0.224 . S
C548 C36 0.224 . S
C573 C206 0.224 . S
C578 C138 0.224 . S
C603 C172 0.224 . S
C608 C240 0.224 . S
C633 C5 1.851 . S
C638 C243 1.851 . S
C663 C141 1.851 . S
C668 C39 1.851 . S
C693 C175 1.851 . S
C698 C73 1.851 . S
C723 C209 1.851 . S
C728 C107 1.851 . S
C753 C77 1.050 . S
C758 C179 1.050 . S
C783 C111 1.050 . S
C788 C213 1.050 . S
C813 C247 1.050 . S
C818 C9 1.050 . S
C843 C145 1.050 . S
C848 C43 1.050 . S
