# Generated by pormake.
# Topology cbo, (4)-cn, num edge types: 1
# Building blocks:
#     Node 0, Type 0, BuildingBlock: QUQFOY_clean_sbu_1, # of connection points: 4
#     Node 1, Type 0, BuildingBlock: QUQFOY_clean_sbu_1, # of connection points: 4
#     Node 2, Type 0, BuildingBlock: QUQFOY_clean_sbu_1, # of connection points: 4
#     Node 3, Type 0, BuildingBlock: QUQFOY_clean_sbu_1, # of connection points: 4
#     Node 4, Type 0, BuildingBlock: QUQFOY_clean_sbu_1, # of connection points: 4
#     Node 5, Type 0, BuildingBlock: QUQFOY_clean_sbu_1, # of connection points: 4
#     Node 6, Type 0, BuildingBlock: QUQFOY_clean_sbu_1, # of connection points: 4
#     Node 7, Type 0, BuildingBlock: QUQFOY_clean_sbu_1, # of connection points: 4
#     Node 8, Type 0, BuildingBlock: QUQFOY_clean_sbu_1, # of connection points: 4
#     Node 9, Type 0, BuildingBlock: QUQFOY_clean_sbu_1, # of connection points: 4
#     Node 10, Type 0, BuildingBlock: QUQFOY_clean_sbu_1, # of connection points: 4
#     Node 11, Type 0, BuildingBlock: QUQFOY_clean_sbu_1, # of connection points: 4
#     Node 12, Type 0, BuildingBlock: QUQFOY_clean_sbu_1, # of connection points: 4
#     Node 13, Type 0, BuildingBlock: QUQFOY_clean_sbu_1, # of connection points: 4
#     Node 14, Type 0, BuildingBlock: QUQFOY_clean_sbu_1, # of connection points: 4
#     Node 15, Type 0, BuildingBlock: QUQFOY_clean_sbu_1, # of connection points: 4
#     Node 16, Type 0, BuildingBlock: QUQFOY_clean_sbu_1, # of connection points: 4
#     Node 17, Type 0, BuildingBlock: QUQFOY_clean_sbu_1, # of connection points: 4
#     Node 18, Type 0, BuildingBlock: QUQFOY_clean_sbu_1, # of connection points: 4
#     Node 19, Type 0, BuildingBlock: QUQFOY_clean_sbu_1, # of connection points: 4
#     Node 20, Type 0, BuildingBlock: QUQFOY_clean_sbu_1, # of connection points: 4
#     Node 21, Type 0, BuildingBlock: QUQFOY_clean_sbu_1, # of connection points: 4
#     Node 22, Type 0, BuildingBlock: QUQFOY_clean_sbu_1, # of connection points: 4
#     Node 23, Type 0, BuildingBlock: QUQFOY_clean_sbu_1, # of connection points: 4
#     Edge 24, Type (0, 0), BuildingBlock: TEMPAE_clean_linker_10, # of connection points: 2
#     Edge 25, Type (0, 0), BuildingBlock: TEMPAE_clean_linker_10, # of connection points: 2
#     Edge 26, Type (0, 0), BuildingBlock: TEMPAE_clean_linker_10, # of connection points: 2
#     Edge 27, Type (0, 0), BuildingBlock: TEMPAE_clean_linker_10, # of connection points: 2
#     Edge 28, Type (0, 0), BuildingBlock: TEMPAE_clean_linker_10, # of connection points: 2
#     Edge 29, Type (0, 0), BuildingBlock: TEMPAE_clean_linker_10, # of connection points: 2
#     Edge 30, Type (0, 0), BuildingBlock: TEMPAE_clean_linker_10, # of connection points: 2
#     Edge 31, Type (0, 0), BuildingBlock: TEMPAE_clean_linker_10, # of connection points: 2
#     Edge 32, Type (0, 0), BuildingBlock: TEMPAE_clean_linker_10, # of connection points: 2
#     Edge 33, Type (0, 0), BuildingBlock: TEMPAE_clean_linker_10, # of connection points: 2
#     Edge 34, Type (0, 0), BuildingBlock: TEMPAE_clean_linker_10, # of connection points: 2
#     Edge 35, Type (0, 0), BuildingBlock: TEMPAE_clean_linker_10, # of connection points: 2
#     Edge 36, Type (0, 0), BuildingBlock: TEMPAE_clean_linker_10, # of connection points: 2
#     Edge 37, Type (0, 0), BuildingBlock: TEMPAE_clean_linker_10, # of connection points: 2
#     Edge 38, Type (0, 0), BuildingBlock: TEMPAE_clean_linker_10, # of connection points: 2
#     Edge 39, Type (0, 0), BuildingBlock: TEMPAE_clean_linker_10, # of connection points: 2
#     Edge 40, Type (0, 0), BuildingBlock: TEMPAE_clean_linker_10, # of connection points: 2
#     Edge 41, Type (0, 0), BuildingBlock: TEMPAE_clean_linker_10, # of connection points: 2
#     Edge 42, Type (0, 0), BuildingBlock: TEMPAE_clean_linker_10, # of connection points: 2
#     Edge 43, Type (0, 0), BuildingBlock: TEMPAE_clean_linker_10, # of connection points: 2
#     Edge 44, Type (0, 0), BuildingBlock: TEMPAE_clean_linker_10, # of connection points: 2
#     Edge 45, Type (0, 0), BuildingBlock: TEMPAE_clean_linker_10, # of connection points: 2
#     Edge 46, Type (0, 0), BuildingBlock: TEMPAE_clean_linker_10, # of connection points: 2
#     Edge 47, Type (0, 0), BuildingBlock: TEMPAE_clean_linker_10, # of connection points: 2
#     Edge 48, Type (0, 0), BuildingBlock: TEMPAE_clean_linker_10, # of connection points: 2
#     Edge 49, Type (0, 0), BuildingBlock: TEMPAE_clean_linker_10, # of connection points: 2
#     Edge 50, Type (0, 0), BuildingBlock: TEMPAE_clean_linker_10, # of connection points: 2
#     Edge 51, Type (0, 0), BuildingBlock: TEMPAE_clean_linker_10, # of connection points: 2
#     Edge 52, Type (0, 0), BuildingBlock: TEMPAE_clean_linker_10, # of connection points: 2
#     Edge 53, Type (0, 0), BuildingBlock: TEMPAE_clean_linker_10, # of connection points: 2
#     Edge 54, Type (0, 0), BuildingBlock: TEMPAE_clean_linker_10, # of connection points: 2
#     Edge 55, Type (0, 0), BuildingBlock: TEMPAE_clean_linker_10, # of connection points: 2
#     Edge 56, Type (0, 0), BuildingBlock: TEMPAE_clean_linker_10, # of connection points: 2
#     Edge 57, Type (0, 0), BuildingBlock: TEMPAE_clean_linker_10, # of connection points: 2
#     Edge 58, Type (0, 0), BuildingBlock: TEMPAE_clean_linker_10, # of connection points: 2
#     Edge 59, Type (0, 0), BuildingBlock: TEMPAE_clean_linker_10, # of connection points: 2
#     Edge 60, Type (0, 0), BuildingBlock: TEMPAE_clean_linker_10, # of connection points: 2
#     Edge 61, Type (0, 0), BuildingBlock: TEMPAE_clean_linker_10, # of connection points: 2
#     Edge 62, Type (0, 0), BuildingBlock: TEMPAE_clean_linker_10, # of connection points: 2
#     Edge 63, Type (0, 0), BuildingBlock: TEMPAE_clean_linker_10, # of connection points: 2
#     Edge 64, Type (0, 0), BuildingBlock: TEMPAE_clean_linker_10, # of connection points: 2
#     Edge 65, Type (0, 0), BuildingBlock: TEMPAE_clean_linker_10, # of connection points: 2
#     Edge 66, Type (0, 0), BuildingBlock: TEMPAE_clean_linker_10, # of connection points: 2
#     Edge 67, Type (0, 0), BuildingBlock: TEMPAE_clean_linker_10, # of connection points: 2
#     Edge 68, Type (0, 0), BuildingBlock: TEMPAE_clean_linker_10, # of connection points: 2
#     Edge 69, Type (0, 0), BuildingBlock: TEMPAE_clean_linker_10, # of connection points: 2
#     Edge 70, Type (0, 0), BuildingBlock: TEMPAE_clean_linker_10, # of connection points: 2
#     Edge 71, Type (0, 0), BuildingBlock: TEMPAE_clean_linker_10, # of connection points: 2
# Relax obj value: 0.095
# Max RMSD: 0.124
# Mean RMSD: 0.124
data_MOF--net-cbo--node1-QUQFOY_clean_sbu_1--edge1-TEMPAE_clean_linker_10
_symmetry_space_group_name_H-M    P1
_symmetry_Int_Tables_number       1
_symmetry_cell_setting            triclinic
loop_
_symmetry_equiv_pos_as_xyz
'x, y, z'
_cell_length_a     54.563964
_cell_length_b     54.540178
_cell_length_c     54.580419
_cell_angle_alpha  89.997776
_cell_angle_beta   90.0048
_cell_angle_gamma 89.997642
loop_
_atom_site_label
_atom_site_type_symbol
_atom_site_fract_x
_atom_site_fract_y
_atom_site_fract_z
_atom_type_partial_charge
O0 O 0.10621 0.18759 0.28904 0.0
Cd1 Cd 0.10592 0.1572 0.31158 0.0
Cd2 Cd 0.12771 0.18831 0.34074 0.0
O3 O 0.11502 0.21519 0.31718 0.0
O4 O 0.07941 0.13555 0.29867 0.0
O5 O 0.078 0.15328 0.3351 0.0
C6 C 0.06746 0.13999 0.31858 0.0
C7 C 0.12126 0.18963 0.38298 0.0
C8 C 0.10903 0.20988 0.2953 0.0
C9 C 0.1583 0.14804 0.3185 0.0
O10 O 0.15803 0.16909 0.32853 0.0
O11 O 0.13826 0.13763 0.31274 0.0
O12 O 0.13726 0.20359 0.37254 0.0
O13 O 0.1083 0.17539 0.3692 0.0
O14 O 0.40064 0.8129 0.79509 0.0
Cd15 Cd 0.39836 0.84735 0.81023 0.0
Cd16 Cd 0.36751 0.82553 0.84103 0.0
O17 O 0.37388 0.79492 0.8195 0.0
O18 O 0.42702 0.86527 0.79647 0.0
O19 O 0.42305 0.85676 0.83589 0.0
C20 C 0.43608 0.86572 0.81828 0.0
C21 C 0.37257 0.82423 0.8834 0.0
C22 C 0.38854 0.79406 0.8014 0.0
C23 C 0.34627 0.86532 0.81023 0.0
O24 O 0.34239 0.85008 0.82738 0.0
O25 O 0.36753 0.86743 0.80089 0.0
O26 O 0.35398 0.81409 0.87287 0.0
O27 O 0.38876 0.83472 0.86967 0.0
O28 O 0.60814 0.3202 0.71232 0.0
Cd29 Cd 0.60837 0.35079 0.69008 0.0
Cd30 Cd 0.63005 0.31992 0.66089 0.0
O31 O 0.61646 0.29291 0.68377 0.0
O32 O 0.58142 0.37226 0.70228 0.0
O33 O 0.58111 0.35449 0.66582 0.0
C34 C 0.57001 0.36764 0.68209 0.0
C35 C 0.62521 0.31872 0.61848 0.0
C36 C 0.61046 0.29798 0.70569 0.0
C37 C 0.66074 0.35957 0.68417 0.0
O38 O 0.6603 0.33861 0.67397 0.0
O39 O 0.64076 0.37024 0.68966 0.0
O40 O 0.64073 0.30467 0.62949 0.0
O41 O 0.61173 0.33294 0.63175 0.0
O42 O 0.9028 0.6875 0.20801 0.0
Cd43 Cd 0.90077 0.6536 0.19111 0.0
Cd44 Cd 0.87325 0.6786 0.15968 0.0
O45 O 0.88197 0.70876 0.18059 0.0
O46 O 0.92837 0.63425 0.20524 0.0
O47 O 0.92676 0.64552 0.16632 0.0
C48 C 0.93864 0.63514 0.18398 0.0
C49 C 0.87803 0.67865 0.11724 0.0
C50 C 0.89407 0.70773 0.20045 0.0
C51 C 0.8479 0.6395 0.18876 0.0
O52 O 0.84574 0.65727 0.1739 0.0
O53 O 0.86892 0.63348 0.19688 0.0
O54 O 0.86054 0.69061 0.12773 0.0
O55 O 0.89338 0.66704 0.13104 0.0
O56 O 0.28724 0.10661 0.18319 0.0
Cd57 Cd 0.30916 0.1058 0.15238 0.0
Cd58 Cd 0.33888 0.1283 0.18225 0.0
O59 O 0.3161 0.11586 0.20986 0.0
O60 O 0.29686 0.07815 0.13185 0.0
O61 O 0.33348 0.07845 0.14929 0.0
C62 C 0.31714 0.06694 0.13658 0.0
C63 C 0.38139 0.12401 0.18395 0.0
C64 C 0.29408 0.10977 0.20523 0.0
C65 C 0.31525 0.15793 0.14195 0.0
O66 O 0.32582 0.15802 0.16271 0.0
O67 O 0.30938 0.13768 0.13199 0.0
O68 O 0.37005 0.13988 0.19732 0.0
O69 O 0.36841 0.10984 0.17014 0.0
O70 O 0.20866 0.9042 0.68618 0.0
Cd71 Cd 0.19302 0.90128 0.65204 0.0
Cd72 Cd 0.16148 0.87198 0.67515 0.0
O73 O 0.18342 0.87905 0.70532 0.0
O74 O 0.20679 0.92919 0.63295 0.0
O75 O 0.16753 0.92615 0.64267 0.0
C76 C 0.18512 0.93862 0.63287 0.0
C77 C 0.11903 0.87669 0.67707 0.0
C78 C 0.20204 0.89308 0.70551 0.0
C79 C 0.19156 0.84866 0.63584 0.0
O80 O 0.17451 0.84577 0.6514 0.0
O81 O 0.20137 0.8696 0.63282 0.0
O82 O 0.12997 0.85853 0.68754 0.0
O83 O 0.13241 0.89276 0.66594 0.0
O84 O 0.78891 0.39432 0.82192 0.0
Cd85 Cd 0.81084 0.39415 0.85271 0.0
Cd86 Cd 0.84055 0.37239 0.8223 0.0
O87 O 0.81784 0.38577 0.79509 0.0
O88 O 0.79871 0.42136 0.87389 0.0
O89 O 0.83531 0.42121 0.85637 0.0
C90 C 0.81905 0.43257 0.86931 0.0
C91 C 0.88297 0.37732 0.82072 0.0
C92 C 0.79586 0.39186 0.79982 0.0
C93 C 0.8169 0.34178 0.86182 0.0
O94 O 0.8275 0.34215 0.84107 0.0
O95 O 0.81105 0.36179 0.87224 0.0
O96 O 0.87187 0.36165 0.80691 0.0
O97 O 0.86978 0.39078 0.83505 0.0
O98 O 0.71536 0.6073 0.3246 0.0
Cd99 Cd 0.69143 0.60792 0.35382 0.0
Cd100 Cd 0.6631 0.62624 0.32018 0.0
O101 O 0.68773 0.61131 0.29543 0.0
O102 O 0.70268 0.58178 0.37685 0.0
O103 O 0.66756 0.58027 0.35659 0.0
C104 C 0.68313 0.56977 0.37101 0.0
C105 C 0.62074 0.62096 0.3174 0.0
C106 C 0.70974 0.60731 0.302 0.0
C107 C 0.68357 0.66034 0.3587 0.0
O108 O 0.6748 0.658 0.33724 0.0
O109 O 0.68864 0.64137 0.37128 0.0
O110 O 0.6323 0.63547 0.30274 0.0
O111 O 0.63345 0.60859 0.33306 0.0
O112 O 0.18152 0.29011 0.10376 0.0
Cd113 Cd 0.15142 0.31298 0.10356 0.0
Cd114 Cd 0.18306 0.34227 0.12433 0.0
O115 O 0.20944 0.3183 0.11129 0.0
O116 O 0.12955 0.30069 0.07692 0.0
O117 O 0.14817 0.33672 0.07578 0.0
C118 C 0.13462 0.32053 0.06506 0.0
C119 C 0.18515 0.38458 0.1181 0.0
C120 C 0.20388 0.29631 0.10589 0.0
C121 C 0.1432 0.32046 0.1559 0.0
O122 O 0.16428 0.33039 0.15505 0.0
O123 O 0.13231 0.31458 0.13615 0.0
O124 O 0.19914 0.37374 0.13379 0.0
O125 O 0.17044 0.37117 0.10529 0.0
O126 O 0.67949 0.21295 0.89598 0.0
Cd127 Cd 0.64867 0.19104 0.89572 0.0
Cd128 Cd 0.67939 0.16106 0.87476 0.0
O129 O 0.70648 0.18398 0.88807 0.0
O130 O 0.62715 0.20361 0.92245 0.0
O131 O 0.64456 0.16695 0.92307 0.0
C132 C 0.63151 0.18342 0.934 0.0
C133 C 0.68088 0.11865 0.88006 0.0
C134 C 0.70164 0.20604 0.89382 0.0
C135 C 0.64024 0.18437 0.84336 0.0
O136 O 0.66098 0.17375 0.84417 0.0
O137 O 0.62955 0.19049 0.86313 0.0
O138 O 0.69482 0.12961 0.86442 0.0
O139 O 0.66652 0.13196 0.89335 0.0
O140 O 0.8191 0.7896 0.39636 0.0
Cd141 Cd 0.85129 0.80901 0.39669 0.0
Cd142 Cd 0.82567 0.83959 0.36919 0.0
O143 O 0.79596 0.81767 0.37872 0.0
O144 O 0.86991 0.79614 0.4253 0.0
O145 O 0.85665 0.8344 0.42275 0.0
C146 C 0.86741 0.81743 0.43529 0.0
C147 C 0.82407 0.88216 0.37336 0.0
C148 C 0.79829 0.79675 0.38878 0.0
C149 C 0.867 0.81189 0.345 0.0
O150 O 0.84869 0.82603 0.34217 0.0
O151 O 0.87264 0.80397 0.36616 0.0
O152 O 0.81265 0.87101 0.35592 0.0
O153 O 0.83596 0.86896 0.38901 0.0
O154 O 0.31127 0.70634 0.60091 0.0
Cd155 Cd 0.34521 0.69026 0.60406 0.0
Cd156 Cd 0.32159 0.65999 0.63416 0.0
O157 O 0.29163 0.68213 0.62668 0.0
O158 O 0.36424 0.70382 0.57604 0.0
O159 O 0.35464 0.66457 0.57937 0.0
C160 C 0.36438 0.68209 0.56676 0.0
C161 C 0.32021 0.61756 0.62926 0.0
C162 C 0.29182 0.7004 0.61219 0.0
C163 C 0.36147 0.68986 0.65665 0.0
O164 O 0.34549 0.67329 0.66006 0.0
O165 O 0.36469 0.69898 0.63543 0.0
O166 O 0.30942 0.62826 0.64737 0.0
O167 O 0.33124 0.63117 0.61332 0.0
O168 O 0.90157 0.8102 0.70679 0.0
Cd169 Cd 0.89908 0.84473 0.69183 0.0
Cd170 Cd 0.86865 0.82288 0.66066 0.0
O171 O 0.87502 0.79223 0.68213 0.0
O172 O 0.92758 0.86293 0.70561 0.0
O173 O 0.92364 0.85449 0.66617 0.0
C174 C 0.93658 0.86359 0.68378 0.0
C175 C 0.87406 0.82178 0.61833 0.0
C176 C 0.88958 0.79133 0.70031 0.0
C177 C 0.84685 0.86233 0.69148 0.0
O178 O 0.84325 0.8472 0.67417 0.0
O179 O 0.868 0.86449 0.70107 0.0
O180 O 0.85545 0.81149 0.62867 0.0
O181 O 0.89008 0.8323 0.63224 0.0
O182 O 0.59948 0.1956 0.20655 0.0
Cd183 Cd 0.60147 0.16126 0.1911 0.0
Cd184 Cd 0.63099 0.18355 0.15922 0.0
O185 O 0.62507 0.21396 0.18118 0.0
O186 O 0.5736 0.14276 0.20573 0.0
O187 O 0.57592 0.15181 0.16629 0.0
C188 C 0.56375 0.14237 0.18427 0.0
C189 C 0.62452 0.18484 0.11702 0.0
C190 C 0.61116 0.21459 0.19987 0.0
C191 C 0.65375 0.14381 0.18899 0.0
O192 O 0.65687 0.15921 0.17184 0.0
O193 O 0.63286 0.14143 0.19907 0.0
O194 O 0.64326 0.19529 0.12697 0.0
O195 O 0.60893 0.17412 0.13126 0.0
O196 O 0.40116 0.69034 0.29387 0.0
Cd197 Cd 0.39983 0.65626 0.31052 0.0
Cd198 Cd 0.37152 0.68041 0.34195 0.0
O199 O 0.37956 0.71089 0.32122 0.0
O200 O 0.42771 0.63758 0.29608 0.0
O201 O 0.42606 0.64833 0.33513 0.0
C202 C 0.43803 0.63833 0.31731 0.0
C203 C 0.37633 0.68024 0.38439 0.0
C204 C 0.39182 0.71029 0.30145 0.0
C205 C 0.34725 0.64092 0.31254 0.0
O206 O 0.34457 0.65852 0.32752 0.0
O207 O 0.36846 0.63549 0.30448 0.0
O208 O 0.35856 0.69188 0.374 0.0
O209 O 0.39192 0.66908 0.3705 0.0
O210 O 0.10418 0.31691 0.78861 0.0
Cd211 Cd 0.10424 0.34851 0.80895 0.0
Cd212 Cd 0.13002 0.32112 0.83952 0.0
O213 O 0.11992 0.29236 0.8166 0.0
O214 O 0.07629 0.36843 0.79644 0.0
O215 O 0.0779 0.3534 0.83407 0.0
C216 C 0.0659 0.36521 0.81742 0.0
C217 C 0.12425 0.31924 0.88186 0.0
C218 C 0.1107 0.29563 0.79543 0.0
C219 C 0.15635 0.36235 0.81372 0.0
O220 O 0.15822 0.34345 0.82724 0.0
O221 O 0.13559 0.36902 0.80554 0.0
O222 O 0.14152 0.30707 0.87122 0.0
O223 O 0.10967 0.33198 0.86824 0.0
O224 O 0.70809 0.90125 0.81426 0.0
Cd225 Cd 0.69232 0.89857 0.84836 0.0
Cd226 Cd 0.6611 0.86897 0.8254 0.0
O227 O 0.68311 0.87576 0.79521 0.0
O228 O 0.70586 0.92676 0.8672 0.0
O229 O 0.66665 0.92334 0.85743 0.0
C230 C 0.68413 0.93604 0.86713 0.0
C231 C 0.61877 0.87449 0.8238 0.0
C232 C 0.70164 0.8899 0.795 0.0
C233 C 0.69102 0.84611 0.86505 0.0
O234 O 0.67407 0.84298 0.84943 0.0
O235 O 0.70072 0.86713 0.86791 0.0
O236 O 0.62923 0.85603 0.81336 0.0
O237 O 0.63256 0.89035 0.83471 0.0
O238 O 0.79479 0.10089 0.30759 0.0
Cd239 Cd 0.81089 0.1029 0.34159 0.0
Cd240 Cd 0.84209 0.13277 0.31875 0.0
O241 O 0.8198 0.12643 0.28866 0.0
O242 O 0.79722 0.07449 0.36003 0.0
O243 O 0.83643 0.07779 0.35025 0.0
C244 C 0.81889 0.06506 0.35982 0.0
C245 C 0.88446 0.12749 0.31687 0.0
C246 C 0.80113 0.11247 0.28843 0.0
C247 C 0.81255 0.15517 0.35896 0.0
O248 O 0.82932 0.15847 0.34318 0.0
O249 O 0.80283 0.13413 0.36168 0.0
O250 O 0.87382 0.14589 0.30651 0.0
O251 O 0.87081 0.1115 0.32778 0.0
O252 O 0.21618 0.60561 0.17589 0.0
Cd253 Cd 0.19217 0.606 0.14672 0.0
Cd254 Cd 0.16356 0.62382 0.18042 0.0
O255 O 0.18848 0.60917 0.20505 0.0
O256 O 0.20332 0.57998 0.1235 0.0
O257 O 0.16849 0.57818 0.14424 0.0
C258 C 0.18392 0.56784 0.12956 0.0
C259 C 0.12126 0.61811 0.18345 0.0
C260 C 0.21054 0.6055 0.19849 0.0
C261 C 0.18347 0.65834 0.14201 0.0
O262 O 0.17474 0.65581 0.16346 0.0
O263 O 0.18884 0.63949 0.12938 0.0
O264 O 0.13278 0.63267 0.1981 0.0
O265 O 0.13399 0.60591 0.16768 0.0
O266 O 0.29719 0.39799 0.69402 0.0
Cd267 Cd 0.31423 0.39644 0.66016 0.0
Cd268 Cd 0.34475 0.36756 0.6848 0.0
O269 O 0.32364 0.37565 0.71496 0.0
O270 O 0.29965 0.42424 0.64146 0.0
O271 O 0.33874 0.42273 0.65201 0.0
C272 C 0.32086 0.43464 0.64207 0.0
C273 C 0.38698 0.37361 0.68453 0.0
C274 C 0.30417 0.38839 0.71405 0.0
C275 C 0.31588 0.34376 0.64476 0.0
O276 O 0.33052 0.34075 0.66261 0.0
O277 O 0.30819 0.36511 0.63935 0.0
O278 O 0.37718 0.35554 0.69625 0.0
O279 O 0.37259 0.3887 0.6733 0.0
O280 O 0.81147 0.70456 0.90109 0.0
Cd281 Cd 0.84543 0.68851 0.89785 0.0
Cd282 Cd 0.82177 0.65803 0.86802 0.0
O283 O 0.79193 0.68038 0.87522 0.0
O284 O 0.86467 0.7022 0.92568 0.0
O285 O 0.85504 0.66294 0.92256 0.0
C286 C 0.8649 0.6805 0.93502 0.0
C287 C 0.82026 0.61583 0.87445 0.0
C288 C 0.79206 0.69864 0.88971 0.0
C289 C 0.86159 0.68756 0.84516 0.0
O290 O 0.84574 0.67083 0.8419 0.0
O291 O 0.86469 0.69695 0.86627 0.0
O292 O 0.80948 0.62588 0.85595 0.0
O293 O 0.83148 0.62997 0.88978 0.0
O294 O 0.31615 0.79074 0.10492 0.0
Cd295 Cd 0.34795 0.81078 0.10489 0.0
Cd296 Cd 0.32137 0.84085 0.1321 0.0
O297 O 0.29222 0.8183 0.12229 0.0
O298 O 0.36715 0.79811 0.07654 0.0
O299 O 0.35317 0.83612 0.07875 0.0
C300 C 0.36437 0.8193 0.06641 0.0
C301 C 0.31951 0.88332 0.12708 0.0
C302 C 0.29511 0.79743 0.11228 0.0
C303 C 0.36294 0.81406 0.15684 0.0
O304 O 0.3443 0.82781 0.15947 0.0
O305 O 0.36899 0.80628 0.13574 0.0
O306 O 0.30781 0.87243 0.1445 0.0
O307 O 0.33183 0.8699 0.11196 0.0
O308 O 0.17701 0.21631 0.60518 0.0
Cd309 Cd 0.14731 0.19295 0.60472 0.0
Cd310 Cd 0.17986 0.16341 0.62303 0.0
O311 O 0.20541 0.18788 0.60927 0.0
O312 O 0.12488 0.20492 0.57841 0.0
O313 O 0.1448 0.16958 0.57663 0.0
C314 C 0.13068 0.18548 0.5662 0.0
C315 C 0.18259 0.1211 0.61714 0.0
C316 C 0.19947 0.21012 0.60559 0.0
C317 C 0.14108 0.18386 0.65679 0.0
O318 O 0.16237 0.17461 0.6547 0.0
O319 O 0.12908 0.18976 0.6377 0.0
O320 O 0.19693 0.1324 0.63218 0.0
O321 O 0.16726 0.13406 0.60461 0.0
O322 O 0.69389 0.29681 0.40055 0.0
Cd323 Cd 0.66002 0.31318 0.39839 0.0
Cd324 Cd 0.68333 0.34438 0.36892 0.0
O325 O 0.7132 0.32173 0.37521 0.0
O326 O 0.64109 0.29875 0.42607 0.0
O327 O 0.65105 0.33801 0.42408 0.0
C328 C 0.6412 0.32014 0.4361 0.0
C329 C 0.68492 0.38651 0.37603 0.0
C330 C 0.71317 0.303 0.38911 0.0
C331 C 0.64306 0.31549 0.34597 0.0
O332 O 0.65901 0.33215 0.34282 0.0
O333 O 0.64017 0.3057 0.36693 0.0
O334 O 0.69556 0.37675 0.3573 0.0
O335 O 0.67385 0.37211 0.39123 0.0
C336 C 0.10914 0.30407 0.18216 0.0
C337 C 0.13356 0.31172 0.17974 0.0
C338 C 0.10135 0.29115 0.20306 0.0
C339 C 0.11861 0.28505 0.22147 0.0
C340 C 0.14281 0.29427 0.21989 0.0
C341 C 0.14987 0.30781 0.19923 0.0
C342 C 0.07511 0.28259 0.20461 0.0
C343 C 0.16198 0.28786 0.23882 0.0
C344 C 0.10404 0.25381 0.28216 0.0
C345 C 0.10834 0.22915 0.27622 0.0
C346 C 0.10572 0.27223 0.26415 0.0
C347 C 0.11282 0.26587 0.24001 0.0
C348 C 0.11658 0.24091 0.23388 0.0
C349 C 0.1139 0.22289 0.25194 0.0
C350 C 0.10066 0.2985 0.27118 0.0
C351 C 0.12476 0.23329 0.20853 0.0
H352 H 0.09634 0.30731 0.1673 0.0
H353 H 0.16877 0.31365 0.19756 0.0
H354 H 0.0741 0.26287 0.19975 0.0
H355 H 0.06798 0.28464 0.22354 0.0
H356 H 0.06305 0.29293 0.19186 0.0
H357 H 0.17924 0.29833 0.23616 0.0
H358 H 0.15504 0.29149 0.25755 0.0
H359 H 0.16625 0.268 0.23764 0.0
H360 H 0.09957 0.2587 0.30086 0.0
H361 H 0.11743 0.20388 0.24726 0.0
H362 H 0.08955 0.30775 0.25687 0.0
H363 H 0.11821 0.30863 0.27278 0.0
H364 H 0.09089 0.29983 0.28898 0.0
H365 H 0.11145 0.23978 0.19462 0.0
H366 H 0.12665 0.21309 0.20672 0.0
H367 H 0.14271 0.24185 0.20425 0.0
C368 C 0.41038 0.76572 0.77291 0.0
C369 C 0.38883 0.77249 0.78513 0.0
C370 C 0.40983 0.74854 0.75375 0.0
C371 C 0.38703 0.73889 0.74597 0.0
C372 C 0.36543 0.74469 0.75919 0.0
C373 C 0.3667 0.76109 0.77894 0.0
C374 C 0.43341 0.74188 0.74093 0.0
C375 C 0.34065 0.73529 0.7512 0.0
C376 C 0.37635 0.72688 0.67848 0.0
C377 C 0.37305 0.70142 0.67819 0.0
C378 C 0.38185 0.73921 0.70033 0.0
C379 C 0.38506 0.72562 0.72223 0.0
C380 C 0.38387 0.69969 0.72157 0.0
C381 C 0.37732 0.6879 0.69962 0.0
C382 C 0.38236 0.76691 0.70028 0.0
C383 C 0.3883 0.68448 0.74423 0.0
H384 H 0.42755 0.77445 0.77783 0.0
H385 H 0.35 0.76652 0.78825 0.0
H386 H 0.43398 0.72196 0.73682 0.0
H387 H 0.43459 0.75185 0.72326 0.0
H388 H 0.44971 0.74677 0.7521 0.0
H389 H 0.32588 0.74038 0.76426 0.0
H390 H 0.33604 0.74301 0.73294 0.0
H391 H 0.34096 0.71506 0.74934 0.0
H392 H 0.3728 0.7374 0.662 0.0
H393 H 0.37486 0.66817 0.69939 0.0
H394 H 0.39986 0.77368 0.70806 0.0
H395 H 0.36734 0.77404 0.71201 0.0
H396 H 0.38018 0.77468 0.68159 0.0
H397 H 0.40414 0.6917 0.75476 0.0
H398 H 0.39178 0.66494 0.73966 0.0
H399 H 0.37198 0.68536 0.75631 0.0
C400 C 0.61488 0.28401 0.74877 0.0
C401 C 0.60911 0.27839 0.72439 0.0
C402 C 0.61682 0.26557 0.76651 0.0
C403 C 0.61208 0.2409 0.75993 0.0
C404 C 0.60479 0.23525 0.73566 0.0
C405 C 0.60386 0.25404 0.718 0.0
C406 C 0.62525 0.27242 0.79199 0.0
C407 C 0.5987 0.20933 0.72816 0.0
C408 C 0.6474 0.19704 0.80013 0.0
C409 C 0.63094 0.19358 0.81958 0.0
C410 C 0.64088 0.21103 0.7796 0.0
C411 C 0.61706 0.22119 0.77812 0.0
C412 C 0.59955 0.21554 0.79643 0.0
C413 C 0.60681 0.20213 0.8172 0.0
C414 C 0.6603 0.21692 0.76077 0.0
C415 C 0.57365 0.22512 0.79495 0.0
H416 H 0.61912 0.30277 0.75379 0.0
H417 H 0.59922 0.24966 0.69919 0.0
H418 H 0.61164 0.26627 0.80577 0.0
H419 H 0.64281 0.26303 0.79618 0.0
H420 H 0.62799 0.29248 0.79415 0.0
H421 H 0.58881 0.20873 0.71038 0.0
H422 H 0.61584 0.19857 0.72627 0.0
H423 H 0.58729 0.20024 0.74234 0.0
H424 H 0.66608 0.19047 0.80176 0.0
H425 H 0.59389 0.19924 0.83202 0.0
H426 H 0.6654 0.23657 0.76226 0.0
H427 H 0.65323 0.21388 0.74199 0.0
H428 H 0.67711 0.2057 0.76328 0.0
H429 H 0.57338 0.24479 0.80011 0.0
H430 H 0.56117 0.21505 0.80751 0.0
H431 H 0.5665 0.22364 0.77597 0.0
C432 C 0.87229 0.74022 0.22329 0.0
C433 C 0.89447 0.72903 0.21695 0.0
C434 C 0.87105 0.75678 0.24289 0.0
C435 C 0.89277 0.76309 0.25569 0.0
C436 C 0.91558 0.75356 0.24775 0.0
C437 C 0.91608 0.73602 0.22889 0.0
C438 C 0.84622 0.76581 0.25117 0.0
C439 C 0.93927 0.7609 0.25998 0.0
C440 C 0.88178 0.81423 0.30161 0.0
C441 C 0.8785 0.80077 0.32323 0.0
C442 C 0.88865 0.80248 0.27972 0.0
C443 C 0.89088 0.77659 0.2793 0.0
C444 C 0.88848 0.76312 0.30137 0.0
C445 C 0.88288 0.77548 0.32315 0.0
C446 C 0.89237 0.81764 0.2569 0.0
C447 C 0.88984 0.73544 0.30169 0.0
H448 H 0.85557 0.73453 0.21417 0.0
H449 H 0.93325 0.72738 0.22384 0.0
H450 H 0.84229 0.75871 0.26983 0.0
H451 H 0.84603 0.7861 0.25223 0.0
H452 H 0.83126 0.75985 0.23872 0.0
H453 H 0.95541 0.75635 0.24844 0.0
H454 H 0.93942 0.78086 0.26397 0.0
H455 H 0.94116 0.75105 0.27766 0.0
H456 H 0.87846 0.83383 0.3017 0.0
H457 H 0.88003 0.76501 0.33981 0.0
H458 H 0.87563 0.81685 0.24542 0.0
H459 H 0.90784 0.81042 0.24584 0.0
H460 H 0.89602 0.83717 0.2614 0.0
H461 H 0.87506 0.72773 0.29002 0.0
H462 H 0.88787 0.72779 0.32046 0.0
H463 H 0.90755 0.72913 0.29403 0.0
C464 C 0.28214 0.10564 0.24954 0.0
C465 C 0.27554 0.10952 0.225 0.0
C466 C 0.26471 0.10792 0.26841 0.0
C467 C 0.24046 0.11519 0.2626 0.0
C468 C 0.23364 0.11848 0.23778 0.0
C469 C 0.25114 0.1152 0.21932 0.0
C470 C 0.27245 0.10332 0.29455 0.0
C471 C 0.20817 0.12681 0.23073 0.0
C472 C 0.18366 0.11321 0.30237 0.0
C473 C 0.18179 0.13785 0.30949 0.0
C474 C 0.20412 0.10482 0.28914 0.0
C475 C 0.22259 0.12167 0.28217 0.0
C476 C 0.22161 0.14611 0.29086 0.0
C477 C 0.2014 0.15379 0.30474 0.0
C478 C 0.20508 0.07835 0.28118 0.0
C479 C 0.24063 0.16485 0.28351 0.0
H480 H 0.30096 0.10108 0.25399 0.0
H481 H 0.24595 0.1184 0.20041 0.0
H482 H 0.27479 0.12107 0.30417 0.0
H483 H 0.2582 0.09277 0.30452 0.0
H484 H 0.29007 0.09316 0.29555 0.0
H485 H 0.20579 0.12829 0.21056 0.0
H486 H 0.19429 0.11382 0.2379 0.0
H487 H 0.20436 0.14501 0.239 0.0
H488 H 0.1687 0.10072 0.30627 0.0
H489 H 0.20012 0.17286 0.31017 0.0
H490 H 0.22398 0.07101 0.28285 0.0
H491 H 0.19963 0.07694 0.26165 0.0
H492 H 0.19248 0.06671 0.29216 0.0
H493 H 0.25936 0.15772 0.2868 0.0
H494 H 0.23848 0.1824 0.29363 0.0
H495 H 0.23898 0.16868 0.2636 0.0
C496 C 0.3248 0.8796 0.77278 0.0
C497 C 0.32507 0.8772 0.79833 0.0
C498 C 0.30309 0.88533 0.76031 0.0
C499 C 0.28134 0.88971 0.7738 0.0
C500 C 0.28205 0.88945 0.79974 0.0
C501 C 0.30382 0.88263 0.81171 0.0
C502 C 0.30307 0.88482 0.73263 0.0
C503 C 0.25957 0.89514 0.8148 0.0
C504 C 0.23133 0.91507 0.73289 0.0
C505 C 0.21842 0.89366 0.72697 0.0
C506 C 0.25052 0.91457 0.75003 0.0
C507 C 0.25763 0.89192 0.76051 0.0
C508 C 0.24373 0.87052 0.75556 0.0
C509 C 0.22397 0.87178 0.73916 0.0
C510 C 0.26408 0.93799 0.75579 0.0
C511 C 0.25099 0.84586 0.76585 0.0
H512 H 0.34113 0.87514 0.76237 0.0
H513 H 0.30403 0.88088 0.8315 0.0
H514 H 0.29086 0.86991 0.72609 0.0
H515 H 0.29582 0.9023 0.72523 0.0
H516 H 0.32167 0.88177 0.72492 0.0
H517 H 0.26433 0.89923 0.83417 0.0
H518 H 0.24949 0.91101 0.80702 0.0
H519 H 0.24701 0.87916 0.81458 0.0
H520 H 0.22691 0.93205 0.72354 0.0
H521 H 0.21413 0.85518 0.73439 0.0
H522 H 0.28176 0.93826 0.74577 0.0
H523 H 0.26826 0.93917 0.77565 0.0
H524 H 0.25339 0.95444 0.75031 0.0
H525 H 0.26909 0.84042 0.75831 0.0
H526 H 0.23748 0.83131 0.76133 0.0
H527 H 0.25289 0.84687 0.78604 0.0
C528 C 0.75299 0.38744 0.78519 0.0
C529 C 0.77747 0.39311 0.77995 0.0
C530 C 0.73561 0.38519 0.76646 0.0
C531 C 0.74267 0.38954 0.74187 0.0
C532 C 0.76702 0.39683 0.73658 0.0
C533 C 0.78432 0.39806 0.75568 0.0
C534 C 0.71001 0.3768 0.77292 0.0
C535 C 0.77503 0.40253 0.71074 0.0
C536 C 0.70374 0.35302 0.69789 0.0
C537 C 0.68424 0.36926 0.69368 0.0
C538 C 0.72389 0.35998 0.71219 0.0
C539 C 0.72495 0.38403 0.72189 0.0
C540 C 0.70665 0.40129 0.71548 0.0
C541 C 0.68624 0.39358 0.70177 0.0
C542 C 0.74275 0.34083 0.71888 0.0
C543 C 0.70772 0.4274 0.72453 0.0
H544 H 0.74762 0.38343 0.80391 0.0
H545 H 0.8032 0.40264 0.75159 0.0
H546 H 0.6963 0.3902 0.76618 0.0
H547 H 0.70611 0.359 0.76385 0.0
H548 H 0.70743 0.37449 0.79298 0.0
H549 H 0.79269 0.41266 0.71036 0.0
H550 H 0.77741 0.38521 0.70039 0.0
H551 H 0.76091 0.41356 0.7011 0.0
H552 H 0.7024 0.3342 0.69168 0.0
H553 H 0.67138 0.40633 0.69828 0.0
H554 H 0.74092 0.33617 0.7386 0.0
H555 H 0.76154 0.34797 0.71603 0.0
H556 H 0.74058 0.32374 0.70802 0.0
H557 H 0.70208 0.42804 0.74405 0.0
H558 H 0.69532 0.43958 0.71392 0.0
H559 H 0.72669 0.43466 0.72336 0.0
C560 C 0.8039 0.64263 0.20026 0.0
C561 C 0.8255 0.62867 0.19963 0.0
C562 C 0.78393 0.63549 0.21472 0.0
C563 C 0.78522 0.61339 0.22825 0.0
C564 C 0.80603 0.59804 0.22582 0.0
C565 C 0.82618 0.60609 0.21189 0.0
C566 C 0.76242 0.65277 0.21721 0.0
C567 C 0.80763 0.57383 0.23909 0.0
C568 C 0.75259 0.61568 0.28938 0.0
C569 C 0.72953 0.60598 0.28357 0.0
C570 C 0.77104 0.61752 0.27167 0.0
C571 C 0.76668 0.60861 0.24769 0.0
C572 C 0.74392 0.59742 0.24207 0.0
C573 C 0.72535 0.59673 0.25997 0.0
C574 C 0.79473 0.63028 0.27832 0.0
C575 C 0.73893 0.58683 0.21703 0.0
H576 H 0.80322 0.66013 0.19088 0.0
H577 H 0.84272 0.59509 0.21125 0.0
H578 H 0.74492 0.64288 0.21432 0.0
H579 H 0.76205 0.66042 0.23606 0.0
H580 H 0.76337 0.66826 0.20402 0.0
H581 H 0.82234 0.56199 0.23146 0.0
H582 H 0.81165 0.57711 0.25874 0.0
H583 H 0.78992 0.56387 0.23801 0.0
H584 H 0.75583 0.62305 0.30755 0.0
H585 H 0.70757 0.58906 0.2555 0.0
H586 H 0.79712 0.64682 0.26671 0.0
H587 H 0.81054 0.61803 0.27479 0.0
H588 H 0.79525 0.636 0.29785 0.0
H589 H 0.73582 0.6019 0.20375 0.0
H590 H 0.72249 0.57481 0.21702 0.0
H591 H 0.75493 0.5761 0.21048 0.0
C592 C 0.30237 0.20138 0.14734 0.0
C593 C 0.30598 0.1813 0.13167 0.0
C594 C 0.28863 0.22175 0.13985 0.0
C595 C 0.27889 0.22244 0.11583 0.0
C596 C 0.2846 0.20339 0.09913 0.0
C597 C 0.29773 0.18279 0.10738 0.0
C598 C 0.28264 0.24138 0.15845 0.0
C599 C 0.27547 0.20398 0.07305 0.0
C600 C 0.21678 0.25301 0.11159 0.0
C601 C 0.22302 0.27711 0.10519 0.0
C602 C 0.23478 0.23493 0.11434 0.0
C603 C 0.25964 0.24082 0.10978 0.0
C604 C 0.26592 0.26473 0.1018 0.0
C605 C 0.24756 0.28279 0.10007 0.0
C606 C 0.22726 0.20987 0.12349 0.0
C607 C 0.29208 0.27147 0.09587 0.0
H608 H 0.30868 0.20043 0.16614 0.0
H609 H 0.30073 0.16747 0.09507 0.0
H610 H 0.28625 0.25985 0.15081 0.0
H611 H 0.26284 0.24047 0.16308 0.0
H612 H 0.29336 0.23926 0.17562 0.0
H613 H 0.28552 0.19079 0.06124 0.0
H614 H 0.25573 0.19912 0.07265 0.0
H615 H 0.27736 0.22266 0.06519 0.0
H616 H 0.19787 0.24853 0.11574 0.0
H617 H 0.25242 0.30135 0.09494 0.0
H618 H 0.23616 0.20616 0.1414 0.0
H619 H 0.23344 0.19549 0.11054 0.0
H620 H 0.20711 0.20818 0.12584 0.0
H621 H 0.30262 0.27369 0.1131 0.0
H622 H 0.29321 0.28892 0.08542 0.0
H623 H 0.30102 0.25673 0.08507 0.0
C624 C 0.79901 0.31632 0.8957 0.0
C625 C 0.80742 0.31824 0.8715 0.0
C626 C 0.78535 0.29584 0.90334 0.0
C627 C 0.77929 0.27738 0.88612 0.0
C628 C 0.78931 0.27839 0.86221 0.0
C629 C 0.80356 0.29862 0.85533 0.0
C630 C 0.77595 0.29485 0.92931 0.0
C631 C 0.783 0.25938 0.84309 0.0
C632 C 0.74571 0.21786 0.90023 0.0
C633 C 0.72143 0.22453 0.895 0.0
C634 C 0.76472 0.23527 0.89902 0.0
C635 C 0.75937 0.25954 0.89147 0.0
C636 C 0.73478 0.26642 0.88679 0.0
C637 C 0.71612 0.24895 0.88902 0.0
C638 C 0.79056 0.22747 0.90505 0.0
C639 C 0.72824 0.29192 0.87812 0.0
H640 H 0.80222 0.33127 0.9084 0.0
H641 H 0.81001 0.29991 0.83659 0.0
H642 H 0.75638 0.30033 0.92966 0.0
H643 H 0.77719 0.27593 0.9367 0.0
H644 H 0.7863 0.30741 0.94155 0.0
H645 H 0.79411 0.26151 0.82616 0.0
H646 H 0.78585 0.24063 0.85038 0.0
H647 H 0.76334 0.26106 0.83814 0.0
H648 H 0.74985 0.19904 0.90504 0.0
H649 H 0.69741 0.25418 0.8848 0.0
H650 H 0.79996 0.2417 0.91614 0.0
H651 H 0.80114 0.22511 0.88788 0.0
H652 H 0.79095 0.20983 0.91524 0.0
H653 H 0.7347 0.30578 0.8915 0.0
H654 H 0.70819 0.29434 0.87551 0.0
H655 H 0.73754 0.29575 0.86044 0.0
C656 C 0.75325 0.787 0.39076 0.0
C657 C 0.77767 0.77919 0.38896 0.0
C658 C 0.73385 0.77001 0.38938 0.0
C659 C 0.73909 0.74493 0.38494 0.0
C660 C 0.76378 0.73705 0.38342 0.0
C661 C 0.78269 0.75419 0.38591 0.0
C662 C 0.70785 0.77901 0.39207 0.0
C663 C 0.7703 0.71066 0.37797 0.0
C664 C 0.69841 0.68916 0.3914 0.0
C665 C 0.69224 0.68476 0.36685 0.0
C666 C 0.71144 0.71037 0.39812 0.0
C667 C 0.71923 0.72696 0.37973 0.0
C668 C 0.71138 0.72352 0.35525 0.0
C669 C 0.69764 0.70268 0.34921 0.0
C670 C 0.71838 0.71407 0.42462 0.0
C671 C 0.71963 0.74042 0.33493 0.0
H672 H 0.74934 0.80632 0.39327 0.0
H673 H 0.80155 0.7481 0.38428 0.0
H674 H 0.69929 0.78063 0.37372 0.0
H675 H 0.69673 0.76588 0.40293 0.0
H676 H 0.7071 0.79728 0.40103 0.0
H677 H 0.79042 0.70763 0.37715 0.0
H678 H 0.76257 0.69843 0.39224 0.0
H679 H 0.76223 0.7051 0.36015 0.0
H680 H 0.69397 0.67556 0.40519 0.0
H681 H 0.6929 0.69949 0.33018 0.0
H682 H 0.71673 0.73368 0.4298 0.0
H683 H 0.73776 0.70857 0.42739 0.0
H684 H 0.70675 0.70292 0.43707 0.0
H685 H 0.71645 0.75984 0.33998 0.0
H686 H 0.71002 0.73662 0.31739 0.0
H687 H 0.73963 0.7381 0.33194 0.0
C688 C 0.2283 0.82558 0.62218 0.0
C689 C 0.20278 0.82671 0.62465 0.0
C690 C 0.24008 0.8033 0.61716 0.0
C691 C 0.22591 0.78181 0.61358 0.0
C692 C 0.2 0.78332 0.61393 0.0
C693 C 0.18873 0.80568 0.62003 0.0
C694 C 0.26776 0.80245 0.61754 0.0
C695 C 0.18423 0.76113 0.60908 0.0
C696 C 0.26504 0.72974 0.58951 0.0
C697 C 0.27075 0.7173 0.61125 0.0
C698 C 0.24852 0.74949 0.58954 0.0
C699 C 0.23847 0.75763 0.61203 0.0
C700 C 0.24316 0.74422 0.63379 0.0
C701 C 0.25891 0.7239 0.63302 0.0
C702 C 0.24302 0.76252 0.56578 0.0
C703 C 0.2333 0.75256 0.65827 0.0
H704 H 0.23922 0.84173 0.62602 0.0
H705 H 0.16896 0.80656 0.62185 0.0
H706 H 0.27401 0.79052 0.63279 0.0
H707 H 0.27483 0.79441 0.60028 0.0
H708 H 0.27605 0.8209 0.61994 0.0
H709 H 0.16495 0.76631 0.60504 0.0
H710 H 0.19156 0.75035 0.59347 0.0
H711 H 0.18426 0.74904 0.62542 0.0
H712 H 0.27413 0.72453 0.57262 0.0
H713 H 0.26353 0.71444 0.64987 0.0
H714 H 0.25358 0.77987 0.56492 0.0
H715 H 0.22328 0.76728 0.56459 0.0
H716 H 0.24806 0.75118 0.54963 0.0
H717 H 0.2415 0.77056 0.6631 0.0
H718 H 0.23748 0.73934 0.67318 0.0
H719 H 0.21318 0.75512 0.65734 0.0
C720 C 0.87647 0.72443 0.82309 0.0
C721 C 0.87316 0.69898 0.82353 0.0
C722 C 0.88211 0.73663 0.80121 0.0
C723 C 0.88546 0.72291 0.77941 0.0
C724 C 0.88423 0.69699 0.78022 0.0
C725 C 0.87753 0.68533 0.8022 0.0
C726 C 0.88264 0.76434 0.8011 0.0
C727 C 0.88882 0.68164 0.75769 0.0
C728 C 0.8676 0.75828 0.72249 0.0
C729 C 0.88977 0.76971 0.71652 0.0
C730 C 0.86617 0.74185 0.74221 0.0
C731 C 0.88765 0.73606 0.75563 0.0
C732 C 0.91051 0.74572 0.74804 0.0
C733 C 0.91122 0.76293 0.72891 0.0
C734 C 0.84131 0.73246 0.74999 0.0
C735 C 0.93398 0.73905 0.76106 0.0
H736 H 0.87285 0.73506 0.83949 0.0
H737 H 0.87507 0.6656 0.80254 0.0
H738 H 0.90024 0.77104 0.79351 0.0
H739 H 0.86777 0.77141 0.78914 0.0
H740 H 0.88022 0.77221 0.81972 0.0
H741 H 0.89233 0.66214 0.76242 0.0
H742 H 0.87255 0.68238 0.74553 0.0
H743 H 0.90469 0.68882 0.74718 0.0
H744 H 0.85097 0.76371 0.71305 0.0
H745 H 0.92842 0.77168 0.72416 0.0
H746 H 0.83652 0.74025 0.76817 0.0
H747 H 0.84162 0.71224 0.75194 0.0
H748 H 0.82667 0.73748 0.73677 0.0
H749 H 0.93505 0.74907 0.77871 0.0
H750 H 0.95037 0.74389 0.75 0.0
H751 H 0.93448 0.71914 0.76524 0.0
C752 C 0.63389 0.2472 0.22194 0.0
C753 C 0.61149 0.236 0.21636 0.0
C754 C 0.63593 0.26328 0.2419 0.0
C755 C 0.61484 0.26895 0.25597 0.0
C756 C 0.59173 0.25957 0.24881 0.0
C757 C 0.59042 0.24269 0.22941 0.0
C758 C 0.66104 0.27236 0.24921 0.0
C759 C 0.56865 0.26614 0.26254 0.0
C760 C 0.62765 0.27914 0.32339 0.0
C761 C 0.63109 0.30457 0.3243 0.0
C762 C 0.6215 0.26742 0.30139 0.0
C763 C 0.61774 0.28161 0.27996 0.0
C764 C 0.61914 0.30751 0.28127 0.0
C765 C 0.62638 0.31867 0.30334 0.0
C766 C 0.62081 0.23973 0.30073 0.0
C767 C 0.61413 0.32334 0.25916 0.0
H768 H 0.65023 0.24183 0.21199 0.0
H769 H 0.57305 0.2341 0.22498 0.0
H770 H 0.66091 0.29254 0.25159 0.0
H771 H 0.66627 0.26416 0.26708 0.0
H772 H 0.67529 0.26754 0.23549 0.0
H773 H 0.55195 0.26163 0.25181 0.0
H774 H 0.56795 0.25578 0.28002 0.0
H775 H 0.5684 0.28597 0.26711 0.0
H776 H 0.63155 0.26816 0.33949 0.0
H777 H 0.62894 0.33838 0.30403 0.0
H778 H 0.63529 0.23283 0.28821 0.0
H779 H 0.60296 0.23327 0.2935 0.0
H780 H 0.6237 0.23145 0.3191 0.0
H781 H 0.6301 0.32274 0.24661 0.0
H782 H 0.61087 0.34276 0.26437 0.0
H783 H 0.59797 0.31647 0.2489 0.0
C784 C 0.41319 0.73922 0.27314 0.0
C785 C 0.39174 0.73167 0.28502 0.0
C786 C 0.41229 0.75679 0.25432 0.0
C787 C 0.38926 0.76576 0.24635 0.0
C788 C 0.36769 0.7589 0.2591 0.0
C789 C 0.3693 0.74232 0.27866 0.0
C790 C 0.43581 0.76473 0.24215 0.0
C791 C 0.34266 0.76733 0.25078 0.0
C792 C 0.37726 0.81668 0.20038 0.0
C793 C 0.37444 0.80316 0.17873 0.0
C794 C 0.38427 0.80507 0.22231 0.0
C795 C 0.38709 0.77924 0.22274 0.0
C796 C 0.3851 0.76573 0.20066 0.0
C797 C 0.37936 0.77797 0.17884 0.0
C798 C 0.38751 0.8203 0.24515 0.0
C799 C 0.38709 0.73809 0.20032 0.0
H800 H 0.43056 0.73099 0.27821 0.0
H801 H 0.35271 0.7362 0.28774 0.0
H802 H 0.43796 0.75499 0.22444 0.0
H803 H 0.43549 0.7847 0.23822 0.0
H804 H 0.45204 0.76053 0.2537 0.0
H805 H 0.32783 0.76101 0.26322 0.0
H806 H 0.34199 0.7876 0.24972 0.0
H807 H 0.33892 0.76014 0.23212 0.0
H808 H 0.37352 0.8362 0.20028 0.0
H809 H 0.37686 0.76745 0.16216 0.0
H810 H 0.40309 0.81343 0.2563 0.0
H811 H 0.37074 0.81913 0.25655 0.0
H812 H 0.39075 0.83991 0.24068 0.0
H813 H 0.40494 0.73219 0.20801 0.0
H814 H 0.38532 0.7304 0.18156 0.0
H815 H 0.37249 0.73003 0.21198 0.0
C816 C 0.14985 0.1964 0.69974 0.0
C817 C 0.13253 0.19202 0.68123 0.0
C818 C 0.14364 0.20972 0.72079 0.0
C819 C 0.1193 0.21818 0.72382 0.0
C820 C 0.10113 0.21138 0.70656 0.0
C821 C 0.10805 0.19876 0.68517 0.0
C822 C 0.16374 0.2169 0.73843 0.0
C823 C 0.07475 0.219 0.70977 0.0
C824 C 0.10762 0.25093 0.7844 0.0
C825 C 0.11036 0.27549 0.77732 0.0
C826 C 0.10891 0.23195 0.76695 0.0
C827 C 0.11418 0.23771 0.74217 0.0
C828 C 0.11664 0.26255 0.73501 0.0
C829 C 0.11424 0.28108 0.75257 0.0
C830 C 0.10523 0.20579 0.77515 0.0
C831 C 0.12298 0.26961 0.70898 0.0
H832 H 0.16881 0.19122 0.6969 0.0
H833 H 0.09449 0.19511 0.67111 0.0
H834 H 0.16739 0.23686 0.73672 0.0
H835 H 0.15806 0.21338 0.75759 0.0
H836 H 0.18108 0.20685 0.73484 0.0
H837 H 0.06227 0.20804 0.69799 0.0
H838 H 0.069 0.21697 0.72917 0.0
H839 H 0.07268 0.2386 0.70474 0.0
H840 H 0.10447 0.24658 0.80352 0.0
H841 H 0.1166 0.30004 0.74705 0.0
H842 H 0.12328 0.19664 0.77699 0.0
H843 H 0.09439 0.19535 0.76147 0.0
H844 H 0.09578 0.20482 0.79316 0.0
H845 H 0.14071 0.26116 0.70367 0.0
H846 H 0.12446 0.28978 0.70653 0.0
H847 H 0.10883 0.26262 0.69618 0.0
C848 C 0.72385 0.86846 0.76161 0.0
C849 C 0.71815 0.8904 0.77363 0.0
C850 C 0.74374 0.86716 0.74537 0.0
C851 C 0.75762 0.88856 0.74041 0.0
C852 C 0.75038 0.91126 0.7507 0.0
C853 C 0.73105 0.91181 0.76767 0.0
C854 C 0.75113 0.84246 0.73527 0.0
C855 C 0.76394 0.93467 0.74494 0.0
C856 C 0.82495 0.87645 0.72875 0.0
C857 C 0.82546 0.87403 0.70321 0.0
C858 C 0.80311 0.8821 0.74102 0.0
C859 C 0.78145 0.88635 0.72732 0.0
C860 C 0.78238 0.88603 0.7014 0.0
C861 C 0.80429 0.87932 0.68963 0.0
C862 C 0.80285 0.88167 0.7687 0.0
C863 C 0.76 0.89156 0.68613 0.0
H864 H 0.71402 0.85186 0.7664 0.0
H865 H 0.72652 0.92883 0.7769 0.0
H866 H 0.75327 0.84338 0.7151 0.0
H867 H 0.76915 0.83708 0.74304 0.0
H868 H 0.73758 0.82792 0.7397 0.0
H869 H 0.7532 0.95113 0.75028 0.0
H870 H 0.78155 0.93501 0.75508 0.0
H871 H 0.76825 0.93578 0.7251 0.0
H872 H 0.84122 0.87211 0.73931 0.0
H873 H 0.80468 0.87756 0.66985 0.0
H874 H 0.79063 0.86674 0.77518 0.0
H875 H 0.79549 0.89915 0.77598 0.0
H876 H 0.82139 0.8787 0.77658 0.0
H877 H 0.74746 0.87557 0.68639 0.0
H878 H 0.76487 0.89552 0.66677 0.0
H879 H 0.74984 0.90747 0.69373 0.0
C880 C 0.67663 0.12901 0.22541 0.0
C881 C 0.67544 0.13188 0.19994 0.0
C882 C 0.69874 0.12291 0.23697 0.0
C883 C 0.71997 0.11865 0.22262 0.0
C884 C 0.71834 0.11951 0.19674 0.0
C885 C 0.69619 0.12667 0.1857 0.0
C886 C 0.69975 0.12279 0.26465 0.0
C887 C 0.74023 0.11399 0.18077 0.0
C888 C 0.77868 0.13489 0.25584 0.0
C889 C 0.78427 0.11262 0.26731 0.0
C890 C 0.75845 0.13684 0.24009 0.0
C891 C 0.7441 0.11578 0.23502 0.0
C892 C 0.75121 0.09276 0.24468 0.0
C893 C 0.77091 0.09155 0.26121 0.0
C894 C 0.75122 0.16186 0.23068 0.0
C895 C 0.73713 0.06969 0.23877 0.0
H896 H 0.6607 0.13329 0.23649 0.0
H897 H 0.69527 0.12879 0.16597 0.0
H898 H 0.70697 0.10503 0.27138 0.0
H899 H 0.71243 0.13735 0.27108 0.0
H900 H 0.68149 0.12595 0.27308 0.0
H901 H 0.73479 0.11054 0.16146 0.0
H902 H 0.75301 0.1298 0.18104 0.0
H903 H 0.75034 0.09778 0.18775 0.0
H904 H 0.78886 0.15124 0.26076 0.0
H905 H 0.77534 0.07428 0.27 0.0
H906 H 0.73354 0.16741 0.23907 0.0
H907 H 0.7485 0.16139 0.21056 0.0
H908 H 0.76516 0.17607 0.23501 0.0
H909 H 0.71978 0.06941 0.24934 0.0
H910 H 0.74774 0.05295 0.24348 0.0
H911 H 0.73231 0.06908 0.21902 0.0
C912 C 0.32648 0.60698 0.28933 0.0
C913 C 0.32521 0.6296 0.30147 0.0
C914 C 0.30664 0.59843 0.27525 0.0
C915 C 0.28554 0.61334 0.27252 0.0
C916 C 0.28367 0.63549 0.2859 0.0
C917 C 0.30334 0.64311 0.30052 0.0
C918 C 0.30886 0.57417 0.26217 0.0
C919 C 0.26184 0.65231 0.28308 0.0
C920 C 0.25324 0.61454 0.21118 0.0
C921 C 0.23033 0.60449 0.21695 0.0
C922 C 0.27158 0.61683 0.22898 0.0
C923 C 0.26725 0.608 0.253 0.0
C924 C 0.24468 0.59641 0.25856 0.0
C925 C 0.22621 0.59528 0.24058 0.0
C926 C 0.29504 0.63 0.22237 0.0
C927 C 0.23975 0.5859 0.28365 0.0
H928 H 0.34323 0.59632 0.29022 0.0
H929 H 0.30222 0.66066 0.30979 0.0
H930 H 0.29136 0.56384 0.26317 0.0
H931 H 0.31297 0.5774 0.24253 0.0
H932 H 0.32375 0.56269 0.27 0.0
H933 H 0.26239 0.66795 0.29611 0.0
H934 H 0.26143 0.65975 0.26415 0.0
H935 H 0.24453 0.64209 0.28596 0.0
H936 H 0.25643 0.62188 0.19299 0.0
H937 H 0.20855 0.58733 0.24502 0.0
H938 H 0.31108 0.61812 0.22615 0.0
H939 H 0.29701 0.6467 0.23383 0.0
H940 H 0.29559 0.63554 0.20279 0.0
H941 H 0.25594 0.57557 0.29039 0.0
H942 H 0.22358 0.57352 0.28364 0.0
H943 H 0.23622 0.60099 0.29679 0.0
C944 C 0.27582 0.4103 0.7425 0.0
C945 C 0.28731 0.38858 0.73507 0.0
C946 C 0.25654 0.40976 0.75957 0.0
C947 C 0.24774 0.38688 0.76814 0.0
C948 C 0.2601 0.36502 0.76144 0.0
C949 C 0.28012 0.36624 0.74538 0.0
C950 C 0.24478 0.43355 0.76738 0.0
C951 C 0.25092 0.34014 0.76944 0.0
C952 C 0.20013 0.37564 0.81764 0.0
C953 C 0.17878 0.37346 0.80353 0.0
C954 C 0.22253 0.3822 0.8067 0.0
C955 C 0.22372 0.38523 0.78094 0.0
C956 C 0.20196 0.38391 0.76683 0.0
C957 C 0.17968 0.3786 0.77842 0.0
C958 C 0.24503 0.38475 0.82256 0.0
C959 C 0.20242 0.38614 0.73923 0.0
H960 H 0.28152 0.42759 0.73453 0.0
H961 H 0.2889 0.34945 0.73935 0.0
H962 H 0.22742 0.43627 0.75717 0.0
H963 H 0.24028 0.43316 0.78721 0.0
H964 H 0.25689 0.4495 0.76367 0.0
H965 H 0.26314 0.32504 0.76334 0.0
H966 H 0.24931 0.33935 0.78966 0.0
H967 H 0.23237 0.33694 0.76173 0.0
H968 H 0.1994 0.37172 0.8371 0.0
H969 H 0.16323 0.37659 0.76745 0.0
H970 H 0.25676 0.40008 0.81612 0.0
H971 H 0.25603 0.36769 0.82158 0.0
H972 H 0.24011 0.38797 0.84205 0.0
H973 H 0.21072 0.40384 0.73371 0.0
H974 H 0.18382 0.38492 0.73104 0.0
H975 H 0.21392 0.37131 0.73137 0.0
C976 C 0.76518 0.72798 0.91227 0.0
C977 C 0.77097 0.71551 0.89058 0.0
C978 C 0.74853 0.74762 0.91217 0.0
C979 C 0.73842 0.75561 0.88965 0.0
C980 C 0.74322 0.74217 0.86793 0.0
C981 C 0.7591 0.72197 0.86878 0.0
C982 C 0.74291 0.76067 0.93589 0.0
C983 C 0.73333 0.75037 0.84342 0.0
C984 C 0.68839 0.80326 0.88123 0.0
C985 C 0.70232 0.82434 0.8765 0.0
C986 C 0.6998 0.78103 0.88755 0.0
C987 C 0.72571 0.7797 0.888 0.0
C988 C 0.73975 0.80125 0.88433 0.0
C989 C 0.72784 0.82341 0.8791 0.0
C990 C 0.68416 0.75876 0.89249 0.0
C991 C 0.76744 0.80059 0.88405 0.0
H992 H 0.77428 0.72287 0.92918 0.0
H993 H 0.76378 0.71247 0.85196 0.0
H994 H 0.75338 0.77808 0.93673 0.0
H995 H 0.72314 0.76533 0.93702 0.0
H996 H 0.74798 0.7494 0.95207 0.0
H997 H 0.73765 0.73716 0.82854 0.0
H998 H 0.71317 0.75274 0.84431 0.0
H999 H 0.74136 0.76843 0.83856 0.0
H1000 H 0.66863 0.80398 0.87931 0.0
H1001 H 0.73867 0.83961 0.87518 0.0
H1002 H 0.69156 0.74808 0.90814 0.0
H1003 H 0.68424 0.74662 0.87619 0.0
H1004 H 0.66486 0.76385 0.89653 0.0
H1005 H 0.77451 0.79267 0.90136 0.0
H1006 H 0.77561 0.81909 0.8816 0.0
H1007 H 0.77382 0.78865 0.86886 0.0
C1008 C 0.19671 0.70094 0.15155 0.0
C1009 C 0.19167 0.68293 0.13389 0.0
C1010 C 0.20999 0.72209 0.14553 0.0
C1011 C 0.21773 0.72574 0.12105 0.0
C1012 C 0.2103 0.709 0.10264 0.0
C1013 C 0.19774 0.6875 0.10934 0.0
C1014 C 0.21787 0.73913 0.16588 0.0
C1015 C 0.21714 0.7129 0.07615 0.0
C1016 C 0.25031 0.7866 0.11016 0.0
C1017 C 0.27491 0.77938 0.11197 0.0
C1018 C 0.23133 0.76915 0.11148 0.0
C1019 C 0.23716 0.74419 0.11585 0.0
C1020 C 0.26203 0.7369 0.11736 0.0
C1021 C 0.28052 0.75449 0.11494 0.0
C1022 C 0.20511 0.77753 0.10881 0.0
C1023 C 0.26917 0.71065 0.12274 0.0
H1024 H 0.19205 0.69762 0.17057 0.0
H1025 H 0.19359 0.67383 0.09553 0.0
H1026 H 0.23792 0.73728 0.16883 0.0
H1027 H 0.21422 0.75848 0.16087 0.0
H1028 H 0.20838 0.73507 0.18342 0.0
H1029 H 0.20576 0.70151 0.06369 0.0
H1030 H 0.21504 0.73247 0.07099 0.0
H1031 H 0.23663 0.70785 0.07336 0.0
H1032 H 0.24594 0.80583 0.10771 0.0
H1033 H 0.29951 0.74885 0.11658 0.0
H1034 H 0.1965 0.77886 0.12716 0.0
H1035 H 0.19432 0.76418 0.09788 0.0
H1036 H 0.20393 0.79582 0.09992 0.0
H1037 H 0.26126 0.70486 0.14056 0.0
H1038 H 0.28936 0.7081 0.12353 0.0
H1039 H 0.26171 0.69828 0.10847 0.0
C1040 C 0.29327 0.32359 0.61012 0.0
C1041 C 0.3047 0.32198 0.63307 0.0
C1042 C 0.27895 0.30413 0.60112 0.0
C1043 C 0.27524 0.28309 0.61589 0.0
C1044 C 0.28793 0.28083 0.6384 0.0
C1045 C 0.30282 0.30012 0.64649 0.0
C1046 C 0.26663 0.30673 0.57651 0.0
C1047 C 0.28406 0.25904 0.65506 0.0
C1048 C 0.21302 0.25247 0.61516 0.0
C1049 C 0.21846 0.22944 0.60517 0.0
C1050 C 0.23125 0.2703 0.61806 0.0
C1051 C 0.25539 0.26534 0.60995 0.0
C1052 C 0.26068 0.24266 0.59842 0.0
C1053 C 0.24223 0.2247 0.59666 0.0
C1054 C 0.22489 0.2939 0.63112 0.0
C1055 C 0.28594 0.23707 0.58865 0.0
H1056 H 0.29489 0.34035 0.59955 0.0
H1057 H 0.31153 0.29875 0.66429 0.0
H1058 H 0.26748 0.28922 0.56618 0.0
H1059 H 0.24702 0.31135 0.57918 0.0
H1060 H 0.27518 0.32144 0.56531 0.0
H1061 H 0.29668 0.2592 0.67103 0.0
H1062 H 0.26492 0.25915 0.66198 0.0
H1063 H 0.28673 0.24167 0.64489 0.0
H1064 H 0.19471 0.25613 0.62196 0.0
H1065 H 0.24643 0.20695 0.58877 0.0
H1066 H 0.22944 0.30988 0.61941 0.0
H1067 H 0.23592 0.29551 0.64814 0.0
H1068 H 0.20518 0.29497 0.63608 0.0
H1069 H 0.29341 0.25309 0.57858 0.0
H1070 H 0.28587 0.22092 0.57625 0.0
H1071 H 0.29854 0.23317 0.60411 0.0
C1072 C 0.74015 0.27273 0.41028 0.0
C1073 C 0.73414 0.28595 0.3891 0.0
C1074 C 0.75656 0.25291 0.40928 0.0
C1075 C 0.76619 0.24552 0.38635 0.0
C1076 C 0.76118 0.25968 0.36515 0.0
C1077 C 0.74555 0.28004 0.3669 0.0
C1078 C 0.76241 0.23905 0.43248 0.0
C1079 C 0.77056 0.25215 0.34023 0.0
C1080 C 0.81569 0.19767 0.37596 0.0
C1081 C 0.80152 0.17681 0.37091 0.0
C1082 C 0.80456 0.21984 0.38294 0.0
C1083 C 0.77867 0.22138 0.38376 0.0
C1084 C 0.76439 0.20005 0.37971 0.0
C1085 C 0.77605 0.17792 0.3738 0.0
C1086 C 0.82046 0.24184 0.38825 0.0
C1087 C 0.73671 0.20096 0.3798 0.0
H1088 H 0.73139 0.27741 0.4275 0.0
H1089 H 0.74069 0.2901 0.35047 0.0
H1090 H 0.75183 0.2217 0.4329 0.0
H1091 H 0.78216 0.23422 0.43317 0.0
H1092 H 0.75767 0.24983 0.44909 0.0
H1093 H 0.76617 0.26589 0.32585 0.0
H1094 H 0.79069 0.24949 0.34071 0.0
H1095 H 0.76221 0.23436 0.33494 0.0
H1096 H 0.83542 0.19681 0.37381 0.0
H1097 H 0.76504 0.1619 0.36963 0.0
H1098 H 0.81346 0.25205 0.40439 0.0
H1099 H 0.82009 0.25451 0.37236 0.0
H1100 H 0.8398 0.23652 0.3917 0.0
H1101 H 0.72994 0.20842 0.39744 0.0
H1102 H 0.72835 0.18261 0.37691 0.0
H1103 H 0.73024 0.2134 0.36507 0.0
C1104 C 0.13449 0.16474 0.52552 0.0
C1105 C 0.12359 0.18288 0.54012 0.0
C1106 C 0.13137 0.16467 0.49998 0.0
C1107 C 0.11681 0.18303 0.48881 0.0
C1108 C 0.1044 0.20035 0.50362 0.0
C1109 C 0.10803 0.20015 0.52909 0.0
C1110 C 0.14496 0.14589 0.48486 0.0
C1111 C 0.08842 0.22 0.49245 0.0
C1112 C 0.13551 0.20214 0.42463 0.0
C1113 C 0.11885 0.18911 0.41003 0.0
C1114 C 0.13477 0.20053 0.45026 0.0
C1115 C 0.11677 0.18569 0.46166 0.0
C1116 C 0.09945 0.17301 0.44708 0.0
C1117 C 0.10077 0.17477 0.4214 0.0
C1118 C 0.15365 0.21428 0.46513 0.0
C1119 C 0.07984 0.15726 0.45858 0.0
H1120 H 0.14651 0.1513 0.53387 0.0
H1121 H 0.09939 0.21413 0.54026 0.0
H1122 H 0.13241 0.13703 0.47156 0.0
H1123 H 0.1596 0.15512 0.47418 0.0
H1124 H 0.15351 0.13144 0.49638 0.0
H1125 H 0.07757 0.22996 0.50651 0.0
H1126 H 0.10008 0.23345 0.48262 0.0
H1127 H 0.07566 0.21192 0.47884 0.0
H1128 H 0.14956 0.21323 0.41602 0.0
H1129 H 0.08778 0.16469 0.41024 0.0
H1130 H 0.16481 0.20113 0.47592 0.0
H1131 H 0.14445 0.22669 0.47834 0.0
H1132 H 0.16616 0.22535 0.45348 0.0
H1133 H 0.08843 0.1417 0.46846 0.0
H1134 H 0.06685 0.14979 0.44479 0.0
H1135 H 0.06935 0.16803 0.47227 0.0
C1136 C 0.3636 0.84404 0.0278 0.0
C1137 C 0.37162 0.82322 0.04057 0.0
C1138 C 0.36665 0.84589 0.00232 0.0
C1139 C 0.3781 0.82651 0.98938 0.0
C1140 C 0.38778 0.80629 0.00242 0.0
C1141 C 0.38436 0.80485 0.02786 0.0
C1142 C 0.35611 0.86779 0.98908 0.0
C1143 C 0.40033 0.78536 0.98935 0.0
C1144 C 0.35592 0.81407 0.92474 0.0
C1145 C 0.37464 0.82438 0.91046 0.0
C1146 C 0.35691 0.81472 0.95038 0.0
C1147 C 0.37718 0.82587 0.96214 0.0
C1148 C 0.39628 0.83614 0.94789 0.0
C1149 C 0.39477 0.83532 0.92218 0.0
C1150 C 0.33613 0.80356 0.9649 0.0
C1151 C 0.41821 0.84805 0.95981 0.0
H1152 H 0.35381 0.85836 0.0375 0.0
H1153 H 0.39082 0.78879 0.03762 0.0
H1154 H 0.36958 0.8753 0.97583 0.0
H1155 H 0.33973 0.86203 0.97849 0.0
H1156 H 0.3506 0.8826 0.00192 0.0
H1157 H 0.40963 0.7727 0.00231 0.0
H1158 H 0.38656 0.77475 0.97879 0.0
H1159 H 0.41405 0.79241 0.97612 0.0
H1160 H 0.34028 0.80563 0.91588 0.0
H1161 H 0.4093 0.84334 0.91126 0.0
H1162 H 0.32767 0.81768 0.97685 0.0
H1163 H 0.34323 0.78883 0.97698 0.0
H1164 H 0.32165 0.79569 0.95295 0.0
H1165 H 0.41218 0.86366 0.97136 0.0
H1166 H 0.43168 0.85488 0.94615 0.0
H1167 H 0.42753 0.83475 0.97207 0.0
C1168 C 0.64091 0.34311 0.47571 0.0
C1169 C 0.63265 0.32327 0.46162 0.0
C1170 C 0.63684 0.34383 0.50111 0.0
C1171 C 0.62389 0.32445 0.51255 0.0
C1172 C 0.61389 0.30538 0.49808 0.0
C1173 C 0.61857 0.30491 0.47281 0.0
C1174 C 0.64797 0.36441 0.5159 0.0
C1175 C 0.59955 0.28463 0.50949 0.0
C1176 C 0.64228 0.30795 0.57749 0.0
C1177 C 0.62391 0.31932 0.59139 0.0
C1178 C 0.6424 0.30953 0.55186 0.0
C1179 C 0.62347 0.3225 0.53974 0.0
C1180 C 0.60454 0.33359 0.5536 0.0
C1181 C 0.60509 0.33203 0.57932 0.0
C1182 C 0.66306 0.29761 0.53778 0.0
C1183 C 0.58386 0.34721 0.54128 0.0
H1184 H 0.65184 0.35734 0.46717 0.0
H1185 H 0.61193 0.28964 0.46196 0.0
H1186 H 0.6343 0.37215 0.52879 0.0
H1187 H 0.66338 0.35715 0.52702 0.0
H1188 H 0.65505 0.37941 0.50409 0.0
H1189 H 0.59007 0.27328 0.4955 0.0
H1190 H 0.61217 0.27263 0.51999 0.0
H1191 H 0.58572 0.29184 0.52253 0.0
H1192 H 0.65697 0.29821 0.58667 0.0
H1193 H 0.5908 0.34082 0.58996 0.0
H1194 H 0.67287 0.31161 0.52675 0.0
H1195 H 0.6556 0.28382 0.52484 0.0
H1196 H 0.67649 0.2884 0.54999 0.0
H1197 H 0.59123 0.3631 0.53096 0.0
H1198 H 0.57004 0.35398 0.55461 0.0
H1199 H 0.57458 0.33509 0.52785 0.0
C1200 C 0.86074 0.68759 0.07592 0.0
C1201 C 0.87971 0.67773 0.09018 0.0
C1202 C 0.86133 0.68627 0.0503 0.0
C1203 C 0.88152 0.67501 0.03853 0.0
C1204 C 0.90089 0.6652 0.05274 0.0
C1205 C 0.8997 0.66656 0.07846 0.0
C1206 C 0.84021 0.69685 0.03584 0.0
C1207 C 0.92281 0.65329 0.04079 0.0
C1208 C 0.86667 0.6557 0.97351 0.0
C1209 C 0.87369 0.67664 0.96037 0.0
C1210 C 0.87061 0.65412 0.99889 0.0
C1211 C 0.88207 0.67385 0.01129 0.0
C1212 C 0.89101 0.69409 0.99775 0.0
C1213 C 0.88659 0.69531 0.97246 0.0
C1214 C 0.86076 0.63223 0.01266 0.0
C1215 C 0.90367 0.71532 0.0102 0.0
H1216 H 0.84517 0.69615 0.0848 0.0
H1217 H 0.91444 0.65891 0.08937 0.0
H1218 H 0.84693 0.71153 0.02348 0.0
H1219 H 0.83187 0.68242 0.02418 0.0
H1220 H 0.82571 0.70466 0.04782 0.0
H1221 H 0.93647 0.6468 0.05441 0.0
H1222 H 0.91681 0.63745 0.02954 0.0
H1223 H 0.93186 0.66648 0.02824 0.0
H1224 H 0.85674 0.64118 0.96427 0.0
H1225 H 0.89231 0.71144 0.96236 0.0
H1226 H 0.84435 0.63782 0.0233 0.0
H1227 H 0.87453 0.62528 0.0259 0.0
H1228 H 0.85546 0.61707 1.00015 0.0
H1229 H 0.89 0.72613 0.0207 0.0
H1230 H 0.91273 0.72773 0.99684 0.0
H1231 H 0.9176 0.70862 0.0234 0.0
C1232 C 0.42202 0.14202 0.19463 0.0
C1233 C 0.40852 0.12313 0.18362 0.0
C1234 C 0.44767 0.1425 0.19334 0.0
C1235 C 0.46023 0.12342 0.18102 0.0
C1236 C 0.44678 0.104 0.17027 0.0
C1237 C 0.42103 0.10417 0.17154 0.0
C1238 C 0.4613 0.16368 0.20488 0.0
C1239 C 0.45958 0.08315 0.15735 0.0
C1240 C 0.52436 0.1412 0.16089 0.0
C1241 C 0.53829 0.13359 0.18109 0.0
C1242 C 0.49901 0.13681 0.15993 0.0
C1243 C 0.48746 0.12418 0.17946 0.0
C1244 C 0.50179 0.11485 0.19896 0.0
C1245 C 0.527 0.11985 0.19965 0.0
C1246 C 0.48437 0.14722 0.13889 0.0
C1247 C 0.49027 0.1009 0.2199 0.0
H1248 H 0.41251 0.15681 0.20389 0.0
H1249 H 0.4107 0.08948 0.16302 0.0
H1250 H 0.47415 0.15678 0.21903 0.0
H1251 H 0.47238 0.17328 0.19079 0.0
H1252 H 0.44877 0.17718 0.21355 0.0
H1253 H 0.44653 0.069 0.15071 0.0
H1254 H 0.47006 0.09029 0.14146 0.0
H1255 H 0.47295 0.07434 0.16989 0.0
H1256 H 0.53297 0.15186 0.1465 0.0
H1257 H 0.53773 0.11371 0.21521 0.0
H1258 H 0.47293 0.16265 0.1456 0.0
H1259 H 0.47178 0.13317 0.13131 0.0
H1260 H 0.4963 0.15409 0.1239 0.0
H1261 H 0.47938 0.11368 0.23137 0.0
H1262 H 0.50422 0.09194 0.23172 0.0
H1263 H 0.47755 0.08667 0.21287 0.0
C1264 C 0.97467 0.88417 0.69859 0.0
C1265 C 0.962 0.87215 0.67973 0.0
C1266 C 0.99995 0.88853 0.69689 0.0
C1267 C 0.01291 0.88042 0.67594 0.0
C1268 C 0.99993 0.86979 0.65613 0.0
C1269 C 0.97456 0.86589 0.65821 0.0
C1270 C 0.01303 0.90026 0.71827 0.0
C1271 C 0.01306 0.86084 0.63349 0.0
C1272 C 0.07976 0.89872 0.6673 0.0
C1273 C 0.09193 0.87831 0.67718 0.0
C1274 C 0.054 0.89982 0.66682 0.0
C1275 C 0.04018 0.87997 0.67623 0.0
C1276 C 0.05241 0.85937 0.68623 0.0
C1277 C 0.07807 0.85886 0.68668 0.0
C1278 C 0.04158 0.92217 0.65624 0.0
C1279 C 0.03837 0.83774 0.69636 0.0
H1280 H 0.96503 0.8893 0.71519 0.0
H1281 H 0.96488 0.85663 0.64355 0.0
H1282 H 0.02394 0.88617 0.72807 0.0
H1283 H 0.02596 0.91456 0.71179 0.0
H1284 H 1.00004 0.90868 0.73149 0.0
H1285 H 1.00012 0.85602 0.61853 0.0
H1286 H 0.026 0.87496 0.62666 0.0
H1287 H 0.02398 0.84431 0.63812 0.0
H1288 H 0.09036 0.91383 0.65994 0.0
H1289 H 0.08729 0.84297 0.69426 0.0
H1290 H 0.02937 0.93056 0.67016 0.0
H1291 H 0.0299 0.91678 0.64049 0.0
H1292 H 0.05493 0.9362 0.64996 0.0
H1293 H 0.02642 0.84378 0.71165 0.0
H1294 H 0.05066 0.82301 0.70319 0.0
H1295 H 0.02632 0.82993 0.68196 0.0
C1296 C 0.02659 0.36293 0.84082 0.0
C1297 C 0.04011 0.37266 0.82126 0.0
C1298 C 1.00113 0.36635 0.84227 0.0
C1299 C 0.989 0.38008 0.82387 0.0
C1300 C 0.00283 0.39141 0.80508 0.0
C1301 C 0.02821 0.38744 0.80392 0.0
C1302 C 0.98703 0.35387 0.86254 0.0
C1303 C 0.99065 0.40652 0.78535 0.0
C1304 C 0.92394 0.36132 0.80826 0.0
C1305 C 0.91005 0.37893 0.8208 0.0
C1306 C 0.9496 0.3616 0.80912 0.0
C1307 C 0.96176 0.38013 0.82262 0.0
C1308 C 0.94791 0.39827 0.83496 0.0
C1309 C 0.92217 0.39738 0.83402 0.0
C1310 C 0.96371 0.3418 0.79583 0.0
C1311 C 0.96026 0.41847 0.84927 0.0
H1312 H 0.03566 0.3515 0.85431 0.0
H1313 H 0.03859 0.39522 0.78887 0.0
H1314 H 0.97414 0.3669 0.87133 0.0
H1315 H 0.97595 0.3387 0.85473 0.0
H1316 H 0.99932 0.34618 0.87683 0.0
H1317 H 0.00418 0.41674 0.77409 0.0
H1318 H 0.98 0.39429 0.77307 0.0
H1319 H 0.9776 0.41979 0.79354 0.0
H1320 H 0.91474 0.34695 0.79808 0.0
H1321 H 0.91154 0.41109 0.84371 0.0
H1322 H 0.97519 0.33143 0.80903 0.0
H1323 H 0.97623 0.35017 0.78217 0.0
H1324 H 0.95147 0.32868 0.7862 0.0
H1325 H 0.97114 0.41048 0.86447 0.0
H1326 H 0.94689 0.4317 0.85707 0.0
H1327 H 0.97321 0.42859 0.83729 0.0
C1328 C 0.47474 0.6154 0.30238 0.0
C1329 C 0.46371 0.63014 0.32032 0.0
C1330 C 0.50001 0.61063 0.30284 0.0
C1331 C 0.51467 0.62126 0.32141 0.0
C1332 C 0.50343 0.63509 0.3403 0.0
C1333 C 0.47802 0.63919 0.33964 0.0
C1334 C 0.5112 0.59534 0.28267 0.0
C1335 C 0.51843 0.64694 0.3603 0.0
C1336 C 0.58107 0.60172 0.33056 0.0
C1337 C 0.59361 0.61981 0.31725 0.0
C1338 C 0.55532 0.60157 0.3317 0.0
C1339 C 0.54188 0.6202 0.3196 0.0
C1340 C 0.55447 0.63832 0.30593 0.0
C1341 C 0.58014 0.63778 0.30476 0.0
C1342 C 0.54251 0.58169 0.34604 0.0
C1343 C 0.54086 0.65867 0.29296 0.0
H1344 H 0.46372 0.60818 0.2875 0.0
H1345 H 0.46962 0.65065 0.35352 0.0
H1346 H 0.52199 0.60731 0.27027 0.0
H1347 H 0.52395 0.58153 0.29043 0.0
H1348 H 0.49706 0.58571 0.27163 0.0
H1349 H 0.50676 0.65513 0.37484 0.0
H1350 H 0.53092 0.63336 0.36883 0.0
H1351 H 0.53 0.66163 0.35228 0.0
H1352 H 0.59138 0.58774 0.3402 0.0
H1353 H 0.58968 0.6519 0.29455 0.0
H1354 H 0.52881 0.57232 0.33429 0.0
H1355 H 0.53242 0.58989 0.36167 0.0
H1356 H 0.55552 0.56779 0.35327 0.0
H1357 H 0.5278 0.65083 0.27951 0.0
H1358 H 0.55339 0.67138 0.28317 0.0
H1359 H 0.53 0.66938 0.30641 0.0
C1360 C 0.19865 0.42591 0.13246 0.0
C1361 C 0.18512 0.41167 0.11589 0.0
C1362 C 0.19747 0.45159 0.13197 0.0
C1363 C 0.18256 0.46341 0.11432 0.0
C1364 C 0.1694 0.4492 0.09706 0.0
C1365 C 0.17073 0.42347 0.09812 0.0
C1366 C 0.21173 0.46605 0.1508 0.0
C1367 C 0.15355 0.46116 0.07779 0.0
C1368 C 0.16272 0.52735 0.13312 0.0
C1369 C 0.18088 0.54187 0.12215 0.0
C1370 C 0.16227 0.50185 0.12969 0.0
C1371 C 0.18026 0.49062 0.11473 0.0
C1372 C 0.19759 0.50537 0.10226 0.0
C1373 C 0.19777 0.53082 0.10621 0.0
C1374 C 0.1435 0.48678 0.14335 0.0
C1375 C 0.21684 0.49415 0.08586 0.0
H1376 H 0.20978 0.41697 0.14627 0.0
H1377 H 0.16026 0.41259 0.0852 0.0
H1378 H 0.22416 0.47921 0.14156 0.0
H1379 H 0.19891 0.47688 0.1623 0.0
H1380 H 0.22283 0.45409 0.16298 0.0
H1381 H 0.14577 0.44762 0.06473 0.0
H1382 H 0.13823 0.47111 0.08671 0.0
H1383 H 0.16435 0.47487 0.06736 0.0
H1384 H 0.14957 0.53572 0.14543 0.0
H1385 H 0.21176 0.54193 0.09752 0.0
H1386 H 0.1528 0.47577 0.15771 0.0
H1387 H 0.13427 0.47376 0.13077 0.0
H1388 H 0.12934 0.49839 0.15228 0.0
H1389 H 0.23034 0.48402 0.09719 0.0
H1390 H 0.2268 0.50822 0.07502 0.0
H1391 H 0.2084 0.48078 0.07307 0.0
C1392 C 0.69821 0.97352 0.88928 0.0
C1393 C 0.68016 0.96154 0.87545 0.0
C1394 C 0.69696 0.99886 0.89357 0.0
C1395 C 0.67742 0.01257 0.88342 0.0
C1396 C 0.65833 1.00032 0.87079 0.0
C1397 C 0.65983 0.97487 0.86712 0.0
C1398 C 0.71743 0.01114 0.90757 0.0
C1399 C 0.63726 0.01428 0.85953 0.0
C1400 C 0.6683 0.07958 0.90088 0.0
C1401 C 0.68066 0.09156 0.88177 0.0
C1402 C 0.66731 0.05383 0.90193 0.0
C1403 C 0.67862 0.03983 0.88323 0.0
C1404 C 0.69118 0.05187 0.86398 0.0
C1405 C 0.69219 0.07754 0.86359 0.0
C1406 C 0.65411 0.0416 0.92294 0.0
C1407 C 0.7033 0.03764 0.84354 0.0
H1408 H 0.71385 0.96326 0.89598 0.0
H1409 H 0.64583 0.96572 0.8564 0.0
H1410 H 0.72908 0.0217 0.89467 0.0
H1411 H 0.70992 0.02429 0.92114 0.0
H1412 H 0.72919 0.99766 0.91729 0.0
H1413 H 0.62252 0.00189 0.8529 0.0
H1414 H 0.6293 0.02731 0.87295 0.0
H1415 H 0.64407 0.02521 0.84379 0.0
H1416 H 0.6594 0.09032 0.91502 0.0
H1417 H 0.70166 0.08665 0.8487 0.0
H1418 H 0.66667 0.02878 0.93251 0.0
H1419 H 0.63855 0.0306 0.91587 0.0
H1420 H 0.64697 0.05507 0.93644 0.0
H1421 H 0.71751 0.02526 0.85117 0.0
H1422 H 0.71205 0.04981 0.82976 0.0
H1423 H 0.68954 0.026 0.83411 0.0
C1424 C 0.80411 0.02699 0.38054 0.0
C1425 C 0.82276 0.03945 0.36796 0.0
C1426 C 0.80556 0.00165 0.38473 0.0
C1427 C 0.82603 0.98839 0.37588 0.0
C1428 C 0.84563 1.00111 0.36454 0.0
C1429 C 0.84381 0.02654 0.36084 0.0
C1430 C 0.78444 0.98886 0.39722 0.0
C1431 C 0.86774 0.98765 0.35478 0.0
C1432 C 0.83486 0.92163 0.39453 0.0
C1433 C 0.82414 0.9093 0.37466 0.0
C1434 C 0.83554 0.94741 0.39534 0.0
C1435 C 0.82549 0.9611 0.37571 0.0
C1436 C 0.81463 0.94871 0.35566 0.0
C1437 C 0.81399 0.92303 0.35544 0.0
C1438 C 0.84703 0.95999 0.41712 0.0
C1439 C 0.80381 0.9626 0.33428 0.0
H1440 H 0.78788 0.03689 0.38631 0.0
H1441 H 0.85831 0.03604 0.35111 0.0
H1442 H 0.77411 0.9779 0.38356 0.0
H1443 H 0.79127 0.976 0.41142 0.0
H1444 H 0.77159 0.00204 0.40593 0.0
H1445 H 0.8826 1.00039 0.34917 0.0
H1446 H 0.87505 0.97481 0.36873 0.0
H1447 H 0.8623 0.97658 0.33861 0.0
H1448 H 0.84273 0.91115 0.40945 0.0
H1449 H 0.80577 0.91368 0.33996 0.0
H1450 H 0.83352 0.97242 0.42587 0.0
H1451 H 0.86267 0.97147 0.41105 0.0
H1452 H 0.8537 0.94673 0.43106 0.0
H1453 H 0.78885 0.97476 0.34075 0.0
H1454 H 0.79633 0.95021 0.31997 0.0
H1455 H 0.818 0.97445 0.32581 0.0
C1456 C 0.3443 0.47405 0.64101 0.0
C1457 C 0.32374 0.46037 0.63391 0.0
C1458 C 0.34517 0.49952 0.63726 0.0
C1459 C 0.32509 0.51148 0.62595 0.0
C1460 C 0.30513 0.49747 0.61712 0.0
C1461 C 0.30463 0.47209 0.62132 0.0
C1462 C 0.36678 0.5138 0.64698 0.0
C1463 C 0.28352 0.50946 0.60466 0.0
C1464 C 0.311 0.57631 0.64673 0.0
C1465 C 0.32072 0.59045 0.62759 0.0
C1466 C 0.31234 0.55065 0.64631 0.0
C1467 C 0.32352 0.53873 0.62616 0.0
C1468 C 0.33306 0.55283 0.60657 0.0
C1469 C 0.33163 0.57857 0.60756 0.0
C1470 C 0.30201 0.53631 0.66764 0.0
C1471 C 0.34488 0.54073 0.58469 0.0
H1472 H 0.35916 0.46511 0.65072 0.0
H1473 H 0.28878 0.4616 0.61556 0.0
H1474 H 0.37358 0.5269 0.633 0.0
H1475 H 0.36096 0.52468 0.66315 0.0
H1476 H 0.38212 0.50163 0.65257 0.0
H1477 H 0.27119 0.49581 0.59592 0.0
H1478 H 0.27277 0.51997 0.61835 0.0
H1479 H 0.28983 0.52261 0.59049 0.0
H1480 H 0.3026 0.5853 0.66232 0.0
H1481 H 0.33919 0.58937 0.5927 0.0
H1482 H 0.31664 0.52502 0.67612 0.0
H1483 H 0.28755 0.52359 0.66111 0.0
H1484 H 0.29402 0.54839 0.68195 0.0
H1485 H 0.36109 0.53 0.59065 0.0
H1486 H 0.35081 0.55425 0.57067 0.0
H1487 H 0.33187 0.52767 0.57609 0.0
C1488 C 0.8664 0.84215 0.4739 0.0
C1489 C 0.87447 0.82131 0.46119 0.0
C1490 C 0.86923 0.84395 0.49942 0.0
C1491 C 0.88051 0.82451 0.51243 0.0
C1492 C 0.89026 0.80429 0.49944 0.0
C1493 C 0.88706 0.8029 0.47398 0.0
C1494 C 0.85862 0.86584 0.5126 0.0
C1495 C 0.90265 0.78331 0.51259 0.0
C1496 C 0.89658 0.83305 0.57981 0.0
C1497 C 0.87634 0.82208 0.59129 0.0
C1498 C 0.89832 0.83398 0.55411 0.0
C1499 C 0.87932 0.82381 0.53966 0.0
C1500 C 0.85893 0.81265 0.55118 0.0
C1501 C 0.85773 0.81187 0.57681 0.0
C1502 C 0.92038 0.8459 0.54244 0.0
C1503 C 0.83826 0.80159 0.53643 0.0
H1504 H 0.85672 0.8565 0.46414 0.0
H1505 H 0.89356 0.78684 0.46425 0.0
H1506 H 0.84211 0.86011 0.52299 0.0
H1507 H 0.87197 0.87328 0.526 0.0
H1508 H 0.85329 0.8807 0.49973 0.0
H1509 H 0.91205 0.77066 0.4997 0.0
H1510 H 0.91626 0.79031 0.52597 0.0
H1511 H 0.88876 0.77271 0.523 0.0
H1512 H 0.91103 0.84099 0.59088 0.0
H1513 H 0.842 0.80341 0.5855 0.0
H1514 H 0.91448 0.86153 0.53085 0.0
H1515 H 0.92981 0.83261 0.53026 0.0
H1516 H 0.93371 0.85269 0.55624 0.0
H1517 H 0.82997 0.81577 0.52443 0.0
H1518 H 0.82363 0.79374 0.54822 0.0
H1519 H 0.84543 0.78686 0.52439 0.0
C1520 C 0.63293 0.16068 0.97378 0.0
C1521 C 0.62409 0.18047 0.95994 0.0
C1522 C 0.62987 0.15999 0.99931 0.0
C1523 C 0.61757 0.17949 0.01124 0.0
C1524 C 0.60704 0.19857 0.99716 0.0
C1525 C 0.61049 0.19887 0.97168 0.0
C1526 C 0.64131 0.13926 0.01365 0.0
C1527 C 0.59357 0.21957 0.00915 0.0
C1528 C 0.60187 0.17245 0.0789 0.0
C1529 C 0.62175 0.1844 0.09001 0.0
C1530 C 0.59999 0.17093 0.05323 0.0
C1531 C 0.61848 0.18152 0.03842 0.0
C1532 C 0.63837 0.19392 0.04957 0.0
C1533 C 0.63972 0.19524 0.07517 0.0
C1534 C 0.57845 0.15771 0.04197 0.0
C1535 C 0.65848 0.20548 0.03445 0.0
H1536 H 0.64338 0.14632 0.96485 0.0
H1537 H 0.60341 0.21413 0.96111 0.0
H1538 H 0.65735 0.14627 0.024 0.0
H1539 H 0.62812 0.1318 0.02718 0.0
H1540 H 0.64756 0.1241 0.00157 0.0
H1541 H 0.58361 0.23102 0.99558 0.0
H1542 H 0.58027 0.21262 0.02286 0.0
H1543 H 0.60686 0.23139 0.019 0.0
H1544 H 0.5879 0.16403 0.09024 0.0
H1545 H 0.65515 0.20452 0.08357 0.0
H1546 H 0.585 0.14156 0.0315 0.0
H1547 H 0.56886 0.16991 0.02884 0.0
H1548 H 0.56509 0.15139 0.05598 0.0
H1549 H 0.66768 0.19126 0.02318 0.0
H1550 H 0.67253 0.21469 0.04595 0.0
H1551 H 0.65059 0.2192 0.02168 0.0
C1552 C 0.3982 0.66814 0.42308 0.0
C1553 C 0.37809 0.67921 0.41146 0.0
C1554 C 0.3995 0.66672 0.44879 0.0
C1555 C 0.38014 0.6764 0.4631 0.0
C1556 C 0.35983 0.68755 0.45143 0.0
C1557 C 0.35911 0.6889 0.42581 0.0
C1558 C 0.42154 0.65491 0.46063 0.0
C1559 C 0.33872 0.69801 0.46601 0.0
C1560 C 0.36589 0.65719 0.52831 0.0
C1561 C 0.37296 0.67818 0.54134 0.0
C1562 C 0.36961 0.65557 0.50289 0.0
C1563 C 0.38089 0.67531 0.49034 0.0
C1564 C 0.38987 0.69561 0.50376 0.0
C1565 C 0.38568 0.69686 0.52909 0.0
C1566 C 0.35975 0.6336 0.48925 0.0
C1567 C 0.40231 0.71688 0.49115 0.0
H1568 H 0.41295 0.66062 0.4121 0.0
H1569 H 0.34345 0.69739 0.41701 0.0
H1570 H 0.43066 0.66818 0.47304 0.0
H1571 H 0.41567 0.6391 0.472 0.0
H1572 H 0.43511 0.64839 0.44692 0.0
H1573 H 0.32411 0.70571 0.4541 0.0
H1574 H 0.33055 0.68354 0.47774 0.0
H1575 H 0.34543 0.71275 0.47831 0.0
H1576 H 0.35608 0.64265 0.53766 0.0
H1577 H 0.39144 0.71304 0.5391 0.0
H1578 H 0.37343 0.62669 0.47592 0.0
H1579 H 0.34322 0.63909 0.47874 0.0
H1580 H 0.35463 0.61844 0.50184 0.0
H1581 H 0.4162 0.71021 0.47789 0.0
H1582 H 0.41139 0.72939 0.50441 0.0
H1583 H 0.38851 0.72756 0.4807 0.0
C1584 C 0.11266 0.30555 0.02769 0.0
C1585 C 0.1273 0.32338 0.03907 0.0
C1586 C 0.10892 0.30575 0.00224 0.0
C1587 C 0.12023 0.32411 0.98781 0.0
C1588 C 0.13379 0.343 0.99937 0.0
C1589 C 0.13708 0.34246 0.02488 0.0
C1590 C 0.09408 0.28547 0.99066 0.0
C1591 C 0.14615 0.36292 0.98466 0.0
C1592 C 0.13971 0.30732 0.92324 0.0
C1593 C 0.12211 0.31941 0.90893 0.0
C1594 C 0.13907 0.30853 0.94888 0.0
C1595 C 0.12027 0.32203 0.96061 0.0
C1596 C 0.10209 0.33383 0.94633 0.0
C1597 C 0.10327 0.33245 0.92063 0.0
C1598 C 0.15886 0.29572 0.96343 0.0
C1599 C 0.08164 0.3482 0.9582 0.0
H1600 H 0.10488 0.29083 0.03854 0.0
H1601 H 0.14837 0.35635 0.03352 0.0
H1602 H 0.08079 0.29309 0.9773 0.0
H1603 H 0.10647 0.27297 0.98047 0.0
H1604 H 0.08391 0.27454 0.00451 0.0
H1605 H 0.15378 0.37763 0.99649 0.0
H1606 H 0.16134 0.35485 0.9738 0.0
H1607 H 0.13306 0.37125 0.97153 0.0
H1608 H 0.15435 0.29723 0.91438 0.0
H1609 H 0.08957 0.34182 0.9097 0.0
H1610 H 0.15051 0.28249 0.97642 0.0
H1611 H 0.16921 0.30933 0.97444 0.0
H1612 H 0.17199 0.28569 0.95153 0.0
H1613 H 0.07179 0.33654 0.97163 0.0
H1614 H 0.06825 0.35525 0.94459 0.0
H1615 H 0.08938 0.36397 0.96845 0.0
C1616 C 0.58012 0.89743 0.83387 0.0
C1617 C 0.59171 0.87674 0.82389 0.0
C1618 C 0.5544 0.89916 0.83457 0.0
C1619 C 0.54004 0.87965 0.82526 0.0
C1620 C 0.55168 0.85877 0.81515 0.0
C1621 C 0.57732 0.85762 0.81451 0.0
C1622 C 0.54261 0.92178 0.84527 0.0
C1623 C 0.53704 0.8375 0.80511 0.0
C1624 C 0.47421 0.86719 0.84368 0.0
C1625 C 0.46168 0.87379 0.82225 0.0
C1626 C 0.49968 0.87046 0.84562 0.0
C1627 C 0.51279 0.88079 0.82573 0.0
C1628 C 0.4999 0.88927 0.80489 0.0
C1629 C 0.47451 0.88555 0.80334 0.0
C1630 C 0.51274 0.86115 0.86816 0.0
C1631 C 0.51313 0.90071 0.78344 0.0
H1632 H 0.59113 0.91227 0.84116 0.0
H1633 H 0.58609 0.84152 0.80685 0.0
H1634 H 0.53053 0.93051 0.83144 0.0
H1635 H 0.53091 0.91666 0.86108 0.0
H1636 H 0.55636 0.93546 0.85148 0.0
H1637 H 0.54891 0.82248 0.79817 0.0
H1638 H 0.5249 0.82997 0.81959 0.0
H1639 H 0.52512 0.84385 0.78991 0.0
H1640 H 0.46441 0.85812 0.85839 0.0
H1641 H 0.46489 0.89095 0.78682 0.0
H1642 H 0.52609 0.87491 0.8749 0.0
H1643 H 0.52318 0.84433 0.86344 0.0
H1644 H 0.49978 0.85667 0.8832 0.0
H1645 H 0.52646 0.91466 0.78985 0.0
H1646 H 0.50027 0.90948 0.77032 0.0
H1647 H 0.52361 0.88636 0.77354 0.0
C1648 C 0.92572 0.14397 0.30604 0.0
C1649 C 0.91155 0.12558 0.31709 0.0
C1650 C 0.95137 0.14352 0.3073 0.0
C1651 C 0.96325 0.12415 0.31983 0.0
C1652 C 0.94912 0.10522 0.3306 0.0
C1653 C 0.9234 0.10618 0.32915 0.0
C1654 C 0.96575 0.16408 0.29554 0.0
C1655 C 0.96117 0.08421 0.34397 0.0
C1656 C 0.03034 0.11817 0.30283 0.0
C1657 C 0.04158 0.1322 0.32122 0.0
C1658 C 0.00495 0.11403 0.30298 0.0
C1659 C 0.99045 0.12427 0.3219 0.0
C1660 C 0.00191 0.1371 0.34134 0.0
C1661 C 0.02736 0.14086 0.3408 0.0
C1662 C 0.99348 0.10002 0.28206 0.0
C1663 C 0.98711 0.14827 0.36188 0.0
H1664 H 0.91676 0.15903 0.29668 0.0
H1665 H 0.91258 0.0919 0.33773 0.0
H1666 H 0.97664 0.17384 0.30967 0.0
H1667 H 0.97883 0.15653 0.28194 0.0
H1668 H 0.95373 0.17759 0.28617 0.0
H1669 H 0.94767 0.07036 0.35034 0.0
H1670 H 0.9747 0.07505 0.33187 0.0
H1671 H 0.97134 0.09127 0.3601 0.0
H1672 H 0.04121 0.11124 0.28773 0.0
H1673 H 0.0359 0.15163 0.35514 0.0
H1674 H 0.98313 0.11289 0.27018 0.0
H1675 H 0.98027 0.08624 0.28906 0.0
H1676 H 0.00741 0.09052 0.27065 0.0
H1677 H 0.97613 0.16379 0.35465 0.0
H1678 H 0.99892 0.1552 0.37695 0.0
H1679 H 0.9741 0.13464 0.36951 0.0
C1680 C 0.08059 0.63453 0.19639 0.0
C1681 C 0.09414 0.61674 0.18373 0.0
C1682 C 0.05492 0.63493 0.19527 0.0
C1683 C 0.04241 0.61684 0.18149 0.0
C1684 C 0.05592 0.59836 0.16926 0.0
C1685 C 0.08168 0.59866 0.17034 0.0
C1686 C 0.04122 0.65512 0.20839 0.0
C1687 C 0.04319 0.57851 0.15479 0.0
C1688 C 0.97526 0.61189 0.19865 0.0
C1689 C 0.96425 0.6268 0.18083 0.0
C1690 C 1.00053 0.60708 0.19814 0.0
C1691 C 0.01519 0.61783 0.17964 0.0
C1692 C 0.00396 0.63179 0.16084 0.0
C1693 C 0.97856 0.63593 0.16155 0.0
C1694 C 0.01171 0.59164 0.2182 0.0
C1695 C 0.01896 0.64378 0.14092 0.0
H1696 H 0.09008 0.64865 0.20666 0.0
H1697 H 0.09205 0.58481 0.16057 0.0
H1698 H 0.03035 0.66591 0.19501 0.0
H1699 H 0.02817 0.64713 0.22176 0.0
H1700 H 0.0537 0.6678 0.2183 0.0
H1701 H 0.05625 0.56466 0.14756 0.0
H1702 H 0.02946 0.56908 0.16645 0.0
H1703 H 0.03316 0.58675 0.13916 0.0
H1704 H 0.96425 0.60459 0.21349 0.0
H1705 H 0.97017 0.64752 0.14776 0.0
H1706 H 0.02242 0.60354 0.23074 0.0
H1707 H 0.02454 0.57795 0.21036 0.0
H1708 H 0.99757 0.58187 0.22911 0.0
H1709 H 0.03048 0.65846 0.14903 0.0
H1710 H 0.00729 0.65202 0.12641 0.0
H1711 H 0.03149 0.63027 0.13234 0.0
C1712 C 0.42902 0.35861 0.69449 0.0
C1713 C 0.41398 0.37629 0.68344 0.0
C1714 C 0.4546 0.36006 0.69285 0.0
C1715 C 0.46552 0.37976 0.67995 0.0
C1716 C 0.4505 0.3979 0.66904 0.0
C1717 C 0.42486 0.39592 0.67086 0.0
C1718 C 0.46996 0.3403 0.70473 0.0
C1719 C 0.46151 0.41922 0.65528 0.0
C1720 C 0.53219 0.38874 0.69703 0.0
C1721 C 0.54403 0.37483 0.67894 0.0
C1722 C 0.50667 0.39197 0.69667 0.0
C1723 C 0.49268 0.3809 0.67784 0.0
C1724 C 0.50472 0.3683 0.6586 0.0
C1725 C 0.53028 0.36547 0.65935 0.0
C1726 C 0.49457 0.40579 0.71736 0.0
C1727 C 0.49047 0.35627 0.63816 0.0
H1728 H 0.4208 0.34337 0.70423 0.0
H1729 H 0.41336 0.40967 0.66229 0.0
H1730 H 0.48132 0.33097 0.69068 0.0
H1731 H 0.48266 0.34857 0.71828 0.0
H1732 H 0.45862 0.32629 0.7142 0.0
H1733 H 0.44735 0.4322 0.64852 0.0
H1734 H 0.47444 0.42934 0.66727 0.0
H1735 H 0.47218 0.41238 0.63938 0.0
H1736 H 0.5427 0.39622 0.71214 0.0
H1737 H 0.53929 0.35479 0.64523 0.0
H1738 H 0.48486 0.39265 0.72948 0.0
H1739 H 0.48072 0.41881 0.71015 0.0
H1740 H 0.50806 0.41613 0.72857 0.0
H1741 H 0.48034 0.34023 0.6455 0.0
H1742 H 0.50259 0.34988 0.6231 0.0
H1743 H 0.47673 0.36915 0.63048 0.0
C1744 C 0.83234 0.57768 0.89722 0.0
C1745 C 0.82043 0.58882 0.87732 0.0
C1746 C 0.8335 0.552 0.89929 0.0
C1747 C 0.82259 0.53719 0.88099 0.0
C1748 C 0.81028 0.54837 0.86106 0.0
C1749 C 0.80931 0.574 0.85951 0.0
C1750 C 0.84663 0.54071 0.92086 0.0
C1751 C 0.7984 0.53324 0.84113 0.0
C1752 C 0.84234 0.47201 0.86723 0.0
C1753 C 0.8224 0.45858 0.87634 0.0
C1754 C 0.84342 0.49758 0.86995 0.0
C1755 C 0.82417 0.50997 0.88216 0.0
C1756 C 0.80492 0.49632 0.89294 0.0
C1757 C 0.80423 0.47078 0.88984 0.0
C1758 C 0.86431 0.51146 0.85824 0.0
C1759 C 0.78418 0.50881 0.90634 0.0
H1760 H 0.84097 0.58901 0.91106 0.0
H1761 H 0.80008 0.58242 0.84408 0.0
H1762 H 0.83424 0.52792 0.93067 0.0
H1763 H 0.86252 0.52983 0.91433 0.0
H1764 H 0.85332 0.55474 0.93402 0.0
H1765 H 0.78935 0.54478 0.827 0.0
H1766 H 0.81239 0.52163 0.83201 0.0
H1767 H 0.7845 0.52078 0.84919 0.0
H1768 H 0.85652 0.46272 0.85686 0.0
H1769 H 0.78885 0.46053 0.89711 0.0
H1770 H 0.87206 0.52503 0.87125 0.0
H1771 H 0.85739 0.52177 0.84213 0.0
H1772 H 0.87923 0.49907 0.85205 0.0
H1773 H 0.79139 0.52254 0.91948 0.0
H1774 H 0.77252 0.49553 0.91645 0.0
H1775 H 0.7725 0.51874 0.89298 0.0
C1776 C 0.3319 0.92243 0.10615 0.0
C1777 C 0.31948 0.91044 0.12523 0.0
C1778 C 0.33283 0.94819 0.10504 0.0
C1779 C 0.32119 0.96222 0.12352 0.0
C1780 C 0.30842 0.95019 0.14264 0.0
C1781 C 0.30767 0.9245 0.14321 0.0
C1782 C 0.34645 0.96038 0.08429 0.0
C1783 C 0.29581 0.96446 0.16273 0.0
C1784 C 0.34011 0.0273 0.13928 0.0
C1785 C 0.32045 0.04085 0.12975 0.0
C1786 C 0.34129 0.00175 0.13628 0.0
C1787 C 0.32245 0.9895 0.12329 0.0
C1788 C 0.30342 0.00328 0.11227 0.0
C1789 C 0.3026 0.02878 0.1157 0.0
C1790 C 0.3619 0.98773 0.1483 0.0
C1791 C 0.28313 0.99095 0.09805 0.0
H1792 H 0.34106 0.9117 0.09217 0.0
H1793 H 0.29806 0.91542 0.15804 0.0
H1794 H 0.33414 0.97326 0.07448 0.0
H1795 H 0.36192 0.97131 0.09167 0.0
H1796 H 0.3538 0.94689 0.07092 0.0
H1797 H 0.28653 0.95233 0.1762 0.0
H1798 H 0.30938 0.97593 0.17263 0.0
H1799 H 0.28196 0.97702 0.15472 0.0
H1800 H 0.35401 0.03647 0.15012 0.0
H1801 H 0.28744 0.03912 0.10811 0.0
H1802 H 0.3703 0.97472 0.13514 0.0
H1803 H 0.35451 0.97677 0.16377 0.0
H1804 H 0.37642 1.00007 0.15549 0.0
H1805 H 0.29083 0.97781 0.08459 0.0
H1806 H 0.27145 0.00439 0.08816 0.0
H1807 H 0.27136 0.98036 0.11081 0.0
C1808 C 0.1615 0.97786 0.63285 0.0
C1809 C 0.18138 0.96406 0.62424 0.0
C1810 C 0.1603 0.00326 0.62877 0.0
C1811 C 0.17922 0.01499 0.6154 0.0
C1812 C 0.19829 1.00078 0.60502 0.0
C1813 C 0.19927 0.97551 0.60977 0.0
C1814 C 0.13977 0.01777 0.64034 0.0
C1815 C 0.21851 0.01248 0.5902 0.0
C1816 C 0.16989 0.08172 0.59699 0.0
C1817 C 0.18279 0.094 0.61555 0.0
C1818 C 0.16892 0.05595 0.59634 0.0
C1819 C 0.18074 0.04224 0.61493 0.0
C1820 C 0.19395 0.05458 0.63356 0.0
C1821 C 0.19498 0.08025 0.63351 0.0
C1822 C 0.15507 0.04342 0.57594 0.0
C1823 C 0.20663 0.04066 0.65388 0.0
H1824 H 0.14764 0.96912 0.64409 0.0
H1825 H 0.21456 0.96487 0.60286 0.0
H1826 H 0.14722 0.02905 0.65554 0.0
H1827 H 0.1315 0.0305 0.62684 0.0
H1828 H 0.12514 0.00573 0.64781 0.0
H1829 H 0.22981 0.99863 0.58044 0.0
H1830 H 0.2108 0.02545 0.57657 0.0
H1831 H 0.23068 0.02313 0.60254 0.0
H1832 H 0.16048 0.09224 0.58301 0.0
H1833 H 0.20486 0.08959 0.648 0.0
H1834 H 0.13942 0.03297 0.58363 0.0
H1835 H 0.16715 0.03005 0.5665 0.0
H1836 H 0.14793 0.05665 0.56221 0.0
H1837 H 0.19307 0.0294 0.66403 0.0
H1838 H 0.21597 0.05303 0.66708 0.0
H1839 H 0.22043 0.02795 0.64606 0.0
C1840 C 0.69604 0.42857 0.36181 0.0
C1841 C 0.6846 0.41351 0.37921 0.0
C1842 C 0.69474 0.45419 0.36348 0.0
C1843 C 0.68173 0.46511 0.3831 0.0
C1844 C 0.67058 0.45006 0.40106 0.0
C1845 C 0.67211 0.4244 0.39888 0.0
C1846 C 0.70692 0.46956 0.34393 0.0
C1847 C 0.65668 0.46106 0.42229 0.0
C1848 C 0.69818 0.53202 0.39231 0.0
C1849 C 0.68015 0.54374 0.3782 0.0
C1850 C 0.69804 0.50647 0.39546 0.0
C1851 C 0.67947 0.4923 0.38417 0.0
C1852 C 0.66028 0.50419 0.37135 0.0
C1853 C 0.66082 0.52978 0.36857 0.0
C1854 C 0.71869 0.49453 0.40949 0.0
C1855 C 0.64007 0.48978 0.35911 0.0
H1856 H 0.70575 0.42035 0.34656 0.0
H1857 H 0.66322 0.41289 0.41242 0.0
H1858 H 0.69297 0.48081 0.33431 0.0
H1859 H 0.72023 0.48238 0.35242 0.0
H1860 H 0.71673 0.45823 0.33015 0.0
H1861 H 0.65015 0.4469 0.43539 0.0
H1862 H 0.66846 0.47428 0.43228 0.0
H1863 H 0.6406 0.47139 0.41536 0.0
H1864 H 0.71311 0.54267 0.39998 0.0
H1865 H 0.64674 0.53867 0.35774 0.0
H1866 H 0.73104 0.48493 0.39648 0.0
H1867 H 0.71146 0.48059 0.4224 0.0
H1868 H 0.72967 0.50811 0.41996 0.0
H1869 H 0.6477 0.47957 0.34326 0.0
H1870 H 0.62505 0.50179 0.35242 0.0
H1871 H 0.63227 0.47609 0.37195 0.0
loop_
_geom_bond_atom_site_label_1
_geom_bond_atom_site_label_2
_geom_bond_distance
_geom_bond_site_symmetry_2
_ccdc_geom_bond_type
O0 Cd1 2.223 . S
O0 C8 1.315 . S
Cd1 O0 2.223 . S
Cd1 O4 2.297 . S
Cd1 O5 2.439 . S
Cd1 O11 2.240 . S
Cd2 O3 2.240 . S
Cd2 O10 2.223 . S
Cd2 O12 2.297 . S
Cd2 O13 2.439 . S
O3 Cd2 2.240 . S
O3 C8 1.279 . S
O4 Cd1 2.297 . S
O4 C6 1.247 . S
O5 Cd1 2.439 . S
O5 C6 1.208 . S
C6 O4 1.247 . S
C6 O5 1.208 . S
C7 O12 1.247 . S
C7 O13 1.208 . S
C8 O0 1.315 . S
C8 O3 1.279 . S
C9 O10 1.315 . S
C9 O11 1.279 . S
O10 Cd2 2.223 . S
O10 C9 1.315 . S
O11 Cd1 2.240 . S
O11 C9 1.279 . S
O12 Cd2 2.297 . S
O12 C7 1.247 . S
O13 Cd2 2.439 . S
O13 C7 1.208 . S
O14 Cd15 2.223 . S
O14 C22 1.315 . S
Cd15 O14 2.223 . S
Cd15 O18 2.297 . S
Cd15 O19 2.439 . S
Cd15 O25 2.240 . S
Cd16 O17 2.240 . S
Cd16 O24 2.223 . S
Cd16 O26 2.297 . S
Cd16 O27 2.439 . S
O17 Cd16 2.240 . S
O17 C22 1.279 . S
O18 Cd15 2.297 . S
O18 C20 1.247 . S
O19 Cd15 2.439 . S
O19 C20 1.208 . S
C20 O18 1.247 . S
C20 O19 1.208 . S
C21 O26 1.247 . S
C21 O27 1.208 . S
C22 O14 1.315 . S
C22 O17 1.279 . S
C23 O24 1.315 . S
C23 O25 1.279 . S
O24 Cd16 2.223 . S
O24 C23 1.315 . S
O25 Cd15 2.240 . S
O25 C23 1.279 . S
O26 Cd16 2.297 . S
O26 C21 1.247 . S
O27 Cd16 2.439 . S
O27 C21 1.208 . S
O28 Cd29 2.223 . S
O28 C36 1.315 . S
Cd29 O28 2.223 . S
Cd29 O32 2.297 . S
Cd29 O33 2.439 . S
Cd29 O39 2.240 . S
Cd30 O31 2.240 . S
Cd30 O38 2.223 . S
Cd30 O40 2.297 . S
Cd30 O41 2.439 . S
O31 Cd30 2.240 . S
O31 C36 1.279 . S
O32 Cd29 2.297 . S
O32 C34 1.247 . S
O33 Cd29 2.439 . S
O33 C34 1.208 . S
C34 O32 1.247 . S
C34 O33 1.208 . S
C35 O40 1.247 . S
C35 O41 1.208 . S
C36 O28 1.315 . S
C36 O31 1.279 . S
C37 O38 1.315 . S
C37 O39 1.279 . S
O38 Cd30 2.223 . S
O38 C37 1.315 . S
O39 Cd29 2.240 . S
O39 C37 1.279 . S
O40 Cd30 2.297 . S
O40 C35 1.247 . S
O41 Cd30 2.439 . S
O41 C35 1.208 . S
O42 Cd43 2.223 . S
O42 C50 1.315 . S
Cd43 O42 2.223 . S
Cd43 O46 2.297 . S
Cd43 O47 2.439 . S
Cd43 O53 2.240 . S
Cd44 O45 2.240 . S
Cd44 O52 2.223 . S
Cd44 O54 2.297 . S
Cd44 O55 2.439 . S
O45 Cd44 2.240 . S
O45 C50 1.279 . S
O46 Cd43 2.297 . S
O46 C48 1.247 . S
O47 Cd43 2.439 . S
O47 C48 1.208 . S
C48 O46 1.247 . S
C48 O47 1.208 . S
C49 O54 1.247 . S
C49 O55 1.208 . S
C50 O42 1.315 . S
C50 O45 1.279 . S
C51 O52 1.315 . S
C51 O53 1.279 . S
O52 Cd44 2.223 . S
O52 C51 1.315 . S
O53 Cd43 2.240 . S
O53 C51 1.279 . S
O54 Cd44 2.297 . S
O54 C49 1.247 . S
O55 Cd44 2.439 . S
O55 C49 1.208 . S
O56 Cd57 2.223 . S
O56 C64 1.315 . S
Cd57 O56 2.223 . S
Cd57 O60 2.297 . S
Cd57 O61 2.439 . S
Cd57 O67 2.240 . S
Cd58 O59 2.240 . S
Cd58 O66 2.223 . S
Cd58 O68 2.297 . S
Cd58 O69 2.439 . S
O59 Cd58 2.240 . S
O59 C64 1.279 . S
O60 Cd57 2.297 . S
O60 C62 1.247 . S
O61 Cd57 2.439 . S
O61 C62 1.208 . S
C62 O60 1.247 . S
C62 O61 1.208 . S
C63 O68 1.247 . S
C63 O69 1.208 . S
C64 O56 1.315 . S
C64 O59 1.279 . S
C65 O66 1.315 . S
C65 O67 1.279 . S
O66 Cd58 2.223 . S
O66 C65 1.315 . S
O67 Cd57 2.240 . S
O67 C65 1.279 . S
O68 Cd58 2.297 . S
O68 C63 1.247 . S
O69 Cd58 2.439 . S
O69 C63 1.208 . S
O70 Cd71 2.223 . S
O70 C78 1.315 . S
Cd71 O70 2.223 . S
Cd71 O74 2.297 . S
Cd71 O75 2.439 . S
Cd71 O81 2.240 . S
Cd72 O73 2.240 . S
Cd72 O80 2.223 . S
Cd72 O82 2.297 . S
Cd72 O83 2.439 . S
O73 Cd72 2.240 . S
O73 C78 1.279 . S
O74 Cd71 2.297 . S
O74 C76 1.247 . S
O75 Cd71 2.439 . S
O75 C76 1.208 . S
C76 O74 1.247 . S
C76 O75 1.208 . S
C77 O82 1.247 . S
C77 O83 1.208 . S
C78 O70 1.315 . S
C78 O73 1.279 . S
C79 O80 1.315 . S
C79 O81 1.279 . S
O80 Cd72 2.223 . S
O80 C79 1.315 . S
O81 Cd71 2.240 . S
O81 C79 1.279 . S
O82 Cd72 2.297 . S
O82 C77 1.247 . S
O83 Cd72 2.439 . S
O83 C77 1.208 . S
O84 Cd85 2.223 . S
O84 C92 1.315 . S
Cd85 O84 2.223 . S
Cd85 O88 2.297 . S
Cd85 O89 2.439 . S
Cd85 O95 2.240 . S
Cd86 O87 2.240 . S
Cd86 O94 2.223 . S
Cd86 O96 2.297 . S
Cd86 O97 2.439 . S
O87 Cd86 2.240 . S
O87 C92 1.279 . S
O88 Cd85 2.297 . S
O88 C90 1.247 . S
O89 Cd85 2.439 . S
O89 C90 1.208 . S
C90 O88 1.247 . S
C90 O89 1.208 . S
C91 O96 1.247 . S
C91 O97 1.208 . S
C92 O84 1.315 . S
C92 O87 1.279 . S
C93 O94 1.315 . S
C93 O95 1.279 . S
O94 Cd86 2.223 . S
O94 C93 1.315 . S
O95 Cd85 2.240 . S
O95 C93 1.279 . S
O96 Cd86 2.297 . S
O96 C91 1.247 . S
O97 Cd86 2.439 . S
O97 C91 1.208 . S
O98 Cd99 2.223 . S
O98 C106 1.315 . S
Cd99 O98 2.223 . S
Cd99 O102 2.297 . S
Cd99 O103 2.439 . S
Cd99 O109 2.240 . S
Cd100 O101 2.240 . S
Cd100 O108 2.223 . S
Cd100 O110 2.297 . S
Cd100 O111 2.439 . S
O101 Cd100 2.240 . S
O101 C106 1.279 . S
O102 Cd99 2.297 . S
O102 C104 1.247 . S
O103 Cd99 2.439 . S
O103 C104 1.208 . S
C104 O102 1.247 . S
C104 O103 1.208 . S
C105 O110 1.247 . S
C105 O111 1.208 . S
C106 O98 1.315 . S
C106 O101 1.279 . S
C107 O108 1.315 . S
C107 O109 1.279 . S
O108 Cd100 2.223 . S
O108 C107 1.315 . S
O109 Cd99 2.240 . S
O109 C107 1.279 . S
O110 Cd100 2.297 . S
O110 C105 1.247 . S
O111 Cd100 2.439 . S
O111 C105 1.208 . S
O112 Cd113 2.223 . S
O112 C120 1.315 . S
Cd113 O112 2.223 . S
Cd113 O116 2.297 . S
Cd113 O117 2.439 . S
Cd113 O123 2.240 . S
Cd114 O115 2.240 . S
Cd114 O122 2.223 . S
Cd114 O124 2.297 . S
Cd114 O125 2.439 . S
O115 Cd114 2.240 . S
O115 C120 1.279 . S
O116 Cd113 2.297 . S
O116 C118 1.247 . S
O117 Cd113 2.439 . S
O117 C118 1.208 . S
C118 O116 1.247 . S
C118 O117 1.208 . S
C119 O124 1.247 . S
C119 O125 1.208 . S
C120 O112 1.315 . S
C120 O115 1.279 . S
C121 O122 1.315 . S
C121 O123 1.279 . S
O122 Cd114 2.223 . S
O122 C121 1.315 . S
O123 Cd113 2.240 . S
O123 C121 1.279 . S
O124 Cd114 2.297 . S
O124 C119 1.247 . S
O125 Cd114 2.439 . S
O125 C119 1.208 . S
O126 Cd127 2.223 . S
O126 C134 1.315 . S
Cd127 O126 2.223 . S
Cd127 O130 2.297 . S
Cd127 O131 2.439 . S
Cd127 O137 2.240 . S
Cd128 O129 2.240 . S
Cd128 O136 2.223 . S
Cd128 O138 2.297 . S
Cd128 O139 2.439 . S
O129 Cd128 2.240 . S
O129 C134 1.279 . S
O130 Cd127 2.297 . S
O130 C132 1.247 . S
O131 Cd127 2.439 . S
O131 C132 1.208 . S
C132 O130 1.247 . S
C132 O131 1.208 . S
C133 O138 1.247 . S
C133 O139 1.208 . S
C134 O126 1.315 . S
C134 O129 1.279 . S
C135 O136 1.315 . S
C135 O137 1.279 . S
O136 Cd128 2.223 . S
O136 C135 1.315 . S
O137 Cd127 2.240 . S
O137 C135 1.279 . S
O138 Cd128 2.297 . S
O138 C133 1.247 . S
O139 Cd128 2.439 . S
O139 C133 1.208 . S
O140 Cd141 2.223 . S
O140 C148 1.315 . S
Cd141 O140 2.223 . S
Cd141 O144 2.297 . S
Cd141 O145 2.439 . S
Cd141 O151 2.240 . S
Cd142 O143 2.240 . S
Cd142 O150 2.223 . S
Cd142 O152 2.297 . S
Cd142 O153 2.439 . S
O143 Cd142 2.240 . S
O143 C148 1.279 . S
O144 Cd141 2.297 . S
O144 C146 1.247 . S
O145 Cd141 2.439 . S
O145 C146 1.208 . S
C146 O144 1.247 . S
C146 O145 1.208 . S
C147 O152 1.247 . S
C147 O153 1.208 . S
C148 O140 1.315 . S
C148 O143 1.279 . S
C149 O150 1.315 . S
C149 O151 1.279 . S
O150 Cd142 2.223 . S
O150 C149 1.315 . S
O151 Cd141 2.240 . S
O151 C149 1.279 . S
O152 Cd142 2.297 . S
O152 C147 1.247 . S
O153 Cd142 2.439 . S
O153 C147 1.208 . S
O154 Cd155 2.223 . S
O154 C162 1.315 . S
Cd155 O154 2.223 . S
Cd155 O158 2.297 . S
Cd155 O159 2.439 . S
Cd155 O165 2.240 . S
Cd156 O157 2.240 . S
Cd156 O164 2.223 . S
Cd156 O166 2.297 . S
Cd156 O167 2.439 . S
O157 Cd156 2.240 . S
O157 C162 1.279 . S
O158 Cd155 2.297 . S
O158 C160 1.247 . S
O159 Cd155 2.439 . S
O159 C160 1.208 . S
C160 O158 1.247 . S
C160 O159 1.208 . S
C161 O166 1.247 . S
C161 O167 1.208 . S
C162 O154 1.315 . S
C162 O157 1.279 . S
C163 O164 1.315 . S
C163 O165 1.279 . S
O164 Cd156 2.223 . S
O164 C163 1.315 . S
O165 Cd155 2.240 . S
O165 C163 1.279 . S
O166 Cd156 2.297 . S
O166 C161 1.247 . S
O167 Cd156 2.439 . S
O167 C161 1.208 . S
O168 Cd169 2.223 . S
O168 C176 1.315 . S
Cd169 O168 2.223 . S
Cd169 O172 2.297 . S
Cd169 O173 2.439 . S
Cd169 O179 2.240 . S
Cd170 O171 2.240 . S
Cd170 O178 2.223 . S
Cd170 O180 2.297 . S
Cd170 O181 2.439 . S
O171 Cd170 2.240 . S
O171 C176 1.279 . S
O172 Cd169 2.297 . S
O172 C174 1.247 . S
O173 Cd169 2.439 . S
O173 C174 1.208 . S
C174 O172 1.247 . S
C174 O173 1.208 . S
C175 O180 1.247 . S
C175 O181 1.208 . S
C176 O168 1.315 . S
C176 O171 1.279 . S
C177 O178 1.315 . S
C177 O179 1.279 . S
O178 Cd170 2.223 . S
O178 C177 1.315 . S
O179 Cd169 2.240 . S
O179 C177 1.279 . S
O180 Cd170 2.297 . S
O180 C175 1.247 . S
O181 Cd170 2.439 . S
O181 C175 1.208 . S
O182 Cd183 2.223 . S
O182 C190 1.315 . S
Cd183 O182 2.223 . S
Cd183 O186 2.297 . S
Cd183 O187 2.439 . S
Cd183 O193 2.240 . S
Cd184 O185 2.240 . S
Cd184 O192 2.223 . S
Cd184 O194 2.297 . S
Cd184 O195 2.439 . S
O185 Cd184 2.240 . S
O185 C190 1.279 . S
O186 Cd183 2.297 . S
O186 C188 1.247 . S
O187 Cd183 2.439 . S
O187 C188 1.208 . S
C188 O186 1.247 . S
C188 O187 1.208 . S
C189 O194 1.247 . S
C189 O195 1.208 . S
C190 O182 1.315 . S
C190 O185 1.279 . S
C191 O192 1.315 . S
C191 O193 1.279 . S
O192 Cd184 2.223 . S
O192 C191 1.315 . S
O193 Cd183 2.240 . S
O193 C191 1.279 . S
O194 Cd184 2.297 . S
O194 C189 1.247 . S
O195 Cd184 2.439 . S
O195 C189 1.208 . S
O196 Cd197 2.223 . S
O196 C204 1.315 . S
Cd197 O196 2.223 . S
Cd197 O200 2.297 . S
Cd197 O201 2.439 . S
Cd197 O207 2.240 . S
Cd198 O199 2.240 . S
Cd198 O206 2.223 . S
Cd198 O208 2.297 . S
Cd198 O209 2.439 . S
O199 Cd198 2.240 . S
O199 C204 1.279 . S
O200 Cd197 2.297 . S
O200 C202 1.247 . S
O201 Cd197 2.439 . S
O201 C202 1.208 . S
C202 O200 1.247 . S
C202 O201 1.208 . S
C203 O208 1.247 . S
C203 O209 1.208 . S
C204 O196 1.315 . S
C204 O199 1.279 . S
C205 O206 1.315 . S
C205 O207 1.279 . S
O206 Cd198 2.223 . S
O206 C205 1.315 . S
O207 Cd197 2.240 . S
O207 C205 1.279 . S
O208 Cd198 2.297 . S
O208 C203 1.247 . S
O209 Cd198 2.439 . S
O209 C203 1.208 . S
O210 Cd211 2.223 . S
O210 C218 1.315 . S
Cd211 O210 2.223 . S
Cd211 O214 2.297 . S
Cd211 O215 2.439 . S
Cd211 O221 2.240 . S
Cd212 O213 2.240 . S
Cd212 O220 2.223 . S
Cd212 O222 2.297 . S
Cd212 O223 2.439 . S
O213 Cd212 2.240 . S
O213 C218 1.279 . S
O214 Cd211 2.297 . S
O214 C216 1.247 . S
O215 Cd211 2.439 . S
O215 C216 1.208 . S
C216 O214 1.247 . S
C216 O215 1.208 . S
C217 O222 1.247 . S
C217 O223 1.208 . S
C218 O210 1.315 . S
C218 O213 1.279 . S
C219 O220 1.315 . S
C219 O221 1.279 . S
O220 Cd212 2.223 . S
O220 C219 1.315 . S
O221 Cd211 2.240 . S
O221 C219 1.279 . S
O222 Cd212 2.297 . S
O222 C217 1.247 . S
O223 Cd212 2.439 . S
O223 C217 1.208 . S
O224 Cd225 2.223 . S
O224 C232 1.315 . S
Cd225 O224 2.223 . S
Cd225 O228 2.297 . S
Cd225 O229 2.439 . S
Cd225 O235 2.240 . S
Cd226 O227 2.240 . S
Cd226 O234 2.223 . S
Cd226 O236 2.297 . S
Cd226 O237 2.439 . S
O227 Cd226 2.240 . S
O227 C232 1.279 . S
O228 Cd225 2.297 . S
O228 C230 1.247 . S
O229 Cd225 2.439 . S
O229 C230 1.208 . S
C230 O228 1.247 . S
C230 O229 1.208 . S
C231 O236 1.247 . S
C231 O237 1.208 . S
C232 O224 1.315 . S
C232 O227 1.279 . S
C233 O234 1.315 . S
C233 O235 1.279 . S
O234 Cd226 2.223 . S
O234 C233 1.315 . S
O235 Cd225 2.240 . S
O235 C233 1.279 . S
O236 Cd226 2.297 . S
O236 C231 1.247 . S
O237 Cd226 2.439 . S
O237 C231 1.208 . S
O238 Cd239 2.223 . S
O238 C246 1.315 . S
Cd239 O238 2.223 . S
Cd239 O242 2.297 . S
Cd239 O243 2.439 . S
Cd239 O249 2.240 . S
Cd240 O241 2.240 . S
Cd240 O248 2.223 . S
Cd240 O250 2.297 . S
Cd240 O251 2.439 . S
O241 Cd240 2.240 . S
O241 C246 1.279 . S
O242 Cd239 2.297 . S
O242 C244 1.247 . S
O243 Cd239 2.439 . S
O243 C244 1.208 . S
C244 O242 1.247 . S
C244 O243 1.208 . S
C245 O250 1.247 . S
C245 O251 1.208 . S
C246 O238 1.315 . S
C246 O241 1.279 . S
C247 O248 1.315 . S
C247 O249 1.279 . S
O248 Cd240 2.223 . S
O248 C247 1.315 . S
O249 Cd239 2.240 . S
O249 C247 1.279 . S
O250 Cd240 2.297 . S
O250 C245 1.247 . S
O251 Cd240 2.439 . S
O251 C245 1.208 . S
O252 Cd253 2.223 . S
O252 C260 1.315 . S
Cd253 O252 2.223 . S
Cd253 O256 2.297 . S
Cd253 O257 2.439 . S
Cd253 O263 2.240 . S
Cd254 O255 2.240 . S
Cd254 O262 2.223 . S
Cd254 O264 2.297 . S
Cd254 O265 2.439 . S
O255 Cd254 2.240 . S
O255 C260 1.279 . S
O256 Cd253 2.297 . S
O256 C258 1.247 . S
O257 Cd253 2.439 . S
O257 C258 1.208 . S
C258 O256 1.247 . S
C258 O257 1.208 . S
C259 O264 1.247 . S
C259 O265 1.208 . S
C260 O252 1.315 . S
C260 O255 1.279 . S
C261 O262 1.315 . S
C261 O263 1.279 . S
O262 Cd254 2.223 . S
O262 C261 1.315 . S
O263 Cd253 2.240 . S
O263 C261 1.279 . S
O264 Cd254 2.297 . S
O264 C259 1.247 . S
O265 Cd254 2.439 . S
O265 C259 1.208 . S
O266 Cd267 2.223 . S
O266 C274 1.315 . S
Cd267 O266 2.223 . S
Cd267 O270 2.297 . S
Cd267 O271 2.439 . S
Cd267 O277 2.240 . S
Cd268 O269 2.240 . S
Cd268 O276 2.223 . S
Cd268 O278 2.297 . S
Cd268 O279 2.439 . S
O269 Cd268 2.240 . S
O269 C274 1.279 . S
O270 Cd267 2.297 . S
O270 C272 1.247 . S
O271 Cd267 2.439 . S
O271 C272 1.208 . S
C272 O270 1.247 . S
C272 O271 1.208 . S
C273 O278 1.247 . S
C273 O279 1.208 . S
C274 O266 1.315 . S
C274 O269 1.279 . S
C275 O276 1.315 . S
C275 O277 1.279 . S
O276 Cd268 2.223 . S
O276 C275 1.315 . S
O277 Cd267 2.240 . S
O277 C275 1.279 . S
O278 Cd268 2.297 . S
O278 C273 1.247 . S
O279 Cd268 2.439 . S
O279 C273 1.208 . S
O280 Cd281 2.223 . S
O280 C288 1.315 . S
Cd281 O280 2.223 . S
Cd281 O284 2.297 . S
Cd281 O285 2.439 . S
Cd281 O291 2.240 . S
Cd282 O283 2.240 . S
Cd282 O290 2.223 . S
Cd282 O292 2.297 . S
Cd282 O293 2.439 . S
O283 Cd282 2.240 . S
O283 C288 1.279 . S
O284 Cd281 2.297 . S
O284 C286 1.247 . S
O285 Cd281 2.439 . S
O285 C286 1.208 . S
C286 O284 1.247 . S
C286 O285 1.208 . S
C287 O292 1.247 . S
C287 O293 1.208 . S
C288 O280 1.315 . S
C288 O283 1.279 . S
C289 O290 1.315 . S
C289 O291 1.279 . S
O290 Cd282 2.223 . S
O290 C289 1.315 . S
O291 Cd281 2.240 . S
O291 C289 1.279 . S
O292 Cd282 2.297 . S
O292 C287 1.247 . S
O293 Cd282 2.439 . S
O293 C287 1.208 . S
O294 Cd295 2.223 . S
O294 C302 1.315 . S
Cd295 O294 2.223 . S
Cd295 O298 2.297 . S
Cd295 O299 2.439 . S
Cd295 O305 2.240 . S
Cd296 O297 2.240 . S
Cd296 O304 2.223 . S
Cd296 O306 2.297 . S
Cd296 O307 2.439 . S
O297 Cd296 2.240 . S
O297 C302 1.279 . S
O298 Cd295 2.297 . S
O298 C300 1.247 . S
O299 Cd295 2.439 . S
O299 C300 1.208 . S
C300 O298 1.247 . S
C300 O299 1.208 . S
C301 O306 1.247 . S
C301 O307 1.208 . S
C302 O294 1.315 . S
C302 O297 1.279 . S
C303 O304 1.315 . S
C303 O305 1.279 . S
O304 Cd296 2.223 . S
O304 C303 1.315 . S
O305 Cd295 2.240 . S
O305 C303 1.279 . S
O306 Cd296 2.297 . S
O306 C301 1.247 . S
O307 Cd296 2.439 . S
O307 C301 1.208 . S
O308 Cd309 2.223 . S
O308 C316 1.315 . S
Cd309 O308 2.223 . S
Cd309 O312 2.297 . S
Cd309 O313 2.439 . S
Cd309 O319 2.240 . S
Cd310 O311 2.240 . S
Cd310 O318 2.223 . S
Cd310 O320 2.297 . S
Cd310 O321 2.439 . S
O311 Cd310 2.240 . S
O311 C316 1.279 . S
O312 Cd309 2.297 . S
O312 C314 1.247 . S
O313 Cd309 2.439 . S
O313 C314 1.208 . S
C314 O312 1.247 . S
C314 O313 1.208 . S
C315 O320 1.247 . S
C315 O321 1.208 . S
C316 O308 1.315 . S
C316 O311 1.279 . S
C317 O318 1.315 . S
C317 O319 1.279 . S
O318 Cd310 2.223 . S
O318 C317 1.315 . S
O319 Cd309 2.240 . S
O319 C317 1.279 . S
O320 Cd310 2.297 . S
O320 C315 1.247 . S
O321 Cd310 2.439 . S
O321 C315 1.208 . S
O322 Cd323 2.223 . S
O322 C330 1.315 . S
Cd323 O322 2.223 . S
Cd323 O326 2.297 . S
Cd323 O327 2.439 . S
Cd323 O333 2.240 . S
Cd324 O325 2.240 . S
Cd324 O332 2.223 . S
Cd324 O334 2.297 . S
Cd324 O335 2.439 . S
O325 Cd324 2.240 . S
O325 C330 1.279 . S
O326 Cd323 2.297 . S
O326 C328 1.247 . S
O327 Cd323 2.439 . S
O327 C328 1.208 . S
C328 O326 1.247 . S
C328 O327 1.208 . S
C329 O334 1.247 . S
C329 O335 1.208 . S
C330 O322 1.315 . S
C330 O325 1.279 . S
C331 O332 1.315 . S
C331 O333 1.279 . S
O332 Cd324 2.223 . S
O332 C331 1.315 . S
O333 Cd323 2.240 . S
O333 C331 1.279 . S
O334 Cd324 2.297 . S
O334 C329 1.247 . S
O335 Cd324 2.439 . S
O335 C329 1.208 . S
C336 C337 1.391 . S
C336 C338 1.394 . S
C336 H352 0.931 . S
C337 C336 1.391 . S
C337 C341 1.376 . S
C338 C336 1.394 . S
C338 C339 1.369 . S
C338 C342 1.531 . S
C339 C338 1.369 . S
C339 C340 1.410 . S
C339 C347 1.503 . S
C340 C339 1.410 . S
C340 C341 1.392 . S
C340 C343 1.511 . S
C341 C337 1.376 . S
C341 C340 1.392 . S
C341 H353 0.929 . S
C342 C338 1.531 . S
C342 H354 0.960 . S
C342 H355 0.962 . S
C342 H356 0.960 . S
C343 C340 1.511 . S
C343 H357 0.961 . S
C343 H358 0.961 . S
C343 H359 0.961 . S
C344 C345 1.370 . S
C344 C346 1.363 . S
C344 H360 0.931 . S
C345 C344 1.370 . S
C345 C349 1.408 . S
C346 C344 1.363 . S
C346 C347 1.370 . S
C346 C350 1.524 . S
C347 C339 1.503 . S
C347 C346 1.370 . S
C347 C348 1.403 . S
C348 C347 1.403 . S
C348 C349 1.404 . S
C348 C351 1.539 . S
C349 C345 1.408 . S
C349 C348 1.404 . S
C349 H361 0.930 . S
C350 C346 1.524 . S
C350 H362 0.956 . S
C350 H363 0.961 . S
C350 H364 0.961 . S
C351 C348 1.539 . S
C351 H365 0.958 . S
C351 H366 0.961 . S
C351 H367 0.960 . S
H352 C336 0.931 . S
H353 C341 0.929 . S
H354 C342 0.960 . S
H355 C342 0.962 . S
H356 C342 0.960 . S
H357 C343 0.961 . S
H358 C343 0.961 . S
H359 C343 0.961 . S
H360 C344 0.931 . S
H361 C349 0.930 . S
H362 C350 0.956 . S
H363 C350 0.961 . S
H364 C350 0.961 . S
H365 C351 0.958 . S
H366 C351 0.961 . S
H367 C351 0.960 . S
C368 C369 1.391 . S
C368 C370 1.394 . S
C368 H384 0.931 . S
C369 C368 1.391 . S
C369 C373 1.376 . S
C370 C368 1.394 . S
C370 C371 1.369 . S
C370 C374 1.531 . S
C371 C370 1.369 . S
C371 C372 1.410 . S
C371 C379 1.503 . S
C372 C371 1.410 . S
C372 C373 1.392 . S
C372 C375 1.511 . S
C373 C369 1.376 . S
C373 C372 1.392 . S
C373 H385 0.929 . S
C374 C370 1.531 . S
C374 H386 0.960 . S
C374 H387 0.962 . S
C374 H388 0.960 . S
C375 C372 1.511 . S
C375 H389 0.961 . S
C375 H390 0.961 . S
C375 H391 0.961 . S
C376 C377 1.370 . S
C376 C378 1.363 . S
C376 H392 0.931 . S
C377 C376 1.370 . S
C377 C381 1.408 . S
C378 C376 1.363 . S
C378 C379 1.370 . S
C378 C382 1.524 . S
C379 C371 1.503 . S
C379 C378 1.370 . S
C379 C380 1.403 . S
C380 C379 1.403 . S
C380 C381 1.404 . S
C380 C383 1.539 . S
C381 C377 1.408 . S
C381 C380 1.404 . S
C381 H393 0.930 . S
C382 C378 1.524 . S
C382 H394 0.956 . S
C382 H395 0.961 . S
C382 H396 0.961 . S
C383 C380 1.539 . S
C383 H397 0.958 . S
C383 H398 0.961 . S
C383 H399 0.960 . S
H384 C368 0.931 . S
H385 C373 0.929 . S
H386 C374 0.960 . S
H387 C374 0.962 . S
H388 C374 0.960 . S
H389 C375 0.961 . S
H390 C375 0.961 . S
H391 C375 0.961 . S
H392 C376 0.931 . S
H393 C381 0.930 . S
H394 C382 0.956 . S
H395 C382 0.961 . S
H396 C382 0.961 . S
H397 C383 0.958 . S
H398 C383 0.961 . S
H399 C383 0.960 . S
C400 C401 1.391 . S
C400 C402 1.394 . S
C400 H416 0.931 . S
C401 C400 1.391 . S
C401 C405 1.376 . S
C402 C400 1.394 . S
C402 C403 1.369 . S
C402 C406 1.531 . S
C403 C402 1.369 . S
C403 C404 1.410 . S
C403 C411 1.503 . S
C404 C403 1.410 . S
C404 C405 1.392 . S
C404 C407 1.511 . S
C405 C401 1.376 . S
C405 C404 1.392 . S
C405 H417 0.929 . S
C406 C402 1.531 . S
C406 H418 0.960 . S
C406 H419 0.962 . S
C406 H420 0.960 . S
C407 C404 1.511 . S
C407 H421 0.961 . S
C407 H422 0.961 . S
C407 H423 0.961 . S
C408 C409 1.370 . S
C408 C410 1.363 . S
C408 H424 0.931 . S
C409 C408 1.370 . S
C409 C413 1.408 . S
C410 C408 1.363 . S
C410 C411 1.370 . S
C410 C414 1.524 . S
C411 C403 1.503 . S
C411 C410 1.370 . S
C411 C412 1.403 . S
C412 C411 1.403 . S
C412 C413 1.404 . S
C412 C415 1.539 . S
C413 C409 1.408 . S
C413 C412 1.404 . S
C413 H425 0.930 . S
C414 C410 1.524 . S
C414 H426 0.956 . S
C414 H427 0.961 . S
C414 H428 0.961 . S
C415 C412 1.539 . S
C415 H429 0.958 . S
C415 H430 0.961 . S
C415 H431 0.960 . S
H416 C400 0.931 . S
H417 C405 0.929 . S
H418 C406 0.960 . S
H419 C406 0.962 . S
H420 C406 0.960 . S
H421 C407 0.961 . S
H422 C407 0.961 . S
H423 C407 0.961 . S
H424 C408 0.931 . S
H425 C413 0.930 . S
H426 C414 0.956 . S
H427 C414 0.961 . S
H428 C414 0.961 . S
H429 C415 0.958 . S
H430 C415 0.961 . S
H431 C415 0.960 . S
C432 C433 1.391 . S
C432 C434 1.394 . S
C432 H448 0.931 . S
C433 C432 1.391 . S
C433 C437 1.376 . S
C434 C432 1.394 . S
C434 C435 1.369 . S
C434 C438 1.531 . S
C435 C434 1.369 . S
C435 C436 1.410 . S
C435 C443 1.503 . S
C436 C435 1.410 . S
C436 C437 1.392 . S
C436 C439 1.511 . S
C437 C433 1.376 . S
C437 C436 1.392 . S
C437 H449 0.929 . S
C438 C434 1.531 . S
C438 H450 0.960 . S
C438 H451 0.962 . S
C438 H452 0.960 . S
C439 C436 1.511 . S
C439 H453 0.961 . S
C439 H454 0.961 . S
C439 H455 0.961 . S
C440 C441 1.370 . S
C440 C442 1.363 . S
C440 H456 0.931 . S
C441 C440 1.370 . S
C441 C445 1.408 . S
C442 C440 1.363 . S
C442 C443 1.370 . S
C442 C446 1.524 . S
C443 C435 1.503 . S
C443 C442 1.370 . S
C443 C444 1.403 . S
C444 C443 1.403 . S
C444 C445 1.404 . S
C444 C447 1.539 . S
C445 C441 1.408 . S
C445 C444 1.404 . S
C445 H457 0.930 . S
C446 C442 1.524 . S
C446 H458 0.956 . S
C446 H459 0.961 . S
C446 H460 0.961 . S
C447 C444 1.539 . S
C447 H461 0.958 . S
C447 H462 0.961 . S
C447 H463 0.960 . S
H448 C432 0.931 . S
H449 C437 0.929 . S
H450 C438 0.960 . S
H451 C438 0.962 . S
H452 C438 0.960 . S
H453 C439 0.961 . S
H454 C439 0.961 . S
H455 C439 0.961 . S
H456 C440 0.931 . S
H457 C445 0.930 . S
H458 C446 0.956 . S
H459 C446 0.961 . S
H460 C446 0.961 . S
H461 C447 0.958 . S
H462 C447 0.961 . S
H463 C447 0.960 . S
C464 C465 1.391 . S
C464 C466 1.394 . S
C464 H480 0.931 . S
C465 C464 1.391 . S
C465 C469 1.376 . S
C466 C464 1.394 . S
C466 C467 1.369 . S
C466 C470 1.531 . S
C467 C466 1.369 . S
C467 C468 1.410 . S
C467 C475 1.503 . S
C468 C467 1.410 . S
C468 C469 1.392 . S
C468 C471 1.511 . S
C469 C465 1.376 . S
C469 C468 1.392 . S
C469 H481 0.929 . S
C470 C466 1.531 . S
C470 H482 0.960 . S
C470 H483 0.962 . S
C470 H484 0.960 . S
C471 C468 1.511 . S
C471 H485 0.961 . S
C471 H486 0.961 . S
C471 H487 0.961 . S
C472 C473 1.370 . S
C472 C474 1.363 . S
C472 H488 0.931 . S
C473 C472 1.370 . S
C473 C477 1.408 . S
C474 C472 1.363 . S
C474 C475 1.370 . S
C474 C478 1.524 . S
C475 C467 1.503 . S
C475 C474 1.370 . S
C475 C476 1.403 . S
C476 C475 1.403 . S
C476 C477 1.404 . S
C476 C479 1.539 . S
C477 C473 1.408 . S
C477 C476 1.404 . S
C477 H489 0.930 . S
C478 C474 1.524 . S
C478 H490 0.956 . S
C478 H491 0.961 . S
C478 H492 0.961 . S
C479 C476 1.539 . S
C479 H493 0.958 . S
C479 H494 0.961 . S
C479 H495 0.960 . S
H480 C464 0.931 . S
H481 C469 0.929 . S
H482 C470 0.960 . S
H483 C470 0.962 . S
H484 C470 0.960 . S
H485 C471 0.961 . S
H486 C471 0.961 . S
H487 C471 0.961 . S
H488 C472 0.931 . S
H489 C477 0.930 . S
H490 C478 0.956 . S
H491 C478 0.961 . S
H492 C478 0.961 . S
H493 C479 0.958 . S
H494 C479 0.961 . S
H495 C479 0.960 . S
C496 C497 1.391 . S
C496 C498 1.394 . S
C496 H512 0.931 . S
C497 C496 1.391 . S
C497 C501 1.376 . S
C498 C496 1.394 . S
C498 C499 1.369 . S
C498 C502 1.531 . S
C499 C498 1.369 . S
C499 C500 1.410 . S
C499 C507 1.503 . S
C500 C499 1.410 . S
C500 C501 1.392 . S
C500 C503 1.511 . S
C501 C497 1.376 . S
C501 C500 1.392 . S
C501 H513 0.929 . S
C502 C498 1.531 . S
C502 H514 0.960 . S
C502 H515 0.962 . S
C502 H516 0.960 . S
C503 C500 1.511 . S
C503 H517 0.961 . S
C503 H518 0.961 . S
C503 H519 0.961 . S
C504 C505 1.370 . S
C504 C506 1.363 . S
C504 H520 0.931 . S
C505 C504 1.370 . S
C505 C509 1.408 . S
C506 C504 1.363 . S
C506 C507 1.370 . S
C506 C510 1.524 . S
C507 C499 1.503 . S
C507 C506 1.370 . S
C507 C508 1.403 . S
C508 C507 1.403 . S
C508 C509 1.404 . S
C508 C511 1.539 . S
C509 C505 1.408 . S
C509 C508 1.404 . S
C509 H521 0.930 . S
C510 C506 1.524 . S
C510 H522 0.956 . S
C510 H523 0.961 . S
C510 H524 0.961 . S
C511 C508 1.539 . S
C511 H525 0.958 . S
C511 H526 0.961 . S
C511 H527 0.960 . S
H512 C496 0.931 . S
H513 C501 0.929 . S
H514 C502 0.960 . S
H515 C502 0.962 . S
H516 C502 0.960 . S
H517 C503 0.961 . S
H518 C503 0.961 . S
H519 C503 0.961 . S
H520 C504 0.931 . S
H521 C509 0.930 . S
H522 C510 0.956 . S
H523 C510 0.961 . S
H524 C510 0.961 . S
H525 C511 0.958 . S
H526 C511 0.961 . S
H527 C511 0.960 . S
C528 C529 1.391 . S
C528 C530 1.394 . S
C528 H544 0.931 . S
C529 C528 1.391 . S
C529 C533 1.376 . S
C530 C528 1.394 . S
C530 C531 1.369 . S
C530 C534 1.531 . S
C531 C530 1.369 . S
C531 C532 1.410 . S
C531 C539 1.503 . S
C532 C531 1.410 . S
C532 C533 1.392 . S
C532 C535 1.511 . S
C533 C529 1.376 . S
C533 C532 1.392 . S
C533 H545 0.929 . S
C534 C530 1.531 . S
C534 H546 0.960 . S
C534 H547 0.962 . S
C534 H548 0.960 . S
C535 C532 1.511 . S
C535 H549 0.961 . S
C535 H550 0.961 . S
C535 H551 0.961 . S
C536 C537 1.370 . S
C536 C538 1.363 . S
C536 H552 0.931 . S
C537 C536 1.370 . S
C537 C541 1.408 . S
C538 C536 1.363 . S
C538 C539 1.370 . S
C538 C542 1.524 . S
C539 C531 1.503 . S
C539 C538 1.370 . S
C539 C540 1.403 . S
C540 C539 1.403 . S
C540 C541 1.404 . S
C540 C543 1.539 . S
C541 C537 1.408 . S
C541 C540 1.404 . S
C541 H553 0.930 . S
C542 C538 1.524 . S
C542 H554 0.956 . S
C542 H555 0.961 . S
C542 H556 0.961 . S
C543 C540 1.539 . S
C543 H557 0.958 . S
C543 H558 0.961 . S
C543 H559 0.960 . S
H544 C528 0.931 . S
H545 C533 0.929 . S
H546 C534 0.960 . S
H547 C534 0.962 . S
H548 C534 0.960 . S
H549 C535 0.961 . S
H550 C535 0.961 . S
H551 C535 0.961 . S
H552 C536 0.931 . S
H553 C541 0.930 . S
H554 C542 0.956 . S
H555 C542 0.961 . S
H556 C542 0.961 . S
H557 C543 0.958 . S
H558 C543 0.961 . S
H559 C543 0.960 . S
C560 C561 1.391 . S
C560 C562 1.394 . S
C560 H576 0.931 . S
C561 C560 1.391 . S
C561 C565 1.376 . S
C562 C560 1.394 . S
C562 C563 1.369 . S
C562 C566 1.531 . S
C563 C562 1.369 . S
C563 C564 1.410 . S
C563 C571 1.503 . S
C564 C563 1.410 . S
C564 C565 1.392 . S
C564 C567 1.511 . S
C565 C561 1.376 . S
C565 C564 1.392 . S
C565 H577 0.929 . S
C566 C562 1.531 . S
C566 H578 0.960 . S
C566 H579 0.962 . S
C566 H580 0.960 . S
C567 C564 1.511 . S
C567 H581 0.961 . S
C567 H582 0.961 . S
C567 H583 0.961 . S
C568 C569 1.370 . S
C568 C570 1.363 . S
C568 H584 0.931 . S
C569 C568 1.370 . S
C569 C573 1.408 . S
C570 C568 1.363 . S
C570 C571 1.370 . S
C570 C574 1.524 . S
C571 C563 1.503 . S
C571 C570 1.370 . S
C571 C572 1.403 . S
C572 C571 1.403 . S
C572 C573 1.404 . S
C572 C575 1.539 . S
C573 C569 1.408 . S
C573 C572 1.404 . S
C573 H585 0.930 . S
C574 C570 1.524 . S
C574 H586 0.956 . S
C574 H587 0.961 . S
C574 H588 0.961 . S
C575 C572 1.539 . S
C575 H589 0.958 . S
C575 H590 0.961 . S
C575 H591 0.960 . S
H576 C560 0.931 . S
H577 C565 0.929 . S
H578 C566 0.960 . S
H579 C566 0.962 . S
H580 C566 0.960 . S
H581 C567 0.961 . S
H582 C567 0.961 . S
H583 C567 0.961 . S
H584 C568 0.931 . S
H585 C573 0.930 . S
H586 C574 0.956 . S
H587 C574 0.961 . S
H588 C574 0.961 . S
H589 C575 0.958 . S
H590 C575 0.961 . S
H591 C575 0.960 . S
C592 C593 1.391 . S
C592 C594 1.394 . S
C592 H608 0.931 . S
C593 C592 1.391 . S
C593 C597 1.376 . S
C594 C592 1.394 . S
C594 C595 1.369 . S
C594 C598 1.531 . S
C595 C594 1.369 . S
C595 C596 1.410 . S
C595 C603 1.503 . S
C596 C595 1.410 . S
C596 C597 1.392 . S
C596 C599 1.511 . S
C597 C593 1.376 . S
C597 C596 1.392 . S
C597 H609 0.929 . S
C598 C594 1.531 . S
C598 H610 0.960 . S
C598 H611 0.962 . S
C598 H612 0.960 . S
C599 C596 1.511 . S
C599 H613 0.961 . S
C599 H614 0.961 . S
C599 H615 0.961 . S
C600 C601 1.370 . S
C600 C602 1.363 . S
C600 H616 0.931 . S
C601 C600 1.370 . S
C601 C605 1.408 . S
C602 C600 1.363 . S
C602 C603 1.370 . S
C602 C606 1.524 . S
C603 C595 1.503 . S
C603 C602 1.370 . S
C603 C604 1.403 . S
C604 C603 1.403 . S
C604 C605 1.404 . S
C604 C607 1.539 . S
C605 C601 1.408 . S
C605 C604 1.404 . S
C605 H617 0.930 . S
C606 C602 1.524 . S
C606 H618 0.956 . S
C606 H619 0.961 . S
C606 H620 0.961 . S
C607 C604 1.539 . S
C607 H621 0.958 . S
C607 H622 0.961 . S
C607 H623 0.960 . S
H608 C592 0.931 . S
H609 C597 0.929 . S
H610 C598 0.960 . S
H611 C598 0.962 . S
H612 C598 0.960 . S
H613 C599 0.961 . S
H614 C599 0.961 . S
H615 C599 0.961 . S
H616 C600 0.931 . S
H617 C605 0.930 . S
H618 C606 0.956 . S
H619 C606 0.961 . S
H620 C606 0.961 . S
H621 C607 0.958 . S
H622 C607 0.961 . S
H623 C607 0.960 . S
C624 C625 1.391 . S
C624 C626 1.394 . S
C624 H640 0.931 . S
C625 C624 1.391 . S
C625 C629 1.376 . S
C626 C624 1.394 . S
C626 C627 1.369 . S
C626 C630 1.531 . S
C627 C626 1.369 . S
C627 C628 1.410 . S
C627 C635 1.503 . S
C628 C627 1.410 . S
C628 C629 1.392 . S
C628 C631 1.511 . S
C629 C625 1.376 . S
C629 C628 1.392 . S
C629 H641 0.929 . S
C630 C626 1.531 . S
C630 H642 0.960 . S
C630 H643 0.962 . S
C630 H644 0.960 . S
C631 C628 1.511 . S
C631 H645 0.961 . S
C631 H646 0.961 . S
C631 H647 0.961 . S
C632 C633 1.370 . S
C632 C634 1.363 . S
C632 H648 0.931 . S
C633 C632 1.370 . S
C633 C637 1.408 . S
C634 C632 1.363 . S
C634 C635 1.370 . S
C634 C638 1.524 . S
C635 C627 1.503 . S
C635 C634 1.370 . S
C635 C636 1.403 . S
C636 C635 1.403 . S
C636 C637 1.404 . S
C636 C639 1.539 . S
C637 C633 1.408 . S
C637 C636 1.404 . S
C637 H649 0.930 . S
C638 C634 1.524 . S
C638 H650 0.956 . S
C638 H651 0.961 . S
C638 H652 0.961 . S
C639 C636 1.539 . S
C639 H653 0.958 . S
C639 H654 0.961 . S
C639 H655 0.960 . S
H640 C624 0.931 . S
H641 C629 0.929 . S
H642 C630 0.960 . S
H643 C630 0.962 . S
H644 C630 0.960 . S
H645 C631 0.961 . S
H646 C631 0.961 . S
H647 C631 0.961 . S
H648 C632 0.931 . S
H649 C637 0.930 . S
H650 C638 0.956 . S
H651 C638 0.961 . S
H652 C638 0.961 . S
H653 C639 0.958 . S
H654 C639 0.961 . S
H655 C639 0.960 . S
C656 C657 1.391 . S
C656 C658 1.394 . S
C656 H672 0.931 . S
C657 C656 1.391 . S
C657 C661 1.376 . S
C658 C656 1.394 . S
C658 C659 1.369 . S
C658 C662 1.531 . S
C659 C658 1.369 . S
C659 C660 1.410 . S
C659 C667 1.503 . S
C660 C659 1.410 . S
C660 C661 1.392 . S
C660 C663 1.511 . S
C661 C657 1.376 . S
C661 C660 1.392 . S
C661 H673 0.929 . S
C662 C658 1.531 . S
C662 H674 0.960 . S
C662 H675 0.962 . S
C662 H676 0.960 . S
C663 C660 1.511 . S
C663 H677 0.961 . S
C663 H678 0.961 . S
C663 H679 0.961 . S
C664 C665 1.370 . S
C664 C666 1.363 . S
C664 H680 0.931 . S
C665 C664 1.370 . S
C665 C669 1.408 . S
C666 C664 1.363 . S
C666 C667 1.370 . S
C666 C670 1.524 . S
C667 C659 1.503 . S
C667 C666 1.370 . S
C667 C668 1.403 . S
C668 C667 1.403 . S
C668 C669 1.404 . S
C668 C671 1.539 . S
C669 C665 1.408 . S
C669 C668 1.404 . S
C669 H681 0.930 . S
C670 C666 1.524 . S
C670 H682 0.956 . S
C670 H683 0.961 . S
C670 H684 0.961 . S
C671 C668 1.539 . S
C671 H685 0.958 . S
C671 H686 0.961 . S
C671 H687 0.960 . S
H672 C656 0.931 . S
H673 C661 0.929 . S
H674 C662 0.960 . S
H675 C662 0.962 . S
H676 C662 0.960 . S
H677 C663 0.961 . S
H678 C663 0.961 . S
H679 C663 0.961 . S
H680 C664 0.931 . S
H681 C669 0.930 . S
H682 C670 0.956 . S
H683 C670 0.961 . S
H684 C670 0.961 . S
H685 C671 0.958 . S
H686 C671 0.961 . S
H687 C671 0.960 . S
C688 C689 1.391 . S
C688 C690 1.394 . S
C688 H704 0.931 . S
C689 C688 1.391 . S
C689 C693 1.376 . S
C690 C688 1.394 . S
C690 C691 1.369 . S
C690 C694 1.531 . S
C691 C690 1.369 . S
C691 C692 1.410 . S
C691 C699 1.503 . S
C692 C691 1.410 . S
C692 C693 1.392 . S
C692 C695 1.511 . S
C693 C689 1.376 . S
C693 C692 1.392 . S
C693 H705 0.929 . S
C694 C690 1.531 . S
C694 H706 0.960 . S
C694 H707 0.962 . S
C694 H708 0.960 . S
C695 C692 1.511 . S
C695 H709 0.961 . S
C695 H710 0.961 . S
C695 H711 0.961 . S
C696 C697 1.370 . S
C696 C698 1.363 . S
C696 H712 0.931 . S
C697 C696 1.370 . S
C697 C701 1.408 . S
C698 C696 1.363 . S
C698 C699 1.370 . S
C698 C702 1.524 . S
C699 C691 1.503 . S
C699 C698 1.370 . S
C699 C700 1.403 . S
C700 C699 1.403 . S
C700 C701 1.404 . S
C700 C703 1.539 . S
C701 C697 1.408 . S
C701 C700 1.404 . S
C701 H713 0.930 . S
C702 C698 1.524 . S
C702 H714 0.956 . S
C702 H715 0.961 . S
C702 H716 0.961 . S
C703 C700 1.539 . S
C703 H717 0.958 . S
C703 H718 0.961 . S
C703 H719 0.960 . S
H704 C688 0.931 . S
H705 C693 0.929 . S
H706 C694 0.960 . S
H707 C694 0.962 . S
H708 C694 0.960 . S
H709 C695 0.961 . S
H710 C695 0.961 . S
H711 C695 0.961 . S
H712 C696 0.931 . S
H713 C701 0.930 . S
H714 C702 0.956 . S
H715 C702 0.961 . S
H716 C702 0.961 . S
H717 C703 0.958 . S
H718 C703 0.961 . S
H719 C703 0.960 . S
C720 C721 1.391 . S
C720 C722 1.394 . S
C720 H736 0.931 . S
C721 C720 1.391 . S
C721 C725 1.376 . S
C722 C720 1.394 . S
C722 C723 1.369 . S
C722 C726 1.531 . S
C723 C722 1.369 . S
C723 C724 1.410 . S
C723 C731 1.503 . S
C724 C723 1.410 . S
C724 C725 1.392 . S
C724 C727 1.511 . S
C725 C721 1.376 . S
C725 C724 1.392 . S
C725 H737 0.929 . S
C726 C722 1.531 . S
C726 H738 0.960 . S
C726 H739 0.962 . S
C726 H740 0.960 . S
C727 C724 1.511 . S
C727 H741 0.961 . S
C727 H742 0.961 . S
C727 H743 0.961 . S
C728 C729 1.370 . S
C728 C730 1.363 . S
C728 H744 0.931 . S
C729 C728 1.370 . S
C729 C733 1.408 . S
C730 C728 1.363 . S
C730 C731 1.370 . S
C730 C734 1.524 . S
C731 C723 1.503 . S
C731 C730 1.370 . S
C731 C732 1.403 . S
C732 C731 1.403 . S
C732 C733 1.404 . S
C732 C735 1.539 . S
C733 C729 1.408 . S
C733 C732 1.404 . S
C733 H745 0.930 . S
C734 C730 1.524 . S
C734 H746 0.956 . S
C734 H747 0.961 . S
C734 H748 0.961 . S
C735 C732 1.539 . S
C735 H749 0.958 . S
C735 H750 0.961 . S
C735 H751 0.960 . S
H736 C720 0.931 . S
H737 C725 0.929 . S
H738 C726 0.960 . S
H739 C726 0.962 . S
H740 C726 0.960 . S
H741 C727 0.961 . S
H742 C727 0.961 . S
H743 C727 0.961 . S
H744 C728 0.931 . S
H745 C733 0.930 . S
H746 C734 0.956 . S
H747 C734 0.961 . S
H748 C734 0.961 . S
H749 C735 0.958 . S
H750 C735 0.961 . S
H751 C735 0.960 . S
C752 C753 1.391 . S
C752 C754 1.394 . S
C752 H768 0.931 . S
C753 C752 1.391 . S
C753 C757 1.376 . S
C754 C752 1.394 . S
C754 C755 1.369 . S
C754 C758 1.531 . S
C755 C754 1.369 . S
C755 C756 1.410 . S
C755 C763 1.503 . S
C756 C755 1.410 . S
C756 C757 1.392 . S
C756 C759 1.511 . S
C757 C753 1.376 . S
C757 C756 1.392 . S
C757 H769 0.929 . S
C758 C754 1.531 . S
C758 H770 0.960 . S
C758 H771 0.962 . S
C758 H772 0.960 . S
C759 C756 1.511 . S
C759 H773 0.961 . S
C759 H774 0.961 . S
C759 H775 0.961 . S
C760 C761 1.370 . S
C760 C762 1.363 . S
C760 H776 0.931 . S
C761 C760 1.370 . S
C761 C765 1.408 . S
C762 C760 1.363 . S
C762 C763 1.370 . S
C762 C766 1.524 . S
C763 C755 1.503 . S
C763 C762 1.370 . S
C763 C764 1.403 . S
C764 C763 1.403 . S
C764 C765 1.404 . S
C764 C767 1.539 . S
C765 C761 1.408 . S
C765 C764 1.404 . S
C765 H777 0.930 . S
C766 C762 1.524 . S
C766 H778 0.956 . S
C766 H779 0.961 . S
C766 H780 0.961 . S
C767 C764 1.539 . S
C767 H781 0.958 . S
C767 H782 0.961 . S
C767 H783 0.960 . S
H768 C752 0.931 . S
H769 C757 0.929 . S
H770 C758 0.960 . S
H771 C758 0.962 . S
H772 C758 0.960 . S
H773 C759 0.961 . S
H774 C759 0.961 . S
H775 C759 0.961 . S
H776 C760 0.931 . S
H777 C765 0.930 . S
H778 C766 0.956 . S
H779 C766 0.961 . S
H780 C766 0.961 . S
H781 C767 0.958 . S
H782 C767 0.961 . S
H783 C767 0.960 . S
C784 C785 1.391 . S
C784 C786 1.394 . S
C784 H800 0.931 . S
C785 C784 1.391 . S
C785 C789 1.376 . S
C786 C784 1.394 . S
C786 C787 1.369 . S
C786 C790 1.531 . S
C787 C786 1.369 . S
C787 C788 1.410 . S
C787 C795 1.503 . S
C788 C787 1.410 . S
C788 C789 1.392 . S
C788 C791 1.511 . S
C789 C785 1.376 . S
C789 C788 1.392 . S
C789 H801 0.929 . S
C790 C786 1.531 . S
C790 H802 0.960 . S
C790 H803 0.962 . S
C790 H804 0.960 . S
C791 C788 1.511 . S
C791 H805 0.961 . S
C791 H806 0.961 . S
C791 H807 0.961 . S
C792 C793 1.370 . S
C792 C794 1.363 . S
C792 H808 0.931 . S
C793 C792 1.370 . S
C793 C797 1.408 . S
C794 C792 1.363 . S
C794 C795 1.370 . S
C794 C798 1.524 . S
C795 C787 1.503 . S
C795 C794 1.370 . S
C795 C796 1.403 . S
C796 C795 1.403 . S
C796 C797 1.404 . S
C796 C799 1.539 . S
C797 C793 1.408 . S
C797 C796 1.404 . S
C797 H809 0.930 . S
C798 C794 1.524 . S
C798 H810 0.956 . S
C798 H811 0.961 . S
C798 H812 0.961 . S
C799 C796 1.539 . S
C799 H813 0.958 . S
C799 H814 0.961 . S
C799 H815 0.960 . S
H800 C784 0.931 . S
H801 C789 0.929 . S
H802 C790 0.960 . S
H803 C790 0.962 . S
H804 C790 0.960 . S
H805 C791 0.961 . S
H806 C791 0.961 . S
H807 C791 0.961 . S
H808 C792 0.931 . S
H809 C797 0.930 . S
H810 C798 0.956 . S
H811 C798 0.961 . S
H812 C798 0.961 . S
H813 C799 0.958 . S
H814 C799 0.961 . S
H815 C799 0.960 . S
C816 C817 1.391 . S
C816 C818 1.394 . S
C816 H832 0.931 . S
C817 C816 1.391 . S
C817 C821 1.376 . S
C818 C816 1.394 . S
C818 C819 1.369 . S
C818 C822 1.531 . S
C819 C818 1.369 . S
C819 C820 1.410 . S
C819 C827 1.503 . S
C820 C819 1.410 . S
C820 C821 1.392 . S
C820 C823 1.511 . S
C821 C817 1.376 . S
C821 C820 1.392 . S
C821 H833 0.929 . S
C822 C818 1.531 . S
C822 H834 0.960 . S
C822 H835 0.962 . S
C822 H836 0.960 . S
C823 C820 1.511 . S
C823 H837 0.961 . S
C823 H838 0.961 . S
C823 H839 0.961 . S
C824 C825 1.370 . S
C824 C826 1.363 . S
C824 H840 0.931 . S
C825 C824 1.370 . S
C825 C829 1.408 . S
C826 C824 1.363 . S
C826 C827 1.370 . S
C826 C830 1.524 . S
C827 C819 1.503 . S
C827 C826 1.370 . S
C827 C828 1.403 . S
C828 C827 1.403 . S
C828 C829 1.404 . S
C828 C831 1.539 . S
C829 C825 1.408 . S
C829 C828 1.404 . S
C829 H841 0.930 . S
C830 C826 1.524 . S
C830 H842 0.956 . S
C830 H843 0.961 . S
C830 H844 0.961 . S
C831 C828 1.539 . S
C831 H845 0.958 . S
C831 H846 0.961 . S
C831 H847 0.960 . S
H832 C816 0.931 . S
H833 C821 0.929 . S
H834 C822 0.960 . S
H835 C822 0.962 . S
H836 C822 0.960 . S
H837 C823 0.961 . S
H838 C823 0.961 . S
H839 C823 0.961 . S
H840 C824 0.931 . S
H841 C829 0.930 . S
H842 C830 0.956 . S
H843 C830 0.961 . S
H844 C830 0.961 . S
H845 C831 0.958 . S
H846 C831 0.961 . S
H847 C831 0.960 . S
C848 C849 1.391 . S
C848 C850 1.394 . S
C848 H864 0.931 . S
C849 C848 1.391 . S
C849 C853 1.376 . S
C850 C848 1.394 . S
C850 C851 1.369 . S
C850 C854 1.531 . S
C851 C850 1.369 . S
C851 C852 1.410 . S
C851 C859 1.503 . S
C852 C851 1.410 . S
C852 C853 1.392 . S
C852 C855 1.511 . S
C853 C849 1.376 . S
C853 C852 1.392 . S
C853 H865 0.929 . S
C854 C850 1.531 . S
C854 H866 0.960 . S
C854 H867 0.962 . S
C854 H868 0.960 . S
C855 C852 1.511 . S
C855 H869 0.961 . S
C855 H870 0.961 . S
C855 H871 0.961 . S
C856 C857 1.370 . S
C856 C858 1.363 . S
C856 H872 0.931 . S
C857 C856 1.370 . S
C857 C861 1.408 . S
C858 C856 1.363 . S
C858 C859 1.370 . S
C858 C862 1.524 . S
C859 C851 1.503 . S
C859 C858 1.370 . S
C859 C860 1.403 . S
C860 C859 1.403 . S
C860 C861 1.404 . S
C860 C863 1.539 . S
C861 C857 1.408 . S
C861 C860 1.404 . S
C861 H873 0.930 . S
C862 C858 1.524 . S
C862 H874 0.956 . S
C862 H875 0.961 . S
C862 H876 0.961 . S
C863 C860 1.539 . S
C863 H877 0.958 . S
C863 H878 0.961 . S
C863 H879 0.960 . S
H864 C848 0.931 . S
H865 C853 0.929 . S
H866 C854 0.960 . S
H867 C854 0.962 . S
H868 C854 0.960 . S
H869 C855 0.961 . S
H870 C855 0.961 . S
H871 C855 0.961 . S
H872 C856 0.931 . S
H873 C861 0.930 . S
H874 C862 0.956 . S
H875 C862 0.961 . S
H876 C862 0.961 . S
H877 C863 0.958 . S
H878 C863 0.961 . S
H879 C863 0.960 . S
C880 C881 1.391 . S
C880 C882 1.394 . S
C880 H896 0.931 . S
C881 C880 1.391 . S
C881 C885 1.376 . S
C882 C880 1.394 . S
C882 C883 1.369 . S
C882 C886 1.531 . S
C883 C882 1.369 . S
C883 C884 1.410 . S
C883 C891 1.503 . S
C884 C883 1.410 . S
C884 C885 1.392 . S
C884 C887 1.511 . S
C885 C881 1.376 . S
C885 C884 1.392 . S
C885 H897 0.929 . S
C886 C882 1.531 . S
C886 H898 0.960 . S
C886 H899 0.962 . S
C886 H900 0.960 . S
C887 C884 1.511 . S
C887 H901 0.961 . S
C887 H902 0.961 . S
C887 H903 0.961 . S
C888 C889 1.370 . S
C888 C890 1.363 . S
C888 H904 0.931 . S
C889 C888 1.370 . S
C889 C893 1.408 . S
C890 C888 1.363 . S
C890 C891 1.370 . S
C890 C894 1.524 . S
C891 C883 1.503 . S
C891 C890 1.370 . S
C891 C892 1.403 . S
C892 C891 1.403 . S
C892 C893 1.404 . S
C892 C895 1.539 . S
C893 C889 1.408 . S
C893 C892 1.404 . S
C893 H905 0.930 . S
C894 C890 1.524 . S
C894 H906 0.956 . S
C894 H907 0.961 . S
C894 H908 0.961 . S
C895 C892 1.539 . S
C895 H909 0.958 . S
C895 H910 0.961 . S
C895 H911 0.960 . S
H896 C880 0.931 . S
H897 C885 0.929 . S
H898 C886 0.960 . S
H899 C886 0.962 . S
H900 C886 0.960 . S
H901 C887 0.961 . S
H902 C887 0.961 . S
H903 C887 0.961 . S
H904 C888 0.931 . S
H905 C893 0.930 . S
H906 C894 0.956 . S
H907 C894 0.961 . S
H908 C894 0.961 . S
H909 C895 0.958 . S
H910 C895 0.961 . S
H911 C895 0.960 . S
C912 C913 1.391 . S
C912 C914 1.394 . S
C912 H928 0.931 . S
C913 C912 1.391 . S
C913 C917 1.376 . S
C914 C912 1.394 . S
C914 C915 1.369 . S
C914 C918 1.531 . S
C915 C914 1.369 . S
C915 C916 1.410 . S
C915 C923 1.503 . S
C916 C915 1.410 . S
C916 C917 1.392 . S
C916 C919 1.511 . S
C917 C913 1.376 . S
C917 C916 1.392 . S
C917 H929 0.929 . S
C918 C914 1.531 . S
C918 H930 0.960 . S
C918 H931 0.962 . S
C918 H932 0.960 . S
C919 C916 1.511 . S
C919 H933 0.961 . S
C919 H934 0.961 . S
C919 H935 0.961 . S
C920 C921 1.370 . S
C920 C922 1.363 . S
C920 H936 0.931 . S
C921 C920 1.370 . S
C921 C925 1.408 . S
C922 C920 1.363 . S
C922 C923 1.370 . S
C922 C926 1.524 . S
C923 C915 1.503 . S
C923 C922 1.370 . S
C923 C924 1.403 . S
C924 C923 1.403 . S
C924 C925 1.404 . S
C924 C927 1.539 . S
C925 C921 1.408 . S
C925 C924 1.404 . S
C925 H937 0.930 . S
C926 C922 1.524 . S
C926 H938 0.956 . S
C926 H939 0.961 . S
C926 H940 0.961 . S
C927 C924 1.539 . S
C927 H941 0.958 . S
C927 H942 0.961 . S
C927 H943 0.960 . S
H928 C912 0.931 . S
H929 C917 0.929 . S
H930 C918 0.960 . S
H931 C918 0.962 . S
H932 C918 0.960 . S
H933 C919 0.961 . S
H934 C919 0.961 . S
H935 C919 0.961 . S
H936 C920 0.931 . S
H937 C925 0.930 . S
H938 C926 0.956 . S
H939 C926 0.961 . S
H940 C926 0.961 . S
H941 C927 0.958 . S
H942 C927 0.961 . S
H943 C927 0.960 . S
C944 C945 1.391 . S
C944 C946 1.394 . S
C944 H960 0.931 . S
C945 C944 1.391 . S
C945 C949 1.376 . S
C946 C944 1.394 . S
C946 C947 1.369 . S
C946 C950 1.531 . S
C947 C946 1.369 . S
C947 C948 1.410 . S
C947 C955 1.503 . S
C948 C947 1.410 . S
C948 C949 1.392 . S
C948 C951 1.511 . S
C949 C945 1.376 . S
C949 C948 1.392 . S
C949 H961 0.929 . S
C950 C946 1.531 . S
C950 H962 0.960 . S
C950 H963 0.962 . S
C950 H964 0.960 . S
C951 C948 1.511 . S
C951 H965 0.961 . S
C951 H966 0.961 . S
C951 H967 0.961 . S
C952 C953 1.370 . S
C952 C954 1.363 . S
C952 H968 0.931 . S
C953 C952 1.370 . S
C953 C957 1.408 . S
C954 C952 1.363 . S
C954 C955 1.370 . S
C954 C958 1.524 . S
C955 C947 1.503 . S
C955 C954 1.370 . S
C955 C956 1.403 . S
C956 C955 1.403 . S
C956 C957 1.404 . S
C956 C959 1.539 . S
C957 C953 1.408 . S
C957 C956 1.404 . S
C957 H969 0.930 . S
C958 C954 1.524 . S
C958 H970 0.956 . S
C958 H971 0.961 . S
C958 H972 0.961 . S
C959 C956 1.539 . S
C959 H973 0.958 . S
C959 H974 0.961 . S
C959 H975 0.960 . S
H960 C944 0.931 . S
H961 C949 0.929 . S
H962 C950 0.960 . S
H963 C950 0.962 . S
H964 C950 0.960 . S
H965 C951 0.961 . S
H966 C951 0.961 . S
H967 C951 0.961 . S
H968 C952 0.931 . S
H969 C957 0.930 . S
H970 C958 0.956 . S
H971 C958 0.961 . S
H972 C958 0.961 . S
H973 C959 0.958 . S
H974 C959 0.961 . S
H975 C959 0.960 . S
C976 C977 1.391 . S
C976 C978 1.394 . S
C976 H992 0.931 . S
C977 C976 1.391 . S
C977 C981 1.376 . S
C978 C976 1.394 . S
C978 C979 1.369 . S
C978 C982 1.531 . S
C979 C978 1.369 . S
C979 C980 1.410 . S
C979 C987 1.503 . S
C980 C979 1.410 . S
C980 C981 1.392 . S
C980 C983 1.511 . S
C981 C977 1.376 . S
C981 C980 1.392 . S
C981 H993 0.929 . S
C982 C978 1.531 . S
C982 H994 0.960 . S
C982 H995 0.962 . S
C982 H996 0.960 . S
C983 C980 1.511 . S
C983 H997 0.961 . S
C983 H998 0.961 . S
C983 H999 0.961 . S
C984 C985 1.370 . S
C984 C986 1.363 . S
C984 H1000 0.931 . S
C985 C984 1.370 . S
C985 C989 1.408 . S
C986 C984 1.363 . S
C986 C987 1.370 . S
C986 C990 1.524 . S
C987 C979 1.503 . S
C987 C986 1.370 . S
C987 C988 1.403 . S
C988 C987 1.403 . S
C988 C989 1.404 . S
C988 C991 1.539 . S
C989 C985 1.408 . S
C989 C988 1.404 . S
C989 H1001 0.930 . S
C990 C986 1.524 . S
C990 H1002 0.956 . S
C990 H1003 0.961 . S
C990 H1004 0.961 . S
C991 C988 1.539 . S
C991 H1005 0.958 . S
C991 H1006 0.961 . S
C991 H1007 0.960 . S
H992 C976 0.931 . S
H993 C981 0.929 . S
H994 C982 0.960 . S
H995 C982 0.962 . S
H996 C982 0.960 . S
H997 C983 0.961 . S
H998 C983 0.961 . S
H999 C983 0.961 . S
H1000 C984 0.931 . S
H1001 C989 0.930 . S
H1002 C990 0.956 . S
H1003 C990 0.961 . S
H1004 C990 0.961 . S
H1005 C991 0.958 . S
H1006 C991 0.961 . S
H1007 C991 0.960 . S
C1008 C1009 1.391 . S
C1008 C1010 1.394 . S
C1008 H1024 0.931 . S
C1009 C1008 1.391 . S
C1009 C1013 1.376 . S
C1010 C1008 1.394 . S
C1010 C1011 1.369 . S
C1010 C1014 1.531 . S
C1011 C1010 1.369 . S
C1011 C1012 1.410 . S
C1011 C1019 1.503 . S
C1012 C1011 1.410 . S
C1012 C1013 1.392 . S
C1012 C1015 1.511 . S
C1013 C1009 1.376 . S
C1013 C1012 1.392 . S
C1013 H1025 0.929 . S
C1014 C1010 1.531 . S
C1014 H1026 0.960 . S
C1014 H1027 0.962 . S
C1014 H1028 0.960 . S
C1015 C1012 1.511 . S
C1015 H1029 0.961 . S
C1015 H1030 0.961 . S
C1015 H1031 0.961 . S
C1016 C1017 1.370 . S
C1016 C1018 1.363 . S
C1016 H1032 0.931 . S
C1017 C1016 1.370 . S
C1017 C1021 1.408 . S
C1018 C1016 1.363 . S
C1018 C1019 1.370 . S
C1018 C1022 1.524 . S
C1019 C1011 1.503 . S
C1019 C1018 1.370 . S
C1019 C1020 1.403 . S
C1020 C1019 1.403 . S
C1020 C1021 1.404 . S
C1020 C1023 1.539 . S
C1021 C1017 1.408 . S
C1021 C1020 1.404 . S
C1021 H1033 0.930 . S
C1022 C1018 1.524 . S
C1022 H1034 0.956 . S
C1022 H1035 0.961 . S
C1022 H1036 0.961 . S
C1023 C1020 1.539 . S
C1023 H1037 0.958 . S
C1023 H1038 0.961 . S
C1023 H1039 0.960 . S
H1024 C1008 0.931 . S
H1025 C1013 0.929 . S
H1026 C1014 0.960 . S
H1027 C1014 0.962 . S
H1028 C1014 0.960 . S
H1029 C1015 0.961 . S
H1030 C1015 0.961 . S
H1031 C1015 0.961 . S
H1032 C1016 0.931 . S
H1033 C1021 0.930 . S
H1034 C1022 0.956 . S
H1035 C1022 0.961 . S
H1036 C1022 0.961 . S
H1037 C1023 0.958 . S
H1038 C1023 0.961 . S
H1039 C1023 0.960 . S
C1040 C1041 1.391 . S
C1040 C1042 1.394 . S
C1040 H1056 0.931 . S
C1041 C1040 1.391 . S
C1041 C1045 1.376 . S
C1042 C1040 1.394 . S
C1042 C1043 1.369 . S
C1042 C1046 1.531 . S
C1043 C1042 1.369 . S
C1043 C1044 1.410 . S
C1043 C1051 1.503 . S
C1044 C1043 1.410 . S
C1044 C1045 1.392 . S
C1044 C1047 1.511 . S
C1045 C1041 1.376 . S
C1045 C1044 1.392 . S
C1045 H1057 0.929 . S
C1046 C1042 1.531 . S
C1046 H1058 0.960 . S
C1046 H1059 0.962 . S
C1046 H1060 0.960 . S
C1047 C1044 1.511 . S
C1047 H1061 0.961 . S
C1047 H1062 0.961 . S
C1047 H1063 0.961 . S
C1048 C1049 1.370 . S
C1048 C1050 1.363 . S
C1048 H1064 0.931 . S
C1049 C1048 1.370 . S
C1049 C1053 1.408 . S
C1050 C1048 1.363 . S
C1050 C1051 1.370 . S
C1050 C1054 1.524 . S
C1051 C1043 1.503 . S
C1051 C1050 1.370 . S
C1051 C1052 1.403 . S
C1052 C1051 1.403 . S
C1052 C1053 1.404 . S
C1052 C1055 1.539 . S
C1053 C1049 1.408 . S
C1053 C1052 1.404 . S
C1053 H1065 0.930 . S
C1054 C1050 1.524 . S
C1054 H1066 0.956 . S
C1054 H1067 0.961 . S
C1054 H1068 0.961 . S
C1055 C1052 1.539 . S
C1055 H1069 0.958 . S
C1055 H1070 0.961 . S
C1055 H1071 0.960 . S
H1056 C1040 0.931 . S
H1057 C1045 0.929 . S
H1058 C1046 0.960 . S
H1059 C1046 0.962 . S
H1060 C1046 0.960 . S
H1061 C1047 0.961 . S
H1062 C1047 0.961 . S
H1063 C1047 0.961 . S
H1064 C1048 0.931 . S
H1065 C1053 0.930 . S
H1066 C1054 0.956 . S
H1067 C1054 0.961 . S
H1068 C1054 0.961 . S
H1069 C1055 0.958 . S
H1070 C1055 0.961 . S
H1071 C1055 0.960 . S
C1072 C1073 1.391 . S
C1072 C1074 1.394 . S
C1072 H1088 0.931 . S
C1073 C1072 1.391 . S
C1073 C1077 1.376 . S
C1074 C1072 1.394 . S
C1074 C1075 1.369 . S
C1074 C1078 1.531 . S
C1075 C1074 1.369 . S
C1075 C1076 1.410 . S
C1075 C1083 1.503 . S
C1076 C1075 1.410 . S
C1076 C1077 1.392 . S
C1076 C1079 1.511 . S
C1077 C1073 1.376 . S
C1077 C1076 1.392 . S
C1077 H1089 0.929 . S
C1078 C1074 1.531 . S
C1078 H1090 0.960 . S
C1078 H1091 0.962 . S
C1078 H1092 0.960 . S
C1079 C1076 1.511 . S
C1079 H1093 0.961 . S
C1079 H1094 0.961 . S
C1079 H1095 0.961 . S
C1080 C1081 1.370 . S
C1080 C1082 1.363 . S
C1080 H1096 0.931 . S
C1081 C1080 1.370 . S
C1081 C1085 1.408 . S
C1082 C1080 1.363 . S
C1082 C1083 1.370 . S
C1082 C1086 1.524 . S
C1083 C1075 1.503 . S
C1083 C1082 1.370 . S
C1083 C1084 1.403 . S
C1084 C1083 1.403 . S
C1084 C1085 1.404 . S
C1084 C1087 1.539 . S
C1085 C1081 1.408 . S
C1085 C1084 1.404 . S
C1085 H1097 0.930 . S
C1086 C1082 1.524 . S
C1086 H1098 0.956 . S
C1086 H1099 0.961 . S
C1086 H1100 0.961 . S
C1087 C1084 1.539 . S
C1087 H1101 0.958 . S
C1087 H1102 0.961 . S
C1087 H1103 0.960 . S
H1088 C1072 0.931 . S
H1089 C1077 0.929 . S
H1090 C1078 0.960 . S
H1091 C1078 0.962 . S
H1092 C1078 0.960 . S
H1093 C1079 0.961 . S
H1094 C1079 0.961 . S
H1095 C1079 0.961 . S
H1096 C1080 0.931 . S
H1097 C1085 0.930 . S
H1098 C1086 0.956 . S
H1099 C1086 0.961 . S
H1100 C1086 0.961 . S
H1101 C1087 0.958 . S
H1102 C1087 0.961 . S
H1103 C1087 0.960 . S
C1104 C1105 1.391 . S
C1104 C1106 1.394 . S
C1104 H1120 0.931 . S
C1105 C1104 1.391 . S
C1105 C1109 1.376 . S
C1106 C1104 1.394 . S
C1106 C1107 1.369 . S
C1106 C1110 1.531 . S
C1107 C1106 1.369 . S
C1107 C1108 1.410 . S
C1107 C1115 1.503 . S
C1108 C1107 1.410 . S
C1108 C1109 1.392 . S
C1108 C1111 1.511 . S
C1109 C1105 1.376 . S
C1109 C1108 1.392 . S
C1109 H1121 0.929 . S
C1110 C1106 1.531 . S
C1110 H1122 0.960 . S
C1110 H1123 0.962 . S
C1110 H1124 0.960 . S
C1111 C1108 1.511 . S
C1111 H1125 0.961 . S
C1111 H1126 0.961 . S
C1111 H1127 0.961 . S
C1112 C1113 1.370 . S
C1112 C1114 1.363 . S
C1112 H1128 0.931 . S
C1113 C1112 1.370 . S
C1113 C1117 1.408 . S
C1114 C1112 1.363 . S
C1114 C1115 1.370 . S
C1114 C1118 1.524 . S
C1115 C1107 1.503 . S
C1115 C1114 1.370 . S
C1115 C1116 1.403 . S
C1116 C1115 1.403 . S
C1116 C1117 1.404 . S
C1116 C1119 1.539 . S
C1117 C1113 1.408 . S
C1117 C1116 1.404 . S
C1117 H1129 0.930 . S
C1118 C1114 1.524 . S
C1118 H1130 0.956 . S
C1118 H1131 0.961 . S
C1118 H1132 0.961 . S
C1119 C1116 1.539 . S
C1119 H1133 0.958 . S
C1119 H1134 0.961 . S
C1119 H1135 0.960 . S
H1120 C1104 0.931 . S
H1121 C1109 0.929 . S
H1122 C1110 0.960 . S
H1123 C1110 0.962 . S
H1124 C1110 0.960 . S
H1125 C1111 0.961 . S
H1126 C1111 0.961 . S
H1127 C1111 0.961 . S
H1128 C1112 0.931 . S
H1129 C1117 0.930 . S
H1130 C1118 0.956 . S
H1131 C1118 0.961 . S
H1132 C1118 0.961 . S
H1133 C1119 0.958 . S
H1134 C1119 0.961 . S
H1135 C1119 0.960 . S
C1136 C1137 1.391 . S
C1136 C1138 1.394 . S
C1136 H1152 0.931 . S
C1137 C1136 1.391 . S
C1137 C1141 1.376 . S
C1138 C1136 1.394 . S
C1138 C1139 1.369 . S
C1138 C1142 1.531 1_554 S
C1139 C1138 1.369 . S
C1139 C1140 1.410 . S
C1139 C1147 1.503 1_554 S
C1140 C1139 1.410 . S
C1140 C1141 1.392 . S
C1140 C1143 1.511 . S
C1141 C1137 1.376 . S
C1141 C1140 1.392 . S
C1141 H1153 0.929 . S
C1142 C1138 1.531 1_556 S
C1142 H1154 0.960 . S
C1142 H1155 0.962 . S
C1142 H1156 0.960 . S
C1143 C1140 1.511 . S
C1143 H1157 0.961 . S
C1143 H1158 0.961 . S
C1143 H1159 0.961 . S
C1144 C1145 1.370 . S
C1144 C1146 1.363 . S
C1144 H1160 0.931 . S
C1145 C1144 1.370 . S
C1145 C1149 1.408 . S
C1146 C1144 1.363 . S
C1146 C1147 1.370 . S
C1146 C1150 1.524 . S
C1147 C1139 1.503 1_556 S
C1147 C1146 1.370 . S
C1147 C1148 1.403 . S
C1148 C1147 1.403 . S
C1148 C1149 1.404 . S
C1148 C1151 1.539 . S
C1149 C1145 1.408 . S
C1149 C1148 1.404 . S
C1149 H1161 0.930 . S
C1150 C1146 1.524 . S
C1150 H1162 0.956 . S
C1150 H1163 0.961 1_556 S
C1150 H1164 0.961 . S
C1151 C1148 1.539 . S
C1151 H1165 0.958 . S
C1151 H1166 0.961 . S
C1151 H1167 0.960 . S
H1152 C1136 0.931 . S
H1153 C1141 0.929 . S
H1154 C1142 0.960 . S
H1155 C1142 0.962 . S
H1156 C1142 0.960 . S
H1157 C1143 0.961 . S
H1158 C1143 0.961 . S
H1159 C1143 0.961 . S
H1160 C1144 0.931 . S
H1161 C1149 0.930 . S
H1162 C1150 0.956 . S
H1163 C1150 0.961 1_554 S
H1164 C1150 0.961 . S
H1165 C1151 0.958 . S
H1166 C1151 0.961 . S
H1167 C1151 0.960 . S
C1168 C1169 1.391 . S
C1168 C1170 1.394 . S
C1168 H1184 0.931 . S
C1169 C1168 1.391 . S
C1169 C1173 1.376 . S
C1170 C1168 1.394 . S
C1170 C1171 1.369 . S
C1170 C1174 1.531 . S
C1171 C1170 1.369 . S
C1171 C1172 1.410 . S
C1171 C1179 1.503 . S
C1172 C1171 1.410 . S
C1172 C1173 1.392 . S
C1172 C1175 1.511 . S
C1173 C1169 1.376 . S
C1173 C1172 1.392 . S
C1173 H1185 0.929 . S
C1174 C1170 1.531 . S
C1174 H1186 0.960 . S
C1174 H1187 0.962 . S
C1174 H1188 0.960 . S
C1175 C1172 1.511 . S
C1175 H1189 0.961 . S
C1175 H1190 0.961 . S
C1175 H1191 0.961 . S
C1176 C1177 1.370 . S
C1176 C1178 1.363 . S
C1176 H1192 0.931 . S
C1177 C1176 1.370 . S
C1177 C1181 1.408 . S
C1178 C1176 1.363 . S
C1178 C1179 1.370 . S
C1178 C1182 1.524 . S
C1179 C1171 1.503 . S
C1179 C1178 1.370 . S
C1179 C1180 1.403 . S
C1180 C1179 1.403 . S
C1180 C1181 1.404 . S
C1180 C1183 1.539 . S
C1181 C1177 1.408 . S
C1181 C1180 1.404 . S
C1181 H1193 0.930 . S
C1182 C1178 1.524 . S
C1182 H1194 0.956 . S
C1182 H1195 0.961 . S
C1182 H1196 0.961 . S
C1183 C1180 1.539 . S
C1183 H1197 0.958 . S
C1183 H1198 0.961 . S
C1183 H1199 0.960 . S
H1184 C1168 0.931 . S
H1185 C1173 0.929 . S
H1186 C1174 0.960 . S
H1187 C1174 0.962 . S
H1188 C1174 0.960 . S
H1189 C1175 0.961 . S
H1190 C1175 0.961 . S
H1191 C1175 0.961 . S
H1192 C1176 0.931 . S
H1193 C1181 0.930 . S
H1194 C1182 0.956 . S
H1195 C1182 0.961 . S
H1196 C1182 0.961 . S
H1197 C1183 0.958 . S
H1198 C1183 0.961 . S
H1199 C1183 0.960 . S
C1200 C1201 1.391 . S
C1200 C1202 1.394 . S
C1200 H1216 0.931 . S
C1201 C1200 1.391 . S
C1201 C1205 1.376 . S
C1202 C1200 1.394 . S
C1202 C1203 1.369 . S
C1202 C1206 1.531 . S
C1203 C1202 1.369 . S
C1203 C1204 1.410 . S
C1203 C1211 1.503 1_554 S
C1204 C1203 1.410 . S
C1204 C1205 1.392 . S
C1204 C1207 1.511 . S
C1205 C1201 1.376 . S
C1205 C1204 1.392 . S
C1205 H1217 0.929 . S
C1206 C1202 1.531 . S
C1206 H1218 0.960 1_554 S
C1206 H1219 0.962 . S
C1206 H1220 0.960 . S
C1207 C1204 1.511 . S
C1207 H1221 0.961 . S
C1207 H1222 0.961 1_554 S
C1207 H1223 0.961 1_554 S
C1208 C1209 1.370 . S
C1208 C1210 1.363 . S
C1208 H1224 0.931 . S
C1209 C1208 1.370 . S
C1209 C1213 1.408 . S
C1210 C1208 1.363 . S
C1210 C1211 1.370 . S
C1210 C1214 1.524 1_556 S
C1211 C1203 1.503 1_556 S
C1211 C1210 1.370 . S
C1211 C1212 1.403 . S
C1212 C1211 1.403 . S
C1212 C1213 1.404 . S
C1212 C1215 1.539 . S
C1213 C1209 1.408 . S
C1213 C1212 1.404 . S
C1213 H1225 0.930 . S
C1214 C1210 1.524 1_554 S
C1214 H1226 0.956 . S
C1214 H1227 0.961 . S
C1214 H1228 0.961 . S
C1215 C1212 1.539 . S
C1215 H1229 0.958 . S
C1215 H1230 0.961 . S
C1215 H1231 0.960 . S
H1216 C1200 0.931 . S
H1217 C1205 0.929 . S
H1218 C1206 0.960 1_556 S
H1219 C1206 0.962 . S
H1220 C1206 0.960 . S
H1221 C1207 0.961 . S
H1222 C1207 0.961 1_556 S
H1223 C1207 0.961 1_556 S
H1224 C1208 0.931 . S
H1225 C1213 0.930 . S
H1226 C1214 0.956 . S
H1227 C1214 0.961 . S
H1228 C1214 0.961 . S
H1229 C1215 0.958 . S
H1230 C1215 0.961 . S
H1231 C1215 0.960 . S
C1232 C1233 1.391 . S
C1232 C1234 1.394 . S
C1232 H1248 0.931 . S
C1233 C1232 1.391 . S
C1233 C1237 1.376 . S
C1234 C1232 1.394 . S
C1234 C1235 1.369 . S
C1234 C1238 1.531 . S
C1235 C1234 1.369 . S
C1235 C1236 1.410 . S
C1235 C1243 1.503 . S
C1236 C1235 1.410 . S
C1236 C1237 1.392 . S
C1236 C1239 1.511 . S
C1237 C1233 1.376 . S
C1237 C1236 1.392 . S
C1237 H1249 0.929 . S
C1238 C1234 1.531 . S
C1238 H1250 0.960 . S
C1238 H1251 0.962 . S
C1238 H1252 0.960 . S
C1239 C1236 1.511 . S
C1239 H1253 0.961 . S
C1239 H1254 0.961 . S
C1239 H1255 0.961 . S
C1240 C1241 1.370 . S
C1240 C1242 1.363 . S
C1240 H1256 0.931 . S
C1241 C1240 1.370 . S
C1241 C1245 1.408 . S
C1242 C1240 1.363 . S
C1242 C1243 1.370 . S
C1242 C1246 1.524 . S
C1243 C1235 1.503 . S
C1243 C1242 1.370 . S
C1243 C1244 1.403 . S
C1244 C1243 1.403 . S
C1244 C1245 1.404 . S
C1244 C1247 1.539 . S
C1245 C1241 1.408 . S
C1245 C1244 1.404 . S
C1245 H1257 0.930 . S
C1246 C1242 1.524 . S
C1246 H1258 0.956 . S
C1246 H1259 0.961 . S
C1246 H1260 0.961 . S
C1247 C1244 1.539 . S
C1247 H1261 0.958 . S
C1247 H1262 0.961 . S
C1247 H1263 0.960 . S
H1248 C1232 0.931 . S
H1249 C1237 0.929 . S
H1250 C1238 0.960 . S
H1251 C1238 0.962 . S
H1252 C1238 0.960 . S
H1253 C1239 0.961 . S
H1254 C1239 0.961 . S
H1255 C1239 0.961 . S
H1256 C1240 0.931 . S
H1257 C1245 0.930 . S
H1258 C1246 0.956 . S
H1259 C1246 0.961 . S
H1260 C1246 0.961 . S
H1261 C1247 0.958 . S
H1262 C1247 0.961 . S
H1263 C1247 0.960 . S
C1264 C1265 1.391 . S
C1264 C1266 1.394 . S
C1264 H1280 0.931 . S
C1265 C1264 1.391 . S
C1265 C1269 1.376 . S
C1266 C1264 1.394 . S
C1266 C1267 1.369 . S
C1266 C1270 1.531 . S
C1267 C1266 1.369 . S
C1267 C1268 1.410 . S
C1267 C1275 1.503 1_655 S
C1268 C1267 1.410 . S
C1268 C1269 1.392 . S
C1268 C1271 1.511 1_655 S
C1269 C1265 1.376 . S
C1269 C1268 1.392 . S
C1269 H1281 0.929 . S
C1270 C1266 1.531 . S
C1270 H1282 0.960 1_655 S
C1270 H1283 0.962 . S
C1270 H1284 0.960 . S
C1271 C1268 1.511 1_455 S
C1271 H1285 0.961 1_455 S
C1271 H1286 0.961 . S
C1271 H1287 0.961 . S
C1272 C1273 1.370 . S
C1272 C1274 1.363 . S
C1272 H1288 0.931 . S
C1273 C1272 1.370 . S
C1273 C1277 1.408 . S
C1274 C1272 1.363 . S
C1274 C1275 1.370 . S
C1274 C1278 1.524 1_455 S
C1275 C1267 1.503 1_455 S
C1275 C1274 1.370 . S
C1275 C1276 1.403 . S
C1276 C1275 1.403 . S
C1276 C1277 1.404 . S
C1276 C1279 1.539 . S
C1277 C1273 1.408 . S
C1277 C1276 1.404 . S
C1277 H1289 0.930 . S
C1278 C1274 1.524 1_655 S
C1278 H1290 0.956 . S
C1278 H1291 0.961 . S
C1278 H1292 0.961 . S
C1279 C1276 1.539 . S
C1279 H1293 0.958 . S
C1279 H1294 0.961 . S
C1279 H1295 0.960 . S
H1280 C1264 0.931 . S
H1281 C1269 0.929 . S
H1282 C1270 0.960 1_455 S
H1283 C1270 0.962 . S
H1284 C1270 0.960 . S
H1285 C1271 0.961 1_655 S
H1286 C1271 0.961 . S
H1287 C1271 0.961 . S
H1288 C1272 0.931 . S
H1289 C1277 0.930 . S
H1290 C1278 0.956 . S
H1291 C1278 0.961 . S
H1292 C1278 0.961 . S
H1293 C1279 0.958 . S
H1294 C1279 0.961 . S
H1295 C1279 0.960 . S
C1296 C1297 1.391 . S
C1296 C1298 1.394 . S
C1296 H1312 0.931 . S
C1297 C1296 1.391 . S
C1297 C1301 1.376 . S
C1298 C1296 1.394 . S
C1298 C1299 1.369 . S
C1298 C1302 1.531 1_455 S
C1299 C1298 1.369 . S
C1299 C1300 1.410 . S
C1299 C1307 1.503 1_455 S
C1300 C1299 1.410 . S
C1300 C1301 1.392 . S
C1300 C1303 1.511 . S
C1301 C1297 1.376 . S
C1301 C1300 1.392 . S
C1301 H1313 0.929 . S
C1302 C1298 1.531 1_655 S
C1302 H1314 0.960 . S
C1302 H1315 0.962 . S
C1302 H1316 0.960 . S
C1303 C1300 1.511 . S
C1303 H1317 0.961 . S
C1303 H1318 0.961 . S
C1303 H1319 0.961 . S
C1304 C1305 1.370 . S
C1304 C1306 1.363 . S
C1304 H1320 0.931 . S
C1305 C1304 1.370 . S
C1305 C1309 1.408 . S
C1306 C1304 1.363 . S
C1306 C1307 1.370 . S
C1306 C1310 1.524 . S
C1307 C1299 1.503 1_655 S
C1307 C1306 1.370 . S
C1307 C1308 1.403 . S
C1308 C1307 1.403 . S
C1308 C1309 1.404 . S
C1308 C1311 1.539 . S
C1309 C1305 1.408 . S
C1309 C1308 1.404 . S
C1309 H1321 0.930 . S
C1310 C1306 1.524 . S
C1310 H1322 0.956 . S
C1310 H1323 0.961 1_655 S
C1310 H1324 0.961 . S
C1311 C1308 1.539 . S
C1311 H1325 0.958 . S
C1311 H1326 0.961 . S
C1311 H1327 0.960 1_655 S
H1312 C1296 0.931 . S
H1313 C1301 0.929 . S
H1314 C1302 0.960 . S
H1315 C1302 0.962 . S
H1316 C1302 0.960 . S
H1317 C1303 0.961 . S
H1318 C1303 0.961 . S
H1319 C1303 0.961 . S
H1320 C1304 0.931 . S
H1321 C1309 0.930 . S
H1322 C1310 0.956 . S
H1323 C1310 0.961 1_455 S
H1324 C1310 0.961 . S
H1325 C1311 0.958 . S
H1326 C1311 0.961 . S
H1327 C1311 0.960 1_455 S
C1328 C1329 1.391 . S
C1328 C1330 1.394 . S
C1328 H1344 0.931 . S
C1329 C1328 1.391 . S
C1329 C1333 1.376 . S
C1330 C1328 1.394 . S
C1330 C1331 1.369 . S
C1330 C1334 1.531 . S
C1331 C1330 1.369 . S
C1331 C1332 1.410 . S
C1331 C1339 1.503 . S
C1332 C1331 1.410 . S
C1332 C1333 1.392 . S
C1332 C1335 1.511 . S
C1333 C1329 1.376 . S
C1333 C1332 1.392 . S
C1333 H1345 0.929 . S
C1334 C1330 1.531 . S
C1334 H1346 0.960 . S
C1334 H1347 0.962 . S
C1334 H1348 0.960 . S
C1335 C1332 1.511 . S
C1335 H1349 0.961 . S
C1335 H1350 0.961 . S
C1335 H1351 0.961 . S
C1336 C1337 1.370 . S
C1336 C1338 1.363 . S
C1336 H1352 0.931 . S
C1337 C1336 1.370 . S
C1337 C1341 1.408 . S
C1338 C1336 1.363 . S
C1338 C1339 1.370 . S
C1338 C1342 1.524 . S
C1339 C1331 1.503 . S
C1339 C1338 1.370 . S
C1339 C1340 1.403 . S
C1340 C1339 1.403 . S
C1340 C1341 1.404 . S
C1340 C1343 1.539 . S
C1341 C1337 1.408 . S
C1341 C1340 1.404 . S
C1341 H1353 0.930 . S
C1342 C1338 1.524 . S
C1342 H1354 0.956 . S
C1342 H1355 0.961 . S
C1342 H1356 0.961 . S
C1343 C1340 1.539 . S
C1343 H1357 0.958 . S
C1343 H1358 0.961 . S
C1343 H1359 0.960 . S
H1344 C1328 0.931 . S
H1345 C1333 0.929 . S
H1346 C1334 0.960 . S
H1347 C1334 0.962 . S
H1348 C1334 0.960 . S
H1349 C1335 0.961 . S
H1350 C1335 0.961 . S
H1351 C1335 0.961 . S
H1352 C1336 0.931 . S
H1353 C1341 0.930 . S
H1354 C1342 0.956 . S
H1355 C1342 0.961 . S
H1356 C1342 0.961 . S
H1357 C1343 0.958 . S
H1358 C1343 0.961 . S
H1359 C1343 0.960 . S
C1360 C1361 1.391 . S
C1360 C1362 1.394 . S
C1360 H1376 0.931 . S
C1361 C1360 1.391 . S
C1361 C1365 1.376 . S
C1362 C1360 1.394 . S
C1362 C1363 1.369 . S
C1362 C1366 1.531 . S
C1363 C1362 1.369 . S
C1363 C1364 1.410 . S
C1363 C1371 1.503 . S
C1364 C1363 1.410 . S
C1364 C1365 1.392 . S
C1364 C1367 1.511 . S
C1365 C1361 1.376 . S
C1365 C1364 1.392 . S
C1365 H1377 0.929 . S
C1366 C1362 1.531 . S
C1366 H1378 0.960 . S
C1366 H1379 0.962 . S
C1366 H1380 0.960 . S
C1367 C1364 1.511 . S
C1367 H1381 0.961 . S
C1367 H1382 0.961 . S
C1367 H1383 0.961 . S
C1368 C1369 1.370 . S
C1368 C1370 1.363 . S
C1368 H1384 0.931 . S
C1369 C1368 1.370 . S
C1369 C1373 1.408 . S
C1370 C1368 1.363 . S
C1370 C1371 1.370 . S
C1370 C1374 1.524 . S
C1371 C1363 1.503 . S
C1371 C1370 1.370 . S
C1371 C1372 1.403 . S
C1372 C1371 1.403 . S
C1372 C1373 1.404 . S
C1372 C1375 1.539 . S
C1373 C1369 1.408 . S
C1373 C1372 1.404 . S
C1373 H1385 0.930 . S
C1374 C1370 1.524 . S
C1374 H1386 0.956 . S
C1374 H1387 0.961 . S
C1374 H1388 0.961 . S
C1375 C1372 1.539 . S
C1375 H1389 0.958 . S
C1375 H1390 0.961 . S
C1375 H1391 0.960 . S
H1376 C1360 0.931 . S
H1377 C1365 0.929 . S
H1378 C1366 0.960 . S
H1379 C1366 0.962 . S
H1380 C1366 0.960 . S
H1381 C1367 0.961 . S
H1382 C1367 0.961 . S
H1383 C1367 0.961 . S
H1384 C1368 0.931 . S
H1385 C1373 0.930 . S
H1386 C1374 0.956 . S
H1387 C1374 0.961 . S
H1388 C1374 0.961 . S
H1389 C1375 0.958 . S
H1390 C1375 0.961 . S
H1391 C1375 0.960 . S
C1392 C1393 1.391 . S
C1392 C1394 1.394 . S
C1392 H1408 0.931 . S
C1393 C1392 1.391 . S
C1393 C1397 1.376 . S
C1394 C1392 1.394 . S
C1394 C1395 1.369 . S
C1394 C1398 1.531 . S
C1395 C1394 1.369 . S
C1395 C1396 1.410 . S
C1395 C1403 1.503 1_565 S
C1396 C1395 1.410 . S
C1396 C1397 1.392 . S
C1396 C1399 1.511 . S
C1397 C1393 1.376 . S
C1397 C1396 1.392 . S
C1397 H1409 0.929 . S
C1398 C1394 1.531 . S
C1398 H1410 0.960 . S
C1398 H1411 0.962 . S
C1398 H1412 0.960 . S
C1399 C1396 1.511 . S
C1399 H1413 0.961 . S
C1399 H1414 0.961 1_565 S
C1399 H1415 0.961 . S
C1400 C1401 1.370 . S
C1400 C1402 1.363 . S
C1400 H1416 0.931 . S
C1401 C1400 1.370 . S
C1401 C1405 1.408 . S
C1402 C1400 1.363 . S
C1402 C1403 1.370 . S
C1402 C1406 1.524 . S
C1403 C1395 1.503 1_545 S
C1403 C1402 1.370 . S
C1403 C1404 1.403 . S
C1404 C1403 1.403 . S
C1404 C1405 1.404 . S
C1404 C1407 1.539 1_545 S
C1405 C1401 1.408 . S
C1405 C1404 1.404 . S
C1405 H1417 0.930 . S
C1406 C1402 1.524 . S
C1406 H1418 0.956 . S
C1406 H1419 0.961 . S
C1406 H1420 0.961 . S
C1407 C1404 1.539 1_565 S
C1407 H1421 0.958 . S
C1407 H1422 0.961 1_565 S
C1407 H1423 0.960 . S
H1408 C1392 0.931 . S
H1409 C1397 0.929 . S
H1410 C1398 0.960 . S
H1411 C1398 0.962 . S
H1412 C1398 0.960 . S
H1413 C1399 0.961 . S
H1414 C1399 0.961 1_545 S
H1415 C1399 0.961 . S
H1416 C1400 0.931 . S
H1417 C1405 0.930 . S
H1418 C1406 0.956 . S
H1419 C1406 0.961 . S
H1420 C1406 0.961 . S
H1421 C1407 0.958 . S
H1422 C1407 0.961 1_545 S
H1423 C1407 0.960 . S
C1424 C1425 1.391 . S
C1424 C1426 1.394 . S
C1424 H1440 0.931 . S
C1425 C1424 1.391 . S
C1425 C1429 1.376 . S
C1426 C1424 1.394 . S
C1426 C1427 1.369 . S
C1426 C1430 1.531 . S
C1427 C1426 1.369 . S
C1427 C1428 1.410 . S
C1427 C1435 1.503 1_545 S
C1428 C1427 1.410 . S
C1428 C1429 1.392 . S
C1428 C1431 1.511 1_545 S
C1429 C1425 1.376 . S
C1429 C1428 1.392 . S
C1429 H1441 0.929 . S
C1430 C1426 1.531 . S
C1430 H1442 0.960 . S
C1430 H1443 0.962 . S
C1430 H1444 0.960 . S
C1431 C1428 1.511 1_565 S
C1431 H1445 0.961 . S
C1431 H1446 0.961 . S
C1431 H1447 0.961 . S
C1432 C1433 1.370 . S
C1432 C1434 1.363 . S
C1432 H1448 0.931 . S
C1433 C1432 1.370 . S
C1433 C1437 1.408 . S
C1434 C1432 1.363 . S
C1434 C1435 1.370 . S
C1434 C1438 1.524 . S
C1435 C1427 1.503 1_565 S
C1435 C1434 1.370 . S
C1435 C1436 1.403 . S
C1436 C1435 1.403 . S
C1436 C1437 1.404 . S
C1436 C1439 1.539 . S
C1437 C1433 1.408 . S
C1437 C1436 1.404 . S
C1437 H1449 0.930 . S
C1438 C1434 1.524 . S
C1438 H1450 0.956 1_565 S
C1438 H1451 0.961 1_565 S
C1438 H1452 0.961 . S
C1439 C1436 1.539 . S
C1439 H1453 0.958 . S
C1439 H1454 0.961 . S
C1439 H1455 0.960 . S
H1440 C1424 0.931 . S
H1441 C1429 0.929 . S
H1442 C1430 0.960 . S
H1443 C1430 0.962 . S
H1444 C1430 0.960 . S
H1445 C1431 0.961 . S
H1446 C1431 0.961 . S
H1447 C1431 0.961 . S
H1448 C1432 0.931 . S
H1449 C1437 0.930 . S
H1450 C1438 0.956 1_545 S
H1451 C1438 0.961 1_545 S
H1452 C1438 0.961 . S
H1453 C1439 0.958 . S
H1454 C1439 0.961 . S
H1455 C1439 0.960 . S
C1456 C1457 1.391 . S
C1456 C1458 1.394 . S
C1456 H1472 0.931 . S
C1457 C1456 1.391 . S
C1457 C1461 1.376 . S
C1458 C1456 1.394 . S
C1458 C1459 1.369 . S
C1458 C1462 1.531 . S
C1459 C1458 1.369 . S
C1459 C1460 1.410 . S
C1459 C1467 1.503 . S
C1460 C1459 1.410 . S
C1460 C1461 1.392 . S
C1460 C1463 1.511 . S
C1461 C1457 1.376 . S
C1461 C1460 1.392 . S
C1461 H1473 0.929 . S
C1462 C1458 1.531 . S
C1462 H1474 0.960 . S
C1462 H1475 0.962 . S
C1462 H1476 0.960 . S
C1463 C1460 1.511 . S
C1463 H1477 0.961 . S
C1463 H1478 0.961 . S
C1463 H1479 0.961 . S
C1464 C1465 1.370 . S
C1464 C1466 1.363 . S
C1464 H1480 0.931 . S
C1465 C1464 1.370 . S
C1465 C1469 1.408 . S
C1466 C1464 1.363 . S
C1466 C1467 1.370 . S
C1466 C1470 1.524 . S
C1467 C1459 1.503 . S
C1467 C1466 1.370 . S
C1467 C1468 1.403 . S
C1468 C1467 1.403 . S
C1468 C1469 1.404 . S
C1468 C1471 1.539 . S
C1469 C1465 1.408 . S
C1469 C1468 1.404 . S
C1469 H1481 0.930 . S
C1470 C1466 1.524 . S
C1470 H1482 0.956 . S
C1470 H1483 0.961 . S
C1470 H1484 0.961 . S
C1471 C1468 1.539 . S
C1471 H1485 0.958 . S
C1471 H1486 0.961 . S
C1471 H1487 0.960 . S
H1472 C1456 0.931 . S
H1473 C1461 0.929 . S
H1474 C1462 0.960 . S
H1475 C1462 0.962 . S
H1476 C1462 0.960 . S
H1477 C1463 0.961 . S
H1478 C1463 0.961 . S
H1479 C1463 0.961 . S
H1480 C1464 0.931 . S
H1481 C1469 0.930 . S
H1482 C1470 0.956 . S
H1483 C1470 0.961 . S
H1484 C1470 0.961 . S
H1485 C1471 0.958 . S
H1486 C1471 0.961 . S
H1487 C1471 0.960 . S
C1488 C1489 1.391 . S
C1488 C1490 1.394 . S
C1488 H1504 0.931 . S
C1489 C1488 1.391 . S
C1489 C1493 1.376 . S
C1490 C1488 1.394 . S
C1490 C1491 1.369 . S
C1490 C1494 1.531 . S
C1491 C1490 1.369 . S
C1491 C1492 1.410 . S
C1491 C1499 1.503 . S
C1492 C1491 1.410 . S
C1492 C1493 1.392 . S
C1492 C1495 1.511 . S
C1493 C1489 1.376 . S
C1493 C1492 1.392 . S
C1493 H1505 0.929 . S
C1494 C1490 1.531 . S
C1494 H1506 0.960 . S
C1494 H1507 0.962 . S
C1494 H1508 0.960 . S
C1495 C1492 1.511 . S
C1495 H1509 0.961 . S
C1495 H1510 0.961 . S
C1495 H1511 0.961 . S
C1496 C1497 1.370 . S
C1496 C1498 1.363 . S
C1496 H1512 0.931 . S
C1497 C1496 1.370 . S
C1497 C1501 1.408 . S
C1498 C1496 1.363 . S
C1498 C1499 1.370 . S
C1498 C1502 1.524 . S
C1499 C1491 1.503 . S
C1499 C1498 1.370 . S
C1499 C1500 1.403 . S
C1500 C1499 1.403 . S
C1500 C1501 1.404 . S
C1500 C1503 1.539 . S
C1501 C1497 1.408 . S
C1501 C1500 1.404 . S
C1501 H1513 0.930 . S
C1502 C1498 1.524 . S
C1502 H1514 0.956 . S
C1502 H1515 0.961 . S
C1502 H1516 0.961 . S
C1503 C1500 1.539 . S
C1503 H1517 0.958 . S
C1503 H1518 0.961 . S
C1503 H1519 0.960 . S
H1504 C1488 0.931 . S
H1505 C1493 0.929 . S
H1506 C1494 0.960 . S
H1507 C1494 0.962 . S
H1508 C1494 0.960 . S
H1509 C1495 0.961 . S
H1510 C1495 0.961 . S
H1511 C1495 0.961 . S
H1512 C1496 0.931 . S
H1513 C1501 0.930 . S
H1514 C1502 0.956 . S
H1515 C1502 0.961 . S
H1516 C1502 0.961 . S
H1517 C1503 0.958 . S
H1518 C1503 0.961 . S
H1519 C1503 0.960 . S
C1520 C1521 1.391 . S
C1520 C1522 1.394 . S
C1520 H1536 0.931 . S
C1521 C1520 1.391 . S
C1521 C1525 1.376 . S
C1522 C1520 1.394 . S
C1522 C1523 1.369 . S
C1522 C1526 1.531 . S
C1523 C1522 1.369 . S
C1523 C1524 1.410 . S
C1523 C1531 1.503 1_556 S
C1524 C1523 1.410 . S
C1524 C1525 1.392 . S
C1524 C1527 1.511 . S
C1525 C1521 1.376 . S
C1525 C1524 1.392 . S
C1525 H1537 0.929 . S
C1526 C1522 1.531 . S
C1526 H1538 0.960 1_556 S
C1526 H1539 0.962 . S
C1526 H1540 0.960 . S
C1527 C1524 1.511 . S
C1527 H1541 0.961 . S
C1527 H1542 0.961 1_556 S
C1527 H1543 0.961 1_556 S
C1528 C1529 1.370 . S
C1528 C1530 1.363 . S
C1528 H1544 0.931 . S
C1529 C1528 1.370 . S
C1529 C1533 1.408 . S
C1530 C1528 1.363 . S
C1530 C1531 1.370 . S
C1530 C1534 1.524 1_554 S
C1531 C1523 1.503 1_554 S
C1531 C1530 1.370 . S
C1531 C1532 1.403 . S
C1532 C1531 1.403 . S
C1532 C1533 1.404 . S
C1532 C1535 1.539 . S
C1533 C1529 1.408 . S
C1533 C1532 1.404 . S
C1533 H1545 0.930 . S
C1534 C1530 1.524 1_556 S
C1534 H1546 0.956 . S
C1534 H1547 0.961 . S
C1534 H1548 0.961 . S
C1535 C1532 1.539 . S
C1535 H1549 0.958 . S
C1535 H1550 0.961 . S
C1535 H1551 0.960 . S
H1536 C1520 0.931 . S
H1537 C1525 0.929 . S
H1538 C1526 0.960 1_554 S
H1539 C1526 0.962 . S
H1540 C1526 0.960 . S
H1541 C1527 0.961 . S
H1542 C1527 0.961 1_554 S
H1543 C1527 0.961 1_554 S
H1544 C1528 0.931 . S
H1545 C1533 0.930 . S
H1546 C1534 0.956 . S
H1547 C1534 0.961 . S
H1548 C1534 0.961 . S
H1549 C1535 0.958 . S
H1550 C1535 0.961 . S
H1551 C1535 0.960 . S
C1552 C1553 1.391 . S
C1552 C1554 1.394 . S
C1552 H1568 0.931 . S
C1553 C1552 1.391 . S
C1553 C1557 1.376 . S
C1554 C1552 1.394 . S
C1554 C1555 1.369 . S
C1554 C1558 1.531 . S
C1555 C1554 1.369 . S
C1555 C1556 1.410 . S
C1555 C1563 1.503 . S
C1556 C1555 1.410 . S
C1556 C1557 1.392 . S
C1556 C1559 1.511 . S
C1557 C1553 1.376 . S
C1557 C1556 1.392 . S
C1557 H1569 0.929 . S
C1558 C1554 1.531 . S
C1558 H1570 0.960 . S
C1558 H1571 0.962 . S
C1558 H1572 0.960 . S
C1559 C1556 1.511 . S
C1559 H1573 0.961 . S
C1559 H1574 0.961 . S
C1559 H1575 0.961 . S
C1560 C1561 1.370 . S
C1560 C1562 1.363 . S
C1560 H1576 0.931 . S
C1561 C1560 1.370 . S
C1561 C1565 1.408 . S
C1562 C1560 1.363 . S
C1562 C1563 1.370 . S
C1562 C1566 1.524 . S
C1563 C1555 1.503 . S
C1563 C1562 1.370 . S
C1563 C1564 1.403 . S
C1564 C1563 1.403 . S
C1564 C1565 1.404 . S
C1564 C1567 1.539 . S
C1565 C1561 1.408 . S
C1565 C1564 1.404 . S
C1565 H1577 0.930 . S
C1566 C1562 1.524 . S
C1566 H1578 0.956 . S
C1566 H1579 0.961 . S
C1566 H1580 0.961 . S
C1567 C1564 1.539 . S
C1567 H1581 0.958 . S
C1567 H1582 0.961 . S
C1567 H1583 0.960 . S
H1568 C1552 0.931 . S
H1569 C1557 0.929 . S
H1570 C1558 0.960 . S
H1571 C1558 0.962 . S
H1572 C1558 0.960 . S
H1573 C1559 0.961 . S
H1574 C1559 0.961 . S
H1575 C1559 0.961 . S
H1576 C1560 0.931 . S
H1577 C1565 0.930 . S
H1578 C1566 0.956 . S
H1579 C1566 0.961 . S
H1580 C1566 0.961 . S
H1581 C1567 0.958 . S
H1582 C1567 0.961 . S
H1583 C1567 0.960 . S
C1584 C1585 1.391 . S
C1584 C1586 1.394 . S
C1584 H1600 0.931 . S
C1585 C1584 1.391 . S
C1585 C1589 1.376 . S
C1586 C1584 1.394 . S
C1586 C1587 1.369 . S
C1586 C1590 1.531 . S
C1587 C1586 1.369 . S
C1587 C1588 1.410 . S
C1587 C1595 1.503 1_554 S
C1588 C1587 1.410 . S
C1588 C1589 1.392 . S
C1588 C1591 1.511 . S
C1589 C1585 1.376 . S
C1589 C1588 1.392 . S
C1589 H1601 0.929 . S
C1590 C1586 1.531 . S
C1590 H1602 0.960 . S
C1590 H1603 0.962 . S
C1590 H1604 0.960 . S
C1591 C1588 1.511 . S
C1591 H1605 0.961 . S
C1591 H1606 0.961 1_554 S
C1591 H1607 0.961 . S
C1592 C1593 1.370 . S
C1592 C1594 1.363 . S
C1592 H1608 0.931 . S
C1593 C1592 1.370 . S
C1593 C1597 1.408 . S
C1594 C1592 1.363 . S
C1594 C1595 1.370 . S
C1594 C1598 1.524 . S
C1595 C1587 1.503 1_556 S
C1595 C1594 1.370 . S
C1595 C1596 1.403 . S
C1596 C1595 1.403 . S
C1596 C1597 1.404 . S
C1596 C1599 1.539 1_556 S
C1597 C1593 1.408 . S
C1597 C1596 1.404 . S
C1597 H1609 0.930 . S
C1598 C1594 1.524 . S
C1598 H1610 0.956 . S
C1598 H1611 0.961 . S
C1598 H1612 0.961 . S
C1599 C1596 1.539 1_554 S
C1599 H1613 0.958 . S
C1599 H1614 0.961 1_554 S
C1599 H1615 0.960 . S
H1600 C1584 0.931 . S
H1601 C1589 0.929 . S
H1602 C1590 0.960 . S
H1603 C1590 0.962 . S
H1604 C1590 0.960 . S
H1605 C1591 0.961 . S
H1606 C1591 0.961 1_556 S
H1607 C1591 0.961 . S
H1608 C1592 0.931 . S
H1609 C1597 0.930 . S
H1610 C1598 0.956 . S
H1611 C1598 0.961 . S
H1612 C1598 0.961 . S
H1613 C1599 0.958 . S
H1614 C1599 0.961 1_556 S
H1615 C1599 0.960 . S
C1616 C1617 1.391 . S
C1616 C1618 1.394 . S
C1616 H1632 0.931 . S
C1617 C1616 1.391 . S
C1617 C1621 1.376 . S
C1618 C1616 1.394 . S
C1618 C1619 1.369 . S
C1618 C1622 1.531 . S
C1619 C1618 1.369 . S
C1619 C1620 1.410 . S
C1619 C1627 1.503 . S
C1620 C1619 1.410 . S
C1620 C1621 1.392 . S
C1620 C1623 1.511 . S
C1621 C1617 1.376 . S
C1621 C1620 1.392 . S
C1621 H1633 0.929 . S
C1622 C1618 1.531 . S
C1622 H1634 0.960 . S
C1622 H1635 0.962 . S
C1622 H1636 0.960 . S
C1623 C1620 1.511 . S
C1623 H1637 0.961 . S
C1623 H1638 0.961 . S
C1623 H1639 0.961 . S
C1624 C1625 1.370 . S
C1624 C1626 1.363 . S
C1624 H1640 0.931 . S
C1625 C1624 1.370 . S
C1625 C1629 1.408 . S
C1626 C1624 1.363 . S
C1626 C1627 1.370 . S
C1626 C1630 1.524 . S
C1627 C1619 1.503 . S
C1627 C1626 1.370 . S
C1627 C1628 1.403 . S
C1628 C1627 1.403 . S
C1628 C1629 1.404 . S
C1628 C1631 1.539 . S
C1629 C1625 1.408 . S
C1629 C1628 1.404 . S
C1629 H1641 0.930 . S
C1630 C1626 1.524 . S
C1630 H1642 0.956 . S
C1630 H1643 0.961 . S
C1630 H1644 0.961 . S
C1631 C1628 1.539 . S
C1631 H1645 0.958 . S
C1631 H1646 0.961 . S
C1631 H1647 0.960 . S
H1632 C1616 0.931 . S
H1633 C1621 0.929 . S
H1634 C1622 0.960 . S
H1635 C1622 0.962 . S
H1636 C1622 0.960 . S
H1637 C1623 0.961 . S
H1638 C1623 0.961 . S
H1639 C1623 0.961 . S
H1640 C1624 0.931 . S
H1641 C1629 0.930 . S
H1642 C1630 0.956 . S
H1643 C1630 0.961 . S
H1644 C1630 0.961 . S
H1645 C1631 0.958 . S
H1646 C1631 0.961 . S
H1647 C1631 0.960 . S
C1648 C1649 1.391 . S
C1648 C1650 1.394 . S
C1648 H1664 0.931 . S
C1649 C1648 1.391 . S
C1649 C1653 1.376 . S
C1650 C1648 1.394 . S
C1650 C1651 1.369 . S
C1650 C1654 1.531 . S
C1651 C1650 1.369 . S
C1651 C1652 1.410 . S
C1651 C1659 1.503 1_655 S
C1652 C1651 1.410 . S
C1652 C1653 1.392 . S
C1652 C1655 1.511 1_655 S
C1653 C1649 1.376 . S
C1653 C1652 1.392 . S
C1653 H1665 0.929 . S
C1654 C1650 1.531 . S
C1654 H1666 0.960 . S
C1654 H1667 0.962 . S
C1654 H1668 0.960 . S
C1655 C1652 1.511 1_455 S
C1655 H1669 0.959 1_455 S
C1655 H1670 0.961 . S
C1655 H1671 0.961 . S
C1656 C1657 1.370 . S
C1656 C1658 1.363 . S
C1656 H1672 0.931 . S
C1657 C1656 1.370 . S
C1657 C1661 1.408 . S
C1658 C1656 1.363 . S
C1658 C1659 1.370 . S
C1658 C1662 1.524 . S
C1659 C1651 1.503 1_455 S
C1659 C1658 1.370 . S
C1659 C1660 1.403 . S
C1660 C1659 1.403 . S
C1660 C1661 1.404 . S
C1660 C1663 1.541 . S
C1661 C1657 1.408 . S
C1661 C1660 1.404 . S
C1661 H1673 0.930 . S
C1662 C1658 1.524 . S
C1662 H1674 0.956 . S
C1662 H1675 0.961 . S
C1662 H1676 0.961 . S
C1663 C1660 1.541 . S
C1663 H1677 0.957 1_455 S
C1663 H1678 0.963 . S
C1663 H1679 0.958 1_455 S
H1664 C1648 0.931 . S
H1665 C1653 0.929 . S
H1666 C1654 0.960 . S
H1667 C1654 0.962 . S
H1668 C1654 0.960 . S
H1669 C1655 0.959 1_655 S
H1670 C1655 0.961 . S
H1671 C1655 0.961 . S
H1672 C1656 0.931 . S
H1673 C1661 0.930 . S
H1674 C1662 0.956 . S
H1675 C1662 0.961 . S
H1676 C1662 0.961 . S
H1677 C1663 0.957 1_655 S
H1678 C1663 0.963 . S
H1679 C1663 0.958 1_655 S
C1680 C1681 1.391 . S
C1680 C1682 1.394 . S
C1680 H1696 0.931 . S
C1681 C1680 1.391 . S
C1681 C1685 1.376 . S
C1682 C1680 1.394 . S
C1682 C1683 1.369 . S
C1682 C1686 1.531 . S
C1683 C1682 1.369 . S
C1683 C1684 1.410 . S
C1683 C1691 1.503 1_455 S
C1684 C1683 1.410 . S
C1684 C1685 1.392 . S
C1684 C1687 1.511 . S
C1685 C1681 1.376 . S
C1685 C1684 1.392 . S
C1685 H1697 0.929 . S
C1686 C1682 1.531 . S
C1686 H1698 0.960 1_455 S
C1686 H1699 0.962 1_455 S
C1686 H1700 0.960 . S
C1687 C1684 1.511 . S
C1687 H1701 0.961 . S
C1687 H1702 0.961 . S
C1687 H1703 0.961 . S
C1688 C1689 1.370 . S
C1688 C1690 1.363 . S
C1688 H1704 0.931 . S
C1689 C1688 1.370 . S
C1689 C1693 1.408 . S
C1690 C1688 1.363 . S
C1690 C1691 1.370 . S
C1690 C1694 1.524 . S
C1691 C1683 1.503 1_655 S
C1691 C1690 1.370 . S
C1691 C1692 1.403 . S
C1692 C1691 1.403 . S
C1692 C1693 1.404 . S
C1692 C1695 1.539 1_655 S
C1693 C1689 1.408 . S
C1693 C1692 1.404 . S
C1693 H1705 0.930 . S
C1694 C1690 1.524 . S
C1694 H1706 0.956 . S
C1694 H1707 0.961 . S
C1694 H1708 0.961 . S
C1695 C1692 1.539 1_455 S
C1695 H1709 0.958 . S
C1695 H1710 0.961 . S
C1695 H1711 0.960 . S
H1696 C1680 0.931 . S
H1697 C1685 0.929 . S
H1698 C1686 0.960 1_655 S
H1699 C1686 0.962 1_655 S
H1700 C1686 0.960 . S
H1701 C1687 0.961 . S
H1702 C1687 0.961 . S
H1703 C1687 0.961 . S
H1704 C1688 0.931 . S
H1705 C1693 0.930 . S
H1706 C1694 0.956 . S
H1707 C1694 0.961 . S
H1708 C1694 0.961 . S
H1709 C1695 0.958 . S
H1710 C1695 0.961 . S
H1711 C1695 0.960 . S
C1712 C1713 1.391 . S
C1712 C1714 1.394 . S
C1712 H1728 0.931 . S
C1713 C1712 1.391 . S
C1713 C1717 1.376 . S
C1714 C1712 1.394 . S
C1714 C1715 1.369 . S
C1714 C1718 1.531 . S
C1715 C1714 1.369 . S
C1715 C1716 1.410 . S
C1715 C1723 1.503 . S
C1716 C1715 1.410 . S
C1716 C1717 1.392 . S
C1716 C1719 1.511 . S
C1717 C1713 1.376 . S
C1717 C1716 1.392 . S
C1717 H1729 0.929 . S
C1718 C1714 1.531 . S
C1718 H1730 0.960 . S
C1718 H1731 0.962 . S
C1718 H1732 0.960 . S
C1719 C1716 1.511 . S
C1719 H1733 0.961 . S
C1719 H1734 0.961 . S
C1719 H1735 0.961 . S
C1720 C1721 1.370 . S
C1720 C1722 1.363 . S
C1720 H1736 0.931 . S
C1721 C1720 1.370 . S
C1721 C1725 1.408 . S
C1722 C1720 1.363 . S
C1722 C1723 1.370 . S
C1722 C1726 1.524 . S
C1723 C1715 1.503 . S
C1723 C1722 1.370 . S
C1723 C1724 1.403 . S
C1724 C1723 1.403 . S
C1724 C1725 1.404 . S
C1724 C1727 1.539 . S
C1725 C1721 1.408 . S
C1725 C1724 1.404 . S
C1725 H1737 0.930 . S
C1726 C1722 1.524 . S
C1726 H1738 0.956 . S
C1726 H1739 0.961 . S
C1726 H1740 0.961 . S
C1727 C1724 1.539 . S
C1727 H1741 0.958 . S
C1727 H1742 0.961 . S
C1727 H1743 0.960 . S
H1728 C1712 0.931 . S
H1729 C1717 0.929 . S
H1730 C1718 0.960 . S
H1731 C1718 0.962 . S
H1732 C1718 0.960 . S
H1733 C1719 0.961 . S
H1734 C1719 0.961 . S
H1735 C1719 0.961 . S
H1736 C1720 0.931 . S
H1737 C1725 0.930 . S
H1738 C1726 0.956 . S
H1739 C1726 0.961 . S
H1740 C1726 0.961 . S
H1741 C1727 0.958 . S
H1742 C1727 0.961 . S
H1743 C1727 0.960 . S
C1744 C1745 1.391 . S
C1744 C1746 1.394 . S
C1744 H1760 0.931 . S
C1745 C1744 1.391 . S
C1745 C1749 1.376 . S
C1746 C1744 1.394 . S
C1746 C1747 1.369 . S
C1746 C1750 1.531 . S
C1747 C1746 1.369 . S
C1747 C1748 1.410 . S
C1747 C1755 1.503 . S
C1748 C1747 1.410 . S
C1748 C1749 1.392 . S
C1748 C1751 1.511 . S
C1749 C1745 1.376 . S
C1749 C1748 1.392 . S
C1749 H1761 0.929 . S
C1750 C1746 1.531 . S
C1750 H1762 0.960 . S
C1750 H1763 0.962 . S
C1750 H1764 0.960 . S
C1751 C1748 1.511 . S
C1751 H1765 0.961 . S
C1751 H1766 0.961 . S
C1751 H1767 0.961 . S
C1752 C1753 1.370 . S
C1752 C1754 1.363 . S
C1752 H1768 0.931 . S
C1753 C1752 1.370 . S
C1753 C1757 1.408 . S
C1754 C1752 1.363 . S
C1754 C1755 1.370 . S
C1754 C1758 1.524 . S
C1755 C1747 1.503 . S
C1755 C1754 1.370 . S
C1755 C1756 1.403 . S
C1756 C1755 1.403 . S
C1756 C1757 1.404 . S
C1756 C1759 1.539 . S
C1757 C1753 1.408 . S
C1757 C1756 1.404 . S
C1757 H1769 0.930 . S
C1758 C1754 1.524 . S
C1758 H1770 0.956 . S
C1758 H1771 0.961 . S
C1758 H1772 0.961 . S
C1759 C1756 1.539 . S
C1759 H1773 0.958 . S
C1759 H1774 0.961 . S
C1759 H1775 0.960 . S
H1760 C1744 0.931 . S
H1761 C1749 0.929 . S
H1762 C1750 0.960 . S
H1763 C1750 0.962 . S
H1764 C1750 0.960 . S
H1765 C1751 0.961 . S
H1766 C1751 0.961 . S
H1767 C1751 0.961 . S
H1768 C1752 0.931 . S
H1769 C1757 0.930 . S
H1770 C1758 0.956 . S
H1771 C1758 0.961 . S
H1772 C1758 0.961 . S
H1773 C1759 0.958 . S
H1774 C1759 0.961 . S
H1775 C1759 0.960 . S
C1776 C1777 1.391 . S
C1776 C1778 1.394 . S
C1776 H1792 0.931 . S
C1777 C1776 1.391 . S
C1777 C1781 1.376 . S
C1778 C1776 1.394 . S
C1778 C1779 1.369 . S
C1778 C1782 1.531 . S
C1779 C1778 1.369 . S
C1779 C1780 1.410 . S
C1779 C1787 1.503 1_565 S
C1780 C1779 1.410 . S
C1780 C1781 1.392 . S
C1780 C1783 1.511 . S
C1781 C1777 1.376 . S
C1781 C1780 1.392 . S
C1781 H1793 0.929 . S
C1782 C1778 1.531 . S
C1782 H1794 0.960 . S
C1782 H1795 0.962 . S
C1782 H1796 0.960 . S
C1783 C1780 1.511 . S
C1783 H1797 0.961 . S
C1783 H1798 0.961 1_565 S
C1783 H1799 0.961 1_565 S
C1784 C1785 1.370 . S
C1784 C1786 1.363 . S
C1784 H1800 0.931 . S
C1785 C1784 1.370 . S
C1785 C1789 1.408 . S
C1786 C1784 1.363 . S
C1786 C1787 1.370 . S
C1786 C1790 1.524 1_545 S
C1787 C1779 1.503 1_545 S
C1787 C1786 1.370 . S
C1787 C1788 1.403 . S
C1788 C1787 1.403 . S
C1788 C1789 1.404 . S
C1788 C1791 1.539 . S
C1789 C1785 1.408 . S
C1789 C1788 1.404 . S
C1789 H1801 0.930 . S
C1790 C1786 1.524 1_565 S
C1790 H1802 0.956 . S
C1790 H1803 0.961 . S
C1790 H1804 0.961 . S
C1791 C1788 1.539 . S
C1791 H1805 0.958 . S
C1791 H1806 0.961 . S
C1791 H1807 0.960 . S
H1792 C1776 0.931 . S
H1793 C1781 0.929 . S
H1794 C1782 0.960 . S
H1795 C1782 0.962 . S
H1796 C1782 0.960 . S
H1797 C1783 0.961 . S
H1798 C1783 0.961 1_545 S
H1799 C1783 0.961 1_545 S
H1800 C1784 0.931 . S
H1801 C1789 0.930 . S
H1802 C1790 0.956 . S
H1803 C1790 0.961 . S
H1804 C1790 0.961 . S
H1805 C1791 0.958 . S
H1806 C1791 0.961 . S
H1807 C1791 0.960 . S
C1808 C1809 1.391 . S
C1808 C1810 1.394 . S
C1808 H1824 0.931 . S
C1809 C1808 1.391 . S
C1809 C1813 1.376 . S
C1810 C1808 1.394 . S
C1810 C1811 1.369 . S
C1810 C1814 1.531 1_565 S
C1811 C1810 1.369 . S
C1811 C1812 1.410 . S
C1811 C1819 1.503 1_565 S
C1812 C1811 1.410 . S
C1812 C1813 1.392 . S
C1812 C1815 1.511 . S
C1813 C1809 1.376 . S
C1813 C1812 1.392 . S
C1813 H1825 0.929 . S
C1814 C1810 1.531 1_545 S
C1814 H1826 0.960 . S
C1814 H1827 0.962 . S
C1814 H1828 0.960 1_545 S
C1815 C1812 1.511 . S
C1815 H1829 0.961 . S
C1815 H1830 0.961 . S
C1815 H1831 0.961 . S
C1816 C1817 1.370 . S
C1816 C1818 1.363 . S
C1816 H1832 0.931 . S
C1817 C1816 1.370 . S
C1817 C1821 1.408 . S
C1818 C1816 1.363 . S
C1818 C1819 1.370 . S
C1818 C1822 1.524 . S
C1819 C1811 1.503 1_545 S
C1819 C1818 1.370 . S
C1819 C1820 1.403 . S
C1820 C1819 1.403 . S
C1820 C1821 1.404 . S
C1820 C1823 1.553 . S
C1821 C1817 1.408 . S
C1821 C1820 1.404 . S
C1821 H1833 0.930 . S
C1822 C1818 1.524 . S
C1822 H1834 0.956 . S
C1822 H1835 0.961 . S
C1822 H1836 0.961 . S
C1823 C1820 1.553 . S
C1823 H1837 0.959 . S
C1823 H1838 0.965 . S
C1823 H1839 0.942 1_545 S
H1824 C1808 0.931 . S
H1825 C1813 0.929 . S
H1826 C1814 0.960 . S
H1827 C1814 0.962 . S
H1828 C1814 0.960 1_565 S
H1829 C1815 0.961 . S
H1830 C1815 0.961 . S
H1831 C1815 0.961 . S
H1832 C1816 0.931 . S
H1833 C1821 0.930 . S
H1834 C1822 0.956 . S
H1835 C1822 0.961 . S
H1836 C1822 0.961 . S
H1837 C1823 0.959 . S
H1838 C1823 0.965 . S
H1839 C1823 0.942 1_565 S
C1840 C1841 1.391 . S
C1840 C1842 1.394 . S
C1840 H1856 0.931 . S
C1841 C1840 1.391 . S
C1841 C1845 1.376 . S
C1842 C1840 1.394 . S
C1842 C1843 1.369 . S
C1842 C1846 1.531 . S
C1843 C1842 1.369 . S
C1843 C1844 1.410 . S
C1843 C1851 1.503 . S
C1844 C1843 1.410 . S
C1844 C1845 1.392 . S
C1844 C1847 1.511 . S
C1845 C1841 1.376 . S
C1845 C1844 1.392 . S
C1845 H1857 0.929 . S
C1846 C1842 1.531 . S
C1846 H1858 0.960 . S
C1846 H1859 0.962 . S
C1846 H1860 0.960 . S
C1847 C1844 1.511 . S
C1847 H1861 0.961 . S
C1847 H1862 0.961 . S
C1847 H1863 0.961 . S
C1848 C1849 1.370 . S
C1848 C1850 1.363 . S
C1848 H1864 0.931 . S
C1849 C1848 1.370 . S
C1849 C1853 1.408 . S
C1850 C1848 1.363 . S
C1850 C1851 1.370 . S
C1850 C1854 1.524 . S
C1851 C1843 1.503 . S
C1851 C1850 1.370 . S
C1851 C1852 1.403 . S
C1852 C1851 1.403 . S
C1852 C1853 1.404 . S
C1852 C1855 1.539 . S
C1853 C1849 1.408 . S
C1853 C1852 1.404 . S
C1853 H1865 0.930 . S
C1854 C1850 1.524 . S
C1854 H1866 0.956 . S
C1854 H1867 0.961 . S
C1854 H1868 0.961 . S
C1855 C1852 1.539 . S
C1855 H1869 0.958 . S
C1855 H1870 0.961 . S
C1855 H1871 0.960 . S
H1856 C1840 0.931 . S
H1857 C1845 0.929 . S
H1858 C1846 0.960 . S
H1859 C1846 0.962 . S
H1860 C1846 0.960 . S
H1861 C1847 0.961 . S
H1862 C1847 0.961 . S
H1863 C1847 0.961 . S
H1864 C1848 0.931 . S
H1865 C1853 0.930 . S
H1866 C1854 0.956 . S
H1867 C1854 0.961 . S
H1868 C1854 0.961 . S
H1869 C1855 0.958 . S
H1870 C1855 0.961 . S
H1871 C1855 0.960 . S
C337 C121 1.251 . S
C345 C8 1.203 . S
C369 C22 1.245 . S
C377 C163 1.246 . S
C401 C36 1.210 . S
C409 C135 1.259 . S
C433 C50 1.171 . S
C441 C149 1.260 . S
C465 C64 1.245 . S
C473 C9 1.246 . S
C497 C23 1.243 . S
C505 C78 1.209 . S
C529 C92 1.225 . S
C537 C37 1.257 . S
C561 C51 1.236 . S
C569 C106 1.231 . S
C593 C65 1.244 . S
C601 C120 1.229 . S
C625 C93 1.257 . S
C633 C134 1.199 . S
C657 C148 1.221 . S
C665 C107 1.247 . S
C689 C79 1.233 . S
C697 C162 1.230 . S
C721 C289 1.269 . S
C729 C176 1.205 . S
C753 C190 1.241 . S
C761 C331 1.256 . S
C785 C204 1.175 . S
C793 C303 1.254 . S
C817 C317 1.262 . S
C825 C218 1.197 . S
C849 C232 1.242 . S
C857 C177 1.247 . S
C881 C191 1.250 . S
C889 C246 1.229 . S
C913 C205 1.240 . S
C921 C260 1.231 . S
C945 C274 1.178 . S
C953 C219 1.253 . S
C977 C288 1.181 . S
C985 C233 1.252 . S
C1009 C261 1.269 . S
C1017 C302 1.204 . S
C1041 C275 1.251 . S
C1049 C316 1.228 . S
C1073 C330 1.172 . S
C1081 C247 1.256 . S
C1105 C314 1.503 . S
C1113 C7 1.558 . S
C1137 C300 1.513 . S
C1145 C21 1.557 . S
C1169 C328 1.512 . S
C1177 C35 1.557 . S
C1201 C49 1.553 . S
C1209 C286 1.491 . S
C1233 C63 1.566 . S
C1241 C188 1.501 . S
C1265 C174 1.528 . S
C1273 C77 1.544 . S
C1297 C216 1.503 . S
C1305 C91 1.558 . S
C1329 C202 1.467 . S
C1337 C105 1.551 . S
C1361 C119 1.563 . S
C1369 C258 1.496 . S
C1393 C230 1.469 . S
C1401 C133 1.550 . S
C1425 C244 1.516 . S
C1433 C147 1.542 . S
C1457 C272 1.533 . S
C1465 C161 1.551 . S
C1489 C146 1.468 . S
C1497 C175 1.553 . S
C1521 C132 1.534 . S
C1529 C189 1.544 . S
C1553 C203 1.544 . S
C1561 C160 1.494 . S
C1585 C118 1.471 . S
C1593 C217 1.557 . S
C1617 C231 1.528 . S
C1625 C20 1.505 . S
C1649 C245 1.557 . S
C1657 C6 1.512 . S
C1681 C259 1.527 . S
C1689 C48 1.515 . S
C1713 C273 1.560 . S
C1721 C34 1.509 . S
C1745 C287 1.539 . S
C1753 C90 1.496 . S
C1777 C301 1.562 . S
C1785 C62 1.492 . S
C1809 C76 1.473 . S
C1817 C315 1.550 . S
C1841 C329 1.531 . S
C1849 C104 1.518 . S
