# Generated by pormake.
# Topology sma, (6)-cn, num edge types: 1
# Building blocks:
#     Node 0, Type 0, BuildingBlock: HISSIN_clean_sbu_0, # of connection points: 6
#     Node 1, Type 0, BuildingBlock: HISSIN_clean_sbu_0, # of connection points: 6
#     Node 2, Type 0, BuildingBlock: HISSIN_clean_sbu_0, # of connection points: 6
#     Edge 3, Type (0, 0), BuildingBlock: ZUJKAS_clean_linker_0, # of connection points: 2
#     Edge 4, Type (0, 0), BuildingBlock: ZUJKAS_clean_linker_0, # of connection points: 2
#     Edge 5, Type (0, 0), BuildingBlock: ZUJKAS_clean_linker_0, # of connection points: 2
#     Edge 6, Type (0, 0), BuildingBlock: ZUJKAS_clean_linker_0, # of connection points: 2
#     Edge 7, Type (0, 0), BuildingBlock: ZUJKAS_clean_linker_0, # of connection points: 2
#     Edge 8, Type (0, 0), BuildingBlock: ZUJKAS_clean_linker_0, # of connection points: 2
#     Edge 9, Type (0, 0), BuildingBlock: ZUJKAS_clean_linker_0, # of connection points: 2
#     Edge 10, Type (0, 0), BuildingBlock: ZUJKAS_clean_linker_0, # of connection points: 2
#     Edge 11, Type (0, 0), BuildingBlock: ZUJKAS_clean_linker_0, # of connection points: 2
# Relax obj value: 0.086
# Max RMSD: 0.189
# Mean RMSD: 0.185
data_MOF--net-sma--node1-HISSIN_clean_sbu_0--edge1-ZUJKAS_clean_linker_0
_symmetry_space_group_name_H-M    P1
_symmetry_Int_Tables_number       1
_symmetry_cell_setting            triclinic
loop_
_symmetry_equiv_pos_as_xyz
'x, y, z'
_cell_length_a     48.538508
_cell_length_b     48.285674
_cell_length_c     18.377315
_cell_angle_alpha  94.113335
_cell_angle_beta   91.440103
_cell_angle_gamma 120.25645
loop_
_atom_site_label
_atom_site_type_symbol
_atom_site_fract_x
_atom_site_fract_y
_atom_site_fract_z
_atom_type_partial_charge
Eu0 Eu 1.03853 0.503 0.09611 0.0
Eu1 Eu 0.08053 0.58287 0.08237 0.0
C2 C 0.07065 0.55246 0.23107 0.0
C3 C 0.97376 0.41701 0.13588 0.0
C4 C 0.95649 0.42516 0.18436 0.0
C5 C 0.93224 0.36073 0.1314 0.0
C6 C 0.92726 0.40108 0.20663 0.0
C7 C 0.96135 0.38473 0.10936 0.0
C8 C 0.91489 0.36851 0.18072 0.0
C9 C 1.00474 0.44146 0.11202 0.0
O10 O 0.11731 0.56764 0.07216 0.0
O11 O 0.0903 0.51565 0.10677 0.0
C12 C 0.11651 0.54112 0.08859 0.0
O13 O 0.06069 0.51055 -0.01084 0.0
O14 O 0.09169 0.63051 0.12851 0.0
O15 O 0.11356 0.62572 0.03055 0.0
O16 O 0.06199 0.5576 -0.03048 0.0
C17 C 0.06384 0.53226 0.94606 0.0
O18 O 1.00305 0.5158 0.05286 0.0
O19 O 1.02921 0.56946 0.09502 0.0
O20 O 0.09234 0.57241 0.19098 0.0
O21 O 1.00399 0.45378 0.0516 0.0
O22 O 1.02555 0.46296 0.16219 0.0
O23 O 1.04218 0.53127 0.20156 0.0
C24 C 0.14418 0.67182 0.11431 0.0
C25 C 0.1647 0.66526 0.15513 0.0
C26 C 0.18189 0.72915 0.1404 0.0
C27 C 0.19362 0.69053 0.18865 0.0
C28 C 0.15301 0.70387 0.1069 0.0
C29 C 0.20249 0.72283 0.18212 0.0
C30 C 0.113 0.64553 0.08198 0.0
C31 C 1.00325 0.5429 0.06785 0.0
H32 H 0.96568 0.45002 0.20525 0.0
H33 H 0.92319 0.33606 0.10917 0.0
H34 H 0.91464 0.40789 0.245 0.0
H35 H 0.97425 0.37804 0.07148 0.0
H36 H 0.15813 0.64061 0.16182 0.0
H37 H 0.18815 0.75366 0.13324 0.0
H38 H 0.20869 0.68476 0.22095 0.0
H39 H 0.13743 0.70936 0.07563 0.0
Eu40 Eu 0.58403 1.02352 0.40699 0.0
Eu41 Eu 0.54986 0.06884 0.43532 0.0
C42 C 0.59227 0.06272 0.55591 0.0
C43 C 0.6051 0.95737 0.42261 0.0
C44 C 0.60217 0.95305 0.49746 0.0
C45 C 0.59919 0.90433 0.39961 0.0
C46 C 0.59808 0.92469 0.52317 0.0
C47 C 0.60353 0.93277 0.37404 0.0
C48 C 0.5965 0.89998 0.4745 0.0
C49 C 0.60957 0.98707 0.39384 0.0
O50 O 0.59478 0.10083 0.38062 0.0
O51 O 0.623 0.07425 0.3923 0.0
C52 C 0.62121 0.09956 0.3766 0.0
O53 O 0.57136 1.03344 0.29817 0.0
O54 O 0.52691 0.08553 0.51309 0.0
O55 O 0.53315 0.10089 0.40339 0.0
O56 O 0.52936 0.04078 0.32663 0.0
C57 C 0.54534 1.03397 0.27944 0.0
O58 O 0.53168 0.98782 0.4073 0.0
O59 O 0.51398 1.0191 0.46581 0.0
O60 O 0.58995 0.08373 0.51948 0.0
O61 O 0.58655 0.98375 0.34924 0.0
O62 O 0.62099 1.01291 0.43981 0.0
O63 O 0.58113 1.03328 0.52621 0.0
C64 C 0.53084 0.13559 0.49811 0.0
C65 C 0.56245 0.1608 0.51459 0.0
C66 C 0.51166 0.17107 0.54172 0.0
C67 C 0.56861 0.1911 0.54456 0.0
C68 C 0.50558 0.14095 0.51176 0.0
C69 C 0.54323 0.19654 0.5588 0.0
C70 C 0.52335 0.10333 0.46781 0.0
C71 C 0.50924 0.99096 0.43838 0.0
H72 H 0.603 0.97152 0.53613 0.0
H73 H 0.59843 0.88594 0.36083 0.0
H74 H 0.59573 0.92191 0.58104 0.0
H75 H 0.60573 0.93558 0.31613 0.0
H76 H 0.58226 0.15699 0.50462 0.0
H77 H 0.49157 0.17451 0.55065 0.0
H78 H 0.59318 0.21011 0.55753 0.0
H79 H 0.48103 0.12176 0.49922 0.0
Eu80 Eu 0.52015 0.53479 0.75346 0.0
Eu81 Eu 0.59958 0.57009 0.77371 0.0
C82 C 0.55972 0.5781 0.8969 0.0
C83 C 0.43293 0.51109 0.7846 0.0
C84 C 0.41818 0.49363 0.84399 0.0
C85 C 0.39834 0.5341 0.79117 0.0
C86 C 0.39385 0.49643 0.87668 0.0
C87 C 0.42267 0.53133 0.75851 0.0
C88 C 0.38351 0.51659 0.85048 0.0
C89 C 0.45776 0.50698 0.74811 0.0
O90 O 0.57863 0.51978 0.80846 0.0
O91 O 0.53226 0.49573 0.7351 0.0
C92 C 0.55483 0.49405 0.77173 0.0
O93 O 0.53723 0.53933 0.64052 0.0
O94 O 0.64054 0.59019 0.85325 0.0
O95 O 0.64803 0.59066 0.73733 0.0
O96 O 0.58681 0.54456 0.66112 0.0
C97 C 0.56316 0.54058 0.61698 0.0
O98 O 0.53851 0.58786 0.74802 0.0
O99 O 0.59006 0.60475 0.71682 0.0
O100 O 0.58368 0.59393 0.85719 0.0
O101 O 0.47563 0.52865 0.7053 0.0
O102 O 0.47411 0.49789 0.78716 0.0
O103 O 0.53603 0.54954 0.87252 0.0
C104 C 0.68622 0.58906 0.81802 0.0
C105 C 0.68142 0.55825 0.79803 0.0
C106 C 0.73845 0.6053 0.87508 0.0
C107 C 0.70517 0.55104 0.81659 0.0
C108 C 0.7149 0.61251 0.85617 0.0
C109 C 0.7338 0.57444 0.85612 0.0
C110 C 0.66125 0.5971 0.80379 0.0
C111 C 0.56538 0.60907 0.72167 0.0
H112 H 0.42527 0.47758 0.86503 0.0
H113 H 0.39064 0.54944 0.76875 0.0
H114 H 0.38321 0.48283 0.9227 0.0
H115 H 0.43317 0.54479 0.71222 0.0
H116 H 0.65923 0.53974 0.76914 0.0
H117 H 0.76039 0.62398 0.90451 0.0
H118 H 0.70084 0.52699 0.80163 0.0
H119 H 0.71894 0.63638 0.87222 0.0
H120 H 0.12271 0.48783 0.09284 0.0
H121 H 0.16934 0.48327 0.06472 0.0
H122 H 0.22266 0.5844 0.03436 0.0
H123 H 0.17639 0.58935 0.06291 0.0
H124 H 0.19835 0.49714 0.93084 0.0
H125 H 0.28537 0.57232 0.16403 0.0
H126 H 0.24294 0.55693 0.16673 0.0
H127 H 0.26723 0.59169 0.11941 0.0
C128 C 0.14451 0.50927 0.08154 0.0
C129 C 0.14573 0.53897 0.08012 0.0
C130 C 0.17112 0.50657 0.06526 0.0
C131 C 0.19956 0.53354 0.04812 0.0
C132 C 0.20116 0.56339 0.04868 0.0
H133 H 0.37844 0.57036 0.87916 0.0
H134 H 0.33352 0.57334 0.92833 0.0
C135 C 0.17456 0.56611 0.06464 0.0
C136 C 0.22667 0.53001 0.02398 0.0
H137 H 0.30598 0.55724 0.06204 0.0
C138 C 0.22182 0.51001 -0.04011 0.0
C139 C 0.25729 0.54703 0.06171 0.0
C140 C 0.26357 0.568 0.13216 0.0
C141 C 0.24696 0.50718 0.93138 0.0
C142 C 0.27765 0.52432 -0.03112 0.0
C143 C 0.28244 0.54412 0.03339 0.0
C144 C 0.3052 0.52245 0.94115 0.0
C145 C 0.24065 0.48669 0.86007 0.0
C146 C 0.30443 0.49293 0.93314 0.0
C147 C 0.32993 0.49108 0.90442 0.0
C148 C 0.35688 0.51878 0.8836 0.0
C149 C 0.35787 0.54846 0.89343 0.0
C150 C 0.33232 0.55027 0.92207 0.0
H151 H 0.21849 0.482 0.82924 0.0
H152 H 0.26096 0.49839 0.82485 0.0
H153 H 0.23768 0.46313 0.87155 0.0
H154 H 0.28398 0.47125 0.9487 0.0
H155 H 0.32821 0.46779 0.89716 0.0
H156 H 0.62942 0.15841 0.3497 0.0
H157 H 0.67793 0.20531 0.31485 0.0
H158 H 0.72775 0.15256 0.32039 0.0
H159 H 0.67949 0.10551 0.35451 0.0
H160 H 0.7391 0.23989 0.39134 0.0
H161 H 0.74405 0.18657 0.11789 0.0
H162 H 0.70854 0.16929 0.16812 0.0
H163 H 0.74072 0.16241 0.19075 0.0
C164 C 0.65061 0.15665 0.34309 0.0
C165 C 0.65041 0.12803 0.35458 0.0
C166 C 0.67834 0.18355 0.32333 0.0
C167 C 0.7063 0.18227 0.31403 0.0
C168 C 0.70627 0.15387 0.32592 0.0
H169 H 0.90064 0.30871 0.21529 0.0
H170 H 0.84951 0.26506 0.24846 0.0
C171 C 0.67863 0.12702 0.34582 0.0
C172 C 0.73579 0.21078 0.29342 0.0
H173 H 0.79046 0.23584 0.16397 0.0
C174 C 0.75021 0.23916 0.34133 0.0
C175 C 0.75017 0.20975 0.22807 0.0
C176 C 0.73496 0.18049 0.17283 0.0
C177 C 0.77927 0.26619 0.3268 0.0
C178 C 0.79397 0.2649 0.26216 0.0
C179 C 0.77922 0.23672 0.21366 0.0
C180 C 0.82515 0.29212 0.24454 0.0
C181 C 0.79455 0.29552 0.38182 0.0
C182 C 0.82845 0.32189 0.23125 0.0
C183 C 0.85769 0.34693 0.21173 0.0
C184 C 0.88412 0.34257 0.20473 0.0
C185 C 0.8807 0.31278 0.21897 0.0
C186 C 0.85152 0.28782 0.23833 0.0
H187 H 0.78392 0.29015 0.43551 0.0
H188 H 0.82068 0.3052 0.39018 0.0
H189 H 0.79098 0.31458 0.36099 0.0
H190 H 0.80824 0.32555 0.23449 0.0
H191 H 0.85934 0.36938 0.20024 0.0
H192 H 0.62654 0.89396 0.59538 0.0
H193 H 0.62084 0.84447 0.63753 0.0
H194 H 0.55103 0.78849 0.45802 0.0
H195 H 0.55689 0.83788 0.41513 0.0
H196 H 0.56967 0.79151 0.6816 0.0
H197 H 0.61337 0.75668 0.4357 0.0
H198 H 0.61755 0.79593 0.4527 0.0
H199 H 0.58009 0.76199 0.41521 0.0
C200 C 0.60986 0.87109 0.56508 0.0
C201 C 0.59235 0.86987 0.50156 0.0
C202 C 0.6067 0.84283 0.5891 0.0
C203 C 0.58597 0.81278 0.55017 0.0
C204 C 0.56784 0.81143 0.48782 0.0
H205 H 0.51918 0.62586 0.71574 0.0
H206 H 0.52391 0.67507 0.67495 0.0
C207 C 0.57116 0.83968 0.46346 0.0
C208 C 0.58312 0.7829 0.5753 0.0
H209 H 0.59042 0.71781 0.52137 0.0
C210 C 0.57429 0.77544 0.64664 0.0
C211 C 0.58958 0.76213 0.53003 0.0
C212 C 0.60098 0.76969 0.45442 0.0
C213 C 0.57136 0.74763 0.67363 0.0
C214 C 0.57677 0.72632 0.62749 0.0
C215 C 0.58596 0.73398 0.55646 0.0
C216 C 0.57372 0.69631 0.65222 0.0
C217 C 0.5632 0.74173 0.75183 0.0
C218 C 0.59986 0.6914 0.65113 0.0
C219 C 0.59717 0.66314 0.67375 0.0
C220 C 0.56821 0.63911 0.69788 0.0
C221 C 0.54195 0.64396 0.69823 0.0
C222 C 0.54465 0.6722 0.6753 0.0
H223 H 0.5685 0.76422 0.78514 0.0
H224 H 0.53726 0.72421 0.75285 0.0
H225 H 0.57663 0.73158 0.77779 0.0
H226 H 0.62248 0.70958 0.63315 0.0
H227 H 0.61787 0.66023 0.67239 0.0
H228 H 0.7669 0.58982 -0.01083 0.0
H229 H 0.81064 0.58103 0.02421 0.0
H230 H 0.80081 0.53297 0.81001 0.0
H231 H 0.75718 0.5421 0.77405 0.0
H232 H 0.81199 0.52187 0.02292 0.0
H233 H 0.89617 0.60722 0.83805 0.0
H234 H 0.86018 0.60685 0.86236 0.0
H235 H 0.85789 0.57641 0.79624 0.0
C236 C 0.77408 0.57745 0.9494 0.0
C237 C 0.75881 0.56696 0.87854 0.0
C238 C 0.79894 0.57227 -0.03032 0.0
C239 C 0.8092 0.55672 0.91944 0.0
C240 C 0.79347 0.54537 0.8493 0.0
H241 H 0.94432 0.49273 0.0155 0.0
H242 H 0.89658 0.49498 -0.01915 0.0
C243 C 0.76842 0.55039 0.82903 0.0
C244 C 0.83692 0.55322 0.94038 0.0
H245 H 0.91467 0.57942 0.90596 0.0
C246 C 0.83442 0.5343 -0.0028 0.0
C247 C 0.86623 0.56984 0.90733 0.0
C248 C 0.87057 0.59146 0.84796 0.0
C249 C 0.86048 0.53147 0.02171 0.0
C250 C 0.88969 0.54783 -0.0119 0.0
C251 C 0.89219 0.5668 0.9314 0.0
C252 C 0.91822 0.54613 0.01175 0.0
C253 C 0.8568 0.51164 0.08449 0.0
C254 C 0.94634 0.5742 0.04003 0.0
C255 C 0.97374 0.57305 0.05981 0.0
C256 C 0.97364 0.5438 0.05111 0.0
C257 C 0.94528 0.51566 0.02323 0.0
C258 C 0.91788 0.51684 0.00365 0.0
H259 H 0.83555 0.50677 0.11487 0.0
H260 H 0.85383 0.48817 0.06288 0.0
H261 H 0.87839 0.524 0.12327 0.0
H262 H 0.94713 0.59707 0.04649 0.0
H263 H 0.99513 0.59521 0.08081 0.0
H264 H 0.49131 0.92843 0.39509 0.0
H265 H 0.43715 0.88301 0.36688 0.0
H266 H 0.39861 0.94226 0.44282 0.0
H267 H 0.4529 0.98822 0.47032 0.0
H268 H 0.38325 0.85064 0.44814 0.0
H269 H 0.36177 0.91279 0.22936 0.0
H270 H 0.40106 0.92696 0.27212 0.0
H271 H 0.37301 0.93438 0.3189 0.0
C272 C 0.47139 0.93183 0.40684 0.0
C273 C 0.47656 0.9622 0.43423 0.0
C274 C 0.44038 0.90574 0.39067 0.0
C275 C 0.41385 0.90941 0.40124 0.0
C276 C 0.41879 0.93908 0.43282 0.0
H277 H 0.21286 0.77947 0.25364 0.0
H278 H 0.26307 0.82421 0.31193 0.0
C279 C 0.44986 0.96527 0.44912 0.0
C280 C 0.38131 0.88265 0.37519 0.0
H281 H 0.31958 0.8612 0.24811 0.0
C282 C 0.36924 0.85297 0.40468 0.0
C283 C 0.3631 0.88569 0.31823 0.0
C284 C 0.37539 0.91654 0.2822 0.0
C285 C 0.33944 0.82627 0.37881 0.0
C286 C 0.32151 0.82918 0.32099 0.0
C287 C 0.33333 0.85901 0.29244 0.0
C288 C 0.29083 0.80141 0.28782 0.0
C289 C 0.32731 0.79528 0.41407 0.0
C290 C 0.28977 0.77381 0.25414 0.0
C291 C 0.26112 0.74824 0.22037 0.0
C292 C 0.23294 0.74983 0.21903 0.0
C293 C 0.23414 0.77757 0.25278 0.0
C294 C 0.26279 0.8031 0.28656 0.0
H295 H 0.339 0.79953 0.46976 0.0
H296 H 0.30102 0.783 0.41795 0.0
H297 H 0.33277 0.77888 0.38034 0.0
H298 H 0.31126 0.77228 0.25273 0.0
H299 H 0.26122 0.72752 0.19391 0.0
H300 H 0.60369 0.4837 0.81125 0.0
H301 H 0.60601 0.43452 0.78296 0.0
H302 H 0.50923 0.38607 0.6867 0.0
H303 H 0.50677 0.43496 0.71378 0.0
H304 H 0.56837 0.37042 0.81882 0.0
H305 H 0.56 0.37764 0.5201 0.0
H306 H 0.56839 0.41081 0.58652 0.0
H307 H 0.52802 0.37808 0.56611 0.0
C308 C 0.58275 0.46245 0.78492 0.0
C309 C 0.55513 0.46339 0.76418 0.0
C310 C 0.58416 0.43439 0.76863 0.0
C311 C 0.55804 0.40687 0.73125 0.0
C312 C 0.52993 0.40726 0.71399 0.0
H313 H 0.51094 0.20916 0.66389 0.0
H314 H 0.51788 0.26129 0.70864 0.0
C315 C 0.52852 0.43523 0.72993 0.0
C316 C 0.56027 0.37797 0.70817 0.0
H317 H 0.55319 0.32847 0.55755 0.0
C318 C 0.5653 0.36135 0.7617 0.0
C319 C 0.55688 0.3665 0.6335 0.0
C320 C 0.55334 0.38434 0.57314 0.0
C321 C 0.56579 0.33286 0.74268 0.0
C322 C 0.56067 0.32047 0.66825 0.0
C323 C 0.55684 0.33778 0.61464 0.0
C324 C 0.55801 0.28904 0.64465 0.0
C325 C 0.57191 0.31638 0.80244 0.0
C326 C 0.57793 0.28713 0.59284 0.0
C327 C 0.57375 0.25722 0.56632 0.0
C328 C 0.54932 0.22858 0.59059 0.0
C329 C 0.52977 0.23068 0.6434 0.0
C330 C 0.53398 0.26054 0.66984 0.0
H331 H 0.58492 0.33349 0.85156 0.0
H332 H 0.54869 0.29708 0.81906 0.0
H333 H 0.58598 0.30524 0.7834 0.0
H334 H 0.59647 0.30878 0.57213 0.0
H335 H 0.58899 0.25648 0.52512 0.0
H336 H 0.05826 0.56106 0.82964 0.0
H337 H 0.07773 0.55981 0.70907 0.0
H338 H 0.11373 0.49962 0.77805 0.0
H339 H 0.09348 0.5 0.89846 0.0
H340 H 0.14134 0.5796 0.67385 0.0
H341 H 0.05637 0.44895 0.59201 0.0
H342 H 0.05021 0.46929 0.67056 0.0
H343 H 0.08239 0.46112 0.67402 0.0
C344 C 0.07011 0.54741 0.81892 0.0
C345 C 0.074 0.53031 0.87263 0.0
C346 C 0.08142 0.54689 0.75049 0.0
C347 C 0.09711 0.52961 0.73522 0.0
C348 C 0.10137 0.51275 0.7889 0.0
H349 H 0.13028 0.56717 0.27857 0.0
H350 H 0.14666 0.5572 0.39601 0.0
C351 C 0.08964 0.51289 0.85724 0.0
C352 C 0.10744 0.52871 0.66129 0.0
H353 H 0.07775 0.48266 0.49874 0.0
C354 C 0.12837 0.5583 0.63524 0.0
C355 C 0.09088 0.50058 0.61222 0.0
C356 C 0.06864 0.4681 0.6381 0.0
C357 C 0.12925 0.56154 0.56029 0.0
C358 C 0.10938 0.53407 0.51123 0.0
C359 C 0.09246 0.50363 0.53718 0.0
C360 C 0.09976 0.53744 0.43756 0.0
C361 C 0.14833 0.59481 0.53511 0.0
C362 C 0.06779 0.5288 0.42183 0.0
C363 C 0.05824 0.53396 0.35469 0.0
C364 C 0.0807 0.54836 0.30307 0.0
C365 C 0.11267 0.55675 0.31853 0.0
C366 C 0.12206 0.55095 0.38518 0.0
H367 H 0.16003 0.61386 0.58158 0.0
H368 H 0.16726 0.59591 0.50076 0.0
H369 H 0.13264 0.60028 0.50152 0.0
H370 H 0.05029 0.51852 0.4621 0.0
H371 H 1.03345 0.52704 0.34347 0.0
H372 H 0.52494 0.06958 0.21439 0.0
H373 H 0.52792 0.07842 0.08449 0.0
H374 H 0.55149 1.00398 0.04199 0.0
H375 H 0.54929 0.99558 0.17158 0.0
H376 H 0.59287 0.09572 0.03416 0.0
H377 H 0.49078 0.99547 0.86167 0.0
H378 H 0.48743 1.0073 0.95521 0.0
H379 H 0.50571 0.98342 0.93632 0.0
C380 C 0.52938 0.05421 0.17659 0.0
C381 C 0.53728 1.03219 0.202 0.0
C382 C 0.53111 0.05932 0.10289 0.0
C383 C 0.53987 0.04179 0.05471 0.0
C384 C 0.54434 1.01739 0.0789 0.0
H385 H 0.60408 1.02776 0.64803 0.0
H386 H 0.60033 1.0309 0.78015 0.0
C387 C 0.54324 1.01272 0.15256 0.0
C388 C 0.55102 0.0529 -0.01616 0.0
H389 H 0.53945 1.02586 0.80403 0.0
C390 C 0.58101 0.08098 -0.01675 0.0
C391 C 0.53539 1.03321 0.91878 0.0
C392 C 0.5029 1.00326 0.91759 0.0
C393 C 0.59681 0.08887 0.91879 0.0
C394 C 0.58182 0.0682 0.85444 0.0
C395 C 0.55104 0.04116 0.85445 0.0
C396 C 0.59683 0.07393 0.78504 0.0
C397 C 0.62983 0.11812 0.9203 0.0
C398 C 0.59856 0.09856 0.74627 0.0
C399 C 0.60082 0.09692 0.67105 0.0
C400 C 0.6007 0.07026 0.63454 0.0
C401 C 0.60339 0.04809 0.67498 0.0
C402 C 0.6015 0.04998 0.75026 0.0
H403 H 0.6402 0.12845 -0.02298 0.0
H404 H 0.64612 0.11192 0.89141 0.0
H405 H 0.62858 0.13689 0.89136 0.0
H406 H 0.59475 0.11706 0.77258 0.0
H407 H 0.59928 0.11468 0.64112 0.0
H408 H 0.62075 0.57251 0.55838 0.0
H409 H 0.62991 0.59571 0.44143 0.0
H410 H 0.52818 0.54437 0.3859 0.0
H411 H 0.5187 0.52166 0.50336 0.0
H412 H 0.61422 0.57111 0.29953 0.0
H413 H 0.55278 0.638 0.37294 0.0
H414 H 0.56467 0.61949 0.4394 0.0
H415 H 0.52763 0.59603 0.38381 0.0
C416 C 0.60037 0.56543 0.52039 0.0
C417 C 0.56895 0.54567 0.54005 0.0
C418 C 0.60566 0.57906 0.45421 0.0
C419 C 0.57962 0.57281 0.40722 0.0
C420 C 0.54845 0.55046 0.42335 0.0
H421 H 0.516 0.55155 -0.00168 0.0
H422 H 0.52629 0.56514 0.13026 0.0
C423 C 0.5431 0.5371 0.48968 0.0
C424 C 0.58462 0.58924 0.34057 0.0
H425 H 0.5543 0.6261 0.24175 0.0
C426 C 0.60206 0.58408 0.28737 0.0
C427 C 0.56931 0.60682 0.32615 0.0
C428 C 0.55288 0.61574 0.38408 0.0
C429 C 0.60148 0.59279 0.21679 0.0
C430 C 0.583 0.60695 0.20008 0.0
C431 C 0.56821 0.61502 0.25518 0.0
C432 C 0.5734 0.6066 0.12385 0.0
C433 C 0.6181 0.58404 0.15889 0.0
C434 C 0.59578 0.62678 0.07756 0.0
C435 C 0.59007 0.61898 0.00222 0.0
C436 C 0.56202 0.59082 -0.02692 0.0
C437 C 0.53807 0.57297 0.01945 0.0
C438 C 0.54377 0.58088 0.09467 0.0
H439 H 0.63058 0.57213 0.18094 0.0
H440 H 0.60047 0.5676 0.11384 0.0
H441 H 0.63598 0.60612 0.13528 0.0
H442 H 0.61869 0.64677 0.09976 0.0
H443 H 0.60871 0.63359 -0.03248 0.0
loop_
_geom_bond_atom_site_label_1
_geom_bond_atom_site_label_2
_geom_bond_distance
_geom_bond_site_symmetry_2
_ccdc_geom_bond_type
Eu0 C9 2.828 . S
Eu0 O11 2.392 1_655 S
Eu0 O13 2.418 . S
Eu0 O18 2.373 . S
Eu0 O21 2.488 . S
Eu0 O22 2.471 . S
Eu0 O23 2.349 1_655 S
Eu1 O10 2.373 . S
Eu1 O14 2.488 . S
Eu1 O15 2.471 . S
Eu1 O16 2.349 . S
Eu1 O19 2.392 1_455 S
Eu1 O20 2.418 . S
Eu1 C30 2.828 . S
C2 O20 1.244 . S
C2 O23 1.265 . S
C3 C4 1.379 . S
C3 C7 1.373 . S
C3 C9 1.505 . S
C4 C3 1.379 . S
C4 C6 1.369 . S
C4 H32 0.930 . S
C5 C7 1.383 . S
C5 C8 1.382 . S
C5 H33 0.930 . S
C6 C4 1.369 . S
C6 C8 1.392 . S
C6 H34 0.930 . S
C7 C3 1.373 . S
C7 C5 1.383 . S
C7 H35 0.931 . S
C8 C5 1.382 . S
C8 C6 1.392 . S
C9 Eu0 2.828 . S
C9 C3 1.505 . S
C9 O21 1.249 . S
C9 O22 1.244 . S
O10 Eu1 2.373 . S
O10 C12 1.258 . S
O11 Eu0 2.392 1_455 S
O11 C12 1.242 . S
C12 O10 1.258 . S
C12 O11 1.242 . S
O13 Eu0 2.418 . S
O13 C17 1.244 1_655 S
O14 Eu1 2.488 . S
O14 C30 1.249 . S
O15 Eu1 2.471 . S
O15 C30 1.244 . S
O16 Eu1 2.349 . S
O16 C17 1.265 . S
C17 O13 1.244 1_455 S
C17 O16 1.265 . S
O18 Eu0 2.373 . S
O18 C31 1.258 . S
O19 Eu1 2.392 1_655 S
O19 C31 1.242 . S
O20 Eu1 2.418 . S
O20 C2 1.244 . S
O21 Eu0 2.488 . S
O21 C9 1.249 . S
O22 Eu0 2.471 . S
O22 C9 1.244 . S
O23 Eu0 2.349 1_455 S
O23 C2 1.265 . S
C24 C25 1.379 . S
C24 C28 1.373 . S
C24 C30 1.505 . S
C25 C24 1.379 . S
C25 C27 1.369 . S
C25 H36 0.930 . S
C26 C28 1.383 . S
C26 C29 1.382 . S
C26 H37 0.930 . S
C27 C25 1.369 . S
C27 C29 1.392 . S
C27 H38 0.930 . S
C28 C24 1.373 . S
C28 C26 1.383 . S
C28 H39 0.931 . S
C29 C26 1.382 . S
C29 C27 1.392 . S
C30 Eu1 2.828 . S
C30 O14 1.249 . S
C30 O15 1.244 . S
C30 C24 1.505 . S
C31 O18 1.258 . S
C31 O19 1.242 . S
H32 C4 0.930 . S
H33 C5 0.930 . S
H34 C6 0.930 . S
H35 C7 0.931 . S
H36 C25 0.930 . S
H37 C26 0.930 . S
H38 C27 0.930 . S
H39 C28 0.931 . S
Eu40 C49 2.828 . S
Eu40 O51 2.392 1_565 S
Eu40 O53 2.418 . S
Eu40 O58 2.373 . S
Eu40 O61 2.488 . S
Eu40 O62 2.471 . S
Eu40 O63 2.349 1_565 S
Eu41 O50 2.373 . S
Eu41 O54 2.488 . S
Eu41 O55 2.471 . S
Eu41 O56 2.349 . S
Eu41 O59 2.392 1_545 S
Eu41 O60 2.418 . S
Eu41 C70 2.828 . S
C42 O60 1.244 . S
C42 O63 1.265 . S
C43 C44 1.379 . S
C43 C47 1.373 . S
C43 C49 1.505 . S
C44 C43 1.379 . S
C44 C46 1.369 . S
C44 H72 0.930 . S
C45 C47 1.383 . S
C45 C48 1.382 . S
C45 H73 0.930 . S
C46 C44 1.369 . S
C46 C48 1.392 . S
C46 H74 0.930 . S
C47 C43 1.373 . S
C47 C45 1.383 . S
C47 H75 0.931 . S
C48 C45 1.382 . S
C48 C46 1.392 . S
C49 Eu40 2.828 . S
C49 C43 1.505 . S
C49 O61 1.249 . S
C49 O62 1.244 . S
O50 Eu41 2.373 . S
O50 C52 1.258 . S
O51 Eu40 2.392 1_545 S
O51 C52 1.242 . S
C52 O50 1.258 . S
C52 O51 1.242 . S
O53 Eu40 2.418 . S
O53 C57 1.244 1_565 S
O54 Eu41 2.488 . S
O54 C70 1.249 . S
O55 Eu41 2.471 . S
O55 C70 1.244 . S
O56 Eu41 2.349 . S
O56 C57 1.265 . S
C57 O53 1.244 1_545 S
C57 O56 1.265 . S
O58 Eu40 2.373 . S
O58 C71 1.258 . S
O59 Eu41 2.392 1_565 S
O59 C71 1.242 . S
O60 Eu41 2.418 . S
O60 C42 1.244 . S
O61 Eu40 2.488 . S
O61 C49 1.249 . S
O62 Eu40 2.471 . S
O62 C49 1.244 . S
O63 Eu40 2.349 1_545 S
O63 C42 1.265 . S
C64 C65 1.379 . S
C64 C68 1.373 . S
C64 C70 1.505 . S
C65 C64 1.379 . S
C65 C67 1.369 . S
C65 H76 0.930 . S
C66 C68 1.383 . S
C66 C69 1.382 . S
C66 H77 0.930 . S
C67 C65 1.369 . S
C67 C69 1.392 . S
C67 H78 0.930 . S
C68 C64 1.373 . S
C68 C66 1.383 . S
C68 H79 0.931 . S
C69 C66 1.382 . S
C69 C67 1.392 . S
C70 Eu41 2.828 . S
C70 O54 1.249 . S
C70 O55 1.244 . S
C70 C64 1.505 . S
C71 O58 1.258 . S
C71 O59 1.242 . S
H72 C44 0.930 . S
H73 C45 0.930 . S
H74 C46 0.930 . S
H75 C47 0.931 . S
H76 C65 0.930 . S
H77 C66 0.930 . S
H78 C67 0.930 . S
H79 C68 0.931 . S
Eu80 C89 2.828 . S
Eu80 O91 2.392 . S
Eu80 O93 2.418 . S
Eu80 O98 2.373 . S
Eu80 O101 2.488 . S
Eu80 O102 2.471 . S
Eu80 O103 2.349 . S
Eu81 O90 2.373 . S
Eu81 O94 2.488 . S
Eu81 O95 2.471 . S
Eu81 O96 2.349 . S
Eu81 O99 2.392 . S
Eu81 O100 2.418 . S
Eu81 C110 2.828 . S
C82 O100 1.244 . S
C82 O103 1.265 . S
C83 C84 1.379 . S
C83 C87 1.373 . S
C83 C89 1.505 . S
C84 C83 1.379 . S
C84 C86 1.369 . S
C84 H112 0.930 . S
C85 C87 1.383 . S
C85 C88 1.382 . S
C85 H113 0.930 . S
C86 C84 1.369 . S
C86 C88 1.392 . S
C86 H114 0.930 . S
C87 C83 1.373 . S
C87 C85 1.383 . S
C87 H115 0.931 . S
C88 C85 1.382 . S
C88 C86 1.392 . S
C89 Eu80 2.828 . S
C89 C83 1.505 . S
C89 O101 1.249 . S
C89 O102 1.244 . S
O90 Eu81 2.373 . S
O90 C92 1.258 . S
O91 Eu80 2.392 . S
O91 C92 1.242 . S
C92 O90 1.258 . S
C92 O91 1.242 . S
O93 Eu80 2.418 . S
O93 C97 1.244 . S
O94 Eu81 2.488 . S
O94 C110 1.249 . S
O95 Eu81 2.471 . S
O95 C110 1.244 . S
O96 Eu81 2.349 . S
O96 C97 1.265 . S
C97 O93 1.244 . S
C97 O96 1.265 . S
O98 Eu80 2.373 . S
O98 C111 1.258 . S
O99 Eu81 2.392 . S
O99 C111 1.242 . S
O100 Eu81 2.418 . S
O100 C82 1.244 . S
O101 Eu80 2.488 . S
O101 C89 1.249 . S
O102 Eu80 2.471 . S
O102 C89 1.244 . S
O103 Eu80 2.349 . S
O103 C82 1.265 . S
C104 C105 1.379 . S
C104 C108 1.373 . S
C104 C110 1.505 . S
C105 C104 1.379 . S
C105 C107 1.369 . S
C105 H116 0.930 . S
C106 C108 1.383 . S
C106 C109 1.382 . S
C106 H117 0.930 . S
C107 C105 1.369 . S
C107 C109 1.392 . S
C107 H118 0.930 . S
C108 C104 1.373 . S
C108 C106 1.383 . S
C108 H119 0.931 . S
C109 C106 1.382 . S
C109 C107 1.392 . S
C110 Eu81 2.828 . S
C110 O94 1.249 . S
C110 O95 1.244 . S
C110 C104 1.505 . S
C111 O98 1.258 . S
C111 O99 1.242 . S
H112 C84 0.930 . S
H113 C85 0.930 . S
H114 C86 0.930 . S
H115 C87 0.931 . S
H116 C105 0.930 . S
H117 C106 0.930 . S
H118 C107 0.930 . S
H119 C108 0.931 . S
H120 C128 0.929 . S
H121 C130 0.930 . S
H122 C132 0.930 . S
H123 C135 0.929 . S
H124 C138 0.930 1_556 S
H125 C140 0.960 . S
H126 C140 0.960 . S
H127 C140 0.960 . S
C128 H120 0.929 . S
C128 C129 1.377 . S
C128 C130 1.384 . S
C129 C128 1.377 . S
C129 C135 1.390 . S
C130 H121 0.930 . S
C130 C128 1.384 . S
C130 C131 1.372 . S
C131 C130 1.372 . S
C131 C132 1.400 . S
C131 C136 1.490 . S
C132 H122 0.930 . S
C132 C131 1.400 . S
C132 C135 1.386 . S
H133 C149 0.930 . S
H134 C150 0.931 . S
C135 H123 0.929 . S
C135 C129 1.390 . S
C135 C132 1.386 . S
C136 C131 1.490 . S
C136 C138 1.395 . S
C136 C139 1.403 . S
H137 C143 0.930 . S
C138 H124 0.930 1_554 S
C138 C136 1.395 . S
C138 C141 1.403 1_554 S
C139 C136 1.403 . S
C139 C140 1.524 . S
C139 C143 1.400 . S
C140 H125 0.960 . S
C140 H126 0.960 . S
C140 H127 0.960 . S
C140 C139 1.524 . S
C141 C138 1.403 1_556 S
C141 C142 1.392 . S
C141 C145 1.495 . S
C142 C141 1.392 . S
C142 C143 1.385 1_556 S
C142 C144 1.478 . S
C143 H137 0.930 . S
C143 C139 1.400 . S
C143 C142 1.385 1_554 S
C144 C142 1.478 . S
C144 C146 1.381 . S
C144 C150 1.383 . S
C145 C141 1.495 . S
C145 H151 0.959 . S
C145 H152 0.961 . S
C145 H153 0.960 . S
C146 C144 1.381 . S
C146 C147 1.394 . S
C146 H154 0.930 1_556 S
C147 C146 1.394 . S
C147 C148 1.383 . S
C147 H155 0.929 . S
C148 C147 1.383 . S
C148 C149 1.377 . S
C149 H133 0.930 . S
C149 C148 1.377 . S
C149 C150 1.379 . S
C150 H134 0.931 . S
C150 C144 1.383 . S
C150 C149 1.379 . S
H151 C145 0.959 . S
H152 C145 0.961 . S
H153 C145 0.960 . S
H154 C146 0.930 1_554 S
H155 C147 0.929 . S
H156 C164 0.929 . S
H157 C166 0.930 . S
H158 C168 0.930 . S
H159 C171 0.929 . S
H160 C174 0.930 . S
H161 C176 0.960 . S
H162 C176 0.960 . S
H163 C176 0.960 . S
C164 H156 0.929 . S
C164 C165 1.377 . S
C164 C166 1.384 . S
C165 C164 1.377 . S
C165 C171 1.390 . S
C166 H157 0.930 . S
C166 C164 1.384 . S
C166 C167 1.372 . S
C167 C166 1.372 . S
C167 C168 1.400 . S
C167 C172 1.490 . S
C168 H158 0.930 . S
C168 C167 1.400 . S
C168 C171 1.386 . S
H169 C185 0.930 . S
H170 C186 0.931 . S
C171 H159 0.929 . S
C171 C165 1.390 . S
C171 C168 1.386 . S
C172 C167 1.490 . S
C172 C174 1.395 . S
C172 C175 1.403 . S
H173 C179 0.930 . S
C174 H160 0.930 . S
C174 C172 1.395 . S
C174 C177 1.403 . S
C175 C172 1.403 . S
C175 C176 1.524 . S
C175 C179 1.400 . S
C176 H161 0.960 . S
C176 H162 0.960 . S
C176 H163 0.960 . S
C176 C175 1.524 . S
C177 C174 1.403 . S
C177 C178 1.392 . S
C177 C181 1.495 . S
C178 C177 1.392 . S
C178 C179 1.385 . S
C178 C180 1.478 . S
C179 H173 0.930 . S
C179 C175 1.400 . S
C179 C178 1.385 . S
C180 C178 1.478 . S
C180 C182 1.381 . S
C180 C186 1.383 . S
C181 C177 1.495 . S
C181 H187 0.959 . S
C181 H188 0.961 . S
C181 H189 0.960 . S
C182 C180 1.381 . S
C182 C183 1.394 . S
C182 H190 0.930 . S
C183 C182 1.394 . S
C183 C184 1.383 . S
C183 H191 0.929 . S
C184 C183 1.383 . S
C184 C185 1.377 . S
C185 H169 0.930 . S
C185 C184 1.377 . S
C185 C186 1.379 . S
C186 H170 0.931 . S
C186 C180 1.383 . S
C186 C185 1.379 . S
H187 C181 0.959 . S
H188 C181 0.961 . S
H189 C181 0.960 . S
H190 C182 0.930 . S
H191 C183 0.929 . S
H192 C200 0.929 . S
H193 C202 0.930 . S
H194 C204 0.930 . S
H195 C207 0.929 . S
H196 C210 0.930 . S
H197 C212 0.960 . S
H198 C212 0.960 . S
H199 C212 0.960 . S
C200 H192 0.929 . S
C200 C201 1.377 . S
C200 C202 1.384 . S
C201 C200 1.377 . S
C201 C207 1.390 . S
C202 H193 0.930 . S
C202 C200 1.384 . S
C202 C203 1.372 . S
C203 C202 1.372 . S
C203 C204 1.400 . S
C203 C208 1.490 . S
C204 H194 0.930 . S
C204 C203 1.400 . S
C204 C207 1.386 . S
H205 C221 0.930 . S
H206 C222 0.931 . S
C207 H195 0.929 . S
C207 C201 1.390 . S
C207 C204 1.386 . S
C208 C203 1.490 . S
C208 C210 1.395 . S
C208 C211 1.403 . S
H209 C215 0.930 . S
C210 H196 0.930 . S
C210 C208 1.395 . S
C210 C213 1.403 . S
C211 C208 1.403 . S
C211 C212 1.524 . S
C211 C215 1.400 . S
C212 H197 0.960 . S
C212 H198 0.960 . S
C212 H199 0.960 . S
C212 C211 1.524 . S
C213 C210 1.403 . S
C213 C214 1.392 . S
C213 C217 1.495 . S
C214 C213 1.392 . S
C214 C215 1.385 . S
C214 C216 1.478 . S
C215 H209 0.930 . S
C215 C211 1.400 . S
C215 C214 1.385 . S
C216 C214 1.478 . S
C216 C218 1.381 . S
C216 C222 1.383 . S
C217 C213 1.495 . S
C217 H223 0.959 . S
C217 H224 0.961 . S
C217 H225 0.960 . S
C218 C216 1.381 . S
C218 C219 1.394 . S
C218 H226 0.930 . S
C219 C218 1.394 . S
C219 C220 1.383 . S
C219 H227 0.929 . S
C220 C219 1.383 . S
C220 C221 1.377 . S
C221 H205 0.930 . S
C221 C220 1.377 . S
C221 C222 1.379 . S
C222 H206 0.931 . S
C222 C216 1.383 . S
C222 C221 1.379 . S
H223 C217 0.959 . S
H224 C217 0.961 . S
H225 C217 0.960 . S
H226 C218 0.930 . S
H227 C219 0.929 . S
H228 C236 0.929 . S
H229 C238 0.930 1_554 S
H230 C240 0.930 . S
H231 C243 0.929 . S
H232 C246 0.930 . S
H233 C248 0.960 . S
H234 C248 0.960 . S
H235 C248 0.960 . S
C236 H228 0.929 . S
C236 C237 1.377 . S
C236 C238 1.384 . S
C237 C236 1.377 . S
C237 C243 1.390 . S
C238 H229 0.930 1_556 S
C238 C236 1.384 . S
C238 C239 1.372 . S
C239 C238 1.372 . S
C239 C240 1.400 . S
C239 C244 1.490 . S
C240 H230 0.930 . S
C240 C239 1.400 . S
C240 C243 1.386 . S
H241 C257 0.930 . S
H242 C258 0.931 1_556 S
C243 H231 0.929 . S
C243 C237 1.390 . S
C243 C240 1.386 . S
C244 C239 1.490 . S
C244 C246 1.395 1_556 S
C244 C247 1.403 . S
H245 C251 0.930 . S
C246 H232 0.930 . S
C246 C244 1.395 1_554 S
C246 C249 1.403 . S
C247 C244 1.403 . S
C247 C248 1.524 . S
C247 C251 1.400 . S
C248 H233 0.960 . S
C248 H234 0.960 . S
C248 H235 0.960 . S
C248 C247 1.524 . S
C249 C246 1.403 . S
C249 C250 1.392 . S
C249 C253 1.495 . S
C250 C249 1.392 . S
C250 C251 1.385 1_554 S
C250 C252 1.478 . S
C251 H245 0.930 . S
C251 C247 1.400 . S
C251 C250 1.385 1_556 S
C252 C250 1.478 . S
C252 C254 1.381 . S
C252 C258 1.383 . S
C253 C249 1.495 . S
C253 H259 0.959 . S
C253 H260 0.961 . S
C253 H261 0.960 . S
C254 C252 1.381 . S
C254 C255 1.394 . S
C254 H262 0.930 . S
C255 C254 1.394 . S
C255 C256 1.383 . S
C255 H263 0.929 . S
C256 C255 1.383 . S
C256 C257 1.377 . S
C257 H241 0.930 . S
C257 C256 1.377 . S
C257 C258 1.379 . S
C258 H242 0.931 1_554 S
C258 C252 1.383 . S
C258 C257 1.379 . S
H259 C253 0.959 . S
H260 C253 0.961 . S
H261 C253 0.960 . S
H262 C254 0.930 . S
H263 C255 0.929 . S
H264 C272 0.929 . S
H265 C274 0.930 . S
H266 C276 0.930 . S
H267 C279 0.929 . S
H268 C282 0.930 . S
H269 C284 0.960 . S
H270 C284 0.960 . S
H271 C284 0.960 . S
C272 H264 0.929 . S
C272 C273 1.377 . S
C272 C274 1.384 . S
C273 C272 1.377 . S
C273 C279 1.390 . S
C274 H265 0.930 . S
C274 C272 1.384 . S
C274 C275 1.372 . S
C275 C274 1.372 . S
C275 C276 1.400 . S
C275 C280 1.490 . S
C276 H266 0.930 . S
C276 C275 1.400 . S
C276 C279 1.386 . S
H277 C293 0.930 . S
H278 C294 0.931 . S
C279 H267 0.929 . S
C279 C273 1.390 . S
C279 C276 1.386 . S
C280 C275 1.490 . S
C280 C282 1.395 . S
C280 C283 1.403 . S
H281 C287 0.930 . S
C282 H268 0.930 . S
C282 C280 1.395 . S
C282 C285 1.403 . S
C283 C280 1.403 . S
C283 C284 1.524 . S
C283 C287 1.400 . S
C284 H269 0.960 . S
C284 H270 0.960 . S
C284 H271 0.960 . S
C284 C283 1.524 . S
C285 C282 1.403 . S
C285 C286 1.392 . S
C285 C289 1.495 . S
C286 C285 1.392 . S
C286 C287 1.385 . S
C286 C288 1.478 . S
C287 H281 0.930 . S
C287 C283 1.400 . S
C287 C286 1.385 . S
C288 C286 1.478 . S
C288 C290 1.381 . S
C288 C294 1.383 . S
C289 C285 1.495 . S
C289 H295 0.959 . S
C289 H296 0.961 . S
C289 H297 0.960 . S
C290 C288 1.381 . S
C290 C291 1.394 . S
C290 H298 0.930 . S
C291 C290 1.394 . S
C291 C292 1.383 . S
C291 H299 0.929 . S
C292 C291 1.383 . S
C292 C293 1.377 . S
C293 H277 0.930 . S
C293 C292 1.377 . S
C293 C294 1.379 . S
C294 H278 0.931 . S
C294 C288 1.383 . S
C294 C293 1.379 . S
H295 C289 0.959 . S
H296 C289 0.961 . S
H297 C289 0.960 . S
H298 C290 0.930 . S
H299 C291 0.929 . S
H300 C308 0.929 . S
H301 C310 0.930 . S
H302 C312 0.930 . S
H303 C315 0.929 . S
H304 C318 0.930 . S
H305 C320 0.960 . S
H306 C320 0.960 . S
H307 C320 0.960 . S
C308 H300 0.929 . S
C308 C309 1.377 . S
C308 C310 1.384 . S
C309 C308 1.377 . S
C309 C315 1.390 . S
C310 H301 0.930 . S
C310 C308 1.384 . S
C310 C311 1.372 . S
C311 C310 1.372 . S
C311 C312 1.400 . S
C311 C316 1.490 . S
C312 H302 0.930 . S
C312 C311 1.400 . S
C312 C315 1.386 . S
H313 C329 0.930 . S
H314 C330 0.931 . S
C315 H303 0.929 . S
C315 C309 1.390 . S
C315 C312 1.386 . S
C316 C311 1.490 . S
C316 C318 1.395 . S
C316 C319 1.403 . S
H317 C323 0.930 . S
C318 H304 0.930 . S
C318 C316 1.395 . S
C318 C321 1.403 . S
C319 C316 1.403 . S
C319 C320 1.524 . S
C319 C323 1.400 . S
C320 H305 0.960 . S
C320 H306 0.960 . S
C320 H307 0.960 . S
C320 C319 1.524 . S
C321 C318 1.403 . S
C321 C322 1.392 . S
C321 C325 1.495 . S
C322 C321 1.392 . S
C322 C323 1.385 . S
C322 C324 1.478 . S
C323 H317 0.930 . S
C323 C319 1.400 . S
C323 C322 1.385 . S
C324 C322 1.478 . S
C324 C326 1.381 . S
C324 C330 1.383 . S
C325 C321 1.495 . S
C325 H331 0.959 . S
C325 H332 0.961 . S
C325 H333 0.960 . S
C326 C324 1.381 . S
C326 C327 1.394 . S
C326 H334 0.930 . S
C327 C326 1.394 . S
C327 C328 1.383 . S
C327 H335 0.929 . S
C328 C327 1.383 . S
C328 C329 1.377 . S
C329 H313 0.930 . S
C329 C328 1.377 . S
C329 C330 1.379 . S
C330 H314 0.931 . S
C330 C324 1.383 . S
C330 C329 1.379 . S
H331 C325 0.959 . S
H332 C325 0.961 . S
H333 C325 0.960 . S
H334 C326 0.930 . S
H335 C327 0.929 . S
H336 C344 0.929 . S
H337 C346 0.930 . S
H338 C348 0.930 . S
H339 C351 0.929 . S
H340 C354 0.930 . S
H341 C356 0.960 . S
H342 C356 0.960 . S
H343 C356 0.960 . S
C344 H336 0.929 . S
C344 C345 1.377 1_556 S
C344 C346 1.384 . S
C345 C344 1.377 1_554 S
C345 C351 1.390 1_554 S
C346 H337 0.930 . S
C346 C344 1.384 . S
C346 C347 1.372 . S
C347 C346 1.372 . S
C347 C348 1.400 . S
C347 C352 1.490 . S
C348 H338 0.930 . S
C348 C347 1.400 . S
C348 C351 1.386 . S
H349 C365 0.930 . S
H350 C366 0.931 . S
C351 H339 0.929 . S
C351 C345 1.390 1_556 S
C351 C348 1.386 . S
C352 C347 1.490 . S
C352 C354 1.395 . S
C352 C355 1.403 1_455 S
H353 C359 0.930 1_655 S
C354 H340 0.930 . S
C354 C352 1.395 . S
C354 C357 1.403 . S
C355 C352 1.403 1_655 S
C355 C356 1.524 . S
C355 C359 1.400 1_655 S
C356 H341 0.960 . S
C356 H342 0.960 . S
C356 H343 0.960 . S
C356 C355 1.524 . S
C357 C354 1.403 . S
C357 C358 1.392 . S
C357 C361 1.495 . S
C358 C357 1.392 . S
C358 C359 1.385 . S
C358 C360 1.478 . S
C359 H353 0.930 1_455 S
C359 C355 1.400 1_455 S
C359 C358 1.385 . S
C360 C358 1.478 . S
C360 C362 1.381 . S
C360 C366 1.383 . S
C361 C357 1.495 . S
C361 H367 0.959 . S
C361 H368 0.961 . S
C361 H369 0.960 . S
C362 C360 1.381 . S
C362 C363 1.394 . S
C362 H370 0.930 . S
C363 C362 1.394 . S
C363 C364 1.383 . S
C363 H371 0.929 1_455 S
C364 C363 1.383 . S
C364 C365 1.377 . S
C365 H349 0.930 . S
C365 C364 1.377 . S
C365 C366 1.379 . S
C366 H350 0.931 . S
C366 C360 1.383 . S
C366 C365 1.379 . S
H367 C361 0.959 . S
H368 C361 0.961 . S
H369 C361 0.960 . S
H370 C362 0.930 . S
H371 C363 0.929 1_655 S
H372 C380 0.929 . S
H373 C382 0.930 . S
H374 C384 0.930 . S
H375 C387 0.929 . S
H376 C390 0.930 . S
H377 C392 0.960 . S
H378 C392 0.960 . S
H379 C392 0.960 . S
C380 H372 0.929 . S
C380 C381 1.377 . S
C380 C382 1.384 . S
C381 C380 1.377 . S
C381 C387 1.390 1_545 S
C382 H373 0.930 . S
C382 C380 1.384 . S
C382 C383 1.372 . S
C383 C382 1.372 . S
C383 C384 1.400 1_545 S
C383 C388 1.490 . S
C384 H374 0.930 . S
C384 C383 1.400 1_565 S
C384 C387 1.386 . S
H385 C401 0.930 1_565 S
H386 C402 0.931 1_565 S
C387 H375 0.929 . S
C387 C381 1.390 1_565 S
C387 C384 1.386 . S
C388 C383 1.490 . S
C388 C390 1.395 . S
C388 C391 1.403 1_545 S
H389 C395 0.930 . S
C390 H376 0.930 . S
C390 C388 1.395 . S
C390 C393 1.403 1_554 S
C391 C388 1.403 1_565 S
C391 C392 1.524 . S
C391 C395 1.400 1_554 S
C392 H377 0.960 . S
C392 H378 0.960 . S
C392 H379 0.960 . S
C392 C391 1.524 . S
C393 C390 1.403 1_556 S
C393 C394 1.392 . S
C393 C397 1.495 . S
C394 C393 1.392 . S
C394 C395 1.385 1_545 S
C394 C396 1.478 . S
C395 H389 0.930 . S
C395 C391 1.400 1_556 S
C395 C394 1.385 1_565 S
C396 C394 1.478 . S
C396 C398 1.381 . S
C396 C402 1.383 . S
C397 C393 1.495 . S
C397 H403 0.959 . S
C397 H404 0.961 . S
C397 H405 0.960 . S
C398 C396 1.381 . S
C398 C399 1.394 . S
C398 H406 0.930 . S
C399 C398 1.394 . S
C399 C400 1.383 . S
C399 H407 0.929 . S
C400 C399 1.383 . S
C400 C401 1.377 . S
C401 H385 0.930 1_545 S
C401 C400 1.377 . S
C401 C402 1.379 . S
C402 H386 0.931 1_545 S
C402 C396 1.383 . S
C402 C401 1.379 . S
H403 C397 0.959 . S
H404 C397 0.961 . S
H405 C397 0.960 . S
H406 C398 0.930 . S
H407 C399 0.929 . S
H408 C416 0.929 . S
H409 C418 0.930 . S
H410 C420 0.930 . S
H411 C423 0.929 . S
H412 C426 0.930 . S
H413 C428 0.960 . S
H414 C428 0.960 . S
H415 C428 0.960 . S
C416 H408 0.929 . S
C416 C417 1.377 . S
C416 C418 1.384 . S
C417 C416 1.377 . S
C417 C423 1.390 . S
C418 H409 0.930 . S
C418 C416 1.384 . S
C418 C419 1.372 . S
C419 C418 1.372 . S
C419 C420 1.400 . S
C419 C424 1.490 . S
C420 H410 0.930 . S
C420 C419 1.400 . S
C420 C423 1.386 . S
H421 C437 0.930 . S
H422 C438 0.931 . S
C423 H411 0.929 . S
C423 C417 1.390 . S
C423 C420 1.386 . S
C424 C419 1.490 . S
C424 C426 1.395 . S
C424 C427 1.403 . S
H425 C431 0.930 . S
C426 H412 0.930 . S
C426 C424 1.395 . S
C426 C429 1.403 . S
C427 C424 1.403 . S
C427 C428 1.524 . S
C427 C431 1.400 . S
C428 H413 0.960 . S
C428 H414 0.960 . S
C428 H415 0.960 . S
C428 C427 1.524 . S
C429 C426 1.403 . S
C429 C430 1.392 . S
C429 C433 1.495 . S
C430 C429 1.392 . S
C430 C431 1.385 . S
C430 C432 1.478 . S
C431 H425 0.930 . S
C431 C427 1.400 . S
C431 C430 1.385 . S
C432 C430 1.478 . S
C432 C434 1.381 . S
C432 C438 1.383 . S
C433 C429 1.495 . S
C433 H439 0.959 . S
C433 H440 0.961 . S
C433 H441 0.960 . S
C434 C432 1.381 . S
C434 C435 1.394 . S
C434 H442 0.930 . S
C435 C434 1.394 . S
C435 C436 1.383 1_554 S
C435 H443 0.929 . S
C436 C435 1.383 1_556 S
C436 C437 1.377 1_556 S
C437 H421 0.930 . S
C437 C436 1.377 1_554 S
C437 C438 1.379 . S
C438 H422 0.931 . S
C438 C432 1.383 . S
C438 C437 1.379 . S
H439 C433 0.959 . S
H440 C433 0.961 . S
H441 C433 0.960 . S
H442 C434 0.930 . S
H443 C435 0.929 . S
C129 C12 2.072 . S
C148 C88 2.069 . S
C165 C52 2.165 . S
C184 C8 2.169 . S
C201 C48 2.065 . S
C220 C111 2.065 . S
C237 C109 2.087 . S
C256 C31 2.140 . S
C273 C71 2.026 . S
C292 C29 1.988 . S
C309 C92 2.150 . S
C328 C69 2.108 . S
C345 C17 0.361 . S
C364 C2 0.273 . S
C381 C57 0.398 . S
C400 C42 0.379 . S
C417 C97 0.389 . S
C436 C82 0.335 . S
