# Generated by pormake.
# Topology etb, (3)-cn, num edge types: 1
# Building blocks:
#     Node 0, Type 0, BuildingBlock: WUSLED_clean_sbu_0, # of connection points: 3
#     Node 1, Type 0, BuildingBlock: WUSLED_clean_sbu_0, # of connection points: 3
#     Node 2, Type 0, BuildingBlock: WUSLED_clean_sbu_0, # of connection points: 3
#     Node 3, Type 0, BuildingBlock: WUSLED_clean_sbu_0, # of connection points: 3
#     Node 4, Type 0, BuildingBlock: WUSLED_clean_sbu_0, # of connection points: 3
#     Node 5, Type 0, BuildingBlock: WUSLED_clean_sbu_0, # of connection points: 3
#     Node 6, Type 0, BuildingBlock: WUSLED_clean_sbu_0, # of connection points: 3
#     Node 7, Type 0, BuildingBlock: WUSLED_clean_sbu_0, # of connection points: 3
#     Node 8, Type 0, BuildingBlock: WUSLED_clean_sbu_0, # of connection points: 3
#     Node 9, Type 0, BuildingBlock: WUSLED_clean_sbu_0, # of connection points: 3
#     Node 10, Type 0, BuildingBlock: WUSLED_clean_sbu_0, # of connection points: 3
#     Node 11, Type 0, BuildingBlock: WUSLED_clean_sbu_0, # of connection points: 3
#     Node 12, Type 0, BuildingBlock: WUSLED_clean_sbu_0, # of connection points: 3
#     Node 13, Type 0, BuildingBlock: WUSLED_clean_sbu_0, # of connection points: 3
#     Node 14, Type 0, BuildingBlock: WUSLED_clean_sbu_0, # of connection points: 3
#     Node 15, Type 0, BuildingBlock: WUSLED_clean_sbu_0, # of connection points: 3
#     Node 16, Type 0, BuildingBlock: WUSLED_clean_sbu_0, # of connection points: 3
#     Node 17, Type 0, BuildingBlock: WUSLED_clean_sbu_0, # of connection points: 3
#     Edge 18, Type (0, 0), BuildingBlock: UVAHIK_clean_linker_0, # of connection points: 2
#     Edge 19, Type (0, 0), BuildingBlock: UVAHIK_clean_linker_0, # of connection points: 2
#     Edge 20, Type (0, 0), BuildingBlock: UVAHIK_clean_linker_0, # of connection points: 2
#     Edge 21, Type (0, 0), BuildingBlock: UVAHIK_clean_linker_0, # of connection points: 2
#     Edge 22, Type (0, 0), BuildingBlock: UVAHIK_clean_linker_0, # of connection points: 2
#     Edge 23, Type (0, 0), BuildingBlock: UVAHIK_clean_linker_0, # of connection points: 2
#     Edge 24, Type (0, 0), BuildingBlock: UVAHIK_clean_linker_0, # of connection points: 2
#     Edge 25, Type (0, 0), BuildingBlock: UVAHIK_clean_linker_0, # of connection points: 2
#     Edge 26, Type (0, 0), BuildingBlock: UVAHIK_clean_linker_0, # of connection points: 2
#     Edge 27, Type (0, 0), BuildingBlock: UVAHIK_clean_linker_0, # of connection points: 2
#     Edge 28, Type (0, 0), BuildingBlock: UVAHIK_clean_linker_0, # of connection points: 2
#     Edge 29, Type (0, 0), BuildingBlock: UVAHIK_clean_linker_0, # of connection points: 2
#     Edge 30, Type (0, 0), BuildingBlock: UVAHIK_clean_linker_0, # of connection points: 2
#     Edge 31, Type (0, 0), BuildingBlock: UVAHIK_clean_linker_0, # of connection points: 2
#     Edge 32, Type (0, 0), BuildingBlock: UVAHIK_clean_linker_0, # of connection points: 2
#     Edge 33, Type (0, 0), BuildingBlock: UVAHIK_clean_linker_0, # of connection points: 2
#     Edge 34, Type (0, 0), BuildingBlock: UVAHIK_clean_linker_0, # of connection points: 2
#     Edge 35, Type (0, 0), BuildingBlock: UVAHIK_clean_linker_0, # of connection points: 2
#     Edge 36, Type (0, 0), BuildingBlock: UVAHIK_clean_linker_0, # of connection points: 2
#     Edge 37, Type (0, 0), BuildingBlock: UVAHIK_clean_linker_0, # of connection points: 2
#     Edge 38, Type (0, 0), BuildingBlock: UVAHIK_clean_linker_0, # of connection points: 2
#     Edge 39, Type (0, 0), BuildingBlock: UVAHIK_clean_linker_0, # of connection points: 2
#     Edge 40, Type (0, 0), BuildingBlock: UVAHIK_clean_linker_0, # of connection points: 2
#     Edge 41, Type (0, 0), BuildingBlock: UVAHIK_clean_linker_0, # of connection points: 2
#     Edge 42, Type (0, 0), BuildingBlock: UVAHIK_clean_linker_0, # of connection points: 2
#     Edge 43, Type (0, 0), BuildingBlock: UVAHIK_clean_linker_0, # of connection points: 2
#     Edge 44, Type (0, 0), BuildingBlock: UVAHIK_clean_linker_0, # of connection points: 2
# Relax obj value: 0.000
# Max RMSD: 0.009
# Mean RMSD: 0.006
data_MOF--net-etb--node1-WUSLED_clean_sbu_0--edge1-UVAHIK_clean_linker_0
_symmetry_space_group_name_H-M    P1
_symmetry_Int_Tables_number       1
_symmetry_cell_setting            triclinic
loop_
_symmetry_equiv_pos_as_xyz
'x, y, z'
_cell_length_a     140.7641
_cell_length_b     140.6144
_cell_length_c     66.244768
_cell_angle_alpha  89.790249
_cell_angle_beta   90.274761
_cell_angle_gamma 120.01928
loop_
_atom_site_label
_atom_site_type_symbol
_atom_site_fract_x
_atom_site_fract_y
_atom_site_fract_z
_atom_type_partial_charge
C0 C 0.4696 0.01711 0.08174 0.0
C1 C 0.45864 0.00892 0.07824 0.0
C2 C 0.45373 0.01058 0.11289 0.0
C3 C 0.45081 1.00568 0.09366 0.0
C4 C 0.46467 0.01888 0.11621 0.0
C5 C 0.47249 0.02206 0.10085 0.0
U6 U 0.48234 0.02725 0.02871 0.0
O7 O 0.49955 0.03876 0.02054 0.0
O8 O 0.4915 0.02173 1.00985 0.0
C9 C 0.50065 0.03125 1.0108 0.0
C10 C 0.47828 0.0202 0.06628 0.0
C11 C 0.51083 0.03092 0.01476 0.0
C12 C 0.52167 0.02499 0.03427 0.0
C13 C 0.51195 0.02535 0.03142 0.0
C14 C 0.52922 0.03581 1.00396 0.0
C15 C 0.53045 0.03022 0.02054 0.0
C16 C 0.51954 0.03615 1.00113 0.0
C17 C 0.46628 0.03403 0.98857 0.0
C18 C 0.47137 0.04797 0.96231 0.0
C19 C 0.4543 0.03075 0.95956 0.0
C20 C 0.4566 0.02723 0.97779 0.0
C21 C 0.46159 0.04121 0.95165 0.0
C22 C 0.4737 0.04442 0.98054 0.0
C23 C 0.46793 0.0304 1.00872 0.0
O24 O 0.47591 0.01365 0.05063 0.0
O25 O 0.48393 0.03067 0.06142 0.0
O26 O 0.47559 0.03787 0.02041 0.0
O27 O 0.46754 0.02087 1.00951 0.0
H28 H 0.45611 1.00493 0.06368 0.0
H29 H 0.44244 0.99937 0.09048 0.0
H30 H 0.46728 0.02274 0.13086 0.0
H31 H 0.4809 0.02831 0.10403 0.0
H32 H 0.52234 0.0207 0.04732 0.0
H33 H 0.50532 0.02126 0.04215 0.0
H34 H 0.53568 0.03977 0.99288 0.0
H35 H 0.51883 0.04044 0.98811 0.0
H36 H 0.47724 0.05602 0.95656 0.0
H37 H 0.44662 0.02537 0.95197 0.0
H38 H 0.45067 0.01925 0.98373 0.0
H39 H 0.48124 0.04989 0.98846 0.0
C40 C 0.06688 0.41394 0.97233 0.0
C41 C 0.07295 0.40866 0.96868 0.0
C42 C 0.06065 0.39827 0.94084 0.0
C43 C 0.06987 0.4009 0.9531 0.0
C44 C 0.0545 0.40342 0.94491 0.0
C45 C 0.05759 0.41116 0.96042 0.0
U46 U 0.0779 0.42715 0.02491 0.0
O47 O 0.08901 0.44454 0.03255 0.0
O48 O 0.07219 0.43602 0.04416 0.0
C49 C 0.08137 0.44545 0.04227 0.0
C50 C 0.07023 0.42267 0.98773 0.0
C51 C 0.08033 0.45531 0.03799 0.0
C52 C 0.08805 0.47411 0.0255 0.0
C53 C 0.08854 0.46443 0.02748 0.0
C54 C 0.07106 0.46577 0.04424 0.0
C55 C 0.07937 0.47498 0.0341 0.0
C56 C 0.07156 0.4561 0.04623 0.0
C57 C 0.08548 0.41154 0.06467 0.0
C58 C 0.09789 0.41829 0.0936 0.0
C59 C 0.08441 0.39896 0.0911 0.0
C60 C 0.08065 0.40092 0.07284 0.0
C61 C 0.09314 0.40759 0.1017 0.0
C62 C 0.09409 0.42025 0.07529 0.0
C63 C 0.08167 0.41308 0.04469 0.0
O64 O 0.0639 0.42019 1.00368 0.0
O65 O 0.08075 0.42847 0.99211 0.0
O66 O 0.08897 0.4209 0.03305 0.0
O67 O 0.07204 0.41246 0.04422 0.0
H68 H 0.08016 0.41063 0.97765 0.0
H69 H 0.07486 0.39718 0.95035 0.0
H70 H 0.04724 0.40147 0.93612 0.0
H71 H 0.05276 0.4151 0.96297 0.0
H72 H 0.09467 0.48106 0.01781 0.0
H73 H 0.09552 0.46421 0.0212 0.0
H74 H 0.06417 0.46603 0.05081 0.0
H75 H 0.06516 0.44931 0.05462 0.0
H76 H 0.10454 0.42516 0.10144 0.0
H77 H 0.08064 0.3906 0.09664 0.0
H78 H 0.07405 0.39406 0.06486 0.0
H79 H 0.09794 0.42854 0.06936 0.0
C80 C 0.68273 0.63871 0.07784 0.0
C81 C 0.68851 0.64999 0.07328 0.0
C82 C 0.6921 0.65451 0.10918 0.0
C83 C 0.69315 0.65781 0.0888 0.0
C84 C 0.68653 0.64318 0.11353 0.0
C85 C 0.6819 0.6354 0.09806 0.0
U86 U 0.67957 0.62594 0.02454 0.0
O87 O 0.67288 0.60857 0.01637 0.0
O88 O 0.66466 0.61742 1.00566 0.0
C89 C 0.66432 0.60792 1.00699 0.0
C90 C 0.67699 0.63023 0.06212 0.0
C91 C 0.65344 0.59819 1.01135 0.0
C92 C 0.64132 0.58215 0.03166 0.0
C93 C 0.65147 0.59177 0.02884 0.0
C94 C 0.63487 0.58534 0.99984 0.0
C95 C 0.6329 0.57876 0.01712 0.0
C96 C 0.64501 0.5949 0.997 0.0
C97 C 0.70249 0.64122 0.9844 0.0
C98 C 0.70936 0.63487 0.95684 0.0
C99 C 0.71286 0.65356 0.95684 0.0
C100 C 0.70712 0.65154 0.975 0.0
C101 C 0.71418 0.64529 0.94759 0.0
C102 C 0.70356 0.63284 0.97503 0.0
C103 C 0.69734 0.63975 1.00452 0.0
O104 O 0.67315 0.63302 0.04645 0.0
O105 O 0.68143 0.62426 0.05726 0.0
O106 O 0.69673 0.63183 0.01606 0.0
O107 O 0.68851 0.64067 1.00535 0.0
H108 H 0.68928 0.65278 0.0578 0.0
H109 H 0.6973 0.66644 0.08483 0.0
H110 H 0.68573 0.64029 0.12894 0.0
H111 H 0.6775 0.62676 0.10194 0.0
H112 H 0.64006 0.57738 0.04527 0.0
H113 H 0.6578 0.59409 0.04021 0.0
H114 H 0.62868 0.58295 0.98817 0.0
H115 H 0.64634 0.59965 0.98332 0.0
H116 H 0.71007 0.62826 0.95005 0.0
H117 H 0.71657 0.66172 0.95037 0.0
H118 H 0.70649 0.65816 0.98199 0.0
H119 H 0.70008 0.62478 0.98188 0.0
C120 C 0.69022 0.03841 0.97214 0.0
C121 C 0.70046 0.03925 0.97569 0.0
C122 C 0.70597 0.04523 0.94082 0.0
C123 C 0.70826 0.04261 0.96016 0.0
C124 C 0.69563 0.04423 0.93742 0.0
C125 C 0.68787 0.04088 0.9529 0.0
U126 U 0.67818 0.02709 0.02511 0.0
O127 O 0.66938 0.03236 0.04551 0.0
O128 O 0.66097 0.01563 0.03334 0.0
C129 C 0.6601 0.02299 0.04408 0.0
C130 C 0.68186 0.03508 0.98813 0.0
C131 C 0.65007 0.02367 0.0408 0.0
C132 C 0.6392 0.02972 0.02169 0.0
C133 C 0.64885 0.02919 0.02415 0.0
C134 C 0.63191 0.0192 0.0524 0.0
C135 C 0.63058 0.0247 0.03579 0.0
C136 C 0.64153 0.0187 0.05484 0.0
C137 C 0.69388 0.01842 0.06246 0.0
C138 C 0.69442 0.01799 0.09927 0.0
C139 C 0.69961 1.0068 0.07978 0.0
C140 C 0.69751 0.01078 0.06192 0.0
C141 C 0.69816 0.01039 0.09872 0.0
C142 C 0.69227 0.02195 0.08133 0.0
C143 C 0.69239 0.02289 0.04314 0.0
O144 O 0.6762 0.02452 0.9922 0.0
O145 O 0.68478 0.04125 1.00439 0.0
O146 O 0.69301 0.03254 0.04371 0.0
O147 O 0.68456 0.01588 0.03115 0.0
H148 H 0.70244 0.03737 0.99046 0.0
H149 H 0.71615 0.04336 0.9634 0.0
H150 H 0.69346 0.04596 0.9227 0.0
H151 H 0.68 0.04022 0.94982 0.0
H152 H 0.63843 0.03393 1.00862 0.0
H153 H 0.65534 0.03306 0.01309 0.0
H154 H 0.62558 0.0154 0.06375 0.0
H155 H 0.64233 0.01444 0.06784 0.0
H156 H 0.6931 0.02085 0.11357 0.0
H157 H 0.70263 1.00109 0.07871 0.0
H158 H 0.6989 1.008 0.04758 0.0
H159 H 0.68945 0.02782 0.08224 0.0
C160 C 0.06772 0.62794 0.97457 0.0
C161 C 0.07503 0.63845 0.96689 0.0
C162 C 0.06117 0.63705 0.94277 0.0
C163 C 0.07179 0.64295 0.95118 0.0
C164 C 0.05381 0.62667 0.9509 0.0
C165 C 0.05706 0.62217 0.96654 0.0
U166 U 0.0797 0.62562 0.02626 0.0
O167 O 0.07415 0.61107 0.04578 0.0
O168 O 0.09065 0.619 0.03275 0.0
C169 C 0.08314 0.61058 0.04301 0.0
C170 C 0.07115 0.62244 0.98977 0.0
C171 C 0.08176 0.59956 0.03862 0.0
C172 C 0.08907 0.5882 0.02596 0.0
C173 C 0.08983 0.59849 0.02805 0.0
C174 C 0.07209 0.57977 0.04471 0.0
C175 C 0.08027 0.57871 0.0345 0.0
C176 C 0.07285 0.59004 0.0468 0.0
C177 C 0.0894 0.64941 0.06529 0.0
C178 C 0.08995 0.64974 0.10211 0.0
C179 C 0.101 0.66649 0.0833 0.0
C180 C 0.097 0.66071 0.06519 0.0
C181 C 0.09746 0.66112 0.10203 0.0
C182 C 0.08597 0.64393 0.08393 0.0
C183 C 0.08471 0.64383 0.04579 0.0
O184 O 0.08172 0.6268 0.99326 0.0
O185 O 0.06519 0.61888 1.00625 0.0
O186 O 0.07493 0.63499 0.04624 0.0
O187 O 0.09148 0.64298 0.03331 0.0
H188 H 0.08333 0.64311 0.97269 0.0
H189 H 0.07772 0.65092 0.94523 0.0
H190 H 0.04552 0.62195 0.94513 0.0
H191 H 0.05126 0.61405 0.97213 0.0
H192 H 0.09561 0.58777 0.01823 0.0
H193 H 0.09691 0.60564 0.02182 0.0
H194 H 0.06511 0.57265 0.05125 0.0
H195 H 0.06656 0.59056 0.05525 0.0
H196 H 0.08714 0.6453 0.11623 0.0
H197 H 0.10665 0.67526 0.08258 0.0
H198 H 0.0997 0.66514 0.05103 0.0
H199 H 0.08011 0.63521 0.08448 0.0
C200 C 0.46854 0.42788 0.08101 0.0
C201 C 0.46406 0.4168 0.08666 0.0
C202 C 0.45281 0.41882 0.11245 0.0
C203 C 0.45628 0.41232 0.10221 0.0
C204 C 0.45714 0.42982 0.10636 0.0
C205 C 0.46491 0.43428 0.09089 0.0
U206 U 0.48224 0.42933 0.02944 0.0
O207 O 0.49108 0.44358 1.00915 0.0
O208 O 0.49968 0.4357 0.02258 0.0
C209 C 0.50052 0.44396 1.01181 0.0
C210 C 0.47735 0.43315 0.06571 0.0
C211 C 0.51023 0.45497 0.01559 0.0
C212 C 0.52649 0.46746 0.03509 0.0
C213 C 0.51687 0.45725 0.03288 0.0
C214 C 0.5229 0.47338 1.00306 0.0
C215 C 0.5297 0.47564 0.02012 0.0
C216 C 0.51332 0.46318 1.00082 0.0
C217 C 0.46734 0.40489 0.99185 0.0
C218 C 0.4683 0.40423 0.95516 0.0
C219 C 0.45994 0.38735 0.97448 0.0
C220 C 0.46215 0.39339 0.99234 0.0
C221 C 0.46283 0.39266 0.95559 0.0
C222 C 0.47052 0.41029 0.97311 0.0
C223 C 0.46864 0.41084 1.01098 0.0
O224 O 0.48344 0.42864 0.0625 0.0
O225 O 0.47483 0.43651 0.04905 0.0
O226 O 0.46784 0.41976 1.00998 0.0
O227 O 0.47643 0.41183 0.0233 0.0
H228 H 0.4667 0.41165 0.07931 0.0
H229 H 0.45321 0.40385 0.10654 0.0
H230 H 0.45453 0.43503 0.11356 0.0
H231 H 0.46822 0.44283 0.0868 0.0
H232 H 0.53144 0.46894 0.04855 0.0
H233 H 0.51472 0.4511 0.04456 0.0
H234 H 0.52514 0.47938 0.99108 0.0
H235 H 0.50842 0.46161 0.98727 0.0
H236 H 0.47059 0.40861 0.94093 0.0
H237 H 0.45593 0.37848 0.9755 0.0
H238 H 0.45963 0.38904 1.0066 0.0
H239 H 0.47453 0.41916 0.97231 0.0
C240 C 0.14569 0.37069 0.30509 0.0
C241 C 0.13638 0.37161 0.30897 0.0
C242 C 0.1363 0.37732 0.27405 0.0
C243 C 0.13172 0.37488 0.29357 0.0
C244 C 0.14556 0.37624 0.27031 0.0
C245 C 0.15018 0.37297 0.28565 0.0
U246 U 0.14771 0.36039 0.35849 0.0
O247 O 0.15406 0.34946 0.36715 0.0
O248 O 0.16229 0.36643 0.37811 0.0
C249 C 0.1626 0.35726 0.37674 0.0
C250 C 0.15105 0.36761 0.32099 0.0
C251 C 0.17352 0.35836 0.37274 0.0
C252 C 0.18474 0.35094 0.3599 0.0
C253 C 0.17452 0.35034 0.3618 0.0
C254 C 0.1932 0.36764 0.37958 0.0
C255 C 0.19421 0.35952 0.36898 0.0
C256 C 0.18301 0.36703 0.3815 0.0
C257 C 0.12439 0.35303 0.39748 0.0
C258 C 0.11814 0.34055 0.42633 0.0
C259 C 0.11327 0.35475 0.42369 0.0
C260 C 0.11904 0.35831 0.40552 0.0
C261 C 0.11267 0.34578 0.43433 0.0
C262 C 0.12396 0.34415 0.40812 0.0
C263 C 0.12979 0.35666 0.37755 0.0
O264 O 0.1547 0.3741 0.3368 0.0
O265 O 0.14624 0.35714 0.32575 0.0
O266 O 0.1304 0.34928 0.36637 0.0
O267 O 0.13875 0.36635 0.37696 0.0
H268 H 0.1328 0.36989 0.32391 0.0
H269 H 0.12466 0.3757 0.29707 0.0
H270 H 0.1492 0.37783 0.25543 0.0
H271 H 0.15734 0.37227 0.28232 0.0
H272 H 0.18513 0.34446 0.35184 0.0
H273 H 0.16739 0.34344 0.35507 0.0
H274 H 0.20031 0.37447 0.38654 0.0
H275 H 0.18253 0.37328 0.39021 0.0
H276 H 0.11796 0.3337 0.4342 0.0
H277 H 0.10904 0.35889 0.42915 0.0
H278 H 0.11917 0.36511 0.39753 0.0
H279 H 0.12803 0.33993 0.40228 0.0
C280 C 0.73813 0.74996 0.30334 0.0
C281 C 0.73392 0.73884 0.30831 0.0
C282 C 0.73202 0.73397 0.27251 0.0
C283 C 0.73087 0.73092 0.29305 0.0
C284 C 0.73642 0.74515 0.2677 0.0
C285 C 0.73942 0.75303 0.28293 0.0
U286 U 0.74753 0.76254 0.35673 0.0
O287 O 0.75814 0.77987 0.3653 0.0
O288 O 0.74104 0.77091 0.37555 0.0
C289 C 0.75019 0.78042 0.3746 0.0
C290 C 0.74081 0.75846 0.31894 0.0
C291 C 0.74906 0.7902 0.37054 0.0
C292 C 0.75288 0.80636 0.35064 0.0
C293 C 0.75339 0.7967 0.35313 0.0
C294 C 0.74352 0.80304 0.38263 0.0
C295 C 0.748 0.80971 0.36544 0.0
C296 C 0.74406 0.79344 0.38514 0.0
C297 C 0.75492 0.74704 0.39716 0.0
C298 C 0.76873 0.75219 0.42371 0.0
C299 C 0.75148 0.73514 0.42636 0.0
C300 C 0.74806 0.7374 0.40797 0.0
C301 C 0.7619 0.74244 0.43441 0.0
C302 C 0.76528 0.75447 0.40531 0.0
C303 C 0.7514 0.74863 0.37683 0.0
O304 O 0.73412 0.7556 0.33443 0.0
O305 O 0.7512 0.76438 0.32411 0.0
O306 O 0.75877 0.75661 0.36554 0.0
O307 O 0.74164 0.74768 0.37556 0.0
H308 H 0.73288 0.73627 0.32396 0.0
H309 H 0.72765 0.72242 0.29734 0.0
H310 H 0.7373 0.74781 0.25212 0.0
H311 H 0.7426 0.76155 0.27874 0.0
H312 H 0.7563 0.8112 0.33709 0.0
H313 H 0.75729 0.79441 0.34158 0.0
H314 H 0.73984 0.8054 0.3945 0.0
H315 H 0.74074 0.78862 0.39876 0.0
H316 H 0.77675 0.75806 0.42955 0.0
H317 H 0.74605 0.72749 0.43396 0.0
H318 H 0.7401 0.73146 0.40195 0.0
H319 H 0.7708 0.76197 0.39737 0.0
C320 C 0.34815 0.97257 0.41313 0.0
C321 C 0.35724 0.97379 0.42427 0.0
C322 C 0.35764 0.98861 0.44414 0.0
C323 C 0.36193 0.98172 0.43955 0.0
C324 C 0.34864 0.98746 0.4328 0.0
C325 C 0.34394 0.97952 0.41758 0.0
U326 U 0.34485 0.95832 0.36122 0.0
O327 O 0.33821 0.94079 0.35438 0.0
O328 O 0.32996 0.94937 0.34249 0.0
C329 C 0.32961 0.9399 0.34473 0.0
C330 C 0.34237 0.96354 0.3982 0.0
C331 C 0.31871 0.9302 0.34936 0.0
C332 C 0.30726 0.91267 0.36638 0.0
C333 C 0.31743 0.92229 0.36382 0.0
C334 C 0.29938 0.91875 0.34038 0.0
C335 C 0.29812 0.91069 0.3545 0.0
C336 C 0.30953 0.92834 0.33781 0.0
C337 C 0.36773 0.97314 0.32053 0.0
C338 C 0.37826 0.96893 0.2966 0.0
C339 C 0.37525 0.98415 0.29004 0.0
C340 C 0.36924 0.98185 0.30794 0.0
C341 C 0.38002 0.97785 0.28427 0.0
C342 C 0.37222 0.96662 0.31454 0.0
C343 C 0.36252 0.97183 0.34062 0.0
O344 O 0.33831 0.96578 0.38214 0.0
O345 O 0.34676 0.95742 0.39409 0.0
O346 O 0.36202 0.96416 0.35274 0.0
O347 O 0.35363 0.97267 0.34119 0.0
H348 H 0.36065 0.96853 0.42143 0.0
H349 H 0.36891 0.98244 0.4478 0.0
H350 H 0.345 0.99248 0.43606 0.0
H351 H 0.33684 0.97868 0.40956 0.0
H352 H 0.30666 0.90663 0.37726 0.0
H353 H 0.32433 0.92339 0.37288 0.0
H354 H 0.29252 0.91764 0.33118 0.0
H355 H 0.31026 0.93423 0.32645 0.0
H356 H 0.38188 0.96395 0.29278 0.0
H357 H 0.37626 0.99096 0.28081 0.0
H358 H 0.36597 0.98709 0.3122 0.0
H359 H 0.37133 0.95991 0.32395 0.0
C360 C 0.35856 0.37087 0.30808 0.0
C361 C 0.36978 0.37682 0.31304 0.0
C362 C 0.37473 0.37749 0.2775 0.0
C363 C 0.37777 0.38011 0.29791 0.0
C364 C 0.36348 0.37134 0.27272 0.0
C365 C 0.35551 0.3681 0.28781 0.0
U366 U 0.34492 0.36025 0.36044 0.0
O367 O 0.33622 0.36629 0.37941 0.0
O368 O 0.32742 0.3495 0.3675 0.0
C369 C 0.32669 0.35725 0.37723 0.0
C370 C 0.34986 0.36796 0.32336 0.0
C371 C 0.31701 0.35856 0.37275 0.0
C372 C 0.29836 0.35122 0.35977 0.0
C373 C 0.30793 0.35055 0.36184 0.0
C374 C 0.30676 0.36802 0.37919 0.0
C375 C 0.29757 0.35989 0.36868 0.0
C376 C 0.31632 0.36734 0.38126 0.0
C377 C 0.35914 0.35099 0.40034 0.0
C378 C 0.36159 0.3524 0.43693 0.0
C379 C 0.36242 0.3379 0.41895 0.0
C380 C 0.36049 0.34175 0.40074 0.0
C381 C 0.36312 0.34324 0.43729 0.0
C382 C 0.35961 0.35624 0.41868 0.0
C383 C 0.35815 0.35541 0.38051 0.0
O384 O 0.34366 0.35746 0.32751 0.0
O385 O 0.35249 0.37425 0.33944 0.0
O386 O 0.35925 0.36527 0.38026 0.0
O387 O 0.3504 0.34848 0.36829 0.0
H388 H 0.37238 0.37904 0.32857 0.0
H389 H 0.38634 0.38471 0.30221 0.0
H390 H 0.3608 0.36928 0.2572 0.0
H391 H 0.34692 0.36357 0.28358 0.0
H392 H 0.29143 0.34473 0.35179 0.0
H393 H 0.30807 0.34357 0.35532 0.0
H394 H 0.30655 0.3749 0.38601 0.0
H395 H 0.32309 0.37358 0.38997 0.0
H396 H 0.36194 0.35664 0.45077 0.0
H397 H 0.36371 0.33093 0.41853 0.0
H398 H 0.3603 0.33762 0.38683 0.0
H399 H 0.35863 0.3634 0.41893 0.0
C400 C 0.73747 0.96142 0.30455 0.0
C401 C 0.73416 0.96913 0.30866 0.0
C402 C 0.73082 0.97035 0.2727 0.0
C403 C 0.73088 0.97356 0.29287 0.0
C404 C 0.73438 0.9628 0.26876 0.0
C405 C 0.73764 0.95839 0.28449 0.0
U406 U 0.74798 0.95962 0.35803 0.0
O407 O 0.74192 0.94513 0.37797 0.0
O408 O 0.75878 0.95313 0.36653 0.0
C409 C 0.75103 0.94474 0.37647 0.0
C410 C 0.74042 0.95608 0.32074 0.0
C411 C 0.74979 0.93379 0.3725 0.0
C412 C 0.75318 0.92134 0.35222 0.0
C413 C 0.75378 0.93153 0.35479 0.0
C414 C 0.74437 0.9154 0.38474 0.0
C415 C 0.74854 0.91315 0.36724 0.0
C416 C 0.74502 0.92559 0.38733 0.0
C417 C 0.75677 0.98375 0.39594 0.0
C418 C 0.75772 0.98402 0.43273 0.0
C419 C 0.76676 1.00109 0.41401 0.0
C420 C 0.76319 0.99524 0.39589 0.0
C421 C 0.76397 0.9956 0.43273 0.0
C422 C 0.75415 0.97816 0.41452 0.0
C423 C 0.75253 0.978 0.37646 0.0
O424 O 0.7509 0.9606 0.32519 0.0
O425 O 0.73407 0.95278 0.33675 0.0
O426 O 0.74276 0.96913 0.37659 0.0
O427 O 0.75958 0.97703 0.36495 0.0
H428 H 0.73397 0.9716 0.32405 0.0
H429 H 0.72814 0.97931 0.29651 0.0
H430 H 0.73467 0.96029 0.25345 0.0
H431 H 0.74021 0.95249 0.28096 0.0
H432 H 0.75635 0.91986 0.33844 0.0
H433 H 0.75748 0.93767 0.34304 0.0
H434 H 0.74086 0.90938 0.39674 0.0
H435 H 0.74195 0.92714 0.40117 0.0
H436 H 0.75535 0.9795 0.44681 0.0
H437 H 0.77172 0.00996 0.41332 0.0
H438 H 0.76533 0.99974 0.38176 0.0
H439 H 0.7492 0.96928 0.41498 0.0
C440 C 0.14584 0.74863 0.30779 0.0
C441 C 0.13845 0.73753 0.31215 0.0
C442 C 0.13685 0.73296 0.27622 0.0
C443 C 0.13399 0.72977 0.29651 0.0
C444 C 0.14407 0.74414 0.27202 0.0
C445 C 0.1485 0.75185 0.2876 0.0
U446 U 0.14811 0.76078 0.36138 0.0
O447 O 0.16279 0.76929 0.38079 0.0
O448 O 0.1545 0.77804 0.37001 0.0
C449 C 0.16307 0.77876 0.37948 0.0
C450 C 0.15126 0.75695 0.32382 0.0
C451 C 0.17395 0.78859 0.37532 0.0
C452 C 0.18548 0.80613 0.35839 0.0
C453 C 0.17532 0.79647 0.36072 0.0
C454 C 0.19317 0.80015 0.38491 0.0
C455 C 0.19453 0.80817 0.37062 0.0
C456 C 0.18302 0.79053 0.38726 0.0
C457 C 0.12477 0.74497 0.40039 0.0
C458 C 0.12032 0.75186 0.43051 0.0
C459 C 0.11195 0.73227 0.4252 0.0
C460 C 0.11771 0.73422 0.40708 0.0
C461 C 0.11309 0.74105 0.43713 0.0
C462 C 0.12612 0.75381 0.41233 0.0
C463 C 0.13015 0.74662 0.38052 0.0
O464 O 0.1466 0.76272 0.32864 0.0
O465 O 0.15491 0.75401 0.33958 0.0
O466 O 0.13909 0.74588 0.38008 0.0
O467 O 0.13082 0.75465 0.36923 0.0
H468 H 0.13627 0.73485 0.32764 0.0
H469 H 0.12852 0.72124 0.30036 0.0
H470 H 0.1463 0.74696 0.25661 0.0
H471 H 0.15415 0.76037 0.28388 0.0
H472 H 0.18614 0.81214 0.34738 0.0
H473 H 0.1685 0.7953 0.35134 0.0
H474 H 0.19996 0.80131 0.39437 0.0
H475 H 0.18222 0.78465 0.39871 0.0
H476 H 0.12152 0.75883 0.43939 0.0
H477 H 0.10636 0.72385 0.42958 0.0
H478 H 0.1165 0.72728 0.39806 0.0
H479 H 0.13155 0.76219 0.40752 0.0
C480 C 0.80366 0.68335 0.74519 0.0
C481 C 0.79297 0.68117 0.74094 0.0
C482 C 0.78785 0.67659 0.7764 0.0
C483 C 0.78514 0.67783 0.7564 0.0
C484 C 0.79864 0.67894 0.7805 0.0
C485 C 0.80643 0.68226 0.76508 0.0
U486 U 0.81567 0.69436 0.69213 0.0
O487 O 0.83284 0.70568 0.68362 0.0
O488 O 0.82432 0.68888 0.67175 0.0
C489 C 0.83363 0.69823 0.673 0.0
C490 C 0.81204 0.68657 0.72925 0.0
C491 C 0.84361 0.69746 0.67635 0.0
C492 C 0.85527 0.69319 0.6973 0.0
C493 C 0.84561 0.69369 0.69464 0.0
C494 C 0.86096 0.7002 0.66342 0.0
C495 C 0.86311 0.69649 0.68173 0.0
C496 C 0.85134 0.70067 0.6608 0.0
C497 C 0.79957 0.70264 0.65491 0.0
C498 C 0.80128 0.70485 0.61834 0.0
C499 C 0.79081 0.71131 0.6368 0.0
C500 C 0.79322 0.70777 0.65487 0.0
C501 C 0.79468 0.70979 0.61822 0.0
C502 C 0.80369 0.70129 0.63651 0.0
C503 C 0.80133 0.69843 0.67424 0.0
O504 O 0.80912 0.68032 0.71309 0.0
O505 O 0.81775 0.6971 0.725 0.0
O506 O 0.80931 0.70558 0.68579 0.0
O507 O 0.80074 0.6888 0.67377 0.0
H508 H 0.79066 0.68197 0.72567 0.0
H509 H 0.77691 0.67601 0.75261 0.0
H510 H 0.80111 0.67829 0.79571 0.0
H511 H 0.81464 0.68396 0.7687 0.0
H512 H 0.85667 0.69038 0.71165 0.0
H513 H 0.83975 0.69118 0.70686 0.0
H514 H 0.86667 0.70263 0.65097 0.0
H515 H 0.84992 0.70357 0.64654 0.0
H516 H 0.80434 0.70346 0.60435 0.0
H517 H 0.78591 0.71526 0.63741 0.0
H518 H 0.79 0.70893 0.66889 0.0
H519 H 0.80862 0.69736 0.63615 0.0
C520 C 0.40299 0.08255 0.64089 0.0
C521 C 0.3968 0.07124 0.64514 0.0
C522 C 0.39661 0.06686 0.60937 0.0
C523 C 0.39364 0.06349 0.62955 0.0
C524 C 0.40303 0.07818 0.60534 0.0
C525 C 0.40615 0.08591 0.62088 0.0
U526 U 0.41334 0.09522 0.69395 0.0
O527 O 0.42407 0.11255 0.70229 0.0
O528 O 0.40722 0.10356 0.71378 0.0
C529 C 0.41631 0.1131 0.71229 0.0
C530 C 0.40582 0.09102 0.65667 0.0
C531 C 0.41503 0.12281 0.70847 0.0
C532 C 0.41834 0.13877 0.68843 0.0
C533 C 0.41894 0.12916 0.69079 0.0
C534 C 0.4097 0.13572 0.72112 0.0
C535 C 0.41379 0.14224 0.70364 0.0
C536 C 0.41034 0.12616 0.7235 0.0
C537 C 0.42212 0.07973 0.73191 0.0
C538 C 0.42395 0.08119 0.76855 0.0
C539 C 0.43099 0.07121 0.75013 0.0
C540 C 0.42752 0.07363 0.732 0.0
C541 C 0.42913 0.07482 0.76871 0.0
C542 C 0.42046 0.08361 0.75031 0.0
C543 C 0.41793 0.08139 0.71247 0.0
O544 O 0.39945 0.08813 0.67265 0.0
O545 O 0.41629 0.09716 0.66109 0.0
O546 O 0.42499 0.0895 0.70106 0.0
O547 O 0.40816 0.08047 0.71264 0.0
H548 H 0.39424 0.06839 0.66043 0.0
H549 H 0.38863 0.05486 0.63327 0.0
H550 H 0.40567 0.08111 0.59011 0.0
H551 H 0.41094 0.09457 0.61722 0.0
H552 H 0.42145 0.14349 0.67466 0.0
H553 H 0.42259 0.12678 0.6789 0.0
H554 H 0.40627 0.13817 0.73328 0.0
H555 H 0.40734 0.12146 0.73733 0.0
H556 H 0.42233 0.08406 0.78255 0.0
H557 H 0.43513 0.06648 0.74958 0.0
H558 H 0.42892 0.07058 0.71798 0.0
H559 H 0.41631 0.08835 0.75062 0.0
C560 C 1.01431 0.30388 0.74515 0.0
C561 C 0.0208 0.31507 0.74025 0.0
C562 C 0.02393 0.31988 0.77607 0.0
C563 C 0.02553 0.32298 0.75556 0.0
C564 C 0.01758 0.30863 0.78081 0.0
C565 C 1.01283 0.30075 0.76553 0.0
U566 U 1.01189 0.29126 0.69217 0.0
O567 O 1.0054 0.27394 0.68379 0.0
O568 O 0.99736 0.28282 0.67239 0.0
C569 C 0.99694 0.27329 0.674 0.0
C570 C 1.00866 0.29535 0.72949 0.0
C571 C 0.98596 0.26352 0.67798 0.0
C572 C 0.97446 0.24523 0.69234 0.0
C573 C 0.9847 0.25482 0.69041 0.0
C574 C 0.96645 0.25286 0.66975 0.0
C575 C 0.9652 0.24404 0.68183 0.0
C576 C 0.97668 0.26242 0.6678 0.0
C577 C 0.03591 0.3072 0.65423 0.0
C578 C 0.0365 0.30337 0.61854 0.0
C579 C 0.05256 0.31806 0.63479 0.0
C580 C 0.04685 0.31567 0.65303 0.0
C581 C 0.04745 0.31203 0.61721 0.0
C582 C 0.03076 0.30099 0.63689 0.0
C583 C 0.03013 0.30533 0.67366 0.0
O584 O 1.00505 0.29818 0.71354 0.0
O585 O 1.01315 0.28938 0.72501 0.0
O586 O 0.02923 0.29719 0.68484 0.0
O587 O 0.02118 0.30608 0.67352 0.0
H588 H 0.02212 0.3177 0.72462 0.0
H589 H 0.03048 0.33154 0.75132 0.0
H590 H 0.01604 0.30592 0.79638 0.0
H591 H 1.00782 0.29218 0.76967 0.0
H592 H 0.97388 0.23859 0.70159 0.0
H593 H 0.99168 0.25529 0.69832 0.0
H594 H 0.95951 0.25236 0.66167 0.0
H595 H 0.97737 0.26891 0.65796 0.0
H596 H 0.03228 0.29859 0.6053 0.0
H597 H 0.06103 0.32463 0.6345 0.0
H598 H 0.051 0.32053 0.66625 0.0
H599 H 0.0223 0.29441 0.6375 0.0
C600 C 0.02366 0.70535 0.63902 0.0
C601 C 0.03314 0.70461 0.64206 0.0
C602 C 0.0397 0.71204 0.60826 0.0
C603 C 0.04109 0.70791 0.62681 0.0
C604 C 0.03012 0.71269 0.60539 0.0
C605 C 0.02222 0.7094 0.62059 0.0
U606 U 1.01108 0.69389 0.69157 0.0
O607 O 1.00219 0.6992 0.71169 0.0
O608 O 0.9938 0.68251 0.69935 0.0
C609 C 0.9929 0.68987 0.71006 0.0
C610 C 1.01512 0.70198 0.65468 0.0
C611 C 0.98294 0.69064 0.70652 0.0
C612 C 0.97134 0.6949 0.68536 0.0
C613 C 0.981 0.69442 0.68817 0.0
C614 C 0.96553 0.68788 0.71919 0.0
C615 C 0.96344 0.69158 0.70082 0.0
C616 C 0.97515 0.68741 0.72197 0.0
C617 C 0.02642 0.68515 0.72968 0.0
C618 C 0.0276 0.68544 0.76646 0.0
C619 C 0.03131 0.673 0.74748 0.0
C620 C 0.02927 0.67692 0.72946 0.0
C621 C 0.03059 0.67726 0.76624 0.0
C622 C 0.02551 0.68933 0.74839 0.0
C623 C 0.0251 0.68961 0.71017 0.0
O624 O 1.00941 0.69142 0.65864 0.0
O625 O 0.01789 0.70811 0.67098 0.0
O626 O 0.02579 0.69929 0.71052 0.0
O627 O 0.01735 0.68261 0.69805 0.0
H628 H 0.03441 0.70152 0.65622 0.0
H629 H 0.04838 0.70737 0.62965 0.0
H630 H 0.02864 0.71563 0.59125 0.0
H631 H 1.01493 0.70999 0.61791 0.0
H632 H 0.96999 0.69771 0.67097 0.0
H633 H 0.98691 0.69693 0.67604 0.0
H634 H 0.95978 0.68544 0.73157 0.0
H635 H 0.97651 0.68451 0.73627 0.0
H636 H 0.02683 0.68882 0.78062 0.0
H637 H 0.03373 0.66681 0.74666 0.0
H638 H 0.03013 0.67362 0.71526 0.0
H639 H 0.02331 0.69569 0.74907 0.0
C640 C 0.40132 0.29438 0.64485 0.0
C641 C 0.40891 0.30432 0.63553 0.0
C642 C 0.3946 0.30347 0.61324 0.0
C643 C 0.40558 0.30881 0.61995 0.0
C644 C 0.387 0.29366 0.62293 0.0
C645 C 0.39033 0.28917 0.63845 0.0
U646 U 0.41335 0.29217 0.6965 0.0
O647 O 0.40773 0.27769 0.71633 0.0
O648 O 0.42425 0.28554 0.70327 0.0
C649 C 0.41675 0.27723 0.71377 0.0
C650 C 0.40474 0.28885 0.66004 0.0
C651 C 0.41534 0.26622 0.7097 0.0
C652 C 0.41857 0.25366 0.68939 0.0
C653 C 0.41924 0.26389 0.69194 0.0
C654 C 0.40988 0.24783 0.72202 0.0
C655 C 0.41396 0.24552 0.70448 0.0
C656 C 0.41059 0.25805 0.72459 0.0
C657 C 0.42307 0.31623 0.73492 0.0
C658 C 0.42483 0.31634 0.77156 0.0
C659 C 0.43328 0.33351 0.75311 0.0
C660 C 0.42936 0.32773 0.73498 0.0
C661 C 0.431 0.32791 0.7717 0.0
C662 C 0.42092 0.31055 0.75336 0.0
C663 C 0.41841 0.31053 0.71554 0.0
O664 O 0.41531 0.29314 0.66347 0.0
O665 O 0.39882 0.28534 0.67656 0.0
O666 O 0.40864 0.30169 0.71619 0.0
O667 O 0.42517 0.30956 0.70324 0.0
H668 H 0.41747 0.30853 0.63997 0.0
H669 H 0.41171 0.3163 0.61275 0.0
H670 H 0.37844 0.28939 0.61848 0.0
H671 H 0.3843 0.28148 0.64525 0.0
H672 H 0.42167 0.25214 0.67557 0.0
H673 H 0.42293 0.27001 0.68014 0.0
H674 H 0.40642 0.24185 0.7341 0.0
H675 H 0.40761 0.25965 0.73849 0.0
H676 H 0.42302 0.31174 0.78554 0.0
H677 H 0.43785 0.34239 0.75256 0.0
H678 H 0.43107 0.33229 0.72097 0.0
H679 H 0.4161 0.30166 0.75372 0.0
C680 C 0.80007 0.09302 0.74494 0.0
C681 C 0.7942 0.08159 0.74807 0.0
C682 C 0.78386 0.08378 0.77549 0.0
C683 C 0.78619 0.07703 0.76324 0.0
C684 C 0.78971 0.09519 0.77208 0.0
C685 C 0.79771 0.09974 0.75702 0.0
U686 U 0.81397 0.0945 0.69357 0.0
O687 O 0.82297 0.10879 0.67351 0.0
O688 O 0.83148 0.10087 0.68711 0.0
C689 C 0.83241 0.1092 0.67643 0.0
C690 C 0.80895 0.09824 0.7298 0.0
C691 C 0.84214 0.12023 0.68038 0.0
C692 C 0.86058 0.13175 0.69414 0.0
C693 C 0.85097 0.1215 0.69242 0.0
C694 C 0.85273 0.13976 0.67209 0.0
C695 C 0.86167 0.141 0.68376 0.0
C696 C 0.84314 0.12952 0.67036 0.0
C697 C 0.7994 0.07048 0.65523 0.0
C698 C 0.80146 0.07049 0.6187 0.0
C699 C 0.79199 0.05325 0.6368 0.0
C700 C 0.79381 0.05897 0.65497 0.0
C701 C 0.79569 0.05891 0.61836 0.0
C702 C 0.80331 0.07622 0.63695 0.0
C703 C 0.80045 0.07617 0.67459 0.0
O704 O 0.8149 0.09357 0.72665 0.0
O705 O 0.80654 0.10168 0.71311 0.0
O706 O 0.79967 0.0851 0.6738 0.0
O707 O 0.80814 0.07703 0.68706 0.0
H708 H 0.79584 0.07622 0.73891 0.0
H709 H 0.78177 0.0682 0.76526 0.0
H710 H 0.78828 0.10068 0.78136 0.0
H711 H 0.80218 0.10857 0.75496 0.0
H712 H 0.86731 0.13232 0.70307 0.0
H713 H 0.85059 0.11451 0.70014 0.0
H714 H 0.85317 0.1467 0.66411 0.0
H715 H 0.83657 0.12884 0.66078 0.0
H716 H 0.80456 0.07514 0.60486 0.0
H717 H 0.78739 0.04436 0.63718 0.0
H718 H 0.79066 0.05437 0.66886 0.0
H719 H 0.80768 0.08512 0.63674 0.0
C720 C 0.62055 0.03488 0.0268 0.0
C721 C 0.62026 0.02521 0.03341 0.0
C722 C 0.61089 0.03544 0.02539 0.0
C723 C 0.58214 0.02187 0.04421 0.0
H724 H 0.57787 0.03755 1.00013 0.0
C725 C 0.54051 0.0201 0.02971 0.0
C726 C 0.5408 0.02978 0.02319 0.0
C727 C 0.55019 0.01958 0.03126 0.0
C728 C 0.57897 0.03324 0.01269 0.0
H729 H 0.6094 0.00842 0.04303 0.0
H730 H 0.59264 0.00938 0.04053 0.0
H731 H 0.59466 0.03657 1.00186 0.0
H732 H 0.55165 0.04664 0.01392 0.0
H733 H 0.56845 0.04574 0.0166 0.0
H734 H 0.56643 0.01852 0.05502 0.0
C735 C 0.60036 0.01663 0.03684 0.0
C736 C 0.58862 0.03268 0.01369 0.0
C737 C 0.61 0.01607 0.03826 0.0
C738 C 0.55106 0.03897 0.01861 0.0
C739 C 0.56072 0.03845 0.02013 0.0
C740 C 0.57248 0.02242 0.04321 0.0
C741 C 0.60066 0.02634 0.03053 0.0
C742 C 0.59036 0.02698 0.02946 0.0
C743 C 0.56043 0.02873 0.02633 0.0
C744 C 0.57075 0.02812 0.02744 0.0
H745 H 0.62829 0.04213 0.02318 0.0
H746 H 0.61149 0.04311 0.0207 0.0
H747 H 0.58323 0.01756 0.05678 0.0
H748 H 0.53277 0.01281 0.03313 0.0
H749 H 0.54961 0.01191 0.03585 0.0
C750 C 0.08257 0.49215 0.01572 0.0
C751 C 0.07918 0.48552 0.03316 0.0
C752 C 0.08248 0.50208 0.01505 0.0
C753 C 0.07041 0.51718 0.04042 0.0
H754 H 0.09434 0.54277 0.01492 0.0
C755 C 0.07624 0.56068 0.05013 0.0
C756 C 0.07981 0.56785 0.03344 0.0
C757 C 0.07598 0.55059 0.04939 0.0
C758 C 0.08751 0.53568 0.02188 0.0
H759 H 0.07326 0.4844 0.06375 0.0
H760 H 0.07309 0.50161 0.06257 0.0
H761 H 0.09422 0.52535 0.01486 0.0
H762 H 0.08578 0.56984 1.00272 0.0
H763 H 0.08531 0.55226 1.00142 0.0
H764 H 0.06372 0.52749 0.04752 0.0
C765 C 0.07562 0.49905 0.04923 0.0
C766 C 0.08744 0.52567 0.02185 0.0
C767 C 0.07572 0.48914 0.0499 0.0
C768 C 0.08311 0.56462 0.01596 0.0
C769 C 0.08285 0.55452 0.01522 0.0
C770 C 0.07047 0.52718 0.04045 0.0
C771 C 0.07899 0.50567 0.0318 0.0
C772 C 0.07892 0.51629 0.03124 0.0
C773 C 0.07928 0.54736 0.03193 0.0
C774 C 0.07906 0.5366 0.03131 0.0
H775 H 0.08516 0.4896 1.00244 0.0
H776 H 0.085 0.50688 1.00127 0.0
H777 H 0.0636 0.51011 0.04747 0.0
H778 H 0.07385 0.56295 0.06401 0.0
H779 H 0.07337 0.54542 0.0627 0.0
C780 C 0.54082 0.49623 0.01572 0.0
C781 C 0.54021 0.48635 0.02192 0.0
C782 C 0.55077 0.50621 0.01657 0.0
C783 C 0.58093 0.51756 0.01834 0.0
H784 H 0.5816 0.54449 0.03351 0.0
C785 C 0.62187 0.55875 0.02715 0.0
C786 C 0.6222 0.56829 0.01959 0.0
C787 C 0.6119 0.54882 0.02854 0.0
C788 C 0.58156 0.53708 0.02903 0.0
H789 H 0.5497 0.47934 0.03398 0.0
H790 H 0.56697 0.49672 0.03578 0.0
H791 H 0.56425 0.52716 0.03396 0.0
H792 H 0.61215 0.57481 1.0081 0.0
H793 H 0.59486 0.55751 1.01022 0.0
H794 H 0.59822 0.52748 0.01327 0.0
C795 C 0.55977 0.49674 0.03005 0.0
C796 C 0.57159 0.52711 0.0293 0.0
C797 C 0.54981 0.48677 0.02925 0.0
C798 C 0.61226 0.56763 0.01378 0.0
C799 C 0.6023 0.55771 0.01522 0.0
C800 C 0.5909 0.52753 0.01807 0.0
C801 C 0.56041 0.5066 0.02361 0.0
C802 C 0.57111 0.51721 0.02386 0.0
C803 C 0.60197 0.54813 0.02247 0.0
C804 C 0.59136 0.53744 0.02332 0.0
H805 H 0.53359 0.49628 1.01018 0.0
H806 H 0.55093 0.51359 1.0113 0.0
H807 H 0.58088 0.51016 0.01374 0.0
H808 H 0.62935 0.55889 0.0316 0.0
H809 H 0.61198 0.54166 0.03442 0.0
C810 C 0.28057 0.35704 0.35013 0.0
C811 C 0.28711 0.36022 0.3677 0.0
C812 C 0.27068 0.35719 0.34946 0.0
C813 C 0.25552 0.36905 0.37534 0.0
H814 H 0.23007 0.34539 0.34888 0.0
C815 C 0.21205 0.36316 0.38487 0.0
C816 C 0.205 0.35985 0.368 0.0
C817 C 0.22211 0.36338 0.38414 0.0
C818 C 0.23712 0.35214 0.35612 0.0
H819 H 0.28812 0.36586 0.3985 0.0
H820 H 0.27099 0.36614 0.39733 0.0
H821 H 0.24745 0.34549 0.34881 0.0
H822 H 0.20317 0.35427 0.337 0.0
H823 H 0.22069 0.35465 0.33574 0.0
H824 H 0.2452 0.37568 0.38274 0.0
C825 C 0.27359 0.36372 0.38389 0.0
C826 C 0.24712 0.3522 0.35607 0.0
C827 C 0.28346 0.36356 0.38456 0.0
C828 C 0.2083 0.35674 0.35038 0.0
C829 C 0.21837 0.35695 0.34965 0.0
C830 C 0.24553 0.36899 0.37539 0.0
C831 C 0.26704 0.36053 0.36635 0.0
C832 C 0.25645 0.36062 0.36581 0.0
C833 C 0.22543 0.36029 0.36653 0.0
C834 C 0.23616 0.3605 0.3659 0.0
H835 H 0.28316 0.35455 0.33676 0.0
H836 H 0.26596 0.35482 0.33559 0.0
H837 H 0.26255 0.37578 0.38265 0.0
H838 H 0.20973 0.36539 0.39885 0.0
H839 H 0.22719 0.3658 0.39757 0.0
C840 C 0.73909 0.89254 0.37136 0.0
C841 C 0.74826 0.90242 0.36498 0.0
C842 C 0.73899 0.88255 0.36999 0.0
C843 C 0.75761 0.87106 0.36639 0.0
H844 H 0.73106 0.84432 0.35137 0.0
C845 C 0.75696 0.82978 0.35578 0.0
C846 C 0.74782 0.82023 0.36334 0.0
C847 C 0.75699 0.83976 0.35481 0.0
C848 C 0.73853 0.85168 0.3558 0.0
H849 H 0.76453 0.90943 0.35209 0.0
H850 H 0.76431 0.89202 0.34946 0.0
H851 H 0.73115 0.8617 0.35183 0.0
H852 H 0.73138 0.81373 0.37523 0.0
H853 H 0.7315 0.8311 0.37387 0.0
H854 H 0.76497 0.86103 0.37054 0.0
C855 C 0.75721 0.892 0.35569 0.0
C856 C 0.73858 0.86167 0.35605 0.0
C857 C 0.75728 0.902 0.35698 0.0
C858 C 0.73863 0.82092 0.36955 0.0
C859 C 0.73865 0.83088 0.36855 0.0
C860 C 0.75756 0.86106 0.36616 0.0
C861 C 0.74808 0.88214 0.36228 0.0
C862 C 0.74811 0.87151 0.36145 0.0
C863 C 0.74786 0.84048 0.36132 0.0
C864 C 0.748 0.85121 0.36095 0.0
H865 H 0.73194 0.89251 0.3774 0.0
H866 H 0.73186 0.87516 0.37539 0.0
H867 H 0.76506 0.87841 0.37093 0.0
H868 H 0.76423 0.82962 0.35103 0.0
H869 H 0.76418 0.84692 0.34892 0.0
C870 C 0.28106 0.89495 0.3391 0.0
C871 C 0.28741 0.90017 0.35636 0.0
C872 C 0.27107 0.88508 0.34071 0.0
C873 C 0.25519 0.86129 0.37494 0.0
H874 H 0.23064 0.85646 0.34105 0.0
C875 C 0.21151 0.82395 0.38617 0.0
C876 C 0.20524 0.8187 0.36885 0.0
C877 C 0.22151 0.83383 0.38463 0.0
C878 C 0.23744 0.8576 0.35047 0.0
H879 H 0.28802 0.89901 0.38894 0.0
H880 H 0.27062 0.88181 0.39174 0.0
H881 H 0.24797 0.87372 0.33858 0.0
H882 H 0.20478 0.81982 0.33623 0.0
H883 H 0.22216 0.83704 0.33356 0.0
H884 H 0.24466 0.84518 0.38684 0.0
C885 C 0.27346 0.88529 0.37689 0.0
C886 C 0.24741 0.86753 0.34906 0.0
C887 C 0.28346 0.89518 0.37528 0.0
C888 C 0.20927 0.82366 0.34994 0.0
C889 C 0.21927 0.83356 0.3484 0.0
C890 C 0.24522 0.85137 0.37636 0.0
C891 C 0.26711 0.88009 0.35962 0.0
C892 C 0.25644 0.86952 0.36126 0.0
C893 C 0.22554 0.83879 0.36573 0.0
C894 C 0.2362 0.84937 0.36414 0.0
H895 H 0.2839 0.89839 0.32422 0.0
H896 H 0.26655 0.88125 0.32702 0.0
H897 H 0.26199 0.86243 0.38435 0.0
H898 H 0.20861 0.82053 0.40104 0.0
H899 H 0.22598 0.83768 0.39834 0.0
C900 C 0.95306 0.70076 0.68789 0.0
C901 C 0.95307 0.69194 0.698 0.0
C902 C 0.94338 0.70124 0.68596 0.0
C903 C 0.91291 0.68398 0.68876 0.0
H904 H 0.91415 0.71194 0.69553 0.0
C905 C 0.87351 0.68729 0.69447 0.0
C906 C 0.87349 0.69611 0.68439 0.0
C907 C 0.88319 0.68681 0.69629 0.0
C908 C 0.91365 0.70407 0.69337 0.0
H909 H 0.9427 0.67655 0.7135 0.0
H910 H 0.92595 0.67749 0.71048 0.0
H911 H 0.93096 0.71102 0.6978 0.0
H912 H 0.88382 0.7115 0.66883 0.0
H913 H 0.90058 0.71055 0.67169 0.0
H914 H 0.8956 0.67703 0.68434 0.0
C915 C 0.93341 0.68402 0.7039 0.0
C916 C 0.92332 0.70355 0.69465 0.0
C917 C 0.94307 0.68355 0.70585 0.0
C918 C 0.88346 0.7045 0.67646 0.0
C919 C 0.89313 0.70402 0.67832 0.0
C920 C 0.90324 0.6845 0.68748 0.0
C921 C 0.93341 0.6929 0.69403 0.0
C922 C 0.9231 0.69349 0.69237 0.0
C923 C 0.89314 0.69514 0.68817 0.0
C924 C 0.90346 0.69456 0.68977 0.0
H925 H 0.96059 0.70742 0.68178 0.0
H926 H 0.9437 0.70815 0.67805 0.0
H927 H 0.91241 0.67611 0.6866 0.0
H928 H 0.86599 0.68064 0.70064 0.0
H929 H 0.88289 0.6799 0.7042 0.0
C930 C 0.40456 0.22493 0.70899 0.0
C931 C 0.41366 0.23477 0.7023 0.0
C932 C 0.40447 0.21493 0.70779 0.0
C933 C 0.42314 0.20349 0.70386 0.0
H934 H 0.39645 0.17655 0.69029 0.0
C935 C 0.42251 0.16221 0.69352 0.0
C936 C 0.41353 0.15272 0.70164 0.0
C937 C 0.42247 0.17216 0.69253 0.0
C938 C 0.40396 0.18397 0.6943 0.0
H939 H 0.42984 0.24171 0.68898 0.0
H940 H 0.42962 0.22429 0.68656 0.0
H941 H 0.39648 0.19391 0.69043 0.0
H942 H 0.39733 0.14628 0.71458 0.0
H943 H 0.39733 0.1636 0.71313 0.0
H944 H 0.43061 0.19356 0.70787 0.0
C945 C 0.42256 0.22431 0.69296 0.0
C946 C 0.40398 0.19395 0.69439 0.0
C947 C 0.42263 0.2343 0.69411 0.0
C948 C 0.40444 0.15343 0.70843 0.0
C949 C 0.40439 0.16336 0.70739 0.0
C950 C 0.42313 0.19351 0.70378 0.0
C951 C 0.41351 0.21448 0.69989 0.0
C952 C 0.41356 0.20386 0.69926 0.0
C953 C 0.41344 0.1729 0.69956 0.0
C954 C 0.41352 0.18359 0.69909 0.0
H955 H 0.39745 0.22492 0.71518 0.0
H956 H 0.39739 0.20759 0.71345 0.0
H957 H 0.43063 0.2109 0.70801 0.0
H958 H 0.4297 0.16203 0.68831 0.0
H959 H 0.42954 0.17928 0.68618 0.0
C960 C 0.94771 0.22938 0.66565 0.0
C961 C 0.95439 0.23357 0.68292 0.0
C962 C 0.93764 0.21955 0.66649 0.0
C963 C 0.92199 0.194 0.6966 0.0
H964 H 0.89716 0.19148 0.66647 0.0
C965 C 0.87837 0.15555 0.70241 0.0
C966 C 0.87218 0.15178 0.68448 0.0
C967 C 0.88827 0.1656 0.70288 0.0
C968 C 0.90403 0.19198 0.67481 0.0
H969 H 0.95553 0.23062 0.71476 0.0
H970 H 0.93799 0.21347 0.71622 0.0
H971 H 0.91453 0.20875 0.66611 0.0
H972 H 0.87182 0.15565 0.65285 0.0
H973 H 0.88898 0.17307 0.65368 0.0
H974 H 0.91148 0.1772 0.70521 0.0
C975 C 0.94062 0.21774 0.70192 0.0
C976 C 0.91402 0.20191 0.67461 0.0
C977 C 0.9507 0.2276 0.70108 0.0
C978 C 0.8762 0.15835 0.66705 0.0
C979 C 0.88609 0.16838 0.66752 0.0
C980 C 0.91199 0.18405 0.6968 0.0
C981 C 0.93393 0.21358 0.68463 0.0
C982 C 0.92318 0.20305 0.68539 0.0
C983 C 0.89228 0.17216 0.68543 0.0
C984 C 0.90288 0.18287 0.68578 0.0
H985 H 0.95034 0.23358 0.65128 0.0
H986 H 0.93284 0.21652 0.65277 0.0
H987 H 0.92888 0.1945 0.70488 0.0
H988 H 0.87549 0.1508 0.7162 0.0
H989 H 0.89272 0.16829 0.71702 0.0
C990 C 0.3944 0.99195 0.26117 0.0
C991 C 0.38712 0.98086 0.26591 0.0
C992 C 0.40115 0.99485 0.24415 0.0
C993 C 0.41319 0.98387 0.20752 0.0
H994 H 0.41876 0.00953 0.17633 0.0
C995 C 0.4379 0.99575 0.13264 0.0
C996 C 0.44551 1.00695 0.12957 0.0
C997 C 0.43045 0.99233 0.14871 0.0
C998 C 0.41738 1.0024 0.18497 0.0
H999 H 0.38126 0.96412 0.25612 0.0
H1000 H 0.39301 0.96918 0.22639 0.0
H1001 H 0.40641 1.00397 0.20515 0.0
H1002 H 0.451 0.02335 0.1409 0.0
H1003 H 0.43812 0.01741 0.16896 0.0
H1004 H 0.42419 0.98233 0.18729 0.0
C1005 C 0.39359 0.97565 0.23604 0.0
C1006 C 0.41029 0.9992 0.20155 0.0
C1007 C 0.38683 0.97274 0.25311 0.0
C1008 C 0.44535 0.01465 0.14288 0.0
C1009 C 0.43787 0.01125 0.15888 0.0
C1010 C 0.42027 0.98706 0.19089 0.0
C1011 C 0.40085 0.98676 0.2313 0.0
C1012 C 0.40815 0.98994 0.21318 0.0
C1013 C 0.43035 1.00003 0.16209 0.0
C1014 C 0.42253 0.99642 0.17946 0.0
H1015 H 0.39505 0.99844 0.27085 0.0
H1016 H 0.40677 1.00348 0.24129 0.0
H1017 H 0.41189 0.97679 0.21623 0.0
H1018 H 0.43784 0.98957 0.12283 0.0
H1019 H 0.42472 0.98364 0.15057 0.0
C1020 C 0.13847 0.38925 0.2439 0.0
C1021 C 0.13156 0.38102 0.25759 0.0
C1022 C 0.13411 0.39249 0.22803 0.0
C1023 C 0.10886 0.38292 0.19726 0.0
H1024 H 0.12281 0.41344 0.18068 0.0
C1025 C 0.09014 0.3976 0.13488 0.0
C1026 C 0.09738 0.40531 0.12079 0.0
C1027 C 0.09412 0.39499 0.15222 0.0
C1028 C 0.11887 0.40486 0.18496 0.0
H1029 H 0.11456 0.36982 0.26524 0.0
H1030 H 0.10694 0.3756 0.23777 0.0
H1031 H 0.12998 0.40825 0.20968 0.0
H1032 H 0.11456 0.41637 0.11416 0.0
H1033 H 0.12149 0.41185 0.14435 0.0
H1034 H 0.09779 0.37951 0.17247 0.0
C1035 C 0.11577 0.37947 0.23919 0.0
C1036 C 0.12298 0.40188 0.20164 0.0
C1037 C 0.12014 0.37623 0.25511 0.0
C1038 C 0.10872 0.41051 0.12477 0.0
C1039 C 0.1127 0.4079 0.14212 0.0
C1040 C 0.10474 0.3859 0.18059 0.0
C1041 C 0.12269 0.3876 0.22535 0.0
C1042 C 0.11807 0.39085 0.20797 0.0
C1043 C 0.10546 0.40002 0.15601 0.0
C1044 C 0.10971 0.39691 0.17413 0.0
H1045 H 0.14731 0.39324 0.24546 0.0
H1046 H 0.13972 0.3987 0.21762 0.0
H1047 H 0.10495 0.37433 0.20144 0.0
H1048 H 0.08135 0.39357 0.13255 0.0
H1049 H 0.08827 0.38906 0.16273 0.0
C1050 C 0.71869 0.71538 0.2579 0.0
C1051 C 0.72844 0.72555 0.25612 0.0
C1052 C 0.71509 0.70769 0.24217 0.0
C1053 C 0.7184 0.70538 0.18697 0.0
H1054 H 0.70433 0.67423 0.19866 0.0
C1055 C 0.70664 0.67261 0.12398 0.0
C1056 C 0.69655 0.66277 0.12591 0.0
C1057 C 0.71077 0.68027 0.13978 0.0
C1058 C 0.70814 0.68289 0.1951 0.0
H1059 H 0.74222 0.73539 0.23644 0.0
H1060 H 0.73601 0.72201 0.20914 0.0
H1061 H 0.71111 0.68741 0.22631 0.0
H1062 H 0.68277 0.65352 0.14599 0.0
H1063 H 0.68996 0.66679 0.1734 0.0
H1064 H 0.71542 0.70084 0.15575 0.0
C1065 C 0.731 0.72005 0.22254 0.0
C1066 C 0.71203 0.69047 0.211 0.0
C1067 C 0.73458 0.72774 0.23826 0.0
C1068 C 0.69068 0.66087 0.14405 0.0
C1069 C 0.69481 0.6685 0.15982 0.0
C1070 C 0.71452 0.69779 0.17106 0.0
C1071 C 0.72116 0.70993 0.2242 0.0
C1072 C 0.71718 0.70183 0.20719 0.0
C1073 C 0.70492 0.67831 0.15796 0.0
C1074 C 0.70929 0.68643 0.1749 0.0
H1075 H 0.71365 0.71345 0.27128 0.0
H1076 H 0.7074 0.70008 0.24394 0.0
H1077 H 0.72215 0.71404 0.1834 0.0
H1078 H 0.71147 0.67432 0.11038 0.0
H1079 H 0.71865 0.68765 0.13786 0.0
C1080 C 0.05363 0.39222 0.90538 0.0
C1081 C 0.05753 0.39033 0.9237 0.0
C1082 C 0.05054 0.38476 0.88937 0.0
C1083 C 0.04205 0.35575 0.87779 0.0
H1084 H 0.04843 0.36639 0.82265 0.0
C1085 C 0.03297 0.3263 0.81019 0.0
C1086 C 0.02863 0.32828 0.79251 0.0
C1087 C 0.03695 0.33397 0.82596 0.0
C1088 C 0.04647 0.36326 0.83793 0.0
H1089 H 0.06122 0.37898 0.93934 0.0
H1090 H 0.05603 0.36607 0.9113 0.0
H1091 H 0.05453 0.37947 0.85046 0.0
H1092 H 0.02511 0.33996 0.77772 0.0
H1093 H 0.03202 0.35329 0.80515 0.0
H1094 H 0.03395 0.33954 0.86526 0.0
C1095 C 0.05524 0.3733 0.90941 0.0
C1096 C 0.04998 0.37078 0.85393 0.0
C1097 C 0.05834 0.38078 0.92545 0.0
C1098 C 0.02853 0.33821 0.79094 0.0
C1099 C 0.0325 0.34587 0.80673 0.0
C1100 C 0.03854 0.34823 0.86179 0.0
C1101 C 0.05127 0.37517 0.89115 0.0
C1102 C 0.04778 0.36714 0.8741 0.0
C1103 C 0.03671 0.34383 0.82453 0.0
C1104 C 0.04066 0.35187 0.84162 0.0
H1105 H 0.05303 0.39955 0.9033 0.0
H1106 H 0.04742 0.38646 0.87567 0.0
H1107 H 0.04005 0.35261 0.89306 0.0
H1108 H 0.03336 0.31884 0.81182 0.0
H1109 H 0.0403 0.33218 0.83923 0.0
C1110 C 0.77923 0.66557 0.808 0.0
C1111 C 0.77952 0.67281 0.79295 0.0
C1112 C 0.77167 0.66224 0.82383 0.0
C1113 C 0.75382 0.6702 0.8515 0.0
H1114 H 0.74034 0.64041 0.87208 0.0
C1115 C 0.72037 0.65443 0.9135 0.0
C1116 C 0.72086 0.6477 0.92877 0.0
C1117 C 0.72703 0.65714 0.89634 0.0
C1118 C 0.74411 0.6488 0.86668 0.0
H1119 H 0.77192 0.68214 0.7829 0.0
H1120 H 0.7586 0.67617 0.81031 0.0
H1121 H 0.75273 0.64576 0.84334 0.0
H1122 H 0.72884 0.63856 0.93777 0.0
H1123 H 0.74042 0.64326 0.90794 0.0
H1124 H 0.74525 0.67326 0.87491 0.0
C1125 C 0.76434 0.67318 0.80998 0.0
C1126 C 0.75123 0.65188 0.85015 0.0
C1127 C 0.77191 0.67651 0.79409 0.0
C1128 C 0.72809 0.64362 0.92622 0.0
C1129 C 0.73476 0.64633 0.90907 0.0
C1130 C 0.7467 0.66712 0.86803 0.0
C1131 C 0.76414 0.66602 0.82513 0.0
C1132 C 0.75625 0.66264 0.84237 0.0
C1133 C 0.73439 0.6532 0.89393 0.0
C1134 C 0.74177 0.65639 0.87594 0.0
H1135 H 0.78484 0.66242 0.80752 0.0
H1136 H 0.77186 0.65682 0.83528 0.0
H1137 H 0.75764 0.6786 0.84618 0.0
H1138 H 0.71478 0.65759 0.91474 0.0
H1139 H 0.72634 0.66228 0.88488 0.0
C1140 C 0.45376 0.03789 0.91635 0.0
C1141 C 0.45881 0.0451 0.93266 0.0
C1142 C 0.4507 0.04137 0.8989 0.0
C1143 C 0.45545 0.06635 0.8707 0.0
H1144 H 0.42792 0.04598 0.84481 0.0
C1145 C 0.43709 0.07919 0.80406 0.0
C1146 C 0.43237 0.07167 0.78806 0.0
C1147 C 0.44029 0.0762 0.82199 0.0
C1148 C 0.43569 0.05175 0.8517 0.0
H1149 H 0.4646 0.06169 0.94322 0.0
H1150 H 0.45925 0.06775 0.91286 0.0
H1151 H 0.43369 0.04038 0.87512 0.0
H1152 H 0.4271 0.05497 0.77875 0.0
H1153 H 0.4328 0.04984 0.80968 0.0
H1154 H 0.45741 0.07773 0.84722 0.0
C1155 C 0.45779 0.05943 0.91343 0.0
C1156 C 0.43902 0.04852 0.86912 0.0
C1157 C 0.46087 0.05595 0.93088 0.0
C1158 C 0.43084 0.06105 0.79059 0.0
C1159 C 0.43399 0.05805 0.80848 0.0
C1160 C 0.45211 0.06959 0.85326 0.0
C1161 C 0.45258 0.05216 0.89724 0.0
C1162 C 0.44898 0.05574 0.87882 0.0
C1163 C 0.43878 0.06558 0.82444 0.0
C1164 C 0.44221 0.06231 0.84344 0.0
H1165 H 0.45221 0.02954 0.917 0.0
H1166 H 0.44692 0.03559 0.88663 0.0
H1167 H 0.46323 0.0721 0.87757 0.0
H1168 H 0.43846 0.08746 0.80263 0.0
H1169 H 0.44385 0.08218 0.83401 0.0
C1170 C 0.76843 0.08324 0.79566 0.0
C1171 C 0.77547 0.07904 0.79192 0.0
C1172 C 0.76086 0.07913 0.81149 0.0
C1173 C 0.75503 0.06398 0.86008 0.0
H1174 H 0.72619 0.06072 0.85299 0.0
C1175 C 0.72092 0.0443 0.92132 0.0
C1176 C 0.71427 0.04903 0.92421 0.0
C1177 C 0.7284 0.04766 0.90528 0.0
C1178 C 0.73425 0.06169 0.85535 0.0
H1179 H 0.77996 0.06713 0.80208 0.0
H1180 H 0.76663 0.05985 0.82951 0.0
H1181 H 0.73896 0.06689 0.82481 0.0
H1182 H 0.71066 0.06136 0.91276 0.0
H1183 H 0.72363 0.06719 0.88496 0.0
H1184 H 0.75031 0.05881 0.89069 0.0
C1185 C 0.76705 0.06642 0.82028 0.0
C1186 C 0.74159 0.06523 0.83913 0.0
C1187 C 0.77462 0.07051 0.80437 0.0
C1188 C 0.71545 0.05734 0.9108 0.0
C1189 C 0.72291 0.06069 0.8948 0.0
C1190 C 0.74768 0.06043 0.87633 0.0
C1191 C 0.76008 0.0707 0.82411 0.0
C1192 C 0.75212 0.06652 0.84128 0.0
C1193 C 0.72943 0.05585 0.89168 0.0
C1194 C 0.73721 0.05932 0.87424 0.0
H1195 H 0.76875 0.08972 0.78628 0.0
H1196 H 0.75573 0.08273 0.81406 0.0
H1197 H 0.76311 0.065 0.86242 0.0
H1198 H 0.72017 0.0378 0.93118 0.0
H1199 H 0.7332 0.04366 0.90327 0.0
C1200 C 0.03931 0.68071 0.80086 0.0
C1201 C 0.03317 0.67331 0.78538 0.0
C1202 C 0.04211 0.67705 0.81842 0.0
C1203 C 0.03454 0.65188 0.84863 0.0
H1204 H 0.06382 0.66918 0.87094 0.0
C1205 C 0.0513 0.63451 0.90959 0.0
C1206 C 0.05786 0.64151 0.92522 0.0
C1207 C 0.04818 0.6386 0.89311 0.0
C1208 C 0.05556 0.6643 0.86509 0.0
H1209 H 0.02495 0.65616 0.77661 0.0
H1210 H 0.02993 0.64982 0.807 0.0
H1211 H 0.0585 0.67588 0.84142 0.0
H1212 H 0.06618 0.65839 0.93562 0.0
H1213 H 0.06076 0.66553 0.90685 0.0
H1214 H 0.0316 0.64028 0.87221 0.0
C1215 C 0.03254 0.65846 0.80566 0.0
C1216 C 0.0525 0.66816 0.84812 0.0
C1217 C 0.02978 0.66213 0.78809 0.0
C1218 C 0.06125 0.65276 0.9238 0.0
C1219 C 0.05813 0.65686 0.90726 0.0
C1220 C 0.03759 0.64803 0.86558 0.0
C1221 C 0.0388 0.66588 0.82104 0.0
C1222 C 0.04196 0.66196 0.83956 0.0
C1223 C 0.05152 0.64983 0.8917 0.0
C1224 C 0.04817 0.65415 0.87399 0.0
H1225 H 0.04216 0.6894 0.79925 0.0
H1226 H 0.04684 0.68299 0.83001 0.0
H1227 H 0.02629 0.64697 0.84272 0.0
H1228 H 0.04871 0.62585 0.90988 0.0
H1229 H 0.04328 0.63296 0.88126 0.0
C1230 C 0.46712 0.38947 0.92001 0.0
C1231 C 0.45989 0.38608 0.93653 0.0
C1232 C 0.46432 0.38318 0.90229 0.0
C1233 C 0.44553 0.35499 0.88281 0.0
H1234 H 0.45268 0.3693 0.83052 0.0
C1235 C 0.42795 0.3309 0.80814 0.0
C1236 C 0.43479 0.3342 0.79107 0.0
C1237 C 0.43129 0.33711 0.82595 0.0
C1238 C 0.45074 0.36515 0.84498 0.0
H1239 H 0.44385 0.3735 0.94691 0.0
H1240 H 0.439 0.3626 0.9162 0.0
H1241 H 0.45798 0.38039 0.86114 0.0
H1242 H 0.45072 0.34649 0.77976 0.0
H1243 H 0.45653 0.35726 0.81074 0.0
H1244 H 0.43825 0.33976 0.86667 0.0
C1245 C 0.44695 0.37 0.91705 0.0
C1246 C 0.45378 0.37153 0.86259 0.0
C1247 C 0.44975 0.37628 0.93472 0.0
C1248 C 0.44514 0.34378 0.79245 0.0
C1249 C 0.44848 0.34999 0.81025 0.0
C1250 C 0.44248 0.34862 0.86521 0.0
C1251 C 0.45421 0.37333 0.90059 0.0
C1252 C 0.45118 0.36654 0.88177 0.0
C1253 C 0.44157 0.34679 0.82722 0.0
C1254 C 0.445 0.3536 0.84603 0.0
H1255 H 0.47505 0.39689 0.9209 0.0
H1256 H 0.47018 0.38595 0.89005 0.0
H1257 H 0.44355 0.35084 0.89728 0.0
H1258 H 0.41986 0.32368 0.80759 0.0
H1259 H 0.42567 0.33446 0.83857 0.0
C1260 C 0.13939 0.72557 0.2433 0.0
C1261 C 0.13255 0.72472 0.25947 0.0
C1262 C 0.1354 0.71805 0.22735 0.0
C1263 C 0.1096 0.69782 0.2018 0.0
H1264 H 0.12838 0.6883 0.17716 0.0
C1265 C 0.09419 0.66541 0.13749 0.0
C1266 C 0.10142 0.66748 0.12129 0.0
C1267 C 0.09779 0.67177 0.15511 0.0
C1268 C 0.12305 0.69094 0.18372 0.0
H1269 H 0.11608 0.71513 0.27141 0.0
H1270 H 0.10915 0.70189 0.24372 0.0
H1271 H 0.13492 0.70042 0.20639 0.0
H1272 H 0.11822 0.67771 0.11135 0.0
H1273 H 0.12444 0.68886 0.14183 0.0
H1274 H 0.09776 0.68839 0.17902 0.0
C1275 C 0.1176 0.70849 0.24329 0.0
C1276 C 0.12681 0.69791 0.20053 0.0
C1277 C 0.12161 0.71602 0.25931 0.0
C1278 C 0.11239 0.67595 0.12338 0.0
C1279 C 0.11599 0.68228 0.14101 0.0
C1280 C 0.10584 0.69083 0.18499 0.0
C1281 C 0.12444 0.70941 0.22705 0.0
C1282 C 0.12019 0.70154 0.2097 0.0
C1283 C 0.10873 0.68034 0.15708 0.0
C1284 C 0.11254 0.68738 0.17559 0.0
H1285 H 0.14789 0.73205 0.24299 0.0
H1286 H 0.14089 0.71913 0.21505 0.0
H1287 H 0.10432 0.70054 0.20826 0.0
H1288 H 0.08567 0.65903 0.13638 0.0
H1289 H 0.09199 0.66995 0.16724 0.0
C1290 C 0.38195 0.37463 0.24458 0.0
C1291 C 0.38317 0.38139 0.26116 0.0
C1292 C 0.3896 0.37847 0.22883 0.0
C1293 C 0.41102 0.40429 0.2051 0.0
H1294 H 0.41984 0.38522 0.17935 0.0
C1295 C 0.44617 0.42077 0.14668 0.0
C1296 C 0.44488 0.41426 0.12964 0.0
C1297 C 0.43872 0.41663 0.16271 0.0
C1298 C 0.41737 0.39063 0.1862 0.0
H1299 H 0.39353 0.39755 0.27405 0.0
H1300 H 0.40695 0.40416 0.24682 0.0
H1301 H 0.40689 0.37828 0.20737 0.0
H1302 H 0.43461 0.3982 0.11632 0.0
H1303 H 0.42165 0.39097 0.1443 0.0
H1304 H 0.42146 0.41663 0.18395 0.0
C1305 C 0.39999 0.3959 0.24588 0.0
C1306 C 0.40994 0.38664 0.20231 0.0
C1307 C 0.39235 0.39206 0.26166 0.0
C1308 C 0.43597 0.40343 0.12924 0.0
C1309 C 0.42851 0.39927 0.14533 0.0
C1310 C 0.41844 0.40827 0.18901 0.0
C1311 C 0.39869 0.38919 0.22916 0.0
C1312 C 0.40666 0.39342 0.21203 0.0
C1313 C 0.42976 0.40583 0.16226 0.0
C1314 C 0.42175 0.40151 0.17934 0.0
H1315 H 0.37505 0.36633 0.24376 0.0
H1316 H 0.38826 0.37308 0.21617 0.0
H1317 H 0.40854 0.4097 0.21191 0.0
H1318 H 0.45304 0.42906 0.14779 0.0
H1319 H 0.4401 0.42186 0.17563 0.0
C1320 C 0.70629 0.01351 0.13385 0.0
C1321 C 0.70077 1.00633 0.1177 0.0
C1322 C 0.70925 0.00979 0.15115 0.0
C1323 C 0.7141 0.98738 0.16848 0.0
H1324 H 0.71265 0.99756 0.22206 0.0
C1325 C 0.72069 0.96771 0.23985 0.0
C1326 C 0.72695 0.97467 0.25578 0.0
C1327 C 0.71736 0.97173 0.22357 0.0
C1328 C 0.71322 0.99472 0.20719 0.0
H1329 H 0.69365 0.98947 0.10759 0.0
H1330 H 0.69873 0.983 0.13764 0.0
H1331 H 0.707 1.0042 0.19282 0.0
H1332 H 0.73446 0.99136 0.26701 0.0
H1333 H 0.72862 0.99838 0.23858 0.0
H1334 H 0.72031 0.9779 0.18275 0.0
C1335 C 0.70102 0.99158 0.1368 0.0
C1336 C 0.70998 0.99853 0.19039 0.0
C1337 C 0.69808 0.99529 0.11953 0.0
C1338 C 0.72958 0.98573 0.25513 0.0
C1339 C 0.72622 0.98976 0.2388 0.0
C1340 C 0.71733 0.98356 0.18524 0.0
C1341 C 0.70677 0.99879 0.15277 0.0
C1342 C 0.71032 0.99487 0.17079 0.0
C1343 C 0.72016 0.98283 0.22269 0.0
C1344 C 0.71688 0.98712 0.20485 0.0
H1345 H 0.70861 0.02209 0.1329 0.0
H1346 H 0.71377 0.01563 0.16301 0.0
H1347 H 0.71473 0.98454 0.15364 0.0
H1348 H 0.71828 0.95909 0.24 0.0
H1349 H 0.71249 0.96608 0.21171 0.0
C1350 C 0.09955 0.33057 0.45753 0.0
C1351 C 0.10618 0.34186 0.45343 0.0
C1352 C 0.09302 0.32694 0.47494 0.0
C1353 C 0.0804 0.33638 0.51341 0.0
H1354 H 0.07678 0.31125 0.54406 0.0
C1355 C 0.06048 0.32605 0.59238 0.0
C1356 C 0.05356 0.31497 0.59766 0.0
C1357 C 0.0665 0.32892 0.57444 0.0
C1358 C 0.07758 0.3182 0.53554 0.0
H1359 H 0.11144 0.35816 0.46504 0.0
H1360 H 0.10016 0.35188 0.49526 0.0
H1361 H 0.0882 0.31702 0.51383 0.0
H1362 H 0.04756 0.2982 0.58792 0.0
H1363 H 0.05798 0.30322 0.55641 0.0
H1364 H 0.06984 0.33761 0.53509 0.0
C1365 C 0.09978 0.34579 0.48481 0.0
C1366 C 0.08415 0.32152 0.51818 0.0
C1367 C 0.10628 0.34941 0.46744 0.0
C1368 C 0.05274 0.30682 0.58431 0.0
C1369 C 0.05882 0.3097 0.56633 0.0
C1370 C 0.07385 0.33307 0.53073 0.0
C1371 C 0.09296 0.33451 0.48872 0.0
C1372 C 0.08573 0.33072 0.50696 0.0
C1373 C 0.0658 0.32081 0.56116 0.0
C1374 C 0.07241 0.32399 0.54216 0.0
H1375 H 0.09914 0.3245 0.447 0.0
H1376 H 0.08781 0.31819 0.4773 0.0
H1377 H 0.08121 0.34335 0.50495 0.0
H1378 H 0.06123 0.33256 0.60211 0.0
H1379 H 0.07187 0.33755 0.57114 0.0
C1380 C 0.78096 0.71149 0.59614 0.0
C1381 C 0.79161 0.71314 0.5989 0.0
C1382 C 0.77803 0.71471 0.57825 0.0
C1383 C 0.78974 0.73308 0.53379 0.0
H1384 H 0.7607 0.71459 0.51127 0.0
C1385 C 0.77653 0.74177 0.45565 0.0
C1386 C 0.76569 0.7397 0.45358 0.0
C1387 C 0.77991 0.73872 0.47326 0.0
C1388 C 0.7688 0.71994 0.51745 0.0
H1389 H 0.80751 0.71952 0.58473 0.0
H1390 H 0.80234 0.725 0.55335 0.0
H1391 H 0.76617 0.7088 0.54172 0.0
H1392 H 0.75006 0.73311 0.46889 0.0
H1393 H 0.75595 0.72786 0.49951 0.0
H1394 H 0.79235 0.74424 0.50949 0.0
C1395 C 0.79629 0.7213 0.5652 0.0
C1396 C 0.77195 0.7166 0.53496 0.0
C1397 C 0.79922 0.71805 0.58313 0.0
C1398 C 0.75841 0.73467 0.46976 0.0
C1399 C 0.76179 0.73163 0.48735 0.0
C1400 C 0.78658 0.73643 0.51625 0.0
C1401 C 0.78564 0.71968 0.56251 0.0
C1402 C 0.78244 0.72315 0.54347 0.0
C1403 C 0.77257 0.73352 0.48931 0.0
C1404 C 0.77604 0.72993 0.50789 0.0
H1405 H 0.77482 0.7076 0.60779 0.0
H1406 H 0.7698 0.71343 0.57689 0.0
H1407 H 0.79783 0.73842 0.54001 0.0
H1408 H 0.78233 0.7455 0.44343 0.0
H1409 H 0.78823 0.7402 0.47406 0.0
C1410 C 0.36554 0.99409 0.4793 0.0
C1411 C 0.36232 0.99677 0.46099 0.0
C1412 C 0.36957 1.00159 0.49533 0.0
C1413 C 0.38156 0.03129 0.50724 0.0
H1414 H 0.37253 0.0208 0.5619 0.0
C1415 C 0.38972 0.06101 0.57377 0.0
C1416 C 0.39286 0.05867 0.59252 0.0
C1417 C 0.38625 0.05343 0.55791 0.0
C1418 C 0.37525 0.02387 0.54677 0.0
H1419 H 0.36106 0.00963 0.44519 0.0
H1420 H 0.3679 0.02262 0.47314 0.0
H1421 H 0.36614 1.00776 0.53398 0.0
H1422 H 0.39482 0.04641 0.60906 0.0
H1423 H 0.38873 0.03318 0.58143 0.0
H1424 H 0.39062 0.04741 0.51999 0.0
C1425 C 0.3674 0.01473 0.4751 0.0
C1426 C 0.37158 0.01637 0.53072 0.0
C1427 C 0.36335 1.00722 0.4591 0.0
C1428 C 0.39234 0.04847 0.59496 0.0
C1429 C 0.38885 0.04087 0.57908 0.0
C1430 C 0.38522 0.03879 0.52327 0.0
C1431 C 0.37052 0.01202 0.49349 0.0
C1432 C 0.37464 0.01998 0.5107 0.0
C1433 C 0.38578 0.04325 0.5603 0.0
C1434 C 0.38208 0.0352 0.54327 0.0
H1435 H 0.36476 0.98609 0.48143 0.0
H1436 H 0.37199 0.99924 0.50915 0.0
H1437 H 0.38426 0.03438 0.49211 0.0
H1438 H 0.38977 0.06865 0.57139 0.0
H1439 H 0.38376 0.05549 0.54383 0.0
C1440 C 0.76727 0.01189 0.4538 0.0
C1441 C 0.76739 1.00198 0.45204 0.0
C1442 C 0.77061 0.01801 0.47167 0.0
C1443 C 0.77503 0.01589 0.52646 0.0
H1444 H 0.79204 0.04766 0.52326 0.0
C1445 C 0.79367 0.04292 0.59769 0.0
C1446 C 0.79326 0.05271 0.59891 0.0
C1447 C 0.79089 0.03684 0.57977 0.0
C1448 C 0.7872 0.03881 0.52447 0.0
H1449 H 0.77119 0.99079 0.46798 0.0
H1450 H 0.77701 1.00144 0.49918 0.0
H1451 H 0.78644 0.03683 0.49235 0.0
H1452 H 0.78957 0.0637 0.58198 0.0
H1453 H 0.78474 0.05312 0.55079 0.0
H1454 H 0.77575 0.01787 0.55858 0.0
C1455 C 0.7742 1.00443 0.48673 0.0
C1456 C 0.78397 0.03257 0.5067 0.0
C1457 C 0.77086 0.99831 0.46881 0.0
C1458 C 0.79015 0.05631 0.58157 0.0
C1459 C 0.78736 0.05022 0.56364 0.0
C1460 C 0.77825 0.02212 0.54424 0.0
C1461 C 0.77417 0.0144 0.48839 0.0
C1462 C 0.7778 0.02102 0.50742 0.0
C1463 C 0.78761 0.04034 0.5625 0.0
C1464 C 0.78435 0.03368 0.54351 0.0
H1465 H 0.76444 0.01489 0.44141 0.0
H1466 H 0.77025 0.02551 0.47247 0.0
H1467 H 0.77016 1.00703 0.52765 0.0
H1468 H 0.7962 0.03998 0.61061 0.0
H1469 H 0.79139 0.0294 0.57941 0.0
C1470 C 0.10176 0.74528 0.46104 0.0
C1471 C 0.10652 0.73887 0.45603 0.0
C1472 C 0.09509 0.74283 0.47814 0.0
C1473 C 0.08778 0.72732 0.52677 0.0
H1474 H 0.06137 0.7293 0.52212 0.0
C1475 C 0.05344 0.70966 0.58758 0.0
C1476 C 0.0481 0.71562 0.59188 0.0
C1477 C 0.06094 0.7128 0.57162 0.0
C1478 C 0.06877 0.72883 0.52381 0.0
H1479 H 0.10823 0.72503 0.46568 0.0
H1480 H 0.09648 0.72066 0.49518 0.0
H1481 H 0.07375 0.73432 0.49349 0.0
H1482 H 0.04689 0.72986 0.58308 0.0
H1483 H 0.05991 0.73529 0.5554 0.0
H1484 H 0.08273 0.72176 0.55709 0.0
C1485 C 0.09795 0.72764 0.48597 0.0
C1486 C 0.07591 0.73172 0.50734 0.0
C1487 C 0.1046 0.73008 0.46887 0.0
C1488 C 0.05064 0.72492 0.58001 0.0
C1489 C 0.05813 0.72804 0.56408 0.0
C1490 C 0.08064 0.72442 0.54326 0.0
C1491 C 0.093 0.73391 0.49076 0.0
C1492 C 0.08551 0.73101 0.50855 0.0
C1493 C 0.06332 0.72198 0.55952 0.0
C1494 C 0.07102 0.72513 0.54202 0.0
H1495 H 0.10296 0.75205 0.45147 0.0
H1496 H 0.09156 0.74794 0.48146 0.0
H1497 H 0.09517 0.7268 0.5284 0.0
H1498 H 0.05161 0.70239 0.59621 0.0
H1499 H 0.06467 0.70784 0.56846 0.0
C1500 C 0.36126 0.32813 0.46055 0.0
C1501 C 0.36575 0.33941 0.45653 0.0
C1502 C 0.3641 0.32454 0.47812 0.0
C1503 C 0.38575 0.33377 0.51758 0.0
H1504 H 0.36403 0.30784 0.54595 0.0
C1505 C 0.39547 0.31927 0.59326 0.0
C1506 C 0.39113 0.30789 0.59587 0.0
C1507 C 0.39225 0.32335 0.57683 0.0
C1508 C 0.37024 0.31504 0.53811 0.0
H1509 H 0.37677 0.35574 0.46811 0.0
H1510 H 0.38157 0.34948 0.49887 0.0
H1511 H 0.35857 0.3145 0.51659 0.0
H1512 H 0.38011 0.29194 0.58277 0.0
H1513 H 0.3745 0.29903 0.55435 0.0
H1514 H 0.39743 0.33428 0.53906 0.0
C1515 C 0.37592 0.3434 0.4883 0.0
C1516 C 0.3671 0.31886 0.52123 0.0
C1517 C 0.37305 0.34699 0.47075 0.0
C1518 C 0.38348 0.30074 0.58156 0.0
C1519 C 0.38026 0.30481 0.56519 0.0
C1520 C 0.38889 0.32995 0.53448 0.0
C1521 C 0.37154 0.33212 0.49219 0.0
C1522 C 0.37482 0.32825 0.51063 0.0
C1523 C 0.38459 0.31618 0.56256 0.0
C1524 C 0.38119 0.32048 0.54491 0.0
H1525 H 0.35552 0.32204 0.4501 0.0
H1526 H 0.36062 0.31579 0.48045 0.0
H1527 H 0.39197 0.34093 0.50967 0.0
H1528 H 0.40126 0.32504 0.60407 0.0
H1529 H 0.39567 0.33214 0.57548 0.0
loop_
_geom_bond_atom_site_label_1
_geom_bond_atom_site_label_2
_geom_bond_distance
_geom_bond_site_symmetry_2
_ccdc_geom_bond_type
C0 C1 1.264 . S
C0 C5 1.479 . S
C0 C10 1.465 . S
C1 C0 1.264 . S
C1 C3 1.339 . S
C1 H28 0.931 . S
C2 C3 1.395 . S
C2 C4 1.320 . S
C3 C1 1.339 . S
C3 C2 1.395 . S
C3 H29 0.929 . S
C4 C2 1.320 . S
C4 C5 1.405 . S
C4 H30 0.880 1_545 S
C5 C0 1.479 . S
C5 C4 1.405 . S
C5 H31 0.931 . S
U6 O7 2.454 . S
U6 O8 2.458 . S
U6 C9 2.984 . S
U6 C10 2.847 . S
U6 C23 2.882 1_554 S
U6 O24 2.441 . S
U6 O25 2.420 . S
U6 O26 2.455 1_554 S
U6 O27 2.449 . S
O7 U6 2.454 . S
O7 C9 1.353 . S
O8 U6 2.458 . S
O8 C9 1.286 . S
C9 U6 2.984 . S
C9 O7 1.353 . S
C9 O8 1.286 . S
C9 C11 1.363 . S
C10 C0 1.465 . S
C10 U6 2.847 . S
C10 O24 1.249 . S
C10 O25 1.202 . S
C11 C9 1.363 . S
C11 C13 1.408 . S
C11 C16 1.342 . S
C12 C13 1.310 . S
C12 C15 1.461 . S
C12 H32 0.932 . S
C13 C11 1.408 . S
C13 C12 1.310 . S
C13 H33 0.930 . S
C14 C15 1.486 . S
C14 C16 1.287 . S
C14 H34 0.916 1_554 S
C15 C12 1.461 . S
C15 C14 1.486 . S
C16 C11 1.342 . S
C16 C14 1.287 . S
C16 H35 0.930 1_554 S
C17 C20 1.424 . S
C17 C22 1.245 . S
C17 C23 1.428 . S
C18 C21 1.260 . S
C18 C22 1.477 . S
C18 H36 0.932 . S
C19 C20 1.384 . S
C19 C21 1.479 . S
C19 H37 0.929 . S
C20 C17 1.424 . S
C20 C19 1.384 . S
C20 H38 0.928 . S
C21 C18 1.260 . S
C21 C19 1.479 . S
C22 C17 1.245 . S
C22 C18 1.477 . S
C22 H39 0.932 . S
C23 U6 2.882 1_556 S
C23 C17 1.428 . S
C23 O26 1.301 . S
C23 O27 1.282 1_556 S
O24 U6 2.441 . S
O24 C10 1.249 . S
O25 U6 2.420 . S
O25 C10 1.202 . S
O26 U6 2.455 1_556 S
O26 C23 1.301 . S
O27 U6 2.449 . S
O27 C23 1.282 1_554 S
H28 C1 0.931 . S
H29 C3 0.929 . S
H30 C4 0.880 1_565 S
H31 C5 0.931 . S
H32 C12 0.932 . S
H33 C13 0.930 . S
H34 C14 0.916 1_556 S
H35 C16 0.930 1_556 S
H36 C18 0.932 . S
H37 C19 0.929 . S
H38 C20 0.928 . S
H39 C22 0.932 . S
C40 C41 1.264 . S
C40 C45 1.479 . S
C40 C50 1.465 . S
C41 C40 1.264 . S
C41 C43 1.339 . S
C41 H68 0.931 . S
C42 C43 1.395 . S
C42 C44 1.320 . S
C43 C41 1.339 . S
C43 C42 1.395 . S
C43 H69 0.929 . S
C44 C42 1.320 . S
C44 C45 1.405 . S
C44 H70 0.930 . S
C45 C40 1.479 . S
C45 C44 1.405 . S
C45 H71 0.931 . S
U46 O47 2.454 1_554 S
U46 O48 2.458 . S
U46 C49 2.984 . S
U46 C50 2.847 1_554 S
U46 C63 2.882 . S
U46 O64 2.441 1_554 S
U46 O65 2.420 1_554 S
U46 O66 2.455 . S
U46 O67 2.449 . S
O47 U46 2.454 1_556 S
O47 C49 1.353 1_556 S
O48 U46 2.458 . S
O48 C49 1.286 . S
C49 U46 2.984 . S
C49 O47 1.353 1_554 S
C49 O48 1.286 . S
C49 C51 1.363 . S
C50 C40 1.465 . S
C50 U46 2.847 1_556 S
C50 O64 1.249 . S
C50 O65 1.202 . S
C51 C49 1.363 . S
C51 C53 1.408 1_554 S
C51 C56 1.342 . S
C52 C53 1.310 . S
C52 C55 1.461 1_556 S
C52 H72 0.932 . S
C53 C51 1.408 1_556 S
C53 C52 1.310 . S
C53 H73 0.930 . S
C54 C55 1.474 . S
C54 C56 1.285 . S
C54 H74 0.929 . S
C55 C52 1.461 1_554 S
C55 C54 1.474 . S
C56 C51 1.342 . S
C56 C54 1.285 . S
C56 H75 0.930 . S
C57 C60 1.424 . S
C57 C62 1.245 . S
C57 C63 1.428 . S
C58 C61 1.260 . S
C58 C62 1.477 . S
C58 H76 0.932 . S
C59 C60 1.384 . S
C59 C61 1.479 . S
C59 H77 0.929 . S
C60 C57 1.424 . S
C60 C59 1.384 . S
C60 H78 0.928 . S
C61 C58 1.260 . S
C61 C59 1.479 . S
C62 C57 1.245 . S
C62 C58 1.477 . S
C62 H79 0.932 . S
C63 U46 2.882 . S
C63 C57 1.428 . S
C63 O66 1.301 . S
C63 O67 1.282 . S
O64 U46 2.441 1_556 S
O64 C50 1.249 . S
O65 U46 2.420 1_556 S
O65 C50 1.202 . S
O66 U46 2.455 . S
O66 C63 1.301 . S
O67 U46 2.449 . S
O67 C63 1.282 . S
H68 C41 0.931 . S
H69 C43 0.929 . S
H70 C44 0.930 . S
H71 C45 0.931 . S
H72 C52 0.932 . S
H73 C53 0.930 . S
H74 C54 0.929 . S
H75 C56 0.930 . S
H76 C58 0.932 . S
H77 C59 0.929 . S
H78 C60 0.928 . S
H79 C62 0.932 . S
C80 C81 1.264 . S
C80 C85 1.479 . S
C80 C90 1.465 . S
C81 C80 1.264 . S
C81 C83 1.339 . S
C81 H108 0.931 . S
C82 C83 1.395 . S
C82 C84 1.320 . S
C83 C81 1.339 . S
C83 C82 1.395 . S
C83 H109 0.929 . S
C84 C82 1.320 . S
C84 C85 1.405 . S
C84 H110 0.930 . S
C85 C80 1.479 . S
C85 C84 1.405 . S
C85 H111 0.931 . S
U86 O87 2.454 . S
U86 O88 2.458 1_554 S
U86 C89 2.984 . S
U86 C90 2.847 . S
U86 C103 2.882 1_554 S
U86 O104 2.441 . S
U86 O105 2.420 . S
U86 O106 2.455 1_554 S
U86 O107 2.449 1_554 S
O87 U86 2.454 . S
O87 C89 1.353 . S
O88 U86 2.458 1_556 S
O88 C89 1.286 1_556 S
C89 U86 2.984 . S
C89 O87 1.353 . S
C89 O88 1.286 1_554 S
C89 C91 1.363 . S
C90 C80 1.465 . S
C90 U86 2.847 . S
C90 O104 1.249 . S
C90 O105 1.202 . S
C91 C89 1.363 . S
C91 C93 1.408 . S
C91 C96 1.342 1_554 S
C92 C93 1.310 . S
C92 C95 1.461 . S
C92 H112 0.932 . S
C93 C91 1.408 . S
C93 C92 1.310 . S
C93 H113 0.930 . S
C94 C95 1.474 1_556 S
C94 C96 1.285 . S
C94 H114 0.929 . S
C95 C92 1.461 . S
C95 C94 1.474 1_554 S
C96 C91 1.342 1_556 S
C96 C94 1.285 . S
C96 H115 0.930 . S
C97 C100 1.424 . S
C97 C102 1.245 . S
C97 C103 1.428 . S
C98 C101 1.260 . S
C98 C102 1.477 . S
C98 H116 0.932 . S
C99 C100 1.384 . S
C99 C101 1.479 . S
C99 H117 0.929 . S
C100 C97 1.424 . S
C100 C99 1.384 . S
C100 H118 0.928 . S
C101 C98 1.260 . S
C101 C99 1.479 . S
C102 C97 1.245 . S
C102 C98 1.477 . S
C102 H119 0.932 . S
C103 U86 2.882 1_556 S
C103 C97 1.428 . S
C103 O106 1.301 . S
C103 O107 1.282 . S
O104 U86 2.441 . S
O104 C90 1.249 . S
O105 U86 2.420 . S
O105 C90 1.202 . S
O106 U86 2.455 1_556 S
O106 C103 1.301 . S
O107 U86 2.449 1_556 S
O107 C103 1.282 . S
H108 C81 0.931 . S
H109 C83 0.929 . S
H110 C84 0.930 . S
H111 C85 0.931 . S
H112 C92 0.932 . S
H113 C93 0.930 . S
H114 C94 0.929 . S
H115 C96 0.930 . S
H116 C98 0.932 . S
H117 C99 0.929 . S
H118 C100 0.928 . S
H119 C102 0.932 . S
C120 C121 1.264 . S
C120 C125 1.479 . S
C120 C130 1.465 . S
C121 C120 1.264 . S
C121 C123 1.339 . S
C121 H148 0.931 . S
C122 C123 1.395 . S
C122 C124 1.320 . S
C123 C121 1.339 . S
C123 C122 1.395 . S
C123 H149 0.929 . S
C124 C122 1.320 . S
C124 C125 1.405 . S
C124 H150 0.930 . S
C125 C120 1.479 . S
C125 C124 1.405 . S
C125 H151 0.931 . S
U126 O127 2.454 1_554 S
U126 O128 2.458 . S
U126 C129 2.984 . S
U126 C130 2.847 1_554 S
U126 C143 2.882 . S
U126 O144 2.441 1_554 S
U126 O145 2.420 1_554 S
U126 O146 2.455 . S
U126 O147 2.449 . S
O127 U126 2.454 1_556 S
O127 C129 1.353 1_556 S
O128 U126 2.458 . S
O128 C129 1.286 . S
C129 U126 2.984 . S
C129 O127 1.353 1_554 S
C129 O128 1.286 . S
C129 C131 1.363 . S
C130 C120 1.465 . S
C130 U126 2.847 1_556 S
C130 O144 1.249 . S
C130 O145 1.202 . S
C131 C129 1.363 . S
C131 C133 1.408 1_554 S
C131 C136 1.342 . S
C132 C133 1.310 . S
C132 C135 1.461 1_556 S
C132 H152 0.932 . S
C133 C131 1.408 1_556 S
C133 C132 1.310 . S
C133 H153 0.930 . S
C134 C135 1.474 . S
C134 C136 1.285 . S
C134 H154 0.929 . S
C135 C132 1.461 1_554 S
C135 C134 1.474 . S
C136 C131 1.342 . S
C136 C134 1.285 . S
C136 H155 0.930 . S
C137 C140 1.424 . S
C137 C142 1.245 . S
C137 C143 1.428 . S
C138 C141 1.260 . S
C138 C142 1.477 . S
C138 H156 0.932 . S
C139 C140 1.384 . S
C139 C141 1.479 . S
C139 H157 0.929 . S
C140 C137 1.424 . S
C140 C139 1.384 . S
C140 H158 0.928 . S
C141 C138 1.260 . S
C141 C139 1.479 . S
C142 C137 1.245 . S
C142 C138 1.477 . S
C142 H159 0.932 . S
C143 U126 2.882 . S
C143 C137 1.428 . S
C143 O146 1.301 . S
C143 O147 1.282 . S
O144 U126 2.441 1_556 S
O144 C130 1.249 . S
O145 U126 2.420 1_556 S
O145 C130 1.202 . S
O146 U126 2.455 . S
O146 C143 1.301 . S
O147 U126 2.449 . S
O147 C143 1.282 . S
H148 C121 0.931 . S
H149 C123 0.929 . S
H150 C124 0.930 . S
H151 C125 0.931 . S
H152 C132 0.932 . S
H153 C133 0.930 . S
H154 C134 0.929 . S
H155 C136 0.930 . S
H156 C138 0.932 . S
H157 C139 0.929 . S
H158 C140 0.928 . S
H159 C142 0.932 . S
C160 C161 1.264 . S
C160 C165 1.479 . S
C160 C170 1.465 . S
C161 C160 1.264 . S
C161 C163 1.339 . S
C161 H188 0.931 . S
C162 C163 1.395 . S
C162 C164 1.320 . S
C163 C161 1.339 . S
C163 C162 1.395 . S
C163 H189 0.929 . S
C164 C162 1.320 . S
C164 C165 1.405 . S
C164 H190 0.930 . S
C165 C160 1.479 . S
C165 C164 1.405 . S
C165 H191 0.931 . S
U166 O167 2.433 1_554 S
U166 O168 2.458 . S
U166 C169 2.984 . S
U166 C170 2.847 1_554 S
U166 C183 2.882 . S
U166 O184 2.441 1_554 S
U166 O185 2.420 1_554 S
U166 O186 2.455 . S
U166 O187 2.449 . S
O167 U166 2.433 1_556 S
O167 C169 1.318 1_556 S
O168 U166 2.458 . S
O168 C169 1.286 . S
C169 U166 2.984 . S
C169 O167 1.318 1_554 S
C169 O168 1.286 . S
C169 C171 1.363 . S
C170 C160 1.465 . S
C170 U166 2.847 1_556 S
C170 O184 1.249 . S
C170 O185 1.202 . S
C171 C169 1.363 . S
C171 C173 1.408 1_554 S
C171 C176 1.342 . S
C172 C173 1.310 . S
C172 C175 1.461 1_556 S
C172 H192 0.932 . S
C173 C171 1.408 1_556 S
C173 C172 1.310 . S
C173 H193 0.930 . S
C174 C175 1.474 . S
C174 C176 1.285 . S
C174 H194 0.929 . S
C175 C172 1.461 1_554 S
C175 C174 1.474 . S
C176 C171 1.342 . S
C176 C174 1.285 . S
C176 H195 0.930 . S
C177 C180 1.424 . S
C177 C182 1.245 . S
C177 C183 1.428 . S
C178 C181 1.260 . S
C178 C182 1.477 . S
C178 H196 0.932 . S
C179 C180 1.384 . S
C179 C181 1.479 . S
C179 H197 0.929 . S
C180 C177 1.424 . S
C180 C179 1.384 . S
C180 H198 0.928 . S
C181 C178 1.260 . S
C181 C179 1.479 . S
C182 C177 1.245 . S
C182 C178 1.477 . S
C182 H199 0.932 . S
C183 U166 2.882 . S
C183 C177 1.428 . S
C183 O186 1.301 . S
C183 O187 1.282 . S
O184 U166 2.441 1_556 S
O184 C170 1.249 . S
O185 U166 2.420 1_556 S
O185 C170 1.202 . S
O186 U166 2.455 . S
O186 C183 1.301 . S
O187 U166 2.449 . S
O187 C183 1.282 . S
H188 C161 0.931 . S
H189 C163 0.929 . S
H190 C164 0.930 . S
H191 C165 0.931 . S
H192 C172 0.932 . S
H193 C173 0.930 . S
H194 C174 0.929 . S
H195 C176 0.930 . S
H196 C178 0.932 . S
H197 C179 0.929 . S
H198 C180 0.928 . S
H199 C182 0.932 . S
C200 C201 1.264 . S
C200 C205 1.479 . S
C200 C210 1.465 . S
C201 C200 1.264 . S
C201 C203 1.339 . S
C201 H228 0.931 . S
C202 C203 1.395 . S
C202 C204 1.320 . S
C203 C201 1.339 . S
C203 C202 1.395 . S
C203 H229 0.929 . S
C204 C202 1.320 . S
C204 C205 1.405 . S
C204 H230 0.930 . S
C205 C200 1.479 . S
C205 C204 1.405 . S
C205 H231 0.931 . S
U206 O207 2.454 . S
U206 O208 2.458 . S
U206 C209 2.984 . S
U206 C210 2.847 . S
U206 C223 2.882 1_554 S
U206 O224 2.441 . S
U206 O225 2.420 . S
U206 O226 2.455 1_554 S
U206 O227 2.449 1_554 S
O207 U206 2.454 . S
O207 C209 1.353 . S
O208 U206 2.458 . S
O208 C209 1.286 . S
C209 U206 2.984 . S
C209 O207 1.353 . S
C209 O208 1.286 . S
C209 C211 1.363 . S
C210 C200 1.465 . S
C210 U206 2.847 . S
C210 O224 1.249 . S
C210 O225 1.202 . S
C211 C209 1.363 . S
C211 C213 1.408 . S
C211 C216 1.374 . S
C212 C213 1.310 . S
C212 C215 1.461 . S
C212 H232 0.932 . S
C213 C211 1.408 . S
C213 C212 1.310 . S
C213 H233 0.930 . S
C214 C215 1.462 1_556 S
C214 C216 1.284 1_556 S
C214 H234 0.942 . S
C215 C212 1.461 . S
C215 C214 1.462 1_554 S
C216 C211 1.374 . S
C216 C214 1.284 1_554 S
C216 H235 0.901 1_554 S
C217 C220 1.424 . S
C217 C222 1.245 . S
C217 C223 1.428 . S
C218 C221 1.260 . S
C218 C222 1.477 . S
C218 H236 0.932 . S
C219 C220 1.384 . S
C219 C221 1.479 . S
C219 H237 0.929 . S
C220 C217 1.424 . S
C220 C219 1.384 . S
C220 H238 0.928 . S
C221 C218 1.260 . S
C221 C219 1.479 . S
C222 C217 1.245 . S
C222 C218 1.477 . S
C222 H239 0.932 . S
C223 U206 2.882 1_556 S
C223 C217 1.428 . S
C223 O226 1.301 . S
C223 O227 1.282 . S
O224 U206 2.441 . S
O224 C210 1.249 . S
O225 U206 2.420 . S
O225 C210 1.202 . S
O226 U206 2.455 1_556 S
O226 C223 1.301 . S
O227 U206 2.449 1_556 S
O227 C223 1.282 . S
H228 C201 0.931 . S
H229 C203 0.929 . S
H230 C204 0.930 . S
H231 C205 0.931 . S
H232 C212 0.932 . S
H233 C213 0.930 . S
H234 C214 0.942 . S
H235 C216 0.901 1_556 S
H236 C218 0.932 . S
H237 C219 0.929 . S
H238 C220 0.928 . S
H239 C222 0.932 . S
C240 C241 1.264 . S
C240 C245 1.479 . S
C240 C250 1.465 . S
C241 C240 1.264 . S
C241 C243 1.339 . S
C241 H268 0.931 . S
C242 C243 1.395 . S
C242 C244 1.320 . S
C243 C241 1.339 . S
C243 C242 1.395 . S
C243 H269 0.929 . S
C244 C242 1.320 . S
C244 C245 1.405 . S
C244 H270 0.930 . S
C245 C240 1.479 . S
C245 C244 1.405 . S
C245 H271 0.931 . S
U246 O247 2.454 . S
U246 O248 2.458 . S
U246 C249 2.984 . S
U246 C250 2.847 . S
U246 C263 2.882 . S
U246 O264 2.441 . S
U246 O265 2.420 . S
U246 O266 2.455 . S
U246 O267 2.449 . S
O247 U246 2.454 . S
O247 C249 1.353 . S
O248 U246 2.458 . S
O248 C249 1.286 . S
C249 U246 2.984 . S
C249 O247 1.353 . S
C249 O248 1.286 . S
C249 C251 1.363 . S
C250 C240 1.465 . S
C250 U246 2.847 . S
C250 O264 1.249 . S
C250 O265 1.202 . S
C251 C249 1.363 . S
C251 C253 1.408 . S
C251 C256 1.342 . S
C252 C253 1.310 . S
C252 C255 1.461 . S
C252 H272 0.932 . S
C253 C251 1.408 . S
C253 C252 1.310 . S
C253 H273 0.930 . S
C254 C255 1.474 . S
C254 C256 1.285 . S
C254 H274 0.929 . S
C255 C252 1.461 . S
C255 C254 1.474 . S
C256 C251 1.342 . S
C256 C254 1.285 . S
C256 H275 0.930 . S
C257 C260 1.424 . S
C257 C262 1.245 . S
C257 C263 1.428 . S
C258 C261 1.260 . S
C258 C262 1.477 . S
C258 H276 0.932 . S
C259 C260 1.384 . S
C259 C261 1.479 . S
C259 H277 0.929 . S
C260 C257 1.424 . S
C260 C259 1.384 . S
C260 H278 0.928 . S
C261 C258 1.260 . S
C261 C259 1.479 . S
C262 C257 1.245 . S
C262 C258 1.477 . S
C262 H279 0.932 . S
C263 U246 2.882 . S
C263 C257 1.428 . S
C263 O266 1.301 . S
C263 O267 1.282 . S
O264 U246 2.441 . S
O264 C250 1.249 . S
O265 U246 2.420 . S
O265 C250 1.202 . S
O266 U246 2.455 . S
O266 C263 1.301 . S
O267 U246 2.449 . S
O267 C263 1.282 . S
H268 C241 0.931 . S
H269 C243 0.929 . S
H270 C244 0.930 . S
H271 C245 0.931 . S
H272 C252 0.932 . S
H273 C253 0.930 . S
H274 C254 0.929 . S
H275 C256 0.930 . S
H276 C258 0.932 . S
H277 C259 0.929 . S
H278 C260 0.928 . S
H279 C262 0.932 . S
C280 C281 1.264 . S
C280 C285 1.479 . S
C280 C290 1.465 . S
C281 C280 1.264 . S
C281 C283 1.339 . S
C281 H308 0.931 . S
C282 C283 1.395 . S
C282 C284 1.320 . S
C283 C281 1.339 . S
C283 C282 1.395 . S
C283 H309 0.929 . S
C284 C282 1.320 . S
C284 C285 1.405 . S
C284 H310 0.930 . S
C285 C280 1.479 . S
C285 C284 1.405 . S
C285 H311 0.931 . S
U286 O287 2.454 . S
U286 O288 2.458 . S
U286 C289 2.984 . S
U286 C290 2.847 . S
U286 C303 2.882 . S
U286 O304 2.441 . S
U286 O305 2.420 . S
U286 O306 2.455 . S
U286 O307 2.449 . S
O287 U286 2.454 . S
O287 C289 1.353 . S
O288 U286 2.458 . S
O288 C289 1.286 . S
C289 U286 2.984 . S
C289 O287 1.353 . S
C289 O288 1.286 . S
C289 C291 1.363 . S
C290 C280 1.465 . S
C290 U286 2.847 . S
C290 O304 1.249 . S
C290 O305 1.202 . S
C291 C289 1.363 . S
C291 C293 1.408 . S
C291 C296 1.342 . S
C292 C293 1.310 . S
C292 C295 1.461 . S
C292 H312 0.932 . S
C293 C291 1.408 . S
C293 C292 1.310 . S
C293 H313 0.930 . S
C294 C295 1.474 . S
C294 C296 1.285 . S
C294 H314 0.929 . S
C295 C292 1.461 . S
C295 C294 1.474 . S
C296 C291 1.342 . S
C296 C294 1.285 . S
C296 H315 0.930 . S
C297 C300 1.424 . S
C297 C302 1.245 . S
C297 C303 1.428 . S
C298 C301 1.260 . S
C298 C302 1.477 . S
C298 H316 0.932 . S
C299 C300 1.384 . S
C299 C301 1.479 . S
C299 H317 0.929 . S
C300 C297 1.424 . S
C300 C299 1.384 . S
C300 H318 0.928 . S
C301 C298 1.260 . S
C301 C299 1.479 . S
C302 C297 1.245 . S
C302 C298 1.477 . S
C302 H319 0.932 . S
C303 U286 2.882 . S
C303 C297 1.428 . S
C303 O306 1.301 . S
C303 O307 1.282 . S
O304 U286 2.441 . S
O304 C290 1.249 . S
O305 U286 2.420 . S
O305 C290 1.202 . S
O306 U286 2.455 . S
O306 C303 1.301 . S
O307 U286 2.449 . S
O307 C303 1.282 . S
H308 C281 0.931 . S
H309 C283 0.929 . S
H310 C284 0.930 . S
H311 C285 0.931 . S
H312 C292 0.932 . S
H313 C293 0.930 . S
H314 C294 0.929 . S
H315 C296 0.930 . S
H316 C298 0.932 . S
H317 C299 0.929 . S
H318 C300 0.928 . S
H319 C302 0.932 . S
C320 C321 1.264 . S
C320 C325 1.479 . S
C320 C330 1.465 . S
C321 C320 1.264 . S
C321 C323 1.339 . S
C321 H348 0.931 . S
C322 C323 1.395 . S
C322 C324 1.320 . S
C323 C321 1.339 . S
C323 C322 1.395 . S
C323 H349 0.929 . S
C324 C322 1.320 . S
C324 C325 1.405 . S
C324 H350 0.930 . S
C325 C320 1.479 . S
C325 C324 1.405 . S
C325 H351 0.931 . S
U326 O327 2.454 . S
U326 O328 2.458 . S
U326 C329 2.984 . S
U326 C330 2.847 . S
U326 C343 2.882 . S
U326 O344 2.441 . S
U326 O345 2.420 . S
U326 O346 2.455 . S
U326 O347 2.449 . S
O327 U326 2.454 . S
O327 C329 1.353 . S
O328 U326 2.458 . S
O328 C329 1.286 . S
C329 U326 2.984 . S
C329 O327 1.353 . S
C329 O328 1.286 . S
C329 C331 1.363 . S
C330 C320 1.465 . S
C330 U326 2.847 . S
C330 O344 1.249 . S
C330 O345 1.202 . S
C331 C329 1.363 . S
C331 C333 1.408 . S
C331 C336 1.342 . S
C332 C333 1.310 . S
C332 C335 1.461 . S
C332 H352 0.932 . S
C333 C331 1.408 . S
C333 C332 1.310 . S
C333 H353 0.930 . S
C334 C335 1.474 . S
C334 C336 1.285 . S
C334 H354 0.929 . S
C335 C332 1.461 . S
C335 C334 1.474 . S
C336 C331 1.342 . S
C336 C334 1.285 . S
C336 H355 0.930 . S
C337 C340 1.424 . S
C337 C342 1.245 . S
C337 C343 1.428 . S
C338 C341 1.260 . S
C338 C342 1.477 . S
C338 H356 0.932 . S
C339 C340 1.384 . S
C339 C341 1.479 . S
C339 H357 0.929 . S
C340 C337 1.424 . S
C340 C339 1.384 . S
C340 H358 0.928 . S
C341 C338 1.260 . S
C341 C339 1.479 . S
C342 C337 1.245 . S
C342 C338 1.477 . S
C342 H359 0.932 . S
C343 U326 2.882 . S
C343 C337 1.428 . S
C343 O346 1.301 . S
C343 O347 1.282 . S
O344 U326 2.441 . S
O344 C330 1.249 . S
O345 U326 2.420 . S
O345 C330 1.202 . S
O346 U326 2.455 . S
O346 C343 1.301 . S
O347 U326 2.449 . S
O347 C343 1.282 . S
H348 C321 0.931 . S
H349 C323 0.929 . S
H350 C324 0.930 . S
H351 C325 0.931 . S
H352 C332 0.932 . S
H353 C333 0.930 . S
H354 C334 0.929 . S
H355 C336 0.930 . S
H356 C338 0.932 . S
H357 C339 0.929 . S
H358 C340 0.928 . S
H359 C342 0.932 . S
C360 C361 1.264 . S
C360 C365 1.479 . S
C360 C370 1.465 . S
C361 C360 1.264 . S
C361 C363 1.339 . S
C361 H388 0.931 . S
C362 C363 1.395 . S
C362 C364 1.320 . S
C363 C361 1.339 . S
C363 C362 1.395 . S
C363 H389 0.929 . S
C364 C362 1.320 . S
C364 C365 1.405 . S
C364 H390 0.930 . S
C365 C360 1.479 . S
C365 C364 1.405 . S
C365 H391 0.931 . S
U366 O367 2.454 . S
U366 O368 2.458 . S
U366 C369 2.984 . S
U366 C370 2.847 . S
U366 C383 2.882 . S
U366 O384 2.441 . S
U366 O385 2.420 . S
U366 O386 2.455 . S
U366 O387 2.449 . S
O367 U366 2.454 . S
O367 C369 1.353 . S
O368 U366 2.458 . S
O368 C369 1.286 . S
C369 U366 2.984 . S
C369 O367 1.353 . S
C369 O368 1.286 . S
C369 C371 1.363 . S
C370 C360 1.465 . S
C370 U366 2.847 . S
C370 O384 1.249 . S
C370 O385 1.202 . S
C371 C369 1.363 . S
C371 C373 1.408 . S
C371 C376 1.342 . S
C372 C373 1.310 . S
C372 C375 1.461 . S
C372 H392 0.932 . S
C373 C371 1.408 . S
C373 C372 1.310 . S
C373 H393 0.930 . S
C374 C375 1.474 . S
C374 C376 1.285 . S
C374 H394 0.929 . S
C375 C372 1.461 . S
C375 C374 1.474 . S
C376 C371 1.342 . S
C376 C374 1.285 . S
C376 H395 0.930 . S
C377 C380 1.424 . S
C377 C382 1.245 . S
C377 C383 1.428 . S
C378 C381 1.260 . S
C378 C382 1.477 . S
C378 H396 0.932 . S
C379 C380 1.384 . S
C379 C381 1.479 . S
C379 H397 0.929 . S
C380 C377 1.424 . S
C380 C379 1.384 . S
C380 H398 0.928 . S
C381 C378 1.260 . S
C381 C379 1.479 . S
C382 C377 1.245 . S
C382 C378 1.477 . S
C382 H399 0.932 . S
C383 U366 2.882 . S
C383 C377 1.428 . S
C383 O386 1.301 . S
C383 O387 1.282 . S
O384 U366 2.441 . S
O384 C370 1.249 . S
O385 U366 2.420 . S
O385 C370 1.202 . S
O386 U366 2.455 . S
O386 C383 1.301 . S
O387 U366 2.449 . S
O387 C383 1.282 . S
H388 C361 0.931 . S
H389 C363 0.929 . S
H390 C364 0.930 . S
H391 C365 0.931 . S
H392 C372 0.932 . S
H393 C373 0.930 . S
H394 C374 0.929 . S
H395 C376 0.930 . S
H396 C378 0.932 . S
H397 C379 0.929 . S
H398 C380 0.928 . S
H399 C382 0.932 . S
C400 C401 1.264 . S
C400 C405 1.479 . S
C400 C410 1.465 . S
C401 C400 1.264 . S
C401 C403 1.339 . S
C401 H428 0.931 . S
C402 C403 1.395 . S
C402 C404 1.320 . S
C403 C401 1.339 . S
C403 C402 1.395 . S
C403 H429 0.929 . S
C404 C402 1.320 . S
C404 C405 1.405 . S
C404 H430 0.930 . S
C405 C400 1.479 . S
C405 C404 1.405 . S
C405 H431 0.931 . S
U406 O407 2.454 . S
U406 O408 2.458 . S
U406 C409 2.984 . S
U406 C410 2.847 . S
U406 C423 2.882 . S
U406 O424 2.441 . S
U406 O425 2.420 . S
U406 O426 2.455 . S
U406 O427 2.449 . S
O407 U406 2.454 . S
O407 C409 1.353 . S
O408 U406 2.458 . S
O408 C409 1.286 . S
C409 U406 2.984 . S
C409 O407 1.353 . S
C409 O408 1.286 . S
C409 C411 1.363 . S
C410 C400 1.465 . S
C410 U406 2.847 . S
C410 O424 1.249 . S
C410 O425 1.202 . S
C411 C409 1.363 . S
C411 C413 1.408 . S
C411 C416 1.342 . S
C412 C413 1.310 . S
C412 C415 1.461 . S
C412 H432 0.932 . S
C413 C411 1.408 . S
C413 C412 1.310 . S
C413 H433 0.930 . S
C414 C415 1.474 . S
C414 C416 1.285 . S
C414 H434 0.929 . S
C415 C412 1.461 . S
C415 C414 1.474 . S
C416 C411 1.342 . S
C416 C414 1.285 . S
C416 H435 0.930 . S
C417 C420 1.424 . S
C417 C422 1.245 . S
C417 C423 1.428 . S
C418 C421 1.260 . S
C418 C422 1.477 . S
C418 H436 0.932 . S
C419 C420 1.384 . S
C419 C421 1.479 . S
C419 H437 0.929 . S
C420 C417 1.424 . S
C420 C419 1.384 . S
C420 H438 0.928 . S
C421 C418 1.260 . S
C421 C419 1.479 . S
C422 C417 1.245 . S
C422 C418 1.477 . S
C422 H439 0.932 . S
C423 U406 2.882 . S
C423 C417 1.428 . S
C423 O426 1.301 . S
C423 O427 1.282 . S
O424 U406 2.441 . S
O424 C410 1.249 . S
O425 U406 2.420 . S
O425 C410 1.202 . S
O426 U406 2.455 . S
O426 C423 1.301 . S
O427 U406 2.449 . S
O427 C423 1.282 . S
H428 C401 0.931 . S
H429 C403 0.929 . S
H430 C404 0.930 . S
H431 C405 0.931 . S
H432 C412 0.932 . S
H433 C413 0.930 . S
H434 C414 0.929 . S
H435 C416 0.930 . S
H436 C418 0.932 . S
H437 C419 0.929 . S
H438 C420 0.928 . S
H439 C422 0.932 . S
C440 C441 1.264 . S
C440 C445 1.479 . S
C440 C450 1.465 . S
C441 C440 1.264 . S
C441 C443 1.339 . S
C441 H468 0.931 . S
C442 C443 1.395 . S
C442 C444 1.320 . S
C443 C441 1.339 . S
C443 C442 1.395 . S
C443 H469 0.929 . S
C444 C442 1.320 . S
C444 C445 1.405 . S
C444 H470 0.930 . S
C445 C440 1.479 . S
C445 C444 1.405 . S
C445 H471 0.931 . S
U446 O447 2.454 . S
U446 O448 2.458 . S
U446 C449 2.984 . S
U446 C450 2.847 . S
U446 C463 2.882 . S
U446 O464 2.441 . S
U446 O465 2.420 . S
U446 O466 2.455 . S
U446 O467 2.449 . S
O447 U446 2.454 . S
O447 C449 1.353 . S
O448 U446 2.458 . S
O448 C449 1.286 . S
C449 U446 2.984 . S
C449 O447 1.353 . S
C449 O448 1.286 . S
C449 C451 1.363 . S
C450 C440 1.465 . S
C450 U446 2.847 . S
C450 O464 1.249 . S
C450 O465 1.202 . S
C451 C449 1.363 . S
C451 C453 1.408 . S
C451 C456 1.342 . S
C452 C453 1.310 . S
C452 C455 1.461 . S
C452 H472 0.932 . S
C453 C451 1.408 . S
C453 C452 1.310 . S
C453 H473 0.930 . S
C454 C455 1.474 . S
C454 C456 1.285 . S
C454 H474 0.929 . S
C455 C452 1.461 . S
C455 C454 1.474 . S
C456 C451 1.342 . S
C456 C454 1.285 . S
C456 H475 0.930 . S
C457 C460 1.424 . S
C457 C462 1.245 . S
C457 C463 1.428 . S
C458 C461 1.260 . S
C458 C462 1.477 . S
C458 H476 0.932 . S
C459 C460 1.384 . S
C459 C461 1.479 . S
C459 H477 0.929 . S
C460 C457 1.424 . S
C460 C459 1.384 . S
C460 H478 0.928 . S
C461 C458 1.260 . S
C461 C459 1.479 . S
C462 C457 1.245 . S
C462 C458 1.477 . S
C462 H479 0.932 . S
C463 U446 2.882 . S
C463 C457 1.428 . S
C463 O466 1.301 . S
C463 O467 1.282 . S
O464 U446 2.441 . S
O464 C450 1.249 . S
O465 U446 2.420 . S
O465 C450 1.202 . S
O466 U446 2.455 . S
O466 C463 1.301 . S
O467 U446 2.449 . S
O467 C463 1.282 . S
H468 C441 0.931 . S
H469 C443 0.929 . S
H470 C444 0.930 . S
H471 C445 0.931 . S
H472 C452 0.932 . S
H473 C453 0.930 . S
H474 C454 0.929 . S
H475 C456 0.930 . S
H476 C458 0.932 . S
H477 C459 0.929 . S
H478 C460 0.928 . S
H479 C462 0.932 . S
C480 C481 1.264 . S
C480 C485 1.479 . S
C480 C490 1.465 . S
C481 C480 1.264 . S
C481 C483 1.339 . S
C481 H508 0.931 . S
C482 C483 1.395 . S
C482 C484 1.320 . S
C483 C481 1.339 . S
C483 C482 1.395 . S
C483 H509 0.929 . S
C484 C482 1.320 . S
C484 C485 1.405 . S
C484 H510 0.930 . S
C485 C480 1.479 . S
C485 C484 1.405 . S
C485 H511 0.931 . S
U486 O487 2.454 . S
U486 O488 2.458 . S
U486 C489 2.984 . S
U486 C490 2.847 . S
U486 C503 2.882 . S
U486 O504 2.441 . S
U486 O505 2.420 . S
U486 O506 2.455 . S
U486 O507 2.449 . S
O487 U486 2.454 . S
O487 C489 1.353 . S
O488 U486 2.458 . S
O488 C489 1.286 . S
C489 U486 2.984 . S
C489 O487 1.353 . S
C489 O488 1.286 . S
C489 C491 1.363 . S
C490 C480 1.465 . S
C490 U486 2.847 . S
C490 O504 1.249 . S
C490 O505 1.202 . S
C491 C489 1.363 . S
C491 C493 1.408 . S
C491 C496 1.342 . S
C492 C493 1.310 . S
C492 C495 1.461 . S
C492 H512 0.932 . S
C493 C491 1.408 . S
C493 C492 1.310 . S
C493 H513 0.930 . S
C494 C495 1.474 . S
C494 C496 1.285 . S
C494 H514 0.929 . S
C495 C492 1.461 . S
C495 C494 1.474 . S
C496 C491 1.342 . S
C496 C494 1.285 . S
C496 H515 0.930 . S
C497 C500 1.424 . S
C497 C502 1.245 . S
C497 C503 1.428 . S
C498 C501 1.260 . S
C498 C502 1.477 . S
C498 H516 0.932 . S
C499 C500 1.384 . S
C499 C501 1.479 . S
C499 H517 0.929 . S
C500 C497 1.424 . S
C500 C499 1.384 . S
C500 H518 0.928 . S
C501 C498 1.260 . S
C501 C499 1.479 . S
C502 C497 1.245 . S
C502 C498 1.477 . S
C502 H519 0.932 . S
C503 U486 2.882 . S
C503 C497 1.428 . S
C503 O506 1.301 . S
C503 O507 1.282 . S
O504 U486 2.441 . S
O504 C490 1.249 . S
O505 U486 2.420 . S
O505 C490 1.202 . S
O506 U486 2.455 . S
O506 C503 1.301 . S
O507 U486 2.449 . S
O507 C503 1.282 . S
H508 C481 0.931 . S
H509 C483 0.929 . S
H510 C484 0.930 . S
H511 C485 0.931 . S
H512 C492 0.932 . S
H513 C493 0.930 . S
H514 C494 0.929 . S
H515 C496 0.930 . S
H516 C498 0.932 . S
H517 C499 0.929 . S
H518 C500 0.928 . S
H519 C502 0.932 . S
C520 C521 1.264 . S
C520 C525 1.479 . S
C520 C530 1.465 . S
C521 C520 1.264 . S
C521 C523 1.339 . S
C521 H548 0.931 . S
C522 C523 1.395 . S
C522 C524 1.320 . S
C523 C521 1.339 . S
C523 C522 1.395 . S
C523 H549 0.929 . S
C524 C522 1.320 . S
C524 C525 1.405 . S
C524 H550 0.930 . S
C525 C520 1.479 . S
C525 C524 1.405 . S
C525 H551 0.931 . S
U526 O527 2.454 . S
U526 O528 2.458 . S
U526 C529 2.984 . S
U526 C530 2.847 . S
U526 C543 2.882 . S
U526 O544 2.441 . S
U526 O545 2.420 . S
U526 O546 2.455 . S
U526 O547 2.449 . S
O527 U526 2.454 . S
O527 C529 1.353 . S
O528 U526 2.458 . S
O528 C529 1.286 . S
C529 U526 2.984 . S
C529 O527 1.353 . S
C529 O528 1.286 . S
C529 C531 1.363 . S
C530 C520 1.465 . S
C530 U526 2.847 . S
C530 O544 1.249 . S
C530 O545 1.202 . S
C531 C529 1.363 . S
C531 C533 1.408 . S
C531 C536 1.342 . S
C532 C533 1.310 . S
C532 C535 1.461 . S
C532 H552 0.932 . S
C533 C531 1.408 . S
C533 C532 1.310 . S
C533 H553 0.930 . S
C534 C535 1.474 . S
C534 C536 1.285 . S
C534 H554 0.929 . S
C535 C532 1.461 . S
C535 C534 1.474 . S
C536 C531 1.342 . S
C536 C534 1.285 . S
C536 H555 0.930 . S
C537 C540 1.424 . S
C537 C542 1.245 . S
C537 C543 1.428 . S
C538 C541 1.260 . S
C538 C542 1.477 . S
C538 H556 0.932 . S
C539 C540 1.384 . S
C539 C541 1.479 . S
C539 H557 0.929 . S
C540 C537 1.424 . S
C540 C539 1.384 . S
C540 H558 0.928 . S
C541 C538 1.260 . S
C541 C539 1.479 . S
C542 C537 1.245 . S
C542 C538 1.477 . S
C542 H559 0.932 . S
C543 U526 2.882 . S
C543 C537 1.428 . S
C543 O546 1.301 . S
C543 O547 1.282 . S
O544 U526 2.441 . S
O544 C530 1.249 . S
O545 U526 2.420 . S
O545 C530 1.202 . S
O546 U526 2.455 . S
O546 C543 1.301 . S
O547 U526 2.449 . S
O547 C543 1.282 . S
H548 C521 0.931 . S
H549 C523 0.929 . S
H550 C524 0.930 . S
H551 C525 0.931 . S
H552 C532 0.932 . S
H553 C533 0.930 . S
H554 C534 0.929 . S
H555 C536 0.930 . S
H556 C538 0.932 . S
H557 C539 0.929 . S
H558 C540 0.928 . S
H559 C542 0.932 . S
C560 C561 1.264 . S
C560 C565 1.479 . S
C560 C570 1.465 . S
C561 C560 1.264 . S
C561 C563 1.339 . S
C561 H588 0.931 . S
C562 C563 1.395 . S
C562 C564 1.320 . S
C563 C561 1.339 . S
C563 C562 1.395 . S
C563 H589 0.929 . S
C564 C562 1.320 . S
C564 C565 1.405 . S
C564 H590 0.930 . S
C565 C560 1.479 . S
C565 C564 1.405 . S
C565 H591 0.931 1_455 S
U566 O567 2.435 1_455 S
U566 O568 2.447 1_455 S
U566 C569 2.969 1_455 S
U566 C570 2.847 . S
U566 C583 2.897 . S
U566 O584 2.433 1_455 S
U566 O585 2.429 . S
U566 O586 2.465 . S
U566 O587 2.467 . S
O567 U566 2.435 1_655 S
O567 C569 1.353 . S
O568 U566 2.447 1_655 S
O568 C569 1.286 . S
C569 U566 2.969 1_655 S
C569 O567 1.353 . S
C569 O568 1.286 . S
C569 C571 1.363 . S
C570 C560 1.465 . S
C570 U566 2.847 . S
C570 O584 1.249 1_455 S
C570 O585 1.202 . S
C571 C569 1.363 . S
C571 C573 1.408 . S
C571 C576 1.342 . S
C572 C573 1.310 . S
C572 C575 1.461 . S
C572 H592 0.932 . S
C573 C571 1.408 . S
C573 C572 1.310 . S
C573 H593 0.930 . S
C574 C575 1.474 . S
C574 C576 1.285 . S
C574 H594 0.929 . S
C575 C572 1.461 . S
C575 C574 1.474 . S
C576 C571 1.342 . S
C576 C574 1.285 . S
C576 H595 0.930 . S
C577 C580 1.424 . S
C577 C582 1.245 . S
C577 C583 1.428 . S
C578 C581 1.260 . S
C578 C582 1.477 . S
C578 H596 0.932 . S
C579 C580 1.384 . S
C579 C581 1.479 . S
C579 H597 0.929 . S
C580 C577 1.424 . S
C580 C579 1.384 . S
C580 H598 0.928 . S
C581 C578 1.260 . S
C581 C579 1.479 . S
C582 C577 1.245 . S
C582 C578 1.477 . S
C582 H599 0.932 . S
C583 U566 2.897 . S
C583 C577 1.428 . S
C583 O586 1.301 . S
C583 O587 1.282 . S
O584 U566 2.433 1_655 S
O584 C570 1.249 1_655 S
O585 U566 2.429 . S
O585 C570 1.202 . S
O586 U566 2.465 . S
O586 C583 1.301 . S
O587 U566 2.467 . S
O587 C583 1.282 . S
H588 C561 0.931 . S
H589 C563 0.929 . S
H590 C564 0.930 . S
H591 C565 0.931 1_655 S
H592 C572 0.932 . S
H593 C573 0.930 . S
H594 C574 0.929 . S
H595 C576 0.930 . S
H596 C578 0.932 . S
H597 C579 0.929 . S
H598 C580 0.928 . S
H599 C582 0.932 . S
C600 C601 1.264 . S
C600 C605 1.479 . S
C600 C610 1.465 . S
C601 C600 1.264 . S
C601 C603 1.339 . S
C601 H628 0.931 . S
C602 C603 1.395 . S
C602 C604 1.320 . S
C603 C601 1.339 . S
C603 C602 1.395 . S
C603 H629 0.929 . S
C604 C602 1.320 . S
C604 C605 1.405 . S
C604 H630 0.930 . S
C605 C600 1.479 . S
C605 C604 1.405 . S
C605 H631 0.931 . S
U606 O607 2.411 1_455 S
U606 O608 2.415 1_455 S
U606 C609 2.936 1_455 S
U606 C610 2.872 . S
U606 C623 2.906 . S
U606 O624 2.445 . S
U606 O625 2.460 . S
U606 O626 2.457 1_455 S
U606 O627 2.489 . S
O607 U606 2.411 1_655 S
O607 C609 1.353 . S
O608 U606 2.415 1_655 S
O608 C609 1.286 . S
C609 U606 2.936 1_655 S
C609 O607 1.353 . S
C609 O608 1.286 . S
C609 C611 1.363 . S
C610 C600 1.465 . S
C610 U606 2.872 . S
C610 O624 1.249 . S
C610 O625 1.202 . S
C611 C609 1.363 . S
C611 C613 1.408 . S
C611 C616 1.342 . S
C612 C613 1.310 . S
C612 C615 1.461 . S
C612 H632 0.932 . S
C613 C611 1.408 . S
C613 C612 1.310 . S
C613 H633 0.930 . S
C614 C615 1.474 . S
C614 C616 1.285 . S
C614 H634 0.929 . S
C615 C612 1.461 . S
C615 C614 1.474 . S
C616 C611 1.342 . S
C616 C614 1.285 . S
C616 H635 0.930 . S
C617 C620 1.424 . S
C617 C622 1.245 . S
C617 C623 1.428 . S
C618 C621 1.260 . S
C618 C622 1.477 . S
C618 H636 0.932 . S
C619 C620 1.384 . S
C619 C621 1.479 . S
C619 H637 0.929 . S
C620 C617 1.424 . S
C620 C619 1.384 . S
C620 H638 0.928 . S
C621 C618 1.260 . S
C621 C619 1.479 . S
C622 C617 1.245 . S
C622 C618 1.477 . S
C622 H639 0.932 1_455 S
C623 U606 2.906 . S
C623 C617 1.428 . S
C623 O626 1.301 1_455 S
C623 O627 1.282 . S
O624 U606 2.445 . S
O624 C610 1.249 . S
O625 U606 2.460 . S
O625 C610 1.202 . S
O626 U606 2.457 1_655 S
O626 C623 1.301 1_655 S
O627 U606 2.489 . S
O627 C623 1.282 . S
H628 C601 0.931 . S
H629 C603 0.929 . S
H630 C604 0.930 . S
H631 C605 0.931 . S
H632 C612 0.932 . S
H633 C613 0.930 . S
H634 C614 0.929 . S
H635 C616 0.930 . S
H636 C618 0.932 . S
H637 C619 0.929 . S
H638 C620 0.928 . S
H639 C622 0.932 1_655 S
C640 C641 1.264 . S
C640 C645 1.479 . S
C640 C650 1.465 . S
C641 C640 1.264 . S
C641 C643 1.339 . S
C641 H668 0.931 . S
C642 C643 1.395 . S
C642 C644 1.320 . S
C643 C641 1.339 . S
C643 C642 1.395 . S
C643 H669 0.929 . S
C644 C642 1.320 . S
C644 C645 1.405 . S
C644 H670 0.930 . S
C645 C640 1.479 . S
C645 C644 1.405 . S
C645 H671 0.931 . S
U646 O647 2.454 . S
U646 O648 2.458 . S
U646 C649 2.984 . S
U646 C650 2.847 . S
U646 C663 2.882 . S
U646 O664 2.441 . S
U646 O665 2.420 . S
U646 O666 2.455 . S
U646 O667 2.449 . S
O647 U646 2.454 . S
O647 C649 1.353 . S
O648 U646 2.458 . S
O648 C649 1.286 . S
C649 U646 2.984 . S
C649 O647 1.353 . S
C649 O648 1.286 . S
C649 C651 1.363 . S
C650 C640 1.465 . S
C650 U646 2.847 . S
C650 O664 1.249 . S
C650 O665 1.202 . S
C651 C649 1.363 . S
C651 C653 1.408 . S
C651 C656 1.342 . S
C652 C653 1.310 . S
C652 C655 1.461 . S
C652 H672 0.932 . S
C653 C651 1.408 . S
C653 C652 1.310 . S
C653 H673 0.930 . S
C654 C655 1.474 . S
C654 C656 1.285 . S
C654 H674 0.929 . S
C655 C652 1.461 . S
C655 C654 1.474 . S
C656 C651 1.342 . S
C656 C654 1.285 . S
C656 H675 0.930 . S
C657 C660 1.424 . S
C657 C662 1.245 . S
C657 C663 1.428 . S
C658 C661 1.260 . S
C658 C662 1.477 . S
C658 H676 0.932 . S
C659 C660 1.384 . S
C659 C661 1.479 . S
C659 H677 0.929 . S
C660 C657 1.424 . S
C660 C659 1.384 . S
C660 H678 0.928 . S
C661 C658 1.260 . S
C661 C659 1.479 . S
C662 C657 1.245 . S
C662 C658 1.477 . S
C662 H679 0.932 . S
C663 U646 2.882 . S
C663 C657 1.428 . S
C663 O666 1.301 . S
C663 O667 1.282 . S
O664 U646 2.441 . S
O664 C650 1.249 . S
O665 U646 2.420 . S
O665 C650 1.202 . S
O666 U646 2.455 . S
O666 C663 1.301 . S
O667 U646 2.449 . S
O667 C663 1.282 . S
H668 C641 0.931 . S
H669 C643 0.929 . S
H670 C644 0.930 . S
H671 C645 0.931 . S
H672 C652 0.932 . S
H673 C653 0.930 . S
H674 C654 0.929 . S
H675 C656 0.930 . S
H676 C658 0.932 . S
H677 C659 0.929 . S
H678 C660 0.928 . S
H679 C662 0.932 . S
C680 C681 1.264 . S
C680 C685 1.479 . S
C680 C690 1.465 . S
C681 C680 1.264 . S
C681 C683 1.339 . S
C681 H708 0.931 . S
C682 C683 1.395 . S
C682 C684 1.320 . S
C683 C681 1.339 . S
C683 C682 1.395 . S
C683 H709 0.929 . S
C684 C682 1.320 . S
C684 C685 1.405 . S
C684 H710 0.930 . S
C685 C680 1.479 . S
C685 C684 1.405 . S
C685 H711 0.931 . S
U686 O687 2.454 . S
U686 O688 2.458 . S
U686 C689 2.984 . S
U686 C690 2.847 . S
U686 C703 2.882 . S
U686 O704 2.441 . S
U686 O705 2.420 . S
U686 O706 2.455 . S
U686 O707 2.449 . S
O687 U686 2.454 . S
O687 C689 1.353 . S
O688 U686 2.458 . S
O688 C689 1.286 . S
C689 U686 2.984 . S
C689 O687 1.353 . S
C689 O688 1.286 . S
C689 C691 1.363 . S
C690 C680 1.465 . S
C690 U686 2.847 . S
C690 O704 1.249 . S
C690 O705 1.202 . S
C691 C689 1.363 . S
C691 C693 1.408 . S
C691 C696 1.342 . S
C692 C693 1.310 . S
C692 C695 1.461 . S
C692 H712 0.932 . S
C693 C691 1.408 . S
C693 C692 1.310 . S
C693 H713 0.930 . S
C694 C695 1.474 . S
C694 C696 1.285 . S
C694 H714 0.929 . S
C695 C692 1.461 . S
C695 C694 1.474 . S
C696 C691 1.342 . S
C696 C694 1.285 . S
C696 H715 0.930 . S
C697 C700 1.424 . S
C697 C702 1.245 . S
C697 C703 1.428 . S
C698 C701 1.260 . S
C698 C702 1.477 . S
C698 H716 0.932 . S
C699 C700 1.384 . S
C699 C701 1.479 . S
C699 H717 0.929 . S
C700 C697 1.424 . S
C700 C699 1.384 . S
C700 H718 0.928 . S
C701 C698 1.260 . S
C701 C699 1.479 . S
C702 C697 1.245 . S
C702 C698 1.477 . S
C702 H719 0.932 . S
C703 U686 2.882 . S
C703 C697 1.428 . S
C703 O706 1.301 . S
C703 O707 1.282 . S
O704 U686 2.441 . S
O704 C690 1.249 . S
O705 U686 2.420 . S
O705 C690 1.202 . S
O706 U686 2.455 . S
O706 C703 1.301 . S
O707 U686 2.449 . S
O707 C703 1.282 . S
H708 C681 0.931 . S
H709 C683 0.929 . S
H710 C684 0.930 . S
H711 C685 0.931 . S
H712 C692 0.932 . S
H713 C693 0.930 . S
H714 C694 0.929 . S
H715 C696 0.930 . S
H716 C698 0.932 . S
H717 C699 0.929 . S
H718 C700 0.928 . S
H719 C702 0.932 . S
C720 C721 1.382 . S
C720 C722 1.327 . S
C720 H745 0.917 1_554 S
C721 C720 1.382 . S
C721 C737 1.349 . S
C722 C720 1.327 . S
C722 C741 1.463 . S
C722 H746 0.916 1_554 S
C723 C740 1.574 . S
C723 C742 1.368 . S
C723 H747 0.949 . S
H724 C728 0.949 1_556 S
C725 C726 1.349 . S
C725 C727 1.327 . S
C725 H748 0.950 . S
C726 C725 1.349 . S
C726 C738 1.349 . S
C727 C725 1.327 . S
C727 C743 1.429 . S
C727 H749 0.950 . S
C728 H724 0.949 1_554 S
C728 C736 1.576 . S
C728 C744 1.368 . S
H729 C737 0.950 . S
H730 C735 0.950 . S
H731 C736 0.913 1_556 S
H732 C738 0.950 1_556 S
H733 C739 0.950 1_556 S
H734 C740 0.949 . S
C735 H730 0.950 . S
C735 C737 1.327 . S
C735 C741 1.429 . S
C736 C728 1.576 . S
C736 H731 0.913 1_554 S
C736 C742 1.409 . S
C737 C721 1.349 . S
C737 H729 0.950 . S
C737 C735 1.327 . S
C738 C726 1.349 . S
C738 H732 0.950 1_554 S
C738 C739 1.327 . S
C739 H733 0.950 1_554 S
C739 C738 1.327 . S
C739 C743 1.429 . S
C740 C723 1.574 . S
C740 H734 0.949 . S
C740 C744 1.368 . S
C741 C722 1.463 . S
C741 C735 1.429 . S
C741 C742 1.523 . S
C742 C723 1.368 . S
C742 C736 1.409 . S
C742 C741 1.523 . S
C743 C727 1.429 . S
C743 C739 1.429 . S
C743 C744 1.523 . S
C744 C728 1.368 . S
C744 C740 1.368 . S
C744 C743 1.523 . S
H745 C720 0.917 1_556 S
H746 C722 0.916 1_556 S
H747 C723 0.949 . S
H748 C725 0.950 . S
H749 C727 0.950 . S
C750 C751 1.349 1_556 S
C750 C752 1.327 . S
C750 H775 0.950 . S
C751 C750 1.349 1_554 S
C751 C767 1.349 . S
C752 C750 1.327 . S
C752 C771 1.429 1_556 S
C752 H776 0.950 . S
C753 C770 1.574 . S
C753 C772 1.368 . S
C753 H777 0.949 . S
H754 C758 0.949 . S
C755 C756 1.349 . S
C755 C757 1.327 . S
C755 H778 0.950 . S
C756 C755 1.349 . S
C756 C768 1.347 . S
C757 C755 1.327 . S
C757 C773 1.429 . S
C757 H779 0.950 . S
C758 H754 0.949 . S
C758 C766 1.574 . S
C758 C774 1.368 1_556 S
H759 C767 0.950 . S
H760 C765 0.950 . S
H761 C766 0.949 . S
H762 C768 0.951 1_556 S
H763 C769 0.973 . S
H764 C770 0.949 . S
C765 H760 0.950 . S
C765 C767 1.327 . S
C765 C771 1.429 . S
C766 C758 1.574 . S
C766 H761 0.949 . S
C766 C772 1.368 1_556 S
C767 C751 1.349 . S
C767 H759 0.950 . S
C767 C765 1.327 . S
C768 C756 1.347 . S
C768 H762 0.951 1_554 S
C768 C769 1.326 1_554 S
C769 H763 0.973 . S
C769 C768 1.326 1_556 S
C769 C773 1.408 1_556 S
C770 C753 1.574 . S
C770 H764 0.949 . S
C770 C774 1.368 . S
C771 C752 1.429 1_554 S
C771 C765 1.429 . S
C771 C772 1.523 . S
C772 C753 1.368 . S
C772 C766 1.368 1_554 S
C772 C771 1.523 . S
C773 C757 1.429 . S
C773 C769 1.408 1_554 S
C773 C774 1.523 . S
C774 C758 1.368 1_554 S
C774 C770 1.368 . S
C774 C773 1.523 . S
H775 C750 0.950 . S
H776 C752 0.950 . S
H777 C753 0.949 . S
H778 C755 0.950 . S
H779 C757 0.950 . S
C780 C781 1.372 . S
C780 C782 1.326 1_554 S
C780 H805 0.929 1_554 S
C781 C780 1.372 . S
C781 C797 1.349 . S
C782 C780 1.326 1_556 S
C782 C801 1.415 1_556 S
C782 H806 0.964 . S
C783 C800 1.574 . S
C783 C802 1.368 . S
C783 H807 0.949 . S
H784 C788 0.949 . S
C785 C786 1.349 . S
C785 C787 1.327 . S
C785 H808 0.950 . S
C786 C785 1.349 . S
C786 C798 1.349 1_554 S
C787 C785 1.327 . S
C787 C803 1.429 . S
C787 H809 0.950 . S
C788 H784 0.949 . S
C788 C796 1.574 . S
C788 C804 1.368 1_556 S
H789 C797 0.950 . S
H790 C795 0.950 . S
H791 C796 0.949 . S
H792 C798 0.950 . S
H793 C799 0.950 . S
H794 C800 0.949 . S
C795 H790 0.950 . S
C795 C797 1.327 . S
C795 C801 1.429 . S
C796 C788 1.574 . S
C796 H791 0.949 . S
C796 C802 1.368 1_556 S
C797 C781 1.349 . S
C797 H789 0.950 . S
C797 C795 1.327 . S
C798 C786 1.349 1_556 S
C798 H792 0.950 . S
C798 C799 1.327 . S
C799 H793 0.950 . S
C799 C798 1.327 . S
C799 C803 1.429 1_556 S
C800 C783 1.574 . S
C800 H794 0.949 . S
C800 C804 1.368 . S
C801 C782 1.415 1_554 S
C801 C795 1.429 . S
C801 C802 1.523 . S
C802 C783 1.368 . S
C802 C796 1.368 1_554 S
C802 C801 1.523 . S
C803 C787 1.429 . S
C803 C799 1.429 1_554 S
C803 C804 1.523 . S
C804 C788 1.368 1_554 S
C804 C800 1.368 . S
C804 C803 1.523 . S
H805 C780 0.929 1_556 S
H806 C782 0.964 . S
H807 C783 0.949 . S
H808 C785 0.950 . S
H809 C787 0.950 . S
C810 C811 1.349 . S
C810 C812 1.327 . S
C810 H835 0.950 . S
C811 C810 1.349 . S
C811 C827 1.349 . S
C812 C810 1.327 . S
C812 C831 1.429 . S
C812 H836 0.950 . S
C813 C830 1.574 . S
C813 C832 1.368 . S
C813 H837 0.949 . S
H814 C818 0.949 . S
C815 C816 1.349 . S
C815 C817 1.327 . S
C815 H838 0.950 . S
C816 C815 1.349 . S
C816 C828 1.349 . S
C817 C815 1.327 . S
C817 C833 1.429 . S
C817 H839 0.950 . S
C818 H814 0.949 . S
C818 C826 1.574 . S
C818 C834 1.368 . S
H819 C827 0.950 . S
H820 C825 0.950 . S
H821 C826 0.949 . S
H822 C828 0.950 . S
H823 C829 0.950 . S
H824 C830 0.949 . S
C825 H820 0.950 . S
C825 C827 1.327 . S
C825 C831 1.429 . S
C826 C818 1.574 . S
C826 H821 0.949 . S
C826 C832 1.368 . S
C827 C811 1.349 . S
C827 H819 0.950 . S
C827 C825 1.327 . S
C828 C816 1.349 . S
C828 H822 0.950 . S
C828 C829 1.327 . S
C829 H823 0.950 . S
C829 C828 1.327 . S
C829 C833 1.429 . S
C830 C813 1.574 . S
C830 H824 0.949 . S
C830 C834 1.368 . S
C831 C812 1.429 . S
C831 C825 1.429 . S
C831 C832 1.523 . S
C832 C813 1.368 . S
C832 C826 1.368 . S
C832 C831 1.523 . S
C833 C817 1.429 . S
C833 C829 1.429 . S
C833 C834 1.523 . S
C834 C818 1.368 . S
C834 C830 1.368 . S
C834 C833 1.523 . S
H835 C810 0.950 . S
H836 C812 0.950 . S
H837 C813 0.949 . S
H838 C815 0.950 . S
H839 C817 0.950 . S
C840 C841 1.349 . S
C840 C842 1.327 . S
C840 H865 0.950 . S
C841 C840 1.349 . S
C841 C857 1.349 . S
C842 C840 1.327 . S
C842 C861 1.429 . S
C842 H866 0.950 . S
C843 C860 1.574 . S
C843 C862 1.368 . S
C843 H867 0.949 . S
H844 C848 0.949 . S
C845 C846 1.349 . S
C845 C847 1.327 . S
C845 H868 0.950 . S
C846 C845 1.349 . S
C846 C858 1.349 . S
C847 C845 1.327 . S
C847 C863 1.429 . S
C847 H869 0.950 . S
C848 H844 0.949 . S
C848 C856 1.574 . S
C848 C864 1.368 . S
H849 C857 0.950 . S
H850 C855 0.950 . S
H851 C856 0.949 . S
H852 C858 0.950 . S
H853 C859 0.950 . S
H854 C860 0.949 . S
C855 H850 0.950 . S
C855 C857 1.327 . S
C855 C861 1.429 . S
C856 C848 1.574 . S
C856 H851 0.949 . S
C856 C862 1.368 . S
C857 C841 1.349 . S
C857 H849 0.950 . S
C857 C855 1.327 . S
C858 C846 1.349 . S
C858 H852 0.950 . S
C858 C859 1.327 . S
C859 H853 0.950 . S
C859 C858 1.327 . S
C859 C863 1.429 . S
C860 C843 1.574 . S
C860 H854 0.949 . S
C860 C864 1.368 . S
C861 C842 1.429 . S
C861 C855 1.429 . S
C861 C862 1.523 . S
C862 C843 1.368 . S
C862 C856 1.368 . S
C862 C861 1.523 . S
C863 C847 1.429 . S
C863 C859 1.429 . S
C863 C864 1.523 . S
C864 C848 1.368 . S
C864 C860 1.368 . S
C864 C863 1.523 . S
H865 C840 0.950 . S
H866 C842 0.950 . S
H867 C843 0.949 . S
H868 C845 0.950 . S
H869 C847 0.950 . S
C870 C871 1.349 . S
C870 C872 1.327 . S
C870 H895 0.950 . S
C871 C870 1.349 . S
C871 C887 1.349 . S
C872 C870 1.327 . S
C872 C891 1.429 . S
C872 H896 0.950 . S
C873 C890 1.574 . S
C873 C892 1.368 . S
C873 H897 0.949 . S
H874 C878 0.949 . S
C875 C876 1.349 . S
C875 C877 1.327 . S
C875 H898 0.950 . S
C876 C875 1.349 . S
C876 C888 1.349 . S
C877 C875 1.327 . S
C877 C893 1.429 . S
C877 H899 0.950 . S
C878 H874 0.949 . S
C878 C886 1.574 . S
C878 C894 1.368 . S
H879 C887 0.950 . S
H880 C885 0.950 . S
H881 C886 0.949 . S
H882 C888 0.950 . S
H883 C889 0.950 . S
H884 C890 0.949 . S
C885 H880 0.950 . S
C885 C887 1.327 . S
C885 C891 1.429 . S
C886 C878 1.574 . S
C886 H881 0.949 . S
C886 C892 1.368 . S
C887 C871 1.349 . S
C887 H879 0.950 . S
C887 C885 1.327 . S
C888 C876 1.349 . S
C888 H882 0.950 . S
C888 C889 1.327 . S
C889 H883 0.950 . S
C889 C888 1.327 . S
C889 C893 1.429 . S
C890 C873 1.574 . S
C890 H884 0.949 . S
C890 C894 1.368 . S
C891 C872 1.429 . S
C891 C885 1.429 . S
C891 C892 1.523 . S
C892 C873 1.368 . S
C892 C886 1.368 . S
C892 C891 1.523 . S
C893 C877 1.429 . S
C893 C889 1.429 . S
C893 C894 1.523 . S
C894 C878 1.368 . S
C894 C890 1.368 . S
C894 C893 1.523 . S
H895 C870 0.950 . S
H896 C872 0.950 . S
H897 C873 0.949 . S
H898 C875 0.950 . S
H899 C877 0.950 . S
C900 C901 1.349 . S
C900 C902 1.327 . S
C900 H925 0.950 . S
C901 C900 1.349 . S
C901 C917 1.349 . S
C902 C900 1.327 . S
C902 C921 1.429 . S
C902 H926 0.950 . S
C903 C920 1.574 . S
C903 C922 1.368 . S
C903 H927 0.949 . S
H904 C908 0.949 . S
C905 C906 1.349 . S
C905 C907 1.327 . S
C905 H928 0.950 . S
C906 C905 1.349 . S
C906 C918 1.349 . S
C907 C905 1.327 . S
C907 C923 1.429 . S
C907 H929 0.950 . S
C908 H904 0.949 . S
C908 C916 1.574 . S
C908 C924 1.368 . S
H909 C917 0.950 . S
H910 C915 0.950 . S
H911 C916 0.949 . S
H912 C918 0.950 . S
H913 C919 0.950 . S
H914 C920 0.949 . S
C915 H910 0.950 . S
C915 C917 1.327 . S
C915 C921 1.429 . S
C916 C908 1.574 . S
C916 H911 0.949 . S
C916 C922 1.368 . S
C917 C901 1.349 . S
C917 H909 0.950 . S
C917 C915 1.327 . S
C918 C906 1.349 . S
C918 H912 0.950 . S
C918 C919 1.327 . S
C919 H913 0.950 . S
C919 C918 1.327 . S
C919 C923 1.429 . S
C920 C903 1.574 . S
C920 H914 0.949 . S
C920 C924 1.368 . S
C921 C902 1.429 . S
C921 C915 1.429 . S
C921 C922 1.523 . S
C922 C903 1.368 . S
C922 C916 1.368 . S
C922 C921 1.523 . S
C923 C907 1.429 . S
C923 C919 1.429 . S
C923 C924 1.523 . S
C924 C908 1.368 . S
C924 C920 1.368 . S
C924 C923 1.523 . S
H925 C900 0.950 . S
H926 C902 0.950 . S
H927 C903 0.949 . S
H928 C905 0.950 . S
H929 C907 0.950 . S
C930 C931 1.349 . S
C930 C932 1.327 . S
C930 H955 0.950 . S
C931 C930 1.349 . S
C931 C947 1.349 . S
C932 C930 1.327 . S
C932 C951 1.429 . S
C932 H956 0.950 . S
C933 C950 1.574 . S
C933 C952 1.368 . S
C933 H957 0.949 . S
H934 C938 0.949 . S
C935 C936 1.349 . S
C935 C937 1.327 . S
C935 H958 0.950 . S
C936 C935 1.349 . S
C936 C948 1.349 . S
C937 C935 1.327 . S
C937 C953 1.429 . S
C937 H959 0.950 . S
C938 H934 0.949 . S
C938 C946 1.574 . S
C938 C954 1.368 . S
H939 C947 0.950 . S
H940 C945 0.950 . S
H941 C946 0.949 . S
H942 C948 0.950 . S
H943 C949 0.950 . S
H944 C950 0.949 . S
C945 H940 0.950 . S
C945 C947 1.327 . S
C945 C951 1.429 . S
C946 C938 1.574 . S
C946 H941 0.949 . S
C946 C952 1.368 . S
C947 C931 1.349 . S
C947 H939 0.950 . S
C947 C945 1.327 . S
C948 C936 1.349 . S
C948 H942 0.950 . S
C948 C949 1.327 . S
C949 H943 0.950 . S
C949 C948 1.327 . S
C949 C953 1.429 . S
C950 C933 1.574 . S
C950 H944 0.949 . S
C950 C954 1.368 . S
C951 C932 1.429 . S
C951 C945 1.429 . S
C951 C952 1.523 . S
C952 C933 1.368 . S
C952 C946 1.368 . S
C952 C951 1.523 . S
C953 C937 1.429 . S
C953 C949 1.429 . S
C953 C954 1.523 . S
C954 C938 1.368 . S
C954 C950 1.368 . S
C954 C953 1.523 . S
H955 C930 0.950 . S
H956 C932 0.950 . S
H957 C933 0.949 . S
H958 C935 0.950 . S
H959 C937 0.950 . S
C960 C961 1.349 . S
C960 C962 1.327 . S
C960 H985 0.950 . S
C961 C960 1.349 . S
C961 C977 1.349 . S
C962 C960 1.327 . S
C962 C981 1.429 . S
C962 H986 0.950 . S
C963 C980 1.574 . S
C963 C982 1.368 . S
C963 H987 0.949 . S
H964 C968 0.949 . S
C965 C966 1.349 . S
C965 C967 1.327 . S
C965 H988 0.950 . S
C966 C965 1.349 . S
C966 C978 1.349 . S
C967 C965 1.327 . S
C967 C983 1.429 . S
C967 H989 0.950 . S
C968 H964 0.949 . S
C968 C976 1.574 . S
C968 C984 1.368 . S
H969 C977 0.950 . S
H970 C975 0.950 . S
H971 C976 0.949 . S
H972 C978 0.950 . S
H973 C979 0.950 . S
H974 C980 0.949 . S
C975 H970 0.950 . S
C975 C977 1.327 . S
C975 C981 1.429 . S
C976 C968 1.574 . S
C976 H971 0.949 . S
C976 C982 1.368 . S
C977 C961 1.349 . S
C977 H969 0.950 . S
C977 C975 1.327 . S
C978 C966 1.349 . S
C978 H972 0.950 . S
C978 C979 1.327 . S
C979 H973 0.950 . S
C979 C978 1.327 . S
C979 C983 1.429 . S
C980 C963 1.574 . S
C980 H974 0.949 . S
C980 C984 1.368 . S
C981 C962 1.429 . S
C981 C975 1.429 . S
C981 C982 1.523 . S
C982 C963 1.368 . S
C982 C976 1.368 . S
C982 C981 1.523 . S
C983 C967 1.429 . S
C983 C979 1.429 . S
C983 C984 1.523 . S
C984 C968 1.368 . S
C984 C980 1.368 . S
C984 C983 1.523 . S
H985 C960 0.950 . S
H986 C962 0.950 . S
H987 C963 0.949 . S
H988 C965 0.950 . S
H989 C967 0.950 . S
C990 C991 1.349 . S
C990 C992 1.327 . S
C990 H1015 0.950 . S
C991 C990 1.349 . S
C991 C1007 1.349 . S
C992 C990 1.327 . S
C992 C1011 1.429 . S
C992 H1016 0.950 . S
C993 C1010 1.574 . S
C993 C1012 1.368 . S
C993 H1017 0.949 . S
H994 C998 0.935 1_545 S
C995 C996 1.349 . S
C995 C997 1.327 . S
C995 H1018 0.950 . S
C996 C995 1.349 . S
C996 C1008 1.349 1_565 S
C997 C995 1.327 . S
C997 C1013 1.429 . S
C997 H1019 0.950 . S
C998 H994 0.935 1_565 S
C998 C1006 1.574 . S
C998 C1014 1.368 . S
H999 C1007 0.950 . S
H1000 C1005 0.950 . S
H1001 C1006 0.949 . S
H1002 C1008 0.950 . S
H1003 C1009 0.950 . S
H1004 C1010 0.949 . S
C1005 H1000 0.950 . S
C1005 C1007 1.327 . S
C1005 C1011 1.429 . S
C1006 C998 1.574 . S
C1006 H1001 0.949 . S
C1006 C1012 1.368 . S
C1007 C991 1.349 . S
C1007 H999 0.950 . S
C1007 C1005 1.327 . S
C1008 C996 1.349 1_545 S
C1008 H1002 0.950 . S
C1008 C1009 1.327 . S
C1009 H1003 0.950 . S
C1009 C1008 1.327 . S
C1009 C1013 1.429 1_545 S
C1010 C993 1.574 . S
C1010 H1004 0.949 . S
C1010 C1014 1.368 . S
C1011 C992 1.429 . S
C1011 C1005 1.429 . S
C1011 C1012 1.523 . S
C1012 C993 1.368 . S
C1012 C1006 1.368 . S
C1012 C1011 1.523 . S
C1013 C997 1.429 . S
C1013 C1009 1.429 1_565 S
C1013 C1014 1.523 . S
C1014 C998 1.368 . S
C1014 C1010 1.368 . S
C1014 C1013 1.523 . S
H1015 C990 0.950 . S
H1016 C992 0.950 . S
H1017 C993 0.949 . S
H1018 C995 0.950 . S
H1019 C997 0.950 . S
C1020 C1021 1.349 . S
C1020 C1022 1.327 . S
C1020 H1045 0.950 . S
C1021 C1020 1.349 . S
C1021 C1037 1.349 . S
C1022 C1020 1.327 . S
C1022 C1041 1.429 . S
C1022 H1046 0.950 . S
C1023 C1040 1.574 . S
C1023 C1042 1.368 . S
C1023 H1047 0.949 . S
H1024 C1028 0.949 . S
C1025 C1026 1.349 . S
C1025 C1027 1.327 . S
C1025 H1048 0.950 . S
C1026 C1025 1.349 . S
C1026 C1038 1.349 . S
C1027 C1025 1.327 . S
C1027 C1043 1.429 . S
C1027 H1049 0.950 . S
C1028 H1024 0.949 . S
C1028 C1036 1.574 . S
C1028 C1044 1.368 . S
H1029 C1037 0.950 . S
H1030 C1035 0.950 . S
H1031 C1036 0.949 . S
H1032 C1038 0.950 . S
H1033 C1039 0.950 . S
H1034 C1040 0.949 . S
C1035 H1030 0.950 . S
C1035 C1037 1.327 . S
C1035 C1041 1.429 . S
C1036 C1028 1.574 . S
C1036 H1031 0.949 . S
C1036 C1042 1.368 . S
C1037 C1021 1.349 . S
C1037 H1029 0.950 . S
C1037 C1035 1.327 . S
C1038 C1026 1.349 . S
C1038 H1032 0.950 . S
C1038 C1039 1.327 . S
C1039 H1033 0.950 . S
C1039 C1038 1.327 . S
C1039 C1043 1.429 . S
C1040 C1023 1.574 . S
C1040 H1034 0.949 . S
C1040 C1044 1.368 . S
C1041 C1022 1.429 . S
C1041 C1035 1.429 . S
C1041 C1042 1.523 . S
C1042 C1023 1.368 . S
C1042 C1036 1.368 . S
C1042 C1041 1.523 . S
C1043 C1027 1.429 . S
C1043 C1039 1.429 . S
C1043 C1044 1.523 . S
C1044 C1028 1.368 . S
C1044 C1040 1.368 . S
C1044 C1043 1.523 . S
H1045 C1020 0.950 . S
H1046 C1022 0.950 . S
H1047 C1023 0.949 . S
H1048 C1025 0.950 . S
H1049 C1027 0.950 . S
C1050 C1051 1.349 . S
C1050 C1052 1.327 . S
C1050 H1075 0.950 . S
C1051 C1050 1.349 . S
C1051 C1067 1.349 . S
C1052 C1050 1.327 . S
C1052 C1071 1.429 . S
C1052 H1076 0.950 . S
C1053 C1070 1.574 . S
C1053 C1072 1.368 . S
C1053 H1077 0.949 . S
H1054 C1058 0.949 . S
C1055 C1056 1.349 . S
C1055 C1057 1.327 . S
C1055 H1078 0.950 . S
C1056 C1055 1.349 . S
C1056 C1068 1.349 . S
C1057 C1055 1.327 . S
C1057 C1073 1.429 . S
C1057 H1079 0.950 . S
C1058 H1054 0.949 . S
C1058 C1066 1.574 . S
C1058 C1074 1.368 . S
H1059 C1067 0.950 . S
H1060 C1065 0.950 . S
H1061 C1066 0.949 . S
H1062 C1068 0.950 . S
H1063 C1069 0.950 . S
H1064 C1070 0.949 . S
C1065 H1060 0.950 . S
C1065 C1067 1.327 . S
C1065 C1071 1.429 . S
C1066 C1058 1.574 . S
C1066 H1061 0.949 . S
C1066 C1072 1.368 . S
C1067 C1051 1.349 . S
C1067 H1059 0.950 . S
C1067 C1065 1.327 . S
C1068 C1056 1.349 . S
C1068 H1062 0.950 . S
C1068 C1069 1.327 . S
C1069 H1063 0.950 . S
C1069 C1068 1.327 . S
C1069 C1073 1.429 . S
C1070 C1053 1.574 . S
C1070 H1064 0.949 . S
C1070 C1074 1.368 . S
C1071 C1052 1.429 . S
C1071 C1065 1.429 . S
C1071 C1072 1.523 . S
C1072 C1053 1.368 . S
C1072 C1066 1.368 . S
C1072 C1071 1.523 . S
C1073 C1057 1.429 . S
C1073 C1069 1.429 . S
C1073 C1074 1.523 . S
C1074 C1058 1.368 . S
C1074 C1070 1.368 . S
C1074 C1073 1.523 . S
H1075 C1050 0.950 . S
H1076 C1052 0.950 . S
H1077 C1053 0.949 . S
H1078 C1055 0.950 . S
H1079 C1057 0.950 . S
C1080 C1081 1.349 . S
C1080 C1082 1.327 . S
C1080 H1105 0.950 . S
C1081 C1080 1.349 . S
C1081 C1097 1.349 . S
C1082 C1080 1.327 . S
C1082 C1101 1.429 . S
C1082 H1106 0.950 . S
C1083 C1100 1.574 . S
C1083 C1102 1.368 . S
C1083 H1107 0.949 . S
H1084 C1088 0.949 . S
C1085 C1086 1.349 . S
C1085 C1087 1.327 . S
C1085 H1108 0.950 . S
C1086 C1085 1.349 . S
C1086 C1098 1.349 . S
C1087 C1085 1.327 . S
C1087 C1103 1.429 . S
C1087 H1109 0.950 . S
C1088 H1084 0.949 . S
C1088 C1096 1.574 . S
C1088 C1104 1.368 . S
H1089 C1097 0.950 . S
H1090 C1095 0.950 . S
H1091 C1096 0.949 . S
H1092 C1098 0.950 . S
H1093 C1099 0.950 . S
H1094 C1100 0.949 . S
C1095 H1090 0.950 . S
C1095 C1097 1.327 . S
C1095 C1101 1.429 . S
C1096 C1088 1.574 . S
C1096 H1091 0.949 . S
C1096 C1102 1.368 . S
C1097 C1081 1.349 . S
C1097 H1089 0.950 . S
C1097 C1095 1.327 . S
C1098 C1086 1.349 . S
C1098 H1092 0.950 . S
C1098 C1099 1.327 . S
C1099 H1093 0.950 . S
C1099 C1098 1.327 . S
C1099 C1103 1.429 . S
C1100 C1083 1.574 . S
C1100 H1094 0.949 . S
C1100 C1104 1.368 . S
C1101 C1082 1.429 . S
C1101 C1095 1.429 . S
C1101 C1102 1.523 . S
C1102 C1083 1.368 . S
C1102 C1096 1.368 . S
C1102 C1101 1.523 . S
C1103 C1087 1.429 . S
C1103 C1099 1.429 . S
C1103 C1104 1.523 . S
C1104 C1088 1.368 . S
C1104 C1100 1.368 . S
C1104 C1103 1.523 . S
H1105 C1080 0.950 . S
H1106 C1082 0.950 . S
H1107 C1083 0.949 . S
H1108 C1085 0.950 . S
H1109 C1087 0.950 . S
C1110 C1111 1.349 . S
C1110 C1112 1.327 . S
C1110 H1135 0.950 . S
C1111 C1110 1.349 . S
C1111 C1127 1.349 . S
C1112 C1110 1.327 . S
C1112 C1131 1.429 . S
C1112 H1136 0.950 . S
C1113 C1130 1.574 . S
C1113 C1132 1.368 . S
C1113 H1137 0.949 . S
H1114 C1118 0.949 . S
C1115 C1116 1.349 . S
C1115 C1117 1.327 . S
C1115 H1138 0.950 . S
C1116 C1115 1.349 . S
C1116 C1128 1.349 . S
C1117 C1115 1.327 . S
C1117 C1133 1.429 . S
C1117 H1139 0.950 . S
C1118 H1114 0.949 . S
C1118 C1126 1.574 . S
C1118 C1134 1.368 . S
H1119 C1127 0.950 . S
H1120 C1125 0.950 . S
H1121 C1126 0.949 . S
H1122 C1128 0.950 . S
H1123 C1129 0.950 . S
H1124 C1130 0.949 . S
C1125 H1120 0.950 . S
C1125 C1127 1.327 . S
C1125 C1131 1.429 . S
C1126 C1118 1.574 . S
C1126 H1121 0.949 . S
C1126 C1132 1.368 . S
C1127 C1111 1.349 . S
C1127 H1119 0.950 . S
C1127 C1125 1.327 . S
C1128 C1116 1.349 . S
C1128 H1122 0.950 . S
C1128 C1129 1.327 . S
C1129 H1123 0.950 . S
C1129 C1128 1.327 . S
C1129 C1133 1.429 . S
C1130 C1113 1.574 . S
C1130 H1124 0.949 . S
C1130 C1134 1.368 . S
C1131 C1112 1.429 . S
C1131 C1125 1.429 . S
C1131 C1132 1.523 . S
C1132 C1113 1.368 . S
C1132 C1126 1.368 . S
C1132 C1131 1.523 . S
C1133 C1117 1.429 . S
C1133 C1129 1.429 . S
C1133 C1134 1.523 . S
C1134 C1118 1.368 . S
C1134 C1130 1.368 . S
C1134 C1133 1.523 . S
H1135 C1110 0.950 . S
H1136 C1112 0.950 . S
H1137 C1113 0.949 . S
H1138 C1115 0.950 . S
H1139 C1117 0.950 . S
C1140 C1141 1.349 . S
C1140 C1142 1.327 . S
C1140 H1165 0.950 . S
C1141 C1140 1.349 . S
C1141 C1157 1.349 . S
C1142 C1140 1.327 . S
C1142 C1161 1.429 . S
C1142 H1166 0.950 . S
C1143 C1160 1.574 . S
C1143 C1162 1.368 . S
C1143 H1167 0.949 . S
H1144 C1148 0.949 . S
C1145 C1146 1.349 . S
C1145 C1147 1.327 . S
C1145 H1168 0.950 . S
C1146 C1145 1.349 . S
C1146 C1158 1.349 . S
C1147 C1145 1.327 . S
C1147 C1163 1.429 . S
C1147 H1169 0.950 . S
C1148 H1144 0.949 . S
C1148 C1156 1.574 . S
C1148 C1164 1.368 . S
H1149 C1157 0.950 . S
H1150 C1155 0.950 . S
H1151 C1156 0.949 . S
H1152 C1158 0.950 . S
H1153 C1159 0.950 . S
H1154 C1160 0.949 . S
C1155 H1150 0.950 . S
C1155 C1157 1.327 . S
C1155 C1161 1.429 . S
C1156 C1148 1.574 . S
C1156 H1151 0.949 . S
C1156 C1162 1.368 . S
C1157 C1141 1.349 . S
C1157 H1149 0.950 . S
C1157 C1155 1.327 . S
C1158 C1146 1.349 . S
C1158 H1152 0.950 . S
C1158 C1159 1.327 . S
C1159 H1153 0.950 . S
C1159 C1158 1.327 . S
C1159 C1163 1.429 . S
C1160 C1143 1.574 . S
C1160 H1154 0.949 . S
C1160 C1164 1.368 . S
C1161 C1142 1.429 . S
C1161 C1155 1.429 . S
C1161 C1162 1.523 . S
C1162 C1143 1.368 . S
C1162 C1156 1.368 . S
C1162 C1161 1.523 . S
C1163 C1147 1.429 . S
C1163 C1159 1.429 . S
C1163 C1164 1.523 . S
C1164 C1148 1.368 . S
C1164 C1160 1.368 . S
C1164 C1163 1.523 . S
H1165 C1140 0.950 . S
H1166 C1142 0.950 . S
H1167 C1143 0.949 . S
H1168 C1145 0.950 . S
H1169 C1147 0.950 . S
C1170 C1171 1.349 . S
C1170 C1172 1.327 . S
C1170 H1195 0.950 . S
C1171 C1170 1.349 . S
C1171 C1187 1.349 . S
C1172 C1170 1.327 . S
C1172 C1191 1.429 . S
C1172 H1196 0.950 . S
C1173 C1190 1.574 . S
C1173 C1192 1.368 . S
C1173 H1197 0.949 . S
H1174 C1178 0.949 . S
C1175 C1176 1.349 . S
C1175 C1177 1.327 . S
C1175 H1198 0.950 . S
C1176 C1175 1.349 . S
C1176 C1188 1.349 . S
C1177 C1175 1.327 . S
C1177 C1193 1.429 . S
C1177 H1199 0.950 . S
C1178 H1174 0.949 . S
C1178 C1186 1.574 . S
C1178 C1194 1.368 . S
H1179 C1187 0.950 . S
H1180 C1185 0.950 . S
H1181 C1186 0.949 . S
H1182 C1188 0.950 . S
H1183 C1189 0.950 . S
H1184 C1190 0.949 . S
C1185 H1180 0.950 . S
C1185 C1187 1.327 . S
C1185 C1191 1.429 . S
C1186 C1178 1.574 . S
C1186 H1181 0.949 . S
C1186 C1192 1.368 . S
C1187 C1171 1.349 . S
C1187 H1179 0.950 . S
C1187 C1185 1.327 . S
C1188 C1176 1.349 . S
C1188 H1182 0.950 . S
C1188 C1189 1.327 . S
C1189 H1183 0.950 . S
C1189 C1188 1.327 . S
C1189 C1193 1.429 . S
C1190 C1173 1.574 . S
C1190 H1184 0.949 . S
C1190 C1194 1.368 . S
C1191 C1172 1.429 . S
C1191 C1185 1.429 . S
C1191 C1192 1.523 . S
C1192 C1173 1.368 . S
C1192 C1186 1.368 . S
C1192 C1191 1.523 . S
C1193 C1177 1.429 . S
C1193 C1189 1.429 . S
C1193 C1194 1.523 . S
C1194 C1178 1.368 . S
C1194 C1190 1.368 . S
C1194 C1193 1.523 . S
H1195 C1170 0.950 . S
H1196 C1172 0.950 . S
H1197 C1173 0.949 . S
H1198 C1175 0.950 . S
H1199 C1177 0.950 . S
C1200 C1201 1.349 . S
C1200 C1202 1.327 . S
C1200 H1225 0.950 . S
C1201 C1200 1.349 . S
C1201 C1217 1.349 . S
C1202 C1200 1.327 . S
C1202 C1221 1.429 . S
C1202 H1226 0.950 . S
C1203 C1220 1.574 . S
C1203 C1222 1.368 . S
C1203 H1227 0.949 . S
H1204 C1208 0.949 . S
C1205 C1206 1.349 . S
C1205 C1207 1.327 . S
C1205 H1228 0.950 . S
C1206 C1205 1.349 . S
C1206 C1218 1.349 . S
C1207 C1205 1.327 . S
C1207 C1223 1.429 . S
C1207 H1229 0.950 . S
C1208 H1204 0.949 . S
C1208 C1216 1.574 . S
C1208 C1224 1.368 . S
H1209 C1217 0.950 . S
H1210 C1215 0.950 . S
H1211 C1216 0.949 . S
H1212 C1218 0.950 . S
H1213 C1219 0.950 . S
H1214 C1220 0.949 . S
C1215 H1210 0.950 . S
C1215 C1217 1.327 . S
C1215 C1221 1.429 . S
C1216 C1208 1.574 . S
C1216 H1211 0.949 . S
C1216 C1222 1.368 . S
C1217 C1201 1.349 . S
C1217 H1209 0.950 . S
C1217 C1215 1.327 . S
C1218 C1206 1.349 . S
C1218 H1212 0.950 . S
C1218 C1219 1.327 . S
C1219 H1213 0.950 . S
C1219 C1218 1.327 . S
C1219 C1223 1.429 . S
C1220 C1203 1.574 . S
C1220 H1214 0.949 . S
C1220 C1224 1.368 . S
C1221 C1202 1.429 . S
C1221 C1215 1.429 . S
C1221 C1222 1.523 . S
C1222 C1203 1.368 . S
C1222 C1216 1.368 . S
C1222 C1221 1.523 . S
C1223 C1207 1.429 . S
C1223 C1219 1.429 . S
C1223 C1224 1.523 . S
C1224 C1208 1.368 . S
C1224 C1220 1.368 . S
C1224 C1223 1.523 . S
H1225 C1200 0.950 . S
H1226 C1202 0.950 . S
H1227 C1203 0.949 . S
H1228 C1205 0.950 . S
H1229 C1207 0.950 . S
C1230 C1231 1.349 . S
C1230 C1232 1.327 . S
C1230 H1255 0.950 . S
C1231 C1230 1.349 . S
C1231 C1247 1.349 . S
C1232 C1230 1.327 . S
C1232 C1251 1.429 . S
C1232 H1256 0.950 . S
C1233 C1250 1.574 . S
C1233 C1252 1.368 . S
C1233 H1257 0.949 . S
H1234 C1238 0.949 . S
C1235 C1236 1.349 . S
C1235 C1237 1.327 . S
C1235 H1258 0.950 . S
C1236 C1235 1.349 . S
C1236 C1248 1.349 . S
C1237 C1235 1.327 . S
C1237 C1253 1.429 . S
C1237 H1259 0.950 . S
C1238 H1234 0.949 . S
C1238 C1246 1.574 . S
C1238 C1254 1.368 . S
H1239 C1247 0.950 . S
H1240 C1245 0.950 . S
H1241 C1246 0.949 . S
H1242 C1248 0.950 . S
H1243 C1249 0.950 . S
H1244 C1250 0.949 . S
C1245 H1240 0.950 . S
C1245 C1247 1.327 . S
C1245 C1251 1.429 . S
C1246 C1238 1.574 . S
C1246 H1241 0.949 . S
C1246 C1252 1.368 . S
C1247 C1231 1.349 . S
C1247 H1239 0.950 . S
C1247 C1245 1.327 . S
C1248 C1236 1.349 . S
C1248 H1242 0.950 . S
C1248 C1249 1.327 . S
C1249 H1243 0.950 . S
C1249 C1248 1.327 . S
C1249 C1253 1.429 . S
C1250 C1233 1.574 . S
C1250 H1244 0.949 . S
C1250 C1254 1.368 . S
C1251 C1232 1.429 . S
C1251 C1245 1.429 . S
C1251 C1252 1.523 . S
C1252 C1233 1.368 . S
C1252 C1246 1.368 . S
C1252 C1251 1.523 . S
C1253 C1237 1.429 . S
C1253 C1249 1.429 . S
C1253 C1254 1.523 . S
C1254 C1238 1.368 . S
C1254 C1250 1.368 . S
C1254 C1253 1.523 . S
H1255 C1230 0.950 . S
H1256 C1232 0.950 . S
H1257 C1233 0.949 . S
H1258 C1235 0.950 . S
H1259 C1237 0.950 . S
C1260 C1261 1.349 . S
C1260 C1262 1.327 . S
C1260 H1285 0.950 . S
C1261 C1260 1.349 . S
C1261 C1277 1.349 . S
C1262 C1260 1.327 . S
C1262 C1281 1.429 . S
C1262 H1286 0.950 . S
C1263 C1280 1.574 . S
C1263 C1282 1.368 . S
C1263 H1287 0.949 . S
H1264 C1268 0.949 . S
C1265 C1266 1.349 . S
C1265 C1267 1.327 . S
C1265 H1288 0.950 . S
C1266 C1265 1.349 . S
C1266 C1278 1.349 . S
C1267 C1265 1.327 . S
C1267 C1283 1.429 . S
C1267 H1289 0.950 . S
C1268 H1264 0.949 . S
C1268 C1276 1.574 . S
C1268 C1284 1.368 . S
H1269 C1277 0.950 . S
H1270 C1275 0.950 . S
H1271 C1276 0.949 . S
H1272 C1278 0.950 . S
H1273 C1279 0.950 . S
H1274 C1280 0.949 . S
C1275 H1270 0.950 . S
C1275 C1277 1.327 . S
C1275 C1281 1.429 . S
C1276 C1268 1.574 . S
C1276 H1271 0.949 . S
C1276 C1282 1.368 . S
C1277 C1261 1.349 . S
C1277 H1269 0.950 . S
C1277 C1275 1.327 . S
C1278 C1266 1.349 . S
C1278 H1272 0.950 . S
C1278 C1279 1.327 . S
C1279 H1273 0.950 . S
C1279 C1278 1.327 . S
C1279 C1283 1.429 . S
C1280 C1263 1.574 . S
C1280 H1274 0.949 . S
C1280 C1284 1.368 . S
C1281 C1262 1.429 . S
C1281 C1275 1.429 . S
C1281 C1282 1.523 . S
C1282 C1263 1.368 . S
C1282 C1276 1.368 . S
C1282 C1281 1.523 . S
C1283 C1267 1.429 . S
C1283 C1279 1.429 . S
C1283 C1284 1.523 . S
C1284 C1268 1.368 . S
C1284 C1280 1.368 . S
C1284 C1283 1.523 . S
H1285 C1260 0.950 . S
H1286 C1262 0.950 . S
H1287 C1263 0.949 . S
H1288 C1265 0.950 . S
H1289 C1267 0.950 . S
C1290 C1291 1.349 . S
C1290 C1292 1.327 . S
C1290 H1315 0.950 . S
C1291 C1290 1.349 . S
C1291 C1307 1.349 . S
C1292 C1290 1.327 . S
C1292 C1311 1.429 . S
C1292 H1316 0.950 . S
C1293 C1310 1.574 . S
C1293 C1312 1.368 . S
C1293 H1317 0.949 . S
H1294 C1298 0.949 . S
C1295 C1296 1.349 . S
C1295 C1297 1.327 . S
C1295 H1318 0.950 . S
C1296 C1295 1.349 . S
C1296 C1308 1.349 . S
C1297 C1295 1.327 . S
C1297 C1313 1.429 . S
C1297 H1319 0.950 . S
C1298 H1294 0.949 . S
C1298 C1306 1.574 . S
C1298 C1314 1.368 . S
H1299 C1307 0.950 . S
H1300 C1305 0.950 . S
H1301 C1306 0.949 . S
H1302 C1308 0.950 . S
H1303 C1309 0.950 . S
H1304 C1310 0.949 . S
C1305 H1300 0.950 . S
C1305 C1307 1.327 . S
C1305 C1311 1.429 . S
C1306 C1298 1.574 . S
C1306 H1301 0.949 . S
C1306 C1312 1.368 . S
C1307 C1291 1.349 . S
C1307 H1299 0.950 . S
C1307 C1305 1.327 . S
C1308 C1296 1.349 . S
C1308 H1302 0.950 . S
C1308 C1309 1.327 . S
C1309 H1303 0.950 . S
C1309 C1308 1.327 . S
C1309 C1313 1.429 . S
C1310 C1293 1.574 . S
C1310 H1304 0.949 . S
C1310 C1314 1.368 . S
C1311 C1292 1.429 . S
C1311 C1305 1.429 . S
C1311 C1312 1.523 . S
C1312 C1293 1.368 . S
C1312 C1306 1.368 . S
C1312 C1311 1.523 . S
C1313 C1297 1.429 . S
C1313 C1309 1.429 . S
C1313 C1314 1.523 . S
C1314 C1298 1.368 . S
C1314 C1310 1.368 . S
C1314 C1313 1.523 . S
H1315 C1290 0.950 . S
H1316 C1292 0.950 . S
H1317 C1293 0.949 . S
H1318 C1295 0.950 . S
H1319 C1297 0.950 . S
C1320 C1321 1.293 1_545 S
C1320 C1322 1.327 . S
C1320 H1345 0.950 . S
C1321 C1320 1.293 1_565 S
C1321 C1337 1.472 . S
C1322 C1320 1.327 . S
C1322 C1341 1.429 1_545 S
C1322 H1346 0.950 . S
C1323 C1340 1.574 . S
C1323 C1342 1.368 . S
C1323 H1347 0.949 . S
H1324 C1328 0.949 . S
C1325 C1326 1.349 . S
C1325 C1327 1.327 . S
C1325 H1348 0.950 . S
C1326 C1325 1.349 . S
C1326 C1338 1.349 . S
C1327 C1325 1.327 . S
C1327 C1343 1.429 . S
C1327 H1349 0.950 . S
C1328 H1324 0.949 . S
C1328 C1336 1.574 . S
C1328 C1344 1.368 . S
H1329 C1337 0.950 . S
H1330 C1335 0.950 . S
H1331 C1336 0.949 1_545 S
H1332 C1338 0.950 . S
H1333 C1339 0.950 . S
H1334 C1340 0.949 . S
C1335 H1330 0.950 . S
C1335 C1337 1.327 . S
C1335 C1341 1.429 . S
C1336 C1328 1.574 . S
C1336 H1331 0.949 1_565 S
C1336 C1342 1.368 . S
C1337 C1321 1.472 . S
C1337 H1329 0.950 . S
C1337 C1335 1.327 . S
C1338 C1326 1.349 . S
C1338 H1332 0.950 . S
C1338 C1339 1.327 . S
C1339 H1333 0.950 . S
C1339 C1338 1.327 . S
C1339 C1343 1.429 . S
C1340 C1323 1.574 . S
C1340 H1334 0.949 . S
C1340 C1344 1.368 . S
C1341 C1322 1.429 1_565 S
C1341 C1335 1.429 . S
C1341 C1342 1.523 . S
C1342 C1323 1.368 . S
C1342 C1336 1.368 . S
C1342 C1341 1.523 . S
C1343 C1327 1.429 . S
C1343 C1339 1.429 . S
C1343 C1344 1.523 . S
C1344 C1328 1.368 . S
C1344 C1340 1.368 . S
C1344 C1343 1.523 . S
H1345 C1320 0.950 . S
H1346 C1322 0.950 . S
H1347 C1323 0.949 . S
H1348 C1325 0.950 . S
H1349 C1327 0.950 . S
C1350 C1351 1.349 . S
C1350 C1352 1.327 . S
C1350 H1375 0.950 . S
C1351 C1350 1.349 . S
C1351 C1367 1.349 . S
C1352 C1350 1.327 . S
C1352 C1371 1.429 . S
C1352 H1376 0.950 . S
C1353 C1370 1.574 . S
C1353 C1372 1.368 . S
C1353 H1377 0.949 . S
H1354 C1358 0.949 . S
C1355 C1356 1.349 . S
C1355 C1357 1.327 . S
C1355 H1378 0.950 . S
C1356 C1355 1.349 . S
C1356 C1368 1.349 . S
C1357 C1355 1.327 . S
C1357 C1373 1.429 . S
C1357 H1379 0.950 . S
C1358 H1354 0.949 . S
C1358 C1366 1.574 . S
C1358 C1374 1.368 . S
H1359 C1367 0.950 . S
H1360 C1365 0.950 . S
H1361 C1366 0.949 . S
H1362 C1368 0.950 . S
H1363 C1369 0.950 . S
H1364 C1370 0.949 . S
C1365 H1360 0.950 . S
C1365 C1367 1.327 . S
C1365 C1371 1.429 . S
C1366 C1358 1.574 . S
C1366 H1361 0.949 . S
C1366 C1372 1.368 . S
C1367 C1351 1.349 . S
C1367 H1359 0.950 . S
C1367 C1365 1.327 . S
C1368 C1356 1.349 . S
C1368 H1362 0.950 . S
C1368 C1369 1.327 . S
C1369 H1363 0.950 . S
C1369 C1368 1.327 . S
C1369 C1373 1.429 . S
C1370 C1353 1.574 . S
C1370 H1364 0.949 . S
C1370 C1374 1.368 . S
C1371 C1352 1.429 . S
C1371 C1365 1.429 . S
C1371 C1372 1.523 . S
C1372 C1353 1.368 . S
C1372 C1366 1.368 . S
C1372 C1371 1.523 . S
C1373 C1357 1.429 . S
C1373 C1369 1.429 . S
C1373 C1374 1.523 . S
C1374 C1358 1.368 . S
C1374 C1370 1.368 . S
C1374 C1373 1.523 . S
H1375 C1350 0.950 . S
H1376 C1352 0.950 . S
H1377 C1353 0.949 . S
H1378 C1355 0.950 . S
H1379 C1357 0.950 . S
C1380 C1381 1.349 . S
C1380 C1382 1.327 . S
C1380 H1405 0.950 . S
C1381 C1380 1.349 . S
C1381 C1397 1.349 . S
C1382 C1380 1.327 . S
C1382 C1401 1.429 . S
C1382 H1406 0.950 . S
C1383 C1400 1.574 . S
C1383 C1402 1.368 . S
C1383 H1407 0.949 . S
H1384 C1388 0.949 . S
C1385 C1386 1.349 . S
C1385 C1387 1.327 . S
C1385 H1408 0.950 . S
C1386 C1385 1.349 . S
C1386 C1398 1.349 . S
C1387 C1385 1.327 . S
C1387 C1403 1.429 . S
C1387 H1409 0.950 . S
C1388 H1384 0.949 . S
C1388 C1396 1.574 . S
C1388 C1404 1.368 . S
H1389 C1397 0.950 . S
H1390 C1395 0.950 . S
H1391 C1396 0.949 . S
H1392 C1398 0.950 . S
H1393 C1399 0.950 . S
H1394 C1400 0.949 . S
C1395 H1390 0.950 . S
C1395 C1397 1.327 . S
C1395 C1401 1.429 . S
C1396 C1388 1.574 . S
C1396 H1391 0.949 . S
C1396 C1402 1.368 . S
C1397 C1381 1.349 . S
C1397 H1389 0.950 . S
C1397 C1395 1.327 . S
C1398 C1386 1.349 . S
C1398 H1392 0.950 . S
C1398 C1399 1.327 . S
C1399 H1393 0.950 . S
C1399 C1398 1.327 . S
C1399 C1403 1.429 . S
C1400 C1383 1.574 . S
C1400 H1394 0.949 . S
C1400 C1404 1.368 . S
C1401 C1382 1.429 . S
C1401 C1395 1.429 . S
C1401 C1402 1.523 . S
C1402 C1383 1.368 . S
C1402 C1396 1.368 . S
C1402 C1401 1.523 . S
C1403 C1387 1.429 . S
C1403 C1399 1.429 . S
C1403 C1404 1.523 . S
C1404 C1388 1.368 . S
C1404 C1400 1.368 . S
C1404 C1403 1.523 . S
H1405 C1380 0.950 . S
H1406 C1382 0.950 . S
H1407 C1383 0.949 . S
H1408 C1385 0.950 . S
H1409 C1387 0.950 . S
C1410 C1411 1.349 . S
C1410 C1412 1.327 . S
C1410 H1435 0.950 . S
C1411 C1410 1.349 . S
C1411 C1427 1.354 . S
C1412 C1410 1.327 . S
C1412 C1431 1.429 1_565 S
C1412 H1436 0.950 . S
C1413 C1430 1.574 . S
C1413 C1432 1.368 . S
C1413 H1437 0.949 . S
H1414 C1418 0.949 . S
C1415 C1416 1.349 . S
C1415 C1417 1.327 . S
C1415 H1438 0.950 . S
C1416 C1415 1.349 . S
C1416 C1428 1.349 . S
C1417 C1415 1.327 . S
C1417 C1433 1.429 . S
C1417 H1439 0.950 . S
C1418 H1414 0.949 . S
C1418 C1426 1.574 . S
C1418 C1434 1.368 . S
H1419 C1427 0.947 1_545 S
H1420 C1425 0.950 . S
H1421 C1426 0.949 . S
H1422 C1428 0.950 . S
H1423 C1429 0.950 . S
H1424 C1430 0.949 . S
C1425 H1420 0.950 . S
C1425 C1427 1.324 1_545 S
C1425 C1431 1.429 . S
C1426 C1418 1.574 . S
C1426 H1421 0.949 . S
C1426 C1432 1.368 . S
C1427 C1411 1.354 . S
C1427 H1419 0.947 1_565 S
C1427 C1425 1.324 1_565 S
C1428 C1416 1.349 . S
C1428 H1422 0.950 . S
C1428 C1429 1.327 . S
C1429 H1423 0.950 . S
C1429 C1428 1.327 . S
C1429 C1433 1.429 . S
C1430 C1413 1.574 . S
C1430 H1424 0.949 . S
C1430 C1434 1.368 . S
C1431 C1412 1.429 1_545 S
C1431 C1425 1.429 . S
C1431 C1432 1.523 . S
C1432 C1413 1.368 . S
C1432 C1426 1.368 . S
C1432 C1431 1.523 . S
C1433 C1417 1.429 . S
C1433 C1429 1.429 . S
C1433 C1434 1.523 . S
C1434 C1418 1.368 . S
C1434 C1430 1.368 . S
C1434 C1433 1.523 . S
H1435 C1410 0.950 . S
H1436 C1412 0.950 . S
H1437 C1413 0.949 . S
H1438 C1415 0.950 . S
H1439 C1417 0.950 . S
C1440 C1441 1.365 . S
C1440 C1442 1.318 1_565 S
C1440 H1465 0.942 1_565 S
C1441 C1440 1.365 . S
C1441 C1457 1.349 . S
C1442 C1440 1.318 1_545 S
C1442 C1461 1.429 . S
C1442 H1466 0.950 . S
C1443 C1460 1.574 . S
C1443 C1462 1.368 . S
C1443 H1467 0.949 . S
H1444 C1448 0.949 . S
C1445 C1446 1.349 . S
C1445 C1447 1.327 . S
C1445 H1468 0.950 . S
C1446 C1445 1.349 . S
C1446 C1458 1.349 . S
C1447 C1445 1.327 . S
C1447 C1463 1.429 . S
C1447 H1469 0.950 . S
C1448 H1444 0.949 . S
C1448 C1456 1.574 . S
C1448 C1464 1.368 . S
H1449 C1457 0.950 . S
H1450 C1455 0.950 . S
H1451 C1456 0.949 . S
H1452 C1458 0.950 . S
H1453 C1459 0.950 . S
H1454 C1460 0.949 . S
C1455 H1450 0.950 . S
C1455 C1457 1.327 . S
C1455 C1461 1.429 1_565 S
C1456 C1448 1.574 . S
C1456 H1451 0.949 . S
C1456 C1462 1.368 . S
C1457 C1441 1.349 . S
C1457 H1449 0.950 . S
C1457 C1455 1.327 . S
C1458 C1446 1.349 . S
C1458 H1452 0.950 . S
C1458 C1459 1.327 . S
C1459 H1453 0.950 . S
C1459 C1458 1.327 . S
C1459 C1463 1.429 . S
C1460 C1443 1.574 . S
C1460 H1454 0.949 . S
C1460 C1464 1.368 . S
C1461 C1442 1.429 . S
C1461 C1455 1.429 1_545 S
C1461 C1462 1.523 . S
C1462 C1443 1.368 . S
C1462 C1456 1.368 . S
C1462 C1461 1.523 . S
C1463 C1447 1.429 . S
C1463 C1459 1.429 . S
C1463 C1464 1.523 . S
C1464 C1448 1.368 . S
C1464 C1460 1.368 . S
C1464 C1463 1.523 . S
H1465 C1440 0.942 1_545 S
H1466 C1442 0.950 . S
H1467 C1443 0.949 . S
H1468 C1445 0.950 . S
H1469 C1447 0.950 . S
C1470 C1471 1.349 . S
C1470 C1472 1.327 . S
C1470 H1495 0.950 . S
C1471 C1470 1.349 . S
C1471 C1487 1.349 . S
C1472 C1470 1.327 . S
C1472 C1491 1.429 . S
C1472 H1496 0.950 . S
C1473 C1490 1.574 . S
C1473 C1492 1.368 . S
C1473 H1497 0.949 . S
H1474 C1478 0.949 . S
C1475 C1476 1.349 . S
C1475 C1477 1.327 . S
C1475 H1498 0.950 . S
C1476 C1475 1.349 . S
C1476 C1488 1.349 . S
C1477 C1475 1.327 . S
C1477 C1493 1.429 . S
C1477 H1499 0.950 . S
C1478 H1474 0.949 . S
C1478 C1486 1.574 . S
C1478 C1494 1.368 . S
H1479 C1487 0.950 . S
H1480 C1485 0.950 . S
H1481 C1486 0.949 . S
H1482 C1488 0.950 . S
H1483 C1489 0.950 . S
H1484 C1490 0.949 . S
C1485 H1480 0.950 . S
C1485 C1487 1.327 . S
C1485 C1491 1.429 . S
C1486 C1478 1.574 . S
C1486 H1481 0.949 . S
C1486 C1492 1.368 . S
C1487 C1471 1.349 . S
C1487 H1479 0.950 . S
C1487 C1485 1.327 . S
C1488 C1476 1.349 . S
C1488 H1482 0.950 . S
C1488 C1489 1.327 . S
C1489 H1483 0.950 . S
C1489 C1488 1.327 . S
C1489 C1493 1.429 . S
C1490 C1473 1.574 . S
C1490 H1484 0.949 . S
C1490 C1494 1.368 . S
C1491 C1472 1.429 . S
C1491 C1485 1.429 . S
C1491 C1492 1.523 . S
C1492 C1473 1.368 . S
C1492 C1486 1.368 . S
C1492 C1491 1.523 . S
C1493 C1477 1.429 . S
C1493 C1489 1.429 . S
C1493 C1494 1.523 . S
C1494 C1478 1.368 . S
C1494 C1490 1.368 . S
C1494 C1493 1.523 . S
H1495 C1470 0.950 . S
H1496 C1472 0.950 . S
H1497 C1473 0.949 . S
H1498 C1475 0.950 . S
H1499 C1477 0.950 . S
C1500 C1501 1.349 . S
C1500 C1502 1.327 . S
C1500 H1525 0.950 . S
C1501 C1500 1.349 . S
C1501 C1517 1.349 . S
C1502 C1500 1.327 . S
C1502 C1521 1.429 . S
C1502 H1526 0.950 . S
C1503 C1520 1.574 . S
C1503 C1522 1.368 . S
C1503 H1527 0.949 . S
H1504 C1508 0.949 . S
C1505 C1506 1.349 . S
C1505 C1507 1.327 . S
C1505 H1528 0.950 . S
C1506 C1505 1.349 . S
C1506 C1518 1.349 . S
C1507 C1505 1.327 . S
C1507 C1523 1.429 . S
C1507 H1529 0.950 . S
C1508 H1504 0.949 . S
C1508 C1516 1.574 . S
C1508 C1524 1.368 . S
H1509 C1517 0.950 . S
H1510 C1515 0.950 . S
H1511 C1516 0.949 . S
H1512 C1518 0.950 . S
H1513 C1519 0.950 . S
H1514 C1520 0.949 . S
C1515 H1510 0.950 . S
C1515 C1517 1.327 . S
C1515 C1521 1.429 . S
C1516 C1508 1.574 . S
C1516 H1511 0.949 . S
C1516 C1522 1.368 . S
C1517 C1501 1.349 . S
C1517 H1509 0.950 . S
C1517 C1515 1.327 . S
C1518 C1506 1.349 . S
C1518 H1512 0.950 . S
C1518 C1519 1.327 . S
C1519 H1513 0.950 . S
C1519 C1518 1.327 . S
C1519 C1523 1.429 . S
C1520 C1503 1.574 . S
C1520 H1514 0.949 . S
C1520 C1524 1.368 . S
C1521 C1502 1.429 . S
C1521 C1515 1.429 . S
C1521 C1522 1.523 . S
C1522 C1503 1.368 . S
C1522 C1516 1.368 . S
C1522 C1521 1.523 . S
C1523 C1507 1.429 . S
C1523 C1519 1.429 . S
C1523 C1524 1.523 . S
C1524 C1508 1.368 . S
C1524 C1520 1.368 . S
C1524 C1523 1.523 . S
H1525 C1500 0.950 . S
H1526 C1502 0.950 . S
H1527 C1503 0.949 . S
H1528 C1505 0.950 . S
H1529 C1507 0.950 . S
C721 C135 1.496 . S
C726 C15 1.496 . S
C751 C55 1.500 . S
C756 C175 1.499 . S
C781 C215 1.500 . S
C786 C95 1.501 . S
C811 C375 1.503 . S
C816 C255 1.503 . S
C841 C415 1.504 . S
C846 C295 1.504 . S
C871 C335 1.500 . S
C876 C455 1.500 . S
C901 C615 1.509 . S
C906 C495 1.508 . S
C931 C655 1.507 . S
C936 C535 1.507 . S
C961 C575 1.505 . S
C966 C695 1.505 . S
C991 C341 1.488 . S
C996 C2 1.486 1_565 S
C1021 C242 1.488 . S
C1026 C61 1.491 . S
C1051 C282 1.506 . S
C1056 C82 1.502 . S
C1081 C42 1.497 . S
C1086 C562 1.497 . S
C1111 C482 1.480 . S
C1116 C101 1.482 . S
C1141 C21 1.484 . S
C1146 C541 1.485 . S
C1171 C682 1.493 . S
C1176 C122 1.494 . S
C1201 C621 1.500 . S
C1206 C162 1.499 . S
C1231 C221 1.481 . S
C1236 C661 1.489 . S
C1261 C442 1.487 . S
C1266 C181 1.489 . S
C1291 C362 1.506 . S
C1296 C202 1.498 . S
C1321 C141 1.426 1_565 S
C1326 C402 1.495 . S
C1351 C261 1.478 . S
C1356 C581 1.479 . S
C1381 C501 1.483 . S
C1386 C301 1.489 . S
C1411 C322 1.493 . S
C1416 C522 1.493 . S
C1441 C421 1.476 . S
C1446 C701 1.475 . S
C1471 C461 1.496 . S
C1476 C602 1.496 . S
C1501 C381 1.494 . S
C1506 C642 1.493 . S
