# Generated by pormake.
# Topology why, (6)-cn, num edge types: 1
# Building blocks:
#     Node 0, Type 0, BuildingBlock: UKALOJ_clean_sbu_0, # of connection points: 6
#     Node 1, Type 0, BuildingBlock: UKALOJ_clean_sbu_0, # of connection points: 6
#     Node 2, Type 0, BuildingBlock: UKALOJ_clean_sbu_0, # of connection points: 6
#     Node 3, Type 0, BuildingBlock: UKALOJ_clean_sbu_0, # of connection points: 6
#     Node 4, Type 0, BuildingBlock: UKALOJ_clean_sbu_0, # of connection points: 6
#     Node 5, Type 0, BuildingBlock: UKALOJ_clean_sbu_0, # of connection points: 6
#     Node 6, Type 0, BuildingBlock: UKALOJ_clean_sbu_0, # of connection points: 6
#     Node 7, Type 0, BuildingBlock: UKALOJ_clean_sbu_0, # of connection points: 6
#     Node 8, Type 0, BuildingBlock: UKALOJ_clean_sbu_0, # of connection points: 6
#     Node 9, Type 0, BuildingBlock: UKALOJ_clean_sbu_0, # of connection points: 6
#     Node 10, Type 0, BuildingBlock: UKALOJ_clean_sbu_0, # of connection points: 6
#     Node 11, Type 0, BuildingBlock: UKALOJ_clean_sbu_0, # of connection points: 6
#     Node 12, Type 0, BuildingBlock: UKALOJ_clean_sbu_0, # of connection points: 6
#     Node 13, Type 0, BuildingBlock: UKALOJ_clean_sbu_0, # of connection points: 6
#     Node 14, Type 0, BuildingBlock: UKALOJ_clean_sbu_0, # of connection points: 6
#     Node 15, Type 0, BuildingBlock: UKALOJ_clean_sbu_0, # of connection points: 6
#     Edge 16, Type (0, 0), BuildingBlock: AJUNOK_clean_linker_0, # of connection points: 2
#     Edge 17, Type (0, 0), BuildingBlock: AJUNOK_clean_linker_0, # of connection points: 2
#     Edge 18, Type (0, 0), BuildingBlock: AJUNOK_clean_linker_0, # of connection points: 2
#     Edge 19, Type (0, 0), BuildingBlock: AJUNOK_clean_linker_0, # of connection points: 2
#     Edge 20, Type (0, 0), BuildingBlock: AJUNOK_clean_linker_0, # of connection points: 2
#     Edge 21, Type (0, 0), BuildingBlock: AJUNOK_clean_linker_0, # of connection points: 2
#     Edge 22, Type (0, 0), BuildingBlock: AJUNOK_clean_linker_0, # of connection points: 2
#     Edge 23, Type (0, 0), BuildingBlock: AJUNOK_clean_linker_0, # of connection points: 2
#     Edge 24, Type (0, 0), BuildingBlock: AJUNOK_clean_linker_0, # of connection points: 2
#     Edge 25, Type (0, 0), BuildingBlock: AJUNOK_clean_linker_0, # of connection points: 2
#     Edge 26, Type (0, 0), BuildingBlock: AJUNOK_clean_linker_0, # of connection points: 2
#     Edge 27, Type (0, 0), BuildingBlock: AJUNOK_clean_linker_0, # of connection points: 2
#     Edge 28, Type (0, 0), BuildingBlock: AJUNOK_clean_linker_0, # of connection points: 2
#     Edge 29, Type (0, 0), BuildingBlock: AJUNOK_clean_linker_0, # of connection points: 2
#     Edge 30, Type (0, 0), BuildingBlock: AJUNOK_clean_linker_0, # of connection points: 2
#     Edge 31, Type (0, 0), BuildingBlock: AJUNOK_clean_linker_0, # of connection points: 2
#     Edge 32, Type (0, 0), BuildingBlock: AJUNOK_clean_linker_0, # of connection points: 2
#     Edge 33, Type (0, 0), BuildingBlock: AJUNOK_clean_linker_0, # of connection points: 2
#     Edge 34, Type (0, 0), BuildingBlock: AJUNOK_clean_linker_0, # of connection points: 2
#     Edge 35, Type (0, 0), BuildingBlock: AJUNOK_clean_linker_0, # of connection points: 2
#     Edge 36, Type (0, 0), BuildingBlock: AJUNOK_clean_linker_0, # of connection points: 2
#     Edge 37, Type (0, 0), BuildingBlock: AJUNOK_clean_linker_0, # of connection points: 2
#     Edge 38, Type (0, 0), BuildingBlock: AJUNOK_clean_linker_0, # of connection points: 2
#     Edge 39, Type (0, 0), BuildingBlock: AJUNOK_clean_linker_0, # of connection points: 2
#     Edge 40, Type (0, 0), BuildingBlock: AJUNOK_clean_linker_0, # of connection points: 2
#     Edge 41, Type (0, 0), BuildingBlock: AJUNOK_clean_linker_0, # of connection points: 2
#     Edge 42, Type (0, 0), BuildingBlock: AJUNOK_clean_linker_0, # of connection points: 2
#     Edge 43, Type (0, 0), BuildingBlock: AJUNOK_clean_linker_0, # of connection points: 2
#     Edge 44, Type (0, 0), BuildingBlock: AJUNOK_clean_linker_0, # of connection points: 2
#     Edge 45, Type (0, 0), BuildingBlock: AJUNOK_clean_linker_0, # of connection points: 2
#     Edge 46, Type (0, 0), BuildingBlock: AJUNOK_clean_linker_0, # of connection points: 2
#     Edge 47, Type (0, 0), BuildingBlock: AJUNOK_clean_linker_0, # of connection points: 2
#     Edge 48, Type (0, 0), BuildingBlock: AJUNOK_clean_linker_0, # of connection points: 2
#     Edge 49, Type (0, 0), BuildingBlock: AJUNOK_clean_linker_0, # of connection points: 2
#     Edge 50, Type (0, 0), BuildingBlock: AJUNOK_clean_linker_0, # of connection points: 2
#     Edge 51, Type (0, 0), BuildingBlock: AJUNOK_clean_linker_0, # of connection points: 2
#     Edge 52, Type (0, 0), BuildingBlock: AJUNOK_clean_linker_0, # of connection points: 2
#     Edge 53, Type (0, 0), BuildingBlock: AJUNOK_clean_linker_0, # of connection points: 2
#     Edge 54, Type (0, 0), BuildingBlock: AJUNOK_clean_linker_0, # of connection points: 2
#     Edge 55, Type (0, 0), BuildingBlock: AJUNOK_clean_linker_0, # of connection points: 2
#     Edge 56, Type (0, 0), BuildingBlock: AJUNOK_clean_linker_0, # of connection points: 2
#     Edge 57, Type (0, 0), BuildingBlock: AJUNOK_clean_linker_0, # of connection points: 2
#     Edge 58, Type (0, 0), BuildingBlock: AJUNOK_clean_linker_0, # of connection points: 2
#     Edge 59, Type (0, 0), BuildingBlock: AJUNOK_clean_linker_0, # of connection points: 2
#     Edge 60, Type (0, 0), BuildingBlock: AJUNOK_clean_linker_0, # of connection points: 2
#     Edge 61, Type (0, 0), BuildingBlock: AJUNOK_clean_linker_0, # of connection points: 2
#     Edge 62, Type (0, 0), BuildingBlock: AJUNOK_clean_linker_0, # of connection points: 2
#     Edge 63, Type (0, 0), BuildingBlock: AJUNOK_clean_linker_0, # of connection points: 2
# Relax obj value: 0.502
# Max RMSD: 0.178
# Mean RMSD: 0.178
data_MOF--net-why--node1-UKALOJ_clean_sbu_0--edge1-AJUNOK_clean_linker_0
_symmetry_space_group_name_H-M    P1
_symmetry_Int_Tables_number       1
_symmetry_cell_setting            triclinic
loop_
_symmetry_equiv_pos_as_xyz
'x, y, z'
_cell_length_a     40.231427
_cell_length_b     40.21941
_cell_length_c     18.448035
_cell_angle_alpha  89.967757
_cell_angle_beta   89.948401
_cell_angle_gamma 89.983442
loop_
_atom_site_label
_atom_site_type_symbol
_atom_site_fract_x
_atom_site_fract_y
_atom_site_fract_z
_atom_type_partial_charge
Zn0 Zn 0.33146 0.19759 0.05819 0.0
O1 O 0.329 0.14934 0.10683 0.0
C2 C 0.30432 0.23253 0.19239 0.0
Zn3 Zn 0.37041 0.21113 0.13527 0.0
C4 C 0.34748 0.14282 0.16049 0.0
O5 O 0.36455 0.16603 0.1874 0.0
C6 C 0.36172 0.26401 1.02363 0.0
O7 O 0.40707 0.18758 0.06715 0.0
O8 O 0.36803 0.17715 0.98694 0.0
N9 N 0.40241 0.22197 0.214 0.0
C10 C 0.4297 0.24084 0.21825 0.0
C11 C 0.41894 0.22331 0.32515 0.0
N12 N 0.39561 0.21125 0.28036 0.0
N13 N 0.44008 0.24246 0.28749 0.0
C14 C 0.2666 0.16591 1.00503 0.0
C15 C 0.26658 0.17506 0.89115 0.0
N16 N 0.29424 0.18355 0.98967 0.0
N17 N 0.29425 0.18919 0.91886 0.0
N18 N 0.24909 0.16019 0.9443 0.0
H19 H 0.26567 0.12511 0.07912 0.0
H20 H 0.23079 0.15197 0.08772 0.0
H21 H 0.27021 0.16476 0.12288 0.0
C22 C 0.25792 0.15156 0.07797 0.0
C23 C 0.4468 0.25636 0.15447 0.0
H24 H 0.44053 0.24298 0.10378 0.0
H25 H 0.47414 0.2562 0.16213 0.0
H26 H 0.43859 0.2826 0.14939 0.0
O27 O 0.37818 0.25682 0.08036 0.0
O28 O 0.33814 0.24479 1.00377 0.0
C29 C 0.39839 0.17535 1.00622 0.0
O30 O 0.29433 0.21908 0.13375 0.0
O31 O 0.33522 0.23337 0.20384 0.0
Zn32 Zn 0.55455 0.62308 0.38909 0.0
O33 O 0.57781 0.65996 0.32048 0.0
C34 C 0.50082 0.61371 0.27852 0.0
Zn35 Zn 0.56758 0.58427 0.31081 0.0
C36 C 0.58972 0.65127 0.25915 0.0
O37 O 0.58765 0.62095 0.23976 0.0
C38 C 0.53327 0.55671 0.4451 0.0
O39 O 0.6159 0.58237 0.35918 0.0
O40 O 0.59963 0.61767 0.44087 0.0
N41 N 0.5821 0.54715 0.24222 0.0
C42 C 0.60024 0.51983 0.25763 0.0
C43 C 0.59074 0.5193 0.14394 0.0
N44 N 0.57626 0.54686 0.17152 0.0
N45 N 0.60608 0.50221 0.19703 0.0
C46 C 0.52325 0.68152 0.47199 0.0
C47 C 0.53894 0.67043 0.58006 0.0
N48 N 0.54301 0.65485 0.46842 0.0
N49 N 0.55267 0.64785 0.53546 0.0
N50 N 0.51973 0.69119 0.54152 0.0
H51 H 0.50967 0.72644 0.41561 0.0
H52 H 0.48311 0.69141 0.39915 0.0
H53 H 0.52361 0.69297 0.35762 0.0
C54 C 0.50929 0.69915 0.40715 0.0
C55 C 0.61505 0.51176 0.33047 0.0
H56 H 0.64096 0.52103 0.3317 0.0
H57 H 0.61638 0.48467 0.34017 0.0
H58 H 0.6011 0.52318 0.37548 0.0
O59 O 0.54647 0.54692 0.38601 0.0
O60 O 0.53271 0.58756 0.45743 0.0
C61 C 0.62271 0.60074 0.41287 0.0
O62 O 0.50867 0.63028 0.33467 0.0
O63 O 0.5201 0.59047 0.25699 0.0
Zn64 Zn 0.14318 0.80412 0.63813 0.0
O65 O 0.10616 0.82801 0.57196 0.0
C66 C 0.15207 0.75157 0.52414 0.0
Zn67 Zn 0.1816 0.81768 0.5596 0.0
C68 C 0.11431 0.84041 0.5108 0.0
O69 O 0.14437 0.83815 0.48962 0.0
C70 C 0.20967 0.78239 0.69251 0.0
O71 O 0.1834 0.86556 0.6092 0.0
O72 O 0.14883 0.84895 0.6921 0.0
N73 N 0.21816 0.83352 0.49108 0.0
C74 C 0.24727 0.84824 0.50794 0.0
C75 C 0.24183 0.85097 0.39318 0.0
N76 N 0.21475 0.83531 0.41976 0.0
N77 N 0.26249 0.85942 0.44761 0.0
C78 C 0.08475 0.77227 0.72036 0.0
C79 C 0.09539 0.78842 0.82822 0.0
N80 N 0.11147 0.79198 0.71694 0.0
N81 N 0.11819 0.80189 0.78388 0.0
N82 N 0.07472 0.76912 0.78974 0.0
H83 H 0.07287 0.77282 0.60637 0.0
H84 H 0.04035 0.7567 0.6643 0.0
H85 H 0.0768 0.73217 0.64639 0.0
C86 C 0.0676 0.75783 0.65548 0.0
C87 C 0.26026 0.85333 0.5836 0.0
H88 H 0.27438 0.87696 0.58736 0.0
H89 H 0.27727 0.83258 0.59739 0.0
H90 H 0.24043 0.85373 0.62471 0.0
O91 O 0.21931 0.79626 0.63399 0.0
O92 O 0.17883 0.78151 0.70496 0.0
C93 C 0.16552 0.87215 0.66382 0.0
O94 O 0.13569 0.75878 0.58108 0.0
O95 O 0.17564 0.77079 0.50405 0.0
Zn96 Zn 0.96075 0.39404 0.88999 0.0
O97 O 0.93686 0.35662 0.82365 0.0
C98 C 0.013 0.40336 0.77501 0.0
Zn99 Zn 0.94644 0.43172 0.81018 0.0
C100 C 0.92436 0.36443 0.76234 0.0
O101 O 0.92642 0.39442 0.74058 0.0
C102 C 0.98161 0.46078 0.94243 0.0
O103 O 0.89873 0.43279 0.86009 0.0
O104 O 0.91597 0.39934 0.94458 0.0
N105 N 0.93022 0.46836 0.74212 0.0
C106 C 0.91472 0.49709 0.75915 0.0
C107 C 0.91463 0.49309 0.64395 0.0
N108 N 0.93007 0.46585 0.6705 0.0
N109 N 0.90471 0.51293 0.69869 0.0
C110 C 0.9932 0.33582 0.97165 0.0
C111 C 0.97825 0.34674 0.0803 0.0
N112 N 0.97353 0.36258 0.96898 0.0
N113 N 0.96437 0.3695 1.0364 0.0
N114 N 0.99711 0.32594 1.04098 0.0
H115 H 0.9917 0.32421 0.85749 0.0
H116 H 1.00716 0.29111 0.9146 0.0
H117 H 0.03264 0.32687 0.89635 0.0
C118 C 1.00677 0.31841 0.90612 0.0
C119 C 0.90738 0.5091 0.83472 0.0
H120 H 0.90983 0.48961 0.8762 0.0
H121 H 0.88189 0.51962 0.83731 0.0
H122 H 0.925 0.52916 0.84896 0.0
O123 O 0.96738 0.46951 0.88372 0.0
O124 O 0.98322 0.43011 0.95657 0.0
C125 C 0.89248 0.41535 0.91556 0.0
O126 O 1.00613 0.38699 0.83221 0.0
O127 O 0.99331 0.42646 0.75462 0.0
Zn128 Zn 0.6436 0.80558 0.96535 0.0
O129 O 0.60674 0.82887 1.03301 0.0
C130 C 0.65236 0.75203 0.0763 0.0
Zn131 Zn 0.6817 0.81884 1.04494 0.0
C132 C 0.61465 0.841 0.09452 0.0
O133 O 0.64467 0.83885 0.11595 0.0
C134 C 0.70988 0.78454 0.91047 0.0
O135 O 0.68361 0.86722 0.99683 0.0
O136 O 0.64925 0.85071 0.91355 0.0
N137 N 0.71869 0.83315 0.11398 0.0
C138 C 0.74614 0.85115 0.09896 0.0
C139 C 0.74654 0.84115 0.21246 0.0
N140 N 0.7189 0.827 0.18458 0.0
N141 N 0.76374 0.85661 0.15967 0.0
C142 C 0.58389 0.7761 0.88354 0.0
C143 C 0.59477 0.79205 0.77547 0.0
N144 N 0.61161 0.79439 0.88645 0.0
N145 N 0.61848 0.80417 0.8194 0.0
N146 N 0.57331 0.77387 0.81457 0.0
H147 H 0.57431 0.7743 0.99878 0.0
H148 H 0.53914 0.76407 0.94198 0.0
H149 H 0.57251 0.73487 0.95221 0.0
C150 C 0.56647 0.76172 0.9482 0.0
C151 C 0.75466 0.86588 1.02628 0.0
H152 H 0.7462 0.89211 1.02526 0.0
H153 H 0.78183 0.86619 1.01691 0.0
H154 H 0.74281 0.85245 0.98112 0.0
O155 O 0.71932 0.79782 0.96973 0.0
O156 O 0.67909 0.78374 0.89757 0.0
C157 C 0.66562 0.87393 0.94245 0.0
O158 O 0.63614 0.75978 1.01961 0.0
O159 O 0.67543 0.77135 0.09838 0.0
Zn160 Zn 0.46086 0.39535 0.71347 0.0
O161 O 0.43724 0.35756 0.7796 0.0
C162 C 0.51365 0.40409 0.82715 0.0
Zn163 Zn 0.44691 0.43235 0.79494 0.0
C164 C 0.4251 0.36488 0.84158 0.0
O165 O 0.42731 0.3947 0.86425 0.0
C166 C 0.48155 0.46233 0.6623 0.0
O167 O 0.39888 0.43332 0.74633 0.0
O168 O 0.41601 0.40089 0.65991 0.0
N169 N 0.43073 0.46862 0.86387 0.0
C170 C 0.41491 0.49722 0.84735 0.0
C171 C 0.41497 0.49283 0.96249 0.0
N172 N 0.43068 0.46585 0.93545 0.0
N173 N 0.40478 0.51277 0.90813 0.0
C174 C 0.4914 0.33633 0.63025 0.0
C175 C 0.47682 0.3485 0.52198 0.0
N176 N 0.47323 0.36413 0.6337 0.0
N177 N 0.46434 0.37182 0.56651 0.0
N178 N 0.49442 0.32648 0.56082 0.0
H179 H 0.50077 0.29084 0.68805 0.0
H180 H 0.53182 0.32241 0.69889 0.0
H181 H 0.49249 0.32636 0.74542 0.0
C182 C 0.50467 0.31798 0.69476 0.0
C183 C 0.40746 0.50938 0.7719 0.0
H184 H 0.3821 0.52021 0.76968 0.0
H185 H 0.42536 0.52915 0.75724 0.0
H186 H 0.40958 0.48993 0.73033 0.0
O187 O 0.46751 0.47069 0.72153 0.0
O188 O 0.48309 0.43174 0.6473 0.0
C189 C 0.39251 0.41633 0.69033 0.0
O190 O 0.50629 0.38809 0.76984 0.0
O191 O 0.49406 0.42693 0.8494 0.0
Zn192 Zn 0.87016 0.21298 0.46339 0.0
O193 O 0.90781 0.18874 0.52886 0.0
C194 C 0.86118 0.26416 0.57896 0.0
Zn195 Zn 0.83309 0.19709 0.54291 0.0
C196 C 0.90027 0.17593 0.59007 0.0
O197 O 0.87036 0.17753 0.61225 0.0
C198 C 0.80315 0.23261 0.41156 0.0
O199 O 0.83268 0.14937 0.49215 0.0
O200 O 0.86494 0.16873 0.40783 0.0
N201 N 0.79662 0.18103 0.61178 0.0
C202 C 0.77007 0.16173 0.59686 0.0
C203 C 0.76818 0.17314 0.7096 0.0
N204 N 0.7955 0.18802 0.68195 0.0
N205 N 0.7521 0.1563 0.65722 0.0
C206 C 0.92961 0.24369 0.3822 0.0
C207 C 0.91808 0.22938 0.27345 0.0
N208 N 0.90159 0.22584 0.38458 0.0
N209 N 0.8943 0.21714 0.3171 0.0
N210 N 0.94001 0.24664 0.31315 0.0
H211 H 0.97471 0.25459 0.44039 0.0
H212 H 0.94145 0.28374 0.45359 0.0
H213 H 0.93969 0.24363 0.49722 0.0
C214 C 0.94741 0.25695 0.4474 0.0
C215 C 0.76281 0.14606 0.52455 0.0
H216 H 0.77585 0.12179 0.52168 0.0
H217 H 0.73601 0.14089 0.51724 0.0
H218 H 0.77142 0.16177 0.47919 0.0
O219 O 0.79488 0.21737 0.46943 0.0
O220 O 0.83378 0.23571 0.39794 0.0
C221 C 0.85019 0.14431 0.43614 0.0
O222 O 0.87742 0.25785 0.52138 0.0
O223 O 0.8382 0.24419 0.59887 0.0
Zn224 Zn 0.05193 0.6211 0.21611 0.0
O225 O 0.07596 0.65863 0.28147 0.0
C226 C 1.00058 0.61111 0.3306 0.0
Zn227 Zn 0.06762 0.58325 0.29361 0.0
C228 C 0.08866 0.65077 0.34256 0.0
O229 O 0.08694 0.6207 0.36406 0.0
C230 C 0.03224 0.55452 0.16153 0.0
O231 O 0.11563 0.58356 0.2436 0.0
O232 O 0.09599 0.61608 0.16024 0.0
N233 N 0.08393 0.54654 0.36145 0.0
C234 C 0.1032 0.52009 0.34533 0.0
C235 C 0.09386 0.51868 0.45906 0.0
N236 N 0.07815 0.54569 0.43215 0.0
N237 N 0.10991 0.50246 0.40559 0.0
C238 C 0.02051 0.67958 0.13256 0.0
C239 C 0.0349 0.66689 1.02442 0.0
N240 N 0.03891 0.65198 0.13654 0.0
N241 N 0.04764 0.64395 0.06942 0.0
N242 N 0.0172 0.68897 0.06286 0.0
H243 H 0.01031 0.72527 0.18899 0.0
H244 H 0.9803 0.69284 0.20244 0.0
H245 H 0.02011 0.69041 0.24724 0.0
C246 C 1.00725 0.69809 0.19685 0.0
C247 C 0.11847 0.51335 0.27228 0.0
H248 H 0.14344 0.52503 0.2705 0.0
H249 H 0.12208 0.48651 0.26226 0.0
H250 H 0.10333 0.52357 0.22771 0.0
O251 O 0.04741 0.545 0.21854 0.0
O252 O 0.02943 0.58534 0.15102 0.0
C253 C 0.12056 0.60167 0.18848 0.0
O254 O 1.00713 0.62807 0.27415 0.0
O255 O 0.02039 0.5878 0.34945 0.0
Zn256 Zn 0.83378 0.69745 0.56143 0.0
O257 O 0.83183 0.64918 0.60861 0.0
C258 C 0.80489 0.73331 0.69407 0.0
Zn259 Zn 0.87091 0.71061 0.64256 0.0
C260 C 0.84769 0.64279 0.66613 0.0
O261 O 0.86275 0.66626 0.6975 0.0
C262 C 0.86444 0.76341 0.5283 0.0
O263 O 0.90712 0.68447 0.57663 0.0
O264 O 0.87029 0.6773 0.49041 0.0
N265 N 0.90319 0.72021 0.72227 0.0
C266 C 0.93628 0.72293 0.72471 0.0
C267 C 0.9186 0.72459 0.83404 0.0
N268 N 0.89219 0.7211 0.79009 0.0
N269 N 0.94646 0.72498 0.7941 0.0
C270 C 0.76807 0.66749 0.50905 0.0
C271 C 0.77189 0.66915 0.39384 0.0
N272 N 0.79685 0.68302 0.49279 0.0
N273 N 0.79924 0.684 0.42118 0.0
N274 N 0.75207 0.65852 0.44804 0.0
H275 H 0.74592 0.63346 0.58542 0.0
H276 H 0.73612 0.67638 0.6 0.0
H277 H 0.77565 0.6612 0.62584 0.0
C278 C 0.75622 0.65906 0.58429 0.0
C279 C 0.95828 0.72525 0.65927 0.0
H280 H 0.96808 0.70018 0.64623 0.0
H281 H 0.97969 0.74191 0.6699 0.0
H282 H 0.94417 0.73472 0.61197 0.0
O283 O 0.88105 0.75566 0.58475 0.0
O284 O 0.84032 0.7448 0.50872 0.0
C285 C 0.89973 0.67332 0.51394 0.0
O286 O 0.79636 0.71843 0.63603 0.0
O287 O 0.83555 0.73526 0.7082 0.0
Zn288 Zn 0.05249 0.12045 0.88719 0.0
O289 O 0.0789 0.15665 0.82139 0.0
C290 C 1.00118 0.11317 0.77201 0.0
Zn291 Zn 0.06758 0.08383 0.80696 0.0
C292 C 0.09023 0.14966 0.75858 0.0
O293 O 0.08694 0.12019 0.73466 0.0
C294 C 0.03129 0.05468 0.93976 0.0
O295 O 0.11578 0.08381 0.85567 0.0
O296 O 0.09587 0.11296 0.94456 0.0
N297 N 0.0829 0.04634 0.7401 0.0
C298 C 0.10173 0.01964 0.75688 0.0
C299 C 0.09213 0.01765 0.64333 0.0
N300 N 0.07695 0.0451 0.66952 0.0
N301 N 0.10798 1.0015 0.69715 0.0
C302 C 0.03999 0.18616 0.96784 0.0
C303 C 0.03646 0.16842 0.07685 0.0
N304 N 0.04185 0.15299 0.96543 0.0
N305 N 0.03977 0.14197 1.03308 0.0
N306 N 0.03732 0.19633 1.03713 0.0
H307 H 0.06472 0.21659 0.88957 0.0
H308 H 0.0236 0.23055 0.91267 0.0
H309 H 0.02903 0.19459 0.85502 0.0
C310 C 0.0391 0.20823 0.90238 0.0
C311 C 0.11712 0.01309 0.82986 0.0
H312 H 0.14265 0.02353 0.83012 0.0
H313 H 0.1194 0.98622 0.84136 0.0
H314 H 0.10285 0.02453 0.87436 0.0
O315 O 0.0474 0.04638 0.88305 0.0
O316 O 0.02753 0.08531 0.9522 0.0
C317 C 0.12059 0.09992 0.91367 0.0
O318 O 0.00845 0.13 0.82827 0.0
O319 O 0.02009 0.0891 0.75306 0.0
Zn320 Zn 0.64283 0.30541 0.13978 0.0
O321 O 0.60667 0.33169 0.07331 0.0
C322 C 0.64992 0.25267 1.0278 0.0
Zn323 Zn 0.68075 0.31897 0.06106 0.0
C324 C 0.61479 0.34235 1.01056 0.0
O325 O 0.64462 0.33864 0.98919 0.0
C326 C 0.70848 0.28268 0.19368 0.0
O327 O 0.68208 0.36782 0.10839 0.0
O328 O 0.65105 0.34885 0.19514 0.0
N329 N 0.71782 0.33357 0.99267 0.0
C330 C 0.74691 0.34829 1.00955 0.0
C331 C 0.74248 0.34918 0.89444 0.0
N332 N 0.71502 0.3342 0.92111 0.0
N333 N 0.76275 0.35831 0.94904 0.0
C334 C 0.57765 0.2918 0.22237 0.0
C335 C 0.59553 0.29131 0.33154 0.0
N336 N 0.61058 0.29596 0.21953 0.0
N337 N 0.62167 0.29587 0.28725 0.0
N338 N 0.5677 0.28945 0.29186 0.0
H339 H 0.56998 0.28068 0.10925 0.0
H340 H 0.54433 0.31347 0.14574 0.0
H341 H 0.53518 0.27092 0.16771 0.0
C342 C 0.55558 0.28884 0.15731 0.0
C343 C 0.7593 0.35458 0.08523 0.0
H344 H 0.77333 0.37829 0.08774 0.0
H345 H 0.7763 0.33413 0.10107 0.0
H346 H 0.73913 0.35552 0.12552 0.0
O347 O 0.71802 0.2982 0.13714 0.0
O348 O 0.67762 0.28049 0.20498 0.0
C349 C 0.6653 0.37314 0.16537 0.0
O350 O 0.63279 0.26098 0.08298 0.0
O351 O 0.67429 0.27107 1.00814 0.0
Zn352 Zn 0.45984 0.89456 0.38895 0.0
O353 O 0.43468 0.85831 0.32259 0.0
C354 C 0.51271 0.90221 0.27659 0.0
Zn355 Zn 0.44645 0.93244 0.30965 0.0
C356 C 0.42343 0.86583 0.26011 0.0
O357 O 0.42665 0.89558 0.23754 0.0
C358 C 0.48203 0.96052 0.44312 0.0
O359 O 0.39807 0.93405 0.35674 0.0
O360 O 0.4154 0.90192 0.44343 0.0
N361 N 0.4316 0.96937 0.24116 0.0
C362 C 0.41638 0.99826 0.25795 0.0
C363 C 0.4155 0.99358 0.14289 0.0
N364 N 0.43099 0.96644 0.16965 0.0
N365 N 0.40599 0.01382 0.19734 0.0
C366 C 0.47298 0.8292 0.47069 0.0
C367 C 0.47398 0.84697 0.5799 0.0
N368 N 0.46966 0.86225 0.46811 0.0
N369 N 0.47015 0.87328 0.53587 0.0
N370 N 0.47504 0.81911 0.54013 0.0
H371 H 0.45083 0.79716 0.39201 0.0
H372 H 0.49258 0.78596 0.41642 0.0
H373 H 0.48522 0.8214 0.35817 0.0
C374 C 0.47575 0.80721 0.4054 0.0
C375 C 0.41005 0.01068 0.33368 0.0
H376 H 0.40974 0.99068 0.37435 0.0
H377 H 0.38602 0.02417 0.33654 0.0
H378 H 0.43019 0.02809 0.3491 0.0
O379 O 0.4672 0.96999 0.38564 0.0
O380 O 0.48381 0.92968 0.45498 0.0
C381 C 0.39185 0.91736 0.4133 0.0
O382 O 0.5049 0.88521 0.33239 0.0
O383 O 0.49398 0.92631 0.25713 0.0
Zn384 Zn 0.14469 0.30561 0.46476 0.0
O385 O 0.10821 0.33117 0.53069 0.0
C386 C 0.15138 0.25272 0.57861 0.0
Zn387 Zn 0.18185 0.3187 0.54595 0.0
C388 C 0.11547 0.34232 0.59343 0.0
O389 O 0.14498 0.33874 0.6169 0.0
C390 C 0.21084 0.28316 0.41285 0.0
O391 O 0.18386 0.36696 0.49853 0.0
O392 O 0.15248 0.35003 0.41027 0.0
N393 N 0.21857 0.33339 0.61491 0.0
C394 C 0.24744 0.34874 0.59865 0.0
C395 C 0.24318 0.34803 0.71383 0.0
N396 N 0.21589 0.33303 0.68653 0.0
N397 N 0.2632 0.35815 0.65956 0.0
C398 C 0.07969 0.29129 0.38259 0.0
C399 C 0.09749 0.2905 0.27326 0.0
N400 N 0.1126 0.29568 0.38506 0.0
N401 N 0.12365 0.29535 0.31727 0.0
N402 N 0.06973 0.28854 0.31326 0.0
H403 H 0.07185 0.28006 0.49562 0.0
H404 H 0.04702 0.3136 0.4598 0.0
H405 H 0.0367 0.27138 0.43746 0.0
C406 C 0.0576 0.28872 0.44781 0.0
C407 C 0.25968 0.35661 0.52345 0.0
H408 H 0.27025 0.38209 0.52189 0.0
H409 H 0.27976 0.33904 0.50881 0.0
H410 H 0.24034 0.35454 0.48165 0.0
O411 O 0.21953 0.2977 0.47124 0.0
O412 O 0.18016 0.28143 0.39896 0.0
C413 C 0.1678 0.37342 0.4413 0.0
O414 O 0.13495 0.26048 0.52197 0.0
O415 O 0.17535 0.27139 0.5988 0.0
Zn416 Zn 0.96124 0.89444 0.21502 0.0
O417 O 0.93538 0.85838 0.28159 0.0
C418 C 0.0135 0.90238 0.32739 0.0
Zn419 Zn 0.94685 0.93203 0.29357 0.0
C420 C 0.92447 0.86588 0.34446 0.0
O421 O 0.9279 0.89557 0.36717 0.0
C422 C 0.9826 0.9601 0.15981 0.0
O423 O 0.89825 0.93216 0.24659 0.0
O424 O 0.91753 0.90183 0.15899 0.0
N425 N 0.9325 0.96965 0.36113 0.0
C426 C 0.91331 0.99622 0.34558 0.0
C427 C 0.92669 0.9998 0.45709 0.0
N428 N 0.94077 0.97184 0.43049 0.0
N429 N 0.90926 0.0153 0.40474 0.0
C430 C 0.97487 0.82911 0.13354 0.0
C431 C 0.97714 0.84705 1.02441 0.0
N432 N 0.97146 0.86213 0.13612 0.0
N433 N 0.97268 0.87327 0.06844 0.0
N434 N 0.97792 0.81919 0.06423 0.0
H435 H 0.98536 0.82071 0.24659 0.0
H436 H 0.95078 0.79751 0.21032 0.0
H437 H 0.99254 0.78518 0.18848 0.0
C438 C 0.97617 0.80687 0.19865 0.0
C439 C 0.89614 1.00225 0.27434 0.0
H440 H 0.87194 0.98906 0.27485 0.0
H441 H 0.89059 0.02888 0.26538 0.0
H442 H 0.91103 0.99303 0.22823 0.0
O443 O 0.96661 0.96951 0.2159 0.0
O444 O 0.98576 0.92926 0.14961 0.0
C445 C 0.89305 0.91545 0.18957 0.0
O446 O 1.00573 0.88493 0.27237 0.0
O447 O 0.9948 0.92672 0.34568 0.0
Zn448 Zn 0.33221 0.69704 1.04551 0.0
O449 O 0.32962 0.64855 0.99912 0.0
C450 C 0.30386 0.73211 0.91172 0.0
Zn451 Zn 0.37008 0.71026 0.96559 0.0
C452 C 0.3466 0.64204 0.94312 0.0
O453 O 0.36252 0.66537 0.91322 0.0
C454 C 0.36302 0.7635 0.07713 0.0
O455 O 0.40648 0.6853 1.03375 0.0
O456 O 0.36844 0.67712 0.11724 0.0
N457 N 0.40245 0.71939 0.88576 0.0
C458 C 0.43527 0.72448 0.8834 0.0
C459 C 0.41781 0.72378 0.77389 0.0
N460 N 0.39162 0.71875 0.81785 0.0
N461 N 0.4454 0.72676 0.81404 0.0
C462 C 0.2671 0.66645 0.09984 0.0
C463 C 0.26739 0.67577 0.21363 0.0
N464 N 0.295 0.68372 0.11469 0.0
N465 N 0.29522 0.68948 0.18545 0.0
N466 N 0.24965 0.66105 0.16081 0.0
H467 H 0.2625 0.62516 1.02771 0.0
H468 H 0.23094 0.65572 1.01622 0.0
H469 H 0.27176 0.66355 0.982 0.0
C470 C 0.25777 0.65232 1.02712 0.0
C471 C 0.45706 0.72822 0.94872 0.0
H472 H 0.44242 0.7368 0.99607 0.0
H473 H 0.46832 0.70375 0.96179 0.0
H474 H 0.47748 0.74608 0.93788 0.0
O475 O 0.37965 0.75591 1.02066 0.0
O476 O 0.33916 0.74462 0.09716 0.0
C477 C 0.39842 0.6742 0.09619 0.0
O478 O 0.29512 0.71789 0.97043 0.0
O479 O 0.33458 0.7339 0.89794 0.0
Zn480 Zn 0.55374 0.12166 0.71356 0.0
O481 O 0.57911 0.15819 0.78143 0.0
C482 C 0.50043 0.11432 0.82434 0.0
Zn483 Zn 0.56735 0.08448 0.79401 0.0
C484 C 0.58968 0.15048 0.8445 0.0
O485 O 0.58635 0.12067 0.86634 0.0
C486 C 0.53246 0.05556 0.66022 0.0
O487 O 0.61623 0.08357 0.7474 0.0
O488 O 0.59778 0.11417 0.65943 0.0
N489 N 0.58146 0.04708 0.8623 0.0
C490 C 0.60023 0.02018 0.84686 0.0
C491 C 0.58975 0.01888 0.96016 0.0
N492 N 0.57495 0.04627 0.9327 0.0
N493 N 0.60589 1.00232 0.9073 0.0
C494 C 0.53958 0.18699 0.63244 0.0
C495 C 0.53916 0.1694 0.52308 0.0
N496 N 0.54406 0.15407 0.63468 0.0
N497 N 0.54395 0.14315 0.56685 0.0
N498 N 0.53698 0.19709 0.56316 0.0
H499 H 0.5617 0.21924 0.71057 0.0
H500 H 0.51968 0.23 0.6872 0.0
H501 H 0.52777 0.19458 0.74521 0.0
C502 C 0.5368 0.20892 0.69778 0.0
C503 C 0.61628 0.01327 0.77464 0.0
H504 H 0.6419 0.02346 0.7753 0.0
H505 H 0.61842 0.98638 0.76347 0.0
H506 H 0.60253 0.02468 0.72935 0.0
O507 O 0.54744 0.04711 0.71818 0.0
O508 O 0.52975 0.08624 0.64678 0.0
C509 C 0.62188 0.09999 0.69012 0.0
O510 O 0.50879 0.13112 0.76877 0.0
O511 O 0.51916 0.09049 0.84551 0.0
C512 C 0.47661 0.28995 0.30468 0.0
C513 C 0.4705 0.25587 0.31288 0.0
C514 C 0.50909 0.30199 0.30643 0.0
C515 C 0.53573 0.28007 0.31666 0.0
H516 H 0.45654 0.30664 0.29031 0.0
H517 H 0.51375 0.32777 0.29291 0.0
S518 S 0.53189 0.18946 0.3467 0.0
N519 N 0.49274 0.20102 0.33732 0.0
N520 N 0.55414 0.22388 0.34131 0.0
C521 C 0.52957 0.24665 0.33226 0.0
C522 C 0.49663 0.2344 0.33011 0.0
C523 C 0.52485 0.74647 0.59295 0.0
C524 C 0.50453 0.72082 0.56695 0.0
C525 C 0.51355 0.77923 0.59189 0.0
C526 C 0.48175 0.78653 0.56551 0.0
H527 H 0.55062 0.74162 0.60627 0.0
H528 H 0.53071 0.79913 0.60453 0.0
S529 S 0.41685 0.72703 0.5093 0.0
N530 N 0.44957 0.7037 0.52805 0.0
N531 N 0.42819 0.76576 0.52611 0.0
C532 C 0.45984 0.76068 0.54912 0.0
C533 C 0.47132 0.72745 0.55006 0.0
C534 C 0.01942 0.77511 0.841 0.0
C535 C 0.04483 0.75442 0.81514 0.0
C536 C 0.98672 0.76372 0.84317 0.0
C537 C 0.97913 0.73163 0.81887 0.0
H538 H 0.0244 0.80103 0.85257 0.0
H539 H 0.96697 0.78104 0.8561 0.0
S540 S 0.03803 0.66608 0.76274 0.0
N541 N 0.06154 0.69901 0.77829 0.0
N542 N 0.9995 0.67763 0.78111 0.0
C543 C 1.00482 0.70955 0.8021 0.0
C544 C 0.03804 0.72103 0.80039 0.0
C545 C 0.99025 0.27064 0.09146 0.0
C546 C 0.01137 0.29567 0.0654 0.0
C547 C 1.00036 0.23751 0.08959 0.0
C548 C 0.03175 0.22916 0.06231 0.0
H549 H 0.96474 0.27635 0.10555 0.0
H550 H 0.98254 0.2182 0.10245 0.0
S551 S 0.09854 0.28653 1.00565 0.0
N552 N 0.06674 0.31094 1.02537 0.0
N553 N 0.08589 0.24818 1.02216 0.0
C554 C 0.05451 0.25429 1.04583 0.0
C555 C 0.04424 0.28791 1.04753 0.0
C556 C 0.53655 0.72645 0.79952 0.0
C557 C 0.54265 0.76049 0.79055 0.0
C558 C 0.50405 0.71443 0.79908 0.0
C559 C 0.47735 0.73632 0.78941 0.0
H560 H 0.55672 0.70977 0.81331 0.0
H561 H 0.49948 0.68865 0.81283 0.0
S562 S 0.48103 0.82689 0.75847 0.0
N563 N 0.52025 0.81534 0.76671 0.0
N564 N 0.45879 0.79251 0.7651 0.0
C565 C 0.48341 0.76974 0.77368 0.0
C566 C 0.51638 0.78198 0.77452 0.0
C567 C 0.54074 0.28822 0.54731 0.0
C568 C 0.50708 0.29557 0.53624 0.0
C569 C 0.55151 0.25528 0.54836 0.0
C570 C 0.52873 0.22938 0.53834 0.0
H571 H 0.55795 0.3078 0.56186 0.0
H572 H 0.57693 0.24981 0.5635 0.0
S573 S 0.43884 0.23634 0.50182 0.0
N574 N 0.45183 0.27515 0.50906 0.0
N575 N 0.47221 0.21281 0.51158 0.0
C576 C 0.4958 0.2366 0.52044 0.0
C577 C 0.48488 0.27005 0.5191 0.0
C578 C 0.97868 0.29259 0.2992 0.0
C579 C 0.97121 0.25888 0.28952 0.0
C580 C 0.01164 0.30327 0.29881 0.0
C581 C 0.03743 0.28035 0.28859 0.0
H582 H 0.9592 0.31 0.31342 0.0
H583 H 0.01724 0.32877 0.31305 0.0
S584 S 0.03009 0.19018 0.25572 0.0
N585 N 0.99138 0.20328 0.26445 0.0
N586 N 0.05372 0.2236 0.26298 0.0
C587 C 0.03004 0.24729 0.27218 0.0
C588 C 0.9966 0.23641 0.27294 0.0
C589 C 0.97196 0.72828 1.04752 0.0
C590 C 1.00552 0.72014 1.0379 0.0
C591 C 0.96202 0.76148 1.04826 0.0
C592 C 0.98557 0.78679 1.03946 0.0
H593 H 0.95413 0.70911 0.06121 0.0
H594 H 0.9366 0.76758 0.06231 0.0
S595 S 0.07564 0.77763 1.00711 0.0
N596 N 0.06157 0.73917 1.01348 0.0
N597 N 0.04279 0.80199 1.01557 0.0
C598 C 0.01851 0.77879 1.02322 0.0
C599 C 0.02857 0.74511 1.02208 0.0
C600 C 0.18253 0.09841 0.89804 0.0
C601 C 0.15426 0.11243 0.93139 0.0
C602 C 0.21364 0.11419 0.90191 0.0
C603 C 0.21727 0.14454 0.93849 0.0
H604 H 0.18042 0.07564 0.86708 0.0
H605 H 0.23494 0.10281 0.87594 0.0
S606 S 0.15179 0.19258 1.03239 0.0
N607 N 0.13269 0.15898 1.00261 0.0
N608 N 0.19082 0.18868 1.00626 0.0
C609 C 0.18954 0.15883 0.97178 0.0
C610 C 0.15815 0.14267 0.96953 0.0
C611 C 0.66688 0.43506 0.14742 0.0
C612 C 0.65358 0.40712 0.18345 0.0
C613 C 0.65125 0.46627 0.15171 0.0
C614 C 0.62176 0.47034 0.19141 0.0
H615 H 0.68887 0.43257 0.11393 0.0
H616 H 0.66203 0.48729 0.1235 0.0
S617 S 0.57588 0.40588 0.29369 0.0
N618 N 0.60887 0.3865 0.26151 0.0
N619 N 0.5791 0.44457 0.26481 0.0
C620 C 0.60819 0.44294 0.22739 0.0
C621 C 0.62434 0.41154 0.22506 0.0
C622 C 0.35248 0.87922 0.47492 0.0
C623 C 0.35733 0.90753 0.4311 0.0
C624 C 0.32163 0.86356 0.47915 0.0
C625 C 0.29396 0.87612 0.44195 0.0
H626 H 0.3731 0.86765 0.50302 0.0
H627 H 0.31968 0.8408 0.51008 0.0
S628 S 0.2921 0.95096 0.32489 0.0
N629 N 0.33115 0.94833 0.35198 0.0
N630 N 0.27249 0.91934 0.36298 0.0
C631 C 0.29786 0.90506 0.40022 0.0
C632 C 0.32959 0.92083 0.39468 0.0
C633 C 0.88545 0.60297 0.72749 0.0
C634 C 0.85724 0.60815 0.68365 0.0
C635 C 0.9009 0.57197 0.73125 0.0
C636 C 0.88825 0.54453 0.69344 0.0
H637 H 0.89713 0.62345 0.75584 0.0
H638 H 0.92368 0.56979 0.76196 0.0
S639 S 0.81367 0.54355 0.57602 0.0
N640 N 0.81644 0.58249 0.60388 0.0
N641 N 0.84511 0.52361 0.61387 0.0
C642 C 0.85943 0.54876 0.65167 0.0
C643 C 0.84385 0.58061 0.64667 0.0
C644 C 0.7998 0.90214 0.20224 0.0
C645 C 0.79576 0.87189 0.16544 0.0
C646 C 0.83111 0.91753 0.20606 0.0
C647 C 0.85918 0.90324 0.17246 0.0
H648 H 0.77866 0.91373 0.22839 0.0
H649 H 0.83351 0.94025 0.23711 0.0
S650 S 0.86057 0.82315 0.07099 0.0
N651 N 0.8216 0.82754 0.09721 0.0
N652 N 0.88011 0.85648 0.10092 0.0
C653 C 0.85487 0.87307 0.1342 0.0
C654 C 0.82328 0.85731 0.13193 0.0
C655 C 0.38347 0.60234 0.87893 0.0
C656 C 0.35612 0.60737 0.92548 0.0
C657 C 0.39935 0.57161 0.87459 0.0
C658 C 0.38785 0.54412 0.91406 0.0
H659 H 0.39423 0.6228 0.84876 0.0
H660 H 0.42164 0.56976 0.84208 0.0
S661 S 0.31578 0.54265 1.03901 0.0
N662 N 0.31744 0.58149 1.01005 0.0
N663 N 0.34664 0.52296 0.99831 0.0
C664 C 0.35981 0.54813 0.95849 0.0
C665 C 0.34389 0.5798 0.96439 0.0
C666 C 0.68371 0.09716 0.70808 0.0
C667 C 0.65608 0.1109 0.67181 0.0
C668 C 0.71527 0.11201 0.70321 0.0
C669 C 0.72001 0.14108 0.66243 0.0
H670 H 0.68073 0.07547 0.74232 0.0
H671 H 0.736 0.10101 0.73194 0.0
S672 S 0.65651 0.1879 0.55961 0.0
N673 N 0.63637 0.15566 0.59307 0.0
N674 N 0.69525 0.18374 0.58745 0.0
C675 C 0.69295 0.15498 0.6259 0.0
C676 C 0.66114 0.13972 0.6293 0.0
C677 C 0.13194 0.41333 0.37487 0.0
C678 C 0.15855 0.40809 0.42324 0.0
C679 C 0.11618 0.44414 0.36995 0.0
C680 C 0.12707 0.47132 0.41101 0.0
H681 H 0.1217 0.393 0.34352 0.0
H682 H 0.09469 0.44659 0.33505 0.0
S683 S 0.19701 0.47227 0.54106 0.0
N684 N 0.19599 0.4336 0.51087 0.0
N685 N 0.16671 0.49211 0.49879 0.0
C686 C 0.15434 0.46714 0.4573 0.0
C687 C 0.17023 0.43549 0.46346 0.0
C688 C 0.66273 0.63669 0.4783 0.0
C689 C 0.65746 0.61007 0.43002 0.0
C690 C 0.69343 0.65259 0.48278 0.0
C691 C 0.72069 0.64171 0.4418 0.0
H692 H 0.64245 0.64691 0.50992 0.0
H693 H 0.6954 0.67442 0.51662 0.0
S694 S 0.72153 0.57176 0.31142 0.0
N695 N 0.68288 0.57292 0.34162 0.0
N696 N 0.74141 0.6019 0.354 0.0
C697 C 0.71647 0.61437 0.39554 0.0
C698 C 0.6848 0.59852 0.38938 0.0
C699 C 0.11409 0.9433 0.73413 0.0
C700 C 0.12505 0.97028 0.69242 0.0
C701 C 0.12976 0.91241 0.72976 0.0
C702 C 0.15639 0.90692 0.68143 0.0
H703 H 0.0926 0.94595 0.76907 0.0
H704 H 0.11949 0.89222 0.76157 0.0
S705 S 0.19512 0.97061 0.56243 0.0
N706 N 0.16482 0.99065 0.60431 0.0
N707 N 0.19399 0.93206 0.59337 0.0
C708 C 0.1682 0.93416 0.64077 0.0
C709 C 0.15237 0.96586 0.64628 0.0
C710 C 0.8217 0.36243 0.98213 0.0
C711 C 0.79434 0.37475 0.94352 0.0
C712 C 0.85267 0.3779 0.97805 0.0
C713 C 0.85787 0.40582 0.93324 0.0
H714 H 0.81942 0.33999 1.01406 0.0
H715 H 0.8731 0.36652 1.00716 0.0
S716 S 0.79337 0.44867 0.82375 0.0
N717 N 0.77346 0.41739 0.86239 0.0
N718 N 0.83223 0.44615 0.85207 0.0
C719 C 0.83036 0.41898 0.8957 0.0
C720 C 0.79857 0.40333 0.90086 0.0
C721 C 0.39963 0.07251 0.2317 0.0
C722 C 0.38879 0.04505 0.19138 0.0
C723 C 0.38361 0.10316 0.22674 0.0
C724 C 0.35684 0.10816 0.17871 0.0
H725 H 0.42146 0.07069 0.26558 0.0
H726 H 0.39384 0.12361 0.25775 0.0
S727 S 0.31814 0.04343 0.0628 0.0
N728 N 0.34859 0.02384 0.10501 0.0
N729 N 0.31929 0.08223 0.09204 0.0
C730 C 0.34517 0.08059 0.13913 0.0
C731 C 0.36118 0.04899 0.14566 0.0
C732 C 0.3222 0.36208 0.62739 0.0
C733 C 0.29473 0.37461 0.66532 0.0
C734 C 0.35301 0.37786 0.63046 0.0
C735 C 0.35797 0.40628 0.67378 0.0
H736 H 0.32014 0.33925 0.59679 0.0
H737 H 0.37351 0.36634 0.60182 0.0
S738 S 0.29315 0.44953 0.78177 0.0
N739 N 0.27348 0.41776 0.7446 0.0
N740 N 0.33205 0.44707 0.75345 0.0
C741 C 0.33039 0.4195 0.71106 0.0
C742 C 0.29871 0.40357 0.70671 0.0
C743 C 0.84939 0.08271 0.45705 0.0
C744 C 0.86139 0.11023 0.41744 0.0
C745 C 0.86512 0.05158 0.4529 0.0
C746 C 0.89332 0.04707 0.40928 0.0
H747 H 0.82853 0.08549 0.4937 0.0
H748 H 0.85551 0.031 0.48445 0.0
S749 S 0.93489 0.11003 0.29452 0.0
N750 N 0.90306 0.12985 0.33087 0.0
N751 N 0.93295 0.07177 0.32654 0.0
C752 C 0.90533 0.07391 0.3688 0.0
C753 C 0.88914 0.10532 0.37159 0.0
C754 C 0.18251 0.59938 0.20372 0.0
C755 C 0.15434 0.61425 0.17182 0.0
C756 C 0.21376 0.61492 0.20081 0.0
C757 C 0.21761 0.64588 0.16678 0.0
H758 H 0.18024 0.57607 0.23272 0.0
H759 H 0.23501 0.60285 0.22539 0.0
S760 S 0.15254 0.69614 0.07734 0.0
N761 N 0.13316 0.66222 0.10457 0.0
N762 N 0.19156 0.6914 0.10273 0.0
C763 C 0.19001 0.66102 0.13492 0.0
C764 C 0.15848 0.64512 0.13617 0.0
C765 C 0.61335 0.9442 0.87111 0.0
C766 C 0.62321 0.9713 0.91359 0.0
C767 C 0.62972 0.91371 0.87578 0.0
C768 C 0.65583 0.9086 0.92555 0.0
H769 H 0.59224 0.94646 0.83504 0.0
H770 H 0.62038 0.89348 0.84284 0.0
S771 S 0.69109 0.97252 1.04872 0.0
N772 N 0.66113 0.99213 1.00483 0.0
N773 N 0.69125 0.93409 1.01711 0.0
C774 C 0.66629 0.93587 0.96774 0.0
C775 C 0.64988 0.96727 0.96158 0.0
C776 C 0.44969 0.14035 0.98931 0.0
C777 C 0.42314 0.15841 0.9588 0.0
C778 C 0.47339 0.12421 0.94539 0.0
C779 C 0.47191 0.12612 0.86917 0.0
H780 H 0.45221 0.13867 1.04766 0.0
H781 H 0.49384 0.11139 0.97144 0.0
S782 S 0.4072 0.1701 0.76235 0.0
N783 N 0.39637 0.17649 0.84757 0.0
N784 N 0.44126 0.14721 0.76533 0.0
C785 C 0.44522 0.14377 0.83811 0.0
C786 C 0.42077 0.1596 0.88276 0.0
C787 C 0.62404 0.70305 0.24191 0.0
C788 C 0.60695 0.67584 0.21158 0.0
C789 C 0.64067 0.72639 0.19794 0.0
C790 C 0.64032 0.72383 0.12175 0.0
H791 H 0.62458 0.70638 0.30017 0.0
H792 H 0.65264 0.74739 0.22378 0.0
S793 S 0.59977 0.65693 1.01524 0.0
N794 N 0.59166 0.64724 0.10044 0.0
N795 N 0.62204 0.69139 1.01815 0.0
C796 C 0.62377 0.69646 0.09088 0.0
C797 C 0.60736 0.67242 0.13562 0.0
C798 C 0.06773 0.87244 0.34484 0.0
C799 C 0.04123 0.89083 0.37479 0.0
C800 C 0.09159 0.85684 0.38906 0.0
C801 C 0.08938 0.85809 0.46518 0.0
H802 H 0.06974 0.86957 0.28661 0.0
H803 H 0.11134 0.84281 0.36337 0.0
S804 S 0.02568 0.90385 0.5712 0.0
N805 N 0.01514 0.91038 0.48585 0.0
N806 N 0.05936 0.88039 0.56864 0.0
C807 C 0.06341 0.87685 0.49591 0.0
C808 C 0.03956 0.89341 0.45087 0.0
C809 C 0.8905 0.31869 0.59694 0.0
C810 C 0.87304 0.29158 0.62697 0.0
C811 C 0.90651 0.3423 0.64103 0.0
C812 C 0.90664 0.33932 0.71711 0.0
H813 H 0.89232 0.32139 0.53863 0.0
H814 H 0.91972 0.36255 0.61512 0.0
S815 S 0.86386 0.27368 0.82353 0.0
N816 N 0.85598 0.26396 0.73828 0.0
N817 N 0.88669 0.30779 0.82076 0.0
C818 C 0.88887 0.31269 0.74802 0.0
C819 C 0.87191 0.28903 0.70315 0.0
C820 C 0.59116 0.85674 0.21613 0.0
C821 C 0.58944 0.85837 0.13999 0.0
C822 C 0.56696 0.87206 0.26003 0.0
C823 C 0.54062 0.89054 0.22972 0.0
H824 H 0.61079 0.84265 0.24203 0.0
H825 H 0.56863 0.86897 0.31825 0.0
S826 S 0.52634 0.90447 1.03311 0.0
N827 N 0.56005 0.88108 1.03617 0.0
N828 N 0.51522 0.91055 0.11829 0.0
C829 C 0.53943 0.89346 0.15363 0.0
C830 C 0.56361 0.87718 0.10893 0.0
C831 C 0.40672 0.34255 0.96255 0.0
C832 C 0.40756 0.33945 0.88648 0.0
C833 C 0.3907 0.31878 1.00635 0.0
C834 C 0.37391 0.2914 0.97596 0.0
H835 H 0.41932 0.36309 0.98872 0.0
H836 H 0.3919 0.32162 0.06469 0.0
S837 S 0.36732 0.2725 0.77943 0.0
N838 N 0.38938 0.3071 0.78256 0.0
N839 N 0.35866 0.263 0.86449 0.0
C840 C 0.37366 0.28855 0.89981 0.0
C841 C 0.39065 0.31236 0.85527 0.0
C842 C 0.94722 0.14347 0.75486 0.0
C843 C 0.97364 0.12512 0.72453 0.0
C844 C 0.92346 0.15937 0.71104 0.0
C845 C 0.92562 0.15846 0.6349 0.0
H846 H 0.94515 0.14603 0.81315 0.0
H847 H 0.90372 0.17328 0.7371 0.0
S848 S 0.98906 0.11294 0.52774 0.0
N849 N 0.99965 0.106 0.61294 0.0
N850 N 0.95548 0.13654 0.53086 0.0
C851 C 0.95153 0.13981 0.60367 0.0
C852 C 0.97534 0.12294 0.64835 0.0
C853 C 0.1215 0.6976 0.50745 0.0
C854 C 0.13994 0.72395 0.47695 0.0
C855 C 0.10548 0.67384 0.46374 0.0
C856 C 0.10635 0.67593 0.38757 0.0
H857 H 0.11896 0.6956 0.56576 0.0
H858 H 0.09149 0.65418 0.48991 0.0
S859 S 0.15209 0.7391 0.27998 0.0
N860 N 0.1591 0.74973 0.36509 0.0
N861 N 0.12836 0.70563 0.28338 0.0
C862 C 0.12511 0.70175 0.35622 0.0
C863 C 0.14208 0.72554 0.40072 0.0
C864 C 0.92192 0.65535 0.39276 0.0
C865 C 0.92479 0.65541 0.46884 0.0
C866 C 0.9457 0.6396 0.34865 0.0
C867 C 0.97295 0.62241 0.37865 0.0
H868 H 0.90163 0.66847 0.3668 0.0
H869 H 0.94308 0.6415 0.29034 0.0
S870 S 0.99089 0.61332 0.57514 0.0
N871 N 0.95647 0.63567 0.57246 0.0
N872 N 1.00073 0.60559 0.48984 0.0
C873 C 0.97544 0.62118 0.4548 0.0
C874 C 0.95155 0.63782 0.49974 0.0
C875 C 0.10584 0.17404 0.63772 0.0
C876 C 0.1075 0.1753 0.71393 0.0
C877 C 0.12105 0.1985 0.59435 0.0
C878 C 0.13941 0.22477 0.62518 0.0
H879 H 0.09185 0.15449 0.6113 0.0
H880 H 0.11802 0.19706 0.53609 0.0
S881 S 0.15302 0.23825 0.82227 0.0
N882 N 0.12992 0.20437 0.81842 0.0
N883 N 0.15909 0.24981 0.73732 0.0
C884 C 0.14221 0.22565 0.70138 0.0
C885 C 0.1261 0.20112 0.74557 0.0
C886 C 0.53959 0.39319 0.94897 0.0
C887 C 0.54187 0.39219 0.87272 0.0
C888 C 0.56306 0.37689 0.99319 0.0
C889 C 0.59013 0.35946 0.96301 0.0
H890 H 0.51873 0.40546 0.97475 0.0
H891 H 0.55993 0.37791 1.05148 0.0
S892 S 0.60825 0.35046 0.76651 0.0
N893 N 0.5739 0.3729 0.76926 0.0
N894 N 0.6182 0.34305 0.85181 0.0
C895 C 0.59323 0.35917 0.88692 0.0
C896 C 0.56909 0.37529 0.84201 0.0
C897 C 0.39162 0.81866 0.09423 0.0
C898 C 0.37483 0.79119 0.12444 0.0
C899 C 0.40658 0.84301 0.13833 0.0
C900 C 0.40629 0.8404 0.21453 0.0
H901 H 0.39357 0.82116 1.03591 0.0
H902 H 0.41932 0.86355 0.11239 0.0
S903 S 0.36573 0.77335 0.3211 0.0
N904 N 0.35849 0.7632 0.23583 0.0
N905 N 0.38713 0.80836 0.31822 0.0
C906 C 0.38936 0.81322 0.24546 0.0
C907 C 0.3735 0.78883 0.20063 0.0
C908 C 0.0919 0.35859 0.71472 0.0
C909 C 0.09008 0.35979 0.63851 0.0
C910 C 0.06763 0.37388 0.75845 0.0
C911 C 0.04098 0.39186 0.72798 0.0
H912 H 0.11171 0.34485 0.7409 0.0
H913 H 0.06948 0.37112 0.81673 0.0
S914 S 0.0261 0.40442 0.53112 0.0
N915 N 0.06015 0.38154 0.53443 0.0
N916 N 0.01509 0.41086 0.61624 0.0
C917 C 0.03961 0.39431 0.6518 0.0
C918 C 0.06394 0.37812 0.60725 0.0
C919 C 0.91032 0.84163 0.46649 0.0
C920 C 0.90747 0.84052 0.39043 0.0
C921 C 0.89546 0.81726 0.51078 0.0
C922 C 0.87627 0.79128 0.48113 0.0
H923 H 0.92499 0.86095 0.49196 0.0
H924 H 0.8994 0.81856 0.56879 0.0
S925 S 0.8593 0.77852 0.28505 0.0
N926 N 0.88299 0.81201 0.28748 0.0
N927 N 0.85441 0.76685 0.37027 0.0
C928 C 0.87225 0.79064 0.40517 0.0
C929 C 0.88803 0.81503 0.36002 0.0
C930 C 0.45069 0.64043 0.11312 0.0
C931 C 0.4234 0.65742 0.14359 0.0
C932 C 0.47448 0.62442 0.15705 0.0
C933 C 0.47233 0.62529 0.2333 0.0
H934 H 0.45375 0.63952 0.0548 0.0
H935 H 0.49549 0.6125 0.13104 0.0
S936 S 0.40557 0.66602 0.34026 0.0
N937 N 0.39534 0.67338 0.25508 0.0
N938 N 0.4402 0.64403 0.33712 0.0
C939 C 0.44492 0.64179 0.26433 0.0
C940 C 0.42046 0.65761 0.21969 0.0
C941 C 0.63962 0.22641 0.90591 0.0
C942 C 0.63821 0.2244 0.98216 0.0
C943 C 0.62367 0.20267 0.8617 0.0
C944 C 0.60625 0.17558 0.89194 0.0
H945 H 0.65195 0.24725 0.88014 0.0
H946 H 0.625 0.20557 0.80338 0.0
S947 S 0.59615 0.15829 0.08855 0.0
N948 N 0.61835 0.19278 0.0857 0.0
N949 N 0.58936 0.1479 1.00326 0.0
C950 C 0.60551 0.17282 0.96807 0.0
C951 C 0.62119 0.19726 1.01292 0.0
C952 C 0.24628 0.24503 0.23846 0.0
C953 C 0.28091 0.24584 0.24898 0.0
C954 C 0.22411 0.25674 0.29193 0.0
C955 C 0.2354 0.26977 0.35879 0.0
H956 H 0.23611 0.23525 0.18849 0.0
H957 H 0.19776 0.25568 0.28025 0.0
S958 S 0.32368 0.2767 0.41503 0.0
N959 N 0.32539 0.26054 0.33291 0.0
N960 N 0.2838 0.28192 0.43258 0.0
C961 C 0.26993 0.27043 0.37033 0.0
C962 C 0.29257 0.25868 0.31582 0.0
C963 C 0.52033 0.49853 0.48941 0.0
C964 C 0.51968 0.5331 0.5009 0.0
C965 C 0.50826 0.47615 0.54201 0.0
C966 C 0.49501 0.48716 0.60894 0.0
H967 H 0.53028 0.48857 0.43934 0.0
H968 H 0.50926 0.44984 0.52966 0.0
S969 S 0.48818 0.57518 0.66734 0.0
N970 N 0.50475 0.57724 0.58561 0.0
N971 N 0.48273 0.53522 0.68378 0.0
C972 C 0.49446 0.52163 0.62142 0.0
C973 C 0.50657 0.5445 0.56776 0.0
C974 C 0.26795 0.77287 0.74059 0.0
C975 C 0.23338 0.7687 0.74805 0.0
C976 C 0.29027 0.76135 0.79395 0.0
C977 C 0.27916 0.7451 0.85757 0.0
H978 H 0.27796 0.78534 0.69333 0.0
H979 H 0.31659 0.76524 0.78495 0.0
S980 S 0.19112 0.72707 0.90337 0.0
N981 N 0.1892 0.74642 0.82459 0.0
N982 N 0.23098 0.72511 0.92391 0.0
C983 C 0.24467 0.74064 0.86564 0.0
C984 C 0.22192 0.75228 0.8113 0.0
C985 C 0.02019 0.4963 0.11603 0.0
C986 C 0.01911 0.53091 0.10534 0.0
C987 C 0.00836 0.47407 0.0629 0.0
C988 C 0.99502 0.48533 0.99626 0.0
H989 H 0.03018 0.48622 0.16593 0.0
H990 H 0.00957 0.44771 0.07463 0.0
S991 S 0.98767 0.57354 0.9394 0.0
N992 N 1.00402 0.57533 1.02128 0.0
N993 N 0.98254 0.53362 0.92224 0.0
C994 C 0.99422 0.51983 0.98446 0.0
C995 C 1.00602 0.54252 1.03862 0.0
C996 C 0.76831 0.77213 0.86663 0.0
C997 C 0.73376 0.77118 0.85496 0.0
C998 C 0.79088 0.76024 0.81414 0.0
C999 C 0.78005 0.74689 0.74723 0.0
H1000 H 0.77811 0.78214 0.91675 0.0
H1001 H 0.81716 0.76139 0.82658 0.0
S1002 S 0.69219 0.73944 0.68827 0.0
N1003 N 0.68988 0.75595 0.76997 0.0
N1004 N 0.7322 0.73431 0.67211 0.0
C1005 C 0.74561 0.74611 0.73456 0.0
C1006 C 0.72258 0.75802 0.78804 0.0
C1007 C 0.76658 0.27557 0.24403 0.0
C1008 C 0.73233 0.26881 0.24856 0.0
C1009 C 0.78894 0.26415 0.2973 0.0
C1010 C 0.7782 0.24541 0.35788 0.0
H1011 H 0.77628 0.29007 0.19931 0.0
H1012 H 0.81501 0.27015 0.29067 0.0
S1013 S 0.69124 0.21964 0.39429 0.0
N1014 N 0.68892 0.24115 0.31833 0.0
N1015 N 0.73081 0.22001 0.41773 0.0
C1016 C 0.74406 0.23826 0.36285 0.0
C1017 C 0.72126 0.24981 0.30853 0.0
C1018 C 1.00009 0.04052 0.05468 0.0
C1019 C 0.0186 0.02977 0.99378 0.0
C1020 C 0.98899 0.01818 0.10843 0.0
C1021 C 0.99592 0.98394 0.10412 0.0
H1022 H 0.99406 0.0666 0.06125 0.0
H1023 H 0.97465 0.02787 0.15345 0.0
S1024 S 0.04415 0.94275 0.95668 0.0
N1025 N 0.04362 0.98235 0.93333 0.0
N1026 N 0.02318 0.94048 1.03346 0.0
C1027 C 0.01459 0.97285 1.04358 0.0
C1028 C 0.02577 0.99563 0.9888 0.0
C1029 C 0.50252 0.04144 0.54375 0.0
C1030 C 0.51952 0.03062 0.60659 0.0
C1031 C 0.49093 0.01893 0.49092 0.0
C1032 C 0.49578 0.98443 0.49815 0.0
H1033 H 0.49806 0.0677 0.53496 0.0
H1034 H 0.47787 0.02872 0.44425 0.0
S1035 S 0.53944 0.94289 0.65169 0.0
N1036 N 0.5409 0.9828 0.67207 0.0
N1037 N 0.51947 0.94062 0.57374 0.0
C1038 C 0.51295 0.97325 0.56065 0.0
C1039 C 0.52467 0.99621 0.61445 0.0
loop_
_geom_bond_atom_site_label_1
_geom_bond_atom_site_label_2
_geom_bond_distance
_geom_bond_site_symmetry_2
_ccdc_geom_bond_type
Zn0 O1 2.055 . S
Zn0 O8 2.046 1_554 S
Zn0 N16 2.036 1_554 S
Zn0 O28 2.053 1_554 S
Zn0 O30 2.066 . S
O1 Zn0 2.055 . S
O1 C4 1.259 . S
C2 O30 1.256 . S
C2 O31 1.244 . S
Zn3 O5 2.046 . S
Zn3 O7 2.055 1_554 S
Zn3 N9 2.036 . S
Zn3 O27 2.066 . S
Zn3 O31 2.053 . S
C4 O1 1.259 . S
C4 O5 1.254 . S
O5 Zn3 2.046 . S
O5 C4 1.254 . S
C6 O27 1.256 1_556 S
C6 O28 1.244 . S
O7 Zn3 2.055 1_556 S
O7 C29 1.259 . S
O8 Zn0 2.046 1_556 S
O8 C29 1.254 . S
N9 Zn3 2.036 . S
N9 C10 1.298 . S
N9 N12 1.398 . S
C10 N9 1.298 . S
C10 N13 1.367 . S
C10 C23 1.481 . S
C11 N12 1.299 . S
C11 N13 1.379 . S
N12 N9 1.398 . S
N12 C11 1.299 . S
N13 C10 1.367 . S
N13 C11 1.379 . S
C14 N16 1.298 . S
C14 N18 1.367 . S
C14 C22 1.481 1_556 S
C15 N17 1.299 . S
C15 N18 1.379 . S
N16 Zn0 2.036 1_556 S
N16 C14 1.298 . S
N16 N17 1.398 . S
N17 C15 1.299 . S
N17 N16 1.398 . S
N18 C14 1.367 . S
N18 C15 1.379 . S
H19 C22 0.980 . S
H20 C22 0.981 . S
H21 C22 0.981 . S
C22 C14 1.481 1_554 S
C22 H19 0.980 . S
C22 H20 0.981 . S
C22 H21 0.981 . S
C23 C10 1.481 . S
C23 H24 0.980 . S
C23 H25 0.981 . S
C23 H26 0.981 . S
H24 C23 0.980 . S
H25 C23 0.981 . S
H26 C23 0.981 . S
O27 Zn3 2.066 . S
O27 C6 1.256 1_554 S
O28 Zn0 2.053 1_556 S
O28 C6 1.244 . S
C29 O7 1.259 . S
C29 O8 1.254 . S
O30 Zn0 2.066 . S
O30 C2 1.256 . S
O31 C2 1.244 . S
O31 Zn3 2.053 . S
Zn32 O33 2.055 . S
Zn32 O40 2.046 . S
Zn32 N48 2.036 . S
Zn32 O60 2.053 . S
Zn32 O62 2.066 . S
O33 Zn32 2.055 . S
O33 C36 1.259 . S
C34 O62 1.256 . S
C34 O63 1.244 . S
Zn35 O37 2.046 . S
Zn35 O39 2.055 . S
Zn35 N41 2.036 . S
Zn35 O59 2.066 . S
Zn35 O63 2.053 . S
C36 O33 1.259 . S
C36 O37 1.254 . S
O37 Zn35 2.046 . S
O37 C36 1.254 . S
C38 O59 1.256 . S
C38 O60 1.244 . S
O39 Zn35 2.055 . S
O39 C61 1.259 . S
O40 Zn32 2.046 . S
O40 C61 1.254 . S
N41 Zn35 2.036 . S
N41 C42 1.298 . S
N41 N44 1.398 . S
C42 N41 1.298 . S
C42 N45 1.367 . S
C42 C55 1.481 . S
C43 N44 1.299 . S
C43 N45 1.379 . S
N44 N41 1.398 . S
N44 C43 1.299 . S
N45 C42 1.367 . S
N45 C43 1.379 . S
C46 N48 1.298 . S
C46 N50 1.367 . S
C46 C54 1.481 . S
C47 N49 1.299 . S
C47 N50 1.379 . S
N48 Zn32 2.036 . S
N48 C46 1.298 . S
N48 N49 1.398 . S
N49 C47 1.299 . S
N49 N48 1.398 . S
N50 C46 1.367 . S
N50 C47 1.379 . S
H51 C54 0.980 . S
H52 C54 0.981 . S
H53 C54 0.981 . S
C54 C46 1.481 . S
C54 H51 0.980 . S
C54 H52 0.981 . S
C54 H53 0.981 . S
C55 C42 1.481 . S
C55 H56 0.980 . S
C55 H57 0.981 . S
C55 H58 0.981 . S
H56 C55 0.980 . S
H57 C55 0.981 . S
H58 C55 0.981 . S
O59 Zn35 2.066 . S
O59 C38 1.256 . S
O60 Zn32 2.053 . S
O60 C38 1.244 . S
C61 O39 1.259 . S
C61 O40 1.254 . S
O62 Zn32 2.066 . S
O62 C34 1.256 . S
O63 C34 1.244 . S
O63 Zn35 2.053 . S
Zn64 O65 2.055 . S
Zn64 O72 2.046 . S
Zn64 N80 2.036 . S
Zn64 O92 2.053 . S
Zn64 O94 2.066 . S
O65 Zn64 2.055 . S
O65 C68 1.259 . S
C66 O94 1.256 . S
C66 O95 1.244 . S
Zn67 O69 2.046 . S
Zn67 O71 2.055 . S
Zn67 N73 2.036 . S
Zn67 O91 2.066 . S
Zn67 O95 2.053 . S
C68 O65 1.259 . S
C68 O69 1.254 . S
O69 Zn67 2.046 . S
O69 C68 1.254 . S
C70 O91 1.256 . S
C70 O92 1.244 . S
O71 Zn67 2.055 . S
O71 C93 1.259 . S
O72 Zn64 2.046 . S
O72 C93 1.254 . S
N73 Zn67 2.036 . S
N73 C74 1.298 . S
N73 N76 1.398 . S
C74 N73 1.298 . S
C74 N77 1.367 . S
C74 C87 1.481 . S
C75 N76 1.299 . S
C75 N77 1.379 . S
N76 N73 1.398 . S
N76 C75 1.299 . S
N77 C74 1.367 . S
N77 C75 1.379 . S
C78 N80 1.298 . S
C78 N82 1.367 . S
C78 C86 1.481 . S
C79 N81 1.299 . S
C79 N82 1.379 . S
N80 Zn64 2.036 . S
N80 C78 1.298 . S
N80 N81 1.398 . S
N81 C79 1.299 . S
N81 N80 1.398 . S
N82 C78 1.367 . S
N82 C79 1.379 . S
H83 C86 0.980 . S
H84 C86 0.981 . S
H85 C86 0.981 . S
C86 C78 1.481 . S
C86 H83 0.980 . S
C86 H84 0.981 . S
C86 H85 0.981 . S
C87 C74 1.481 . S
C87 H88 0.980 . S
C87 H89 0.981 . S
C87 H90 0.981 . S
H88 C87 0.980 . S
H89 C87 0.981 . S
H90 C87 0.981 . S
O91 Zn67 2.066 . S
O91 C70 1.256 . S
O92 Zn64 2.053 . S
O92 C70 1.244 . S
C93 O71 1.259 . S
C93 O72 1.254 . S
O94 Zn64 2.066 . S
O94 C66 1.256 . S
O95 C66 1.244 . S
O95 Zn67 2.053 . S
Zn96 O97 2.055 . S
Zn96 O104 2.046 . S
Zn96 N112 2.036 . S
Zn96 O124 2.053 . S
Zn96 O126 2.066 . S
O97 Zn96 2.055 . S
O97 C100 1.259 . S
C98 O126 1.256 . S
C98 O127 1.244 . S
Zn99 O101 2.046 . S
Zn99 O103 2.055 . S
Zn99 N105 2.036 . S
Zn99 O123 2.066 . S
Zn99 O127 2.053 . S
C100 O97 1.259 . S
C100 O101 1.254 . S
O101 Zn99 2.046 . S
O101 C100 1.254 . S
C102 O123 1.256 . S
C102 O124 1.244 . S
O103 Zn99 2.055 . S
O103 C125 1.259 . S
O104 Zn96 2.046 . S
O104 C125 1.254 . S
N105 Zn99 2.036 . S
N105 C106 1.298 . S
N105 N108 1.398 . S
C106 N105 1.298 . S
C106 N109 1.367 . S
C106 C119 1.481 . S
C107 N108 1.299 . S
C107 N109 1.379 . S
N108 N105 1.398 . S
N108 C107 1.299 . S
N109 C106 1.367 . S
N109 C107 1.379 . S
C110 N112 1.298 . S
C110 N114 1.367 . S
C110 C118 1.481 . S
C111 N113 1.299 . S
C111 N114 1.379 . S
N112 Zn96 2.036 . S
N112 C110 1.298 . S
N112 N113 1.398 . S
N113 C111 1.299 . S
N113 N112 1.398 . S
N114 C110 1.367 . S
N114 C111 1.379 . S
H115 C118 0.980 . S
H116 C118 0.981 . S
H117 C118 0.981 . S
C118 C110 1.481 . S
C118 H115 0.980 . S
C118 H116 0.981 . S
C118 H117 0.981 . S
C119 C106 1.481 . S
C119 H120 0.980 . S
C119 H121 0.981 . S
C119 H122 0.981 . S
H120 C119 0.980 . S
H121 C119 0.981 . S
H122 C119 0.981 . S
O123 Zn99 2.066 . S
O123 C102 1.256 . S
O124 Zn96 2.053 . S
O124 C102 1.244 . S
C125 O103 1.259 . S
C125 O104 1.254 . S
O126 Zn96 2.066 . S
O126 C98 1.256 . S
O127 C98 1.244 . S
O127 Zn99 2.053 . S
Zn128 O129 2.055 1_556 S
Zn128 O136 2.046 . S
Zn128 N144 2.036 . S
Zn128 O156 2.053 . S
Zn128 O158 2.066 . S
O129 Zn128 2.055 1_554 S
O129 C132 1.259 . S
C130 O158 1.256 1_554 S
C130 O159 1.244 . S
Zn131 O133 2.046 1_556 S
Zn131 O135 2.055 . S
Zn131 N137 2.036 1_556 S
Zn131 O155 2.066 . S
Zn131 O159 2.053 1_556 S
C132 O129 1.259 . S
C132 O133 1.254 . S
O133 Zn131 2.046 1_554 S
O133 C132 1.254 . S
C134 O155 1.256 . S
C134 O156 1.244 . S
O135 Zn131 2.055 . S
O135 C157 1.259 . S
O136 Zn128 2.046 . S
O136 C157 1.254 . S
N137 Zn131 2.036 1_554 S
N137 C138 1.298 . S
N137 N140 1.398 . S
C138 N137 1.298 . S
C138 N141 1.367 . S
C138 C151 1.481 1_554 S
C139 N140 1.299 . S
C139 N141 1.379 . S
N140 N137 1.398 . S
N140 C139 1.299 . S
N141 C138 1.367 . S
N141 C139 1.379 . S
C142 N144 1.298 . S
C142 N146 1.367 . S
C142 C150 1.481 . S
C143 N145 1.299 . S
C143 N146 1.379 . S
N144 Zn128 2.036 . S
N144 C142 1.298 . S
N144 N145 1.398 . S
N145 C143 1.299 . S
N145 N144 1.398 . S
N146 C142 1.367 . S
N146 C143 1.379 . S
H147 C150 0.980 . S
H148 C150 0.981 . S
H149 C150 0.981 . S
C150 C142 1.481 . S
C150 H147 0.980 . S
C150 H148 0.981 . S
C150 H149 0.981 . S
C151 C138 1.481 1_556 S
C151 H152 0.980 . S
C151 H153 0.981 . S
C151 H154 0.981 . S
H152 C151 0.980 . S
H153 C151 0.981 . S
H154 C151 0.981 . S
O155 Zn131 2.066 . S
O155 C134 1.256 . S
O156 Zn128 2.053 . S
O156 C134 1.244 . S
C157 O135 1.259 . S
C157 O136 1.254 . S
O158 Zn128 2.066 . S
O158 C130 1.256 1_556 S
O159 C130 1.244 . S
O159 Zn131 2.053 1_554 S
Zn160 O161 2.055 . S
Zn160 O168 2.046 . S
Zn160 N176 2.036 . S
Zn160 O188 2.053 . S
Zn160 O190 2.066 . S
O161 Zn160 2.055 . S
O161 C164 1.259 . S
C162 O190 1.256 . S
C162 O191 1.244 . S
Zn163 O165 2.046 . S
Zn163 O167 2.055 . S
Zn163 N169 2.036 . S
Zn163 O187 2.066 . S
Zn163 O191 2.053 . S
C164 O161 1.259 . S
C164 O165 1.254 . S
O165 Zn163 2.046 . S
O165 C164 1.254 . S
C166 O187 1.256 . S
C166 O188 1.244 . S
O167 Zn163 2.055 . S
O167 C189 1.259 . S
O168 Zn160 2.046 . S
O168 C189 1.254 . S
N169 Zn163 2.036 . S
N169 C170 1.298 . S
N169 N172 1.398 . S
C170 N169 1.298 . S
C170 N173 1.367 . S
C170 C183 1.481 . S
C171 N172 1.299 . S
C171 N173 1.379 . S
N172 N169 1.398 . S
N172 C171 1.299 . S
N173 C170 1.367 . S
N173 C171 1.379 . S
C174 N176 1.298 . S
C174 N178 1.367 . S
C174 C182 1.481 . S
C175 N177 1.299 . S
C175 N178 1.379 . S
N176 Zn160 2.036 . S
N176 C174 1.298 . S
N176 N177 1.398 . S
N177 C175 1.299 . S
N177 N176 1.398 . S
N178 C174 1.367 . S
N178 C175 1.379 . S
H179 C182 0.980 . S
H180 C182 0.981 . S
H181 C182 0.981 . S
C182 C174 1.481 . S
C182 H179 0.980 . S
C182 H180 0.981 . S
C182 H181 0.981 . S
C183 C170 1.481 . S
C183 H184 0.980 . S
C183 H185 0.981 . S
C183 H186 0.981 . S
H184 C183 0.980 . S
H185 C183 0.981 . S
H186 C183 0.981 . S
O187 Zn163 2.066 . S
O187 C166 1.256 . S
O188 Zn160 2.053 . S
O188 C166 1.244 . S
C189 O167 1.259 . S
C189 O168 1.254 . S
O190 Zn160 2.066 . S
O190 C162 1.256 . S
O191 C162 1.244 . S
O191 Zn163 2.053 . S
Zn192 O193 2.055 . S
Zn192 O200 2.046 . S
Zn192 N208 2.036 . S
Zn192 O220 2.053 . S
Zn192 O222 2.066 . S
O193 Zn192 2.055 . S
O193 C196 1.259 . S
C194 O222 1.256 . S
C194 O223 1.244 . S
Zn195 O197 2.046 . S
Zn195 O199 2.055 . S
Zn195 N201 2.036 . S
Zn195 O219 2.066 . S
Zn195 O223 2.053 . S
C196 O193 1.259 . S
C196 O197 1.254 . S
O197 Zn195 2.046 . S
O197 C196 1.254 . S
C198 O219 1.256 . S
C198 O220 1.244 . S
O199 Zn195 2.055 . S
O199 C221 1.259 . S
O200 Zn192 2.046 . S
O200 C221 1.254 . S
N201 Zn195 2.036 . S
N201 C202 1.298 . S
N201 N204 1.398 . S
C202 N201 1.298 . S
C202 N205 1.367 . S
C202 C215 1.481 . S
C203 N204 1.299 . S
C203 N205 1.379 . S
N204 N201 1.398 . S
N204 C203 1.299 . S
N205 C202 1.367 . S
N205 C203 1.379 . S
C206 N208 1.298 . S
C206 N210 1.367 . S
C206 C214 1.481 . S
C207 N209 1.299 . S
C207 N210 1.379 . S
N208 Zn192 2.036 . S
N208 C206 1.298 . S
N208 N209 1.398 . S
N209 C207 1.299 . S
N209 N208 1.398 . S
N210 C206 1.367 . S
N210 C207 1.379 . S
H211 C214 0.980 . S
H212 C214 0.981 . S
H213 C214 0.981 . S
C214 C206 1.481 . S
C214 H211 0.980 . S
C214 H212 0.981 . S
C214 H213 0.981 . S
C215 C202 1.481 . S
C215 H216 0.980 . S
C215 H217 0.981 . S
C215 H218 0.981 . S
H216 C215 0.980 . S
H217 C215 0.981 . S
H218 C215 0.981 . S
O219 Zn195 2.066 . S
O219 C198 1.256 . S
O220 Zn192 2.053 . S
O220 C198 1.244 . S
C221 O199 1.259 . S
C221 O200 1.254 . S
O222 Zn192 2.066 . S
O222 C194 1.256 . S
O223 C194 1.244 . S
O223 Zn195 2.053 . S
Zn224 O225 2.055 . S
Zn224 O232 2.046 . S
Zn224 N240 2.036 . S
Zn224 O252 2.053 . S
Zn224 O254 2.066 . S
O225 Zn224 2.055 . S
O225 C228 1.259 . S
C226 O254 1.256 . S
C226 O255 1.244 . S
Zn227 O229 2.046 . S
Zn227 O231 2.055 . S
Zn227 N233 2.036 . S
Zn227 O251 2.066 . S
Zn227 O255 2.053 . S
C228 O225 1.259 . S
C228 O229 1.254 . S
O229 Zn227 2.046 . S
O229 C228 1.254 . S
C230 O251 1.256 . S
C230 O252 1.244 . S
O231 Zn227 2.055 . S
O231 C253 1.259 . S
O232 Zn224 2.046 . S
O232 C253 1.254 . S
N233 Zn227 2.036 . S
N233 C234 1.298 . S
N233 N236 1.398 . S
C234 N233 1.298 . S
C234 N237 1.367 . S
C234 C247 1.481 . S
C235 N236 1.299 . S
C235 N237 1.379 . S
N236 N233 1.398 . S
N236 C235 1.299 . S
N237 C234 1.367 . S
N237 C235 1.379 . S
C238 N240 1.298 . S
C238 N242 1.367 . S
C238 C246 1.481 . S
C239 N241 1.299 . S
C239 N242 1.379 . S
N240 Zn224 2.036 . S
N240 C238 1.298 . S
N240 N241 1.398 . S
N241 C239 1.299 . S
N241 N240 1.398 . S
N242 C238 1.367 . S
N242 C239 1.379 . S
H243 C246 0.980 . S
H244 C246 0.981 . S
H245 C246 0.981 . S
C246 C238 1.481 . S
C246 H243 0.980 . S
C246 H244 0.981 . S
C246 H245 0.981 . S
C247 C234 1.481 . S
C247 H248 0.980 . S
C247 H249 0.981 . S
C247 H250 0.981 . S
H248 C247 0.980 . S
H249 C247 0.981 . S
H250 C247 0.981 . S
O251 Zn227 2.066 . S
O251 C230 1.256 . S
O252 Zn224 2.053 . S
O252 C230 1.244 . S
C253 O231 1.259 . S
C253 O232 1.254 . S
O254 Zn224 2.066 . S
O254 C226 1.256 . S
O255 C226 1.244 . S
O255 Zn227 2.053 . S
Zn256 O257 2.055 . S
Zn256 O264 2.046 . S
Zn256 N272 2.036 . S
Zn256 O284 2.053 . S
Zn256 O286 2.066 . S
O257 Zn256 2.055 . S
O257 C260 1.259 . S
C258 O286 1.256 . S
C258 O287 1.244 . S
Zn259 O261 2.046 . S
Zn259 O263 2.055 . S
Zn259 N265 2.036 . S
Zn259 O283 2.066 . S
Zn259 O287 2.053 . S
C260 O257 1.259 . S
C260 O261 1.254 . S
O261 Zn259 2.046 . S
O261 C260 1.254 . S
C262 O283 1.256 . S
C262 O284 1.244 . S
O263 Zn259 2.055 . S
O263 C285 1.259 . S
O264 Zn256 2.046 . S
O264 C285 1.254 . S
N265 Zn259 2.036 . S
N265 C266 1.298 . S
N265 N268 1.398 . S
C266 N265 1.298 . S
C266 N269 1.367 . S
C266 C279 1.481 . S
C267 N268 1.299 . S
C267 N269 1.379 . S
N268 N265 1.398 . S
N268 C267 1.299 . S
N269 C266 1.367 . S
N269 C267 1.379 . S
C270 N272 1.298 . S
C270 N274 1.367 . S
C270 C278 1.481 . S
C271 N273 1.299 . S
C271 N274 1.379 . S
N272 Zn256 2.036 . S
N272 C270 1.298 . S
N272 N273 1.398 . S
N273 C271 1.299 . S
N273 N272 1.398 . S
N274 C270 1.367 . S
N274 C271 1.379 . S
H275 C278 0.980 . S
H276 C278 0.981 . S
H277 C278 0.981 . S
C278 C270 1.481 . S
C278 H275 0.980 . S
C278 H276 0.981 . S
C278 H277 0.981 . S
C279 C266 1.481 . S
C279 H280 0.980 . S
C279 H281 0.981 . S
C279 H282 0.981 . S
H280 C279 0.980 . S
H281 C279 0.981 . S
H282 C279 0.981 . S
O283 Zn259 2.066 . S
O283 C262 1.256 . S
O284 Zn256 2.053 . S
O284 C262 1.244 . S
C285 O263 1.259 . S
C285 O264 1.254 . S
O286 Zn256 2.066 . S
O286 C258 1.256 . S
O287 C258 1.244 . S
O287 Zn259 2.053 . S
Zn288 O289 2.055 . S
Zn288 O296 2.046 . S
Zn288 N304 2.036 . S
Zn288 O316 2.053 . S
Zn288 O318 2.066 . S
O289 Zn288 2.055 . S
O289 C292 1.259 . S
C290 O318 1.256 . S
C290 O319 1.244 . S
Zn291 O293 2.046 . S
Zn291 O295 2.055 . S
Zn291 N297 2.036 . S
Zn291 O315 2.066 . S
Zn291 O319 2.053 . S
C292 O289 1.259 . S
C292 O293 1.254 . S
O293 Zn291 2.046 . S
O293 C292 1.254 . S
C294 O315 1.256 . S
C294 O316 1.244 . S
O295 Zn291 2.055 . S
O295 C317 1.259 . S
O296 Zn288 2.046 . S
O296 C317 1.254 . S
N297 Zn291 2.036 . S
N297 C298 1.298 1_545 S
N297 N300 1.398 . S
C298 N297 1.298 1_565 S
C298 N301 1.367 . S
C298 C311 1.481 . S
C299 N300 1.299 1_565 S
C299 N301 1.379 . S
N300 N297 1.398 . S
N300 C299 1.299 1_545 S
N301 C298 1.367 . S
N301 C299 1.379 . S
C302 N304 1.298 . S
C302 N306 1.367 . S
C302 C310 1.481 . S
C303 N305 1.299 . S
C303 N306 1.379 . S
N304 Zn288 2.036 . S
N304 C302 1.298 . S
N304 N305 1.398 . S
N305 C303 1.299 . S
N305 N304 1.398 . S
N306 C302 1.367 . S
N306 C303 1.379 . S
H307 C310 0.980 . S
H308 C310 0.981 . S
H309 C310 0.981 . S
C310 C302 1.481 . S
C310 H307 0.980 . S
C310 H308 0.981 . S
C310 H309 0.981 . S
C311 C298 1.481 . S
C311 H312 0.980 1_565 S
C311 H313 0.981 . S
C311 H314 0.981 . S
H312 C311 0.980 1_545 S
H313 C311 0.981 . S
H314 C311 0.981 . S
O315 Zn291 2.066 . S
O315 C294 1.256 . S
O316 Zn288 2.053 . S
O316 C294 1.244 . S
C317 O295 1.259 . S
C317 O296 1.254 . S
O318 Zn288 2.066 . S
O318 C290 1.256 . S
O319 C290 1.244 . S
O319 Zn291 2.053 . S
Zn320 O321 2.055 1_554 S
Zn320 O328 2.046 . S
Zn320 N336 2.036 . S
Zn320 O348 2.053 . S
Zn320 O350 2.066 . S
O321 Zn320 2.055 1_556 S
O321 C324 1.259 . S
C322 O350 1.256 1_556 S
C322 O351 1.244 . S
Zn323 O325 2.046 1_554 S
Zn323 O327 2.055 . S
Zn323 N329 2.036 1_554 S
Zn323 O347 2.066 . S
Zn323 O351 2.053 1_554 S
C324 O321 1.259 . S
C324 O325 1.254 . S
O325 Zn323 2.046 1_556 S
O325 C324 1.254 . S
C326 O347 1.256 . S
C326 O348 1.244 . S
O327 Zn323 2.055 . S
O327 C349 1.259 . S
O328 Zn320 2.046 . S
O328 C349 1.254 . S
N329 Zn323 2.036 1_556 S
N329 C330 1.298 . S
N329 N332 1.398 . S
C330 N329 1.298 . S
C330 N333 1.367 . S
C330 C343 1.481 1_556 S
C331 N332 1.299 . S
C331 N333 1.379 . S
N332 N329 1.398 . S
N332 C331 1.299 . S
N333 C330 1.367 . S
N333 C331 1.379 . S
C334 N336 1.298 . S
C334 N338 1.367 . S
C334 C342 1.481 . S
C335 N337 1.299 . S
C335 N338 1.379 . S
N336 Zn320 2.036 . S
N336 C334 1.298 . S
N336 N337 1.398 . S
N337 C335 1.299 . S
N337 N336 1.398 . S
N338 C334 1.367 . S
N338 C335 1.379 . S
H339 C342 0.980 . S
H340 C342 0.981 . S
H341 C342 0.981 . S
C342 C334 1.481 . S
C342 H339 0.980 . S
C342 H340 0.981 . S
C342 H341 0.981 . S
C343 C330 1.481 1_554 S
C343 H344 0.980 . S
C343 H345 0.981 . S
C343 H346 0.981 . S
H344 C343 0.980 . S
H345 C343 0.981 . S
H346 C343 0.981 . S
O347 Zn323 2.066 . S
O347 C326 1.256 . S
O348 Zn320 2.053 . S
O348 C326 1.244 . S
C349 O327 1.259 . S
C349 O328 1.254 . S
O350 Zn320 2.066 . S
O350 C322 1.256 1_554 S
O351 C322 1.244 . S
O351 Zn323 2.053 1_556 S
Zn352 O353 2.055 . S
Zn352 O360 2.046 . S
Zn352 N368 2.036 . S
Zn352 O380 2.053 . S
Zn352 O382 2.066 . S
O353 Zn352 2.055 . S
O353 C356 1.259 . S
C354 O382 1.256 . S
C354 O383 1.244 . S
Zn355 O357 2.046 . S
Zn355 O359 2.055 . S
Zn355 N361 2.036 . S
Zn355 O379 2.066 . S
Zn355 O383 2.053 . S
C356 O353 1.259 . S
C356 O357 1.254 . S
O357 Zn355 2.046 . S
O357 C356 1.254 . S
C358 O379 1.256 . S
C358 O380 1.244 . S
O359 Zn355 2.055 . S
O359 C381 1.259 . S
O360 Zn352 2.046 . S
O360 C381 1.254 . S
N361 Zn355 2.036 . S
N361 C362 1.298 1_565 S
N361 N364 1.398 . S
C362 N361 1.298 1_545 S
C362 N365 1.367 . S
C362 C375 1.481 . S
C363 N364 1.299 1_545 S
C363 N365 1.379 . S
N364 N361 1.398 . S
N364 C363 1.299 1_565 S
N365 C362 1.367 . S
N365 C363 1.379 . S
C366 N368 1.298 . S
C366 N370 1.367 . S
C366 C374 1.481 . S
C367 N369 1.299 . S
C367 N370 1.379 . S
N368 Zn352 2.036 . S
N368 C366 1.298 . S
N368 N369 1.398 . S
N369 C367 1.299 . S
N369 N368 1.398 . S
N370 C366 1.367 . S
N370 C367 1.379 . S
H371 C374 0.980 . S
H372 C374 0.981 . S
H373 C374 0.981 . S
C374 C366 1.481 . S
C374 H371 0.980 . S
C374 H372 0.981 . S
C374 H373 0.981 . S
C375 C362 1.481 . S
C375 H376 0.980 1_545 S
C375 H377 0.981 . S
C375 H378 0.981 . S
H376 C375 0.980 1_565 S
H377 C375 0.981 . S
H378 C375 0.981 . S
O379 Zn355 2.066 . S
O379 C358 1.256 . S
O380 Zn352 2.053 . S
O380 C358 1.244 . S
C381 O359 1.259 . S
C381 O360 1.254 . S
O382 Zn352 2.066 . S
O382 C354 1.256 . S
O383 C354 1.244 . S
O383 Zn355 2.053 . S
Zn384 O385 2.055 . S
Zn384 O392 2.046 . S
Zn384 N400 2.036 . S
Zn384 O412 2.053 . S
Zn384 O414 2.066 . S
O385 Zn384 2.055 . S
O385 C388 1.259 . S
C386 O414 1.256 . S
C386 O415 1.244 . S
Zn387 O389 2.046 . S
Zn387 O391 2.055 . S
Zn387 N393 2.036 . S
Zn387 O411 2.066 . S
Zn387 O415 2.053 . S
C388 O385 1.259 . S
C388 O389 1.254 . S
O389 Zn387 2.046 . S
O389 C388 1.254 . S
C390 O411 1.256 . S
C390 O412 1.244 . S
O391 Zn387 2.055 . S
O391 C413 1.259 . S
O392 Zn384 2.046 . S
O392 C413 1.254 . S
N393 Zn387 2.036 . S
N393 C394 1.298 . S
N393 N396 1.398 . S
C394 N393 1.298 . S
C394 N397 1.367 . S
C394 C407 1.481 . S
C395 N396 1.299 . S
C395 N397 1.379 . S
N396 N393 1.398 . S
N396 C395 1.299 . S
N397 C394 1.367 . S
N397 C395 1.379 . S
C398 N400 1.298 . S
C398 N402 1.367 . S
C398 C406 1.481 . S
C399 N401 1.299 . S
C399 N402 1.379 . S
N400 Zn384 2.036 . S
N400 C398 1.298 . S
N400 N401 1.398 . S
N401 C399 1.299 . S
N401 N400 1.398 . S
N402 C398 1.367 . S
N402 C399 1.379 . S
H403 C406 0.980 . S
H404 C406 0.981 . S
H405 C406 0.981 . S
C406 C398 1.481 . S
C406 H403 0.980 . S
C406 H404 0.981 . S
C406 H405 0.981 . S
C407 C394 1.481 . S
C407 H408 0.980 . S
C407 H409 0.981 . S
C407 H410 0.981 . S
H408 C407 0.980 . S
H409 C407 0.981 . S
H410 C407 0.981 . S
O411 Zn387 2.066 . S
O411 C390 1.256 . S
O412 Zn384 2.053 . S
O412 C390 1.244 . S
C413 O391 1.259 . S
C413 O392 1.254 . S
O414 Zn384 2.066 . S
O414 C386 1.256 . S
O415 C386 1.244 . S
O415 Zn387 2.053 . S
Zn416 O417 2.055 . S
Zn416 O424 2.046 . S
Zn416 N432 2.036 . S
Zn416 O444 2.053 . S
Zn416 O446 2.066 . S
O417 Zn416 2.055 . S
O417 C420 1.259 . S
C418 O446 1.256 . S
C418 O447 1.244 . S
Zn419 O421 2.046 . S
Zn419 O423 2.055 . S
Zn419 N425 2.036 . S
Zn419 O443 2.066 . S
Zn419 O447 2.053 . S
C420 O417 1.259 . S
C420 O421 1.254 . S
O421 Zn419 2.046 . S
O421 C420 1.254 . S
C422 O443 1.256 . S
C422 O444 1.244 . S
O423 Zn419 2.055 . S
O423 C445 1.259 . S
O424 Zn416 2.046 . S
O424 C445 1.254 . S
N425 Zn419 2.036 . S
N425 C426 1.298 1_565 S
N425 N428 1.398 . S
C426 N425 1.298 1_545 S
C426 N429 1.367 . S
C426 C439 1.481 . S
C427 N428 1.299 1_545 S
C427 N429 1.379 . S
N428 N425 1.398 . S
N428 C427 1.299 1_565 S
N429 C426 1.367 . S
N429 C427 1.379 . S
C430 N432 1.298 . S
C430 N434 1.367 . S
C430 C438 1.481 . S
C431 N433 1.299 . S
C431 N434 1.379 . S
N432 Zn416 2.036 . S
N432 C430 1.298 . S
N432 N433 1.398 . S
N433 C431 1.299 . S
N433 N432 1.398 . S
N434 C430 1.367 . S
N434 C431 1.379 . S
H435 C438 0.980 . S
H436 C438 0.981 . S
H437 C438 0.981 . S
C438 C430 1.481 . S
C438 H435 0.980 . S
C438 H436 0.981 . S
C438 H437 0.981 . S
C439 C426 1.481 . S
C439 H440 0.980 1_545 S
C439 H441 0.981 . S
C439 H442 0.981 . S
H440 C439 0.980 1_565 S
H441 C439 0.981 . S
H442 C439 0.981 . S
O443 Zn419 2.066 . S
O443 C422 1.256 . S
O444 Zn416 2.053 . S
O444 C422 1.244 . S
C445 O423 1.259 . S
C445 O424 1.254 . S
O446 Zn416 2.066 . S
O446 C418 1.256 . S
O447 C418 1.244 . S
O447 Zn419 2.053 . S
Zn448 O449 2.055 . S
Zn448 O456 2.046 1_556 S
Zn448 N464 2.036 1_556 S
Zn448 O476 2.053 1_556 S
Zn448 O478 2.066 . S
O449 Zn448 2.055 . S
O449 C452 1.259 . S
C450 O478 1.256 . S
C450 O479 1.244 . S
Zn451 O453 2.046 . S
Zn451 O455 2.055 1_556 S
Zn451 N457 2.036 . S
Zn451 O475 2.066 . S
Zn451 O479 2.053 . S
C452 O449 1.259 . S
C452 O453 1.254 . S
O453 Zn451 2.046 . S
O453 C452 1.254 . S
C454 O475 1.256 1_554 S
C454 O476 1.244 . S
O455 Zn451 2.055 1_554 S
O455 C477 1.259 . S
O456 Zn448 2.046 1_554 S
O456 C477 1.254 . S
N457 Zn451 2.036 . S
N457 C458 1.298 . S
N457 N460 1.398 . S
C458 N457 1.298 . S
C458 N461 1.367 . S
C458 C471 1.481 . S
C459 N460 1.299 . S
C459 N461 1.379 . S
N460 N457 1.398 . S
N460 C459 1.299 . S
N461 C458 1.367 . S
N461 C459 1.379 . S
C462 N464 1.298 . S
C462 N466 1.367 . S
C462 C470 1.481 1_554 S
C463 N465 1.299 . S
C463 N466 1.379 . S
N464 Zn448 2.036 1_554 S
N464 C462 1.298 . S
N464 N465 1.398 . S
N465 C463 1.299 . S
N465 N464 1.398 . S
N466 C462 1.367 . S
N466 C463 1.379 . S
H467 C470 0.980 . S
H468 C470 0.981 . S
H469 C470 0.981 . S
C470 C462 1.481 1_556 S
C470 H467 0.980 . S
C470 H468 0.981 . S
C470 H469 0.981 . S
C471 C458 1.481 . S
C471 H472 0.980 . S
C471 H473 0.981 . S
C471 H474 0.981 . S
H472 C471 0.980 . S
H473 C471 0.981 . S
H474 C471 0.981 . S
O475 Zn451 2.066 . S
O475 C454 1.256 1_556 S
O476 Zn448 2.053 1_554 S
O476 C454 1.244 . S
C477 O455 1.259 . S
C477 O456 1.254 . S
O478 Zn448 2.066 . S
O478 C450 1.256 . S
O479 C450 1.244 . S
O479 Zn451 2.053 . S
Zn480 O481 2.055 . S
Zn480 O488 2.046 . S
Zn480 N496 2.036 . S
Zn480 O508 2.053 . S
Zn480 O510 2.066 . S
O481 Zn480 2.055 . S
O481 C484 1.259 . S
C482 O510 1.256 . S
C482 O511 1.244 . S
Zn483 O485 2.046 . S
Zn483 O487 2.055 . S
Zn483 N489 2.036 . S
Zn483 O507 2.066 . S
Zn483 O511 2.053 . S
C484 O481 1.259 . S
C484 O485 1.254 . S
O485 Zn483 2.046 . S
O485 C484 1.254 . S
C486 O507 1.256 . S
C486 O508 1.244 . S
O487 Zn483 2.055 . S
O487 C509 1.259 . S
O488 Zn480 2.046 . S
O488 C509 1.254 . S
N489 Zn483 2.036 . S
N489 C490 1.298 1_545 S
N489 N492 1.398 . S
C490 N489 1.298 1_565 S
C490 N493 1.367 . S
C490 C503 1.481 . S
C491 N492 1.299 1_565 S
C491 N493 1.379 . S
N492 N489 1.398 . S
N492 C491 1.299 1_545 S
N493 C490 1.367 . S
N493 C491 1.379 . S
C494 N496 1.298 . S
C494 N498 1.367 . S
C494 C502 1.481 . S
C495 N497 1.299 . S
C495 N498 1.379 . S
N496 Zn480 2.036 . S
N496 C494 1.298 . S
N496 N497 1.398 . S
N497 C495 1.299 . S
N497 N496 1.398 . S
N498 C494 1.367 . S
N498 C495 1.379 . S
H499 C502 0.980 . S
H500 C502 0.981 . S
H501 C502 0.981 . S
C502 C494 1.481 . S
C502 H499 0.980 . S
C502 H500 0.981 . S
C502 H501 0.981 . S
C503 C490 1.481 . S
C503 H504 0.980 1_565 S
C503 H505 0.981 . S
C503 H506 0.981 . S
H504 C503 0.980 1_545 S
H505 C503 0.981 . S
H506 C503 0.981 . S
O507 Zn483 2.066 . S
O507 C486 1.256 . S
O508 Zn480 2.053 . S
O508 C486 1.244 . S
C509 O487 1.259 . S
C509 O488 1.254 . S
O510 Zn480 2.066 . S
O510 C482 1.256 . S
O511 C482 1.244 . S
O511 Zn483 2.053 . S
C512 C513 1.369 . S
C512 C514 1.419 . S
C512 H516 0.930 . S
C513 C512 1.369 . S
C513 C522 1.429 . S
C514 C512 1.419 . S
C514 C515 1.363 . S
C514 H517 0.929 . S
C515 C514 1.363 . S
C515 C521 1.428 . S
H516 C512 0.930 . S
H517 C514 0.929 . S
S518 N519 1.613 . S
S518 N520 1.610 . S
N519 S518 1.613 . S
N519 C522 1.350 . S
N520 S518 1.610 . S
N520 C521 1.351 . S
C521 C515 1.428 . S
C521 N520 1.351 . S
C521 C522 1.434 . S
C522 C513 1.429 . S
C522 N519 1.350 . S
C522 C521 1.434 . S
C523 C524 1.369 . S
C523 C525 1.419 . S
C523 H527 0.930 . S
C524 C523 1.369 . S
C524 C533 1.429 . S
C525 C523 1.419 . S
C525 C526 1.363 . S
C525 H528 0.929 . S
C526 C525 1.363 . S
C526 C532 1.428 . S
H527 C523 0.930 . S
H528 C525 0.929 . S
S529 N530 1.613 . S
S529 N531 1.610 . S
N530 S529 1.613 . S
N530 C533 1.350 . S
N531 S529 1.610 . S
N531 C532 1.351 . S
C532 C526 1.428 . S
C532 N531 1.351 . S
C532 C533 1.434 . S
C533 C524 1.429 . S
C533 N530 1.350 . S
C533 C532 1.434 . S
C534 C535 1.369 . S
C534 C536 1.419 1_455 S
C534 H538 0.930 . S
C535 C534 1.369 . S
C535 C544 1.429 . S
C536 C534 1.419 1_655 S
C536 C537 1.363 . S
C536 H539 0.929 . S
C537 C536 1.363 . S
C537 C543 1.428 . S
H538 C534 0.930 . S
H539 C536 0.929 . S
S540 N541 1.613 1_655 S
S540 N542 1.610 . S
N541 S540 1.613 1_455 S
N541 C544 1.350 . S
N542 S540 1.610 . S
N542 C543 1.351 . S
C543 C537 1.428 . S
C543 N542 1.351 . S
C543 C544 1.434 1_655 S
C544 C535 1.429 . S
C544 N541 1.350 . S
C544 C543 1.434 1_455 S
C545 C546 1.369 1_655 S
C545 C547 1.419 . S
C545 H549 0.930 . S
C546 C545 1.369 1_455 S
C546 C555 1.429 . S
C547 C545 1.419 . S
C547 C548 1.363 . S
C547 H550 0.929 . S
C548 C547 1.363 . S
C548 C554 1.428 1_655 S
H549 C545 0.930 . S
H550 C547 0.929 . S
S551 N552 1.613 . S
S551 N553 1.610 . S
N552 S551 1.613 . S
N552 C555 1.350 . S
N553 S551 1.610 . S
N553 C554 1.351 . S
C554 C548 1.428 1_455 S
C554 N553 1.351 . S
C554 C555 1.434 . S
C555 C546 1.429 . S
C555 N552 1.350 . S
C555 C554 1.434 . S
C556 C557 1.369 . S
C556 C558 1.419 . S
C556 H560 0.930 . S
C557 C556 1.369 . S
C557 C566 1.429 . S
C558 C556 1.419 . S
C558 C559 1.363 . S
C558 H561 0.929 . S
C559 C558 1.363 . S
C559 C565 1.428 . S
H560 C556 0.930 . S
H561 C558 0.929 . S
S562 N563 1.613 . S
S562 N564 1.610 . S
N563 S562 1.613 . S
N563 C566 1.350 . S
N564 S562 1.610 . S
N564 C565 1.351 . S
C565 C559 1.428 . S
C565 N564 1.351 . S
C565 C566 1.434 . S
C566 C557 1.429 . S
C566 N563 1.350 . S
C566 C565 1.434 . S
C567 C568 1.369 . S
C567 C569 1.419 . S
C567 H571 0.930 . S
C568 C567 1.369 . S
C568 C577 1.429 . S
C569 C567 1.419 . S
C569 C570 1.363 . S
C569 H572 0.929 . S
C570 C569 1.363 . S
C570 C576 1.428 . S
H571 C567 0.930 . S
H572 C569 0.929 . S
S573 N574 1.613 . S
S573 N575 1.610 . S
N574 S573 1.613 . S
N574 C577 1.350 . S
N575 S573 1.610 . S
N575 C576 1.351 . S
C576 C570 1.428 . S
C576 N575 1.351 . S
C576 C577 1.434 . S
C577 C568 1.429 . S
C577 N574 1.350 . S
C577 C576 1.434 . S
C578 C579 1.369 . S
C578 C580 1.419 1_655 S
C578 H582 0.930 . S
C579 C578 1.369 . S
C579 C588 1.429 . S
C580 C578 1.419 1_455 S
C580 C581 1.363 . S
C580 H583 0.929 . S
C581 C580 1.363 . S
C581 C587 1.428 . S
H582 C578 0.930 . S
H583 C580 0.929 . S
S584 N585 1.613 . S
S584 N586 1.610 1_655 S
N585 S584 1.613 . S
N585 C588 1.350 . S
N586 S584 1.610 1_455 S
N586 C587 1.351 . S
C587 C581 1.428 . S
C587 N586 1.351 . S
C587 C588 1.434 1_455 S
C588 C579 1.429 . S
C588 N585 1.350 . S
C588 C587 1.434 1_655 S
C589 C590 1.369 . S
C589 C591 1.419 . S
C589 H593 0.930 . S
C590 C589 1.369 . S
C590 C599 1.429 1_655 S
C591 C589 1.419 . S
C591 C592 1.363 1_655 S
C591 H594 0.929 . S
C592 C591 1.363 1_455 S
C592 C598 1.428 . S
H593 C589 0.930 . S
H594 C591 0.929 . S
S595 N596 1.613 1_556 S
S595 N597 1.610 1_556 S
N596 S595 1.613 1_554 S
N596 C599 1.350 . S
N597 S595 1.610 1_554 S
N597 C598 1.351 . S
C598 C592 1.428 . S
C598 N597 1.351 . S
C598 C599 1.434 . S
C599 C590 1.429 1_455 S
C599 N596 1.350 . S
C599 C598 1.434 . S
C600 C601 1.369 . S
C600 C602 1.419 . S
C600 H604 0.930 . S
C601 C600 1.369 . S
C601 C610 1.429 . S
C602 C600 1.419 . S
C602 C603 1.363 . S
C602 H605 0.929 . S
C603 C602 1.363 . S
C603 C609 1.428 . S
H604 C600 0.930 . S
H605 C602 0.929 . S
S606 N607 1.613 . S
S606 N608 1.610 . S
N607 S606 1.613 . S
N607 C610 1.350 . S
N608 S606 1.610 . S
N608 C609 1.351 . S
C609 C603 1.428 . S
C609 N608 1.351 . S
C609 C610 1.434 . S
C610 C601 1.429 . S
C610 N607 1.350 . S
C610 C609 1.434 . S
C611 C612 1.369 . S
C611 C613 1.419 . S
C611 H615 0.930 . S
C612 C611 1.369 . S
C612 C621 1.429 . S
C613 C611 1.419 . S
C613 C614 1.363 . S
C613 H616 0.929 . S
C614 C613 1.363 . S
C614 C620 1.428 . S
H615 C611 0.930 . S
H616 C613 0.929 . S
S617 N618 1.613 . S
S617 N619 1.610 . S
N618 S617 1.613 . S
N618 C621 1.350 . S
N619 S617 1.610 . S
N619 C620 1.351 . S
C620 C614 1.428 . S
C620 N619 1.351 . S
C620 C621 1.434 . S
C621 C612 1.429 . S
C621 N618 1.350 . S
C621 C620 1.434 . S
C622 C623 1.369 . S
C622 C624 1.419 . S
C622 H626 0.930 . S
C623 C622 1.369 . S
C623 C632 1.429 . S
C624 C622 1.419 . S
C624 C625 1.363 . S
C624 H627 0.929 . S
C625 C624 1.363 . S
C625 C631 1.428 . S
H626 C622 0.930 . S
H627 C624 0.929 . S
S628 N629 1.613 . S
S628 N630 1.610 . S
N629 S628 1.613 . S
N629 C632 1.350 . S
N630 S628 1.610 . S
N630 C631 1.351 . S
C631 C625 1.428 . S
C631 N630 1.351 . S
C631 C632 1.434 . S
C632 C623 1.429 . S
C632 N629 1.350 . S
C632 C631 1.434 . S
C633 C634 1.369 . S
C633 C635 1.419 . S
C633 H637 0.930 . S
C634 C633 1.369 . S
C634 C643 1.429 . S
C635 C633 1.419 . S
C635 C636 1.363 . S
C635 H638 0.929 . S
C636 C635 1.363 . S
C636 C642 1.428 . S
H637 C633 0.930 . S
H638 C635 0.929 . S
S639 N640 1.613 . S
S639 N641 1.610 . S
N640 S639 1.613 . S
N640 C643 1.350 . S
N641 S639 1.610 . S
N641 C642 1.351 . S
C642 C636 1.428 . S
C642 N641 1.351 . S
C642 C643 1.434 . S
C643 C634 1.429 . S
C643 N640 1.350 . S
C643 C642 1.434 . S
C644 C645 1.369 . S
C644 C646 1.419 . S
C644 H648 0.930 . S
C645 C644 1.369 . S
C645 C654 1.429 . S
C646 C644 1.419 . S
C646 C647 1.363 . S
C646 H649 0.929 . S
C647 C646 1.363 . S
C647 C653 1.428 . S
H648 C644 0.930 . S
H649 C646 0.929 . S
S650 N651 1.613 . S
S650 N652 1.610 . S
N651 S650 1.613 . S
N651 C654 1.350 1_556 S
N652 S650 1.610 . S
N652 C653 1.351 1_556 S
C653 C647 1.428 . S
C653 N652 1.351 1_554 S
C653 C654 1.434 . S
C654 C645 1.429 . S
C654 N651 1.350 1_554 S
C654 C653 1.434 . S
C655 C656 1.369 . S
C655 C657 1.419 . S
C655 H659 0.930 . S
C656 C655 1.369 . S
C656 C665 1.429 . S
C657 C655 1.419 . S
C657 C658 1.363 . S
C657 H660 0.929 . S
C658 C657 1.363 . S
C658 C664 1.428 . S
H659 C655 0.930 . S
H660 C657 0.929 . S
S661 N662 1.613 . S
S661 N663 1.610 . S
N662 S661 1.613 . S
N662 C665 1.350 . S
N663 S661 1.610 . S
N663 C664 1.351 . S
C664 C658 1.428 . S
C664 N663 1.351 . S
C664 C665 1.434 . S
C665 C656 1.429 . S
C665 N662 1.350 . S
C665 C664 1.434 . S
C666 C667 1.369 . S
C666 C668 1.419 . S
C666 H670 0.930 . S
C667 C666 1.369 . S
C667 C676 1.429 . S
C668 C666 1.419 . S
C668 C669 1.363 . S
C668 H671 0.929 . S
C669 C668 1.363 . S
C669 C675 1.428 . S
H670 C666 0.930 . S
H671 C668 0.929 . S
S672 N673 1.613 . S
S672 N674 1.610 . S
N673 S672 1.613 . S
N673 C676 1.350 . S
N674 S672 1.610 . S
N674 C675 1.351 . S
C675 C669 1.428 . S
C675 N674 1.351 . S
C675 C676 1.434 . S
C676 C667 1.429 . S
C676 N673 1.350 . S
C676 C675 1.434 . S
C677 C678 1.369 . S
C677 C679 1.419 . S
C677 H681 0.930 . S
C678 C677 1.369 . S
C678 C687 1.429 . S
C679 C677 1.419 . S
C679 C680 1.363 . S
C679 H682 0.929 . S
C680 C679 1.363 . S
C680 C686 1.428 . S
H681 C677 0.930 . S
H682 C679 0.929 . S
S683 N684 1.613 . S
S683 N685 1.610 . S
N684 S683 1.613 . S
N684 C687 1.350 . S
N685 S683 1.610 . S
N685 C686 1.351 . S
C686 C680 1.428 . S
C686 N685 1.351 . S
C686 C687 1.434 . S
C687 C678 1.429 . S
C687 N684 1.350 . S
C687 C686 1.434 . S
C688 C689 1.369 . S
C688 C690 1.419 . S
C688 H692 0.930 . S
C689 C688 1.369 . S
C689 C698 1.429 . S
C690 C688 1.419 . S
C690 C691 1.363 . S
C690 H693 0.929 . S
C691 C690 1.363 . S
C691 C697 1.428 . S
H692 C688 0.930 . S
H693 C690 0.929 . S
S694 N695 1.613 . S
S694 N696 1.610 . S
N695 S694 1.613 . S
N695 C698 1.350 . S
N696 S694 1.610 . S
N696 C697 1.351 . S
C697 C691 1.428 . S
C697 N696 1.351 . S
C697 C698 1.434 . S
C698 C689 1.429 . S
C698 N695 1.350 . S
C698 C697 1.434 . S
C699 C700 1.369 . S
C699 C701 1.419 . S
C699 H703 0.930 . S
C700 C699 1.369 . S
C700 C709 1.429 . S
C701 C699 1.419 . S
C701 C702 1.363 . S
C701 H704 0.929 . S
C702 C701 1.363 . S
C702 C708 1.428 . S
H703 C699 0.930 . S
H704 C701 0.929 . S
S705 N706 1.613 . S
S705 N707 1.610 . S
N706 S705 1.613 . S
N706 C709 1.350 . S
N707 S705 1.610 . S
N707 C708 1.351 . S
C708 C702 1.428 . S
C708 N707 1.351 . S
C708 C709 1.434 . S
C709 C700 1.429 . S
C709 N706 1.350 . S
C709 C708 1.434 . S
C710 C711 1.369 . S
C710 C712 1.419 . S
C710 H714 0.930 . S
C711 C710 1.369 . S
C711 C720 1.429 . S
C712 C710 1.419 . S
C712 C713 1.363 . S
C712 H715 0.929 . S
C713 C712 1.363 . S
C713 C719 1.428 . S
H714 C710 0.930 . S
H715 C712 0.929 . S
S716 N717 1.613 . S
S716 N718 1.610 . S
N717 S716 1.613 . S
N717 C720 1.350 . S
N718 S716 1.610 . S
N718 C719 1.351 . S
C719 C713 1.428 . S
C719 N718 1.351 . S
C719 C720 1.434 . S
C720 C711 1.429 . S
C720 N717 1.350 . S
C720 C719 1.434 . S
C721 C722 1.369 . S
C721 C723 1.419 . S
C721 H725 0.930 . S
C722 C721 1.369 . S
C722 C731 1.429 . S
C723 C721 1.419 . S
C723 C724 1.363 . S
C723 H726 0.929 . S
C724 C723 1.363 . S
C724 C730 1.428 . S
H725 C721 0.930 . S
H726 C723 0.929 . S
S727 N728 1.613 . S
S727 N729 1.610 . S
N728 S727 1.613 . S
N728 C731 1.350 . S
N729 S727 1.610 . S
N729 C730 1.351 . S
C730 C724 1.428 . S
C730 N729 1.351 . S
C730 C731 1.434 . S
C731 C722 1.429 . S
C731 N728 1.350 . S
C731 C730 1.434 . S
C732 C733 1.369 . S
C732 C734 1.419 . S
C732 H736 0.930 . S
C733 C732 1.369 . S
C733 C742 1.429 . S
C734 C732 1.419 . S
C734 C735 1.363 . S
C734 H737 0.929 . S
C735 C734 1.363 . S
C735 C741 1.428 . S
H736 C732 0.930 . S
H737 C734 0.929 . S
S738 N739 1.613 . S
S738 N740 1.610 . S
N739 S738 1.613 . S
N739 C742 1.350 . S
N740 S738 1.610 . S
N740 C741 1.351 . S
C741 C735 1.428 . S
C741 N740 1.351 . S
C741 C742 1.434 . S
C742 C733 1.429 . S
C742 N739 1.350 . S
C742 C741 1.434 . S
C743 C744 1.369 . S
C743 C745 1.419 . S
C743 H747 0.930 . S
C744 C743 1.369 . S
C744 C753 1.429 . S
C745 C743 1.419 . S
C745 C746 1.363 . S
C745 H748 0.929 . S
C746 C745 1.363 . S
C746 C752 1.428 . S
H747 C743 0.930 . S
H748 C745 0.929 . S
S749 N750 1.613 . S
S749 N751 1.610 . S
N750 S749 1.613 . S
N750 C753 1.350 . S
N751 S749 1.610 . S
N751 C752 1.351 . S
C752 C746 1.428 . S
C752 N751 1.351 . S
C752 C753 1.434 . S
C753 C744 1.429 . S
C753 N750 1.350 . S
C753 C752 1.434 . S
C754 C755 1.369 . S
C754 C756 1.419 . S
C754 H758 0.930 . S
C755 C754 1.369 . S
C755 C764 1.429 . S
C756 C754 1.419 . S
C756 C757 1.363 . S
C756 H759 0.929 . S
C757 C756 1.363 . S
C757 C763 1.428 . S
H758 C754 0.930 . S
H759 C756 0.929 . S
S760 N761 1.613 . S
S760 N762 1.610 . S
N761 S760 1.613 . S
N761 C764 1.350 1_556 S
N762 S760 1.610 . S
N762 C763 1.351 1_556 S
C763 C757 1.428 . S
C763 N762 1.351 1_554 S
C763 C764 1.434 . S
C764 C755 1.429 . S
C764 N761 1.350 1_554 S
C764 C763 1.434 . S
C765 C766 1.369 . S
C765 C767 1.419 . S
C765 H769 0.930 . S
C766 C765 1.369 . S
C766 C775 1.429 . S
C767 C765 1.419 . S
C767 C768 1.363 . S
C767 H770 0.929 . S
C768 C767 1.363 . S
C768 C774 1.428 . S
H769 C765 0.930 . S
H770 C767 0.929 . S
S771 N772 1.613 . S
S771 N773 1.610 . S
N772 S771 1.613 . S
N772 C775 1.350 . S
N773 S771 1.610 . S
N773 C774 1.351 . S
C774 C768 1.428 . S
C774 N773 1.351 . S
C774 C775 1.434 . S
C775 C766 1.429 . S
C775 N772 1.350 . S
C775 C774 1.434 . S
C776 C777 1.369 . S
C776 C778 1.419 . S
C776 H780 0.930 . S
C777 C776 1.369 . S
C777 C786 1.429 . S
C778 C776 1.419 . S
C778 C779 1.363 . S
C778 H781 0.929 . S
C779 C778 1.363 . S
C779 C785 1.428 . S
H780 C776 0.930 . S
H781 C778 0.929 . S
S782 N783 1.613 . S
S782 N784 1.610 . S
N783 S782 1.613 . S
N783 C786 1.350 . S
N784 S782 1.610 . S
N784 C785 1.351 . S
C785 C779 1.428 . S
C785 N784 1.351 . S
C785 C786 1.434 . S
C786 C777 1.429 . S
C786 N783 1.350 . S
C786 C785 1.434 . S
C787 C788 1.369 . S
C787 C789 1.419 . S
C787 H791 0.930 . S
C788 C787 1.369 . S
C788 C797 1.429 . S
C789 C787 1.419 . S
C789 C790 1.363 . S
C789 H792 0.929 . S
C790 C789 1.363 . S
C790 C796 1.428 . S
H791 C787 0.930 . S
H792 C789 0.929 . S
S793 N794 1.613 1_556 S
S793 N795 1.610 . S
N794 S793 1.613 1_554 S
N794 C797 1.350 . S
N795 S793 1.610 . S
N795 C796 1.351 1_556 S
C796 C790 1.428 . S
C796 N795 1.351 1_554 S
C796 C797 1.434 . S
C797 C788 1.429 . S
C797 N794 1.350 . S
C797 C796 1.434 . S
C798 C799 1.369 . S
C798 C800 1.419 . S
C798 H802 0.930 . S
C799 C798 1.369 . S
C799 C808 1.429 . S
C800 C798 1.419 . S
C800 C801 1.363 . S
C800 H803 0.929 . S
C801 C800 1.363 . S
C801 C807 1.428 . S
H802 C798 0.930 . S
H803 C800 0.929 . S
S804 N805 1.613 . S
S804 N806 1.610 . S
N805 S804 1.613 . S
N805 C808 1.350 . S
N806 S804 1.610 . S
N806 C807 1.351 . S
C807 C801 1.428 . S
C807 N806 1.351 . S
C807 C808 1.434 . S
C808 C799 1.429 . S
C808 N805 1.350 . S
C808 C807 1.434 . S
C809 C810 1.369 . S
C809 C811 1.419 . S
C809 H813 0.930 . S
C810 C809 1.369 . S
C810 C819 1.429 . S
C811 C809 1.419 . S
C811 C812 1.363 . S
C811 H814 0.929 . S
C812 C811 1.363 . S
C812 C818 1.428 . S
H813 C809 0.930 . S
H814 C811 0.929 . S
S815 N816 1.613 . S
S815 N817 1.610 . S
N816 S815 1.613 . S
N816 C819 1.350 . S
N817 S815 1.610 . S
N817 C818 1.351 . S
C818 C812 1.428 . S
C818 N817 1.351 . S
C818 C819 1.434 . S
C819 C810 1.429 . S
C819 N816 1.350 . S
C819 C818 1.434 . S
C820 C821 1.369 . S
C820 C822 1.419 . S
C820 H824 0.930 . S
C821 C820 1.369 . S
C821 C830 1.429 . S
C822 C820 1.419 . S
C822 C823 1.363 . S
C822 H825 0.929 . S
C823 C822 1.363 . S
C823 C829 1.428 . S
H824 C820 0.930 . S
H825 C822 0.929 . S
S826 N827 1.613 1_556 S
S826 N828 1.610 1_556 S
N827 S826 1.613 1_554 S
N827 C830 1.350 . S
N828 S826 1.610 1_554 S
N828 C829 1.351 . S
C829 C823 1.428 . S
C829 N828 1.351 . S
C829 C830 1.434 . S
C830 C821 1.429 . S
C830 N827 1.350 . S
C830 C829 1.434 . S
C831 C832 1.369 . S
C831 C833 1.419 . S
C831 H835 0.930 . S
C832 C831 1.369 . S
C832 C841 1.429 . S
C833 C831 1.419 . S
C833 C834 1.363 . S
C833 H836 0.929 . S
C834 C833 1.363 . S
C834 C840 1.428 . S
H835 C831 0.930 . S
H836 C833 0.929 . S
S837 N838 1.613 . S
S837 N839 1.610 . S
N838 S837 1.613 . S
N838 C841 1.350 . S
N839 S837 1.610 . S
N839 C840 1.351 . S
C840 C834 1.428 . S
C840 N839 1.351 . S
C840 C841 1.434 . S
C841 C832 1.429 . S
C841 N838 1.350 . S
C841 C840 1.434 . S
C842 C843 1.369 . S
C842 C844 1.419 . S
C842 H846 0.930 . S
C843 C842 1.369 . S
C843 C852 1.429 . S
C844 C842 1.419 . S
C844 C845 1.363 . S
C844 H847 0.929 . S
C845 C844 1.363 . S
C845 C851 1.428 . S
H846 C842 0.930 . S
H847 C844 0.929 . S
S848 N849 1.613 . S
S848 N850 1.610 . S
N849 S848 1.613 . S
N849 C852 1.350 . S
N850 S848 1.610 . S
N850 C851 1.351 . S
C851 C845 1.428 . S
C851 N850 1.351 . S
C851 C852 1.434 . S
C852 C843 1.429 . S
C852 N849 1.350 . S
C852 C851 1.434 . S
C853 C854 1.369 . S
C853 C855 1.419 . S
C853 H857 0.930 . S
C854 C853 1.369 . S
C854 C863 1.429 . S
C855 C853 1.419 . S
C855 C856 1.363 . S
C855 H858 0.929 . S
C856 C855 1.363 . S
C856 C862 1.428 . S
H857 C853 0.930 . S
H858 C855 0.929 . S
S859 N860 1.613 . S
S859 N861 1.610 . S
N860 S859 1.613 . S
N860 C863 1.350 . S
N861 S859 1.610 . S
N861 C862 1.351 . S
C862 C856 1.428 . S
C862 N861 1.351 . S
C862 C863 1.434 . S
C863 C854 1.429 . S
C863 N860 1.350 . S
C863 C862 1.434 . S
C864 C865 1.369 . S
C864 C866 1.419 . S
C864 H868 0.930 . S
C865 C864 1.369 . S
C865 C874 1.429 . S
C866 C864 1.419 . S
C866 C867 1.363 . S
C866 H869 0.929 . S
C867 C866 1.363 . S
C867 C873 1.428 . S
H868 C864 0.930 . S
H869 C866 0.929 . S
S870 N871 1.613 . S
S870 N872 1.610 1_655 S
N871 S870 1.613 . S
N871 C874 1.350 . S
N872 S870 1.610 1_455 S
N872 C873 1.351 1_455 S
C873 C867 1.428 . S
C873 N872 1.351 1_655 S
C873 C874 1.434 . S
C874 C865 1.429 . S
C874 N871 1.350 . S
C874 C873 1.434 . S
C875 C876 1.369 . S
C875 C877 1.419 . S
C875 H879 0.930 . S
C876 C875 1.369 . S
C876 C885 1.429 . S
C877 C875 1.419 . S
C877 C878 1.363 . S
C877 H880 0.929 . S
C878 C877 1.363 . S
C878 C884 1.428 . S
H879 C875 0.930 . S
H880 C877 0.929 . S
S881 N882 1.613 . S
S881 N883 1.610 . S
N882 S881 1.613 . S
N882 C885 1.350 . S
N883 S881 1.610 . S
N883 C884 1.351 . S
C884 C878 1.428 . S
C884 N883 1.351 . S
C884 C885 1.434 . S
C885 C876 1.429 . S
C885 N882 1.350 . S
C885 C884 1.434 . S
C886 C887 1.369 . S
C886 C888 1.419 . S
C886 H890 0.930 . S
C887 C886 1.369 . S
C887 C896 1.429 . S
C888 C886 1.419 . S
C888 C889 1.363 . S
C888 H891 0.929 . S
C889 C888 1.363 . S
C889 C895 1.428 . S
H890 C886 0.930 . S
H891 C888 0.929 . S
S892 N893 1.613 . S
S892 N894 1.610 . S
N893 S892 1.613 . S
N893 C896 1.350 . S
N894 S892 1.610 . S
N894 C895 1.351 . S
C895 C889 1.428 . S
C895 N894 1.351 . S
C895 C896 1.434 . S
C896 C887 1.429 . S
C896 N893 1.350 . S
C896 C895 1.434 . S
C897 C898 1.369 . S
C897 C899 1.419 . S
C897 H901 0.930 . S
C898 C897 1.369 . S
C898 C907 1.429 . S
C899 C897 1.419 . S
C899 C900 1.363 . S
C899 H902 0.929 . S
C900 C899 1.363 . S
C900 C906 1.428 . S
H901 C897 0.930 . S
H902 C899 0.929 . S
S903 N904 1.613 . S
S903 N905 1.610 . S
N904 S903 1.613 . S
N904 C907 1.350 . S
N905 S903 1.610 . S
N905 C906 1.351 . S
C906 C900 1.428 . S
C906 N905 1.351 . S
C906 C907 1.434 . S
C907 C898 1.429 . S
C907 N904 1.350 . S
C907 C906 1.434 . S
C908 C909 1.369 . S
C908 C910 1.419 . S
C908 H912 0.930 . S
C909 C908 1.369 . S
C909 C918 1.429 . S
C910 C908 1.419 . S
C910 C911 1.363 . S
C910 H913 0.929 . S
C911 C910 1.363 . S
C911 C917 1.428 . S
H912 C908 0.930 . S
H913 C910 0.929 . S
S914 N915 1.613 . S
S914 N916 1.610 . S
N915 S914 1.613 . S
N915 C918 1.350 . S
N916 S914 1.610 . S
N916 C917 1.351 . S
C917 C911 1.428 . S
C917 N916 1.351 . S
C917 C918 1.434 . S
C918 C909 1.429 . S
C918 N915 1.350 . S
C918 C917 1.434 . S
C919 C920 1.369 . S
C919 C921 1.419 . S
C919 H923 0.930 . S
C920 C919 1.369 . S
C920 C929 1.429 . S
C921 C919 1.419 . S
C921 C922 1.363 . S
C921 H924 0.929 . S
C922 C921 1.363 . S
C922 C928 1.428 . S
H923 C919 0.930 . S
H924 C921 0.929 . S
S925 N926 1.613 . S
S925 N927 1.610 . S
N926 S925 1.613 . S
N926 C929 1.350 . S
N927 S925 1.610 . S
N927 C928 1.351 . S
C928 C922 1.428 . S
C928 N927 1.351 . S
C928 C929 1.434 . S
C929 C920 1.429 . S
C929 N926 1.350 . S
C929 C928 1.434 . S
C930 C931 1.369 . S
C930 C932 1.419 . S
C930 H934 0.930 . S
C931 C930 1.369 . S
C931 C940 1.429 . S
C932 C930 1.419 . S
C932 C933 1.363 . S
C932 H935 0.929 . S
C933 C932 1.363 . S
C933 C939 1.428 . S
H934 C930 0.930 . S
H935 C932 0.929 . S
S936 N937 1.613 . S
S936 N938 1.610 . S
N937 S936 1.613 . S
N937 C940 1.350 . S
N938 S936 1.610 . S
N938 C939 1.351 . S
C939 C933 1.428 . S
C939 N938 1.351 . S
C939 C940 1.434 . S
C940 C931 1.429 . S
C940 N937 1.350 . S
C940 C939 1.434 . S
C941 C942 1.369 . S
C941 C943 1.419 . S
C941 H945 0.930 . S
C942 C941 1.369 . S
C942 C951 1.429 . S
C943 C941 1.419 . S
C943 C944 1.363 . S
C943 H946 0.929 . S
C944 C943 1.363 . S
C944 C950 1.428 . S
H945 C941 0.930 . S
H946 C943 0.929 . S
S947 N948 1.613 1_554 S
S947 N949 1.610 1_554 S
N948 S947 1.613 1_556 S
N948 C951 1.350 . S
N949 S947 1.610 1_556 S
N949 C950 1.351 . S
C950 C944 1.428 . S
C950 N949 1.351 . S
C950 C951 1.434 . S
C951 C942 1.429 . S
C951 N948 1.350 . S
C951 C950 1.434 . S
C952 C953 1.369 . S
C952 C954 1.419 . S
C952 H956 0.930 . S
C953 C952 1.369 . S
C953 C962 1.429 . S
C954 C952 1.419 . S
C954 C955 1.363 . S
C954 H957 0.929 . S
C955 C954 1.363 . S
C955 C961 1.428 . S
H956 C952 0.930 . S
H957 C954 0.929 . S
S958 N959 1.613 . S
S958 N960 1.610 . S
N959 S958 1.613 . S
N959 C962 1.350 . S
N960 S958 1.610 . S
N960 C961 1.351 . S
C961 C955 1.428 . S
C961 N960 1.351 . S
C961 C962 1.434 . S
C962 C953 1.429 . S
C962 N959 1.350 . S
C962 C961 1.434 . S
C963 C964 1.369 . S
C963 C965 1.419 . S
C963 H967 0.930 . S
C964 C963 1.369 . S
C964 C973 1.429 . S
C965 C963 1.419 . S
C965 C966 1.363 . S
C965 H968 0.929 . S
C966 C965 1.363 . S
C966 C972 1.428 . S
H967 C963 0.930 . S
H968 C965 0.929 . S
S969 N970 1.613 . S
S969 N971 1.610 . S
N970 S969 1.613 . S
N970 C973 1.350 . S
N971 S969 1.610 . S
N971 C972 1.351 . S
C972 C966 1.428 . S
C972 N971 1.351 . S
C972 C973 1.434 . S
C973 C964 1.429 . S
C973 N970 1.350 . S
C973 C972 1.434 . S
C974 C975 1.369 . S
C974 C976 1.419 . S
C974 H978 0.930 . S
C975 C974 1.369 . S
C975 C984 1.429 . S
C976 C974 1.419 . S
C976 C977 1.363 . S
C976 H979 0.929 . S
C977 C976 1.363 . S
C977 C983 1.428 . S
H978 C974 0.930 . S
H979 C976 0.929 . S
S980 N981 1.613 . S
S980 N982 1.610 . S
N981 S980 1.613 . S
N981 C984 1.350 . S
N982 S980 1.610 . S
N982 C983 1.351 . S
C983 C977 1.428 . S
C983 N982 1.351 . S
C983 C984 1.434 . S
C984 C975 1.429 . S
C984 N981 1.350 . S
C984 C983 1.434 . S
C985 C986 1.369 . S
C985 C987 1.419 1_554 S
C985 H989 0.930 . S
C986 C985 1.369 . S
C986 C995 1.429 1_455 S
C987 C985 1.419 1_556 S
C987 C988 1.363 1_455 S
C987 H990 0.929 . S
C988 C987 1.363 1_655 S
C988 C994 1.428 . S
H989 C985 0.930 . S
H990 C987 0.929 . S
S991 N992 1.613 . S
S991 N993 1.610 1_554 S
N992 S991 1.613 . S
N992 C995 1.350 . S
N993 S991 1.610 1_556 S
N993 C994 1.351 . S
C994 C988 1.428 . S
C994 N993 1.351 . S
C994 C995 1.434 1_556 S
C995 C986 1.429 1_655 S
C995 N992 1.350 . S
C995 C994 1.434 1_554 S
C996 C997 1.369 . S
C996 C998 1.419 . S
C996 H1000 0.930 . S
C997 C996 1.369 . S
C997 C1006 1.429 . S
C998 C996 1.419 . S
C998 C999 1.363 . S
C998 H1001 0.929 . S
C999 C998 1.363 . S
C999 C1005 1.428 . S
H1000 C996 0.930 . S
H1001 C998 0.929 . S
S1002 N1003 1.613 . S
S1002 N1004 1.610 . S
N1003 S1002 1.613 . S
N1003 C1006 1.350 . S
N1004 S1002 1.610 . S
N1004 C1005 1.351 . S
C1005 C999 1.428 . S
C1005 N1004 1.351 . S
C1005 C1006 1.434 . S
C1006 C997 1.429 . S
C1006 N1003 1.350 . S
C1006 C1005 1.434 . S
C1007 C1008 1.369 . S
C1007 C1009 1.419 . S
C1007 H1011 0.930 . S
C1008 C1007 1.369 . S
C1008 C1017 1.429 . S
C1009 C1007 1.419 . S
C1009 C1010 1.363 . S
C1009 H1012 0.929 . S
C1010 C1009 1.363 . S
C1010 C1016 1.428 . S
H1011 C1007 0.930 . S
H1012 C1009 0.929 . S
S1013 N1014 1.613 . S
S1013 N1015 1.610 . S
N1014 S1013 1.613 . S
N1014 C1017 1.350 . S
N1015 S1013 1.610 . S
N1015 C1016 1.351 . S
C1016 C1010 1.428 . S
C1016 N1015 1.351 . S
C1016 C1017 1.434 . S
C1017 C1008 1.429 . S
C1017 N1014 1.350 . S
C1017 C1016 1.434 . S
C1018 C1019 1.369 1_655 S
C1018 C1020 1.419 1_545 S
C1018 H1022 0.930 . S
C1019 C1018 1.369 1_455 S
C1019 C1028 1.429 1_556 S
C1020 C1018 1.419 1_565 S
C1020 C1021 1.363 1_556 S
C1020 H1023 0.929 . S
C1021 C1020 1.363 1_554 S
C1021 C1027 1.428 1_655 S
H1022 C1018 0.930 . S
H1023 C1020 0.929 . S
S1024 N1025 1.613 1_565 S
S1024 N1026 1.610 . S
N1025 S1024 1.613 1_545 S
N1025 C1028 1.350 . S
N1026 S1024 1.610 . S
N1026 C1027 1.351 . S
C1027 C1021 1.428 1_455 S
C1027 N1026 1.351 . S
C1027 C1028 1.434 1_565 S
C1028 C1019 1.429 1_554 S
C1028 N1025 1.350 . S
C1028 C1027 1.434 1_545 S
C1029 C1030 1.369 . S
C1029 C1031 1.419 1_545 S
C1029 H1033 0.930 . S
C1030 C1029 1.369 . S
C1030 C1039 1.429 . S
C1031 C1029 1.419 1_565 S
C1031 C1032 1.363 . S
C1031 H1034 0.929 . S
C1032 C1031 1.363 . S
C1032 C1038 1.428 . S
H1033 C1029 0.930 . S
H1034 C1031 0.929 . S
S1035 N1036 1.613 1_565 S
S1035 N1037 1.610 . S
N1036 S1035 1.613 1_545 S
N1036 C1039 1.350 . S
N1037 S1035 1.610 . S
N1037 C1038 1.351 . S
C1038 C1032 1.428 . S
C1038 N1037 1.351 . S
C1038 C1039 1.434 1_565 S
C1039 C1030 1.429 . S
C1039 N1036 1.350 . S
C1039 C1038 1.434 1_545 S
C513 N13 0.575 . S
C515 N338 0.575 . S
C524 N50 0.590 . S
C526 N370 0.568 . S
C535 N82 0.587 . S
C537 N269 0.571 . S
C546 N114 0.592 1_455 S
C548 N306 0.566 1_655 S
C557 N146 0.566 . S
C559 N461 0.581 . S
C568 N178 0.561 . S
C570 N498 0.587 . S
C579 N210 0.561 . S
C581 N402 0.588 . S
C590 N242 0.562 1_655 S
C592 N434 0.586 1_455 S
C601 C317 1.080 . S
C603 N18 1.138 . S
C612 C349 1.090 . S
C614 N45 1.142 . S
C623 C381 1.089 . S
C625 N77 1.135 . S
C634 C260 1.096 . S
C636 N109 1.140 . S
C645 N141 1.143 . S
C647 C445 1.088 . S
C656 C452 1.086 . S
C658 N173 1.134 . S
C667 C509 1.083 . S
C669 N205 1.140 . S
C678 C413 1.087 . S
C680 N237 1.134 . S
C689 C61 1.082 . S
C691 N274 1.135 . S
C700 N301 1.134 . S
C702 C93 1.083 . S
C711 N333 1.136 . S
C713 C125 1.093 . S
C722 N365 1.137 . S
C724 C4 1.093 . S
C733 N397 1.134 . S
C735 C189 1.090 . S
C744 C221 1.087 . S
C746 N429 1.142 . S
C755 C253 1.095 . S
C757 N466 1.142 . S
C766 N493 1.133 . S
C768 C157 1.084 . S
C777 C29 2.081 . S
C779 C482 2.085 . S
C788 C36 2.081 . S
C790 C130 2.084 . S
C799 C418 2.089 1_455 S
C801 C68 2.077 . S
C810 C194 2.088 . S
C812 C100 2.076 . S
C821 C132 2.076 . S
C823 C354 2.088 . S
C832 C164 2.076 . S
C834 C6 2.086 . S
C843 C290 2.089 1_655 S
C845 C196 2.077 . S
C854 C66 2.083 . S
C856 C228 2.079 . S
C865 C285 2.077 . S
C867 C226 2.086 1_655 S
C876 C292 2.080 . S
C878 C386 2.084 . S
C887 C162 2.085 . S
C889 C324 2.080 . S
C898 C454 2.088 . S
C900 C356 2.077 . S
C909 C388 2.078 . S
C911 C98 2.085 1_455 S
C920 C420 2.076 . S
C922 C262 2.086 . S
C931 C477 2.080 . S
C933 C34 2.084 . S
C942 C322 2.083 . S
C944 C484 2.080 . S
C953 C2 2.314 . S
C955 C390 2.315 . S
C964 C38 2.316 . S
C966 C166 2.314 . S
C975 C70 2.316 . S
C977 C450 2.314 . S
C986 C230 2.314 . S
C988 C102 2.315 . S
C997 C134 2.314 . S
C999 C258 2.315 . S
C1008 C326 2.315 . S
C1010 C198 2.315 . S
C1019 C294 2.315 . S
C1021 C422 2.314 . S
C1030 C486 2.316 . S
C1032 C358 2.314 . S
