# Generated by pormake.
# Topology wme, (6)-cn, num edge types: 1
# Building blocks:
#     Node 0, Type 0, BuildingBlock: BETDAH_clean_sbu_0, # of connection points: 6
#     Node 1, Type 0, BuildingBlock: BETDAH_clean_sbu_0, # of connection points: 6
#     Node 2, Type 0, BuildingBlock: BETDAH_clean_sbu_0, # of connection points: 6
#     Node 3, Type 0, BuildingBlock: BETDAH_clean_sbu_0, # of connection points: 6
#     Node 4, Type 0, BuildingBlock: BETDAH_clean_sbu_0, # of connection points: 6
#     Node 5, Type 0, BuildingBlock: BETDAH_clean_sbu_0, # of connection points: 6
#     Node 6, Type 0, BuildingBlock: BETDAH_clean_sbu_0, # of connection points: 6
#     Node 7, Type 0, BuildingBlock: BETDAH_clean_sbu_0, # of connection points: 6
#     Node 8, Type 0, BuildingBlock: BETDAH_clean_sbu_0, # of connection points: 6
#     Node 9, Type 0, BuildingBlock: BETDAH_clean_sbu_0, # of connection points: 6
#     Node 10, Type 0, BuildingBlock: BETDAH_clean_sbu_0, # of connection points: 6
#     Node 11, Type 0, BuildingBlock: BETDAH_clean_sbu_0, # of connection points: 6
#     Edge 12, Type (0, 0), BuildingBlock: UVAHIK_clean_linker_0, # of connection points: 2
#     Edge 13, Type (0, 0), BuildingBlock: UVAHIK_clean_linker_0, # of connection points: 2
#     Edge 14, Type (0, 0), BuildingBlock: UVAHIK_clean_linker_0, # of connection points: 2
#     Edge 15, Type (0, 0), BuildingBlock: UVAHIK_clean_linker_0, # of connection points: 2
#     Edge 16, Type (0, 0), BuildingBlock: UVAHIK_clean_linker_0, # of connection points: 2
#     Edge 17, Type (0, 0), BuildingBlock: UVAHIK_clean_linker_0, # of connection points: 2
#     Edge 18, Type (0, 0), BuildingBlock: UVAHIK_clean_linker_0, # of connection points: 2
#     Edge 19, Type (0, 0), BuildingBlock: UVAHIK_clean_linker_0, # of connection points: 2
#     Edge 20, Type (0, 0), BuildingBlock: UVAHIK_clean_linker_0, # of connection points: 2
#     Edge 21, Type (0, 0), BuildingBlock: UVAHIK_clean_linker_0, # of connection points: 2
#     Edge 22, Type (0, 0), BuildingBlock: UVAHIK_clean_linker_0, # of connection points: 2
#     Edge 23, Type (0, 0), BuildingBlock: UVAHIK_clean_linker_0, # of connection points: 2
#     Edge 24, Type (0, 0), BuildingBlock: UVAHIK_clean_linker_0, # of connection points: 2
#     Edge 25, Type (0, 0), BuildingBlock: UVAHIK_clean_linker_0, # of connection points: 2
#     Edge 26, Type (0, 0), BuildingBlock: UVAHIK_clean_linker_0, # of connection points: 2
#     Edge 27, Type (0, 0), BuildingBlock: UVAHIK_clean_linker_0, # of connection points: 2
#     Edge 28, Type (0, 0), BuildingBlock: UVAHIK_clean_linker_0, # of connection points: 2
#     Edge 29, Type (0, 0), BuildingBlock: UVAHIK_clean_linker_0, # of connection points: 2
#     Edge 30, Type (0, 0), BuildingBlock: UVAHIK_clean_linker_0, # of connection points: 2
#     Edge 31, Type (0, 0), BuildingBlock: UVAHIK_clean_linker_0, # of connection points: 2
#     Edge 32, Type (0, 0), BuildingBlock: UVAHIK_clean_linker_0, # of connection points: 2
#     Edge 33, Type (0, 0), BuildingBlock: UVAHIK_clean_linker_0, # of connection points: 2
#     Edge 34, Type (0, 0), BuildingBlock: UVAHIK_clean_linker_0, # of connection points: 2
#     Edge 35, Type (0, 0), BuildingBlock: UVAHIK_clean_linker_0, # of connection points: 2
#     Edge 36, Type (0, 0), BuildingBlock: UVAHIK_clean_linker_0, # of connection points: 2
#     Edge 37, Type (0, 0), BuildingBlock: UVAHIK_clean_linker_0, # of connection points: 2
#     Edge 38, Type (0, 0), BuildingBlock: UVAHIK_clean_linker_0, # of connection points: 2
#     Edge 39, Type (0, 0), BuildingBlock: UVAHIK_clean_linker_0, # of connection points: 2
#     Edge 40, Type (0, 0), BuildingBlock: UVAHIK_clean_linker_0, # of connection points: 2
#     Edge 41, Type (0, 0), BuildingBlock: UVAHIK_clean_linker_0, # of connection points: 2
#     Edge 42, Type (0, 0), BuildingBlock: UVAHIK_clean_linker_0, # of connection points: 2
#     Edge 43, Type (0, 0), BuildingBlock: UVAHIK_clean_linker_0, # of connection points: 2
#     Edge 44, Type (0, 0), BuildingBlock: UVAHIK_clean_linker_0, # of connection points: 2
#     Edge 45, Type (0, 0), BuildingBlock: UVAHIK_clean_linker_0, # of connection points: 2
#     Edge 46, Type (0, 0), BuildingBlock: UVAHIK_clean_linker_0, # of connection points: 2
#     Edge 47, Type (0, 0), BuildingBlock: UVAHIK_clean_linker_0, # of connection points: 2
# Relax obj value: 0.099
# Max RMSD: 0.196
# Mean RMSD: 0.196
data_MOF--net-wme--node1-BETDAH_clean_sbu_0--edge1-UVAHIK_clean_linker_0
_symmetry_space_group_name_H-M    P1
_symmetry_Int_Tables_number       1
_symmetry_cell_setting            triclinic
loop_
_symmetry_equiv_pos_as_xyz
'x, y, z'
_cell_length_a     49.364309
_cell_length_b     49.336932
_cell_length_c     67.471881
_cell_angle_alpha  89.972639
_cell_angle_beta   89.99138
_cell_angle_gamma 120.06245
loop_
_atom_site_label
_atom_site_type_symbol
_atom_site_fract_x
_atom_site_fract_y
_atom_site_fract_z
_atom_type_partial_charge
Ho0 Ho 0.21073 0.36097 0.12637 0.0
Ho1 Ho 0.24331 0.32011 0.13592 0.0
C2 C 0.28497 0.39512 0.13663 0.0
C3 C 0.18902 0.39862 0.12215 0.0
C4 C 0.19044 0.42865 0.12636 0.0
C5 C 0.19158 0.43956 0.14576 0.0
C6 C 0.18762 0.46544 0.14915 0.0
C7 C 0.1821 0.48049 0.13322 0.0
C8 C 0.18233 0.47024 0.11383 0.0
C9 C 0.18648 0.44465 0.11046 0.0
C10 C 0.22447 0.33408 0.09575 0.0
C11 C 0.16678 0.28823 0.13525 0.0
C12 C 0.26202 0.28045 0.1302 0.0
C13 C 0.24862 0.24669 0.13439 0.0
C14 C 0.21817 0.22469 0.12815 0.0
C15 C 0.20625 0.19271 0.13127 0.0
C16 C 0.22432 0.18188 0.14088 0.0
C17 C 0.25449 0.20404 0.14757 0.0
C18 C 0.26654 0.23609 0.14427 0.0
C19 C 0.22686 0.33756 0.16983 0.0
O20 O 0.25872 0.3964 0.13721 0.0
O21 O 0.28537 0.36866 0.13349 0.0
O22 O 0.21007 0.39869 0.11029 0.0
O23 O 0.18017 0.3777 0.13635 0.0
O24 O 0.19927 0.33606 0.09648 0.0
O25 O 0.24062 0.34668 0.11087 0.0
O26 O 0.19134 0.28415 0.13336 0.0
O27 O 0.16926 0.31614 0.13526 0.0
O28 O 0.27103 0.29945 0.14548 0.0
O29 O 0.24726 0.28743 0.11682 0.0
O30 O 0.24164 0.32195 0.16937 0.0
O31 O 0.2218 0.34219 0.15222 0.0
H32 H 0.19442 0.4275 0.15831 0.0
H33 H 0.18752 0.47281 0.16425 0.0
H34 H 0.17867 0.48166 0.10124 0.0
H35 H 0.18534 0.43655 0.09539 0.0
H36 H 0.20363 0.23208 0.12055 0.0
H37 H 0.18314 0.17646 0.12564 0.0
H38 H 0.2689 0.19668 0.15535 0.0
H39 H 0.28998 0.25259 0.14931 0.0
Ho40 Ho 0.85889 0.19956 0.62608 0.0
Ho41 Ho 0.9281 0.23407 0.63608 0.0
C42 C 0.89473 0.27461 0.63267 0.0
C43 C 0.79862 0.17387 0.62279 0.0
C44 C 0.77058 0.17733 0.62396 0.0
C45 C 0.76215 0.18681 0.64143 0.0
C46 C 0.73284 0.18478 0.64299 0.0
C47 C 0.71137 0.17299 0.62717 0.0
C48 C 0.72052 0.16482 0.60946 0.0
C49 C 0.74974 0.16694 0.6079 0.0
C50 C 0.89933 0.21502 0.59516 0.0
C51 C 0.88955 0.15759 0.63205 0.0
C52 C 0.9876 0.25428 0.63694 0.0
C53 C 1.00744 0.2396 0.63709 0.0
C54 C 1.00752 0.22121 0.62117 0.0
C55 C 0.02663 0.20773 0.62167 0.0
C56 C 0.04601 0.21225 0.63811 0.0
C57 C 0.04555 0.23038 0.65407 0.0
C58 C 0.02664 0.244 0.65351 0.0
C59 C 0.89048 0.22245 0.6676 0.0
O60 O 0.86803 0.24771 0.63398 0.0
O61 O 0.92192 0.27563 0.63044 0.0
O62 O 0.81793 0.1871 0.60798 0.0
O63 O 0.81286 0.17443 0.63926 0.0
O64 O 0.8735 0.18839 0.59649 0.0
O65 O 0.90173 0.23163 0.60982 0.0
O66 O 0.91707 0.18375 0.63104 0.0
O67 O 0.86325 0.15816 0.63287 0.0
O68 O 0.97087 0.25022 0.65286 0.0
O69 O 0.97217 0.25185 0.62065 0.0
O70 O 0.91731 0.24777 0.6652 0.0
O71 O 0.88541 0.20354 0.65348 0.0
H72 H 0.77767 0.19473 0.65412 0.0
H73 H 0.72648 0.19116 0.65686 0.0
H74 H 0.70481 0.15621 0.59687 0.0
H75 H 0.75559 0.15931 0.59431 0.0
H76 H 0.99296 0.21731 0.60826 0.0
H77 H 0.02662 0.19425 0.60901 0.0
H78 H 0.05968 0.23393 0.66714 0.0
H79 H 0.02695 0.25795 0.666 0.0
Ho80 Ho 0.67024 0.8553 0.12629 0.0
Ho81 Ho 0.7059 0.92929 0.13549 0.0
C82 C 0.63058 0.89095 0.13418 0.0
C83 C 0.63627 0.79518 0.12275 0.0
C84 C 0.606 0.76609 0.12553 0.0
C85 C 0.59064 0.75729 0.14394 0.0
C86 C 0.56436 0.72737 0.14648 0.0
C87 C 0.55333 0.70575 0.13072 0.0
C88 C 0.56812 0.71521 0.11218 0.0
C89 C 0.59411 0.74501 0.10964 0.0
C90 C 0.69632 0.89609 0.09565 0.0
C91 C 0.7429 0.88938 0.13653 0.0
C92 C 0.7425 0.9884 0.12919 0.0
C93 C 0.77529 0.01109 0.13398 0.0
C94 C 0.78868 0.04189 0.12701 0.0
C95 C 0.82075 0.0627 0.12932 0.0
C96 C 0.84009 0.05301 0.13855 0.0
C97 C 0.82636 0.02222 0.1459 0.0
C98 C 0.79423 1.00145 0.14365 0.0
C99 C 0.68991 0.89542 0.16946 0.0
O100 O 0.63143 0.86445 0.13465 0.0
O101 O 0.65611 0.91902 0.13208 0.0
O102 O 0.63806 0.81483 0.10904 0.0
O103 O 0.65354 0.80901 0.13836 0.0
O104 O 0.69646 0.86991 0.09692 0.0
O105 O 0.68213 0.89867 0.1103 0.0
O106 O 0.74465 0.917 0.1342 0.0
O107 O 0.71619 0.86253 0.1362 0.0
O108 O 0.72261 0.97753 0.14401 0.0
O109 O 0.73897 0.96649 0.11678 0.0
O110 O 0.70303 0.92577 0.16903 0.0
O111 O 0.68664 0.88595 0.15186 0.0
H112 H 0.59944 0.77309 0.15648 0.0
H113 H 0.55348 0.72073 0.16096 0.0
H114 H 0.55988 0.69933 0.09966 0.0
H115 H 0.60565 0.75122 0.09533 0.0
H116 H 0.7745 0.04959 0.11926 0.0
H117 H 0.83057 0.08607 0.12323 0.0
H118 H 0.84047 0.01409 0.15326 0.0
H119 H 0.7843 0.97764 0.149 0.0
Ho120 Ho 0.82516 0.66368 0.62849 0.0
Ho121 Ho 0.78848 0.69732 0.63473 0.0
C122 C 0.74935 0.6226 0.63343 0.0
C123 C 0.85227 0.63035 0.63034 0.0
C124 C 0.84884 0.5989 0.62828 0.0
C125 C 0.8348 0.57614 0.64324 0.0
C126 C 0.83688 0.54886 0.64279 0.0
C127 C 0.8532 0.54386 0.62745 0.0
C128 C 0.86596 0.56599 0.61205 0.0
C129 C 0.86389 0.59321 0.61251 0.0
C130 C 0.80774 0.68213 0.59528 0.0
C131 C 0.86498 0.73695 0.63109 0.0
C132 C 0.76649 0.73497 0.63173 0.0
C133 C 0.78047 0.76924 0.63123 0.0
C134 C 0.76484 0.78237 0.62137 0.0
C135 C 0.77785 0.81486 0.62059 0.0
C136 C 0.80679 0.83491 0.62973 0.0
C137 C 0.82262 0.8216 0.63939 0.0
C138 C 0.80959 0.78905 0.64012 0.0
C139 C 0.8027 0.67778 0.66829 0.0
O140 O 0.7766 0.62351 0.63455 0.0
O141 O 0.74761 0.64839 0.63097 0.0
O142 O 0.85128 0.6446 0.61424 0.0
O143 O 0.8392 0.6357 0.64557 0.0
O144 O 0.83462 0.68367 0.59717 0.0
O145 O 0.79171 0.67011 0.61054 0.0
O146 O 0.83838 0.73709 0.62865 0.0
O147 O 0.86507 0.71083 0.6348 0.0
O148 O 0.76856 0.7229 0.64853 0.0
O149 O 0.77253 0.72263 0.61643 0.0
O150 O 0.7767 0.67772 0.66538 0.0
O151 O 0.82078 0.68991 0.65359 0.0
H152 H 0.82332 0.57994 0.65574 0.0
H153 H 0.82698 0.53244 0.65496 0.0
H154 H 0.87822 0.56262 0.59984 0.0
H155 H 0.87522 0.61044 0.60088 0.0
H156 H 0.74254 0.76746 0.61422 0.0
H157 H 0.76529 0.82426 0.61268 0.0
H158 H 0.8448 0.83626 0.64671 0.0
H159 H 0.82215 0.77935 0.64771 0.0
Ho160 Ho 0.16846 0.81501 0.12728 0.0
Ho161 Ho 0.09494 0.78169 0.13662 0.0
C162 C 0.12942 0.74156 0.13936 0.0
C163 C 0.2281 0.83664 0.12394 0.0
C164 C 0.25644 0.83597 0.13058 0.0
C165 C 0.27835 0.86003 0.14283 0.0
C166 C 0.30794 0.86354 0.14611 0.0
C167 C 0.31647 0.84319 0.13711 0.0
C168 C 0.29402 0.81822 0.1256 0.0
C169 C 0.2644 0.81473 0.1223 0.0
C170 C 0.12777 0.79896 0.09637 0.0
C171 C 0.13876 0.85838 0.13502 0.0
C172 C 0.03646 0.76155 0.12986 0.0
C173 C 0.01531 0.77368 0.13421 0.0
C174 C 0.9854 0.75929 0.12575 0.0
C175 C 0.9665 0.77281 0.12775 0.0
C176 C 0.97727 0.80111 0.13818 0.0
C177 C 1.00706 0.81503 0.14706 0.0
C178 C 0.02593 0.80146 0.14506 0.0
C179 C 0.12836 0.80025 0.17068 0.0
O180 O 0.15651 0.76829 0.14014 0.0
O181 O 0.10242 0.74022 0.1352 0.0
O182 O 0.20705 0.81321 0.11339 0.0
O183 O 0.21587 0.84852 0.13596 0.0
O184 O 0.15496 0.82425 0.09664 0.0
O185 O 0.12449 0.78382 0.11194 0.0
O186 O 0.11025 0.83341 0.13374 0.0
O187 O 0.16449 0.85647 0.13495 0.0
O188 O 0.04632 0.75215 0.14502 0.0
O189 O 0.05884 0.77865 0.11732 0.0
O190 O 0.09793 0.78504 0.17002 0.0
O191 O 0.13847 0.80449 0.15315 0.0
H192 H 0.27315 0.87705 0.14924 0.0
H193 H 0.32443 0.88273 0.15531 0.0
H194 H 0.29983 0.80227 0.11828 0.0
H195 H 0.24832 0.79621 0.11254 0.0
H196 H 0.97694 0.73798 0.11719 0.0
H197 H 0.94352 0.76121 0.12099 0.0
H198 H 0.01624 0.83697 0.15501 0.0
H199 H 0.04917 0.81312 0.15148 0.0
Ho200 Ho 0.35864 0.16307 0.62874 0.0
Ho201 Ho 0.32522 0.09371 0.63892 0.0
C202 C 0.39912 0.12875 0.63544 0.0
C203 C 0.39289 0.22335 0.62479 0.0
C204 C 0.42306 0.25194 0.62934 0.0
C205 C 0.42294 0.27493 0.64155 0.0
C206 C 0.44982 0.30427 0.64367 0.0
C207 C 0.47753 0.31149 0.63354 0.0
C208 C 0.47805 0.28803 0.62194 0.0
C209 C 0.45106 0.25859 0.61979 0.0
C210 C 0.33144 0.1227 0.59801 0.0
C211 C 0.28627 0.13123 0.63634 0.0
C212 C 0.28657 0.0339 0.64 0.0
C213 C 0.25237 0.01397 0.63784 0.0
C214 C 0.23476 0.02451 0.62741 0.0
C215 C 0.20221 1.00558 0.62585 0.0
C216 C 0.18671 0.97563 0.63455 0.0
C217 C 0.20451 0.96523 0.64499 0.0
C218 C 0.237 0.98426 0.64665 0.0
C219 C 0.35245 0.13167 0.67025 0.0
O220 O 0.39804 0.15491 0.63731 0.0
O221 O 0.37338 0.10121 0.63295 0.0
O222 O 0.39254 0.20331 0.61195 0.0
O223 O 0.37331 0.20976 0.63943 0.0
O224 O 0.33131 0.14877 0.59976 0.0
O225 O 0.3466 0.12015 0.61207 0.0
O226 O 0.28543 0.10407 0.63457 0.0
O227 O 0.3129 0.15791 0.63687 0.0
O228 O 0.29609 0.05153 0.65581 0.0
O229 O 0.30198 0.04883 0.62411 0.0
O230 O 0.35092 0.10485 0.66773 0.0
O231 O 0.33801 0.1364 0.65639 0.0
H232 H 0.40165 0.27061 0.64894 0.0
H233 H 0.4487 0.32156 0.65299 0.0
H234 H 0.49893 0.29285 0.61383 0.0
H235 H 0.45188 0.24151 0.61011 0.0
H236 H 0.24615 0.0473 0.62038 0.0
H237 H 0.18927 0.01415 0.61753 0.0
H238 H 0.19327 0.94245 0.65206 0.0
H239 H 0.25015 0.97579 0.65486 0.0
Ho240 Ho 0.66388 0.81682 0.41219 0.0
Ho241 Ho 0.70439 0.78487 0.39985 0.0
C242 C 0.62941 0.74442 0.39768 0.0
C243 C 0.62673 0.83863 0.41838 0.0
C244 C 0.59736 0.83866 0.41447 0.0
C245 C 0.58568 0.83693 0.39523 0.0
C246 C 0.56031 0.84181 0.39211 0.0
C247 C 0.54663 0.84888 0.40814 0.0
C248 C 0.5577 0.84933 0.42738 0.0
C249 C 0.58273 0.84422 0.43049 0.0
C250 C 0.6898 0.79923 0.44136 0.0
C251 C 0.7371 0.86115 0.40486 0.0
C252 C 0.74219 0.76348 0.40434 0.0
C253 C 0.77533 0.77489 0.39987 0.0
C254 C 0.78845 0.75631 0.40465 0.0
C255 C 0.82061 0.76811 0.40249 0.0
C256 C 0.84032 0.79884 0.39558 0.0
C257 C 0.82689 0.8172 0.39042 0.0
C258 C 0.79466 0.8053 0.39252 0.0
C259 C 0.68952 0.80733 0.36758 0.0
O260 O 0.62858 0.77087 0.39872 0.0
O261 O 0.65545 0.74314 0.40048 0.0
O262 O 0.62546 0.81546 0.42865 0.0
O263 O 0.64841 0.84939 0.4046 0.0
O264 O 0.6876 0.8243 0.44221 0.0
O265 O 0.67751 0.78485 0.42561 0.0
O266 O 0.74082 0.83624 0.40444 0.0
O267 O 0.70939 0.85909 0.40561 0.0
O268 O 0.72305 0.75603 0.38921 0.0
O269 O 0.73743 0.77966 0.41788 0.0
O270 O 0.70478 0.79222 0.36665 0.0
O271 O 0.68346 0.80911 0.38546 0.0
H272 H 0.59672 0.83281 0.38262 0.0
H273 H 0.55226 0.84135 0.37711 0.0
H274 H 0.54733 0.8542 0.44005 0.0
H275 H 0.59144 0.84578 0.44544 0.0
H276 H 0.77393 0.73293 0.41056 0.0
H277 H 0.83019 0.75348 0.40687 0.0
H278 H 0.84132 0.84081 0.38487 0.0
H279 H 0.78491 0.82004 0.38883 0.0
Ho280 Ho 0.86067 0.66574 0.90677 0.0
Ho281 Ho 0.93589 0.70118 0.90468 0.0
C282 C 0.89665 0.6252 0.9027 0.0
C283 C 0.80074 0.63245 0.90127 0.0
C284 C 0.7722 0.60121 0.90339 0.0
C285 C 0.76081 0.58077 0.88707 0.0
C286 C 0.73125 0.55376 0.88772 0.0
C287 C 0.71221 0.54658 0.90465 0.0
C288 C 0.72409 0.56643 0.92123 0.0
C289 C 0.75367 0.59346 0.92059 0.0
C290 C 0.89374 0.68218 0.94123 0.0
C291 C 0.89792 0.7395 0.90242 0.0
C292 C 0.99302 0.73538 0.91621 0.0
C293 C 0.01642 0.76849 0.91299 0.0
C294 C 0.04529 0.7818 0.92275 0.0
C295 C 0.06641 0.81396 0.92126 0.0
C296 C 0.0589 0.8334 0.91004 0.0
C297 C 0.03005 0.81977 0.90001 0.0
C298 C 1.00902 0.78759 0.90146 0.0
C299 C 0.91101 0.69636 0.8681 0.0
O300 O 0.87004 0.62589 0.90271 0.0
O301 O 0.92474 0.65076 0.90469 0.0
O302 O 0.81348 0.64896 0.9173 0.0
O303 O 0.8215 0.63573 0.88796 0.0
O304 O 0.86804 0.683 0.93886 0.0
O305 O 0.89933 0.67191 0.92575 0.0
O306 O 0.92346 0.73955 0.90872 0.0
O307 O 0.87209 0.71351 0.89749 0.0
O308 O 0.98513 0.717 0.90064 0.0
O309 O 0.96886 0.73091 0.92678 0.0
O310 O 0.94081 0.70884 0.87146 0.0
O311 O 0.89715 0.68776 0.88451 0.0
H312 H 0.77416 0.58631 0.87345 0.0
H313 H 0.72277 0.53928 0.87458 0.0
H314 H 0.71026 0.5614 0.93461 0.0
H315 H 0.76151 0.60883 0.93335 0.0
H316 H 0.05119 0.76745 0.93191 0.0
H317 H 0.08823 0.82375 0.92938 0.0
H318 H 0.0237 0.83398 0.89108 0.0
H319 H 0.98669 0.77769 0.89391 0.0
Ho320 Ho 0.20866 0.85848 0.40836 0.0
Ho321 Ho 0.24272 0.93275 0.40236 0.0
C322 C 0.28368 0.89861 0.40069 0.0
C323 C 0.18583 0.7986 0.41048 0.0
C324 C 0.18802 0.77017 0.40722 0.0
C325 C 0.19159 0.76049 0.38827 0.0
C326 C 0.18828 0.73074 0.3856 0.0
C327 C 0.18091 0.71017 0.40177 0.0
C328 C 0.1787 0.72055 0.42075 0.0
C329 C 0.18225 0.75018 0.42343 0.0
C330 C 0.22054 0.89551 0.44074 0.0
C331 C 0.16616 0.88891 0.40051 0.0
C332 C 0.26232 0.99029 0.41183 0.0
C333 C 0.25187 0.01319 0.40842 0.0
C334 C 0.24696 0.02756 0.42488 0.0
C335 C 0.23411 0.04694 0.42252 0.0
C336 C 0.22616 0.0526 0.40358 0.0
C337 C 0.23189 0.03891 0.387 0.0
C338 C 0.24442 0.01915 0.3894 0.0
C339 C 0.22712 0.90346 0.36678 0.0
O340 O 0.25737 0.87126 0.39914 0.0
O341 O 0.28419 0.92533 0.40456 0.0
O342 O 0.2032 0.81806 0.42439 0.0
O343 O 0.18131 0.81246 0.39529 0.0
O344 O 0.19487 0.869 0.43841 0.0
O345 O 0.23792 0.90052 0.42603 0.0
O346 O 0.19076 0.91705 0.40407 0.0
O347 O 0.16827 0.86334 0.39917 0.0
O348 O 0.27364 0.98227 0.39673 0.0
O349 O 0.24337 0.96642 0.42287 0.0
O350 O 0.24161 0.93373 0.36889 0.0
O351 O 0.22189 0.89127 0.38378 0.0
H352 H 0.19583 0.77537 0.37548 0.0
H353 H 0.19007 0.7233 0.37079 0.0
H354 H 0.1735 0.7054 0.43353 0.0
H355 H 0.17918 0.757 0.43816 0.0
H356 H 0.25243 0.0232 0.43969 0.0
H357 H 0.23032 0.05748 0.43553 0.0
H358 H 0.22583 0.04276 0.37225 0.0
H359 H 0.24764 1.00808 0.37646 0.0
Ho360 Ho 0.36772 0.20422 0.91155 0.0
Ho361 Ho 0.32584 0.23619 0.90641 0.0
C362 C 0.4005 0.27809 0.90173 0.0
C363 C 0.4057 0.18239 0.91196 0.0
C364 C 0.43359 0.18219 0.90397 0.0
C365 C 0.42937 0.15683 0.89224 0.0
C366 C 0.45453 0.15226 0.88802 0.0
C367 C 0.48455 0.17289 0.89549 0.0
C368 C 0.48916 0.19925 0.90632 0.0
C369 C 0.46391 0.20377 0.9106 0.0
C370 C 0.34563 0.21824 0.94466 0.0
C371 C 0.29421 0.15988 0.90751 0.0
C372 C 0.28799 0.25597 0.91559 0.0
C373 C 0.25489 0.2448 0.91115 0.0
C374 C 0.24107 0.26222 0.91726 0.0
C375 C 0.20895 0.25037 0.91461 0.0
C376 C 0.19008 0.22076 0.90592 0.0
C377 C 0.20421 0.20361 0.89954 0.0
C378 C 0.23634 0.21558 0.90207 0.0
C379 C 0.33574 0.2181 0.87052 0.0
O380 O 0.40135 0.25182 0.89935 0.0
O381 O 0.37464 0.27823 0.90714 0.0
O382 O 0.40956 0.20597 0.92296 0.0
O383 O 0.38047 0.17079 0.90095 0.0
O384 O 0.34742 0.19303 0.94293 0.0
O385 O 0.35594 0.23413 0.9292 0.0
O386 O 0.29057 0.18442 0.91083 0.0
O387 O 0.3219 0.16262 0.90467 0.0
O388 O 0.30764 0.26734 0.90067 0.0
O389 O 0.29272 0.23702 0.92676 0.0
O390 O 0.31961 0.23197 0.87332 0.0
O391 O 0.34534 0.21461 0.88712 0.0
H392 H 0.40626 0.13956 0.8871 0.0
H393 H 0.45026 0.132 0.87937 0.0
H394 H 0.51193 0.21549 0.9124 0.0
H395 H 0.46794 0.22333 0.9199 0.0
H396 H 0.255 0.28468 0.92446 0.0
H397 H 0.19873 0.26401 0.91986 0.0
H398 H 0.19041 0.18093 0.89259 0.0
H399 H 0.24662 0.20176 0.89728 0.0
Ho400 Ho 0.16966 0.35927 0.40695 0.0
Ho401 Ho 0.09548 0.322 0.39994 0.0
C402 C 0.13244 0.39711 0.39855 0.0
C403 C 0.22977 0.39439 0.40962 0.0
C404 C 0.25864 0.4245 0.40588 0.0
C405 C 0.26712 0.43799 0.38691 0.0
C406 C 0.29683 0.46425 0.38368 0.0
C407 C 0.31856 0.47712 0.39931 0.0
C408 C 0.30943 0.46413 0.41835 0.0
C409 C 0.27985 0.43817 0.42157 0.0
C410 C 0.13109 0.3348 0.43878 0.0
C411 C 0.13623 0.28616 0.39904 0.0
C412 C 0.03703 0.28501 0.40752 0.0
C413 C 0.01545 0.25132 0.40392 0.0
C414 C 0.02523 0.22934 0.407 0.0
C415 C 1.00436 0.19736 0.40453 0.0
C416 C 0.97323 0.18656 0.39873 0.0
C417 C 0.96373 0.20874 0.39517 0.0
C418 C 0.98463 0.24078 0.39781 0.0
C419 C 0.12619 0.3355 0.36481 0.0
O420 O 0.15919 0.39681 0.39745 0.0
O421 O 0.10495 0.37155 0.40204 0.0
O422 O 0.21033 0.39372 0.42309 0.0
O423 O 0.21576 0.37549 0.39468 0.0
O424 O 0.15699 0.33432 0.43688 0.0
O425 O 0.1275 0.34806 0.42401 0.0
O426 O 0.10881 0.28419 0.40257 0.0
O427 O 0.16269 0.3131 0.39761 0.0
O428 O 0.04667 0.30336 0.39192 0.0
O429 O 0.05948 0.29148 0.42025 0.0
O430 O 0.09591 0.32089 0.36647 0.0
O431 O 0.13764 0.34138 0.382 0.0
H432 H 0.25123 0.42776 0.37451 0.0
H433 H 0.30322 0.47374 0.36884 0.0
H434 H 0.32539 0.47381 0.43076 0.0
H435 H 0.27389 0.42809 0.43631 0.0
H436 H 0.04891 0.23676 0.41168 0.0
H437 H 1.01248 0.1811 0.40768 0.0
H438 H 0.94012 0.20137 0.39035 0.0
H439 H 0.97664 0.25732 0.39523 0.0
Ho440 Ho 0.82396 0.16501 0.90817 0.0
Ho441 Ho 0.78959 0.09068 0.90309 0.0
C442 C 0.74953 0.1254 0.89858 0.0
C443 C 0.84657 0.22502 0.90863 0.0
C444 C 0.84469 0.25266 0.90194 0.0
C445 C 0.86775 0.27432 0.88905 0.0
C446 C 0.87072 0.30369 0.88576 0.0
C447 C 0.85081 0.31221 0.89538 0.0
C448 C 0.82663 0.28988 0.90743 0.0
C449 C 0.82366 0.26047 0.91074 0.0
C450 C 0.80983 0.12884 0.94122 0.0
C451 C 0.86627 0.13377 0.90278 0.0
C452 C 0.76925 0.03328 0.91333 0.0
C453 C 0.77978 1.01038 0.91031 0.0
C454 C 0.78138 0.99382 0.92675 0.0
C455 C 0.79464 0.97469 0.92499 0.0
C456 C 0.8064 0.97155 0.90669 0.0
C457 C 0.80401 0.9875 0.89008 0.0
C458 C 0.79104 1.00696 0.8919 0.0
C459 C 0.80749 0.11872 0.86722 0.0
O460 O 0.77627 0.15232 0.89692 0.0
O461 O 0.74832 0.09862 0.90337 0.0
O462 O 0.82581 0.20576 0.92139 0.0
O463 O 0.85528 0.21087 0.89583 0.0
O464 O 0.83562 0.15534 0.93918 0.0
O465 O 0.79348 0.12359 0.92598 0.0
O466 O 0.84124 0.10584 0.90609 0.0
O467 O 0.86465 0.15953 0.90081 0.0
O468 O 0.75832 0.04111 0.89793 0.0
O469 O 0.78809 0.05732 0.92426 0.0
O470 O 0.79285 0.08857 0.86987 0.0
O471 O 0.81181 0.13168 0.88394 0.0
H472 H 0.88452 0.26916 0.88222 0.0
H473 H 0.88925 0.32008 0.87611 0.0
H474 H 0.811 0.29569 0.91519 0.0
H475 H 0.80584 0.2445 0.92094 0.0
H476 H 0.77308 0.99634 0.94113 0.0
H477 H 0.79582 0.96243 0.93799 0.0
H478 H 0.81309 0.9857 0.87582 0.0
H479 H 0.79053 0.01988 0.87905 0.0
C480 C 0.17325 0.91636 0.1367 0.0
C481 C 0.14284 0.89019 0.13695 0.0
C482 C 0.17817 0.94647 0.13923 0.0
C483 C 0.14158 0.99509 0.13514 0.0
H484 H 0.21378 0.0524 0.16642 0.0
C485 C 0.18015 0.12665 0.14681 0.0
C486 C 0.21215 0.1476 0.1432 0.0
C487 C 0.16866 0.09436 0.14802 0.0
C488 C 0.19357 0.0367 0.15762 0.0
H489 H 0.09358 0.87546 0.1397 0.0
H490 H 0.10231 0.92869 0.14418 0.0
H491 H 0.1982 0.99715 0.16513 0.0
H492 H 0.25696 0.1506 0.13791 0.0
H493 H 0.23707 0.09461 0.14056 0.0
H494 H 0.13735 0.03505 0.12749 0.0
C495 C 0.12229 0.92553 0.14199 0.0
C496 C 0.18463 1.00505 0.15686 0.0
C497 C 0.1173 0.89508 0.13945 0.0
C498 C 0.23236 0.1354 0.14114 0.0
C499 C 0.22093 0.10323 0.14257 0.0
C500 C 0.15045 0.02687 0.13601 0.0
C501 C 0.15289 0.95151 0.14215 0.0
C502 C 0.15915 0.98403 0.14512 0.0
C503 C 0.18896 0.08234 0.14592 0.0
C504 C 0.17708 0.04812 0.14682 0.0
H505 H 0.19358 0.91376 0.13459 0.0
H506 H 0.20197 0.96595 0.13874 0.0
H507 H 0.12191 0.97952 0.12592 0.0
H508 H 0.16394 0.13516 0.14879 0.0
H509 H 0.14395 0.07881 0.15079 0.0
C510 C 0.25847 0.1595 0.64624 0.0
C511 C 0.25703 0.13252 0.63822 0.0
C512 C 0.23177 0.16219 0.6475 0.0
C513 C 0.15592 0.13642 0.62462 0.0
H514 H 0.14363 0.17531 0.67108 0.0
C515 C 0.05745 0.16871 0.63078 0.0
C516 C 0.06707 0.19868 0.63855 0.0
C517 C 0.07738 0.15614 0.63143 0.0
C518 C 0.14677 0.16453 0.65797 0.0
H519 H 0.22613 0.08693 0.6254 0.0
H520 H 0.17901 0.09187 0.62739 0.0
H521 H 0.18362 0.16017 0.67144 0.0
H522 H 0.10575 0.2392 0.65254 0.0
H523 H 0.1401 0.21724 0.65387 0.0
H524 H 0.11955 0.14168 0.61096 0.0
C525 C 0.20108 0.11087 0.63273 0.0
C526 C 0.16962 0.15576 0.6582 0.0
C527 C 0.22796 0.10798 0.63169 0.0
C528 C 0.09718 0.21578 0.64684 0.0
C529 C 0.11695 0.20318 0.64759 0.0
C530 C 0.13296 0.14524 0.62438 0.0
C531 C 0.20279 0.13808 0.64067 0.0
C532 C 0.17511 0.14246 0.64134 0.0
C533 C 0.10729 0.17317 0.63998 0.0
C534 C 0.12879 0.16023 0.64087 0.0
H535 H 0.2804 0.1788 0.65154 0.0
H536 H 0.23402 0.18363 0.65343 0.0
H537 H 0.15973 0.1264 0.61137 0.0
H538 H 0.03431 0.15471 0.62447 0.0
H539 H 0.0692 0.13289 0.62553 0.0
C540 C 0.8957 0.06411 0.13594 0.0
C541 C 0.87453 0.07473 0.13982 0.0
C542 C 0.92804 0.08506 0.13582 0.0
C543 C 0.98451 0.16923 0.12915 0.0
H544 H 0.04516 0.15034 0.15223 0.0
C545 C 0.11003 0.26583 0.14265 0.0
C546 C 0.13469 0.26084 0.13716 0.0
C547 C 0.07925 0.24118 0.14307 0.0
C548 C 0.02851 0.15575 0.1455 0.0
H549 H 0.87097 0.11546 0.14759 0.0
H550 H 0.92716 0.15186 0.14741 0.0
H551 H 0.98928 0.11093 0.15313 0.0
H552 H 0.14625 0.22546 0.12864 0.0
H553 H 0.09183 0.18194 0.12934 0.0
H554 H 0.02336 0.21393 0.12163 0.0
C555 C 0.91878 0.12747 0.14402 0.0
C556 C 0.99652 0.13323 0.14604 0.0
C557 C 0.88654 0.10659 0.14415 0.0
C558 C 0.1278 0.23013 0.13286 0.0
C559 C 0.09668 0.20523 0.13329 0.0
C560 C 0.01629 0.19159 0.12862 0.0
C561 C 0.93994 0.11709 0.13954 0.0
C562 C 0.97411 0.13998 0.13818 0.0
C563 C 0.07203 0.21071 0.13798 0.0
C564 C 0.03864 0.18542 0.13713 0.0
H565 H 0.88725 0.03978 0.13235 0.0
H566 H 0.94366 0.07633 0.13218 0.0
H567 H 0.96803 0.17492 0.12247 0.0
H568 H 0.11434 0.28899 0.14644 0.0
H569 H 0.06096 0.2461 0.14726 0.0
C570 C 0.80007 0.882 0.63157 0.0
C571 C 0.81997 0.86949 0.62939 0.0
C572 C 0.81193 0.91426 0.6307 0.0
C573 C 0.88292 0.99111 0.63652 0.0
H574 H 0.8338 0.01897 0.60715 0.0
C575 C 0.91305 0.12244 0.6283 0.0
C576 C 0.88713 0.12636 0.63195 0.0
C577 C 0.90912 0.09221 0.62699 0.0
C578 C 0.84782 0.01159 0.6154 0.0
H579 H 0.86824 0.88141 0.62492 0.0
H580 H 0.88904 0.93807 0.62364 0.0
H581 H 0.81872 0.96388 0.6067 0.0
H582 H 0.8371 0.10147 0.63799 0.0
H583 H 0.83056 0.04972 0.6357 0.0
H584 H 0.9116 0.03912 0.64555 0.0
C585 C 0.8642 0.92268 0.62602 0.0
C586 C 0.83912 0.98001 0.61519 0.0
C587 C 0.85226 0.89024 0.6268 0.0
C588 C 0.85761 0.09957 0.63486 0.0
C589 C 0.85374 0.06973 0.63347 0.0
C590 C 0.89167 0.02293 0.63674 0.0
C591 C 0.84405 0.93499 0.62771 0.0
C592 C 0.85596 0.96921 0.62622 0.0
C593 C 0.87921 0.06559 0.62915 0.0
C594 C 0.87358 0.03325 0.62665 0.0
H595 H 0.77523 0.86685 0.6341 0.0
H596 H 0.79588 0.92303 0.63253 0.0
H597 H 0.89637 0.98346 0.64515 0.0
H598 H 0.93611 0.14259 0.62606 0.0
H599 H 0.9292 0.08963 0.62373 0.0
C600 C 0.95592 0.83055 0.15692 0.0
C601 C 0.95784 0.81641 0.13929 0.0
C602 C 0.93716 0.84438 0.15796 0.0
C603 C 0.8951 0.87397 0.12685 0.0
H604 H 0.84175 0.85449 0.17301 0.0
C605 C 0.80143 0.91225 0.134 0.0
C606 C 0.77176 0.88768 0.1396 0.0
C607 C 0.82791 0.90876 0.13562 0.0
C608 C 0.85659 0.86028 0.16005 0.0
H609 H 0.94231 0.80675 0.10871 0.0
H610 H 0.90911 0.83012 0.11066 0.0
H611 H 0.88089 0.83828 0.172 0.0
H612 H 0.74694 0.84086 0.15216 0.0
H613 H 0.79259 0.83494 0.15495 0.0
H614 H 0.86969 0.89474 0.11457 0.0
C615 C 0.92232 0.83083 0.12365 0.0
C616 C 0.87925 0.85122 0.15954 0.0
C617 C 0.941 0.81697 0.12263 0.0
C618 C 0.76935 0.86019 0.14753 0.0
C619 C 0.79565 0.85687 0.14932 0.0
C620 C 0.87243 0.8831 0.12738 0.0
C621 C 0.91994 0.84449 0.14137 0.0
C622 C 0.8983 0.85728 0.14274 0.0
C623 C 0.8252 0.88088 0.14318 0.0
C624 C 0.85236 0.87562 0.14378 0.0
H625 H 0.96845 0.83042 0.17006 0.0
H626 H 0.93609 0.85492 0.1718 0.0
H627 H 0.90972 0.87944 0.1138 0.0
H628 H 0.80406 0.93373 0.12786 0.0
H629 H 0.85042 0.92776 0.13086 0.0
C630 C 0.89935 0.79612 0.63046 0.0
C631 C 0.89584 0.76603 0.62937 0.0
C632 C 0.92929 0.82293 0.62917 0.0
C633 C 1.00898 0.84828 0.61064 0.0
H634 H 0.03936 0.91154 0.65181 0.0
C635 C 0.13954 0.923 0.62815 0.0
C636 C 0.15223 0.95497 0.63242 0.0
C637 C 0.10725 0.9034 0.62611 0.0
C638 C 0.0311 0.89436 0.64001 0.0
H639 H 0.92101 0.7407 0.62566 0.0
H640 H 0.97227 0.78676 0.62332 0.0
H641 H 0.98372 0.87143 0.65075 0.0
H642 H 0.14078 0.99135 0.63808 0.0
H643 H 0.08411 0.95692 0.63449 0.0
H644 H 0.05619 0.87035 0.60018 0.0
C645 C 0.9522 0.78989 0.62515 0.0
C646 C 0.99924 0.87147 0.63939 0.0
C647 C 0.92268 0.7634 0.62668 0.0
C648 C 0.13175 0.96686 0.63463 0.0
C649 C 0.0993 0.94712 0.63273 0.0
C650 C 0.04065 0.87103 0.61125 0.0
C651 C 0.95598 0.81997 0.62636 0.0
C652 C 0.9881 0.84758 0.62507 0.0
C653 C 0.0867 0.91517 0.62835 0.0
C654 C 0.05231 0.89375 0.6263 0.0
H655 H 0.87914 0.79892 0.63254 0.0
H656 H 0.93156 0.84589 0.63017 0.0
H657 H 1.00097 0.8305 0.59921 0.0
H658 H 0.15462 0.91313 0.62616 0.0
H659 H 0.09833 0.87882 0.62302 0.0
C660 C 0.12719 0.90758 0.40481 0.0
C661 C 0.13444 0.88488 0.39825 0.0
C662 C 0.09616 0.9015 0.40419 0.0
C663 C 0.01565 0.83414 0.40383 0.0
H664 H 0.99027 0.89266 0.38571 0.0
C665 C 0.88694 0.7931 0.38773 0.0
C666 C 0.87479 0.81183 0.39444 0.0
C667 C 0.91914 0.80437 0.38797 0.0
C668 C 0.99705 0.87619 0.39101 0.0
H669 H 0.11506 0.83892 0.38469 0.0
H670 H 0.06178 0.82868 0.3835 0.0
H671 H 0.04605 0.90886 0.38681 0.0
H672 H 0.8872 0.85748 0.40629 0.0
H673 H 0.94356 0.8772 0.40667 0.0
H674 H 0.96705 0.80144 0.40802 0.0
C675 C 0.07966 0.85076 0.38962 0.0
C676 C 0.02897 0.88549 0.39165 0.0
C677 C 0.11036 0.85675 0.39025 0.0
C678 C 0.89579 0.84253 0.40083 0.0
C679 C 0.9281 0.85384 0.40108 0.0
C680 C 0.98395 0.82489 0.40319 0.0
C681 C 0.07197 0.87265 0.39701 0.0
C682 C 0.03854 0.86431 0.39772 0.0
C683 C 0.9401 0.83468 0.39496 0.0
C684 C 0.97415 0.84556 0.39645 0.0
H685 H 0.14521 0.92951 0.411 0.0
H686 H 0.09093 0.91886 0.40995 0.0
H687 H 0.02226 0.81749 0.40905 0.0
H688 H 0.87151 0.76959 0.38234 0.0
H689 H 0.92763 0.78923 0.38272 0.0
C690 C 0.06962 0.88899 0.91069 0.0
C691 C 0.08081 0.86783 0.90925 0.0
C692 C 0.09043 0.92136 0.91085 0.0
C693 C 0.17327 0.97881 0.9215 0.0
H694 H 0.15781 0.03731 0.89207 0.0
C695 C 0.27161 0.10214 0.90438 0.0
C696 C 0.26678 0.12762 0.90744 0.0
C697 C 0.24678 0.07149 0.9052 0.0
C698 C 0.16218 0.02127 0.90058 0.0
H699 H 0.12258 0.86421 0.90603 0.0
H700 H 0.15877 0.92046 0.90624 0.0
H701 H 0.11854 0.98136 0.89197 0.0
H702 H 0.23151 0.14059 0.91318 0.0
H703 H 0.18762 0.08634 0.91452 0.0
H704 H 0.21701 0.01837 0.92981 0.0
C705 C 0.13396 0.91209 0.9077 0.0
C706 C 0.13976 0.98925 0.90051 0.0
C707 C 0.11321 0.87981 0.90755 0.0
C708 C 0.23608 0.12153 0.91084 0.0
C709 C 0.21098 0.09053 0.91155 0.0
C710 C 0.19557 0.01062 0.92152 0.0
C711 C 0.12289 0.93328 0.90961 0.0
C712 C 0.14539 0.96758 0.91064 0.0
C713 C 0.21627 0.06522 0.90907 0.0
C714 C 0.19064 0.03214 0.91072 0.0
H715 H 0.04481 0.88054 0.91223 0.0
H716 H 0.08114 0.937 0.91249 0.0
H717 H 0.17801 0.96293 0.9299 0.0
H718 H 0.29475 0.10568 0.90153 0.0
H719 H 0.25155 0.05256 0.9028 0.0
C720 C 0.16271 0.25819 0.3859 0.0
C721 C 0.13807 0.25729 0.39688 0.0
C722 C 0.16656 0.23209 0.38498 0.0
C723 C 0.15354 0.16472 0.41383 0.0
H724 H 0.17579 0.13874 0.36517 0.0
C725 C 0.18677 0.06789 0.41375 0.0
C726 C 0.21153 0.07239 0.4013 0.0
C727 C 0.17357 0.08711 0.41211 0.0
C728 C 0.16993 0.14588 0.37893 0.0
H729 H 0.09765 0.22803 0.41514 0.0
H730 H 0.10482 0.18225 0.41388 0.0
H731 H 0.1595 0.17795 0.36403 0.0
H732 H 0.24177 0.10043 0.37733 0.0
H733 H 0.21948 0.13462 0.3748 0.0
H734 H 0.16533 0.13394 0.42892 0.0
C735 C 0.12099 0.20327 0.40589 0.0
C736 C 0.16038 0.16818 0.37824 0.0
C737 C 0.11679 0.22935 0.40652 0.0
C738 C 0.22254 0.09626 0.387 0.0
C739 C 0.20959 0.11574 0.38551 0.0
C740 C 0.16345 0.14268 0.41457 0.0
C741 C 0.14612 0.20453 0.39525 0.0
C742 C 0.15254 0.17818 0.3957 0.0
C743 C 0.18504 0.11157 0.39813 0.0
C744 C 0.17226 0.1333 0.39716 0.0
H745 H 0.17937 0.27932 0.37819 0.0
H746 H 0.18629 0.23387 0.37682 0.0
H747 H 0.14804 0.1723 0.42756 0.0
H748 H 0.17749 0.04934 0.42471 0.0
H749 H 0.15432 0.08271 0.42181 0.0
C750 C 0.13466 0.17609 0.90862 0.0
C751 C 0.15573 0.20759 0.90386 0.0
C752 C 0.10232 0.16394 0.90711 0.0
C753 C 0.04341 0.17822 0.88303 0.0
H754 H 0.98921 0.12967 0.92645 0.0
C755 C 0.92305 0.1656 0.89446 0.0
C756 C 0.89778 0.13707 0.90111 0.0
C757 C 0.95313 0.16994 0.89333 0.0
C758 C 1.00391 0.14268 0.91403 0.0
H759 H 0.15931 0.25084 0.89346 0.0
H760 H 0.10297 0.22974 0.89092 0.0
H761 H 0.04478 0.14563 0.9273 0.0
H762 H 0.88447 0.09046 0.91157 0.0
H763 H 0.93757 0.09815 0.90961 0.0
H764 H 1.00285 0.17579 0.86987 0.0
C765 C 0.11144 0.21436 0.89573 0.0
C766 C 0.03576 0.15189 0.91454 0.0
C767 C 0.14372 0.22656 0.89738 0.0
C768 C 0.9034 0.11273 0.90639 0.0
C769 C 0.9338 0.11718 0.90536 0.0
C770 C 1.01166 0.16895 0.88248 0.0
C771 C 0.09034 0.18294 0.90063 0.0
C772 C 0.056 0.17043 0.89926 0.0
C773 C 0.959 0.14591 0.89881 0.0
C774 C 0.99166 0.15178 0.89821 0.0
H775 H 0.14317 0.16095 0.91385 0.0
H776 H 0.08669 0.13961 0.9109 0.0
H777 H 0.05823 0.19188 0.87082 0.0
H778 H 0.91976 0.18493 0.89019 0.0
H779 H 0.972 0.19255 0.88856 0.0
C780 C 0.96011 0.13153 0.38998 0.0
C781 C 0.95059 0.1523 0.39711 0.0
C782 C 0.93903 0.09925 0.38923 0.0
C783 C 0.85473 0.04196 0.3877 0.0
H784 H 0.87719 0.983 0.40939 0.0
C785 C 0.76082 0.91877 0.40901 0.0
C786 C 0.76468 0.89321 0.40411 0.0
C787 C 0.78541 0.94935 0.40698 0.0
C788 C 0.87075 0.99911 0.40299 0.0
H789 H 0.91131 0.15502 0.40929 0.0
H790 H 0.87457 0.09904 0.40755 0.0
H791 H 0.9166 0.0388 0.40752 0.0
H792 H 0.79806 0.87989 0.39395 0.0
H793 H 0.84149 0.93398 0.39028 0.0
H794 H 0.80899 1.00269 0.38328 0.0
C795 C 0.8983 0.10778 0.40238 0.0
C796 C 0.89327 0.03104 0.40194 0.0
C797 C 0.91938 0.13994 0.40329 0.0
C798 C 0.79431 0.89906 0.3978 0.0
C799 C 0.81914 0.93 0.39571 0.0
C800 C 0.83238 1.0102 0.38865 0.0
C801 C 0.90788 0.08706 0.39539 0.0
C802 C 0.88523 0.05287 0.39474 0.0
C803 C 0.81467 0.95546 0.3999 0.0
C804 C 0.83983 0.98849 0.3968 0.0
H805 H 0.98382 0.14019 0.38481 0.0
H806 H 0.94699 0.08387 0.3836 0.0
H807 H 0.84802 0.05809 0.38166 0.0
H808 H 0.73856 0.91526 0.41428 0.0
H809 H 0.78139 0.96834 0.41092 0.0
C810 C 0.91587 0.79485 0.91315 0.0
C811 C 0.89742 0.76916 0.90081 0.0
C812 C 0.91209 0.82122 0.91295 0.0
C813 C 0.87998 0.86198 0.88338 0.0
H814 H 0.86234 0.88652 0.93415 0.0
C815 C 0.81431 0.93087 0.88947 0.0
C816 C 0.82164 0.95219 0.90512 0.0
C817 C 0.82793 0.91194 0.88844 0.0
C818 C 0.86778 0.8805 0.91985 0.0
H819 H 0.86201 0.75168 0.87777 0.0
H820 H 0.85585 0.79756 0.87722 0.0
H821 H 0.88042 0.84877 0.93292 0.0
H822 H 0.84992 0.97127 0.93153 0.0
H823 H 0.8742 0.9388 0.92953 0.0
H824 H 0.8672 0.89344 0.87022 0.0
C825 C 0.87301 0.7974 0.88715 0.0
C826 C 0.87817 0.85882 0.91918 0.0
C827 C 0.8764 0.771 0.88759 0.0
C828 C 0.84341 0.95466 0.91947 0.0
C829 C 0.85728 0.93598 0.91833 0.0
C830 C 0.86989 0.88388 0.88405 0.0
C831 C 0.8903 0.82255 0.90009 0.0
C832 C 0.88371 0.8488 0.90092 0.0
C833 C 0.84951 0.91411 0.90291 0.0
C834 C 0.86295 0.89292 0.90227 0.0
H835 H 0.93223 0.79405 0.9235 0.0
H836 H 0.92585 0.84038 0.92301 0.0
H837 H 0.88442 0.85496 0.86909 0.0
H838 H 0.7974 0.92825 0.8783 0.0
H839 H 0.82088 0.89503 0.87653 0.0
C840 C 0.10817 0.6839 0.13397 0.0
C841 C 0.1304 0.71237 0.1426 0.0
C842 C 0.11188 0.65754 0.1351 0.0
C843 C 0.17423 0.63737 0.14333 0.0
H844 H 0.10461 0.55223 0.14583 0.0
C845 C 0.19244 0.53056 0.14975 0.0
C846 C 0.17462 0.5058 0.13664 0.0
C847 C 0.18589 0.55491 0.15218 0.0
C848 C 0.12428 0.5759 0.14506 0.0
H849 H 0.17276 0.73497 0.16029 0.0
H850 H 0.17859 0.68908 0.16283 0.0
H851 H 0.09467 0.59598 0.14728 0.0
H852 H 0.13518 0.4865 0.11642 0.0
H853 H 0.12382 0.5289 0.12063 0.0
H854 H 0.2038 0.61728 0.14116 0.0
C855 C 0.15893 0.68718 0.15455 0.0
C856 C 0.11858 0.60099 0.14582 0.0
C857 C 0.15545 0.7135 0.15321 0.0
C858 C 0.1496 0.50548 0.12644 0.0
C859 C 0.14287 0.52959 0.12901 0.0
C860 C 0.17991 0.61233 0.14275 0.0
C861 C 0.13771 0.65905 0.14506 0.0
C862 C 0.14349 0.63209 0.14487 0.0
C863 C 0.16113 0.55477 0.14174 0.0
C864 C 0.15501 0.5813 0.14347 0.0
H865 H 0.08872 0.68236 0.12562 0.0
H866 H 0.09516 0.63638 0.12749 0.0
H867 H 0.19401 0.6609 0.1421 0.0
H868 H 0.21187 0.53146 0.15779 0.0
H869 H 0.20022 0.57389 0.16222 0.0
C870 C 0.67357 0.19016 0.63848 0.0
C871 C 0.67904 0.16778 0.62929 0.0
C872 C 0.6431 0.1852 0.64009 0.0
C873 C 0.55953 0.12316 0.63902 0.0
H874 H 0.54545 0.19169 0.62621 0.0
C875 C 0.4348 0.10655 0.62993 0.0
C876 C 0.43029 0.13111 0.63635 0.0
C877 C 0.46487 0.11014 0.62981 0.0
C878 C 0.54893 0.17236 0.63013 0.0
H879 H 0.65658 0.12215 0.61517 0.0
H880 H 0.60364 0.11367 0.61782 0.0
H881 H 0.59832 0.19992 0.62514 0.0
H882 H 0.45375 0.1782 0.64848 0.0
H883 H 0.50552 0.18406 0.64873 0.0
H884 H 0.51012 0.09563 0.64414 0.0
C885 C 0.62285 0.13505 0.6238 0.0
C886 C 0.57932 0.17712 0.62949 0.0
C887 C 0.65327 0.1401 0.62207 0.0
C888 C 0.45633 0.1589 0.64317 0.0
C889 C 0.48618 0.16237 0.6432 0.0
C890 C 0.52909 0.11843 0.63979 0.0
C891 C 0.61738 0.1576 0.63271 0.0
C892 C 0.58503 0.15259 0.63389 0.0
C893 C 0.49103 0.13828 0.63623 0.0
C894 C 0.52336 0.14299 0.63536 0.0
H895 H 0.69289 0.21175 0.64415 0.0
H896 H 0.63967 0.20292 0.64721 0.0
H897 H 0.56316 0.10384 0.6427 0.0
H898 H 0.41527 0.08488 0.62454 0.0
H899 H 0.46769 0.09114 0.62419 0.0
C900 C 0.5299 0.6479 0.12578 0.0
C901 C 0.5274 0.67298 0.13359 0.0
C902 C 0.50537 0.61707 0.12778 0.0
C903 C 0.43192 0.56679 0.15585 0.0
H904 H 0.41303 0.5112 0.11088 0.0
C905 C 0.3146 0.45138 0.14687 0.0
C906 C 0.31485 0.42509 0.13902 0.0
C907 C 0.34204 0.48044 0.14784 0.0
C908 C 0.41827 0.52625 0.12369 0.0
H909 H 0.49727 0.68527 0.14986 0.0
H910 H 0.45406 0.63143 0.15307 0.0
H911 H 0.4574 0.56434 0.10926 0.0
H912 H 0.34448 0.40867 0.12647 0.0
H913 H 0.39262 0.45973 0.12807 0.0
H914 H 0.39215 0.52879 0.17002 0.0
C915 C 0.47525 0.63553 0.14567 0.0
C916 C 0.44376 0.5568 0.12278 0.0
C917 C 0.49996 0.66644 0.14379 0.0
C918 C 0.34347 0.42843 0.13261 0.0
C919 C 0.37098 0.4577 0.13341 0.0
C920 C 0.40631 0.5363 0.1567 0.0
C921 C 0.47753 0.61044 0.13753 0.0
C922 C 0.45084 0.57758 0.1388 0.0
C923 C 0.37049 0.48411 0.14086 0.0
C924 C 0.39903 0.51574 0.14057 0.0
H925 H 0.551 0.6521 0.11819 0.0
H926 H 0.50834 0.59841 0.12172 0.0
H927 H 0.43694 0.58187 0.16862 0.0
H928 H 0.29303 0.44969 0.15205 0.0
H929 H 0.34074 0.50031 0.15348 0.0
C930 C 0.83477 0.48699 0.63422 0.0
C931 C 0.85855 0.51672 0.62807 0.0
C932 C 0.8403 0.46184 0.63532 0.0
C933 C 0.89354 0.43466 0.61706 0.0
H934 H 0.85871 0.37621 0.66085 0.0
C935 C 0.91953 0.33317 0.62895 0.0
C936 C 0.89336 0.30395 0.63353 0.0
C937 C 0.91724 0.36038 0.6291 0.0
C938 C 0.86845 0.39222 0.64846 0.0
H939 H 0.90703 0.54337 0.61862 0.0
H940 H 0.91662 0.49961 0.6205 0.0
H941 H 0.85036 0.42084 0.6592 0.0
H942 H 0.8444 0.28061 0.64223 0.0
H943 H 0.8405 0.32767 0.64241 0.0
H944 H 0.91147 0.40585 0.60629 0.0
C945 C 0.89351 0.49555 0.62413 0.0
C946 C 0.86358 0.41776 0.64748 0.0
C947 C 0.88797 0.52066 0.62302 0.0
C948 C 0.86508 0.30266 0.63858 0.0
C949 C 0.86286 0.32974 0.63884 0.0
C950 C 0.89845 0.40911 0.61807 0.0
C951 C 0.86978 0.46583 0.63034 0.0
C952 C 0.87577 0.43914 0.63166 0.0
C953 C 0.88881 0.35892 0.63401 0.0
C954 C 0.88565 0.38738 0.63366 0.0
H955 H 0.81176 0.48306 0.63802 0.0
H956 H 0.82133 0.43916 0.63985 0.0
H957 H 0.903 0.45047 0.60455 0.0
H958 H 0.94165 0.33498 0.62499 0.0
H959 H 0.93773 0.38258 0.62545 0.0
C960 C 0.57246 0.85861 0.13856 0.0
C961 C 0.5992 0.88823 0.13568 0.0
C962 C 0.54264 0.85515 0.13927 0.0
C963 C 0.4996 0.89758 0.1474 0.0
H964 H 0.43304 0.82599 0.1201 0.0
C965 C 0.37482 0.87987 0.13732 0.0
C966 C 0.3492 0.84916 0.13864 0.0
C967 C 0.40557 0.88549 0.13757 0.0
C968 C 0.4512 0.84587 0.12804 0.0
H969 H 0.61527 0.93762 0.1317 0.0
H970 H 0.56285 0.93151 0.13287 0.0
H971 H 0.48611 0.83482 0.11909 0.0
H972 H 0.33609 0.80039 0.14193 0.0
H973 H 0.38966 0.81015 0.14248 0.0
H974 H 0.46451 0.90854 0.15637 0.0
C975 C 0.56521 0.91097 0.13466 0.0
C976 C 0.48173 0.851 0.12742 0.0
C977 C 0.59525 0.91446 0.13391 0.0
C978 C 0.3552 0.82427 0.14059 0.0
C979 C 0.38596 0.82989 0.14087 0.0
C980 C 0.46897 0.89242 0.14805 0.0
C981 C 0.53851 0.88117 0.13712 0.0
C982 C 0.50631 0.87675 0.13722 0.0
C983 C 0.41158 0.86055 0.13915 0.0
C984 C 0.44431 0.86635 0.13847 0.0
H985 H 0.57439 0.8378 0.14017 0.0
H986 H 0.52274 0.83195 0.1416 0.0
H987 H 0.51789 0.91747 0.15527 0.0
H988 H 0.37113 0.89959 0.13546 0.0
H989 H 0.42462 0.90934 0.13594 0.0
C990 C 0.69049 0.58818 0.63272 0.0
C991 C 0.72038 0.5914 0.63426 0.0
C992 C 0.66351 0.55843 0.6333 0.0
C993 C 0.63588 0.47612 0.64871 0.0
H994 H 0.56713 0.45605 0.61276 0.0
C995 C 0.53573 0.34886 0.63578 0.0
C996 C 0.50512 0.34381 0.63432 0.0
C997 C 0.5615 0.37933 0.63629 0.0
C998 C 0.58597 0.46136 0.62306 0.0
H999 H 0.74514 0.5656 0.63762 0.0
H1000 H 0.69856 0.51428 0.63837 0.0
H1001 H 0.61248 0.50886 0.61298 0.0
H1002 H 0.47779 0.36703 0.63188 0.0
H1003 H 0.52259 0.41999 0.63304 0.0
H1004 H 0.60954 0.42857 0.65865 0.0
C1005 C 0.69575 0.53462 0.63703 0.0
C1006 C 0.61197 0.49169 0.62321 0.0
C1007 C 0.72258 0.5642 0.63646 0.0
C1008 C 0.50098 0.37001 0.63329 0.0
C1009 C 0.52672 0.40042 0.63371 0.0
C1010 C 0.60995 0.44581 0.64852 0.0
C1011 C 0.66583 0.53126 0.63549 0.0
C1012 C 0.6374 0.49942 0.63594 0.0
C1013 C 0.55732 0.4055 0.63522 0.0
C1014 C 0.58473 0.43796 0.63561 0.0
H1015 H 0.68789 0.60859 0.63104 0.0
H1016 H 0.64083 0.55675 0.63225 0.0
H1017 H 0.65473 0.48133 0.65899 0.0
H1018 H 0.53976 0.32925 0.6367 0.0
H1019 H 0.58476 0.38237 0.63725 0.0
C1020 C 0.34164 0.92247 0.40654 0.0
C1021 C 0.31351 0.89842 0.39857 0.0
C1022 C 0.36893 0.92035 0.40594 0.0
C1023 C 0.40569 0.88003 0.38083 0.0
H1024 H 0.45089 0.89379 0.43019 0.0
C1025 C 0.49593 0.83899 0.39279 0.0
C1026 C 0.52187 0.85722 0.40498 0.0
C1027 C 0.47201 0.84627 0.3908 0.0
C1028 C 0.43897 0.89036 0.41615 0.0
H1029 H 0.29236 0.85399 0.38295 0.0
H1030 H 0.33976 0.85053 0.3818 0.0
H1031 H 0.40749 0.90392 0.42844 0.0
H1032 H 0.54387 0.89827 0.42383 0.0
H1033 H 0.50276 0.91139 0.42003 0.0
H1034 H 0.43711 0.86648 0.3685 0.0
C1035 C 0.34082 0.87096 0.38855 0.0
C1036 C 0.41402 0.89617 0.41518 0.0
C1037 C 0.31356 0.87287 0.38935 0.0
C1038 C 0.52385 0.8834 0.41463 0.0
C1039 C 0.50019 0.89085 0.4125 0.0
C1040 C 0.43083 0.87446 0.38174 0.0
C1041 C 0.36871 0.8944 0.3971 0.0
C1042 C 0.39686 0.89074 0.39759 0.0
C1043 C 0.47368 0.87216 0.40079 0.0
C1044 C 0.44763 0.87923 0.39948 0.0
H1045 H 0.34237 0.94242 0.41376 0.0
H1046 H 0.39016 0.93891 0.41253 0.0
H1047 H 0.39311 0.87592 0.36699 0.0
H1048 H 0.4937 0.81859 0.38525 0.0
H1049 H 0.45183 0.83108 0.38184 0.0
C1050 C 0.65494 0.5224 0.91292 0.0
C1051 C 0.67951 0.51954 0.90455 0.0
C1052 C 0.624 0.49762 0.91197 0.0
C1053 C 0.57277 0.42489 0.88394 0.0
H1054 H 0.51725 0.40501 0.92904 0.0
C1055 C 0.45643 0.30822 0.89078 0.0
C1056 C 0.43043 0.3081 0.89942 0.0
C1057 C 0.48563 0.33555 0.89025 0.0
C1058 C 0.53228 0.41054 0.9162 0.0
H1059 H 0.69068 0.48789 0.88904 0.0
H1060 H 0.63683 0.44467 0.88748 0.0
H1061 H 0.57069 0.44903 0.93096 0.0
H1062 H 0.41471 0.33707 0.91381 0.0
H1063 H 0.4659 0.38503 0.91282 0.0
H1064 H 0.5345 0.38616 0.86928 0.0
C1065 C 0.64141 0.46631 0.89447 0.0
C1066 C 0.56298 0.43577 0.91731 0.0
C1067 C 0.67234 0.49109 0.89541 0.0
C1068 C 0.4342 0.33633 0.90701 0.0
C1069 C 0.4636 0.36375 0.90659 0.0
C1070 C 0.54212 0.39967 0.88285 0.0
C1071 C 0.61678 0.46931 0.90262 0.0
C1072 C 0.58375 0.44307 0.90127 0.0
C1073 C 0.48976 0.36357 0.89841 0.0
C1074 C 0.52157 0.39194 0.89903 0.0
H1075 H 0.65946 0.54412 0.91976 0.0
H1076 H 0.60565 0.50095 0.91818 0.0
H1077 H 0.58785 0.4302 0.87114 0.0
H1078 H 0.45446 0.28697 0.88473 0.0
H1079 H 0.50526 0.33441 0.88402 0.0
C1080 C 0.19358 0.67036 0.38794 0.0
C1081 C 0.17374 0.67735 0.39898 0.0
C1082 C 0.18729 0.63939 0.38641 0.0
C1083 C 0.14211 0.56199 0.41152 0.0
H1084 H 0.16179 0.53106 0.36404 0.0
C1085 C 0.10966 0.43238 0.4029 0.0
C1086 C 0.13406 0.4278 0.39625 0.0
C1087 C 0.11257 0.4621 0.40193 0.0
C1088 C 0.15625 0.53942 0.37742 0.0
H1089 H 0.13091 0.65731 0.41616 0.0
H1090 H 0.11947 0.60348 0.41309 0.0
H1091 H 0.17066 0.5844 0.36468 0.0
H1092 H 0.18014 0.45066 0.38265 0.0
H1093 H 0.18498 0.50217 0.38083 0.0
H1094 H 0.12754 0.51692 0.42418 0.0
C1095 C 0.14051 0.62181 0.40618 0.0
C1096 C 0.16148 0.57005 0.37783 0.0
C1097 C 0.14698 0.6527 0.40788 0.0
C1098 C 0.16094 0.45335 0.38802 0.0
C1099 C 0.16366 0.48288 0.38684 0.0
C1100 C 0.13662 0.53131 0.41102 0.0
C1101 C 0.16081 0.61472 0.3957 0.0
C1102 C 0.15465 0.58184 0.39494 0.0
C1103 C 0.13972 0.48773 0.39403 0.0
C1104 C 0.14383 0.51973 0.39403 0.0
H1105 H 0.21443 0.68893 0.38099 0.0
H1106 H 0.20367 0.63495 0.37838 0.0
H1107 H 0.13714 0.57032 0.42511 0.0
H1108 H 0.08867 0.41323 0.40933 0.0
H1109 H 0.09361 0.46508 0.40744 0.0
C1110 C 0.72183 0.15451 0.88965 0.0
C1111 C 0.72016 0.12632 0.89553 0.0
C1112 C 0.69482 0.15664 0.88779 0.0
C1113 C 0.61296 0.11997 0.90493 0.0
H1114 H 0.60761 0.1727 0.86425 0.0
C1115 C 0.5044 0.13489 0.89612 0.0
C1116 C 0.5103 0.16564 0.89324 0.0
C1117 C 0.52868 0.12809 0.89503 0.0
C1118 C 0.60884 0.15806 0.87578 0.0
H1119 H 0.68833 0.078 0.90367 0.0
H1120 H 0.64085 0.08164 0.9002 0.0
H1121 H 0.65158 0.16325 0.8643 0.0
H1122 H 0.54637 0.21325 0.88661 0.0
H1123 H 0.58884 0.20142 0.88477 0.0
H1124 H 0.57021 0.11494 0.91643 0.0
C1125 C 0.66332 0.10223 0.89726 0.0
C1126 C 0.63405 0.15261 0.87582 0.0
C1127 C 0.69052 0.10007 0.89913 0.0
C1128 C 0.54106 0.18936 0.88899 0.0
C1129 C 0.56533 0.18252 0.88777 0.0
C1130 C 0.58763 0.1253 0.90482 0.0
C1131 C 0.66519 0.13066 0.89169 0.0
C1132 C 0.63675 0.13392 0.89059 0.0
C1133 C 0.55947 0.15183 0.89094 0.0
C1134 C 0.58551 0.14479 0.89041 0.0
H1135 H 0.74415 0.17532 0.88674 0.0
H1136 H 0.69733 0.17906 0.88381 0.0
H1137 H 0.61442 0.10579 0.91667 0.0
H1138 H 0.48107 0.11611 0.89968 0.0
H1139 H 0.5233 0.10419 0.89738 0.0
C1140 C 0.37654 0.50219 0.40434 0.0
C1141 C 0.35104 0.50326 0.3959 0.0
C1142 C 0.40706 0.52721 0.40207 0.0
C1143 C 0.45043 0.6119 0.39331 0.0
H1144 H 0.52082 0.59931 0.38364 0.0
C1145 C 0.57464 0.71704 0.3848 0.0
C1146 C 0.59934 0.71528 0.39389 0.0
C1147 C 0.5451 0.69043 0.3829 0.0
C1148 C 0.50149 0.60325 0.38655 0.0
H1149 H 0.33768 0.53123 0.37811 0.0
H1150 H 0.39115 0.57517 0.37416 0.0
H1151 H 0.46771 0.55433 0.38413 0.0
H1152 H 0.61263 0.68391 0.40753 0.0
H1153 H 0.5607 0.63737 0.40469 0.0
H1154 H 0.48393 0.66053 0.39634 0.0
C1155 C 0.38742 0.55492 0.38262 0.0
C1156 C 0.47103 0.57746 0.38676 0.0
C1157 C 0.35685 0.5297 0.38475 0.0
C1158 C 0.5941 0.68599 0.4004 0.0
C1159 C 0.56431 0.6593 0.39871 0.0
C1160 C 0.48083 0.63762 0.39326 0.0
C1161 C 0.41285 0.55405 0.3914 0.0
C1162 C 0.44515 0.58149 0.3902 0.0
C1163 C 0.53924 0.66132 0.39028 0.0
C1164 C 0.50683 0.6337 0.3899 0.0
H1165 H 0.37289 0.48197 0.41281 0.0
H1166 H 0.42605 0.52587 0.40914 0.0
H1167 H 0.43109 0.61577 0.39637 0.0
H1168 H 0.578 0.73917 0.37933 0.0
H1169 H 0.52673 0.69282 0.37582 0.0
C1170 C 0.92066 0.59041 0.90143 0.0
C1171 C 0.89409 0.59393 0.90096 0.0
C1172 C 0.91757 0.56063 0.89975 0.0
C1173 C 0.86191 0.47962 0.88267 0.0
H1174 H 0.91024 0.45625 0.9166 0.0
C1175 C 0.83174 0.35094 0.89273 0.0
C1176 C 0.85667 0.3449 0.89401 0.0
C1177 C 0.83743 0.38175 0.89248 0.0
C1178 C 0.89683 0.4625 0.90683 0.0
H1179 H 0.84335 0.56854 0.89836 0.0
H1180 H 0.83813 0.51721 0.89569 0.0
H1181 H 0.91872 0.50937 0.91812 0.0
H1182 H 0.9072 0.36677 0.89611 0.0
H1183 H 0.91708 0.42033 0.89532 0.0
H1184 H 0.83978 0.4327 0.87153 0.0
C1185 C 0.8614 0.53736 0.89705 0.0
C1186 C 0.90174 0.49301 0.90769 0.0
C1187 C 0.86446 0.56696 0.89875 0.0
C1188 C 0.88743 0.37048 0.89484 0.0
C1189 C 0.8931 0.40125 0.89465 0.0
C1190 C 0.85699 0.44915 0.88183 0.0
C1191 C 0.88786 0.53374 0.89747 0.0
C1192 C 0.8841 0.50187 0.89577 0.0
C1193 C 0.86818 0.4073 0.8936 0.0
C1194 C 0.87419 0.44009 0.89401 0.0
H1195 H 0.94383 0.61062 0.90309 0.0
H1196 H 0.93848 0.55871 0.89998 0.0
H1197 H 0.84831 0.48577 0.87299 0.0
H1198 H 0.80779 0.33183 0.89195 0.0
H1199 H 0.81764 0.38552 0.89184 0.0
C1200 C 0.17495 0.35715 0.34376 0.0
C1201 C 0.14269 0.34563 0.34564 0.0
C1202 C 0.18906 0.36465 0.32495 0.0
C1203 C 0.17623 0.38043 0.27274 0.0
H1204 H 0.22626 0.3427 0.25936 0.0
C1205 C 0.19507 0.35168 0.19213 0.0
C1206 C 0.22277 0.35139 0.18809 0.0
C1207 C 0.18927 0.35846 0.21137 0.0
C1208 C 0.21291 0.35404 0.26284 0.0
H1209 H 0.10012 0.33396 0.3296 0.0
H1210 H 0.12449 0.34697 0.29718 0.0
H1211 H 0.21028 0.34182 0.29349 0.0
H1212 H 0.2673 0.36066 0.20007 0.0
H1213 H 0.25802 0.3739 0.23308 0.0
H1214 H 0.17827 0.39201 0.24193 0.0
C1215 C 0.13909 0.35047 0.31 0.0
C1216 C 0.20377 0.35351 0.28249 0.0
C1217 C 0.12506 0.34271 0.32862 0.0
C1218 C 0.24555 0.36037 0.20294 0.0
C1219 C 0.24009 0.36767 0.22191 0.0
C1220 C 0.18552 0.38111 0.25305 0.0
C1221 C 0.17114 0.36115 0.30785 0.0
C1222 C 0.18476 0.36608 0.28761 0.0
C1223 C 0.21133 0.36542 0.22666 0.0
C1224 C 0.20354 0.36742 0.24778 0.0
H1225 H 0.18901 0.35961 0.35668 0.0
H1226 H 0.21388 0.37292 0.32374 0.0
H1227 H 0.16183 0.39063 0.27627 0.0
H1228 H 0.17712 0.3446 0.18088 0.0
H1229 H 0.16681 0.35642 0.21448 0.0
C1230 C 0.85451 0.18265 0.69245 0.0
C1231 C 0.87509 0.21394 0.68719 0.0
C1232 C 0.84403 0.17492 0.71207 0.0
C1233 C 0.86825 0.20552 0.76291 0.0
H1234 H 0.78581 0.13782 0.77705 0.0
C1235 C 0.82992 0.16606 0.84469 0.0
C1236 C 0.81457 0.13348 0.84742 0.0
C1237 C 0.83563 0.1787 0.82544 0.0
C1238 C 0.80898 0.15678 0.77333 0.0
H1239 H 0.89915 0.26182 0.69786 0.0
H1240 H 0.88052 0.24845 0.73183 0.0
H1241 H 0.79771 0.15396 0.74247 0.0
H1242 H 0.7933 0.08866 0.8323 0.0
H1243 H 0.80325 0.11044 0.79919 0.0
H1244 H 0.87968 0.20785 0.79375 0.0
C1245 C 0.87307 0.22976 0.72107 0.0
C1246 C 0.8158 0.16595 0.7535 0.0
C1247 C 0.88356 0.23743 0.70156 0.0
C1248 C 0.80509 0.11389 0.83071 0.0
C1249 C 0.81055 0.12637 0.81167 0.0
C1250 C 0.86141 0.19634 0.78276 0.0
C1251 C 0.85386 0.19836 0.72672 0.0
C1252 C 0.84569 0.19008 0.74798 0.0
C1253 C 0.82576 0.15887 0.80872 0.0
C1254 C 0.8319 0.17142 0.78814 0.0
H1255 H 0.84767 0.16409 0.68166 0.0
H1256 H 0.82936 0.15045 0.71593 0.0
H1257 H 0.89166 0.22396 0.75918 0.0
H1258 H 0.83741 0.18165 0.85735 0.0
H1259 H 0.84742 0.20388 0.82363 0.0
C1260 C 0.66036 0.88522 0.20067 0.0
C1261 C 0.67693 0.87679 0.18757 0.0
C1262 C 0.65393 0.87345 0.21995 0.0
C1263 C 0.65874 0.81696 0.25485 0.0
H1264 H 0.66961 0.87973 0.29357 0.0
C1265 C 0.65468 0.79135 0.33837 0.0
C1266 C 0.6775 0.81546 0.35005 0.0
C1267 C 0.64879 0.79744 0.31909 0.0
C1268 C 0.66665 0.86193 0.28302 0.0
H1269 H 0.69886 0.84865 0.18385 0.0
H1270 H 0.68872 0.8287 0.21792 0.0
H1271 H 0.67051 0.89102 0.25856 0.0
H1272 H 0.71178 0.86477 0.35121 0.0
H1273 H 0.70205 0.87565 0.31744 0.0
H1274 H 0.65692 0.78866 0.27939 0.0
C1275 C 0.67979 0.84373 0.21322 0.0
C1276 C 0.66665 0.8682 0.26282 0.0
C1277 C 0.6856 0.85505 0.19367 0.0
C1278 C 0.69348 0.84603 0.34257 0.0
C1279 C 0.6879 0.85213 0.32318 0.0
C1280 C 0.65908 0.81081 0.27509 0.0
C1281 C 0.66483 0.8537 0.22683 0.0
C1282 C 0.6629 0.8459 0.2484 0.0
C1283 C 0.66614 0.82771 0.31095 0.0
C1284 C 0.66334 0.83334 0.28947 0.0
H1285 H 0.65342 0.90198 0.19621 0.0
H1286 H 0.64145 0.88088 0.22969 0.0
H1287 H 0.65548 0.79907 0.24428 0.0
H1288 H 0.64246 0.76748 0.34384 0.0
H1289 H 0.6314 0.77818 0.31033 0.0
C1290 C 0.84391 0.68289 0.69224 0.0
C1291 C 0.81261 0.67381 0.68822 0.0
C1292 C 0.85347 0.68236 0.71171 0.0
C1293 C 0.82433 0.65173 0.76243 0.0
H1294 H 0.90147 0.72518 0.77871 0.0
C1295 C 0.86523 0.67983 0.8449 0.0
C1296 C 0.89726 0.69125 0.84808 0.0
C1297 C 0.8535 0.676 0.82551 0.0
C1298 C 0.88001 0.70434 0.77439 0.0
H1299 H 0.76647 0.65556 0.70113 0.0
H1300 H 0.78312 0.65486 0.73499 0.0
H1301 H 0.88443 0.72015 0.74444 0.0
H1302 H 0.94199 0.70716 0.83363 0.0
H1303 H 0.92171 0.70026 0.80019 0.0
H1304 H 0.81998 0.6361 0.79257 0.0
C1305 C 0.80032 0.66225 0.72323 0.0
C1306 C 0.87031 0.70141 0.75469 0.0
C1307 C 0.79082 0.66284 0.70382 0.0
C1308 C 0.91719 0.69848 0.83167 0.0
C1309 C 0.9056 0.69469 0.81245 0.0
C1310 C 0.83408 0.65468 0.78221 0.0
C1311 C 0.83188 0.67264 0.7275 0.0
C1312 C 0.84244 0.67502 0.74842 0.0
C1313 C 0.8737 0.68372 0.80907 0.0
C1314 C 0.86217 0.68094 0.78837 0.0
H1315 H 0.86116 0.69129 0.68046 0.0
H1316 H 0.87788 0.69002 0.71446 0.0
H1317 H 0.80281 0.63101 0.75807 0.0
H1318 H 0.84945 0.67435 0.85732 0.0
H1319 H 0.82881 0.66768 0.82338 0.0
C1320 C 0.17382 0.83386 0.19299 0.0
C1321 C 0.14601 0.80573 0.18926 0.0
C1322 C 0.18626 0.84078 0.21227 0.0
C1323 C 0.15858 0.81869 0.26417 0.0
H1324 H 0.24632 0.87095 0.27724 0.0
C1325 C 0.20046 0.85542 0.34511 0.0
C1326 C 0.22093 0.8877 0.34734 0.0
C1327 C 0.19374 0.84193 0.32612 0.0
C1328 C 0.22171 0.85626 0.2738 0.0
H1329 H 0.11088 0.7617 0.20198 0.0
H1330 H 0.13319 0.77286 0.23506 0.0
H1331 H 0.23105 0.85408 0.24298 0.0
H1332 H 0.25124 0.93097 0.33172 0.0
H1333 H 0.23975 0.90762 0.29893 0.0
H1334 H 0.14921 0.82123 0.29488 0.0
C1335 C 0.14483 0.79031 0.2236 0.0
C1336 C 0.21295 0.84672 0.25415 0.0
C1337 C 0.13219 0.78375 0.20457 0.0
C1338 C 0.23528 0.906 0.33045 0.0
C1339 C 0.22891 0.89257 0.31164 0.0
C1340 C 0.16734 0.82802 0.28379 0.0
C1341 C 0.17124 0.81943 0.22797 0.0
C1342 C 0.18121 0.82812 0.24901 0.0
C1343 C 0.20776 0.86048 0.30916 0.0
C1344 C 0.19895 0.84734 0.2888 0.0
H1345 H 0.18471 0.85123 0.18139 0.0
H1346 H 0.20659 0.86349 0.21506 0.0
H1347 H 0.13385 0.80496 0.26082 0.0
H1348 H 0.18911 0.84084 0.3579 0.0
H1349 H 0.1774 0.81707 0.32467 0.0
C1350 C 0.35761 0.19315 0.84751 0.0
C1351 C 0.34234 0.21035 0.85062 0.0
C1352 C 0.36205 0.18561 0.8281 0.0
C1353 C 0.32896 0.1775 0.77767 0.0
H1354 H 0.40621 0.18396 0.75895 0.0
C1355 C 0.34802 0.16738 0.69481 0.0
C1356 C 0.3587 0.14668 0.68995 0.0
C1357 C 0.34954 0.17734 0.71441 0.0
C1358 C 0.38444 0.18193 0.76402 0.0
H1359 H 0.32087 0.2341 0.836 0.0
H1360 H 0.32899 0.22161 0.80273 0.0
H1361 H 0.40138 0.19503 0.79381 0.0
H1362 H 0.3813 0.12191 0.70137 0.0
H1363 H 0.38398 0.1393 0.73552 0.0
H1364 H 0.31194 0.16457 0.74808 0.0
C1365 C 0.33687 0.21313 0.815 0.0
C1366 C 0.38164 0.18809 0.78399 0.0
C1367 C 0.33238 0.22046 0.83415 0.0
C1368 C 0.37271 0.13774 0.70475 0.0
C1369 C 0.37439 0.14781 0.7243 0.0
C1370 C 0.3318 0.17153 0.7578 0.0
C1371 C 0.35123 0.19517 0.81166 0.0
C1372 C 0.35396 0.18633 0.79096 0.0
C1373 C 0.36195 0.16695 0.72948 0.0
C1374 C 0.35965 0.17397 0.75066 0.0
H1375 H 0.3656 0.18519 0.85998 0.0
H1376 H 0.37323 0.17172 0.82599 0.0
H1377 H 0.30702 0.17518 0.78262 0.0
H1378 H 0.33724 0.17476 0.68367 0.0
H1379 H 0.34025 0.19255 0.71788 0.0
C1380 C 0.31432 0.20538 0.97634 0.0
C1381 C 0.33147 0.22667 0.96118 0.0
C1382 C 0.29983 0.21368 0.99119 0.0
C1383 C 0.2694 0.26714 1.00079 0.0
H1384 H 0.28182 0.25714 0.05645 0.0
C1385 C 0.26388 0.32356 0.07983 0.0
C1386 C 0.23356 0.31944 0.07988 0.0
C1387 C 0.27272 0.30897 0.06558 0.0
C1388 C 0.27801 0.25993 0.04095 0.0
H1389 H 0.34797 0.27367 0.95013 0.0
H1390 H 0.32238 0.2878 0.97563 0.0
H1391 H 0.30305 0.23718 0.03123 0.0
H1392 H 0.18912 0.29783 0.06449 0.0
H1393 H 0.20495 0.27283 0.03902 0.0
H1394 H 0.24481 0.29034 1.01048 0.0
C1395 C 0.31973 0.26464 0.976 0.0
C1396 C 0.28997 0.24831 0.02654 0.0
C1397 C 0.33453 0.25657 0.96145 0.0
C1398 C 0.21256 0.30124 0.06488 0.0
C1399 C 0.22161 0.28695 0.05035 0.0
C1400 C 0.25705 0.27836 1.0152 0.0
C1401 C 0.302 0.24326 0.99096 0.0
C1402 C 0.2864 0.25241 1.0063 0.0
C1403 C 0.25171 0.29039 0.05071 0.0
C1404 C 0.26181 0.2755 0.03544 0.0
H1405 H 0.31172 0.18224 0.97655 0.0
H1406 H 0.2864 0.19677 1.00259 0.0
H1407 H 0.26604 0.27039 0.98529 0.0
H1408 H 0.28079 0.33789 0.09101 0.0
H1409 H 0.29625 0.3126 0.06604 0.0
C1410 C 0.08449 0.32904 0.45683 0.0
C1411 C 0.1084 0.3216 0.45534 0.0
C1412 C 0.0621 0.31625 0.47186 0.0
C1413 C 0.02699 0.25216 0.50922 0.0
H1414 H 0.99707 0.3048 0.53145 0.0
C1415 C 0.92086 0.20507 0.56378 0.0
C1416 C 0.92287 0.22535 0.57905 0.0
C1417 C 0.94366 0.21568 0.54875 0.0
C1418 C 1.00529 0.28976 0.52561 0.0
H1419 H 0.12806 0.29542 0.46875 0.0
H1420 H 0.08925 0.27355 0.49556 0.0
H1421 H 0.03745 0.32579 0.50627 0.0
H1422 H 0.95019 0.27257 0.59051 0.0
H1423 H 0.99009 0.29061 0.565 0.0
H1424 H 0.99527 0.2164 0.52919 0.0
C1425 C 0.08739 0.28874 0.48474 0.0
C1426 C 0.02826 0.30172 0.51088 0.0
C1427 C 0.1098 0.30147 0.46951 0.0
C1428 C 0.94803 0.25627 0.57901 0.0
C1429 C 0.97081 0.26675 0.5642 0.0
C1430 C 1.00402 0.24018 0.52412 0.0
C1431 C 0.06322 0.29602 0.48611 0.0
C1432 C 0.03937 0.28311 0.50236 0.0
C1433 C 0.96889 0.24677 0.54872 0.0
C1434 C 0.99289 0.25887 0.53255 0.0
H1435 H 0.08281 0.34457 0.44617 0.0
H1436 H 0.04363 0.32202 0.47211 0.0
H1437 H 0.0347 0.237 0.5029 0.0
H1438 H 0.90168 0.18112 0.56342 0.0
H1439 H 0.9412 0.19968 0.53699 0.0
C1440 C 0.72909 0.91723 0.06478 0.0
C1441 C 0.7104 0.91967 0.07959 0.0
C1442 C 0.74262 0.94015 0.04991 0.0
C1443 C 0.74899 0.98227 1.01397 0.0
H1444 H 0.79017 0.07008 0.02872 0.0
C1445 C 0.77075 0.0805 0.95891 0.0
C1446 C 0.80109 0.10666 0.95805 0.0
C1447 C 0.76245 0.05804 0.9738 0.0
C1448 C 0.77898 0.04569 0.0244 0.0
H1449 H 0.69036 0.94738 0.09003 0.0
H1450 H 0.71458 0.98762 0.06453 0.0
H1451 H 0.77054 0.0297 0.05456 0.0
H1452 H 0.84607 0.13071 0.97279 0.0
H1453 H 0.8311 0.09172 0.99948 0.0
H1454 H 0.75649 0.99822 0.98381 0.0
C1455 C 0.71905 0.96824 0.06446 0.0
C1456 C 0.76757 0.02258 0.03916 0.0
C1457 C 0.70511 0.94513 0.07904 0.0
C1458 C 0.82259 0.11066 0.97301 0.0
C1459 C 0.81405 0.08837 0.98822 0.0
C1460 C 0.75991 1.00536 0.99922 0.0
C1461 C 0.738 0.96609 0.04975 0.0
C1462 C 0.75216 0.99061 0.0341 0.0
C1463 C 0.78402 0.06156 0.98856 0.0
C1464 C 0.77471 0.0373 1.00427 0.0
H1465 H 0.73339 0.89775 0.06476 0.0
H1466 H 0.75706 0.93785 0.03872 0.0
H1467 H 0.73711 0.95786 1.00963 0.0
H1468 H 0.75349 0.07701 0.94776 0.0
H1469 H 0.73898 0.03795 0.97387 0.0
C1470 C 0.81828 0.7132 0.56372 0.0
C1471 C 0.79735 0.69397 0.57846 0.0
C1472 C 0.80799 0.7251 0.54837 0.0
C1473 C 0.73551 0.71105 0.52263 0.0
H1474 H 0.78605 0.79707 0.50504 0.0
C1475 C 0.69927 0.7579 0.45548 0.0
C1476 C 0.70355 0.78822 0.45669 0.0
C1477 C 0.71203 0.74705 0.4698 0.0
C1478 C 0.77155 0.77305 0.50987 0.0
H1479 H 0.74924 0.67177 0.58855 0.0
H1480 H 0.73145 0.69259 0.56213 0.0
H1481 H 0.80587 0.7768 0.53092 0.0
H1482 H 0.72433 0.83092 0.47395 0.0
H1483 H 0.74629 0.81181 0.4993 0.0
H1484 H 0.70089 0.70737 0.50207 0.0
C1485 C 0.7557 0.69836 0.56216 0.0
C1486 C 0.78309 0.76131 0.52454 0.0
C1487 C 0.76596 0.68657 0.57742 0.0
C1488 C 0.72076 0.80747 0.47262 0.0
C1489 C 0.73353 0.79658 0.48704 0.0
C1490 C 0.72402 0.72274 0.50801 0.0
C1491 C 0.77652 0.7178 0.54741 0.0
C1492 C 0.76511 0.73019 0.5312 0.0
C1493 C 0.7292 0.76614 0.48585 0.0
C1494 C 0.74181 0.75391 0.50144 0.0
H1495 H 0.84262 0.71929 0.56418 0.0
H1496 H 0.8246 0.73976 0.53716 0.0
H1497 H 0.72112 0.68687 0.52719 0.0
H1498 H 0.68601 0.74246 0.4434 0.0
H1499 H 0.70856 0.72369 0.46819 0.0
C1500 C 0.9387 0.68554 0.96 0.0
C1501 C 0.91539 0.69382 0.95841 0.0
C1502 C 0.96092 0.69766 0.97514 0.0
C1503 C 0.99807 0.76218 1.01188 0.0
H1504 H 0.02605 0.70818 0.03452 0.0
C1505 C 0.1062 0.8082 0.06472 0.0
C1506 C 0.10389 0.78844 0.08043 0.0
C1507 C 0.08288 0.79759 0.05002 0.0
C1508 C 0.0184 0.72363 0.02856 0.0
H1509 H 0.89664 0.72082 0.97178 0.0
H1510 H 0.93531 0.74169 0.99877 0.0
H1511 H 0.98483 0.68748 1.00986 0.0
H1512 H 0.07557 0.74207 0.09295 0.0
H1513 H 0.03492 0.72395 0.0679 0.0
H1514 H 0.03136 0.79816 0.03109 0.0
C1515 C 0.93669 0.7262 0.98797 0.0
C1516 C 0.99491 0.71179 1.01415 0.0
C1517 C 0.91433 0.71402 0.97266 0.0
C1518 C 0.07803 0.75792 0.08106 0.0
C1519 C 0.05476 0.74743 0.06655 0.0
C1520 C 0.02162 0.77406 0.02642 0.0
C1521 C 0.96036 0.71819 0.98937 0.0
C1522 C 0.98448 0.73088 1.00547 0.0
C1523 C 0.05684 0.76696 0.05072 0.0
C1524 C 0.03212 0.7549 0.03497 0.0
H1525 H 0.94018 0.67005 0.94923 0.0
H1526 H 0.97898 0.69132 0.97542 0.0
H1527 H 0.99089 0.7777 1.00542 0.0
H1528 H 0.12594 0.83181 0.06382 0.0
H1529 H 0.0855 0.81321 0.03797 0.0
C1530 C 0.25865 0.94382 0.45889 0.0
C1531 C 0.22847 0.91749 0.4576 0.0
C1532 C 0.26632 0.96573 0.47406 0.0
C1533 C 0.26806 0.01714 0.50037 0.0
H1534 H 0.25544 0.99003 0.55522 0.0
C1535 C 0.2983 0.10257 0.56725 0.0
C1536 C 0.31674 0.09937 0.5819 0.0
C1537 C 0.28453 0.08012 0.55216 0.0
C1538 C 0.25894 0.99792 0.53996 0.0
H1539 H 0.18306 0.89267 0.47178 0.0
H1540 H 0.19688 0.93067 0.49892 0.0
H1541 H 0.23657 0.95096 0.52862 0.0
H1542 H 0.33594 0.07068 0.59187 0.0
H1543 H 0.31115 0.03115 0.56607 0.0
H1544 H 0.29071 0.06408 0.51168 0.0
C1545 C 0.21432 0.93458 0.48781 0.0
C1546 C 0.24797 0.97556 0.52476 0.0
C1547 C 0.20642 0.91287 0.47232 0.0
C1548 C 0.32124 0.07342 0.58109 0.0
C1549 C 0.30707 0.05078 0.56629 0.0
C1550 C 0.27855 0.03947 0.51556 0.0
C1551 C 0.24425 0.96147 0.48866 0.0
C1552 C 0.25299 0.98495 0.5048 0.0
C1553 C 0.2886 0.05385 0.55162 0.0
C1554 C 0.27466 0.03012 0.53553 0.0
H1555 H 0.27633 0.94777 0.44794 0.0
H1556 H 0.28972 0.98589 0.47451 0.0
H1557 H 0.27205 0.02504 0.48511 0.0
H1558 H 0.29453 0.12239 0.56746 0.0
H1559 H 0.27043 0.08311 0.54103 0.0
loop_
_geom_bond_atom_site_label_1
_geom_bond_atom_site_label_2
_geom_bond_distance
_geom_bond_site_symmetry_2
_ccdc_geom_bond_type
Ho0 C3 2.811 . S
Ho0 O20 2.322 . S
Ho0 O22 2.378 . S
Ho0 O23 2.524 . S
Ho0 O24 2.381 . S
Ho0 O25 2.669 . S
Ho0 O27 2.346 . S
Ho0 O31 2.305 . S
Ho1 C12 2.811 . S
Ho1 O21 2.346 . S
Ho1 O25 2.305 . S
Ho1 O26 2.322 . S
Ho1 O28 2.378 . S
Ho1 O29 2.524 . S
Ho1 O30 2.381 . S
Ho1 O31 2.669 . S
C2 O20 1.259 . S
C2 O21 1.268 . S
C3 Ho0 2.811 . S
C3 C4 1.488 . S
C3 O22 1.215 . S
C3 O23 1.289 . S
C4 C3 1.488 . S
C4 C5 1.348 . S
C4 C9 1.413 . S
C5 C4 1.348 . S
C5 C6 1.442 . S
C5 H32 0.930 . S
C6 C5 1.442 . S
C6 C7 1.381 . S
C6 H33 0.931 . S
C7 C6 1.381 . S
C7 C8 1.321 . S
C8 C7 1.321 . S
C8 C9 1.403 . S
C8 H34 0.934 . S
C9 C4 1.413 . S
C9 C8 1.403 . S
C9 H35 0.930 . S
C10 O24 1.275 . S
C10 O25 1.256 . S
C11 O26 1.259 . S
C11 O27 1.268 . S
C12 Ho1 2.811 . S
C12 C13 1.488 . S
C12 O28 1.215 . S
C12 O29 1.289 . S
C13 C12 1.488 . S
C13 C14 1.348 . S
C13 C18 1.413 . S
C14 C13 1.348 . S
C14 C15 1.442 . S
C14 H36 0.930 . S
C15 C14 1.442 . S
C15 C16 1.381 . S
C15 H37 0.931 . S
C16 C15 1.381 . S
C16 C17 1.321 . S
C17 C16 1.321 . S
C17 C18 1.403 . S
C17 H38 0.934 . S
C18 C13 1.413 . S
C18 C17 1.403 . S
C18 H39 0.930 . S
C19 O30 1.275 . S
C19 O31 1.256 . S
O20 Ho0 2.322 . S
O20 C2 1.259 . S
O21 Ho1 2.346 . S
O21 C2 1.268 . S
O22 Ho0 2.378 . S
O22 C3 1.215 . S
O23 Ho0 2.524 . S
O23 C3 1.289 . S
O24 Ho0 2.381 . S
O24 C10 1.275 . S
O25 Ho0 2.669 . S
O25 Ho1 2.305 . S
O25 C10 1.256 . S
O26 Ho1 2.322 . S
O26 C11 1.259 . S
O27 Ho0 2.346 . S
O27 C11 1.268 . S
O28 Ho1 2.378 . S
O28 C12 1.215 . S
O29 Ho1 2.524 . S
O29 C12 1.289 . S
O30 Ho1 2.381 . S
O30 C19 1.275 . S
O31 Ho0 2.305 . S
O31 Ho1 2.669 . S
O31 C19 1.256 . S
H32 C5 0.930 . S
H33 C6 0.931 . S
H34 C8 0.934 . S
H35 C9 0.930 . S
H36 C14 0.930 . S
H37 C15 0.931 . S
H38 C17 0.934 . S
H39 C18 0.930 . S
Ho40 C43 2.811 . S
Ho40 O60 2.322 . S
Ho40 O62 2.378 . S
Ho40 O63 2.524 . S
Ho40 O64 2.381 . S
Ho40 O65 2.669 . S
Ho40 O67 2.346 . S
Ho40 O71 2.305 . S
Ho41 C52 2.811 . S
Ho41 O61 2.346 . S
Ho41 O65 2.305 . S
Ho41 O66 2.322 . S
Ho41 O68 2.378 . S
Ho41 O69 2.524 . S
Ho41 O70 2.381 . S
Ho41 O71 2.669 . S
C42 O60 1.259 . S
C42 O61 1.268 . S
C43 Ho40 2.811 . S
C43 C44 1.488 . S
C43 O62 1.215 . S
C43 O63 1.289 . S
C44 C43 1.488 . S
C44 C45 1.348 . S
C44 C49 1.413 . S
C45 C44 1.348 . S
C45 C46 1.442 . S
C45 H72 0.930 . S
C46 C45 1.442 . S
C46 C47 1.381 . S
C46 H73 0.931 . S
C47 C46 1.381 . S
C47 C48 1.321 . S
C48 C47 1.321 . S
C48 C49 1.403 . S
C48 H74 0.934 . S
C49 C44 1.413 . S
C49 C48 1.403 . S
C49 H75 0.930 . S
C50 O64 1.275 . S
C50 O65 1.256 . S
C51 O66 1.259 . S
C51 O67 1.268 . S
C52 Ho41 2.811 . S
C52 C53 1.488 . S
C52 O68 1.215 . S
C52 O69 1.289 . S
C53 C52 1.488 . S
C53 C54 1.348 . S
C53 C58 1.413 . S
C54 C53 1.348 . S
C54 C55 1.442 1_655 S
C54 H76 0.930 . S
C55 C54 1.442 1_455 S
C55 C56 1.381 . S
C55 H77 0.931 . S
C56 C55 1.381 . S
C56 C57 1.321 . S
C57 C56 1.321 . S
C57 C58 1.403 1_455 S
C57 H78 0.934 . S
C58 C53 1.413 . S
C58 C57 1.403 1_655 S
C58 H79 0.930 . S
C59 O70 1.275 . S
C59 O71 1.256 . S
O60 Ho40 2.322 . S
O60 C42 1.259 . S
O61 Ho41 2.346 . S
O61 C42 1.268 . S
O62 Ho40 2.378 . S
O62 C43 1.215 . S
O63 Ho40 2.524 . S
O63 C43 1.289 . S
O64 Ho40 2.381 . S
O64 C50 1.275 . S
O65 Ho40 2.669 . S
O65 Ho41 2.305 . S
O65 C50 1.256 . S
O66 Ho41 2.322 . S
O66 C51 1.259 . S
O67 Ho40 2.346 . S
O67 C51 1.268 . S
O68 Ho41 2.378 . S
O68 C52 1.215 . S
O69 Ho41 2.524 . S
O69 C52 1.289 . S
O70 Ho41 2.381 . S
O70 C59 1.275 . S
O71 Ho40 2.305 . S
O71 Ho41 2.669 . S
O71 C59 1.256 . S
H72 C45 0.930 . S
H73 C46 0.931 . S
H74 C48 0.934 . S
H75 C49 0.930 . S
H76 C54 0.930 . S
H77 C55 0.931 . S
H78 C57 0.934 . S
H79 C58 0.930 . S
Ho80 C83 2.811 . S
Ho80 O100 2.322 . S
Ho80 O102 2.378 . S
Ho80 O103 2.524 . S
Ho80 O104 2.381 . S
Ho80 O105 2.669 . S
Ho80 O107 2.346 . S
Ho80 O111 2.305 . S
Ho81 C92 2.811 . S
Ho81 O101 2.346 . S
Ho81 O105 2.305 . S
Ho81 O106 2.322 . S
Ho81 O108 2.378 . S
Ho81 O109 2.524 . S
Ho81 O110 2.381 . S
Ho81 O111 2.669 . S
C82 O100 1.259 . S
C82 O101 1.268 . S
C83 Ho80 2.811 . S
C83 C84 1.488 . S
C83 O102 1.215 . S
C83 O103 1.289 . S
C84 C83 1.488 . S
C84 C85 1.348 . S
C84 C89 1.413 . S
C85 C84 1.348 . S
C85 C86 1.442 . S
C85 H112 0.930 . S
C86 C85 1.442 . S
C86 C87 1.381 . S
C86 H113 0.931 . S
C87 C86 1.381 . S
C87 C88 1.321 . S
C88 C87 1.321 . S
C88 C89 1.403 . S
C88 H114 0.934 . S
C89 C84 1.413 . S
C89 C88 1.403 . S
C89 H115 0.930 . S
C90 O104 1.275 . S
C90 O105 1.256 . S
C91 O106 1.259 . S
C91 O107 1.268 . S
C92 Ho81 2.811 . S
C92 C93 1.488 . S
C92 O108 1.215 . S
C92 O109 1.289 . S
C93 C92 1.488 . S
C93 C94 1.348 . S
C93 C98 1.413 . S
C94 C93 1.348 . S
C94 C95 1.442 1_565 S
C94 H116 0.930 . S
C95 C94 1.442 1_545 S
C95 C96 1.381 . S
C95 H117 0.931 . S
C96 C95 1.381 . S
C96 C97 1.321 . S
C97 C96 1.321 . S
C97 C98 1.403 1_545 S
C97 H118 0.934 . S
C98 C93 1.413 . S
C98 C97 1.403 1_565 S
C98 H119 0.930 . S
C99 O110 1.275 . S
C99 O111 1.256 . S
O100 Ho80 2.322 . S
O100 C82 1.259 . S
O101 Ho81 2.346 . S
O101 C82 1.268 . S
O102 Ho80 2.378 . S
O102 C83 1.215 . S
O103 Ho80 2.524 . S
O103 C83 1.289 . S
O104 Ho80 2.381 . S
O104 C90 1.275 . S
O105 Ho80 2.669 . S
O105 Ho81 2.305 . S
O105 C90 1.256 . S
O106 Ho81 2.322 . S
O106 C91 1.259 . S
O107 Ho80 2.346 . S
O107 C91 1.268 . S
O108 Ho81 2.378 . S
O108 C92 1.215 . S
O109 Ho81 2.524 . S
O109 C92 1.289 . S
O110 Ho81 2.381 . S
O110 C99 1.275 . S
O111 Ho80 2.305 . S
O111 Ho81 2.669 . S
O111 C99 1.256 . S
H112 C85 0.930 . S
H113 C86 0.931 . S
H114 C88 0.934 . S
H115 C89 0.930 . S
H116 C94 0.930 . S
H117 C95 0.931 . S
H118 C97 0.934 . S
H119 C98 0.930 . S
Ho120 C123 2.811 . S
Ho120 O140 2.322 . S
Ho120 O142 2.378 . S
Ho120 O143 2.524 . S
Ho120 O144 2.381 . S
Ho120 O145 2.669 . S
Ho120 O147 2.346 . S
Ho120 O151 2.305 . S
Ho121 C132 2.811 . S
Ho121 O141 2.346 . S
Ho121 O145 2.305 . S
Ho121 O146 2.322 . S
Ho121 O148 2.378 . S
Ho121 O149 2.524 . S
Ho121 O150 2.381 . S
Ho121 O151 2.669 . S
C122 O140 1.259 . S
C122 O141 1.268 . S
C123 Ho120 2.811 . S
C123 C124 1.488 . S
C123 O142 1.215 . S
C123 O143 1.289 . S
C124 C123 1.488 . S
C124 C125 1.348 . S
C124 C129 1.413 . S
C125 C124 1.348 . S
C125 C126 1.442 . S
C125 H152 0.930 . S
C126 C125 1.442 . S
C126 C127 1.381 . S
C126 H153 0.931 . S
C127 C126 1.381 . S
C127 C128 1.321 . S
C128 C127 1.321 . S
C128 C129 1.403 . S
C128 H154 0.934 . S
C129 C124 1.413 . S
C129 C128 1.403 . S
C129 H155 0.930 . S
C130 O144 1.275 . S
C130 O145 1.256 . S
C131 O146 1.259 . S
C131 O147 1.268 . S
C132 Ho121 2.811 . S
C132 C133 1.488 . S
C132 O148 1.215 . S
C132 O149 1.289 . S
C133 C132 1.488 . S
C133 C134 1.348 . S
C133 C138 1.413 . S
C134 C133 1.348 . S
C134 C135 1.442 . S
C134 H156 0.930 . S
C135 C134 1.442 . S
C135 C136 1.381 . S
C135 H157 0.931 . S
C136 C135 1.381 . S
C136 C137 1.321 . S
C137 C136 1.321 . S
C137 C138 1.403 . S
C137 H158 0.934 . S
C138 C133 1.413 . S
C138 C137 1.403 . S
C138 H159 0.930 . S
C139 O150 1.275 . S
C139 O151 1.256 . S
O140 Ho120 2.322 . S
O140 C122 1.259 . S
O141 Ho121 2.346 . S
O141 C122 1.268 . S
O142 Ho120 2.378 . S
O142 C123 1.215 . S
O143 Ho120 2.524 . S
O143 C123 1.289 . S
O144 Ho120 2.381 . S
O144 C130 1.275 . S
O145 Ho120 2.669 . S
O145 Ho121 2.305 . S
O145 C130 1.256 . S
O146 Ho121 2.322 . S
O146 C131 1.259 . S
O147 Ho120 2.346 . S
O147 C131 1.268 . S
O148 Ho121 2.378 . S
O148 C132 1.215 . S
O149 Ho121 2.524 . S
O149 C132 1.289 . S
O150 Ho121 2.381 . S
O150 C139 1.275 . S
O151 Ho120 2.305 . S
O151 Ho121 2.669 . S
O151 C139 1.256 . S
H152 C125 0.930 . S
H153 C126 0.931 . S
H154 C128 0.934 . S
H155 C129 0.930 . S
H156 C134 0.930 . S
H157 C135 0.931 . S
H158 C137 0.934 . S
H159 C138 0.930 . S
Ho160 C163 2.811 . S
Ho160 O180 2.322 . S
Ho160 O182 2.378 . S
Ho160 O183 2.524 . S
Ho160 O184 2.381 . S
Ho160 O185 2.669 . S
Ho160 O187 2.346 . S
Ho160 O191 2.305 . S
Ho161 C172 2.811 . S
Ho161 O181 2.346 . S
Ho161 O185 2.305 . S
Ho161 O186 2.322 . S
Ho161 O188 2.378 . S
Ho161 O189 2.524 . S
Ho161 O190 2.381 . S
Ho161 O191 2.669 . S
C162 O180 1.259 . S
C162 O181 1.268 . S
C163 Ho160 2.811 . S
C163 C164 1.488 . S
C163 O182 1.215 . S
C163 O183 1.289 . S
C164 C163 1.488 . S
C164 C165 1.348 . S
C164 C169 1.413 . S
C165 C164 1.348 . S
C165 C166 1.442 . S
C165 H192 0.930 . S
C166 C165 1.442 . S
C166 C167 1.381 . S
C166 H193 0.931 . S
C167 C166 1.381 . S
C167 C168 1.321 . S
C168 C167 1.321 . S
C168 C169 1.403 . S
C168 H194 0.934 . S
C169 C164 1.413 . S
C169 C168 1.403 . S
C169 H195 0.930 . S
C170 O184 1.275 . S
C170 O185 1.256 . S
C171 O186 1.259 . S
C171 O187 1.268 . S
C172 Ho161 2.811 . S
C172 C173 1.488 . S
C172 O188 1.215 . S
C172 O189 1.289 . S
C173 C172 1.488 . S
C173 C174 1.348 . S
C173 C178 1.413 . S
C174 C173 1.348 . S
C174 C175 1.442 1_455 S
C174 H196 0.930 . S
C175 C174 1.442 1_655 S
C175 C176 1.381 . S
C175 H197 0.931 . S
C176 C175 1.381 . S
C176 C177 1.321 . S
C177 C176 1.321 . S
C177 C178 1.403 1_655 S
C177 H198 0.934 . S
C178 C173 1.413 . S
C178 C177 1.403 1_455 S
C178 H199 0.930 . S
C179 O190 1.275 . S
C179 O191 1.256 . S
O180 Ho160 2.322 . S
O180 C162 1.259 . S
O181 Ho161 2.346 . S
O181 C162 1.268 . S
O182 Ho160 2.378 . S
O182 C163 1.215 . S
O183 Ho160 2.524 . S
O183 C163 1.289 . S
O184 Ho160 2.381 . S
O184 C170 1.275 . S
O185 Ho160 2.669 . S
O185 Ho161 2.305 . S
O185 C170 1.256 . S
O186 Ho161 2.322 . S
O186 C171 1.259 . S
O187 Ho160 2.346 . S
O187 C171 1.268 . S
O188 Ho161 2.378 . S
O188 C172 1.215 . S
O189 Ho161 2.524 . S
O189 C172 1.289 . S
O190 Ho161 2.381 . S
O190 C179 1.275 . S
O191 Ho160 2.305 . S
O191 Ho161 2.669 . S
O191 C179 1.256 . S
H192 C165 0.930 . S
H193 C166 0.931 . S
H194 C168 0.934 . S
H195 C169 0.930 . S
H196 C174 0.930 . S
H197 C175 0.931 . S
H198 C177 0.934 . S
H199 C178 0.930 . S
Ho200 C203 2.811 . S
Ho200 O220 2.322 . S
Ho200 O222 2.378 . S
Ho200 O223 2.524 . S
Ho200 O224 2.381 . S
Ho200 O225 2.669 . S
Ho200 O227 2.346 . S
Ho200 O231 2.305 . S
Ho201 C212 2.811 . S
Ho201 O221 2.346 . S
Ho201 O225 2.305 . S
Ho201 O226 2.322 . S
Ho201 O228 2.378 . S
Ho201 O229 2.524 . S
Ho201 O230 2.381 . S
Ho201 O231 2.669 . S
C202 O220 1.259 . S
C202 O221 1.268 . S
C203 Ho200 2.811 . S
C203 C204 1.488 . S
C203 O222 1.215 . S
C203 O223 1.289 . S
C204 C203 1.488 . S
C204 C205 1.348 . S
C204 C209 1.413 . S
C205 C204 1.348 . S
C205 C206 1.442 . S
C205 H232 0.930 . S
C206 C205 1.442 . S
C206 C207 1.381 . S
C206 H233 0.931 . S
C207 C206 1.381 . S
C207 C208 1.321 . S
C208 C207 1.321 . S
C208 C209 1.403 . S
C208 H234 0.934 . S
C209 C204 1.413 . S
C209 C208 1.403 . S
C209 H235 0.930 . S
C210 O224 1.275 . S
C210 O225 1.256 . S
C211 O226 1.259 . S
C211 O227 1.268 . S
C212 Ho201 2.811 . S
C212 C213 1.488 . S
C212 O228 1.215 . S
C212 O229 1.289 . S
C213 C212 1.488 . S
C213 C214 1.348 . S
C213 C218 1.413 . S
C214 C213 1.348 . S
C214 C215 1.442 1_545 S
C214 H236 0.930 . S
C215 C214 1.442 1_565 S
C215 C216 1.381 . S
C215 H237 0.931 . S
C216 C215 1.381 . S
C216 C217 1.321 . S
C217 C216 1.321 . S
C217 C218 1.403 1_565 S
C217 H238 0.934 . S
C218 C213 1.413 . S
C218 C217 1.403 1_545 S
C218 H239 0.930 . S
C219 O230 1.275 . S
C219 O231 1.256 . S
O220 Ho200 2.322 . S
O220 C202 1.259 . S
O221 Ho201 2.346 . S
O221 C202 1.268 . S
O222 Ho200 2.378 . S
O222 C203 1.215 . S
O223 Ho200 2.524 . S
O223 C203 1.289 . S
O224 Ho200 2.381 . S
O224 C210 1.275 . S
O225 Ho200 2.669 . S
O225 Ho201 2.305 . S
O225 C210 1.256 . S
O226 Ho201 2.322 . S
O226 C211 1.259 . S
O227 Ho200 2.346 . S
O227 C211 1.268 . S
O228 Ho201 2.378 . S
O228 C212 1.215 . S
O229 Ho201 2.524 . S
O229 C212 1.289 . S
O230 Ho201 2.381 . S
O230 C219 1.275 . S
O231 Ho200 2.305 . S
O231 Ho201 2.669 . S
O231 C219 1.256 . S
H232 C205 0.930 . S
H233 C206 0.931 . S
H234 C208 0.934 . S
H235 C209 0.930 . S
H236 C214 0.930 . S
H237 C215 0.931 . S
H238 C217 0.934 . S
H239 C218 0.930 . S
Ho240 C243 2.811 . S
Ho240 O260 2.322 . S
Ho240 O262 2.378 . S
Ho240 O263 2.524 . S
Ho240 O264 2.381 . S
Ho240 O265 2.669 . S
Ho240 O267 2.346 . S
Ho240 O271 2.305 . S
Ho241 C252 2.811 . S
Ho241 O261 2.346 . S
Ho241 O265 2.305 . S
Ho241 O266 2.322 . S
Ho241 O268 2.378 . S
Ho241 O269 2.524 . S
Ho241 O270 2.381 . S
Ho241 O271 2.669 . S
C242 O260 1.259 . S
C242 O261 1.268 . S
C243 Ho240 2.811 . S
C243 C244 1.488 . S
C243 O262 1.215 . S
C243 O263 1.289 . S
C244 C243 1.488 . S
C244 C245 1.348 . S
C244 C249 1.413 . S
C245 C244 1.348 . S
C245 C246 1.442 . S
C245 H272 0.930 . S
C246 C245 1.442 . S
C246 C247 1.381 . S
C246 H273 0.931 . S
C247 C246 1.381 . S
C247 C248 1.321 . S
C248 C247 1.321 . S
C248 C249 1.403 . S
C248 H274 0.934 . S
C249 C244 1.413 . S
C249 C248 1.403 . S
C249 H275 0.930 . S
C250 O264 1.275 . S
C250 O265 1.256 . S
C251 O266 1.259 . S
C251 O267 1.268 . S
C252 Ho241 2.811 . S
C252 C253 1.488 . S
C252 O268 1.215 . S
C252 O269 1.289 . S
C253 C252 1.488 . S
C253 C254 1.348 . S
C253 C258 1.413 . S
C254 C253 1.348 . S
C254 C255 1.442 . S
C254 H276 0.930 . S
C255 C254 1.442 . S
C255 C256 1.381 . S
C255 H277 0.931 . S
C256 C255 1.381 . S
C256 C257 1.321 . S
C257 C256 1.321 . S
C257 C258 1.403 . S
C257 H278 0.934 . S
C258 C253 1.413 . S
C258 C257 1.403 . S
C258 H279 0.930 . S
C259 O270 1.275 . S
C259 O271 1.256 . S
O260 Ho240 2.322 . S
O260 C242 1.259 . S
O261 Ho241 2.346 . S
O261 C242 1.268 . S
O262 Ho240 2.378 . S
O262 C243 1.215 . S
O263 Ho240 2.524 . S
O263 C243 1.289 . S
O264 Ho240 2.381 . S
O264 C250 1.275 . S
O265 Ho240 2.669 . S
O265 Ho241 2.305 . S
O265 C250 1.256 . S
O266 Ho241 2.322 . S
O266 C251 1.259 . S
O267 Ho240 2.346 . S
O267 C251 1.268 . S
O268 Ho241 2.378 . S
O268 C252 1.215 . S
O269 Ho241 2.524 . S
O269 C252 1.289 . S
O270 Ho241 2.381 . S
O270 C259 1.275 . S
O271 Ho240 2.305 . S
O271 Ho241 2.669 . S
O271 C259 1.256 . S
H272 C245 0.930 . S
H273 C246 0.931 . S
H274 C248 0.934 . S
H275 C249 0.930 . S
H276 C254 0.930 . S
H277 C255 0.931 . S
H278 C257 0.934 . S
H279 C258 0.930 . S
Ho280 C283 2.811 . S
Ho280 O300 2.322 . S
Ho280 O302 2.378 . S
Ho280 O303 2.524 . S
Ho280 O304 2.381 . S
Ho280 O305 2.669 . S
Ho280 O307 2.346 . S
Ho280 O311 2.305 . S
Ho281 C292 2.811 . S
Ho281 O301 2.346 . S
Ho281 O305 2.305 . S
Ho281 O306 2.322 . S
Ho281 O308 2.378 . S
Ho281 O309 2.524 . S
Ho281 O310 2.381 . S
Ho281 O311 2.669 . S
C282 O300 1.259 . S
C282 O301 1.268 . S
C283 Ho280 2.811 . S
C283 C284 1.488 . S
C283 O302 1.215 . S
C283 O303 1.289 . S
C284 C283 1.488 . S
C284 C285 1.348 . S
C284 C289 1.413 . S
C285 C284 1.348 . S
C285 C286 1.442 . S
C285 H312 0.930 . S
C286 C285 1.442 . S
C286 C287 1.381 . S
C286 H313 0.931 . S
C287 C286 1.381 . S
C287 C288 1.321 . S
C288 C287 1.321 . S
C288 C289 1.403 . S
C288 H314 0.934 . S
C289 C284 1.413 . S
C289 C288 1.403 . S
C289 H315 0.930 . S
C290 O304 1.275 . S
C290 O305 1.256 . S
C291 O306 1.259 . S
C291 O307 1.268 . S
C292 Ho281 2.811 . S
C292 C293 1.488 . S
C292 O308 1.215 . S
C292 O309 1.289 . S
C293 C292 1.488 . S
C293 C294 1.348 . S
C293 C298 1.413 . S
C294 C293 1.348 . S
C294 C295 1.442 1_655 S
C294 H316 0.930 . S
C295 C294 1.442 1_455 S
C295 C296 1.381 . S
C295 H317 0.931 . S
C296 C295 1.381 . S
C296 C297 1.321 . S
C297 C296 1.321 . S
C297 C298 1.403 1_455 S
C297 H318 0.934 . S
C298 C293 1.413 . S
C298 C297 1.403 1_655 S
C298 H319 0.930 . S
C299 O310 1.275 . S
C299 O311 1.256 . S
O300 Ho280 2.322 . S
O300 C282 1.259 . S
O301 Ho281 2.346 . S
O301 C282 1.268 . S
O302 Ho280 2.378 . S
O302 C283 1.215 . S
O303 Ho280 2.524 . S
O303 C283 1.289 . S
O304 Ho280 2.381 . S
O304 C290 1.275 . S
O305 Ho280 2.669 . S
O305 Ho281 2.305 . S
O305 C290 1.256 . S
O306 Ho281 2.322 . S
O306 C291 1.259 . S
O307 Ho280 2.346 . S
O307 C291 1.268 . S
O308 Ho281 2.378 . S
O308 C292 1.215 . S
O309 Ho281 2.524 . S
O309 C292 1.289 . S
O310 Ho281 2.381 . S
O310 C299 1.275 . S
O311 Ho280 2.305 . S
O311 Ho281 2.669 . S
O311 C299 1.256 . S
H312 C285 0.930 . S
H313 C286 0.931 . S
H314 C288 0.934 . S
H315 C289 0.930 . S
H316 C294 0.930 . S
H317 C295 0.931 . S
H318 C297 0.934 . S
H319 C298 0.930 . S
Ho320 C323 2.811 . S
Ho320 O340 2.322 . S
Ho320 O342 2.378 . S
Ho320 O343 2.524 . S
Ho320 O344 2.381 . S
Ho320 O345 2.669 . S
Ho320 O347 2.346 . S
Ho320 O351 2.305 . S
Ho321 C332 2.811 . S
Ho321 O341 2.346 . S
Ho321 O345 2.305 . S
Ho321 O346 2.322 . S
Ho321 O348 2.378 . S
Ho321 O349 2.524 . S
Ho321 O350 2.381 . S
Ho321 O351 2.669 . S
C322 O340 1.259 . S
C322 O341 1.268 . S
C323 Ho320 2.811 . S
C323 C324 1.488 . S
C323 O342 1.215 . S
C323 O343 1.289 . S
C324 C323 1.488 . S
C324 C325 1.348 . S
C324 C329 1.413 . S
C325 C324 1.348 . S
C325 C326 1.442 . S
C325 H352 0.930 . S
C326 C325 1.442 . S
C326 C327 1.381 . S
C326 H353 0.931 . S
C327 C326 1.381 . S
C327 C328 1.321 . S
C328 C327 1.321 . S
C328 C329 1.403 . S
C328 H354 0.934 . S
C329 C324 1.413 . S
C329 C328 1.403 . S
C329 H355 0.930 . S
C330 O344 1.275 . S
C330 O345 1.256 . S
C331 O346 1.259 . S
C331 O347 1.268 . S
C332 Ho321 2.811 . S
C332 C333 1.488 . S
C332 O348 1.215 . S
C332 O349 1.289 . S
C333 C332 1.488 . S
C333 C334 1.348 . S
C333 C338 1.413 . S
C334 C333 1.348 . S
C334 C335 1.442 1_565 S
C334 H356 0.930 . S
C335 C334 1.442 1_545 S
C335 C336 1.381 . S
C335 H357 0.931 . S
C336 C335 1.381 . S
C336 C337 1.321 . S
C337 C336 1.321 . S
C337 C338 1.403 1_545 S
C337 H358 0.934 . S
C338 C333 1.413 . S
C338 C337 1.403 1_565 S
C338 H359 0.930 . S
C339 O350 1.275 . S
C339 O351 1.256 . S
O340 Ho320 2.322 . S
O340 C322 1.259 . S
O341 Ho321 2.346 . S
O341 C322 1.268 . S
O342 Ho320 2.378 . S
O342 C323 1.215 . S
O343 Ho320 2.524 . S
O343 C323 1.289 . S
O344 Ho320 2.381 . S
O344 C330 1.275 . S
O345 Ho320 2.669 . S
O345 Ho321 2.305 . S
O345 C330 1.256 . S
O346 Ho321 2.322 . S
O346 C331 1.259 . S
O347 Ho320 2.346 . S
O347 C331 1.268 . S
O348 Ho321 2.378 . S
O348 C332 1.215 . S
O349 Ho321 2.524 . S
O349 C332 1.289 . S
O350 Ho321 2.381 . S
O350 C339 1.275 . S
O351 Ho320 2.305 . S
O351 Ho321 2.669 . S
O351 C339 1.256 . S
H352 C325 0.930 . S
H353 C326 0.931 . S
H354 C328 0.934 . S
H355 C329 0.930 . S
H356 C334 0.930 . S
H357 C335 0.931 . S
H358 C337 0.934 . S
H359 C338 0.930 . S
Ho360 C363 2.811 . S
Ho360 O380 2.322 . S
Ho360 O382 2.378 . S
Ho360 O383 2.524 . S
Ho360 O384 2.381 . S
Ho360 O385 2.669 . S
Ho360 O387 2.346 . S
Ho360 O391 2.305 . S
Ho361 C372 2.811 . S
Ho361 O381 2.346 . S
Ho361 O385 2.305 . S
Ho361 O386 2.322 . S
Ho361 O388 2.378 . S
Ho361 O389 2.524 . S
Ho361 O390 2.381 . S
Ho361 O391 2.669 . S
C362 O380 1.259 . S
C362 O381 1.268 . S
C363 Ho360 2.811 . S
C363 C364 1.488 . S
C363 O382 1.215 . S
C363 O383 1.289 . S
C364 C363 1.488 . S
C364 C365 1.348 . S
C364 C369 1.413 . S
C365 C364 1.348 . S
C365 C366 1.442 . S
C365 H392 0.930 . S
C366 C365 1.442 . S
C366 C367 1.381 . S
C366 H393 0.931 . S
C367 C366 1.381 . S
C367 C368 1.321 . S
C368 C367 1.321 . S
C368 C369 1.403 . S
C368 H394 0.934 . S
C369 C364 1.413 . S
C369 C368 1.403 . S
C369 H395 0.930 . S
C370 O384 1.275 . S
C370 O385 1.256 . S
C371 O386 1.259 . S
C371 O387 1.268 . S
C372 Ho361 2.811 . S
C372 C373 1.488 . S
C372 O388 1.215 . S
C372 O389 1.289 . S
C373 C372 1.488 . S
C373 C374 1.348 . S
C373 C378 1.413 . S
C374 C373 1.348 . S
C374 C375 1.442 . S
C374 H396 0.930 . S
C375 C374 1.442 . S
C375 C376 1.381 . S
C375 H397 0.931 . S
C376 C375 1.381 . S
C376 C377 1.321 . S
C377 C376 1.321 . S
C377 C378 1.403 . S
C377 H398 0.934 . S
C378 C373 1.413 . S
C378 C377 1.403 . S
C378 H399 0.930 . S
C379 O390 1.275 . S
C379 O391 1.256 . S
O380 Ho360 2.322 . S
O380 C362 1.259 . S
O381 Ho361 2.346 . S
O381 C362 1.268 . S
O382 Ho360 2.378 . S
O382 C363 1.215 . S
O383 Ho360 2.524 . S
O383 C363 1.289 . S
O384 Ho360 2.381 . S
O384 C370 1.275 . S
O385 Ho360 2.669 . S
O385 Ho361 2.305 . S
O385 C370 1.256 . S
O386 Ho361 2.322 . S
O386 C371 1.259 . S
O387 Ho360 2.346 . S
O387 C371 1.268 . S
O388 Ho361 2.378 . S
O388 C372 1.215 . S
O389 Ho361 2.524 . S
O389 C372 1.289 . S
O390 Ho361 2.381 . S
O390 C379 1.275 . S
O391 Ho360 2.305 . S
O391 Ho361 2.669 . S
O391 C379 1.256 . S
H392 C365 0.930 . S
H393 C366 0.931 . S
H394 C368 0.934 . S
H395 C369 0.930 . S
H396 C374 0.930 . S
H397 C375 0.931 . S
H398 C377 0.934 . S
H399 C378 0.930 . S
Ho400 C403 2.811 . S
Ho400 O420 2.322 . S
Ho400 O422 2.378 . S
Ho400 O423 2.524 . S
Ho400 O424 2.381 . S
Ho400 O425 2.669 . S
Ho400 O427 2.346 . S
Ho400 O431 2.305 . S
Ho401 C412 2.811 . S
Ho401 O421 2.346 . S
Ho401 O425 2.305 . S
Ho401 O426 2.322 . S
Ho401 O428 2.378 . S
Ho401 O429 2.524 . S
Ho401 O430 2.381 . S
Ho401 O431 2.669 . S
C402 O420 1.259 . S
C402 O421 1.268 . S
C403 Ho400 2.811 . S
C403 C404 1.488 . S
C403 O422 1.215 . S
C403 O423 1.289 . S
C404 C403 1.488 . S
C404 C405 1.348 . S
C404 C409 1.413 . S
C405 C404 1.348 . S
C405 C406 1.442 . S
C405 H432 0.930 . S
C406 C405 1.442 . S
C406 C407 1.381 . S
C406 H433 0.931 . S
C407 C406 1.381 . S
C407 C408 1.321 . S
C408 C407 1.321 . S
C408 C409 1.403 . S
C408 H434 0.934 . S
C409 C404 1.413 . S
C409 C408 1.403 . S
C409 H435 0.930 . S
C410 O424 1.275 . S
C410 O425 1.256 . S
C411 O426 1.259 . S
C411 O427 1.268 . S
C412 Ho401 2.811 . S
C412 C413 1.488 . S
C412 O428 1.215 . S
C412 O429 1.289 . S
C413 C412 1.488 . S
C413 C414 1.348 . S
C413 C418 1.413 . S
C414 C413 1.348 . S
C414 C415 1.442 1_455 S
C414 H436 0.930 . S
C415 C414 1.442 1_655 S
C415 C416 1.381 . S
C415 H437 0.931 . S
C416 C415 1.381 . S
C416 C417 1.321 . S
C417 C416 1.321 . S
C417 C418 1.403 1_655 S
C417 H438 0.934 . S
C418 C413 1.413 . S
C418 C417 1.403 1_455 S
C418 H439 0.930 . S
C419 O430 1.275 . S
C419 O431 1.256 . S
O420 Ho400 2.322 . S
O420 C402 1.259 . S
O421 Ho401 2.346 . S
O421 C402 1.268 . S
O422 Ho400 2.378 . S
O422 C403 1.215 . S
O423 Ho400 2.524 . S
O423 C403 1.289 . S
O424 Ho400 2.381 . S
O424 C410 1.275 . S
O425 Ho400 2.669 . S
O425 Ho401 2.305 . S
O425 C410 1.256 . S
O426 Ho401 2.322 . S
O426 C411 1.259 . S
O427 Ho400 2.346 . S
O427 C411 1.268 . S
O428 Ho401 2.378 . S
O428 C412 1.215 . S
O429 Ho401 2.524 . S
O429 C412 1.289 . S
O430 Ho401 2.381 . S
O430 C419 1.275 . S
O431 Ho400 2.305 . S
O431 Ho401 2.669 . S
O431 C419 1.256 . S
H432 C405 0.930 . S
H433 C406 0.931 . S
H434 C408 0.934 . S
H435 C409 0.930 . S
H436 C414 0.930 . S
H437 C415 0.931 . S
H438 C417 0.934 . S
H439 C418 0.930 . S
Ho440 C443 2.811 . S
Ho440 O460 2.322 . S
Ho440 O462 2.378 . S
Ho440 O463 2.524 . S
Ho440 O464 2.381 . S
Ho440 O465 2.669 . S
Ho440 O467 2.346 . S
Ho440 O471 2.305 . S
Ho441 C452 2.811 . S
Ho441 O461 2.346 . S
Ho441 O465 2.305 . S
Ho441 O466 2.322 . S
Ho441 O468 2.378 . S
Ho441 O469 2.524 . S
Ho441 O470 2.381 . S
Ho441 O471 2.669 . S
C442 O460 1.259 . S
C442 O461 1.268 . S
C443 Ho440 2.811 . S
C443 C444 1.488 . S
C443 O462 1.215 . S
C443 O463 1.289 . S
C444 C443 1.488 . S
C444 C445 1.348 . S
C444 C449 1.413 . S
C445 C444 1.348 . S
C445 C446 1.442 . S
C445 H472 0.930 . S
C446 C445 1.442 . S
C446 C447 1.381 . S
C446 H473 0.931 . S
C447 C446 1.381 . S
C447 C448 1.321 . S
C448 C447 1.321 . S
C448 C449 1.403 . S
C448 H474 0.934 . S
C449 C444 1.413 . S
C449 C448 1.403 . S
C449 H475 0.930 . S
C450 O464 1.275 . S
C450 O465 1.256 . S
C451 O466 1.259 . S
C451 O467 1.268 . S
C452 Ho441 2.811 . S
C452 C453 1.488 . S
C452 O468 1.215 . S
C452 O469 1.289 . S
C453 C452 1.488 . S
C453 C454 1.348 . S
C453 C458 1.413 . S
C454 C453 1.348 . S
C454 C455 1.442 1_545 S
C454 H476 0.930 . S
C455 C454 1.442 1_565 S
C455 C456 1.381 . S
C455 H477 0.931 . S
C456 C455 1.381 . S
C456 C457 1.321 . S
C457 C456 1.321 . S
C457 C458 1.403 1_565 S
C457 H478 0.934 . S
C458 C453 1.413 . S
C458 C457 1.403 1_545 S
C458 H479 0.930 . S
C459 O470 1.275 . S
C459 O471 1.256 . S
O460 Ho440 2.322 . S
O460 C442 1.259 . S
O461 Ho441 2.346 . S
O461 C442 1.268 . S
O462 Ho440 2.378 . S
O462 C443 1.215 . S
O463 Ho440 2.524 . S
O463 C443 1.289 . S
O464 Ho440 2.381 . S
O464 C450 1.275 . S
O465 Ho440 2.669 . S
O465 Ho441 2.305 . S
O465 C450 1.256 . S
O466 Ho441 2.322 . S
O466 C451 1.259 . S
O467 Ho440 2.346 . S
O467 C451 1.268 . S
O468 Ho441 2.378 . S
O468 C452 1.215 . S
O469 Ho441 2.524 . S
O469 C452 1.289 . S
O470 Ho441 2.381 . S
O470 C459 1.275 . S
O471 Ho440 2.305 . S
O471 Ho441 2.669 . S
O471 C459 1.256 . S
H472 C445 0.930 . S
H473 C446 0.931 . S
H474 C448 0.934 . S
H475 C449 0.930 . S
H476 C454 0.930 . S
H477 C455 0.931 . S
H478 C457 0.934 . S
H479 C458 0.930 . S
C480 C481 1.349 . S
C480 C482 1.327 . S
C480 H505 0.950 . S
C481 C480 1.349 . S
C481 C497 1.349 . S
C482 C480 1.327 . S
C482 C501 1.429 . S
C482 H506 0.950 . S
C483 C500 1.574 1_565 S
C483 C502 1.368 . S
C483 H507 0.949 . S
H484 C488 0.949 . S
C485 C486 1.349 . S
C485 C487 1.327 . S
C485 H508 0.950 . S
C486 C485 1.349 . S
C486 C498 1.349 . S
C487 C485 1.327 . S
C487 C503 1.429 . S
C487 H509 0.950 . S
C488 H484 0.949 . S
C488 C496 1.574 1_545 S
C488 C504 1.368 . S
H489 C497 0.950 . S
H490 C495 0.950 . S
H491 C496 0.949 . S
H492 C498 0.950 . S
H493 C499 0.950 . S
H494 C500 0.949 . S
C495 H490 0.950 . S
C495 C497 1.327 . S
C495 C501 1.429 . S
C496 C488 1.574 1_565 S
C496 H491 0.949 . S
C496 C502 1.368 . S
C497 C481 1.349 . S
C497 H489 0.950 . S
C497 C495 1.327 . S
C498 C486 1.349 . S
C498 H492 0.950 . S
C498 C499 1.327 . S
C499 H493 0.950 . S
C499 C498 1.327 . S
C499 C503 1.429 . S
C500 C483 1.574 1_545 S
C500 H494 0.949 . S
C500 C504 1.368 . S
C501 C482 1.429 . S
C501 C495 1.429 . S
C501 C502 1.523 . S
C502 C483 1.368 . S
C502 C496 1.368 . S
C502 C501 1.523 . S
C503 C487 1.429 . S
C503 C499 1.429 . S
C503 C504 1.523 . S
C504 C488 1.368 . S
C504 C500 1.368 . S
C504 C503 1.523 . S
H505 C480 0.950 . S
H506 C482 0.950 . S
H507 C483 0.949 . S
H508 C485 0.950 . S
H509 C487 0.950 . S
C510 C511 1.349 . S
C510 C512 1.327 . S
C510 H535 0.950 . S
C511 C510 1.349 . S
C511 C527 1.349 . S
C512 C510 1.327 . S
C512 C531 1.429 . S
C512 H536 0.950 . S
C513 C530 1.574 . S
C513 C532 1.368 . S
C513 H537 0.949 . S
H514 C518 0.949 . S
C515 C516 1.349 . S
C515 C517 1.327 . S
C515 H538 0.950 . S
C516 C515 1.349 . S
C516 C528 1.349 . S
C517 C515 1.327 . S
C517 C533 1.429 . S
C517 H539 0.950 . S
C518 H514 0.949 . S
C518 C526 1.574 . S
C518 C534 1.368 . S
H519 C527 0.950 . S
H520 C525 0.950 . S
H521 C526 0.949 . S
H522 C528 0.950 . S
H523 C529 0.950 . S
H524 C530 0.949 . S
C525 H520 0.950 . S
C525 C527 1.327 . S
C525 C531 1.429 . S
C526 C518 1.574 . S
C526 H521 0.949 . S
C526 C532 1.368 . S
C527 C511 1.349 . S
C527 H519 0.950 . S
C527 C525 1.327 . S
C528 C516 1.349 . S
C528 H522 0.950 . S
C528 C529 1.327 . S
C529 H523 0.950 . S
C529 C528 1.327 . S
C529 C533 1.429 . S
C530 C513 1.574 . S
C530 H524 0.949 . S
C530 C534 1.368 . S
C531 C512 1.429 . S
C531 C525 1.429 . S
C531 C532 1.523 . S
C532 C513 1.368 . S
C532 C526 1.368 . S
C532 C531 1.523 . S
C533 C517 1.429 . S
C533 C529 1.429 . S
C533 C534 1.523 . S
C534 C518 1.368 . S
C534 C530 1.368 . S
C534 C533 1.523 . S
H535 C510 0.950 . S
H536 C512 0.950 . S
H537 C513 0.949 . S
H538 C515 0.950 . S
H539 C517 0.950 . S
C540 C541 1.349 . S
C540 C542 1.327 . S
C540 H565 0.950 . S
C541 C540 1.349 . S
C541 C557 1.349 . S
C542 C540 1.327 . S
C542 C561 1.429 . S
C542 H566 0.950 . S
C543 C560 1.574 1_655 S
C543 C562 1.368 . S
C543 H567 0.949 . S
H544 C548 0.949 . S
C545 C546 1.349 . S
C545 C547 1.327 . S
C545 H568 0.950 . S
C546 C545 1.349 . S
C546 C558 1.349 . S
C547 C545 1.327 . S
C547 C563 1.429 . S
C547 H569 0.950 . S
C548 H544 0.949 . S
C548 C556 1.574 1_455 S
C548 C564 1.368 . S
H549 C557 0.950 . S
H550 C555 0.950 . S
H551 C556 0.949 . S
H552 C558 0.950 . S
H553 C559 0.950 . S
H554 C560 0.949 . S
C555 H550 0.950 . S
C555 C557 1.327 . S
C555 C561 1.429 . S
C556 C548 1.574 1_655 S
C556 H551 0.949 . S
C556 C562 1.368 . S
C557 C541 1.349 . S
C557 H549 0.950 . S
C557 C555 1.327 . S
C558 C546 1.349 . S
C558 H552 0.950 . S
C558 C559 1.327 . S
C559 H553 0.950 . S
C559 C558 1.327 . S
C559 C563 1.429 . S
C560 C543 1.574 1_455 S
C560 H554 0.949 . S
C560 C564 1.368 . S
C561 C542 1.429 . S
C561 C555 1.429 . S
C561 C562 1.523 . S
C562 C543 1.368 . S
C562 C556 1.368 . S
C562 C561 1.523 . S
C563 C547 1.429 . S
C563 C559 1.429 . S
C563 C564 1.523 . S
C564 C548 1.368 . S
C564 C560 1.368 . S
C564 C563 1.523 . S
H565 C540 0.950 . S
H566 C542 0.950 . S
H567 C543 0.949 . S
H568 C545 0.950 . S
H569 C547 0.950 . S
C570 C571 1.349 . S
C570 C572 1.327 . S
C570 H595 0.950 . S
C571 C570 1.349 . S
C571 C587 1.349 . S
C572 C570 1.327 . S
C572 C591 1.429 . S
C572 H596 0.950 . S
C573 C590 1.574 1_565 S
C573 C592 1.368 . S
C573 H597 0.949 . S
H574 C578 0.949 . S
C575 C576 1.349 . S
C575 C577 1.327 . S
C575 H598 0.950 . S
C576 C575 1.349 . S
C576 C588 1.349 . S
C577 C575 1.327 . S
C577 C593 1.429 . S
C577 H599 0.950 . S
C578 H574 0.949 . S
C578 C586 1.574 1_545 S
C578 C594 1.368 . S
H579 C587 0.950 . S
H580 C585 0.950 . S
H581 C586 0.949 . S
H582 C588 0.950 . S
H583 C589 0.950 . S
H584 C590 0.949 . S
C585 H580 0.950 . S
C585 C587 1.327 . S
C585 C591 1.429 . S
C586 C578 1.574 1_565 S
C586 H581 0.949 . S
C586 C592 1.368 . S
C587 C571 1.349 . S
C587 H579 0.950 . S
C587 C585 1.327 . S
C588 C576 1.349 . S
C588 H582 0.950 . S
C588 C589 1.327 . S
C589 H583 0.950 . S
C589 C588 1.327 . S
C589 C593 1.429 . S
C590 C573 1.574 1_545 S
C590 H584 0.949 . S
C590 C594 1.368 . S
C591 C572 1.429 . S
C591 C585 1.429 . S
C591 C592 1.523 . S
C592 C573 1.368 . S
C592 C586 1.368 . S
C592 C591 1.523 . S
C593 C577 1.429 . S
C593 C589 1.429 . S
C593 C594 1.523 . S
C594 C578 1.368 . S
C594 C590 1.368 . S
C594 C593 1.523 . S
H595 C570 0.950 . S
H596 C572 0.950 . S
H597 C573 0.949 . S
H598 C575 0.950 . S
H599 C577 0.950 . S
C600 C601 1.349 . S
C600 C602 1.327 . S
C600 H625 0.950 . S
C601 C600 1.349 . S
C601 C617 1.349 . S
C602 C600 1.327 . S
C602 C621 1.429 . S
C602 H626 0.950 . S
C603 C620 1.574 . S
C603 C622 1.368 . S
C603 H627 0.949 . S
H604 C608 0.949 . S
C605 C606 1.349 . S
C605 C607 1.327 . S
C605 H628 0.950 . S
C606 C605 1.349 . S
C606 C618 1.349 . S
C607 C605 1.327 . S
C607 C623 1.429 . S
C607 H629 0.950 . S
C608 H604 0.949 . S
C608 C616 1.574 . S
C608 C624 1.368 . S
H609 C617 0.950 . S
H610 C615 0.950 . S
H611 C616 0.949 . S
H612 C618 0.950 . S
H613 C619 0.950 . S
H614 C620 0.949 . S
C615 H610 0.950 . S
C615 C617 1.327 . S
C615 C621 1.429 . S
C616 C608 1.574 . S
C616 H611 0.949 . S
C616 C622 1.368 . S
C617 C601 1.349 . S
C617 H609 0.950 . S
C617 C615 1.327 . S
C618 C606 1.349 . S
C618 H612 0.950 . S
C618 C619 1.327 . S
C619 H613 0.950 . S
C619 C618 1.327 . S
C619 C623 1.429 . S
C620 C603 1.574 . S
C620 H614 0.949 . S
C620 C624 1.368 . S
C621 C602 1.429 . S
C621 C615 1.429 . S
C621 C622 1.523 . S
C622 C603 1.368 . S
C622 C616 1.368 . S
C622 C621 1.523 . S
C623 C607 1.429 . S
C623 C619 1.429 . S
C623 C624 1.523 . S
C624 C608 1.368 . S
C624 C620 1.368 . S
C624 C623 1.523 . S
H625 C600 0.950 . S
H626 C602 0.950 . S
H627 C603 0.949 . S
H628 C605 0.950 . S
H629 C607 0.950 . S
C630 C631 1.349 . S
C630 C632 1.327 . S
C630 H655 0.950 . S
C631 C630 1.349 . S
C631 C647 1.349 . S
C632 C630 1.327 . S
C632 C651 1.429 . S
C632 H656 0.950 . S
C633 C650 1.574 1_655 S
C633 C652 1.368 . S
C633 H657 0.949 . S
H634 C638 0.949 . S
C635 C636 1.349 . S
C635 C637 1.327 . S
C635 H658 0.950 . S
C636 C635 1.349 . S
C636 C648 1.349 . S
C637 C635 1.327 . S
C637 C653 1.429 . S
C637 H659 0.950 . S
C638 H634 0.949 . S
C638 C646 1.574 1_455 S
C638 C654 1.368 . S
H639 C647 0.950 . S
H640 C645 0.950 . S
H641 C646 0.949 . S
H642 C648 0.950 . S
H643 C649 0.950 . S
H644 C650 0.949 . S
C645 H640 0.950 . S
C645 C647 1.327 . S
C645 C651 1.429 . S
C646 C638 1.574 1_655 S
C646 H641 0.949 . S
C646 C652 1.368 . S
C647 C631 1.349 . S
C647 H639 0.950 . S
C647 C645 1.327 . S
C648 C636 1.349 . S
C648 H642 0.950 . S
C648 C649 1.327 . S
C649 H643 0.950 . S
C649 C648 1.327 . S
C649 C653 1.429 . S
C650 C633 1.574 1_455 S
C650 H644 0.949 . S
C650 C654 1.368 . S
C651 C632 1.429 . S
C651 C645 1.429 . S
C651 C652 1.523 . S
C652 C633 1.368 . S
C652 C646 1.368 . S
C652 C651 1.523 . S
C653 C637 1.429 . S
C653 C649 1.429 . S
C653 C654 1.523 . S
C654 C638 1.368 . S
C654 C650 1.368 . S
C654 C653 1.523 . S
H655 C630 0.950 . S
H656 C632 0.950 . S
H657 C633 0.949 . S
H658 C635 0.950 . S
H659 C637 0.950 . S
C660 C661 1.349 . S
C660 C662 1.327 . S
C660 H685 0.950 . S
C661 C660 1.349 . S
C661 C677 1.349 . S
C662 C660 1.327 . S
C662 C681 1.429 . S
C662 H686 0.950 . S
C663 C680 1.544 1_455 S
C663 C682 1.380 . S
C663 H687 0.966 . S
H664 C668 0.949 . S
C665 C666 1.349 . S
C665 C667 1.327 . S
C665 H688 0.950 . S
C666 C665 1.349 . S
C666 C678 1.349 . S
C667 C665 1.327 . S
C667 C683 1.429 . S
C667 H689 0.950 . S
C668 H664 0.949 . S
C668 C676 1.574 1_655 S
C668 C684 1.368 . S
H669 C677 0.950 . S
H670 C675 0.950 . S
H671 C676 0.949 . S
H672 C678 0.950 . S
H673 C679 0.950 . S
H674 C680 0.949 . S
C675 H670 0.950 . S
C675 C677 1.327 . S
C675 C681 1.429 . S
C676 C668 1.574 1_455 S
C676 H671 0.949 . S
C676 C682 1.368 . S
C677 C661 1.349 . S
C677 H669 0.950 . S
C677 C675 1.327 . S
C678 C666 1.349 . S
C678 H672 0.950 . S
C678 C679 1.327 . S
C679 H673 0.950 . S
C679 C678 1.327 . S
C679 C683 1.429 . S
C680 C663 1.544 1_655 S
C680 H674 0.949 . S
C680 C684 1.368 . S
C681 C662 1.429 . S
C681 C675 1.429 . S
C681 C682 1.523 . S
C682 C663 1.380 . S
C682 C676 1.368 . S
C682 C681 1.523 . S
C683 C667 1.429 . S
C683 C679 1.429 . S
C683 C684 1.523 . S
C684 C668 1.368 . S
C684 C680 1.368 . S
C684 C683 1.523 . S
H685 C660 0.950 . S
H686 C662 0.950 . S
H687 C663 0.966 . S
H688 C665 0.950 . S
H689 C667 0.950 . S
C690 C691 1.349 . S
C690 C692 1.327 . S
C690 H715 0.950 . S
C691 C690 1.349 . S
C691 C707 1.349 . S
C692 C690 1.327 . S
C692 C711 1.429 . S
C692 H716 0.950 . S
C693 C710 1.574 1_565 S
C693 C712 1.368 . S
C693 H717 0.949 . S
H694 C698 0.949 . S
C695 C696 1.349 . S
C695 C697 1.327 . S
C695 H718 0.950 . S
C696 C695 1.349 . S
C696 C708 1.349 . S
C697 C695 1.327 . S
C697 C713 1.429 . S
C697 H719 0.950 . S
C698 H694 0.949 . S
C698 C706 1.574 1_545 S
C698 C714 1.368 . S
H699 C707 0.950 . S
H700 C705 0.950 . S
H701 C706 0.949 . S
H702 C708 0.950 . S
H703 C709 0.950 . S
H704 C710 0.949 . S
C705 H700 0.950 . S
C705 C707 1.327 . S
C705 C711 1.429 . S
C706 C698 1.574 1_565 S
C706 H701 0.949 . S
C706 C712 1.368 . S
C707 C691 1.349 . S
C707 H699 0.950 . S
C707 C705 1.327 . S
C708 C696 1.349 . S
C708 H702 0.950 . S
C708 C709 1.327 . S
C709 H703 0.950 . S
C709 C708 1.327 . S
C709 C713 1.429 . S
C710 C693 1.574 1_545 S
C710 H704 0.949 . S
C710 C714 1.368 . S
C711 C692 1.429 . S
C711 C705 1.429 . S
C711 C712 1.523 . S
C712 C693 1.368 . S
C712 C706 1.368 . S
C712 C711 1.523 . S
C713 C697 1.429 . S
C713 C709 1.429 . S
C713 C714 1.523 . S
C714 C698 1.368 . S
C714 C710 1.368 . S
C714 C713 1.523 . S
H715 C690 0.950 . S
H716 C692 0.950 . S
H717 C693 0.949 . S
H718 C695 0.950 . S
H719 C697 0.950 . S
C720 C721 1.349 . S
C720 C722 1.327 . S
C720 H745 0.950 . S
C721 C720 1.349 . S
C721 C737 1.349 . S
C722 C720 1.327 . S
C722 C741 1.429 . S
C722 H746 0.950 . S
C723 C740 1.574 . S
C723 C742 1.368 . S
C723 H747 0.949 . S
H724 C728 0.949 . S
C725 C726 1.349 . S
C725 C727 1.327 . S
C725 H748 0.950 . S
C726 C725 1.349 . S
C726 C738 1.349 . S
C727 C725 1.327 . S
C727 C743 1.429 . S
C727 H749 0.950 . S
C728 H724 0.949 . S
C728 C736 1.574 . S
C728 C744 1.368 . S
H729 C737 0.950 . S
H730 C735 0.950 . S
H731 C736 0.949 . S
H732 C738 0.950 . S
H733 C739 0.950 . S
H734 C740 0.949 . S
C735 H730 0.950 . S
C735 C737 1.327 . S
C735 C741 1.429 . S
C736 C728 1.574 . S
C736 H731 0.949 . S
C736 C742 1.368 . S
C737 C721 1.349 . S
C737 H729 0.950 . S
C737 C735 1.327 . S
C738 C726 1.349 . S
C738 H732 0.950 . S
C738 C739 1.327 . S
C739 H733 0.950 . S
C739 C738 1.327 . S
C739 C743 1.429 . S
C740 C723 1.574 . S
C740 H734 0.949 . S
C740 C744 1.368 . S
C741 C722 1.429 . S
C741 C735 1.429 . S
C741 C742 1.523 . S
C742 C723 1.368 . S
C742 C736 1.368 . S
C742 C741 1.523 . S
C743 C727 1.429 . S
C743 C739 1.429 . S
C743 C744 1.523 . S
C744 C728 1.368 . S
C744 C740 1.368 . S
C744 C743 1.523 . S
H745 C720 0.950 . S
H746 C722 0.950 . S
H747 C723 0.949 . S
H748 C725 0.950 . S
H749 C727 0.950 . S
C750 C751 1.349 . S
C750 C752 1.327 . S
C750 H775 0.950 . S
C751 C750 1.349 . S
C751 C767 1.349 . S
C752 C750 1.327 . S
C752 C771 1.429 . S
C752 H776 0.950 . S
C753 C770 1.574 . S
C753 C772 1.368 . S
C753 H777 0.949 . S
H754 C758 0.949 . S
C755 C756 1.349 . S
C755 C757 1.327 . S
C755 H778 0.950 . S
C756 C755 1.349 . S
C756 C768 1.349 . S
C757 C755 1.327 . S
C757 C773 1.429 . S
C757 H779 0.950 . S
C758 H754 0.949 . S
C758 C766 1.574 1_655 S
C758 C774 1.368 . S
H759 C767 0.950 . S
H760 C765 0.950 . S
H761 C766 0.949 . S
H762 C768 0.950 . S
H763 C769 0.950 . S
H764 C770 0.949 1_655 S
C765 H760 0.950 . S
C765 C767 1.327 . S
C765 C771 1.429 . S
C766 C758 1.574 1_455 S
C766 H761 0.949 . S
C766 C772 1.368 . S
C767 C751 1.349 . S
C767 H759 0.950 . S
C767 C765 1.327 . S
C768 C756 1.349 . S
C768 H762 0.950 . S
C768 C769 1.327 . S
C769 H763 0.950 . S
C769 C768 1.327 . S
C769 C773 1.429 . S
C770 C753 1.574 . S
C770 H764 0.949 1_455 S
C770 C774 1.368 1_455 S
C771 C752 1.429 . S
C771 C765 1.429 . S
C771 C772 1.523 . S
C772 C753 1.368 . S
C772 C766 1.368 . S
C772 C771 1.523 . S
C773 C757 1.429 . S
C773 C769 1.429 . S
C773 C774 1.523 . S
C774 C758 1.368 . S
C774 C770 1.368 1_655 S
C774 C773 1.523 . S
H775 C750 0.950 . S
H776 C752 0.950 . S
H777 C753 0.949 . S
H778 C755 0.950 . S
H779 C757 0.950 . S
C780 C781 1.349 . S
C780 C782 1.327 . S
C780 H805 0.950 . S
C781 C780 1.349 . S
C781 C797 1.349 . S
C782 C780 1.327 . S
C782 C801 1.429 . S
C782 H806 0.950 . S
C783 C800 1.574 . S
C783 C802 1.368 . S
C783 H807 0.949 . S
H784 C788 0.949 . S
C785 C786 1.349 . S
C785 C787 1.327 . S
C785 H808 0.950 . S
C786 C785 1.349 . S
C786 C798 1.349 . S
C787 C785 1.327 . S
C787 C803 1.429 . S
C787 H809 0.950 . S
C788 H784 0.949 . S
C788 C796 1.574 1_565 S
C788 C804 1.368 . S
H789 C797 0.950 . S
H790 C795 0.950 . S
H791 C796 0.949 . S
H792 C798 0.950 . S
H793 C799 0.950 . S
H794 C800 0.949 1_565 S
C795 H790 0.950 . S
C795 C797 1.327 . S
C795 C801 1.429 . S
C796 C788 1.574 1_545 S
C796 H791 0.949 . S
C796 C802 1.368 . S
C797 C781 1.349 . S
C797 H789 0.950 . S
C797 C795 1.327 . S
C798 C786 1.349 . S
C798 H792 0.950 . S
C798 C799 1.327 . S
C799 H793 0.950 . S
C799 C798 1.327 . S
C799 C803 1.429 . S
C800 C783 1.574 . S
C800 H794 0.949 1_545 S
C800 C804 1.368 1_545 S
C801 C782 1.429 . S
C801 C795 1.429 . S
C801 C802 1.523 . S
C802 C783 1.368 . S
C802 C796 1.368 . S
C802 C801 1.523 . S
C803 C787 1.429 . S
C803 C799 1.429 . S
C803 C804 1.523 . S
C804 C788 1.368 . S
C804 C800 1.368 1_565 S
C804 C803 1.523 . S
H805 C780 0.950 . S
H806 C782 0.950 . S
H807 C783 0.949 . S
H808 C785 0.950 . S
H809 C787 0.950 . S
C810 C811 1.349 . S
C810 C812 1.327 . S
C810 H835 0.950 . S
C811 C810 1.349 . S
C811 C827 1.349 . S
C812 C810 1.327 . S
C812 C831 1.429 . S
C812 H836 0.950 . S
C813 C830 1.574 . S
C813 C832 1.368 . S
C813 H837 0.949 . S
H814 C818 0.949 . S
C815 C816 1.349 . S
C815 C817 1.327 . S
C815 H838 0.950 . S
C816 C815 1.349 . S
C816 C828 1.349 . S
C817 C815 1.327 . S
C817 C833 1.429 . S
C817 H839 0.950 . S
C818 H814 0.949 . S
C818 C826 1.574 . S
C818 C834 1.368 . S
H819 C827 0.950 . S
H820 C825 0.950 . S
H821 C826 0.949 . S
H822 C828 0.950 . S
H823 C829 0.950 . S
H824 C830 0.949 . S
C825 H820 0.950 . S
C825 C827 1.327 . S
C825 C831 1.429 . S
C826 C818 1.574 . S
C826 H821 0.949 . S
C826 C832 1.368 . S
C827 C811 1.349 . S
C827 H819 0.950 . S
C827 C825 1.327 . S
C828 C816 1.349 . S
C828 H822 0.950 . S
C828 C829 1.327 . S
C829 H823 0.950 . S
C829 C828 1.327 . S
C829 C833 1.429 . S
C830 C813 1.574 . S
C830 H824 0.949 . S
C830 C834 1.368 . S
C831 C812 1.429 . S
C831 C825 1.429 . S
C831 C832 1.523 . S
C832 C813 1.368 . S
C832 C826 1.368 . S
C832 C831 1.523 . S
C833 C817 1.429 . S
C833 C829 1.429 . S
C833 C834 1.523 . S
C834 C818 1.368 . S
C834 C830 1.368 . S
C834 C833 1.523 . S
H835 C810 0.950 . S
H836 C812 0.950 . S
H837 C813 0.949 . S
H838 C815 0.950 . S
H839 C817 0.950 . S
C840 C841 1.349 . S
C840 C842 1.327 . S
C840 H865 0.950 . S
C841 C840 1.349 . S
C841 C857 1.349 . S
C842 C840 1.327 . S
C842 C861 1.429 . S
C842 H866 0.950 . S
C843 C860 1.574 . S
C843 C862 1.368 . S
C843 H867 0.949 . S
H844 C848 0.949 . S
C845 C846 1.349 . S
C845 C847 1.327 . S
C845 H868 0.950 . S
C846 C845 1.349 . S
C846 C858 1.349 . S
C847 C845 1.327 . S
C847 C863 1.429 . S
C847 H869 0.950 . S
C848 H844 0.949 . S
C848 C856 1.574 . S
C848 C864 1.368 . S
H849 C857 0.950 . S
H850 C855 0.950 . S
H851 C856 0.949 . S
H852 C858 0.950 . S
H853 C859 0.950 . S
H854 C860 0.949 . S
C855 H850 0.950 . S
C855 C857 1.327 . S
C855 C861 1.429 . S
C856 C848 1.574 . S
C856 H851 0.949 . S
C856 C862 1.368 . S
C857 C841 1.349 . S
C857 H849 0.950 . S
C857 C855 1.327 . S
C858 C846 1.349 . S
C858 H852 0.950 . S
C858 C859 1.327 . S
C859 H853 0.950 . S
C859 C858 1.327 . S
C859 C863 1.429 . S
C860 C843 1.574 . S
C860 H854 0.949 . S
C860 C864 1.368 . S
C861 C842 1.429 . S
C861 C855 1.429 . S
C861 C862 1.523 . S
C862 C843 1.368 . S
C862 C856 1.368 . S
C862 C861 1.523 . S
C863 C847 1.429 . S
C863 C859 1.429 . S
C863 C864 1.523 . S
C864 C848 1.368 . S
C864 C860 1.368 . S
C864 C863 1.523 . S
H865 C840 0.950 . S
H866 C842 0.950 . S
H867 C843 0.949 . S
H868 C845 0.950 . S
H869 C847 0.950 . S
C870 C871 1.349 . S
C870 C872 1.327 . S
C870 H895 0.950 . S
C871 C870 1.349 . S
C871 C887 1.349 . S
C872 C870 1.327 . S
C872 C891 1.429 . S
C872 H896 0.950 . S
C873 C890 1.574 . S
C873 C892 1.368 . S
C873 H897 0.949 . S
H874 C878 0.949 . S
C875 C876 1.349 . S
C875 C877 1.327 . S
C875 H898 0.950 . S
C876 C875 1.349 . S
C876 C888 1.349 . S
C877 C875 1.327 . S
C877 C893 1.429 . S
C877 H899 0.950 . S
C878 H874 0.949 . S
C878 C886 1.574 . S
C878 C894 1.368 . S
H879 C887 0.950 . S
H880 C885 0.950 . S
H881 C886 0.949 . S
H882 C888 0.950 . S
H883 C889 0.950 . S
H884 C890 0.949 . S
C885 H880 0.950 . S
C885 C887 1.327 . S
C885 C891 1.429 . S
C886 C878 1.574 . S
C886 H881 0.949 . S
C886 C892 1.368 . S
C887 C871 1.349 . S
C887 H879 0.950 . S
C887 C885 1.327 . S
C888 C876 1.349 . S
C888 H882 0.950 . S
C888 C889 1.327 . S
C889 H883 0.950 . S
C889 C888 1.327 . S
C889 C893 1.429 . S
C890 C873 1.574 . S
C890 H884 0.949 . S
C890 C894 1.368 . S
C891 C872 1.429 . S
C891 C885 1.429 . S
C891 C892 1.523 . S
C892 C873 1.368 . S
C892 C886 1.368 . S
C892 C891 1.523 . S
C893 C877 1.429 . S
C893 C889 1.429 . S
C893 C894 1.523 . S
C894 C878 1.368 . S
C894 C890 1.368 . S
C894 C893 1.523 . S
H895 C870 0.950 . S
H896 C872 0.950 . S
H897 C873 0.949 . S
H898 C875 0.950 . S
H899 C877 0.950 . S
C900 C901 1.349 . S
C900 C902 1.327 . S
C900 H925 0.950 . S
C901 C900 1.349 . S
C901 C917 1.349 . S
C902 C900 1.327 . S
C902 C921 1.429 . S
C902 H926 0.950 . S
C903 C920 1.574 . S
C903 C922 1.368 . S
C903 H927 0.949 . S
H904 C908 0.949 . S
C905 C906 1.349 . S
C905 C907 1.327 . S
C905 H928 0.950 . S
C906 C905 1.349 . S
C906 C918 1.349 . S
C907 C905 1.327 . S
C907 C923 1.429 . S
C907 H929 0.950 . S
C908 H904 0.949 . S
C908 C916 1.574 . S
C908 C924 1.368 . S
H909 C917 0.950 . S
H910 C915 0.950 . S
H911 C916 0.949 . S
H912 C918 0.950 . S
H913 C919 0.950 . S
H914 C920 0.949 . S
C915 H910 0.950 . S
C915 C917 1.327 . S
C915 C921 1.429 . S
C916 C908 1.574 . S
C916 H911 0.949 . S
C916 C922 1.368 . S
C917 C901 1.349 . S
C917 H909 0.950 . S
C917 C915 1.327 . S
C918 C906 1.349 . S
C918 H912 0.950 . S
C918 C919 1.327 . S
C919 H913 0.950 . S
C919 C918 1.327 . S
C919 C923 1.429 . S
C920 C903 1.574 . S
C920 H914 0.949 . S
C920 C924 1.368 . S
C921 C902 1.429 . S
C921 C915 1.429 . S
C921 C922 1.523 . S
C922 C903 1.368 . S
C922 C916 1.368 . S
C922 C921 1.523 . S
C923 C907 1.429 . S
C923 C919 1.429 . S
C923 C924 1.523 . S
C924 C908 1.368 . S
C924 C920 1.368 . S
C924 C923 1.523 . S
H925 C900 0.950 . S
H926 C902 0.950 . S
H927 C903 0.949 . S
H928 C905 0.950 . S
H929 C907 0.950 . S
C930 C931 1.349 . S
C930 C932 1.327 . S
C930 H955 0.950 . S
C931 C930 1.349 . S
C931 C947 1.349 . S
C932 C930 1.327 . S
C932 C951 1.429 . S
C932 H956 0.950 . S
C933 C950 1.574 . S
C933 C952 1.368 . S
C933 H957 0.949 . S
H934 C938 0.949 . S
C935 C936 1.349 . S
C935 C937 1.327 . S
C935 H958 0.950 . S
C936 C935 1.349 . S
C936 C948 1.349 . S
C937 C935 1.327 . S
C937 C953 1.429 . S
C937 H959 0.950 . S
C938 H934 0.949 . S
C938 C946 1.574 . S
C938 C954 1.368 . S
H939 C947 0.950 . S
H940 C945 0.950 . S
H941 C946 0.949 . S
H942 C948 0.950 . S
H943 C949 0.950 . S
H944 C950 0.949 . S
C945 H940 0.950 . S
C945 C947 1.327 . S
C945 C951 1.429 . S
C946 C938 1.574 . S
C946 H941 0.949 . S
C946 C952 1.368 . S
C947 C931 1.349 . S
C947 H939 0.950 . S
C947 C945 1.327 . S
C948 C936 1.349 . S
C948 H942 0.950 . S
C948 C949 1.327 . S
C949 H943 0.950 . S
C949 C948 1.327 . S
C949 C953 1.429 . S
C950 C933 1.574 . S
C950 H944 0.949 . S
C950 C954 1.368 . S
C951 C932 1.429 . S
C951 C945 1.429 . S
C951 C952 1.523 . S
C952 C933 1.368 . S
C952 C946 1.368 . S
C952 C951 1.523 . S
C953 C937 1.429 . S
C953 C949 1.429 . S
C953 C954 1.523 . S
C954 C938 1.368 . S
C954 C950 1.368 . S
C954 C953 1.523 . S
H955 C930 0.950 . S
H956 C932 0.950 . S
H957 C933 0.949 . S
H958 C935 0.950 . S
H959 C937 0.950 . S
C960 C961 1.349 . S
C960 C962 1.327 . S
C960 H985 0.950 . S
C961 C960 1.349 . S
C961 C977 1.349 . S
C962 C960 1.327 . S
C962 C981 1.429 . S
C962 H986 0.950 . S
C963 C980 1.574 . S
C963 C982 1.368 . S
C963 H987 0.949 . S
H964 C968 0.949 . S
C965 C966 1.349 . S
C965 C967 1.327 . S
C965 H988 0.950 . S
C966 C965 1.349 . S
C966 C978 1.349 . S
C967 C965 1.327 . S
C967 C983 1.429 . S
C967 H989 0.950 . S
C968 H964 0.949 . S
C968 C976 1.574 . S
C968 C984 1.368 . S
H969 C977 0.950 . S
H970 C975 0.950 . S
H971 C976 0.949 . S
H972 C978 0.950 . S
H973 C979 0.950 . S
H974 C980 0.949 . S
C975 H970 0.950 . S
C975 C977 1.327 . S
C975 C981 1.429 . S
C976 C968 1.574 . S
C976 H971 0.949 . S
C976 C982 1.368 . S
C977 C961 1.349 . S
C977 H969 0.950 . S
C977 C975 1.327 . S
C978 C966 1.349 . S
C978 H972 0.950 . S
C978 C979 1.327 . S
C979 H973 0.950 . S
C979 C978 1.327 . S
C979 C983 1.429 . S
C980 C963 1.574 . S
C980 H974 0.949 . S
C980 C984 1.368 . S
C981 C962 1.429 . S
C981 C975 1.429 . S
C981 C982 1.523 . S
C982 C963 1.368 . S
C982 C976 1.368 . S
C982 C981 1.523 . S
C983 C967 1.429 . S
C983 C979 1.429 . S
C983 C984 1.523 . S
C984 C968 1.368 . S
C984 C980 1.368 . S
C984 C983 1.523 . S
H985 C960 0.950 . S
H986 C962 0.950 . S
H987 C963 0.949 . S
H988 C965 0.950 . S
H989 C967 0.950 . S
C990 C991 1.349 . S
C990 C992 1.327 . S
C990 H1015 0.950 . S
C991 C990 1.349 . S
C991 C1007 1.349 . S
C992 C990 1.327 . S
C992 C1011 1.429 . S
C992 H1016 0.950 . S
C993 C1010 1.574 . S
C993 C1012 1.368 . S
C993 H1017 0.949 . S
H994 C998 0.949 . S
C995 C996 1.349 . S
C995 C997 1.327 . S
C995 H1018 0.950 . S
C996 C995 1.349 . S
C996 C1008 1.349 . S
C997 C995 1.327 . S
C997 C1013 1.429 . S
C997 H1019 0.950 . S
C998 H994 0.949 . S
C998 C1006 1.574 . S
C998 C1014 1.368 . S
H999 C1007 0.950 . S
H1000 C1005 0.950 . S
H1001 C1006 0.949 . S
H1002 C1008 0.950 . S
H1003 C1009 0.950 . S
H1004 C1010 0.949 . S
C1005 H1000 0.950 . S
C1005 C1007 1.327 . S
C1005 C1011 1.429 . S
C1006 C998 1.574 . S
C1006 H1001 0.949 . S
C1006 C1012 1.368 . S
C1007 C991 1.349 . S
C1007 H999 0.950 . S
C1007 C1005 1.327 . S
C1008 C996 1.349 . S
C1008 H1002 0.950 . S
C1008 C1009 1.327 . S
C1009 H1003 0.950 . S
C1009 C1008 1.327 . S
C1009 C1013 1.429 . S
C1010 C993 1.574 . S
C1010 H1004 0.949 . S
C1010 C1014 1.368 . S
C1011 C992 1.429 . S
C1011 C1005 1.429 . S
C1011 C1012 1.523 . S
C1012 C993 1.368 . S
C1012 C1006 1.368 . S
C1012 C1011 1.523 . S
C1013 C997 1.429 . S
C1013 C1009 1.429 . S
C1013 C1014 1.523 . S
C1014 C998 1.368 . S
C1014 C1010 1.368 . S
C1014 C1013 1.523 . S
H1015 C990 0.950 . S
H1016 C992 0.950 . S
H1017 C993 0.949 . S
H1018 C995 0.950 . S
H1019 C997 0.950 . S
C1020 C1021 1.349 . S
C1020 C1022 1.327 . S
C1020 H1045 0.950 . S
C1021 C1020 1.349 . S
C1021 C1037 1.349 . S
C1022 C1020 1.327 . S
C1022 C1041 1.429 . S
C1022 H1046 0.950 . S
C1023 C1040 1.574 . S
C1023 C1042 1.368 . S
C1023 H1047 0.949 . S
H1024 C1028 0.949 . S
C1025 C1026 1.349 . S
C1025 C1027 1.327 . S
C1025 H1048 0.950 . S
C1026 C1025 1.349 . S
C1026 C1038 1.349 . S
C1027 C1025 1.327 . S
C1027 C1043 1.429 . S
C1027 H1049 0.950 . S
C1028 H1024 0.949 . S
C1028 C1036 1.574 . S
C1028 C1044 1.368 . S
H1029 C1037 0.950 . S
H1030 C1035 0.950 . S
H1031 C1036 0.949 . S
H1032 C1038 0.950 . S
H1033 C1039 0.950 . S
H1034 C1040 0.949 . S
C1035 H1030 0.950 . S
C1035 C1037 1.327 . S
C1035 C1041 1.429 . S
C1036 C1028 1.574 . S
C1036 H1031 0.949 . S
C1036 C1042 1.368 . S
C1037 C1021 1.349 . S
C1037 H1029 0.950 . S
C1037 C1035 1.327 . S
C1038 C1026 1.349 . S
C1038 H1032 0.950 . S
C1038 C1039 1.327 . S
C1039 H1033 0.950 . S
C1039 C1038 1.327 . S
C1039 C1043 1.429 . S
C1040 C1023 1.574 . S
C1040 H1034 0.949 . S
C1040 C1044 1.368 . S
C1041 C1022 1.429 . S
C1041 C1035 1.429 . S
C1041 C1042 1.523 . S
C1042 C1023 1.368 . S
C1042 C1036 1.368 . S
C1042 C1041 1.523 . S
C1043 C1027 1.429 . S
C1043 C1039 1.429 . S
C1043 C1044 1.523 . S
C1044 C1028 1.368 . S
C1044 C1040 1.368 . S
C1044 C1043 1.523 . S
H1045 C1020 0.950 . S
H1046 C1022 0.950 . S
H1047 C1023 0.949 . S
H1048 C1025 0.950 . S
H1049 C1027 0.950 . S
C1050 C1051 1.349 . S
C1050 C1052 1.327 . S
C1050 H1075 0.950 . S
C1051 C1050 1.349 . S
C1051 C1067 1.349 . S
C1052 C1050 1.327 . S
C1052 C1071 1.429 . S
C1052 H1076 0.950 . S
C1053 C1070 1.574 . S
C1053 C1072 1.368 . S
C1053 H1077 0.949 . S
H1054 C1058 0.949 . S
C1055 C1056 1.349 . S
C1055 C1057 1.327 . S
C1055 H1078 0.950 . S
C1056 C1055 1.349 . S
C1056 C1068 1.349 . S
C1057 C1055 1.327 . S
C1057 C1073 1.429 . S
C1057 H1079 0.950 . S
C1058 H1054 0.949 . S
C1058 C1066 1.574 . S
C1058 C1074 1.368 . S
H1059 C1067 0.950 . S
H1060 C1065 0.950 . S
H1061 C1066 0.949 . S
H1062 C1068 0.950 . S
H1063 C1069 0.950 . S
H1064 C1070 0.949 . S
C1065 H1060 0.950 . S
C1065 C1067 1.327 . S
C1065 C1071 1.429 . S
C1066 C1058 1.574 . S
C1066 H1061 0.949 . S
C1066 C1072 1.368 . S
C1067 C1051 1.349 . S
C1067 H1059 0.950 . S
C1067 C1065 1.327 . S
C1068 C1056 1.349 . S
C1068 H1062 0.950 . S
C1068 C1069 1.327 . S
C1069 H1063 0.950 . S
C1069 C1068 1.327 . S
C1069 C1073 1.429 . S
C1070 C1053 1.574 . S
C1070 H1064 0.949 . S
C1070 C1074 1.368 . S
C1071 C1052 1.429 . S
C1071 C1065 1.429 . S
C1071 C1072 1.523 . S
C1072 C1053 1.368 . S
C1072 C1066 1.368 . S
C1072 C1071 1.523 . S
C1073 C1057 1.429 . S
C1073 C1069 1.429 . S
C1073 C1074 1.523 . S
C1074 C1058 1.368 . S
C1074 C1070 1.368 . S
C1074 C1073 1.523 . S
H1075 C1050 0.950 . S
H1076 C1052 0.950 . S
H1077 C1053 0.949 . S
H1078 C1055 0.950 . S
H1079 C1057 0.950 . S
C1080 C1081 1.349 . S
C1080 C1082 1.327 . S
C1080 H1105 0.950 . S
C1081 C1080 1.349 . S
C1081 C1097 1.349 . S
C1082 C1080 1.327 . S
C1082 C1101 1.429 . S
C1082 H1106 0.950 . S
C1083 C1100 1.574 . S
C1083 C1102 1.368 . S
C1083 H1107 0.949 . S
H1084 C1088 0.949 . S
C1085 C1086 1.349 . S
C1085 C1087 1.327 . S
C1085 H1108 0.950 . S
C1086 C1085 1.349 . S
C1086 C1098 1.349 . S
C1087 C1085 1.327 . S
C1087 C1103 1.429 . S
C1087 H1109 0.950 . S
C1088 H1084 0.949 . S
C1088 C1096 1.574 . S
C1088 C1104 1.368 . S
H1089 C1097 0.950 . S
H1090 C1095 0.950 . S
H1091 C1096 0.949 . S
H1092 C1098 0.950 . S
H1093 C1099 0.950 . S
H1094 C1100 0.949 . S
C1095 H1090 0.950 . S
C1095 C1097 1.327 . S
C1095 C1101 1.429 . S
C1096 C1088 1.574 . S
C1096 H1091 0.949 . S
C1096 C1102 1.368 . S
C1097 C1081 1.349 . S
C1097 H1089 0.950 . S
C1097 C1095 1.327 . S
C1098 C1086 1.349 . S
C1098 H1092 0.950 . S
C1098 C1099 1.327 . S
C1099 H1093 0.950 . S
C1099 C1098 1.327 . S
C1099 C1103 1.429 . S
C1100 C1083 1.574 . S
C1100 H1094 0.949 . S
C1100 C1104 1.368 . S
C1101 C1082 1.429 . S
C1101 C1095 1.429 . S
C1101 C1102 1.523 . S
C1102 C1083 1.368 . S
C1102 C1096 1.368 . S
C1102 C1101 1.523 . S
C1103 C1087 1.429 . S
C1103 C1099 1.429 . S
C1103 C1104 1.523 . S
C1104 C1088 1.368 . S
C1104 C1100 1.368 . S
C1104 C1103 1.523 . S
H1105 C1080 0.950 . S
H1106 C1082 0.950 . S
H1107 C1083 0.949 . S
H1108 C1085 0.950 . S
H1109 C1087 0.950 . S
C1110 C1111 1.349 . S
C1110 C1112 1.327 . S
C1110 H1135 0.950 . S
C1111 C1110 1.349 . S
C1111 C1127 1.349 . S
C1112 C1110 1.327 . S
C1112 C1131 1.429 . S
C1112 H1136 0.950 . S
C1113 C1130 1.574 . S
C1113 C1132 1.368 . S
C1113 H1137 0.949 . S
H1114 C1118 0.949 . S
C1115 C1116 1.349 . S
C1115 C1117 1.327 . S
C1115 H1138 0.950 . S
C1116 C1115 1.349 . S
C1116 C1128 1.349 . S
C1117 C1115 1.327 . S
C1117 C1133 1.429 . S
C1117 H1139 0.950 . S
C1118 H1114 0.949 . S
C1118 C1126 1.574 . S
C1118 C1134 1.368 . S
H1119 C1127 0.950 . S
H1120 C1125 0.950 . S
H1121 C1126 0.949 . S
H1122 C1128 0.950 . S
H1123 C1129 0.950 . S
H1124 C1130 0.949 . S
C1125 H1120 0.950 . S
C1125 C1127 1.327 . S
C1125 C1131 1.429 . S
C1126 C1118 1.574 . S
C1126 H1121 0.949 . S
C1126 C1132 1.368 . S
C1127 C1111 1.349 . S
C1127 H1119 0.950 . S
C1127 C1125 1.327 . S
C1128 C1116 1.349 . S
C1128 H1122 0.950 . S
C1128 C1129 1.327 . S
C1129 H1123 0.950 . S
C1129 C1128 1.327 . S
C1129 C1133 1.429 . S
C1130 C1113 1.574 . S
C1130 H1124 0.949 . S
C1130 C1134 1.368 . S
C1131 C1112 1.429 . S
C1131 C1125 1.429 . S
C1131 C1132 1.523 . S
C1132 C1113 1.368 . S
C1132 C1126 1.368 . S
C1132 C1131 1.523 . S
C1133 C1117 1.429 . S
C1133 C1129 1.429 . S
C1133 C1134 1.523 . S
C1134 C1118 1.368 . S
C1134 C1130 1.368 . S
C1134 C1133 1.523 . S
H1135 C1110 0.950 . S
H1136 C1112 0.950 . S
H1137 C1113 0.949 . S
H1138 C1115 0.950 . S
H1139 C1117 0.950 . S
C1140 C1141 1.349 . S
C1140 C1142 1.327 . S
C1140 H1165 0.950 . S
C1141 C1140 1.349 . S
C1141 C1157 1.349 . S
C1142 C1140 1.327 . S
C1142 C1161 1.429 . S
C1142 H1166 0.950 . S
C1143 C1160 1.574 . S
C1143 C1162 1.368 . S
C1143 H1167 0.949 . S
H1144 C1148 0.949 . S
C1145 C1146 1.349 . S
C1145 C1147 1.327 . S
C1145 H1168 0.950 . S
C1146 C1145 1.349 . S
C1146 C1158 1.349 . S
C1147 C1145 1.327 . S
C1147 C1163 1.429 . S
C1147 H1169 0.950 . S
C1148 H1144 0.949 . S
C1148 C1156 1.574 . S
C1148 C1164 1.368 . S
H1149 C1157 0.950 . S
H1150 C1155 0.950 . S
H1151 C1156 0.949 . S
H1152 C1158 0.950 . S
H1153 C1159 0.950 . S
H1154 C1160 0.949 . S
C1155 H1150 0.950 . S
C1155 C1157 1.327 . S
C1155 C1161 1.429 . S
C1156 C1148 1.574 . S
C1156 H1151 0.949 . S
C1156 C1162 1.368 . S
C1157 C1141 1.349 . S
C1157 H1149 0.950 . S
C1157 C1155 1.327 . S
C1158 C1146 1.349 . S
C1158 H1152 0.950 . S
C1158 C1159 1.327 . S
C1159 H1153 0.950 . S
C1159 C1158 1.327 . S
C1159 C1163 1.429 . S
C1160 C1143 1.574 . S
C1160 H1154 0.949 . S
C1160 C1164 1.368 . S
C1161 C1142 1.429 . S
C1161 C1155 1.429 . S
C1161 C1162 1.523 . S
C1162 C1143 1.368 . S
C1162 C1156 1.368 . S
C1162 C1161 1.523 . S
C1163 C1147 1.429 . S
C1163 C1159 1.429 . S
C1163 C1164 1.523 . S
C1164 C1148 1.368 . S
C1164 C1160 1.368 . S
C1164 C1163 1.523 . S
H1165 C1140 0.950 . S
H1166 C1142 0.950 . S
H1167 C1143 0.949 . S
H1168 C1145 0.950 . S
H1169 C1147 0.950 . S
C1170 C1171 1.349 . S
C1170 C1172 1.327 . S
C1170 H1195 0.950 . S
C1171 C1170 1.349 . S
C1171 C1187 1.349 . S
C1172 C1170 1.327 . S
C1172 C1191 1.429 . S
C1172 H1196 0.950 . S
C1173 C1190 1.574 . S
C1173 C1192 1.368 . S
C1173 H1197 0.949 . S
H1174 C1178 0.949 . S
C1175 C1176 1.349 . S
C1175 C1177 1.327 . S
C1175 H1198 0.950 . S
C1176 C1175 1.349 . S
C1176 C1188 1.349 . S
C1177 C1175 1.327 . S
C1177 C1193 1.429 . S
C1177 H1199 0.950 . S
C1178 H1174 0.949 . S
C1178 C1186 1.574 . S
C1178 C1194 1.368 . S
H1179 C1187 0.950 . S
H1180 C1185 0.950 . S
H1181 C1186 0.949 . S
H1182 C1188 0.950 . S
H1183 C1189 0.950 . S
H1184 C1190 0.949 . S
C1185 H1180 0.950 . S
C1185 C1187 1.327 . S
C1185 C1191 1.429 . S
C1186 C1178 1.574 . S
C1186 H1181 0.949 . S
C1186 C1192 1.368 . S
C1187 C1171 1.349 . S
C1187 H1179 0.950 . S
C1187 C1185 1.327 . S
C1188 C1176 1.349 . S
C1188 H1182 0.950 . S
C1188 C1189 1.327 . S
C1189 H1183 0.950 . S
C1189 C1188 1.327 . S
C1189 C1193 1.429 . S
C1190 C1173 1.574 . S
C1190 H1184 0.949 . S
C1190 C1194 1.368 . S
C1191 C1172 1.429 . S
C1191 C1185 1.429 . S
C1191 C1192 1.523 . S
C1192 C1173 1.368 . S
C1192 C1186 1.368 . S
C1192 C1191 1.523 . S
C1193 C1177 1.429 . S
C1193 C1189 1.429 . S
C1193 C1194 1.523 . S
C1194 C1178 1.368 . S
C1194 C1190 1.368 . S
C1194 C1193 1.523 . S
H1195 C1170 0.950 . S
H1196 C1172 0.950 . S
H1197 C1173 0.949 . S
H1198 C1175 0.950 . S
H1199 C1177 0.950 . S
C1200 C1201 1.349 . S
C1200 C1202 1.327 . S
C1200 H1225 0.950 . S
C1201 C1200 1.349 . S
C1201 C1217 1.349 . S
C1202 C1200 1.327 . S
C1202 C1221 1.429 . S
C1202 H1226 0.950 . S
C1203 C1220 1.574 . S
C1203 C1222 1.368 . S
C1203 H1227 0.949 . S
H1204 C1208 0.949 . S
C1205 C1206 1.349 . S
C1205 C1207 1.327 . S
C1205 H1228 0.950 . S
C1206 C1205 1.349 . S
C1206 C1218 1.349 . S
C1207 C1205 1.327 . S
C1207 C1223 1.429 . S
C1207 H1229 0.950 . S
C1208 H1204 0.949 . S
C1208 C1216 1.574 . S
C1208 C1224 1.368 . S
H1209 C1217 0.950 . S
H1210 C1215 0.950 . S
H1211 C1216 0.949 . S
H1212 C1218 0.950 . S
H1213 C1219 0.950 . S
H1214 C1220 0.949 . S
C1215 H1210 0.950 . S
C1215 C1217 1.327 . S
C1215 C1221 1.429 . S
C1216 C1208 1.574 . S
C1216 H1211 0.949 . S
C1216 C1222 1.368 . S
C1217 C1201 1.349 . S
C1217 H1209 0.950 . S
C1217 C1215 1.327 . S
C1218 C1206 1.349 . S
C1218 H1212 0.950 . S
C1218 C1219 1.327 . S
C1219 H1213 0.950 . S
C1219 C1218 1.327 . S
C1219 C1223 1.429 . S
C1220 C1203 1.574 . S
C1220 H1214 0.949 . S
C1220 C1224 1.368 . S
C1221 C1202 1.429 . S
C1221 C1215 1.429 . S
C1221 C1222 1.523 . S
C1222 C1203 1.368 . S
C1222 C1216 1.368 . S
C1222 C1221 1.523 . S
C1223 C1207 1.429 . S
C1223 C1219 1.429 . S
C1223 C1224 1.523 . S
C1224 C1208 1.368 . S
C1224 C1220 1.368 . S
C1224 C1223 1.523 . S
H1225 C1200 0.950 . S
H1226 C1202 0.950 . S
H1227 C1203 0.949 . S
H1228 C1205 0.950 . S
H1229 C1207 0.950 . S
C1230 C1231 1.349 . S
C1230 C1232 1.327 . S
C1230 H1255 0.950 . S
C1231 C1230 1.349 . S
C1231 C1247 1.349 . S
C1232 C1230 1.327 . S
C1232 C1251 1.429 . S
C1232 H1256 0.950 . S
C1233 C1250 1.574 . S
C1233 C1252 1.368 . S
C1233 H1257 0.949 . S
H1234 C1238 0.949 . S
C1235 C1236 1.349 . S
C1235 C1237 1.327 . S
C1235 H1258 0.950 . S
C1236 C1235 1.349 . S
C1236 C1248 1.349 . S
C1237 C1235 1.327 . S
C1237 C1253 1.429 . S
C1237 H1259 0.950 . S
C1238 H1234 0.949 . S
C1238 C1246 1.574 . S
C1238 C1254 1.368 . S
H1239 C1247 0.950 . S
H1240 C1245 0.950 . S
H1241 C1246 0.949 . S
H1242 C1248 0.950 . S
H1243 C1249 0.950 . S
H1244 C1250 0.949 . S
C1245 H1240 0.950 . S
C1245 C1247 1.327 . S
C1245 C1251 1.429 . S
C1246 C1238 1.574 . S
C1246 H1241 0.949 . S
C1246 C1252 1.368 . S
C1247 C1231 1.349 . S
C1247 H1239 0.950 . S
C1247 C1245 1.327 . S
C1248 C1236 1.349 . S
C1248 H1242 0.950 . S
C1248 C1249 1.327 . S
C1249 H1243 0.950 . S
C1249 C1248 1.327 . S
C1249 C1253 1.429 . S
C1250 C1233 1.574 . S
C1250 H1244 0.949 . S
C1250 C1254 1.368 . S
C1251 C1232 1.429 . S
C1251 C1245 1.429 . S
C1251 C1252 1.523 . S
C1252 C1233 1.368 . S
C1252 C1246 1.368 . S
C1252 C1251 1.523 . S
C1253 C1237 1.429 . S
C1253 C1249 1.429 . S
C1253 C1254 1.523 . S
C1254 C1238 1.368 . S
C1254 C1250 1.368 . S
C1254 C1253 1.523 . S
H1255 C1230 0.950 . S
H1256 C1232 0.950 . S
H1257 C1233 0.949 . S
H1258 C1235 0.950 . S
H1259 C1237 0.950 . S
C1260 C1261 1.349 . S
C1260 C1262 1.327 . S
C1260 H1285 0.950 . S
C1261 C1260 1.349 . S
C1261 C1277 1.349 . S
C1262 C1260 1.327 . S
C1262 C1281 1.429 . S
C1262 H1286 0.950 . S
C1263 C1280 1.574 . S
C1263 C1282 1.368 . S
C1263 H1287 0.949 . S
H1264 C1268 0.949 . S
C1265 C1266 1.349 . S
C1265 C1267 1.327 . S
C1265 H1288 0.950 . S
C1266 C1265 1.349 . S
C1266 C1278 1.349 . S
C1267 C1265 1.327 . S
C1267 C1283 1.429 . S
C1267 H1289 0.950 . S
C1268 H1264 0.949 . S
C1268 C1276 1.574 . S
C1268 C1284 1.368 . S
H1269 C1277 0.950 . S
H1270 C1275 0.950 . S
H1271 C1276 0.949 . S
H1272 C1278 0.950 . S
H1273 C1279 0.950 . S
H1274 C1280 0.949 . S
C1275 H1270 0.950 . S
C1275 C1277 1.327 . S
C1275 C1281 1.429 . S
C1276 C1268 1.574 . S
C1276 H1271 0.949 . S
C1276 C1282 1.368 . S
C1277 C1261 1.349 . S
C1277 H1269 0.950 . S
C1277 C1275 1.327 . S
C1278 C1266 1.349 . S
C1278 H1272 0.950 . S
C1278 C1279 1.327 . S
C1279 H1273 0.950 . S
C1279 C1278 1.327 . S
C1279 C1283 1.429 . S
C1280 C1263 1.574 . S
C1280 H1274 0.949 . S
C1280 C1284 1.368 . S
C1281 C1262 1.429 . S
C1281 C1275 1.429 . S
C1281 C1282 1.523 . S
C1282 C1263 1.368 . S
C1282 C1276 1.368 . S
C1282 C1281 1.523 . S
C1283 C1267 1.429 . S
C1283 C1279 1.429 . S
C1283 C1284 1.523 . S
C1284 C1268 1.368 . S
C1284 C1280 1.368 . S
C1284 C1283 1.523 . S
H1285 C1260 0.950 . S
H1286 C1262 0.950 . S
H1287 C1263 0.949 . S
H1288 C1265 0.950 . S
H1289 C1267 0.950 . S
C1290 C1291 1.349 . S
C1290 C1292 1.327 . S
C1290 H1315 0.950 . S
C1291 C1290 1.349 . S
C1291 C1307 1.349 . S
C1292 C1290 1.327 . S
C1292 C1311 1.429 . S
C1292 H1316 0.950 . S
C1293 C1310 1.574 . S
C1293 C1312 1.368 . S
C1293 H1317 0.949 . S
H1294 C1298 0.949 . S
C1295 C1296 1.349 . S
C1295 C1297 1.327 . S
C1295 H1318 0.950 . S
C1296 C1295 1.349 . S
C1296 C1308 1.349 . S
C1297 C1295 1.327 . S
C1297 C1313 1.429 . S
C1297 H1319 0.950 . S
C1298 H1294 0.949 . S
C1298 C1306 1.574 . S
C1298 C1314 1.368 . S
H1299 C1307 0.950 . S
H1300 C1305 0.950 . S
H1301 C1306 0.949 . S
H1302 C1308 0.950 . S
H1303 C1309 0.950 . S
H1304 C1310 0.949 . S
C1305 H1300 0.950 . S
C1305 C1307 1.327 . S
C1305 C1311 1.429 . S
C1306 C1298 1.574 . S
C1306 H1301 0.949 . S
C1306 C1312 1.368 . S
C1307 C1291 1.349 . S
C1307 H1299 0.950 . S
C1307 C1305 1.327 . S
C1308 C1296 1.349 . S
C1308 H1302 0.950 . S
C1308 C1309 1.327 . S
C1309 H1303 0.950 . S
C1309 C1308 1.327 . S
C1309 C1313 1.429 . S
C1310 C1293 1.574 . S
C1310 H1304 0.949 . S
C1310 C1314 1.368 . S
C1311 C1292 1.429 . S
C1311 C1305 1.429 . S
C1311 C1312 1.523 . S
C1312 C1293 1.368 . S
C1312 C1306 1.368 . S
C1312 C1311 1.523 . S
C1313 C1297 1.429 . S
C1313 C1309 1.429 . S
C1313 C1314 1.523 . S
C1314 C1298 1.368 . S
C1314 C1310 1.368 . S
C1314 C1313 1.523 . S
H1315 C1290 0.950 . S
H1316 C1292 0.950 . S
H1317 C1293 0.949 . S
H1318 C1295 0.950 . S
H1319 C1297 0.950 . S
C1320 C1321 1.349 . S
C1320 C1322 1.327 . S
C1320 H1345 0.950 . S
C1321 C1320 1.349 . S
C1321 C1337 1.349 . S
C1322 C1320 1.327 . S
C1322 C1341 1.429 . S
C1322 H1346 0.950 . S
C1323 C1340 1.574 . S
C1323 C1342 1.368 . S
C1323 H1347 0.949 . S
H1324 C1328 0.949 . S
C1325 C1326 1.349 . S
C1325 C1327 1.327 . S
C1325 H1348 0.950 . S
C1326 C1325 1.349 . S
C1326 C1338 1.349 . S
C1327 C1325 1.327 . S
C1327 C1343 1.429 . S
C1327 H1349 0.950 . S
C1328 H1324 0.949 . S
C1328 C1336 1.574 . S
C1328 C1344 1.368 . S
H1329 C1337 0.950 . S
H1330 C1335 0.950 . S
H1331 C1336 0.949 . S
H1332 C1338 0.950 . S
H1333 C1339 0.950 . S
H1334 C1340 0.949 . S
C1335 H1330 0.950 . S
C1335 C1337 1.327 . S
C1335 C1341 1.429 . S
C1336 C1328 1.574 . S
C1336 H1331 0.949 . S
C1336 C1342 1.368 . S
C1337 C1321 1.349 . S
C1337 H1329 0.950 . S
C1337 C1335 1.327 . S
C1338 C1326 1.349 . S
C1338 H1332 0.950 . S
C1338 C1339 1.327 . S
C1339 H1333 0.950 . S
C1339 C1338 1.327 . S
C1339 C1343 1.429 . S
C1340 C1323 1.574 . S
C1340 H1334 0.949 . S
C1340 C1344 1.368 . S
C1341 C1322 1.429 . S
C1341 C1335 1.429 . S
C1341 C1342 1.523 . S
C1342 C1323 1.368 . S
C1342 C1336 1.368 . S
C1342 C1341 1.523 . S
C1343 C1327 1.429 . S
C1343 C1339 1.429 . S
C1343 C1344 1.523 . S
C1344 C1328 1.368 . S
C1344 C1340 1.368 . S
C1344 C1343 1.523 . S
H1345 C1320 0.950 . S
H1346 C1322 0.950 . S
H1347 C1323 0.949 . S
H1348 C1325 0.950 . S
H1349 C1327 0.950 . S
C1350 C1351 1.349 . S
C1350 C1352 1.327 . S
C1350 H1375 0.950 . S
C1351 C1350 1.349 . S
C1351 C1367 1.349 . S
C1352 C1350 1.327 . S
C1352 C1371 1.429 . S
C1352 H1376 0.950 . S
C1353 C1370 1.574 . S
C1353 C1372 1.368 . S
C1353 H1377 0.949 . S
H1354 C1358 0.949 . S
C1355 C1356 1.349 . S
C1355 C1357 1.327 . S
C1355 H1378 0.950 . S
C1356 C1355 1.349 . S
C1356 C1368 1.349 . S
C1357 C1355 1.327 . S
C1357 C1373 1.429 . S
C1357 H1379 0.950 . S
C1358 H1354 0.949 . S
C1358 C1366 1.574 . S
C1358 C1374 1.368 . S
H1359 C1367 0.950 . S
H1360 C1365 0.950 . S
H1361 C1366 0.949 . S
H1362 C1368 0.950 . S
H1363 C1369 0.950 . S
H1364 C1370 0.949 . S
C1365 H1360 0.950 . S
C1365 C1367 1.327 . S
C1365 C1371 1.429 . S
C1366 C1358 1.574 . S
C1366 H1361 0.949 . S
C1366 C1372 1.368 . S
C1367 C1351 1.349 . S
C1367 H1359 0.950 . S
C1367 C1365 1.327 . S
C1368 C1356 1.349 . S
C1368 H1362 0.950 . S
C1368 C1369 1.327 . S
C1369 H1363 0.950 . S
C1369 C1368 1.327 . S
C1369 C1373 1.429 . S
C1370 C1353 1.574 . S
C1370 H1364 0.949 . S
C1370 C1374 1.368 . S
C1371 C1352 1.429 . S
C1371 C1365 1.429 . S
C1371 C1372 1.523 . S
C1372 C1353 1.368 . S
C1372 C1366 1.368 . S
C1372 C1371 1.523 . S
C1373 C1357 1.429 . S
C1373 C1369 1.429 . S
C1373 C1374 1.523 . S
C1374 C1358 1.368 . S
C1374 C1370 1.368 . S
C1374 C1373 1.523 . S
H1375 C1350 0.950 . S
H1376 C1352 0.950 . S
H1377 C1353 0.949 . S
H1378 C1355 0.950 . S
H1379 C1357 0.950 . S
C1380 C1381 1.349 . S
C1380 C1382 1.327 . S
C1380 H1405 0.950 . S
C1381 C1380 1.349 . S
C1381 C1397 1.349 . S
C1382 C1380 1.327 . S
C1382 C1401 1.429 . S
C1382 H1406 0.950 . S
C1383 C1400 1.574 . S
C1383 C1402 1.368 . S
C1383 H1407 0.949 . S
H1384 C1388 0.949 . S
C1385 C1386 1.349 . S
C1385 C1387 1.327 . S
C1385 H1408 0.950 . S
C1386 C1385 1.349 . S
C1386 C1398 1.349 . S
C1387 C1385 1.327 . S
C1387 C1403 1.429 . S
C1387 H1409 0.950 . S
C1388 H1384 0.949 . S
C1388 C1396 1.574 . S
C1388 C1404 1.368 . S
H1389 C1397 0.950 . S
H1390 C1395 0.950 . S
H1391 C1396 0.949 . S
H1392 C1398 0.950 . S
H1393 C1399 0.950 . S
H1394 C1400 0.949 . S
C1395 H1390 0.950 . S
C1395 C1397 1.327 . S
C1395 C1401 1.429 . S
C1396 C1388 1.574 . S
C1396 H1391 0.949 . S
C1396 C1402 1.368 1_554 S
C1397 C1381 1.349 . S
C1397 H1389 0.950 . S
C1397 C1395 1.327 . S
C1398 C1386 1.349 . S
C1398 H1392 0.950 . S
C1398 C1399 1.327 . S
C1399 H1393 0.950 . S
C1399 C1398 1.327 . S
C1399 C1403 1.429 . S
C1400 C1383 1.574 . S
C1400 H1394 0.949 . S
C1400 C1404 1.368 1_556 S
C1401 C1382 1.429 . S
C1401 C1395 1.429 . S
C1401 C1402 1.523 . S
C1402 C1383 1.368 . S
C1402 C1396 1.368 1_556 S
C1402 C1401 1.523 . S
C1403 C1387 1.429 . S
C1403 C1399 1.429 . S
C1403 C1404 1.523 . S
C1404 C1388 1.368 . S
C1404 C1400 1.368 1_554 S
C1404 C1403 1.523 . S
H1405 C1380 0.950 . S
H1406 C1382 0.950 . S
H1407 C1383 0.949 . S
H1408 C1385 0.950 . S
H1409 C1387 0.950 . S
C1410 C1411 1.349 . S
C1410 C1412 1.327 . S
C1410 H1435 0.950 . S
C1411 C1410 1.349 . S
C1411 C1427 1.349 . S
C1412 C1410 1.327 . S
C1412 C1431 1.429 . S
C1412 H1436 0.950 . S
C1413 C1430 1.574 1_455 S
C1413 C1432 1.368 . S
C1413 H1437 0.949 . S
H1414 C1418 0.949 . S
C1415 C1416 1.349 . S
C1415 C1417 1.327 . S
C1415 H1438 0.950 . S
C1416 C1415 1.349 . S
C1416 C1428 1.349 . S
C1417 C1415 1.327 . S
C1417 C1433 1.429 . S
C1417 H1439 0.950 . S
C1418 H1414 0.949 . S
C1418 C1426 1.574 1_655 S
C1418 C1434 1.368 . S
H1419 C1427 0.950 . S
H1420 C1425 0.950 . S
H1421 C1426 0.949 . S
H1422 C1428 0.950 . S
H1423 C1429 0.950 . S
H1424 C1430 0.949 . S
C1425 H1420 0.950 . S
C1425 C1427 1.327 . S
C1425 C1431 1.429 . S
C1426 C1418 1.574 1_455 S
C1426 H1421 0.949 . S
C1426 C1432 1.368 . S
C1427 C1411 1.349 . S
C1427 H1419 0.950 . S
C1427 C1425 1.327 . S
C1428 C1416 1.349 . S
C1428 H1422 0.950 . S
C1428 C1429 1.327 . S
C1429 H1423 0.950 . S
C1429 C1428 1.327 . S
C1429 C1433 1.429 . S
C1430 C1413 1.574 1_655 S
C1430 H1424 0.949 . S
C1430 C1434 1.368 . S
C1431 C1412 1.429 . S
C1431 C1425 1.429 . S
C1431 C1432 1.523 . S
C1432 C1413 1.368 . S
C1432 C1426 1.368 . S
C1432 C1431 1.523 . S
C1433 C1417 1.429 . S
C1433 C1429 1.429 . S
C1433 C1434 1.523 . S
C1434 C1418 1.368 . S
C1434 C1430 1.368 . S
C1434 C1433 1.523 . S
H1435 C1410 0.950 . S
H1436 C1412 0.950 . S
H1437 C1413 0.949 . S
H1438 C1415 0.950 . S
H1439 C1417 0.950 . S
C1440 C1441 1.349 . S
C1440 C1442 1.327 . S
C1440 H1465 0.950 . S
C1441 C1440 1.349 . S
C1441 C1457 1.349 . S
C1442 C1440 1.327 . S
C1442 C1461 1.429 . S
C1442 H1466 0.950 . S
C1443 C1460 1.574 . S
C1443 C1462 1.368 1_556 S
C1443 H1467 0.949 . S
H1444 C1448 0.949 . S
C1445 C1446 1.349 . S
C1445 C1447 1.327 . S
C1445 H1468 0.950 . S
C1446 C1445 1.349 . S
C1446 C1458 1.349 . S
C1447 C1445 1.327 . S
C1447 C1463 1.429 . S
C1447 H1469 0.950 . S
C1448 H1444 0.949 . S
C1448 C1456 1.574 . S
C1448 C1464 1.368 1_554 S
H1449 C1457 0.950 . S
H1450 C1455 0.950 . S
H1451 C1456 0.949 . S
H1452 C1458 0.950 . S
H1453 C1459 0.950 . S
H1454 C1460 0.949 . S
C1455 H1450 0.950 . S
C1455 C1457 1.327 . S
C1455 C1461 1.429 . S
C1456 C1448 1.574 . S
C1456 H1451 0.949 . S
C1456 C1462 1.368 1_545 S
C1457 C1441 1.349 . S
C1457 H1449 0.950 . S
C1457 C1455 1.327 . S
C1458 C1446 1.349 . S
C1458 H1452 0.950 . S
C1458 C1459 1.327 . S
C1459 H1453 0.950 . S
C1459 C1458 1.327 . S
C1459 C1463 1.429 . S
C1460 C1443 1.574 . S
C1460 H1454 0.949 . S
C1460 C1464 1.368 1_565 S
C1461 C1442 1.429 . S
C1461 C1455 1.429 . S
C1461 C1462 1.523 . S
C1462 C1443 1.368 1_554 S
C1462 C1456 1.368 1_565 S
C1462 C1461 1.523 . S
C1463 C1447 1.429 . S
C1463 C1459 1.429 . S
C1463 C1464 1.523 . S
C1464 C1448 1.368 1_556 S
C1464 C1460 1.368 1_545 S
C1464 C1463 1.523 . S
H1465 C1440 0.950 . S
H1466 C1442 0.950 . S
H1467 C1443 0.949 . S
H1468 C1445 0.950 . S
H1469 C1447 0.950 . S
C1470 C1471 1.349 . S
C1470 C1472 1.327 . S
C1470 H1495 0.950 . S
C1471 C1470 1.349 . S
C1471 C1487 1.349 . S
C1472 C1470 1.327 . S
C1472 C1491 1.429 . S
C1472 H1496 0.950 . S
C1473 C1490 1.574 . S
C1473 C1492 1.368 . S
C1473 H1497 0.949 . S
H1474 C1478 0.949 . S
C1475 C1476 1.349 . S
C1475 C1477 1.327 . S
C1475 H1498 0.950 . S
C1476 C1475 1.349 . S
C1476 C1488 1.349 . S
C1477 C1475 1.327 . S
C1477 C1493 1.429 . S
C1477 H1499 0.950 . S
C1478 H1474 0.949 . S
C1478 C1486 1.574 . S
C1478 C1494 1.368 . S
H1479 C1487 0.950 . S
H1480 C1485 0.950 . S
H1481 C1486 0.949 . S
H1482 C1488 0.950 . S
H1483 C1489 0.950 . S
H1484 C1490 0.949 . S
C1485 H1480 0.950 . S
C1485 C1487 1.327 . S
C1485 C1491 1.429 . S
C1486 C1478 1.574 . S
C1486 H1481 0.949 . S
C1486 C1492 1.368 . S
C1487 C1471 1.349 . S
C1487 H1479 0.950 . S
C1487 C1485 1.327 . S
C1488 C1476 1.349 . S
C1488 H1482 0.950 . S
C1488 C1489 1.327 . S
C1489 H1483 0.950 . S
C1489 C1488 1.327 . S
C1489 C1493 1.429 . S
C1490 C1473 1.574 . S
C1490 H1484 0.949 . S
C1490 C1494 1.368 . S
C1491 C1472 1.429 . S
C1491 C1485 1.429 . S
C1491 C1492 1.523 . S
C1492 C1473 1.368 . S
C1492 C1486 1.368 . S
C1492 C1491 1.523 . S
C1493 C1477 1.429 . S
C1493 C1489 1.429 . S
C1493 C1494 1.523 . S
C1494 C1478 1.368 . S
C1494 C1490 1.368 . S
C1494 C1493 1.523 . S
H1495 C1470 0.950 . S
H1496 C1472 0.950 . S
H1497 C1473 0.949 . S
H1498 C1475 0.950 . S
H1499 C1477 0.950 . S
C1500 C1501 1.349 . S
C1500 C1502 1.327 . S
C1500 H1525 0.950 . S
C1501 C1500 1.349 . S
C1501 C1517 1.349 . S
C1502 C1500 1.327 . S
C1502 C1521 1.429 . S
C1502 H1526 0.950 . S
C1503 C1520 1.574 1_656 S
C1503 C1522 1.368 . S
C1503 H1527 0.949 . S
H1504 C1508 0.949 . S
C1505 C1506 1.349 . S
C1505 C1507 1.327 . S
C1505 H1528 0.950 . S
C1506 C1505 1.349 . S
C1506 C1518 1.349 . S
C1507 C1505 1.327 . S
C1507 C1523 1.429 . S
C1507 H1529 0.950 . S
C1508 H1504 0.949 . S
C1508 C1516 1.574 1_454 S
C1508 C1524 1.368 . S
H1509 C1517 0.950 . S
H1510 C1515 0.950 . S
H1511 C1516 0.949 . S
H1512 C1518 0.950 . S
H1513 C1519 0.950 . S
H1514 C1520 0.949 . S
C1515 H1510 0.950 . S
C1515 C1517 1.327 . S
C1515 C1521 1.429 . S
C1516 C1508 1.574 1_656 S
C1516 H1511 0.949 . S
C1516 C1522 1.368 . S
C1517 C1501 1.349 . S
C1517 H1509 0.950 . S
C1517 C1515 1.327 . S
C1518 C1506 1.349 . S
C1518 H1512 0.950 . S
C1518 C1519 1.327 . S
C1519 H1513 0.950 . S
C1519 C1518 1.327 . S
C1519 C1523 1.429 . S
C1520 C1503 1.574 1_454 S
C1520 H1514 0.949 . S
C1520 C1524 1.368 . S
C1521 C1502 1.429 . S
C1521 C1515 1.429 . S
C1521 C1522 1.523 . S
C1522 C1503 1.368 . S
C1522 C1516 1.368 . S
C1522 C1521 1.523 . S
C1523 C1507 1.429 . S
C1523 C1519 1.429 . S
C1523 C1524 1.523 . S
C1524 C1508 1.368 . S
C1524 C1520 1.368 . S
C1524 C1523 1.523 . S
H1525 C1500 0.950 . S
H1526 C1502 0.950 . S
H1527 C1503 0.949 . S
H1528 C1505 0.950 . S
H1529 C1507 0.950 . S
C1530 C1531 1.349 . S
C1530 C1532 1.327 . S
C1530 H1555 0.950 . S
C1531 C1530 1.349 . S
C1531 C1547 1.349 . S
C1532 C1530 1.327 . S
C1532 C1551 1.429 . S
C1532 H1556 0.950 . S
C1533 C1550 1.574 . S
C1533 C1552 1.368 1_545 S
C1533 H1557 0.949 . S
H1534 C1538 0.949 . S
C1535 C1536 1.349 . S
C1535 C1537 1.327 . S
C1535 H1558 0.950 . S
C1536 C1535 1.349 . S
C1536 C1548 1.349 . S
C1537 C1535 1.327 . S
C1537 C1553 1.429 . S
C1537 H1559 0.950 . S
C1538 H1534 0.949 . S
C1538 C1546 1.574 . S
C1538 C1554 1.368 1_565 S
H1539 C1547 0.950 . S
H1540 C1545 0.950 . S
H1541 C1546 0.949 . S
H1542 C1548 0.950 . S
H1543 C1549 0.950 . S
H1544 C1550 0.949 . S
C1545 H1540 0.950 . S
C1545 C1547 1.327 . S
C1545 C1551 1.429 . S
C1546 C1538 1.574 . S
C1546 H1541 0.949 . S
C1546 C1552 1.368 . S
C1547 C1531 1.349 . S
C1547 H1539 0.950 . S
C1547 C1545 1.327 . S
C1548 C1536 1.349 . S
C1548 H1542 0.950 . S
C1548 C1549 1.327 . S
C1549 H1543 0.950 . S
C1549 C1548 1.327 . S
C1549 C1553 1.429 . S
C1550 C1533 1.574 . S
C1550 H1544 0.949 . S
C1550 C1554 1.368 . S
C1551 C1532 1.429 . S
C1551 C1545 1.429 . S
C1551 C1552 1.523 . S
C1552 C1533 1.368 1_565 S
C1552 C1546 1.368 . S
C1552 C1551 1.523 . S
C1553 C1537 1.429 . S
C1553 C1549 1.429 . S
C1553 C1554 1.523 . S
C1554 C1538 1.368 1_545 S
C1554 C1550 1.368 . S
C1554 C1553 1.523 . S
H1555 C1530 0.950 . S
H1556 C1532 0.950 . S
H1557 C1533 0.949 . S
H1558 C1535 0.950 . S
H1559 C1537 0.950 . S
C481 C171 1.220 . S
C486 C16 1.251 . S
C511 C211 1.220 . S
C516 C56 1.251 . S
C541 C96 1.251 . S
C546 C11 1.220 . S
C571 C136 1.251 . S
C576 C51 1.220 . S
C601 C176 1.251 . S
C606 C91 1.220 . S
C631 C131 1.220 . S
C636 C216 1.251 . S
C661 C331 1.220 . S
C666 C256 1.251 . S
C691 C296 1.251 . S
C696 C371 1.220 . S
C721 C411 1.220 . S
C726 C336 1.251 . S
C751 C376 1.251 . S
C756 C451 1.220 . S
C781 C416 1.251 . S
C786 C251 1.220 . S
C811 C291 1.220 . S
C816 C456 1.251 . S
C841 C162 1.764 . S
C846 C7 1.762 . S
C871 C47 1.762 . S
C876 C202 1.764 . S
C901 C87 1.762 . S
C906 C2 1.764 . S
C931 C127 1.762 . S
C936 C42 1.764 . S
C961 C82 1.764 . S
C966 C167 1.762 . S
C991 C122 1.764 . S
C996 C207 1.762 . S
C1021 C322 1.764 . S
C1026 C247 1.762 . S
C1051 C287 1.762 . S
C1056 C362 1.764 . S
C1081 C327 1.762 . S
C1086 C402 1.764 . S
C1111 C442 1.764 . S
C1116 C367 1.762 . S
C1141 C407 1.762 . S
C1146 C242 1.764 . S
C1171 C282 1.764 . S
C1176 C447 1.762 . S
C1201 C419 1.661 . S
C1206 C19 1.661 . S
C1231 C59 1.661 . S
C1236 C459 1.661 . S
C1261 C99 1.661 . S
C1266 C259 1.661 . S
C1291 C139 1.661 . S
C1296 C299 1.661 . S
C1321 C179 1.661 . S
C1326 C339 1.661 . S
C1351 C379 1.661 . S
C1356 C219 1.661 . S
C1381 C370 2.148 . S
C1386 C10 2.148 . S
C1411 C410 2.148 . S
C1416 C50 2.148 . S
C1441 C90 2.148 . S
C1446 C450 2.148 . S
C1471 C130 2.148 . S
C1476 C250 2.148 . S
C1501 C290 2.148 . S
C1506 C170 2.148 . S
C1531 C330 2.148 . S
C1536 C210 2.148 . S
