# Generated by pormake.
# Topology fcd, (5)-cn, num edge types: 1
# Building blocks:
#     Node 0, Type 0, BuildingBlock: XOMCOT_clean_sbu_1, # of connection points: 5
#     Node 1, Type 0, BuildingBlock: XOMCOT_clean_sbu_1, # of connection points: 5
#     Node 2, Type 0, BuildingBlock: XOMCOT_clean_sbu_1, # of connection points: 5
#     Node 3, Type 0, BuildingBlock: XOMCOT_clean_sbu_1, # of connection points: 5
#     Node 4, Type 0, BuildingBlock: XOMCOT_clean_sbu_1, # of connection points: 5
#     Node 5, Type 0, BuildingBlock: XOMCOT_clean_sbu_1, # of connection points: 5
#     Node 6, Type 0, BuildingBlock: XOMCOT_clean_sbu_1, # of connection points: 5
#     Node 7, Type 0, BuildingBlock: XOMCOT_clean_sbu_1, # of connection points: 5
#     Node 8, Type 0, BuildingBlock: XOMCOT_clean_sbu_1, # of connection points: 5
#     Node 9, Type 0, BuildingBlock: XOMCOT_clean_sbu_1, # of connection points: 5
#     Node 10, Type 0, BuildingBlock: XOMCOT_clean_sbu_1, # of connection points: 5
#     Node 11, Type 0, BuildingBlock: XOMCOT_clean_sbu_1, # of connection points: 5
#     Node 12, Type 0, BuildingBlock: XOMCOT_clean_sbu_1, # of connection points: 5
#     Node 13, Type 0, BuildingBlock: XOMCOT_clean_sbu_1, # of connection points: 5
#     Node 14, Type 0, BuildingBlock: XOMCOT_clean_sbu_1, # of connection points: 5
#     Node 15, Type 0, BuildingBlock: XOMCOT_clean_sbu_1, # of connection points: 5
#     Node 16, Type 0, BuildingBlock: XOMCOT_clean_sbu_1, # of connection points: 5
#     Node 17, Type 0, BuildingBlock: XOMCOT_clean_sbu_1, # of connection points: 5
#     Node 18, Type 0, BuildingBlock: XOMCOT_clean_sbu_1, # of connection points: 5
#     Node 19, Type 0, BuildingBlock: XOMCOT_clean_sbu_1, # of connection points: 5
#     Node 20, Type 0, BuildingBlock: XOMCOT_clean_sbu_1, # of connection points: 5
#     Node 21, Type 0, BuildingBlock: XOMCOT_clean_sbu_1, # of connection points: 5
#     Node 22, Type 0, BuildingBlock: XOMCOT_clean_sbu_1, # of connection points: 5
#     Node 23, Type 0, BuildingBlock: XOMCOT_clean_sbu_1, # of connection points: 5
#     Node 24, Type 0, BuildingBlock: XOMCOT_clean_sbu_1, # of connection points: 5
#     Node 25, Type 0, BuildingBlock: XOMCOT_clean_sbu_1, # of connection points: 5
#     Node 26, Type 0, BuildingBlock: XOMCOT_clean_sbu_1, # of connection points: 5
#     Node 27, Type 0, BuildingBlock: XOMCOT_clean_sbu_1, # of connection points: 5
#     Node 28, Type 0, BuildingBlock: XOMCOT_clean_sbu_1, # of connection points: 5
#     Node 29, Type 0, BuildingBlock: XOMCOT_clean_sbu_1, # of connection points: 5
#     Node 30, Type 0, BuildingBlock: XOMCOT_clean_sbu_1, # of connection points: 5
#     Node 31, Type 0, BuildingBlock: XOMCOT_clean_sbu_1, # of connection points: 5
#     Node 32, Type 0, BuildingBlock: XOMCOT_clean_sbu_1, # of connection points: 5
#     Node 33, Type 0, BuildingBlock: XOMCOT_clean_sbu_1, # of connection points: 5
#     Node 34, Type 0, BuildingBlock: XOMCOT_clean_sbu_1, # of connection points: 5
#     Node 35, Type 0, BuildingBlock: XOMCOT_clean_sbu_1, # of connection points: 5
#     Node 36, Type 0, BuildingBlock: XOMCOT_clean_sbu_1, # of connection points: 5
#     Node 37, Type 0, BuildingBlock: XOMCOT_clean_sbu_1, # of connection points: 5
#     Node 38, Type 0, BuildingBlock: XOMCOT_clean_sbu_1, # of connection points: 5
#     Node 39, Type 0, BuildingBlock: XOMCOT_clean_sbu_1, # of connection points: 5
#     Node 40, Type 0, BuildingBlock: XOMCOT_clean_sbu_1, # of connection points: 5
#     Node 41, Type 0, BuildingBlock: XOMCOT_clean_sbu_1, # of connection points: 5
#     Node 42, Type 0, BuildingBlock: XOMCOT_clean_sbu_1, # of connection points: 5
#     Node 43, Type 0, BuildingBlock: XOMCOT_clean_sbu_1, # of connection points: 5
#     Node 44, Type 0, BuildingBlock: XOMCOT_clean_sbu_1, # of connection points: 5
#     Node 45, Type 0, BuildingBlock: XOMCOT_clean_sbu_1, # of connection points: 5
#     Node 46, Type 0, BuildingBlock: XOMCOT_clean_sbu_1, # of connection points: 5
#     Node 47, Type 0, BuildingBlock: XOMCOT_clean_sbu_1, # of connection points: 5
#     Edge 48, Type (0, 0), BuildingBlock: XUDNAN_clean_linker_2, # of connection points: 2
#     Edge 49, Type (0, 0), BuildingBlock: XUDNAN_clean_linker_2, # of connection points: 2
#     Edge 50, Type (0, 0), BuildingBlock: XUDNAN_clean_linker_2, # of connection points: 2
#     Edge 51, Type (0, 0), BuildingBlock: XUDNAN_clean_linker_2, # of connection points: 2
#     Edge 52, Type (0, 0), BuildingBlock: XUDNAN_clean_linker_2, # of connection points: 2
#     Edge 53, Type (0, 0), BuildingBlock: XUDNAN_clean_linker_2, # of connection points: 2
#     Edge 54, Type (0, 0), BuildingBlock: XUDNAN_clean_linker_2, # of connection points: 2
#     Edge 55, Type (0, 0), BuildingBlock: XUDNAN_clean_linker_2, # of connection points: 2
#     Edge 56, Type (0, 0), BuildingBlock: XUDNAN_clean_linker_2, # of connection points: 2
#     Edge 57, Type (0, 0), BuildingBlock: XUDNAN_clean_linker_2, # of connection points: 2
#     Edge 58, Type (0, 0), BuildingBlock: XUDNAN_clean_linker_2, # of connection points: 2
#     Edge 59, Type (0, 0), BuildingBlock: XUDNAN_clean_linker_2, # of connection points: 2
#     Edge 60, Type (0, 0), BuildingBlock: XUDNAN_clean_linker_2, # of connection points: 2
#     Edge 61, Type (0, 0), BuildingBlock: XUDNAN_clean_linker_2, # of connection points: 2
#     Edge 62, Type (0, 0), BuildingBlock: XUDNAN_clean_linker_2, # of connection points: 2
#     Edge 63, Type (0, 0), BuildingBlock: XUDNAN_clean_linker_2, # of connection points: 2
#     Edge 64, Type (0, 0), BuildingBlock: XUDNAN_clean_linker_2, # of connection points: 2
#     Edge 65, Type (0, 0), BuildingBlock: XUDNAN_clean_linker_2, # of connection points: 2
#     Edge 66, Type (0, 0), BuildingBlock: XUDNAN_clean_linker_2, # of connection points: 2
#     Edge 67, Type (0, 0), BuildingBlock: XUDNAN_clean_linker_2, # of connection points: 2
#     Edge 68, Type (0, 0), BuildingBlock: XUDNAN_clean_linker_2, # of connection points: 2
#     Edge 69, Type (0, 0), BuildingBlock: XUDNAN_clean_linker_2, # of connection points: 2
#     Edge 70, Type (0, 0), BuildingBlock: XUDNAN_clean_linker_2, # of connection points: 2
#     Edge 71, Type (0, 0), BuildingBlock: XUDNAN_clean_linker_2, # of connection points: 2
#     Edge 72, Type (0, 0), BuildingBlock: XUDNAN_clean_linker_2, # of connection points: 2
#     Edge 73, Type (0, 0), BuildingBlock: XUDNAN_clean_linker_2, # of connection points: 2
#     Edge 74, Type (0, 0), BuildingBlock: XUDNAN_clean_linker_2, # of connection points: 2
#     Edge 75, Type (0, 0), BuildingBlock: XUDNAN_clean_linker_2, # of connection points: 2
#     Edge 76, Type (0, 0), BuildingBlock: XUDNAN_clean_linker_2, # of connection points: 2
#     Edge 77, Type (0, 0), BuildingBlock: XUDNAN_clean_linker_2, # of connection points: 2
#     Edge 78, Type (0, 0), BuildingBlock: XUDNAN_clean_linker_2, # of connection points: 2
#     Edge 79, Type (0, 0), BuildingBlock: XUDNAN_clean_linker_2, # of connection points: 2
#     Edge 80, Type (0, 0), BuildingBlock: XUDNAN_clean_linker_2, # of connection points: 2
#     Edge 81, Type (0, 0), BuildingBlock: XUDNAN_clean_linker_2, # of connection points: 2
#     Edge 82, Type (0, 0), BuildingBlock: XUDNAN_clean_linker_2, # of connection points: 2
#     Edge 83, Type (0, 0), BuildingBlock: XUDNAN_clean_linker_2, # of connection points: 2
#     Edge 84, Type (0, 0), BuildingBlock: XUDNAN_clean_linker_2, # of connection points: 2
#     Edge 85, Type (0, 0), BuildingBlock: XUDNAN_clean_linker_2, # of connection points: 2
#     Edge 86, Type (0, 0), BuildingBlock: XUDNAN_clean_linker_2, # of connection points: 2
#     Edge 87, Type (0, 0), BuildingBlock: XUDNAN_clean_linker_2, # of connection points: 2
#     Edge 88, Type (0, 0), BuildingBlock: XUDNAN_clean_linker_2, # of connection points: 2
#     Edge 89, Type (0, 0), BuildingBlock: XUDNAN_clean_linker_2, # of connection points: 2
#     Edge 90, Type (0, 0), BuildingBlock: XUDNAN_clean_linker_2, # of connection points: 2
#     Edge 91, Type (0, 0), BuildingBlock: XUDNAN_clean_linker_2, # of connection points: 2
#     Edge 92, Type (0, 0), BuildingBlock: XUDNAN_clean_linker_2, # of connection points: 2
#     Edge 93, Type (0, 0), BuildingBlock: XUDNAN_clean_linker_2, # of connection points: 2
#     Edge 94, Type (0, 0), BuildingBlock: XUDNAN_clean_linker_2, # of connection points: 2
#     Edge 95, Type (0, 0), BuildingBlock: XUDNAN_clean_linker_2, # of connection points: 2
#     Edge 96, Type (0, 0), BuildingBlock: XUDNAN_clean_linker_2, # of connection points: 2
#     Edge 97, Type (0, 0), BuildingBlock: XUDNAN_clean_linker_2, # of connection points: 2
#     Edge 98, Type (0, 0), BuildingBlock: XUDNAN_clean_linker_2, # of connection points: 2
#     Edge 99, Type (0, 0), BuildingBlock: XUDNAN_clean_linker_2, # of connection points: 2
#     Edge 100, Type (0, 0), BuildingBlock: XUDNAN_clean_linker_2, # of connection points: 2
#     Edge 101, Type (0, 0), BuildingBlock: XUDNAN_clean_linker_2, # of connection points: 2
#     Edge 102, Type (0, 0), BuildingBlock: XUDNAN_clean_linker_2, # of connection points: 2
#     Edge 103, Type (0, 0), BuildingBlock: XUDNAN_clean_linker_2, # of connection points: 2
#     Edge 104, Type (0, 0), BuildingBlock: XUDNAN_clean_linker_2, # of connection points: 2
#     Edge 105, Type (0, 0), BuildingBlock: XUDNAN_clean_linker_2, # of connection points: 2
#     Edge 106, Type (0, 0), BuildingBlock: XUDNAN_clean_linker_2, # of connection points: 2
#     Edge 107, Type (0, 0), BuildingBlock: XUDNAN_clean_linker_2, # of connection points: 2
#     Edge 108, Type (0, 0), BuildingBlock: XUDNAN_clean_linker_2, # of connection points: 2
#     Edge 109, Type (0, 0), BuildingBlock: XUDNAN_clean_linker_2, # of connection points: 2
#     Edge 110, Type (0, 0), BuildingBlock: XUDNAN_clean_linker_2, # of connection points: 2
#     Edge 111, Type (0, 0), BuildingBlock: XUDNAN_clean_linker_2, # of connection points: 2
#     Edge 112, Type (0, 0), BuildingBlock: XUDNAN_clean_linker_2, # of connection points: 2
#     Edge 113, Type (0, 0), BuildingBlock: XUDNAN_clean_linker_2, # of connection points: 2
#     Edge 114, Type (0, 0), BuildingBlock: XUDNAN_clean_linker_2, # of connection points: 2
#     Edge 115, Type (0, 0), BuildingBlock: XUDNAN_clean_linker_2, # of connection points: 2
#     Edge 116, Type (0, 0), BuildingBlock: XUDNAN_clean_linker_2, # of connection points: 2
#     Edge 117, Type (0, 0), BuildingBlock: XUDNAN_clean_linker_2, # of connection points: 2
#     Edge 118, Type (0, 0), BuildingBlock: XUDNAN_clean_linker_2, # of connection points: 2
#     Edge 119, Type (0, 0), BuildingBlock: XUDNAN_clean_linker_2, # of connection points: 2
#     Edge 120, Type (0, 0), BuildingBlock: XUDNAN_clean_linker_2, # of connection points: 2
#     Edge 121, Type (0, 0), BuildingBlock: XUDNAN_clean_linker_2, # of connection points: 2
#     Edge 122, Type (0, 0), BuildingBlock: XUDNAN_clean_linker_2, # of connection points: 2
#     Edge 123, Type (0, 0), BuildingBlock: XUDNAN_clean_linker_2, # of connection points: 2
#     Edge 124, Type (0, 0), BuildingBlock: XUDNAN_clean_linker_2, # of connection points: 2
#     Edge 125, Type (0, 0), BuildingBlock: XUDNAN_clean_linker_2, # of connection points: 2
#     Edge 126, Type (0, 0), BuildingBlock: XUDNAN_clean_linker_2, # of connection points: 2
#     Edge 127, Type (0, 0), BuildingBlock: XUDNAN_clean_linker_2, # of connection points: 2
#     Edge 128, Type (0, 0), BuildingBlock: XUDNAN_clean_linker_2, # of connection points: 2
#     Edge 129, Type (0, 0), BuildingBlock: XUDNAN_clean_linker_2, # of connection points: 2
#     Edge 130, Type (0, 0), BuildingBlock: XUDNAN_clean_linker_2, # of connection points: 2
#     Edge 131, Type (0, 0), BuildingBlock: XUDNAN_clean_linker_2, # of connection points: 2
#     Edge 132, Type (0, 0), BuildingBlock: XUDNAN_clean_linker_2, # of connection points: 2
#     Edge 133, Type (0, 0), BuildingBlock: XUDNAN_clean_linker_2, # of connection points: 2
#     Edge 134, Type (0, 0), BuildingBlock: XUDNAN_clean_linker_2, # of connection points: 2
#     Edge 135, Type (0, 0), BuildingBlock: XUDNAN_clean_linker_2, # of connection points: 2
#     Edge 136, Type (0, 0), BuildingBlock: XUDNAN_clean_linker_2, # of connection points: 2
#     Edge 137, Type (0, 0), BuildingBlock: XUDNAN_clean_linker_2, # of connection points: 2
#     Edge 138, Type (0, 0), BuildingBlock: XUDNAN_clean_linker_2, # of connection points: 2
#     Edge 139, Type (0, 0), BuildingBlock: XUDNAN_clean_linker_2, # of connection points: 2
#     Edge 140, Type (0, 0), BuildingBlock: XUDNAN_clean_linker_2, # of connection points: 2
#     Edge 141, Type (0, 0), BuildingBlock: XUDNAN_clean_linker_2, # of connection points: 2
#     Edge 142, Type (0, 0), BuildingBlock: XUDNAN_clean_linker_2, # of connection points: 2
#     Edge 143, Type (0, 0), BuildingBlock: XUDNAN_clean_linker_2, # of connection points: 2
#     Edge 144, Type (0, 0), BuildingBlock: XUDNAN_clean_linker_2, # of connection points: 2
#     Edge 145, Type (0, 0), BuildingBlock: XUDNAN_clean_linker_2, # of connection points: 2
#     Edge 146, Type (0, 0), BuildingBlock: XUDNAN_clean_linker_2, # of connection points: 2
#     Edge 147, Type (0, 0), BuildingBlock: XUDNAN_clean_linker_2, # of connection points: 2
#     Edge 148, Type (0, 0), BuildingBlock: XUDNAN_clean_linker_2, # of connection points: 2
#     Edge 149, Type (0, 0), BuildingBlock: XUDNAN_clean_linker_2, # of connection points: 2
#     Edge 150, Type (0, 0), BuildingBlock: XUDNAN_clean_linker_2, # of connection points: 2
#     Edge 151, Type (0, 0), BuildingBlock: XUDNAN_clean_linker_2, # of connection points: 2
#     Edge 152, Type (0, 0), BuildingBlock: XUDNAN_clean_linker_2, # of connection points: 2
#     Edge 153, Type (0, 0), BuildingBlock: XUDNAN_clean_linker_2, # of connection points: 2
#     Edge 154, Type (0, 0), BuildingBlock: XUDNAN_clean_linker_2, # of connection points: 2
#     Edge 155, Type (0, 0), BuildingBlock: XUDNAN_clean_linker_2, # of connection points: 2
#     Edge 156, Type (0, 0), BuildingBlock: XUDNAN_clean_linker_2, # of connection points: 2
#     Edge 157, Type (0, 0), BuildingBlock: XUDNAN_clean_linker_2, # of connection points: 2
#     Edge 158, Type (0, 0), BuildingBlock: XUDNAN_clean_linker_2, # of connection points: 2
#     Edge 159, Type (0, 0), BuildingBlock: XUDNAN_clean_linker_2, # of connection points: 2
#     Edge 160, Type (0, 0), BuildingBlock: XUDNAN_clean_linker_2, # of connection points: 2
#     Edge 161, Type (0, 0), BuildingBlock: XUDNAN_clean_linker_2, # of connection points: 2
#     Edge 162, Type (0, 0), BuildingBlock: XUDNAN_clean_linker_2, # of connection points: 2
#     Edge 163, Type (0, 0), BuildingBlock: XUDNAN_clean_linker_2, # of connection points: 2
#     Edge 164, Type (0, 0), BuildingBlock: XUDNAN_clean_linker_2, # of connection points: 2
#     Edge 165, Type (0, 0), BuildingBlock: XUDNAN_clean_linker_2, # of connection points: 2
#     Edge 166, Type (0, 0), BuildingBlock: XUDNAN_clean_linker_2, # of connection points: 2
#     Edge 167, Type (0, 0), BuildingBlock: XUDNAN_clean_linker_2, # of connection points: 2
# Relax obj value: 0.321
# Max RMSD: 0.263
# Mean RMSD: 0.263
data_MOF--net-fcd--node1-XOMCOT_clean_sbu_1--edge1-XUDNAN_clean_linker_2
_symmetry_space_group_name_H-M    P1
_symmetry_Int_Tables_number       1
_symmetry_cell_setting            triclinic
loop_
_symmetry_equiv_pos_as_xyz
'x, y, z'
_cell_length_a     69.080711
_cell_length_b     69.065175
_cell_length_c     69.065339
_cell_angle_alpha  90.013202
_cell_angle_beta   89.995245
_cell_angle_gamma 90.006454
loop_
_atom_site_label
_atom_site_type_symbol
_atom_site_fract_x
_atom_site_fract_y
_atom_site_fract_z
_atom_type_partial_charge
C0 C 0.05171 0.18191 0.40996 0.0
C1 C 0.03601 0.1918 0.41724 0.0
N2 N 0.04009 0.21088 0.41685 0.0
N3 N 0.06552 0.19472 0.40484 0.0
C4 C 0.05813 0.21221 0.40947 0.0
H5 H 0.05279 0.16642 0.40792 0.0
Co6 Co 0.0888 0.18862 0.39262 0.0
C7 C 0.09201 0.22295 0.36606 0.0
O8 O 0.09089 0.21231 0.35039 0.0
N9 N 0.11282 0.18209 0.38076 0.0
C10 C 0.13657 0.17447 0.36021 0.0
C11 C 0.1177 0.1805 0.36183 0.0
C12 C 0.12913 0.17673 0.39024 0.0
N13 N 0.14376 0.17213 0.37814 0.0
O14 O 0.10225 0.19656 0.41554 0.0
H15 H 0.10804 0.18246 0.34975 0.0
H16 H 0.13019 0.1755 0.40578 0.0
O17 O 0.091 0.2151 0.38278 0.0
C18 C 0.10078 0.18459 0.42948 0.0
O19 O 0.09112 0.16844 0.42661 0.0
N20 N 0.07461 0.17969 0.37099 0.0
C21 C 0.04774 0.16024 0.34752 0.0
C22 C 0.04508 0.17982 0.35256 0.0
C23 C 0.05878 0.18932 0.36405 0.0
C24 C 0.07778 0.16094 0.36578 0.0
C25 C 0.06514 0.15134 0.35334 0.0
H26 H 0.05577 0.20395 0.36871 0.0
H27 H 0.08975 0.153 0.37198 0.0
H28 H 0.06545 0.22574 0.40664 0.0
H29 H 0.02253 0.18545 0.42209 0.0
H30 H 0.1443 0.1718 0.34684 0.0
H31 H 0.032 0.18758 0.34892 0.0
H32 H 0.06868 0.13664 0.34932 0.0
C33 C 0.91718 0.33097 0.41269 0.0
C34 C 0.93377 0.32481 0.42181 0.0
N35 N 0.93681 0.30608 0.41714 0.0
N36 N 0.90973 0.31624 0.40235 0.0
C37 C 0.92183 0.30121 0.40552 0.0
H38 H 0.91121 0.34544 0.41311 0.0
Co39 Co 0.88819 0.31842 0.38637 0.0
C40 C 0.89368 0.28168 0.36274 0.0
O41 O 0.89721 0.29043 0.34625 0.0
N42 N 0.86594 0.321 0.37049 0.0
C43 C 0.84573 0.32265 0.34533 0.0
C44 C 0.86464 0.3201 0.35095 0.0
C45 C 0.84753 0.32454 0.37627 0.0
N46 N 0.83503 0.32549 0.36132 0.0
O47 O 0.87272 0.30955 0.40747 0.0
H48 H 0.87667 0.31837 0.34116 0.0
H49 H 0.8431 0.3262 0.39115 0.0
O50 O 0.89064 0.2915 0.37812 0.0
C51 C 0.86769 0.32254 0.41953 0.0
O52 O 0.87141 0.34076 0.41547 0.0
N53 N 0.90425 0.32835 0.36675 0.0
C54 C 0.93221 0.35065 0.34791 0.0
C55 C 0.93574 0.33113 0.35229 0.0
C56 C 0.9216 0.32025 0.36179 0.0
C57 C 0.90017 0.34696 0.36164 0.0
C58 C 0.91376 0.35822 0.35183 0.0
H59 H 0.92532 0.30585 0.36656 0.0
H60 H 0.88679 0.35358 0.36637 0.0
H61 H 0.92028 0.2873 0.39854 0.0
H62 H 0.94303 0.33365 0.43082 0.0
H63 H 0.84033 0.32284 0.33062 0.0
H64 H 0.94985 0.32471 0.34995 0.0
H65 H 0.91025 0.37314 0.34852 0.0
C66 C 0.083 0.794 0.07602 0.0
C67 C 0.06972 0.7795 0.07325 0.0
N68 N 0.06972 0.76795 0.089 0.0
N69 N 0.09155 0.79168 0.09338 0.0
C70 C 0.08324 0.77564 0.10093 0.0
H71 H 0.08532 0.80611 0.06641 0.0
Co72 Co 0.10781 0.8098 0.10496 0.0
C73 C 0.12894 0.78897 0.13616 0.0
O74 O 0.13034 0.80477 0.14667 0.0
N75 N 0.12419 0.82865 0.11607 0.0
C76 C 0.1357 0.85605 0.12855 0.0
C77 C 0.11926 0.84554 0.12464 0.0
C78 C 0.14377 0.82932 0.11496 0.0
N79 N 0.1511 0.84583 0.12243 0.0
O80 O 0.12625 0.80583 0.08484 0.0
H81 H 0.10468 0.85038 0.12743 0.0
H82 H 0.15248 0.8182 0.10818 0.0
O83 O 0.11992 0.78929 0.12001 0.0
C84 C 0.124 0.81835 0.07154 0.0
O85 O 0.11094 0.83199 0.07389 0.0
N86 N 0.08843 0.81449 0.12327 0.0
C87 C 0.05305 0.82172 0.14127 0.0
C88 C 0.06604 0.80823 0.14915 0.0
C89 C 0.08368 0.80462 0.13976 0.0
C90 C 0.07612 0.82792 0.11578 0.0
C91 C 0.05852 0.83193 0.12462 0.0
H92 H 0.09271 0.79313 0.14518 0.0
H93 H 0.07985 0.83517 0.1024 0.0
H94 H 0.08644 0.77028 0.11528 0.0
H95 H 0.0599 0.77846 0.0611 0.0
H96 H 0.13624 0.87029 0.13509 0.0
H97 H 0.06218 0.79984 0.16182 0.0
H98 H 0.04905 0.84264 0.11817 0.0
C99 C 0.93259 0.66717 0.08072 0.0
C100 C 0.94994 0.67616 0.07659 0.0
N101 N 0.95464 0.68762 0.09167 0.0
N102 N 0.9264 0.67309 0.09824 0.0
C103 C 0.93991 0.68582 0.10434 0.0
H104 H 0.92576 0.65593 0.07222 0.0
Co105 Co 0.9075 0.66141 0.11337 0.0
C106 C 0.88723 0.6986 0.12136 0.0
O107 O 0.87357 0.69478 0.10871 0.0
N108 N 0.88856 0.64928 0.12867 0.0
C109 C 0.87389 0.62657 0.14617 0.0
C110 C 0.89145 0.63387 0.14036 0.0
C111 C 0.86907 0.65114 0.12782 0.0
N112 N 0.85981 0.63732 0.13807 0.0
O113 O 0.88937 0.66469 0.09267 0.0
H114 H 0.90537 0.62746 0.14349 0.0
H115 H 0.86173 0.66124 0.1184 0.0
O116 O 0.90091 0.68651 0.12424 0.0
C117 C 0.88249 0.65007 0.08385 0.0
O118 O 0.88724 0.63254 0.0895 0.0
N119 N 0.92615 0.65729 0.13257 0.0
C120 C 0.96117 0.65459 0.1521 0.0
C121 C 0.94645 0.66672 0.15912 0.0
C122 C 0.92883 0.66782 0.14911 0.0
C123 C 0.93949 0.64397 0.12685 0.0
C124 C 0.95716 0.64246 0.13634 0.0
H125 H 0.91796 0.67795 0.15397 0.0
H126 H 0.93693 0.63555 0.11389 0.0
H127 H 0.9396 0.6926 0.11845 0.0
H128 H 0.95907 0.67331 0.06417 0.0
H129 H 0.87169 0.61369 0.15483 0.0
H130 H 0.94894 0.67609 0.17145 0.0
H131 H 0.96795 0.63249 0.13083 0.0
C132 C 0.40497 0.06079 0.17565 0.0
C133 C 0.41049 0.04478 0.18614 0.0
N134 N 0.41067 0.04972 0.20497 0.0
N135 N 0.40135 0.07559 0.1879 0.0
C136 C 0.40524 0.06846 0.20567 0.0
H137 H 0.40285 0.06136 0.16015 0.0
Co138 Co 0.38987 0.09889 0.18079 0.0
C139 C 0.38209 0.11688 0.21867 0.0
O140 O 0.39109 0.13279 0.21341 0.0
N141 N 0.3783 0.12202 0.17331 0.0
C142 C 0.35803 0.14679 0.17027 0.0
C143 C 0.36049 0.12856 0.17794 0.0
C144 C 0.38624 0.13627 0.16256 0.0
N145 N 0.37429 0.1516 0.16062 0.0
O146 O 0.41335 0.11224 0.18686 0.0
H147 H 0.35011 0.12075 0.18669 0.0
H148 H 0.40078 0.13568 0.15679 0.0
O149 O 0.38076 0.10271 0.20693 0.0
C150 C 0.42694 0.11028 0.17459 0.0
O151 O 0.42367 0.09993 0.15895 0.0
N152 N 0.36758 0.08516 0.17405 0.0
C153 C 0.34586 0.05368 0.1618 0.0
C154 C 0.34506 0.05974 0.18113 0.0
C155 C 0.3562 0.07551 0.18705 0.0
C156 C 0.36661 0.08098 0.15482 0.0
C157 C 0.35589 0.06512 0.14835 0.0
H158 H 0.35702 0.07852 0.20231 0.0
H159 H 0.37593 0.08859 0.1448 0.0
H160 H 0.4031 0.07643 0.21899 0.0
H161 H 0.41365 0.03052 0.18045 0.0
H162 H 0.34532 0.15582 0.17178 0.0
H163 H 0.33758 0.05118 0.19194 0.0
H164 H 0.35676 0.06088 0.13327 0.0
C165 C 0.58679 0.42429 0.17438 0.0
C166 C 0.57903 0.44087 0.18226 0.0
N167 N 0.58865 0.44496 0.19876 0.0
N168 N 0.60117 0.41791 0.18587 0.0
C169 C 0.60174 0.43057 0.20074 0.0
H170 H 0.58291 0.41788 0.16063 0.0
Co171 Co 0.61871 0.39875 0.17924 0.0
C172 C 0.63451 0.38333 0.21637 0.0
O173 O 0.65116 0.37897 0.20828 0.0
N174 N 0.6363 0.3792 0.17169 0.0
C175 C 0.6585 0.36326 0.15462 0.0
C176 C 0.65224 0.3812 0.16052 0.0
C177 C 0.63353 0.3598 0.17271 0.0
N178 N 0.64655 0.34982 0.16211 0.0
O179 O 0.59761 0.38101 0.17723 0.0
H180 H 0.65831 0.39477 0.15575 0.0
H181 H 0.62122 0.35315 0.17975 0.0
O182 O 0.62127 0.39161 0.20644 0.0
C183 C 0.59219 0.37481 0.16076 0.0
O184 O 0.60209 0.37945 0.1452 0.0
N185 N 0.63851 0.41746 0.1802 0.0
C186 C 0.65598 0.45377 0.17845 0.0
C187 C 0.65646 0.44295 0.1956 0.0
C188 C 0.64775 0.42467 0.19617 0.0
C189 C 0.63908 0.4273 0.16311 0.0
C190 C 0.64795 0.44538 0.16183 0.0
H191 H 0.64682 0.4176 0.20999 0.0
H192 H 0.63124 0.4217 0.15076 0.0
H193 H 0.61247 0.42998 0.2121 0.0
H194 H 0.5677 0.44959 0.17587 0.0
H195 H 0.67022 0.36041 0.14461 0.0
H196 H 0.66241 0.44908 0.20875 0.0
H197 H 0.64703 0.45341 0.14838 0.0
C198 C 0.3931 0.94232 0.33675 0.0
C199 C 0.40012 0.95885 0.32836 0.0
N200 N 0.40146 0.95591 0.30912 0.0
N201 N 0.38994 0.92894 0.32294 0.0
C202 C 0.39513 0.93759 0.30617 0.0
H203 H 0.39003 0.94025 0.35196 0.0
Co204 Co 0.37954 0.90518 0.32941 0.0
C205 C 0.36555 0.88663 0.29408 0.0
O206 O 0.34999 0.88156 0.30375 0.0
N207 N 0.36956 0.88089 0.33713 0.0
C208 C 0.3558 0.8561 0.35256 0.0
C209 C 0.35527 0.87581 0.34952 0.0
C210 C 0.37834 0.86394 0.33278 0.0
N211 N 0.37042 0.84871 0.34204 0.0
O212 O 0.4051 0.89507 0.3317 0.0
H213 H 0.34537 0.88559 0.35656 0.0
H214 H 0.39098 0.86293 0.32359 0.0
O215 O 0.37871 0.89688 0.30216 0.0
C216 C 0.41183 0.89584 0.34881 0.0
O217 O 0.40079 0.90286 0.36263 0.0
N218 N 0.35494 0.91664 0.32819 0.0
C219 C 0.32841 0.94679 0.33123 0.0
C220 C 0.3346 0.94043 0.31304 0.0
C221 C 0.34795 0.92533 0.3118 0.0
C222 C 0.34833 0.9222 0.34593 0.0
C223 C 0.33466 0.93693 0.34777 0.0
H224 H 0.35433 0.92256 0.29783 0.0
H225 H 0.35534 0.91681 0.35885 0.0
H226 H 0.39415 0.93069 0.29214 0.0
H227 H 0.40338 0.97223 0.33584 0.0
H228 H 0.34641 0.84795 0.36209 0.0
H229 H 0.33057 0.94826 0.30006 0.0
H230 H 0.3308 0.94206 0.36208 0.0
C231 C 0.60247 0.56004 0.32281 0.0
C232 C 0.598 0.54423 0.31163 0.0
N233 N 0.59911 0.54952 0.29291 0.0
N234 N 0.60653 0.57518 0.31121 0.0
C235 C 0.60419 0.5684 0.29301 0.0
H236 H 0.60338 0.56034 0.33844 0.0
Co237 Co 0.61592 0.59841 0.32074 0.0
C238 C 0.63587 0.61735 0.28809 0.0
O239 O 0.65072 0.62134 0.2993 0.0
N240 N 0.62493 0.62202 0.33107 0.0
C241 C 0.63722 0.64537 0.34965 0.0
C242 C 0.63643 0.62571 0.34648 0.0
C243 C 0.61893 0.63974 0.32522 0.0
N244 N 0.62619 0.65415 0.33623 0.0
O245 O 0.5907 0.60917 0.31846 0.0
H246 H 0.64357 0.61503 0.35531 0.0
H247 H 0.60893 0.64198 0.31337 0.0
O248 O 0.62149 0.60778 0.29472 0.0
C249 C 0.57839 0.60566 0.33167 0.0
O250 O 0.58386 0.59579 0.34698 0.0
N251 N 0.64015 0.5863 0.32347 0.0
C252 C 0.6645 0.55476 0.32936 0.0
C253 C 0.66256 0.56279 0.31093 0.0
C254 C 0.65011 0.57846 0.3082 0.0
C255 C 0.64284 0.5792 0.34169 0.0
C256 C 0.65518 0.56358 0.34501 0.0
H257 H 0.64669 0.58226 0.29348 0.0
H258 H 0.63349 0.58395 0.35331 0.0
H259 H 0.60703 0.57681 0.2801 0.0
H260 H 0.59442 0.52989 0.31686 0.0
H261 H 0.64525 0.65262 0.36099 0.0
H262 H 0.66887 0.55568 0.29844 0.0
H263 H 0.6557 0.5571 0.35929 0.0
C264 C 0.18428 0.41146 0.06522 0.0
C265 C 0.195 0.41673 0.04927 0.0
N266 N 0.21375 0.41317 0.05315 0.0
N267 N 0.19624 0.40426 0.07888 0.0
C268 C 0.21416 0.40583 0.07125 0.0
H269 H 0.16868 0.41189 0.06645 0.0
Co270 Co 0.18785 0.39243 0.10157 0.0
C271 C 0.21582 0.35981 0.10417 0.0
O272 O 0.20144 0.34734 0.10443 0.0
N273 N 0.17882 0.38149 0.125 0.0
C274 C 0.17628 0.3694 0.15486 0.0
C275 C 0.1878 0.37069 0.13868 0.0
C276 C 0.1622 0.38717 0.1337 0.0
N277 N 0.16025 0.37992 0.15172 0.0
O278 O 0.19879 0.41322 0.11608 0.0
H279 H 0.20248 0.3655 0.13808 0.0
H280 H 0.1521 0.39727 0.12732 0.0
O281 O 0.21225 0.37797 0.10343 0.0
C282 C 0.18656 0.42689 0.11783 0.0
O283 O 0.16942 0.42495 0.10982 0.0
N284 N 0.17586 0.37295 0.08637 0.0
C285 C 0.15448 0.35852 0.05531 0.0
C286 C 0.17473 0.35776 0.05503 0.0
C287 C 0.18517 0.36512 0.07069 0.0
C288 C 0.1562 0.37182 0.08765 0.0
C289 C 0.14525 0.36435 0.07242 0.0
H290 H 0.20064 0.36666 0.06905 0.0
H291 H 0.14861 0.37868 0.09938 0.0
H292 H 0.22716 0.40066 0.0783 0.0
H293 H 0.18943 0.42227 0.03571 0.0
H294 H 0.18018 0.36271 0.16849 0.0
H295 H 0.18248 0.35362 0.04204 0.0
H296 H 0.12961 0.36498 0.0733 0.0
C297 C 0.18871 0.56316 0.43621 0.0
C298 C 0.19843 0.55657 0.45231 0.0
N299 N 0.2106 0.57062 0.45813 0.0
N300 N 0.19498 0.58113 0.43186 0.0
C301 C 0.20832 0.58528 0.44548 0.0
H302 H 0.17757 0.55546 0.42834 0.0
Co303 Co 0.18577 0.59658 0.4121 0.0
C304 C 0.21921 0.6206 0.39877 0.0
O305 O 0.2077 0.6343 0.39232 0.0
N306 N 0.1757 0.6118 0.39182 0.0
C307 C 0.15514 0.6286 0.37353 0.0
C308 C 0.16051 0.62412 0.39222 0.0
C309 C 0.17944 0.60934 0.37276 0.0
N310 N 0.1669 0.61898 0.36134 0.0
O311 O 0.19051 0.57581 0.39443 0.0
H312 H 0.15281 0.62849 0.4051 0.0
H313 H 0.19052 0.59973 0.36728 0.0
O314 O 0.2121 0.60579 0.40726 0.0
C315 C 0.17613 0.56672 0.38739 0.0
O316 O 0.1585 0.57237 0.39177 0.0
N317 N 0.18025 0.61591 0.43038 0.0
C318 C 0.16942 0.63632 0.46348 0.0
C319 C 0.18652 0.64103 0.45362 0.0
C320 C 0.19181 0.6305 0.43712 0.0
C321 C 0.16319 0.61178 0.43935 0.0
C322 C 0.15746 0.62181 0.45587 0.0
H323 H 0.20569 0.63346 0.43077 0.0
H324 H 0.15437 0.59998 0.43402 0.0
H325 H 0.21621 0.5988 0.44616 0.0
H326 H 0.19636 0.54278 0.45947 0.0
H327 H 0.14253 0.63689 0.3693 0.0
H328 H 0.19626 0.65198 0.45921 0.0
H329 H 0.14403 0.61787 0.46294 0.0
C330 C 0.81499 0.91781 0.42009 0.0
C331 C 0.8048 0.92214 0.43672 0.0
N332 N 0.792 0.90777 0.43993 0.0
N333 N 0.80851 0.90087 0.41288 0.0
C334 C 0.79423 0.89539 0.42501 0.0
H335 H 0.82746 0.92556 0.41466 0.0
Co336 Co 0.82101 0.88517 0.39503 0.0
C337 C 0.78921 0.8607 0.37816 0.0
O338 O 0.80008 0.84549 0.37468 0.0
N339 N 0.83418 0.86943 0.37708 0.0
C340 C 0.85716 0.85108 0.36393 0.0
C341 C 0.84856 0.85674 0.38094 0.0
C342 C 0.83415 0.87093 0.35753 0.0
N343 N 0.8482 0.86017 0.34925 0.0
O344 O 0.81859 0.90516 0.37618 0.0
H345 H 0.85346 0.85264 0.3952 0.0
H346 H 0.82501 0.88086 0.34957 0.0
O347 O 0.79622 0.87564 0.38642 0.0
C348 C 0.83326 0.91563 0.37251 0.0
O349 O 0.84975 0.9117 0.38116 0.0
N350 N 0.82412 0.8666 0.41459 0.0
C351 C 0.83011 0.84909 0.45038 0.0
C352 C 0.81527 0.84259 0.43814 0.0
C353 C 0.81238 0.85169 0.42022 0.0
C354 C 0.83928 0.8722 0.42587 0.0
C355 C 0.84257 0.86364 0.44376 0.0
H356 H 0.79996 0.84757 0.41179 0.0
H357 H 0.84829 0.88416 0.42126 0.0
H358 H 0.78667 0.88173 0.42383 0.0
H359 H 0.80783 0.93392 0.44662 0.0
H360 H 0.86971 0.84179 0.36257 0.0
H361 H 0.80528 0.83146 0.44286 0.0
H362 H 0.85441 0.86884 0.45265 0.0
C363 C 0.32787 0.60837 0.57501 0.0
C364 C 0.31989 0.59736 0.5605 0.0
N365 N 0.30054 0.59922 0.56151 0.0
N366 N 0.31358 0.61692 0.58519 0.0
C367 C 0.29702 0.61119 0.57653 0.0
H368 H 0.34313 0.61001 0.57803 0.0
Co369 Co 0.31834 0.63188 0.60682 0.0
C370 C 0.28107 0.65188 0.61456 0.0
O371 O 0.2896 0.66886 0.61495 0.0
N372 N 0.32397 0.64684 0.62935 0.0
C373 C 0.3338 0.66968 0.65009 0.0
C374 C 0.3286 0.66582 0.63123 0.0
C375 C 0.32604 0.63977 0.64753 0.0
N376 N 0.33216 0.6532 0.66026 0.0
O377 O 0.31575 0.60893 0.62202 0.0
H378 H 0.32861 0.67635 0.61968 0.0
H379 H 0.32402 0.6248 0.65148 0.0
O380 O 0.29083 0.63665 0.61073 0.0
C381 C 0.33092 0.59857 0.6235 0.0
O382 O 0.34728 0.6053 0.6165 0.0
N383 N 0.32195 0.65317 0.59037 0.0
C384 C 0.33393 0.67411 0.55795 0.0
C385 C 0.31425 0.67007 0.56094 0.0
C386 C 0.30856 0.65932 0.57714 0.0
C387 C 0.34099 0.6578 0.58813 0.0
C388 C 0.34724 0.66856 0.57225 0.0
H389 H 0.29377 0.65436 0.5779 0.0
H390 H 0.35159 0.6519 0.59804 0.0
H391 H 0.28269 0.61542 0.58122 0.0
H392 H 0.32766 0.58888 0.54985 0.0
H393 H 0.33872 0.68343 0.65578 0.0
H394 H 0.30359 0.67359 0.54999 0.0
H395 H 0.36258 0.67132 0.57049 0.0
C396 C 0.92818 0.8233 0.59005 0.0
C397 C 0.94344 0.81237 0.58334 0.0
N398 N 0.9405 0.79389 0.58878 0.0
N399 N 0.91586 0.81175 0.59985 0.0
C400 C 0.92368 0.79387 0.59867 0.0
H401 H 0.92657 0.83881 0.58869 0.0
Co402 Co 0.89523 0.82071 0.6144 0.0
C403 C 0.8833 0.78653 0.63814 0.0
O404 O 0.88156 0.7967 0.65413 0.0
N405 N 0.8741 0.83023 0.62883 0.0
C406 C 0.85351 0.8498 0.64411 0.0
C407 C 0.87261 0.84655 0.63956 0.0
C408 C 0.85567 0.82376 0.62733 0.0
N409 N 0.84291 0.83547 0.63633 0.0
O410 O 0.87865 0.81694 0.59268 0.0
H411 H 0.88428 0.85628 0.64307 0.0
H412 H 0.8515 0.81142 0.61859 0.0
O413 O 0.88905 0.79458 0.62254 0.0
C414 C 0.87412 0.83176 0.58276 0.0
O415 O 0.88032 0.84883 0.58844 0.0
N416 N 0.91266 0.82534 0.63468 0.0
C417 C 0.94667 0.83627 0.65364 0.0
C418 C 0.93993 0.81713 0.65476 0.0
C419 C 0.92298 0.81185 0.64487 0.0
C420 C 0.91886 0.84404 0.63394 0.0
C421 C 0.93548 0.8499 0.64364 0.0
H422 H 0.9194 0.79669 0.64403 0.0
H423 H 0.91164 0.85419 0.62446 0.0
H424 H 0.91788 0.78125 0.60591 0.0
H425 H 0.95594 0.81764 0.57549 0.0
H426 H 0.84777 0.86217 0.65185 0.0
H427 H 0.94846 0.80605 0.66185 0.0
H428 H 0.94017 0.86481 0.6423 0.0
C429 C 0.06714 0.67663 0.58854 0.0
C430 C 0.05041 0.68371 0.58047 0.0
N431 N 0.04618 0.70069 0.58907 0.0
N432 N 0.07347 0.68909 0.60215 0.0
C433 C 0.0605 0.70372 0.60204 0.0
H434 H 0.0737 0.66277 0.58541 0.0
Co435 Co 0.09331 0.68336 0.61925 0.0
C436 C 0.10359 0.72044 0.63856 0.0
O437 O 0.10698 0.71165 0.65508 0.0
N438 N 0.11374 0.6767 0.63645 0.0
C439 C 0.1311 0.66122 0.65883 0.0
C440 C 0.11277 0.66653 0.65317 0.0
C441 C 0.13298 0.67785 0.63272 0.0
N442 N 0.14377 0.66817 0.64581 0.0
O443 O 0.11115 0.6848 0.59816 0.0
H444 H 0.09966 0.66221 0.66046 0.0
H445 H 0.13903 0.68441 0.61986 0.0
O446 O 0.09758 0.71079 0.62396 0.0
C447 C 0.11594 0.66881 0.59035 0.0
O448 O 0.10948 0.65262 0.59799 0.0
N449 N 0.07461 0.68069 0.63882 0.0
C450 C 0.04028 0.67133 0.65793 0.0
C451 C 0.04751 0.6903 0.65845 0.0
C452 C 0.06465 0.69479 0.64855 0.0
C453 C 0.06817 0.66206 0.63896 0.0
C454 C 0.0512 0.65702 0.64857 0.0
H455 H 0.06878 0.70978 0.64752 0.0
H456 H 0.07582 0.65122 0.63063 0.0
H457 H 0.06076 0.71567 0.61218 0.0
H458 H 0.04164 0.67655 0.56962 0.0
H459 H 0.13471 0.65209 0.67105 0.0
H460 H 0.03925 0.70182 0.66518 0.0
H461 H 0.04617 0.64218 0.64787 0.0
C462 C 0.93974 0.17301 0.89986 0.0
C463 C 0.9547 0.18338 0.90781 0.0
N464 N 0.95174 0.20218 0.90381 0.0
N465 N 0.9273 0.18528 0.89113 0.0
C466 C 0.93509 0.20306 0.89366 0.0
H467 H 0.93795 0.15746 0.90044 0.0
Co468 Co 0.90457 0.17687 0.87941 0.0
C469 C 0.89842 0.20584 0.84843 0.0
O470 O 0.89861 0.19212 0.8353 0.0
N471 N 0.88106 0.16772 0.86799 0.0
C472 C 0.85853 0.15371 0.84945 0.0
C473 C 0.87756 0.15947 0.85054 0.0
C474 C 0.86368 0.16683 0.87703 0.0
N475 N 0.84983 0.15826 0.86626 0.0
O476 O 0.89047 0.18681 0.90117 0.0
H477 H 0.88818 0.15717 0.83929 0.0
H478 H 0.86104 0.17225 0.89139 0.0
O479 O 0.90129 0.20167 0.86623 0.0
C480 C 0.89178 0.17538 0.91558 0.0
O481 O 0.90123 0.15902 0.91343 0.0
N482 N 0.9197 0.166 0.85964 0.0
C483 C 0.9517 0.14556 0.84598 0.0
C484 C 0.9509 0.16582 0.84432 0.0
C485 C 0.93469 0.1758 0.85119 0.0
C486 C 0.91956 0.14628 0.85979 0.0
C487 C 0.93506 0.13578 0.85237 0.0
H488 H 0.9354 0.19141 0.85206 0.0
H489 H 0.9082 0.13863 0.86739 0.0
H490 H 0.92858 0.21635 0.88852 0.0
H491 H 0.96688 0.17761 0.91581 0.0
H492 H 0.85188 0.14614 0.83746 0.0
H493 H 0.96341 0.17408 0.83976 0.0
H494 H 0.93476 0.12015 0.85348 0.0
C495 C 0.06659 0.32855 0.9222 0.0
C496 C 0.05155 0.31762 0.92924 0.0
N497 N 0.04985 0.30178 0.91805 0.0
N498 N 0.07456 0.31946 0.90684 0.0
C499 C 0.06393 0.30318 0.90459 0.0
H500 H 0.07098 0.34254 0.92762 0.0
Co501 Co 0.09429 0.32956 0.89155 0.0
C502 C 0.11461 0.29562 0.87405 0.0
O503 O 0.12069 0.30605 0.85936 0.0
N504 N 0.1141 0.34068 0.87648 0.0
C505 C 0.13008 0.36128 0.85752 0.0
C506 C 0.11224 0.35364 0.86192 0.0
C507 C 0.13327 0.34061 0.88048 0.0
N508 N 0.14325 0.3531 0.86928 0.0
O509 O 0.11003 0.33182 0.91416 0.0
H510 H 0.09874 0.35819 0.85553 0.0
H511 H 0.13967 0.33244 0.89223 0.0
O512 O 0.10411 0.30339 0.88717 0.0
C513 C 0.10955 0.34896 0.92089 0.0
O514 O 0.10081 0.36243 0.91066 0.0
N515 N 0.07755 0.32861 0.87038 0.0
C516 C 0.04381 0.33014 0.84872 0.0
C517 C 0.05607 0.31409 0.84722 0.0
C518 C 0.073 0.31353 0.85837 0.0
C519 C 0.06622 0.34471 0.87103 0.0
C520 C 0.04933 0.34583 0.86024 0.0
H521 H 0.08128 0.30035 0.85837 0.0
H522 H 0.06977 0.35624 0.88102 0.0
H523 H 0.06627 0.29268 0.8932 0.0
H524 H 0.04211 0.32137 0.94118 0.0
H525 H 0.13304 0.3725 0.84698 0.0
H526 H 0.05192 0.30161 0.83867 0.0
H527 H 0.04003 0.35838 0.86178 0.0
C528 C 0.57699 0.92431 0.81321 0.0
C529 C 0.57121 0.94137 0.80485 0.0
N530 N 0.58439 0.94633 0.7914 0.0
N531 N 0.59378 0.91855 0.8051 0.0
C532 C 0.59787 0.93219 0.79167 0.0
H533 H 0.57012 0.91729 0.82539 0.0
Co534 Co 0.60896 0.89916 0.81564 0.0
C535 C 0.6334 0.88345 0.78372 0.0
O536 O 0.64744 0.87875 0.79563 0.0
N537 N 0.62364 0.87952 0.82723 0.0
C538 C 0.63915 0.8621 0.84946 0.0
C539 C 0.63373 0.88049 0.84396 0.0
C540 C 0.62307 0.86043 0.82293 0.0
N541 N 0.63248 0.8496 0.83611 0.0
O542 O 0.5881 0.88138 0.81218 0.0
H543 H 0.63612 0.89351 0.85228 0.0
H544 H 0.61506 0.85447 0.81084 0.0
O545 O 0.61831 0.89224 0.78981 0.0
C546 C 0.57865 0.87679 0.8273 0.0
O547 O 0.58441 0.88363 0.84411 0.0
N548 N 0.62845 0.91749 0.82008 0.0
C549 C 0.64914 0.95095 0.8296 0.0
C550 C 0.65406 0.93997 0.81318 0.0
C551 C 0.64335 0.9234 0.80849 0.0
C552 C 0.62393 0.92757 0.83638 0.0
C553 C 0.63393 0.94431 0.84135 0.0
H554 H 0.64653 0.91624 0.79505 0.0
H555 H 0.61171 0.92302 0.84507 0.0
H556 H 0.61122 0.93265 0.78348 0.0
H557 H 0.55884 0.95004 0.80906 0.0
H558 H 0.64685 0.85815 0.86253 0.0
H559 H 0.66569 0.94443 0.80366 0.0
H560 H 0.629 0.95242 0.85382 0.0
C561 C 0.4059 0.55875 0.82549 0.0
C562 C 0.41281 0.54416 0.81384 0.0
N563 N 0.41164 0.5501 0.79531 0.0
N564 N 0.40019 0.5737 0.81431 0.0
C565 C 0.40415 0.56814 0.79599 0.0
H566 H 0.4043 0.55822 0.84106 0.0
Co567 Co 0.3874 0.59562 0.82345 0.0
C568 C 0.36129 0.60085 0.78845 0.0
O569 O 0.34547 0.59379 0.79626 0.0
N570 N 0.37492 0.61793 0.83272 0.0
C571 C 0.3536 0.64093 0.83986 0.0
C572 C 0.35601 0.62277 0.83211 0.0
C573 C 0.38362 0.63333 0.84105 0.0
N574 N 0.37107 0.64771 0.84539 0.0
O575 O 0.40961 0.61091 0.8169 0.0
H576 H 0.34458 0.61368 0.82658 0.0
H577 H 0.39901 0.63407 0.8435 0.0
O578 O 0.37711 0.60128 0.79796 0.0
C579 C 0.4244 0.60831 0.82759 0.0
O580 O 0.42333 0.59574 0.84182 0.0
N581 N 0.36641 0.57979 0.83112 0.0
C582 C 0.34794 0.54903 0.84981 0.0
C583 C 0.35124 0.54848 0.82975 0.0
C584 C 0.36037 0.5641 0.82063 0.0
C585 C 0.36183 0.58118 0.85028 0.0
C586 C 0.35199 0.56633 0.85969 0.0
H587 H 0.36451 0.56257 0.80562 0.0
H588 H 0.3673 0.59306 0.85886 0.0
H589 H 0.40061 0.57664 0.78332 0.0
H590 H 0.41785 0.5301 0.81859 0.0
H591 H 0.33994 0.64845 0.84117 0.0
H592 H 0.34856 0.53547 0.82143 0.0
H593 H 0.3492 0.56777 0.87505 0.0
C594 C 0.59037 0.06937 0.6753 0.0
C595 C 0.58429 0.05403 0.68639 0.0
N596 N 0.59028 0.05704 0.70467 0.0
N597 N 0.60018 0.08198 0.68654 0.0
C598 C 0.59973 0.07414 0.70445 0.0
H599 H 0.58913 0.07042 0.65974 0.0
Co600 Co 0.6157 0.1014 0.67639 0.0
C601 C 0.63841 0.1163 0.70974 0.0
O602 O 0.65456 0.11658 0.6997 0.0
N603 N 0.63136 0.1211 0.66532 0.0
C604 C 0.65224 0.13718 0.64663 0.0
C605 C 0.64743 0.11942 0.65422 0.0
C606 C 0.62712 0.14025 0.6646 0.0
N607 N 0.63935 0.15023 0.65311 0.0
O608 O 0.59431 0.11888 0.67753 0.0
H609 H 0.65504 0.10614 0.65114 0.0
H610 H 0.61468 0.14675 0.67151 0.0
O611 O 0.62278 0.11002 0.70217 0.0
C612 C 0.58185 0.11829 0.664 0.0
O613 O 0.58427 0.10611 0.64961 0.0
N614 N 0.63557 0.08297 0.67459 0.0
C615 C 0.65338 0.04726 0.66879 0.0
C616 C 0.6544 0.05638 0.68686 0.0
C617 C 0.64502 0.07415 0.68961 0.0
C618 C 0.63521 0.07455 0.65675 0.0
C619 C 0.64411 0.05677 0.6535 0.0
H620 H 0.64393 0.07962 0.70417 0.0
H621 H 0.62676 0.08111 0.64531 0.0
H622 H 0.60766 0.07984 0.7167 0.0
H623 H 0.57692 0.04118 0.68124 0.0
H624 H 0.66398 0.14017 0.63669 0.0
H625 H 0.66096 0.04911 0.69911 0.0
H626 H 0.64284 0.04999 0.6394 0.0
C627 C 0.4212 0.43415 0.66766 0.0
C628 C 0.42881 0.45022 0.67665 0.0
N629 N 0.41782 0.45425 0.69225 0.0
N630 N 0.4055 0.42816 0.67754 0.0
C631 C 0.40383 0.44062 0.69249 0.0
H632 H 0.42641 0.42755 0.65444 0.0
Co633 Co 0.38924 0.40861 0.6694 0.0
C634 C 0.36618 0.39662 0.70404 0.0
O635 O 0.35133 0.39152 0.69331 0.0
N636 N 0.37329 0.38854 0.66032 0.0
C637 C 0.35779 0.36906 0.63982 0.0
C638 C 0.36315 0.38791 0.6436 0.0
C639 C 0.37374 0.36994 0.66645 0.0
N640 N 0.36449 0.35786 0.65427 0.0
O641 O 0.40985 0.3905 0.67307 0.0
H642 H 0.36102 0.40001 0.63394 0.0
H643 H 0.38203 0.36511 0.67885 0.0
O644 O 0.38125 0.404 0.69621 0.0
C645 C 0.41722 0.38192 0.65854 0.0
O646 O 0.41031 0.38525 0.64114 0.0
N647 N 0.36993 0.42729 0.66494 0.0
C648 C 0.35087 0.46178 0.65602 0.0
C649 C 0.34797 0.45273 0.67394 0.0
C650 C 0.35783 0.4356 0.67824 0.0
C651 C 0.37214 0.43544 0.64712 0.0
C652 C 0.36269 0.45262 0.64231 0.0
H653 H 0.35675 0.43024 0.69279 0.0
H654 H 0.3823 0.42915 0.63699 0.0
H655 H 0.39203 0.44031 0.70279 0.0
H656 H 0.44129 0.45845 0.67193 0.0
H657 H 0.35039 0.36385 0.62703 0.0
H658 H 0.3393 0.45958 0.68508 0.0
H659 H 0.36531 0.45912 0.62828 0.0
C660 C 0.82026 0.59089 0.93854 0.0
C661 C 0.81031 0.58426 0.95446 0.0
N662 N 0.79136 0.58782 0.95165 0.0
N663 N 0.80766 0.59876 0.9259 0.0
C664 C 0.7901 0.59651 0.9342 0.0
H665 H 0.83581 0.59081 0.93665 0.0
Co666 Co 0.81539 0.61256 0.90424 0.0
C667 C 0.7801 0.6329 0.89027 0.0
O668 O 0.78985 0.64877 0.88635 0.0
N669 N 0.82389 0.62603 0.88213 0.0
C670 C 0.8423 0.6411 0.86034 0.0
C671 C 0.83931 0.63786 0.8798 0.0
C672 C 0.81773 0.62248 0.86387 0.0
N673 N 0.8287 0.63134 0.85038 0.0
O674 O 0.81305 0.58973 0.88921 0.0
H675 H 0.84854 0.64308 0.89125 0.0
H676 H 0.8061 0.61253 0.86046 0.0
O677 O 0.78868 0.61838 0.89781 0.0
C678 C 0.82786 0.57909 0.88696 0.0
O679 O 0.8444 0.58462 0.89455 0.0
N680 N 0.81837 0.63429 0.92036 0.0
C681 C 0.82504 0.6515 0.95632 0.0
C682 C 0.80656 0.6519 0.94795 0.0
C683 C 0.80345 0.64303 0.93004 0.0
C684 C 0.83672 0.63531 0.92756 0.0
C685 C 0.84043 0.64405 0.9454 0.0
H686 H 0.78867 0.64119 0.92551 0.0
H687 H 0.84815 0.6271 0.92069 0.0
H688 H 0.77676 0.60212 0.92821 0.0
H689 H 0.81651 0.57773 0.96728 0.0
H690 H 0.85394 0.64945 0.85399 0.0
H691 H 0.79426 0.65742 0.95597 0.0
H692 H 0.85485 0.64298 0.95148 0.0
C693 C 0.83003 0.39079 0.55761 0.0
C694 C 0.82136 0.39717 0.54086 0.0
N695 N 0.80315 0.40254 0.54519 0.0
N696 N 0.81722 0.39187 0.57231 0.0
C697 C 0.80103 0.39938 0.56434 0.0
H698 H 0.84434 0.38454 0.55876 0.0
Co699 Co 0.8209 0.38 0.59618 0.0
C700 C 0.78282 0.38383 0.61509 0.0
O701 O 0.79075 0.39124 0.63071 0.0
N702 N 0.8249 0.36782 0.61996 0.0
C703 C 0.82162 0.34875 0.64567 0.0
C704 C 0.81591 0.35188 0.62683 0.0
C705 C 0.83626 0.37385 0.63467 0.0
N706 N 0.83438 0.36266 0.65057 0.0
O707 O 0.82264 0.405 0.60827 0.0
H708 H 0.80532 0.34351 0.6189 0.0
H709 H 0.84504 0.38677 0.63414 0.0
O710 O 0.79337 0.37923 0.60066 0.0
C711 C 0.83921 0.41274 0.606 0.0
O712 O 0.85243 0.40299 0.59637 0.0
N713 N 0.82025 0.35602 0.58356 0.0
C714 C 0.82566 0.33038 0.55313 0.0
C715 C 0.80715 0.3374 0.55741 0.0
C716 C 0.80469 0.35021 0.5728 0.0
C717 C 0.83792 0.34764 0.58097 0.0
C718 C 0.84095 0.33461 0.56577 0.0
H719 H 0.79079 0.35709 0.57439 0.0
H720 H 0.85016 0.35274 0.5893 0.0
H721 H 0.7875 0.40118 0.57202 0.0
H722 H 0.82767 0.3972 0.5265 0.0
H723 H 0.81645 0.33737 0.65512 0.0
H724 H 0.79508 0.33451 0.54782 0.0
H725 H 0.8555 0.32963 0.5627 0.0
C726 C 0.1728 0.10636 0.56758 0.0
C727 C 0.18293 0.0989 0.55216 0.0
N728 N 0.20195 0.09999 0.5563 0.0
N729 N 0.1854 0.11229 0.58124 0.0
C730 C 0.20307 0.108 0.57408 0.0
H731 H 0.15726 0.10803 0.56855 0.0
Co732 Co 0.178 0.12535 0.6034 0.0
C733 C 0.21445 0.14844 0.61163 0.0
O734 O 0.20614 0.16551 0.61106 0.0
N735 N 0.16972 0.13837 0.62604 0.0
C736 C 0.15973 0.16036 0.64751 0.0
C737 C 0.16785 0.15757 0.62954 0.0
C738 C 0.16245 0.12992 0.64213 0.0
N739 N 0.15637 0.14289 0.65539 0.0
O740 O 0.18335 0.10235 0.61786 0.0
H741 H 0.17144 0.16898 0.61948 0.0
H742 H 0.16098 0.1145 0.64401 0.0
O743 O 0.20459 0.13314 0.60842 0.0
C744 C 0.17076 0.08893 0.61783 0.0
O745 O 0.15401 0.09182 0.60934 0.0
N746 N 0.17224 0.14698 0.58801 0.0
C747 C 0.15846 0.16978 0.55767 0.0
C748 C 0.17835 0.16624 0.55971 0.0
C749 C 0.18495 0.15461 0.5749 0.0
C750 C 0.153 0.15112 0.58682 0.0
C751 C 0.14584 0.16274 0.57195 0.0
H752 H 0.19998 0.15033 0.575 0.0
H753 H 0.14297 0.14427 0.5967 0.0
H754 H 0.21652 0.11156 0.58126 0.0
H755 H 0.17681 0.09345 0.5388 0.0
H756 H 0.15656 0.17416 0.65422 0.0
H757 H 0.18854 0.17096 0.54877 0.0
H758 H 0.13038 0.16516 0.57097 0.0
C759 C 0.68953 0.42921 0.41796 0.0
C760 C 0.70119 0.43588 0.43257 0.0
N761 N 0.71118 0.42078 0.43981 0.0
N762 N 0.69222 0.41001 0.4158 0.0
C763 C 0.70565 0.40527 0.42922 0.0
H764 H 0.67902 0.4377 0.41008 0.0
Co765 Co 0.67654 0.39483 0.40013 0.0
C766 C 0.70031 0.36192 0.38572 0.0
O767 O 0.68486 0.35103 0.38366 0.0
N768 N 0.65981 0.38031 0.38413 0.0
C769 C 0.63327 0.36625 0.37246 0.0
C770 C 0.64281 0.37198 0.389 0.0
C771 C 0.6603 0.37925 0.36456 0.0
N772 N 0.64426 0.37099 0.35707 0.0
O773 O 0.68244 0.41171 0.37901 0.0
H774 H 0.63706 0.37104 0.40351 0.0
H775 H 0.6717 0.38554 0.35585 0.0
O776 O 0.69889 0.37891 0.39294 0.0
C777 C 0.66935 0.4234 0.37342 0.0
O778 O 0.65195 0.42202 0.381 0.0
N779 N 0.6703 0.37972 0.42184 0.0
C780 C 0.6631 0.36818 0.45973 0.0
C781 C 0.67605 0.35773 0.44817 0.0
C782 C 0.67961 0.36384 0.42917 0.0
C783 C 0.65679 0.38922 0.43262 0.0
C784 C 0.65301 0.38374 0.45165 0.0
H785 H 0.69088 0.35664 0.42122 0.0
H786 H 0.64987 0.40199 0.42676 0.0
H787 H 0.71031 0.39059 0.43204 0.0
H788 H 0.70174 0.45061 0.43789 0.0
H789 H 0.61899 0.35983 0.37183 0.0
H790 H 0.68431 0.34583 0.45419 0.0
H791 H 0.64305 0.39222 0.46031 0.0
C792 C 0.5757 0.70498 0.92592 0.0
C793 C 0.56256 0.71954 0.92936 0.0
N794 N 0.56121 0.73067 0.91333 0.0
N795 N 0.58269 0.70687 0.90784 0.0
C796 C 0.57375 0.72266 0.90058 0.0
H797 H 0.5792 0.69322 0.93563 0.0
Co798 Co 0.59839 0.68922 0.89513 0.0
C799 C 0.61833 0.71183 0.86397 0.0
O800 O 0.62106 0.6965 0.85305 0.0
N801 N 0.6143 0.67088 0.88261 0.0
C802 C 0.62516 0.64382 0.86887 0.0
C803 C 0.60896 0.65448 0.87336 0.0
C804 C 0.63385 0.66983 0.88343 0.0
N805 N 0.64081 0.65347 0.87532 0.0
O806 O 0.61781 0.69292 0.91451 0.0
H807 H 0.59424 0.64999 0.87065 0.0
H808 H 0.64279 0.68044 0.89069 0.0
O809 O 0.60944 0.71029 0.88011 0.0
C810 C 0.61844 0.67879 0.92631 0.0
O811 O 0.60646 0.66422 0.9237 0.0
N812 N 0.57826 0.68468 0.87755 0.0
C813 C 0.54525 0.67308 0.85736 0.0
C814 C 0.55783 0.68699 0.84949 0.0
C815 C 0.57429 0.69273 0.85991 0.0
C816 C 0.56582 0.67172 0.88562 0.0
C817 C 0.54931 0.6657 0.87583 0.0
H818 H 0.58343 0.70373 0.85379 0.0
H819 H 0.56892 0.66591 0.89984 0.0
H820 H 0.57592 0.7276 0.8859 0.0
H821 H 0.55393 0.72102 0.94234 0.0
H822 H 0.62533 0.6298 0.86187 0.0
H823 H 0.5551 0.69325 0.83538 0.0
H824 H 0.53973 0.65544 0.88281 0.0
C825 C 0.42202 0.82986 0.91815 0.0
C826 C 0.44044 0.82393 0.92318 0.0
N827 N 0.44551 0.80937 0.9113 0.0
N828 N 0.41554 0.81889 0.9033 0.0
C829 C 0.43014 0.8064 0.89973 0.0
H830 H 0.41462 0.84234 0.92395 0.0
Co831 Co 0.39446 0.82312 0.88682 0.0
C832 C 0.37856 0.78442 0.8817 0.0
O833 O 0.36115 0.79134 0.88496 0.0
N834 N 0.37348 0.82745 0.86987 0.0
C835 C 0.35455 0.82641 0.84384 0.0
C836 C 0.37242 0.82193 0.85113 0.0
C837 C 0.35591 0.83535 0.87354 0.0
N838 N 0.34402 0.83467 0.85799 0.0
O839 O 0.37722 0.81962 0.90823 0.0
H840 H 0.38354 0.81441 0.84321 0.0
H841 H 0.35154 0.84069 0.88756 0.0
O842 O 0.39318 0.79568 0.88183 0.0
C843 C 0.37319 0.83397 0.919 0.0
O844 O 0.37994 0.85119 0.91463 0.0
N845 N 0.41205 0.82731 0.86662 0.0
C846 C 0.44575 0.83507 0.84622 0.0
C847 C 0.43638 0.81727 0.84394 0.0
C848 C 0.41953 0.81355 0.85447 0.0
C849 C 0.42006 0.84527 0.86759 0.0
C850 C 0.4371 0.84943 0.85763 0.0
H851 H 0.41334 0.79921 0.85374 0.0
H852 H 0.41408 0.85586 0.87747 0.0
H853 H 0.43014 0.79613 0.88792 0.0
H854 H 0.44993 0.83081 0.93359 0.0
H855 H 0.34966 0.82339 0.82927 0.0
H856 H 0.44281 0.80585 0.83532 0.0
H857 H 0.44403 0.86336 0.85966 0.0
C858 C 0.57088 0.33188 0.58904 0.0
C859 C 0.55488 0.32443 0.57996 0.0
N860 N 0.55152 0.30661 0.58712 0.0
N861 N 0.57773 0.31881 0.60178 0.0
C862 C 0.56563 0.30349 0.60031 0.0
H863 H 0.57685 0.34621 0.58695 0.0
Co864 Co 0.59809 0.32465 0.61814 0.0
C865 C 0.61217 0.28798 0.63471 0.0
O866 O 0.61418 0.29669 0.65151 0.0
N867 N 0.61902 0.33158 0.63428 0.0
C868 C 0.63927 0.35054 0.65068 0.0
C869 C 0.62013 0.34558 0.64789 0.0
C870 C 0.63766 0.32782 0.62968 0.0
N871 N 0.65024 0.33967 0.63878 0.0
O872 O 0.61457 0.32697 0.59587 0.0
H873 H 0.60796 0.3533 0.65389 0.0
H874 H 0.64177 0.31797 0.61822 0.0
O875 O 0.6052 0.29724 0.62025 0.0
C876 C 0.61957 0.34408 0.59116 0.0
O877 O 0.61383 0.35868 0.60195 0.0
N878 N 0.58069 0.32377 0.63905 0.0
C879 C 0.54493 0.32725 0.65746 0.0
C880 C 0.55398 0.30916 0.65585 0.0
C881 C 0.57176 0.30766 0.64634 0.0
C882 C 0.57275 0.3416 0.64187 0.0
C883 C 0.555 0.34372 0.65122 0.0
H884 H 0.57684 0.29332 0.64307 0.0
H885 H 0.57924 0.35408 0.63498 0.0
H886 H 0.56692 0.29045 0.60889 0.0
H887 H 0.54594 0.33188 0.56946 0.0
H888 H 0.64443 0.36277 0.65904 0.0
H889 H 0.54661 0.29607 0.66034 0.0
H890 H 0.54837 0.35793 0.65171 0.0
C891 C 0.41845 0.19859 0.57355 0.0
C892 C 0.43242 0.21035 0.56577 0.0
N893 N 0.43807 0.22301 0.57946 0.0
N894 N 0.41509 0.20393 0.59202 0.0
C895 C 0.42736 0.21883 0.59529 0.0
H896 H 0.41163 0.18648 0.56636 0.0
Co897 Co 0.39851 0.19061 0.60835 0.0
C898 C 0.38423 0.21858 0.63776 0.0
O899 O 0.38244 0.2046 0.65052 0.0
N900 N 0.38152 0.17627 0.62434 0.0
C901 C 0.36855 0.15257 0.64191 0.0
C902 C 0.38556 0.16093 0.63579 0.0
C903 C 0.36193 0.17704 0.62406 0.0
N904 N 0.35366 0.1626 0.63431 0.0
O905 O 0.37824 0.19419 0.5898 0.0
H906 H 0.39987 0.15541 0.63879 0.0
H907 H 0.35384 0.18727 0.61541 0.0
O908 O 0.39105 0.21493 0.62093 0.0
C909 C 0.37426 0.17908 0.58001 0.0
O910 O 0.38314 0.16281 0.58437 0.0
N911 N 0.41942 0.1861 0.62502 0.0
C912 C 0.45489 0.17606 0.64172 0.0
C913 C 0.44435 0.1921 0.64851 0.0
C914 C 0.42675 0.19708 0.63976 0.0
C915 C 0.42939 0.17049 0.61834 0.0
C916 C 0.44708 0.16524 0.62638 0.0
H917 H 0.41972 0.21017 0.64441 0.0
H918 H 0.42373 0.16239 0.60618 0.0
H919 H 0.42864 0.22623 0.60904 0.0
H920 H 0.43854 0.20914 0.55138 0.0
H921 H 0.36732 0.1396 0.65062 0.0
H922 H 0.44977 0.20098 0.66024 0.0
H923 H 0.45483 0.15318 0.62005 0.0
C924 C 0.9041 0.56758 0.68542 0.0
C925 C 0.90989 0.5528 0.69745 0.0
N926 N 0.90207 0.55587 0.71504 0.0
N927 N 0.89259 0.57981 0.69536 0.0
C928 C 0.89181 0.57242 0.71346 0.0
H929 H 0.90716 0.56874 0.67011 0.0
Co930 Co 0.87821 0.59938 0.68372 0.0
C931 C 0.84664 0.60699 0.7117 0.0
O932 O 0.83377 0.60576 0.69778 0.0
N933 N 0.86371 0.6196 0.67138 0.0
C934 C 0.84303 0.63607 0.65274 0.0
C935 C 0.84746 0.61829 0.66044 0.0
C936 C 0.86845 0.63866 0.67033 0.0
N937 N 0.85631 0.64884 0.65893 0.0
O938 O 0.89794 0.61747 0.69091 0.0
H939 H 0.83917 0.60529 0.65794 0.0
H940 H 0.88101 0.64503 0.67712 0.0
O941 O 0.86455 0.60438 0.70793 0.0
C942 C 0.91027 0.61811 0.67719 0.0
O943 O 0.90672 0.6079 0.66151 0.0
N944 N 0.86088 0.58024 0.67528 0.0
C945 C 0.85204 0.54397 0.66002 0.0
C946 C 0.84738 0.54838 0.67929 0.0
C947 C 0.85209 0.5667 0.68677 0.0
C948 C 0.86417 0.57649 0.65619 0.0
C949 C 0.85954 0.55861 0.6482 0.0
H950 H 0.85076 0.56903 0.70217 0.0
H951 H 0.87216 0.58682 0.64755 0.0
H952 H 0.8828 0.57818 0.7249 0.0
H953 H 0.91862 0.54044 0.6934 0.0
H954 H 0.83109 0.63931 0.64311 0.0
H955 H 0.84204 0.53723 0.68894 0.0
H956 H 0.86353 0.55565 0.63331 0.0
C957 C 0.0875 0.94455 0.68411 0.0
C958 C 0.08286 0.95892 0.6971 0.0
N959 N 0.08924 0.95348 0.71469 0.0
N960 N 0.09694 0.93024 0.69345 0.0
C961 C 0.0976 0.93601 0.71214 0.0
H962 H 0.08505 0.94492 0.66865 0.0
Co963 Co 0.10918 0.90998 0.68072 0.0
C964 C 0.13819 0.89475 0.70833 0.0
O965 O 0.15052 0.89203 0.69413 0.0
N966 N 0.12137 0.88912 0.66702 0.0
C967 C 0.13893 0.87172 0.64614 0.0
C968 C 0.13633 0.88964 0.6543 0.0
C969 C 0.11561 0.87031 0.66658 0.0
N970 N 0.12583 0.85961 0.65383 0.0
O971 O 0.08751 0.89376 0.68635 0.0
H972 H 0.14509 0.90209 0.65091 0.0
H973 H 0.10364 0.86455 0.67485 0.0
O974 O 0.12148 0.90181 0.70478 0.0
C975 C 0.07486 0.89412 0.67296 0.0
O976 O 0.07827 0.90485 0.65761 0.0
N977 N 0.12913 0.92733 0.67443 0.0
C978 C 0.15132 0.95889 0.66257 0.0
C979 C 0.15224 0.95231 0.68174 0.0
C980 C 0.14092 0.9365 0.68744 0.0
C981 C 0.1276 0.93409 0.65595 0.0
C982 C 0.13898 0.94947 0.64955 0.0
H983 H 0.14077 0.93259 0.70256 0.0
H984 H 0.11718 0.92763 0.6462 0.0
H985 H 0.10512 0.92826 0.72347 0.0
H986 H 0.07582 0.97254 0.69381 0.0
H987 H 0.14953 0.8679 0.63525 0.0
H988 H 0.16116 0.95969 0.69232 0.0
H989 H 0.1374 0.9546 0.63481 0.0
C990 C 0.90958 0.42679 0.82936 0.0
C991 C 0.91468 0.44491 0.82292 0.0
N992 N 0.90478 0.44855 0.80653 0.0
N993 N 0.89647 0.4191 0.81714 0.0
C994 C 0.89396 0.43261 0.80322 0.0
H995 H 0.91425 0.42007 0.84271 0.0
Co996 Co 0.88256 0.39701 0.82307 0.0
C997 C 0.86099 0.38595 0.78762 0.0
O998 O 0.84625 0.37967 0.7979 0.0
N999 N 0.86898 0.37444 0.82999 0.0
C1000 C 0.85489 0.3517 0.84796 0.0
C1001 C 0.85782 0.3713 0.84574 0.0
C1002 C 0.87236 0.35655 0.82277 0.0
N1003 N 0.86416 0.34249 0.83352 0.0
O1004 O 0.90495 0.38186 0.81811 0.0
H1005 H 0.85321 0.38226 0.85588 0.0
H1006 H 0.88203 0.35377 0.81074 0.0
O1007 O 0.87548 0.39377 0.79603 0.0
C1008 C 0.91407 0.37506 0.83255 0.0
O1009 O 0.90759 0.37872 0.85007 0.0
N1010 N 0.86137 0.41281 0.82889 0.0
C1011 C 0.84165 0.44586 0.84072 0.0
C1012 C 0.83926 0.4387 0.8219 0.0
C1013 C 0.84948 0.42221 0.81614 0.0
C1014 C 0.86267 0.41886 0.84761 0.0
C1015 C 0.85282 0.43526 0.85389 0.0
H1016 H 0.84921 0.41849 0.80102 0.0
H1017 H 0.87281 0.41185 0.85728 0.0
H1018 H 0.88339 0.43144 0.79171 0.0
H1019 H 0.92439 0.45492 0.83009 0.0
H1020 H 0.8474 0.34473 0.85983 0.0
H1021 H 0.83105 0.44676 0.81124 0.0
H1022 H 0.85502 0.44037 0.86856 0.0
C1023 C 0.11321 0.06587 0.8429 0.0
C1024 C 0.10676 0.04812 0.83672 0.0
N1025 N 0.10272 0.04922 0.81762 0.0
N1026 N 0.11342 0.07821 0.82782 0.0
C1027 C 0.10666 0.0678 0.81268 0.0
H1028 H 0.11841 0.06933 0.85726 0.0
Co1029 Co 0.12378 0.10317 0.82943 0.0
C1030 C 0.13826 0.10457 0.78812 0.0
O1031 O 0.15641 0.10112 0.79247 0.0
N1032 N 0.13369 0.12849 0.83157 0.0
C1033 C 0.15128 0.15537 0.82898 0.0
C1034 C 0.14969 0.1363 0.82348 0.0
C1035 C 0.12598 0.14309 0.8421 0.0
N1036 N 0.13631 0.15964 0.8407 0.0
O1037 O 0.09804 0.11316 0.82811 0.0
H1038 H 0.15993 0.12864 0.81456 0.0
H1039 H 0.11287 0.14171 0.85051 0.0
O1040 O 0.12528 0.10537 0.80127 0.0
C1041 C 0.08906 0.1109 0.84403 0.0
O1042 O 0.09878 0.10465 0.85915 0.0
N1043 N 0.14882 0.09224 0.83226 0.0
C1044 C 0.17647 0.06723 0.84801 0.0
C1045 C 0.16751 0.063 0.83026 0.0
C1046 C 0.15383 0.07567 0.82265 0.0
C1047 C 0.15882 0.09757 0.84845 0.0
C1048 C 0.1731 0.08555 0.85623 0.0
H1049 H 0.14574 0.07096 0.81013 0.0
H1050 H 0.15449 0.11024 0.85656 0.0
H1051 H 0.10544 0.07359 0.7982 0.0
H1052 H 0.10617 0.0352 0.84553 0.0
H1053 H 0.1628 0.16519 0.82493 0.0
H1054 H 0.16924 0.04911 0.82324 0.0
H1055 H 0.18003 0.08985 0.86961 0.0
C1056 C 0.6879 0.91532 0.57297 0.0
C1057 C 0.70058 0.91953 0.55819 0.0
N1058 N 0.71383 0.90522 0.55717 0.0
N1059 N 0.69316 0.8985 0.58127 0.0
C1060 C 0.70912 0.89282 0.57155 0.0
H1061 H 0.67497 0.92336 0.57661 0.0
Co1062 Co 0.67828 0.88479 0.59882 0.0
C1063 C 0.70416 0.85502 0.61614 0.0
O1064 O 0.68964 0.84289 0.61797 0.0
N1065 N 0.6626 0.87127 0.6167 0.0
C1066 C 0.64042 0.85267 0.63103 0.0
C1067 C 0.64825 0.85827 0.61357 0.0
C1068 C 0.66302 0.87336 0.63618 0.0
N1069 N 0.64966 0.86237 0.64513 0.0
O1070 O 0.68234 0.90496 0.61736 0.0
H1071 H 0.64359 0.85308 0.59959 0.0
H1072 H 0.6731 0.8826 0.64382 0.0
O1073 O 0.70143 0.87164 0.60843 0.0
C1074 C 0.66817 0.91654 0.61952 0.0
O1075 O 0.65215 0.91323 0.60979 0.0
N1076 N 0.67358 0.86634 0.57935 0.0
C1077 C 0.66561 0.84848 0.544 0.0
C1078 C 0.68146 0.84253 0.55519 0.0
C1079 C 0.68537 0.85184 0.57278 0.0
C1080 C 0.65775 0.87176 0.56893 0.0
C1081 C 0.65341 0.86294 0.55133 0.0
H1082 H 0.69862 0.8482 0.5801 0.0
H1083 H 0.64891 0.88365 0.57401 0.0
H1084 H 0.71654 0.87934 0.57437 0.0
H1085 H 0.69925 0.93147 0.54814 0.0
H1086 H 0.6286 0.84261 0.6332 0.0
H1087 H 0.69144 0.8317 0.54981 0.0
H1088 H 0.64096 0.8679 0.54318 0.0
C1089 C 0.66889 0.08914 0.93007 0.0
C1090 C 0.67781 0.08011 0.94537 0.0
N1091 N 0.69677 0.08447 0.94476 0.0
N1092 N 0.68222 0.09887 0.91963 0.0
C1093 C 0.69911 0.0959 0.92908 0.0
H1094 H 0.65353 0.08917 0.92712 0.0
Co1095 Co 0.67598 0.11432 0.89847 0.0
C1096 C 0.71337 0.12288 0.88086 0.0
O1097 O 0.70641 0.11766 0.86395 0.0
N1098 N 0.66916 0.12995 0.87726 0.0
C1099 C 0.66416 0.15509 0.85767 0.0
C1100 C 0.6705 0.14943 0.87571 0.0
C1101 C 0.66214 0.12414 0.85992 0.0
N1102 N 0.65909 0.13911 0.84781 0.0
O1103 O 0.68088 0.09286 0.8816 0.0
H1104 H 0.67602 0.15895 0.88685 0.0
H1105 H 0.65935 0.10924 0.85606 0.0
O1106 O 0.70261 0.12233 0.89585 0.0
C1107 C 0.66808 0.07966 0.88089 0.0
O1108 O 0.65192 0.08179 0.89065 0.0
N1109 N 0.67046 0.13439 0.91573 0.0
C1110 C 0.65876 0.15519 0.9482 0.0
C1111 C 0.67839 0.15417 0.94315 0.0
C1112 C 0.684 0.14355 0.92688 0.0
C1113 C 0.65125 0.13641 0.91958 0.0
C1114 C 0.64505 0.1468 0.93576 0.0
H1115 H 0.69927 0.14157 0.92426 0.0
H1116 H 0.64078 0.12873 0.91082 0.0
H1117 H 0.71281 0.10214 0.92481 0.0
H1118 H 0.67079 0.07162 0.95652 0.0
H1119 H 0.66385 0.16971 0.85201 0.0
H1120 H 0.68946 0.16019 0.95249 0.0
H1121 H 0.62974 0.14738 0.93909 0.0
C1122 C 0.33441 0.38739 0.93444 0.0
C1123 C 0.32844 0.39381 0.95221 0.0
N1124 N 0.30947 0.39824 0.95112 0.0
N1125 N 0.31935 0.38762 0.92206 0.0
C1126 C 0.30427 0.39431 0.9326 0.0
H1127 H 0.3488 0.38237 0.93082 0.0
Co1128 Co 0.32212 0.37874 0.89675 0.0
C1129 C 0.28303 0.36308 0.8876 0.0
O1130 O 0.2903 0.34604 0.88342 0.0
N1131 N 0.32602 0.36994 0.87093 0.0
C1132 C 0.33105 0.35201 0.84446 0.0
C1133 C 0.32615 0.35167 0.86375 0.0
C1134 C 0.33135 0.38098 0.85561 0.0
N1135 N 0.33444 0.37048 0.83945 0.0
O1136 O 0.32062 0.40494 0.88801 0.0
H1137 H 0.32358 0.33866 0.87203 0.0
H1138 H 0.33329 0.39648 0.85615 0.0
O1139 O 0.29405 0.37674 0.89348 0.0
C1140 C 0.33604 0.41449 0.89118 0.0
O1141 O 0.35123 0.40538 0.8981 0.0
N1142 N 0.32477 0.35368 0.90678 0.0
C1143 C 0.3377 0.32865 0.93538 0.0
C1144 C 0.31804 0.3333 0.93407 0.0
C1145 C 0.31188 0.34618 0.91982 0.0
C1146 C 0.34346 0.34738 0.90646 0.0
C1147 C 0.35026 0.33478 0.92069 0.0
H1148 H 0.29752 0.35217 0.92121 0.0
H1149 H 0.35373 0.35415 0.89676 0.0
H1150 H 0.2898 0.39611 0.92688 0.0
H1151 H 0.33731 0.39449 0.9651 0.0
H1152 H 0.33284 0.33958 0.83509 0.0
H1153 H 0.30807 0.32925 0.94549 0.0
H1154 H 0.36562 0.33168 0.92149 0.0
C1155 C 0.81926 0.06583 0.06486 0.0
C1156 C 0.80766 0.05877 0.05035 0.0
N1157 N 0.79489 0.07265 0.04543 0.0
N1158 N 0.8137 0.08401 0.06928 0.0
C1159 C 0.79894 0.08789 0.05701 0.0
H1160 H 0.83106 0.05819 0.07172 0.0
Co1161 Co 0.82532 0.09913 0.08831 0.0
C1162 C 0.78493 0.10311 0.10078 0.0
O1163 O 0.78386 0.08431 0.10343 0.0
N1164 N 0.83729 0.11379 0.10735 0.0
C1165 C 0.86082 0.12618 0.12542 0.0
C1166 C 0.85578 0.12005 0.10711 0.0
C1167 C 0.83129 0.11643 0.12576 0.0
N1168 N 0.84538 0.12382 0.1371 0.0
O1169 O 0.82133 0.07887 0.1067 0.0
H1170 H 0.86536 0.11894 0.09478 0.0
H1171 H 0.81745 0.11141 0.13114 0.0
O1172 O 0.8006 0.11074 0.09468 0.0
C1173 C 0.83602 0.06865 0.111 0.0
O1174 O 0.85286 0.07325 0.10341 0.0
N1175 N 0.83039 0.11825 0.06997 0.0
C1176 C 0.84047 0.1431 0.03984 0.0
C1177 C 0.82719 0.14899 0.05408 0.0
C1178 C 0.82246 0.13634 0.06924 0.0
C1179 C 0.84359 0.11249 0.05655 0.0
C1180 C 0.84872 0.12459 0.04131 0.0
H1181 H 0.81255 0.14114 0.08033 0.0
H1182 H 0.84994 0.09821 0.05757 0.0
H1183 H 0.79113 0.10148 0.05679 0.0
H1184 H 0.80864 0.04457 0.04378 0.0
H1185 H 0.87497 0.13113 0.13 0.0
H1186 H 0.8207 0.16325 0.05361 0.0
H1187 H 0.8588 0.11928 0.03053 0.0
C1188 C 0.43631 0.32344 0.07235 0.0
C1189 C 0.45353 0.31514 0.06694 0.0
N1190 N 0.45656 0.29951 0.0782 0.0
N1191 N 0.42846 0.31307 0.08688 0.0
C1192 C 0.44105 0.29847 0.09004 0.0
H1193 H 0.4304 0.33679 0.06672 0.0
Co1194 Co 0.40731 0.32125 0.10108 0.0
C1195 C 0.39282 0.28683 0.12296 0.0
O1196 O 0.38584 0.29772 0.13691 0.0
N1197 N 0.38583 0.33052 0.1148 0.0
C1198 C 0.36555 0.34998 0.13059 0.0
C1199 C 0.38471 0.34605 0.12664 0.0
C1200 C 0.3672 0.32532 0.11179 0.0
N1201 N 0.35461 0.33688 0.1212 0.0
O1202 O 0.39138 0.3169 0.0791 0.0
H1203 H 0.39687 0.35465 0.13138 0.0
H1204 H 0.36288 0.31381 0.10207 0.0
O1205 O 0.40198 0.29457 0.10886 0.0
C1206 C 0.38768 0.33059 0.06741 0.0
O1207 O 0.39411 0.34808 0.07127 0.0
N1208 N 0.42413 0.32597 0.12202 0.0
C1209 C 0.45954 0.33239 0.14011 0.0
C1210 C 0.4494 0.31515 0.14326 0.0
C1211 C 0.43163 0.31221 0.13413 0.0
C1212 C 0.43304 0.34349 0.12022 0.0
C1213 C 0.45075 0.3471 0.12931 0.0
H1214 H 0.42541 0.29803 0.13531 0.0
H1215 H 0.42734 0.35401 0.11011 0.0
H1216 H 0.43955 0.28806 0.10165 0.0
H1217 H 0.46335 0.32056 0.056 0.0
H1218 H 0.36009 0.36186 0.13923 0.0
H1219 H 0.45588 0.30344 0.15144 0.0
H1220 H 0.45832 0.36052 0.12638 0.0
C1221 C 0.56817 0.17369 0.10278 0.0
C1222 C 0.55285 0.18441 0.09598 0.0
N1223 N 0.55781 0.20326 0.09672 0.0
N1224 N 0.58264 0.18575 0.10788 0.0
C1225 C 0.57598 0.20366 0.10387 0.0
H1226 H 0.56859 0.15812 0.10442 0.0
Co1227 Co 0.60539 0.17782 0.11961 0.0
C1228 C 0.61773 0.21247 0.14217 0.0
O1229 O 0.61957 0.20257 0.15829 0.0
N1230 N 0.62886 0.1693 0.13132 0.0
C1231 C 0.6513 0.15663 0.1509 0.0
C1232 C 0.63222 0.16215 0.14929 0.0
C1233 C 0.64639 0.16833 0.12258 0.0
N1234 N 0.66013 0.16061 0.13406 0.0
O1235 O 0.61841 0.18203 0.09564 0.0
H1236 H 0.62165 0.16095 0.16074 0.0
H1237 H 0.6492 0.17267 0.10783 0.0
O1238 O 0.61173 0.20422 0.12677 0.0
C1239 C 0.61653 0.16879 0.08298 0.0
O1240 O 0.60679 0.15309 0.08755 0.0
N1241 N 0.59104 0.17286 0.14208 0.0
C1242 C 0.55912 0.16062 0.16355 0.0
C1243 C 0.56345 0.18039 0.16188 0.0
C1244 C 0.5794 0.18626 0.15085 0.0
C1245 C 0.58768 0.15358 0.14458 0.0
C1246 C 0.57204 0.14714 0.15556 0.0
H1247 H 0.58094 0.20147 0.14765 0.0
H1248 H 0.59629 0.14315 0.13667 0.0
H1249 H 0.58395 0.21681 0.10687 0.0
H1250 H 0.53907 0.17878 0.09106 0.0
H1251 H 0.65815 0.15024 0.16347 0.0
H1252 H 0.55359 0.19127 0.16738 0.0
H1253 H 0.56926 0.13174 0.15653 0.0
C1254 C 0.43735 0.67283 0.4166 0.0
C1255 C 0.45473 0.67966 0.42329 0.0
N1256 N 0.45654 0.69832 0.4179 0.0
N1257 N 0.42801 0.68709 0.40712 0.0
C1258 C 0.4399 0.70262 0.40847 0.0
H1259 H 0.43234 0.65803 0.41754 0.0
Co1260 Co 0.40544 0.68221 0.39299 0.0
C1261 C 0.40884 0.71435 0.36378 0.0
O1262 O 0.41058 0.70184 0.34954 0.0
N1263 N 0.38213 0.67645 0.37966 0.0
C1264 C 0.35455 0.67724 0.36295 0.0
C1265 C 0.37243 0.68549 0.36524 0.0
C1266 C 0.36952 0.66275 0.38588 0.0
N1267 N 0.35253 0.66311 0.37616 0.0
O1268 O 0.3904 0.69236 0.41406 0.0
H1269 H 0.37685 0.6982 0.35755 0.0
H1270 H 0.3723 0.65349 0.39817 0.0
O1271 O 0.40642 0.70839 0.3812 0.0
C1272 C 0.38857 0.68008 0.4277 0.0
O1273 O 0.39595 0.66271 0.42531 0.0
N1274 N 0.42087 0.67091 0.37327 0.0
C1275 C 0.44758 0.65074 0.35065 0.0
C1276 C 0.45069 0.67011 0.35538 0.0
C1277 C 0.43752 0.67972 0.36711 0.0
C1278 C 0.4175 0.65198 0.36861 0.0
C1279 C 0.43079 0.64152 0.35734 0.0
H1280 H 0.441 0.6943 0.37143 0.0
H1281 H 0.40504 0.64459 0.37453 0.0
H1282 H 0.43723 0.71622 0.40119 0.0
H1283 H 0.46559 0.67119 0.43076 0.0
H1284 H 0.34356 0.68202 0.35287 0.0
H1285 H 0.46383 0.67748 0.35098 0.0
H1286 H 0.4283 0.62632 0.35439 0.0
C1287 C 0.57062 0.82432 0.40786 0.0
C1288 C 0.55642 0.81274 0.4157 0.0
N1289 N 0.55944 0.79446 0.40961 0.0
N1290 N 0.58238 0.8134 0.39673 0.0
C1291 C 0.57534 0.79523 0.39828 0.0
H1292 H 0.57181 0.83985 0.40942 0.0
Co1293 Co 0.60153 0.82333 0.38065 0.0
C1294 C 0.60533 0.7938 0.3498 0.0
O1295 O 0.60387 0.80723 0.33643 0.0
N1296 N 0.62138 0.83386 0.36436 0.0
C1297 C 0.63748 0.85034 0.34164 0.0
C1298 C 0.61963 0.844 0.34764 0.0
C1299 C 0.64073 0.83398 0.36781 0.0
N1300 N 0.65072 0.84407 0.35441 0.0
O1301 O 0.62028 0.81577 0.39946 0.0
H1302 H 0.60628 0.84684 0.34003 0.0
H1303 H 0.64752 0.82747 0.3803 0.0
O1304 O 0.60425 0.79842 0.36767 0.0
C1305 C 0.62277 0.82986 0.41111 0.0
O1306 O 0.61404 0.84633 0.40728 0.0
N1307 N 0.58187 0.83212 0.36423 0.0
C1308 C 0.54598 0.84883 0.35685 0.0
C1309 C 0.54907 0.82911 0.35306 0.0
C1310 C 0.5672 0.82092 0.35705 0.0
C1311 C 0.57938 0.85154 0.36661 0.0
C1312 C 0.5617 0.86025 0.36264 0.0
H1313 H 0.56858 0.80535 0.35658 0.0
H1314 H 0.59067 0.86002 0.37338 0.0
H1315 H 0.581 0.78295 0.39037 0.0
H1316 H 0.54456 0.81746 0.42479 0.0
H1317 H 0.64046 0.85911 0.329 0.0
H1318 H 0.53713 0.81979 0.34901 0.0
H1319 H 0.55985 0.87551 0.36577 0.0
C1320 C 0.08519 0.4501 0.32354 0.0
C1321 C 0.07906 0.46759 0.31627 0.0
N1322 N 0.07518 0.4653 0.29729 0.0
N1323 N 0.08513 0.43684 0.30922 0.0
C1324 C 0.07876 0.44647 0.29346 0.0
H1325 H 0.09043 0.44745 0.33805 0.0
Co1326 Co 0.09537 0.41208 0.31149 0.0
C1327 C 0.09095 0.39602 0.27235 0.0
O1328 O 0.08283 0.38033 0.27941 0.0
N1329 N 0.10576 0.38739 0.31425 0.0
C1330 C 0.12308 0.36058 0.31046 0.0
C1331 C 0.12048 0.37932 0.30424 0.0
C1332 C 0.09998 0.37354 0.32675 0.0
N1333 N 0.11017 0.35703 0.32463 0.0
O1334 O 0.06972 0.40174 0.31184 0.0
H1335 H 0.12858 0.38651 0.29293 0.0
H1336 H 0.08817 0.37535 0.33688 0.0
O1337 O 0.09641 0.40952 0.28366 0.0
C1338 C 0.06069 0.4048 0.32759 0.0
O1339 O 0.0699 0.41308 0.34203 0.0
N1340 N 0.1201 0.42288 0.31207 0.0
C1341 C 0.15026 0.44825 0.31987 0.0
C1342 C 0.142 0.44755 0.30137 0.0
C1343 C 0.12691 0.43465 0.29769 0.0
C1344 C 0.12907 0.4222 0.32961 0.0
C1345 C 0.14439 0.43469 0.33378 0.0
H1346 H 0.11954 0.43561 0.28394 0.0
H1347 H 0.12319 0.41314 0.34096 0.0
H1348 H 0.07755 0.44004 0.27925 0.0
H1349 H 0.07881 0.4812 0.32405 0.0
H1350 H 0.13363 0.35036 0.30499 0.0
H1351 H 0.14609 0.45795 0.29036 0.0
H1352 H 0.15024 0.43505 0.34833 0.0
C1353 C 0.91145 0.06364 0.30303 0.0
C1354 C 0.91572 0.04834 0.29112 0.0
N1355 N 0.90643 0.05102 0.2742 0.0
N1356 N 0.89956 0.07598 0.2937 0.0
C1357 C 0.89685 0.06796 0.27604 0.0
H1358 H 0.91579 0.06505 0.31799 0.0
Co1359 Co 0.88706 0.0961 0.30638 0.0
C1360 C 0.86098 0.11426 0.27761 0.0
O1361 O 0.84805 0.11724 0.29122 0.0
N1362 N 0.87463 0.11651 0.32029 0.0
C1363 C 0.85621 0.13271 0.34131 0.0
C1364 C 0.85882 0.11545 0.33185 0.0
C1365 C 0.88108 0.13489 0.32286 0.0
N1366 N 0.87033 0.14488 0.33577 0.0
O1367 O 0.90986 0.11148 0.30333 0.0
H1368 H 0.84962 0.10296 0.33368 0.0
H1369 H 0.89396 0.1407 0.31612 0.0
O1370 O 0.87691 0.10582 0.28176 0.0
C1371 C 0.92044 0.10919 0.31824 0.0
O1372 O 0.9133 0.09959 0.33304 0.0
N1373 N 0.86632 0.07926 0.31044 0.0
C1374 C 0.84786 0.04438 0.31837 0.0
C1375 C 0.84465 0.05386 0.30071 0.0
C1376 C 0.85429 0.0713 0.29687 0.0
C1377 C 0.86866 0.07068 0.32803 0.0
C1378 C 0.85939 0.05339 0.33239 0.0
H1379 H 0.85344 0.07718 0.28244 0.0
H1380 H 0.87891 0.07667 0.33824 0.0
H1381 H 0.88695 0.07362 0.26529 0.0
H1382 H 0.92441 0.03584 0.29485 0.0
H1383 H 0.84494 0.13596 0.35171 0.0
H1384 H 0.83612 0.04707 0.28943 0.0
H1385 H 0.8622 0.04648 0.34619 0.0
C1386 C 0.10751 0.57198 0.17201 0.0
C1387 C 0.09614 0.55747 0.17961 0.0
N1388 N 0.09253 0.56176 0.19829 0.0
N1389 N 0.11127 0.58509 0.18597 0.0
C1390 C 0.1017 0.57865 0.20172 0.0
H1391 H 0.1135 0.57247 0.15755 0.0
Co1392 Co 0.12838 0.60563 0.18385 0.0
C1393 C 0.13136 0.61922 0.22409 0.0
O1394 O 0.12599 0.63667 0.21873 0.0
N1395 N 0.14557 0.62636 0.18149 0.0
C1396 C 0.17063 0.64609 0.18566 0.0
C1397 C 0.16351 0.6278 0.18908 0.0
C1398 C 0.14222 0.64379 0.17332 0.0
N1399 N 0.15713 0.65617 0.17582 0.0
O1400 O 0.10699 0.62292 0.18691 0.0
H1401 H 0.17068 0.61651 0.19721 0.0
H1402 H 0.12871 0.6477 0.16652 0.0
O1403 O 0.13265 0.60572 0.21156 0.0
C1404 C 0.0965 0.62622 0.17215 0.0
O1405 O 0.10185 0.61911 0.15533 0.0
N1406 N 0.14864 0.58785 0.18025 0.0
C1407 C 0.17143 0.55612 0.17027 0.0
C1408 C 0.16353 0.5577 0.18886 0.0
C1409 C 0.15213 0.57363 0.19355 0.0
C1410 C 0.15715 0.58717 0.16244 0.0
C1411 C 0.1688 0.57142 0.15718 0.0
H1412 H 0.14479 0.57356 0.20731 0.0
H1413 H 0.15385 0.59823 0.15186 0.0
H1414 H 0.10243 0.5855 0.21579 0.0
H1415 H 0.0915 0.54445 0.17222 0.0
H1416 H 0.18448 0.65162 0.19045 0.0
H1417 H 0.16513 0.54608 0.19928 0.0
H1418 H 0.17446 0.57053 0.14257 0.0
C1419 C 0.91586 0.91684 0.16665 0.0
C1420 C 0.92037 0.93537 0.17233 0.0
N1421 N 0.91041 0.93933 0.18862 0.0
N1422 N 0.90308 0.9092 0.17924 0.0
C1423 C 0.90022 0.92315 0.19266 0.0
H1424 H 0.92051 0.90987 0.15342 0.0
Co1425 Co 0.8891 0.88701 0.1738 0.0
C1426 C 0.86917 0.87564 0.21006 0.0
O1427 O 0.85377 0.86993 0.20047 0.0
N1428 N 0.87533 0.86438 0.16738 0.0
C1429 C 0.85887 0.84244 0.15055 0.0
C1430 C 0.86188 0.86191 0.15342 0.0
C1431 C 0.87994 0.84619 0.17297 0.0
N1432 N 0.87048 0.83249 0.16267 0.0
O1433 O 0.91207 0.8721 0.17743 0.0
H1434 H 0.85557 0.87331 0.14482 0.0
H1435 H 0.89086 0.8431 0.18373 0.0
O1436 O 0.88341 0.88332 0.2011 0.0
C1437 C 0.92109 0.86617 0.16252 0.0
O1438 O 0.91381 0.86985 0.14533 0.0
N1439 N 0.86746 0.90275 0.1692 0.0
C1440 C 0.84772 0.93627 0.15881 0.0
C1441 C 0.84572 0.92862 0.17747 0.0
C1442 C 0.85595 0.91188 0.18251 0.0
C1443 C 0.86821 0.90923 0.15059 0.0
C1444 C 0.8584 0.92592 0.14505 0.0
H1445 H 0.85611 0.90785 0.19753 0.0
H1446 H 0.87796 0.90235 0.14044 0.0
H1447 H 0.88966 0.92213 0.20419 0.0
H1448 H 0.92954 0.94546 0.16462 0.0
H1449 H 0.84995 0.83623 0.13927 0.0
H1450 H 0.83788 0.93649 0.18855 0.0
H1451 H 0.8603 0.93147 0.1305 0.0
C1452 C 0.31521 0.07749 0.42803 0.0
C1453 C 0.30765 0.07151 0.44547 0.0
N1454 N 0.29368 0.08409 0.45065 0.0
N1455 N 0.30605 0.09375 0.42236 0.0
C1456 C 0.29295 0.09739 0.43637 0.0
H1457 H 0.32712 0.07086 0.42034 0.0
Co1458 Co 0.31328 0.10886 0.40153 0.0
C1459 C 0.27291 0.11464 0.38769 0.0
O1460 O 0.27503 0.10198 0.37366 0.0
N1461 N 0.32123 0.12395 0.38033 0.0
C1462 C 0.34107 0.14068 0.36123 0.0
C1463 C 0.33598 0.13679 0.38009 0.0
C1464 C 0.31738 0.12067 0.36142 0.0
N1465 N 0.3296 0.13018 0.34949 0.0
O1466 O 0.30771 0.0875 0.38502 0.0
H1467 H 0.34388 0.14162 0.3927 0.0
H1468 H 0.30697 0.11013 0.35644 0.0
O1469 O 0.28693 0.11832 0.39913 0.0
C1470 C 0.32077 0.07742 0.37688 0.0
O1471 O 0.33901 0.08251 0.37874 0.0
N1472 N 0.31948 0.12881 0.41867 0.0
C1473 C 0.32763 0.15073 0.45136 0.0
C1474 C 0.31256 0.15619 0.43889 0.0
C1475 C 0.3087 0.14497 0.42244 0.0
C1476 C 0.33526 0.12447 0.4296 0.0
C1477 C 0.33958 0.1352 0.44607 0.0
H1478 H 0.29655 0.14879 0.41339 0.0
H1479 H 0.34379 0.11179 0.42617 0.0
H1480 H 0.28386 0.11015 0.43667 0.0
H1481 H 0.3123 0.05912 0.45385 0.0
H1482 H 0.35358 0.14894 0.35665 0.0
H1483 H 0.30318 0.16825 0.44242 0.0
H1484 H 0.35166 0.13084 0.45508 0.0
C1485 C 0.32624 0.916 0.07936 0.0
C1486 C 0.31768 0.92043 0.06189 0.0
N1487 N 0.30485 0.90637 0.05772 0.0
N1488 N 0.31863 0.89935 0.08618 0.0
C1489 C 0.30547 0.89402 0.07277 0.0
H1490 H 0.33812 0.92376 0.08595 0.0
Co1491 Co 0.32765 0.88423 0.10655 0.0
C1492 C 0.29179 0.86422 0.12165 0.0
O1493 O 0.30098 0.84998 0.13027 0.0
N1494 N 0.33734 0.86907 0.12712 0.0
C1495 C 0.35466 0.84767 0.14391 0.0
C1496 C 0.3487 0.85318 0.12577 0.0
C1497 C 0.33674 0.87292 0.14637 0.0
N1498 N 0.34726 0.86019 0.15685 0.0
O1499 O 0.32447 0.90579 0.12342 0.0
H1500 H 0.35316 0.8463 0.11245 0.0
H1501 H 0.329 0.88499 0.15263 0.0
O1502 O 0.30115 0.87703 0.1122 0.0
C1503 C 0.33903 0.91665 0.12634 0.0
O1504 O 0.35588 0.91149 0.11915 0.0
N1505 N 0.33149 0.86402 0.08882 0.0
C1506 C 0.33736 0.84424 0.05412 0.0
C1507 C 0.32198 0.8392 0.06645 0.0
C1508 C 0.31927 0.84929 0.08383 0.0
C1509 C 0.34743 0.86789 0.07791 0.0
C1510 C 0.35058 0.85831 0.06048 0.0
H1511 H 0.30664 0.84606 0.09233 0.0
H1512 H 0.35688 0.87969 0.08204 0.0
H1513 H 0.29719 0.88075 0.0735 0.0
H1514 H 0.32155 0.93228 0.05238 0.0
H1515 H 0.36446 0.83589 0.1472 0.0
H1516 H 0.31161 0.8282 0.0623 0.0
H1517 H 0.36253 0.86299 0.05147 0.0
C1518 C 0.68023 0.57644 0.08336 0.0
C1519 C 0.68804 0.5681 0.06703 0.0
N1520 N 0.7033 0.57886 0.06136 0.0
N1521 N 0.6905 0.59239 0.0879 0.0
C1522 C 0.7046 0.59336 0.0744 0.0
H1523 H 0.6672 0.57188 0.09074 0.0
Co1524 Co 0.68294 0.611 0.10566 0.0
C1525 C 0.71959 0.62982 0.11914 0.0
O1526 O 0.71113 0.64628 0.12351 0.0
N1527 N 0.67452 0.62982 0.12372 0.0
C1528 C 0.65637 0.65286 0.13712 0.0
C1529 C 0.66311 0.6453 0.12002 0.0
C1530 C 0.67488 0.62872 0.1433 0.0
N1531 N 0.66355 0.64222 0.15175 0.0
O1532 O 0.68307 0.59145 0.1253 0.0
H1533 H 0.65867 0.65014 0.10585 0.0
H1534 H 0.68191 0.61721 0.15125 0.0
O1535 O 0.70988 0.616 0.11162 0.0
C1536 C 0.66742 0.58511 0.13266 0.0
O1537 O 0.65085 0.59314 0.12792 0.0
N1538 N 0.68185 0.62901 0.08543 0.0
C1539 C 0.67554 0.64824 0.05056 0.0
C1540 C 0.69264 0.65137 0.06106 0.0
C1541 C 0.69563 0.64142 0.0785 0.0
C1542 C 0.66491 0.62644 0.07571 0.0
C1543 C 0.66141 0.63594 0.05833 0.0
H1544 H 0.70936 0.64307 0.08564 0.0
H1545 H 0.65427 0.61639 0.08131 0.0
H1546 H 0.71465 0.60532 0.07322 0.0
H1547 H 0.68241 0.55561 0.05943 0.0
H1548 H 0.64593 0.66445 0.1386 0.0
H1549 H 0.70394 0.66063 0.05539 0.0
H1550 H 0.6479 0.63333 0.0508 0.0
C1551 C 0.19352 0.92173 0.93422 0.0
C1552 C 0.20681 0.92353 0.94883 0.0
N1553 N 0.22111 0.91068 0.9457 0.0
N1554 N 0.19947 0.90796 0.92174 0.0
C1555 C 0.21631 0.90134 0.92919 0.0
H1556 H 0.18001 0.92951 0.93317 0.0
Co1557 Co 0.18487 0.90025 0.90064 0.0
C1558 C 0.2095 0.87414 0.87727 0.0
O1559 O 0.19434 0.86336 0.87323 0.0
N1560 N 0.16937 0.8933 0.87935 0.0
C1561 C 0.14525 0.8841 0.86002 0.0
C1562 C 0.15136 0.88568 0.87895 0.0
C1563 C 0.17364 0.89666 0.86054 0.0
N1564 N 0.1594 0.89089 0.84849 0.0
O1565 O 0.19073 0.92421 0.88838 0.0
H1566 H 0.143 0.88157 0.89149 0.0
H1567 H 0.18708 0.90315 0.85574 0.0
O1568 O 0.20776 0.88876 0.8885 0.0
C1569 C 0.17807 0.93714 0.89164 0.0
O1570 O 0.16205 0.93223 0.90065 0.0
N1571 N 0.17856 0.87755 0.91421 0.0
C1572 C 0.16956 0.85181 0.94415 0.0
C1573 C 0.18584 0.84878 0.93238 0.0
C1574 C 0.19037 0.86206 0.91782 0.0
C1575 C 0.16236 0.88034 0.92505 0.0
C1576 C 0.15754 0.86768 0.94 0.0
H1577 H 0.20415 0.86046 0.91079 0.0
H1578 H 0.15385 0.89332 0.92297 0.0
H1579 H 0.22464 0.88966 0.92292 0.0
H1580 H 0.20554 0.93292 0.96133 0.0
H1581 H 0.13165 0.87807 0.8551 0.0
H1582 H 0.19563 0.83683 0.93503 0.0
H1583 H 0.14519 0.87117 0.949 0.0
H1584 H 0.11366 0.32105 0.30957 0.0
H1585 H 0.09942 0.35229 0.36208 0.0
H1586 H 0.09374 0.32118 0.37903 0.0
H1587 H 0.07759 0.28444 0.31492 0.0
H1588 H 0.09251 0.26544 0.30504 0.0
H1589 H 0.09617 0.29012 0.29748 0.0
H1590 H 0.13224 0.288 0.30763 0.0
H1591 H 0.12871 0.2633 0.3152 0.0
H1592 H 0.13832 0.28083 0.33198 0.0
H1593 H 0.09017 0.28631 0.3902 0.0
H1594 H 0.08708 0.25084 0.39411 0.0
H1595 H 0.10232 0.24301 0.33364 0.0
C1596 C 0.10958 0.32131 0.3247 0.0
C1597 C 0.10713 0.33901 0.33461 0.0
C1598 C 0.10131 0.33884 0.35427 0.0
C1599 C 0.09815 0.32127 0.364 0.0
C1600 C 0.10068 0.30405 0.35377 0.0
C1601 C 0.10613 0.30397 0.33451 0.0
C1602 C 0.10715 0.2836 0.32654 0.0
C1603 C 0.09248 0.28074 0.31002 0.0
C1604 C 0.12783 0.27865 0.31996 0.0
C1605 C 0.10148 0.27219 0.34433 0.0
C1606 C 0.09796 0.28418 0.35996 0.0
C1607 C 0.09279 0.2768 0.37803 0.0
C1608 C 0.09107 0.25663 0.38011 0.0
C1609 C 0.09427 0.24416 0.36414 0.0
C1610 C 0.09959 0.25215 0.34609 0.0
H1611 H 0.88591 0.17579 0.31698 0.0
H1612 H 0.86361 0.15674 0.3725 0.0
H1613 H 0.86957 0.18921 0.38612 0.0
H1614 H 0.92369 0.20803 0.33619 0.0
H1615 H 0.92007 0.22595 0.31757 0.0
H1616 H 0.91543 0.20077 0.31253 0.0
H1617 H 0.8805 0.20929 0.30175 0.0
H1618 H 0.88505 0.23446 0.30672 0.0
H1619 H 0.8649 0.22238 0.31808 0.0
H1620 H 0.87675 0.22389 0.39345 0.0
H1621 H 0.88285 0.25907 0.39346 0.0
H1622 H 0.89998 0.25597 0.33301 0.0
C1623 C 0.88255 0.17842 0.33206 0.0
C1624 C 0.87426 0.16377 0.34368 0.0
C1625 C 0.86974 0.16782 0.36328 0.0
C1626 C 0.87325 0.18616 0.3712 0.0
C1627 C 0.88127 0.20033 0.35933 0.0
C1628 C 0.88582 0.19673 0.34017 0.0
C1629 C 0.89324 0.21486 0.33029 0.0
C1630 C 0.91436 0.21224 0.32376 0.0
C1631 C 0.88014 0.22058 0.3132 0.0
C1632 C 0.89172 0.22927 0.34678 0.0
C1633 C 0.88509 0.22051 0.36348 0.0
C1634 C 0.88204 0.23092 0.38049 0.0
C1635 C 0.88555 0.25091 0.38034 0.0
C1636 C 0.89183 0.26032 0.36323 0.0
C1637 C 0.89521 0.24923 0.34634 0.0
H1638 H 0.13687 0.67432 0.14726 0.0
H1639 H 0.17746 0.68445 0.19418 0.0
H1640 H 0.17586 0.71952 0.18796 0.0
H1641 H 0.15414 0.71283 0.11545 0.0
H1642 H 0.13015 0.71899 0.10724 0.0
H1643 H 0.13556 0.69452 0.11447 0.0
H1644 H 0.1073 0.69555 0.13914 0.0
H1645 H 0.10187 0.72004 0.13204 0.0
H1646 H 0.10666 0.71449 0.15709 0.0
H1647 H 0.16797 0.75357 0.17841 0.0
H1648 H 0.15537 0.78428 0.16515 0.0
H1649 H 0.12001 0.75208 0.12435 0.0
C1650 C 0.1455 0.68388 0.15619 0.0
C1651 C 0.15734 0.67654 0.1712 0.0
C1652 C 0.16852 0.6896 0.18241 0.0
C1653 C 0.16762 0.7096 0.17906 0.0
C1654 C 0.15555 0.71632 0.16439 0.0
C1655 C 0.14478 0.70387 0.15303 0.0
C1656 C 0.13249 0.71489 0.13859 0.0
C1657 C 0.13845 0.71002 0.1177 0.0
C1658 C 0.1108 0.71101 0.14192 0.0
C1659 C 0.13783 0.7355 0.14381 0.0
C1660 C 0.15115 0.736 0.15873 0.0
C1661 C 0.15768 0.75338 0.1666 0.0
C1662 C 0.15038 0.77073 0.15903 0.0
C1663 C 0.13678 0.77056 0.14369 0.0
C1664 C 0.13055 0.75268 0.13594 0.0
H1665 H 0.85869 0.72617 0.12138 0.0
H1666 H 0.9158 0.71367 0.14447 0.0
H1667 H 0.91636 0.74573 0.16025 0.0
H1668 H 0.86736 0.77475 0.10995 0.0
H1669 H 0.84357 0.78319 0.11657 0.0
H1670 H 0.84689 0.75861 0.10863 0.0
H1671 H 0.83124 0.74612 0.14037 0.0
H1672 H 0.82785 0.77071 0.14842 0.0
H1673 H 0.84093 0.75379 0.16337 0.0
H1674 H 0.91192 0.78017 0.17101 0.0
H1675 H 0.90307 0.81422 0.17585 0.0
H1676 H 0.84821 0.80395 0.14678 0.0
C1677 C 0.87123 0.73005 0.12995 0.0
C1678 C 0.88717 0.71735 0.13174 0.0
C1679 C 0.90334 0.72306 0.14301 0.0
C1680 C 0.9038 0.74126 0.15204 0.0
C1681 C 0.88791 0.75349 0.14981 0.0
C1682 C 0.87188 0.74809 0.13913 0.0
C1683 C 0.85714 0.76429 0.13816 0.0
C1684 C 0.85354 0.77058 0.11708 0.0
C1685 C 0.83817 0.75837 0.14818 0.0
C1686 C 0.86761 0.77984 0.1495 0.0
C1687 C 0.88525 0.77328 0.15624 0.0
C1688 C 0.89799 0.78538 0.1661 0.0
C1689 C 0.89271 0.80479 0.16888 0.0
C1690 C 0.8748 0.81201 0.16181 0.0
C1691 C 0.86201 0.7991 0.15234 0.0
H1692 H 0.37785 0.14556 0.24609 0.0
H1693 H 0.3653 0.08494 0.23494 0.0
H1694 H 0.34849 0.08264 0.26623 0.0
H1695 H 0.38782 0.13964 0.29668 0.0
H1696 H 0.37707 0.16239 0.30363 0.0
H1697 H 0.3874 0.15959 0.27985 0.0
H1698 H 0.3548 0.17002 0.26449 0.0
H1699 H 0.34433 0.17272 0.28823 0.0
H1700 H 0.33298 0.1571 0.27067 0.0
H1701 H 0.33359 0.0865 0.29874 0.0
H1702 H 0.32347 0.09565 0.33156 0.0
H1703 H 0.34571 0.15374 0.32234 0.0
C1704 C 0.37153 0.13182 0.2502 0.0
C1705 C 0.37265 0.11552 0.23786 0.0
C1706 C 0.36434 0.09775 0.2439 0.0
C1707 C 0.35477 0.09626 0.2617 0.0
C1708 C 0.3537 0.11264 0.27338 0.0
C1709 C 0.36198 0.13004 0.26801 0.0
C1710 C 0.35938 0.1452 0.28368 0.0
C1711 C 0.37909 0.1521 0.29142 0.0
C1712 C 0.34714 0.16227 0.27632 0.0
C1713 C 0.3485 0.13351 0.29874 0.0
C1714 C 0.34523 0.11483 0.29238 0.0
C1715 C 0.33589 0.10114 0.30383 0.0
C1716 C 0.33001 0.10658 0.32245 0.0
C1717 C 0.33355 0.12555 0.32952 0.0
C1718 C 0.34274 0.13919 0.31733 0.0
H1719 H 0.6624 0.37588 0.24362 0.0
H1720 H 0.60055 0.38458 0.23676 0.0
H1721 H 0.59611 0.38036 0.27202 0.0
H1722 H 0.66011 0.33992 0.28191 0.0
H1723 H 0.68084 0.34953 0.29453 0.0
H1724 H 0.67901 0.35208 0.26863 0.0
H1725 H 0.68291 0.38927 0.27194 0.0
H1726 H 0.68478 0.38682 0.29782 0.0
H1727 H 0.66667 0.40252 0.2875 0.0
H1728 H 0.59854 0.37585 0.3081 0.0
H1729 H 0.6078 0.3735 0.3425 0.0
H1730 H 0.66815 0.36835 0.32589 0.0
C1731 C 0.64788 0.37668 0.24949 0.0
C1732 C 0.63178 0.3804 0.23741 0.0
C1733 C 0.61308 0.38169 0.24573 0.0
C1734 C 0.61041 0.37925 0.26572 0.0
C1735 C 0.6266 0.37565 0.27721 0.0
C1736 C 0.64499 0.3745 0.26942 0.0
C1737 C 0.66009 0.37153 0.28506 0.0
C1738 C 0.67063 0.35211 0.28237 0.0
C1739 C 0.67445 0.38855 0.28561 0.0
C1740 C 0.64733 0.37127 0.30288 0.0
C1741 C 0.62805 0.37348 0.29803 0.0
C1742 C 0.61358 0.374 0.31206 0.0
C1743 C 0.61898 0.37251 0.33159 0.0
C1744 C 0.63871 0.37066 0.33694 0.0
C1745 C 0.65298 0.36984 0.32229 0.0
H1746 H 0.3633 0.90799 0.26083 0.0
H1747 H 0.37053 0.84972 0.28282 0.0
H1748 H 0.36825 0.83673 0.24951 0.0
H1749 H 0.32753 0.89635 0.22705 0.0
H1750 H 0.33542 0.9129 0.20847 0.0
H1751 H 0.34046 0.9181 0.23351 0.0
H1752 H 0.37707 0.92068 0.22599 0.0
H1753 H 0.37214 0.91579 0.20083 0.0
H1754 H 0.38914 0.90093 0.21391 0.0
H1755 H 0.36247 0.82986 0.21468 0.0
H1756 H 0.35422 0.82938 0.17993 0.0
H1757 H 0.34958 0.89203 0.18017 0.0
C1758 C 0.36506 0.89259 0.25842 0.0
C1759 C 0.36758 0.87978 0.27411 0.0
C1760 C 0.369 0.85966 0.27077 0.0
C1761 C 0.36766 0.8522 0.25197 0.0
C1762 C 0.36468 0.86509 0.23675 0.0
C1763 C 0.36347 0.88488 0.23969 0.0
C1764 C 0.35868 0.89533 0.22097 0.0
C1765 C 0.33937 0.90631 0.22261 0.0
C1766 C 0.37525 0.90899 0.21508 0.0
C1767 C 0.35705 0.8783 0.20718 0.0
C1768 C 0.36075 0.86104 0.21659 0.0
C1769 C 0.35974 0.84329 0.20708 0.0
C1770 C 0.35506 0.84315 0.18736 0.0
C1771 C 0.35128 0.86063 0.17732 0.0
C1772 C 0.3522 0.87842 0.18747 0.0
H1773 H 0.66756 0.61933 0.2645 0.0
H1774 H 0.60527 0.62714 0.26528 0.0
H1775 H 0.60602 0.63642 0.23068 0.0
H1776 H 0.67959 0.65798 0.23128 0.0
H1777 H 0.69802 0.64425 0.21891 0.0
H1778 H 0.69281 0.63942 0.24402 0.0
H1779 H 0.6864 0.60332 0.23589 0.0
H1780 H 0.69171 0.60804 0.2108 0.0
H1781 H 0.66892 0.59725 0.21748 0.0
H1782 H 0.61359 0.64501 0.19631 0.0
H1783 H 0.62677 0.64894 0.16338 0.0
H1784 H 0.68394 0.63356 0.18423 0.0
C1785 C 0.65413 0.6232 0.25739 0.0
C1786 C 0.63637 0.6228 0.2675 0.0
C1787 C 0.61901 0.62745 0.25771 0.0
C1788 C 0.61932 0.63281 0.23813 0.0
C1789 C 0.63708 0.6331 0.22855 0.0
C1790 C 0.65413 0.62813 0.23775 0.0
C1791 C 0.67106 0.62832 0.22378 0.0
C1792 C 0.68627 0.64339 0.22986 0.0
C1793 C 0.68005 0.60802 0.22188 0.0
C1794 C 0.66087 0.63429 0.20531 0.0
C1795 C 0.64132 0.63721 0.20847 0.0
C1796 C 0.62887 0.64279 0.19366 0.0
C1797 C 0.63653 0.64515 0.17503 0.0
C1798 C 0.65641 0.64172 0.17132 0.0
C1799 C 0.66871 0.63631 0.18672 0.0
H1800 H 0.249 0.38128 0.10941 0.0
H1801 H 0.2281 0.32224 0.10364 0.0
H1802 H 0.26134 0.31005 0.10795 0.0
H1803 H 0.29411 0.37419 0.08396 0.0
H1804 H 0.30766 0.38998 0.09973 0.0
H1805 H 0.28219 0.39409 0.09594 0.0
H1806 H 0.27645 0.39253 0.13299 0.0
H1807 H 0.30188 0.38827 0.13689 0.0
H1808 H 0.28425 0.37148 0.14631 0.0
H1809 H 0.29672 0.30415 0.11268 0.0
H1810 H 0.33217 0.30506 0.11747 0.0
H1811 H 0.33014 0.36772 0.12075 0.0
C1812 C 0.25142 0.36579 0.10898 0.0
C1813 C 0.23592 0.35272 0.1062 0.0
C1814 C 0.23971 0.33255 0.10579 0.0
C1815 C 0.25855 0.32547 0.10823 0.0
C1816 C 0.27346 0.33871 0.11112 0.0
C1817 C 0.27015 0.35844 0.1115 0.0
C1818 C 0.28877 0.36953 0.11493 0.0
C1819 C 0.29346 0.38272 0.09761 0.0
C1820 C 0.28777 0.38113 0.13391 0.0
C1821 C 0.30303 0.35293 0.11645 0.0
C1822 C 0.29388 0.33528 0.11414 0.0
C1823 C 0.30405 0.31787 0.11454 0.0
C1824 C 0.32415 0.31852 0.11721 0.0
C1825 C 0.33385 0.33642 0.11956 0.0
C1826 C 0.32306 0.35382 0.11932 0.0
H1827 H 0.23873 0.65066 0.38206 0.0
H1828 H 0.2478 0.5962 0.41208 0.0
H1829 H 0.28325 0.60073 0.40935 0.0
H1830 H 0.27787 0.64604 0.34845 0.0
H1831 H 0.28384 0.67144 0.34914 0.0
H1832 H 0.25933 0.66371 0.3535 0.0
H1833 H 0.2594 0.68163 0.38651 0.0
H1834 H 0.28388 0.68947 0.38221 0.0
H1835 H 0.27806 0.67627 0.40395 0.0
H1836 H 0.31818 0.61178 0.40324 0.0
H1837 H 0.34882 0.62826 0.39443 0.0
H1838 H 0.31579 0.67531 0.3691 0.0
C1839 C 0.24811 0.63964 0.38808 0.0
C1840 C 0.24046 0.62306 0.39726 0.0
C1841 C 0.25332 0.60902 0.40494 0.0
C1842 C 0.27348 0.61147 0.40346 0.0
C1843 C 0.28052 0.62802 0.39427 0.0
C1844 C 0.26816 0.64184 0.38674 0.0
C1845 C 0.27918 0.65842 0.37769 0.0
C1846 C 0.27479 0.65998 0.3559 0.0
C1847 C 0.27488 0.67757 0.38822 0.0
C1848 C 0.29972 0.6518 0.38122 0.0
C1849 C 0.30031 0.63426 0.3908 0.0
C1850 C 0.31785 0.62552 0.39572 0.0
C1851 C 0.33518 0.63501 0.39073 0.0
C1852 C 0.33483 0.65302 0.3809 0.0
C1853 C 0.31675 0.66139 0.37618 0.0
H1854 H 0.76269 0.83102 0.37943 0.0
H1855 H 0.76967 0.89144 0.36379 0.0
H1856 H 0.73526 0.89304 0.35431 0.0
H1857 H 0.72768 0.81787 0.3421 0.0
H1858 H 0.71361 0.80268 0.358 0.0
H1859 H 0.7392 0.8057 0.36211 0.0
H1860 H 0.73227 0.81719 0.39716 0.0
H1861 H 0.70668 0.81422 0.39315 0.0
H1862 H 0.71604 0.83725 0.40109 0.0
H1863 H 0.70041 0.88834 0.34668 0.0
H1864 H 0.6662 0.87843 0.34403 0.0
H1865 H 0.68076 0.82168 0.3666 0.0
C1866 C 0.75695 0.84446 0.37375 0.0
C1867 C 0.76877 0.86106 0.37211 0.0
C1868 C 0.76078 0.87857 0.36509 0.0
C1869 C 0.74131 0.8796 0.35961 0.0
C1870 C 0.72995 0.86306 0.36152 0.0
C1871 C 0.73736 0.84587 0.36863 0.0
C1872 C 0.72158 0.8307 0.37051 0.0
C1873 C 0.72577 0.8132 0.3574 0.0
C1874 C 0.719 0.82448 0.39174 0.0
C1875 C 0.70422 0.84207 0.36334 0.0
C1876 C 0.70948 0.86061 0.35798 0.0
C1877 C 0.69609 0.87385 0.35082 0.0
C1878 C 0.67673 0.86807 0.34926 0.0
C1879 C 0.67088 0.8493 0.35507 0.0
C1880 C 0.68485 0.83614 0.36216 0.0
H1881 H 0.17307 0.69019 0.63149 0.0
H1882 H 0.15958 0.6334 0.65459 0.0
H1883 H 0.19314 0.62284 0.6484 0.0
H1884 H 0.20463 0.67433 0.59352 0.0
H1885 H 0.22142 0.69414 0.59616 0.0
H1886 H 0.19635 0.69739 0.60254 0.0
H1887 H 0.20631 0.70839 0.637 0.0
H1888 H 0.23142 0.70534 0.63068 0.0
H1889 H 0.22162 0.69296 0.65146 0.0
H1890 H 0.22761 0.61785 0.63803 0.0
H1891 H 0.26177 0.61992 0.6276 0.0
H1892 H 0.25348 0.68041 0.6127 0.0
C1893 C 0.17727 0.67559 0.63532 0.0
C1894 C 0.16376 0.66264 0.6436 0.0
C1895 C 0.16976 0.64365 0.64852 0.0
C1896 C 0.18874 0.63746 0.64489 0.0
C1897 C 0.20163 0.6505 0.63651 0.0
C1898 C 0.19626 0.66925 0.63204 0.0
C1899 C 0.21308 0.68047 0.62353 0.0
C1900 C 0.2086 0.68696 0.6027 0.0
C1901 C 0.21843 0.69781 0.63644 0.0
C1902 C 0.22872 0.66508 0.62388 0.0
C1903 C 0.22173 0.64782 0.63118 0.0
C1904 C 0.2333 0.63134 0.63244 0.0
C1905 C 0.25265 0.63262 0.62639 0.0
C1906 C 0.26029 0.65034 0.61946 0.0
C1907 C 0.24808 0.66671 0.6181 0.0
H1908 H 0.88396 0.7606 0.66842 0.0
H1909 H 0.87133 0.76557 0.60706 0.0
H1910 H 0.86233 0.73102 0.60607 0.0
H1911 H 0.90569 0.71306 0.66509 0.0
H1912 H 0.89627 0.70491 0.68802 0.0
H1913 H 0.90107 0.73026 0.68418 0.0
H1914 H 0.86565 0.73843 0.69344 0.0
H1915 H 0.86073 0.7131 0.69727 0.0
H1916 H 0.84606 0.72686 0.68065 0.0
H1917 H 0.85382 0.6964 0.61176 0.0
H1918 H 0.84898 0.66288 0.62319 0.0
H1919 H 0.86887 0.67941 0.68039 0.0
C1920 C 0.87921 0.75439 0.65483 0.0
C1921 C 0.8782 0.76576 0.63784 0.0
C1922 C 0.87222 0.7571 0.62023 0.0
C1923 C 0.86702 0.73752 0.61954 0.0
C1924 C 0.86814 0.7267 0.63651 0.0
C1925 C 0.87431 0.73471 0.65378 0.0
C1926 C 0.87495 0.71957 0.66969 0.0
C1927 C 0.89573 0.71679 0.67718 0.0
C1928 C 0.86102 0.72481 0.68624 0.0
C1929 C 0.868 0.70188 0.65868 0.0
C1930 C 0.86398 0.70641 0.63961 0.0
C1931 C 0.85698 0.69265 0.62664 0.0
C1932 C 0.85416 0.6737 0.63328 0.0
C1933 C 0.85853 0.66859 0.65265 0.0
C1934 C 0.86556 0.68292 0.66548 0.0
H1935 H 0.10498 0.74714 0.66804 0.0
H1936 H 0.10794 0.74164 0.60549 0.0
H1937 H 0.11343 0.77686 0.60271 0.0
H1938 H 0.07928 0.79326 0.66806 0.0
H1939 H 0.09188 0.80228 0.68906 0.0
H1940 H 0.08804 0.77664 0.68617 0.0
H1941 H 0.12493 0.77069 0.68945 0.0
H1942 H 0.12889 0.7963 0.6923 0.0
H1943 H 0.14139 0.78319 0.67351 0.0
H1944 H 0.12062 0.81215 0.60679 0.0
H1945 H 0.12655 0.84584 0.61731 0.0
H1946 H 0.11703 0.82906 0.67701 0.0
C1947 C 0.10675 0.75336 0.65376 0.0
C1948 C 0.10616 0.74164 0.63697 0.0
C1949 C 0.10833 0.75035 0.61854 0.0
C1950 C 0.11149 0.77033 0.61681 0.0
C1951 C 0.11214 0.78144 0.63364 0.0
C1952 C 0.10958 0.77335 0.65175 0.0
C1953 C 0.11069 0.78863 0.66749 0.0
C1954 C 0.09132 0.7903 0.67833 0.0
C1955 C 0.12748 0.78445 0.68151 0.0
C1956 C 0.11462 0.80653 0.65542 0.0
C1957 C 0.1155 0.802 0.63593 0.0
C1958 C 0.11979 0.8159 0.62198 0.0
C1959 C 0.12324 0.83494 0.62808 0.0
C1960 C 0.12219 0.83997 0.64793 0.0
C1961 C 0.11768 0.82558 0.66173 0.0
H1962 H 0.86977 0.31705 0.86296 0.0
H1963 H 0.86794 0.32202 0.80042 0.0
H1964 H 0.87699 0.28748 0.79742 0.0
H1965 H 0.91116 0.28605 0.86483 0.0
H1966 H 0.9025 0.27199 0.88504 0.0
H1967 H 0.89512 0.29686 0.88235 0.0
H1968 H 0.85906 0.2865 0.8832 0.0
H1969 H 0.86632 0.26162 0.8861 0.0
H1970 H 0.85052 0.26838 0.86646 0.0
H1971 H 0.88642 0.25269 0.80128 0.0
H1972 H 0.89526 0.2197 0.81154 0.0
H1973 H 0.89173 0.23749 0.87177 0.0
C1974 C 0.87093 0.31075 0.84866 0.0
C1975 C 0.86797 0.32209 0.83188 0.0
C1976 C 0.87014 0.31351 0.8134 0.0
C1977 C 0.87526 0.29395 0.81158 0.0
C1978 C 0.87832 0.28325 0.8284 0.0
C1979 C 0.87624 0.29131 0.84659 0.0
C1980 C 0.88088 0.27675 0.86234 0.0
C1981 C 0.89846 0.28331 0.87434 0.0
C1982 C 0.86313 0.2731 0.87528 0.0
C1983 C 0.88568 0.25916 0.85016 0.0
C1984 C 0.88414 0.26325 0.83063 0.0
C1985 C 0.88768 0.24931 0.81652 0.0
C1986 C 0.89271 0.2306 0.82252 0.0
C1987 C 0.8942 0.22598 0.84247 0.0
C1988 C 0.8908 0.24057 0.85642 0.0
H1989 H 0.14675 0.19521 0.82744 0.0
H1990 H 0.11605 0.16614 0.8739 0.0
H1991 H 0.10818 0.19786 0.88845 0.0
H1992 H 0.16729 0.23377 0.85673 0.0
H1993 H 0.1645 0.25169 0.83796 0.0
H1994 H 0.16817 0.22665 0.83163 0.0
H1995 H 0.13669 0.22711 0.81119 0.0
H1996 H 0.13294 0.25213 0.81744 0.0
H1997 H 0.1143 0.23455 0.82235 0.0
H1998 H 0.10302 0.23307 0.89746 0.0
H1999 H 0.1003 0.2687 0.89964 0.0
H2000 H 0.13484 0.27433 0.8474 0.0
C2001 C 0.13863 0.19544 0.84083 0.0
C2002 C 0.13207 0.17812 0.84952 0.0
C2003 C 0.12108 0.17918 0.86684 0.0
C2004 C 0.11666 0.19714 0.87529 0.0
C2005 C 0.12334 0.21392 0.86629 0.0
C2006 C 0.13408 0.2132 0.84943 0.0
C2007 C 0.13903 0.2333 0.84225 0.0
C2008 C 0.16105 0.23654 0.84214 0.0
C2009 C 0.13021 0.23698 0.82212 0.0
C2010 C 0.12926 0.24548 0.85762 0.0
C2011 C 0.12037 0.23407 0.87143 0.0
C2012 C 0.11003 0.24214 0.88678 0.0
C2013 C 0.10859 0.2624 0.88791 0.0
C2014 C 0.1174 0.27435 0.87372 0.0
C2015 C 0.12801 0.26566 0.85854 0.0
H2016 H 0.63548 0.90558 0.75097 0.0
H2017 H 0.634 0.84637 0.77163 0.0
H2018 H 0.63628 0.83442 0.73789 0.0
H2019 H 0.60885 0.89839 0.70596 0.0
H2020 H 0.62406 0.91457 0.69224 0.0
H2021 H 0.62063 0.91846 0.7178 0.0
H2022 H 0.65776 0.91763 0.72294 0.0
H2023 H 0.66127 0.91372 0.6974 0.0
H2024 H 0.6714 0.89697 0.71466 0.0
H2025 H 0.63845 0.82897 0.7021 0.0
H2026 H 0.64377 0.83033 0.66661 0.0
H2027 H 0.64684 0.8929 0.66944 0.0
C2028 C 0.63542 0.89013 0.74824 0.0
C2029 C 0.63434 0.87678 0.76362 0.0
C2030 C 0.63472 0.85669 0.75983 0.0
C2031 C 0.63594 0.84981 0.74079 0.0
C2032 C 0.63711 0.86329 0.72582 0.0
C2033 C 0.63713 0.88302 0.72931 0.0
C2034 C 0.63999 0.89434 0.71073 0.0
C2035 C 0.62232 0.9072 0.70643 0.0
C2036 C 0.65872 0.90637 0.71148 0.0
C2037 C 0.64161 0.87788 0.69632 0.0
C2038 C 0.63956 0.86011 0.70528 0.0
C2039 C 0.64017 0.84279 0.69491 0.0
C2040 C 0.64312 0.84366 0.67484 0.0
C2041 C 0.64583 0.86167 0.66552 0.0
C2042 C 0.64502 0.87896 0.67639 0.0
H2043 H 0.31605 0.62795 0.68559 0.0
H2044 H 0.36236 0.6698 0.67902 0.0
H2045 H 0.375 0.66084 0.71131 0.0
H2046 H 0.30843 0.63555 0.73729 0.0
H2047 H 0.30349 0.61033 0.74187 0.0
H2048 H 0.2978 0.6207 0.71863 0.0
H2049 H 0.31865 0.5944 0.70184 0.0
H2050 H 0.32458 0.58407 0.72503 0.0
H2051 H 0.34363 0.59148 0.70881 0.0
H2052 H 0.38396 0.64546 0.74306 0.0
H2053 H 0.3866 0.62747 0.77381 0.0
H2054 H 0.33372 0.59635 0.76017 0.0
C2055 C 0.32876 0.63531 0.69104 0.0
C2056 C 0.33826 0.64956 0.67985 0.0
C2057 C 0.35476 0.65902 0.68748 0.0
C2058 C 0.36211 0.65391 0.70571 0.0
C2059 C 0.35266 0.63947 0.71617 0.0
C2060 C 0.33616 0.63052 0.70925 0.0
C2061 C 0.32872 0.61547 0.72336 0.0
C2062 C 0.30841 0.62084 0.73072 0.0
C2063 C 0.32892 0.59515 0.71421 0.0
C2064 C 0.34371 0.61722 0.73924 0.0
C2065 C 0.35749 0.63102 0.73472 0.0
C2066 C 0.37315 0.63477 0.74685 0.0
C2067 C 0.37458 0.62438 0.76423 0.0
C2068 C 0.36031 0.61057 0.76941 0.0
C2069 C 0.34475 0.60692 0.75666 0.0
H2070 H 0.67465 0.11701 0.81959 0.0
H2071 H 0.62995 0.15924 0.8315 0.0
H2072 H 0.61913 0.15752 0.79726 0.0
H2073 H 0.68724 0.13622 0.77282 0.0
H2074 H 0.69223 0.11288 0.76227 0.0
H2075 H 0.69553 0.11658 0.78787 0.0
H2076 H 0.67247 0.08788 0.79512 0.0
H2077 H 0.66913 0.08407 0.76953 0.0
H2078 H 0.64843 0.08787 0.78496 0.0
H2079 H 0.61241 0.14984 0.76215 0.0
H2080 H 0.61256 0.1398 0.72769 0.0
H2081 H 0.66398 0.10535 0.73787 0.0
C2082 C 0.66251 0.12573 0.8149 0.0
C2083 C 0.65288 0.13808 0.82802 0.0
C2084 C 0.63734 0.14968 0.82152 0.0
C2085 C 0.63112 0.14872 0.80219 0.0
C2086 C 0.64092 0.1364 0.78954 0.0
C2087 C 0.65648 0.12534 0.79555 0.0
C2088 C 0.66522 0.11413 0.77883 0.0
C2089 C 0.6863 0.12033 0.77524 0.0
C2090 C 0.66371 0.09219 0.78232 0.0
C2091 C 0.6521 0.12055 0.76247 0.0
C2092 C 0.63795 0.13311 0.76903 0.0
C2093 C 0.62357 0.14023 0.7568 0.0
C2094 C 0.62373 0.13445 0.73732 0.0
C2095 C 0.63845 0.12211 0.73023 0.0
C2096 C 0.65282 0.11512 0.74294 0.0
H2097 H 0.32439 0.35702 0.80404 0.0
H2098 H 0.36009 0.39953 0.8333 0.0
H2099 H 0.37266 0.41077 0.80169 0.0
H2100 H 0.35801 0.34466 0.76644 0.0
H2101 H 0.33969 0.34241 0.74799 0.0
H2102 H 0.33371 0.33767 0.77293 0.0
H2103 H 0.30617 0.36311 0.77131 0.0
H2104 H 0.31201 0.36788 0.74635 0.0
H2105 H 0.31162 0.38745 0.76362 0.0
H2106 H 0.3823 0.41633 0.76677 0.0
H2107 H 0.3861 0.41771 0.73118 0.0
H2108 H 0.3428 0.37262 0.7249 0.0
C2109 C 0.33491 0.36863 0.80375 0.0
C2110 C 0.34134 0.37738 0.82105 0.0
C2111 C 0.35489 0.39276 0.82016 0.0
C2112 C 0.36218 0.39914 0.8023 0.0
C2113 C 0.35561 0.39012 0.78549 0.0
C2114 C 0.34211 0.37535 0.78606 0.0
C2115 C 0.33697 0.36845 0.76591 0.0
C2116 C 0.34243 0.34703 0.76316 0.0
C2117 C 0.31542 0.37194 0.76154 0.0
C2118 C 0.34978 0.38155 0.75391 0.0
C2119 C 0.36058 0.39382 0.76545 0.0
C2120 C 0.37382 0.40688 0.75759 0.0
C2121 C 0.37593 0.40752 0.73738 0.0
C2122 C 0.36463 0.39537 0.72532 0.0
C2123 C 0.35146 0.38222 0.73376 0.0
H2124 H 0.75521 0.66329 0.88394 0.0
H2125 H 0.75719 0.60072 0.88974 0.0
H2126 H 0.72182 0.59917 0.88504 0.0
H2127 H 0.71115 0.66966 0.91023 0.0
H2128 H 0.70244 0.68913 0.8952 0.0
H2129 H 0.72807 0.68529 0.89796 0.0
H2130 H 0.73179 0.68278 0.86069 0.0
H2131 H 0.70615 0.68659 0.85783 0.0
H2132 H 0.71741 0.66543 0.8475 0.0
H2133 H 0.68631 0.60436 0.88018 0.0
H2134 H 0.65273 0.61609 0.87723 0.0
H2135 H 0.67358 0.67532 0.87521 0.0
C2136 C 0.74822 0.64925 0.88403 0.0
C2137 C 0.75896 0.63211 0.88708 0.0
C2138 C 0.74925 0.61404 0.88741 0.0
C2139 C 0.72917 0.613 0.88469 0.0
C2140 C 0.719 0.63016 0.88179 0.0
C2141 C 0.72815 0.64796 0.88156 0.0
C2142 C 0.71369 0.66427 0.87902 0.0
C2143 C 0.71385 0.67789 0.89666 0.0
C2144 C 0.71749 0.67542 0.86014 0.0
C2145 C 0.695 0.65284 0.87793 0.0
C2146 C 0.69843 0.63319 0.87939 0.0
C2147 C 0.68344 0.61972 0.87893 0.0
C2148 C 0.66442 0.62651 0.87712 0.0
C2149 C 0.66051 0.64662 0.87591 0.0
C2150 C 0.67609 0.65989 0.87621 0.0
H2151 H 0.75755 0.38183 0.64594 0.0
H2152 H 0.76126 0.37335 0.58372 0.0
H2153 H 0.72798 0.3607 0.58344 0.0
H2154 H 0.73061 0.33941 0.65647 0.0
H2155 H 0.71562 0.35036 0.67481 0.0
H2156 H 0.73957 0.35964 0.67032 0.0
H2157 H 0.72547 0.39385 0.66419 0.0
H2158 H 0.70149 0.38474 0.66889 0.0
H2159 H 0.70662 0.39695 0.64641 0.0
H2160 H 0.69537 0.34737 0.58982 0.0
H2161 H 0.66382 0.33669 0.60202 0.0
H2162 H 0.68009 0.3542 0.66017 0.0
C2163 C 0.75125 0.37758 0.63223 0.0
C2164 C 0.76211 0.37841 0.61487 0.0
C2165 C 0.75336 0.37261 0.59724 0.0
C2166 C 0.73443 0.36543 0.59691 0.0
C2167 C 0.72434 0.36428 0.61431 0.0
C2168 C 0.73227 0.37041 0.63161 0.0
C2169 C 0.71818 0.36744 0.64822 0.0
C2170 C 0.7265 0.35337 0.66334 0.0
C2171 C 0.71261 0.38691 0.65747 0.0
C2172 C 0.70121 0.35851 0.63751 0.0
C2173 C 0.7052 0.35676 0.61799 0.0
C2174 C 0.69204 0.34868 0.60508 0.0
C2175 C 0.67417 0.34245 0.61224 0.0
C2176 C 0.66946 0.34441 0.63215 0.0
C2177 C 0.68327 0.35251 0.64492 0.0
H2178 H 0.32253 0.18616 0.62857 0.0
H2179 H 0.33893 0.12629 0.63847 0.0
H2180 H 0.30492 0.11635 0.63463 0.0
H2181 H 0.2758 0.18407 0.65307 0.0
H2182 H 0.26418 0.19968 0.63569 0.0
H2183 H 0.28969 0.20224 0.64049 0.0
H2184 H 0.29698 0.19787 0.60394 0.0
H2185 H 0.27152 0.19515 0.59903 0.0
H2186 H 0.28828 0.17658 0.59159 0.0
H2187 H 0.26956 0.11253 0.62736 0.0
H2188 H 0.2349 0.11538 0.61927 0.0
H2189 H 0.24133 0.17773 0.61412 0.0
C2190 C 0.31898 0.17097 0.63005 0.0
C2191 C 0.33351 0.15705 0.63389 0.0
C2192 C 0.32813 0.13732 0.63586 0.0
C2193 C 0.30883 0.13149 0.63354 0.0
C2194 C 0.295 0.14554 0.62936 0.0
C2195 C 0.29977 0.16489 0.6278 0.0
C2196 C 0.28219 0.17702 0.62277 0.0
C2197 C 0.2777 0.19161 0.63897 0.0
C2198 C 0.28491 0.18725 0.60317 0.0
C2199 C 0.26682 0.16141 0.62157 0.0
C2200 C 0.27453 0.14335 0.62537 0.0
C2201 C 0.26332 0.12661 0.62454 0.0
C2202 C 0.24364 0.12839 0.61986 0.0
C2203 C 0.23534 0.14679 0.61615 0.0
C2204 C 0.24718 0.16348 0.61702 0.0
H2205 H 0.7364 0.37155 0.39974 0.0
H2206 H 0.70694 0.33478 0.35813 0.0
H2207 H 0.73834 0.32168 0.34737 0.0
H2208 H 0.77822 0.38244 0.37065 0.0
H2209 H 0.79507 0.38125 0.39054 0.0
H2210 H 0.77029 0.38811 0.39488 0.0
H2211 H 0.767 0.36062 0.42012 0.0
H2212 H 0.79176 0.35363 0.41588 0.0
H2213 H 0.77263 0.33609 0.4132 0.0
H2214 H 0.77262 0.31338 0.34022 0.0
H2215 H 0.80804 0.30861 0.33871 0.0
H2216 H 0.81557 0.34919 0.38601 0.0
C2217 C 0.73663 0.36079 0.38833 0.0
C2218 C 0.71929 0.35421 0.37968 0.0
C2219 C 0.72007 0.33995 0.36498 0.0
C2220 C 0.73782 0.33246 0.35873 0.0
C2221 C 0.75466 0.33919 0.36752 0.0
C2222 C 0.75426 0.35286 0.38214 0.0
C2223 C 0.77452 0.35713 0.38948 0.0
C2224 C 0.77983 0.3785 0.38618 0.0
C2225 C 0.77659 0.35153 0.41094 0.0
C2226 C 0.7863 0.34385 0.37654 0.0
C2227 C 0.77453 0.33378 0.36389 0.0
C2228 C 0.78201 0.32108 0.35012 0.0
C2229 C 0.80211 0.31854 0.34928 0.0
C2230 C 0.81446 0.32847 0.36227 0.0
C2231 C 0.80641 0.34124 0.3761 0.0
H2232 H 0.61708 0.74632 0.88357 0.0
H2233 H 0.63054 0.72134 0.82744 0.0
H2234 H 0.63682 0.75404 0.81446 0.0
H2235 H 0.59246 0.78775 0.86615 0.0
H2236 H 0.60175 0.80378 0.88453 0.0
H2237 H 0.59907 0.77835 0.88957 0.0
H2238 H 0.63534 0.77632 0.89902 0.0
H2239 H 0.63814 0.80177 0.89402 0.0
H2240 H 0.6535 0.78437 0.88208 0.0
H2241 H 0.63912 0.78963 0.80696 0.0
H2242 H 0.63944 0.82553 0.8062 0.0
H2243 H 0.62614 0.82702 0.86745 0.0
C2244 C 0.62152 0.74769 0.86859 0.0
C2245 C 0.62331 0.73126 0.85651 0.0
C2246 C 0.62913 0.7337 0.83699 0.0
C2247 C 0.6327 0.75222 0.82947 0.0
C2248 C 0.63058 0.76811 0.84171 0.0
C2249 C 0.62532 0.76602 0.8609 0.0
C2250 C 0.62379 0.78545 0.87093 0.0
C2251 C 0.60304 0.78904 0.87822 0.0
C2252 C 0.63858 0.78707 0.88749 0.0
C2253 C 0.62888 0.79882 0.85434 0.0
C2254 C 0.63261 0.78855 0.83756 0.0
C2255 C 0.63652 0.79781 0.82006 0.0
C2256 C 0.63662 0.81812 0.81972 0.0
C2257 C 0.63311 0.82885 0.83681 0.0
C2258 C 0.62932 0.81906 0.85432 0.0
H2259 H 0.34678 0.67896 0.84849 0.0
H2260 H 0.40592 0.66033 0.85976 0.0
H2261 H 0.41407 0.69315 0.87038 0.0
H2262 H 0.35795 0.72535 0.83038 0.0
H2263 H 0.33759 0.73712 0.84169 0.0
H2264 H 0.33611 0.71191 0.83524 0.0
H2265 H 0.32735 0.70318 0.87068 0.0
H2266 H 0.32869 0.72839 0.87722 0.0
H2267 H 0.34309 0.71082 0.89005 0.0
H2268 H 0.41645 0.72859 0.87812 0.0
H2269 H 0.41204 0.76351 0.8845 0.0
H2270 H 0.35114 0.75843 0.86987 0.0
C2271 C 0.36141 0.68148 0.85336 0.0
C2272 C 0.37564 0.66672 0.85296 0.0
C2273 C 0.39465 0.67115 0.85949 0.0
C2274 C 0.39949 0.68985 0.8657 0.0
C2275 C 0.38517 0.704 0.86556 0.0
C2276 C 0.36647 0.69999 0.85978 0.0
C2277 C 0.35376 0.71781 0.86096 0.0
C2278 C 0.3459 0.72337 0.84087 0.0
C2279 C 0.33725 0.71487 0.8756 0.0
C2280 C 0.36831 0.7325 0.86817 0.0
C2281 C 0.38638 0.72427 0.87063 0.0
C2282 C 0.40233 0.73516 0.87644 0.0
C2283 C 0.3997 0.75498 0.87996 0.0
C2284 C 0.38123 0.76361 0.87781 0.0
C2285 C 0.36537 0.75217 0.87187 0.0
H2286 H 0.62722 0.18068 0.6747 0.0
H2287 H 0.64629 0.16436 0.61719 0.0
H2288 H 0.64082 0.19786 0.60581 0.0
H2289 H 0.58974 0.21349 0.66014 0.0
H2290 H 0.5944 0.23059 0.67929 0.0
H2291 H 0.59973 0.20531 0.68281 0.0
H2292 H 0.63524 0.21385 0.69146 0.0
H2293 H 0.63 0.23917 0.68807 0.0
H2294 H 0.64946 0.228 0.67475 0.0
H2295 H 0.63164 0.23295 0.60041 0.0
H2296 H 0.62273 0.26767 0.60231 0.0
H2297 H 0.61145 0.26124 0.66376 0.0
C2298 C 0.63024 0.18421 0.65973 0.0
C2299 C 0.63719 0.16998 0.64681 0.0
C2300 C 0.64118 0.17513 0.62736 0.0
C2301 C 0.63797 0.19406 0.62074 0.0
C2302 C 0.63097 0.20774 0.63382 0.0
C2303 C 0.6274 0.2031 0.65297 0.0
C2304 C 0.62043 0.22058 0.66421 0.0
C2305 C 0.59985 0.21729 0.67207 0.0
C2306 C 0.63464 0.2257 0.68059 0.0
C2307 C 0.62062 0.23575 0.6484 0.0
C2308 C 0.62647 0.22803 0.6309 0.0
C2309 C 0.6272 0.2392 0.61408 0.0
C2310 C 0.62206 0.25885 0.61526 0.0
C2311 C 0.6166 0.26712 0.63319 0.0
C2312 C 0.61581 0.25535 0.6499 0.0
H2313 H 0.38474 0.25151 0.61518 0.0
H2314 H 0.37353 0.23124 0.67366 0.0
H2315 H 0.36631 0.26462 0.68386 0.0
H2316 H 0.40778 0.29617 0.62872 0.0
H2317 H 0.39733 0.30987 0.60914 0.0
H2318 H 0.40152 0.28429 0.60633 0.0
H2319 H 0.36535 0.27933 0.59761 0.0
H2320 H 0.36104 0.30489 0.60051 0.0
H2321 H 0.34692 0.28767 0.61411 0.0
H2322 H 0.36168 0.30023 0.68824 0.0
H2323 H 0.35894 0.33593 0.686 0.0
H2324 H 0.37172 0.33311 0.62467 0.0
C2325 C 0.38072 0.25409 0.63011 0.0
C2326 C 0.37972 0.23872 0.6436 0.0
C2327 C 0.37439 0.24273 0.66302 0.0
C2328 C 0.37026 0.26166 0.66899 0.0
C2329 C 0.37138 0.27645 0.65537 0.0
C2330 C 0.37641 0.27292 0.63632 0.0
C2331 C 0.37662 0.2915 0.62464 0.0
C2332 C 0.39703 0.2957 0.61675 0.0
C2333 C 0.36158 0.2908 0.60825 0.0
C2334 C 0.37092 0.30599 0.64012 0.0
C2335 C 0.3681 0.297 0.65777 0.0
C2336 C 0.36364 0.30743 0.67446 0.0
C2337 C 0.36212 0.32762 0.67309 0.0
C2338 C 0.36481 0.33709 0.65515 0.0
C2339 C 0.36912 0.3261 0.63845 0.0
H2340 H 0.86923 0.61341 0.74396 0.0
H2341 H 0.80943 0.60912 0.72502 0.0
H2342 H 0.79843 0.61541 0.75839 0.0
H2343 H 0.86263 0.5903 0.79019 0.0
H2344 H 0.87938 0.60598 0.80263 0.0
H2345 H 0.88256 0.60106 0.77722 0.0
H2346 H 0.88213 0.63789 0.77005 0.0
H2347 H 0.87885 0.64292 0.79543 0.0
H2348 H 0.86185 0.65228 0.77798 0.0
H2349 H 0.79381 0.62141 0.79393 0.0
H2350 H 0.79606 0.62745 0.82918 0.0
H2351 H 0.85865 0.62879 0.82494 0.0
C2352 C 0.85382 0.61379 0.74682 0.0
C2353 C 0.8402 0.61076 0.73183 0.0
C2354 C 0.82016 0.61142 0.73622 0.0
C2355 C 0.81375 0.61498 0.75514 0.0
C2356 C 0.82753 0.61795 0.76955 0.0
C2357 C 0.84714 0.61746 0.76563 0.0
C2358 C 0.85891 0.62119 0.78378 0.0
C2359 C 0.87162 0.60358 0.78875 0.0
C2360 C 0.87115 0.63967 0.78168 0.0
C2361 C 0.84284 0.62388 0.79849 0.0
C2362 C 0.82485 0.62185 0.78999 0.0
C2363 C 0.80782 0.62314 0.80073 0.0
C2364 C 0.80921 0.62652 0.82071 0.0
C2365 C 0.82748 0.62874 0.82972 0.0
C2366 C 0.84448 0.62752 0.81837 0.0
H2367 H 0.12925 0.8969 0.82392 0.0
H2368 H 0.1907 0.88431 0.82599 0.0
H2369 H 0.19173 0.88321 0.79026 0.0
H2370 H 0.11764 0.86645 0.78326 0.0
H2371 H 0.10048 0.88315 0.7729 0.0
H2372 H 0.10447 0.88289 0.79868 0.0
H2373 H 0.11268 0.91952 0.79788 0.0
H2374 H 0.10864 0.91987 0.77212 0.0
H2375 H 0.1314 0.9281 0.78185 0.0
H2376 H 0.18602 0.88283 0.75455 0.0
H2377 H 0.17448 0.88518 0.72088 0.0
H2378 H 0.11668 0.89864 0.74172 0.0
C2379 C 0.14287 0.89385 0.8168 0.0
C2380 C 0.15992 0.8907 0.82767 0.0
C2381 C 0.17755 0.88699 0.8179 0.0
C2382 C 0.17824 0.88621 0.79764 0.0
C2383 C 0.16118 0.88934 0.78735 0.0
C2384 C 0.14385 0.89326 0.79654 0.0
C2385 C 0.12774 0.89654 0.78199 0.0
C2386 C 0.11163 0.88135 0.78435 0.0
C2387 C 0.11965 0.91724 0.78356 0.0
C2388 C 0.13872 0.89367 0.7632 0.0
C2389 C 0.15796 0.88945 0.76666 0.0
C2390 C 0.171 0.88618 0.75164 0.0
C2391 C 0.16427 0.8875 0.73255 0.0
C2392 C 0.14468 0.89216 0.72861 0.0
C2393 C 0.13175 0.89512 0.74422 0.0
H2394 H 0.8335 0.36816 0.76526 0.0
H2395 H 0.88773 0.3998 0.76175 0.0
H2396 H 0.88738 0.39629 0.72616 0.0
H2397 H 0.84378 0.33402 0.72736 0.0
H2398 H 0.81929 0.33373 0.71835 0.0
H2399 H 0.82384 0.33866 0.74356 0.0
H2400 H 0.805 0.37101 0.74082 0.0
H2401 H 0.80028 0.36611 0.71566 0.0
H2402 H 0.81195 0.38839 0.72263 0.0
H2403 H 0.88089 0.38956 0.69088 0.0
H2404 H 0.86836 0.38073 0.65856 0.0
H2405 H 0.81843 0.35366 0.6854 0.0
C2406 C 0.84531 0.37439 0.75703 0.0
C2407 C 0.86064 0.38425 0.76629 0.0
C2408 C 0.87583 0.39215 0.75497 0.0
C2409 C 0.87578 0.39021 0.73476 0.0
C2410 C 0.86048 0.3803 0.72611 0.0
C2411 C 0.84551 0.37256 0.73689 0.0
C2412 C 0.83067 0.36277 0.72409 0.0
C2413 C 0.82933 0.341 0.72861 0.0
C2414 C 0.81081 0.37267 0.72591 0.0
C2415 C 0.83959 0.36627 0.70439 0.0
C2416 C 0.85679 0.37637 0.70586 0.0
C2417 C 0.86744 0.38163 0.68956 0.0
C2418 C 0.86018 0.37661 0.67127 0.0
C2419 C 0.84244 0.36647 0.66943 0.0
C2420 C 0.83218 0.3611 0.68629 0.0
H2421 H 0.15242 0.08836 0.75532 0.0
H2422 H 0.11436 0.13363 0.77621 0.0
H2423 H 0.1119 0.14688 0.74296 0.0
H2424 H 0.17941 0.1144 0.72435 0.0
H2425 H 0.18104 0.09663 0.70528 0.0
H2426 H 0.17713 0.08897 0.72981 0.0
H2427 H 0.14681 0.07042 0.71875 0.0
H2428 H 0.14923 0.07884 0.69411 0.0
H2429 H 0.12719 0.08319 0.70722 0.0
H2430 H 0.1186 0.15832 0.70886 0.0
H2431 H 0.13103 0.16501 0.67594 0.0
H2432 H 0.16368 0.11141 0.67754 0.0
C2433 C 0.14311 0.10071 0.75271 0.0
C2434 C 0.13356 0.11003 0.76813 0.0
C2435 C 0.12157 0.12621 0.76442 0.0
C2436 C 0.12015 0.13384 0.74563 0.0
C2437 C 0.13037 0.12473 0.73078 0.0
C2438 C 0.14118 0.10819 0.73404 0.0
C2439 C 0.15155 0.10168 0.71589 0.0
C2440 C 0.17358 0.10037 0.71903 0.0
C2441 C 0.14321 0.08237 0.70859 0.0
C2442 C 0.14625 0.11803 0.70238 0.0
C2443 C 0.13373 0.13101 0.71104 0.0
C2444 C 0.12806 0.14803 0.70178 0.0
C2445 C 0.13536 0.15181 0.68319 0.0
C2446 C 0.14824 0.13868 0.67412 0.0
C2447 C 0.15352 0.12151 0.68386 0.0
H2448 H 0.73734 0.87692 0.61775 0.0
H2449 H 0.71591 0.81826 0.62501 0.0
H2450 H 0.74912 0.80694 0.63157 0.0
H2451 H 0.78152 0.86456 0.59397 0.0
H2452 H 0.79557 0.88305 0.60587 0.0
H2453 H 0.77004 0.88659 0.60198 0.0
H2454 H 0.7652 0.89255 0.63873 0.0
H2455 H 0.79072 0.88902 0.64273 0.0
H2456 H 0.77336 0.8746 0.65582 0.0
H2457 H 0.78497 0.80164 0.63554 0.0
H2458 H 0.82071 0.80335 0.63869 0.0
H2459 H 0.81842 0.86549 0.63044 0.0
C2460 C 0.73961 0.86171 0.62081 0.0
C2461 C 0.72401 0.84848 0.62084 0.0
C2462 C 0.72761 0.8287 0.62495 0.0
C2463 C 0.74644 0.8221 0.62866 0.0
C2464 C 0.7615 0.83549 0.6284 0.0
C2465 C 0.75829 0.8549 0.62475 0.0
C2466 C 0.777 0.8663 0.62538 0.0
C2467 C 0.78128 0.87567 0.60563 0.0
C2468 C 0.77654 0.88151 0.64164 0.0
C2469 C 0.79124 0.85024 0.62986 0.0
C2470 C 0.78204 0.83254 0.63139 0.0
C2471 C 0.79231 0.81545 0.6346 0.0
C2472 C 0.81253 0.81652 0.63631 0.0
C2473 C 0.82216 0.83455 0.63509 0.0
C2474 C 0.81133 0.85159 0.63188 0.0
H2475 H 0.81888 0.15059 0.84289 0.0
H2476 H 0.83611 0.1555 0.90322 0.0
H2477 H 0.80288 0.14813 0.91331 0.0
H2478 H 0.77119 0.171 0.84803 0.0
H2479 H 0.76016 0.15438 0.83119 0.0
H2480 H 0.78527 0.16088 0.82851 0.0
H2481 H 0.79487 0.12461 0.82956 0.0
H2482 H 0.7698 0.11801 0.83221 0.0
H2483 H 0.78732 0.10994 0.84978 0.0
H2484 H 0.76787 0.13986 0.9171 0.0
H2485 H 0.7336 0.13034 0.91416 0.0
H2486 H 0.73933 0.12941 0.85152 0.0
C2487 C 0.81576 0.15006 0.85822 0.0
C2488 C 0.83025 0.15389 0.87217 0.0
C2489 C 0.82535 0.15312 0.89212 0.0
C2490 C 0.80646 0.14878 0.89807 0.0
C2491 C 0.7926 0.14512 0.88394 0.0
C2492 C 0.797 0.14562 0.86444 0.0
C2493 C 0.77948 0.14062 0.85223 0.0
C2494 C 0.77369 0.15774 0.83923 0.0
C2495 C 0.78309 0.1222 0.84025 0.0
C2496 C 0.7646 0.13716 0.86796 0.0
C2497 C 0.77245 0.13994 0.88614 0.0
C2498 C 0.76154 0.13763 0.90294 0.0
C2499 C 0.74208 0.13222 0.90111 0.0
C2500 C 0.73378 0.12906 0.88261 0.0
C2501 C 0.74525 0.13164 0.86586 0.0
H2502 H 0.25499 0.33533 0.88818 0.0
H2503 H 0.26353 0.39738 0.88321 0.0
H2504 H 0.22829 0.40169 0.87806 0.0
H2505 H 0.2189 0.33028 0.85236 0.0
H2506 H 0.20507 0.31246 0.8655 0.0
H2507 H 0.23078 0.31437 0.86931 0.0
H2508 H 0.22518 0.31917 0.90612 0.0
H2509 H 0.19944 0.31712 0.90245 0.0
H2510 H 0.20928 0.33818 0.91432 0.0
H2511 H 0.19244 0.39873 0.87114 0.0
H2512 H 0.15826 0.38919 0.86625 0.0
H2513 H 0.17327 0.3293 0.87738 0.0
C2514 C 0.24945 0.34985 0.8861 0.0
C2515 C 0.26195 0.36603 0.88593 0.0
C2516 C 0.25415 0.38481 0.88339 0.0
C2517 C 0.2342 0.38738 0.8804 0.0
C2518 C 0.22231 0.37104 0.88032 0.0
C2519 C 0.22962 0.35268 0.88342 0.0
C2520 C 0.21381 0.33752 0.88288 0.0
C2521 C 0.21736 0.3228 0.86654 0.0
C2522 C 0.21181 0.3274 0.90262 0.0
C2523 C 0.19646 0.35015 0.87861 0.0
C2524 C 0.20166 0.36943 0.87708 0.0
C2525 C 0.18819 0.38371 0.87248 0.0
C2526 C 0.16887 0.37815 0.86958 0.0
C2527 C 0.16321 0.35853 0.87146 0.0
C2528 C 0.17722 0.34441 0.87606 0.0
H2529 H 0.75326 0.09436 0.12296 0.0
H2530 H 0.7779 0.13956 0.08693 0.0
H2531 H 0.74904 0.15985 0.09266 0.0
H2532 H 0.70435 0.10009 0.10789 0.0
H2533 H 0.69425 0.09573 0.13156 0.0
H2534 H 0.71707 0.085 0.12497 0.0
H2535 H 0.73318 0.10071 0.155 0.0
H2536 H 0.71041 0.11154 0.16167 0.0
H2537 H 0.73152 0.12654 0.15844 0.0
H2538 H 0.71668 0.17437 0.10077 0.0
H2539 H 0.6836 0.18262 0.11183 0.0
H2540 H 0.6807 0.12863 0.14362 0.0
C2541 C 0.7526 0.10854 0.11631 0.0
C2542 C 0.76783 0.1154 0.1045 0.0
C2543 C 0.76648 0.13408 0.09615 0.0
C2544 C 0.75012 0.14569 0.09928 0.0
C2545 C 0.73536 0.13848 0.11098 0.0
C2546 C 0.7365 0.12041 0.11948 0.0
C2547 C 0.71861 0.11605 0.13138 0.0
C2548 C 0.70794 0.09816 0.12347 0.0
C2549 C 0.72374 0.11357 0.1529 0.0
C2550 C 0.70709 0.13439 0.12801 0.0
C2551 C 0.71698 0.14712 0.11615 0.0
C2552 C 0.70888 0.16461 0.11022 0.0
C2553 C 0.69011 0.16915 0.11649 0.0
C2554 C 0.67976 0.15633 0.12868 0.0
C2555 C 0.68848 0.13884 0.13464 0.0
H2556 H 0.37153 0.26579 0.14889 0.0
H2557 H 0.4119 0.25964 0.10108 0.0
H2558 H 0.41092 0.22407 0.10494 0.0
H2559 H 0.39075 0.22806 0.17815 0.0
H2560 H 0.36747 0.22014 0.18689 0.0
H2561 H 0.37099 0.24501 0.17994 0.0
H2562 H 0.34228 0.24243 0.1559 0.0
H2563 H 0.33867 0.21753 0.16278 0.0
H2564 H 0.34241 0.22371 0.1377 0.0
H2565 H 0.40642 0.18911 0.11501 0.0
H2566 H 0.39811 0.15762 0.12992 0.0
H2567 H 0.36052 0.18699 0.17076 0.0
C2568 C 0.38013 0.25699 0.13916 0.0
C2569 C 0.3918 0.2655 0.12469 0.0
C2570 C 0.40279 0.25344 0.11224 0.0
C2571 C 0.40234 0.23323 0.11433 0.0
C2572 C 0.39074 0.22532 0.12883 0.0
C2573 C 0.37976 0.23684 0.14096 0.0
C2574 C 0.36866 0.22483 0.15554 0.0
C2575 C 0.37485 0.22981 0.17636 0.0
C2576 C 0.3467 0.22727 0.15281 0.0
C2577 C 0.37522 0.20473 0.14983 0.0
C2578 C 0.38796 0.20528 0.13442 0.0
C2579 C 0.39638 0.1885 0.12702 0.0
C2580 C 0.39165 0.17071 0.13563 0.0
C2581 C 0.37859 0.16983 0.15144 0.0
C2582 C 0.37026 0.18712 0.15849 0.0
H2583 H 0.61792 0.2385 0.17229 0.0
H2584 H 0.62932 0.2332 0.11072 0.0
H2585 H 0.63918 0.26754 0.10959 0.0
H2586 H 0.59732 0.28661 0.16926 0.0
H2587 H 0.60725 0.29441 0.1921 0.0
H2588 H 0.60171 0.26922 0.18823 0.0
H2589 H 0.63703 0.26013 0.19706 0.0
H2590 H 0.6427 0.28532 0.20082 0.0
H2591 H 0.65676 0.27116 0.18399 0.0
H2592 H 0.64864 0.30196 0.1152 0.0
H2593 H 0.65392 0.33543 0.12643 0.0
H2594 H 0.63478 0.31929 0.18401 0.0
C2595 C 0.62257 0.24458 0.15861 0.0
C2596 C 0.62302 0.23319 0.14161 0.0
C2597 C 0.62886 0.24169 0.1239 0.0
C2598 C 0.63457 0.26115 0.12313 0.0
C2599 C 0.63407 0.27197 0.14014 0.0
C2600 C 0.62795 0.26412 0.1575 0.0
C2601 C 0.62793 0.27924 0.17344 0.0
C2602 C 0.60733 0.28256 0.18121 0.0
C2603 C 0.64194 0.27362 0.18979 0.0
C2604 C 0.63519 0.29673 0.16236 0.0
C2605 C 0.63883 0.29213 0.14323 0.0
C2606 C 0.64583 0.30576 0.13014 0.0
C2607 C 0.64895 0.32469 0.1367 0.0
C2608 C 0.64489 0.32991 0.15612 0.0
C2609 C 0.63798 0.31568 0.1691 0.0
H2610 H 0.39181 0.74368 0.38492 0.0
H2611 H 0.4218 0.7316 0.331 0.0
H2612 H 0.41575 0.76496 0.32007 0.0
H2613 H 0.35468 0.77184 0.3647 0.0
H2614 H 0.35335 0.78919 0.38416 0.0
H2615 H 0.36157 0.76491 0.3889 0.0
H2616 H 0.39346 0.77822 0.4035 0.0
H2617 H 0.38521 0.80257 0.39906 0.0
H2618 H 0.40814 0.79462 0.38946 0.0
H2619 H 0.40435 0.79832 0.31367 0.0
H2620 H 0.38993 0.83091 0.31304 0.0
H2621 H 0.36749 0.82207 0.3711 0.0
C2622 C 0.39747 0.74823 0.37102 0.0
C2623 C 0.40727 0.73507 0.3588 0.0
C2624 C 0.41419 0.74143 0.34057 0.0
C2625 C 0.41085 0.76035 0.33422 0.0
C2626 C 0.4006 0.77278 0.34628 0.0
C2627 C 0.39417 0.76713 0.36438 0.0
C2628 C 0.38281 0.78324 0.37405 0.0
C2629 C 0.36186 0.77691 0.37819 0.0
C2630 C 0.39302 0.79007 0.39262 0.0
C2631 C 0.38357 0.79861 0.35839 0.0
C2632 C 0.39399 0.79225 0.34256 0.0
C2633 C 0.39638 0.8036 0.32608 0.0
C2634 C 0.38816 0.82211 0.32588 0.0
C2635 C 0.37768 0.82915 0.34205 0.0
C2636 C 0.37526 0.8171 0.35845 0.0
H2637 H 0.61181 0.76229 0.3733 0.0
H2638 H 0.60387 0.77884 0.31316 0.0
H2639 H 0.60781 0.74477 0.30327 0.0
H2640 H 0.64852 0.72682 0.36478 0.0
H2641 H 0.63994 0.71041 0.38317 0.0
H2642 H 0.63584 0.73604 0.38565 0.0
H2643 H 0.59896 0.72998 0.38899 0.0
H2644 H 0.60295 0.70431 0.3866 0.0
H2645 H 0.58646 0.7165 0.37047 0.0
H2646 H 0.61274 0.70893 0.29981 0.0
H2647 H 0.61921 0.67388 0.30306 0.0
H2648 H 0.62446 0.68069 0.36527 0.0
C2649 C 0.61082 0.75876 0.35806 0.0
C2650 C 0.6075 0.77327 0.34401 0.0
C2651 C 0.60641 0.76801 0.3242 0.0
C2652 C 0.6086 0.74868 0.31842 0.0
C2653 C 0.61193 0.73475 0.33261 0.0
C2654 C 0.61308 0.73953 0.35201 0.0
C2655 C 0.61716 0.72183 0.3643 0.0
C2656 C 0.63652 0.72391 0.37511 0.0
C2657 C 0.60038 0.71793 0.37842 0.0
C2658 C 0.61829 0.70638 0.34875 0.0
C2659 C 0.61508 0.71413 0.33059 0.0
C2660 C 0.61526 0.70269 0.31396 0.0
C2661 C 0.61886 0.6828 0.31595 0.0
C2662 C 0.62238 0.67458 0.33439 0.0
C2663 C 0.62207 0.6866 0.35096 0.0
H2664 H 0.14473 0.3567 0.17909 0.0
H2665 H 0.14468 0.41548 0.15722 0.0
H2666 H 0.12362 0.42561 0.18435 0.0
H2667 H 0.09385 0.35706 0.19714 0.0
H2668 H 0.09993 0.34251 0.21794 0.0
H2669 H 0.1132 0.3396 0.19566 0.0
H2670 H 0.14533 0.34602 0.21396 0.0
H2671 H 0.13218 0.349 0.23623 0.0
H2672 H 0.14799 0.36798 0.22782 0.0
H2673 H 0.1069 0.4301 0.21635 0.0
H2674 H 0.09363 0.42816 0.24953 0.0
H2675 H 0.10253 0.36602 0.2495 0.0
C2676 C 0.13991 0.37159 0.17986 0.0
C2677 C 0.14617 0.3853 0.16607 0.0
C2678 C 0.13975 0.40472 0.16749 0.0
C2679 C 0.12786 0.41059 0.18287 0.0
C2680 C 0.12223 0.39677 0.19646 0.0
C2681 C 0.12778 0.3776 0.19492 0.0
C2682 C 0.12056 0.3658 0.21193 0.0
C2683 C 0.10602 0.35033 0.20526 0.0
C2684 C 0.13753 0.35668 0.22314 0.0
C2685 C 0.11069 0.38146 0.22366 0.0
C2686 C 0.11179 0.39923 0.21449 0.0
C2687 C 0.10548 0.4162 0.22343 0.0
C2688 C 0.098 0.41497 0.24227 0.0
C2689 C 0.09667 0.39689 0.25182 0.0
C2690 C 0.1028 0.37992 0.24225 0.0
H2691 H 0.88304 0.10825 0.24482 0.0
H2692 H 0.82742 0.1303 0.2642 0.0
H2693 H 0.818 0.13629 0.23036 0.0
H2694 H 0.88925 0.14225 0.20483 0.0
H2695 H 0.9002 0.12448 0.18916 0.0
H2696 H 0.90296 0.12252 0.21503 0.0
H2697 H 0.88889 0.08777 0.21399 0.0
H2698 H 0.88607 0.08959 0.18814 0.0
H2699 H 0.86552 0.08372 0.20311 0.0
H2700 H 0.81361 0.13795 0.19443 0.0
H2701 H 0.81535 0.13646 0.15865 0.0
H2702 H 0.87399 0.1145 0.16242 0.0
C2703 C 0.86896 0.11452 0.24197 0.0
C2704 C 0.85598 0.1188 0.25723 0.0
C2705 C 0.83764 0.12689 0.25282 0.0
C2706 C 0.83213 0.13037 0.23361 0.0
C2707 C 0.84515 0.12581 0.21892 0.0
C2708 C 0.86323 0.11819 0.22284 0.0
C2709 C 0.8743 0.11424 0.20429 0.0
C2710 C 0.89277 0.12662 0.20328 0.0
C2711 C 0.87896 0.09254 0.20227 0.0
C2712 C 0.85954 0.12069 0.18938 0.0
C2713 C 0.84279 0.12725 0.19814 0.0
C2714 C 0.82673 0.13308 0.18739 0.0
C2715 C 0.8278 0.13214 0.16713 0.0
C2716 C 0.84485 0.12563 0.15785 0.0
C2717 C 0.86094 0.11997 0.16916 0.0
H2718 H 0.13122 0.64466 0.25479 0.0
H2719 H 0.14465 0.58517 0.2394 0.0
H2720 H 0.15578 0.57906 0.27266 0.0
H2721 H 0.17157 0.65225 0.28649 0.0
H2722 H 0.15814 0.66648 0.30376 0.0
H2723 H 0.15103 0.66634 0.27867 0.0
H2724 H 0.11646 0.65545 0.28834 0.0
H2725 H 0.12342 0.65567 0.31347 0.0
H2726 H 0.11336 0.63402 0.30291 0.0
H2727 H 0.16615 0.57943 0.30718 0.0
H2728 H 0.17328 0.58572 0.34151 0.0
H2729 H 0.15278 0.64476 0.33514 0.0
C2730 C 0.13644 0.63033 0.25842 0.0
C2731 C 0.13716 0.61543 0.24438 0.0
C2732 C 0.14403 0.59687 0.24978 0.0
C2733 C 0.15042 0.59324 0.26867 0.0
C2734 C 0.14974 0.60828 0.28206 0.0
C2735 C 0.14278 0.62641 0.27727 0.0
C2736 C 0.14342 0.63994 0.29455 0.0
C2737 C 0.15684 0.65727 0.29063 0.0
C2738 C 0.12294 0.64666 0.30015 0.0
C2739 C 0.15188 0.62658 0.30975 0.0
C2740 C 0.15551 0.60842 0.30216 0.0
C2741 C 0.16342 0.5936 0.31328 0.0
C2742 C 0.16759 0.59738 0.33275 0.0
C2743 C 0.16376 0.61581 0.34097 0.0
C2744 C 0.15583 0.63057 0.32924 0.0
H2745 H 0.82614 0.86331 0.31686 0.0
H2746 H 0.88543 0.86052 0.33724 0.0
H2747 H 0.89723 0.86451 0.30376 0.0
H2748 H 0.83426 0.83635 0.27254 0.0
H2749 H 0.8176 0.85072 0.2585 0.0
H2750 H 0.81382 0.84773 0.28413 0.0
H2751 H 0.81347 0.885 0.28846 0.0
H2752 H 0.81734 0.88811 0.26285 0.0
H2753 H 0.83372 0.89909 0.27995 0.0
H2754 H 0.90262 0.87038 0.26846 0.0
H2755 H 0.90129 0.87478 0.23299 0.0
H2756 H 0.83854 0.87215 0.23509 0.0
C2757 C 0.84158 0.86349 0.31419 0.0
C2758 C 0.85489 0.86151 0.32957 0.0
C2759 C 0.87501 0.86172 0.32561 0.0
C2760 C 0.88184 0.86413 0.30667 0.0
C2761 C 0.86836 0.86614 0.29183 0.0
C2762 C 0.84866 0.86561 0.2953 0.0
C2763 C 0.8373 0.8677 0.27665 0.0
C2764 C 0.82502 0.84954 0.27273 0.0
C2765 C 0.82472 0.88607 0.27701 0.0
C2766 C 0.85371 0.86954 0.26221 0.0
C2767 C 0.8715 0.86883 0.27132 0.0
C2768 C 0.88879 0.8708 0.26112 0.0
C2769 C 0.88789 0.87336 0.24101 0.0
C2770 C 0.86984 0.87367 0.23132 0.0
C2771 C 0.85256 0.87176 0.2421 0.0
H2772 H 0.16703 0.14846 0.35699 0.0
H2773 H 0.16375 0.18031 0.41104 0.0
H2774 H 0.19643 0.16868 0.4198 0.0
H2775 H 0.19224 0.10705 0.37572 0.0
H2776 H 0.20677 0.10385 0.35428 0.0
H2777 H 0.18307 0.11455 0.35247 0.0
H2778 H 0.19785 0.14468 0.33565 0.0
H2779 H 0.22159 0.13406 0.33739 0.0
H2780 H 0.21715 0.15774 0.34741 0.0
H2781 H 0.22992 0.154 0.42223 0.0
H2782 H 0.26119 0.13706 0.41837 0.0
H2783 H 0.2422 0.11497 0.36264 0.0
C2784 C 0.17321 0.15314 0.3706 0.0
C2785 C 0.16281 0.16534 0.38331 0.0
C2786 C 0.17134 0.17081 0.40116 0.0
C2787 C 0.18993 0.16436 0.40621 0.0
C2788 C 0.19978 0.15238 0.3933 0.0
C2789 C 0.19167 0.14679 0.37588 0.0
C2790 C 0.2052 0.13382 0.36455 0.0
C2791 C 0.19629 0.11362 0.36159 0.0
C2792 C 0.21078 0.14314 0.3451 0.0
C2793 C 0.22227 0.13307 0.37824 0.0
C2794 C 0.2189 0.14387 0.39474 0.0
C2795 C 0.23271 0.14549 0.40937 0.0
C2796 C 0.25045 0.13586 0.40701 0.0
C2797 C 0.25417 0.12471 0.39018 0.0
C2798 C 0.2398 0.12331 0.3757 0.0
H2799 H 0.26591 0.83446 0.12786 0.0
H2800 H 0.26935 0.896 0.11552 0.0
H2801 H 0.23371 0.89792 0.11509 0.0
H2802 H 0.22547 0.82519 0.09643 0.0
H2803 H 0.21452 0.80746 0.11213 0.0
H2804 H 0.24036 0.81093 0.11243 0.0
H2805 H 0.23915 0.81742 0.14937 0.0
H2806 H 0.21331 0.81393 0.14917 0.0
H2807 H 0.2234 0.83607 0.15862 0.0
H2808 H 0.19793 0.89343 0.11624 0.0
H2809 H 0.16396 0.88239 0.11708 0.0
H2810 H 0.18323 0.82349 0.12714 0.0
C2811 C 0.25914 0.84835 0.12525 0.0
C2812 C 0.2704 0.86512 0.12187 0.0
C2813 C 0.26101 0.88297 0.11816 0.0
C2814 C 0.24078 0.88423 0.11793 0.0
C2815 C 0.23009 0.86745 0.12121 0.0
C2816 C 0.23889 0.84981 0.12465 0.0
C2817 C 0.22393 0.83388 0.12694 0.0
C2818 C 0.22621 0.81846 0.11103 0.0
C2819 C 0.22502 0.82479 0.14723 0.0
C2820 C 0.20539 0.84536 0.12432 0.0
C2821 C 0.20933 0.86473 0.1212 0.0
C2822 C 0.19465 0.8783 0.11865 0.0
C2823 C 0.17541 0.87192 0.11926 0.0
C2824 C 0.17098 0.85212 0.12219 0.0
C2825 C 0.18622 0.83869 0.1247 0.0
H2826 H 0.74738 0.65805 0.12314 0.0
H2827 H 0.73915 0.59574 0.12247 0.0
H2828 H 0.77405 0.59107 0.12845 0.0
H2829 H 0.7931 0.65733 0.09785 0.0
H2830 H 0.8032 0.67719 0.11145 0.0
H2831 H 0.77743 0.6757 0.10777 0.0
H2832 H 0.77205 0.67726 0.14489 0.0
H2833 H 0.79781 0.67866 0.14866 0.0
H2834 H 0.78394 0.65987 0.16031 0.0
H2835 H 0.80952 0.59304 0.13491 0.0
H2836 H 0.84394 0.60143 0.13888 0.0
H2837 H 0.82972 0.66244 0.13424 0.0
C2838 C 0.75293 0.64344 0.12436 0.0
C2839 C 0.74055 0.62725 0.12249 0.0
C2840 C 0.74838 0.60834 0.12386 0.0
C2841 C 0.76816 0.60554 0.12732 0.0
C2842 C 0.77996 0.62179 0.12915 0.0
C2843 C 0.77272 0.64037 0.12751 0.0
C2844 C 0.78874 0.65528 0.12926 0.0
C2845 C 0.79073 0.66707 0.11046 0.0
C2846 C 0.78543 0.66855 0.14683 0.0
C2847 C 0.80606 0.64216 0.1323 0.0
C2848 C 0.80061 0.62292 0.13234 0.0
C2849 C 0.81397 0.60807 0.13494 0.0
C2850 C 0.83349 0.61299 0.13735 0.0
C2851 C 0.83952 0.63261 0.13701 0.0
C2852 C 0.82554 0.64734 0.13451 0.0
H2853 H 0.32422 0.8598 0.88141 0.0
H2854 H 0.31734 0.82031 0.83288 0.0
H2855 H 0.28275 0.82796 0.8315 0.0
H2856 H 0.27975 0.84727 0.90467 0.0
H2857 H 0.27455 0.87151 0.91283 0.0
H2858 H 0.29926 0.86395 0.9094 0.0
H2859 H 0.30487 0.89279 0.88606 0.0
H2860 H 0.28014 0.90039 0.88939 0.0
H2861 H 0.28925 0.89579 0.86536 0.0
H2862 H 0.24882 0.83819 0.83611 0.0
H2863 H 0.2171 0.85057 0.84673 0.0
H2864 H 0.2452 0.88346 0.89237 0.0
C2865 C 0.31548 0.85278 0.87047 0.0
C2866 C 0.32373 0.8396 0.85711 0.0
C2867 C 0.31165 0.83079 0.84301 0.0
C2868 C 0.29187 0.83495 0.84216 0.0
C2869 C 0.28426 0.84793 0.8555 0.0
C2870 C 0.29561 0.85674 0.86942 0.0
C2871 C 0.2835 0.86965 0.88244 0.0
C2872 C 0.28431 0.86267 0.90358 0.0
C2873 C 0.28982 0.89092 0.8807 0.0
C2874 C 0.26359 0.8665 0.87372 0.0
C2875 C 0.26444 0.85394 0.85818 0.0
C2876 C 0.24794 0.84814 0.84817 0.0
C2877 C 0.23 0.85521 0.85435 0.0
C2878 C 0.22872 0.86798 0.87032 0.0
C2879 C 0.24578 0.87388 0.87997 0.0
H2880 H 0.00087 0.21102 0.4137 0.0
H2881 H 0.05011 0.2468 0.42917 0.0
H2882 H 0.02833 0.27481 0.43358 0.0
H2883 H 0.97676 0.24568 0.3862 0.0
H2884 H 0.95273 0.23887 0.39374 0.0
H2885 H 0.97184 0.22118 0.39375 0.0
H2886 H 0.96547 0.21404 0.43004 0.0
H2887 H 0.94623 0.23166 0.43011 0.0
H2888 H 0.9658 0.23366 0.44726 0.0
H2889 H 0.00167 0.2994 0.43357 0.0
H2890 H 0.97228 0.31889 0.42899 0.0
H2891 H 0.94013 0.26674 0.41462 0.0
C2892 C 0.00703 0.22459 0.41853 0.0
C2893 C 0.02721 0.2267 0.42117 0.0
C2894 C 0.03473 0.24489 0.42694 0.0
C2895 C 0.02246 0.26084 0.4296 0.0
C2896 C 0.00268 0.25833 0.42654 0.0
C2897 C 0.99499 0.24064 0.42122 0.0
C2898 C 0.97341 0.2421 0.41761 0.0
C2899 C 0.9684 0.23664 0.39658 0.0
C2900 C 0.96206 0.22962 0.43213 0.0
C2901 C 0.97026 0.26347 0.4213 0.0
C2902 C 0.98728 0.27253 0.4266 0.0
C2903 C 0.98818 0.29242 0.42973 0.0
C2904 C 0.9713 0.30338 0.42716 0.0
C2905 C 0.95368 0.29447 0.42145 0.0
C2906 C 0.95325 0.27415 0.41884 0.0
H2907 H 0.97869 0.70301 0.0647 0.0
H2908 H 0.97229 0.69334 0.12643 0.0
H2909 H 0.00316 0.71024 0.13233 0.0
H2910 H 0.03184 0.69707 0.06348 0.0
H2911 H 0.03481 0.7157 0.04545 0.0
H2912 H 0.01296 0.70146 0.046 0.0
H2913 H 0.99249 0.73284 0.0484 0.0
H2914 H 0.01424 0.74714 0.04782 0.0
H2915 H 0.99739 0.74988 0.06756 0.0
H2916 H 0.03332 0.73075 0.13167 0.0
H2917 H 0.05981 0.75349 0.12455 0.0
H2918 H 0.04754 0.74814 0.06307 0.0
C2919 C 0.98392 0.70422 0.07942 0.0
C2920 C 0.97293 0.69707 0.09508 0.0
C2921 C 0.98019 0.6991 0.1142 0.0
C2922 C 0.99785 0.70849 0.11769 0.0
C2923 C 0.00818 0.71563 0.10192 0.0
C2924 C 0.00153 0.71352 0.08316 0.0
C2925 C 0.01486 0.72337 0.06885 0.0
C2926 C 0.02417 0.70851 0.05514 0.0
C2927 C 0.0041 0.73925 0.0575 0.0
C2928 C 0.02968 0.73192 0.08254 0.0
C2929 C 0.02573 0.72712 0.10154 0.0
C2930 C 0.03673 0.73439 0.11681 0.0
C2931 C 0.05187 0.74728 0.11258 0.0
C2932 C 0.05588 0.75282 0.0932 0.0
C2933 C 0.04486 0.74449 0.07806 0.0
H2934 H 0.39652 0.01345 0.2095 0.0
H2935 H 0.43084 0.05798 0.23727 0.0
H2936 H 0.43462 0.03708 0.26617 0.0
H2937 H 0.37038 0.00054 0.25149 0.0
H2938 H 0.36907 0.97507 0.24591 0.0
H2939 H 0.37093 0.99252 0.22665 0.0
H2940 H 0.40143 0.975 0.21363 0.0
H2941 H 0.39964 0.95749 0.2329 0.0
H2942 H 0.42172 0.971 0.22956 0.0
H2943 H 0.43356 0.01223 0.29217 0.0
H2944 H 0.42591 0.986 0.31498 0.0
H2945 H 0.39047 0.95811 0.27119 0.0
C2946 C 0.40518 0.01853 0.22153 0.0
C2947 C 0.41369 0.03713 0.2212 0.0
C2948 C 0.42437 0.0437 0.23736 0.0
C2949 C 0.42664 0.03192 0.25372 0.0
C2950 C 0.41794 0.0137 0.25369 0.0
C2951 C 0.40728 0.00707 0.2381 0.0
C2952 C 0.398 0.98766 0.24251 0.0
C2953 C 0.37578 0.98904 0.24159 0.0
C2954 C 0.40567 0.97185 0.22884 0.0
C2955 C 0.40498 0.98451 0.26307 0.0
C2956 C 0.41666 0.99961 0.26909 0.0
C2957 C 0.42443 0.00033 0.28764 0.0
C2958 C 0.41987 0.9854 0.30054 0.0
C2959 C 0.40745 0.97004 0.29497 0.0
C2960 C 0.40019 0.96948 0.27583 0.0
H2961 H 0.60875 0.51164 0.29024 0.0
H2962 H 0.58376 0.55945 0.25821 0.0
H2963 H 0.57805 0.53767 0.23026 0.0
H2964 H 0.63282 0.48937 0.24859 0.0
H2965 H 0.62872 0.46521 0.25756 0.0
H2966 H 0.63136 0.48506 0.27427 0.0
H2967 H 0.59817 0.47593 0.28955 0.0
H2968 H 0.59538 0.45645 0.27247 0.0
H2969 H 0.57698 0.47486 0.27435 0.0
H2970 H 0.57427 0.51026 0.20632 0.0
H2971 H 0.57418 0.47998 0.18752 0.0
H2972 H 0.60112 0.45007 0.23584 0.0
C2973 C 0.60201 0.51748 0.27736 0.0
C2974 C 0.59651 0.53715 0.27637 0.0
C2975 C 0.58812 0.54442 0.25916 0.0
C2976 C 0.58476 0.53216 0.24329 0.0
C2977 C 0.59011 0.51275 0.24487 0.0
C2978 C 0.59876 0.50552 0.26139 0.0
C2979 C 0.60337 0.4842 0.25936 0.0
C2980 C 0.62537 0.48076 0.25998 0.0
C2981 C 0.59284 0.47216 0.27485 0.0
C2982 C 0.59537 0.48038 0.23933 0.0
C2983 C 0.58795 0.49705 0.23114 0.0
C2984 C 0.58001 0.49711 0.21261 0.0
C2985 C 0.57987 0.47973 0.2021 0.0
C2986 C 0.58758 0.46247 0.21014 0.0
C2987 C 0.59526 0.46293 0.22912 0.0
H2988 H 0.27032 0.39381 0.95504 0.0
H2989 H 0.32133 0.41707 0.98351 0.0
H2990 H 0.30185 0.4247 0.01228 0.0
H2991 H 0.23615 0.42989 0.97505 0.0
H2992 H 0.21695 0.41239 0.9775 0.0
H2993 H 0.2347 0.4097 0.95856 0.0
H2994 H 0.2426 0.37518 0.97088 0.0
H2995 H 0.225 0.37779 0.98992 0.0
H2996 H 0.2497 0.37178 0.99577 0.0
H2997 H 0.27785 0.42675 0.03919 0.0
H2998 H 0.2498 0.42559 0.06152 0.0
H2999 H 0.2139 0.40316 0.01524 0.0
C3000 C 0.27732 0.4009 0.96713 0.0
C3001 C 0.29746 0.4046 0.967 0.0
C3002 C 0.30605 0.41367 0.98332 0.0
C3003 C 0.29507 0.41822 0.99973 0.0
C3004 C 0.27542 0.41391 0.99957 0.0
C3005 C 0.26652 0.40573 0.98362 0.0
C3006 C 0.24522 0.40212 0.98749 0.0
C3007 C 0.23251 0.41425 0.97384 0.0
C3008 C 0.24035 0.38043 0.98593 0.0
C3009 C 0.2437 0.4092 0.00821 0.0
C3010 C 0.26131 0.41589 0.01492 0.0
C3011 C 0.26388 0.42191 0.03402 0.0
C3012 C 0.24797 0.42112 0.0466 0.0
C3013 C 0.22975 0.4146 0.03996 0.0
C3014 C 0.22759 0.40868 0.02049 0.0
H3015 H 0.21808 0.6005 0.48227 0.0
H3016 H 0.23131 0.54017 0.47126 0.0
H3017 H 0.25432 0.5402 0.49875 0.0
H3018 H 0.265 0.61567 0.49396 0.0
H3019 H 0.25777 0.63206 0.51295 0.0
H3020 H 0.24139 0.6268 0.49338 0.0
H3021 H 0.21527 0.6159 0.51801 0.0
H3022 H 0.23158 0.62113 0.5377 0.0
H3023 H 0.22101 0.59737 0.53548 0.0
H3024 H 0.27834 0.54794 0.52473 0.0
H3025 H 0.30043 0.5623 0.54905 0.0
H3026 H 0.27019 0.61701 0.5445 0.0
C3027 C 0.22577 0.5873 0.48578 0.0
C3028 C 0.22311 0.57034 0.4747 0.0
C3029 C 0.23316 0.55323 0.47973 0.0
C3030 C 0.24622 0.55315 0.49526 0.0
C3031 C 0.2487 0.57019 0.50577 0.0
C3032 C 0.23857 0.58689 0.50142 0.0
C3033 C 0.24424 0.6034 0.51466 0.0
C3034 C 0.2526 0.62049 0.50304 0.0
C3035 C 0.227 0.60982 0.52721 0.0
C3036 C 0.25966 0.59357 0.52673 0.0
C3037 C 0.26198 0.57441 0.52138 0.0
C3038 C 0.27642 0.56279 0.52933 0.0
C3039 C 0.28891 0.57103 0.54301 0.0
C3040 C 0.28672 0.59058 0.54869 0.0
C3041 C 0.27175 0.60188 0.54067 0.0
H3042 H 0.77464 0.93393 0.46362 0.0
H3043 H 0.787 0.87273 0.45678 0.0
H3044 H 0.7699 0.86576 0.48727 0.0
H3045 H 0.77999 0.93514 0.51629 0.0
H3046 H 0.76043 0.95208 0.51966 0.0
H3047 H 0.77437 0.95247 0.49761 0.0
H3048 H 0.74292 0.94842 0.47753 0.0
H3049 H 0.7289 0.94807 0.4995 0.0
H3050 H 0.72704 0.92832 0.48253 0.0
H3051 H 0.75039 0.86514 0.51755 0.0
H3052 H 0.72895 0.87073 0.54535 0.0
H3053 H 0.7298 0.93252 0.53352 0.0
C3054 C 0.77379 0.91912 0.46865 0.0
C3055 C 0.78189 0.90386 0.45771 0.0
C3056 C 0.7805 0.8846 0.46468 0.0
C3057 C 0.771 0.88051 0.48209 0.0
C3058 C 0.763 0.89583 0.49243 0.0
C3059 C 0.76426 0.91475 0.48602 0.0
C3060 C 0.7538 0.92841 0.49963 0.0
C3061 C 0.768 0.94288 0.50884 0.0
C3062 C 0.73718 0.93891 0.48917 0.0
C3063 C 0.7462 0.91416 0.51448 0.0
C3064 C 0.75184 0.89548 0.51012 0.0
C3065 C 0.74606 0.87973 0.52127 0.0
C3066 C 0.73395 0.88311 0.53718 0.0
C3067 C 0.7277 0.90212 0.54184 0.0
C3068 C 0.7342 0.91782 0.53038 0.0
H3069 H 0.97964 0.79468 0.59157 0.0
H3070 H 0.93065 0.75678 0.58163 0.0
H3071 H 0.9528 0.72869 0.57937 0.0
H3072 H 0.01401 0.7701 0.55995 0.0
H3073 H 0.03412 0.77365 0.57619 0.0
H3074 H 0.01454 0.79087 0.57576 0.0
H3075 H 0.00953 0.78612 0.61264 0.0
H3076 H 0.02904 0.76884 0.61317 0.0
H3077 H 0.00543 0.76211 0.62203 0.0
H3078 H 0.98006 0.70489 0.57872 0.0
H3079 H 0.01052 0.68645 0.58122 0.0
H3080 H 0.04189 0.73963 0.59271 0.0
C3081 C 0.97368 0.7805 0.58857 0.0
C3082 C 0.95351 0.77782 0.58654 0.0
C3083 C 0.94609 0.75903 0.58319 0.0
C3084 C 0.95854 0.74307 0.58182 0.0
C3085 C 0.97835 0.74616 0.58405 0.0
C3086 C 0.98589 0.76438 0.58746 0.0
C3087 C 0.00762 0.76358 0.59037 0.0
C3088 C 0.01819 0.77524 0.57462 0.0
C3089 C 0.01322 0.77057 0.61076 0.0
C3090 C 0.01111 0.74205 0.58805 0.0
C3091 C 0.99404 0.73232 0.58425 0.0
C3092 C 0.99353 0.71235 0.5816 0.0
C3093 C 0.01092 0.70202 0.58293 0.0
C3094 C 0.02858 0.71164 0.58702 0.0
C3095 C 0.0286 0.73192 0.58962 0.0
H3096 H 0.9694 0.22818 0.88052 0.0
H3097 H 0.96229 0.21049 0.94019 0.0
H3098 H 0.986 0.23534 0.95054 0.0
H3099 H 0.02018 0.23449 0.88311 0.0
H3100 H 0.02109 0.25517 0.86722 0.0
H3101 H 0.00199 0.23761 0.86465 0.0
H3102 H 0.97645 0.26473 0.86837 0.0
H3103 H 0.99536 0.28251 0.8711 0.0
H3104 H 0.97695 0.28006 0.88946 0.0
H3105 H 0.01095 0.2611 0.95423 0.0
H3106 H 0.03679 0.28569 0.95102 0.0
H3107 H 0.02961 0.28531 0.8887 0.0
C3108 C 0.97261 0.22997 0.89576 0.0
C3109 C 0.96396 0.21784 0.90971 0.0
C3110 C 0.96876 0.21994 0.92948 0.0
C3111 C 0.98215 0.23394 0.93542 0.0
C3112 C 0.99076 0.2455 0.92131 0.0
C3113 C 0.98628 0.24365 0.90188 0.0
C3114 C 0.99869 0.25696 0.8896 0.0
C3115 C 0.01123 0.24536 0.87531 0.0
C3116 C 0.98612 0.27196 0.879 0.0
C3117 C 0.01096 0.26639 0.90516 0.0
C3118 C 0.00593 0.25975 0.92336 0.0
C3119 C 0.01503 0.26642 0.94007 0.0
C3120 C 0.02965 0.28033 0.93814 0.0
C3121 C 0.0352 0.28715 0.91966 0.0
C3122 C 0.02578 0.28004 0.90296 0.0
H3123 H 0.59529 0.01821 0.7023 0.0
H3124 H 0.58412 0.0652 0.74236 0.0
H3125 H 0.58244 0.04169 0.76942 0.0
H3126 H 0.56404 0.98328 0.72363 0.0
H3127 H 0.5801 0.96309 0.71966 0.0
H3128 H 0.5808 0.98361 0.70361 0.0
H3129 H 0.61743 0.9878 0.7103 0.0
H3130 H 0.61687 0.96724 0.72635 0.0
H3131 H 0.6258 0.99023 0.7349 0.0
H3132 H 0.57983 0.0131 0.79141 0.0
H3133 H 0.5785 0.98125 0.80765 0.0
H3134 H 0.59319 0.95282 0.7537 0.0
C3135 C 0.59239 0.02348 0.71678 0.0
C3136 C 0.58957 0.04343 0.72035 0.0
C3137 C 0.58627 0.04994 0.73947 0.0
C3138 C 0.58528 0.03672 0.75484 0.0
C3139 C 0.58798 0.01712 0.75081 0.0
C3140 C 0.5917 0.01052 0.7323 0.0
C3141 C 0.59422 0.98872 0.73192 0.0
C3142 C 0.57887 0.97912 0.71894 0.0
C3143 C 0.61481 0.98318 0.72549 0.0
C3144 C 0.5909 0.98403 0.75309 0.0
C3145 C 0.58727 0.00065 0.76368 0.0
C3146 C 0.58283 1.00001 0.78333 0.0
C3147 C 0.58199 0.98191 0.79239 0.0
C3148 C 0.58574 0.96473 0.78186 0.0
C3149 C 0.59048 0.96583 0.76203 0.0
H3150 H 0.40511 0.51169 0.79093 0.0
H3151 H 0.4257 0.56288 0.76105 0.0
H3152 H 0.4307 0.54345 0.7313 0.0
H3153 H 0.43749 0.47699 0.76828 0.0
H3154 H 0.41929 0.45833 0.76695 0.0
H3155 H 0.41838 0.4761 0.78603 0.0
H3156 H 0.38339 0.48516 0.77593 0.0
H3157 H 0.38424 0.46746 0.75681 0.0
H3158 H 0.37862 0.49234 0.75129 0.0
H3159 H 0.43306 0.51842 0.70486 0.0
H3160 H 0.43115 0.49004 0.68315 0.0
H3161 H 0.40824 0.45549 0.7303 0.0
C3162 C 0.41098 0.51872 0.77822 0.0
C3163 C 0.41524 0.53872 0.77827 0.0
C3164 C 0.42237 0.54756 0.76122 0.0
C3165 C 0.42531 0.53664 0.74434 0.0
C3166 C 0.42088 0.51695 0.74476 0.0
C3167 C 0.41377 0.50809 0.76123 0.0
C3168 C 0.40927 0.48694 0.75765 0.0
C3169 C 0.42186 0.47382 0.77049 0.0
C3170 C 0.38759 0.48274 0.76059 0.0
C3171 C 0.41494 0.48527 0.73656 0.0
C3172 C 0.42175 0.50269 0.72943 0.0
C3173 C 0.42781 0.50469 0.7103 0.0
C3174 C 0.42678 0.48848 0.69811 0.0
C3175 C 0.41958 0.47058 0.70506 0.0
C3176 C 0.41365 0.46903 0.72456 0.0
H3177 H 0.79268 0.59357 0.99038 0.0
H3178 H 0.75516 0.57555 0.94347 0.0
H3179 H 0.7285 0.57011 0.96689 0.0
H3180 H 0.77528 0.56039 0.02672 0.0
H3181 H 0.77673 0.57779 0.04612 0.0
H3182 H 0.79293 0.5796 0.02576 0.0
H3183 H 0.78155 0.6148 0.01959 0.0
H3184 H 0.76545 0.61316 0.04003 0.0
H3185 H 0.75611 0.61972 0.01656 0.0
H3186 H 0.70631 0.56619 0.99552 0.0
H3187 H 0.68914 0.5666 0.02688 0.0
H3188 H 0.74085 0.58844 0.05499 0.0
C3189 C 0.7789 0.58826 0.98514 0.0
C3190 C 0.77593 0.5847 0.96523 0.0
C3191 C 0.75761 0.57829 0.95871 0.0
C3192 C 0.74248 0.5751 0.97189 0.0
C3193 C 0.7459 0.57867 0.99147 0.0
C3194 C 0.76359 0.58532 0.99805 0.0
C3195 C 0.76323 0.58891 0.01968 0.0
C3196 C 0.77792 0.57589 0.03018 0.0
C3197 C 0.76679 0.61043 0.02423 0.0
C3198 C 0.74262 0.58307 0.02429 0.0
C3199 C 0.73293 0.57705 0.00785 0.0
C3200 C 0.71375 0.57085 0.00849 0.0
C3201 C 0.70417 0.57099 0.02639 0.0
C3202 C 0.71371 0.57746 0.04336 0.0
C3203 C 0.73321 0.5835 0.04223 0.0
H3204 H 0.74146 0.39693 0.44808 0.0
H3205 H 0.70742 0.44464 0.47075 0.0
H3206 H 0.72741 0.44503 0.50023 0.0
H3207 H 0.74687 0.37292 0.49384 0.0
H3208 H 0.77128 0.36486 0.48993 0.0
H3209 H 0.75522 0.36795 0.46961 0.0
H3210 H 0.77859 0.39146 0.45285 0.0
H3211 H 0.7957 0.38848 0.4723 0.0
H3212 H 0.78746 0.41235 0.46577 0.0
H3213 H 0.75049 0.43995 0.52755 0.0
H3214 H 0.7764 0.43041 0.55045 0.0
H3215 H 0.79601 0.38661 0.51003 0.0
C3216 C 0.73822 0.40741 0.45927 0.0
C3217 C 0.723 0.42088 0.45699 0.0
C3218 C 0.71923 0.43443 0.47196 0.0
C3219 C 0.73042 0.43468 0.48885 0.0
C3220 C 0.74536 0.42131 0.49059 0.0
C3221 C 0.74935 0.40795 0.47622 0.0
C3222 C 0.7662 0.3951 0.48185 0.0
C3223 C 0.75951 0.37396 0.48391 0.0
C3224 C 0.78298 0.39697 0.46733 0.0
C3225 C 0.7714 0.40374 0.50135 0.0
C3226 C 0.75896 0.41861 0.50625 0.0
C3227 C 0.76042 0.42842 0.52384 0.0
C3228 C 0.77509 0.42293 0.53673 0.0
C3229 C 0.78823 0.40804 0.53181 0.0
C3230 C 0.78633 0.39832 0.51391 0.0
H3231 H 0.25674 0.09611 0.4555 0.0
H3232 H 0.30635 0.07279 0.48602 0.0
H3233 H 0.28803 0.07398 0.51677 0.0
H3234 H 0.24136 0.12899 0.49254 0.0
H3235 H 0.21593 0.12505 0.48826 0.0
H3236 H 0.233 0.12223 0.46876 0.0
H3237 H 0.22056 0.08732 0.46282 0.0
H3238 H 0.20346 0.09001 0.48231 0.0
H3239 H 0.22045 0.07021 0.48252 0.0
H3240 H 0.26454 0.07892 0.54434 0.0
H3241 H 0.23703 0.08573 0.56636 0.0
H3242 H 0.20273 0.10491 0.51744 0.0
C3243 C 0.26372 0.0913 0.46868 0.0
C3244 C 0.28291 0.08433 0.46845 0.0
C3245 C 0.29156 0.07795 0.48591 0.0
C3246 C 0.28132 0.07868 0.50342 0.0
C3247 C 0.2624 0.08566 0.50315 0.0
C3248 C 0.25364 0.09173 0.48621 0.0
C3249 C 0.23311 0.09843 0.48976 0.0
C3250 C 0.23072 0.11995 0.48452 0.0
C3251 C 0.21854 0.08573 0.4787 0.0
C3252 C 0.23169 0.09525 0.51138 0.0
C3253 C 0.24876 0.088 0.51888 0.0
C3254 C 0.25105 0.08446 0.53862 0.0
C3255 C 0.23544 0.08842 0.551 0.0
C3256 C 0.21777 0.09563 0.54353 0.0
C3257 C 0.21594 0.09902 0.52347 0.0
H3258 H 0.46984 0.79551 0.93875 0.0
H3259 H 0.46387 0.8054 0.87714 0.0
H3260 H 0.49546 0.78971 0.87137 0.0
H3261 H 0.52371 0.80116 0.941 0.0
H3262 H 0.52619 0.78198 0.95853 0.0
H3263 H 0.50454 0.79656 0.95812 0.0
H3264 H 0.48371 0.76554 0.95464 0.0
H3265 H 0.50523 0.75091 0.95499 0.0
H3266 H 0.48854 0.74901 0.93501 0.0
H3267 H 0.52549 0.76985 0.87191 0.0
H3268 H 0.55149 0.74666 0.87832 0.0
H3269 H 0.53859 0.74955 0.93992 0.0
C3270 C 0.4755 0.79469 0.92416 0.0
C3271 C 0.46455 0.80156 0.90837 0.0
C3272 C 0.47206 0.80002 0.88936 0.0
C3273 C 0.49002 0.79128 0.88598 0.0
C3274 C 0.50029 0.78414 0.90179 0.0
C3275 C 0.49336 0.78577 0.92052 0.0
C3276 C 0.50642 0.77528 0.93469 0.0
C3277 C 0.51577 0.7896 0.94892 0.0
C3278 C 0.49531 0.75924 0.94545 0.0
C3279 C 0.5213 0.7669 0.9209 0.0
C3280 C 0.51768 0.77248 0.90206 0.0
C3281 C 0.52868 0.7656 0.88665 0.0
C3282 C 0.54354 0.75235 0.89052 0.0
C3283 C 0.5473 0.74595 0.9097 0.0
C3284 C 0.5362 0.75383 0.92506 0.0
H3285 H 0.46384 0.23412 0.6072 0.0
H3286 H 0.44727 0.24311 0.54731 0.0
H3287 H 0.47511 0.265 0.54282 0.0
H3288 H 0.48076 0.28356 0.61651 0.0
H3289 H 0.50029 0.27525 0.63172 0.0
H3290 H 0.47842 0.26126 0.62989 0.0
H3291 H 0.49941 0.23161 0.61995 0.0
H3292 H 0.52107 0.24612 0.62097 0.0
H3293 H 0.51493 0.23339 0.59903 0.0
H3294 H 0.5047 0.28512 0.54441 0.0
H3295 H 0.53409 0.30373 0.55233 0.0
H3296 H 0.532 0.28217 0.61129 0.0
C3297 C 0.46594 0.24097 0.59326 0.0
C3298 C 0.45342 0.23696 0.57757 0.0
C3299 C 0.4568 0.24589 0.55943 0.0
C3300 C 0.47253 0.25835 0.55676 0.0
C3301 C 0.48481 0.26171 0.57238 0.0
C3302 C 0.48171 0.2534 0.5903 0.0
C3303 C 0.49738 0.25928 0.60453 0.0
C3304 C 0.48868 0.27052 0.62166 0.0
C3305 C 0.50887 0.24154 0.61153 0.0
C3306 C 0.50969 0.27227 0.59177 0.0
C3307 C 0.50213 0.27337 0.57328 0.0
C3308 C 0.51074 0.28446 0.55885 0.0
C3309 C 0.52739 0.29501 0.56349 0.0
C3310 C 0.5353 0.29442 0.58239 0.0
C3311 C 0.52642 0.28269 0.59666 0.0
H3312 H 0.9026 0.45346 0.76769 0.0
H3313 H 0.90517 0.48443 0.8222 0.0
H3314 H 0.90421 0.51561 0.80463 0.0
H3315 H 0.93356 0.48567 0.74145 0.0
H3316 H 0.92026 0.48372 0.71908 0.0
H3317 H 0.92026 0.46388 0.73599 0.0
H3318 H 0.88276 0.46447 0.73688 0.0
H3319 H 0.88265 0.48427 0.71992 0.0
H3320 H 0.87042 0.48668 0.74284 0.0
H3321 H 0.9027 0.54341 0.78102 0.0
H3322 H 0.90235 0.56576 0.75296 0.0
H3323 H 0.9021 0.51662 0.71392 0.0
C3324 C 0.90283 0.46684 0.77585 0.0
C3325 C 0.90403 0.46663 0.79624 0.0
C3326 C 0.90451 0.48436 0.80654 0.0
C3327 C 0.90385 0.5021 0.7967 0.0
C3328 C 0.90288 0.50184 0.77655 0.0
C3329 C 0.90248 0.48468 0.76623 0.0
C3330 C 0.90208 0.48841 0.74463 0.0
C3331 C 0.92012 0.47992 0.73471 0.0
C3332 C 0.88336 0.48049 0.73554 0.0
C3333 C 0.90241 0.51034 0.74443 0.0
C3334 C 0.90265 0.51782 0.76298 0.0
C3335 C 0.9026 0.53772 0.76642 0.0
C3336 C 0.90236 0.55029 0.75046 0.0
C3337 C 0.90243 0.5429 0.73134 0.0
C3338 C 0.90244 0.52266 0.72837 0.0
H3339 H 0.10462 0.04811 0.77791 0.0
H3340 H 0.08937 0.01356 0.82829 0.0
H3341 H 0.08412 0.9854 0.80728 0.0
H3342 H 0.06845 0.02657 0.74587 0.0
H3343 H 0.08407 0.02773 0.72499 0.0
H3344 H 0.08643 0.04541 0.74402 0.0
H3345 H 0.12271 0.03672 0.74756 0.0
H3346 H 0.12046 0.01891 0.72866 0.0
H3347 H 0.12958 0.01194 0.75209 0.0
H3348 H 0.08305 0.96011 0.78114 0.0
H3349 H 0.0828 0.94059 0.75102 0.0
H3350 H 0.09619 0.99197 0.71763 0.0
C3351 C 0.09988 0.03481 0.78464 0.0
C3352 C 0.09775 0.03323 0.80499 0.0
C3353 C 0.09161 0.01527 0.8129 0.0
C3354 C 0.08845 0.99911 0.80104 0.0
C3355 C 0.09113 0.00111 0.78119 0.0
C3356 C 0.09639 0.01858 0.77299 0.0
C3357 C 0.09821 0.01685 0.75119 0.0
C3358 C 0.0834 0.02991 0.74091 0.0
C3359 C 0.11897 0.02137 0.74449 0.0
C3360 C 0.09337 0.99562 0.74849 0.0
C3361 C 0.08951 0.98676 0.766 0.0
C3362 C 0.08572 0.96696 0.76731 0.0
C3363 C 0.08569 0.95598 0.75021 0.0
C3364 C 0.08916 0.96487 0.7321 0.0
C3365 C 0.09303 0.98494 0.73128 0.0
H3366 H 0.78184 0.10071 0.02099 0.0
H3367 H 0.77378 0.04075 0.03774 0.0
H3368 H 0.74831 0.03715 0.01296 0.0
H3369 H 0.73161 0.11142 0.0113 0.0
H3370 H 0.73664 0.12649 0.99059 0.0
H3371 H 0.75417 0.12446 0.00979 0.0
H3372 H 0.78009 0.11361 0.98494 0.0
H3373 H 0.7626 0.11547 0.96568 0.0
H3374 H 0.77534 0.09304 0.96958 0.0
H3375 H 0.72317 0.04017 0.98738 0.0
H3376 H 0.70017 0.04952 0.9616 0.0
H3377 H 0.72514 0.10705 0.96002 0.0
C3378 C 0.77458 0.0869 0.01947 0.0
C3379 C 0.77974 0.07097 0.03124 0.0
C3380 C 0.77014 0.05304 0.02873 0.0
C3381 C 0.75563 0.05088 0.01475 0.0
C3382 C 0.751 0.06676 0.00325 0.0
C3383 C 0.7602 0.08441 0.00534 0.0
C3384 C 0.75254 0.09904 0.99086 0.0
C3385 C 0.74318 0.11637 0.00126 0.0
C3386 C 0.7686 0.10568 0.97694 0.0
C3387 C 0.7375 0.08687 0.98045 0.0
C3388 C 0.73684 0.06832 0.98793 0.0
C3389 C 0.72364 0.05459 0.98129 0.0
C3390 C 0.71064 0.06001 0.96672 0.0
C3391 C 0.71106 0.07889 0.9588 0.0
C3392 C 0.72481 0.09242 0.96562 0.0
H3393 H 0.5187 0.20538 0.10003 0.0
H3394 H 0.5696 0.23829 0.08357 0.0
H3395 H 0.54897 0.26671 0.07675 0.0
H3396 H 0.48641 0.22513 0.06399 0.0
H3397 H 0.46581 0.22546 0.08001 0.0
H3398 H 0.48459 0.20769 0.08332 0.0
H3399 H 0.48904 0.21899 0.11885 0.0
H3400 H 0.47031 0.23683 0.1156 0.0
H3401 H 0.49398 0.24415 0.12377 0.0
H3402 H 0.52287 0.29144 0.07189 0.0
H3403 H 0.49314 0.31105 0.06974 0.0
H3404 H 0.45922 0.26187 0.08918 0.0
C3405 C 0.52549 0.21847 0.09475 0.0
C3406 C 0.54575 0.21963 0.09224 0.0
C3407 C 0.55412 0.23717 0.08572 0.0
C3408 C 0.54252 0.25333 0.08173 0.0
C3409 C 0.5226 0.2517 0.08442 0.0
C3410 C 0.51414 0.23474 0.09081 0.0
C3411 C 0.49243 0.23691 0.09287 0.0
C3412 C 0.48168 0.22297 0.07923 0.0
C3413 C 0.48608 0.23406 0.11403 0.0
C3414 C 0.49 0.25774 0.08657 0.0
C3415 C 0.50757 0.26599 0.08173 0.0
C3416 C 0.50901 0.28511 0.07553 0.0
C3417 C 0.49202 0.29609 0.07422 0.0
C3418 C 0.47384 0.28793 0.07914 0.0
C3419 C 0.47291 0.26851 0.08542 0.0
H3420 H 0.52024 0.79432 0.41297 0.0
H3421 H 0.57083 0.75715 0.4126 0.0
H3422 H 0.54975 0.72845 0.41618 0.0
H3423 H 0.4918 0.76663 0.44794 0.0
H3424 H 0.46928 0.77075 0.43543 0.0
H3425 H 0.4884 0.78844 0.43402 0.0
H3426 H 0.48749 0.78647 0.39656 0.0
H3427 H 0.46843 0.76874 0.39786 0.0
H3428 H 0.4904 0.76331 0.38487 0.0
H3429 H 0.5234 0.70398 0.41878 0.0
H3430 H 0.49347 0.68485 0.41908 0.0
H3431 H 0.4595 0.73774 0.41762 0.0
C3432 C 0.52687 0.78016 0.41402 0.0
C3433 C 0.54718 0.77791 0.41269 0.0
C3434 C 0.55531 0.75913 0.41356 0.0
C3435 C 0.54347 0.74279 0.41568 0.0
C3436 C 0.52351 0.7455 0.41681 0.0
C3437 C 0.51524 0.76369 0.41595 0.0
C3438 C 0.49332 0.76247 0.4165 0.0
C3439 C 0.48523 0.77268 0.43455 0.0
C3440 C 0.48439 0.77074 0.39784 0.0
C3441 C 0.49058 0.74073 0.41771 0.0
C3442 C 0.50821 0.73128 0.41802 0.0
C3443 C 0.50951 0.71121 0.41873 0.0
C3444 C 0.49234 0.70046 0.41905 0.0
C3445 C 0.47402 0.70975 0.41861 0.0
C3446 C 0.47323 0.7302 0.41797 0.0
H3447 H 0.09624 0.52288 0.20094 0.0
H3448 H 0.07058 0.57295 0.22864 0.0
H3449 H 0.05949 0.55229 0.25575 0.0
H3450 H 0.05994 0.4862 0.21727 0.0
H3451 H 0.0784 0.46813 0.221 0.0
H3452 H 0.08139 0.48619 0.2024 0.0
H3453 H 0.11431 0.49613 0.21741 0.0
H3454 H 0.11135 0.47819 0.23603 0.0
H3455 H 0.11531 0.50316 0.24254 0.0
H3456 H 0.05458 0.52709 0.28131 0.0
H3457 H 0.05681 0.49936 0.30382 0.0
H3458 H 0.08653 0.46607 0.25963 0.0
C3459 C 0.08767 0.52932 0.21238 0.0
C3460 C 0.08396 0.54941 0.21265 0.0
C3461 C 0.07341 0.55754 0.22821 0.0
C3462 C 0.06701 0.54592 0.24357 0.0
C3463 C 0.07131 0.52621 0.24311 0.0
C3464 C 0.08137 0.51795 0.22789 0.0
C3465 C 0.08602 0.4969 0.23188 0.0
C3466 C 0.07582 0.48357 0.21727 0.0
C3467 C 0.10805 0.49341 0.23198 0.0
C3468 C 0.07745 0.49476 0.25193 0.0
C3469 C 0.06879 0.51173 0.25804 0.0
C3470 C 0.06107 0.51363 0.27659 0.0
C3471 C 0.0625 0.49788 0.2893 0.0
C3472 C 0.07171 0.48051 0.28347 0.0
C3473 C 0.07895 0.47891 0.2644 0.0
H3474 H 0.90726 0.94625 0.22705 0.0
H3475 H 0.90942 0.97429 0.171 0.0
H3476 H 0.90664 0.00631 0.18681 0.0
H3477 H 0.87332 0.97981 0.25004 0.0
H3478 H 0.88558 0.97898 0.27306 0.0
H3479 H 0.88626 0.95829 0.25717 0.0
H3480 H 0.92377 0.95877 0.25808 0.0
H3481 H 0.92318 0.97945 0.27393 0.0
H3482 H 0.93647 0.98062 0.2515 0.0
H3483 H 0.90413 0.03536 0.20893 0.0
H3484 H 0.90455 0.05913 0.23587 0.0
H3485 H 0.90526 0.01199 0.27727 0.0
C3486 C 0.90693 0.95916 0.21817 0.0
C3487 C 0.90858 0.95789 0.19786 0.0
C3488 C 0.90838 0.97504 0.18661 0.0
C3489 C 0.90665 0.99324 0.19544 0.0
C3490 C 0.90524 0.99403 0.21555 0.0
C3491 C 0.90547 0.97744 0.22678 0.0
C3492 C 0.90493 0.9823 0.24814 0.0
C3493 C 0.88642 0.97438 0.25766 0.0
C3494 C 0.92318 0.97485 0.25851 0.0
C3495 C 0.90464 0.00419 0.24716 0.0
C3496 C 0.9045 0.0107 0.22825 0.0
C3497 C 0.90426 0.03042 0.2238 0.0
C3498 C 0.90444 0.0438 0.23912 0.0
C3499 C 0.90517 0.03736 0.25855 0.0
C3500 C 0.90505 0.0173 0.26253 0.0
H3501 H 0.23955 0.93632 0.96874 0.0
H3502 H 0.23768 0.87569 0.95262 0.0
H3503 H 0.2614 0.86818 0.9784 0.0
H3504 H 0.29143 0.93782 0.9824 0.0
H3505 H 0.28686 0.95419 0.00221 0.0
H3506 H 0.27178 0.95493 0.98093 0.0
H3507 H 0.24139 0.95008 0.0024 0.0
H3508 H 0.25634 0.94912 0.0237 0.0
H3509 H 0.2401 0.92941 0.01829 0.0
H3510 H 0.28195 0.86689 0.00856 0.0
H3511 H 0.29947 0.87222 0.03932 0.0
H3512 H 0.288 0.93376 0.03544 0.0
C3513 C 0.24438 0.92152 0.97044 0.0
C3514 C 0.2368 0.90658 0.95874 0.0
C3515 C 0.24351 0.88738 0.96129 0.0
C3516 C 0.25689 0.88298 0.97595 0.0
C3517 C 0.26356 0.89801 0.98768 0.0
C3518 C 0.25773 0.91694 0.98488 0.0
C3519 C 0.26613 0.9303 8e-05 0.0
C3520 C 0.27987 0.94519 0.99085 0.0
C3521 C 0.25003 0.9403 0.01181 0.0
C3522 C 0.27711 0.91585 0.01229 0.0
C3523 C 0.27554 0.89731 0.00486 0.0
C3524 C 0.28346 0.88137 0.01435 0.0
C3525 C 0.29321 0.8845 0.03187 0.0
C3526 C 0.29498 0.90339 0.03967 0.0
C3527 C 0.28701 0.91924 0.02961 0.0
H3528 H 0.09461 0.16472 0.46279 0.0
H3529 H 0.12867 0.21167 0.43872 0.0
H3530 H 0.14584 0.21509 0.4701 0.0
H3531 H 0.09004 0.1843 0.51165 0.0
H3532 H 0.09191 0.16071 0.52264 0.0
H3533 H 0.08154 0.1632 0.49884 0.0
H3534 H 0.1064 0.13851 0.48531 0.0
H3535 H 0.11678 0.13591 0.50904 0.0
H3536 H 0.1319 0.14277 0.4889 0.0
H3537 H 0.16108 0.21111 0.50377 0.0
H3538 H 0.17236 0.20055 0.53619 0.0
H3539 H 0.12761 0.15649 0.53711 0.0
C3540 C 0.10553 0.17589 0.46412 0.0
C3541 C 0.11033 0.18793 0.44834 0.0
C3542 C 0.12471 0.20235 0.4507 0.0
C3543 C 0.13452 0.20439 0.46845 0.0
C3544 C 0.12957 0.19202 0.48367 0.0
C3545 C 0.11529 0.17815 0.48163 0.0
C3546 C 0.11312 0.16604 0.49969 0.0
C3547 C 0.09295 0.16873 0.50874 0.0
C3548 C 0.11731 0.14454 0.49548 0.0
C3549 C 0.12867 0.17494 0.51219 0.0
C3550 C 0.13801 0.18997 0.50284 0.0
C3551 C 0.15367 0.19954 0.5113 0.0
C3552 C 0.16001 0.19342 0.52967 0.0
C3553 C 0.15067 0.17791 0.53934 0.0
C3554 C 0.1347 0.16879 0.53044 0.0
H3555 H 0.84455 0.34532 0.44166 0.0
H3556 H 0.87182 0.28882 0.44005 0.0
H3557 H 0.8613 0.28285 0.47385 0.0
H3558 H 0.85776 0.35771 0.48811 0.0
H3559 H 0.83546 0.36984 0.49418 0.0
H3560 H 0.84317 0.36854 0.46936 0.0
H3561 H 0.81054 0.35265 0.45994 0.0
H3562 H 0.80288 0.35388 0.48485 0.0
H3563 H 0.8027 0.33101 0.4723 0.0
H3564 H 0.85224 0.28566 0.50958 0.0
H3565 H 0.84252 0.29572 0.54277 0.0
H3566 H 0.81949 0.34924 0.51963 0.0
C3567 C 0.84793 0.33151 0.44828 0.0
C3568 C 0.85896 0.31751 0.43834 0.0
C3569 C 0.86319 0.29964 0.44743 0.0
C3570 C 0.85734 0.29617 0.46661 0.0
C3571 C 0.84694 0.31056 0.47625 0.0
C3572 C 0.84195 0.32772 0.4672 0.0
C3573 C 0.83153 0.34128 0.48083 0.0
C3574 C 0.84265 0.36046 0.48326 0.0
C3575 C 0.81066 0.34489 0.47405 0.0
C3576 C 0.83196 0.32939 0.49918 0.0
C3577 C 0.84092 0.31171 0.49637 0.0
C3578 C 0.84471 0.29921 0.51182 0.0
C3579 C 0.8392 0.30499 0.53058 0.0
C3580 C 0.8298 0.32294 0.53353 0.0
C3581 C 0.82602 0.33512 0.5176 0.0
H3582 H 0.13483 0.84175 0.96077 0.0
H3583 H 0.19696 0.83614 0.96861 0.0
H3584 H 0.19154 0.82139 0.00055 0.0
H3585 H 0.1266 0.85939 0.00601 0.0
H3586 H 0.1034 0.84793 0.00946 0.0
H3587 H 0.11172 0.85332 0.98543 0.0
H3588 H 0.10762 0.81728 0.9757 0.0
H3589 H 0.09917 0.81178 0.99978 0.0
H3590 H 0.11942 0.79872 0.98976 0.0
H3591 H 0.17958 0.81146 0.03373 0.0
H3592 H 0.16215 0.80928 0.06514 0.0
H3593 H 0.10864 0.82467 0.03629 0.0
C3594 C 0.14734 0.83712 0.96899 0.0
C3595 C 0.16631 0.84005 0.96195 0.0
C3596 C 0.18222 0.83367 0.9733 0.0
C3597 C 0.17931 0.82533 0.9916 0.0
C3598 C 0.16042 0.82348 0.99841 0.0
C3599 C 0.14471 0.82921 0.9874 0.0
C3600 C 0.12613 0.82839 0.99892 0.0
C3601 C 0.11641 0.84845 1.00002 0.0
C3602 C 0.11227 0.81313 0.99054 0.0
C3603 C 0.13394 0.82216 0.01837 0.0
C3604 C 0.15365 0.8188 0.01773 0.0
C3605 C 0.1641 0.81381 0.03432 0.0
C3606 C 0.15416 0.81259 0.05205 0.0
C3607 C 0.13418 0.81689 0.05295 0.0
C3608 C 0.12397 0.82135 0.03588 0.0
H3609 H 0.85482 0.67068 0.9747 0.0
H3610 H 0.80174 0.63886 0.98554 0.0
H3611 H 0.80879 0.63895 0.02046 0.0
H3612 H 0.88323 0.64565 0.0064 0.0
H3613 H 0.89738 0.66585 0.01493 0.0
H3614 H 0.88665 0.66661 0.99123 0.0
H3615 H 0.86912 0.69862 0.99989 0.0
H3616 H 0.87998 0.69808 0.02363 0.0
H3617 H 0.85405 0.6997 0.02117 0.0
H3618 H 0.82437 0.63663 0.05278 0.0
H3619 H 0.84635 0.63509 0.08108 0.0
H3620 H 0.88857 0.66977 0.05031 0.0
C3621 C 0.84441 0.66428 0.98452 0.0
C3622 C 0.8276 0.65503 0.97739 0.0
C3623 C 0.81445 0.6465 0.99065 0.0
C3624 C 0.81838 0.64634 0.01054 0.0
C3625 C 0.83539 0.65499 0.01702 0.0
C3626 C 0.84803 0.66415 0.00449 0.0
C3627 C 0.86605 0.67095 0.01503 0.0
C3628 C 0.8844 0.6617 0.00638 0.0
C3629 C 0.86737 0.69316 0.01492 0.0
C3630 C 0.86196 0.66335 0.0352 0.0
C3631 C 0.84413 0.65427 0.03605 0.0
C3632 C 0.8381 0.64418 0.05248 0.0
C3633 C 0.85066 0.64327 0.0684 0.0
C3634 C 0.86884 0.6526 0.06781 0.0
C3635 C 0.87443 0.66303 0.05118 0.0
H3636 H 0.45906 0.10565 0.15227 0.0
H3637 H 0.43813 0.13555 0.20342 0.0
H3638 H 0.47031 0.15096 0.20741 0.0
H3639 H 0.50727 0.09622 0.16966 0.0
H3640 H 0.51819 0.10002 0.14626 0.0
H3641 H 0.49371 0.09119 0.14793 0.0
H3642 H 0.48182 0.1197 0.12657 0.0
H3643 H 0.50625 0.12854 0.12475 0.0
H3644 H 0.48737 0.1442 0.13367 0.0
H3645 H 0.505 0.16415 0.20458 0.0
H3646 H 0.5385 0.17337 0.1954 0.0
H3647 H 0.53557 0.13412 0.14645 0.0
C3648 C 0.46118 0.11539 0.16438 0.0
C3649 C 0.44608 0.11942 0.17753 0.0
C3650 C 0.44953 0.13224 0.19318 0.0
C3651 C 0.46775 0.14104 0.19556 0.0
C3652 C 0.48233 0.13674 0.18224 0.0
C3653 C 0.47918 0.12416 0.16699 0.0
C3654 C 0.49692 0.12209 0.1544 0.0
C3655 C 0.50446 0.10113 0.15459 0.0
C3656 C 0.49284 0.12905 0.13363 0.0
C3657 C 0.51061 0.13557 0.16481 0.0
C3658 C 0.50205 0.14395 0.18084 0.0
C3659 C 0.51187 0.15752 0.19216 0.0
C3660 C 0.53086 0.16269 0.18685 0.0
C3661 C 0.53979 0.1542 0.17044 0.0
C3662 C 0.52943 0.14044 0.15943 0.0
H3663 H 0.47831 0.36029 0.1614 0.0
H3664 H 0.48759 0.30762 0.12853 0.0
H3665 H 0.52292 0.31117 0.13263 0.0
H3666 H 0.51707 0.38654 0.14295 0.0
H3667 H 0.52371 0.39814 0.16537 0.0
H3668 H 0.49911 0.39054 0.16147 0.0
H3669 H 0.50025 0.3701 0.19292 0.0
H3670 H 0.52487 0.37774 0.19697 0.0
H3671 H 0.51909 0.35231 0.19601 0.0
H3672 H 0.55696 0.32294 0.13617 0.0
H3673 H 0.58766 0.34071 0.14169 0.0
H3674 H 0.55667 0.3841 0.17472 0.0
C3675 C 0.48784 0.34933 0.15549 0.0
C3676 C 0.48035 0.33358 0.14487 0.0
C3677 C 0.49313 0.31959 0.13704 0.0
C3678 C 0.51318 0.32152 0.13923 0.0
C3679 C 0.52019 0.33734 0.14959 0.0
C3680 C 0.50792 0.35082 0.15791 0.0
C3681 C 0.51925 0.36681 0.16776 0.0
C3682 C 0.5145 0.38668 0.15885 0.0
C3683 C 0.51565 0.36672 0.18972 0.0
C3684 C 0.53975 0.36059 0.16305 0.0
C3685 C 0.53996 0.34357 0.15251 0.0
C3686 C 0.55705 0.336 0.14483 0.0
C3687 C 0.57435 0.34616 0.14795 0.0
C3688 C 0.57438 0.36342 0.15892 0.0
C3689 C 0.55696 0.37057 0.16678 0.0
H3690 H 0.51587 0.8472 0.33035 0.0
H3691 H 0.53128 0.86787 0.38768 0.0
H3692 H 0.4986 0.88137 0.39176 0.0
H3693 H 0.4868 0.88842 0.31713 0.0
H3694 H 0.4688 0.87454 0.3043 0.0
H3695 H 0.49332 0.86581 0.30582 0.0
H3696 H 0.481 0.8336 0.32059 0.0
H3697 H 0.45643 0.84225 0.31912 0.0
H3698 H 0.46606 0.83419 0.34199 0.0
H3699 H 0.46494 0.89261 0.39006 0.0
H3700 H 0.4316 0.90222 0.38219 0.0
H3701 H 0.43713 0.87528 0.3256 0.0
C3702 C 0.51226 0.85455 0.34372 0.0
C3703 C 0.52614 0.85675 0.3586 0.0
C3704 C 0.52096 0.86639 0.37595 0.0
C3705 C 0.50241 0.87398 0.37848 0.0
C3706 C 0.48913 0.87182 0.36352 0.0
C3707 C 0.49371 0.86242 0.34645 0.0
C3708 C 0.47663 0.86263 0.33261 0.0
C3709 C 0.48169 0.8735 0.31386 0.0
C3710 C 0.46962 0.84193 0.32833 0.0
C3711 C 0.4619 0.87372 0.34459 0.0
C3712 C 0.46946 0.87868 0.36242 0.0
C3713 C 0.4588 0.88885 0.37615 0.0
C3714 C 0.43985 0.89421 0.37153 0.0
C3715 C 0.43177 0.88955 0.35327 0.0
C3716 C 0.44297 0.87913 0.33963 0.0
H3717 H 0.54843 0.5992 0.3568 0.0
H3718 H 0.56215 0.62567 0.30146 0.0
H3719 H 0.52802 0.6357 0.29789 0.0
H3720 H 0.49945 0.58225 0.34393 0.0
H3721 H 0.4899 0.58772 0.36759 0.0
H3722 H 0.51494 0.58087 0.36489 0.0
H3723 H 0.52569 0.6125 0.38208 0.0
H3724 H 0.50074 0.61924 0.38506 0.0
H3725 H 0.51724 0.63547 0.373 0.0
H3726 H 0.49346 0.64582 0.30199 0.0
H3727 H 0.46168 0.65677 0.3144 0.0
H3728 H 0.47013 0.62284 0.36639 0.0
C3729 C 0.54424 0.60691 0.34381 0.0
C3730 C 0.55795 0.61162 0.32939 0.0
C3731 C 0.55189 0.62187 0.3127 0.0
C3732 C 0.53251 0.62751 0.31047 0.0
C3733 C 0.51935 0.62263 0.32498 0.0
C3734 C 0.52497 0.61258 0.34134 0.0
C3735 C 0.50839 0.61044 0.35551 0.0
C3736 C 0.50285 0.58905 0.35813 0.0
C3737 C 0.51331 0.61999 0.37505 0.0
C3738 C 0.4927 0.62143 0.34487 0.0
C3739 C 0.49923 0.62812 0.32715 0.0
C3740 C 0.48801 0.64028 0.3156 0.0
C3741 C 0.46997 0.64634 0.32266 0.0
C3742 C 0.46336 0.64013 0.34102 0.0
C3743 C 0.47459 0.62708 0.35196 0.0
H3744 H 0.15406 0.52117 0.17285 0.0
H3745 H 0.20633 0.54902 0.15225 0.0
H3746 H 0.21833 0.51731 0.14015 0.0
H3747 H 0.17518 0.47422 0.18667 0.0
H3748 H 0.15446 0.461 0.17791 0.0
H3749 H 0.15151 0.48519 0.18725 0.0
H3750 H 0.13522 0.49574 0.15513 0.0
H3751 H 0.138 0.47161 0.14578 0.0
H3752 H 0.14775 0.49189 0.13255 0.0
H3753 H 0.22353 0.48232 0.12885 0.0
H3754 H 0.21955 0.44896 0.11593 0.0
H3755 H 0.16285 0.4456 0.14246 0.0
C3756 C 0.16827 0.52049 0.16624 0.0
C3757 C 0.17951 0.53736 0.16381 0.0
C3758 C 0.19767 0.53613 0.15441 0.0
C3759 C 0.2046 0.5182 0.14763 0.0
C3760 C 0.19307 0.50178 0.15024 0.0
C3761 C 0.17519 0.50289 0.15918 0.0
C3762 C 0.1645 0.48382 0.15834 0.0
C3763 C 0.16123 0.47557 0.17876 0.0
C3764 C 0.14524 0.4859 0.14728 0.0
C3765 C 0.17894 0.47182 0.14715 0.0
C3766 C 0.19557 0.48218 0.14298 0.0
C3767 C 0.21063 0.47407 0.13217 0.0
C3768 C 0.20833 0.45513 0.12499 0.0
C3769 C 0.19095 0.44486 0.12833 0.0
C3770 C 0.17633 0.45319 0.13985 0.0
H3771 H 0.13912 0.48548 0.31669 0.0
H3772 H 0.18545 0.44929 0.33842 0.0
H3773 H 0.20049 0.47798 0.35393 0.0
H3774 H 0.16756 0.53205 0.31081 0.0
H3775 H 0.14731 0.54607 0.3194 0.0
H3776 H 0.14319 0.52404 0.30601 0.0
H3777 H 0.12205 0.51107 0.33419 0.0
H3778 H 0.1263 0.53286 0.34772 0.0
H3779 H 0.13221 0.5097 0.3582 0.0
H3780 H 0.20791 0.50966 0.37051 0.0
H3781 H 0.20567 0.54047 0.38874 0.0
H3782 H 0.1528 0.55471 0.35812 0.0
C3783 C 0.15293 0.48381 0.32393 0.0
C3784 C 0.16149 0.46539 0.32595 0.0
C3785 C 0.17897 0.46343 0.33642 0.0
C3786 C 0.18759 0.47964 0.3452 0.0
C3787 C 0.17841 0.49757 0.34346 0.0
C3788 C 0.16142 0.4997 0.33306 0.0
C3789 C 0.15265 0.51957 0.33594 0.0
C3790 C 0.15269 0.53111 0.31691 0.0
C3791 C 0.1321 0.5182 0.34453 0.0
C3792 C 0.16683 0.528 0.35029 0.0
C3793 C 0.18194 0.51539 0.35399 0.0
C3794 C 0.19629 0.51973 0.36753 0.0
C3795 C 0.19491 0.53722 0.3778 0.0
C3796 C 0.17903 0.54979 0.37481 0.0
C3797 C 0.16507 0.54527 0.36065 0.0
H3798 H 0.8624 0.9393 0.36034 0.0
H3799 H 0.80027 0.93101 0.35645 0.0
H3800 H 0.79737 0.96181 0.3384 0.0
H3801 H 0.86154 0.98784 0.37011 0.0
H3802 H 0.8827 0.99398 0.35613 0.0
H3803 H 0.88017 0.97003 0.36596 0.0
H3804 H 0.88421 0.95529 0.33163 0.0
H3805 H 0.88687 0.97927 0.32168 0.0
H3806 H 0.86857 0.96322 0.3123 0.0
H3807 H 0.80107 0.99562 0.32405 0.0
H3808 H 0.8112 0.02902 0.31519 0.0
H3809 H 0.87064 0.01434 0.32876 0.0
C3810 C 0.84822 0.94372 0.35535 0.0
C3811 C 0.83157 0.93278 0.35981 0.0
C3812 C 0.81325 0.93915 0.35313 0.0
C3813 C 0.81146 0.95661 0.34283 0.0
C3814 C 0.82816 0.96734 0.33913 0.0
C3815 C 0.84621 0.96099 0.34504 0.0
C3816 C 0.86175 0.97576 0.3407 0.0
C3817 C 0.87213 0.98228 0.35933 0.0
C3818 C 0.8762 0.96791 0.32568 0.0
C3819 C 0.84954 0.9918 0.33227 0.0
C3820 C 0.83024 0.98664 0.33108 0.0
C3821 C 0.81618 0.9997 0.32468 0.0
C3822 C 0.822 0.01859 0.31969 0.0
C3823 C 0.84162 0.02416 0.32149 0.0
C3824 C 0.85551 0.01043 0.32742 0.0
H3825 H 0.37096 0.49228 0.64117 0.0
H3826 H 0.31455 0.47633 0.66365 0.0
H3827 H 0.30325 0.5101 0.65897 0.0
H3828 H 0.37307 0.5392 0.66309 0.0
H3829 H 0.38525 0.55018 0.6428 0.0
H3830 H 0.38863 0.52482 0.64784 0.0
H3831 H 0.37751 0.5162 0.61302 0.0
H3832 H 0.37428 0.54153 0.60782 0.0
H3833 H 0.35446 0.52489 0.60441 0.0
H3834 H 0.29821 0.54587 0.65097 0.0
H3835 H 0.29984 0.58008 0.6403 0.0
H3836 H 0.35995 0.57186 0.62395 0.0
C3837 C 0.35613 0.4958 0.64486 0.0
C3838 C 0.34353 0.48166 0.65254 0.0
C3839 C 0.32441 0.48698 0.6577 0.0
C3840 C 0.31789 0.50609 0.65509 0.0
C3841 C 0.33076 0.51969 0.64751 0.0
C3842 C 0.34949 0.51473 0.64251 0.0
C3843 C 0.36059 0.53193 0.63479 0.0
C3844 C 0.3779 0.53682 0.64792 0.0
C3845 C 0.36708 0.52842 0.61376 0.0
C3846 C 0.34513 0.54735 0.63595 0.0
C3847 C 0.32801 0.54011 0.64334 0.0
C3848 C 0.31158 0.5517 0.64525 0.0
C3849 C 0.31264 0.5711 0.63918 0.0
C3850 C 0.33004 0.57867 0.63137 0.0
C3851 C 0.34648 0.56661 0.63 0.0
H3852 H 0.83432 0.87082 0.48286 0.0
H3853 H 0.83059 0.81135 0.46316 0.0
H3854 H 0.8377 0.79998 0.49651 0.0
H3855 H 0.87408 0.86508 0.51211 0.0
H3856 H 0.86623 0.88157 0.53075 0.0
H3857 H 0.85788 0.8847 0.50631 0.0
H3858 H 0.82225 0.88322 0.51807 0.0
H3859 H 0.8305 0.88018 0.54264 0.0
H3860 H 0.81417 0.86276 0.53211 0.0
H3861 H 0.84926 0.79553 0.5312 0.0
H3862 H 0.86401 0.79829 0.56373 0.0
H3863 H 0.86032 0.8609 0.55994 0.0
C3864 C 0.83475 0.85538 0.48563 0.0
C3865 C 0.83207 0.84192 0.4705 0.0
C3866 C 0.83252 0.82186 0.47464 0.0
C3867 C 0.83655 0.81531 0.4935 0.0
C3868 C 0.83977 0.82905 0.508 0.0
C3869 C 0.83869 0.84868 0.50426 0.0
C3870 C 0.84415 0.86058 0.52179 0.0
C3871 C 0.86162 0.87374 0.51748 0.0
C3872 C 0.82673 0.87238 0.52908 0.0
C3873 C 0.84935 0.84462 0.53582 0.0
C3874 C 0.84642 0.82651 0.52778 0.0
C3875 C 0.85134 0.80963 0.53771 0.0
C3876 C 0.85973 0.81134 0.55617 0.0
C3877 C 0.86333 0.82981 0.56436 0.0
C3878 C 0.85769 0.84657 0.55413 0.0
H3879 H 0.15783 0.61802 0.49639 0.0
H3880 H 0.17024 0.67498 0.4731 0.0
H3881 H 0.16046 0.68978 0.50434 0.0
H3882 H 0.1158 0.6304 0.5216 0.0
H3883 H 0.12049 0.61466 0.54188 0.0
H3884 H 0.13011 0.6088 0.51841 0.0
H3885 H 0.16474 0.60737 0.53285 0.0
H3886 H 0.15522 0.61327 0.55642 0.0
H3887 H 0.17408 0.62794 0.54592 0.0
H3888 H 0.14653 0.69823 0.53748 0.0
H3889 H 0.13005 0.69956 0.56929 0.0
H3890 H 0.12735 0.63678 0.57026 0.0
C3891 C 0.15855 0.63362 0.49787 0.0
C3892 C 0.16461 0.64541 0.48232 0.0
C3893 C 0.16567 0.66572 0.4849 0.0
C3894 C 0.16015 0.67422 0.50256 0.0
C3895 C 0.15389 0.66215 0.51751 0.0
C3896 C 0.15324 0.64226 0.51534 0.0
C3897 C 0.14531 0.63245 0.53321 0.0
C3898 C 0.12683 0.62091 0.52849 0.0
C3899 C 0.16076 0.6195 0.54266 0.0
C3900 C 0.14093 0.64993 0.5456 0.0
C3901 C 0.14616 0.66695 0.53646 0.0
C3902 C 0.14259 0.68498 0.54485 0.0
C3903 C 0.13321 0.68559 0.56291 0.0
C3904 C 0.12743 0.66828 0.57228 0.0
C3905 C 0.13168 0.65028 0.56356 0.0
H3906 H 0.90613 0.16689 0.95069 0.0
H3907 H 0.85601 0.19163 0.92236 0.0
H3908 H 0.83821 0.19109 0.95359 0.0
H3909 H 0.88289 0.13411 0.97759 0.0
H3910 H 0.89785 0.13594 0.9989 0.0
H3911 H 0.90766 0.14214 0.97566 0.0
H3912 H 0.91694 0.17625 0.98828 0.0
H3913 H 0.90734 0.17008 0.01176 0.0
H3914 H 0.89872 0.19133 0.99931 0.0
H3915 H 0.82427 0.18151 0.98642 0.0
H3916 H 0.81616 0.16531 0.01737 0.0
H3917 H 0.87626 0.14861 0.02419 0.0
C3918 C 0.89163 0.17283 0.95125 0.0
C3919 C 0.88239 0.17934 0.93429 0.0
C3920 C 0.86336 0.18681 0.93534 0.0
C3921 C 0.85318 0.18652 0.953 0.0
C3922 C 0.86249 0.17919 0.96942 0.0
C3923 C 0.88149 0.17289 0.9687 0.0
C3924 C 0.88776 0.1639 0.98762 0.0
C3925 C 0.89441 0.14278 0.98475 0.0
C3926 C 0.90363 0.17613 0.99732 0.0
C3927 C 0.86902 0.16498 0.9988 0.0
C3928 C 0.85463 0.17411 0.98828 0.0
C3929 C 0.83557 0.17483 0.99497 0.0
C3930 C 0.83109 0.16563 0.01259 0.0
C3931 C 0.84559 0.1557 0.02317 0.0
C3932 C 0.86486 0.15605 0.01641 0.0
H3933 H 0.13355 0.32802 0.94518 0.0
H3934 H 0.09666 0.3789 0.94266 0.0
H3935 H 0.10237 0.38489 0.97722 0.0
H3936 H 0.12026 0.3124 0.99331 0.0
H3937 H 0.14443 0.30538 0.00019 0.0
H3938 H 0.13718 0.30434 0.97514 0.0
H3939 H 0.16596 0.32646 0.96562 0.0
H3940 H 0.17343 0.32735 0.99059 0.0
H3941 H 0.1689 0.34949 0.97755 0.0
H3942 H 0.11113 0.38541 0.01155 0.0
H3943 H 0.1262 0.38315 0.0436 0.0
H3944 H 0.15876 0.33268 0.02484 0.0
C3945 C 0.12676 0.34042 0.95195 0.0
C3946 C 0.11462 0.35296 0.94125 0.0
C3947 C 0.10609 0.36915 0.95052 0.0
C3948 C 0.1091 0.3726 0.9702 0.0
C3949 C 0.12087 0.35988 0.98041 0.0
C3950 C 0.12989 0.34433 0.97164 0.0
C3951 C 0.14269 0.33364 0.98596 0.0
C3952 C 0.13572 0.3127 0.98881 0.0
C3953 C 0.16401 0.33428 0.97955 0.0
C3954 C 0.13938 0.34569 0.00406 0.0
C3955 C 0.12648 0.36054 0.00047 0.0
C3956 C 0.12118 0.3738 0.01463 0.0
C3957 C 0.12968 0.37223 0.0329 0.0
C3958 C 0.14346 0.35755 0.03689 0.0
C3959 C 0.14818 0.34396 0.02228 0.0
H3960 H 0.47726 0.84311 0.86785 0.0
H3961 H 0.45891 0.83279 0.80878 0.0
H3962 H 0.49248 0.8389 0.79734 0.0
H3963 H 0.50813 0.88151 0.859 0.0
H3964 H 0.52607 0.87452 0.87662 0.0
H3965 H 0.50125 0.86743 0.87988 0.0
H3966 H 0.51173 0.8315 0.88214 0.0
H3967 H 0.53667 0.83836 0.8787 0.0
H3968 H 0.52563 0.82087 0.86278 0.0
H3969 H 0.52731 0.8497 0.79248 0.0
H3970 H 0.56014 0.8639 0.79449 0.0
H3971 H 0.55527 0.86581 0.85711 0.0
C3972 C 0.4804 0.84203 0.85251 0.0
C3973 C 0.46566 0.83777 0.83908 0.0
C3974 C 0.47015 0.83615 0.81918 0.0
C3975 C 0.48912 0.83951 0.81263 0.0
C3976 C 0.50334 0.84401 0.82627 0.0
C3977 C 0.49919 0.84503 0.84583 0.0
C3978 C 0.51668 0.85093 0.85754 0.0
C3979 C 0.51279 0.86971 0.86891 0.0
C3980 C 0.52306 0.83443 0.87108 0.0
C3981 C 0.53116 0.85407 0.84145 0.0
C3982 C 0.52335 0.84974 0.82353 0.0
C3983 C 0.53367 0.85284 0.80645 0.0
C3984 C 0.55229 0.86093 0.80773 0.0
C3985 C 0.56026 0.86594 0.82595 0.0
C3986 C 0.54966 0.86201 0.84297 0.0
H3987 H 0.53137 0.63615 0.8555 0.0
H3988 H 0.51939 0.69455 0.83576 0.0
H3989 H 0.48838 0.68329 0.8217 0.0
H3990 H 0.50767 0.60978 0.81538 0.0
H3991 H 0.49854 0.59144 0.83155 0.0
H3992 H 0.52106 0.6035 0.83688 0.0
H3993 H 0.50778 0.61348 0.87056 0.0
H3994 H 0.48528 0.60152 0.86533 0.0
H3995 H 0.48534 0.62675 0.87203 0.0
H3996 H 0.45678 0.666 0.81316 0.0
H3997 H 0.42775 0.64485 0.81209 0.0
H3998 H 0.46059 0.5987 0.83908 0.0
C3999 C 0.52237 0.64658 0.84802 0.0
C4000 C 0.5278 0.66624 0.84677 0.0
C4001 C 0.51566 0.67935 0.83669 0.0
C4002 C 0.49799 0.67309 0.8287 0.0
C4003 C 0.49279 0.65367 0.83082 0.0
C4004 C 0.50474 0.64063 0.84019 0.0
C4005 C 0.49523 0.62106 0.84235 0.0
C4006 C 0.50629 0.60553 0.83085 0.0
C4007 C 0.49329 0.61539 0.86384 0.0
C4008 C 0.47576 0.62522 0.83335 0.0
C4009 C 0.47466 0.64396 0.82639 0.0
C4010 C 0.4576 0.65124 0.81833 0.0
C4011 C 0.44122 0.63914 0.81773 0.0
C4012 C 0.44202 0.62018 0.82548 0.0
C4013 C 0.45961 0.61312 0.83301 0.0
H4014 H 0.54537 0.10681 0.65573 0.0
H4015 H 0.57891 0.15657 0.67401 0.0
H4016 H 0.54933 0.17696 0.67271 0.0
H4017 H 0.51504 0.12981 0.62284 0.0
H4018 H 0.49364 0.11624 0.6291 0.0
H4019 H 0.51718 0.10568 0.63257 0.0
H4020 H 0.50934 0.09968 0.66879 0.0
H4021 H 0.4857 0.11017 0.66541 0.0
H4022 H 0.50166 0.11963 0.68376 0.0
H4023 H 0.51651 0.1923 0.66539 0.0
H4024 H 0.48334 0.20081 0.65522 0.0
H4025 H 0.47092 0.13986 0.64575 0.0
C4026 C 0.5464 0.12197 0.65964 0.0
C4027 C 0.56429 0.13026 0.66481 0.0
C4028 C 0.56522 0.15004 0.67005 0.0
C4029 C 0.54853 0.16167 0.66933 0.0
C4030 C 0.53105 0.15308 0.66392 0.0
C4031 C 0.52986 0.13357 0.65955 0.0
C4032 C 0.5095 0.12777 0.65407 0.0
C4033 C 0.50881 0.11939 0.63342 0.0
C4034 C 0.50105 0.11347 0.6689 0.0
C4035 C 0.49951 0.14719 0.6552 0.0
C4036 C 0.51211 0.16165 0.6609 0.0
C4037 C 0.50641 0.18102 0.66138 0.0
C4038 C 0.48744 0.18569 0.65568 0.0
C4039 C 0.47432 0.17103 0.6497 0.0
C4040 C 0.48049 0.15152 0.64999 0.0
H4041 H 0.45004 0.38703 0.67968 0.0
H4042 H 0.4205 0.34643 0.6421 0.0
H4043 H 0.44885 0.32459 0.64328 0.0
H4044 H 0.49361 0.38383 0.65639 0.0
H4045 H 0.5087 0.38622 0.67754 0.0
H4046 H 0.48477 0.39641 0.67749 0.0
H4047 H 0.47623 0.37679 0.70832 0.0
H4048 H 0.50022 0.3665 0.70845 0.0
H4049 H 0.47932 0.35087 0.70836 0.0
H4050 H 0.48131 0.30962 0.64476 0.0
H4051 H 0.51643 0.30385 0.64373 0.0
H4052 H 0.52595 0.35467 0.67938 0.0
C4053 C 0.4494 0.37321 0.6723 0.0
C4054 C 0.43315 0.36812 0.66106 0.0
C4055 C 0.43288 0.35038 0.65088 0.0
C4056 C 0.44883 0.33787 0.65161 0.0
C4057 C 0.46493 0.34346 0.66242 0.0
C4058 C 0.4654 0.36077 0.67251 0.0
C4059 C 0.48545 0.36477 0.68048 0.0
C4060 C 0.4936 0.38393 0.67249 0.0
C4061 C 0.48529 0.36473 0.70273 0.0
C4062 C 0.49635 0.34745 0.6726 0.0
C4063 C 0.4841 0.33507 0.66273 0.0
C4064 C 0.491 0.31893 0.65281 0.0
C4065 C 0.51099 0.31568 0.65245 0.0
C4066 C 0.52392 0.32861 0.66176 0.0
C4067 C 0.51639 0.3444 0.67237 0.0
H4068 H 0.86355 0.47416 0.85675 0.0
H4069 H 0.80578 0.46235 0.83526 0.0
H4070 H 0.79603 0.49602 0.84335 0.0
H4071 H 0.85018 0.50335 0.89682 0.0
H4072 H 0.87036 0.51967 0.89418 0.0
H4073 H 0.8725 0.49496 0.8862 0.0
H4074 H 0.88221 0.50682 0.85191 0.0
H4075 H 0.88 0.5316 0.85975 0.0
H4076 H 0.86649 0.52321 0.83907 0.0
H4077 H 0.79264 0.53074 0.85521 0.0
H4078 H 0.79575 0.5634 0.86957 0.0
H4079 H 0.85616 0.55185 0.88247 0.0
C4080 C 0.84878 0.47859 0.85393 0.0
C4081 C 0.83527 0.46566 0.84572 0.0
C4082 C 0.81625 0.4721 0.84168 0.0
C4083 C 0.81064 0.49114 0.8462 0.0
C4084 C 0.82435 0.5035 0.85443 0.0
C4085 C 0.84305 0.49746 0.85815 0.0
C4086 C 0.8551 0.51338 0.86707 0.0
C4087 C 0.86246 0.50748 0.88727 0.0
C4088 C 0.87194 0.51909 0.85365 0.0
C4089 C 0.84015 0.52928 0.8683 0.0
C4090 C 0.82253 0.5234 0.86083 0.0
C4091 C 0.8064 0.53552 0.86097 0.0
C4092 C 0.80831 0.55403 0.86917 0.0
C4093 C 0.82621 0.56017 0.87713 0.0
C4094 C 0.84232 0.54765 0.87643 0.0
H4095 H 0.81532 0.4391 0.62483 0.0
H4096 H 0.8748 0.42927 0.60681 0.0
H4097 H 0.88418 0.4607 0.62037 0.0
H4098 H 0.81434 0.48959 0.61368 0.0
H4099 H 0.79987 0.49648 0.63428 0.0
H4100 H 0.79761 0.47254 0.6242 0.0
H4101 H 0.8052 0.4576 0.65774 0.0
H4102 H 0.8075 0.48152 0.66794 0.0
H4103 H 0.8271 0.46444 0.67018 0.0
H4104 H 0.88742 0.49309 0.63423 0.0
H4105 H 0.88419 0.52596 0.64757 0.0
H4106 H 0.82287 0.51633 0.65721 0.0
C4107 C 0.83033 0.44354 0.6239 0.0
C4108 C 0.84432 0.43166 0.61474 0.0
C4109 C 0.86378 0.43805 0.6137 0.0
C4110 C 0.86931 0.45589 0.62143 0.0
C4111 C 0.85525 0.46729 0.63022 0.0
C4112 C 0.83616 0.46149 0.63156 0.0
C4113 C 0.82398 0.4771 0.64123 0.0
C4114 C 0.80801 0.48435 0.62753 0.0
C4115 C 0.81544 0.46972 0.66041 0.0
C4116 C 0.83921 0.49261 0.64474 0.0
C4117 C 0.85714 0.48643 0.63835 0.0
C4118 C 0.8735 0.49811 0.63935 0.0
C4119 C 0.8715 0.51677 0.64686 0.0
C4120 C 0.85329 0.52366 0.65324 0.0
C4121 C 0.83695 0.51133 0.65248 0.0
H4122 H 0.14857 0.99487 0.6785 0.0
H4123 H 0.17592 0.9629 0.63199 0.0
H4124 H 0.18893 0.99346 0.61858 0.0
H4125 H 0.13154 0.0319 0.65137 0.0
H4126 H 0.1357 0.05103 0.66865 0.0
H4127 H 0.13229 0.02663 0.67694 0.0
H4128 H 0.16469 0.02857 0.69515 0.0
H4129 H 0.16939 0.0527 0.68636 0.0
H4130 H 0.1867 0.03377 0.68212 0.0
H4131 H 0.19504 0.02732 0.6078 0.0
H4132 H 0.19199 0.062 0.59924 0.0
H4133 H 0.15915 0.07221 0.65164 0.0
C4134 C 0.15792 0.99432 0.66592 0.0
C4135 C 0.1616 0.97661 0.65641 0.0
C4136 C 0.17322 0.97637 0.63955 0.0
C4137 C 0.1807 0.99363 0.63192 0.0
C4138 C 0.17637 0.01098 0.64129 0.0
C4139 C 0.16525 0.01146 0.65795 0.0
C4140 C 0.16074 0.03211 0.66388 0.0
C4141 C 0.13877 0.03561 0.66527 0.0
C4142 C 0.17097 0.03707 0.68302 0.0
C4143 C 0.1697 0.04308 0.64712 0.0
C4144 C 0.17933 0.03066 0.63468 0.0
C4145 C 0.18786 0.03721 0.61759 0.0
C4146 C 0.18608 0.05687 0.61284 0.0
C4147 C 0.17557 0.06954 0.62495 0.0
C4148 C 0.16755 0.0627 0.64241 0.0
H4149 H 0.64199 0.52338 0.32721 0.0
H4150 H 0.7012 0.54134 0.33694 0.0
H4151 H 0.71036 0.50718 0.34385 0.0
H4152 H 0.63923 0.49265 0.36552 0.0
H4153 H 0.62399 0.47486 0.354 0.0
H4154 H 0.62329 0.49959 0.34605 0.0
H4155 H 0.63113 0.48869 0.31113 0.0
H4156 H 0.63201 0.46379 0.31886 0.0
H4157 H 0.65242 0.47432 0.30648 0.0
H4158 H 0.71174 0.47195 0.35371 0.0
H4159 H 0.70503 0.43983 0.36803 0.0
H4160 H 0.64447 0.44568 0.35265 0.0
C4161 C 0.65699 0.51992 0.33025 0.0
C4162 C 0.67103 0.53463 0.33136 0.0
C4163 C 0.69041 0.53001 0.33583 0.0
C4164 C 0.69568 0.51071 0.33966 0.0
C4165 C 0.68134 0.49644 0.33883 0.0
C4166 C 0.66237 0.50088 0.33419 0.0
C4167 C 0.64915 0.48364 0.33668 0.0
C4168 C 0.63298 0.48795 0.35145 0.0
C4169 C 0.64069 0.47723 0.31712 0.0
C4170 C 0.66341 0.46895 0.34436 0.0
C4171 C 0.68201 0.47638 0.345 0.0
C4172 C 0.69732 0.46588 0.35296 0.0
C4173 C 0.69339 0.44763 0.36101 0.0
C4174 C 0.67424 0.44032 0.36137 0.0
C4175 C 0.65926 0.45088 0.35241 0.0
H4176 H 0.62992 0.64709 0.94623 0.0
H4177 H 0.63718 0.70939 0.9438 0.0
H4178 H 0.65659 0.70818 0.97402 0.0
H4179 H 0.62202 0.64346 0.99482 0.0
H4180 H 0.63489 0.62101 0.99812 0.0
H4181 H 0.62437 0.62661 0.97502 0.0
H4182 H 0.65778 0.62223 0.95846 0.0
H4183 H 0.66845 0.61648 0.98157 0.0
H4184 H 0.67831 0.63583 0.96711 0.0
H4185 H 0.67155 0.70012 0.00703 0.0
H4186 H 0.68054 0.68606 0.03889 0.0
H4187 H 0.66355 0.62924 0.01839 0.0
C4188 C 0.6359 0.66047 0.95183 0.0
C4189 C 0.63203 0.67834 0.94278 0.0
C4190 C 0.6401 0.69553 0.95051 0.0
C4191 C 0.65113 0.69495 0.96764 0.0
C4192 C 0.65419 0.67705 0.97654 0.0
C4193 C 0.64698 0.66011 0.96868 0.0
C4194 C 0.6509 0.64287 0.98153 0.0
C4195 C 0.63192 0.63292 0.98774 0.0
C4196 C 0.66468 0.62851 0.97157 0.0
C4197 C 0.66063 0.65282 0.99837 0.0
C4198 C 0.66275 0.67247 0.99521 0.0
C4199 C 0.67024 0.6847 0.00949 0.0
C4200 C 0.67532 0.67663 0.0275 0.0
C4201 C 0.6726 0.65663 0.03106 0.0
C4202 C 0.66565 0.64461 0.01609 0.0
H4203 H 0.37009 0.83572 0.03315 0.0
H4204 H 0.30739 0.83682 0.02896 0.0
H4205 H 0.30968 0.83011 0.99399 0.0
H4206 H 0.37798 0.8624 0.99198 0.0
H4207 H 0.39962 0.84985 0.98455 0.0
H4208 H 0.39311 0.85069 0.00974 0.0
H4209 H 0.39384 0.81321 0.01143 0.0
H4210 H 0.40053 0.81224 0.98622 0.0
H4211 H 0.3795 0.79927 0.99464 0.0
H4212 H 0.31895 0.82746 0.95859 0.0
H4213 H 0.33463 0.82945 0.92624 0.0
H4214 H 0.39087 0.83237 0.9537 0.0
C4215 C 0.3568 0.83419 0.025 0.0
C4216 C 0.33857 0.83673 0.03394 0.0
C4217 C 0.32155 0.83455 0.02263 0.0
C4218 C 0.3227 0.83084 0.00268 0.0
C4219 C 0.34095 0.82926 0.99422 0.0
C4220 C 0.35769 0.83077 0.00508 0.0
C4221 C 0.37552 0.8307 0.99237 0.0
C4222 C 0.38723 0.84953 0.99481 0.0
C4223 C 0.38809 0.81278 0.99641 0.0
C4224 C 0.36621 0.82956 0.9726 0.0
C4225 C 0.34627 0.82836 0.97391 0.0
C4226 C 0.33456 0.82811 0.95742 0.0
C4227 C 0.3435 0.82926 0.93917 0.0
C4228 C 0.36382 0.83092 0.93775 0.0
C4229 C 0.37528 0.83091 0.95459 0.0
H4230 H 0.62014 0.32378 0.55701 0.0
H4231 H 0.64519 0.37338 0.58624 0.0
H4232 H 0.66249 0.38236 0.55632 0.0
H4233 H 0.66224 0.31324 0.52428 0.0
H4234 H 0.64664 0.30716 0.50426 0.0
H4235 H 0.63881 0.30267 0.52876 0.0
H4236 H 0.60788 0.32296 0.52258 0.0
H4237 H 0.61564 0.3276 0.49816 0.0
H4238 H 0.6102 0.34754 0.5141 0.0
H4239 H 0.67359 0.38843 0.52288 0.0
H4240 H 0.67779 0.39132 0.48745 0.0
H4241 H 0.64543 0.33823 0.47906 0.0
C4242 C 0.62973 0.33618 0.55719 0.0
C4243 C 0.6315 0.34784 0.57389 0.0
C4244 C 0.64368 0.3643 0.57354 0.0
C4245 C 0.65365 0.36943 0.55667 0.0
C4246 C 0.65119 0.35801 0.54024 0.0
C4247 C 0.63959 0.34168 0.54031 0.0
C4248 C 0.63787 0.33315 0.52013 0.0
C4249 C 0.64693 0.31285 0.51931 0.0
C4250 C 0.61664 0.33281 0.51335 0.0
C4251 C 0.64974 0.34762 0.50864 0.0
C4252 C 0.65753 0.36165 0.52063 0.0
C4253 C 0.66788 0.37736 0.51337 0.0
C4254 C 0.67014 0.37892 0.4933 0.0
C4255 C 0.66207 0.3649 0.48077 0.0
C4256 C 0.65201 0.34889 0.48849 0.0
H4257 H 0.35831 0.14865 0.56107 0.0
H4258 H 0.36311 0.21122 0.55929 0.0
H4259 H 0.34746 0.21139 0.52701 0.0
H4260 H 0.37169 0.14031 0.51474 0.0
H4261 H 0.35544 0.12037 0.51031 0.0
H4262 H 0.36335 0.12548 0.53454 0.0
H4263 H 0.32771 0.12837 0.54595 0.0
H4264 H 0.31962 0.12299 0.52172 0.0
H4265 H 0.31154 0.14475 0.53366 0.0
H4266 H 0.33586 0.20393 0.49273 0.0
H4267 H 0.32887 0.18958 0.4605 0.0
H4268 H 0.33195 0.13216 0.48562 0.0
C4269 C 0.35558 0.16246 0.55415 0.0
C4270 C 0.36187 0.17992 0.56263 0.0
C4271 C 0.3582 0.19768 0.55309 0.0
C4272 C 0.34935 0.1979 0.53475 0.0
C4273 C 0.34402 0.18027 0.52641 0.0
C4274 C 0.34676 0.1629 0.536 0.0
C4275 C 0.34159 0.1458 0.5234 0.0
C4276 C 0.35906 0.13221 0.52058 0.0
C4277 C 0.32407 0.13484 0.53168 0.0
C4278 C 0.33642 0.15614 0.50486 0.0
C4279 C 0.33754 0.17602 0.50686 0.0
C4280 C 0.33462 0.18839 0.49112 0.0
C4281 C 0.33069 0.18016 0.4729 0.0
C4282 C 0.33006 0.15981 0.47062 0.0
C4283 C 0.33254 0.14779 0.48693 0.0
H4284 H 0.93755 0.62153 0.64922 0.0
H4285 H 0.92414 0.64027 0.70766 0.0
H4286 H 0.95566 0.65759 0.70909 0.0
H4287 H 0.98661 0.61171 0.65693 0.0
H4288 H 0.99416 0.61996 0.63335 0.0
H4289 H 0.97013 0.61051 0.63673 0.0
H4290 H 0.95553 0.64226 0.62297 0.0
H4291 H 0.97954 0.65179 0.61944 0.0
H4292 H 0.96218 0.66514 0.63363 0.0
H4293 H 0.99001 0.67193 0.70383 0.0
H4294 H 0.02311 0.68089 0.6928 0.0
H4295 H 0.01258 0.65171 0.63825 0.0
C4296 C 0.94105 0.6294 0.66232 0.0
C4297 C 0.92836 0.62956 0.67834 0.0
C4298 C 0.93364 0.64 0.69519 0.0
C4299 C 0.95149 0.64987 0.6961 0.0
C4300 C 0.96378 0.64915 0.68003 0.0
C4301 C 0.95864 0.63917 0.66346 0.0
C4302 C 0.97441 0.63977 0.64835 0.0
C4303 C 0.98176 0.61927 0.64357 0.0
C4304 C 0.9675 0.65038 0.63002 0.0
C4305 C 0.9895 0.65138 0.65902 0.0
C4306 C 0.98319 0.6569 0.67721 0.0
C4307 C 0.99502 0.66766 0.68961 0.0
C4308 C 0.01374 0.67271 0.68325 0.0
C4309 C 0.02045 0.66674 0.66481 0.0
C4310 C 0.008 0.65616 0.65258 0.0
H4311 H 0.97353 0.8572 0.63397 0.0
H4312 H 0.9644 0.82727 0.68839 0.0
H4313 H 0.99706 0.83765 0.69938 0.0
H4314 H 0.02437 0.84648 0.62914 0.0
H4315 H 0.0298 0.86977 0.61869 0.0
H4316 H 0.00627 0.8591 0.6152 0.0
H4317 H 0.99013 0.88988 0.62945 0.0
H4318 H 0.01358 0.90064 0.63297 0.0
H4319 H 0.99719 0.89826 0.65314 0.0
H4320 H 0.03078 0.85307 0.70452 0.0
H4321 H 0.06168 0.87137 0.70312 0.0
H4322 H 0.04717 0.89088 0.6452 0.0
C4323 C 0.97829 0.8529 0.64828 0.0
C4324 C 0.96633 0.84167 0.66047 0.0
C4325 C 0.97335 0.83591 0.67885 0.0
C4326 C 0.99184 0.84177 0.68519 0.0
C4327 C 0.00311 0.85319 0.67286 0.0
C4328 C 0.99653 0.85855 0.65474 0.0
C4329 C 0.01102 0.87107 0.64421 0.0
C4330 C 0.01829 0.861 0.62572 0.0
C4331 C 0.00247 0.89115 0.63969 0.0
C4332 C 0.02674 0.87229 0.65932 0.0
C4333 C 0.0221 0.86183 0.67574 0.0
C4334 C 0.03453 0.86123 0.69168 0.0
C4335 C 0.05203 0.87167 0.69078 0.0
C4336 C 0.05683 0.88259 0.67408 0.0
C4337 C 0.04398 0.88271 0.6582 0.0
H4338 H 0.93502 0.35673 0.86041 0.0
H4339 H 0.9335 0.36785 0.79861 0.0
H4340 H 0.96514 0.35152 0.79496 0.0
H4341 H 0.98222 0.36814 0.86698 0.0
H4342 H 0.98721 0.35 0.88506 0.0
H4343 H 0.96301 0.35899 0.88212 0.0
H4344 H 0.95032 0.32393 0.87649 0.0
H4345 H 0.97463 0.31516 0.87999 0.0
H4346 H 0.96156 0.30903 0.85823 0.0
H4347 H 0.9992 0.33897 0.79901 0.0
H4348 H 0.03251 0.33213 0.81073 0.0
H4349 H 0.01107 0.32884 0.8695 0.0
C4350 C 0.94109 0.35531 0.84602 0.0
C4351 C 0.93184 0.36355 0.82981 0.0
C4352 C 0.94034 0.36157 0.81125 0.0
C4353 C 0.95825 0.35223 0.80902 0.0
C4354 C 0.96727 0.34471 0.82544 0.0
C4355 C 0.95884 0.34602 0.84357 0.0
C4356 C 0.9723 0.33892 0.85925 0.0
C4357 C 0.97643 0.35497 0.87421 0.0
C4358 C 0.96421 0.32066 0.86905 0.0
C4359 C 0.99 0.3343 0.84727 0.0
C4360 C 0.98678 0.33734 0.82774 0.0
C4361 C 0.00175 0.33605 0.81419 0.0
C4362 C 0.02057 0.33215 0.82089 0.0
C4363 C 0.02404 0.32981 0.84089 0.0
C4364 C 0.00852 0.33025 0.85408 0.0
H4365 H 0.06446 0.1331 0.82151 0.0
H4366 H 0.0658 0.09237 0.8694 0.0
H4367 H 0.03043 0.09436 0.87224 0.0
H4368 H 0.0284 0.16354 0.84201 0.0
H4369 H 0.01649 0.16899 0.81944 0.0
H4370 H 0.04187 0.16307 0.81965 0.0
H4371 H 0.03564 0.13547 0.795 0.0
H4372 H 0.01019 0.14126 0.79481 0.0
H4373 H 0.01801 0.11703 0.80054 0.0
H4374 H 0.99596 0.10175 0.87161 0.0
H4375 H 0.96376 0.11608 0.86936 0.0
H4376 H 0.98316 0.15245 0.82173 0.0
C4377 C 0.0572 0.12448 0.83242 0.0
C4378 C 0.06783 0.11255 0.84522 0.0
C4379 C 0.05796 0.10169 0.85952 0.0
C4380 C 0.03784 0.10258 0.86116 0.0
C4381 C 0.02777 0.11449 0.84845 0.0
C4382 C 0.037 0.12541 0.83446 0.0
C4383 C 0.02262 0.13817 0.82378 0.0
C4384 C 0.02765 0.15972 0.82638 0.0
C4385 C 0.02156 0.13265 0.80225 0.0
C4386 C 0.00402 0.13292 0.83428 0.0
C4387 C 0.00742 0.119 0.84821 0.0
C4388 C 0.99297 0.11241 0.86053 0.0
C4389 C 0.97457 0.12057 0.85894 0.0
C4390 C 0.9706 0.13521 0.84507 0.0
C4391 C 0.98558 0.14121 0.83238 0.0
H4392 H 0.63061 0.01732 0.65816 0.0
H4393 H 0.68961 0.0316 0.67379 0.0
H4394 H 0.69966 0.99782 0.66642 0.0
H4395 H 0.63163 0.96662 0.67693 0.0
H4396 H 0.61639 0.95822 0.6575 0.0
H4397 H 0.61384 0.98259 0.6665 0.0
H4398 H 0.61903 0.99589 0.63173 0.0
H4399 H 0.6217 0.97165 0.62269 0.0
H4400 H 0.64056 0.9892 0.61856 0.0
H4401 H 0.70351 0.96344 0.65337 0.0
H4402 H 0.70087 0.932 0.63628 0.0
H4403 H 0.63901 0.94087 0.63001 0.0
C4404 C 0.6456 0.0132 0.6603 0.0
C4405 C 0.65943 0.02691 0.66637 0.0
C4406 C 0.67887 0.02116 0.66916 0.0
C4407 C 0.68464 0.00205 0.66505 0.0
C4408 C 0.67067 0.98893 0.65859 0.0
C4409 C 0.65148 0.99426 0.65651 0.0
C4410 C 0.63941 0.97798 0.64828 0.0
C4411 C 0.62444 0.97093 0.66319 0.0
C4412 C 0.62962 0.98405 0.62919 0.0
C4413 C 0.65495 0.96295 0.64497 0.0
C4414 C 0.67284 0.9693 0.65132 0.0
C4415 C 0.68952 0.95823 0.64863 0.0
C4416 C 0.68789 0.94041 0.63889 0.0
C4417 C 0.66974 0.93402 0.63179 0.0
C4418 C 0.65309 0.94531 0.63529 0.0
H4419 H 0.66386 0.04346 0.89466 0.0
H4420 H 0.67915 0.07558 0.84306 0.0
H4421 H 0.68016 0.04488 0.82429 0.0
H4422 H 0.69443 0.99998 0.88342 0.0
H4423 H 0.6768 0.98387 0.89394 0.0
H4424 H 0.67963 0.00806 0.90335 0.0
H4425 H 0.64305 0.01441 0.89786 0.0
H4426 H 0.64013 0.99038 0.88835 0.0
H4427 H 0.63291 0.01098 0.87405 0.0
H4428 H 0.6737 0.01131 0.81061 0.0
H4429 H 0.66282 0.97808 0.80355 0.0
H4430 H 0.65592 0.96752 0.86518 0.0
C4431 C 0.66787 0.0439 0.8795 0.0
C4432 C 0.67142 0.06165 0.87017 0.0
C4433 C 0.67656 0.06194 0.85037 0.0
C4434 C 0.67715 0.04463 0.83967 0.0
C4435 C 0.67314 0.02726 0.84924 0.0
C4436 C 0.66905 0.02678 0.86884 0.0
C4437 C 0.66435 0.00652 0.87562 0.0
C4438 C 0.67972 0.99918 0.88993 0.0
C4439 C 0.6439 0.00553 0.88448 0.0
C4440 C 0.66541 0.99576 0.85661 0.0
C4441 C 0.67056 0.00787 0.84154 0.0
C4442 C 0.67024 0.00156 0.82237 0.0
C4443 C 0.66413 0.98253 0.81852 0.0
C4444 C 0.65851 0.96997 0.83379 0.0
C4445 C 0.6599 0.97665 0.85308 0.0
H4446 H 0.31945 0.43737 0.86297 0.0
H4447 H 0.35428 0.43915 0.9152 0.0
H4448 H 0.35727 0.47453 0.91217 0.0
H4449 H 0.34749 0.47122 0.8374 0.0
H4450 H 0.32759 0.48265 0.82497 0.0
H4451 H 0.32564 0.45779 0.83254 0.0
H4452 H 0.29441 0.46597 0.85164 0.0
H4453 H 0.29629 0.4909 0.84413 0.0
H4454 H 0.29488 0.485 0.86951 0.0
H4455 H 0.35932 0.50835 0.90237 0.0
H4456 H 0.36209 0.53921 0.88545 0.0
H4457 H 0.32587 0.51705 0.8389 0.0
C4458 C 0.32732 0.44537 0.87392 0.0
C4459 C 0.33654 0.43569 0.8894 0.0
C4460 C 0.34716 0.44639 0.90324 0.0
C4461 C 0.34881 0.46648 0.90172 0.0
C4462 C 0.33987 0.47564 0.88618 0.0
C4463 C 0.32941 0.46553 0.87242 0.0
C4464 C 0.32301 0.47887 0.85615 0.0
C4465 C 0.33144 0.47223 0.83661 0.0
C4466 C 0.30082 0.48027 0.85532 0.0
C4467 C 0.33194 0.49785 0.86274 0.0
C4468 C 0.34128 0.4956 0.88028 0.0
C4469 C 0.35171 0.51049 0.88884 0.0
C4470 C 0.353 0.52814 0.8791 0.0
C4471 C 0.34385 0.53095 0.8609 0.0
C4472 C 0.33293 0.51556 0.85281 0.0
H4473 H 0.86424 0.04235 0.11899 0.0
H4474 H 0.80303 0.05361 0.12759 0.0
H4475 H 0.7994 0.02143 0.14299 0.0
H4476 H 0.85937 0.99447 0.1051 0.0
H4477 H 0.8811 0.98613 0.1169 0.0
H4478 H 0.87933 0.01086 0.10894 0.0
H4479 H 0.88674 0.02303 0.14378 0.0
H4480 H 0.88899 0.99825 0.15155 0.0
H4481 H 0.87237 0.01425 0.16373 0.0
H4482 H 0.80237 0.98667 0.15551 0.0
H4483 H 0.81171 0.9528 0.16339 0.0
H4484 H 0.87051 0.96501 0.14526 0.0
C4485 C 0.85011 0.03827 0.12444 0.0
C4486 C 0.83393 0.05051 0.12215 0.0
C4487 C 0.81566 0.04448 0.12927 0.0
C4488 C 0.81346 0.02624 0.13805 0.0
C4489 C 0.82968 0.01431 0.13961 0.0
C4490 C 0.84767 0.02019 0.13307 0.0
C4491 C 0.86259 0.00435 0.13515 0.0
C4492 C 0.87108 0.99862 0.11534 0.0
C4493 C 0.87861 0.01034 0.14941 0.0
C4494 C 0.85014 0.98842 0.14341 0.0
C4495 C 0.83125 0.99441 0.1462 0.0
C4496 C 0.81713 0.98187 0.15344 0.0
C4497 C 0.82251 0.96272 0.15783 0.0
C4498 C 0.8417 0.95635 0.15459 0.0
C4499 C 0.85564 0.96946 0.14751 0.0
H4500 H 0.36302 0.34896 0.9568 0.0
H4501 H 0.32853 0.29658 0.95725 0.0
H4502 H 0.33827 0.2906 0.99139 0.0
H4503 H 0.40234 0.33279 0.9884 0.0
H4504 H 0.4041 0.35609 1.00003 0.0
H4505 H 0.39625 0.35447 0.97521 0.0
H4506 H 0.36505 0.37333 0.98408 0.0
H4507 H 0.37253 0.37466 0.009 0.0
H4508 H 0.34943 0.36418 0.00287 0.0
H4509 H 0.35115 0.29144 0.026 0.0
H4510 H 0.3654 0.29913 0.05801 0.0
H4511 H 0.38912 0.35237 0.03457 0.0
C4512 C 0.3581 0.33585 0.96387 0.0
C4513 C 0.34559 0.32284 0.95434 0.0
C4514 C 0.33854 0.30639 0.96429 0.0
C4515 C 0.34392 0.30298 0.98363 0.0
C4516 C 0.35603 0.31637 0.99274 0.0
C4517 C 0.36297 0.33249 0.98313 0.0
C4518 C 0.37439 0.34559 0.99642 0.0
C4519 C 0.39552 0.34732 0.98961 0.0
C4520 C 0.36477 0.36561 0.99819 0.0
C4521 C 0.37289 0.33434 0.01509 0.0
C4522 C 0.3624 0.31745 0.01271 0.0
C4523 C 0.35937 0.30463 0.028 0.0
C4524 C 0.36747 0.30913 0.0461 0.0
C4525 C 0.37822 0.3264 0.04875 0.0
C4526 C 0.38077 0.33918 0.03305 0.0
H4527 H 0.61051 0.14514 0.05195 0.0
H4528 H 0.64042 0.19761 0.06932 0.0
H4529 H 0.65336 0.20109 0.03604 0.0
H4530 H 0.64734 0.12675 0.02113 0.0
H4531 H 0.63056 0.11705 0.00365 0.0
H4532 H 0.6235 0.11922 0.02863 0.0
H4533 H 0.59368 0.13961 0.01841 0.0
H4534 H 0.60074 0.13763 0.99339 0.0
H4535 H 0.59715 0.16116 0.0041 0.0
H4536 H 0.66401 0.19781 0.0008 0.0
H4537 H 0.67139 0.18803 0.96705 0.0
H4538 H 0.63378 0.13815 0.97349 0.0
C4539 C 0.61977 0.1574 0.04881 0.0
C4540 C 0.62449 0.17109 0.06323 0.0
C4541 C 0.63661 0.18694 0.05847 0.0
C4542 C 0.64399 0.18905 0.03961 0.0
C4543 C 0.63899 0.17526 0.02572 0.0
C4544 C 0.62712 0.15977 0.03014 0.0
C4545 C 0.62408 0.14674 0.01282 0.0
C4546 C 0.63184 0.12623 0.0168 0.0
C4547 C 0.60264 0.14627 0.00683 0.0
C4548 C 0.63626 0.15717 0.99795 0.0
C4549 C 0.64475 0.17361 0.00557 0.0
C4550 C 0.6573 0.18506 0.99465 0.0
C4551 C 0.66142 0.1794 0.97553 0.0
C4552 C 0.65294 0.1625 0.96756 0.0
C4553 C 0.64007 0.15144 0.97895 0.0
H4554 H 0.39479 0.66222 0.46187 0.0
H4555 H 0.36149 0.70853 0.43569 0.0
H4556 H 0.34475 0.71398 0.46713 0.0
H4557 H 0.35781 0.64243 0.48999 0.0
H4558 H 0.3733 0.6366 0.51016 0.0
H4559 H 0.38316 0.6376 0.48608 0.0
H4560 H 0.40866 0.66273 0.49748 0.0
H4561 H 0.39884 0.66181 0.52163 0.0
H4562 H 0.40074 0.68468 0.50919 0.0
H4563 H 0.32967 0.71176 0.50141 0.0
H4564 H 0.31921 0.70329 0.53477 0.0
H4565 H 0.36374 0.65913 0.53723 0.0
C4566 C 0.38408 0.67364 0.46272 0.0
C4567 C 0.37932 0.68489 0.44637 0.0
C4568 C 0.36536 0.69979 0.44812 0.0
C4569 C 0.35579 0.70294 0.46589 0.0
C4570 C 0.36066 0.69128 0.4817 0.0
C4571 C 0.37468 0.67708 0.48022 0.0
C4572 C 0.37714 0.66605 0.49891 0.0
C4573 C 0.37257 0.6444 0.49611 0.0
C4574 C 0.39756 0.669 0.50729 0.0
C4575 C 0.36202 0.6759 0.51119 0.0
C4576 C 0.35259 0.69044 0.50116 0.0
C4577 C 0.3372 0.70062 0.50944 0.0
C4578 C 0.33132 0.69569 0.52835 0.0
C4579 C 0.34092 0.68083 0.53875 0.0
C4580 C 0.35651 0.671 0.52996 0.0
H4581 H 0.63492 0.85903 0.4343 0.0
H4582 H 0.63484 0.79643 0.42945 0.0
H4583 H 0.64886 0.79404 0.46247 0.0
H4584 H 0.67972 0.86354 0.46344 0.0
H4585 H 0.66976 0.88334 0.47723 0.0
H4586 H 0.66254 0.87979 0.45241 0.0
H4587 H 0.62658 0.87879 0.46315 0.0
H4588 H 0.63366 0.88207 0.48798 0.0
H4589 H 0.6191 0.86149 0.48122 0.0
H4590 H 0.65962 0.79897 0.4978 0.0
H4591 H 0.66627 0.81067 0.53116 0.0
H4592 H 0.65854 0.86985 0.51176 0.0
C4593 C 0.63822 0.84479 0.43996 0.0
C4594 C 0.63382 0.82791 0.42933 0.0
C4595 C 0.63827 0.80956 0.43732 0.0
C4596 C 0.64619 0.80808 0.45606 0.0
C4597 C 0.64973 0.8251 0.46642 0.0
C4598 C 0.64606 0.8431 0.45848 0.0
C4599 C 0.64967 0.85921 0.47282 0.0
C4600 C 0.66642 0.87223 0.46607 0.0
C4601 C 0.63115 0.87107 0.4765 0.0
C4602 C 0.6553 0.84751 0.49038 0.0
C4603 C 0.65556 0.82788 0.48647 0.0
C4604 C 0.65965 0.81433 0.50091 0.0
C4605 C 0.66339 0.82107 0.51979 0.0
C4606 C 0.66271 0.84113 0.52403 0.0
C4607 C 0.6589 0.85441 0.509 0.0
H4608 H 0.03965 0.37446 0.31258 0.0
H4609 H 0.0349 0.42682 0.34693 0.0
H4610 H 0.00012 0.42062 0.35181 0.0
H4611 H 0.99035 0.37606 0.29058 0.0
H4612 H 0.98705 0.35025 0.29264 0.0
H4613 H 0.01098 0.36013 0.28924 0.0
H4614 H 0.02274 0.34247 0.32018 0.0
H4615 H 0.99891 0.33255 0.32364 0.0
H4616 H 0.01014 0.34638 0.34271 0.0
H4617 H 0.96728 0.40771 0.35565 0.0
H4618 H 0.93843 0.38766 0.36042 0.0
H4619 H 0.96352 0.34284 0.32402 0.0
C4620 C 0.0311 0.38477 0.32074 0.0
C4621 C 0.03979 0.40119 0.32927 0.0
C4622 C 0.02842 0.41416 0.34031 0.0
C4623 C 0.00866 0.41084 0.34303 0.0
C4624 C 0.0005 0.3944 0.33473 0.0
C4625 C 0.01131 0.38146 0.32391 0.0
C4626 C 0.99933 0.36386 0.31848 0.0
C4627 C 0.99678 0.3625 0.29642 0.0
C4628 C 0.00831 0.34522 0.32675 0.0
C4629 C 0.98034 0.36874 0.32841 0.0
C4630 C 0.9813 0.38661 0.33733 0.0
C4631 C 0.96616 0.39385 0.34843 0.0
C4632 C 0.9497 0.38234 0.35091 0.0
C4633 C 0.94846 0.36369 0.34239 0.0
C4634 C 0.96392 0.35704 0.33066 0.0
H4635 H 0.01582 0.17283 0.32573 0.0
H4636 H 0.04181 0.12069 0.35008 0.0
H4637 H 0.01436 0.10192 0.33905 0.0
H4638 H 0.97038 0.16282 0.34407 0.0
H4639 H 0.95681 0.17248 0.32399 0.0
H4640 H 0.98058 0.18172 0.32923 0.0
H4641 H 0.99153 0.1737 0.29426 0.0
H4642 H 0.96771 0.16444 0.28891 0.0
H4643 H 0.98871 0.14941 0.28513 0.0
H4644 H 0.98283 0.0891 0.33087 0.0
H4645 H 0.94797 0.08335 0.32674 0.0
H4646 H 0.93977 0.1432 0.30966 0.0
C4647 C 0.01603 0.15746 0.32863 0.0
C4648 C 0.0317 0.14854 0.33859 0.0
C4649 C 0.03086 0.12822 0.34184 0.0
C4650 C 0.01505 0.11723 0.33575 0.0
C4651 C 0.99979 0.12659 0.32663 0.0
C4652 C -1e-05 0.14625 0.32313 0.0
C4653 C 0.98045 0.15303 0.31557 0.0
C4654 C 0.97153 0.16841 0.32902 0.0
C4655 C 0.98221 0.16059 0.29472 0.0
C4656 C 0.9691 0.1342 0.31623 0.0
C4657 C 0.98081 0.11912 0.32227 0.0
C4658 C 0.97358 0.10066 0.32576 0.0
C4659 C 0.95376 0.09756 0.32347 0.0
C4660 C 0.94137 0.11279 0.31772 0.0
C4661 C 0.94913 0.13126 0.3136 0.0
H4662 H 0.9946 0.6571 0.13161 0.0
H4663 H 0.97263 0.65346 0.19027 0.0
H4664 H 0.00627 0.65093 0.20259 0.0
H4665 H 0.02892 0.62199 0.13581 0.0
H4666 H 0.04681 0.63354 0.12073 0.0
H4667 H 0.02159 0.63871 0.11716 0.0
H4668 H 0.02837 0.67529 0.12156 0.0
H4669 H 0.05371 0.67036 0.12534 0.0
H4670 H 0.04021 0.68376 0.14321 0.0
H4671 H 0.04194 0.64413 0.20779 0.0
H4672 H 0.07588 0.63298 0.20543 0.0
H4673 H 0.07392 0.64053 0.14312 0.0
C4674 C 0.99689 0.65607 0.14709 0.0
C4675 C 0.98109 0.65531 0.16002 0.0
C4676 C 0.98459 0.65415 0.18017 0.0
C4677 C 0.00363 0.65274 0.18725 0.0
C4678 C 0.01891 0.65285 0.174 0.0
C4679 C 0.01569 0.65468 0.15433 0.0
C4680 C 0.03421 0.65254 0.14286 0.0
C4681 C 0.03279 0.63569 0.1283 0.0
C4682 C 0.03943 0.67162 0.13265 0.0
C4683 C 0.04826 0.64808 0.15904 0.0
C4684 C 0.03932 0.64881 0.17695 0.0
C4685 C 0.04915 0.64384 0.19388 0.0
C4686 C 0.06843 0.63753 0.1924 0.0
C4687 C 0.07751 0.63591 0.17409 0.0
C4688 C 0.06739 0.64173 0.15732 0.0
H4689 H 0.01916 0.82387 0.12132 0.0
H4690 H 0.04265 0.82637 0.17948 0.0
H4691 H 0.01008 0.8347 0.19214 0.0
H4692 H 0.99002 0.86427 0.125 0.0
H4693 H 0.97049 0.85474 0.11053 0.0
H4694 H 0.99479 0.84626 0.1067 0.0
H4695 H 0.98353 0.81088 0.11232 0.0
H4696 H 0.95911 0.81926 0.1161 0.0
H4697 H 0.97088 0.80475 0.13431 0.0
H4698 H 0.97553 0.84637 0.19763 0.0
H4699 H 0.94252 0.86012 0.19551 0.0
H4700 H 0.94256 0.85024 0.13346 0.0
C4701 C 0.01743 0.82596 0.13677 0.0
C4702 C 0.03341 0.82461 0.14944 0.0
C4703 C 0.03054 0.82723 0.16956 0.0
C4704 C 0.01212 0.83198 0.17685 0.0
C4705 C 0.99678 0.83379 0.16381 0.0
C4706 C 0.99928 0.83068 0.1442 0.0
C4707 C 0.98098 0.83484 0.13294 0.0
C4708 C 0.98428 0.85099 0.11792 0.0
C4709 C 0.97317 0.81633 0.12336 0.0
C4710 C 0.96792 0.8415 0.14916 0.0
C4711 C 0.97712 0.84054 0.16692 0.0
C4712 C 0.96813 0.84694 0.18383 0.0
C4713 C 0.94939 0.85475 0.18248 0.0
C4714 C 0.93997 0.85626 0.16431 0.0
C4715 C 0.94931 0.84922 0.14757 0.0
H4716 H 0.34251 0.05728 0.35066 0.0
H4717 H 0.28748 0.05652 0.3809 0.0
H4718 H 0.28067 0.02402 0.3677 0.0
H4719 H 0.32537 0.02915 0.30692 0.0
H4720 H 0.34832 0.01688 0.3049 0.0
H4721 H 0.34732 0.04129 0.31412 0.0
H4722 H 0.36526 0.03024 0.3452 0.0
H4723 H 0.36625 0.00591 0.33608 0.0
H4724 H 0.3554 0.01063 0.35935 0.0
H4725 H 0.28302 0.98949 0.35699 0.0
H4726 H 0.29352 0.95649 0.34743 0.0
H4727 H 0.34551 0.98047 0.32199 0.0
C4728 C 0.32882 0.05045 0.35409 0.0
C4729 C 0.31556 0.05933 0.36681 0.0
C4730 C 0.29781 0.04999 0.37107 0.0
C4731 C 0.29379 0.03154 0.36361 0.0
C4732 C 0.30745 0.02288 0.35156 0.0
C4733 C 0.32445 0.03219 0.3465 0.0
C4734 C 0.33741 0.01918 0.33457 0.0
C4735 C 0.33973 0.0271 0.3139 0.0
C4736 C 0.35723 0.01632 0.3444 0.0
C4737 C 0.32558 0.00074 0.33471 0.0
C4738 C 0.30824 0.00318 0.34441 0.0
C4739 C 0.29619 0.98752 0.34873 0.0
C4740 C 0.3022 0.96888 0.34329 0.0
C4741 C 0.31993 0.96621 0.33346 0.0
C4742 C 0.33148 0.98236 0.32874 0.0
H4743 H 0.36772 0.02648 0.14403 0.0
H4744 H 0.31107 0.03573 0.16937 0.0
H4745 H 0.30307 0.0011 0.16388 0.0
H4746 H 0.35371 0.99217 0.10716 0.0
H4747 H 0.37545 0.97801 0.10997 0.0
H4748 H 0.37582 0.00357 0.11506 0.0
H4749 H 0.389 0.99639 0.14949 0.0
H4750 H 0.38837 0.97078 0.14462 0.0
H4751 H 0.37566 0.98045 0.16526 0.0
H4752 H 0.30172 0.96512 0.15546 0.0
H4753 H 0.30687 0.93135 0.14458 0.0
H4754 H 0.36516 0.94625 0.12646 0.0
C4755 C 0.35344 0.02133 0.14798 0.0
C4756 C 0.33981 0.03379 0.1567 0.0
C4757 C 0.32156 0.02639 0.16241 0.0
C4758 C 0.31697 0.00678 0.15941 0.0
C4759 C 0.33091 0.99482 0.15099 0.0
C4760 C 0.34877 0.00187 0.14539 0.0
C4761 C 0.36155 0.98605 0.13734 0.0
C4762 C 0.36694 0.9902 0.11612 0.0
C4763 C 0.37971 0.98326 0.14993 0.0
C4764 C 0.34803 0.96895 0.13899 0.0
C4765 C 0.33041 0.97422 0.1469 0.0
C4766 C 0.31549 0.96085 0.14932 0.0
C4767 C 0.31856 0.9417 0.14315 0.0
C4768 C 0.33644 0.93615 0.13477 0.0
C4769 C 0.35139 0.94995 0.133 0.0
H4770 H 0.6791 0.47336 0.15286 0.0
H4771 H 0.64244 0.48124 0.20318 0.0
H4772 H 0.64484 0.51672 0.19943 0.0
H4773 H 0.71034 0.51763 0.16139 0.0
H4774 H 0.71193 0.52239 0.13577 0.0
H4775 H 0.70994 0.49782 0.14439 0.0
H4776 H 0.67983 0.49272 0.1226 0.0
H4777 H 0.68158 0.51725 0.11409 0.0
H4778 H 0.65943 0.50882 0.12502 0.0
H4779 H 0.64575 0.55052 0.18631 0.0
H4780 H 0.64813 0.5805 0.16673 0.0
H4781 H 0.68622 0.55121 0.12644 0.0
C4782 C 0.67217 0.48263 0.16345 0.0
C4783 C 0.6608 0.47465 0.17843 0.0
C4784 C 0.65157 0.48711 0.19185 0.0
C4785 C 0.65277 0.50727 0.18977 0.0
C4786 C 0.66359 0.51471 0.17444 0.0
C4787 C 0.67351 0.50278 0.16176 0.0
C4788 C 0.68293 0.51435 0.14569 0.0
C4789 C 0.7051 0.51297 0.14689 0.0
C4790 C 0.67549 0.5079 0.12568 0.0
C4791 C 0.67597 0.53451 0.15074 0.0
C4792 C 0.66487 0.53444 0.16741 0.0
C4793 C 0.6549 0.5509 0.1736 0.0
C4794 C 0.65624 0.56779 0.16239 0.0
C4795 C 0.66767 0.56811 0.14542 0.0
C4796 C 0.67792 0.55141 0.13975 0.0
H4797 H 0.19355 0.956 0.86024 0.0
H4798 H 0.17298 0.9645 0.9189 0.0
H4799 H 0.17877 0.99955 0.91604 0.0
H4800 H 0.22973 0.99776 0.85939 0.0
H4801 H 0.22336 0.00392 0.83484 0.0
H4802 H 0.22229 0.97906 0.84277 0.0
H4803 H 0.18639 0.97704 0.83199 0.0
H4804 H 0.18744 0.00173 0.82394 0.0
H4805 H 0.16931 0.99448 0.84125 0.0
H4806 H 0.18097 0.03304 0.90562 0.0
H4807 H 0.17575 0.06283 0.88755 0.0
H4808 H 0.19586 0.03445 0.83502 0.0
C4809 C 0.19089 0.96529 0.87259 0.0
C4810 C 0.18301 0.95772 0.88983 0.0
C4811 C 0.17905 0.97016 0.90558 0.0
C4812 C 0.18251 0.99003 0.90417 0.0
C4813 C 0.18986 0.99726 0.88685 0.0
C4814 C 0.19392 0.98534 0.87125 0.0
C4815 C 0.19857 0.9972 0.85336 0.0
C4816 C 0.21975 0.99431 0.84724 0.0
C4817 C 0.18459 0.99233 0.83667 0.0
C4818 C 0.19526 0.01751 0.86108 0.0
C4819 C 0.1909 0.01717 0.88059 0.0
C4820 C 0.18487 0.03365 0.89045 0.0
C4821 C 0.1821 0.05071 0.87995 0.0
C4822 C 0.18529 0.05126 0.85964 0.0
C4823 C 0.19309 0.03464 0.85044 0.0
loop_
_geom_bond_atom_site_label_1
_geom_bond_atom_site_label_2
_geom_bond_distance
_geom_bond_site_symmetry_2
_ccdc_geom_bond_type
C0 C1 1.351 . S
C0 N3 1.368 . S
C0 H5 0.931 . S
C1 C0 1.351 . S
C1 N2 1.373 . S
C1 H29 0.930 . S
N2 C1 1.373 . S
N2 C4 1.340 . S
N3 C0 1.368 . S
N3 C4 1.321 . S
N3 Co6 2.135 . S
C4 N2 1.340 . S
C4 N3 1.321 . S
C4 H28 0.930 . S
H5 C0 0.931 . S
Co6 N3 2.135 . S
Co6 N9 2.121 . S
Co6 O14 2.055 . S
Co6 O17 2.039 . S
Co6 N20 2.140 . S
C7 O8 1.227 . S
C7 O17 1.265 . S
O8 C7 1.227 . S
N9 Co6 2.121 . S
N9 C11 1.375 . S
N9 C12 1.313 . S
C10 C11 1.338 . S
C10 N13 1.377 . S
C10 H30 0.930 . S
C11 N9 1.375 . S
C11 C10 1.338 . S
C11 H15 0.931 . S
C12 N9 1.313 . S
C12 N13 1.344 . S
C12 H16 0.930 . S
N13 C10 1.377 . S
N13 C12 1.344 . S
O14 Co6 2.055 . S
O14 C18 1.253 . S
H15 C11 0.931 . S
H16 C12 0.930 . S
O17 Co6 2.039 . S
O17 C7 1.265 . S
C18 O14 1.253 . S
C18 O19 1.227 . S
O19 C18 1.227 . S
N20 Co6 2.140 . S
N20 C23 1.346 . S
N20 C24 1.345 . S
C21 C22 1.387 . S
C21 C25 1.391 . S
C22 C21 1.387 . S
C22 C23 1.369 . S
C22 H31 0.929 . S
C23 N20 1.346 . S
C23 C22 1.369 . S
C23 H26 0.928 . S
C24 N20 1.345 . S
C24 C25 1.371 . S
C24 H27 0.931 . S
C25 C21 1.391 . S
C25 C24 1.371 . S
C25 H32 0.930 . S
H26 C23 0.928 . S
H27 C24 0.931 . S
H28 C4 0.930 . S
H29 C1 0.930 . S
H30 C10 0.930 . S
H31 C22 0.929 . S
H32 C25 0.930 . S
C33 C34 1.351 . S
C33 N36 1.368 . S
C33 H38 0.931 . S
C34 C33 1.351 . S
C34 N35 1.373 . S
C34 H62 0.930 . S
N35 C34 1.373 . S
N35 C37 1.340 . S
N36 C33 1.368 . S
N36 C37 1.321 . S
N36 Co39 2.135 . S
C37 N35 1.340 . S
C37 N36 1.321 . S
C37 H61 0.930 . S
H38 C33 0.931 . S
Co39 N36 2.135 . S
Co39 N42 2.121 . S
Co39 O47 2.055 . S
Co39 O50 2.039 . S
Co39 N53 2.140 . S
C40 O41 1.227 . S
C40 O50 1.265 . S
O41 C40 1.227 . S
N42 Co39 2.121 . S
N42 C44 1.375 . S
N42 C45 1.313 . S
C43 C44 1.338 . S
C43 N46 1.377 . S
C43 H63 0.930 . S
C44 N42 1.375 . S
C44 C43 1.338 . S
C44 H48 0.931 . S
C45 N42 1.313 . S
C45 N46 1.344 . S
C45 H49 0.930 . S
N46 C43 1.377 . S
N46 C45 1.344 . S
O47 Co39 2.055 . S
O47 C51 1.253 . S
H48 C44 0.931 . S
H49 C45 0.930 . S
O50 Co39 2.039 . S
O50 C40 1.265 . S
C51 O47 1.253 . S
C51 O52 1.227 . S
O52 C51 1.227 . S
N53 Co39 2.140 . S
N53 C56 1.346 . S
N53 C57 1.345 . S
C54 C55 1.387 . S
C54 C58 1.391 . S
C55 C54 1.387 . S
C55 C56 1.369 . S
C55 H64 0.929 . S
C56 N53 1.346 . S
C56 C55 1.369 . S
C56 H59 0.928 . S
C57 N53 1.345 . S
C57 C58 1.371 . S
C57 H60 0.931 . S
C58 C54 1.391 . S
C58 C57 1.371 . S
C58 H65 0.930 . S
H59 C56 0.928 . S
H60 C57 0.931 . S
H61 C37 0.930 . S
H62 C34 0.930 . S
H63 C43 0.930 . S
H64 C55 0.929 . S
H65 C58 0.930 . S
C66 C67 1.351 . S
C66 N69 1.368 . S
C66 H71 0.931 . S
C67 C66 1.351 . S
C67 N68 1.373 . S
C67 H95 0.930 . S
N68 C67 1.373 . S
N68 C70 1.340 . S
N69 C66 1.368 . S
N69 C70 1.321 . S
N69 Co72 2.135 . S
C70 N68 1.340 . S
C70 N69 1.321 . S
C70 H94 0.930 . S
H71 C66 0.931 . S
Co72 N69 2.135 . S
Co72 N75 2.121 . S
Co72 O80 2.055 . S
Co72 O83 2.039 . S
Co72 N86 2.140 . S
C73 O74 1.227 . S
C73 O83 1.265 . S
O74 C73 1.227 . S
N75 Co72 2.121 . S
N75 C77 1.375 . S
N75 C78 1.313 . S
C76 C77 1.338 . S
C76 N79 1.377 . S
C76 H96 0.930 . S
C77 N75 1.375 . S
C77 C76 1.338 . S
C77 H81 0.931 . S
C78 N75 1.313 . S
C78 N79 1.344 . S
C78 H82 0.930 . S
N79 C76 1.377 . S
N79 C78 1.344 . S
O80 Co72 2.055 . S
O80 C84 1.253 . S
H81 C77 0.931 . S
H82 C78 0.930 . S
O83 Co72 2.039 . S
O83 C73 1.265 . S
C84 O80 1.253 . S
C84 O85 1.227 . S
O85 C84 1.227 . S
N86 Co72 2.140 . S
N86 C89 1.346 . S
N86 C90 1.345 . S
C87 C88 1.387 . S
C87 C91 1.391 . S
C88 C87 1.387 . S
C88 C89 1.369 . S
C88 H97 0.929 . S
C89 N86 1.346 . S
C89 C88 1.369 . S
C89 H92 0.928 . S
C90 N86 1.345 . S
C90 C91 1.371 . S
C90 H93 0.931 . S
C91 C87 1.391 . S
C91 C90 1.371 . S
C91 H98 0.930 . S
H92 C89 0.928 . S
H93 C90 0.931 . S
H94 C70 0.930 . S
H95 C67 0.930 . S
H96 C76 0.930 . S
H97 C88 0.929 . S
H98 C91 0.930 . S
C99 C100 1.351 . S
C99 N102 1.368 . S
C99 H104 0.931 . S
C100 C99 1.351 . S
C100 N101 1.373 . S
C100 H128 0.930 . S
N101 C100 1.373 . S
N101 C103 1.340 . S
N102 C99 1.368 . S
N102 C103 1.321 . S
N102 Co105 2.135 . S
C103 N101 1.340 . S
C103 N102 1.321 . S
C103 H127 0.930 . S
H104 C99 0.931 . S
Co105 N102 2.135 . S
Co105 N108 2.121 . S
Co105 O113 2.055 . S
Co105 O116 2.039 . S
Co105 N119 2.140 . S
C106 O107 1.227 . S
C106 O116 1.265 . S
O107 C106 1.227 . S
N108 Co105 2.121 . S
N108 C110 1.375 . S
N108 C111 1.313 . S
C109 C110 1.338 . S
C109 N112 1.377 . S
C109 H129 0.930 . S
C110 N108 1.375 . S
C110 C109 1.338 . S
C110 H114 0.931 . S
C111 N108 1.313 . S
C111 N112 1.344 . S
C111 H115 0.930 . S
N112 C109 1.377 . S
N112 C111 1.344 . S
O113 Co105 2.055 . S
O113 C117 1.253 . S
H114 C110 0.931 . S
H115 C111 0.930 . S
O116 Co105 2.039 . S
O116 C106 1.265 . S
C117 O113 1.253 . S
C117 O118 1.227 . S
O118 C117 1.227 . S
N119 Co105 2.140 . S
N119 C122 1.346 . S
N119 C123 1.345 . S
C120 C121 1.387 . S
C120 C124 1.391 . S
C121 C120 1.387 . S
C121 C122 1.369 . S
C121 H130 0.929 . S
C122 N119 1.346 . S
C122 C121 1.369 . S
C122 H125 0.928 . S
C123 N119 1.345 . S
C123 C124 1.371 . S
C123 H126 0.931 . S
C124 C120 1.391 . S
C124 C123 1.371 . S
C124 H131 0.930 . S
H125 C122 0.928 . S
H126 C123 0.931 . S
H127 C103 0.930 . S
H128 C100 0.930 . S
H129 C109 0.930 . S
H130 C121 0.929 . S
H131 C124 0.930 . S
C132 C133 1.351 . S
C132 N135 1.368 . S
C132 H137 0.931 . S
C133 C132 1.351 . S
C133 N134 1.373 . S
C133 H161 0.930 . S
N134 C133 1.373 . S
N134 C136 1.340 . S
N135 C132 1.368 . S
N135 C136 1.321 . S
N135 Co138 2.135 . S
C136 N134 1.340 . S
C136 N135 1.321 . S
C136 H160 0.930 . S
H137 C132 0.931 . S
Co138 N135 2.135 . S
Co138 N141 2.121 . S
Co138 O146 2.055 . S
Co138 O149 2.039 . S
Co138 N152 2.140 . S
C139 O140 1.227 . S
C139 O149 1.265 . S
O140 C139 1.227 . S
N141 Co138 2.121 . S
N141 C143 1.375 . S
N141 C144 1.313 . S
C142 C143 1.338 . S
C142 N145 1.377 . S
C142 H162 0.930 . S
C143 N141 1.375 . S
C143 C142 1.338 . S
C143 H147 0.931 . S
C144 N141 1.313 . S
C144 N145 1.344 . S
C144 H148 0.930 . S
N145 C142 1.377 . S
N145 C144 1.344 . S
O146 Co138 2.055 . S
O146 C150 1.253 . S
H147 C143 0.931 . S
H148 C144 0.930 . S
O149 Co138 2.039 . S
O149 C139 1.265 . S
C150 O146 1.253 . S
C150 O151 1.227 . S
O151 C150 1.227 . S
N152 Co138 2.140 . S
N152 C155 1.346 . S
N152 C156 1.345 . S
C153 C154 1.387 . S
C153 C157 1.391 . S
C154 C153 1.387 . S
C154 C155 1.369 . S
C154 H163 0.929 . S
C155 N152 1.346 . S
C155 C154 1.369 . S
C155 H158 0.928 . S
C156 N152 1.345 . S
C156 C157 1.371 . S
C156 H159 0.931 . S
C157 C153 1.391 . S
C157 C156 1.371 . S
C157 H164 0.930 . S
H158 C155 0.928 . S
H159 C156 0.931 . S
H160 C136 0.930 . S
H161 C133 0.930 . S
H162 C142 0.930 . S
H163 C154 0.929 . S
H164 C157 0.930 . S
C165 C166 1.351 . S
C165 N168 1.368 . S
C165 H170 0.931 . S
C166 C165 1.351 . S
C166 N167 1.373 . S
C166 H194 0.930 . S
N167 C166 1.373 . S
N167 C169 1.340 . S
N168 C165 1.368 . S
N168 C169 1.321 . S
N168 Co171 2.135 . S
C169 N167 1.340 . S
C169 N168 1.321 . S
C169 H193 0.930 . S
H170 C165 0.931 . S
Co171 N168 2.135 . S
Co171 N174 2.121 . S
Co171 O179 2.055 . S
Co171 O182 2.039 . S
Co171 N185 2.140 . S
C172 O173 1.227 . S
C172 O182 1.265 . S
O173 C172 1.227 . S
N174 Co171 2.121 . S
N174 C176 1.375 . S
N174 C177 1.313 . S
C175 C176 1.338 . S
C175 N178 1.377 . S
C175 H195 0.930 . S
C176 N174 1.375 . S
C176 C175 1.338 . S
C176 H180 0.931 . S
C177 N174 1.313 . S
C177 N178 1.344 . S
C177 H181 0.930 . S
N178 C175 1.377 . S
N178 C177 1.344 . S
O179 Co171 2.055 . S
O179 C183 1.253 . S
H180 C176 0.931 . S
H181 C177 0.930 . S
O182 Co171 2.039 . S
O182 C172 1.265 . S
C183 O179 1.253 . S
C183 O184 1.227 . S
O184 C183 1.227 . S
N185 Co171 2.140 . S
N185 C188 1.346 . S
N185 C189 1.345 . S
C186 C187 1.387 . S
C186 C190 1.391 . S
C187 C186 1.387 . S
C187 C188 1.369 . S
C187 H196 0.929 . S
C188 N185 1.346 . S
C188 C187 1.369 . S
C188 H191 0.928 . S
C189 N185 1.345 . S
C189 C190 1.371 . S
C189 H192 0.931 . S
C190 C186 1.391 . S
C190 C189 1.371 . S
C190 H197 0.930 . S
H191 C188 0.928 . S
H192 C189 0.931 . S
H193 C169 0.930 . S
H194 C166 0.930 . S
H195 C175 0.930 . S
H196 C187 0.929 . S
H197 C190 0.930 . S
C198 C199 1.351 . S
C198 N201 1.368 . S
C198 H203 0.931 . S
C199 C198 1.351 . S
C199 N200 1.373 . S
C199 H227 0.930 . S
N200 C199 1.373 . S
N200 C202 1.340 . S
N201 C198 1.368 . S
N201 C202 1.321 . S
N201 Co204 2.135 . S
C202 N200 1.340 . S
C202 N201 1.321 . S
C202 H226 0.930 . S
H203 C198 0.931 . S
Co204 N201 2.135 . S
Co204 N207 2.121 . S
Co204 O212 2.055 . S
Co204 O215 2.039 . S
Co204 N218 2.140 . S
C205 O206 1.227 . S
C205 O215 1.265 . S
O206 C205 1.227 . S
N207 Co204 2.121 . S
N207 C209 1.375 . S
N207 C210 1.313 . S
C208 C209 1.338 . S
C208 N211 1.377 . S
C208 H228 0.930 . S
C209 N207 1.375 . S
C209 C208 1.338 . S
C209 H213 0.931 . S
C210 N207 1.313 . S
C210 N211 1.344 . S
C210 H214 0.930 . S
N211 C208 1.377 . S
N211 C210 1.344 . S
O212 Co204 2.055 . S
O212 C216 1.253 . S
H213 C209 0.931 . S
H214 C210 0.930 . S
O215 Co204 2.039 . S
O215 C205 1.265 . S
C216 O212 1.253 . S
C216 O217 1.227 . S
O217 C216 1.227 . S
N218 Co204 2.140 . S
N218 C221 1.346 . S
N218 C222 1.345 . S
C219 C220 1.387 . S
C219 C223 1.391 . S
C220 C219 1.387 . S
C220 C221 1.369 . S
C220 H229 0.929 . S
C221 N218 1.346 . S
C221 C220 1.369 . S
C221 H224 0.928 . S
C222 N218 1.345 . S
C222 C223 1.371 . S
C222 H225 0.931 . S
C223 C219 1.391 . S
C223 C222 1.371 . S
C223 H230 0.930 . S
H224 C221 0.928 . S
H225 C222 0.931 . S
H226 C202 0.930 . S
H227 C199 0.930 . S
H228 C208 0.930 . S
H229 C220 0.929 . S
H230 C223 0.930 . S
C231 C232 1.351 . S
C231 N234 1.368 . S
C231 H236 0.931 . S
C232 C231 1.351 . S
C232 N233 1.373 . S
C232 H260 0.930 . S
N233 C232 1.373 . S
N233 C235 1.340 . S
N234 C231 1.368 . S
N234 C235 1.321 . S
N234 Co237 2.135 . S
C235 N233 1.340 . S
C235 N234 1.321 . S
C235 H259 0.930 . S
H236 C231 0.931 . S
Co237 N234 2.135 . S
Co237 N240 2.121 . S
Co237 O245 2.055 . S
Co237 O248 2.039 . S
Co237 N251 2.140 . S
C238 O239 1.227 . S
C238 O248 1.265 . S
O239 C238 1.227 . S
N240 Co237 2.121 . S
N240 C242 1.375 . S
N240 C243 1.313 . S
C241 C242 1.338 . S
C241 N244 1.377 . S
C241 H261 0.930 . S
C242 N240 1.375 . S
C242 C241 1.338 . S
C242 H246 0.931 . S
C243 N240 1.313 . S
C243 N244 1.344 . S
C243 H247 0.930 . S
N244 C241 1.377 . S
N244 C243 1.344 . S
O245 Co237 2.055 . S
O245 C249 1.253 . S
H246 C242 0.931 . S
H247 C243 0.930 . S
O248 Co237 2.039 . S
O248 C238 1.265 . S
C249 O245 1.253 . S
C249 O250 1.227 . S
O250 C249 1.227 . S
N251 Co237 2.140 . S
N251 C254 1.346 . S
N251 C255 1.345 . S
C252 C253 1.387 . S
C252 C256 1.391 . S
C253 C252 1.387 . S
C253 C254 1.369 . S
C253 H262 0.929 . S
C254 N251 1.346 . S
C254 C253 1.369 . S
C254 H257 0.928 . S
C255 N251 1.345 . S
C255 C256 1.371 . S
C255 H258 0.931 . S
C256 C252 1.391 . S
C256 C255 1.371 . S
C256 H263 0.930 . S
H257 C254 0.928 . S
H258 C255 0.931 . S
H259 C235 0.930 . S
H260 C232 0.930 . S
H261 C241 0.930 . S
H262 C253 0.929 . S
H263 C256 0.930 . S
C264 C265 1.351 . S
C264 N267 1.368 . S
C264 H269 0.931 . S
C265 C264 1.351 . S
C265 N266 1.373 . S
C265 H293 0.930 . S
N266 C265 1.373 . S
N266 C268 1.340 . S
N267 C264 1.368 . S
N267 C268 1.321 . S
N267 Co270 2.135 . S
C268 N266 1.340 . S
C268 N267 1.321 . S
C268 H292 0.930 . S
H269 C264 0.931 . S
Co270 N267 2.135 . S
Co270 N273 2.121 . S
Co270 O278 2.055 . S
Co270 O281 2.039 . S
Co270 N284 2.140 . S
C271 O272 1.227 . S
C271 O281 1.265 . S
O272 C271 1.227 . S
N273 Co270 2.121 . S
N273 C275 1.375 . S
N273 C276 1.313 . S
C274 C275 1.338 . S
C274 N277 1.377 . S
C274 H294 0.930 . S
C275 N273 1.375 . S
C275 C274 1.338 . S
C275 H279 0.931 . S
C276 N273 1.313 . S
C276 N277 1.344 . S
C276 H280 0.930 . S
N277 C274 1.377 . S
N277 C276 1.344 . S
O278 Co270 2.055 . S
O278 C282 1.253 . S
H279 C275 0.931 . S
H280 C276 0.930 . S
O281 Co270 2.039 . S
O281 C271 1.265 . S
C282 O278 1.253 . S
C282 O283 1.227 . S
O283 C282 1.227 . S
N284 Co270 2.140 . S
N284 C287 1.346 . S
N284 C288 1.345 . S
C285 C286 1.387 . S
C285 C289 1.391 . S
C286 C285 1.387 . S
C286 C287 1.369 . S
C286 H295 0.929 . S
C287 N284 1.346 . S
C287 C286 1.369 . S
C287 H290 0.928 . S
C288 N284 1.345 . S
C288 C289 1.371 . S
C288 H291 0.931 . S
C289 C285 1.391 . S
C289 C288 1.371 . S
C289 H296 0.930 . S
H290 C287 0.928 . S
H291 C288 0.931 . S
H292 C268 0.930 . S
H293 C265 0.930 . S
H294 C274 0.930 . S
H295 C286 0.929 . S
H296 C289 0.930 . S
C297 C298 1.351 . S
C297 N300 1.368 . S
C297 H302 0.931 . S
C298 C297 1.351 . S
C298 N299 1.373 . S
C298 H326 0.930 . S
N299 C298 1.373 . S
N299 C301 1.340 . S
N300 C297 1.368 . S
N300 C301 1.321 . S
N300 Co303 2.135 . S
C301 N299 1.340 . S
C301 N300 1.321 . S
C301 H325 0.930 . S
H302 C297 0.931 . S
Co303 N300 2.135 . S
Co303 N306 2.121 . S
Co303 O311 2.055 . S
Co303 O314 2.039 . S
Co303 N317 2.140 . S
C304 O305 1.227 . S
C304 O314 1.265 . S
O305 C304 1.227 . S
N306 Co303 2.121 . S
N306 C308 1.375 . S
N306 C309 1.313 . S
C307 C308 1.338 . S
C307 N310 1.377 . S
C307 H327 0.930 . S
C308 N306 1.375 . S
C308 C307 1.338 . S
C308 H312 0.931 . S
C309 N306 1.313 . S
C309 N310 1.344 . S
C309 H313 0.930 . S
N310 C307 1.377 . S
N310 C309 1.344 . S
O311 Co303 2.055 . S
O311 C315 1.253 . S
H312 C308 0.931 . S
H313 C309 0.930 . S
O314 Co303 2.039 . S
O314 C304 1.265 . S
C315 O311 1.253 . S
C315 O316 1.227 . S
O316 C315 1.227 . S
N317 Co303 2.140 . S
N317 C320 1.346 . S
N317 C321 1.345 . S
C318 C319 1.387 . S
C318 C322 1.391 . S
C319 C318 1.387 . S
C319 C320 1.369 . S
C319 H328 0.929 . S
C320 N317 1.346 . S
C320 C319 1.369 . S
C320 H323 0.928 . S
C321 N317 1.345 . S
C321 C322 1.371 . S
C321 H324 0.931 . S
C322 C318 1.391 . S
C322 C321 1.371 . S
C322 H329 0.930 . S
H323 C320 0.928 . S
H324 C321 0.931 . S
H325 C301 0.930 . S
H326 C298 0.930 . S
H327 C307 0.930 . S
H328 C319 0.929 . S
H329 C322 0.930 . S
C330 C331 1.351 . S
C330 N333 1.368 . S
C330 H335 0.931 . S
C331 C330 1.351 . S
C331 N332 1.373 . S
C331 H359 0.930 . S
N332 C331 1.373 . S
N332 C334 1.340 . S
N333 C330 1.368 . S
N333 C334 1.321 . S
N333 Co336 2.135 . S
C334 N332 1.340 . S
C334 N333 1.321 . S
C334 H358 0.930 . S
H335 C330 0.931 . S
Co336 N333 2.135 . S
Co336 N339 2.121 . S
Co336 O344 2.055 . S
Co336 O347 2.039 . S
Co336 N350 2.140 . S
C337 O338 1.227 . S
C337 O347 1.265 . S
O338 C337 1.227 . S
N339 Co336 2.121 . S
N339 C341 1.375 . S
N339 C342 1.313 . S
C340 C341 1.338 . S
C340 N343 1.377 . S
C340 H360 0.930 . S
C341 N339 1.375 . S
C341 C340 1.338 . S
C341 H345 0.931 . S
C342 N339 1.313 . S
C342 N343 1.344 . S
C342 H346 0.930 . S
N343 C340 1.377 . S
N343 C342 1.344 . S
O344 Co336 2.055 . S
O344 C348 1.253 . S
H345 C341 0.931 . S
H346 C342 0.930 . S
O347 Co336 2.039 . S
O347 C337 1.265 . S
C348 O344 1.253 . S
C348 O349 1.227 . S
O349 C348 1.227 . S
N350 Co336 2.140 . S
N350 C353 1.346 . S
N350 C354 1.345 . S
C351 C352 1.387 . S
C351 C355 1.391 . S
C352 C351 1.387 . S
C352 C353 1.369 . S
C352 H361 0.929 . S
C353 N350 1.346 . S
C353 C352 1.369 . S
C353 H356 0.928 . S
C354 N350 1.345 . S
C354 C355 1.371 . S
C354 H357 0.931 . S
C355 C351 1.391 . S
C355 C354 1.371 . S
C355 H362 0.930 . S
H356 C353 0.928 . S
H357 C354 0.931 . S
H358 C334 0.930 . S
H359 C331 0.930 . S
H360 C340 0.930 . S
H361 C352 0.929 . S
H362 C355 0.930 . S
C363 C364 1.351 . S
C363 N366 1.368 . S
C363 H368 0.931 . S
C364 C363 1.351 . S
C364 N365 1.373 . S
C364 H392 0.930 . S
N365 C364 1.373 . S
N365 C367 1.340 . S
N366 C363 1.368 . S
N366 C367 1.321 . S
N366 Co369 2.135 . S
C367 N365 1.340 . S
C367 N366 1.321 . S
C367 H391 0.930 . S
H368 C363 0.931 . S
Co369 N366 2.135 . S
Co369 N372 2.121 . S
Co369 O377 2.055 . S
Co369 O380 2.039 . S
Co369 N383 2.140 . S
C370 O371 1.227 . S
C370 O380 1.265 . S
O371 C370 1.227 . S
N372 Co369 2.121 . S
N372 C374 1.375 . S
N372 C375 1.313 . S
C373 C374 1.338 . S
C373 N376 1.377 . S
C373 H393 0.930 . S
C374 N372 1.375 . S
C374 C373 1.338 . S
C374 H378 0.931 . S
C375 N372 1.313 . S
C375 N376 1.344 . S
C375 H379 0.930 . S
N376 C373 1.377 . S
N376 C375 1.344 . S
O377 Co369 2.055 . S
O377 C381 1.253 . S
H378 C374 0.931 . S
H379 C375 0.930 . S
O380 Co369 2.039 . S
O380 C370 1.265 . S
C381 O377 1.253 . S
C381 O382 1.227 . S
O382 C381 1.227 . S
N383 Co369 2.140 . S
N383 C386 1.346 . S
N383 C387 1.345 . S
C384 C385 1.387 . S
C384 C388 1.391 . S
C385 C384 1.387 . S
C385 C386 1.369 . S
C385 H394 0.929 . S
C386 N383 1.346 . S
C386 C385 1.369 . S
C386 H389 0.928 . S
C387 N383 1.345 . S
C387 C388 1.371 . S
C387 H390 0.931 . S
C388 C384 1.391 . S
C388 C387 1.371 . S
C388 H395 0.930 . S
H389 C386 0.928 . S
H390 C387 0.931 . S
H391 C367 0.930 . S
H392 C364 0.930 . S
H393 C373 0.930 . S
H394 C385 0.929 . S
H395 C388 0.930 . S
C396 C397 1.351 . S
C396 N399 1.368 . S
C396 H401 0.931 . S
C397 C396 1.351 . S
C397 N398 1.373 . S
C397 H425 0.930 . S
N398 C397 1.373 . S
N398 C400 1.340 . S
N399 C396 1.368 . S
N399 C400 1.321 . S
N399 Co402 2.135 . S
C400 N398 1.340 . S
C400 N399 1.321 . S
C400 H424 0.930 . S
H401 C396 0.931 . S
Co402 N399 2.135 . S
Co402 N405 2.121 . S
Co402 O410 2.055 . S
Co402 O413 2.039 . S
Co402 N416 2.140 . S
C403 O404 1.227 . S
C403 O413 1.265 . S
O404 C403 1.227 . S
N405 Co402 2.121 . S
N405 C407 1.375 . S
N405 C408 1.313 . S
C406 C407 1.338 . S
C406 N409 1.377 . S
C406 H426 0.930 . S
C407 N405 1.375 . S
C407 C406 1.338 . S
C407 H411 0.931 . S
C408 N405 1.313 . S
C408 N409 1.344 . S
C408 H412 0.930 . S
N409 C406 1.377 . S
N409 C408 1.344 . S
O410 Co402 2.055 . S
O410 C414 1.253 . S
H411 C407 0.931 . S
H412 C408 0.930 . S
O413 Co402 2.039 . S
O413 C403 1.265 . S
C414 O410 1.253 . S
C414 O415 1.227 . S
O415 C414 1.227 . S
N416 Co402 2.140 . S
N416 C419 1.346 . S
N416 C420 1.345 . S
C417 C418 1.387 . S
C417 C421 1.391 . S
C418 C417 1.387 . S
C418 C419 1.369 . S
C418 H427 0.929 . S
C419 N416 1.346 . S
C419 C418 1.369 . S
C419 H422 0.928 . S
C420 N416 1.345 . S
C420 C421 1.371 . S
C420 H423 0.931 . S
C421 C417 1.391 . S
C421 C420 1.371 . S
C421 H428 0.930 . S
H422 C419 0.928 . S
H423 C420 0.931 . S
H424 C400 0.930 . S
H425 C397 0.930 . S
H426 C406 0.930 . S
H427 C418 0.929 . S
H428 C421 0.930 . S
C429 C430 1.351 . S
C429 N432 1.368 . S
C429 H434 0.931 . S
C430 C429 1.351 . S
C430 N431 1.373 . S
C430 H458 0.930 . S
N431 C430 1.373 . S
N431 C433 1.340 . S
N432 C429 1.368 . S
N432 C433 1.321 . S
N432 Co435 2.135 . S
C433 N431 1.340 . S
C433 N432 1.321 . S
C433 H457 0.930 . S
H434 C429 0.931 . S
Co435 N432 2.135 . S
Co435 N438 2.121 . S
Co435 O443 2.055 . S
Co435 O446 2.039 . S
Co435 N449 2.140 . S
C436 O437 1.227 . S
C436 O446 1.265 . S
O437 C436 1.227 . S
N438 Co435 2.121 . S
N438 C440 1.375 . S
N438 C441 1.313 . S
C439 C440 1.338 . S
C439 N442 1.377 . S
C439 H459 0.930 . S
C440 N438 1.375 . S
C440 C439 1.338 . S
C440 H444 0.931 . S
C441 N438 1.313 . S
C441 N442 1.344 . S
C441 H445 0.930 . S
N442 C439 1.377 . S
N442 C441 1.344 . S
O443 Co435 2.055 . S
O443 C447 1.253 . S
H444 C440 0.931 . S
H445 C441 0.930 . S
O446 Co435 2.039 . S
O446 C436 1.265 . S
C447 O443 1.253 . S
C447 O448 1.227 . S
O448 C447 1.227 . S
N449 Co435 2.140 . S
N449 C452 1.346 . S
N449 C453 1.345 . S
C450 C451 1.387 . S
C450 C454 1.391 . S
C451 C450 1.387 . S
C451 C452 1.369 . S
C451 H460 0.929 . S
C452 N449 1.346 . S
C452 C451 1.369 . S
C452 H455 0.928 . S
C453 N449 1.345 . S
C453 C454 1.371 . S
C453 H456 0.931 . S
C454 C450 1.391 . S
C454 C453 1.371 . S
C454 H461 0.930 . S
H455 C452 0.928 . S
H456 C453 0.931 . S
H457 C433 0.930 . S
H458 C430 0.930 . S
H459 C439 0.930 . S
H460 C451 0.929 . S
H461 C454 0.930 . S
C462 C463 1.351 . S
C462 N465 1.368 . S
C462 H467 0.931 . S
C463 C462 1.351 . S
C463 N464 1.373 . S
C463 H491 0.930 . S
N464 C463 1.373 . S
N464 C466 1.340 . S
N465 C462 1.368 . S
N465 C466 1.321 . S
N465 Co468 2.135 . S
C466 N464 1.340 . S
C466 N465 1.321 . S
C466 H490 0.930 . S
H467 C462 0.931 . S
Co468 N465 2.135 . S
Co468 N471 2.121 . S
Co468 O476 2.055 . S
Co468 O479 2.039 . S
Co468 N482 2.140 . S
C469 O470 1.227 . S
C469 O479 1.265 . S
O470 C469 1.227 . S
N471 Co468 2.121 . S
N471 C473 1.375 . S
N471 C474 1.313 . S
C472 C473 1.338 . S
C472 N475 1.377 . S
C472 H492 0.930 . S
C473 N471 1.375 . S
C473 C472 1.338 . S
C473 H477 0.931 . S
C474 N471 1.313 . S
C474 N475 1.344 . S
C474 H478 0.930 . S
N475 C472 1.377 . S
N475 C474 1.344 . S
O476 Co468 2.055 . S
O476 C480 1.253 . S
H477 C473 0.931 . S
H478 C474 0.930 . S
O479 Co468 2.039 . S
O479 C469 1.265 . S
C480 O476 1.253 . S
C480 O481 1.227 . S
O481 C480 1.227 . S
N482 Co468 2.140 . S
N482 C485 1.346 . S
N482 C486 1.345 . S
C483 C484 1.387 . S
C483 C487 1.391 . S
C484 C483 1.387 . S
C484 C485 1.369 . S
C484 H493 0.929 . S
C485 N482 1.346 . S
C485 C484 1.369 . S
C485 H488 0.928 . S
C486 N482 1.345 . S
C486 C487 1.371 . S
C486 H489 0.931 . S
C487 C483 1.391 . S
C487 C486 1.371 . S
C487 H494 0.930 . S
H488 C485 0.928 . S
H489 C486 0.931 . S
H490 C466 0.930 . S
H491 C463 0.930 . S
H492 C472 0.930 . S
H493 C484 0.929 . S
H494 C487 0.930 . S
C495 C496 1.351 . S
C495 N498 1.368 . S
C495 H500 0.931 . S
C496 C495 1.351 . S
C496 N497 1.373 . S
C496 H524 0.930 . S
N497 C496 1.373 . S
N497 C499 1.340 . S
N498 C495 1.368 . S
N498 C499 1.321 . S
N498 Co501 2.135 . S
C499 N497 1.340 . S
C499 N498 1.321 . S
C499 H523 0.930 . S
H500 C495 0.931 . S
Co501 N498 2.135 . S
Co501 N504 2.121 . S
Co501 O509 2.055 . S
Co501 O512 2.039 . S
Co501 N515 2.140 . S
C502 O503 1.227 . S
C502 O512 1.265 . S
O503 C502 1.227 . S
N504 Co501 2.121 . S
N504 C506 1.375 . S
N504 C507 1.313 . S
C505 C506 1.338 . S
C505 N508 1.377 . S
C505 H525 0.930 . S
C506 N504 1.375 . S
C506 C505 1.338 . S
C506 H510 0.931 . S
C507 N504 1.313 . S
C507 N508 1.344 . S
C507 H511 0.930 . S
N508 C505 1.377 . S
N508 C507 1.344 . S
O509 Co501 2.055 . S
O509 C513 1.253 . S
H510 C506 0.931 . S
H511 C507 0.930 . S
O512 Co501 2.039 . S
O512 C502 1.265 . S
C513 O509 1.253 . S
C513 O514 1.227 . S
O514 C513 1.227 . S
N515 Co501 2.140 . S
N515 C518 1.346 . S
N515 C519 1.345 . S
C516 C517 1.387 . S
C516 C520 1.391 . S
C517 C516 1.387 . S
C517 C518 1.369 . S
C517 H526 0.929 . S
C518 N515 1.346 . S
C518 C517 1.369 . S
C518 H521 0.928 . S
C519 N515 1.345 . S
C519 C520 1.371 . S
C519 H522 0.931 . S
C520 C516 1.391 . S
C520 C519 1.371 . S
C520 H527 0.930 . S
H521 C518 0.928 . S
H522 C519 0.931 . S
H523 C499 0.930 . S
H524 C496 0.930 . S
H525 C505 0.930 . S
H526 C517 0.929 . S
H527 C520 0.930 . S
C528 C529 1.351 . S
C528 N531 1.368 . S
C528 H533 0.931 . S
C529 C528 1.351 . S
C529 N530 1.373 . S
C529 H557 0.930 . S
N530 C529 1.373 . S
N530 C532 1.340 . S
N531 C528 1.368 . S
N531 C532 1.321 . S
N531 Co534 2.135 . S
C532 N530 1.340 . S
C532 N531 1.321 . S
C532 H556 0.930 . S
H533 C528 0.931 . S
Co534 N531 2.135 . S
Co534 N537 2.121 . S
Co534 O542 2.055 . S
Co534 O545 2.039 . S
Co534 N548 2.140 . S
C535 O536 1.227 . S
C535 O545 1.265 . S
O536 C535 1.227 . S
N537 Co534 2.121 . S
N537 C539 1.375 . S
N537 C540 1.313 . S
C538 C539 1.338 . S
C538 N541 1.377 . S
C538 H558 0.930 . S
C539 N537 1.375 . S
C539 C538 1.338 . S
C539 H543 0.931 . S
C540 N537 1.313 . S
C540 N541 1.344 . S
C540 H544 0.930 . S
N541 C538 1.377 . S
N541 C540 1.344 . S
O542 Co534 2.055 . S
O542 C546 1.253 . S
H543 C539 0.931 . S
H544 C540 0.930 . S
O545 Co534 2.039 . S
O545 C535 1.265 . S
C546 O542 1.253 . S
C546 O547 1.227 . S
O547 C546 1.227 . S
N548 Co534 2.140 . S
N548 C551 1.346 . S
N548 C552 1.345 . S
C549 C550 1.387 . S
C549 C553 1.391 . S
C550 C549 1.387 . S
C550 C551 1.369 . S
C550 H559 0.929 . S
C551 N548 1.346 . S
C551 C550 1.369 . S
C551 H554 0.928 . S
C552 N548 1.345 . S
C552 C553 1.371 . S
C552 H555 0.931 . S
C553 C549 1.391 . S
C553 C552 1.371 . S
C553 H560 0.930 . S
H554 C551 0.928 . S
H555 C552 0.931 . S
H556 C532 0.930 . S
H557 C529 0.930 . S
H558 C538 0.930 . S
H559 C550 0.929 . S
H560 C553 0.930 . S
C561 C562 1.351 . S
C561 N564 1.368 . S
C561 H566 0.931 . S
C562 C561 1.351 . S
C562 N563 1.373 . S
C562 H590 0.930 . S
N563 C562 1.373 . S
N563 C565 1.340 . S
N564 C561 1.368 . S
N564 C565 1.321 . S
N564 Co567 2.135 . S
C565 N563 1.340 . S
C565 N564 1.321 . S
C565 H589 0.930 . S
H566 C561 0.931 . S
Co567 N564 2.135 . S
Co567 N570 2.121 . S
Co567 O575 2.055 . S
Co567 O578 2.039 . S
Co567 N581 2.140 . S
C568 O569 1.227 . S
C568 O578 1.265 . S
O569 C568 1.227 . S
N570 Co567 2.121 . S
N570 C572 1.375 . S
N570 C573 1.313 . S
C571 C572 1.338 . S
C571 N574 1.377 . S
C571 H591 0.930 . S
C572 N570 1.375 . S
C572 C571 1.338 . S
C572 H576 0.931 . S
C573 N570 1.313 . S
C573 N574 1.344 . S
C573 H577 0.930 . S
N574 C571 1.377 . S
N574 C573 1.344 . S
O575 Co567 2.055 . S
O575 C579 1.253 . S
H576 C572 0.931 . S
H577 C573 0.930 . S
O578 Co567 2.039 . S
O578 C568 1.265 . S
C579 O575 1.253 . S
C579 O580 1.227 . S
O580 C579 1.227 . S
N581 Co567 2.140 . S
N581 C584 1.346 . S
N581 C585 1.345 . S
C582 C583 1.387 . S
C582 C586 1.391 . S
C583 C582 1.387 . S
C583 C584 1.369 . S
C583 H592 0.929 . S
C584 N581 1.346 . S
C584 C583 1.369 . S
C584 H587 0.928 . S
C585 N581 1.345 . S
C585 C586 1.371 . S
C585 H588 0.931 . S
C586 C582 1.391 . S
C586 C585 1.371 . S
C586 H593 0.930 . S
H587 C584 0.928 . S
H588 C585 0.931 . S
H589 C565 0.930 . S
H590 C562 0.930 . S
H591 C571 0.930 . S
H592 C583 0.929 . S
H593 C586 0.930 . S
C594 C595 1.351 . S
C594 N597 1.368 . S
C594 H599 0.931 . S
C595 C594 1.351 . S
C595 N596 1.373 . S
C595 H623 0.930 . S
N596 C595 1.373 . S
N596 C598 1.340 . S
N597 C594 1.368 . S
N597 C598 1.321 . S
N597 Co600 2.135 . S
C598 N596 1.340 . S
C598 N597 1.321 . S
C598 H622 0.930 . S
H599 C594 0.931 . S
Co600 N597 2.135 . S
Co600 N603 2.121 . S
Co600 O608 2.055 . S
Co600 O611 2.039 . S
Co600 N614 2.140 . S
C601 O602 1.227 . S
C601 O611 1.265 . S
O602 C601 1.227 . S
N603 Co600 2.121 . S
N603 C605 1.375 . S
N603 C606 1.313 . S
C604 C605 1.338 . S
C604 N607 1.377 . S
C604 H624 0.930 . S
C605 N603 1.375 . S
C605 C604 1.338 . S
C605 H609 0.931 . S
C606 N603 1.313 . S
C606 N607 1.344 . S
C606 H610 0.930 . S
N607 C604 1.377 . S
N607 C606 1.344 . S
O608 Co600 2.055 . S
O608 C612 1.253 . S
H609 C605 0.931 . S
H610 C606 0.930 . S
O611 Co600 2.039 . S
O611 C601 1.265 . S
C612 O608 1.253 . S
C612 O613 1.227 . S
O613 C612 1.227 . S
N614 Co600 2.140 . S
N614 C617 1.346 . S
N614 C618 1.345 . S
C615 C616 1.387 . S
C615 C619 1.391 . S
C616 C615 1.387 . S
C616 C617 1.369 . S
C616 H625 0.929 . S
C617 N614 1.346 . S
C617 C616 1.369 . S
C617 H620 0.928 . S
C618 N614 1.345 . S
C618 C619 1.371 . S
C618 H621 0.931 . S
C619 C615 1.391 . S
C619 C618 1.371 . S
C619 H626 0.930 . S
H620 C617 0.928 . S
H621 C618 0.931 . S
H622 C598 0.930 . S
H623 C595 0.930 . S
H624 C604 0.930 . S
H625 C616 0.929 . S
H626 C619 0.930 . S
C627 C628 1.351 . S
C627 N630 1.368 . S
C627 H632 0.931 . S
C628 C627 1.351 . S
C628 N629 1.373 . S
C628 H656 0.930 . S
N629 C628 1.373 . S
N629 C631 1.340 . S
N630 C627 1.368 . S
N630 C631 1.321 . S
N630 Co633 2.135 . S
C631 N629 1.340 . S
C631 N630 1.321 . S
C631 H655 0.930 . S
H632 C627 0.931 . S
Co633 N630 2.135 . S
Co633 N636 2.121 . S
Co633 O641 2.055 . S
Co633 O644 2.039 . S
Co633 N647 2.140 . S
C634 O635 1.227 . S
C634 O644 1.265 . S
O635 C634 1.227 . S
N636 Co633 2.121 . S
N636 C638 1.375 . S
N636 C639 1.313 . S
C637 C638 1.338 . S
C637 N640 1.377 . S
C637 H657 0.930 . S
C638 N636 1.375 . S
C638 C637 1.338 . S
C638 H642 0.931 . S
C639 N636 1.313 . S
C639 N640 1.344 . S
C639 H643 0.930 . S
N640 C637 1.377 . S
N640 C639 1.344 . S
O641 Co633 2.055 . S
O641 C645 1.253 . S
H642 C638 0.931 . S
H643 C639 0.930 . S
O644 Co633 2.039 . S
O644 C634 1.265 . S
C645 O641 1.253 . S
C645 O646 1.227 . S
O646 C645 1.227 . S
N647 Co633 2.140 . S
N647 C650 1.346 . S
N647 C651 1.345 . S
C648 C649 1.387 . S
C648 C652 1.391 . S
C649 C648 1.387 . S
C649 C650 1.369 . S
C649 H658 0.929 . S
C650 N647 1.346 . S
C650 C649 1.369 . S
C650 H653 0.928 . S
C651 N647 1.345 . S
C651 C652 1.371 . S
C651 H654 0.931 . S
C652 C648 1.391 . S
C652 C651 1.371 . S
C652 H659 0.930 . S
H653 C650 0.928 . S
H654 C651 0.931 . S
H655 C631 0.930 . S
H656 C628 0.930 . S
H657 C637 0.930 . S
H658 C649 0.929 . S
H659 C652 0.930 . S
C660 C661 1.351 . S
C660 N663 1.368 . S
C660 H665 0.931 . S
C661 C660 1.351 . S
C661 N662 1.373 . S
C661 H689 0.930 . S
N662 C661 1.373 . S
N662 C664 1.340 . S
N663 C660 1.368 . S
N663 C664 1.321 . S
N663 Co666 2.135 . S
C664 N662 1.340 . S
C664 N663 1.321 . S
C664 H688 0.930 . S
H665 C660 0.931 . S
Co666 N663 2.135 . S
Co666 N669 2.121 . S
Co666 O674 2.055 . S
Co666 O677 2.039 . S
Co666 N680 2.140 . S
C667 O668 1.227 . S
C667 O677 1.265 . S
O668 C667 1.227 . S
N669 Co666 2.121 . S
N669 C671 1.375 . S
N669 C672 1.313 . S
C670 C671 1.338 . S
C670 N673 1.377 . S
C670 H690 0.930 . S
C671 N669 1.375 . S
C671 C670 1.338 . S
C671 H675 0.931 . S
C672 N669 1.313 . S
C672 N673 1.344 . S
C672 H676 0.930 . S
N673 C670 1.377 . S
N673 C672 1.344 . S
O674 Co666 2.055 . S
O674 C678 1.253 . S
H675 C671 0.931 . S
H676 C672 0.930 . S
O677 Co666 2.039 . S
O677 C667 1.265 . S
C678 O674 1.253 . S
C678 O679 1.227 . S
O679 C678 1.227 . S
N680 Co666 2.140 . S
N680 C683 1.346 . S
N680 C684 1.345 . S
C681 C682 1.387 . S
C681 C685 1.391 . S
C682 C681 1.387 . S
C682 C683 1.369 . S
C682 H691 0.929 . S
C683 N680 1.346 . S
C683 C682 1.369 . S
C683 H686 0.928 . S
C684 N680 1.345 . S
C684 C685 1.371 . S
C684 H687 0.931 . S
C685 C681 1.391 . S
C685 C684 1.371 . S
C685 H692 0.930 . S
H686 C683 0.928 . S
H687 C684 0.931 . S
H688 C664 0.930 . S
H689 C661 0.930 . S
H690 C670 0.930 . S
H691 C682 0.929 . S
H692 C685 0.930 . S
C693 C694 1.351 . S
C693 N696 1.368 . S
C693 H698 0.931 . S
C694 C693 1.351 . S
C694 N695 1.373 . S
C694 H722 0.930 . S
N695 C694 1.373 . S
N695 C697 1.340 . S
N696 C693 1.368 . S
N696 C697 1.321 . S
N696 Co699 2.135 . S
C697 N695 1.340 . S
C697 N696 1.321 . S
C697 H721 0.930 . S
H698 C693 0.931 . S
Co699 N696 2.135 . S
Co699 N702 2.121 . S
Co699 O707 2.055 . S
Co699 O710 2.039 . S
Co699 N713 2.140 . S
C700 O701 1.227 . S
C700 O710 1.265 . S
O701 C700 1.227 . S
N702 Co699 2.121 . S
N702 C704 1.375 . S
N702 C705 1.313 . S
C703 C704 1.338 . S
C703 N706 1.377 . S
C703 H723 0.930 . S
C704 N702 1.375 . S
C704 C703 1.338 . S
C704 H708 0.931 . S
C705 N702 1.313 . S
C705 N706 1.344 . S
C705 H709 0.930 . S
N706 C703 1.377 . S
N706 C705 1.344 . S
O707 Co699 2.055 . S
O707 C711 1.253 . S
H708 C704 0.931 . S
H709 C705 0.930 . S
O710 Co699 2.039 . S
O710 C700 1.265 . S
C711 O707 1.253 . S
C711 O712 1.227 . S
O712 C711 1.227 . S
N713 Co699 2.140 . S
N713 C716 1.346 . S
N713 C717 1.345 . S
C714 C715 1.387 . S
C714 C718 1.391 . S
C715 C714 1.387 . S
C715 C716 1.369 . S
C715 H724 0.929 . S
C716 N713 1.346 . S
C716 C715 1.369 . S
C716 H719 0.928 . S
C717 N713 1.345 . S
C717 C718 1.371 . S
C717 H720 0.931 . S
C718 C714 1.391 . S
C718 C717 1.371 . S
C718 H725 0.930 . S
H719 C716 0.928 . S
H720 C717 0.931 . S
H721 C697 0.930 . S
H722 C694 0.930 . S
H723 C703 0.930 . S
H724 C715 0.929 . S
H725 C718 0.930 . S
C726 C727 1.351 . S
C726 N729 1.368 . S
C726 H731 0.931 . S
C727 C726 1.351 . S
C727 N728 1.373 . S
C727 H755 0.930 . S
N728 C727 1.373 . S
N728 C730 1.340 . S
N729 C726 1.368 . S
N729 C730 1.321 . S
N729 Co732 2.135 . S
C730 N728 1.340 . S
C730 N729 1.321 . S
C730 H754 0.930 . S
H731 C726 0.931 . S
Co732 N729 2.135 . S
Co732 N735 2.121 . S
Co732 O740 2.055 . S
Co732 O743 2.039 . S
Co732 N746 2.140 . S
C733 O734 1.227 . S
C733 O743 1.265 . S
O734 C733 1.227 . S
N735 Co732 2.121 . S
N735 C737 1.375 . S
N735 C738 1.313 . S
C736 C737 1.338 . S
C736 N739 1.377 . S
C736 H756 0.930 . S
C737 N735 1.375 . S
C737 C736 1.338 . S
C737 H741 0.931 . S
C738 N735 1.313 . S
C738 N739 1.344 . S
C738 H742 0.930 . S
N739 C736 1.377 . S
N739 C738 1.344 . S
O740 Co732 2.055 . S
O740 C744 1.253 . S
H741 C737 0.931 . S
H742 C738 0.930 . S
O743 Co732 2.039 . S
O743 C733 1.265 . S
C744 O740 1.253 . S
C744 O745 1.227 . S
O745 C744 1.227 . S
N746 Co732 2.140 . S
N746 C749 1.346 . S
N746 C750 1.345 . S
C747 C748 1.387 . S
C747 C751 1.391 . S
C748 C747 1.387 . S
C748 C749 1.369 . S
C748 H757 0.929 . S
C749 N746 1.346 . S
C749 C748 1.369 . S
C749 H752 0.928 . S
C750 N746 1.345 . S
C750 C751 1.371 . S
C750 H753 0.931 . S
C751 C747 1.391 . S
C751 C750 1.371 . S
C751 H758 0.930 . S
H752 C749 0.928 . S
H753 C750 0.931 . S
H754 C730 0.930 . S
H755 C727 0.930 . S
H756 C736 0.930 . S
H757 C748 0.929 . S
H758 C751 0.930 . S
C759 C760 1.351 . S
C759 N762 1.368 . S
C759 H764 0.931 . S
C760 C759 1.351 . S
C760 N761 1.373 . S
C760 H788 0.930 . S
N761 C760 1.373 . S
N761 C763 1.340 . S
N762 C759 1.368 . S
N762 C763 1.321 . S
N762 Co765 2.135 . S
C763 N761 1.340 . S
C763 N762 1.321 . S
C763 H787 0.930 . S
H764 C759 0.931 . S
Co765 N762 2.135 . S
Co765 N768 2.121 . S
Co765 O773 2.055 . S
Co765 O776 2.039 . S
Co765 N779 2.140 . S
C766 O767 1.227 . S
C766 O776 1.265 . S
O767 C766 1.227 . S
N768 Co765 2.121 . S
N768 C770 1.375 . S
N768 C771 1.313 . S
C769 C770 1.338 . S
C769 N772 1.377 . S
C769 H789 0.930 . S
C770 N768 1.375 . S
C770 C769 1.338 . S
C770 H774 0.931 . S
C771 N768 1.313 . S
C771 N772 1.344 . S
C771 H775 0.930 . S
N772 C769 1.377 . S
N772 C771 1.344 . S
O773 Co765 2.055 . S
O773 C777 1.253 . S
H774 C770 0.931 . S
H775 C771 0.930 . S
O776 Co765 2.039 . S
O776 C766 1.265 . S
C777 O773 1.253 . S
C777 O778 1.227 . S
O778 C777 1.227 . S
N779 Co765 2.140 . S
N779 C782 1.346 . S
N779 C783 1.345 . S
C780 C781 1.387 . S
C780 C784 1.391 . S
C781 C780 1.387 . S
C781 C782 1.369 . S
C781 H790 0.929 . S
C782 N779 1.346 . S
C782 C781 1.369 . S
C782 H785 0.928 . S
C783 N779 1.345 . S
C783 C784 1.371 . S
C783 H786 0.931 . S
C784 C780 1.391 . S
C784 C783 1.371 . S
C784 H791 0.930 . S
H785 C782 0.928 . S
H786 C783 0.931 . S
H787 C763 0.930 . S
H788 C760 0.930 . S
H789 C769 0.930 . S
H790 C781 0.929 . S
H791 C784 0.930 . S
C792 C793 1.351 . S
C792 N795 1.368 . S
C792 H797 0.931 . S
C793 C792 1.351 . S
C793 N794 1.373 . S
C793 H821 0.930 . S
N794 C793 1.373 . S
N794 C796 1.340 . S
N795 C792 1.368 . S
N795 C796 1.321 . S
N795 Co798 2.135 . S
C796 N794 1.340 . S
C796 N795 1.321 . S
C796 H820 0.930 . S
H797 C792 0.931 . S
Co798 N795 2.135 . S
Co798 N801 2.121 . S
Co798 O806 2.055 . S
Co798 O809 2.039 . S
Co798 N812 2.140 . S
C799 O800 1.227 . S
C799 O809 1.265 . S
O800 C799 1.227 . S
N801 Co798 2.121 . S
N801 C803 1.375 . S
N801 C804 1.313 . S
C802 C803 1.338 . S
C802 N805 1.377 . S
C802 H822 0.930 . S
C803 N801 1.375 . S
C803 C802 1.338 . S
C803 H807 0.931 . S
C804 N801 1.313 . S
C804 N805 1.344 . S
C804 H808 0.930 . S
N805 C802 1.377 . S
N805 C804 1.344 . S
O806 Co798 2.055 . S
O806 C810 1.253 . S
H807 C803 0.931 . S
H808 C804 0.930 . S
O809 Co798 2.039 . S
O809 C799 1.265 . S
C810 O806 1.253 . S
C810 O811 1.227 . S
O811 C810 1.227 . S
N812 Co798 2.140 . S
N812 C815 1.346 . S
N812 C816 1.345 . S
C813 C814 1.387 . S
C813 C817 1.391 . S
C814 C813 1.387 . S
C814 C815 1.369 . S
C814 H823 0.929 . S
C815 N812 1.346 . S
C815 C814 1.369 . S
C815 H818 0.928 . S
C816 N812 1.345 . S
C816 C817 1.371 . S
C816 H819 0.931 . S
C817 C813 1.391 . S
C817 C816 1.371 . S
C817 H824 0.930 . S
H818 C815 0.928 . S
H819 C816 0.931 . S
H820 C796 0.930 . S
H821 C793 0.930 . S
H822 C802 0.930 . S
H823 C814 0.929 . S
H824 C817 0.930 . S
C825 C826 1.351 . S
C825 N828 1.368 . S
C825 H830 0.931 . S
C826 C825 1.351 . S
C826 N827 1.373 . S
C826 H854 0.930 . S
N827 C826 1.373 . S
N827 C829 1.340 . S
N828 C825 1.368 . S
N828 C829 1.321 . S
N828 Co831 2.135 . S
C829 N827 1.340 . S
C829 N828 1.321 . S
C829 H853 0.930 . S
H830 C825 0.931 . S
Co831 N828 2.135 . S
Co831 N834 2.121 . S
Co831 O839 2.055 . S
Co831 O842 2.039 . S
Co831 N845 2.140 . S
C832 O833 1.227 . S
C832 O842 1.265 . S
O833 C832 1.227 . S
N834 Co831 2.121 . S
N834 C836 1.375 . S
N834 C837 1.313 . S
C835 C836 1.338 . S
C835 N838 1.377 . S
C835 H855 0.930 . S
C836 N834 1.375 . S
C836 C835 1.338 . S
C836 H840 0.931 . S
C837 N834 1.313 . S
C837 N838 1.344 . S
C837 H841 0.930 . S
N838 C835 1.377 . S
N838 C837 1.344 . S
O839 Co831 2.055 . S
O839 C843 1.253 . S
H840 C836 0.931 . S
H841 C837 0.930 . S
O842 Co831 2.039 . S
O842 C832 1.265 . S
C843 O839 1.253 . S
C843 O844 1.227 . S
O844 C843 1.227 . S
N845 Co831 2.140 . S
N845 C848 1.346 . S
N845 C849 1.345 . S
C846 C847 1.387 . S
C846 C850 1.391 . S
C847 C846 1.387 . S
C847 C848 1.369 . S
C847 H856 0.929 . S
C848 N845 1.346 . S
C848 C847 1.369 . S
C848 H851 0.928 . S
C849 N845 1.345 . S
C849 C850 1.371 . S
C849 H852 0.931 . S
C850 C846 1.391 . S
C850 C849 1.371 . S
C850 H857 0.930 . S
H851 C848 0.928 . S
H852 C849 0.931 . S
H853 C829 0.930 . S
H854 C826 0.930 . S
H855 C835 0.930 . S
H856 C847 0.929 . S
H857 C850 0.930 . S
C858 C859 1.351 . S
C858 N861 1.368 . S
C858 H863 0.931 . S
C859 C858 1.351 . S
C859 N860 1.373 . S
C859 H887 0.930 . S
N860 C859 1.373 . S
N860 C862 1.340 . S
N861 C858 1.368 . S
N861 C862 1.321 . S
N861 Co864 2.135 . S
C862 N860 1.340 . S
C862 N861 1.321 . S
C862 H886 0.930 . S
H863 C858 0.931 . S
Co864 N861 2.135 . S
Co864 N867 2.121 . S
Co864 O872 2.055 . S
Co864 O875 2.039 . S
Co864 N878 2.140 . S
C865 O866 1.227 . S
C865 O875 1.265 . S
O866 C865 1.227 . S
N867 Co864 2.121 . S
N867 C869 1.375 . S
N867 C870 1.313 . S
C868 C869 1.338 . S
C868 N871 1.377 . S
C868 H888 0.930 . S
C869 N867 1.375 . S
C869 C868 1.338 . S
C869 H873 0.931 . S
C870 N867 1.313 . S
C870 N871 1.344 . S
C870 H874 0.930 . S
N871 C868 1.377 . S
N871 C870 1.344 . S
O872 Co864 2.055 . S
O872 C876 1.253 . S
H873 C869 0.931 . S
H874 C870 0.930 . S
O875 Co864 2.039 . S
O875 C865 1.265 . S
C876 O872 1.253 . S
C876 O877 1.227 . S
O877 C876 1.227 . S
N878 Co864 2.140 . S
N878 C881 1.346 . S
N878 C882 1.345 . S
C879 C880 1.387 . S
C879 C883 1.391 . S
C880 C879 1.387 . S
C880 C881 1.369 . S
C880 H889 0.929 . S
C881 N878 1.346 . S
C881 C880 1.369 . S
C881 H884 0.928 . S
C882 N878 1.345 . S
C882 C883 1.371 . S
C882 H885 0.931 . S
C883 C879 1.391 . S
C883 C882 1.371 . S
C883 H890 0.930 . S
H884 C881 0.928 . S
H885 C882 0.931 . S
H886 C862 0.930 . S
H887 C859 0.930 . S
H888 C868 0.930 . S
H889 C880 0.929 . S
H890 C883 0.930 . S
C891 C892 1.351 . S
C891 N894 1.368 . S
C891 H896 0.931 . S
C892 C891 1.351 . S
C892 N893 1.373 . S
C892 H920 0.930 . S
N893 C892 1.373 . S
N893 C895 1.340 . S
N894 C891 1.368 . S
N894 C895 1.321 . S
N894 Co897 2.135 . S
C895 N893 1.340 . S
C895 N894 1.321 . S
C895 H919 0.930 . S
H896 C891 0.931 . S
Co897 N894 2.135 . S
Co897 N900 2.121 . S
Co897 O905 2.055 . S
Co897 O908 2.039 . S
Co897 N911 2.140 . S
C898 O899 1.227 . S
C898 O908 1.265 . S
O899 C898 1.227 . S
N900 Co897 2.121 . S
N900 C902 1.375 . S
N900 C903 1.313 . S
C901 C902 1.338 . S
C901 N904 1.377 . S
C901 H921 0.930 . S
C902 N900 1.375 . S
C902 C901 1.338 . S
C902 H906 0.931 . S
C903 N900 1.313 . S
C903 N904 1.344 . S
C903 H907 0.930 . S
N904 C901 1.377 . S
N904 C903 1.344 . S
O905 Co897 2.055 . S
O905 C909 1.253 . S
H906 C902 0.931 . S
H907 C903 0.930 . S
O908 Co897 2.039 . S
O908 C898 1.265 . S
C909 O905 1.253 . S
C909 O910 1.227 . S
O910 C909 1.227 . S
N911 Co897 2.140 . S
N911 C914 1.346 . S
N911 C915 1.345 . S
C912 C913 1.387 . S
C912 C916 1.391 . S
C913 C912 1.387 . S
C913 C914 1.369 . S
C913 H922 0.929 . S
C914 N911 1.346 . S
C914 C913 1.369 . S
C914 H917 0.928 . S
C915 N911 1.345 . S
C915 C916 1.371 . S
C915 H918 0.931 . S
C916 C912 1.391 . S
C916 C915 1.371 . S
C916 H923 0.930 . S
H917 C914 0.928 . S
H918 C915 0.931 . S
H919 C895 0.930 . S
H920 C892 0.930 . S
H921 C901 0.930 . S
H922 C913 0.929 . S
H923 C916 0.930 . S
C924 C925 1.351 . S
C924 N927 1.368 . S
C924 H929 0.931 . S
C925 C924 1.351 . S
C925 N926 1.373 . S
C925 H953 0.930 . S
N926 C925 1.373 . S
N926 C928 1.340 . S
N927 C924 1.368 . S
N927 C928 1.321 . S
N927 Co930 2.135 . S
C928 N926 1.340 . S
C928 N927 1.321 . S
C928 H952 0.930 . S
H929 C924 0.931 . S
Co930 N927 2.135 . S
Co930 N933 2.121 . S
Co930 O938 2.055 . S
Co930 O941 2.039 . S
Co930 N944 2.140 . S
C931 O932 1.227 . S
C931 O941 1.265 . S
O932 C931 1.227 . S
N933 Co930 2.121 . S
N933 C935 1.375 . S
N933 C936 1.313 . S
C934 C935 1.338 . S
C934 N937 1.377 . S
C934 H954 0.930 . S
C935 N933 1.375 . S
C935 C934 1.338 . S
C935 H939 0.931 . S
C936 N933 1.313 . S
C936 N937 1.344 . S
C936 H940 0.930 . S
N937 C934 1.377 . S
N937 C936 1.344 . S
O938 Co930 2.055 . S
O938 C942 1.253 . S
H939 C935 0.931 . S
H940 C936 0.930 . S
O941 Co930 2.039 . S
O941 C931 1.265 . S
C942 O938 1.253 . S
C942 O943 1.227 . S
O943 C942 1.227 . S
N944 Co930 2.140 . S
N944 C947 1.346 . S
N944 C948 1.345 . S
C945 C946 1.387 . S
C945 C949 1.391 . S
C946 C945 1.387 . S
C946 C947 1.369 . S
C946 H955 0.929 . S
C947 N944 1.346 . S
C947 C946 1.369 . S
C947 H950 0.928 . S
C948 N944 1.345 . S
C948 C949 1.371 . S
C948 H951 0.931 . S
C949 C945 1.391 . S
C949 C948 1.371 . S
C949 H956 0.930 . S
H950 C947 0.928 . S
H951 C948 0.931 . S
H952 C928 0.930 . S
H953 C925 0.930 . S
H954 C934 0.930 . S
H955 C946 0.929 . S
H956 C949 0.930 . S
C957 C958 1.351 . S
C957 N960 1.368 . S
C957 H962 0.931 . S
C958 C957 1.351 . S
C958 N959 1.373 . S
C958 H986 0.930 . S
N959 C958 1.373 . S
N959 C961 1.340 . S
N960 C957 1.368 . S
N960 C961 1.321 . S
N960 Co963 2.135 . S
C961 N959 1.340 . S
C961 N960 1.321 . S
C961 H985 0.930 . S
H962 C957 0.931 . S
Co963 N960 2.135 . S
Co963 N966 2.121 . S
Co963 O971 2.055 . S
Co963 O974 2.039 . S
Co963 N977 2.140 . S
C964 O965 1.227 . S
C964 O974 1.265 . S
O965 C964 1.227 . S
N966 Co963 2.121 . S
N966 C968 1.375 . S
N966 C969 1.313 . S
C967 C968 1.338 . S
C967 N970 1.377 . S
C967 H987 0.930 . S
C968 N966 1.375 . S
C968 C967 1.338 . S
C968 H972 0.931 . S
C969 N966 1.313 . S
C969 N970 1.344 . S
C969 H973 0.930 . S
N970 C967 1.377 . S
N970 C969 1.344 . S
O971 Co963 2.055 . S
O971 C975 1.253 . S
H972 C968 0.931 . S
H973 C969 0.930 . S
O974 Co963 2.039 . S
O974 C964 1.265 . S
C975 O971 1.253 . S
C975 O976 1.227 . S
O976 C975 1.227 . S
N977 Co963 2.140 . S
N977 C980 1.346 . S
N977 C981 1.345 . S
C978 C979 1.387 . S
C978 C982 1.391 . S
C979 C978 1.387 . S
C979 C980 1.369 . S
C979 H988 0.929 . S
C980 N977 1.346 . S
C980 C979 1.369 . S
C980 H983 0.928 . S
C981 N977 1.345 . S
C981 C982 1.371 . S
C981 H984 0.931 . S
C982 C978 1.391 . S
C982 C981 1.371 . S
C982 H989 0.930 . S
H983 C980 0.928 . S
H984 C981 0.931 . S
H985 C961 0.930 . S
H986 C958 0.930 . S
H987 C967 0.930 . S
H988 C979 0.929 . S
H989 C982 0.930 . S
C990 C991 1.351 . S
C990 N993 1.368 . S
C990 H995 0.931 . S
C991 C990 1.351 . S
C991 N992 1.373 . S
C991 H1019 0.930 . S
N992 C991 1.373 . S
N992 C994 1.340 . S
N993 C990 1.368 . S
N993 C994 1.321 . S
N993 Co996 2.135 . S
C994 N992 1.340 . S
C994 N993 1.321 . S
C994 H1018 0.930 . S
H995 C990 0.931 . S
Co996 N993 2.135 . S
Co996 N999 2.121 . S
Co996 O1004 2.055 . S
Co996 O1007 2.039 . S
Co996 N1010 2.140 . S
C997 O998 1.227 . S
C997 O1007 1.265 . S
O998 C997 1.227 . S
N999 Co996 2.121 . S
N999 C1001 1.375 . S
N999 C1002 1.313 . S
C1000 C1001 1.338 . S
C1000 N1003 1.377 . S
C1000 H1020 0.930 . S
C1001 N999 1.375 . S
C1001 C1000 1.338 . S
C1001 H1005 0.931 . S
C1002 N999 1.313 . S
C1002 N1003 1.344 . S
C1002 H1006 0.930 . S
N1003 C1000 1.377 . S
N1003 C1002 1.344 . S
O1004 Co996 2.055 . S
O1004 C1008 1.253 . S
H1005 C1001 0.931 . S
H1006 C1002 0.930 . S
O1007 Co996 2.039 . S
O1007 C997 1.265 . S
C1008 O1004 1.253 . S
C1008 O1009 1.227 . S
O1009 C1008 1.227 . S
N1010 Co996 2.140 . S
N1010 C1013 1.346 . S
N1010 C1014 1.345 . S
C1011 C1012 1.387 . S
C1011 C1015 1.391 . S
C1012 C1011 1.387 . S
C1012 C1013 1.369 . S
C1012 H1021 0.929 . S
C1013 N1010 1.346 . S
C1013 C1012 1.369 . S
C1013 H1016 0.928 . S
C1014 N1010 1.345 . S
C1014 C1015 1.371 . S
C1014 H1017 0.931 . S
C1015 C1011 1.391 . S
C1015 C1014 1.371 . S
C1015 H1022 0.930 . S
H1016 C1013 0.928 . S
H1017 C1014 0.931 . S
H1018 C994 0.930 . S
H1019 C991 0.930 . S
H1020 C1000 0.930 . S
H1021 C1012 0.929 . S
H1022 C1015 0.930 . S
C1023 C1024 1.351 . S
C1023 N1026 1.368 . S
C1023 H1028 0.931 . S
C1024 C1023 1.351 . S
C1024 N1025 1.373 . S
C1024 H1052 0.930 . S
N1025 C1024 1.373 . S
N1025 C1027 1.340 . S
N1026 C1023 1.368 . S
N1026 C1027 1.321 . S
N1026 Co1029 2.135 . S
C1027 N1025 1.340 . S
C1027 N1026 1.321 . S
C1027 H1051 0.930 . S
H1028 C1023 0.931 . S
Co1029 N1026 2.135 . S
Co1029 N1032 2.121 . S
Co1029 O1037 2.055 . S
Co1029 O1040 2.039 . S
Co1029 N1043 2.140 . S
C1030 O1031 1.227 . S
C1030 O1040 1.265 . S
O1031 C1030 1.227 . S
N1032 Co1029 2.121 . S
N1032 C1034 1.375 . S
N1032 C1035 1.313 . S
C1033 C1034 1.338 . S
C1033 N1036 1.377 . S
C1033 H1053 0.930 . S
C1034 N1032 1.375 . S
C1034 C1033 1.338 . S
C1034 H1038 0.931 . S
C1035 N1032 1.313 . S
C1035 N1036 1.344 . S
C1035 H1039 0.930 . S
N1036 C1033 1.377 . S
N1036 C1035 1.344 . S
O1037 Co1029 2.055 . S
O1037 C1041 1.253 . S
H1038 C1034 0.931 . S
H1039 C1035 0.930 . S
O1040 Co1029 2.039 . S
O1040 C1030 1.265 . S
C1041 O1037 1.253 . S
C1041 O1042 1.227 . S
O1042 C1041 1.227 . S
N1043 Co1029 2.140 . S
N1043 C1046 1.346 . S
N1043 C1047 1.345 . S
C1044 C1045 1.387 . S
C1044 C1048 1.391 . S
C1045 C1044 1.387 . S
C1045 C1046 1.369 . S
C1045 H1054 0.929 . S
C1046 N1043 1.346 . S
C1046 C1045 1.369 . S
C1046 H1049 0.928 . S
C1047 N1043 1.345 . S
C1047 C1048 1.371 . S
C1047 H1050 0.931 . S
C1048 C1044 1.391 . S
C1048 C1047 1.371 . S
C1048 H1055 0.930 . S
H1049 C1046 0.928 . S
H1050 C1047 0.931 . S
H1051 C1027 0.930 . S
H1052 C1024 0.930 . S
H1053 C1033 0.930 . S
H1054 C1045 0.929 . S
H1055 C1048 0.930 . S
C1056 C1057 1.351 . S
C1056 N1059 1.368 . S
C1056 H1061 0.931 . S
C1057 C1056 1.351 . S
C1057 N1058 1.373 . S
C1057 H1085 0.930 . S
N1058 C1057 1.373 . S
N1058 C1060 1.340 . S
N1059 C1056 1.368 . S
N1059 C1060 1.321 . S
N1059 Co1062 2.135 . S
C1060 N1058 1.340 . S
C1060 N1059 1.321 . S
C1060 H1084 0.930 . S
H1061 C1056 0.931 . S
Co1062 N1059 2.135 . S
Co1062 N1065 2.121 . S
Co1062 O1070 2.055 . S
Co1062 O1073 2.039 . S
Co1062 N1076 2.140 . S
C1063 O1064 1.227 . S
C1063 O1073 1.265 . S
O1064 C1063 1.227 . S
N1065 Co1062 2.121 . S
N1065 C1067 1.375 . S
N1065 C1068 1.313 . S
C1066 C1067 1.338 . S
C1066 N1069 1.377 . S
C1066 H1086 0.930 . S
C1067 N1065 1.375 . S
C1067 C1066 1.338 . S
C1067 H1071 0.931 . S
C1068 N1065 1.313 . S
C1068 N1069 1.344 . S
C1068 H1072 0.930 . S
N1069 C1066 1.377 . S
N1069 C1068 1.344 . S
O1070 Co1062 2.055 . S
O1070 C1074 1.253 . S
H1071 C1067 0.931 . S
H1072 C1068 0.930 . S
O1073 Co1062 2.039 . S
O1073 C1063 1.265 . S
C1074 O1070 1.253 . S
C1074 O1075 1.227 . S
O1075 C1074 1.227 . S
N1076 Co1062 2.140 . S
N1076 C1079 1.346 . S
N1076 C1080 1.345 . S
C1077 C1078 1.387 . S
C1077 C1081 1.391 . S
C1078 C1077 1.387 . S
C1078 C1079 1.369 . S
C1078 H1087 0.929 . S
C1079 N1076 1.346 . S
C1079 C1078 1.369 . S
C1079 H1082 0.928 . S
C1080 N1076 1.345 . S
C1080 C1081 1.371 . S
C1080 H1083 0.931 . S
C1081 C1077 1.391 . S
C1081 C1080 1.371 . S
C1081 H1088 0.930 . S
H1082 C1079 0.928 . S
H1083 C1080 0.931 . S
H1084 C1060 0.930 . S
H1085 C1057 0.930 . S
H1086 C1066 0.930 . S
H1087 C1078 0.929 . S
H1088 C1081 0.930 . S
C1089 C1090 1.351 . S
C1089 N1092 1.368 . S
C1089 H1094 0.931 . S
C1090 C1089 1.351 . S
C1090 N1091 1.373 . S
C1090 H1118 0.930 . S
N1091 C1090 1.373 . S
N1091 C1093 1.340 . S
N1092 C1089 1.368 . S
N1092 C1093 1.321 . S
N1092 Co1095 2.135 . S
C1093 N1091 1.340 . S
C1093 N1092 1.321 . S
C1093 H1117 0.930 . S
H1094 C1089 0.931 . S
Co1095 N1092 2.135 . S
Co1095 N1098 2.121 . S
Co1095 O1103 2.055 . S
Co1095 O1106 2.039 . S
Co1095 N1109 2.140 . S
C1096 O1097 1.227 . S
C1096 O1106 1.265 . S
O1097 C1096 1.227 . S
N1098 Co1095 2.121 . S
N1098 C1100 1.375 . S
N1098 C1101 1.313 . S
C1099 C1100 1.338 . S
C1099 N1102 1.377 . S
C1099 H1119 0.930 . S
C1100 N1098 1.375 . S
C1100 C1099 1.338 . S
C1100 H1104 0.931 . S
C1101 N1098 1.313 . S
C1101 N1102 1.344 . S
C1101 H1105 0.930 . S
N1102 C1099 1.377 . S
N1102 C1101 1.344 . S
O1103 Co1095 2.055 . S
O1103 C1107 1.253 . S
H1104 C1100 0.931 . S
H1105 C1101 0.930 . S
O1106 Co1095 2.039 . S
O1106 C1096 1.265 . S
C1107 O1103 1.253 . S
C1107 O1108 1.227 . S
O1108 C1107 1.227 . S
N1109 Co1095 2.140 . S
N1109 C1112 1.346 . S
N1109 C1113 1.345 . S
C1110 C1111 1.387 . S
C1110 C1114 1.391 . S
C1111 C1110 1.387 . S
C1111 C1112 1.369 . S
C1111 H1120 0.929 . S
C1112 N1109 1.346 . S
C1112 C1111 1.369 . S
C1112 H1115 0.928 . S
C1113 N1109 1.345 . S
C1113 C1114 1.371 . S
C1113 H1116 0.931 . S
C1114 C1110 1.391 . S
C1114 C1113 1.371 . S
C1114 H1121 0.930 . S
H1115 C1112 0.928 . S
H1116 C1113 0.931 . S
H1117 C1093 0.930 . S
H1118 C1090 0.930 . S
H1119 C1099 0.930 . S
H1120 C1111 0.929 . S
H1121 C1114 0.930 . S
C1122 C1123 1.351 . S
C1122 N1125 1.368 . S
C1122 H1127 0.931 . S
C1123 C1122 1.351 . S
C1123 N1124 1.373 . S
C1123 H1151 0.930 . S
N1124 C1123 1.373 . S
N1124 C1126 1.340 . S
N1125 C1122 1.368 . S
N1125 C1126 1.321 . S
N1125 Co1128 2.135 . S
C1126 N1124 1.340 . S
C1126 N1125 1.321 . S
C1126 H1150 0.930 . S
H1127 C1122 0.931 . S
Co1128 N1125 2.135 . S
Co1128 N1131 2.121 . S
Co1128 O1136 2.055 . S
Co1128 O1139 2.039 . S
Co1128 N1142 2.140 . S
C1129 O1130 1.227 . S
C1129 O1139 1.265 . S
O1130 C1129 1.227 . S
N1131 Co1128 2.121 . S
N1131 C1133 1.375 . S
N1131 C1134 1.313 . S
C1132 C1133 1.338 . S
C1132 N1135 1.377 . S
C1132 H1152 0.930 . S
C1133 N1131 1.375 . S
C1133 C1132 1.338 . S
C1133 H1137 0.931 . S
C1134 N1131 1.313 . S
C1134 N1135 1.344 . S
C1134 H1138 0.930 . S
N1135 C1132 1.377 . S
N1135 C1134 1.344 . S
O1136 Co1128 2.055 . S
O1136 C1140 1.253 . S
H1137 C1133 0.931 . S
H1138 C1134 0.930 . S
O1139 Co1128 2.039 . S
O1139 C1129 1.265 . S
C1140 O1136 1.253 . S
C1140 O1141 1.227 . S
O1141 C1140 1.227 . S
N1142 Co1128 2.140 . S
N1142 C1145 1.346 . S
N1142 C1146 1.345 . S
C1143 C1144 1.387 . S
C1143 C1147 1.391 . S
C1144 C1143 1.387 . S
C1144 C1145 1.369 . S
C1144 H1153 0.929 . S
C1145 N1142 1.346 . S
C1145 C1144 1.369 . S
C1145 H1148 0.928 . S
C1146 N1142 1.345 . S
C1146 C1147 1.371 . S
C1146 H1149 0.931 . S
C1147 C1143 1.391 . S
C1147 C1146 1.371 . S
C1147 H1154 0.930 . S
H1148 C1145 0.928 . S
H1149 C1146 0.931 . S
H1150 C1126 0.930 . S
H1151 C1123 0.930 . S
H1152 C1132 0.930 . S
H1153 C1144 0.929 . S
H1154 C1147 0.930 . S
C1155 C1156 1.351 . S
C1155 N1158 1.368 . S
C1155 H1160 0.931 . S
C1156 C1155 1.351 . S
C1156 N1157 1.373 . S
C1156 H1184 0.930 . S
N1157 C1156 1.373 . S
N1157 C1159 1.340 . S
N1158 C1155 1.368 . S
N1158 C1159 1.321 . S
N1158 Co1161 2.135 . S
C1159 N1157 1.340 . S
C1159 N1158 1.321 . S
C1159 H1183 0.930 . S
H1160 C1155 0.931 . S
Co1161 N1158 2.135 . S
Co1161 N1164 2.121 . S
Co1161 O1169 2.055 . S
Co1161 O1172 2.039 . S
Co1161 N1175 2.140 . S
C1162 O1163 1.227 . S
C1162 O1172 1.265 . S
O1163 C1162 1.227 . S
N1164 Co1161 2.121 . S
N1164 C1166 1.375 . S
N1164 C1167 1.313 . S
C1165 C1166 1.338 . S
C1165 N1168 1.377 . S
C1165 H1185 0.930 . S
C1166 N1164 1.375 . S
C1166 C1165 1.338 . S
C1166 H1170 0.931 . S
C1167 N1164 1.313 . S
C1167 N1168 1.344 . S
C1167 H1171 0.930 . S
N1168 C1165 1.377 . S
N1168 C1167 1.344 . S
O1169 Co1161 2.055 . S
O1169 C1173 1.253 . S
H1170 C1166 0.931 . S
H1171 C1167 0.930 . S
O1172 Co1161 2.039 . S
O1172 C1162 1.265 . S
C1173 O1169 1.253 . S
C1173 O1174 1.227 . S
O1174 C1173 1.227 . S
N1175 Co1161 2.140 . S
N1175 C1178 1.346 . S
N1175 C1179 1.345 . S
C1176 C1177 1.387 . S
C1176 C1180 1.391 . S
C1177 C1176 1.387 . S
C1177 C1178 1.369 . S
C1177 H1186 0.929 . S
C1178 N1175 1.346 . S
C1178 C1177 1.369 . S
C1178 H1181 0.928 . S
C1179 N1175 1.345 . S
C1179 C1180 1.371 . S
C1179 H1182 0.931 . S
C1180 C1176 1.391 . S
C1180 C1179 1.371 . S
C1180 H1187 0.930 . S
H1181 C1178 0.928 . S
H1182 C1179 0.931 . S
H1183 C1159 0.930 . S
H1184 C1156 0.930 . S
H1185 C1165 0.930 . S
H1186 C1177 0.929 . S
H1187 C1180 0.930 . S
C1188 C1189 1.351 . S
C1188 N1191 1.368 . S
C1188 H1193 0.931 . S
C1189 C1188 1.351 . S
C1189 N1190 1.373 . S
C1189 H1217 0.930 . S
N1190 C1189 1.373 . S
N1190 C1192 1.340 . S
N1191 C1188 1.368 . S
N1191 C1192 1.321 . S
N1191 Co1194 2.135 . S
C1192 N1190 1.340 . S
C1192 N1191 1.321 . S
C1192 H1216 0.930 . S
H1193 C1188 0.931 . S
Co1194 N1191 2.135 . S
Co1194 N1197 2.121 . S
Co1194 O1202 2.055 . S
Co1194 O1205 2.039 . S
Co1194 N1208 2.140 . S
C1195 O1196 1.227 . S
C1195 O1205 1.265 . S
O1196 C1195 1.227 . S
N1197 Co1194 2.121 . S
N1197 C1199 1.375 . S
N1197 C1200 1.313 . S
C1198 C1199 1.338 . S
C1198 N1201 1.377 . S
C1198 H1218 0.930 . S
C1199 N1197 1.375 . S
C1199 C1198 1.338 . S
C1199 H1203 0.931 . S
C1200 N1197 1.313 . S
C1200 N1201 1.344 . S
C1200 H1204 0.930 . S
N1201 C1198 1.377 . S
N1201 C1200 1.344 . S
O1202 Co1194 2.055 . S
O1202 C1206 1.253 . S
H1203 C1199 0.931 . S
H1204 C1200 0.930 . S
O1205 Co1194 2.039 . S
O1205 C1195 1.265 . S
C1206 O1202 1.253 . S
C1206 O1207 1.227 . S
O1207 C1206 1.227 . S
N1208 Co1194 2.140 . S
N1208 C1211 1.346 . S
N1208 C1212 1.345 . S
C1209 C1210 1.387 . S
C1209 C1213 1.391 . S
C1210 C1209 1.387 . S
C1210 C1211 1.369 . S
C1210 H1219 0.929 . S
C1211 N1208 1.346 . S
C1211 C1210 1.369 . S
C1211 H1214 0.928 . S
C1212 N1208 1.345 . S
C1212 C1213 1.371 . S
C1212 H1215 0.931 . S
C1213 C1209 1.391 . S
C1213 C1212 1.371 . S
C1213 H1220 0.930 . S
H1214 C1211 0.928 . S
H1215 C1212 0.931 . S
H1216 C1192 0.930 . S
H1217 C1189 0.930 . S
H1218 C1198 0.930 . S
H1219 C1210 0.929 . S
H1220 C1213 0.930 . S
C1221 C1222 1.351 . S
C1221 N1224 1.368 . S
C1221 H1226 0.931 . S
C1222 C1221 1.351 . S
C1222 N1223 1.373 . S
C1222 H1250 0.930 . S
N1223 C1222 1.373 . S
N1223 C1225 1.340 . S
N1224 C1221 1.368 . S
N1224 C1225 1.321 . S
N1224 Co1227 2.135 . S
C1225 N1223 1.340 . S
C1225 N1224 1.321 . S
C1225 H1249 0.930 . S
H1226 C1221 0.931 . S
Co1227 N1224 2.135 . S
Co1227 N1230 2.121 . S
Co1227 O1235 2.055 . S
Co1227 O1238 2.039 . S
Co1227 N1241 2.140 . S
C1228 O1229 1.227 . S
C1228 O1238 1.265 . S
O1229 C1228 1.227 . S
N1230 Co1227 2.121 . S
N1230 C1232 1.375 . S
N1230 C1233 1.313 . S
C1231 C1232 1.338 . S
C1231 N1234 1.377 . S
C1231 H1251 0.930 . S
C1232 N1230 1.375 . S
C1232 C1231 1.338 . S
C1232 H1236 0.931 . S
C1233 N1230 1.313 . S
C1233 N1234 1.344 . S
C1233 H1237 0.930 . S
N1234 C1231 1.377 . S
N1234 C1233 1.344 . S
O1235 Co1227 2.055 . S
O1235 C1239 1.253 . S
H1236 C1232 0.931 . S
H1237 C1233 0.930 . S
O1238 Co1227 2.039 . S
O1238 C1228 1.265 . S
C1239 O1235 1.253 . S
C1239 O1240 1.227 . S
O1240 C1239 1.227 . S
N1241 Co1227 2.140 . S
N1241 C1244 1.346 . S
N1241 C1245 1.345 . S
C1242 C1243 1.387 . S
C1242 C1246 1.391 . S
C1243 C1242 1.387 . S
C1243 C1244 1.369 . S
C1243 H1252 0.929 . S
C1244 N1241 1.346 . S
C1244 C1243 1.369 . S
C1244 H1247 0.928 . S
C1245 N1241 1.345 . S
C1245 C1246 1.371 . S
C1245 H1248 0.931 . S
C1246 C1242 1.391 . S
C1246 C1245 1.371 . S
C1246 H1253 0.930 . S
H1247 C1244 0.928 . S
H1248 C1245 0.931 . S
H1249 C1225 0.930 . S
H1250 C1222 0.930 . S
H1251 C1231 0.930 . S
H1252 C1243 0.929 . S
H1253 C1246 0.930 . S
C1254 C1255 1.351 . S
C1254 N1257 1.368 . S
C1254 H1259 0.931 . S
C1255 C1254 1.351 . S
C1255 N1256 1.373 . S
C1255 H1283 0.930 . S
N1256 C1255 1.373 . S
N1256 C1258 1.340 . S
N1257 C1254 1.368 . S
N1257 C1258 1.321 . S
N1257 Co1260 2.135 . S
C1258 N1256 1.340 . S
C1258 N1257 1.321 . S
C1258 H1282 0.930 . S
H1259 C1254 0.931 . S
Co1260 N1257 2.135 . S
Co1260 N1263 2.121 . S
Co1260 O1268 2.055 . S
Co1260 O1271 2.039 . S
Co1260 N1274 2.140 . S
C1261 O1262 1.227 . S
C1261 O1271 1.265 . S
O1262 C1261 1.227 . S
N1263 Co1260 2.121 . S
N1263 C1265 1.375 . S
N1263 C1266 1.313 . S
C1264 C1265 1.338 . S
C1264 N1267 1.377 . S
C1264 H1284 0.930 . S
C1265 N1263 1.375 . S
C1265 C1264 1.338 . S
C1265 H1269 0.931 . S
C1266 N1263 1.313 . S
C1266 N1267 1.344 . S
C1266 H1270 0.930 . S
N1267 C1264 1.377 . S
N1267 C1266 1.344 . S
O1268 Co1260 2.055 . S
O1268 C1272 1.253 . S
H1269 C1265 0.931 . S
H1270 C1266 0.930 . S
O1271 Co1260 2.039 . S
O1271 C1261 1.265 . S
C1272 O1268 1.253 . S
C1272 O1273 1.227 . S
O1273 C1272 1.227 . S
N1274 Co1260 2.140 . S
N1274 C1277 1.346 . S
N1274 C1278 1.345 . S
C1275 C1276 1.387 . S
C1275 C1279 1.391 . S
C1276 C1275 1.387 . S
C1276 C1277 1.369 . S
C1276 H1285 0.929 . S
C1277 N1274 1.346 . S
C1277 C1276 1.369 . S
C1277 H1280 0.928 . S
C1278 N1274 1.345 . S
C1278 C1279 1.371 . S
C1278 H1281 0.931 . S
C1279 C1275 1.391 . S
C1279 C1278 1.371 . S
C1279 H1286 0.930 . S
H1280 C1277 0.928 . S
H1281 C1278 0.931 . S
H1282 C1258 0.930 . S
H1283 C1255 0.930 . S
H1284 C1264 0.930 . S
H1285 C1276 0.929 . S
H1286 C1279 0.930 . S
C1287 C1288 1.351 . S
C1287 N1290 1.368 . S
C1287 H1292 0.931 . S
C1288 C1287 1.351 . S
C1288 N1289 1.373 . S
C1288 H1316 0.930 . S
N1289 C1288 1.373 . S
N1289 C1291 1.340 . S
N1290 C1287 1.368 . S
N1290 C1291 1.321 . S
N1290 Co1293 2.135 . S
C1291 N1289 1.340 . S
C1291 N1290 1.321 . S
C1291 H1315 0.930 . S
H1292 C1287 0.931 . S
Co1293 N1290 2.135 . S
Co1293 N1296 2.121 . S
Co1293 O1301 2.055 . S
Co1293 O1304 2.039 . S
Co1293 N1307 2.140 . S
C1294 O1295 1.227 . S
C1294 O1304 1.265 . S
O1295 C1294 1.227 . S
N1296 Co1293 2.121 . S
N1296 C1298 1.375 . S
N1296 C1299 1.313 . S
C1297 C1298 1.338 . S
C1297 N1300 1.377 . S
C1297 H1317 0.930 . S
C1298 N1296 1.375 . S
C1298 C1297 1.338 . S
C1298 H1302 0.931 . S
C1299 N1296 1.313 . S
C1299 N1300 1.344 . S
C1299 H1303 0.930 . S
N1300 C1297 1.377 . S
N1300 C1299 1.344 . S
O1301 Co1293 2.055 . S
O1301 C1305 1.253 . S
H1302 C1298 0.931 . S
H1303 C1299 0.930 . S
O1304 Co1293 2.039 . S
O1304 C1294 1.265 . S
C1305 O1301 1.253 . S
C1305 O1306 1.227 . S
O1306 C1305 1.227 . S
N1307 Co1293 2.140 . S
N1307 C1310 1.346 . S
N1307 C1311 1.345 . S
C1308 C1309 1.387 . S
C1308 C1312 1.391 . S
C1309 C1308 1.387 . S
C1309 C1310 1.369 . S
C1309 H1318 0.929 . S
C1310 N1307 1.346 . S
C1310 C1309 1.369 . S
C1310 H1313 0.928 . S
C1311 N1307 1.345 . S
C1311 C1312 1.371 . S
C1311 H1314 0.931 . S
C1312 C1308 1.391 . S
C1312 C1311 1.371 . S
C1312 H1319 0.930 . S
H1313 C1310 0.928 . S
H1314 C1311 0.931 . S
H1315 C1291 0.930 . S
H1316 C1288 0.930 . S
H1317 C1297 0.930 . S
H1318 C1309 0.929 . S
H1319 C1312 0.930 . S
C1320 C1321 1.351 . S
C1320 N1323 1.368 . S
C1320 H1325 0.931 . S
C1321 C1320 1.351 . S
C1321 N1322 1.373 . S
C1321 H1349 0.930 . S
N1322 C1321 1.373 . S
N1322 C1324 1.340 . S
N1323 C1320 1.368 . S
N1323 C1324 1.321 . S
N1323 Co1326 2.135 . S
C1324 N1322 1.340 . S
C1324 N1323 1.321 . S
C1324 H1348 0.930 . S
H1325 C1320 0.931 . S
Co1326 N1323 2.135 . S
Co1326 N1329 2.121 . S
Co1326 O1334 2.055 . S
Co1326 O1337 2.039 . S
Co1326 N1340 2.140 . S
C1327 O1328 1.227 . S
C1327 O1337 1.265 . S
O1328 C1327 1.227 . S
N1329 Co1326 2.121 . S
N1329 C1331 1.375 . S
N1329 C1332 1.313 . S
C1330 C1331 1.338 . S
C1330 N1333 1.377 . S
C1330 H1350 0.930 . S
C1331 N1329 1.375 . S
C1331 C1330 1.338 . S
C1331 H1335 0.931 . S
C1332 N1329 1.313 . S
C1332 N1333 1.344 . S
C1332 H1336 0.930 . S
N1333 C1330 1.377 . S
N1333 C1332 1.344 . S
O1334 Co1326 2.055 . S
O1334 C1338 1.253 . S
H1335 C1331 0.931 . S
H1336 C1332 0.930 . S
O1337 Co1326 2.039 . S
O1337 C1327 1.265 . S
C1338 O1334 1.253 . S
C1338 O1339 1.227 . S
O1339 C1338 1.227 . S
N1340 Co1326 2.140 . S
N1340 C1343 1.346 . S
N1340 C1344 1.345 . S
C1341 C1342 1.387 . S
C1341 C1345 1.391 . S
C1342 C1341 1.387 . S
C1342 C1343 1.369 . S
C1342 H1351 0.929 . S
C1343 N1340 1.346 . S
C1343 C1342 1.369 . S
C1343 H1346 0.928 . S
C1344 N1340 1.345 . S
C1344 C1345 1.371 . S
C1344 H1347 0.931 . S
C1345 C1341 1.391 . S
C1345 C1344 1.371 . S
C1345 H1352 0.930 . S
H1346 C1343 0.928 . S
H1347 C1344 0.931 . S
H1348 C1324 0.930 . S
H1349 C1321 0.930 . S
H1350 C1330 0.930 . S
H1351 C1342 0.929 . S
H1352 C1345 0.930 . S
C1353 C1354 1.351 . S
C1353 N1356 1.368 . S
C1353 H1358 0.931 . S
C1354 C1353 1.351 . S
C1354 N1355 1.373 . S
C1354 H1382 0.930 . S
N1355 C1354 1.373 . S
N1355 C1357 1.340 . S
N1356 C1353 1.368 . S
N1356 C1357 1.321 . S
N1356 Co1359 2.135 . S
C1357 N1355 1.340 . S
C1357 N1356 1.321 . S
C1357 H1381 0.930 . S
H1358 C1353 0.931 . S
Co1359 N1356 2.135 . S
Co1359 N1362 2.121 . S
Co1359 O1367 2.055 . S
Co1359 O1370 2.039 . S
Co1359 N1373 2.140 . S
C1360 O1361 1.227 . S
C1360 O1370 1.265 . S
O1361 C1360 1.227 . S
N1362 Co1359 2.121 . S
N1362 C1364 1.375 . S
N1362 C1365 1.313 . S
C1363 C1364 1.338 . S
C1363 N1366 1.377 . S
C1363 H1383 0.930 . S
C1364 N1362 1.375 . S
C1364 C1363 1.338 . S
C1364 H1368 0.931 . S
C1365 N1362 1.313 . S
C1365 N1366 1.344 . S
C1365 H1369 0.930 . S
N1366 C1363 1.377 . S
N1366 C1365 1.344 . S
O1367 Co1359 2.055 . S
O1367 C1371 1.253 . S
H1368 C1364 0.931 . S
H1369 C1365 0.930 . S
O1370 Co1359 2.039 . S
O1370 C1360 1.265 . S
C1371 O1367 1.253 . S
C1371 O1372 1.227 . S
O1372 C1371 1.227 . S
N1373 Co1359 2.140 . S
N1373 C1376 1.346 . S
N1373 C1377 1.345 . S
C1374 C1375 1.387 . S
C1374 C1378 1.391 . S
C1375 C1374 1.387 . S
C1375 C1376 1.369 . S
C1375 H1384 0.929 . S
C1376 N1373 1.346 . S
C1376 C1375 1.369 . S
C1376 H1379 0.928 . S
C1377 N1373 1.345 . S
C1377 C1378 1.371 . S
C1377 H1380 0.931 . S
C1378 C1374 1.391 . S
C1378 C1377 1.371 . S
C1378 H1385 0.930 . S
H1379 C1376 0.928 . S
H1380 C1377 0.931 . S
H1381 C1357 0.930 . S
H1382 C1354 0.930 . S
H1383 C1363 0.930 . S
H1384 C1375 0.929 . S
H1385 C1378 0.930 . S
C1386 C1387 1.351 . S
C1386 N1389 1.368 . S
C1386 H1391 0.931 . S
C1387 C1386 1.351 . S
C1387 N1388 1.373 . S
C1387 H1415 0.930 . S
N1388 C1387 1.373 . S
N1388 C1390 1.340 . S
N1389 C1386 1.368 . S
N1389 C1390 1.321 . S
N1389 Co1392 2.135 . S
C1390 N1388 1.340 . S
C1390 N1389 1.321 . S
C1390 H1414 0.930 . S
H1391 C1386 0.931 . S
Co1392 N1389 2.135 . S
Co1392 N1395 2.121 . S
Co1392 O1400 2.055 . S
Co1392 O1403 2.039 . S
Co1392 N1406 2.140 . S
C1393 O1394 1.227 . S
C1393 O1403 1.265 . S
O1394 C1393 1.227 . S
N1395 Co1392 2.121 . S
N1395 C1397 1.375 . S
N1395 C1398 1.313 . S
C1396 C1397 1.338 . S
C1396 N1399 1.377 . S
C1396 H1416 0.930 . S
C1397 N1395 1.375 . S
C1397 C1396 1.338 . S
C1397 H1401 0.931 . S
C1398 N1395 1.313 . S
C1398 N1399 1.344 . S
C1398 H1402 0.930 . S
N1399 C1396 1.377 . S
N1399 C1398 1.344 . S
O1400 Co1392 2.055 . S
O1400 C1404 1.253 . S
H1401 C1397 0.931 . S
H1402 C1398 0.930 . S
O1403 Co1392 2.039 . S
O1403 C1393 1.265 . S
C1404 O1400 1.253 . S
C1404 O1405 1.227 . S
O1405 C1404 1.227 . S
N1406 Co1392 2.140 . S
N1406 C1409 1.346 . S
N1406 C1410 1.345 . S
C1407 C1408 1.387 . S
C1407 C1411 1.391 . S
C1408 C1407 1.387 . S
C1408 C1409 1.369 . S
C1408 H1417 0.929 . S
C1409 N1406 1.346 . S
C1409 C1408 1.369 . S
C1409 H1412 0.928 . S
C1410 N1406 1.345 . S
C1410 C1411 1.371 . S
C1410 H1413 0.931 . S
C1411 C1407 1.391 . S
C1411 C1410 1.371 . S
C1411 H1418 0.930 . S
H1412 C1409 0.928 . S
H1413 C1410 0.931 . S
H1414 C1390 0.930 . S
H1415 C1387 0.930 . S
H1416 C1396 0.930 . S
H1417 C1408 0.929 . S
H1418 C1411 0.930 . S
C1419 C1420 1.351 . S
C1419 N1422 1.368 . S
C1419 H1424 0.931 . S
C1420 C1419 1.351 . S
C1420 N1421 1.373 . S
C1420 H1448 0.930 . S
N1421 C1420 1.373 . S
N1421 C1423 1.340 . S
N1422 C1419 1.368 . S
N1422 C1423 1.321 . S
N1422 Co1425 2.135 . S
C1423 N1421 1.340 . S
C1423 N1422 1.321 . S
C1423 H1447 0.930 . S
H1424 C1419 0.931 . S
Co1425 N1422 2.135 . S
Co1425 N1428 2.121 . S
Co1425 O1433 2.055 . S
Co1425 O1436 2.039 . S
Co1425 N1439 2.140 . S
C1426 O1427 1.227 . S
C1426 O1436 1.265 . S
O1427 C1426 1.227 . S
N1428 Co1425 2.121 . S
N1428 C1430 1.375 . S
N1428 C1431 1.313 . S
C1429 C1430 1.338 . S
C1429 N1432 1.377 . S
C1429 H1449 0.930 . S
C1430 N1428 1.375 . S
C1430 C1429 1.338 . S
C1430 H1434 0.931 . S
C1431 N1428 1.313 . S
C1431 N1432 1.344 . S
C1431 H1435 0.930 . S
N1432 C1429 1.377 . S
N1432 C1431 1.344 . S
O1433 Co1425 2.055 . S
O1433 C1437 1.253 . S
H1434 C1430 0.931 . S
H1435 C1431 0.930 . S
O1436 Co1425 2.039 . S
O1436 C1426 1.265 . S
C1437 O1433 1.253 . S
C1437 O1438 1.227 . S
O1438 C1437 1.227 . S
N1439 Co1425 2.140 . S
N1439 C1442 1.346 . S
N1439 C1443 1.345 . S
C1440 C1441 1.387 . S
C1440 C1444 1.391 . S
C1441 C1440 1.387 . S
C1441 C1442 1.369 . S
C1441 H1450 0.929 . S
C1442 N1439 1.346 . S
C1442 C1441 1.369 . S
C1442 H1445 0.928 . S
C1443 N1439 1.345 . S
C1443 C1444 1.371 . S
C1443 H1446 0.931 . S
C1444 C1440 1.391 . S
C1444 C1443 1.371 . S
C1444 H1451 0.930 . S
H1445 C1442 0.928 . S
H1446 C1443 0.931 . S
H1447 C1423 0.930 . S
H1448 C1420 0.930 . S
H1449 C1429 0.930 . S
H1450 C1441 0.929 . S
H1451 C1444 0.930 . S
C1452 C1453 1.351 . S
C1452 N1455 1.368 . S
C1452 H1457 0.931 . S
C1453 C1452 1.351 . S
C1453 N1454 1.373 . S
C1453 H1481 0.930 . S
N1454 C1453 1.373 . S
N1454 C1456 1.340 . S
N1455 C1452 1.368 . S
N1455 C1456 1.321 . S
N1455 Co1458 2.135 . S
C1456 N1454 1.340 . S
C1456 N1455 1.321 . S
C1456 H1480 0.930 . S
H1457 C1452 0.931 . S
Co1458 N1455 2.135 . S
Co1458 N1461 2.121 . S
Co1458 O1466 2.055 . S
Co1458 O1469 2.039 . S
Co1458 N1472 2.140 . S
C1459 O1460 1.227 . S
C1459 O1469 1.265 . S
O1460 C1459 1.227 . S
N1461 Co1458 2.121 . S
N1461 C1463 1.375 . S
N1461 C1464 1.313 . S
C1462 C1463 1.338 . S
C1462 N1465 1.377 . S
C1462 H1482 0.930 . S
C1463 N1461 1.375 . S
C1463 C1462 1.338 . S
C1463 H1467 0.931 . S
C1464 N1461 1.313 . S
C1464 N1465 1.344 . S
C1464 H1468 0.930 . S
N1465 C1462 1.377 . S
N1465 C1464 1.344 . S
O1466 Co1458 2.055 . S
O1466 C1470 1.253 . S
H1467 C1463 0.931 . S
H1468 C1464 0.930 . S
O1469 Co1458 2.039 . S
O1469 C1459 1.265 . S
C1470 O1466 1.253 . S
C1470 O1471 1.227 . S
O1471 C1470 1.227 . S
N1472 Co1458 2.140 . S
N1472 C1475 1.346 . S
N1472 C1476 1.345 . S
C1473 C1474 1.387 . S
C1473 C1477 1.391 . S
C1474 C1473 1.387 . S
C1474 C1475 1.369 . S
C1474 H1483 0.929 . S
C1475 N1472 1.346 . S
C1475 C1474 1.369 . S
C1475 H1478 0.928 . S
C1476 N1472 1.345 . S
C1476 C1477 1.371 . S
C1476 H1479 0.931 . S
C1477 C1473 1.391 . S
C1477 C1476 1.371 . S
C1477 H1484 0.930 . S
H1478 C1475 0.928 . S
H1479 C1476 0.931 . S
H1480 C1456 0.930 . S
H1481 C1453 0.930 . S
H1482 C1462 0.930 . S
H1483 C1474 0.929 . S
H1484 C1477 0.930 . S
C1485 C1486 1.351 . S
C1485 N1488 1.368 . S
C1485 H1490 0.931 . S
C1486 C1485 1.351 . S
C1486 N1487 1.373 . S
C1486 H1514 0.930 . S
N1487 C1486 1.373 . S
N1487 C1489 1.340 . S
N1488 C1485 1.368 . S
N1488 C1489 1.321 . S
N1488 Co1491 2.135 . S
C1489 N1487 1.340 . S
C1489 N1488 1.321 . S
C1489 H1513 0.930 . S
H1490 C1485 0.931 . S
Co1491 N1488 2.135 . S
Co1491 N1494 2.121 . S
Co1491 O1499 2.055 . S
Co1491 O1502 2.039 . S
Co1491 N1505 2.140 . S
C1492 O1493 1.227 . S
C1492 O1502 1.265 . S
O1493 C1492 1.227 . S
N1494 Co1491 2.121 . S
N1494 C1496 1.375 . S
N1494 C1497 1.313 . S
C1495 C1496 1.338 . S
C1495 N1498 1.377 . S
C1495 H1515 0.930 . S
C1496 N1494 1.375 . S
C1496 C1495 1.338 . S
C1496 H1500 0.931 . S
C1497 N1494 1.313 . S
C1497 N1498 1.344 . S
C1497 H1501 0.930 . S
N1498 C1495 1.377 . S
N1498 C1497 1.344 . S
O1499 Co1491 2.055 . S
O1499 C1503 1.253 . S
H1500 C1496 0.931 . S
H1501 C1497 0.930 . S
O1502 Co1491 2.039 . S
O1502 C1492 1.265 . S
C1503 O1499 1.253 . S
C1503 O1504 1.227 . S
O1504 C1503 1.227 . S
N1505 Co1491 2.140 . S
N1505 C1508 1.346 . S
N1505 C1509 1.345 . S
C1506 C1507 1.387 . S
C1506 C1510 1.391 . S
C1507 C1506 1.387 . S
C1507 C1508 1.369 . S
C1507 H1516 0.929 . S
C1508 N1505 1.346 . S
C1508 C1507 1.369 . S
C1508 H1511 0.928 . S
C1509 N1505 1.345 . S
C1509 C1510 1.371 . S
C1509 H1512 0.931 . S
C1510 C1506 1.391 . S
C1510 C1509 1.371 . S
C1510 H1517 0.930 . S
H1511 C1508 0.928 . S
H1512 C1509 0.931 . S
H1513 C1489 0.930 . S
H1514 C1486 0.930 . S
H1515 C1495 0.930 . S
H1516 C1507 0.929 . S
H1517 C1510 0.930 . S
C1518 C1519 1.351 . S
C1518 N1521 1.368 . S
C1518 H1523 0.931 . S
C1519 C1518 1.351 . S
C1519 N1520 1.373 . S
C1519 H1547 0.930 . S
N1520 C1519 1.373 . S
N1520 C1522 1.340 . S
N1521 C1518 1.368 . S
N1521 C1522 1.321 . S
N1521 Co1524 2.135 . S
C1522 N1520 1.340 . S
C1522 N1521 1.321 . S
C1522 H1546 0.930 . S
H1523 C1518 0.931 . S
Co1524 N1521 2.135 . S
Co1524 N1527 2.121 . S
Co1524 O1532 2.055 . S
Co1524 O1535 2.039 . S
Co1524 N1538 2.140 . S
C1525 O1526 1.227 . S
C1525 O1535 1.265 . S
O1526 C1525 1.227 . S
N1527 Co1524 2.121 . S
N1527 C1529 1.375 . S
N1527 C1530 1.313 . S
C1528 C1529 1.338 . S
C1528 N1531 1.377 . S
C1528 H1548 0.930 . S
C1529 N1527 1.375 . S
C1529 C1528 1.338 . S
C1529 H1533 0.931 . S
C1530 N1527 1.313 . S
C1530 N1531 1.344 . S
C1530 H1534 0.930 . S
N1531 C1528 1.377 . S
N1531 C1530 1.344 . S
O1532 Co1524 2.055 . S
O1532 C1536 1.253 . S
H1533 C1529 0.931 . S
H1534 C1530 0.930 . S
O1535 Co1524 2.039 . S
O1535 C1525 1.265 . S
C1536 O1532 1.253 . S
C1536 O1537 1.227 . S
O1537 C1536 1.227 . S
N1538 Co1524 2.140 . S
N1538 C1541 1.346 . S
N1538 C1542 1.345 . S
C1539 C1540 1.387 . S
C1539 C1543 1.391 . S
C1540 C1539 1.387 . S
C1540 C1541 1.369 . S
C1540 H1549 0.929 . S
C1541 N1538 1.346 . S
C1541 C1540 1.369 . S
C1541 H1544 0.928 . S
C1542 N1538 1.345 . S
C1542 C1543 1.371 . S
C1542 H1545 0.931 . S
C1543 C1539 1.391 . S
C1543 C1542 1.371 . S
C1543 H1550 0.930 . S
H1544 C1541 0.928 . S
H1545 C1542 0.931 . S
H1546 C1522 0.930 . S
H1547 C1519 0.930 . S
H1548 C1528 0.930 . S
H1549 C1540 0.929 . S
H1550 C1543 0.930 . S
C1551 C1552 1.351 . S
C1551 N1554 1.368 . S
C1551 H1556 0.931 . S
C1552 C1551 1.351 . S
C1552 N1553 1.373 . S
C1552 H1580 0.930 . S
N1553 C1552 1.373 . S
N1553 C1555 1.340 . S
N1554 C1551 1.368 . S
N1554 C1555 1.321 . S
N1554 Co1557 2.135 . S
C1555 N1553 1.340 . S
C1555 N1554 1.321 . S
C1555 H1579 0.930 . S
H1556 C1551 0.931 . S
Co1557 N1554 2.135 . S
Co1557 N1560 2.121 . S
Co1557 O1565 2.055 . S
Co1557 O1568 2.039 . S
Co1557 N1571 2.140 . S
C1558 O1559 1.227 . S
C1558 O1568 1.265 . S
O1559 C1558 1.227 . S
N1560 Co1557 2.121 . S
N1560 C1562 1.375 . S
N1560 C1563 1.313 . S
C1561 C1562 1.338 . S
C1561 N1564 1.377 . S
C1561 H1581 0.930 . S
C1562 N1560 1.375 . S
C1562 C1561 1.338 . S
C1562 H1566 0.931 . S
C1563 N1560 1.313 . S
C1563 N1564 1.344 . S
C1563 H1567 0.930 . S
N1564 C1561 1.377 . S
N1564 C1563 1.344 . S
O1565 Co1557 2.055 . S
O1565 C1569 1.253 . S
H1566 C1562 0.931 . S
H1567 C1563 0.930 . S
O1568 Co1557 2.039 . S
O1568 C1558 1.265 . S
C1569 O1565 1.253 . S
C1569 O1570 1.227 . S
O1570 C1569 1.227 . S
N1571 Co1557 2.140 . S
N1571 C1574 1.346 . S
N1571 C1575 1.345 . S
C1572 C1573 1.387 . S
C1572 C1576 1.391 . S
C1573 C1572 1.387 . S
C1573 C1574 1.369 . S
C1573 H1582 0.929 . S
C1574 N1571 1.346 . S
C1574 C1573 1.369 . S
C1574 H1577 0.928 . S
C1575 N1571 1.345 . S
C1575 C1576 1.371 . S
C1575 H1578 0.931 . S
C1576 C1572 1.391 . S
C1576 C1575 1.371 . S
C1576 H1583 0.930 . S
H1577 C1574 0.928 . S
H1578 C1575 0.931 . S
H1579 C1555 0.930 . S
H1580 C1552 0.930 . S
H1581 C1561 0.930 . S
H1582 C1573 0.929 . S
H1583 C1576 0.930 . S
H1584 C1596 0.930 . S
H1585 C1598 0.930 . S
H1586 C1599 0.930 . S
H1587 C1603 0.959 . S
H1588 C1603 0.959 . S
H1589 C1603 0.961 . S
H1590 C1604 0.960 . S
H1591 C1604 0.961 . S
H1592 C1604 0.959 . S
H1593 C1607 0.929 . S
H1594 C1608 0.931 . S
H1595 C1610 0.930 . S
C1596 H1584 0.930 . S
C1596 C1597 1.399 . S
C1596 C1601 1.399 . S
C1597 C1596 1.399 . S
C1597 C1598 1.376 . S
C1598 H1585 0.930 . S
C1598 C1597 1.376 . S
C1598 C1599 1.388 . S
C1599 H1586 0.930 . S
C1599 C1598 1.388 . S
C1599 C1600 1.390 . S
C1600 C1599 1.390 . S
C1600 C1601 1.394 . S
C1600 C1606 1.465 . S
C1601 C1596 1.399 . S
C1601 C1600 1.394 . S
C1601 C1602 1.516 . S
C1602 C1601 1.516 . S
C1602 C1603 1.502 . S
C1602 C1604 1.561 . S
C1602 C1605 1.526 . S
C1603 H1587 0.959 . S
C1603 H1588 0.959 . S
C1603 H1589 0.961 . S
C1603 C1602 1.502 . S
C1604 H1590 0.960 . S
C1604 H1591 0.961 . S
C1604 H1592 0.959 . S
C1604 C1602 1.561 . S
C1605 C1602 1.526 . S
C1605 C1606 1.396 . S
C1605 C1610 1.390 . S
C1606 C1600 1.465 . S
C1606 C1605 1.396 . S
C1606 C1607 1.399 . S
C1607 H1593 0.929 . S
C1607 C1606 1.399 . S
C1607 C1608 1.385 . S
C1608 H1594 0.931 . S
C1608 C1607 1.385 . S
C1608 C1609 1.389 . S
C1609 C1608 1.389 . S
C1609 C1610 1.387 . S
C1610 H1595 0.930 . S
C1610 C1605 1.390 . S
C1610 C1609 1.387 . S
H1611 C1623 0.930 . S
H1612 C1625 0.930 . S
H1613 C1626 0.930 . S
H1614 C1630 0.959 . S
H1615 C1630 0.959 . S
H1616 C1630 0.961 . S
H1617 C1631 0.960 . S
H1618 C1631 0.961 . S
H1619 C1631 0.959 . S
H1620 C1634 0.929 . S
H1621 C1635 0.931 . S
H1622 C1637 0.930 . S
C1623 H1611 0.930 . S
C1623 C1624 1.399 . S
C1623 C1628 1.399 . S
C1624 C1623 1.399 . S
C1624 C1625 1.376 . S
C1625 H1612 0.930 . S
C1625 C1624 1.376 . S
C1625 C1626 1.388 . S
C1626 H1613 0.930 . S
C1626 C1625 1.388 . S
C1626 C1627 1.390 . S
C1627 C1626 1.390 . S
C1627 C1628 1.394 . S
C1627 C1633 1.465 . S
C1628 C1623 1.399 . S
C1628 C1627 1.394 . S
C1628 C1629 1.516 . S
C1629 C1628 1.516 . S
C1629 C1630 1.502 . S
C1629 C1631 1.561 . S
C1629 C1632 1.526 . S
C1630 H1614 0.959 . S
C1630 H1615 0.959 . S
C1630 H1616 0.961 . S
C1630 C1629 1.502 . S
C1631 H1617 0.960 . S
C1631 H1618 0.961 . S
C1631 H1619 0.959 . S
C1631 C1629 1.561 . S
C1632 C1629 1.526 . S
C1632 C1633 1.396 . S
C1632 C1637 1.390 . S
C1633 C1627 1.465 . S
C1633 C1632 1.396 . S
C1633 C1634 1.399 . S
C1634 H1620 0.929 . S
C1634 C1633 1.399 . S
C1634 C1635 1.385 . S
C1635 H1621 0.931 . S
C1635 C1634 1.385 . S
C1635 C1636 1.389 . S
C1636 C1635 1.389 . S
C1636 C1637 1.387 . S
C1637 H1622 0.930 . S
C1637 C1632 1.390 . S
C1637 C1636 1.387 . S
H1638 C1650 0.930 . S
H1639 C1652 0.930 . S
H1640 C1653 0.930 . S
H1641 C1657 0.959 . S
H1642 C1657 0.959 . S
H1643 C1657 0.961 . S
H1644 C1658 0.960 . S
H1645 C1658 0.961 . S
H1646 C1658 0.959 . S
H1647 C1661 0.929 . S
H1648 C1662 0.931 . S
H1649 C1664 0.930 . S
C1650 H1638 0.930 . S
C1650 C1651 1.399 . S
C1650 C1655 1.399 . S
C1651 C1650 1.399 . S
C1651 C1652 1.376 . S
C1652 H1639 0.930 . S
C1652 C1651 1.376 . S
C1652 C1653 1.388 . S
C1653 H1640 0.930 . S
C1653 C1652 1.388 . S
C1653 C1654 1.390 . S
C1654 C1653 1.390 . S
C1654 C1655 1.394 . S
C1654 C1660 1.465 . S
C1655 C1650 1.399 . S
C1655 C1654 1.394 . S
C1655 C1656 1.516 . S
C1656 C1655 1.516 . S
C1656 C1657 1.502 . S
C1656 C1658 1.561 . S
C1656 C1659 1.526 . S
C1657 H1641 0.959 . S
C1657 H1642 0.959 . S
C1657 H1643 0.961 . S
C1657 C1656 1.502 . S
C1658 H1644 0.960 . S
C1658 H1645 0.961 . S
C1658 H1646 0.959 . S
C1658 C1656 1.561 . S
C1659 C1656 1.526 . S
C1659 C1660 1.396 . S
C1659 C1664 1.390 . S
C1660 C1654 1.465 . S
C1660 C1659 1.396 . S
C1660 C1661 1.399 . S
C1661 H1647 0.929 . S
C1661 C1660 1.399 . S
C1661 C1662 1.385 . S
C1662 H1648 0.931 . S
C1662 C1661 1.385 . S
C1662 C1663 1.389 . S
C1663 C1662 1.389 . S
C1663 C1664 1.387 . S
C1664 H1649 0.930 . S
C1664 C1659 1.390 . S
C1664 C1663 1.387 . S
H1665 C1677 0.930 . S
H1666 C1679 0.930 . S
H1667 C1680 0.930 . S
H1668 C1684 0.959 . S
H1669 C1684 0.959 . S
H1670 C1684 0.961 . S
H1671 C1685 0.960 . S
H1672 C1685 0.961 . S
H1673 C1685 0.959 . S
H1674 C1688 0.929 . S
H1675 C1689 0.931 . S
H1676 C1691 0.930 . S
C1677 H1665 0.930 . S
C1677 C1678 1.399 . S
C1677 C1682 1.399 . S
C1678 C1677 1.399 . S
C1678 C1679 1.376 . S
C1679 H1666 0.930 . S
C1679 C1678 1.376 . S
C1679 C1680 1.388 . S
C1680 H1667 0.930 . S
C1680 C1679 1.388 . S
C1680 C1681 1.390 . S
C1681 C1680 1.390 . S
C1681 C1682 1.394 . S
C1681 C1687 1.465 . S
C1682 C1677 1.399 . S
C1682 C1681 1.394 . S
C1682 C1683 1.516 . S
C1683 C1682 1.516 . S
C1683 C1684 1.502 . S
C1683 C1685 1.561 . S
C1683 C1686 1.526 . S
C1684 H1668 0.959 . S
C1684 H1669 0.959 . S
C1684 H1670 0.961 . S
C1684 C1683 1.502 . S
C1685 H1671 0.960 . S
C1685 H1672 0.961 . S
C1685 H1673 0.959 . S
C1685 C1683 1.561 . S
C1686 C1683 1.526 . S
C1686 C1687 1.396 . S
C1686 C1691 1.390 . S
C1687 C1681 1.465 . S
C1687 C1686 1.396 . S
C1687 C1688 1.399 . S
C1688 H1674 0.929 . S
C1688 C1687 1.399 . S
C1688 C1689 1.385 . S
C1689 H1675 0.931 . S
C1689 C1688 1.385 . S
C1689 C1690 1.389 . S
C1690 C1689 1.389 . S
C1690 C1691 1.387 . S
C1691 H1676 0.930 . S
C1691 C1686 1.390 . S
C1691 C1690 1.387 . S
H1692 C1704 0.930 . S
H1693 C1706 0.930 . S
H1694 C1707 0.930 . S
H1695 C1711 0.959 . S
H1696 C1711 0.959 . S
H1697 C1711 0.961 . S
H1698 C1712 0.960 . S
H1699 C1712 0.961 . S
H1700 C1712 0.959 . S
H1701 C1715 0.929 . S
H1702 C1716 0.931 . S
H1703 C1718 0.930 . S
C1704 H1692 0.930 . S
C1704 C1705 1.399 . S
C1704 C1709 1.399 . S
C1705 C1704 1.399 . S
C1705 C1706 1.376 . S
C1706 H1693 0.930 . S
C1706 C1705 1.376 . S
C1706 C1707 1.388 . S
C1707 H1694 0.930 . S
C1707 C1706 1.388 . S
C1707 C1708 1.390 . S
C1708 C1707 1.390 . S
C1708 C1709 1.394 . S
C1708 C1714 1.465 . S
C1709 C1704 1.399 . S
C1709 C1708 1.394 . S
C1709 C1710 1.516 . S
C1710 C1709 1.516 . S
C1710 C1711 1.502 . S
C1710 C1712 1.561 . S
C1710 C1713 1.526 . S
C1711 H1695 0.959 . S
C1711 H1696 0.959 . S
C1711 H1697 0.961 . S
C1711 C1710 1.502 . S
C1712 H1698 0.960 . S
C1712 H1699 0.961 . S
C1712 H1700 0.959 . S
C1712 C1710 1.561 . S
C1713 C1710 1.526 . S
C1713 C1714 1.396 . S
C1713 C1718 1.390 . S
C1714 C1708 1.465 . S
C1714 C1713 1.396 . S
C1714 C1715 1.399 . S
C1715 H1701 0.929 . S
C1715 C1714 1.399 . S
C1715 C1716 1.385 . S
C1716 H1702 0.931 . S
C1716 C1715 1.385 . S
C1716 C1717 1.389 . S
C1717 C1716 1.389 . S
C1717 C1718 1.387 . S
C1718 H1703 0.930 . S
C1718 C1713 1.390 . S
C1718 C1717 1.387 . S
H1719 C1731 0.930 . S
H1720 C1733 0.930 . S
H1721 C1734 0.930 . S
H1722 C1738 0.959 . S
H1723 C1738 0.959 . S
H1724 C1738 0.961 . S
H1725 C1739 0.960 . S
H1726 C1739 0.961 . S
H1727 C1739 0.959 . S
H1728 C1742 0.929 . S
H1729 C1743 0.931 . S
H1730 C1745 0.930 . S
C1731 H1719 0.930 . S
C1731 C1732 1.399 . S
C1731 C1736 1.399 . S
C1732 C1731 1.399 . S
C1732 C1733 1.376 . S
C1733 H1720 0.930 . S
C1733 C1732 1.376 . S
C1733 C1734 1.388 . S
C1734 H1721 0.930 . S
C1734 C1733 1.388 . S
C1734 C1735 1.390 . S
C1735 C1734 1.390 . S
C1735 C1736 1.394 . S
C1735 C1741 1.465 . S
C1736 C1731 1.399 . S
C1736 C1735 1.394 . S
C1736 C1737 1.516 . S
C1737 C1736 1.516 . S
C1737 C1738 1.502 . S
C1737 C1739 1.561 . S
C1737 C1740 1.526 . S
C1738 H1722 0.959 . S
C1738 H1723 0.959 . S
C1738 H1724 0.961 . S
C1738 C1737 1.502 . S
C1739 H1725 0.960 . S
C1739 H1726 0.961 . S
C1739 H1727 0.959 . S
C1739 C1737 1.561 . S
C1740 C1737 1.526 . S
C1740 C1741 1.396 . S
C1740 C1745 1.390 . S
C1741 C1735 1.465 . S
C1741 C1740 1.396 . S
C1741 C1742 1.399 . S
C1742 H1728 0.929 . S
C1742 C1741 1.399 . S
C1742 C1743 1.385 . S
C1743 H1729 0.931 . S
C1743 C1742 1.385 . S
C1743 C1744 1.389 . S
C1744 C1743 1.389 . S
C1744 C1745 1.387 . S
C1745 H1730 0.930 . S
C1745 C1740 1.390 . S
C1745 C1744 1.387 . S
H1746 C1758 0.930 . S
H1747 C1760 0.930 . S
H1748 C1761 0.930 . S
H1749 C1765 0.959 . S
H1750 C1765 0.959 . S
H1751 C1765 0.961 . S
H1752 C1766 0.960 . S
H1753 C1766 0.961 . S
H1754 C1766 0.959 . S
H1755 C1769 0.929 . S
H1756 C1770 0.931 . S
H1757 C1772 0.930 . S
C1758 H1746 0.930 . S
C1758 C1759 1.399 . S
C1758 C1763 1.399 . S
C1759 C1758 1.399 . S
C1759 C1760 1.376 . S
C1760 H1747 0.930 . S
C1760 C1759 1.376 . S
C1760 C1761 1.388 . S
C1761 H1748 0.930 . S
C1761 C1760 1.388 . S
C1761 C1762 1.390 . S
C1762 C1761 1.390 . S
C1762 C1763 1.394 . S
C1762 C1768 1.465 . S
C1763 C1758 1.399 . S
C1763 C1762 1.394 . S
C1763 C1764 1.516 . S
C1764 C1763 1.516 . S
C1764 C1765 1.502 . S
C1764 C1766 1.561 . S
C1764 C1767 1.526 . S
C1765 H1749 0.959 . S
C1765 H1750 0.959 . S
C1765 H1751 0.961 . S
C1765 C1764 1.502 . S
C1766 H1752 0.960 . S
C1766 H1753 0.961 . S
C1766 H1754 0.959 . S
C1766 C1764 1.561 . S
C1767 C1764 1.526 . S
C1767 C1768 1.396 . S
C1767 C1772 1.390 . S
C1768 C1762 1.465 . S
C1768 C1767 1.396 . S
C1768 C1769 1.399 . S
C1769 H1755 0.929 . S
C1769 C1768 1.399 . S
C1769 C1770 1.385 . S
C1770 H1756 0.931 . S
C1770 C1769 1.385 . S
C1770 C1771 1.389 . S
C1771 C1770 1.389 . S
C1771 C1772 1.387 . S
C1772 H1757 0.930 . S
C1772 C1767 1.390 . S
C1772 C1771 1.387 . S
H1773 C1785 0.930 . S
H1774 C1787 0.930 . S
H1775 C1788 0.930 . S
H1776 C1792 0.959 . S
H1777 C1792 0.959 . S
H1778 C1792 0.961 . S
H1779 C1793 0.960 . S
H1780 C1793 0.961 . S
H1781 C1793 0.959 . S
H1782 C1796 0.929 . S
H1783 C1797 0.931 . S
H1784 C1799 0.930 . S
C1785 H1773 0.930 . S
C1785 C1786 1.399 . S
C1785 C1790 1.399 . S
C1786 C1785 1.399 . S
C1786 C1787 1.376 . S
C1787 H1774 0.930 . S
C1787 C1786 1.376 . S
C1787 C1788 1.388 . S
C1788 H1775 0.930 . S
C1788 C1787 1.388 . S
C1788 C1789 1.390 . S
C1789 C1788 1.390 . S
C1789 C1790 1.394 . S
C1789 C1795 1.465 . S
C1790 C1785 1.399 . S
C1790 C1789 1.394 . S
C1790 C1791 1.516 . S
C1791 C1790 1.516 . S
C1791 C1792 1.502 . S
C1791 C1793 1.561 . S
C1791 C1794 1.526 . S
C1792 H1776 0.959 . S
C1792 H1777 0.959 . S
C1792 H1778 0.961 . S
C1792 C1791 1.502 . S
C1793 H1779 0.960 . S
C1793 H1780 0.961 . S
C1793 H1781 0.959 . S
C1793 C1791 1.561 . S
C1794 C1791 1.526 . S
C1794 C1795 1.396 . S
C1794 C1799 1.390 . S
C1795 C1789 1.465 . S
C1795 C1794 1.396 . S
C1795 C1796 1.399 . S
C1796 H1782 0.929 . S
C1796 C1795 1.399 . S
C1796 C1797 1.385 . S
C1797 H1783 0.931 . S
C1797 C1796 1.385 . S
C1797 C1798 1.389 . S
C1798 C1797 1.389 . S
C1798 C1799 1.387 . S
C1799 H1784 0.930 . S
C1799 C1794 1.390 . S
C1799 C1798 1.387 . S
H1800 C1812 0.930 . S
H1801 C1814 0.930 . S
H1802 C1815 0.930 . S
H1803 C1819 0.959 . S
H1804 C1819 0.959 . S
H1805 C1819 0.961 . S
H1806 C1820 0.960 . S
H1807 C1820 0.961 . S
H1808 C1820 0.959 . S
H1809 C1823 0.929 . S
H1810 C1824 0.931 . S
H1811 C1826 0.930 . S
C1812 H1800 0.930 . S
C1812 C1813 1.399 . S
C1812 C1817 1.399 . S
C1813 C1812 1.399 . S
C1813 C1814 1.376 . S
C1814 H1801 0.930 . S
C1814 C1813 1.376 . S
C1814 C1815 1.388 . S
C1815 H1802 0.930 . S
C1815 C1814 1.388 . S
C1815 C1816 1.390 . S
C1816 C1815 1.390 . S
C1816 C1817 1.394 . S
C1816 C1822 1.465 . S
C1817 C1812 1.399 . S
C1817 C1816 1.394 . S
C1817 C1818 1.516 . S
C1818 C1817 1.516 . S
C1818 C1819 1.502 . S
C1818 C1820 1.561 . S
C1818 C1821 1.526 . S
C1819 H1803 0.959 . S
C1819 H1804 0.959 . S
C1819 H1805 0.961 . S
C1819 C1818 1.502 . S
C1820 H1806 0.960 . S
C1820 H1807 0.961 . S
C1820 H1808 0.959 . S
C1820 C1818 1.561 . S
C1821 C1818 1.526 . S
C1821 C1822 1.396 . S
C1821 C1826 1.390 . S
C1822 C1816 1.465 . S
C1822 C1821 1.396 . S
C1822 C1823 1.399 . S
C1823 H1809 0.929 . S
C1823 C1822 1.399 . S
C1823 C1824 1.385 . S
C1824 H1810 0.931 . S
C1824 C1823 1.385 . S
C1824 C1825 1.389 . S
C1825 C1824 1.389 . S
C1825 C1826 1.387 . S
C1826 H1811 0.930 . S
C1826 C1821 1.390 . S
C1826 C1825 1.387 . S
H1827 C1839 0.930 . S
H1828 C1841 0.930 . S
H1829 C1842 0.930 . S
H1830 C1846 0.959 . S
H1831 C1846 0.959 . S
H1832 C1846 0.961 . S
H1833 C1847 0.960 . S
H1834 C1847 0.961 . S
H1835 C1847 0.959 . S
H1836 C1850 0.929 . S
H1837 C1851 0.931 . S
H1838 C1853 0.930 . S
C1839 H1827 0.930 . S
C1839 C1840 1.399 . S
C1839 C1844 1.399 . S
C1840 C1839 1.399 . S
C1840 C1841 1.376 . S
C1841 H1828 0.930 . S
C1841 C1840 1.376 . S
C1841 C1842 1.388 . S
C1842 H1829 0.930 . S
C1842 C1841 1.388 . S
C1842 C1843 1.390 . S
C1843 C1842 1.390 . S
C1843 C1844 1.394 . S
C1843 C1849 1.465 . S
C1844 C1839 1.399 . S
C1844 C1843 1.394 . S
C1844 C1845 1.516 . S
C1845 C1844 1.516 . S
C1845 C1846 1.502 . S
C1845 C1847 1.561 . S
C1845 C1848 1.526 . S
C1846 H1830 0.959 . S
C1846 H1831 0.959 . S
C1846 H1832 0.961 . S
C1846 C1845 1.502 . S
C1847 H1833 0.960 . S
C1847 H1834 0.961 . S
C1847 H1835 0.959 . S
C1847 C1845 1.561 . S
C1848 C1845 1.526 . S
C1848 C1849 1.396 . S
C1848 C1853 1.390 . S
C1849 C1843 1.465 . S
C1849 C1848 1.396 . S
C1849 C1850 1.399 . S
C1850 H1836 0.929 . S
C1850 C1849 1.399 . S
C1850 C1851 1.385 . S
C1851 H1837 0.931 . S
C1851 C1850 1.385 . S
C1851 C1852 1.389 . S
C1852 C1851 1.389 . S
C1852 C1853 1.387 . S
C1853 H1838 0.930 . S
C1853 C1848 1.390 . S
C1853 C1852 1.387 . S
H1854 C1866 0.930 . S
H1855 C1868 0.930 . S
H1856 C1869 0.930 . S
H1857 C1873 0.959 . S
H1858 C1873 0.959 . S
H1859 C1873 0.961 . S
H1860 C1874 0.960 . S
H1861 C1874 0.961 . S
H1862 C1874 0.959 . S
H1863 C1877 0.929 . S
H1864 C1878 0.931 . S
H1865 C1880 0.930 . S
C1866 H1854 0.930 . S
C1866 C1867 1.399 . S
C1866 C1871 1.399 . S
C1867 C1866 1.399 . S
C1867 C1868 1.376 . S
C1868 H1855 0.930 . S
C1868 C1867 1.376 . S
C1868 C1869 1.388 . S
C1869 H1856 0.930 . S
C1869 C1868 1.388 . S
C1869 C1870 1.390 . S
C1870 C1869 1.390 . S
C1870 C1871 1.394 . S
C1870 C1876 1.465 . S
C1871 C1866 1.399 . S
C1871 C1870 1.394 . S
C1871 C1872 1.516 . S
C1872 C1871 1.516 . S
C1872 C1873 1.502 . S
C1872 C1874 1.561 . S
C1872 C1875 1.526 . S
C1873 H1857 0.959 . S
C1873 H1858 0.959 . S
C1873 H1859 0.961 . S
C1873 C1872 1.502 . S
C1874 H1860 0.960 . S
C1874 H1861 0.961 . S
C1874 H1862 0.959 . S
C1874 C1872 1.561 . S
C1875 C1872 1.526 . S
C1875 C1876 1.396 . S
C1875 C1880 1.390 . S
C1876 C1870 1.465 . S
C1876 C1875 1.396 . S
C1876 C1877 1.399 . S
C1877 H1863 0.929 . S
C1877 C1876 1.399 . S
C1877 C1878 1.385 . S
C1878 H1864 0.931 . S
C1878 C1877 1.385 . S
C1878 C1879 1.389 . S
C1879 C1878 1.389 . S
C1879 C1880 1.387 . S
C1880 H1865 0.930 . S
C1880 C1875 1.390 . S
C1880 C1879 1.387 . S
H1881 C1893 0.930 . S
H1882 C1895 0.930 . S
H1883 C1896 0.930 . S
H1884 C1900 0.959 . S
H1885 C1900 0.959 . S
H1886 C1900 0.961 . S
H1887 C1901 0.960 . S
H1888 C1901 0.961 . S
H1889 C1901 0.959 . S
H1890 C1904 0.929 . S
H1891 C1905 0.931 . S
H1892 C1907 0.930 . S
C1893 H1881 0.930 . S
C1893 C1894 1.399 . S
C1893 C1898 1.399 . S
C1894 C1893 1.399 . S
C1894 C1895 1.376 . S
C1895 H1882 0.930 . S
C1895 C1894 1.376 . S
C1895 C1896 1.388 . S
C1896 H1883 0.930 . S
C1896 C1895 1.388 . S
C1896 C1897 1.390 . S
C1897 C1896 1.390 . S
C1897 C1898 1.394 . S
C1897 C1903 1.465 . S
C1898 C1893 1.399 . S
C1898 C1897 1.394 . S
C1898 C1899 1.516 . S
C1899 C1898 1.516 . S
C1899 C1900 1.502 . S
C1899 C1901 1.561 . S
C1899 C1902 1.526 . S
C1900 H1884 0.959 . S
C1900 H1885 0.959 . S
C1900 H1886 0.961 . S
C1900 C1899 1.502 . S
C1901 H1887 0.960 . S
C1901 H1888 0.961 . S
C1901 H1889 0.959 . S
C1901 C1899 1.561 . S
C1902 C1899 1.526 . S
C1902 C1903 1.396 . S
C1902 C1907 1.390 . S
C1903 C1897 1.465 . S
C1903 C1902 1.396 . S
C1903 C1904 1.399 . S
C1904 H1890 0.929 . S
C1904 C1903 1.399 . S
C1904 C1905 1.385 . S
C1905 H1891 0.931 . S
C1905 C1904 1.385 . S
C1905 C1906 1.389 . S
C1906 C1905 1.389 . S
C1906 C1907 1.387 . S
C1907 H1892 0.930 . S
C1907 C1902 1.390 . S
C1907 C1906 1.387 . S
H1908 C1920 0.930 . S
H1909 C1922 0.930 . S
H1910 C1923 0.930 . S
H1911 C1927 0.959 . S
H1912 C1927 0.959 . S
H1913 C1927 0.961 . S
H1914 C1928 0.960 . S
H1915 C1928 0.961 . S
H1916 C1928 0.959 . S
H1917 C1931 0.929 . S
H1918 C1932 0.931 . S
H1919 C1934 0.930 . S
C1920 H1908 0.930 . S
C1920 C1921 1.399 . S
C1920 C1925 1.399 . S
C1921 C1920 1.399 . S
C1921 C1922 1.376 . S
C1922 H1909 0.930 . S
C1922 C1921 1.376 . S
C1922 C1923 1.388 . S
C1923 H1910 0.930 . S
C1923 C1922 1.388 . S
C1923 C1924 1.390 . S
C1924 C1923 1.390 . S
C1924 C1925 1.394 . S
C1924 C1930 1.465 . S
C1925 C1920 1.399 . S
C1925 C1924 1.394 . S
C1925 C1926 1.516 . S
C1926 C1925 1.516 . S
C1926 C1927 1.502 . S
C1926 C1928 1.561 . S
C1926 C1929 1.526 . S
C1927 H1911 0.959 . S
C1927 H1912 0.959 . S
C1927 H1913 0.961 . S
C1927 C1926 1.502 . S
C1928 H1914 0.960 . S
C1928 H1915 0.961 . S
C1928 H1916 0.959 . S
C1928 C1926 1.561 . S
C1929 C1926 1.526 . S
C1929 C1930 1.396 . S
C1929 C1934 1.390 . S
C1930 C1924 1.465 . S
C1930 C1929 1.396 . S
C1930 C1931 1.399 . S
C1931 H1917 0.929 . S
C1931 C1930 1.399 . S
C1931 C1932 1.385 . S
C1932 H1918 0.931 . S
C1932 C1931 1.385 . S
C1932 C1933 1.389 . S
C1933 C1932 1.389 . S
C1933 C1934 1.387 . S
C1934 H1919 0.930 . S
C1934 C1929 1.390 . S
C1934 C1933 1.387 . S
H1935 C1947 0.930 . S
H1936 C1949 0.930 . S
H1937 C1950 0.930 . S
H1938 C1954 0.959 . S
H1939 C1954 0.959 . S
H1940 C1954 0.961 . S
H1941 C1955 0.960 . S
H1942 C1955 0.961 . S
H1943 C1955 0.959 . S
H1944 C1958 0.929 . S
H1945 C1959 0.931 . S
H1946 C1961 0.930 . S
C1947 H1935 0.930 . S
C1947 C1948 1.399 . S
C1947 C1952 1.399 . S
C1948 C1947 1.399 . S
C1948 C1949 1.376 . S
C1949 H1936 0.930 . S
C1949 C1948 1.376 . S
C1949 C1950 1.388 . S
C1950 H1937 0.930 . S
C1950 C1949 1.388 . S
C1950 C1951 1.390 . S
C1951 C1950 1.390 . S
C1951 C1952 1.394 . S
C1951 C1957 1.465 . S
C1952 C1947 1.399 . S
C1952 C1951 1.394 . S
C1952 C1953 1.516 . S
C1953 C1952 1.516 . S
C1953 C1954 1.502 . S
C1953 C1955 1.561 . S
C1953 C1956 1.526 . S
C1954 H1938 0.959 . S
C1954 H1939 0.959 . S
C1954 H1940 0.961 . S
C1954 C1953 1.502 . S
C1955 H1941 0.960 . S
C1955 H1942 0.961 . S
C1955 H1943 0.959 . S
C1955 C1953 1.561 . S
C1956 C1953 1.526 . S
C1956 C1957 1.396 . S
C1956 C1961 1.390 . S
C1957 C1951 1.465 . S
C1957 C1956 1.396 . S
C1957 C1958 1.399 . S
C1958 H1944 0.929 . S
C1958 C1957 1.399 . S
C1958 C1959 1.385 . S
C1959 H1945 0.931 . S
C1959 C1958 1.385 . S
C1959 C1960 1.389 . S
C1960 C1959 1.389 . S
C1960 C1961 1.387 . S
C1961 H1946 0.930 . S
C1961 C1956 1.390 . S
C1961 C1960 1.387 . S
H1962 C1974 0.930 . S
H1963 C1976 0.930 . S
H1964 C1977 0.930 . S
H1965 C1981 0.959 . S
H1966 C1981 0.959 . S
H1967 C1981 0.961 . S
H1968 C1982 0.960 . S
H1969 C1982 0.961 . S
H1970 C1982 0.959 . S
H1971 C1985 0.929 . S
H1972 C1986 0.931 . S
H1973 C1988 0.930 . S
C1974 H1962 0.930 . S
C1974 C1975 1.399 . S
C1974 C1979 1.399 . S
C1975 C1974 1.399 . S
C1975 C1976 1.376 . S
C1976 H1963 0.930 . S
C1976 C1975 1.376 . S
C1976 C1977 1.388 . S
C1977 H1964 0.930 . S
C1977 C1976 1.388 . S
C1977 C1978 1.390 . S
C1978 C1977 1.390 . S
C1978 C1979 1.394 . S
C1978 C1984 1.465 . S
C1979 C1974 1.399 . S
C1979 C1978 1.394 . S
C1979 C1980 1.516 . S
C1980 C1979 1.516 . S
C1980 C1981 1.502 . S
C1980 C1982 1.561 . S
C1980 C1983 1.526 . S
C1981 H1965 0.959 . S
C1981 H1966 0.959 . S
C1981 H1967 0.961 . S
C1981 C1980 1.502 . S
C1982 H1968 0.960 . S
C1982 H1969 0.961 . S
C1982 H1970 0.959 . S
C1982 C1980 1.561 . S
C1983 C1980 1.526 . S
C1983 C1984 1.396 . S
C1983 C1988 1.390 . S
C1984 C1978 1.465 . S
C1984 C1983 1.396 . S
C1984 C1985 1.399 . S
C1985 H1971 0.929 . S
C1985 C1984 1.399 . S
C1985 C1986 1.385 . S
C1986 H1972 0.931 . S
C1986 C1985 1.385 . S
C1986 C1987 1.389 . S
C1987 C1986 1.389 . S
C1987 C1988 1.387 . S
C1988 H1973 0.930 . S
C1988 C1983 1.390 . S
C1988 C1987 1.387 . S
H1989 C2001 0.930 . S
H1990 C2003 0.930 . S
H1991 C2004 0.930 . S
H1992 C2008 0.959 . S
H1993 C2008 0.959 . S
H1994 C2008 0.961 . S
H1995 C2009 0.960 . S
H1996 C2009 0.961 . S
H1997 C2009 0.959 . S
H1998 C2012 0.929 . S
H1999 C2013 0.931 . S
H2000 C2015 0.930 . S
C2001 H1989 0.930 . S
C2001 C2002 1.399 . S
C2001 C2006 1.399 . S
C2002 C2001 1.399 . S
C2002 C2003 1.376 . S
C2003 H1990 0.930 . S
C2003 C2002 1.376 . S
C2003 C2004 1.388 . S
C2004 H1991 0.930 . S
C2004 C2003 1.388 . S
C2004 C2005 1.390 . S
C2005 C2004 1.390 . S
C2005 C2006 1.394 . S
C2005 C2011 1.465 . S
C2006 C2001 1.399 . S
C2006 C2005 1.394 . S
C2006 C2007 1.516 . S
C2007 C2006 1.516 . S
C2007 C2008 1.502 . S
C2007 C2009 1.561 . S
C2007 C2010 1.526 . S
C2008 H1992 0.959 . S
C2008 H1993 0.959 . S
C2008 H1994 0.961 . S
C2008 C2007 1.502 . S
C2009 H1995 0.960 . S
C2009 H1996 0.961 . S
C2009 H1997 0.959 . S
C2009 C2007 1.561 . S
C2010 C2007 1.526 . S
C2010 C2011 1.396 . S
C2010 C2015 1.390 . S
C2011 C2005 1.465 . S
C2011 C2010 1.396 . S
C2011 C2012 1.399 . S
C2012 H1998 0.929 . S
C2012 C2011 1.399 . S
C2012 C2013 1.385 . S
C2013 H1999 0.931 . S
C2013 C2012 1.385 . S
C2013 C2014 1.389 . S
C2014 C2013 1.389 . S
C2014 C2015 1.387 . S
C2015 H2000 0.930 . S
C2015 C2010 1.390 . S
C2015 C2014 1.387 . S
H2016 C2028 0.930 . S
H2017 C2030 0.930 . S
H2018 C2031 0.930 . S
H2019 C2035 0.959 . S
H2020 C2035 0.959 . S
H2021 C2035 0.961 . S
H2022 C2036 0.960 . S
H2023 C2036 0.961 . S
H2024 C2036 0.959 . S
H2025 C2039 0.929 . S
H2026 C2040 0.931 . S
H2027 C2042 0.930 . S
C2028 H2016 0.930 . S
C2028 C2029 1.399 . S
C2028 C2033 1.399 . S
C2029 C2028 1.399 . S
C2029 C2030 1.376 . S
C2030 H2017 0.930 . S
C2030 C2029 1.376 . S
C2030 C2031 1.388 . S
C2031 H2018 0.930 . S
C2031 C2030 1.388 . S
C2031 C2032 1.390 . S
C2032 C2031 1.390 . S
C2032 C2033 1.394 . S
C2032 C2038 1.465 . S
C2033 C2028 1.399 . S
C2033 C2032 1.394 . S
C2033 C2034 1.516 . S
C2034 C2033 1.516 . S
C2034 C2035 1.502 . S
C2034 C2036 1.561 . S
C2034 C2037 1.526 . S
C2035 H2019 0.959 . S
C2035 H2020 0.959 . S
C2035 H2021 0.961 . S
C2035 C2034 1.502 . S
C2036 H2022 0.960 . S
C2036 H2023 0.961 . S
C2036 H2024 0.959 . S
C2036 C2034 1.561 . S
C2037 C2034 1.526 . S
C2037 C2038 1.396 . S
C2037 C2042 1.390 . S
C2038 C2032 1.465 . S
C2038 C2037 1.396 . S
C2038 C2039 1.399 . S
C2039 H2025 0.929 . S
C2039 C2038 1.399 . S
C2039 C2040 1.385 . S
C2040 H2026 0.931 . S
C2040 C2039 1.385 . S
C2040 C2041 1.389 . S
C2041 C2040 1.389 . S
C2041 C2042 1.387 . S
C2042 H2027 0.930 . S
C2042 C2037 1.390 . S
C2042 C2041 1.387 . S
H2043 C2055 0.930 . S
H2044 C2057 0.930 . S
H2045 C2058 0.930 . S
H2046 C2062 0.959 . S
H2047 C2062 0.959 . S
H2048 C2062 0.961 . S
H2049 C2063 0.960 . S
H2050 C2063 0.961 . S
H2051 C2063 0.959 . S
H2052 C2066 0.929 . S
H2053 C2067 0.931 . S
H2054 C2069 0.930 . S
C2055 H2043 0.930 . S
C2055 C2056 1.399 . S
C2055 C2060 1.399 . S
C2056 C2055 1.399 . S
C2056 C2057 1.376 . S
C2057 H2044 0.930 . S
C2057 C2056 1.376 . S
C2057 C2058 1.388 . S
C2058 H2045 0.930 . S
C2058 C2057 1.388 . S
C2058 C2059 1.390 . S
C2059 C2058 1.390 . S
C2059 C2060 1.394 . S
C2059 C2065 1.465 . S
C2060 C2055 1.399 . S
C2060 C2059 1.394 . S
C2060 C2061 1.516 . S
C2061 C2060 1.516 . S
C2061 C2062 1.502 . S
C2061 C2063 1.561 . S
C2061 C2064 1.526 . S
C2062 H2046 0.959 . S
C2062 H2047 0.959 . S
C2062 H2048 0.961 . S
C2062 C2061 1.502 . S
C2063 H2049 0.960 . S
C2063 H2050 0.961 . S
C2063 H2051 0.959 . S
C2063 C2061 1.561 . S
C2064 C2061 1.526 . S
C2064 C2065 1.396 . S
C2064 C2069 1.390 . S
C2065 C2059 1.465 . S
C2065 C2064 1.396 . S
C2065 C2066 1.399 . S
C2066 H2052 0.929 . S
C2066 C2065 1.399 . S
C2066 C2067 1.385 . S
C2067 H2053 0.931 . S
C2067 C2066 1.385 . S
C2067 C2068 1.389 . S
C2068 C2067 1.389 . S
C2068 C2069 1.387 . S
C2069 H2054 0.930 . S
C2069 C2064 1.390 . S
C2069 C2068 1.387 . S
H2070 C2082 0.930 . S
H2071 C2084 0.930 . S
H2072 C2085 0.930 . S
H2073 C2089 0.959 . S
H2074 C2089 0.959 . S
H2075 C2089 0.961 . S
H2076 C2090 0.960 . S
H2077 C2090 0.961 . S
H2078 C2090 0.959 . S
H2079 C2093 0.929 . S
H2080 C2094 0.931 . S
H2081 C2096 0.930 . S
C2082 H2070 0.930 . S
C2082 C2083 1.399 . S
C2082 C2087 1.399 . S
C2083 C2082 1.399 . S
C2083 C2084 1.376 . S
C2084 H2071 0.930 . S
C2084 C2083 1.376 . S
C2084 C2085 1.388 . S
C2085 H2072 0.930 . S
C2085 C2084 1.388 . S
C2085 C2086 1.390 . S
C2086 C2085 1.390 . S
C2086 C2087 1.394 . S
C2086 C2092 1.465 . S
C2087 C2082 1.399 . S
C2087 C2086 1.394 . S
C2087 C2088 1.516 . S
C2088 C2087 1.516 . S
C2088 C2089 1.502 . S
C2088 C2090 1.561 . S
C2088 C2091 1.526 . S
C2089 H2073 0.959 . S
C2089 H2074 0.959 . S
C2089 H2075 0.961 . S
C2089 C2088 1.502 . S
C2090 H2076 0.960 . S
C2090 H2077 0.961 . S
C2090 H2078 0.959 . S
C2090 C2088 1.561 . S
C2091 C2088 1.526 . S
C2091 C2092 1.396 . S
C2091 C2096 1.390 . S
C2092 C2086 1.465 . S
C2092 C2091 1.396 . S
C2092 C2093 1.399 . S
C2093 H2079 0.929 . S
C2093 C2092 1.399 . S
C2093 C2094 1.385 . S
C2094 H2080 0.931 . S
C2094 C2093 1.385 . S
C2094 C2095 1.389 . S
C2095 C2094 1.389 . S
C2095 C2096 1.387 . S
C2096 H2081 0.930 . S
C2096 C2091 1.390 . S
C2096 C2095 1.387 . S
H2097 C2109 0.930 . S
H2098 C2111 0.930 . S
H2099 C2112 0.930 . S
H2100 C2116 0.959 . S
H2101 C2116 0.959 . S
H2102 C2116 0.961 . S
H2103 C2117 0.960 . S
H2104 C2117 0.961 . S
H2105 C2117 0.959 . S
H2106 C2120 0.929 . S
H2107 C2121 0.931 . S
H2108 C2123 0.930 . S
C2109 H2097 0.930 . S
C2109 C2110 1.399 . S
C2109 C2114 1.399 . S
C2110 C2109 1.399 . S
C2110 C2111 1.376 . S
C2111 H2098 0.930 . S
C2111 C2110 1.376 . S
C2111 C2112 1.388 . S
C2112 H2099 0.930 . S
C2112 C2111 1.388 . S
C2112 C2113 1.390 . S
C2113 C2112 1.390 . S
C2113 C2114 1.394 . S
C2113 C2119 1.465 . S
C2114 C2109 1.399 . S
C2114 C2113 1.394 . S
C2114 C2115 1.516 . S
C2115 C2114 1.516 . S
C2115 C2116 1.502 . S
C2115 C2117 1.561 . S
C2115 C2118 1.526 . S
C2116 H2100 0.959 . S
C2116 H2101 0.959 . S
C2116 H2102 0.961 . S
C2116 C2115 1.502 . S
C2117 H2103 0.960 . S
C2117 H2104 0.961 . S
C2117 H2105 0.959 . S
C2117 C2115 1.561 . S
C2118 C2115 1.526 . S
C2118 C2119 1.396 . S
C2118 C2123 1.390 . S
C2119 C2113 1.465 . S
C2119 C2118 1.396 . S
C2119 C2120 1.399 . S
C2120 H2106 0.929 . S
C2120 C2119 1.399 . S
C2120 C2121 1.385 . S
C2121 H2107 0.931 . S
C2121 C2120 1.385 . S
C2121 C2122 1.389 . S
C2122 C2121 1.389 . S
C2122 C2123 1.387 . S
C2123 H2108 0.930 . S
C2123 C2118 1.390 . S
C2123 C2122 1.387 . S
H2124 C2136 0.930 . S
H2125 C2138 0.930 . S
H2126 C2139 0.930 . S
H2127 C2143 0.959 . S
H2128 C2143 0.959 . S
H2129 C2143 0.961 . S
H2130 C2144 0.960 . S
H2131 C2144 0.961 . S
H2132 C2144 0.959 . S
H2133 C2147 0.929 . S
H2134 C2148 0.931 . S
H2135 C2150 0.930 . S
C2136 H2124 0.930 . S
C2136 C2137 1.399 . S
C2136 C2141 1.399 . S
C2137 C2136 1.399 . S
C2137 C2138 1.376 . S
C2138 H2125 0.930 . S
C2138 C2137 1.376 . S
C2138 C2139 1.388 . S
C2139 H2126 0.930 . S
C2139 C2138 1.388 . S
C2139 C2140 1.390 . S
C2140 C2139 1.390 . S
C2140 C2141 1.394 . S
C2140 C2146 1.465 . S
C2141 C2136 1.399 . S
C2141 C2140 1.394 . S
C2141 C2142 1.516 . S
C2142 C2141 1.516 . S
C2142 C2143 1.502 . S
C2142 C2144 1.561 . S
C2142 C2145 1.526 . S
C2143 H2127 0.959 . S
C2143 H2128 0.959 . S
C2143 H2129 0.961 . S
C2143 C2142 1.502 . S
C2144 H2130 0.960 . S
C2144 H2131 0.961 . S
C2144 H2132 0.959 . S
C2144 C2142 1.561 . S
C2145 C2142 1.526 . S
C2145 C2146 1.396 . S
C2145 C2150 1.390 . S
C2146 C2140 1.465 . S
C2146 C2145 1.396 . S
C2146 C2147 1.399 . S
C2147 H2133 0.929 . S
C2147 C2146 1.399 . S
C2147 C2148 1.385 . S
C2148 H2134 0.931 . S
C2148 C2147 1.385 . S
C2148 C2149 1.389 . S
C2149 C2148 1.389 . S
C2149 C2150 1.387 . S
C2150 H2135 0.930 . S
C2150 C2145 1.390 . S
C2150 C2149 1.387 . S
H2151 C2163 0.930 . S
H2152 C2165 0.930 . S
H2153 C2166 0.930 . S
H2154 C2170 0.959 . S
H2155 C2170 0.959 . S
H2156 C2170 0.961 . S
H2157 C2171 0.960 . S
H2158 C2171 0.961 . S
H2159 C2171 0.959 . S
H2160 C2174 0.929 . S
H2161 C2175 0.931 . S
H2162 C2177 0.930 . S
C2163 H2151 0.930 . S
C2163 C2164 1.399 . S
C2163 C2168 1.399 . S
C2164 C2163 1.399 . S
C2164 C2165 1.376 . S
C2165 H2152 0.930 . S
C2165 C2164 1.376 . S
C2165 C2166 1.388 . S
C2166 H2153 0.930 . S
C2166 C2165 1.388 . S
C2166 C2167 1.390 . S
C2167 C2166 1.390 . S
C2167 C2168 1.394 . S
C2167 C2173 1.465 . S
C2168 C2163 1.399 . S
C2168 C2167 1.394 . S
C2168 C2169 1.516 . S
C2169 C2168 1.516 . S
C2169 C2170 1.502 . S
C2169 C2171 1.561 . S
C2169 C2172 1.526 . S
C2170 H2154 0.959 . S
C2170 H2155 0.959 . S
C2170 H2156 0.961 . S
C2170 C2169 1.502 . S
C2171 H2157 0.960 . S
C2171 H2158 0.961 . S
C2171 H2159 0.959 . S
C2171 C2169 1.561 . S
C2172 C2169 1.526 . S
C2172 C2173 1.396 . S
C2172 C2177 1.390 . S
C2173 C2167 1.465 . S
C2173 C2172 1.396 . S
C2173 C2174 1.399 . S
C2174 H2160 0.929 . S
C2174 C2173 1.399 . S
C2174 C2175 1.385 . S
C2175 H2161 0.931 . S
C2175 C2174 1.385 . S
C2175 C2176 1.389 . S
C2176 C2175 1.389 . S
C2176 C2177 1.387 . S
C2177 H2162 0.930 . S
C2177 C2172 1.390 . S
C2177 C2176 1.387 . S
H2178 C2190 0.930 . S
H2179 C2192 0.930 . S
H2180 C2193 0.930 . S
H2181 C2197 0.959 . S
H2182 C2197 0.959 . S
H2183 C2197 0.961 . S
H2184 C2198 0.960 . S
H2185 C2198 0.961 . S
H2186 C2198 0.959 . S
H2187 C2201 0.929 . S
H2188 C2202 0.931 . S
H2189 C2204 0.930 . S
C2190 H2178 0.930 . S
C2190 C2191 1.399 . S
C2190 C2195 1.399 . S
C2191 C2190 1.399 . S
C2191 C2192 1.376 . S
C2192 H2179 0.930 . S
C2192 C2191 1.376 . S
C2192 C2193 1.388 . S
C2193 H2180 0.930 . S
C2193 C2192 1.388 . S
C2193 C2194 1.390 . S
C2194 C2193 1.390 . S
C2194 C2195 1.394 . S
C2194 C2200 1.465 . S
C2195 C2190 1.399 . S
C2195 C2194 1.394 . S
C2195 C2196 1.516 . S
C2196 C2195 1.516 . S
C2196 C2197 1.502 . S
C2196 C2198 1.561 . S
C2196 C2199 1.526 . S
C2197 H2181 0.959 . S
C2197 H2182 0.959 . S
C2197 H2183 0.961 . S
C2197 C2196 1.502 . S
C2198 H2184 0.960 . S
C2198 H2185 0.961 . S
C2198 H2186 0.959 . S
C2198 C2196 1.561 . S
C2199 C2196 1.526 . S
C2199 C2200 1.396 . S
C2199 C2204 1.390 . S
C2200 C2194 1.465 . S
C2200 C2199 1.396 . S
C2200 C2201 1.399 . S
C2201 H2187 0.929 . S
C2201 C2200 1.399 . S
C2201 C2202 1.385 . S
C2202 H2188 0.931 . S
C2202 C2201 1.385 . S
C2202 C2203 1.389 . S
C2203 C2202 1.389 . S
C2203 C2204 1.387 . S
C2204 H2189 0.930 . S
C2204 C2199 1.390 . S
C2204 C2203 1.387 . S
H2205 C2217 0.930 . S
H2206 C2219 0.930 . S
H2207 C2220 0.930 . S
H2208 C2224 0.959 . S
H2209 C2224 0.959 . S
H2210 C2224 0.961 . S
H2211 C2225 0.960 . S
H2212 C2225 0.961 . S
H2213 C2225 0.959 . S
H2214 C2228 0.929 . S
H2215 C2229 0.931 . S
H2216 C2231 0.930 . S
C2217 H2205 0.930 . S
C2217 C2218 1.399 . S
C2217 C2222 1.399 . S
C2218 C2217 1.399 . S
C2218 C2219 1.376 . S
C2219 H2206 0.930 . S
C2219 C2218 1.376 . S
C2219 C2220 1.388 . S
C2220 H2207 0.930 . S
C2220 C2219 1.388 . S
C2220 C2221 1.390 . S
C2221 C2220 1.390 . S
C2221 C2222 1.394 . S
C2221 C2227 1.465 . S
C2222 C2217 1.399 . S
C2222 C2221 1.394 . S
C2222 C2223 1.516 . S
C2223 C2222 1.516 . S
C2223 C2224 1.502 . S
C2223 C2225 1.561 . S
C2223 C2226 1.526 . S
C2224 H2208 0.959 . S
C2224 H2209 0.959 . S
C2224 H2210 0.961 . S
C2224 C2223 1.502 . S
C2225 H2211 0.960 . S
C2225 H2212 0.961 . S
C2225 H2213 0.959 . S
C2225 C2223 1.561 . S
C2226 C2223 1.526 . S
C2226 C2227 1.396 . S
C2226 C2231 1.390 . S
C2227 C2221 1.465 . S
C2227 C2226 1.396 . S
C2227 C2228 1.399 . S
C2228 H2214 0.929 . S
C2228 C2227 1.399 . S
C2228 C2229 1.385 . S
C2229 H2215 0.931 . S
C2229 C2228 1.385 . S
C2229 C2230 1.389 . S
C2230 C2229 1.389 . S
C2230 C2231 1.387 . S
C2231 H2216 0.930 . S
C2231 C2226 1.390 . S
C2231 C2230 1.387 . S
H2232 C2244 0.930 . S
H2233 C2246 0.930 . S
H2234 C2247 0.930 . S
H2235 C2251 0.959 . S
H2236 C2251 0.959 . S
H2237 C2251 0.961 . S
H2238 C2252 0.960 . S
H2239 C2252 0.961 . S
H2240 C2252 0.959 . S
H2241 C2255 0.929 . S
H2242 C2256 0.931 . S
H2243 C2258 0.930 . S
C2244 H2232 0.930 . S
C2244 C2245 1.399 . S
C2244 C2249 1.399 . S
C2245 C2244 1.399 . S
C2245 C2246 1.376 . S
C2246 H2233 0.930 . S
C2246 C2245 1.376 . S
C2246 C2247 1.388 . S
C2247 H2234 0.930 . S
C2247 C2246 1.388 . S
C2247 C2248 1.390 . S
C2248 C2247 1.390 . S
C2248 C2249 1.394 . S
C2248 C2254 1.465 . S
C2249 C2244 1.399 . S
C2249 C2248 1.394 . S
C2249 C2250 1.516 . S
C2250 C2249 1.516 . S
C2250 C2251 1.502 . S
C2250 C2252 1.561 . S
C2250 C2253 1.526 . S
C2251 H2235 0.959 . S
C2251 H2236 0.959 . S
C2251 H2237 0.961 . S
C2251 C2250 1.502 . S
C2252 H2238 0.960 . S
C2252 H2239 0.961 . S
C2252 H2240 0.959 . S
C2252 C2250 1.561 . S
C2253 C2250 1.526 . S
C2253 C2254 1.396 . S
C2253 C2258 1.390 . S
C2254 C2248 1.465 . S
C2254 C2253 1.396 . S
C2254 C2255 1.399 . S
C2255 H2241 0.929 . S
C2255 C2254 1.399 . S
C2255 C2256 1.385 . S
C2256 H2242 0.931 . S
C2256 C2255 1.385 . S
C2256 C2257 1.389 . S
C2257 C2256 1.389 . S
C2257 C2258 1.387 . S
C2258 H2243 0.930 . S
C2258 C2253 1.390 . S
C2258 C2257 1.387 . S
H2259 C2271 0.930 . S
H2260 C2273 0.930 . S
H2261 C2274 0.930 . S
H2262 C2278 0.959 . S
H2263 C2278 0.959 . S
H2264 C2278 0.961 . S
H2265 C2279 0.960 . S
H2266 C2279 0.961 . S
H2267 C2279 0.959 . S
H2268 C2282 0.929 . S
H2269 C2283 0.931 . S
H2270 C2285 0.930 . S
C2271 H2259 0.930 . S
C2271 C2272 1.399 . S
C2271 C2276 1.399 . S
C2272 C2271 1.399 . S
C2272 C2273 1.376 . S
C2273 H2260 0.930 . S
C2273 C2272 1.376 . S
C2273 C2274 1.388 . S
C2274 H2261 0.930 . S
C2274 C2273 1.388 . S
C2274 C2275 1.390 . S
C2275 C2274 1.390 . S
C2275 C2276 1.394 . S
C2275 C2281 1.465 . S
C2276 C2271 1.399 . S
C2276 C2275 1.394 . S
C2276 C2277 1.516 . S
C2277 C2276 1.516 . S
C2277 C2278 1.502 . S
C2277 C2279 1.561 . S
C2277 C2280 1.526 . S
C2278 H2262 0.959 . S
C2278 H2263 0.959 . S
C2278 H2264 0.961 . S
C2278 C2277 1.502 . S
C2279 H2265 0.960 . S
C2279 H2266 0.961 . S
C2279 H2267 0.959 . S
C2279 C2277 1.561 . S
C2280 C2277 1.526 . S
C2280 C2281 1.396 . S
C2280 C2285 1.390 . S
C2281 C2275 1.465 . S
C2281 C2280 1.396 . S
C2281 C2282 1.399 . S
C2282 H2268 0.929 . S
C2282 C2281 1.399 . S
C2282 C2283 1.385 . S
C2283 H2269 0.931 . S
C2283 C2282 1.385 . S
C2283 C2284 1.389 . S
C2284 C2283 1.389 . S
C2284 C2285 1.387 . S
C2285 H2270 0.930 . S
C2285 C2280 1.390 . S
C2285 C2284 1.387 . S
H2286 C2298 0.930 . S
H2287 C2300 0.930 . S
H2288 C2301 0.930 . S
H2289 C2305 0.959 . S
H2290 C2305 0.959 . S
H2291 C2305 0.961 . S
H2292 C2306 0.960 . S
H2293 C2306 0.961 . S
H2294 C2306 0.959 . S
H2295 C2309 0.929 . S
H2296 C2310 0.931 . S
H2297 C2312 0.930 . S
C2298 H2286 0.930 . S
C2298 C2299 1.399 . S
C2298 C2303 1.399 . S
C2299 C2298 1.399 . S
C2299 C2300 1.376 . S
C2300 H2287 0.930 . S
C2300 C2299 1.376 . S
C2300 C2301 1.388 . S
C2301 H2288 0.930 . S
C2301 C2300 1.388 . S
C2301 C2302 1.390 . S
C2302 C2301 1.390 . S
C2302 C2303 1.394 . S
C2302 C2308 1.465 . S
C2303 C2298 1.399 . S
C2303 C2302 1.394 . S
C2303 C2304 1.516 . S
C2304 C2303 1.516 . S
C2304 C2305 1.502 . S
C2304 C2306 1.561 . S
C2304 C2307 1.526 . S
C2305 H2289 0.959 . S
C2305 H2290 0.959 . S
C2305 H2291 0.961 . S
C2305 C2304 1.502 . S
C2306 H2292 0.960 . S
C2306 H2293 0.961 . S
C2306 H2294 0.959 . S
C2306 C2304 1.561 . S
C2307 C2304 1.526 . S
C2307 C2308 1.396 . S
C2307 C2312 1.390 . S
C2308 C2302 1.465 . S
C2308 C2307 1.396 . S
C2308 C2309 1.399 . S
C2309 H2295 0.929 . S
C2309 C2308 1.399 . S
C2309 C2310 1.385 . S
C2310 H2296 0.931 . S
C2310 C2309 1.385 . S
C2310 C2311 1.389 . S
C2311 C2310 1.389 . S
C2311 C2312 1.387 . S
C2312 H2297 0.930 . S
C2312 C2307 1.390 . S
C2312 C2311 1.387 . S
H2313 C2325 0.930 . S
H2314 C2327 0.930 . S
H2315 C2328 0.930 . S
H2316 C2332 0.959 . S
H2317 C2332 0.959 . S
H2318 C2332 0.961 . S
H2319 C2333 0.960 . S
H2320 C2333 0.961 . S
H2321 C2333 0.959 . S
H2322 C2336 0.929 . S
H2323 C2337 0.931 . S
H2324 C2339 0.930 . S
C2325 H2313 0.930 . S
C2325 C2326 1.399 . S
C2325 C2330 1.399 . S
C2326 C2325 1.399 . S
C2326 C2327 1.376 . S
C2327 H2314 0.930 . S
C2327 C2326 1.376 . S
C2327 C2328 1.388 . S
C2328 H2315 0.930 . S
C2328 C2327 1.388 . S
C2328 C2329 1.390 . S
C2329 C2328 1.390 . S
C2329 C2330 1.394 . S
C2329 C2335 1.465 . S
C2330 C2325 1.399 . S
C2330 C2329 1.394 . S
C2330 C2331 1.516 . S
C2331 C2330 1.516 . S
C2331 C2332 1.502 . S
C2331 C2333 1.561 . S
C2331 C2334 1.526 . S
C2332 H2316 0.959 . S
C2332 H2317 0.959 . S
C2332 H2318 0.961 . S
C2332 C2331 1.502 . S
C2333 H2319 0.960 . S
C2333 H2320 0.961 . S
C2333 H2321 0.959 . S
C2333 C2331 1.561 . S
C2334 C2331 1.526 . S
C2334 C2335 1.396 . S
C2334 C2339 1.390 . S
C2335 C2329 1.465 . S
C2335 C2334 1.396 . S
C2335 C2336 1.399 . S
C2336 H2322 0.929 . S
C2336 C2335 1.399 . S
C2336 C2337 1.385 . S
C2337 H2323 0.931 . S
C2337 C2336 1.385 . S
C2337 C2338 1.389 . S
C2338 C2337 1.389 . S
C2338 C2339 1.387 . S
C2339 H2324 0.930 . S
C2339 C2334 1.390 . S
C2339 C2338 1.387 . S
H2340 C2352 0.930 . S
H2341 C2354 0.930 . S
H2342 C2355 0.930 . S
H2343 C2359 0.959 . S
H2344 C2359 0.959 . S
H2345 C2359 0.961 . S
H2346 C2360 0.960 . S
H2347 C2360 0.961 . S
H2348 C2360 0.959 . S
H2349 C2363 0.929 . S
H2350 C2364 0.931 . S
H2351 C2366 0.930 . S
C2352 H2340 0.930 . S
C2352 C2353 1.399 . S
C2352 C2357 1.399 . S
C2353 C2352 1.399 . S
C2353 C2354 1.376 . S
C2354 H2341 0.930 . S
C2354 C2353 1.376 . S
C2354 C2355 1.388 . S
C2355 H2342 0.930 . S
C2355 C2354 1.388 . S
C2355 C2356 1.390 . S
C2356 C2355 1.390 . S
C2356 C2357 1.394 . S
C2356 C2362 1.465 . S
C2357 C2352 1.399 . S
C2357 C2356 1.394 . S
C2357 C2358 1.516 . S
C2358 C2357 1.516 . S
C2358 C2359 1.502 . S
C2358 C2360 1.561 . S
C2358 C2361 1.526 . S
C2359 H2343 0.959 . S
C2359 H2344 0.959 . S
C2359 H2345 0.961 . S
C2359 C2358 1.502 . S
C2360 H2346 0.960 . S
C2360 H2347 0.961 . S
C2360 H2348 0.959 . S
C2360 C2358 1.561 . S
C2361 C2358 1.526 . S
C2361 C2362 1.396 . S
C2361 C2366 1.390 . S
C2362 C2356 1.465 . S
C2362 C2361 1.396 . S
C2362 C2363 1.399 . S
C2363 H2349 0.929 . S
C2363 C2362 1.399 . S
C2363 C2364 1.385 . S
C2364 H2350 0.931 . S
C2364 C2363 1.385 . S
C2364 C2365 1.389 . S
C2365 C2364 1.389 . S
C2365 C2366 1.387 . S
C2366 H2351 0.930 . S
C2366 C2361 1.390 . S
C2366 C2365 1.387 . S
H2367 C2379 0.930 . S
H2368 C2381 0.930 . S
H2369 C2382 0.930 . S
H2370 C2386 0.959 . S
H2371 C2386 0.959 . S
H2372 C2386 0.961 . S
H2373 C2387 0.960 . S
H2374 C2387 0.961 . S
H2375 C2387 0.959 . S
H2376 C2390 0.929 . S
H2377 C2391 0.931 . S
H2378 C2393 0.930 . S
C2379 H2367 0.930 . S
C2379 C2380 1.399 . S
C2379 C2384 1.399 . S
C2380 C2379 1.399 . S
C2380 C2381 1.376 . S
C2381 H2368 0.930 . S
C2381 C2380 1.376 . S
C2381 C2382 1.388 . S
C2382 H2369 0.930 . S
C2382 C2381 1.388 . S
C2382 C2383 1.390 . S
C2383 C2382 1.390 . S
C2383 C2384 1.394 . S
C2383 C2389 1.465 . S
C2384 C2379 1.399 . S
C2384 C2383 1.394 . S
C2384 C2385 1.516 . S
C2385 C2384 1.516 . S
C2385 C2386 1.502 . S
C2385 C2387 1.561 . S
C2385 C2388 1.526 . S
C2386 H2370 0.959 . S
C2386 H2371 0.959 . S
C2386 H2372 0.961 . S
C2386 C2385 1.502 . S
C2387 H2373 0.960 . S
C2387 H2374 0.961 . S
C2387 H2375 0.959 . S
C2387 C2385 1.561 . S
C2388 C2385 1.526 . S
C2388 C2389 1.396 . S
C2388 C2393 1.390 . S
C2389 C2383 1.465 . S
C2389 C2388 1.396 . S
C2389 C2390 1.399 . S
C2390 H2376 0.929 . S
C2390 C2389 1.399 . S
C2390 C2391 1.385 . S
C2391 H2377 0.931 . S
C2391 C2390 1.385 . S
C2391 C2392 1.389 . S
C2392 C2391 1.389 . S
C2392 C2393 1.387 . S
C2393 H2378 0.930 . S
C2393 C2388 1.390 . S
C2393 C2392 1.387 . S
H2394 C2406 0.930 . S
H2395 C2408 0.930 . S
H2396 C2409 0.930 . S
H2397 C2413 0.959 . S
H2398 C2413 0.959 . S
H2399 C2413 0.961 . S
H2400 C2414 0.960 . S
H2401 C2414 0.961 . S
H2402 C2414 0.959 . S
H2403 C2417 0.929 . S
H2404 C2418 0.931 . S
H2405 C2420 0.930 . S
C2406 H2394 0.930 . S
C2406 C2407 1.399 . S
C2406 C2411 1.399 . S
C2407 C2406 1.399 . S
C2407 C2408 1.376 . S
C2408 H2395 0.930 . S
C2408 C2407 1.376 . S
C2408 C2409 1.388 . S
C2409 H2396 0.930 . S
C2409 C2408 1.388 . S
C2409 C2410 1.390 . S
C2410 C2409 1.390 . S
C2410 C2411 1.394 . S
C2410 C2416 1.465 . S
C2411 C2406 1.399 . S
C2411 C2410 1.394 . S
C2411 C2412 1.516 . S
C2412 C2411 1.516 . S
C2412 C2413 1.502 . S
C2412 C2414 1.561 . S
C2412 C2415 1.526 . S
C2413 H2397 0.959 . S
C2413 H2398 0.959 . S
C2413 H2399 0.961 . S
C2413 C2412 1.502 . S
C2414 H2400 0.960 . S
C2414 H2401 0.961 . S
C2414 H2402 0.959 . S
C2414 C2412 1.561 . S
C2415 C2412 1.526 . S
C2415 C2416 1.396 . S
C2415 C2420 1.390 . S
C2416 C2410 1.465 . S
C2416 C2415 1.396 . S
C2416 C2417 1.399 . S
C2417 H2403 0.929 . S
C2417 C2416 1.399 . S
C2417 C2418 1.385 . S
C2418 H2404 0.931 . S
C2418 C2417 1.385 . S
C2418 C2419 1.389 . S
C2419 C2418 1.389 . S
C2419 C2420 1.387 . S
C2420 H2405 0.930 . S
C2420 C2415 1.390 . S
C2420 C2419 1.387 . S
H2421 C2433 0.930 . S
H2422 C2435 0.930 . S
H2423 C2436 0.930 . S
H2424 C2440 0.959 . S
H2425 C2440 0.959 . S
H2426 C2440 0.961 . S
H2427 C2441 0.960 . S
H2428 C2441 0.961 . S
H2429 C2441 0.959 . S
H2430 C2444 0.929 . S
H2431 C2445 0.931 . S
H2432 C2447 0.930 . S
C2433 H2421 0.930 . S
C2433 C2434 1.399 . S
C2433 C2438 1.399 . S
C2434 C2433 1.399 . S
C2434 C2435 1.376 . S
C2435 H2422 0.930 . S
C2435 C2434 1.376 . S
C2435 C2436 1.388 . S
C2436 H2423 0.930 . S
C2436 C2435 1.388 . S
C2436 C2437 1.390 . S
C2437 C2436 1.390 . S
C2437 C2438 1.394 . S
C2437 C2443 1.465 . S
C2438 C2433 1.399 . S
C2438 C2437 1.394 . S
C2438 C2439 1.516 . S
C2439 C2438 1.516 . S
C2439 C2440 1.502 . S
C2439 C2441 1.561 . S
C2439 C2442 1.526 . S
C2440 H2424 0.959 . S
C2440 H2425 0.959 . S
C2440 H2426 0.961 . S
C2440 C2439 1.502 . S
C2441 H2427 0.960 . S
C2441 H2428 0.961 . S
C2441 H2429 0.959 . S
C2441 C2439 1.561 . S
C2442 C2439 1.526 . S
C2442 C2443 1.396 . S
C2442 C2447 1.390 . S
C2443 C2437 1.465 . S
C2443 C2442 1.396 . S
C2443 C2444 1.399 . S
C2444 H2430 0.929 . S
C2444 C2443 1.399 . S
C2444 C2445 1.385 . S
C2445 H2431 0.931 . S
C2445 C2444 1.385 . S
C2445 C2446 1.389 . S
C2446 C2445 1.389 . S
C2446 C2447 1.387 . S
C2447 H2432 0.930 . S
C2447 C2442 1.390 . S
C2447 C2446 1.387 . S
H2448 C2460 0.930 . S
H2449 C2462 0.930 . S
H2450 C2463 0.930 . S
H2451 C2467 0.959 . S
H2452 C2467 0.959 . S
H2453 C2467 0.961 . S
H2454 C2468 0.960 . S
H2455 C2468 0.961 . S
H2456 C2468 0.959 . S
H2457 C2471 0.929 . S
H2458 C2472 0.931 . S
H2459 C2474 0.930 . S
C2460 H2448 0.930 . S
C2460 C2461 1.399 . S
C2460 C2465 1.399 . S
C2461 C2460 1.399 . S
C2461 C2462 1.376 . S
C2462 H2449 0.930 . S
C2462 C2461 1.376 . S
C2462 C2463 1.388 . S
C2463 H2450 0.930 . S
C2463 C2462 1.388 . S
C2463 C2464 1.390 . S
C2464 C2463 1.390 . S
C2464 C2465 1.394 . S
C2464 C2470 1.465 . S
C2465 C2460 1.399 . S
C2465 C2464 1.394 . S
C2465 C2466 1.516 . S
C2466 C2465 1.516 . S
C2466 C2467 1.502 . S
C2466 C2468 1.561 . S
C2466 C2469 1.526 . S
C2467 H2451 0.959 . S
C2467 H2452 0.959 . S
C2467 H2453 0.961 . S
C2467 C2466 1.502 . S
C2468 H2454 0.960 . S
C2468 H2455 0.961 . S
C2468 H2456 0.959 . S
C2468 C2466 1.561 . S
C2469 C2466 1.526 . S
C2469 C2470 1.396 . S
C2469 C2474 1.390 . S
C2470 C2464 1.465 . S
C2470 C2469 1.396 . S
C2470 C2471 1.399 . S
C2471 H2457 0.929 . S
C2471 C2470 1.399 . S
C2471 C2472 1.385 . S
C2472 H2458 0.931 . S
C2472 C2471 1.385 . S
C2472 C2473 1.389 . S
C2473 C2472 1.389 . S
C2473 C2474 1.387 . S
C2474 H2459 0.930 . S
C2474 C2469 1.390 . S
C2474 C2473 1.387 . S
H2475 C2487 0.930 . S
H2476 C2489 0.930 . S
H2477 C2490 0.930 . S
H2478 C2494 0.959 . S
H2479 C2494 0.959 . S
H2480 C2494 0.961 . S
H2481 C2495 0.960 . S
H2482 C2495 0.961 . S
H2483 C2495 0.959 . S
H2484 C2498 0.929 . S
H2485 C2499 0.931 . S
H2486 C2501 0.930 . S
C2487 H2475 0.930 . S
C2487 C2488 1.399 . S
C2487 C2492 1.399 . S
C2488 C2487 1.399 . S
C2488 C2489 1.376 . S
C2489 H2476 0.930 . S
C2489 C2488 1.376 . S
C2489 C2490 1.388 . S
C2490 H2477 0.930 . S
C2490 C2489 1.388 . S
C2490 C2491 1.390 . S
C2491 C2490 1.390 . S
C2491 C2492 1.394 . S
C2491 C2497 1.465 . S
C2492 C2487 1.399 . S
C2492 C2491 1.394 . S
C2492 C2493 1.516 . S
C2493 C2492 1.516 . S
C2493 C2494 1.502 . S
C2493 C2495 1.561 . S
C2493 C2496 1.526 . S
C2494 H2478 0.959 . S
C2494 H2479 0.959 . S
C2494 H2480 0.961 . S
C2494 C2493 1.502 . S
C2495 H2481 0.960 . S
C2495 H2482 0.961 . S
C2495 H2483 0.959 . S
C2495 C2493 1.561 . S
C2496 C2493 1.526 . S
C2496 C2497 1.396 . S
C2496 C2501 1.390 . S
C2497 C2491 1.465 . S
C2497 C2496 1.396 . S
C2497 C2498 1.399 . S
C2498 H2484 0.929 . S
C2498 C2497 1.399 . S
C2498 C2499 1.385 . S
C2499 H2485 0.931 . S
C2499 C2498 1.385 . S
C2499 C2500 1.389 . S
C2500 C2499 1.389 . S
C2500 C2501 1.387 . S
C2501 H2486 0.930 . S
C2501 C2496 1.390 . S
C2501 C2500 1.387 . S
H2502 C2514 0.930 . S
H2503 C2516 0.930 . S
H2504 C2517 0.930 . S
H2505 C2521 0.959 . S
H2506 C2521 0.959 . S
H2507 C2521 0.961 . S
H2508 C2522 0.960 . S
H2509 C2522 0.961 . S
H2510 C2522 0.959 . S
H2511 C2525 0.929 . S
H2512 C2526 0.931 . S
H2513 C2528 0.930 . S
C2514 H2502 0.930 . S
C2514 C2515 1.399 . S
C2514 C2519 1.399 . S
C2515 C2514 1.399 . S
C2515 C2516 1.376 . S
C2516 H2503 0.930 . S
C2516 C2515 1.376 . S
C2516 C2517 1.388 . S
C2517 H2504 0.930 . S
C2517 C2516 1.388 . S
C2517 C2518 1.390 . S
C2518 C2517 1.390 . S
C2518 C2519 1.394 . S
C2518 C2524 1.465 . S
C2519 C2514 1.399 . S
C2519 C2518 1.394 . S
C2519 C2520 1.516 . S
C2520 C2519 1.516 . S
C2520 C2521 1.502 . S
C2520 C2522 1.561 . S
C2520 C2523 1.526 . S
C2521 H2505 0.959 . S
C2521 H2506 0.959 . S
C2521 H2507 0.961 . S
C2521 C2520 1.502 . S
C2522 H2508 0.960 . S
C2522 H2509 0.961 . S
C2522 H2510 0.959 . S
C2522 C2520 1.561 . S
C2523 C2520 1.526 . S
C2523 C2524 1.396 . S
C2523 C2528 1.390 . S
C2524 C2518 1.465 . S
C2524 C2523 1.396 . S
C2524 C2525 1.399 . S
C2525 H2511 0.929 . S
C2525 C2524 1.399 . S
C2525 C2526 1.385 . S
C2526 H2512 0.931 . S
C2526 C2525 1.385 . S
C2526 C2527 1.389 . S
C2527 C2526 1.389 . S
C2527 C2528 1.387 . S
C2528 H2513 0.930 . S
C2528 C2523 1.390 . S
C2528 C2527 1.387 . S
H2529 C2541 0.930 . S
H2530 C2543 0.930 . S
H2531 C2544 0.930 . S
H2532 C2548 0.959 . S
H2533 C2548 0.959 . S
H2534 C2548 0.961 . S
H2535 C2549 0.960 . S
H2536 C2549 0.961 . S
H2537 C2549 0.959 . S
H2538 C2552 0.929 . S
H2539 C2553 0.931 . S
H2540 C2555 0.930 . S
C2541 H2529 0.930 . S
C2541 C2542 1.399 . S
C2541 C2546 1.399 . S
C2542 C2541 1.399 . S
C2542 C2543 1.376 . S
C2543 H2530 0.930 . S
C2543 C2542 1.376 . S
C2543 C2544 1.388 . S
C2544 H2531 0.930 . S
C2544 C2543 1.388 . S
C2544 C2545 1.390 . S
C2545 C2544 1.390 . S
C2545 C2546 1.394 . S
C2545 C2551 1.465 . S
C2546 C2541 1.399 . S
C2546 C2545 1.394 . S
C2546 C2547 1.516 . S
C2547 C2546 1.516 . S
C2547 C2548 1.502 . S
C2547 C2549 1.561 . S
C2547 C2550 1.526 . S
C2548 H2532 0.959 . S
C2548 H2533 0.959 . S
C2548 H2534 0.961 . S
C2548 C2547 1.502 . S
C2549 H2535 0.960 . S
C2549 H2536 0.961 . S
C2549 H2537 0.959 . S
C2549 C2547 1.561 . S
C2550 C2547 1.526 . S
C2550 C2551 1.396 . S
C2550 C2555 1.390 . S
C2551 C2545 1.465 . S
C2551 C2550 1.396 . S
C2551 C2552 1.399 . S
C2552 H2538 0.929 . S
C2552 C2551 1.399 . S
C2552 C2553 1.385 . S
C2553 H2539 0.931 . S
C2553 C2552 1.385 . S
C2553 C2554 1.389 . S
C2554 C2553 1.389 . S
C2554 C2555 1.387 . S
C2555 H2540 0.930 . S
C2555 C2550 1.390 . S
C2555 C2554 1.387 . S
H2556 C2568 0.930 . S
H2557 C2570 0.930 . S
H2558 C2571 0.930 . S
H2559 C2575 0.959 . S
H2560 C2575 0.959 . S
H2561 C2575 0.961 . S
H2562 C2576 0.960 . S
H2563 C2576 0.961 . S
H2564 C2576 0.959 . S
H2565 C2579 0.929 . S
H2566 C2580 0.931 . S
H2567 C2582 0.930 . S
C2568 H2556 0.930 . S
C2568 C2569 1.399 . S
C2568 C2573 1.399 . S
C2569 C2568 1.399 . S
C2569 C2570 1.376 . S
C2570 H2557 0.930 . S
C2570 C2569 1.376 . S
C2570 C2571 1.388 . S
C2571 H2558 0.930 . S
C2571 C2570 1.388 . S
C2571 C2572 1.390 . S
C2572 C2571 1.390 . S
C2572 C2573 1.394 . S
C2572 C2578 1.465 . S
C2573 C2568 1.399 . S
C2573 C2572 1.394 . S
C2573 C2574 1.516 . S
C2574 C2573 1.516 . S
C2574 C2575 1.502 . S
C2574 C2576 1.561 . S
C2574 C2577 1.526 . S
C2575 H2559 0.959 . S
C2575 H2560 0.959 . S
C2575 H2561 0.961 . S
C2575 C2574 1.502 . S
C2576 H2562 0.960 . S
C2576 H2563 0.961 . S
C2576 H2564 0.959 . S
C2576 C2574 1.561 . S
C2577 C2574 1.526 . S
C2577 C2578 1.396 . S
C2577 C2582 1.390 . S
C2578 C2572 1.465 . S
C2578 C2577 1.396 . S
C2578 C2579 1.399 . S
C2579 H2565 0.929 . S
C2579 C2578 1.399 . S
C2579 C2580 1.385 . S
C2580 H2566 0.931 . S
C2580 C2579 1.385 . S
C2580 C2581 1.389 . S
C2581 C2580 1.389 . S
C2581 C2582 1.387 . S
C2582 H2567 0.930 . S
C2582 C2577 1.390 . S
C2582 C2581 1.387 . S
H2583 C2595 0.930 . S
H2584 C2597 0.930 . S
H2585 C2598 0.930 . S
H2586 C2602 0.959 . S
H2587 C2602 0.959 . S
H2588 C2602 0.961 . S
H2589 C2603 0.960 . S
H2590 C2603 0.961 . S
H2591 C2603 0.959 . S
H2592 C2606 0.929 . S
H2593 C2607 0.931 . S
H2594 C2609 0.930 . S
C2595 H2583 0.930 . S
C2595 C2596 1.399 . S
C2595 C2600 1.399 . S
C2596 C2595 1.399 . S
C2596 C2597 1.376 . S
C2597 H2584 0.930 . S
C2597 C2596 1.376 . S
C2597 C2598 1.388 . S
C2598 H2585 0.930 . S
C2598 C2597 1.388 . S
C2598 C2599 1.390 . S
C2599 C2598 1.390 . S
C2599 C2600 1.394 . S
C2599 C2605 1.465 . S
C2600 C2595 1.399 . S
C2600 C2599 1.394 . S
C2600 C2601 1.516 . S
C2601 C2600 1.516 . S
C2601 C2602 1.502 . S
C2601 C2603 1.561 . S
C2601 C2604 1.526 . S
C2602 H2586 0.959 . S
C2602 H2587 0.959 . S
C2602 H2588 0.961 . S
C2602 C2601 1.502 . S
C2603 H2589 0.960 . S
C2603 H2590 0.961 . S
C2603 H2591 0.959 . S
C2603 C2601 1.561 . S
C2604 C2601 1.526 . S
C2604 C2605 1.396 . S
C2604 C2609 1.390 . S
C2605 C2599 1.465 . S
C2605 C2604 1.396 . S
C2605 C2606 1.399 . S
C2606 H2592 0.929 . S
C2606 C2605 1.399 . S
C2606 C2607 1.385 . S
C2607 H2593 0.931 . S
C2607 C2606 1.385 . S
C2607 C2608 1.389 . S
C2608 C2607 1.389 . S
C2608 C2609 1.387 . S
C2609 H2594 0.930 . S
C2609 C2604 1.390 . S
C2609 C2608 1.387 . S
H2610 C2622 0.930 . S
H2611 C2624 0.930 . S
H2612 C2625 0.930 . S
H2613 C2629 0.959 . S
H2614 C2629 0.959 . S
H2615 C2629 0.961 . S
H2616 C2630 0.960 . S
H2617 C2630 0.961 . S
H2618 C2630 0.959 . S
H2619 C2633 0.929 . S
H2620 C2634 0.931 . S
H2621 C2636 0.930 . S
C2622 H2610 0.930 . S
C2622 C2623 1.399 . S
C2622 C2627 1.399 . S
C2623 C2622 1.399 . S
C2623 C2624 1.376 . S
C2624 H2611 0.930 . S
C2624 C2623 1.376 . S
C2624 C2625 1.388 . S
C2625 H2612 0.930 . S
C2625 C2624 1.388 . S
C2625 C2626 1.390 . S
C2626 C2625 1.390 . S
C2626 C2627 1.394 . S
C2626 C2632 1.465 . S
C2627 C2622 1.399 . S
C2627 C2626 1.394 . S
C2627 C2628 1.516 . S
C2628 C2627 1.516 . S
C2628 C2629 1.502 . S
C2628 C2630 1.561 . S
C2628 C2631 1.526 . S
C2629 H2613 0.959 . S
C2629 H2614 0.959 . S
C2629 H2615 0.961 . S
C2629 C2628 1.502 . S
C2630 H2616 0.960 . S
C2630 H2617 0.961 . S
C2630 H2618 0.959 . S
C2630 C2628 1.561 . S
C2631 C2628 1.526 . S
C2631 C2632 1.396 . S
C2631 C2636 1.390 . S
C2632 C2626 1.465 . S
C2632 C2631 1.396 . S
C2632 C2633 1.399 . S
C2633 H2619 0.929 . S
C2633 C2632 1.399 . S
C2633 C2634 1.385 . S
C2634 H2620 0.931 . S
C2634 C2633 1.385 . S
C2634 C2635 1.389 . S
C2635 C2634 1.389 . S
C2635 C2636 1.387 . S
C2636 H2621 0.930 . S
C2636 C2631 1.390 . S
C2636 C2635 1.387 . S
H2637 C2649 0.930 . S
H2638 C2651 0.930 . S
H2639 C2652 0.930 . S
H2640 C2656 0.959 . S
H2641 C2656 0.959 . S
H2642 C2656 0.961 . S
H2643 C2657 0.960 . S
H2644 C2657 0.961 . S
H2645 C2657 0.959 . S
H2646 C2660 0.929 . S
H2647 C2661 0.931 . S
H2648 C2663 0.930 . S
C2649 H2637 0.930 . S
C2649 C2650 1.399 . S
C2649 C2654 1.399 . S
C2650 C2649 1.399 . S
C2650 C2651 1.376 . S
C2651 H2638 0.930 . S
C2651 C2650 1.376 . S
C2651 C2652 1.388 . S
C2652 H2639 0.930 . S
C2652 C2651 1.388 . S
C2652 C2653 1.390 . S
C2653 C2652 1.390 . S
C2653 C2654 1.394 . S
C2653 C2659 1.465 . S
C2654 C2649 1.399 . S
C2654 C2653 1.394 . S
C2654 C2655 1.516 . S
C2655 C2654 1.516 . S
C2655 C2656 1.502 . S
C2655 C2657 1.561 . S
C2655 C2658 1.526 . S
C2656 H2640 0.959 . S
C2656 H2641 0.959 . S
C2656 H2642 0.961 . S
C2656 C2655 1.502 . S
C2657 H2643 0.960 . S
C2657 H2644 0.961 . S
C2657 H2645 0.959 . S
C2657 C2655 1.561 . S
C2658 C2655 1.526 . S
C2658 C2659 1.396 . S
C2658 C2663 1.390 . S
C2659 C2653 1.465 . S
C2659 C2658 1.396 . S
C2659 C2660 1.399 . S
C2660 H2646 0.929 . S
C2660 C2659 1.399 . S
C2660 C2661 1.385 . S
C2661 H2647 0.931 . S
C2661 C2660 1.385 . S
C2661 C2662 1.389 . S
C2662 C2661 1.389 . S
C2662 C2663 1.387 . S
C2663 H2648 0.930 . S
C2663 C2658 1.390 . S
C2663 C2662 1.387 . S
H2664 C2676 0.930 . S
H2665 C2678 0.930 . S
H2666 C2679 0.930 . S
H2667 C2683 0.959 . S
H2668 C2683 0.959 . S
H2669 C2683 0.961 . S
H2670 C2684 0.960 . S
H2671 C2684 0.961 . S
H2672 C2684 0.959 . S
H2673 C2687 0.929 . S
H2674 C2688 0.931 . S
H2675 C2690 0.930 . S
C2676 H2664 0.930 . S
C2676 C2677 1.399 . S
C2676 C2681 1.399 . S
C2677 C2676 1.399 . S
C2677 C2678 1.376 . S
C2678 H2665 0.930 . S
C2678 C2677 1.376 . S
C2678 C2679 1.388 . S
C2679 H2666 0.930 . S
C2679 C2678 1.388 . S
C2679 C2680 1.390 . S
C2680 C2679 1.390 . S
C2680 C2681 1.394 . S
C2680 C2686 1.465 . S
C2681 C2676 1.399 . S
C2681 C2680 1.394 . S
C2681 C2682 1.516 . S
C2682 C2681 1.516 . S
C2682 C2683 1.502 . S
C2682 C2684 1.561 . S
C2682 C2685 1.526 . S
C2683 H2667 0.959 . S
C2683 H2668 0.959 . S
C2683 H2669 0.961 . S
C2683 C2682 1.502 . S
C2684 H2670 0.960 . S
C2684 H2671 0.961 . S
C2684 H2672 0.959 . S
C2684 C2682 1.561 . S
C2685 C2682 1.526 . S
C2685 C2686 1.396 . S
C2685 C2690 1.390 . S
C2686 C2680 1.465 . S
C2686 C2685 1.396 . S
C2686 C2687 1.399 . S
C2687 H2673 0.929 . S
C2687 C2686 1.399 . S
C2687 C2688 1.385 . S
C2688 H2674 0.931 . S
C2688 C2687 1.385 . S
C2688 C2689 1.389 . S
C2689 C2688 1.389 . S
C2689 C2690 1.387 . S
C2690 H2675 0.930 . S
C2690 C2685 1.390 . S
C2690 C2689 1.387 . S
H2691 C2703 0.930 . S
H2692 C2705 0.930 . S
H2693 C2706 0.930 . S
H2694 C2710 0.959 . S
H2695 C2710 0.959 . S
H2696 C2710 0.961 . S
H2697 C2711 0.960 . S
H2698 C2711 0.961 . S
H2699 C2711 0.959 . S
H2700 C2714 0.929 . S
H2701 C2715 0.931 . S
H2702 C2717 0.930 . S
C2703 H2691 0.930 . S
C2703 C2704 1.399 . S
C2703 C2708 1.399 . S
C2704 C2703 1.399 . S
C2704 C2705 1.376 . S
C2705 H2692 0.930 . S
C2705 C2704 1.376 . S
C2705 C2706 1.388 . S
C2706 H2693 0.930 . S
C2706 C2705 1.388 . S
C2706 C2707 1.390 . S
C2707 C2706 1.390 . S
C2707 C2708 1.394 . S
C2707 C2713 1.465 . S
C2708 C2703 1.399 . S
C2708 C2707 1.394 . S
C2708 C2709 1.516 . S
C2709 C2708 1.516 . S
C2709 C2710 1.502 . S
C2709 C2711 1.561 . S
C2709 C2712 1.526 . S
C2710 H2694 0.959 . S
C2710 H2695 0.959 . S
C2710 H2696 0.961 . S
C2710 C2709 1.502 . S
C2711 H2697 0.960 . S
C2711 H2698 0.961 . S
C2711 H2699 0.959 . S
C2711 C2709 1.561 . S
C2712 C2709 1.526 . S
C2712 C2713 1.396 . S
C2712 C2717 1.390 . S
C2713 C2707 1.465 . S
C2713 C2712 1.396 . S
C2713 C2714 1.399 . S
C2714 H2700 0.929 . S
C2714 C2713 1.399 . S
C2714 C2715 1.385 . S
C2715 H2701 0.931 . S
C2715 C2714 1.385 . S
C2715 C2716 1.389 . S
C2716 C2715 1.389 . S
C2716 C2717 1.387 . S
C2717 H2702 0.930 . S
C2717 C2712 1.390 . S
C2717 C2716 1.387 . S
H2718 C2730 0.930 . S
H2719 C2732 0.930 . S
H2720 C2733 0.930 . S
H2721 C2737 0.959 . S
H2722 C2737 0.959 . S
H2723 C2737 0.961 . S
H2724 C2738 0.960 . S
H2725 C2738 0.961 . S
H2726 C2738 0.959 . S
H2727 C2741 0.929 . S
H2728 C2742 0.931 . S
H2729 C2744 0.930 . S
C2730 H2718 0.930 . S
C2730 C2731 1.399 . S
C2730 C2735 1.399 . S
C2731 C2730 1.399 . S
C2731 C2732 1.376 . S
C2732 H2719 0.930 . S
C2732 C2731 1.376 . S
C2732 C2733 1.388 . S
C2733 H2720 0.930 . S
C2733 C2732 1.388 . S
C2733 C2734 1.390 . S
C2734 C2733 1.390 . S
C2734 C2735 1.394 . S
C2734 C2740 1.465 . S
C2735 C2730 1.399 . S
C2735 C2734 1.394 . S
C2735 C2736 1.516 . S
C2736 C2735 1.516 . S
C2736 C2737 1.502 . S
C2736 C2738 1.561 . S
C2736 C2739 1.526 . S
C2737 H2721 0.959 . S
C2737 H2722 0.959 . S
C2737 H2723 0.961 . S
C2737 C2736 1.502 . S
C2738 H2724 0.960 . S
C2738 H2725 0.961 . S
C2738 H2726 0.959 . S
C2738 C2736 1.561 . S
C2739 C2736 1.526 . S
C2739 C2740 1.396 . S
C2739 C2744 1.390 . S
C2740 C2734 1.465 . S
C2740 C2739 1.396 . S
C2740 C2741 1.399 . S
C2741 H2727 0.929 . S
C2741 C2740 1.399 . S
C2741 C2742 1.385 . S
C2742 H2728 0.931 . S
C2742 C2741 1.385 . S
C2742 C2743 1.389 . S
C2743 C2742 1.389 . S
C2743 C2744 1.387 . S
C2744 H2729 0.930 . S
C2744 C2739 1.390 . S
C2744 C2743 1.387 . S
H2745 C2757 0.930 . S
H2746 C2759 0.930 . S
H2747 C2760 0.930 . S
H2748 C2764 0.959 . S
H2749 C2764 0.959 . S
H2750 C2764 0.961 . S
H2751 C2765 0.960 . S
H2752 C2765 0.961 . S
H2753 C2765 0.959 . S
H2754 C2768 0.929 . S
H2755 C2769 0.931 . S
H2756 C2771 0.930 . S
C2757 H2745 0.930 . S
C2757 C2758 1.399 . S
C2757 C2762 1.399 . S
C2758 C2757 1.399 . S
C2758 C2759 1.376 . S
C2759 H2746 0.930 . S
C2759 C2758 1.376 . S
C2759 C2760 1.388 . S
C2760 H2747 0.930 . S
C2760 C2759 1.388 . S
C2760 C2761 1.390 . S
C2761 C2760 1.390 . S
C2761 C2762 1.394 . S
C2761 C2767 1.465 . S
C2762 C2757 1.399 . S
C2762 C2761 1.394 . S
C2762 C2763 1.516 . S
C2763 C2762 1.516 . S
C2763 C2764 1.502 . S
C2763 C2765 1.561 . S
C2763 C2766 1.526 . S
C2764 H2748 0.959 . S
C2764 H2749 0.959 . S
C2764 H2750 0.961 . S
C2764 C2763 1.502 . S
C2765 H2751 0.960 . S
C2765 H2752 0.961 . S
C2765 H2753 0.959 . S
C2765 C2763 1.561 . S
C2766 C2763 1.526 . S
C2766 C2767 1.396 . S
C2766 C2771 1.390 . S
C2767 C2761 1.465 . S
C2767 C2766 1.396 . S
C2767 C2768 1.399 . S
C2768 H2754 0.929 . S
C2768 C2767 1.399 . S
C2768 C2769 1.385 . S
C2769 H2755 0.931 . S
C2769 C2768 1.385 . S
C2769 C2770 1.389 . S
C2770 C2769 1.389 . S
C2770 C2771 1.387 . S
C2771 H2756 0.930 . S
C2771 C2766 1.390 . S
C2771 C2770 1.387 . S
H2772 C2784 0.930 . S
H2773 C2786 0.930 . S
H2774 C2787 0.930 . S
H2775 C2791 0.959 . S
H2776 C2791 0.959 . S
H2777 C2791 0.961 . S
H2778 C2792 0.960 . S
H2779 C2792 0.961 . S
H2780 C2792 0.959 . S
H2781 C2795 0.929 . S
H2782 C2796 0.931 . S
H2783 C2798 0.930 . S
C2784 H2772 0.930 . S
C2784 C2785 1.399 . S
C2784 C2789 1.399 . S
C2785 C2784 1.399 . S
C2785 C2786 1.376 . S
C2786 H2773 0.930 . S
C2786 C2785 1.376 . S
C2786 C2787 1.388 . S
C2787 H2774 0.930 . S
C2787 C2786 1.388 . S
C2787 C2788 1.390 . S
C2788 C2787 1.390 . S
C2788 C2789 1.394 . S
C2788 C2794 1.465 . S
C2789 C2784 1.399 . S
C2789 C2788 1.394 . S
C2789 C2790 1.516 . S
C2790 C2789 1.516 . S
C2790 C2791 1.502 . S
C2790 C2792 1.561 . S
C2790 C2793 1.526 . S
C2791 H2775 0.959 . S
C2791 H2776 0.959 . S
C2791 H2777 0.961 . S
C2791 C2790 1.502 . S
C2792 H2778 0.960 . S
C2792 H2779 0.961 . S
C2792 H2780 0.959 . S
C2792 C2790 1.561 . S
C2793 C2790 1.526 . S
C2793 C2794 1.396 . S
C2793 C2798 1.390 . S
C2794 C2788 1.465 . S
C2794 C2793 1.396 . S
C2794 C2795 1.399 . S
C2795 H2781 0.929 . S
C2795 C2794 1.399 . S
C2795 C2796 1.385 . S
C2796 H2782 0.931 . S
C2796 C2795 1.385 . S
C2796 C2797 1.389 . S
C2797 C2796 1.389 . S
C2797 C2798 1.387 . S
C2798 H2783 0.930 . S
C2798 C2793 1.390 . S
C2798 C2797 1.387 . S
H2799 C2811 0.930 . S
H2800 C2813 0.930 . S
H2801 C2814 0.930 . S
H2802 C2818 0.959 . S
H2803 C2818 0.959 . S
H2804 C2818 0.961 . S
H2805 C2819 0.960 . S
H2806 C2819 0.961 . S
H2807 C2819 0.959 . S
H2808 C2822 0.929 . S
H2809 C2823 0.931 . S
H2810 C2825 0.930 . S
C2811 H2799 0.930 . S
C2811 C2812 1.399 . S
C2811 C2816 1.399 . S
C2812 C2811 1.399 . S
C2812 C2813 1.376 . S
C2813 H2800 0.930 . S
C2813 C2812 1.376 . S
C2813 C2814 1.388 . S
C2814 H2801 0.930 . S
C2814 C2813 1.388 . S
C2814 C2815 1.390 . S
C2815 C2814 1.390 . S
C2815 C2816 1.394 . S
C2815 C2821 1.465 . S
C2816 C2811 1.399 . S
C2816 C2815 1.394 . S
C2816 C2817 1.516 . S
C2817 C2816 1.516 . S
C2817 C2818 1.502 . S
C2817 C2819 1.561 . S
C2817 C2820 1.526 . S
C2818 H2802 0.959 . S
C2818 H2803 0.959 . S
C2818 H2804 0.961 . S
C2818 C2817 1.502 . S
C2819 H2805 0.960 . S
C2819 H2806 0.961 . S
C2819 H2807 0.959 . S
C2819 C2817 1.561 . S
C2820 C2817 1.526 . S
C2820 C2821 1.396 . S
C2820 C2825 1.390 . S
C2821 C2815 1.465 . S
C2821 C2820 1.396 . S
C2821 C2822 1.399 . S
C2822 H2808 0.929 . S
C2822 C2821 1.399 . S
C2822 C2823 1.385 . S
C2823 H2809 0.931 . S
C2823 C2822 1.385 . S
C2823 C2824 1.389 . S
C2824 C2823 1.389 . S
C2824 C2825 1.387 . S
C2825 H2810 0.930 . S
C2825 C2820 1.390 . S
C2825 C2824 1.387 . S
H2826 C2838 0.930 . S
H2827 C2840 0.930 . S
H2828 C2841 0.930 . S
H2829 C2845 0.959 . S
H2830 C2845 0.959 . S
H2831 C2845 0.961 . S
H2832 C2846 0.960 . S
H2833 C2846 0.961 . S
H2834 C2846 0.959 . S
H2835 C2849 0.929 . S
H2836 C2850 0.931 . S
H2837 C2852 0.930 . S
C2838 H2826 0.930 . S
C2838 C2839 1.399 . S
C2838 C2843 1.399 . S
C2839 C2838 1.399 . S
C2839 C2840 1.376 . S
C2840 H2827 0.930 . S
C2840 C2839 1.376 . S
C2840 C2841 1.388 . S
C2841 H2828 0.930 . S
C2841 C2840 1.388 . S
C2841 C2842 1.390 . S
C2842 C2841 1.390 . S
C2842 C2843 1.394 . S
C2842 C2848 1.465 . S
C2843 C2838 1.399 . S
C2843 C2842 1.394 . S
C2843 C2844 1.516 . S
C2844 C2843 1.516 . S
C2844 C2845 1.502 . S
C2844 C2846 1.561 . S
C2844 C2847 1.526 . S
C2845 H2829 0.959 . S
C2845 H2830 0.959 . S
C2845 H2831 0.961 . S
C2845 C2844 1.502 . S
C2846 H2832 0.960 . S
C2846 H2833 0.961 . S
C2846 H2834 0.959 . S
C2846 C2844 1.561 . S
C2847 C2844 1.526 . S
C2847 C2848 1.396 . S
C2847 C2852 1.390 . S
C2848 C2842 1.465 . S
C2848 C2847 1.396 . S
C2848 C2849 1.399 . S
C2849 H2835 0.929 . S
C2849 C2848 1.399 . S
C2849 C2850 1.385 . S
C2850 H2836 0.931 . S
C2850 C2849 1.385 . S
C2850 C2851 1.389 . S
C2851 C2850 1.389 . S
C2851 C2852 1.387 . S
C2852 H2837 0.930 . S
C2852 C2847 1.390 . S
C2852 C2851 1.387 . S
H2853 C2865 0.930 . S
H2854 C2867 0.930 . S
H2855 C2868 0.930 . S
H2856 C2872 0.959 . S
H2857 C2872 0.959 . S
H2858 C2872 0.961 . S
H2859 C2873 0.960 . S
H2860 C2873 0.961 . S
H2861 C2873 0.959 . S
H2862 C2876 0.929 . S
H2863 C2877 0.931 . S
H2864 C2879 0.930 . S
C2865 H2853 0.930 . S
C2865 C2866 1.399 . S
C2865 C2870 1.399 . S
C2866 C2865 1.399 . S
C2866 C2867 1.376 . S
C2867 H2854 0.930 . S
C2867 C2866 1.376 . S
C2867 C2868 1.388 . S
C2868 H2855 0.930 . S
C2868 C2867 1.388 . S
C2868 C2869 1.390 . S
C2869 C2868 1.390 . S
C2869 C2870 1.394 . S
C2869 C2875 1.465 . S
C2870 C2865 1.399 . S
C2870 C2869 1.394 . S
C2870 C2871 1.516 . S
C2871 C2870 1.516 . S
C2871 C2872 1.502 . S
C2871 C2873 1.561 . S
C2871 C2874 1.526 . S
C2872 H2856 0.959 . S
C2872 H2857 0.959 . S
C2872 H2858 0.961 . S
C2872 C2871 1.502 . S
C2873 H2859 0.960 . S
C2873 H2860 0.961 . S
C2873 H2861 0.959 . S
C2873 C2871 1.561 . S
C2874 C2871 1.526 . S
C2874 C2875 1.396 . S
C2874 C2879 1.390 . S
C2875 C2869 1.465 . S
C2875 C2874 1.396 . S
C2875 C2876 1.399 . S
C2876 H2862 0.929 . S
C2876 C2875 1.399 . S
C2876 C2877 1.385 . S
C2877 H2863 0.931 . S
C2877 C2876 1.385 . S
C2877 C2878 1.389 . S
C2878 C2877 1.389 . S
C2878 C2879 1.387 . S
C2879 H2864 0.930 . S
C2879 C2874 1.390 . S
C2879 C2878 1.387 . S
H2880 C2892 0.930 . S
H2881 C2894 0.930 . S
H2882 C2895 0.930 . S
H2883 C2899 0.959 . S
H2884 C2899 0.959 . S
H2885 C2899 0.961 . S
H2886 C2900 0.960 . S
H2887 C2900 0.981 . S
H2888 C2900 0.959 . S
H2889 C2903 0.929 . S
H2890 C2904 0.931 . S
H2891 C2906 0.930 . S
C2892 H2880 0.930 . S
C2892 C2893 1.399 . S
C2892 C2897 1.399 . S
C2893 C2892 1.399 . S
C2893 C2894 1.376 . S
C2894 H2881 0.930 . S
C2894 C2893 1.376 . S
C2894 C2895 1.388 . S
C2895 H2882 0.930 . S
C2895 C2894 1.388 . S
C2895 C2896 1.390 . S
C2896 C2895 1.390 . S
C2896 C2897 1.394 . S
C2896 C2902 1.465 1_455 S
C2897 C2892 1.399 . S
C2897 C2896 1.394 . S
C2897 C2898 1.490 1_455 S
C2898 C2897 1.490 1_655 S
C2898 C2899 1.522 . S
C2898 C2900 1.543 1_655 S
C2898 C2901 1.550 . S
C2899 H2883 0.959 . S
C2899 H2884 0.959 . S
C2899 H2885 0.961 . S
C2899 C2898 1.522 . S
C2900 H2886 0.960 . S
C2900 H2887 0.981 . S
C2900 H2888 0.959 . S
C2900 C2898 1.543 1_455 S
C2901 C2898 1.550 . S
C2901 C2902 1.396 . S
C2901 C2906 1.390 . S
C2902 C2896 1.465 1_655 S
C2902 C2901 1.396 . S
C2902 C2903 1.399 . S
C2903 H2889 0.929 . S
C2903 C2902 1.399 . S
C2903 C2904 1.385 . S
C2904 H2890 0.931 . S
C2904 C2903 1.385 . S
C2904 C2905 1.389 . S
C2905 C2904 1.389 . S
C2905 C2906 1.387 . S
C2906 H2891 0.930 . S
C2906 C2901 1.390 . S
C2906 C2905 1.387 . S
H2907 C2919 0.930 . S
H2908 C2921 0.930 . S
H2909 C2922 0.930 . S
H2910 C2926 0.959 . S
H2911 C2926 0.959 . S
H2912 C2926 0.961 1_655 S
H2913 C2927 0.960 . S
H2914 C2927 0.961 . S
H2915 C2927 0.959 . S
H2916 C2930 0.929 . S
H2917 C2931 0.931 . S
H2918 C2933 0.930 . S
C2919 H2907 0.930 . S
C2919 C2920 1.399 . S
C2919 C2924 1.399 . S
C2920 C2919 1.399 . S
C2920 C2921 1.376 . S
C2921 H2908 0.930 . S
C2921 C2920 1.376 . S
C2921 C2922 1.388 . S
C2922 H2909 0.930 . S
C2922 C2921 1.388 . S
C2922 C2923 1.390 . S
C2923 C2922 1.390 . S
C2923 C2924 1.394 . S
C2923 C2929 1.465 1_655 S
C2924 C2919 1.399 . S
C2924 C2923 1.394 . S
C2924 C2925 1.516 . S
C2925 C2924 1.516 . S
C2925 C2926 1.502 1_655 S
C2925 C2927 1.561 . S
C2925 C2928 1.526 1_655 S
C2926 H2910 0.959 . S
C2926 H2911 0.959 . S
C2926 H2912 0.961 1_455 S
C2926 C2925 1.502 1_455 S
C2927 H2913 0.960 . S
C2927 H2914 0.961 . S
C2927 H2915 0.959 . S
C2927 C2925 1.561 . S
C2928 C2925 1.526 1_455 S
C2928 C2929 1.396 . S
C2928 C2933 1.390 . S
C2929 C2923 1.465 1_455 S
C2929 C2928 1.396 . S
C2929 C2930 1.399 . S
C2930 H2916 0.929 . S
C2930 C2929 1.399 . S
C2930 C2931 1.385 . S
C2931 H2917 0.931 . S
C2931 C2930 1.385 . S
C2931 C2932 1.389 . S
C2932 C2931 1.389 . S
C2932 C2933 1.387 . S
C2933 H2918 0.930 . S
C2933 C2928 1.390 . S
C2933 C2932 1.387 . S
H2934 C2946 0.930 . S
H2935 C2948 0.930 . S
H2936 C2949 0.930 . S
H2937 C2953 0.971 . S
H2938 C2953 0.959 . S
H2939 C2953 0.971 . S
H2940 C2954 0.960 . S
H2941 C2954 0.961 . S
H2942 C2954 0.959 . S
H2943 C2957 0.929 . S
H2944 C2958 0.931 . S
H2945 C2960 0.930 . S
C2946 H2934 0.930 . S
C2946 C2947 1.399 . S
C2946 C2951 1.399 . S
C2947 C2946 1.399 . S
C2947 C2948 1.376 . S
C2948 H2935 0.930 . S
C2948 C2947 1.376 . S
C2948 C2949 1.388 . S
C2949 H2936 0.930 . S
C2949 C2948 1.388 . S
C2949 C2950 1.390 . S
C2950 C2949 1.390 . S
C2950 C2951 1.394 . S
C2950 C2956 1.465 1_545 S
C2951 C2946 1.399 . S
C2951 C2950 1.394 . S
C2951 C2952 1.516 1_545 S
C2952 C2951 1.516 1_565 S
C2952 C2953 1.502 . S
C2952 C2954 1.561 . S
C2952 C2955 1.526 . S
C2953 H2937 0.971 . S
C2953 H2938 0.959 . S
C2953 H2939 0.971 . S
C2953 C2952 1.502 . S
C2954 H2940 0.960 . S
C2954 H2941 0.961 . S
C2954 H2942 0.959 . S
C2954 C2952 1.561 . S
C2955 C2952 1.526 . S
C2955 C2956 1.396 . S
C2955 C2960 1.390 . S
C2956 C2950 1.465 1_565 S
C2956 C2955 1.396 . S
C2956 C2957 1.399 . S
C2957 H2943 0.929 . S
C2957 C2956 1.399 . S
C2957 C2958 1.385 . S
C2958 H2944 0.931 . S
C2958 C2957 1.385 . S
C2958 C2959 1.389 . S
C2959 C2958 1.389 . S
C2959 C2960 1.387 . S
C2960 H2945 0.930 . S
C2960 C2955 1.390 . S
C2960 C2959 1.387 . S
H2961 C2973 0.930 . S
H2962 C2975 0.930 . S
H2963 C2976 0.930 . S
H2964 C2980 0.959 . S
H2965 C2980 0.959 . S
H2966 C2980 0.961 . S
H2967 C2981 0.960 . S
H2968 C2981 0.961 . S
H2969 C2981 0.959 . S
H2970 C2984 0.929 . S
H2971 C2985 0.931 . S
H2972 C2987 0.930 . S
C2973 H2961 0.930 . S
C2973 C2974 1.399 . S
C2973 C2978 1.399 . S
C2974 C2973 1.399 . S
C2974 C2975 1.376 . S
C2975 H2962 0.930 . S
C2975 C2974 1.376 . S
C2975 C2976 1.388 . S
C2976 H2963 0.930 . S
C2976 C2975 1.388 . S
C2976 C2977 1.390 . S
C2977 C2976 1.390 . S
C2977 C2978 1.394 . S
C2977 C2983 1.465 . S
C2978 C2973 1.399 . S
C2978 C2977 1.394 . S
C2978 C2979 1.516 . S
C2979 C2978 1.516 . S
C2979 C2980 1.502 . S
C2979 C2981 1.561 . S
C2979 C2982 1.526 . S
C2980 H2964 0.959 . S
C2980 H2965 0.959 . S
C2980 H2966 0.961 . S
C2980 C2979 1.502 . S
C2981 H2967 0.960 . S
C2981 H2968 0.961 . S
C2981 H2969 0.959 . S
C2981 C2979 1.561 . S
C2982 C2979 1.526 . S
C2982 C2983 1.396 . S
C2982 C2987 1.390 . S
C2983 C2977 1.465 . S
C2983 C2982 1.396 . S
C2983 C2984 1.399 . S
C2984 H2970 0.929 . S
C2984 C2983 1.399 . S
C2984 C2985 1.385 . S
C2985 H2971 0.931 . S
C2985 C2984 1.385 . S
C2985 C2986 1.389 . S
C2986 C2985 1.389 . S
C2986 C2987 1.387 . S
C2987 H2972 0.930 . S
C2987 C2982 1.390 . S
C2987 C2986 1.387 . S
H2988 C3000 0.930 . S
H2989 C3002 0.930 . S
H2990 C3003 0.930 . S
H2991 C3007 0.959 . S
H2992 C3007 0.959 . S
H2993 C3007 0.961 . S
H2994 C3008 0.960 1_556 S
H2995 C3008 0.961 . S
H2996 C3008 0.959 . S
H2997 C3011 0.929 . S
H2998 C3012 0.931 . S
H2999 C3014 0.930 . S
C3000 H2988 0.930 . S
C3000 C3001 1.399 . S
C3000 C3005 1.399 . S
C3001 C3000 1.399 . S
C3001 C3002 1.376 . S
C3002 H2989 0.930 . S
C3002 C3001 1.376 . S
C3002 C3003 1.388 . S
C3003 H2990 0.930 . S
C3003 C3002 1.388 . S
C3003 C3004 1.390 . S
C3004 C3003 1.390 . S
C3004 C3005 1.394 . S
C3004 C3010 1.465 1_556 S
C3005 C3000 1.399 . S
C3005 C3004 1.394 . S
C3005 C3006 1.516 . S
C3006 C3005 1.516 . S
C3006 C3007 1.502 . S
C3006 C3008 1.561 1_556 S
C3006 C3009 1.526 1_556 S
C3007 H2991 0.959 . S
C3007 H2992 0.959 . S
C3007 H2993 0.961 . S
C3007 C3006 1.502 . S
C3008 H2994 0.960 1_554 S
C3008 H2995 0.961 . S
C3008 H2996 0.959 . S
C3008 C3006 1.561 1_554 S
C3009 C3006 1.526 1_554 S
C3009 C3010 1.396 . S
C3009 C3014 1.390 . S
C3010 C3004 1.465 1_554 S
C3010 C3009 1.396 . S
C3010 C3011 1.399 . S
C3011 H2997 0.929 . S
C3011 C3010 1.399 . S
C3011 C3012 1.385 . S
C3012 H2998 0.931 . S
C3012 C3011 1.385 . S
C3012 C3013 1.389 . S
C3013 C3012 1.389 . S
C3013 C3014 1.387 . S
C3014 H2999 0.930 . S
C3014 C3009 1.390 . S
C3014 C3013 1.387 . S
H3015 C3027 0.930 . S
H3016 C3029 0.930 . S
H3017 C3030 0.930 . S
H3018 C3034 0.959 . S
H3019 C3034 0.959 . S
H3020 C3034 0.961 . S
H3021 C3035 0.960 . S
H3022 C3035 0.961 . S
H3023 C3035 0.959 . S
H3024 C3038 0.929 . S
H3025 C3039 0.931 . S
H3026 C3041 0.930 . S
C3027 H3015 0.930 . S
C3027 C3028 1.399 . S
C3027 C3032 1.399 . S
C3028 C3027 1.399 . S
C3028 C3029 1.376 . S
C3029 H3016 0.930 . S
C3029 C3028 1.376 . S
C3029 C3030 1.388 . S
C3030 H3017 0.930 . S
C3030 C3029 1.388 . S
C3030 C3031 1.390 . S
C3031 C3030 1.390 . S
C3031 C3032 1.394 . S
C3031 C3037 1.465 . S
C3032 C3027 1.399 . S
C3032 C3031 1.394 . S
C3032 C3033 1.516 . S
C3033 C3032 1.516 . S
C3033 C3034 1.502 . S
C3033 C3035 1.561 . S
C3033 C3036 1.526 . S
C3034 H3018 0.959 . S
C3034 H3019 0.959 . S
C3034 H3020 0.961 . S
C3034 C3033 1.502 . S
C3035 H3021 0.960 . S
C3035 H3022 0.961 . S
C3035 H3023 0.959 . S
C3035 C3033 1.561 . S
C3036 C3033 1.526 . S
C3036 C3037 1.396 . S
C3036 C3041 1.390 . S
C3037 C3031 1.465 . S
C3037 C3036 1.396 . S
C3037 C3038 1.399 . S
C3038 H3024 0.929 . S
C3038 C3037 1.399 . S
C3038 C3039 1.385 . S
C3039 H3025 0.931 . S
C3039 C3038 1.385 . S
C3039 C3040 1.389 . S
C3040 C3039 1.389 . S
C3040 C3041 1.387 . S
C3041 H3026 0.930 . S
C3041 C3036 1.390 . S
C3041 C3040 1.387 . S
H3042 C3054 0.930 . S
H3043 C3056 0.930 . S
H3044 C3057 0.930 . S
H3045 C3061 0.959 . S
H3046 C3061 0.959 . S
H3047 C3061 0.961 . S
H3048 C3062 0.960 . S
H3049 C3062 0.961 . S
H3050 C3062 0.959 . S
H3051 C3065 0.929 . S
H3052 C3066 0.931 . S
H3053 C3068 0.930 . S
C3054 H3042 0.930 . S
C3054 C3055 1.399 . S
C3054 C3059 1.399 . S
C3055 C3054 1.399 . S
C3055 C3056 1.376 . S
C3056 H3043 0.930 . S
C3056 C3055 1.376 . S
C3056 C3057 1.388 . S
C3057 H3044 0.930 . S
C3057 C3056 1.388 . S
C3057 C3058 1.390 . S
C3058 C3057 1.390 . S
C3058 C3059 1.394 . S
C3058 C3064 1.465 . S
C3059 C3054 1.399 . S
C3059 C3058 1.394 . S
C3059 C3060 1.516 . S
C3060 C3059 1.516 . S
C3060 C3061 1.502 . S
C3060 C3062 1.561 . S
C3060 C3063 1.526 . S
C3061 H3045 0.959 . S
C3061 H3046 0.959 . S
C3061 H3047 0.961 . S
C3061 C3060 1.502 . S
C3062 H3048 0.960 . S
C3062 H3049 0.961 . S
C3062 H3050 0.959 . S
C3062 C3060 1.561 . S
C3063 C3060 1.526 . S
C3063 C3064 1.396 . S
C3063 C3068 1.390 . S
C3064 C3058 1.465 . S
C3064 C3063 1.396 . S
C3064 C3065 1.399 . S
C3065 H3051 0.929 . S
C3065 C3064 1.399 . S
C3065 C3066 1.385 . S
C3066 H3052 0.931 . S
C3066 C3065 1.385 . S
C3066 C3067 1.389 . S
C3067 C3066 1.389 . S
C3067 C3068 1.387 . S
C3068 H3053 0.930 . S
C3068 C3063 1.390 . S
C3068 C3067 1.387 . S
H3069 C3081 0.930 . S
H3070 C3083 0.930 . S
H3071 C3084 0.930 . S
H3072 C3088 0.959 . S
H3073 C3088 0.959 . S
H3074 C3088 0.961 . S
H3075 C3089 0.960 . S
H3076 C3089 0.961 1_455 S
H3077 C3089 0.959 . S
H3078 C3092 0.929 . S
H3079 C3093 0.931 . S
H3080 C3095 0.930 . S
C3081 H3069 0.930 . S
C3081 C3082 1.399 . S
C3081 C3086 1.399 . S
C3082 C3081 1.399 . S
C3082 C3083 1.376 . S
C3083 H3070 0.930 . S
C3083 C3082 1.376 . S
C3083 C3084 1.388 . S
C3084 H3071 0.930 . S
C3084 C3083 1.388 . S
C3084 C3085 1.390 . S
C3085 C3084 1.390 . S
C3085 C3086 1.394 . S
C3085 C3091 1.465 1_655 S
C3086 C3081 1.399 . S
C3086 C3085 1.394 . S
C3086 C3087 1.516 1_655 S
C3087 C3086 1.516 1_455 S
C3087 C3088 1.502 . S
C3087 C3089 1.561 1_455 S
C3087 C3090 1.526 . S
C3088 H3072 0.959 . S
C3088 H3073 0.959 . S
C3088 H3074 0.961 . S
C3088 C3087 1.502 . S
C3089 H3075 0.960 . S
C3089 H3076 0.961 1_655 S
C3089 H3077 0.959 . S
C3089 C3087 1.561 1_655 S
C3090 C3087 1.526 . S
C3090 C3091 1.396 . S
C3090 C3095 1.390 . S
C3091 C3085 1.465 1_455 S
C3091 C3090 1.396 . S
C3091 C3092 1.399 . S
C3092 H3078 0.929 . S
C3092 C3091 1.399 . S
C3092 C3093 1.385 . S
C3093 H3079 0.931 . S
C3093 C3092 1.385 . S
C3093 C3094 1.389 . S
C3094 C3093 1.389 . S
C3094 C3095 1.387 . S
C3095 H3080 0.930 . S
C3095 C3090 1.390 . S
C3095 C3094 1.387 . S
H3096 C3108 0.930 . S
H3097 C3110 0.930 . S
H3098 C3111 0.930 . S
H3099 C3115 0.959 . S
H3100 C3115 0.959 . S
H3101 C3115 0.961 1_655 S
H3102 C3116 0.960 . S
H3103 C3116 0.961 . S
H3104 C3116 0.959 . S
H3105 C3119 0.929 . S
H3106 C3120 0.931 . S
H3107 C3122 0.930 . S
C3108 H3096 0.930 . S
C3108 C3109 1.399 . S
C3108 C3113 1.399 . S
C3109 C3108 1.399 . S
C3109 C3110 1.376 . S
C3110 H3097 0.930 . S
C3110 C3109 1.376 . S
C3110 C3111 1.388 . S
C3111 H3098 0.930 . S
C3111 C3110 1.388 . S
C3111 C3112 1.390 . S
C3112 C3111 1.390 . S
C3112 C3113 1.394 . S
C3112 C3118 1.465 1_655 S
C3113 C3108 1.399 . S
C3113 C3112 1.394 . S
C3113 C3114 1.516 . S
C3114 C3113 1.516 . S
C3114 C3115 1.502 1_655 S
C3114 C3116 1.561 . S
C3114 C3117 1.526 1_655 S
C3115 H3099 0.959 . S
C3115 H3100 0.959 . S
C3115 H3101 0.961 1_455 S
C3115 C3114 1.502 1_455 S
C3116 H3102 0.960 . S
C3116 H3103 0.961 . S
C3116 H3104 0.959 . S
C3116 C3114 1.561 . S
C3117 C3114 1.526 1_455 S
C3117 C3118 1.396 . S
C3117 C3122 1.390 . S
C3118 C3112 1.465 1_455 S
C3118 C3117 1.396 . S
C3118 C3119 1.399 . S
C3119 H3105 0.929 . S
C3119 C3118 1.399 . S
C3119 C3120 1.385 . S
C3120 H3106 0.931 . S
C3120 C3119 1.385 . S
C3120 C3121 1.389 . S
C3121 C3120 1.389 . S
C3121 C3122 1.387 . S
C3122 H3107 0.930 . S
C3122 C3117 1.390 . S
C3122 C3121 1.387 . S
H3123 C3135 0.930 . S
H3124 C3137 0.930 . S
H3125 C3138 0.930 . S
H3126 C3142 0.959 . S
H3127 C3142 0.959 . S
H3128 C3142 0.961 . S
H3129 C3143 0.960 . S
H3130 C3143 0.961 . S
H3131 C3143 0.959 . S
H3132 C3146 0.929 1_545 S
H3133 C3147 0.931 . S
H3134 C3149 0.930 . S
C3135 H3123 0.930 . S
C3135 C3136 1.399 . S
C3135 C3140 1.399 . S
C3136 C3135 1.399 . S
C3136 C3137 1.376 . S
C3137 H3124 0.930 . S
C3137 C3136 1.376 . S
C3137 C3138 1.388 . S
C3138 H3125 0.930 . S
C3138 C3137 1.388 . S
C3138 C3139 1.390 . S
C3139 C3138 1.390 . S
C3139 C3140 1.394 . S
C3139 C3145 1.465 1_545 S
C3140 C3135 1.399 . S
C3140 C3139 1.394 . S
C3140 C3141 1.516 1_545 S
C3141 C3140 1.516 1_565 S
C3141 C3142 1.502 . S
C3141 C3143 1.561 . S
C3141 C3144 1.526 . S
C3142 H3126 0.959 . S
C3142 H3127 0.959 . S
C3142 H3128 0.961 . S
C3142 C3141 1.502 . S
C3143 H3129 0.960 . S
C3143 H3130 0.961 . S
C3143 H3131 0.959 . S
C3143 C3141 1.561 . S
C3144 C3141 1.526 . S
C3144 C3145 1.396 . S
C3144 C3149 1.390 . S
C3145 C3139 1.465 1_565 S
C3145 C3144 1.396 . S
C3145 C3146 1.399 . S
C3146 H3132 0.929 1_565 S
C3146 C3145 1.399 . S
C3146 C3147 1.385 . S
C3147 H3133 0.931 . S
C3147 C3146 1.385 . S
C3147 C3148 1.389 . S
C3148 C3147 1.389 . S
C3148 C3149 1.387 . S
C3149 H3134 0.930 . S
C3149 C3144 1.390 . S
C3149 C3148 1.387 . S
H3150 C3162 0.930 . S
H3151 C3164 0.930 . S
H3152 C3165 0.930 . S
H3153 C3169 0.959 . S
H3154 C3169 0.959 . S
H3155 C3169 0.961 . S
H3156 C3170 0.960 . S
H3157 C3170 0.961 . S
H3158 C3170 0.959 . S
H3159 C3173 0.929 . S
H3160 C3174 0.931 . S
H3161 C3176 0.930 . S
C3162 H3150 0.930 . S
C3162 C3163 1.399 . S
C3162 C3167 1.399 . S
C3163 C3162 1.399 . S
C3163 C3164 1.376 . S
C3164 H3151 0.930 . S
C3164 C3163 1.376 . S
C3164 C3165 1.388 . S
C3165 H3152 0.930 . S
C3165 C3164 1.388 . S
C3165 C3166 1.390 . S
C3166 C3165 1.390 . S
C3166 C3167 1.394 . S
C3166 C3172 1.465 . S
C3167 C3162 1.399 . S
C3167 C3166 1.394 . S
C3167 C3168 1.516 . S
C3168 C3167 1.516 . S
C3168 C3169 1.502 . S
C3168 C3170 1.561 . S
C3168 C3171 1.526 . S
C3169 H3153 0.959 . S
C3169 H3154 0.959 . S
C3169 H3155 0.961 . S
C3169 C3168 1.502 . S
C3170 H3156 0.960 . S
C3170 H3157 0.961 . S
C3170 H3158 0.959 . S
C3170 C3168 1.561 . S
C3171 C3168 1.526 . S
C3171 C3172 1.396 . S
C3171 C3176 1.390 . S
C3172 C3166 1.465 . S
C3172 C3171 1.396 . S
C3172 C3173 1.399 . S
C3173 H3159 0.929 . S
C3173 C3172 1.399 . S
C3173 C3174 1.385 . S
C3174 H3160 0.931 . S
C3174 C3173 1.385 . S
C3174 C3175 1.389 . S
C3175 C3174 1.389 . S
C3175 C3176 1.387 . S
C3176 H3161 0.930 . S
C3176 C3171 1.390 . S
C3176 C3175 1.387 . S
H3177 C3189 0.930 . S
H3178 C3191 0.930 . S
H3179 C3192 0.930 . S
H3180 C3196 0.959 . S
H3181 C3196 0.959 . S
H3182 C3196 0.961 . S
H3183 C3197 0.960 . S
H3184 C3197 0.961 . S
H3185 C3197 0.959 . S
H3186 C3200 0.929 1_556 S
H3187 C3201 0.931 . S
H3188 C3203 0.930 . S
C3189 H3177 0.930 . S
C3189 C3190 1.399 . S
C3189 C3194 1.399 . S
C3190 C3189 1.399 . S
C3190 C3191 1.376 . S
C3191 H3178 0.930 . S
C3191 C3190 1.376 . S
C3191 C3192 1.388 . S
C3192 H3179 0.930 . S
C3192 C3191 1.388 . S
C3192 C3193 1.390 . S
C3193 C3192 1.390 . S
C3193 C3194 1.394 . S
C3193 C3199 1.465 1_556 S
C3194 C3189 1.399 . S
C3194 C3193 1.394 . S
C3194 C3195 1.516 1_556 S
C3195 C3194 1.516 1_554 S
C3195 C3196 1.502 . S
C3195 C3197 1.561 . S
C3195 C3198 1.526 . S
C3196 H3180 0.959 . S
C3196 H3181 0.959 . S
C3196 H3182 0.961 . S
C3196 C3195 1.502 . S
C3197 H3183 0.960 . S
C3197 H3184 0.961 . S
C3197 H3185 0.959 . S
C3197 C3195 1.561 . S
C3198 C3195 1.526 . S
C3198 C3199 1.396 . S
C3198 C3203 1.390 . S
C3199 C3193 1.465 1_554 S
C3199 C3198 1.396 . S
C3199 C3200 1.399 . S
C3200 H3186 0.929 1_554 S
C3200 C3199 1.399 . S
C3200 C3201 1.385 . S
C3201 H3187 0.931 . S
C3201 C3200 1.385 . S
C3201 C3202 1.389 . S
C3202 C3201 1.389 . S
C3202 C3203 1.387 . S
C3203 H3188 0.930 . S
C3203 C3198 1.390 . S
C3203 C3202 1.387 . S
H3204 C3216 0.930 . S
H3205 C3218 0.930 . S
H3206 C3219 0.930 . S
H3207 C3223 0.959 . S
H3208 C3223 0.959 . S
H3209 C3223 0.961 . S
H3210 C3224 0.960 . S
H3211 C3224 0.961 . S
H3212 C3224 0.959 . S
H3213 C3227 0.929 . S
H3214 C3228 0.931 . S
H3215 C3230 0.930 . S
C3216 H3204 0.930 . S
C3216 C3217 1.399 . S
C3216 C3221 1.399 . S
C3217 C3216 1.399 . S
C3217 C3218 1.376 . S
C3218 H3205 0.930 . S
C3218 C3217 1.376 . S
C3218 C3219 1.388 . S
C3219 H3206 0.930 . S
C3219 C3218 1.388 . S
C3219 C3220 1.390 . S
C3220 C3219 1.390 . S
C3220 C3221 1.394 . S
C3220 C3226 1.465 . S
C3221 C3216 1.399 . S
C3221 C3220 1.394 . S
C3221 C3222 1.516 . S
C3222 C3221 1.516 . S
C3222 C3223 1.502 . S
C3222 C3224 1.561 . S
C3222 C3225 1.526 . S
C3223 H3207 0.959 . S
C3223 H3208 0.959 . S
C3223 H3209 0.961 . S
C3223 C3222 1.502 . S
C3224 H3210 0.960 . S
C3224 H3211 0.961 . S
C3224 H3212 0.959 . S
C3224 C3222 1.561 . S
C3225 C3222 1.526 . S
C3225 C3226 1.396 . S
C3225 C3230 1.390 . S
C3226 C3220 1.465 . S
C3226 C3225 1.396 . S
C3226 C3227 1.399 . S
C3227 H3213 0.929 . S
C3227 C3226 1.399 . S
C3227 C3228 1.385 . S
C3228 H3214 0.931 . S
C3228 C3227 1.385 . S
C3228 C3229 1.389 . S
C3229 C3228 1.389 . S
C3229 C3230 1.387 . S
C3230 H3215 0.930 . S
C3230 C3225 1.390 . S
C3230 C3229 1.387 . S
H3231 C3243 0.930 . S
H3232 C3245 0.930 . S
H3233 C3246 0.930 . S
H3234 C3250 0.959 . S
H3235 C3250 0.959 . S
H3236 C3250 0.961 . S
H3237 C3251 0.960 . S
H3238 C3251 0.961 . S
H3239 C3251 0.959 . S
H3240 C3254 0.929 . S
H3241 C3255 0.931 . S
H3242 C3257 0.930 . S
C3243 H3231 0.930 . S
C3243 C3244 1.399 . S
C3243 C3248 1.399 . S
C3244 C3243 1.399 . S
C3244 C3245 1.376 . S
C3245 H3232 0.930 . S
C3245 C3244 1.376 . S
C3245 C3246 1.388 . S
C3246 H3233 0.930 . S
C3246 C3245 1.388 . S
C3246 C3247 1.390 . S
C3247 C3246 1.390 . S
C3247 C3248 1.394 . S
C3247 C3253 1.465 . S
C3248 C3243 1.399 . S
C3248 C3247 1.394 . S
C3248 C3249 1.516 . S
C3249 C3248 1.516 . S
C3249 C3250 1.502 . S
C3249 C3251 1.561 . S
C3249 C3252 1.526 . S
C3250 H3234 0.959 . S
C3250 H3235 0.959 . S
C3250 H3236 0.961 . S
C3250 C3249 1.502 . S
C3251 H3237 0.960 . S
C3251 H3238 0.961 . S
C3251 H3239 0.959 . S
C3251 C3249 1.561 . S
C3252 C3249 1.526 . S
C3252 C3253 1.396 . S
C3252 C3257 1.390 . S
C3253 C3247 1.465 . S
C3253 C3252 1.396 . S
C3253 C3254 1.399 . S
C3254 H3240 0.929 . S
C3254 C3253 1.399 . S
C3254 C3255 1.385 . S
C3255 H3241 0.931 . S
C3255 C3254 1.385 . S
C3255 C3256 1.389 . S
C3256 C3255 1.389 . S
C3256 C3257 1.387 . S
C3257 H3242 0.930 . S
C3257 C3252 1.390 . S
C3257 C3256 1.387 . S
H3258 C3270 0.930 . S
H3259 C3272 0.930 . S
H3260 C3273 0.930 . S
H3261 C3277 0.959 . S
H3262 C3277 0.959 . S
H3263 C3277 0.961 . S
H3264 C3278 0.960 . S
H3265 C3278 0.961 . S
H3266 C3278 0.959 . S
H3267 C3281 0.929 . S
H3268 C3282 0.931 . S
H3269 C3284 0.930 . S
C3270 H3258 0.930 . S
C3270 C3271 1.399 . S
C3270 C3275 1.399 . S
C3271 C3270 1.399 . S
C3271 C3272 1.376 . S
C3272 H3259 0.930 . S
C3272 C3271 1.376 . S
C3272 C3273 1.388 . S
C3273 H3260 0.930 . S
C3273 C3272 1.388 . S
C3273 C3274 1.390 . S
C3274 C3273 1.390 . S
C3274 C3275 1.394 . S
C3274 C3280 1.465 . S
C3275 C3270 1.399 . S
C3275 C3274 1.394 . S
C3275 C3276 1.516 . S
C3276 C3275 1.516 . S
C3276 C3277 1.502 . S
C3276 C3278 1.561 . S
C3276 C3279 1.526 . S
C3277 H3261 0.959 . S
C3277 H3262 0.959 . S
C3277 H3263 0.961 . S
C3277 C3276 1.502 . S
C3278 H3264 0.960 . S
C3278 H3265 0.961 . S
C3278 H3266 0.959 . S
C3278 C3276 1.561 . S
C3279 C3276 1.526 . S
C3279 C3280 1.396 . S
C3279 C3284 1.390 . S
C3280 C3274 1.465 . S
C3280 C3279 1.396 . S
C3280 C3281 1.399 . S
C3281 H3267 0.929 . S
C3281 C3280 1.399 . S
C3281 C3282 1.385 . S
C3282 H3268 0.931 . S
C3282 C3281 1.385 . S
C3282 C3283 1.389 . S
C3283 C3282 1.389 . S
C3283 C3284 1.387 . S
C3284 H3269 0.930 . S
C3284 C3279 1.390 . S
C3284 C3283 1.387 . S
H3285 C3297 0.930 . S
H3286 C3299 0.930 . S
H3287 C3300 0.930 . S
H3288 C3304 0.959 . S
H3289 C3304 0.959 . S
H3290 C3304 0.961 . S
H3291 C3305 0.960 . S
H3292 C3305 0.961 . S
H3293 C3305 0.959 . S
H3294 C3308 0.929 . S
H3295 C3309 0.931 . S
H3296 C3311 0.930 . S
C3297 H3285 0.930 . S
C3297 C3298 1.399 . S
C3297 C3302 1.399 . S
C3298 C3297 1.399 . S
C3298 C3299 1.376 . S
C3299 H3286 0.930 . S
C3299 C3298 1.376 . S
C3299 C3300 1.388 . S
C3300 H3287 0.930 . S
C3300 C3299 1.388 . S
C3300 C3301 1.390 . S
C3301 C3300 1.390 . S
C3301 C3302 1.394 . S
C3301 C3307 1.465 . S
C3302 C3297 1.399 . S
C3302 C3301 1.394 . S
C3302 C3303 1.516 . S
C3303 C3302 1.516 . S
C3303 C3304 1.502 . S
C3303 C3305 1.561 . S
C3303 C3306 1.526 . S
C3304 H3288 0.959 . S
C3304 H3289 0.959 . S
C3304 H3290 0.961 . S
C3304 C3303 1.502 . S
C3305 H3291 0.960 . S
C3305 H3292 0.961 . S
C3305 H3293 0.959 . S
C3305 C3303 1.561 . S
C3306 C3303 1.526 . S
C3306 C3307 1.396 . S
C3306 C3311 1.390 . S
C3307 C3301 1.465 . S
C3307 C3306 1.396 . S
C3307 C3308 1.399 . S
C3308 H3294 0.929 . S
C3308 C3307 1.399 . S
C3308 C3309 1.385 . S
C3309 H3295 0.931 . S
C3309 C3308 1.385 . S
C3309 C3310 1.389 . S
C3310 C3309 1.389 . S
C3310 C3311 1.387 . S
C3311 H3296 0.930 . S
C3311 C3306 1.390 . S
C3311 C3310 1.387 . S
H3312 C3324 0.930 . S
H3313 C3326 0.930 . S
H3314 C3327 0.930 . S
H3315 C3331 0.959 . S
H3316 C3331 0.959 . S
H3317 C3331 0.961 . S
H3318 C3332 0.960 . S
H3319 C3332 0.961 . S
H3320 C3332 0.959 . S
H3321 C3335 0.929 . S
H3322 C3336 0.931 . S
H3323 C3338 0.930 . S
C3324 H3312 0.930 . S
C3324 C3325 1.399 . S
C3324 C3329 1.399 . S
C3325 C3324 1.399 . S
C3325 C3326 1.376 . S
C3326 H3313 0.930 . S
C3326 C3325 1.376 . S
C3326 C3327 1.388 . S
C3327 H3314 0.930 . S
C3327 C3326 1.388 . S
C3327 C3328 1.390 . S
C3328 C3327 1.390 . S
C3328 C3329 1.394 . S
C3328 C3334 1.465 . S
C3329 C3324 1.399 . S
C3329 C3328 1.394 . S
C3329 C3330 1.516 . S
C3330 C3329 1.516 . S
C3330 C3331 1.502 . S
C3330 C3332 1.561 . S
C3330 C3333 1.526 . S
C3331 H3315 0.959 . S
C3331 H3316 0.959 . S
C3331 H3317 0.961 . S
C3331 C3330 1.502 . S
C3332 H3318 0.960 . S
C3332 H3319 0.961 . S
C3332 H3320 0.959 . S
C3332 C3330 1.561 . S
C3333 C3330 1.526 . S
C3333 C3334 1.396 . S
C3333 C3338 1.390 . S
C3334 C3328 1.465 . S
C3334 C3333 1.396 . S
C3334 C3335 1.399 . S
C3335 H3321 0.929 . S
C3335 C3334 1.399 . S
C3335 C3336 1.385 . S
C3336 H3322 0.931 . S
C3336 C3335 1.385 . S
C3336 C3337 1.389 . S
C3337 C3336 1.389 . S
C3337 C3338 1.387 . S
C3338 H3323 0.930 . S
C3338 C3333 1.390 . S
C3338 C3337 1.387 . S
H3339 C3351 0.930 . S
H3340 C3353 0.930 . S
H3341 C3354 0.930 . S
H3342 C3358 0.959 . S
H3343 C3358 0.959 . S
H3344 C3358 0.961 . S
H3345 C3359 0.960 1_545 S
H3346 C3359 0.961 . S
H3347 C3359 0.959 . S
H3348 C3362 0.929 . S
H3349 C3363 0.931 . S
H3350 C3365 0.930 . S
C3351 H3339 0.930 . S
C3351 C3352 1.399 . S
C3351 C3356 1.399 . S
C3352 C3351 1.399 . S
C3352 C3353 1.376 . S
C3353 H3340 0.930 . S
C3353 C3352 1.376 . S
C3353 C3354 1.388 . S
C3354 H3341 0.930 . S
C3354 C3353 1.388 . S
C3354 C3355 1.390 . S
C3355 C3354 1.390 . S
C3355 C3356 1.394 . S
C3355 C3361 1.465 1_545 S
C3356 C3351 1.399 . S
C3356 C3355 1.394 . S
C3356 C3357 1.516 . S
C3357 C3356 1.516 . S
C3357 C3358 1.502 . S
C3357 C3359 1.561 1_545 S
C3357 C3360 1.526 1_545 S
C3358 H3342 0.959 . S
C3358 H3343 0.959 . S
C3358 H3344 0.961 . S
C3358 C3357 1.502 . S
C3359 H3345 0.960 1_565 S
C3359 H3346 0.961 . S
C3359 H3347 0.959 . S
C3359 C3357 1.561 1_565 S
C3360 C3357 1.526 1_565 S
C3360 C3361 1.396 . S
C3360 C3365 1.390 . S
C3361 C3355 1.465 1_565 S
C3361 C3360 1.396 . S
C3361 C3362 1.399 . S
C3362 H3348 0.929 . S
C3362 C3361 1.399 . S
C3362 C3363 1.385 . S
C3363 H3349 0.931 . S
C3363 C3362 1.385 . S
C3363 C3364 1.389 . S
C3364 C3363 1.389 . S
C3364 C3365 1.387 . S
C3365 H3350 0.930 . S
C3365 C3360 1.390 . S
C3365 C3364 1.387 . S
H3366 C3378 0.930 . S
H3367 C3380 0.930 . S
H3368 C3381 0.930 . S
H3369 C3385 0.959 . S
H3370 C3385 0.959 1_556 S
H3371 C3385 0.961 . S
H3372 C3386 0.960 . S
H3373 C3386 0.961 . S
H3374 C3386 0.959 . S
H3375 C3389 0.929 . S
H3376 C3390 0.931 . S
H3377 C3392 0.930 . S
C3378 H3366 0.930 . S
C3378 C3379 1.399 . S
C3378 C3383 1.399 . S
C3379 C3378 1.399 . S
C3379 C3380 1.376 . S
C3380 H3367 0.930 . S
C3380 C3379 1.376 . S
C3380 C3381 1.388 . S
C3381 H3368 0.930 . S
C3381 C3380 1.388 . S
C3381 C3382 1.390 . S
C3382 C3381 1.390 . S
C3382 C3383 1.394 . S
C3382 C3388 1.465 1_554 S
C3383 C3378 1.399 . S
C3383 C3382 1.394 . S
C3383 C3384 1.516 1_554 S
C3384 C3383 1.516 1_556 S
C3384 C3385 1.502 1_556 S
C3384 C3386 1.561 . S
C3384 C3387 1.526 . S
C3385 H3369 0.959 . S
C3385 H3370 0.959 1_554 S
C3385 H3371 0.961 . S
C3385 C3384 1.502 1_554 S
C3386 H3372 0.960 . S
C3386 H3373 0.961 . S
C3386 H3374 0.959 . S
C3386 C3384 1.561 . S
C3387 C3384 1.526 . S
C3387 C3388 1.396 . S
C3387 C3392 1.390 . S
C3388 C3382 1.465 1_556 S
C3388 C3387 1.396 . S
C3388 C3389 1.399 . S
C3389 H3375 0.929 . S
C3389 C3388 1.399 . S
C3389 C3390 1.385 . S
C3390 H3376 0.931 . S
C3390 C3389 1.385 . S
C3390 C3391 1.389 . S
C3391 C3390 1.389 . S
C3391 C3392 1.387 . S
C3392 H3377 0.930 . S
C3392 C3387 1.390 . S
C3392 C3391 1.387 . S
H3393 C3405 0.930 . S
H3394 C3407 0.930 . S
H3395 C3408 0.930 . S
H3396 C3412 0.959 . S
H3397 C3412 0.959 . S
H3398 C3412 0.961 . S
H3399 C3413 0.960 . S
H3400 C3413 0.961 . S
H3401 C3413 0.959 . S
H3402 C3416 0.929 . S
H3403 C3417 0.931 . S
H3404 C3419 0.930 . S
C3405 H3393 0.930 . S
C3405 C3406 1.399 . S
C3405 C3410 1.399 . S
C3406 C3405 1.399 . S
C3406 C3407 1.376 . S
C3407 H3394 0.930 . S
C3407 C3406 1.376 . S
C3407 C3408 1.388 . S
C3408 H3395 0.930 . S
C3408 C3407 1.388 . S
C3408 C3409 1.390 . S
C3409 C3408 1.390 . S
C3409 C3410 1.394 . S
C3409 C3415 1.465 . S
C3410 C3405 1.399 . S
C3410 C3409 1.394 . S
C3410 C3411 1.516 . S
C3411 C3410 1.516 . S
C3411 C3412 1.502 . S
C3411 C3413 1.561 . S
C3411 C3414 1.526 . S
C3412 H3396 0.959 . S
C3412 H3397 0.959 . S
C3412 H3398 0.961 . S
C3412 C3411 1.502 . S
C3413 H3399 0.960 . S
C3413 H3400 0.961 . S
C3413 H3401 0.959 . S
C3413 C3411 1.561 . S
C3414 C3411 1.526 . S
C3414 C3415 1.396 . S
C3414 C3419 1.390 . S
C3415 C3409 1.465 . S
C3415 C3414 1.396 . S
C3415 C3416 1.399 . S
C3416 H3402 0.929 . S
C3416 C3415 1.399 . S
C3416 C3417 1.385 . S
C3417 H3403 0.931 . S
C3417 C3416 1.385 . S
C3417 C3418 1.389 . S
C3418 C3417 1.389 . S
C3418 C3419 1.387 . S
C3419 H3404 0.930 . S
C3419 C3414 1.390 . S
C3419 C3418 1.387 . S
H3420 C3432 0.930 . S
H3421 C3434 0.930 . S
H3422 C3435 0.930 . S
H3423 C3439 0.959 . S
H3424 C3439 0.959 . S
H3425 C3439 0.961 . S
H3426 C3440 0.960 . S
H3427 C3440 0.961 . S
H3428 C3440 0.959 . S
H3429 C3443 0.929 . S
H3430 C3444 0.931 . S
H3431 C3446 0.930 . S
C3432 H3420 0.930 . S
C3432 C3433 1.399 . S
C3432 C3437 1.399 . S
C3433 C3432 1.399 . S
C3433 C3434 1.376 . S
C3434 H3421 0.930 . S
C3434 C3433 1.376 . S
C3434 C3435 1.388 . S
C3435 H3422 0.930 . S
C3435 C3434 1.388 . S
C3435 C3436 1.390 . S
C3436 C3435 1.390 . S
C3436 C3437 1.394 . S
C3436 C3442 1.465 . S
C3437 C3432 1.399 . S
C3437 C3436 1.394 . S
C3437 C3438 1.516 . S
C3438 C3437 1.516 . S
C3438 C3439 1.502 . S
C3438 C3440 1.561 . S
C3438 C3441 1.526 . S
C3439 H3423 0.959 . S
C3439 H3424 0.959 . S
C3439 H3425 0.961 . S
C3439 C3438 1.502 . S
C3440 H3426 0.960 . S
C3440 H3427 0.961 . S
C3440 H3428 0.959 . S
C3440 C3438 1.561 . S
C3441 C3438 1.526 . S
C3441 C3442 1.396 . S
C3441 C3446 1.390 . S
C3442 C3436 1.465 . S
C3442 C3441 1.396 . S
C3442 C3443 1.399 . S
C3443 H3429 0.929 . S
C3443 C3442 1.399 . S
C3443 C3444 1.385 . S
C3444 H3430 0.931 . S
C3444 C3443 1.385 . S
C3444 C3445 1.389 . S
C3445 C3444 1.389 . S
C3445 C3446 1.387 . S
C3446 H3431 0.930 . S
C3446 C3441 1.390 . S
C3446 C3445 1.387 . S
H3447 C3459 0.930 . S
H3448 C3461 0.930 . S
H3449 C3462 0.930 . S
H3450 C3466 0.959 . S
H3451 C3466 0.959 . S
H3452 C3466 0.961 . S
H3453 C3467 0.960 . S
H3454 C3467 0.961 . S
H3455 C3467 0.959 . S
H3456 C3470 0.929 . S
H3457 C3471 0.931 . S
H3458 C3473 0.930 . S
C3459 H3447 0.930 . S
C3459 C3460 1.399 . S
C3459 C3464 1.399 . S
C3460 C3459 1.399 . S
C3460 C3461 1.376 . S
C3461 H3448 0.930 . S
C3461 C3460 1.376 . S
C3461 C3462 1.388 . S
C3462 H3449 0.930 . S
C3462 C3461 1.388 . S
C3462 C3463 1.390 . S
C3463 C3462 1.390 . S
C3463 C3464 1.394 . S
C3463 C3469 1.465 . S
C3464 C3459 1.399 . S
C3464 C3463 1.394 . S
C3464 C3465 1.516 . S
C3465 C3464 1.516 . S
C3465 C3466 1.502 . S
C3465 C3467 1.561 . S
C3465 C3468 1.526 . S
C3466 H3450 0.959 . S
C3466 H3451 0.959 . S
C3466 H3452 0.961 . S
C3466 C3465 1.502 . S
C3467 H3453 0.960 . S
C3467 H3454 0.961 . S
C3467 H3455 0.959 . S
C3467 C3465 1.561 . S
C3468 C3465 1.526 . S
C3468 C3469 1.396 . S
C3468 C3473 1.390 . S
C3469 C3463 1.465 . S
C3469 C3468 1.396 . S
C3469 C3470 1.399 . S
C3470 H3456 0.929 . S
C3470 C3469 1.399 . S
C3470 C3471 1.385 . S
C3471 H3457 0.931 . S
C3471 C3470 1.385 . S
C3471 C3472 1.389 . S
C3472 C3471 1.389 . S
C3472 C3473 1.387 . S
C3473 H3458 0.930 . S
C3473 C3468 1.390 . S
C3473 C3472 1.387 . S
H3474 C3486 0.930 . S
H3475 C3488 0.930 . S
H3476 C3489 0.930 1_545 S
H3477 C3493 0.959 . S
H3478 C3493 0.959 . S
H3479 C3493 0.961 . S
H3480 C3494 0.960 . S
H3481 C3494 0.961 . S
H3482 C3494 0.959 . S
H3483 C3497 0.929 . S
H3484 C3498 0.931 . S
H3485 C3500 0.930 . S
C3486 H3474 0.930 . S
C3486 C3487 1.399 . S
C3486 C3491 1.399 . S
C3487 C3486 1.399 . S
C3487 C3488 1.376 . S
C3488 H3475 0.930 . S
C3488 C3487 1.376 . S
C3488 C3489 1.388 . S
C3489 H3476 0.930 1_565 S
C3489 C3488 1.388 . S
C3489 C3490 1.390 . S
C3490 C3489 1.390 . S
C3490 C3491 1.394 . S
C3490 C3496 1.465 1_565 S
C3491 C3486 1.399 . S
C3491 C3490 1.394 . S
C3491 C3492 1.516 . S
C3492 C3491 1.516 . S
C3492 C3493 1.502 . S
C3492 C3494 1.561 . S
C3492 C3495 1.526 1_565 S
C3493 H3477 0.959 . S
C3493 H3478 0.959 . S
C3493 H3479 0.961 . S
C3493 C3492 1.502 . S
C3494 H3480 0.960 . S
C3494 H3481 0.961 . S
C3494 H3482 0.959 . S
C3494 C3492 1.561 . S
C3495 C3492 1.526 1_545 S
C3495 C3496 1.396 . S
C3495 C3500 1.390 . S
C3496 C3490 1.465 1_545 S
C3496 C3495 1.396 . S
C3496 C3497 1.399 . S
C3497 H3483 0.929 . S
C3497 C3496 1.399 . S
C3497 C3498 1.385 . S
C3498 H3484 0.931 . S
C3498 C3497 1.385 . S
C3498 C3499 1.389 . S
C3499 C3498 1.389 . S
C3499 C3500 1.387 . S
C3500 H3485 0.930 . S
C3500 C3495 1.390 . S
C3500 C3499 1.387 . S
H3501 C3513 0.930 . S
H3502 C3515 0.930 . S
H3503 C3516 0.930 . S
H3504 C3520 0.959 . S
H3505 C3520 0.959 . S
H3506 C3520 0.961 . S
H3507 C3521 1.002 . S
H3508 C3521 0.940 1_554 S
H3509 C3521 0.927 1_554 S
H3510 C3524 0.929 . S
H3511 C3525 0.931 . S
H3512 C3527 0.930 . S
C3513 H3501 0.930 . S
C3513 C3514 1.399 . S
C3513 C3518 1.399 . S
C3514 C3513 1.399 . S
C3514 C3515 1.376 . S
C3515 H3502 0.930 . S
C3515 C3514 1.376 . S
C3515 C3516 1.388 . S
C3516 H3503 0.930 . S
C3516 C3515 1.388 . S
C3516 C3517 1.390 . S
C3517 C3516 1.390 . S
C3517 C3518 1.394 . S
C3517 C3523 1.465 1_556 S
C3518 C3513 1.399 . S
C3518 C3517 1.394 . S
C3518 C3519 1.516 . S
C3519 C3518 1.516 . S
C3519 C3520 1.502 . S
C3519 C3521 1.575 . S
C3519 C3522 1.526 1_556 S
C3520 H3504 0.959 . S
C3520 H3505 0.959 . S
C3520 H3506 0.961 . S
C3520 C3519 1.502 . S
C3521 H3507 1.002 . S
C3521 H3508 0.940 1_556 S
C3521 H3509 0.927 1_556 S
C3521 C3519 1.575 . S
C3522 C3519 1.526 1_554 S
C3522 C3523 1.396 . S
C3522 C3527 1.390 . S
C3523 C3517 1.465 1_554 S
C3523 C3522 1.396 . S
C3523 C3524 1.399 . S
C3524 H3510 0.929 . S
C3524 C3523 1.399 . S
C3524 C3525 1.385 . S
C3525 H3511 0.931 . S
C3525 C3524 1.385 . S
C3525 C3526 1.389 . S
C3526 C3525 1.389 . S
C3526 C3527 1.387 . S
C3527 H3512 0.930 . S
C3527 C3522 1.390 . S
C3527 C3526 1.387 . S
H3528 C3540 0.930 . S
H3529 C3542 0.930 . S
H3530 C3543 0.930 . S
H3531 C3547 0.959 . S
H3532 C3547 0.959 . S
H3533 C3547 0.961 . S
H3534 C3548 0.960 . S
H3535 C3548 0.961 . S
H3536 C3548 0.959 . S
H3537 C3551 0.929 . S
H3538 C3552 0.931 . S
H3539 C3554 0.930 . S
C3540 H3528 0.930 . S
C3540 C3541 1.399 . S
C3540 C3545 1.399 . S
C3541 C3540 1.399 . S
C3541 C3542 1.376 . S
C3542 H3529 0.930 . S
C3542 C3541 1.376 . S
C3542 C3543 1.388 . S
C3543 H3530 0.930 . S
C3543 C3542 1.388 . S
C3543 C3544 1.390 . S
C3544 C3543 1.390 . S
C3544 C3545 1.394 . S
C3544 C3550 1.465 . S
C3545 C3540 1.399 . S
C3545 C3544 1.394 . S
C3545 C3546 1.516 . S
C3546 C3545 1.516 . S
C3546 C3547 1.502 . S
C3546 C3548 1.561 . S
C3546 C3549 1.526 . S
C3547 H3531 0.959 . S
C3547 H3532 0.959 . S
C3547 H3533 0.961 . S
C3547 C3546 1.502 . S
C3548 H3534 0.960 . S
C3548 H3535 0.961 . S
C3548 H3536 0.959 . S
C3548 C3546 1.561 . S
C3549 C3546 1.526 . S
C3549 C3550 1.396 . S
C3549 C3554 1.390 . S
C3550 C3544 1.465 . S
C3550 C3549 1.396 . S
C3550 C3551 1.399 . S
C3551 H3537 0.929 . S
C3551 C3550 1.399 . S
C3551 C3552 1.385 . S
C3552 H3538 0.931 . S
C3552 C3551 1.385 . S
C3552 C3553 1.389 . S
C3553 C3552 1.389 . S
C3553 C3554 1.387 . S
C3554 H3539 0.930 . S
C3554 C3549 1.390 . S
C3554 C3553 1.387 . S
H3555 C3567 0.930 . S
H3556 C3569 0.930 . S
H3557 C3570 0.930 . S
H3558 C3574 0.959 . S
H3559 C3574 0.959 . S
H3560 C3574 0.961 . S
H3561 C3575 0.960 . S
H3562 C3575 0.961 . S
H3563 C3575 0.959 . S
H3564 C3578 0.929 . S
H3565 C3579 0.931 . S
H3566 C3581 0.930 . S
C3567 H3555 0.930 . S
C3567 C3568 1.399 . S
C3567 C3572 1.399 . S
C3568 C3567 1.399 . S
C3568 C3569 1.376 . S
C3569 H3556 0.930 . S
C3569 C3568 1.376 . S
C3569 C3570 1.388 . S
C3570 H3557 0.930 . S
C3570 C3569 1.388 . S
C3570 C3571 1.390 . S
C3571 C3570 1.390 . S
C3571 C3572 1.394 . S
C3571 C3577 1.465 . S
C3572 C3567 1.399 . S
C3572 C3571 1.394 . S
C3572 C3573 1.516 . S
C3573 C3572 1.516 . S
C3573 C3574 1.502 . S
C3573 C3575 1.561 . S
C3573 C3576 1.526 . S
C3574 H3558 0.959 . S
C3574 H3559 0.959 . S
C3574 H3560 0.961 . S
C3574 C3573 1.502 . S
C3575 H3561 0.960 . S
C3575 H3562 0.961 . S
C3575 H3563 0.959 . S
C3575 C3573 1.561 . S
C3576 C3573 1.526 . S
C3576 C3577 1.396 . S
C3576 C3581 1.390 . S
C3577 C3571 1.465 . S
C3577 C3576 1.396 . S
C3577 C3578 1.399 . S
C3578 H3564 0.929 . S
C3578 C3577 1.399 . S
C3578 C3579 1.385 . S
C3579 H3565 0.931 . S
C3579 C3578 1.385 . S
C3579 C3580 1.389 . S
C3580 C3579 1.389 . S
C3580 C3581 1.387 . S
C3581 H3566 0.930 . S
C3581 C3576 1.390 . S
C3581 C3580 1.387 . S
H3582 C3594 0.930 . S
H3583 C3596 0.930 . S
H3584 C3597 0.930 . S
H3585 C3601 0.959 . S
H3586 C3601 0.959 . S
H3587 C3601 0.961 . S
H3588 C3602 0.960 . S
H3589 C3602 0.961 . S
H3590 C3602 0.959 . S
H3591 C3605 0.929 . S
H3592 C3606 0.931 . S
H3593 C3608 0.930 . S
C3594 H3582 0.930 . S
C3594 C3595 1.399 . S
C3594 C3599 1.399 . S
C3595 C3594 1.399 . S
C3595 C3596 1.376 . S
C3596 H3583 0.930 . S
C3596 C3595 1.376 . S
C3596 C3597 1.388 . S
C3597 H3584 0.930 . S
C3597 C3596 1.388 . S
C3597 C3598 1.390 . S
C3598 C3597 1.390 . S
C3598 C3599 1.394 . S
C3598 C3604 1.465 1_556 S
C3599 C3594 1.399 . S
C3599 C3598 1.394 . S
C3599 C3600 1.516 . S
C3600 C3599 1.516 . S
C3600 C3601 1.502 . S
C3600 C3602 1.561 . S
C3600 C3603 1.526 1_556 S
C3601 H3585 0.959 . S
C3601 H3586 0.959 . S
C3601 H3587 0.961 . S
C3601 C3600 1.502 . S
C3602 H3588 0.960 . S
C3602 H3589 0.961 . S
C3602 H3590 0.959 . S
C3602 C3600 1.561 . S
C3603 C3600 1.526 1_554 S
C3603 C3604 1.396 . S
C3603 C3608 1.390 . S
C3604 C3598 1.465 1_554 S
C3604 C3603 1.396 . S
C3604 C3605 1.399 . S
C3605 H3591 0.929 . S
C3605 C3604 1.399 . S
C3605 C3606 1.385 . S
C3606 H3592 0.931 . S
C3606 C3605 1.385 . S
C3606 C3607 1.389 . S
C3607 C3606 1.389 . S
C3607 C3608 1.387 . S
C3608 H3593 0.930 . S
C3608 C3603 1.390 . S
C3608 C3607 1.387 . S
H3609 C3621 0.930 . S
H3610 C3623 0.930 . S
H3611 C3624 0.930 . S
H3612 C3628 0.959 . S
H3613 C3628 0.959 1_554 S
H3614 C3628 0.961 . S
H3615 C3629 0.960 1_556 S
H3616 C3629 0.961 . S
H3617 C3629 0.959 . S
H3618 C3632 0.929 . S
H3619 C3633 0.931 . S
H3620 C3635 0.930 . S
C3621 H3609 0.930 . S
C3621 C3622 1.399 . S
C3621 C3626 1.399 . S
C3622 C3621 1.399 . S
C3622 C3623 1.376 . S
C3623 H3610 0.930 . S
C3623 C3622 1.376 . S
C3623 C3624 1.388 . S
C3624 H3611 0.930 . S
C3624 C3623 1.388 . S
C3624 C3625 1.390 . S
C3625 C3624 1.390 . S
C3625 C3626 1.394 . S
C3625 C3631 1.465 1_556 S
C3626 C3621 1.399 . S
C3626 C3625 1.394 . S
C3626 C3627 1.484 1_556 S
C3627 C3626 1.484 1_554 S
C3627 C3628 1.488 1_554 S
C3627 C3629 1.578 . S
C3627 C3630 1.560 . S
C3628 H3612 0.959 . S
C3628 H3613 0.959 1_556 S
C3628 H3614 0.961 . S
C3628 C3627 1.488 1_556 S
C3629 H3615 0.960 1_554 S
C3629 H3616 0.961 . S
C3629 H3617 0.959 . S
C3629 C3627 1.578 . S
C3630 C3627 1.560 . S
C3630 C3631 1.396 . S
C3630 C3635 1.390 . S
C3631 C3625 1.465 1_554 S
C3631 C3630 1.396 . S
C3631 C3632 1.399 . S
C3632 H3618 0.929 . S
C3632 C3631 1.399 . S
C3632 C3633 1.385 . S
C3633 H3619 0.931 . S
C3633 C3632 1.385 . S
C3633 C3634 1.389 . S
C3634 C3633 1.389 . S
C3634 C3635 1.387 . S
C3635 H3620 0.930 . S
C3635 C3630 1.390 . S
C3635 C3634 1.387 . S
H3636 C3648 0.930 . S
H3637 C3650 0.930 . S
H3638 C3651 0.930 . S
H3639 C3655 0.959 . S
H3640 C3655 0.959 . S
H3641 C3655 0.961 . S
H3642 C3656 0.960 . S
H3643 C3656 0.961 . S
H3644 C3656 0.959 . S
H3645 C3659 0.929 . S
H3646 C3660 0.931 . S
H3647 C3662 0.930 . S
C3648 H3636 0.930 . S
C3648 C3649 1.399 . S
C3648 C3653 1.399 . S
C3649 C3648 1.399 . S
C3649 C3650 1.376 . S
C3650 H3637 0.930 . S
C3650 C3649 1.376 . S
C3650 C3651 1.388 . S
C3651 H3638 0.930 . S
C3651 C3650 1.388 . S
C3651 C3652 1.390 . S
C3652 C3651 1.390 . S
C3652 C3653 1.394 . S
C3652 C3658 1.465 . S
C3653 C3648 1.399 . S
C3653 C3652 1.394 . S
C3653 C3654 1.516 . S
C3654 C3653 1.516 . S
C3654 C3655 1.502 . S
C3654 C3656 1.561 . S
C3654 C3657 1.526 . S
C3655 H3639 0.959 . S
C3655 H3640 0.959 . S
C3655 H3641 0.961 . S
C3655 C3654 1.502 . S
C3656 H3642 0.960 . S
C3656 H3643 0.961 . S
C3656 H3644 0.959 . S
C3656 C3654 1.561 . S
C3657 C3654 1.526 . S
C3657 C3658 1.396 . S
C3657 C3662 1.390 . S
C3658 C3652 1.465 . S
C3658 C3657 1.396 . S
C3658 C3659 1.399 . S
C3659 H3645 0.929 . S
C3659 C3658 1.399 . S
C3659 C3660 1.385 . S
C3660 H3646 0.931 . S
C3660 C3659 1.385 . S
C3660 C3661 1.389 . S
C3661 C3660 1.389 . S
C3661 C3662 1.387 . S
C3662 H3647 0.930 . S
C3662 C3657 1.390 . S
C3662 C3661 1.387 . S
H3663 C3675 0.930 . S
H3664 C3677 0.930 . S
H3665 C3678 0.930 . S
H3666 C3682 0.959 . S
H3667 C3682 0.959 . S
H3668 C3682 0.961 . S
H3669 C3683 0.960 . S
H3670 C3683 0.961 . S
H3671 C3683 0.959 . S
H3672 C3686 0.929 . S
H3673 C3687 0.931 . S
H3674 C3689 0.930 . S
C3675 H3663 0.930 . S
C3675 C3676 1.399 . S
C3675 C3680 1.399 . S
C3676 C3675 1.399 . S
C3676 C3677 1.376 . S
C3677 H3664 0.930 . S
C3677 C3676 1.376 . S
C3677 C3678 1.388 . S
C3678 H3665 0.930 . S
C3678 C3677 1.388 . S
C3678 C3679 1.390 . S
C3679 C3678 1.390 . S
C3679 C3680 1.394 . S
C3679 C3685 1.465 . S
C3680 C3675 1.399 . S
C3680 C3679 1.394 . S
C3680 C3681 1.516 . S
C3681 C3680 1.516 . S
C3681 C3682 1.502 . S
C3681 C3683 1.561 . S
C3681 C3684 1.526 . S
C3682 H3666 0.959 . S
C3682 H3667 0.959 . S
C3682 H3668 0.961 . S
C3682 C3681 1.502 . S
C3683 H3669 0.960 . S
C3683 H3670 0.961 . S
C3683 H3671 0.959 . S
C3683 C3681 1.561 . S
C3684 C3681 1.526 . S
C3684 C3685 1.396 . S
C3684 C3689 1.390 . S
C3685 C3679 1.465 . S
C3685 C3684 1.396 . S
C3685 C3686 1.399 . S
C3686 H3672 0.929 . S
C3686 C3685 1.399 . S
C3686 C3687 1.385 . S
C3687 H3673 0.931 . S
C3687 C3686 1.385 . S
C3687 C3688 1.389 . S
C3688 C3687 1.389 . S
C3688 C3689 1.387 . S
C3689 H3674 0.930 . S
C3689 C3684 1.390 . S
C3689 C3688 1.387 . S
H3690 C3702 0.930 . S
H3691 C3704 0.930 . S
H3692 C3705 0.930 . S
H3693 C3709 0.959 . S
H3694 C3709 0.959 . S
H3695 C3709 0.961 . S
H3696 C3710 0.960 . S
H3697 C3710 0.961 . S
H3698 C3710 0.959 . S
H3699 C3713 0.929 . S
H3700 C3714 0.931 . S
H3701 C3716 0.930 . S
C3702 H3690 0.930 . S
C3702 C3703 1.399 . S
C3702 C3707 1.399 . S
C3703 C3702 1.399 . S
C3703 C3704 1.376 . S
C3704 H3691 0.930 . S
C3704 C3703 1.376 . S
C3704 C3705 1.388 . S
C3705 H3692 0.930 . S
C3705 C3704 1.388 . S
C3705 C3706 1.390 . S
C3706 C3705 1.390 . S
C3706 C3707 1.394 . S
C3706 C3712 1.465 . S
C3707 C3702 1.399 . S
C3707 C3706 1.394 . S
C3707 C3708 1.516 . S
C3708 C3707 1.516 . S
C3708 C3709 1.502 . S
C3708 C3710 1.561 . S
C3708 C3711 1.526 . S
C3709 H3693 0.959 . S
C3709 H3694 0.959 . S
C3709 H3695 0.961 . S
C3709 C3708 1.502 . S
C3710 H3696 0.960 . S
C3710 H3697 0.961 . S
C3710 H3698 0.959 . S
C3710 C3708 1.561 . S
C3711 C3708 1.526 . S
C3711 C3712 1.396 . S
C3711 C3716 1.390 . S
C3712 C3706 1.465 . S
C3712 C3711 1.396 . S
C3712 C3713 1.399 . S
C3713 H3699 0.929 . S
C3713 C3712 1.399 . S
C3713 C3714 1.385 . S
C3714 H3700 0.931 . S
C3714 C3713 1.385 . S
C3714 C3715 1.389 . S
C3715 C3714 1.389 . S
C3715 C3716 1.387 . S
C3716 H3701 0.930 . S
C3716 C3711 1.390 . S
C3716 C3715 1.387 . S
H3717 C3729 0.930 . S
H3718 C3731 0.930 . S
H3719 C3732 0.930 . S
H3720 C3736 0.959 . S
H3721 C3736 0.959 . S
H3722 C3736 0.961 . S
H3723 C3737 0.960 . S
H3724 C3737 0.961 . S
H3725 C3737 0.959 . S
H3726 C3740 0.929 . S
H3727 C3741 0.931 . S
H3728 C3743 0.930 . S
C3729 H3717 0.930 . S
C3729 C3730 1.399 . S
C3729 C3734 1.399 . S
C3730 C3729 1.399 . S
C3730 C3731 1.376 . S
C3731 H3718 0.930 . S
C3731 C3730 1.376 . S
C3731 C3732 1.388 . S
C3732 H3719 0.930 . S
C3732 C3731 1.388 . S
C3732 C3733 1.390 . S
C3733 C3732 1.390 . S
C3733 C3734 1.394 . S
C3733 C3739 1.465 . S
C3734 C3729 1.399 . S
C3734 C3733 1.394 . S
C3734 C3735 1.516 . S
C3735 C3734 1.516 . S
C3735 C3736 1.502 . S
C3735 C3737 1.561 . S
C3735 C3738 1.526 . S
C3736 H3720 0.959 . S
C3736 H3721 0.959 . S
C3736 H3722 0.961 . S
C3736 C3735 1.502 . S
C3737 H3723 0.960 . S
C3737 H3724 0.961 . S
C3737 H3725 0.959 . S
C3737 C3735 1.561 . S
C3738 C3735 1.526 . S
C3738 C3739 1.396 . S
C3738 C3743 1.390 . S
C3739 C3733 1.465 . S
C3739 C3738 1.396 . S
C3739 C3740 1.399 . S
C3740 H3726 0.929 . S
C3740 C3739 1.399 . S
C3740 C3741 1.385 . S
C3741 H3727 0.931 . S
C3741 C3740 1.385 . S
C3741 C3742 1.389 . S
C3742 C3741 1.389 . S
C3742 C3743 1.387 . S
C3743 H3728 0.930 . S
C3743 C3738 1.390 . S
C3743 C3742 1.387 . S
H3744 C3756 0.930 . S
H3745 C3758 0.930 . S
H3746 C3759 0.930 . S
H3747 C3763 0.959 . S
H3748 C3763 0.959 . S
H3749 C3763 0.961 . S
H3750 C3764 0.960 . S
H3751 C3764 0.961 . S
H3752 C3764 0.959 . S
H3753 C3767 0.929 . S
H3754 C3768 0.931 . S
H3755 C3770 0.930 . S
C3756 H3744 0.930 . S
C3756 C3757 1.399 . S
C3756 C3761 1.399 . S
C3757 C3756 1.399 . S
C3757 C3758 1.376 . S
C3758 H3745 0.930 . S
C3758 C3757 1.376 . S
C3758 C3759 1.388 . S
C3759 H3746 0.930 . S
C3759 C3758 1.388 . S
C3759 C3760 1.390 . S
C3760 C3759 1.390 . S
C3760 C3761 1.394 . S
C3760 C3766 1.465 . S
C3761 C3756 1.399 . S
C3761 C3760 1.394 . S
C3761 C3762 1.516 . S
C3762 C3761 1.516 . S
C3762 C3763 1.502 . S
C3762 C3764 1.561 . S
C3762 C3765 1.526 . S
C3763 H3747 0.959 . S
C3763 H3748 0.959 . S
C3763 H3749 0.961 . S
C3763 C3762 1.502 . S
C3764 H3750 0.960 . S
C3764 H3751 0.961 . S
C3764 H3752 0.959 . S
C3764 C3762 1.561 . S
C3765 C3762 1.526 . S
C3765 C3766 1.396 . S
C3765 C3770 1.390 . S
C3766 C3760 1.465 . S
C3766 C3765 1.396 . S
C3766 C3767 1.399 . S
C3767 H3753 0.929 . S
C3767 C3766 1.399 . S
C3767 C3768 1.385 . S
C3768 H3754 0.931 . S
C3768 C3767 1.385 . S
C3768 C3769 1.389 . S
C3769 C3768 1.389 . S
C3769 C3770 1.387 . S
C3770 H3755 0.930 . S
C3770 C3765 1.390 . S
C3770 C3769 1.387 . S
H3771 C3783 0.930 . S
H3772 C3785 0.930 . S
H3773 C3786 0.930 . S
H3774 C3790 0.959 . S
H3775 C3790 0.959 . S
H3776 C3790 0.961 . S
H3777 C3791 0.960 . S
H3778 C3791 0.961 . S
H3779 C3791 0.959 . S
H3780 C3794 0.929 . S
H3781 C3795 0.931 . S
H3782 C3797 0.930 . S
C3783 H3771 0.930 . S
C3783 C3784 1.399 . S
C3783 C3788 1.399 . S
C3784 C3783 1.399 . S
C3784 C3785 1.376 . S
C3785 H3772 0.930 . S
C3785 C3784 1.376 . S
C3785 C3786 1.388 . S
C3786 H3773 0.930 . S
C3786 C3785 1.388 . S
C3786 C3787 1.390 . S
C3787 C3786 1.390 . S
C3787 C3788 1.394 . S
C3787 C3793 1.465 . S
C3788 C3783 1.399 . S
C3788 C3787 1.394 . S
C3788 C3789 1.516 . S
C3789 C3788 1.516 . S
C3789 C3790 1.502 . S
C3789 C3791 1.561 . S
C3789 C3792 1.526 . S
C3790 H3774 0.959 . S
C3790 H3775 0.959 . S
C3790 H3776 0.961 . S
C3790 C3789 1.502 . S
C3791 H3777 0.960 . S
C3791 H3778 0.961 . S
C3791 H3779 0.959 . S
C3791 C3789 1.561 . S
C3792 C3789 1.526 . S
C3792 C3793 1.396 . S
C3792 C3797 1.390 . S
C3793 C3787 1.465 . S
C3793 C3792 1.396 . S
C3793 C3794 1.399 . S
C3794 H3780 0.929 . S
C3794 C3793 1.399 . S
C3794 C3795 1.385 . S
C3795 H3781 0.931 . S
C3795 C3794 1.385 . S
C3795 C3796 1.389 . S
C3796 C3795 1.389 . S
C3796 C3797 1.387 . S
C3797 H3782 0.930 . S
C3797 C3792 1.390 . S
C3797 C3796 1.387 . S
H3798 C3810 0.930 . S
H3799 C3812 0.930 . S
H3800 C3813 0.930 . S
H3801 C3817 0.959 . S
H3802 C3817 0.959 . S
H3803 C3817 0.961 . S
H3804 C3818 0.960 . S
H3805 C3818 0.961 . S
H3806 C3818 0.959 . S
H3807 C3821 0.929 . S
H3808 C3822 0.931 . S
H3809 C3824 0.930 . S
C3810 H3798 0.930 . S
C3810 C3811 1.399 . S
C3810 C3815 1.399 . S
C3811 C3810 1.399 . S
C3811 C3812 1.376 . S
C3812 H3799 0.930 . S
C3812 C3811 1.376 . S
C3812 C3813 1.388 . S
C3813 H3800 0.930 . S
C3813 C3812 1.388 . S
C3813 C3814 1.390 . S
C3814 C3813 1.390 . S
C3814 C3815 1.394 . S
C3814 C3820 1.465 1_565 S
C3815 C3810 1.399 . S
C3815 C3814 1.394 . S
C3815 C3816 1.516 . S
C3816 C3815 1.516 . S
C3816 C3817 1.502 . S
C3816 C3818 1.561 . S
C3816 C3819 1.526 1_565 S
C3817 H3801 0.959 . S
C3817 H3802 0.959 . S
C3817 H3803 0.961 . S
C3817 C3816 1.502 . S
C3818 H3804 0.960 . S
C3818 H3805 0.961 . S
C3818 H3806 0.959 . S
C3818 C3816 1.561 . S
C3819 C3816 1.526 1_545 S
C3819 C3820 1.396 . S
C3819 C3824 1.390 . S
C3820 C3814 1.465 1_545 S
C3820 C3819 1.396 . S
C3820 C3821 1.399 . S
C3821 H3807 0.929 . S
C3821 C3820 1.399 . S
C3821 C3822 1.385 . S
C3822 H3808 0.931 . S
C3822 C3821 1.385 . S
C3822 C3823 1.389 . S
C3823 C3822 1.389 . S
C3823 C3824 1.387 . S
C3824 H3809 0.930 . S
C3824 C3819 1.390 . S
C3824 C3823 1.387 . S
H3825 C3837 0.930 . S
H3826 C3839 0.930 . S
H3827 C3840 0.930 . S
H3828 C3844 0.959 . S
H3829 C3844 0.959 . S
H3830 C3844 0.961 . S
H3831 C3845 0.960 . S
H3832 C3845 0.961 . S
H3833 C3845 0.959 . S
H3834 C3848 0.929 . S
H3835 C3849 0.931 . S
H3836 C3851 0.930 . S
C3837 H3825 0.930 . S
C3837 C3838 1.399 . S
C3837 C3842 1.399 . S
C3838 C3837 1.399 . S
C3838 C3839 1.376 . S
C3839 H3826 0.930 . S
C3839 C3838 1.376 . S
C3839 C3840 1.388 . S
C3840 H3827 0.930 . S
C3840 C3839 1.388 . S
C3840 C3841 1.390 . S
C3841 C3840 1.390 . S
C3841 C3842 1.394 . S
C3841 C3847 1.465 . S
C3842 C3837 1.399 . S
C3842 C3841 1.394 . S
C3842 C3843 1.516 . S
C3843 C3842 1.516 . S
C3843 C3844 1.502 . S
C3843 C3845 1.561 . S
C3843 C3846 1.526 . S
C3844 H3828 0.959 . S
C3844 H3829 0.959 . S
C3844 H3830 0.961 . S
C3844 C3843 1.502 . S
C3845 H3831 0.960 . S
C3845 H3832 0.961 . S
C3845 H3833 0.959 . S
C3845 C3843 1.561 . S
C3846 C3843 1.526 . S
C3846 C3847 1.396 . S
C3846 C3851 1.390 . S
C3847 C3841 1.465 . S
C3847 C3846 1.396 . S
C3847 C3848 1.399 . S
C3848 H3834 0.929 . S
C3848 C3847 1.399 . S
C3848 C3849 1.385 . S
C3849 H3835 0.931 . S
C3849 C3848 1.385 . S
C3849 C3850 1.389 . S
C3850 C3849 1.389 . S
C3850 C3851 1.387 . S
C3851 H3836 0.930 . S
C3851 C3846 1.390 . S
C3851 C3850 1.387 . S
H3852 C3864 0.930 . S
H3853 C3866 0.930 . S
H3854 C3867 0.930 . S
H3855 C3871 0.959 . S
H3856 C3871 0.959 . S
H3857 C3871 0.961 . S
H3858 C3872 0.960 . S
H3859 C3872 0.961 . S
H3860 C3872 0.959 . S
H3861 C3875 0.929 . S
H3862 C3876 0.931 . S
H3863 C3878 0.930 . S
C3864 H3852 0.930 . S
C3864 C3865 1.399 . S
C3864 C3869 1.399 . S
C3865 C3864 1.399 . S
C3865 C3866 1.376 . S
C3866 H3853 0.930 . S
C3866 C3865 1.376 . S
C3866 C3867 1.388 . S
C3867 H3854 0.930 . S
C3867 C3866 1.388 . S
C3867 C3868 1.390 . S
C3868 C3867 1.390 . S
C3868 C3869 1.394 . S
C3868 C3874 1.465 . S
C3869 C3864 1.399 . S
C3869 C3868 1.394 . S
C3869 C3870 1.516 . S
C3870 C3869 1.516 . S
C3870 C3871 1.502 . S
C3870 C3872 1.561 . S
C3870 C3873 1.526 . S
C3871 H3855 0.959 . S
C3871 H3856 0.959 . S
C3871 H3857 0.961 . S
C3871 C3870 1.502 . S
C3872 H3858 0.960 . S
C3872 H3859 0.961 . S
C3872 H3860 0.959 . S
C3872 C3870 1.561 . S
C3873 C3870 1.526 . S
C3873 C3874 1.396 . S
C3873 C3878 1.390 . S
C3874 C3868 1.465 . S
C3874 C3873 1.396 . S
C3874 C3875 1.399 . S
C3875 H3861 0.929 . S
C3875 C3874 1.399 . S
C3875 C3876 1.385 . S
C3876 H3862 0.931 . S
C3876 C3875 1.385 . S
C3876 C3877 1.389 . S
C3877 C3876 1.389 . S
C3877 C3878 1.387 . S
C3878 H3863 0.930 . S
C3878 C3873 1.390 . S
C3878 C3877 1.387 . S
H3879 C3891 0.930 . S
H3880 C3893 0.930 . S
H3881 C3894 0.930 . S
H3882 C3898 0.959 . S
H3883 C3898 0.959 . S
H3884 C3898 0.961 . S
H3885 C3899 0.960 . S
H3886 C3899 0.961 . S
H3887 C3899 0.959 . S
H3888 C3902 0.929 . S
H3889 C3903 0.931 . S
H3890 C3905 0.930 . S
C3891 H3879 0.930 . S
C3891 C3892 1.399 . S
C3891 C3896 1.399 . S
C3892 C3891 1.399 . S
C3892 C3893 1.376 . S
C3893 H3880 0.930 . S
C3893 C3892 1.376 . S
C3893 C3894 1.388 . S
C3894 H3881 0.930 . S
C3894 C3893 1.388 . S
C3894 C3895 1.390 . S
C3895 C3894 1.390 . S
C3895 C3896 1.394 . S
C3895 C3901 1.465 . S
C3896 C3891 1.399 . S
C3896 C3895 1.394 . S
C3896 C3897 1.516 . S
C3897 C3896 1.516 . S
C3897 C3898 1.502 . S
C3897 C3899 1.561 . S
C3897 C3900 1.526 . S
C3898 H3882 0.959 . S
C3898 H3883 0.959 . S
C3898 H3884 0.961 . S
C3898 C3897 1.502 . S
C3899 H3885 0.960 . S
C3899 H3886 0.961 . S
C3899 H3887 0.959 . S
C3899 C3897 1.561 . S
C3900 C3897 1.526 . S
C3900 C3901 1.396 . S
C3900 C3905 1.390 . S
C3901 C3895 1.465 . S
C3901 C3900 1.396 . S
C3901 C3902 1.399 . S
C3902 H3888 0.929 . S
C3902 C3901 1.399 . S
C3902 C3903 1.385 . S
C3903 H3889 0.931 . S
C3903 C3902 1.385 . S
C3903 C3904 1.389 . S
C3904 C3903 1.389 . S
C3904 C3905 1.387 . S
C3905 H3890 0.930 . S
C3905 C3900 1.390 . S
C3905 C3904 1.387 . S
H3906 C3918 0.930 . S
H3907 C3920 0.930 . S
H3908 C3921 0.930 . S
H3909 C3925 0.959 . S
H3910 C3925 0.959 . S
H3911 C3925 0.961 . S
H3912 C3926 0.936 1_556 S
H3913 C3926 0.961 . S
H3914 C3926 0.959 . S
H3915 C3929 0.929 . S
H3916 C3930 0.931 . S
H3917 C3932 0.930 . S
C3918 H3906 0.930 . S
C3918 C3919 1.399 . S
C3918 C3923 1.399 . S
C3919 C3918 1.399 . S
C3919 C3920 1.376 . S
C3920 H3907 0.930 . S
C3920 C3919 1.376 . S
C3920 C3921 1.388 . S
C3921 H3908 0.930 . S
C3921 C3920 1.388 . S
C3921 C3922 1.390 . S
C3922 C3921 1.390 . S
C3922 C3923 1.394 . S
C3922 C3928 1.465 1_556 S
C3923 C3918 1.399 . S
C3923 C3922 1.394 . S
C3923 C3924 1.516 1_556 S
C3924 C3923 1.516 1_554 S
C3924 C3925 1.502 . S
C3924 C3926 1.561 . S
C3924 C3927 1.526 . S
C3925 H3909 0.959 . S
C3925 H3910 0.959 . S
C3925 H3911 0.961 . S
C3925 C3924 1.502 . S
C3926 H3912 0.936 1_554 S
C3926 H3913 0.961 . S
C3926 H3914 0.959 . S
C3926 C3924 1.561 . S
C3927 C3924 1.526 . S
C3927 C3928 1.396 . S
C3927 C3932 1.390 . S
C3928 C3922 1.465 1_554 S
C3928 C3927 1.396 . S
C3928 C3929 1.399 . S
C3929 H3915 0.929 . S
C3929 C3928 1.399 . S
C3929 C3930 1.385 . S
C3930 H3916 0.931 . S
C3930 C3929 1.385 . S
C3930 C3931 1.389 . S
C3931 C3930 1.389 . S
C3931 C3932 1.387 . S
C3932 H3917 0.930 . S
C3932 C3927 1.390 . S
C3932 C3931 1.387 . S
H3933 C3945 0.930 . S
H3934 C3947 0.930 . S
H3935 C3948 0.930 . S
H3936 C3952 0.959 . S
H3937 C3952 0.959 . S
H3938 C3952 0.988 . S
H3939 C3953 0.960 . S
H3940 C3953 0.961 1_554 S
H3941 C3953 0.959 . S
H3942 C3956 0.929 . S
H3943 C3957 0.931 . S
H3944 C3959 0.930 . S
C3945 H3933 0.930 . S
C3945 C3946 1.399 . S
C3945 C3950 1.399 . S
C3946 C3945 1.399 . S
C3946 C3947 1.376 . S
C3947 H3934 0.930 . S
C3947 C3946 1.376 . S
C3947 C3948 1.388 . S
C3948 H3935 0.930 . S
C3948 C3947 1.388 . S
C3948 C3949 1.390 . S
C3949 C3948 1.390 . S
C3949 C3950 1.394 . S
C3949 C3955 1.465 1_556 S
C3950 C3945 1.399 . S
C3950 C3949 1.394 . S
C3950 C3951 1.516 1_556 S
C3951 C3950 1.516 1_554 S
C3951 C3952 1.502 . S
C3951 C3953 1.561 1_554 S
C3951 C3954 1.526 . S
C3952 H3936 0.959 . S
C3952 H3937 0.959 . S
C3952 H3938 0.988 . S
C3952 C3951 1.502 . S
C3953 H3939 0.960 . S
C3953 H3940 0.961 1_556 S
C3953 H3941 0.959 . S
C3953 C3951 1.561 1_556 S
C3954 C3951 1.526 . S
C3954 C3955 1.396 . S
C3954 C3959 1.390 . S
C3955 C3949 1.465 1_554 S
C3955 C3954 1.396 . S
C3955 C3956 1.399 . S
C3956 H3942 0.929 . S
C3956 C3955 1.399 . S
C3956 C3957 1.385 . S
C3957 H3943 0.931 . S
C3957 C3956 1.385 . S
C3957 C3958 1.389 . S
C3958 C3957 1.389 . S
C3958 C3959 1.387 . S
C3959 H3944 0.930 . S
C3959 C3954 1.390 . S
C3959 C3958 1.387 . S
H3960 C3972 0.930 . S
H3961 C3974 0.930 . S
H3962 C3975 0.930 . S
H3963 C3979 0.959 . S
H3964 C3979 0.959 . S
H3965 C3979 0.961 . S
H3966 C3980 0.960 . S
H3967 C3980 0.961 . S
H3968 C3980 0.959 . S
H3969 C3983 0.929 . S
H3970 C3984 0.931 . S
H3971 C3986 0.930 . S
C3972 H3960 0.930 . S
C3972 C3973 1.399 . S
C3972 C3977 1.399 . S
C3973 C3972 1.399 . S
C3973 C3974 1.376 . S
C3974 H3961 0.930 . S
C3974 C3973 1.376 . S
C3974 C3975 1.388 . S
C3975 H3962 0.930 . S
C3975 C3974 1.388 . S
C3975 C3976 1.390 . S
C3976 C3975 1.390 . S
C3976 C3977 1.394 . S
C3976 C3982 1.465 . S
C3977 C3972 1.399 . S
C3977 C3976 1.394 . S
C3977 C3978 1.516 . S
C3978 C3977 1.516 . S
C3978 C3979 1.502 . S
C3978 C3980 1.561 . S
C3978 C3981 1.526 . S
C3979 H3963 0.959 . S
C3979 H3964 0.959 . S
C3979 H3965 0.961 . S
C3979 C3978 1.502 . S
C3980 H3966 0.960 . S
C3980 H3967 0.961 . S
C3980 H3968 0.959 . S
C3980 C3978 1.561 . S
C3981 C3978 1.526 . S
C3981 C3982 1.396 . S
C3981 C3986 1.390 . S
C3982 C3976 1.465 . S
C3982 C3981 1.396 . S
C3982 C3983 1.399 . S
C3983 H3969 0.929 . S
C3983 C3982 1.399 . S
C3983 C3984 1.385 . S
C3984 H3970 0.931 . S
C3984 C3983 1.385 . S
C3984 C3985 1.389 . S
C3985 C3984 1.389 . S
C3985 C3986 1.387 . S
C3986 H3971 0.930 . S
C3986 C3981 1.390 . S
C3986 C3985 1.387 . S
H3987 C3999 0.930 . S
H3988 C4001 0.930 . S
H3989 C4002 0.930 . S
H3990 C4006 0.959 . S
H3991 C4006 0.959 . S
H3992 C4006 0.961 . S
H3993 C4007 0.960 . S
H3994 C4007 0.961 . S
H3995 C4007 0.959 . S
H3996 C4010 0.929 . S
H3997 C4011 0.931 . S
H3998 C4013 0.930 . S
C3999 H3987 0.930 . S
C3999 C4000 1.399 . S
C3999 C4004 1.399 . S
C4000 C3999 1.399 . S
C4000 C4001 1.376 . S
C4001 H3988 0.930 . S
C4001 C4000 1.376 . S
C4001 C4002 1.388 . S
C4002 H3989 0.930 . S
C4002 C4001 1.388 . S
C4002 C4003 1.390 . S
C4003 C4002 1.390 . S
C4003 C4004 1.394 . S
C4003 C4009 1.465 . S
C4004 C3999 1.399 . S
C4004 C4003 1.394 . S
C4004 C4005 1.516 . S
C4005 C4004 1.516 . S
C4005 C4006 1.502 . S
C4005 C4007 1.561 . S
C4005 C4008 1.526 . S
C4006 H3990 0.959 . S
C4006 H3991 0.959 . S
C4006 H3992 0.961 . S
C4006 C4005 1.502 . S
C4007 H3993 0.960 . S
C4007 H3994 0.961 . S
C4007 H3995 0.959 . S
C4007 C4005 1.561 . S
C4008 C4005 1.526 . S
C4008 C4009 1.396 . S
C4008 C4013 1.390 . S
C4009 C4003 1.465 . S
C4009 C4008 1.396 . S
C4009 C4010 1.399 . S
C4010 H3996 0.929 . S
C4010 C4009 1.399 . S
C4010 C4011 1.385 . S
C4011 H3997 0.931 . S
C4011 C4010 1.385 . S
C4011 C4012 1.389 . S
C4012 C4011 1.389 . S
C4012 C4013 1.387 . S
C4013 H3998 0.930 . S
C4013 C4008 1.390 . S
C4013 C4012 1.387 . S
H4014 C4026 0.930 . S
H4015 C4028 0.930 . S
H4016 C4029 0.930 . S
H4017 C4033 0.959 . S
H4018 C4033 0.959 . S
H4019 C4033 0.961 . S
H4020 C4034 0.960 . S
H4021 C4034 0.961 . S
H4022 C4034 0.959 . S
H4023 C4037 0.929 . S
H4024 C4038 0.931 . S
H4025 C4040 0.930 . S
C4026 H4014 0.930 . S
C4026 C4027 1.399 . S
C4026 C4031 1.399 . S
C4027 C4026 1.399 . S
C4027 C4028 1.376 . S
C4028 H4015 0.930 . S
C4028 C4027 1.376 . S
C4028 C4029 1.388 . S
C4029 H4016 0.930 . S
C4029 C4028 1.388 . S
C4029 C4030 1.390 . S
C4030 C4029 1.390 . S
C4030 C4031 1.394 . S
C4030 C4036 1.465 . S
C4031 C4026 1.399 . S
C4031 C4030 1.394 . S
C4031 C4032 1.516 . S
C4032 C4031 1.516 . S
C4032 C4033 1.502 . S
C4032 C4034 1.561 . S
C4032 C4035 1.526 . S
C4033 H4017 0.959 . S
C4033 H4018 0.959 . S
C4033 H4019 0.961 . S
C4033 C4032 1.502 . S
C4034 H4020 0.960 . S
C4034 H4021 0.961 . S
C4034 H4022 0.959 . S
C4034 C4032 1.561 . S
C4035 C4032 1.526 . S
C4035 C4036 1.396 . S
C4035 C4040 1.390 . S
C4036 C4030 1.465 . S
C4036 C4035 1.396 . S
C4036 C4037 1.399 . S
C4037 H4023 0.929 . S
C4037 C4036 1.399 . S
C4037 C4038 1.385 . S
C4038 H4024 0.931 . S
C4038 C4037 1.385 . S
C4038 C4039 1.389 . S
C4039 C4038 1.389 . S
C4039 C4040 1.387 . S
C4040 H4025 0.930 . S
C4040 C4035 1.390 . S
C4040 C4039 1.387 . S
H4041 C4053 0.930 . S
H4042 C4055 0.930 . S
H4043 C4056 0.930 . S
H4044 C4060 0.959 . S
H4045 C4060 0.959 . S
H4046 C4060 0.961 . S
H4047 C4061 0.960 . S
H4048 C4061 0.961 . S
H4049 C4061 0.959 . S
H4050 C4064 0.929 . S
H4051 C4065 0.931 . S
H4052 C4067 0.930 . S
C4053 H4041 0.930 . S
C4053 C4054 1.399 . S
C4053 C4058 1.399 . S
C4054 C4053 1.399 . S
C4054 C4055 1.376 . S
C4055 H4042 0.930 . S
C4055 C4054 1.376 . S
C4055 C4056 1.388 . S
C4056 H4043 0.930 . S
C4056 C4055 1.388 . S
C4056 C4057 1.390 . S
C4057 C4056 1.390 . S
C4057 C4058 1.394 . S
C4057 C4063 1.465 . S
C4058 C4053 1.399 . S
C4058 C4057 1.394 . S
C4058 C4059 1.516 . S
C4059 C4058 1.516 . S
C4059 C4060 1.502 . S
C4059 C4061 1.561 . S
C4059 C4062 1.526 . S
C4060 H4044 0.959 . S
C4060 H4045 0.959 . S
C4060 H4046 0.961 . S
C4060 C4059 1.502 . S
C4061 H4047 0.960 . S
C4061 H4048 0.961 . S
C4061 H4049 0.959 . S
C4061 C4059 1.561 . S
C4062 C4059 1.526 . S
C4062 C4063 1.396 . S
C4062 C4067 1.390 . S
C4063 C4057 1.465 . S
C4063 C4062 1.396 . S
C4063 C4064 1.399 . S
C4064 H4050 0.929 . S
C4064 C4063 1.399 . S
C4064 C4065 1.385 . S
C4065 H4051 0.931 . S
C4065 C4064 1.385 . S
C4065 C4066 1.389 . S
C4066 C4065 1.389 . S
C4066 C4067 1.387 . S
C4067 H4052 0.930 . S
C4067 C4062 1.390 . S
C4067 C4066 1.387 . S
H4068 C4080 0.930 . S
H4069 C4082 0.930 . S
H4070 C4083 0.930 . S
H4071 C4087 0.959 . S
H4072 C4087 0.959 . S
H4073 C4087 0.961 . S
H4074 C4088 0.960 . S
H4075 C4088 0.961 . S
H4076 C4088 0.959 . S
H4077 C4091 0.929 . S
H4078 C4092 0.931 . S
H4079 C4094 0.930 . S
C4080 H4068 0.930 . S
C4080 C4081 1.399 . S
C4080 C4085 1.399 . S
C4081 C4080 1.399 . S
C4081 C4082 1.376 . S
C4082 H4069 0.930 . S
C4082 C4081 1.376 . S
C4082 C4083 1.388 . S
C4083 H4070 0.930 . S
C4083 C4082 1.388 . S
C4083 C4084 1.390 . S
C4084 C4083 1.390 . S
C4084 C4085 1.394 . S
C4084 C4090 1.465 . S
C4085 C4080 1.399 . S
C4085 C4084 1.394 . S
C4085 C4086 1.516 . S
C4086 C4085 1.516 . S
C4086 C4087 1.502 . S
C4086 C4088 1.561 . S
C4086 C4089 1.526 . S
C4087 H4071 0.959 . S
C4087 H4072 0.959 . S
C4087 H4073 0.961 . S
C4087 C4086 1.502 . S
C4088 H4074 0.960 . S
C4088 H4075 0.961 . S
C4088 H4076 0.959 . S
C4088 C4086 1.561 . S
C4089 C4086 1.526 . S
C4089 C4090 1.396 . S
C4089 C4094 1.390 . S
C4090 C4084 1.465 . S
C4090 C4089 1.396 . S
C4090 C4091 1.399 . S
C4091 H4077 0.929 . S
C4091 C4090 1.399 . S
C4091 C4092 1.385 . S
C4092 H4078 0.931 . S
C4092 C4091 1.385 . S
C4092 C4093 1.389 . S
C4093 C4092 1.389 . S
C4093 C4094 1.387 . S
C4094 H4079 0.930 . S
C4094 C4089 1.390 . S
C4094 C4093 1.387 . S
H4095 C4107 0.930 . S
H4096 C4109 0.930 . S
H4097 C4110 0.930 . S
H4098 C4114 0.959 . S
H4099 C4114 0.959 . S
H4100 C4114 0.961 . S
H4101 C4115 0.960 . S
H4102 C4115 0.961 . S
H4103 C4115 0.959 . S
H4104 C4118 0.929 . S
H4105 C4119 0.931 . S
H4106 C4121 0.930 . S
C4107 H4095 0.930 . S
C4107 C4108 1.399 . S
C4107 C4112 1.399 . S
C4108 C4107 1.399 . S
C4108 C4109 1.376 . S
C4109 H4096 0.930 . S
C4109 C4108 1.376 . S
C4109 C4110 1.388 . S
C4110 H4097 0.930 . S
C4110 C4109 1.388 . S
C4110 C4111 1.390 . S
C4111 C4110 1.390 . S
C4111 C4112 1.394 . S
C4111 C4117 1.465 . S
C4112 C4107 1.399 . S
C4112 C4111 1.394 . S
C4112 C4113 1.516 . S
C4113 C4112 1.516 . S
C4113 C4114 1.502 . S
C4113 C4115 1.561 . S
C4113 C4116 1.526 . S
C4114 H4098 0.959 . S
C4114 H4099 0.959 . S
C4114 H4100 0.961 . S
C4114 C4113 1.502 . S
C4115 H4101 0.960 . S
C4115 H4102 0.961 . S
C4115 H4103 0.959 . S
C4115 C4113 1.561 . S
C4116 C4113 1.526 . S
C4116 C4117 1.396 . S
C4116 C4121 1.390 . S
C4117 C4111 1.465 . S
C4117 C4116 1.396 . S
C4117 C4118 1.399 . S
C4118 H4104 0.929 . S
C4118 C4117 1.399 . S
C4118 C4119 1.385 . S
C4119 H4105 0.931 . S
C4119 C4118 1.385 . S
C4119 C4120 1.389 . S
C4120 C4119 1.389 . S
C4120 C4121 1.387 . S
C4121 H4106 0.930 . S
C4121 C4116 1.390 . S
C4121 C4120 1.387 . S
H4122 C4134 0.930 . S
H4123 C4136 0.930 . S
H4124 C4137 0.930 . S
H4125 C4141 0.959 . S
H4126 C4141 0.959 . S
H4127 C4141 0.961 . S
H4128 C4142 0.995 . S
H4129 C4142 0.961 . S
H4130 C4142 0.959 . S
H4131 C4145 0.929 . S
H4132 C4146 0.931 . S
H4133 C4148 0.930 . S
C4134 H4122 0.930 . S
C4134 C4135 1.399 . S
C4134 C4139 1.399 . S
C4135 C4134 1.399 . S
C4135 C4136 1.376 . S
C4136 H4123 0.930 . S
C4136 C4135 1.376 . S
C4136 C4137 1.388 . S
C4137 H4124 0.930 . S
C4137 C4136 1.388 . S
C4137 C4138 1.390 . S
C4138 C4137 1.390 . S
C4138 C4139 1.394 . S
C4138 C4144 1.465 1_565 S
C4139 C4134 1.399 . S
C4139 C4138 1.394 . S
C4139 C4140 1.516 1_565 S
C4140 C4139 1.516 1_545 S
C4140 C4141 1.502 . S
C4140 C4142 1.561 . S
C4140 C4143 1.526 . S
C4141 H4125 0.959 . S
C4141 H4126 0.959 . S
C4141 H4127 0.961 . S
C4141 C4140 1.502 . S
C4142 H4128 0.995 . S
C4142 H4129 0.961 . S
C4142 H4130 0.959 . S
C4142 C4140 1.561 . S
C4143 C4140 1.526 . S
C4143 C4144 1.396 . S
C4143 C4148 1.390 . S
C4144 C4138 1.465 1_545 S
C4144 C4143 1.396 . S
C4144 C4145 1.399 . S
C4145 H4131 0.929 . S
C4145 C4144 1.399 . S
C4145 C4146 1.385 . S
C4146 H4132 0.931 . S
C4146 C4145 1.385 . S
C4146 C4147 1.389 . S
C4147 C4146 1.389 . S
C4147 C4148 1.387 . S
C4148 H4133 0.930 . S
C4148 C4143 1.390 . S
C4148 C4147 1.387 . S
H4149 C4161 0.930 . S
H4150 C4163 0.930 . S
H4151 C4164 0.930 . S
H4152 C4168 0.959 . S
H4153 C4168 0.959 . S
H4154 C4168 0.961 . S
H4155 C4169 0.960 . S
H4156 C4169 0.961 . S
H4157 C4169 0.959 . S
H4158 C4172 0.929 . S
H4159 C4173 0.931 . S
H4160 C4175 0.930 . S
C4161 H4149 0.930 . S
C4161 C4162 1.399 . S
C4161 C4166 1.399 . S
C4162 C4161 1.399 . S
C4162 C4163 1.376 . S
C4163 H4150 0.930 . S
C4163 C4162 1.376 . S
C4163 C4164 1.388 . S
C4164 H4151 0.930 . S
C4164 C4163 1.388 . S
C4164 C4165 1.390 . S
C4165 C4164 1.390 . S
C4165 C4166 1.394 . S
C4165 C4171 1.465 . S
C4166 C4161 1.399 . S
C4166 C4165 1.394 . S
C4166 C4167 1.516 . S
C4167 C4166 1.516 . S
C4167 C4168 1.502 . S
C4167 C4169 1.561 . S
C4167 C4170 1.526 . S
C4168 H4152 0.959 . S
C4168 H4153 0.959 . S
C4168 H4154 0.961 . S
C4168 C4167 1.502 . S
C4169 H4155 0.960 . S
C4169 H4156 0.961 . S
C4169 H4157 0.959 . S
C4169 C4167 1.561 . S
C4170 C4167 1.526 . S
C4170 C4171 1.396 . S
C4170 C4175 1.390 . S
C4171 C4165 1.465 . S
C4171 C4170 1.396 . S
C4171 C4172 1.399 . S
C4172 H4158 0.929 . S
C4172 C4171 1.399 . S
C4172 C4173 1.385 . S
C4173 H4159 0.931 . S
C4173 C4172 1.385 . S
C4173 C4174 1.389 . S
C4174 C4173 1.389 . S
C4174 C4175 1.387 . S
C4175 H4160 0.930 . S
C4175 C4170 1.390 . S
C4175 C4174 1.387 . S
H4176 C4188 0.930 . S
H4177 C4190 0.930 . S
H4178 C4191 0.930 . S
H4179 C4195 0.959 . S
H4180 C4195 0.959 . S
H4181 C4195 0.961 . S
H4182 C4196 0.960 . S
H4183 C4196 0.961 . S
H4184 C4196 0.959 . S
H4185 C4199 0.929 . S
H4186 C4200 0.931 . S
H4187 C4202 0.930 . S
C4188 H4176 0.930 . S
C4188 C4189 1.399 . S
C4188 C4193 1.399 . S
C4189 C4188 1.399 . S
C4189 C4190 1.376 . S
C4190 H4177 0.930 . S
C4190 C4189 1.376 . S
C4190 C4191 1.388 . S
C4191 H4178 0.930 . S
C4191 C4190 1.388 . S
C4191 C4192 1.390 . S
C4192 C4191 1.390 . S
C4192 C4193 1.394 . S
C4192 C4198 1.465 1_556 S
C4193 C4188 1.399 . S
C4193 C4192 1.394 . S
C4193 C4194 1.516 . S
C4194 C4193 1.516 . S
C4194 C4195 1.502 . S
C4194 C4196 1.561 . S
C4194 C4197 1.526 1_556 S
C4195 H4179 0.959 . S
C4195 H4180 0.959 . S
C4195 H4181 0.961 . S
C4195 C4194 1.502 . S
C4196 H4182 0.960 . S
C4196 H4183 0.961 . S
C4196 H4184 0.959 . S
C4196 C4194 1.561 . S
C4197 C4194 1.526 1_554 S
C4197 C4198 1.396 . S
C4197 C4202 1.390 . S
C4198 C4192 1.465 1_554 S
C4198 C4197 1.396 . S
C4198 C4199 1.399 . S
C4199 H4185 0.929 . S
C4199 C4198 1.399 . S
C4199 C4200 1.385 . S
C4200 H4186 0.931 . S
C4200 C4199 1.385 . S
C4200 C4201 1.389 . S
C4201 C4200 1.389 . S
C4201 C4202 1.387 . S
C4202 H4187 0.930 . S
C4202 C4197 1.390 . S
C4202 C4201 1.387 . S
H4203 C4215 0.930 . S
H4204 C4217 0.930 . S
H4205 C4218 0.930 . S
H4206 C4222 0.959 . S
H4207 C4222 0.959 . S
H4208 C4222 0.961 . S
H4209 C4223 0.960 . S
H4210 C4223 0.968 . S
H4211 C4223 0.982 . S
H4212 C4226 0.929 . S
H4213 C4227 0.931 . S
H4214 C4229 0.930 . S
C4215 H4203 0.930 . S
C4215 C4216 1.399 . S
C4215 C4220 1.399 . S
C4216 C4215 1.399 . S
C4216 C4217 1.376 . S
C4217 H4204 0.930 . S
C4217 C4216 1.376 . S
C4217 C4218 1.388 . S
C4218 H4205 0.930 . S
C4218 C4217 1.388 . S
C4218 C4219 1.390 . S
C4219 C4218 1.390 . S
C4219 C4220 1.394 . S
C4219 C4225 1.465 1_554 S
C4220 C4215 1.399 . S
C4220 C4219 1.394 . S
C4220 C4221 1.516 . S
C4221 C4220 1.516 . S
C4221 C4222 1.502 . S
C4221 C4223 1.561 . S
C4221 C4224 1.526 1_554 S
C4222 H4206 0.959 . S
C4222 H4207 0.959 . S
C4222 H4208 0.961 . S
C4222 C4221 1.502 . S
C4223 H4209 0.960 . S
C4223 H4210 0.968 . S
C4223 H4211 0.982 . S
C4223 C4221 1.561 . S
C4224 C4221 1.526 1_556 S
C4224 C4225 1.396 . S
C4224 C4229 1.390 . S
C4225 C4219 1.465 1_556 S
C4225 C4224 1.396 . S
C4225 C4226 1.399 . S
C4226 H4212 0.929 . S
C4226 C4225 1.399 . S
C4226 C4227 1.385 . S
C4227 H4213 0.931 . S
C4227 C4226 1.385 . S
C4227 C4228 1.389 . S
C4228 C4227 1.389 . S
C4228 C4229 1.387 . S
C4229 H4214 0.930 . S
C4229 C4224 1.390 . S
C4229 C4228 1.387 . S
H4230 C4242 0.930 . S
H4231 C4244 0.930 . S
H4232 C4245 0.930 . S
H4233 C4249 0.959 . S
H4234 C4249 0.959 . S
H4235 C4249 0.961 . S
H4236 C4250 0.960 . S
H4237 C4250 0.961 . S
H4238 C4250 0.959 . S
H4239 C4253 0.929 . S
H4240 C4254 0.931 . S
H4241 C4256 0.930 . S
C4242 H4230 0.930 . S
C4242 C4243 1.399 . S
C4242 C4247 1.399 . S
C4243 C4242 1.399 . S
C4243 C4244 1.376 . S
C4244 H4231 0.930 . S
C4244 C4243 1.376 . S
C4244 C4245 1.388 . S
C4245 H4232 0.930 . S
C4245 C4244 1.388 . S
C4245 C4246 1.390 . S
C4246 C4245 1.390 . S
C4246 C4247 1.394 . S
C4246 C4252 1.465 . S
C4247 C4242 1.399 . S
C4247 C4246 1.394 . S
C4247 C4248 1.516 . S
C4248 C4247 1.516 . S
C4248 C4249 1.502 . S
C4248 C4250 1.561 . S
C4248 C4251 1.526 . S
C4249 H4233 0.959 . S
C4249 H4234 0.959 . S
C4249 H4235 0.961 . S
C4249 C4248 1.502 . S
C4250 H4236 0.960 . S
C4250 H4237 0.961 . S
C4250 H4238 0.959 . S
C4250 C4248 1.561 . S
C4251 C4248 1.526 . S
C4251 C4252 1.396 . S
C4251 C4256 1.390 . S
C4252 C4246 1.465 . S
C4252 C4251 1.396 . S
C4252 C4253 1.399 . S
C4253 H4239 0.929 . S
C4253 C4252 1.399 . S
C4253 C4254 1.385 . S
C4254 H4240 0.931 . S
C4254 C4253 1.385 . S
C4254 C4255 1.389 . S
C4255 C4254 1.389 . S
C4255 C4256 1.387 . S
C4256 H4241 0.930 . S
C4256 C4251 1.390 . S
C4256 C4255 1.387 . S
H4257 C4269 0.930 . S
H4258 C4271 0.930 . S
H4259 C4272 0.930 . S
H4260 C4276 0.959 . S
H4261 C4276 0.959 . S
H4262 C4276 0.961 . S
H4263 C4277 0.960 . S
H4264 C4277 0.961 . S
H4265 C4277 0.959 . S
H4266 C4280 0.929 . S
H4267 C4281 0.931 . S
H4268 C4283 0.930 . S
C4269 H4257 0.930 . S
C4269 C4270 1.399 . S
C4269 C4274 1.399 . S
C4270 C4269 1.399 . S
C4270 C4271 1.376 . S
C4271 H4258 0.930 . S
C4271 C4270 1.376 . S
C4271 C4272 1.388 . S
C4272 H4259 0.930 . S
C4272 C4271 1.388 . S
C4272 C4273 1.390 . S
C4273 C4272 1.390 . S
C4273 C4274 1.394 . S
C4273 C4279 1.465 . S
C4274 C4269 1.399 . S
C4274 C4273 1.394 . S
C4274 C4275 1.516 . S
C4275 C4274 1.516 . S
C4275 C4276 1.502 . S
C4275 C4277 1.561 . S
C4275 C4278 1.526 . S
C4276 H4260 0.959 . S
C4276 H4261 0.959 . S
C4276 H4262 0.961 . S
C4276 C4275 1.502 . S
C4277 H4263 0.960 . S
C4277 H4264 0.961 . S
C4277 H4265 0.959 . S
C4277 C4275 1.561 . S
C4278 C4275 1.526 . S
C4278 C4279 1.396 . S
C4278 C4283 1.390 . S
C4279 C4273 1.465 . S
C4279 C4278 1.396 . S
C4279 C4280 1.399 . S
C4280 H4266 0.929 . S
C4280 C4279 1.399 . S
C4280 C4281 1.385 . S
C4281 H4267 0.931 . S
C4281 C4280 1.385 . S
C4281 C4282 1.389 . S
C4282 C4281 1.389 . S
C4282 C4283 1.387 . S
C4283 H4268 0.930 . S
C4283 C4278 1.390 . S
C4283 C4282 1.387 . S
H4284 C4296 0.930 . S
H4285 C4298 0.930 . S
H4286 C4299 0.930 . S
H4287 C4303 0.959 . S
H4288 C4303 0.959 . S
H4289 C4303 0.955 1_655 S
H4290 C4304 0.960 . S
H4291 C4304 0.961 1_455 S
H4292 C4304 0.959 . S
H4293 C4307 0.929 . S
H4294 C4308 0.931 . S
H4295 C4310 0.930 . S
C4296 H4284 0.930 . S
C4296 C4297 1.399 . S
C4296 C4301 1.399 . S
C4297 C4296 1.399 . S
C4297 C4298 1.376 . S
C4298 H4285 0.930 . S
C4298 C4297 1.376 . S
C4298 C4299 1.388 . S
C4299 H4286 0.930 . S
C4299 C4298 1.388 . S
C4299 C4300 1.390 . S
C4300 C4299 1.390 . S
C4300 C4301 1.394 . S
C4300 C4306 1.465 1_655 S
C4301 C4296 1.399 . S
C4301 C4300 1.394 . S
C4301 C4302 1.516 1_655 S
C4302 C4301 1.516 1_455 S
C4302 C4303 1.502 . S
C4302 C4304 1.561 1_455 S
C4302 C4305 1.526 . S
C4303 H4287 0.959 . S
C4303 H4288 0.959 . S
C4303 H4289 0.955 1_455 S
C4303 C4302 1.502 . S
C4304 H4290 0.960 . S
C4304 H4291 0.961 1_655 S
C4304 H4292 0.959 . S
C4304 C4302 1.561 1_655 S
C4305 C4302 1.526 . S
C4305 C4306 1.396 . S
C4305 C4310 1.390 . S
C4306 C4300 1.465 1_455 S
C4306 C4305 1.396 . S
C4306 C4307 1.399 . S
C4307 H4293 0.929 . S
C4307 C4306 1.399 . S
C4307 C4308 1.385 . S
C4308 H4294 0.931 . S
C4308 C4307 1.385 . S
C4308 C4309 1.389 . S
C4309 C4308 1.389 . S
C4309 C4310 1.387 . S
C4310 H4295 0.930 . S
C4310 C4305 1.390 . S
C4310 C4309 1.387 . S
H4311 C4323 0.930 . S
H4312 C4325 0.930 . S
H4313 C4326 0.930 . S
H4314 C4330 0.959 . S
H4315 C4330 0.959 . S
H4316 C4330 0.961 . S
H4317 C4331 0.960 . S
H4318 C4331 0.961 1_455 S
H4319 C4331 0.959 . S
H4320 C4334 0.929 . S
H4321 C4335 0.931 . S
H4322 C4337 0.930 . S
C4323 H4311 0.930 . S
C4323 C4324 1.399 . S
C4323 C4328 1.399 . S
C4324 C4323 1.399 . S
C4324 C4325 1.376 . S
C4325 H4312 0.930 . S
C4325 C4324 1.376 . S
C4325 C4326 1.388 . S
C4326 H4313 0.930 . S
C4326 C4325 1.388 . S
C4326 C4327 1.390 . S
C4327 C4326 1.390 . S
C4327 C4328 1.394 . S
C4327 C4333 1.465 1_655 S
C4328 C4323 1.399 . S
C4328 C4327 1.394 . S
C4328 C4329 1.516 1_655 S
C4329 C4328 1.516 1_455 S
C4329 C4330 1.502 . S
C4329 C4331 1.561 1_455 S
C4329 C4332 1.526 . S
C4330 H4314 0.959 . S
C4330 H4315 0.959 . S
C4330 H4316 0.961 . S
C4330 C4329 1.502 . S
C4331 H4317 0.960 . S
C4331 H4318 0.961 1_655 S
C4331 H4319 0.959 . S
C4331 C4329 1.561 1_655 S
C4332 C4329 1.526 . S
C4332 C4333 1.396 . S
C4332 C4337 1.390 . S
C4333 C4327 1.465 1_455 S
C4333 C4332 1.396 . S
C4333 C4334 1.399 . S
C4334 H4320 0.929 . S
C4334 C4333 1.399 . S
C4334 C4335 1.385 . S
C4335 H4321 0.931 . S
C4335 C4334 1.385 . S
C4335 C4336 1.389 . S
C4336 C4335 1.389 . S
C4336 C4337 1.387 . S
C4337 H4322 0.930 . S
C4337 C4332 1.390 . S
C4337 C4336 1.387 . S
H4338 C4350 0.930 . S
H4339 C4352 0.930 . S
H4340 C4353 0.930 . S
H4341 C4357 0.959 . S
H4342 C4357 0.959 . S
H4343 C4357 0.961 . S
H4344 C4358 0.960 . S
H4345 C4358 0.961 1_455 S
H4346 C4358 0.959 . S
H4347 C4361 0.929 . S
H4348 C4362 0.931 . S
H4349 C4364 0.930 . S
C4350 H4338 0.930 . S
C4350 C4351 1.399 . S
C4350 C4355 1.399 . S
C4351 C4350 1.399 . S
C4351 C4352 1.376 . S
C4352 H4339 0.930 . S
C4352 C4351 1.376 . S
C4352 C4353 1.388 . S
C4353 H4340 0.930 . S
C4353 C4352 1.388 . S
C4353 C4354 1.390 . S
C4354 C4353 1.390 . S
C4354 C4355 1.394 . S
C4354 C4360 1.465 1_655 S
C4355 C4350 1.399 . S
C4355 C4354 1.394 . S
C4355 C4356 1.516 1_655 S
C4356 C4355 1.516 1_455 S
C4356 C4357 1.502 . S
C4356 C4358 1.561 1_455 S
C4356 C4359 1.526 . S
C4357 H4341 0.959 . S
C4357 H4342 0.959 . S
C4357 H4343 0.961 . S
C4357 C4356 1.502 . S
C4358 H4344 0.960 . S
C4358 H4345 0.961 1_655 S
C4358 H4346 0.959 . S
C4358 C4356 1.561 1_655 S
C4359 C4356 1.526 . S
C4359 C4360 1.396 . S
C4359 C4364 1.390 . S
C4360 C4354 1.465 1_455 S
C4360 C4359 1.396 . S
C4360 C4361 1.399 . S
C4361 H4347 0.929 . S
C4361 C4360 1.399 . S
C4361 C4362 1.385 . S
C4362 H4348 0.931 . S
C4362 C4361 1.385 . S
C4362 C4363 1.389 . S
C4363 C4362 1.389 . S
C4363 C4364 1.387 . S
C4364 H4349 0.930 . S
C4364 C4359 1.390 . S
C4364 C4363 1.387 . S
H4365 C4377 0.930 . S
H4366 C4379 0.930 . S
H4367 C4380 0.930 . S
H4368 C4384 0.959 . S
H4369 C4384 0.959 . S
H4370 C4384 0.961 1_455 S
H4371 C4385 0.960 . S
H4372 C4385 0.961 . S
H4373 C4385 0.959 . S
H4374 C4388 0.929 . S
H4375 C4389 0.931 . S
H4376 C4391 0.930 . S
C4377 H4365 0.930 . S
C4377 C4378 1.399 . S
C4377 C4382 1.399 . S
C4378 C4377 1.399 . S
C4378 C4379 1.376 . S
C4379 H4366 0.930 . S
C4379 C4378 1.376 . S
C4379 C4380 1.388 . S
C4380 H4367 0.930 . S
C4380 C4379 1.388 . S
C4380 C4381 1.390 . S
C4381 C4380 1.390 . S
C4381 C4382 1.394 . S
C4381 C4387 1.465 1_455 S
C4382 C4377 1.399 . S
C4382 C4381 1.394 . S
C4382 C4383 1.516 1_455 S
C4383 C4382 1.516 1_655 S
C4383 C4384 1.502 . S
C4383 C4385 1.561 . S
C4383 C4386 1.526 . S
C4384 H4368 0.959 . S
C4384 H4369 0.959 . S
C4384 H4370 0.961 1_655 S
C4384 C4383 1.502 . S
C4385 H4371 0.960 . S
C4385 H4372 0.961 . S
C4385 H4373 0.959 . S
C4385 C4383 1.561 . S
C4386 C4383 1.526 . S
C4386 C4387 1.396 . S
C4386 C4391 1.390 . S
C4387 C4381 1.465 1_655 S
C4387 C4386 1.396 . S
C4387 C4388 1.399 . S
C4388 H4374 0.929 . S
C4388 C4387 1.399 . S
C4388 C4389 1.385 . S
C4389 H4375 0.931 . S
C4389 C4388 1.385 . S
C4389 C4390 1.389 . S
C4390 C4389 1.389 . S
C4390 C4391 1.387 . S
C4391 H4376 0.930 . S
C4391 C4386 1.390 . S
C4391 C4390 1.387 . S
H4392 C4404 0.930 . S
H4393 C4406 0.930 . S
H4394 C4407 0.930 . S
H4395 C4411 0.959 1_565 S
H4396 C4411 0.959 1_565 S
H4397 C4411 0.961 . S
H4398 C4412 0.960 . S
H4399 C4412 0.961 . S
H4400 C4412 0.959 . S
H4401 C4415 0.929 . S
H4402 C4416 0.931 . S
H4403 C4418 0.930 . S
C4404 H4392 0.930 . S
C4404 C4405 1.399 . S
C4404 C4409 1.399 . S
C4405 C4404 1.399 . S
C4405 C4406 1.376 . S
C4406 H4393 0.930 . S
C4406 C4405 1.376 . S
C4406 C4407 1.388 . S
C4407 H4394 0.930 . S
C4407 C4406 1.388 . S
C4407 C4408 1.390 . S
C4408 C4407 1.390 . S
C4408 C4409 1.394 . S
C4408 C4414 1.465 1_545 S
C4409 C4404 1.399 . S
C4409 C4408 1.394 . S
C4409 C4410 1.516 . S
C4410 C4409 1.516 . S
C4410 C4411 1.502 . S
C4410 C4412 1.561 . S
C4410 C4413 1.526 1_545 S
C4411 H4395 0.959 1_545 S
C4411 H4396 0.959 1_545 S
C4411 H4397 0.961 . S
C4411 C4410 1.502 . S
C4412 H4398 0.960 . S
C4412 H4399 0.961 . S
C4412 H4400 0.959 . S
C4412 C4410 1.561 . S
C4413 C4410 1.526 1_565 S
C4413 C4414 1.396 . S
C4413 C4418 1.390 . S
C4414 C4408 1.465 1_565 S
C4414 C4413 1.396 . S
C4414 C4415 1.399 . S
C4415 H4401 0.929 . S
C4415 C4414 1.399 . S
C4415 C4416 1.385 . S
C4416 H4402 0.931 . S
C4416 C4415 1.385 . S
C4416 C4417 1.389 . S
C4417 C4416 1.389 . S
C4417 C4418 1.387 . S
C4418 H4403 0.930 . S
C4418 C4413 1.390 . S
C4418 C4417 1.387 . S
H4419 C4431 0.930 . S
H4420 C4433 0.930 . S
H4421 C4434 0.930 . S
H4422 C4438 0.959 . S
H4423 C4438 0.959 . S
H4424 C4438 0.961 . S
H4425 C4439 0.960 1_545 S
H4426 C4439 0.961 . S
H4427 C4439 0.978 . S
H4428 C4442 0.929 . S
H4429 C4443 0.931 . S
H4430 C4445 0.930 . S
C4431 H4419 0.930 . S
C4431 C4432 1.399 . S
C4431 C4436 1.399 . S
C4432 C4431 1.399 . S
C4432 C4433 1.376 . S
C4433 H4420 0.930 . S
C4433 C4432 1.376 . S
C4433 C4434 1.388 . S
C4434 H4421 0.930 . S
C4434 C4433 1.388 . S
C4434 C4435 1.390 . S
C4435 C4434 1.390 . S
C4435 C4436 1.394 . S
C4435 C4441 1.465 1_545 S
C4436 C4431 1.399 . S
C4436 C4435 1.394 . S
C4436 C4437 1.516 1_545 S
C4437 C4436 1.516 1_565 S
C4437 C4438 1.502 . S
C4437 C4439 1.561 . S
C4437 C4440 1.526 . S
C4438 H4422 0.959 . S
C4438 H4423 0.959 . S
C4438 H4424 0.961 . S
C4438 C4437 1.502 . S
C4439 H4425 0.960 1_565 S
C4439 H4426 0.961 . S
C4439 H4427 0.978 . S
C4439 C4437 1.561 . S
C4440 C4437 1.526 . S
C4440 C4441 1.396 . S
C4440 C4445 1.390 . S
C4441 C4435 1.465 1_565 S
C4441 C4440 1.396 . S
C4441 C4442 1.399 . S
C4442 H4428 0.929 . S
C4442 C4441 1.399 . S
C4442 C4443 1.385 . S
C4443 H4429 0.931 . S
C4443 C4442 1.385 . S
C4443 C4444 1.389 . S
C4444 C4443 1.389 . S
C4444 C4445 1.387 . S
C4445 H4430 0.930 . S
C4445 C4440 1.390 . S
C4445 C4444 1.387 . S
H4446 C4458 0.930 . S
H4447 C4460 0.930 . S
H4448 C4461 0.930 . S
H4449 C4465 0.959 . S
H4450 C4465 0.959 . S
H4451 C4465 0.961 . S
H4452 C4466 0.960 . S
H4453 C4466 0.961 . S
H4454 C4466 0.959 . S
H4455 C4469 0.929 . S
H4456 C4470 0.931 . S
H4457 C4472 0.930 . S
C4458 H4446 0.930 . S
C4458 C4459 1.399 . S
C4458 C4463 1.399 . S
C4459 C4458 1.399 . S
C4459 C4460 1.376 . S
C4460 H4447 0.930 . S
C4460 C4459 1.376 . S
C4460 C4461 1.388 . S
C4461 H4448 0.930 . S
C4461 C4460 1.388 . S
C4461 C4462 1.390 . S
C4462 C4461 1.390 . S
C4462 C4463 1.394 . S
C4462 C4468 1.465 . S
C4463 C4458 1.399 . S
C4463 C4462 1.394 . S
C4463 C4464 1.516 . S
C4464 C4463 1.516 . S
C4464 C4465 1.502 . S
C4464 C4466 1.561 . S
C4464 C4467 1.526 . S
C4465 H4449 0.959 . S
C4465 H4450 0.959 . S
C4465 H4451 0.961 . S
C4465 C4464 1.502 . S
C4466 H4452 0.960 . S
C4466 H4453 0.961 . S
C4466 H4454 0.959 . S
C4466 C4464 1.561 . S
C4467 C4464 1.526 . S
C4467 C4468 1.396 . S
C4467 C4472 1.390 . S
C4468 C4462 1.465 . S
C4468 C4467 1.396 . S
C4468 C4469 1.399 . S
C4469 H4455 0.929 . S
C4469 C4468 1.399 . S
C4469 C4470 1.385 . S
C4470 H4456 0.931 . S
C4470 C4469 1.385 . S
C4470 C4471 1.389 . S
C4471 C4470 1.389 . S
C4471 C4472 1.387 . S
C4472 H4457 0.930 . S
C4472 C4467 1.390 . S
C4472 C4471 1.387 . S
H4473 C4485 0.930 . S
H4474 C4487 0.930 . S
H4475 C4488 0.930 . S
H4476 C4492 0.959 . S
H4477 C4492 0.959 . S
H4478 C4492 0.961 . S
H4479 C4493 0.960 . S
H4480 C4493 0.961 . S
H4481 C4493 0.959 . S
H4482 C4496 0.929 . S
H4483 C4497 0.931 . S
H4484 C4499 0.930 . S
C4485 H4473 0.930 . S
C4485 C4486 1.399 . S
C4485 C4490 1.399 . S
C4486 C4485 1.399 . S
C4486 C4487 1.376 . S
C4487 H4474 0.930 . S
C4487 C4486 1.376 . S
C4487 C4488 1.388 . S
C4488 H4475 0.930 . S
C4488 C4487 1.388 . S
C4488 C4489 1.390 . S
C4489 C4488 1.390 . S
C4489 C4490 1.394 . S
C4489 C4495 1.465 1_545 S
C4490 C4485 1.399 . S
C4490 C4489 1.394 . S
C4490 C4491 1.516 . S
C4491 C4490 1.516 . S
C4491 C4492 1.502 . S
C4491 C4493 1.561 . S
C4491 C4494 1.526 1_545 S
C4492 H4476 0.959 . S
C4492 H4477 0.959 . S
C4492 H4478 0.961 . S
C4492 C4491 1.502 . S
C4493 H4479 0.960 . S
C4493 H4480 0.961 . S
C4493 H4481 0.959 . S
C4493 C4491 1.561 . S
C4494 C4491 1.526 1_565 S
C4494 C4495 1.396 . S
C4494 C4499 1.390 . S
C4495 C4489 1.465 1_565 S
C4495 C4494 1.396 . S
C4495 C4496 1.399 . S
C4496 H4482 0.929 . S
C4496 C4495 1.399 . S
C4496 C4497 1.385 . S
C4497 H4483 0.931 . S
C4497 C4496 1.385 . S
C4497 C4498 1.389 . S
C4498 C4497 1.389 . S
C4498 C4499 1.387 . S
C4499 H4484 0.930 . S
C4499 C4494 1.390 . S
C4499 C4498 1.387 . S
H4500 C4512 0.930 . S
H4501 C4514 0.930 . S
H4502 C4515 0.930 . S
H4503 C4519 0.959 . S
H4504 C4519 0.959 1_554 S
H4505 C4519 0.961 . S
H4506 C4520 0.974 . S
H4507 C4520 0.961 . S
H4508 C4520 0.959 . S
H4509 C4523 0.929 . S
H4510 C4524 0.931 . S
H4511 C4526 0.930 . S
C4512 H4500 0.930 . S
C4512 C4513 1.399 . S
C4512 C4517 1.399 . S
C4513 C4512 1.399 . S
C4513 C4514 1.376 . S
C4514 H4501 0.930 . S
C4514 C4513 1.376 . S
C4514 C4515 1.388 . S
C4515 H4502 0.930 . S
C4515 C4514 1.388 . S
C4515 C4516 1.390 . S
C4516 C4515 1.390 . S
C4516 C4517 1.394 . S
C4516 C4522 1.465 1_556 S
C4517 C4512 1.399 . S
C4517 C4516 1.394 . S
C4517 C4518 1.516 1_556 S
C4518 C4517 1.516 1_554 S
C4518 C4519 1.502 1_554 S
C4518 C4520 1.561 . S
C4518 C4521 1.526 . S
C4519 H4503 0.959 . S
C4519 H4504 0.959 1_556 S
C4519 H4505 0.961 . S
C4519 C4518 1.502 1_556 S
C4520 H4506 0.974 . S
C4520 H4507 0.961 . S
C4520 H4508 0.959 . S
C4520 C4518 1.561 . S
C4521 C4518 1.526 . S
C4521 C4522 1.396 . S
C4521 C4526 1.390 . S
C4522 C4516 1.465 1_554 S
C4522 C4521 1.396 . S
C4522 C4523 1.399 . S
C4523 H4509 0.929 . S
C4523 C4522 1.399 . S
C4523 C4524 1.385 . S
C4524 H4510 0.931 . S
C4524 C4523 1.385 . S
C4524 C4525 1.389 . S
C4525 C4524 1.389 . S
C4525 C4526 1.387 . S
C4526 H4511 0.930 . S
C4526 C4521 1.390 . S
C4526 C4525 1.387 . S
H4527 C4539 0.930 . S
H4528 C4541 0.930 . S
H4529 C4542 0.930 . S
H4530 C4546 0.959 . S
H4531 C4546 0.959 . S
H4532 C4546 0.961 . S
H4533 C4547 0.960 . S
H4534 C4547 0.961 . S
H4535 C4547 0.959 . S
H4536 C4550 0.929 . S
H4537 C4551 0.931 . S
H4538 C4553 0.930 . S
C4539 H4527 0.930 . S
C4539 C4540 1.399 . S
C4539 C4544 1.399 . S
C4540 C4539 1.399 . S
C4540 C4541 1.376 . S
C4541 H4528 0.930 . S
C4541 C4540 1.376 . S
C4541 C4542 1.388 . S
C4542 H4529 0.930 . S
C4542 C4541 1.388 . S
C4542 C4543 1.390 . S
C4543 C4542 1.390 . S
C4543 C4544 1.394 . S
C4543 C4549 1.465 1_554 S
C4544 C4539 1.399 . S
C4544 C4543 1.394 . S
C4544 C4545 1.516 . S
C4545 C4544 1.516 . S
C4545 C4546 1.502 . S
C4545 C4547 1.561 . S
C4545 C4548 1.526 1_554 S
C4546 H4530 0.959 . S
C4546 H4531 0.959 . S
C4546 H4532 0.961 . S
C4546 C4545 1.502 . S
C4547 H4533 0.960 . S
C4547 H4534 0.961 . S
C4547 H4535 0.959 . S
C4547 C4545 1.561 . S
C4548 C4545 1.526 1_556 S
C4548 C4549 1.396 . S
C4548 C4553 1.390 . S
C4549 C4543 1.465 1_556 S
C4549 C4548 1.396 . S
C4549 C4550 1.399 . S
C4550 H4536 0.929 . S
C4550 C4549 1.399 . S
C4550 C4551 1.385 . S
C4551 H4537 0.931 . S
C4551 C4550 1.385 . S
C4551 C4552 1.389 . S
C4552 C4551 1.389 . S
C4552 C4553 1.387 . S
C4553 H4538 0.930 . S
C4553 C4548 1.390 . S
C4553 C4552 1.387 . S
H4554 C4566 0.930 . S
H4555 C4568 0.930 . S
H4556 C4569 0.930 . S
H4557 C4573 0.959 . S
H4558 C4573 0.959 . S
H4559 C4573 0.961 . S
H4560 C4574 0.960 . S
H4561 C4574 0.961 . S
H4562 C4574 0.959 . S
H4563 C4577 0.929 . S
H4564 C4578 0.931 . S
H4565 C4580 0.930 . S
C4566 H4554 0.930 . S
C4566 C4567 1.399 . S
C4566 C4571 1.399 . S
C4567 C4566 1.399 . S
C4567 C4568 1.376 . S
C4568 H4555 0.930 . S
C4568 C4567 1.376 . S
C4568 C4569 1.388 . S
C4569 H4556 0.930 . S
C4569 C4568 1.388 . S
C4569 C4570 1.390 . S
C4570 C4569 1.390 . S
C4570 C4571 1.394 . S
C4570 C4576 1.465 . S
C4571 C4566 1.399 . S
C4571 C4570 1.394 . S
C4571 C4572 1.516 . S
C4572 C4571 1.516 . S
C4572 C4573 1.502 . S
C4572 C4574 1.561 . S
C4572 C4575 1.526 . S
C4573 H4557 0.959 . S
C4573 H4558 0.959 . S
C4573 H4559 0.961 . S
C4573 C4572 1.502 . S
C4574 H4560 0.960 . S
C4574 H4561 0.961 . S
C4574 H4562 0.959 . S
C4574 C4572 1.561 . S
C4575 C4572 1.526 . S
C4575 C4576 1.396 . S
C4575 C4580 1.390 . S
C4576 C4570 1.465 . S
C4576 C4575 1.396 . S
C4576 C4577 1.399 . S
C4577 H4563 0.929 . S
C4577 C4576 1.399 . S
C4577 C4578 1.385 . S
C4578 H4564 0.931 . S
C4578 C4577 1.385 . S
C4578 C4579 1.389 . S
C4579 C4578 1.389 . S
C4579 C4580 1.387 . S
C4580 H4565 0.930 . S
C4580 C4575 1.390 . S
C4580 C4579 1.387 . S
H4581 C4593 0.930 . S
H4582 C4595 0.930 . S
H4583 C4596 0.930 . S
H4584 C4600 0.959 . S
H4585 C4600 0.959 . S
H4586 C4600 0.961 . S
H4587 C4601 0.960 . S
H4588 C4601 0.961 . S
H4589 C4601 0.959 . S
H4590 C4604 0.929 . S
H4591 C4605 0.931 . S
H4592 C4607 0.930 . S
C4593 H4581 0.930 . S
C4593 C4594 1.399 . S
C4593 C4598 1.399 . S
C4594 C4593 1.399 . S
C4594 C4595 1.376 . S
C4595 H4582 0.930 . S
C4595 C4594 1.376 . S
C4595 C4596 1.388 . S
C4596 H4583 0.930 . S
C4596 C4595 1.388 . S
C4596 C4597 1.390 . S
C4597 C4596 1.390 . S
C4597 C4598 1.394 . S
C4597 C4603 1.465 . S
C4598 C4593 1.399 . S
C4598 C4597 1.394 . S
C4598 C4599 1.516 . S
C4599 C4598 1.516 . S
C4599 C4600 1.502 . S
C4599 C4601 1.561 . S
C4599 C4602 1.526 . S
C4600 H4584 0.959 . S
C4600 H4585 0.959 . S
C4600 H4586 0.961 . S
C4600 C4599 1.502 . S
C4601 H4587 0.960 . S
C4601 H4588 0.961 . S
C4601 H4589 0.959 . S
C4601 C4599 1.561 . S
C4602 C4599 1.526 . S
C4602 C4603 1.396 . S
C4602 C4607 1.390 . S
C4603 C4597 1.465 . S
C4603 C4602 1.396 . S
C4603 C4604 1.399 . S
C4604 H4590 0.929 . S
C4604 C4603 1.399 . S
C4604 C4605 1.385 . S
C4605 H4591 0.931 . S
C4605 C4604 1.385 . S
C4605 C4606 1.389 . S
C4606 C4605 1.389 . S
C4606 C4607 1.387 . S
C4607 H4592 0.930 . S
C4607 C4602 1.390 . S
C4607 C4606 1.387 . S
H4608 C4620 0.930 . S
H4609 C4622 0.930 . S
H4610 C4623 0.930 . S
H4611 C4627 0.959 . S
H4612 C4627 0.959 . S
H4613 C4627 0.961 . S
H4614 C4628 0.987 . S
H4615 C4628 0.930 1_655 S
H4616 C4628 0.971 . S
H4617 C4631 0.929 . S
H4618 C4632 0.931 . S
H4619 C4634 0.930 . S
C4620 H4608 0.930 . S
C4620 C4621 1.399 . S
C4620 C4625 1.399 . S
C4621 C4620 1.399 . S
C4621 C4622 1.376 . S
C4622 H4609 0.930 . S
C4622 C4621 1.376 . S
C4622 C4623 1.388 . S
C4623 H4610 0.930 . S
C4623 C4622 1.388 . S
C4623 C4624 1.390 . S
C4624 C4623 1.390 . S
C4624 C4625 1.394 . S
C4624 C4630 1.465 1_455 S
C4625 C4620 1.399 . S
C4625 C4624 1.394 . S
C4625 C4626 1.516 1_455 S
C4626 C4625 1.516 1_655 S
C4626 C4627 1.502 . S
C4626 C4628 1.555 1_655 S
C4626 C4629 1.526 . S
C4627 H4611 0.959 . S
C4627 H4612 0.959 . S
C4627 H4613 0.961 . S
C4627 C4626 1.502 . S
C4628 H4614 0.987 . S
C4628 H4615 0.930 1_455 S
C4628 H4616 0.971 . S
C4628 C4626 1.555 1_455 S
C4629 C4626 1.526 . S
C4629 C4630 1.396 . S
C4629 C4634 1.390 . S
C4630 C4624 1.465 1_655 S
C4630 C4629 1.396 . S
C4630 C4631 1.399 . S
C4631 H4617 0.929 . S
C4631 C4630 1.399 . S
C4631 C4632 1.385 . S
C4632 H4618 0.931 . S
C4632 C4631 1.385 . S
C4632 C4633 1.389 . S
C4633 C4632 1.389 . S
C4633 C4634 1.387 . S
C4634 H4619 0.930 . S
C4634 C4629 1.390 . S
C4634 C4633 1.387 . S
H4635 C4647 0.930 . S
H4636 C4649 0.930 . S
H4637 C4650 0.930 . S
H4638 C4654 0.973 . S
H4639 C4654 0.975 . S
H4640 C4654 0.938 1_455 S
H4641 C4655 0.960 . S
H4642 C4655 0.961 . S
H4643 C4655 0.959 . S
H4644 C4658 0.929 . S
H4645 C4659 0.931 . S
H4646 C4661 0.930 . S
C4647 H4635 0.930 . S
C4647 C4648 1.399 . S
C4647 C4652 1.399 . S
C4648 C4647 1.399 . S
C4648 C4649 1.376 . S
C4649 H4636 0.930 . S
C4649 C4648 1.376 . S
C4649 C4650 1.388 . S
C4650 H4637 0.930 . S
C4650 C4649 1.388 . S
C4650 C4651 1.390 . S
C4651 C4650 1.390 . S
C4651 C4652 1.394 . S
C4651 C4657 1.465 1_455 S
C4652 C4647 1.399 . S
C4652 C4651 1.394 . S
C4652 C4653 1.516 . S
C4653 C4652 1.516 . S
C4653 C4654 1.497 1_455 S
C4653 C4655 1.561 . S
C4653 C4656 1.526 1_455 S
C4654 H4638 0.973 . S
C4654 H4639 0.975 . S
C4654 H4640 0.938 1_655 S
C4654 C4653 1.497 1_655 S
C4655 H4641 0.960 . S
C4655 H4642 0.961 . S
C4655 H4643 0.959 . S
C4655 C4653 1.561 . S
C4656 C4653 1.526 1_655 S
C4656 C4657 1.396 . S
C4656 C4661 1.390 . S
C4657 C4651 1.465 1_655 S
C4657 C4656 1.396 . S
C4657 C4658 1.399 . S
C4658 H4644 0.929 . S
C4658 C4657 1.399 . S
C4658 C4659 1.385 . S
C4659 H4645 0.931 . S
C4659 C4658 1.385 . S
C4659 C4660 1.389 . S
C4660 C4659 1.389 . S
C4660 C4661 1.387 . S
C4661 H4646 0.930 . S
C4661 C4656 1.390 . S
C4661 C4660 1.387 . S
H4662 C4674 0.930 . S
H4663 C4676 0.930 . S
H4664 C4677 0.930 . S
H4665 C4681 0.959 . S
H4666 C4681 0.959 1_455 S
H4667 C4681 0.961 . S
H4668 C4682 0.960 1_655 S
H4669 C4682 0.961 . S
H4670 C4682 0.959 . S
H4671 C4685 0.929 . S
H4672 C4686 0.931 . S
H4673 C4688 0.930 . S
C4674 H4662 0.930 . S
C4674 C4675 1.399 . S
C4674 C4679 1.399 . S
C4675 C4674 1.399 . S
C4675 C4676 1.376 . S
C4676 H4663 0.930 . S
C4676 C4675 1.376 . S
C4676 C4677 1.388 . S
C4677 H4664 0.930 . S
C4677 C4676 1.388 . S
C4677 C4678 1.390 . S
C4678 C4677 1.390 . S
C4678 C4679 1.394 . S
C4678 C4684 1.465 1_655 S
C4679 C4674 1.399 . S
C4679 C4678 1.394 . S
C4679 C4680 1.519 . S
C4680 C4679 1.519 . S
C4680 C4681 1.503 . S
C4680 C4682 1.560 1_655 S
C4680 C4683 1.523 1_655 S
C4681 H4665 0.959 . S
C4681 H4666 0.959 1_655 S
C4681 H4667 0.961 . S
C4681 C4680 1.503 . S
C4682 H4668 0.960 1_455 S
C4682 H4669 0.961 . S
C4682 H4670 0.959 . S
C4682 C4680 1.560 1_455 S
C4683 C4680 1.523 1_455 S
C4683 C4684 1.396 . S
C4683 C4688 1.390 . S
C4684 C4678 1.465 1_455 S
C4684 C4683 1.396 . S
C4684 C4685 1.399 . S
C4685 H4671 0.929 . S
C4685 C4684 1.399 . S
C4685 C4686 1.385 . S
C4686 H4672 0.931 . S
C4686 C4685 1.385 . S
C4686 C4687 1.389 . S
C4687 C4686 1.389 . S
C4687 C4688 1.387 . S
C4688 H4673 0.930 . S
C4688 C4683 1.390 . S
C4688 C4687 1.387 . S
H4689 C4701 0.930 . S
H4690 C4703 0.930 . S
H4691 C4704 0.930 . S
H4692 C4708 0.959 . S
H4693 C4708 0.959 1_655 S
H4694 C4708 0.961 . S
H4695 C4709 0.960 . S
H4696 C4709 0.961 . S
H4697 C4709 0.959 . S
H4698 C4712 0.929 . S
H4699 C4713 0.931 . S
H4700 C4715 0.930 . S
C4701 H4689 0.930 . S
C4701 C4702 1.399 . S
C4701 C4706 1.399 . S
C4702 C4701 1.399 . S
C4702 C4703 1.376 . S
C4703 H4690 0.930 . S
C4703 C4702 1.376 . S
C4703 C4704 1.388 . S
C4704 H4691 0.930 . S
C4704 C4703 1.388 . S
C4704 C4705 1.390 . S
C4705 C4704 1.390 . S
C4705 C4706 1.394 . S
C4705 C4711 1.465 1_455 S
C4706 C4701 1.399 . S
C4706 C4705 1.394 . S
C4706 C4707 1.516 1_455 S
C4707 C4706 1.516 1_655 S
C4707 C4708 1.502 1_655 S
C4707 C4709 1.561 . S
C4707 C4710 1.526 . S
C4708 H4692 0.959 . S
C4708 H4693 0.959 1_455 S
C4708 H4694 0.961 . S
C4708 C4707 1.502 1_455 S
C4709 H4695 0.960 . S
C4709 H4696 0.961 . S
C4709 H4697 0.959 . S
C4709 C4707 1.561 . S
C4710 C4707 1.526 . S
C4710 C4711 1.396 . S
C4710 C4715 1.390 . S
C4711 C4705 1.465 1_655 S
C4711 C4710 1.396 . S
C4711 C4712 1.399 . S
C4712 H4698 0.929 . S
C4712 C4711 1.399 . S
C4712 C4713 1.385 . S
C4713 H4699 0.931 . S
C4713 C4712 1.385 . S
C4713 C4714 1.389 . S
C4714 C4713 1.389 . S
C4714 C4715 1.387 . S
C4715 H4700 0.930 . S
C4715 C4710 1.390 . S
C4715 C4714 1.387 . S
H4716 C4728 0.930 . S
H4717 C4730 0.930 . S
H4718 C4731 0.930 . S
H4719 C4735 0.959 . S
H4720 C4735 0.989 . S
H4721 C4735 0.961 . S
H4722 C4736 0.960 . S
H4723 C4736 0.961 . S
H4724 C4736 0.959 . S
H4725 C4739 0.929 . S
H4726 C4740 0.931 . S
H4727 C4742 0.930 . S
C4728 H4716 0.930 . S
C4728 C4729 1.399 . S
C4728 C4733 1.399 . S
C4729 C4728 1.399 . S
C4729 C4730 1.376 . S
C4730 H4717 0.930 . S
C4730 C4729 1.376 . S
C4730 C4731 1.388 . S
C4731 H4718 0.930 . S
C4731 C4730 1.388 . S
C4731 C4732 1.390 . S
C4732 C4731 1.390 . S
C4732 C4733 1.394 . S
C4732 C4738 1.465 1_545 S
C4733 C4728 1.399 . S
C4733 C4732 1.394 . S
C4733 C4734 1.516 . S
C4734 C4733 1.516 . S
C4734 C4735 1.502 . S
C4734 C4736 1.561 . S
C4734 C4737 1.526 1_545 S
C4735 H4719 0.959 . S
C4735 H4720 0.989 . S
C4735 H4721 0.961 . S
C4735 C4734 1.502 . S
C4736 H4722 0.960 . S
C4736 H4723 0.961 . S
C4736 H4724 0.959 . S
C4736 C4734 1.561 . S
C4737 C4734 1.526 1_565 S
C4737 C4738 1.396 . S
C4737 C4742 1.390 . S
C4738 C4732 1.465 1_565 S
C4738 C4737 1.396 . S
C4738 C4739 1.399 . S
C4739 H4725 0.929 . S
C4739 C4738 1.399 . S
C4739 C4740 1.385 . S
C4740 H4726 0.931 . S
C4740 C4739 1.385 . S
C4740 C4741 1.389 . S
C4741 C4740 1.389 . S
C4741 C4742 1.387 . S
C4742 H4727 0.930 . S
C4742 C4737 1.390 . S
C4742 C4741 1.387 . S
H4743 C4755 0.930 . S
H4744 C4757 0.930 . S
H4745 C4758 0.930 . S
H4746 C4762 0.959 . S
H4747 C4762 0.959 . S
H4748 C4762 0.961 . S
H4749 C4763 0.960 1_545 S
H4750 C4763 0.961 . S
H4751 C4763 0.959 . S
H4752 C4766 0.929 . S
H4753 C4767 0.931 . S
H4754 C4769 0.930 . S
C4755 H4743 0.930 . S
C4755 C4756 1.399 . S
C4755 C4760 1.399 . S
C4756 C4755 1.399 . S
C4756 C4757 1.376 . S
C4757 H4744 0.930 . S
C4757 C4756 1.376 . S
C4757 C4758 1.388 . S
C4758 H4745 0.930 . S
C4758 C4757 1.388 . S
C4758 C4759 1.390 . S
C4759 C4758 1.390 . S
C4759 C4760 1.394 . S
C4759 C4765 1.465 1_545 S
C4760 C4755 1.399 . S
C4760 C4759 1.394 . S
C4760 C4761 1.516 1_545 S
C4761 C4760 1.516 1_565 S
C4761 C4762 1.502 . S
C4761 C4763 1.561 . S
C4761 C4764 1.526 . S
C4762 H4746 0.959 . S
C4762 H4747 0.959 . S
C4762 H4748 0.961 . S
C4762 C4761 1.502 . S
C4763 H4749 0.960 1_565 S
C4763 H4750 0.961 . S
C4763 H4751 0.959 . S
C4763 C4761 1.561 . S
C4764 C4761 1.526 . S
C4764 C4765 1.396 . S
C4764 C4769 1.390 . S
C4765 C4759 1.465 1_565 S
C4765 C4764 1.396 . S
C4765 C4766 1.399 . S
C4766 H4752 0.929 . S
C4766 C4765 1.399 . S
C4766 C4767 1.385 . S
C4767 H4753 0.931 . S
C4767 C4766 1.385 . S
C4767 C4768 1.389 . S
C4768 C4767 1.389 . S
C4768 C4769 1.387 . S
C4769 H4754 0.930 . S
C4769 C4764 1.390 . S
C4769 C4768 1.387 . S
H4770 C4782 0.930 . S
H4771 C4784 0.930 . S
H4772 C4785 0.930 . S
H4773 C4789 0.959 . S
H4774 C4789 0.959 . S
H4775 C4789 0.961 . S
H4776 C4790 0.960 . S
H4777 C4790 0.961 . S
H4778 C4790 0.959 . S
H4779 C4793 0.929 . S
H4780 C4794 0.931 . S
H4781 C4796 0.930 . S
C4782 H4770 0.930 . S
C4782 C4783 1.399 . S
C4782 C4787 1.399 . S
C4783 C4782 1.399 . S
C4783 C4784 1.376 . S
C4784 H4771 0.930 . S
C4784 C4783 1.376 . S
C4784 C4785 1.388 . S
C4785 H4772 0.930 . S
C4785 C4784 1.388 . S
C4785 C4786 1.390 . S
C4786 C4785 1.390 . S
C4786 C4787 1.394 . S
C4786 C4792 1.465 . S
C4787 C4782 1.399 . S
C4787 C4786 1.394 . S
C4787 C4788 1.516 . S
C4788 C4787 1.516 . S
C4788 C4789 1.502 . S
C4788 C4790 1.561 . S
C4788 C4791 1.526 . S
C4789 H4773 0.959 . S
C4789 H4774 0.959 . S
C4789 H4775 0.961 . S
C4789 C4788 1.502 . S
C4790 H4776 0.960 . S
C4790 H4777 0.961 . S
C4790 H4778 0.959 . S
C4790 C4788 1.561 . S
C4791 C4788 1.526 . S
C4791 C4792 1.396 . S
C4791 C4796 1.390 . S
C4792 C4786 1.465 . S
C4792 C4791 1.396 . S
C4792 C4793 1.399 . S
C4793 H4779 0.929 . S
C4793 C4792 1.399 . S
C4793 C4794 1.385 . S
C4794 H4780 0.931 . S
C4794 C4793 1.385 . S
C4794 C4795 1.389 . S
C4795 C4794 1.389 . S
C4795 C4796 1.387 . S
C4796 H4781 0.930 . S
C4796 C4791 1.390 . S
C4796 C4795 1.387 . S
H4797 C4809 0.930 . S
H4798 C4811 0.930 . S
H4799 C4812 0.930 . S
H4800 C4816 0.959 1_545 S
H4801 C4816 0.959 1_545 S
H4802 C4816 0.961 . S
H4803 C4817 0.960 . S
H4804 C4817 0.961 . S
H4805 C4817 0.959 . S
H4806 C4820 0.929 . S
H4807 C4821 0.931 . S
H4808 C4823 0.930 . S
C4809 H4797 0.930 . S
C4809 C4810 1.399 . S
C4809 C4814 1.399 . S
C4810 C4809 1.399 . S
C4810 C4811 1.376 . S
C4811 H4798 0.930 . S
C4811 C4810 1.376 . S
C4811 C4812 1.388 . S
C4812 H4799 0.930 . S
C4812 C4811 1.388 . S
C4812 C4813 1.390 . S
C4813 C4812 1.390 . S
C4813 C4814 1.394 . S
C4813 C4819 1.465 1_565 S
C4814 C4809 1.399 . S
C4814 C4813 1.394 . S
C4814 C4815 1.516 . S
C4815 C4814 1.516 . S
C4815 C4816 1.502 . S
C4815 C4817 1.561 . S
C4815 C4818 1.526 1_565 S
C4816 H4800 0.959 1_565 S
C4816 H4801 0.959 1_565 S
C4816 H4802 0.961 . S
C4816 C4815 1.502 . S
C4817 H4803 0.960 . S
C4817 H4804 0.961 . S
C4817 H4805 0.959 . S
C4817 C4815 1.561 . S
C4818 C4815 1.526 1_545 S
C4818 C4819 1.396 . S
C4818 C4823 1.390 . S
C4819 C4813 1.465 1_545 S
C4819 C4818 1.396 . S
C4819 C4820 1.399 . S
C4820 H4806 0.929 . S
C4820 C4819 1.399 . S
C4820 C4821 1.385 . S
C4821 H4807 0.931 . S
C4821 C4820 1.385 . S
C4821 C4822 1.389 . S
C4822 C4821 1.389 . S
C4822 C4823 1.387 . S
C4823 H4808 0.930 . S
C4823 C4818 1.390 . S
C4823 C4822 1.387 . S
C1597 N1333 1.391 . S
C1609 C7 1.390 . S
C1624 N1366 1.373 . S
C1636 C40 1.405 . S
C1651 N1399 1.370 . S
C1663 C73 1.379 . S
C1678 C106 1.356 . S
C1690 N1432 1.405 . S
C1705 C139 1.377 . S
C1717 N1465 1.372 . S
C1732 C172 1.395 . S
C1744 N772 1.386 . S
C1759 C205 1.417 . S
C1771 N1498 1.353 . S
C1786 C238 1.391 . S
C1798 N1531 1.390 . S
C1813 C271 1.382 . S
C1825 N1201 1.366 . S
C1840 C304 1.360 . S
C1852 N1267 1.413 . S
C1867 C337 1.384 . S
C1879 N1300 1.398 . S
C1894 N442 1.405 . S
C1906 C370 1.376 . S
C1921 C403 1.393 . S
C1933 N937 1.406 . S
C1948 C436 1.398 . S
C1960 N970 1.402 . S
C1975 N1003 1.344 . S
C1987 C469 1.386 . S
C2002 N1036 1.391 . S
C2014 C502 1.356 . S
C2029 C535 1.418 . S
C2041 N1069 1.354 . S
C2056 N376 1.393 . S
C2068 C568 1.407 . S
C2083 N1102 1.389 . S
C2095 C601 1.409 . S
C2110 N1135 1.379 . S
C2122 C634 1.358 . S
C2137 C667 1.416 . S
C2149 N805 1.377 . S
C2164 C700 1.355 . S
C2176 N871 1.392 . S
C2191 N904 1.404 . S
C2203 C733 1.396 . S
C2218 C766 1.417 . S
C2230 N46 1.350 . S
C2245 C799 1.419 . S
C2257 N541 1.344 . S
C2272 N574 1.396 . S
C2284 C832 1.386 . S
C2299 N607 1.393 . S
C2311 C865 1.389 . S
C2326 C898 1.418 . S
C2338 N640 1.342 . S
C2353 C931 1.387 . S
C2365 N673 1.360 . S
C2380 N1564 1.378 . S
C2392 C964 1.372 . S
C2407 C997 1.393 . S
C2419 N706 1.388 . S
C2434 C1030 1.391 . S
C2446 N739 1.391 . S
C2461 C1063 1.394 . S
C2473 N409 1.353 . S
C2488 N475 1.411 . S
C2500 C1096 1.356 . S
C2515 C1129 1.400 . S
C2527 N508 1.379 . S
C2542 C1162 1.387 . S
C2554 N1234 1.361 . S
C2569 C1195 1.369 . S
C2581 N145 1.360 . S
C2596 C1228 1.401 . S
C2608 N178 1.399 . S
C2623 C1261 1.382 . S
C2635 N211 1.348 . S
C2650 C1294 1.376 . S
C2662 N244 1.353 . S
C2677 N277 1.347 . S
C2689 C1327 1.382 . S
C2704 C1360 1.396 . S
C2716 N1168 1.341 . S
C2731 C1393 1.356 . S
C2743 N310 1.402 . S
C2758 N343 1.402 . S
C2770 C1426 1.398 . S
C2785 N13 1.343 . S
C2797 C1459 1.389 . S
C2812 C1492 1.417 . S
C2824 N79 1.373 . S
C2839 C1525 1.416 . S
C2851 N112 1.377 . S
C2866 N838 1.364 . S
C2878 C1558 1.419 . S
C2893 N2 0.383 . S
C2905 N35 0.364 . S
C2920 N101 0.383 . S
C2932 N68 0.373 . S
C2947 N134 0.266 . S
C2959 N200 0.246 . S
C2974 N233 0.336 . S
C2986 N167 0.286 . S
C3001 N1124 0.248 . S
C3013 N266 0.283 . S
C3028 N299 0.249 . S
C3040 N365 0.253 . S
C3055 N332 0.383 . S
C3067 N1058 0.360 . S
C3082 N398 0.305 . S
C3094 N431 0.246 . S
C3109 N464 0.280 . S
C3121 N497 0.252 . S
C3136 N596 0.383 . S
C3148 N530 0.325 . S
C3163 N563 0.366 . S
C3175 N629 0.282 . S
C3190 N662 0.381 . S
C3202 N1520 0.315 . S
C3217 N761 0.318 . S
C3229 N695 0.379 . S
C3244 N1454 0.327 . S
C3256 N728 0.381 . S
C3271 N827 0.382 . S
C3283 N794 0.357 . S
C3298 N893 0.246 . S
C3310 N860 0.277 . S
C3325 N992 0.316 . S
C3337 N926 0.359 . S
C3352 N1025 0.250 . S
C3364 N959 0.288 . S
C3379 N1157 0.246 . S
C3391 N1091 0.260 . S
C3406 N1223 0.312 . S
C3418 N1190 0.246 . S
C3433 N1289 0.309 . S
C3445 N1256 0.246 . S
C3460 N1388 0.376 . S
C3472 N1322 0.300 . S
C3487 N1421 0.247 . S
C3499 N1355 0.321 . S
C3514 N1553 0.320 . S
C3526 N1487 0.380 . S
C3541 C18 1.090 . S
C3553 C747 1.060 . S
C3568 C51 1.091 . S
C3580 C714 1.068 . S
C3595 C1572 0.998 . S
C3607 C84 1.082 . S
C3622 C681 1.026 . S
C3634 C117 1.084 . S
C3649 C150 1.085 . S
C3661 C1242 1.021 . S
C3676 C1209 1.015 . S
C3688 C183 1.083 . S
C3703 C1308 0.996 . S
C3715 C216 1.081 . S
C3730 C249 1.084 . S
C3742 C1275 1.014 . S
C3757 C1407 1.083 . S
C3769 C282 1.091 . S
C3784 C1341 1.081 . S
C3796 C315 1.091 . S
C3811 C348 1.095 . S
C3823 C1374 1.106 . S
C3838 C648 1.082 . S
C3850 C381 1.091 . S
C3865 C351 1.063 . S
C3877 C414 1.094 . S
C3892 C318 1.102 . S
C3904 C447 1.095 . S
C3919 C480 1.082 . S
C3931 C1176 1.001 . S
C3946 C513 1.081 . S
C3958 C285 1.028 . S
C3973 C846 1.034 . S
C3985 C546 1.091 . S
C4000 C813 0.996 . S
C4012 C579 1.084 . S
C4027 C612 1.082 . S
C4039 C912 1.033 . S
C4054 C645 1.086 . S
C4066 C879 1.004 . S
C4081 C1011 1.107 . S
C4093 C678 1.094 . S
C4108 C711 1.081 . S
C4120 C945 1.005 . S
C4135 C978 1.107 . S
C4147 C744 1.093 . S
C4162 C252 1.107 . S
C4174 C777 1.093 . S
C4189 C810 1.095 . S
C4201 C1539 1.106 . S
C4216 C1506 0.996 . S
C4228 C843 1.081 . S
C4243 C876 1.085 . S
C4255 C780 1.039 . S
C4270 C909 1.090 . S
C4282 C1473 1.060 . S
C4297 C942 1.086 . S
C4309 C450 1.026 . S
C4324 C417 1.094 . S
C4336 C975 1.094 . S
C4351 C1008 1.085 . S
C4363 C516 1.019 . S
C4378 C1041 1.083 . S
C4390 C483 1.025 . S
C4405 C615 1.044 . S
C4417 C1074 1.088 . S
C4432 C1107 1.082 . S
C4444 C549 1.002 . S
C4459 C1140 1.092 . S
C4471 C582 1.093 . S
C4486 C1173 1.093 . S
C4498 C1440 1.088 . S
C4513 C1143 1.029 . S
C4525 C1206 1.091 . S
C4540 C1239 1.094 . S
C4552 C1110 1.103 . S
C4567 C1272 1.094 . S
C4579 C384 1.104 . S
C4594 C1305 1.088 . S
C4606 C1077 1.091 . S
C4621 C1338 1.081 . S
C4633 C54 1.019 . S
C4648 C21 1.060 . S
C4660 C1371 1.084 . S
C4675 C120 1.016 . S
C4687 C1404 1.089 . S
C4702 C87 1.032 . S
C4714 C1437 1.091 . S
C4729 C1470 1.088 . S
C4741 C219 1.089 . S
C4756 C153 1.107 . S
C4768 C1503 1.092 . S
C4783 C186 1.105 . S
C4795 C1536 1.091 . S
C4810 C1569 1.085 . S
C4822 C1044 1.074 . S
