# Generated by pormake.
# Topology ske, (6)-cn, num edge types: 1
# Building blocks:
#     Node 0, Type 0, BuildingBlock: PAMTUU_clean_sbu_0, # of connection points: 6
#     Node 1, Type 0, BuildingBlock: PAMTUU_clean_sbu_0, # of connection points: 6
#     Node 2, Type 0, BuildingBlock: PAMTUU_clean_sbu_0, # of connection points: 6
#     Node 3, Type 0, BuildingBlock: PAMTUU_clean_sbu_0, # of connection points: 6
#     Node 4, Type 0, BuildingBlock: PAMTUU_clean_sbu_0, # of connection points: 6
#     Node 5, Type 0, BuildingBlock: PAMTUU_clean_sbu_0, # of connection points: 6
#     Node 6, Type 0, BuildingBlock: PAMTUU_clean_sbu_0, # of connection points: 6
#     Node 7, Type 0, BuildingBlock: PAMTUU_clean_sbu_0, # of connection points: 6
#     Edge 8, Type (0, 0), BuildingBlock: KIFKEQ_clean_linker_1, # of connection points: 2
#     Edge 9, Type (0, 0), BuildingBlock: KIFKEQ_clean_linker_1, # of connection points: 2
#     Edge 10, Type (0, 0), BuildingBlock: KIFKEQ_clean_linker_1, # of connection points: 2
#     Edge 11, Type (0, 0), BuildingBlock: KIFKEQ_clean_linker_1, # of connection points: 2
#     Edge 12, Type (0, 0), BuildingBlock: KIFKEQ_clean_linker_1, # of connection points: 2
#     Edge 13, Type (0, 0), BuildingBlock: KIFKEQ_clean_linker_1, # of connection points: 2
#     Edge 14, Type (0, 0), BuildingBlock: KIFKEQ_clean_linker_1, # of connection points: 2
#     Edge 15, Type (0, 0), BuildingBlock: KIFKEQ_clean_linker_1, # of connection points: 2
#     Edge 16, Type (0, 0), BuildingBlock: KIFKEQ_clean_linker_1, # of connection points: 2
#     Edge 17, Type (0, 0), BuildingBlock: KIFKEQ_clean_linker_1, # of connection points: 2
#     Edge 18, Type (0, 0), BuildingBlock: KIFKEQ_clean_linker_1, # of connection points: 2
#     Edge 19, Type (0, 0), BuildingBlock: KIFKEQ_clean_linker_1, # of connection points: 2
#     Edge 20, Type (0, 0), BuildingBlock: KIFKEQ_clean_linker_1, # of connection points: 2
#     Edge 21, Type (0, 0), BuildingBlock: KIFKEQ_clean_linker_1, # of connection points: 2
#     Edge 22, Type (0, 0), BuildingBlock: KIFKEQ_clean_linker_1, # of connection points: 2
#     Edge 23, Type (0, 0), BuildingBlock: KIFKEQ_clean_linker_1, # of connection points: 2
#     Edge 24, Type (0, 0), BuildingBlock: KIFKEQ_clean_linker_1, # of connection points: 2
#     Edge 25, Type (0, 0), BuildingBlock: KIFKEQ_clean_linker_1, # of connection points: 2
#     Edge 26, Type (0, 0), BuildingBlock: KIFKEQ_clean_linker_1, # of connection points: 2
#     Edge 27, Type (0, 0), BuildingBlock: KIFKEQ_clean_linker_1, # of connection points: 2
#     Edge 28, Type (0, 0), BuildingBlock: KIFKEQ_clean_linker_1, # of connection points: 2
#     Edge 29, Type (0, 0), BuildingBlock: KIFKEQ_clean_linker_1, # of connection points: 2
#     Edge 30, Type (0, 0), BuildingBlock: KIFKEQ_clean_linker_1, # of connection points: 2
#     Edge 31, Type (0, 0), BuildingBlock: KIFKEQ_clean_linker_1, # of connection points: 2
# Relax obj value: 0.139
# Max RMSD: 0.172
# Mean RMSD: 0.166
data_MOF--net-ske--node1-PAMTUU_clean_sbu_0--edge1-KIFKEQ_clean_linker_1
_symmetry_space_group_name_H-M    P1
_symmetry_Int_Tables_number       1
_symmetry_cell_setting            triclinic
loop_
_symmetry_equiv_pos_as_xyz
'x, y, z'
_cell_length_a     103.2591
_cell_length_b     30.762609
_cell_length_c     15.475866
_cell_angle_alpha  90.406132
_cell_angle_beta   90.011517
_cell_angle_gamma 98.955891
loop_
_atom_site_label
_atom_site_type_symbol
_atom_site_fract_x
_atom_site_fract_y
_atom_site_fract_z
_atom_type_partial_charge
Tb0 Tb 0.16758 0.25303 0.50461 0.0
Tb1 Tb 0.13485 0.24045 0.50865 0.0
C2 C 0.15244 0.33172 0.50413 0.0
C3 C 0.20417 0.25973 0.55259 0.0
C4 C 0.22852 0.25325 0.632 0.0
C5 C 0.22433 0.29433 0.62268 0.0
C6 C 0.21234 0.29751 0.58321 0.0
C7 C 0.20817 0.21845 0.56374 0.0
C8 C 0.22019 0.21525 0.60326 0.0
C9 C 0.19239 0.26486 0.5012 0.0
O10 O 0.16253 0.2625 0.63923 0.0
O11 O 0.14081 0.23006 0.64006 0.0
O12 O 0.14026 0.17657 0.47631 0.0
O13 O 0.16043 0.1858 0.54302 0.0
O14 O 0.11808 0.26992 0.48973 0.0
O15 O 0.11645 0.204 0.54046 0.0
O16 O 0.13999 0.25104 0.37351 0.0
O17 O 0.16128 0.23641 0.37317 0.0
O18 O 0.16136 0.31375 0.46312 0.0
O19 O 0.14306 0.30724 0.54673 0.0
C20 C 0.15173 0.2461 0.68033 0.0
O21 O 0.18502 0.22953 0.47182 0.0
O22 O 0.18545 0.29433 0.5276 0.0
C23 C 0.15014 0.16029 0.51059 0.0
C24 C 0.09709 0.22446 0.47528 0.0
C25 C 0.07006 0.2127 0.43214 0.0
C26 C 0.07536 0.18014 0.47777 0.0
C27 C 0.08869 0.18604 0.49937 0.0
C28 C 0.09197 0.25572 0.4249 0.0
C29 C 0.07863 0.24984 0.40336 0.0
C30 C 0.11015 0.23561 0.51698 0.0
C31 C 0.15058 0.24318 0.33274 0.0
H32 H 0.23037 0.3242 0.64526 0.0
H33 H 0.2096 0.32981 0.57472 0.0
H34 H 0.20219 0.18871 0.53993 0.0
H35 H 0.22316 0.18313 0.60861 0.0
H36 H 0.06909 0.15077 0.49976 0.0
H37 H 0.09226 0.16155 0.53905 0.0
H38 H 0.09809 0.28605 0.40627 0.0
H39 H 0.07492 0.27581 0.36881 0.0
Tb40 Tb 0.87921 0.23376 0.51886 0.0
Tb41 Tb 0.91196 0.25396 0.52083 0.0
C42 C 0.89688 0.15855 0.5066 0.0
C43 C 0.8424 0.2255 0.55953 0.0
C44 C 0.81847 0.24167 0.63268 0.0
C45 C 0.82052 0.19854 0.61313 0.0
C46 C 0.83233 0.19063 0.57711 0.0
C47 C 0.84051 0.26875 0.57915 0.0
C48 C 0.82862 0.27676 0.61528 0.0
C49 C 0.85442 0.21513 0.5179 0.0
O50 O 0.88456 0.25524 0.64989 0.0
O51 O 0.9052 0.23619 0.65117 0.0
O52 O 0.90533 0.31493 0.55927 0.0
O53 O 0.88457 0.30427 0.50068 0.0
O54 O 0.92954 0.238 0.56981 0.0
O55 O 0.9297 0.29333 0.48444 0.0
O56 O 0.90604 0.26272 0.38779 0.0
O57 O 0.88543 0.22137 0.3879 0.0
O58 O 0.88657 0.17224 0.54072 0.0
O59 O 0.90694 0.18611 0.47805 0.0
C60 C 0.89485 0.24609 0.69186 0.0
O61 O 0.86107 0.24466 0.46836 0.0
O62 O 0.86207 0.1951 0.56514 0.0
C63 C 0.8949 0.33019 0.53137 0.0
C64 C 0.94903 0.25972 0.48877 0.0
C65 C 0.97402 0.24143 0.43861 0.0
C66 C 0.97215 0.28454 0.4602 0.0
C67 C 0.95981 0.2935 0.48492 0.0
C68 C 0.95066 0.21688 0.46395 0.0
C69 C 0.96304 0.20784 0.43902 0.0
C70 C 0.93677 0.26957 0.52823 0.0
C71 C 0.89566 0.24225 0.34673 0.0
H72 H 0.81288 0.17076 0.62398 0.0
H73 H 0.83354 0.15705 0.56185 0.0
H74 H 0.84815 0.29624 0.5662 0.0
H75 H 0.82741 0.31034 0.63016 0.0
H76 H 0.98035 0.31119 0.46204 0.0
H77 H 0.95881 0.32671 0.50455 0.0
H78 H 0.94248 0.19018 0.46633 0.0
H79 H 0.96405 0.17438 0.42163 0.0
Tb80 Tb 0.1356 0.73296 0.52264 0.0
Tb81 Tb 0.16805 0.75835 0.52449 0.0
C82 C 0.15425 0.66141 0.51695 0.0
C83 C 0.09797 0.71751 0.54119 0.0
C84 C 0.07233 0.73033 0.58685 0.0
C85 C 0.07439 0.69596 0.53061 0.0
C86 C 0.08705 0.68965 0.50828 0.0
C87 C 0.0961 0.75208 0.59716 0.0
C88 C 0.08334 0.75852 0.61971 0.0
C89 C 0.11103 0.7087 0.51549 0.0
O90 O 0.1405 0.75629 0.65353 0.0
O91 O 0.16168 0.74164 0.65613 0.0
O92 O 0.1604 0.81748 0.56421 0.0
O93 O 0.13994 0.80363 0.50172 0.0
O94 O 0.18619 0.74388 0.56728 0.0
O95 O 0.18517 0.8015 0.49034 0.0
O96 O 0.16182 0.76729 0.39243 0.0
O97 O 0.14246 0.71931 0.39353 0.0
O98 O 0.14395 0.67425 0.55266 0.0
O99 O 0.16366 0.68978 0.48304 0.0
C100 C 0.15102 0.74945 0.69621 0.0
O101 O 0.11761 0.73523 0.46025 0.0
O102 O 0.11854 0.69662 0.5754 0.0
C103 C 0.14984 0.83108 0.53381 0.0
C104 C 0.20477 0.76996 0.47938 0.0
C105 C 0.22912 0.75898 0.4046 0.0
C106 C 0.22574 0.80121 0.4162 0.0
C107 C 0.21374 0.80658 0.45336 0.0
C108 C 0.20795 0.7276 0.4659 0.0
C109 C 0.22 0.7222 0.42898 0.0
C110 C 0.19284 0.77725 0.52714 0.0
C111 C 0.152 0.74354 0.35147 0.0
H112 H 0.0662 0.67422 0.50241 0.0
H113 H 0.08831 0.66288 0.46472 0.0
H114 H 0.10445 0.77388 0.62331 0.0
H115 H 0.08211 0.78521 0.66343 0.0
H116 H 0.23257 0.83029 0.39922 0.0
H117 H 0.2116 0.8396 0.46392 0.0
H118 H 0.20125 0.69866 0.48532 0.0
H119 H 0.2222 0.68919 0.41993 0.0
Tb120 Tb 0.91288 0.75254 0.51879 0.0
Tb121 Tb 0.8803 0.73877 0.52254 0.0
C122 C 0.89741 0.83023 0.5191 0.0
C123 C 0.95027 0.763 0.55437 0.0
C124 C 0.97653 0.75982 0.60299 0.0
C125 C 0.9719 0.8003 0.59668 0.0
C126 C 0.95894 0.80184 0.57254 0.0
C127 C 0.95464 0.7223 0.56522 0.0
C128 C 0.96764 0.72074 0.58972 0.0
C129 C 0.93765 0.76646 0.51138 0.0
O130 O 0.90776 0.7613 0.6537 0.0
O131 O 0.88612 0.72776 0.65413 0.0
O132 O 0.88634 0.67611 0.48775 0.0
O133 O 0.90603 0.68547 0.55948 0.0
O134 O 0.8634 0.76818 0.51269 0.0
O135 O 0.86191 0.69908 0.5422 0.0
O136 O 0.88553 0.75231 0.3884 0.0
O137 O 0.90642 0.73452 0.38804 0.0
O138 O 0.90621 0.81244 0.47647 0.0
O139 O 0.88829 0.80539 0.56302 0.0
C140 C 0.89698 0.74431 0.69468 0.0
O141 O 0.93041 0.73068 0.48274 0.0
O142 O 0.93062 0.79464 0.54257 0.0
C143 C 0.89596 0.65977 0.52509 0.0
C144 C 0.84354 0.72249 0.47223 0.0
C145 C 0.81884 0.71451 0.3888 0.0
C146 C 0.8207 0.6882 0.46042 0.0
C147 C 0.83289 0.69228 0.50173 0.0
C148 C 0.84191 0.74734 0.39819 0.0
C149 C 0.82969 0.74338 0.35696 0.0
C150 C 0.85552 0.73148 0.52614 0.0
C151 C 0.89593 0.743 0.34734 0.0
H152 H 0.97844 0.83097 0.60766 0.0
H153 H 0.95588 0.83367 0.564 0.0
H154 H 0.94823 0.69175 0.55098 0.0
H155 H 0.97091 0.68902 0.59351 0.0
H156 H 0.81265 0.66504 0.48581 0.0
H157 H 0.83387 0.67289 0.55888 0.0
H158 H 0.84992 0.77108 0.37401 0.0
H159 H 0.82864 0.76445 0.30249 0.0
Tb160 Tb 0.66795 0.75124 0.0479 0.0
Tb161 Tb 0.63536 0.72781 0.04839 0.0
C162 C 0.64956 0.824 0.03536 0.0
C163 C 0.70484 0.76179 0.08752 0.0
C164 C 0.72919 0.74438 0.15141 0.0
C165 C 0.727 0.78783 0.13803 0.0
C166 C 0.71499 0.79636 0.10641 0.0
C167 C 0.70679 0.71827 0.10243 0.0
C168 C 0.71887 0.70965 0.13429 0.0
C169 C 0.69267 0.77264 0.04892 0.0
O170 O 0.66264 0.72812 0.17739 0.0
O171 O 0.64197 0.74668 0.17913 0.0
O172 O 0.64268 0.66798 0.08469 0.0
O173 O 0.66336 0.68062 0.02571 0.0
O174 O 0.61742 0.74335 0.09287 0.0
O175 O 0.61808 0.68445 1.01691 0.0
O176 O 0.64133 0.71946 0.91515 0.0
O177 O 0.66165 0.7628 0.91688 0.0
O178 O 0.65981 0.81142 0.07222 0.0
O179 O 0.63991 0.79536 1.00407 0.0
C180 C 0.65233 0.73697 0.21974 0.0
O181 O 0.68628 0.74459 0.99459 0.0
O182 O 0.6848 0.78979 0.10012 0.0
C183 C 0.65317 0.65369 0.05464 0.0
C184 C 0.59777 0.71271 1.01801 0.0
C185 C 0.57134 0.71729 0.97568 0.0
C186 C 0.5757 0.67641 0.98329 0.0
C187 C 0.58875 0.67419 1.00426 0.0
C188 C 0.59363 0.75372 1.00614 0.0
C189 C 0.58054 0.75596 0.98478 0.0
C190 C 0.61063 0.70867 0.05674 0.0
C191 C 0.65159 0.74082 0.87485 0.0
H192 H 0.7346 0.81542 0.15211 0.0
H193 H 0.71368 0.83018 0.09563 0.0
H194 H 0.69909 0.691 0.08836 0.0
H195 H 0.72023 0.67579 0.14351 0.0
H196 H 0.56893 0.64601 0.97539 0.0
H197 H 0.59166 0.64219 1.01354 0.0
H198 H 0.60034 0.78402 1.01684 0.0
H199 H 0.5775 0.78798 0.97981 0.0
Tb200 Tb 0.37919 0.72638 0.03824 0.0
Tb201 Tb 0.41181 0.74905 0.03988 0.0
C202 C 0.39688 0.65168 0.02416 0.0
C203 C 0.3424 0.71474 0.0817 0.0
C204 C 0.3186 0.72497 0.16451 0.0
C205 C 0.31919 0.68984 0.10666 0.0
C206 C 0.33095 0.68483 0.06591 0.0
C207 C 0.34198 0.74973 0.13988 0.0
C208 C 0.33017 0.75484 0.18087 0.0
C209 C 0.35438 0.70904 0.03382 0.0
O210 O 0.38525 0.7163 0.17009 0.0
O211 O 0.40493 0.76257 0.16905 0.0
O212 O 0.40389 0.80848 1.00892 0.0
O213 O 0.38418 0.79481 0.07914 0.0
O214 O 0.42961 0.74546 0.10363 0.0
O215 O 0.42915 0.78432 0.98827 0.0
O216 O 0.40681 0.72705 0.90844 0.0
O217 O 0.38565 0.74229 0.90638 0.0
O218 O 0.38625 0.66639 0.99818 0.0
O219 O 0.4072 0.67798 0.05423 0.0
C220 C 0.39524 0.73905 0.21102 0.0
O221 O 0.36119 0.74397 0.99984 0.0
O222 O 0.36187 0.68334 0.06778 0.0
C223 C 0.39369 0.82231 0.04399 0.0
C224 C 0.44958 0.76287 0.02569 0.0
C225 C 0.47541 0.74934 0.98611 0.0
C226 C 0.47313 0.78504 0.03819 0.0
C227 C 0.46039 0.79169 0.05749 0.0
C228 C 0.45166 0.727 0.97379 0.0
C229 C 0.4645 0.72024 0.95422 0.0
C230 C 0.43644 0.77181 0.04913 0.0
C231 C 0.39628 0.73418 0.86616 0.0
H232 H 0.31049 0.66664 0.09117 0.0
H233 H 0.33105 0.65776 1.02083 0.0
H234 H 0.35074 0.77318 0.15307 0.0
H235 H 0.33011 0.78201 0.22565 0.0
H236 H 0.48121 0.80756 0.06562 0.0
H237 H 0.45898 0.81943 0.09805 0.0
H238 H 0.4434 0.70439 0.94863 0.0
H239 H 0.46588 0.69253 0.91361 0.0
Tb240 Tb 0.63447 0.23175 1.0012 0.0
Tb241 Tb 0.66737 0.2454 1.00361 0.0
C242 C 0.64994 0.1529 1.00362 0.0
C243 C 0.59755 0.23095 0.03742 0.0
C244 C 0.57191 0.24233 0.08811 0.0
C245 C 0.57644 0.2021 0.10164 0.0
C246 C 0.58908 0.19644 0.0763 0.0
C247 C 0.59329 0.27195 0.02808 0.0
C248 C 0.58063 0.27761 0.05344 0.0
C249 C 0.60968 0.22148 0.99477 0.0
O250 O 0.6396 0.22557 0.13629 0.0
O251 O 0.66182 0.25349 0.13713 0.0
O252 O 0.66123 0.30811 0.97204 0.0
O253 O 0.64159 0.29855 0.04393 0.0
O254 O 0.68436 0.21665 0.99191 0.0
O255 O 0.68571 0.28577 0.02279 0.0
O256 O 0.66216 0.23175 0.86955 0.0
O257 O 0.64077 0.24555 0.86907 0.0
O258 O 0.64044 0.16935 0.9658 0.0
O259 O 0.65969 0.17844 0.04143 0.0
C260 C 0.6507 0.23954 0.17684 0.0
O261 O 0.61737 0.25393 0.95847 0.0
O262 O 0.61629 0.19384 0.03179 0.0
C263 C 0.6517 0.32431 1.01098 0.0
C264 C 0.7039 0.26269 0.94952 0.0
C265 C 0.72813 0.26891 0.86146 0.0
C266 C 0.72701 0.2936 0.9372 0.0
C267 C 0.71503 0.29036 0.98086 0.0
C268 C 0.7048 0.23993 0.87117 0.0
C269 C 0.7168 0.24296 0.82772 0.0
C270 C 0.69217 0.2536 1.00527 0.0
C271 C 0.65148 0.2385 0.82901 0.0
H272 H 0.57007 0.17443 0.12943 0.0
H273 H 0.59201 0.16434 0.08359 0.0
H274 H 0.59949 0.29913 0.99745 0.0
H275 H 0.57745 0.30894 0.04139 0.0
H276 H 0.73554 0.31363 0.96536 0.0
H277 H 0.71461 0.30795 0.04145 0.0
H278 H 0.69637 0.21843 0.84521 0.0
H279 H 0.71729 0.22406 0.76882 0.0
Tb280 Tb 0.4113 0.2418 1.00962 0.0
Tb281 Tb 0.37845 0.23012 1.01337 0.0
C282 C 0.39623 0.32215 1.00965 0.0
C283 C 0.44903 0.25933 0.04029 0.0
C284 C 0.47564 0.26795 0.09176 0.0
C285 C 0.47199 0.28947 1.01774 0.0
C286 C 0.45885 0.28515 0.9924 0.0
C287 C 0.4525 0.23996 0.11722 0.0
C288 C 0.46567 0.24435 0.14279 0.0
C289 C 0.43595 0.24695 1.00028 0.0
O290 O 0.40633 0.23294 0.14533 0.0
O291 O 0.38464 0.24423 0.14582 0.0
O292 O 0.38441 0.16899 0.05512 0.0
O293 O 0.40311 0.17458 0.97515 0.0
O294 O 0.36118 0.25484 0.04527 0.0
O295 O 0.36043 0.18935 0.99142 0.0
O296 O 0.38328 0.22068 0.87871 0.0
O297 O 0.40534 0.24992 0.87724 0.0
O298 O 0.40586 0.30513 0.04507 0.0
O299 O 0.38602 0.29718 0.97502 0.0
C300 C 0.39552 0.2389 0.18573 0.0
O301 O 0.42814 0.21332 0.0315 0.0
O302 O 0.4296 0.27788 0.97381 0.0
C303 C 0.39358 0.15072 1.01738 0.0
C304 C 0.34166 0.22365 0.97061 0.0
C305 C 0.31761 0.23216 0.89033 0.0
C306 C 0.3186 0.19653 0.94501 0.0
C307 C 0.33048 0.1924 0.98465 0.0
C308 C 0.34089 0.25884 0.91447 0.0
C309 C 0.32894 0.263 0.87444 0.0
C310 C 0.35367 0.21909 1.01897 0.0
C311 C 0.39425 0.23502 0.83773 0.0
H312 H 0.47934 0.30746 0.9761 0.0
H313 H 0.45647 0.29991 0.93223 0.0
H314 H 0.44515 0.21973 0.15548 0.0
H315 H 0.46808 0.22798 0.20101 0.0
H316 H 0.31017 0.17171 0.95736 0.0
H317 H 0.33089 0.16493 0.02751 0.0
H318 H 0.34943 0.28334 0.90266 0.0
H319 H 0.3285 0.29091 0.83292 0.0
H320 H 0.25166 0.30823 0.60386 0.0
H321 H 0.23525 0.19158 0.74387 0.0
H322 H 0.27312 0.30444 0.66627 0.0
H323 H 0.25684 0.18677 0.80357 0.0
H324 H 0.29364 0.21942 0.96904 0.0
H325 H 0.27234 0.2246 0.90616 0.0
H326 H 0.29089 0.26138 0.66159 0.0
H327 H 0.31229 0.25632 0.72494 0.0
C328 C 0.25262 0.28181 0.64815 0.0
C329 C 0.24168 0.25037 0.66926 0.0
C330 C 0.26498 0.27932 0.68307 0.0
C331 C 0.26674 0.24534 0.74009 0.0
C332 C 0.25582 0.21373 0.76075 0.0
C333 C 0.24346 0.21619 0.72575 0.0
C334 C 0.29319 0.22831 0.90164 0.0
C335 C 0.30469 0.23712 0.85188 0.0
C336 C 0.28095 0.23122 0.86551 0.0
C337 C 0.27986 0.24306 0.77856 0.0
C338 C 0.29138 0.25258 0.72902 0.0
C339 C 0.30365 0.24971 0.76529 0.0
H340 H 0.7482 0.33742 0.83355 0.0
H341 H 0.73786 0.19668 0.80227 0.0
H342 H 0.77028 0.33322 0.7797 0.0
H343 H 0.75972 0.19265 0.7471 0.0
H344 H 0.80374 0.19352 0.756 0.0
H345 H 0.78202 0.20188 0.80802 0.0
H346 H 0.78235 0.31593 0.6466 0.0
H347 H 0.80413 0.30728 0.59338 0.0
C348 C 0.75061 0.30567 0.81469 0.0
C349 C 0.74125 0.2674 0.82221 0.0
C350 C 0.76322 0.30331 0.78333 0.0
C351 C 0.7668 0.26256 0.75974 0.0
C352 C 0.75735 0.22449 0.7658 0.0
C353 C 0.74475 0.22688 0.79642 0.0
C354 C 0.79919 0.22029 0.7311 0.0
C355 C 0.80566 0.24941 0.66966 0.0
C356 C 0.78672 0.22506 0.76097 0.0
C357 C 0.78037 0.25923 0.73066 0.0
C358 C 0.787 0.28936 0.67151 0.0
C359 C 0.7995 0.28446 0.64121 0.0
H360 H 0.30864 0.8016 0.19378 0.0
H361 H 0.2996 0.66092 0.22803 0.0
H362 H 0.28735 0.81003 0.25444 0.0
H363 H 0.27814 0.66911 0.28487 0.0
H364 H 0.24544 0.70254 0.45989 0.0
H365 H 0.2672 0.69519 0.40645 0.0
H366 H 0.26443 0.79599 0.21737 0.0
H367 H 0.24271 0.80355 0.27142 0.0
C368 C 0.30216 0.77247 0.2147 0.0
C369 C 0.30586 0.73056 0.20561 0.0
C370 C 0.28986 0.77725 0.24845 0.0
C371 C 0.28093 0.74024 0.27414 0.0
C372 C 0.28475 0.69843 0.26655 0.0
C373 C 0.29704 0.69368 0.23291 0.0
C374 C 0.24941 0.72282 0.40631 0.0
C375 C 0.24228 0.75358 0.36992 0.0
C376 C 0.26192 0.71865 0.37566 0.0
C377 C 0.26764 0.74504 0.30754 0.0
C378 C 0.26047 0.77567 0.27091 0.0
C379 C 0.24798 0.77992 0.30175 0.0
H380 H 0.73462 0.68427 0.27161 0.0
H381 H 0.7534 0.78507 0.1003 0.0
H382 H 0.7561 0.67272 0.32502 0.0
H383 H 0.77476 0.77465 0.15559 0.0
H384 H 0.81203 0.71986 0.2177 0.0
H385 H 0.79038 0.72342 0.15752 0.0
H386 H 0.77375 0.71158 0.41388 0.0
H387 H 0.79535 0.70827 0.47405 0.0
C388 C 0.74332 0.70378 0.24496 0.0
C389 C 0.74226 0.7358 0.18202 0.0
C390 C 0.75563 0.69747 0.27619 0.0
C391 C 0.76719 0.72285 0.24487 0.0
C392 C 0.76611 0.7542 0.18066 0.0
C393 C 0.75383 0.76057 0.14969 0.0
C394 C 0.80377 0.71808 0.26129 0.0
C395 C 0.80549 0.71381 0.35085 0.0
C396 C 0.79134 0.72011 0.22676 0.0
C397 C 0.78029 0.7179 0.28082 0.0
C398 C 0.78198 0.7127 0.37011 0.0
C399 C 0.7944 0.71075 0.40465 0.0
H400 H 0.16469 0.89567 0.629 0.0
H401 H 0.13354 0.87481 0.43995 0.0
H402 H 0.1642 0.97445 0.62635 0.0
H403 H 0.13342 0.9538 0.43399 0.0
H404 H 0.12873 0.0957 0.49451 0.0
H405 H 0.12812 0.01632 0.50481 0.0
H406 H 0.17017 0.03635 0.54071 0.0
H407 H 0.17063 0.11543 0.53443 0.0
C408 C 0.15777 0.90795 0.5865 0.0
C409 C 0.14918 0.87891 0.5346 0.0
C410 C 0.15754 0.95327 0.58441 0.0
C411 C 0.14885 0.97091 0.5293 0.0
C412 C 0.14013 0.94165 0.47818 0.0
C413 C 0.14024 0.89623 0.48124 0.0
C414 C 0.13783 0.08306 0.50461 0.0
C415 C 0.14972 0.11192 0.51397 0.0
C416 C 0.1375 0.03745 0.51013 0.0
C417 C 0.14909 0.01956 0.52397 0.0
C418 C 0.16099 0.04865 0.53209 0.0
C419 C 0.16128 0.09416 0.52781 0.0
H420 H 0.87381 0.37371 0.51589 0.0
H421 H 0.91581 0.39568 0.55249 0.0
H422 H 0.87379 0.45289 0.51792 0.0
H423 H 0.91589 0.47473 0.55101 0.0
H424 H 0.91083 0.6136 0.6247 0.0
H425 H 0.91016 0.5343 0.63029 0.0
H426 H 0.87973 0.51716 0.43552 0.0
H427 H 0.88005 0.59648 0.43275 0.0
C428 C 0.88305 0.39545 0.52394 0.0
C429 C 0.89481 0.37832 0.5342 0.0
C430 C 0.88306 0.44094 0.52453 0.0
C431 C 0.89484 0.47048 0.53442 0.0
C432 C 0.90658 0.45318 0.54482 0.0
C433 C 0.90656 0.40772 0.54523 0.0
C434 C 0.90398 0.59291 0.58311 0.0
C435 C 0.89551 0.61142 0.52816 0.0
C436 C 0.90364 0.54733 0.58594 0.0
C437 C 0.89493 0.51905 0.53309 0.0
C438 C 0.88643 0.53769 0.47822 0.0
C439 C 0.88667 0.58328 0.47616 0.0
H440 H 0.91217 0.89004 0.41479 0.0
H441 H 0.88328 0.8796 0.61855 0.0
H442 H 0.91215 0.96917 0.40848 0.0
H443 H 0.88359 0.95879 0.61455 0.0
H444 H 0.87633 0.09228 0.52649 0.0
H445 H 0.87667 0.01357 0.52715 0.0
H446 H 0.91853 0.03711 0.48379 0.0
H447 H 0.91808 0.11622 0.4801 0.0
C448 C 0.90589 0.90469 0.45877 0.0
C449 C 0.89768 0.87848 0.51691 0.0
C450 C 0.90593 0.95015 0.45549 0.0
C451 C 0.89783 0.97052 0.51072 0.0
C452 C 0.88977 0.94423 0.56974 0.0
C453 C 0.88964 0.89878 0.57247 0.0
C454 C 0.88561 0.08074 0.51687 0.0
C455 C 0.89719 0.11059 0.5036 0.0
C456 C 0.88583 0.03549 0.51785 0.0
C457 C 0.89764 0.01882 0.5065 0.0
C458 C 0.90922 0.04868 0.49192 0.0
C459 C 0.90898 0.09407 0.49011 0.0
H460 H 0.14186 0.59937 0.62501 0.0
H461 H 0.16838 0.61578 0.40788 0.0
H462 H 0.14205 0.52069 0.62225 0.0
H463 H 0.16811 0.53615 0.40205 0.0
H464 H 0.17342 0.39426 0.46434 0.0
H465 H 0.17457 0.47407 0.46863 0.0
H466 H 0.13375 0.45799 0.54311 0.0
H467 H 0.13284 0.3786 0.54277 0.0
C468 C 0.14768 0.58604 0.5761 0.0
C469 C 0.15504 0.61377 0.51626 0.0
C470 C 0.14771 0.54072 0.57404 0.0
C471 C 0.15492 0.52162 0.51103 0.0
C472 C 0.16251 0.54956 0.45202 0.0
C473 C 0.16264 0.59521 0.45503 0.0
C474 C 0.16471 0.40789 0.48166 0.0
C475 C 0.15307 0.38014 0.50386 0.0
C476 C 0.16534 0.4537 0.48364 0.0
C477 C 0.15429 0.4728 0.50683 0.0
C478 C 0.14258 0.44475 0.52713 0.0
C479 C 0.14201 0.39908 0.5264 0.0
H480 H 0.63241 0.58765 0.07157 0.0
H481 H 0.6743 0.61075 0.0309 0.0
H482 H 0.63234 0.50888 0.06048 0.0
H483 H 0.67434 0.53153 0.02331 0.0
H484 H 0.66762 0.38906 0.92346 0.0
H485 H 0.6682 0.46845 0.93531 0.0
H486 H 0.6382 0.44811 0.13216 0.0
H487 H 0.63726 0.36903 0.1175 0.0
C488 C 0.64166 0.57589 0.0615 0.0
C489 C 0.65336 0.60559 0.05228 0.0
C490 C 0.64163 0.53054 0.05553 0.0
C491 C 0.65334 0.51352 0.04125 0.0
C492 C 0.6651 0.5433 0.03296 0.0
C493 C 0.66509 0.58878 0.03795 0.0
C494 C 0.66115 0.40161 0.96917 0.0
C495 C 0.65233 0.37266 1.01902 0.0
C496 C 0.66154 0.44721 0.97647 0.0
C497 C 0.65321 0.46498 0.03453 0.0
C498 C 0.64456 0.43584 0.08535 0.0
C499 C 0.64407 0.39034 0.07728 0.0
H500 H 0.40653 0.88214 0.93333 0.0
H501 H 0.37908 0.87006 0.14552 0.0
H502 H 0.4059 0.96041 0.92659 0.0
H503 H 0.37891 0.94946 0.14181 0.0
H504 H 0.37274 0.08787 0.05896 0.0
H505 H 0.37221 0.00836 0.06506 0.0
H506 H 0.4134 0.02584 0.99933 0.0
H507 H 0.4137 0.10472 0.98924 0.0
C508 C 0.40044 0.89636 0.97931 0.0
C509 C 0.39292 0.86992 0.04041 0.0
C510 C 0.40015 0.94147 0.97584 0.0
C511 C 0.3925 0.96171 0.03443 0.0
C512 C 0.38482 0.9351 0.09505 0.0
C513 C 0.38496 0.8896 0.09759 0.0
C514 C 0.38166 0.0746 0.04565 0.0
C515 C 0.39324 0.10254 0.02287 0.0
C516 C 0.38139 0.02899 0.04972 0.0
C517 C 0.39273 0.01035 0.03217 0.0
C518 C 0.40436 0.03865 1.01111 0.0
C519 C 0.40458 0.08405 1.00577 0.0
H520 H 0.3814 0.37004 0.91344 0.0
H521 H 0.41241 0.38403 0.1037 0.0
H522 H 0.38213 0.44941 0.91274 0.0
H523 H 0.41279 0.46343 0.10585 0.0
H524 H 0.41821 0.60875 0.03597 0.0
H525 H 0.41848 0.52967 0.02848 0.0
H526 H 0.37635 0.50698 0.99721 0.0
H527 H 0.37618 0.58578 1.0012 0.0
C528 C 0.38832 0.39005 0.95563 0.0
C529 C 0.39682 0.37062 1.00879 0.0
C530 C 0.38869 0.43567 0.95564 0.0
C531 C 0.39746 0.46311 1.00968 0.0
C532 C 0.40603 0.44359 0.06241 0.0
C533 C 0.40577 0.39794 0.06162 0.0
C534 C 0.40902 0.58683 0.02717 0.0
C535 C 0.39718 0.60367 1.01888 0.0
C536 C 0.40915 0.54139 0.02339 0.0
C537 C 0.39744 0.51165 1.01216 0.0
C538 C 0.38561 0.52869 1.00413 0.0
C539 C 0.3855 0.57404 1.00692 0.0
H540 H 0.62889 0.08818 0.97541 0.0
H541 H 0.67026 0.1083 0.0351 0.0
H542 H 0.62832 0.00872 0.98372 0.0
H543 H 0.66987 0.02921 0.03941 0.0
H544 H 0.66331 0.88959 0.13236 0.0
H545 H 0.66289 0.96806 0.12459 0.0
H546 H 0.63445 0.94567 0.91754 0.0
H547 H 0.63445 0.86647 0.92849 0.0
C548 C 0.63789 0.0756 0.98941 0.0
C549 C 0.6496 0.10456 1.00526 0.0
C550 C 0.63759 0.02997 0.99371 0.0
C551 C 0.64903 0.01221 1.01288 0.0
C552 C 0.66078 0.04142 0.02671 0.0
C553 C 0.66104 0.08692 0.02367 0.0
C554 C 0.65694 0.90135 0.08521 0.0
C555 C 0.64895 0.87176 0.0308 0.0
C556 C 0.65677 0.94655 0.08025 0.0
C557 C 0.64876 0.96362 1.01967 0.0
C558 C 0.64064 0.93388 0.96569 0.0
C559 C 0.64068 0.88843 0.97161 0.0
H560 H 0.13113 0.25984 0.22303 0.0
H561 H 0.17023 0.22588 0.22539 0.0
H562 H 0.13161 0.26128 0.06568 0.0
H563 H 0.17056 0.22648 0.06829 0.0
H564 H 0.17179 0.27836 0.79088 0.0
H565 H 0.17144 0.2779 0.94852 0.0
H566 H 0.13139 0.21121 0.9436 0.0
H567 H 0.13161 0.2124 0.78676 0.0
C568 C 0.1398 0.2524 0.19014 0.0
C569 C 0.15064 0.24276 0.23704 0.0
C570 C 0.14004 0.25306 0.09989 0.0
C571 C 0.15113 0.24404 0.05448 0.0
C572 C 0.16194 0.23421 0.10134 0.0
C573 C 0.16171 0.23357 0.19153 0.0
C574 C 0.1629 0.2636 0.82341 0.0
C575 C 0.15172 0.24551 0.776 0.0
C576 C 0.16273 0.26315 0.91376 0.0
C577 C 0.15137 0.24459 0.95857 0.0
C578 C 0.14023 0.22637 0.91111 0.0
C579 C 0.14039 0.22683 0.82099 0.0
H580 H 0.91524 0.27843 0.23742 0.0
H581 H 0.8757 0.20722 0.23788 0.0
H582 H 0.91485 0.28023 0.08013 0.0
H583 H 0.87542 0.20847 0.08038 0.0
H584 H 0.87499 0.26002 0.8019 0.0
H585 H 0.87514 0.25948 0.95972 0.0
H586 H 0.91476 0.23072 0.95696 0.0
H587 H 0.91472 0.23192 0.79988 0.0
C588 C 0.90648 0.26299 0.20414 0.0
C589 C 0.89551 0.24262 0.25066 0.0
C590 C 0.90628 0.26384 0.11376 0.0
C591 C 0.8951 0.24447 0.06747 0.0
C592 C 0.88413 0.22418 0.11394 0.0
C593 C 0.88433 0.22319 0.20437 0.0
C594 C 0.88374 0.25368 0.83492 0.0
C595 C 0.89484 0.24607 0.78791 0.0
C596 C 0.8838 0.2531 0.92546 0.0
C597 C 0.89497 0.24509 0.97114 0.0
C598 C 0.90606 0.23759 0.92402 0.0
C599 C 0.90599 0.23803 0.8337 0.0
H600 H 0.13268 0.70343 0.24257 0.0
H601 H 0.17067 0.78544 0.24224 0.0
H602 H 0.13223 0.70546 0.08487 0.0
H603 H 0.17012 0.78792 0.08514 0.0
H604 H 0.17138 0.74145 0.80479 0.0
H605 H 0.17137 0.73963 0.96172 0.0
H606 H 0.13059 0.75603 0.96406 0.0
H607 H 0.13051 0.75723 0.80606 0.0
C608 C 0.14094 0.72189 0.20903 0.0
C609 C 0.15174 0.74412 0.25538 0.0
C610 C 0.14063 0.72333 0.11855 0.0
C611 C 0.15114 0.74683 0.07216 0.0
C612 C 0.16193 0.76903 0.1186 0.0
C613 C 0.16221 0.76775 0.20892 0.0
C614 C 0.16239 0.74476 0.83842 0.0
C615 C 0.15094 0.74953 0.79237 0.0
C616 C 0.16241 0.74395 0.92872 0.0
C617 C 0.151 0.74779 0.97575 0.0
C618 C 0.13953 0.75255 0.92988 0.0
C619 C 0.13951 0.75354 0.83926 0.0
H620 H 0.91707 0.7762 0.80515 0.0
H621 H 0.87678 0.71134 0.80139 0.0
H622 H 0.91673 0.7762 0.96273 0.0
H623 H 0.87657 0.71066 0.95838 0.0
H624 H 0.87656 0.76044 0.23768 0.0
H625 H 0.87697 0.76133 0.08023 0.0
H626 H 0.91571 0.72488 0.08286 0.0
H627 H 0.91545 0.72478 0.24 0.0
C628 C 0.90817 0.76178 0.83774 0.0
C629 C 0.89696 0.74384 0.79042 0.0
C630 C 0.90799 0.76159 0.92809 0.0
C631 C 0.89661 0.74348 0.97308 0.0
C632 C 0.88543 0.72544 0.92573 0.0
C633 C 0.8856 0.7256 0.83556 0.0
C634 C 0.88516 0.75257 0.20476 0.0
C635 C 0.89597 0.74257 0.25164 0.0
C636 C 0.88537 0.7529 0.11446 0.0
C637 C 0.89639 0.74323 0.06903 0.0
C638 C 0.90716 0.73309 0.11591 0.0
C639 C 0.90696 0.73275 0.20611 0.0
H640 H 0.63236 0.74997 0.32826 0.0
H641 H 0.67233 0.72422 0.3293 0.0
H642 H 0.63235 0.75123 0.48542 0.0
H643 H 0.67222 0.72485 0.48715 0.0
H644 H 0.67141 0.77705 0.76701 0.0
H645 H 0.67169 0.77582 0.6094 0.0
H646 H 0.63257 0.70172 0.60714 0.0
H647 H 0.63218 0.70344 0.76445 0.0
C648 C 0.64115 0.7444 0.36189 0.0
C649 C 0.65235 0.73698 0.3158 0.0
C650 C 0.6411 0.74488 0.45224 0.0
C651 C 0.65227 0.73806 0.4991 0.0
C652 C 0.6635 0.73068 0.45312 0.0
C653 C 0.66353 0.73005 0.36255 0.0
C654 C 0.66285 0.76057 0.73302 0.0
C655 C 0.65176 0.74046 0.77875 0.0
C656 C 0.66305 0.7596 0.64253 0.0
C657 C 0.65215 0.73867 0.59547 0.0
C658 C 0.64107 0.71861 0.64122 0.0
C659 C 0.64088 0.71943 0.73162 0.0
H660 H 0.376 0.74367 0.75783 0.0
H661 H 0.41661 0.72472 0.75612 0.0
H662 H 0.37596 0.74518 0.60087 0.0
H663 H 0.41648 0.72558 0.59819 0.0
H664 H 0.41477 0.77782 0.31968 0.0
H665 H 0.41518 0.77612 0.47733 0.0
H666 H 0.37684 0.69652 0.4776 0.0
H667 H 0.37631 0.69871 0.32043 0.0
C668 C 0.38493 0.73961 0.72411 0.0
C669 C 0.39631 0.73404 0.77003 0.0
C670 C 0.38487 0.74023 0.6338 0.0
C671 C 0.3962 0.7354 0.58669 0.0
C672 C 0.40761 0.72985 0.63244 0.0
C673 C 0.40766 0.72907 0.72303 0.0
C674 C 0.4064 0.76005 0.35331 0.0
C675 C 0.39548 0.73854 0.30709 0.0
C676 C 0.40669 0.7588 0.44377 0.0
C677 C 0.39605 0.73619 0.4903 0.0
C678 C 0.38514 0.71471 0.444 0.0
C679 C 0.38487 0.71582 0.35366 0.0
H680 H 0.63089 0.25281 0.28545 0.0
H681 H 0.67068 0.2259 0.28243 0.0
H682 H 0.63123 0.25423 0.44276 0.0
H683 H 0.67082 0.22413 0.43942 0.0
H684 H 0.67216 0.2633 0.72138 0.0
H685 H 0.67192 0.2653 0.56418 0.0
H686 H 0.63054 0.21232 0.56527 0.0
H687 H 0.63071 0.21346 0.72232 0.0
C688 C 0.63965 0.24662 0.31873 0.0
C689 C 0.65077 0.2394 0.27205 0.0
C690 C 0.63984 0.24709 0.40904 0.0
C691 C 0.65105 0.23919 0.4547 0.0
C692 C 0.66211 0.23139 0.40723 0.0
C693 C 0.66201 0.23205 0.31704 0.0
C694 C 0.66303 0.25219 0.68765 0.0
C695 C 0.65145 0.23839 0.73378 0.0
C696 C 0.66288 0.253 0.59738 0.0
C697 C 0.6512 0.23892 0.55113 0.0
C698 C 0.63967 0.22445 0.59799 0.0
C699 C 0.63976 0.22473 0.6882 0.0
H700 H 0.37479 0.21137 0.29016 0.0
H701 H 0.41593 0.26562 0.29567 0.0
H702 H 0.37444 0.20887 0.44697 0.0
H703 H 0.41548 0.26613 0.45306 0.0
H704 H 0.41436 0.22332 0.73147 0.0
H705 H 0.41461 0.22311 0.57446 0.0
H706 H 0.37461 0.24929 0.57253 0.0
H707 H 0.37419 0.24637 0.72977 0.0
C708 C 0.38373 0.2234 0.32526 0.0
C709 C 0.39539 0.23867 0.28096 0.0
C710 C 0.38352 0.22229 0.41539 0.0
C711 C 0.39492 0.23744 0.46357 0.0
C712 C 0.40656 0.25326 0.41869 0.0
C713 C 0.40683 0.25333 0.32837 0.0
C714 C 0.40562 0.22885 0.69718 0.0
C715 C 0.39425 0.23476 0.74252 0.0
C716 C 0.40578 0.22913 0.60701 0.0
C717 C 0.39466 0.23645 0.55995 0.0
C718 C 0.38329 0.24265 0.60593 0.0
C719 C 0.38304 0.24125 0.69619 0.0
H720 H 0.05104 0.18498 0.55109 0.0
H721 H 0.05621 0.23582 0.29187 0.0
H722 H 0.02769 0.1873 0.54195 0.0
H723 H 0.03269 0.23793 0.2824 0.0
H724 H 0.99418 0.29111 0.35046 0.0
H725 H 1.01696 0.27978 0.34142 0.0
H726 H 1.00726 0.15692 0.47755 0.0
H727 H 0.98463 0.16937 0.49052 0.0
C728 C 0.04716 0.1957 0.49122 0.0
C729 C 0.05556 0.21015 0.42218 0.0
C730 C 0.03371 0.19706 0.48597 0.0
C731 C 0.02823 0.21285 0.41144 0.0
C732 C 0.03657 0.22619 0.34134 0.0
C733 C 0.05006 0.22491 0.34668 0.0
C734 C 0.99689 0.26164 0.37848 0.0
C735 C 0.98753 0.23146 0.42216 0.0
C736 C 1.00996 0.25485 0.37233 0.0
C737 C 1.01404 0.21759 0.40944 0.0
C738 C 1.00455 0.18638 0.44949 0.0
C739 C 0.99149 0.19324 0.45589 0.0
H740 H 0.98825 0.7051 0.70714 0.0
H741 H 0.99706 0.81139 0.5254 0.0
H742 H 1.01161 0.70065 0.71905 0.0
H743 H 1.02025 0.80647 0.53557 0.0
H744 H 0.06244 0.80805 0.60118 0.0
H745 H 0.03961 0.8177 0.62049 0.0
H746 H 0.02836 0.67662 0.63519 0.0
H747 H 0.05119 0.66726 0.62081 0.0
C748 C 0.99517 0.72755 0.6699 0.0
C749 C 0.99078 0.75864 0.61551 0.0
C750 C 1.00857 0.72498 0.6765 0.0
C751 C 1.0179 0.75316 0.62819 0.0
C752 C 1.01346 0.7848 0.57518 0.0
C753 C 1.00011 0.78756 0.56913 0.0
C754 C 0.05513 0.77918 0.61057 0.0
C755 C 0.05866 0.73685 0.60825 0.0
C756 C 0.04199 0.78464 0.62054 0.0
C757 C 0.03205 0.74792 0.62822 0.0
C758 C 0.03569 0.70575 0.63003 0.0
C759 C 0.04881 0.70033 0.62053 0.0
H760 H 0.55962 0.77144 0.87018 0.0
H761 H 0.5508 0.6683 0.05861 0.0
H762 H 0.5363 0.77667 0.85915 0.0
H763 H 0.52764 0.67401 0.04926 0.0
H764 H 0.48538 0.67149 0.98044 0.0
H765 H 0.50825 0.66153 0.96489 0.0
H766 H 0.51954 0.80218 0.94028 0.0
H767 H 0.49669 0.81177 0.95085 0.0
C768 C 0.55271 0.74991 0.90925 0.0
C769 C 0.55709 0.71938 0.96505 0.0
C770 C 0.53933 0.75292 0.90314 0.0
C771 C 0.53 0.72576 0.95332 0.0
C772 C 0.53442 0.69486 1.00818 0.0
C773 C 0.54776 0.69165 1.01377 0.0
C774 C 0.49271 0.70018 0.96977 0.0
C775 C 0.48916 0.74249 0.96797 0.0
C776 C 0.50587 0.69455 0.962 0.0
C777 C 0.51584 0.73108 0.95243 0.0
C778 C 0.5122 0.77317 0.94697 0.0
C779 C 0.49906 0.77875 0.95427 0.0
H780 H 0.49668 0.33422 0.07356 0.0
H781 H 0.48677 0.19827 0.14981 0.0
H782 H 0.5199 0.32828 0.08258 0.0
H783 H 0.50993 0.19305 0.16315 0.0
H784 H 0.55037 0.18176 0.04998 0.0
H785 H 0.52741 0.18917 0.06395 0.0
H786 H 0.5384 0.31951 0.17238 0.0
H787 H 0.56154 0.3121 0.1577 0.0
C788 C 0.49943 0.30323 0.0934 0.0
C789 C 0.48978 0.26663 0.11008 0.0
C790 C 0.51278 0.29996 0.09953 0.0
C791 C 0.51684 0.26002 0.12272 0.0
C792 C 0.50719 0.22411 0.14357 0.0
C793 C 0.49386 0.22732 0.13715 0.0
C794 C 0.54793 0.21171 0.07842 0.0
C795 C 0.55785 0.24626 0.10302 0.0
C796 C 0.53471 0.21598 0.08649 0.0
C797 C 0.53099 0.25491 0.11958 0.0
C798 C 0.5409 0.28926 0.14564 0.0
C799 C 0.55417 0.285 0.13735 0.0
loop_
_geom_bond_atom_site_label_1
_geom_bond_atom_site_label_2
_geom_bond_distance
_geom_bond_site_symmetry_2
_ccdc_geom_bond_type
Tb0 C9 2.764 . S
Tb0 O10 2.325 . S
Tb0 O13 2.303 . S
Tb0 O17 2.322 . S
Tb0 O18 2.349 . S
Tb0 O21 2.415 . S
Tb0 O22 2.399 . S
Tb1 O11 2.322 . S
Tb1 O12 2.349 . S
Tb1 O14 2.415 . S
Tb1 O15 2.399 . S
Tb1 O16 2.325 . S
Tb1 O19 2.303 . S
Tb1 C30 2.764 . S
C2 O18 1.261 . S
C2 O19 1.257 . S
C3 C6 1.358 . S
C3 C7 1.332 . S
C3 C9 1.504 . S
C4 C5 1.373 . S
C4 C8 1.308 . S
C5 C4 1.373 . S
C5 C6 1.429 . S
C5 H32 0.932 . S
C6 C3 1.358 . S
C6 C5 1.429 . S
C6 H33 0.930 . S
C7 C3 1.332 . S
C7 C8 1.394 . S
C7 H34 0.932 . S
C8 C4 1.308 . S
C8 C7 1.394 . S
C8 H35 0.929 . S
C9 Tb0 2.764 . S
C9 C3 1.504 . S
C9 O21 1.239 . S
C9 O22 1.263 . S
O10 Tb0 2.325 . S
O10 C20 1.236 . S
O11 Tb1 2.322 . S
O11 C20 1.257 . S
O12 Tb1 2.349 . S
O12 C23 1.261 . S
O13 Tb0 2.303 . S
O13 C23 1.257 . S
O14 Tb1 2.415 . S
O14 C30 1.239 . S
O15 Tb1 2.399 . S
O15 C30 1.263 . S
O16 Tb1 2.325 . S
O16 C31 1.236 . S
O17 Tb0 2.322 . S
O17 C31 1.257 . S
O18 Tb0 2.349 . S
O18 C2 1.261 . S
O19 Tb1 2.303 . S
O19 C2 1.257 . S
C20 O10 1.236 . S
C20 O11 1.257 . S
O21 Tb0 2.415 . S
O21 C9 1.239 . S
O22 Tb0 2.399 . S
O22 C9 1.263 . S
C23 O12 1.261 . S
C23 O13 1.257 . S
C24 C27 1.358 . S
C24 C28 1.332 . S
C24 C30 1.504 . S
C25 C26 1.373 . S
C25 C29 1.308 . S
C26 C25 1.373 . S
C26 C27 1.429 . S
C26 H36 0.932 . S
C27 C24 1.358 . S
C27 C26 1.429 . S
C27 H37 0.930 . S
C28 C24 1.332 . S
C28 C29 1.394 . S
C28 H38 0.932 . S
C29 C25 1.308 . S
C29 C28 1.394 . S
C29 H39 0.929 . S
C30 Tb1 2.764 . S
C30 O14 1.239 . S
C30 O15 1.263 . S
C30 C24 1.504 . S
C31 O16 1.236 . S
C31 O17 1.257 . S
H32 C5 0.932 . S
H33 C6 0.930 . S
H34 C7 0.932 . S
H35 C8 0.929 . S
H36 C26 0.932 . S
H37 C27 0.930 . S
H38 C28 0.932 . S
H39 C29 0.929 . S
Tb40 C49 2.764 . S
Tb40 O50 2.325 . S
Tb40 O53 2.303 . S
Tb40 O57 2.322 . S
Tb40 O58 2.349 . S
Tb40 O61 2.415 . S
Tb40 O62 2.399 . S
Tb41 O51 2.322 . S
Tb41 O52 2.349 . S
Tb41 O54 2.415 . S
Tb41 O55 2.399 . S
Tb41 O56 2.325 . S
Tb41 O59 2.303 . S
Tb41 C70 2.764 . S
C42 O58 1.261 . S
C42 O59 1.257 . S
C43 C46 1.358 . S
C43 C47 1.332 . S
C43 C49 1.504 . S
C44 C45 1.373 . S
C44 C48 1.308 . S
C45 C44 1.373 . S
C45 C46 1.429 . S
C45 H72 0.932 . S
C46 C43 1.358 . S
C46 C45 1.429 . S
C46 H73 0.930 . S
C47 C43 1.332 . S
C47 C48 1.394 . S
C47 H74 0.932 . S
C48 C44 1.308 . S
C48 C47 1.394 . S
C48 H75 0.929 . S
C49 Tb40 2.764 . S
C49 C43 1.504 . S
C49 O61 1.239 . S
C49 O62 1.263 . S
O50 Tb40 2.325 . S
O50 C60 1.236 . S
O51 Tb41 2.322 . S
O51 C60 1.257 . S
O52 Tb41 2.349 . S
O52 C63 1.261 . S
O53 Tb40 2.303 . S
O53 C63 1.257 . S
O54 Tb41 2.415 . S
O54 C70 1.239 . S
O55 Tb41 2.399 . S
O55 C70 1.263 . S
O56 Tb41 2.325 . S
O56 C71 1.236 . S
O57 Tb40 2.322 . S
O57 C71 1.257 . S
O58 Tb40 2.349 . S
O58 C42 1.261 . S
O59 Tb41 2.303 . S
O59 C42 1.257 . S
C60 O50 1.236 . S
C60 O51 1.257 . S
O61 Tb40 2.415 . S
O61 C49 1.239 . S
O62 Tb40 2.399 . S
O62 C49 1.263 . S
C63 O52 1.261 . S
C63 O53 1.257 . S
C64 C67 1.358 . S
C64 C68 1.332 . S
C64 C70 1.504 . S
C65 C66 1.373 . S
C65 C69 1.308 . S
C66 C65 1.373 . S
C66 C67 1.429 . S
C66 H76 0.932 . S
C67 C64 1.358 . S
C67 C66 1.429 . S
C67 H77 0.930 . S
C68 C64 1.332 . S
C68 C69 1.394 . S
C68 H78 0.932 . S
C69 C65 1.308 . S
C69 C68 1.394 . S
C69 H79 0.929 . S
C70 Tb41 2.764 . S
C70 O54 1.239 . S
C70 O55 1.263 . S
C70 C64 1.504 . S
C71 O56 1.236 . S
C71 O57 1.257 . S
H72 C45 0.932 . S
H73 C46 0.930 . S
H74 C47 0.932 . S
H75 C48 0.929 . S
H76 C66 0.932 . S
H77 C67 0.930 . S
H78 C68 0.932 . S
H79 C69 0.929 . S
Tb80 C89 2.764 . S
Tb80 O90 2.325 . S
Tb80 O93 2.303 . S
Tb80 O97 2.322 . S
Tb80 O98 2.349 . S
Tb80 O101 2.415 . S
Tb80 O102 2.399 . S
Tb81 O91 2.322 . S
Tb81 O92 2.349 . S
Tb81 O94 2.415 . S
Tb81 O95 2.399 . S
Tb81 O96 2.325 . S
Tb81 O99 2.303 . S
Tb81 C110 2.764 . S
C82 O98 1.261 . S
C82 O99 1.257 . S
C83 C86 1.358 . S
C83 C87 1.332 . S
C83 C89 1.504 . S
C84 C85 1.373 . S
C84 C88 1.308 . S
C85 C84 1.373 . S
C85 C86 1.429 . S
C85 H112 0.932 . S
C86 C83 1.358 . S
C86 C85 1.429 . S
C86 H113 0.930 . S
C87 C83 1.332 . S
C87 C88 1.394 . S
C87 H114 0.932 . S
C88 C84 1.308 . S
C88 C87 1.394 . S
C88 H115 0.929 . S
C89 Tb80 2.764 . S
C89 C83 1.504 . S
C89 O101 1.239 . S
C89 O102 1.263 . S
O90 Tb80 2.325 . S
O90 C100 1.236 . S
O91 Tb81 2.322 . S
O91 C100 1.257 . S
O92 Tb81 2.349 . S
O92 C103 1.261 . S
O93 Tb80 2.303 . S
O93 C103 1.257 . S
O94 Tb81 2.415 . S
O94 C110 1.239 . S
O95 Tb81 2.399 . S
O95 C110 1.263 . S
O96 Tb81 2.325 . S
O96 C111 1.236 . S
O97 Tb80 2.322 . S
O97 C111 1.257 . S
O98 Tb80 2.349 . S
O98 C82 1.261 . S
O99 Tb81 2.303 . S
O99 C82 1.257 . S
C100 O90 1.236 . S
C100 O91 1.257 . S
O101 Tb80 2.415 . S
O101 C89 1.239 . S
O102 Tb80 2.399 . S
O102 C89 1.263 . S
C103 O92 1.261 . S
C103 O93 1.257 . S
C104 C107 1.358 . S
C104 C108 1.332 . S
C104 C110 1.504 . S
C105 C106 1.373 . S
C105 C109 1.308 . S
C106 C105 1.373 . S
C106 C107 1.429 . S
C106 H116 0.932 . S
C107 C104 1.358 . S
C107 C106 1.429 . S
C107 H117 0.930 . S
C108 C104 1.332 . S
C108 C109 1.394 . S
C108 H118 0.932 . S
C109 C105 1.308 . S
C109 C108 1.394 . S
C109 H119 0.929 . S
C110 Tb81 2.764 . S
C110 O94 1.239 . S
C110 O95 1.263 . S
C110 C104 1.504 . S
C111 O96 1.236 . S
C111 O97 1.257 . S
H112 C85 0.932 . S
H113 C86 0.930 . S
H114 C87 0.932 . S
H115 C88 0.929 . S
H116 C106 0.932 . S
H117 C107 0.930 . S
H118 C108 0.932 . S
H119 C109 0.929 . S
Tb120 C129 2.764 . S
Tb120 O130 2.325 . S
Tb120 O133 2.303 . S
Tb120 O137 2.322 . S
Tb120 O138 2.349 . S
Tb120 O141 2.415 . S
Tb120 O142 2.399 . S
Tb121 O131 2.322 . S
Tb121 O132 2.349 . S
Tb121 O134 2.415 . S
Tb121 O135 2.399 . S
Tb121 O136 2.325 . S
Tb121 O139 2.303 . S
Tb121 C150 2.764 . S
C122 O138 1.261 . S
C122 O139 1.257 . S
C123 C126 1.358 . S
C123 C127 1.332 . S
C123 C129 1.504 . S
C124 C125 1.373 . S
C124 C128 1.308 . S
C125 C124 1.373 . S
C125 C126 1.429 . S
C125 H152 0.932 . S
C126 C123 1.358 . S
C126 C125 1.429 . S
C126 H153 0.930 . S
C127 C123 1.332 . S
C127 C128 1.394 . S
C127 H154 0.932 . S
C128 C124 1.308 . S
C128 C127 1.394 . S
C128 H155 0.929 . S
C129 Tb120 2.764 . S
C129 C123 1.504 . S
C129 O141 1.239 . S
C129 O142 1.263 . S
O130 Tb120 2.325 . S
O130 C140 1.236 . S
O131 Tb121 2.322 . S
O131 C140 1.257 . S
O132 Tb121 2.349 . S
O132 C143 1.261 . S
O133 Tb120 2.303 . S
O133 C143 1.257 . S
O134 Tb121 2.415 . S
O134 C150 1.239 . S
O135 Tb121 2.399 . S
O135 C150 1.263 . S
O136 Tb121 2.325 . S
O136 C151 1.236 . S
O137 Tb120 2.322 . S
O137 C151 1.257 . S
O138 Tb120 2.349 . S
O138 C122 1.261 . S
O139 Tb121 2.303 . S
O139 C122 1.257 . S
C140 O130 1.236 . S
C140 O131 1.257 . S
O141 Tb120 2.415 . S
O141 C129 1.239 . S
O142 Tb120 2.399 . S
O142 C129 1.263 . S
C143 O132 1.261 . S
C143 O133 1.257 . S
C144 C147 1.358 . S
C144 C148 1.332 . S
C144 C150 1.504 . S
C145 C146 1.373 . S
C145 C149 1.308 . S
C146 C145 1.373 . S
C146 C147 1.429 . S
C146 H156 0.932 . S
C147 C144 1.358 . S
C147 C146 1.429 . S
C147 H157 0.930 . S
C148 C144 1.332 . S
C148 C149 1.394 . S
C148 H158 0.932 . S
C149 C145 1.308 . S
C149 C148 1.394 . S
C149 H159 0.929 . S
C150 Tb121 2.764 . S
C150 O134 1.239 . S
C150 O135 1.263 . S
C150 C144 1.504 . S
C151 O136 1.236 . S
C151 O137 1.257 . S
H152 C125 0.932 . S
H153 C126 0.930 . S
H154 C127 0.932 . S
H155 C128 0.929 . S
H156 C146 0.932 . S
H157 C147 0.930 . S
H158 C148 0.932 . S
H159 C149 0.929 . S
Tb160 C169 2.764 1_556 S
Tb160 O170 2.325 1_556 S
Tb160 O173 2.303 . S
Tb160 O177 2.322 . S
Tb160 O178 2.349 . S
Tb160 O181 2.415 1_556 S
Tb160 O182 2.399 1_556 S
Tb161 O171 2.322 . S
Tb161 O172 2.349 . S
Tb161 O174 2.415 1_554 S
Tb161 O175 2.399 1_554 S
Tb161 O176 2.325 1_554 S
Tb161 O179 2.303 . S
Tb161 C190 2.764 1_554 S
C162 O178 1.261 . S
C162 O179 1.257 1_556 S
C163 C166 1.358 . S
C163 C167 1.332 . S
C163 C169 1.504 . S
C164 C165 1.373 . S
C164 C168 1.308 . S
C165 C164 1.373 . S
C165 C166 1.429 . S
C165 H192 0.932 . S
C166 C163 1.358 . S
C166 C165 1.429 . S
C166 H193 0.930 . S
C167 C163 1.332 . S
C167 C168 1.394 . S
C167 H194 0.932 . S
C168 C164 1.308 . S
C168 C167 1.394 . S
C168 H195 0.929 . S
C169 Tb160 2.764 1_554 S
C169 C163 1.504 . S
C169 O181 1.239 . S
C169 O182 1.263 . S
O170 Tb160 2.325 1_554 S
O170 C180 1.236 . S
O171 Tb161 2.322 . S
O171 C180 1.257 . S
O172 Tb161 2.349 . S
O172 C183 1.261 . S
O173 Tb160 2.303 . S
O173 C183 1.257 1_556 S
O174 Tb161 2.415 1_556 S
O174 C190 1.239 . S
O175 Tb161 2.399 1_556 S
O175 C190 1.263 . S
O176 Tb161 2.325 1_556 S
O176 C191 1.236 . S
O177 Tb160 2.322 . S
O177 C191 1.257 . S
O178 Tb160 2.349 . S
O178 C162 1.261 . S
O179 Tb161 2.303 . S
O179 C162 1.257 1_554 S
C180 O170 1.236 . S
C180 O171 1.257 . S
O181 Tb160 2.415 1_554 S
O181 C169 1.239 . S
O182 Tb160 2.399 1_554 S
O182 C169 1.263 . S
C183 O172 1.261 . S
C183 O173 1.257 1_554 S
C184 C187 1.358 . S
C184 C188 1.332 . S
C184 C190 1.504 . S
C185 C186 1.373 . S
C185 C189 1.308 . S
C186 C185 1.373 . S
C186 C187 1.429 . S
C186 H196 0.932 . S
C187 C184 1.358 . S
C187 C186 1.429 . S
C187 H197 0.930 . S
C188 C184 1.332 . S
C188 C189 1.394 . S
C188 H198 0.932 . S
C189 C185 1.308 . S
C189 C188 1.394 . S
C189 H199 0.929 . S
C190 Tb161 2.764 1_556 S
C190 O174 1.239 . S
C190 O175 1.263 . S
C190 C184 1.504 . S
C191 O176 1.236 . S
C191 O177 1.257 . S
H192 C165 0.932 . S
H193 C166 0.930 . S
H194 C167 0.932 . S
H195 C168 0.929 . S
H196 C186 0.932 . S
H197 C187 0.930 . S
H198 C188 0.932 . S
H199 C189 0.929 . S
Tb200 C209 2.764 1_556 S
Tb200 O210 2.325 1_556 S
Tb200 O213 2.303 . S
Tb200 O217 2.322 . S
Tb200 O218 2.349 . S
Tb200 O221 2.415 1_556 S
Tb200 O222 2.399 1_556 S
Tb201 O211 2.322 . S
Tb201 O212 2.349 . S
Tb201 O214 2.415 1_554 S
Tb201 O215 2.399 1_554 S
Tb201 O216 2.325 1_554 S
Tb201 O219 2.303 . S
Tb201 C230 2.764 1_554 S
C202 O218 1.261 . S
C202 O219 1.257 1_556 S
C203 C206 1.358 . S
C203 C207 1.332 . S
C203 C209 1.504 . S
C204 C205 1.373 . S
C204 C208 1.308 . S
C205 C204 1.373 . S
C205 C206 1.429 . S
C205 H232 0.932 . S
C206 C203 1.358 . S
C206 C205 1.429 . S
C206 H233 0.930 . S
C207 C203 1.332 . S
C207 C208 1.394 . S
C207 H234 0.932 . S
C208 C204 1.308 . S
C208 C207 1.394 . S
C208 H235 0.929 . S
C209 Tb200 2.764 1_554 S
C209 C203 1.504 . S
C209 O221 1.239 . S
C209 O222 1.263 . S
O210 Tb200 2.325 1_554 S
O210 C220 1.236 . S
O211 Tb201 2.322 . S
O211 C220 1.257 . S
O212 Tb201 2.349 . S
O212 C223 1.261 . S
O213 Tb200 2.303 . S
O213 C223 1.257 1_556 S
O214 Tb201 2.415 1_556 S
O214 C230 1.239 . S
O215 Tb201 2.399 1_556 S
O215 C230 1.263 . S
O216 Tb201 2.325 1_556 S
O216 C231 1.236 . S
O217 Tb200 2.322 . S
O217 C231 1.257 . S
O218 Tb200 2.349 . S
O218 C202 1.261 . S
O219 Tb201 2.303 . S
O219 C202 1.257 1_554 S
C220 O210 1.236 . S
C220 O211 1.257 . S
O221 Tb200 2.415 1_554 S
O221 C209 1.239 . S
O222 Tb200 2.399 1_554 S
O222 C209 1.263 . S
C223 O212 1.261 . S
C223 O213 1.257 1_554 S
C224 C227 1.358 . S
C224 C228 1.332 . S
C224 C230 1.504 . S
C225 C226 1.373 . S
C225 C229 1.308 . S
C226 C225 1.373 . S
C226 C227 1.429 . S
C226 H236 0.932 . S
C227 C224 1.358 . S
C227 C226 1.429 . S
C227 H237 0.930 . S
C228 C224 1.332 . S
C228 C229 1.394 . S
C228 H238 0.932 . S
C229 C225 1.308 . S
C229 C228 1.394 . S
C229 H239 0.929 . S
C230 Tb201 2.764 1_556 S
C230 O214 1.239 . S
C230 O215 1.263 . S
C230 C224 1.504 . S
C231 O216 1.236 . S
C231 O217 1.257 . S
H232 C205 0.932 . S
H233 C206 0.930 . S
H234 C207 0.932 . S
H235 C208 0.929 . S
H236 C226 0.932 . S
H237 C227 0.930 . S
H238 C228 0.932 . S
H239 C229 0.929 . S
Tb240 C249 2.764 1_556 S
Tb240 O250 2.325 1_556 S
Tb240 O253 2.303 . S
Tb240 O257 2.322 . S
Tb240 O258 2.349 . S
Tb240 O261 2.415 1_556 S
Tb240 O262 2.399 1_556 S
Tb241 O251 2.322 . S
Tb241 O252 2.349 . S
Tb241 O254 2.415 1_554 S
Tb241 O255 2.399 1_554 S
Tb241 O256 2.325 1_554 S
Tb241 O259 2.303 . S
Tb241 C270 2.764 1_554 S
C242 O258 1.261 . S
C242 O259 1.257 1_556 S
C243 C246 1.358 . S
C243 C247 1.332 . S
C243 C249 1.504 . S
C244 C245 1.373 . S
C244 C248 1.308 . S
C245 C244 1.373 . S
C245 C246 1.429 . S
C245 H272 0.932 . S
C246 C243 1.358 . S
C246 C245 1.429 . S
C246 H273 0.930 . S
C247 C243 1.332 . S
C247 C248 1.394 . S
C247 H274 0.932 . S
C248 C244 1.308 . S
C248 C247 1.394 . S
C248 H275 0.929 . S
C249 Tb240 2.764 1_554 S
C249 C243 1.504 . S
C249 O261 1.239 . S
C249 O262 1.263 . S
O250 Tb240 2.325 1_554 S
O250 C260 1.236 . S
O251 Tb241 2.322 . S
O251 C260 1.257 . S
O252 Tb241 2.349 . S
O252 C263 1.261 . S
O253 Tb240 2.303 . S
O253 C263 1.257 1_556 S
O254 Tb241 2.415 1_556 S
O254 C270 1.239 . S
O255 Tb241 2.399 1_556 S
O255 C270 1.263 . S
O256 Tb241 2.325 1_556 S
O256 C271 1.236 . S
O257 Tb240 2.322 . S
O257 C271 1.257 . S
O258 Tb240 2.349 . S
O258 C242 1.261 . S
O259 Tb241 2.303 . S
O259 C242 1.257 1_554 S
C260 O250 1.236 . S
C260 O251 1.257 . S
O261 Tb240 2.415 1_554 S
O261 C249 1.239 . S
O262 Tb240 2.399 1_554 S
O262 C249 1.263 . S
C263 O252 1.261 . S
C263 O253 1.257 1_554 S
C264 C267 1.358 . S
C264 C268 1.332 . S
C264 C270 1.504 . S
C265 C266 1.373 . S
C265 C269 1.308 . S
C266 C265 1.373 . S
C266 C267 1.429 . S
C266 H276 0.932 . S
C267 C264 1.358 . S
C267 C266 1.429 . S
C267 H277 0.930 . S
C268 C264 1.332 . S
C268 C269 1.394 . S
C268 H278 0.932 . S
C269 C265 1.308 . S
C269 C268 1.394 . S
C269 H279 0.929 . S
C270 Tb241 2.764 1_556 S
C270 O254 1.239 . S
C270 O255 1.263 . S
C270 C264 1.504 . S
C271 O256 1.236 . S
C271 O257 1.257 . S
H272 C245 0.932 . S
H273 C246 0.930 . S
H274 C247 0.932 . S
H275 C248 0.929 . S
H276 C266 0.932 . S
H277 C267 0.930 . S
H278 C268 0.932 . S
H279 C269 0.929 . S
Tb280 C289 2.764 1_556 S
Tb280 O290 2.325 1_556 S
Tb280 O293 2.303 . S
Tb280 O297 2.322 . S
Tb280 O298 2.349 . S
Tb280 O301 2.415 1_556 S
Tb280 O302 2.399 1_556 S
Tb281 O291 2.322 . S
Tb281 O292 2.349 . S
Tb281 O294 2.415 1_554 S
Tb281 O295 2.399 1_554 S
Tb281 O296 2.325 1_554 S
Tb281 O299 2.303 . S
Tb281 C310 2.764 1_554 S
C282 O298 1.261 . S
C282 O299 1.257 1_556 S
C283 C286 1.358 . S
C283 C287 1.332 . S
C283 C289 1.504 . S
C284 C285 1.373 . S
C284 C288 1.308 . S
C285 C284 1.373 . S
C285 C286 1.429 . S
C285 H312 0.932 . S
C286 C283 1.358 . S
C286 C285 1.429 . S
C286 H313 0.930 . S
C287 C283 1.332 . S
C287 C288 1.394 . S
C287 H314 0.932 . S
C288 C284 1.308 . S
C288 C287 1.394 . S
C288 H315 0.929 . S
C289 Tb280 2.764 1_554 S
C289 C283 1.504 . S
C289 O301 1.239 . S
C289 O302 1.263 . S
O290 Tb280 2.325 1_554 S
O290 C300 1.236 . S
O291 Tb281 2.322 . S
O291 C300 1.257 . S
O292 Tb281 2.349 . S
O292 C303 1.261 . S
O293 Tb280 2.303 . S
O293 C303 1.257 1_556 S
O294 Tb281 2.415 1_556 S
O294 C310 1.239 . S
O295 Tb281 2.399 1_556 S
O295 C310 1.263 . S
O296 Tb281 2.325 1_556 S
O296 C311 1.236 . S
O297 Tb280 2.322 . S
O297 C311 1.257 . S
O298 Tb280 2.349 . S
O298 C282 1.261 . S
O299 Tb281 2.303 . S
O299 C282 1.257 1_554 S
C300 O290 1.236 . S
C300 O291 1.257 . S
O301 Tb280 2.415 1_554 S
O301 C289 1.239 . S
O302 Tb280 2.399 1_554 S
O302 C289 1.263 . S
C303 O292 1.261 . S
C303 O293 1.257 1_554 S
C304 C307 1.358 . S
C304 C308 1.332 . S
C304 C310 1.504 . S
C305 C306 1.373 . S
C305 C309 1.308 . S
C306 C305 1.373 . S
C306 C307 1.429 . S
C306 H316 0.932 . S
C307 C304 1.358 . S
C307 C306 1.429 . S
C307 H317 0.930 . S
C308 C304 1.332 . S
C308 C309 1.394 . S
C308 H318 0.932 . S
C309 C305 1.308 . S
C309 C308 1.394 . S
C309 H319 0.929 . S
C310 Tb281 2.764 1_556 S
C310 O294 1.239 . S
C310 O295 1.263 . S
C310 C304 1.504 . S
C311 O296 1.236 . S
C311 O297 1.257 . S
H312 C285 0.932 . S
H313 C286 0.930 . S
H314 C287 0.932 . S
H315 C288 0.929 . S
H316 C306 0.932 . S
H317 C307 0.930 . S
H318 C308 0.932 . S
H319 C309 0.929 . S
H320 C328 0.950 . S
H321 C333 0.950 . S
H322 C330 0.950 . S
H323 C332 0.950 . S
H324 C334 0.950 . S
H325 C336 0.950 . S
H326 C338 0.950 . S
H327 C339 0.950 . S
C328 H320 0.950 . S
C328 C329 1.386 . S
C328 C330 1.391 . S
C329 C328 1.386 . S
C329 C333 1.393 . S
C330 H322 0.950 . S
C330 C328 1.391 . S
C330 C331 1.400 . S
C331 C330 1.400 . S
C331 C332 1.398 . S
C331 C337 1.491 . S
C332 H323 0.950 . S
C332 C331 1.398 . S
C332 C333 1.391 . S
C333 H321 0.950 . S
C333 C329 1.393 . S
C333 C332 1.391 . S
C334 H324 0.950 . S
C334 C335 1.386 . S
C334 C336 1.391 . S
C335 C334 1.386 . S
C335 C339 1.393 . S
C336 H325 0.950 . S
C336 C334 1.391 . S
C336 C337 1.400 . S
C337 C331 1.491 . S
C337 C336 1.400 . S
C337 C338 1.398 . S
C338 H326 0.950 . S
C338 C337 1.398 . S
C338 C339 1.391 . S
C339 H327 0.950 . S
C339 C335 1.393 . S
C339 C338 1.391 . S
H340 C348 0.950 . S
H341 C353 0.950 . S
H342 C350 0.950 . S
H343 C352 0.950 . S
H344 C354 0.950 . S
H345 C356 0.950 . S
H346 C358 0.950 . S
H347 C359 0.950 . S
C348 H340 0.950 . S
C348 C349 1.386 . S
C348 C350 1.391 . S
C349 C348 1.386 . S
C349 C353 1.393 . S
C350 H342 0.950 . S
C350 C348 1.391 . S
C350 C351 1.400 . S
C351 C350 1.400 . S
C351 C352 1.398 . S
C351 C357 1.491 . S
C352 H343 0.950 . S
C352 C351 1.398 . S
C352 C353 1.391 . S
C353 H341 0.950 . S
C353 C349 1.393 . S
C353 C352 1.391 . S
C354 H344 0.950 . S
C354 C355 1.386 . S
C354 C356 1.391 . S
C355 C354 1.386 . S
C355 C359 1.393 . S
C356 H345 0.950 . S
C356 C354 1.391 . S
C356 C357 1.400 . S
C357 C351 1.491 . S
C357 C356 1.400 . S
C357 C358 1.398 . S
C358 H346 0.950 . S
C358 C357 1.398 . S
C358 C359 1.391 . S
C359 H347 0.950 . S
C359 C355 1.393 . S
C359 C358 1.391 . S
H360 C368 0.950 . S
H361 C373 0.950 . S
H362 C370 0.950 . S
H363 C372 0.950 . S
H364 C374 0.950 . S
H365 C376 0.950 . S
H366 C378 0.950 . S
H367 C379 0.950 . S
C368 H360 0.950 . S
C368 C369 1.386 . S
C368 C370 1.391 . S
C369 C368 1.386 . S
C369 C373 1.393 . S
C370 H362 0.950 . S
C370 C368 1.391 . S
C370 C371 1.400 . S
C371 C370 1.400 . S
C371 C372 1.398 . S
C371 C377 1.491 . S
C372 H363 0.950 . S
C372 C371 1.398 . S
C372 C373 1.391 . S
C373 H361 0.950 . S
C373 C369 1.393 . S
C373 C372 1.391 . S
C374 H364 0.950 . S
C374 C375 1.386 . S
C374 C376 1.391 . S
C375 C374 1.386 . S
C375 C379 1.393 . S
C376 H365 0.950 . S
C376 C374 1.391 . S
C376 C377 1.400 . S
C377 C371 1.491 . S
C377 C376 1.400 . S
C377 C378 1.398 . S
C378 H366 0.950 . S
C378 C377 1.398 . S
C378 C379 1.391 . S
C379 H367 0.950 . S
C379 C375 1.393 . S
C379 C378 1.391 . S
H380 C388 0.950 . S
H381 C393 0.950 . S
H382 C390 0.950 . S
H383 C392 0.950 . S
H384 C394 0.950 . S
H385 C396 0.950 . S
H386 C398 0.950 . S
H387 C399 0.950 . S
C388 H380 0.950 . S
C388 C389 1.386 . S
C388 C390 1.391 . S
C389 C388 1.386 . S
C389 C393 1.393 . S
C390 H382 0.950 . S
C390 C388 1.391 . S
C390 C391 1.400 . S
C391 C390 1.400 . S
C391 C392 1.398 . S
C391 C397 1.491 . S
C392 H383 0.950 . S
C392 C391 1.398 . S
C392 C393 1.391 . S
C393 H381 0.950 . S
C393 C389 1.393 . S
C393 C392 1.391 . S
C394 H384 0.950 . S
C394 C395 1.386 . S
C394 C396 1.391 . S
C395 C394 1.386 . S
C395 C399 1.393 . S
C396 H385 0.950 . S
C396 C394 1.391 . S
C396 C397 1.400 . S
C397 C391 1.491 . S
C397 C396 1.400 . S
C397 C398 1.398 . S
C398 H386 0.950 . S
C398 C397 1.398 . S
C398 C399 1.391 . S
C399 H387 0.950 . S
C399 C395 1.393 . S
C399 C398 1.391 . S
H400 C408 0.950 . S
H401 C413 0.950 . S
H402 C410 0.950 . S
H403 C412 0.950 . S
H404 C414 0.950 . S
H405 C416 0.950 . S
H406 C418 0.950 . S
H407 C419 0.950 . S
C408 H400 0.950 . S
C408 C409 1.386 . S
C408 C410 1.391 . S
C409 C408 1.386 . S
C409 C413 1.393 . S
C410 H402 0.950 . S
C410 C408 1.391 . S
C410 C411 1.400 . S
C411 C410 1.400 . S
C411 C412 1.398 . S
C411 C417 1.491 1_565 S
C412 H403 0.950 . S
C412 C411 1.398 . S
C412 C413 1.391 . S
C413 H401 0.950 . S
C413 C409 1.393 . S
C413 C412 1.391 . S
C414 H404 0.950 . S
C414 C415 1.386 . S
C414 C416 1.391 . S
C415 C414 1.386 . S
C415 C419 1.393 . S
C416 H405 0.950 . S
C416 C414 1.391 . S
C416 C417 1.400 . S
C417 C411 1.491 1_545 S
C417 C416 1.400 . S
C417 C418 1.398 . S
C418 H406 0.950 . S
C418 C417 1.398 . S
C418 C419 1.391 . S
C419 H407 0.950 . S
C419 C415 1.393 . S
C419 C418 1.391 . S
H420 C428 0.950 . S
H421 C433 0.950 . S
H422 C430 0.950 . S
H423 C432 0.950 . S
H424 C434 0.950 . S
H425 C436 0.950 . S
H426 C438 0.950 . S
H427 C439 0.950 . S
C428 H420 0.950 . S
C428 C429 1.386 . S
C428 C430 1.391 . S
C429 C428 1.386 . S
C429 C433 1.393 . S
C430 H422 0.950 . S
C430 C428 1.391 . S
C430 C431 1.400 . S
C431 C430 1.400 . S
C431 C432 1.398 . S
C431 C437 1.491 . S
C432 H423 0.950 . S
C432 C431 1.398 . S
C432 C433 1.391 . S
C433 H421 0.950 . S
C433 C429 1.393 . S
C433 C432 1.391 . S
C434 H424 0.950 . S
C434 C435 1.386 . S
C434 C436 1.391 . S
C435 C434 1.386 . S
C435 C439 1.393 . S
C436 H425 0.950 . S
C436 C434 1.391 . S
C436 C437 1.400 . S
C437 C431 1.491 . S
C437 C436 1.400 . S
C437 C438 1.398 . S
C438 H426 0.950 . S
C438 C437 1.398 . S
C438 C439 1.391 . S
C439 H427 0.950 . S
C439 C435 1.393 . S
C439 C438 1.391 . S
H440 C448 0.950 . S
H441 C453 0.950 . S
H442 C450 0.950 . S
H443 C452 0.950 . S
H444 C454 0.950 . S
H445 C456 0.950 . S
H446 C458 0.950 . S
H447 C459 0.950 . S
C448 H440 0.950 . S
C448 C449 1.386 . S
C448 C450 1.391 . S
C449 C448 1.386 . S
C449 C453 1.393 . S
C450 H442 0.950 . S
C450 C448 1.391 . S
C450 C451 1.400 . S
C451 C450 1.400 . S
C451 C452 1.398 . S
C451 C457 1.491 1_565 S
C452 H443 0.950 . S
C452 C451 1.398 . S
C452 C453 1.391 . S
C453 H441 0.950 . S
C453 C449 1.393 . S
C453 C452 1.391 . S
C454 H444 0.950 . S
C454 C455 1.386 . S
C454 C456 1.391 . S
C455 C454 1.386 . S
C455 C459 1.393 . S
C456 H445 0.950 . S
C456 C454 1.391 . S
C456 C457 1.400 . S
C457 C451 1.491 1_545 S
C457 C456 1.400 . S
C457 C458 1.398 . S
C458 H446 0.950 . S
C458 C457 1.398 . S
C458 C459 1.391 . S
C459 H447 0.950 . S
C459 C455 1.393 . S
C459 C458 1.391 . S
H460 C468 0.950 . S
H461 C473 0.950 . S
H462 C470 0.950 . S
H463 C472 0.950 . S
H464 C474 0.950 . S
H465 C476 0.950 . S
H466 C478 0.950 . S
H467 C479 0.950 . S
C468 H460 0.950 . S
C468 C469 1.386 . S
C468 C470 1.391 . S
C469 C468 1.386 . S
C469 C473 1.393 . S
C470 H462 0.950 . S
C470 C468 1.391 . S
C470 C471 1.400 . S
C471 C470 1.400 . S
C471 C472 1.398 . S
C471 C477 1.491 . S
C472 H463 0.950 . S
C472 C471 1.398 . S
C472 C473 1.391 . S
C473 H461 0.950 . S
C473 C469 1.393 . S
C473 C472 1.391 . S
C474 H464 0.950 . S
C474 C475 1.386 . S
C474 C476 1.391 . S
C475 C474 1.386 . S
C475 C479 1.393 . S
C476 H465 0.950 . S
C476 C474 1.391 . S
C476 C477 1.400 . S
C477 C471 1.491 . S
C477 C476 1.400 . S
C477 C478 1.398 . S
C478 H466 0.950 . S
C478 C477 1.398 . S
C478 C479 1.391 . S
C479 H467 0.950 . S
C479 C475 1.393 . S
C479 C478 1.391 . S
H480 C488 0.950 . S
H481 C493 0.950 . S
H482 C490 0.950 . S
H483 C492 0.950 . S
H484 C494 0.950 . S
H485 C496 0.950 . S
H486 C498 0.950 . S
H487 C499 0.950 . S
C488 H480 0.950 . S
C488 C489 1.386 1_556 S
C488 C490 1.391 . S
C489 C488 1.386 1_554 S
C489 C493 1.393 . S
C490 H482 0.950 . S
C490 C488 1.391 . S
C490 C491 1.400 1_556 S
C491 C490 1.400 1_554 S
C491 C492 1.398 . S
C491 C497 1.491 . S
C492 H483 0.950 . S
C492 C491 1.398 . S
C492 C493 1.391 . S
C493 H481 0.950 . S
C493 C489 1.393 . S
C493 C492 1.391 . S
C494 H484 0.950 . S
C494 C495 1.386 . S
C494 C496 1.391 . S
C495 C494 1.386 . S
C495 C499 1.393 1_554 S
C496 H485 0.950 . S
C496 C494 1.391 . S
C496 C497 1.400 . S
C497 C491 1.491 . S
C497 C496 1.400 . S
C497 C498 1.398 1_554 S
C498 H486 0.950 . S
C498 C497 1.398 1_556 S
C498 C499 1.391 . S
C499 H487 0.950 . S
C499 C495 1.393 1_556 S
C499 C498 1.391 . S
H500 C508 0.950 . S
H501 C513 0.950 . S
H502 C510 0.950 . S
H503 C512 0.950 . S
H504 C514 0.950 . S
H505 C516 0.950 . S
H506 C518 0.950 . S
H507 C519 0.950 . S
C508 H500 0.950 . S
C508 C509 1.386 1_556 S
C508 C510 1.391 . S
C509 C508 1.386 1_554 S
C509 C513 1.393 . S
C510 H502 0.950 . S
C510 C508 1.391 . S
C510 C511 1.400 1_556 S
C511 C510 1.400 1_554 S
C511 C512 1.398 . S
C511 C517 1.491 1_565 S
C512 H503 0.950 . S
C512 C511 1.398 . S
C512 C513 1.391 . S
C513 H501 0.950 . S
C513 C509 1.393 . S
C513 C512 1.391 . S
C514 H504 0.950 . S
C514 C515 1.386 . S
C514 C516 1.391 . S
C515 C514 1.386 . S
C515 C519 1.393 1_554 S
C516 H505 0.950 . S
C516 C514 1.391 . S
C516 C517 1.400 . S
C517 C511 1.491 1_545 S
C517 C516 1.400 . S
C517 C518 1.398 1_554 S
C518 H506 0.950 . S
C518 C517 1.398 1_556 S
C518 C519 1.391 . S
C519 H507 0.950 . S
C519 C515 1.393 1_556 S
C519 C518 1.391 . S
H520 C528 0.950 . S
H521 C533 0.949 1_554 S
H522 C530 0.950 . S
H523 C532 0.950 1_554 S
H524 C534 0.950 . S
H525 C536 0.950 . S
H526 C538 0.950 . S
H527 C539 0.950 . S
C528 H520 0.950 . S
C528 C529 1.386 . S
C528 C530 1.391 . S
C529 C528 1.386 . S
C529 C533 1.394 . S
C530 H522 0.950 . S
C530 C528 1.391 . S
C530 C531 1.400 . S
C531 C530 1.400 . S
C531 C532 1.398 . S
C531 C537 1.491 . S
C532 H523 0.950 1_556 S
C532 C531 1.398 . S
C532 C533 1.391 . S
C533 H521 0.949 1_556 S
C533 C529 1.394 . S
C533 C532 1.391 . S
C534 H524 0.950 . S
C534 C535 1.386 . S
C534 C536 1.391 . S
C535 C534 1.386 . S
C535 C539 1.393 . S
C536 H525 0.950 . S
C536 C534 1.391 . S
C536 C537 1.400 . S
C537 C531 1.491 . S
C537 C536 1.400 . S
C537 C538 1.398 . S
C538 H526 0.950 . S
C538 C537 1.398 . S
C538 C539 1.391 . S
C539 H527 0.950 . S
C539 C535 1.393 . S
C539 C538 1.391 . S
H540 C548 0.950 . S
H541 C553 0.950 . S
H542 C550 0.950 . S
H543 C552 0.950 . S
H544 C554 0.950 . S
H545 C556 0.950 . S
H546 C558 0.950 . S
H547 C559 0.950 . S
C548 H540 0.950 . S
C548 C549 1.386 . S
C548 C550 1.391 . S
C549 C548 1.386 . S
C549 C553 1.393 1_556 S
C550 H542 0.950 . S
C550 C548 1.391 . S
C550 C551 1.400 . S
C551 C550 1.400 . S
C551 C552 1.398 1_556 S
C551 C557 1.491 1_545 S
C552 H543 0.950 . S
C552 C551 1.398 1_554 S
C552 C553 1.391 . S
C553 H541 0.950 . S
C553 C549 1.393 1_554 S
C553 C552 1.391 . S
C554 H544 0.950 . S
C554 C555 1.386 1_554 S
C554 C556 1.391 . S
C555 C554 1.386 1_556 S
C555 C559 1.393 . S
C556 H545 0.950 . S
C556 C554 1.391 . S
C556 C557 1.400 1_554 S
C557 C551 1.491 1_565 S
C557 C556 1.400 1_556 S
C557 C558 1.398 . S
C558 H546 0.950 . S
C558 C557 1.398 . S
C558 C559 1.391 . S
C559 H547 0.950 . S
C559 C555 1.393 . S
C559 C558 1.391 . S
H560 C568 0.950 . S
H561 C573 0.950 . S
H562 C570 0.950 . S
H563 C572 0.950 . S
H564 C574 0.950 . S
H565 C576 0.950 . S
H566 C578 0.950 . S
H567 C579 0.950 . S
C568 H560 0.950 . S
C568 C569 1.386 . S
C568 C570 1.391 . S
C569 C568 1.386 . S
C569 C573 1.393 . S
C570 H562 0.950 . S
C570 C568 1.391 . S
C570 C571 1.400 1_554 S
C571 C570 1.400 1_556 S
C571 C572 1.398 1_556 S
C571 C577 1.491 . S
C572 H563 0.950 . S
C572 C571 1.398 1_554 S
C572 C573 1.391 . S
C573 H561 0.950 . S
C573 C569 1.393 . S
C573 C572 1.391 . S
C574 H564 0.950 . S
C574 C575 1.386 . S
C574 C576 1.391 . S
C575 C574 1.386 . S
C575 C579 1.393 . S
C576 H565 0.950 . S
C576 C574 1.391 . S
C576 C577 1.400 . S
C577 C571 1.491 . S
C577 C576 1.400 . S
C577 C578 1.398 . S
C578 H566 0.950 . S
C578 C577 1.398 . S
C578 C579 1.391 . S
C579 H567 0.950 . S
C579 C575 1.393 . S
C579 C578 1.391 . S
H580 C588 0.950 . S
H581 C593 0.950 . S
H582 C590 0.943 1_556 S
H583 C592 0.950 . S
H584 C594 0.950 . S
H585 C596 0.950 . S
H586 C598 0.950 . S
H587 C599 0.950 . S
C588 H580 0.950 . S
C588 C589 1.386 . S
C588 C590 1.391 . S
C589 C588 1.386 . S
C589 C593 1.393 . S
C590 H582 0.943 1_554 S
C590 C588 1.391 . S
C590 C591 1.400 1_554 S
C591 C590 1.400 1_556 S
C591 C592 1.398 1_556 S
C591 C597 1.491 . S
C592 H583 0.950 . S
C592 C591 1.398 1_554 S
C592 C593 1.391 . S
C593 H581 0.950 . S
C593 C589 1.393 . S
C593 C592 1.391 . S
C594 H584 0.950 . S
C594 C595 1.386 . S
C594 C596 1.391 . S
C595 C594 1.386 . S
C595 C599 1.393 . S
C596 H585 0.950 . S
C596 C594 1.391 . S
C596 C597 1.400 . S
C597 C591 1.491 . S
C597 C596 1.400 . S
C597 C598 1.398 . S
C598 H586 0.950 . S
C598 C597 1.398 . S
C598 C599 1.391 . S
C599 H587 0.950 . S
C599 C595 1.393 . S
C599 C598 1.391 . S
H600 C608 0.950 . S
H601 C613 0.950 . S
H602 C610 0.950 . S
H603 C612 0.950 . S
H604 C614 0.950 . S
H605 C616 0.950 . S
H606 C618 0.950 . S
H607 C619 0.950 . S
C608 H600 0.950 . S
C608 C609 1.386 . S
C608 C610 1.391 . S
C609 C608 1.386 . S
C609 C613 1.393 . S
C610 H602 0.950 . S
C610 C608 1.391 . S
C610 C611 1.400 . S
C611 C610 1.400 . S
C611 C612 1.398 . S
C611 C617 1.491 . S
C612 H603 0.950 . S
C612 C611 1.398 . S
C612 C613 1.391 . S
C613 H601 0.950 . S
C613 C609 1.393 . S
C613 C612 1.391 . S
C614 H604 0.950 . S
C614 C615 1.386 . S
C614 C616 1.391 . S
C615 C614 1.386 . S
C615 C619 1.393 . S
C616 H605 0.950 . S
C616 C614 1.391 . S
C616 C617 1.400 1_556 S
C617 C611 1.491 . S
C617 C616 1.400 1_554 S
C617 C618 1.398 1_554 S
C618 H606 0.950 . S
C618 C617 1.398 1_556 S
C618 C619 1.391 . S
C619 H607 0.950 . S
C619 C615 1.393 . S
C619 C618 1.391 . S
H620 C628 0.950 . S
H621 C633 0.950 . S
H622 C630 0.950 1_554 S
H623 C632 0.950 . S
H624 C634 0.950 . S
H625 C636 0.950 . S
H626 C638 0.950 . S
H627 C639 0.950 . S
C628 H620 0.950 . S
C628 C629 1.386 . S
C628 C630 1.391 . S
C629 C628 1.386 . S
C629 C633 1.393 . S
C630 H622 0.950 1_556 S
C630 C628 1.391 . S
C630 C631 1.400 1_556 S
C631 C630 1.400 1_554 S
C631 C632 1.398 1_554 S
C631 C637 1.491 . S
C632 H623 0.950 . S
C632 C631 1.398 1_556 S
C632 C633 1.391 . S
C633 H621 0.950 . S
C633 C629 1.393 . S
C633 C632 1.391 . S
C634 H624 0.950 . S
C634 C635 1.386 . S
C634 C636 1.391 . S
C635 C634 1.386 . S
C635 C639 1.393 . S
C636 H625 0.950 . S
C636 C634 1.391 . S
C636 C637 1.400 . S
C637 C631 1.491 . S
C637 C636 1.400 . S
C637 C638 1.398 . S
C638 H626 0.950 . S
C638 C637 1.398 . S
C638 C639 1.391 . S
C639 H627 0.950 . S
C639 C635 1.393 . S
C639 C638 1.391 . S
H640 C648 0.950 . S
H641 C653 0.950 . S
H642 C650 0.950 . S
H643 C652 0.950 . S
H644 C654 0.950 . S
H645 C656 0.950 . S
H646 C658 0.950 . S
H647 C659 0.950 . S
C648 H640 0.950 . S
C648 C649 1.386 . S
C648 C650 1.391 . S
C649 C648 1.386 . S
C649 C653 1.393 . S
C650 H642 0.950 . S
C650 C648 1.391 . S
C650 C651 1.400 . S
C651 C650 1.400 . S
C651 C652 1.398 . S
C651 C657 1.491 . S
C652 H643 0.950 . S
C652 C651 1.398 . S
C652 C653 1.391 . S
C653 H641 0.950 . S
C653 C649 1.393 . S
C653 C652 1.391 . S
C654 H644 0.950 . S
C654 C655 1.386 . S
C654 C656 1.391 . S
C655 C654 1.386 . S
C655 C659 1.393 . S
C656 H645 0.950 . S
C656 C654 1.391 . S
C656 C657 1.400 . S
C657 C651 1.491 . S
C657 C656 1.400 . S
C657 C658 1.398 . S
C658 H646 0.950 . S
C658 C657 1.398 . S
C658 C659 1.391 . S
C659 H647 0.950 . S
C659 C655 1.393 . S
C659 C658 1.391 . S
H660 C668 0.950 . S
H661 C673 0.950 . S
H662 C670 0.950 . S
H663 C672 0.950 . S
H664 C674 0.950 . S
H665 C676 0.950 . S
H666 C678 0.950 . S
H667 C679 0.950 . S
C668 H660 0.950 . S
C668 C669 1.386 . S
C668 C670 1.391 . S
C669 C668 1.386 . S
C669 C673 1.393 . S
C670 H662 0.950 . S
C670 C668 1.391 . S
C670 C671 1.400 . S
C671 C670 1.400 . S
C671 C672 1.398 . S
C671 C677 1.491 . S
C672 H663 0.950 . S
C672 C671 1.398 . S
C672 C673 1.391 . S
C673 H661 0.950 . S
C673 C669 1.393 . S
C673 C672 1.391 . S
C674 H664 0.950 . S
C674 C675 1.386 . S
C674 C676 1.391 . S
C675 C674 1.386 . S
C675 C679 1.393 . S
C676 H665 0.950 . S
C676 C674 1.391 . S
C676 C677 1.400 . S
C677 C671 1.491 . S
C677 C676 1.400 . S
C677 C678 1.398 . S
C678 H666 0.950 . S
C678 C677 1.398 . S
C678 C679 1.391 . S
C679 H667 0.950 . S
C679 C675 1.393 . S
C679 C678 1.391 . S
H680 C688 0.950 . S
H681 C693 0.950 . S
H682 C690 0.950 . S
H683 C692 0.950 . S
H684 C694 0.950 . S
H685 C696 0.950 . S
H686 C698 0.950 . S
H687 C699 0.950 . S
C688 H680 0.950 . S
C688 C689 1.386 . S
C688 C690 1.391 . S
C689 C688 1.386 . S
C689 C693 1.393 . S
C690 H682 0.950 . S
C690 C688 1.391 . S
C690 C691 1.400 . S
C691 C690 1.400 . S
C691 C692 1.398 . S
C691 C697 1.491 . S
C692 H683 0.950 . S
C692 C691 1.398 . S
C692 C693 1.391 . S
C693 H681 0.950 . S
C693 C689 1.393 . S
C693 C692 1.391 . S
C694 H684 0.950 . S
C694 C695 1.386 . S
C694 C696 1.391 . S
C695 C694 1.386 . S
C695 C699 1.393 . S
C696 H685 0.950 . S
C696 C694 1.391 . S
C696 C697 1.400 . S
C697 C691 1.491 . S
C697 C696 1.400 . S
C697 C698 1.398 . S
C698 H686 0.950 . S
C698 C697 1.398 . S
C698 C699 1.391 . S
C699 H687 0.950 . S
C699 C695 1.393 . S
C699 C698 1.391 . S
H700 C708 0.950 . S
H701 C713 0.950 . S
H702 C710 0.950 . S
H703 C712 0.950 . S
H704 C714 0.950 . S
H705 C716 0.950 . S
H706 C718 0.950 . S
H707 C719 0.950 . S
C708 H700 0.950 . S
C708 C709 1.386 . S
C708 C710 1.391 . S
C709 C708 1.386 . S
C709 C713 1.393 . S
C710 H702 0.950 . S
C710 C708 1.391 . S
C710 C711 1.400 . S
C711 C710 1.400 . S
C711 C712 1.398 . S
C711 C717 1.491 . S
C712 H703 0.950 . S
C712 C711 1.398 . S
C712 C713 1.391 . S
C713 H701 0.950 . S
C713 C709 1.393 . S
C713 C712 1.391 . S
C714 H704 0.950 . S
C714 C715 1.386 . S
C714 C716 1.391 . S
C715 C714 1.386 . S
C715 C719 1.393 . S
C716 H705 0.950 . S
C716 C714 1.391 . S
C716 C717 1.400 . S
C717 C711 1.491 . S
C717 C716 1.400 . S
C717 C718 1.398 . S
C718 H706 0.950 . S
C718 C717 1.398 . S
C718 C719 1.391 . S
C719 H707 0.950 . S
C719 C715 1.393 . S
C719 C718 1.391 . S
H720 C728 0.950 . S
H721 C733 0.950 . S
H722 C730 0.950 . S
H723 C732 0.950 . S
H724 C734 0.950 . S
H725 C736 0.950 . S
H726 C738 0.950 . S
H727 C739 0.950 . S
C728 H720 0.950 . S
C728 C729 1.386 . S
C728 C730 1.391 . S
C729 C728 1.386 . S
C729 C733 1.393 . S
C730 H722 0.950 . S
C730 C728 1.391 . S
C730 C731 1.400 . S
C731 C730 1.400 . S
C731 C732 1.398 . S
C731 C737 1.491 1_455 S
C732 H723 0.950 . S
C732 C731 1.398 . S
C732 C733 1.391 . S
C733 H721 0.950 . S
C733 C729 1.393 . S
C733 C732 1.391 . S
C734 H724 0.950 . S
C734 C735 1.386 . S
C734 C736 1.391 . S
C735 C734 1.386 . S
C735 C739 1.393 . S
C736 H725 0.950 . S
C736 C734 1.391 . S
C736 C737 1.400 . S
C737 C731 1.491 1_655 S
C737 C736 1.400 . S
C737 C738 1.398 . S
C738 H726 0.950 . S
C738 C737 1.398 . S
C738 C739 1.391 . S
C739 H727 0.950 . S
C739 C735 1.393 . S
C739 C738 1.391 . S
H740 C748 0.950 . S
H741 C753 0.950 . S
H742 C750 0.950 . S
H743 C752 0.950 . S
H744 C754 0.950 . S
H745 C756 0.950 . S
H746 C758 0.950 . S
H747 C759 0.950 . S
C748 H740 0.950 . S
C748 C749 1.386 . S
C748 C750 1.391 . S
C749 C748 1.386 . S
C749 C753 1.393 . S
C750 H742 0.950 . S
C750 C748 1.391 . S
C750 C751 1.400 . S
C751 C750 1.400 . S
C751 C752 1.398 . S
C751 C757 1.491 1_655 S
C752 H743 0.950 . S
C752 C751 1.398 . S
C752 C753 1.391 . S
C753 H741 0.950 . S
C753 C749 1.393 . S
C753 C752 1.391 . S
C754 H744 0.950 . S
C754 C755 1.386 . S
C754 C756 1.391 . S
C755 C754 1.386 . S
C755 C759 1.393 . S
C756 H745 0.950 . S
C756 C754 1.391 . S
C756 C757 1.400 . S
C757 C751 1.491 1_455 S
C757 C756 1.400 . S
C757 C758 1.398 . S
C758 H746 0.950 . S
C758 C757 1.398 . S
C758 C759 1.391 . S
C759 H747 0.950 . S
C759 C755 1.393 . S
C759 C758 1.391 . S
H760 C768 0.950 . S
H761 C773 0.950 . S
H762 C770 0.950 . S
H763 C772 0.950 . S
H764 C774 0.950 . S
H765 C776 0.950 . S
H766 C778 0.950 . S
H767 C779 0.950 . S
C768 H760 0.950 . S
C768 C769 1.386 . S
C768 C770 1.391 . S
C769 C768 1.386 . S
C769 C773 1.393 . S
C770 H762 0.950 . S
C770 C768 1.391 . S
C770 C771 1.400 . S
C771 C770 1.400 . S
C771 C772 1.398 . S
C771 C777 1.491 . S
C772 H763 0.950 . S
C772 C771 1.398 . S
C772 C773 1.391 . S
C773 H761 0.950 . S
C773 C769 1.393 . S
C773 C772 1.391 . S
C774 H764 0.950 . S
C774 C775 1.386 . S
C774 C776 1.391 . S
C775 C774 1.386 . S
C775 C779 1.393 . S
C776 H765 0.950 . S
C776 C774 1.391 . S
C776 C777 1.400 . S
C777 C771 1.491 . S
C777 C776 1.400 . S
C777 C778 1.398 . S
C778 H766 0.950 . S
C778 C777 1.398 . S
C778 C779 1.391 . S
C779 H767 0.950 . S
C779 C775 1.393 . S
C779 C778 1.391 . S
H780 C788 0.950 . S
H781 C793 0.950 . S
H782 C790 0.950 . S
H783 C792 0.950 . S
H784 C794 0.950 . S
H785 C796 0.950 . S
H786 C798 0.950 . S
H787 C799 0.950 . S
C788 H780 0.950 . S
C788 C789 1.386 . S
C788 C790 1.391 . S
C789 C788 1.386 . S
C789 C793 1.393 . S
C790 H782 0.950 . S
C790 C788 1.391 . S
C790 C791 1.400 . S
C791 C790 1.400 . S
C791 C792 1.398 . S
C791 C797 1.491 . S
C792 H783 0.950 . S
C792 C791 1.398 . S
C792 C793 1.391 . S
C793 H781 0.950 . S
C793 C789 1.393 . S
C793 C792 1.391 . S
C794 H784 0.950 . S
C794 C795 1.386 . S
C794 C796 1.391 . S
C795 C794 1.386 . S
C795 C799 1.393 . S
C796 H785 0.950 . S
C796 C794 1.391 . S
C796 C797 1.400 . S
C797 C791 1.491 . S
C797 C796 1.400 . S
C797 C798 1.398 . S
C798 H786 0.950 . S
C798 C797 1.398 . S
C798 C799 1.391 . S
C799 H787 0.950 . S
C799 C795 1.393 . S
C799 C798 1.391 . S
C329 C4 1.630 . S
C335 C305 1.629 . S
C349 C265 1.629 . S
C355 C44 1.629 . S
C369 C204 1.629 . S
C375 C105 1.629 . S
C389 C164 1.628 . S
C395 C145 1.627 . S
C409 C103 1.515 . S
C415 C23 1.529 . S
C429 C63 1.530 . S
C435 C143 1.516 . S
C449 C122 1.534 . S
C455 C42 1.520 . S
C469 C82 1.523 . S
C475 C2 1.509 . S
C489 C183 1.469 . S
C495 C263 1.472 . S
C509 C223 1.473 . S
C515 C303 1.473 . S
C529 C282 1.460 . S
C535 C202 1.464 . S
C549 C242 1.473 . S
C555 C162 1.471 . S
C569 C31 1.909 . S
C575 C20 1.909 . S
C589 C71 1.899 . S
C595 C60 1.899 . S
C609 C111 1.896 . S
C615 C100 1.896 . S
C629 C140 1.899 . S
C635 C151 1.899 . S
C649 C180 1.908 . S
C655 C191 1.908 . S
C669 C231 1.903 . S
C675 C220 1.903 . S
C689 C260 1.895 . S
C695 C271 1.895 . S
C709 C300 1.900 . S
C715 C311 1.900 . S
C729 C25 2.111 . S
C735 C65 2.117 . S
C749 C124 2.111 . S
C755 C84 2.117 . S
C769 C185 2.118 . S
C775 C225 2.113 . S
C789 C284 2.117 . S
C795 C244 2.112 . S
