# Generated by pormake.
# Topology uog, (4)-cn, num edge types: 1
# Building blocks:
#     Node 0, Type 0, BuildingBlock: KOZSID_clean_sbu_0, # of connection points: 4
#     Node 1, Type 0, BuildingBlock: KOZSID_clean_sbu_0, # of connection points: 4
#     Node 2, Type 0, BuildingBlock: KOZSID_clean_sbu_0, # of connection points: 4
#     Node 3, Type 0, BuildingBlock: KOZSID_clean_sbu_0, # of connection points: 4
#     Node 4, Type 0, BuildingBlock: KOZSID_clean_sbu_0, # of connection points: 4
#     Node 5, Type 0, BuildingBlock: KOZSID_clean_sbu_0, # of connection points: 4
#     Edge 6, Type (0, 0), BuildingBlock: XIVTED_clean_linker_0, # of connection points: 2
#     Edge 7, Type (0, 0), BuildingBlock: XIVTED_clean_linker_0, # of connection points: 2
#     Edge 8, Type (0, 0), BuildingBlock: XIVTED_clean_linker_0, # of connection points: 2
#     Edge 9, Type (0, 0), BuildingBlock: XIVTED_clean_linker_0, # of connection points: 2
#     Edge 10, Type (0, 0), BuildingBlock: XIVTED_clean_linker_0, # of connection points: 2
#     Edge 11, Type (0, 0), BuildingBlock: XIVTED_clean_linker_0, # of connection points: 2
#     Edge 12, Type (0, 0), BuildingBlock: XIVTED_clean_linker_0, # of connection points: 2
#     Edge 13, Type (0, 0), BuildingBlock: XIVTED_clean_linker_0, # of connection points: 2
#     Edge 14, Type (0, 0), BuildingBlock: XIVTED_clean_linker_0, # of connection points: 2
#     Edge 15, Type (0, 0), BuildingBlock: XIVTED_clean_linker_0, # of connection points: 2
#     Edge 16, Type (0, 0), BuildingBlock: XIVTED_clean_linker_0, # of connection points: 2
#     Edge 17, Type (0, 0), BuildingBlock: XIVTED_clean_linker_0, # of connection points: 2
# Relax obj value: 0.022
# Max RMSD: 0.256
# Mean RMSD: 0.256
data_MOF--net-uog--node1-KOZSID_clean_sbu_0--edge1-XIVTED_clean_linker_0
_symmetry_space_group_name_H-M    P1
_symmetry_Int_Tables_number       1
_symmetry_cell_setting            triclinic
loop_
_symmetry_equiv_pos_as_xyz
'x, y, z'
_cell_length_a     38.159374
_cell_length_b     38.277071
_cell_length_c     46.731903
_cell_angle_alpha  90.100831
_cell_angle_beta   89.957526
_cell_angle_gamma 119.94767
loop_
_atom_site_label
_atom_site_type_symbol
_atom_site_fract_x
_atom_site_fract_y
_atom_site_fract_z
_atom_type_partial_charge
C0 C 0.5638 0.30522 0.23143 0.0
C1 C 0.52787 0.30038 0.24234 0.0
C2 C 0.50196 0.29107 0.21963 0.0
C3 C 0.52346 0.29088 0.19611 0.0
N4 N 0.56104 0.2984 0.20256 0.0
Co5 Co 0.60387 0.30814 0.17369 0.0
N6 N 0.56482 0.28791 0.14111 0.0
C7 C 0.52657 0.28076 0.14186 0.0
C8 C 0.5067 0.26674 0.11623 0.0
C9 C 0.53426 0.26506 0.09817 0.0
C10 C 0.56948 0.27816 0.11383 0.0
N11 N 0.64743 0.31978 0.14525 0.0
C12 C 0.64507 0.30781 0.11769 0.0
C13 C 0.68337 0.32203 0.10597 0.0
C14 C 0.71058 0.34382 0.12676 0.0
C15 C 0.68765 0.34152 0.14997 0.0
N16 N 0.64344 0.32696 0.20608 0.0
C17 C 0.68389 0.34372 0.20402 0.0
C18 C 0.70305 0.34959 0.22981 0.0
C19 C 0.67299 0.33666 0.24968 0.0
C20 C 0.63721 0.3244 0.23475 0.0
N21 N 0.59359 0.25202 0.1788 0.0
C22 C 0.57435 0.16979 0.18024 0.0
C23 C 0.61479 0.2017 0.17945 0.0
C24 C 0.62372 0.24238 0.17869 0.0
C25 C 0.54425 0.18059 0.18127 0.0
C26 C 0.55433 0.22117 0.18052 0.0
N27 N 0.61125 0.36323 0.1681 0.0
C28 C 0.60322 0.41642 0.1898 0.0
C29 C 0.59111 0.42531 0.16375 0.0
C30 C 0.59422 0.40553 0.13926 0.0
C31 C 0.60481 0.37512 0.14185 0.0
C32 C 0.61357 0.38604 0.19138 0.0
H33 H 0.60509 0.35953 0.1227 0.0
H34 H 0.62078 0.3794 0.21195 0.0
H35 H 0.65496 0.26583 0.17746 0.0
H36 H 0.52973 0.22718 0.1807 0.0
C37 C 0.50954 0.28365 0.16772 0.0
C38 C 0.60111 0.32075 0.24854 0.0
C39 C 0.60757 0.28378 0.10164 0.0
C40 C 0.70272 0.35162 0.17757 0.0
H41 H 0.52161 0.30465 0.26426 0.0
H42 H 0.47143 0.28604 0.22013 0.0
H43 H 0.47563 0.25794 0.1114 0.0
H44 H 0.52924 0.25568 0.07598 0.0
H45 H 0.6911 0.31659 0.08479 0.0
H46 H 0.74315 0.35745 0.12564 0.0
H47 H 0.73509 0.36219 0.23372 0.0
H48 H 0.67723 0.3388 0.27266 0.0
H49 H 0.63945 0.19541 0.17862 0.0
H50 H 0.51262 0.15775 0.18264 0.0
H51 H 0.60347 0.43193 0.20927 0.0
H52 H 0.58632 0.41171 0.11838 0.0
C53 C 0.28935 0.56285 0.56551 0.0
C54 C 0.26627 0.52646 0.5795 0.0
C55 C 0.25621 0.49673 0.55946 0.0
C56 C 0.27367 0.51653 0.53441 0.0
N57 N 0.29444 0.55691 0.53733 0.0
Co58 Co 0.32052 0.59663 0.50551 0.0
N59 N 0.30838 0.55364 0.47628 0.0
C60 C 0.28776 0.51367 0.48092 0.0
C61 C 0.28755 0.49156 0.45763 0.0
C62 C 0.30973 0.51938 0.43697 0.0
C63 C 0.32207 0.55693 0.44881 0.0
N64 N 0.34304 0.63657 0.4735 0.0
C65 C 0.34655 0.63101 0.44524 0.0
C66 C 0.35793 0.6659 0.42962 0.0
C67 C 0.36264 0.69476 0.44883 0.0
C68 C 0.35349 0.67572 0.47483 0.0
N69 N 0.33577 0.6406 0.53445 0.0
C70 C 0.35231 0.6803 0.52883 0.0
C71 C 0.36033 0.70389 0.55263 0.0
C72 C 0.3475 0.67764 0.57494 0.0
C73 C 0.33217 0.63913 0.56342 0.0
N74 N 0.37362 0.59823 0.51222 0.0
C75 C 0.43606 0.57745 0.51462 0.0
C76 C 0.4331 0.59966 0.49174 0.0
C77 C 0.40248 0.61012 0.49119 0.0
C78 C 0.40936 0.56972 0.53757 0.0
C79 C 0.37933 0.58086 0.53619 0.0
N80 N 0.26654 0.59226 0.49897 0.0
C81 C 0.20588 0.58916 0.51843 0.0
C82 C 0.18374 0.57043 0.49367 0.0
C83 C 0.20466 0.56505 0.47095 0.0
C84 C 0.24595 0.57694 0.47377 0.0
C85 C 0.24669 0.59944 0.52073 0.0
H86 H 0.2606 0.57247 0.45559 0.0
H87 H 0.26121 0.61186 0.54075 0.0
H88 H 0.40228 0.62719 0.47323 0.0
H89 H 0.36028 0.57392 0.5546 0.0
C90 C 0.27195 0.4985 0.50799 0.0
C91 C 0.30786 0.60224 0.58011 0.0
C92 C 0.34492 0.59513 0.43308 0.0
C93 C 0.3581 0.69445 0.50099 0.0
H94 H 0.25803 0.52196 0.60191 0.0
H95 H 0.23843 0.4645 0.56281 0.0
H96 H 0.27373 0.45912 0.45605 0.0
H97 H 0.31595 0.51283 0.41564 0.0
H98 H 0.36376 0.67037 0.40687 0.0
H99 H 0.37282 0.72617 0.44449 0.0
H100 H 0.37259 0.73619 0.55358 0.0
H101 H 0.34722 0.68616 0.59695 0.0
H102 H 0.4541 0.60882 0.47401 0.0
H103 H 0.41028 0.55365 0.55631 0.0
H104 H 0.19127 0.59426 0.53655 0.0
H105 H 0.18916 0.55153 0.45108 0.0
C106 C 0.75064 0.27338 0.89911 0.0
C107 C 0.75665 0.24391 0.91154 0.0
C108 C 0.76482 0.22507 0.88969 0.0
C109 C 0.76344 0.24402 0.86515 0.0
N110 N 0.75584 0.27431 0.87018 0.0
Co111 Co 0.74611 0.30523 0.8399 0.0
N112 N 0.76819 0.28588 0.80887 0.0
C113 C 0.77498 0.25471 0.81083 0.0
C114 C 0.79029 0.24831 0.78598 0.0
C115 C 0.79316 0.27723 0.76718 0.0
C116 C 0.77946 0.29974 0.78164 0.0
N117 N 0.73476 0.33508 0.8098 0.0
C118 C 0.74894 0.3449 0.78274 0.0
C119 C 0.73376 0.36706 0.76934 0.0
C120 C 0.70894 0.37078 0.78852 0.0
C121 C 0.71052 0.35113 0.81249 0.0
N122 N 0.72483 0.32614 0.87058 0.0
C123 C 0.70368 0.34529 0.8664 0.0
C124 C 0.69257 0.35636 0.89108 0.0
C125 C 0.70673 0.34268 0.91245 0.0
C126 C 0.72573 0.32367 0.89953 0.0
N127 N 0.80171 0.35179 0.84539 0.0
C128 C 0.88372 0.41546 0.84816 0.0
C129 C 0.85139 0.42333 0.84562 0.0
C130 C 0.81077 0.39122 0.8444 0.0
C131 C 0.87337 0.37484 0.84957 0.0
C132 C 0.83292 0.34404 0.84824 0.0
N133 N 0.69157 0.25679 0.83428 0.0
C134 C 0.63664 0.19703 0.85605 0.0
C135 C 0.62888 0.17468 0.83057 0.0
C136 C 0.65051 0.19642 0.80617 0.0
C137 C 0.68082 0.23737 0.80837 0.0
C138 C 0.66779 0.23743 0.85748 0.0
H139 H 0.69731 0.25238 0.78927 0.0
H140 H 0.67389 0.25186 0.87802 0.0
H141 H 0.78683 0.3983 0.84224 0.0
H142 H 0.82732 0.31366 0.84873 0.0
C143 C 0.77124 0.23585 0.83727 0.0
C144 C 0.73659 0.29723 0.91526 0.0
C145 C 0.77486 0.33217 0.76842 0.0
C146 C 0.6966 0.35449 0.83912 0.0
H147 H 0.75422 0.23613 0.93399 0.0
H148 H 0.77083 0.20036 0.89151 0.0
H149 H 0.7993 0.22601 0.78219 0.0
H150 H 0.8038 0.28116 0.7453 0.0
H151 H 0.7401 0.37963 0.748 0.0
H152 H 0.69342 0.38774 0.78584 0.0
H153 H 0.67577 0.37213 0.89327 0.0
H154 H 0.70137 0.3447 0.93493 0.0
H155 H 0.85728 0.45405 0.84467 0.0
H156 H 0.89649 0.36639 0.85083 0.0
H157 H 0.61971 0.18333 0.87537 0.0
H158 H 0.6458 0.18176 0.7856 0.0
C159 C 0.50289 0.7359 0.23175 0.0
C160 C 0.5389 0.74095 0.24264 0.0
C161 C 0.56477 0.75019 0.2199 0.0
C162 C 0.54318 0.75013 0.19639 0.0
N163 N 0.50557 0.74252 0.20288 0.0
Co164 Co 0.4627 0.73271 0.17404 0.0
N165 N 0.50174 0.75302 0.14146 0.0
C166 C 0.53995 0.76006 0.14215 0.0
C167 C 0.55979 0.77402 0.11652 0.0
C168 C 0.53224 0.77578 0.09853 0.0
C169 C 0.49706 0.76278 0.11422 0.0
N170 N 0.41914 0.72114 0.14563 0.0
C171 C 0.4215 0.73328 0.11814 0.0
C172 C 0.3832 0.7191 0.10644 0.0
C173 C 0.35599 0.69715 0.12715 0.0
C174 C 0.37892 0.69931 0.15031 0.0
N175 N 0.42313 0.71366 0.20641 0.0
C176 C 0.38265 0.69671 0.20433 0.0
C177 C 0.36343 0.69065 0.23013 0.0
C178 C 0.39348 0.70366 0.25001 0.0
C179 C 0.42932 0.71617 0.23509 0.0
N180 N 0.47289 0.78877 0.17943 0.0
C181 C 0.49187 0.87089 0.18243 0.0
C182 C 0.4515 0.83891 0.18091 0.0
C183 C 0.44269 0.79831 0.17955 0.0
C184 C 0.52208 0.8602 0.18265 0.0
C185 C 0.51212 0.81968 0.18118 0.0
N186 N 0.45538 0.67769 0.16817 0.0
C187 C 0.46346 0.62414 0.18908 0.0
C188 C 0.47389 0.61443 0.16257 0.0
C189 C 0.47059 0.63471 0.13847 0.0
C190 C 0.46081 0.6656 0.14167 0.0
C191 C 0.45384 0.65502 0.19126 0.0
H192 H 0.45997 0.68117 0.12271 0.0
H193 H 0.44788 0.66214 0.21211 0.0
H194 H 0.41148 0.7748 0.17825 0.0
H195 H 0.53679 0.81377 0.18077 0.0
C196 C 0.55703 0.75725 0.16799 0.0
C197 C 0.46556 0.72019 0.24887 0.0
C198 C 0.459 0.75728 0.10209 0.0
C199 C 0.36385 0.68895 0.17788 0.0
H200 H 0.54523 0.73684 0.26456 0.0
H201 H 0.59535 0.75535 0.22038 0.0
H202 H 0.59083 0.78275 0.11165 0.0
H203 H 0.53725 0.78515 0.07635 0.0
H204 H 0.37547 0.72464 0.08531 0.0
H205 H 0.32342 0.68346 0.12604 0.0
H206 H 0.33138 0.67793 0.23402 0.0
H207 H 0.38922 0.70147 0.27299 0.0
H208 H 0.42672 0.84506 0.18091 0.0
H209 H 0.55375 0.8831 0.18315 0.0
H210 H 0.46481 0.60968 0.20859 0.0
H211 H 0.47643 0.62757 0.11721 0.0
C212 C 0.77646 0.47928 0.56579 0.0
C213 C 0.79954 0.51581 0.57968 0.0
C214 C 0.80931 0.54532 0.55958 0.0
C215 C 0.79169 0.52523 0.53461 0.0
N216 N 0.7711 0.48489 0.53762 0.0
Co217 Co 0.74489 0.44478 0.50592 0.0
N218 N 0.75727 0.48749 0.47649 0.0
C219 C 0.77772 0.52751 0.48106 0.0
C220 C 0.77823 0.5494 0.45761 0.0
C221 C 0.75645 0.5214 0.4369 0.0
C222 C 0.74404 0.48396 0.44888 0.0
N223 N 0.72206 0.4044 0.47409 0.0
C224 C 0.71909 0.40968 0.44572 0.0
C225 C 0.70729 0.37444 0.43035 0.0
C226 C 0.70168 0.34564 0.44982 0.0
C227 C 0.71078 0.36506 0.47571 0.0
N228 N 0.72945 0.40115 0.53509 0.0
C229 C 0.71207 0.36127 0.52974 0.0
C230 C 0.70383 0.33802 0.5537 0.0
C231 C 0.71737 0.36468 0.57583 0.0
C232 C 0.73332 0.40303 0.56404 0.0
N233 N 0.692 0.44356 0.51256 0.0
C234 C 0.63001 0.46491 0.51555 0.0
C235 C 0.63351 0.44395 0.49199 0.0
C236 C 0.6639 0.43321 0.49114 0.0
C237 C 0.65594 0.47109 0.53875 0.0
C238 C 0.68577 0.45969 0.53704 0.0
N239 N 0.79874 0.44875 0.49945 0.0
C240 C 0.85936 0.45185 0.51893 0.0
C241 C 0.88146 0.47025 0.49411 0.0
C242 C 0.86051 0.4754 0.47135 0.0
C243 C 0.81927 0.46368 0.47419 0.0
C244 C 0.81858 0.44171 0.52124 0.0
H245 H 0.80464 0.46795 0.45596 0.0
H246 H 0.80407 0.42951 0.54128 0.0
H247 H 0.66462 0.41725 0.47264 0.0
H248 H 0.70432 0.46541 0.55561 0.0
C249 C 0.79335 0.54296 0.50813 0.0
C250 C 0.75813 0.44005 0.58049 0.0
C251 C 0.72147 0.44566 0.43315 0.0
C252 C 0.7058 0.34663 0.50199 0.0
H253 H 0.80798 0.52053 0.60205 0.0
H254 H 0.82706 0.57759 0.56283 0.0
H255 H 0.79203 0.58182 0.45594 0.0
H256 H 0.75054 0.52776 0.41546 0.0
H257 H 0.70176 0.36973 0.40757 0.0
H258 H 0.69103 0.31407 0.44569 0.0
H259 H 0.69092 0.30565 0.55486 0.0
H260 H 0.71759 0.35653 0.59793 0.0
H261 H 0.61311 0.43599 0.47397 0.0
H262 H 0.65456 0.48615 0.55797 0.0
H263 H 0.87399 0.4469 0.53708 0.0
H264 H 0.87595 0.48862 0.45143 0.0
C265 C 0.31736 0.76914 0.89929 0.0
C266 C 0.31108 0.79832 0.91203 0.0
C267 C 0.30272 0.81723 0.89039 0.0
C268 C 0.30427 0.79862 0.86566 0.0
N269 N 0.31217 0.76848 0.87038 0.0
Co270 Co 0.32198 0.73792 0.83977 0.0
N271 N 0.29931 0.75704 0.80909 0.0
C272 C 0.29228 0.78802 0.81134 0.0
C273 C 0.27654 0.79426 0.78668 0.0
C274 C 0.27365 0.76542 0.76771 0.0
C275 C 0.28778 0.74312 0.78188 0.0
N276 N 0.3334 0.70843 0.80936 0.0
C277 C 0.31897 0.69856 0.78235 0.0
C278 C 0.33469 0.67711 0.76854 0.0
C279 C 0.36002 0.6738 0.78744 0.0
C280 C 0.35824 0.69304 0.81164 0.0
N281 N 0.34397 0.71735 0.87008 0.0
C282 C 0.36571 0.69886 0.86553 0.0
C283 C 0.37749 0.68812 0.89 0.0
C284 C 0.36314 0.70132 0.91163 0.0
C285 C 0.34334 0.71969 0.89905 0.0
N286 N 0.26661 0.69104 0.84531 0.0
C287 C 0.18474 0.62713 0.84655 0.0
C288 C 0.2172 0.61941 0.84451 0.0
C289 C 0.25779 0.65169 0.84386 0.0
C290 C 0.19483 0.66756 0.84906 0.0
C291 C 0.23523 0.69851 0.84842 0.0
N292 N 0.37622 0.78664 0.83403 0.0
C293 C 0.43101 0.84697 0.85544 0.0
C294 C 0.43869 0.86875 0.82974 0.0
C295 C 0.41697 0.84648 0.80549 0.0
C296 C 0.38676 0.80557 0.80798 0.0
C297 C 0.39997 0.80654 0.85714 0.0
H298 H 0.37017 0.79017 0.78898 0.0
H299 H 0.39393 0.79246 0.87778 0.0
H300 H 0.28188 0.64484 0.84155 0.0
H301 H 0.24066 0.7288 0.84967 0.0
C302 C 0.29614 0.80678 0.8379 0.0
C303 C 0.33171 0.74536 0.91514 0.0
C304 C 0.29241 0.71077 0.76843 0.0
C305 C 0.37272 0.68996 0.8381 0.0
H306 H 0.31344 0.80586 0.93454 0.0
H307 H 0.29643 0.84173 0.89246 0.0
H308 H 0.26724 0.81638 0.78313 0.0
H309 H 0.26269 0.76139 0.74591 0.0
H310 H 0.32847 0.66483 0.74709 0.0
H311 H 0.37609 0.65743 0.78441 0.0
H312 H 0.39485 0.6729 0.89191 0.0
H313 H 0.36888 0.69941 0.93404 0.0
H314 H 0.21136 0.58877 0.84259 0.0
H315 H 0.17152 0.67561 0.85147 0.0
H316 H 0.44795 0.86114 0.87468 0.0
H317 H 0.42155 0.86071 0.7848 0.0
H318 H 0.50898 0.10566 0.15373 0.0
H319 H 0.55557 0.93464 0.21085 0.0
H320 H 0.61306 0.13205 0.20531 0.0
H321 H 0.45449 0.90908 0.15612 0.0
H322 H 0.57622 1.00617 0.20963 0.0
H323 H 0.4884 0.03415 0.15496 0.0
C324 C 0.52756 0.09663 0.16551 0.0
C325 C 0.56285 0.12566 0.17971 0.0
C326 C 0.5495 0.985 0.19787 0.0
C327 C 0.53916 0.04243 0.18089 0.0
C328 C 0.53763 0.94382 0.19841 0.0
C329 C 0.50316 0.91498 0.18333 0.0
C330 C 0.5269 0.99826 0.18221 0.0
C331 C 0.48102 0.92955 0.16831 0.0
C332 C 0.51575 0.05548 0.16604 0.0
C333 C 0.58582 0.11134 0.19389 0.0
N334 N 0.49327 0.96985 0.16807 0.0
N335 N 0.57353 0.07103 0.19421 0.0
H336 H 0.46664 0.55545 0.46823 0.0
H337 H 0.59045 0.47658 0.56171 0.0
H338 H 0.47424 0.56314 0.56042 0.0
H339 H 0.60105 0.48983 0.46987 0.0
H340 H 0.54529 0.50465 0.56145 0.0
H341 H 0.51301 0.52875 0.46834 0.0
C342 C 0.47815 0.55203 0.48856 0.0
C343 C 0.46591 0.56201 0.51437 0.0
C344 C 0.55747 0.50139 0.54133 0.0
C345 C 0.51916 0.52999 0.51455 0.0
C346 C 0.58368 0.48544 0.54141 0.0
C347 C 0.60033 0.48056 0.51576 0.0
C348 C 0.54713 0.51262 0.5154 0.0
C349 C 0.58893 0.49212 0.49027 0.0
C350 C 0.50458 0.53633 0.48856 0.0
C351 C 0.48175 0.55556 0.53988 0.0
N352 N 0.56329 0.50743 0.49077 0.0
N353 N 0.5072 0.54003 0.53929 0.0
H354 H 0.92169 0.48957 0.8202 0.0
H355 H 0.14772 0.55044 0.87069 0.0
H356 H 0.94784 0.41715 0.87741 0.0
H357 H 0.12019 0.62832 0.82071 0.0
H358 H 0.07526 0.49993 0.87143 0.0
H359 H 0.99402 0.53992 0.81933 0.0
C360 C 0.94232 0.48419 0.83279 0.0
C361 C 0.92788 0.44838 0.84873 0.0
C362 C 0.08508 0.52811 0.86031 0.0
C363 C 1.01187 0.50632 0.8474 0.0
C364 C 0.12668 0.55696 0.85969 0.0
C365 C 0.14066 0.59427 0.84587 0.0
C366 C 0.05679 0.53612 0.8468 0.0
C367 C 0.11128 0.60059 0.83218 0.0
C368 C 0.98392 0.51298 0.83208 0.0
C369 C 0.95697 0.44352 0.86424 0.0
N370 N 0.07116 0.57211 0.83303 0.0
N371 N 0.99715 0.47181 0.86309 0.0
H372 H 0.12196 0.4944 0.48014 0.0
H373 H 0.94316 0.54601 0.48012 0.0
H374 H 0.1433 0.61215 0.50412 0.0
H375 H 0.92195 0.42867 0.50486 0.0
H376 H 1.01641 0.57071 0.47963 0.0
H377 H 0.04868 0.46964 0.47991 0.0
C378 C 0.11129 0.51517 0.48507 0.0
C379 C 0.13903 0.55552 0.49209 0.0
C380 C 0.99572 0.53952 0.48505 0.0
C381 C 0.05488 0.52737 0.49146 0.0
C382 C 0.95386 0.52531 0.48517 0.0
C383 C 0.92616 0.4851 0.49248 0.0
C384 C 1.01029 0.51318 0.49155 0.0
C385 C 0.94205 0.45986 0.49914 0.0
C386 C 0.06942 0.50093 0.48511 0.0
C387 C 0.12318 0.58085 0.49861 0.0
N388 N 0.98283 0.47414 0.49824 0.0
N389 N 0.08239 0.56654 0.49786 0.0
H390 H 0.48213 0.91811 0.78343 0.0
H391 H 0.60622 0.11953 0.87522 0.0
H392 H 0.4618 0.92515 0.87375 0.0
H393 H 0.58548 0.12387 0.78468 0.0
H394 H 0.56041 0.04717 0.8744 0.0
H395 H 0.52642 0.99141 0.78286 0.0
C396 C 0.48658 0.93453 0.8032 0.0
C397 C 0.46763 0.91411 0.82876 0.0
C398 C 0.56578 0.06399 0.85471 0.0
C399 C 0.51996 0.9992 0.82814 0.0
C400 C 0.59187 0.10588 0.85512 0.0
C401 C 0.60002 0.12927 0.83004 0.0
C402 C 0.54782 0.04422 0.82896 0.0
C403 C 0.58103 0.10802 0.80466 0.0
C404 C 0.51225 0.97671 0.80277 0.0
C405 C 0.476 0.93828 0.85354 0.0
N406 N 0.55617 0.06701 0.80478 0.0
N407 N 0.50147 0.97901 0.8526 0.0
H408 H 0.52903 0.61301 0.12414 0.0
H409 H 0.54173 0.43312 0.20324 0.0
H410 H 0.45518 0.54761 0.19657 0.0
H411 H 0.59924 0.481 0.12195 0.0
H412 H 0.513 0.47753 0.20197 0.0
H413 H 0.55662 0.56731 0.12329 0.0
C414 C 0.51811 0.58896 0.13973 0.0
C415 C 0.48945 0.58484 0.16055 0.0
C416 C 0.53191 0.47846 0.18436 0.0
C417 C 0.52219 0.53233 0.15998 0.0
C418 C 0.54876 0.4532 0.18516 0.0
C419 C 0.57356 0.45316 0.16279 0.0
C420 C 0.53973 0.50458 0.16107 0.0
C421 C 0.58034 0.47954 0.1397 0.0
C422 C 0.53429 0.56292 0.13931 0.0
C423 C 0.4776 0.55309 0.18038 0.0
N424 N 0.56381 0.50417 0.13953 0.0
N425 N 0.49403 0.5285 0.17965 0.0
H426 H 0.76535 0.34248 0.9639 0.0
H427 H 0.60334 0.2159 0.07845 0.0
H428 H 0.6691 0.22835 0.93362 0.0
H429 H 0.627 0.33489 0.05647 0.0
H430 H 0.63489 0.21316 0.03292 0.0
H431 H 0.7267 0.33398 0.00803 0.0
C432 C 0.73686 0.31489 0.96709 0.0
C433 C 0.72046 0.28604 0.94515 0.0
C434 C 0.63218 0.23937 0.03783 0.0
C435 C 0.67605 0.27632 0.99535 0.0
C436 C 0.61363 0.24069 0.0635 0.0
C437 C 0.61186 0.27536 0.07094 0.0
C438 C 0.65032 0.27356 0.02016 0.0
C439 C 0.627 0.30731 0.05125 0.0
C440 C 0.71454 0.31041 0.99197 0.0
C441 C 0.68291 0.25111 0.95014 0.0
N442 N 0.64652 0.30609 0.02718 0.0
N443 N 0.66181 0.24722 0.9747 0.0
H444 H 0.41754 0.63853 0.25536 0.0
H445 H 0.42659 0.64059 0.42608 0.0
H446 H 0.49538 0.74588 0.30354 0.0
H447 H 0.31729 0.56577 0.37878 0.0
H448 H 0.46276 0.66763 0.38102 0.0
H449 H 0.39245 0.60111 0.29996 0.0
C450 C 0.43052 0.65402 0.27528 0.0
C451 C 0.45893 0.69561 0.27556 0.0
C452 C 0.43114 0.64453 0.38047 0.0
C453 C 0.42967 0.65249 0.32703 0.0
C454 C 0.41051 0.62859 0.40618 0.0
C455 C 0.36879 0.60046 0.4063 0.0
C456 C 0.41021 0.6319 0.35446 0.0
C457 C 0.34948 0.58679 0.37975 0.0
C458 C 0.41568 0.6326 0.30079 0.0
C459 C 0.47381 0.71393 0.30225 0.0
N460 N 0.37027 0.60281 0.35491 0.0
N461 N 0.45884 0.69234 0.32693 0.0
H462 H 0.84124 0.39839 0.74626 0.0
H463 H 0.71002 0.41809 0.62779 0.0
H464 H 0.72743 0.29584 0.72204 0.0
H465 H 0.8296 0.44818 0.60038 0.0
H466 H 0.72018 0.38983 0.67216 0.0
H467 H 0.84303 0.4305 0.70005 0.0
C468 C 0.8176 0.3819 0.73068 0.0
C469 C 0.78454 0.34403 0.7377 0.0
C470 C 0.74448 0.40343 0.65667 0.0
C471 C 0.78501 0.38165 0.68607 0.0
C472 C 0.73899 0.42016 0.63167 0.0
C473 C 0.76907 0.43562 0.61051 0.0
C474 C 0.7807 0.40305 0.66095 0.0
C475 C 0.80585 0.43685 0.61633 0.0
C476 C 0.81832 0.40049 0.7046 0.0
C477 C 0.75386 0.32459 0.71718 0.0
N478 N 0.81069 0.42063 0.64103 0.0
N479 N 0.75427 0.34405 0.69269 0.0
H480 H 0.3028 0.69856 0.96297 0.0
H481 H 0.46343 0.82522 0.07901 0.0
H482 H 0.39812 0.81439 0.93472 0.0
H483 H 0.43936 0.70605 0.05686 0.0
H484 H 0.43212 0.82807 0.03343 0.0
H485 H 0.34085 0.70649 0.00729 0.0
C486 C 0.33093 0.72637 0.96666 0.0
C487 C 0.34724 0.75591 0.94523 0.0
C488 C 0.43468 0.80178 0.03832 0.0
C489 C 0.39102 0.76498 0.99564 0.0
C490 C 0.45308 0.80039 0.06401 0.0
C491 C 0.45469 0.76565 0.07141 0.0
C492 C 0.41648 0.76759 0.02057 0.0
C493 C 0.43949 0.73368 0.05167 0.0
C494 C 0.35293 0.73054 0.99163 0.0
C495 C 0.38435 0.79109 0.95083 0.0
N496 N 0.42011 0.73498 0.02756 0.0
N497 N 0.40514 0.79467 0.97549 0.0
H498 H 0.63978 0.40043 0.4259 0.0
H499 H 0.64986 0.40234 0.25527 0.0
H500 H 0.74949 0.47459 0.3789 0.0
H501 H 0.57087 0.29524 0.3031 0.0
H502 H 0.67486 0.43967 0.29994 0.0
H503 H 0.60376 0.37352 0.38075 0.0
C504 C 0.656 0.41231 0.40605 0.0
C505 C 0.69779 0.44021 0.40627 0.0
C506 C 0.65141 0.40826 0.30068 0.0
C507 C 0.65652 0.40892 0.35434 0.0
C508 C 0.6366 0.38688 0.27512 0.0
C509 C 0.60788 0.34538 0.27527 0.0
C510 C 0.6371 0.38841 0.32686 0.0
C511 C 0.59269 0.32713 0.3019 0.0
C512 C 0.63545 0.39643 0.38028 0.0
C513 C 0.71726 0.45372 0.37978 0.0
N514 N 0.60765 0.34867 0.32664 0.0
N515 N 0.69654 0.43778 0.35489 0.0
H516 H 0.33803 0.74958 0.72196 0.0
H517 H 0.23499 0.59049 0.60002 0.0
H518 H 0.22791 0.64267 0.74621 0.0
H519 H 0.35652 0.62811 0.62727 0.0
H520 H 0.22389 0.61737 0.64518 0.0
H521 H 0.33716 0.71727 0.67625 0.0
C522 C 0.31254 0.72015 0.717 0.0
C523 C 0.28264 0.69901 0.73769 0.0
C524 C 0.25266 0.61898 0.64139 0.0
C525 C 0.28194 0.66165 0.6858 0.0
C526 C 0.25884 0.60321 0.61591 0.0
C527 C 0.29667 0.60688 0.61006 0.0
C528 C 0.28496 0.63957 0.66055 0.0
C529 C 0.32686 0.6244 0.6311 0.0
C530 C 0.31252 0.70144 0.69124 0.0
C531 C 0.25105 0.66021 0.73059 0.0
N532 N 0.32073 0.64099 0.65503 0.0
N533 N 0.25156 0.64259 0.70525 0.0
loop_
_geom_bond_atom_site_label_1
_geom_bond_atom_site_label_2
_geom_bond_distance
_geom_bond_site_symmetry_2
_ccdc_geom_bond_type
C0 C1 1.443 . S
C0 N4 1.376 . S
C0 C38 1.389 . S
C1 C0 1.443 . S
C1 C2 1.340 . S
C1 H41 0.951 . S
C2 C1 1.340 . S
C2 C3 1.439 . S
C2 H42 0.950 . S
C3 C2 1.439 . S
C3 N4 1.374 . S
C3 C37 1.395 . S
N4 C0 1.376 . S
N4 C3 1.374 . S
N4 Co5 2.008 . S
Co5 N4 2.008 . S
Co5 N6 1.995 . S
Co5 N11 2.008 . S
Co5 N16 1.995 . S
Co5 N21 2.282 . S
Co5 N27 2.282 . S
N6 Co5 1.995 . S
N6 C7 1.376 . S
N6 C10 1.383 . S
C7 N6 1.376 . S
C7 C8 1.446 . S
C7 C37 1.391 . S
C8 C7 1.446 . S
C8 C9 1.339 . S
C8 H43 0.949 . S
C9 C8 1.339 . S
C9 C10 1.439 . S
C9 H44 0.950 . S
C10 N6 1.383 . S
C10 C9 1.439 . S
C10 C39 1.392 . S
N11 Co5 2.008 . S
N11 C12 1.376 . S
N11 C15 1.374 . S
C12 N11 1.376 . S
C12 C13 1.443 . S
C12 C39 1.389 . S
C13 C12 1.443 . S
C13 C14 1.340 . S
C13 H45 0.951 . S
C14 C13 1.340 . S
C14 C15 1.439 . S
C14 H46 0.950 . S
C15 N11 1.374 . S
C15 C14 1.439 . S
C15 C40 1.395 . S
N16 Co5 1.995 . S
N16 C17 1.376 . S
N16 C20 1.383 . S
C17 N16 1.376 . S
C17 C18 1.446 . S
C17 C40 1.391 . S
C18 C17 1.446 . S
C18 C19 1.339 . S
C18 H47 0.949 . S
C19 C18 1.339 . S
C19 C20 1.439 . S
C19 H48 0.950 . S
C20 N16 1.383 . S
C20 C19 1.439 . S
C20 C38 1.392 . S
N21 Co5 2.282 . S
N21 C24 1.332 . S
N21 C26 1.332 . S
C22 C23 1.386 . S
C22 C25 1.388 . S
C23 C22 1.386 . S
C23 C24 1.382 . S
C23 H49 0.950 . S
C24 N21 1.332 . S
C24 C23 1.382 . S
C24 H35 0.952 . S
C25 C22 1.388 . S
C25 C26 1.382 . S
C25 H50 0.950 . S
C26 N21 1.332 . S
C26 C25 1.382 . S
C26 H36 0.948 . S
N27 Co5 2.282 . S
N27 C31 1.332 . S
N27 C32 1.332 . S
C28 C29 1.388 . S
C28 C32 1.382 . S
C28 H51 0.950 . S
C29 C28 1.388 . S
C29 C30 1.386 . S
C30 C29 1.386 . S
C30 C31 1.382 . S
C30 H52 0.950 . S
C31 N27 1.332 . S
C31 C30 1.382 . S
C31 H33 0.952 . S
C32 N27 1.332 . S
C32 C28 1.382 . S
C32 H34 0.948 . S
H33 C31 0.952 . S
H34 C32 0.948 . S
H35 C24 0.952 . S
H36 C26 0.948 . S
C37 C3 1.395 . S
C37 C7 1.391 . S
C38 C0 1.389 . S
C38 C20 1.392 . S
C39 C10 1.392 . S
C39 C12 1.389 . S
C40 C15 1.395 . S
C40 C17 1.391 . S
H41 C1 0.951 . S
H42 C2 0.950 . S
H43 C8 0.949 . S
H44 C9 0.950 . S
H45 C13 0.951 . S
H46 C14 0.950 . S
H47 C18 0.949 . S
H48 C19 0.950 . S
H49 C23 0.950 . S
H50 C25 0.950 . S
H51 C28 0.950 . S
H52 C30 0.950 . S
C53 C54 1.443 . S
C53 N57 1.376 . S
C53 C91 1.389 . S
C54 C53 1.443 . S
C54 C55 1.340 . S
C54 H94 0.951 . S
C55 C54 1.340 . S
C55 C56 1.439 . S
C55 H95 0.950 . S
C56 C55 1.439 . S
C56 N57 1.374 . S
C56 C90 1.395 . S
N57 C53 1.376 . S
N57 C56 1.374 . S
N57 Co58 2.008 . S
Co58 N57 2.008 . S
Co58 N59 1.995 . S
Co58 N64 2.008 . S
Co58 N69 1.995 . S
Co58 N74 2.282 . S
Co58 N80 2.282 . S
N59 Co58 1.995 . S
N59 C60 1.376 . S
N59 C63 1.383 . S
C60 N59 1.376 . S
C60 C61 1.446 . S
C60 C90 1.391 . S
C61 C60 1.446 . S
C61 C62 1.339 . S
C61 H96 0.949 . S
C62 C61 1.339 . S
C62 C63 1.439 . S
C62 H97 0.950 . S
C63 N59 1.383 . S
C63 C62 1.439 . S
C63 C92 1.392 . S
N64 Co58 2.008 . S
N64 C65 1.376 . S
N64 C68 1.374 . S
C65 N64 1.376 . S
C65 C66 1.443 . S
C65 C92 1.389 . S
C66 C65 1.443 . S
C66 C67 1.340 . S
C66 H98 0.951 . S
C67 C66 1.340 . S
C67 C68 1.439 . S
C67 H99 0.950 . S
C68 N64 1.374 . S
C68 C67 1.439 . S
C68 C93 1.395 . S
N69 Co58 1.995 . S
N69 C70 1.376 . S
N69 C73 1.383 . S
C70 N69 1.376 . S
C70 C71 1.446 . S
C70 C93 1.391 . S
C71 C70 1.446 . S
C71 C72 1.339 . S
C71 H100 0.949 . S
C72 C71 1.339 . S
C72 C73 1.439 . S
C72 H101 0.950 . S
C73 N69 1.383 . S
C73 C72 1.439 . S
C73 C91 1.392 . S
N74 Co58 2.282 . S
N74 C77 1.332 . S
N74 C79 1.332 . S
C75 C76 1.386 . S
C75 C78 1.388 . S
C76 C75 1.386 . S
C76 C77 1.382 . S
C76 H102 0.950 . S
C77 N74 1.332 . S
C77 C76 1.382 . S
C77 H88 0.952 . S
C78 C75 1.388 . S
C78 C79 1.382 . S
C78 H103 0.950 . S
C79 N74 1.332 . S
C79 C78 1.382 . S
C79 H89 0.948 . S
N80 Co58 2.282 . S
N80 C84 1.332 . S
N80 C85 1.332 . S
C81 C82 1.388 . S
C81 C85 1.382 . S
C81 H104 0.950 . S
C82 C81 1.388 . S
C82 C83 1.386 . S
C83 C82 1.386 . S
C83 C84 1.382 . S
C83 H105 0.950 . S
C84 N80 1.332 . S
C84 C83 1.382 . S
C84 H86 0.952 . S
C85 N80 1.332 . S
C85 C81 1.382 . S
C85 H87 0.948 . S
H86 C84 0.952 . S
H87 C85 0.948 . S
H88 C77 0.952 . S
H89 C79 0.948 . S
C90 C56 1.395 . S
C90 C60 1.391 . S
C91 C53 1.389 . S
C91 C73 1.392 . S
C92 C63 1.392 . S
C92 C65 1.389 . S
C93 C68 1.395 . S
C93 C70 1.391 . S
H94 C54 0.951 . S
H95 C55 0.950 . S
H96 C61 0.949 . S
H97 C62 0.950 . S
H98 C66 0.951 . S
H99 C67 0.950 . S
H100 C71 0.949 . S
H101 C72 0.950 . S
H102 C76 0.950 . S
H103 C78 0.950 . S
H104 C81 0.950 . S
H105 C83 0.950 . S
C106 C107 1.443 . S
C106 N110 1.376 . S
C106 C144 1.389 . S
C107 C106 1.443 . S
C107 C108 1.340 . S
C107 H147 0.951 . S
C108 C107 1.340 . S
C108 C109 1.439 . S
C108 H148 0.950 . S
C109 C108 1.439 . S
C109 N110 1.374 . S
C109 C143 1.395 . S
N110 C106 1.376 . S
N110 C109 1.374 . S
N110 Co111 2.008 . S
Co111 N110 2.008 . S
Co111 N112 1.995 . S
Co111 N117 2.008 . S
Co111 N122 1.995 . S
Co111 N127 2.282 . S
Co111 N133 2.282 . S
N112 Co111 1.995 . S
N112 C113 1.376 . S
N112 C116 1.383 . S
C113 N112 1.376 . S
C113 C114 1.446 . S
C113 C143 1.391 . S
C114 C113 1.446 . S
C114 C115 1.339 . S
C114 H149 0.949 . S
C115 C114 1.339 . S
C115 C116 1.439 . S
C115 H150 0.950 . S
C116 N112 1.383 . S
C116 C115 1.439 . S
C116 C145 1.392 . S
N117 Co111 2.008 . S
N117 C118 1.376 . S
N117 C121 1.374 . S
C118 N117 1.376 . S
C118 C119 1.443 . S
C118 C145 1.389 . S
C119 C118 1.443 . S
C119 C120 1.340 . S
C119 H151 0.951 . S
C120 C119 1.340 . S
C120 C121 1.439 . S
C120 H152 0.950 . S
C121 N117 1.374 . S
C121 C120 1.439 . S
C121 C146 1.395 . S
N122 Co111 1.995 . S
N122 C123 1.376 . S
N122 C126 1.383 . S
C123 N122 1.376 . S
C123 C124 1.446 . S
C123 C146 1.391 . S
C124 C123 1.446 . S
C124 C125 1.339 . S
C124 H153 0.949 . S
C125 C124 1.339 . S
C125 C126 1.439 . S
C125 H154 0.950 . S
C126 N122 1.383 . S
C126 C125 1.439 . S
C126 C144 1.392 . S
N127 Co111 2.282 . S
N127 C130 1.332 . S
N127 C132 1.332 . S
C128 C129 1.386 . S
C128 C131 1.388 . S
C129 C128 1.386 . S
C129 C130 1.382 . S
C129 H155 0.950 . S
C130 N127 1.332 . S
C130 C129 1.382 . S
C130 H141 0.952 . S
C131 C128 1.388 . S
C131 C132 1.382 . S
C131 H156 0.950 . S
C132 N127 1.332 . S
C132 C131 1.382 . S
C132 H142 0.948 . S
N133 Co111 2.282 . S
N133 C137 1.332 . S
N133 C138 1.332 . S
C134 C135 1.388 . S
C134 C138 1.382 . S
C134 H157 0.950 . S
C135 C134 1.388 . S
C135 C136 1.386 . S
C136 C135 1.386 . S
C136 C137 1.382 . S
C136 H158 0.950 . S
C137 N133 1.332 . S
C137 C136 1.382 . S
C137 H139 0.952 . S
C138 N133 1.332 . S
C138 C134 1.382 . S
C138 H140 0.948 . S
H139 C137 0.952 . S
H140 C138 0.948 . S
H141 C130 0.952 . S
H142 C132 0.948 . S
C143 C109 1.395 . S
C143 C113 1.391 . S
C144 C106 1.389 . S
C144 C126 1.392 . S
C145 C116 1.392 . S
C145 C118 1.389 . S
C146 C121 1.395 . S
C146 C123 1.391 . S
H147 C107 0.951 . S
H148 C108 0.950 . S
H149 C114 0.949 . S
H150 C115 0.950 . S
H151 C119 0.951 . S
H152 C120 0.950 . S
H153 C124 0.949 . S
H154 C125 0.950 . S
H155 C129 0.950 . S
H156 C131 0.950 . S
H157 C134 0.950 . S
H158 C136 0.950 . S
C159 C160 1.443 . S
C159 N163 1.376 . S
C159 C197 1.389 . S
C160 C159 1.443 . S
C160 C161 1.340 . S
C160 H200 0.951 . S
C161 C160 1.340 . S
C161 C162 1.439 . S
C161 H201 0.950 . S
C162 C161 1.439 . S
C162 N163 1.374 . S
C162 C196 1.395 . S
N163 C159 1.376 . S
N163 C162 1.374 . S
N163 Co164 2.008 . S
Co164 N163 2.008 . S
Co164 N165 1.995 . S
Co164 N170 2.008 . S
Co164 N175 1.995 . S
Co164 N180 2.282 . S
Co164 N186 2.282 . S
N165 Co164 1.995 . S
N165 C166 1.376 . S
N165 C169 1.383 . S
C166 N165 1.376 . S
C166 C167 1.446 . S
C166 C196 1.391 . S
C167 C166 1.446 . S
C167 C168 1.339 . S
C167 H202 0.949 . S
C168 C167 1.339 . S
C168 C169 1.439 . S
C168 H203 0.950 . S
C169 N165 1.383 . S
C169 C168 1.439 . S
C169 C198 1.392 . S
N170 Co164 2.008 . S
N170 C171 1.376 . S
N170 C174 1.374 . S
C171 N170 1.376 . S
C171 C172 1.443 . S
C171 C198 1.389 . S
C172 C171 1.443 . S
C172 C173 1.340 . S
C172 H204 0.951 . S
C173 C172 1.340 . S
C173 C174 1.439 . S
C173 H205 0.950 . S
C174 N170 1.374 . S
C174 C173 1.439 . S
C174 C199 1.395 . S
N175 Co164 1.995 . S
N175 C176 1.376 . S
N175 C179 1.383 . S
C176 N175 1.376 . S
C176 C177 1.446 . S
C176 C199 1.391 . S
C177 C176 1.446 . S
C177 C178 1.339 . S
C177 H206 0.949 . S
C178 C177 1.339 . S
C178 C179 1.439 . S
C178 H207 0.950 . S
C179 N175 1.383 . S
C179 C178 1.439 . S
C179 C197 1.392 . S
N180 Co164 2.282 . S
N180 C183 1.332 . S
N180 C185 1.332 . S
C181 C182 1.386 . S
C181 C184 1.388 . S
C182 C181 1.386 . S
C182 C183 1.382 . S
C182 H208 0.950 . S
C183 N180 1.332 . S
C183 C182 1.382 . S
C183 H194 0.952 . S
C184 C181 1.388 . S
C184 C185 1.382 . S
C184 H209 0.950 . S
C185 N180 1.332 . S
C185 C184 1.382 . S
C185 H195 0.948 . S
N186 Co164 2.282 . S
N186 C190 1.332 . S
N186 C191 1.332 . S
C187 C188 1.388 . S
C187 C191 1.382 . S
C187 H210 0.950 . S
C188 C187 1.388 . S
C188 C189 1.386 . S
C189 C188 1.386 . S
C189 C190 1.382 . S
C189 H211 0.950 . S
C190 N186 1.332 . S
C190 C189 1.382 . S
C190 H192 0.952 . S
C191 N186 1.332 . S
C191 C187 1.382 . S
C191 H193 0.948 . S
H192 C190 0.952 . S
H193 C191 0.948 . S
H194 C183 0.952 . S
H195 C185 0.948 . S
C196 C162 1.395 . S
C196 C166 1.391 . S
C197 C159 1.389 . S
C197 C179 1.392 . S
C198 C169 1.392 . S
C198 C171 1.389 . S
C199 C174 1.395 . S
C199 C176 1.391 . S
H200 C160 0.951 . S
H201 C161 0.950 . S
H202 C167 0.949 . S
H203 C168 0.950 . S
H204 C172 0.951 . S
H205 C173 0.950 . S
H206 C177 0.949 . S
H207 C178 0.950 . S
H208 C182 0.950 . S
H209 C184 0.950 . S
H210 C187 0.950 . S
H211 C189 0.950 . S
C212 C213 1.443 . S
C212 N216 1.376 . S
C212 C250 1.389 . S
C213 C212 1.443 . S
C213 C214 1.340 . S
C213 H253 0.951 . S
C214 C213 1.340 . S
C214 C215 1.439 . S
C214 H254 0.950 . S
C215 C214 1.439 . S
C215 N216 1.374 . S
C215 C249 1.395 . S
N216 C212 1.376 . S
N216 C215 1.374 . S
N216 Co217 2.008 . S
Co217 N216 2.008 . S
Co217 N218 1.995 . S
Co217 N223 2.008 . S
Co217 N228 1.995 . S
Co217 N233 2.282 . S
Co217 N239 2.282 . S
N218 Co217 1.995 . S
N218 C219 1.376 . S
N218 C222 1.383 . S
C219 N218 1.376 . S
C219 C220 1.446 . S
C219 C249 1.391 . S
C220 C219 1.446 . S
C220 C221 1.339 . S
C220 H255 0.949 . S
C221 C220 1.339 . S
C221 C222 1.439 . S
C221 H256 0.950 . S
C222 N218 1.383 . S
C222 C221 1.439 . S
C222 C251 1.392 . S
N223 Co217 2.008 . S
N223 C224 1.376 . S
N223 C227 1.374 . S
C224 N223 1.376 . S
C224 C225 1.443 . S
C224 C251 1.389 . S
C225 C224 1.443 . S
C225 C226 1.340 . S
C225 H257 0.951 . S
C226 C225 1.340 . S
C226 C227 1.439 . S
C226 H258 0.950 . S
C227 N223 1.374 . S
C227 C226 1.439 . S
C227 C252 1.395 . S
N228 Co217 1.995 . S
N228 C229 1.376 . S
N228 C232 1.383 . S
C229 N228 1.376 . S
C229 C230 1.446 . S
C229 C252 1.391 . S
C230 C229 1.446 . S
C230 C231 1.339 . S
C230 H259 0.949 . S
C231 C230 1.339 . S
C231 C232 1.439 . S
C231 H260 0.950 . S
C232 N228 1.383 . S
C232 C231 1.439 . S
C232 C250 1.392 . S
N233 Co217 2.282 . S
N233 C236 1.332 . S
N233 C238 1.332 . S
C234 C235 1.386 . S
C234 C237 1.388 . S
C235 C234 1.386 . S
C235 C236 1.382 . S
C235 H261 0.950 . S
C236 N233 1.332 . S
C236 C235 1.382 . S
C236 H247 0.952 . S
C237 C234 1.388 . S
C237 C238 1.382 . S
C237 H262 0.950 . S
C238 N233 1.332 . S
C238 C237 1.382 . S
C238 H248 0.948 . S
N239 Co217 2.282 . S
N239 C243 1.332 . S
N239 C244 1.332 . S
C240 C241 1.388 . S
C240 C244 1.382 . S
C240 H263 0.950 . S
C241 C240 1.388 . S
C241 C242 1.386 . S
C242 C241 1.386 . S
C242 C243 1.382 . S
C242 H264 0.950 . S
C243 N239 1.332 . S
C243 C242 1.382 . S
C243 H245 0.952 . S
C244 N239 1.332 . S
C244 C240 1.382 . S
C244 H246 0.948 . S
H245 C243 0.952 . S
H246 C244 0.948 . S
H247 C236 0.952 . S
H248 C238 0.948 . S
C249 C215 1.395 . S
C249 C219 1.391 . S
C250 C212 1.389 . S
C250 C232 1.392 . S
C251 C222 1.392 . S
C251 C224 1.389 . S
C252 C227 1.395 . S
C252 C229 1.391 . S
H253 C213 0.951 . S
H254 C214 0.950 . S
H255 C220 0.949 . S
H256 C221 0.950 . S
H257 C225 0.951 . S
H258 C226 0.950 . S
H259 C230 0.949 . S
H260 C231 0.950 . S
H261 C235 0.950 . S
H262 C237 0.950 . S
H263 C240 0.950 . S
H264 C242 0.950 . S
C265 C266 1.443 . S
C265 N269 1.376 . S
C265 C303 1.389 . S
C266 C265 1.443 . S
C266 C267 1.340 . S
C266 H306 0.951 . S
C267 C266 1.340 . S
C267 C268 1.439 . S
C267 H307 0.950 . S
C268 C267 1.439 . S
C268 N269 1.374 . S
C268 C302 1.395 . S
N269 C265 1.376 . S
N269 C268 1.374 . S
N269 Co270 2.008 . S
Co270 N269 2.008 . S
Co270 N271 1.995 . S
Co270 N276 2.008 . S
Co270 N281 1.995 . S
Co270 N286 2.282 . S
Co270 N292 2.282 . S
N271 Co270 1.995 . S
N271 C272 1.376 . S
N271 C275 1.383 . S
C272 N271 1.376 . S
C272 C273 1.446 . S
C272 C302 1.391 . S
C273 C272 1.446 . S
C273 C274 1.339 . S
C273 H308 0.949 . S
C274 C273 1.339 . S
C274 C275 1.439 . S
C274 H309 0.950 . S
C275 N271 1.383 . S
C275 C274 1.439 . S
C275 C304 1.392 . S
N276 Co270 2.008 . S
N276 C277 1.376 . S
N276 C280 1.374 . S
C277 N276 1.376 . S
C277 C278 1.443 . S
C277 C304 1.389 . S
C278 C277 1.443 . S
C278 C279 1.340 . S
C278 H310 0.951 . S
C279 C278 1.340 . S
C279 C280 1.439 . S
C279 H311 0.950 . S
C280 N276 1.374 . S
C280 C279 1.439 . S
C280 C305 1.395 . S
N281 Co270 1.995 . S
N281 C282 1.376 . S
N281 C285 1.383 . S
C282 N281 1.376 . S
C282 C283 1.446 . S
C282 C305 1.391 . S
C283 C282 1.446 . S
C283 C284 1.339 . S
C283 H312 0.949 . S
C284 C283 1.339 . S
C284 C285 1.439 . S
C284 H313 0.950 . S
C285 N281 1.383 . S
C285 C284 1.439 . S
C285 C303 1.392 . S
N286 Co270 2.282 . S
N286 C289 1.332 . S
N286 C291 1.332 . S
C287 C288 1.386 . S
C287 C290 1.388 . S
C288 C287 1.386 . S
C288 C289 1.382 . S
C288 H314 0.950 . S
C289 N286 1.332 . S
C289 C288 1.382 . S
C289 H300 0.952 . S
C290 C287 1.388 . S
C290 C291 1.382 . S
C290 H315 0.950 . S
C291 N286 1.332 . S
C291 C290 1.382 . S
C291 H301 0.948 . S
N292 Co270 2.282 . S
N292 C296 1.332 . S
N292 C297 1.332 . S
C293 C294 1.388 . S
C293 C297 1.382 . S
C293 H316 0.950 . S
C294 C293 1.388 . S
C294 C295 1.386 . S
C295 C294 1.386 . S
C295 C296 1.382 . S
C295 H317 0.950 . S
C296 N292 1.332 . S
C296 C295 1.382 . S
C296 H298 0.952 . S
C297 N292 1.332 . S
C297 C293 1.382 . S
C297 H299 0.948 . S
H298 C296 0.952 . S
H299 C297 0.948 . S
H300 C289 0.952 . S
H301 C291 0.948 . S
C302 C268 1.395 . S
C302 C272 1.391 . S
C303 C265 1.389 . S
C303 C285 1.392 . S
C304 C275 1.392 . S
C304 C277 1.389 . S
C305 C280 1.395 . S
C305 C282 1.391 . S
H306 C266 0.951 . S
H307 C267 0.950 . S
H308 C273 0.949 . S
H309 C274 0.950 . S
H310 C278 0.951 . S
H311 C279 0.950 . S
H312 C283 0.949 . S
H313 C284 0.950 . S
H314 C288 0.950 . S
H315 C290 0.950 . S
H316 C293 0.950 . S
H317 C295 0.950 . S
H318 C324 0.930 . S
H319 C328 0.930 . S
H320 C333 0.929 . S
H321 C331 0.929 . S
H322 C326 0.929 . S
H323 C332 0.929 . S
C324 H318 0.930 . S
C324 C325 1.367 . S
C324 C332 1.378 . S
C325 C324 1.367 . S
C325 C333 1.433 . S
C326 H322 0.929 . S
C326 C328 1.378 . S
C326 C330 1.350 . S
C327 C330 1.463 1_545 S
C327 C332 1.350 . S
C327 N335 1.427 . S
C328 H319 0.930 . S
C328 C326 1.378 . S
C328 C329 1.367 . S
C329 C328 1.367 . S
C329 C331 1.433 . S
C330 C326 1.350 . S
C330 C327 1.463 1_565 S
C330 N334 1.427 . S
C331 H321 0.929 . S
C331 C329 1.433 . S
C331 N334 1.384 . S
C332 H323 0.929 . S
C332 C324 1.378 . S
C332 C327 1.350 . S
C333 H320 0.929 . S
C333 C325 1.433 . S
C333 N335 1.384 . S
N334 C330 1.427 . S
N334 C331 1.384 . S
N335 C327 1.427 . S
N335 C333 1.384 . S
H336 C342 0.930 . S
H337 C346 0.930 . S
H338 C351 0.929 . S
H339 C349 0.929 . S
H340 C344 0.929 . S
H341 C350 0.929 . S
C342 H336 0.930 . S
C342 C343 1.367 . S
C342 C350 1.378 . S
C343 C342 1.367 . S
C343 C351 1.433 . S
C344 H340 0.929 . S
C344 C346 1.378 . S
C344 C348 1.350 . S
C345 C348 1.463 . S
C345 C350 1.350 . S
C345 N353 1.427 . S
C346 H337 0.930 . S
C346 C344 1.378 . S
C346 C347 1.367 . S
C347 C346 1.367 . S
C347 C349 1.433 . S
C348 C344 1.350 . S
C348 C345 1.463 . S
C348 N352 1.427 . S
C349 H339 0.929 . S
C349 C347 1.433 . S
C349 N352 1.384 . S
C350 H341 0.929 . S
C350 C342 1.378 . S
C350 C345 1.350 . S
C351 H338 0.929 . S
C351 C343 1.433 . S
C351 N353 1.384 . S
N352 C348 1.427 . S
N352 C349 1.384 . S
N353 C345 1.427 . S
N353 C351 1.384 . S
H354 C360 0.930 . S
H355 C364 0.930 . S
H356 C369 0.929 . S
H357 C367 0.929 . S
H358 C362 0.929 . S
H359 C368 0.929 . S
C360 H354 0.930 . S
C360 C361 1.367 . S
C360 C368 1.378 . S
C361 C360 1.367 . S
C361 C369 1.433 . S
C362 H358 0.929 . S
C362 C364 1.378 . S
C362 C366 1.350 . S
C363 C366 1.463 1_655 S
C363 C368 1.350 . S
C363 N371 1.427 . S
C364 H355 0.930 . S
C364 C362 1.378 . S
C364 C365 1.367 . S
C365 C364 1.367 . S
C365 C367 1.433 . S
C366 C362 1.350 . S
C366 C363 1.463 1_455 S
C366 N370 1.427 . S
C367 H357 0.929 . S
C367 C365 1.433 . S
C367 N370 1.384 . S
C368 H359 0.929 . S
C368 C360 1.378 . S
C368 C363 1.350 . S
C369 H356 0.929 . S
C369 C361 1.433 . S
C369 N371 1.384 . S
N370 C366 1.427 . S
N370 C367 1.384 . S
N371 C363 1.427 . S
N371 C369 1.384 . S
H372 C378 0.930 . S
H373 C382 0.930 . S
H374 C387 0.929 . S
H375 C385 0.929 . S
H376 C380 0.929 . S
H377 C386 0.929 . S
C378 H372 0.930 . S
C378 C379 1.367 . S
C378 C386 1.378 . S
C379 C378 1.367 . S
C379 C387 1.433 . S
C380 H376 0.929 . S
C380 C382 1.378 . S
C380 C384 1.350 . S
C381 C384 1.463 1_455 S
C381 C386 1.350 . S
C381 N389 1.427 . S
C382 H373 0.930 . S
C382 C380 1.378 . S
C382 C383 1.367 . S
C383 C382 1.367 . S
C383 C385 1.433 . S
C384 C380 1.350 . S
C384 C381 1.463 1_655 S
C384 N388 1.427 . S
C385 H375 0.929 . S
C385 C383 1.433 . S
C385 N388 1.384 . S
C386 H377 0.929 . S
C386 C378 1.378 . S
C386 C381 1.350 . S
C387 H374 0.929 . S
C387 C379 1.433 . S
C387 N389 1.384 . S
N388 C384 1.427 . S
N388 C385 1.384 . S
N389 C381 1.427 . S
N389 C387 1.384 . S
H390 C396 0.930 . S
H391 C400 0.930 . S
H392 C405 0.929 . S
H393 C403 0.929 . S
H394 C398 0.929 . S
H395 C404 0.929 . S
C396 H390 0.930 . S
C396 C397 1.367 . S
C396 C404 1.378 . S
C397 C396 1.367 . S
C397 C405 1.433 . S
C398 H394 0.929 . S
C398 C400 1.378 . S
C398 C402 1.350 . S
C399 C402 1.463 1_565 S
C399 C404 1.350 . S
C399 N407 1.427 . S
C400 H391 0.930 . S
C400 C398 1.378 . S
C400 C401 1.367 . S
C401 C400 1.367 . S
C401 C403 1.433 . S
C402 C398 1.350 . S
C402 C399 1.463 1_545 S
C402 N406 1.427 . S
C403 H393 0.929 . S
C403 C401 1.433 . S
C403 N406 1.384 . S
C404 H395 0.929 . S
C404 C396 1.378 . S
C404 C399 1.350 . S
C405 H392 0.929 . S
C405 C397 1.433 . S
C405 N407 1.384 . S
N406 C402 1.427 . S
N406 C403 1.384 . S
N407 C399 1.427 . S
N407 C405 1.384 . S
H408 C414 0.930 . S
H409 C418 0.930 . S
H410 C423 0.929 . S
H411 C421 0.929 . S
H412 C416 0.929 . S
H413 C422 0.929 . S
C414 H408 0.930 . S
C414 C415 1.367 . S
C414 C422 1.378 . S
C415 C414 1.367 . S
C415 C423 1.433 . S
C416 H412 0.929 . S
C416 C418 1.378 . S
C416 C420 1.350 . S
C417 C420 1.463 . S
C417 C422 1.350 . S
C417 N425 1.427 . S
C418 H409 0.930 . S
C418 C416 1.378 . S
C418 C419 1.367 . S
C419 C418 1.367 . S
C419 C421 1.433 . S
C420 C416 1.350 . S
C420 C417 1.463 . S
C420 N424 1.427 . S
C421 H411 0.929 . S
C421 C419 1.433 . S
C421 N424 1.384 . S
C422 H413 0.929 . S
C422 C414 1.378 . S
C422 C417 1.350 . S
C423 H410 0.929 . S
C423 C415 1.433 . S
C423 N425 1.384 . S
N424 C420 1.427 . S
N424 C421 1.384 . S
N425 C417 1.427 . S
N425 C423 1.384 . S
H426 C432 0.930 . S
H427 C436 0.930 . S
H428 C441 0.929 . S
H429 C439 0.929 . S
H430 C434 0.929 . S
H431 C440 0.929 . S
C432 H426 0.930 . S
C432 C433 1.367 . S
C432 C440 1.378 . S
C433 C432 1.367 . S
C433 C441 1.433 . S
C434 H430 0.929 . S
C434 C436 1.378 . S
C434 C438 1.350 . S
C435 C438 1.463 1_556 S
C435 C440 1.350 . S
C435 N443 1.427 . S
C436 H427 0.930 . S
C436 C434 1.378 . S
C436 C437 1.367 . S
C437 C436 1.367 . S
C437 C439 1.433 . S
C438 C434 1.350 . S
C438 C435 1.463 1_554 S
C438 N442 1.427 . S
C439 H429 0.929 . S
C439 C437 1.433 . S
C439 N442 1.384 . S
C440 H431 0.929 . S
C440 C432 1.378 . S
C440 C435 1.350 . S
C441 H428 0.929 . S
C441 C433 1.433 . S
C441 N443 1.384 . S
N442 C438 1.427 . S
N442 C439 1.384 . S
N443 C435 1.427 . S
N443 C441 1.384 . S
H444 C450 0.930 . S
H445 C454 0.930 . S
H446 C459 0.929 . S
H447 C457 0.929 . S
H448 C452 0.929 . S
H449 C458 0.929 . S
C450 H444 0.930 . S
C450 C451 1.367 . S
C450 C458 1.378 . S
C451 C450 1.367 . S
C451 C459 1.433 . S
C452 H448 0.929 . S
C452 C454 1.378 . S
C452 C456 1.350 . S
C453 C456 1.463 . S
C453 C458 1.350 . S
C453 N461 1.427 . S
C454 H445 0.930 . S
C454 C452 1.378 . S
C454 C455 1.367 . S
C455 C454 1.367 . S
C455 C457 1.433 . S
C456 C452 1.350 . S
C456 C453 1.463 . S
C456 N460 1.427 . S
C457 H447 0.929 . S
C457 C455 1.433 . S
C457 N460 1.384 . S
C458 H449 0.929 . S
C458 C450 1.378 . S
C458 C453 1.350 . S
C459 H446 0.929 . S
C459 C451 1.433 . S
C459 N461 1.384 . S
N460 C456 1.427 . S
N460 C457 1.384 . S
N461 C453 1.427 . S
N461 C459 1.384 . S
H462 C468 0.930 . S
H463 C472 0.930 . S
H464 C477 0.929 . S
H465 C475 0.929 . S
H466 C470 0.929 . S
H467 C476 0.929 . S
C468 H462 0.930 . S
C468 C469 1.367 . S
C468 C476 1.378 . S
C469 C468 1.367 . S
C469 C477 1.433 . S
C470 H466 0.929 . S
C470 C472 1.378 . S
C470 C474 1.350 . S
C471 C474 1.463 . S
C471 C476 1.350 . S
C471 N479 1.427 . S
C472 H463 0.930 . S
C472 C470 1.378 . S
C472 C473 1.367 . S
C473 C472 1.367 . S
C473 C475 1.433 . S
C474 C470 1.350 . S
C474 C471 1.463 . S
C474 N478 1.427 . S
C475 H465 0.929 . S
C475 C473 1.433 . S
C475 N478 1.384 . S
C476 H467 0.929 . S
C476 C468 1.378 . S
C476 C471 1.350 . S
C477 H464 0.929 . S
C477 C469 1.433 . S
C477 N479 1.384 . S
N478 C474 1.427 . S
N478 C475 1.384 . S
N479 C471 1.427 . S
N479 C477 1.384 . S
H480 C486 0.930 . S
H481 C490 0.930 . S
H482 C495 0.929 . S
H483 C493 0.929 . S
H484 C488 0.929 . S
H485 C494 0.929 . S
C486 H480 0.930 . S
C486 C487 1.367 . S
C486 C494 1.378 . S
C487 C486 1.367 . S
C487 C495 1.433 . S
C488 H484 0.929 . S
C488 C490 1.378 . S
C488 C492 1.350 . S
C489 C492 1.463 1_556 S
C489 C494 1.350 . S
C489 N497 1.427 . S
C490 H481 0.930 . S
C490 C488 1.378 . S
C490 C491 1.367 . S
C491 C490 1.367 . S
C491 C493 1.433 . S
C492 C488 1.350 . S
C492 C489 1.463 1_554 S
C492 N496 1.427 . S
C493 H483 0.929 . S
C493 C491 1.433 . S
C493 N496 1.384 . S
C494 H485 0.929 . S
C494 C486 1.378 . S
C494 C489 1.350 . S
C495 H482 0.929 . S
C495 C487 1.433 . S
C495 N497 1.384 . S
N496 C492 1.427 . S
N496 C493 1.384 . S
N497 C489 1.427 . S
N497 C495 1.384 . S
H498 C504 0.930 . S
H499 C508 0.930 . S
H500 C513 0.929 . S
H501 C511 0.929 . S
H502 C506 0.929 . S
H503 C512 0.929 . S
C504 H498 0.930 . S
C504 C505 1.367 . S
C504 C512 1.378 . S
C505 C504 1.367 . S
C505 C513 1.433 . S
C506 H502 0.929 . S
C506 C508 1.378 . S
C506 C510 1.350 . S
C507 C510 1.463 . S
C507 C512 1.350 . S
C507 N515 1.427 . S
C508 H499 0.930 . S
C508 C506 1.378 . S
C508 C509 1.367 . S
C509 C508 1.367 . S
C509 C511 1.433 . S
C510 C506 1.350 . S
C510 C507 1.463 . S
C510 N514 1.427 . S
C511 H501 0.929 . S
C511 C509 1.433 . S
C511 N514 1.384 . S
C512 H503 0.929 . S
C512 C504 1.378 . S
C512 C507 1.350 . S
C513 H500 0.929 . S
C513 C505 1.433 . S
C513 N515 1.384 . S
N514 C510 1.427 . S
N514 C511 1.384 . S
N515 C507 1.427 . S
N515 C513 1.384 . S
H516 C522 0.930 . S
H517 C526 0.930 . S
H518 C531 0.929 . S
H519 C529 0.929 . S
H520 C524 0.929 . S
H521 C530 0.929 . S
C522 H516 0.930 . S
C522 C523 1.367 . S
C522 C530 1.378 . S
C523 C522 1.367 . S
C523 C531 1.433 . S
C524 H520 0.929 . S
C524 C526 1.378 . S
C524 C528 1.350 . S
C525 C528 1.463 . S
C525 C530 1.350 . S
C525 N533 1.427 . S
C526 H517 0.930 . S
C526 C524 1.378 . S
C526 C527 1.367 . S
C527 C526 1.367 . S
C527 C529 1.433 . S
C528 C524 1.350 . S
C528 C525 1.463 . S
C528 N532 1.427 . S
C529 H519 0.929 . S
C529 C527 1.433 . S
C529 N532 1.384 . S
C530 H521 0.929 . S
C530 C522 1.378 . S
C530 C525 1.350 . S
C531 H518 0.929 . S
C531 C523 1.433 . S
C531 N533 1.384 . S
N532 C528 1.427 . S
N532 C529 1.384 . S
N533 C525 1.427 . S
N533 C531 1.384 . S
C325 C22 1.651 . S
C329 C181 1.651 . S
C343 C75 1.655 . S
C347 C234 1.653 . S
C361 C128 1.658 . S
C365 C287 1.657 . S
C379 C82 1.656 . S
C383 C241 1.655 . S
C397 C294 1.658 . S
C401 C135 1.660 . S
C415 C188 1.656 . S
C419 C29 1.656 . S
C433 C144 2.315 . S
C437 C39 2.307 . S
C451 C197 2.312 . S
C455 C92 2.300 . S
C469 C145 2.309 . S
C473 C250 2.318 . S
C487 C303 2.313 . S
C491 C198 2.304 . S
C505 C251 2.301 . S
C509 C38 2.312 . S
C523 C304 2.301 . S
C527 C91 2.319 . S
