# Generated by pormake.
# Topology atn, (4)-cn, num edge types: 1
# Building blocks:
#     Node 0, Type 0, BuildingBlock: GALJAG_clean_sbu_0, # of connection points: 4
#     Node 1, Type 0, BuildingBlock: GALJAG_clean_sbu_0, # of connection points: 4
#     Node 2, Type 0, BuildingBlock: GALJAG_clean_sbu_0, # of connection points: 4
#     Node 3, Type 0, BuildingBlock: GALJAG_clean_sbu_0, # of connection points: 4
#     Node 4, Type 0, BuildingBlock: GALJAG_clean_sbu_0, # of connection points: 4
#     Node 5, Type 0, BuildingBlock: GALJAG_clean_sbu_0, # of connection points: 4
#     Node 6, Type 0, BuildingBlock: GALJAG_clean_sbu_0, # of connection points: 4
#     Node 7, Type 0, BuildingBlock: GALJAG_clean_sbu_0, # of connection points: 4
#     Node 8, Type 0, BuildingBlock: GALJAG_clean_sbu_0, # of connection points: 4
#     Node 9, Type 0, BuildingBlock: GALJAG_clean_sbu_0, # of connection points: 4
#     Node 10, Type 0, BuildingBlock: GALJAG_clean_sbu_0, # of connection points: 4
#     Node 11, Type 0, BuildingBlock: GALJAG_clean_sbu_0, # of connection points: 4
#     Node 12, Type 0, BuildingBlock: GALJAG_clean_sbu_0, # of connection points: 4
#     Node 13, Type 0, BuildingBlock: GALJAG_clean_sbu_0, # of connection points: 4
#     Node 14, Type 0, BuildingBlock: GALJAG_clean_sbu_0, # of connection points: 4
#     Node 15, Type 0, BuildingBlock: GALJAG_clean_sbu_0, # of connection points: 4
#     Edge 16, Type (0, 0), BuildingBlock: EYOCIG_clean_linker_4, # of connection points: 2
#     Edge 17, Type (0, 0), BuildingBlock: EYOCIG_clean_linker_4, # of connection points: 2
#     Edge 18, Type (0, 0), BuildingBlock: EYOCIG_clean_linker_4, # of connection points: 2
#     Edge 19, Type (0, 0), BuildingBlock: EYOCIG_clean_linker_4, # of connection points: 2
#     Edge 20, Type (0, 0), BuildingBlock: EYOCIG_clean_linker_4, # of connection points: 2
#     Edge 21, Type (0, 0), BuildingBlock: EYOCIG_clean_linker_4, # of connection points: 2
#     Edge 22, Type (0, 0), BuildingBlock: EYOCIG_clean_linker_4, # of connection points: 2
#     Edge 23, Type (0, 0), BuildingBlock: EYOCIG_clean_linker_4, # of connection points: 2
#     Edge 24, Type (0, 0), BuildingBlock: EYOCIG_clean_linker_4, # of connection points: 2
#     Edge 25, Type (0, 0), BuildingBlock: EYOCIG_clean_linker_4, # of connection points: 2
#     Edge 26, Type (0, 0), BuildingBlock: EYOCIG_clean_linker_4, # of connection points: 2
#     Edge 27, Type (0, 0), BuildingBlock: EYOCIG_clean_linker_4, # of connection points: 2
#     Edge 28, Type (0, 0), BuildingBlock: EYOCIG_clean_linker_4, # of connection points: 2
#     Edge 29, Type (0, 0), BuildingBlock: EYOCIG_clean_linker_4, # of connection points: 2
#     Edge 30, Type (0, 0), BuildingBlock: EYOCIG_clean_linker_4, # of connection points: 2
#     Edge 31, Type (0, 0), BuildingBlock: EYOCIG_clean_linker_4, # of connection points: 2
#     Edge 32, Type (0, 0), BuildingBlock: EYOCIG_clean_linker_4, # of connection points: 2
#     Edge 33, Type (0, 0), BuildingBlock: EYOCIG_clean_linker_4, # of connection points: 2
#     Edge 34, Type (0, 0), BuildingBlock: EYOCIG_clean_linker_4, # of connection points: 2
#     Edge 35, Type (0, 0), BuildingBlock: EYOCIG_clean_linker_4, # of connection points: 2
#     Edge 36, Type (0, 0), BuildingBlock: EYOCIG_clean_linker_4, # of connection points: 2
#     Edge 37, Type (0, 0), BuildingBlock: EYOCIG_clean_linker_4, # of connection points: 2
#     Edge 38, Type (0, 0), BuildingBlock: EYOCIG_clean_linker_4, # of connection points: 2
#     Edge 39, Type (0, 0), BuildingBlock: EYOCIG_clean_linker_4, # of connection points: 2
#     Edge 40, Type (0, 0), BuildingBlock: EYOCIG_clean_linker_4, # of connection points: 2
#     Edge 41, Type (0, 0), BuildingBlock: EYOCIG_clean_linker_4, # of connection points: 2
#     Edge 42, Type (0, 0), BuildingBlock: EYOCIG_clean_linker_4, # of connection points: 2
#     Edge 43, Type (0, 0), BuildingBlock: EYOCIG_clean_linker_4, # of connection points: 2
#     Edge 44, Type (0, 0), BuildingBlock: EYOCIG_clean_linker_4, # of connection points: 2
#     Edge 45, Type (0, 0), BuildingBlock: EYOCIG_clean_linker_4, # of connection points: 2
#     Edge 46, Type (0, 0), BuildingBlock: EYOCIG_clean_linker_4, # of connection points: 2
#     Edge 47, Type (0, 0), BuildingBlock: EYOCIG_clean_linker_4, # of connection points: 2
# Relax obj value: 0.083
# Max RMSD: 0.111
# Mean RMSD: 0.111
data_MOF--net-atn--node1-GALJAG_clean_sbu_0--edge1-EYOCIG_clean_linker_4
_symmetry_space_group_name_H-M    P1
_symmetry_Int_Tables_number       1
_symmetry_cell_setting            triclinic
loop_
_symmetry_equiv_pos_as_xyz
'x, y, z'
_cell_length_a     46.080696
_cell_length_b     46.09609
_cell_length_c     22.815274
_cell_angle_alpha  90.020743
_cell_angle_beta   90.001642
_cell_angle_gamma 90.010544
loop_
_atom_site_label
_atom_site_type_symbol
_atom_site_fract_x
_atom_site_fract_y
_atom_site_fract_z
_atom_type_partial_charge
In0 In 0.18307 0.3679 0.0004 0.0
O1 O 0.14739 0.35491 0.06499 0.0
O2 O 0.18834 0.36921 0.09871 0.0
C3 C 0.16578 0.35662 0.89101 0.0
C4 C 0.18055 0.42593 0.00174 0.0
C5 C 0.22604 0.32861 -0.00195 0.0
O6 O 0.15102 0.34819 0.93465 0.0
O7 O 0.18802 0.3714 0.90261 0.0
O8 O 0.231 0.35554 -0.00554 0.0
O9 O 0.19975 0.32157 0.0039 0.0
C10 C 0.16292 0.36058 0.10933 0.0
O11 O 0.20435 0.41238 0.00504 0.0
O12 O 0.15809 0.41042 -0.00267 0.0
In13 In 0.6292 0.18265 0.00048 0.0
O14 O 0.64236 0.14664 0.064 0.0
O15 O 0.62793 0.18723 0.09906 0.0
C16 C 0.6404 0.16444 0.89153 0.0
C17 C 0.57111 0.18031 0.00155 0.0
C18 C 0.66842 0.22573 -0.00044 0.0
O19 O 0.64866 0.15003 0.93569 0.0
O20 O 0.62604 0.18705 0.90233 0.0
O21 O 0.6415 0.23065 -0.00465 0.0
O22 O 0.67549 0.19944 0.00476 0.0
C23 C 0.6367 0.16179 0.10883 0.0
O24 O 0.5847 0.20409 0.00478 0.0
O25 O 0.58661 0.15786 -0.00248 0.0
In26 In 0.81345 0.62933 0.00029 0.0
O27 O 0.7914 0.58506 0.00535 0.0
O28 O 0.83765 0.58622 -0.00263 0.0
C29 C 0.77223 0.67076 -0.00166 0.0
C30 C 0.8343 0.63612 0.10901 0.0
C31 C 0.83143 0.63908 0.89066 0.0
O32 O 0.76592 0.64414 -0.00546 0.0
O33 O 0.79883 0.67648 0.00394 0.0
O34 O 0.84625 0.64751 0.93422 0.0
O35 O 0.80865 0.62518 0.9025 0.0
C36 C 0.81496 0.57106 0.00191 0.0
O37 O 0.84968 0.64168 0.0644 0.0
O38 O 0.80875 0.62773 0.09877 0.0
In39 In 0.36791 0.8141 0.00064 0.0
O40 O 0.3558 0.85 0.06546 0.0
O41 O 0.36972 0.80889 0.09897 0.0
C42 C 0.35663 0.83131 0.89118 0.0
C43 C 0.426 0.81639 0.00156 0.0
C44 C 0.32778 0.77188 -0.00024 0.0
O45 O 0.34835 0.84615 0.93482 0.0
O46 O 0.37126 0.80897 0.90279 0.0
O47 O 0.3546 0.76638 -0.00432 0.0
O48 O 0.32126 0.79832 0.0051 0.0
C49 C 0.3616 0.83447 0.10972 0.0
O50 O 0.4124 0.79259 0.00471 0.0
O51 O 0.41049 0.83884 -0.00279 0.0
In52 In 0.18277 0.62895 -0.00112 0.0
O53 O 0.14716 0.64184 0.9341 0.0
O54 O 0.1882 0.62763 0.90066 0.0
C55 C 0.16495 0.63902 0.1084 0.0
C56 C 0.18111 0.5709 -0.00342 0.0
C57 C 0.225 0.66905 0.00163 0.0
O58 O 0.15017 0.64748 0.06482 0.0
O59 O 0.18767 0.625 0.09665 0.0
O60 O 0.23046 0.64221 0.00498 0.0
O61 O 0.19857 0.6756 -0.00395 0.0
C62 C 0.16279 0.63621 0.88988 0.0
O63 O 0.2047 0.58483 0.99331 0.0
O64 O 0.15843 0.58605 0.00142 0.0
In65 In 0.36796 0.18271 -0.00127 0.0
O66 O 0.41223 0.20461 0.99276 0.0
O67 O 0.41086 0.15843 0.00138 0.0
C68 C 0.32863 0.22572 2e-05 0.0
C69 C 0.36029 0.16171 0.89045 0.0
C70 C 0.35738 0.16444 0.10799 0.0
O71 O 0.35554 0.23065 0.00412 0.0
O72 O 0.32159 0.19941 -0.00518 0.0
O73 O 0.34897 0.14998 0.06398 0.0
O74 O 0.37152 0.18715 0.09686 0.0
C75 C 0.4261 0.18101 -0.00385 0.0
O76 O 0.35476 0.14656 0.93533 0.0
O77 O 0.36898 0.18718 0.90018 0.0
In78 In 0.81403 0.36778 -0.00141 0.0
O79 O 0.85077 0.35519 0.93579 0.0
O80 O 0.81007 0.36859 0.89979 0.0
C81 C 0.83129 0.35712 0.10846 0.0
C82 C 0.81469 0.42589 -0.00348 0.0
C83 C 0.77119 0.32835 0.00108 0.0
O84 O 0.84613 0.3486 0.06504 0.0
O85 O 0.80897 0.37167 0.09644 0.0
O86 O 0.76616 0.35526 0.00417 0.0
O87 O 0.7975 0.32136 -0.00452 0.0
C88 C 0.83577 0.36045 0.89055 0.0
O89 O 0.79139 0.41159 0.99213 0.0
O90 O 0.83754 0.41109 0.00237 0.0
In91 In 0.62907 0.81421 -0.00136 0.0
O92 O 0.64138 0.84998 0.93375 0.0
O93 O 0.6275 0.80881 0.90037 0.0
C94 C 0.63969 0.83112 0.10849 0.0
C95 C 0.571 0.81582 -0.00354 0.0
C96 C 0.66918 0.77224 0.00012 0.0
O97 O 0.64815 0.84615 0.06525 0.0
O98 O 0.62526 0.80872 0.09627 0.0
O99 O 0.64239 0.76663 0.00367 0.0
O100 O 0.67575 0.79867 -0.00504 0.0
C101 C 0.63567 0.83435 0.88954 0.0
O102 O 0.58499 0.79226 0.99332 0.0
O103 O 0.5861 0.83851 0.00184 0.0
In104 In 0.68285 0.86772 0.50057 0.0
O105 O 0.64624 0.85536 0.56362 0.0
O106 O 0.68711 0.86861 0.59924 0.0
C107 C 0.66478 0.85653 0.39146 0.0
C108 C 0.68247 0.92587 0.50281 0.0
C109 C 0.72505 0.8276 0.49944 0.0
O110 O 0.65011 0.84857 0.43552 0.0
O111 O 0.6874 0.87084 0.40242 0.0
O112 O 0.73055 0.85439 0.49532 0.0
O113 O 0.69861 0.8211 0.50478 0.0
C114 C 0.66141 0.86049 0.60868 0.0
O115 O 0.70576 0.9115 0.50647 0.0
O116 O 0.65957 0.91113 0.49734 0.0
In117 In 0.12913 0.68286 0.5003 0.0
O118 O 0.08517 0.70533 0.50661 0.0
O119 O 0.08597 0.65912 0.4979 0.0
C120 C 0.16923 0.72504 0.49725 0.0
C121 C 0.13664 0.66231 0.60888 0.0
C122 C 0.1395 0.66427 0.39129 0.0
O123 O 0.1424 0.7305 0.49359 0.0
O124 O 0.17577 0.69866 0.50332 0.0
O125 O 0.14772 0.64978 0.43539 0.0
O126 O 0.12548 0.68709 0.40222 0.0
C127 C 0.07102 0.68188 0.50339 0.0
O128 O 0.14193 0.64687 0.56426 0.0
O129 O 0.12825 0.68783 0.59874 0.0
In130 In 0.31395 0.12891 0.50041 0.0
O131 O 0.29131 0.08508 0.50659 0.0
O132 O 0.33754 0.0857 0.4976 0.0
C133 C 0.27185 0.16907 0.49723 0.0
C134 C 0.33429 0.13576 0.60946 0.0
C135 C 0.33225 0.13895 0.39104 0.0
O136 O 0.26636 0.14225 0.49367 0.0
O137 O 0.29825 0.1756 0.50337 0.0
O138 O 0.34688 0.14737 0.43487 0.0
O139 O 0.30947 0.12498 0.40247 0.0
C140 C 0.3147 0.07085 0.50314 0.0
O141 O 0.34989 0.14126 0.56515 0.0
O142 O 0.30872 0.12764 0.59876 0.0
In143 In 0.86788 0.31405 0.50048 0.0
O144 O 0.85596 0.35001 0.56539 0.0
O145 O 0.86957 0.30885 0.59894 0.0
C146 C 0.85649 0.33208 0.39155 0.0
C147 C 0.92597 0.31536 0.50061 0.0
C148 C 0.82784 0.2718 0.49783 0.0
O149 O 0.84836 0.34664 0.43566 0.0
O150 O 0.87106 0.30961 0.40242 0.0
O151 O 0.85469 0.26635 0.49429 0.0
O152 O 0.82127 0.29817 0.50388 0.0
C153 C 0.86163 0.33448 0.60968 0.0
O154 O 0.91198 0.29183 0.50432 0.0
O155 O 0.91086 0.33809 0.49642 0.0
In156 In 0.68302 0.12894 0.49875 0.0
O157 O 0.70523 0.08491 0.49445 0.0
O158 O 0.65893 0.08598 0.50207 0.0
C159 C 0.72503 0.1692 0.49974 0.0
C160 C 0.66274 0.13552 0.38969 0.0
C161 C 0.66557 0.13922 0.6085 0.0
O162 O 0.73063 0.1424 0.50345 0.0
O163 O 0.69854 0.17566 0.49498 0.0
O164 O 0.65063 0.1476 0.56508 0.0
O165 O 0.68825 0.12521 0.59649 0.0
C166 C 0.6817 0.0709 0.49795 0.0
O167 O 0.64715 0.1412 0.43393 0.0
O168 O 0.68825 0.12723 0.40046 0.0
In169 In 0.86789 0.68277 0.49907 0.0
O170 O 0.85514 0.64704 0.43449 0.0
O171 O 0.86921 0.68801 0.40065 0.0
C172 C 0.85684 0.66432 0.60777 0.0
C173 C 0.926 0.68112 0.49861 0.0
C174 C 0.82786 0.72504 0.5018 0.0
O175 O 0.84876 0.64984 0.56351 0.0
O176 O 0.87106 0.68704 0.59714 0.0
O177 O 0.85471 0.73049 0.5053 0.0
O178 O 0.82129 0.69865 0.49601 0.0
C179 C 0.86066 0.66256 0.39011 0.0
O180 O 0.91215 0.70474 0.49512 0.0
O181 O 0.91074 0.65848 0.50248 0.0
In182 In 0.31429 0.8677 0.49865 0.0
O183 O 0.35082 0.85525 0.43554 0.0
O184 O 0.31007 0.86888 0.39995 0.0
C185 C 0.33147 0.85647 0.6082 0.0
C186 C 0.31561 0.92583 0.49816 0.0
C187 C 0.27199 0.82769 0.49931 0.0
O188 O 0.34639 0.84831 0.56461 0.0
O189 O 0.30907 0.87098 0.59654 0.0
O190 O 0.26652 0.85452 0.50288 0.0
O191 O 0.29844 0.82111 0.49459 0.0
C192 C 0.33572 0.86061 0.39049 0.0
O193 O 0.2921 0.91183 0.49414 0.0
O194 O 0.33833 0.91072 0.50262 0.0
In195 In 0.12915 0.31393 0.49884 0.0
O196 O 0.08527 0.29131 0.49294 0.0
O197 O 0.08588 0.33752 0.5017 0.0
C198 C 0.1692 0.27174 0.49965 0.0
C199 C 0.13651 0.33468 0.39038 0.0
C200 C 0.14041 0.33159 0.60813 0.0
O201 O 0.14239 0.26627 0.50397 0.0
O202 O 0.17575 0.29816 0.49439 0.0
O203 O 0.14841 0.34641 0.56431 0.0
O204 O 0.12596 0.30909 0.59683 0.0
C205 C 0.07103 0.31468 0.49629 0.0
O206 O 0.14169 0.35013 0.43505 0.0
O207 O 0.12821 0.30911 0.40044 0.0
C208 C 0.17927 0.5137 -0.00216 0.0
C209 C 0.18017 0.53982 -0.00274 0.0
C210 C 0.17878 0.48313 -0.00018 0.0
C211 C 0.17923 0.457 0.00064 0.0
C212 C 0.48332 0.17878 -0.00318 0.0
C213 C 0.4572 0.1799 -0.0035 0.0
C214 C 0.51391 0.17831 -0.00112 0.0
C215 C 0.54004 0.17894 6e-05 0.0
C216 C 0.81581 0.48314 -0.0022 0.0
C217 C 0.81517 0.457 -0.00281 0.0
C218 C 0.81614 0.51376 -0.00019 0.0
C219 C 0.81581 0.53991 0.00073 0.0
C220 C 0.51381 0.81837 -0.00272 0.0
C221 C 0.53991 0.8168 -0.00318 0.0
C222 C 0.48323 0.81883 2e-05 0.0
C223 C 0.45709 0.81786 0.0007 0.0
C224 C 0.68068 0.0137 0.5007 0.0
C225 C 0.68093 0.03982 0.49948 0.0
C226 C 0.6812 0.98311 0.50259 0.0
C227 C 0.68201 0.95698 0.50273 0.0
C228 C 0.98321 0.67966 0.502 0.0
C229 C 0.95708 0.68011 0.50049 0.0
C230 C 0.0138 0.68012 0.50391 0.0
C231 C 0.03992 0.68109 0.50371 0.0
C232 C 0.31623 0.01363 0.50333 0.0
C233 C 0.31534 0.03975 0.50328 0.0
C234 C 0.31673 0.98305 0.5014 0.0
C235 C 0.31641 0.95692 0.49996 0.0
C236 C 0.01379 0.31608 0.49599 0.0
C237 C 0.03992 0.31528 0.49609 0.0
C238 C 0.98319 0.31652 0.49777 0.0
C239 C 0.95706 0.31618 0.49904 0.0
C240 C 0.26731 0.28882 -0.00293 0.0
C241 C 0.24875 0.30728 -0.00257 0.0
C242 C 0.28895 0.2671 -0.0016 0.0
C243 C 0.30734 0.24848 -0.00078 0.0
C244 C 0.72989 0.28863 0.00251 0.0
C245 C 0.74851 0.30701 0.00192 0.0
C246 C 0.70816 0.26702 0.00127 0.0
C247 C 0.6897 0.24848 0.0004 0.0
C248 C 0.73166 0.71094 -0.00158 0.0
C249 C 0.75053 0.69295 -0.00152 0.0
C250 C 0.70951 0.73187 -0.00037 0.0
C251 C 0.69084 0.75006 -8e-05 0.0
C252 C 0.26567 0.70949 0.0023 0.0
C253 C 0.24733 0.6908 0.00206 0.0
C254 C 0.28733 0.73121 0.00098 0.0
C255 C 0.306 0.74957 0.00036 0.0
C256 C 0.78741 0.76562 0.50251 0.0
C257 C 0.80612 0.74733 0.50226 0.0
C258 C 0.7657 0.78723 0.50104 0.0
C259 C 0.74734 0.80587 0.50025 0.0
C260 C 0.23131 0.78732 0.49782 0.0
C261 C 0.24966 0.80597 0.49856 0.0
C262 C 0.20964 0.76566 0.49643 0.0
C263 C 0.19097 0.74734 0.49674 0.0
C264 C 0.23117 0.2094 0.49605 0.0
C265 C 0.24954 0.19079 0.49653 0.0
C266 C 0.20951 0.23105 0.49752 0.0
C267 C 0.19089 0.24941 0.49856 0.0
C268 C 0.78741 0.23118 0.49661 0.0
C269 C 0.80611 0.24948 0.4971 0.0
C270 C 0.76568 0.20958 0.49797 0.0
C271 C 0.7473 0.19097 0.49882 0.0
C272 C 0.1427 0.35075 0.2803 0.0
C273 C 0.14032 0.34485 0.33151 0.0
C274 C 0.14704 0.35493 0.21968 0.0
C275 C 0.15294 0.35706 0.16842 0.0
C276 C 0.64693 0.14072 0.27919 0.0
C277 C 0.65279 0.13878 0.33051 0.0
C278 C 0.64269 0.14508 0.21858 0.0
C279 C 0.64042 0.15134 0.16753 0.0
C280 C 0.85464 0.64652 0.27988 0.0
C281 C 0.85696 0.65253 0.33108 0.0
C282 C 0.85035 0.64213 0.21927 0.0
C283 C 0.84444 0.63984 0.168 0.0
C284 C 0.35279 0.85496 0.28081 0.0
C285 C 0.34643 0.8571 0.33188 0.0
C286 C 0.35704 0.85066 0.22016 0.0
C287 C 0.35871 0.84461 0.16887 0.0
C288 C 0.14272 0.64613 0.7189 0.0
C289 C 0.14039 0.65212 0.66774 0.0
C290 C 0.14705 0.64187 0.77948 0.0
C291 C 0.15291 0.63972 0.83075 0.0
C292 C 0.35015 0.14086 0.71995 0.0
C293 C 0.34432 0.13896 0.6686 0.0
C294 C 0.35434 0.1451 0.78061 0.0
C295 C 0.35659 0.15125 0.83174 0.0
C296 C 0.85296 0.35499 0.78086 0.0
C297 C 0.84662 0.35702 0.83198 0.0
C298 C 0.85716 0.35074 0.72015 0.0
C299 C 0.85878 0.34468 0.66884 0.0
C300 C 0.64031 0.85035 0.77903 0.0
C301 C 0.63862 0.84439 0.83034 0.0
C302 C 0.64449 0.85466 0.71837 0.0
C303 C 0.65075 0.85688 0.66728 0.0
C304 C 0.84565 0.65274 0.71833 0.0
C305 C 0.84982 0.65647 0.66679 0.0
C306 C 0.84226 0.64935 0.77936 0.0
C307 C 0.83882 0.64556 0.83111 0.0
C308 C 0.34165 0.84483 0.71916 0.0
C309 C 0.33848 0.84922 0.66755 0.0
C310 C 0.34501 0.84146 0.78018 0.0
C311 C 0.34938 0.83831 0.83181 0.0
C312 C 0.15232 0.34192 0.71892 0.0
C313 C 0.14783 0.33875 0.66733 0.0
C314 C 0.15568 0.34516 0.77996 0.0
C315 C 0.15878 0.34942 0.83163 0.0
C316 C 0.6514 0.15276 0.78089 0.0
C317 C 0.64731 0.15658 0.83244 0.0
C318 C 0.65478 0.14935 0.71988 0.0
C319 C 0.65823 0.14561 0.66812 0.0
C320 C 0.84474 0.34286 0.28085 0.0
C321 C 0.84913 0.33949 0.33243 0.0
C322 C 0.84139 0.34615 0.21978 0.0
C323 C 0.83826 0.35023 0.16804 0.0
C324 C 0.65044 0.84127 0.21986 0.0
C325 C 0.64642 0.83806 0.16813 0.0
C326 C 0.65378 0.84474 0.28086 0.0
C327 C 0.65728 0.8492 0.33238 0.0
C328 C 0.15016 0.65248 0.28057 0.0
C329 C 0.14619 0.65635 0.33214 0.0
C330 C 0.15368 0.64906 0.2196 0.0
C331 C 0.15738 0.64534 0.16791 0.0
C332 C 0.3437 0.1491 0.27991 0.0
C333 C 0.33998 0.14536 0.33161 0.0
C334 C 0.34709 0.1526 0.21889 0.0
C335 C 0.35089 0.15652 0.16727 0.0
loop_
_geom_bond_atom_site_label_1
_geom_bond_atom_site_label_2
_geom_bond_distance
_geom_bond_site_symmetry_2
_ccdc_geom_bond_type
In0 O1 2.294 . S
In0 O2 2.326 . S
In0 O6 2.266 1_554 S
In0 O7 2.326 1_554 S
In0 O8 2.266 1_554 S
In0 O9 2.324 1_554 S
In0 O11 2.294 . S
In0 O12 2.326 . S
O1 In0 2.294 . S
O1 C10 1.240 . S
O2 In0 2.326 . S
O2 C10 1.252 . S
C3 O6 1.252 . S
C3 O7 1.260 . S
C4 O11 1.240 . S
C4 O12 1.252 . S
C5 O8 1.252 . S
C5 O9 1.262 . S
O6 In0 2.266 1_556 S
O6 C3 1.252 . S
O7 In0 2.326 1_556 S
O7 C3 1.260 . S
O8 In0 2.266 1_556 S
O8 C5 1.252 . S
O9 In0 2.324 1_556 S
O9 C5 1.262 . S
C10 O1 1.240 . S
C10 O2 1.252 . S
O11 In0 2.294 . S
O11 C4 1.240 . S
O12 In0 2.326 . S
O12 C4 1.252 . S
In13 O14 2.294 . S
In13 O15 2.326 . S
In13 O19 2.266 1_554 S
In13 O20 2.326 1_554 S
In13 O21 2.266 1_554 S
In13 O22 2.324 1_554 S
In13 O24 2.294 . S
In13 O25 2.326 . S
O14 In13 2.294 . S
O14 C23 1.240 . S
O15 In13 2.326 . S
O15 C23 1.252 . S
C16 O19 1.252 . S
C16 O20 1.260 . S
C17 O24 1.240 . S
C17 O25 1.252 . S
C18 O21 1.252 . S
C18 O22 1.262 . S
O19 In13 2.266 1_556 S
O19 C16 1.252 . S
O20 In13 2.326 1_556 S
O20 C16 1.260 . S
O21 In13 2.266 1_556 S
O21 C18 1.252 . S
O22 In13 2.324 1_556 S
O22 C18 1.262 . S
C23 O14 1.240 . S
C23 O15 1.252 . S
O24 In13 2.294 . S
O24 C17 1.240 . S
O25 In13 2.326 . S
O25 C17 1.252 . S
In26 O27 2.294 . S
In26 O28 2.326 . S
In26 O32 2.266 1_554 S
In26 O33 2.324 1_554 S
In26 O34 2.266 1_554 S
In26 O35 2.326 1_554 S
In26 O37 2.294 . S
In26 O38 2.326 . S
O27 In26 2.294 . S
O27 C36 1.240 . S
O28 In26 2.326 . S
O28 C36 1.252 . S
C29 O32 1.252 . S
C29 O33 1.262 . S
C30 O37 1.240 . S
C30 O38 1.252 . S
C31 O34 1.252 . S
C31 O35 1.260 . S
O32 In26 2.266 1_556 S
O32 C29 1.252 . S
O33 In26 2.324 1_556 S
O33 C29 1.262 . S
O34 In26 2.266 1_556 S
O34 C31 1.252 . S
O35 In26 2.326 1_556 S
O35 C31 1.260 . S
C36 O27 1.240 . S
C36 O28 1.252 . S
O37 In26 2.294 . S
O37 C30 1.240 . S
O38 In26 2.326 . S
O38 C30 1.252 . S
In39 O40 2.294 . S
In39 O41 2.326 . S
In39 O45 2.266 1_554 S
In39 O46 2.326 1_554 S
In39 O47 2.266 1_554 S
In39 O48 2.324 1_554 S
In39 O50 2.294 . S
In39 O51 2.326 . S
O40 In39 2.294 . S
O40 C49 1.240 . S
O41 In39 2.326 . S
O41 C49 1.252 . S
C42 O45 1.252 . S
C42 O46 1.260 . S
C43 O50 1.240 . S
C43 O51 1.252 . S
C44 O47 1.252 . S
C44 O48 1.262 . S
O45 In39 2.266 1_556 S
O45 C42 1.252 . S
O46 In39 2.326 1_556 S
O46 C42 1.260 . S
O47 In39 2.266 1_556 S
O47 C44 1.252 . S
O48 In39 2.324 1_556 S
O48 C44 1.262 . S
C49 O40 1.240 . S
C49 O41 1.252 . S
O50 In39 2.294 . S
O50 C43 1.240 . S
O51 In39 2.326 . S
O51 C43 1.252 . S
In52 O53 2.294 1_554 S
In52 O54 2.326 1_554 S
In52 O58 2.266 . S
In52 O59 2.326 . S
In52 O60 2.266 . S
In52 O61 2.326 . S
In52 O63 2.294 1_554 S
In52 O64 2.326 1_554 S
O53 In52 2.294 1_556 S
O53 C62 1.240 . S
O54 In52 2.326 1_556 S
O54 C62 1.252 . S
C55 O58 1.252 . S
C55 O59 1.260 . S
C56 O63 1.240 . S
C56 O64 1.252 . S
C57 O60 1.252 . S
C57 O61 1.260 . S
O58 In52 2.266 . S
O58 C55 1.252 . S
O59 In52 2.326 . S
O59 C55 1.260 . S
O60 In52 2.266 . S
O60 C57 1.252 . S
O61 In52 2.326 . S
O61 C57 1.260 . S
C62 O53 1.240 . S
C62 O54 1.252 . S
O63 In52 2.294 1_556 S
O63 C56 1.240 . S
O64 In52 2.326 1_556 S
O64 C56 1.252 . S
In65 O66 2.294 1_554 S
In65 O67 2.326 1_554 S
In65 O71 2.266 . S
In65 O72 2.326 . S
In65 O73 2.266 . S
In65 O74 2.326 . S
In65 O76 2.294 1_554 S
In65 O77 2.326 1_554 S
O66 In65 2.294 1_556 S
O66 C75 1.240 . S
O67 In65 2.326 1_556 S
O67 C75 1.252 . S
C68 O71 1.252 . S
C68 O72 1.260 . S
C69 O76 1.240 . S
C69 O77 1.252 . S
C70 O73 1.252 . S
C70 O74 1.260 . S
O71 In65 2.266 . S
O71 C68 1.252 . S
O72 In65 2.326 . S
O72 C68 1.260 . S
O73 In65 2.266 . S
O73 C70 1.252 . S
O74 In65 2.326 . S
O74 C70 1.260 . S
C75 O66 1.240 . S
C75 O67 1.252 . S
O76 In65 2.294 1_556 S
O76 C69 1.240 . S
O77 In65 2.326 1_556 S
O77 C69 1.252 . S
In78 O79 2.294 1_554 S
In78 O80 2.326 1_554 S
In78 O84 2.266 . S
In78 O85 2.326 . S
In78 O86 2.266 . S
In78 O87 2.326 . S
In78 O89 2.294 1_554 S
In78 O90 2.326 1_554 S
O79 In78 2.294 1_556 S
O79 C88 1.240 . S
O80 In78 2.326 1_556 S
O80 C88 1.252 . S
C81 O84 1.252 . S
C81 O85 1.260 . S
C82 O89 1.240 . S
C82 O90 1.252 . S
C83 O86 1.252 . S
C83 O87 1.260 . S
O84 In78 2.266 . S
O84 C81 1.252 . S
O85 In78 2.326 . S
O85 C81 1.260 . S
O86 In78 2.266 . S
O86 C83 1.252 . S
O87 In78 2.326 . S
O87 C83 1.260 . S
C88 O79 1.240 . S
C88 O80 1.252 . S
O89 In78 2.294 1_556 S
O89 C82 1.240 . S
O90 In78 2.326 1_556 S
O90 C82 1.252 . S
In91 O92 2.294 1_554 S
In91 O93 2.326 1_554 S
In91 O97 2.266 . S
In91 O98 2.326 . S
In91 O99 2.266 . S
In91 O100 2.326 . S
In91 O102 2.294 1_554 S
In91 O103 2.326 1_554 S
O92 In91 2.294 1_556 S
O92 C101 1.240 . S
O93 In91 2.326 1_556 S
O93 C101 1.252 . S
C94 O97 1.252 . S
C94 O98 1.260 . S
C95 O102 1.240 . S
C95 O103 1.252 . S
C96 O99 1.252 . S
C96 O100 1.260 . S
O97 In91 2.266 . S
O97 C94 1.252 . S
O98 In91 2.326 . S
O98 C94 1.260 . S
O99 In91 2.266 . S
O99 C96 1.252 . S
O100 In91 2.326 . S
O100 C96 1.260 . S
C101 O92 1.240 . S
C101 O93 1.252 . S
O102 In91 2.294 1_556 S
O102 C95 1.240 . S
O103 In91 2.326 1_556 S
O103 C95 1.252 . S
In104 O105 2.294 . S
In104 O106 2.326 . S
In104 O110 2.266 . S
In104 O111 2.326 . S
In104 O112 2.266 . S
In104 O113 2.326 . S
In104 O115 2.294 . S
In104 O116 2.326 . S
O105 In104 2.294 . S
O105 C114 1.240 . S
O106 In104 2.326 . S
O106 C114 1.252 . S
C107 O110 1.252 . S
C107 O111 1.260 . S
C108 O115 1.240 . S
C108 O116 1.252 . S
C109 O112 1.252 . S
C109 O113 1.260 . S
O110 In104 2.266 . S
O110 C107 1.252 . S
O111 In104 2.326 . S
O111 C107 1.260 . S
O112 In104 2.266 . S
O112 C109 1.252 . S
O113 In104 2.326 . S
O113 C109 1.260 . S
C114 O105 1.240 . S
C114 O106 1.252 . S
O115 In104 2.294 . S
O115 C108 1.240 . S
O116 In104 2.326 . S
O116 C108 1.252 . S
In117 O118 2.294 . S
In117 O119 2.326 . S
In117 O123 2.266 . S
In117 O124 2.326 . S
In117 O125 2.266 . S
In117 O126 2.326 . S
In117 O128 2.294 . S
In117 O129 2.326 . S
O118 In117 2.294 . S
O118 C127 1.240 . S
O119 In117 2.326 . S
O119 C127 1.252 . S
C120 O123 1.252 . S
C120 O124 1.260 . S
C121 O128 1.240 . S
C121 O129 1.252 . S
C122 O125 1.252 . S
C122 O126 1.260 . S
O123 In117 2.266 . S
O123 C120 1.252 . S
O124 In117 2.326 . S
O124 C120 1.260 . S
O125 In117 2.266 . S
O125 C122 1.252 . S
O126 In117 2.326 . S
O126 C122 1.260 . S
C127 O118 1.240 . S
C127 O119 1.252 . S
O128 In117 2.294 . S
O128 C121 1.240 . S
O129 In117 2.326 . S
O129 C121 1.252 . S
In130 O131 2.294 . S
In130 O132 2.326 . S
In130 O136 2.266 . S
In130 O137 2.326 . S
In130 O138 2.266 . S
In130 O139 2.326 . S
In130 O141 2.294 . S
In130 O142 2.326 . S
O131 In130 2.294 . S
O131 C140 1.240 . S
O132 In130 2.326 . S
O132 C140 1.252 . S
C133 O136 1.252 . S
C133 O137 1.260 . S
C134 O141 1.240 . S
C134 O142 1.252 . S
C135 O138 1.252 . S
C135 O139 1.260 . S
O136 In130 2.266 . S
O136 C133 1.252 . S
O137 In130 2.326 . S
O137 C133 1.260 . S
O138 In130 2.266 . S
O138 C135 1.252 . S
O139 In130 2.326 . S
O139 C135 1.260 . S
C140 O131 1.240 . S
C140 O132 1.252 . S
O141 In130 2.294 . S
O141 C134 1.240 . S
O142 In130 2.326 . S
O142 C134 1.252 . S
In143 O144 2.294 . S
In143 O145 2.326 . S
In143 O149 2.266 . S
In143 O150 2.326 . S
In143 O151 2.266 . S
In143 O152 2.326 . S
In143 O154 2.294 . S
In143 O155 2.326 . S
O144 In143 2.294 . S
O144 C153 1.240 . S
O145 In143 2.326 . S
O145 C153 1.252 . S
C146 O149 1.252 . S
C146 O150 1.260 . S
C147 O154 1.240 . S
C147 O155 1.252 . S
C148 O151 1.252 . S
C148 O152 1.260 . S
O149 In143 2.266 . S
O149 C146 1.252 . S
O150 In143 2.326 . S
O150 C146 1.260 . S
O151 In143 2.266 . S
O151 C148 1.252 . S
O152 In143 2.326 . S
O152 C148 1.260 . S
C153 O144 1.240 . S
C153 O145 1.252 . S
O154 In143 2.294 . S
O154 C147 1.240 . S
O155 In143 2.326 . S
O155 C147 1.252 . S
In156 O157 2.294 . S
In156 O158 2.326 . S
In156 O162 2.266 . S
In156 O163 2.326 . S
In156 O164 2.266 . S
In156 O165 2.326 . S
In156 O167 2.294 . S
In156 O168 2.326 . S
O157 In156 2.294 . S
O157 C166 1.240 . S
O158 In156 2.326 . S
O158 C166 1.252 . S
C159 O162 1.252 . S
C159 O163 1.260 . S
C160 O167 1.240 . S
C160 O168 1.252 . S
C161 O164 1.252 . S
C161 O165 1.260 . S
O162 In156 2.266 . S
O162 C159 1.252 . S
O163 In156 2.326 . S
O163 C159 1.260 . S
O164 In156 2.266 . S
O164 C161 1.252 . S
O165 In156 2.326 . S
O165 C161 1.260 . S
C166 O157 1.240 . S
C166 O158 1.252 . S
O167 In156 2.294 . S
O167 C160 1.240 . S
O168 In156 2.326 . S
O168 C160 1.252 . S
In169 O170 2.294 . S
In169 O171 2.326 . S
In169 O175 2.266 . S
In169 O176 2.326 . S
In169 O177 2.266 . S
In169 O178 2.326 . S
In169 O180 2.294 . S
In169 O181 2.326 . S
O170 In169 2.294 . S
O170 C179 1.240 . S
O171 In169 2.326 . S
O171 C179 1.252 . S
C172 O175 1.252 . S
C172 O176 1.260 . S
C173 O180 1.240 . S
C173 O181 1.252 . S
C174 O177 1.252 . S
C174 O178 1.260 . S
O175 In169 2.266 . S
O175 C172 1.252 . S
O176 In169 2.326 . S
O176 C172 1.260 . S
O177 In169 2.266 . S
O177 C174 1.252 . S
O178 In169 2.326 . S
O178 C174 1.260 . S
C179 O170 1.240 . S
C179 O171 1.252 . S
O180 In169 2.294 . S
O180 C173 1.240 . S
O181 In169 2.326 . S
O181 C173 1.252 . S
In182 O183 2.294 . S
In182 O184 2.326 . S
In182 O188 2.266 . S
In182 O189 2.326 . S
In182 O190 2.266 . S
In182 O191 2.326 . S
In182 O193 2.294 . S
In182 O194 2.326 . S
O183 In182 2.294 . S
O183 C192 1.240 . S
O184 In182 2.326 . S
O184 C192 1.252 . S
C185 O188 1.252 . S
C185 O189 1.260 . S
C186 O193 1.240 . S
C186 O194 1.252 . S
C187 O190 1.252 . S
C187 O191 1.260 . S
O188 In182 2.266 . S
O188 C185 1.252 . S
O189 In182 2.326 . S
O189 C185 1.260 . S
O190 In182 2.266 . S
O190 C187 1.252 . S
O191 In182 2.326 . S
O191 C187 1.260 . S
C192 O183 1.240 . S
C192 O184 1.252 . S
O193 In182 2.294 . S
O193 C186 1.240 . S
O194 In182 2.326 . S
O194 C186 1.252 . S
In195 O196 2.294 . S
In195 O197 2.326 . S
In195 O201 2.266 . S
In195 O202 2.326 . S
In195 O203 2.266 . S
In195 O204 2.326 . S
In195 O206 2.294 . S
In195 O207 2.326 . S
O196 In195 2.294 . S
O196 C205 1.240 . S
O197 In195 2.326 . S
O197 C205 1.252 . S
C198 O201 1.252 . S
C198 O202 1.260 . S
C199 O206 1.240 . S
C199 O207 1.252 . S
C200 O203 1.252 . S
C200 O204 1.260 . S
O201 In195 2.266 . S
O201 C198 1.252 . S
O202 In195 2.326 . S
O202 C198 1.260 . S
O203 In195 2.266 . S
O203 C200 1.252 . S
O204 In195 2.326 . S
O204 C200 1.260 . S
C205 O196 1.240 . S
C205 O197 1.252 . S
O206 In195 2.294 . S
O206 C199 1.240 . S
O207 In195 2.326 . S
O207 C199 1.252 . S
C208 C209 1.169 1_554 S
C208 C210 1.381 . S
C209 C208 1.169 1_556 S
C210 C208 1.381 . S
C210 C211 1.170 . S
C211 C210 1.170 . S
C212 C213 1.170 . S
C212 C214 1.380 1_556 S
C213 C212 1.170 . S
C214 C212 1.380 1_554 S
C214 C215 1.170 . S
C215 C214 1.170 . S
C216 C217 1.169 1_554 S
C216 C218 1.382 . S
C217 C216 1.169 1_556 S
C218 C216 1.382 . S
C218 C219 1.170 . S
C219 C218 1.170 . S
C220 C221 1.170 1_554 S
C220 C222 1.381 . S
C221 C220 1.170 1_556 S
C222 C220 1.381 . S
C222 C223 1.170 . S
C223 C222 1.170 . S
C224 C225 1.170 . S
C224 C226 1.380 1_545 S
C225 C224 1.170 . S
C226 C224 1.380 1_565 S
C226 C227 1.170 . S
C227 C226 1.170 . S
C228 C229 1.170 . S
C228 C230 1.380 1_655 S
C229 C228 1.170 . S
C230 C228 1.380 1_455 S
C230 C231 1.170 . S
C231 C230 1.170 . S
C232 C233 1.170 . S
C232 C234 1.380 1_545 S
C233 C232 1.170 . S
C234 C232 1.380 1_565 S
C234 C235 1.170 . S
C235 C234 1.170 . S
C236 C237 1.170 . S
C236 C238 1.380 1_455 S
C237 C236 1.170 . S
C238 C236 1.380 1_655 S
C238 C239 1.170 . S
C239 C238 1.170 . S
C240 C241 1.170 . S
C240 C242 1.380 1_556 S
C241 C240 1.170 . S
C242 C240 1.380 1_554 S
C242 C243 1.170 . S
C243 C242 1.170 . S
C244 C245 1.170 . S
C244 C246 1.380 . S
C245 C244 1.170 . S
C246 C244 1.380 . S
C246 C247 1.170 1_554 S
C247 C246 1.170 1_556 S
C248 C249 1.169 1_554 S
C248 C250 1.381 . S
C249 C248 1.169 1_556 S
C250 C248 1.381 . S
C250 C251 1.170 . S
C251 C250 1.170 . S
C252 C253 1.170 . S
C252 C254 1.380 . S
C253 C252 1.170 . S
C254 C252 1.380 . S
C254 C255 1.170 1_554 S
C255 C254 1.170 1_556 S
C256 C257 1.170 . S
C256 C258 1.380 . S
C257 C256 1.170 . S
C258 C256 1.380 . S
C258 C259 1.170 . S
C259 C258 1.170 . S
C260 C261 1.170 . S
C260 C262 1.380 . S
C261 C260 1.170 . S
C262 C260 1.380 . S
C262 C263 1.170 . S
C263 C262 1.170 . S
C264 C265 1.170 . S
C264 C266 1.380 . S
C265 C264 1.170 . S
C266 C264 1.380 . S
C266 C267 1.170 . S
C267 C266 1.170 . S
C268 C269 1.170 . S
C268 C270 1.380 . S
C269 C268 1.170 . S
C270 C268 1.380 . S
C270 C271 1.170 . S
C271 C270 1.170 . S
C272 C273 1.170 . S
C272 C274 1.380 . S
C273 C272 1.170 . S
C274 C272 1.380 . S
C274 C275 1.170 . S
C275 C274 1.170 . S
C276 C277 1.170 . S
C276 C278 1.380 . S
C277 C276 1.170 . S
C278 C276 1.380 . S
C278 C279 1.170 . S
C279 C278 1.170 . S
C280 C281 1.170 . S
C280 C282 1.380 . S
C281 C280 1.170 . S
C282 C280 1.380 . S
C282 C283 1.170 . S
C283 C282 1.170 . S
C284 C285 1.170 . S
C284 C286 1.380 . S
C285 C284 1.170 . S
C286 C284 1.380 . S
C286 C287 1.170 . S
C287 C286 1.170 . S
C288 C289 1.170 . S
C288 C290 1.380 . S
C289 C288 1.170 . S
C290 C288 1.380 . S
C290 C291 1.170 . S
C291 C290 1.170 . S
C292 C293 1.170 . S
C292 C294 1.380 . S
C293 C292 1.170 . S
C294 C292 1.380 . S
C294 C295 1.170 . S
C295 C294 1.170 . S
C296 C297 1.170 . S
C296 C298 1.380 . S
C297 C296 1.170 . S
C298 C296 1.380 . S
C298 C299 1.170 . S
C299 C298 1.170 . S
C300 C301 1.170 . S
C300 C302 1.380 . S
C301 C300 1.170 . S
C302 C300 1.380 . S
C302 C303 1.170 . S
C303 C302 1.170 . S
C304 C305 1.170 . S
C304 C306 1.380 . S
C305 C304 1.170 . S
C306 C304 1.380 . S
C306 C307 1.170 . S
C307 C306 1.170 . S
C308 C309 1.170 . S
C308 C310 1.380 . S
C309 C308 1.170 . S
C310 C308 1.380 . S
C310 C311 1.170 . S
C311 C310 1.170 . S
C312 C313 1.170 . S
C312 C314 1.380 . S
C313 C312 1.170 . S
C314 C312 1.380 . S
C314 C315 1.170 . S
C315 C314 1.170 . S
C316 C317 1.170 . S
C316 C318 1.380 . S
C317 C316 1.170 . S
C318 C316 1.380 . S
C318 C319 1.170 . S
C319 C318 1.170 . S
C320 C321 1.170 . S
C320 C322 1.380 . S
C321 C320 1.170 . S
C322 C320 1.380 . S
C322 C323 1.170 . S
C323 C322 1.170 . S
C324 C325 1.170 . S
C324 C326 1.380 . S
C325 C324 1.170 . S
C326 C324 1.380 . S
C326 C327 1.170 . S
C327 C326 1.170 . S
C328 C329 1.170 . S
C328 C330 1.380 . S
C329 C328 1.170 . S
C330 C328 1.380 . S
C330 C331 1.170 . S
C331 C330 1.170 . S
C332 C333 1.170 . S
C332 C334 1.380 . S
C333 C332 1.170 . S
C334 C332 1.380 . S
C334 C335 1.170 . S
C335 C334 1.170 . S
C209 C56 1.511 . S
C211 C4 1.509 . S
C213 C75 1.512 . S
C215 C17 1.507 . S
C217 C82 1.506 . S
C219 C36 1.504 . S
C221 C95 1.511 . S
C223 C43 1.509 . S
C225 C166 1.502 . S
C227 C108 1.508 . S
C229 C173 1.502 . S
C231 C127 1.512 . S
C233 C140 1.510 . S
C235 C186 1.502 . S
C237 C205 1.510 . S
C239 C147 1.502 . S
C241 C5 1.548 . S
C243 C68 1.539 . S
C245 C83 1.549 . S
C247 C18 1.538 . S
C249 C29 1.545 . S
C251 C96 1.542 . S
C253 C57 1.548 . S
C255 C44 1.539 . S
C257 C174 1.548 . S
C259 C109 1.538 . S
C261 C187 1.537 . S
C263 C120 1.549 . S
C265 C133 1.550 . S
C267 C198 1.537 . S
C269 C148 1.549 . S
C271 C159 1.538 . S
C273 C199 1.447 . S
C275 C10 1.446 . S
C277 C160 1.448 . S
C279 C23 1.452 . S
C281 C179 1.446 . S
C283 C30 1.446 . S
C285 C192 1.457 . S
C287 C49 1.453 . S
C289 C121 1.447 . S
C291 C62 1.445 . S
C293 C134 1.448 . S
C295 C69 1.451 . S
C297 C88 1.458 . S
C299 C153 1.454 . S
C301 C101 1.451 . S
C303 C114 1.456 . S
C305 C172 1.430 . S
C307 C31 1.410 . S
C309 C185 1.421 . S
C311 C42 1.421 . S
C313 C200 1.424 . S
C315 C3 1.417 . S
C317 C16 1.430 . S
C319 C161 1.410 . S
C321 C146 1.429 . S
C323 C81 1.412 . S
C325 C94 1.411 . S
C327 C107 1.430 . S
C329 C122 1.425 . S
C331 C55 1.415 . S
C333 C135 1.416 . S
C335 C70 1.424 . S
