# Generated by pormake.
# Topology umy, (4)-cn, num edge types: 1
# Building blocks:
#     Node 0, Type 0, BuildingBlock: NAHDIM_clean_sbu_0, # of connection points: 4
#     Node 1, Type 0, BuildingBlock: NAHDIM_clean_sbu_0, # of connection points: 4
#     Node 2, Type 0, BuildingBlock: NAHDIM_clean_sbu_0, # of connection points: 4
#     Node 3, Type 0, BuildingBlock: NAHDIM_clean_sbu_0, # of connection points: 4
#     Node 4, Type 0, BuildingBlock: NAHDIM_clean_sbu_0, # of connection points: 4
#     Node 5, Type 0, BuildingBlock: NAHDIM_clean_sbu_0, # of connection points: 4
#     Node 6, Type 0, BuildingBlock: NAHDIM_clean_sbu_0, # of connection points: 4
#     Node 7, Type 0, BuildingBlock: NAHDIM_clean_sbu_0, # of connection points: 4
#     Node 8, Type 0, BuildingBlock: NAHDIM_clean_sbu_0, # of connection points: 4
#     Node 9, Type 0, BuildingBlock: NAHDIM_clean_sbu_0, # of connection points: 4
#     Node 10, Type 0, BuildingBlock: NAHDIM_clean_sbu_0, # of connection points: 4
#     Node 11, Type 0, BuildingBlock: NAHDIM_clean_sbu_0, # of connection points: 4
#     Edge 12, Type (0, 0), BuildingBlock: CIFDUS_clean_linker_0, # of connection points: 2
#     Edge 13, Type (0, 0), BuildingBlock: CIFDUS_clean_linker_0, # of connection points: 2
#     Edge 14, Type (0, 0), BuildingBlock: CIFDUS_clean_linker_0, # of connection points: 2
#     Edge 15, Type (0, 0), BuildingBlock: CIFDUS_clean_linker_0, # of connection points: 2
#     Edge 16, Type (0, 0), BuildingBlock: CIFDUS_clean_linker_0, # of connection points: 2
#     Edge 17, Type (0, 0), BuildingBlock: CIFDUS_clean_linker_0, # of connection points: 2
#     Edge 18, Type (0, 0), BuildingBlock: CIFDUS_clean_linker_0, # of connection points: 2
#     Edge 19, Type (0, 0), BuildingBlock: CIFDUS_clean_linker_0, # of connection points: 2
#     Edge 20, Type (0, 0), BuildingBlock: CIFDUS_clean_linker_0, # of connection points: 2
#     Edge 21, Type (0, 0), BuildingBlock: CIFDUS_clean_linker_0, # of connection points: 2
#     Edge 22, Type (0, 0), BuildingBlock: CIFDUS_clean_linker_0, # of connection points: 2
#     Edge 23, Type (0, 0), BuildingBlock: CIFDUS_clean_linker_0, # of connection points: 2
#     Edge 24, Type (0, 0), BuildingBlock: CIFDUS_clean_linker_0, # of connection points: 2
#     Edge 25, Type (0, 0), BuildingBlock: CIFDUS_clean_linker_0, # of connection points: 2
#     Edge 26, Type (0, 0), BuildingBlock: CIFDUS_clean_linker_0, # of connection points: 2
#     Edge 27, Type (0, 0), BuildingBlock: CIFDUS_clean_linker_0, # of connection points: 2
#     Edge 28, Type (0, 0), BuildingBlock: CIFDUS_clean_linker_0, # of connection points: 2
#     Edge 29, Type (0, 0), BuildingBlock: CIFDUS_clean_linker_0, # of connection points: 2
#     Edge 30, Type (0, 0), BuildingBlock: CIFDUS_clean_linker_0, # of connection points: 2
#     Edge 31, Type (0, 0), BuildingBlock: CIFDUS_clean_linker_0, # of connection points: 2
#     Edge 32, Type (0, 0), BuildingBlock: CIFDUS_clean_linker_0, # of connection points: 2
#     Edge 33, Type (0, 0), BuildingBlock: CIFDUS_clean_linker_0, # of connection points: 2
#     Edge 34, Type (0, 0), BuildingBlock: CIFDUS_clean_linker_0, # of connection points: 2
#     Edge 35, Type (0, 0), BuildingBlock: CIFDUS_clean_linker_0, # of connection points: 2
# Relax obj value: 0.157
# Max RMSD: 0.142
# Mean RMSD: 0.142
data_MOF--net-umy--node1-NAHDIM_clean_sbu_0--edge1-CIFDUS_clean_linker_0
_symmetry_space_group_name_H-M    P1
_symmetry_Int_Tables_number       1
_symmetry_cell_setting            triclinic
loop_
_symmetry_equiv_pos_as_xyz
'x, y, z'
_cell_length_a     34.006407
_cell_length_b     34.041038
_cell_length_c     42.459198
_cell_angle_alpha  90.046272
_cell_angle_beta   89.947217
_cell_angle_gamma 119.98075
loop_
_atom_site_label
_atom_site_type_symbol
_atom_site_fract_x
_atom_site_fract_y
_atom_site_fract_z
_atom_type_partial_charge
C0 C 0.05875 0.40217 0.13515 0.0
O1 O 0.05204 0.38473 0.16358 0.0
O2 O 0.02201 0.27318 0.12712 0.0
Zn3 Zn 0.07983 0.33162 0.11806 0.0
O4 O 0.11076 0.32826 0.07875 0.0
C5 C 0.15448 0.33598 0.15357 0.0
O6 O 0.16228 0.32116 0.12705 0.0
O7 O 0.06945 0.38427 0.11294 0.0
C8 C 0.09348 0.30092 0.05581 0.0
O9 O 0.05027 0.26982 0.0565 0.0
C10 C 0.98274 0.26902 0.12658 0.0
O11 O 0.9783 0.30343 0.11737 0.0
O12 O 0.12148 0.34353 0.15509 0.0
C13 C 0.63348 0.06389 0.25848 0.0
O14 O 0.65792 0.07442 0.23262 0.0
O15 O 0.71862 0.02021 0.29972 0.0
Zn16 Zn 0.71586 0.07629 0.28807 0.0
O17 O 0.75157 0.10775 0.24904 0.0
C18 C 0.72808 0.10537 0.35174 0.0
O19 O 0.6936 0.06402 0.35507 0.0
O20 O 0.65096 0.0617 0.28437 0.0
C21 C 0.77731 0.09743 0.23381 0.0
O22 O 0.78074 0.06232 0.24273 0.0
C23 C 0.7542 0.02574 0.31356 0.0
O24 O 0.78901 0.06701 0.31634 0.0
O25 O 0.74353 0.11955 0.32429 0.0
C26 C 0.57894 0.64417 0.4328 0.0
O27 O 0.61789 0.6502 0.42217 0.0
O28 O 0.68242 0.71234 0.47264 0.0
Zn29 Zn 0.63844 0.73171 0.45748 0.0
O30 O 0.65907 0.77071 0.41854 0.0
C31 C 0.63401 0.75915 0.52091 0.0
O32 O 0.63903 0.72426 0.5277 0.0
O33 O 0.57863 0.6755 0.44891 0.0
C34 C 0.69141 0.81145 0.42044 0.0
O35 O 0.71283 0.82624 0.44738 0.0
C36 C 0.72364 0.72725 0.46505 0.0
O37 O 0.74262 0.75898 0.4435 0.0
O38 O 0.63146 0.7682 0.49221 0.0
C39 C 0.94646 0.58997 0.63218 0.0
O40 O 0.95223 0.60763 0.6605 0.0
O41 O 0.96711 0.70932 0.63567 0.0
Zn42 Zn 0.91335 0.65076 0.62159 0.0
O43 O 0.8812 0.66118 0.5856 0.0
C44 C 0.84248 0.64011 0.66414 0.0
O45 O 0.8369 0.66498 0.64293 0.0
O46 O 0.93088 0.60415 0.61053 0.0
C47 C 0.90156 0.69014 0.56393 0.0
O48 O 0.94613 0.71388 0.564 0.0
C49 C 0.00869 0.72182 0.6313 0.0
O50 O 0.01956 0.69635 0.61433 0.0
O51 O 0.87208 0.62838 0.65939 0.0
C52 C 0.37984 0.95591 0.75748 0.0
O53 O 0.37324 0.98482 0.74106 0.0
O54 O 0.30977 -0.002 0.78579 0.0
Zn55 Zn 0.29185 0.93228 0.77992 0.0
O56 O 0.25317 0.90333 0.7414 0.0
C57 C 0.23379 0.91133 0.834 0.0
O58 O 0.23275 0.94731 0.82405 0.0
O59 O 0.34892 0.92887 0.77616 0.0
C60 C 0.21166 0.89276 0.74076 0.0
O61 O 0.1944 0.90284 0.76503 0.0
C62 C 0.29088 0.01903 0.77447 0.0
O63 O 0.25695 -0.00177 0.75467 0.0
O64 O 0.25725 0.89791 0.81889 0.0
C65 C 0.3953 0.36631 0.92209 0.0
O66 O 0.35883 0.36786 0.914 0.0
O67 O 0.28054 0.28358 0.93805 0.0
Zn68 Zn 0.33165 0.27071 0.93265 0.0
O69 O 0.32502 0.23245 0.89476 0.0
C70 C 0.29789 0.19644 0.97534 0.0
O71 O 0.2673 0.17804 0.95298 0.0
O72 O 0.39141 0.3288 0.93071 0.0
C73 C 0.35804 0.22554 0.89037 0.0
O74 O 0.39291 0.24464 0.90962 0.0
C75 C 0.23936 0.25708 0.93049 0.0
O76 O 0.22868 0.22005 0.91447 0.0
O77 O 0.33075 0.23658 0.97161 0.0
C78 C 0.59517 0.92077 0.75871 0.0
O79 O 0.59942 0.88786 0.77134 0.0
O80 O 0.73488 0.00951 0.72127 0.0
Zn81 Zn 0.68481 0.9483 0.73584 0.0
O82 O 0.70023 0.9256 0.77502 0.0
C83 C 0.66247 0.90806 0.67375 0.0
O84 O 0.65892 0.94389 0.66722 0.0
O85 O 0.62782 0.95108 0.7427 0.0
C86 C 0.7281 0.91119 0.77264 0.0
O87 O 0.74807 0.91466 0.74544 0.0
C88 C 0.77647 0.02967 0.7293 0.0
O89 O 0.79041 0.01121 0.75043 0.0
O90 O 0.67296 0.90292 0.70154 0.0
C91 C 0.62266 0.60304 0.89619 0.0
O92 O 0.62812 0.64108 0.88433 0.0
O93 O 0.72748 0.70799 0.88446 0.0
Zn94 Zn 0.72081 0.64631 0.88959 0.0
O95 O 0.76507 0.64848 0.9219 0.0
C96 C 0.7167 0.63727 0.82307 0.0
O97 O 0.6869 0.65055 0.82761 0.0
O98 O 0.65725 0.59882 0.901 0.0
C99 C 0.78145 0.62233 0.91898 0.0
O100 O 0.76831 0.59379 0.89522 0.0
C101 C 0.7656 0.73785 0.87342 0.0
O102 O 0.79786 0.72758 0.87018 0.0
O103 O 0.73569 0.63113 0.84686 0.0
C104 C 0.0648 0.62739 0.07537 0.0
O105 O 0.04541 0.64213 0.09524 0.0
O106 O 0.01319 0.68388 0.02661 0.0
Zn107 Zn 0.0775 0.70427 0.0395 0.0
O108 O 0.09973 0.74763 0.07634 0.0
C109 C 0.10736 0.75958 0.98443 0.0
O110 O 0.07133 0.76267 0.99131 0.0
O111 O 0.08157 0.64908 0.04996 0.0
C112 C 0.0958 0.78282 0.07745 0.0
O113 O 0.0742 0.79026 0.0547 0.0
C114 C 0.98234 0.68748 0.04097 0.0
O115 O 0.99036 0.706 0.06908 0.0
O116 O 0.11755 0.73568 0.00192 0.0
C117 C 0.39835 0.05755 0.22991 0.0
O118 O 0.37445 0.04942 0.25587 0.0
O119 O 0.27384 0.00413 0.191 0.0
Zn120 Zn 0.32557 0.06676 0.20083 0.0
O121 O 0.31394 0.09354 0.23973 0.0
C122 C 0.29951 0.09536 0.14468 0.0
O123 O 0.2601 0.05943 0.15097 0.0
O124 O 0.38378 0.06548 0.20456 0.0
C125 C 0.27626 0.07441 0.25435 0.0
O126 O 0.24367 0.03486 0.24446 0.0
C127 C 0.27314 0.96687 0.19538 0.0
O128 O 0.30748 0.96702 0.20963 0.0
O129 O 0.33259 0.10629 0.16338 0.0
C130 C 0.33102 0.4285 0.41254 0.0
O131 O 0.29134 0.42395 0.41967 0.0
O132 O 0.29108 0.29031 0.37589 0.0
Zn133 Zn 0.27541 0.33852 0.38759 0.0
O134 O 0.22947 0.31989 0.42288 0.0
C135 C 0.26488 0.3502 0.32186 0.0
O136 O 0.29994 0.34396 0.31983 0.0
O137 O 0.33253 0.39595 0.39903 0.0
C138 C 0.18748 0.29815 0.41599 0.0
O139 O 0.1754 0.28676 0.38652 0.0
C140 C 0.26117 0.24913 0.37106 0.0
O141 O 0.21845 0.23587 0.37704 0.0
O142 O 0.24891 0.3505 0.34887 0.0
C143 C 0.94908 0.36665 0.57933 0.0
O144 O 0.95662 0.34703 0.60337 0.0
O145 O 0.98038 0.28054 0.53517 0.0
Zn146 Zn 0.92428 0.28169 0.54872 0.0
O147 O 0.89649 0.2466 0.58851 0.0
C148 C 0.84585 0.21099 0.51634 0.0
O149 O 0.83999 0.18926 0.54303 0.0
O150 O 0.93608 0.34544 0.55335 0.0
C151 C 0.91337 0.23063 0.60785 0.0
O152 O 0.95502 0.2387 0.60361 0.0
C153 C 0.02116 0.3068 0.5437 0.0
O154 O 0.02985 0.33782 0.56524 0.0
O155 O 0.87901 0.25123 0.5136 0.0
H156 H 0.03825 0.57654 0.12898 0.0
H157 H 0.09474 0.58408 0.03653 0.0
H158 H 0.09676 0.51473 0.04679 0.0
H159 H 0.08301 0.45235 0.08177 0.0
H160 H 0.02811 0.44473 0.17473 0.0
H161 H 0.02483 0.51373 0.1644 0.0
C162 C 0.05098 0.563 0.11107 0.0
C163 C 0.0663 0.58552 0.08203 0.0
C164 C 0.05228 0.5231 0.11716 0.0
C165 C 0.08282 0.56756 0.05912 0.0
C166 C 0.08394 0.52783 0.06493 0.0
C167 C 0.07014 0.4656 0.0998 0.0
C168 C 0.05573 0.44333 0.12896 0.0
C169 C 0.06878 0.50537 0.09383 0.0
C170 C 0.03944 0.46121 0.15208 0.0
C171 C 0.03757 0.50067 0.14619 0.0
H172 H 0.58867 0.07202 0.2082 0.0
H173 H 0.57441 0.04238 0.30777 0.0
H174 H 0.49999 0.03674 0.30761 0.0
H175 H 0.44001 0.04274 0.27958 0.0
H176 H 0.455 0.07315 0.18009 0.0
H177 H 0.52798 0.07591 0.17994 0.0
C178 C 0.56922 0.06407 0.22985 0.0
C179 C 0.58723 0.0578 0.25794 0.0
C180 C 0.5266 0.06121 0.22967 0.0
C181 C 0.56146 0.04748 0.28578 0.0
C182 C 0.51888 0.04431 0.28575 0.0
C183 C 0.45917 0.04986 0.25785 0.0
C184 C 0.44207 0.05793 0.22995 0.0
C185 C 0.5013 0.05154 0.25789 0.0
C186 C 0.46735 0.06695 0.20197 0.0
C187 C 0.50914 0.06854 0.20182 0.0
H188 H 0.49304 0.62138 0.45048 0.0
H189 H 0.56916 0.57026 0.40087 0.0
H190 H 0.49941 0.49905 0.39066 0.0
H191 H 0.41694 0.45128 0.39563 0.0
H192 H 0.34038 0.50229 0.44471 0.0
H193 H 0.41023 0.57348 0.45534 0.0
C194 C 0.4944 0.59468 0.43742 0.0
C195 C 0.53633 0.60123 0.42648 0.0
C196 C 0.4541 0.55374 0.43156 0.0
C197 C 0.5374 0.56623 0.40957 0.0
C198 C 0.49751 0.52542 0.40372 0.0
C199 C 0.41547 0.47789 0.40873 0.0
C200 C 0.37344 0.47139 0.41938 0.0
C201 C 0.4557 0.51881 0.41461 0.0
C202 C 0.37224 0.50636 0.43621 0.0
C203 C 0.41218 0.54711 0.4423 0.0
H204 H 0.93555 0.54467 0.57711 0.0
H205 H 0.97512 0.54894 0.67422 0.0
H206 H 0.98208 0.48175 0.6659 0.0
H207 H 0.97239 0.41911 0.63201 0.0
H208 H 0.93185 0.41434 0.53509 0.0
H209 H 0.93014 0.48454 0.54242 0.0
C210 C 0.94603 0.53114 0.59642 0.0
C211 C 0.95441 0.55163 0.6263 0.0
C212 C 0.94963 0.49225 0.59157 0.0
C213 C 0.96822 0.53375 0.65099 0.0
C214 C 0.97216 0.49525 0.64629 0.0
C215 C 0.96351 0.43357 0.61241 0.0
C216 C 0.9519 0.41123 0.58314 0.0
C217 C 0.96223 0.4738 0.61682 0.0
C218 C 0.94073 0.43065 0.55794 0.0
C219 C 0.93967 0.4708 0.5621 0.0
H220 H 0.57226 0.97795 0.73014 0.0
H221 H 0.52202 0.86596 0.79547 0.0
H222 H 0.4511 0.86708 0.80095 0.0
H223 H 0.40317 0.89948 0.78694 0.0
H224 H 0.45326 0.01089 0.72112 0.0
H225 H 0.52439 0.01023 0.7161 0.0
C226 C 0.54588 0.95384 0.74566 0.0
C227 C 0.5525 0.92195 0.76238 0.0
C228 C 0.50509 0.95447 0.74857 0.0
C229 C 0.51783 0.89085 0.78227 0.0
C230 C 0.47724 0.89145 0.78544 0.0
C231 C 0.42963 0.92364 0.77149 0.0
C232 C 0.42284 0.95518 0.75444 0.0
C233 C 0.47046 0.92303 0.76864 0.0
C234 C 0.45751 0.98621 0.73452 0.0
C235 C 0.49826 0.9859 0.73163 0.0
H236 H 0.41607 0.45157 0.90454 0.0
H237 H 0.47679 0.37342 0.93631 0.0
H238 H 0.55205 0.44022 0.9324 0.0
H239 H 0.60082 0.51988 0.91842 0.0
H240 H 0.54098 0.59847 0.88603 0.0
H241 H 0.46516 0.53242 0.89197 0.0
C242 C 0.44574 0.44917 0.9107 0.0
C243 C 0.44072 0.40745 0.92057 0.0
C244 C 0.48909 0.48776 0.90831 0.0
C245 C 0.47958 0.40502 0.92856 0.0
C246 C 0.5227 0.44323 0.92634 0.0
C247 C 0.57124 0.52274 0.9128 0.0
C248 C 0.57663 0.56405 0.90168 0.0
C249 C 0.52787 0.48463 0.91602 0.0
C250 C 0.53785 0.56707 0.8946 0.0
C251 C 0.49446 0.52928 0.89793 0.0
H252 H 0.07415 0.23893 0.00879 0.0
H253 H 0.17996 0.36776 0.04415 0.0
H254 H 0.23261 0.36831 0.00513 0.0
H255 H 0.25109 0.32894 0.96509 0.0
H256 H 0.14735 0.19848 0.93079 0.0
H257 H 0.09125 0.20247 0.96468 0.0
C258 C 0.10855 0.26737 0.00767 0.0
C259 C 0.12322 0.30289 0.02968 0.0
C260 C 0.13911 0.26721 0.98539 0.0
C261 C 0.16787 0.33963 0.0278 0.0
C262 C 0.19808 0.34007 0.00544 0.0
C263 C 0.21607 0.3016 0.96461 0.0
C264 C 0.20363 0.26318 0.94577 0.0
C265 C 0.18442 0.30351 0.98473 0.0
C266 C 0.15795 0.22838 0.9452 0.0
C267 C 0.12589 0.23049 0.96474 0.0
H268 H 0.84914 0.09719 0.20562 0.0
H269 H 0.77256 0.1671 0.2059 0.0
H270 H 0.82699 0.22377 0.16965 0.0
H271 H 0.90015 0.25766 0.14223 0.0
H272 H 0.97862 0.18974 0.14384 0.0
H273 H 0.91936 0.12791 0.17461 0.0
C274 C 0.84398 0.12444 0.1974 0.0
C275 C 0.80709 0.12813 0.20875 0.0
C276 C 0.87593 0.15749 0.17702 0.0
C277 C 0.80091 0.16366 0.1978 0.0
C278 C 0.83205 0.19615 0.17707 0.0
C279 C 0.90401 0.229 0.14886 0.0
C280 C 0.94398 0.2286 0.14099 0.0
C281 C 0.87029 0.19405 0.16717 0.0
C282 C 0.94836 0.19113 0.1498 0.0
C283 C 0.91452 0.15577 0.16746 0.0
H284 H 0.76534 0.89492 0.41285 0.0
H285 H 0.63827 0.79992 0.36908 0.0
H286 H 0.64851 0.85688 0.32999 0.0
H287 H 0.68976 0.93605 0.31168 0.0
H288 H 0.81716 0.03058 0.35543 0.0
H289 H 0.81077 0.97129 0.39073 0.0
C290 C 0.74014 0.88651 0.39453 0.0
C291 C 0.70082 0.84349 0.39417 0.0
C292 C 0.74615 0.91943 0.37218 0.0
C293 C 0.66879 0.83287 0.37 0.0
C294 C 0.67451 0.86549 0.34769 0.0
C295 C 0.71644 0.94351 0.32863 0.0
C296 C 0.75355 0.98788 0.33115 0.0
C297 C 0.71249 0.90926 0.34907 0.0
C298 C 0.78807 0.99683 0.35303 0.0
C299 C 0.78439 0.96296 0.37337 0.0
H300 H 0.81543 0.76171 0.4634 0.0
H301 H 0.69243 0.65727 0.50675 0.0
H302 H 0.73657 0.63503 0.5397 0.0
H303 H 0.80988 0.64799 0.55861 0.0
H304 H 0.93349 0.75318 0.51654 0.0
H305 H 0.88925 0.77206 0.48061 0.0
C306 C 0.79826 0.73378 0.47982 0.0
C307 C 0.75068 0.71145 0.4827 0.0
C308 C 0.82393 0.7214 0.49908 0.0
C309 C 0.72901 0.67531 0.50413 0.0
C310 C 0.75422 0.66253 0.52305 0.0
C311 C 0.82725 0.67486 0.54144 0.0
C312 C 0.87496 0.69932 0.54045 0.0
C313 C 0.80169 0.68582 0.52111 0.0
C314 C 0.89679 0.73388 0.51793 0.0
C315 C 0.87151 0.74476 0.49738 0.0
H316 H 0.09977 0.75267 0.63386 0.0
H317 H 0.99622 0.77941 0.6691 0.0
H318 H 0.05105 0.83728 0.70431 0.0
H319 H 0.12624 0.87523 0.72863 0.0
H320 H 0.23021 0.84883 0.69409 0.0
H321 H 0.1775 0.79632 0.6549 0.0
C322 C 0.08934 0.77158 0.64892 0.0
C323 C 0.04376 0.76119 0.6491 0.0
C324 C 0.12103 0.80468 0.66944 0.0
C325 C 0.03095 0.78631 0.66864 0.0
C326 C 0.06228 0.81942 0.68888 0.0
C327 C 0.13754 0.85832 0.71235 0.0
C328 C 0.18186 0.86546 0.71457 0.0
C329 C 0.10705 0.82802 0.69006 0.0
C330 C 0.19616 0.84378 0.69299 0.0
C331 C 0.166 0.81361 0.67063 0.0
H332 H 0.36529 0.07559 0.80839 0.0
H333 H 0.23983 0.06072 0.77262 0.0
H334 H 0.25118 0.12601 0.80379 0.0
H335 H 0.29284 0.18213 0.84548 0.0
H336 H 0.41811 0.19593 0.88104 0.0
H337 H 0.4107 0.13636 0.84561 0.0
C338 C 0.34071 0.08699 0.80707 0.0
C339 C 0.30152 0.06299 0.78855 0.0
C340 C 0.34714 0.12408 0.8253 0.0
C341 C 0.27029 0.07855 0.78674 0.0
C342 C 0.2766 0.11571 0.80473 0.0
C343 C 0.31874 0.17241 0.84523 0.0
C344 C 0.35561 0.19304 0.86623 0.0
C345 C 0.31425 0.1379 0.82479 0.0
C346 C 0.38916 0.18042 0.86534 0.0
C347 C 0.38497 0.14628 0.84509 0.0
H348 H 0.70701 0.77053 0.87629 0.0
H349 H 0.83489 0.79768 0.83608 0.0
H350 H 0.83659 0.85713 0.80327 0.0
H351 H 0.79749 0.895 0.78145 0.0
H352 H 0.67017 0.86897 0.82172 0.0
H353 H 0.67284 0.81596 0.85928 0.0
C354 C 0.73562 0.78998 0.86074 0.0
C355 C 0.77036 0.77913 0.8583 0.0
C356 C 0.73633 0.82407 0.84172 0.0
C357 C 0.80748 0.80503 0.83831 0.0
C358 C 0.80844 0.83897 0.81939 0.0
C359 C 0.77066 0.87818 0.79875 0.0
C360 C 0.7334 0.88531 0.79853 0.0
C361 C 0.77236 0.84774 0.82017 0.0
C362 C 0.69919 0.86391 0.82136 0.0
C363 C 0.70057 0.83341 0.84274 0.0
H364 H 0.8073 0.66756 0.97493 0.0
H365 H 0.83595 0.58558 0.91168 0.0
H366 H 0.89889 0.59636 0.94503 0.0
H367 H 0.94856 0.63267 0.99018 0.0
H368 H 0.92006 0.71382 0.05421 0.0
H369 H 0.85387 0.69927 0.02269 0.0
C370 C 0.82717 0.65186 0.96855 0.0
C371 C 0.81722 0.6262 0.94067 0.0
C372 C 0.86331 0.65804 0.98792 0.0
C373 C 0.84293 0.60561 0.93293 0.0
C374 C 0.87901 0.61181 0.95196 0.0
C375 C 0.92769 0.64694 0.9974 0.0
C376 C 0.93944 0.67466 0.0243 0.0
C377 C 0.88991 0.63851 0.9792 0.0
C378 C 0.91173 0.69237 0.03358 0.0
C379 C 0.87403 0.68425 0.01548 0.0
H380 H 0.20179 0.95759 0.16087 0.0
H381 H 0.26418 0.88231 0.19527 0.0
H382 H 0.21146 0.81673 0.16391 0.0
H383 H 0.15289 0.78367 0.1228 0.0
H384 H 0.09289 0.86055 0.08714 0.0
H385 H 0.13936 0.92248 0.12311 0.0
C386 C 0.2036 0.92669 0.16186 0.0
C387 C 0.2373 0.92511 0.18014 0.0
C388 C 0.17384 0.88949 0.14333 0.0
C389 C 0.2388 0.88461 0.18127 0.0
C390 C 0.20874 0.84711 0.16325 0.0
C391 C 0.14953 0.81372 0.12316 0.0
C392 C 0.11979 0.81763 0.10202 0.0
C393 C 0.17693 0.84961 0.14357 0.0
C394 C 0.11576 0.85675 0.10294 0.0
C395 C 0.14237 0.89226 0.12349 0.0
H396 H 0.33673 0.15492 0.2813 0.0
H397 H 0.19676 0.04778 0.28584 0.0
H398 H 0.18081 0.09071 0.3248 0.0
H399 H 0.20496 0.16128 0.35409 0.0
H400 H 0.34465 0.26895 0.34889 0.0
H401 H 0.36234 0.22287 0.31403 0.0
C402 C 0.3028 0.14074 0.29099 0.0
C403 C 0.26789 0.0984 0.28033 0.0
C404 C 0.29373 0.16575 0.31324 0.0
C405 C 0.22425 0.0804 0.29342 0.0
C406 C 0.21504 0.10496 0.3157 0.0
C407 C 0.23943 0.1745 0.34569 0.0
C408 C 0.27328 0.21873 0.35389 0.0
C409 C 0.24929 0.14808 0.32527 0.0
C410 C 0.31783 0.23512 0.3429 0.0
C411 C 0.32798 0.20885 0.32282 0.0
H412 H 0.19847 0.34041 0.47261 0.0
H413 H 0.0976 0.2363 0.41276 0.0
H414 H 0.03771 0.22684 0.44887 0.0
H415 H 0.01337 0.25237 0.49466 0.0
H416 H 0.11295 0.35928 0.5535 0.0
H417 H 0.17398 0.36301 0.52076 0.0
C418 C 0.16344 0.3152 0.46776 0.0
C419 C 0.15245 0.28927 0.43995 0.0
C420 C 0.12893 0.31065 0.4883 0.0
C421 C 0.10691 0.25693 0.43386 0.0
C422 C 0.07262 0.25149 0.45449 0.0
C423 C 0.04841 0.27623 0.50062 0.0
C424 C 0.05849 0.30577 0.52638 0.0
C425 C 0.08314 0.27887 0.48136 0.0
C426 C 0.10417 0.33628 0.53372 0.0
C427 C 0.1391 0.33852 0.51496 0.0
H428 H 0.93599 0.18779 0.65274 0.0
H429 H 0.8239 0.20142 0.61826 0.0
H430 H 0.77251 0.14268 0.65436 0.0
H431 H 0.75791 0.0834 0.69263 0.0
H432 H 0.86907 0.06904 0.72779 0.0
H433 H 0.92223 0.13236 0.69481 0.0
C434 C 0.90043 0.17824 0.65336 0.0
C435 C 0.88386 0.1987 0.6325 0.0
C436 C 0.87075 0.14412 0.6742 0.0
C437 C 0.83768 0.18613 0.63385 0.0
C438 C 0.80812 0.15241 0.65447 0.0
C439 C 0.79382 0.09433 0.6933 0.0
C440 C 0.8094 0.0712 0.71235 0.0
C441 C 0.82408 0.13054 0.67425 0.0
C442 C 0.85614 0.08619 0.71326 0.0
C443 C 0.88655 0.1223 0.69431 0.0
H444 H 0.28393 0.33998 0.26128 0.0
H445 H 0.19433 0.36689 0.31773 0.0
H446 H 0.15366 0.36709 0.27042 0.0
H447 H 0.14135 0.35617 0.21336 0.0
H448 H 0.22984 0.32724 0.15724 0.0
H449 H 0.27317 0.33148 0.20413 0.0
C450 C 0.25574 0.34624 0.26326 0.0
C451 C 0.24216 0.35329 0.29303 0.0
C452 C 0.23214 0.34577 0.23603 0.0
C453 C 0.20545 0.36125 0.29512 0.0
C454 C 0.18212 0.36133 0.26807 0.0
C455 C 0.17029 0.35109 0.21133 0.0
C456 C 0.18217 0.34122 0.18182 0.0
C457 C 0.19483 0.35309 0.23845 0.0
C458 C 0.21979 0.33471 0.17966 0.0
C459 C 0.24462 0.33711 0.20647 0.0
H460 H 0.85556 0.24137 0.45595 0.0
H461 H 0.76973 0.12741 0.5155 0.0
H462 H 0.72402 0.08588 0.47004 0.0
H463 H 0.71099 0.08016 0.41311 0.0
H464 H 0.79803 0.19306 0.35317 0.0
H465 H 0.84046 0.23683 0.39914 0.0
C466 C 0.82662 0.20761 0.45905 0.0
C467 C 0.81626 0.18748 0.48908 0.0
C468 C 0.80077 0.18363 0.43273 0.0
C469 C 0.77864 0.14367 0.49264 0.0
C470 C 0.75245 0.11984 0.46665 0.0
C471 C 0.73896 0.11449 0.41008 0.0
C472 C 0.7514 0.1332 0.37972 0.0
C473 C 0.7636 0.13923 0.43653 0.0
C474 C 0.78782 0.17774 0.37627 0.0
C475 C 0.81216 0.2028 0.40254 0.0
H476 H 0.64335 0.9106 0.61174 0.0
H477 H 0.66638 0.83027 0.68 0.0
H478 H 0.65769 0.77629 0.63902 0.0
H479 H 0.64596 0.75304 0.58362 0.0
H480 H 0.6241 0.83377 0.51505 0.0
H481 H 0.62968 0.88621 0.5564 0.0
C482 C 0.64631 0.88121 0.61769 0.0
C483 C 0.65566 0.87466 0.64891 0.0
C484 C 0.6415 0.85032 0.59396 0.0
C485 C 0.65932 0.8363 0.65618 0.0
C486 C 0.65435 0.80535 0.63274 0.0
C487 C 0.64212 0.78193 0.5777 0.0
C488 C 0.6347 0.78944 0.54624 0.0
C489 C 0.64577 0.81219 0.60153 0.0
C490 C 0.62987 0.82714 0.53905 0.0
C491 C 0.63313 0.85723 0.56268 0.0
H492 H 0.77425 0.65577 0.68043 0.0
H493 H 0.85719 0.60301 0.71679 0.0
H494 H 0.8236 0.59491 0.7689 0.0
H495 H 0.77468 0.60796 0.80501 0.0
H496 H 0.69182 0.66067 0.76836 0.0
H497 H 0.72123 0.66334 0.71557 0.0
C498 C 0.78473 0.64212 0.69967 0.0
C499 C 0.81851 0.63046 0.69474 0.0
C500 C 0.76546 0.63775 0.72963 0.0
C501 C 0.83135 0.61241 0.7199 0.0
C502 C 0.81227 0.60789 0.74978 0.0
C503 C 0.76276 0.61965 0.78543 0.0
C504 C 0.7314 0.63446 0.79073 0.0
C505 C 0.77993 0.62126 0.75505 0.0
C506 C 0.71605 0.64919 0.76503 0.0
C507 C 0.73293 0.65085 0.73479 0.0
H508 H 0.23906 0.84588 0.86786 0.0
H509 H 0.16792 0.92112 0.86292 0.0
H510 H 0.12268 0.88064 0.90871 0.0
H511 H 0.10304 0.82413 0.95005 0.0
H512 H 0.17494 0.7499 0.95677 0.0
H513 H 0.22022 0.78983 0.91045 0.0
C514 C 0.2136 0.85332 0.8768 0.0
C515 C 0.20685 0.88641 0.86192 0.0
C516 C 0.18787 0.83018 0.90347 0.0
C517 C 0.17395 0.89591 0.87393 0.0
C518 C 0.14796 0.87273 0.90011 0.0
C519 C 0.12855 0.81655 0.9414 0.0
C520 C 0.13545 0.78394 0.95676 0.0
C521 C 0.15462 0.83984 0.91504 0.0
C522 C 0.16896 0.77489 0.94538 0.0
C523 C 0.19481 0.79766 0.91887 0.0
H524 H 0.24214 0.07013 0.09492 0.0
H525 H 0.3717 0.17748 0.12783 0.0
H526 H 0.38293 0.21816 0.07819 0.0
H527 H 0.35594 0.22297 0.02534 0.0
H528 H 0.227 0.1143 0.99244 0.0
H529 H 0.21578 0.07435 0.04215 0.0
C530 C 0.27276 0.10254 0.09135 0.0
C531 C 0.30593 0.12082 0.11511 0.0
C532 C 0.27925 0.12541 0.06267 0.0
C533 C 0.3456 0.16266 0.10992 0.0
C534 C 0.35208 0.18592 0.08154 0.0
C535 C 0.32544 0.1905 0.02901 0.0
C536 C 0.29238 0.17172 0.00516 0.0
C537 C 0.31917 0.16754 0.0577 0.0
C538 C 0.25309 0.12955 0.01032 0.0
C539 C 0.24653 0.10668 0.0388 0.0
loop_
_geom_bond_atom_site_label_1
_geom_bond_atom_site_label_2
_geom_bond_distance
_geom_bond_site_symmetry_2
_ccdc_geom_bond_type
C0 O1 1.160 . S
C0 O7 1.185 . S
O1 C0 1.160 . S
O2 Zn3 1.899 1_655 S
O2 C10 1.284 . S
Zn3 O2 1.899 1_455 S
Zn3 O4 2.032 . S
Zn3 O7 2.086 . S
Zn3 O12 1.977 . S
O4 Zn3 2.032 . S
O4 C8 1.278 . S
C5 O6 1.203 . S
C5 O12 1.267 . S
O6 C5 1.203 . S
O7 C0 1.185 . S
O7 Zn3 2.086 . S
C8 O4 1.278 . S
C8 O9 1.211 . S
O9 C8 1.211 . S
C10 O2 1.284 . S
C10 O11 1.294 . S
O11 C10 1.294 . S
O12 Zn3 1.977 . S
O12 C5 1.267 . S
C13 O14 1.160 . S
C13 O20 1.185 . S
O14 C13 1.160 . S
O15 Zn16 1.899 1_565 S
O15 C23 1.284 . S
Zn16 O15 1.899 1_545 S
Zn16 O17 2.032 . S
Zn16 O20 2.086 . S
Zn16 O25 1.977 . S
O17 Zn16 2.032 . S
O17 C21 1.278 . S
C18 O19 1.203 . S
C18 O25 1.267 . S
O19 C18 1.203 . S
O20 C13 1.185 . S
O20 Zn16 2.086 . S
C21 O17 1.278 . S
C21 O22 1.211 . S
O22 C21 1.211 . S
C23 O15 1.284 . S
C23 O24 1.274 . S
O24 C23 1.274 . S
O25 Zn16 1.977 . S
O25 C18 1.267 . S
C26 O27 1.160 . S
C26 O33 1.185 . S
O27 C26 1.160 . S
O28 Zn29 1.899 . S
O28 C36 1.284 . S
Zn29 O28 1.899 . S
Zn29 O30 2.032 . S
Zn29 O33 2.086 . S
Zn29 O38 1.977 . S
O30 Zn29 2.032 . S
O30 C34 1.278 . S
C31 O32 1.203 . S
C31 O38 1.267 . S
O32 C31 1.203 . S
O33 C26 1.185 . S
O33 Zn29 2.086 . S
C34 O30 1.278 . S
C34 O35 1.211 . S
O35 C34 1.211 . S
C36 O28 1.284 . S
C36 O37 1.273 . S
O37 C36 1.273 . S
O38 Zn29 1.977 . S
O38 C31 1.267 . S
C39 O40 1.160 . S
C39 O46 1.185 . S
O40 C39 1.160 . S
O41 Zn42 1.899 1_455 S
O41 C49 1.284 . S
Zn42 O41 1.899 1_655 S
Zn42 O43 2.032 . S
Zn42 O46 2.086 . S
Zn42 O51 1.977 . S
O43 Zn42 2.032 . S
O43 C47 1.278 . S
C44 O45 1.203 . S
C44 O51 1.267 . S
O45 C44 1.203 . S
O46 C39 1.185 . S
O46 Zn42 2.086 . S
C47 O43 1.278 . S
C47 O48 1.211 . S
O48 C47 1.211 . S
C49 O41 1.284 . S
C49 O50 1.294 . S
O50 C49 1.294 . S
O51 Zn42 1.977 . S
O51 C44 1.267 . S
C52 O53 1.160 . S
C52 O59 1.185 . S
O53 C52 1.160 . S
O54 Zn55 1.899 1_545 S
O54 C62 1.284 . S
Zn55 O54 1.899 1_565 S
Zn55 O56 2.032 . S
Zn55 O59 2.086 . S
Zn55 O64 1.977 . S
O56 Zn55 2.032 . S
O56 C60 1.278 . S
C57 O58 1.203 . S
C57 O64 1.267 . S
O58 C57 1.203 . S
O59 C52 1.185 . S
O59 Zn55 2.086 . S
C60 O56 1.278 . S
C60 O61 1.211 . S
O61 C60 1.211 . S
C62 O54 1.284 . S
C62 O63 1.274 . S
O63 C62 1.274 . S
O64 Zn55 1.977 . S
O64 C57 1.267 . S
C65 O66 1.160 . S
C65 O72 1.185 . S
O66 C65 1.160 . S
O67 Zn68 1.899 . S
O67 C75 1.284 . S
Zn68 O67 1.899 . S
Zn68 O69 2.032 . S
Zn68 O72 2.086 . S
Zn68 O77 1.977 . S
O69 Zn68 2.032 . S
O69 C73 1.278 . S
C70 O71 1.203 . S
C70 O77 1.267 1_554 S
O71 C70 1.203 . S
O72 C65 1.185 . S
O72 Zn68 2.086 . S
C73 O69 1.278 . S
C73 O74 1.211 . S
O74 C73 1.211 . S
C75 O67 1.284 . S
C75 O76 1.273 . S
O76 C75 1.273 . S
O77 Zn68 1.977 . S
O77 C70 1.267 1_556 S
C78 O79 1.160 . S
C78 O85 1.185 . S
O79 C78 1.160 . S
O80 Zn81 1.899 1_545 S
O80 C88 1.284 . S
Zn81 O80 1.899 1_565 S
Zn81 O82 2.032 . S
Zn81 O85 2.086 . S
Zn81 O90 1.977 . S
O82 Zn81 2.032 . S
O82 C86 1.278 . S
C83 O84 1.203 . S
C83 O90 1.267 . S
O84 C83 1.203 . S
O85 C78 1.185 . S
O85 Zn81 2.086 . S
C86 O82 1.278 . S
C86 O87 1.211 . S
O87 C86 1.211 . S
C88 O80 1.284 . S
C88 O89 1.294 . S
O89 C88 1.294 . S
O90 Zn81 1.977 . S
O90 C83 1.267 . S
C91 O92 1.160 . S
C91 O98 1.185 . S
O92 C91 1.160 . S
O93 Zn94 1.899 . S
O93 C101 1.284 . S
Zn94 O93 1.899 . S
Zn94 O95 2.032 . S
Zn94 O98 2.086 . S
Zn94 O103 1.977 . S
O95 Zn94 2.032 . S
O95 C99 1.278 . S
C96 O97 1.203 . S
C96 O103 1.267 . S
O97 C96 1.203 . S
O98 C91 1.185 . S
O98 Zn94 2.086 . S
C99 O95 1.278 . S
C99 O100 1.211 . S
O100 C99 1.211 . S
C101 O93 1.284 . S
C101 O102 1.273 . S
O102 C101 1.273 . S
O103 Zn94 1.977 . S
O103 C96 1.267 . S
C104 O105 1.160 . S
C104 O111 1.185 . S
O105 C104 1.160 . S
O106 Zn107 1.899 1_655 S
O106 C114 1.284 . S
Zn107 O106 1.899 1_455 S
Zn107 O108 2.032 . S
Zn107 O111 2.086 . S
Zn107 O116 1.977 . S
O108 Zn107 2.032 . S
O108 C112 1.278 . S
C109 O110 1.203 . S
C109 O116 1.267 1_556 S
O110 C109 1.203 . S
O111 C104 1.185 . S
O111 Zn107 2.086 . S
C112 O108 1.278 . S
C112 O113 1.211 . S
O113 C112 1.211 . S
C114 O106 1.284 . S
C114 O115 1.274 . S
O115 C114 1.274 . S
O116 Zn107 1.977 . S
O116 C109 1.267 1_554 S
C117 O118 1.160 . S
C117 O124 1.185 . S
O118 C117 1.160 . S
O119 Zn120 1.899 1_565 S
O119 C127 1.284 . S
Zn120 O119 1.899 1_545 S
Zn120 O121 2.032 . S
Zn120 O124 2.086 . S
Zn120 O129 1.977 . S
O121 Zn120 2.032 . S
O121 C125 1.278 . S
C122 O123 1.203 . S
C122 O129 1.267 . S
O123 C122 1.203 . S
O124 C117 1.185 . S
O124 Zn120 2.086 . S
C125 O121 1.278 . S
C125 O126 1.211 . S
O126 C125 1.211 . S
C127 O119 1.284 . S
C127 O128 1.294 . S
O128 C127 1.294 . S
O129 Zn120 1.977 . S
O129 C122 1.267 . S
C130 O131 1.160 . S
C130 O137 1.185 . S
O131 C130 1.160 . S
O132 Zn133 1.899 . S
O132 C140 1.284 . S
Zn133 O132 1.899 . S
Zn133 O134 2.032 . S
Zn133 O137 2.086 . S
Zn133 O142 1.977 . S
O134 Zn133 2.032 . S
O134 C138 1.278 . S
C135 O136 1.203 . S
C135 O142 1.267 . S
O136 C135 1.203 . S
O137 C130 1.185 . S
O137 Zn133 2.086 . S
C138 O134 1.278 . S
C138 O139 1.211 . S
O139 C138 1.211 . S
C140 O132 1.284 . S
C140 O141 1.273 . S
O141 C140 1.273 . S
O142 Zn133 1.977 . S
O142 C135 1.267 . S
C143 O144 1.160 . S
C143 O150 1.185 . S
O144 C143 1.160 . S
O145 Zn146 1.899 1_455 S
O145 C153 1.284 . S
Zn146 O145 1.899 1_655 S
Zn146 O147 2.032 . S
Zn146 O150 2.086 . S
Zn146 O155 1.977 . S
O147 Zn146 2.032 . S
O147 C151 1.278 . S
C148 O149 1.203 . S
C148 O155 1.267 . S
O149 C148 1.203 . S
O150 C143 1.185 . S
O150 Zn146 2.086 . S
C151 O147 1.278 . S
C151 O152 1.211 . S
O152 C151 1.211 . S
C153 O145 1.284 . S
C153 O154 1.274 . S
O154 C153 1.274 . S
O155 Zn146 1.977 . S
O155 C148 1.267 . S
H156 C162 0.930 1_655 S
H157 C165 0.930 . S
H158 C166 0.930 . S
H159 C167 0.930 . S
H160 C170 0.930 1_655 S
H161 C171 0.930 . S
C162 H156 0.930 1_455 S
C162 C163 1.355 . S
C162 C164 1.415 . S
C163 C162 1.355 . S
C163 C165 1.419 . S
C164 C162 1.415 . S
C164 C169 1.425 . S
C164 C171 1.409 1_455 S
C165 H157 0.930 . S
C165 C163 1.419 . S
C165 C166 1.362 . S
C166 H158 0.930 . S
C166 C165 1.362 . S
C166 C169 1.409 . S
C167 H159 0.930 . S
C167 C168 1.355 . S
C167 C169 1.415 . S
C168 C167 1.355 . S
C168 C170 1.419 . S
C169 C164 1.425 . S
C169 C166 1.409 . S
C169 C167 1.415 . S
C170 H160 0.930 1_455 S
C170 C168 1.419 . S
C170 C171 1.362 1_455 S
C171 H161 0.930 . S
C171 C164 1.409 1_655 S
C171 C170 1.362 1_655 S
H172 C178 0.930 . S
H173 C181 0.930 . S
H174 C182 0.930 . S
H175 C183 0.930 . S
H176 C186 0.930 . S
H177 C187 0.930 . S
C178 H172 0.930 . S
C178 C179 1.355 . S
C178 C180 1.415 . S
C179 C178 1.355 . S
C179 C181 1.419 . S
C180 C178 1.415 . S
C180 C185 1.425 . S
C180 C187 1.409 . S
C181 H173 0.930 . S
C181 C179 1.419 . S
C181 C182 1.362 . S
C182 H174 0.930 . S
C182 C181 1.362 . S
C182 C185 1.409 . S
C183 H175 0.930 . S
C183 C184 1.355 . S
C183 C185 1.415 . S
C184 C183 1.355 . S
C184 C186 1.419 . S
C185 C180 1.425 . S
C185 C182 1.409 . S
C185 C183 1.415 . S
C186 H176 0.930 . S
C186 C184 1.419 . S
C186 C187 1.362 . S
C187 H177 0.930 . S
C187 C180 1.409 . S
C187 C186 1.362 . S
H188 C194 0.930 . S
H189 C197 0.930 . S
H190 C198 0.930 . S
H191 C199 0.930 . S
H192 C202 0.930 . S
H193 C203 0.930 . S
C194 H188 0.930 . S
C194 C195 1.355 . S
C194 C196 1.415 . S
C195 C194 1.355 . S
C195 C197 1.419 . S
C196 C194 1.415 . S
C196 C201 1.425 . S
C196 C203 1.409 . S
C197 H189 0.930 . S
C197 C195 1.419 . S
C197 C198 1.362 . S
C198 H190 0.930 . S
C198 C197 1.362 . S
C198 C201 1.409 . S
C199 H191 0.930 . S
C199 C200 1.355 . S
C199 C201 1.415 . S
C200 C199 1.355 . S
C200 C202 1.419 . S
C201 C196 1.425 . S
C201 C198 1.409 . S
C201 C199 1.415 . S
C202 H192 0.930 . S
C202 C200 1.419 . S
C202 C203 1.362 . S
C203 H193 0.930 . S
C203 C196 1.409 . S
C203 C202 1.362 . S
H204 C210 0.930 . S
H205 C213 0.930 1_455 S
H206 C214 0.930 1_455 S
H207 C215 0.930 . S
H208 C218 0.930 . S
H209 C219 0.930 . S
C210 H204 0.930 . S
C210 C211 1.355 . S
C210 C212 1.415 . S
C211 C210 1.355 . S
C211 C213 1.419 . S
C212 C210 1.415 . S
C212 C217 1.425 . S
C212 C219 1.409 . S
C213 H205 0.930 1_655 S
C213 C211 1.419 . S
C213 C214 1.362 . S
C214 H206 0.930 1_655 S
C214 C213 1.362 . S
C214 C217 1.409 . S
C215 H207 0.930 . S
C215 C216 1.355 . S
C215 C217 1.415 . S
C216 C215 1.355 . S
C216 C218 1.419 . S
C217 C212 1.425 . S
C217 C214 1.409 . S
C217 C215 1.415 . S
C218 H208 0.930 . S
C218 C216 1.419 . S
C218 C219 1.362 . S
C219 H209 0.930 . S
C219 C212 1.409 . S
C219 C218 1.362 . S
H220 C226 0.930 . S
H221 C229 0.930 . S
H222 C230 0.930 . S
H223 C231 0.930 . S
H224 C234 0.930 . S
H225 C235 0.930 . S
C226 H220 0.930 . S
C226 C227 1.355 . S
C226 C228 1.415 . S
C227 C226 1.355 . S
C227 C229 1.419 . S
C228 C226 1.415 . S
C228 C233 1.425 . S
C228 C235 1.409 . S
C229 H221 0.930 . S
C229 C227 1.419 . S
C229 C230 1.362 . S
C230 H222 0.930 . S
C230 C229 1.362 . S
C230 C233 1.409 . S
C231 H223 0.930 . S
C231 C232 1.355 . S
C231 C233 1.415 . S
C232 C231 1.355 . S
C232 C234 1.419 . S
C233 C228 1.425 . S
C233 C230 1.409 . S
C233 C231 1.415 . S
C234 H224 0.930 . S
C234 C232 1.419 . S
C234 C235 1.362 . S
C235 H225 0.930 . S
C235 C228 1.409 . S
C235 C234 1.362 . S
H236 C242 0.930 . S
H237 C245 0.930 . S
H238 C246 0.930 . S
H239 C247 0.930 . S
H240 C250 0.930 . S
H241 C251 0.930 . S
C242 H236 0.930 . S
C242 C243 1.355 . S
C242 C244 1.415 . S
C243 C242 1.355 . S
C243 C245 1.419 . S
C244 C242 1.415 . S
C244 C249 1.425 . S
C244 C251 1.409 . S
C245 H237 0.930 . S
C245 C243 1.419 . S
C245 C246 1.362 . S
C246 H238 0.930 . S
C246 C245 1.362 . S
C246 C249 1.409 . S
C247 H239 0.930 . S
C247 C248 1.355 . S
C247 C249 1.415 . S
C248 C247 1.355 . S
C248 C250 1.419 . S
C249 C244 1.425 . S
C249 C246 1.409 . S
C249 C247 1.415 . S
C250 H240 0.930 . S
C250 C248 1.419 . S
C250 C251 1.362 . S
C251 H241 0.930 . S
C251 C244 1.409 . S
C251 C250 1.362 . S
H252 C258 0.930 . S
H253 C261 0.930 . S
H254 C262 0.930 . S
H255 C263 0.930 . S
H256 C266 0.930 . S
H257 C267 0.930 . S
C258 H252 0.930 . S
C258 C259 1.355 . S
C258 C260 1.415 . S
C259 C258 1.355 . S
C259 C261 1.419 . S
C260 C258 1.415 . S
C260 C265 1.425 . S
C260 C267 1.409 1_554 S
C261 H253 0.930 . S
C261 C259 1.419 . S
C261 C262 1.362 . S
C262 H254 0.930 . S
C262 C261 1.362 . S
C262 C265 1.409 . S
C263 H255 0.930 . S
C263 C264 1.355 1_554 S
C263 C265 1.415 . S
C264 C263 1.355 1_556 S
C264 C266 1.419 . S
C265 C260 1.425 . S
C265 C262 1.409 . S
C265 C263 1.415 . S
C266 H256 0.930 . S
C266 C264 1.419 . S
C266 C267 1.362 . S
C267 H257 0.930 . S
C267 C260 1.409 1_556 S
C267 C266 1.362 . S
H268 C274 0.930 . S
H269 C277 0.930 . S
H270 C278 0.930 . S
H271 C279 0.930 . S
H272 C282 0.930 . S
H273 C283 0.930 . S
C274 H268 0.930 . S
C274 C275 1.355 . S
C274 C276 1.415 . S
C275 C274 1.355 . S
C275 C277 1.419 . S
C276 C274 1.415 . S
C276 C281 1.425 . S
C276 C283 1.409 . S
C277 H269 0.930 . S
C277 C275 1.419 . S
C277 C278 1.362 . S
C278 H270 0.930 . S
C278 C277 1.362 . S
C278 C281 1.409 . S
C279 H271 0.930 . S
C279 C280 1.355 . S
C279 C281 1.415 . S
C280 C279 1.355 . S
C280 C282 1.419 . S
C281 C276 1.425 . S
C281 C278 1.409 . S
C281 C279 1.415 . S
C282 H272 0.930 . S
C282 C280 1.419 . S
C282 C283 1.362 . S
C283 H273 0.930 . S
C283 C276 1.409 . S
C283 C282 1.362 . S
H284 C290 0.930 . S
H285 C293 0.930 . S
H286 C294 0.930 . S
H287 C295 0.930 . S
H288 C298 0.930 . S
H289 C299 0.930 . S
C290 H284 0.930 . S
C290 C291 1.355 . S
C290 C292 1.415 . S
C291 C290 1.355 . S
C291 C293 1.419 . S
C292 C290 1.415 . S
C292 C297 1.425 . S
C292 C299 1.409 . S
C293 H285 0.930 . S
C293 C291 1.419 . S
C293 C294 1.362 . S
C294 H286 0.930 . S
C294 C293 1.362 . S
C294 C297 1.409 . S
C295 H287 0.930 . S
C295 C296 1.355 . S
C295 C297 1.415 . S
C296 C295 1.355 . S
C296 C298 1.419 . S
C297 C292 1.425 . S
C297 C294 1.409 . S
C297 C295 1.415 . S
C298 H288 0.930 . S
C298 C296 1.419 . S
C298 C299 1.362 . S
C299 H289 0.930 . S
C299 C292 1.409 . S
C299 C298 1.362 . S
H300 C306 0.930 . S
H301 C309 0.930 . S
H302 C310 0.930 . S
H303 C311 0.930 . S
H304 C314 0.930 . S
H305 C315 0.930 . S
C306 H300 0.930 . S
C306 C307 1.355 . S
C306 C308 1.415 . S
C307 C306 1.355 . S
C307 C309 1.419 . S
C308 C306 1.415 . S
C308 C313 1.425 . S
C308 C315 1.409 . S
C309 H301 0.930 . S
C309 C307 1.419 . S
C309 C310 1.362 . S
C310 H302 0.930 . S
C310 C309 1.362 . S
C310 C313 1.409 . S
C311 H303 0.930 . S
C311 C312 1.355 . S
C311 C313 1.415 . S
C312 C311 1.355 . S
C312 C314 1.419 . S
C313 C308 1.425 . S
C313 C310 1.409 . S
C313 C311 1.415 . S
C314 H304 0.930 . S
C314 C312 1.419 . S
C314 C315 1.362 . S
C315 H305 0.930 . S
C315 C308 1.409 . S
C315 C314 1.362 . S
H316 C322 0.930 . S
H317 C325 0.930 . S
H318 C326 0.930 . S
H319 C327 0.930 . S
H320 C330 0.930 . S
H321 C331 0.930 . S
C322 H316 0.930 . S
C322 C323 1.355 . S
C322 C324 1.415 . S
C323 C322 1.355 . S
C323 C325 1.419 . S
C324 C322 1.415 . S
C324 C329 1.425 . S
C324 C331 1.409 . S
C325 H317 0.930 . S
C325 C323 1.419 . S
C325 C326 1.362 . S
C326 H318 0.930 . S
C326 C325 1.362 . S
C326 C329 1.409 . S
C327 H319 0.930 . S
C327 C328 1.355 . S
C327 C329 1.415 . S
C328 C327 1.355 . S
C328 C330 1.419 . S
C329 C324 1.425 . S
C329 C326 1.409 . S
C329 C327 1.415 . S
C330 H320 0.930 . S
C330 C328 1.419 . S
C330 C331 1.362 . S
C331 H321 0.930 . S
C331 C324 1.409 . S
C331 C330 1.362 . S
H332 C338 0.930 . S
H333 C341 0.930 . S
H334 C342 0.930 . S
H335 C343 0.930 . S
H336 C346 0.930 . S
H337 C347 0.930 . S
C338 H332 0.930 . S
C338 C339 1.355 . S
C338 C340 1.415 . S
C339 C338 1.355 . S
C339 C341 1.419 . S
C340 C338 1.415 . S
C340 C345 1.425 . S
C340 C347 1.409 . S
C341 H333 0.930 . S
C341 C339 1.419 . S
C341 C342 1.362 . S
C342 H334 0.930 . S
C342 C341 1.362 . S
C342 C345 1.409 . S
C343 H335 0.930 . S
C343 C344 1.355 . S
C343 C345 1.415 . S
C344 C343 1.355 . S
C344 C346 1.419 . S
C345 C340 1.425 . S
C345 C342 1.409 . S
C345 C343 1.415 . S
C346 H336 0.930 . S
C346 C344 1.419 . S
C346 C347 1.362 . S
C347 H337 0.930 . S
C347 C340 1.409 . S
C347 C346 1.362 . S
H348 C354 0.930 . S
H349 C357 0.930 . S
H350 C358 0.930 . S
H351 C359 0.930 . S
H352 C362 0.930 . S
H353 C363 0.930 . S
C354 H348 0.930 . S
C354 C355 1.355 . S
C354 C356 1.415 . S
C355 C354 1.355 . S
C355 C357 1.419 . S
C356 C354 1.415 . S
C356 C361 1.425 . S
C356 C363 1.409 . S
C357 H349 0.930 . S
C357 C355 1.419 . S
C357 C358 1.362 . S
C358 H350 0.930 . S
C358 C357 1.362 . S
C358 C361 1.409 . S
C359 H351 0.930 . S
C359 C360 1.355 . S
C359 C361 1.415 . S
C360 C359 1.355 . S
C360 C362 1.419 . S
C361 C356 1.425 . S
C361 C358 1.409 . S
C361 C359 1.415 . S
C362 H352 0.930 . S
C362 C360 1.419 . S
C362 C363 1.362 . S
C363 H353 0.930 . S
C363 C356 1.409 . S
C363 C362 1.362 . S
H364 C370 0.930 . S
H365 C373 0.930 . S
H366 C374 0.930 . S
H367 C375 0.930 . S
H368 C378 0.930 . S
H369 C379 0.930 . S
C370 H364 0.930 . S
C370 C371 1.355 . S
C370 C372 1.415 . S
C371 C370 1.355 . S
C371 C373 1.419 . S
C372 C370 1.415 . S
C372 C377 1.425 . S
C372 C379 1.409 1_556 S
C373 H365 0.930 . S
C373 C371 1.419 . S
C373 C374 1.362 . S
C374 H366 0.930 . S
C374 C373 1.362 . S
C374 C377 1.409 . S
C375 H367 0.930 . S
C375 C376 1.355 1_556 S
C375 C377 1.415 . S
C376 C375 1.355 1_554 S
C376 C378 1.419 . S
C377 C372 1.425 . S
C377 C374 1.409 . S
C377 C375 1.415 . S
C378 H368 0.930 . S
C378 C376 1.419 . S
C378 C379 1.362 . S
C379 H369 0.930 . S
C379 C372 1.409 1_554 S
C379 C378 1.362 . S
H380 C386 0.930 . S
H381 C389 0.930 . S
H382 C390 0.930 . S
H383 C391 0.930 . S
H384 C394 0.930 . S
H385 C395 0.930 . S
C386 H380 0.930 . S
C386 C387 1.355 . S
C386 C388 1.415 . S
C387 C386 1.355 . S
C387 C389 1.419 . S
C388 C386 1.415 . S
C388 C393 1.425 . S
C388 C395 1.409 . S
C389 H381 0.930 . S
C389 C387 1.419 . S
C389 C390 1.362 . S
C390 H382 0.930 . S
C390 C389 1.362 . S
C390 C393 1.409 . S
C391 H383 0.930 . S
C391 C392 1.355 . S
C391 C393 1.415 . S
C392 C391 1.355 . S
C392 C394 1.419 . S
C393 C388 1.425 . S
C393 C390 1.409 . S
C393 C391 1.415 . S
C394 H384 0.930 . S
C394 C392 1.419 . S
C394 C395 1.362 . S
C395 H385 0.930 . S
C395 C388 1.409 . S
C395 C394 1.362 . S
H396 C402 0.930 . S
H397 C405 0.930 . S
H398 C406 0.930 . S
H399 C407 0.930 . S
H400 C410 0.930 . S
H401 C411 0.930 . S
C402 H396 0.930 . S
C402 C403 1.355 . S
C402 C404 1.415 . S
C403 C402 1.355 . S
C403 C405 1.419 . S
C404 C402 1.415 . S
C404 C409 1.425 . S
C404 C411 1.409 . S
C405 H397 0.930 . S
C405 C403 1.419 . S
C405 C406 1.362 . S
C406 H398 0.930 . S
C406 C405 1.362 . S
C406 C409 1.409 . S
C407 H399 0.930 . S
C407 C408 1.355 . S
C407 C409 1.415 . S
C408 C407 1.355 . S
C408 C410 1.419 . S
C409 C404 1.425 . S
C409 C406 1.409 . S
C409 C407 1.415 . S
C410 H400 0.930 . S
C410 C408 1.419 . S
C410 C411 1.362 . S
C411 H401 0.930 . S
C411 C404 1.409 . S
C411 C410 1.362 . S
H412 C418 0.930 . S
H413 C421 0.930 . S
H414 C422 0.930 . S
H415 C423 0.930 . S
H416 C426 0.930 . S
H417 C427 0.930 . S
C418 H412 0.930 . S
C418 C419 1.355 . S
C418 C420 1.415 . S
C419 C418 1.355 . S
C419 C421 1.419 . S
C420 C418 1.415 . S
C420 C425 1.425 . S
C420 C427 1.409 . S
C421 H413 0.930 . S
C421 C419 1.419 . S
C421 C422 1.362 . S
C422 H414 0.930 . S
C422 C421 1.362 . S
C422 C425 1.409 . S
C423 H415 0.930 . S
C423 C424 1.355 . S
C423 C425 1.415 . S
C424 C423 1.355 . S
C424 C426 1.419 . S
C425 C420 1.425 . S
C425 C422 1.409 . S
C425 C423 1.415 . S
C426 H416 0.930 . S
C426 C424 1.419 . S
C426 C427 1.362 . S
C427 H417 0.930 . S
C427 C420 1.409 . S
C427 C426 1.362 . S
H428 C434 0.930 . S
H429 C437 0.930 . S
H430 C438 0.930 . S
H431 C439 0.930 . S
H432 C442 0.930 . S
H433 C443 0.930 . S
C434 H428 0.930 . S
C434 C435 1.355 . S
C434 C436 1.415 . S
C435 C434 1.355 . S
C435 C437 1.419 . S
C436 C434 1.415 . S
C436 C441 1.425 . S
C436 C443 1.409 . S
C437 H429 0.930 . S
C437 C435 1.419 . S
C437 C438 1.362 . S
C438 H430 0.930 . S
C438 C437 1.362 . S
C438 C441 1.409 . S
C439 H431 0.930 . S
C439 C440 1.355 . S
C439 C441 1.415 . S
C440 C439 1.355 . S
C440 C442 1.419 . S
C441 C436 1.425 . S
C441 C438 1.409 . S
C441 C439 1.415 . S
C442 H432 0.930 . S
C442 C440 1.419 . S
C442 C443 1.362 . S
C443 H433 0.930 . S
C443 C436 1.409 . S
C443 C442 1.362 . S
H444 C450 0.930 . S
H445 C453 0.930 . S
H446 C454 0.930 . S
H447 C455 0.930 . S
H448 C458 0.930 . S
H449 C459 0.930 . S
C450 H444 0.930 . S
C450 C451 1.355 . S
C450 C452 1.415 . S
C451 C450 1.355 . S
C451 C453 1.419 . S
C452 C450 1.415 . S
C452 C457 1.425 . S
C452 C459 1.409 . S
C453 H445 0.930 . S
C453 C451 1.419 . S
C453 C454 1.362 . S
C454 H446 0.930 . S
C454 C453 1.362 . S
C454 C457 1.409 . S
C455 H447 0.930 . S
C455 C456 1.355 . S
C455 C457 1.415 . S
C456 C455 1.355 . S
C456 C458 1.419 . S
C457 C452 1.425 . S
C457 C454 1.409 . S
C457 C455 1.415 . S
C458 H448 0.930 . S
C458 C456 1.419 . S
C458 C459 1.362 . S
C459 H449 0.930 . S
C459 C452 1.409 . S
C459 C458 1.362 . S
H460 C466 0.930 . S
H461 C469 0.930 . S
H462 C470 0.930 . S
H463 C471 0.930 . S
H464 C474 0.930 . S
H465 C475 0.930 . S
C466 H460 0.930 . S
C466 C467 1.355 . S
C466 C468 1.415 . S
C467 C466 1.355 . S
C467 C469 1.419 . S
C468 C466 1.415 . S
C468 C473 1.425 . S
C468 C475 1.409 . S
C469 H461 0.930 . S
C469 C467 1.419 . S
C469 C470 1.362 . S
C470 H462 0.930 . S
C470 C469 1.362 . S
C470 C473 1.409 . S
C471 H463 0.930 . S
C471 C472 1.355 . S
C471 C473 1.415 . S
C472 C471 1.355 . S
C472 C474 1.419 . S
C473 C468 1.425 . S
C473 C470 1.409 . S
C473 C471 1.415 . S
C474 H464 0.930 . S
C474 C472 1.419 . S
C474 C475 1.362 . S
C475 H465 0.930 . S
C475 C468 1.409 . S
C475 C474 1.362 . S
H476 C482 0.930 . S
H477 C485 0.930 . S
H478 C486 0.930 . S
H479 C487 0.930 . S
H480 C490 0.930 . S
H481 C491 0.930 . S
C482 H476 0.930 . S
C482 C483 1.355 . S
C482 C484 1.415 . S
C483 C482 1.355 . S
C483 C485 1.419 . S
C484 C482 1.415 . S
C484 C489 1.425 . S
C484 C491 1.409 . S
C485 H477 0.930 . S
C485 C483 1.419 . S
C485 C486 1.362 . S
C486 H478 0.930 . S
C486 C485 1.362 . S
C486 C489 1.409 . S
C487 H479 0.930 . S
C487 C488 1.355 . S
C487 C489 1.415 . S
C488 C487 1.355 . S
C488 C490 1.419 . S
C489 C484 1.425 . S
C489 C486 1.409 . S
C489 C487 1.415 . S
C490 H480 0.930 . S
C490 C488 1.419 . S
C490 C491 1.362 . S
C491 H481 0.930 . S
C491 C484 1.409 . S
C491 C490 1.362 . S
H492 C498 0.930 . S
H493 C501 0.930 . S
H494 C502 0.930 . S
H495 C503 0.930 . S
H496 C506 0.930 . S
H497 C507 0.930 . S
C498 H492 0.930 . S
C498 C499 1.355 . S
C498 C500 1.415 . S
C499 C498 1.355 . S
C499 C501 1.419 . S
C500 C498 1.415 . S
C500 C505 1.425 . S
C500 C507 1.409 . S
C501 H493 0.930 . S
C501 C499 1.419 . S
C501 C502 1.362 . S
C502 H494 0.930 . S
C502 C501 1.362 . S
C502 C505 1.409 . S
C503 H495 0.930 . S
C503 C504 1.355 . S
C503 C505 1.415 . S
C504 C503 1.355 . S
C504 C506 1.419 . S
C505 C500 1.425 . S
C505 C502 1.409 . S
C505 C503 1.415 . S
C506 H496 0.930 . S
C506 C504 1.419 . S
C506 C507 1.362 . S
C507 H497 0.930 . S
C507 C500 1.409 . S
C507 C506 1.362 . S
H508 C514 0.930 . S
H509 C517 0.930 . S
H510 C518 0.930 . S
H511 C519 0.930 . S
H512 C522 0.930 . S
H513 C523 0.930 . S
C514 H508 0.930 . S
C514 C515 1.355 . S
C514 C516 1.415 . S
C515 C514 1.355 . S
C515 C517 1.419 . S
C516 C514 1.415 . S
C516 C521 1.425 . S
C516 C523 1.409 . S
C517 H509 0.930 . S
C517 C515 1.419 . S
C517 C518 1.362 . S
C518 H510 0.930 . S
C518 C517 1.362 . S
C518 C521 1.409 . S
C519 H511 0.930 . S
C519 C520 1.355 . S
C519 C521 1.415 . S
C520 C519 1.355 . S
C520 C522 1.419 . S
C521 C516 1.425 . S
C521 C518 1.409 . S
C521 C519 1.415 . S
C522 H512 0.930 . S
C522 C520 1.419 . S
C522 C523 1.362 . S
C523 H513 0.930 . S
C523 C516 1.409 . S
C523 C522 1.362 . S
H524 C530 0.930 . S
H525 C533 0.930 . S
H526 C534 0.930 . S
H527 C535 0.930 . S
H528 C538 0.930 . S
H529 C539 0.930 . S
C530 H524 0.930 . S
C530 C531 1.355 . S
C530 C532 1.415 . S
C531 C530 1.355 . S
C531 C533 1.419 . S
C532 C530 1.415 . S
C532 C537 1.425 . S
C532 C539 1.409 . S
C533 H525 0.930 . S
C533 C531 1.419 . S
C533 C534 1.362 . S
C534 H526 0.930 . S
C534 C533 1.362 . S
C534 C537 1.409 . S
C535 H527 0.930 . S
C535 C536 1.355 . S
C535 C537 1.415 . S
C536 C535 1.355 . S
C536 C538 1.419 . S
C537 C532 1.425 . S
C537 C534 1.409 . S
C537 C535 1.415 . S
C538 H528 0.930 . S
C538 C536 1.419 . S
C538 C539 1.362 . S
C539 H529 0.930 . S
C539 C532 1.409 . S
C539 C538 1.362 . S
C163 C104 1.457 . S
C168 C0 1.410 . S
C179 C13 1.424 . S
C184 C117 1.403 . S
C195 C26 1.456 . S
C200 C130 1.440 . S
C211 C39 1.402 . S
C216 C143 1.428 . S
C227 C78 1.432 . S
C232 C52 1.459 . S
C243 C65 1.453 . S
C248 C91 1.406 . S
C259 C8 1.316 . S
C264 C75 1.415 . S
C275 C21 1.393 . S
C280 C10 1.390 . S
C291 C34 1.324 . S
C296 C23 1.405 . S
C307 C36 1.415 . S
C312 C47 1.401 . S
C323 C49 1.409 . S
C328 C60 1.404 . S
C339 C62 1.401 . S
C344 C73 1.328 . S
C355 C101 1.388 . S
C360 C86 1.386 . S
C371 C99 1.317 . S
C376 C114 1.427 . S
C387 C127 1.427 . S
C392 C112 1.317 . S
C403 C125 1.383 . S
C408 C140 1.428 . S
C419 C138 1.344 . S
C424 C153 1.437 . S
C435 C151 1.334 . S
C440 C88 1.398 . S
C451 C135 1.230 . S
C456 C5 1.202 . S
C467 C148 1.218 . S
C472 C18 1.245 . S
C483 C83 1.243 . S
C488 C31 1.221 . S
C499 C44 1.226 . S
C504 C96 1.205 . S
C515 C57 1.185 . S
C520 C109 1.256 . S
C531 C122 1.253 . S
C536 C70 1.186 . S
