# Generated by pormake.
# Topology npo, (4)-cn, num edge types: 1
# Building blocks:
#     Node 0, Type 0, BuildingBlock: UXUYUI_clean_sbu_0, # of connection points: 4
#     Node 1, Type 0, BuildingBlock: UXUYUI_clean_sbu_0, # of connection points: 4
#     Node 2, Type 0, BuildingBlock: UXUYUI_clean_sbu_0, # of connection points: 4
#     Node 3, Type 0, BuildingBlock: UXUYUI_clean_sbu_0, # of connection points: 4
#     Node 4, Type 0, BuildingBlock: UXUYUI_clean_sbu_0, # of connection points: 4
#     Node 5, Type 0, BuildingBlock: UXUYUI_clean_sbu_0, # of connection points: 4
#     Edge 6, Type (0, 0), BuildingBlock: UVAHIK_clean_linker_0, # of connection points: 2
#     Edge 7, Type (0, 0), BuildingBlock: UVAHIK_clean_linker_0, # of connection points: 2
#     Edge 8, Type (0, 0), BuildingBlock: UVAHIK_clean_linker_0, # of connection points: 2
#     Edge 9, Type (0, 0), BuildingBlock: UVAHIK_clean_linker_0, # of connection points: 2
#     Edge 10, Type (0, 0), BuildingBlock: UVAHIK_clean_linker_0, # of connection points: 2
#     Edge 11, Type (0, 0), BuildingBlock: UVAHIK_clean_linker_0, # of connection points: 2
#     Edge 12, Type (0, 0), BuildingBlock: UVAHIK_clean_linker_0, # of connection points: 2
#     Edge 13, Type (0, 0), BuildingBlock: UVAHIK_clean_linker_0, # of connection points: 2
#     Edge 14, Type (0, 0), BuildingBlock: UVAHIK_clean_linker_0, # of connection points: 2
#     Edge 15, Type (0, 0), BuildingBlock: UVAHIK_clean_linker_0, # of connection points: 2
#     Edge 16, Type (0, 0), BuildingBlock: UVAHIK_clean_linker_0, # of connection points: 2
#     Edge 17, Type (0, 0), BuildingBlock: UVAHIK_clean_linker_0, # of connection points: 2
# Relax obj value: 0.320
# Max RMSD: 0.247
# Mean RMSD: 0.247
data_MOF--net-npo--node1-UXUYUI_clean_sbu_0--edge1-UVAHIK_clean_linker_0
_symmetry_space_group_name_H-M    P1
_symmetry_Int_Tables_number       1
_symmetry_cell_setting            triclinic
loop_
_symmetry_equiv_pos_as_xyz
'x, y, z'
_cell_length_a     72.883749
_cell_length_b     72.835847
_cell_length_c     45.446195
_cell_angle_alpha  90.008653
_cell_angle_beta   90.039005
_cell_angle_gamma 119.94987
loop_
_atom_site_label
_atom_site_type_symbol
_atom_site_fract_x
_atom_site_fract_y
_atom_site_fract_z
_atom_type_partial_charge
Li0 Li 0.54352 0.11972 0.24334 0.0
Li1 Li 0.57361 0.11336 0.24628 0.0
Li2 Li 0.54262 0.08961 0.21827 0.0
Li3 Li 0.54237 0.09141 0.2719 0.0
C4 C 0.57565 0.13974 0.2002 0.0
N5 N 0.60393 0.17975 0.17939 0.0
C6 C 0.58699 0.15645 0.21989 0.0
C7 C 0.57871 0.14342 0.16995 0.0
C8 C 0.60122 0.17654 0.20892 0.0
C9 C 0.59305 0.16376 0.15986 0.0
C10 C 0.56132 0.1243 0.30778 0.0
C11 C 0.5709 0.11789 0.35595 0.0
N12 N 0.56049 0.12707 0.36839 0.0
C13 C 0.55099 0.13396 0.32104 0.0
C14 C 0.57162 0.11648 0.32537 0.0
C15 C 0.55066 0.13511 0.35171 0.0
C16 C 0.51665 0.13444 0.26085 0.0
N17 N 0.5325 0.1386 0.24154 0.0
C18 C 0.52997 0.16749 0.22119 0.0
C19 C 0.53893 0.15447 0.22147 0.0
C20 C 0.5139 0.1639 0.24136 0.0
C21 C 0.50711 0.14695 0.2612 0.0
H22 H 0.51138 0.12129 0.27598 0.0
H23 H 0.5509 0.1571 0.2055 0.0
C24 C 0.61279 0.12483 0.22046 0.0
N25 N 0.60359 0.12699 0.24521 0.0
C26 C 0.63471 0.1365 0.21703 0.0
C27 C 0.63726 0.15238 0.26468 0.0
C28 C 0.6153 0.14018 0.26735 0.0
C29 C 0.64723 0.15094 0.239 0.0
H30 H 0.60301 0.11456 0.20293 0.0
H31 H 0.60751 0.14198 0.28645 0.0
C32 C 0.504 0.08745 0.22732 0.0
N33 N 0.47037 0.08279 0.19363 0.0
C34 C 0.48327 0.075 0.23747 0.0
C35 C 0.50765 0.09758 0.20005 0.0
C36 C 0.46647 0.07283 0.22011 0.0
C37 C 0.49043 0.09501 0.18334 0.0
C38 C 0.57413 0.07739 0.24429 0.0
C39 C 0.57777 0.07039 0.21744 0.0
C40 C 0.58707 0.07984 0.26841 0.0
C41 C 0.59459 0.06643 0.21499 0.0
C42 C 0.60375 0.07575 0.26508 0.0
N43 N 0.60715 0.06921 0.23865 0.0
C44 C 0.54519 0.07896 0.16031 0.0
C45 C 0.51359 0.05426 0.18467 0.0
C46 C 0.53872 0.06688 0.13468 0.0
N47 N 0.53265 0.07243 0.18456 0.0
C48 C 0.50634 0.04182 0.15934 0.0
C49 C 0.51907 0.04809 0.13404 0.0
H50 H 0.56033 0.09342 0.16108 0.0
H51 H 0.50404 0.04947 0.20442 0.0
C52 C 0.51708 0.07893 0.32262 0.0
N53 N 0.53033 0.07513 0.30601 0.0
C54 C 0.50849 0.06754 0.34848 0.0
C55 C 0.52664 0.04796 0.33882 0.0
C56 C 0.5351 0.05992 0.31338 0.0
C57 C 0.51329 0.05185 0.35678 0.0
H58 H 0.51338 0.09095 0.31587 0.0
H59 H 0.54553 0.05715 0.29955 0.0
O60 O 0.56205 0.11976 0.21035 0.0
O61 O 0.56151 0.12271 0.27777 0.0
O62 O 0.52056 0.08979 0.24429 0.0
O63 O 0.55786 0.0816 0.247 0.0
H64 H 0.58484 0.154 0.24336 0.0
H65 H 0.57008 0.1307 0.15439 0.0
H66 H 0.61011 0.18958 0.2239 0.0
H67 H 0.59556 0.16682 0.1365 0.0
H68 H 0.57862 0.11169 0.3698 0.0
H69 H 0.54336 0.14056 0.30785 0.0
H70 H 0.57994 0.10925 0.31552 0.0
H71 H 0.5426 0.14242 0.36225 0.0
H72 H 0.53586 0.18044 0.20561 0.0
H73 H 0.49448 0.14329 0.27673 0.0
H74 H 0.64167 0.13466 0.197 0.0
H75 H 0.64614 0.16361 0.28193 0.0
H76 H 0.48021 0.06713 0.25859 0.0
H77 H 0.52357 0.10735 0.19183 0.0
H78 H 0.45034 0.06324 0.22769 0.0
H79 H 0.49302 0.10275 0.16221 0.0
H80 H 0.56779 0.06809 0.19864 0.0
H81 H 0.58434 0.08491 0.28947 0.0
H82 H 0.59765 0.06115 0.19428 0.0
H83 H 0.61398 0.07775 0.28353 0.0
H84 H 0.54887 0.07227 0.11548 0.0
H85 H 0.49115 0.02732 0.15963 0.0
H86 H 0.49808 0.0708 0.36169 0.0
H87 H 0.53079 0.03608 0.34467 0.0
Li88 Li 0.44725 0.5418 0.77604 0.0
Li89 Li 0.45429 0.57075 0.74369 0.0
Li90 Li 0.42037 0.53707 0.74318 0.0
Li91 Li 0.45175 0.53863 0.72336 0.0
C92 C 0.42935 0.56109 0.80377 0.0
N93 N 0.42398 0.56622 0.86285 0.0
C94 C 0.43998 0.58121 0.81659 0.0
C95 C 0.41559 0.54366 0.82092 0.0
C96 C 0.43715 0.58347 0.8465 0.0
C97 C 0.41321 0.54654 0.85076 0.0
C98 C 0.49193 0.57088 0.73768 0.0
C99 C 0.51181 0.59035 0.69503 0.0
N100 N 0.53009 0.59492 0.70908 0.0
C101 C 0.51091 0.57581 0.75171 0.0
C102 C 0.49236 0.57824 0.70912 0.0
C103 C 0.53004 0.58797 0.73688 0.0
C104 C 0.44306 0.51602 0.82498 0.0
N105 N 0.45326 0.5361 0.81425 0.0
C106 C 0.46999 0.54979 0.86054 0.0
C107 C 0.46682 0.55283 0.8311 0.0
C108 C 0.45925 0.52928 0.87257 0.0
C109 C 0.44586 0.51222 0.85426 0.0
H110 H 0.43245 0.50303 0.81096 0.0
H111 H 0.4746 0.56862 0.82187 0.0
C112 C 0.46726 0.61216 0.71923 0.0
N113 N 0.46944 0.60098 0.74157 0.0
C114 C 0.47734 0.63422 0.72067 0.0
C115 C 0.49318 0.63298 0.76681 0.0
C116 C 0.48273 0.61095 0.7645 0.0
C117 C 0.49005 0.64489 0.74512 0.0
H118 H 0.45741 0.60413 0.70054 0.0
H119 H 0.48466 0.60167 0.78153 0.0
C120 C 0.413 0.49782 0.74576 0.0
N121 N 0.37636 0.4597 0.73558 0.0
C122 C 0.41041 0.48682 0.71946 0.0
C123 C 0.39708 0.48919 0.76709 0.0
C124 C 0.39175 0.46763 0.71468 0.0
C125 C 0.37863 0.46998 0.76147 0.0
C126 C 0.4279 0.5633 0.69444 0.0
C127 C 0.41678 0.57108 0.71032 0.0
C128 C 0.42895 0.56507 0.66379 0.0
C129 C 0.40689 0.58047 0.69521 0.0
C130 C 0.41888 0.5746 0.64951 0.0
N131 N 0.40813 0.58203 0.66538 0.0
C132 C 0.37889 0.52816 0.75669 0.0
C133 C 0.38218 0.51372 0.71158 0.0
C134 C 0.35735 0.52012 0.75171 0.0
N135 N 0.39078 0.5248 0.73677 0.0
C136 C 0.36063 0.50526 0.70577 0.0
C137 C 0.34792 0.50852 0.72594 0.0
H138 H 0.38622 0.53751 0.77611 0.0
H139 H 0.39214 0.51165 0.69586 0.0
C140 C 0.4789 0.52542 0.69722 0.0
N141 N 0.4621 0.52845 0.69326 0.0
C142 C 0.4861 0.51817 0.67392 0.0
C143 C 0.45837 0.51709 0.64335 0.0
C144 C 0.45188 0.52452 0.66705 0.0
C145 C 0.47568 0.51381 0.64663 0.0
H146 H 0.4867 0.52871 0.71839 0.0
H147 H 0.43851 0.52699 0.6647 0.0
O148 O 0.43224 0.55851 0.77457 0.0
O149 O 0.47312 0.55904 0.75209 0.0
O150 O 0.43105 0.51683 0.75064 0.0
O151 O 0.43742 0.55365 0.70858 0.0
H152 H 0.45021 0.59499 0.80361 0.0
H153 H 0.40705 0.52803 0.81137 0.0
H154 H 0.44539 0.59895 0.85671 0.0
H155 H 0.40282 0.53312 0.86432 0.0
H156 H 0.51237 0.59612 0.67293 0.0
H157 H 0.51083 0.57028 0.77385 0.0
H158 H 0.47787 0.57467 0.69789 0.0
H159 H 0.54486 0.59189 0.74747 0.0
H160 H 0.48027 0.56342 0.8739 0.0
H161 H 0.43758 0.49612 0.86247 0.0
H162 H 0.47441 0.64269 0.70343 0.0
H163 H 0.5032 0.64057 0.78571 0.0
H164 H 0.42261 0.493 0.70286 0.0
H165 H 0.39883 0.49727 0.7877 0.0
H166 H 0.38951 0.45904 0.69433 0.0
H167 H 0.36612 0.46325 0.7777 0.0
H168 H 0.41583 0.57 0.73402 0.0
H169 H 0.43753 0.5592 0.65114 0.0
H170 H 0.39824 0.58655 0.70722 0.0
H171 H 0.41959 0.5761 0.62579 0.0
H172 H 0.34834 0.52354 0.7675 0.0
H173 H 0.35404 0.49635 0.6857 0.0
H174 H 0.49947 0.51576 0.67726 0.0
H175 H 0.45011 0.51419 0.62255 0.0
Li176 Li 0.8784 0.45349 0.23933 0.0
Li177 Li 0.89918 0.44808 0.27685 0.0
Li178 Li 0.90846 0.44925 0.22321 0.0
Li179 Li 0.87757 0.41896 0.24494 0.0
C180 C 0.91809 0.49326 0.24476 0.0
N181 N 0.93694 0.53666 0.23768 0.0
C182 C 0.9209 0.50627 0.26896 0.0
C183 C 0.92528 0.5024 0.21706 0.0
C184 C 0.93034 0.52814 0.2649 0.0
C185 C 0.93466 0.52435 0.21391 0.0
C186 C 0.86018 0.43288 0.30019 0.0
C187 C 0.85379 0.42019 0.35025 0.0
N188 N 0.8453 0.43272 0.35616 0.0
C189 C 0.85126 0.44552 0.3067 0.0
C190 C 0.86132 0.41999 0.32207 0.0
C191 C 0.84387 0.44524 0.33514 0.0
C192 C 0.84393 0.45403 0.21388 0.0
N193 N 0.86163 0.46602 0.23013 0.0
C194 C 0.85334 0.49383 0.23339 0.0
C195 C 0.86649 0.48555 0.24004 0.0
C196 C 0.83503 0.48184 0.21644 0.0
C197 C 0.83043 0.46172 0.20655 0.0
H198 H 0.84016 0.43834 0.20689 0.0
H199 H 0.8803 0.49456 0.25357 0.0
C200 C 0.92426 0.4496 0.32473 0.0
N201 N 0.91048 0.45578 0.31539 0.0
C202 C 0.93226 0.45413 0.35334 0.0
C203 C 0.91181 0.47145 0.36207 0.0
C204 C 0.90445 0.46682 0.33319 0.0
C205 C 0.92587 0.46501 0.37257 0.0
H206 H 0.92902 0.4411 0.30996 0.0
H207 H 0.89363 0.47174 0.32513 0.0
C208 C 0.87526 0.4372 0.17977 0.0
N209 N 0.86773 0.44295 0.12183 0.0
C210 C 0.86455 0.41974 0.1611 0.0
C211 C 0.88193 0.45755 0.16905 0.0
C212 C 0.86096 0.42298 0.13185 0.0
C213 C 0.87802 0.46014 0.13969 0.0
C214 C 0.90886 0.41189 0.25593 0.0
C215 C 0.91702 0.40609 0.23214 0.0
C216 C 0.90127 0.39872 0.28058 0.0
C217 C 0.91718 0.38699 0.23325 0.0
C218 C 0.90167 0.37974 0.28083 0.0
N219 N 0.90953 0.37431 0.25735 0.0
C220 C 0.95031 0.47291 0.20135 0.0
C221 C 0.92534 0.44683 0.16907 0.0
C222 C 0.96629 0.47899 0.18032 0.0
N223 N 0.93027 0.45728 0.19518 0.0
C224 C 0.94065 0.45258 0.14733 0.0
C225 C 0.9615 0.46889 0.1527 0.0
H226 H 0.95382 0.4807 0.22255 0.0
H227 H 0.90948 0.43401 0.16505 0.0
C228 C 0.84527 0.37814 0.26185 0.0
N229 N 0.86051 0.38916 0.24152 0.0
C230 C 0.83256 0.35621 0.25937 0.0
C231 C 0.8515 0.35742 0.21507 0.0
C232 C 0.86384 0.37934 0.21842 0.0
C233 C 0.83553 0.34558 0.23566 0.0
H234 H 0.84277 0.38639 0.27975 0.0
H235 H 0.87607 0.38857 0.20255 0.0
O236 O 0.90908 0.47181 0.24845 0.0
O237 O 0.86756 0.43301 0.27248 0.0
O238 O 0.87892 0.43425 0.20846 0.0
O239 O 0.90817 0.4303 0.25499 0.0
H240 H 0.9157 0.49956 0.2906 0.0
H241 H 0.92389 0.49276 0.19821 0.0
H242 H 0.93244 0.53836 0.28341 0.0
H243 H 0.94022 0.5316 0.19258 0.0
H244 H 0.85473 0.41043 0.36745 0.0
H245 H 0.85013 0.45549 0.29001 0.0
H246 H 0.86818 0.41013 0.31744 0.0
H247 H 0.83702 0.45501 0.34052 0.0
H248 H 0.8574 0.50939 0.24152 0.0
H249 H 0.81622 0.45174 0.19402 0.0
H250 H 0.94342 0.44927 0.36019 0.0
H251 H 0.90624 0.47965 0.37611 0.0
H252 H 0.85909 0.40385 0.16909 0.0
H253 H 0.88971 0.47114 0.18334 0.0
H254 H 0.85277 0.40962 0.11713 0.0
H255 H 0.88309 0.47581 0.13113 0.0
H256 H 0.923 0.41611 0.21292 0.0
H257 H 0.895 0.40303 0.29922 0.0
H258 H 0.92332 0.38223 0.21492 0.0
H259 H 0.8957 0.36931 0.29968 0.0
H260 H 0.98218 0.49139 0.1857 0.0
H261 H 0.936 0.44451 0.12633 0.0
H262 H 0.82015 0.34777 0.2754 0.0
H263 H 0.8544 0.34984 0.19657 0.0
Li264 Li 0.44543 0.90064 0.71618 0.0
Li265 Li 0.44687 0.89995 0.77056 0.0
Li266 Li 0.45194 0.87558 0.74146 0.0
Li267 Li 0.41694 0.8718 0.74479 0.0
C268 C 0.48978 0.90986 0.74181 0.0
N269 N 0.52966 0.9142 0.74211 0.0
C270 C 0.50131 0.91452 0.76801 0.0
C271 C 0.49865 0.90773 0.71569 0.0
C272 C 0.52142 0.91658 0.76773 0.0
C273 C 0.5188 0.90988 0.71632 0.0
C274 C 0.41187 0.90535 0.76199 0.0
C275 C 0.39037 0.89791 0.80551 0.0
N276 N 0.38376 0.91131 0.79575 0.0
C277 C 0.40483 0.91899 0.75235 0.0
C278 C 0.40457 0.89467 0.78876 0.0
C279 C 0.39063 0.92181 0.76975 0.0
C280 C 0.43403 0.91033 0.66273 0.0
N281 N 0.45023 0.91697 0.68225 0.0
C282 C 0.47287 0.94597 0.65135 0.0
C283 C 0.46936 0.93446 0.6773 0.0
C284 C 0.45656 0.93922 0.63043 0.0
C285 C 0.4369 0.92123 0.6364 0.0
H286 H 0.41898 0.89637 0.66749 0.0
H287 H 0.48191 0.93927 0.69334 0.0
C288 C 0.46059 0.90837 0.82843 0.0
N289 N 0.45495 0.91618 0.80517 0.0
C290 C 0.46592 0.91913 0.85519 0.0
C291 C 0.45941 0.9457 0.83349 0.0
C292 C 0.45447 0.93455 0.807 0.0
C293 C 0.46517 0.93793 0.85796 0.0
H294 H 0.46082 0.89371 0.82616 0.0
H295 H 0.45 0.94038 0.788 0.0
C296 C 0.4292 0.86084 0.6829 0.0
N297 N 0.42421 0.84225 0.62829 0.0
C298 C 0.41063 0.84199 0.6762 0.0
C299 C 0.4452 0.87027 0.6618 0.0
C300 C 0.40843 0.83282 0.64848 0.0
C301 C 0.44238 0.86062 0.63432 0.0
C302 C 0.42572 0.84845 0.78535 0.0
C303 C 0.41889 0.83254 0.76399 0.0
C304 C 0.42431 0.84309 0.81511 0.0
C305 C 0.41071 0.81151 0.7728 0.0
C306 C 0.41601 0.82187 0.82304 0.0
N307 N 0.40945 0.80665 0.80189 0.0
C308 C 0.47718 0.86098 0.7663 0.0
C309 C 0.46575 0.84783 0.71809 0.0
C310 C 0.48704 0.84888 0.76917 0.0
N311 N 0.46675 0.86019 0.74112 0.0
C312 C 0.47514 0.83522 0.72015 0.0
C313 C 0.48573 0.8354 0.74613 0.0
H314 H 0.47738 0.87066 0.78448 0.0
H315 H 0.45706 0.84713 0.69852 0.0
C316 C 0.37746 0.85771 0.72089 0.0
N317 N 0.38715 0.8542 0.74396 0.0
C318 C 0.3555 0.84606 0.71798 0.0
C319 C 0.3539 0.82741 0.76276 0.0
C320 C 0.37588 0.83968 0.76505 0.0
C321 C 0.34338 0.83047 0.73892 0.0
H322 H 0.38687 0.86968 0.70479 0.0
H323 H 0.38385 0.83755 0.78364 0.0
O324 O 0.46992 0.90743 0.74174 0.0
O325 O 0.42569 0.90238 0.74506 0.0
O326 O 0.43146 0.87006 0.70989 0.0
O327 O 0.4341 0.86924 0.77741 0.0
H328 H 0.49474 0.91635 0.78838 0.0
H329 H 0.49004 0.90435 0.69519 0.0
H330 H 0.53047 0.92003 0.78788 0.0
H331 H 0.5258 0.90813 0.6963 0.0
H332 H 0.38461 0.88977 0.82627 0.0
H333 H 0.4103 0.92731 0.73163 0.0
H334 H 0.40977 0.88399 0.79655 0.0
H335 H 0.38506 0.93234 0.76258 0.0
H336 H 0.4883 0.95967 0.64734 0.0
H337 H 0.42391 0.91567 0.6209 0.0
H338 H 0.47014 0.91259 0.87369 0.0
H339 H 0.45884 0.96026 0.83481 0.0
H340 H 0.39808 0.8345 0.69229 0.0
H341 H 0.45961 0.8849 0.66654 0.0
H342 H 0.39416 0.81821 0.64302 0.0
H343 H 0.45464 0.86776 0.61778 0.0
H344 H 0.41986 0.83632 0.74087 0.0
H345 H 0.42956 0.85522 0.83192 0.0
H346 H 0.40537 0.79906 0.7565 0.0
H347 H 0.41481 0.8175 0.846 0.0
H348 H 0.49522 0.84978 0.78948 0.0
H349 H 0.47329 0.82479 0.70203 0.0
H350 H 0.34814 0.84934 0.69957 0.0
H351 H 0.34535 0.81543 0.77929 0.0
Li352 Li 0.5488 0.45609 0.27168 0.0
Li353 Li 0.53914 0.42567 0.2374 0.0
Li354 Li 0.57349 0.46051 0.23435 0.0
Li355 Li 0.54133 0.4584 0.22083 0.0
C356 C 0.56458 0.43345 0.2947 0.0
N357 N 0.56686 0.4225 0.3523 0.0
C358 C 0.55201 0.41251 0.30412 0.0
C359 C 0.57851 0.44876 0.31456 0.0
C360 C 0.55335 0.4073 0.33332 0.0
C361 C 0.57936 0.44293 0.34359 0.0
C362 C 0.50433 0.43964 0.2499 0.0
C363 C 0.46798 0.42636 0.23563 0.0
N364 N 0.4689 0.44409 0.24693 0.0
C365 C 0.50491 0.45772 0.26143 0.0
C366 C 0.48573 0.4238 0.23693 0.0
C367 C 0.48683 0.45968 0.2597 0.0
C368 C 0.55303 0.48128 0.32197 0.0
N369 N 0.54382 0.46133 0.31081 0.0
C370 C 0.52562 0.44676 0.35594 0.0
C371 C 0.53015 0.44423 0.32695 0.0
C372 C 0.53501 0.46716 0.36824 0.0
C373 C 0.5489 0.48458 0.35088 0.0
H374 H 0.5633 0.49465 0.30832 0.0
H375 H 0.52279 0.42858 0.31724 0.0
C376 C 0.5357 0.38729 0.21967 0.0
N377 N 0.52561 0.39595 0.23429 0.0
C378 C 0.52692 0.36536 0.21876 0.0
C379 C 0.49755 0.36172 0.248 0.0
C380 C 0.50682 0.38375 0.24812 0.0
C381 C 0.50773 0.3523 0.23338 0.0
H382 H 0.55077 0.3975 0.20922 0.0
H383 H 0.49937 0.39117 0.25996 0.0
C384 C 0.58311 0.49872 0.24262 0.0
N385 N 0.62283 0.53408 0.23638 0.0
C386 C 0.58882 0.51012 0.21624 0.0
C387 C 0.59765 0.50535 0.26582 0.0
C388 C 0.60894 0.52796 0.21354 0.0
C389 C 0.61765 0.52323 0.26223 0.0
C390 C 0.54883 0.44175 0.17322 0.0
C391 C 0.55787 0.4601 0.156 0.0
C392 C 0.53411 0.42239 0.16062 0.0
C393 C 0.55188 0.45881 0.12652 0.0
C394 C 0.52858 0.42175 0.13104 0.0
N395 N 0.53749 0.43982 0.11475 0.0
C396 C 0.61491 0.4696 0.24703 0.0
C397 C 0.6114 0.48143 0.19993 0.0
C398 C 0.63639 0.47718 0.24223 0.0
N399 N 0.6029 0.47185 0.22605 0.0
C400 C 0.63288 0.48933 0.1942 0.0
C401 C 0.64565 0.48715 0.21548 0.0
H402 H 0.60775 0.46162 0.26736 0.0
H403 H 0.60156 0.48297 0.18353 0.0
C404 C 0.53249 0.48858 0.19487 0.0
N405 N 0.52693 0.46779 0.19523 0.0
C406 C 0.52327 0.49592 0.17457 0.0
C407 C 0.50157 0.46 0.15704 0.0
C408 C 0.51127 0.45341 0.17759 0.0
C409 C 0.50794 0.4816 0.15488 0.0
H410 H 0.54428 0.49953 0.21008 0.0
H411 H 0.50665 0.43685 0.17898 0.0
O412 O 0.56324 0.43892 0.26625 0.0
O413 O 0.52201 0.43767 0.25078 0.0
O414 O 0.56361 0.48093 0.24551 0.0
O415 O 0.55438 0.44266 0.2022 0.0
H416 H 0.54128 0.40038 0.28913 0.0
H417 H 0.58834 0.46504 0.30779 0.0
H418 H 0.54363 0.39117 0.3409 0.0
H419 H 0.58993 0.45467 0.35922 0.0
H420 H 0.45351 0.41428 0.22554 0.0
H421 H 0.51926 0.47022 0.27126 0.0
H422 H 0.4851 0.40981 0.22766 0.0
H423 H 0.48707 0.47362 0.26841 0.0
H424 H 0.51493 0.4329 0.36859 0.0
H425 H 0.55609 0.5006 0.3593 0.0
H426 H 0.53546 0.35873 0.20769 0.0
H427 H 0.48274 0.35218 0.25951 0.0
H428 H 0.57801 0.50512 0.19782 0.0
H429 H 0.59369 0.49665 0.28625 0.0
H430 H 0.61358 0.53685 0.1932 0.0
H431 H 0.62907 0.52844 0.27996 0.0
H432 H 0.56899 0.47525 0.16541 0.0
H433 H 0.52684 0.40804 0.17357 0.0
H434 H 0.5586 0.47293 0.11305 0.0
H435 H 0.51715 0.40689 0.12106 0.0
H436 H 0.64548 0.4747 0.25901 0.0
H437 H 0.63939 0.49701 0.17334 0.0
H438 H 0.52826 0.51263 0.17401 0.0
H439 H 0.48985 0.44843 0.14224 0.0
Li440 Li 0.09125 0.54154 0.77837 0.0
Li441 Li 0.11217 0.53737 0.73921 0.0
Li442 Li 0.11139 0.57156 0.74457 0.0
Li443 Li 0.08147 0.53971 0.72495 0.0
C444 C 0.13506 0.56532 0.79636 0.0
N445 N 0.16065 0.57984 0.84567 0.0
C446 C 0.14822 0.55714 0.80362 0.0
C447 C 0.13511 0.58106 0.81403 0.0
C448 C 0.16099 0.56464 0.82868 0.0
C449 C 0.1481 0.58815 0.8389 0.0
C450 C 0.07913 0.49767 0.7511 0.0
C451 C 0.07545 0.4666 0.72666 0.0
N452 N 0.07374 0.45735 0.75328 0.0
C453 C 0.07711 0.48776 0.77821 0.0
C454 C 0.07808 0.48693 0.7251 0.0
C455 C 0.07447 0.4674 0.77885 0.0
C456 C 0.0614 0.53013 0.82371 0.0
N457 N 0.08119 0.53389 0.81743 0.0
C458 C 0.08674 0.52803 0.8675 0.0
C459 C 0.09363 0.53239 0.83845 0.0
C460 C 0.06649 0.52444 0.87495 0.0
C461 C 0.05363 0.52521 0.8524 0.0
H462 H 0.0517 0.53107 0.80641 0.0
H463 H 0.10896 0.53461 0.8328 0.0
C464 C 0.14237 0.53241 0.70666 0.0
N465 N 0.12966 0.52558 0.73075 0.0
C466 C 0.15624 0.52485 0.70087 0.0
C467 C 0.14326 0.503 0.7444 0.0
C468 C 0.12995 0.51125 0.74959 0.0
C469 C 0.15694 0.51003 0.72001 0.0
H470 H 0.14214 0.54415 0.69235 0.0
H471 H 0.12019 0.50657 0.76907 0.0
C472 C 0.07655 0.57343 0.76646 0.0
N473 N 0.06721 0.60357 0.78693 0.0
C474 C 0.06577 0.58051 0.7485 0.0
C475 C 0.08219 0.58137 0.79504 0.0
C476 C 0.06131 0.59585 0.75918 0.0
C477 C 0.07742 0.59667 0.80494 0.0
C478 C 0.10811 0.55566 0.67868 0.0
C479 C 0.11133 0.5739 0.66404 0.0
C480 C 0.1022 0.53714 0.66268 0.0
C481 C 0.10814 0.57318 0.63364 0.0
C482 C 0.09914 0.53705 0.63232 0.0
N483 N 0.10213 0.55491 0.61856 0.0
C484 C 0.14732 0.61162 0.75277 0.0
C485 C 0.11909 0.61242 0.72803 0.0
C486 C 0.1595 0.63362 0.75167 0.0
N487 N 0.12737 0.60153 0.74159 0.0
C488 C 0.13088 0.63449 0.72598 0.0
C489 C 0.15126 0.6453 0.73822 0.0
H490 H 0.15391 0.60259 0.76228 0.0
H491 H 0.10346 0.60396 0.71842 0.0
C492 C 0.04483 0.50919 0.69482 0.0
N493 N 0.05909 0.53018 0.69744 0.0
C494 C 0.02944 0.50207 0.67277 0.0
C495 C 0.04344 0.53838 0.65715 0.0
C496 C 0.05837 0.54478 0.67964 0.0
C497 C 0.02885 0.51673 0.65322 0.0
H498 H 0.0456 0.49795 0.70955 0.0
H499 H 0.06985 0.56139 0.68238 0.0
O500 O 0.12232 0.55799 0.77201 0.0
O501 O 0.08182 0.51764 0.75007 0.0
O502 O 0.08106 0.55841 0.75631 0.0
O503 O 0.11084 0.55597 0.7085 0.0
H504 H 0.14855 0.5451 0.79012 0.0
H505 H 0.12544 0.58795 0.80842 0.0
H506 H 0.17118 0.55837 0.83461 0.0
H507 H 0.14827 0.60031 0.85275 0.0
H508 H 0.07474 0.45817 0.70671 0.0
H509 H 0.07772 0.49575 0.79855 0.0
H510 H 0.07931 0.49422 0.70394 0.0
H511 H 0.07303 0.45961 0.79968 0.0
H512 H 0.0974 0.52785 0.88393 0.0
H513 H 0.03769 0.52199 0.85673 0.0
H514 H 0.16677 0.53113 0.68216 0.0
H515 H 0.143 0.49144 0.75962 0.0
H516 H 0.061 0.57433 0.72648 0.0
H517 H 0.08995 0.57565 0.80957 0.0
H518 H 0.05313 0.60159 0.74541 0.0
H519 H 0.08177 0.60299 0.82699 0.0
H520 H 0.11609 0.58842 0.67603 0.0
H521 H 0.09996 0.523 0.67361 0.0
H522 H 0.11042 0.58714 0.62206 0.0
H523 H 0.09442 0.52277 0.61971 0.0
H524 H 0.17541 0.64141 0.76062 0.0
H525 H 0.12416 0.64301 0.7151 0.0
H526 H 0.01828 0.48527 0.67091 0.0
H527 H 0.04384 0.55026 0.64241 0.0
C528 C 0.50195 0.18681 0.2161 0.0
C529 C 0.50487 0.17823 0.24221 0.0
C530 C 0.49574 0.20208 0.21707 0.0
C531 C 0.49853 0.24302 0.2671 0.0
H532 H 0.4673 0.25151 0.20456 0.0
C533 C 0.4927 0.31853 0.2621 0.0
C534 C 0.49934 0.32914 0.23501 0.0
C535 C 0.48757 0.29738 0.26453 0.0
C536 C 0.47596 0.24926 0.22224 0.0
H537 H 0.50239 0.1782 0.28981 0.0
H538 H 0.49081 0.20424 0.29143 0.0
H539 H 0.46845 0.21857 0.20656 0.0
H540 H 0.50438 0.3256 0.18886 0.0
H541 H 0.49555 0.28868 0.19313 0.0
H542 H 0.50645 0.27385 0.28238 0.0
C543 C 0.49384 0.19954 0.2702 0.0
C544 C 0.4767 0.23046 0.22335 0.0
C545 C 0.50024 0.1844 0.26924 0.0
C546 C 0.49955 0.31786 0.21007 0.0
C547 C 0.49428 0.29667 0.21246 0.0
C548 C 0.49765 0.26169 0.26612 0.0
C549 C 0.49209 0.20901 0.24418 0.0
C550 C 0.4885 0.22738 0.24533 0.0
C551 C 0.48883 0.28641 0.23989 0.0
C552 C 0.48683 0.26525 0.24325 0.0
H553 H 0.50493 0.18208 0.19485 0.0
H554 H 0.49473 0.20911 0.19658 0.0
H555 H 0.50807 0.2414 0.28407 0.0
H556 H 0.49251 0.32686 0.28173 0.0
H557 H 0.48326 0.28979 0.28589 0.0
C558 C 0.31853 0.50228 0.69116 0.0
C559 C 0.32523 0.50089 0.71968 0.0
C560 C 0.29765 0.49737 0.68602 0.0
C561 C 0.24424 0.47404 0.72119 0.0
H562 H 0.23966 0.51583 0.67373 0.0
C563 C 0.18257 0.49963 0.74008 0.0
C564 C 0.17273 0.50299 0.71564 0.0
C565 C 0.19839 0.49441 0.73622 0.0
C566 C 0.24057 0.50377 0.68657 0.0
H567 H 0.31484 0.49181 0.76473 0.0
H568 H 0.27887 0.4842 0.75613 0.0
H569 H 0.27284 0.51545 0.67463 0.0
H570 H 0.17141 0.5026 0.66788 0.0
H571 H 0.19975 0.49427 0.66127 0.0
H572 H 0.21228 0.46336 0.73455 0.0
C573 C 0.28954 0.48875 0.73754 0.0
C574 C 0.25958 0.50349 0.68705 0.0
C575 C 0.31032 0.49347 0.74261 0.0
C576 C 0.17887 0.50053 0.68721 0.0
C577 C 0.19497 0.4956 0.68337 0.0
C578 C 0.22532 0.47451 0.72097 0.0
C579 C 0.28306 0.49112 0.70932 0.0
C580 C 0.26186 0.48903 0.70506 0.0
C581 C 0.20499 0.4927 0.70787 0.0
C582 C 0.22353 0.48976 0.70429 0.0
H583 H 0.3296 0.50803 0.67298 0.0
H584 H 0.29312 0.49904 0.66392 0.0
H585 H 0.24527 0.46237 0.73476 0.0
H586 H 0.17867 0.50183 0.76231 0.0
H587 H 0.20613 0.49264 0.7555 0.0
C588 C 0.68463 0.17269 0.25755 0.0
C589 C 0.67015 0.16588 0.23402 0.0
C590 C 0.70546 0.18908 0.25364 0.0
C591 C 0.73479 0.2356 0.20638 0.0
H592 H 0.78327 0.24259 0.25091 0.0
C593 C 0.81295 0.31421 0.20371 0.0
C594 C 0.8212 0.32248 0.23166 0.0
C595 C 0.79748 0.29294 0.20045 0.0
C596 C 0.76987 0.24081 0.23829 0.0
H597 H 0.66674 0.17022 0.18744 0.0
H598 H 0.70315 0.19805 0.18045 0.0
H599 H 0.75042 0.20838 0.25122 0.0
H600 H 0.8208 0.31462 0.27776 0.0
H601 H 0.79345 0.27759 0.27218 0.0
H602 H 0.75387 0.26806 0.19412 0.0
C603 C 0.69826 0.1911 0.20211 0.0
C604 C 0.75107 0.22126 0.23851 0.0
C605 C 0.6774 0.17488 0.20607 0.0
C606 C 0.81449 0.30877 0.25602 0.0
C607 C 0.79902 0.28749 0.25276 0.0
C608 C 0.75355 0.25504 0.20607 0.0
C609 C 0.71232 0.19891 0.22606 0.0
C610 C 0.73317 0.21858 0.22303 0.0
C611 C 0.78993 0.27951 0.22507 0.0
C612 C 0.77115 0.25801 0.2225 0.0
H613 H 0.67969 0.16583 0.27924 0.0
H614 H 0.71581 0.19474 0.27263 0.0
H615 H 0.72124 0.2343 0.19469 0.0
H616 H 0.81771 0.32437 0.18452 0.0
H617 H 0.79093 0.28716 0.17878 0.0
C618 C 0.49161 0.81035 0.77728 0.0
C619 C 0.49376 0.82037 0.75002 0.0
C620 C 0.49686 0.79446 0.78024 0.0
C621 C 0.52267 0.76766 0.74288 0.0
H622 H 0.4798 0.71865 0.78492 0.0
C623 C 0.50523 0.68182 0.72498 0.0
C624 C 0.49824 0.66793 0.74917 0.0
C625 C 0.50964 0.70273 0.72814 0.0
C626 C 0.49219 0.73231 0.7736 0.0
H627 H 0.50449 0.82241 0.70497 0.0
H628 H 0.51276 0.79402 0.70981 0.0
H629 H 0.47838 0.75115 0.7849 0.0
H630 H 0.49166 0.66556 0.79603 0.0
H631 H 0.49984 0.70207 0.8016 0.0
H632 H 0.53589 0.74823 0.73065 0.0
C633 C 0.50729 0.79868 0.72904 0.0
C634 C 0.49139 0.75102 0.7736 0.0
C635 C 0.50224 0.81475 0.72615 0.0
C636 C 0.49712 0.67581 0.77695 0.0
C637 C 0.50158 0.69669 0.7801 0.0
C638 C 0.52342 0.74883 0.74278 0.0
C639 C 0.50412 0.78796 0.75594 0.0
C640 C 0.50644 0.76886 0.75796 0.0
C641 C 0.50716 0.71015 0.75555 0.0
C642 C 0.508 0.73087 0.75787 0.0
H643 H 0.48497 0.81406 0.79613 0.0
H644 H 0.4946 0.78681 0.80142 0.0
H645 H 0.53466 0.7812 0.7309 0.0
H646 H 0.50659 0.67633 0.70338 0.0
H647 H 0.51385 0.71268 0.70877 0.0
C648 C 0.68346 0.50308 0.23184 0.0
C649 C 0.6682 0.49405 0.20942 0.0
C650 C 0.70406 0.50704 0.22734 0.0
C651 C 0.73188 0.48658 0.18323 0.0
H652 H 0.78174 0.53183 0.22096 0.0
C653 C 0.8104 0.48643 0.18268 0.0
C654 C 0.82006 0.48959 0.21041 0.0
C655 C 0.79447 0.49146 0.17801 0.0
C656 C 0.76795 0.51911 0.21028 0.0
H657 H 0.66297 0.4832 0.16411 0.0
H658 H 0.69907 0.49058 0.15604 0.0
H659 H 0.74875 0.53292 0.22054 0.0
H660 H 0.82122 0.50127 0.25465 0.0
H661 H 0.79332 0.50987 0.24662 0.0
H662 H 0.75072 0.47237 0.17383 0.0
C663 C 0.69498 0.49425 0.17729 0.0
C664 C 0.74908 0.51973 0.21004 0.0
C665 C 0.67434 0.49022 0.18182 0.0
C666 C 0.81421 0.49884 0.23296 0.0
C667 C 0.79824 0.50381 0.22832 0.0
C668 C 0.75071 0.48598 0.18344 0.0
C669 C 0.7099 0.50212 0.20026 0.0
C670 C 0.7307 0.50321 0.19709 0.0
C671 C 0.78783 0.49968 0.20102 0.0
C672 C 0.76882 0.50198 0.19753 0.0
H673 H 0.67932 0.50656 0.25319 0.0
H674 H 0.7151 0.51298 0.24558 0.0
H675 H 0.71796 0.4734 0.1735 0.0
H676 H 0.81486 0.47968 0.16473 0.0
H677 H 0.78701 0.48843 0.15658 0.0
C678 C 0.31097 0.8104 0.70733 0.0
C679 C 0.32004 0.81696 0.73542 0.0
C680 C 0.28933 0.79617 0.70418 0.0
C681 C 0.23826 0.76785 0.74592 0.0
H682 H 0.22647 0.7231 0.68993 0.0
C683 C 0.17537 0.68057 0.76071 0.0
C684 C 0.16453 0.66856 0.73589 0.0
C685 C 0.19044 0.70198 0.75784 0.0
C686 C 0.22933 0.73568 0.70521 0.0
H687 H 0.31302 0.81473 0.78214 0.0
H688 H 0.27571 0.789 0.77679 0.0
H689 H 0.26093 0.75495 0.68986 0.0
H690 H 0.15995 0.6696 0.68895 0.0
H691 H 0.18668 0.70713 0.68381 0.0
H692 H 0.20694 0.74756 0.76255 0.0
C693 C 0.28516 0.79515 0.75706 0.0
C694 C 0.24913 0.75403 0.70518 0.0
C695 C 0.30673 0.80964 0.76019 0.0
C696 C 0.16809 0.67858 0.70841 0.0
C697 C 0.18339 0.69997 0.70546 0.0
C698 C 0.21851 0.74932 0.74619 0.0
C699 C 0.27626 0.78785 0.72905 0.0
C700 C 0.25409 0.77009 0.7261 0.0
C701 C 0.19512 0.71168 0.73003 0.0
C702 C 0.21411 0.73283 0.72636 0.0
H703 H 0.32066 0.81556 0.6877 0.0
H704 H 0.28298 0.79124 0.68222 0.0
H705 H 0.24135 0.78009 0.7619 0.0
H706 H 0.17274 0.67318 0.78216 0.0
H707 H 0.19938 0.71056 0.7771 0.0
C708 C 0.48808 0.95284 0.90242 0.0
C709 C 0.47007 0.94915 0.88646 0.0
C710 C 0.49243 0.96291 0.92972 0.0
C711 C 0.47944 -0.00347 0.97633 0.0
H712 H 0.50318 0.9779 0.03808 0.0
C713 C 0.49164 0.02801 0.09567 0.0
C714 C 0.51201 0.03512 0.10703 0.0
C715 C 0.48538 0.01655 0.06939 0.0
C716 C 0.49661 0.98328 0.02098 0.0
H717 H 0.44238 0.95286 0.8864 0.0
H718 H 0.44968 0.97008 0.93445 0.0
H719 H 0.49431 0.9598 0.99068 0.0
H720 H 0.5416 0.03539 0.10054 0.0
H721 H 0.53059 0.01518 0.0547 0.0
H722 H 0.48157 0.01988 0.00696 0.0
C723 C 0.46073 0.96565 0.92564 0.0
C724 C 0.49163 0.97301 0.9938 0.0
C725 C 0.45651 0.95577 0.89817 0.0
C726 C 0.52586 0.03021 0.09207 0.0
C727 C 0.51952 0.01853 0.06603 0.0
C728 C 0.48422 0.00665 0.00364 0.0
C729 C 0.47872 0.96928 0.94177 0.0
C730 C 0.48322 0.97968 0.97103 0.0
C731 C 0.4993 0.01178 0.05433 0.0
C732 C 0.49306 0.00025 0.02607 0.0
H733 H 0.49891 0.9481 0.89365 0.0
H734 H 0.50666 0.96586 0.94124 0.0
H735 H 0.47326 0.00227 0.95917 0.0
H736 H 0.48073 0.03172 0.10677 0.0
H737 H 0.46966 0.01139 0.06084 0.0
C738 C 0.54547 0.48506 0.41754 0.0
C739 C 0.52974 0.4703 0.39863 0.0
C740 C 0.54025 0.48846 0.44583 0.0
C741 C 0.49494 0.4831 0.48814 0.0
H742 H 0.53006 0.49045 0.55627 0.0
C743 C 0.46785 0.48974 0.60355 0.0
C744 C 0.4828 0.50618 0.62134 0.0
C745 C 0.47414 0.48396 0.57789 0.0
C746 C 0.5202 0.48857 0.53739 0.0
H747 H 0.49623 0.44747 0.39463 0.0
H748 H 0.48722 0.45309 0.44407 0.0
H749 H 0.54008 0.48316 0.50814 0.0
H750 H 0.51616 0.52892 0.62695 0.0
H751 H 0.52722 0.51889 0.58181 0.0
H752 H 0.47517 0.48867 0.51707 0.0
C753 C 0.50355 0.46219 0.43696 0.0
C754 C 0.52593 0.48442 0.50987 0.0
C755 C 0.50876 0.4588 0.40874 0.0
C756 C 0.50433 0.5161 0.61369 0.0
C757 C 0.51064 0.51035 0.58789 0.0
C758 C 0.48923 0.48723 0.51554 0.0
C759 C 0.51918 0.47721 0.45569 0.0
C760 C 0.5133 0.48158 0.48499 0.0
C761 C 0.49553 0.49455 0.56939 0.0
C762 C 0.50173 0.48993 0.54049 0.0
H763 H 0.56182 0.494 0.41047 0.0
H764 H 0.55262 0.50025 0.4597 0.0
H765 H 0.48513 0.48145 0.46928 0.0
H766 H 0.45119 0.48155 0.60925 0.0
H767 H 0.46219 0.47139 0.56444 0.0
C768 C 0.0655 0.50925 0.92512 0.0
C769 C 0.05896 0.52009 0.90599 0.0
C770 C 0.05874 0.50553 0.95435 0.0
C771 C 0.03174 0.52085 0.01132 0.0
H772 H 0.02116 0.46822 0.04724 0.0
C773 C 0.99309 0.49711 0.12545 0.0
C774 C 0.97775 0.47564 0.12912 0.0
C775 C 0.00681 0.50363 0.10134 0.0
C776 C 0.02381 0.48291 0.03751 0.0
H777 H 0.04022 0.53568 0.90316 0.0
H778 H 0.02711 0.52769 0.95305 0.0
H779 H 0.03628 0.47715 -0.00158 0.0
H780 H 0.96599 0.44403 0.11135 0.0
H781 H 0.98858 0.45544 0.06854 0.0
H782 H 0.01754 0.52571 0.04928 0.0
C783 C 0.03815 0.52275 0.94592 0.0
C784 C 0.0329 0.48826 0.00957 0.0
C785 C 0.04533 0.52694 0.91691 0.0
C786 C 0.97717 0.46077 0.10886 0.0
C787 C 0.99052 0.46732 0.08447 0.0
C788 C 0.02215 0.51524 0.03894 0.0
C789 C 0.04481 0.51206 0.96511 0.0
C790 C 0.03667 0.50714 -0.00415 0.0
C791 C 0.00526 0.4889 0.08002 0.0
C792 C 0.0177 0.496 0.05221 0.0
H793 H 0.07569 0.50338 0.91756 0.0
H794 H 0.06452 0.49754 0.96845 0.0
H795 H 0.0349 0.53581 0.00194 0.0
H796 H 0.99402 0.50906 0.14051 0.0
H797 H 0.01828 0.52031 0.09913 0.0
C798 C 0.50606 0.05031 0.41072 0.0
C799 C 0.5047 0.03976 0.38427 0.0
C800 C 0.49906 0.03899 0.43701 0.0
C801 C 0.48814 0.98828 0.47031 0.0
H802 H 0.46165 0.00416 0.53155 0.0
C803 C 0.45391 0.93904 0.57564 0.0
C804 C 0.46021 0.95049 0.60213 0.0
C805 C 0.45797 0.94962 0.54879 0.0
C806 C 0.46912 -0.00035 0.51465 0.0
H807 H 0.49421 0.00913 0.36415 0.0
H808 H 0.48148 0.98924 0.4099 0.0
H809 H 0.47068 0.023 0.48461 0.0
H810 H 0.47517 0.98187 0.62149 0.0
H811 H 0.48224 0.00045 0.57437 0.0
H812 H 0.48639 0.96482 0.5003 0.0
C813 C 0.48849 0.0063 0.41058 0.0
C814 C 0.47434 0.01045 0.48783 0.0
C815 C 0.49569 0.01765 0.38437 0.0
C816 C 0.47031 0.9727 0.60133 0.0
C817 C 0.47417 0.98329 0.57446 0.0
C818 C 0.48273 0.97738 0.49698 0.0
C819 C 0.49038 0.01687 0.43728 0.0
C820 C 0.48404 0.00496 0.46541 0.0
C821 C 0.46821 0.97184 0.54795 0.0
C822 C 0.47329 0.98305 0.51944 0.0
H823 H 0.51314 0.0674 0.41122 0.0
H824 H 0.50104 0.04767 0.45722 0.0
H825 H 0.49597 0.98391 0.45379 0.0
H826 H 0.44624 0.9219 0.57565 0.0
H827 H 0.4531 0.94044 0.52864 0.0
C828 C 0.44438 0.51113 0.9208 0.0
C829 C 0.46184 0.52576 0.90409 0.0
C830 C 0.44688 0.5076 0.95036 0.0
C831 C 0.48247 0.53095 0.01407 0.0
H832 H 0.45918 0.47263 0.03923 0.0
C833 C 0.51381 0.50703 0.11422 0.0
C834 C 0.49976 0.48921 0.13077 0.0
C835 C 0.50676 0.51282 0.08925 0.0
C836 C 0.46542 0.48901 0.03283 0.0
H837 H 0.49559 0.54816 0.90538 0.0
H838 H 0.49988 0.54212 0.95701 0.0
H839 H 0.45134 0.48016 0.99009 0.0
H840 H 0.46708 0.46422 0.13519 0.0
H841 H 0.45468 0.47446 0.0916 0.0
H842 H 0.49685 0.53981 0.05663 0.0
C843 C 0.48423 0.53357 0.9473 0.0
C844 C 0.46097 0.49331 0.00462 0.0
C845 C 0.48176 0.537 0.91772 0.0
C846 C 0.47831 0.47786 0.12259 0.0
C847 C 0.47123 0.4837 0.09764 0.0
C848 C 0.48684 0.52666 0.04235 0.0
C849 C 0.46684 0.51874 0.96386 0.0
C850 C 0.46982 0.5143 -0.00525 0.0
C851 C 0.48549 0.50096 0.08031 0.0
C852 C 0.47874 0.50563 0.05181 0.0
H853 H 0.42874 0.5025 0.91111 0.0
H854 H 0.43317 0.49624 0.9627 0.0
H855 H 0.48922 0.54729 0.00716 0.0
H856 H 0.53049 0.51591 0.11973 0.0
H857 H 0.51824 0.52599 0.07618 0.0
C858 C 0.00961 0.49114 0.6122 0.0
C859 C 0.01396 0.50953 0.6279 0.0
C860 C -0.0028 0.48542 0.58677 0.0
C861 C 0.98395 0.50926 0.52657 0.0
H862 H 0.94003 0.45181 0.50873 0.0
C863 C 0.93835 0.48876 0.41697 0.0
C864 C 0.93382 0.46961 0.40334 0.0
C865 C 0.94602 0.49316 0.44577 0.0
C866 C 0.95241 0.46789 0.51324 0.0
H867 H 0.00767 0.53567 0.62997 0.0
H868 H 0.98648 0.52593 0.58506 0.0
H869 H 0.95694 0.46 0.55708 0.0
H870 H 0.93338 0.43986 0.40975 0.0
H871 H 0.94774 0.44798 0.45931 0.0
H872 H 0.98022 0.51711 0.48257 0.0
C873 C 0.99281 0.51607 0.59247 0.0
C874 C 0.96198 0.47256 0.54096 0.0
C875 C 0.00501 0.52166 0.61808 0.0
C876 C 0.93703 0.45492 0.41933 0.0
C877 C 0.94493 0.45943 0.448 0.0
C878 C 0.97459 0.50455 0.49876 0.0
C879 C 0.98907 0.49808 0.57637 0.0
C880 C 0.97791 0.49326 0.54779 0.0
C881 C 0.9496 0.47864 0.46155 0.0
C882 C 0.9588 0.48378 0.49165 0.0
H883 H 0.01648 0.48159 0.61881 0.0
H884 H -0.00528 0.47159 0.57455 0.0
H885 H -0.00357 0.52529 0.53116 0.0
H886 H 0.9363 0.50056 0.40526 0.0
H887 H 0.94916 0.50799 0.45562 0.0
loop_
_geom_bond_atom_site_label_1
_geom_bond_atom_site_label_2
_geom_bond_distance
_geom_bond_site_symmetry_2
_ccdc_geom_bond_type
Li0 N17 1.990 . S
Li0 O60 1.956 . S
Li0 O61 1.970 . S
Li0 O62 1.961 . S
Li1 N25 1.990 . S
Li1 O60 1.970 . S
Li1 O61 1.956 . S
Li1 O63 1.961 . S
Li2 N47 1.990 . S
Li2 O60 1.961 . S
Li2 O62 1.956 . S
Li2 O63 1.970 . S
Li3 N53 1.990 . S
Li3 O61 1.961 . S
Li3 O62 1.970 . S
Li3 O63 1.956 . S
C4 C6 1.348 . S
C4 C7 1.356 . S
C4 O60 1.325 . S
N5 C8 1.314 . S
N5 C9 1.279 . S
C6 C4 1.348 . S
C6 C8 1.353 . S
C6 H64 0.929 . S
C7 C4 1.356 . S
C7 C9 1.358 . S
C7 H65 0.930 . S
C8 N5 1.314 . S
C8 C6 1.353 . S
C8 H66 0.930 . S
C9 N5 1.279 . S
C9 C7 1.358 . S
C9 H67 0.930 . S
C10 C13 1.348 . S
C10 C14 1.356 . S
C10 O61 1.325 . S
C11 N12 1.279 . S
C11 C14 1.358 . S
C11 H68 0.930 . S
N12 C11 1.279 . S
N12 C15 1.314 . S
C13 C10 1.348 . S
C13 C15 1.353 . S
C13 H69 0.929 . S
C14 C10 1.356 . S
C14 C11 1.358 . S
C14 H70 0.930 . S
C15 N12 1.314 . S
C15 C13 1.353 . S
C15 H71 0.930 . S
C16 N17 1.314 . S
C16 C21 1.353 . S
C16 H22 0.930 . S
N17 Li0 1.990 . S
N17 C16 1.314 . S
N17 C19 1.279 . S
C18 C19 1.358 . S
C18 C20 1.356 . S
C18 H72 0.930 . S
C19 N17 1.279 . S
C19 C18 1.358 . S
C19 H23 0.930 . S
C20 C18 1.356 . S
C20 C21 1.348 . S
C21 C16 1.353 . S
C21 C20 1.348 . S
C21 H73 0.929 . S
H22 C16 0.930 . S
H23 C19 0.930 . S
C24 N25 1.314 . S
C24 C26 1.353 . S
C24 H30 0.930 . S
N25 Li1 1.990 . S
N25 C24 1.314 . S
N25 C28 1.279 . S
C26 C24 1.353 . S
C26 C29 1.348 . S
C26 H74 0.929 . S
C27 C28 1.358 . S
C27 C29 1.356 . S
C27 H75 0.930 . S
C28 N25 1.279 . S
C28 C27 1.358 . S
C28 H31 0.930 . S
C29 C26 1.348 . S
C29 C27 1.356 . S
H30 C24 0.930 . S
H31 C28 0.930 . S
C32 C34 1.348 . S
C32 C35 1.356 . S
C32 O62 1.325 . S
N33 C36 1.314 . S
N33 C37 1.279 . S
C34 C32 1.348 . S
C34 C36 1.353 . S
C34 H76 0.929 . S
C35 C32 1.356 . S
C35 C37 1.358 . S
C35 H77 0.930 . S
C36 N33 1.314 . S
C36 C34 1.353 . S
C36 H78 0.930 . S
C37 N33 1.279 . S
C37 C35 1.358 . S
C37 H79 0.930 . S
C38 C39 1.348 . S
C38 C40 1.356 . S
C38 O63 1.325 . S
C39 C38 1.348 . S
C39 C41 1.353 . S
C39 H80 0.929 . S
C40 C38 1.356 . S
C40 C42 1.358 . S
C40 H81 0.930 . S
C41 C39 1.353 . S
C41 N43 1.314 . S
C41 H82 0.930 . S
C42 C40 1.358 . S
C42 N43 1.279 . S
C42 H83 0.930 . S
N43 C41 1.314 . S
N43 C42 1.279 . S
C44 C46 1.353 . S
C44 N47 1.314 . S
C44 H50 0.930 . S
C45 N47 1.279 . S
C45 C48 1.358 . S
C45 H51 0.930 . S
C46 C44 1.353 . S
C46 C49 1.348 . S
C46 H84 0.929 . S
N47 Li2 1.990 . S
N47 C44 1.314 . S
N47 C45 1.279 . S
C48 C45 1.358 . S
C48 C49 1.356 . S
C48 H85 0.930 . S
C49 C46 1.348 . S
C49 C48 1.356 . S
H50 C44 0.930 . S
H51 C45 0.930 . S
C52 N53 1.314 . S
C52 C54 1.353 . S
C52 H58 0.930 . S
N53 Li3 1.990 . S
N53 C52 1.314 . S
N53 C56 1.279 . S
C54 C52 1.353 . S
C54 C57 1.348 . S
C54 H86 0.929 . S
C55 C56 1.358 . S
C55 C57 1.356 . S
C55 H87 0.930 . S
C56 N53 1.279 . S
C56 C55 1.358 . S
C56 H59 0.930 . S
C57 C54 1.348 . S
C57 C55 1.356 . S
H58 C52 0.930 . S
H59 C56 0.930 . S
O60 Li0 1.956 . S
O60 Li1 1.970 . S
O60 Li2 1.961 . S
O60 C4 1.325 . S
O61 Li0 1.970 . S
O61 Li1 1.956 . S
O61 Li3 1.961 . S
O61 C10 1.325 . S
O62 Li0 1.961 . S
O62 Li2 1.956 . S
O62 Li3 1.970 . S
O62 C32 1.325 . S
O63 Li1 1.961 . S
O63 Li2 1.970 . S
O63 Li3 1.956 . S
O63 C38 1.325 . S
H64 C6 0.929 . S
H65 C7 0.930 . S
H66 C8 0.930 . S
H67 C9 0.930 . S
H68 C11 0.930 . S
H69 C13 0.929 . S
H70 C14 0.930 . S
H71 C15 0.930 . S
H72 C18 0.930 . S
H73 C21 0.929 . S
H74 C26 0.929 . S
H75 C27 0.930 . S
H76 C34 0.929 . S
H77 C35 0.930 . S
H78 C36 0.930 . S
H79 C37 0.930 . S
H80 C39 0.929 . S
H81 C40 0.930 . S
H82 C41 0.930 . S
H83 C42 0.930 . S
H84 C46 0.929 . S
H85 C48 0.930 . S
H86 C54 0.929 . S
H87 C55 0.930 . S
Li88 N105 1.990 . S
Li88 O148 1.956 . S
Li88 O149 1.970 . S
Li88 O150 1.961 . S
Li89 N113 1.990 . S
Li89 O148 1.970 . S
Li89 O149 1.956 . S
Li89 O151 1.961 . S
Li90 N135 1.990 . S
Li90 O148 1.961 . S
Li90 O150 1.956 . S
Li90 O151 1.970 . S
Li91 N141 1.990 . S
Li91 O149 1.961 . S
Li91 O150 1.970 . S
Li91 O151 1.956 . S
C92 C94 1.348 . S
C92 C95 1.356 . S
C92 O148 1.325 . S
N93 C96 1.314 . S
N93 C97 1.279 . S
C94 C92 1.348 . S
C94 C96 1.353 . S
C94 H152 0.929 . S
C95 C92 1.356 . S
C95 C97 1.358 . S
C95 H153 0.930 . S
C96 N93 1.314 . S
C96 C94 1.353 . S
C96 H154 0.930 . S
C97 N93 1.279 . S
C97 C95 1.358 . S
C97 H155 0.930 . S
C98 C101 1.348 . S
C98 C102 1.356 . S
C98 O149 1.325 . S
C99 N100 1.279 . S
C99 C102 1.358 . S
C99 H156 0.930 . S
N100 C99 1.279 . S
N100 C103 1.314 . S
C101 C98 1.348 . S
C101 C103 1.353 . S
C101 H157 0.929 . S
C102 C98 1.356 . S
C102 C99 1.358 . S
C102 H158 0.930 . S
C103 N100 1.314 . S
C103 C101 1.353 . S
C103 H159 0.930 . S
C104 N105 1.314 . S
C104 C109 1.353 . S
C104 H110 0.930 . S
N105 Li88 1.990 . S
N105 C104 1.314 . S
N105 C107 1.279 . S
C106 C107 1.358 . S
C106 C108 1.356 . S
C106 H160 0.930 . S
C107 N105 1.279 . S
C107 C106 1.358 . S
C107 H111 0.930 . S
C108 C106 1.356 . S
C108 C109 1.348 . S
C109 C104 1.353 . S
C109 C108 1.348 . S
C109 H161 0.929 . S
H110 C104 0.930 . S
H111 C107 0.930 . S
C112 N113 1.314 . S
C112 C114 1.353 . S
C112 H118 0.930 . S
N113 Li89 1.990 . S
N113 C112 1.314 . S
N113 C116 1.279 . S
C114 C112 1.353 . S
C114 C117 1.348 . S
C114 H162 0.929 . S
C115 C116 1.358 . S
C115 C117 1.356 . S
C115 H163 0.930 . S
C116 N113 1.279 . S
C116 C115 1.358 . S
C116 H119 0.930 . S
C117 C114 1.348 . S
C117 C115 1.356 . S
H118 C112 0.930 . S
H119 C116 0.930 . S
C120 C122 1.348 . S
C120 C123 1.356 . S
C120 O150 1.325 . S
N121 C124 1.314 . S
N121 C125 1.279 . S
C122 C120 1.348 . S
C122 C124 1.353 . S
C122 H164 0.929 . S
C123 C120 1.356 . S
C123 C125 1.358 . S
C123 H165 0.930 . S
C124 N121 1.314 . S
C124 C122 1.353 . S
C124 H166 0.930 . S
C125 N121 1.279 . S
C125 C123 1.358 . S
C125 H167 0.930 . S
C126 C127 1.348 . S
C126 C128 1.356 . S
C126 O151 1.325 . S
C127 C126 1.348 . S
C127 C129 1.353 . S
C127 H168 0.929 . S
C128 C126 1.356 . S
C128 C130 1.358 . S
C128 H169 0.930 . S
C129 C127 1.353 . S
C129 N131 1.314 . S
C129 H170 0.930 . S
C130 C128 1.358 . S
C130 N131 1.279 . S
C130 H171 0.930 . S
N131 C129 1.314 . S
N131 C130 1.279 . S
C132 C134 1.353 . S
C132 N135 1.314 . S
C132 H138 0.930 . S
C133 N135 1.279 . S
C133 C136 1.358 . S
C133 H139 0.930 . S
C134 C132 1.353 . S
C134 C137 1.348 . S
C134 H172 0.929 . S
N135 Li90 1.990 . S
N135 C132 1.314 . S
N135 C133 1.279 . S
C136 C133 1.358 . S
C136 C137 1.356 . S
C136 H173 0.930 . S
C137 C134 1.348 . S
C137 C136 1.356 . S
H138 C132 0.930 . S
H139 C133 0.930 . S
C140 N141 1.314 . S
C140 C142 1.353 . S
C140 H146 0.930 . S
N141 Li91 1.990 . S
N141 C140 1.314 . S
N141 C144 1.279 . S
C142 C140 1.353 . S
C142 C145 1.348 . S
C142 H174 0.929 . S
C143 C144 1.358 . S
C143 C145 1.356 . S
C143 H175 0.930 . S
C144 N141 1.279 . S
C144 C143 1.358 . S
C144 H147 0.930 . S
C145 C142 1.348 . S
C145 C143 1.356 . S
H146 C140 0.930 . S
H147 C144 0.930 . S
O148 Li88 1.956 . S
O148 Li89 1.970 . S
O148 Li90 1.961 . S
O148 C92 1.325 . S
O149 Li88 1.970 . S
O149 Li89 1.956 . S
O149 Li91 1.961 . S
O149 C98 1.325 . S
O150 Li88 1.961 . S
O150 Li90 1.956 . S
O150 Li91 1.970 . S
O150 C120 1.325 . S
O151 Li89 1.961 . S
O151 Li90 1.970 . S
O151 Li91 1.956 . S
O151 C126 1.325 . S
H152 C94 0.929 . S
H153 C95 0.930 . S
H154 C96 0.930 . S
H155 C97 0.930 . S
H156 C99 0.930 . S
H157 C101 0.929 . S
H158 C102 0.930 . S
H159 C103 0.930 . S
H160 C106 0.930 . S
H161 C109 0.929 . S
H162 C114 0.929 . S
H163 C115 0.930 . S
H164 C122 0.929 . S
H165 C123 0.930 . S
H166 C124 0.930 . S
H167 C125 0.930 . S
H168 C127 0.929 . S
H169 C128 0.930 . S
H170 C129 0.930 . S
H171 C130 0.930 . S
H172 C134 0.929 . S
H173 C136 0.930 . S
H174 C142 0.929 . S
H175 C143 0.930 . S
Li176 N193 1.990 . S
Li176 O236 1.956 . S
Li176 O237 1.970 . S
Li176 O238 1.961 . S
Li177 N201 1.990 . S
Li177 O236 1.970 . S
Li177 O237 1.956 . S
Li177 O239 1.961 . S
Li178 N223 1.990 . S
Li178 O236 1.961 . S
Li178 O238 1.956 . S
Li178 O239 1.970 . S
Li179 N229 1.990 . S
Li179 O237 1.961 . S
Li179 O238 1.970 . S
Li179 O239 1.956 . S
C180 C182 1.348 . S
C180 C183 1.356 . S
C180 O236 1.325 . S
N181 C184 1.314 . S
N181 C185 1.279 . S
C182 C180 1.348 . S
C182 C184 1.353 . S
C182 H240 0.929 . S
C183 C180 1.356 . S
C183 C185 1.358 . S
C183 H241 0.930 . S
C184 N181 1.314 . S
C184 C182 1.353 . S
C184 H242 0.930 . S
C185 N181 1.279 . S
C185 C183 1.358 . S
C185 H243 0.930 . S
C186 C189 1.348 . S
C186 C190 1.356 . S
C186 O237 1.325 . S
C187 N188 1.279 . S
C187 C190 1.358 . S
C187 H244 0.930 . S
N188 C187 1.279 . S
N188 C191 1.314 . S
C189 C186 1.348 . S
C189 C191 1.353 . S
C189 H245 0.929 . S
C190 C186 1.356 . S
C190 C187 1.358 . S
C190 H246 0.930 . S
C191 N188 1.314 . S
C191 C189 1.353 . S
C191 H247 0.930 . S
C192 N193 1.314 . S
C192 C197 1.353 . S
C192 H198 0.930 . S
N193 Li176 1.990 . S
N193 C192 1.314 . S
N193 C195 1.279 . S
C194 C195 1.358 . S
C194 C196 1.356 . S
C194 H248 0.930 . S
C195 N193 1.279 . S
C195 C194 1.358 . S
C195 H199 0.930 . S
C196 C194 1.356 . S
C196 C197 1.348 . S
C197 C192 1.353 . S
C197 C196 1.348 . S
C197 H249 0.929 . S
H198 C192 0.930 . S
H199 C195 0.930 . S
C200 N201 1.314 . S
C200 C202 1.353 . S
C200 H206 0.930 . S
N201 Li177 1.990 . S
N201 C200 1.314 . S
N201 C204 1.279 . S
C202 C200 1.353 . S
C202 C205 1.348 . S
C202 H250 0.929 . S
C203 C204 1.358 . S
C203 C205 1.356 . S
C203 H251 0.930 . S
C204 N201 1.279 . S
C204 C203 1.358 . S
C204 H207 0.930 . S
C205 C202 1.348 . S
C205 C203 1.356 . S
H206 C200 0.930 . S
H207 C204 0.930 . S
C208 C210 1.348 . S
C208 C211 1.356 . S
C208 O238 1.325 . S
N209 C212 1.314 . S
N209 C213 1.279 . S
C210 C208 1.348 . S
C210 C212 1.353 . S
C210 H252 0.929 . S
C211 C208 1.356 . S
C211 C213 1.358 . S
C211 H253 0.930 . S
C212 N209 1.314 . S
C212 C210 1.353 . S
C212 H254 0.930 . S
C213 N209 1.279 . S
C213 C211 1.358 . S
C213 H255 0.930 . S
C214 C215 1.348 . S
C214 C216 1.356 . S
C214 O239 1.325 . S
C215 C214 1.348 . S
C215 C217 1.353 . S
C215 H256 0.929 . S
C216 C214 1.356 . S
C216 C218 1.358 . S
C216 H257 0.930 . S
C217 C215 1.353 . S
C217 N219 1.314 . S
C217 H258 0.930 . S
C218 C216 1.358 . S
C218 N219 1.279 . S
C218 H259 0.930 . S
N219 C217 1.314 . S
N219 C218 1.279 . S
C220 C222 1.353 . S
C220 N223 1.314 . S
C220 H226 0.930 . S
C221 N223 1.279 . S
C221 C224 1.358 . S
C221 H227 0.930 . S
C222 C220 1.353 . S
C222 C225 1.348 . S
C222 H260 0.929 . S
N223 Li178 1.990 . S
N223 C220 1.314 . S
N223 C221 1.279 . S
C224 C221 1.358 . S
C224 C225 1.356 . S
C224 H261 0.930 . S
C225 C222 1.348 . S
C225 C224 1.356 . S
H226 C220 0.930 . S
H227 C221 0.930 . S
C228 N229 1.314 . S
C228 C230 1.353 . S
C228 H234 0.930 . S
N229 Li179 1.990 . S
N229 C228 1.314 . S
N229 C232 1.279 . S
C230 C228 1.353 . S
C230 C233 1.348 . S
C230 H262 0.929 . S
C231 C232 1.358 . S
C231 C233 1.356 . S
C231 H263 0.930 . S
C232 N229 1.279 . S
C232 C231 1.358 . S
C232 H235 0.930 . S
C233 C230 1.348 . S
C233 C231 1.356 . S
H234 C228 0.930 . S
H235 C232 0.930 . S
O236 Li176 1.956 . S
O236 Li177 1.970 . S
O236 Li178 1.961 . S
O236 C180 1.325 . S
O237 Li176 1.970 . S
O237 Li177 1.956 . S
O237 Li179 1.961 . S
O237 C186 1.325 . S
O238 Li176 1.961 . S
O238 Li178 1.956 . S
O238 Li179 1.970 . S
O238 C208 1.325 . S
O239 Li177 1.961 . S
O239 Li178 1.970 . S
O239 Li179 1.956 . S
O239 C214 1.325 . S
H240 C182 0.929 . S
H241 C183 0.930 . S
H242 C184 0.930 . S
H243 C185 0.930 . S
H244 C187 0.930 . S
H245 C189 0.929 . S
H246 C190 0.930 . S
H247 C191 0.930 . S
H248 C194 0.930 . S
H249 C197 0.929 . S
H250 C202 0.929 . S
H251 C203 0.930 . S
H252 C210 0.929 . S
H253 C211 0.930 . S
H254 C212 0.930 . S
H255 C213 0.930 . S
H256 C215 0.929 . S
H257 C216 0.930 . S
H258 C217 0.930 . S
H259 C218 0.930 . S
H260 C222 0.929 . S
H261 C224 0.930 . S
H262 C230 0.929 . S
H263 C231 0.930 . S
Li264 N281 1.990 . S
Li264 O324 1.956 . S
Li264 O325 1.970 . S
Li264 O326 1.961 . S
Li265 N289 1.990 . S
Li265 O324 1.970 . S
Li265 O325 1.956 . S
Li265 O327 1.961 . S
Li266 N311 1.990 . S
Li266 O324 1.961 . S
Li266 O326 1.956 . S
Li266 O327 1.970 . S
Li267 N317 1.990 . S
Li267 O325 1.961 . S
Li267 O326 1.970 . S
Li267 O327 1.956 . S
C268 C270 1.348 . S
C268 C271 1.356 . S
C268 O324 1.325 . S
N269 C272 1.314 . S
N269 C273 1.279 . S
C270 C268 1.348 . S
C270 C272 1.353 . S
C270 H328 0.929 . S
C271 C268 1.356 . S
C271 C273 1.358 . S
C271 H329 0.930 . S
C272 N269 1.314 . S
C272 C270 1.353 . S
C272 H330 0.930 . S
C273 N269 1.279 . S
C273 C271 1.358 . S
C273 H331 0.930 . S
C274 C277 1.348 . S
C274 C278 1.356 . S
C274 O325 1.325 . S
C275 N276 1.279 . S
C275 C278 1.358 . S
C275 H332 0.930 . S
N276 C275 1.279 . S
N276 C279 1.314 . S
C277 C274 1.348 . S
C277 C279 1.353 . S
C277 H333 0.929 . S
C278 C274 1.356 . S
C278 C275 1.358 . S
C278 H334 0.930 . S
C279 N276 1.314 . S
C279 C277 1.353 . S
C279 H335 0.930 . S
C280 N281 1.314 . S
C280 C285 1.353 . S
C280 H286 0.930 . S
N281 Li264 1.990 . S
N281 C280 1.314 . S
N281 C283 1.279 . S
C282 C283 1.358 . S
C282 C284 1.356 . S
C282 H336 0.930 . S
C283 N281 1.279 . S
C283 C282 1.358 . S
C283 H287 0.930 . S
C284 C282 1.356 . S
C284 C285 1.348 . S
C285 C280 1.353 . S
C285 C284 1.348 . S
C285 H337 0.929 . S
H286 C280 0.930 . S
H287 C283 0.930 . S
C288 N289 1.314 . S
C288 C290 1.353 . S
C288 H294 0.930 . S
N289 Li265 1.990 . S
N289 C288 1.314 . S
N289 C292 1.279 . S
C290 C288 1.353 . S
C290 C293 1.348 . S
C290 H338 0.929 . S
C291 C292 1.358 . S
C291 C293 1.356 . S
C291 H339 0.930 . S
C292 N289 1.279 . S
C292 C291 1.358 . S
C292 H295 0.930 . S
C293 C290 1.348 . S
C293 C291 1.356 . S
H294 C288 0.930 . S
H295 C292 0.930 . S
C296 C298 1.348 . S
C296 C299 1.356 . S
C296 O326 1.325 . S
N297 C300 1.314 . S
N297 C301 1.279 . S
C298 C296 1.348 . S
C298 C300 1.353 . S
C298 H340 0.929 . S
C299 C296 1.356 . S
C299 C301 1.358 . S
C299 H341 0.930 . S
C300 N297 1.314 . S
C300 C298 1.353 . S
C300 H342 0.930 . S
C301 N297 1.279 . S
C301 C299 1.358 . S
C301 H343 0.930 . S
C302 C303 1.348 . S
C302 C304 1.356 . S
C302 O327 1.325 . S
C303 C302 1.348 . S
C303 C305 1.353 . S
C303 H344 0.929 . S
C304 C302 1.356 . S
C304 C306 1.358 . S
C304 H345 0.930 . S
C305 C303 1.353 . S
C305 N307 1.314 . S
C305 H346 0.930 . S
C306 C304 1.358 . S
C306 N307 1.279 . S
C306 H347 0.930 . S
N307 C305 1.314 . S
N307 C306 1.279 . S
C308 C310 1.353 . S
C308 N311 1.314 . S
C308 H314 0.930 . S
C309 N311 1.279 . S
C309 C312 1.358 . S
C309 H315 0.930 . S
C310 C308 1.353 . S
C310 C313 1.348 . S
C310 H348 0.929 . S
N311 Li266 1.990 . S
N311 C308 1.314 . S
N311 C309 1.279 . S
C312 C309 1.358 . S
C312 C313 1.356 . S
C312 H349 0.930 . S
C313 C310 1.348 . S
C313 C312 1.356 . S
H314 C308 0.930 . S
H315 C309 0.930 . S
C316 N317 1.314 . S
C316 C318 1.353 . S
C316 H322 0.930 . S
N317 Li267 1.990 . S
N317 C316 1.314 . S
N317 C320 1.279 . S
C318 C316 1.353 . S
C318 C321 1.348 . S
C318 H350 0.929 . S
C319 C320 1.358 . S
C319 C321 1.356 . S
C319 H351 0.930 . S
C320 N317 1.279 . S
C320 C319 1.358 . S
C320 H323 0.930 . S
C321 C318 1.348 . S
C321 C319 1.356 . S
H322 C316 0.930 . S
H323 C320 0.930 . S
O324 Li264 1.956 . S
O324 Li265 1.970 . S
O324 Li266 1.961 . S
O324 C268 1.325 . S
O325 Li264 1.970 . S
O325 Li265 1.956 . S
O325 Li267 1.961 . S
O325 C274 1.325 . S
O326 Li264 1.961 . S
O326 Li266 1.956 . S
O326 Li267 1.970 . S
O326 C296 1.325 . S
O327 Li265 1.961 . S
O327 Li266 1.970 . S
O327 Li267 1.956 . S
O327 C302 1.325 . S
H328 C270 0.929 . S
H329 C271 0.930 . S
H330 C272 0.930 . S
H331 C273 0.930 . S
H332 C275 0.930 . S
H333 C277 0.929 . S
H334 C278 0.930 . S
H335 C279 0.930 . S
H336 C282 0.930 . S
H337 C285 0.929 . S
H338 C290 0.929 . S
H339 C291 0.930 . S
H340 C298 0.929 . S
H341 C299 0.930 . S
H342 C300 0.930 . S
H343 C301 0.930 . S
H344 C303 0.929 . S
H345 C304 0.930 . S
H346 C305 0.930 . S
H347 C306 0.930 . S
H348 C310 0.929 . S
H349 C312 0.930 . S
H350 C318 0.929 . S
H351 C319 0.930 . S
Li352 N369 1.990 . S
Li352 O412 1.956 . S
Li352 O413 1.970 . S
Li352 O414 1.961 . S
Li353 N377 1.990 . S
Li353 O412 1.970 . S
Li353 O413 1.956 . S
Li353 O415 1.961 . S
Li354 N399 1.990 . S
Li354 O412 1.961 . S
Li354 O414 1.956 . S
Li354 O415 1.970 . S
Li355 N405 1.990 . S
Li355 O413 1.961 . S
Li355 O414 1.970 . S
Li355 O415 1.956 . S
C356 C358 1.348 . S
C356 C359 1.356 . S
C356 O412 1.325 . S
N357 C360 1.314 . S
N357 C361 1.279 . S
C358 C356 1.348 . S
C358 C360 1.353 . S
C358 H416 0.929 . S
C359 C356 1.356 . S
C359 C361 1.358 . S
C359 H417 0.930 . S
C360 N357 1.314 . S
C360 C358 1.353 . S
C360 H418 0.930 . S
C361 N357 1.279 . S
C361 C359 1.358 . S
C361 H419 0.930 . S
C362 C365 1.348 . S
C362 C366 1.356 . S
C362 O413 1.325 . S
C363 N364 1.279 . S
C363 C366 1.358 . S
C363 H420 0.930 . S
N364 C363 1.279 . S
N364 C367 1.314 . S
C365 C362 1.348 . S
C365 C367 1.353 . S
C365 H421 0.929 . S
C366 C362 1.356 . S
C366 C363 1.358 . S
C366 H422 0.930 . S
C367 N364 1.314 . S
C367 C365 1.353 . S
C367 H423 0.930 . S
C368 N369 1.314 . S
C368 C373 1.353 . S
C368 H374 0.930 . S
N369 Li352 1.990 . S
N369 C368 1.314 . S
N369 C371 1.279 . S
C370 C371 1.358 . S
C370 C372 1.356 . S
C370 H424 0.930 . S
C371 N369 1.279 . S
C371 C370 1.358 . S
C371 H375 0.930 . S
C372 C370 1.356 . S
C372 C373 1.348 . S
C373 C368 1.353 . S
C373 C372 1.348 . S
C373 H425 0.929 . S
H374 C368 0.930 . S
H375 C371 0.930 . S
C376 N377 1.314 . S
C376 C378 1.353 . S
C376 H382 0.930 . S
N377 Li353 1.990 . S
N377 C376 1.314 . S
N377 C380 1.279 . S
C378 C376 1.353 . S
C378 C381 1.348 . S
C378 H426 0.929 . S
C379 C380 1.358 . S
C379 C381 1.356 . S
C379 H427 0.930 . S
C380 N377 1.279 . S
C380 C379 1.358 . S
C380 H383 0.930 . S
C381 C378 1.348 . S
C381 C379 1.356 . S
H382 C376 0.930 . S
H383 C380 0.930 . S
C384 C386 1.348 . S
C384 C387 1.356 . S
C384 O414 1.325 . S
N385 C388 1.314 . S
N385 C389 1.279 . S
C386 C384 1.348 . S
C386 C388 1.353 . S
C386 H428 0.929 . S
C387 C384 1.356 . S
C387 C389 1.358 . S
C387 H429 0.930 . S
C388 N385 1.314 . S
C388 C386 1.353 . S
C388 H430 0.930 . S
C389 N385 1.279 . S
C389 C387 1.358 . S
C389 H431 0.930 . S
C390 C391 1.348 . S
C390 C392 1.356 . S
C390 O415 1.325 . S
C391 C390 1.348 . S
C391 C393 1.353 . S
C391 H432 0.929 . S
C392 C390 1.356 . S
C392 C394 1.358 . S
C392 H433 0.930 . S
C393 C391 1.353 . S
C393 N395 1.314 . S
C393 H434 0.930 . S
C394 C392 1.358 . S
C394 N395 1.279 . S
C394 H435 0.930 . S
N395 C393 1.314 . S
N395 C394 1.279 . S
C396 C398 1.353 . S
C396 N399 1.314 . S
C396 H402 0.930 . S
C397 N399 1.279 . S
C397 C400 1.358 . S
C397 H403 0.930 . S
C398 C396 1.353 . S
C398 C401 1.348 . S
C398 H436 0.929 . S
N399 Li354 1.990 . S
N399 C396 1.314 . S
N399 C397 1.279 . S
C400 C397 1.358 . S
C400 C401 1.356 . S
C400 H437 0.930 . S
C401 C398 1.348 . S
C401 C400 1.356 . S
H402 C396 0.930 . S
H403 C397 0.930 . S
C404 N405 1.314 . S
C404 C406 1.353 . S
C404 H410 0.930 . S
N405 Li355 1.990 . S
N405 C404 1.314 . S
N405 C408 1.279 . S
C406 C404 1.353 . S
C406 C409 1.348 . S
C406 H438 0.929 . S
C407 C408 1.358 . S
C407 C409 1.356 . S
C407 H439 0.930 . S
C408 N405 1.279 . S
C408 C407 1.358 . S
C408 H411 0.930 . S
C409 C406 1.348 . S
C409 C407 1.356 . S
H410 C404 0.930 . S
H411 C408 0.930 . S
O412 Li352 1.956 . S
O412 Li353 1.970 . S
O412 Li354 1.961 . S
O412 C356 1.325 . S
O413 Li352 1.970 . S
O413 Li353 1.956 . S
O413 Li355 1.961 . S
O413 C362 1.325 . S
O414 Li352 1.961 . S
O414 Li354 1.956 . S
O414 Li355 1.970 . S
O414 C384 1.325 . S
O415 Li353 1.961 . S
O415 Li354 1.970 . S
O415 Li355 1.956 . S
O415 C390 1.325 . S
H416 C358 0.929 . S
H417 C359 0.930 . S
H418 C360 0.930 . S
H419 C361 0.930 . S
H420 C363 0.930 . S
H421 C365 0.929 . S
H422 C366 0.930 . S
H423 C367 0.930 . S
H424 C370 0.930 . S
H425 C373 0.929 . S
H426 C378 0.929 . S
H427 C379 0.930 . S
H428 C386 0.929 . S
H429 C387 0.930 . S
H430 C388 0.930 . S
H431 C389 0.930 . S
H432 C391 0.929 . S
H433 C392 0.930 . S
H434 C393 0.930 . S
H435 C394 0.930 . S
H436 C398 0.929 . S
H437 C400 0.930 . S
H438 C406 0.929 . S
H439 C407 0.930 . S
Li440 N457 1.990 . S
Li440 O500 1.956 . S
Li440 O501 1.970 . S
Li440 O502 1.961 . S
Li441 N465 1.990 . S
Li441 O500 1.970 . S
Li441 O501 1.956 . S
Li441 O503 1.961 . S
Li442 N487 1.990 . S
Li442 O500 1.961 . S
Li442 O502 1.956 . S
Li442 O503 1.970 . S
Li443 N493 1.990 . S
Li443 O501 1.961 . S
Li443 O502 1.970 . S
Li443 O503 1.956 . S
C444 C446 1.348 . S
C444 C447 1.356 . S
C444 O500 1.325 . S
N445 C448 1.314 . S
N445 C449 1.279 . S
C446 C444 1.348 . S
C446 C448 1.353 . S
C446 H504 0.929 . S
C447 C444 1.356 . S
C447 C449 1.358 . S
C447 H505 0.930 . S
C448 N445 1.314 . S
C448 C446 1.353 . S
C448 H506 0.930 . S
C449 N445 1.279 . S
C449 C447 1.358 . S
C449 H507 0.930 . S
C450 C453 1.348 . S
C450 C454 1.356 . S
C450 O501 1.325 . S
C451 N452 1.279 . S
C451 C454 1.358 . S
C451 H508 0.930 . S
N452 C451 1.279 . S
N452 C455 1.314 . S
C453 C450 1.348 . S
C453 C455 1.353 . S
C453 H509 0.929 . S
C454 C450 1.356 . S
C454 C451 1.358 . S
C454 H510 0.930 . S
C455 N452 1.314 . S
C455 C453 1.353 . S
C455 H511 0.930 . S
C456 N457 1.314 . S
C456 C461 1.353 . S
C456 H462 0.930 . S
N457 Li440 1.990 . S
N457 C456 1.314 . S
N457 C459 1.279 . S
C458 C459 1.358 . S
C458 C460 1.356 . S
C458 H512 0.930 . S
C459 N457 1.279 . S
C459 C458 1.358 . S
C459 H463 0.930 . S
C460 C458 1.356 . S
C460 C461 1.348 . S
C461 C456 1.353 . S
C461 C460 1.348 . S
C461 H513 0.929 . S
H462 C456 0.930 . S
H463 C459 0.930 . S
C464 N465 1.314 . S
C464 C466 1.353 . S
C464 H470 0.930 . S
N465 Li441 1.990 . S
N465 C464 1.314 . S
N465 C468 1.279 . S
C466 C464 1.353 . S
C466 C469 1.348 . S
C466 H514 0.929 . S
C467 C468 1.358 . S
C467 C469 1.356 . S
C467 H515 0.930 . S
C468 N465 1.279 . S
C468 C467 1.358 . S
C468 H471 0.930 . S
C469 C466 1.348 . S
C469 C467 1.356 . S
H470 C464 0.930 . S
H471 C468 0.930 . S
C472 C474 1.348 . S
C472 C475 1.356 . S
C472 O502 1.325 . S
N473 C476 1.314 . S
N473 C477 1.279 . S
C474 C472 1.348 . S
C474 C476 1.353 . S
C474 H516 0.929 . S
C475 C472 1.356 . S
C475 C477 1.358 . S
C475 H517 0.930 . S
C476 N473 1.314 . S
C476 C474 1.353 . S
C476 H518 0.930 . S
C477 N473 1.279 . S
C477 C475 1.358 . S
C477 H519 0.930 . S
C478 C479 1.348 . S
C478 C480 1.356 . S
C478 O503 1.325 . S
C479 C478 1.348 . S
C479 C481 1.353 . S
C479 H520 0.929 . S
C480 C478 1.356 . S
C480 C482 1.358 . S
C480 H521 0.930 . S
C481 C479 1.353 . S
C481 N483 1.314 . S
C481 H522 0.930 . S
C482 C480 1.358 . S
C482 N483 1.279 . S
C482 H523 0.930 . S
N483 C481 1.314 . S
N483 C482 1.279 . S
C484 C486 1.353 . S
C484 N487 1.314 . S
C484 H490 0.930 . S
C485 N487 1.279 . S
C485 C488 1.358 . S
C485 H491 0.930 . S
C486 C484 1.353 . S
C486 C489 1.348 . S
C486 H524 0.929 . S
N487 Li442 1.990 . S
N487 C484 1.314 . S
N487 C485 1.279 . S
C488 C485 1.358 . S
C488 C489 1.356 . S
C488 H525 0.930 . S
C489 C486 1.348 . S
C489 C488 1.356 . S
H490 C484 0.930 . S
H491 C485 0.930 . S
C492 N493 1.314 . S
C492 C494 1.353 . S
C492 H498 0.930 . S
N493 Li443 1.990 . S
N493 C492 1.314 . S
N493 C496 1.279 . S
C494 C492 1.353 . S
C494 C497 1.348 . S
C494 H526 0.929 . S
C495 C496 1.358 . S
C495 C497 1.356 . S
C495 H527 0.930 . S
C496 N493 1.279 . S
C496 C495 1.358 . S
C496 H499 0.930 . S
C497 C494 1.348 . S
C497 C495 1.356 . S
H498 C492 0.930 . S
H499 C496 0.930 . S
O500 Li440 1.956 . S
O500 Li441 1.970 . S
O500 Li442 1.961 . S
O500 C444 1.325 . S
O501 Li440 1.970 . S
O501 Li441 1.956 . S
O501 Li443 1.961 . S
O501 C450 1.325 . S
O502 Li440 1.961 . S
O502 Li442 1.956 . S
O502 Li443 1.970 . S
O502 C472 1.325 . S
O503 Li441 1.961 . S
O503 Li442 1.970 . S
O503 Li443 1.956 . S
O503 C478 1.325 . S
H504 C446 0.929 . S
H505 C447 0.930 . S
H506 C448 0.930 . S
H507 C449 0.930 . S
H508 C451 0.930 . S
H509 C453 0.929 . S
H510 C454 0.930 . S
H511 C455 0.930 . S
H512 C458 0.930 . S
H513 C461 0.929 . S
H514 C466 0.929 . S
H515 C467 0.930 . S
H516 C474 0.929 . S
H517 C475 0.930 . S
H518 C476 0.930 . S
H519 C477 0.930 . S
H520 C479 0.929 . S
H521 C480 0.930 . S
H522 C481 0.930 . S
H523 C482 0.930 . S
H524 C486 0.929 . S
H525 C488 0.930 . S
H526 C494 0.929 . S
H527 C495 0.930 . S
C528 C529 1.349 . S
C528 C530 1.327 . S
C528 H553 0.950 . S
C529 C528 1.349 . S
C529 C545 1.349 . S
C530 C528 1.327 . S
C530 C549 1.429 . S
C530 H554 0.950 . S
C531 C548 1.574 . S
C531 C550 1.368 . S
C531 H555 0.949 . S
H532 C536 0.949 . S
C533 C534 1.349 . S
C533 C535 1.327 . S
C533 H556 0.950 . S
C534 C533 1.349 . S
C534 C546 1.349 . S
C535 C533 1.327 . S
C535 C551 1.429 . S
C535 H557 0.950 . S
C536 H532 0.949 . S
C536 C544 1.574 . S
C536 C552 1.368 . S
H537 C545 0.950 . S
H538 C543 0.950 . S
H539 C544 0.949 . S
H540 C546 0.950 . S
H541 C547 0.950 . S
H542 C548 0.949 . S
C543 H538 0.950 . S
C543 C545 1.327 . S
C543 C549 1.429 . S
C544 C536 1.574 . S
C544 H539 0.949 . S
C544 C550 1.368 . S
C545 C529 1.349 . S
C545 H537 0.950 . S
C545 C543 1.327 . S
C546 C534 1.349 . S
C546 H540 0.950 . S
C546 C547 1.327 . S
C547 H541 0.950 . S
C547 C546 1.327 . S
C547 C551 1.429 . S
C548 C531 1.574 . S
C548 H542 0.949 . S
C548 C552 1.368 . S
C549 C530 1.429 . S
C549 C543 1.429 . S
C549 C550 1.523 . S
C550 C531 1.368 . S
C550 C544 1.368 . S
C550 C549 1.523 . S
C551 C535 1.429 . S
C551 C547 1.429 . S
C551 C552 1.523 . S
C552 C536 1.368 . S
C552 C548 1.368 . S
C552 C551 1.523 . S
H553 C528 0.950 . S
H554 C530 0.950 . S
H555 C531 0.949 . S
H556 C533 0.950 . S
H557 C535 0.950 . S
C558 C559 1.349 . S
C558 C560 1.327 . S
C558 H583 0.950 . S
C559 C558 1.349 . S
C559 C575 1.349 . S
C560 C558 1.327 . S
C560 C579 1.429 . S
C560 H584 0.950 . S
C561 C578 1.574 . S
C561 C580 1.368 . S
C561 H585 0.949 . S
H562 C566 0.949 . S
C563 C564 1.349 . S
C563 C565 1.327 . S
C563 H586 0.950 . S
C564 C563 1.349 . S
C564 C576 1.349 . S
C565 C563 1.327 . S
C565 C581 1.429 . S
C565 H587 0.950 . S
C566 H562 0.949 . S
C566 C574 1.574 . S
C566 C582 1.368 . S
H567 C575 0.950 . S
H568 C573 0.950 . S
H569 C574 0.949 . S
H570 C576 0.950 . S
H571 C577 0.950 . S
H572 C578 0.949 . S
C573 H568 0.950 . S
C573 C575 1.327 . S
C573 C579 1.429 . S
C574 C566 1.574 . S
C574 H569 0.949 . S
C574 C580 1.368 . S
C575 C559 1.349 . S
C575 H567 0.950 . S
C575 C573 1.327 . S
C576 C564 1.349 . S
C576 H570 0.950 . S
C576 C577 1.327 . S
C577 H571 0.950 . S
C577 C576 1.327 . S
C577 C581 1.429 . S
C578 C561 1.574 . S
C578 H572 0.949 . S
C578 C582 1.368 . S
C579 C560 1.429 . S
C579 C573 1.429 . S
C579 C580 1.523 . S
C580 C561 1.368 . S
C580 C574 1.368 . S
C580 C579 1.523 . S
C581 C565 1.429 . S
C581 C577 1.429 . S
C581 C582 1.523 . S
C582 C566 1.368 . S
C582 C578 1.368 . S
C582 C581 1.523 . S
H583 C558 0.950 . S
H584 C560 0.950 . S
H585 C561 0.949 . S
H586 C563 0.950 . S
H587 C565 0.950 . S
C588 C589 1.349 . S
C588 C590 1.327 . S
C588 H613 0.950 . S
C589 C588 1.349 . S
C589 C605 1.349 . S
C590 C588 1.327 . S
C590 C609 1.429 . S
C590 H614 0.950 . S
C591 C608 1.574 . S
C591 C610 1.368 . S
C591 H615 0.949 . S
H592 C596 0.949 . S
C593 C594 1.349 . S
C593 C595 1.327 . S
C593 H616 0.950 . S
C594 C593 1.349 . S
C594 C606 1.349 . S
C595 C593 1.327 . S
C595 C611 1.429 . S
C595 H617 0.950 . S
C596 H592 0.949 . S
C596 C604 1.574 . S
C596 C612 1.368 . S
H597 C605 0.950 . S
H598 C603 0.950 . S
H599 C604 0.949 . S
H600 C606 0.950 . S
H601 C607 0.950 . S
H602 C608 0.949 . S
C603 H598 0.950 . S
C603 C605 1.327 . S
C603 C609 1.429 . S
C604 C596 1.574 . S
C604 H599 0.949 . S
C604 C610 1.368 . S
C605 C589 1.349 . S
C605 H597 0.950 . S
C605 C603 1.327 . S
C606 C594 1.349 . S
C606 H600 0.950 . S
C606 C607 1.327 . S
C607 H601 0.950 . S
C607 C606 1.327 . S
C607 C611 1.429 . S
C608 C591 1.574 . S
C608 H602 0.949 . S
C608 C612 1.368 . S
C609 C590 1.429 . S
C609 C603 1.429 . S
C609 C610 1.523 . S
C610 C591 1.368 . S
C610 C604 1.368 . S
C610 C609 1.523 . S
C611 C595 1.429 . S
C611 C607 1.429 . S
C611 C612 1.523 . S
C612 C596 1.368 . S
C612 C608 1.368 . S
C612 C611 1.523 . S
H613 C588 0.950 . S
H614 C590 0.950 . S
H615 C591 0.949 . S
H616 C593 0.950 . S
H617 C595 0.950 . S
C618 C619 1.349 . S
C618 C620 1.327 . S
C618 H643 0.950 . S
C619 C618 1.349 . S
C619 C635 1.349 . S
C620 C618 1.327 . S
C620 C639 1.429 . S
C620 H644 0.950 . S
C621 C638 1.574 . S
C621 C640 1.368 . S
C621 H645 0.949 . S
H622 C626 0.949 . S
C623 C624 1.349 . S
C623 C625 1.327 . S
C623 H646 0.950 . S
C624 C623 1.349 . S
C624 C636 1.349 . S
C625 C623 1.327 . S
C625 C641 1.429 . S
C625 H647 0.950 . S
C626 H622 0.949 . S
C626 C634 1.574 . S
C626 C642 1.368 . S
H627 C635 0.950 . S
H628 C633 0.950 . S
H629 C634 0.949 . S
H630 C636 0.950 . S
H631 C637 0.950 . S
H632 C638 0.949 . S
C633 H628 0.950 . S
C633 C635 1.327 . S
C633 C639 1.429 . S
C634 C626 1.574 . S
C634 H629 0.949 . S
C634 C640 1.368 . S
C635 C619 1.349 . S
C635 H627 0.950 . S
C635 C633 1.327 . S
C636 C624 1.349 . S
C636 H630 0.950 . S
C636 C637 1.327 . S
C637 H631 0.950 . S
C637 C636 1.327 . S
C637 C641 1.429 . S
C638 C621 1.574 . S
C638 H632 0.949 . S
C638 C642 1.368 . S
C639 C620 1.429 . S
C639 C633 1.429 . S
C639 C640 1.523 . S
C640 C621 1.368 . S
C640 C634 1.368 . S
C640 C639 1.523 . S
C641 C625 1.429 . S
C641 C637 1.429 . S
C641 C642 1.523 . S
C642 C626 1.368 . S
C642 C638 1.368 . S
C642 C641 1.523 . S
H643 C618 0.950 . S
H644 C620 0.950 . S
H645 C621 0.949 . S
H646 C623 0.950 . S
H647 C625 0.950 . S
C648 C649 1.349 . S
C648 C650 1.327 . S
C648 H673 0.950 . S
C649 C648 1.349 . S
C649 C665 1.349 . S
C650 C648 1.327 . S
C650 C669 1.429 . S
C650 H674 0.950 . S
C651 C668 1.574 . S
C651 C670 1.368 . S
C651 H675 0.949 . S
H652 C656 0.949 . S
C653 C654 1.349 . S
C653 C655 1.327 . S
C653 H676 0.950 . S
C654 C653 1.349 . S
C654 C666 1.349 . S
C655 C653 1.327 . S
C655 C671 1.429 . S
C655 H677 0.950 . S
C656 H652 0.949 . S
C656 C664 1.574 . S
C656 C672 1.368 . S
H657 C665 0.950 . S
H658 C663 0.950 . S
H659 C664 0.949 . S
H660 C666 0.950 . S
H661 C667 0.950 . S
H662 C668 0.949 . S
C663 H658 0.950 . S
C663 C665 1.327 . S
C663 C669 1.429 . S
C664 C656 1.574 . S
C664 H659 0.949 . S
C664 C670 1.368 . S
C665 C649 1.349 . S
C665 H657 0.950 . S
C665 C663 1.327 . S
C666 C654 1.349 . S
C666 H660 0.950 . S
C666 C667 1.327 . S
C667 H661 0.950 . S
C667 C666 1.327 . S
C667 C671 1.429 . S
C668 C651 1.574 . S
C668 H662 0.949 . S
C668 C672 1.368 . S
C669 C650 1.429 . S
C669 C663 1.429 . S
C669 C670 1.523 . S
C670 C651 1.368 . S
C670 C664 1.368 . S
C670 C669 1.523 . S
C671 C655 1.429 . S
C671 C667 1.429 . S
C671 C672 1.523 . S
C672 C656 1.368 . S
C672 C668 1.368 . S
C672 C671 1.523 . S
H673 C648 0.950 . S
H674 C650 0.950 . S
H675 C651 0.949 . S
H676 C653 0.950 . S
H677 C655 0.950 . S
C678 C679 1.349 . S
C678 C680 1.327 . S
C678 H703 0.950 . S
C679 C678 1.349 . S
C679 C695 1.349 . S
C680 C678 1.327 . S
C680 C699 1.429 . S
C680 H704 0.950 . S
C681 C698 1.574 . S
C681 C700 1.368 . S
C681 H705 0.949 . S
H682 C686 0.949 . S
C683 C684 1.349 . S
C683 C685 1.327 . S
C683 H706 0.950 . S
C684 C683 1.349 . S
C684 C696 1.349 . S
C685 C683 1.327 . S
C685 C701 1.429 . S
C685 H707 0.950 . S
C686 H682 0.949 . S
C686 C694 1.574 . S
C686 C702 1.368 . S
H687 C695 0.950 . S
H688 C693 0.950 . S
H689 C694 0.949 . S
H690 C696 0.950 . S
H691 C697 0.950 . S
H692 C698 0.949 . S
C693 H688 0.950 . S
C693 C695 1.327 . S
C693 C699 1.429 . S
C694 C686 1.574 . S
C694 H689 0.949 . S
C694 C700 1.368 . S
C695 C679 1.349 . S
C695 H687 0.950 . S
C695 C693 1.327 . S
C696 C684 1.349 . S
C696 H690 0.950 . S
C696 C697 1.327 . S
C697 H691 0.950 . S
C697 C696 1.327 . S
C697 C701 1.429 . S
C698 C681 1.574 . S
C698 H692 0.949 . S
C698 C702 1.368 . S
C699 C680 1.429 . S
C699 C693 1.429 . S
C699 C700 1.523 . S
C700 C681 1.368 . S
C700 C694 1.368 . S
C700 C699 1.523 . S
C701 C685 1.429 . S
C701 C697 1.429 . S
C701 C702 1.523 . S
C702 C686 1.368 . S
C702 C698 1.368 . S
C702 C701 1.523 . S
H703 C678 0.950 . S
H704 C680 0.950 . S
H705 C681 0.949 . S
H706 C683 0.950 . S
H707 C685 0.950 . S
C708 C709 1.349 . S
C708 C710 1.327 . S
C708 H733 0.950 . S
C709 C708 1.349 . S
C709 C725 1.349 . S
C710 C708 1.327 . S
C710 C729 1.429 . S
C710 H734 0.950 . S
C711 C728 1.574 1_556 S
C711 C730 1.368 1_545 S
C711 H735 0.949 . S
H712 C716 0.949 . S
C713 C714 1.349 . S
C713 C715 1.327 . S
C713 H736 0.950 . S
C714 C713 1.349 . S
C714 C726 1.349 . S
C715 C713 1.327 . S
C715 C731 1.429 . S
C715 H737 0.950 . S
C716 H712 0.949 . S
C716 C724 1.574 1_554 S
C716 C732 1.368 1_565 S
H717 C725 0.950 . S
H718 C723 0.950 . S
H719 C724 0.949 . S
H720 C726 0.950 . S
H721 C727 0.950 . S
H722 C728 0.949 . S
C723 H718 0.950 . S
C723 C725 1.327 . S
C723 C729 1.429 . S
C724 C716 1.574 1_556 S
C724 H719 0.949 . S
C724 C730 1.368 . S
C725 C709 1.349 . S
C725 H717 0.950 . S
C725 C723 1.327 . S
C726 C714 1.349 . S
C726 H720 0.950 . S
C726 C727 1.327 . S
C727 H721 0.950 . S
C727 C726 1.327 . S
C727 C731 1.429 . S
C728 C711 1.574 1_554 S
C728 H722 0.949 . S
C728 C732 1.368 . S
C729 C710 1.429 . S
C729 C723 1.429 . S
C729 C730 1.523 . S
C730 C711 1.368 1_565 S
C730 C724 1.368 . S
C730 C729 1.523 . S
C731 C715 1.429 . S
C731 C727 1.429 . S
C731 C732 1.523 . S
C732 C716 1.368 1_545 S
C732 C728 1.368 . S
C732 C731 1.523 . S
H733 C708 0.950 . S
H734 C710 0.950 . S
H735 C711 0.949 . S
H736 C713 0.950 . S
H737 C715 0.950 . S
C738 C739 1.349 . S
C738 C740 1.327 . S
C738 H763 0.950 . S
C739 C738 1.349 . S
C739 C755 1.349 . S
C740 C738 1.327 . S
C740 C759 1.429 . S
C740 H764 0.950 . S
C741 C758 1.574 . S
C741 C760 1.368 . S
C741 H765 0.949 . S
H742 C746 0.949 . S
C743 C744 1.349 . S
C743 C745 1.327 . S
C743 H766 0.950 . S
C744 C743 1.349 . S
C744 C756 1.349 . S
C745 C743 1.327 . S
C745 C761 1.429 . S
C745 H767 0.950 . S
C746 H742 0.949 . S
C746 C754 1.574 . S
C746 C762 1.368 . S
H747 C755 0.950 . S
H748 C753 0.950 . S
H749 C754 0.949 . S
H750 C756 0.950 . S
H751 C757 0.950 . S
H752 C758 0.949 . S
C753 H748 0.950 . S
C753 C755 1.327 . S
C753 C759 1.429 . S
C754 C746 1.574 . S
C754 H749 0.949 . S
C754 C760 1.368 . S
C755 C739 1.349 . S
C755 H747 0.950 . S
C755 C753 1.327 . S
C756 C744 1.349 . S
C756 H750 0.950 . S
C756 C757 1.327 . S
C757 H751 0.950 . S
C757 C756 1.327 . S
C757 C761 1.429 . S
C758 C741 1.574 . S
C758 H752 0.949 . S
C758 C762 1.368 . S
C759 C740 1.429 . S
C759 C753 1.429 . S
C759 C760 1.523 . S
C760 C741 1.368 . S
C760 C754 1.368 . S
C760 C759 1.523 . S
C761 C745 1.429 . S
C761 C757 1.429 . S
C761 C762 1.523 . S
C762 C746 1.368 . S
C762 C758 1.368 . S
C762 C761 1.523 . S
H763 C738 0.950 . S
H764 C740 0.950 . S
H765 C741 0.949 . S
H766 C743 0.950 . S
H767 C745 0.950 . S
C768 C769 1.349 . S
C768 C770 1.327 . S
C768 H793 0.950 . S
C769 C768 1.349 . S
C769 C785 1.349 . S
C770 C768 1.327 . S
C770 C789 1.429 . S
C770 H794 0.950 . S
C771 C788 1.574 1_456 S
C771 C790 1.368 . S
C771 H795 0.949 . S
H772 C776 0.949 . S
C773 C774 1.349 . S
C773 C775 1.327 . S
C773 H796 0.950 . S
C774 C773 1.349 . S
C774 C786 1.349 . S
C775 C773 1.327 . S
C775 C791 1.429 . S
C775 H797 0.950 . S
C776 H772 0.949 . S
C776 C784 1.574 1_654 S
C776 C792 1.368 . S
H777 C785 0.950 . S
H778 C783 0.950 . S
H779 C784 0.949 . S
H780 C786 0.950 . S
H781 C787 0.950 . S
H782 C788 0.949 . S
C783 H778 0.950 . S
C783 C785 1.327 . S
C783 C789 1.429 . S
C784 C776 1.574 1_456 S
C784 H779 0.949 . S
C784 C790 1.368 . S
C785 C769 1.349 . S
C785 H777 0.950 . S
C785 C783 1.327 . S
C786 C774 1.349 . S
C786 H780 0.950 . S
C786 C787 1.327 . S
C787 H781 0.950 . S
C787 C786 1.327 . S
C787 C791 1.429 . S
C788 C771 1.574 1_654 S
C788 H782 0.949 . S
C788 C792 1.368 . S
C789 C770 1.429 . S
C789 C783 1.429 . S
C789 C790 1.523 . S
C790 C771 1.368 . S
C790 C784 1.368 . S
C790 C789 1.523 . S
C791 C775 1.429 . S
C791 C787 1.429 . S
C791 C792 1.523 . S
C792 C776 1.368 . S
C792 C788 1.368 . S
C792 C791 1.523 . S
H793 C768 0.950 . S
H794 C770 0.950 . S
H795 C771 0.949 . S
H796 C773 0.950 . S
H797 C775 0.950 . S
C798 C799 1.349 . S
C798 C800 1.327 . S
C798 H823 0.950 . S
C799 C798 1.349 . S
C799 C815 1.349 . S
C800 C798 1.327 . S
C800 C819 1.429 . S
C800 H824 0.950 . S
C801 C818 1.574 . S
C801 C820 1.368 1_565 S
C801 H825 0.949 . S
H802 C806 0.949 . S
C803 C804 1.349 . S
C803 C805 1.327 . S
C803 H826 0.950 . S
C804 C803 1.349 . S
C804 C816 1.349 . S
C805 C803 1.327 . S
C805 C821 1.429 . S
C805 H827 0.950 . S
C806 H802 0.949 . S
C806 C814 1.574 . S
C806 C822 1.368 1_545 S
H807 C815 0.950 . S
H808 C813 0.950 1_565 S
H809 C814 0.949 . S
H810 C816 0.950 . S
H811 C817 0.950 1_545 S
H812 C818 0.949 . S
C813 H808 0.950 1_545 S
C813 C815 1.327 . S
C813 C819 1.429 . S
C814 C806 1.574 . S
C814 H809 0.949 . S
C814 C820 1.368 . S
C815 C799 1.349 . S
C815 H807 0.950 . S
C815 C813 1.327 . S
C816 C804 1.349 . S
C816 H810 0.950 . S
C816 C817 1.327 . S
C817 H811 0.950 1_565 S
C817 C816 1.327 . S
C817 C821 1.429 . S
C818 C801 1.574 . S
C818 H812 0.949 . S
C818 C822 1.368 . S
C819 C800 1.429 . S
C819 C813 1.429 . S
C819 C820 1.523 . S
C820 C801 1.368 1_545 S
C820 C814 1.368 . S
C820 C819 1.523 . S
C821 C805 1.429 . S
C821 C817 1.429 . S
C821 C822 1.523 . S
C822 C806 1.368 1_565 S
C822 C818 1.368 . S
C822 C821 1.523 . S
H823 C798 0.950 . S
H824 C800 0.950 . S
H825 C801 0.949 . S
H826 C803 0.950 . S
H827 C805 0.950 . S
C828 C829 1.349 . S
C828 C830 1.327 . S
C828 H853 0.950 . S
C829 C828 1.349 . S
C829 C845 1.349 . S
C830 C828 1.327 . S
C830 C849 1.429 . S
C830 H854 0.950 . S
C831 C848 1.574 1_556 S
C831 C850 1.368 . S
C831 H855 0.949 . S
H832 C836 0.949 . S
C833 C834 1.349 . S
C833 C835 1.327 . S
C833 H856 0.950 . S
C834 C833 1.349 . S
C834 C846 1.349 . S
C835 C833 1.327 . S
C835 C851 1.429 . S
C835 H857 0.950 . S
C836 H832 0.949 . S
C836 C844 1.574 1_554 S
C836 C852 1.368 . S
H837 C845 0.950 . S
H838 C843 0.950 . S
H839 C844 0.949 . S
H840 C846 0.950 . S
H841 C847 0.950 . S
H842 C848 0.949 . S
C843 H838 0.950 . S
C843 C845 1.327 . S
C843 C849 1.429 . S
C844 C836 1.574 1_556 S
C844 H839 0.949 . S
C844 C850 1.368 . S
C845 C829 1.349 . S
C845 H837 0.950 . S
C845 C843 1.327 . S
C846 C834 1.349 . S
C846 H840 0.950 . S
C846 C847 1.327 . S
C847 H841 0.950 . S
C847 C846 1.327 . S
C847 C851 1.429 . S
C848 C831 1.574 1_554 S
C848 H842 0.949 . S
C848 C852 1.368 . S
C849 C830 1.429 . S
C849 C843 1.429 . S
C849 C850 1.523 . S
C850 C831 1.368 . S
C850 C844 1.368 . S
C850 C849 1.523 . S
C851 C835 1.429 . S
C851 C847 1.429 . S
C851 C852 1.523 . S
C852 C836 1.368 . S
C852 C848 1.368 . S
C852 C851 1.523 . S
H853 C828 0.950 . S
H854 C830 0.950 . S
H855 C831 0.949 . S
H856 C833 0.950 . S
H857 C835 0.950 . S
C858 C859 1.349 . S
C858 C860 1.327 . S
C858 H883 0.950 . S
C859 C858 1.349 . S
C859 C875 1.349 . S
C860 C858 1.327 . S
C860 C879 1.429 . S
C860 H884 0.950 1_455 S
C861 C878 1.574 . S
C861 C880 1.368 . S
C861 H885 0.949 . S
H862 C866 0.949 . S
C863 C864 1.349 . S
C863 C865 1.327 . S
C863 H886 0.950 . S
C864 C863 1.349 . S
C864 C876 1.349 . S
C865 C863 1.327 . S
C865 C881 1.429 . S
C865 H887 0.950 1_655 S
C866 H862 0.949 . S
C866 C874 1.574 . S
C866 C882 1.368 . S
H867 C875 0.950 . S
H868 C873 0.950 . S
H869 C874 0.949 . S
H870 C876 0.950 . S
H871 C877 0.950 . S
H872 C878 0.949 . S
C873 H868 0.950 . S
C873 C875 1.327 . S
C873 C879 1.429 . S
C874 C866 1.574 . S
C874 H869 0.949 . S
C874 C880 1.368 1_655 S
C875 C859 1.349 . S
C875 H867 0.950 . S
C875 C873 1.327 . S
C876 C864 1.349 . S
C876 H870 0.950 . S
C876 C877 1.327 . S
C877 H871 0.950 . S
C877 C876 1.327 . S
C877 C881 1.429 . S
C878 C861 1.574 . S
C878 H872 0.949 . S
C878 C882 1.368 1_455 S
C879 C860 1.429 . S
C879 C873 1.429 . S
C879 C880 1.523 . S
C880 C861 1.368 . S
C880 C874 1.368 1_455 S
C880 C879 1.523 . S
C881 C865 1.429 . S
C881 C877 1.429 . S
C881 C882 1.523 . S
C882 C866 1.368 . S
C882 C878 1.368 1_655 S
C882 C881 1.523 . S
H883 C858 0.950 . S
H884 C860 0.950 1_655 S
H885 C861 0.949 . S
H886 C863 0.950 . S
H887 C865 0.950 1_455 S
C529 C20 0.644 . S
C534 C381 0.642 . S
C559 C137 0.646 . S
C564 C469 0.646 . S
C589 C29 0.643 . S
C594 C233 0.642 . S
C619 C313 0.644 . S
C624 C117 0.642 . S
C649 C401 0.646 . S
C654 C196 0.646 . S
C679 C321 0.643 . S
C684 C489 0.642 . S
C709 C293 1.205 . S
C714 C49 1.205 . S
C739 C372 1.215 . S
C744 C145 1.215 . S
C769 C460 1.214 . S
C774 C225 1.214 . S
C799 C57 1.205 . S
C804 C284 1.205 . S
C829 C108 1.215 . S
C834 C409 1.215 . S
C859 C497 1.214 . S
C864 C205 1.214 . S
