# Generated by pormake.
# Topology wfa, (4)-cn, num edge types: 1
# Building blocks:
#     Node 0, Type 0, BuildingBlock: MUDLON_clean_sbu_0, # of connection points: 4
#     Node 1, Type 0, BuildingBlock: MUDLON_clean_sbu_0, # of connection points: 4
#     Node 2, Type 0, BuildingBlock: MUDLON_clean_sbu_0, # of connection points: 4
#     Node 3, Type 0, BuildingBlock: MUDLON_clean_sbu_0, # of connection points: 4
#     Node 4, Type 0, BuildingBlock: MUDLON_clean_sbu_0, # of connection points: 4
#     Node 5, Type 0, BuildingBlock: MUDLON_clean_sbu_0, # of connection points: 4
#     Node 6, Type 0, BuildingBlock: MUDLON_clean_sbu_0, # of connection points: 4
#     Node 7, Type 0, BuildingBlock: MUDLON_clean_sbu_0, # of connection points: 4
#     Node 8, Type 0, BuildingBlock: MUDLON_clean_sbu_0, # of connection points: 4
#     Node 9, Type 0, BuildingBlock: MUDLON_clean_sbu_0, # of connection points: 4
#     Node 10, Type 0, BuildingBlock: MUDLON_clean_sbu_0, # of connection points: 4
#     Node 11, Type 0, BuildingBlock: MUDLON_clean_sbu_0, # of connection points: 4
#     Node 12, Type 0, BuildingBlock: MUDLON_clean_sbu_0, # of connection points: 4
#     Node 13, Type 0, BuildingBlock: MUDLON_clean_sbu_0, # of connection points: 4
#     Node 14, Type 0, BuildingBlock: MUDLON_clean_sbu_0, # of connection points: 4
#     Node 15, Type 0, BuildingBlock: MUDLON_clean_sbu_0, # of connection points: 4
#     Edge 16, Type (0, 0), BuildingBlock: OJICUG_clean_linker_0, # of connection points: 2
#     Edge 17, Type (0, 0), BuildingBlock: OJICUG_clean_linker_0, # of connection points: 2
#     Edge 18, Type (0, 0), BuildingBlock: OJICUG_clean_linker_0, # of connection points: 2
#     Edge 19, Type (0, 0), BuildingBlock: OJICUG_clean_linker_0, # of connection points: 2
#     Edge 20, Type (0, 0), BuildingBlock: OJICUG_clean_linker_0, # of connection points: 2
#     Edge 21, Type (0, 0), BuildingBlock: OJICUG_clean_linker_0, # of connection points: 2
#     Edge 22, Type (0, 0), BuildingBlock: OJICUG_clean_linker_0, # of connection points: 2
#     Edge 23, Type (0, 0), BuildingBlock: OJICUG_clean_linker_0, # of connection points: 2
#     Edge 24, Type (0, 0), BuildingBlock: OJICUG_clean_linker_0, # of connection points: 2
#     Edge 25, Type (0, 0), BuildingBlock: OJICUG_clean_linker_0, # of connection points: 2
#     Edge 26, Type (0, 0), BuildingBlock: OJICUG_clean_linker_0, # of connection points: 2
#     Edge 27, Type (0, 0), BuildingBlock: OJICUG_clean_linker_0, # of connection points: 2
#     Edge 28, Type (0, 0), BuildingBlock: OJICUG_clean_linker_0, # of connection points: 2
#     Edge 29, Type (0, 0), BuildingBlock: OJICUG_clean_linker_0, # of connection points: 2
#     Edge 30, Type (0, 0), BuildingBlock: OJICUG_clean_linker_0, # of connection points: 2
#     Edge 31, Type (0, 0), BuildingBlock: OJICUG_clean_linker_0, # of connection points: 2
#     Edge 32, Type (0, 0), BuildingBlock: OJICUG_clean_linker_0, # of connection points: 2
#     Edge 33, Type (0, 0), BuildingBlock: OJICUG_clean_linker_0, # of connection points: 2
#     Edge 34, Type (0, 0), BuildingBlock: OJICUG_clean_linker_0, # of connection points: 2
#     Edge 35, Type (0, 0), BuildingBlock: OJICUG_clean_linker_0, # of connection points: 2
#     Edge 36, Type (0, 0), BuildingBlock: OJICUG_clean_linker_0, # of connection points: 2
#     Edge 37, Type (0, 0), BuildingBlock: OJICUG_clean_linker_0, # of connection points: 2
#     Edge 38, Type (0, 0), BuildingBlock: OJICUG_clean_linker_0, # of connection points: 2
#     Edge 39, Type (0, 0), BuildingBlock: OJICUG_clean_linker_0, # of connection points: 2
#     Edge 40, Type (0, 0), BuildingBlock: OJICUG_clean_linker_0, # of connection points: 2
#     Edge 41, Type (0, 0), BuildingBlock: OJICUG_clean_linker_0, # of connection points: 2
#     Edge 42, Type (0, 0), BuildingBlock: OJICUG_clean_linker_0, # of connection points: 2
#     Edge 43, Type (0, 0), BuildingBlock: OJICUG_clean_linker_0, # of connection points: 2
#     Edge 44, Type (0, 0), BuildingBlock: OJICUG_clean_linker_0, # of connection points: 2
#     Edge 45, Type (0, 0), BuildingBlock: OJICUG_clean_linker_0, # of connection points: 2
#     Edge 46, Type (0, 0), BuildingBlock: OJICUG_clean_linker_0, # of connection points: 2
#     Edge 47, Type (0, 0), BuildingBlock: OJICUG_clean_linker_0, # of connection points: 2
# Relax obj value: 0.198
# Max RMSD: 0.234
# Mean RMSD: 0.228
data_MOF--net-wfa--node1-MUDLON_clean_sbu_0--edge1-OJICUG_clean_linker_0
_symmetry_space_group_name_H-M    P1
_symmetry_Int_Tables_number       1
_symmetry_cell_setting            triclinic
loop_
_symmetry_equiv_pos_as_xyz
'x, y, z'
_cell_length_a     35.970321
_cell_length_b     36.014111
_cell_length_c     18.206044
_cell_angle_alpha  89.78231
_cell_angle_beta   89.630946
_cell_angle_gamma 89.741708
loop_
_atom_site_label
_atom_site_type_symbol
_atom_site_fract_x
_atom_site_fract_y
_atom_site_fract_z
_atom_type_partial_charge
Mg0 Mg 0.67166 0.03195 0.05972 0.0
C1 C 0.7377 1.01108 0.14486 0.0
O2 O 0.74973 0.03687 0.09941 0.0
C3 C 0.59015 0.02298 0.10004 0.0
O4 O 0.60299 0.03387 0.16377 0.0
C5 C 0.71716 1.00363 0.92997 0.0
O6 O 0.72172 0.97532 0.97478 0.0
O7 O 0.69804 0.03148 0.9514 0.0
O8 O 0.70474 0.99903 0.13658 0.0
O9 O 0.66911 0.08693 0.11039 0.0
C10 C 0.67327 0.08811 0.17984 0.0
O11 O 0.68105 0.05725 0.21511 0.0
O12 O 0.613 0.01717 0.04756 0.0
Mg13 Mg 0.51422 0.67233 0.05645 0.0
C14 C 0.46487 0.66143 0.18091 0.0
O15 O 0.49862 0.66137 0.208 0.0
C16 C 0.53788 0.71784 0.92454 0.0
O17 O 0.56625 0.72389 0.96792 0.0
C18 C 0.5095 0.5925 0.02291 0.0
O19 O 0.47686 0.60589 1.00415 0.0
O20 O 0.53381 0.6149 0.04736 0.0
O21 O 0.46092 0.66604 0.112 0.0
O22 O 0.54263 0.70927 0.13237 0.0
C23 C 0.52366 0.73846 0.14588 0.0
O24 O 0.49413 0.74516 0.10568 0.0
O25 O 0.51131 0.69754 0.94759 0.0
Mg26 Mg 0.85901 0.49746 0.05978 0.0
C27 C 0.83466 0.51662 0.21421 0.0
O28 O 0.86554 0.49845 0.22844 0.0
C29 C 0.94121 0.49485 0.09343 0.0
O30 O 0.9284 0.47223 0.14427 0.0
C31 C 0.79994 0.51955 0.94819 0.0
O32 O 0.78098 0.52753 1.00804 0.0
O33 O 0.83268 0.50637 0.95395 0.0
O34 O 0.82688 0.52395 0.1476 0.0
O35 O 0.86068 0.43921 0.09003 0.0
C36 C 0.84038 0.4258 0.14102 0.0
O37 O 0.80967 0.44334 0.15965 0.0
O38 O 0.91822 0.51166 0.05177 0.0
Mg39 Mg 0.02285 0.86183 0.08229 0.0
C40 C 0.0907 0.84895 0.17973 0.0
O41 O 0.06972 0.82303 0.20883 0.0
C42 C 1.00841 0.84386 0.92103 0.0
O43 O 1.00347 0.87997 0.91673 0.0
C44 C 0.03044 0.94242 0.04211 0.0
O45 O 0.06372 0.92963 0.02571 0.0
O46 O 1.00598 0.91979 0.06609 0.0
O47 O 0.07966 0.86589 0.12225 0.0
O48 O 0.99277 0.83376 0.17037 0.0
C49 C 0.99583 0.79855 0.17217 0.0
O50 O 1.01219 0.78179 0.11662 0.0
O51 O 0.01752 0.82939 0.98218 0.0
Mg52 Mg 0.17248 0.99787 0.48695 0.0
C53 C 0.23916 0.01756 0.40292 0.0
O54 O 0.25006 0.9908 0.44721 0.0
C55 C 0.09141 1.00974 0.44708 0.0
O56 O 0.10481 1.00123 0.38199 0.0
C57 C 0.21688 0.02396 0.61771 0.0
O58 O 0.22058 0.05308 0.57465 0.0
O59 O 0.19853 0.99614 0.59493 0.0
O60 O 0.20666 0.03105 0.4122 0.0
O61 O 0.16954 0.94417 0.43139 0.0
C62 C 0.173 0.94494 0.36163 0.0
O63 O 0.18035 0.9767 0.32933 0.0
O64 O 0.11379 1.01324 0.5005 0.0
Mg65 Mg 0.52438 0.17758 0.45147 0.0
C66 C 0.59286 0.1896 0.35641 0.0
O67 O 0.57186 0.21551 0.32703 0.0
C68 C 0.4965 0.20271 0.60189 0.0
O69 O 0.47853 0.17108 0.59875 0.0
C70 C 0.53261 0.0976 0.49556 0.0
O71 O 0.56532 0.11104 0.51261 0.0
O72 O 0.50802 0.11967 0.46995 0.0
O73 O 0.58169 0.17313 0.41442 0.0
O74 O 0.49709 0.20427 0.35871 0.0
C75 C 0.48978 0.23884 0.36134 0.0
O76 O 0.49278 0.25616 0.42438 0.0
O77 O 0.51806 0.21177 0.54921 0.0
Mg78 Mg 0.36303 0.52213 0.4716 0.0
C79 C 0.29593 0.50328 0.38384 0.0
O80 O 0.28171 0.52473 0.43516 0.0
C81 C 0.44325 0.50578 0.43295 0.0
O82 O 0.43145 0.51844 0.36941 0.0
C83 C 0.315 0.49644 0.60144 0.0
O84 O 0.31038 0.46732 0.5593 0.0
O85 O 0.33494 0.52324 0.57826 0.0
O86 O 0.33009 0.49411 0.38829 0.0
O87 O 0.3735 0.57742 0.42751 0.0
C88 C 0.36046 0.58831 0.36616 0.0
O89 O 0.33453 0.56866 0.33452 0.0
O90 O 0.41988 0.50147 0.48516 0.0
Mg91 Mg 0.98814 0.36476 0.47994 0.0
C92 C 0.94021 0.37162 0.35411 0.0
O93 O 0.97445 0.37412 0.32918 0.0
C94 C 1.01482 0.32193 0.61174 0.0
O95 O 0.04379 0.31841 0.56796 0.0
C96 C 0.98391 0.44521 0.51579 0.0
O97 O 0.95135 0.43296 0.53798 0.0
O98 O 1.00704 0.42214 0.4882 0.0
O99 O 0.93502 0.36824 0.42307 0.0
O100 O 0.01948 0.32869 0.40571 0.0
C101 C 1.00244 0.29858 0.39216 0.0
O102 O 0.97288 0.29049 0.43181 0.0
O103 O 0.98645 0.33978 0.58903 0.0
Mg104 Mg 0.35728 1.00576 0.98699 0.0
C105 C 0.29061 0.01609 0.89919 0.0
O106 O 0.28353 0.98747 0.942 0.0
C107 C 0.43059 0.01533 0.05881 0.0
O108 O 0.41108 0.998 0.10952 0.0
C109 C 0.31001 0.029 0.11752 0.0
O110 O 0.30366 0.05736 0.07371 0.0
O111 O 0.33072 1.00255 0.09499 0.0
O112 O 0.32035 0.03428 0.91027 0.0
O113 O 0.36645 0.95257 0.93288 0.0
C114 C 0.36717 0.95425 0.86292 0.0
O115 O 0.36063 0.98626 0.83074 0.0
O116 O 0.41444 0.02533 0.99979 0.0
Mg117 Mg 0.52844 0.35429 0.95108 0.0
C118 C 0.49146 0.29479 0.86088 0.0
O119 O 0.49256 0.27742 0.92441 0.0
C120 C 0.53697 0.434 0.99596 0.0
O121 O 0.56951 0.42016 1.01409 0.0
C122 C 0.49912 0.33045 0.10112 0.0
O123 O 0.48287 0.36314 0.09752 0.0
O124 O 0.52032 0.32015 0.04877 0.0
O125 O 0.50094 0.32877 0.85785 0.0
O126 O 0.58604 0.35659 0.91466 0.0
C127 C 0.59705 0.33641 0.86151 0.0
O128 O 0.57561 0.30947 0.83865 0.0
O129 O 0.51265 0.41236 0.96908 0.0
Mg130 Mg 0.17385 0.52091 0.97559 0.0
C131 C 0.23894 0.51038 0.8815 0.0
O132 O 0.24664 0.53927 0.9225 0.0
C133 C 0.10087 0.50329 0.05057 0.0
O134 O 0.12157 0.5103 0.10802 0.0
C135 C 0.22426 0.49678 0.10046 0.0
O136 O 0.23324 0.47116 0.05227 0.0
O137 O 0.20072 0.52174 0.08281 0.0
O138 O 0.20928 0.49239 0.8955 0.0
O139 O 0.16748 0.57527 0.92442 0.0
C140 C 0.16306 0.57314 0.85519 0.0
O141 O 0.16342 0.5402 0.82447 0.0
O142 O 0.116 0.50289 0.98712 0.0
Mg143 Mg 1.00034 0.17975 0.97913 0.0
C144 C 1.00941 0.24784 0.89398 0.0
O145 O 0.98063 0.2542 0.93704 0.0
C146 C 0.99912 0.10031 1.01604 0.0
O147 O 0.96606 0.11271 0.03526 0.0
C148 C 0.02085 0.22546 0.11165 0.0
O149 O 0.04999 0.2319 0.06972 0.0
O150 O 0.99504 0.20478 0.08753 0.0
O151 O 0.02806 0.21811 0.90409 0.0
O152 O 0.94765 0.16975 0.92437 0.0
C153 C 0.94859 0.17058 0.85439 0.0
O154 O 0.97966 0.17998 0.82119 0.0
O155 O 0.02264 0.1234 0.99015 0.0
Mg156 Mg 0.85678 0.02051 0.55692 0.0
C157 C 0.79037 1.00912 0.64608 0.0
O158 O 0.78237 0.03706 0.60222 0.0
C159 C 0.93134 0.01507 0.4875 0.0
O160 O 0.91189 0.03371 0.43879 0.0
C161 C 0.80856 0.99746 0.42821 0.0
O162 O 0.80061 0.97009 0.47347 0.0
O163 O 0.83059 0.02287 0.44911 0.0
O164 O 0.82075 0.99159 0.63513 0.0
O165 O 0.86332 0.07436 0.6092 0.0
C166 C 0.86418 0.07321 0.67915 0.0
O167 O 0.85965 0.04113 0.71238 0.0
O168 O 0.91477 1.0027 0.5446 0.0
Mg169 Mg 0.51183 0.85895 0.55719 0.0
C170 C 0.52582 0.79152 0.64269 0.0
O171 O 0.49749 0.78318 0.60069 0.0
C172 C 0.50627 0.93894 0.52171 0.0
O173 O 0.47356 0.92573 0.50392 0.0
C174 C 0.53564 0.81356 0.42538 0.0
O175 O 0.56472 0.8085 0.46759 0.0
O176 O 0.50865 0.83332 0.44897 0.0
O177 O 0.54214 0.82241 0.6318 0.0
O178 O 0.45841 0.86575 0.61305 0.0
C179 C 0.45924 0.86458 0.68301 0.0
O180 O 0.49087 0.8571 0.71552 0.0
O181 O 0.53082 0.91641 0.54594 0.0
Mg182 Mg 0.6742 0.48691 0.56626 0.0
C183 C 0.73156 0.52137 0.66241 0.0
O184 O 0.75196 0.51145 0.60561 0.0
C185 C 0.60221 0.4919 0.47917 0.0
O186 O 0.62278 0.47438 0.43039 0.0
C187 C 0.715 0.51537 0.42822 0.0
O188 O 0.68899 0.54108 0.42923 0.0
O189 O 0.71414 0.48937 0.47574 0.0
O190 O 0.69643 0.51792 0.65852 0.0
O191 O 0.66863 0.43104 0.61077 0.0
C192 C 0.68717 0.42087 0.66673 0.0
O193 O 0.71427 0.44198 0.68996 0.0
O194 O 0.61707 0.50259 0.53872 0.0
Mg195 Mg 0.02021 0.6808 0.58318 0.0
C196 C 1.00284 0.75111 0.66342 0.0
O197 O 0.02034 0.76395 0.60515 0.0
C198 C 0.01884 0.6019 0.54134 0.0
O199 O 0.05052 0.61412 0.5145 0.0
C200 C 0.99065 0.72697 0.45619 0.0
O201 O 0.96359 0.73309 0.50346 0.0
O202 O 0.01809 0.70668 0.47504 0.0
O203 O 0.9957 0.71654 0.6671 0.0
O204 O 0.07633 0.66952 0.6215 0.0
C205 C 0.08753 0.68136 0.68333 0.0
O206 O 0.0677 0.70652 0.71803 0.0
O207 O 0.99747 0.6248 0.57447 0.0
C208 C 0.64573 0.14515 0.34373 0.0
C209 C 0.62213 0.17162 0.31157 0.0
H210 H 0.68142 0.09848 0.32663 0.0
C211 C 0.6219 0.17532 0.23455 0.0
H212 H 0.64688 0.14198 0.40289 0.0
C213 C 0.64138 0.14999 0.19052 0.0
C214 C 0.66156 0.12086 0.22302 0.0
H215 H 0.60412 0.19562 0.20806 0.0
H216 H 0.6382 0.1515 0.13146 0.0
C217 C 0.66542 0.12014 0.29987 0.0
C218 C 0.37438 0.61989 0.24641 0.0
C219 C 0.38156 0.61566 0.32196 0.0
H220 H 0.39531 0.63796 0.14173 0.0
C221 C 0.41299 0.63281 0.35169 0.0
H222 H 0.35019 0.6073 0.22183 0.0
C223 C 0.43873 0.65029 0.30579 0.0
C224 C 0.43353 0.65103 0.22932 0.0
H225 H 0.4191 0.63055 0.40973 0.0
H226 H 0.46382 0.66129 0.32992 0.0
C227 C 0.40022 0.63744 0.20037 0.0
C228 C 0.84976 0.40354 0.27014 0.0
C229 C 0.85889 0.40123 0.1949 0.0
H230 H 0.86879 0.39597 0.38084 0.0
C231 C 0.89129 0.38209 0.1739 0.0
H232 H 0.82488 0.41802 0.2881 0.0
C233 C 0.9163 0.36971 0.22677 0.0
C234 C 0.90936 0.37605 0.30173 0.0
H235 H 0.89886 0.37945 0.11644 0.0
H236 H 0.94228 0.35735 0.20859 0.0
C237 C 0.87494 0.39107 0.32336 0.0
C238 C 0.14328 0.89319 0.19346 0.0
C239 C 0.12028 0.86585 0.22432 0.0
H240 H 0.17906 0.93909 0.21323 0.0
C241 C 0.12121 0.85979 0.30076 0.0
H242 H 0.1436 0.89814 0.13472 0.0
C243 C 0.14121 0.88365 0.34615 0.0
C244 C 0.1608 0.91363 0.31557 0.0
H245 H 0.104 0.8387 0.32624 0.0
H246 H 0.13893 0.8803 0.40515 0.0
C247 C 0.16352 0.91671 0.23865 0.0
C248 C 0.40617 0.89703 0.84959 0.0
C249 C 0.38261 0.92374 0.8181 0.0
H250 H 0.4489 0.85667 0.83053 0.0
C251 C 0.37899 0.92502 0.7412 0.0
H252 H 0.40934 0.89522 0.90863 0.0
C253 C 0.40155 0.90289 0.69638 0.0
C254 C 0.42825 0.87935 0.72787 0.0
H255 H 0.36057 0.94501 0.71545 0.0
H256 H 0.40016 0.90656 0.63737 0.0
C257 C 0.42893 0.87508 0.80475 0.0
C258 C 0.64701 0.36544 0.68878 0.0
C259 C 0.67154 0.39219 0.71601 0.0
H260 H 0.60488 0.32565 0.71422 0.0
C261 C 0.67622 0.39525 0.7924 0.0
H262 H 0.64302 0.3624 0.63018 0.0
C263 C 0.65383 0.37481 0.84062 0.0
C264 C 0.62708 0.35031 0.81324 0.0
H265 H 0.69492 0.41565 0.8151 0.0
H266 H 0.65589 0.37982 0.89909 0.0
C267 C 0.62527 0.34433 0.73704 0.0
C268 C 0.13312 0.62906 0.69089 0.0
C269 C 0.1155 0.6595 0.7244 0.0
H270 H 0.16255 0.57806 0.70641 0.0
C271 C 0.11991 0.6648 0.80047 0.0
H272 H 0.13074 0.62441 0.63236 0.0
C273 C 0.13808 0.63801 0.84321 0.0
C274 C 0.15213 0.60562 0.8104 0.0
H275 H 0.10697 0.68819 0.82795 0.0
H276 H 0.13872 0.64144 0.90227 0.0
C277 C 0.15123 0.60239 0.73349 0.0
C278 C 0.91964 0.15682 0.73351 0.0
C279 C 0.91903 0.15327 0.81053 0.0
H280 H 0.90202 0.13442 0.63072 0.0
C281 C 0.89419 0.12817 0.84331 0.0
H282 H 0.93818 0.17635 0.70676 0.0
C283 C 0.87362 0.10409 0.79968 0.0
C284 C 0.87735 0.10495 0.7227 0.0
H285 H 0.8929 0.12496 0.90246 0.0
H286 H 0.85674 0.08313 0.82645 0.0
C287 C 0.89883 0.13292 0.68986 0.0
C288 C 0.76161 0.97667 0.83697 0.0
C289 C 0.73425 1.00315 0.85558 0.0
H290 H 0.80082 0.95753 0.75602 0.0
C291 C 0.72361 0.02946 0.80259 0.0
H292 H 0.77035 0.9559 0.87651 0.0
C293 C 0.74059 0.02998 0.73336 0.0
C294 C 0.76901 1.0045 0.71556 0.0
H295 H 0.70237 0.04999 0.81478 0.0
H296 H 0.73217 0.05126 0.69462 0.0
C297 C 0.77898 0.97746 0.76781 0.0
C298 C 0.50779 0.74094 0.73038 0.0
C299 C 0.53217 0.76989 0.71106 0.0
H300 H 0.49016 0.70217 0.8128 0.0
C301 C 0.55979 0.7802 0.76118 0.0
H302 H 0.48611 0.73225 0.69327 0.0
C303 C 0.56217 0.76273 0.82991 0.0
C304 C 0.53675 0.73486 0.85025 0.0
H305 H 0.57894 0.80243 0.74817 0.0
H306 H 0.58332 0.7718 0.86783 0.0
C307 C 0.50991 0.72379 0.79924 0.0
C308 C 0.80458 0.52041 0.81086 0.0
C309 C 0.78288 0.52429 0.87484 0.0
H310 H 0.80557 0.51749 0.69369 0.0
C311 C 0.74458 0.53139 0.86787 0.0
H312 H 0.83424 0.51537 0.81423 0.0
C313 C 0.72803 0.53252 0.79849 0.0
C314 C 0.7495 0.52687 0.73465 0.0
H315 H 0.72711 0.53475 0.91608 0.0
H316 H 0.69821 0.53643 0.79512 0.0
C317 C 0.78813 0.52188 0.74161 0.0
C318 C 1.00021 0.78156 0.86219 0.0
C319 C 1.00381 0.82028 0.85522 0.0
H320 H 0.99598 0.72933 0.807 0.0
C321 C 1.00362 0.83621 0.78464 0.0
H322 H 0.9999 0.76848 0.91587 0.0
C323 C 1.00164 0.81375 0.72228 0.0
C324 C 0.99916 0.77495 0.72916 0.0
H325 H 1.00619 0.86595 0.77739 0.0
H326 H 1.00295 0.82674 0.66856 0.0
C327 C 0.99758 0.75915 0.79982 0.0
C328 C 0.22466 0.99604 0.74305 0.0
C329 C 0.2341 0.02359 0.69157 0.0
H330 H 0.23427 0.97272 0.8493 0.0
C331 C 0.2604 0.05059 0.71118 0.0
H332 H 0.20427 0.97505 0.73007 0.0
C333 C 0.27787 0.0492 0.77975 0.0
C334 C 0.26909 0.02101 0.83048 0.0
H335 H 0.26822 0.0723 0.67284 0.0
H336 H 0.29887 0.06964 0.79227 0.0
C337 C 0.24175 0.9949 0.81175 0.0
C338 C 0.50429 0.26434 0.66346 0.0
C339 C 0.49214 0.22732 0.66648 0.0
H340 H 0.51267 0.31504 0.72188 0.0
C341 C 0.47646 0.21386 0.73225 0.0
H342 H 0.51615 0.27568 0.61338 0.0
C343 C 0.47464 0.23638 0.79467 0.0
C344 C 0.48793 0.27302 0.79234 0.0
H345 H 0.46667 0.18552 0.73628 0.0
H346 H 0.46372 0.22475 0.84531 0.0
C347 C 0.50195 0.28703 0.72552 0.0
C348 C 0.26936 0.47258 0.69568 0.0
C349 C 0.29696 0.49824 0.67492 0.0
H350 H 0.22933 0.45607 0.77736 0.0
C351 C 0.30689 0.52606 0.72482 0.0
H352 H 0.26112 0.45072 0.65856 0.0
C353 C 0.2891 0.52877 0.79303 0.0
C354 C 0.26059 0.50399 0.81294 0.0
H355 H 0.32825 0.54606 0.71099 0.0
H356 H 0.2971 0.55108 0.82932 0.0
C357 C 0.25122 0.47554 0.76386 0.0
C358 C 0.98756 0.31397 0.73783 0.0
C359 C 0.01521 0.30495 0.68605 0.0
H360 H 0.9647 0.30383 0.84455 0.0
C361 C 0.04298 0.27916 0.70568 0.0
H362 H 0.96601 0.33399 0.7248 0.0
C363 C 0.04219 0.26163 0.7745 0.0
C364 C 1.01384 0.26984 0.82543 0.0
H365 H 0.0648 0.27171 0.66712 0.0
H366 H 0.0632 0.24095 0.78698 0.0
C367 C 0.98702 0.2968 0.8068 0.0
C368 C 0.24741 0.05013 0.28126 0.0
C369 C 0.25992 0.02408 0.33332 0.0
H370 H 0.25345 0.07218 0.1723 0.0
C371 C 0.29025 1.00102 0.31483 0.0
H372 H 0.22405 0.0682 0.29356 0.0
C373 C 0.30661 1.0028 0.24507 0.0
C374 C 0.29342 0.02806 0.1923 0.0
H375 H 0.30064 0.98053 0.35336 0.0
H376 H 0.32939 0.98409 0.2323 0.0
C377 C 0.26415 0.05226 0.21164 0.0
C378 C 0.47617 0.29831 0.29469 0.0
C379 C 0.48692 0.26076 0.29252 0.0
H380 H 0.47132 0.34972 0.23585 0.0
C381 C 0.49933 0.24573 0.22545 0.0
H382 H 0.4665 0.31072 0.34549 0.0
C383 C 0.50282 0.26825 0.16305 0.0
C384 C 0.49335 0.30612 0.16597 0.0
H385 H 0.50802 0.21695 0.22187 0.0
H386 H 0.51349 0.25609 0.11279 0.0
C387 C 0.47906 0.32069 0.23192 0.0
C388 C 0.24274 0.51842 0.30063 0.0
C389 C 0.27551 0.49806 0.31405 0.0
H390 H 0.20123 0.53441 0.22271 0.0
C391 C 0.29033 0.47593 0.25745 0.0
H392 H 0.23059 0.5359 0.34278 0.0
C393 C 0.27327 0.47495 0.18853 0.0
C394 C 0.24134 0.49647 0.1744 0.0
H395 H 0.31558 0.46001 0.26586 0.0
H396 H 0.2857 0.45806 0.14574 0.0
C397 C 0.22602 0.51784 0.23152 0.0
C398 C 0.98992 0.2314 0.23484 0.0
C399 C 0.01796 0.24248 0.18556 0.0
H400 H 0.96367 0.23971 0.33907 0.0
C401 C 0.04289 0.27034 0.20727 0.0
H402 H 0.97048 0.20981 0.22021 0.0
C403 C 0.03893 0.2877 0.27566 0.0
C404 C 1.01018 0.27731 0.32404 0.0
H405 H 0.06492 0.27945 0.17068 0.0
H406 H 0.0578 0.30988 0.28976 0.0
C407 C 0.98619 0.24846 0.30332 0.0
C408 C 0.74464 0.97887 0.26709 0.0
C409 C 0.75826 1.00386 0.21398 0.0
H410 H 0.7499 0.95715 0.37637 0.0
C411 C 0.78975 0.02521 0.2308 0.0
H412 H 0.72039 0.96212 0.25606 0.0
C413 C 0.80622 0.02286 0.29999 0.0
C414 C 0.79196 0.99873 0.35386 0.0
H415 H 0.80102 0.04482 0.19139 0.0
H416 H 0.82992 0.0403 0.31149 0.0
C417 C 0.76147 0.97617 0.33616 0.0
C418 C 0.5608 0.7692 0.33077 0.0
C419 C 0.53422 0.79602 0.3518 0.0
H420 H 0.57858 0.73002 0.24909 0.0
C421 C 0.506 0.80554 0.30217 0.0
H422 H 0.58301 0.76129 0.36763 0.0
C423 C 0.50379 0.788 0.23399 0.0
C424 C 0.52953 0.76021 0.21391 0.0
H425 H 0.48529 0.82629 0.31626 0.0
H426 H 0.48113 0.79556 0.19792 0.0
C427 C 0.55839 0.75136 0.26268 0.0
C428 C 0.74318 0.53889 0.31022 0.0
C429 C 0.74618 0.51751 0.37473 0.0
H430 H 0.76883 0.55548 0.20859 0.0
C431 C 0.77954 0.4983 0.38827 0.0
H432 H 0.71788 0.55415 0.29844 0.0
C433 C 0.80895 0.49977 0.33784 0.0
C434 C 0.8055 0.51991 0.27188 0.0
H435 H 0.78294 0.48197 0.43789 0.0
H436 H 0.83394 0.484 0.34961 0.0
C437 C 0.77241 0.53979 0.25895 0.0
C438 C 1.0099 0.74481 0.25467 0.0
C439 C 0.99059 0.7783 0.2424 0.0
H440 H 0.02561 0.70279 0.33214 0.0
C441 C 0.96973 0.79382 0.30022 0.0
H442 H 0.02649 0.73222 0.21152 0.0
C443 C 0.96885 0.77657 0.36929 0.0
C444 C 0.98952 0.74398 0.38219 0.0
H445 H 0.95469 0.81966 0.29248 0.0
H446 H 0.953 0.78942 0.41322 0.0
C447 C 1.0097 0.72808 0.32399 0.0
C448 C 0.49547 0.02211 1.00765 0.0
C449 C 0.47132 0.01932 0.06844 0.0
H450 H 0.55207 0.02449 0.96969 0.0
C451 C 0.48664 0.01747 0.13922 0.0
H452 H 0.48454 0.02317 0.95238 0.0
C453 C 0.52514 0.01849 0.14917 0.0
C454 C 0.54939 0.02064 0.08851 0.0
H455 H 0.46881 0.01519 0.18721 0.0
H456 H 0.53591 0.01725 0.20456 0.0
C457 C 0.53415 0.02242 1.01754 0.0
C458 C 0.55736 0.49813 0.03167 0.0
C459 C 0.52968 0.47445 1.00418 0.0
H460 H 0.57292 0.55383 0.05903 0.0
C461 C 0.49546 0.49 0.98331 0.0
H462 H 0.58411 0.48713 0.04825 0.0
C463 C 0.48913 0.52824 0.98942 0.0
C464 C 0.51684 0.55197 1.01653 0.0
H465 H 0.47354 0.47267 0.96189 0.0
H466 H 0.46238 0.53918 0.97267 0.0
C467 C 0.55103 0.53643 0.03776 0.0
C468 C 1.0064 0.4885 0.13914 0.0
C469 C 0.98198 0.49802 0.08204 0.0
H470 H 0.06291 0.4828 0.17394 0.0
C471 C 0.99699 0.5084 1.01349 0.0
H472 H 0.99574 0.48025 0.19252 0.0
C473 C 0.03564 0.50893 1.00226 0.0
C474 C 0.06 0.49985 0.05983 0.0
H475 H 0.9789 0.51551 0.96819 0.0
H476 H 0.04643 0.51719 0.949 0.0
C477 C 0.04491 0.48981 0.12842 0.0
C478 C 0.04243 0.0455 1.00213 0.0
C479 C 1.00761 0.06 0.02279 0.0
H480 H 0.07689 0.99713 0.99181 0.0
C481 C 0.98026 0.0354 0.04934 0.0
H482 H 0.06408 0.0636 0.98136 0.0
C483 C 0.9875 0.9973 0.05515 0.0
C484 C 0.02231 0.98277 0.03465 0.0
H485 H 0.95305 0.04552 0.06567 0.0
H486 H 0.9658 0.97927 0.07597 0.0
C487 C 0.0497 1.00734 1.00805 0.0
C488 C 0.03466 1.00708 0.52896 0.0
C489 C 0.05053 1.01175 0.45865 0.0
H490 H 0.98446 1.00345 0.59321 0.0
C491 C 0.0268 0.01631 0.39825 0.0
H492 H 0.05218 1.00309 0.57653 0.0
C493 C 0.98821 0.01676 0.40787 0.0
C494 C 0.97226 1.01195 0.47795 0.0
H495 H 0.03806 0.0198 0.34333 0.0
H496 H 0.97081 0.02086 0.36014 0.0
C497 C 0.99589 1.00684 0.53842 0.0
C498 C 0.54755 0.99482 0.5356 0.0
C499 C 0.51335 0.97949 0.51508 0.0
H500 H 0.58037 0.04395 0.54588 0.0
C501 C 0.48532 1.00346 0.48875 0.0
H502 H 0.56969 0.97724 0.55621 0.0
C503 C 0.49136 0.04175 0.48293 0.0
C504 C 0.52558 0.05709 0.5033 0.0
H505 H 0.45856 0.99268 0.47251 0.0
H506 H 0.46921 0.05928 0.46218 0.0
C507 C 0.55359 0.03314 0.52978 0.0
C508 C 0.53709 0.50058 0.5274 0.0
C509 C 0.56157 0.49606 0.46749 0.0
H510 H 0.48048 0.50618 0.56376 0.0
C511 C 0.54667 0.49376 0.39646 0.0
H512 H 0.54764 0.50209 0.58289 0.0
C513 C 0.50825 0.49651 0.38545 0.0
C514 C 0.48373 0.50075 0.44534 0.0
H515 H 0.56475 0.49018 0.34918 0.0
H516 H 0.49773 0.4952 0.3299 0.0
C517 C 0.49857 0.50252 0.51652 0.0
C518 C 0.97561 0.54791 0.56149 0.0
C519 C 1.00942 0.56193 0.53445 0.0
H520 H 0.94108 0.5002 0.57681 0.0
C521 C 0.0348 0.53718 0.50119 0.0
H522 H 0.95547 0.56614 0.58744 0.0
C523 C 0.02667 0.49935 0.49528 0.0
C524 C 0.99289 0.48529 0.52232 0.0
H525 H 0.06118 0.54695 0.4798 0.0
H526 H 0.04687 0.48115 0.46939 0.0
C527 C 0.96742 0.51004 0.55539 0.0
loop_
_geom_bond_atom_site_label_1
_geom_bond_atom_site_label_2
_geom_bond_distance
_geom_bond_site_symmetry_2
_ccdc_geom_bond_type
Mg0 O7 2.141 . S
Mg0 O8 2.048 . S
Mg0 O9 2.048 . S
Mg0 O12 2.141 . S
C1 O2 1.331 . S
C1 O8 1.182 1_565 S
O2 C1 1.331 . S
C3 O4 1.245 . S
C3 O12 1.289 1_565 S
O4 C3 1.245 . S
C5 O6 1.245 1_556 S
C5 O7 1.289 1_566 S
O6 C5 1.245 1_554 S
O7 Mg0 2.141 . S
O7 C5 1.289 1_544 S
O8 Mg0 2.048 . S
O8 C1 1.182 1_545 S
O9 Mg0 2.048 . S
O9 C10 1.195 . S
C10 O9 1.195 . S
C10 O11 1.313 1_545 S
O11 C10 1.313 1_565 S
O12 Mg0 2.141 . S
O12 C3 1.289 1_545 S
Mg13 O20 2.141 . S
Mg13 O21 2.048 . S
Mg13 O22 2.048 . S
Mg13 O25 2.141 . S
C14 O15 1.313 . S
C14 O21 1.195 . S
O15 C14 1.313 . S
C16 O17 1.245 . S
C16 O25 1.289 1_556 S
O17 C16 1.245 . S
C18 O19 1.245 . S
C18 O20 1.289 . S
O19 C18 1.245 . S
O20 Mg13 2.141 . S
O20 C18 1.289 . S
O21 Mg13 2.048 . S
O21 C14 1.195 . S
O22 Mg13 2.048 . S
O22 C23 1.195 . S
C23 O22 1.195 . S
C23 O24 1.313 . S
O24 C23 1.313 . S
O25 Mg13 2.141 . S
O25 C16 1.289 1_554 S
Mg26 O33 2.141 . S
Mg26 O34 2.048 . S
Mg26 O35 2.048 . S
Mg26 O38 2.141 . S
C27 O28 1.313 . S
C27 O34 1.195 . S
O28 C27 1.313 . S
C29 O30 1.245 . S
C29 O38 1.289 . S
O30 C29 1.245 . S
C31 O32 1.245 1_556 S
C31 O33 1.289 1_556 S
O32 C31 1.245 1_554 S
O33 Mg26 2.141 . S
O33 C31 1.289 1_554 S
O34 Mg26 2.048 . S
O34 C27 1.195 . S
O35 Mg26 2.048 . S
O35 C36 1.195 . S
C36 O35 1.195 . S
C36 O37 1.313 . S
O37 C36 1.313 . S
O38 Mg26 2.141 . S
O38 C29 1.289 . S
Mg39 O46 2.141 . S
Mg39 O47 2.048 . S
Mg39 O48 2.048 . S
Mg39 O51 2.141 . S
C40 O41 1.313 . S
C40 O47 1.195 1_455 S
O41 C40 1.313 . S
C42 O43 1.245 1_655 S
C42 O51 1.289 1_556 S
O43 C42 1.245 1_455 S
C44 O45 1.245 1_554 S
C44 O46 1.289 1_455 S
O45 C44 1.245 1_556 S
O46 Mg39 2.141 . S
O46 C44 1.289 1_655 S
O47 Mg39 2.048 . S
O47 C40 1.195 1_655 S
O48 Mg39 2.048 . S
O48 C49 1.195 1_655 S
C49 O48 1.195 1_455 S
C49 O50 1.313 . S
O50 C49 1.313 . S
O51 Mg39 2.141 . S
O51 C42 1.289 1_554 S
Mg52 O59 2.141 . S
Mg52 O60 2.048 . S
Mg52 O61 2.048 . S
Mg52 O64 2.141 . S
C53 O54 1.340 . S
C53 O60 1.176 1_545 S
O54 C53 1.340 . S
C55 O56 1.245 . S
C55 O64 1.289 1_545 S
O56 C55 1.245 . S
C57 O58 1.245 . S
C57 O59 1.289 1_545 S
O58 C57 1.245 . S
O59 Mg52 2.141 . S
O59 C57 1.289 1_565 S
O60 Mg52 2.048 . S
O60 C53 1.176 1_565 S
O61 Mg52 2.048 . S
O61 C62 1.195 . S
C62 O61 1.195 . S
C62 O63 1.313 1_565 S
O63 C62 1.313 1_545 S
O64 Mg52 2.141 . S
O64 C55 1.289 1_565 S
Mg65 O72 2.141 . S
Mg65 O73 2.048 . S
Mg65 O74 2.048 . S
Mg65 O77 2.141 . S
C66 O67 1.313 . S
C66 O73 1.195 . S
O67 C66 1.313 . S
C68 O69 1.245 . S
C68 O77 1.289 . S
O69 C68 1.245 . S
C70 O71 1.245 . S
C70 O72 1.289 . S
O71 C70 1.245 . S
O72 Mg65 2.141 . S
O72 C70 1.289 . S
O73 Mg65 2.048 . S
O73 C66 1.195 . S
O74 Mg65 2.048 . S
O74 C75 1.195 . S
C75 O74 1.195 . S
C75 O76 1.313 . S
O76 C75 1.313 . S
O77 Mg65 2.141 . S
O77 C68 1.289 . S
Mg78 O85 2.141 . S
Mg78 O86 2.048 . S
Mg78 O87 2.048 . S
Mg78 O90 2.141 . S
C79 O80 1.313 . S
C79 O86 1.195 . S
O80 C79 1.313 . S
C81 O82 1.245 . S
C81 O90 1.289 . S
O82 C81 1.245 . S
C83 O84 1.245 . S
C83 O85 1.289 . S
O84 C83 1.245 . S
O85 Mg78 2.141 . S
O85 C83 1.289 . S
O86 Mg78 2.048 . S
O86 C79 1.195 . S
O87 Mg78 2.048 . S
O87 C88 1.195 . S
C88 O87 1.195 . S
C88 O89 1.313 . S
O89 C88 1.313 . S
O90 Mg78 2.141 . S
O90 C81 1.289 . S
Mg91 O98 2.141 . S
Mg91 O99 2.048 . S
Mg91 O100 2.048 . S
Mg91 O103 2.141 . S
C92 O93 1.313 . S
C92 O99 1.195 1_655 S
O93 C92 1.313 . S
C94 O95 1.245 1_455 S
C94 O103 1.289 . S
O95 C94 1.245 1_655 S
C96 O97 1.245 . S
C96 O98 1.289 1_655 S
O97 C96 1.245 . S
O98 Mg91 2.141 . S
O98 C96 1.289 1_455 S
O99 Mg91 2.048 . S
O99 C92 1.195 1_455 S
O100 Mg91 2.048 . S
O100 C101 1.195 1_455 S
C101 O100 1.195 1_655 S
C101 O102 1.313 . S
O102 C101 1.313 . S
O103 Mg91 2.141 . S
O103 C94 1.289 . S
Mg104 O111 2.141 . S
Mg104 O112 2.048 . S
Mg104 O113 2.048 . S
Mg104 O116 2.141 . S
C105 O106 1.313 . S
C105 O112 1.195 1_565 S
O106 C105 1.313 . S
C107 O108 1.245 . S
C107 O116 1.289 1_565 S
O108 C107 1.245 . S
C109 O110 1.245 1_545 S
C109 O111 1.289 1_554 S
O110 C109 1.245 1_565 S
O111 Mg104 2.141 . S
O111 C109 1.289 1_556 S
O112 Mg104 2.048 . S
O112 C105 1.195 1_545 S
O113 Mg104 2.048 . S
O113 C114 1.195 1_545 S
C114 O113 1.195 1_565 S
C114 O115 1.313 . S
O115 C114 1.313 . S
O116 Mg104 2.141 . S
O116 C107 1.289 1_545 S
Mg117 O124 2.141 . S
Mg117 O125 2.048 . S
Mg117 O126 2.048 . S
Mg117 O129 2.141 . S
C118 O119 1.313 . S
C118 O125 1.195 . S
O119 C118 1.313 . S
C120 O121 1.245 . S
C120 O129 1.289 . S
O121 C120 1.245 . S
C122 O123 1.245 . S
C122 O124 1.289 1_554 S
O123 C122 1.245 . S
O124 Mg117 2.141 . S
O124 C122 1.289 1_556 S
O125 Mg117 2.048 . S
O125 C118 1.195 . S
O126 Mg117 2.048 . S
O126 C127 1.195 . S
C127 O126 1.195 . S
C127 O128 1.313 . S
O128 C127 1.313 . S
O129 Mg117 2.141 . S
O129 C120 1.289 . S
Mg130 O137 2.141 . S
Mg130 O138 2.048 . S
Mg130 O139 2.048 . S
Mg130 O142 2.141 . S
C131 O132 1.313 . S
C131 O138 1.195 . S
O132 C131 1.313 . S
C133 O134 1.245 . S
C133 O142 1.289 . S
O134 C133 1.245 . S
C135 O136 1.245 . S
C135 O137 1.289 1_554 S
O136 C135 1.245 . S
O137 Mg130 2.141 . S
O137 C135 1.289 1_556 S
O138 Mg130 2.048 . S
O138 C131 1.195 . S
O139 Mg130 2.048 . S
O139 C140 1.195 . S
C140 O139 1.195 . S
C140 O141 1.313 . S
O141 C140 1.313 . S
O142 Mg130 2.141 . S
O142 C133 1.289 . S
Mg143 O150 2.141 . S
Mg143 O151 2.048 . S
Mg143 O152 2.048 . S
Mg143 O155 2.141 . S
C144 O145 1.313 . S
C144 O151 1.195 1_655 S
O145 C144 1.313 . S
C146 O147 1.245 1_556 S
C146 O155 1.289 1_655 S
O147 C146 1.245 1_554 S
C148 O149 1.245 1_455 S
C148 O150 1.289 1_554 S
O149 C148 1.245 1_655 S
O150 Mg143 2.141 . S
O150 C148 1.289 1_556 S
O151 Mg143 2.048 . S
O151 C144 1.195 1_455 S
O152 Mg143 2.048 . S
O152 C153 1.195 1_455 S
C153 O152 1.195 1_655 S
C153 O154 1.313 . S
O154 C153 1.313 . S
O155 Mg143 2.141 . S
O155 C146 1.289 1_455 S
Mg156 O163 2.141 . S
Mg156 O164 2.048 . S
Mg156 O165 2.048 . S
Mg156 O168 2.141 . S
C157 O158 1.313 . S
C157 O164 1.195 1_545 S
O158 C157 1.313 . S
C159 O160 1.245 . S
C159 O168 1.289 1_545 S
O160 C159 1.245 . S
C161 O162 1.245 1_565 S
C161 O163 1.289 . S
O162 C161 1.245 1_545 S
O163 Mg156 2.141 . S
O163 C161 1.289 . S
O164 Mg156 2.048 . S
O164 C157 1.195 1_565 S
O165 Mg156 2.048 . S
O165 C166 1.195 1_565 S
C166 O165 1.195 1_545 S
C166 O167 1.313 . S
O167 C166 1.313 . S
O168 Mg156 2.141 . S
O168 C159 1.289 1_565 S
Mg169 O176 2.141 . S
Mg169 O177 2.048 . S
Mg169 O178 2.048 . S
Mg169 O181 2.141 . S
C170 O171 1.313 . S
C170 O177 1.195 . S
O171 C170 1.313 . S
C172 O173 1.245 . S
C172 O181 1.289 . S
O173 C172 1.245 . S
C174 O175 1.245 . S
C174 O176 1.289 . S
O175 C174 1.245 . S
O176 Mg169 2.141 . S
O176 C174 1.289 . S
O177 Mg169 2.048 . S
O177 C170 1.195 . S
O178 Mg169 2.048 . S
O178 C179 1.195 . S
C179 O178 1.195 . S
C179 O180 1.313 . S
O180 C179 1.313 . S
O181 Mg169 2.141 . S
O181 C172 1.289 . S
Mg182 O189 2.141 . S
Mg182 O190 2.048 . S
Mg182 O191 2.048 . S
Mg182 O194 2.141 . S
C183 O184 1.313 . S
C183 O190 1.195 . S
O184 C183 1.313 . S
C185 O186 1.245 . S
C185 O194 1.289 . S
O186 C185 1.245 . S
C187 O188 1.245 . S
C187 O189 1.289 . S
O188 C187 1.245 . S
O189 Mg182 2.141 . S
O189 C187 1.289 . S
O190 Mg182 2.048 . S
O190 C183 1.195 . S
O191 Mg182 2.048 . S
O191 C192 1.195 . S
C192 O191 1.195 . S
C192 O193 1.313 . S
O193 C192 1.313 . S
O194 Mg182 2.141 . S
O194 C185 1.289 . S
Mg195 O202 2.141 . S
Mg195 O203 2.048 . S
Mg195 O204 2.048 . S
Mg195 O207 2.141 . S
C196 O197 1.313 . S
C196 O203 1.195 1_455 S
O197 C196 1.313 . S
C198 O199 1.245 . S
C198 O207 1.289 1_455 S
O199 C198 1.245 . S
C200 O201 1.245 1_655 S
C200 O202 1.289 . S
O201 C200 1.245 1_455 S
O202 Mg195 2.141 . S
O202 C200 1.289 . S
O203 Mg195 2.048 . S
O203 C196 1.195 1_655 S
O204 Mg195 2.048 . S
O204 C205 1.195 1_655 S
C205 O204 1.195 1_455 S
C205 O206 1.313 . S
O206 C205 1.313 . S
O207 Mg195 2.141 . S
O207 C198 1.289 1_655 S
C208 C209 1.387 . S
C208 H212 0.950 . S
C208 C217 1.390 . S
C209 C208 1.387 . S
C209 C211 1.387 . S
H210 C217 0.950 . S
C211 C209 1.387 . S
C211 C213 1.390 . S
C211 H215 0.950 . S
H212 C208 0.950 . S
C213 C211 1.390 . S
C213 C214 1.387 . S
C213 H216 0.950 . S
C214 C213 1.387 . S
C214 C217 1.387 . S
H215 C211 0.950 . S
H216 C213 0.950 . S
C217 C208 1.390 . S
C217 H210 0.950 . S
C217 C214 1.387 . S
C218 C219 1.387 . S
C218 H222 0.950 . S
C218 C227 1.390 . S
C219 C218 1.387 . S
C219 C221 1.387 . S
H220 C227 0.950 . S
C221 C219 1.387 . S
C221 C223 1.390 . S
C221 H225 0.950 . S
H222 C218 0.950 . S
C223 C221 1.390 . S
C223 C224 1.387 . S
C223 H226 0.950 . S
C224 C223 1.387 . S
C224 C227 1.387 . S
H225 C221 0.950 . S
H226 C223 0.950 . S
C227 C218 1.390 . S
C227 H220 0.950 . S
C227 C224 1.387 . S
C228 C229 1.387 . S
C228 H232 0.950 . S
C228 C237 1.390 . S
C229 C228 1.387 . S
C229 C231 1.387 . S
H230 C237 0.950 . S
C231 C229 1.387 . S
C231 C233 1.390 . S
C231 H235 0.950 . S
H232 C228 0.950 . S
C233 C231 1.390 . S
C233 C234 1.387 . S
C233 H236 0.950 . S
C234 C233 1.387 . S
C234 C237 1.387 . S
H235 C231 0.950 . S
H236 C233 0.950 . S
C237 C228 1.390 . S
C237 H230 0.950 . S
C237 C234 1.387 . S
C238 C239 1.387 . S
C238 H242 0.950 . S
C238 C247 1.390 . S
C239 C238 1.387 . S
C239 C241 1.387 . S
H240 C247 0.950 . S
C241 C239 1.387 . S
C241 C243 1.390 . S
C241 H245 0.950 . S
H242 C238 0.950 . S
C243 C241 1.390 . S
C243 C244 1.387 . S
C243 H246 0.950 . S
C244 C243 1.387 . S
C244 C247 1.387 . S
H245 C241 0.950 . S
H246 C243 0.950 . S
C247 C238 1.390 . S
C247 H240 0.950 . S
C247 C244 1.387 . S
C248 C249 1.387 . S
C248 H252 0.950 . S
C248 C257 1.390 . S
C249 C248 1.387 . S
C249 C251 1.387 . S
H250 C257 0.950 . S
C251 C249 1.387 . S
C251 C253 1.390 . S
C251 H255 0.950 . S
H252 C248 0.950 . S
C253 C251 1.390 . S
C253 C254 1.387 . S
C253 H256 0.950 . S
C254 C253 1.387 . S
C254 C257 1.387 . S
H255 C251 0.950 . S
H256 C253 0.950 . S
C257 C248 1.390 . S
C257 H250 0.950 . S
C257 C254 1.387 . S
C258 C259 1.387 . S
C258 H262 0.950 . S
C258 C267 1.390 . S
C259 C258 1.387 . S
C259 C261 1.387 . S
H260 C267 0.950 . S
C261 C259 1.387 . S
C261 C263 1.390 . S
C261 H265 0.950 . S
H262 C258 0.950 . S
C263 C261 1.390 . S
C263 C264 1.387 . S
C263 H266 0.950 . S
C264 C263 1.387 . S
C264 C267 1.387 . S
H265 C261 0.950 . S
H266 C263 0.950 . S
C267 C258 1.390 . S
C267 H260 0.950 . S
C267 C264 1.387 . S
C268 C269 1.387 . S
C268 H272 0.950 . S
C268 C277 1.390 . S
C269 C268 1.387 . S
C269 C271 1.387 . S
H270 C277 0.950 . S
C271 C269 1.387 . S
C271 C273 1.390 . S
C271 H275 0.950 . S
H272 C268 0.950 . S
C273 C271 1.390 . S
C273 C274 1.387 . S
C273 H276 0.950 . S
C274 C273 1.387 . S
C274 C277 1.387 . S
H275 C271 0.950 . S
H276 C273 0.950 . S
C277 C268 1.390 . S
C277 H270 0.950 . S
C277 C274 1.387 . S
C278 C279 1.387 . S
C278 H282 0.950 . S
C278 C287 1.390 . S
C279 C278 1.387 . S
C279 C281 1.387 . S
H280 C287 0.950 . S
C281 C279 1.387 . S
C281 C283 1.390 . S
C281 H285 0.950 . S
H282 C278 0.950 . S
C283 C281 1.390 . S
C283 C284 1.387 . S
C283 H286 0.950 . S
C284 C283 1.387 . S
C284 C287 1.387 . S
H285 C281 0.950 . S
H286 C283 0.950 . S
C287 C278 1.390 . S
C287 H280 0.950 . S
C287 C284 1.387 . S
C288 C289 1.387 . S
C288 H292 0.950 . S
C288 C297 1.390 . S
C289 C288 1.387 . S
C289 C291 1.387 1_565 S
H290 C297 0.950 . S
C291 C289 1.387 1_545 S
C291 C293 1.390 . S
C291 H295 0.950 . S
H292 C288 0.950 . S
C293 C291 1.390 . S
C293 C294 1.387 1_545 S
C293 H296 0.950 . S
C294 C293 1.387 1_565 S
C294 C297 1.387 . S
H295 C291 0.950 . S
H296 C293 0.950 . S
C297 C288 1.390 . S
C297 H290 0.950 . S
C297 C294 1.387 . S
C298 C299 1.387 . S
C298 H302 0.950 . S
C298 C307 1.390 . S
C299 C298 1.387 . S
C299 C301 1.387 . S
H300 C307 0.950 . S
C301 C299 1.387 . S
C301 C303 1.390 . S
C301 H305 0.950 . S
H302 C298 0.950 . S
C303 C301 1.390 . S
C303 C304 1.387 . S
C303 H306 0.950 . S
C304 C303 1.387 . S
C304 C307 1.387 . S
H305 C301 0.950 . S
H306 C303 0.950 . S
C307 C298 1.390 . S
C307 H300 0.950 . S
C307 C304 1.387 . S
C308 C309 1.387 . S
C308 H312 0.950 . S
C308 C317 1.390 . S
C309 C308 1.387 . S
C309 C311 1.387 . S
H310 C317 0.950 . S
C311 C309 1.387 . S
C311 C313 1.390 . S
C311 H315 0.950 . S
H312 C308 0.950 . S
C313 C311 1.390 . S
C313 C314 1.387 . S
C313 H316 0.950 . S
C314 C313 1.387 . S
C314 C317 1.387 . S
H315 C311 0.950 . S
H316 C313 0.950 . S
C317 C308 1.390 . S
C317 H310 0.950 . S
C317 C314 1.387 . S
C318 C319 1.387 . S
C318 H322 0.950 . S
C318 C327 1.390 . S
C319 C318 1.387 . S
C319 C321 1.387 1_655 S
H320 C327 0.950 . S
C321 C319 1.387 1_455 S
C321 C323 1.390 . S
C321 H325 0.950 . S
H322 C318 0.950 . S
C323 C321 1.390 . S
C323 C324 1.387 1_455 S
C323 H326 0.950 . S
C324 C323 1.387 1_655 S
C324 C327 1.387 . S
H325 C321 0.950 . S
H326 C323 0.950 . S
C327 C318 1.390 . S
C327 H320 0.950 . S
C327 C324 1.387 . S
C328 C329 1.387 1_565 S
C328 H332 0.950 . S
C328 C337 1.390 . S
C329 C328 1.387 1_545 S
C329 C331 1.387 . S
H330 C337 0.950 . S
C331 C329 1.387 . S
C331 C333 1.390 . S
C331 H335 0.950 . S
H332 C328 0.950 . S
C333 C331 1.390 . S
C333 C334 1.387 . S
C333 H336 0.950 . S
C334 C333 1.387 . S
C334 C337 1.387 1_545 S
H335 C331 0.950 . S
H336 C333 0.950 . S
C337 C328 1.390 . S
C337 H330 0.950 . S
C337 C334 1.387 1_565 S
C338 C339 1.387 . S
C338 H342 0.950 . S
C338 C347 1.390 . S
C339 C338 1.387 . S
C339 C341 1.387 . S
H340 C347 0.950 . S
C341 C339 1.387 . S
C341 C343 1.390 . S
C341 H345 0.950 . S
H342 C338 0.950 . S
C343 C341 1.390 . S
C343 C344 1.387 . S
C343 H346 0.950 . S
C344 C343 1.387 . S
C344 C347 1.387 . S
H345 C341 0.950 . S
H346 C343 0.950 . S
C347 C338 1.390 . S
C347 H340 0.950 . S
C347 C344 1.387 . S
C348 C349 1.387 . S
C348 H352 0.950 . S
C348 C357 1.390 . S
C349 C348 1.387 . S
C349 C351 1.387 . S
H350 C357 0.950 . S
C351 C349 1.387 . S
C351 C353 1.390 . S
C351 H355 0.950 . S
H352 C348 0.950 . S
C353 C351 1.390 . S
C353 C354 1.387 . S
C353 H356 0.950 . S
C354 C353 1.387 . S
C354 C357 1.387 . S
H355 C351 0.950 . S
H356 C353 0.950 . S
C357 C348 1.390 . S
C357 H350 0.950 . S
C357 C354 1.387 . S
C358 C359 1.387 . S
C358 H362 0.950 . S
C358 C367 1.390 . S
C359 C358 1.387 . S
C359 C361 1.387 . S
H360 C367 0.950 . S
C361 C359 1.387 . S
C361 C363 1.390 . S
C361 H365 0.950 . S
H362 C358 0.950 . S
C363 C361 1.390 . S
C363 C364 1.387 . S
C363 H366 0.950 1_455 S
C364 C363 1.387 . S
C364 C367 1.387 . S
H365 C361 0.950 . S
H366 C363 0.950 1_655 S
C367 C358 1.390 . S
C367 H360 0.950 . S
C367 C364 1.387 . S
C368 C369 1.387 1_565 S
C368 H372 0.950 . S
C368 C377 1.390 . S
C369 C368 1.387 1_545 S
C369 C371 1.387 . S
H370 C377 0.950 . S
C371 C369 1.387 . S
C371 C373 1.390 . S
C371 H375 0.950 . S
H372 C368 0.950 . S
C373 C371 1.390 . S
C373 C374 1.387 . S
C373 H376 0.950 . S
C374 C373 1.387 . S
C374 C377 1.387 1_545 S
H375 C371 0.950 . S
H376 C373 0.950 . S
C377 C368 1.390 . S
C377 H370 0.950 . S
C377 C374 1.387 1_565 S
C378 C379 1.387 . S
C378 H382 0.950 . S
C378 C387 1.390 . S
C379 C378 1.387 . S
C379 C381 1.387 . S
H380 C387 0.950 . S
C381 C379 1.387 . S
C381 C383 1.390 . S
C381 H385 0.950 . S
H382 C378 0.950 . S
C383 C381 1.390 . S
C383 C384 1.387 . S
C383 H386 0.950 . S
C384 C383 1.387 . S
C384 C387 1.387 . S
H385 C381 0.950 . S
H386 C383 0.950 . S
C387 C378 1.390 . S
C387 H380 0.950 . S
C387 C384 1.387 . S
C388 C389 1.387 . S
C388 H392 0.950 . S
C388 C397 1.390 . S
C389 C388 1.387 . S
C389 C391 1.387 . S
H390 C397 0.950 . S
C391 C389 1.387 . S
C391 C393 1.390 . S
C391 H395 0.950 . S
H392 C388 0.950 . S
C393 C391 1.390 . S
C393 C394 1.387 . S
C393 H396 0.950 . S
C394 C393 1.387 . S
C394 C397 1.387 . S
H395 C391 0.950 . S
H396 C393 0.950 . S
C397 C388 1.390 . S
C397 H390 0.950 . S
C397 C394 1.387 . S
C398 C399 1.387 . S
C398 H402 0.950 . S
C398 C407 1.390 . S
C399 C398 1.387 . S
C399 C401 1.387 . S
H400 C407 0.950 . S
C401 C399 1.387 . S
C401 C403 1.390 . S
C401 H405 0.950 . S
H402 C398 0.950 . S
C403 C401 1.390 . S
C403 C404 1.387 . S
C403 H406 0.950 . S
C404 C403 1.387 . S
C404 C407 1.387 . S
H405 C401 0.950 . S
H406 C403 0.950 . S
C407 C398 1.390 . S
C407 H400 0.950 . S
C407 C404 1.387 . S
C408 C409 1.387 1_545 S
C408 H412 0.950 . S
C408 C417 1.390 . S
C409 C408 1.387 1_565 S
C409 C411 1.387 . S
H410 C417 0.950 . S
C411 C409 1.387 . S
C411 C413 1.390 . S
C411 H415 0.950 . S
H412 C408 0.950 . S
C413 C411 1.390 . S
C413 C414 1.387 . S
C413 H416 0.950 . S
C414 C413 1.387 . S
C414 C417 1.387 1_565 S
H415 C411 0.950 . S
H416 C413 0.950 . S
C417 C408 1.390 . S
C417 H410 0.950 . S
C417 C414 1.387 1_545 S
C418 C419 1.387 . S
C418 H422 0.950 . S
C418 C427 1.390 . S
C419 C418 1.387 . S
C419 C421 1.387 . S
H420 C427 0.950 . S
C421 C419 1.387 . S
C421 C423 1.390 . S
C421 H425 0.950 . S
H422 C418 0.950 . S
C423 C421 1.390 . S
C423 C424 1.387 . S
C423 H426 0.950 . S
C424 C423 1.387 . S
C424 C427 1.387 . S
H425 C421 0.950 . S
H426 C423 0.950 . S
C427 C418 1.390 . S
C427 H420 0.950 . S
C427 C424 1.387 . S
C428 C429 1.387 . S
C428 H432 0.950 . S
C428 C437 1.390 . S
C429 C428 1.387 . S
C429 C431 1.387 . S
H430 C437 0.950 . S
C431 C429 1.387 . S
C431 C433 1.390 . S
C431 H435 0.950 . S
H432 C428 0.950 . S
C433 C431 1.390 . S
C433 C434 1.387 . S
C433 H436 0.950 . S
C434 C433 1.387 . S
C434 C437 1.387 . S
H435 C431 0.950 . S
H436 C433 0.950 . S
C437 C428 1.390 . S
C437 H430 0.950 . S
C437 C434 1.387 . S
C438 C439 1.387 . S
C438 H442 0.950 . S
C438 C447 1.390 . S
C439 C438 1.387 . S
C439 C441 1.387 1_655 S
H440 C447 0.950 . S
C441 C439 1.387 1_455 S
C441 C443 1.390 1_455 S
C441 H445 0.950 . S
H442 C438 0.950 . S
C443 C441 1.390 1_655 S
C443 C444 1.387 . S
C443 H446 0.950 . S
C444 C443 1.387 . S
C444 C447 1.387 . S
H445 C441 0.950 . S
H446 C443 0.950 . S
C447 C438 1.390 . S
C447 H440 0.950 . S
C447 C444 1.387 . S
C448 C449 1.415 1_556 S
C448 H452 0.950 . S
C448 C457 1.390 . S
C449 C448 1.415 1_554 S
C449 C451 1.360 1_545 S
H450 C457 0.950 . S
C451 C449 1.360 1_565 S
C451 C453 1.390 . S
C451 H455 0.950 . S
H452 C448 0.950 . S
C453 C451 1.390 . S
C453 C454 1.387 1_554 S
C453 H456 0.950 . S
C454 C453 1.387 1_556 S
C454 C457 1.387 1_565 S
H455 C451 0.950 . S
H456 C453 0.950 . S
C457 C448 1.390 . S
C457 H450 0.950 . S
C457 C454 1.387 1_545 S
C458 C459 1.387 . S
C458 H462 0.950 . S
C458 C467 1.390 . S
C459 C458 1.387 . S
C459 C461 1.387 1_554 S
H460 C467 0.950 . S
C461 C459 1.387 1_556 S
C461 C463 1.390 . S
C461 H465 0.950 . S
H462 C458 0.950 . S
C463 C461 1.390 . S
C463 C464 1.387 . S
C463 H466 0.950 . S
C464 C463 1.387 . S
C464 C467 1.387 1_556 S
H465 C461 0.950 . S
H466 C463 0.950 . S
C467 C458 1.390 . S
C467 H460 0.950 . S
C467 C464 1.387 1_554 S
C468 C469 1.387 1_554 S
C468 H472 0.950 . S
C468 C477 1.390 1_655 S
C469 C468 1.387 1_556 S
C469 C471 1.387 . S
H470 C477 0.950 . S
C471 C469 1.387 . S
C471 C473 1.390 1_655 S
C471 H475 0.950 . S
H472 C468 0.950 . S
C473 C471 1.390 1_455 S
C473 C474 1.387 1_556 S
C473 H476 0.950 . S
C474 C473 1.387 1_554 S
C474 C477 1.387 . S
H475 C471 0.950 . S
H476 C473 0.950 . S
C477 C468 1.390 1_455 S
C477 H470 0.950 . S
C477 C474 1.387 . S
C478 C479 1.405 1_556 S
C478 H482 0.950 . S
C478 C487 1.390 1_545 S
C479 C478 1.405 1_554 S
C479 C481 1.369 1_455 S
H480 C487 0.950 . S
C481 C479 1.369 1_655 S
C481 C483 1.390 1_545 S
C481 H485 0.950 . S
H482 C478 0.950 . S
C483 C481 1.390 1_565 S
C483 C484 1.411 1_554 S
C483 H486 0.950 . S
C484 C483 1.411 1_556 S
C484 C487 1.363 1_655 S
H485 C481 0.950 . S
H486 C483 0.950 . S
C487 C478 1.390 1_565 S
C487 H480 0.950 . S
C487 C484 1.363 1_455 S
C488 C489 1.369 1_565 S
C488 H492 0.950 . S
C488 C497 1.390 1_455 S
C489 C488 1.369 1_545 S
C489 C491 1.405 . S
H490 C497 0.950 . S
C491 C489 1.405 . S
C491 C493 1.390 1_455 S
C491 H495 0.950 . S
H492 C488 0.950 . S
C493 C491 1.390 1_655 S
C493 C494 1.363 1_545 S
C493 H496 0.950 . S
C494 C493 1.363 1_565 S
C494 C497 1.411 . S
H495 C491 0.950 . S
H496 C493 0.950 . S
C497 C488 1.390 1_655 S
C497 H490 0.950 . S
C497 C494 1.411 . S
C498 C499 1.387 . S
C498 H502 0.950 . S
C498 C507 1.390 1_565 S
C499 C498 1.387 . S
C499 C501 1.387 . S
H500 C507 0.950 . S
C501 C499 1.387 . S
C501 C503 1.390 1_565 S
C501 H505 0.950 . S
H502 C498 0.950 . S
C503 C501 1.390 1_545 S
C503 C504 1.387 . S
C503 H506 0.950 . S
C504 C503 1.387 . S
C504 C507 1.387 . S
H505 C501 0.950 . S
H506 C503 0.950 . S
C507 C498 1.390 1_545 S
C507 H500 0.950 . S
C507 C504 1.387 . S
C508 C509 1.387 . S
C508 H512 0.950 . S
C508 C517 1.390 . S
C509 C508 1.387 . S
C509 C511 1.387 . S
H510 C517 0.950 . S
C511 C509 1.387 . S
C511 C513 1.390 . S
C511 H515 0.950 . S
H512 C508 0.950 . S
C513 C511 1.390 . S
C513 C514 1.387 . S
C513 H516 0.950 . S
C514 C513 1.387 . S
C514 C517 1.387 . S
H515 C511 0.950 . S
H516 C513 0.950 . S
C517 C508 1.390 . S
C517 H510 0.950 . S
C517 C514 1.387 . S
C518 C519 1.411 . S
C518 H522 0.950 . S
C518 C527 1.390 . S
C519 C518 1.411 . S
C519 C521 1.364 1_655 S
H520 C527 0.950 . S
C521 C519 1.364 1_455 S
C521 C523 1.390 . S
C521 H525 0.950 . S
H522 C518 0.950 . S
C523 C521 1.390 . S
C523 C524 1.387 . S
C523 H526 0.950 . S
C524 C523 1.387 . S
C524 C527 1.387 1_455 S
H525 C521 0.950 . S
H526 C523 0.950 . S
C527 C518 1.390 . S
C527 H520 0.950 . S
C527 C524 1.387 1_655 S
C209 C66 1.059 . S
C214 C10 1.128 . S
C219 C88 1.210 . S
C224 C14 1.149 . S
C229 C36 1.123 . S
C234 C92 1.080 . S
C239 C40 0.945 . S
C244 C62 0.979 . S
C249 C114 1.083 . S
C254 C179 1.057 . S
C259 C192 1.153 . S
C264 C127 1.150 . S
C269 C205 1.084 . S
C274 C140 1.057 . S
C279 C153 0.944 . S
C284 C166 0.944 . S
C289 C5 1.982 . S
C294 C157 1.973 1_565 S
C299 C170 1.993 . S
C304 C16 1.892 . S
C309 C31 2.053 . S
C314 C183 2.060 . S
C319 C42 1.889 . S
C324 C196 2.005 1_655 S
C329 C57 2.008 . S
C334 C105 2.004 1_545 S
C339 C68 1.932 . S
C344 C118 2.061 . S
C349 C83 1.998 . S
C354 C131 1.994 . S
C359 C94 1.868 . S
C364 C144 1.972 1_455 S
C369 C53 1.917 . S
C374 C109 1.868 . S
C379 C75 1.994 . S
C384 C122 1.890 . S
C389 C79 2.012 . S
C394 C135 1.931 . S
C399 C148 1.887 . S
C404 C101 2.004 1_455 S
C409 C1 1.948 . S
C414 C161 1.889 . S
C419 C174 1.933 . S
C424 C23 2.061 . S
C429 C187 1.891 . S
C434 C27 1.954 . S
C439 C49 1.972 1_655 S
C444 C200 1.865 . S
C449 C107 1.650 1_544 S
C454 C3 1.615 1_556 S
C459 C120 1.659 1_554 S
C464 C18 1.659 1_556 S
C469 C29 1.765 1_556 S
C474 C133 1.767 1_554 S
C479 C146 1.759 1_454 S
C484 C44 1.759 1_656 S
C489 C55 1.721 . S
C494 C159 1.759 1_565 S
C499 C172 1.765 . S
C504 C70 1.765 . S
C509 C185 1.657 . S
C514 C81 1.649 . S
C519 C198 1.650 1_655 S
C524 C96 1.654 1_455 S
