# Generated by pormake.
# Topology smu, (6)-cn, num edge types: 1
# Building blocks:
#     Node 0, Type 0, BuildingBlock: BETDEL_clean_sbu_0, # of connection points: 6
#     Node 1, Type 0, BuildingBlock: BETDEL_clean_sbu_0, # of connection points: 6
#     Node 2, Type 0, BuildingBlock: BETDEL_clean_sbu_0, # of connection points: 6
#     Node 3, Type 0, BuildingBlock: BETDEL_clean_sbu_0, # of connection points: 6
#     Node 4, Type 0, BuildingBlock: BETDEL_clean_sbu_0, # of connection points: 6
#     Node 5, Type 0, BuildingBlock: BETDEL_clean_sbu_0, # of connection points: 6
#     Edge 6, Type (0, 0), BuildingBlock: OJICUG_clean_linker_0, # of connection points: 2
#     Edge 7, Type (0, 0), BuildingBlock: OJICUG_clean_linker_0, # of connection points: 2
#     Edge 8, Type (0, 0), BuildingBlock: OJICUG_clean_linker_0, # of connection points: 2
#     Edge 9, Type (0, 0), BuildingBlock: OJICUG_clean_linker_0, # of connection points: 2
#     Edge 10, Type (0, 0), BuildingBlock: OJICUG_clean_linker_0, # of connection points: 2
#     Edge 11, Type (0, 0), BuildingBlock: OJICUG_clean_linker_0, # of connection points: 2
#     Edge 12, Type (0, 0), BuildingBlock: OJICUG_clean_linker_0, # of connection points: 2
#     Edge 13, Type (0, 0), BuildingBlock: OJICUG_clean_linker_0, # of connection points: 2
#     Edge 14, Type (0, 0), BuildingBlock: OJICUG_clean_linker_0, # of connection points: 2
#     Edge 15, Type (0, 0), BuildingBlock: OJICUG_clean_linker_0, # of connection points: 2
#     Edge 16, Type (0, 0), BuildingBlock: OJICUG_clean_linker_0, # of connection points: 2
#     Edge 17, Type (0, 0), BuildingBlock: OJICUG_clean_linker_0, # of connection points: 2
#     Edge 18, Type (0, 0), BuildingBlock: OJICUG_clean_linker_0, # of connection points: 2
#     Edge 19, Type (0, 0), BuildingBlock: OJICUG_clean_linker_0, # of connection points: 2
#     Edge 20, Type (0, 0), BuildingBlock: OJICUG_clean_linker_0, # of connection points: 2
#     Edge 21, Type (0, 0), BuildingBlock: OJICUG_clean_linker_0, # of connection points: 2
#     Edge 22, Type (0, 0), BuildingBlock: OJICUG_clean_linker_0, # of connection points: 2
#     Edge 23, Type (0, 0), BuildingBlock: OJICUG_clean_linker_0, # of connection points: 2
# Relax obj value: 0.198
# Max RMSD: 0.273
# Mean RMSD: 0.273
data_MOF--net-smu--node1-BETDEL_clean_sbu_0--edge1-OJICUG_clean_linker_0
_symmetry_space_group_name_H-M    P1
_symmetry_Int_Tables_number       1
_symmetry_cell_setting            triclinic
loop_
_symmetry_equiv_pos_as_xyz
'x, y, z'
_cell_length_a     23.582211
_cell_length_b     23.754108
_cell_length_c     19.250734
_cell_angle_alpha  90.353271
_cell_angle_beta   89.907494
_cell_angle_gamma 120.1045
loop_
_atom_site_label
_atom_site_type_symbol
_atom_site_fract_x
_atom_site_fract_y
_atom_site_fract_z
_atom_type_partial_charge
Dy0 Dy 0.40199 0.09313 0.29259 0.0
C1 C 0.23513 0.19591 0.29681 0.0
C2 C 0.51257 0.08492 0.26861 0.0
Dy3 Dy 0.29831 0.12751 0.29429 0.0
O4 O 0.47346 0.05968 0.32136 0.0
O5 O 0.48671 0.10775 0.22601 0.0
O6 O 0.42742 0.12798 0.40438 0.0
O7 O 0.33226 0.08604 0.3727 0.0
C8 C 0.36793 0.10768 0.42543 0.0
C9 C 0.29887 0.07086 0.1751 0.0
O10 O 0.38486 0.22136 0.32427 0.0
O11 O 0.45721 0.20107 0.2683 0.0
O12 O 0.27 0.19467 0.24548 0.0
O13 O 0.23127 0.15656 0.34604 0.0
O14 O 0.24749 0.06856 0.20245 0.0
O15 O 0.35099 0.11147 0.2079 0.0
O16 O 0.31127 0.99193 0.28429 0.0
O17 O 0.23916 0.02465 0.32705 0.0
C18 C 0.44144 0.24294 0.294 0.0
C19 C 0.25256 0.97837 0.30886 0.0
Dy20 Dy 0.71887 0.63216 0.28495 0.0
C21 C 0.99112 0.79148 0.30859 0.0
C22 C 0.60151 0.52209 0.25454 0.0
Dy23 Dy 0.85905 0.73029 0.29601 0.0
O24 O 0.6111 0.56256 0.30513 0.0
O25 O 0.65369 0.54688 0.21636 0.0
O26 O 0.71772 0.60587 0.39854 0.0
O27 O 0.77766 0.69964 0.36863 0.0
C28 C 0.75754 0.66417 0.42138 0.0
C29 C 0.81114 0.73382 0.17167 0.0
O30 O 0.8595 0.64274 0.33239 0.0
O31 O 0.77144 0.57518 0.2673 0.0
O32 O 0.95777 0.75281 0.258 0.0
O33 O 0.95254 0.79905 0.35159 0.0
O34 O 0.86094 0.78262 0.20135 0.0
O35 O 0.79455 0.68123 0.20513 0.0
O36 O 0.71421 0.72542 0.27209 0.0
O37 O 0.81733 0.79237 0.32246 0.0
C38 C 0.82585 0.58768 0.29946 0.0
C39 C 0.76032 0.78278 0.29837 0.0
Dy40 Dy 0.94408 0.3134 0.29082 0.0
C41 C 0.84441 0.04472 0.29796 0.0
C42 C 0.94732 0.42887 0.26707 0.0
Dy43 Dy 0.91053 0.1756 0.29217 0.0
O44 O 0.97547 0.41767 0.31898 0.0
O45 O 0.92436 0.37959 0.2249 0.0
O46 O 0.91596 0.30559 0.40474 0.0
O47 O 0.95659 0.253 0.36871 0.0
C48 C 0.93776 0.26735 0.42325 0.0
C49 C 0.95961 0.23033 0.17082 0.0
O50 O 0.81707 0.16754 0.32702 0.0
O51 O 0.83476 0.25895 0.27193 0.0
O52 O 0.83974 0.0783 0.24792 0.0
O53 O 0.88812 0.08246 0.34365 0.0
O54 O 0.96376 0.18197 0.19577 0.0
O55 O 0.9208 0.24165 0.20724 0.0
O56 O 0.04552 0.32651 0.2749 0.0
O57 O 1.01637 0.22318 0.31754 0.0
C58 C 0.79404 0.20183 0.29884 0.0
C59 C 0.06108 0.28268 0.29709 0.0
Dy60 Dy 0.05282 0.30213 0.77733 0.0
C61 C 0.31916 0.462 0.79218 0.0
C62 C 0.94217 0.18821 0.74061 0.0
Dy63 Dy 0.18474 0.3836 0.7833 0.0
O64 O 0.94635 0.22637 0.79155 0.0
O65 O 0.99645 0.21605 0.70599 0.0
O66 O 0.02782 0.33048 0.87478 0.0
O67 O 0.11516 0.3246 0.87051 0.0
C68 C 0.07816 0.33746 0.90898 0.0
C69 C 0.12604 0.35221 0.65211 0.0
O70 O 0.188 0.30413 0.83458 0.0
O71 O 0.10353 0.24082 0.76508 0.0
O72 O 0.28825 0.41504 0.74784 0.0
O73 O 0.27655 0.46828 0.82932 0.0
O74 O 0.17177 0.34017 0.67069 0.0
O75 O 0.11278 0.37344 0.70421 0.0
O76 O 0.05709 0.3993 0.75853 0.0
O77 O 0.15885 0.45874 0.80924 0.0
C78 C 0.15463 0.24937 0.80189 0.0
C79 C 0.10426 0.45472 0.78682 0.0
Dy80 Dy 0.2816 0.98948 0.79124 0.0
C81 C 0.1975 0.72576 0.78052 0.0
C82 C 0.29093 0.10633 0.76651 0.0
Dy83 Dy 0.24521 0.85734 0.77963 0.0
O84 O 0.31696 0.09384 0.81987 0.0
O85 O 0.26837 0.05776 0.72324 0.0
O86 O 0.22431 0.97102 0.88778 0.0
O87 O 0.27757 0.92358 0.87386 0.0
C88 C 0.24414 0.9354 0.91724 0.0
C89 C 0.27082 0.92682 0.65764 0.0
O90 O 0.1521 0.84465 0.81509 0.0
O91 O 0.17415 0.93406 0.75498 0.0
O92 O 0.23767 0.76553 0.73425 0.0
O93 O 0.18667 0.75837 0.82751 0.0
O94 O 0.21681 0.87224 0.66784 0.0
O95 O 0.30282 0.94068 0.71191 0.0
O96 O 0.3835 0.99819 0.79491 0.0
O97 O 0.34546 0.88776 0.81139 0.0
C98 C 0.13081 0.87844 0.78379 0.0
C99 C 0.39385 0.9484 0.80744 0.0
Dy100 Dy 0.74324 0.76004 0.78986 0.0
C101 C 0.56519 0.85018 0.79691 0.0
C102 C 0.84988 0.75003 0.75693 0.0
Dy103 Dy 0.64505 0.79725 0.78536 0.0
O104 O 0.81246 0.72286 0.811 0.0
O105 O 0.82366 0.77505 0.71785 0.0
O106 O 0.78627 0.81924 0.88493 0.0
O107 O 0.68481 0.76669 0.87571 0.0
C108 C 0.73184 0.79991 0.91749 0.0
C109 C 0.68111 0.76564 0.66038 0.0
O110 O 0.73025 0.89073 0.81171 0.0
O111 O 0.79317 0.86442 0.74748 0.0
O112 O 0.56652 0.81651 0.74402 0.0
O113 O 0.60374 0.85065 0.84502 0.0
O114 O 0.67543 0.81695 0.66863 0.0
O115 O 0.66858 0.73772 0.71682 0.0
O116 O 0.6483 0.65924 0.79756 0.0
O117 O 0.5755 0.69759 0.81651 0.0
C118 C 0.78292 0.90955 0.77537 0.0
C119 C 0.588 0.64935 0.8125 0.0
C120 C 0.21407 0.93971 1.03874 0.0
C121 C 0.26374 0.9531 0.99078 0.0
H122 H 0.18673 0.96632 0.1333 0.0
C123 C 0.32878 1.00079 1.00815 0.0
H124 H 0.16352 0.90465 1.02623 0.0
C125 C 0.34261 0.03754 0.07025 0.0
C126 C 0.29136 0.02741 0.1152 0.0
H127 H 0.36788 1.0136 0.971 0.0
H128 H 0.39215 0.07639 0.08054 0.0
C129 C 0.22761 0.97622 0.09977 0.0
C130 C 0.6994 0.76104 0.53089 0.0
C131 C 0.70192 0.74156 0.59866 0.0
H132 H 0.70818 0.74651 0.42278 0.0
C133 C 0.72046 0.69375 0.60771 0.0
H134 H 0.68294 0.79546 0.52138 0.0
C135 C 0.73915 0.66873 0.55111 0.0
C136 C 0.73791 0.68929 0.48339 0.0
H137 H 0.72071 0.67552 0.65905 0.0
H138 H 0.75428 0.63324 0.56032 0.0
C139 C 0.71537 0.73386 0.47426 0.0
C140 C 0.99638 0.31946 0.08132 0.0
C141 C 0.99878 0.26641 0.10912 0.0
H142 H 1.02352 0.38616 0.99656 0.0
C143 C 0.03973 0.24635 0.0769 0.0
H144 H 0.96639 0.33679 0.10537 0.0
C145 C 0.07327 0.27507 1.01525 0.0
C146 C 0.06658 0.32459 0.98439 0.0
H147 H 0.04381 0.20627 0.09774 0.0
H148 H 0.0998 0.25487 0.989 0.0
C149 C 0.03008 0.34832 1.01967 0.0
C150 C 0.38588 0.06161 0.53583 0.0
C151 C 0.34318 0.06911 0.49114 0.0
H152 H 0.39598 1.01036 0.62169 0.0
C153 C 0.27501 0.02977 0.50297 0.0
H154 H 0.43843 0.09037 0.52861 0.0
C155 C 0.25025 0.98162 0.55502 0.0
C156 C 0.29326 0.97288 0.59781 0.0
H157 H 0.24056 0.03481 0.47022 0.0
H158 H 0.19778 0.95198 0.56224 0.0
C159 C 0.36128 0.01472 0.58855 0.0
C160 C 0.77405 0.82721 1.03769 0.0
C161 C 0.73276 0.77937 0.99022 0.0
H162 H 0.83011 0.85 0.13065 0.0
C163 C 0.7104 0.71345 1.00653 0.0
H164 H 0.79332 0.87823 1.02617 0.0
C165 C 0.7324 0.69658 0.06718 0.0
C166 C 0.7777 0.74551 0.1119 0.0
H167 H 0.68004 0.67541 0.96982 0.0
H168 H 0.71707 0.64605 0.07677 0.0
C169 C 0.79605 0.81064 0.09725 0.0
C170 C 1.0186 0.25283 0.49735 0.0
C171 C 0.97995 0.28241 0.48684 0.0
H172 H 0.09639 0.25181 0.55595 0.0
C173 C 0.99096 0.33422 0.53079 0.0
H174 H 1.01179 0.21289 0.46423 0.0
C175 C 0.0399 0.35695 0.58191 0.0
C176 C 0.0797 0.32876 0.59159 0.0
H177 H 0.96329 0.35897 0.52425 0.0
H178 H 0.04684 0.39752 0.61409 0.0
C179 C 0.06802 0.27577 0.54901 0.0
C180 C 0.61078 0.08734 0.32239 0.0
C181 C 0.58409 0.10923 0.27132 0.0
H182 H 0.6979 0.09956 0.37135 0.0
C183 C 0.62706 0.16207 0.22951 0.0
H184 H 0.57899 0.04746 0.35607 0.0
C185 C 0.69505 0.19337 0.23969 0.0
C186 C 0.72182 0.17185 0.29111 0.0
H187 H 0.60807 0.18086 0.19035 0.0
H188 H 0.72663 0.23408 0.20682 0.0
C189 C 0.67889 0.11783 0.33166 0.0
C190 C 0.56792 0.40737 0.22022 0.0
C191 C 0.55543 0.45075 0.25862 0.0
H192 H 0.54342 0.30823 0.20244 0.0
C193 C 0.50555 0.42509 0.30866 0.0
H194 H 0.60678 0.42558 0.18197 0.0
C195 C 0.46945 0.35786 0.3205 0.0
C196 C 0.48294 0.3145 0.28337 0.0
H197 H 0.49539 0.45711 0.33987 0.0
H198 H 0.43129 0.33993 0.35953 0.0
C199 C 0.5324 0.34012 0.23273 0.0
C200 C 0.86846 0.46385 0.22745 0.0
C201 C 0.92114 0.47408 0.27052 0.0
H202 H 0.79562 0.49002 0.20392 0.0
C203 C 0.94114 0.52097 0.32356 0.0
H204 H 0.85109 0.42723 0.18676 0.0
C205 C 0.90911 0.55659 0.33358 0.0
C206 C 0.85563 0.54566 0.2914 0.0
H207 H 0.98075 0.52926 0.35826 0.0
H208 H 0.92618 0.59261 0.37488 0.0
C209 C 0.83583 0.49897 0.23801 0.0
C210 C 0.13797 0.55341 0.71797 0.0
C211 C 0.10731 0.51738 0.77788 0.0
H212 H 0.19224 0.64821 0.67229 0.0
C213 C 0.10241 0.54974 0.83669 0.0
H214 H 0.14446 0.52965 0.6729 0.0
C215 C 0.12998 0.61741 0.83656 0.0
C216 C 0.16455 0.65397 0.77825 0.0
H217 H 0.08123 0.52325 0.88426 0.0
H218 H 0.12711 0.6414 0.88337 0.0
C219 C 0.16664 0.62126 0.71821 0.0
C220 C 0.48386 0.94266 0.86521 0.0
C221 C 0.4585 0.95358 0.80402 0.0
H222 H 0.53736 0.90098 0.91097 0.0
C223 C 0.4754 0.93721 0.73999 0.0
H224 H 0.4696 0.95246 0.91537 0.0
C225 C 0.51094 0.90445 0.73757 0.0
C226 C 0.53172 0.88889 0.79913 0.0
H227 H 0.45461 0.94288 0.69216 0.0
H228 H 0.5198 0.88898 0.68767 0.0
C229 C 0.52093 0.91139 0.86273 0.0
C230 C 0.43493 0.50363 0.7497 0.0
C231 C 0.39141 0.4998 0.80216 0.0
H232 H 0.53455 0.55383 0.71277 0.0
C233 C 0.41755 0.53387 0.86452 0.0
H234 H 0.41612 0.47721 0.70132 0.0
C235 C 0.48518 0.57511 0.87218 0.0
C236 C 0.52842 0.5845 0.81718 0.0
H237 H 0.38548 0.53095 0.90643 0.0
H238 H 0.5031 0.60496 0.91867 0.0
C239 C 0.50295 0.54619 0.75689 0.0
C240 C 0.186 0.25139 0.36175 0.0
C241 C 0.20558 0.23729 0.29853 0.0
H242 H 0.12818 0.28608 0.41079 0.0
C243 C 0.19435 0.26096 0.23639 0.0
H244 H 0.19609 0.23546 0.41045 0.0
C245 C 0.15543 0.28995 0.2367 0.0
C246 C 0.1282 0.29562 0.29917 0.0
H247 H 0.21059 0.25191 0.18706 0.0
H248 H 0.13984 0.29981 0.18762 0.0
C249 C 0.14858 0.28174 0.36205 0.0
C250 C 0.10114 0.83098 0.25516 0.0
C251 C 0.06277 0.82477 0.31382 0.0
H252 H 0.19648 0.88444 0.20871 0.0
C253 C 0.09351 0.85513 0.37611 0.0
H254 H 0.07833 0.80666 0.20679 0.0
C255 C 0.16081 0.89774 0.37742 0.0
C256 C 0.19783 0.91187 0.31618 0.0
H257 H 0.0651 0.84955 0.4225 0.0
H258 H 0.18235 0.92544 0.42429 0.0
C259 C 0.16877 0.87459 0.25639 0.0
C260 C 0.80356 0.94363 0.36461 0.0
C261 C 0.80497 0.97394 0.30236 0.0
H262 H 0.78398 0.85603 0.41277 0.0
C263 C 0.77156 0.936 0.24381 0.0
H264 H 0.82748 0.97189 0.41083 0.0
C265 C 0.74471 0.86843 0.24527 0.0
C266 C 0.75173 0.83931 0.30511 0.0
H267 H 0.77083 0.95881 0.19553 0.0
H268 H 0.72572 0.84056 0.19776 0.0
C269 C 0.7767 0.87675 0.36612 0.0
C270 C 0.17545 0.17068 0.73424 0.0
C271 C 0.18582 0.20901 0.79376 0.0
H272 H 0.20311 0.11041 0.67724 0.0
C273 C 0.23468 0.21704 0.84142 0.0
H274 H 0.13932 0.16484 0.69585 0.0
C275 C 0.272 0.18713 0.83028 0.0
C276 C 0.26157 0.14853 0.77108 0.0
H277 H 0.24444 0.24696 0.88751 0.0
H278 H 0.30785 0.19287 0.869 0.0
C279 C 0.21315 0.1409 0.72289 0.0
C280 C 0.03019 0.86171 0.7199 0.0
C281 C 0.05894 0.84736 0.77554 0.0
H282 H 0.94073 0.83955 0.66842 0.0
C283 C 1.01832 0.79659 0.82104 0.0
H284 H 0.06026 0.89957 0.68335 0.0
C285 C 0.95052 0.76166 0.81208 0.0
C286 C 0.92146 0.77647 0.7573 0.0
H287 H 0.03896 0.78393 0.86436 0.0
H288 H 0.92074 0.72456 0.84948 0.0
C289 C 0.96195 0.82632 0.71068 0.0
C290 C 0.84474 0.0904 0.78779 0.0
C291 C 0.89676 0.11695 0.74063 0.0
H292 H 0.76983 1.00546 0.83642 0.0
C293 C 0.91117 0.07456 0.70278 0.0
H294 H 0.83296 0.12162 0.81835 0.0
C295 C 0.87511 1.00687 0.71365 0.0
C296 C 0.82404 0.98065 0.76246 0.0
H297 H 0.95184 0.09387 0.66669 0.0
H298 H 0.88746 0.97537 0.68447 0.0
C299 C 0.80901 0.02344 0.79855 0.0
loop_
_geom_bond_atom_site_label_1
_geom_bond_atom_site_label_2
_geom_bond_distance
_geom_bond_site_symmetry_2
_ccdc_geom_bond_type
Dy0 O4 2.398 . S
Dy0 O5 2.491 . S
Dy0 O6 2.403 . S
Dy0 O7 2.664 . S
Dy0 O11 2.326 . S
Dy0 O15 2.310 . S
Dy0 O16 2.351 1_545 S
C1 O12 1.185 . S
C1 O13 1.355 . S
C2 O4 1.185 . S
C2 O5 1.355 . S
Dy3 O7 2.310 . S
Dy3 O10 2.351 . S
Dy3 O12 2.398 . S
Dy3 O13 2.491 . S
Dy3 O14 2.403 . S
Dy3 O15 2.664 . S
Dy3 O17 2.326 . S
O4 Dy0 2.398 . S
O4 C2 1.185 . S
O5 Dy0 2.491 . S
O5 C2 1.355 . S
O6 Dy0 2.403 . S
O6 C8 1.254 . S
O7 Dy0 2.664 . S
O7 Dy3 2.310 . S
O7 C8 1.268 . S
C8 O6 1.254 . S
C8 O7 1.268 . S
C9 O14 1.254 . S
C9 O15 1.268 . S
O10 Dy3 2.351 . S
O10 C18 1.249 . S
O11 Dy0 2.326 . S
O11 C18 1.267 . S
O12 C1 1.185 . S
O12 Dy3 2.398 . S
O13 C1 1.355 . S
O13 Dy3 2.491 . S
O14 Dy3 2.403 . S
O14 C9 1.254 . S
O15 Dy0 2.310 . S
O15 Dy3 2.664 . S
O15 C9 1.268 . S
O16 Dy0 2.351 1_565 S
O16 C19 1.249 . S
O17 Dy3 2.326 . S
O17 C19 1.267 1_545 S
C18 O10 1.249 . S
C18 O11 1.267 . S
C19 O16 1.249 . S
C19 O17 1.267 1_565 S
Dy20 O24 2.398 . S
Dy20 O25 2.491 . S
Dy20 O26 2.403 . S
Dy20 O27 2.664 . S
Dy20 O31 2.326 . S
Dy20 O35 2.310 . S
Dy20 O36 2.351 . S
C21 O32 1.185 . S
C21 O33 1.355 . S
C22 O24 1.185 . S
C22 O25 1.355 . S
Dy23 O27 2.310 . S
Dy23 O30 2.351 . S
Dy23 O32 2.398 . S
Dy23 O33 2.491 . S
Dy23 O34 2.403 . S
Dy23 O35 2.664 . S
Dy23 O37 2.326 . S
O24 Dy20 2.398 . S
O24 C22 1.185 . S
O25 Dy20 2.491 . S
O25 C22 1.355 . S
O26 Dy20 2.403 . S
O26 C28 1.254 . S
O27 Dy20 2.664 . S
O27 Dy23 2.310 . S
O27 C28 1.268 . S
C28 O26 1.254 . S
C28 O27 1.268 . S
C29 O34 1.254 . S
C29 O35 1.268 . S
O30 Dy23 2.351 . S
O30 C38 1.249 . S
O31 Dy20 2.326 . S
O31 C38 1.267 . S
O32 C21 1.185 . S
O32 Dy23 2.398 . S
O33 C21 1.355 . S
O33 Dy23 2.491 . S
O34 Dy23 2.403 . S
O34 C29 1.254 . S
O35 Dy20 2.310 . S
O35 Dy23 2.664 . S
O35 C29 1.268 . S
O36 Dy20 2.351 . S
O36 C39 1.249 . S
O37 Dy23 2.326 . S
O37 C39 1.267 . S
C38 O30 1.249 . S
C38 O31 1.267 . S
C39 O36 1.249 . S
C39 O37 1.267 . S
Dy40 O44 2.398 . S
Dy40 O45 2.491 . S
Dy40 O46 2.403 . S
Dy40 O47 2.664 . S
Dy40 O51 2.326 . S
Dy40 O55 2.310 . S
Dy40 O56 2.351 1_655 S
C41 O52 1.185 . S
C41 O53 1.355 . S
C42 O44 1.185 . S
C42 O45 1.355 . S
Dy43 O47 2.310 . S
Dy43 O50 2.351 . S
Dy43 O52 2.398 . S
Dy43 O53 2.491 . S
Dy43 O54 2.403 . S
Dy43 O55 2.664 . S
Dy43 O57 2.326 . S
O44 Dy40 2.398 . S
O44 C42 1.185 . S
O45 Dy40 2.491 . S
O45 C42 1.355 . S
O46 Dy40 2.403 . S
O46 C48 1.254 . S
O47 Dy40 2.664 . S
O47 Dy43 2.310 . S
O47 C48 1.268 . S
C48 O46 1.254 . S
C48 O47 1.268 . S
C49 O54 1.254 . S
C49 O55 1.268 . S
O50 Dy43 2.351 . S
O50 C58 1.249 . S
O51 Dy40 2.326 . S
O51 C58 1.267 . S
O52 C41 1.185 . S
O52 Dy43 2.398 . S
O53 C41 1.355 . S
O53 Dy43 2.491 . S
O54 Dy43 2.403 . S
O54 C49 1.254 . S
O55 Dy40 2.310 . S
O55 Dy43 2.664 . S
O55 C49 1.268 . S
O56 Dy40 2.351 1_455 S
O56 C59 1.249 . S
O57 Dy43 2.326 . S
O57 C59 1.267 1_655 S
C58 O50 1.249 . S
C58 O51 1.267 . S
C59 O56 1.249 . S
C59 O57 1.267 1_455 S
Dy60 O64 2.398 1_455 S
Dy60 O65 2.491 1_455 S
Dy60 O66 2.403 . S
Dy60 O67 2.664 . S
Dy60 O71 2.326 . S
Dy60 O75 2.310 . S
Dy60 O76 2.351 . S
C61 O72 1.185 . S
C61 O73 1.355 . S
C62 O64 1.185 . S
C62 O65 1.355 . S
Dy63 O67 2.310 . S
Dy63 O70 2.351 . S
Dy63 O72 2.398 . S
Dy63 O73 2.491 . S
Dy63 O74 2.403 . S
Dy63 O75 2.664 . S
Dy63 O77 2.326 . S
O64 Dy60 2.398 1_655 S
O64 C62 1.185 . S
O65 Dy60 2.491 1_655 S
O65 C62 1.355 . S
O66 Dy60 2.403 . S
O66 C68 1.254 . S
O67 Dy60 2.664 . S
O67 Dy63 2.310 . S
O67 C68 1.268 . S
C68 O66 1.254 . S
C68 O67 1.268 . S
C69 O74 1.254 . S
C69 O75 1.268 . S
O70 Dy63 2.351 . S
O70 C78 1.249 . S
O71 Dy60 2.326 . S
O71 C78 1.267 . S
O72 C61 1.185 . S
O72 Dy63 2.398 . S
O73 C61 1.355 . S
O73 Dy63 2.491 . S
O74 Dy63 2.403 . S
O74 C69 1.254 . S
O75 Dy60 2.310 . S
O75 Dy63 2.664 . S
O75 C69 1.268 . S
O76 Dy60 2.351 . S
O76 C79 1.249 . S
O77 Dy63 2.326 . S
O77 C79 1.267 . S
C78 O70 1.249 . S
C78 O71 1.267 . S
C79 O76 1.249 . S
C79 O77 1.267 . S
Dy80 O84 2.398 1_565 S
Dy80 O85 2.491 1_565 S
Dy80 O86 2.403 . S
Dy80 O87 2.664 . S
Dy80 O91 2.326 . S
Dy80 O95 2.310 . S
Dy80 O96 2.351 . S
C81 O92 1.185 . S
C81 O93 1.355 . S
C82 O84 1.185 . S
C82 O85 1.355 . S
Dy83 O87 2.310 . S
Dy83 O90 2.351 . S
Dy83 O92 2.398 . S
Dy83 O93 2.491 . S
Dy83 O94 2.403 . S
Dy83 O95 2.664 . S
Dy83 O97 2.326 . S
O84 Dy80 2.398 1_545 S
O84 C82 1.185 . S
O85 Dy80 2.491 1_545 S
O85 C82 1.355 . S
O86 Dy80 2.403 . S
O86 C88 1.254 . S
O87 Dy80 2.664 . S
O87 Dy83 2.310 . S
O87 C88 1.268 . S
C88 O86 1.254 . S
C88 O87 1.268 . S
C89 O94 1.254 . S
C89 O95 1.268 . S
O90 Dy83 2.351 . S
O90 C98 1.249 . S
O91 Dy80 2.326 . S
O91 C98 1.267 . S
O92 C81 1.185 . S
O92 Dy83 2.398 . S
O93 C81 1.355 . S
O93 Dy83 2.491 . S
O94 Dy83 2.403 . S
O94 C89 1.254 . S
O95 Dy80 2.310 . S
O95 Dy83 2.664 . S
O95 C89 1.268 . S
O96 Dy80 2.351 . S
O96 C99 1.249 . S
O97 Dy83 2.326 . S
O97 C99 1.267 . S
C98 O90 1.249 . S
C98 O91 1.267 . S
C99 O96 1.249 . S
C99 O97 1.267 . S
Dy100 O104 2.398 . S
Dy100 O105 2.491 . S
Dy100 O106 2.403 . S
Dy100 O107 2.664 . S
Dy100 O111 2.326 . S
Dy100 O115 2.310 . S
Dy100 O116 2.351 . S
C101 O112 1.185 . S
C101 O113 1.355 . S
C102 O104 1.185 . S
C102 O105 1.355 . S
Dy103 O107 2.310 . S
Dy103 O110 2.351 . S
Dy103 O112 2.398 . S
Dy103 O113 2.491 . S
Dy103 O114 2.403 . S
Dy103 O115 2.664 . S
Dy103 O117 2.326 . S
O104 Dy100 2.398 . S
O104 C102 1.185 . S
O105 Dy100 2.491 . S
O105 C102 1.355 . S
O106 Dy100 2.403 . S
O106 C108 1.254 . S
O107 Dy100 2.664 . S
O107 Dy103 2.310 . S
O107 C108 1.268 . S
C108 O106 1.254 . S
C108 O107 1.268 . S
C109 O114 1.254 . S
C109 O115 1.268 . S
O110 Dy103 2.351 . S
O110 C118 1.249 . S
O111 Dy100 2.326 . S
O111 C118 1.267 . S
O112 C101 1.185 . S
O112 Dy103 2.398 . S
O113 C101 1.355 . S
O113 Dy103 2.491 . S
O114 Dy103 2.403 . S
O114 C109 1.254 . S
O115 Dy100 2.310 . S
O115 Dy103 2.664 . S
O115 C109 1.268 . S
O116 Dy100 2.351 . S
O116 C119 1.249 . S
O117 Dy103 2.326 . S
O117 C119 1.267 . S
C118 O110 1.249 . S
C118 O111 1.267 . S
C119 O116 1.249 . S
C119 O117 1.267 . S
C120 C121 1.387 . S
C120 H124 0.950 . S
C120 C129 1.390 1_566 S
C121 C120 1.387 . S
C121 C123 1.387 . S
H122 C129 0.950 . S
C123 C121 1.387 . S
C123 C125 1.390 1_566 S
C123 H127 0.950 . S
H124 C120 0.950 . S
C125 C123 1.390 1_544 S
C125 C126 1.387 . S
C125 H128 0.950 . S
C126 C125 1.387 . S
C126 C129 1.387 . S
H127 C123 0.950 . S
H128 C125 0.950 . S
C129 C120 1.390 1_544 S
C129 H122 0.950 . S
C129 C126 1.387 . S
C130 C131 1.387 . S
C130 H134 0.950 . S
C130 C139 1.390 . S
C131 C130 1.387 . S
C131 C133 1.387 . S
H132 C139 0.950 . S
C133 C131 1.387 . S
C133 C135 1.390 . S
C133 H137 0.950 . S
H134 C130 0.950 . S
C135 C133 1.390 . S
C135 C136 1.387 . S
C135 H138 0.950 . S
C136 C135 1.387 . S
C136 C139 1.387 . S
H137 C133 0.950 . S
H138 C135 0.950 . S
C139 C130 1.390 . S
C139 H132 0.950 . S
C139 C136 1.387 . S
C140 C141 1.387 . S
C140 H144 0.950 . S
C140 C149 1.390 1_654 S
C141 C140 1.387 . S
C141 C143 1.387 . S
H142 C149 0.950 . S
C143 C141 1.387 . S
C143 C145 1.390 1_654 S
C143 H147 0.950 . S
H144 C140 0.950 . S
C145 C143 1.390 1_456 S
C145 C146 1.387 . S
C145 H148 0.950 . S
C146 C145 1.387 . S
C146 C149 1.387 . S
H147 C143 0.950 . S
H148 C145 0.950 . S
C149 C140 1.390 1_456 S
C149 H142 0.950 . S
C149 C146 1.387 . S
C150 C151 1.387 . S
C150 H154 0.950 . S
C150 C159 1.390 1_545 S
C151 C150 1.387 . S
C151 C153 1.387 . S
H152 C159 0.950 . S
C153 C151 1.387 . S
C153 C155 1.390 1_545 S
C153 H157 0.950 . S
H154 C150 0.950 . S
C155 C153 1.390 1_565 S
C155 C156 1.387 . S
C155 H158 0.950 . S
C156 C155 1.387 . S
C156 C159 1.387 . S
H157 C153 0.950 . S
H158 C155 0.950 . S
C159 C150 1.390 1_565 S
C159 H152 0.950 . S
C159 C156 1.387 . S
C160 C161 1.387 1_554 S
C160 H164 0.950 . S
C160 C169 1.390 . S
C161 C160 1.387 1_556 S
C161 C163 1.387 . S
H162 C169 0.950 . S
C163 C161 1.387 . S
C163 C165 1.390 . S
C163 H167 0.950 . S
H164 C160 0.950 . S
C165 C163 1.390 . S
C165 C166 1.387 1_556 S
C165 H168 0.950 . S
C166 C165 1.387 1_554 S
C166 C169 1.387 . S
H167 C163 0.950 . S
H168 C165 0.950 . S
C169 C160 1.390 . S
C169 H162 0.950 . S
C169 C166 1.387 . S
C170 C171 1.387 . S
C170 H174 0.950 . S
C170 C179 1.390 1_655 S
C171 C170 1.387 . S
C171 C173 1.387 . S
H172 C179 0.950 . S
C173 C171 1.387 . S
C173 C175 1.390 1_655 S
C173 H177 0.950 . S
H174 C170 0.950 . S
C175 C173 1.390 1_455 S
C175 C176 1.387 . S
C175 H178 0.950 . S
C176 C175 1.387 . S
C176 C179 1.387 . S
H177 C173 0.950 . S
H178 C175 0.950 . S
C179 C170 1.390 1_455 S
C179 H172 0.950 . S
C179 C176 1.387 . S
C180 C181 1.387 . S
C180 H184 0.950 . S
C180 C189 1.390 . S
C181 C180 1.387 . S
C181 C183 1.387 . S
H182 C189 0.950 . S
C183 C181 1.387 . S
C183 C185 1.390 . S
C183 H187 0.950 . S
H184 C180 0.950 . S
C185 C183 1.390 . S
C185 C186 1.387 . S
C185 H188 0.950 . S
C186 C185 1.387 . S
C186 C189 1.387 . S
H187 C183 0.950 . S
H188 C185 0.950 . S
C189 C180 1.390 . S
C189 H182 0.950 . S
C189 C186 1.387 . S
C190 C191 1.387 . S
C190 H194 0.950 . S
C190 C199 1.390 . S
C191 C190 1.387 . S
C191 C193 1.387 . S
H192 C199 0.950 . S
C193 C191 1.387 . S
C193 C195 1.390 . S
C193 H197 0.950 . S
H194 C190 0.950 . S
C195 C193 1.390 . S
C195 C196 1.387 . S
C195 H198 0.950 . S
C196 C195 1.387 . S
C196 C199 1.387 . S
H197 C193 0.950 . S
H198 C195 0.950 . S
C199 C190 1.390 . S
C199 H192 0.950 . S
C199 C196 1.387 . S
C200 C201 1.387 . S
C200 H204 0.950 . S
C200 C209 1.390 . S
C201 C200 1.387 . S
C201 C203 1.387 . S
H202 C209 0.950 . S
C203 C201 1.387 . S
C203 C205 1.390 . S
C203 H207 0.950 . S
H204 C200 0.950 . S
C205 C203 1.390 . S
C205 C206 1.387 . S
C205 H208 0.950 . S
C206 C205 1.387 . S
C206 C209 1.387 . S
H207 C203 0.950 . S
H208 C205 0.950 . S
C209 C200 1.390 . S
C209 H202 0.950 . S
C209 C206 1.387 . S
C210 C211 1.387 . S
C210 H214 0.950 . S
C210 C219 1.390 . S
C211 C210 1.387 . S
C211 C213 1.387 . S
H212 C219 0.950 . S
C213 C211 1.387 . S
C213 C215 1.390 . S
C213 H217 0.950 . S
H214 C210 0.950 . S
C215 C213 1.390 . S
C215 C216 1.387 . S
C215 H218 0.950 . S
C216 C215 1.387 . S
C216 C219 1.387 . S
H217 C213 0.950 . S
H218 C215 0.950 . S
C219 C210 1.390 . S
C219 H212 0.950 . S
C219 C216 1.387 . S
C220 C221 1.387 . S
C220 H224 0.950 . S
C220 C229 1.390 . S
C221 C220 1.387 . S
C221 C223 1.387 . S
H222 C229 0.950 . S
C223 C221 1.387 . S
C223 C225 1.390 . S
C223 H227 0.950 . S
H224 C220 0.950 . S
C225 C223 1.390 . S
C225 C226 1.387 . S
C225 H228 0.950 . S
C226 C225 1.387 . S
C226 C229 1.387 . S
H227 C223 0.950 . S
H228 C225 0.950 . S
C229 C220 1.390 . S
C229 H222 0.950 . S
C229 C226 1.387 . S
C230 C231 1.387 . S
C230 H234 0.950 . S
C230 C239 1.390 . S
C231 C230 1.387 . S
C231 C233 1.387 . S
H232 C239 0.950 . S
C233 C231 1.387 . S
C233 C235 1.390 . S
C233 H237 0.950 . S
H234 C230 0.950 . S
C235 C233 1.390 . S
C235 C236 1.387 . S
C235 H238 0.950 . S
C236 C235 1.387 . S
C236 C239 1.387 . S
H237 C233 0.950 . S
H238 C235 0.950 . S
C239 C230 1.390 . S
C239 H232 0.950 . S
C239 C236 1.387 . S
C240 C241 1.387 . S
C240 H244 0.950 . S
C240 C249 1.390 . S
C241 C240 1.387 . S
C241 C243 1.387 . S
H242 C249 0.950 . S
C243 C241 1.387 . S
C243 C245 1.390 . S
C243 H247 0.950 . S
H244 C240 0.950 . S
C245 C243 1.390 . S
C245 C246 1.387 . S
C245 H248 0.950 . S
C246 C245 1.387 . S
C246 C249 1.387 . S
H247 C243 0.950 . S
H248 C245 0.950 . S
C249 C240 1.390 . S
C249 H242 0.950 . S
C249 C246 1.387 . S
C250 C251 1.387 . S
C250 H254 0.950 . S
C250 C259 1.390 . S
C251 C250 1.387 . S
C251 C253 1.387 . S
H252 C259 0.950 . S
C253 C251 1.387 . S
C253 C255 1.390 . S
C253 H257 0.950 . S
H254 C250 0.950 . S
C255 C253 1.390 . S
C255 C256 1.387 . S
C255 H258 0.950 . S
C256 C255 1.387 . S
C256 C259 1.387 . S
H257 C253 0.950 . S
H258 C255 0.950 . S
C259 C250 1.390 . S
C259 H252 0.950 . S
C259 C256 1.387 . S
C260 C261 1.387 . S
C260 H264 0.950 . S
C260 C269 1.390 . S
C261 C260 1.387 . S
C261 C263 1.387 . S
H262 C269 0.950 . S
C263 C261 1.387 . S
C263 C265 1.390 . S
C263 H267 0.950 . S
H264 C260 0.950 . S
C265 C263 1.390 . S
C265 C266 1.387 . S
C265 H268 0.950 . S
C266 C265 1.387 . S
C266 C269 1.387 . S
H267 C263 0.950 . S
H268 C265 0.950 . S
C269 C260 1.390 . S
C269 H262 0.950 . S
C269 C266 1.387 . S
C270 C271 1.387 . S
C270 H274 0.950 . S
C270 C279 1.390 . S
C271 C270 1.387 . S
C271 C273 1.387 . S
H272 C279 0.950 . S
C273 C271 1.387 . S
C273 C275 1.390 . S
C273 H277 0.950 . S
H274 C270 0.950 . S
C275 C273 1.390 . S
C275 C276 1.387 . S
C275 H278 0.950 . S
C276 C275 1.387 . S
C276 C279 1.387 . S
H277 C273 0.950 . S
H278 C275 0.950 . S
C279 C270 1.390 . S
C279 H272 0.950 . S
C279 C276 1.387 . S
C280 C281 1.387 . S
C280 H284 0.950 . S
C280 C289 1.390 1_455 S
C281 C280 1.387 . S
C281 C283 1.387 . S
H282 C289 0.950 . S
C283 C281 1.387 . S
C283 C285 1.390 1_455 S
C283 H287 0.950 . S
H284 C280 0.950 . S
C285 C283 1.390 1_655 S
C285 C286 1.387 . S
C285 H288 0.950 . S
C286 C285 1.387 . S
C286 C289 1.387 . S
H287 C283 0.950 . S
H288 C285 0.950 . S
C289 C280 1.390 1_655 S
C289 H282 0.950 . S
C289 C286 1.387 . S
C290 C291 1.387 . S
C290 H294 0.950 . S
C290 C299 1.390 1_545 S
C291 C290 1.387 . S
C291 C293 1.387 . S
H292 C299 0.950 . S
C293 C291 1.387 . S
C293 C295 1.390 1_545 S
C293 H297 0.950 . S
H294 C290 0.950 . S
C295 C293 1.390 1_565 S
C295 C296 1.387 . S
C295 H298 0.950 . S
C296 C295 1.387 . S
C296 C299 1.387 . S
H297 C293 0.950 . S
H298 C295 0.950 . S
C299 C290 1.390 1_565 S
C299 H292 0.950 . S
C299 C296 1.387 . S
C121 C88 1.906 . S
C126 C9 2.222 . S
C131 C109 2.219 . S
C136 C28 1.935 . S
C141 C49 2.224 . S
C146 C68 1.911 . S
C151 C8 1.932 . S
C156 C89 2.218 . S
C161 C108 1.907 . S
C166 C29 2.222 . S
C171 C48 1.935 . S
C176 C69 2.219 . S
C181 C2 1.759 . S
C186 C58 1.680 . S
C191 C22 1.761 . S
C196 C18 1.683 . S
C201 C42 1.761 . S
C206 C38 1.683 . S
C211 C79 1.719 . S
C216 C81 1.612 . S
C221 C99 1.721 . S
C226 C101 1.616 . S
C231 C61 1.612 . S
C236 C119 1.718 . S
C241 C1 1.173 . S
C246 C59 1.258 . S
C251 C21 1.167 1_455 S
C256 C19 1.254 . S
C261 C41 1.173 1_565 S
C266 C39 1.258 . S
C271 C78 1.227 . S
C276 C82 1.290 . S
C281 C98 1.227 . S
C286 C102 1.290 . S
C291 C62 1.288 . S
C296 C118 1.222 . S
