# Generated by pormake.
# Topology vby, (6)-cn, num edge types: 1
# Building blocks:
#     Node 0, Type 0, BuildingBlock: BETFAJ_clean_sbu_0, # of connection points: 6
#     Node 1, Type 0, BuildingBlock: BETFAJ_clean_sbu_0, # of connection points: 6
#     Node 2, Type 0, BuildingBlock: BETFAJ_clean_sbu_0, # of connection points: 6
#     Node 3, Type 0, BuildingBlock: BETFAJ_clean_sbu_0, # of connection points: 6
#     Node 4, Type 0, BuildingBlock: BETFAJ_clean_sbu_0, # of connection points: 6
#     Node 5, Type 0, BuildingBlock: BETFAJ_clean_sbu_0, # of connection points: 6
#     Node 6, Type 0, BuildingBlock: BETFAJ_clean_sbu_0, # of connection points: 6
#     Node 7, Type 0, BuildingBlock: BETFAJ_clean_sbu_0, # of connection points: 6
#     Edge 8, Type (0, 0), BuildingBlock: AJUNOK_clean_linker_0, # of connection points: 2
#     Edge 9, Type (0, 0), BuildingBlock: AJUNOK_clean_linker_0, # of connection points: 2
#     Edge 10, Type (0, 0), BuildingBlock: AJUNOK_clean_linker_0, # of connection points: 2
#     Edge 11, Type (0, 0), BuildingBlock: AJUNOK_clean_linker_0, # of connection points: 2
#     Edge 12, Type (0, 0), BuildingBlock: AJUNOK_clean_linker_0, # of connection points: 2
#     Edge 13, Type (0, 0), BuildingBlock: AJUNOK_clean_linker_0, # of connection points: 2
#     Edge 14, Type (0, 0), BuildingBlock: AJUNOK_clean_linker_0, # of connection points: 2
#     Edge 15, Type (0, 0), BuildingBlock: AJUNOK_clean_linker_0, # of connection points: 2
#     Edge 16, Type (0, 0), BuildingBlock: AJUNOK_clean_linker_0, # of connection points: 2
#     Edge 17, Type (0, 0), BuildingBlock: AJUNOK_clean_linker_0, # of connection points: 2
#     Edge 18, Type (0, 0), BuildingBlock: AJUNOK_clean_linker_0, # of connection points: 2
#     Edge 19, Type (0, 0), BuildingBlock: AJUNOK_clean_linker_0, # of connection points: 2
#     Edge 20, Type (0, 0), BuildingBlock: AJUNOK_clean_linker_0, # of connection points: 2
#     Edge 21, Type (0, 0), BuildingBlock: AJUNOK_clean_linker_0, # of connection points: 2
#     Edge 22, Type (0, 0), BuildingBlock: AJUNOK_clean_linker_0, # of connection points: 2
#     Edge 23, Type (0, 0), BuildingBlock: AJUNOK_clean_linker_0, # of connection points: 2
#     Edge 24, Type (0, 0), BuildingBlock: AJUNOK_clean_linker_0, # of connection points: 2
#     Edge 25, Type (0, 0), BuildingBlock: AJUNOK_clean_linker_0, # of connection points: 2
#     Edge 26, Type (0, 0), BuildingBlock: AJUNOK_clean_linker_0, # of connection points: 2
#     Edge 27, Type (0, 0), BuildingBlock: AJUNOK_clean_linker_0, # of connection points: 2
#     Edge 28, Type (0, 0), BuildingBlock: AJUNOK_clean_linker_0, # of connection points: 2
#     Edge 29, Type (0, 0), BuildingBlock: AJUNOK_clean_linker_0, # of connection points: 2
#     Edge 30, Type (0, 0), BuildingBlock: AJUNOK_clean_linker_0, # of connection points: 2
#     Edge 31, Type (0, 0), BuildingBlock: AJUNOK_clean_linker_0, # of connection points: 2
# Relax obj value: 0.205
# Max RMSD: 0.223
# Mean RMSD: 0.223
data_MOF--net-vby--node1-BETFAJ_clean_sbu_0--edge1-AJUNOK_clean_linker_0
_symmetry_space_group_name_H-M    P1
_symmetry_Int_Tables_number       1
_symmetry_cell_setting            triclinic
loop_
_symmetry_equiv_pos_as_xyz
'x, y, z'
_cell_length_a     11.530701
_cell_length_b     87.403299
_cell_length_c     21.195252
_cell_angle_alpha  89.982192
_cell_angle_beta   86.558114
_cell_angle_gamma 90.093837
loop_
_atom_site_label
_atom_site_type_symbol
_atom_site_fract_x
_atom_site_fract_y
_atom_site_fract_z
_atom_type_partial_charge
Sm0 Sm 0.05687 0.41505 1.00956 0.0
Sm1 Sm 0.05289 0.3784 0.03052 0.0
C2 C 1.02531 0.44413 0.97849 0.0
C3 C 0.05399 0.46032 0.99145 0.0
C4 C 0.06153 0.47077 0.94108 0.0
C5 C 0.07381 0.48647 0.95224 0.0
C6 C 0.07922 0.49211 0.01418 0.0
C7 C 0.07455 0.48157 0.06457 0.0
C8 C 0.06228 0.46583 0.05335 0.0
C9 C 0.07407 0.40464 0.13113 0.0
C10 C 0.80997 0.39601 0.01259 0.0
C11 C 0.05908 0.35024 0.07723 0.0
C12 C 0.11157 0.33492 0.06295 0.0
C13 C 0.22037 0.33088 0.08478 0.0
C14 C 0.26595 0.31614 0.07441 0.0
C15 C 0.20359 0.305 0.04239 0.0
C16 C 0.0956 0.30909 0.01991 0.0
C17 C 0.04993 0.3238 0.03034 0.0
C18 C 0.07278 0.38544 0.90296 0.0
C19 C 0.30253 0.39721 1.01104 0.0
O20 O 0.10483 0.43546 0.94973 0.0
O21 O 0.96051 0.43682 0.02157 0.0
O22 O 1.00887 0.3991 0.09145 0.0
O23 O 0.12746 0.41673 0.10869 0.0
O24 O 0.87227 0.40745 0.98756 0.0
O25 O 0.85876 0.38442 0.04122 0.0
O26 O 0.12761 0.3613 0.09457 0.0
O27 O 0.97842 0.35502 0.04086 0.0
O28 O 0.06534 0.3945 0.94862 0.0
O29 O 0.07406 0.37154 0.92427 0.0
O30 O 0.24542 0.38539 0.03717 0.0
O31 O 0.24852 0.40918 0.98821 0.0
H32 H 0.05381 0.46683 0.89304 0.0
H33 H 0.07446 0.49425 0.91244 0.0
H34 H 0.07878 0.48552 0.1128 0.0
H35 H 0.05625 0.45803 0.09314 0.0
H36 H 0.27015 0.33907 0.1104 0.0
H37 H 0.35039 0.31349 0.0913 0.0
H38 H 1.04506 0.30079 0.99532 0.0
H39 H 0.96532 0.32639 0.0135 0.0
Sm40 Sm 1.01884 0.67065 0.01642 0.0
Sm41 Sm 1.01758 0.63506 0.04746 0.0
C42 C 1.01983 0.69782 0.95992 0.0
C43 C 0.98016 0.7136 0.97422 0.0
C44 C 0.95604 0.72348 0.92451 0.0
C45 C 0.91648 0.73839 0.93692 0.0
C46 C 0.90062 0.74377 0.9994 0.0
C47 C 0.92401 0.73378 0.0492 0.0
C48 C 0.96332 0.71883 0.03674 0.0
C49 C 1.01054 0.6669 0.14683 0.0
C50 C 0.76841 0.65406 0.04294 0.0
C51 C 0.98671 0.60631 0.08606 0.0
C52 C 1.02151 0.59018 0.07433 0.0
C53 C 1.03318 0.58036 0.12599 0.0
C54 C 0.05259 0.56467 0.11672 0.0
C55 C 0.06105 0.55842 0.05544 0.0
C56 C 0.05214 0.56835 1.00359 0.0
C57 C 1.03279 0.58406 0.01291 0.0
C58 C 0.07003 0.64291 0.92237 0.0
C59 C 0.26222 0.65276 0.03761 0.0
O60 O 0.93839 0.68759 0.95404 0.0
O61 O 0.10687 0.69265 0.99064 0.0
O62 O 1.01251 0.65639 0.10611 0.0
O63 O 1.00708 0.68001 0.11845 0.0
O64 O 0.82475 0.66606 0.01928 0.0
O65 O 0.82308 0.64178 0.06265 0.0
O66 O 0.06132 0.6156 0.11039 0.0
O67 O 0.92485 0.61291 0.04401 0.0
O68 O 0.99477 0.64919 0.95925 0.0
O69 O 0.11558 0.63135 0.9502 0.0
O70 O 0.20342 0.64181 0.06853 0.0
O71 O 0.20995 0.66297 1.0029 0.0
H72 H 0.96769 0.71964 0.87594 0.0
H73 H 0.89933 0.74578 0.89753 0.0
H74 H 0.9103 0.73744 0.09789 0.0
H75 H 0.97992 0.71135 0.07592 0.0
H76 H 1.02413 0.58478 0.1738 0.0
H77 H 0.05952 0.55738 0.15764 0.0
H78 H 0.05597 0.56391 0.95583 0.0
H79 H 1.02338 0.59134 0.97215 0.0
Sm80 Sm 0.08447 0.67263 0.54563 0.0
Sm81 Sm 0.09317 0.63793 0.52656 0.0
C82 C 0.09266 0.70053 0.59498 0.0
C83 C 0.13859 0.71595 0.57863 0.0
C84 C 0.1655 0.72604 0.62711 0.0
C85 C 0.20574 0.74087 0.61303 0.0
C86 C 0.21946 0.74597 0.55004 0.0
C87 C 0.19423 0.73572 0.5014 0.0
C88 C 0.1542 0.72086 0.51554 0.0
C89 C 0.08318 0.66787 0.41644 0.0
C90 C 0.33735 0.65552 0.51776 0.0
C91 C 0.07056 0.60803 0.51359 0.0
C92 C 0.05467 0.59119 0.50982 0.0
C93 C 0.10935 0.58262 0.46049 0.0
C94 C 0.10539 0.56657 0.46172 0.0
C95 C 1.04678 0.55877 0.51235 0.0
C96 C 0.98991 0.56738 0.56079 0.0
C97 C 0.99357 0.58338 0.55949 0.0
C98 C 0.1254 0.64798 0.64843 0.0
C99 C 0.84183 0.65532 0.53103 0.0
O100 O 0.16885 0.68987 0.60548 0.0
O101 O 1.00632 0.69554 0.56318 0.0
O102 O 0.08713 0.65736 0.45727 0.0
O103 O 0.08468 0.68112 0.44349 0.0
O104 O 0.27943 0.66696 0.54536 0.0
O105 O 0.28318 0.64339 0.49683 0.0
O106 O 0.13521 0.61615 0.47292 0.0
O107 O 1.01478 0.61597 0.55796 0.0
O108 O 0.04959 0.65288 0.61299 0.0
O109 O 0.18939 0.63787 0.61858 0.0
O110 O 0.9034 0.6438 0.50649 0.0
O111 O 0.89184 0.66665 0.56024 0.0
H112 H 0.15432 0.72249 0.67609 0.0
H113 H 0.22423 0.74845 0.65158 0.0
H114 H 0.20625 0.73916 0.45234 0.0
H115 H 0.13503 0.71324 0.47723 0.0
H116 H 0.15809 0.58829 0.42193 0.0
H117 H 0.15151 0.56026 0.42411 0.0
H118 H 0.94346 0.56173 0.60018 0.0
H119 H 0.95106 0.5896 0.59852 0.0
Sm120 Sm 1.03345 0.41265 0.52406 0.0
Sm121 Sm 1.04706 0.37905 0.51044 0.0
C122 C 0.05051 0.44271 0.53544 0.0
C123 C 0.0634 0.45961 0.53823 0.0
C124 C 1.00646 0.46823 0.58674 0.0
C125 C 1.00609 0.48428 0.58389 0.0
C126 C 0.06193 0.49201 0.53225 0.0
C127 C 0.12294 0.48338 0.48529 0.0
C128 C 0.12343 0.4674 0.48814 0.0
C129 C 1.01449 0.40193 0.40244 0.0
C130 C 0.28555 0.3964 0.5125 0.0
C131 C 1.03115 0.34981 0.47707 0.0
C132 C 0.96702 0.3354 0.49141 0.0
C133 C 0.92785 0.32664 0.44142 0.0
C134 C 0.87727 0.31225 0.45275 0.0
C135 C 0.86474 0.3063 0.51444 0.0
C136 C 0.90184 0.31523 0.56468 0.0
C137 C 0.95213 0.32966 0.55336 0.0
C138 C 0.07519 0.38818 0.63251 0.0
C139 C 0.7885 0.39557 0.52907 0.0
O140 O 0.99767 0.43435 0.57976 0.0
O141 O 0.09805 0.43496 0.48808 0.0
O142 O 0.08807 0.3976 0.43992 0.0
O143 O 0.94446 0.41181 0.42941 0.0
O144 O 0.22376 0.40695 0.54385 0.0
O145 O 0.23285 0.38587 0.48025 0.0
O146 O 0.9765 0.36081 0.44945 0.0
O147 O 0.10049 0.35483 0.51903 0.0
O148 O 1.00077 0.39393 0.59777 0.0
O149 O 0.12971 0.37695 0.60436 0.0
O150 O 0.84951 0.38337 0.51151 0.0
O151 O 0.83983 0.40839 0.5443 0.0
H152 H 0.95894 0.46257 0.62576 0.0
H153 H 0.95875 0.49064 0.62095 0.0
H154 H 0.16931 0.489 0.44578 0.0
H155 H 0.16845 0.46115 0.44998 0.0
H156 H 0.93932 0.33075 0.39322 0.0
H157 H 0.85154 0.30556 0.41291 0.0
H158 H 0.89284 0.31098 0.61275 0.0
H159 H 0.98145 0.33615 0.59291 0.0
Sm160 Sm 0.57129 0.91338 0.02171 0.0
Sm161 Sm 0.56285 0.87799 0.03952 0.0
C162 C 0.54623 0.94316 1.0071 0.0
C163 C 0.53022 0.95998 1.00431 0.0
C164 C 0.56147 0.96836 0.9493 0.0
C165 C 0.55317 0.9844 0.94922 0.0
C166 C 0.51452 0.99235 1.00435 0.0
C167 C 0.4814 0.98387 0.05883 0.0
C168 C 0.48908 0.96792 0.0588 0.0
C169 C 0.5944 0.90254 0.14291 0.0
C170 C 0.3206 0.89543 0.02457 0.0
C171 C 0.57254 0.85009 0.08846 0.0
C172 C 0.6264 0.83503 0.07401 0.0
C173 C 0.65436 0.8254 0.12381 0.0
C174 C 0.70241 0.81091 0.11156 0.0
C175 C 0.72389 0.80574 0.04909 0.0
C176 C 0.69607 0.81545 0.99917 0.0
C177 C 0.64828 0.82998 1.01148 0.0
C178 C 0.56779 0.88377 0.9111 0.0
C179 C 0.81566 0.8957 0.01497 0.0
O180 O 0.6089 0.93504 0.96562 0.0
O181 O 0.495 0.93529 0.05331 0.0
O182 O 0.52235 0.89783 0.10506 0.0
O183 O 0.65889 0.91318 0.11671 0.0
O184 O 0.38203 0.90715 1.00121 0.0
O185 O 0.37016 0.8839 0.05274 0.0
O186 O 0.6423 0.86121 0.10327 0.0
O187 O 0.49051 0.85458 0.05248 0.0
O188 O 0.5699 0.89377 0.95387 0.0
O189 O 0.5668 0.87024 0.936 0.0
O190 O 0.75735 0.88399 0.04056 0.0
O191 O 0.76249 0.90804 0.99524 0.0
H192 H 0.59333 0.96255 0.90659 0.0
H193 H 0.5772 0.99056 0.90606 0.0
H194 H 0.4523 0.9896 0.10223 0.0
H195 H 0.46527 0.96183 0.1022 0.0
H196 H 0.63781 0.82903 0.17239 0.0
H197 H 0.72066 0.80363 0.1511 0.0
H198 H 0.71188 0.81182 0.95055 0.0
H199 H 0.62785 0.83722 0.97218 0.0
Sm200 Sm 0.52353 0.17012 0.01326 0.0
Sm201 Sm 0.51827 0.13508 0.04417 0.0
C202 C 0.516 0.19746 0.95863 0.0
C203 C 0.46834 0.2129 0.97236 0.0
C204 C 0.50225 0.22519 0.93281 0.0
C205 C 0.45921 0.23994 0.94522 0.0
C206 C 0.38162 0.24277 0.99773 0.0
C207 C 0.34702 0.23036 0.03705 0.0
C208 C 0.39011 0.21558 0.02455 0.0
C209 C 0.51233 0.16637 0.14451 0.0
C210 C 0.27305 0.15274 0.04076 0.0
C211 C 0.5483 0.10638 0.08069 0.0
C212 C 0.52448 0.09031 0.06347 0.0
C213 C 0.49255 0.07976 0.1113 0.0
C214 C 0.4833 0.06415 0.09743 0.0
C215 C 0.5069 0.05878 0.03547 0.0
C216 C 0.53472 0.06943 0.98715 0.0
C217 C 0.54324 0.08505 1.00096 0.0
C218 C 0.49265 0.14204 0.91797 0.0
C219 C 0.76699 0.1535 0.03378 0.0
O220 O 0.44086 0.18653 0.94955 0.0
O221 O 0.60139 0.19301 0.99228 0.0
O222 O 0.51451 0.15604 0.10332 0.0
O223 O 0.5115 0.17951 0.1163 0.0
O224 O 0.33165 0.16351 1.00891 0.0
O225 O 0.32634 0.14128 0.06782 0.0
O226 O 0.46132 0.11483 0.10284 0.0
O227 O 0.62265 0.1139 0.04332 0.0
O228 O 0.56141 0.14878 0.95333 0.0
O229 O 0.44 0.131 0.94879 0.0
O230 O 0.7057 0.14249 0.06265 0.0
O231 O 0.71678 0.16423 1.00117 0.0
H232 H 0.56251 0.22338 0.89229 0.0
H233 H 0.48783 0.24921 0.91409 0.0
H234 H 0.28554 0.23205 0.07709 0.0
H235 H 0.3623 0.20624 0.05553 0.0
H236 H 0.47824 0.08352 0.15985 0.0
H237 H 0.46187 0.05621 0.13564 0.0
H238 H 0.55138 0.06564 0.9388 0.0
H239 H 0.56741 0.09295 0.96301 0.0
Sm240 Sm 0.55681 0.1705 0.54679 0.0
Sm241 Sm 0.56218 0.13534 0.51002 0.0
C242 C 0.57527 0.198 0.59913 0.0
C243 C 0.61871 0.21357 0.58439 0.0
C244 C 0.65259 0.22296 0.63368 0.0
C245 C 0.69165 0.2379 0.62144 0.0
C246 C 0.69716 0.24379 0.55957 0.0
C247 C 0.66463 0.23426 0.51002 0.0
C248 C 0.62575 0.21928 0.52231 0.0
C249 C 0.53434 0.16511 0.41944 0.0
C250 C 0.81043 0.15298 0.52514 0.0
C251 C 0.56434 0.10832 0.45203 0.0
C252 C 0.54676 0.09185 0.46592 0.0
C253 C 0.53832 0.08149 0.41586 0.0
C254 C 0.52806 0.06574 0.42751 0.0
C255 C 0.52556 0.05999 0.48962 0.0
C256 C 0.5332 0.07045 0.53981 0.0
C257 C 0.54357 0.08623 0.52807 0.0
C258 C 0.53564 0.13852 0.6418 0.0
C259 C 0.31639 0.15257 0.53487 0.0
O260 O 0.65303 0.18726 0.6033 0.0
O261 O 0.48377 0.19342 0.57082 0.0
O262 O 0.59932 0.15742 0.45392 0.0
O263 O 0.49174 0.17676 0.45063 0.0
O264 O 0.7534 0.16539 0.54461 0.0
O265 O 0.75676 0.14073 0.50502 0.0
O266 O 0.47282 0.1172 0.45677 0.0
O267 O 0.65636 0.11469 0.47407 0.0
O268 O 0.54455 0.14881 0.60067 0.0
O269 O 0.53869 0.12545 0.6129 0.0
O270 O 0.37651 0.14331 0.49625 0.0
O271 O 0.36924 0.16231 0.57155 0.0
H272 H 0.64804 0.21876 0.68188 0.0
H273 H 0.71594 0.24494 0.66059 0.0
H274 H 0.67023 0.23835 0.46169 0.0
H275 H 0.60101 0.21217 0.48345 0.0
H276 H 0.54107 0.08558 0.36751 0.0
H277 H 0.52201 0.05804 0.38782 0.0
H278 H 0.53394 0.06642 0.5881 0.0
H279 H 0.55093 0.094 0.56743 0.0
Sm280 Sm 0.53501 0.91671 0.53899 0.0
Sm281 Sm 0.53839 0.88083 0.51244 0.0
C282 C 0.5657 0.94567 0.57307 0.0
C283 C 0.53904 0.96192 0.55983 0.0
C284 C 0.53314 0.97245 0.60992 0.0
C285 C 0.52209 0.98816 0.59841 0.0
C286 C 0.51624 0.99375 0.53639 0.0
C287 C 0.51965 0.98313 0.48628 0.0
C288 C 0.53074 0.96738 0.49785 0.0
C289 C 0.52565 0.90764 0.41449 0.0
C290 C 0.78194 0.8978 0.53355 0.0
C291 C 0.53103 0.85332 0.45986 0.0
C292 C 0.47813 0.83812 0.47361 0.0
C293 C 0.45076 0.82852 0.42355 0.0
C294 C 0.40514 0.81385 0.43543 0.0
C295 C 0.3857 0.80845 0.49776 0.0
C296 C 0.41242 0.81816 0.54789 0.0
C297 C 0.45766 0.83286 0.53597 0.0
C298 C 0.51788 0.88554 0.64177 0.0
C299 C 0.28884 0.89911 0.5333 0.0
O300 O 0.48342 0.93695 0.59905 0.0
O301 O 0.63359 0.93845 0.53134 0.0
O302 O 0.58732 0.90177 0.45491 0.0
O303 O 0.46836 0.91924 0.43847 0.0
O304 O 0.72117 0.90917 0.56024 0.0
O305 O 0.73173 0.88673 0.50268 0.0
O306 O 0.46058 0.86445 0.44614 0.0
O307 O 0.61316 0.85772 0.49606 0.0
O308 O 0.52431 0.89577 0.59991 0.0
O309 O 0.5187 0.8722 0.61517 0.0
O310 O 0.3476 0.88784 0.50478 0.0
O311 O 0.34142 0.91096 0.55809 0.0
H312 H 0.54093 0.96855 0.65802 0.0
H313 H 0.5224 0.99598 0.63803 0.0
H314 H 0.51499 0.98703 0.43799 0.0
H315 H 0.5356 0.95953 0.45826 0.0
H316 H 0.46623 0.8323 0.37508 0.0
H317 H 0.38751 0.80659 0.39571 0.0
H318 H 0.398 0.81438 0.59641 0.0
H319 H 0.47761 0.84006 0.57549 0.0
C320 C 0.49065 0.38496 0.03722 0.0
C321 C 0.43207 0.39708 1.00898 0.0
C322 C 0.61226 0.38464 0.03751 0.0
C323 C 0.68115 0.39641 1.00953 0.0
H324 H 0.44242 0.37563 0.05996 0.0
H325 H 0.65222 0.37509 0.06043 0.0
S326 S 0.57164 0.43064 0.92744 0.0
N327 N 0.45338 0.42108 0.95097 0.0
N328 N 0.68109 0.42048 0.95142 0.0
C329 C 0.62391 0.40854 0.98036 0.0
C330 C 0.49989 0.40887 0.98013 0.0
C331 C 0.45289 0.64068 0.06058 0.0
C332 C 0.39058 0.65348 0.04077 0.0
C333 C 0.57452 0.64102 0.06233 0.0
C334 C 0.63888 0.65423 0.04475 0.0
H335 H 0.40774 0.63017 0.07382 0.0
H336 H 0.61828 0.63075 0.0767 0.0
S337 S 0.51574 0.69132 0.99435 0.0
N338 N 0.40184 0.68004 1.00662 0.0
N339 N 0.62895 0.6808 1.01015 0.0
C340 C 0.57691 0.66727 0.02653 0.0
C341 C 0.45336 0.66687 0.02444 0.0
C342 C 0.65282 0.64226 0.51108 0.0
C343 C 0.714 0.65571 0.5248 0.0
C344 C 0.53156 0.64235 0.50687 0.0
C345 C 0.46665 0.65589 0.51597 0.0
H346 H 0.69849 0.6315 0.50486 0.0
H347 H 0.48827 0.63162 0.49805 0.0
S348 S 0.5869 0.69456 0.54542 0.0
N349 N 0.70113 0.68318 0.54234 0.0
N350 N 0.47466 0.68337 0.53411 0.0
C351 C 0.52752 0.66952 0.52725 0.0
C352 C 0.65062 0.66942 0.53179 0.0
C353 C 0.59318 0.40795 0.54732 0.0
C354 C 0.65985 0.39517 0.52715 0.0
C355 C 0.47248 0.40826 0.54232 0.0
C356 C 0.41348 0.39586 0.5165 0.0
H357 H 0.63437 0.41789 0.56677 0.0
H358 H 0.42537 0.41838 0.55838 0.0
S359 S 0.5463 0.35936 0.45867 0.0
N360 N 0.65646 0.36956 0.48183 0.0
N361 N 0.43051 0.3702 0.47224 0.0
C362 C 0.4787 0.38293 0.49677 0.0
C363 C 0.60148 0.38256 0.50224 0.0
C364 C 1.0104 0.9088 1.00475 0.0
C365 C 0.94489 0.89525 0.01284 0.0
C366 C 0.13185 0.90875 1.00771 0.0
C367 C 0.19265 0.89516 0.01907 0.0
H368 H 0.9675 0.91962 0.99757 0.0
H369 H 0.178 0.91952 1.0024 0.0
S370 S 0.06375 0.85628 0.03641 0.0
N371 N 0.95173 0.86763 0.02767 0.0
N372 N 0.1787 0.86757 0.03345 0.0
C373 C 0.12863 0.88145 0.0251 0.0
C374 C 1.00527 0.88148 0.0219 0.0
C375 C 0.07638 0.14032 0.05853 0.0
C376 C 0.1437 0.15338 0.04284 0.0
C377 C 0.95472 0.14051 0.05627 0.0
C378 C 0.89542 0.15374 0.03805 0.0
H379 H 0.11794 0.12976 0.07133 0.0
H380 H 0.90714 0.13008 0.0677 0.0
S381 S 1.02976 0.1915 0.99903 0.0
N382 N 0.14032 0.18032 0.01329 0.0
N383 N 0.91315 0.18058 1.00862 0.0
C384 C 0.96139 0.16701 0.02418 0.0
C385 C 0.08494 0.16685 0.02672 0.0
C386 C 0.12084 0.16488 0.55632 0.0
C387 C 0.18749 0.1523 0.53426 0.0
C388 C 0.99948 0.16508 0.55262 0.0
C389 C 0.93962 0.15266 0.52706 0.0
H390 H 0.16275 0.17479 0.57568 0.0
H391 H 0.95248 0.17509 0.57011 0.0
S392 S 0.07399 0.11654 0.46551 0.0
N393 N 0.18415 0.12683 0.48802 0.0
N394 N 0.95775 0.12719 0.48078 0.0
C395 C 1.00555 0.13991 0.5056 0.0
C396 C 0.12882 0.13973 0.50929 0.0
C397 C 0.97054 0.91114 0.55166 0.0
C398 C 0.91058 0.89771 0.53637 0.0
C399 C 0.09248 0.91149 0.55139 0.0
C400 C 0.15948 0.89841 0.5359 0.0
H401 H 0.92323 0.92159 0.56274 0.0
H402 H 0.1344 0.92218 0.56237 0.0
S403 S 1.04411 0.8599 0.49831 0.0
N404 N 0.92757 0.87071 0.50936 0.0
N405 N 0.15531 0.8713 0.50906 0.0
C406 C 0.1002 0.88477 0.52233 0.0
C407 C 0.97632 0.88444 0.52251 0.0
C408 C 0.99984 0.53141 0.0823 0.0
C409 C 0.07232 0.5415 0.04606 0.0
C410 C 1.00456 0.51551 0.07265 0.0
C411 C 0.08198 0.50897 0.02631 0.0
H412 H 0.9366 0.53587 0.11742 0.0
H413 H 0.94466 0.50831 0.10059 0.0
S414 S 0.29931 0.53016 0.9235 0.0
N415 N 0.23006 0.54365 0.96518 0.0
N416 N 0.23899 0.51382 0.94707 0.0
C417 C 0.15731 0.51889 0.99099 0.0
C418 C 0.15246 0.5351 1.00082 0.0
C419 C 0.08045 0.51844 0.57776 0.0
C420 C 0.05526 0.50901 0.52655 0.0
C421 C 0.07724 0.53447 0.57275 0.0
C422 C 1.04847 0.54172 0.51637 0.0
H423 H 0.10477 0.5134 0.62174 0.0
H424 H 0.09917 0.54125 0.61313 0.0
S425 S 0.96398 0.52223 0.37059 0.0
N426 N 0.99296 0.50812 0.419 0.0
N427 N 0.98713 0.53818 0.40969 0.0
C428 C 1.02089 0.53242 0.46525 0.0
C429 C 1.02412 0.51611 0.47033 0.0
C430 C 0.41398 1.01694 0.03613 0.0
C431 C 0.51079 1.00943 1.00655 0.0
C432 C 0.41228 0.03289 0.04403 0.0
C433 C 0.50694 0.04203 0.02228 0.0
H434 H 0.33918 1.0104 0.05401 0.0
H435 H 0.33654 0.03811 0.06781 0.0
S436 S 0.7829 0.02814 0.94345 0.0
N437 N 0.70488 1.01247 0.95657 0.0
N438 N 0.70083 0.04242 0.97065 0.0
C439 C 0.60346 0.03475 0.99167 0.0
C440 C 0.60555 1.01848 0.98394 0.0
C441 C 0.59146 0.03301 0.46552 0.0
C442 C 0.51883 0.0431 0.50151 0.0
C443 C 0.58869 1.01714 0.47644 0.0
C444 C 0.5131 1.01061 0.52382 0.0
H445 H 0.65281 0.03745 0.42933 0.0
H446 H 0.64828 1.00994 0.44839 0.0
S447 S 0.29694 0.03179 0.62706 0.0
N448 N 0.36359 0.04524 0.58376 0.0
N449 N 0.3582 1.01548 0.60418 0.0
C450 C 0.43815 1.02053 0.5592 0.0
C451 C 0.44108 0.03671 0.54811 0.0
C452 C 0.25031 0.28228 0.97217 0.0
C453 C 0.25027 0.28915 0.03231 0.0
C454 C 0.29306 0.26737 0.96148 0.0
C455 C 0.33645 0.25859 1.01061 0.0
H456 H 0.21798 0.28853 0.93277 0.0
H457 H 0.29096 0.26262 0.91436 0.0
S458 S 0.35505 0.27115 0.17702 0.0
N459 N 0.29644 0.28587 0.14191 0.0
N460 N 0.37781 0.25802 0.12169 0.0
C461 C 0.33666 0.2653 0.07101 0.0
C462 C 0.2937 0.28052 0.08183 0.0
C463 C 0.71953 0.78026 0.99374 0.0
C464 C 0.77234 0.79012 0.03613 0.0
C465 C 0.76156 0.76537 0.98209 0.0
C466 C 0.85821 0.75969 0.01231 0.0
H467 H 0.64373 0.78399 0.97017 0.0
H468 H 0.7168 0.75815 0.94983 0.0
S469 S 1.03465 0.78138 0.12278 0.0
N470 N 0.93118 0.79343 0.10528 0.0
N471 N 1.00995 0.76552 0.08343 0.0
C472 C 0.91314 0.76953 0.05387 0.0
C473 C 0.87037 0.78469 0.06573 0.0
C474 C 0.35698 0.76795 0.56482 0.0
C475 C 0.26033 0.76192 0.53555 0.0
C476 C 0.39638 0.78296 0.55257 0.0
C477 C 0.34088 0.7926 0.51051 0.0
H478 H 0.40352 0.76094 0.597 0.0
H479 H 0.47203 0.78697 0.57564 0.0
S480 S 0.07809 0.78287 0.42576 0.0
N481 N 0.10616 0.76715 0.46527 0.0
N482 N 0.18013 0.79528 0.44226 0.0
C483 C 0.24324 0.7868 0.48156 0.0
C484 C 0.20308 0.77151 0.49403 0.0
C485 C 0.87937 0.28019 0.56285 0.0
C486 C 0.81862 0.29052 0.52603 0.0
C487 C 0.83976 0.26514 0.57322 0.0
C488 C 0.73774 0.25979 0.54719 0.0
H489 H 0.95936 0.28368 0.58305 0.0
H490 H 0.8903 0.25757 0.60127 0.0
S491 S 0.54158 0.28264 0.45157 0.0
N492 N 0.64788 0.29456 0.46628 0.0
N493 N 0.57341 0.26632 0.48578 0.0
C494 C 0.6753 0.27006 0.51097 0.0
C495 C 0.71566 0.28539 0.50042 0.0
C496 C 0.94804 0.40296 0.23005 0.0
C497 C 0.05883 0.40167 0.1992 0.0
C498 C 0.93388 0.4025 0.29617 0.0
C499 C 1.02964 0.40033 0.3332 0.0
H500 H 0.87278 0.4051 0.2031 0.0
H501 H 0.84789 0.40423 0.31852 0.0
S502 S 0.33613 0.3948 0.27372 0.0
N503 N 0.26447 0.39732 0.20933 0.0
N504 N 0.23793 0.39575 0.33364 0.0
C505 C 0.13995 0.39811 0.30244 0.0
C506 C 0.15457 0.399 0.23527 0.0
C507 C 0.99691 0.67864 0.25311 0.0
C508 C 1.01986 0.66551 0.21626 0.0
C509 C 1.01677 0.67897 0.31742 0.0
C510 C 0.06011 0.66617 0.34851 0.0
H511 H 0.96518 0.68898 0.23186 0.0
H512 H 0.99848 0.68953 0.34286 0.0
S513 S 0.13168 0.62865 0.27449 0.0
N514 N 0.08637 0.63912 0.21583 0.0
N515 N 0.12236 0.63968 0.33796 0.0
C516 C 0.08028 0.65271 0.31305 0.0
C517 C 0.06046 0.6524 0.24667 0.0
C518 C 0.1795 0.63863 0.81888 0.0
C519 C 0.08818 0.64603 0.85354 0.0
C520 C 0.19366 0.64 0.75298 0.0
C521 C 0.11658 0.64875 0.71866 0.0
H522 H 0.23938 0.6314 0.8427 0.0
H523 H 0.26373 0.63371 0.7286 0.0
S524 S 0.8687 0.67152 0.78732 0.0
N525 N 0.9237 0.6633 0.84903 0.0
N526 N 0.95009 0.66584 0.72492 0.0
C527 C 1.0279 0.6568 0.7529 0.0
C528 C 1.01372 0.65545 0.82035 0.0
C529 C 0.1691 0.38263 0.73171 0.0
C530 C 0.08123 0.39042 0.7014 0.0
C531 C 0.16916 0.38193 0.79744 0.0
C532 C 0.08338 0.38935 0.83554 0.0
H533 H 0.23577 0.37633 0.7045 0.0
H534 H 0.23455 0.37504 0.81865 0.0
S535 S 0.84113 0.41271 0.78082 0.0
N536 N 0.91061 0.40672 0.7149 0.0
N537 N 0.91312 0.40573 0.83949 0.0
C538 C 0.99977 0.39815 0.8065 0.0
C539 C 0.99826 0.39865 0.73901 0.0
C540 C 0.46629 0.90622 0.24054 0.0
C541 C 0.57411 0.90171 0.21205 0.0
C542 C 0.45046 0.90782 0.30642 0.0
C543 C 0.54096 0.90456 0.34591 0.0
H544 H 0.39543 0.90921 0.21155 0.0
H545 H 0.36745 0.91185 0.3265 0.0
S546 S 0.83739 0.89136 0.29405 0.0
N547 N 0.77123 0.89358 0.22765 0.0
N548 N 0.74051 0.89584 0.35164 0.0
C549 C 0.6475 0.89934 0.31794 0.0
C550 C 0.6644 0.89814 0.25085 0.0
C551 C 0.46904 0.17658 0.25255 0.0
C552 C 0.51292 0.16455 0.21435 0.0
C553 C 0.47529 0.1763 0.31826 0.0
C554 C 0.528 0.16411 0.34935 0.0
H555 H 0.42976 0.18644 0.23141 0.0
H556 H 0.43985 0.18599 0.34476 0.0
S557 S 0.65516 0.12951 0.27125 0.0
N558 N 0.60855 0.13976 0.21229 0.0
N559 N 0.62297 0.1394 0.33644 0.0
C560 C 0.57128 0.15183 0.31196 0.0
C561 C 0.56299 0.152 0.24442 0.0
C562 C 0.46645 0.12908 0.81474 0.0
C563 C 0.50227 0.14214 0.84743 0.0
C564 C 0.47736 0.1282 0.74861 0.0
C565 C 0.52205 0.14045 0.7117 0.0
H566 H 0.43152 0.11923 0.84045 0.0
H567 H 0.45024 0.11775 0.7262 0.0
S568 S 0.62429 0.17755 0.77317 0.0
N569 N 0.58311 0.16777 0.83745 0.0
N570 N 0.60016 0.16629 0.71267 0.0
C571 C 0.55581 0.15376 0.74337 0.0
C572 C 0.54693 0.15456 0.81125 0.0
C573 C 0.47277 0.87513 0.74824 0.0
C574 C 0.51611 0.8874 0.71113 0.0
C575 C 0.48717 0.87455 0.81299 0.0
C576 C 0.54521 0.88624 0.84389 0.0
H577 H 0.4306 0.86553 0.72667 0.0
H578 H 0.45449 0.86458 0.83881 0.0
S579 S 0.66822 0.92154 0.76937 0.0
N580 N 0.61425 0.91206 0.71026 0.0
N581 N 0.64039 0.91103 0.83344 0.0
C582 C 0.58359 0.89908 0.80837 0.0
C583 C 0.56921 0.89965 0.74155 0.0
loop_
_geom_bond_atom_site_label_1
_geom_bond_atom_site_label_2
_geom_bond_distance
_geom_bond_site_symmetry_2
_ccdc_geom_bond_type
Sm0 C2 2.846 1_455 S
Sm0 O20 2.543 1_454 S
Sm0 O21 2.450 . S
Sm0 O22 2.681 . S
Sm0 O23 2.464 . S
Sm0 O24 2.396 1_455 S
Sm0 O28 2.386 1_554 S
Sm0 O31 2.408 . S
Sm1 C11 2.846 . S
Sm1 O22 2.386 . S
Sm1 O25 2.408 1_455 S
Sm1 O26 2.543 . S
Sm1 O27 2.450 1_554 S
Sm1 O28 2.681 1_554 S
Sm1 O29 2.464 1_554 S
Sm1 O30 2.396 1_554 S
C2 Sm0 2.846 1_655 S
C2 C3 1.506 . S
C2 O20 1.261 1_554 S
C2 O21 1.242 1_655 S
C3 C2 1.506 . S
C3 C4 1.358 1_554 S
C3 C8 1.382 . S
C4 C3 1.358 1_556 S
C4 C5 1.385 . S
C4 H32 0.930 . S
C5 C4 1.385 . S
C5 C6 1.394 1_556 S
C5 H33 0.929 . S
C6 C5 1.394 1_554 S
C6 C7 1.335 . S
C7 C6 1.335 . S
C7 C8 1.398 . S
C7 H34 0.930 . S
C8 C3 1.382 . S
C8 C7 1.398 . S
C8 H35 0.929 . S
C9 O22 1.271 . S
C9 O23 1.251 . S
C10 O24 1.252 . S
C10 O25 1.272 . S
C11 Sm1 2.846 . S
C11 C12 1.506 . S
C11 O26 1.261 . S
C11 O27 1.242 1_554 S
C12 C11 1.506 . S
C12 C13 1.358 . S
C12 C17 1.382 1_554 S
C13 C12 1.358 . S
C13 C14 1.385 . S
C13 H36 0.930 . S
C14 C13 1.385 . S
C14 C15 1.395 . S
C14 H37 0.929 . S
C15 C14 1.395 . S
C15 C16 1.335 1_554 S
C16 C15 1.335 1_556 S
C16 C17 1.398 . S
C16 H38 0.930 . S
C17 C12 1.382 1_556 S
C17 C16 1.398 . S
C17 H39 0.929 . S
C18 O28 1.271 . S
C18 O29 1.251 . S
C19 O30 1.252 1_554 S
C19 O31 1.272 . S
O20 Sm0 2.543 1_656 S
O20 C2 1.261 1_556 S
O21 Sm0 2.450 . S
O21 C2 1.242 1_455 S
O22 Sm0 2.681 . S
O22 Sm1 2.386 . S
O22 C9 1.271 . S
O23 Sm0 2.464 . S
O23 C9 1.251 . S
O24 Sm0 2.396 1_655 S
O24 C10 1.252 . S
O25 Sm1 2.408 1_655 S
O25 C10 1.272 . S
O26 Sm1 2.543 . S
O26 C11 1.261 . S
O27 Sm1 2.450 1_556 S
O27 C11 1.242 1_556 S
O28 Sm0 2.386 1_556 S
O28 Sm1 2.681 1_556 S
O28 C18 1.271 . S
O29 Sm1 2.464 1_556 S
O29 C18 1.251 . S
O30 Sm1 2.396 1_556 S
O30 C19 1.252 1_556 S
O31 Sm0 2.408 . S
O31 C19 1.272 . S
H32 C4 0.930 . S
H33 C5 0.929 . S
H34 C7 0.930 . S
H35 C8 0.929 . S
H36 C13 0.930 . S
H37 C14 0.929 . S
H38 C16 0.930 . S
H39 C17 0.929 . S
Sm40 C42 2.846 . S
Sm40 O60 2.543 1_554 S
Sm40 O61 2.450 . S
Sm40 O62 2.681 . S
Sm40 O63 2.464 . S
Sm40 O64 2.396 . S
Sm40 O68 2.386 1_554 S
Sm40 O71 2.408 1_655 S
Sm41 C51 2.846 1_655 S
Sm41 O62 2.386 . S
Sm41 O65 2.408 . S
Sm41 O66 2.543 1_655 S
Sm41 O67 2.450 1_554 S
Sm41 O68 2.681 1_554 S
Sm41 O69 2.464 1_554 S
Sm41 O70 2.396 1_654 S
C42 Sm40 2.846 . S
C42 C43 1.506 . S
C42 O60 1.261 1_554 S
C42 O61 1.242 . S
C43 C42 1.506 . S
C43 C44 1.358 1_554 S
C43 C48 1.382 . S
C44 C43 1.358 1_556 S
C44 C45 1.385 . S
C44 H72 0.930 . S
C45 C44 1.385 . S
C45 C46 1.395 1_556 S
C45 H73 0.929 . S
C46 C45 1.395 1_554 S
C46 C47 1.335 . S
C47 C46 1.335 . S
C47 C48 1.398 . S
C47 H74 0.930 . S
C48 C43 1.382 . S
C48 C47 1.398 . S
C48 H75 0.929 . S
C49 O62 1.271 . S
C49 O63 1.251 . S
C50 O64 1.252 . S
C50 O65 1.272 . S
C51 Sm41 2.846 1_455 S
C51 C52 1.506 . S
C51 O66 1.261 . S
C51 O67 1.242 1_454 S
C52 C51 1.506 . S
C52 C53 1.358 . S
C52 C57 1.382 1_554 S
C53 C52 1.358 . S
C53 C54 1.385 . S
C53 H76 0.930 . S
C54 C53 1.385 . S
C54 C55 1.395 . S
C54 H77 0.929 . S
C55 C54 1.395 . S
C55 C56 1.335 1_554 S
C56 C55 1.335 1_556 S
C56 C57 1.398 . S
C56 H78 0.930 . S
C57 C52 1.382 1_556 S
C57 C56 1.398 . S
C57 H79 0.929 . S
C58 O68 1.271 . S
C58 O69 1.251 . S
C59 O70 1.252 1_554 S
C59 O71 1.272 . S
O60 Sm40 2.543 1_556 S
O60 C42 1.261 1_556 S
O61 Sm40 2.450 . S
O61 C42 1.242 . S
O62 Sm40 2.681 . S
O62 Sm41 2.386 . S
O62 C49 1.271 . S
O63 Sm40 2.464 . S
O63 C49 1.251 . S
O64 Sm40 2.396 . S
O64 C50 1.252 . S
O65 Sm41 2.408 . S
O65 C50 1.272 . S
O66 Sm41 2.543 1_455 S
O66 C51 1.261 . S
O67 Sm41 2.450 1_556 S
O67 C51 1.242 1_656 S
O68 Sm40 2.386 1_556 S
O68 Sm41 2.681 1_556 S
O68 C58 1.271 . S
O69 Sm41 2.464 1_556 S
O69 C58 1.251 . S
O70 Sm41 2.396 1_456 S
O70 C59 1.252 1_556 S
O71 Sm40 2.408 1_455 S
O71 C59 1.272 . S
H72 C44 0.930 . S
H73 C45 0.929 . S
H74 C47 0.930 . S
H75 C48 0.929 . S
H76 C53 0.930 . S
H77 C54 0.929 . S
H78 C56 0.930 . S
H79 C57 0.929 . S
Sm80 C82 2.846 . S
Sm80 O100 2.543 . S
Sm80 O101 2.450 . S
Sm80 O102 2.681 . S
Sm80 O103 2.464 . S
Sm80 O104 2.396 . S
Sm80 O108 2.386 . S
Sm80 O111 2.408 1_455 S
Sm81 C91 2.846 1_455 S
Sm81 O102 2.386 . S
Sm81 O105 2.408 . S
Sm81 O106 2.543 1_455 S
Sm81 O107 2.450 . S
Sm81 O108 2.681 . S
Sm81 O109 2.464 . S
Sm81 O110 2.396 1_455 S
C82 Sm80 2.846 . S
C82 C83 1.506 . S
C82 O100 1.261 . S
C82 O101 1.242 . S
C83 C82 1.506 . S
C83 C84 1.358 . S
C83 C88 1.382 . S
C84 C83 1.358 . S
C84 C85 1.385 . S
C84 H112 0.930 . S
C85 C84 1.385 . S
C85 C86 1.395 . S
C85 H113 0.929 . S
C86 C85 1.395 . S
C86 C87 1.335 . S
C87 C86 1.335 . S
C87 C88 1.398 . S
C87 H114 0.930 . S
C88 C83 1.382 . S
C88 C87 1.398 . S
C88 H115 0.929 . S
C89 O102 1.271 . S
C89 O103 1.251 . S
C90 O104 1.252 . S
C90 O105 1.272 . S
C91 Sm81 2.846 1_655 S
C91 C92 1.506 . S
C91 O106 1.261 . S
C91 O107 1.242 1_655 S
C92 C91 1.506 . S
C92 C93 1.358 . S
C92 C97 1.382 . S
C93 C92 1.358 . S
C93 C94 1.385 . S
C93 H116 0.930 . S
C94 C93 1.385 . S
C94 C95 1.395 . S
C94 H117 0.929 . S
C95 C94 1.395 . S
C95 C96 1.335 . S
C96 C95 1.335 . S
C96 C97 1.398 . S
C96 H118 0.930 . S
C97 C92 1.382 . S
C97 C96 1.398 . S
C97 H119 0.929 . S
C98 O108 1.271 . S
C98 O109 1.251 . S
C99 O110 1.252 . S
C99 O111 1.272 . S
O100 Sm80 2.543 . S
O100 C82 1.261 . S
O101 Sm80 2.450 . S
O101 C82 1.242 . S
O102 Sm80 2.681 . S
O102 Sm81 2.386 . S
O102 C89 1.271 . S
O103 Sm80 2.464 . S
O103 C89 1.251 . S
O104 Sm80 2.396 . S
O104 C90 1.252 . S
O105 Sm81 2.408 . S
O105 C90 1.272 . S
O106 Sm81 2.543 1_655 S
O106 C91 1.261 . S
O107 Sm81 2.450 . S
O107 C91 1.242 1_455 S
O108 Sm80 2.386 . S
O108 Sm81 2.681 . S
O108 C98 1.271 . S
O109 Sm81 2.464 . S
O109 C98 1.251 . S
O110 Sm81 2.396 1_655 S
O110 C99 1.252 . S
O111 Sm80 2.408 1_655 S
O111 C99 1.272 . S
H112 C84 0.930 . S
H113 C85 0.929 . S
H114 C87 0.930 . S
H115 C88 0.929 . S
H116 C93 0.930 . S
H117 C94 0.929 . S
H118 C96 0.930 . S
H119 C97 0.929 . S
Sm120 C122 2.846 1_655 S
Sm120 O140 2.543 1_655 S
Sm120 O141 2.450 . S
Sm120 O142 2.681 . S
Sm120 O143 2.464 . S
Sm120 O144 2.396 1_655 S
Sm120 O148 2.386 . S
Sm120 O151 2.408 . S
Sm121 C131 2.846 . S
Sm121 O142 2.386 . S
Sm121 O145 2.408 1_655 S
Sm121 O146 2.543 . S
Sm121 O147 2.450 . S
Sm121 O148 2.681 . S
Sm121 O149 2.464 . S
Sm121 O150 2.396 . S
C122 Sm120 2.846 1_455 S
C122 C123 1.506 . S
C122 O140 1.261 . S
C122 O141 1.242 1_455 S
C123 C122 1.506 . S
C123 C124 1.358 . S
C123 C128 1.382 . S
C124 C123 1.358 . S
C124 C125 1.385 . S
C124 H152 0.930 . S
C125 C124 1.385 . S
C125 C126 1.395 . S
C125 H153 0.929 . S
C126 C125 1.395 . S
C126 C127 1.335 . S
C127 C126 1.335 . S
C127 C128 1.398 . S
C127 H154 0.930 . S
C128 C123 1.382 . S
C128 C127 1.398 . S
C128 H155 0.929 . S
C129 O142 1.271 . S
C129 O143 1.251 . S
C130 O144 1.252 . S
C130 O145 1.272 . S
C131 Sm121 2.846 . S
C131 C132 1.506 . S
C131 O146 1.261 . S
C131 O147 1.242 . S
C132 C131 1.506 . S
C132 C133 1.358 . S
C132 C137 1.382 . S
C133 C132 1.358 . S
C133 C134 1.385 . S
C133 H156 0.930 . S
C134 C133 1.385 . S
C134 C135 1.395 . S
C134 H157 0.929 . S
C135 C134 1.395 . S
C135 C136 1.335 . S
C136 C135 1.335 . S
C136 C137 1.398 . S
C136 H158 0.930 . S
C137 C132 1.382 . S
C137 C136 1.398 . S
C137 H159 0.929 . S
C138 O148 1.271 . S
C138 O149 1.251 . S
C139 O150 1.252 . S
C139 O151 1.272 . S
O140 Sm120 2.543 1_455 S
O140 C122 1.261 . S
O141 Sm120 2.450 . S
O141 C122 1.242 1_655 S
O142 Sm120 2.681 . S
O142 Sm121 2.386 . S
O142 C129 1.271 . S
O143 Sm120 2.464 . S
O143 C129 1.251 . S
O144 Sm120 2.396 1_455 S
O144 C130 1.252 . S
O145 Sm121 2.408 1_455 S
O145 C130 1.272 . S
O146 Sm121 2.543 . S
O146 C131 1.261 . S
O147 Sm121 2.450 . S
O147 C131 1.242 . S
O148 Sm120 2.386 . S
O148 Sm121 2.681 . S
O148 C138 1.271 . S
O149 Sm121 2.464 . S
O149 C138 1.251 . S
O150 Sm121 2.396 . S
O150 C139 1.252 . S
O151 Sm120 2.408 . S
O151 C139 1.272 . S
H152 C124 0.930 . S
H153 C125 0.929 . S
H154 C127 0.930 . S
H155 C128 0.929 . S
H156 C133 0.930 . S
H157 C134 0.929 . S
H158 C136 0.930 . S
H159 C137 0.929 . S
Sm160 C162 2.846 . S
Sm160 O180 2.543 1_554 S
Sm160 O181 2.450 . S
Sm160 O182 2.681 . S
Sm160 O183 2.464 . S
Sm160 O184 2.396 . S
Sm160 O188 2.386 1_554 S
Sm160 O191 2.408 . S
Sm161 C171 2.846 . S
Sm161 O182 2.386 . S
Sm161 O185 2.408 . S
Sm161 O186 2.543 . S
Sm161 O187 2.450 1_554 S
Sm161 O188 2.681 1_554 S
Sm161 O189 2.464 1_554 S
Sm161 O190 2.396 1_554 S
C162 Sm160 2.846 . S
C162 C163 1.506 . S
C162 O180 1.261 1_554 S
C162 O181 1.242 . S
C163 C162 1.506 . S
C163 C164 1.358 1_554 S
C163 C168 1.382 . S
C164 C163 1.358 1_556 S
C164 C165 1.385 . S
C164 H192 0.930 . S
C165 C164 1.385 . S
C165 C166 1.394 1_556 S
C165 H193 0.929 . S
C166 C165 1.394 1_554 S
C166 C167 1.335 . S
C167 C166 1.335 . S
C167 C168 1.398 . S
C167 H194 0.930 . S
C168 C163 1.382 . S
C168 C167 1.398 . S
C168 H195 0.929 . S
C169 O182 1.271 . S
C169 O183 1.251 . S
C170 O184 1.252 . S
C170 O185 1.272 . S
C171 Sm161 2.846 . S
C171 C172 1.506 . S
C171 O186 1.261 . S
C171 O187 1.242 1_554 S
C172 C171 1.506 . S
C172 C173 1.358 . S
C172 C177 1.382 1_554 S
C173 C172 1.358 . S
C173 C174 1.385 . S
C173 H196 0.930 . S
C174 C173 1.385 . S
C174 C175 1.395 . S
C174 H197 0.929 . S
C175 C174 1.395 . S
C175 C176 1.335 1_554 S
C176 C175 1.335 1_556 S
C176 C177 1.398 . S
C176 H198 0.930 . S
C177 C172 1.382 1_556 S
C177 C176 1.398 . S
C177 H199 0.929 . S
C178 O188 1.271 . S
C178 O189 1.251 . S
C179 O190 1.252 1_554 S
C179 O191 1.272 . S
O180 Sm160 2.543 1_556 S
O180 C162 1.261 1_556 S
O181 Sm160 2.450 . S
O181 C162 1.242 . S
O182 Sm160 2.681 . S
O182 Sm161 2.386 . S
O182 C169 1.271 . S
O183 Sm160 2.464 . S
O183 C169 1.251 . S
O184 Sm160 2.396 . S
O184 C170 1.252 . S
O185 Sm161 2.408 . S
O185 C170 1.272 . S
O186 Sm161 2.543 . S
O186 C171 1.261 . S
O187 Sm161 2.450 1_556 S
O187 C171 1.242 1_556 S
O188 Sm160 2.386 1_556 S
O188 Sm161 2.681 1_556 S
O188 C178 1.271 . S
O189 Sm161 2.464 1_556 S
O189 C178 1.251 . S
O190 Sm161 2.396 1_556 S
O190 C179 1.252 1_556 S
O191 Sm160 2.408 . S
O191 C179 1.272 . S
H192 C164 0.930 . S
H193 C165 0.929 . S
H194 C167 0.930 . S
H195 C168 0.929 . S
H196 C173 0.930 . S
H197 C174 0.929 . S
H198 C176 0.930 . S
H199 C177 0.929 . S
Sm200 C202 2.846 . S
Sm200 O220 2.543 1_554 S
Sm200 O221 2.450 . S
Sm200 O222 2.681 . S
Sm200 O223 2.464 . S
Sm200 O224 2.396 . S
Sm200 O228 2.386 1_554 S
Sm200 O231 2.408 . S
Sm201 C211 2.846 . S
Sm201 O222 2.386 . S
Sm201 O225 2.408 . S
Sm201 O226 2.543 . S
Sm201 O227 2.450 1_554 S
Sm201 O228 2.681 1_554 S
Sm201 O229 2.464 1_554 S
Sm201 O230 2.396 1_554 S
C202 Sm200 2.846 . S
C202 C203 1.506 . S
C202 O220 1.261 1_554 S
C202 O221 1.242 . S
C203 C202 1.506 . S
C203 C204 1.358 1_554 S
C203 C208 1.382 . S
C204 C203 1.358 1_556 S
C204 C205 1.385 . S
C204 H232 0.930 . S
C205 C204 1.385 . S
C205 C206 1.395 1_556 S
C205 H233 0.929 . S
C206 C205 1.395 1_554 S
C206 C207 1.335 . S
C207 C206 1.335 . S
C207 C208 1.398 . S
C207 H234 0.930 . S
C208 C203 1.382 . S
C208 C207 1.398 . S
C208 H235 0.929 . S
C209 O222 1.271 . S
C209 O223 1.251 . S
C210 O224 1.252 . S
C210 O225 1.272 . S
C211 Sm201 2.846 . S
C211 C212 1.506 . S
C211 O226 1.261 . S
C211 O227 1.242 1_554 S
C212 C211 1.506 . S
C212 C213 1.358 . S
C212 C217 1.382 1_554 S
C213 C212 1.358 . S
C213 C214 1.385 . S
C213 H236 0.930 . S
C214 C213 1.385 . S
C214 C215 1.395 . S
C214 H237 0.929 . S
C215 C214 1.395 . S
C215 C216 1.335 1_554 S
C216 C215 1.335 1_556 S
C216 C217 1.398 . S
C216 H238 0.930 . S
C217 C212 1.382 1_556 S
C217 C216 1.398 . S
C217 H239 0.929 . S
C218 O228 1.271 . S
C218 O229 1.251 . S
C219 O230 1.252 1_554 S
C219 O231 1.272 . S
O220 Sm200 2.543 1_556 S
O220 C202 1.261 1_556 S
O221 Sm200 2.450 . S
O221 C202 1.242 . S
O222 Sm200 2.681 . S
O222 Sm201 2.386 . S
O222 C209 1.271 . S
O223 Sm200 2.464 . S
O223 C209 1.251 . S
O224 Sm200 2.396 . S
O224 C210 1.252 . S
O225 Sm201 2.408 . S
O225 C210 1.272 . S
O226 Sm201 2.543 . S
O226 C211 1.261 . S
O227 Sm201 2.450 1_556 S
O227 C211 1.242 1_556 S
O228 Sm200 2.386 1_556 S
O228 Sm201 2.681 1_556 S
O228 C218 1.271 . S
O229 Sm201 2.464 1_556 S
O229 C218 1.251 . S
O230 Sm201 2.396 1_556 S
O230 C219 1.252 1_556 S
O231 Sm200 2.408 . S
O231 C219 1.272 . S
H232 C204 0.930 . S
H233 C205 0.929 . S
H234 C207 0.930 . S
H235 C208 0.929 . S
H236 C213 0.930 . S
H237 C214 0.929 . S
H238 C216 0.930 . S
H239 C217 0.929 . S
Sm240 C242 2.846 . S
Sm240 O260 2.543 . S
Sm240 O261 2.450 . S
Sm240 O262 2.681 . S
Sm240 O263 2.464 . S
Sm240 O264 2.396 . S
Sm240 O268 2.386 . S
Sm240 O271 2.408 . S
Sm241 C251 2.846 . S
Sm241 O262 2.386 . S
Sm241 O265 2.408 . S
Sm241 O266 2.543 . S
Sm241 O267 2.450 . S
Sm241 O268 2.681 . S
Sm241 O269 2.464 . S
Sm241 O270 2.396 . S
C242 Sm240 2.846 . S
C242 C243 1.506 . S
C242 O260 1.261 . S
C242 O261 1.242 . S
C243 C242 1.506 . S
C243 C244 1.358 . S
C243 C248 1.382 . S
C244 C243 1.358 . S
C244 C245 1.385 . S
C244 H272 0.930 . S
C245 C244 1.385 . S
C245 C246 1.395 . S
C245 H273 0.929 . S
C246 C245 1.395 . S
C246 C247 1.335 . S
C247 C246 1.335 . S
C247 C248 1.398 . S
C247 H274 0.930 . S
C248 C243 1.382 . S
C248 C247 1.398 . S
C248 H275 0.929 . S
C249 O262 1.271 . S
C249 O263 1.251 . S
C250 O264 1.252 . S
C250 O265 1.272 . S
C251 Sm241 2.846 . S
C251 C252 1.506 . S
C251 O266 1.261 . S
C251 O267 1.242 . S
C252 C251 1.506 . S
C252 C253 1.358 . S
C252 C257 1.382 . S
C253 C252 1.358 . S
C253 C254 1.385 . S
C253 H276 0.930 . S
C254 C253 1.385 . S
C254 C255 1.395 . S
C254 H277 0.929 . S
C255 C254 1.395 . S
C255 C256 1.335 . S
C256 C255 1.335 . S
C256 C257 1.398 . S
C256 H278 0.930 . S
C257 C252 1.382 . S
C257 C256 1.398 . S
C257 H279 0.929 . S
C258 O268 1.271 . S
C258 O269 1.251 . S
C259 O270 1.252 . S
C259 O271 1.272 . S
O260 Sm240 2.543 . S
O260 C242 1.261 . S
O261 Sm240 2.450 . S
O261 C242 1.242 . S
O262 Sm240 2.681 . S
O262 Sm241 2.386 . S
O262 C249 1.271 . S
O263 Sm240 2.464 . S
O263 C249 1.251 . S
O264 Sm240 2.396 . S
O264 C250 1.252 . S
O265 Sm241 2.408 . S
O265 C250 1.272 . S
O266 Sm241 2.543 . S
O266 C251 1.261 . S
O267 Sm241 2.450 . S
O267 C251 1.242 . S
O268 Sm240 2.386 . S
O268 Sm241 2.681 . S
O268 C258 1.271 . S
O269 Sm241 2.464 . S
O269 C258 1.251 . S
O270 Sm241 2.396 . S
O270 C259 1.252 . S
O271 Sm240 2.408 . S
O271 C259 1.272 . S
H272 C244 0.930 . S
H273 C245 0.929 . S
H274 C247 0.930 . S
H275 C248 0.929 . S
H276 C253 0.930 . S
H277 C254 0.929 . S
H278 C256 0.930 . S
H279 C257 0.929 . S
Sm280 C282 2.846 . S
Sm280 O300 2.543 . S
Sm280 O301 2.450 . S
Sm280 O302 2.681 . S
Sm280 O303 2.464 . S
Sm280 O304 2.396 . S
Sm280 O308 2.386 . S
Sm280 O311 2.408 . S
Sm281 C291 2.846 . S
Sm281 O302 2.386 . S
Sm281 O305 2.408 . S
Sm281 O306 2.543 . S
Sm281 O307 2.450 . S
Sm281 O308 2.681 . S
Sm281 O309 2.464 . S
Sm281 O310 2.396 . S
C282 Sm280 2.846 . S
C282 C283 1.506 . S
C282 O300 1.261 . S
C282 O301 1.242 . S
C283 C282 1.506 . S
C283 C284 1.358 . S
C283 C288 1.382 . S
C284 C283 1.358 . S
C284 C285 1.385 . S
C284 H312 0.930 . S
C285 C284 1.385 . S
C285 C286 1.395 . S
C285 H313 0.929 . S
C286 C285 1.395 . S
C286 C287 1.335 . S
C287 C286 1.335 . S
C287 C288 1.398 . S
C287 H314 0.930 . S
C288 C283 1.382 . S
C288 C287 1.398 . S
C288 H315 0.929 . S
C289 O302 1.271 . S
C289 O303 1.251 . S
C290 O304 1.252 . S
C290 O305 1.272 . S
C291 Sm281 2.846 . S
C291 C292 1.506 . S
C291 O306 1.261 . S
C291 O307 1.242 . S
C292 C291 1.506 . S
C292 C293 1.358 . S
C292 C297 1.382 . S
C293 C292 1.358 . S
C293 C294 1.385 . S
C293 H316 0.930 . S
C294 C293 1.385 . S
C294 C295 1.395 . S
C294 H317 0.929 . S
C295 C294 1.395 . S
C295 C296 1.335 . S
C296 C295 1.335 . S
C296 C297 1.398 . S
C296 H318 0.930 . S
C297 C292 1.382 . S
C297 C296 1.398 . S
C297 H319 0.929 . S
C298 O308 1.271 . S
C298 O309 1.251 . S
C299 O310 1.252 . S
C299 O311 1.272 . S
O300 Sm280 2.543 . S
O300 C282 1.261 . S
O301 Sm280 2.450 . S
O301 C282 1.242 . S
O302 Sm280 2.681 . S
O302 Sm281 2.386 . S
O302 C289 1.271 . S
O303 Sm280 2.464 . S
O303 C289 1.251 . S
O304 Sm280 2.396 . S
O304 C290 1.252 . S
O305 Sm281 2.408 . S
O305 C290 1.272 . S
O306 Sm281 2.543 . S
O306 C291 1.261 . S
O307 Sm281 2.450 . S
O307 C291 1.242 . S
O308 Sm280 2.386 . S
O308 Sm281 2.681 . S
O308 C298 1.271 . S
O309 Sm281 2.464 . S
O309 C298 1.251 . S
O310 Sm281 2.396 . S
O310 C299 1.252 . S
O311 Sm280 2.408 . S
O311 C299 1.272 . S
H312 C284 0.930 . S
H313 C285 0.929 . S
H314 C287 0.930 . S
H315 C288 0.929 . S
H316 C293 0.930 . S
H317 C294 0.929 . S
H318 C296 0.930 . S
H319 C297 0.929 . S
C320 C321 1.369 1_556 S
C320 C322 1.419 . S
C320 H324 0.930 . S
C321 C320 1.369 1_554 S
C321 C330 1.429 . S
C322 C320 1.419 . S
C322 C323 1.363 1_556 S
C322 H325 0.929 . S
C323 C322 1.363 1_554 S
C323 C329 1.428 . S
H324 C320 0.930 . S
H325 C322 0.929 . S
S326 N327 1.613 . S
S326 N328 1.610 . S
N327 S326 1.613 . S
N327 C330 1.350 . S
N328 S326 1.610 . S
N328 C329 1.351 . S
C329 C323 1.428 . S
C329 N328 1.351 . S
C329 C330 1.434 . S
C330 C321 1.429 . S
C330 N327 1.350 . S
C330 C329 1.434 . S
C331 C332 1.369 1_556 S
C331 C333 1.419 . S
C331 H335 0.930 . S
C332 C331 1.369 1_554 S
C332 C341 1.429 . S
C333 C331 1.419 . S
C333 C334 1.363 1_556 S
C333 H336 0.929 . S
C334 C333 1.363 1_554 S
C334 C340 1.428 . S
H335 C331 0.930 . S
H336 C333 0.929 . S
S337 N338 1.613 . S
S337 N339 1.610 . S
N338 S337 1.613 . S
N338 C341 1.350 . S
N339 S337 1.610 . S
N339 C340 1.351 . S
C340 C334 1.428 . S
C340 N339 1.351 . S
C340 C341 1.434 . S
C341 C332 1.429 . S
C341 N338 1.350 . S
C341 C340 1.434 . S
C342 C343 1.369 . S
C342 C344 1.419 . S
C342 H346 0.930 . S
C343 C342 1.369 . S
C343 C352 1.429 . S
C344 C342 1.419 . S
C344 C345 1.363 . S
C344 H347 0.929 . S
C345 C344 1.363 . S
C345 C351 1.428 . S
H346 C342 0.930 . S
H347 C344 0.929 . S
S348 N349 1.613 . S
S348 N350 1.610 . S
N349 S348 1.613 . S
N349 C352 1.350 . S
N350 S348 1.610 . S
N350 C351 1.351 . S
C351 C345 1.428 . S
C351 N350 1.351 . S
C351 C352 1.434 . S
C352 C343 1.429 . S
C352 N349 1.350 . S
C352 C351 1.434 . S
C353 C354 1.369 . S
C353 C355 1.419 . S
C353 H357 0.930 . S
C354 C353 1.369 . S
C354 C363 1.429 . S
C355 C353 1.419 . S
C355 C356 1.363 . S
C355 H358 0.929 . S
C356 C355 1.363 . S
C356 C362 1.428 . S
H357 C353 0.930 . S
H358 C355 0.929 . S
S359 N360 1.613 . S
S359 N361 1.610 . S
N360 S359 1.613 . S
N360 C363 1.350 . S
N361 S359 1.610 . S
N361 C362 1.351 . S
C362 C356 1.428 . S
C362 N361 1.351 . S
C362 C363 1.434 . S
C363 C354 1.429 . S
C363 N360 1.350 . S
C363 C362 1.434 . S
C364 C365 1.369 . S
C364 C366 1.419 1_655 S
C364 H368 0.930 . S
C365 C364 1.369 . S
C365 C374 1.429 1_654 S
C366 C364 1.419 1_455 S
C366 C367 1.363 . S
C366 H369 0.929 . S
C367 C366 1.363 . S
C367 C373 1.428 1_554 S
H368 C364 0.930 . S
H369 C366 0.929 . S
S370 N371 1.613 . S
S370 N372 1.610 . S
N371 S370 1.613 . S
N371 C374 1.350 . S
N372 S370 1.610 . S
N372 C373 1.351 . S
C373 C367 1.428 1_556 S
C373 N372 1.351 . S
C373 C374 1.434 . S
C374 C365 1.429 1_456 S
C374 N371 1.350 . S
C374 C373 1.434 . S
C375 C376 1.369 . S
C375 C377 1.419 1_455 S
C375 H379 0.930 1_554 S
C376 C375 1.369 . S
C376 C385 1.429 1_455 S
C377 C375 1.419 1_655 S
C377 C378 1.363 . S
C377 H380 0.929 1_554 S
C378 C377 1.363 . S
C378 C384 1.428 . S
H379 C375 0.930 1_556 S
H380 C377 0.929 1_556 S
S381 N382 1.613 . S
S381 N383 1.610 . S
N382 S381 1.613 . S
N382 C385 1.350 . S
N383 S381 1.610 . S
N383 C384 1.351 . S
C384 C378 1.428 . S
C384 N383 1.351 . S
C384 C385 1.434 . S
C385 C376 1.429 1_655 S
C385 N382 1.350 . S
C385 C384 1.434 . S
C386 C387 1.369 . S
C386 C388 1.419 . S
C386 H390 0.930 . S
C387 C386 1.369 . S
C387 C396 1.429 . S
C388 C386 1.419 . S
C388 C389 1.363 1_455 S
C388 H391 0.929 . S
C389 C388 1.363 1_655 S
C389 C395 1.428 . S
H390 C386 0.930 . S
H391 C388 0.929 . S
S392 N393 1.613 1_655 S
S392 N394 1.610 . S
N393 S392 1.613 1_455 S
N393 C396 1.350 . S
N394 S392 1.610 . S
N394 C395 1.351 . S
C395 C389 1.428 . S
C395 N394 1.351 . S
C395 C396 1.434 1_655 S
C396 C387 1.429 . S
C396 N393 1.350 . S
C396 C395 1.434 1_455 S
C397 C398 1.369 . S
C397 C399 1.419 1_655 S
C397 H401 0.930 . S
C398 C397 1.369 . S
C398 C407 1.429 . S
C399 C397 1.419 1_455 S
C399 C400 1.363 . S
C399 H402 0.929 . S
C400 C399 1.363 . S
C400 C406 1.428 1_455 S
H401 C397 0.930 . S
H402 C399 0.929 . S
S403 N404 1.613 . S
S403 N405 1.610 . S
N404 S403 1.613 . S
N404 C407 1.350 . S
N405 S403 1.610 . S
N405 C406 1.351 . S
C406 C400 1.428 1_655 S
C406 N405 1.351 . S
C406 C407 1.434 . S
C407 C398 1.429 . S
C407 N404 1.350 . S
C407 C406 1.434 . S
C408 C409 1.369 1_655 S
C408 C410 1.419 . S
C408 H412 0.930 . S
C409 C408 1.369 1_455 S
C409 C418 1.429 1_554 S
C410 C408 1.419 . S
C410 C411 1.363 . S
C410 H413 0.929 . S
C411 C410 1.363 . S
C411 C417 1.428 1_654 S
H412 C408 0.930 . S
H413 C410 0.929 . S
S414 N415 1.613 . S
S414 N416 1.610 . S
N415 S414 1.613 . S
N415 C418 1.350 . S
N416 S414 1.610 . S
N416 C417 1.351 . S
C417 C411 1.428 1_456 S
C417 N416 1.351 . S
C417 C418 1.434 . S
C418 C409 1.429 1_556 S
C418 N415 1.350 . S
C418 C417 1.434 . S
C419 C420 1.369 . S
C419 C421 1.419 . S
C419 H423 0.930 . S
C420 C419 1.369 . S
C420 C429 1.429 1_455 S
C421 C419 1.419 . S
C421 C422 1.363 1_455 S
C421 H424 0.929 . S
C422 C421 1.363 1_655 S
C422 C428 1.428 . S
H423 C419 0.930 . S
H424 C421 0.929 . S
S425 N426 1.613 . S
S425 N427 1.610 . S
N426 S425 1.613 . S
N426 C429 1.350 . S
N427 S425 1.610 . S
N427 C428 1.351 . S
C428 C422 1.428 . S
C428 N427 1.351 . S
C428 C429 1.434 . S
C429 C420 1.429 1_655 S
C429 N426 1.350 . S
C429 C428 1.434 . S
C430 C431 1.369 . S
C430 C432 1.419 1_565 S
C430 H434 0.930 . S
C431 C430 1.369 . S
C431 C440 1.429 1_554 S
C432 C430 1.419 1_545 S
C432 C433 1.363 . S
C432 H435 0.929 . S
C433 C432 1.363 . S
C433 C439 1.428 1_554 S
H434 C430 0.930 . S
H435 C432 0.929 . S
S436 N437 1.613 . S
S436 N438 1.610 1_565 S
N437 S436 1.613 . S
N437 C440 1.350 . S
N438 S436 1.610 1_545 S
N438 C439 1.351 . S
C439 C433 1.428 1_556 S
C439 N438 1.351 . S
C439 C440 1.434 1_545 S
C440 C431 1.429 1_556 S
C440 N437 1.350 . S
C440 C439 1.434 1_565 S
C441 C442 1.369 . S
C441 C443 1.419 . S
C441 H445 0.930 . S
C442 C441 1.369 . S
C442 C451 1.429 1_545 S
C443 C441 1.419 . S
C443 C444 1.363 1_545 S
C443 H446 0.929 . S
C444 C443 1.363 1_565 S
C444 C450 1.428 . S
H445 C441 0.930 . S
H446 C443 0.929 . S
S447 N448 1.613 . S
S447 N449 1.610 . S
N448 S447 1.613 . S
N448 C451 1.350 . S
N449 S447 1.610 . S
N449 C450 1.351 . S
C450 C444 1.428 . S
C450 N449 1.351 . S
C450 C451 1.434 . S
C451 C442 1.429 1_565 S
C451 N448 1.350 . S
C451 C450 1.434 . S
C452 C453 1.369 1_556 S
C452 C454 1.419 . S
C452 H456 0.930 . S
C453 C452 1.369 1_554 S
C453 C462 1.429 . S
C454 C452 1.419 . S
C454 C455 1.363 1_556 S
C454 H457 0.929 . S
C455 C454 1.363 1_554 S
C455 C461 1.428 . S
H456 C452 0.930 . S
H457 C454 0.929 . S
S458 N459 1.613 . S
S458 N460 1.610 . S
N459 S458 1.613 . S
N459 C462 1.350 . S
N460 S458 1.610 . S
N460 C461 1.351 . S
C461 C455 1.428 . S
C461 N460 1.351 . S
C461 C462 1.434 . S
C462 C453 1.429 . S
C462 N459 1.350 . S
C462 C461 1.434 . S
C463 C464 1.369 1_556 S
C463 C465 1.419 . S
C463 H467 0.930 . S
C464 C463 1.369 1_554 S
C464 C473 1.429 . S
C465 C463 1.419 . S
C465 C466 1.363 1_556 S
C465 H468 0.929 . S
C466 C465 1.363 1_554 S
C466 C472 1.428 . S
H467 C463 0.930 . S
H468 C465 0.929 . S
S469 N470 1.613 . S
S469 N471 1.610 . S
N470 S469 1.613 . S
N470 C473 1.350 . S
N471 S469 1.610 . S
N471 C472 1.351 . S
C472 C466 1.428 . S
C472 N471 1.351 . S
C472 C473 1.434 . S
C473 C464 1.429 . S
C473 N470 1.350 . S
C473 C472 1.434 . S
C474 C475 1.369 . S
C474 C476 1.419 . S
C474 H478 0.930 . S
C475 C474 1.369 . S
C475 C484 1.429 . S
C476 C474 1.419 . S
C476 C477 1.363 . S
C476 H479 0.929 . S
C477 C476 1.363 . S
C477 C483 1.428 . S
H478 C474 0.930 . S
H479 C476 0.929 . S
S480 N481 1.613 . S
S480 N482 1.610 . S
N481 S480 1.613 . S
N481 C484 1.350 . S
N482 S480 1.610 . S
N482 C483 1.351 . S
C483 C477 1.428 . S
C483 N482 1.351 . S
C483 C484 1.434 . S
C484 C475 1.429 . S
C484 N481 1.350 . S
C484 C483 1.434 . S
C485 C486 1.369 . S
C485 C487 1.419 . S
C485 H489 0.930 . S
C486 C485 1.369 . S
C486 C495 1.429 . S
C487 C485 1.419 . S
C487 C488 1.363 . S
C487 H490 0.929 . S
C488 C487 1.363 . S
C488 C494 1.428 . S
H489 C485 0.930 . S
H490 C487 0.929 . S
S491 N492 1.613 . S
S491 N493 1.610 . S
N492 S491 1.613 . S
N492 C495 1.350 . S
N493 S491 1.610 . S
N493 C494 1.351 . S
C494 C488 1.428 . S
C494 N493 1.351 . S
C494 C495 1.434 . S
C495 C486 1.429 . S
C495 N492 1.350 . S
C495 C494 1.434 . S
C496 C497 1.369 1_655 S
C496 C498 1.419 . S
C496 H500 0.930 . S
C497 C496 1.369 1_455 S
C497 C506 1.429 . S
C498 C496 1.419 . S
C498 C499 1.363 . S
C498 H501 0.929 . S
C499 C498 1.363 . S
C499 C505 1.428 1_655 S
H500 C496 0.930 . S
H501 C498 0.929 . S
S502 N503 1.613 . S
S502 N504 1.610 . S
N503 S502 1.613 . S
N503 C506 1.350 . S
N504 S502 1.610 . S
N504 C505 1.351 . S
C505 C499 1.428 1_455 S
C505 N504 1.351 . S
C505 C506 1.434 . S
C506 C497 1.429 . S
C506 N503 1.350 . S
C506 C505 1.434 . S
C507 C508 1.369 . S
C507 C509 1.419 . S
C507 H511 0.930 . S
C508 C507 1.369 . S
C508 C517 1.429 1_655 S
C509 C507 1.419 . S
C509 C510 1.363 1_655 S
C509 H512 0.929 . S
C510 C509 1.363 1_455 S
C510 C516 1.428 . S
H511 C507 0.930 . S
H512 C509 0.929 . S
S513 N514 1.613 . S
S513 N515 1.610 . S
N514 S513 1.613 . S
N514 C517 1.350 . S
N515 S513 1.610 . S
N515 C516 1.351 . S
C516 C510 1.428 . S
C516 N515 1.351 . S
C516 C517 1.434 . S
C517 C508 1.429 1_455 S
C517 N514 1.350 . S
C517 C516 1.434 . S
C518 C519 1.369 1_455 S
C518 C520 1.419 . S
C518 H522 0.930 . S
C519 C518 1.369 1_655 S
C519 C528 1.429 . S
C520 C518 1.419 . S
C520 C521 1.363 . S
C520 H523 0.929 . S
C521 C520 1.363 . S
C521 C527 1.428 1_455 S
H522 C518 0.930 . S
H523 C520 0.929 . S
S524 N525 1.613 . S
S524 N526 1.610 . S
N525 S524 1.613 . S
N525 C528 1.350 . S
N526 S524 1.610 . S
N526 C527 1.351 . S
C527 C521 1.428 1_655 S
C527 N526 1.351 . S
C527 C528 1.434 . S
C528 C519 1.429 . S
C528 N525 1.350 . S
C528 C527 1.434 . S
C529 C530 1.369 1_455 S
C529 C531 1.419 . S
C529 H533 0.930 . S
C530 C529 1.369 1_655 S
C530 C539 1.429 . S
C531 C529 1.419 . S
C531 C532 1.363 . S
C531 H534 0.929 . S
C532 C531 1.363 . S
C532 C538 1.428 1_455 S
H533 C529 0.930 . S
H534 C531 0.929 . S
S535 N536 1.613 . S
S535 N537 1.610 . S
N536 S535 1.613 . S
N536 C539 1.350 . S
N537 S535 1.610 . S
N537 C538 1.351 . S
C538 C532 1.428 1_655 S
C538 N537 1.351 . S
C538 C539 1.434 . S
C539 C530 1.429 . S
C539 N536 1.350 . S
C539 C538 1.434 . S
C540 C541 1.369 . S
C540 C542 1.419 . S
C540 H544 0.930 . S
C541 C540 1.369 . S
C541 C550 1.429 . S
C542 C540 1.419 . S
C542 C543 1.363 . S
C542 H545 0.929 . S
C543 C542 1.363 . S
C543 C549 1.428 . S
H544 C540 0.930 . S
H545 C542 0.929 . S
S546 N547 1.613 . S
S546 N548 1.610 . S
N547 S546 1.613 . S
N547 C550 1.350 . S
N548 S546 1.610 . S
N548 C549 1.351 . S
C549 C543 1.428 . S
C549 N548 1.351 . S
C549 C550 1.434 . S
C550 C541 1.429 . S
C550 N547 1.350 . S
C550 C549 1.434 . S
C551 C552 1.369 . S
C551 C553 1.419 . S
C551 H555 0.930 . S
C552 C551 1.369 . S
C552 C561 1.429 . S
C553 C551 1.419 . S
C553 C554 1.363 . S
C553 H556 0.929 . S
C554 C553 1.363 . S
C554 C560 1.428 . S
H555 C551 0.930 . S
H556 C553 0.929 . S
S557 N558 1.613 . S
S557 N559 1.610 . S
N558 S557 1.613 . S
N558 C561 1.350 . S
N559 S557 1.610 . S
N559 C560 1.351 . S
C560 C554 1.428 . S
C560 N559 1.351 . S
C560 C561 1.434 . S
C561 C552 1.429 . S
C561 N558 1.350 . S
C561 C560 1.434 . S
C562 C563 1.369 . S
C562 C564 1.419 . S
C562 H566 0.930 . S
C563 C562 1.369 . S
C563 C572 1.429 . S
C564 C562 1.419 . S
C564 C565 1.363 . S
C564 H567 0.929 . S
C565 C564 1.363 . S
C565 C571 1.428 . S
H566 C562 0.930 . S
H567 C564 0.929 . S
S568 N569 1.613 . S
S568 N570 1.610 . S
N569 S568 1.613 . S
N569 C572 1.350 . S
N570 S568 1.610 . S
N570 C571 1.351 . S
C571 C565 1.428 . S
C571 N570 1.351 . S
C571 C572 1.434 . S
C572 C563 1.429 . S
C572 N569 1.350 . S
C572 C571 1.434 . S
C573 C574 1.369 . S
C573 C575 1.419 . S
C573 H577 0.930 . S
C574 C573 1.369 . S
C574 C583 1.429 . S
C575 C573 1.419 . S
C575 C576 1.363 . S
C575 H578 0.929 . S
C576 C575 1.363 . S
C576 C582 1.428 . S
H577 C573 0.930 . S
H578 C575 0.929 . S
S579 N580 1.613 . S
S579 N581 1.610 . S
N580 S579 1.613 . S
N580 C583 1.350 . S
N581 S579 1.610 . S
N581 C582 1.351 . S
C582 C576 1.428 . S
C582 N581 1.351 . S
C582 C583 1.434 . S
C583 C574 1.429 . S
C583 N580 1.350 . S
C583 C582 1.434 . S
C321 C19 2.274 . S
C323 C10 2.279 . S
C332 C59 2.274 . S
C334 C50 2.278 . S
C343 C99 2.274 . S
C345 C90 2.279 . S
C354 C139 2.280 . S
C356 C130 2.274 . S
C365 C179 2.280 . S
C367 C170 2.274 . S
C376 C210 2.279 . S
C378 C219 2.275 . S
C387 C259 2.280 . S
C389 C250 2.274 . S
C398 C290 2.277 . S
C400 C299 2.277 . S
C409 C55 2.915 . S
C411 C6 2.911 . S
C420 C126 2.910 . S
C422 C95 2.914 . S
C431 C166 2.909 . S
C433 C215 2.913 . S
C442 C255 2.915 . S
C444 C286 2.911 . S
C453 C15 2.036 . S
C455 C206 2.030 . S
C464 C175 2.037 . S
C466 C46 2.029 . S
C475 C86 2.031 . S
C477 C295 2.034 . S
C486 C135 2.037 . S
C488 C246 2.029 . S
C497 C9 1.500 . S
C499 C129 1.499 . S
C508 C49 1.582 . S
C510 C89 1.580 . S
C519 C58 1.492 . S
C521 C98 1.492 . S
C530 C138 1.582 . S
C532 C18 1.579 . S
C541 C169 1.500 . S
C543 C289 1.499 . S
C552 C209 1.577 . S
C554 C249 1.582 . S
C563 C218 1.499 . S
C565 C258 1.497 . S
C574 C298 1.573 . S
C576 C178 1.579 . S
