# Generated by pormake.
# Topology smu, (6)-cn, num edge types: 1
# Building blocks:
#     Node 0, Type 0, BuildingBlock: CUKXOW_clean_sbu_0, # of connection points: 6
#     Node 1, Type 0, BuildingBlock: CUKXOW_clean_sbu_0, # of connection points: 6
#     Node 2, Type 0, BuildingBlock: CUKXOW_clean_sbu_0, # of connection points: 6
#     Node 3, Type 0, BuildingBlock: CUKXOW_clean_sbu_0, # of connection points: 6
#     Node 4, Type 0, BuildingBlock: CUKXOW_clean_sbu_0, # of connection points: 6
#     Node 5, Type 0, BuildingBlock: CUKXOW_clean_sbu_0, # of connection points: 6
#     Edge 6, Type (0, 0), BuildingBlock: FUNLAD_clean_linker_0, # of connection points: 2
#     Edge 7, Type (0, 0), BuildingBlock: FUNLAD_clean_linker_0, # of connection points: 2
#     Edge 8, Type (0, 0), BuildingBlock: FUNLAD_clean_linker_0, # of connection points: 2
#     Edge 9, Type (0, 0), BuildingBlock: FUNLAD_clean_linker_0, # of connection points: 2
#     Edge 10, Type (0, 0), BuildingBlock: FUNLAD_clean_linker_0, # of connection points: 2
#     Edge 11, Type (0, 0), BuildingBlock: FUNLAD_clean_linker_0, # of connection points: 2
#     Edge 12, Type (0, 0), BuildingBlock: FUNLAD_clean_linker_0, # of connection points: 2
#     Edge 13, Type (0, 0), BuildingBlock: FUNLAD_clean_linker_0, # of connection points: 2
#     Edge 14, Type (0, 0), BuildingBlock: FUNLAD_clean_linker_0, # of connection points: 2
#     Edge 15, Type (0, 0), BuildingBlock: FUNLAD_clean_linker_0, # of connection points: 2
#     Edge 16, Type (0, 0), BuildingBlock: FUNLAD_clean_linker_0, # of connection points: 2
#     Edge 17, Type (0, 0), BuildingBlock: FUNLAD_clean_linker_0, # of connection points: 2
#     Edge 18, Type (0, 0), BuildingBlock: FUNLAD_clean_linker_0, # of connection points: 2
#     Edge 19, Type (0, 0), BuildingBlock: FUNLAD_clean_linker_0, # of connection points: 2
#     Edge 20, Type (0, 0), BuildingBlock: FUNLAD_clean_linker_0, # of connection points: 2
#     Edge 21, Type (0, 0), BuildingBlock: FUNLAD_clean_linker_0, # of connection points: 2
#     Edge 22, Type (0, 0), BuildingBlock: FUNLAD_clean_linker_0, # of connection points: 2
#     Edge 23, Type (0, 0), BuildingBlock: FUNLAD_clean_linker_0, # of connection points: 2
# Relax obj value: 0.191
# Max RMSD: 0.296
# Mean RMSD: 0.275
data_MOF--net-smu--node1-CUKXOW_clean_sbu_0--edge1-FUNLAD_clean_linker_0
_symmetry_space_group_name_H-M    P1
_symmetry_Int_Tables_number       1
_symmetry_cell_setting            triclinic
loop_
_symmetry_equiv_pos_as_xyz
'x, y, z'
_cell_length_a     35.234525
_cell_length_b     35.134999
_cell_length_c     33.270708
_cell_angle_alpha  93.818425
_cell_angle_beta   91.428295
_cell_angle_gamma 119.9906
loop_
_atom_site_label
_atom_site_type_symbol
_atom_site_fract_x
_atom_site_fract_y
_atom_site_fract_z
_atom_type_partial_charge
Tb0 Tb 0.39654 0.15167 0.27688 0.0
C1 C 0.3471 0.09259 0.34944 0.0
Tb2 Tb 0.32051 0.05593 0.25823 0.0
O3 O 0.3599 0.17359 0.24062 0.0
O4 O 0.32666 0.11883 0.27223 0.0
O5 O 0.38247 0.12875 0.33848 0.0
C6 C 0.2377 0.99119 0.24318 0.0
O7 O 0.31645 0.06243 0.32277 0.0
C8 C 0.40048 0.06724 0.26414 0.0
C9 C 0.37672 0.10494 0.18835 0.0
O10 O 0.26671 0.98931 0.2668 0.0
O11 O 0.25579 0.02873 0.22761 0.0
O12 O 0.3682 0.03385 0.24239 0.0
O13 O 0.3854 0.08824 0.28265 0.0
O14 O 0.33683 0.0769 0.19843 0.0
O15 O 0.40842 0.13396 0.21526 0.0
C16 C 0.46363 0.23234 0.30083 0.0
O17 O 0.4667 0.20177 0.27923 0.0
O18 O 0.4232 0.21665 0.31002 0.0
C19 C 0.32153 0.14207 0.24791 0.0
Tb20 Tb 0.75713 0.71323 0.26645 0.0
C21 C 0.77286 0.67781 0.34153 0.0
Tb22 Tb 0.77854 0.64043 0.25355 0.0
O23 O 0.69342 0.66954 0.29171 0.0
O24 O 0.72118 0.64458 0.25109 0.0
O25 O 0.78418 0.71512 0.3256 0.0
C26 C 0.80345 0.58032 0.25928 0.0
O27 O 0.76351 0.6415 0.31804 0.0
C28 C 0.84234 0.72001 0.24218 0.0
C29 C 0.7429 0.6658 0.17757 0.0
O30 O 0.82181 0.61917 0.27853 0.0
O31 O 0.76947 0.57423 0.23716 0.0
O32 O 0.8343 0.6843 0.22102 0.0
O33 O 0.81575 0.70987 0.26962 0.0
O34 O 0.75178 0.63605 0.19147 0.0
O35 O 0.74459 0.69855 0.20132 0.0
C36 C 0.7728 0.79494 0.26007 0.0
O37 O 0.78766 0.77449 0.23759 0.0
O38 O 0.74799 0.76899 0.28622 0.0
C39 C 0.69083 0.63372 0.27456 0.0
Tb40 Tb 0.8892 0.24885 0.28437 0.0
C41 C 0.95324 0.28851 0.36396 0.0
Tb42 Tb 0.98595 0.27878 0.27766 0.0
O43 O 0.88139 0.19409 0.31647 0.0
O44 O 0.92605 0.21676 0.27197 0.0
O45 O 0.91372 0.27769 0.34729 0.0
C46 C 0.05865 0.27312 0.28144 0.0
O47 O 0.98464 0.28861 0.34263 0.0
C48 C 0.96508 0.34025 0.26752 0.0
C49 C 0.93081 0.2567 0.19938 0.0
O50 O 0.02382 0.25027 0.30061 0.0
O51 O 0.05319 0.30046 0.26089 0.0
O52 O 0.99993 0.34176 0.25338 0.0
O53 O 0.94832 0.30905 0.28956 0.0
O54 O 0.95965 0.24913 0.21762 0.0
O55 O 0.90276 0.26347 0.22053 0.0
C56 C 0.80341 0.22092 0.27173 0.0
O57 O 0.82533 0.20624 0.25195 0.0
O58 O 0.82992 0.2521 0.29895 0.0
C59 C 0.91162 0.19009 0.29886 0.0
Tb60 Tb 0.05968 0.31751 0.78544 0.0
C61 C 0.11075 0.35415 0.71238 0.0
Tb62 Tb 0.15408 0.39066 0.80184 0.0
O63 O 0.04062 0.36225 0.75864 0.0
O64 O 0.09249 0.38603 0.80198 0.0
O65 O 0.08443 0.31661 0.72735 0.0
C66 C 0.23773 0.4529 0.79547 0.0
O67 O 0.13735 0.3902 0.73676 0.0
C68 C 0.13911 0.3113 0.81328 0.0
C69 C 0.09287 0.36275 0.87525 0.0
O70 O 0.21619 0.41557 0.77375 0.0
O71 O 0.2119 0.45611 0.82112 0.0
O72 O 0.16792 0.34701 0.83431 0.0
O73 O 0.12202 0.32145 0.78522 0.0
O74 O 0.13106 0.39365 0.86267 0.0
O75 O 0.06223 0.32973 0.85061 0.0
C76 C 0.99139 0.23592 0.78495 0.0
O77 O 0.99204 0.26685 0.76499 0.0
O78 O 0.02863 0.25134 0.80548 0.0
C79 C 0.07337 0.39764 0.77762 0.0
Tb80 Tb 0.28129 0.97752 0.7743 0.0
C81 C 0.28052 0.9417 0.68301 0.0
Tb82 Tb 0.26226 0.88361 0.75661 0.0
O83 O 0.34962 0.99986 0.79771 0.0
O84 O 0.31632 0.94685 0.75444 0.0
O85 O 0.27951 0.97173 0.70866 0.0
C86 C 0.24321 0.79958 0.75649 0.0
O87 O 0.2786 0.90527 0.69527 0.0
C88 C 0.19465 0.89537 0.74917 0.0
C89 C 0.27622 0.92791 0.84677 0.0
O90 O 0.27931 0.8314 0.74414 0.0
O91 O 0.21922 0.81558 0.76922 0.0
O92 O 0.20072 0.86832 0.72565 0.0
O93 O 0.22557 0.91373 0.77633 0.0
O94 O 0.28422 0.90149 0.82212 0.0
O95 O 0.26241 0.95319 0.83218 0.0
C96 C 0.26371 0.04285 0.77174 0.0
O97 O 0.29366 0.0436 0.79612 0.0
O98 O 0.2446 1.00598 0.74907 0.0
C99 C 0.35047 0.96734 0.77726 0.0
Tb100 Tb 0.71852 0.75354 0.76908 0.0
C101 C 0.67272 0.74111 0.68097 0.0
Tb102 Tb 0.64379 0.77279 0.75999 0.0
O103 O 0.6747 0.68848 0.7919 0.0
O104 O 0.65095 0.7171 0.7534 0.0
O105 O 0.7049 0.74244 0.70381 0.0
C106 C 0.57957 0.79136 0.77111 0.0
O107 O 0.64228 0.74903 0.69626 0.0
C108 C 0.72241 0.83869 0.7505 0.0
C109 C 0.681 0.76618 0.84623 0.0
O110 O 0.57543 0.75769 0.74826 0.0
O111 O 0.61921 0.81356 0.78749 0.0
O112 O 0.68695 0.83148 0.73085 0.0
O113 O 0.71235 0.81072 0.77604 0.0
O114 O 0.64513 0.75689 0.82351 0.0
O115 O 0.71863 0.7781 0.82989 0.0
C116 C 0.8006 0.77234 0.75959 0.0
O117 O 0.77417 0.74352 0.78307 0.0
O118 O 0.78051 0.78949 0.74164 0.0
C119 C 0.63947 0.68574 0.77494 0.0
C120 C 0.27147 0.95593 0.91604 0.0
C121 C 0.29 0.93693 0.89055 0.0
C122 C 0.29071 0.97546 0.95458 0.0
C123 C 0.32921 0.97666 0.96884 0.0
C124 C 0.34587 0.9546 0.94472 0.0
C125 C 0.32664 0.93515 0.90574 0.0
C126 C 0.35176 1.0004 1.00888 0.0
C127 C 0.35263 0.03784 0.02333 0.0
C128 C 0.36921 0.06089 0.06492 0.0
C129 C 0.36436 0.09764 0.07575 0.0
C130 C 0.37191 0.11588 0.1159 0.0
C131 C 0.38531 0.09835 0.14609 0.0
H132 H 0.39011 0.01739 0.08838 0.0
C133 C 0.39337 0.06385 0.13506 0.0
C134 C 0.38557 0.04533 0.09493 0.0
H135 H 0.40235 0.04884 0.15806 0.0
H136 H 0.24299 0.95751 0.90547 0.0
H137 H 0.27569 0.99028 0.97291 0.0
H138 H 0.37501 0.95423 0.95527 0.0
H139 H 0.342 0.92121 0.88673 0.0
H140 H 0.36797 0.98676 0.026 0.0
H141 H 0.33847 0.05183 1.00386 0.0
H142 H 0.35195 0.11061 0.05351 0.0
H143 H 0.36411 0.1415 0.1238 0.0
C144 C 0.68388 0.69573 0.62732 0.0
C145 C 0.67063 0.72663 0.63766 0.0
C146 C 0.69103 0.6873 0.58745 0.0
C147 C 0.68515 0.70966 0.55656 0.0
C148 C 0.66977 0.73904 0.5666 0.0
C149 C 0.66223 0.74723 0.60676 0.0
C150 C 0.69931 0.70677 0.51495 0.0
C151 C 0.70598 0.67406 0.49954 0.0
C152 C 0.72563 0.675 0.46008 0.0
C153 C 0.71478 0.63527 0.43724 0.0
C154 C 0.73214 0.63562 0.39957 0.0
C155 C 0.76129 0.67582 0.38434 0.0
H156 H 0.76715 0.74621 0.4631 0.0
C157 C 0.77407 0.71536 0.40844 0.0
C158 C 0.75649 0.715 0.44569 0.0
H159 H 0.79674 0.74699 0.39793 0.0
H160 H 0.69062 0.67926 0.65052 0.0
H161 H 0.70356 0.66511 0.58167 0.0
H162 H 0.66512 0.75696 0.54353 0.0
H163 H 0.6525 0.77154 0.61389 0.0
H164 H 0.7053 0.73341 0.49655 0.0
H165 H 0.69619 0.64511 0.51578 0.0
H166 H 0.6917 0.6039 0.44793 0.0
H167 H 0.72122 0.60459 0.38171 0.0
C168 C 0.96452 0.2552 0.13475 0.0
C169 C 0.93823 0.26755 0.15689 0.0
C170 C 0.98108 0.27341 0.09875 0.0
C171 C 0.97173 0.30448 0.08374 0.0
C172 C 0.94286 0.31448 0.10422 0.0
C173 C 0.92649 0.29646 0.14066 0.0
C174 C 0.99063 0.32555 0.04618 0.0
C175 C 0.03049 0.3337 0.03485 0.0
C176 C 0.04814 0.34916 0.99503 0.0
C177 C 0.09286 0.3644 0.98925 0.0
C178 C 0.10903 0.37262 0.95066 0.0
C179 C 0.0805 0.36514 0.91713 0.0
H180 H 0.98582 0.33223 0.96406 0.0
C181 C 0.03652 0.35238 0.92327 0.0
C182 C 0.02049 0.3445 0.96158 0.0
H183 H 1.01372 0.34634 0.89789 0.0
H184 H 0.97388 0.23265 0.14612 0.0
H185 H 1.00153 0.26331 0.08293 0.0
H186 H 0.93435 0.33763 0.09286 0.0
H187 H 0.90667 0.30698 0.15709 0.0
H188 H 0.97132 0.33517 0.02808 0.0
H189 H 0.05105 0.32773 0.05537 0.0
H190 H 0.11499 0.36818 1.01438 0.0
H191 H 0.14292 0.38192 0.9467 0.0
C192 C 0.30937 0.0395 0.40109 0.0
C193 C 0.34357 0.08102 0.39201 0.0
C194 C 0.3073 0.0254 0.43959 0.0
C195 C 0.33918 0.05247 0.47049 0.0
C196 C 0.3726 0.0946 0.46208 0.0
C197 C 0.37511 0.10859 0.4231 0.0
C198 C 0.33609 0.03855 0.5122 0.0
C199 C 0.31755 0.99586 0.5204 0.0
C200 C 0.30856 0.98179 0.56208 0.0
C201 C 0.3069 0.94266 0.57213 0.0
C202 C 0.29718 0.92863 0.61114 0.0
C203 C 0.28822 0.95319 0.64053 0.0
H204 H 0.29771 0.0348 0.58433 0.0
C205 C 0.28856 0.9915 0.62971 0.0
C206 C 0.29863 1.00559 0.59126 0.0
H207 H 0.2812 1.01118 0.65106 0.0
H208 H 0.28418 0.01714 0.37823 0.0
H209 H 0.28013 0.99347 0.44515 0.0
H210 H 0.39717 0.11649 0.48559 0.0
H211 H 0.40188 0.14066 0.41728 0.0
H212 H 0.3494 0.06448 0.53692 0.0
H213 H 0.30833 0.97022 0.49586 0.0
H214 H 0.31364 0.92321 0.54992 0.0
H215 H 0.29714 0.899 0.61833 0.0
C216 C 0.71723 0.76715 0.91206 0.0
C217 C 0.67823 0.75419 0.8885 0.0
C218 C 0.71626 0.74912 0.94844 0.0
C219 C 0.6762 0.71761 0.96242 0.0
C220 C 0.63696 0.70665 0.94027 0.0
C221 C 0.63793 0.72449 0.90348 0.0
C222 C 0.67474 0.69737 1.0008 0.0
C223 C 0.70715 0.69043 1.01439 0.0
C224 C 0.71002 0.67621 0.05519 0.0
C225 C 0.73957 0.66116 0.06327 0.0
C226 C 0.74812 0.65408 0.10277 0.0
C227 C 0.72766 0.6626 0.13494 0.0
H228 H 0.6653 0.69424 0.08302 0.0
C229 C 0.69644 0.67529 0.12654 0.0
C230 C 0.68767 0.68199 0.08731 0.0
H231 H 0.68011 0.6821 0.15079 0.0
H232 H 0.7489 0.7903 0.90175 0.0
H233 H 0.74706 0.75989 0.96547 0.0
H234 H 0.60555 0.6831 0.95076 0.0
H235 H 0.60731 0.7135 0.886 0.0
H236 H 0.64584 0.6875 1.01774 0.0
H237 H 0.7337 0.69651 0.99511 0.0
H238 H 0.75746 0.65658 0.0392 0.0
H239 H 0.77267 0.64479 0.10844 0.0
C240 C 1.00956 0.33424 0.41962 0.0
C241 C 0.96544 0.30337 0.40749 0.0
C242 C 0.02453 0.34337 0.46028 0.0
C243 C 0.9957 0.32176 0.49015 0.0
C244 C 0.95103 0.2924 0.47819 0.0
C245 C 0.9359 0.28353 0.43725 0.0
C246 C 1.01205 0.32527 0.53291 0.0
C247 C 0.05121 0.35819 0.54974 0.0
C248 C 0.06922 0.35741 0.59056 0.0
C249 C 0.09702 0.39713 0.61437 0.0
C250 C 0.11313 0.39672 0.65334 0.0
C251 C 0.10224 0.35651 0.66889 0.0
H252 H 0.04069 0.28632 0.58734 0.0
C253 C 0.07669 0.31706 0.64394 0.0
C254 C 0.06036 0.31746 0.6054 0.0
H255 H 0.06798 0.28544 0.65468 0.0
H256 H 0.03317 0.35023 0.39737 0.0
H257 H 0.05923 0.36551 0.46765 0.0
H258 H 0.92804 0.27506 0.50047 0.0
H259 H 0.90185 0.25934 0.42878 0.0
H260 H 0.99113 0.29884 0.55101 0.0
H261 H 0.07063 0.387 0.53366 0.0
H262 H 0.10509 0.42847 0.60336 0.0
H263 H 0.13237 0.42767 0.67183 0.0
C264 C 0.46729 0.06652 0.23874 0.0
C265 C 0.44764 0.08106 0.26739 0.0
C266 C 0.51305 0.08383 0.2417 0.0
C267 C 0.53953 0.11555 0.27366 0.0
C268 C 0.51925 0.12865 0.30273 0.0
C269 C 0.47411 0.11195 0.2995 0.0
C270 C 0.58813 0.13572 0.2788 0.0
C271 C 0.61418 0.13961 0.24854 0.0
C272 C 0.663 0.1622 0.25476 0.0
C273 C 0.6861 0.1497 0.22837 0.0
C274 C 0.73175 0.16935 0.23371 0.0
C275 C 0.75549 0.20243 0.26528 0.0
H276 H 0.67069 0.20816 0.30584 0.0
C277 C 0.73279 0.21616 0.29096 0.0
C278 C 0.68699 0.19632 0.28576 0.0
H279 H 0.75035 0.24188 0.31529 0.0
H280 H 0.44757 0.04258 0.21383 0.0
H281 H 0.52734 0.07205 0.21922 0.0
H282 H 0.53856 0.15267 0.32781 0.0
H283 H 0.45994 0.12367 0.32225 0.0
H284 H 0.60311 0.14952 0.30904 0.0
H285 H 0.59959 0.12536 0.21828 0.0
H286 H 0.66869 0.12403 0.20396 0.0
H287 H 0.74844 0.15826 0.21327 0.0
C288 C 0.66262 0.5531 0.26144 0.0
C289 C 0.66128 0.58769 0.28386 0.0
C290 C 0.63647 0.50942 0.27032 0.0
C291 C 0.60831 0.4991 0.30214 0.0
C292 C 0.60646 0.53373 0.3242 0.0
C293 C 0.63288 0.57766 0.31532 0.0
C294 C 0.57873 0.45249 0.31128 0.0
C295 C 0.5876 0.41966 0.30248 0.0
C296 C 0.55689 0.37172 0.30673 0.0
C297 C 0.56731 0.34071 0.2893 0.0
C298 C 0.53803 0.29528 0.28907 0.0
C299 C 0.49762 0.27973 0.30648 0.0
H300 H 0.50791 0.37806 0.34065 0.0
C301 C 0.48798 0.31044 0.32573 0.0
C302 C 0.51721 0.35589 0.32595 0.0
H303 H 0.45708 0.29939 0.33956 0.0
H304 H 0.68383 0.55974 0.23669 0.0
H305 H 0.63782 0.48388 0.25148 0.0
H306 H 0.58471 0.52679 0.34855 0.0
H307 H 0.63131 0.6037 0.33318 0.0
H308 H 0.54875 0.44559 0.32521 0.0
H309 H 0.61869 0.42789 0.28998 0.0
H310 H 0.59768 0.35162 0.27454 0.0
H311 H 0.54636 0.27241 0.27398 0.0
C312 C 0.96942 0.41039 0.24751 0.0
C313 C 0.94454 0.36624 0.25622 0.0
C314 C 0.94863 0.4349 0.24053 0.0
C315 C 0.90257 0.41513 0.24134 0.0
C316 C 0.87798 0.37047 0.24795 0.0
C317 C 0.89876 0.34666 0.25582 0.0
C318 C 0.87867 0.43964 0.23645 0.0
C319 C 0.89537 0.48206 0.25082 0.0
C320 C 0.86933 0.50496 0.25273 0.0
C321 C 0.88391 0.54188 0.28079 0.0
C322 C 0.86125 0.56498 0.28374 0.0
C323 C 0.82348 0.55201 0.25844 0.0
H324 H 0.81912 0.4638 0.20494 0.0
C325 C 0.8083 0.51482 0.23054 0.0
C326 C 0.83105 0.4915 0.2276 0.0
H327 H 0.77964 0.50453 0.21028 0.0
H328 H 1.00484 0.42624 0.24739 0.0
H329 H 0.96852 0.46912 0.23459 0.0
H330 H 0.84253 0.35419 0.24833 0.0
H331 H 0.87881 0.31266 0.26151 0.0
H332 H 0.84445 0.42045 0.22527 0.0
H333 H 0.92844 0.49972 0.26522 0.0
H334 H 0.91313 0.55308 0.30057 0.0
H335 H 0.87393 0.59368 0.30543 0.0
C336 C 0.12805 0.47774 0.79093 0.0
C337 C 0.09033 0.44396 0.7688 0.0
C338 C 0.1456 0.52172 0.78287 0.0
C339 C 0.12563 0.53314 0.75252 0.0
C340 C 0.08757 0.49937 0.7306 0.0
C341 C 0.07027 0.45509 0.73839 0.0
C342 C 0.14169 0.58016 0.74565 0.0
C343 C 0.1839 0.61275 0.75348 0.0
C344 C 0.19852 0.66044 0.75197 0.0
C345 C 0.24233 0.6906 0.74453 0.0
C346 C 0.25728 0.736 0.74536 0.0
C347 C 0.22884 0.75202 0.75453 0.0
H348 H 0.13673 0.65495 0.7681 0.0
C349 C 0.18524 0.72189 0.76223 0.0
C350 C 0.17022 0.67675 0.7609 0.0
H351 H 0.16252 0.73323 0.76952 0.0
H352 H 0.14392 0.47025 0.81491 0.0
H353 H 0.17401 0.54675 0.80136 0.0
H354 H 0.07118 0.50727 0.7074 0.0
H355 H 0.04122 0.4297 0.72082 0.0
H356 H 0.11767 0.58803 0.7338 0.0
H357 H 0.2088 0.60443 0.76142 0.0
H358 H 0.26502 0.679 0.73812 0.0
H359 H 0.29107 0.75852 0.73943 0.0
C360 C 0.38062 0.92042 0.75245 0.0
C361 C 0.38274 0.95243 0.78153 0.0
C362 C 0.40807 0.90279 0.75656 0.0
C363 C 0.43834 0.91646 0.79018 0.0
C364 C 0.44145 0.94955 0.81874 0.0
C365 C 0.41372 0.9673 0.81458 0.0
C366 C 0.46829 0.89826 0.795 0.0
C367 C 0.45845 0.85774 0.77868 0.0
C368 C 0.48892 0.83969 0.77954 0.0
C369 C 0.47811 0.80135 0.75427 0.0
C370 C 0.50677 0.78454 0.75216 0.0
C371 C 0.54683 0.80573 0.77542 0.0
H372 H 0.53795 0.88852 0.8247 0.0
C373 C 0.55702 0.84304 0.80174 0.0
C374 C 0.52846 0.85979 0.80394 0.0
H375 H 0.58759 0.85986 0.82035 0.0
H376 H 0.35751 0.9088 0.72627 0.0
H377 H 0.40578 0.87894 0.73289 0.0
H378 H 0.46493 0.96122 0.84464 0.0
H379 H 0.41593 0.99187 0.83746 0.0
H380 H 0.49923 0.91941 0.81227 0.0
H381 H 0.42661 0.83667 0.76265 0.0
H382 H 0.44778 0.78483 0.73532 0.0
H383 H 0.49805 0.75569 0.73166 0.0
C384 C 0.31185 0.51446 0.8243 0.0
C385 C 0.28491 0.48403 0.79209 0.0
C386 C 0.35746 0.54021 0.82115 0.0
C387 C 0.37644 0.53615 0.78548 0.0
C388 C 0.34901 0.50663 0.75312 0.0
C389 C 0.30396 0.4806 0.75652 0.0
C390 C 0.4241 0.56325 0.77945 0.0
C391 C 0.45658 0.57983 0.80908 0.0
C392 C 0.50376 0.60632 0.80025 0.0
C393 C 0.53674 0.60644 0.8252 0.0
C394 C 0.58119 0.63112 0.81675 0.0
C395 C 0.59319 0.65635 0.78345 0.0
H396 H 0.4924 0.63446 0.74815 0.0
C397 C 0.56026 0.65637 0.75886 0.0
C398 C 0.51631 0.63212 0.76727 0.0
H399 H 0.5685 0.67577 0.73314 0.0
H400 H 0.29788 0.51753 0.85212 0.0
H401 H 0.37759 0.56345 0.84632 0.0
H402 H 0.36257 0.50315 0.72515 0.0
H403 H 0.28399 0.45745 0.73118 0.0
H404 H 0.43277 0.56737 0.7483 0.0
H405 H 0.44872 0.57224 0.83995 0.0
H406 H 0.52809 0.58731 0.8511 0.0
H407 H 0.60605 0.63116 0.83659 0.0
C408 C 0.28332 0.18019 0.22302 0.0
C409 C 0.28232 0.14683 0.24476 0.0
C410 C 0.25 0.19058 0.22561 0.0
C411 C 0.21504 0.1679 0.25025 0.0
C412 C 0.21243 0.13233 0.26953 0.0
C413 C 0.24586 0.12194 0.26695 0.0
C414 C 0.18143 0.18098 0.25724 0.0
C415 C 0.18938 0.22255 0.25493 0.0
C416 C 0.15668 0.23638 0.2638 0.0
C417 C 0.15944 0.27263 0.24568 0.0
C418 C 0.12845 0.28578 0.2524 0.0
C419 C 0.09451 0.26323 0.27785 0.0
H420 H 0.12133 0.18805 0.30633 0.0
C421 C 0.09281 0.22825 0.29738 0.0
C422 C 0.12358 0.21496 0.29051 0.0
H423 H 0.06707 0.21044 0.31736 0.0
H424 H 0.31074 0.19942 0.20513 0.0
H425 H 0.2522 0.2168 0.20873 0.0
H426 H 0.18544 0.11376 0.28809 0.0
H427 H 0.24414 0.09582 0.28378 0.0
H428 H 0.14985 0.15583 0.26625 0.0
H429 H 0.22095 0.24775 0.24595 0.0
H430 H 0.18501 0.29014 0.22545 0.0
H431 H 0.13046 0.31287 0.23698 0.0
C432 C 0.91281 0.76599 0.21178 0.0
C433 C 0.88629 0.75976 0.24428 0.0
C434 C 0.9571 0.79844 0.2153 0.0
C435 C 0.97595 0.82574 0.25149 0.0
C436 C 0.94892 0.82065 0.28351 0.0
C437 C 0.90431 0.78813 0.27986 0.0
C438 C 0.02411 0.85708 0.25757 0.0
C439 C 0.04972 0.87449 0.22677 0.0
C440 C 0.09815 0.90355 0.23189 0.0
C441 C 0.11905 0.9348 0.20406 0.0
C442 C 0.16454 0.96254 0.20742 0.0
C443 C 0.19027 0.95895 0.23817 0.0
H444 H 0.10899 0.87476 0.28368 0.0
C445 C 0.16975 0.92681 0.26539 0.0
C446 C 0.12396 0.8994 0.26241 0.0
H447 H 0.18893 0.92354 0.28944 0.0
H448 H 0.89974 0.74437 0.18407 0.0
H449 H 0.97675 0.8003 0.19023 0.0
H450 H 0.96259 0.8411 0.31177 0.0
H451 H 0.8846 0.78378 0.30549 0.0
H452 H 0.03869 0.86633 0.28835 0.0
H453 H 0.03464 0.86884 0.19648 0.0
H454 H 0.10002 0.93829 0.17999 0.0
H455 H 0.17956 0.98709 0.18605 0.0
C456 C 0.91582 0.12762 0.26278 0.0
C457 C 0.91202 0.14847 0.29865 0.0
C458 C 0.90455 0.0832 0.26097 0.0
C459 C 0.88966 0.05933 0.29516 0.0
C460 C 0.89004 0.08169 0.3318 0.0
C461 C 0.90068 0.1257 0.33345 0.0
C462 C 0.8711 1.01085 0.29367 0.0
C463 C 0.85084 0.98335 0.26018 0.0
C464 C 0.8283 0.93467 0.26028 0.0
C465 C 0.8285 0.90953 0.22587 0.0
C466 C 0.809 0.86379 0.22548 0.0
C467 C 0.78794 0.84221 0.25915 0.0
H468 H 0.80384 0.93127 0.32005 0.0
C469 C 0.78565 0.86694 0.29287 0.0
C470 C 0.80586 0.91291 0.29354 0.0
H471 H 0.76961 0.85099 0.31919 0.0
H472 H 0.9246 0.14464 0.23557 0.0
H473 H 0.90631 0.06746 0.23256 0.0
H474 H 0.87944 0.06436 0.35872 0.0
H475 H 0.89776 0.14127 0.3615 0.0
H476 H 0.87118 0.99709 0.32196 0.0
H477 H 0.85069 0.9965 0.2316 0.0
H478 H 0.84496 0.92545 0.19968 0.0
H479 H 0.81112 0.84537 0.19904 0.0
C480 C 0.13193 0.24281 0.77715 0.0
C481 C 0.14185 0.27082 0.81269 0.0
C482 C 0.14331 0.20981 0.77525 0.0
C483 C 0.16458 0.20435 0.80902 0.0
C484 C 0.17116 0.23023 0.84528 0.0
C485 C 0.16024 0.26332 0.84703 0.0
C486 C 0.18184 0.17341 0.80767 0.0
C487 C 0.1937 0.16032 0.77367 0.0
C488 C 0.21388 0.13199 0.77349 0.0
C489 C 0.20508 0.10201 0.73978 0.0
C490 C 0.22234 0.07385 0.73902 0.0
C491 C 0.24961 0.07586 0.77159 0.0
H492 H 0.25089 0.15876 0.83159 0.0
C493 C 0.26017 0.10716 0.80462 0.0
C494 C 0.24228 0.13495 0.80569 0.0
H495 H 0.28119 0.10934 0.83004 0.0
H496 H 0.11748 0.24781 0.75033 0.0
H497 H 0.13611 0.18935 0.74718 0.0
H498 H 0.18678 0.2263 0.87191 0.0
H499 H 0.16786 0.2843 0.87491 0.0
H500 H 0.18737 0.16312 0.83627 0.0
H501 H 0.1881 0.16994 0.74478 0.0
H502 H 0.18384 0.09952 0.71439 0.0
H503 H 0.21384 0.05007 0.71307 0.0
C504 C 0.11789 0.86466 0.72209 0.0
C505 C 0.15058 0.88953 0.75304 0.0
C506 C 0.07428 0.85234 0.7274 0.0
C507 C 0.06237 0.86508 0.76375 0.0
C508 C 0.09536 0.89122 0.79428 0.0
C509 C 0.13925 0.90365 0.78889 0.0
C510 C 1.0156 0.84914 0.77131 0.0
C511 C 0.98477 0.83822 0.74116 0.0
C512 C 0.93758 0.82052 0.74731 0.0
C513 C 0.91261 0.82822 0.71905 0.0
C514 C 0.86797 0.8118 0.72303 0.0
C515 C 0.84708 0.78651 0.75494 0.0
H516 H 0.93479 0.7871 0.80079 0.0
C517 C 0.87154 0.77759 0.78279 0.0
C518 C 0.91664 0.79466 0.77912 0.0
H519 H 0.85605 0.75818 0.80766 0.0
H520 H 0.12573 0.85312 0.69424 0.0
H521 H 0.0499 0.83116 0.70353 0.0
H522 H 0.08705 0.90131 0.82263 0.0
H523 H 0.16389 0.92263 0.81334 0.0
H524 H 1.00666 0.8473 0.80243 0.0
H525 H 0.99458 0.84439 0.71049 0.0
H526 H 0.92781 0.84756 0.69404 0.0
H527 H 0.84981 0.81909 0.70108 0.0
C528 C 0.96153 0.15911 0.80356 0.0
C529 C 0.95654 0.18918 0.78145 0.0
C530 C 0.93064 0.11408 0.79817 0.0
C531 C 0.89416 0.09815 0.77023 0.0
C532 C 0.88862 0.1286 0.74909 0.0
C533 C 0.91957 0.17369 0.75453 0.0
C534 C 0.86087 0.05043 0.76248 0.0
C535 C 0.86714 0.01722 0.77241 0.0
C536 C 0.83261 0.9701 0.76404 0.0
C537 C 0.82972 0.93924 0.79041 0.0
C538 C 0.79501 0.89549 0.78511 0.0
C539 C 0.76298 0.88203 0.75311 0.0
H540 H 0.80452 0.97787 0.70842 0.0
C541 C 0.76769 0.91207 0.72516 0.0
C542 C 0.80218 0.9556 0.73045 0.0
H543 H 0.74387 0.90229 0.69976 0.0
H544 H 0.98969 0.1703 0.82474 0.0
H545 H 0.93564 0.09226 0.81615 0.0
H546 H 0.86062 0.11739 0.72769 0.0
H547 H 0.91499 0.19624 0.73712 0.0
H548 H 0.82973 0.0425 0.74744 0.0
H549 H 0.89752 0.02418 0.7882 0.0
H550 H 0.85329 0.94942 0.81608 0.0
H551 H 0.79228 0.8728 0.8069 0.0
loop_
_geom_bond_atom_site_label_1
_geom_bond_atom_site_label_2
_geom_bond_distance
_geom_bond_site_symmetry_2
_ccdc_geom_bond_type
Tb0 O3 2.453 . S
Tb0 O4 2.596 . S
Tb0 O5 2.374 . S
Tb0 O13 2.343 . S
Tb0 O15 2.353 . S
Tb0 O17 2.427 . S
Tb0 O18 2.513 . S
C1 O5 1.251 . S
C1 O7 1.263 . S
Tb2 O4 2.343 . S
Tb2 O7 2.353 . S
Tb2 O10 2.427 1_545 S
Tb2 O11 2.513 . S
Tb2 O12 2.453 . S
Tb2 O13 2.596 . S
Tb2 O14 2.374 . S
O3 Tb0 2.453 . S
O3 C19 1.245 . S
O4 Tb0 2.596 . S
O4 Tb2 2.343 . S
O4 C19 1.259 . S
O5 Tb0 2.374 . S
O5 C1 1.251 . S
C6 O10 1.275 . S
C6 O11 1.243 1_565 S
O7 C1 1.263 . S
O7 Tb2 2.353 . S
C8 O12 1.245 . S
C8 O13 1.259 . S
C9 O14 1.250 . S
C9 O15 1.263 . S
O10 Tb2 2.427 1_565 S
O10 C6 1.275 . S
O11 Tb2 2.513 . S
O11 C6 1.243 1_545 S
O12 Tb2 2.453 . S
O12 C8 1.245 . S
O13 Tb0 2.343 . S
O13 Tb2 2.596 . S
O13 C8 1.259 . S
O14 Tb2 2.374 . S
O14 C9 1.250 . S
O15 Tb0 2.353 . S
O15 C9 1.263 . S
C16 O17 1.275 . S
C16 O18 1.246 . S
O17 Tb0 2.427 . S
O17 C16 1.275 . S
O18 Tb0 2.513 . S
O18 C16 1.246 . S
C19 O3 1.245 . S
C19 O4 1.259 . S
Tb20 O23 2.453 . S
Tb20 O24 2.596 . S
Tb20 O25 2.374 . S
Tb20 O33 2.343 . S
Tb20 O35 2.353 . S
Tb20 O37 2.427 . S
Tb20 O38 2.513 . S
C21 O25 1.251 . S
C21 O27 1.263 . S
Tb22 O24 2.343 . S
Tb22 O27 2.353 . S
Tb22 O30 2.427 . S
Tb22 O31 2.513 . S
Tb22 O32 2.453 . S
Tb22 O33 2.596 . S
Tb22 O34 2.374 . S
O23 Tb20 2.453 . S
O23 C39 1.245 . S
O24 Tb20 2.596 . S
O24 Tb22 2.343 . S
O24 C39 1.259 . S
O25 Tb20 2.374 . S
O25 C21 1.251 . S
C26 O30 1.275 . S
C26 O31 1.246 . S
O27 C21 1.263 . S
O27 Tb22 2.353 . S
C28 O32 1.245 . S
C28 O33 1.259 . S
C29 O34 1.250 . S
C29 O35 1.263 . S
O30 Tb22 2.427 . S
O30 C26 1.275 . S
O31 Tb22 2.513 . S
O31 C26 1.246 . S
O32 Tb22 2.453 . S
O32 C28 1.245 . S
O33 Tb20 2.343 . S
O33 Tb22 2.596 . S
O33 C28 1.259 . S
O34 Tb22 2.374 . S
O34 C29 1.250 . S
O35 Tb20 2.353 . S
O35 C29 1.263 . S
C36 O37 1.275 . S
C36 O38 1.246 . S
O37 Tb20 2.427 . S
O37 C36 1.275 . S
O38 Tb20 2.513 . S
O38 C36 1.246 . S
C39 O23 1.245 . S
C39 O24 1.259 . S
Tb40 O43 2.453 . S
Tb40 O44 2.596 . S
Tb40 O45 2.374 . S
Tb40 O53 2.343 . S
Tb40 O55 2.353 . S
Tb40 O57 2.427 . S
Tb40 O58 2.513 . S
C41 O45 1.251 . S
C41 O47 1.263 . S
Tb42 O44 2.343 . S
Tb42 O47 2.353 . S
Tb42 O50 2.427 1_655 S
Tb42 O51 2.513 . S
Tb42 O52 2.453 . S
Tb42 O53 2.596 . S
Tb42 O54 2.374 . S
O43 Tb40 2.453 . S
O43 C59 1.245 . S
O44 Tb40 2.596 . S
O44 Tb42 2.343 . S
O44 C59 1.259 . S
O45 Tb40 2.374 . S
O45 C41 1.251 . S
C46 O50 1.275 . S
C46 O51 1.246 1_455 S
O47 C41 1.263 . S
O47 Tb42 2.353 . S
C48 O52 1.245 . S
C48 O53 1.259 . S
C49 O54 1.250 . S
C49 O55 1.263 . S
O50 Tb42 2.427 1_455 S
O50 C46 1.275 . S
O51 Tb42 2.513 . S
O51 C46 1.246 1_655 S
O52 Tb42 2.453 . S
O52 C48 1.245 . S
O53 Tb40 2.343 . S
O53 Tb42 2.596 . S
O53 C48 1.259 . S
O54 Tb42 2.374 . S
O54 C49 1.250 . S
O55 Tb40 2.353 . S
O55 C49 1.263 . S
C56 O57 1.275 . S
C56 O58 1.246 . S
O57 Tb40 2.427 . S
O57 C56 1.275 . S
O58 Tb40 2.513 . S
O58 C56 1.246 . S
C59 O43 1.245 . S
C59 O44 1.259 . S
Tb60 O63 2.453 . S
Tb60 O64 2.596 . S
Tb60 O65 2.374 . S
Tb60 O73 2.343 . S
Tb60 O75 2.353 . S
Tb60 O77 2.427 1_455 S
Tb60 O78 2.513 . S
C61 O65 1.251 . S
C61 O67 1.263 . S
Tb62 O64 2.343 . S
Tb62 O67 2.353 . S
Tb62 O70 2.427 . S
Tb62 O71 2.513 . S
Tb62 O72 2.453 . S
Tb62 O73 2.596 . S
Tb62 O74 2.374 . S
O63 Tb60 2.453 . S
O63 C79 1.245 . S
O64 Tb60 2.596 . S
O64 Tb62 2.343 . S
O64 C79 1.259 . S
O65 Tb60 2.374 . S
O65 C61 1.251 . S
C66 O70 1.275 . S
C66 O71 1.246 . S
O67 C61 1.263 . S
O67 Tb62 2.353 . S
C68 O72 1.245 . S
C68 O73 1.259 . S
C69 O74 1.250 . S
C69 O75 1.263 . S
O70 Tb62 2.427 . S
O70 C66 1.275 . S
O71 Tb62 2.513 . S
O71 C66 1.246 . S
O72 Tb62 2.453 . S
O72 C68 1.245 . S
O73 Tb60 2.343 . S
O73 Tb62 2.596 . S
O73 C68 1.259 . S
O74 Tb62 2.374 . S
O74 C69 1.250 . S
O75 Tb60 2.353 . S
O75 C69 1.263 . S
C76 O77 1.275 . S
C76 O78 1.242 1_655 S
O77 Tb60 2.427 1_655 S
O77 C76 1.275 . S
O78 Tb60 2.513 . S
O78 C76 1.242 1_455 S
C79 O63 1.245 . S
C79 O64 1.259 . S
Tb80 O83 2.453 . S
Tb80 O84 2.596 . S
Tb80 O85 2.374 . S
Tb80 O93 2.343 . S
Tb80 O95 2.353 . S
Tb80 O97 2.427 1_565 S
Tb80 O98 2.513 . S
C81 O85 1.251 . S
C81 O87 1.263 . S
Tb82 O84 2.343 . S
Tb82 O87 2.353 . S
Tb82 O90 2.427 . S
Tb82 O91 2.513 . S
Tb82 O92 2.453 . S
Tb82 O93 2.596 . S
Tb82 O94 2.374 . S
O83 Tb80 2.453 . S
O83 C99 1.245 . S
O84 Tb80 2.596 . S
O84 Tb82 2.343 . S
O84 C99 1.259 . S
O85 Tb80 2.374 . S
O85 C81 1.251 . S
C86 O90 1.275 . S
C86 O91 1.246 . S
O87 C81 1.263 . S
O87 Tb82 2.353 . S
C88 O92 1.245 . S
C88 O93 1.259 . S
C89 O94 1.250 . S
C89 O95 1.263 . S
O90 Tb82 2.427 . S
O90 C86 1.275 . S
O91 Tb82 2.513 . S
O91 C86 1.246 . S
O92 Tb82 2.453 . S
O92 C88 1.245 . S
O93 Tb80 2.343 . S
O93 Tb82 2.596 . S
O93 C88 1.259 . S
O94 Tb82 2.374 . S
O94 C89 1.250 . S
O95 Tb80 2.353 . S
O95 C89 1.263 . S
C96 O97 1.275 . S
C96 O98 1.246 1_545 S
O97 Tb80 2.427 1_545 S
O97 C96 1.275 . S
O98 Tb80 2.513 . S
O98 C96 1.246 1_565 S
C99 O83 1.245 . S
C99 O84 1.259 . S
Tb100 O103 2.453 . S
Tb100 O104 2.596 . S
Tb100 O105 2.374 . S
Tb100 O113 2.343 . S
Tb100 O115 2.353 . S
Tb100 O117 2.427 . S
Tb100 O118 2.513 . S
C101 O105 1.251 . S
C101 O107 1.263 . S
Tb102 O104 2.343 . S
Tb102 O107 2.353 . S
Tb102 O110 2.427 . S
Tb102 O111 2.513 . S
Tb102 O112 2.453 . S
Tb102 O113 2.596 . S
Tb102 O114 2.374 . S
O103 Tb100 2.453 . S
O103 C119 1.245 . S
O104 Tb100 2.596 . S
O104 Tb102 2.343 . S
O104 C119 1.259 . S
O105 Tb100 2.374 . S
O105 C101 1.251 . S
C106 O110 1.275 . S
C106 O111 1.246 . S
O107 C101 1.263 . S
O107 Tb102 2.353 . S
C108 O112 1.245 . S
C108 O113 1.259 . S
C109 O114 1.250 . S
C109 O115 1.263 . S
O110 Tb102 2.427 . S
O110 C106 1.275 . S
O111 Tb102 2.513 . S
O111 C106 1.246 . S
O112 Tb102 2.453 . S
O112 C108 1.245 . S
O113 Tb100 2.343 . S
O113 Tb102 2.596 . S
O113 C108 1.259 . S
O114 Tb102 2.374 . S
O114 C109 1.250 . S
O115 Tb100 2.353 . S
O115 C109 1.263 . S
C116 O117 1.275 . S
C116 O118 1.246 . S
O117 Tb100 2.427 . S
O117 C116 1.275 . S
O118 Tb100 2.513 . S
O118 C116 1.246 . S
C119 O103 1.245 . S
C119 O104 1.259 . S
C120 C121 1.386 . S
C120 C122 1.383 . S
C120 H136 0.951 . S
C121 C120 1.386 . S
C121 C125 1.383 . S
C122 C120 1.383 . S
C122 C123 1.402 . S
C122 H137 0.951 . S
C123 C122 1.402 . S
C123 C124 1.375 . S
C123 C126 1.481 . S
C124 C123 1.375 . S
C124 C125 1.367 . S
C124 H138 0.951 . S
C125 C121 1.383 . S
C125 C124 1.367 . S
C125 H139 0.950 . S
C126 C123 1.481 . S
C126 C127 1.297 1_556 S
C126 H140 0.950 1_556 S
C127 C126 1.297 1_554 S
C127 C128 1.479 1_565 S
C127 H141 0.950 . S
C128 C127 1.479 1_545 S
C128 C129 1.375 . S
C128 C134 1.404 . S
C129 C128 1.375 . S
C129 C130 1.369 . S
C129 H142 0.950 . S
C130 C129 1.369 . S
C130 C131 1.392 . S
C130 H143 0.951 . S
C131 C130 1.392 . S
C131 C133 1.384 . S
H132 C134 0.949 . S
C133 C131 1.384 . S
C133 C134 1.385 . S
C133 H135 0.950 . S
C134 C128 1.404 . S
C134 H132 0.949 . S
C134 C133 1.385 . S
H135 C133 0.950 . S
H136 C120 0.951 . S
H137 C122 0.951 . S
H138 C124 0.951 . S
H139 C125 0.950 . S
H140 C126 0.950 1_554 S
H141 C127 0.950 . S
H142 C129 0.950 . S
H143 C130 0.951 . S
C144 C145 1.386 . S
C144 C146 1.383 . S
C144 H160 0.951 . S
C145 C144 1.386 . S
C145 C149 1.383 . S
C146 C144 1.383 . S
C146 C147 1.402 . S
C146 H161 0.951 . S
C147 C146 1.402 . S
C147 C148 1.375 . S
C147 C150 1.481 . S
C148 C147 1.375 . S
C148 C149 1.367 . S
C148 H162 0.951 . S
C149 C145 1.383 . S
C149 C148 1.367 . S
C149 H163 0.950 . S
C150 C147 1.481 . S
C150 C151 1.297 . S
C150 H164 0.950 . S
C151 C150 1.297 . S
C151 C152 1.479 . S
C151 H165 0.950 . S
C152 C151 1.479 . S
C152 C153 1.375 . S
C152 C158 1.404 . S
C153 C152 1.375 . S
C153 C154 1.369 . S
C153 H166 0.950 . S
C154 C153 1.369 . S
C154 C155 1.392 . S
C154 H167 0.951 . S
C155 C154 1.392 . S
C155 C157 1.384 . S
H156 C158 0.949 . S
C157 C155 1.384 . S
C157 C158 1.385 . S
C157 H159 0.950 . S
C158 C152 1.404 . S
C158 H156 0.949 . S
C158 C157 1.385 . S
H159 C157 0.950 . S
H160 C144 0.951 . S
H161 C146 0.951 . S
H162 C148 0.951 . S
H163 C149 0.950 . S
H164 C150 0.950 . S
H165 C151 0.950 . S
H166 C153 0.950 . S
H167 C154 0.951 . S
C168 C169 1.386 . S
C168 C170 1.383 . S
C168 H184 0.951 . S
C169 C168 1.386 . S
C169 C173 1.383 . S
C170 C168 1.383 . S
C170 C171 1.402 . S
C170 H185 0.951 1_655 S
C171 C170 1.402 . S
C171 C172 1.375 . S
C171 C174 1.468 1_554 S
C172 C171 1.375 . S
C172 C173 1.367 . S
C172 H186 0.951 . S
C173 C169 1.383 . S
C173 C172 1.367 . S
C173 H187 0.950 . S
C174 C171 1.468 1_556 S
C174 C175 1.300 1_655 S
C174 H188 0.961 . S
C175 C174 1.300 1_455 S
C175 C176 1.479 . S
C175 H189 0.950 1_556 S
C176 C175 1.479 . S
C176 C177 1.375 . S
C176 C182 1.404 . S
C177 C176 1.375 . S
C177 C178 1.369 . S
C177 H190 0.950 . S
C178 C177 1.369 . S
C178 C179 1.392 . S
C178 H191 0.951 . S
C179 C178 1.392 . S
C179 C181 1.384 . S
H180 C182 0.949 1_655 S
C181 C179 1.384 . S
C181 C182 1.385 . S
C181 H183 0.950 . S
C182 C176 1.404 . S
C182 H180 0.949 1_455 S
C182 C181 1.385 . S
H183 C181 0.950 . S
H184 C168 0.951 . S
H185 C170 0.951 1_455 S
H186 C172 0.951 . S
H187 C173 0.950 . S
H188 C174 0.961 . S
H189 C175 0.950 1_554 S
H190 C177 0.950 . S
H191 C178 0.951 . S
C192 C193 1.386 . S
C192 C194 1.383 . S
C192 H208 0.951 . S
C193 C192 1.386 . S
C193 C197 1.383 . S
C194 C192 1.383 . S
C194 C195 1.402 . S
C194 H209 0.951 . S
C195 C194 1.402 . S
C195 C196 1.375 . S
C195 C198 1.473 1_545 S
C196 C195 1.375 . S
C196 C197 1.367 . S
C196 H210 0.951 1_545 S
C197 C193 1.383 . S
C197 C196 1.367 . S
C197 H211 0.950 . S
C198 C195 1.473 1_565 S
C198 C199 1.298 1_565 S
C198 H212 0.957 . S
C199 C198 1.298 1_545 S
C199 C200 1.479 1_545 S
C199 H213 0.950 . S
C200 C199 1.479 1_565 S
C200 C201 1.375 . S
C200 C206 1.404 . S
C201 C200 1.375 . S
C201 C202 1.369 . S
C201 H214 0.950 1_565 S
C202 C201 1.369 . S
C202 C203 1.392 . S
C202 H215 0.951 . S
C203 C202 1.392 . S
C203 C205 1.384 . S
H204 C206 0.949 . S
C205 C203 1.384 . S
C205 C206 1.385 . S
C205 H207 0.950 . S
C206 C200 1.404 . S
C206 H204 0.949 . S
C206 C205 1.385 . S
H207 C205 0.950 . S
H208 C192 0.951 . S
H209 C194 0.951 . S
H210 C196 0.951 1_565 S
H211 C197 0.950 . S
H212 C198 0.957 . S
H213 C199 0.950 . S
H214 C201 0.950 1_545 S
H215 C202 0.951 . S
C216 C217 1.386 . S
C216 C218 1.383 . S
C216 H232 0.951 . S
C217 C216 1.386 . S
C217 C221 1.383 . S
C218 C216 1.383 . S
C218 C219 1.402 . S
C218 H233 0.951 . S
C219 C218 1.402 . S
C219 C220 1.375 . S
C219 C222 1.481 . S
C220 C219 1.375 . S
C220 C221 1.367 . S
C220 H234 0.951 . S
C221 C217 1.383 . S
C221 C220 1.367 . S
C221 H235 0.950 . S
C222 C219 1.481 . S
C222 C223 1.296 1_556 S
C222 H236 0.950 1_556 S
C223 C222 1.296 1_554 S
C223 C224 1.482 . S
C223 H237 0.948 1_554 S
C224 C223 1.482 . S
C224 C225 1.375 . S
C224 C230 1.404 . S
C225 C224 1.375 . S
C225 C226 1.369 . S
C225 H238 0.950 . S
C226 C225 1.369 . S
C226 C227 1.392 . S
C226 H239 0.951 . S
C227 C226 1.392 . S
C227 C229 1.384 . S
H228 C230 0.949 . S
C229 C227 1.384 . S
C229 C230 1.385 . S
C229 H231 0.950 . S
C230 C224 1.404 . S
C230 H228 0.949 . S
C230 C229 1.385 . S
H231 C229 0.950 . S
H232 C216 0.951 . S
H233 C218 0.951 . S
H234 C220 0.951 . S
H235 C221 0.950 . S
H236 C222 0.950 1_554 S
H237 C223 0.948 1_556 S
H238 C225 0.950 . S
H239 C226 0.951 . S
C240 C241 1.386 . S
C240 C242 1.383 . S
C240 H256 0.951 . S
C241 C240 1.386 . S
C241 C245 1.383 . S
C242 C240 1.383 . S
C242 C243 1.402 . S
C242 H257 0.951 . S
C243 C242 1.402 . S
C243 C244 1.375 . S
C243 C246 1.481 . S
C244 C243 1.375 . S
C244 C245 1.367 . S
C244 H258 0.951 . S
C245 C241 1.383 . S
C245 C244 1.367 . S
C245 H259 0.950 . S
C246 C243 1.481 . S
C246 C247 1.297 . S
C246 H260 0.950 . S
C247 C246 1.297 . S
C247 C248 1.479 1_655 S
C247 H261 0.950 . S
C248 C247 1.479 1_455 S
C248 C249 1.375 . S
C248 C254 1.404 . S
C249 C248 1.375 . S
C249 C250 1.369 . S
C249 H262 0.950 . S
C250 C249 1.369 . S
C250 C251 1.392 . S
C250 H263 0.951 . S
C251 C250 1.392 . S
C251 C253 1.384 . S
H252 C254 0.949 . S
C253 C251 1.384 . S
C253 C254 1.385 . S
C253 H255 0.950 . S
C254 C248 1.404 . S
C254 H252 0.949 . S
C254 C253 1.385 . S
H255 C253 0.950 . S
H256 C240 0.951 . S
H257 C242 0.951 . S
H258 C244 0.951 . S
H259 C245 0.950 . S
H260 C246 0.950 . S
H261 C247 0.950 . S
H262 C249 0.950 . S
H263 C250 0.951 . S
C264 C265 1.386 . S
C264 C266 1.383 . S
C264 H280 0.951 . S
C265 C264 1.386 . S
C265 C269 1.383 . S
C266 C264 1.383 . S
C266 C267 1.402 . S
C266 H281 0.951 . S
C267 C266 1.402 . S
C267 C268 1.375 . S
C267 C270 1.481 . S
C268 C267 1.375 . S
C268 C269 1.367 . S
C268 H282 0.951 . S
C269 C265 1.383 . S
C269 C268 1.367 . S
C269 H283 0.950 . S
C270 C267 1.481 . S
C270 C271 1.297 . S
C270 H284 0.950 . S
C271 C270 1.297 . S
C271 C272 1.479 . S
C271 H285 0.950 . S
C272 C271 1.479 . S
C272 C273 1.375 . S
C272 C278 1.404 . S
C273 C272 1.375 . S
C273 C274 1.369 . S
C273 H286 0.950 . S
C274 C273 1.369 . S
C274 C275 1.392 . S
C274 H287 0.951 . S
C275 C274 1.392 . S
C275 C277 1.384 . S
H276 C278 0.949 . S
C277 C275 1.384 . S
C277 C278 1.385 . S
C277 H279 0.950 . S
C278 C272 1.404 . S
C278 H276 0.949 . S
C278 C277 1.385 . S
H279 C277 0.950 . S
H280 C264 0.951 . S
H281 C266 0.951 . S
H282 C268 0.951 . S
H283 C269 0.950 . S
H284 C270 0.950 . S
H285 C271 0.950 . S
H286 C273 0.950 . S
H287 C274 0.951 . S
C288 C289 1.386 . S
C288 C290 1.383 . S
C288 H304 0.951 . S
C289 C288 1.386 . S
C289 C293 1.383 . S
C290 C288 1.383 . S
C290 C291 1.402 . S
C290 H305 0.951 . S
C291 C290 1.402 . S
C291 C292 1.375 . S
C291 C294 1.481 . S
C292 C291 1.375 . S
C292 C293 1.367 . S
C292 H306 0.951 . S
C293 C289 1.383 . S
C293 C292 1.367 . S
C293 H307 0.950 . S
C294 C291 1.481 . S
C294 C295 1.297 . S
C294 H308 0.950 . S
C295 C294 1.297 . S
C295 C296 1.479 . S
C295 H309 0.950 . S
C296 C295 1.479 . S
C296 C297 1.375 . S
C296 C302 1.404 . S
C297 C296 1.375 . S
C297 C298 1.369 . S
C297 H310 0.950 . S
C298 C297 1.369 . S
C298 C299 1.392 . S
C298 H311 0.951 . S
C299 C298 1.392 . S
C299 C301 1.384 . S
H300 C302 0.949 . S
C301 C299 1.384 . S
C301 C302 1.385 . S
C301 H303 0.950 . S
C302 C296 1.404 . S
C302 H300 0.949 . S
C302 C301 1.385 . S
H303 C301 0.950 . S
H304 C288 0.951 . S
H305 C290 0.951 . S
H306 C292 0.951 . S
H307 C293 0.950 . S
H308 C294 0.950 . S
H309 C295 0.950 . S
H310 C297 0.950 . S
H311 C298 0.951 . S
C312 C313 1.386 . S
C312 C314 1.383 . S
C312 H328 0.951 . S
C313 C312 1.386 . S
C313 C317 1.383 . S
C314 C312 1.383 . S
C314 C315 1.402 . S
C314 H329 0.951 . S
C315 C314 1.402 . S
C315 C316 1.375 . S
C315 C318 1.481 . S
C316 C315 1.375 . S
C316 C317 1.367 . S
C316 H330 0.951 . S
C317 C313 1.383 . S
C317 C316 1.367 . S
C317 H331 0.950 . S
C318 C315 1.481 . S
C318 C319 1.297 . S
C318 H332 0.950 . S
C319 C318 1.297 . S
C319 C320 1.479 . S
C319 H333 0.950 . S
C320 C319 1.479 . S
C320 C321 1.375 . S
C320 C326 1.404 . S
C321 C320 1.375 . S
C321 C322 1.369 . S
C321 H334 0.950 . S
C322 C321 1.369 . S
C322 C323 1.392 . S
C322 H335 0.951 . S
C323 C322 1.392 . S
C323 C325 1.384 . S
H324 C326 0.949 . S
C325 C323 1.384 . S
C325 C326 1.385 . S
C325 H327 0.950 . S
C326 C320 1.404 . S
C326 H324 0.949 . S
C326 C325 1.385 . S
H327 C325 0.950 . S
H328 C312 0.951 . S
H329 C314 0.951 . S
H330 C316 0.951 . S
H331 C317 0.950 . S
H332 C318 0.950 . S
H333 C319 0.950 . S
H334 C321 0.950 . S
H335 C322 0.951 . S
C336 C337 1.386 . S
C336 C338 1.383 . S
C336 H352 0.951 . S
C337 C336 1.386 . S
C337 C341 1.383 . S
C338 C336 1.383 . S
C338 C339 1.402 . S
C338 H353 0.951 . S
C339 C338 1.402 . S
C339 C340 1.375 . S
C339 C342 1.481 . S
C340 C339 1.375 . S
C340 C341 1.367 . S
C340 H354 0.951 . S
C341 C337 1.383 . S
C341 C340 1.367 . S
C341 H355 0.950 . S
C342 C339 1.481 . S
C342 C343 1.297 . S
C342 H356 0.950 . S
C343 C342 1.297 . S
C343 C344 1.479 . S
C343 H357 0.950 . S
C344 C343 1.479 . S
C344 C345 1.375 . S
C344 C350 1.404 . S
C345 C344 1.375 . S
C345 C346 1.369 . S
C345 H358 0.950 . S
C346 C345 1.369 . S
C346 C347 1.392 . S
C346 H359 0.951 . S
C347 C346 1.392 . S
C347 C349 1.384 . S
H348 C350 0.949 . S
C349 C347 1.384 . S
C349 C350 1.385 . S
C349 H351 0.950 . S
C350 C344 1.404 . S
C350 H348 0.949 . S
C350 C349 1.385 . S
H351 C349 0.950 . S
H352 C336 0.951 . S
H353 C338 0.951 . S
H354 C340 0.951 . S
H355 C341 0.950 . S
H356 C342 0.950 . S
H357 C343 0.950 . S
H358 C345 0.950 . S
H359 C346 0.951 . S
C360 C361 1.386 . S
C360 C362 1.383 . S
C360 H376 0.951 . S
C361 C360 1.386 . S
C361 C365 1.383 . S
C362 C360 1.383 . S
C362 C363 1.402 . S
C362 H377 0.951 . S
C363 C362 1.402 . S
C363 C364 1.375 . S
C363 C366 1.481 . S
C364 C363 1.375 . S
C364 C365 1.367 . S
C364 H378 0.951 . S
C365 C361 1.383 . S
C365 C364 1.367 . S
C365 H379 0.950 . S
C366 C363 1.481 . S
C366 C367 1.297 . S
C366 H380 0.950 . S
C367 C366 1.297 . S
C367 C368 1.479 . S
C367 H381 0.950 . S
C368 C367 1.479 . S
C368 C369 1.375 . S
C368 C374 1.404 . S
C369 C368 1.375 . S
C369 C370 1.369 . S
C369 H382 0.950 . S
C370 C369 1.369 . S
C370 C371 1.392 . S
C370 H383 0.951 . S
C371 C370 1.392 . S
C371 C373 1.384 . S
H372 C374 0.949 . S
C373 C371 1.384 . S
C373 C374 1.385 . S
C373 H375 0.950 . S
C374 C368 1.404 . S
C374 H372 0.949 . S
C374 C373 1.385 . S
H375 C373 0.950 . S
H376 C360 0.951 . S
H377 C362 0.951 . S
H378 C364 0.951 . S
H379 C365 0.950 . S
H380 C366 0.950 . S
H381 C367 0.950 . S
H382 C369 0.950 . S
H383 C370 0.951 . S
C384 C385 1.386 . S
C384 C386 1.383 . S
C384 H400 0.951 . S
C385 C384 1.386 . S
C385 C389 1.383 . S
C386 C384 1.383 . S
C386 C387 1.402 . S
C386 H401 0.951 . S
C387 C386 1.402 . S
C387 C388 1.375 . S
C387 C390 1.481 . S
C388 C387 1.375 . S
C388 C389 1.367 . S
C388 H402 0.951 . S
C389 C385 1.383 . S
C389 C388 1.367 . S
C389 H403 0.950 . S
C390 C387 1.481 . S
C390 C391 1.297 . S
C390 H404 0.950 . S
C391 C390 1.297 . S
C391 C392 1.479 . S
C391 H405 0.950 . S
C392 C391 1.479 . S
C392 C393 1.375 . S
C392 C398 1.404 . S
C393 C392 1.375 . S
C393 C394 1.369 . S
C393 H406 0.950 . S
C394 C393 1.369 . S
C394 C395 1.392 . S
C394 H407 0.951 . S
C395 C394 1.392 . S
C395 C397 1.384 . S
H396 C398 0.949 . S
C397 C395 1.384 . S
C397 C398 1.385 . S
C397 H399 0.950 . S
C398 C392 1.404 . S
C398 H396 0.949 . S
C398 C397 1.385 . S
H399 C397 0.950 . S
H400 C384 0.951 . S
H401 C386 0.951 . S
H402 C388 0.951 . S
H403 C389 0.950 . S
H404 C390 0.950 . S
H405 C391 0.950 . S
H406 C393 0.950 . S
H407 C394 0.951 . S
C408 C409 1.386 . S
C408 C410 1.383 . S
C408 H424 0.951 . S
C409 C408 1.386 . S
C409 C413 1.383 . S
C410 C408 1.383 . S
C410 C411 1.402 . S
C410 H425 0.951 . S
C411 C410 1.402 . S
C411 C412 1.375 . S
C411 C414 1.481 . S
C412 C411 1.375 . S
C412 C413 1.367 . S
C412 H426 0.951 . S
C413 C409 1.383 . S
C413 C412 1.367 . S
C413 H427 0.950 . S
C414 C411 1.481 . S
C414 C415 1.297 . S
C414 H428 0.950 . S
C415 C414 1.297 . S
C415 C416 1.479 . S
C415 H429 0.950 . S
C416 C415 1.479 . S
C416 C417 1.375 . S
C416 C422 1.404 . S
C417 C416 1.375 . S
C417 C418 1.369 . S
C417 H430 0.950 . S
C418 C417 1.369 . S
C418 C419 1.392 . S
C418 H431 0.951 . S
C419 C418 1.392 . S
C419 C421 1.384 . S
H420 C422 0.949 . S
C421 C419 1.384 . S
C421 C422 1.385 . S
C421 H423 0.950 . S
C422 C416 1.404 . S
C422 H420 0.949 . S
C422 C421 1.385 . S
H423 C421 0.950 . S
H424 C408 0.951 . S
H425 C410 0.951 . S
H426 C412 0.951 . S
H427 C413 0.950 . S
H428 C414 0.950 . S
H429 C415 0.950 . S
H430 C417 0.950 . S
H431 C418 0.951 . S
C432 C433 1.386 . S
C432 C434 1.383 . S
C432 H448 0.951 . S
C433 C432 1.386 . S
C433 C437 1.383 . S
C434 C432 1.383 . S
C434 C435 1.402 . S
C434 H449 0.951 . S
C435 C434 1.402 . S
C435 C436 1.375 . S
C435 C438 1.481 1_655 S
C436 C435 1.375 . S
C436 C437 1.367 . S
C436 H450 0.951 . S
C437 C433 1.383 . S
C437 C436 1.367 . S
C437 H451 0.950 . S
C438 C435 1.481 1_455 S
C438 C439 1.297 . S
C438 H452 0.950 . S
C439 C438 1.297 . S
C439 C440 1.479 . S
C439 H453 0.950 . S
C440 C439 1.479 . S
C440 C441 1.375 . S
C440 C446 1.404 . S
C441 C440 1.375 . S
C441 C442 1.369 . S
C441 H454 0.950 . S
C442 C441 1.369 . S
C442 C443 1.392 . S
C442 H455 0.951 . S
C443 C442 1.392 . S
C443 C445 1.384 . S
H444 C446 0.949 . S
C445 C443 1.384 . S
C445 C446 1.385 . S
C445 H447 0.950 . S
C446 C440 1.404 . S
C446 H444 0.949 . S
C446 C445 1.385 . S
H447 C445 0.950 . S
H448 C432 0.951 . S
H449 C434 0.951 . S
H450 C436 0.951 . S
H451 C437 0.950 . S
H452 C438 0.950 . S
H453 C439 0.950 . S
H454 C441 0.950 . S
H455 C442 0.951 . S
C456 C457 1.386 . S
C456 C458 1.383 . S
C456 H472 0.951 . S
C457 C456 1.386 . S
C457 C461 1.383 . S
C458 C456 1.383 . S
C458 C459 1.402 . S
C458 H473 0.951 . S
C459 C458 1.402 . S
C459 C460 1.375 . S
C459 C462 1.481 1_545 S
C460 C459 1.375 . S
C460 C461 1.367 . S
C460 H474 0.951 . S
C461 C457 1.383 . S
C461 C460 1.367 . S
C461 H475 0.950 . S
C462 C459 1.481 1_565 S
C462 C463 1.297 . S
C462 H476 0.950 . S
C463 C462 1.297 . S
C463 C464 1.479 . S
C463 H477 0.950 . S
C464 C463 1.479 . S
C464 C465 1.375 . S
C464 C470 1.404 . S
C465 C464 1.375 . S
C465 C466 1.369 . S
C465 H478 0.950 . S
C466 C465 1.369 . S
C466 C467 1.392 . S
C466 H479 0.951 . S
C467 C466 1.392 . S
C467 C469 1.384 . S
H468 C470 0.949 . S
C469 C467 1.384 . S
C469 C470 1.385 . S
C469 H471 0.950 . S
C470 C464 1.404 . S
C470 H468 0.949 . S
C470 C469 1.385 . S
H471 C469 0.950 . S
H472 C456 0.951 . S
H473 C458 0.951 . S
H474 C460 0.951 . S
H475 C461 0.950 . S
H476 C462 0.950 . S
H477 C463 0.950 . S
H478 C465 0.950 . S
H479 C466 0.951 . S
C480 C481 1.386 . S
C480 C482 1.383 . S
C480 H496 0.951 . S
C481 C480 1.386 . S
C481 C485 1.383 . S
C482 C480 1.383 . S
C482 C483 1.402 . S
C482 H497 0.951 . S
C483 C482 1.402 . S
C483 C484 1.375 . S
C483 C486 1.481 . S
C484 C483 1.375 . S
C484 C485 1.367 . S
C484 H498 0.951 . S
C485 C481 1.383 . S
C485 C484 1.367 . S
C485 H499 0.950 . S
C486 C483 1.481 . S
C486 C487 1.297 . S
C486 H500 0.950 . S
C487 C486 1.297 . S
C487 C488 1.479 . S
C487 H501 0.950 . S
C488 C487 1.479 . S
C488 C489 1.375 . S
C488 C494 1.404 . S
C489 C488 1.375 . S
C489 C490 1.369 . S
C489 H502 0.950 . S
C490 C489 1.369 . S
C490 C491 1.392 . S
C490 H503 0.951 . S
C491 C490 1.392 . S
C491 C493 1.384 . S
H492 C494 0.949 . S
C493 C491 1.384 . S
C493 C494 1.385 . S
C493 H495 0.950 . S
C494 C488 1.404 . S
C494 H492 0.949 . S
C494 C493 1.385 . S
H495 C493 0.950 . S
H496 C480 0.951 . S
H497 C482 0.951 . S
H498 C484 0.951 . S
H499 C485 0.950 . S
H500 C486 0.950 . S
H501 C487 0.950 . S
H502 C489 0.950 . S
H503 C490 0.951 . S
C504 C505 1.386 . S
C504 C506 1.383 . S
C504 H520 0.951 . S
C505 C504 1.386 . S
C505 C509 1.383 . S
C506 C504 1.383 . S
C506 C507 1.402 . S
C506 H521 0.951 . S
C507 C506 1.402 . S
C507 C508 1.375 . S
C507 C510 1.481 1_455 S
C508 C507 1.375 . S
C508 C509 1.367 . S
C508 H522 0.951 . S
C509 C505 1.383 . S
C509 C508 1.367 . S
C509 H523 0.950 . S
C510 C507 1.481 1_655 S
C510 C511 1.297 . S
C510 H524 0.950 . S
C511 C510 1.297 . S
C511 C512 1.479 . S
C511 H525 0.950 . S
C512 C511 1.479 . S
C512 C513 1.375 . S
C512 C518 1.404 . S
C513 C512 1.375 . S
C513 C514 1.369 . S
C513 H526 0.950 . S
C514 C513 1.369 . S
C514 C515 1.392 . S
C514 H527 0.951 . S
C515 C514 1.392 . S
C515 C517 1.384 . S
H516 C518 0.949 . S
C517 C515 1.384 . S
C517 C518 1.385 . S
C517 H519 0.950 . S
C518 C512 1.404 . S
C518 H516 0.949 . S
C518 C517 1.385 . S
H519 C517 0.950 . S
H520 C504 0.951 . S
H521 C506 0.951 . S
H522 C508 0.951 . S
H523 C509 0.950 . S
H524 C510 0.950 . S
H525 C511 0.950 . S
H526 C513 0.950 . S
H527 C514 0.951 . S
C528 C529 1.386 . S
C528 C530 1.383 . S
C528 H544 0.951 1_655 S
C529 C528 1.386 . S
C529 C533 1.383 . S
C530 C528 1.383 . S
C530 C531 1.402 . S
C530 H545 0.951 . S
C531 C530 1.402 . S
C531 C532 1.375 . S
C531 C534 1.481 . S
C532 C531 1.375 . S
C532 C533 1.367 . S
C532 H546 0.951 . S
C533 C529 1.383 . S
C533 C532 1.367 . S
C533 H547 0.950 . S
C534 C531 1.481 . S
C534 C535 1.297 . S
C534 H548 0.950 . S
C535 C534 1.297 . S
C535 C536 1.479 1_545 S
C535 H549 0.950 . S
C536 C535 1.479 1_565 S
C536 C537 1.375 . S
C536 C542 1.404 . S
C537 C536 1.375 . S
C537 C538 1.369 . S
C537 H550 0.950 . S
C538 C537 1.369 . S
C538 C539 1.392 . S
C538 H551 0.951 . S
C539 C538 1.392 . S
C539 C541 1.384 . S
H540 C542 0.949 . S
C541 C539 1.384 . S
C541 C542 1.385 . S
C541 H543 0.950 . S
C542 C536 1.404 . S
C542 H540 0.949 . S
C542 C541 1.385 . S
H543 C541 0.950 . S
H544 C528 0.951 1_455 S
H545 C530 0.951 . S
H546 C532 0.951 . S
H547 C533 0.950 . S
H548 C534 0.950 . S
H549 C535 0.950 . S
H550 C537 0.950 . S
H551 C538 0.951 . S
C121 C89 1.876 . S
C131 C9 1.805 . S
C145 C101 2.017 . S
C155 C21 2.028 . S
C169 C49 2.295 . S
C179 C69 2.324 . S
C193 C1 2.402 . S
C203 C81 2.300 . S
C217 C109 2.203 . S
C227 C29 2.233 . S
C241 C41 1.962 . S
C251 C61 1.867 . S
C265 C8 1.780 . S
C275 C56 1.698 . S
C289 C39 1.779 . S
C299 C16 1.714 . S
C313 C48 1.782 . S
C323 C26 1.625 . S
C337 C79 1.763 . S
C347 C86 1.642 . S
C361 C99 1.752 . S
C371 C106 1.624 . S
C385 C66 1.672 . S
C395 C119 1.734 . S
C409 C19 1.028 . S
C419 C46 1.060 . S
C433 C28 0.941 . S
C443 C6 1.056 . S
C457 C59 0.995 . S
C467 C36 1.044 . S
C481 C68 0.936 . S
C491 C96 1.039 . S
C505 C88 0.921 . S
C515 C116 1.031 . S
C529 C76 1.070 . S
C539 C108 1.010 . S
