# Generated by pormake.
# Topology crs, (6)-cn, num edge types: 1
# Building blocks:
#     Node 0, Type 0, BuildingBlock: BETDIP_clean_sbu_0, # of connection points: 6
#     Node 1, Type 0, BuildingBlock: BETDIP_clean_sbu_0, # of connection points: 6
#     Node 2, Type 0, BuildingBlock: BETDIP_clean_sbu_0, # of connection points: 6
#     Node 3, Type 0, BuildingBlock: BETDIP_clean_sbu_0, # of connection points: 6
#     Node 4, Type 0, BuildingBlock: BETDIP_clean_sbu_0, # of connection points: 6
#     Node 5, Type 0, BuildingBlock: BETDIP_clean_sbu_0, # of connection points: 6
#     Node 6, Type 0, BuildingBlock: BETDIP_clean_sbu_0, # of connection points: 6
#     Node 7, Type 0, BuildingBlock: BETDIP_clean_sbu_0, # of connection points: 6
#     Node 8, Type 0, BuildingBlock: BETDIP_clean_sbu_0, # of connection points: 6
#     Node 9, Type 0, BuildingBlock: BETDIP_clean_sbu_0, # of connection points: 6
#     Node 10, Type 0, BuildingBlock: BETDIP_clean_sbu_0, # of connection points: 6
#     Node 11, Type 0, BuildingBlock: BETDIP_clean_sbu_0, # of connection points: 6
#     Node 12, Type 0, BuildingBlock: BETDIP_clean_sbu_0, # of connection points: 6
#     Node 13, Type 0, BuildingBlock: BETDIP_clean_sbu_0, # of connection points: 6
#     Node 14, Type 0, BuildingBlock: BETDIP_clean_sbu_0, # of connection points: 6
#     Node 15, Type 0, BuildingBlock: BETDIP_clean_sbu_0, # of connection points: 6
#     Edge 16, Type (0, 0), BuildingBlock: KIFKEQ_clean_linker_1, # of connection points: 2
#     Edge 17, Type (0, 0), BuildingBlock: KIFKEQ_clean_linker_1, # of connection points: 2
#     Edge 18, Type (0, 0), BuildingBlock: KIFKEQ_clean_linker_1, # of connection points: 2
#     Edge 19, Type (0, 0), BuildingBlock: KIFKEQ_clean_linker_1, # of connection points: 2
#     Edge 20, Type (0, 0), BuildingBlock: KIFKEQ_clean_linker_1, # of connection points: 2
#     Edge 21, Type (0, 0), BuildingBlock: KIFKEQ_clean_linker_1, # of connection points: 2
#     Edge 22, Type (0, 0), BuildingBlock: KIFKEQ_clean_linker_1, # of connection points: 2
#     Edge 23, Type (0, 0), BuildingBlock: KIFKEQ_clean_linker_1, # of connection points: 2
#     Edge 24, Type (0, 0), BuildingBlock: KIFKEQ_clean_linker_1, # of connection points: 2
#     Edge 25, Type (0, 0), BuildingBlock: KIFKEQ_clean_linker_1, # of connection points: 2
#     Edge 26, Type (0, 0), BuildingBlock: KIFKEQ_clean_linker_1, # of connection points: 2
#     Edge 27, Type (0, 0), BuildingBlock: KIFKEQ_clean_linker_1, # of connection points: 2
#     Edge 28, Type (0, 0), BuildingBlock: KIFKEQ_clean_linker_1, # of connection points: 2
#     Edge 29, Type (0, 0), BuildingBlock: KIFKEQ_clean_linker_1, # of connection points: 2
#     Edge 30, Type (0, 0), BuildingBlock: KIFKEQ_clean_linker_1, # of connection points: 2
#     Edge 31, Type (0, 0), BuildingBlock: KIFKEQ_clean_linker_1, # of connection points: 2
#     Edge 32, Type (0, 0), BuildingBlock: KIFKEQ_clean_linker_1, # of connection points: 2
#     Edge 33, Type (0, 0), BuildingBlock: KIFKEQ_clean_linker_1, # of connection points: 2
#     Edge 34, Type (0, 0), BuildingBlock: KIFKEQ_clean_linker_1, # of connection points: 2
#     Edge 35, Type (0, 0), BuildingBlock: KIFKEQ_clean_linker_1, # of connection points: 2
#     Edge 36, Type (0, 0), BuildingBlock: KIFKEQ_clean_linker_1, # of connection points: 2
#     Edge 37, Type (0, 0), BuildingBlock: KIFKEQ_clean_linker_1, # of connection points: 2
#     Edge 38, Type (0, 0), BuildingBlock: KIFKEQ_clean_linker_1, # of connection points: 2
#     Edge 39, Type (0, 0), BuildingBlock: KIFKEQ_clean_linker_1, # of connection points: 2
#     Edge 40, Type (0, 0), BuildingBlock: KIFKEQ_clean_linker_1, # of connection points: 2
#     Edge 41, Type (0, 0), BuildingBlock: KIFKEQ_clean_linker_1, # of connection points: 2
#     Edge 42, Type (0, 0), BuildingBlock: KIFKEQ_clean_linker_1, # of connection points: 2
#     Edge 43, Type (0, 0), BuildingBlock: KIFKEQ_clean_linker_1, # of connection points: 2
#     Edge 44, Type (0, 0), BuildingBlock: KIFKEQ_clean_linker_1, # of connection points: 2
#     Edge 45, Type (0, 0), BuildingBlock: KIFKEQ_clean_linker_1, # of connection points: 2
#     Edge 46, Type (0, 0), BuildingBlock: KIFKEQ_clean_linker_1, # of connection points: 2
#     Edge 47, Type (0, 0), BuildingBlock: KIFKEQ_clean_linker_1, # of connection points: 2
#     Edge 48, Type (0, 0), BuildingBlock: KIFKEQ_clean_linker_1, # of connection points: 2
#     Edge 49, Type (0, 0), BuildingBlock: KIFKEQ_clean_linker_1, # of connection points: 2
#     Edge 50, Type (0, 0), BuildingBlock: KIFKEQ_clean_linker_1, # of connection points: 2
#     Edge 51, Type (0, 0), BuildingBlock: KIFKEQ_clean_linker_1, # of connection points: 2
#     Edge 52, Type (0, 0), BuildingBlock: KIFKEQ_clean_linker_1, # of connection points: 2
#     Edge 53, Type (0, 0), BuildingBlock: KIFKEQ_clean_linker_1, # of connection points: 2
#     Edge 54, Type (0, 0), BuildingBlock: KIFKEQ_clean_linker_1, # of connection points: 2
#     Edge 55, Type (0, 0), BuildingBlock: KIFKEQ_clean_linker_1, # of connection points: 2
#     Edge 56, Type (0, 0), BuildingBlock: KIFKEQ_clean_linker_1, # of connection points: 2
#     Edge 57, Type (0, 0), BuildingBlock: KIFKEQ_clean_linker_1, # of connection points: 2
#     Edge 58, Type (0, 0), BuildingBlock: KIFKEQ_clean_linker_1, # of connection points: 2
#     Edge 59, Type (0, 0), BuildingBlock: KIFKEQ_clean_linker_1, # of connection points: 2
#     Edge 60, Type (0, 0), BuildingBlock: KIFKEQ_clean_linker_1, # of connection points: 2
#     Edge 61, Type (0, 0), BuildingBlock: KIFKEQ_clean_linker_1, # of connection points: 2
#     Edge 62, Type (0, 0), BuildingBlock: KIFKEQ_clean_linker_1, # of connection points: 2
#     Edge 63, Type (0, 0), BuildingBlock: KIFKEQ_clean_linker_1, # of connection points: 2
# Relax obj value: 0.405
# Max RMSD: 0.319
# Mean RMSD: 0.318
data_MOF--net-crs--node1-BETDIP_clean_sbu_0--edge1-KIFKEQ_clean_linker_1
_symmetry_space_group_name_H-M    P1
_symmetry_Int_Tables_number       1
_symmetry_cell_setting            triclinic
loop_
_symmetry_equiv_pos_as_xyz
'x, y, z'
_cell_length_a     39.496186
_cell_length_b     67.075639
_cell_length_c     44.687074
_cell_angle_alpha  89.979059
_cell_angle_beta   89.9918
_cell_angle_gamma 61.327179
loop_
_atom_site_label
_atom_site_type_symbol
_atom_site_fract_x
_atom_site_fract_y
_atom_site_fract_z
_atom_type_partial_charge
Tb0 Tb 0.95959 0.01636 0.01639 0.0
Tb1 Tb 0.03264 1.0115 0.9876 0.0
C2 C 0.89859 0.01459 0.02608 0.0
C3 C 0.88578 0.99829 0.01662 0.0
C4 C 0.89813 0.9867 0.98926 0.0
C5 C 0.89141 0.96853 0.98272 0.0
C6 C 0.87216 0.96169 1.0034 0.0
C7 C 0.85801 0.97414 0.03003 0.0
C8 C 0.8649 0.99225 0.03661 0.0
C9 C 0.01484 1.01058 0.05392 0.0
C10 C 0.02058 0.96952 0.98425 0.0
C11 C 0.09383 0.01331 0.97959 0.0
C12 C 0.10629 0.02913 0.99175 0.0
C13 C 0.09498 0.03825 0.0206 0.0
C14 C 0.1014 0.05592 0.03033 0.0
C15 C 0.11897 0.06496 0.01129 0.0
C16 C 0.13197 0.05502 0.98295 0.0
C17 C 0.12562 0.03726 0.97328 0.0
C18 C 0.97683 0.01783 0.95021 0.0
C19 C 0.97099 0.05873 0.01801 0.0
O20 O 0.90191 0.02711 1.00495 0.0
O21 O 0.92807 1.00627 0.04442 0.0
O22 O 0.0192 1.00103 0.02878 0.0
O23 O 0.97833 0.02251 0.05974 0.0
O24 O 0.98529 0.98283 0.99461 0.0
O25 O 0.04692 0.97628 0.98286 0.0
O26 O 0.09064 0.9996 0.99896 0.0
O27 O 0.06437 0.02254 0.96125 0.0
O28 O 0.97311 0.02698 0.97551 0.0
O29 O 0.0133 1.00603 0.94393 0.0
O30 O 0.00662 0.04523 0.00855 0.0
O31 O 0.94479 0.05184 0.01975 0.0
H32 H 0.91436 0.99104 0.97346 0.0
H33 H 0.90229 0.95941 0.96189 0.0
H34 H 0.8434 0.96914 0.04651 0.0
H35 H 0.8554 1.00089 0.05791 0.0
H36 H 0.07976 0.03238 0.03521 0.0
H37 H 0.09146 0.06299 0.0524 0.0
H38 H 0.14512 0.06177 0.96757 0.0
H39 H 0.13422 0.0306 0.95085 0.0
Tb40 Tb 0.01215 0.26985 0.2769 0.0
Tb41 Tb 0.96415 0.25843 0.23734 0.0
C42 C 0.04204 0.28558 0.31343 0.0
C43 C 0.03346 0.30291 0.33686 0.0
C44 C 0.00833 0.32607 0.33153 0.0
C45 C 0.00628 0.34254 0.35174 0.0
C46 C 0.02923 0.3362 0.37771 0.0
C47 C 0.05266 0.31296 0.38384 0.0
C48 C 0.05484 0.2965 0.36353 0.0
C49 C 0.04544 0.22617 0.26082 0.0
C50 C 0.94509 0.26311 0.30486 0.0
C51 C 0.93495 0.24208 0.20117 0.0
C52 C 0.94369 0.22549 0.17677 0.0
C53 C 0.97411 0.20311 0.17882 0.0
C54 C 0.97761 0.18679 0.1577 0.0
C55 C 0.95074 0.19254 0.1342 0.0
C56 C 0.92155 0.21525 0.13147 0.0
C57 C 0.91806 0.23151 0.15256 0.0
C58 C 0.93044 0.30219 0.25326 0.0
C59 C 0.03073 0.2657 0.20942 0.0
O60 O 0.03235 0.29283 0.286 0.0
O61 O 0.03624 0.26839 0.31955 0.0
O62 O 0.01048 0.23874 0.26727 0.0
O63 O 0.06347 0.23765 0.26531 0.0
O64 O 0.96396 0.27491 0.30635 0.0
O65 O 0.94588 0.25199 0.28033 0.0
O66 O 0.94731 0.23395 0.22792 0.0
O67 O 0.93788 0.26033 0.19558 0.0
O68 O 0.96558 0.28963 0.24714 0.0
O69 O 0.91261 0.29065 0.24828 0.0
O70 O 0.01208 0.25378 0.20783 0.0
O71 O 0.02956 0.27691 0.23395 0.0
H72 H -0.00858 0.33158 0.31122 0.0
H73 H 0.98745 0.36029 0.34664 0.0
H74 H 0.07086 0.30751 0.40354 0.0
H75 H 0.07467 0.27877 0.36802 0.0
H76 H -0.00574 0.198 0.19734 0.0
H77 H 0.00031 0.16945 0.1606 0.0
H78 H 0.90082 0.22037 0.11337 0.0
H79 H 0.89434 0.24866 0.15058 0.0
Tb80 Tb 0.77946 0.25968 0.52282 0.0
Tb81 Tb 0.70359 0.26813 0.49551 0.0
C82 C 0.8428 0.25915 0.52974 0.0
C83 C 0.85635 0.27473 0.51847 0.0
C84 C 0.84517 0.28468 0.49002 0.0
C85 C 0.85288 0.30205 0.48118 0.0
C86 C 0.8715 0.31005 0.50078 0.0
C87 C 0.88421 0.29934 0.52876 0.0
C88 C 0.87668 0.28183 0.53749 0.0
C89 C 0.72605 0.26521 0.56203 0.0
C90 C 0.71861 0.30912 0.49763 0.0
C91 C 0.6414 0.26814 0.48425 0.0
C92 C 0.62679 0.25236 0.49221 0.0
C93 C 0.63393 0.24203 0.52054 0.0
C94 C 0.62516 0.22452 0.52618 0.0
C95 C 0.6095 0.21685 0.5035 0.0
C96 C 0.60097 0.22793 0.47557 0.0
C97 C 0.60947 0.24554 0.47005 0.0
C98 C 0.75792 0.26272 0.45713 0.0
C99 C 0.76271 0.21932 0.52357 0.0
O100 O 0.83709 0.24685 0.5096 0.0
O101 O 0.81461 0.26814 0.5492 0.0
O102 O 0.72049 0.27565 0.53741 0.0
O103 O 0.76285 0.25286 0.56654 0.0
O104 O 0.75452 0.29436 0.50503 0.0
O105 O 0.69106 0.30331 0.49588 0.0
O106 O 0.64535 0.27987 0.50614 0.0
O107 O 0.67113 0.25965 0.46619 0.0
O108 O 0.76245 0.25198 0.48127 0.0
O109 O 0.72145 0.27607 0.45281 0.0
O110 O 0.7271 0.23411 0.51538 0.0
O111 O 0.79073 0.22477 0.52441 0.0
H112 H 0.82909 0.27968 0.47504 0.0
H113 H 0.84315 0.30967 0.45933 0.0
H114 H 0.89814 0.30528 0.54459 0.0
H115 H 0.88518 0.27455 0.55965 0.0
H116 H 0.64767 0.24683 0.53797 0.0
H117 H 0.63164 0.21659 0.54805 0.0
H118 H 0.58949 0.22229 0.45741 0.0
H119 H 0.60411 0.25314 0.44797 0.0
Tb120 Tb 0.71721 1.0086 0.778 0.0
Tb121 Tb 0.76606 0.01782 0.73884 0.0
C122 C 0.68655 0.99428 0.81606 0.0
C123 C 0.69538 0.97526 0.83684 0.0
C124 C 0.71811 0.95249 0.82807 0.0
C125 C 0.72109 0.93484 0.84655 0.0
C126 C 0.70158 0.9396 0.87417 0.0
C127 C 0.68031 0.96238 0.88339 0.0
C128 C 0.67717 0.98 0.86486 0.0
C129 C 0.68496 0.05234 0.76138 0.0
C130 C 0.78269 0.01629 0.80558 0.0
C131 C 0.79834 0.03117 0.7009 0.0
C132 C 0.79229 0.05082 0.68243 0.0
C133 C 0.75764 0.06428 0.66707 0.0
C134 C 0.75402 0.08223 0.64882 0.0
C135 C 0.78489 0.08705 0.64582 0.0
C136 C 0.8193 0.07357 0.66149 0.0
C137 C 0.82291 0.05568 0.67955 0.0
C138 C 0.7982 0.9742 0.75582 0.0
C139 C 0.69927 1.0113 0.71096 0.0
O140 O 0.68906 0.98972 0.78752 0.0
O141 O 0.6997 1.00828 0.82258 0.0
O142 O 0.71982 0.03955 0.76786 0.0
O143 O 0.66664 0.04109 0.76612 0.0
O144 O 0.76631 1.00314 0.80675 0.0
O145 O 0.77895 0.0283 0.7813 0.0
O146 O 0.80005 0.03342 0.72973 0.0
O147 O 0.77944 0.02034 0.69392 0.0
O148 O 0.76348 0.98691 0.74899 0.0
O149 O 0.81654 0.98538 0.75098 0.0
O150 O 0.71723 0.02359 0.70965 0.0
O151 O 0.70127 0.9999 0.73547 0.0
H152 H 0.73259 0.94834 0.80659 0.0
H153 H 0.73823 0.91747 0.839 0.0
H154 H 0.66468 0.96667 0.90437 0.0
H155 H 0.65927 0.99743 0.87197 0.0
H156 H 0.73355 0.06088 0.66904 0.0
H157 H 0.727 0.09245 0.63727 0.0
H158 H 0.84382 0.07655 0.65937 0.0
H159 H 0.84995 0.04541 0.69108 0.0
Tb160 Tb 0.51276 0.76983 0.28135 0.0
Tb161 Tb 0.4659 0.75912 0.23941 0.0
C162 C 0.54109 0.78547 0.31932 0.0
C163 C 0.53218 0.80167 0.34426 0.0
C164 C 0.50339 0.82447 0.34189 0.0
C165 C 0.50036 0.84034 0.36354 0.0
C166 C 0.52603 0.83372 0.38797 0.0
C167 C 0.55335 0.81063 0.39106 0.0
C168 C 0.55643 0.79481 0.36939 0.0
C169 C 0.54623 0.7262 0.26516 0.0
C170 C 0.44363 0.76379 0.30654 0.0
C171 C 0.4369 0.74345 0.20199 0.0
C172 C 0.44512 0.72708 0.17737 0.0
C173 C 0.47452 0.70442 0.17951 0.0
C174 C 0.47699 0.6883 0.15848 0.0
C175 C 0.45015 0.69451 0.13489 0.0
C176 C 0.42211 0.71748 0.13198 0.0
C177 C 0.4196 0.73355 0.15304 0.0
C178 C 0.43269 0.80277 0.25563 0.0
C179 C 0.53552 0.76513 0.21426 0.0
O180 O 0.52971 0.79397 0.29257 0.0
O181 O 0.53756 0.76729 0.32394 0.0
O182 O 0.51081 0.73895 0.27025 0.0
O183 O 0.56417 0.73748 0.2714 0.0
O184 O 0.46343 0.77495 0.30935 0.0
O185 O 0.4448 0.75308 0.2815 0.0
O186 O 0.4485 0.73509 0.22875 0.0
O187 O 0.44086 0.76143 0.19693 0.0
O188 O 0.46802 0.78993 0.25037 0.0
O189 O 0.41458 0.79153 0.24966 0.0
O190 O 0.51434 0.75483 0.21073 0.0
O191 O 0.53541 0.77509 0.23973 0.0
H192 H 0.48431 0.83025 0.32272 0.0
H193 H 0.47913 0.85798 0.36028 0.0
H194 H 0.57308 0.80484 0.40985 0.0
H195 H 0.57889 0.77733 0.37165 0.0
H196 H 0.49457 0.69894 0.19808 0.0
H197 H 0.49882 0.67076 0.16159 0.0
H198 H 0.40146 0.72297 0.11379 0.0
H199 H 0.39663 0.75091 0.15098 0.0
Tb200 Tb 0.27553 0.76417 0.523 0.0
Tb201 Tb 0.198 0.77424 0.49787 0.0
C202 C 0.3402 0.76216 0.52924 0.0
C203 C 0.35509 0.77722 0.51862 0.0
C204 C 0.34189 0.78905 0.4915 0.0
C205 C 0.34929 0.80686 0.48449 0.0
C206 C 0.37002 0.8131 0.50447 0.0
C207 C 0.3858 0.80012 0.53045 0.0
C208 C 0.37821 0.78233 0.53754 0.0
C209 C 0.22235 0.77141 0.56325 0.0
C210 C 0.21507 0.81399 0.49811 0.0
C211 C 0.13587 0.77352 0.49016 0.0
C212 C 0.12916 0.75367 0.49097 0.0
C213 C 0.10112 0.7535 0.51012 0.0
C214 C 0.09843 0.73358 0.51406 0.0
C215 C 0.12395 0.71349 0.49903 0.0
C216 C 0.15107 0.71395 0.47914 0.0
C217 C 0.15373 0.73377 0.4752 0.0
C218 C 0.25199 0.76657 0.45793 0.0
C219 C 0.257 0.72449 0.52372 0.0
O220 O 0.33284 0.75086 0.50861 0.0
O221 O 0.31248 0.77133 0.54906 0.0
O222 O 0.21711 0.78183 0.53867 0.0
O223 O 0.25888 0.75768 0.56693 0.0
O224 O 0.25135 0.79845 0.50345 0.0
O225 O 0.18646 0.80909 0.49968 0.0
O226 O 0.1455 0.77886 0.51579 0.0
O227 O 0.15722 0.77405 0.46807 0.0
O228 O 0.25642 0.75636 0.48254 0.0
O229 O 0.21566 0.78065 0.4541 0.0
O230 O 0.22207 0.73942 0.51453 0.0
O231 O 0.28541 0.72955 0.52558 0.0
H232 H 0.3239 0.78548 0.47656 0.0
H233 H 0.33699 0.81657 0.46426 0.0
H234 H 0.40166 0.80472 0.54627 0.0
H235 H 0.38848 0.77345 0.55862 0.0
H236 H 0.08219 0.76854 0.52278 0.0
H237 H 0.07734 0.73367 0.52963 0.0
H238 H 0.17074 0.69885 0.46691 0.0
H239 H 0.176 0.7332 0.46052 0.0
Tb240 Tb 0.21991 0.50632 0.78102 0.0
Tb241 Tb 0.26799 0.51812 0.73689 0.0
C242 C 0.19237 0.48943 0.81761 0.0
C243 C 0.20262 0.47166 0.84072 0.0
C244 C 0.22337 0.44846 0.83338 0.0
C245 C 0.22726 0.43191 0.85412 0.0
C246 C 0.21033 0.43814 0.88264 0.0
C247 C 0.19081 0.46131 0.89035 0.0
C248 C 0.18697 0.47789 0.86957 0.0
C249 C 0.18678 0.54943 0.76243 0.0
C250 C 0.29328 0.50987 0.80469 0.0
C251 C 0.29238 0.53954 0.70521 0.0
C252 C 0.28087 0.55875 0.68425 0.0
C253 C 0.26365 0.58134 0.69439 0.0
C254 C 0.25878 0.59886 0.67491 0.0
C255 C 0.27118 0.5941 0.64497 0.0
C256 C 0.2869 0.57163 0.63463 0.0
C257 C 0.29183 0.55415 0.65408 0.0
C258 C 0.30189 0.47302 0.74494 0.0
C259 C 0.20244 0.50847 0.71284 0.0
O260 O 0.20152 0.48255 0.7899 0.0
O261 O 0.19702 0.50707 0.82389 0.0
O262 O 0.22198 0.53663 0.7679 0.0
O263 O 0.16841 0.53856 0.76973 0.0
O264 O 0.26669 0.50359 0.81022 0.0
O265 O 0.29792 0.51686 0.77806 0.0
O266 O 0.28298 0.54407 0.73348 0.0
O267 O 0.28949 0.52195 0.69569 0.0
O268 O 0.27124 0.48823 0.7564 0.0
O269 O 0.31489 0.48347 0.72802 0.0
O270 O 0.22011 0.52084 0.70923 0.0
O271 O 0.20476 0.49771 0.73816 0.0
H272 H 0.23525 0.44303 0.8112 0.0
H273 H 0.24204 0.41427 0.84724 0.0
H274 H 0.17786 0.46667 0.91226 0.0
H275 H 0.17049 0.49565 0.8757 0.0
H276 H 0.25521 0.58544 0.71759 0.0
H277 H 0.24682 0.61596 0.68365 0.0
H278 H 0.29611 0.56744 0.61159 0.0
H279 H 0.3055 0.53688 0.64572 0.0
Tb280 Tb 0.95899 0.51308 0.52366 0.0
Tb281 Tb 0.03176 0.50867 0.49526 0.0
C282 C 0.89863 0.51035 0.53214 0.0
C283 C 0.88669 0.49422 0.52035 0.0
C284 C 0.8995 0.48412 0.49215 0.0
C285 C 0.89301 0.46636 0.4829 0.0
C286 C 0.87385 0.45823 0.50178 0.0
C287 C 0.85966 0.46905 0.52948 0.0
C288 C 0.86607 0.48688 0.53867 0.0
C289 C 0.0131 0.50799 0.56186 0.0
C290 C 0.02212 0.46577 0.49465 0.0
C291 C 0.0914 0.51164 0.48405 0.0
C292 C 0.10361 0.52851 0.49206 0.0
C293 C 0.09551 0.53888 0.52039 0.0
C294 C 0.1025 0.55709 0.52612 0.0
C295 C 0.11739 0.56536 0.50357 0.0
C296 C 0.12659 0.55437 0.47559 0.0
C297 C 0.11984 0.53611 0.46996 0.0
C298 C 0.97754 0.51331 0.45732 0.0
C299 C 0.96977 0.5556 0.52599 0.0
O300 O 0.90111 0.52418 0.51263 0.0
O301 O 0.92833 0.50142 0.55023 0.0
O302 O 0.01842 0.49838 0.53666 0.0
O303 O 0.97641 0.51926 0.56741 0.0
O304 O 0.98616 0.47919 0.50334 0.0
O305 O 0.04797 0.47293 0.49302 0.0
O306 O 0.08924 0.49921 0.50583 0.0
O307 O 0.0616 0.51921 0.46612 0.0
O308 O 0.97237 0.52328 0.48223 0.0
O309 O 0.0142 0.50167 0.45204 0.0
O310 O 0.0054 0.54222 0.51648 0.0
O311 O 0.94368 0.54862 0.52741 0.0
H312 H 0.91577 0.48936 0.47769 0.0
H313 H 0.90392 0.4586 0.4613 0.0
H314 H 0.8453 0.46302 0.54478 0.0
H315 H 0.85634 0.49429 0.56062 0.0
H316 H 0.08262 0.53345 0.53777 0.0
H317 H 0.09551 0.56495 0.54802 0.0
H318 H 0.13745 0.56046 0.45751 0.0
H319 H 0.12588 0.52849 0.44789 0.0
Tb320 Tb 0.27951 0.25635 0.02268 0.0
Tb321 Tb 0.20316 0.26633 0.995 0.0
C322 C 0.34114 0.25717 0.03271 0.0
C323 C 0.34835 0.27686 0.03256 0.0
C324 C 0.37359 0.27811 0.01143 0.0
C325 C 0.37613 0.29812 1.00819 0.0
C326 C 0.35333 0.31722 0.02597 0.0
C327 C 0.32934 0.3156 0.04793 0.0
C328 C 0.32682 0.29568 0.05118 0.0
C329 C 0.22466 0.26253 0.06082 0.0
C330 C 0.2203 0.30654 0.99783 0.0
C331 C 0.13983 0.26708 0.98718 0.0
C332 C 0.12629 0.25135 0.99794 0.0
C333 C 0.13584 0.24197 0.02682 0.0
C334 C 0.12861 0.22435 0.03529 0.0
C335 C 0.11209 0.21552 0.01492 0.0
C336 C 0.10084 0.2257 0.98651 0.0
C337 C 0.10788 0.24346 0.97813 0.0
C338 C 0.25759 0.26045 0.95673 0.0
C339 C 0.2638 0.2161 0.01828 0.0
O340 O 0.33285 0.25167 1.00663 0.0
O341 O 0.31857 0.25684 0.05396 0.0
O342 O 0.22056 0.27338 0.03682 0.0
O343 O 0.26096 0.24862 0.06516 0.0
O344 O 0.25501 0.29166 1.0076 0.0
O345 O 0.19245 0.30117 0.99408 0.0
O346 O 0.14534 0.27922 1.00769 0.0
O347 O 0.16814 0.25831 0.96778 0.0
O348 O 0.26196 0.24954 0.98074 0.0
O349 O 0.2211 0.27392 0.9522 0.0
O350 O 0.22758 0.23146 0.01254 0.0
O351 O 0.29195 0.22142 0.01905 0.0
H352 H 0.39025 0.26392 0.99667 0.0
H353 H 0.39476 0.29894 0.991 0.0
H354 H 0.31189 0.32992 0.06226 0.0
H355 H 0.3069 0.29541 0.06762 0.0
H356 H 0.15039 0.24757 0.04247 0.0
H357 H 0.13715 0.21715 0.05748 0.0
H358 H 0.08854 0.21913 0.97011 0.0
H359 H 0.10064 0.2503 0.95566 0.0
Tb360 Tb 0.21616 1.00965 0.27469 0.0
Tb361 Tb 0.26596 0.01949 0.23616 0.0
C362 C 0.18435 0.99509 0.31122 0.0
C363 C 0.19282 0.97669 0.33305 0.0
C364 C 0.20445 0.95435 0.32348 0.0
C365 C 0.20647 0.93795 0.34375 0.0
C366 C 0.19692 0.9435 0.37401 0.0
C367 C 0.18683 0.96557 0.38382 0.0
C368 C 0.18458 0.98203 0.36349 0.0
C369 C 0.1843 0.05317 0.2578 0.0
C370 C 0.28345 0.01564 0.30377 0.0
C371 C 0.2969 0.0344 0.19945 0.0
C372 C 0.28798 0.05054 0.17448 0.0
C373 C 0.25935 0.07337 0.17693 0.0
C374 C 0.25569 0.08908 0.15486 0.0
C375 C 0.28049 0.08226 0.12988 0.0
C376 C 0.30772 0.05915 0.12682 0.0
C377 C 0.31148 0.04349 0.14896 0.0
C378 C 0.29832 0.97602 0.2533 0.0
C379 C 0.20038 1.01217 0.20702 0.0
O380 O 0.19021 0.98943 0.283 0.0
O381 O 0.1944 1.01047 0.31804 0.0
O382 O 0.21896 0.04045 0.26495 0.0
O383 O 0.16581 0.04195 0.26199 0.0
O384 O 0.26398 1.00418 0.30496 0.0
O385 O 0.28359 0.02641 0.27914 0.0
O386 O 0.28477 0.043 0.22603 0.0
O387 O 0.29336 0.01626 0.19462 0.0
O388 O 0.26349 0.98861 0.24631 0.0
O389 O 0.31661 0.98732 0.24854 0.0
O390 O 0.21861 0.02431 0.20589 0.0
O391 O 0.20122 1.00111 0.23161 0.0
H392 H 0.21082 0.94963 0.30016 0.0
H393 H 0.21494 0.92099 0.33563 0.0
H394 H 0.17911 0.97037 0.40697 0.0
H395 H 0.17505 0.99917 0.3714 0.0
H396 H 0.24079 0.07928 0.19642 0.0
H397 H 0.23461 0.10675 0.15813 0.0
H398 H 0.32677 0.05322 0.10763 0.0
H399 H 0.33375 0.02597 0.14662 0.0
Tb400 Tb 0.51318 0.26935 0.78178 0.0
Tb401 Tb 0.47151 0.25581 0.7391 0.0
C402 C 0.54514 0.2895 0.80731 0.0
C403 C 0.53993 0.30691 0.8295 0.0
C404 C 0.507 0.31759 0.84768 0.0
C405 C 0.50316 0.33455 0.86796 0.0
C406 C 0.53205 0.34112 0.87009 0.0
C407 C 0.56501 0.3301 0.85192 0.0
C408 C 0.56883 0.31322 0.83187 0.0
C409 C 0.54223 0.22457 0.77631 0.0
C410 C 0.44793 0.26247 0.80863 0.0
C411 C 0.44141 0.23491 0.71272 0.0
C412 C 0.44932 0.21745 0.68948 0.0
C413 C 0.45692 0.19558 0.69827 0.0
C414 C 0.45941 0.17966 0.67704 0.0
C415 C 0.45418 0.18523 0.64646 0.0
C416 C 0.448 0.20683 0.63748 0.0
C417 C 0.44538 0.22284 0.6588 0.0
C418 C 0.44264 0.30055 0.74403 0.0
C419 C 0.53721 0.26279 0.71236 0.0
O420 O 0.52502 0.29664 0.78267 0.0
O421 O 0.54724 0.27057 0.81711 0.0
O422 O 0.529 0.23905 0.75559 0.0
O423 O 0.54248 0.23491 0.80065 0.0
O424 O 0.46652 0.27427 0.81182 0.0
O425 O 0.44913 0.2523 0.78295 0.0
O426 O 0.46107 0.22802 0.7376 0.0
O427 O 0.43655 0.2548 0.7043 0.0
O428 O 0.45538 0.28631 0.76509 0.0
O429 O 0.4431 0.28995 0.71977 0.0
O430 O 0.51732 0.2518 0.70842 0.0
O431 O 0.53671 0.2723 0.7384 0.0
H432 H 0.48429 0.31296 0.846 0.0
H433 H 0.47731 0.34282 0.8815 0.0
H434 H 0.58811 0.33441 0.85331 0.0
H435 H 0.59447 0.30512 0.81803 0.0
H436 H 0.45982 0.19095 0.72173 0.0
H437 H 0.46484 0.16305 0.68465 0.0
H438 H 0.44367 0.21166 0.6141 0.0
H439 H 0.43913 0.23961 0.65127 0.0
Tb440 Tb 0.01535 0.76564 0.7796 0.0
Tb441 Tb 0.96936 0.75819 0.7366 0.0
C442 C 0.0391 0.77941 0.82337 0.0
C443 C 0.04271 0.79905 0.83419 0.0
C444 C 0.01743 0.82129 0.82473 0.0
C445 C 0.01805 0.83984 0.83865 0.0
C446 C 0.04391 0.83646 0.86229 0.0
C447 C 0.0701 0.81405 0.87079 0.0
C448 C 0.06946 0.79558 0.85687 0.0
C449 C 0.04822 0.72239 0.76122 0.0
C450 C 0.95152 0.7529 0.80159 0.0
C451 C 0.94326 0.74601 0.69256 0.0
C452 C 0.94679 0.72526 0.67797 0.0
C453 C 0.97887 0.71148 0.66003 0.0
C454 C 0.97972 0.69353 0.64356 0.0
C455 C 0.94854 0.68893 0.64461 0.0
C456 C 0.91698 0.7023 0.6632 0.0
C457 C 0.91603 0.72034 0.67957 0.0
C458 C 0.93713 0.80137 0.75548 0.0
C459 C 0.03534 0.76815 0.71476 0.0
O460 O 0.06121 0.76755 0.80128 0.0
O461 O 0.00406 0.7824 0.82078 0.0
O462 O 0.0129 0.73506 0.76653 0.0
O463 O 0.06638 0.73332 0.76843 0.0
O464 O 0.97041 0.76421 0.80741 0.0
O465 O 0.95364 0.74433 0.77472 0.0
O466 O 0.92663 0.7514 0.7187 0.0
O467 O 0.97288 0.74959 0.69117 0.0
O468 O 0.97213 0.78866 0.74949 0.0
O469 O 0.91881 0.79051 0.74867 0.0
O470 O 0.01912 0.75513 0.71085 0.0
O471 O 0.03026 0.77902 0.74034 0.0
H472 H -0.00352 0.82433 0.80726 0.0
H473 H -0.00215 0.85683 0.83122 0.0
H474 H 0.09005 0.81075 0.88911 0.0
H475 H 0.08895 0.77855 0.86467 0.0
H476 H 0.00301 0.71485 0.65812 0.0
H477 H 0.0047 0.68334 0.62977 0.0
H478 H 0.89235 0.69933 0.6643 0.0
H479 H 0.89071 0.73085 0.69285 0.0
Tb480 Tb 0.71598 0.50921 0.28339 0.0
Tb481 Tb 0.76152 0.51934 0.23939 0.0
C482 C 0.68858 0.49363 0.32224 0.0
C483 C 0.69799 0.47711 0.34683 0.0
C484 C 0.72714 0.45445 0.34398 0.0
C485 C 0.73041 0.43815 0.36502 0.0
C486 C 0.70464 0.4442 0.38934 0.0
C487 C 0.67701 0.46718 0.39299 0.0
C488 C 0.67368 0.48343 0.37189 0.0
C489 C 0.68259 0.55279 0.26706 0.0
C490 C 0.78714 0.51446 0.30581 0.0
C491 C 0.7886 0.53504 0.20039 0.0
C492 C 0.7785 0.5525 0.1769 0.0
C493 C 0.75209 0.57545 0.18229 0.0
C494 C 0.74894 0.59227 0.16224 0.0
C495 C 0.77199 0.58649 0.13633 0.0
C496 C 0.79654 0.5634 0.13005 0.0
C497 C 0.79985 0.54659 0.15023 0.0
C498 C 0.79475 0.47567 0.25558 0.0
C499 C 0.68996 0.51439 0.21713 0.0
O500 O 0.69857 0.48541 0.29523 0.0
O501 O 0.69316 0.51147 0.32675 0.0
O502 O 0.7182 0.53985 0.27118 0.0
O503 O 0.66458 0.54176 0.2744 0.0
O504 O 0.76581 0.50441 0.31037 0.0
O505 O 0.78611 0.52439 0.28011 0.0
O506 O 0.78114 0.54221 0.22803 0.0
O507 O 0.78198 0.51801 0.19534 0.0
O508 O 0.7592 0.48874 0.25147 0.0
O509 O 0.81281 0.48665 0.24811 0.0
O510 O 0.71141 0.52436 0.21256 0.0
O511 O 0.69096 0.50443 0.24277 0.0
H512 H 0.74628 0.4491 0.32484 0.0
H513 H 0.75188 0.42061 0.36134 0.0
H514 H 0.65722 0.47255 0.41174 0.0
H515 H 0.65094 0.5008 0.3745 0.0
H516 H 0.73511 0.58052 0.2026 0.0
H517 H 0.72928 0.60989 0.16745 0.0
H518 H 0.81481 0.55838 0.11039 0.0
H519 H 0.82061 0.52903 0.1457 0.0
Tb520 Tb 0.77591 0.7596 0.02032 0.0
Tb521 Tb 0.70324 0.76446 0.99182 0.0
C522 C 0.83622 0.762 0.0309 0.0
C523 C 0.84897 0.77831 0.02131 0.0
C524 C 0.83849 0.78885 0.99315 0.0
C525 C 0.84574 0.80674 0.986 0.0
C526 C 0.86336 0.8145 1.00695 0.0
C527 C 0.87517 0.80325 0.03465 0.0
C528 C 0.86801 0.78532 0.04174 0.0
C529 C 0.72175 0.76453 0.05851 0.0
C530 C 0.71486 0.80668 0.98929 0.0
C531 C 0.64262 0.76207 0.9833 0.0
C532 C 0.63042 0.7462 0.99565 0.0
C533 C 0.64234 0.73691 0.02436 0.0
C534 C 0.63578 0.71934 0.03433 0.0
C535 C 0.61759 0.71049 0.01563 0.0
C536 C 0.60436 0.72046 0.98731 0.0
C537 C 0.61073 0.73817 0.97745 0.0
C538 C 0.75809 0.7585 0.95366 0.0
C539 C 0.76512 0.71709 0.02144 0.0
O540 O 0.83388 0.74899 0.01005 0.0
O541 O 0.80615 0.77047 0.04861 0.0
O542 O 0.71638 0.77451 0.03353 0.0
O543 O 0.75844 0.75289 0.06368 0.0
O544 O 0.75025 0.79321 0.99916 0.0
O545 O 0.68863 0.79985 0.98741 0.0
O546 O 0.64504 0.77617 1.00238 0.0
O547 O 0.6725 0.75276 0.96543 0.0
O548 O 0.76279 0.7491 0.97898 0.0
O549 O 0.72146 0.77014 0.948 0.0
O550 O 0.7294 0.73068 0.0124 0.0
O551 O 0.79127 0.724 0.02326 0.0
H552 H 0.82353 0.78382 0.97703 0.0
H553 H 0.8367 0.81483 0.96434 0.0
H554 H 0.8883 0.80897 0.05148 0.0
H555 H 0.87592 0.77755 0.06368 0.0
H556 H 0.65806 0.74261 0.0387 0.0
H557 H 0.64592 0.71229 0.05638 0.0
H558 H 0.59081 0.71386 0.97211 0.0
H559 H 0.60177 0.74491 0.95509 0.0
Tb560 Tb 0.45407 0.01715 0.5228 0.0
Tb561 Tb 0.52831 1.00823 0.49323 0.0
C562 C 0.39185 0.01713 0.53313 0.0
C563 C 0.37888 1.00071 0.52445 0.0
C564 C 0.38475 0.99189 0.49523 0.0
C565 C 0.37811 0.97374 0.48846 0.0
C566 C 0.36596 0.96384 0.51086 0.0
C567 C 0.35864 0.97334 0.53978 0.0
C568 C 0.36493 0.99164 0.54645 0.0
C569 C 0.50946 1.01188 0.55982 0.0
C570 C 0.5142 0.96729 0.4982 0.0
C571 C 0.58864 1.01005 0.48145 0.0
C572 C 0.59515 0.02995 0.48337 0.0
C573 C 0.62386 0.0295 0.50232 0.0
C574 C 0.62646 0.04932 0.50746 0.0
C575 C 0.60023 0.06992 0.49384 0.0
C576 C 0.57242 0.07011 0.47412 0.0
C577 C 0.56983 0.05041 0.46898 0.0
C578 C 0.47255 0.01357 0.45644 0.0
C579 C 0.46909 0.05797 0.51928 0.0
O580 O 0.3961 0.0289 0.51141 0.0
O581 O 0.42071 1.00928 0.55206 0.0
O582 O 0.51351 1.00083 0.53596 0.0
O583 O 0.47304 0.02516 0.56481 0.0
O584 O 0.4783 0.98232 0.50536 0.0
O585 O 0.54185 0.97299 0.49611 0.0
O586 O 0.58309 1.00258 0.50708 0.0
O587 O 0.5642 1.01104 0.46093 0.0
O588 O 0.46889 0.02465 0.48018 0.0
O589 O 0.50886 1.0 0.45155 0.0
O590 O 0.50399 0.04329 0.50963 0.0
O591 O 0.44166 0.05224 0.52266 0.0
H592 H 0.3958 0.99843 0.47782 0.0
H593 H 0.38345 0.96712 0.46585 0.0
H594 H 0.34986 0.96597 0.55773 0.0
H595 H 0.36064 0.99801 0.56918 0.0
H596 H 0.64341 0.01402 0.51392 0.0
H597 H 0.64812 0.04871 0.52286 0.0
H598 H 0.55221 0.08563 0.46291 0.0
H599 H 0.54709 0.05147 0.45443 0.0
Tb600 Tb 0.44915 0.5192 0.02499 0.0
Tb601 Tb 0.52582 0.51113 0.99963 0.0
C602 C 0.38665 0.51903 0.03392 0.0
C603 C 0.37335 0.50249 0.02676 0.0
C604 C 0.38015 0.49197 0.99858 0.0
C605 C 0.3723 0.47399 0.99372 0.0
C606 C 0.35806 0.46598 0.01708 0.0
C607 C 0.35017 0.47714 0.04493 0.0
C608 C 0.35753 0.49526 0.04962 0.0
C609 C 0.50142 0.51417 0.06507 0.0
C610 C 0.51005 0.47028 0.99847 0.0
C611 C 0.58884 0.51112 0.99311 0.0
C612 C 0.60212 0.52666 1.00485 0.0
C613 C 0.58872 0.53746 0.03258 0.0
C614 C 0.59627 0.55487 0.04154 0.0
C615 C 0.61685 0.56208 0.02273 0.0
C616 C 0.63176 0.55047 0.99559 0.0
C617 C 0.62444 0.53291 0.98676 0.0
C618 C 0.47412 0.51587 0.95929 0.0
C619 C 0.46368 0.5604 0.02432 0.0
O620 O 0.39221 0.52967 0.01142 0.0
O621 O 0.41457 0.51192 0.0536 0.0
O622 O 0.5076 0.50342 0.04072 0.0
O623 O 0.46463 0.52703 0.06854 0.0
O624 O 0.47418 0.48481 1.00631 0.0
O625 O 0.53771 0.47607 0.99792 0.0
O626 O 0.5834 0.4985 0.01288 0.0
O627 O 0.5605 0.52031 0.9738 0.0
O628 O 0.46756 0.5266 0.98373 0.0
O629 O 0.51109 0.50364 0.95565 0.0
O630 O 0.49992 0.54574 0.01768 0.0
O631 O 0.43623 0.55447 0.02506 0.0
H632 H 0.39273 0.49707 0.98059 0.0
H633 H 0.37822 0.46608 0.97186 0.0
H634 H 0.33994 0.47128 0.06367 0.0
H635 H 0.35248 0.50299 0.07161 0.0
H636 H 0.571 0.53316 0.04678 0.0
H637 H 0.58479 0.56321 0.06274 0.0
H638 H 0.64724 0.55578 0.98035 0.0
H639 H 0.63464 0.52495 0.96514 0.0
H640 H 0.91703 0.08397 0.06005 0.0
H641 H 0.00621 0.08393 1.00408 0.0
H642 H 0.91031 0.11777 0.08583 0.0
H643 H -0.00234 0.11857 0.02859 0.0
H644 H 0.0139 0.15654 0.10894 0.0
H645 H 0.0152 0.12612 0.07829 0.0
H646 H 0.89081 0.15809 0.08178 0.0
H647 H 0.88956 0.18799 0.11348 0.0
C648 C 0.93446 0.09153 0.05272 0.0
C649 C 0.9623 0.08121 0.03017 0.0
C650 C 0.93062 0.11092 0.06749 0.0
C651 C 0.95419 0.12056 0.05973 0.0
C652 C 0.9803 0.11099 0.03591 0.0
C653 C 0.98471 0.09137 0.02157 0.0
C654 C 0.98683 0.15707 0.10322 0.0
C655 C 0.95165 0.17474 0.11374 0.0
C656 C 0.98753 0.13978 0.0853 0.0
C657 C 0.95308 0.1397 0.07742 0.0
C658 C 0.91788 0.15753 0.08757 0.0
C659 C 0.91717 0.17483 0.10548 0.0
H660 H 0.83237 0.22874 0.45022 0.0
H661 H 0.75281 0.29703 0.42212 0.0
H662 H 0.8816 0.22858 0.41638 0.0
H663 H 0.802 0.29707 0.38894 0.0
H664 H 0.91283 0.29423 0.35028 0.0
H665 H 0.87059 0.2941 0.39055 0.0
H666 H 0.88334 0.23031 0.35795 0.0
H667 H 0.92476 0.2306 0.3176 0.0
C668 C 0.82563 0.24375 0.43706 0.0
C669 C 0.78877 0.26278 0.43848 0.0
C670 C 0.85369 0.24368 0.41773 0.0
C671 C 0.84559 0.26282 0.40002 0.0
C672 C 0.80916 0.28215 0.40243 0.0
C673 C 0.78092 0.28203 0.4212 0.0
C674 C 0.90687 0.2801 0.35192 0.0
C675 C 0.9219 0.26251 0.33064 0.0
C676 C 0.88265 0.28006 0.37488 0.0
C677 C 0.87375 0.26216 0.37739 0.0
C678 C 0.88995 0.24421 0.35675 0.0
C679 C 0.91344 0.24448 0.33351 0.0
H680 H 0.81008 0.11776 0.6576 0.0
H681 H 0.75278 0.09889 0.58981 0.0
H682 H 0.80733 0.14766 0.62519 0.0
H683 H 0.75016 0.12882 0.55719 0.0
H684 H 0.7126 0.20202 0.5248 0.0
H685 H 0.71879 0.16952 0.55315 0.0
H686 H 0.83397 0.15391 0.57971 0.0
H687 H 0.82738 0.18699 0.55216 0.0
C688 C 0.79718 0.11987 0.63564 0.0
C689 C 0.78176 0.10586 0.62628 0.0
C690 C 0.79576 0.13697 0.61698 0.0
C691 C 0.77889 0.14055 0.58842 0.0
C692 C 0.76312 0.12667 0.57913 0.0
C693 C 0.7645 0.10955 0.59786 0.0
C694 C 0.73946 0.19156 0.53639 0.0
C695 C 0.76935 0.19731 0.53639 0.0
C696 C 0.74305 0.1728 0.55252 0.0
C697 C 0.77668 0.1592 0.56896 0.0
C698 C 0.80735 0.16427 0.56776 0.0
C699 C 0.80373 0.18312 0.55167 0.0
H700 H 0.98295 0.9845 0.91257 0.0
H701 H 0.90046 0.04973 0.94816 0.0
H702 H 0.93256 0.98393 0.8813 0.0
H703 H 0.85002 0.04942 0.91623 0.0
H704 H 0.79902 0.05034 0.81918 0.0
H705 H 0.84286 0.05057 0.85759 0.0
H706 H 0.86619 0.98376 0.88635 0.0
H707 H 0.8215 0.98369 0.84816 0.0
C708 C 0.95397 0.99871 0.9137 0.0
C709 C 0.94561 0.01728 0.93254 0.0
C710 C 0.92508 0.99828 0.896 0.0
C711 C 0.88739 0.01665 0.89625 0.0
C712 C 0.87888 0.03508 0.9155 0.0
C713 C 0.90764 0.03525 0.93376 0.0
C714 C 0.81312 0.0358 0.83392 0.0
C715 C 0.80686 0.01697 0.83059 0.0
C716 C 0.83805 0.036 0.85602 0.0
C717 C 0.85796 0.01719 0.87495 0.0
C718 C 0.85127 0.99848 0.872 0.0
C719 C 0.82561 0.99848 0.85026 0.0
H720 H 0.09076 0.97793 0.05871 0.0
H721 H 0.00798 0.04429 0.09092 0.0
H722 H 0.13954 0.97801 0.09292 0.0
H723 H 0.05675 0.04466 0.12427 0.0
H724 H 0.16696 0.04361 0.16213 0.0
H725 H 0.12508 0.04329 0.1217 0.0
H726 H 0.14108 0.9784 0.15263 0.0
H727 H 0.18202 0.97892 0.19332 0.0
C728 C 0.08321 0.9926 0.0728 0.0
C729 C 0.04556 1.01097 0.07247 0.0
C730 C 0.11101 0.99265 0.09236 0.0
C731 C 0.10189 1.01134 0.11127 0.0
C732 C 0.06467 0.03009 0.10988 0.0
C733 C 0.0367 0.02979 0.09096 0.0
C734 C 0.16183 0.02919 0.16009 0.0
C735 C 0.17763 1.01135 0.18102 0.0
C736 C 0.13781 0.02904 0.13703 0.0
C737 C 0.12993 1.01078 0.13399 0.0
C738 C 0.14692 0.99258 0.15424 0.0
C739 C 0.17014 0.99298 0.17766 0.0
H740 H 0.98832 0.44006 0.5096 0.0
H741 H 0.07539 0.44094 0.45198 0.0
H742 H -0.00529 0.40642 0.48381 0.0
H743 H 0.08107 0.40753 0.42563 0.0
H744 H 0.03379 0.37374 0.36003 0.0
H745 H 0.03766 0.40232 0.39122 0.0
H746 H 0.03405 0.36654 0.47053 0.0
H747 H 0.02921 0.33811 0.43914 0.0
C748 C 0.00928 0.43283 0.4917 0.0
C749 C 0.03127 0.44318 0.48272 0.0
C750 C 0.01281 0.4136 0.47685 0.0
C751 C 0.03761 0.40465 0.45216 0.0
C752 C 0.06113 0.41429 0.44422 0.0
C753 C 0.0582 0.43327 0.4595 0.0
C754 C 0.03348 0.37206 0.38412 0.0
C755 C 0.0309 0.35374 0.3971 0.0
C756 C 0.03634 0.38825 0.40202 0.0
C757 C 0.03658 0.38661 0.43339 0.0
C758 C 0.0339 0.36832 0.44643 0.0
C759 C 0.03128 0.35199 0.42847 0.0
H760 H 0.7382 0.23742 0.60929 0.0
H761 H 0.64695 0.29239 0.56025 0.0
H762 H 0.69084 0.23678 0.64373 0.0
H763 H 0.59906 0.29099 0.59427 0.0
H764 H 0.53441 0.25651 0.65158 0.0
H765 H 0.57808 0.25755 0.61295 0.0
H766 H 0.64227 0.27059 0.68109 0.0
H767 H 0.59874 0.27009 0.71931 0.0
C768 C 0.70795 0.24926 0.60568 0.0
C769 C 0.69628 0.2649 0.58193 0.0
C770 C 0.68087 0.24879 0.62535 0.0
C771 C 0.64136 0.26375 0.62155 0.0
C772 C 0.62938 0.2791 0.59743 0.0
C773 C 0.6567 0.27986 0.57796 0.0
C774 C 0.5578 0.25965 0.65822 0.0
C775 C 0.5631 0.26319 0.68852 0.0
C776 C 0.58256 0.26038 0.63614 0.0
C777 C 0.61347 0.26415 0.64413 0.0
C778 C 0.61872 0.2676 0.67436 0.0
C779 C 0.59368 0.26735 0.69622 0.0
H780 H 0.69418 0.90315 0.85501 0.0
H781 H 0.7087 0.93421 0.93515 0.0
H782 H 0.69322 0.87308 0.88506 0.0
H783 H 0.70661 0.90447 0.96535 0.0
H784 H 0.75236 0.8309 1.00132 0.0
H785 H 0.74601 0.86438 0.97518 0.0
H786 H 0.65396 0.86596 0.92147 0.0
H787 H 0.65999 0.83247 0.94788 0.0
C788 C 0.6973 0.90352 0.87905 0.0
C789 C 0.70174 0.92104 0.89264 0.0
C790 C 0.69614 0.88647 0.89634 0.0
C791 C 0.69953 0.88642 0.92768 0.0
C792 C 0.70406 0.90391 0.94128 0.0
C793 C 0.70504 0.92105 0.92398 0.0
C794 C 0.73034 0.83857 0.98424 0.0
C795 C 0.70675 0.82896 0.97662 0.0
C796 C 0.72676 0.85778 0.96924 0.0
C797 C 0.70004 0.86762 0.94584 0.0
C798 C 0.67533 0.85856 0.93903 0.0
C799 C 0.67848 0.83952 0.95439 0.0
H800 H 0.15077 0.29725 0.06683 0.0
H801 H 0.22771 0.2289 0.0963 0.0
H802 H 0.10002 0.29835 0.09971 0.0
H803 H 0.177 0.22981 0.12861 0.0
H804 H 0.0642 0.23406 0.16477 0.0
H805 H 0.10839 0.23336 0.12561 0.0
H806 H 0.09531 0.29736 0.15767 0.0
H807 H 0.05186 0.29792 0.1969 0.0
C808 C 0.15664 0.28244 0.08013 0.0
C809 C 0.19318 0.2631 0.07931 0.0
C810 C 0.12771 0.28305 0.09892 0.0
C811 C 0.13458 0.26415 0.11672 0.0
C812 C 0.17076 0.24455 0.11502 0.0
C813 C 0.19988 0.24412 0.09675 0.0
C814 C 0.07045 0.24808 0.16321 0.0
C815 C 0.05471 0.26597 0.18402 0.0
C816 C 0.09584 0.24763 0.1409 0.0
C817 C 0.10527 0.26532 0.1386 0.0
C818 C 0.08834 0.2836 0.15872 0.0
C819 C 0.06366 0.28382 0.18131 0.0
H820 H 0.64245 0.4418 0.41258 0.0
H821 H 0.76715 0.40607 0.41141 0.0
H822 H 0.64241 0.4117 0.44308 0.0
H823 H 0.76695 0.37542 0.44043 0.0
H824 H 0.75924 0.33113 0.51175 0.0
H825 H 0.75272 0.36607 0.48975 0.0
H826 H 0.65661 0.37254 0.43667 0.0
H827 H 0.66172 0.33826 0.45994 0.0
C828 C 0.6699 0.42767 0.41909 0.0
C829 C 0.70484 0.42644 0.40953 0.0
C830 C 0.66982 0.41025 0.43628 0.0
C831 C 0.70467 0.39112 0.4443 0.0
C832 C 0.7396 0.39008 0.43518 0.0
C833 C 0.7397 0.40753 0.41812 0.0
C834 C 0.73625 0.34024 0.49578 0.0
C835 C 0.71101 0.33191 0.48753 0.0
C836 C 0.73289 0.36008 0.48287 0.0
C837 C 0.70484 0.37179 0.46088 0.0
C838 C 0.67845 0.36403 0.45364 0.0
C839 C 0.68138 0.34436 0.46696 0.0
H840 H 0.50527 0.04598 0.59479 0.0
H841 H 0.58407 0.97772 0.56619 0.0
H842 H 0.55475 0.04564 0.62796 0.0
H843 H 0.63361 0.97716 0.6001 0.0
H844 H 0.67867 0.97877 0.69855 0.0
H845 H 0.63653 0.97863 0.65862 0.0
H846 H 0.62317 0.04257 0.62605 0.0
H847 H 0.66612 0.04253 0.66579 0.0
C848 C 0.53329 0.03091 0.59556 0.0
C849 C 0.54078 1.01178 0.57815 0.0
C850 C 0.5617 0.03079 0.61439 0.0
C851 C 0.59802 1.01136 0.61673 0.0
C852 C 0.6058 0.99234 0.59885 0.0
C853 C 0.57757 0.99265 0.57944 0.0
C854 C 0.66707 0.99271 0.68272 0.0
C855 C 0.67563 1.01072 0.68543 0.0
C856 C 0.64314 0.99253 0.65972 0.0
C857 C 0.62654 1.01058 0.63919 0.0
C858 C 0.63549 0.02846 0.6416 0.0
C859 C 0.66015 0.0284 0.66428 0.0
H860 H 0.07916 0.94352 0.94556 0.0
H861 H 0.97904 0.94676 0.9892 0.0
H862 H 0.08579 0.91143 0.91569 0.0
H863 H 0.98626 0.91439 0.95979 0.0
H864 H 0.97971 0.87567 0.87908 0.0
H865 H 0.9765 0.90671 0.90924 0.0
H866 H 0.10088 0.87217 0.916 0.0
H867 H 0.10417 0.84159 0.88457 0.0
C868 C 0.05904 0.9371 0.94927 0.0
C869 C 0.02842 0.94783 0.9697 0.0
C870 C 0.06281 0.91869 0.93207 0.0
C871 C 0.03616 0.91051 0.93499 0.0
C872 C 0.00662 0.92063 0.9564 0.0
C873 C 0.00272 0.93908 0.97347 0.0
C874 C 0.00644 0.87485 0.88651 0.0
C875 C 0.0422 0.85606 0.87932 0.0
C876 C 0.00459 0.89252 0.90426 0.0
C877 C 0.03843 0.89188 0.9154 0.0
C878 C 0.07424 0.87332 0.90773 0.0
C879 C 0.07609 0.85565 0.88992 0.0
H880 H 0.1773 0.07549 1.0019 0.0
H881 H 0.06283 0.10238 0.03903 0.0
H882 H 0.17436 0.11244 0.00877 0.0
H883 H 0.05979 0.1393 0.04578 0.0
H884 H 0.16589 0.17806 0.0443 0.0
H885 H 0.1684 0.14113 0.04922 0.0
H886 H 0.05704 0.16807 1.00653 0.0
H887 H 0.05462 0.20501 1.0014 0.0
C888 C 0.15167 0.08921 0.01178 0.0
C889 C 0.11999 0.08613 0.01948 0.0
C890 C 0.1501 0.11029 0.01593 0.0
C891 C 0.11667 0.12875 0.02754 0.0
C892 C 0.08573 0.12541 0.0365 0.0
C893 C 0.08755 0.10425 0.03276 0.0
C894 C 0.14174 0.1762 0.03633 0.0
C895 C 0.11043 0.19435 0.02195 0.0
C896 C 0.14327 0.15505 0.03906 0.0
C897 C 0.11312 0.15173 0.02801 0.0
C898 C 0.08068 0.1702 0.01529 0.0
C899 C 0.07943 0.19128 0.01214 0.0
H900 H 0.71462 0.58027 0.25382 0.0
H901 H 0.60634 0.58256 0.27474 0.0
H902 H 0.68189 0.62164 0.24969 0.0
H903 H 0.57395 0.62372 0.27327 0.0
H904 H 0.51496 0.69846 0.25134 0.0
H905 H 0.54792 0.65707 0.24821 0.0
H906 H 0.65491 0.65542 0.27381 0.0
H907 H 0.62233 0.69662 0.2744 0.0
C908 C 0.68381 0.58965 0.2576 0.0
C909 C 0.66316 0.57805 0.26437 0.0
C910 C 0.66486 0.61354 0.25567 0.0
C911 C 0.62479 0.6266 0.26126 0.0
C912 C 0.60442 0.61472 0.26809 0.0
C913 C 0.6232 0.59091 0.26928 0.0
C914 C 0.5456 0.68917 0.25588 0.0
C915 C 0.56592 0.70091 0.26299 0.0
C916 C 0.56468 0.66528 0.25448 0.0
C917 C 0.60454 0.65233 0.26094 0.0
C918 C 0.62462 0.66433 0.26802 0.0
C919 C 0.60573 0.68816 0.26868 0.0
H920 H 0.43169 0.82136 0.50594 0.0
H921 H 0.30814 0.85409 0.49599 0.0
H922 H 0.42943 0.85853 0.50362 0.0
H923 H 0.30566 0.89099 0.49216 0.0
H924 H 0.31319 0.95185 0.53241 0.0
H925 H 0.31484 0.91527 0.52775 0.0
H926 H 0.41488 0.89135 0.47043 0.0
H927 H 0.41376 0.92784 0.47569 0.0
C928 C 0.40419 0.83649 0.50264 0.0
C929 C 0.37008 0.83495 0.50047 0.0
C930 C 0.40286 0.8577 0.50109 0.0
C931 C 0.36733 0.87769 0.49768 0.0
C932 C 0.33343 0.87596 0.49496 0.0
C933 C 0.33484 0.85484 0.49655 0.0
C934 C 0.33557 0.93882 0.51882 0.0
C935 C 0.36381 0.94267 0.50489 0.0
C936 C 0.33628 0.91791 0.51588 0.0
C937 C 0.36521 0.90036 0.4989 0.0
C938 C 0.39259 0.90444 0.48403 0.0
C939 C 0.39174 0.92542 0.48687 0.0
H940 H 0.12252 0.69425 0.74462 0.0
H941 H 0.01793 0.69355 0.77027 0.0
H942 H 0.15605 0.65293 0.74121 0.0
H943 H 0.0517 0.65213 0.76876 0.0
H944 H 0.11242 0.57757 0.74603 0.0
H945 H 0.0791 0.61886 0.74228 0.0
H946 H 0.18438 0.61948 0.76738 0.0
H947 H 0.21787 0.57807 0.76934 0.0
C948 C 0.10671 0.68519 0.74967 0.0
C949 C 0.06757 0.6972 0.75778 0.0
C950 C 0.12609 0.66136 0.74801 0.0
C951 C 0.1071 0.6487 0.75498 0.0
C952 C 0.06757 0.66093 0.7627 0.0
C953 C 0.04804 0.68482 0.7638 0.0
C954 C 0.12849 0.58658 0.75041 0.0
C955 C 0.16777 0.57452 0.75806 0.0
C956 C 0.10923 0.6104 0.7486 0.0
C957 C 0.1285 0.62301 0.75491 0.0
C958 C 0.16824 0.61072 0.76192 0.0
C959 C 0.18764 0.58683 0.76324 0.0
H960 H 0.81744 0.34846 0.47328 0.0
H961 H 0.93147 0.31886 0.51195 0.0
H962 H 0.81748 0.38457 0.46728 0.0
H963 H 0.93134 0.3551 0.50631 0.0
H964 H 0.81363 0.44934 0.51075 0.0
H965 H 0.81425 0.41302 0.50476 0.0
H966 H 0.9299 0.38342 0.46902 0.0
H967 H 0.92941 0.41963 0.4753 0.0
C968 C 0.84273 0.34956 0.48007 0.0
C969 C 0.87418 0.33088 0.49347 0.0
C970 C 0.84264 0.37028 0.47682 0.0
C971 C 0.87423 0.37271 0.48659 0.0
C972 C 0.90661 0.35371 0.49847 0.0
C973 C 0.90654 0.33302 0.50197 0.0
C974 C 0.83908 0.43514 0.50142 0.0
C975 C 0.87176 0.43729 0.49402 0.0
C976 C 0.8393 0.41439 0.49772 0.0
C977 C 0.87229 0.39533 0.4867 0.0
C978 C 0.90426 0.39775 0.47793 0.0
C979 C 0.90387 0.41855 0.48137 0.0
H980 H 0.37423 0.94601 0.24411 0.0
H981 H 0.26644 0.94894 0.26864 0.0
H982 H 0.40621 0.90482 0.2458 0.0
H983 H 0.29875 0.90754 0.2726 0.0
H984 H 0.35648 0.8326 0.24746 0.0
H985 H 0.32441 0.87382 0.24799 0.0
H986 H 0.43246 0.87159 0.27151 0.0
H987 H 0.46482 0.8302 0.26855 0.0
C988 C 0.35743 0.93779 0.25033 0.0
C989 C 0.31768 0.95079 0.25603 0.0
C990 C 0.37593 0.91398 0.25163 0.0
C991 C 0.35551 0.90229 0.25937 0.0
C992 C 0.31571 0.91552 0.26584 0.0
C993 C 0.29703 0.93939 0.26386 0.0
C994 C 0.3734 0.84094 0.25272 0.0
C995 C 0.41331 0.82804 0.25787 0.0
C996 C 0.35484 0.86477 0.25334 0.0
C997 C 0.3754 0.87659 0.25979 0.0
C998 C 0.41536 0.8635 0.26574 0.0
C999 C 0.43407 0.83961 0.26442 0.0
H1000 H 0.36357 0.44268 0.71418 0.0
H1001 H 0.28457 0.44635 0.78327 0.0
H1002 H 0.3964 0.40156 0.71677 0.0
H1003 H 0.31795 0.40431 0.7859 0.0
H1004 H 0.42296 0.327 0.79541 0.0
H1005 H 0.38673 0.36885 0.79845 0.0
H1006 H 0.3774 0.37244 0.70216 0.0
H1007 H 0.4131 0.33122 0.69917 0.0
C1008 C 0.35311 0.43466 0.73003 0.0
C1009 C 0.32106 0.44784 0.74829 0.0
C1010 C 0.37199 0.41098 0.73143 0.0
C1011 C 0.35968 0.39951 0.75128 0.0
C1012 C 0.3282 0.41261 0.77034 0.0
C1013 C 0.30889 0.43661 0.76872 0.0
C1014 C 0.41304 0.33682 0.77497 0.0
C1015 C 0.42108 0.32577 0.74701 0.0
C1016 C 0.39205 0.36075 0.77672 0.0
C1017 C 0.37922 0.37405 0.75053 0.0
C1018 C 0.3871 0.36282 0.72277 0.0
C1019 C 0.4076 0.33911 0.72105 0.0
H1020 H 0.22782 0.73713 0.59829 0.0
H1021 H 0.14884 0.8062 0.57284 0.0
H1022 H 0.17997 0.73726 0.63301 0.0
H1023 H 0.10092 0.80655 0.60849 0.0
H1024 H 0.05793 0.80073 0.70755 0.0
H1025 H 0.10009 0.80257 0.66851 0.0
H1026 H 0.1108 0.7411 0.62912 0.0
H1027 H 0.06823 0.73944 0.66759 0.0
C1028 C 0.20015 0.75238 0.60018 0.0
C1029 C 0.19205 0.77171 0.58302 0.0
C1030 C 0.17272 0.7524 0.61995 0.0
C1031 C 0.13679 0.77194 0.62355 0.0
C1032 C 0.1285 0.79131 0.60626 0.0
C1033 C 0.15574 0.79109 0.58584 0.0
C1034 C 0.06909 0.78771 0.69044 0.0
C1035 C 0.05983 0.7699 0.69075 0.0
C1036 C 0.09298 0.78885 0.668 0.0
C1037 C 0.10871 0.77197 0.6458 0.0
C1038 C 0.09917 0.7543 0.646 0.0
C1039 C 0.07474 0.7534 0.66802 0.0
H1040 H 0.16598 0.9154 0.36427 0.0
H1041 H 0.22548 0.93349 0.43108 0.0
H1042 H 0.16625 0.8866 0.39781 0.0
H1043 H 0.22515 0.90492 0.4649 0.0
H1044 H 0.26614 0.83028 0.49319 0.0
H1045 H 0.25835 0.86303 0.46442 0.0
H1046 H 0.13992 0.88119 0.44623 0.0
H1047 H 0.14798 0.84765 0.47378 0.0
C1048 C 0.17906 0.91323 0.38616 0.0
C1049 C 0.19606 0.92655 0.39494 0.0
C1050 C 0.17872 0.89697 0.40552 0.0
C1051 C 0.19561 0.89353 0.43402 0.0
C1052 C 0.21204 0.90712 0.44301 0.0
C1053 C 0.2121 0.92353 0.42372 0.0
C1054 C 0.23826 0.84133 0.48342 0.0
C1055 C 0.2078 0.83618 0.48564 0.0
C1056 C 0.23376 0.86026 0.46728 0.0
C1057 C 0.1986 0.87474 0.45336 0.0
C1058 C 0.1675 0.87022 0.4566 0.0
C1059 C 0.17204 0.85113 0.47262 0.0
H1060 H 0.97 0.67965 0.58599 0.0
H1061 H 0.92635 0.65733 0.66007 0.0
H1062 H 0.97043 0.64981 0.55471 0.0
H1063 H 0.92734 0.62716 0.62894 0.0
H1064 H 0.90716 0.58462 0.5598 0.0
H1065 H 0.89867 0.61842 0.58676 0.0
H1066 H 0.00598 0.60978 0.54989 0.0
H1067 H 0.01374 0.57677 0.5223 0.0
C1068 C 0.96078 0.66823 0.59567 0.0
C1069 C 0.94842 0.67076 0.62559 0.0
C1070 C 0.96096 0.65112 0.57772 0.0
C1071 C 0.949 0.63598 0.58927 0.0
C1072 C 0.93614 0.63872 0.61911 0.0
C1073 C 0.93575 0.65594 0.63703 0.0
C1074 C 0.92852 0.59023 0.55698 0.0
C1075 C 0.96123 0.57788 0.53898 0.0
C1076 C 0.92388 0.60946 0.57272 0.0
C1077 C 0.95184 0.61675 0.57075 0.0
C1078 C 0.98368 0.60486 0.55177 0.0
C1079 C 0.98826 0.58576 0.53605 0.0
H1080 H 0.32541 0.73154 0.4501 0.0
H1081 H 0.24857 0.80052 0.42294 0.0
H1082 H 0.37498 0.73043 0.41575 0.0
H1083 H 0.29818 0.79963 0.38937 0.0
H1084 H 0.41214 0.79441 0.35252 0.0
H1085 H 0.36842 0.79489 0.3919 0.0
H1086 H 0.37622 0.73297 0.35662 0.0
H1087 H 0.41911 0.73269 0.31699 0.0
C1088 C 0.31934 0.74649 0.43703 0.0
C1089 C 0.2831 0.76601 0.43889 0.0
C1090 C 0.34758 0.74587 0.41739 0.0
C1091 C 0.34039 0.76494 0.39985 0.0
C1092 C 0.30462 0.78472 0.40267 0.0
C1093 C 0.27614 0.78515 0.4217 0.0
C1094 C 0.40472 0.78083 0.3533 0.0
C1095 C 0.41892 0.76359 0.33151 0.0
C1096 C 0.37964 0.78114 0.37578 0.0
C1097 C 0.369 0.76393 0.37736 0.0
C1098 C 0.38416 0.74634 0.35613 0.0
C1099 C 0.40851 0.74629 0.33331 0.0
H1100 H 0.34199 0.08358 0.10342 0.0
H1101 H 0.21741 0.12004 0.1078 0.0
H1102 H 0.34126 0.11299 0.07105 0.0
H1103 H 0.21693 0.15007 0.07695 0.0
H1104 H 0.22192 0.19461 1.00517 0.0
H1105 H 0.22937 0.1593 0.02684 0.0
H1106 H 0.32811 0.15187 0.07711 0.0
H1107 H 0.32231 0.18627 0.05395 0.0
C1108 C 0.31438 0.0977 0.09719 0.0
C1109 C 0.27973 0.0994 0.10829 0.0
C1110 C 0.31404 0.11472 0.07891 0.0
C1111 C 0.27904 0.13391 0.07135 0.0
C1112 C 0.24435 0.13534 0.08183 0.0
C1113 C 0.24466 0.11827 0.09996 0.0
C1114 C 0.24568 0.18517 0.0204 0.0
C1115 C 0.27148 0.19324 0.02794 0.0
C1116 C 0.24957 0.16515 0.03313 0.0
C1117 C 0.2786 0.15312 0.05433 0.0
C1118 C 0.30552 0.16063 0.06075 0.0
C1119 C 0.30216 0.18039 0.04751 0.0
H1120 H 0.83698 0.73176 0.9587 0.0
H1121 H 0.74812 0.77933 0.90002 0.0
H1122 H 0.88647 0.72904 0.92307 0.0
H1123 H 0.79717 0.77575 0.86403 0.0
H1124 H 0.89376 0.74201 0.79381 0.0
H1125 H 0.84888 0.74192 0.83144 0.0
H1126 H 0.90815 0.75859 0.89989 0.0
H1127 H 0.95278 0.75914 0.86216 0.0
C1128 C 0.82805 0.74177 0.93842 0.0
C1129 C 0.7887 0.75602 0.93241 0.0
C1130 C 0.85631 0.74008 0.91795 0.0
C1131 C 0.8456 0.75212 0.89076 0.0
C1132 C 0.80625 0.76612 0.88468 0.0
C1133 C 0.77819 0.76818 0.90534 0.0
C1134 C 0.89756 0.74541 0.81692 0.0
C1135 C 0.92679 0.75065 0.82495 0.0
C1136 C 0.87174 0.74545 0.83842 0.0
C1137 C 0.875 0.7503 0.86855 0.0
C1138 C 0.90513 0.75467 0.87686 0.0
C1139 C 0.93054 0.75507 0.85522 0.0
H1140 H 0.32586 0.59136 0.60509 0.0
H1141 H 0.21311 0.63801 0.6399 0.0
H1142 H 0.32373 0.62121 0.57274 0.0
H1143 H 0.21172 0.6681 0.60853 0.0
H1144 H 0.20208 0.71121 0.52937 0.0
H1145 H 0.20624 0.67906 0.55691 0.0
H1146 H 0.32631 0.65679 0.57597 0.0
H1147 H 0.32233 0.68917 0.54798 0.0
C1148 C 0.3005 0.60795 0.60571 0.0
C1149 C 0.26952 0.61227 0.62498 0.0
C1150 C 0.29953 0.62513 0.58743 0.0
C1151 C 0.26757 0.64702 0.58798 0.0
C1152 C 0.23657 0.65132 0.60722 0.0
C1153 C 0.23753 0.63415 0.62548 0.0
C1154 C 0.2297 0.69927 0.53877 0.0
C1155 C 0.26195 0.70281 0.53631 0.0
C1156 C 0.23192 0.6809 0.55488 0.0
C1157 C 0.26647 0.66544 0.56884 0.0
C1158 C 0.29929 0.66832 0.56529 0.0
C1159 C 0.29702 0.68688 0.54925 0.0
H1160 H 0.31443 0.98454 0.34943 0.0
H1161 H 0.30515 0.04756 0.31679 0.0
H1162 H 0.35685 0.98413 0.38991 0.0
H1163 H 0.34671 0.04734 0.3574 0.0
H1164 H 0.39838 0.0482 0.44974 0.0
H1165 H 0.3486 0.04909 0.41582 0.0
H1166 H 0.42597 0.98011 0.38892 0.0
H1167 H 0.47571 0.97944 0.42211 0.0
C1168 C 0.32098 0.99844 0.35113 0.0
C1169 C 0.30662 0.016 0.32978 0.0
C1170 C 0.34532 0.99817 0.37423 0.0
C1171 C 0.35504 0.01573 0.37686 0.0
C1172 C 0.33948 0.03368 0.35615 0.0
C1173 C 0.3159 0.03371 0.33275 0.0
C1174 C 0.4045 0.03322 0.43672 0.0
C1175 C 0.44098 0.01386 0.43824 0.0
C1176 C 0.37612 0.03372 0.41731 0.0
C1177 C 0.38343 0.01467 0.39965 0.0
C1178 C 0.41938 0.99499 0.40232 0.0
C1179 C 0.44794 0.99469 0.42114 0.0
H1180 H 0.81084 0.8536 0.97951 0.0
H1181 H 0.92322 0.82266 0.02122 0.0
H1182 H 0.81284 0.88915 0.97429 0.0
H1183 H 0.92485 0.85843 0.0167 0.0
H1184 H 0.92926 0.92088 0.98412 0.0
H1185 H 0.92797 0.885 0.98021 0.0
H1186 H 0.80922 0.91841 0.00966 0.0
H1187 H 0.81031 0.95447 0.01267 0.0
C1188 C 0.83616 0.85429 0.98725 0.0
C1189 C 0.86667 0.83532 1.00103 0.0
C1190 C 0.83715 0.87474 0.98452 0.0
C1191 C 0.86884 0.87665 0.99531 0.0
C1192 C 0.90008 0.85745 1.00801 0.0
C1193 C 0.89899 0.83702 0.01087 0.0
C1194 C 0.90265 0.92066 0.98904 0.0
C1195 C 0.86988 0.94049 0.99857 0.0
C1196 C 0.90204 0.90006 0.98718 0.0
C1197 C 0.86857 0.89885 0.99477 0.0
C1198 C 0.83537 0.91883 1.00341 0.0
C1199 C 0.83605 0.93944 1.00538 0.0
H1200 H 0.55147 0.20903 0.48293 0.0
H1201 H 0.65751 0.17787 0.5337 0.0
H1202 H 0.54905 0.17353 0.48414 0.0
H1203 H 0.65391 0.14274 0.53654 0.0
H1204 H 0.66312 0.07673 0.49667 0.0
H1205 H 0.66362 0.11266 0.50342 0.0
H1206 H 0.53951 0.1473 0.51349 0.0
H1207 H 0.53907 0.11155 0.50554 0.0
C1208 C 0.57404 0.19469 0.49469 0.0
C1209 C 0.60495 0.19627 0.50791 0.0
C1210 C 0.5724 0.17437 0.49574 0.0
C1211 C 0.60145 0.15515 0.51028 0.0
C1212 C 0.63139 0.15706 0.52471 0.0
C1213 C 0.63316 0.17734 0.52346 0.0
C1214 C 0.63606 0.092 0.50068 0.0
C1215 C 0.60106 0.09135 0.50038 0.0
C1216 C 0.63629 0.11261 0.50469 0.0
C1217 C 0.60154 0.13296 0.50882 0.0
C1218 C 0.56672 0.13208 0.50973 0.0
C1219 C 0.56647 0.11156 0.50533 0.0
H1220 H 0.86996 0.44581 0.24392 0.0
H1221 H 0.76344 0.44814 0.27099 0.0
H1222 H 0.90199 0.40468 0.24417 0.0
H1223 H 0.79606 0.4067 0.27383 0.0
H1224 H 0.85348 0.3318 0.248 0.0
H1225 H 0.82092 0.37305 0.24944 0.0
H1226 H 0.92997 0.3711 0.26826 0.0
H1227 H 0.96256 0.3298 0.2641 0.0
C1228 C 0.85344 0.43747 0.25047 0.0
C1229 C 0.81402 0.45035 0.25743 0.0
C1230 C 0.87206 0.41365 0.25095 0.0
C1231 C 0.85216 0.40175 0.25916 0.0
C1232 C 0.81266 0.41482 0.26675 0.0
C1233 C 0.79379 0.43875 0.26553 0.0
C1234 C 0.87049 0.34023 0.25239 0.0
C1235 C 0.91072 0.32746 0.25592 0.0
C1236 C 0.85166 0.36408 0.25354 0.0
C1237 C 0.87232 0.37601 0.25896 0.0
C1238 C 0.91266 0.36299 0.26328 0.0
C1239 C 0.93158 0.33913 0.26135 0.0
H1240 H 0.06863 0.60392 0.53448 0.0
H1241 H 0.17427 0.57423 0.48314 0.0
H1242 H 0.07137 0.6393 0.53821 0.0
H1243 H 0.17571 0.60996 0.48513 0.0
H1244 H 0.18545 0.67157 0.50831 0.0
H1245 H 0.18537 0.63562 0.51485 0.0
H1246 H 0.06098 0.67034 0.50697 0.0
H1247 H 0.06117 0.7065 0.50185 0.0
C1248 C 0.09266 0.60483 0.52423 0.0
C1249 C 0.12106 0.58622 0.5083 0.0
C1250 C 0.09393 0.62527 0.526 0.0
C1251 C 0.12352 0.62766 0.51172 0.0
C1252 C 0.15264 0.60877 0.49668 0.0
C1253 C 0.15153 0.58831 0.49516 0.0
C1254 C 0.15807 0.67154 0.50829 0.0
C1255 C 0.12332 0.69185 0.50447 0.0
C1256 C 0.15801 0.65089 0.51185 0.0
C1257 C 0.12322 0.64995 0.51112 0.0
C1258 C 0.08832 0.67039 0.50806 0.0
C1259 C 0.08837 0.69114 0.50497 0.0
H1260 H 0.71571 0.08044 0.77414 0.0
H1261 H 0.6105 0.08147 0.74576 0.0
H1262 H 0.68194 0.1221 0.77602 0.0
H1263 H 0.57689 0.1231 0.74717 0.0
H1264 H 0.54068 0.19942 0.72819 0.0
H1265 H 0.57596 0.15792 0.72224 0.0
H1266 H 0.62842 0.15157 0.80889 0.0
H1267 H 0.59257 0.1928 0.81511 0.0
C1268 C 0.68549 0.08956 0.76799 0.0
C1269 C 0.66573 0.07763 0.76 0.0
C1270 C 0.66607 0.11344 0.7692 0.0
C1271 C 0.62659 0.126 0.76189 0.0
C1272 C 0.60728 0.11402 0.7528 0.0
C1273 C 0.62652 0.09016 0.7521 0.0
C1274 C 0.55967 0.18913 0.74597 0.0
C1275 C 0.5637 0.19944 0.77217 0.0
C1276 C 0.57987 0.16535 0.74258 0.0
C1277 C 0.60526 0.15137 0.76502 0.0
C1278 C 0.60952 0.16179 0.79102 0.0
C1279 C 0.58876 0.18544 0.79466 0.0
H1280 H 0.77188 0.58904 0.07495 0.0
H1281 H 0.77479 0.62437 0.15486 0.0
H1282 H 0.77615 0.61799 0.04422 0.0
H1283 H 0.77821 0.65342 0.12432 0.0
H1284 H 0.81738 0.69213 0.06465 0.0
H1285 H 0.82231 0.65874 0.09061 0.0
H1286 H 0.73663 0.65806 0.03125 0.0
H1287 H 0.73093 0.69172 1.00589 0.0
C1288 C 0.77341 0.60298 0.08592 0.0
C1289 C 0.77281 0.60447 0.11733 0.0
C1290 C 0.77571 0.6196 0.06835 0.0
C1291 C 0.77791 0.6379 0.08182 0.0
C1292 C 0.77727 0.63934 0.11321 0.0
C1293 C 0.77468 0.62287 0.13073 0.0
C1294 C 0.80015 0.68458 0.05682 0.0
C1295 C 0.77364 0.6946 0.03336 0.0
C1296 C 0.80265 0.66561 0.07187 0.0
C1297 C 0.77913 0.65608 0.06345 0.0
C1298 C 0.7547 0.66516 0.03858 0.0
C1299 C 0.75157 0.6844 0.02397 0.0
H1300 H 0.9894 0.48662 0.409 0.0
H1301 H 0.89843 0.54046 0.45971 0.0
H1302 H 0.9419 0.4869 0.37395 0.0
H1303 H 0.8504 0.54001 0.42499 0.0
H1304 H 0.78413 0.50808 0.36641 0.0
H1305 H 0.82831 0.50827 0.4051 0.0
H1306 H 0.89408 0.52027 0.3372 0.0
H1307 H 0.84998 0.52056 0.29883 0.0
C1308 C 0.95917 0.49841 0.41282 0.0
C1309 C 0.94762 0.51346 0.43722 0.0
C1310 C 0.93202 0.4985 0.39277 0.0
C1311 C 0.89256 0.51344 0.39681 0.0
C1312 C 0.88069 0.52817 0.42159 0.0
C1313 C 0.90809 0.52838 0.44147 0.0
C1314 C 0.808 0.5108 0.35981 0.0
C1315 C 0.81357 0.51429 0.32954 0.0
C1316 C 0.83305 0.51105 0.38194 0.0
C1317 C 0.86452 0.51429 0.37406 0.0
C1318 C 0.87009 0.51768 0.34385 0.0
C1319 C 0.84476 0.51788 0.3219 0.0
H1320 H 0.14522 0.49717 0.71872 0.0
H1321 H 0.20228 0.51782 0.65274 0.0
H1322 H 0.1016 0.49694 0.68038 0.0
H1323 H 0.15859 0.51705 0.614 0.0
H1324 H 0.09227 0.48231 0.55772 0.0
H1325 H 0.14058 0.48286 0.59201 0.0
H1326 H 0.0492 0.53279 0.64661 0.0
H1327 H 0.00129 0.5331 0.6119 0.0
C1328 C 0.14877 0.50144 0.69597 0.0
C1329 C 0.17725 0.50756 0.68882 0.0
C1330 C 0.12368 0.50135 0.67406 0.0
C1331 C 0.12682 0.50696 0.64432 0.0
C1332 C 0.1558 0.51255 0.6368 0.0
C1333 C 0.18058 0.51309 0.65896 0.0
C1334 C 0.08264 0.49379 0.57661 0.0
C1335 C 0.04305 0.50784 0.58192 0.0
C1336 C 0.11021 0.49402 0.59626 0.0
C1337 C 0.09848 0.50789 0.62186 0.0
C1338 C 0.05894 0.52192 0.62705 0.0
C1339 C 0.03158 0.52201 0.60722 0.0
H1340 H 0.53101 0.75839 0.15378 0.0
H1341 H 0.59775 0.77205 0.21923 0.0
H1342 H 0.57369 0.75891 0.11393 0.0
H1343 H 0.64028 0.77209 0.17978 0.0
H1344 H 0.73438 0.73822 0.10736 0.0
H1345 H 0.68766 0.73849 0.14314 0.0
H1346 H 0.59495 0.79094 0.09223 0.0
H1347 H 0.64227 0.79136 0.05661 0.0
C1348 C 0.55473 0.76144 0.15968 0.0
C1349 C 0.56097 0.76515 0.18972 0.0
C1350 C 0.57892 0.7619 0.13687 0.0
C1351 C 0.61023 0.76556 0.14382 0.0
C1352 C 0.61642 0.76919 0.1738 0.0
C1353 C 0.59196 0.76918 0.19639 0.0
C1354 C 0.70406 0.74988 0.10369 0.0
C1355 C 0.69203 0.76476 0.07907 0.0
C1356 C 0.67733 0.74995 0.12418 0.0
C1357 C 0.63773 0.7647 0.12045 0.0
C1358 C 0.62534 0.77926 0.09545 0.0
C1359 C 0.65235 0.77948 0.07509 0.0
H1360 H 0.69454 0.51903 0.15633 0.0
H1361 H 0.62521 0.51037 0.2246 0.0
H1362 H 0.65049 0.51855 0.11771 0.0
H1363 H 0.58118 0.51045 0.18626 0.0
H1364 H 0.48895 0.54316 0.11093 0.0
H1365 H 0.53581 0.54341 0.14631 0.0
H1366 H 0.62717 0.48595 0.10119 0.0
H1367 H 0.57974 0.48497 0.06634 0.0
C1368 C 0.66989 0.51714 0.16308 0.0
C1369 C 0.66335 0.51472 0.1935 0.0
C1370 C 0.64493 0.51672 0.14101 0.0
C1371 C 0.61259 0.51442 0.14911 0.0
C1372 C 0.6059 0.51227 0.17948 0.0
C1373 C 0.63117 0.51218 0.20138 0.0
C1374 C 0.51901 0.53052 0.10853 0.0
C1375 C 0.53075 0.51413 0.0857 0.0
C1376 C 0.54579 0.53075 0.12871 0.0
C1377 C 0.58503 0.51479 0.12632 0.0
C1378 C 0.59708 0.49859 0.10322 0.0
C1379 C 0.57003 0.49808 0.08329 0.0
H1380 H 0.30305 0.45692 0.04138 0.0
H1381 H 0.40382 0.42766 0.98441 0.0
H1382 H 0.30193 0.42116 0.04135 0.0
H1383 H 0.40078 0.39239 0.98226 0.0
H1384 H 0.41522 0.32454 0.01797 0.0
H1385 H 0.41451 0.3609 0.01236 0.0
H1386 H 0.2897 0.39554 0.01538 0.0
H1387 H 0.29086 0.35939 0.02301 0.0
C1388 C 0.32477 0.44295 0.02854 0.0
C1389 C 0.35394 0.44517 0.01334 0.0
C1390 C 0.32376 0.42244 0.02811 0.0
C1391 C 0.35145 0.40367 0.01196 0.0
C1392 C 0.37945 0.40626 0.99548 0.0
C1393 C 0.38081 0.42669 0.99631 0.0
C1394 C 0.38771 0.33997 0.01728 0.0
C1395 C 0.35313 0.33913 0.02101 0.0
C1396 C 0.3872 0.36084 0.01384 0.0
C1397 C 0.35201 0.38131 0.01351 0.0
C1398 C 0.31741 0.38028 0.01624 0.0
C1399 C 0.31801 0.3595 0.02036 0.0
H1400 H 0.12002 0.19813 0.24466 0.0
H1401 H 0.01508 0.19728 0.26884 0.0
H1402 H 0.15363 0.15682 0.24093 0.0
H1403 H 0.04888 0.15583 0.26667 0.0
H1404 H 0.11033 0.08161 0.24069 0.0
H1405 H 0.07692 0.12298 0.23844 0.0
H1406 H 0.18101 0.12326 0.26782 0.0
H1407 H 0.21468 0.08178 0.26849 0.0
C1408 C 0.10415 0.18905 0.2493 0.0
C1409 C 0.06492 0.20101 0.25718 0.0
C1410 C 0.12355 0.16523 0.24743 0.0
C1411 C 0.10443 0.15255 0.25377 0.0
C1412 C 0.06481 0.16471 0.26118 0.0
C1413 C 0.0453 0.18858 0.26264 0.0
C1414 C 0.12612 0.09056 0.24643 0.0
C1415 C 0.16512 0.07838 0.2549 0.0
C1416 C 0.10682 0.1144 0.24543 0.0
C1417 C 0.12579 0.12689 0.25327 0.0
C1418 C 0.16521 0.11454 0.26121 0.0
C1419 C 0.18464 0.09064 0.2618 0.0
H1420 H 0.15676 0.34115 0.9705 0.0
H1421 H 0.27294 0.32183 0.99934 0.0
H1422 H 0.15353 0.37433 0.94521 0.0
H1423 H 0.26958 0.35471 0.97427 0.0
H1424 H 0.27063 0.39582 0.89377 0.0
H1425 H 0.27054 0.36581 0.92418 0.0
H1426 H 0.15241 0.4107 0.94994 0.0
H1427 H 0.15196 0.44047 0.91824 0.0
C1428 C 0.18124 0.34421 0.97207 0.0
C1429 C 0.21509 0.32874 0.98697 0.0
C1430 C 0.1794 0.36325 0.95757 0.0
C1431 C 0.21144 0.36712 0.95758 0.0
C1432 C 0.24453 0.35217 0.9736 0.0
C1433 C 0.24631 0.33332 0.98819 0.0
C1434 C 0.24459 0.3993 0.90585 0.0
C1435 C 0.21129 0.42055 0.90346 0.0
C1436 C 0.24464 0.38216 0.92361 0.0
C1437 C 0.21144 0.38583 0.93961 0.0
C1438 C 0.17833 0.40722 0.9377 0.0
C1439 C 0.17826 0.42439 0.91984 0.0
H1440 H 0.25342 0.29525 0.92333 0.0
H1441 H 0.33156 0.2261 0.94903 0.0
H1442 H 0.3029 0.29542 0.8906 0.0
H1443 H 0.38103 0.22606 0.91552 0.0
H1444 H 0.42488 0.23058 0.81741 0.0
H1445 H 0.38236 0.22963 0.85649 0.0
H1446 H 0.37259 0.29135 0.8943 0.0
H1447 H 0.4159 0.29211 0.85548 0.0
C1448 C 0.28128 0.28009 0.92198 0.0
C1449 C 0.28866 0.26057 0.93846 0.0
C1450 C 0.30965 0.28026 0.90343 0.0
C1451 C 0.34574 0.26074 0.90045 0.0
C1452 C 0.35337 0.2413 0.91732 0.0
C1453 C 0.3252 0.24132 0.93648 0.0
C1454 C 0.41393 0.24386 0.83418 0.0
C1455 C 0.4236 0.26148 0.83327 0.0
C1456 C 0.38982 0.24321 0.85667 0.0
C1457 C 0.37422 0.2604 0.87842 0.0
C1458 C 0.38419 0.2779 0.87776 0.0
C1459 C 0.40901 0.2783 0.8556 0.0
H1460 H 0.48885 0.48444 0.91646 0.0
H1461 H 0.39521 0.54368 0.95691 0.0
H1462 H 0.44404 0.48197 0.88122 0.0
H1463 H 0.34975 0.54083 0.92172 0.0
H1464 H 0.28141 0.51103 0.86555 0.0
H1465 H 0.32339 0.51226 0.90533 0.0
H1466 H 0.40493 0.50897 0.83864 0.0
H1467 H 0.36334 0.50798 0.79919 0.0
C1468 C 0.45857 0.4969 0.91794 0.0
C1469 C 0.44552 0.51432 0.9394 0.0
C1470 C 0.43291 0.49542 0.89778 0.0
C1471 C 0.39347 0.51126 0.89863 0.0
C1472 C 0.38002 0.5283 0.92073 0.0
C1473 C 0.40594 0.52992 0.94085 0.0
C1474 C 0.30842 0.51043 0.85947 0.0
C1475 C 0.31904 0.50938 0.82919 0.0
C1476 C 0.33223 0.51132 0.8822 0.0
C1477 C 0.3674 0.5107 0.87505 0.0
C1478 C 0.37813 0.50932 0.84484 0.0
C1479 C 0.35419 0.50882 0.82223 0.0
H1480 H 0.55847 0.70079 1.00577 0.0
H1481 H 0.67192 0.67309 0.04529 0.0
H1482 H 0.55936 0.66458 0.01348 0.0
H1483 H 0.67259 0.63699 0.05336 0.0
H1484 H 0.67776 0.57049 0.01392 0.0
H1485 H 0.67704 0.60697 0.01822 0.0
H1486 H 0.56026 0.63764 0.0518 0.0
H1487 H 0.56077 0.60135 0.0469 0.0
C1488 C 0.58347 0.68706 0.01633 0.0
C1489 C 0.61547 0.68972 0.02433 0.0
C1490 C 0.58381 0.66638 0.02105 0.0
C1491 C 0.61622 0.64789 0.03378 0.0
C1492 C 0.64743 0.65086 0.04314 0.0
C1493 C 0.64693 0.6716 0.03865 0.0
C1494 C 0.65206 0.58497 0.02244 0.0
C1495 C 0.61907 0.58309 0.02967 0.0
C1496 C 0.65177 0.60582 0.02519 0.0
C1497 C 0.61843 0.62521 0.03507 0.0
C1498 C 0.58619 0.62306 0.04376 0.0
C1499 C 0.58659 0.60221 0.04118 0.0
H1500 H 0.96788 0.83009 0.74722 0.0
H1501 H 0.86268 0.82951 0.77126 0.0
H1502 H 0.93407 0.87157 0.74868 0.0
H1503 H 0.82908 0.87082 0.77437 0.0
H1504 H 0.76804 0.94544 0.74557 0.0
H1505 H 0.8019 0.90397 0.74688 0.0
H1506 H 0.90565 0.90474 0.77615 0.0
H1507 H 0.87207 0.94607 0.77319 0.0
C1508 C 0.93762 0.83886 0.75327 0.0
C1509 C 0.9179 0.82652 0.75888 0.0
C1510 C 0.91809 0.86274 0.75432 0.0
C1511 C 0.87839 0.87496 0.76146 0.0
C1512 C 0.85921 0.86236 0.76802 0.0
C1513 C 0.87861 0.83855 0.76653 0.0
C1514 C 0.79805 0.93668 0.75235 0.0
C1515 C 0.81745 0.94903 0.759 0.0
C1516 C 0.81759 0.9128 0.75332 0.0
C1517 C 0.85696 0.90059 0.76145 0.0
C1518 C 0.8758 0.9132 0.76903 0.0
C1519 C 0.85641 0.93702 0.76761 0.0
H1520 H 0.41794 0.15958 0.65183 0.0
H1521 H 0.48848 0.17398 0.59106 0.0
H1522 H 0.41868 0.13146 0.61705 0.0
H1523 H 0.48848 0.14608 0.55573 0.0
H1524 H 0.52321 0.07186 0.52645 0.0
H1525 H 0.51694 0.10448 0.55438 0.0
H1526 H 0.39577 0.12681 0.56797 0.0
H1527 H 0.40217 0.09365 0.5406 0.0
C1528 C 0.43356 0.15676 0.63097 0.0
C1529 C 0.45351 0.16884 0.62436 0.0
C1530 C 0.43352 0.14086 0.61083 0.0
C1531 C 0.45351 0.13657 0.58354 0.0
C1532 C 0.47296 0.14892 0.57664 0.0
C1533 C 0.47279 0.16498 0.59678 0.0
C1534 C 0.49493 0.08397 0.53465 0.0
C1535 C 0.46315 0.08006 0.5312 0.0
C1536 C 0.49136 0.10276 0.55065 0.0
C1537 C 0.4559 0.11826 0.56342 0.0
C1538 C 0.42363 0.11502 0.5587 0.0
C1539 C 0.42723 0.09611 0.54281 0.0
H1540 H 0.54946 0.37516 0.85872 0.0
H1541 H 0.50585 0.3488 0.9282 0.0
H1542 H 0.54689 0.40406 0.89289 0.0
H1543 H 0.50317 0.37792 0.9626 0.0
H1544 H 0.46264 0.45108 0.99987 0.0
H1545 H 0.46852 0.41903 0.97044 0.0
H1546 H 0.57914 0.40761 0.93748 0.0
H1547 H 0.57303 0.43998 0.96644 0.0
C1548 C 0.53961 0.37541 0.88141 0.0
C1549 C 0.52823 0.3595 0.89079 0.0
C1550 C 0.53827 0.39196 0.90106 0.0
C1551 C 0.52543 0.3931 0.93066 0.0
C1552 C 0.51317 0.37753 0.93993 0.0
C1553 C 0.51457 0.36089 0.9202 0.0
C1554 C 0.48854 0.44155 0.98672 0.0
C1555 C 0.51725 0.44826 0.98537 0.0
C1556 C 0.49191 0.4231 0.96991 0.0
C1557 C 0.52399 0.41095 0.95127 0.0
C1558 C 0.55368 0.41689 0.95118 0.0
C1559 C 0.55039 0.4353 0.96808 0.0
H1560 H 0.46383 0.87156 0.41101 0.0
H1561 H 0.58851 0.83536 0.41194 0.0
H1562 H 0.46451 0.9016 0.44114 0.0
H1563 H 0.58907 0.86484 0.44338 0.0
H1564 H 0.57113 0.93781 0.46092 0.0
H1565 H 0.57568 0.90374 0.4376 0.0
H1566 H 0.47897 0.91078 0.49038 0.0
H1567 H 0.47295 0.94561 0.51241 0.0
C1568 C 0.49138 0.86987 0.4179 0.0
C1569 C 0.52609 0.85103 0.40888 0.0
C1570 C 0.49177 0.88696 0.43558 0.0
C1571 C 0.52686 0.88565 0.44482 0.0
C1572 C 0.56154 0.86652 0.43647 0.0
C1573 C 0.56117 0.84945 0.41872 0.0
C1574 C 0.55122 0.93188 0.4679 0.0
C1575 C 0.52155 0.94449 0.48835 0.0
C1576 C 0.55382 0.91232 0.45454 0.0
C1577 C 0.52709 0.90478 0.46164 0.0
C1578 C 0.49904 0.91661 0.48359 0.0
C1579 C 0.49598 0.93637 0.49652 0.0
H1580 H 0.40741 0.5886 0.06313 0.0
H1581 H 0.50256 0.58335 0.00982 0.0
H1582 H 0.4021 0.62272 0.08711 0.0
H1583 H 0.49572 0.61816 0.03246 0.0
H1584 H 0.51215 0.65704 0.11103 0.0
H1585 H 0.51151 0.62675 0.08151 0.0
H1586 H 0.38691 0.66213 0.08217 0.0
H1587 H 0.38748 0.69187 0.11313 0.0
C1588 C 0.42644 0.59511 0.05592 0.0
C1589 C 0.45554 0.58322 0.03474 0.0
C1590 C 0.42342 0.61468 0.06965 0.0
C1591 C 0.44914 0.6229 0.0622 0.0
C1592 C 0.4765 0.61179 0.03955 0.0
C1593 C 0.48001 0.59203 0.02627 0.0
C1594 C 0.48459 0.65837 0.10496 0.0
C1595 C 0.44989 0.67693 0.11459 0.0
C1596 C 0.48421 0.64113 0.0876 0.0
C1597 C 0.44914 0.64202 0.07923 0.0
C1598 C 0.41443 0.66079 0.08835 0.0
C1599 C 0.41479 0.67801 0.10581 0.0
loop_
_geom_bond_atom_site_label_1
_geom_bond_atom_site_label_2
_geom_bond_distance
_geom_bond_site_symmetry_2
_ccdc_geom_bond_type
Tb0 C2 2.809 . S
Tb0 O20 2.484 . S
Tb0 O21 2.440 . S
Tb0 O22 2.658 1_655 S
Tb0 O23 2.409 1_655 S
Tb0 O24 2.378 1_655 S
Tb0 O28 2.325 1_564 S
Tb0 O31 2.341 1_565 S
Tb1 C11 2.809 . S
Tb1 O22 2.325 1_546 S
Tb1 O25 2.341 1_545 S
Tb1 O26 2.484 . S
Tb1 O27 2.440 . S
Tb1 O28 2.658 1_455 S
Tb1 O29 2.409 1_455 S
Tb1 O30 2.378 1_455 S
C2 Tb0 2.809 . S
C2 C3 1.514 . S
C2 O20 1.248 . S
C2 O21 1.266 . S
C3 C2 1.514 . S
C3 C4 1.359 . S
C3 C8 1.348 . S
C4 C3 1.359 . S
C4 C5 1.380 . S
C4 H32 0.929 1_554 S
C5 C4 1.380 . S
C5 C6 1.347 . S
C5 H33 0.931 1_554 S
C6 C5 1.347 . S
C6 C7 1.369 . S
C7 C6 1.369 . S
C7 C8 1.408 . S
C7 H34 0.930 . S
C8 C3 1.348 . S
C8 C7 1.408 . S
C8 H35 0.930 . S
C9 O22 1.281 . S
C9 O23 1.254 . S
C10 O24 1.236 1_556 S
C10 O25 1.266 . S
C11 Tb1 2.809 . S
C11 C12 1.514 . S
C11 O26 1.248 . S
C11 O27 1.266 . S
C12 C11 1.514 . S
C12 C13 1.359 . S
C12 C17 1.348 . S
C13 C12 1.359 . S
C13 C14 1.380 . S
C13 H36 0.929 1_556 S
C14 C13 1.380 . S
C14 C15 1.347 . S
C14 H37 0.931 1_556 S
C15 C14 1.347 . S
C15 C16 1.369 . S
C16 C15 1.369 . S
C16 C17 1.408 . S
C16 H38 0.930 . S
C17 C12 1.348 . S
C17 C16 1.408 . S
C17 H39 0.930 . S
C18 O28 1.281 . S
C18 O29 1.254 . S
C19 O30 1.236 1_554 S
C19 O31 1.266 . S
O20 Tb0 2.484 . S
O20 C2 1.248 . S
O21 Tb0 2.440 . S
O21 C2 1.266 . S
O22 Tb0 2.658 1_455 S
O22 Tb1 2.325 1_564 S
O22 C9 1.281 . S
O23 Tb0 2.409 1_455 S
O23 C9 1.254 . S
O24 Tb0 2.378 1_455 S
O24 C10 1.236 1_554 S
O25 Tb1 2.341 1_565 S
O25 C10 1.266 . S
O26 Tb1 2.484 . S
O26 C11 1.248 . S
O27 Tb1 2.440 . S
O27 C11 1.266 . S
O28 Tb0 2.325 1_546 S
O28 Tb1 2.658 1_655 S
O28 C18 1.281 . S
O29 Tb1 2.409 1_655 S
O29 C18 1.254 . S
O30 Tb1 2.378 1_655 S
O30 C19 1.236 1_556 S
O31 Tb0 2.341 1_545 S
O31 C19 1.266 . S
H32 C4 0.929 1_556 S
H33 C5 0.931 1_556 S
H34 C7 0.930 . S
H35 C8 0.930 . S
H36 C13 0.929 1_554 S
H37 C14 0.931 1_554 S
H38 C16 0.930 . S
H39 C17 0.930 . S
Tb40 C42 2.809 . S
Tb40 O60 2.486 . S
Tb40 O61 2.440 . S
Tb40 O62 2.658 . S
Tb40 O63 2.409 . S
Tb40 O64 2.378 1_455 S
Tb40 O68 2.325 1_455 S
Tb40 O71 2.341 . S
Tb41 C51 2.809 . S
Tb41 O62 2.325 1_655 S
Tb41 O65 2.341 . S
Tb41 O66 2.484 1_655 S
Tb41 O67 2.440 . S
Tb41 O68 2.658 . S
Tb41 O69 2.409 . S
Tb41 O70 2.378 1_655 S
C42 Tb40 2.809 . S
C42 C43 1.514 . S
C42 O60 1.253 . S
C42 O61 1.266 . S
C43 C42 1.514 . S
C43 C44 1.359 1_455 S
C43 C48 1.348 . S
C44 C43 1.359 1_655 S
C44 C45 1.380 . S
C44 H72 0.929 . S
C45 C44 1.380 . S
C45 C46 1.347 1_655 S
C45 H73 0.931 . S
C46 C45 1.347 1_455 S
C46 C47 1.369 . S
C47 C46 1.369 . S
C47 C48 1.408 . S
C47 H74 0.930 . S
C48 C43 1.348 . S
C48 C47 1.408 . S
C48 H75 0.930 . S
C49 O62 1.281 . S
C49 O63 1.254 . S
C50 O64 1.236 . S
C50 O65 1.266 . S
C51 Tb41 2.809 . S
C51 C52 1.514 . S
C51 O66 1.248 1_655 S
C51 O67 1.266 . S
C52 C51 1.514 . S
C52 C53 1.359 1_655 S
C52 C57 1.348 . S
C53 C52 1.359 1_455 S
C53 C54 1.380 . S
C53 H76 0.929 . S
C54 C53 1.380 . S
C54 C55 1.347 1_455 S
C54 H77 0.931 . S
C55 C54 1.347 1_655 S
C55 C56 1.369 . S
C56 C55 1.369 . S
C56 C57 1.408 . S
C56 H78 0.930 . S
C57 C52 1.348 . S
C57 C56 1.408 . S
C57 H79 0.930 . S
C58 O68 1.281 . S
C58 O69 1.254 . S
C59 O70 1.236 . S
C59 O71 1.266 . S
O60 Tb40 2.486 . S
O60 C42 1.253 . S
O61 Tb40 2.440 . S
O61 C42 1.266 . S
O62 Tb40 2.658 . S
O62 Tb41 2.325 1_455 S
O62 C49 1.281 . S
O63 Tb40 2.409 . S
O63 C49 1.254 . S
O64 Tb40 2.378 1_655 S
O64 C50 1.236 . S
O65 Tb41 2.341 . S
O65 C50 1.266 . S
O66 Tb41 2.484 1_455 S
O66 C51 1.248 1_455 S
O67 Tb41 2.440 . S
O67 C51 1.266 . S
O68 Tb40 2.325 1_655 S
O68 Tb41 2.658 . S
O68 C58 1.281 . S
O69 Tb41 2.409 . S
O69 C58 1.254 . S
O70 Tb41 2.378 1_455 S
O70 C59 1.236 . S
O71 Tb40 2.341 . S
O71 C59 1.266 . S
H72 C44 0.929 . S
H73 C45 0.931 . S
H74 C47 0.930 . S
H75 C48 0.930 . S
H76 C53 0.929 . S
H77 C54 0.931 . S
H78 C56 0.930 . S
H79 C57 0.930 . S
Tb80 C82 2.809 . S
Tb80 O100 2.484 . S
Tb80 O101 2.440 . S
Tb80 O102 2.658 . S
Tb80 O103 2.409 . S
Tb80 O104 2.378 . S
Tb80 O108 2.325 . S
Tb80 O111 2.341 . S
Tb81 C91 2.809 . S
Tb81 O102 2.325 . S
Tb81 O105 2.341 . S
Tb81 O106 2.484 . S
Tb81 O107 2.440 . S
Tb81 O108 2.658 . S
Tb81 O109 2.409 . S
Tb81 O110 2.378 . S
C82 Tb80 2.809 . S
C82 C83 1.514 . S
C82 O100 1.248 . S
C82 O101 1.266 . S
C83 C82 1.514 . S
C83 C84 1.359 . S
C83 C88 1.348 . S
C84 C83 1.359 . S
C84 C85 1.380 . S
C84 H112 0.929 . S
C85 C84 1.380 . S
C85 C86 1.347 . S
C85 H113 0.931 . S
C86 C85 1.347 . S
C86 C87 1.369 . S
C87 C86 1.369 . S
C87 C88 1.408 . S
C87 H114 0.930 . S
C88 C83 1.348 . S
C88 C87 1.408 . S
C88 H115 0.930 . S
C89 O102 1.281 . S
C89 O103 1.254 . S
C90 O104 1.236 . S
C90 O105 1.266 . S
C91 Tb81 2.809 . S
C91 C92 1.514 . S
C91 O106 1.248 . S
C91 O107 1.266 . S
C92 C91 1.514 . S
C92 C93 1.359 . S
C92 C97 1.348 . S
C93 C92 1.359 . S
C93 C94 1.380 . S
C93 H116 0.929 . S
C94 C93 1.380 . S
C94 C95 1.347 . S
C94 H117 0.931 . S
C95 C94 1.347 . S
C95 C96 1.369 . S
C96 C95 1.369 . S
C96 C97 1.408 . S
C96 H118 0.930 . S
C97 C92 1.348 . S
C97 C96 1.408 . S
C97 H119 0.930 . S
C98 O108 1.281 . S
C98 O109 1.254 . S
C99 O110 1.236 . S
C99 O111 1.266 . S
O100 Tb80 2.484 . S
O100 C82 1.248 . S
O101 Tb80 2.440 . S
O101 C82 1.266 . S
O102 Tb80 2.658 . S
O102 Tb81 2.325 . S
O102 C89 1.281 . S
O103 Tb80 2.409 . S
O103 C89 1.254 . S
O104 Tb80 2.378 . S
O104 C90 1.236 . S
O105 Tb81 2.341 . S
O105 C90 1.266 . S
O106 Tb81 2.484 . S
O106 C91 1.248 . S
O107 Tb81 2.440 . S
O107 C91 1.266 . S
O108 Tb80 2.325 . S
O108 Tb81 2.658 . S
O108 C98 1.281 . S
O109 Tb81 2.409 . S
O109 C98 1.254 . S
O110 Tb81 2.378 . S
O110 C99 1.236 . S
O111 Tb80 2.341 . S
O111 C99 1.266 . S
H112 C84 0.929 . S
H113 C85 0.931 . S
H114 C87 0.930 . S
H115 C88 0.930 . S
H116 C93 0.929 . S
H117 C94 0.931 . S
H118 C96 0.930 . S
H119 C97 0.930 . S
Tb120 C122 2.809 . S
Tb120 O140 2.484 . S
Tb120 O141 2.440 . S
Tb120 O142 2.658 1_565 S
Tb120 O143 2.409 1_565 S
Tb120 O144 2.400 . S
Tb120 O148 2.325 . S
Tb120 O151 2.341 . S
Tb121 C131 2.809 . S
Tb121 O142 2.325 . S
Tb121 O145 2.341 . S
Tb121 O146 2.484 . S
Tb121 O147 2.440 . S
Tb121 O148 2.658 1_545 S
Tb121 O149 2.409 1_545 S
Tb121 O150 2.378 . S
C122 Tb120 2.809 . S
C122 C123 1.514 . S
C122 O140 1.248 . S
C122 O141 1.266 . S
C123 C122 1.514 . S
C123 C124 1.359 . S
C123 C128 1.348 . S
C124 C123 1.359 . S
C124 C125 1.380 . S
C124 H152 0.929 . S
C125 C124 1.380 . S
C125 C126 1.347 . S
C125 H153 0.931 . S
C126 C125 1.347 . S
C126 C127 1.369 . S
C127 C126 1.369 . S
C127 C128 1.408 . S
C127 H154 0.930 . S
C128 C123 1.348 . S
C128 C127 1.408 . S
C128 H155 0.930 . S
C129 O142 1.281 . S
C129 O143 1.254 . S
C130 O144 1.220 . S
C130 O145 1.266 1_565 S
C131 Tb121 2.809 . S
C131 C132 1.514 . S
C131 O146 1.248 . S
C131 O147 1.266 . S
C132 C131 1.514 . S
C132 C133 1.359 . S
C132 C137 1.348 . S
C133 C132 1.359 . S
C133 C134 1.380 . S
C133 H156 0.929 . S
C134 C133 1.380 . S
C134 C135 1.347 . S
C134 H157 0.931 . S
C135 C134 1.347 . S
C135 C136 1.369 . S
C136 C135 1.369 . S
C136 C137 1.408 . S
C136 H158 0.930 . S
C137 C132 1.348 . S
C137 C136 1.408 . S
C137 H159 0.930 . S
C138 O148 1.281 . S
C138 O149 1.254 . S
C139 O150 1.236 . S
C139 O151 1.266 1_545 S
O140 Tb120 2.484 . S
O140 C122 1.248 . S
O141 Tb120 2.440 . S
O141 C122 1.266 . S
O142 Tb120 2.658 1_545 S
O142 Tb121 2.325 . S
O142 C129 1.281 . S
O143 Tb120 2.409 1_545 S
O143 C129 1.254 . S
O144 Tb120 2.400 . S
O144 C130 1.220 . S
O145 Tb121 2.341 . S
O145 C130 1.266 1_545 S
O146 Tb121 2.484 . S
O146 C131 1.248 . S
O147 Tb121 2.440 . S
O147 C131 1.266 . S
O148 Tb120 2.325 . S
O148 Tb121 2.658 1_565 S
O148 C138 1.281 . S
O149 Tb121 2.409 1_565 S
O149 C138 1.254 . S
O150 Tb121 2.378 . S
O150 C139 1.236 . S
O151 Tb120 2.341 . S
O151 C139 1.266 1_565 S
H152 C124 0.929 . S
H153 C125 0.931 . S
H154 C127 0.930 . S
H155 C128 0.930 . S
H156 C133 0.929 . S
H157 C134 0.931 . S
H158 C136 0.930 . S
H159 C137 0.930 . S
Tb160 C162 2.809 . S
Tb160 O180 2.484 . S
Tb160 O181 2.440 . S
Tb160 O182 2.658 . S
Tb160 O183 2.409 . S
Tb160 O184 2.378 . S
Tb160 O188 2.325 . S
Tb160 O191 2.341 . S
Tb161 C171 2.809 . S
Tb161 O182 2.325 . S
Tb161 O185 2.341 . S
Tb161 O186 2.484 . S
Tb161 O187 2.440 . S
Tb161 O188 2.658 . S
Tb161 O189 2.409 . S
Tb161 O190 2.378 . S
C162 Tb160 2.809 . S
C162 C163 1.514 . S
C162 O180 1.248 . S
C162 O181 1.266 . S
C163 C162 1.514 . S
C163 C164 1.359 . S
C163 C168 1.348 . S
C164 C163 1.359 . S
C164 C165 1.380 . S
C164 H192 0.929 . S
C165 C164 1.380 . S
C165 C166 1.347 . S
C165 H193 0.931 . S
C166 C165 1.347 . S
C166 C167 1.369 . S
C167 C166 1.369 . S
C167 C168 1.408 . S
C167 H194 0.930 . S
C168 C163 1.348 . S
C168 C167 1.408 . S
C168 H195 0.930 . S
C169 O182 1.281 . S
C169 O183 1.254 . S
C170 O184 1.236 . S
C170 O185 1.266 . S
C171 Tb161 2.809 . S
C171 C172 1.514 . S
C171 O186 1.248 . S
C171 O187 1.266 . S
C172 C171 1.514 . S
C172 C173 1.359 . S
C172 C177 1.348 . S
C173 C172 1.359 . S
C173 C174 1.380 . S
C173 H196 0.929 . S
C174 C173 1.380 . S
C174 C175 1.347 . S
C174 H197 0.931 . S
C175 C174 1.347 . S
C175 C176 1.369 . S
C176 C175 1.369 . S
C176 C177 1.408 . S
C176 H198 0.930 . S
C177 C172 1.348 . S
C177 C176 1.408 . S
C177 H199 0.930 . S
C178 O188 1.281 . S
C178 O189 1.254 . S
C179 O190 1.236 . S
C179 O191 1.266 . S
O180 Tb160 2.484 . S
O180 C162 1.248 . S
O181 Tb160 2.440 . S
O181 C162 1.266 . S
O182 Tb160 2.658 . S
O182 Tb161 2.325 . S
O182 C169 1.281 . S
O183 Tb160 2.409 . S
O183 C169 1.254 . S
O184 Tb160 2.378 . S
O184 C170 1.236 . S
O185 Tb161 2.341 . S
O185 C170 1.266 . S
O186 Tb161 2.484 . S
O186 C171 1.248 . S
O187 Tb161 2.440 . S
O187 C171 1.266 . S
O188 Tb160 2.325 . S
O188 Tb161 2.658 . S
O188 C178 1.281 . S
O189 Tb161 2.409 . S
O189 C178 1.254 . S
O190 Tb161 2.378 . S
O190 C179 1.236 . S
O191 Tb160 2.341 . S
O191 C179 1.266 . S
H192 C164 0.929 . S
H193 C165 0.931 . S
H194 C167 0.930 . S
H195 C168 0.930 . S
H196 C173 0.929 . S
H197 C174 0.931 . S
H198 C176 0.930 . S
H199 C177 0.930 . S
Tb200 C202 2.809 . S
Tb200 O220 2.484 . S
Tb200 O221 2.440 . S
Tb200 O222 2.658 . S
Tb200 O223 2.409 . S
Tb200 O224 2.378 . S
Tb200 O228 2.325 . S
Tb200 O231 2.341 . S
Tb201 C211 2.809 . S
Tb201 O222 2.325 . S
Tb201 O225 2.341 . S
Tb201 O226 2.484 . S
Tb201 O227 2.440 . S
Tb201 O228 2.658 . S
Tb201 O229 2.409 . S
Tb201 O230 2.378 . S
C202 Tb200 2.809 . S
C202 C203 1.514 . S
C202 O220 1.248 . S
C202 O221 1.266 . S
C203 C202 1.514 . S
C203 C204 1.359 . S
C203 C208 1.348 . S
C204 C203 1.359 . S
C204 C205 1.380 . S
C204 H232 0.929 . S
C205 C204 1.380 . S
C205 C206 1.347 . S
C205 H233 0.931 . S
C206 C205 1.347 . S
C206 C207 1.369 . S
C207 C206 1.369 . S
C207 C208 1.408 . S
C207 H234 0.930 . S
C208 C203 1.348 . S
C208 C207 1.408 . S
C208 H235 0.930 . S
C209 O222 1.281 . S
C209 O223 1.254 . S
C210 O224 1.236 . S
C210 O225 1.266 . S
C211 Tb201 2.809 . S
C211 C212 1.514 . S
C211 O226 1.248 . S
C211 O227 1.266 . S
C212 C211 1.514 . S
C212 C213 1.359 . S
C212 C217 1.348 . S
C213 C212 1.359 . S
C213 C214 1.380 . S
C213 H236 0.929 . S
C214 C213 1.380 . S
C214 C215 1.347 . S
C214 H237 0.931 . S
C215 C214 1.347 . S
C215 C216 1.369 . S
C216 C215 1.369 . S
C216 C217 1.408 . S
C216 H238 0.930 . S
C217 C212 1.348 . S
C217 C216 1.408 . S
C217 H239 0.930 . S
C218 O228 1.281 . S
C218 O229 1.254 . S
C219 O230 1.236 . S
C219 O231 1.266 . S
O220 Tb200 2.484 . S
O220 C202 1.248 . S
O221 Tb200 2.440 . S
O221 C202 1.266 . S
O222 Tb200 2.658 . S
O222 Tb201 2.325 . S
O222 C209 1.281 . S
O223 Tb200 2.409 . S
O223 C209 1.254 . S
O224 Tb200 2.378 . S
O224 C210 1.236 . S
O225 Tb201 2.341 . S
O225 C210 1.266 . S
O226 Tb201 2.484 . S
O226 C211 1.248 . S
O227 Tb201 2.440 . S
O227 C211 1.266 . S
O228 Tb200 2.325 . S
O228 Tb201 2.658 . S
O228 C218 1.281 . S
O229 Tb201 2.409 . S
O229 C218 1.254 . S
O230 Tb201 2.378 . S
O230 C219 1.236 . S
O231 Tb200 2.341 . S
O231 C219 1.266 . S
H232 C204 0.929 . S
H233 C205 0.931 . S
H234 C207 0.930 . S
H235 C208 0.930 . S
H236 C213 0.929 . S
H237 C214 0.931 . S
H238 C216 0.930 . S
H239 C217 0.930 . S
Tb240 C242 2.809 . S
Tb240 O260 2.484 . S
Tb240 O261 2.440 . S
Tb240 O262 2.658 . S
Tb240 O263 2.409 . S
Tb240 O264 2.378 . S
Tb240 O268 2.325 . S
Tb240 O271 2.341 . S
Tb241 C251 2.809 . S
Tb241 O262 2.325 . S
Tb241 O265 2.341 . S
Tb241 O266 2.484 . S
Tb241 O267 2.440 . S
Tb241 O268 2.658 . S
Tb241 O269 2.409 . S
Tb241 O270 2.378 . S
C242 Tb240 2.809 . S
C242 C243 1.514 . S
C242 O260 1.248 . S
C242 O261 1.266 . S
C243 C242 1.514 . S
C243 C244 1.359 . S
C243 C248 1.348 . S
C244 C243 1.359 . S
C244 C245 1.380 . S
C244 H272 0.929 . S
C245 C244 1.380 . S
C245 C246 1.347 . S
C245 H273 0.931 . S
C246 C245 1.347 . S
C246 C247 1.369 . S
C247 C246 1.369 . S
C247 C248 1.408 . S
C247 H274 0.930 . S
C248 C243 1.348 . S
C248 C247 1.408 . S
C248 H275 0.930 . S
C249 O262 1.281 . S
C249 O263 1.254 . S
C250 O264 1.236 . S
C250 O265 1.266 . S
C251 Tb241 2.809 . S
C251 C252 1.514 . S
C251 O266 1.248 . S
C251 O267 1.266 . S
C252 C251 1.514 . S
C252 C253 1.359 . S
C252 C257 1.348 . S
C253 C252 1.359 . S
C253 C254 1.380 . S
C253 H276 0.929 . S
C254 C253 1.380 . S
C254 C255 1.347 . S
C254 H277 0.931 . S
C255 C254 1.347 . S
C255 C256 1.369 . S
C256 C255 1.369 . S
C256 C257 1.408 . S
C256 H278 0.930 . S
C257 C252 1.348 . S
C257 C256 1.408 . S
C257 H279 0.930 . S
C258 O268 1.281 . S
C258 O269 1.254 . S
C259 O270 1.236 . S
C259 O271 1.266 . S
O260 Tb240 2.484 . S
O260 C242 1.248 . S
O261 Tb240 2.440 . S
O261 C242 1.266 . S
O262 Tb240 2.658 . S
O262 Tb241 2.325 . S
O262 C249 1.281 . S
O263 Tb240 2.409 . S
O263 C249 1.254 . S
O264 Tb240 2.378 . S
O264 C250 1.236 . S
O265 Tb241 2.341 . S
O265 C250 1.266 . S
O266 Tb241 2.484 . S
O266 C251 1.248 . S
O267 Tb241 2.440 . S
O267 C251 1.266 . S
O268 Tb240 2.325 . S
O268 Tb241 2.658 . S
O268 C258 1.281 . S
O269 Tb241 2.409 . S
O269 C258 1.254 . S
O270 Tb241 2.378 . S
O270 C259 1.236 . S
O271 Tb240 2.341 . S
O271 C259 1.266 . S
H272 C244 0.929 . S
H273 C245 0.931 . S
H274 C247 0.930 . S
H275 C248 0.930 . S
H276 C253 0.929 . S
H277 C254 0.931 . S
H278 C256 0.930 . S
H279 C257 0.930 . S
Tb280 C282 2.809 . S
Tb280 O300 2.484 . S
Tb280 O301 2.440 . S
Tb280 O302 2.658 1_655 S
Tb280 O303 2.409 1_655 S
Tb280 O304 2.378 1_655 S
Tb280 O308 2.325 . S
Tb280 O311 2.341 . S
Tb281 C291 2.809 . S
Tb281 O302 2.325 . S
Tb281 O305 2.341 . S
Tb281 O306 2.484 . S
Tb281 O307 2.440 . S
Tb281 O308 2.658 1_455 S
Tb281 O309 2.409 1_455 S
Tb281 O310 2.378 1_455 S
C282 Tb280 2.809 . S
C282 C283 1.514 . S
C282 O300 1.248 . S
C282 O301 1.266 . S
C283 C282 1.514 . S
C283 C284 1.359 . S
C283 C288 1.348 . S
C284 C283 1.359 . S
C284 C285 1.380 . S
C284 H312 0.929 . S
C285 C284 1.380 . S
C285 C286 1.347 . S
C285 H313 0.931 . S
C286 C285 1.347 . S
C286 C287 1.369 . S
C287 C286 1.369 . S
C287 C288 1.408 . S
C287 H314 0.930 . S
C288 C283 1.348 . S
C288 C287 1.408 . S
C288 H315 0.930 . S
C289 O302 1.281 . S
C289 O303 1.254 . S
C290 O304 1.236 . S
C290 O305 1.266 . S
C291 Tb281 2.809 . S
C291 C292 1.514 . S
C291 O306 1.248 . S
C291 O307 1.266 . S
C292 C291 1.514 . S
C292 C293 1.359 . S
C292 C297 1.348 . S
C293 C292 1.359 . S
C293 C294 1.380 . S
C293 H316 0.929 . S
C294 C293 1.380 . S
C294 C295 1.347 . S
C294 H317 0.931 . S
C295 C294 1.347 . S
C295 C296 1.369 . S
C296 C295 1.369 . S
C296 C297 1.408 . S
C296 H318 0.930 . S
C297 C292 1.348 . S
C297 C296 1.408 . S
C297 H319 0.930 . S
C298 O308 1.281 . S
C298 O309 1.254 . S
C299 O310 1.236 . S
C299 O311 1.266 . S
O300 Tb280 2.484 . S
O300 C282 1.248 . S
O301 Tb280 2.440 . S
O301 C282 1.266 . S
O302 Tb280 2.658 1_455 S
O302 Tb281 2.325 . S
O302 C289 1.281 . S
O303 Tb280 2.409 1_455 S
O303 C289 1.254 . S
O304 Tb280 2.378 1_455 S
O304 C290 1.236 . S
O305 Tb281 2.341 . S
O305 C290 1.266 . S
O306 Tb281 2.484 . S
O306 C291 1.248 . S
O307 Tb281 2.440 . S
O307 C291 1.266 . S
O308 Tb280 2.325 . S
O308 Tb281 2.658 1_655 S
O308 C298 1.281 . S
O309 Tb281 2.409 1_655 S
O309 C298 1.254 . S
O310 Tb281 2.378 1_655 S
O310 C299 1.236 . S
O311 Tb280 2.341 . S
O311 C299 1.266 . S
H312 C284 0.929 . S
H313 C285 0.931 . S
H314 C287 0.930 . S
H315 C288 0.930 . S
H316 C293 0.929 . S
H317 C294 0.931 . S
H318 C296 0.930 . S
H319 C297 0.930 . S
Tb320 C322 2.809 . S
Tb320 O340 2.484 . S
Tb320 O341 2.440 . S
Tb320 O342 2.658 . S
Tb320 O343 2.409 . S
Tb320 O344 2.378 . S
Tb320 O348 2.325 1_554 S
Tb320 O351 2.341 . S
Tb321 C331 2.809 . S
Tb321 O342 2.325 1_556 S
Tb321 O345 2.341 . S
Tb321 O346 2.484 . S
Tb321 O347 2.440 . S
Tb321 O348 2.658 . S
Tb321 O349 2.409 . S
Tb321 O350 2.378 . S
C322 Tb320 2.809 . S
C322 C323 1.514 . S
C322 O340 1.248 . S
C322 O341 1.266 . S
C323 C322 1.514 . S
C323 C324 1.359 . S
C323 C328 1.348 . S
C324 C323 1.359 . S
C324 C325 1.380 . S
C324 H352 0.929 1_554 S
C325 C324 1.380 . S
C325 C326 1.347 . S
C325 H353 0.931 1_554 S
C326 C325 1.347 . S
C326 C327 1.369 . S
C327 C326 1.369 . S
C327 C328 1.408 . S
C327 H354 0.930 . S
C328 C323 1.348 . S
C328 C327 1.408 . S
C328 H355 0.930 . S
C329 O342 1.281 . S
C329 O343 1.254 . S
C330 O344 1.236 1_556 S
C330 O345 1.266 . S
C331 Tb321 2.809 . S
C331 C332 1.514 . S
C331 O346 1.248 . S
C331 O347 1.266 . S
C332 C331 1.514 . S
C332 C333 1.359 . S
C332 C337 1.348 . S
C333 C332 1.359 . S
C333 C334 1.380 . S
C333 H356 0.929 1_556 S
C334 C333 1.380 . S
C334 C335 1.347 . S
C334 H357 0.931 1_556 S
C335 C334 1.347 . S
C335 C336 1.369 . S
C336 C335 1.369 . S
C336 C337 1.408 . S
C336 H358 0.930 . S
C337 C332 1.348 . S
C337 C336 1.408 . S
C337 H359 0.930 . S
C338 O348 1.281 . S
C338 O349 1.254 . S
C339 O350 1.236 1_554 S
C339 O351 1.266 . S
O340 Tb320 2.484 . S
O340 C322 1.248 . S
O341 Tb320 2.440 . S
O341 C322 1.266 . S
O342 Tb320 2.658 . S
O342 Tb321 2.325 1_554 S
O342 C329 1.281 . S
O343 Tb320 2.409 . S
O343 C329 1.254 . S
O344 Tb320 2.378 . S
O344 C330 1.236 1_554 S
O345 Tb321 2.341 . S
O345 C330 1.266 . S
O346 Tb321 2.484 . S
O346 C331 1.248 . S
O347 Tb321 2.440 . S
O347 C331 1.266 . S
O348 Tb320 2.325 1_556 S
O348 Tb321 2.658 . S
O348 C338 1.281 . S
O349 Tb321 2.409 . S
O349 C338 1.254 . S
O350 Tb321 2.378 . S
O350 C339 1.236 1_556 S
O351 Tb320 2.341 . S
O351 C339 1.266 . S
H352 C324 0.929 1_556 S
H353 C325 0.931 1_556 S
H354 C327 0.930 . S
H355 C328 0.930 . S
H356 C333 0.929 1_554 S
H357 C334 0.931 1_554 S
H358 C336 0.930 . S
H359 C337 0.930 . S
Tb360 C362 2.809 . S
Tb360 O380 2.484 . S
Tb360 O381 2.440 . S
Tb360 O382 2.658 1_565 S
Tb360 O383 2.409 1_565 S
Tb360 O384 2.400 . S
Tb360 O388 2.325 . S
Tb360 O391 2.341 . S
Tb361 C371 2.809 . S
Tb361 O382 2.325 . S
Tb361 O385 2.341 . S
Tb361 O386 2.484 . S
Tb361 O387 2.440 . S
Tb361 O388 2.658 1_545 S
Tb361 O389 2.409 1_545 S
Tb361 O390 2.378 . S
C362 Tb360 2.809 . S
C362 C363 1.514 . S
C362 O380 1.248 . S
C362 O381 1.266 . S
C363 C362 1.514 . S
C363 C364 1.359 . S
C363 C368 1.348 . S
C364 C363 1.359 . S
C364 C365 1.380 . S
C364 H392 0.929 . S
C365 C364 1.380 . S
C365 C366 1.347 . S
C365 H393 0.931 . S
C366 C365 1.347 . S
C366 C367 1.369 . S
C367 C366 1.369 . S
C367 C368 1.408 . S
C367 H394 0.930 . S
C368 C363 1.348 . S
C368 C367 1.408 . S
C368 H395 0.930 . S
C369 O382 1.281 . S
C369 O383 1.254 . S
C370 O384 1.220 . S
C370 O385 1.266 1_565 S
C371 Tb361 2.809 . S
C371 C372 1.514 . S
C371 O386 1.248 . S
C371 O387 1.266 . S
C372 C371 1.514 . S
C372 C373 1.359 . S
C372 C377 1.348 . S
C373 C372 1.359 . S
C373 C374 1.380 . S
C373 H396 0.929 . S
C374 C373 1.380 . S
C374 C375 1.347 . S
C374 H397 0.931 . S
C375 C374 1.347 . S
C375 C376 1.369 . S
C376 C375 1.369 . S
C376 C377 1.408 . S
C376 H398 0.930 . S
C377 C372 1.348 . S
C377 C376 1.408 . S
C377 H399 0.930 . S
C378 O388 1.281 . S
C378 O389 1.254 . S
C379 O390 1.236 . S
C379 O391 1.266 1_545 S
O380 Tb360 2.484 . S
O380 C362 1.248 . S
O381 Tb360 2.440 . S
O381 C362 1.266 . S
O382 Tb360 2.658 1_545 S
O382 Tb361 2.325 . S
O382 C369 1.281 . S
O383 Tb360 2.409 1_545 S
O383 C369 1.254 . S
O384 Tb360 2.400 . S
O384 C370 1.220 . S
O385 Tb361 2.341 . S
O385 C370 1.266 1_545 S
O386 Tb361 2.484 . S
O386 C371 1.248 . S
O387 Tb361 2.440 . S
O387 C371 1.266 . S
O388 Tb360 2.325 . S
O388 Tb361 2.658 1_565 S
O388 C378 1.281 . S
O389 Tb361 2.409 1_565 S
O389 C378 1.254 . S
O390 Tb361 2.378 . S
O390 C379 1.236 . S
O391 Tb360 2.341 . S
O391 C379 1.266 1_565 S
H392 C364 0.929 . S
H393 C365 0.931 . S
H394 C367 0.930 . S
H395 C368 0.930 . S
H396 C373 0.929 . S
H397 C374 0.931 . S
H398 C376 0.930 . S
H399 C377 0.930 . S
Tb400 C402 2.809 . S
Tb400 O420 2.484 . S
Tb400 O421 2.440 . S
Tb400 O422 2.658 . S
Tb400 O423 2.409 . S
Tb400 O424 2.378 . S
Tb400 O428 2.325 . S
Tb400 O431 2.341 . S
Tb401 C411 2.809 . S
Tb401 O422 2.325 . S
Tb401 O425 2.341 . S
Tb401 O426 2.484 . S
Tb401 O427 2.440 . S
Tb401 O428 2.658 . S
Tb401 O429 2.409 . S
Tb401 O430 2.378 . S
C402 Tb400 2.809 . S
C402 C403 1.514 . S
C402 O420 1.248 . S
C402 O421 1.266 . S
C403 C402 1.514 . S
C403 C404 1.359 . S
C403 C408 1.348 . S
C404 C403 1.359 . S
C404 C405 1.380 . S
C404 H432 0.929 . S
C405 C404 1.380 . S
C405 C406 1.347 . S
C405 H433 0.931 . S
C406 C405 1.347 . S
C406 C407 1.369 . S
C407 C406 1.369 . S
C407 C408 1.408 . S
C407 H434 0.930 . S
C408 C403 1.348 . S
C408 C407 1.408 . S
C408 H435 0.930 . S
C409 O422 1.281 . S
C409 O423 1.254 . S
C410 O424 1.236 . S
C410 O425 1.266 . S
C411 Tb401 2.809 . S
C411 C412 1.514 . S
C411 O426 1.248 . S
C411 O427 1.266 . S
C412 C411 1.514 . S
C412 C413 1.359 . S
C412 C417 1.348 . S
C413 C412 1.359 . S
C413 C414 1.380 . S
C413 H436 0.929 . S
C414 C413 1.380 . S
C414 C415 1.347 . S
C414 H437 0.931 . S
C415 C414 1.347 . S
C415 C416 1.369 . S
C416 C415 1.369 . S
C416 C417 1.408 . S
C416 H438 0.930 . S
C417 C412 1.348 . S
C417 C416 1.408 . S
C417 H439 0.930 . S
C418 O428 1.281 . S
C418 O429 1.254 . S
C419 O430 1.236 . S
C419 O431 1.266 . S
O420 Tb400 2.484 . S
O420 C402 1.248 . S
O421 Tb400 2.440 . S
O421 C402 1.266 . S
O422 Tb400 2.658 . S
O422 Tb401 2.325 . S
O422 C409 1.281 . S
O423 Tb400 2.409 . S
O423 C409 1.254 . S
O424 Tb400 2.378 . S
O424 C410 1.236 . S
O425 Tb401 2.341 . S
O425 C410 1.266 . S
O426 Tb401 2.484 . S
O426 C411 1.248 . S
O427 Tb401 2.440 . S
O427 C411 1.266 . S
O428 Tb400 2.325 . S
O428 Tb401 2.658 . S
O428 C418 1.281 . S
O429 Tb401 2.409 . S
O429 C418 1.254 . S
O430 Tb401 2.378 . S
O430 C419 1.236 . S
O431 Tb400 2.341 . S
O431 C419 1.266 . S
H432 C404 0.929 . S
H433 C405 0.931 . S
H434 C407 0.930 . S
H435 C408 0.930 . S
H436 C413 0.929 . S
H437 C414 0.931 . S
H438 C416 0.930 . S
H439 C417 0.930 . S
Tb440 C442 2.809 . S
Tb440 O460 2.486 . S
Tb440 O461 2.440 . S
Tb440 O462 2.658 . S
Tb440 O463 2.409 . S
Tb440 O464 2.378 1_455 S
Tb440 O468 2.325 1_455 S
Tb440 O471 2.341 . S
Tb441 C451 2.809 . S
Tb441 O462 2.325 1_655 S
Tb441 O465 2.341 . S
Tb441 O466 2.484 1_655 S
Tb441 O467 2.440 . S
Tb441 O468 2.658 . S
Tb441 O469 2.409 . S
Tb441 O470 2.378 1_655 S
C442 Tb440 2.809 . S
C442 C443 1.514 . S
C442 O460 1.253 . S
C442 O461 1.266 . S
C443 C442 1.514 . S
C443 C444 1.359 1_455 S
C443 C448 1.348 . S
C444 C443 1.359 1_655 S
C444 C445 1.380 . S
C444 H472 0.929 . S
C445 C444 1.380 . S
C445 C446 1.347 1_655 S
C445 H473 0.931 . S
C446 C445 1.347 1_455 S
C446 C447 1.369 . S
C447 C446 1.369 . S
C447 C448 1.408 . S
C447 H474 0.930 . S
C448 C443 1.348 . S
C448 C447 1.408 . S
C448 H475 0.930 . S
C449 O462 1.281 . S
C449 O463 1.254 . S
C450 O464 1.236 . S
C450 O465 1.266 . S
C451 Tb441 2.809 . S
C451 C452 1.514 . S
C451 O466 1.248 1_655 S
C451 O467 1.266 . S
C452 C451 1.514 . S
C452 C453 1.359 1_655 S
C452 C457 1.348 . S
C453 C452 1.359 1_455 S
C453 C454 1.380 . S
C453 H476 0.929 . S
C454 C453 1.380 . S
C454 C455 1.347 1_455 S
C454 H477 0.931 . S
C455 C454 1.347 1_655 S
C455 C456 1.369 . S
C456 C455 1.369 . S
C456 C457 1.408 . S
C456 H478 0.930 . S
C457 C452 1.348 . S
C457 C456 1.408 . S
C457 H479 0.930 . S
C458 O468 1.281 . S
C458 O469 1.254 . S
C459 O470 1.236 . S
C459 O471 1.266 . S
O460 Tb440 2.486 . S
O460 C442 1.253 . S
O461 Tb440 2.440 . S
O461 C442 1.266 . S
O462 Tb440 2.658 . S
O462 Tb441 2.325 1_455 S
O462 C449 1.281 . S
O463 Tb440 2.409 . S
O463 C449 1.254 . S
O464 Tb440 2.378 1_655 S
O464 C450 1.236 . S
O465 Tb441 2.341 . S
O465 C450 1.266 . S
O466 Tb441 2.484 1_455 S
O466 C451 1.248 1_455 S
O467 Tb441 2.440 . S
O467 C451 1.266 . S
O468 Tb440 2.325 1_655 S
O468 Tb441 2.658 . S
O468 C458 1.281 . S
O469 Tb441 2.409 . S
O469 C458 1.254 . S
O470 Tb441 2.378 1_455 S
O470 C459 1.236 . S
O471 Tb440 2.341 . S
O471 C459 1.266 . S
H472 C444 0.929 . S
H473 C445 0.931 . S
H474 C447 0.930 . S
H475 C448 0.930 . S
H476 C453 0.929 . S
H477 C454 0.931 . S
H478 C456 0.930 . S
H479 C457 0.930 . S
Tb480 C482 2.809 . S
Tb480 O500 2.484 . S
Tb480 O501 2.440 . S
Tb480 O502 2.658 . S
Tb480 O503 2.409 . S
Tb480 O504 2.378 . S
Tb480 O508 2.325 . S
Tb480 O511 2.341 . S
Tb481 C491 2.809 . S
Tb481 O502 2.325 . S
Tb481 O505 2.341 . S
Tb481 O506 2.484 . S
Tb481 O507 2.440 . S
Tb481 O508 2.658 . S
Tb481 O509 2.409 . S
Tb481 O510 2.378 . S
C482 Tb480 2.809 . S
C482 C483 1.514 . S
C482 O500 1.248 . S
C482 O501 1.266 . S
C483 C482 1.514 . S
C483 C484 1.359 . S
C483 C488 1.348 . S
C484 C483 1.359 . S
C484 C485 1.380 . S
C484 H512 0.929 . S
C485 C484 1.380 . S
C485 C486 1.347 . S
C485 H513 0.931 . S
C486 C485 1.347 . S
C486 C487 1.369 . S
C487 C486 1.369 . S
C487 C488 1.408 . S
C487 H514 0.930 . S
C488 C483 1.348 . S
C488 C487 1.408 . S
C488 H515 0.930 . S
C489 O502 1.281 . S
C489 O503 1.254 . S
C490 O504 1.236 . S
C490 O505 1.266 . S
C491 Tb481 2.809 . S
C491 C492 1.514 . S
C491 O506 1.248 . S
C491 O507 1.266 . S
C492 C491 1.514 . S
C492 C493 1.359 . S
C492 C497 1.348 . S
C493 C492 1.359 . S
C493 C494 1.380 . S
C493 H516 0.929 . S
C494 C493 1.380 . S
C494 C495 1.347 . S
C494 H517 0.931 . S
C495 C494 1.347 . S
C495 C496 1.369 . S
C496 C495 1.369 . S
C496 C497 1.408 . S
C496 H518 0.930 . S
C497 C492 1.348 . S
C497 C496 1.408 . S
C497 H519 0.930 . S
C498 O508 1.281 . S
C498 O509 1.254 . S
C499 O510 1.236 . S
C499 O511 1.266 . S
O500 Tb480 2.484 . S
O500 C482 1.248 . S
O501 Tb480 2.440 . S
O501 C482 1.266 . S
O502 Tb480 2.658 . S
O502 Tb481 2.325 . S
O502 C489 1.281 . S
O503 Tb480 2.409 . S
O503 C489 1.254 . S
O504 Tb480 2.378 . S
O504 C490 1.236 . S
O505 Tb481 2.341 . S
O505 C490 1.266 . S
O506 Tb481 2.484 . S
O506 C491 1.248 . S
O507 Tb481 2.440 . S
O507 C491 1.266 . S
O508 Tb480 2.325 . S
O508 Tb481 2.658 . S
O508 C498 1.281 . S
O509 Tb481 2.409 . S
O509 C498 1.254 . S
O510 Tb481 2.378 . S
O510 C499 1.236 . S
O511 Tb480 2.341 . S
O511 C499 1.266 . S
H512 C484 0.929 . S
H513 C485 0.931 . S
H514 C487 0.930 . S
H515 C488 0.930 . S
H516 C493 0.929 . S
H517 C494 0.931 . S
H518 C496 0.930 . S
H519 C497 0.930 . S
Tb520 C522 2.809 . S
Tb520 O540 2.484 . S
Tb520 O541 2.440 . S
Tb520 O542 2.658 . S
Tb520 O543 2.409 . S
Tb520 O544 2.378 . S
Tb520 O548 2.325 1_554 S
Tb520 O551 2.341 . S
Tb521 C531 2.809 . S
Tb521 O542 2.325 1_556 S
Tb521 O545 2.341 . S
Tb521 O546 2.484 . S
Tb521 O547 2.440 . S
Tb521 O548 2.658 . S
Tb521 O549 2.409 . S
Tb521 O550 2.378 . S
C522 Tb520 2.809 . S
C522 C523 1.514 . S
C522 O540 1.248 . S
C522 O541 1.266 . S
C523 C522 1.514 . S
C523 C524 1.359 . S
C523 C528 1.348 . S
C524 C523 1.359 . S
C524 C525 1.380 . S
C524 H552 0.929 1_554 S
C525 C524 1.380 . S
C525 C526 1.347 . S
C525 H553 0.931 1_554 S
C526 C525 1.347 . S
C526 C527 1.369 . S
C527 C526 1.369 . S
C527 C528 1.408 . S
C527 H554 0.930 . S
C528 C523 1.348 . S
C528 C527 1.408 . S
C528 H555 0.930 . S
C529 O542 1.281 . S
C529 O543 1.254 . S
C530 O544 1.236 1_556 S
C530 O545 1.266 . S
C531 Tb521 2.809 . S
C531 C532 1.514 . S
C531 O546 1.248 . S
C531 O547 1.266 . S
C532 C531 1.514 . S
C532 C533 1.359 . S
C532 C537 1.348 . S
C533 C532 1.359 . S
C533 C534 1.380 . S
C533 H556 0.929 1_556 S
C534 C533 1.380 . S
C534 C535 1.347 . S
C534 H557 0.931 1_556 S
C535 C534 1.347 . S
C535 C536 1.369 . S
C536 C535 1.369 . S
C536 C537 1.408 . S
C536 H558 0.930 . S
C537 C532 1.348 . S
C537 C536 1.408 . S
C537 H559 0.930 . S
C538 O548 1.281 . S
C538 O549 1.254 . S
C539 O550 1.236 1_554 S
C539 O551 1.266 . S
O540 Tb520 2.484 . S
O540 C522 1.248 . S
O541 Tb520 2.440 . S
O541 C522 1.266 . S
O542 Tb520 2.658 . S
O542 Tb521 2.325 1_554 S
O542 C529 1.281 . S
O543 Tb520 2.409 . S
O543 C529 1.254 . S
O544 Tb520 2.378 . S
O544 C530 1.236 1_554 S
O545 Tb521 2.341 . S
O545 C530 1.266 . S
O546 Tb521 2.484 . S
O546 C531 1.248 . S
O547 Tb521 2.440 . S
O547 C531 1.266 . S
O548 Tb520 2.325 1_556 S
O548 Tb521 2.658 . S
O548 C538 1.281 . S
O549 Tb521 2.409 . S
O549 C538 1.254 . S
O550 Tb521 2.378 . S
O550 C539 1.236 1_556 S
O551 Tb520 2.341 . S
O551 C539 1.266 . S
H552 C524 0.929 1_556 S
H553 C525 0.931 1_556 S
H554 C527 0.930 . S
H555 C528 0.930 . S
H556 C533 0.929 1_554 S
H557 C534 0.931 1_554 S
H558 C536 0.930 . S
H559 C537 0.930 . S
Tb560 C562 2.809 . S
Tb560 O580 2.484 . S
Tb560 O581 2.440 . S
Tb560 O582 2.658 . S
Tb560 O583 2.409 . S
Tb560 O584 2.378 . S
Tb560 O588 2.325 1_565 S
Tb560 O591 2.341 1_565 S
Tb561 C571 2.809 . S
Tb561 O582 2.325 1_545 S
Tb561 O585 2.341 1_545 S
Tb561 O586 2.484 . S
Tb561 O587 2.440 . S
Tb561 O588 2.658 . S
Tb561 O589 2.409 . S
Tb561 O590 2.378 . S
C562 Tb560 2.809 . S
C562 C563 1.514 . S
C562 O580 1.248 . S
C562 O581 1.266 . S
C563 C562 1.514 . S
C563 C564 1.359 . S
C563 C568 1.348 . S
C564 C563 1.359 . S
C564 C565 1.380 . S
C564 H592 0.929 . S
C565 C564 1.380 . S
C565 C566 1.347 . S
C565 H593 0.931 . S
C566 C565 1.347 . S
C566 C567 1.369 . S
C567 C566 1.369 . S
C567 C568 1.408 . S
C567 H594 0.930 . S
C568 C563 1.348 . S
C568 C567 1.408 . S
C568 H595 0.930 . S
C569 O582 1.281 . S
C569 O583 1.254 . S
C570 O584 1.236 . S
C570 O585 1.266 . S
C571 Tb561 2.809 . S
C571 C572 1.514 . S
C571 O586 1.248 . S
C571 O587 1.266 . S
C572 C571 1.514 . S
C572 C573 1.359 . S
C572 C577 1.348 . S
C573 C572 1.359 . S
C573 C574 1.380 . S
C573 H596 0.929 . S
C574 C573 1.380 . S
C574 C575 1.347 . S
C574 H597 0.931 . S
C575 C574 1.347 . S
C575 C576 1.369 . S
C576 C575 1.369 . S
C576 C577 1.408 . S
C576 H598 0.930 . S
C577 C572 1.348 . S
C577 C576 1.408 . S
C577 H599 0.930 . S
C578 O588 1.281 . S
C578 O589 1.254 . S
C579 O590 1.236 . S
C579 O591 1.266 . S
O580 Tb560 2.484 . S
O580 C562 1.248 . S
O581 Tb560 2.440 . S
O581 C562 1.266 . S
O582 Tb560 2.658 . S
O582 Tb561 2.325 1_565 S
O582 C569 1.281 . S
O583 Tb560 2.409 . S
O583 C569 1.254 . S
O584 Tb560 2.378 . S
O584 C570 1.236 . S
O585 Tb561 2.341 1_565 S
O585 C570 1.266 . S
O586 Tb561 2.484 . S
O586 C571 1.248 . S
O587 Tb561 2.440 . S
O587 C571 1.266 . S
O588 Tb560 2.325 1_545 S
O588 Tb561 2.658 . S
O588 C578 1.281 . S
O589 Tb561 2.409 . S
O589 C578 1.254 . S
O590 Tb561 2.378 . S
O590 C579 1.236 . S
O591 Tb560 2.341 1_545 S
O591 C579 1.266 . S
H592 C564 0.929 . S
H593 C565 0.931 . S
H594 C567 0.930 . S
H595 C568 0.930 . S
H596 C573 0.929 . S
H597 C574 0.931 . S
H598 C576 0.930 . S
H599 C577 0.930 . S
Tb600 C602 2.809 . S
Tb600 O620 2.484 . S
Tb600 O621 2.440 . S
Tb600 O622 2.658 . S
Tb600 O623 2.409 . S
Tb600 O624 2.378 . S
Tb600 O628 2.325 1_554 S
Tb600 O631 2.341 . S
Tb601 C611 2.809 . S
Tb601 O622 2.325 1_556 S
Tb601 O625 2.341 . S
Tb601 O626 2.484 . S
Tb601 O627 2.440 . S
Tb601 O628 2.658 . S
Tb601 O629 2.409 . S
Tb601 O630 2.378 . S
C602 Tb600 2.809 . S
C602 C603 1.514 . S
C602 O620 1.248 . S
C602 O621 1.266 . S
C603 C602 1.514 . S
C603 C604 1.359 . S
C603 C608 1.348 . S
C604 C603 1.359 . S
C604 C605 1.380 . S
C604 H632 0.929 1_554 S
C605 C604 1.380 . S
C605 C606 1.347 . S
C605 H633 0.931 1_554 S
C606 C605 1.347 . S
C606 C607 1.369 . S
C607 C606 1.369 . S
C607 C608 1.408 . S
C607 H634 0.930 . S
C608 C603 1.348 . S
C608 C607 1.408 . S
C608 H635 0.930 . S
C609 O622 1.281 . S
C609 O623 1.254 . S
C610 O624 1.236 1_556 S
C610 O625 1.266 . S
C611 Tb601 2.809 . S
C611 C612 1.514 . S
C611 O626 1.248 . S
C611 O627 1.266 . S
C612 C611 1.514 . S
C612 C613 1.359 . S
C612 C617 1.348 . S
C613 C612 1.359 . S
C613 C614 1.380 . S
C613 H636 0.929 1_556 S
C614 C613 1.380 . S
C614 C615 1.347 . S
C614 H637 0.931 1_556 S
C615 C614 1.347 . S
C615 C616 1.369 . S
C616 C615 1.369 . S
C616 C617 1.408 . S
C616 H638 0.930 . S
C617 C612 1.348 . S
C617 C616 1.408 . S
C617 H639 0.930 . S
C618 O628 1.281 . S
C618 O629 1.254 . S
C619 O630 1.236 1_554 S
C619 O631 1.266 . S
O620 Tb600 2.484 . S
O620 C602 1.248 . S
O621 Tb600 2.440 . S
O621 C602 1.266 . S
O622 Tb600 2.658 . S
O622 Tb601 2.325 1_554 S
O622 C609 1.281 . S
O623 Tb600 2.409 . S
O623 C609 1.254 . S
O624 Tb600 2.378 . S
O624 C610 1.236 1_554 S
O625 Tb601 2.341 . S
O625 C610 1.266 . S
O626 Tb601 2.484 . S
O626 C611 1.248 . S
O627 Tb601 2.440 . S
O627 C611 1.266 . S
O628 Tb600 2.325 1_556 S
O628 Tb601 2.658 . S
O628 C618 1.281 . S
O629 Tb601 2.409 . S
O629 C618 1.254 . S
O630 Tb601 2.378 . S
O630 C619 1.236 1_556 S
O631 Tb600 2.341 . S
O631 C619 1.266 . S
H632 C604 0.929 1_556 S
H633 C605 0.931 1_556 S
H634 C607 0.930 . S
H635 C608 0.930 . S
H636 C613 0.929 1_554 S
H637 C614 0.931 1_554 S
H638 C616 0.930 . S
H639 C617 0.930 . S
H640 C648 0.950 . S
H641 C653 0.950 . S
H642 C650 0.950 . S
H643 C652 0.950 . S
H644 C654 0.950 . S
H645 C656 0.950 . S
H646 C658 0.950 . S
H647 C659 0.950 . S
C648 H640 0.950 . S
C648 C649 1.386 . S
C648 C650 1.391 . S
C649 C648 1.386 . S
C649 C653 1.393 1_655 S
C650 H642 0.950 . S
C650 C648 1.391 . S
C650 C651 1.400 . S
C651 C650 1.400 . S
C651 C652 1.398 1_655 S
C651 C657 1.491 . S
C652 H643 0.950 . S
C652 C651 1.398 1_455 S
C652 C653 1.391 . S
C653 H641 0.950 . S
C653 C649 1.393 1_455 S
C653 C652 1.391 . S
C654 H644 0.950 . S
C654 C655 1.386 1_455 S
C654 C656 1.391 . S
C655 C654 1.386 1_655 S
C655 C659 1.393 . S
C656 H645 0.950 . S
C656 C654 1.391 . S
C656 C657 1.400 1_455 S
C657 C651 1.491 . S
C657 C656 1.400 1_655 S
C657 C658 1.398 . S
C658 H646 0.950 . S
C658 C657 1.398 . S
C658 C659 1.391 . S
C659 H647 0.950 . S
C659 C655 1.393 . S
C659 C658 1.391 . S
H660 C668 0.950 . S
H661 C673 0.950 . S
H662 C670 0.950 . S
H663 C672 0.950 . S
H664 C674 0.950 . S
H665 C676 0.950 . S
H666 C678 0.950 . S
H667 C679 0.950 . S
C668 H660 0.950 . S
C668 C669 1.386 . S
C668 C670 1.391 . S
C669 C668 1.386 . S
C669 C673 1.393 . S
C670 H662 0.950 . S
C670 C668 1.391 . S
C670 C671 1.400 . S
C671 C670 1.400 . S
C671 C672 1.398 . S
C671 C677 1.491 . S
C672 H663 0.950 . S
C672 C671 1.398 . S
C672 C673 1.391 . S
C673 H661 0.950 . S
C673 C669 1.393 . S
C673 C672 1.391 . S
C674 H664 0.950 . S
C674 C675 1.386 . S
C674 C676 1.391 . S
C675 C674 1.386 . S
C675 C679 1.393 . S
C676 H665 0.950 . S
C676 C674 1.391 . S
C676 C677 1.400 . S
C677 C671 1.491 . S
C677 C676 1.400 . S
C677 C678 1.398 . S
C678 H666 0.950 . S
C678 C677 1.398 . S
C678 C679 1.391 . S
C679 H667 0.950 . S
C679 C675 1.393 . S
C679 C678 1.391 . S
H680 C688 0.950 . S
H681 C693 0.950 . S
H682 C690 0.950 . S
H683 C692 0.950 . S
H684 C694 0.950 . S
H685 C696 0.950 . S
H686 C698 0.950 . S
H687 C699 0.950 . S
C688 H680 0.950 . S
C688 C689 1.386 . S
C688 C690 1.391 . S
C689 C688 1.386 . S
C689 C693 1.393 . S
C690 H682 0.950 . S
C690 C688 1.391 . S
C690 C691 1.400 . S
C691 C690 1.400 . S
C691 C692 1.398 . S
C691 C697 1.491 . S
C692 H683 0.950 . S
C692 C691 1.398 . S
C692 C693 1.391 . S
C693 H681 0.950 . S
C693 C689 1.393 . S
C693 C692 1.391 . S
C694 H684 0.950 . S
C694 C695 1.386 . S
C694 C696 1.391 . S
C695 C694 1.386 . S
C695 C699 1.393 . S
C696 H685 0.950 . S
C696 C694 1.391 . S
C696 C697 1.400 . S
C697 C691 1.491 . S
C697 C696 1.400 . S
C697 C698 1.398 . S
C698 H686 0.950 . S
C698 C697 1.398 . S
C698 C699 1.391 . S
C699 H687 0.950 . S
C699 C695 1.393 . S
C699 C698 1.391 . S
H700 C708 0.950 1_565 S
H701 C713 0.950 . S
H702 C710 0.950 . S
H703 C712 0.950 . S
H704 C714 0.950 . S
H705 C716 0.950 . S
H706 C718 0.950 . S
H707 C719 0.950 . S
C708 H700 0.950 1_545 S
C708 C709 1.386 . S
C708 C710 1.391 1_545 S
C709 C708 1.386 . S
C709 C713 1.393 . S
C710 H702 0.950 . S
C710 C708 1.391 1_565 S
C710 C711 1.400 1_565 S
C711 C710 1.400 1_545 S
C711 C712 1.398 . S
C711 C717 1.491 . S
C712 H703 0.950 . S
C712 C711 1.398 . S
C712 C713 1.391 . S
C713 H701 0.950 . S
C713 C709 1.393 . S
C713 C712 1.391 . S
C714 H704 0.950 . S
C714 C715 1.386 1_545 S
C714 C716 1.391 . S
C715 C714 1.386 1_565 S
C715 C719 1.393 . S
C716 H705 0.950 . S
C716 C714 1.391 . S
C716 C717 1.400 . S
C717 C711 1.491 . S
C717 C716 1.400 . S
C717 C718 1.398 1_545 S
C718 H706 0.950 . S
C718 C717 1.398 1_565 S
C718 C719 1.391 . S
C719 H707 0.950 . S
C719 C715 1.393 . S
C719 C718 1.391 . S
H720 C728 0.950 . S
H721 C733 0.950 . S
H722 C730 0.950 . S
H723 C732 0.950 1_545 S
H724 C734 0.950 . S
H725 C736 0.950 . S
H726 C738 0.950 . S
H727 C739 0.950 . S
C728 H720 0.950 . S
C728 C729 1.386 . S
C728 C730 1.391 . S
C729 C728 1.386 . S
C729 C733 1.393 . S
C730 H722 0.950 . S
C730 C728 1.391 . S
C730 C731 1.400 . S
C731 C730 1.400 . S
C731 C732 1.398 . S
C731 C737 1.491 . S
C732 H723 0.950 1_565 S
C732 C731 1.398 . S
C732 C733 1.391 . S
C733 H721 0.950 . S
C733 C729 1.393 . S
C733 C732 1.391 . S
C734 H724 0.950 . S
C734 C735 1.386 . S
C734 C736 1.391 . S
C735 C734 1.386 . S
C735 C739 1.393 1_545 S
C736 H725 0.950 . S
C736 C734 1.391 . S
C736 C737 1.400 1_545 S
C737 C731 1.491 . S
C737 C736 1.400 1_565 S
C737 C738 1.398 . S
C738 H726 0.950 . S
C738 C737 1.398 . S
C738 C739 1.391 . S
C739 H727 0.950 . S
C739 C735 1.393 1_565 S
C739 C738 1.391 . S
H740 C748 0.950 . S
H741 C753 0.950 . S
H742 C750 0.950 . S
H743 C752 0.950 . S
H744 C754 0.950 . S
H745 C756 0.950 . S
H746 C758 0.950 . S
H747 C759 0.950 . S
C748 H740 0.950 . S
C748 C749 1.386 . S
C748 C750 1.391 . S
C749 C748 1.386 . S
C749 C753 1.393 . S
C750 H742 0.950 . S
C750 C748 1.391 . S
C750 C751 1.400 . S
C751 C750 1.400 . S
C751 C752 1.398 . S
C751 C757 1.491 . S
C752 H743 0.950 . S
C752 C751 1.398 . S
C752 C753 1.391 . S
C753 H741 0.950 . S
C753 C749 1.393 . S
C753 C752 1.391 . S
C754 H744 0.950 . S
C754 C755 1.386 . S
C754 C756 1.391 . S
C755 C754 1.386 . S
C755 C759 1.393 . S
C756 H745 0.950 . S
C756 C754 1.391 . S
C756 C757 1.400 . S
C757 C751 1.491 . S
C757 C756 1.400 . S
C757 C758 1.398 . S
C758 H746 0.950 . S
C758 C757 1.398 . S
C758 C759 1.391 . S
C759 H747 0.950 . S
C759 C755 1.393 . S
C759 C758 1.391 . S
H760 C768 0.950 . S
H761 C773 0.950 . S
H762 C770 0.950 . S
H763 C772 0.950 . S
H764 C774 0.950 . S
H765 C776 0.950 . S
H766 C778 0.950 . S
H767 C779 0.950 . S
C768 H760 0.950 . S
C768 C769 1.386 . S
C768 C770 1.391 . S
C769 C768 1.386 . S
C769 C773 1.393 . S
C770 H762 0.950 . S
C770 C768 1.391 . S
C770 C771 1.400 . S
C771 C770 1.400 . S
C771 C772 1.398 . S
C771 C777 1.491 . S
C772 H763 0.950 . S
C772 C771 1.398 . S
C772 C773 1.391 . S
C773 H761 0.950 . S
C773 C769 1.393 . S
C773 C772 1.391 . S
C774 H764 0.950 . S
C774 C775 1.386 . S
C774 C776 1.391 . S
C775 C774 1.386 . S
C775 C779 1.393 . S
C776 H765 0.950 . S
C776 C774 1.391 . S
C776 C777 1.400 . S
C777 C771 1.491 . S
C777 C776 1.400 . S
C777 C778 1.398 . S
C778 H766 0.950 . S
C778 C777 1.398 . S
C778 C779 1.391 . S
C779 H767 0.950 . S
C779 C775 1.393 . S
C779 C778 1.391 . S
H780 C788 0.950 . S
H781 C793 0.950 . S
H782 C790 0.950 . S
H783 C792 0.950 . S
H784 C794 0.950 1_554 S
H785 C796 0.950 . S
H786 C798 0.950 . S
H787 C799 0.950 . S
C788 H780 0.950 . S
C788 C789 1.386 . S
C788 C790 1.391 . S
C789 C788 1.386 . S
C789 C793 1.393 . S
C790 H782 0.950 . S
C790 C788 1.391 . S
C790 C791 1.400 . S
C791 C790 1.400 . S
C791 C792 1.398 . S
C791 C797 1.491 . S
C792 H783 0.950 . S
C792 C791 1.398 . S
C792 C793 1.391 . S
C793 H781 0.950 . S
C793 C789 1.393 . S
C793 C792 1.391 . S
C794 H784 0.950 1_556 S
C794 C795 1.386 . S
C794 C796 1.391 . S
C795 C794 1.386 . S
C795 C799 1.393 . S
C796 H785 0.950 . S
C796 C794 1.391 . S
C796 C797 1.400 . S
C797 C791 1.491 . S
C797 C796 1.400 . S
C797 C798 1.398 . S
C798 H786 0.950 . S
C798 C797 1.398 . S
C798 C799 1.391 . S
C799 H787 0.950 . S
C799 C795 1.393 . S
C799 C798 1.391 . S
H800 C808 0.950 . S
H801 C813 0.950 . S
H802 C810 0.950 . S
H803 C812 0.950 . S
H804 C814 0.950 . S
H805 C816 0.950 . S
H806 C818 0.950 . S
H807 C819 0.950 . S
C808 H800 0.950 . S
C808 C809 1.386 . S
C808 C810 1.391 . S
C809 C808 1.386 . S
C809 C813 1.393 . S
C810 H802 0.950 . S
C810 C808 1.391 . S
C810 C811 1.400 . S
C811 C810 1.400 . S
C811 C812 1.398 . S
C811 C817 1.491 . S
C812 H803 0.950 . S
C812 C811 1.398 . S
C812 C813 1.391 . S
C813 H801 0.950 . S
C813 C809 1.393 . S
C813 C812 1.391 . S
C814 H804 0.950 . S
C814 C815 1.386 . S
C814 C816 1.391 . S
C815 C814 1.386 . S
C815 C819 1.393 . S
C816 H805 0.950 . S
C816 C814 1.391 . S
C816 C817 1.400 . S
C817 C811 1.491 . S
C817 C816 1.400 . S
C817 C818 1.398 . S
C818 H806 0.950 . S
C818 C817 1.398 . S
C818 C819 1.391 . S
C819 H807 0.950 . S
C819 C815 1.393 . S
C819 C818 1.391 . S
H820 C828 0.950 . S
H821 C833 0.950 . S
H822 C830 0.950 . S
H823 C832 0.950 . S
H824 C834 0.950 . S
H825 C836 0.950 . S
H826 C838 0.950 . S
H827 C839 0.950 . S
C828 H820 0.950 . S
C828 C829 1.386 . S
C828 C830 1.391 . S
C829 C828 1.386 . S
C829 C833 1.393 . S
C830 H822 0.950 . S
C830 C828 1.391 . S
C830 C831 1.400 . S
C831 C830 1.400 . S
C831 C832 1.398 . S
C831 C837 1.491 . S
C832 H823 0.950 . S
C832 C831 1.398 . S
C832 C833 1.391 . S
C833 H821 0.950 . S
C833 C829 1.393 . S
C833 C832 1.391 . S
C834 H824 0.950 . S
C834 C835 1.386 . S
C834 C836 1.391 . S
C835 C834 1.386 . S
C835 C839 1.393 . S
C836 H825 0.950 . S
C836 C834 1.391 . S
C836 C837 1.400 . S
C837 C831 1.491 . S
C837 C836 1.400 . S
C837 C838 1.398 . S
C838 H826 0.950 . S
C838 C837 1.398 . S
C838 C839 1.391 . S
C839 H827 0.950 . S
C839 C835 1.393 . S
C839 C838 1.391 . S
H840 C848 0.981 . S
H841 C853 0.950 . S
H842 C850 0.950 . S
H843 C852 0.950 . S
H844 C854 0.950 . S
H845 C856 0.950 . S
H846 C858 0.950 . S
H847 C859 0.950 . S
C848 H840 0.981 . S
C848 C849 1.326 1_545 S
C848 C850 1.422 . S
C849 C848 1.326 1_565 S
C849 C853 1.393 . S
C850 H842 0.950 . S
C850 C848 1.422 . S
C850 C851 1.400 1_545 S
C851 C850 1.400 1_565 S
C851 C852 1.398 . S
C851 C857 1.491 . S
C852 H843 0.950 . S
C852 C851 1.398 . S
C852 C853 1.391 . S
C853 H841 0.950 . S
C853 C849 1.393 . S
C853 C852 1.391 . S
C854 H844 0.950 . S
C854 C855 1.386 1_565 S
C854 C856 1.391 . S
C855 C854 1.386 1_545 S
C855 C859 1.393 . S
C856 H845 0.950 . S
C856 C854 1.391 . S
C856 C857 1.400 . S
C857 C851 1.491 . S
C857 C856 1.400 . S
C857 C858 1.398 1_565 S
C858 H846 0.950 . S
C858 C857 1.398 1_545 S
C858 C859 1.391 . S
C859 H847 0.950 . S
C859 C855 1.393 . S
C859 C858 1.391 . S
H860 C868 0.950 . S
H861 C873 0.950 1_655 S
H862 C870 0.950 . S
H863 C872 0.950 1_655 S
H864 C874 0.955 . S
H865 C876 0.950 1_655 S
H866 C878 0.950 . S
H867 C879 0.950 . S
C868 H860 0.950 . S
C868 C869 1.386 . S
C868 C870 1.391 . S
C869 C868 1.386 . S
C869 C873 1.393 . S
C870 H862 0.950 . S
C870 C868 1.391 . S
C870 C871 1.400 . S
C871 C870 1.400 . S
C871 C872 1.398 . S
C871 C877 1.491 . S
C872 H863 0.950 1_455 S
C872 C871 1.398 . S
C872 C873 1.391 . S
C873 H861 0.950 1_455 S
C873 C869 1.393 . S
C873 C872 1.391 . S
C874 H864 0.955 . S
C874 C875 1.384 1_655 S
C874 C876 1.388 1_655 S
C875 C874 1.384 1_455 S
C875 C879 1.393 . S
C876 H865 0.950 1_455 S
C876 C874 1.388 1_455 S
C876 C877 1.400 . S
C877 C871 1.491 . S
C877 C876 1.400 . S
C877 C878 1.398 . S
C878 H866 0.950 . S
C878 C877 1.398 . S
C878 C879 1.391 . S
C879 H867 0.950 . S
C879 C875 1.393 . S
C879 C878 1.391 . S
H880 C888 0.950 . S
H881 C893 0.950 1_554 S
H882 C890 0.950 . S
H883 C892 0.950 1_554 S
H884 C894 0.950 1_554 S
H885 C896 0.950 1_554 S
H886 C898 0.950 . S
H887 C899 0.950 . S
C888 H880 0.950 . S
C888 C889 1.386 . S
C888 C890 1.391 . S
C889 C888 1.386 . S
C889 C893 1.393 . S
C890 H882 0.950 . S
C890 C888 1.391 . S
C890 C891 1.400 . S
C891 C890 1.400 . S
C891 C892 1.398 . S
C891 C897 1.491 . S
C892 H883 0.950 1_556 S
C892 C891 1.398 . S
C892 C893 1.391 . S
C893 H881 0.950 1_556 S
C893 C889 1.393 . S
C893 C892 1.391 . S
C894 H884 0.950 1_556 S
C894 C895 1.386 . S
C894 C896 1.391 . S
C895 C894 1.386 . S
C895 C899 1.393 . S
C896 H885 0.950 1_556 S
C896 C894 1.391 . S
C896 C897 1.400 . S
C897 C891 1.491 . S
C897 C896 1.400 . S
C897 C898 1.398 . S
C898 H886 0.950 . S
C898 C897 1.398 . S
C898 C899 1.391 . S
C899 H887 0.950 . S
C899 C895 1.393 . S
C899 C898 1.391 . S
H900 C908 0.950 . S
H901 C913 0.950 . S
H902 C910 0.950 . S
H903 C912 0.950 . S
H904 C914 0.950 . S
H905 C916 0.950 . S
H906 C918 0.950 . S
H907 C919 0.950 . S
C908 H900 0.950 . S
C908 C909 1.386 . S
C908 C910 1.391 . S
C909 C908 1.386 . S
C909 C913 1.393 . S
C910 H902 0.950 . S
C910 C908 1.391 . S
C910 C911 1.400 . S
C911 C910 1.400 . S
C911 C912 1.398 . S
C911 C917 1.491 . S
C912 H903 0.950 . S
C912 C911 1.398 . S
C912 C913 1.391 . S
C913 H901 0.950 . S
C913 C909 1.393 . S
C913 C912 1.391 . S
C914 H904 0.950 . S
C914 C915 1.386 . S
C914 C916 1.391 . S
C915 C914 1.386 . S
C915 C919 1.393 . S
C916 H905 0.950 . S
C916 C914 1.391 . S
C916 C917 1.400 . S
C917 C911 1.491 . S
C917 C916 1.400 . S
C917 C918 1.398 . S
C918 H906 0.950 . S
C918 C917 1.398 . S
C918 C919 1.391 . S
C919 H907 0.950 . S
C919 C915 1.393 . S
C919 C918 1.391 . S
H920 C928 0.950 . S
H921 C933 0.950 . S
H922 C930 0.950 . S
H923 C932 0.950 . S
H924 C934 0.950 . S
H925 C936 0.950 . S
H926 C938 0.950 . S
H927 C939 0.950 . S
C928 H920 0.950 . S
C928 C929 1.386 . S
C928 C930 1.391 . S
C929 C928 1.386 . S
C929 C933 1.393 . S
C930 H922 0.950 . S
C930 C928 1.391 . S
C930 C931 1.400 . S
C931 C930 1.400 . S
C931 C932 1.398 . S
C931 C937 1.491 . S
C932 H923 0.950 . S
C932 C931 1.398 . S
C932 C933 1.391 . S
C933 H921 0.950 . S
C933 C929 1.393 . S
C933 C932 1.391 . S
C934 H924 0.950 . S
C934 C935 1.386 . S
C934 C936 1.391 . S
C935 C934 1.386 . S
C935 C939 1.393 . S
C936 H925 0.950 . S
C936 C934 1.391 . S
C936 C937 1.400 . S
C937 C931 1.491 . S
C937 C936 1.400 . S
C937 C938 1.398 . S
C938 H926 0.950 . S
C938 C937 1.398 . S
C938 C939 1.391 . S
C939 H927 0.950 . S
C939 C935 1.393 . S
C939 C938 1.391 . S
H940 C948 0.950 . S
H941 C953 0.950 . S
H942 C950 0.950 . S
H943 C952 0.950 . S
H944 C954 0.950 . S
H945 C956 0.950 . S
H946 C958 0.950 . S
H947 C959 0.950 . S
C948 H940 0.950 . S
C948 C949 1.386 . S
C948 C950 1.391 . S
C949 C948 1.386 . S
C949 C953 1.393 . S
C950 H942 0.950 . S
C950 C948 1.391 . S
C950 C951 1.400 . S
C951 C950 1.400 . S
C951 C952 1.398 . S
C951 C957 1.491 . S
C952 H943 0.950 . S
C952 C951 1.398 . S
C952 C953 1.391 . S
C953 H941 0.950 . S
C953 C949 1.393 . S
C953 C952 1.391 . S
C954 H944 0.950 . S
C954 C955 1.386 . S
C954 C956 1.391 . S
C955 C954 1.386 . S
C955 C959 1.393 . S
C956 H945 0.950 . S
C956 C954 1.391 . S
C956 C957 1.400 . S
C957 C951 1.491 . S
C957 C956 1.400 . S
C957 C958 1.398 . S
C958 H946 0.950 . S
C958 C957 1.398 . S
C958 C959 1.391 . S
C959 H947 0.950 . S
C959 C955 1.393 . S
C959 C958 1.391 . S
H960 C968 0.950 . S
H961 C973 0.950 . S
H962 C970 0.950 . S
H963 C972 0.950 . S
H964 C974 0.950 . S
H965 C976 0.950 . S
H966 C978 0.950 . S
H967 C979 0.950 . S
C968 H960 0.950 . S
C968 C969 1.386 . S
C968 C970 1.391 . S
C969 C968 1.386 . S
C969 C973 1.393 . S
C970 H962 0.950 . S
C970 C968 1.391 . S
C970 C971 1.400 . S
C971 C970 1.400 . S
C971 C972 1.398 . S
C971 C977 1.491 . S
C972 H963 0.950 . S
C972 C971 1.398 . S
C972 C973 1.391 . S
C973 H961 0.950 . S
C973 C969 1.393 . S
C973 C972 1.391 . S
C974 H964 0.950 . S
C974 C975 1.386 . S
C974 C976 1.391 . S
C975 C974 1.386 . S
C975 C979 1.393 . S
C976 H965 0.950 . S
C976 C974 1.391 . S
C976 C977 1.400 . S
C977 C971 1.491 . S
C977 C976 1.400 . S
C977 C978 1.398 . S
C978 H966 0.950 . S
C978 C977 1.398 . S
C978 C979 1.391 . S
C979 H967 0.950 . S
C979 C975 1.393 . S
C979 C978 1.391 . S
H980 C988 0.950 . S
H981 C993 0.950 . S
H982 C990 0.950 . S
H983 C992 0.950 . S
H984 C994 0.950 . S
H985 C996 0.950 . S
H986 C998 0.950 . S
H987 C999 0.950 . S
C988 H980 0.950 . S
C988 C989 1.386 . S
C988 C990 1.391 . S
C989 C988 1.386 . S
C989 C993 1.393 . S
C990 H982 0.950 . S
C990 C988 1.391 . S
C990 C991 1.400 . S
C991 C990 1.400 . S
C991 C992 1.398 . S
C991 C997 1.491 . S
C992 H983 0.950 . S
C992 C991 1.398 . S
C992 C993 1.391 . S
C993 H981 0.950 . S
C993 C989 1.393 . S
C993 C992 1.391 . S
C994 H984 0.950 . S
C994 C995 1.386 . S
C994 C996 1.391 . S
C995 C994 1.386 . S
C995 C999 1.393 . S
C996 H985 0.950 . S
C996 C994 1.391 . S
C996 C997 1.400 . S
C997 C991 1.491 . S
C997 C996 1.400 . S
C997 C998 1.398 . S
C998 H986 0.950 . S
C998 C997 1.398 . S
C998 C999 1.391 . S
C999 H987 0.950 . S
C999 C995 1.393 . S
C999 C998 1.391 . S
H1000 C1008 0.950 . S
H1001 C1013 0.950 . S
H1002 C1010 0.950 . S
H1003 C1012 0.950 . S
H1004 C1014 0.950 . S
H1005 C1016 0.950 . S
H1006 C1018 0.950 . S
H1007 C1019 0.950 . S
C1008 H1000 0.950 . S
C1008 C1009 1.386 . S
C1008 C1010 1.391 . S
C1009 C1008 1.386 . S
C1009 C1013 1.393 . S
C1010 H1002 0.950 . S
C1010 C1008 1.391 . S
C1010 C1011 1.400 . S
C1011 C1010 1.400 . S
C1011 C1012 1.398 . S
C1011 C1017 1.491 . S
C1012 H1003 0.950 . S
C1012 C1011 1.398 . S
C1012 C1013 1.391 . S
C1013 H1001 0.950 . S
C1013 C1009 1.393 . S
C1013 C1012 1.391 . S
C1014 H1004 0.950 . S
C1014 C1015 1.386 . S
C1014 C1016 1.391 . S
C1015 C1014 1.386 . S
C1015 C1019 1.393 . S
C1016 H1005 0.950 . S
C1016 C1014 1.391 . S
C1016 C1017 1.400 . S
C1017 C1011 1.491 . S
C1017 C1016 1.400 . S
C1017 C1018 1.398 . S
C1018 H1006 0.950 . S
C1018 C1017 1.398 . S
C1018 C1019 1.391 . S
C1019 H1007 0.950 . S
C1019 C1015 1.393 . S
C1019 C1018 1.391 . S
H1020 C1028 0.950 . S
H1021 C1033 0.950 . S
H1022 C1030 0.950 . S
H1023 C1032 0.950 . S
H1024 C1034 0.950 . S
H1025 C1036 0.950 . S
H1026 C1038 0.950 . S
H1027 C1039 0.950 . S
C1028 H1020 0.950 . S
C1028 C1029 1.386 . S
C1028 C1030 1.391 . S
C1029 C1028 1.386 . S
C1029 C1033 1.393 . S
C1030 H1022 0.950 . S
C1030 C1028 1.391 . S
C1030 C1031 1.400 . S
C1031 C1030 1.400 . S
C1031 C1032 1.398 . S
C1031 C1037 1.491 . S
C1032 H1023 0.950 . S
C1032 C1031 1.398 . S
C1032 C1033 1.391 . S
C1033 H1021 0.950 . S
C1033 C1029 1.393 . S
C1033 C1032 1.391 . S
C1034 H1024 0.950 . S
C1034 C1035 1.386 . S
C1034 C1036 1.391 . S
C1035 C1034 1.386 . S
C1035 C1039 1.393 . S
C1036 H1025 0.950 . S
C1036 C1034 1.391 . S
C1036 C1037 1.400 . S
C1037 C1031 1.491 . S
C1037 C1036 1.400 . S
C1037 C1038 1.398 . S
C1038 H1026 0.950 . S
C1038 C1037 1.398 . S
C1038 C1039 1.391 . S
C1039 H1027 0.950 . S
C1039 C1035 1.393 . S
C1039 C1038 1.391 . S
H1040 C1048 0.950 . S
H1041 C1053 0.950 . S
H1042 C1050 0.950 . S
H1043 C1052 0.950 . S
H1044 C1054 0.950 . S
H1045 C1056 0.950 . S
H1046 C1058 0.950 . S
H1047 C1059 0.950 . S
C1048 H1040 0.950 . S
C1048 C1049 1.386 . S
C1048 C1050 1.391 . S
C1049 C1048 1.386 . S
C1049 C1053 1.393 . S
C1050 H1042 0.950 . S
C1050 C1048 1.391 . S
C1050 C1051 1.400 . S
C1051 C1050 1.400 . S
C1051 C1052 1.398 . S
C1051 C1057 1.491 . S
C1052 H1043 0.950 . S
C1052 C1051 1.398 . S
C1052 C1053 1.391 . S
C1053 H1041 0.950 . S
C1053 C1049 1.393 . S
C1053 C1052 1.391 . S
C1054 H1044 0.950 . S
C1054 C1055 1.386 . S
C1054 C1056 1.391 . S
C1055 C1054 1.386 . S
C1055 C1059 1.393 . S
C1056 H1045 0.950 . S
C1056 C1054 1.391 . S
C1056 C1057 1.400 . S
C1057 C1051 1.491 . S
C1057 C1056 1.400 . S
C1057 C1058 1.398 . S
C1058 H1046 0.950 . S
C1058 C1057 1.398 . S
C1058 C1059 1.391 . S
C1059 H1047 0.950 . S
C1059 C1055 1.393 . S
C1059 C1058 1.391 . S
H1060 C1068 0.950 . S
H1061 C1073 0.950 . S
H1062 C1070 0.950 . S
H1063 C1072 0.950 . S
H1064 C1074 0.950 . S
H1065 C1076 0.950 . S
H1066 C1078 0.950 . S
H1067 C1079 0.950 . S
C1068 H1060 0.950 . S
C1068 C1069 1.386 1_455 S
C1068 C1070 1.391 . S
C1069 C1068 1.386 1_655 S
C1069 C1073 1.393 . S
C1070 H1062 0.950 . S
C1070 C1068 1.391 . S
C1070 C1071 1.400 1_455 S
C1071 C1070 1.400 1_655 S
C1071 C1072 1.398 . S
C1071 C1077 1.491 . S
C1072 H1063 0.950 . S
C1072 C1071 1.398 . S
C1072 C1073 1.391 . S
C1073 H1061 0.950 . S
C1073 C1069 1.393 . S
C1073 C1072 1.391 . S
C1074 H1064 0.950 . S
C1074 C1075 1.386 . S
C1074 C1076 1.391 . S
C1075 C1074 1.386 . S
C1075 C1079 1.393 1_655 S
C1076 H1065 0.950 . S
C1076 C1074 1.391 . S
C1076 C1077 1.400 . S
C1077 C1071 1.491 . S
C1077 C1076 1.400 . S
C1077 C1078 1.398 1_655 S
C1078 H1066 0.950 . S
C1078 C1077 1.398 1_455 S
C1078 C1079 1.391 . S
C1079 H1067 0.950 . S
C1079 C1075 1.393 1_455 S
C1079 C1078 1.391 . S
H1080 C1088 0.950 . S
H1081 C1093 0.950 . S
H1082 C1090 0.950 . S
H1083 C1092 0.950 . S
H1084 C1094 0.950 . S
H1085 C1096 0.950 . S
H1086 C1098 0.950 . S
H1087 C1099 0.950 . S
C1088 H1080 0.950 . S
C1088 C1089 1.386 . S
C1088 C1090 1.391 . S
C1089 C1088 1.386 . S
C1089 C1093 1.393 . S
C1090 H1082 0.950 . S
C1090 C1088 1.391 . S
C1090 C1091 1.400 . S
C1091 C1090 1.400 . S
C1091 C1092 1.398 . S
C1091 C1097 1.491 . S
C1092 H1083 0.950 . S
C1092 C1091 1.398 . S
C1092 C1093 1.391 . S
C1093 H1081 0.950 . S
C1093 C1089 1.393 . S
C1093 C1092 1.391 . S
C1094 H1084 0.950 . S
C1094 C1095 1.386 . S
C1094 C1096 1.391 . S
C1095 C1094 1.386 . S
C1095 C1099 1.393 . S
C1096 H1085 0.950 . S
C1096 C1094 1.391 . S
C1096 C1097 1.400 . S
C1097 C1091 1.491 . S
C1097 C1096 1.400 . S
C1097 C1098 1.398 . S
C1098 H1086 0.950 . S
C1098 C1097 1.398 . S
C1098 C1099 1.391 . S
C1099 H1087 0.950 . S
C1099 C1095 1.393 . S
C1099 C1098 1.391 . S
H1100 C1108 0.950 . S
H1101 C1113 0.950 . S
H1102 C1110 0.950 . S
H1103 C1112 0.950 . S
H1104 C1114 0.950 . S
H1105 C1116 0.950 . S
H1106 C1118 0.950 . S
H1107 C1119 0.950 . S
C1108 H1100 0.950 . S
C1108 C1109 1.386 . S
C1108 C1110 1.391 . S
C1109 C1108 1.386 . S
C1109 C1113 1.393 . S
C1110 H1102 0.950 . S
C1110 C1108 1.391 . S
C1110 C1111 1.400 . S
C1111 C1110 1.400 . S
C1111 C1112 1.398 . S
C1111 C1117 1.491 . S
C1112 H1103 0.950 . S
C1112 C1111 1.398 . S
C1112 C1113 1.391 . S
C1113 H1101 0.950 . S
C1113 C1109 1.393 . S
C1113 C1112 1.391 . S
C1114 H1104 0.950 . S
C1114 C1115 1.386 . S
C1114 C1116 1.391 . S
C1115 C1114 1.386 . S
C1115 C1119 1.393 . S
C1116 H1105 0.950 . S
C1116 C1114 1.391 . S
C1116 C1117 1.400 . S
C1117 C1111 1.491 . S
C1117 C1116 1.400 . S
C1117 C1118 1.398 . S
C1118 H1106 0.950 . S
C1118 C1117 1.398 . S
C1118 C1119 1.391 . S
C1119 H1107 0.950 . S
C1119 C1115 1.393 . S
C1119 C1118 1.391 . S
H1120 C1128 0.950 . S
H1121 C1133 0.950 . S
H1122 C1130 0.950 . S
H1123 C1132 0.950 . S
H1124 C1134 0.950 . S
H1125 C1136 0.950 . S
H1126 C1138 0.950 . S
H1127 C1139 0.950 . S
C1128 H1120 0.950 . S
C1128 C1129 1.386 . S
C1128 C1130 1.391 . S
C1129 C1128 1.386 . S
C1129 C1133 1.393 . S
C1130 H1122 0.950 . S
C1130 C1128 1.391 . S
C1130 C1131 1.400 . S
C1131 C1130 1.400 . S
C1131 C1132 1.398 . S
C1131 C1137 1.491 . S
C1132 H1123 0.950 . S
C1132 C1131 1.398 . S
C1132 C1133 1.391 . S
C1133 H1121 0.950 . S
C1133 C1129 1.393 . S
C1133 C1132 1.391 . S
C1134 H1124 0.950 . S
C1134 C1135 1.386 . S
C1134 C1136 1.391 . S
C1135 C1134 1.386 . S
C1135 C1139 1.393 . S
C1136 H1125 0.950 . S
C1136 C1134 1.391 . S
C1136 C1137 1.400 . S
C1137 C1131 1.491 . S
C1137 C1136 1.400 . S
C1137 C1138 1.398 . S
C1138 H1126 0.950 . S
C1138 C1137 1.398 . S
C1138 C1139 1.391 . S
C1139 H1127 0.950 . S
C1139 C1135 1.393 . S
C1139 C1138 1.391 . S
H1140 C1148 0.950 . S
H1141 C1153 0.950 . S
H1142 C1150 0.950 . S
H1143 C1152 0.950 . S
H1144 C1154 0.950 . S
H1145 C1156 0.950 . S
H1146 C1158 0.950 . S
H1147 C1159 0.950 . S
C1148 H1140 0.950 . S
C1148 C1149 1.386 . S
C1148 C1150 1.391 . S
C1149 C1148 1.386 . S
C1149 C1153 1.393 . S
C1150 H1142 0.950 . S
C1150 C1148 1.391 . S
C1150 C1151 1.400 . S
C1151 C1150 1.400 . S
C1151 C1152 1.398 . S
C1151 C1157 1.491 . S
C1152 H1143 0.950 . S
C1152 C1151 1.398 . S
C1152 C1153 1.391 . S
C1153 H1141 0.950 . S
C1153 C1149 1.393 . S
C1153 C1152 1.391 . S
C1154 H1144 0.950 . S
C1154 C1155 1.386 . S
C1154 C1156 1.391 . S
C1155 C1154 1.386 . S
C1155 C1159 1.393 . S
C1156 H1145 0.950 . S
C1156 C1154 1.391 . S
C1156 C1157 1.400 . S
C1157 C1151 1.491 . S
C1157 C1156 1.400 . S
C1157 C1158 1.398 . S
C1158 H1146 0.950 . S
C1158 C1157 1.398 . S
C1158 C1159 1.391 . S
C1159 H1147 0.950 . S
C1159 C1155 1.393 . S
C1159 C1158 1.391 . S
H1160 C1168 0.950 . S
H1161 C1173 0.950 . S
H1162 C1170 0.950 . S
H1163 C1172 0.950 . S
H1164 C1174 0.950 . S
H1165 C1176 0.950 . S
H1166 C1178 0.948 1_565 S
H1167 C1179 0.950 1_565 S
C1168 H1160 0.950 . S
C1168 C1169 1.386 . S
C1168 C1170 1.391 . S
C1169 C1168 1.386 . S
C1169 C1173 1.393 1_565 S
C1170 H1162 0.950 . S
C1170 C1168 1.391 . S
C1170 C1171 1.400 1_565 S
C1171 C1170 1.400 1_545 S
C1171 C1172 1.398 . S
C1171 C1177 1.491 . S
C1172 H1163 0.950 . S
C1172 C1171 1.398 . S
C1172 C1173 1.391 . S
C1173 H1161 0.950 . S
C1173 C1169 1.393 1_545 S
C1173 C1172 1.391 . S
C1174 H1164 0.950 . S
C1174 C1175 1.386 . S
C1174 C1176 1.391 . S
C1175 C1174 1.386 . S
C1175 C1179 1.393 . S
C1176 H1165 0.950 . S
C1176 C1174 1.391 . S
C1176 C1177 1.400 . S
C1177 C1171 1.491 . S
C1177 C1176 1.400 . S
C1177 C1178 1.399 . S
C1178 H1166 0.948 1_545 S
C1178 C1177 1.399 . S
C1178 C1179 1.392 . S
C1179 H1167 0.950 1_545 S
C1179 C1175 1.393 . S
C1179 C1178 1.392 . S
H1180 C1188 0.950 . S
H1181 C1193 0.950 . S
H1182 C1190 0.950 . S
H1183 C1192 0.950 . S
H1184 C1194 0.950 . S
H1185 C1196 0.950 . S
H1186 C1198 0.930 1_556 S
H1187 C1199 0.948 1_556 S
C1188 H1180 0.950 . S
C1188 C1189 1.386 . S
C1188 C1190 1.391 . S
C1189 C1188 1.386 . S
C1189 C1193 1.393 . S
C1190 H1182 0.950 . S
C1190 C1188 1.391 . S
C1190 C1191 1.400 . S
C1191 C1190 1.400 . S
C1191 C1192 1.398 . S
C1191 C1197 1.491 . S
C1192 H1183 0.950 . S
C1192 C1191 1.398 . S
C1192 C1193 1.391 . S
C1193 H1181 0.950 . S
C1193 C1189 1.393 . S
C1193 C1192 1.391 . S
C1194 H1184 0.950 . S
C1194 C1195 1.386 . S
C1194 C1196 1.391 . S
C1195 C1194 1.386 . S
C1195 C1199 1.393 . S
C1196 H1185 0.950 . S
C1196 C1194 1.391 . S
C1196 C1197 1.400 . S
C1197 C1191 1.491 . S
C1197 C1196 1.400 . S
C1197 C1198 1.398 . S
C1198 H1186 0.930 1_554 S
C1198 C1197 1.398 . S
C1198 C1199 1.391 . S
C1199 H1187 0.948 1_554 S
C1199 C1195 1.393 . S
C1199 C1198 1.391 . S
H1200 C1208 0.950 . S
H1201 C1213 0.950 . S
H1202 C1210 0.950 . S
H1203 C1212 0.950 . S
H1204 C1214 0.950 . S
H1205 C1216 0.950 . S
H1206 C1218 0.950 . S
H1207 C1219 0.950 . S
C1208 H1200 0.950 . S
C1208 C1209 1.386 . S
C1208 C1210 1.391 . S
C1209 C1208 1.386 . S
C1209 C1213 1.393 . S
C1210 H1202 0.950 . S
C1210 C1208 1.391 . S
C1210 C1211 1.400 . S
C1211 C1210 1.400 . S
C1211 C1212 1.398 . S
C1211 C1217 1.491 . S
C1212 H1203 0.950 . S
C1212 C1211 1.398 . S
C1212 C1213 1.391 . S
C1213 H1201 0.950 . S
C1213 C1209 1.393 . S
C1213 C1212 1.391 . S
C1214 H1204 0.950 . S
C1214 C1215 1.386 . S
C1214 C1216 1.391 . S
C1215 C1214 1.386 . S
C1215 C1219 1.393 . S
C1216 H1205 0.950 . S
C1216 C1214 1.391 . S
C1216 C1217 1.400 . S
C1217 C1211 1.491 . S
C1217 C1216 1.400 . S
C1217 C1218 1.398 . S
C1218 H1206 0.950 . S
C1218 C1217 1.398 . S
C1218 C1219 1.391 . S
C1219 H1207 0.950 . S
C1219 C1215 1.393 . S
C1219 C1218 1.391 . S
H1220 C1228 0.950 . S
H1221 C1233 0.950 . S
H1222 C1230 0.950 . S
H1223 C1232 0.950 . S
H1224 C1234 0.950 . S
H1225 C1236 0.950 . S
H1226 C1238 0.950 . S
H1227 C1239 0.950 . S
C1228 H1220 0.950 . S
C1228 C1229 1.386 . S
C1228 C1230 1.391 . S
C1229 C1228 1.386 . S
C1229 C1233 1.393 . S
C1230 H1222 0.950 . S
C1230 C1228 1.391 . S
C1230 C1231 1.400 . S
C1231 C1230 1.400 . S
C1231 C1232 1.398 . S
C1231 C1237 1.491 . S
C1232 H1223 0.950 . S
C1232 C1231 1.398 . S
C1232 C1233 1.391 . S
C1233 H1221 0.950 . S
C1233 C1229 1.393 . S
C1233 C1232 1.391 . S
C1234 H1224 0.950 . S
C1234 C1235 1.386 . S
C1234 C1236 1.391 . S
C1235 C1234 1.386 . S
C1235 C1239 1.393 . S
C1236 H1225 0.950 . S
C1236 C1234 1.391 . S
C1236 C1237 1.400 . S
C1237 C1231 1.491 . S
C1237 C1236 1.400 . S
C1237 C1238 1.398 . S
C1238 H1226 0.950 . S
C1238 C1237 1.398 . S
C1238 C1239 1.391 . S
C1239 H1227 0.950 . S
C1239 C1235 1.393 . S
C1239 C1238 1.391 . S
H1240 C1248 0.950 . S
H1241 C1253 0.950 . S
H1242 C1250 0.950 . S
H1243 C1252 0.950 . S
H1244 C1254 0.950 . S
H1245 C1256 0.950 . S
H1246 C1258 0.950 . S
H1247 C1259 0.950 . S
C1248 H1240 0.950 . S
C1248 C1249 1.386 . S
C1248 C1250 1.391 . S
C1249 C1248 1.386 . S
C1249 C1253 1.393 . S
C1250 H1242 0.950 . S
C1250 C1248 1.391 . S
C1250 C1251 1.400 . S
C1251 C1250 1.400 . S
C1251 C1252 1.398 . S
C1251 C1257 1.491 . S
C1252 H1243 0.950 . S
C1252 C1251 1.398 . S
C1252 C1253 1.391 . S
C1253 H1241 0.950 . S
C1253 C1249 1.393 . S
C1253 C1252 1.391 . S
C1254 H1244 0.950 . S
C1254 C1255 1.386 . S
C1254 C1256 1.391 . S
C1255 C1254 1.386 . S
C1255 C1259 1.393 . S
C1256 H1245 0.950 . S
C1256 C1254 1.391 . S
C1256 C1257 1.400 . S
C1257 C1251 1.491 . S
C1257 C1256 1.400 . S
C1257 C1258 1.398 . S
C1258 H1246 0.950 . S
C1258 C1257 1.398 . S
C1258 C1259 1.391 . S
C1259 H1247 0.950 . S
C1259 C1255 1.393 . S
C1259 C1258 1.391 . S
H1260 C1268 0.950 . S
H1261 C1273 0.950 . S
H1262 C1270 0.950 . S
H1263 C1272 0.950 . S
H1264 C1274 0.950 . S
H1265 C1276 0.950 . S
H1266 C1278 0.950 . S
H1267 C1279 0.950 . S
C1268 H1260 0.950 . S
C1268 C1269 1.386 . S
C1268 C1270 1.391 . S
C1269 C1268 1.386 . S
C1269 C1273 1.393 . S
C1270 H1262 0.950 . S
C1270 C1268 1.391 . S
C1270 C1271 1.400 . S
C1271 C1270 1.400 . S
C1271 C1272 1.398 . S
C1271 C1277 1.491 . S
C1272 H1263 0.950 . S
C1272 C1271 1.398 . S
C1272 C1273 1.391 . S
C1273 H1261 0.950 . S
C1273 C1269 1.393 . S
C1273 C1272 1.391 . S
C1274 H1264 0.950 . S
C1274 C1275 1.386 . S
C1274 C1276 1.391 . S
C1275 C1274 1.386 . S
C1275 C1279 1.393 . S
C1276 H1265 0.950 . S
C1276 C1274 1.391 . S
C1276 C1277 1.400 . S
C1277 C1271 1.491 . S
C1277 C1276 1.400 . S
C1277 C1278 1.398 . S
C1278 H1266 0.950 . S
C1278 C1277 1.398 . S
C1278 C1279 1.391 . S
C1279 H1267 0.950 . S
C1279 C1275 1.393 . S
C1279 C1278 1.391 . S
H1280 C1288 0.950 . S
H1281 C1293 0.950 . S
H1282 C1290 0.950 . S
H1283 C1292 0.950 . S
H1284 C1294 0.950 . S
H1285 C1296 0.950 . S
H1286 C1298 0.950 . S
H1287 C1299 0.950 1_556 S
C1288 H1280 0.950 . S
C1288 C1289 1.386 . S
C1288 C1290 1.391 . S
C1289 C1288 1.386 . S
C1289 C1293 1.393 . S
C1290 H1282 0.950 . S
C1290 C1288 1.391 . S
C1290 C1291 1.400 . S
C1291 C1290 1.400 . S
C1291 C1292 1.398 . S
C1291 C1297 1.491 . S
C1292 H1283 0.950 . S
C1292 C1291 1.398 . S
C1292 C1293 1.391 . S
C1293 H1281 0.950 . S
C1293 C1289 1.393 . S
C1293 C1292 1.391 . S
C1294 H1284 0.950 . S
C1294 C1295 1.386 . S
C1294 C1296 1.391 . S
C1295 C1294 1.386 . S
C1295 C1299 1.393 . S
C1296 H1285 0.950 . S
C1296 C1294 1.391 . S
C1296 C1297 1.400 . S
C1297 C1291 1.491 . S
C1297 C1296 1.400 . S
C1297 C1298 1.398 . S
C1298 H1286 0.950 . S
C1298 C1297 1.398 . S
C1298 C1299 1.391 . S
C1299 H1287 0.950 1_554 S
C1299 C1295 1.393 . S
C1299 C1298 1.391 . S
H1300 C1308 0.950 . S
H1301 C1313 0.950 . S
H1302 C1310 0.950 . S
H1303 C1312 0.950 . S
H1304 C1314 0.950 . S
H1305 C1316 0.950 . S
H1306 C1318 0.950 . S
H1307 C1319 0.950 . S
C1308 H1300 0.950 . S
C1308 C1309 1.386 . S
C1308 C1310 1.391 . S
C1309 C1308 1.386 . S
C1309 C1313 1.393 . S
C1310 H1302 0.950 . S
C1310 C1308 1.391 . S
C1310 C1311 1.400 . S
C1311 C1310 1.400 . S
C1311 C1312 1.398 . S
C1311 C1317 1.491 . S
C1312 H1303 0.950 . S
C1312 C1311 1.398 . S
C1312 C1313 1.391 . S
C1313 H1301 0.950 . S
C1313 C1309 1.393 . S
C1313 C1312 1.391 . S
C1314 H1304 0.950 . S
C1314 C1315 1.386 . S
C1314 C1316 1.391 . S
C1315 C1314 1.386 . S
C1315 C1319 1.393 . S
C1316 H1305 0.950 . S
C1316 C1314 1.391 . S
C1316 C1317 1.400 . S
C1317 C1311 1.491 . S
C1317 C1316 1.400 . S
C1317 C1318 1.398 . S
C1318 H1306 0.950 . S
C1318 C1317 1.398 . S
C1318 C1319 1.391 . S
C1319 H1307 0.950 . S
C1319 C1315 1.393 . S
C1319 C1318 1.391 . S
H1320 C1328 0.950 . S
H1321 C1333 0.950 . S
H1322 C1330 0.950 . S
H1323 C1332 0.950 . S
H1324 C1334 0.950 . S
H1325 C1336 0.950 . S
H1326 C1338 0.950 . S
H1327 C1339 0.950 . S
C1328 H1320 0.950 . S
C1328 C1329 1.386 . S
C1328 C1330 1.391 . S
C1329 C1328 1.386 . S
C1329 C1333 1.393 . S
C1330 H1322 0.950 . S
C1330 C1328 1.391 . S
C1330 C1331 1.400 . S
C1331 C1330 1.400 . S
C1331 C1332 1.398 . S
C1331 C1337 1.491 . S
C1332 H1323 0.950 . S
C1332 C1331 1.398 . S
C1332 C1333 1.391 . S
C1333 H1321 0.950 . S
C1333 C1329 1.393 . S
C1333 C1332 1.391 . S
C1334 H1324 0.950 . S
C1334 C1335 1.386 . S
C1334 C1336 1.391 . S
C1335 C1334 1.386 . S
C1335 C1339 1.393 . S
C1336 H1325 0.950 . S
C1336 C1334 1.391 . S
C1336 C1337 1.400 . S
C1337 C1331 1.491 . S
C1337 C1336 1.400 . S
C1337 C1338 1.398 . S
C1338 H1326 0.950 . S
C1338 C1337 1.398 . S
C1338 C1339 1.391 . S
C1339 H1327 0.950 . S
C1339 C1335 1.393 . S
C1339 C1338 1.391 . S
H1340 C1348 0.950 . S
H1341 C1353 0.950 . S
H1342 C1350 0.950 . S
H1343 C1352 0.950 . S
H1344 C1354 0.950 . S
H1345 C1356 0.950 . S
H1346 C1358 0.950 . S
H1347 C1359 0.950 . S
C1348 H1340 0.950 . S
C1348 C1349 1.386 . S
C1348 C1350 1.391 . S
C1349 C1348 1.386 . S
C1349 C1353 1.393 . S
C1350 H1342 0.950 . S
C1350 C1348 1.391 . S
C1350 C1351 1.400 . S
C1351 C1350 1.400 . S
C1351 C1352 1.398 . S
C1351 C1357 1.491 . S
C1352 H1343 0.950 . S
C1352 C1351 1.398 . S
C1352 C1353 1.391 . S
C1353 H1341 0.950 . S
C1353 C1349 1.393 . S
C1353 C1352 1.391 . S
C1354 H1344 0.950 . S
C1354 C1355 1.386 . S
C1354 C1356 1.391 . S
C1355 C1354 1.386 . S
C1355 C1359 1.393 . S
C1356 H1345 0.950 . S
C1356 C1354 1.391 . S
C1356 C1357 1.400 . S
C1357 C1351 1.491 . S
C1357 C1356 1.400 . S
C1357 C1358 1.398 . S
C1358 H1346 0.950 . S
C1358 C1357 1.398 . S
C1358 C1359 1.391 . S
C1359 H1347 0.950 . S
C1359 C1355 1.393 . S
C1359 C1358 1.391 . S
H1360 C1368 0.950 . S
H1361 C1373 0.950 . S
H1362 C1370 0.950 . S
H1363 C1372 0.950 . S
H1364 C1374 0.950 . S
H1365 C1376 0.950 . S
H1366 C1378 0.950 . S
H1367 C1379 0.950 . S
C1368 H1360 0.950 . S
C1368 C1369 1.386 . S
C1368 C1370 1.391 . S
C1369 C1368 1.386 . S
C1369 C1373 1.393 . S
C1370 H1362 0.950 . S
C1370 C1368 1.391 . S
C1370 C1371 1.400 . S
C1371 C1370 1.400 . S
C1371 C1372 1.398 . S
C1371 C1377 1.491 . S
C1372 H1363 0.950 . S
C1372 C1371 1.398 . S
C1372 C1373 1.391 . S
C1373 H1361 0.950 . S
C1373 C1369 1.393 . S
C1373 C1372 1.391 . S
C1374 H1364 0.950 . S
C1374 C1375 1.386 . S
C1374 C1376 1.391 . S
C1375 C1374 1.386 . S
C1375 C1379 1.393 . S
C1376 H1365 0.950 . S
C1376 C1374 1.391 . S
C1376 C1377 1.400 . S
C1377 C1371 1.491 . S
C1377 C1376 1.400 . S
C1377 C1378 1.398 . S
C1378 H1366 0.950 . S
C1378 C1377 1.398 . S
C1378 C1379 1.391 . S
C1379 H1367 0.950 . S
C1379 C1375 1.393 . S
C1379 C1378 1.391 . S
H1380 C1388 0.950 . S
H1381 C1393 0.950 . S
H1382 C1390 0.950 . S
H1383 C1392 0.950 . S
H1384 C1394 0.950 . S
H1385 C1396 0.950 . S
H1386 C1398 0.950 . S
H1387 C1399 0.950 . S
C1388 H1380 0.950 . S
C1388 C1389 1.386 . S
C1388 C1390 1.391 . S
C1389 C1388 1.386 . S
C1389 C1393 1.393 . S
C1390 H1382 0.950 . S
C1390 C1388 1.391 . S
C1390 C1391 1.400 . S
C1391 C1390 1.400 . S
C1391 C1392 1.398 . S
C1391 C1397 1.491 . S
C1392 H1383 0.950 . S
C1392 C1391 1.398 . S
C1392 C1393 1.391 . S
C1393 H1381 0.950 . S
C1393 C1389 1.393 . S
C1393 C1392 1.391 . S
C1394 H1384 0.950 . S
C1394 C1395 1.386 . S
C1394 C1396 1.391 . S
C1395 C1394 1.386 . S
C1395 C1399 1.393 . S
C1396 H1385 0.950 . S
C1396 C1394 1.391 . S
C1396 C1397 1.400 . S
C1397 C1391 1.491 . S
C1397 C1396 1.400 . S
C1397 C1398 1.398 . S
C1398 H1386 0.950 . S
C1398 C1397 1.398 . S
C1398 C1399 1.391 . S
C1399 H1387 0.950 . S
C1399 C1395 1.393 . S
C1399 C1398 1.391 . S
H1400 C1408 0.950 . S
H1401 C1413 0.950 . S
H1402 C1410 0.950 . S
H1403 C1412 0.950 . S
H1404 C1414 0.950 . S
H1405 C1416 0.950 . S
H1406 C1418 0.950 . S
H1407 C1419 0.950 . S
C1408 H1400 0.950 . S
C1408 C1409 1.386 . S
C1408 C1410 1.391 . S
C1409 C1408 1.386 . S
C1409 C1413 1.393 . S
C1410 H1402 0.950 . S
C1410 C1408 1.391 . S
C1410 C1411 1.400 . S
C1411 C1410 1.400 . S
C1411 C1412 1.398 . S
C1411 C1417 1.491 . S
C1412 H1403 0.950 . S
C1412 C1411 1.398 . S
C1412 C1413 1.391 . S
C1413 H1401 0.950 . S
C1413 C1409 1.393 . S
C1413 C1412 1.391 . S
C1414 H1404 0.950 . S
C1414 C1415 1.386 . S
C1414 C1416 1.391 . S
C1415 C1414 1.386 . S
C1415 C1419 1.393 . S
C1416 H1405 0.950 . S
C1416 C1414 1.391 . S
C1416 C1417 1.400 . S
C1417 C1411 1.491 . S
C1417 C1416 1.400 . S
C1417 C1418 1.398 . S
C1418 H1406 0.950 . S
C1418 C1417 1.398 . S
C1418 C1419 1.391 . S
C1419 H1407 0.950 . S
C1419 C1415 1.393 . S
C1419 C1418 1.391 . S
H1420 C1428 0.950 . S
H1421 C1433 0.950 . S
H1422 C1430 0.950 . S
H1423 C1432 0.950 . S
H1424 C1434 0.950 . S
H1425 C1436 0.950 . S
H1426 C1438 0.950 . S
H1427 C1439 0.950 . S
C1428 H1420 0.950 . S
C1428 C1429 1.386 . S
C1428 C1430 1.391 . S
C1429 C1428 1.386 . S
C1429 C1433 1.393 . S
C1430 H1422 0.950 . S
C1430 C1428 1.391 . S
C1430 C1431 1.400 . S
C1431 C1430 1.400 . S
C1431 C1432 1.398 . S
C1431 C1437 1.491 . S
C1432 H1423 0.950 . S
C1432 C1431 1.398 . S
C1432 C1433 1.391 . S
C1433 H1421 0.950 . S
C1433 C1429 1.393 . S
C1433 C1432 1.391 . S
C1434 H1424 0.950 . S
C1434 C1435 1.386 . S
C1434 C1436 1.391 . S
C1435 C1434 1.386 . S
C1435 C1439 1.393 . S
C1436 H1425 0.950 . S
C1436 C1434 1.391 . S
C1436 C1437 1.400 . S
C1437 C1431 1.491 . S
C1437 C1436 1.400 . S
C1437 C1438 1.398 . S
C1438 H1426 0.950 . S
C1438 C1437 1.398 . S
C1438 C1439 1.391 . S
C1439 H1427 0.950 . S
C1439 C1435 1.393 . S
C1439 C1438 1.391 . S
H1440 C1448 0.950 . S
H1441 C1453 0.950 . S
H1442 C1450 0.950 . S
H1443 C1452 0.950 . S
H1444 C1454 0.950 . S
H1445 C1456 0.950 . S
H1446 C1458 0.950 . S
H1447 C1459 0.950 . S
C1448 H1440 0.950 . S
C1448 C1449 1.386 . S
C1448 C1450 1.391 . S
C1449 C1448 1.386 . S
C1449 C1453 1.393 . S
C1450 H1442 0.950 . S
C1450 C1448 1.391 . S
C1450 C1451 1.400 . S
C1451 C1450 1.400 . S
C1451 C1452 1.398 . S
C1451 C1457 1.491 . S
C1452 H1443 0.950 . S
C1452 C1451 1.398 . S
C1452 C1453 1.391 . S
C1453 H1441 0.950 . S
C1453 C1449 1.393 . S
C1453 C1452 1.391 . S
C1454 H1444 0.950 . S
C1454 C1455 1.386 . S
C1454 C1456 1.391 . S
C1455 C1454 1.386 . S
C1455 C1459 1.393 . S
C1456 H1445 0.950 . S
C1456 C1454 1.391 . S
C1456 C1457 1.400 . S
C1457 C1451 1.491 . S
C1457 C1456 1.400 . S
C1457 C1458 1.398 . S
C1458 H1446 0.950 . S
C1458 C1457 1.398 . S
C1458 C1459 1.391 . S
C1459 H1447 0.950 . S
C1459 C1455 1.393 . S
C1459 C1458 1.391 . S
H1460 C1468 0.950 . S
H1461 C1473 0.950 . S
H1462 C1470 0.950 . S
H1463 C1472 0.950 . S
H1464 C1474 0.950 . S
H1465 C1476 0.950 . S
H1466 C1478 0.950 . S
H1467 C1479 0.950 . S
C1468 H1460 0.950 . S
C1468 C1469 1.386 . S
C1468 C1470 1.391 . S
C1469 C1468 1.386 . S
C1469 C1473 1.393 . S
C1470 H1462 0.950 . S
C1470 C1468 1.391 . S
C1470 C1471 1.400 . S
C1471 C1470 1.400 . S
C1471 C1472 1.398 . S
C1471 C1477 1.491 . S
C1472 H1463 0.950 . S
C1472 C1471 1.398 . S
C1472 C1473 1.391 . S
C1473 H1461 0.950 . S
C1473 C1469 1.393 . S
C1473 C1472 1.391 . S
C1474 H1464 0.950 . S
C1474 C1475 1.386 . S
C1474 C1476 1.391 . S
C1475 C1474 1.386 . S
C1475 C1479 1.393 . S
C1476 H1465 0.950 . S
C1476 C1474 1.391 . S
C1476 C1477 1.400 . S
C1477 C1471 1.491 . S
C1477 C1476 1.400 . S
C1477 C1478 1.398 . S
C1478 H1466 0.950 . S
C1478 C1477 1.398 . S
C1478 C1479 1.391 . S
C1479 H1467 0.950 . S
C1479 C1475 1.393 . S
C1479 C1478 1.391 . S
H1480 C1488 0.950 . S
H1481 C1493 0.950 . S
H1482 C1490 0.950 . S
H1483 C1492 0.950 . S
H1484 C1494 0.950 . S
H1485 C1496 0.950 . S
H1486 C1498 0.950 . S
H1487 C1499 0.950 . S
C1488 H1480 0.950 . S
C1488 C1489 1.386 . S
C1488 C1490 1.391 . S
C1489 C1488 1.386 . S
C1489 C1493 1.393 . S
C1490 H1482 0.950 . S
C1490 C1488 1.391 . S
C1490 C1491 1.400 . S
C1491 C1490 1.400 . S
C1491 C1492 1.398 . S
C1491 C1497 1.491 . S
C1492 H1483 0.950 . S
C1492 C1491 1.398 . S
C1492 C1493 1.391 . S
C1493 H1481 0.950 . S
C1493 C1489 1.393 . S
C1493 C1492 1.391 . S
C1494 H1484 0.950 . S
C1494 C1495 1.386 . S
C1494 C1496 1.391 . S
C1495 C1494 1.386 . S
C1495 C1499 1.393 . S
C1496 H1485 0.950 . S
C1496 C1494 1.391 . S
C1496 C1497 1.400 . S
C1497 C1491 1.491 . S
C1497 C1496 1.400 . S
C1497 C1498 1.398 . S
C1498 H1486 0.950 . S
C1498 C1497 1.398 . S
C1498 C1499 1.391 . S
C1499 H1487 0.950 . S
C1499 C1495 1.393 . S
C1499 C1498 1.391 . S
H1500 C1508 0.950 . S
H1501 C1513 0.950 . S
H1502 C1510 0.950 . S
H1503 C1512 0.950 . S
H1504 C1514 0.950 . S
H1505 C1516 0.950 . S
H1506 C1518 0.950 . S
H1507 C1519 0.950 . S
C1508 H1500 0.950 . S
C1508 C1509 1.386 . S
C1508 C1510 1.391 . S
C1509 C1508 1.386 . S
C1509 C1513 1.393 . S
C1510 H1502 0.950 . S
C1510 C1508 1.391 . S
C1510 C1511 1.400 . S
C1511 C1510 1.400 . S
C1511 C1512 1.398 . S
C1511 C1517 1.491 . S
C1512 H1503 0.950 . S
C1512 C1511 1.398 . S
C1512 C1513 1.391 . S
C1513 H1501 0.950 . S
C1513 C1509 1.393 . S
C1513 C1512 1.391 . S
C1514 H1504 0.950 . S
C1514 C1515 1.386 . S
C1514 C1516 1.391 . S
C1515 C1514 1.386 . S
C1515 C1519 1.393 . S
C1516 H1505 0.950 . S
C1516 C1514 1.391 . S
C1516 C1517 1.400 . S
C1517 C1511 1.491 . S
C1517 C1516 1.400 . S
C1517 C1518 1.398 . S
C1518 H1506 0.950 . S
C1518 C1517 1.398 . S
C1518 C1519 1.391 . S
C1519 H1507 0.950 . S
C1519 C1515 1.393 . S
C1519 C1518 1.391 . S
H1520 C1528 0.950 . S
H1521 C1533 0.950 . S
H1522 C1530 0.950 . S
H1523 C1532 0.950 . S
H1524 C1534 0.950 . S
H1525 C1536 0.950 . S
H1526 C1538 0.950 . S
H1527 C1539 0.950 . S
C1528 H1520 0.950 . S
C1528 C1529 1.386 . S
C1528 C1530 1.391 . S
C1529 C1528 1.386 . S
C1529 C1533 1.393 . S
C1530 H1522 0.950 . S
C1530 C1528 1.391 . S
C1530 C1531 1.400 . S
C1531 C1530 1.400 . S
C1531 C1532 1.398 . S
C1531 C1537 1.491 . S
C1532 H1523 0.950 . S
C1532 C1531 1.398 . S
C1532 C1533 1.391 . S
C1533 H1521 0.950 . S
C1533 C1529 1.393 . S
C1533 C1532 1.391 . S
C1534 H1524 0.950 . S
C1534 C1535 1.386 . S
C1534 C1536 1.391 . S
C1535 C1534 1.386 . S
C1535 C1539 1.393 . S
C1536 H1525 0.950 . S
C1536 C1534 1.391 . S
C1536 C1537 1.400 . S
C1537 C1531 1.491 . S
C1537 C1536 1.400 . S
C1537 C1538 1.398 . S
C1538 H1526 0.950 . S
C1538 C1537 1.398 . S
C1538 C1539 1.391 . S
C1539 H1527 0.950 . S
C1539 C1535 1.393 . S
C1539 C1538 1.391 . S
H1540 C1548 0.950 . S
H1541 C1553 0.950 . S
H1542 C1550 0.950 . S
H1543 C1552 0.950 . S
H1544 C1554 0.950 . S
H1545 C1556 0.950 . S
H1546 C1558 0.950 . S
H1547 C1559 0.950 . S
C1548 H1540 0.950 . S
C1548 C1549 1.386 . S
C1548 C1550 1.391 . S
C1549 C1548 1.386 . S
C1549 C1553 1.393 . S
C1550 H1542 0.950 . S
C1550 C1548 1.391 . S
C1550 C1551 1.400 . S
C1551 C1550 1.400 . S
C1551 C1552 1.398 . S
C1551 C1557 1.491 . S
C1552 H1543 0.950 . S
C1552 C1551 1.398 . S
C1552 C1553 1.391 . S
C1553 H1541 0.950 . S
C1553 C1549 1.393 . S
C1553 C1552 1.391 . S
C1554 H1544 0.950 . S
C1554 C1555 1.386 . S
C1554 C1556 1.391 . S
C1555 C1554 1.386 . S
C1555 C1559 1.393 . S
C1556 H1545 0.950 . S
C1556 C1554 1.391 . S
C1556 C1557 1.400 . S
C1557 C1551 1.491 . S
C1557 C1556 1.400 . S
C1557 C1558 1.398 . S
C1558 H1546 0.950 . S
C1558 C1557 1.398 . S
C1558 C1559 1.391 . S
C1559 H1547 0.950 . S
C1559 C1555 1.393 . S
C1559 C1558 1.391 . S
H1560 C1568 0.950 . S
H1561 C1573 0.950 . S
H1562 C1570 0.950 . S
H1563 C1572 0.950 . S
H1564 C1574 0.950 . S
H1565 C1576 0.950 . S
H1566 C1578 0.950 . S
H1567 C1579 0.950 . S
C1568 H1560 0.950 . S
C1568 C1569 1.386 . S
C1568 C1570 1.391 . S
C1569 C1568 1.386 . S
C1569 C1573 1.393 . S
C1570 H1562 0.950 . S
C1570 C1568 1.391 . S
C1570 C1571 1.400 . S
C1571 C1570 1.400 . S
C1571 C1572 1.398 . S
C1571 C1577 1.491 . S
C1572 H1563 0.950 . S
C1572 C1571 1.398 . S
C1572 C1573 1.391 . S
C1573 H1561 0.950 . S
C1573 C1569 1.393 . S
C1573 C1572 1.391 . S
C1574 H1564 0.950 . S
C1574 C1575 1.386 . S
C1574 C1576 1.391 . S
C1575 C1574 1.386 . S
C1575 C1579 1.393 . S
C1576 H1565 0.950 . S
C1576 C1574 1.391 . S
C1576 C1577 1.400 . S
C1577 C1571 1.491 . S
C1577 C1576 1.400 . S
C1577 C1578 1.398 . S
C1578 H1566 0.950 . S
C1578 C1577 1.398 . S
C1578 C1579 1.391 . S
C1579 H1567 0.950 . S
C1579 C1575 1.393 . S
C1579 C1578 1.391 . S
H1580 C1588 0.950 . S
H1581 C1593 0.950 . S
H1582 C1590 0.950 . S
H1583 C1592 0.950 . S
H1584 C1594 0.950 . S
H1585 C1596 0.950 . S
H1586 C1598 0.950 . S
H1587 C1599 0.950 . S
C1588 H1580 0.950 . S
C1588 C1589 1.386 . S
C1588 C1590 1.391 . S
C1589 C1588 1.386 . S
C1589 C1593 1.393 . S
C1590 H1582 0.950 . S
C1590 C1588 1.391 . S
C1590 C1591 1.400 . S
C1591 C1590 1.400 . S
C1591 C1592 1.398 . S
C1591 C1597 1.491 . S
C1592 H1583 0.950 . S
C1592 C1591 1.398 . S
C1592 C1593 1.391 . S
C1593 H1581 0.950 . S
C1593 C1589 1.393 . S
C1593 C1592 1.391 . S
C1594 H1584 0.950 . S
C1594 C1595 1.386 . S
C1594 C1596 1.391 . S
C1595 C1594 1.386 . S
C1595 C1599 1.393 . S
C1596 H1585 0.950 . S
C1596 C1594 1.391 . S
C1596 C1597 1.400 . S
C1597 C1591 1.491 . S
C1597 C1596 1.400 . S
C1597 C1598 1.398 . S
C1598 H1586 0.950 . S
C1598 C1597 1.398 . S
C1598 C1599 1.391 . S
C1599 H1587 0.950 . S
C1599 C1595 1.393 . S
C1599 C1598 1.391 . S
C649 C19 1.786 . S
C655 C55 1.693 . S
C669 C98 1.560 . S
C675 C50 1.588 . S
C689 C135 1.690 . S
C695 C99 1.788 . S
C709 C18 1.588 . S
C715 C130 1.601 . S
C729 C9 1.588 . S
C735 C379 1.604 . S
C749 C290 1.776 . S
C755 C46 1.675 . S
C769 C89 1.575 . S
C775 C419 1.608 . S
C789 C126 1.686 . S
C795 C530 1.787 . S
C809 C329 1.583 . S
C815 C59 1.609 . S
C829 C486 1.671 . S
C835 C90 1.781 . S
C849 C569 1.560 . S
C855 C139 1.595 . S
C869 C10 1.779 . S
C875 C446 1.667 . S
C889 C15 0.368 . S
C895 C335 0.366 . S
C909 C489 1.775 . S
C915 C169 1.778 . S
C929 C206 0.364 . S
C935 C566 0.378 . S
C949 C449 1.782 . S
C955 C249 1.782 . S
C969 C86 0.366 . S
C975 C286 0.369 . S
C989 C378 1.777 . S
C995 C178 1.780 . S
C1009 C258 1.773 . S
C1015 C418 1.774 . S
C1029 C209 1.562 . S
C1035 C459 1.599 . S
C1049 C366 1.684 . S
C1055 C210 1.786 . S
C1069 C455 1.663 . S
C1075 C299 1.774 . S
C1089 C218 1.562 . S
C1095 C170 1.586 . S
C1109 C375 1.689 . S
C1115 C339 1.783 . S
C1129 C538 1.571 . S
C1135 C450 1.606 . S
C1149 C255 1.692 . S
C1155 C219 1.785 . S
C1169 C370 1.600 . S
C1175 C578 1.588 . S
C1189 C526 0.376 . S
C1195 C6 0.361 . S
C1209 C95 0.378 . S
C1215 C575 0.360 . S
C1229 C498 1.779 . S
C1235 C58 1.781 . S
C1249 C295 0.362 . S
C1255 C215 0.379 . S
C1269 C129 1.778 . S
C1275 C409 1.781 . S
C1289 C495 1.675 . S
C1295 C539 1.783 . S
C1309 C298 1.563 . S
C1315 C490 1.599 . S
C1329 C259 1.602 . S
C1335 C289 1.565 . S
C1349 C179 1.600 . S
C1355 C529 1.563 . S
C1369 C499 1.585 . S
C1375 C609 1.574 . S
C1389 C606 0.361 . S
C1395 C326 0.379 . S
C1409 C49 1.776 . S
C1415 C369 1.773 . S
C1429 C330 1.778 . S
C1435 C246 1.667 . S
C1449 C338 1.578 . S
C1455 C410 1.608 . S
C1469 C618 1.560 . S
C1475 C250 1.593 . S
C1489 C535 0.375 . S
C1495 C615 0.361 . S
C1509 C458 1.774 . S
C1515 C138 1.773 . S
C1529 C415 1.669 . S
C1535 C579 1.774 . S
C1549 C406 1.663 . S
C1555 C610 1.774 . S
C1569 C166 1.690 . S
C1575 C570 1.784 . S
C1589 C619 1.780 . S
C1595 C175 1.684 . S
