# Generated by pormake.
# Topology ukv, (4)-cn, num edge types: 1
# Building blocks:
#     Node 0, Type 0, BuildingBlock: GALJAG_clean_sbu_0, # of connection points: 4
#     Node 1, Type 0, BuildingBlock: GALJAG_clean_sbu_0, # of connection points: 4
#     Node 2, Type 0, BuildingBlock: GALJAG_clean_sbu_0, # of connection points: 4
#     Node 3, Type 0, BuildingBlock: GALJAG_clean_sbu_0, # of connection points: 4
#     Node 4, Type 0, BuildingBlock: GALJAG_clean_sbu_0, # of connection points: 4
#     Node 5, Type 0, BuildingBlock: GALJAG_clean_sbu_0, # of connection points: 4
#     Node 6, Type 0, BuildingBlock: GALJAG_clean_sbu_0, # of connection points: 4
#     Node 7, Type 0, BuildingBlock: GALJAG_clean_sbu_0, # of connection points: 4
#     Node 8, Type 0, BuildingBlock: GALJAG_clean_sbu_0, # of connection points: 4
#     Node 9, Type 0, BuildingBlock: GALJAG_clean_sbu_0, # of connection points: 4
#     Node 10, Type 0, BuildingBlock: GALJAG_clean_sbu_0, # of connection points: 4
#     Node 11, Type 0, BuildingBlock: GALJAG_clean_sbu_0, # of connection points: 4
#     Node 12, Type 0, BuildingBlock: GALJAG_clean_sbu_0, # of connection points: 4
#     Node 13, Type 0, BuildingBlock: GALJAG_clean_sbu_0, # of connection points: 4
#     Node 14, Type 0, BuildingBlock: GALJAG_clean_sbu_0, # of connection points: 4
#     Node 15, Type 0, BuildingBlock: GALJAG_clean_sbu_0, # of connection points: 4
#     Node 16, Type 0, BuildingBlock: GALJAG_clean_sbu_0, # of connection points: 4
#     Node 17, Type 0, BuildingBlock: GALJAG_clean_sbu_0, # of connection points: 4
#     Node 18, Type 0, BuildingBlock: GALJAG_clean_sbu_0, # of connection points: 4
#     Node 19, Type 0, BuildingBlock: GALJAG_clean_sbu_0, # of connection points: 4
#     Node 20, Type 0, BuildingBlock: GALJAG_clean_sbu_0, # of connection points: 4
#     Node 21, Type 0, BuildingBlock: GALJAG_clean_sbu_0, # of connection points: 4
#     Node 22, Type 0, BuildingBlock: GALJAG_clean_sbu_0, # of connection points: 4
#     Node 23, Type 0, BuildingBlock: GALJAG_clean_sbu_0, # of connection points: 4
#     Node 24, Type 0, BuildingBlock: GALJAG_clean_sbu_0, # of connection points: 4
#     Node 25, Type 0, BuildingBlock: GALJAG_clean_sbu_0, # of connection points: 4
#     Node 26, Type 0, BuildingBlock: GALJAG_clean_sbu_0, # of connection points: 4
#     Node 27, Type 0, BuildingBlock: GALJAG_clean_sbu_0, # of connection points: 4
#     Node 28, Type 0, BuildingBlock: GALJAG_clean_sbu_0, # of connection points: 4
#     Node 29, Type 0, BuildingBlock: GALJAG_clean_sbu_0, # of connection points: 4
#     Node 30, Type 0, BuildingBlock: GALJAG_clean_sbu_0, # of connection points: 4
#     Node 31, Type 0, BuildingBlock: GALJAG_clean_sbu_0, # of connection points: 4
#     Node 32, Type 0, BuildingBlock: GALJAG_clean_sbu_0, # of connection points: 4
#     Node 33, Type 0, BuildingBlock: GALJAG_clean_sbu_0, # of connection points: 4
#     Node 34, Type 0, BuildingBlock: GALJAG_clean_sbu_0, # of connection points: 4
#     Node 35, Type 0, BuildingBlock: GALJAG_clean_sbu_0, # of connection points: 4
#     Edge 36, Type (0, 0), None
#     Edge 37, Type (0, 0), None
#     Edge 38, Type (0, 0), None
#     Edge 39, Type (0, 0), None
#     Edge 40, Type (0, 0), None
#     Edge 41, Type (0, 0), None
#     Edge 42, Type (0, 0), None
#     Edge 43, Type (0, 0), None
#     Edge 44, Type (0, 0), None
#     Edge 45, Type (0, 0), None
#     Edge 46, Type (0, 0), None
#     Edge 47, Type (0, 0), None
#     Edge 48, Type (0, 0), None
#     Edge 49, Type (0, 0), None
#     Edge 50, Type (0, 0), None
#     Edge 51, Type (0, 0), None
#     Edge 52, Type (0, 0), None
#     Edge 53, Type (0, 0), None
#     Edge 54, Type (0, 0), None
#     Edge 55, Type (0, 0), None
#     Edge 56, Type (0, 0), None
#     Edge 57, Type (0, 0), None
#     Edge 58, Type (0, 0), None
#     Edge 59, Type (0, 0), None
#     Edge 60, Type (0, 0), None
#     Edge 61, Type (0, 0), None
#     Edge 62, Type (0, 0), None
#     Edge 63, Type (0, 0), None
#     Edge 64, Type (0, 0), None
#     Edge 65, Type (0, 0), None
#     Edge 66, Type (0, 0), None
#     Edge 67, Type (0, 0), None
#     Edge 68, Type (0, 0), None
#     Edge 69, Type (0, 0), None
#     Edge 70, Type (0, 0), None
#     Edge 71, Type (0, 0), None
#     Edge 72, Type (0, 0), None
#     Edge 73, Type (0, 0), None
#     Edge 74, Type (0, 0), None
#     Edge 75, Type (0, 0), None
#     Edge 76, Type (0, 0), None
#     Edge 77, Type (0, 0), None
#     Edge 78, Type (0, 0), None
#     Edge 79, Type (0, 0), None
#     Edge 80, Type (0, 0), None
#     Edge 81, Type (0, 0), None
#     Edge 82, Type (0, 0), None
#     Edge 83, Type (0, 0), None
#     Edge 84, Type (0, 0), None
#     Edge 85, Type (0, 0), None
#     Edge 86, Type (0, 0), None
#     Edge 87, Type (0, 0), None
#     Edge 88, Type (0, 0), None
#     Edge 89, Type (0, 0), None
#     Edge 90, Type (0, 0), None
#     Edge 91, Type (0, 0), None
#     Edge 92, Type (0, 0), None
#     Edge 93, Type (0, 0), None
#     Edge 94, Type (0, 0), None
#     Edge 95, Type (0, 0), None
#     Edge 96, Type (0, 0), None
#     Edge 97, Type (0, 0), None
#     Edge 98, Type (0, 0), None
#     Edge 99, Type (0, 0), None
#     Edge 100, Type (0, 0), None
#     Edge 101, Type (0, 0), None
#     Edge 102, Type (0, 0), None
#     Edge 103, Type (0, 0), None
#     Edge 104, Type (0, 0), None
#     Edge 105, Type (0, 0), None
#     Edge 106, Type (0, 0), None
#     Edge 107, Type (0, 0), None
# Relax obj value: 0.157
# Max RMSD: 0.129
# Mean RMSD: 0.129
data_MOF--net-ukv--node1-GALJAG_clean_sbu_0--edge1-none
_symmetry_space_group_name_H-M    P1
_symmetry_Int_Tables_number       1
_symmetry_cell_setting            triclinic
loop_
_symmetry_equiv_pos_as_xyz
'x, y, z'
_cell_length_a     42.400127
_cell_length_b     42.398356
_cell_length_c     10.44353
_cell_angle_alpha  89.982084
_cell_angle_beta   90.036964
_cell_angle_gamma 119.99473
loop_
_atom_site_label
_atom_site_type_symbol
_atom_site_fract_x
_atom_site_fract_y
_atom_site_fract_z
_atom_type_partial_charge
In0 In 0.22873 0.0571 0.13899 0.0
O1 O 0.25378 0.08913 0.32146 0.0
O2 O 0.19922 0.0754 0.2731 0.0
C3 C 0.27767 0.05645 0.98053 0.0
C4 C 0.19371 -0.01008 0.2334 0.0
C5 C 0.22382 0.09959 0.96285 0.0
O6 O 0.28631 0.07066 0.09146 0.0
O7 O 0.24395 0.0396 0.95577 0.0
O8 O 0.19848 0.06685 0.97879 0.0
O9 O 0.2499 0.11134 0.04164 0.0
C10 C 0.22531 0.09017 0.35143 0.0
O11 O 0.17671 0.00331 0.17629 0.0
O12 O 0.22794 0.0095 0.236 0.0
In13 In 0.87245 0.15749 0.13908 0.0
O14 O 0.84044 0.15053 0.32149 0.0
O15 O 0.85418 0.10971 0.27334 0.0
C16 C 0.87307 0.2071 0.98055 0.0
C17 C 0.93966 0.18968 0.2334 0.0
C18 C 0.82997 0.11009 0.96297 0.0
O19 O 0.85887 0.20151 0.09146 0.0
O20 O 0.88992 0.19022 0.95582 0.0
O21 O 0.86271 0.1175 0.97901 0.0
O22 O 0.81822 0.12443 0.04166 0.0
C23 C 0.83941 0.12102 0.35157 0.0
O24 O 0.92626 0.15928 0.17642 0.0
O25 O 0.92007 0.20432 0.23594 0.0
In26 In 0.77198 0.70084 0.13887 0.0
O27 O 0.77017 0.75284 0.17631 0.0
O28 O 0.72515 0.7016 0.23574 0.0
C29 C 0.81939 0.70576 0.96293 0.0
C30 C 0.80846 0.70424 0.35142 0.0
C31 C 0.72241 0.65187 0.98023 0.0
O32 O 0.81197 0.73109 0.97881 0.0
O33 O 0.80507 0.67969 0.04169 0.0
O34 O 0.72798 0.64325 0.09121 0.0
O35 O 0.73926 0.68559 0.9555 0.0
C36 C 0.73979 0.73582 0.23331 0.0
O37 O 0.77896 0.67577 0.32131 0.0
O38 O 0.81977 0.73034 0.27318 0.0
In39 In 0.04303 0.24279 0.38468 0.0
O40 O -0.01077 0.19077 0.3474 0.0
O41 O -0.0046 0.24199 0.28773 0.0
C42 C 0.08551 0.23789 0.56086 0.0
C43 C 0.07607 0.23936 0.17224 0.0
C44 C 0.04237 0.29175 0.54313 0.0
O45 O 0.05277 0.21254 0.54483 0.0
O46 O 0.09725 0.26397 0.48214 0.0
O47 O 0.05658 0.30038 0.43223 0.0
O48 O 0.02553 0.25803 0.56788 0.0
C49 C -0.02418 0.20776 0.29036 0.0
O50 O 0.07503 0.26784 0.20224 0.0
O51 O 0.06131 0.21328 0.25053 0.0
In52 In 0.68673 0.78607 0.38491 0.0
O53 O 0.73873 0.78427 0.34754 0.0
O54 O 0.6875 0.73925 0.28794 0.0
C55 C 0.69165 0.83347 0.56093 0.0
C56 C 0.69014 0.82255 0.1724 0.0
C57 C 0.63778 0.73649 0.54345 0.0
O58 O 0.71698 0.82606 0.54506 0.0
O59 O 0.66557 0.81915 0.48213 0.0
O60 O 0.62914 0.74206 0.43249 0.0
O61 O 0.6715 0.75335 0.56821 0.0
C62 C 0.72172 0.75388 0.29046 0.0
O63 O 0.66166 0.79305 0.20243 0.0
O64 O 0.71623 0.83386 0.25071 0.0
In65 In 0.14344 0.88658 0.38482 0.0
O66 O 0.14524 0.94039 0.3474 0.0
O67 O 0.19027 0.93418 0.288 0.0
C68 C 0.09603 0.84409 0.5608 0.0
C69 C 0.10697 0.85352 0.17227 0.0
C70 C 0.19302 0.88718 0.54345 0.0
O71 O 0.10345 0.87685 0.54485 0.0
O72 O 0.11036 0.83234 0.4821 0.0
O73 O 0.18744 0.87298 0.4325 0.0
O74 O 0.17616 0.90404 0.56817 0.0
C75 C 0.17564 0.95377 0.29046 0.0
O76 O 0.13647 0.85455 0.20241 0.0
O77 O 0.09566 0.86831 0.25048 0.0
In78 In 0.68673 0.88653 0.8848 0.0
O79 O 0.66168 0.8545 0.70232 0.0
O80 O 0.71623 0.86823 0.75069 0.0
C81 C 0.63778 0.88719 0.04325 0.0
C82 C 0.72174 0.95371 0.79038 0.0
C83 C 0.69163 0.84404 0.06095 0.0
O84 O 0.62914 0.87297 0.93233 0.0
O85 O 0.67151 0.90404 0.06801 0.0
O86 O 0.71698 0.87678 0.04499 0.0
O87 O 0.66555 0.83229 0.98215 0.0
C88 C 0.69015 0.85345 0.67237 0.0
O89 O 0.73874 0.94032 0.8475 0.0
O90 O 0.68751 0.93413 0.78778 0.0
In91 In 0.043 0.78614 0.8847 0.0
O92 O 0.07501 0.7931 0.70229 0.0
O93 O 0.06127 0.83392 0.75045 0.0
C94 C 0.04237 0.73653 0.04324 0.0
C95 C -0.02421 0.75395 0.79038 0.0
C96 C 0.08548 0.83353 0.06082 0.0
O97 O 0.05658 0.74211 0.93232 0.0
O98 O 0.02553 0.7534 0.06796 0.0
O99 O 0.05274 0.82613 0.04478 0.0
O100 O 0.09723 0.81919 0.98213 0.0
C101 C 0.07605 0.82261 0.67223 0.0
O102 O -0.01081 0.78434 0.84736 0.0
O103 O -0.00461 0.73931 0.78783 0.0
In104 In 0.14347 0.24279 0.88491 0.0
O105 O 0.14528 0.19079 0.84747 0.0
O106 O 0.1903 0.24203 0.78803 0.0
C107 C 0.09607 0.23787 0.06087 0.0
C108 C 0.10699 0.23938 0.67237 0.0
C109 C 0.19305 0.29175 0.04355 0.0
O110 O 0.10349 0.21254 0.04497 0.0
O111 O 0.11039 0.26395 0.98209 0.0
O112 O 0.18747 0.30038 0.93258 0.0
O113 O 0.17619 0.25803 0.06827 0.0
C114 C 0.17567 0.20781 0.79046 0.0
O115 O 0.13649 0.26786 0.70247 0.0
O116 O 0.09569 0.21329 0.75061 0.0
In117 In 0.87243 0.70083 0.6391 0.0
O118 O 0.84042 0.67579 0.82155 0.0
O119 O 0.85415 0.73035 0.77324 0.0
C120 C 0.87308 0.65187 0.48065 0.0
C121 C 0.93963 0.73586 0.73342 0.0
C122 C 0.82994 0.70573 0.4629 0.0
O123 O 0.85887 0.64324 0.59155 0.0
O124 O 0.88992 0.68559 0.4559 0.0
O125 O 0.86268 0.73108 0.47894 0.0
O126 O 0.8182 0.67965 0.54164 0.0
C127 C 0.83937 0.70426 0.85152 0.0
O128 O 0.92623 0.75285 0.67637 0.0
O129 O 0.92005 0.70164 0.73605 0.0
In130 In 0.22873 0.15756 0.63887 0.0
O131 O 0.25379 0.15058 0.82136 0.0
O132 O 0.19923 0.10977 0.77306 0.0
C133 C 0.27768 0.20714 0.48034 0.0
C134 C 0.19373 0.18975 0.73332 0.0
C135 C 0.22382 0.11017 0.46283 0.0
O136 O 0.28631 0.20157 0.5913 0.0
O137 O 0.24395 0.19029 0.45558 0.0
O138 O 0.19848 0.11758 0.47872 0.0
O139 O 0.24989 0.12449 0.54166 0.0
C140 C 0.22532 0.12107 0.85136 0.0
O141 O 0.17673 0.15936 0.67624 0.0
O142 O 0.22796 0.20438 0.73584 0.0
In143 In 0.77202 0.05705 0.63896 0.0
O144 O 0.77898 0.08908 0.82137 0.0
O145 O 0.8198 0.07532 0.77329 0.0
C146 C 0.72243 0.05645 0.48033 0.0
C147 C 0.73982 -0.01014 0.73332 0.0
C148 C 0.81941 0.09953 0.46296 0.0
O149 O 0.72801 0.07065 0.59128 0.0
O150 O 0.73929 0.03959 0.45561 0.0
O151 O 0.812 0.06678 0.47893 0.0
O152 O 0.80509 0.11129 0.54168 0.0
C153 C 0.80849 0.09011 0.85149 0.0
O154 O 0.77021 0.00324 0.67638 0.0
O155 O 0.72518 0.00945 0.73578 0.0
In156 In 0.8954 0.39044 0.47232 0.0
O157 O 0.92045 0.42246 0.6548 0.0
O158 O 0.86589 0.40873 0.60643 0.0
C159 C 0.94434 0.38978 0.31386 0.0
C160 C 0.86038 0.32325 0.56674 0.0
C161 C 0.89049 0.43293 0.29618 0.0
O162 O 0.95298 0.40399 0.42479 0.0
O163 O 0.91061 0.37293 0.2891 0.0
O164 O 0.86515 0.40018 0.31213 0.0
O165 O 0.91657 0.44467 0.37497 0.0
C166 C 0.89198 0.42351 0.68476 0.0
O167 O 0.84338 0.33664 0.50962 0.0
O168 O 0.8946 0.34283 0.56934 0.0
In169 In 0.53911 0.49083 0.47242 0.0
O170 O 0.59292 0.49261 0.50977 0.0
O171 O 0.58673 0.53765 0.5693 0.0
C172 C 0.49663 0.44343 0.29631 0.0
C173 C 0.50607 0.45435 0.68491 0.0
C174 C 0.53974 0.54043 0.31389 0.0
O175 O 0.52938 0.45084 0.31235 0.0
O176 O 0.48488 0.45777 0.375 0.0
O177 O 0.52554 0.53485 0.4248 0.0
O178 O 0.55659 0.52356 0.28916 0.0
C179 C 0.60632 0.52301 0.56675 0.0
O180 O 0.50711 0.48387 0.65483 0.0
O181 O 0.52084 0.44304 0.60668 0.0
In182 In 0.43865 0.03417 0.4722 0.0
O183 O 0.43684 0.08617 0.50965 0.0
O184 O 0.39182 0.03493 0.56909 0.0
C185 C 0.48606 0.03909 0.29626 0.0
C186 C 0.47513 0.03757 0.68475 0.0
C187 C 0.38907 -0.0148 0.31357 0.0
O188 O 0.47863 0.06442 0.31214 0.0
O189 O 0.47173 0.01301 0.37502 0.0
O190 O 0.39465 -0.02342 0.42454 0.0
O191 O 0.40593 0.01893 0.28884 0.0
C192 C 0.40646 0.06916 0.56666 0.0
O193 O 0.44562 0.0091 0.65464 0.0
O194 O 0.48643 0.06367 0.60651 0.0
In195 In 0.70969 0.57611 0.71805 0.0
O196 O 0.65589 0.52409 0.68075 0.0
O197 O 0.66206 0.57532 0.62112 0.0
C198 C 0.75217 0.5712 0.89422 0.0
C199 C 0.74273 0.57268 0.50561 0.0
C200 C 0.70904 0.62506 0.87652 0.0
O201 O 0.71943 0.54586 0.87819 0.0
O202 O 0.76392 0.59729 0.8155 0.0
O203 O 0.72325 0.6337 0.76562 0.0
O204 O 0.69218 0.59134 0.90127 0.0
C205 C 0.64248 0.54109 0.62372 0.0
O206 O 0.74169 0.60115 0.53561 0.0
O207 O 0.72796 0.5466 0.58389 0.0
In208 In 0.35341 0.11941 0.71828 0.0
O209 O 0.40541 0.1176 0.68088 0.0
O210 O 0.35417 0.07258 0.62133 0.0
C211 C 0.35833 0.16682 0.89429 0.0
C212 C 0.35682 0.15589 0.50577 0.0
C213 C 0.30447 0.06986 0.87683 0.0
O214 O 0.38366 0.1594 0.87842 0.0
O215 O 0.33225 0.15249 0.81549 0.0
O216 O 0.29582 0.07541 0.76587 0.0
O217 O 0.3382 0.0867 0.9016 0.0
C218 C 0.3884 0.08722 0.62382 0.0
O219 O 0.32835 0.12639 0.5358 0.0
O220 O 0.38291 0.1672 0.58408 0.0
In221 In 0.8101 0.21991 0.71818 0.0
O222 O 0.80313 0.18789 0.53577 0.0
O223 O 0.76232 0.20165 0.58383 0.0
C224 C 0.85965 0.2205 0.87682 0.0
C225 C 0.8423 0.28711 0.62381 0.0
C226 C 0.76268 0.17743 0.89415 0.0
O227 O 0.8541 0.20631 0.76587 0.0
O228 O 0.84281 0.23738 0.90155 0.0
O229 O 0.77011 0.21018 0.87819 0.0
O230 O 0.77701 0.16568 0.81545 0.0
C231 C 0.77363 0.18686 0.50562 0.0
O232 O 0.8119 0.27373 0.68073 0.0
O233 O 0.85693 0.26751 0.62138 0.0
In234 In 0.35341 0.21986 0.21817 0.0
O235 O 0.32836 0.18784 0.03569 0.0
O236 O 0.38292 0.20158 0.08405 0.0
C237 C 0.30448 0.22051 0.37664 0.0
C238 C 0.38841 0.28705 0.12374 0.0
C239 C 0.35831 0.17738 0.39431 0.0
O240 O 0.29582 0.2063 0.26571 0.0
O241 O 0.3382 0.23738 0.40141 0.0
O242 O 0.38366 0.21012 0.37835 0.0
O243 O 0.33223 0.16563 0.31551 0.0
C244 C 0.35683 0.1868 1.00573 0.0
O245 O 0.40542 0.27366 0.18084 0.0
O246 O 0.35419 0.26747 0.12116 0.0
In247 In 0.70966 0.11948 0.21806 0.0
O248 O 0.65585 0.11768 0.1807 0.0
O249 O 0.66205 0.07264 0.1212 0.0
C250 C 0.75215 0.16687 0.39417 0.0
C251 C 0.74271 0.15595 1.00558 0.0
C252 C 0.70905 0.0699 0.37661 0.0
O253 O 0.7194 0.15947 0.37812 0.0
O254 O 0.7639 0.15254 0.31547 0.0
O255 O 0.72325 0.07546 0.26569 0.0
O256 O 0.69218 0.08675 0.40134 0.0
C257 C 0.64246 0.08728 0.12373 0.0
O258 O 0.74167 0.12644 0.03565 0.0
O259 O 0.72793 0.16726 0.0838 0.0
In260 In 0.81013 0.57611 0.21829 0.0
O261 O 0.80315 0.60118 0.03584 0.0
O262 O 0.76235 0.5466 0.08397 0.0
C263 C 0.85968 0.62506 0.37693 0.0
C264 C 0.84233 0.54113 0.12382 0.0
C265 C 0.76272 0.57119 0.39423 0.0
O266 O 0.85412 0.6337 0.26596 0.0
O267 O 0.84284 0.59134 0.40167 0.0
O268 O 0.77014 0.54585 0.37834 0.0
O269 O 0.77704 0.59726 0.31546 0.0
C270 C 0.77365 0.5727 1.00574 0.0
O271 O 0.81195 0.52411 0.18082 0.0
O272 O 0.85696 0.57536 0.12141 0.0
In273 In 0.53909 0.03416 0.97243 0.0
O274 O 0.50709 0.00912 0.15488 0.0
O275 O 0.52081 0.06367 0.10657 0.0
C276 C 0.53975 -0.0148 0.81398 0.0
C277 C 0.6063 0.0692 0.06676 0.0
C278 C 0.49661 0.03906 0.79623 0.0
O279 O 0.52554 -0.02343 0.92488 0.0
O280 O 0.55659 0.01893 0.78924 0.0
O281 O 0.52935 0.06441 0.81228 0.0
O282 O 0.48486 0.01298 0.87497 0.0
C283 C 0.50604 0.03759 0.18485 0.0
O284 O 0.59289 0.08618 1.00971 0.0
O285 O 0.58672 0.03497 0.06939 0.0
In286 In 0.8954 0.4909 0.97221 0.0
O287 O 0.92046 0.48391 0.15469 0.0
O288 O 0.8659 0.4431 0.10639 0.0
C289 C 0.94434 0.54048 0.81367 0.0
C290 C 0.8604 0.52308 0.06667 0.0
C291 C 0.89049 0.4435 0.79616 0.0
O292 O 0.95298 0.53491 0.92462 0.0
O293 O 0.91062 0.52362 0.78891 0.0
O294 O 0.86515 0.45091 0.81205 0.0
O295 O 0.91656 0.45782 0.87499 0.0
C296 C 0.89199 0.4544 0.18469 0.0
O297 O 0.84339 0.49269 1.00958 0.0
O298 O 0.89463 0.53771 0.06919 0.0
In299 In 0.43868 0.39039 0.9723 0.0
O300 O 0.43688 0.33658 1.00973 0.0
O301 O 0.39185 0.34279 0.06914 0.0
C302 C 0.48607 0.43287 0.7963 0.0
C303 C 0.47516 0.42345 0.18483 0.0
C304 C 0.38909 0.38978 0.81367 0.0
O305 O 0.47866 0.40012 0.81227 0.0
O306 O 0.47175 0.44462 0.87502 0.0
O307 O 0.39467 0.40398 0.92462 0.0
O308 O 0.40595 0.37292 0.78896 0.0
C309 C 0.40649 0.32319 0.06668 0.0
O310 O 0.44565 0.42242 0.15471 0.0
O311 O 0.48646 0.40866 0.10663 0.0
In312 In 0.56205 0.72377 0.80562 0.0
O313 O 0.5871 0.75579 0.9881 0.0
O314 O 0.53255 0.74206 0.93974 0.0
C315 C 0.61098 0.72312 0.64715 0.0
C316 C 0.52704 0.65658 0.90005 0.0
C317 C 0.55714 0.76626 0.62949 0.0
O318 O 0.61964 0.73733 0.75808 0.0
O319 O 0.57725 0.70625 0.62238 0.0
O320 O 0.5318 0.73351 0.64544 0.0
O321 O 0.58322 0.778 0.70828 0.0
C322 C 0.55863 0.75683 0.01807 0.0
O323 O 0.51004 0.66997 0.84295 0.0
O324 O 0.56127 0.67616 0.90262 0.0
In325 In 0.20579 0.82415 0.80572 0.0
O326 O 0.17378 0.81719 0.98814 0.0
O327 O 0.18752 0.77637 0.93999 0.0
C328 C 0.2064 0.87373 0.64718 0.0
C329 C 0.27299 0.85634 0.90006 0.0
C330 C 0.1633 0.77675 0.62963 0.0
O331 O 0.1922 0.86817 0.75809 0.0
O332 O 0.22327 0.85688 0.62245 0.0
O333 O 0.19605 0.78416 0.64566 0.0
O334 O 0.15155 0.79109 0.70831 0.0
C335 C 0.17275 0.78768 0.01822 0.0
O336 O 0.25959 0.82594 0.84309 0.0
O337 O 0.2534 0.87098 0.90258 0.0
In338 In 0.10532 0.36751 0.8055 0.0
O339 O 0.1123 0.34245 0.98794 0.0
O340 O 0.1531 0.39702 0.93982 0.0
C341 C 0.05577 0.31856 0.64685 0.0
C342 C 0.07312 0.4025 0.89997 0.0
C343 C 0.15273 0.37244 0.62957 0.0
O344 O 0.06133 0.30992 0.75783 0.0
O345 O 0.07261 0.35229 0.62212 0.0
O346 O 0.14531 0.39777 0.64545 0.0
O347 O 0.13841 0.34636 0.70833 0.0
C348 C 0.1418 0.37092 0.01806 0.0
O349 O 0.10351 0.41951 0.84297 0.0
O350 O 0.05849 0.36827 0.90237 0.0
In351 In 0.37635 0.90945 0.05138 0.0
O352 O 0.32256 0.85743 0.01407 0.0
O353 O 0.32873 0.90865 0.95444 0.0
C354 C 0.41884 0.90454 0.22755 0.0
C355 C 0.4094 0.90602 0.83893 0.0
C356 C 0.37571 0.95839 0.20985 0.0
O357 O 0.3861 0.8792 0.21152 0.0
O358 O 0.43058 0.93063 0.14883 0.0
O359 O 0.38992 0.96704 0.09895 0.0
O360 O 0.35885 0.92467 0.2346 0.0
C361 C 0.30915 0.87442 0.95704 0.0
O362 O 0.40836 0.93449 0.86893 0.0
O363 O 0.39463 0.87994 0.91722 0.0
In364 In 0.02007 0.45274 0.0516 0.0
O365 O 0.07207 0.45094 0.0142 0.0
O366 O 0.02083 0.40592 0.95464 0.0
C367 C 0.02499 0.50015 0.22762 0.0
C368 C 0.02348 0.48922 0.83909 0.0
C369 C -0.02886 0.40318 0.21016 0.0
O370 O 0.05032 0.49273 0.21174 0.0
O371 O -0.00109 0.48582 0.14881 0.0
O372 O -0.03752 0.40874 0.0992 0.0
O373 O 0.00486 0.42003 0.23492 0.0
C374 C 0.05506 0.42055 0.95713 0.0
O375 O -0.00499 0.45972 0.86912 0.0
O376 O 0.04957 0.50053 0.9174 0.0
In377 In 0.47676 0.55324 0.05151 0.0
O378 O 0.47857 0.60706 0.01405 0.0
O379 O 0.5236 0.60084 0.95469 0.0
C380 C 0.42936 0.51076 0.22748 0.0
C381 C 0.4403 0.52019 0.83896 0.0
C382 C 0.52632 0.55384 0.21016 0.0
O383 O 0.43678 0.54351 0.21152 0.0
O384 O 0.44369 0.49901 0.14878 0.0
O385 O 0.52077 0.53965 0.0992 0.0
O386 O 0.50948 0.57072 0.23487 0.0
C387 C 0.50896 0.62044 0.95713 0.0
O388 O 0.4698 0.52122 0.8691 0.0
O389 O 0.42899 0.53498 0.91716 0.0
In390 In 0.02007 0.5532 0.55149 0.0
O391 O 0.07208 0.60699 0.51417 0.0
O392 O 0.02085 0.6008 0.45448 0.0
C393 C 0.02497 0.51071 0.72764 0.0
C394 C 0.02349 0.52013 0.33906 0.0
C395 C -0.02886 0.55385 0.70996 0.0
O396 O 0.05032 0.54345 0.71167 0.0
O397 O -0.00111 0.49896 0.64884 0.0
O398 O -0.03752 0.53964 0.59904 0.0
O399 O 0.00487 0.57072 0.73473 0.0
C400 C 0.05508 0.62038 0.45706 0.0
O401 O -0.00498 0.52117 0.36901 0.0
O402 O 0.04958 0.53491 0.41738 0.0
In403 In 0.37633 0.45281 0.55139 0.0
O404 O 0.40834 0.45977 0.36898 0.0
O405 O 0.3946 0.50059 0.41713 0.0
C406 C 0.37571 0.40323 0.70994 0.0
C407 C 0.30913 0.42062 0.45705 0.0
C408 C 0.41881 0.5002 0.7275 0.0
O409 O 0.38991 0.40879 0.59903 0.0
O410 O 0.35885 0.42008 0.73466 0.0
O411 O 0.38607 0.4928 0.71145 0.0
O412 O 0.43056 0.48587 0.64881 0.0
C413 C 0.40938 0.48928 0.33892 0.0
O414 O 0.32252 0.45102 0.51402 0.0
O415 O 0.32872 0.40598 0.45452 0.0
In416 In 0.4768 0.90945 0.55161 0.0
O417 O 0.46982 0.93451 0.36917 0.0
O418 O 0.42902 0.87994 0.4173 0.0
C419 C 0.52635 0.95839 0.71026 0.0
C420 C 0.509 0.87447 0.45714 0.0
C421 C 0.42939 0.90453 0.72756 0.0
O422 O 0.52079 0.96704 0.59929 0.0
O423 O 0.50951 0.92467 0.73499 0.0
O424 O 0.43681 0.87919 0.71166 0.0
O425 O 0.44371 0.9306 0.64878 0.0
C426 C 0.44032 0.90604 0.33907 0.0
O427 O 0.47861 0.85745 0.51414 0.0
O428 O 0.52363 0.90869 0.45473 0.0
In429 In 0.20576 0.36751 0.30573 0.0
O430 O 0.25956 0.41953 0.34303 0.0
O431 O 0.25339 0.36831 0.40268 0.0
C432 C 0.16328 0.37241 0.12954 0.0
C433 C 0.17271 0.37094 0.51816 0.0
C434 C 0.20641 0.31857 0.14726 0.0
O435 O 0.19602 0.39776 0.14559 0.0
O436 O 0.15153 0.34633 0.20828 0.0
O437 O 0.1922 0.30992 0.25817 0.0
O438 O 0.22327 0.35229 0.12252 0.0
C439 C 0.27297 0.40253 0.40007 0.0
O440 O 0.17376 0.34247 0.48818 0.0
O441 O 0.18749 0.39702 0.43988 0.0
In442 In 0.56205 0.82422 0.30551 0.0
O443 O 0.51005 0.82602 0.3429 0.0
O444 O 0.56129 0.87105 0.40247 0.0
C445 C 0.55714 0.77682 0.12948 0.0
C446 C 0.55864 0.78773 0.518 0.0
C447 C 0.61098 0.87378 0.14695 0.0
O448 O 0.5318 0.78423 0.14536 0.0
O449 O 0.58321 0.79114 0.2083 0.0
O450 O 0.61964 0.86823 0.25791 0.0
O451 O 0.57726 0.85694 0.12219 0.0
C452 C 0.52706 0.85641 0.39997 0.0
O453 O 0.58711 0.81724 0.48799 0.0
O454 O 0.53255 0.77643 0.4397 0.0
In455 In 0.10535 0.72372 0.3056 0.0
O456 O 0.10355 0.6699 0.34305 0.0
O457 O 0.05852 0.67612 0.40242 0.0
C458 C 0.15275 0.7662 0.12962 0.0
C459 C 0.14183 0.75677 0.51814 0.0
C460 C 0.05579 0.72312 0.14696 0.0
O461 O 0.14534 0.73345 0.14559 0.0
O462 O 0.13843 0.77795 0.20834 0.0
O463 O 0.06135 0.73732 0.25792 0.0
O464 O 0.07263 0.70624 0.12225 0.0
C465 C 0.07315 0.65652 0.39998 0.0
O466 O 0.11232 0.75574 0.48802 0.0
O467 O 0.15313 0.74198 0.43995 0.0
loop_
_geom_bond_atom_site_label_1
_geom_bond_atom_site_label_2
_geom_bond_distance
_geom_bond_site_symmetry_2
_ccdc_geom_bond_type
In0 O1 2.294 . S
In0 O2 2.326 . S
In0 O6 2.266 . S
In0 O7 2.326 1_554 S
In0 O8 2.266 1_554 S
In0 O9 2.326 1_554 S
In0 O11 2.294 . S
In0 O12 2.326 . S
O1 In0 2.294 . S
O1 C10 1.240 . S
O2 In0 2.326 . S
O2 C10 1.252 . S
C3 O6 1.252 1_556 S
C3 O7 1.260 . S
C4 O11 1.240 . S
C4 O12 1.252 . S
C5 O8 1.252 . S
C5 O9 1.260 . S
O6 In0 2.266 . S
O6 C3 1.252 1_554 S
O7 In0 2.326 1_556 S
O7 C3 1.260 . S
O8 In0 2.266 1_556 S
O8 C5 1.252 . S
O9 In0 2.326 1_556 S
O9 C5 1.260 . S
C10 O1 1.240 . S
C10 O2 1.252 . S
O11 In0 2.294 . S
O11 C4 1.240 . S
O12 In0 2.326 . S
O12 C4 1.252 . S
In13 O14 2.294 . S
In13 O15 2.326 . S
In13 O19 2.266 . S
In13 O20 2.326 1_554 S
In13 O21 2.266 1_554 S
In13 O22 2.326 1_554 S
In13 O24 2.294 . S
In13 O25 2.326 . S
O14 In13 2.294 . S
O14 C23 1.240 . S
O15 In13 2.326 . S
O15 C23 1.252 . S
C16 O19 1.252 1_556 S
C16 O20 1.260 . S
C17 O24 1.240 . S
C17 O25 1.252 . S
C18 O21 1.252 . S
C18 O22 1.260 . S
O19 In13 2.266 . S
O19 C16 1.252 1_554 S
O20 In13 2.326 1_556 S
O20 C16 1.260 . S
O21 In13 2.266 1_556 S
O21 C18 1.252 . S
O22 In13 2.326 1_556 S
O22 C18 1.260 . S
C23 O14 1.240 . S
C23 O15 1.252 . S
O24 In13 2.294 . S
O24 C17 1.240 . S
O25 In13 2.326 . S
O25 C17 1.252 . S
In26 O27 2.294 . S
In26 O28 2.326 . S
In26 O32 2.266 1_554 S
In26 O33 2.326 1_554 S
In26 O34 2.266 . S
In26 O35 2.326 1_554 S
In26 O37 2.294 . S
In26 O38 2.326 . S
O27 In26 2.294 . S
O27 C36 1.240 . S
O28 In26 2.326 . S
O28 C36 1.252 . S
C29 O32 1.252 . S
C29 O33 1.260 . S
C30 O37 1.240 . S
C30 O38 1.252 . S
C31 O34 1.252 1_556 S
C31 O35 1.260 . S
O32 In26 2.266 1_556 S
O32 C29 1.252 . S
O33 In26 2.326 1_556 S
O33 C29 1.260 . S
O34 In26 2.266 . S
O34 C31 1.252 1_554 S
O35 In26 2.326 1_556 S
O35 C31 1.260 . S
C36 O27 1.240 . S
C36 O28 1.252 . S
O37 In26 2.294 . S
O37 C30 1.240 . S
O38 In26 2.326 . S
O38 C30 1.252 . S
In39 O40 2.294 . S
In39 O41 2.326 . S
In39 O45 2.266 . S
In39 O46 2.326 . S
In39 O47 2.266 . S
In39 O48 2.326 . S
In39 O50 2.294 . S
In39 O51 2.326 . S
O40 In39 2.294 . S
O40 C49 1.240 . S
O41 In39 2.326 . S
O41 C49 1.252 . S
C42 O45 1.252 . S
C42 O46 1.260 . S
C43 O50 1.240 . S
C43 O51 1.252 . S
C44 O47 1.252 . S
C44 O48 1.260 . S
O45 In39 2.266 . S
O45 C42 1.252 . S
O46 In39 2.326 . S
O46 C42 1.260 . S
O47 In39 2.266 . S
O47 C44 1.252 . S
O48 In39 2.326 . S
O48 C44 1.260 . S
C49 O40 1.240 . S
C49 O41 1.252 . S
O50 In39 2.294 . S
O50 C43 1.240 . S
O51 In39 2.326 . S
O51 C43 1.252 . S
In52 O53 2.294 . S
In52 O54 2.326 . S
In52 O58 2.266 . S
In52 O59 2.326 . S
In52 O60 2.266 . S
In52 O61 2.326 . S
In52 O63 2.294 . S
In52 O64 2.326 . S
O53 In52 2.294 . S
O53 C62 1.240 . S
O54 In52 2.326 . S
O54 C62 1.252 . S
C55 O58 1.252 . S
C55 O59 1.260 . S
C56 O63 1.240 . S
C56 O64 1.252 . S
C57 O60 1.252 . S
C57 O61 1.260 . S
O58 In52 2.266 . S
O58 C55 1.252 . S
O59 In52 2.326 . S
O59 C55 1.260 . S
O60 In52 2.266 . S
O60 C57 1.252 . S
O61 In52 2.326 . S
O61 C57 1.260 . S
C62 O53 1.240 . S
C62 O54 1.252 . S
O63 In52 2.294 . S
O63 C56 1.240 . S
O64 In52 2.326 . S
O64 C56 1.252 . S
In65 O66 2.294 . S
In65 O67 2.326 . S
In65 O71 2.266 . S
In65 O72 2.326 . S
In65 O73 2.266 . S
In65 O74 2.326 . S
In65 O76 2.294 . S
In65 O77 2.326 . S
O66 In65 2.294 . S
O66 C75 1.240 . S
O67 In65 2.326 . S
O67 C75 1.252 . S
C68 O71 1.252 . S
C68 O72 1.260 . S
C69 O76 1.240 . S
C69 O77 1.252 . S
C70 O73 1.252 . S
C70 O74 1.260 . S
O71 In65 2.266 . S
O71 C68 1.252 . S
O72 In65 2.326 . S
O72 C68 1.260 . S
O73 In65 2.266 . S
O73 C70 1.252 . S
O74 In65 2.326 . S
O74 C70 1.260 . S
C75 O66 1.240 . S
C75 O67 1.252 . S
O76 In65 2.294 . S
O76 C69 1.240 . S
O77 In65 2.326 . S
O77 C69 1.252 . S
In78 O79 2.294 . S
In78 O80 2.326 . S
In78 O84 2.266 . S
In78 O85 2.326 1_556 S
In78 O86 2.266 1_556 S
In78 O87 2.326 1_556 S
In78 O89 2.294 . S
In78 O90 2.326 . S
O79 In78 2.294 . S
O79 C88 1.240 . S
O80 In78 2.326 . S
O80 C88 1.252 . S
C81 O84 1.252 1_554 S
C81 O85 1.260 . S
C82 O89 1.240 . S
C82 O90 1.252 . S
C83 O86 1.252 . S
C83 O87 1.260 . S
O84 In78 2.266 . S
O84 C81 1.252 1_556 S
O85 In78 2.326 1_554 S
O85 C81 1.260 . S
O86 In78 2.266 1_554 S
O86 C83 1.252 . S
O87 In78 2.326 1_554 S
O87 C83 1.260 . S
C88 O79 1.240 . S
C88 O80 1.252 . S
O89 In78 2.294 . S
O89 C82 1.240 . S
O90 In78 2.326 . S
O90 C82 1.252 . S
In91 O92 2.294 . S
In91 O93 2.326 . S
In91 O97 2.266 . S
In91 O98 2.326 1_556 S
In91 O99 2.266 1_556 S
In91 O100 2.326 1_556 S
In91 O102 2.294 . S
In91 O103 2.326 . S
O92 In91 2.294 . S
O92 C101 1.240 . S
O93 In91 2.326 . S
O93 C101 1.252 . S
C94 O97 1.252 1_554 S
C94 O98 1.260 . S
C95 O102 1.240 . S
C95 O103 1.252 . S
C96 O99 1.252 . S
C96 O100 1.260 . S
O97 In91 2.266 . S
O97 C94 1.252 1_556 S
O98 In91 2.326 1_554 S
O98 C94 1.260 . S
O99 In91 2.266 1_554 S
O99 C96 1.252 . S
O100 In91 2.326 1_554 S
O100 C96 1.260 . S
C101 O92 1.240 . S
C101 O93 1.252 . S
O102 In91 2.294 . S
O102 C95 1.240 . S
O103 In91 2.326 . S
O103 C95 1.252 . S
In104 O105 2.294 . S
In104 O106 2.326 . S
In104 O110 2.266 1_556 S
In104 O111 2.326 1_556 S
In104 O112 2.266 . S
In104 O113 2.326 1_556 S
In104 O115 2.294 . S
In104 O116 2.326 . S
O105 In104 2.294 . S
O105 C114 1.240 . S
O106 In104 2.326 . S
O106 C114 1.252 . S
C107 O110 1.252 . S
C107 O111 1.260 . S
C108 O115 1.240 . S
C108 O116 1.252 . S
C109 O112 1.252 1_554 S
C109 O113 1.260 . S
O110 In104 2.266 1_554 S
O110 C107 1.252 . S
O111 In104 2.326 1_554 S
O111 C107 1.260 . S
O112 In104 2.266 . S
O112 C109 1.252 1_556 S
O113 In104 2.326 1_554 S
O113 C109 1.260 . S
C114 O105 1.240 . S
C114 O106 1.252 . S
O115 In104 2.294 . S
O115 C108 1.240 . S
O116 In104 2.326 . S
O116 C108 1.252 . S
In117 O118 2.294 . S
In117 O119 2.326 . S
In117 O123 2.266 . S
In117 O124 2.326 . S
In117 O125 2.266 . S
In117 O126 2.326 . S
In117 O128 2.294 . S
In117 O129 2.326 . S
O118 In117 2.294 . S
O118 C127 1.240 . S
O119 In117 2.326 . S
O119 C127 1.252 . S
C120 O123 1.252 . S
C120 O124 1.260 . S
C121 O128 1.240 . S
C121 O129 1.252 . S
C122 O125 1.252 . S
C122 O126 1.260 . S
O123 In117 2.266 . S
O123 C120 1.252 . S
O124 In117 2.326 . S
O124 C120 1.260 . S
O125 In117 2.266 . S
O125 C122 1.252 . S
O126 In117 2.326 . S
O126 C122 1.260 . S
C127 O118 1.240 . S
C127 O119 1.252 . S
O128 In117 2.294 . S
O128 C121 1.240 . S
O129 In117 2.326 . S
O129 C121 1.252 . S
In130 O131 2.294 . S
In130 O132 2.326 . S
In130 O136 2.266 . S
In130 O137 2.326 . S
In130 O138 2.266 . S
In130 O139 2.326 . S
In130 O141 2.294 . S
In130 O142 2.326 . S
O131 In130 2.294 . S
O131 C140 1.240 . S
O132 In130 2.326 . S
O132 C140 1.252 . S
C133 O136 1.252 . S
C133 O137 1.260 . S
C134 O141 1.240 . S
C134 O142 1.252 . S
C135 O138 1.252 . S
C135 O139 1.260 . S
O136 In130 2.266 . S
O136 C133 1.252 . S
O137 In130 2.326 . S
O137 C133 1.260 . S
O138 In130 2.266 . S
O138 C135 1.252 . S
O139 In130 2.326 . S
O139 C135 1.260 . S
C140 O131 1.240 . S
C140 O132 1.252 . S
O141 In130 2.294 . S
O141 C134 1.240 . S
O142 In130 2.326 . S
O142 C134 1.252 . S
In143 O144 2.294 . S
In143 O145 2.326 . S
In143 O149 2.266 . S
In143 O150 2.326 . S
In143 O151 2.266 . S
In143 O152 2.326 . S
In143 O154 2.294 . S
In143 O155 2.326 . S
O144 In143 2.294 . S
O144 C153 1.240 . S
O145 In143 2.326 . S
O145 C153 1.252 . S
C146 O149 1.252 . S
C146 O150 1.260 . S
C147 O154 1.240 . S
C147 O155 1.252 . S
C148 O151 1.252 . S
C148 O152 1.260 . S
O149 In143 2.266 . S
O149 C146 1.252 . S
O150 In143 2.326 . S
O150 C146 1.260 . S
O151 In143 2.266 . S
O151 C148 1.252 . S
O152 In143 2.326 . S
O152 C148 1.260 . S
C153 O144 1.240 . S
C153 O145 1.252 . S
O154 In143 2.294 . S
O154 C147 1.240 . S
O155 In143 2.326 . S
O155 C147 1.252 . S
In156 O157 2.294 . S
In156 O158 2.326 . S
In156 O162 2.266 . S
In156 O163 2.326 . S
In156 O164 2.266 . S
In156 O165 2.326 . S
In156 O167 2.294 . S
In156 O168 2.326 . S
O157 In156 2.294 . S
O157 C166 1.240 . S
O158 In156 2.326 . S
O158 C166 1.252 . S
C159 O162 1.252 . S
C159 O163 1.260 . S
C160 O167 1.240 . S
C160 O168 1.252 . S
C161 O164 1.252 . S
C161 O165 1.260 . S
O162 In156 2.266 . S
O162 C159 1.252 . S
O163 In156 2.326 . S
O163 C159 1.260 . S
O164 In156 2.266 . S
O164 C161 1.252 . S
O165 In156 2.326 . S
O165 C161 1.260 . S
C166 O157 1.240 . S
C166 O158 1.252 . S
O167 In156 2.294 . S
O167 C160 1.240 . S
O168 In156 2.326 . S
O168 C160 1.252 . S
In169 O170 2.294 . S
In169 O171 2.326 . S
In169 O175 2.266 . S
In169 O176 2.326 . S
In169 O177 2.266 . S
In169 O178 2.326 . S
In169 O180 2.294 . S
In169 O181 2.326 . S
O170 In169 2.294 . S
O170 C179 1.240 . S
O171 In169 2.326 . S
O171 C179 1.252 . S
C172 O175 1.252 . S
C172 O176 1.260 . S
C173 O180 1.240 . S
C173 O181 1.252 . S
C174 O177 1.252 . S
C174 O178 1.260 . S
O175 In169 2.266 . S
O175 C172 1.252 . S
O176 In169 2.326 . S
O176 C172 1.260 . S
O177 In169 2.266 . S
O177 C174 1.252 . S
O178 In169 2.326 . S
O178 C174 1.260 . S
C179 O170 1.240 . S
C179 O171 1.252 . S
O180 In169 2.294 . S
O180 C173 1.240 . S
O181 In169 2.326 . S
O181 C173 1.252 . S
In182 O183 2.294 . S
In182 O184 2.326 . S
In182 O188 2.266 . S
In182 O189 2.326 . S
In182 O190 2.266 . S
In182 O191 2.326 . S
In182 O193 2.294 . S
In182 O194 2.326 . S
O183 In182 2.294 . S
O183 C192 1.240 . S
O184 In182 2.326 . S
O184 C192 1.252 . S
C185 O188 1.252 . S
C185 O189 1.260 . S
C186 O193 1.240 . S
C186 O194 1.252 . S
C187 O190 1.252 . S
C187 O191 1.260 . S
O188 In182 2.266 . S
O188 C185 1.252 . S
O189 In182 2.326 . S
O189 C185 1.260 . S
O190 In182 2.266 . S
O190 C187 1.252 . S
O191 In182 2.326 . S
O191 C187 1.260 . S
C192 O183 1.240 . S
C192 O184 1.252 . S
O193 In182 2.294 . S
O193 C186 1.240 . S
O194 In182 2.326 . S
O194 C186 1.252 . S
In195 O196 2.294 . S
In195 O197 2.326 . S
In195 O201 2.266 . S
In195 O202 2.326 . S
In195 O203 2.266 . S
In195 O204 2.326 . S
In195 O206 2.294 . S
In195 O207 2.326 . S
O196 In195 2.294 . S
O196 C205 1.240 . S
O197 In195 2.326 . S
O197 C205 1.252 . S
C198 O201 1.252 . S
C198 O202 1.260 . S
C199 O206 1.240 . S
C199 O207 1.252 . S
C200 O203 1.252 . S
C200 O204 1.260 . S
O201 In195 2.266 . S
O201 C198 1.252 . S
O202 In195 2.326 . S
O202 C198 1.260 . S
O203 In195 2.266 . S
O203 C200 1.252 . S
O204 In195 2.326 . S
O204 C200 1.260 . S
C205 O196 1.240 . S
C205 O197 1.252 . S
O206 In195 2.294 . S
O206 C199 1.240 . S
O207 In195 2.326 . S
O207 C199 1.252 . S
In208 O209 2.294 . S
In208 O210 2.326 . S
In208 O214 2.266 . S
In208 O215 2.326 . S
In208 O216 2.266 . S
In208 O217 2.326 . S
In208 O219 2.294 . S
In208 O220 2.326 . S
O209 In208 2.294 . S
O209 C218 1.240 . S
O210 In208 2.326 . S
O210 C218 1.252 . S
C211 O214 1.252 . S
C211 O215 1.260 . S
C212 O219 1.240 . S
C212 O220 1.252 . S
C213 O216 1.252 . S
C213 O217 1.260 . S
O214 In208 2.266 . S
O214 C211 1.252 . S
O215 In208 2.326 . S
O215 C211 1.260 . S
O216 In208 2.266 . S
O216 C213 1.252 . S
O217 In208 2.326 . S
O217 C213 1.260 . S
C218 O209 1.240 . S
C218 O210 1.252 . S
O219 In208 2.294 . S
O219 C212 1.240 . S
O220 In208 2.326 . S
O220 C212 1.252 . S
In221 O222 2.294 . S
In221 O223 2.326 . S
In221 O227 2.266 . S
In221 O228 2.326 . S
In221 O229 2.266 . S
In221 O230 2.326 . S
In221 O232 2.294 . S
In221 O233 2.326 . S
O222 In221 2.294 . S
O222 C231 1.240 . S
O223 In221 2.326 . S
O223 C231 1.252 . S
C224 O227 1.252 . S
C224 O228 1.260 . S
C225 O232 1.240 . S
C225 O233 1.252 . S
C226 O229 1.252 . S
C226 O230 1.260 . S
O227 In221 2.266 . S
O227 C224 1.252 . S
O228 In221 2.326 . S
O228 C224 1.260 . S
O229 In221 2.266 . S
O229 C226 1.252 . S
O230 In221 2.326 . S
O230 C226 1.260 . S
C231 O222 1.240 . S
C231 O223 1.252 . S
O232 In221 2.294 . S
O232 C225 1.240 . S
O233 In221 2.326 . S
O233 C225 1.252 . S
In234 O235 2.294 . S
In234 O236 2.326 . S
In234 O240 2.266 . S
In234 O241 2.326 . S
In234 O242 2.266 . S
In234 O243 2.326 . S
In234 O245 2.294 . S
In234 O246 2.326 . S
O235 In234 2.294 . S
O235 C244 1.240 . S
O236 In234 2.326 . S
O236 C244 1.252 . S
C237 O240 1.252 . S
C237 O241 1.260 . S
C238 O245 1.240 . S
C238 O246 1.252 . S
C239 O242 1.252 . S
C239 O243 1.260 . S
O240 In234 2.266 . S
O240 C237 1.252 . S
O241 In234 2.326 . S
O241 C237 1.260 . S
O242 In234 2.266 . S
O242 C239 1.252 . S
O243 In234 2.326 . S
O243 C239 1.260 . S
C244 O235 1.240 . S
C244 O236 1.252 . S
O245 In234 2.294 . S
O245 C238 1.240 . S
O246 In234 2.326 . S
O246 C238 1.252 . S
In247 O248 2.294 . S
In247 O249 2.326 . S
In247 O253 2.266 . S
In247 O254 2.326 . S
In247 O255 2.266 . S
In247 O256 2.326 . S
In247 O258 2.294 . S
In247 O259 2.326 . S
O248 In247 2.294 . S
O248 C257 1.240 . S
O249 In247 2.326 . S
O249 C257 1.252 . S
C250 O253 1.252 . S
C250 O254 1.260 . S
C251 O258 1.240 . S
C251 O259 1.252 . S
C252 O255 1.252 . S
C252 O256 1.260 . S
O253 In247 2.266 . S
O253 C250 1.252 . S
O254 In247 2.326 . S
O254 C250 1.260 . S
O255 In247 2.266 . S
O255 C252 1.252 . S
O256 In247 2.326 . S
O256 C252 1.260 . S
C257 O248 1.240 . S
C257 O249 1.252 . S
O258 In247 2.294 . S
O258 C251 1.240 . S
O259 In247 2.326 . S
O259 C251 1.252 . S
In260 O261 2.294 . S
In260 O262 2.326 . S
In260 O266 2.266 . S
In260 O267 2.326 . S
In260 O268 2.266 . S
In260 O269 2.326 . S
In260 O271 2.294 . S
In260 O272 2.326 . S
O261 In260 2.294 . S
O261 C270 1.240 . S
O262 In260 2.326 . S
O262 C270 1.252 . S
C263 O266 1.252 . S
C263 O267 1.260 . S
C264 O271 1.240 . S
C264 O272 1.252 . S
C265 O268 1.252 . S
C265 O269 1.260 . S
O266 In260 2.266 . S
O266 C263 1.252 . S
O267 In260 2.326 . S
O267 C263 1.260 . S
O268 In260 2.266 . S
O268 C265 1.252 . S
O269 In260 2.326 . S
O269 C265 1.260 . S
C270 O261 1.240 . S
C270 O262 1.252 . S
O271 In260 2.294 . S
O271 C264 1.240 . S
O272 In260 2.326 . S
O272 C264 1.252 . S
In273 O274 2.294 1_556 S
In273 O275 2.326 1_556 S
In273 O279 2.266 . S
In273 O280 2.326 . S
In273 O281 2.266 . S
In273 O282 2.326 . S
In273 O284 2.294 . S
In273 O285 2.326 1_556 S
O274 In273 2.294 1_554 S
O274 C283 1.240 . S
O275 In273 2.326 1_554 S
O275 C283 1.252 . S
C276 O279 1.252 . S
C276 O280 1.260 . S
C277 O284 1.240 1_554 S
C277 O285 1.252 . S
C278 O281 1.252 . S
C278 O282 1.260 . S
O279 In273 2.266 . S
O279 C276 1.252 . S
O280 In273 2.326 . S
O280 C276 1.260 . S
O281 In273 2.266 . S
O281 C278 1.252 . S
O282 In273 2.326 . S
O282 C278 1.260 . S
C283 O274 1.240 . S
C283 O275 1.252 . S
O284 In273 2.294 . S
O284 C277 1.240 1_556 S
O285 In273 2.326 1_554 S
O285 C277 1.252 . S
In286 O287 2.294 1_556 S
In286 O288 2.326 1_556 S
In286 O292 2.266 . S
In286 O293 2.326 . S
In286 O294 2.266 . S
In286 O295 2.326 . S
In286 O297 2.294 . S
In286 O298 2.326 1_556 S
O287 In286 2.294 1_554 S
O287 C296 1.240 . S
O288 In286 2.326 1_554 S
O288 C296 1.252 . S
C289 O292 1.252 . S
C289 O293 1.260 . S
C290 O297 1.240 1_554 S
C290 O298 1.252 . S
C291 O294 1.252 . S
C291 O295 1.260 . S
O292 In286 2.266 . S
O292 C289 1.252 . S
O293 In286 2.326 . S
O293 C289 1.260 . S
O294 In286 2.266 . S
O294 C291 1.252 . S
O295 In286 2.326 . S
O295 C291 1.260 . S
C296 O287 1.240 . S
C296 O288 1.252 . S
O297 In286 2.294 . S
O297 C290 1.240 1_556 S
O298 In286 2.326 1_554 S
O298 C290 1.252 . S
In299 O300 2.294 . S
In299 O301 2.326 1_556 S
In299 O305 2.266 . S
In299 O306 2.326 . S
In299 O307 2.266 . S
In299 O308 2.326 . S
In299 O310 2.294 1_556 S
In299 O311 2.326 1_556 S
O300 In299 2.294 . S
O300 C309 1.240 1_556 S
O301 In299 2.326 1_554 S
O301 C309 1.252 . S
C302 O305 1.252 . S
C302 O306 1.260 . S
C303 O310 1.240 . S
C303 O311 1.252 . S
C304 O307 1.252 . S
C304 O308 1.260 . S
O305 In299 2.266 . S
O305 C302 1.252 . S
O306 In299 2.326 . S
O306 C302 1.260 . S
O307 In299 2.266 . S
O307 C304 1.252 . S
O308 In299 2.326 . S
O308 C304 1.260 . S
C309 O300 1.240 1_554 S
C309 O301 1.252 . S
O310 In299 2.294 1_554 S
O310 C303 1.240 . S
O311 In299 2.326 1_554 S
O311 C303 1.252 . S
In312 O313 2.294 . S
In312 O314 2.326 . S
In312 O318 2.266 . S
In312 O319 2.326 . S
In312 O320 2.266 . S
In312 O321 2.326 . S
In312 O323 2.294 . S
In312 O324 2.326 . S
O313 In312 2.294 . S
O313 C322 1.240 . S
O314 In312 2.326 . S
O314 C322 1.252 . S
C315 O318 1.252 . S
C315 O319 1.260 . S
C316 O323 1.240 . S
C316 O324 1.252 . S
C317 O320 1.252 . S
C317 O321 1.260 . S
O318 In312 2.266 . S
O318 C315 1.252 . S
O319 In312 2.326 . S
O319 C315 1.260 . S
O320 In312 2.266 . S
O320 C317 1.252 . S
O321 In312 2.326 . S
O321 C317 1.260 . S
C322 O313 1.240 . S
C322 O314 1.252 . S
O323 In312 2.294 . S
O323 C316 1.240 . S
O324 In312 2.326 . S
O324 C316 1.252 . S
In325 O326 2.294 . S
In325 O327 2.326 . S
In325 O331 2.266 . S
In325 O332 2.326 . S
In325 O333 2.266 . S
In325 O334 2.326 . S
In325 O336 2.294 . S
In325 O337 2.326 . S
O326 In325 2.294 . S
O326 C335 1.240 . S
O327 In325 2.326 . S
O327 C335 1.252 . S
C328 O331 1.252 . S
C328 O332 1.260 . S
C329 O336 1.240 . S
C329 O337 1.252 . S
C330 O333 1.252 . S
C330 O334 1.260 . S
O331 In325 2.266 . S
O331 C328 1.252 . S
O332 In325 2.326 . S
O332 C328 1.260 . S
O333 In325 2.266 . S
O333 C330 1.252 . S
O334 In325 2.326 . S
O334 C330 1.260 . S
C335 O326 1.240 . S
C335 O327 1.252 . S
O336 In325 2.294 . S
O336 C329 1.240 . S
O337 In325 2.326 . S
O337 C329 1.252 . S
In338 O339 2.294 . S
In338 O340 2.326 . S
In338 O344 2.266 . S
In338 O345 2.326 . S
In338 O346 2.266 . S
In338 O347 2.326 . S
In338 O349 2.294 . S
In338 O350 2.326 . S
O339 In338 2.294 . S
O339 C348 1.240 . S
O340 In338 2.326 . S
O340 C348 1.252 . S
C341 O344 1.252 . S
C341 O345 1.260 . S
C342 O349 1.240 . S
C342 O350 1.252 . S
C343 O346 1.252 . S
C343 O347 1.260 . S
O344 In338 2.266 . S
O344 C341 1.252 . S
O345 In338 2.326 . S
O345 C341 1.260 . S
O346 In338 2.266 . S
O346 C343 1.252 . S
O347 In338 2.326 . S
O347 C343 1.260 . S
C348 O339 1.240 . S
C348 O340 1.252 . S
O349 In338 2.294 . S
O349 C342 1.240 . S
O350 In338 2.326 . S
O350 C342 1.252 . S
In351 O352 2.294 . S
In351 O353 2.326 1_554 S
In351 O357 2.266 . S
In351 O358 2.326 . S
In351 O359 2.266 . S
In351 O360 2.326 . S
In351 O362 2.294 1_554 S
In351 O363 2.326 1_554 S
O352 In351 2.294 . S
O352 C361 1.240 1_554 S
O353 In351 2.326 1_556 S
O353 C361 1.252 . S
C354 O357 1.252 . S
C354 O358 1.260 . S
C355 O362 1.240 . S
C355 O363 1.252 . S
C356 O359 1.252 . S
C356 O360 1.260 . S
O357 In351 2.266 . S
O357 C354 1.252 . S
O358 In351 2.326 . S
O358 C354 1.260 . S
O359 In351 2.266 . S
O359 C356 1.252 . S
O360 In351 2.326 . S
O360 C356 1.260 . S
C361 O352 1.240 1_556 S
C361 O353 1.252 . S
O362 In351 2.294 1_556 S
O362 C355 1.240 . S
O363 In351 2.326 1_556 S
O363 C355 1.252 . S
In364 O365 2.294 . S
In364 O366 2.326 1_554 S
In364 O370 2.266 . S
In364 O371 2.326 . S
In364 O372 2.266 . S
In364 O373 2.326 . S
In364 O375 2.294 1_554 S
In364 O376 2.326 1_554 S
O365 In364 2.294 . S
O365 C374 1.240 1_554 S
O366 In364 2.326 1_556 S
O366 C374 1.252 . S
C367 O370 1.252 . S
C367 O371 1.260 . S
C368 O375 1.240 . S
C368 O376 1.252 . S
C369 O372 1.252 . S
C369 O373 1.260 . S
O370 In364 2.266 . S
O370 C367 1.252 . S
O371 In364 2.326 . S
O371 C367 1.260 . S
O372 In364 2.266 . S
O372 C369 1.252 . S
O373 In364 2.326 . S
O373 C369 1.260 . S
C374 O365 1.240 1_556 S
C374 O366 1.252 . S
O375 In364 2.294 1_556 S
O375 C368 1.240 . S
O376 In364 2.326 1_556 S
O376 C368 1.252 . S
In377 O378 2.294 . S
In377 O379 2.326 1_554 S
In377 O383 2.266 . S
In377 O384 2.326 . S
In377 O385 2.266 . S
In377 O386 2.326 . S
In377 O388 2.294 1_554 S
In377 O389 2.326 1_554 S
O378 In377 2.294 . S
O378 C387 1.240 1_554 S
O379 In377 2.326 1_556 S
O379 C387 1.252 . S
C380 O383 1.252 . S
C380 O384 1.260 . S
C381 O388 1.240 . S
C381 O389 1.252 . S
C382 O385 1.252 . S
C382 O386 1.260 . S
O383 In377 2.266 . S
O383 C380 1.252 . S
O384 In377 2.326 . S
O384 C380 1.260 . S
O385 In377 2.266 . S
O385 C382 1.252 . S
O386 In377 2.326 . S
O386 C382 1.260 . S
C387 O378 1.240 1_556 S
C387 O379 1.252 . S
O388 In377 2.294 1_556 S
O388 C381 1.240 . S
O389 In377 2.326 1_556 S
O389 C381 1.252 . S
In390 O391 2.294 . S
In390 O392 2.326 . S
In390 O396 2.266 . S
In390 O397 2.326 . S
In390 O398 2.266 . S
In390 O399 2.326 . S
In390 O401 2.294 . S
In390 O402 2.326 . S
O391 In390 2.294 . S
O391 C400 1.240 . S
O392 In390 2.326 . S
O392 C400 1.252 . S
C393 O396 1.252 . S
C393 O397 1.260 . S
C394 O401 1.240 . S
C394 O402 1.252 . S
C395 O398 1.252 . S
C395 O399 1.260 . S
O396 In390 2.266 . S
O396 C393 1.252 . S
O397 In390 2.326 . S
O397 C393 1.260 . S
O398 In390 2.266 . S
O398 C395 1.252 . S
O399 In390 2.326 . S
O399 C395 1.260 . S
C400 O391 1.240 . S
C400 O392 1.252 . S
O401 In390 2.294 . S
O401 C394 1.240 . S
O402 In390 2.326 . S
O402 C394 1.252 . S
In403 O404 2.294 . S
In403 O405 2.326 . S
In403 O409 2.266 . S
In403 O410 2.326 . S
In403 O411 2.266 . S
In403 O412 2.326 . S
In403 O414 2.294 . S
In403 O415 2.326 . S
O404 In403 2.294 . S
O404 C413 1.240 . S
O405 In403 2.326 . S
O405 C413 1.252 . S
C406 O409 1.252 . S
C406 O410 1.260 . S
C407 O414 1.240 . S
C407 O415 1.252 . S
C408 O411 1.252 . S
C408 O412 1.260 . S
O409 In403 2.266 . S
O409 C406 1.252 . S
O410 In403 2.326 . S
O410 C406 1.260 . S
O411 In403 2.266 . S
O411 C408 1.252 . S
O412 In403 2.326 . S
O412 C408 1.260 . S
C413 O404 1.240 . S
C413 O405 1.252 . S
O414 In403 2.294 . S
O414 C407 1.240 . S
O415 In403 2.326 . S
O415 C407 1.252 . S
In416 O417 2.294 . S
In416 O418 2.326 . S
In416 O422 2.266 . S
In416 O423 2.326 . S
In416 O424 2.266 . S
In416 O425 2.326 . S
In416 O427 2.294 . S
In416 O428 2.326 . S
O417 In416 2.294 . S
O417 C426 1.240 . S
O418 In416 2.326 . S
O418 C426 1.252 . S
C419 O422 1.252 . S
C419 O423 1.260 . S
C420 O427 1.240 . S
C420 O428 1.252 . S
C421 O424 1.252 . S
C421 O425 1.260 . S
O422 In416 2.266 . S
O422 C419 1.252 . S
O423 In416 2.326 . S
O423 C419 1.260 . S
O424 In416 2.266 . S
O424 C421 1.252 . S
O425 In416 2.326 . S
O425 C421 1.260 . S
C426 O417 1.240 . S
C426 O418 1.252 . S
O427 In416 2.294 . S
O427 C420 1.240 . S
O428 In416 2.326 . S
O428 C420 1.252 . S
In429 O430 2.294 . S
In429 O431 2.326 . S
In429 O435 2.266 . S
In429 O436 2.326 . S
In429 O437 2.266 . S
In429 O438 2.326 . S
In429 O440 2.294 . S
In429 O441 2.326 . S
O430 In429 2.294 . S
O430 C439 1.240 . S
O431 In429 2.326 . S
O431 C439 1.252 . S
C432 O435 1.252 . S
C432 O436 1.260 . S
C433 O440 1.240 . S
C433 O441 1.252 . S
C434 O437 1.252 . S
C434 O438 1.260 . S
O435 In429 2.266 . S
O435 C432 1.252 . S
O436 In429 2.326 . S
O436 C432 1.260 . S
O437 In429 2.266 . S
O437 C434 1.252 . S
O438 In429 2.326 . S
O438 C434 1.260 . S
C439 O430 1.240 . S
C439 O431 1.252 . S
O440 In429 2.294 . S
O440 C433 1.240 . S
O441 In429 2.326 . S
O441 C433 1.252 . S
In442 O443 2.294 . S
In442 O444 2.326 . S
In442 O448 2.266 . S
In442 O449 2.326 . S
In442 O450 2.266 . S
In442 O451 2.326 . S
In442 O453 2.294 . S
In442 O454 2.326 . S
O443 In442 2.294 . S
O443 C452 1.240 . S
O444 In442 2.326 . S
O444 C452 1.252 . S
C445 O448 1.252 . S
C445 O449 1.260 . S
C446 O453 1.240 . S
C446 O454 1.252 . S
C447 O450 1.252 . S
C447 O451 1.260 . S
O448 In442 2.266 . S
O448 C445 1.252 . S
O449 In442 2.326 . S
O449 C445 1.260 . S
O450 In442 2.266 . S
O450 C447 1.252 . S
O451 In442 2.326 . S
O451 C447 1.260 . S
C452 O443 1.240 . S
C452 O444 1.252 . S
O453 In442 2.294 . S
O453 C446 1.240 . S
O454 In442 2.326 . S
O454 C446 1.252 . S
In455 O456 2.294 . S
In455 O457 2.326 . S
In455 O461 2.266 . S
In455 O462 2.326 . S
In455 O463 2.266 . S
In455 O464 2.326 . S
In455 O466 2.294 . S
In455 O467 2.326 . S
O456 In455 2.294 . S
O456 C465 1.240 . S
O457 In455 2.326 . S
O457 C465 1.252 . S
C458 O461 1.252 . S
C458 O462 1.260 . S
C459 O466 1.240 . S
C459 O467 1.252 . S
C460 O463 1.252 . S
C460 O464 1.260 . S
O461 In455 2.266 . S
O461 C458 1.252 . S
O462 In455 2.326 . S
O462 C458 1.260 . S
O463 In455 2.266 . S
O463 C460 1.252 . S
O464 In455 2.326 . S
O464 C460 1.260 . S
C465 O456 1.240 . S
C465 O457 1.252 . S
O466 In455 2.294 . S
O466 C459 1.240 . S
O467 In455 2.326 . S
O467 C459 1.252 . S
C75 C4 1.331 1_565 S
C17 C49 1.330 1_655 S
C62 C36 1.331 . S
C82 C147 1.331 1_565 S
C95 C121 1.330 1_455 S
C134 C114 1.331 . S
C225 C160 1.330 . S
C179 C205 1.330 . S
C218 C192 1.331 . S
C238 C309 1.330 . S
C257 C277 1.330 . S
C264 C290 1.331 . S
C316 C387 1.330 . S
C361 C329 1.330 . S
C342 C374 1.331 . S
C400 C465 1.330 . S
C407 C439 1.330 . S
C420 C452 1.331 . S
C140 C5 1.476 . S
C153 C18 1.476 . S
C127 C29 1.476 . S
C108 C42 1.476 . S
C55 C88 1.476 . S
C68 C101 1.476 . S
C83 C56 1.476 . S
C96 C69 1.476 . S
C107 C43 1.476 . S
C30 C122 1.476 . S
C10 C135 1.476 . S
C148 C23 1.476 . S
C161 C296 1.476 . S
C172 C303 1.476 . S
C283 C185 1.476 . S
C198 C270 1.476 1_556 S
C211 C244 1.476 1_556 S
C226 C251 1.476 1_556 S
C239 C212 1.476 . S
C231 C250 1.476 . S
C199 C265 1.476 . S
C278 C186 1.476 . S
C166 C291 1.476 . S
C173 C302 1.476 . S
C446 C317 1.476 . S
C330 C459 1.476 . S
C343 C433 1.476 . S
C426 C354 1.476 . S
C394 C367 1.476 . S
C413 C380 1.476 . S
C393 C368 1.476 . S
C381 C408 1.476 . S
C421 C355 1.476 . S
C348 C432 1.476 1_556 S
C322 C445 1.477 1_556 S
C335 C458 1.476 1_556 S
C213 C3 1.533 . S
C16 C224 1.532 . S
C200 C31 1.533 . S
C341 C44 1.533 . S
C57 C315 1.532 . S
C70 C328 1.532 . S
C81 C447 1.533 . S
C460 C94 1.533 . S
C434 C109 1.532 . S
C263 C120 1.532 . S
C133 C237 1.532 . S
C146 C252 1.533 . S
C159 C369 1.532 1_655 S
C382 C174 1.533 . S
C356 C187 1.532 1_565 S
C276 C419 1.533 1_545 S
C395 C289 1.532 1_455 S
C406 C304 1.533 . S
