# Generated by pormake.
# Topology whv, (6)-cn, num edge types: 1
# Building blocks:
#     Node 0, Type 0, BuildingBlock: MIDCAF_clean_sbu_0, # of connection points: 6
#     Node 1, Type 0, BuildingBlock: MIDCAF_clean_sbu_0, # of connection points: 6
#     Node 2, Type 0, BuildingBlock: MIDCAF_clean_sbu_0, # of connection points: 6
#     Node 3, Type 0, BuildingBlock: MIDCAF_clean_sbu_0, # of connection points: 6
#     Node 4, Type 0, BuildingBlock: MIDCAF_clean_sbu_0, # of connection points: 6
#     Node 5, Type 0, BuildingBlock: MIDCAF_clean_sbu_0, # of connection points: 6
#     Node 6, Type 0, BuildingBlock: MIDCAF_clean_sbu_0, # of connection points: 6
#     Node 7, Type 0, BuildingBlock: MIDCAF_clean_sbu_0, # of connection points: 6
#     Node 8, Type 0, BuildingBlock: MIDCAF_clean_sbu_0, # of connection points: 6
#     Node 9, Type 0, BuildingBlock: MIDCAF_clean_sbu_0, # of connection points: 6
#     Node 10, Type 0, BuildingBlock: MIDCAF_clean_sbu_0, # of connection points: 6
#     Node 11, Type 0, BuildingBlock: MIDCAF_clean_sbu_0, # of connection points: 6
#     Node 12, Type 0, BuildingBlock: MIDCAF_clean_sbu_0, # of connection points: 6
#     Node 13, Type 0, BuildingBlock: MIDCAF_clean_sbu_0, # of connection points: 6
#     Node 14, Type 0, BuildingBlock: MIDCAF_clean_sbu_0, # of connection points: 6
#     Node 15, Type 0, BuildingBlock: MIDCAF_clean_sbu_0, # of connection points: 6
#     Edge 16, Type (0, 0), BuildingBlock: AJUNOK_clean_linker_0, # of connection points: 2
#     Edge 17, Type (0, 0), BuildingBlock: AJUNOK_clean_linker_0, # of connection points: 2
#     Edge 18, Type (0, 0), BuildingBlock: AJUNOK_clean_linker_0, # of connection points: 2
#     Edge 19, Type (0, 0), BuildingBlock: AJUNOK_clean_linker_0, # of connection points: 2
#     Edge 20, Type (0, 0), BuildingBlock: AJUNOK_clean_linker_0, # of connection points: 2
#     Edge 21, Type (0, 0), BuildingBlock: AJUNOK_clean_linker_0, # of connection points: 2
#     Edge 22, Type (0, 0), BuildingBlock: AJUNOK_clean_linker_0, # of connection points: 2
#     Edge 23, Type (0, 0), BuildingBlock: AJUNOK_clean_linker_0, # of connection points: 2
#     Edge 24, Type (0, 0), BuildingBlock: AJUNOK_clean_linker_0, # of connection points: 2
#     Edge 25, Type (0, 0), BuildingBlock: AJUNOK_clean_linker_0, # of connection points: 2
#     Edge 26, Type (0, 0), BuildingBlock: AJUNOK_clean_linker_0, # of connection points: 2
#     Edge 27, Type (0, 0), BuildingBlock: AJUNOK_clean_linker_0, # of connection points: 2
#     Edge 28, Type (0, 0), BuildingBlock: AJUNOK_clean_linker_0, # of connection points: 2
#     Edge 29, Type (0, 0), BuildingBlock: AJUNOK_clean_linker_0, # of connection points: 2
#     Edge 30, Type (0, 0), BuildingBlock: AJUNOK_clean_linker_0, # of connection points: 2
#     Edge 31, Type (0, 0), BuildingBlock: AJUNOK_clean_linker_0, # of connection points: 2
#     Edge 32, Type (0, 0), BuildingBlock: AJUNOK_clean_linker_0, # of connection points: 2
#     Edge 33, Type (0, 0), BuildingBlock: AJUNOK_clean_linker_0, # of connection points: 2
#     Edge 34, Type (0, 0), BuildingBlock: AJUNOK_clean_linker_0, # of connection points: 2
#     Edge 35, Type (0, 0), BuildingBlock: AJUNOK_clean_linker_0, # of connection points: 2
#     Edge 36, Type (0, 0), BuildingBlock: AJUNOK_clean_linker_0, # of connection points: 2
#     Edge 37, Type (0, 0), BuildingBlock: AJUNOK_clean_linker_0, # of connection points: 2
#     Edge 38, Type (0, 0), BuildingBlock: AJUNOK_clean_linker_0, # of connection points: 2
#     Edge 39, Type (0, 0), BuildingBlock: AJUNOK_clean_linker_0, # of connection points: 2
#     Edge 40, Type (0, 0), BuildingBlock: AJUNOK_clean_linker_0, # of connection points: 2
#     Edge 41, Type (0, 0), BuildingBlock: AJUNOK_clean_linker_0, # of connection points: 2
#     Edge 42, Type (0, 0), BuildingBlock: AJUNOK_clean_linker_0, # of connection points: 2
#     Edge 43, Type (0, 0), BuildingBlock: AJUNOK_clean_linker_0, # of connection points: 2
#     Edge 44, Type (0, 0), BuildingBlock: AJUNOK_clean_linker_0, # of connection points: 2
#     Edge 45, Type (0, 0), BuildingBlock: AJUNOK_clean_linker_0, # of connection points: 2
#     Edge 46, Type (0, 0), BuildingBlock: AJUNOK_clean_linker_0, # of connection points: 2
#     Edge 47, Type (0, 0), BuildingBlock: AJUNOK_clean_linker_0, # of connection points: 2
#     Edge 48, Type (0, 0), BuildingBlock: AJUNOK_clean_linker_0, # of connection points: 2
#     Edge 49, Type (0, 0), BuildingBlock: AJUNOK_clean_linker_0, # of connection points: 2
#     Edge 50, Type (0, 0), BuildingBlock: AJUNOK_clean_linker_0, # of connection points: 2
#     Edge 51, Type (0, 0), BuildingBlock: AJUNOK_clean_linker_0, # of connection points: 2
#     Edge 52, Type (0, 0), BuildingBlock: AJUNOK_clean_linker_0, # of connection points: 2
#     Edge 53, Type (0, 0), BuildingBlock: AJUNOK_clean_linker_0, # of connection points: 2
#     Edge 54, Type (0, 0), BuildingBlock: AJUNOK_clean_linker_0, # of connection points: 2
#     Edge 55, Type (0, 0), BuildingBlock: AJUNOK_clean_linker_0, # of connection points: 2
#     Edge 56, Type (0, 0), BuildingBlock: AJUNOK_clean_linker_0, # of connection points: 2
#     Edge 57, Type (0, 0), BuildingBlock: AJUNOK_clean_linker_0, # of connection points: 2
#     Edge 58, Type (0, 0), BuildingBlock: AJUNOK_clean_linker_0, # of connection points: 2
#     Edge 59, Type (0, 0), BuildingBlock: AJUNOK_clean_linker_0, # of connection points: 2
#     Edge 60, Type (0, 0), BuildingBlock: AJUNOK_clean_linker_0, # of connection points: 2
#     Edge 61, Type (0, 0), BuildingBlock: AJUNOK_clean_linker_0, # of connection points: 2
#     Edge 62, Type (0, 0), BuildingBlock: AJUNOK_clean_linker_0, # of connection points: 2
#     Edge 63, Type (0, 0), BuildingBlock: AJUNOK_clean_linker_0, # of connection points: 2
# Relax obj value: 0.267
# Max RMSD: 0.245
# Mean RMSD: 0.245
data_MOF--net-whv--node1-MIDCAF_clean_sbu_0--edge1-AJUNOK_clean_linker_0
_symmetry_space_group_name_H-M    P1
_symmetry_Int_Tables_number       1
_symmetry_cell_setting            triclinic
loop_
_symmetry_equiv_pos_as_xyz
'x, y, z'
_cell_length_a     39.082124
_cell_length_b     39.210643
_cell_length_c     17.776516
_cell_angle_alpha  89.80381
_cell_angle_beta   90.145303
_cell_angle_gamma 89.253802
loop_
_atom_site_label
_atom_site_type_symbol
_atom_site_fract_x
_atom_site_fract_y
_atom_site_fract_z
_atom_type_partial_charge
Zn0 Zn 0.26113 0.13105 0.08383 0.0
Zn1 Zn 0.3748 0.21569 0.88796 0.0
Zn2 Zn 0.29797 0.16691 0.02139 0.0
C3 C 0.33948 0.22757 0.03022 0.0
C4 C 0.36123 0.14339 0.94044 0.0
O5 O 0.25257 0.16255 0.95137 0.0
O6 O 0.23612 0.11316 0.99562 0.0
C7 C 0.25621 0.1926 0.15817 0.0
O8 O 0.31195 0.21786 0.06216 0.0
O9 O 0.35712 0.20449 0.99707 0.0
O10 O 0.36314 0.17516 0.95136 0.0
O11 O 0.33903 0.12877 0.98201 0.0
O12 O 0.23767 0.16771 0.14099 0.0
O13 O 0.2853 0.19634 0.12514 0.0
O14 O 0.32803 0.12166 0.05512 0.0
O15 O 0.29319 0.10112 0.14081 0.0
C16 C 0.3221 0.10111 0.10965 0.0
O17 O 0.30029 0.19488 0.919 0.0
O18 O 0.32934 0.22284 0.8306 0.0
C19 C 0.23288 0.13689 0.94788 0.0
C20 C 0.30115 0.21171 0.85766 0.0
Zn21 Zn 0.5839 0.52013 0.34472 0.0
Zn22 Zn 0.50263 0.6122 0.20779 0.0
Zn23 Zn 0.54591 0.55544 0.2826 0.0
C24 C 0.483 0.58979 0.33007 0.0
C25 C 0.57052 0.62752 0.19144 0.0
O26 O 0.55947 0.5114 0.20939 0.0
O27 O 0.60958 0.49928 0.25992 0.0
C28 C 0.526 0.50637 0.4197 0.0
O29 O 0.49404 0.55918 0.3286 0.0
O30 O 0.50568 0.61188 0.32137 0.0
O31 O 0.54156 0.63185 0.16142 0.0
O32 O 0.57527 0.60453 0.24398 0.0
O33 O 0.55235 0.48984 0.40001 0.0
O34 O 0.51954 0.53557 0.38808 0.0
O35 O 0.58686 0.58981 0.3117 0.0
O36 O 0.60538 0.55675 0.40402 0.0
C37 C 0.60543 0.58516 0.37061 0.0
O38 O 0.53292 0.53395 0.18132 0.0
O39 O 0.4916 0.57079 0.14675 0.0
C40 C 0.58796 0.49467 0.20826 0.0
C41 C 0.50823 0.54315 0.13819 0.0
Zn42 Zn 0.20112 0.82289 0.62445 0.0
Zn43 Zn 0.13687 0.76602 0.36195 0.0
Zn44 Zn 0.17212 0.78874 0.53845 0.0
C45 C 0.14306 0.72841 0.51444 0.0
C46 C 0.10604 0.82532 0.43058 0.0
O47 O 0.2215 0.8004 0.49142 0.0
O48 O 0.23301 0.84618 0.55745 0.0
C49 C 0.20479 0.76067 0.69299 0.0
O50 O 0.15676 0.73692 0.57677 0.0
O51 O 0.14378 0.75096 0.4648 0.0
O52 O 0.10788 0.80534 0.37489 0.0
O53 O 0.12517 0.82128 0.49088 0.0
O54 O 0.22001 0.78877 0.69162 0.0
O55 O 0.18162 0.75448 0.64241 0.0
O56 O 0.1388 0.83331 0.56005 0.0
O57 O 0.16373 0.84956 0.66536 0.0
C58 C 0.13943 0.85215 0.61916 0.0
O59 O 0.20452 0.776 0.43733 0.0
O60 O 0.18145 0.78276 0.32344 0.0
C61 C 0.23984 0.82658 0.50339 0.0
C62 C 0.2067 0.77464 0.36472 0.0
Zn63 Zn 0.89163 0.44968 0.84455 0.0
Zn64 Zn 0.96944 0.37737 0.63463 0.0
Zn65 Zn 0.92009 0.41182 0.7716 0.0
C66 C -0.00421 0.40185 0.76275 0.0
C67 C 0.89928 0.34537 0.69133 0.0
O68 O 0.90757 0.46007 0.70942 0.0
O69 O 0.90037 0.49547 0.80391 0.0
C70 C 0.94304 0.43715 0.93473 0.0
O71 O 0.97202 0.39771 0.8111 0.0
O72 O -0.01322 0.41549 0.70186 0.0
O73 O 0.92535 0.3498 0.65005 0.0
O74 O 0.89297 0.36466 0.74827 0.0
O75 O 0.91158 0.44255 0.94537 0.0
O76 O 0.95324 0.42631 0.87 0.0
O77 O 0.87579 0.38411 0.81724 0.0
O78 O 0.84562 0.43131 0.82419 0.0
C79 C 0.84781 0.3996 0.83503 0.0
O80 O 0.92078 0.43532 0.65854 0.0
O81 O 0.9239 0.39033 0.58576 0.0
C82 C 0.90253 0.4906 0.73419 0.0
C83 C 0.92113 0.42238 0.59183 0.0
Zn84 Zn 0.71331 0.85697 0.94144 0.0
Zn85 Zn 0.65505 0.74736 0.21765 0.0
Zn86 Zn 0.66657 0.80157 0.06019 0.0
C87 C 0.6653 0.72629 0.06982 0.0
C88 C 0.60552 0.8114 0.17669 0.0
O89 O 0.71809 0.82069 0.09502 0.0
O90 O 0.74909 0.85519 0.02098 0.0
C91 C 0.70297 0.78247 0.89937 0.0
O92 O 0.65779 0.74954 0.02163 0.0
O93 O 0.68348 0.73548 0.12426 0.0
O94 O 0.61885 0.78833 0.21907 0.0
O95 O 0.61783 0.81828 0.11102 0.0
O96 O 0.71553 0.81199 0.89081 0.0
O97 O 0.68235 0.77469 0.9539 0.0
O98 O 0.62436 0.84019 0.04602 0.0
O99 O 0.67028 0.85178 0.99023 0.0
C100 C 0.63972 0.85993 0.00115 0.0
O101 O 0.70089 0.8029 0.15323 0.0
O102 O 0.6637 0.79696 0.24309 0.0
C103 C 0.74546 0.8378 0.0808 0.0
C104 C 0.69462 0.79877 0.22335 0.0
Zn105 Zn 0.38342 0.448 0.72478 0.0
Zn106 Zn 0.43049 0.3857 0.90617 0.0
Zn107 Zn 0.41323 0.416 0.80754 0.0
C108 C 0.47597 0.37113 0.81203 0.0
C109 C 0.3732 0.36065 0.90949 0.0
O110 O 0.39491 0.46381 0.86418 0.0
O111 O 0.35164 0.47491 0.78836 0.0
C112 C 0.44855 0.45419 0.67509 0.0
O113 O 0.46643 0.40087 0.78949 0.0
O114 O 0.45319 0.35168 0.83759 0.0
O115 O 0.38667 0.37787 0.9609 0.0
O116 O 0.38154 0.36802 0.84069 0.0
O117 O 0.42229 0.47286 0.68223 0.0
O118 O 0.45024 0.42574 0.71211 0.0
O119 O 0.36966 0.38559 0.77343 0.0
O120 O 0.3626 0.41145 0.66466 0.0
C121 C 0.35457 0.3879 0.7095 0.0
O122 O 0.42295 0.45084 0.89983 0.0
O123 O 0.46136 0.41682 0.95317 0.0
C124 C 0.36734 0.48088 0.84877 0.0
C125 C 0.44796 0.44587 0.94593 0.0
Zn126 Zn 0.76492 0.12979 0.489 0.0
Zn127 Zn 0.83168 0.19725 0.73875 0.0
Zn128 Zn 0.79625 0.16772 0.56239 0.0
C129 C 0.82656 0.22815 0.5818 0.0
C130 C 0.86414 0.13792 0.67283 0.0
O131 O 0.74475 0.15686 0.60633 0.0
O132 O 0.73525 0.10545 0.56188 0.0
C133 C 0.7599 0.19352 0.41962 0.0
O134 O 0.81307 0.21929 0.51957 0.0
O135 O 0.82194 0.20792 0.63476 0.0
O136 O 0.86455 0.16074 0.72337 0.0
O137 O 0.8428 0.13849 0.61588 0.0
O138 O 0.74316 0.16662 0.42972 0.0
O139 O 0.78698 0.19915 0.45941 0.0
O140 O 0.83137 0.1251 0.54497 0.0
O141 O 0.80452 0.10714 0.44371 0.0
C142 C 0.8306 0.10673 0.48546 0.0
O143 O 0.76336 0.17864 0.65876 0.0
O144 O 0.79299 0.1659 0.76071 0.0
C145 C 0.72673 0.12974 0.60454 0.0
C146 C 0.76681 0.17932 0.73073 0.0
Zn147 Zn 0.05333 0.55634 0.41845 0.0
Zn148 Zn 0.09055 0.5126 0.22437 0.0
Zn149 Zn 0.05141 0.54458 0.29204 0.0
C150 C 0.1092 0.57963 0.20625 0.0
C151 C 0.02847 0.50275 0.15854 0.0
O152 O 0.01246 0.51826 0.36244 0.0
O153 O 0.0289 0.52365 0.47994 0.0
C154 C 0.09923 0.59504 0.40558 0.0
O155 O 0.09004 0.58245 0.26479 0.0
O156 O 0.11013 0.55198 0.17012 0.0
O157 O 0.05377 0.48444 0.17788 0.0
O158 O 0.02619 0.53323 0.18428 0.0
O159 O 0.09818 0.5709 0.45257 0.0
O160 O 0.08361 0.59148 0.34071 0.0
O161 O -0.00019 0.55953 0.30794 0.0
O162 O 0.01958 0.59508 0.3909 0.0
C163 C -0.00501 0.58514 0.35052 0.0
O164 O 0.06549 0.49858 0.3516 0.0
O165 O 0.11724 0.49108 0.30741 0.0
C166 C 0.00788 0.51236 0.43252 0.0
C167 C 0.09446 0.48349 0.35451 0.0
Zn168 Zn 0.76885 0.63216 0.60856 0.0
Zn169 Zn 0.81919 0.68814 0.41229 0.0
Zn170 Zn 0.79842 0.67003 0.52799 0.0
C171 C 0.81592 0.74521 0.50644 0.0
C172 C 0.86816 0.64649 0.43807 0.0
O173 O 0.74685 0.65707 0.48651 0.0
O174 O 0.73343 0.61034 0.54868 0.0
C175 C 0.76452 0.69769 0.67054 0.0
O176 O 0.81377 0.72237 0.55851 0.0
O177 O 0.81376 0.73659 0.43847 0.0
O178 O 0.8648 0.67254 0.39735 0.0
O179 O 0.84596 0.64018 0.49022 0.0
O180 O 0.74985 0.66934 0.66828 0.0
O181 O 0.79007 0.70359 0.62667 0.0
O182 O 0.83153 0.62408 0.55343 0.0
O183 O 0.80447 0.60331 0.65228 0.0
C184 C 0.82983 0.60275 0.60883 0.0
O185 O 0.76172 0.68221 0.43637 0.0
O186 O 0.7893 0.67401 0.33027 0.0
C187 C 0.72644 0.63226 0.4988 0.0
C188 C 0.76363 0.68595 0.36443 0.0
Zn189 Zn 0.09166 0.01435 0.87058 0.0
Zn190 Zn 0.01631 0.06371 0.63909 0.0
Zn191 Zn 0.04973 0.04207 0.77665 0.0
C192 C 0.9742 0.04386 0.74778 0.0
C193 C 0.05367 0.11527 0.69961 0.0
O194 O 0.06822 -0.0073 0.7363 0.0
O195 O 0.10739 0.97292 0.81557 0.0
C196 C 0.02441 0.0151 0.93363 0.0
O197 O -0.00492 0.05283 0.79976 0.0
O198 O -0.01309 0.02836 0.69289 0.0
O199 O 0.02346 0.1116 0.67528 0.0
O200 O 0.06897 0.09095 0.73591 0.0
O201 O 0.05525 0.00652 0.94449 0.0
O202 O 0.01536 0.03102 0.87303 0.0
O203 O 0.09025 0.08012 0.79766 0.0
O204 O 0.12202 0.05377 0.88364 0.0
C205 C 0.11584 0.07967 0.8433 0.0
O206 O 0.0508 0.00928 0.6784 0.0
O207 O 0.05738 0.04507 0.58582 0.0
C208 C 0.09003 0.96965 0.7562 0.0
C209 C 0.05088 0.01518 0.60712 0.0
Zn210 Zn 0.69343 0.33911 0.13367 0.0
Zn211 Zn 0.66209 0.29479 0.90614 0.0
Zn212 Zn 0.67319 0.30551 0.03389 0.0
C213 C 0.65502 0.23333 0.99281 0.0
C214 C 0.60978 0.33267 0.91913 0.0
O215 O 0.72657 0.32112 0.01435 0.0
O216 O 0.72899 0.36715 0.08298 0.0
C217 C 0.69778 0.27192 0.18163 0.0
O218 O 0.65535 0.25378 0.04959 0.0
O219 O 0.6623 0.24455 0.92815 0.0
O220 O 0.62009 0.31254 0.86919 0.0
O221 O 0.62593 0.33418 0.98307 0.0
O222 O 0.71167 0.30039 0.19049 0.0
O223 O 0.67567 0.2678 0.12836 0.0
O224 O 0.63952 0.35075 0.04828 0.0
O225 O 0.65019 0.36083 0.16761 0.0
C226 C 0.63283 0.36714 0.10927 0.0
O227 O 0.71637 0.29606 0.95639 0.0
O228 O 0.69878 0.31405 0.84571 0.0
C229 C 0.74234 0.34823 0.0335 0.0
C230 C 0.72055 0.29804 0.88462 0.0
Zn231 Zn 0.44337 0.89196 0.19337 0.0
Zn232 Zn 0.38278 0.95085 0.37262 0.0
Zn233 Zn 0.41769 0.91588 0.29425 0.0
C234 C 0.35048 0.89036 0.36786 0.0
C235 C 0.44717 0.9482 0.43853 0.0
O236 O 0.4234 0.9479 0.19691 0.0
O237 O 0.4191 0.91092 0.1047 0.0
C238 C 0.40246 0.84478 0.21697 0.0
O239 O 0.37236 0.88565 0.31524 0.0
O240 O 0.35181 0.91646 0.40882 0.0
O241 O 0.41959 0.965 0.43684 0.0
O242 O 0.45219 0.9232 0.39268 0.0
O243 O 0.43471 0.84326 0.21245 0.0
O244 O 0.38865 0.87097 0.24927 0.0
O245 O 0.46972 0.89422 0.32401 0.0
O246 O 0.48723 0.91572 0.21947 0.0
C247 C 0.49434 0.89874 0.27731 0.0
O248 O 0.40629 0.96835 0.24841 0.0
O249 O 0.36342 -0.01106 0.31588 0.0
C250 C 0.42479 0.94092 0.12626 0.0
C251 C 0.38399 -0.00797 0.26203 0.0
Zn252 Zn 0.19475 0.32593 0.4734 0.0
Zn253 Zn 0.11205 0.25316 0.77364 0.0
Zn254 Zn 0.16503 0.29401 0.55316 0.0
C255 C 0.12632 0.2346 0.60186 0.0
C256 C 0.1094 0.31845 0.66002 0.0
O257 O 0.21611 0.30752 0.60129 0.0
O258 O 0.21982 0.35652 0.54161 0.0
C259 C 0.20199 0.26268 0.41858 0.0
O260 O 0.1418 0.24313 0.54126 0.0
O261 O 0.12802 0.255 0.65745 0.0
O262 O 0.11986 0.28987 0.6871 0.0
O263 O 0.12298 0.3277 0.59759 0.0
O264 O 0.22139 0.28733 0.4317 0.0
O265 O 0.17262 0.26165 0.45148 0.0
O266 O 0.13561 0.34024 0.53084 0.0
O267 O 0.15587 0.34609 0.41642 0.0
C268 C 0.13483 0.35509 0.46649 0.0
O269 O 0.19903 0.28383 0.64156 0.0
O270 O 0.15556 0.2701 0.71195 0.0
C271 C 0.23035 0.3367 0.59286 0.0
C272 C 0.18801 0.27022 0.70193 0.0
Zn273 Zn 0.88053 0.94916 0.23009 0.0
Zn274 Zn 0.93922 0.87194 0.47776 0.0
Zn275 Zn 0.91835 0.91982 0.31655 0.0
C276 C 0.98032 0.88881 0.34591 0.0
C277 C 0.87646 0.87204 0.43245 0.0
O278 O 0.90428 0.96824 0.36556 0.0
O279 O 0.86277 -0.01295 0.29174 0.0
C280 C 0.94554 0.94953 0.16401 0.0
O281 O 0.97242 0.90948 0.29289 0.0
O282 O 0.9561 0.87136 0.37172 0.0
O283 O 0.89018 0.88901 0.4844 0.0
O284 O 0.88766 0.87556 0.36404 0.0
O285 O 0.91579 0.962 0.15842 0.0
O286 O 0.95333 0.9293 0.21923 0.0
O287 O 0.87827 0.88254 0.28808 0.0
O288 O 0.85092 0.91207 0.19995 0.0
C289 C 0.85517 0.88479 0.23656 0.0
O290 O 0.93055 0.94891 0.4148 0.0
O291 O 0.92587 0.91851 0.51989 0.0
C292 C 0.8814 -0.00939 0.34913 0.0
C293 C 0.93419 0.94583 0.48633 0.0
Zn294 Zn 0.25033 0.6186 0.90089 0.0
Zn295 Zn 0.34655 0.69424 0.22805 0.0
Zn296 Zn 0.30521 0.66508 0.0634 0.0
C297 C 0.3407 0.73244 0.08405 0.0
C298 C 0.37854 0.64925 0.13858 0.0
O299 O 0.25084 0.64641 0.08015 0.0
O300 O 0.21742 0.6226 0.98897 0.0
C301 C 0.28276 0.68714 0.92263 0.0
O302 O 0.31587 0.71943 0.04713 0.0
O303 O 0.36035 0.71327 0.12298 0.0
O304 O 0.37889 0.68161 0.14198 0.0
O305 O 0.3525 0.63567 0.10607 0.0
O306 O 0.28315 0.65512 0.93102 0.0
O307 O 0.29886 0.70351 0.97341 0.0
O308 O 0.33821 0.62242 0.03718 0.0
O309 O 0.29466 0.62065 0.96342 0.0
C310 C 0.32176 0.60604 0.98733 0.0
O311 O 0.26817 0.66427 0.14807 0.0
O312 O 0.31014 0.65862 0.22783 0.0
C313 C 0.22226 0.63351 0.05627 0.0
C314 C 0.27949 0.66727 0.21498 0.0
Zn315 Zn 0.52349 0.07754 0.92637 0.0
Zn316 Zn 0.58141 0.02504 0.73709 0.0
Zn317 Zn 0.54501 0.05049 0.81901 0.0
C318 C 0.60577 0.08599 0.73407 0.0
C319 C 0.519 0.01486 0.67531 0.0
O320 O 0.535 0.01254 0.90415 0.0
O321 O 0.52366 0.04421 0.00369 0.0
C322 C 0.57183 0.11918 0.91635 0.0
O323 O 0.58965 0.08346 0.79692 0.0
O324 O 0.60123 0.06401 0.68379 0.0
O325 O 0.54738 -0.00035 0.68157 0.0
O326 O 0.5123 0.04109 0.71708 0.0
O327 O 0.54586 0.11764 0.9574 0.0
O328 O 0.57608 0.09726 0.86229 0.0
O329 O 0.49269 0.0653 0.77561 0.0
O330 O 0.47821 0.08588 0.88658 0.0
C331 C 0.47039 0.07932 0.81958 0.0
O332 O 0.56247 -0.00176 0.86048 0.0
O333 O 0.61141 -0.00421 0.80074 0.0
C334 C 0.52519 0.01531 0.97269 0.0
C335 C 0.59141 -0.01695 0.84849 0.0
C336 C 0.20055 0.12065 0.83357 0.0
C337 C 0.20124 0.13736 0.90322 0.0
C338 C 0.1701 0.10637 0.80656 0.0
C339 C 0.13981 0.10809 0.84908 0.0
H340 H 0.22424 0.11524 0.80417 0.0
H341 H 0.17131 0.09035 0.75707 0.0
S342 S 0.12765 0.15346 0.02976 0.0
N343 N 0.1684 0.15894 0.00914 0.0
N344 N 0.11149 0.13129 0.95922 0.0
C345 C 0.13946 0.12806 0.91436 0.0
C346 C 0.17022 0.14287 0.94132 0.0
C347 C 0.5828 0.40543 0.13547 0.0
C348 C 0.61588 0.40062 0.10639 0.0
C349 C 0.57167 0.43792 0.15915 0.0
C350 C 0.59389 0.46591 0.15687 0.0
H351 H 0.56667 0.38367 0.14588 0.0
H352 H 0.54712 0.44028 0.18698 0.0
S353 S 0.68212 0.46624 0.08141 0.0
N354 N 0.66937 0.42659 0.07041 0.0
N355 N 0.64934 0.48701 0.11888 0.0
C356 C 0.62602 0.46166 0.12307 0.0
C357 C 0.63681 0.42906 0.09686 0.0
C358 C 0.28898 0.88529 0.38225 0.0
C359 C 0.32089 0.86868 0.3775 0.0
C360 C 0.2617 0.86984 0.41803 0.0
C361 C 0.26547 0.83719 0.44925 0.0
H362 H 0.28598 0.91161 0.36421 0.0
H363 H 0.23827 0.88447 0.4261 0.0
S364 S 0.34174 0.78052 0.43814 0.0
N365 N 0.35357 0.81621 0.39633 0.0
N366 N 0.30154 0.78664 0.46428 0.0
C367 C 0.296 0.81876 0.43776 0.0
C368 C 0.32403 0.83467 0.40119 0.0
C369 C 0.88221 0.57997 0.67021 0.0
C370 C 0.85488 0.57508 0.62027 0.0
C371 C 0.90041 0.55212 0.70071 0.0
C372 C 0.89093 0.51846 0.68441 0.0
H373 H 0.88825 0.60542 0.6893 0.0
H374 H 0.92035 0.55693 0.74168 0.0
S375 S 0.81696 0.49243 0.56827 0.0
N376 N 0.81755 0.53439 0.56036 0.0
N377 N 0.85002 0.48202 0.62203 0.0
C378 C 0.86347 0.51327 0.63495 0.0
C379 C 0.84568 0.54163 0.60221 0.0
C380 C 0.8065 0.8291 0.11408 0.0
C381 C 0.7732 0.83834 0.13628 0.0
C382 C 0.83481 0.83864 0.1572 0.0
C383 C 0.83039 0.85802 0.22281 0.0
H384 H 0.8108 0.81708 0.06003 0.0
H385 H 0.86018 0.83479 0.13397 0.0
S386 S 0.7483 0.8841 0.30969 0.0
N387 N 0.73717 0.86412 0.23195 0.0
N388 N 0.7905 0.88182 0.31325 0.0
C389 C 0.79715 0.86347 0.25014 0.0
C390 C 0.76836 0.85392 0.20626 0.0
C391 C 0.3788 0.53219 0.92761 0.0
C392 C 0.35533 0.50949 0.89586 0.0
C393 C 0.36769 0.56305 0.95962 0.0
C394 C 0.33273 0.57206 0.96085 0.0
H395 H 0.40594 0.52707 0.92389 0.0
H396 H 0.38667 0.58061 0.98035 0.0
S397 S 0.26078 0.51844 0.8975 0.0
N398 N 0.29547 0.4961 0.87597 0.0
N399 N 0.27452 0.55379 0.93697 0.0
C400 C 0.30892 0.54851 0.93391 0.0
C401 C 0.32024 0.51726 0.90125 0.0
C402 C 0.66737 0.09237 0.74696 0.0
C403 C 0.63587 0.10728 0.72597 0.0
C404 C 0.69758 0.10148 0.7105 0.0
C405 C 0.6971 0.1264 0.65381 0.0
H406 H 0.6681 0.07087 0.78548 0.0
H407 H 0.72097 0.08745 0.72318 0.0
S408 S 0.62232 0.17729 0.58861 0.0
N409 N 0.60654 0.15074 0.65172 0.0
N410 N 0.66393 0.16931 0.58583 0.0
C411 C 0.66656 0.14427 0.6386 0.0
C412 C 0.63565 0.13436 0.67434 0.0
C413 C 0.14204 0.41666 0.46357 0.0
C414 C 0.11976 0.38896 0.45924 0.0
C415 C 0.13236 0.44852 0.43523 0.0
C416 C 0.10004 0.45353 0.40232 0.0
H417 H 0.16806 0.41298 0.48365 0.0
H418 H 0.15105 0.4687 0.43445 0.0
S419 S 0.03161 0.38937 0.38438 0.0
N420 N 0.06342 0.36866 0.4265 0.0
N421 N 0.04502 0.42874 0.37101 0.0
C422 C 0.07661 0.42658 0.40288 0.0
C423 C 0.08656 0.39408 0.43208 0.0
C424 C 0.63296 0.61824 0.46999 0.0
C425 C 0.63148 0.60933 0.3937 0.0
C426 C 0.6637 0.62845 0.50251 0.0
C427 C 0.69369 0.63015 0.4595 0.0
H428 H 0.61105 0.61425 0.50611 0.0
H429 H 0.66456 0.63278 0.56268 0.0
S430 S 0.70261 0.61158 0.25674 0.0
N431 N 0.66191 0.60463 0.27543 0.0
N432 N 0.71979 0.62443 0.33652 0.0
C433 C 0.69196 0.62413 0.38208 0.0
C434 C 0.66064 0.61361 0.349 0.0
C435 C 0.09631 0.87779 0.7005 0.0
C436 C 0.11476 0.87951 0.63298 0.0
C437 C 0.08657 0.90747 0.73838 0.0
C438 C 0.09484 0.93954 0.70925 0.0
H439 H 0.09255 0.85342 0.72802 0.0
H440 H 0.07441 0.90533 0.79287 0.0
S441 S 0.13834 0.95764 0.52906 0.0
N442 N 0.13739 0.91556 0.53409 0.0
N443 N 0.11878 0.97173 0.6054 0.0
C444 C 0.11006 0.94172 0.63808 0.0
C445 C 0.11998 0.91144 0.5995 0.0
C446 C 0.81368 0.3504 0.88675 0.0
C447 C 0.82326 0.38474 0.889 0.0
C448 C 0.78921 0.33783 0.93752 0.0
C449 C 0.77295 0.35932 0.99072 0.0
H450 H 0.8246 0.33343 0.84498 0.0
H451 H 0.78296 0.31115 0.93456 0.0
S452 S 0.79689 0.44876 0.03296 0.0
N453 N 0.82046 0.43784 0.95981 0.0
N454 N 0.77383 0.41491 0.0518 0.0
C455 C 0.78499 0.39272 0.99785 0.0
C456 C 0.81008 0.40533 0.94745 0.0
C457 C 0.38166 0.05386 0.23733 0.0
C458 C 0.37882 0.02047 0.21003 0.0
C459 C 0.3662 0.08122 0.19901 0.0
C460 C 0.34737 0.07562 0.13306 0.0
H461 H 0.39352 0.05845 0.29147 0.0
H462 H 0.36648 0.1063 0.22441 0.0
S463 S 0.33381 -0.00673 0.0375 0.0
N464 N 0.35771 -0.01644 0.11143 0.0
N465 N 0.32805 0.03507 0.04004 0.0
C466 C 0.34645 0.04281 0.10248 0.0
C467 C 0.36245 0.01506 0.14098 0.0
C468 C 0.31768 0.33742 0.68369 0.0
C469 C 0.3212 0.37238 0.69789 0.0
C470 C 0.28662 0.3249 0.65548 0.0
C471 C 0.25894 0.3473 0.64047 0.0
H472 H 0.33947 0.32026 0.68961 0.0
H473 H 0.28515 0.29826 0.64001 0.0
S474 S 0.25386 0.43955 0.68412 0.0
N475 N 0.29324 0.42791 0.70729 0.0
N476 N 0.23536 0.40463 0.65331 0.0
C477 C 0.26141 0.38156 0.66161 0.0
C478 C 0.29255 0.39407 0.69066 0.0
C479 C 0.85941 0.0514 0.50546 0.0
C480 C 0.8576 0.08245 0.46587 0.0
C481 C 0.86991 0.02139 0.46893 0.0
C482 C 0.8784 0.02211 0.39226 0.0
H483 H 0.84901 0.0496 0.56177 0.0
H484 H 0.86848 -0.00271 0.49868 0.0
S485 S 0.88504 0.09827 0.26991 0.0
N486 N 0.87094 0.11314 0.35111 0.0
N487 N 0.89016 0.05673 0.28204 0.0
C488 C 0.88054 0.05356 0.35517 0.0
C489 C 0.87048 0.08392 0.39248 0.0
C490 C 0.13233 0.62694 0.13047 0.0
C491 C 0.1366 0.60361 0.18985 0.0
C492 C 0.16076 0.63906 0.09089 0.0
C493 C 0.19415 0.628 0.10949 0.0
H494 H 0.10688 0.63341 0.11022 0.0
H495 H 0.15648 0.6553 0.04223 0.0
S496 S 0.21868 0.56886 0.26367 0.0
N497 N 0.17657 0.57201 0.2692 0.0
N498 N 0.22987 0.59367 0.19284 0.0
C499 C 0.19875 0.60619 0.17129 0.0
C500 C 0.16995 0.59446 0.21238 0.0
C501 C 0.59833 0.90975 0.99176 0.0
C502 C 0.62379 0.88873 0.95965 0.0
C503 C 0.58722 0.94001 0.95526 0.0
C504 C 0.60119 0.95013 0.88563 0.0
H505 H 0.58798 0.90377 0.04655 0.0
H506 H 0.56855 0.95605 0.98309 0.0
S507 S 0.66469 0.90063 0.77327 0.0
N508 N 0.65961 0.87797 0.8506 0.0
N509 N 0.63929 0.93424 0.7829 0.0
C510 C 0.62535 0.92812 0.85163 0.0
C511 C 0.63644 0.89759 0.88836 0.0
C512 C 0.40704 0.14403 0.84076 0.0
C513 C 0.38266 0.12553 0.8821 0.0
C514 C 0.43247 0.12749 0.79788 0.0
C515 C 0.43589 0.0917 0.79805 0.0
H516 H 0.40846 0.1714 0.84602 0.0
H517 H 0.45305 0.14283 0.77583 0.0
S518 S 0.37147 0.03183 0.87125 0.0
N519 N 0.3576 0.06961 0.89995 0.0
N520 N 0.4068 0.03879 0.82311 0.0
C521 C 0.40822 0.07331 0.82709 0.0
C522 C 0.38173 0.09007 0.8697 0.0
C523 C 0.62888 0.64219 0.13861 0.0
C524 C 0.59666 0.65242 0.16636 0.0
C525 C 0.65065 0.66585 0.1031 0.0
C526 C 0.63988 0.69982 0.08887 0.0
H527 H 0.63691 0.61574 0.14253 0.0
H528 H 0.6761 0.65756 0.08666 0.0
S529 S 0.55665 0.73833 0.14358 0.0
N530 N 0.55527 0.69899 0.17636 0.0
N531 N 0.59404 0.74149 0.10139 0.0
C532 C 0.60711 0.70963 0.11269 0.0
C533 C 0.58608 0.68646 0.15312 0.0
C534 C 0.04355 0.88136 0.32493 0.0
C535 C 0.01597 0.88344 0.3751 0.0
C536 C 0.07495 0.86656 0.34743 0.0
C537 C 0.07996 0.85296 0.42069 0.0
H538 H 0.03999 0.88836 0.26639 0.0
H539 H 0.09443 0.86276 0.30486 0.0
S540 S 0.0193 0.86121 0.5787 0.0
N541 N -0.00096 0.87861 0.50633 0.0
N542 N 0.05672 0.84825 0.54608 0.0
C543 C 0.0542 0.8588 0.47346 0.0
C544 C 0.02249 0.87455 0.45109 0.0
C545 C 0.83546 0.2921 0.58259 0.0
C546 C 0.84744 0.25874 0.59737 0.0
C547 C 0.85067 0.32049 0.61793 0.0
C548 C 0.87773 0.31625 0.67014 0.0
H549 H 0.81374 0.2962 0.54559 0.0
H550 H 0.8416 0.34591 0.60349 0.0
S551 S 0.92135 0.23482 0.71916 0.0
N552 N 0.89081 0.2239 0.66005 0.0
N553 N 0.91761 0.27655 0.72868 0.0
C554 C 0.89051 0.28323 0.68264 0.0
C555 C 0.87589 0.25475 0.64555 0.0
C556 C 0.54615 0.83456 0.16722 0.0
C557 C 0.57678 0.83182 0.20752 0.0
C558 C 0.51865 0.85383 0.1951 0.0
C559 C 0.52073 0.87189 0.26379 0.0
H560 H 0.54348 0.82193 0.11343 0.0
H561 H 0.49603 0.85612 0.16007 0.0
S562 S 0.59584 0.87257 0.39088 0.0
N563 N 0.60775 0.84742 0.32095 0.0
N564 N 0.55626 0.88527 0.37149 0.0
C565 C 0.55104 0.86869 0.30562 0.0
C566 C 0.579 0.84829 0.27785 0.0
C567 C 0.32015 0.28535 0.97916 0.0
C568 C 0.34601 0.26343 0.00732 0.0
C569 C 0.32847 0.31648 0.94296 0.0
C570 C 0.36287 0.32587 0.9326 0.0
H571 H 0.29357 0.27824 0.98345 0.0
H572 H 0.30804 0.33332 0.92383 0.0
S573 S 0.4395 0.27779 0.99958 0.0
N574 N 0.40698 0.25432 0.02542 0.0
N575 N 0.42236 0.3112 0.9565 0.0
C576 C 0.38851 0.30403 0.96141 0.0
C577 C 0.38017 0.27317 0.99903 0.0
C578 C 0.91107 0.09792 0.63382 0.0
C579 C 0.88752 0.10882 0.68779 0.0
C580 C 0.93831 0.07616 0.65411 0.0
C581 C 0.94349 0.06505 0.7295 0.0
H582 H 0.90958 0.10765 0.57678 0.0
H583 H 0.95623 0.06913 0.61031 0.0
S584 S 0.88536 0.08254 0.88891 0.0
N585 N 0.86817 0.10373 0.81746 0.0
N586 N 0.92027 0.06377 0.85571 0.0
C587 C 0.919 0.0744 0.78294 0.0
C588 C 0.89082 0.09599 0.76196 0.0
C589 C 0.10093 0.65902 0.39891 0.0
C590 C 0.1124 0.62854 0.43271 0.0
C591 C 0.10958 0.69091 0.4288 0.0
C592 C 0.13028 0.69399 0.49378 0.0
H593 H 0.08487 0.65834 0.3492 0.0
H594 H 0.10048 0.71351 0.39935 0.0
S595 S 0.16359 0.62231 0.60968 0.0
N596 N 0.14337 0.60367 0.53957 0.0
N597 N 0.15944 0.66373 0.59465 0.0
C598 C 0.14068 0.66389 0.53026 0.0
C599 C 0.13193 0.63124 0.49987 0.0
C600 C 0.90355 0.61698 0.34259 0.0
C601 C 0.89668 0.6234 0.41931 0.0
C602 C 0.93496 0.60294 0.31962 0.0
C603 C 0.96033 0.59535 0.37296 0.0
H604 H 0.88519 0.62462 0.29975 0.0
H605 H 0.94005 0.59983 0.26012 0.0
S606 S 0.95344 0.60276 0.58003 0.0
N607 N 0.91683 0.61853 0.54774 0.0
N608 N 0.97509 0.59026 0.50544 0.0
C609 C 0.95263 0.59884 0.4498 0.0
C610 C 0.9209 0.61335 0.47293 0.0
C611 C 0.07507 0.20613 0.65029 0.0
C612 C 0.10672 0.2031 0.61301 0.0
C613 C 0.05823 0.17767 0.67886 0.0
C614 C 0.07293 0.14505 0.67324 0.0
H615 H 0.06362 0.231 0.65937 0.0
H616 H 0.03389 0.1813 0.70696 0.0
S617 S 0.1539 0.1225 0.57555 0.0
N618 N 0.15104 0.16448 0.56762 0.0
N619 N 0.11962 0.11055 0.62261 0.0
C620 C 0.10409 0.14128 0.63417 0.0
C621 C 0.12094 0.1704 0.60355 0.0
C622 C 0.57299 0.36441 0.82779 0.0
C623 C 0.57792 0.35173 0.90169 0.0
C624 C 0.54013 0.37206 0.79939 0.0
C625 C 0.51104 0.36629 0.8433 0.0
H626 H 0.59463 0.36654 0.79015 0.0
H627 H 0.53741 0.3807 0.74171 0.0
S628 S 0.51071 0.33832 0.04382 0.0
N629 N 0.55154 0.338 0.02051 0.0
N630 N 0.48977 0.35084 0.96779 0.0
C631 C 0.51595 0.35577 0.919 0.0
C632 C 0.54942 0.34895 0.94817 0.0
C633 C 0.3839 0.77596 0.07398 0.0
C634 C 0.34918 0.76888 0.08485 0.0
C635 C 0.4003 0.80073 0.1166 0.0
C636 C 0.38246 0.82061 0.17006 0.0
H637 H 0.39954 0.75918 0.03953 0.0
H638 H 0.42766 0.80321 0.10925 0.0
S639 S 0.28826 0.82158 0.19549 0.0
N640 N 0.29552 0.78937 0.13761 0.0
N641 N 0.32601 0.83816 0.21404 0.0
C642 C 0.34657 0.81776 0.17182 0.0
C643 C 0.32995 0.79158 0.12953 0.0
C644 C 0.08594 0.37147 0.72178 0.0
C645 C 0.08093 0.3381 0.69552 0.0
C646 C 0.05862 0.39095 0.7518 0.0
C647 C 0.02536 0.37769 0.75752 0.0
H648 H 0.11094 0.38291 0.71727 0.0
H649 H 0.06316 0.41724 0.76699 0.0
S650 S -0.00114 0.29211 0.69322 0.0
N651 N 0.04023 0.29307 0.67516 0.0
N652 N -0.0107 0.32895 0.73332 0.0
C653 C 0.02046 0.3439 0.73362 0.0
C654 C 0.04812 0.32432 0.7022 0.0
C655 C 0.81066 0.80818 0.50041 0.0
C656 C 0.83093 0.77907 0.51685 0.0
C657 C 0.82536 0.83835 0.47252 0.0
C658 C 0.86055 0.8398 0.45665 0.0
H659 H 0.78305 0.80686 0.50449 0.0
H660 H 0.80898 0.86026 0.46116 0.0
S661 S 0.92471 0.77093 0.49009 0.0
N662 N 0.88819 0.75447 0.51808 0.0
N663 N 0.91536 0.81012 0.4619 0.0
C664 C 0.88113 0.81134 0.4749 0.0
C665 C 0.86644 0.78131 0.50606 0.0
C666 C 0.41558 0.64884 0.2533 0.0
C667 C 0.40003 0.63014 0.19509 0.0
C668 C 0.43888 0.63379 0.30342 0.0
C669 C 0.4487 0.59929 0.2976 0.0
H670 H 0.41079 0.67597 0.2591 0.0
H671 H 0.45157 0.6502 0.34343 0.0
S672 S 0.40979 0.53684 0.16683 0.0
N673 N 0.39168 0.57365 0.14299 0.0
N674 N 0.43595 0.54507 0.23761 0.0
C675 C 0.4306 0.57916 0.24536 0.0
C676 C 0.40643 0.5947 0.19372 0.0
C677 C 0.58087 0.18001 0.94197 0.0
C678 C 0.59537 0.14733 0.93245 0.0
C679 C 0.59991 0.20687 0.97095 0.0
C680 C 0.63437 0.2023 0.99166 0.0
H681 H 0.55434 0.18486 0.92694 0.0
H682 H 0.58807 0.23202 0.97316 0.0
S683 S 0.68359 0.121 0.98548 0.0
N684 N 0.6454 0.11098 0.9526 0.0
N685 N 0.682 0.16252 0.00397 0.0
C686 C 0.64915 0.16963 0.98412 0.0
C687 C 0.62947 0.14193 0.95525 0.0
C688 C 0.26152 0.21322 0.29058 0.0
C689 C 0.24394 0.21385 0.2216 0.0
C690 C 0.24634 0.22651 0.35623 0.0
C691 C 0.21277 0.24033 0.35577 0.0
H692 H 0.28678 0.20161 0.29426 0.0
H693 H 0.26127 0.22665 0.40768 0.0
S694 S 0.15683 0.24975 0.18849 0.0
N695 N 0.19158 0.23033 0.15628 0.0
N696 N 0.16343 0.25551 0.27938 0.0
C697 C 0.19507 0.24115 0.28714 0.0
C698 C 0.21054 0.22786 0.22028 0.0
C699 C 0.47772 0.50095 0.60543 0.0
C700 C 0.47347 0.4655 0.61685 0.0
C701 C 0.49348 0.51409 0.54057 0.0
C702 C 0.50594 0.49239 0.4841 0.0
H703 H 0.46775 0.51891 0.64632 0.0
H704 H 0.49627 0.54144 0.53511 0.0
S705 S 0.50129 0.39761 0.48546 0.0
N706 N 0.48305 0.40906 0.56539 0.0
N707 N 0.51328 0.43334 0.44419 0.0
C708 C 0.50264 0.45679 0.49547 0.0
C709 C 0.48641 0.44345 0.56159 0.0
C710 C 0.22302 0.75193 0.82601 0.0
C711 C 0.21606 0.7372 0.75504 0.0
C712 C 0.24436 0.73579 0.87967 0.0
C713 C 0.25954 0.7038 0.86554 0.0
H714 H 0.21343 0.77734 0.83851 0.0
H715 H 0.24942 0.74879 0.93215 0.0
S716 S 0.24886 0.6533 0.69053 0.0
N717 N 0.22578 0.68823 0.67492 0.0
N718 N 0.26484 0.65716 0.77616 0.0
C719 C 0.25142 0.68788 0.79651 0.0
C720 C 0.22993 0.70464 0.74136 0.0
C721 C -0.0036 0.45271 0.10967 0.0
C722 C 0.00371 0.48788 0.10462 0.0
C723 C 0.97772 0.43594 0.05339 0.0
C724 C 0.96651 0.4533 0.98893 0.0
H725 H 0.00547 0.43793 0.15749 0.0
H726 H 0.97197 0.40917 0.06043 0.0
S727 S 0.97538 0.54602 0.95198 0.0
N728 N -0.0046 0.54009 0.03299 0.0
N729 N 0.96099 0.50833 0.92639 0.0
C730 C 0.97235 0.48867 0.98462 0.0
C731 C -0.00925 0.50609 0.04264 0.0
C732 C 0.69821 0.74287 0.79003 0.0
C733 C 0.71782 0.7568 0.84801 0.0
C734 C 0.71408 0.7256 0.73008 0.0
C735 C 0.75012 0.72222 0.72517 0.0
H736 H 0.67065 0.74626 0.78973 0.0
H737 H 0.69798 0.71451 0.68715 0.0
S738 S 0.81268 0.75356 0.86402 0.0
N739 N 0.77509 0.76567 0.89778 0.0
N740 N 0.80458 0.73332 0.78472 0.0
C741 C 0.76991 0.73601 0.78272 0.0
C742 C 0.75382 0.75318 0.84422 0.0
C743 C 0.73963 0.2281 0.22559 0.0
C744 C 0.70835 0.24566 0.23687 0.0
C745 C 0.75797 0.2134 0.28625 0.0
C746 C 0.74626 0.21664 0.36069 0.0
H747 H 0.75068 0.22693 0.16981 0.0
H748 H 0.7812 0.19898 0.27474 0.0
S749 S 0.66605 0.26005 0.42048 0.0
N750 N 0.66676 0.26541 0.32827 0.0
N751 N 0.70086 0.23764 0.44179 0.0
C752 C 0.71489 0.23372 0.37243 0.0
C753 C 0.69614 0.24833 0.31083 0.0
C754 C 0.98026 0.97357 0.9739 0.0
C755 C 0.00015 0.00225 0.99037 0.0
C756 C 0.96517 0.95447 0.03174 0.0
C757 C 0.97017 0.96249 0.10823 0.0
H758 H 0.97722 0.96537 0.91615 0.0
H759 H 0.94881 0.93348 0.01651 0.0
S760 S 0.01858 0.03626 0.18038 0.0
N761 N 0.02326 0.03846 0.08816 0.0
N762 N -0.00531 0.00254 0.19646 0.0
C763 C -0.0103 -0.00868 0.12508 0.0
C764 C 0.00476 0.01109 0.06634 0.0
C765 C 0.50711 0.00558 0.54033 0.0
C766 C 0.49658 0.00157 0.61561 0.0
C767 C 0.49408 -0.01499 0.48243 0.0
C768 C 0.47089 0.95881 0.498 0.0
H769 H 0.52614 0.02442 0.52636 0.0
H770 H 0.50114 -0.00947 0.4248 0.0
S771 S 0.43564 0.93709 0.68477 0.0
N772 N 0.462 0.96879 0.70206 0.0
N773 N 0.43751 0.93036 0.59332 0.0
C774 C 0.46063 0.95425 0.57292 0.0
C775 C 0.47344 0.97545 0.6316 0.0
C776 C 0.23918 0.2338 0.70568 0.0
C777 C 0.21221 0.24958 0.74542 0.0
C778 C 0.26734 0.22011 0.74312 0.0
C779 C 0.26909 0.22123 0.82141 0.0
H780 H 0.23935 0.23349 0.6447 0.0
H781 H 0.28838 0.20964 0.71052 0.0
S782 S 0.20328 0.25572 0.95178 0.0
N783 N 0.18727 0.26278 0.86689 0.0
N784 N 0.24056 0.23627 0.9388 0.0
C785 C 0.24113 0.23438 0.8625 0.0
C786 C 0.21239 0.24869 0.82394 0.0
C787 C 0.46645 0.46493 0.0695 0.0
C788 C 0.4608 0.47251 0.99339 0.0
C789 C 0.48346 0.48758 0.11558 0.0
C790 C 0.49473 0.51864 0.08656 0.0
H791 H 0.45801 0.44096 0.09323 0.0
H792 H 0.48699 0.48124 0.17454 0.0
S793 S 0.48959 0.54887 0.88991 0.0
N794 N 0.47055 0.51147 0.88917 0.0
N795 N 0.50127 0.55547 0.97804 0.0
C796 C 0.48967 0.52668 0.01066 0.0
C797 C 0.47289 0.50305 0.96322 0.0
C798 C 0.26136 0.75185 0.31055 0.0
C799 C 0.22779 0.74704 0.33491 0.0
C800 C 0.27896 0.72547 0.27333 0.0
C801 C 0.26338 0.69365 0.26136 0.0
H802 H 0.27343 0.77623 0.31781 0.0
H803 H 0.30402 0.73074 0.2512 0.0
S804 S 0.17682 0.66856 0.31918 0.0
N805 N 0.18007 0.70847 0.34674 0.0
N806 N 0.21384 0.65871 0.28052 0.0
C807 C 0.23052 0.68853 0.28851 0.0
C808 C 0.21254 0.71526 0.32475 0.0
C809 C -0.00287 0.4594 0.49753 0.0
C810 C 0.98358 0.48704 0.45759 0.0
C811 C 0.976 0.43682 0.53394 0.0
C812 C 0.94043 0.44218 0.53646 0.0
H813 H 0.02456 0.45581 0.5031 0.0
H814 H -0.01152 0.41619 0.56319 0.0
S815 S 0.89177 0.5084 0.4307 0.0
N816 N 0.93233 0.51665 0.41262 0.0
N817 N 0.89197 0.4746 0.48669 0.0
C818 C 0.92611 0.46865 0.49283 0.0
C819 C 0.94791 0.49118 0.45231 0.0
C820 C 0.73976 0.75354 0.22258 0.0
C821 C 0.71828 0.77568 0.26366 0.0
C822 C 0.75211 0.72331 0.25442 0.0
C823 C 0.74507 0.71491 0.32971 0.0
H824 H 0.74507 0.75811 0.16364 0.0
H825 H 0.76757 0.70656 0.21961 0.0
S826 S 0.69814 0.76982 0.46646 0.0
N827 N 0.6955 0.79072 0.38591 0.0
N828 N 0.72008 0.73459 0.44815 0.0
C829 C 0.72638 0.73866 0.37347 0.0
C830 C 0.71325 0.76914 0.34022 0.0
C831 C 0.74859 0.20872 0.84567 0.0
C832 C 0.75372 0.20984 0.76784 0.0
C833 C 0.74135 0.23843 0.88541 0.0
C834 C 0.73901 0.27018 0.8482 0.0
H835 H 0.75009 0.18467 0.87589 0.0
H836 H 0.73571 0.23607 0.94484 0.0
S837 S 0.7524 0.28722 0.64608 0.0
N838 N 0.75696 0.24552 0.65505 0.0
N839 N 0.74461 0.30153 0.73145 0.0
C840 C 0.7455 0.27183 0.77116 0.0
C841 C 0.75214 0.24157 0.73025 0.0
C842 C 0.98183 0.95129 0.5767 0.0
C843 C 0.96101 0.96659 0.52123 0.0
C844 C 0.01302 0.96526 0.59707 0.0
C845 C 0.02388 -0.00353 0.56666 0.0
H846 H 0.97477 0.92745 0.60295 0.0
H847 H 0.02793 0.95222 0.64003 0.0
S848 S 0.97688 0.04885 0.42434 0.0
N849 N 0.95277 0.01517 0.43757 0.0
N850 N 0.01036 0.04311 0.47985 0.0
C851 C 0.00292 0.01259 0.51208 0.0
C852 C 0.97152 -0.00239 0.4895 0.0
C853 C 0.50425 -0.01117 0.08574 0.0
C854 C 0.50534 -0.0111 0.00731 0.0
C855 C 0.47618 0.9761 0.12296 0.0
C856 C 0.44933 0.96054 0.08336 0.0
H857 H 0.52389 0.00139 0.11832 0.0
H858 H 0.47613 0.97803 0.18371 0.0
S859 S 0.44046 0.95319 0.87768 0.0
N860 N 0.47721 0.97277 0.89011 0.0
N861 N 0.42553 0.94514 0.96247 0.0
C862 C 0.45081 0.95886 0.0051 0.0
C863 C 0.47888 0.97313 0.96645 0.0
loop_
_geom_bond_atom_site_label_1
_geom_bond_atom_site_label_2
_geom_bond_distance
_geom_bond_site_symmetry_2
_ccdc_geom_bond_type
Zn0 O6 1.920 . S
Zn0 O12 1.898 . S
Zn0 O15 1.905 . S
Zn1 O9 1.905 . S
Zn1 O10 1.898 . S
Zn1 O18 1.920 . S
Zn2 O5 2.078 1_554 S
Zn2 O8 2.114 . S
Zn2 O11 2.120 1_554 S
Zn2 O13 2.120 . S
Zn2 O14 2.114 . S
Zn2 O17 2.080 1_554 S
C3 O8 1.166 . S
C3 O9 1.182 1_554 S
C4 O10 1.167 . S
C4 O11 1.299 . S
O5 Zn2 2.078 1_556 S
O5 C19 1.301 1_556 S
O6 Zn0 1.920 . S
O6 C19 1.234 . S
C7 O12 1.167 . S
C7 O13 1.299 . S
O8 Zn2 2.114 . S
O8 C3 1.166 . S
O9 Zn1 1.905 . S
O9 C3 1.182 1_556 S
O10 Zn1 1.898 . S
O10 C4 1.167 . S
O11 Zn2 2.120 1_556 S
O11 C4 1.299 . S
O12 Zn0 1.898 . S
O12 C7 1.167 . S
O13 Zn2 2.120 . S
O13 C7 1.299 . S
O14 Zn2 2.114 . S
O14 C16 1.166 . S
O15 Zn0 1.905 . S
O15 C16 1.182 . S
C16 O14 1.166 . S
C16 O15 1.182 . S
O17 Zn2 2.080 1_556 S
O17 C20 1.305 . S
O18 Zn1 1.920 . S
O18 C20 1.234 . S
C19 O5 1.301 1_554 S
C19 O6 1.234 . S
C20 O17 1.305 . S
C20 O18 1.234 . S
Zn21 O27 1.920 . S
Zn21 O33 1.898 . S
Zn21 O36 1.905 . S
Zn22 O30 1.905 . S
Zn22 O31 1.898 . S
Zn22 O39 1.920 . S
Zn23 O26 2.080 . S
Zn23 O29 2.114 . S
Zn23 O32 2.120 . S
Zn23 O34 2.120 . S
Zn23 O35 2.114 . S
Zn23 O38 2.080 . S
C24 O29 1.166 . S
C24 O30 1.182 . S
C25 O31 1.167 . S
C25 O32 1.299 . S
O26 Zn23 2.080 . S
O26 C40 1.305 . S
O27 Zn21 1.920 . S
O27 C40 1.234 . S
C28 O33 1.167 . S
C28 O34 1.299 . S
O29 Zn23 2.114 . S
O29 C24 1.166 . S
O30 Zn22 1.905 . S
O30 C24 1.182 . S
O31 Zn22 1.898 . S
O31 C25 1.167 . S
O32 Zn23 2.120 . S
O32 C25 1.299 . S
O33 Zn21 1.898 . S
O33 C28 1.167 . S
O34 Zn23 2.120 . S
O34 C28 1.299 . S
O35 Zn23 2.114 . S
O35 C37 1.166 . S
O36 Zn21 1.905 . S
O36 C37 1.182 . S
C37 O35 1.166 . S
C37 O36 1.182 . S
O38 Zn23 2.080 . S
O38 C41 1.305 . S
O39 Zn22 1.920 . S
O39 C41 1.234 . S
C40 O26 1.305 . S
C40 O27 1.234 . S
C41 O38 1.305 . S
C41 O39 1.234 . S
Zn42 O48 1.920 . S
Zn42 O54 1.898 . S
Zn42 O57 1.905 . S
Zn43 O51 1.905 . S
Zn43 O52 1.898 . S
Zn43 O60 1.920 . S
Zn44 O47 2.080 . S
Zn44 O50 2.114 . S
Zn44 O53 2.120 . S
Zn44 O55 2.120 . S
Zn44 O56 2.114 . S
Zn44 O59 2.080 . S
C45 O50 1.166 . S
C45 O51 1.182 . S
C46 O52 1.167 . S
C46 O53 1.299 . S
O47 Zn44 2.080 . S
O47 C61 1.305 . S
O48 Zn42 1.920 . S
O48 C61 1.234 . S
C49 O54 1.167 . S
C49 O55 1.299 . S
O50 Zn44 2.114 . S
O50 C45 1.166 . S
O51 Zn43 1.905 . S
O51 C45 1.182 . S
O52 Zn43 1.898 . S
O52 C46 1.167 . S
O53 Zn44 2.120 . S
O53 C46 1.299 . S
O54 Zn42 1.898 . S
O54 C49 1.167 . S
O55 Zn44 2.120 . S
O55 C49 1.299 . S
O56 Zn44 2.114 . S
O56 C58 1.166 . S
O57 Zn42 1.905 . S
O57 C58 1.182 . S
C58 O56 1.166 . S
C58 O57 1.182 . S
O59 Zn44 2.080 . S
O59 C62 1.305 . S
O60 Zn43 1.920 . S
O60 C62 1.234 . S
C61 O47 1.305 . S
C61 O48 1.234 . S
C62 O59 1.305 . S
C62 O60 1.234 . S
Zn63 O69 1.920 . S
Zn63 O75 1.898 . S
Zn63 O78 1.905 . S
Zn64 O72 1.905 1_655 S
Zn64 O73 1.898 . S
Zn64 O81 1.920 . S
Zn65 O68 2.080 . S
Zn65 O71 2.114 . S
Zn65 O74 2.120 . S
Zn65 O76 2.120 . S
Zn65 O77 2.114 . S
Zn65 O80 2.080 . S
C66 O71 1.166 1_455 S
C66 O72 1.182 . S
C67 O73 1.167 . S
C67 O74 1.299 . S
O68 Zn65 2.080 . S
O68 C82 1.305 . S
O69 Zn63 1.920 . S
O69 C82 1.234 . S
C70 O75 1.167 . S
C70 O76 1.299 . S
O71 Zn65 2.114 . S
O71 C66 1.166 1_655 S
O72 Zn64 1.905 1_455 S
O72 C66 1.182 . S
O73 Zn64 1.898 . S
O73 C67 1.167 . S
O74 Zn65 2.120 . S
O74 C67 1.299 . S
O75 Zn63 1.898 . S
O75 C70 1.167 . S
O76 Zn65 2.120 . S
O76 C70 1.299 . S
O77 Zn65 2.114 . S
O77 C79 1.166 . S
O78 Zn63 1.905 . S
O78 C79 1.182 . S
C79 O77 1.166 . S
C79 O78 1.182 . S
O80 Zn65 2.080 . S
O80 C83 1.305 . S
O81 Zn64 1.920 . S
O81 C83 1.234 . S
C82 O68 1.305 . S
C82 O69 1.234 . S
C83 O80 1.305 . S
C83 O81 1.234 . S
Zn84 O90 1.920 1_556 S
Zn84 O96 1.898 . S
Zn84 O99 1.905 . S
Zn85 O93 1.905 . S
Zn85 O94 1.898 . S
Zn85 O102 1.920 . S
Zn86 O89 2.080 . S
Zn86 O92 2.114 . S
Zn86 O95 2.120 . S
Zn86 O97 2.120 1_554 S
Zn86 O98 2.114 1_554 S
Zn86 O101 2.080 . S
C87 O92 1.166 . S
C87 O93 1.182 . S
C88 O94 1.167 . S
C88 O95 1.299 . S
O89 Zn86 2.080 . S
O89 C103 1.305 . S
O90 Zn84 1.920 1_554 S
O90 C103 1.234 . S
C91 O96 1.167 . S
C91 O97 1.299 . S
O92 Zn86 2.114 . S
O92 C87 1.166 . S
O93 Zn85 1.905 . S
O93 C87 1.182 . S
O94 Zn85 1.898 . S
O94 C88 1.167 . S
O95 Zn86 2.120 . S
O95 C88 1.299 . S
O96 Zn84 1.898 . S
O96 C91 1.167 . S
O97 Zn86 2.120 1_556 S
O97 C91 1.299 . S
O98 Zn86 2.114 1_556 S
O98 C100 1.166 . S
O99 Zn84 1.905 . S
O99 C100 1.182 . S
C100 O98 1.166 . S
C100 O99 1.182 . S
O101 Zn86 2.080 . S
O101 C104 1.305 . S
O102 Zn85 1.920 . S
O102 C104 1.234 . S
C103 O89 1.305 . S
C103 O90 1.234 . S
C104 O101 1.305 . S
C104 O102 1.234 . S
Zn105 O111 1.920 . S
Zn105 O117 1.898 . S
Zn105 O120 1.905 . S
Zn106 O114 1.905 . S
Zn106 O115 1.898 . S
Zn106 O123 1.920 1_556 S
Zn107 O110 2.080 . S
Zn107 O113 2.114 . S
Zn107 O116 2.120 . S
Zn107 O118 2.120 . S
Zn107 O119 2.114 . S
Zn107 O122 2.080 . S
C108 O113 1.166 . S
C108 O114 1.182 . S
C109 O115 1.167 . S
C109 O116 1.299 . S
O110 Zn107 2.080 . S
O110 C124 1.305 . S
O111 Zn105 1.920 . S
O111 C124 1.234 . S
C112 O117 1.167 . S
C112 O118 1.299 . S
O113 Zn107 2.114 . S
O113 C108 1.166 . S
O114 Zn106 1.905 . S
O114 C108 1.182 . S
O115 Zn106 1.898 . S
O115 C109 1.167 . S
O116 Zn107 2.120 . S
O116 C109 1.299 . S
O117 Zn105 1.898 . S
O117 C112 1.167 . S
O118 Zn107 2.120 . S
O118 C112 1.299 . S
O119 Zn107 2.114 . S
O119 C121 1.166 . S
O120 Zn105 1.905 . S
O120 C121 1.182 . S
C121 O119 1.166 . S
C121 O120 1.182 . S
O122 Zn107 2.080 . S
O122 C125 1.305 . S
O123 Zn106 1.920 1_554 S
O123 C125 1.234 1_554 S
C124 O110 1.305 . S
C124 O111 1.234 . S
C125 O122 1.305 . S
C125 O123 1.234 1_556 S
Zn126 O132 1.920 . S
Zn126 O138 1.898 . S
Zn126 O141 1.905 . S
Zn127 O135 1.905 . S
Zn127 O136 1.898 . S
Zn127 O144 1.920 . S
Zn128 O131 2.080 . S
Zn128 O134 2.114 . S
Zn128 O137 2.120 . S
Zn128 O139 2.120 . S
Zn128 O140 2.114 . S
Zn128 O143 2.080 . S
C129 O134 1.166 . S
C129 O135 1.182 . S
C130 O136 1.167 . S
C130 O137 1.299 . S
O131 Zn128 2.080 . S
O131 C145 1.305 . S
O132 Zn126 1.920 . S
O132 C145 1.234 . S
C133 O138 1.167 . S
C133 O139 1.299 . S
O134 Zn128 2.114 . S
O134 C129 1.166 . S
O135 Zn127 1.905 . S
O135 C129 1.182 . S
O136 Zn127 1.898 . S
O136 C130 1.167 . S
O137 Zn128 2.120 . S
O137 C130 1.299 . S
O138 Zn126 1.898 . S
O138 C133 1.167 . S
O139 Zn128 2.120 . S
O139 C133 1.299 . S
O140 Zn128 2.114 . S
O140 C142 1.166 . S
O141 Zn126 1.905 . S
O141 C142 1.182 . S
C142 O140 1.166 . S
C142 O141 1.182 . S
O143 Zn128 2.080 . S
O143 C146 1.305 . S
O144 Zn127 1.920 . S
O144 C146 1.234 . S
C145 O131 1.305 . S
C145 O132 1.234 . S
C146 O143 1.305 . S
C146 O144 1.234 . S
Zn147 O153 1.920 . S
Zn147 O159 1.898 . S
Zn147 O162 1.905 1_455 S
Zn148 O156 1.905 . S
Zn148 O157 1.898 . S
Zn148 O165 1.920 . S
Zn149 O152 2.080 . S
Zn149 O155 2.114 . S
Zn149 O158 2.120 . S
Zn149 O160 2.120 . S
Zn149 O161 2.114 . S
Zn149 O164 2.080 . S
C150 O155 1.166 . S
C150 O156 1.182 . S
C151 O157 1.167 . S
C151 O158 1.299 . S
O152 Zn149 2.080 . S
O152 C166 1.305 . S
O153 Zn147 1.920 . S
O153 C166 1.234 . S
C154 O159 1.167 . S
C154 O160 1.299 . S
O155 Zn149 2.114 . S
O155 C150 1.166 . S
O156 Zn148 1.905 . S
O156 C150 1.182 . S
O157 Zn148 1.898 . S
O157 C151 1.167 . S
O158 Zn149 2.120 . S
O158 C151 1.299 . S
O159 Zn147 1.898 . S
O159 C154 1.167 . S
O160 Zn149 2.120 . S
O160 C154 1.299 . S
O161 Zn149 2.114 . S
O161 C163 1.166 1_455 S
O162 Zn147 1.905 1_655 S
O162 C163 1.182 . S
C163 O161 1.166 1_655 S
C163 O162 1.182 . S
O164 Zn149 2.080 . S
O164 C167 1.305 . S
O165 Zn148 1.920 . S
O165 C167 1.234 . S
C166 O152 1.305 . S
C166 O153 1.234 . S
C167 O164 1.305 . S
C167 O165 1.234 . S
Zn168 O174 1.920 . S
Zn168 O180 1.898 . S
Zn168 O183 1.905 . S
Zn169 O177 1.905 . S
Zn169 O178 1.898 . S
Zn169 O186 1.920 . S
Zn170 O173 2.080 . S
Zn170 O176 2.114 . S
Zn170 O179 2.120 . S
Zn170 O181 2.120 . S
Zn170 O182 2.114 . S
Zn170 O185 2.080 . S
C171 O176 1.166 . S
C171 O177 1.182 . S
C172 O178 1.167 . S
C172 O179 1.299 . S
O173 Zn170 2.080 . S
O173 C187 1.305 . S
O174 Zn168 1.920 . S
O174 C187 1.234 . S
C175 O180 1.167 . S
C175 O181 1.299 . S
O176 Zn170 2.114 . S
O176 C171 1.166 . S
O177 Zn169 1.905 . S
O177 C171 1.182 . S
O178 Zn169 1.898 . S
O178 C172 1.167 . S
O179 Zn170 2.120 . S
O179 C172 1.299 . S
O180 Zn168 1.898 . S
O180 C175 1.167 . S
O181 Zn170 2.120 . S
O181 C175 1.299 . S
O182 Zn170 2.114 . S
O182 C184 1.166 . S
O183 Zn168 1.905 . S
O183 C184 1.182 . S
C184 O182 1.166 . S
C184 O183 1.182 . S
O185 Zn170 2.080 . S
O185 C188 1.305 . S
O186 Zn169 1.920 . S
O186 C188 1.234 . S
C187 O173 1.305 . S
C187 O174 1.234 . S
C188 O185 1.305 . S
C188 O186 1.234 . S
Zn189 O195 1.920 1_545 S
Zn189 O201 1.898 . S
Zn189 O204 1.905 . S
Zn190 O198 1.905 1_455 S
Zn190 O199 1.898 . S
Zn190 O207 1.920 . S
Zn191 O194 2.080 . S
Zn191 O197 2.114 . S
Zn191 O200 2.120 . S
Zn191 O202 2.120 . S
Zn191 O203 2.114 . S
Zn191 O206 2.080 . S
C192 O197 1.166 1_655 S
C192 O198 1.182 . S
C193 O199 1.167 . S
C193 O200 1.299 . S
O194 Zn191 2.080 . S
O194 C208 1.305 1_545 S
O195 Zn189 1.920 1_565 S
O195 C208 1.234 . S
C196 O201 1.167 . S
C196 O202 1.299 . S
O197 Zn191 2.114 . S
O197 C192 1.166 1_455 S
O198 Zn190 1.905 1_655 S
O198 C192 1.182 . S
O199 Zn190 1.898 . S
O199 C193 1.167 . S
O200 Zn191 2.120 . S
O200 C193 1.299 . S
O201 Zn189 1.898 . S
O201 C196 1.167 . S
O202 Zn191 2.120 . S
O202 C196 1.299 . S
O203 Zn191 2.114 . S
O203 C205 1.166 . S
O204 Zn189 1.905 . S
O204 C205 1.182 . S
C205 O203 1.166 . S
C205 O204 1.182 . S
O206 Zn191 2.080 . S
O206 C209 1.305 . S
O207 Zn190 1.920 . S
O207 C209 1.234 . S
C208 O194 1.305 1_565 S
C208 O195 1.234 . S
C209 O206 1.305 . S
C209 O207 1.234 . S
Zn210 O216 1.920 . S
Zn210 O222 1.898 . S
Zn210 O225 1.905 . S
Zn211 O219 1.905 . S
Zn211 O220 1.898 . S
Zn211 O228 1.920 . S
Zn212 O215 2.078 1_554 S
Zn212 O218 2.114 . S
Zn212 O221 2.120 1_554 S
Zn212 O223 2.120 . S
Zn212 O224 2.114 . S
Zn212 O227 2.080 1_554 S
C213 O218 1.166 . S
C213 O219 1.182 1_554 S
C214 O220 1.167 . S
C214 O221 1.299 . S
O215 Zn212 2.078 1_556 S
O215 C229 1.301 1_556 S
O216 Zn210 1.920 . S
O216 C229 1.234 . S
C217 O222 1.167 . S
C217 O223 1.299 . S
O218 Zn212 2.114 . S
O218 C213 1.166 . S
O219 Zn211 1.905 . S
O219 C213 1.182 1_556 S
O220 Zn211 1.898 . S
O220 C214 1.167 . S
O221 Zn212 2.120 1_556 S
O221 C214 1.299 . S
O222 Zn210 1.898 . S
O222 C217 1.167 . S
O223 Zn212 2.120 . S
O223 C217 1.299 . S
O224 Zn212 2.114 . S
O224 C226 1.166 . S
O225 Zn210 1.905 . S
O225 C226 1.182 . S
C226 O224 1.166 . S
C226 O225 1.182 . S
O227 Zn212 2.080 1_556 S
O227 C230 1.305 . S
O228 Zn211 1.920 . S
O228 C230 1.234 . S
C229 O215 1.301 1_554 S
C229 O216 1.234 . S
C230 O227 1.305 . S
C230 O228 1.234 . S
Zn231 O237 1.920 . S
Zn231 O243 1.898 . S
Zn231 O246 1.905 . S
Zn232 O240 1.905 . S
Zn232 O241 1.898 . S
Zn232 O249 1.920 1_565 S
Zn233 O236 2.080 . S
Zn233 O239 2.114 . S
Zn233 O242 2.120 . S
Zn233 O244 2.120 . S
Zn233 O245 2.114 . S
Zn233 O248 2.080 . S
C234 O239 1.166 . S
C234 O240 1.182 . S
C235 O241 1.167 . S
C235 O242 1.299 . S
O236 Zn233 2.080 . S
O236 C250 1.305 . S
O237 Zn231 1.920 . S
O237 C250 1.234 . S
C238 O243 1.167 . S
C238 O244 1.299 . S
O239 Zn233 2.114 . S
O239 C234 1.166 . S
O240 Zn232 1.905 . S
O240 C234 1.182 . S
O241 Zn232 1.898 . S
O241 C235 1.167 . S
O242 Zn233 2.120 . S
O242 C235 1.299 . S
O243 Zn231 1.898 . S
O243 C238 1.167 . S
O244 Zn233 2.120 . S
O244 C238 1.299 . S
O245 Zn233 2.114 . S
O245 C247 1.166 . S
O246 Zn231 1.905 . S
O246 C247 1.182 . S
C247 O245 1.166 . S
C247 O246 1.182 . S
O248 Zn233 2.080 . S
O248 C251 1.305 1_565 S
O249 Zn232 1.920 1_545 S
O249 C251 1.234 . S
C250 O236 1.305 . S
C250 O237 1.234 . S
C251 O248 1.305 1_545 S
C251 O249 1.234 . S
Zn252 O258 1.920 . S
Zn252 O264 1.898 . S
Zn252 O267 1.905 . S
Zn253 O261 1.905 . S
Zn253 O262 1.898 . S
Zn253 O270 1.920 . S
Zn254 O257 2.080 . S
Zn254 O260 2.114 . S
Zn254 O263 2.120 . S
Zn254 O265 2.120 . S
Zn254 O266 2.114 . S
Zn254 O269 2.080 . S
C255 O260 1.166 . S
C255 O261 1.182 . S
C256 O262 1.167 . S
C256 O263 1.299 . S
O257 Zn254 2.080 . S
O257 C271 1.305 . S
O258 Zn252 1.920 . S
O258 C271 1.234 . S
C259 O264 1.167 . S
C259 O265 1.299 . S
O260 Zn254 2.114 . S
O260 C255 1.166 . S
O261 Zn253 1.905 . S
O261 C255 1.182 . S
O262 Zn253 1.898 . S
O262 C256 1.167 . S
O263 Zn254 2.120 . S
O263 C256 1.299 . S
O264 Zn252 1.898 . S
O264 C259 1.167 . S
O265 Zn254 2.120 . S
O265 C259 1.299 . S
O266 Zn254 2.114 . S
O266 C268 1.166 . S
O267 Zn252 1.905 . S
O267 C268 1.182 . S
C268 O266 1.166 . S
C268 O267 1.182 . S
O269 Zn254 2.080 . S
O269 C272 1.305 . S
O270 Zn253 1.920 . S
O270 C272 1.234 . S
C271 O257 1.305 . S
C271 O258 1.234 . S
C272 O269 1.305 . S
C272 O270 1.234 . S
Zn273 O279 1.920 1_565 S
Zn273 O285 1.898 . S
Zn273 O288 1.905 . S
Zn274 O282 1.905 1_655 S
Zn274 O283 1.898 . S
Zn274 O291 1.920 . S
Zn275 O278 2.080 . S
Zn275 O281 2.114 . S
Zn275 O284 2.120 . S
Zn275 O286 2.120 . S
Zn275 O287 2.114 . S
Zn275 O290 2.080 . S
C276 O281 1.166 1_455 S
C276 O282 1.182 . S
C277 O283 1.167 . S
C277 O284 1.299 . S
O278 Zn275 2.080 . S
O278 C292 1.305 1_565 S
O279 Zn273 1.920 1_545 S
O279 C292 1.234 . S
C280 O285 1.167 . S
C280 O286 1.299 . S
O281 Zn275 2.114 . S
O281 C276 1.166 1_655 S
O282 Zn274 1.905 1_455 S
O282 C276 1.182 . S
O283 Zn274 1.898 . S
O283 C277 1.167 . S
O284 Zn275 2.120 . S
O284 C277 1.299 . S
O285 Zn273 1.898 . S
O285 C280 1.167 . S
O286 Zn275 2.120 . S
O286 C280 1.299 . S
O287 Zn275 2.114 . S
O287 C289 1.166 . S
O288 Zn273 1.905 . S
O288 C289 1.182 . S
C289 O287 1.166 . S
C289 O288 1.182 . S
O290 Zn275 2.080 . S
O290 C293 1.305 . S
O291 Zn274 1.920 . S
O291 C293 1.234 . S
C292 O278 1.305 1_545 S
C292 O279 1.234 . S
C293 O290 1.305 . S
C293 O291 1.234 . S
Zn294 O300 1.920 1_556 S
Zn294 O306 1.898 . S
Zn294 O309 1.905 . S
Zn295 O303 1.905 . S
Zn295 O304 1.898 . S
Zn295 O312 1.920 . S
Zn296 O299 2.080 . S
Zn296 O302 2.114 . S
Zn296 O305 2.120 . S
Zn296 O307 2.120 1_554 S
Zn296 O308 2.114 1_554 S
Zn296 O311 2.080 . S
C297 O302 1.166 . S
C297 O303 1.182 . S
C298 O304 1.167 . S
C298 O305 1.299 . S
O299 Zn296 2.080 . S
O299 C313 1.305 . S
O300 Zn294 1.920 1_554 S
O300 C313 1.234 . S
C301 O306 1.167 . S
C301 O307 1.299 . S
O302 Zn296 2.114 . S
O302 C297 1.166 . S
O303 Zn295 1.905 . S
O303 C297 1.182 . S
O304 Zn295 1.898 . S
O304 C298 1.167 . S
O305 Zn296 2.120 . S
O305 C298 1.299 . S
O306 Zn294 1.898 . S
O306 C301 1.167 . S
O307 Zn296 2.120 1_556 S
O307 C301 1.299 . S
O308 Zn296 2.114 1_556 S
O308 C310 1.166 . S
O309 Zn294 1.905 . S
O309 C310 1.182 . S
C310 O308 1.166 . S
C310 O309 1.182 . S
O311 Zn296 2.080 . S
O311 C314 1.305 . S
O312 Zn295 1.920 . S
O312 C314 1.234 . S
C313 O299 1.305 . S
C313 O300 1.234 . S
C314 O311 1.305 . S
C314 O312 1.234 . S
Zn315 O321 1.920 1_556 S
Zn315 O327 1.898 . S
Zn315 O330 1.905 . S
Zn316 O324 1.905 . S
Zn316 O325 1.898 . S
Zn316 O333 1.920 1_545 S
Zn317 O320 2.080 . S
Zn317 O323 2.114 . S
Zn317 O326 2.120 . S
Zn317 O328 2.120 . S
Zn317 O329 2.114 . S
Zn317 O332 2.080 . S
C318 O323 1.166 . S
C318 O324 1.182 . S
C319 O325 1.167 . S
C319 O326 1.299 . S
O320 Zn317 2.080 . S
O320 C334 1.305 . S
O321 Zn315 1.920 1_554 S
O321 C334 1.234 1_554 S
C322 O327 1.167 . S
C322 O328 1.299 . S
O323 Zn317 2.114 . S
O323 C318 1.166 . S
O324 Zn316 1.905 . S
O324 C318 1.182 . S
O325 Zn316 1.898 . S
O325 C319 1.167 . S
O326 Zn317 2.120 . S
O326 C319 1.299 . S
O327 Zn315 1.898 . S
O327 C322 1.167 . S
O328 Zn317 2.120 . S
O328 C322 1.299 . S
O329 Zn317 2.114 . S
O329 C331 1.166 . S
O330 Zn315 1.905 . S
O330 C331 1.182 . S
C331 O329 1.166 . S
C331 O330 1.182 . S
O332 Zn317 2.080 . S
O332 C335 1.305 1_545 S
O333 Zn316 1.920 1_565 S
O333 C335 1.234 . S
C334 O320 1.305 . S
C334 O321 1.234 1_556 S
C335 O332 1.305 1_565 S
C335 O333 1.234 . S
C336 C337 1.369 . S
C336 C338 1.419 . S
C336 H340 0.930 . S
C337 C336 1.369 . S
C337 C346 1.429 . S
C338 C336 1.419 . S
C338 C339 1.363 . S
C338 H341 0.929 . S
C339 C338 1.363 . S
C339 C345 1.428 . S
H340 C336 0.930 . S
H341 C338 0.929 . S
S342 N343 1.613 . S
S342 N344 1.610 . S
N343 S342 1.613 . S
N343 C346 1.350 1_554 S
N344 S342 1.610 . S
N344 C345 1.351 1_554 S
C345 C339 1.428 . S
C345 N344 1.351 1_556 S
C345 C346 1.434 . S
C346 C337 1.429 . S
C346 N343 1.350 1_556 S
C346 C345 1.434 . S
C347 C348 1.369 . S
C347 C349 1.419 . S
C347 H351 0.930 . S
C348 C347 1.369 . S
C348 C357 1.429 . S
C349 C347 1.419 . S
C349 C350 1.363 . S
C349 H352 0.929 . S
C350 C349 1.363 . S
C350 C356 1.428 . S
H351 C347 0.930 . S
H352 C349 0.929 . S
S353 N354 1.613 . S
S353 N355 1.610 . S
N354 S353 1.613 . S
N354 C357 1.350 . S
N355 S353 1.610 . S
N355 C356 1.351 . S
C356 C350 1.428 . S
C356 N355 1.351 . S
C356 C357 1.434 . S
C357 C348 1.429 . S
C357 N354 1.350 . S
C357 C356 1.434 . S
C358 C359 1.369 . S
C358 C360 1.419 . S
C358 H362 0.930 . S
C359 C358 1.369 . S
C359 C368 1.429 . S
C360 C358 1.419 . S
C360 C361 1.363 . S
C360 H363 0.929 . S
C361 C360 1.363 . S
C361 C367 1.428 . S
H362 C358 0.930 . S
H363 C360 0.929 . S
S364 N365 1.613 . S
S364 N366 1.610 . S
N365 S364 1.613 . S
N365 C368 1.350 . S
N366 S364 1.610 . S
N366 C367 1.351 . S
C367 C361 1.428 . S
C367 N366 1.351 . S
C367 C368 1.434 . S
C368 C359 1.429 . S
C368 N365 1.350 . S
C368 C367 1.434 . S
C369 C370 1.369 . S
C369 C371 1.419 . S
C369 H373 0.930 . S
C370 C369 1.369 . S
C370 C379 1.429 . S
C371 C369 1.419 . S
C371 C372 1.363 . S
C371 H374 0.929 . S
C372 C371 1.363 . S
C372 C378 1.428 . S
H373 C369 0.930 . S
H374 C371 0.929 . S
S375 N376 1.613 . S
S375 N377 1.610 . S
N376 S375 1.613 . S
N376 C379 1.350 . S
N377 S375 1.610 . S
N377 C378 1.351 . S
C378 C372 1.428 . S
C378 N377 1.351 . S
C378 C379 1.434 . S
C379 C370 1.429 . S
C379 N376 1.350 . S
C379 C378 1.434 . S
C380 C381 1.369 . S
C380 C382 1.419 . S
C380 H384 0.930 . S
C381 C380 1.369 . S
C381 C390 1.429 . S
C382 C380 1.419 . S
C382 C383 1.363 . S
C382 H385 0.929 . S
C383 C382 1.363 . S
C383 C389 1.428 . S
H384 C380 0.930 . S
H385 C382 0.929 . S
S386 N387 1.613 . S
S386 N388 1.610 . S
N387 S386 1.613 . S
N387 C390 1.350 . S
N388 S386 1.610 . S
N388 C389 1.351 . S
C389 C383 1.428 . S
C389 N388 1.351 . S
C389 C390 1.434 . S
C390 C381 1.429 . S
C390 N387 1.350 . S
C390 C389 1.434 . S
C391 C392 1.369 . S
C391 C393 1.419 . S
C391 H395 0.930 . S
C392 C391 1.369 . S
C392 C401 1.429 . S
C393 C391 1.419 . S
C393 C394 1.363 . S
C393 H396 0.929 . S
C394 C393 1.363 . S
C394 C400 1.428 . S
H395 C391 0.930 . S
H396 C393 0.929 . S
S397 N398 1.613 . S
S397 N399 1.610 . S
N398 S397 1.613 . S
N398 C401 1.350 . S
N399 S397 1.610 . S
N399 C400 1.351 . S
C400 C394 1.428 . S
C400 N399 1.351 . S
C400 C401 1.434 . S
C401 C392 1.429 . S
C401 N398 1.350 . S
C401 C400 1.434 . S
C402 C403 1.369 . S
C402 C404 1.419 . S
C402 H406 0.930 . S
C403 C402 1.369 . S
C403 C412 1.429 . S
C404 C402 1.419 . S
C404 C405 1.363 . S
C404 H407 0.929 . S
C405 C404 1.363 . S
C405 C411 1.428 . S
H406 C402 0.930 . S
H407 C404 0.929 . S
S408 N409 1.613 . S
S408 N410 1.610 . S
N409 S408 1.613 . S
N409 C412 1.350 . S
N410 S408 1.610 . S
N410 C411 1.351 . S
C411 C405 1.428 . S
C411 N410 1.351 . S
C411 C412 1.434 . S
C412 C403 1.429 . S
C412 N409 1.350 . S
C412 C411 1.434 . S
C413 C414 1.369 . S
C413 C415 1.419 . S
C413 H417 0.930 . S
C414 C413 1.369 . S
C414 C423 1.429 . S
C415 C413 1.419 . S
C415 C416 1.363 . S
C415 H418 0.929 . S
C416 C415 1.363 . S
C416 C422 1.428 . S
H417 C413 0.930 . S
H418 C415 0.929 . S
S419 N420 1.613 . S
S419 N421 1.610 . S
N420 S419 1.613 . S
N420 C423 1.350 . S
N421 S419 1.610 . S
N421 C422 1.351 . S
C422 C416 1.428 . S
C422 N421 1.351 . S
C422 C423 1.434 . S
C423 C414 1.429 . S
C423 N420 1.350 . S
C423 C422 1.434 . S
C424 C425 1.369 . S
C424 C426 1.419 . S
C424 H428 0.930 . S
C425 C424 1.369 . S
C425 C434 1.429 . S
C426 C424 1.419 . S
C426 C427 1.363 . S
C426 H429 0.929 . S
C427 C426 1.363 . S
C427 C433 1.428 . S
H428 C424 0.930 . S
H429 C426 0.929 . S
S430 N431 1.613 . S
S430 N432 1.610 . S
N431 S430 1.613 . S
N431 C434 1.350 . S
N432 S430 1.610 . S
N432 C433 1.351 . S
C433 C427 1.428 . S
C433 N432 1.351 . S
C433 C434 1.434 . S
C434 C425 1.429 . S
C434 N431 1.350 . S
C434 C433 1.434 . S
C435 C436 1.369 . S
C435 C437 1.419 . S
C435 H439 0.930 . S
C436 C435 1.369 . S
C436 C445 1.429 . S
C437 C435 1.419 . S
C437 C438 1.363 . S
C437 H440 0.929 . S
C438 C437 1.363 . S
C438 C444 1.428 . S
H439 C435 0.930 . S
H440 C437 0.929 . S
S441 N442 1.613 . S
S441 N443 1.610 . S
N442 S441 1.613 . S
N442 C445 1.350 . S
N443 S441 1.610 . S
N443 C444 1.351 . S
C444 C438 1.428 . S
C444 N443 1.351 . S
C444 C445 1.434 . S
C445 C436 1.429 . S
C445 N442 1.350 . S
C445 C444 1.434 . S
C446 C447 1.369 . S
C446 C448 1.419 . S
C446 H450 0.930 . S
C447 C446 1.369 . S
C447 C456 1.429 . S
C448 C446 1.419 . S
C448 C449 1.363 . S
C448 H451 0.929 . S
C449 C448 1.363 . S
C449 C455 1.428 . S
H450 C446 0.930 . S
H451 C448 0.929 . S
S452 N453 1.613 1_554 S
S452 N454 1.610 . S
N453 S452 1.613 1_556 S
N453 C456 1.350 . S
N454 S452 1.610 . S
N454 C455 1.351 1_554 S
C455 C449 1.428 . S
C455 N454 1.351 1_556 S
C455 C456 1.434 . S
C456 C447 1.429 . S
C456 N453 1.350 . S
C456 C455 1.434 . S
C457 C458 1.369 . S
C457 C459 1.419 . S
C457 H461 0.930 . S
C458 C457 1.369 . S
C458 C467 1.429 . S
C459 C457 1.419 . S
C459 C460 1.363 . S
C459 H462 0.929 . S
C460 C459 1.363 . S
C460 C466 1.428 . S
H461 C457 0.930 . S
H462 C459 0.929 . S
S463 N464 1.613 . S
S463 N465 1.610 . S
N464 S463 1.613 . S
N464 C467 1.350 . S
N465 S463 1.610 . S
N465 C466 1.351 . S
C466 C460 1.428 . S
C466 N465 1.351 . S
C466 C467 1.434 . S
C467 C458 1.429 . S
C467 N464 1.350 . S
C467 C466 1.434 . S
C468 C469 1.369 . S
C468 C470 1.419 . S
C468 H472 0.930 . S
C469 C468 1.369 . S
C469 C478 1.429 . S
C470 C468 1.419 . S
C470 C471 1.363 . S
C470 H473 0.929 . S
C471 C470 1.363 . S
C471 C477 1.428 . S
H472 C468 0.930 . S
H473 C470 0.929 . S
S474 N475 1.613 . S
S474 N476 1.610 . S
N475 S474 1.613 . S
N475 C478 1.350 . S
N476 S474 1.610 . S
N476 C477 1.351 . S
C477 C471 1.428 . S
C477 N476 1.351 . S
C477 C478 1.434 . S
C478 C469 1.429 . S
C478 N475 1.350 . S
C478 C477 1.434 . S
C479 C480 1.369 . S
C479 C481 1.419 . S
C479 H483 0.930 . S
C480 C479 1.369 . S
C480 C489 1.429 . S
C481 C479 1.419 . S
C481 C482 1.363 . S
C481 H484 0.929 . S
C482 C481 1.363 . S
C482 C488 1.428 . S
H483 C479 0.930 . S
H484 C481 0.929 . S
S485 N486 1.613 . S
S485 N487 1.610 . S
N486 S485 1.613 . S
N486 C489 1.350 . S
N487 S485 1.610 . S
N487 C488 1.351 . S
C488 C482 1.428 . S
C488 N487 1.351 . S
C488 C489 1.434 . S
C489 C480 1.429 . S
C489 N486 1.350 . S
C489 C488 1.434 . S
C490 C491 1.369 . S
C490 C492 1.419 . S
C490 H494 0.930 . S
C491 C490 1.369 . S
C491 C500 1.429 . S
C492 C490 1.419 . S
C492 C493 1.363 . S
C492 H495 0.929 . S
C493 C492 1.363 . S
C493 C499 1.428 . S
H494 C490 0.930 . S
H495 C492 0.929 . S
S496 N497 1.613 . S
S496 N498 1.610 . S
N497 S496 1.613 . S
N497 C500 1.350 . S
N498 S496 1.610 . S
N498 C499 1.351 . S
C499 C493 1.428 . S
C499 N498 1.351 . S
C499 C500 1.434 . S
C500 C491 1.429 . S
C500 N497 1.350 . S
C500 C499 1.434 . S
C501 C502 1.369 . S
C501 C503 1.419 . S
C501 H505 0.930 1_556 S
C502 C501 1.369 . S
C502 C511 1.429 . S
C503 C501 1.419 . S
C503 C504 1.363 . S
C503 H506 0.929 . S
C504 C503 1.363 . S
C504 C510 1.428 . S
H505 C501 0.930 1_554 S
H506 C503 0.929 . S
S507 N508 1.613 . S
S507 N509 1.610 . S
N508 S507 1.613 . S
N508 C511 1.350 . S
N509 S507 1.610 . S
N509 C510 1.351 . S
C510 C504 1.428 . S
C510 N509 1.351 . S
C510 C511 1.434 . S
C511 C502 1.429 . S
C511 N508 1.350 . S
C511 C510 1.434 . S
C512 C513 1.369 . S
C512 C514 1.419 . S
C512 H516 0.930 . S
C513 C512 1.369 . S
C513 C522 1.429 . S
C514 C512 1.419 . S
C514 C515 1.363 . S
C514 H517 0.929 . S
C515 C514 1.363 . S
C515 C521 1.428 . S
H516 C512 0.930 . S
H517 C514 0.929 . S
S518 N519 1.613 . S
S518 N520 1.610 . S
N519 S518 1.613 . S
N519 C522 1.350 . S
N520 S518 1.610 . S
N520 C521 1.351 . S
C521 C515 1.428 . S
C521 N520 1.351 . S
C521 C522 1.434 . S
C522 C513 1.429 . S
C522 N519 1.350 . S
C522 C521 1.434 . S
C523 C524 1.369 . S
C523 C525 1.419 . S
C523 H527 0.930 . S
C524 C523 1.369 . S
C524 C533 1.429 . S
C525 C523 1.419 . S
C525 C526 1.363 . S
C525 H528 0.929 . S
C526 C525 1.363 . S
C526 C532 1.428 . S
H527 C523 0.930 . S
H528 C525 0.929 . S
S529 N530 1.613 . S
S529 N531 1.610 . S
N530 S529 1.613 . S
N530 C533 1.350 . S
N531 S529 1.610 . S
N531 C532 1.351 . S
C532 C526 1.428 . S
C532 N531 1.351 . S
C532 C533 1.434 . S
C533 C524 1.429 . S
C533 N530 1.350 . S
C533 C532 1.434 . S
C534 C535 1.369 . S
C534 C536 1.419 . S
C534 H538 0.930 . S
C535 C534 1.369 . S
C535 C544 1.429 . S
C536 C534 1.419 . S
C536 C537 1.363 . S
C536 H539 0.929 . S
C537 C536 1.363 . S
C537 C543 1.428 . S
H538 C534 0.930 . S
H539 C536 0.929 . S
S540 N541 1.613 . S
S540 N542 1.610 . S
N541 S540 1.613 . S
N541 C544 1.350 . S
N542 S540 1.610 . S
N542 C543 1.351 . S
C543 C537 1.428 . S
C543 N542 1.351 . S
C543 C544 1.434 . S
C544 C535 1.429 . S
C544 N541 1.350 . S
C544 C543 1.434 . S
C545 C546 1.369 . S
C545 C547 1.419 . S
C545 H549 0.930 . S
C546 C545 1.369 . S
C546 C555 1.429 . S
C547 C545 1.419 . S
C547 C548 1.363 . S
C547 H550 0.929 . S
C548 C547 1.363 . S
C548 C554 1.428 . S
H549 C545 0.930 . S
H550 C547 0.929 . S
S551 N552 1.613 . S
S551 N553 1.610 . S
N552 S551 1.613 . S
N552 C555 1.350 . S
N553 S551 1.610 . S
N553 C554 1.351 . S
C554 C548 1.428 . S
C554 N553 1.351 . S
C554 C555 1.434 . S
C555 C546 1.429 . S
C555 N552 1.350 . S
C555 C554 1.434 . S
C556 C557 1.369 . S
C556 C558 1.419 . S
C556 H560 0.930 . S
C557 C556 1.369 . S
C557 C566 1.429 . S
C558 C556 1.419 . S
C558 C559 1.363 . S
C558 H561 0.929 . S
C559 C558 1.363 . S
C559 C565 1.428 . S
H560 C556 0.930 . S
H561 C558 0.929 . S
S562 N563 1.613 . S
S562 N564 1.610 . S
N563 S562 1.613 . S
N563 C566 1.350 . S
N564 S562 1.610 . S
N564 C565 1.351 . S
C565 C559 1.428 . S
C565 N564 1.351 . S
C565 C566 1.434 . S
C566 C557 1.429 . S
C566 N563 1.350 . S
C566 C565 1.434 . S
C567 C568 1.366 1_556 S
C567 C569 1.423 . S
C567 H571 0.929 1_556 S
C568 C567 1.366 1_554 S
C568 C577 1.429 . S
C569 C567 1.423 . S
C569 C570 1.363 . S
C569 H572 0.929 . S
C570 C569 1.363 . S
C570 C576 1.428 . S
H571 C567 0.929 1_554 S
H572 C569 0.929 . S
S573 N574 1.613 . S
S573 N575 1.610 1_554 S
N574 S573 1.613 . S
N574 C577 1.350 . S
N575 S573 1.610 1_556 S
N575 C576 1.351 . S
C576 C570 1.428 . S
C576 N575 1.351 . S
C576 C577 1.434 1_556 S
C577 C568 1.429 . S
C577 N574 1.350 . S
C577 C576 1.434 1_554 S
C578 C579 1.369 . S
C578 C580 1.419 . S
C578 H582 0.930 . S
C579 C578 1.369 . S
C579 C588 1.429 . S
C580 C578 1.419 . S
C580 C581 1.363 . S
C580 H583 0.929 . S
C581 C580 1.363 . S
C581 C587 1.428 . S
H582 C578 0.930 . S
H583 C580 0.929 . S
S584 N585 1.613 . S
S584 N586 1.610 . S
N585 S584 1.613 . S
N585 C588 1.350 . S
N586 S584 1.610 . S
N586 C587 1.351 . S
C587 C581 1.428 . S
C587 N586 1.351 . S
C587 C588 1.434 . S
C588 C579 1.429 . S
C588 N585 1.350 . S
C588 C587 1.434 . S
C589 C590 1.369 . S
C589 C591 1.419 . S
C589 H593 0.930 . S
C590 C589 1.369 . S
C590 C599 1.429 . S
C591 C589 1.419 . S
C591 C592 1.363 . S
C591 H594 0.929 . S
C592 C591 1.363 . S
C592 C598 1.428 . S
H593 C589 0.930 . S
H594 C591 0.929 . S
S595 N596 1.613 . S
S595 N597 1.610 . S
N596 S595 1.613 . S
N596 C599 1.350 . S
N597 S595 1.610 . S
N597 C598 1.351 . S
C598 C592 1.428 . S
C598 N597 1.351 . S
C598 C599 1.434 . S
C599 C590 1.429 . S
C599 N596 1.350 . S
C599 C598 1.434 . S
C600 C601 1.369 . S
C600 C602 1.419 . S
C600 H604 0.930 . S
C601 C600 1.369 . S
C601 C610 1.429 . S
C602 C600 1.419 . S
C602 C603 1.363 . S
C602 H605 0.929 . S
C603 C602 1.363 . S
C603 C609 1.428 . S
H604 C600 0.930 . S
H605 C602 0.929 . S
S606 N607 1.613 . S
S606 N608 1.610 . S
N607 S606 1.613 . S
N607 C610 1.350 . S
N608 S606 1.610 . S
N608 C609 1.351 . S
C609 C603 1.428 . S
C609 N608 1.351 . S
C609 C610 1.434 . S
C610 C601 1.429 . S
C610 N607 1.350 . S
C610 C609 1.434 . S
C611 C612 1.369 . S
C611 C613 1.419 . S
C611 H615 0.930 . S
C612 C611 1.369 . S
C612 C621 1.429 . S
C613 C611 1.419 . S
C613 C614 1.363 . S
C613 H616 0.929 . S
C614 C613 1.363 . S
C614 C620 1.428 . S
H615 C611 0.930 . S
H616 C613 0.929 . S
S617 N618 1.613 . S
S617 N619 1.610 . S
N618 S617 1.613 . S
N618 C621 1.350 . S
N619 S617 1.610 . S
N619 C620 1.351 . S
C620 C614 1.428 . S
C620 N619 1.351 . S
C620 C621 1.434 . S
C621 C612 1.429 . S
C621 N618 1.350 . S
C621 C620 1.434 . S
C622 C623 1.369 . S
C622 C624 1.419 . S
C622 H626 0.930 . S
C623 C622 1.369 . S
C623 C632 1.429 . S
C624 C622 1.419 . S
C624 C625 1.363 . S
C624 H627 0.929 . S
C625 C624 1.363 . S
C625 C631 1.428 . S
H626 C622 0.930 . S
H627 C624 0.929 . S
S628 N629 1.613 . S
S628 N630 1.610 1_554 S
N629 S628 1.613 . S
N629 C632 1.350 1_554 S
N630 S628 1.610 1_556 S
N630 C631 1.351 . S
C631 C625 1.428 . S
C631 N630 1.351 . S
C631 C632 1.434 . S
C632 C623 1.429 . S
C632 N629 1.350 1_556 S
C632 C631 1.434 . S
C633 C634 1.369 . S
C633 C635 1.419 . S
C633 H637 0.930 1_554 S
C634 C633 1.369 . S
C634 C643 1.429 . S
C635 C633 1.419 . S
C635 C636 1.363 . S
C635 H638 0.929 . S
C636 C635 1.363 . S
C636 C642 1.428 . S
H637 C633 0.930 1_556 S
H638 C635 0.929 . S
S639 N640 1.613 . S
S639 N641 1.610 . S
N640 S639 1.613 . S
N640 C643 1.350 . S
N641 S639 1.610 . S
N641 C642 1.351 . S
C642 C636 1.428 . S
C642 N641 1.351 . S
C642 C643 1.434 . S
C643 C634 1.429 . S
C643 N640 1.350 . S
C643 C642 1.434 . S
C644 C645 1.369 . S
C644 C646 1.419 . S
C644 H648 0.930 . S
C645 C644 1.369 . S
C645 C654 1.429 . S
C646 C644 1.419 . S
C646 C647 1.363 . S
C646 H649 0.929 . S
C647 C646 1.363 . S
C647 C653 1.428 . S
H648 C644 0.930 . S
H649 C646 0.929 . S
S650 N651 1.613 . S
S650 N652 1.610 . S
N651 S650 1.613 . S
N651 C654 1.350 . S
N652 S650 1.610 . S
N652 C653 1.351 . S
C653 C647 1.428 . S
C653 N652 1.351 . S
C653 C654 1.434 . S
C654 C645 1.429 . S
C654 N651 1.350 . S
C654 C653 1.434 . S
C655 C656 1.369 . S
C655 C657 1.419 . S
C655 H659 0.930 . S
C656 C655 1.369 . S
C656 C665 1.429 . S
C657 C655 1.419 . S
C657 C658 1.363 . S
C657 H660 0.929 . S
C658 C657 1.363 . S
C658 C664 1.428 . S
H659 C655 0.930 . S
H660 C657 0.929 . S
S661 N662 1.613 . S
S661 N663 1.610 . S
N662 S661 1.613 . S
N662 C665 1.350 . S
N663 S661 1.610 . S
N663 C664 1.351 . S
C664 C658 1.428 . S
C664 N663 1.351 . S
C664 C665 1.434 . S
C665 C656 1.429 . S
C665 N662 1.350 . S
C665 C664 1.434 . S
C666 C667 1.369 . S
C666 C668 1.419 . S
C666 H670 0.930 . S
C667 C666 1.369 . S
C667 C676 1.429 . S
C668 C666 1.419 . S
C668 C669 1.363 . S
C668 H671 0.929 . S
C669 C668 1.363 . S
C669 C675 1.428 . S
H670 C666 0.930 . S
H671 C668 0.929 . S
S672 N673 1.613 . S
S672 N674 1.610 . S
N673 S672 1.613 . S
N673 C676 1.350 . S
N674 S672 1.610 . S
N674 C675 1.351 . S
C675 C669 1.428 . S
C675 N674 1.351 . S
C675 C676 1.434 . S
C676 C667 1.429 . S
C676 N673 1.350 . S
C676 C675 1.434 . S
C677 C678 1.369 . S
C677 C679 1.419 . S
C677 H681 0.930 . S
C678 C677 1.369 . S
C678 C687 1.429 1_556 S
C679 C677 1.419 . S
C679 C680 1.363 1_556 S
C679 H682 0.929 . S
C680 C679 1.363 1_554 S
C680 C686 1.428 . S
H681 C677 0.930 . S
H682 C679 0.929 . S
S683 N684 1.613 . S
S683 N685 1.610 . S
N684 S683 1.613 . S
N684 C687 1.350 . S
N685 S683 1.610 . S
N685 C686 1.351 . S
C686 C680 1.428 . S
C686 N685 1.351 . S
C686 C687 1.434 . S
C687 C678 1.429 1_554 S
C687 N684 1.350 . S
C687 C686 1.434 . S
C688 C689 1.369 . S
C688 C690 1.419 . S
C688 H692 0.930 . S
C689 C688 1.369 . S
C689 C698 1.429 . S
C690 C688 1.419 . S
C690 C691 1.363 . S
C690 H693 0.929 . S
C691 C690 1.363 . S
C691 C697 1.428 . S
H692 C688 0.930 . S
H693 C690 0.929 . S
S694 N695 1.613 . S
S694 N696 1.610 . S
N695 S694 1.613 . S
N695 C698 1.350 . S
N696 S694 1.610 . S
N696 C697 1.351 . S
C697 C691 1.428 . S
C697 N696 1.351 . S
C697 C698 1.434 . S
C698 C689 1.429 . S
C698 N695 1.350 . S
C698 C697 1.434 . S
C699 C700 1.369 . S
C699 C701 1.419 . S
C699 H703 0.930 . S
C700 C699 1.369 . S
C700 C709 1.429 . S
C701 C699 1.419 . S
C701 C702 1.363 . S
C701 H704 0.929 . S
C702 C701 1.363 . S
C702 C708 1.428 . S
H703 C699 0.930 . S
H704 C701 0.929 . S
S705 N706 1.613 . S
S705 N707 1.610 . S
N706 S705 1.613 . S
N706 C709 1.350 . S
N707 S705 1.610 . S
N707 C708 1.351 . S
C708 C702 1.428 . S
C708 N707 1.351 . S
C708 C709 1.434 . S
C709 C700 1.429 . S
C709 N706 1.350 . S
C709 C708 1.434 . S
C710 C711 1.369 . S
C710 C712 1.419 . S
C710 H714 0.930 . S
C711 C710 1.369 . S
C711 C720 1.429 . S
C712 C710 1.419 . S
C712 C713 1.363 . S
C712 H715 0.929 . S
C713 C712 1.363 . S
C713 C719 1.428 . S
H714 C710 0.930 . S
H715 C712 0.929 . S
S716 N717 1.613 . S
S716 N718 1.610 . S
N717 S716 1.613 . S
N717 C720 1.350 . S
N718 S716 1.610 . S
N718 C719 1.351 . S
C719 C713 1.428 . S
C719 N718 1.351 . S
C719 C720 1.434 . S
C720 C711 1.429 . S
C720 N717 1.350 . S
C720 C719 1.434 . S
C721 C722 1.369 . S
C721 C723 1.419 1_455 S
C721 H725 0.930 . S
C722 C721 1.369 . S
C722 C731 1.429 . S
C723 C721 1.419 1_655 S
C723 C724 1.363 1_554 S
C723 H726 0.929 . S
C724 C723 1.363 1_556 S
C724 C730 1.428 . S
H725 C721 0.930 . S
H726 C723 0.929 . S
S727 N728 1.620 1_556 S
S727 N729 1.604 1_455 S
N728 S727 1.620 1_554 S
N728 C731 1.350 . S
N729 S727 1.604 1_655 S
N729 C730 1.351 . S
C730 C724 1.428 . S
C730 N729 1.351 . S
C730 C731 1.434 1_656 S
C731 C722 1.429 . S
C731 N728 1.350 . S
C731 C730 1.434 1_454 S
C732 C733 1.369 . S
C732 C734 1.419 . S
C732 H736 0.930 . S
C733 C732 1.369 . S
C733 C742 1.429 . S
C734 C732 1.419 . S
C734 C735 1.363 . S
C734 H737 0.929 . S
C735 C734 1.363 . S
C735 C741 1.428 . S
H736 C732 0.930 . S
H737 C734 0.929 . S
S738 N739 1.613 . S
S738 N740 1.610 . S
N739 S738 1.613 . S
N739 C742 1.350 . S
N740 S738 1.610 . S
N740 C741 1.351 . S
C741 C735 1.428 . S
C741 N740 1.351 . S
C741 C742 1.434 . S
C742 C733 1.429 . S
C742 N739 1.350 . S
C742 C741 1.434 . S
C743 C744 1.369 . S
C743 C745 1.419 . S
C743 H747 0.930 . S
C744 C743 1.369 . S
C744 C753 1.429 . S
C745 C743 1.419 . S
C745 C746 1.363 . S
C745 H748 0.929 . S
C746 C745 1.363 . S
C746 C752 1.428 . S
H747 C743 0.930 . S
H748 C745 0.929 . S
S749 N750 1.613 . S
S749 N751 1.610 . S
N750 S749 1.613 . S
N750 C753 1.350 . S
N751 S749 1.610 . S
N751 C752 1.351 . S
C752 C746 1.428 . S
C752 N751 1.351 . S
C752 C753 1.434 . S
C753 C744 1.429 . S
C753 N750 1.350 . S
C753 C752 1.434 . S
C754 C755 1.369 1_665 S
C754 C756 1.419 1_556 S
C754 H758 0.930 . S
C755 C754 1.369 1_445 S
C755 C764 1.429 1_556 S
C756 C754 1.419 1_554 S
C756 C757 1.363 . S
C756 H759 0.929 . S
C757 C756 1.363 . S
C757 C763 1.428 1_665 S
H758 C754 0.930 . S
H759 C756 0.929 . S
S760 N761 1.613 . S
S760 N762 1.610 . S
N761 S760 1.613 . S
N761 C764 1.350 . S
N762 S760 1.610 . S
N762 C763 1.351 . S
C763 C757 1.428 1_445 S
C763 N762 1.351 . S
C763 C764 1.434 . S
C764 C755 1.429 1_554 S
C764 N761 1.350 . S
C764 C763 1.434 . S
C765 C766 1.369 . S
C765 C767 1.419 . S
C765 H769 0.930 . S
C766 C765 1.369 . S
C766 C775 1.429 1_545 S
C767 C765 1.419 . S
C767 C768 1.363 1_545 S
C767 H770 0.929 . S
C768 C767 1.363 1_565 S
C768 C774 1.428 . S
H769 C765 0.930 . S
H770 C767 0.929 . S
S771 N772 1.613 . S
S771 N773 1.610 . S
N772 S771 1.613 . S
N772 C775 1.350 . S
N773 S771 1.610 . S
N773 C774 1.351 . S
C774 C768 1.428 . S
C774 N773 1.351 . S
C774 C775 1.434 . S
C775 C766 1.429 1_565 S
C775 N772 1.350 . S
C775 C774 1.434 . S
C776 C777 1.369 . S
C776 C778 1.419 . S
C776 H780 0.930 . S
C777 C776 1.369 . S
C777 C786 1.429 . S
C778 C776 1.419 . S
C778 C779 1.363 . S
C778 H781 0.929 . S
C779 C778 1.363 . S
C779 C785 1.428 . S
H780 C776 0.930 . S
H781 C778 0.929 . S
S782 N783 1.613 . S
S782 N784 1.610 . S
N783 S782 1.613 . S
N783 C786 1.350 . S
N784 S782 1.610 . S
N784 C785 1.351 . S
C785 C779 1.428 . S
C785 N784 1.351 . S
C785 C786 1.434 . S
C786 C777 1.429 . S
C786 N783 1.350 . S
C786 C785 1.434 . S
C787 C788 1.369 1_554 S
C787 C789 1.419 . S
C787 H791 0.930 . S
C788 C787 1.369 1_556 S
C788 C797 1.429 . S
C789 C787 1.419 . S
C789 C790 1.363 . S
C789 H792 0.929 . S
C790 C789 1.363 . S
C790 C796 1.428 . S
H791 C787 0.930 . S
H792 C789 0.929 . S
S793 N794 1.613 . S
S793 N795 1.610 1_556 S
N794 S793 1.613 . S
N794 C797 1.350 . S
N795 S793 1.610 1_554 S
N795 C796 1.351 . S
C796 C790 1.428 . S
C796 N795 1.351 . S
C796 C797 1.434 1_554 S
C797 C788 1.429 . S
C797 N794 1.350 . S
C797 C796 1.434 1_556 S
C798 C799 1.369 . S
C798 C800 1.419 . S
C798 H802 0.930 . S
C799 C798 1.369 . S
C799 C808 1.429 . S
C800 C798 1.419 . S
C800 C801 1.363 . S
C800 H803 0.929 . S
C801 C800 1.363 . S
C801 C807 1.428 . S
H802 C798 0.930 . S
H803 C800 0.929 . S
S804 N805 1.613 . S
S804 N806 1.610 . S
N805 S804 1.613 . S
N805 C808 1.350 . S
N806 S804 1.610 . S
N806 C807 1.351 . S
C807 C801 1.428 . S
C807 N806 1.351 . S
C807 C808 1.434 . S
C808 C799 1.429 . S
C808 N805 1.350 . S
C808 C807 1.434 . S
C809 C810 1.369 . S
C809 C811 1.419 . S
C809 H813 0.930 . S
C810 C809 1.369 . S
C810 C819 1.429 1_455 S
C811 C809 1.419 . S
C811 C812 1.363 1_455 S
C811 H814 0.929 . S
C812 C811 1.363 1_655 S
C812 C818 1.428 . S
H813 C809 0.930 . S
H814 C811 0.929 . S
S815 N816 1.613 . S
S815 N817 1.610 . S
N816 S815 1.613 . S
N816 C819 1.350 . S
N817 S815 1.610 . S
N817 C818 1.351 . S
C818 C812 1.428 . S
C818 N817 1.351 . S
C818 C819 1.434 . S
C819 C810 1.429 1_655 S
C819 N816 1.350 . S
C819 C818 1.434 . S
C820 C821 1.369 . S
C820 C822 1.419 . S
C820 H824 0.930 . S
C821 C820 1.369 . S
C821 C830 1.429 . S
C822 C820 1.419 . S
C822 C823 1.363 . S
C822 H825 0.929 . S
C823 C822 1.363 . S
C823 C829 1.428 . S
H824 C820 0.930 . S
H825 C822 0.929 . S
S826 N827 1.613 . S
S826 N828 1.610 . S
N827 S826 1.613 . S
N827 C830 1.350 . S
N828 S826 1.610 . S
N828 C829 1.351 . S
C829 C823 1.428 . S
C829 N828 1.351 . S
C829 C830 1.434 . S
C830 C821 1.429 . S
C830 N827 1.350 . S
C830 C829 1.434 . S
C831 C832 1.369 . S
C831 C833 1.419 . S
C831 H835 0.930 . S
C832 C831 1.369 . S
C832 C841 1.429 . S
C833 C831 1.419 . S
C833 C834 1.363 . S
C833 H836 0.929 . S
C834 C833 1.363 . S
C834 C840 1.428 . S
H835 C831 0.930 . S
H836 C833 0.929 . S
S837 N838 1.613 . S
S837 N839 1.610 . S
N838 S837 1.613 . S
N838 C841 1.350 . S
N839 S837 1.610 . S
N839 C840 1.351 . S
C840 C834 1.428 . S
C840 N839 1.351 . S
C840 C841 1.434 . S
C841 C832 1.429 . S
C841 N838 1.350 . S
C841 C840 1.434 . S
C842 C843 1.376 . S
C842 C844 1.412 1_655 S
C842 H846 0.930 1_655 S
C843 C842 1.376 . S
C843 C852 1.429 1_565 S
C844 C842 1.412 1_455 S
C844 C845 1.363 1_565 S
C844 H847 0.929 . S
C845 C844 1.363 1_545 S
C845 C851 1.430 1_455 S
H846 C842 0.930 1_455 S
H847 C844 0.929 . S
S848 N849 1.613 . S
S848 N850 1.610 . S
N849 S848 1.613 . S
N849 C852 1.350 . S
N850 S848 1.610 . S
N850 C851 1.351 . S
C851 C845 1.430 1_655 S
C851 N850 1.351 . S
C851 C852 1.432 . S
C852 C843 1.429 1_545 S
C852 N849 1.350 . S
C852 C851 1.432 . S
C853 C854 1.369 1_554 S
C853 C855 1.419 1_545 S
C853 H857 0.930 . S
C854 C853 1.369 1_556 S
C854 C863 1.429 . S
C855 C853 1.419 1_565 S
C855 C856 1.363 . S
C855 H858 0.929 . S
C856 C855 1.363 . S
C856 C862 1.428 . S
H857 C853 0.930 . S
H858 C855 0.929 . S
S859 N860 1.613 . S
S859 N861 1.610 1_546 S
N860 S859 1.613 . S
N860 C863 1.350 . S
N861 S859 1.610 1_564 S
N861 C862 1.351 . S
C862 C856 1.428 . S
C862 N861 1.351 . S
C862 C863 1.434 1_564 S
C863 C854 1.429 . S
C863 N860 1.350 . S
C863 C862 1.434 1_546 S
C337 C19 1.505 1_556 S
C339 C205 1.459 . S
C348 C226 1.453 . S
C350 C40 1.509 . S
C359 C234 1.465 . S
C361 C61 1.512 . S
C370 C184 1.453 . S
C372 C82 1.510 . S
C381 C103 1.510 . S
C383 C289 1.455 . S
C392 C124 1.506 . S
C394 C310 1.454 . S
C403 C318 1.461 . S
C405 C145 1.507 . S
C414 C268 1.464 . S
C416 C167 1.509 . S
C425 C37 1.459 . S
C427 C187 1.513 . S
C436 C58 1.455 . S
C438 C208 1.511 . S
C447 C79 1.454 . S
C449 C229 1.506 1_556 S
C458 C251 1.514 . S
C460 C16 1.459 . S
C469 C121 1.453 . S
C471 C271 1.509 . S
C480 C142 1.457 . S
C482 C292 1.506 . S
C491 C150 1.462 . S
C493 C313 1.513 . S
C502 C100 1.453 . S
C504 C335 1.507 . S
C513 C4 1.518 . S
C515 C331 1.286 . S
C524 C25 1.506 . S
C526 C87 1.286 . S
C535 C276 1.280 . S
C537 C46 1.515 . S
C546 C129 1.279 . S
C548 C67 1.513 . S
C557 C88 1.508 . S
C559 C247 1.296 . S
C568 C3 1.293 . S
C570 C109 1.506 . S
C579 C130 1.508 . S
C581 C192 1.296 . S
C590 C154 1.507 . S
C592 C45 1.296 . S
C601 C172 1.514 . S
C603 C163 1.281 . S
C612 C255 1.299 . S
C614 C193 1.509 . S
C623 C214 1.511 . S
C625 C108 1.281 . S
C634 C297 1.285 . S
C636 C238 1.516 . S
C645 C256 1.513 . S
C647 C66 1.281 . S
C656 C171 1.291 . S
C658 C277 1.506 . S
C667 C298 1.518 . S
C669 C24 1.286 . S
C678 C322 1.512 . S
C680 C213 1.295 . S
C689 C7 1.368 . S
C691 C259 1.358 . S
C700 C112 1.368 . S
C702 C28 1.358 . S
C711 C49 1.371 . S
C713 C301 1.356 . S
C722 C151 1.366 . S
C724 C70 1.360 . S
C733 C91 1.357 . S
C735 C175 1.366 . S
C744 C217 1.355 . S
C746 C133 1.367 . S
C755 C196 1.355 . S
C757 C280 1.368 . S
C766 C319 1.366 . S
C768 C235 1.359 . S
C777 C272 0.724 . S
C779 C20 0.729 . S
C788 C125 0.735 . S
C790 C41 0.719 . S
C799 C62 0.714 . S
C801 C314 0.736 . S
C810 C166 0.712 . S
C812 C83 0.737 . S
C821 C104 0.733 . S
C823 C188 0.722 . S
C832 C146 0.712 . S
C834 C230 0.737 . S
C843 C293 0.739 . S
C845 C209 0.716 . S
C854 C334 0.716 . S
C856 C250 0.734 . S
