# Generated by pormake.
# Topology umh, (4)-cn, num edge types: 1
# Building blocks:
#     Node 0, Type 0, BuildingBlock: KOZSID_clean_sbu_0, # of connection points: 4
#     Node 1, Type 0, BuildingBlock: KOZSID_clean_sbu_0, # of connection points: 4
#     Node 2, Type 0, BuildingBlock: KOZSID_clean_sbu_0, # of connection points: 4
#     Node 3, Type 0, BuildingBlock: KOZSID_clean_sbu_0, # of connection points: 4
#     Node 4, Type 0, BuildingBlock: KOZSID_clean_sbu_0, # of connection points: 4
#     Node 5, Type 0, BuildingBlock: KOZSID_clean_sbu_0, # of connection points: 4
#     Node 6, Type 0, BuildingBlock: KOZSID_clean_sbu_0, # of connection points: 4
#     Node 7, Type 0, BuildingBlock: KOZSID_clean_sbu_0, # of connection points: 4
#     Node 8, Type 0, BuildingBlock: KOZSID_clean_sbu_0, # of connection points: 4
#     Node 9, Type 0, BuildingBlock: KOZSID_clean_sbu_0, # of connection points: 4
#     Node 10, Type 0, BuildingBlock: KOZSID_clean_sbu_0, # of connection points: 4
#     Node 11, Type 0, BuildingBlock: KOZSID_clean_sbu_0, # of connection points: 4
#     Node 12, Type 0, BuildingBlock: KOZSID_clean_sbu_0, # of connection points: 4
#     Node 13, Type 0, BuildingBlock: KOZSID_clean_sbu_0, # of connection points: 4
#     Node 14, Type 0, BuildingBlock: KOZSID_clean_sbu_0, # of connection points: 4
#     Node 15, Type 0, BuildingBlock: KOZSID_clean_sbu_0, # of connection points: 4
#     Edge 16, Type (0, 0), BuildingBlock: TEMPAE_clean_linker_10, # of connection points: 2
#     Edge 17, Type (0, 0), BuildingBlock: TEMPAE_clean_linker_10, # of connection points: 2
#     Edge 18, Type (0, 0), BuildingBlock: TEMPAE_clean_linker_10, # of connection points: 2
#     Edge 19, Type (0, 0), BuildingBlock: TEMPAE_clean_linker_10, # of connection points: 2
#     Edge 20, Type (0, 0), BuildingBlock: TEMPAE_clean_linker_10, # of connection points: 2
#     Edge 21, Type (0, 0), BuildingBlock: TEMPAE_clean_linker_10, # of connection points: 2
#     Edge 22, Type (0, 0), BuildingBlock: TEMPAE_clean_linker_10, # of connection points: 2
#     Edge 23, Type (0, 0), BuildingBlock: TEMPAE_clean_linker_10, # of connection points: 2
#     Edge 24, Type (0, 0), BuildingBlock: TEMPAE_clean_linker_10, # of connection points: 2
#     Edge 25, Type (0, 0), BuildingBlock: TEMPAE_clean_linker_10, # of connection points: 2
#     Edge 26, Type (0, 0), BuildingBlock: TEMPAE_clean_linker_10, # of connection points: 2
#     Edge 27, Type (0, 0), BuildingBlock: TEMPAE_clean_linker_10, # of connection points: 2
#     Edge 28, Type (0, 0), BuildingBlock: TEMPAE_clean_linker_10, # of connection points: 2
#     Edge 29, Type (0, 0), BuildingBlock: TEMPAE_clean_linker_10, # of connection points: 2
#     Edge 30, Type (0, 0), BuildingBlock: TEMPAE_clean_linker_10, # of connection points: 2
#     Edge 31, Type (0, 0), BuildingBlock: TEMPAE_clean_linker_10, # of connection points: 2
#     Edge 32, Type (0, 0), BuildingBlock: TEMPAE_clean_linker_10, # of connection points: 2
#     Edge 33, Type (0, 0), BuildingBlock: TEMPAE_clean_linker_10, # of connection points: 2
#     Edge 34, Type (0, 0), BuildingBlock: TEMPAE_clean_linker_10, # of connection points: 2
#     Edge 35, Type (0, 0), BuildingBlock: TEMPAE_clean_linker_10, # of connection points: 2
#     Edge 36, Type (0, 0), BuildingBlock: TEMPAE_clean_linker_10, # of connection points: 2
#     Edge 37, Type (0, 0), BuildingBlock: TEMPAE_clean_linker_10, # of connection points: 2
#     Edge 38, Type (0, 0), BuildingBlock: TEMPAE_clean_linker_10, # of connection points: 2
#     Edge 39, Type (0, 0), BuildingBlock: TEMPAE_clean_linker_10, # of connection points: 2
#     Edge 40, Type (0, 0), BuildingBlock: TEMPAE_clean_linker_10, # of connection points: 2
#     Edge 41, Type (0, 0), BuildingBlock: TEMPAE_clean_linker_10, # of connection points: 2
#     Edge 42, Type (0, 0), BuildingBlock: TEMPAE_clean_linker_10, # of connection points: 2
#     Edge 43, Type (0, 0), BuildingBlock: TEMPAE_clean_linker_10, # of connection points: 2
#     Edge 44, Type (0, 0), BuildingBlock: TEMPAE_clean_linker_10, # of connection points: 2
#     Edge 45, Type (0, 0), BuildingBlock: TEMPAE_clean_linker_10, # of connection points: 2
#     Edge 46, Type (0, 0), BuildingBlock: TEMPAE_clean_linker_10, # of connection points: 2
#     Edge 47, Type (0, 0), BuildingBlock: TEMPAE_clean_linker_10, # of connection points: 2
# Relax obj value: 0.072
# Max RMSD: 0.155
# Mean RMSD: 0.155
data_MOF--net-umh--node1-KOZSID_clean_sbu_0--edge1-TEMPAE_clean_linker_10
_symmetry_space_group_name_H-M    P1
_symmetry_Int_Tables_number       1
_symmetry_cell_setting            triclinic
loop_
_symmetry_equiv_pos_as_xyz
'x, y, z'
_cell_length_a     54.864338
_cell_length_b     54.884145
_cell_length_c     60.042666
_cell_angle_alpha  89.995533
_cell_angle_beta   90.004189
_cell_angle_gamma 90.065913
loop_
_atom_site_label
_atom_site_type_symbol
_atom_site_fract_x
_atom_site_fract_y
_atom_site_fract_z
_atom_type_partial_charge
C0 C 0.30871 0.08718 0.17341 0.0
C1 C 0.28896 0.07186 0.17698 0.0
C2 C 0.28609 0.05847 0.15786 0.0
C3 C 0.30422 0.06632 0.14379 0.0
N4 N 0.31831 0.08371 0.15293 0.0
Co5 Co 0.34623 0.10033 0.13859 0.0
N6 N 0.3345 0.09137 0.10846 0.0
C7 C 0.31771 0.07417 0.10378 0.0
C8 C 0.31204 0.07303 0.08157 0.0
C9 C 0.3264 0.09029 0.07162 0.0
C10 C 0.34052 0.10076 0.08834 0.0
N11 N 0.37441 0.11665 0.12428 0.0
C12 C 0.37799 0.123 0.10268 0.0
C13 C 0.4011 0.13289 0.09981 0.0
C14 C 0.41223 0.13257 0.12031 0.0
C15 C 0.39547 0.12244 0.13455 0.0
N16 N 0.35743 0.10929 0.16887 0.0
C17 C 0.38012 0.11605 0.17455 0.0
C18 C 0.38195 0.12201 0.19676 0.0
C19 C 0.35893 0.11875 0.20543 0.0
C20 C 0.34434 0.11096 0.18798 0.0
N21 N 0.36557 0.06991 0.13999 0.0
C22 C 0.39896 0.03078 0.14323 0.0
C23 C 0.38367 0.03698 0.16116 0.0
C24 C 0.3672 0.05657 0.15923 0.0
C25 C 0.39616 0.04393 0.12337 0.0
C26 C 0.37939 0.0631 0.12204 0.0
N27 N 0.32769 0.13102 0.13719 0.0
C28 C 0.32725 0.17483 0.14089 0.0
C29 C 0.30268 0.17576 0.13476 0.0
C30 C 0.29071 0.15368 0.13015 0.0
C31 C 0.30361 0.13154 0.1312 0.0
C32 C 0.33925 0.15244 0.14226 0.0
H33 H 0.29416 0.11488 0.12712 0.0
H34 H 0.35803 0.15255 0.14743 0.0
H35 H 0.35631 0.06141 0.17354 0.0
H36 H 0.37826 0.07293 0.10655 0.0
C37 C 0.30498 0.06229 0.12082 0.0
C38 C 0.31847 0.10422 0.1899 0.0
C39 C 0.36105 0.11755 0.08427 0.0
C40 C 0.39739 0.1212 0.1579 0.0
H41 H 0.27763 0.07072 0.19171 0.0
H42 H 0.27159 0.0457 0.15419 0.0
H43 H 0.29844 0.06166 0.07364 0.0
H44 H 0.32654 0.09442 0.05401 0.0
H45 H 0.40925 0.13924 0.08446 0.0
H46 H 0.4302 0.13939 0.12438 0.0
H47 H 0.39776 0.12909 0.20538 0.0
H48 H 0.35349 0.12191 0.2225 0.0
H49 H 0.38502 0.02735 0.17685 0.0
H50 H 0.40706 0.03957 0.10887 0.0
H51 H 0.33713 0.19137 0.14488 0.0
H52 H 0.27169 0.15358 0.12533 0.0
C53 C 0.4293 0.3068 0.67235 0.0
C54 C 0.44477 0.28718 0.67587 0.0
C55 C 0.45794 0.2843 0.65662 0.0
C56 C 0.44984 0.30229 0.64254 0.0
N57 N 0.4325 0.3163 0.65179 0.0
Co58 Co 0.41546 0.34394 0.63745 0.0
N59 N 0.42406 0.33206 0.60729 0.0
C60 C 0.44124 0.31531 0.60252 0.0
C61 C 0.44213 0.3095 0.58034 0.0
C62 C 0.42471 0.32372 0.57049 0.0
C63 C 0.41443 0.33791 0.58722 0.0
N64 N 0.39874 0.37187 0.62316 0.0
C65 C 0.39222 0.37535 0.60159 0.0
C66 C 0.38218 0.39837 0.59873 0.0
C67 C 0.38259 0.40955 0.61919 0.0
C68 C 0.39292 0.39291 0.63341 0.0
N69 N 0.4068 0.35524 0.66776 0.0
C70 C 0.39992 0.37789 0.67341 0.0
C71 C 0.39417 0.37977 0.69566 0.0
C72 C 0.39768 0.35683 0.70439 0.0
C73 C 0.4054 0.34224 0.68694 0.0
N74 N 0.4458 0.36358 0.63834 0.0
C75 C 0.48563 0.39659 0.64049 0.0
C76 C 0.4792 0.38188 0.65882 0.0
C77 C 0.45938 0.36556 0.65741 0.0
C78 C 0.47194 0.3936 0.62091 0.0
C79 C 0.45245 0.37708 0.62014 0.0
N80 N 0.38486 0.32504 0.63654 0.0
C81 C 0.34108 0.32402 0.64076 0.0
C82 C 0.34041 0.29928 0.63522 0.0
C83 C 0.36257 0.28756 0.63056 0.0
C84 C 0.38455 0.30083 0.63102 0.0
C85 C 0.36335 0.3364 0.64161 0.0
H86 H 0.40127 0.29153 0.62691 0.0
H87 H 0.36308 0.35529 0.64643 0.0
H88 H 0.4547 0.3549 0.67191 0.0
H89 H 0.44228 0.37588 0.60484 0.0
C90 C 0.45347 0.30285 0.61951 0.0
C91 C 0.41231 0.31644 0.68891 0.0
C92 C 0.39768 0.35844 0.58317 0.0
C93 C 0.39442 0.39498 0.65673 0.0
H94 H 0.4461 0.27593 0.69063 0.0
H95 H 0.47072 0.26985 0.65289 0.0
H96 H 0.45345 0.29592 0.57237 0.0
H97 H 0.4204 0.32377 0.55291 0.0
H98 H 0.3757 0.40645 0.5834 0.0
H99 H 0.37573 0.42749 0.62325 0.0
H100 H 0.38703 0.39554 0.70427 0.0
H101 H 0.39473 0.35144 0.72152 0.0
H102 H 0.48932 0.38295 0.67427 0.0
H103 H 0.47563 0.40454 0.60629 0.0
H104 H 0.32444 0.33371 0.64471 0.0
H105 H 0.36284 0.26842 0.62618 0.0
C106 C 0.2048 0.42824 0.17409 0.0
C107 C 0.22474 0.44356 0.17675 0.0
C108 C 0.22814 0.45499 0.15681 0.0
C109 C 0.21017 0.44604 0.1432 0.0
N110 N 0.19519 0.42997 0.15336 0.0
Co111 Co 0.16739 0.41177 0.13951 0.0
N112 N 0.17673 0.42302 0.10896 0.0
C113 C 0.19474 0.43885 0.10373 0.0
C114 C 0.19638 0.44385 0.08145 0.0
C115 C 0.17874 0.42991 0.07177 0.0
C116 C 0.16753 0.41684 0.08878 0.0
N117 N 0.13927 0.394 0.12559 0.0
C118 C 0.1344 0.38925 0.10378 0.0
C119 C 0.11413 0.37423 0.10168 0.0
C120 C 0.10569 0.36986 0.12271 0.0
C121 C 0.12135 0.38202 0.13659 0.0
N122 N 0.15904 0.3996 0.17008 0.0
C123 C 0.13966 0.38572 0.17577 0.0
C124 C 0.14012 0.37809 0.19754 0.0
C125 C 0.1614 0.38713 0.20609 0.0
C126 C 0.17267 0.39984 0.189 0.0
N127 N 0.14556 0.44124 0.14341 0.0
C128 C 0.11189 0.481 0.14518 0.0
C129 C 0.10686 0.45868 0.15543 0.0
C130 C 0.12372 0.43948 0.15452 0.0
C131 C 0.13466 0.48334 0.13482 0.0
C132 C 0.15099 0.46354 0.13417 0.0
N133 N 0.18839 0.38246 0.13567 0.0
C134 C 0.19254 0.33853 0.13671 0.0
C135 C 0.21737 0.34002 0.13205 0.0
C136 C 0.2276 0.36324 0.12913 0.0
C137 C 0.21275 0.38415 0.13066 0.0
C138 C 0.17863 0.35968 0.1387 0.0
H139 H 0.22118 0.40157 0.12787 0.0
H140 H 0.15996 0.3571 0.14294 0.0
H141 H 0.11834 0.42337 0.16291 0.0
H142 H 0.16774 0.46683 0.12583 0.0
C143 C 0.20947 0.4491 0.12018 0.0
C144 C 0.19669 0.41117 0.19115 0.0
C145 C 0.14896 0.39809 0.08482 0.0
C146 C 0.12262 0.37847 0.15969 0.0
H147 H 0.23624 0.44552 0.19129 0.0
H148 H 0.24289 0.46717 0.15236 0.0
H149 H 0.20894 0.45612 0.07321 0.0
H150 H 0.1748 0.42932 0.05413 0.0
H151 H 0.1066 0.36633 0.08671 0.0
H152 H 0.0909 0.35784 0.12738 0.0
H153 H 0.12708 0.36645 0.20591 0.0
H154 H 0.16822 0.38419 0.22279 0.0
H155 H 0.08988 0.45595 0.16429 0.0
H156 H 0.13971 0.50021 0.12668 0.0
H157 H 0.1839 0.32099 0.13931 0.0
H158 H 0.24681 0.36521 0.1254 0.0
C159 C 0.08647 0.20803 0.67325 0.0
C160 C 0.07126 0.22778 0.67711 0.0
C161 C 0.0579 0.23103 0.65803 0.0
C162 C 0.06565 0.21314 0.64369 0.0
N163 N 0.08296 0.19884 0.65262 0.0
Co164 Co 0.09946 0.17116 0.63783 0.0
N165 N 0.09048 0.18343 0.60787 0.0
C166 C 0.07341 0.20039 0.60346 0.0
C167 C 0.07222 0.20641 0.58134 0.0
C168 C 0.08934 0.19211 0.57114 0.0
C169 C 0.09976 0.17768 0.58763 0.0
N170 N 0.11553 0.14316 0.62308 0.0
C171 C 0.12168 0.13984 0.6014 0.0
C172 C 0.13134 0.11672 0.59819 0.0
C173 C 0.13111 0.10531 0.61855 0.0
C174 C 0.12124 0.12193 0.63306 0.0
N175 N 0.10857 0.15947 0.66792 0.0
C176 C 0.11529 0.13669 0.67327 0.0
C177 C 0.12128 0.13447 0.69544 0.0
C178 C 0.11809 0.15732 0.70444 0.0
C179 C 0.11031 0.17221 0.68722 0.0
N180 N 0.0689 0.15188 0.63907 0.0
C181 C 0.02873 0.11946 0.6416 0.0
C182 C 0.03621 0.13319 0.66019 0.0
C183 C 0.05609 0.14939 0.65853 0.0
C184 C 0.04147 0.12306 0.6216 0.0
C185 C 0.06132 0.13915 0.6207 0.0
N186 N 0.13024 0.18971 0.63661 0.0
C187 C 0.17409 0.19028 0.64037 0.0
C188 C 0.17491 0.21511 0.63518 0.0
C189 C 0.1528 0.22708 0.63087 0.0
C190 C 0.13071 0.214 0.63138 0.0
C191 C 0.15171 0.17807 0.64128 0.0
H192 H 0.11403 0.22351 0.62757 0.0
H193 H 0.15187 0.15911 0.64585 0.0
H194 H 0.06144 0.15949 0.67316 0.0
H195 H 0.07098 0.14065 0.60515 0.0
C196 C 0.06162 0.21283 0.62072 0.0
C197 C 0.10351 0.19798 0.68959 0.0
C198 C 0.11635 0.15711 0.58323 0.0
C199 C 0.12021 0.11967 0.65638 0.0
H200 H 0.07021 0.23887 0.69198 0.0
H201 H 0.04521 0.24564 0.65457 0.0
H202 H 0.06091 0.22018 0.57362 0.0
H203 H 0.09339 0.19222 0.55352 0.0
H204 H 0.13751 0.10874 0.58271 0.0
H205 H 0.13782 0.08725 0.62236 0.0
H206 H 0.12829 0.11849 0.70384 0.0
H207 H 0.1212 0.16246 0.72161 0.0
H208 H 0.02681 0.13143 0.67596 0.0
H209 H 0.0367 0.11285 0.60679 0.0
H210 H 0.19067 0.18037 0.64407 0.0
H211 H 0.15262 0.24629 0.62674 0.0
C212 C 0.30846 0.42891 0.3324 0.0
C213 C 0.28874 0.44415 0.3285 0.0
C214 C 0.28562 0.45768 0.3475 0.0
C215 C 0.30358 0.45001 0.36182 0.0
N216 N 0.3178 0.43261 0.35294 0.0
Co217 Co 0.34561 0.41628 0.36764 0.0
N218 N 0.33348 0.42535 0.3976 0.0
C219 C 0.31656 0.44246 0.40202 0.0
C220 C 0.31062 0.44369 0.42416 0.0
C221 C 0.32493 0.42656 0.43434 0.0
C222 C 0.33929 0.41609 0.41783 0.0
N223 N 0.37373 0.40034 0.3823 0.0
C224 C 0.37711 0.3942 0.40397 0.0
C225 C 0.40028 0.38461 0.40713 0.0
C226 C 0.41164 0.38489 0.38675 0.0
C227 C 0.39495 0.39471 0.37227 0.0
N228 N 0.35716 0.40709 0.33753 0.0
C229 C 0.37993 0.40041 0.33209 0.0
C230 C 0.38196 0.39413 0.30997 0.0
C231 C 0.359 0.39708 0.30111 0.0
C232 C 0.34423 0.40505 0.31835 0.0
N233 N 0.36479 0.44684 0.36618 0.0
C234 C 0.39739 0.48677 0.36314 0.0
C235 C 0.38334 0.47933 0.34475 0.0
C236 C 0.36707 0.45956 0.34666 0.0
C237 C 0.39397 0.47417 0.38325 0.0
C238 C 0.37775 0.45445 0.38441 0.0
N239 N 0.32717 0.38546 0.36901 0.0
C240 C 0.32667 0.34175 0.36456 0.0
C241 C 0.3017 0.3406 0.36959 0.0
C242 C 0.28989 0.36272 0.37462 0.0
C243 C 0.30295 0.38483 0.37441 0.0
C244 C 0.33883 0.36412 0.3641 0.0
H245 H 0.2934 0.40145 0.3784 0.0
H246 H 0.35783 0.36405 0.35964 0.0
H247 H 0.35677 0.45418 0.33214 0.0
H248 H 0.37637 0.44487 0.40001 0.0
C249 C 0.30403 0.45419 0.38477 0.0
C250 C 0.31836 0.41165 0.31619 0.0
C251 C 0.35983 0.39944 0.42216 0.0
C252 C 0.39708 0.39565 0.34892 0.0
H253 H 0.2776 0.4451 0.31365 0.0
H254 H 0.27106 0.47043 0.35093 0.0
H255 H 0.29688 0.45501 0.4319 0.0
H256 H 0.32485 0.42253 0.45197 0.0
H257 H 0.40831 0.37845 0.4226 0.0
H258 H 0.42971 0.3782 0.38289 0.0
H259 H 0.39787 0.38701 0.30155 0.0
H260 H 0.35371 0.39362 0.28404 0.0
H261 H 0.38494 0.48865 0.32892 0.0
H262 H 0.40441 0.47892 0.39792 0.0
H263 H 0.33706 0.32543 0.36112 0.0
H264 H 0.27061 0.36314 0.37839 0.0
C265 C 0.08684 0.30816 0.83427 0.0
C266 C 0.07057 0.28902 0.83144 0.0
C267 C 0.05677 0.28796 0.85051 0.0
C268 C 0.06536 0.30645 0.86381 0.0
N269 N 0.08364 0.31898 0.85427 0.0
Co270 Co 0.10143 0.34676 0.86752 0.0
N271 N 0.0919 0.33686 0.89796 0.0
C272 C 0.07255 0.32276 0.90305 0.0
C273 C 0.06861 0.32088 0.92552 0.0
C274 C 0.08645 0.3348 0.93516 0.0
C275 C 0.10061 0.34426 0.91795 0.0
N276 N 0.11914 0.37469 0.88086 0.0
C277 C 0.12715 0.37792 0.90207 0.0
C278 C 0.14082 0.3992 0.90356 0.0
C279 C 0.14019 0.41003 0.88294 0.0
C280 C 0.12667 0.39466 0.86977 0.0
N281 N 0.11061 0.35629 0.83684 0.0
C282 C 0.11832 0.37841 0.83035 0.0
C283 C 0.12418 0.37904 0.80807 0.0
C284 C 0.11986 0.35585 0.80023 0.0
C285 C 0.11158 0.34235 0.81821 0.0
N286 N 0.07185 0.36724 0.86555 0.0
C287 C 0.03267 0.40045 0.8619 0.0
C288 C 0.03822 0.38418 0.84453 0.0
C289 C 0.05788 0.36783 0.84664 0.0
C290 C 0.04672 0.39899 0.88136 0.0
C291 C 0.06597 0.38236 0.88287 0.0
N292 N 0.13133 0.32703 0.8694 0.0
C293 C 0.17481 0.32452 0.864 0.0
C294 C 0.17511 0.29992 0.8703 0.0
C295 C 0.15271 0.28933 0.87659 0.0
C296 C 0.1311 0.30323 0.87619 0.0
C297 C 0.15298 0.33745 0.86333 0.0
H298 H 0.11419 0.29471 0.88112 0.0
H299 H 0.15377 0.35603 0.85775 0.0
H300 H 0.06213 0.35604 0.83278 0.0
H301 H 0.07644 0.38221 0.89804 0.0
C302 C 0.06034 0.30952 0.88648 0.0
C303 C 0.10405 0.31662 0.8173 0.0
C304 C 0.12045 0.3621 0.92113 0.0
C305 C 0.125 0.39581 0.8464 0.0
H306 H 0.06888 0.27712 0.81715 0.0
H307 H 0.04297 0.27457 0.85457 0.0
H308 H 0.05461 0.31045 0.93392 0.0
H309 H 0.08825 0.3381 0.95284 0.0
H310 H 0.15049 0.40622 0.91786 0.0
H311 H 0.14961 0.42646 0.87789 0.0
H312 H 0.13206 0.39409 0.7989 0.0
H313 H 0.12278 0.34955 0.78337 0.0
H314 H 0.02795 0.38456 0.82914 0.0
H315 H 0.04294 0.41072 0.89544 0.0
H316 H 0.1914 0.33408 0.85965 0.0
H317 H 0.15168 0.27038 0.88147 0.0
C318 C 0.20929 0.08621 0.33374 0.0
C319 C 0.22924 0.07112 0.3304 0.0
C320 C 0.23216 0.058 0.34967 0.0
C321 C 0.21387 0.06577 0.36359 0.0
N322 N 0.19964 0.08285 0.35421 0.0
Co323 Co 0.17157 0.0994 0.36831 0.0
N324 N 0.18328 0.09098 0.39857 0.0
C325 C 0.2002 0.07403 0.40349 0.0
C326 C 0.20578 0.07321 0.42573 0.0
C327 C 0.19122 0.09043 0.43545 0.0
C328 C 0.17709 0.10055 0.41859 0.0
N329 N 0.14323 0.11566 0.38237 0.0
C330 C 0.13951 0.12224 0.40389 0.0
C331 C 0.11631 0.13192 0.40658 0.0
C332 C 0.10526 0.13122 0.38606 0.0
C333 C 0.12216 0.12109 0.37197 0.0
N334 N 0.16039 0.10786 0.33792 0.0
C335 C 0.13766 0.1143 0.33209 0.0
C336 C 0.13586 0.11995 0.30981 0.0
C337 C 0.15895 0.11684 0.30125 0.0
C338 C 0.17353 0.10945 0.31883 0.0
N339 N 0.15244 0.06877 0.36722 0.0
C340 C 0.11956 0.02906 0.36437 0.0
C341 C 0.13476 0.03533 0.34638 0.0
C342 C 0.15098 0.05519 0.34812 0.0
C343 C 0.12219 0.04251 0.3841 0.0
C344 C 0.13868 0.06199 0.38522 0.0
N345 N 0.18994 0.13028 0.36935 0.0
C346 C 0.19043 0.1739 0.36418 0.0
C347 C 0.21526 0.17523 0.36974 0.0
C348 C 0.227 0.15324 0.37533 0.0
C349 C 0.21402 0.13108 0.3752 0.0
C350 C 0.17834 0.15148 0.36382 0.0
H351 H 0.22352 0.11458 0.37966 0.0
H352 H 0.15945 0.1514 0.359 0.0
H353 H 0.16183 0.06001 0.33377 0.0
H354 H 0.13967 0.07203 0.4006 0.0
C355 C 0.21308 0.06206 0.3866 0.0
C356 C 0.19947 0.10299 0.31706 0.0
C357 C 0.15642 0.11718 0.42242 0.0
C358 C 0.12031 0.11951 0.34863 0.0
H359 H 0.24067 0.07 0.31574 0.0
H360 H 0.24679 0.04549 0.35353 0.0
H361 H 0.21944 0.06209 0.43382 0.0
H362 H 0.19096 0.09476 0.45302 0.0
H363 H 0.10804 0.13836 0.42183 0.0
H364 H 0.08724 0.13779 0.38186 0.0
H365 H 0.12003 0.12676 0.30106 0.0
H366 H 0.16444 0.11982 0.28416 0.0
H367 H 0.13355 0.02553 0.33077 0.0
H368 H 0.1114 0.03814 0.39867 0.0
H369 H 0.18009 0.19012 0.36027 0.0
H370 H 0.24619 0.15295 0.37951 0.0
C371 C 0.42958 0.20903 0.83373 0.0
C372 C 0.44444 0.22914 0.83018 0.0
C373 C 0.45745 0.23255 0.84944 0.0
C374 C 0.44985 0.21438 0.86358 0.0
N375 N 0.43298 0.19975 0.85435 0.0
Co376 Co 0.41681 0.1716 0.86876 0.0
N377 N 0.42501 0.18388 0.89888 0.0
C378 C 0.44167 0.20118 0.90362 0.0
C379 C 0.44235 0.2071 0.92579 0.0
C380 C 0.42535 0.19237 0.93566 0.0
C381 C 0.41551 0.1778 0.91896 0.0
N382 N 0.40096 0.14318 0.88313 0.0
C383 C 0.39444 0.13962 0.90469 0.0
C384 C 0.3851 0.11631 0.90763 0.0
C385 C 0.38594 0.10501 0.88723 0.0
C386 C 0.39583 0.1219 0.87296 0.0
N387 N 0.40857 0.15988 0.83847 0.0
C388 C 0.40242 0.13698 0.83291 0.0
C389 C 0.39684 0.13477 0.81065 0.0
C390 C 0.39968 0.15776 0.80181 0.0
C391 C 0.40686 0.17271 0.81922 0.0
N392 N 0.4477 0.15301 0.86795 0.0
C393 C 0.48801 0.12079 0.86566 0.0
C394 C 0.48144 0.13557 0.84743 0.0
C395 C 0.46135 0.15147 0.84891 0.0
C396 C 0.47427 0.12341 0.88526 0.0
C397 C 0.45458 0.1396 0.88611 0.0
N398 N 0.38567 0.1894 0.86958 0.0
C399 C 0.34197 0.18882 0.86504 0.0
C400 C 0.34022 0.21368 0.87031 0.0
C401 C 0.36209 0.22603 0.87535 0.0
C402 C 0.38449 0.21355 0.8751 0.0
C403 C 0.36463 0.17727 0.86444 0.0
H404 H 0.40087 0.22346 0.87924 0.0
H405 H 0.365 0.15834 0.85981 0.0
H406 H 0.45649 0.1621 0.83444 0.0
H407 H 0.44438 0.14053 0.90141 0.0
C408 C 0.4535 0.214 0.88661 0.0
C409 C 0.41301 0.1987 0.81712 0.0
C410 C 0.39931 0.15681 0.92304 0.0
C411 C 0.39744 0.11978 0.84965 0.0
H412 H 0.4455 0.24034 0.81537 0.0
H413 H 0.46978 0.24742 0.85315 0.0
H414 H 0.45324 0.22107 0.93373 0.0
H415 H 0.421 0.19226 0.95323 0.0
H416 H 0.37878 0.10812 0.92297 0.0
H417 H 0.37963 0.08684 0.88323 0.0
H418 H 0.39026 0.11871 0.80208 0.0
H419 H 0.39666 0.16295 0.78464 0.0
H420 H 0.49161 0.13484 0.832 0.0
H421 H 0.47804 0.1124 0.89981 0.0
H422 H 0.32592 0.178 0.86157 0.0
H423 H 0.3621 0.24528 0.87923 0.0
C424 C 0.67311 0.90192 0.81647 0.0
C425 C 0.66145 0.88977 0.79926 0.0
C426 C 0.63984 0.88139 0.80769 0.0
C427 C 0.63959 0.88878 0.82952 0.0
N428 N 0.65943 0.90192 0.83538 0.0
Co429 Co 0.66808 0.91341 0.86612 0.0
N430 N 0.63911 0.89672 0.87977 0.0
C431 C 0.62082 0.88555 0.86858 0.0
C432 C 0.60464 0.87383 0.88227 0.0
C433 C 0.61312 0.87765 0.90338 0.0
C434 C 0.63395 0.89192 0.90152 0.0
N435 N 0.67764 0.924 0.8968 0.0
C436 C 0.66801 0.91807 0.91688 0.0
C437 C 0.67956 0.93061 0.93404 0.0
C438 C 0.69784 0.94389 0.92457 0.0
C439 C 0.69621 0.93908 0.90225 0.0
N440 N 0.69673 0.93054 0.85257 0.0
C441 C 0.71231 0.94586 0.86294 0.0
C442 C 0.73066 0.95429 0.84948 0.0
C443 C 0.72685 0.9433 0.8294 0.0
C444 C 0.70635 0.9287 0.83185 0.0
N445 N 0.64752 0.94375 0.86233 0.0
C446 C 0.61523 0.98456 0.86113 0.0
C447 C 0.63823 0.98615 0.87115 0.0
C448 C 0.65389 0.9658 0.87155 0.0
C449 C 0.60929 0.96252 0.85083 0.0
C450 C 0.62553 0.94281 0.8514 0.0
N451 N 0.68779 0.88323 0.86983 0.0
C452 C 0.72617 0.86218 0.87564 0.0
C453 C 0.71511 0.83939 0.8719 0.0
C454 C 0.68999 0.83925 0.86799 0.0
C455 C 0.677 0.86098 0.8667 0.0
C456 C 0.71221 0.88375 0.87476 0.0
H457 H 0.65816 0.85923 0.86287 0.0
H458 H 0.7214 0.90072 0.87778 0.0
H459 H 0.67088 0.96846 0.87969 0.0
H460 H 0.61952 0.92698 0.84294 0.0
C461 C 0.62218 0.88207 0.84546 0.0
C462 C 0.6976 0.91229 0.8145 0.0
C463 C 0.64875 0.89998 0.92062 0.0
C464 C 0.71154 0.94877 0.88598 0.0
H465 H 0.6682 0.88672 0.78255 0.0
H466 H 0.62642 0.87032 0.79918 0.0
H467 H 0.58946 0.86239 0.87742 0.0
H468 H 0.60523 0.86982 0.91823 0.0
H469 H 0.67544 0.93007 0.95165 0.0
H470 H 0.7108 0.95559 0.93296 0.0
H471 H 0.74582 0.96588 0.85408 0.0
H472 H 0.73838 0.94508 0.81485 0.0
H473 H 0.64394 1.00285 0.87924 0.0
H474 H 0.59207 0.96041 0.84221 0.0
H475 H 0.74555 0.86352 0.8788 0.0
H476 H 0.68007 0.82236 0.86582 0.0
C477 C 0.61167 0.67287 0.31748 0.0
C478 C 0.61967 0.65925 0.29947 0.0
C479 C 0.62408 0.63613 0.3074 0.0
C480 C 0.61851 0.6369 0.32974 0.0
N481 N 0.61088 0.65904 0.3362 0.0
Co482 Co 0.60199 0.6687 0.36691 0.0
N483 N 0.61975 0.64083 0.38024 0.0
C484 C 0.62719 0.62083 0.36916 0.0
C485 C 0.64072 0.60549 0.38229 0.0
C486 C 0.64147 0.61635 0.40289 0.0
C487 C 0.62785 0.63763 0.40142 0.0
N488 N 0.59275 0.67874 0.3974 0.0
C489 C 0.60155 0.67139 0.41736 0.0
C490 C 0.5876 0.68099 0.43462 0.0
C491 C 0.56978 0.69495 0.42504 0.0
C492 C 0.57354 0.69295 0.40256 0.0
N493 N 0.58415 0.69644 0.35364 0.0
C494 C 0.56605 0.70908 0.3633 0.0
C495 C 0.55741 0.72755 0.35001 0.0
C496 C 0.57098 0.72634 0.33082 0.0
C497 C 0.58715 0.70714 0.33355 0.0
N498 N 0.5723 0.64818 0.36523 0.0
C499 C 0.53272 0.61515 0.36217 0.0
C500 C 0.54701 0.61672 0.38148 0.0
C501 C 0.56646 0.63322 0.3827 0.0
C502 C 0.53831 0.63121 0.34461 0.0
C503 C 0.55814 0.64748 0.34644 0.0
N504 N 0.63198 0.68847 0.36851 0.0
C505 C 0.65353 0.72615 0.37568 0.0
C506 C 0.67589 0.71559 0.36924 0.0
C507 C 0.67545 0.69102 0.36283 0.0
C508 C 0.65357 0.67808 0.36228 0.0
C509 C 0.63188 0.71225 0.37535 0.0
H510 H 0.65427 0.6595 0.35668 0.0
H511 H 0.61502 0.72076 0.3804 0.0
H512 H 0.57707 0.63343 0.39778 0.0
H513 H 0.56234 0.65913 0.33246 0.0
C514 C 0.62531 0.61958 0.3458 0.0
C515 C 0.60411 0.69855 0.31644 0.0
C516 C 0.62127 0.65345 0.42051 0.0
C517 C 0.56126 0.70615 0.38603 0.0
H518 H 0.62231 0.66546 0.28254 0.0
H519 H 0.6318 0.62102 0.29822 0.0
H520 H 0.65004 0.58902 0.37724 0.0
H521 H 0.65116 0.60933 0.41718 0.0
H522 H 0.5895 0.67777 0.4523 0.0
H523 H 0.55591 0.70548 0.43349 0.0
H524 H 0.54375 0.74101 0.35416 0.0
H525 H 0.56921 0.73822 0.31651 0.0
H526 H 0.54325 0.6052 0.39572 0.0
H527 H 0.52791 0.63077 0.3293 0.0
H528 H 0.65258 0.74507 0.38064 0.0
H529 H 0.69199 0.68149 0.35833 0.0
C530 C 0.84407 0.61114 0.81803 0.0
C531 C 0.8578 0.61935 0.80015 0.0
C532 C 0.88103 0.62325 0.8081 0.0
C533 C 0.88021 0.61727 0.83035 0.0
N534 N 0.85792 0.6099 0.83672 0.0
Co535 Co 0.84812 0.60082 0.86734 0.0
N536 N 0.87628 0.61796 0.88083 0.0
C537 C 0.89651 0.62504 0.86989 0.0
C538 C 0.9119 0.63845 0.88312 0.0
C539 C 0.90076 0.63955 0.9036 0.0
C540 C 0.87926 0.62626 0.90197 0.0
N541 N 0.83789 0.59149 0.89771 0.0
C542 C 0.84498 0.60049 0.91765 0.0
C543 C 0.83517 0.58669 0.93492 0.0
C544 C 0.82131 0.56875 0.92532 0.0
C545 C 0.82358 0.57232 0.90281 0.0
N546 N 0.82011 0.5835 0.85402 0.0
C547 C 0.80736 0.56533 0.8635 0.0
C548 C 0.7889 0.55688 0.85009 0.0
C549 C 0.79023 0.57064 0.83102 0.0
C550 C 0.80948 0.58677 0.83395 0.0
N551 N 0.86807 0.5709 0.86539 0.0
C552 C 0.90011 0.53072 0.86203 0.0
C553 C 0.8983 0.54432 0.88174 0.0
C554 C 0.88239 0.56421 0.88304 0.0
C555 C 0.88505 0.53751 0.84412 0.0
C556 C 0.86907 0.55745 0.84619 0.0
N557 N 0.82895 0.63104 0.86922 0.0
C558 C 0.79187 0.65322 0.877 0.0
C559 C 0.80298 0.67543 0.87089 0.0
C560 C 0.82746 0.67461 0.86428 0.0
C561 C 0.83983 0.65249 0.86324 0.0
C562 C 0.80522 0.63129 0.8762 0.0
H563 H 0.85838 0.6529 0.85754 0.0
H564 H 0.79635 0.61453 0.88104 0.0
H565 H 0.88218 0.57452 0.8983 0.0
H566 H 0.85783 0.56226 0.83211 0.0
C567 C 0.89771 0.62346 0.8465 0.0
C568 C 0.81824 0.60385 0.81698 0.0
C569 C 0.86268 0.62044 0.92074 0.0
C570 C 0.81028 0.56022 0.8862 0.0
H571 H 0.85164 0.62249 0.78328 0.0
H572 H 0.89625 0.63093 0.79902 0.0
H573 H 0.9285 0.64765 0.87816 0.0
H574 H 0.90766 0.64943 0.91783 0.0
H575 H 0.83812 0.5889 0.95262 0.0
H576 H 0.81057 0.55502 0.93377 0.0
H577 H 0.77538 0.54317 0.85407 0.0
H578 H 0.77845 0.569 0.81663 0.0
H579 H 0.90968 0.54012 0.89596 0.0
H580 H 0.88555 0.52747 0.82861 0.0
H581 H 0.77296 0.65262 0.88207 0.0
H582 H 0.83737 0.69102 0.86002 0.0
C583 C 0.90687 0.84422 0.31745 0.0
C584 C 0.89941 0.85929 0.30024 0.0
C585 C 0.89663 0.88218 0.30927 0.0
C586 C 0.90253 0.87981 0.33145 0.0
N587 N 0.90881 0.85689 0.33678 0.0
Co588 Co 0.91764 0.845 0.36689 0.0
N589 N 0.90213 0.87332 0.38165 0.0
C590 C 0.89688 0.89467 0.37168 0.0
C591 C 0.88734 0.91147 0.38619 0.0
C592 C 0.88683 0.90004 0.40654 0.0
C593 C 0.89603 0.87674 0.40332 0.0
N594 N 0.92631 0.83251 0.39684 0.0
C595 C 0.91712 0.83842 0.41708 0.0
C596 C 0.92723 0.82377 0.43357 0.0
C597 C 0.94405 0.80913 0.42338 0.0
C598 C 0.94302 0.8152 0.40126 0.0
N599 N 0.93358 0.81699 0.35208 0.0
C600 C 0.95058 0.80233 0.36103 0.0
C601 C 0.95802 0.78431 0.34669 0.0
C602 C 0.94478 0.78786 0.32758 0.0
C603 C 0.92996 0.8079 0.33142 0.0
N604 N 0.94857 0.86367 0.3657 0.0
C605 C 0.98897 0.89576 0.36319 0.0
C606 C 0.97632 0.89213 0.38323 0.0
C607 C 0.95635 0.8762 0.38412 0.0
C608 C 0.98134 0.88219 0.34457 0.0
C609 C 0.96135 0.86613 0.34623 0.0
N610 N 0.88647 0.82712 0.36805 0.0
C611 C 0.863 0.79031 0.3737 0.0
C612 C 0.84104 0.80261 0.36899 0.0
C613 C 0.84269 0.82756 0.364 0.0
C614 C 0.86533 0.83923 0.36331 0.0
C615 C 0.88538 0.80289 0.37334 0.0
H616 H 0.86561 0.85823 0.35891 0.0
H617 H 0.90183 0.79298 0.37718 0.0
H618 H 0.94672 0.87472 0.39969 0.0
H619 H 0.95585 0.85615 0.33156 0.0
C620 C 0.89797 0.89691 0.34835 0.0
C621 C 0.9132 0.81832 0.31503 0.0
C622 C 0.90096 0.85933 0.42148 0.0
C623 C 0.95457 0.80254 0.38401 0.0
H624 H 0.89625 0.85424 0.28306 0.0
H625 H 0.88996 0.8983 0.30088 0.0
H626 H 0.88098 0.92966 0.38238 0.0
H627 H 0.88079 0.90812 0.42202 0.0
H628 H 0.92316 0.82374 0.45119 0.0
H629 H 0.95507 0.79512 0.4311 0.0
H630 H 0.97041 0.76945 0.35015 0.0
H631 H 0.94567 0.77678 0.31269 0.0
H632 H 0.98123 0.90222 0.39807 0.0
H633 H 0.99068 0.88399 0.32877 0.0
H634 H 0.86308 0.77101 0.37737 0.0
H635 H 0.82657 0.83834 0.36079 0.0
C636 C 0.67285 0.61412 0.68868 0.0
C637 C 0.66121 0.62626 0.70589 0.0
C638 C 0.64002 0.63535 0.69724 0.0
C639 C 0.63995 0.62829 0.67531 0.0
N640 N 0.65953 0.61476 0.66958 0.0
Co641 Co 0.66827 0.60314 0.63891 0.0
N642 N 0.6403 0.62112 0.62496 0.0
C643 C 0.62258 0.63341 0.63591 0.0
C644 C 0.60723 0.64591 0.62203 0.0
C645 C 0.61566 0.64146 0.60102 0.0
C646 C 0.63562 0.62607 0.60315 0.0
N647 N 0.6777 0.59206 0.60835 0.0
C648 C 0.6684 0.59814 0.58817 0.0
C649 C 0.67946 0.58494 0.57118 0.0
C650 C 0.69711 0.57105 0.58083 0.0
C651 C 0.6956 0.57615 0.6031 0.0
N652 N 0.69617 0.58505 0.65275 0.0
C653 C 0.7116 0.56954 0.64245 0.0
C654 C 0.72965 0.56075 0.65603 0.0
C655 C 0.72584 0.57169 0.67612 0.0
C656 C 0.70559 0.58659 0.67359 0.0
N657 N 0.64651 0.57351 0.64245 0.0
C658 C 0.6134 0.53315 0.64382 0.0
C659 C 0.63707 0.5307 0.63534 0.0
C660 C 0.6531 0.55081 0.63485 0.0
C661 C 0.60709 0.55599 0.65236 0.0
C662 C 0.62367 0.57548 0.65168 0.0
N663 N 0.68927 0.63259 0.63541 0.0
C664 C 0.72819 0.65207 0.62788 0.0
C665 C 0.71812 0.67519 0.63164 0.0
C666 C 0.69354 0.67649 0.6373 0.0
C667 C 0.67971 0.65526 0.63935 0.0
C668 C 0.7134 0.63108 0.62952 0.0
H669 H 0.66126 0.6577 0.64431 0.0
H670 H 0.72168 0.61378 0.62606 0.0
H671 H 0.67062 0.54742 0.628 0.0
H672 H 0.61729 0.59198 0.65869 0.0
C673 C 0.62341 0.63632 0.65911 0.0
C674 C 0.69695 0.60303 0.69093 0.0
C675 C 0.65 0.61699 0.58418 0.0
C676 C 0.71076 0.56637 0.61945 0.0
H677 H 0.66776 0.62885 0.72273 0.0
H678 H 0.62684 0.64675 0.70566 0.0
H679 H 0.59256 0.65805 0.62669 0.0
H680 H 0.60833 0.6495 0.58604 0.0
H681 H 0.67546 0.58549 0.55354 0.0
H682 H 0.70967 0.55882 0.57258 0.0
H683 H 0.7446 0.54888 0.65152 0.0
H684 H 0.73723 0.56967 0.69072 0.0
H685 H 0.64313 0.51346 0.62856 0.0
H686 H 0.58932 0.55891 0.65975 0.0
H687 H 0.74722 0.65024 0.62338 0.0
H688 H 0.68504 0.69395 0.64058 0.0
C689 C 0.90308 0.67365 0.18682 0.0
C690 C 0.89472 0.66045 0.20496 0.0
C691 C 0.88979 0.63731 0.19729 0.0
C692 C 0.8954 0.63766 0.17495 0.0
N693 N 0.90354 0.65955 0.16827 0.0
Co694 Co 0.91251 0.66867 0.13745 0.0
N695 N 0.89394 0.64114 0.12445 0.0
C696 C 0.88607 0.62141 0.1357 0.0
C697 C 0.87192 0.6064 0.12275 0.0
C698 C 0.87118 0.61723 0.10212 0.0
C699 C 0.8854 0.63815 0.10339 0.0
N700 N 0.92188 0.67816 0.10689 0.0
C701 C 0.91257 0.67101 0.08707 0.0
C702 C 0.92667 0.68 0.06962 0.0
C703 C 0.94512 0.69339 0.07897 0.0
C704 C 0.94155 0.69166 0.1015 0.0
N705 N 0.93109 0.69613 0.15035 0.0
C706 C 0.94957 0.70813 0.14057 0.0
C707 C 0.95872 0.72653 0.15366 0.0
C708 C 0.94508 0.72596 0.17285 0.0
C709 C 0.92834 0.70719 0.1703 0.0
N710 N 0.9417 0.64751 0.13916 0.0
C711 C 0.98144 0.61454 0.14172 0.0
C712 C 0.96646 0.61573 0.12279 0.0
C713 C 0.94702 0.63223 0.1218 0.0
C714 C 0.97603 0.63064 0.15933 0.0
C715 C 0.95618 0.64688 0.15774 0.0
N716 N 0.88302 0.68909 0.13571 0.0
C717 C 0.8623 0.72672 0.12676 0.0
C718 C 0.83974 0.71642 0.13266 0.0
C719 C 0.83944 0.69244 0.1404 0.0
C720 C 0.86113 0.67929 0.14206 0.0
C721 C 0.88373 0.71262 0.12816 0.0
H722 H 0.86004 0.66102 0.14844 0.0
H723 H 0.90082 0.72066 0.12308 0.0
H724 H 0.93599 0.6322 0.10696 0.0
H725 H 0.95238 0.65876 0.17164 0.0
C726 C 0.88806 0.62033 0.15906 0.0
C727 C 0.91114 0.69924 0.18748 0.0
C728 C 0.89202 0.65394 0.08427 0.0
C729 C 0.95429 0.70473 0.11786 0.0
H730 H 0.89211 0.66694 0.22181 0.0
H731 H 0.88165 0.62252 0.20662 0.0
H732 H 0.86214 0.59024 0.12797 0.0
H733 H 0.86104 0.61047 0.08798 0.0
H734 H 0.92436 0.67678 0.05198 0.0
H735 H 0.95923 0.70343 0.07032 0.0
H736 H 0.97279 0.73955 0.14939 0.0
H737 H 0.94719 0.73793 0.18705 0.0
H738 H 0.96924 0.60357 0.10884 0.0
H739 H 0.98706 0.63085 0.17427 0.0
H740 H 0.86328 0.74528 0.12071 0.0
H741 H 0.82247 0.6839 0.14536 0.0
C742 C 0.84393 0.90579 0.68619 0.0
C743 C 0.85848 0.89836 0.70379 0.0
C744 C 0.88155 0.89514 0.69525 0.0
C745 C 0.8798 0.90077 0.67297 0.0
N746 N 0.8571 0.9073 0.66711 0.0
Co747 Co 0.84604 0.91583 0.63668 0.0
N748 N 0.87442 0.89959 0.62267 0.0
C749 C 0.89543 0.89408 0.63311 0.0
C750 C 0.91236 0.88395 0.61905 0.0
C751 C 0.90139 0.88335 0.59849 0.0
C752 C 0.8782 0.89308 0.60114 0.0
N753 N 0.83444 0.92434 0.6064 0.0
C754 C 0.84069 0.91483 0.58639 0.0
C755 C 0.82664 0.92501 0.5695 0.0
C756 C 0.81205 0.94221 0.57922 0.0
C757 C 0.81754 0.94131 0.60147 0.0
N758 N 0.81792 0.93238 0.65074 0.0
C759 C 0.80374 0.94949 0.64134 0.0
C760 C 0.78545 0.95732 0.65523 0.0
C761 C 0.78831 0.94423 0.67451 0.0
C762 C 0.80823 0.92909 0.67122 0.0
N763 N 0.86519 0.94646 0.63788 0.0
C764 C 0.8981 0.98615 0.64079 0.0
C765 C 0.89552 0.97269 0.62107 0.0
C766 C 0.87901 0.95323 0.61991 0.0
C767 C 0.88285 0.9799 0.65876 0.0
C768 C 0.86662 0.96004 0.65699 0.0
N769 N 0.82768 0.88495 0.63548 0.0
C770 C 0.79083 0.86195 0.62855 0.0
C771 C 0.8029 0.84001 0.63333 0.0
C772 C 0.82746 0.84116 0.63948 0.0
C773 C 0.83934 0.86366 0.64073 0.0
C774 C 0.80362 0.88419 0.62945 0.0
H775 H 0.85811 0.86374 0.64594 0.0
H776 H 0.79409 0.90074 0.62522 0.0
H777 H 0.87804 0.94321 0.60452 0.0
H778 H 0.85574 0.95522 0.67132 0.0
C779 C 0.89719 0.89557 0.65646 0.0
C780 C 0.81803 0.91239 0.68798 0.0
C781 C 0.86138 0.89823 0.58257 0.0
C782 C 0.80462 0.95325 0.61834 0.0
H783 H 0.85297 0.89545 0.72089 0.0
H784 H 0.89736 0.88831 0.70402 0.0
H785 H 0.93034 0.87731 0.62329 0.0
H786 H 0.90969 0.87692 0.58325 0.0
H787 H 0.82698 0.92075 0.55192 0.0
H788 H 0.79843 0.95337 0.57111 0.0
H789 H 0.77087 0.96989 0.65134 0.0
H790 H 0.77688 0.94543 0.68916 0.0
H791 H 0.90636 0.97704 0.60653 0.0
H792 H 0.88403 0.98972 0.67436 0.0
H793 H 0.77182 0.86186 0.6237 0.0
H794 H 0.8374 0.82472 0.64358 0.0
C795 C 0.61272 0.84359 0.18749 0.0
C796 C 0.62145 0.85712 0.20528 0.0
C797 C 0.62588 0.88021 0.19726 0.0
C798 C 0.61964 0.8795 0.17507 0.0
N799 N 0.61159 0.85743 0.16879 0.0
Co800 Co 0.60176 0.84787 0.13826 0.0
N801 N 0.6193 0.87569 0.12455 0.0
C802 C 0.62725 0.89561 0.13548 0.0
C803 C 0.64066 0.91082 0.12209 0.0
C804 C 0.6408 0.89995 0.10149 0.0
C805 C 0.62694 0.87882 0.10321 0.0
N806 N 0.59166 0.83788 0.10797 0.0
C807 C 0.60007 0.84515 0.08782 0.0
C808 C 0.58561 0.83562 0.07086 0.0
C809 C 0.56789 0.8218 0.08081 0.0
C810 C 0.57221 0.82381 0.10321 0.0
N811 N 0.58405 0.82023 0.15188 0.0
C812 C 0.56554 0.80778 0.14263 0.0
C813 C 0.55697 0.78945 0.15613 0.0
C814 C 0.57102 0.79055 0.17504 0.0
C815 C 0.58741 0.80953 0.17192 0.0
N816 N 0.57223 0.86849 0.14061 0.0
C817 C 0.53203 0.9006 0.14401 0.0
C818 C 0.54551 0.89865 0.12426 0.0
C819 C 0.56543 0.88277 0.12295 0.0
C820 C 0.53908 0.88581 0.16203 0.0
C821 C 0.55901 0.86977 0.15993 0.0
N822 N 0.63155 0.82798 0.13592 0.0
C823 C 0.6525 0.79033 0.12751 0.0
C824 C 0.67508 0.80104 0.13267 0.0
C825 C 0.67529 0.8253 0.13968 0.0
C826 C 0.65348 0.83825 0.14146 0.0
C827 C 0.63095 0.80421 0.12898 0.0
H828 H 0.65452 0.8567 0.14738 0.0
H829 H 0.61383 0.7958 0.12451 0.0
H830 H 0.57559 0.88244 0.10762 0.0
H831 H 0.56392 0.85862 0.17405 0.0
C832 C 0.62611 0.89679 0.15887 0.0
C833 C 0.60486 0.81797 0.18871 0.0
C834 C 0.61983 0.86299 0.08427 0.0
C835 C 0.5602 0.81074 0.12001 0.0
H836 H 0.62457 0.8509 0.22214 0.0
H837 H 0.63405 0.89524 0.20625 0.0
H838 H 0.65036 0.92715 0.12697 0.0
H839 H 0.65033 0.90684 0.08705 0.0
H840 H 0.58711 0.83882 0.05314 0.0
H841 H 0.55372 0.81137 0.07265 0.0
H842 H 0.543 0.77616 0.1523 0.0
H843 H 0.5694 0.77877 0.18943 0.0
H844 H 0.54112 0.90984 0.10996 0.0
H845 H 0.52917 0.88648 0.17761 0.0
H846 H 0.65158 0.77155 0.12203 0.0
H847 H 0.69228 0.83419 0.14406 0.0
C848 C 0.36974 0.14769 0.95398 0.0
C849 C 0.39384 0.14948 0.94649 0.0
C850 C 0.36456 0.14196 0.97635 0.0
C851 C 0.38396 0.13865 0.99168 0.0
C852 C 0.40833 0.1401 0.98403 0.0
C853 C 0.41293 0.14479 0.96143 0.0
C854 C 0.33833 0.13952 0.9836 0.0
C855 C 0.42959 0.13732 0.9998 0.0
C856 C 0.36931 0.14735 0.05333 0.0
C857 C 0.36828 0.12322 0.06083 0.0
C858 C 0.37489 0.15269 0.03096 0.0
C859 C 0.37885 0.13339 0.01565 0.0
C860 C 0.37818 0.109 0.02333 0.0
C861 C 0.37362 0.10428 0.04592 0.0
C862 C 0.3765 0.17896 0.02368 0.0
C863 C 0.38166 0.08784 0.00757 0.0
H864 H 0.35499 0.15093 0.94234 0.0
H865 H 0.43158 0.14556 0.9555 0.0
H866 H 0.33546 0.12164 0.99185 0.0
H867 H 0.33391 0.15385 0.99598 0.0
H868 H 0.32544 0.1411 0.96941 0.0
H869 H 0.44741 0.14003 0.99136 0.0
H870 H 0.42803 0.15075 0.01356 0.0
H871 H 0.4294 0.11893 0.00744 0.0
H872 H 0.36558 0.16199 0.06495 0.0
H873 H 0.37344 0.08563 0.05187 0.0
H874 H 0.36203 0.1829 0.0113 0.0
H875 H 0.39428 0.1824 0.01545 0.0
H876 H 0.37449 0.1918 0.03787 0.0
H877 H 0.36819 0.08895 0.99382 0.0
H878 H 0.37953 0.06996 0.01603 0.0
H879 H 0.40004 0.08862 0.99994 0.0
C880 C 0.36795 0.36927 0.45281 0.0
C881 C 0.36663 0.39351 0.44565 0.0
C882 C 0.37344 0.36361 0.47513 0.0
C883 C 0.37701 0.38269 0.49075 0.0
C884 C 0.37599 0.4072 0.48344 0.0
C885 C 0.37154 0.41226 0.46089 0.0
C886 C 0.37544 0.33724 0.482 0.0
C887 C 0.37906 0.42813 0.49954 0.0
C888 C 0.36802 0.36716 0.5522 0.0
C889 C 0.39213 0.36579 0.55973 0.0
C890 C 0.36278 0.37312 0.52989 0.0
C891 C 0.38216 0.37708 0.51465 0.0
C892 C 0.40654 0.37598 0.52233 0.0
C893 C 0.41117 0.37107 0.54488 0.0
C894 C 0.33654 0.37518 0.52261 0.0
C895 C 0.42778 0.37943 0.50664 0.0
H896 H 0.36458 0.35477 0.44093 0.0
H897 H 0.37121 0.43101 0.45522 0.0
H898 H 0.39329 0.33396 0.49017 0.0
H899 H 0.36105 0.33283 0.49434 0.0
H900 H 0.37361 0.32463 0.46763 0.0
H901 H 0.3765 0.44612 0.49137 0.0
H902 H 0.36569 0.42642 0.51332 0.0
H903 H 0.39749 0.42765 0.50708 0.0
H904 H 0.3533 0.36348 0.56377 0.0
H905 H 0.42982 0.37064 0.55084 0.0
H906 H 0.33241 0.36104 0.50997 0.0
H907 H 0.33336 0.39317 0.51469 0.0
H908 H 0.32364 0.37301 0.53675 0.0
H909 H 0.42639 0.36632 0.49262 0.0
H910 H 0.44561 0.37678 0.51505 0.0
H911 H 0.42737 0.39799 0.49938 0.0
C912 C 0.12592 0.39039 0.95403 0.0
C913 C 0.1287 0.36723 0.9445 0.0
C914 C 0.13124 0.39459 0.9766 0.0
C915 C 0.13693 0.37465 0.99077 0.0
C916 C 0.13925 0.35106 0.98129 0.0
C917 C 0.13619 0.34793 0.9582 0.0
C918 C 0.13015 0.42051 0.98499 0.0
C919 C 0.14422 0.32869 0.9952 0.0
C920 C 0.16493 0.38121 0.04877 0.0
C921 C 0.14499 0.38919 0.06145 0.0
C922 C 0.16281 0.37696 0.02576 0.0
C923 C 0.1396 0.37848 0.01539 0.0
C924 C 0.119 0.38461 0.02861 0.0
C925 C 0.12218 0.39108 0.0511 0.0
C926 C 0.18579 0.37152 0.01286 0.0
C927 C 0.09342 0.38485 0.01932 0.0
H928 H 0.11904 0.4053 0.94402 0.0
H929 H 0.1381 0.32989 0.95103 0.0
H930 H 0.1109 0.42548 0.98828 0.0
H931 H 0.14094 0.42327 1.00042 0.0
H932 H 0.13704 0.43329 0.97208 0.0
H933 H 0.13403 0.31275 0.98856 0.0
H934 H 0.16389 0.32419 0.99415 0.0
H935 H 0.13919 0.3311 0.01295 0.0
H936 H 0.18265 0.37968 0.05665 0.0
H937 H 0.10675 0.39791 0.06046 0.0
H938 H 0.18423 0.37619 0.99495 0.0
H939 H 0.19004 0.35183 0.0144 0.0
H940 H 0.20152 0.38169 0.01992 0.0
H941 H 0.08811 0.40388 0.01548 0.0
H942 H 0.0803 0.37796 0.03194 0.0
H943 H 0.09153 0.37363 0.00405 0.0
C944 C 0.10316 0.14531 0.54462 0.0
C945 C 0.12206 0.15023 0.5597 0.0
C946 C 0.10802 0.14059 0.52206 0.0
C947 C 0.13247 0.13937 0.51461 0.0
C948 C 0.1517 0.14304 0.53007 0.0
C949 C 0.14624 0.14877 0.55238 0.0
C950 C 0.08694 0.13741 0.50614 0.0
C951 C 0.17801 0.14087 0.52304 0.0
C952 C 0.14375 0.10433 0.46088 0.0
C953 C 0.14903 0.12311 0.44577 0.0
C954 C 0.13889 0.10934 0.48337 0.0
C955 C 0.13788 0.13383 0.49074 0.0
C956 C 0.14181 0.15294 0.47522 0.0
C957 C 0.14767 0.14733 0.45296 0.0
C958 C 0.13543 0.08837 0.49936 0.0
C959 C 0.13986 0.17929 0.48215 0.0
H960 H 0.08445 0.14577 0.55041 0.0
H961 H 0.16086 0.15217 0.56414 0.0
H962 H 0.08862 0.15056 0.49218 0.0
H963 H 0.08726 0.11887 0.49883 0.0
H964 H 0.06903 0.14019 0.51439 0.0
H965 H 0.19076 0.14294 0.53729 0.0
H966 H 0.18118 0.12288 0.51512 0.0
H967 H 0.18235 0.15501 0.51044 0.0
H968 H 0.14417 0.08559 0.45517 0.0
H969 H 0.15135 0.16185 0.44118 0.0
H970 H 0.11694 0.08902 0.50677 0.0
H971 H 0.1487 0.08986 0.51325 0.0
H972 H 0.13786 0.07039 0.49115 0.0
H973 H 0.12194 0.18264 0.49014 0.0
H974 H 0.14194 0.19195 0.46783 0.0
H975 H 0.15412 0.18359 0.49464 0.0
C976 C 0.63482 0.8488 0.04691 0.0
C977 C 0.62768 0.86811 0.06076 0.0
C978 C 0.63776 0.85205 0.02382 0.0
C979 C 0.63574 0.87574 0.01446 0.0
C980 C 0.63031 0.89564 0.02877 0.0
C981 C 0.62504 0.89134 0.05134 0.0
C982 C 0.64233 0.82969 0.00977 0.0
C983 C 0.62953 0.92164 0.02056 0.0
C984 C 0.66409 0.88224 0.95658 0.0
C985 C 0.64443 0.8909 0.94391 0.0
C986 C 0.66179 0.8778 0.97955 0.0
C987 C 0.63858 0.87975 0.98986 0.0
C988 C 0.61819 0.88653 0.97662 0.0
C989 C 0.62164 0.89324 0.95422 0.0
C990 C 0.6846 0.87172 0.99247 0.0
C991 C 0.59258 0.88723 0.98579 0.0
H992 H 0.63661 0.8307 0.05397 0.0
H993 H 0.61839 0.90626 0.06145 0.0
H994 H 0.63752 0.83236 0.992 0.0
H995 H 0.66187 0.8247 0.01095 0.0
H996 H 0.6317 0.81396 0.01623 0.0
H997 H 0.63668 0.93421 0.03352 0.0
H998 H 0.64026 0.9244 0.0051 0.0
H999 H 0.61033 0.92691 0.01742 0.0
H1000 H 0.6818 0.88034 0.94874 0.0
H1001 H 0.60642 0.90061 0.9449 0.0
H1002 H 0.68844 0.85198 0.99073 0.0
H1003 H 0.68308 0.87621 0.01042 0.0
H1004 H 0.70056 0.88166 0.98556 0.0
H1005 H 0.59039 0.87612 1.0011 0.0
H1006 H 0.57944 0.88049 0.97312 0.0
H1007 H 0.58754 0.90637 0.9895 0.0
C1008 C 0.62317 0.62421 0.55051 0.0
C1009 C 0.64605 0.62585 0.56078 0.0
C1010 C 0.61996 0.63071 0.52804 0.0
C1011 C 0.64057 0.63664 0.51473 0.0
C1012 C 0.66384 0.63791 0.52501 0.0
C1013 C 0.66602 0.63362 0.54801 0.0
C1014 C 0.59434 0.63072 0.51884 0.0
C1015 C 0.68683 0.64313 0.51201 0.0
C1016 C 0.62652 0.62503 0.45335 0.0
C1017 C 0.62951 0.64819 0.44387 0.0
C1018 C 0.63186 0.62072 0.47591 0.0
C1019 C 0.63782 0.64057 0.49011 0.0
C1020 C 0.64035 0.66417 0.48067 0.0
C1021 C 0.63724 0.6674 0.4576 0.0
C1022 C 0.6305 0.59479 0.48425 0.0
C1023 C 0.64563 0.68645 0.49462 0.0
H1024 H 0.60769 0.61758 0.55995 0.0
H1025 H 0.6838 0.63497 0.55581 0.0
H1026 H 0.5925 0.642 0.50361 0.0
H1027 H 0.58881 0.61175 0.51497 0.0
H1028 H 0.58135 0.63768 0.53153 0.0
H1029 H 0.70246 0.63278 0.51899 0.0
H1030 H 0.68512 0.63851 0.4941 0.0
H1031 H 0.69133 0.66276 0.51356 0.0
H1032 H 0.6195 0.61021 0.44332 0.0
H1033 H 0.63931 0.68544 0.45047 0.0
H1034 H 0.61121 0.59 0.48762 0.0
H1035 H 0.64134 0.59189 0.49962 0.0
H1036 H 0.63717 0.58198 0.47129 0.0
H1037 H 0.64058 0.68404 0.51237 0.0
H1038 H 0.63565 0.70251 0.48802 0.0
H1039 H 0.66536 0.69073 0.49357 0.0
C1040 C 0.84647 0.63788 0.9564 0.0
C1041 C 0.86656 0.62992 0.94391 0.0
C1042 C 0.8483 0.64201 0.97947 0.0
C1043 C 0.87133 0.64016 0.99012 0.0
C1044 C 0.89209 0.63407 0.97711 0.0
C1045 C 0.88919 0.62777 0.95458 0.0
C1046 C 0.8252 0.64757 0.99215 0.0
C1047 C 0.9175 0.6335 0.98676 0.0
C1048 C 0.87561 0.66926 0.04787 0.0
C1049 C 0.88283 0.64946 0.06109 0.0
C1050 C 0.87207 0.66672 0.02478 0.0
C1051 C 0.87371 0.64331 0.01484 0.0
C1052 C 0.87892 0.62289 0.02858 0.0
C1053 C 0.88466 0.62642 0.05116 0.0
C1054 C 0.86739 0.68948 0.01131 0.0
C1055 C 0.87916 0.59716 0.01967 0.0
H1056 H 0.82884 0.63933 0.94834 0.0
H1057 H 0.90466 0.62052 0.94557 0.0
H1058 H 0.82646 0.64268 0.01004 0.0
H1059 H 0.82123 0.66732 0.99076 0.0
H1060 H 0.80946 0.63767 0.98481 0.0
H1061 H 0.93098 0.63993 0.97426 0.0
H1062 H 0.91931 0.64493 1.00191 0.0
H1063 H 0.92238 0.61445 0.99097 0.0
H1064 H 0.87437 0.68719 0.05538 0.0
H1065 H 0.89126 0.61111 0.0608 0.0
H1066 H 0.84768 0.69387 0.01204 0.0
H1067 H 0.87282 0.68752 0.99361 0.0
H1068 H 0.87737 0.70527 0.01848 0.0
H1069 H 0.86815 0.59509 0.00428 0.0
H1070 H 0.87202 0.58428 0.03238 0.0
H1071 H 0.89822 0.59168 0.01611 0.0
C1072 C 0.87125 0.86801 0.45239 0.0
C1073 C 0.89539 0.86628 0.44501 0.0
C1074 C 0.86592 0.87362 0.47475 0.0
C1075 C 0.88523 0.87692 0.4902 0.0
C1076 C 0.90965 0.87549 0.48267 0.0
C1077 C 0.91439 0.87088 0.46008 0.0
C1078 C 0.83966 0.87601 0.48187 0.0
C1079 C 0.9308 0.8783 0.49856 0.0
C1080 C 0.87433 0.91141 0.54429 0.0
C1081 C 0.86889 0.89251 0.55921 0.0
C1082 C 0.87917 0.90664 0.52175 0.0
C1083 C 0.87995 0.88223 0.51414 0.0
C1084 C 0.87587 0.86297 0.52947 0.0
C1085 C 0.87006 0.86836 0.55178 0.0
C1086 C 0.8828 0.92777 0.50597 0.0
C1087 C 0.87755 0.83668 0.52227 0.0
H1088 H 0.85656 0.86486 0.44065 0.0
H1089 H 0.93308 0.87019 0.45425 0.0
H1090 H 0.83519 0.86174 0.4943 0.0
H1091 H 0.83671 0.89393 0.49 0.0
H1092 H 0.82685 0.87429 0.46762 0.0
H1093 H 0.94867 0.87556 0.49023 0.0
H1094 H 0.93061 0.89672 0.50614 0.0
H1095 H 0.9291 0.86493 0.51235 0.0
H1096 H 0.87402 0.93009 0.55018 0.0
H1097 H 0.86624 0.85373 0.56341 0.0
H1098 H 0.8694 0.92663 0.49215 0.0
H1099 H 0.90122 0.92695 0.49843 0.0
H1100 H 0.88068 0.94567 0.51439 0.0
H1101 H 0.8632 0.83267 0.50978 0.0
H1102 H 0.87541 0.82388 0.53647 0.0
H1103 H 0.89541 0.83326 0.51418 0.0
C1104 C 0.22505 0.29869 0.11571 0.0
C1105 C 0.23199 0.31717 0.13057 0.0
C1106 C 0.23686 0.27592 0.11559 0.0
C1107 C 0.25574 0.27115 0.13111 0.0
C1108 C 0.26299 0.28989 0.14603 0.0
C1109 C 0.25121 0.31275 0.14541 0.0
C1110 C 0.22887 0.25683 0.09902 0.0
C1111 C 0.28267 0.28555 0.16312 0.0
C1112 C 0.26852 0.20425 0.14515 0.0
C1113 C 0.29 0.19977 0.13318 0.0
C1114 C 0.25739 0.22742 0.14488 0.0
C1115 C 0.26761 0.24648 0.13188 0.0
C1116 C 0.28903 0.24182 0.11939 0.0
C1117 C 0.3001 0.21869 0.12041 0.0
C1118 C 0.23489 0.23161 0.1588 0.0
C1119 C 0.30025 0.26127 0.10485 0.0
H1120 H 0.21014 0.30203 0.10426 0.0
H1121 H 0.25636 0.32685 0.15715 0.0
H1122 H 0.24478 0.25025 0.08934 0.0
H1123 H 0.22114 0.2409 0.10795 0.0
H1124 H 0.21493 0.26383 0.08723 0.0
H1125 H 0.28632 0.30196 0.17343 0.0
H1126 H 0.27721 0.27038 0.17428 0.0
H1127 H 0.29983 0.28004 0.15479 0.0
H1128 H 0.26081 0.18978 0.15524 0.0
H1129 H 0.31664 0.2153 0.11104 0.0
H1130 H 0.21941 0.2369 0.14796 0.0
H1131 H 0.23807 0.24688 0.17057 0.0
H1132 H 0.22958 0.21519 0.16848 0.0
H1133 H 0.28665 0.26784 0.09256 0.0
H1134 H 0.31654 0.2546 0.09571 0.0
H1135 H 0.30569 0.27714 0.11516 0.0
C1136 C 0.31202 0.266 0.64805 0.0
C1137 C 0.31657 0.28615 0.6343 0.0
C1138 C 0.28894 0.25461 0.64839 0.0
C1139 C 0.27007 0.26311 0.63419 0.0
C1140 C 0.27486 0.28313 0.61989 0.0
C1141 C 0.29786 0.29459 0.62036 0.0
C1142 C 0.28459 0.23374 0.66428 0.0
C1143 C 0.25566 0.29247 0.60404 0.0
C1144 C 0.2178 0.21918 0.62089 0.0
C1145 C 0.19885 0.22811 0.6343 0.0
C1146 C 0.24083 0.23057 0.62044 0.0
C1147 C 0.2454 0.25108 0.6342 0.0
C1148 C 0.22631 0.2601 0.64787 0.0
C1149 C 0.20321 0.24872 0.64753 0.0
C1150 C 0.26029 0.22067 0.60515 0.0
C1151 C 0.23041 0.28151 0.66318 0.0
H1152 H 0.32634 0.25961 0.65903 0.0
H1153 H 0.30133 0.31013 0.60967 0.0
H1154 H 0.26913 0.23814 0.6755 0.0
H1155 H 0.2795 0.21711 0.65487 0.0
H1156 H 0.30088 0.22965 0.6746 0.0
H1157 H 0.26253 0.30753 0.59339 0.0
H1158 H 0.24925 0.27744 0.59313 0.0
H1159 H 0.23965 0.29911 0.61352 0.0
H1160 H 0.21449 0.20331 0.61057 0.0
H1161 H 0.18873 0.25553 0.65811 0.0
H1162 H 0.27616 0.21441 0.61505 0.0
H1163 H 0.26686 0.23528 0.59386 0.0
H1164 H 0.25361 0.20519 0.5949 0.0
H1165 H 0.2457 0.27754 0.67472 0.0
H1166 H 0.21396 0.28596 0.67317 0.0
H1167 H 0.23563 0.29781 0.65335 0.0
C1168 C 0.2689 0.31188 0.3841 0.0
C1169 C 0.28845 0.31648 0.36951 0.0
C1170 C 0.25683 0.28914 0.38437 0.0
C1171 C 0.26469 0.27014 0.37006 0.0
C1172 C 0.28438 0.27458 0.35536 0.0
C1173 C 0.29569 0.29763 0.35502 0.0
C1174 C 0.23558 0.28546 0.39997 0.0
C1175 C 0.29364 0.25489 0.33997 0.0
C1176 C 0.2476 0.20426 0.38457 0.0
C1177 C 0.22843 0.19939 0.36964 0.0
C1178 C 0.25962 0.22702 0.38481 0.0
C1179 C 0.25209 0.24579 0.3701 0.0
C1180 C 0.23276 0.24109 0.35506 0.0
C1181 C 0.22151 0.21801 0.35477 0.0
C1182 C 0.28048 0.23098 0.4008 0.0
C1183 C 0.22385 0.26053 0.33924 0.0
H1184 H 0.26315 0.32593 0.39561 0.0
H1185 H 0.31021 0.30084 0.34317 0.0
H1186 H 0.21919 0.27991 0.39039 0.0
H1187 H 0.23968 0.27054 0.41186 0.0
H1188 H 0.2312 0.30218 0.40959 0.0
H1189 H 0.30986 0.26081 0.3303 0.0
H1190 H 0.29854 0.23843 0.34973 0.0
H1191 H 0.27911 0.2495 0.32811 0.0
H1192 H 0.2531 0.1904 0.39638 0.0
H1193 H 0.20729 0.2146 0.34267 0.0
H1194 H 0.27608 0.2461 0.41238 0.0
H1195 H 0.2971 0.23637 0.39148 0.0
H1196 H 0.28462 0.21443 0.41075 0.0
H1197 H 0.21874 0.27715 0.34867 0.0
H1198 H 0.20785 0.25446 0.32934 0.0
H1199 H 0.23865 0.26573 0.32758 0.0
C1200 C 0.2968 0.21837 0.85641 0.0
C1201 C 0.31578 0.22628 0.87049 0.0
C1202 C 0.27354 0.22916 0.85694 0.0
C1203 C 0.26905 0.24912 0.87129 0.0
C1204 C 0.28812 0.25761 0.88523 0.0
C1205 C 0.31103 0.24595 0.88489 0.0
C1206 C 0.25373 0.21917 0.84202 0.0
C1207 C 0.28439 0.27924 0.90038 0.0
C1208 C 0.21725 0.29185 0.8548 0.0
C1209 C 0.19875 0.28592 0.87015 0.0
C1210 C 0.24017 0.2804 0.8553 0.0
C1211 C 0.24474 0.2617 0.87098 0.0
C1212 C 0.22598 0.25489 0.88601 0.0
C1213 C 0.2034 0.26723 0.88561 0.0
C1214 C 0.25963 0.28857 0.83913 0.0
C1215 C 0.22979 0.23458 0.90258 0.0
H1216 H 0.30006 0.20376 0.84467 0.0
H1217 H 0.32513 0.2522 0.89614 0.0
H1218 H 0.23722 0.21493 0.85198 0.0
H1219 H 0.24848 0.23305 0.82949 0.0
H1220 H 0.25952 0.20242 0.83311 0.0
H1221 H 0.30109 0.28392 0.90993 0.0
H1222 H 0.27887 0.29534 0.89041 0.0
H1223 H 0.26944 0.27542 0.91231 0.0
H1224 H 0.21393 0.30557 0.8422 0.0
H1225 H 0.18957 0.26243 0.89772 0.0
H1226 H 0.26468 0.27332 0.82795 0.0
H1227 H 0.27632 0.29397 0.84834 0.0
H1228 H 0.25364 0.3042 0.82873 0.0
H1229 H 0.23531 0.21769 0.89376 0.0
H1230 H 0.21312 0.2307 0.91248 0.0
H1231 H 0.24477 0.23941 0.91418 0.0
C1232 C 0.74925 0.81196 0.88579 0.0
C1233 C 0.72907 0.81577 0.87178 0.0
C1234 C 0.76158 0.78938 0.88621 0.0
C1235 C 0.75332 0.76986 0.87266 0.0
C1236 C 0.73308 0.77359 0.85847 0.0
C1237 C 0.7216 0.79646 0.85789 0.0
C1238 C 0.78351 0.78642 0.90113 0.0
C1239 C 0.7234 0.75334 0.84388 0.0
C1240 C 0.79565 0.7179 0.85593 0.0
C1241 C 0.7896 0.69939 0.87124 0.0
C1242 C 0.78459 0.74099 0.85671 0.0
C1243 C 0.7662 0.74574 0.87265 0.0
C1244 C 0.75945 0.72707 0.88779 0.0
C1245 C 0.77137 0.7043 0.88708 0.0
C1246 C 0.79264 0.76033 0.84038 0.0
C1247 C 0.73948 0.73111 0.90466 0.0
H1248 H 0.75525 0.82647 0.89672 0.0
H1249 H 0.70666 0.79914 0.84637 0.0
H1250 H 0.7801 0.77175 0.91346 0.0
H1251 H 0.79955 0.78087 0.89109 0.0
H1252 H 0.78805 0.80345 0.91023 0.0
H1253 H 0.70662 0.75871 0.83478 0.0
H1254 H 0.73741 0.74794 0.83152 0.0
H1255 H 0.71928 0.73704 0.85415 0.0
H1256 H 0.80906 0.7144 0.8431 0.0
H1257 H 0.76656 0.69046 0.89917 0.0
H1258 H 0.79779 0.77721 0.84941 0.0
H1259 H 0.77737 0.76503 0.82907 0.0
H1260 H 0.80839 0.75437 0.83011 0.0
H1261 H 0.74431 0.74656 0.91572 0.0
H1262 H 0.73611 0.71473 0.9151 0.0
H1263 H 0.7223 0.73603 0.89601 0.0
C1264 C 0.71803 0.7238 0.35364 0.0
C1265 C 0.69958 0.72961 0.36908 0.0
C1266 C 0.74095 0.73535 0.35407 0.0
C1267 C 0.74562 0.754 0.36979 0.0
C1268 C 0.72693 0.76063 0.38496 0.0
C1269 C 0.70434 0.74824 0.3846 0.0
C1270 C 0.7603 0.72737 0.33773 0.0
C1271 C 0.73083 0.78084 0.40163 0.0
C1272 C 0.81202 0.76999 0.38343 0.0
C1273 C 0.81661 0.78986 0.36921 0.0
C1274 C 0.78914 0.75819 0.3838 0.0
C1275 C 0.76994 0.7667 0.37004 0.0
C1276 C 0.77428 0.78684 0.35584 0.0
C1277 C 0.7975 0.79782 0.35531 0.0
C1278 C 0.78557 0.73641 0.39881 0.0
C1279 C 0.75436 0.79683 0.34109 0.0
H1280 H 0.71465 0.71012 0.34102 0.0
H1281 H 0.69057 0.75294 0.39678 0.0
H1282 H 0.76527 0.74274 0.32663 0.0
H1283 H 0.77705 0.72193 0.34682 0.0
H1284 H 0.75424 0.71182 0.32725 0.0
H1285 H 0.71424 0.78454 0.41168 0.0
H1286 H 0.74593 0.776 0.41307 0.0
H1287 H 0.73621 0.79782 0.39287 0.0
H1288 H 0.82623 0.76369 0.39454 0.0
H1289 H 0.80062 0.8126 0.34372 0.0
H1290 H 0.78004 0.72036 0.38876 0.0
H1291 H 0.77069 0.74004 0.41086 0.0
H1292 H 0.80235 0.73174 0.40824 0.0
H1293 H 0.74901 0.78299 0.32855 0.0
H1294 H 0.76007 0.81364 0.33219 0.0
H1295 H 0.73793 0.80099 0.35117 0.0
C1296 C 0.80017 0.79712 0.61884 0.0
C1297 C 0.79031 0.81589 0.63191 0.0
C1298 C 0.78917 0.77393 0.61791 0.0
C1299 C 0.7681 0.76903 0.63084 0.0
C1300 C 0.75816 0.78793 0.64418 0.0
C1301 C 0.76918 0.81118 0.64433 0.0
C1302 C 0.80006 0.75467 0.60299 0.0
C1303 C 0.73606 0.78349 0.65859 0.0
C1304 C 0.72522 0.71669 0.61538 0.0
C1305 C 0.73264 0.69813 0.62995 0.0
C1306 C 0.73697 0.73952 0.6151 0.0
C1307 C 0.75629 0.74428 0.63018 0.0
C1308 C 0.76401 0.72546 0.6448 0.0
C1309 C 0.75228 0.70255 0.64434 0.0
C1310 C 0.72845 0.75869 0.59884 0.0
C1311 C 0.78416 0.72978 0.66145 0.0
H1312 H 0.81646 0.8007 0.60915 0.0
H1313 H 0.76166 0.82554 0.65465 0.0
H1314 H 0.80585 0.73876 0.61307 0.0
H1315 H 0.78615 0.74811 0.59098 0.0
H1316 H 0.81606 0.76153 0.59353 0.0
H1317 H 0.73099 0.79979 0.66853 0.0
H1318 H 0.72029 0.77824 0.64807 0.0
H1319 H 0.73962 0.76812 0.67016 0.0
H1320 H 0.70998 0.71336 0.60429 0.0
H1321 H 0.75782 0.68838 0.65585 0.0
H1322 H 0.74407 0.76545 0.58885 0.0
H1323 H 0.72089 0.77448 0.60804 0.0
H1324 H 0.71424 0.75168 0.58732 0.0
H1325 H 0.80106 0.73548 0.65275 0.0
H1326 H 0.78817 0.7133 0.67155 0.0
H1327 H 0.77897 0.74482 0.67285 0.0
C1328 C 0.8119 0.75069 0.14398 0.0
C1329 C 0.81635 0.7301 0.13079 0.0
C1330 C 0.78883 0.76207 0.14406 0.0
C1331 C 0.76987 0.75299 0.13023 0.0
C1332 C 0.77461 0.73259 0.11641 0.0
C1333 C 0.79761 0.72123 0.1171 0.0
C1334 C 0.78455 0.78341 0.1594 0.0
C1335 C 0.75529 0.72261 0.10099 0.0
C1336 C 0.70324 0.76723 0.14444 0.0
C1337 C 0.69854 0.78747 0.13088 0.0
C1338 C 0.72635 0.75594 0.14452 0.0
C1339 C 0.74509 0.76471 0.13028 0.0
C1340 C 0.7401 0.78476 0.1161 0.0
C1341 C 0.71707 0.79607 0.1168 0.0
C1342 C 0.73091 0.73499 0.16025 0.0
C1343 C 0.75917 0.79438 0.10024 0.0
H1344 H 0.82624 0.75737 0.15481 0.0
H1345 H 0.80099 0.70526 0.10693 0.0
H1346 H 0.77891 0.7996 0.14963 0.0
H1347 H 0.76947 0.77912 0.17109 0.0
H1348 H 0.80104 0.78818 0.16923 0.0
H1349 H 0.76221 0.70744 0.09051 0.0
H1350 H 0.73956 0.71588 0.11083 0.0
H1351 H 0.74844 0.73728 0.08993 0.0
H1352 H 0.68907 0.76077 0.15557 0.0
H1353 H 0.7135 0.81176 0.10634 0.0
H1354 H 0.7462 0.73956 0.17161 0.0
H1355 H 0.73635 0.71854 0.15074 0.0
H1356 H 0.7146 0.73049 0.17042 0.0
H1357 H 0.77507 0.80131 0.10974 0.0
H1358 H 0.75209 0.80932 0.08957 0.0
H1359 H 0.76582 0.77946 0.08936 0.0
C1360 C 0.23338 0.12553 0.29839 0.0
C1361 C 0.2144 0.10852 0.29696 0.0
C1362 C 0.25062 0.12794 0.28114 0.0
C1363 C 0.24913 0.11257 0.2622 0.0
C1364 C 0.22949 0.09581 0.26048 0.0
C1365 C 0.21235 0.09403 0.27786 0.0
C1366 C 0.27099 0.14623 0.28361 0.0
C1367 C 0.22724 0.07892 0.24074 0.0
C1368 C 0.28362 0.12556 0.20822 0.0
C1369 C 0.30352 0.10971 0.21001 0.0
C1370 C 0.26634 0.12753 0.22547 0.0
C1371 C 0.26876 0.11291 0.24482 0.0
C1372 C 0.28933 0.0974 0.24692 0.0
C1373 C 0.30646 0.09601 0.2295 0.0
C1374 C 0.24495 0.14449 0.22257 0.0
C1375 C 0.29259 0.08132 0.2671 0.0
H1376 H 0.23518 0.13641 0.31338 0.0
H1377 H 0.19797 0.08048 0.27703 0.0
H1378 H 0.28858 0.13653 0.28563 0.0
H1379 H 0.27245 0.15762 0.26839 0.0
H1380 H 0.26829 0.15836 0.29822 0.0
H1381 H 0.21029 0.06784 0.24133 0.0
H1382 H 0.22742 0.0895 0.22501 0.0
H1383 H 0.2431 0.0664 0.2403 0.0
H1384 H 0.28114 0.13579 0.19293 0.0
H1385 H 0.32153 0.0833 0.23061 0.0
H1386 H 0.24278 0.15618 0.23752 0.0
H1387 H 0.22797 0.13369 0.22075 0.0
H1388 H 0.24698 0.15636 0.20769 0.0
H1389 H 0.29171 0.09237 0.28255 0.0
H1390 H 0.3102 0.07136 0.2668 0.0
H1391 H 0.27754 0.06782 0.26787 0.0
C1392 C 0.3908 0.28178 0.70746 0.0
C1393 C 0.40693 0.30151 0.70906 0.0
C1394 C 0.38872 0.26462 0.72481 0.0
C1395 C 0.40354 0.26698 0.74405 0.0
C1396 C 0.41938 0.28735 0.74594 0.0
C1397 C 0.42085 0.30437 0.72843 0.0
C1398 C 0.3714 0.24345 0.72214 0.0
C1399 C 0.43565 0.29054 0.766 0.0
C1400 C 0.3907 0.23247 0.79807 0.0
C1401 C 0.40744 0.21327 0.79679 0.0
C1402 C 0.38842 0.24948 0.78062 0.0
C1403 C 0.40363 0.24752 0.76162 0.0
C1404 C 0.42008 0.22765 0.76003 0.0
C1405 C 0.42175 0.21075 0.77763 0.0
C1406 C 0.37045 0.27011 0.78296 0.0
C1407 C 0.4368 0.2249 0.74023 0.0
H1408 H 0.38038 0.27936 0.69227 0.0
H1409 H 0.43375 0.31932 0.7294 0.0
H1410 H 0.38193 0.22631 0.72042 0.0
H1411 H 0.35976 0.24158 0.73715 0.0
H1412 H 0.35949 0.2455 0.70729 0.0
H1413 H 0.44597 0.30796 0.76549 0.0
H1414 H 0.42469 0.29004 0.78151 0.0
H1415 H 0.44886 0.27527 0.76685 0.0
H1416 H 0.37997 0.23464 0.81312 0.0
H1417 H 0.43511 0.19623 0.77691 0.0
H1418 H 0.35904 0.27158 0.76777 0.0
H1419 H 0.38045 0.28758 0.78481 0.0
H1420 H 0.35833 0.26773 0.79763 0.0
H1421 H 0.42612 0.22512 0.72455 0.0
H1422 H 0.44754 0.20777 0.74091 0.0
H1423 H 0.44963 0.24053 0.73959 0.0
C1424 C 0.21211 0.42205 0.22915 0.0
C1425 C 0.21273 0.40645 0.21072 0.0
C1426 C 0.22975 0.42036 0.2461 0.0
C1427 C 0.24843 0.40256 0.24462 0.0
C1428 C 0.24852 0.38618 0.22635 0.0
C1429 C 0.23075 0.38844 0.20953 0.0
C1430 C 0.22894 0.43827 0.26517 0.0
C1431 C 0.26788 0.36682 0.22416 0.0
C1432 C 0.30681 0.41809 0.2762 0.0
C1433 C 0.30337 0.40553 0.29626 0.0
C1434 C 0.28957 0.41645 0.25887 0.0
C1435 C 0.26835 0.40195 0.26171 0.0
C1436 C 0.26544 0.38839 0.28163 0.0
C1437 C 0.28288 0.39052 0.29872 0.0
C1438 C 0.2934 0.43134 0.23802 0.0
C1439 C 0.24329 0.37258 0.28536 0.0
H1440 H 0.19835 0.43619 0.22981 0.0
H1441 H 0.23135 0.37661 0.19508 0.0
H1442 H 0.22877 0.42842 0.2813 0.0
H1443 H 0.24555 0.44982 0.26491 0.0
H1444 H 0.2127 0.45031 0.26439 0.0
H1445 H 0.26436 0.35438 0.20992 0.0
H1446 H 0.28593 0.37556 0.22172 0.0
H1447 H 0.26894 0.35589 0.23967 0.0
H1448 H 0.32233 0.4302 0.27454 0.0
H1449 H 0.28002 0.3812 0.31444 0.0
H1450 H 0.27924 0.44572 0.23697 0.0
H1451 H 0.29147 0.41968 0.22303 0.0
H1452 H 0.31162 0.44019 0.23765 0.0
H1453 H 0.2269 0.38426 0.28707 0.0
H1454 H 0.245 0.36122 0.3006 0.0
H1455 H 0.24026 0.36044 0.27085 0.0
C1456 C 0.09404 0.20999 0.7289 0.0
C1457 C 0.10887 0.21239 0.71004 0.0
C1458 C 0.09551 0.22681 0.74656 0.0
C1459 C 0.11229 0.24648 0.74536 0.0
C1460 C 0.12803 0.24827 0.7267 0.0
C1461 C 0.12594 0.23135 0.70916 0.0
C1462 C 0.0782 0.22426 0.76596 0.0
C1463 C 0.14638 0.26867 0.7248 0.0
C1464 C 0.09532 0.30372 0.77801 0.0
C1465 C 0.10886 0.30081 0.7976 0.0
C1466 C 0.09677 0.28652 0.76066 0.0
C1467 C 0.11219 0.26591 0.76294 0.0
C1468 C 0.12648 0.26339 0.78248 0.0
C1469 C 0.12445 0.28075 0.79966 0.0
C1470 C 0.08103 0.28988 0.74027 0.0
C1471 C 0.14331 0.24193 0.78556 0.0
H1472 H 0.08046 0.19563 0.7293 0.0
H1473 H 0.13707 0.23342 0.69436 0.0
H1474 H 0.08843 0.22439 0.78189 0.0
H1475 H 0.06554 0.24002 0.76628 0.0
H1476 H 0.06727 0.20724 0.76504 0.0
H1477 H 0.15885 0.26616 0.7104 0.0
H1478 H 0.13671 0.28627 0.72276 0.0
H1479 H 0.1574 0.26996 0.74025 0.0
H1480 H 0.08286 0.31897 0.77668 0.0
H1481 H 0.13459 0.27833 0.81501 0.0
H1482 H 0.06774 0.27468 0.73907 0.0
H1483 H 0.0924 0.28938 0.72501 0.0
H1484 H 0.07084 0.30735 0.74062 0.0
H1485 H 0.13245 0.22492 0.7868 0.0
H1486 H 0.15468 0.24367 0.8008 0.0
H1487 H 0.1555 0.24003 0.77092 0.0
C1488 C 0.71089 0.92103 0.77531 0.0
C1489 C 0.71354 0.90739 0.79486 0.0
C1490 C 0.72825 0.91955 0.75808 0.0
C1491 C 0.74876 0.904 0.76044 0.0
C1492 C 0.75096 0.88954 0.77991 0.0
C1493 C 0.73343 0.89157 0.79695 0.0
C1494 C 0.72518 0.93541 0.73773 0.0
C1495 C 0.7723 0.87258 0.78309 0.0
C1496 C 0.78406 0.89028 0.70702 0.0
C1497 C 0.80315 0.90719 0.70821 0.0
C1498 C 0.76681 0.88826 0.72431 0.0
C1499 C 0.76842 0.90392 0.74305 0.0
C1500 C 0.78818 0.92057 0.74454 0.0
C1501 C 0.80532 0.92196 0.72712 0.0
C1502 C 0.74632 0.87007 0.72209 0.0
C1503 C 0.79055 0.93776 0.76405 0.0
H1504 H 0.69571 0.93357 0.77391 0.0
H1505 H 0.73562 0.88131 0.81226 0.0
H1506 H 0.74044 0.94866 0.73675 0.0
H1507 H 0.72583 0.92413 0.72241 0.0
H1508 H 0.70773 0.94566 0.73795 0.0
H1509 H 0.77032 0.86111 0.79824 0.0
H1510 H 0.77431 0.86049 0.7684 0.0
H1511 H 0.78935 0.88334 0.78457 0.0
H1512 H 0.78216 0.87919 0.69217 0.0
H1513 H 0.81977 0.93543 0.72776 0.0
H1514 H 0.7288 0.87986 0.71994 0.0
H1515 H 0.74478 0.85894 0.73745 0.0
H1516 H 0.74893 0.85769 0.70764 0.0
H1517 H 0.77483 0.95047 0.76426 0.0
H1518 H 0.80763 0.94863 0.76335 0.0
H1519 H 0.79019 0.92745 0.77993 0.0
C1520 C 0.62593 0.73267 0.29721 0.0
C1521 C 0.60852 0.71402 0.29642 0.0
C1522 C 0.62797 0.74979 0.2798 0.0
C1523 C 0.61187 0.74848 0.26135 0.0
C1524 C 0.59458 0.72925 0.26035 0.0
C1525 C 0.59316 0.71224 0.27786 0.0
C1526 C 0.64685 0.76972 0.2815 0.0
C1527 C 0.57689 0.72722 0.24118 0.0
C1528 C 0.5963 0.80589 0.22828 0.0
C1529 C 0.60951 0.80234 0.20859 0.0
C1530 C 0.59745 0.78887 0.24581 0.0
C1531 C 0.61222 0.76778 0.24363 0.0
C1532 C 0.62622 0.76461 0.22398 0.0
C1533 C 0.6245 0.78181 0.20663 0.0
C1534 C 0.58205 0.79294 0.2663 0.0
C1535 C 0.64236 0.74262 0.22096 0.0
H1536 H 0.63755 0.73421 0.31176 0.0
H1537 H 0.57939 0.69805 0.27751 0.0
H1538 H 0.65793 0.77044 0.26606 0.0
H1539 H 0.63766 0.78761 0.28326 0.0
H1540 H 0.65922 0.76709 0.29595 0.0
H1541 H 0.56525 0.7107 0.2424 0.0
H1542 H 0.56493 0.7435 0.2408 0.0
H1543 H 0.58691 0.72669 0.22514 0.0
H1544 H 0.58428 0.82149 0.22956 0.0
H1545 H 0.63439 0.77889 0.19122 0.0
H1546 H 0.59353 0.79211 0.28149 0.0
H1547 H 0.56821 0.77826 0.26768 0.0
H1548 H 0.5725 0.81078 0.26593 0.0
H1549 H 0.65459 0.74045 0.23555 0.0
H1550 H 0.65367 0.74389 0.20565 0.0
H1551 H 0.63097 0.72595 0.21989 0.0
C1552 C 0.78137 0.62303 0.79997 0.0
C1553 C 0.80241 0.60889 0.79732 0.0
C1554 C 0.76385 0.62476 0.78289 0.0
C1555 C 0.76726 0.61168 0.76277 0.0
C1556 C 0.78889 0.59787 0.75984 0.0
C1557 C 0.80616 0.5966 0.77716 0.0
C1558 C 0.74123 0.63979 0.78675 0.0
C1559 C 0.79326 0.58351 0.73878 0.0
C1560 C 0.712 0.59128 0.72886 0.0
C1561 C 0.7126 0.60746 0.71085 0.0
C1562 C 0.72929 0.59286 0.74613 0.0
C1563 C 0.74762 0.61111 0.74538 0.0
C1564 C 0.7477 0.62803 0.72752 0.0
C1565 C 0.73026 0.6259 0.71039 0.0
C1566 C 0.72851 0.57438 0.76474 0.0
C1567 C 0.76671 0.64786 0.7261 0.0
H1568 H 0.77828 0.63216 0.81574 0.0
H1569 H 0.82212 0.58514 0.77534 0.0
H1570 H 0.73823 0.65243 0.7726 0.0
H1571 H 0.7251 0.62763 0.78773 0.0
H1572 H 0.74231 0.65057 0.80238 0.0
H1573 H 0.81159 0.57493 0.7385 0.0
H1574 H 0.7793 0.56897 0.73723 0.0
H1575 H 0.79145 0.5955 0.724 0.0
H1576 H 0.69852 0.57682 0.72897 0.0
H1577 H 0.73087 0.63818 0.69626 0.0
H1578 H 0.72794 0.58374 0.78111 0.0
H1579 H 0.74532 0.56315 0.7644 0.0
H1580 H 0.71248 0.56207 0.76345 0.0
H1581 H 0.76722 0.65841 0.74185 0.0
H1582 H 0.76323 0.6606 0.71207 0.0
H1583 H 0.78498 0.63959 0.7238 0.0
C1584 C 0.8904 0.7853 0.2953 0.0
C1585 C 0.90771 0.80405 0.2945 0.0
C1586 C 0.88816 0.76841 0.27774 0.0
C1587 C 0.904 0.77001 0.25913 0.0
C1588 C 0.92102 0.78948 0.25801 0.0
C1589 C 0.92262 0.80628 0.27568 0.0
C1590 C 0.86957 0.74823 0.27958 0.0
C1591 C 0.93843 0.79182 0.23866 0.0
C1592 C 0.92023 0.71239 0.22666 0.0
C1593 C 0.90672 0.71537 0.20706 0.0
C1594 C 0.91904 0.72973 0.24392 0.0
C1595 C 0.90393 0.75055 0.24156 0.0
C1596 C 0.8897 0.75318 0.22199 0.0
C1597 C 0.89146 0.73568 0.20489 0.0
C1598 C 0.9347 0.72623 0.26434 0.0
C1599 C 0.87317 0.77486 0.2188 0.0
H1600 H 0.87919 0.78334 0.31008 0.0
H1601 H 0.93639 0.82046 0.27534 0.0
H1602 H 0.8586 0.74707 0.26409 0.0
H1603 H 0.87902 0.73052 0.28167 0.0
H1604 H 0.85706 0.75091 0.29392 0.0
H1605 H 0.94953 0.80873 0.2396 0.0
H1606 H 0.95092 0.77594 0.2384 0.0
H1607 H 0.92826 0.79178 0.22269 0.0
H1608 H 0.93243 0.69694 0.22809 0.0
H1609 H 0.88134 0.73814 0.18954 0.0
H1610 H 0.9233 0.72684 0.27958 0.0
H1611 H 0.94814 0.7413 0.26557 0.0
H1612 H 0.94473 0.70865 0.26404 0.0
H1613 H 0.86095 0.77695 0.2334 0.0
H1614 H 0.86185 0.77323 0.20353 0.0
H1615 H 0.88427 0.79171 0.21757 0.0
C1616 C 0.44162 0.01521 0.13637 0.0
C1617 C 0.41816 0.01132 0.14513 0.0
C1618 C 0.45979 0.99707 0.13734 0.0
C1619 C 0.45452 0.97411 0.14708 0.0
C1620 C 0.43095 0.97012 0.15616 0.0
C1621 C 0.41319 0.98876 0.15524 0.0
C1622 C 0.48465 1.00246 0.12774 0.0
C1623 C 0.42433 0.94593 0.16646 0.0
C1624 C 0.49453 0.92082 0.12798 0.0
C1625 C 0.51118 0.91832 0.14563 0.0
C1626 C 0.47573 0.93834 0.12853 0.0
C1627 C 0.47348 0.95419 0.14708 0.0
C1628 C 0.49 0.95153 0.16512 0.0
C1629 C 0.50846 0.93359 0.16425 0.0
C1630 C 0.45846 0.94013 0.10903 0.0
C1631 C 0.48863 0.96815 0.1851 0.0
H1632 H 0.44589 0.03265 0.12884 0.0
H1633 H 0.39515 0.98542 0.16193 0.0
H1634 H 0.49891 0.99934 0.14053 0.0
H1635 H 0.48846 0.9899 0.11369 0.0
H1636 H 0.48623 0.02149 0.12161 0.0
H1637 H 0.40549 0.9458 0.17325 0.0
H1638 H 0.42591 0.9313 0.15379 0.0
H1639 H 0.43722 0.94147 0.1801 0.0
H1640 H 0.4962 0.90898 0.11361 0.0
H1641 H 0.52131 0.93207 0.17789 0.0
H1642 H 0.46054 0.95812 0.10083 0.0
H1643 H 0.43933 0.93876 0.11489 0.0
H1644 H 0.46172 0.92566 0.09644 0.0
H1645 H 0.492 0.98724 0.17984 0.0
H1646 H 0.50213 0.96323 0.19813 0.0
H1647 H 0.47012 0.96748 0.1925 0.0
C1648 C 0.57062 0.51662 0.6386 0.0
C1649 C 0.59531 0.5124 0.64361 0.0
C1650 C 0.55333 0.49754 0.63841 0.0
C1651 C 0.56062 0.47338 0.64348 0.0
C1652 C 0.58549 0.46895 0.64858 0.0
C1653 C 0.60247 0.48838 0.64849 0.0
C1654 C 0.52719 0.50327 0.63258 0.0
C1655 C 0.59418 0.44363 0.65429 0.0
C1656 C 0.51052 0.42842 0.66145 0.0
C1657 C 0.50587 0.41533 0.64172 0.0
C1658 C 0.5285 0.44688 0.66238 0.0
C1659 C 0.54227 0.45282 0.64311 0.0
C1660 C 0.53794 0.43949 0.62326 0.0
C1661 C 0.52008 0.42095 0.62285 0.0
C1662 C 0.53247 0.46038 0.68398 0.0
C1663 C 0.55197 0.4451 0.60224 0.0
H1664 H 0.56479 0.53493 0.63445 0.0
H1665 H 0.62135 0.48478 0.65263 0.0
H1666 H 0.52159 0.49264 0.6177 0.0
H1667 H 0.51501 0.4978 0.64646 0.0
H1668 H 0.52434 0.52294 0.62908 0.0
H1669 H 0.61399 0.44313 0.65809 0.0
H1670 H 0.584 0.43663 0.66893 0.0
H1671 H 0.59046 0.43108 0.64022 0.0
H1672 H 0.49965 0.42471 0.67612 0.0
H1673 H 0.51727 0.41082 0.60759 0.0
H1674 H 0.5277 0.47987 0.68179 0.0
H1675 H 0.55198 0.45959 0.68879 0.0
H1676 H 0.52134 0.45281 0.6978 0.0
H1677 H 0.54871 0.46427 0.5972 0.0
H1678 H 0.54673 0.43298 0.58821 0.0
H1679 H 0.57181 0.44313 0.60529 0.0
C1680 C 0.06847 0.49629 0.14209 0.0
C1681 C 0.0934 0.50133 0.14514 0.0
C1682 C 0.05082 0.51499 0.14195 0.0
C1683 C 0.058 0.53959 0.14507 0.0
C1684 C 0.08311 0.54484 0.14825 0.0
C1685 C 0.10043 0.52577 0.14813 0.0
C1686 C 0.02442 0.50839 0.1382 0.0
C1687 C 0.09169 0.57067 0.15186 0.0
C1688 C 0.01507 0.58954 0.12371 0.0
C1689 C 1.00208 0.59631 0.14298 0.0
C1690 C 0.0333 0.57142 0.12421 0.0
C1691 C 0.03927 0.55975 0.14455 0.0
C1692 C 0.0268 0.56691 0.16419 0.0
C1693 C 0.00838 0.5849 0.16317 0.0
C1694 C 0.04591 0.56446 0.10279 0.0
C1695 C 0.03259 0.55521 0.18631 0.0
H1696 H 0.06272 0.47762 0.13941 0.0
H1697 H 0.11951 0.53 0.15075 0.0
H1698 H 0.0132 0.51474 0.15242 0.0
H1699 H 0.01753 0.51771 0.12305 0.0
H1700 H 0.02169 0.48845 0.13619 0.0
H1701 H 0.11171 0.57179 0.15446 0.0
H1702 H 0.0868 0.58206 0.13727 0.0
H1703 H 0.0824 0.57861 0.16657 0.0
H1704 H 0.01101 0.59843 0.10804 0.0
H1705 H 0.9985 0.58954 0.17819 0.0
H1706 H 0.0427 0.54489 0.09919 0.0
H1707 H 0.06588 0.56703 0.10448 0.0
H1708 H 0.03943 0.57536 0.08837 0.0
H1709 H 0.02804 0.53552 0.18569 0.0
H1710 H 0.02236 0.56366 0.20027 0.0
H1711 H 0.0524 0.55668 0.18983 0.0
C1712 C 0.91174 0.02847 0.6527 0.0
C1713 C 0.91698 1.00603 0.64249 0.0
C1714 C 0.92919 0.04746 0.65352 0.0
C1715 C 0.95272 0.04399 0.64418 0.0
C1716 C 0.95826 0.02119 0.6343 0.0
C1717 C 0.94041 1.00267 0.63348 0.0
C1718 C 0.92229 0.07144 0.66404 0.0
C1719 C 0.98308 0.01635 0.62441 0.0
C1720 C 0.99154 0.09849 0.62543 0.0
C1721 C 0.00833 0.10108 0.64298 0.0
C1722 C 0.97315 0.08047 0.62586 0.0
C1723 C 0.97138 0.06427 0.64421 0.0
C1724 C 0.98804 0.06699 0.66214 0.0
C1725 C 1.00614 0.08534 0.66136 0.0
C1726 C 0.95576 0.07856 0.60646 0.0
C1727 C 0.98715 0.05007 0.68193 0.0
H1728 H 0.89373 0.03143 0.65959 0.0
H1729 H 0.94492 0.98534 0.62588 0.0
H1730 H 0.93521 0.07598 0.67763 0.0
H1731 H 0.92357 0.08622 0.65148 0.0
H1732 H 0.9035 0.0712 0.67093 0.0
H1733 H 0.98486 0.99744 0.61802 0.0
H1734 H 0.98657 0.02919 0.6105 0.0
H1735 H 0.99743 0.0195 0.63712 0.0
H1736 H 0.99273 0.11065 0.61126 0.0
H1737 H 0.01909 0.08686 0.67492 0.0
H1738 H 0.93666 0.07963 0.61245 0.0
H1739 H 0.95798 0.06064 0.59815 0.0
H1740 H 0.95876 0.09315 0.59392 0.0
H1741 H 0.96872 0.05032 0.68952 0.0
H1742 H 1.00074 0.05503 0.69489 0.0
H1743 H 0.99073 0.03111 0.67643 0.0
C1744 C 0.48989 0.6024 0.35093 0.0
C1745 C 0.51253 0.59659 0.36051 0.0
C1746 C 0.47059 0.5853 0.3503 0.0
C1747 C 0.47389 0.56159 0.35927 0.0
C1748 C 0.49687 0.55548 0.36853 0.0
C1749 C 0.51575 0.57294 0.36907 0.0
C1750 C 0.44646 0.59276 0.34038 0.0
C1751 C 0.5015 0.53046 0.37808 0.0
C1752 C 0.41924 0.52362 0.37898 0.0
C1753 C 0.41598 0.50694 0.36144 0.0
C1754 C 0.43754 0.54172 0.37825 0.0
C1755 C 0.45328 0.54333 0.35956 0.0
C1756 C 0.44984 0.52684 0.34162 0.0
C1757 C 0.43128 0.509 0.34273 0.0
C1758 C 0.44026 0.55891 0.39771 0.0
C1759 C 0.46622 0.52764 0.32144 0.0
H1760 H 0.48701 0.62058 0.3444 0.0
H1761 H 0.53321 0.56797 0.37616 0.0
H1762 H 0.44125 0.58 0.32685 0.0
H1763 H 0.43201 0.59173 0.35328 0.0
H1764 H 0.4469 0.61156 0.33354 0.0
H1765 H 0.52053 0.52826 0.38405 0.0
H1766 H 0.48894 0.52705 0.39222 0.0
H1767 H 0.49777 0.51633 0.36531 0.0
H1768 H 0.40742 0.52255 0.3934 0.0
H1769 H 0.42924 0.49613 0.32917 0.0
H1770 H 0.43934 0.57806 0.39187 0.0
H1771 H 0.45837 0.55634 0.40558 0.0
H1772 H 0.42597 0.55605 0.41056 0.0
H1773 H 0.46613 0.54616 0.31405 0.0
H1774 H 0.46061 0.51432 0.30847 0.0
H1775 H 0.48525 0.52361 0.32646 0.0
C1776 C 0.98999 0.41336 0.85072 0.0
C1777 C 0.01282 0.4192 0.85989 0.0
C1778 C 0.97095 0.43068 0.84988 0.0
C1779 C 0.97479 0.4546 0.85817 0.0
C1780 C 0.99799 0.46073 0.86694 0.0
C1781 C 0.01658 0.44304 0.86776 0.0
C1782 C 0.94653 0.42321 0.84055 0.0
C1783 C 1.00316 0.48599 0.87572 0.0
C1784 C 0.93267 0.50724 0.84122 0.0
C1785 C 0.91805 0.51012 0.86027 0.0
C1786 C 0.95084 0.48906 0.84012 0.0
C1787 C 0.95446 0.47306 0.85839 0.0
C1788 C 0.93929 0.47545 0.87739 0.0
C1789 C 0.92144 0.4939 0.87812 0.0
C1790 C 0.96666 0.48744 0.81962 0.0
C1791 C 0.9422 0.45875 0.89719 0.0
H1792 H 0.98676 0.39501 0.84472 0.0
H1793 H 0.03422 0.44796 0.87453 0.0
H1794 H 0.93238 0.42471 0.85368 0.0
H1795 H 0.94118 0.43565 0.82684 0.0
H1796 H 0.9466 0.40422 0.83413 0.0
H1797 H 0.02238 0.48819 0.8812 0.0
H1798 H 0.99923 0.49977 0.86268 0.0
H1799 H 0.99105 0.48995 0.89006 0.0
H1800 H 0.93046 0.51976 0.82741 0.0
H1801 H 0.9101 0.49567 0.89281 0.0
H1802 H 0.96618 0.46868 0.81274 0.0
H1803 H 0.98587 0.49144 0.82412 0.0
H1804 H 0.96087 0.50038 0.80642 0.0
H1805 H 0.94098 0.43945 0.8918 0.0
H1806 H 0.92819 0.46207 0.91018 0.0
H1807 H 0.96048 0.46139 0.90472 0.0
C1808 C 0.01143 0.93007 0.3436 0.0
C1809 C 0.00941 0.91409 0.36182 0.0
C1810 C 0.02951 0.94843 0.34289 0.0
C1811 C 0.04634 0.95092 0.36072 0.0
C1812 C 0.04475 0.93447 0.37889 0.0
C1813 C 0.02637 0.91645 0.37926 0.0
C1814 C 0.0302 0.96563 0.32329 0.0
C1815 C 0.06232 0.93611 0.39818 0.0
C1816 C 0.10587 0.98684 0.3522 0.0
C1817 C 0.1007 0.00916 0.36267 0.0
C1818 C 0.08842 0.96786 0.35129 0.0
C1819 C 0.06498 0.9712 0.36084 0.0
C1820 C 0.05951 0.99387 0.37102 0.0
C1821 C 0.07735 0.01239 0.37189 0.0
C1822 C 0.09524 0.94403 0.34044 0.0
C1823 C 0.03478 0.99855 0.38115 0.0
H1824 H 0.99834 0.92872 0.33013 0.0
H1825 H 0.02529 0.9041 0.39332 0.0
H1826 H 0.02665 0.98451 0.32904 0.0
H1827 H 0.04857 0.9655 0.31556 0.0
H1828 H 0.01651 0.96083 0.31038 0.0
H1829 H 0.05945 0.92134 0.41056 0.0
H1830 H 0.08136 0.93516 0.39202 0.0
H1831 H 0.06016 0.95391 0.40671 0.0
H1832 H 0.12382 0.98397 0.34514 0.0
H1833 H 0.07288 0.02963 0.37968 0.0
H1834 H 0.0822 0.93969 0.32689 0.0
H1835 H 0.09407 0.92908 0.35284 0.0
H1836 H 0.11396 0.94438 0.33341 0.0
H1837 H 0.02032 0.9956 0.36851 0.0
H1838 H 0.03306 0.01736 0.38779 0.0
H1839 H 0.03141 0.98549 0.39492 0.0
C1840 C 0.57252 1.00099 0.86582 0.0
C1841 C 0.59736 1.00534 0.86158 0.0
C1842 C 0.55536 0.02011 0.86623 0.0
C1843 C 0.56296 0.04439 0.86205 0.0
C1844 C 0.58799 0.04893 0.85767 0.0
C1845 C 0.60485 0.02946 0.85766 0.0
C1846 C 0.52905 0.0143 0.87134 0.0
C1847 C 0.59695 0.07438 0.85282 0.0
C1848 C 0.51333 0.08973 0.84433 0.0
C1849 C 0.50835 0.10226 0.86428 0.0
C1850 C 0.53138 0.07141 0.84322 0.0
C1851 C 0.54474 0.06496 0.86257 0.0
C1852 C 0.54008 0.0777 0.88266 0.0
C1853 C 0.52227 0.09622 0.88321 0.0
C1854 C 0.53582 0.05859 0.82136 0.0
C1855 C 0.55361 0.07142 0.90379 0.0
H1856 H 0.56649 0.98254 0.86919 0.0
H1857 H 0.62388 0.03309 0.85415 0.0
H1858 H 0.52309 0.02456 0.88631 0.0
H1859 H 0.51727 0.02013 0.85731 0.0
H1860 H 0.52603 0.99455 0.87436 0.0
H1861 H 0.61685 0.07493 0.84941 0.0
H1862 H 0.58714 0.0819 0.8382 0.0
H1863 H 0.593 0.0865 0.86716 0.0
H1864 H 0.50269 0.09374 0.82959 0.0
H1865 H 0.51926 0.10595 0.89865 0.0
H1866 H 0.53076 0.03909 0.82289 0.0
H1867 H 0.55547 0.05934 0.81703 0.0
H1868 H 0.52516 0.06672 0.8075 0.0
H1869 H 0.55019 0.0521 0.90825 0.0
H1870 H 0.54807 0.08308 0.91804 0.0
H1871 H 0.57352 0.07348 0.90119 0.0
loop_
_geom_bond_atom_site_label_1
_geom_bond_atom_site_label_2
_geom_bond_distance
_geom_bond_site_symmetry_2
_ccdc_geom_bond_type
C0 C1 1.443 . S
C0 N4 1.376 . S
C0 C38 1.389 . S
C1 C0 1.443 . S
C1 C2 1.340 . S
C1 H41 0.951 . S
C2 C1 1.340 . S
C2 C3 1.439 . S
C2 H42 0.950 . S
C3 C2 1.439 . S
C3 N4 1.374 . S
C3 C37 1.395 . S
N4 C0 1.376 . S
N4 C3 1.374 . S
N4 Co5 2.008 . S
Co5 N4 2.008 . S
Co5 N6 1.995 . S
Co5 N11 2.008 . S
Co5 N16 1.995 . S
Co5 N21 2.282 . S
Co5 N27 2.282 . S
N6 Co5 1.995 . S
N6 C7 1.376 . S
N6 C10 1.383 . S
C7 N6 1.376 . S
C7 C8 1.446 . S
C7 C37 1.391 . S
C8 C7 1.446 . S
C8 C9 1.339 . S
C8 H43 0.949 . S
C9 C8 1.339 . S
C9 C10 1.439 . S
C9 H44 0.950 . S
C10 N6 1.383 . S
C10 C9 1.439 . S
C10 C39 1.392 . S
N11 Co5 2.008 . S
N11 C12 1.376 . S
N11 C15 1.374 . S
C12 N11 1.376 . S
C12 C13 1.443 . S
C12 C39 1.389 . S
C13 C12 1.443 . S
C13 C14 1.340 . S
C13 H45 0.951 . S
C14 C13 1.340 . S
C14 C15 1.439 . S
C14 H46 0.950 . S
C15 N11 1.374 . S
C15 C14 1.439 . S
C15 C40 1.395 . S
N16 Co5 1.995 . S
N16 C17 1.376 . S
N16 C20 1.383 . S
C17 N16 1.376 . S
C17 C18 1.446 . S
C17 C40 1.391 . S
C18 C17 1.446 . S
C18 C19 1.339 . S
C18 H47 0.949 . S
C19 C18 1.339 . S
C19 C20 1.439 . S
C19 H48 0.950 . S
C20 N16 1.383 . S
C20 C19 1.439 . S
C20 C38 1.392 . S
N21 Co5 2.282 . S
N21 C24 1.332 . S
N21 C26 1.332 . S
C22 C23 1.386 . S
C22 C25 1.388 . S
C23 C22 1.386 . S
C23 C24 1.382 . S
C23 H49 0.950 . S
C24 N21 1.332 . S
C24 C23 1.382 . S
C24 H35 0.952 . S
C25 C22 1.388 . S
C25 C26 1.382 . S
C25 H50 0.950 . S
C26 N21 1.332 . S
C26 C25 1.382 . S
C26 H36 0.948 . S
N27 Co5 2.282 . S
N27 C31 1.332 . S
N27 C32 1.332 . S
C28 C29 1.388 . S
C28 C32 1.382 . S
C28 H51 0.950 . S
C29 C28 1.388 . S
C29 C30 1.386 . S
C30 C29 1.386 . S
C30 C31 1.382 . S
C30 H52 0.950 . S
C31 N27 1.332 . S
C31 C30 1.382 . S
C31 H33 0.952 . S
C32 N27 1.332 . S
C32 C28 1.382 . S
C32 H34 0.948 . S
H33 C31 0.952 . S
H34 C32 0.948 . S
H35 C24 0.952 . S
H36 C26 0.948 . S
C37 C3 1.395 . S
C37 C7 1.391 . S
C38 C0 1.389 . S
C38 C20 1.392 . S
C39 C10 1.392 . S
C39 C12 1.389 . S
C40 C15 1.395 . S
C40 C17 1.391 . S
H41 C1 0.951 . S
H42 C2 0.950 . S
H43 C8 0.949 . S
H44 C9 0.950 . S
H45 C13 0.951 . S
H46 C14 0.950 . S
H47 C18 0.949 . S
H48 C19 0.950 . S
H49 C23 0.950 . S
H50 C25 0.950 . S
H51 C28 0.950 . S
H52 C30 0.950 . S
C53 C54 1.443 . S
C53 N57 1.376 . S
C53 C91 1.389 . S
C54 C53 1.443 . S
C54 C55 1.340 . S
C54 H94 0.951 . S
C55 C54 1.340 . S
C55 C56 1.439 . S
C55 H95 0.950 . S
C56 C55 1.439 . S
C56 N57 1.374 . S
C56 C90 1.395 . S
N57 C53 1.376 . S
N57 C56 1.374 . S
N57 Co58 2.008 . S
Co58 N57 2.008 . S
Co58 N59 1.995 . S
Co58 N64 2.008 . S
Co58 N69 1.995 . S
Co58 N74 2.282 . S
Co58 N80 2.282 . S
N59 Co58 1.995 . S
N59 C60 1.376 . S
N59 C63 1.383 . S
C60 N59 1.376 . S
C60 C61 1.446 . S
C60 C90 1.391 . S
C61 C60 1.446 . S
C61 C62 1.339 . S
C61 H96 0.949 . S
C62 C61 1.339 . S
C62 C63 1.439 . S
C62 H97 0.950 . S
C63 N59 1.383 . S
C63 C62 1.439 . S
C63 C92 1.392 . S
N64 Co58 2.008 . S
N64 C65 1.376 . S
N64 C68 1.374 . S
C65 N64 1.376 . S
C65 C66 1.443 . S
C65 C92 1.389 . S
C66 C65 1.443 . S
C66 C67 1.340 . S
C66 H98 0.951 . S
C67 C66 1.340 . S
C67 C68 1.439 . S
C67 H99 0.950 . S
C68 N64 1.374 . S
C68 C67 1.439 . S
C68 C93 1.395 . S
N69 Co58 1.995 . S
N69 C70 1.376 . S
N69 C73 1.383 . S
C70 N69 1.376 . S
C70 C71 1.446 . S
C70 C93 1.391 . S
C71 C70 1.446 . S
C71 C72 1.339 . S
C71 H100 0.949 . S
C72 C71 1.339 . S
C72 C73 1.439 . S
C72 H101 0.950 . S
C73 N69 1.383 . S
C73 C72 1.439 . S
C73 C91 1.392 . S
N74 Co58 2.282 . S
N74 C77 1.332 . S
N74 C79 1.332 . S
C75 C76 1.386 . S
C75 C78 1.388 . S
C76 C75 1.386 . S
C76 C77 1.382 . S
C76 H102 0.950 . S
C77 N74 1.332 . S
C77 C76 1.382 . S
C77 H88 0.952 . S
C78 C75 1.388 . S
C78 C79 1.382 . S
C78 H103 0.950 . S
C79 N74 1.332 . S
C79 C78 1.382 . S
C79 H89 0.948 . S
N80 Co58 2.282 . S
N80 C84 1.332 . S
N80 C85 1.332 . S
C81 C82 1.388 . S
C81 C85 1.382 . S
C81 H104 0.950 . S
C82 C81 1.388 . S
C82 C83 1.386 . S
C83 C82 1.386 . S
C83 C84 1.382 . S
C83 H105 0.950 . S
C84 N80 1.332 . S
C84 C83 1.382 . S
C84 H86 0.952 . S
C85 N80 1.332 . S
C85 C81 1.382 . S
C85 H87 0.948 . S
H86 C84 0.952 . S
H87 C85 0.948 . S
H88 C77 0.952 . S
H89 C79 0.948 . S
C90 C56 1.395 . S
C90 C60 1.391 . S
C91 C53 1.389 . S
C91 C73 1.392 . S
C92 C63 1.392 . S
C92 C65 1.389 . S
C93 C68 1.395 . S
C93 C70 1.391 . S
H94 C54 0.951 . S
H95 C55 0.950 . S
H96 C61 0.949 . S
H97 C62 0.950 . S
H98 C66 0.951 . S
H99 C67 0.950 . S
H100 C71 0.949 . S
H101 C72 0.950 . S
H102 C76 0.950 . S
H103 C78 0.950 . S
H104 C81 0.950 . S
H105 C83 0.950 . S
C106 C107 1.443 . S
C106 N110 1.376 . S
C106 C144 1.389 . S
C107 C106 1.443 . S
C107 C108 1.340 . S
C107 H147 0.951 . S
C108 C107 1.340 . S
C108 C109 1.439 . S
C108 H148 0.950 . S
C109 C108 1.439 . S
C109 N110 1.374 . S
C109 C143 1.395 . S
N110 C106 1.376 . S
N110 C109 1.374 . S
N110 Co111 2.008 . S
Co111 N110 2.008 . S
Co111 N112 1.995 . S
Co111 N117 2.008 . S
Co111 N122 1.995 . S
Co111 N127 2.282 . S
Co111 N133 2.282 . S
N112 Co111 1.995 . S
N112 C113 1.376 . S
N112 C116 1.383 . S
C113 N112 1.376 . S
C113 C114 1.446 . S
C113 C143 1.391 . S
C114 C113 1.446 . S
C114 C115 1.339 . S
C114 H149 0.949 . S
C115 C114 1.339 . S
C115 C116 1.439 . S
C115 H150 0.950 . S
C116 N112 1.383 . S
C116 C115 1.439 . S
C116 C145 1.392 . S
N117 Co111 2.008 . S
N117 C118 1.376 . S
N117 C121 1.374 . S
C118 N117 1.376 . S
C118 C119 1.443 . S
C118 C145 1.389 . S
C119 C118 1.443 . S
C119 C120 1.340 . S
C119 H151 0.951 . S
C120 C119 1.340 . S
C120 C121 1.439 . S
C120 H152 0.950 . S
C121 N117 1.374 . S
C121 C120 1.439 . S
C121 C146 1.395 . S
N122 Co111 1.995 . S
N122 C123 1.376 . S
N122 C126 1.383 . S
C123 N122 1.376 . S
C123 C124 1.446 . S
C123 C146 1.391 . S
C124 C123 1.446 . S
C124 C125 1.339 . S
C124 H153 0.949 . S
C125 C124 1.339 . S
C125 C126 1.439 . S
C125 H154 0.950 . S
C126 N122 1.383 . S
C126 C125 1.439 . S
C126 C144 1.392 . S
N127 Co111 2.282 . S
N127 C130 1.332 . S
N127 C132 1.332 . S
C128 C129 1.386 . S
C128 C131 1.388 . S
C129 C128 1.386 . S
C129 C130 1.382 . S
C129 H155 0.950 . S
C130 N127 1.332 . S
C130 C129 1.382 . S
C130 H141 0.952 . S
C131 C128 1.388 . S
C131 C132 1.382 . S
C131 H156 0.950 . S
C132 N127 1.332 . S
C132 C131 1.382 . S
C132 H142 0.948 . S
N133 Co111 2.282 . S
N133 C137 1.332 . S
N133 C138 1.332 . S
C134 C135 1.388 . S
C134 C138 1.382 . S
C134 H157 0.950 . S
C135 C134 1.388 . S
C135 C136 1.386 . S
C136 C135 1.386 . S
C136 C137 1.382 . S
C136 H158 0.950 . S
C137 N133 1.332 . S
C137 C136 1.382 . S
C137 H139 0.952 . S
C138 N133 1.332 . S
C138 C134 1.382 . S
C138 H140 0.948 . S
H139 C137 0.952 . S
H140 C138 0.948 . S
H141 C130 0.952 . S
H142 C132 0.948 . S
C143 C109 1.395 . S
C143 C113 1.391 . S
C144 C106 1.389 . S
C144 C126 1.392 . S
C145 C116 1.392 . S
C145 C118 1.389 . S
C146 C121 1.395 . S
C146 C123 1.391 . S
H147 C107 0.951 . S
H148 C108 0.950 . S
H149 C114 0.949 . S
H150 C115 0.950 . S
H151 C119 0.951 . S
H152 C120 0.950 . S
H153 C124 0.949 . S
H154 C125 0.950 . S
H155 C129 0.950 . S
H156 C131 0.950 . S
H157 C134 0.950 . S
H158 C136 0.950 . S
C159 C160 1.443 . S
C159 N163 1.376 . S
C159 C197 1.389 . S
C160 C159 1.443 . S
C160 C161 1.340 . S
C160 H200 0.951 . S
C161 C160 1.340 . S
C161 C162 1.439 . S
C161 H201 0.950 . S
C162 C161 1.439 . S
C162 N163 1.374 . S
C162 C196 1.395 . S
N163 C159 1.376 . S
N163 C162 1.374 . S
N163 Co164 2.008 . S
Co164 N163 2.008 . S
Co164 N165 1.995 . S
Co164 N170 2.008 . S
Co164 N175 1.995 . S
Co164 N180 2.282 . S
Co164 N186 2.282 . S
N165 Co164 1.995 . S
N165 C166 1.376 . S
N165 C169 1.383 . S
C166 N165 1.376 . S
C166 C167 1.446 . S
C166 C196 1.391 . S
C167 C166 1.446 . S
C167 C168 1.339 . S
C167 H202 0.949 . S
C168 C167 1.339 . S
C168 C169 1.439 . S
C168 H203 0.950 . S
C169 N165 1.383 . S
C169 C168 1.439 . S
C169 C198 1.392 . S
N170 Co164 2.008 . S
N170 C171 1.376 . S
N170 C174 1.374 . S
C171 N170 1.376 . S
C171 C172 1.443 . S
C171 C198 1.389 . S
C172 C171 1.443 . S
C172 C173 1.340 . S
C172 H204 0.951 . S
C173 C172 1.340 . S
C173 C174 1.439 . S
C173 H205 0.950 . S
C174 N170 1.374 . S
C174 C173 1.439 . S
C174 C199 1.395 . S
N175 Co164 1.995 . S
N175 C176 1.376 . S
N175 C179 1.383 . S
C176 N175 1.376 . S
C176 C177 1.446 . S
C176 C199 1.391 . S
C177 C176 1.446 . S
C177 C178 1.339 . S
C177 H206 0.949 . S
C178 C177 1.339 . S
C178 C179 1.439 . S
C178 H207 0.950 . S
C179 N175 1.383 . S
C179 C178 1.439 . S
C179 C197 1.392 . S
N180 Co164 2.282 . S
N180 C183 1.332 . S
N180 C185 1.332 . S
C181 C182 1.386 . S
C181 C184 1.388 . S
C182 C181 1.386 . S
C182 C183 1.382 . S
C182 H208 0.950 . S
C183 N180 1.332 . S
C183 C182 1.382 . S
C183 H194 0.952 . S
C184 C181 1.388 . S
C184 C185 1.382 . S
C184 H209 0.950 . S
C185 N180 1.332 . S
C185 C184 1.382 . S
C185 H195 0.948 . S
N186 Co164 2.282 . S
N186 C190 1.332 . S
N186 C191 1.332 . S
C187 C188 1.388 . S
C187 C191 1.382 . S
C187 H210 0.950 . S
C188 C187 1.388 . S
C188 C189 1.386 . S
C189 C188 1.386 . S
C189 C190 1.382 . S
C189 H211 0.950 . S
C190 N186 1.332 . S
C190 C189 1.382 . S
C190 H192 0.952 . S
C191 N186 1.332 . S
C191 C187 1.382 . S
C191 H193 0.948 . S
H192 C190 0.952 . S
H193 C191 0.948 . S
H194 C183 0.952 . S
H195 C185 0.948 . S
C196 C162 1.395 . S
C196 C166 1.391 . S
C197 C159 1.389 . S
C197 C179 1.392 . S
C198 C169 1.392 . S
C198 C171 1.389 . S
C199 C174 1.395 . S
C199 C176 1.391 . S
H200 C160 0.951 . S
H201 C161 0.950 . S
H202 C167 0.949 . S
H203 C168 0.950 . S
H204 C172 0.951 . S
H205 C173 0.950 . S
H206 C177 0.949 . S
H207 C178 0.950 . S
H208 C182 0.950 . S
H209 C184 0.950 . S
H210 C187 0.950 . S
H211 C189 0.950 . S
C212 C213 1.443 . S
C212 N216 1.376 . S
C212 C250 1.389 . S
C213 C212 1.443 . S
C213 C214 1.340 . S
C213 H253 0.951 . S
C214 C213 1.340 . S
C214 C215 1.439 . S
C214 H254 0.950 . S
C215 C214 1.439 . S
C215 N216 1.374 . S
C215 C249 1.395 . S
N216 C212 1.376 . S
N216 C215 1.374 . S
N216 Co217 2.008 . S
Co217 N216 2.008 . S
Co217 N218 1.995 . S
Co217 N223 2.008 . S
Co217 N228 1.995 . S
Co217 N233 2.282 . S
Co217 N239 2.282 . S
N218 Co217 1.995 . S
N218 C219 1.376 . S
N218 C222 1.383 . S
C219 N218 1.376 . S
C219 C220 1.446 . S
C219 C249 1.391 . S
C220 C219 1.446 . S
C220 C221 1.339 . S
C220 H255 0.949 . S
C221 C220 1.339 . S
C221 C222 1.439 . S
C221 H256 0.950 . S
C222 N218 1.383 . S
C222 C221 1.439 . S
C222 C251 1.392 . S
N223 Co217 2.008 . S
N223 C224 1.376 . S
N223 C227 1.374 . S
C224 N223 1.376 . S
C224 C225 1.443 . S
C224 C251 1.389 . S
C225 C224 1.443 . S
C225 C226 1.340 . S
C225 H257 0.951 . S
C226 C225 1.340 . S
C226 C227 1.439 . S
C226 H258 0.950 . S
C227 N223 1.374 . S
C227 C226 1.439 . S
C227 C252 1.395 . S
N228 Co217 1.995 . S
N228 C229 1.376 . S
N228 C232 1.383 . S
C229 N228 1.376 . S
C229 C230 1.446 . S
C229 C252 1.391 . S
C230 C229 1.446 . S
C230 C231 1.339 . S
C230 H259 0.949 . S
C231 C230 1.339 . S
C231 C232 1.439 . S
C231 H260 0.950 . S
C232 N228 1.383 . S
C232 C231 1.439 . S
C232 C250 1.392 . S
N233 Co217 2.282 . S
N233 C236 1.332 . S
N233 C238 1.332 . S
C234 C235 1.386 . S
C234 C237 1.388 . S
C235 C234 1.386 . S
C235 C236 1.382 . S
C235 H261 0.950 . S
C236 N233 1.332 . S
C236 C235 1.382 . S
C236 H247 0.952 . S
C237 C234 1.388 . S
C237 C238 1.382 . S
C237 H262 0.950 . S
C238 N233 1.332 . S
C238 C237 1.382 . S
C238 H248 0.948 . S
N239 Co217 2.282 . S
N239 C243 1.332 . S
N239 C244 1.332 . S
C240 C241 1.388 . S
C240 C244 1.382 . S
C240 H263 0.950 . S
C241 C240 1.388 . S
C241 C242 1.386 . S
C242 C241 1.386 . S
C242 C243 1.382 . S
C242 H264 0.950 . S
C243 N239 1.332 . S
C243 C242 1.382 . S
C243 H245 0.952 . S
C244 N239 1.332 . S
C244 C240 1.382 . S
C244 H246 0.948 . S
H245 C243 0.952 . S
H246 C244 0.948 . S
H247 C236 0.952 . S
H248 C238 0.948 . S
C249 C215 1.395 . S
C249 C219 1.391 . S
C250 C212 1.389 . S
C250 C232 1.392 . S
C251 C222 1.392 . S
C251 C224 1.389 . S
C252 C227 1.395 . S
C252 C229 1.391 . S
H253 C213 0.951 . S
H254 C214 0.950 . S
H255 C220 0.949 . S
H256 C221 0.950 . S
H257 C225 0.951 . S
H258 C226 0.950 . S
H259 C230 0.949 . S
H260 C231 0.950 . S
H261 C235 0.950 . S
H262 C237 0.950 . S
H263 C240 0.950 . S
H264 C242 0.950 . S
C265 C266 1.443 . S
C265 N269 1.376 . S
C265 C303 1.389 . S
C266 C265 1.443 . S
C266 C267 1.340 . S
C266 H306 0.951 . S
C267 C266 1.340 . S
C267 C268 1.439 . S
C267 H307 0.950 . S
C268 C267 1.439 . S
C268 N269 1.374 . S
C268 C302 1.395 . S
N269 C265 1.376 . S
N269 C268 1.374 . S
N269 Co270 2.008 . S
Co270 N269 2.008 . S
Co270 N271 1.995 . S
Co270 N276 2.008 . S
Co270 N281 1.995 . S
Co270 N286 2.282 . S
Co270 N292 2.282 . S
N271 Co270 1.995 . S
N271 C272 1.376 . S
N271 C275 1.383 . S
C272 N271 1.376 . S
C272 C273 1.446 . S
C272 C302 1.391 . S
C273 C272 1.446 . S
C273 C274 1.339 . S
C273 H308 0.949 . S
C274 C273 1.339 . S
C274 C275 1.439 . S
C274 H309 0.950 . S
C275 N271 1.383 . S
C275 C274 1.439 . S
C275 C304 1.392 . S
N276 Co270 2.008 . S
N276 C277 1.376 . S
N276 C280 1.374 . S
C277 N276 1.376 . S
C277 C278 1.443 . S
C277 C304 1.389 . S
C278 C277 1.443 . S
C278 C279 1.340 . S
C278 H310 0.951 . S
C279 C278 1.340 . S
C279 C280 1.439 . S
C279 H311 0.950 . S
C280 N276 1.374 . S
C280 C279 1.439 . S
C280 C305 1.395 . S
N281 Co270 1.995 . S
N281 C282 1.376 . S
N281 C285 1.383 . S
C282 N281 1.376 . S
C282 C283 1.446 . S
C282 C305 1.391 . S
C283 C282 1.446 . S
C283 C284 1.339 . S
C283 H312 0.949 . S
C284 C283 1.339 . S
C284 C285 1.439 . S
C284 H313 0.950 . S
C285 N281 1.383 . S
C285 C284 1.439 . S
C285 C303 1.392 . S
N286 Co270 2.282 . S
N286 C289 1.332 . S
N286 C291 1.332 . S
C287 C288 1.386 . S
C287 C290 1.388 . S
C288 C287 1.386 . S
C288 C289 1.382 . S
C288 H314 0.950 . S
C289 N286 1.332 . S
C289 C288 1.382 . S
C289 H300 0.952 . S
C290 C287 1.388 . S
C290 C291 1.382 . S
C290 H315 0.950 . S
C291 N286 1.332 . S
C291 C290 1.382 . S
C291 H301 0.948 . S
N292 Co270 2.282 . S
N292 C296 1.332 . S
N292 C297 1.332 . S
C293 C294 1.388 . S
C293 C297 1.382 . S
C293 H316 0.950 . S
C294 C293 1.388 . S
C294 C295 1.386 . S
C295 C294 1.386 . S
C295 C296 1.382 . S
C295 H317 0.950 . S
C296 N292 1.332 . S
C296 C295 1.382 . S
C296 H298 0.952 . S
C297 N292 1.332 . S
C297 C293 1.382 . S
C297 H299 0.948 . S
H298 C296 0.952 . S
H299 C297 0.948 . S
H300 C289 0.952 . S
H301 C291 0.948 . S
C302 C268 1.395 . S
C302 C272 1.391 . S
C303 C265 1.389 . S
C303 C285 1.392 . S
C304 C275 1.392 . S
C304 C277 1.389 . S
C305 C280 1.395 . S
C305 C282 1.391 . S
H306 C266 0.951 . S
H307 C267 0.950 . S
H308 C273 0.949 . S
H309 C274 0.950 . S
H310 C278 0.951 . S
H311 C279 0.950 . S
H312 C283 0.949 . S
H313 C284 0.950 . S
H314 C288 0.950 . S
H315 C290 0.950 . S
H316 C293 0.950 . S
H317 C295 0.950 . S
C318 C319 1.443 . S
C318 N322 1.376 . S
C318 C356 1.389 . S
C319 C318 1.443 . S
C319 C320 1.340 . S
C319 H359 0.951 . S
C320 C319 1.340 . S
C320 C321 1.439 . S
C320 H360 0.950 . S
C321 C320 1.439 . S
C321 N322 1.374 . S
C321 C355 1.395 . S
N322 C318 1.376 . S
N322 C321 1.374 . S
N322 Co323 2.008 . S
Co323 N322 2.008 . S
Co323 N324 1.995 . S
Co323 N329 2.008 . S
Co323 N334 1.995 . S
Co323 N339 2.282 . S
Co323 N345 2.282 . S
N324 Co323 1.995 . S
N324 C325 1.376 . S
N324 C328 1.383 . S
C325 N324 1.376 . S
C325 C326 1.446 . S
C325 C355 1.391 . S
C326 C325 1.446 . S
C326 C327 1.339 . S
C326 H361 0.949 . S
C327 C326 1.339 . S
C327 C328 1.439 . S
C327 H362 0.950 . S
C328 N324 1.383 . S
C328 C327 1.439 . S
C328 C357 1.392 . S
N329 Co323 2.008 . S
N329 C330 1.376 . S
N329 C333 1.374 . S
C330 N329 1.376 . S
C330 C331 1.443 . S
C330 C357 1.389 . S
C331 C330 1.443 . S
C331 C332 1.340 . S
C331 H363 0.951 . S
C332 C331 1.340 . S
C332 C333 1.439 . S
C332 H364 0.950 . S
C333 N329 1.374 . S
C333 C332 1.439 . S
C333 C358 1.395 . S
N334 Co323 1.995 . S
N334 C335 1.376 . S
N334 C338 1.383 . S
C335 N334 1.376 . S
C335 C336 1.446 . S
C335 C358 1.391 . S
C336 C335 1.446 . S
C336 C337 1.339 . S
C336 H365 0.949 . S
C337 C336 1.339 . S
C337 C338 1.439 . S
C337 H366 0.950 . S
C338 N334 1.383 . S
C338 C337 1.439 . S
C338 C356 1.392 . S
N339 Co323 2.282 . S
N339 C342 1.332 . S
N339 C344 1.332 . S
C340 C341 1.386 . S
C340 C343 1.388 . S
C341 C340 1.386 . S
C341 C342 1.382 . S
C341 H367 0.950 . S
C342 N339 1.332 . S
C342 C341 1.382 . S
C342 H353 0.952 . S
C343 C340 1.388 . S
C343 C344 1.382 . S
C343 H368 0.950 . S
C344 N339 1.332 . S
C344 C343 1.382 . S
C344 H354 0.948 . S
N345 Co323 2.282 . S
N345 C349 1.332 . S
N345 C350 1.332 . S
C346 C347 1.388 . S
C346 C350 1.382 . S
C346 H369 0.950 . S
C347 C346 1.388 . S
C347 C348 1.386 . S
C348 C347 1.386 . S
C348 C349 1.382 . S
C348 H370 0.950 . S
C349 N345 1.332 . S
C349 C348 1.382 . S
C349 H351 0.952 . S
C350 N345 1.332 . S
C350 C346 1.382 . S
C350 H352 0.948 . S
H351 C349 0.952 . S
H352 C350 0.948 . S
H353 C342 0.952 . S
H354 C344 0.948 . S
C355 C321 1.395 . S
C355 C325 1.391 . S
C356 C318 1.389 . S
C356 C338 1.392 . S
C357 C328 1.392 . S
C357 C330 1.389 . S
C358 C333 1.395 . S
C358 C335 1.391 . S
H359 C319 0.951 . S
H360 C320 0.950 . S
H361 C326 0.949 . S
H362 C327 0.950 . S
H363 C331 0.951 . S
H364 C332 0.950 . S
H365 C336 0.949 . S
H366 C337 0.950 . S
H367 C341 0.950 . S
H368 C343 0.950 . S
H369 C346 0.950 . S
H370 C348 0.950 . S
C371 C372 1.443 . S
C371 N375 1.376 . S
C371 C409 1.389 . S
C372 C371 1.443 . S
C372 C373 1.340 . S
C372 H412 0.951 . S
C373 C372 1.340 . S
C373 C374 1.439 . S
C373 H413 0.950 . S
C374 C373 1.439 . S
C374 N375 1.374 . S
C374 C408 1.395 . S
N375 C371 1.376 . S
N375 C374 1.374 . S
N375 Co376 2.008 . S
Co376 N375 2.008 . S
Co376 N377 1.995 . S
Co376 N382 2.008 . S
Co376 N387 1.995 . S
Co376 N392 2.282 . S
Co376 N398 2.282 . S
N377 Co376 1.995 . S
N377 C378 1.376 . S
N377 C381 1.383 . S
C378 N377 1.376 . S
C378 C379 1.446 . S
C378 C408 1.391 . S
C379 C378 1.446 . S
C379 C380 1.339 . S
C379 H414 0.949 . S
C380 C379 1.339 . S
C380 C381 1.439 . S
C380 H415 0.950 . S
C381 N377 1.383 . S
C381 C380 1.439 . S
C381 C410 1.392 . S
N382 Co376 2.008 . S
N382 C383 1.376 . S
N382 C386 1.374 . S
C383 N382 1.376 . S
C383 C384 1.443 . S
C383 C410 1.389 . S
C384 C383 1.443 . S
C384 C385 1.340 . S
C384 H416 0.951 . S
C385 C384 1.340 . S
C385 C386 1.439 . S
C385 H417 0.950 . S
C386 N382 1.374 . S
C386 C385 1.439 . S
C386 C411 1.395 . S
N387 Co376 1.995 . S
N387 C388 1.376 . S
N387 C391 1.383 . S
C388 N387 1.376 . S
C388 C389 1.446 . S
C388 C411 1.391 . S
C389 C388 1.446 . S
C389 C390 1.339 . S
C389 H418 0.949 . S
C390 C389 1.339 . S
C390 C391 1.439 . S
C390 H419 0.950 . S
C391 N387 1.383 . S
C391 C390 1.439 . S
C391 C409 1.392 . S
N392 Co376 2.282 . S
N392 C395 1.332 . S
N392 C397 1.332 . S
C393 C394 1.386 . S
C393 C396 1.388 . S
C394 C393 1.386 . S
C394 C395 1.382 . S
C394 H420 0.950 . S
C395 N392 1.332 . S
C395 C394 1.382 . S
C395 H406 0.952 . S
C396 C393 1.388 . S
C396 C397 1.382 . S
C396 H421 0.950 . S
C397 N392 1.332 . S
C397 C396 1.382 . S
C397 H407 0.948 . S
N398 Co376 2.282 . S
N398 C402 1.332 . S
N398 C403 1.332 . S
C399 C400 1.388 . S
C399 C403 1.382 . S
C399 H422 0.950 . S
C400 C399 1.388 . S
C400 C401 1.386 . S
C401 C400 1.386 . S
C401 C402 1.382 . S
C401 H423 0.950 . S
C402 N398 1.332 . S
C402 C401 1.382 . S
C402 H404 0.952 . S
C403 N398 1.332 . S
C403 C399 1.382 . S
C403 H405 0.948 . S
H404 C402 0.952 . S
H405 C403 0.948 . S
H406 C395 0.952 . S
H407 C397 0.948 . S
C408 C374 1.395 . S
C408 C378 1.391 . S
C409 C371 1.389 . S
C409 C391 1.392 . S
C410 C381 1.392 . S
C410 C383 1.389 . S
C411 C386 1.395 . S
C411 C388 1.391 . S
H412 C372 0.951 . S
H413 C373 0.950 . S
H414 C379 0.949 . S
H415 C380 0.950 . S
H416 C384 0.951 . S
H417 C385 0.950 . S
H418 C389 0.949 . S
H419 C390 0.950 . S
H420 C394 0.950 . S
H421 C396 0.950 . S
H422 C399 0.950 . S
H423 C401 0.950 . S
C424 C425 1.443 . S
C424 N428 1.376 . S
C424 C462 1.389 . S
C425 C424 1.443 . S
C425 C426 1.340 . S
C425 H465 0.951 . S
C426 C425 1.340 . S
C426 C427 1.439 . S
C426 H466 0.950 . S
C427 C426 1.439 . S
C427 N428 1.374 . S
C427 C461 1.395 . S
N428 C424 1.376 . S
N428 C427 1.374 . S
N428 Co429 2.008 . S
Co429 N428 2.008 . S
Co429 N430 1.995 . S
Co429 N435 2.008 . S
Co429 N440 1.995 . S
Co429 N445 2.282 . S
Co429 N451 2.282 . S
N430 Co429 1.995 . S
N430 C431 1.376 . S
N430 C434 1.383 . S
C431 N430 1.376 . S
C431 C432 1.446 . S
C431 C461 1.391 . S
C432 C431 1.446 . S
C432 C433 1.339 . S
C432 H467 0.949 . S
C433 C432 1.339 . S
C433 C434 1.439 . S
C433 H468 0.950 . S
C434 N430 1.383 . S
C434 C433 1.439 . S
C434 C463 1.392 . S
N435 Co429 2.008 . S
N435 C436 1.376 . S
N435 C439 1.374 . S
C436 N435 1.376 . S
C436 C437 1.443 . S
C436 C463 1.389 . S
C437 C436 1.443 . S
C437 C438 1.340 . S
C437 H469 0.951 . S
C438 C437 1.340 . S
C438 C439 1.439 . S
C438 H470 0.950 . S
C439 N435 1.374 . S
C439 C438 1.439 . S
C439 C464 1.395 . S
N440 Co429 1.995 . S
N440 C441 1.376 . S
N440 C444 1.383 . S
C441 N440 1.376 . S
C441 C442 1.446 . S
C441 C464 1.391 . S
C442 C441 1.446 . S
C442 C443 1.339 . S
C442 H471 0.949 . S
C443 C442 1.339 . S
C443 C444 1.439 . S
C443 H472 0.950 . S
C444 N440 1.383 . S
C444 C443 1.439 . S
C444 C462 1.392 . S
N445 Co429 2.282 . S
N445 C448 1.332 . S
N445 C450 1.332 . S
C446 C447 1.386 . S
C446 C449 1.388 . S
C447 C446 1.386 . S
C447 C448 1.382 . S
C447 H473 0.950 . S
C448 N445 1.332 . S
C448 C447 1.382 . S
C448 H459 0.952 . S
C449 C446 1.388 . S
C449 C450 1.382 . S
C449 H474 0.950 . S
C450 N445 1.332 . S
C450 C449 1.382 . S
C450 H460 0.948 . S
N451 Co429 2.282 . S
N451 C455 1.332 . S
N451 C456 1.332 . S
C452 C453 1.388 . S
C452 C456 1.382 . S
C452 H475 0.950 . S
C453 C452 1.388 . S
C453 C454 1.386 . S
C454 C453 1.386 . S
C454 C455 1.382 . S
C454 H476 0.950 . S
C455 N451 1.332 . S
C455 C454 1.382 . S
C455 H457 0.952 . S
C456 N451 1.332 . S
C456 C452 1.382 . S
C456 H458 0.948 . S
H457 C455 0.952 . S
H458 C456 0.948 . S
H459 C448 0.952 . S
H460 C450 0.948 . S
C461 C427 1.395 . S
C461 C431 1.391 . S
C462 C424 1.389 . S
C462 C444 1.392 . S
C463 C434 1.392 . S
C463 C436 1.389 . S
C464 C439 1.395 . S
C464 C441 1.391 . S
H465 C425 0.951 . S
H466 C426 0.950 . S
H467 C432 0.949 . S
H468 C433 0.950 . S
H469 C437 0.951 . S
H470 C438 0.950 . S
H471 C442 0.949 . S
H472 C443 0.950 . S
H473 C447 0.950 . S
H474 C449 0.950 . S
H475 C452 0.950 . S
H476 C454 0.950 . S
C477 C478 1.443 . S
C477 N481 1.376 . S
C477 C515 1.389 . S
C478 C477 1.443 . S
C478 C479 1.340 . S
C478 H518 0.951 . S
C479 C478 1.340 . S
C479 C480 1.439 . S
C479 H519 0.950 . S
C480 C479 1.439 . S
C480 N481 1.374 . S
C480 C514 1.395 . S
N481 C477 1.376 . S
N481 C480 1.374 . S
N481 Co482 2.008 . S
Co482 N481 2.008 . S
Co482 N483 1.995 . S
Co482 N488 2.008 . S
Co482 N493 1.995 . S
Co482 N498 2.282 . S
Co482 N504 2.282 . S
N483 Co482 1.995 . S
N483 C484 1.376 . S
N483 C487 1.383 . S
C484 N483 1.376 . S
C484 C485 1.446 . S
C484 C514 1.391 . S
C485 C484 1.446 . S
C485 C486 1.339 . S
C485 H520 0.949 . S
C486 C485 1.339 . S
C486 C487 1.439 . S
C486 H521 0.950 . S
C487 N483 1.383 . S
C487 C486 1.439 . S
C487 C516 1.392 . S
N488 Co482 2.008 . S
N488 C489 1.376 . S
N488 C492 1.374 . S
C489 N488 1.376 . S
C489 C490 1.443 . S
C489 C516 1.389 . S
C490 C489 1.443 . S
C490 C491 1.340 . S
C490 H522 0.951 . S
C491 C490 1.340 . S
C491 C492 1.439 . S
C491 H523 0.950 . S
C492 N488 1.374 . S
C492 C491 1.439 . S
C492 C517 1.395 . S
N493 Co482 1.995 . S
N493 C494 1.376 . S
N493 C497 1.383 . S
C494 N493 1.376 . S
C494 C495 1.446 . S
C494 C517 1.391 . S
C495 C494 1.446 . S
C495 C496 1.339 . S
C495 H524 0.949 . S
C496 C495 1.339 . S
C496 C497 1.439 . S
C496 H525 0.950 . S
C497 N493 1.383 . S
C497 C496 1.439 . S
C497 C515 1.392 . S
N498 Co482 2.282 . S
N498 C501 1.332 . S
N498 C503 1.332 . S
C499 C500 1.386 . S
C499 C502 1.388 . S
C500 C499 1.386 . S
C500 C501 1.382 . S
C500 H526 0.950 . S
C501 N498 1.332 . S
C501 C500 1.382 . S
C501 H512 0.952 . S
C502 C499 1.388 . S
C502 C503 1.382 . S
C502 H527 0.950 . S
C503 N498 1.332 . S
C503 C502 1.382 . S
C503 H513 0.948 . S
N504 Co482 2.282 . S
N504 C508 1.332 . S
N504 C509 1.332 . S
C505 C506 1.388 . S
C505 C509 1.382 . S
C505 H528 0.950 . S
C506 C505 1.388 . S
C506 C507 1.386 . S
C507 C506 1.386 . S
C507 C508 1.382 . S
C507 H529 0.950 . S
C508 N504 1.332 . S
C508 C507 1.382 . S
C508 H510 0.952 . S
C509 N504 1.332 . S
C509 C505 1.382 . S
C509 H511 0.948 . S
H510 C508 0.952 . S
H511 C509 0.948 . S
H512 C501 0.952 . S
H513 C503 0.948 . S
C514 C480 1.395 . S
C514 C484 1.391 . S
C515 C477 1.389 . S
C515 C497 1.392 . S
C516 C487 1.392 . S
C516 C489 1.389 . S
C517 C492 1.395 . S
C517 C494 1.391 . S
H518 C478 0.951 . S
H519 C479 0.950 . S
H520 C485 0.949 . S
H521 C486 0.950 . S
H522 C490 0.951 . S
H523 C491 0.950 . S
H524 C495 0.949 . S
H525 C496 0.950 . S
H526 C500 0.950 . S
H527 C502 0.950 . S
H528 C505 0.950 . S
H529 C507 0.950 . S
C530 C531 1.443 . S
C530 N534 1.376 . S
C530 C568 1.389 . S
C531 C530 1.443 . S
C531 C532 1.340 . S
C531 H571 0.951 . S
C532 C531 1.340 . S
C532 C533 1.439 . S
C532 H572 0.950 . S
C533 C532 1.439 . S
C533 N534 1.374 . S
C533 C567 1.395 . S
N534 C530 1.376 . S
N534 C533 1.374 . S
N534 Co535 2.008 . S
Co535 N534 2.008 . S
Co535 N536 1.995 . S
Co535 N541 2.008 . S
Co535 N546 1.995 . S
Co535 N551 2.282 . S
Co535 N557 2.282 . S
N536 Co535 1.995 . S
N536 C537 1.376 . S
N536 C540 1.383 . S
C537 N536 1.376 . S
C537 C538 1.446 . S
C537 C567 1.391 . S
C538 C537 1.446 . S
C538 C539 1.339 . S
C538 H573 0.949 . S
C539 C538 1.339 . S
C539 C540 1.439 . S
C539 H574 0.950 . S
C540 N536 1.383 . S
C540 C539 1.439 . S
C540 C569 1.392 . S
N541 Co535 2.008 . S
N541 C542 1.376 . S
N541 C545 1.374 . S
C542 N541 1.376 . S
C542 C543 1.443 . S
C542 C569 1.389 . S
C543 C542 1.443 . S
C543 C544 1.340 . S
C543 H575 0.951 . S
C544 C543 1.340 . S
C544 C545 1.439 . S
C544 H576 0.950 . S
C545 N541 1.374 . S
C545 C544 1.439 . S
C545 C570 1.395 . S
N546 Co535 1.995 . S
N546 C547 1.376 . S
N546 C550 1.383 . S
C547 N546 1.376 . S
C547 C548 1.446 . S
C547 C570 1.391 . S
C548 C547 1.446 . S
C548 C549 1.339 . S
C548 H577 0.949 . S
C549 C548 1.339 . S
C549 C550 1.439 . S
C549 H578 0.950 . S
C550 N546 1.383 . S
C550 C549 1.439 . S
C550 C568 1.392 . S
N551 Co535 2.282 . S
N551 C554 1.332 . S
N551 C556 1.332 . S
C552 C553 1.386 . S
C552 C555 1.388 . S
C553 C552 1.386 . S
C553 C554 1.382 . S
C553 H579 0.950 . S
C554 N551 1.332 . S
C554 C553 1.382 . S
C554 H565 0.952 . S
C555 C552 1.388 . S
C555 C556 1.382 . S
C555 H580 0.950 . S
C556 N551 1.332 . S
C556 C555 1.382 . S
C556 H566 0.948 . S
N557 Co535 2.282 . S
N557 C561 1.332 . S
N557 C562 1.332 . S
C558 C559 1.388 . S
C558 C562 1.382 . S
C558 H581 0.950 . S
C559 C558 1.388 . S
C559 C560 1.386 . S
C560 C559 1.386 . S
C560 C561 1.382 . S
C560 H582 0.950 . S
C561 N557 1.332 . S
C561 C560 1.382 . S
C561 H563 0.952 . S
C562 N557 1.332 . S
C562 C558 1.382 . S
C562 H564 0.948 . S
H563 C561 0.952 . S
H564 C562 0.948 . S
H565 C554 0.952 . S
H566 C556 0.948 . S
C567 C533 1.395 . S
C567 C537 1.391 . S
C568 C530 1.389 . S
C568 C550 1.392 . S
C569 C540 1.392 . S
C569 C542 1.389 . S
C570 C545 1.395 . S
C570 C547 1.391 . S
H571 C531 0.951 . S
H572 C532 0.950 . S
H573 C538 0.949 . S
H574 C539 0.950 . S
H575 C543 0.951 . S
H576 C544 0.950 . S
H577 C548 0.949 . S
H578 C549 0.950 . S
H579 C553 0.950 . S
H580 C555 0.950 . S
H581 C558 0.950 . S
H582 C560 0.950 . S
C583 C584 1.443 . S
C583 N587 1.376 . S
C583 C621 1.389 . S
C584 C583 1.443 . S
C584 C585 1.340 . S
C584 H624 0.951 . S
C585 C584 1.340 . S
C585 C586 1.439 . S
C585 H625 0.950 . S
C586 C585 1.439 . S
C586 N587 1.374 . S
C586 C620 1.395 . S
N587 C583 1.376 . S
N587 C586 1.374 . S
N587 Co588 2.008 . S
Co588 N587 2.008 . S
Co588 N589 1.995 . S
Co588 N594 2.008 . S
Co588 N599 1.995 . S
Co588 N604 2.282 . S
Co588 N610 2.282 . S
N589 Co588 1.995 . S
N589 C590 1.376 . S
N589 C593 1.383 . S
C590 N589 1.376 . S
C590 C591 1.446 . S
C590 C620 1.391 . S
C591 C590 1.446 . S
C591 C592 1.339 . S
C591 H626 0.949 . S
C592 C591 1.339 . S
C592 C593 1.439 . S
C592 H627 0.950 . S
C593 N589 1.383 . S
C593 C592 1.439 . S
C593 C622 1.392 . S
N594 Co588 2.008 . S
N594 C595 1.376 . S
N594 C598 1.374 . S
C595 N594 1.376 . S
C595 C596 1.443 . S
C595 C622 1.389 . S
C596 C595 1.443 . S
C596 C597 1.340 . S
C596 H628 0.951 . S
C597 C596 1.340 . S
C597 C598 1.439 . S
C597 H629 0.950 . S
C598 N594 1.374 . S
C598 C597 1.439 . S
C598 C623 1.395 . S
N599 Co588 1.995 . S
N599 C600 1.376 . S
N599 C603 1.383 . S
C600 N599 1.376 . S
C600 C601 1.446 . S
C600 C623 1.391 . S
C601 C600 1.446 . S
C601 C602 1.339 . S
C601 H630 0.949 . S
C602 C601 1.339 . S
C602 C603 1.439 . S
C602 H631 0.950 . S
C603 N599 1.383 . S
C603 C602 1.439 . S
C603 C621 1.392 . S
N604 Co588 2.282 . S
N604 C607 1.332 . S
N604 C609 1.332 . S
C605 C606 1.386 . S
C605 C608 1.388 . S
C606 C605 1.386 . S
C606 C607 1.382 . S
C606 H632 0.950 . S
C607 N604 1.332 . S
C607 C606 1.382 . S
C607 H618 0.952 . S
C608 C605 1.388 . S
C608 C609 1.382 . S
C608 H633 0.950 . S
C609 N604 1.332 . S
C609 C608 1.382 . S
C609 H619 0.948 . S
N610 Co588 2.282 . S
N610 C614 1.332 . S
N610 C615 1.332 . S
C611 C612 1.388 . S
C611 C615 1.382 . S
C611 H634 0.950 . S
C612 C611 1.388 . S
C612 C613 1.386 . S
C613 C612 1.386 . S
C613 C614 1.382 . S
C613 H635 0.950 . S
C614 N610 1.332 . S
C614 C613 1.382 . S
C614 H616 0.952 . S
C615 N610 1.332 . S
C615 C611 1.382 . S
C615 H617 0.948 . S
H616 C614 0.952 . S
H617 C615 0.948 . S
H618 C607 0.952 . S
H619 C609 0.948 . S
C620 C586 1.395 . S
C620 C590 1.391 . S
C621 C583 1.389 . S
C621 C603 1.392 . S
C622 C593 1.392 . S
C622 C595 1.389 . S
C623 C598 1.395 . S
C623 C600 1.391 . S
H624 C584 0.951 . S
H625 C585 0.950 . S
H626 C591 0.949 . S
H627 C592 0.950 . S
H628 C596 0.951 . S
H629 C597 0.950 . S
H630 C601 0.949 . S
H631 C602 0.950 . S
H632 C606 0.950 . S
H633 C608 0.950 . S
H634 C611 0.950 . S
H635 C613 0.950 . S
C636 C637 1.443 . S
C636 N640 1.376 . S
C636 C674 1.389 . S
C637 C636 1.443 . S
C637 C638 1.340 . S
C637 H677 0.951 . S
C638 C637 1.340 . S
C638 C639 1.439 . S
C638 H678 0.950 . S
C639 C638 1.439 . S
C639 N640 1.374 . S
C639 C673 1.395 . S
N640 C636 1.376 . S
N640 C639 1.374 . S
N640 Co641 2.008 . S
Co641 N640 2.008 . S
Co641 N642 1.995 . S
Co641 N647 2.008 . S
Co641 N652 1.995 . S
Co641 N657 2.282 . S
Co641 N663 2.282 . S
N642 Co641 1.995 . S
N642 C643 1.376 . S
N642 C646 1.383 . S
C643 N642 1.376 . S
C643 C644 1.446 . S
C643 C673 1.391 . S
C644 C643 1.446 . S
C644 C645 1.339 . S
C644 H679 0.949 . S
C645 C644 1.339 . S
C645 C646 1.439 . S
C645 H680 0.950 . S
C646 N642 1.383 . S
C646 C645 1.439 . S
C646 C675 1.392 . S
N647 Co641 2.008 . S
N647 C648 1.376 . S
N647 C651 1.374 . S
C648 N647 1.376 . S
C648 C649 1.443 . S
C648 C675 1.389 . S
C649 C648 1.443 . S
C649 C650 1.340 . S
C649 H681 0.951 . S
C650 C649 1.340 . S
C650 C651 1.439 . S
C650 H682 0.950 . S
C651 N647 1.374 . S
C651 C650 1.439 . S
C651 C676 1.395 . S
N652 Co641 1.995 . S
N652 C653 1.376 . S
N652 C656 1.383 . S
C653 N652 1.376 . S
C653 C654 1.446 . S
C653 C676 1.391 . S
C654 C653 1.446 . S
C654 C655 1.339 . S
C654 H683 0.949 . S
C655 C654 1.339 . S
C655 C656 1.439 . S
C655 H684 0.950 . S
C656 N652 1.383 . S
C656 C655 1.439 . S
C656 C674 1.392 . S
N657 Co641 2.282 . S
N657 C660 1.332 . S
N657 C662 1.332 . S
C658 C659 1.386 . S
C658 C661 1.388 . S
C659 C658 1.386 . S
C659 C660 1.382 . S
C659 H685 0.950 . S
C660 N657 1.332 . S
C660 C659 1.382 . S
C660 H671 0.952 . S
C661 C658 1.388 . S
C661 C662 1.382 . S
C661 H686 0.950 . S
C662 N657 1.332 . S
C662 C661 1.382 . S
C662 H672 0.948 . S
N663 Co641 2.282 . S
N663 C667 1.332 . S
N663 C668 1.332 . S
C664 C665 1.388 . S
C664 C668 1.382 . S
C664 H687 0.950 . S
C665 C664 1.388 . S
C665 C666 1.386 . S
C666 C665 1.386 . S
C666 C667 1.382 . S
C666 H688 0.950 . S
C667 N663 1.332 . S
C667 C666 1.382 . S
C667 H669 0.952 . S
C668 N663 1.332 . S
C668 C664 1.382 . S
C668 H670 0.948 . S
H669 C667 0.952 . S
H670 C668 0.948 . S
H671 C660 0.952 . S
H672 C662 0.948 . S
C673 C639 1.395 . S
C673 C643 1.391 . S
C674 C636 1.389 . S
C674 C656 1.392 . S
C675 C646 1.392 . S
C675 C648 1.389 . S
C676 C651 1.395 . S
C676 C653 1.391 . S
H677 C637 0.951 . S
H678 C638 0.950 . S
H679 C644 0.949 . S
H680 C645 0.950 . S
H681 C649 0.951 . S
H682 C650 0.950 . S
H683 C654 0.949 . S
H684 C655 0.950 . S
H685 C659 0.950 . S
H686 C661 0.950 . S
H687 C664 0.950 . S
H688 C666 0.950 . S
C689 C690 1.443 . S
C689 N693 1.376 . S
C689 C727 1.389 . S
C690 C689 1.443 . S
C690 C691 1.340 . S
C690 H730 0.951 . S
C691 C690 1.340 . S
C691 C692 1.439 . S
C691 H731 0.950 . S
C692 C691 1.439 . S
C692 N693 1.374 . S
C692 C726 1.395 . S
N693 C689 1.376 . S
N693 C692 1.374 . S
N693 Co694 2.008 . S
Co694 N693 2.008 . S
Co694 N695 1.995 . S
Co694 N700 2.008 . S
Co694 N705 1.995 . S
Co694 N710 2.282 . S
Co694 N716 2.282 . S
N695 Co694 1.995 . S
N695 C696 1.376 . S
N695 C699 1.383 . S
C696 N695 1.376 . S
C696 C697 1.446 . S
C696 C726 1.391 . S
C697 C696 1.446 . S
C697 C698 1.339 . S
C697 H732 0.949 . S
C698 C697 1.339 . S
C698 C699 1.439 . S
C698 H733 0.950 . S
C699 N695 1.383 . S
C699 C698 1.439 . S
C699 C728 1.392 . S
N700 Co694 2.008 . S
N700 C701 1.376 . S
N700 C704 1.374 . S
C701 N700 1.376 . S
C701 C702 1.443 . S
C701 C728 1.389 . S
C702 C701 1.443 . S
C702 C703 1.340 . S
C702 H734 0.951 . S
C703 C702 1.340 . S
C703 C704 1.439 . S
C703 H735 0.950 . S
C704 N700 1.374 . S
C704 C703 1.439 . S
C704 C729 1.395 . S
N705 Co694 1.995 . S
N705 C706 1.376 . S
N705 C709 1.383 . S
C706 N705 1.376 . S
C706 C707 1.446 . S
C706 C729 1.391 . S
C707 C706 1.446 . S
C707 C708 1.339 . S
C707 H736 0.949 . S
C708 C707 1.339 . S
C708 C709 1.439 . S
C708 H737 0.950 . S
C709 N705 1.383 . S
C709 C708 1.439 . S
C709 C727 1.392 . S
N710 Co694 2.282 . S
N710 C713 1.332 . S
N710 C715 1.332 . S
C711 C712 1.386 . S
C711 C714 1.388 . S
C712 C711 1.386 . S
C712 C713 1.382 . S
C712 H738 0.950 . S
C713 N710 1.332 . S
C713 C712 1.382 . S
C713 H724 0.952 . S
C714 C711 1.388 . S
C714 C715 1.382 . S
C714 H739 0.950 . S
C715 N710 1.332 . S
C715 C714 1.382 . S
C715 H725 0.948 . S
N716 Co694 2.282 . S
N716 C720 1.332 . S
N716 C721 1.332 . S
C717 C718 1.388 . S
C717 C721 1.382 . S
C717 H740 0.950 . S
C718 C717 1.388 . S
C718 C719 1.386 . S
C719 C718 1.386 . S
C719 C720 1.382 . S
C719 H741 0.950 . S
C720 N716 1.332 . S
C720 C719 1.382 . S
C720 H722 0.952 . S
C721 N716 1.332 . S
C721 C717 1.382 . S
C721 H723 0.948 . S
H722 C720 0.952 . S
H723 C721 0.948 . S
H724 C713 0.952 . S
H725 C715 0.948 . S
C726 C692 1.395 . S
C726 C696 1.391 . S
C727 C689 1.389 . S
C727 C709 1.392 . S
C728 C699 1.392 . S
C728 C701 1.389 . S
C729 C704 1.395 . S
C729 C706 1.391 . S
H730 C690 0.951 . S
H731 C691 0.950 . S
H732 C697 0.949 . S
H733 C698 0.950 . S
H734 C702 0.951 . S
H735 C703 0.950 . S
H736 C707 0.949 . S
H737 C708 0.950 . S
H738 C712 0.950 . S
H739 C714 0.950 . S
H740 C717 0.950 . S
H741 C719 0.950 . S
C742 C743 1.443 . S
C742 N746 1.376 . S
C742 C780 1.389 . S
C743 C742 1.443 . S
C743 C744 1.340 . S
C743 H783 0.951 . S
C744 C743 1.340 . S
C744 C745 1.439 . S
C744 H784 0.950 . S
C745 C744 1.439 . S
C745 N746 1.374 . S
C745 C779 1.395 . S
N746 C742 1.376 . S
N746 C745 1.374 . S
N746 Co747 2.008 . S
Co747 N746 2.008 . S
Co747 N748 1.995 . S
Co747 N753 2.008 . S
Co747 N758 1.995 . S
Co747 N763 2.282 . S
Co747 N769 2.282 . S
N748 Co747 1.995 . S
N748 C749 1.376 . S
N748 C752 1.383 . S
C749 N748 1.376 . S
C749 C750 1.446 . S
C749 C779 1.391 . S
C750 C749 1.446 . S
C750 C751 1.339 . S
C750 H785 0.949 . S
C751 C750 1.339 . S
C751 C752 1.439 . S
C751 H786 0.950 . S
C752 N748 1.383 . S
C752 C751 1.439 . S
C752 C781 1.392 . S
N753 Co747 2.008 . S
N753 C754 1.376 . S
N753 C757 1.374 . S
C754 N753 1.376 . S
C754 C755 1.443 . S
C754 C781 1.389 . S
C755 C754 1.443 . S
C755 C756 1.340 . S
C755 H787 0.951 . S
C756 C755 1.340 . S
C756 C757 1.439 . S
C756 H788 0.950 . S
C757 N753 1.374 . S
C757 C756 1.439 . S
C757 C782 1.395 . S
N758 Co747 1.995 . S
N758 C759 1.376 . S
N758 C762 1.383 . S
C759 N758 1.376 . S
C759 C760 1.446 . S
C759 C782 1.391 . S
C760 C759 1.446 . S
C760 C761 1.339 . S
C760 H789 0.949 . S
C761 C760 1.339 . S
C761 C762 1.439 . S
C761 H790 0.950 . S
C762 N758 1.383 . S
C762 C761 1.439 . S
C762 C780 1.392 . S
N763 Co747 2.282 . S
N763 C766 1.332 . S
N763 C768 1.332 . S
C764 C765 1.386 . S
C764 C767 1.388 . S
C765 C764 1.386 . S
C765 C766 1.382 . S
C765 H791 0.950 . S
C766 N763 1.332 . S
C766 C765 1.382 . S
C766 H777 0.952 . S
C767 C764 1.388 . S
C767 C768 1.382 . S
C767 H792 0.950 . S
C768 N763 1.332 . S
C768 C767 1.382 . S
C768 H778 0.948 . S
N769 Co747 2.282 . S
N769 C773 1.332 . S
N769 C774 1.332 . S
C770 C771 1.388 . S
C770 C774 1.382 . S
C770 H793 0.950 . S
C771 C770 1.388 . S
C771 C772 1.386 . S
C772 C771 1.386 . S
C772 C773 1.382 . S
C772 H794 0.950 . S
C773 N769 1.332 . S
C773 C772 1.382 . S
C773 H775 0.952 . S
C774 N769 1.332 . S
C774 C770 1.382 . S
C774 H776 0.948 . S
H775 C773 0.952 . S
H776 C774 0.948 . S
H777 C766 0.952 . S
H778 C768 0.948 . S
C779 C745 1.395 . S
C779 C749 1.391 . S
C780 C742 1.389 . S
C780 C762 1.392 . S
C781 C752 1.392 . S
C781 C754 1.389 . S
C782 C757 1.395 . S
C782 C759 1.391 . S
H783 C743 0.951 . S
H784 C744 0.950 . S
H785 C750 0.949 . S
H786 C751 0.950 . S
H787 C755 0.951 . S
H788 C756 0.950 . S
H789 C760 0.949 . S
H790 C761 0.950 . S
H791 C765 0.950 . S
H792 C767 0.950 . S
H793 C770 0.950 . S
H794 C772 0.950 . S
C795 C796 1.443 . S
C795 N799 1.376 . S
C795 C833 1.389 . S
C796 C795 1.443 . S
C796 C797 1.340 . S
C796 H836 0.951 . S
C797 C796 1.340 . S
C797 C798 1.439 . S
C797 H837 0.950 . S
C798 C797 1.439 . S
C798 N799 1.374 . S
C798 C832 1.395 . S
N799 C795 1.376 . S
N799 C798 1.374 . S
N799 Co800 2.008 . S
Co800 N799 2.008 . S
Co800 N801 1.995 . S
Co800 N806 2.008 . S
Co800 N811 1.995 . S
Co800 N816 2.282 . S
Co800 N822 2.282 . S
N801 Co800 1.995 . S
N801 C802 1.376 . S
N801 C805 1.383 . S
C802 N801 1.376 . S
C802 C803 1.446 . S
C802 C832 1.391 . S
C803 C802 1.446 . S
C803 C804 1.339 . S
C803 H838 0.949 . S
C804 C803 1.339 . S
C804 C805 1.439 . S
C804 H839 0.950 . S
C805 N801 1.383 . S
C805 C804 1.439 . S
C805 C834 1.392 . S
N806 Co800 2.008 . S
N806 C807 1.376 . S
N806 C810 1.374 . S
C807 N806 1.376 . S
C807 C808 1.443 . S
C807 C834 1.389 . S
C808 C807 1.443 . S
C808 C809 1.340 . S
C808 H840 0.951 . S
C809 C808 1.340 . S
C809 C810 1.439 . S
C809 H841 0.950 . S
C810 N806 1.374 . S
C810 C809 1.439 . S
C810 C835 1.395 . S
N811 Co800 1.995 . S
N811 C812 1.376 . S
N811 C815 1.383 . S
C812 N811 1.376 . S
C812 C813 1.446 . S
C812 C835 1.391 . S
C813 C812 1.446 . S
C813 C814 1.339 . S
C813 H842 0.949 . S
C814 C813 1.339 . S
C814 C815 1.439 . S
C814 H843 0.950 . S
C815 N811 1.383 . S
C815 C814 1.439 . S
C815 C833 1.392 . S
N816 Co800 2.282 . S
N816 C819 1.332 . S
N816 C821 1.332 . S
C817 C818 1.386 . S
C817 C820 1.388 . S
C818 C817 1.386 . S
C818 C819 1.382 . S
C818 H844 0.950 . S
C819 N816 1.332 . S
C819 C818 1.382 . S
C819 H830 0.952 . S
C820 C817 1.388 . S
C820 C821 1.382 . S
C820 H845 0.950 . S
C821 N816 1.332 . S
C821 C820 1.382 . S
C821 H831 0.948 . S
N822 Co800 2.282 . S
N822 C826 1.332 . S
N822 C827 1.332 . S
C823 C824 1.388 . S
C823 C827 1.382 . S
C823 H846 0.950 . S
C824 C823 1.388 . S
C824 C825 1.386 . S
C825 C824 1.386 . S
C825 C826 1.382 . S
C825 H847 0.950 . S
C826 N822 1.332 . S
C826 C825 1.382 . S
C826 H828 0.952 . S
C827 N822 1.332 . S
C827 C823 1.382 . S
C827 H829 0.948 . S
H828 C826 0.952 . S
H829 C827 0.948 . S
H830 C819 0.952 . S
H831 C821 0.948 . S
C832 C798 1.395 . S
C832 C802 1.391 . S
C833 C795 1.389 . S
C833 C815 1.392 . S
C834 C805 1.392 . S
C834 C807 1.389 . S
C835 C810 1.395 . S
C835 C812 1.391 . S
H836 C796 0.951 . S
H837 C797 0.950 . S
H838 C803 0.949 . S
H839 C804 0.950 . S
H840 C808 0.951 . S
H841 C809 0.950 . S
H842 C813 0.949 . S
H843 C814 0.950 . S
H844 C818 0.950 . S
H845 C820 0.950 . S
H846 C823 0.950 . S
H847 C825 0.950 . S
C848 C849 1.391 . S
C848 C850 1.394 . S
C848 H864 0.931 . S
C849 C848 1.391 . S
C849 C853 1.376 . S
C850 C848 1.394 . S
C850 C851 1.369 . S
C850 C854 1.531 . S
C851 C850 1.369 . S
C851 C852 1.410 . S
C851 C859 1.503 1_556 S
C852 C851 1.410 . S
C852 C853 1.392 . S
C852 C855 1.511 . S
C853 C849 1.376 . S
C853 C852 1.392 . S
C853 H865 0.929 . S
C854 C850 1.531 . S
C854 H866 0.960 . S
C854 H867 0.962 . S
C854 H868 0.960 . S
C855 C852 1.511 . S
C855 H869 0.961 . S
C855 H870 0.961 1_556 S
C855 H871 0.961 . S
C856 C857 1.370 . S
C856 C858 1.363 . S
C856 H872 0.931 . S
C857 C856 1.370 . S
C857 C861 1.408 . S
C858 C856 1.363 . S
C858 C859 1.370 . S
C858 C862 1.524 . S
C859 C851 1.503 1_554 S
C859 C858 1.370 . S
C859 C860 1.403 . S
C860 C859 1.403 . S
C860 C861 1.404 . S
C860 C863 1.539 . S
C861 C857 1.408 . S
C861 C860 1.404 . S
C861 H873 0.930 . S
C862 C858 1.524 . S
C862 H874 0.950 1_554 S
C862 H875 0.961 . S
C862 H876 0.961 . S
C863 C860 1.539 . S
C863 H877 0.958 . S
C863 H878 0.961 . S
C863 H879 0.978 . S
H864 C848 0.931 . S
H865 C853 0.929 . S
H866 C854 0.960 . S
H867 C854 0.962 . S
H868 C854 0.960 . S
H869 C855 0.961 . S
H870 C855 0.961 1_554 S
H871 C855 0.961 . S
H872 C856 0.931 . S
H873 C861 0.930 . S
H874 C862 0.950 1_556 S
H875 C862 0.961 . S
H876 C862 0.961 . S
H877 C863 0.958 . S
H878 C863 0.961 . S
H879 C863 0.978 . S
C880 C881 1.391 . S
C880 C882 1.394 . S
C880 H896 0.931 . S
C881 C880 1.391 . S
C881 C885 1.376 . S
C882 C880 1.394 . S
C882 C883 1.369 . S
C882 C886 1.531 . S
C883 C882 1.369 . S
C883 C884 1.410 . S
C883 C891 1.503 . S
C884 C883 1.410 . S
C884 C885 1.392 . S
C884 C887 1.511 . S
C885 C881 1.376 . S
C885 C884 1.392 . S
C885 H897 0.929 . S
C886 C882 1.531 . S
C886 H898 0.960 . S
C886 H899 0.962 . S
C886 H900 0.960 . S
C887 C884 1.511 . S
C887 H901 0.961 . S
C887 H902 0.961 . S
C887 H903 0.961 . S
C888 C889 1.370 . S
C888 C890 1.363 . S
C888 H904 0.931 . S
C889 C888 1.370 . S
C889 C893 1.408 . S
C890 C888 1.363 . S
C890 C891 1.370 . S
C890 C894 1.524 . S
C891 C883 1.503 . S
C891 C890 1.370 . S
C891 C892 1.403 . S
C892 C891 1.403 . S
C892 C893 1.404 . S
C892 C895 1.539 . S
C893 C889 1.408 . S
C893 C892 1.404 . S
C893 H905 0.930 . S
C894 C890 1.524 . S
C894 H906 0.956 . S
C894 H907 0.961 . S
C894 H908 0.961 . S
C895 C892 1.539 . S
C895 H909 0.958 . S
C895 H910 0.961 . S
C895 H911 0.960 . S
H896 C880 0.931 . S
H897 C885 0.929 . S
H898 C886 0.960 . S
H899 C886 0.962 . S
H900 C886 0.960 . S
H901 C887 0.961 . S
H902 C887 0.961 . S
H903 C887 0.961 . S
H904 C888 0.931 . S
H905 C893 0.930 . S
H906 C894 0.956 . S
H907 C894 0.961 . S
H908 C894 0.961 . S
H909 C895 0.958 . S
H910 C895 0.961 . S
H911 C895 0.960 . S
C912 C913 1.391 . S
C912 C914 1.394 . S
C912 H928 0.931 . S
C913 C912 1.391 . S
C913 C917 1.376 . S
C914 C912 1.394 . S
C914 C915 1.369 . S
C914 C918 1.531 . S
C915 C914 1.369 . S
C915 C916 1.410 . S
C915 C923 1.503 1_556 S
C916 C915 1.410 . S
C916 C917 1.392 . S
C916 C919 1.511 . S
C917 C913 1.376 . S
C917 C916 1.392 . S
C917 H929 0.929 . S
C918 C914 1.531 . S
C918 H930 0.960 . S
C918 H931 0.962 . S
C918 H932 0.960 . S
C919 C916 1.511 . S
C919 H933 0.961 . S
C919 H934 0.961 1_556 S
C919 H935 0.961 . S
C920 C921 1.370 . S
C920 C922 1.363 . S
C920 H936 0.931 . S
C921 C920 1.370 . S
C921 C925 1.408 . S
C922 C920 1.363 . S
C922 C923 1.370 . S
C922 C926 1.524 . S
C923 C915 1.503 1_554 S
C923 C922 1.370 . S
C923 C924 1.403 . S
C924 C923 1.403 . S
C924 C925 1.404 . S
C924 C927 1.539 . S
C925 C921 1.408 . S
C925 C924 1.404 . S
C925 H937 0.930 . S
C926 C922 1.524 . S
C926 H938 0.956 1_554 S
C926 H939 0.961 1_554 S
C926 H940 0.961 . S
C927 C924 1.539 . S
C927 H941 0.958 . S
C927 H942 0.961 . S
C927 H943 0.960 . S
H928 C912 0.931 . S
H929 C917 0.929 . S
H930 C918 0.960 . S
H931 C918 0.962 . S
H932 C918 0.960 . S
H933 C919 0.961 . S
H934 C919 0.961 1_554 S
H935 C919 0.961 . S
H936 C920 0.931 . S
H937 C925 0.930 . S
H938 C926 0.956 1_556 S
H939 C926 0.961 1_556 S
H940 C926 0.961 . S
H941 C927 0.958 . S
H942 C927 0.961 . S
H943 C927 0.960 . S
C944 C945 1.391 . S
C944 C946 1.394 . S
C944 H960 0.931 . S
C945 C944 1.391 . S
C945 C949 1.376 . S
C946 C944 1.394 . S
C946 C947 1.369 . S
C946 C950 1.531 . S
C947 C946 1.369 . S
C947 C948 1.410 . S
C947 C955 1.503 . S
C948 C947 1.410 . S
C948 C949 1.392 . S
C948 C951 1.511 . S
C949 C945 1.376 . S
C949 C948 1.392 . S
C949 H961 0.929 . S
C950 C946 1.531 . S
C950 H962 0.960 . S
C950 H963 0.962 . S
C950 H964 0.960 . S
C951 C948 1.511 . S
C951 H965 0.961 . S
C951 H966 0.961 . S
C951 H967 0.961 . S
C952 C953 1.370 . S
C952 C954 1.363 . S
C952 H968 0.931 . S
C953 C952 1.370 . S
C953 C957 1.408 . S
C954 C952 1.363 . S
C954 C955 1.370 . S
C954 C958 1.524 . S
C955 C947 1.503 . S
C955 C954 1.370 . S
C955 C956 1.403 . S
C956 C955 1.403 . S
C956 C957 1.404 . S
C956 C959 1.539 . S
C957 C953 1.408 . S
C957 C956 1.404 . S
C957 H969 0.930 . S
C958 C954 1.524 . S
C958 H970 0.956 . S
C958 H971 0.961 . S
C958 H972 0.961 . S
C959 C956 1.539 . S
C959 H973 0.958 . S
C959 H974 0.961 . S
C959 H975 0.960 . S
H960 C944 0.931 . S
H961 C949 0.929 . S
H962 C950 0.960 . S
H963 C950 0.962 . S
H964 C950 0.960 . S
H965 C951 0.961 . S
H966 C951 0.961 . S
H967 C951 0.961 . S
H968 C952 0.931 . S
H969 C957 0.930 . S
H970 C958 0.956 . S
H971 C958 0.961 . S
H972 C958 0.961 . S
H973 C959 0.958 . S
H974 C959 0.961 . S
H975 C959 0.960 . S
C976 C977 1.391 . S
C976 C978 1.394 . S
C976 H992 0.931 . S
C977 C976 1.391 . S
C977 C981 1.376 . S
C978 C976 1.394 . S
C978 C979 1.369 . S
C978 C982 1.531 . S
C979 C978 1.369 . S
C979 C980 1.410 . S
C979 C987 1.503 1_554 S
C980 C979 1.410 . S
C980 C981 1.392 . S
C980 C983 1.511 . S
C981 C977 1.376 . S
C981 C980 1.392 . S
C981 H993 0.929 . S
C982 C978 1.531 . S
C982 H994 0.960 1_554 S
C982 H995 0.962 . S
C982 H996 0.960 . S
C983 C980 1.511 . S
C983 H997 0.961 . S
C983 H998 0.961 1_554 S
C983 H999 0.961 . S
C984 C985 1.370 . S
C984 C986 1.363 . S
C984 H1000 0.931 . S
C985 C984 1.370 . S
C985 C989 1.408 . S
C986 C984 1.363 . S
C986 C987 1.370 . S
C986 C990 1.524 . S
C987 C979 1.503 1_556 S
C987 C986 1.370 . S
C987 C988 1.403 . S
C988 C987 1.403 . S
C988 C989 1.404 . S
C988 C991 1.539 . S
C989 C985 1.408 . S
C989 C988 1.404 . S
C989 H1001 0.930 . S
C990 C986 1.524 . S
C990 H1002 0.956 1_556 S
C990 H1003 0.961 1_556 S
C990 H1004 0.961 . S
C991 C988 1.539 . S
C991 H1005 0.958 . S
C991 H1006 0.961 . S
C991 H1007 0.960 . S
H992 C976 0.931 . S
H993 C981 0.929 . S
H994 C982 0.960 1_556 S
H995 C982 0.962 . S
H996 C982 0.960 . S
H997 C983 0.961 . S
H998 C983 0.961 1_556 S
H999 C983 0.961 . S
H1000 C984 0.931 . S
H1001 C989 0.930 . S
H1002 C990 0.956 1_554 S
H1003 C990 0.961 1_554 S
H1004 C990 0.961 . S
H1005 C991 0.958 . S
H1006 C991 0.961 . S
H1007 C991 0.960 . S
C1008 C1009 1.391 . S
C1008 C1010 1.394 . S
C1008 H1024 0.931 . S
C1009 C1008 1.391 . S
C1009 C1013 1.376 . S
C1010 C1008 1.394 . S
C1010 C1011 1.369 . S
C1010 C1014 1.531 . S
C1011 C1010 1.369 . S
C1011 C1012 1.410 . S
C1011 C1019 1.503 . S
C1012 C1011 1.410 . S
C1012 C1013 1.392 . S
C1012 C1015 1.511 . S
C1013 C1009 1.376 . S
C1013 C1012 1.392 . S
C1013 H1025 0.929 . S
C1014 C1010 1.531 . S
C1014 H1026 0.960 . S
C1014 H1027 0.962 . S
C1014 H1028 0.960 . S
C1015 C1012 1.511 . S
C1015 H1029 0.961 . S
C1015 H1030 0.961 . S
C1015 H1031 0.961 . S
C1016 C1017 1.370 . S
C1016 C1018 1.363 . S
C1016 H1032 0.931 . S
C1017 C1016 1.370 . S
C1017 C1021 1.408 . S
C1018 C1016 1.363 . S
C1018 C1019 1.370 . S
C1018 C1022 1.524 . S
C1019 C1011 1.503 . S
C1019 C1018 1.370 . S
C1019 C1020 1.403 . S
C1020 C1019 1.403 . S
C1020 C1021 1.404 . S
C1020 C1023 1.539 . S
C1021 C1017 1.408 . S
C1021 C1020 1.404 . S
C1021 H1033 0.930 . S
C1022 C1018 1.524 . S
C1022 H1034 0.956 . S
C1022 H1035 0.961 . S
C1022 H1036 0.961 . S
C1023 C1020 1.539 . S
C1023 H1037 0.958 . S
C1023 H1038 0.961 . S
C1023 H1039 0.960 . S
H1024 C1008 0.931 . S
H1025 C1013 0.929 . S
H1026 C1014 0.960 . S
H1027 C1014 0.962 . S
H1028 C1014 0.960 . S
H1029 C1015 0.961 . S
H1030 C1015 0.961 . S
H1031 C1015 0.961 . S
H1032 C1016 0.931 . S
H1033 C1021 0.930 . S
H1034 C1022 0.956 . S
H1035 C1022 0.961 . S
H1036 C1022 0.961 . S
H1037 C1023 0.958 . S
H1038 C1023 0.961 . S
H1039 C1023 0.960 . S
C1040 C1041 1.391 . S
C1040 C1042 1.394 . S
C1040 H1056 0.931 . S
C1041 C1040 1.391 . S
C1041 C1045 1.376 . S
C1042 C1040 1.394 . S
C1042 C1043 1.369 . S
C1042 C1046 1.531 . S
C1043 C1042 1.369 . S
C1043 C1044 1.410 . S
C1043 C1051 1.503 1_556 S
C1044 C1043 1.410 . S
C1044 C1045 1.392 . S
C1044 C1047 1.511 . S
C1045 C1041 1.376 . S
C1045 C1044 1.392 . S
C1045 H1057 0.929 . S
C1046 C1042 1.531 . S
C1046 H1058 0.960 1_556 S
C1046 H1059 0.962 . S
C1046 H1060 0.960 . S
C1047 C1044 1.511 . S
C1047 H1061 0.961 . S
C1047 H1062 0.961 . S
C1047 H1063 0.961 . S
C1048 C1049 1.370 . S
C1048 C1050 1.363 . S
C1048 H1064 0.931 . S
C1049 C1048 1.370 . S
C1049 C1053 1.408 . S
C1050 C1048 1.363 . S
C1050 C1051 1.370 . S
C1050 C1054 1.524 . S
C1051 C1043 1.503 1_554 S
C1051 C1050 1.370 . S
C1051 C1052 1.403 . S
C1052 C1051 1.403 . S
C1052 C1053 1.404 . S
C1052 C1055 1.539 . S
C1053 C1049 1.408 . S
C1053 C1052 1.404 . S
C1053 H1065 0.930 . S
C1054 C1050 1.524 . S
C1054 H1066 0.972 . S
C1054 H1067 0.961 1_554 S
C1054 H1068 0.961 . S
C1055 C1052 1.539 . S
C1055 H1069 0.958 . S
C1055 H1070 0.961 . S
C1055 H1071 0.960 . S
H1056 C1040 0.931 . S
H1057 C1045 0.929 . S
H1058 C1046 0.960 1_554 S
H1059 C1046 0.962 . S
H1060 C1046 0.960 . S
H1061 C1047 0.961 . S
H1062 C1047 0.961 . S
H1063 C1047 0.961 . S
H1064 C1048 0.931 . S
H1065 C1053 0.930 . S
H1066 C1054 0.972 . S
H1067 C1054 0.961 1_556 S
H1068 C1054 0.961 . S
H1069 C1055 0.958 . S
H1070 C1055 0.961 . S
H1071 C1055 0.960 . S
C1072 C1073 1.391 . S
C1072 C1074 1.394 . S
C1072 H1088 0.931 . S
C1073 C1072 1.391 . S
C1073 C1077 1.376 . S
C1074 C1072 1.394 . S
C1074 C1075 1.369 . S
C1074 C1078 1.531 . S
C1075 C1074 1.369 . S
C1075 C1076 1.410 . S
C1075 C1083 1.503 . S
C1076 C1075 1.410 . S
C1076 C1077 1.392 . S
C1076 C1079 1.511 . S
C1077 C1073 1.376 . S
C1077 C1076 1.392 . S
C1077 H1089 0.929 . S
C1078 C1074 1.531 . S
C1078 H1090 0.960 . S
C1078 H1091 0.962 . S
C1078 H1092 0.960 . S
C1079 C1076 1.511 . S
C1079 H1093 0.961 . S
C1079 H1094 0.961 . S
C1079 H1095 0.961 . S
C1080 C1081 1.370 . S
C1080 C1082 1.363 . S
C1080 H1096 0.931 . S
C1081 C1080 1.370 . S
C1081 C1085 1.408 . S
C1082 C1080 1.363 . S
C1082 C1083 1.370 . S
C1082 C1086 1.524 . S
C1083 C1075 1.503 . S
C1083 C1082 1.370 . S
C1083 C1084 1.403 . S
C1084 C1083 1.403 . S
C1084 C1085 1.404 . S
C1084 C1087 1.539 . S
C1085 C1081 1.408 . S
C1085 C1084 1.404 . S
C1085 H1097 0.930 . S
C1086 C1082 1.524 . S
C1086 H1098 0.956 . S
C1086 H1099 0.961 . S
C1086 H1100 0.961 . S
C1087 C1084 1.539 . S
C1087 H1101 0.958 . S
C1087 H1102 0.961 . S
C1087 H1103 0.960 . S
H1088 C1072 0.931 . S
H1089 C1077 0.929 . S
H1090 C1078 0.960 . S
H1091 C1078 0.962 . S
H1092 C1078 0.960 . S
H1093 C1079 0.961 . S
H1094 C1079 0.961 . S
H1095 C1079 0.961 . S
H1096 C1080 0.931 . S
H1097 C1085 0.930 . S
H1098 C1086 0.956 . S
H1099 C1086 0.961 . S
H1100 C1086 0.961 . S
H1101 C1087 0.958 . S
H1102 C1087 0.961 . S
H1103 C1087 0.960 . S
C1104 C1105 1.391 . S
C1104 C1106 1.394 . S
C1104 H1120 0.931 . S
C1105 C1104 1.391 . S
C1105 C1109 1.376 . S
C1106 C1104 1.394 . S
C1106 C1107 1.369 . S
C1106 C1110 1.531 . S
C1107 C1106 1.369 . S
C1107 C1108 1.410 . S
C1107 C1115 1.503 . S
C1108 C1107 1.410 . S
C1108 C1109 1.392 . S
C1108 C1111 1.511 . S
C1109 C1105 1.376 . S
C1109 C1108 1.392 . S
C1109 H1121 0.929 . S
C1110 C1106 1.531 . S
C1110 H1122 0.960 . S
C1110 H1123 0.962 . S
C1110 H1124 0.960 . S
C1111 C1108 1.511 . S
C1111 H1125 0.961 . S
C1111 H1126 0.961 . S
C1111 H1127 0.961 . S
C1112 C1113 1.370 . S
C1112 C1114 1.363 . S
C1112 H1128 0.931 . S
C1113 C1112 1.370 . S
C1113 C1117 1.408 . S
C1114 C1112 1.363 . S
C1114 C1115 1.370 . S
C1114 C1118 1.524 . S
C1115 C1107 1.503 . S
C1115 C1114 1.370 . S
C1115 C1116 1.403 . S
C1116 C1115 1.403 . S
C1116 C1117 1.404 . S
C1116 C1119 1.539 . S
C1117 C1113 1.408 . S
C1117 C1116 1.404 . S
C1117 H1129 0.930 . S
C1118 C1114 1.524 . S
C1118 H1130 0.956 . S
C1118 H1131 0.961 . S
C1118 H1132 0.961 . S
C1119 C1116 1.539 . S
C1119 H1133 0.958 . S
C1119 H1134 0.961 . S
C1119 H1135 0.960 . S
H1120 C1104 0.931 . S
H1121 C1109 0.929 . S
H1122 C1110 0.960 . S
H1123 C1110 0.962 . S
H1124 C1110 0.960 . S
H1125 C1111 0.961 . S
H1126 C1111 0.961 . S
H1127 C1111 0.961 . S
H1128 C1112 0.931 . S
H1129 C1117 0.930 . S
H1130 C1118 0.956 . S
H1131 C1118 0.961 . S
H1132 C1118 0.961 . S
H1133 C1119 0.958 . S
H1134 C1119 0.961 . S
H1135 C1119 0.960 . S
C1136 C1137 1.391 . S
C1136 C1138 1.394 . S
C1136 H1152 0.931 . S
C1137 C1136 1.391 . S
C1137 C1141 1.376 . S
C1138 C1136 1.394 . S
C1138 C1139 1.369 . S
C1138 C1142 1.531 . S
C1139 C1138 1.369 . S
C1139 C1140 1.410 . S
C1139 C1147 1.503 . S
C1140 C1139 1.410 . S
C1140 C1141 1.392 . S
C1140 C1143 1.511 . S
C1141 C1137 1.376 . S
C1141 C1140 1.392 . S
C1141 H1153 0.929 . S
C1142 C1138 1.531 . S
C1142 H1154 0.960 . S
C1142 H1155 0.962 . S
C1142 H1156 0.960 . S
C1143 C1140 1.511 . S
C1143 H1157 0.961 . S
C1143 H1158 0.961 . S
C1143 H1159 0.961 . S
C1144 C1145 1.370 . S
C1144 C1146 1.363 . S
C1144 H1160 0.931 . S
C1145 C1144 1.370 . S
C1145 C1149 1.408 . S
C1146 C1144 1.363 . S
C1146 C1147 1.370 . S
C1146 C1150 1.524 . S
C1147 C1139 1.503 . S
C1147 C1146 1.370 . S
C1147 C1148 1.403 . S
C1148 C1147 1.403 . S
C1148 C1149 1.404 . S
C1148 C1151 1.539 . S
C1149 C1145 1.408 . S
C1149 C1148 1.404 . S
C1149 H1161 0.930 . S
C1150 C1146 1.524 . S
C1150 H1162 0.956 . S
C1150 H1163 0.961 . S
C1150 H1164 0.961 . S
C1151 C1148 1.539 . S
C1151 H1165 0.958 . S
C1151 H1166 0.961 . S
C1151 H1167 0.960 . S
H1152 C1136 0.931 . S
H1153 C1141 0.929 . S
H1154 C1142 0.960 . S
H1155 C1142 0.962 . S
H1156 C1142 0.960 . S
H1157 C1143 0.961 . S
H1158 C1143 0.961 . S
H1159 C1143 0.961 . S
H1160 C1144 0.931 . S
H1161 C1149 0.930 . S
H1162 C1150 0.956 . S
H1163 C1150 0.961 . S
H1164 C1150 0.961 . S
H1165 C1151 0.958 . S
H1166 C1151 0.961 . S
H1167 C1151 0.960 . S
C1168 C1169 1.391 . S
C1168 C1170 1.394 . S
C1168 H1184 0.931 . S
C1169 C1168 1.391 . S
C1169 C1173 1.376 . S
C1170 C1168 1.394 . S
C1170 C1171 1.369 . S
C1170 C1174 1.531 . S
C1171 C1170 1.369 . S
C1171 C1172 1.410 . S
C1171 C1179 1.503 . S
C1172 C1171 1.410 . S
C1172 C1173 1.392 . S
C1172 C1175 1.511 . S
C1173 C1169 1.376 . S
C1173 C1172 1.392 . S
C1173 H1185 0.929 . S
C1174 C1170 1.531 . S
C1174 H1186 0.960 . S
C1174 H1187 0.962 . S
C1174 H1188 0.960 . S
C1175 C1172 1.511 . S
C1175 H1189 0.961 . S
C1175 H1190 0.961 . S
C1175 H1191 0.961 . S
C1176 C1177 1.370 . S
C1176 C1178 1.363 . S
C1176 H1192 0.931 . S
C1177 C1176 1.370 . S
C1177 C1181 1.408 . S
C1178 C1176 1.363 . S
C1178 C1179 1.370 . S
C1178 C1182 1.524 . S
C1179 C1171 1.503 . S
C1179 C1178 1.370 . S
C1179 C1180 1.403 . S
C1180 C1179 1.403 . S
C1180 C1181 1.404 . S
C1180 C1183 1.539 . S
C1181 C1177 1.408 . S
C1181 C1180 1.404 . S
C1181 H1193 0.930 . S
C1182 C1178 1.524 . S
C1182 H1194 0.956 . S
C1182 H1195 0.961 . S
C1182 H1196 0.961 . S
C1183 C1180 1.539 . S
C1183 H1197 0.958 . S
C1183 H1198 0.961 . S
C1183 H1199 0.960 . S
H1184 C1168 0.931 . S
H1185 C1173 0.929 . S
H1186 C1174 0.960 . S
H1187 C1174 0.962 . S
H1188 C1174 0.960 . S
H1189 C1175 0.961 . S
H1190 C1175 0.961 . S
H1191 C1175 0.961 . S
H1192 C1176 0.931 . S
H1193 C1181 0.930 . S
H1194 C1182 0.956 . S
H1195 C1182 0.961 . S
H1196 C1182 0.961 . S
H1197 C1183 0.958 . S
H1198 C1183 0.961 . S
H1199 C1183 0.960 . S
C1200 C1201 1.391 . S
C1200 C1202 1.394 . S
C1200 H1216 0.931 . S
C1201 C1200 1.391 . S
C1201 C1205 1.376 . S
C1202 C1200 1.394 . S
C1202 C1203 1.369 . S
C1202 C1206 1.531 . S
C1203 C1202 1.369 . S
C1203 C1204 1.410 . S
C1203 C1211 1.503 . S
C1204 C1203 1.410 . S
C1204 C1205 1.392 . S
C1204 C1207 1.511 . S
C1205 C1201 1.376 . S
C1205 C1204 1.392 . S
C1205 H1217 0.929 . S
C1206 C1202 1.531 . S
C1206 H1218 0.960 . S
C1206 H1219 0.962 . S
C1206 H1220 0.960 . S
C1207 C1204 1.511 . S
C1207 H1221 0.961 . S
C1207 H1222 0.961 . S
C1207 H1223 0.961 . S
C1208 C1209 1.370 . S
C1208 C1210 1.363 . S
C1208 H1224 0.931 . S
C1209 C1208 1.370 . S
C1209 C1213 1.408 . S
C1210 C1208 1.363 . S
C1210 C1211 1.370 . S
C1210 C1214 1.524 . S
C1211 C1203 1.503 . S
C1211 C1210 1.370 . S
C1211 C1212 1.403 . S
C1212 C1211 1.403 . S
C1212 C1213 1.404 . S
C1212 C1215 1.539 . S
C1213 C1209 1.408 . S
C1213 C1212 1.404 . S
C1213 H1225 0.930 . S
C1214 C1210 1.524 . S
C1214 H1226 0.956 . S
C1214 H1227 0.961 . S
C1214 H1228 0.961 . S
C1215 C1212 1.539 . S
C1215 H1229 0.958 . S
C1215 H1230 0.961 . S
C1215 H1231 0.960 . S
H1216 C1200 0.931 . S
H1217 C1205 0.929 . S
H1218 C1206 0.960 . S
H1219 C1206 0.962 . S
H1220 C1206 0.960 . S
H1221 C1207 0.961 . S
H1222 C1207 0.961 . S
H1223 C1207 0.961 . S
H1224 C1208 0.931 . S
H1225 C1213 0.930 . S
H1226 C1214 0.956 . S
H1227 C1214 0.961 . S
H1228 C1214 0.961 . S
H1229 C1215 0.958 . S
H1230 C1215 0.961 . S
H1231 C1215 0.960 . S
C1232 C1233 1.391 . S
C1232 C1234 1.394 . S
C1232 H1248 0.931 . S
C1233 C1232 1.391 . S
C1233 C1237 1.376 . S
C1234 C1232 1.394 . S
C1234 C1235 1.369 . S
C1234 C1238 1.531 . S
C1235 C1234 1.369 . S
C1235 C1236 1.410 . S
C1235 C1243 1.503 . S
C1236 C1235 1.410 . S
C1236 C1237 1.392 . S
C1236 C1239 1.511 . S
C1237 C1233 1.376 . S
C1237 C1236 1.392 . S
C1237 H1249 0.929 . S
C1238 C1234 1.531 . S
C1238 H1250 0.960 . S
C1238 H1251 0.962 . S
C1238 H1252 0.960 . S
C1239 C1236 1.511 . S
C1239 H1253 0.961 . S
C1239 H1254 0.961 . S
C1239 H1255 0.961 . S
C1240 C1241 1.370 . S
C1240 C1242 1.363 . S
C1240 H1256 0.931 . S
C1241 C1240 1.370 . S
C1241 C1245 1.408 . S
C1242 C1240 1.363 . S
C1242 C1243 1.370 . S
C1242 C1246 1.524 . S
C1243 C1235 1.503 . S
C1243 C1242 1.370 . S
C1243 C1244 1.403 . S
C1244 C1243 1.403 . S
C1244 C1245 1.404 . S
C1244 C1247 1.539 . S
C1245 C1241 1.408 . S
C1245 C1244 1.404 . S
C1245 H1257 0.930 . S
C1246 C1242 1.524 . S
C1246 H1258 0.956 . S
C1246 H1259 0.961 . S
C1246 H1260 0.961 . S
C1247 C1244 1.539 . S
C1247 H1261 0.958 . S
C1247 H1262 0.961 . S
C1247 H1263 0.960 . S
H1248 C1232 0.931 . S
H1249 C1237 0.929 . S
H1250 C1238 0.960 . S
H1251 C1238 0.962 . S
H1252 C1238 0.960 . S
H1253 C1239 0.961 . S
H1254 C1239 0.961 . S
H1255 C1239 0.961 . S
H1256 C1240 0.931 . S
H1257 C1245 0.930 . S
H1258 C1246 0.956 . S
H1259 C1246 0.961 . S
H1260 C1246 0.961 . S
H1261 C1247 0.958 . S
H1262 C1247 0.961 . S
H1263 C1247 0.960 . S
C1264 C1265 1.391 . S
C1264 C1266 1.394 . S
C1264 H1280 0.931 . S
C1265 C1264 1.391 . S
C1265 C1269 1.376 . S
C1266 C1264 1.394 . S
C1266 C1267 1.369 . S
C1266 C1270 1.531 . S
C1267 C1266 1.369 . S
C1267 C1268 1.410 . S
C1267 C1275 1.503 . S
C1268 C1267 1.410 . S
C1268 C1269 1.392 . S
C1268 C1271 1.511 . S
C1269 C1265 1.376 . S
C1269 C1268 1.392 . S
C1269 H1281 0.929 . S
C1270 C1266 1.531 . S
C1270 H1282 0.960 . S
C1270 H1283 0.962 . S
C1270 H1284 0.960 . S
C1271 C1268 1.511 . S
C1271 H1285 0.961 . S
C1271 H1286 0.961 . S
C1271 H1287 0.961 . S
C1272 C1273 1.370 . S
C1272 C1274 1.363 . S
C1272 H1288 0.931 . S
C1273 C1272 1.370 . S
C1273 C1277 1.408 . S
C1274 C1272 1.363 . S
C1274 C1275 1.370 . S
C1274 C1278 1.524 . S
C1275 C1267 1.503 . S
C1275 C1274 1.370 . S
C1275 C1276 1.403 . S
C1276 C1275 1.403 . S
C1276 C1277 1.404 . S
C1276 C1279 1.539 . S
C1277 C1273 1.408 . S
C1277 C1276 1.404 . S
C1277 H1289 0.930 . S
C1278 C1274 1.524 . S
C1278 H1290 0.956 . S
C1278 H1291 0.961 . S
C1278 H1292 0.961 . S
C1279 C1276 1.539 . S
C1279 H1293 0.958 . S
C1279 H1294 0.961 . S
C1279 H1295 0.960 . S
H1280 C1264 0.931 . S
H1281 C1269 0.929 . S
H1282 C1270 0.960 . S
H1283 C1270 0.962 . S
H1284 C1270 0.960 . S
H1285 C1271 0.961 . S
H1286 C1271 0.961 . S
H1287 C1271 0.961 . S
H1288 C1272 0.931 . S
H1289 C1277 0.930 . S
H1290 C1278 0.956 . S
H1291 C1278 0.961 . S
H1292 C1278 0.961 . S
H1293 C1279 0.958 . S
H1294 C1279 0.961 . S
H1295 C1279 0.960 . S
C1296 C1297 1.391 . S
C1296 C1298 1.394 . S
C1296 H1312 0.931 . S
C1297 C1296 1.391 . S
C1297 C1301 1.376 . S
C1298 C1296 1.394 . S
C1298 C1299 1.369 . S
C1298 C1302 1.531 . S
C1299 C1298 1.369 . S
C1299 C1300 1.410 . S
C1299 C1307 1.503 . S
C1300 C1299 1.410 . S
C1300 C1301 1.392 . S
C1300 C1303 1.511 . S
C1301 C1297 1.376 . S
C1301 C1300 1.392 . S
C1301 H1313 0.929 . S
C1302 C1298 1.531 . S
C1302 H1314 0.960 . S
C1302 H1315 0.962 . S
C1302 H1316 0.960 . S
C1303 C1300 1.511 . S
C1303 H1317 0.961 . S
C1303 H1318 0.961 . S
C1303 H1319 0.961 . S
C1304 C1305 1.370 . S
C1304 C1306 1.363 . S
C1304 H1320 0.931 . S
C1305 C1304 1.370 . S
C1305 C1309 1.408 . S
C1306 C1304 1.363 . S
C1306 C1307 1.370 . S
C1306 C1310 1.524 . S
C1307 C1299 1.503 . S
C1307 C1306 1.370 . S
C1307 C1308 1.403 . S
C1308 C1307 1.403 . S
C1308 C1309 1.404 . S
C1308 C1311 1.539 . S
C1309 C1305 1.408 . S
C1309 C1308 1.404 . S
C1309 H1321 0.930 . S
C1310 C1306 1.524 . S
C1310 H1322 0.956 . S
C1310 H1323 0.961 . S
C1310 H1324 0.961 . S
C1311 C1308 1.539 . S
C1311 H1325 0.958 . S
C1311 H1326 0.961 . S
C1311 H1327 0.960 . S
H1312 C1296 0.931 . S
H1313 C1301 0.929 . S
H1314 C1302 0.960 . S
H1315 C1302 0.962 . S
H1316 C1302 0.960 . S
H1317 C1303 0.961 . S
H1318 C1303 0.961 . S
H1319 C1303 0.961 . S
H1320 C1304 0.931 . S
H1321 C1309 0.930 . S
H1322 C1310 0.956 . S
H1323 C1310 0.961 . S
H1324 C1310 0.961 . S
H1325 C1311 0.958 . S
H1326 C1311 0.961 . S
H1327 C1311 0.960 . S
C1328 C1329 1.391 . S
C1328 C1330 1.394 . S
C1328 H1344 0.931 . S
C1329 C1328 1.391 . S
C1329 C1333 1.376 . S
C1330 C1328 1.394 . S
C1330 C1331 1.369 . S
C1330 C1334 1.531 . S
C1331 C1330 1.369 . S
C1331 C1332 1.410 . S
C1331 C1339 1.503 . S
C1332 C1331 1.410 . S
C1332 C1333 1.392 . S
C1332 C1335 1.511 . S
C1333 C1329 1.376 . S
C1333 C1332 1.392 . S
C1333 H1345 0.929 . S
C1334 C1330 1.531 . S
C1334 H1346 0.960 . S
C1334 H1347 0.962 . S
C1334 H1348 0.960 . S
C1335 C1332 1.511 . S
C1335 H1349 0.961 . S
C1335 H1350 0.961 . S
C1335 H1351 0.961 . S
C1336 C1337 1.370 . S
C1336 C1338 1.363 . S
C1336 H1352 0.931 . S
C1337 C1336 1.370 . S
C1337 C1341 1.408 . S
C1338 C1336 1.363 . S
C1338 C1339 1.370 . S
C1338 C1342 1.524 . S
C1339 C1331 1.503 . S
C1339 C1338 1.370 . S
C1339 C1340 1.403 . S
C1340 C1339 1.403 . S
C1340 C1341 1.404 . S
C1340 C1343 1.539 . S
C1341 C1337 1.408 . S
C1341 C1340 1.404 . S
C1341 H1353 0.930 . S
C1342 C1338 1.524 . S
C1342 H1354 0.956 . S
C1342 H1355 0.961 . S
C1342 H1356 0.961 . S
C1343 C1340 1.539 . S
C1343 H1357 0.958 . S
C1343 H1358 0.961 . S
C1343 H1359 0.960 . S
H1344 C1328 0.931 . S
H1345 C1333 0.929 . S
H1346 C1334 0.960 . S
H1347 C1334 0.962 . S
H1348 C1334 0.960 . S
H1349 C1335 0.961 . S
H1350 C1335 0.961 . S
H1351 C1335 0.961 . S
H1352 C1336 0.931 . S
H1353 C1341 0.930 . S
H1354 C1342 0.956 . S
H1355 C1342 0.961 . S
H1356 C1342 0.961 . S
H1357 C1343 0.958 . S
H1358 C1343 0.961 . S
H1359 C1343 0.960 . S
C1360 C1361 1.391 . S
C1360 C1362 1.394 . S
C1360 H1376 0.931 . S
C1361 C1360 1.391 . S
C1361 C1365 1.376 . S
C1362 C1360 1.394 . S
C1362 C1363 1.369 . S
C1362 C1366 1.531 . S
C1363 C1362 1.369 . S
C1363 C1364 1.410 . S
C1363 C1371 1.503 . S
C1364 C1363 1.410 . S
C1364 C1365 1.392 . S
C1364 C1367 1.511 . S
C1365 C1361 1.376 . S
C1365 C1364 1.392 . S
C1365 H1377 0.929 . S
C1366 C1362 1.531 . S
C1366 H1378 0.960 . S
C1366 H1379 0.962 . S
C1366 H1380 0.960 . S
C1367 C1364 1.511 . S
C1367 H1381 0.961 . S
C1367 H1382 0.961 . S
C1367 H1383 0.961 . S
C1368 C1369 1.370 . S
C1368 C1370 1.363 . S
C1368 H1384 0.931 . S
C1369 C1368 1.370 . S
C1369 C1373 1.408 . S
C1370 C1368 1.363 . S
C1370 C1371 1.370 . S
C1370 C1374 1.524 . S
C1371 C1363 1.503 . S
C1371 C1370 1.370 . S
C1371 C1372 1.403 . S
C1372 C1371 1.403 . S
C1372 C1373 1.404 . S
C1372 C1375 1.539 . S
C1373 C1369 1.408 . S
C1373 C1372 1.404 . S
C1373 H1385 0.930 . S
C1374 C1370 1.524 . S
C1374 H1386 0.956 . S
C1374 H1387 0.961 . S
C1374 H1388 0.961 . S
C1375 C1372 1.539 . S
C1375 H1389 0.958 . S
C1375 H1390 0.961 . S
C1375 H1391 0.960 . S
H1376 C1360 0.931 . S
H1377 C1365 0.929 . S
H1378 C1366 0.960 . S
H1379 C1366 0.962 . S
H1380 C1366 0.960 . S
H1381 C1367 0.961 . S
H1382 C1367 0.961 . S
H1383 C1367 0.961 . S
H1384 C1368 0.931 . S
H1385 C1373 0.930 . S
H1386 C1374 0.956 . S
H1387 C1374 0.961 . S
H1388 C1374 0.961 . S
H1389 C1375 0.958 . S
H1390 C1375 0.961 . S
H1391 C1375 0.960 . S
C1392 C1393 1.391 . S
C1392 C1394 1.394 . S
C1392 H1408 0.931 . S
C1393 C1392 1.391 . S
C1393 C1397 1.376 . S
C1394 C1392 1.394 . S
C1394 C1395 1.369 . S
C1394 C1398 1.531 . S
C1395 C1394 1.369 . S
C1395 C1396 1.410 . S
C1395 C1403 1.503 . S
C1396 C1395 1.410 . S
C1396 C1397 1.392 . S
C1396 C1399 1.511 . S
C1397 C1393 1.376 . S
C1397 C1396 1.392 . S
C1397 H1409 0.929 . S
C1398 C1394 1.531 . S
C1398 H1410 0.960 . S
C1398 H1411 0.962 . S
C1398 H1412 0.960 . S
C1399 C1396 1.511 . S
C1399 H1413 0.961 . S
C1399 H1414 0.961 . S
C1399 H1415 0.961 . S
C1400 C1401 1.370 . S
C1400 C1402 1.363 . S
C1400 H1416 0.931 . S
C1401 C1400 1.370 . S
C1401 C1405 1.408 . S
C1402 C1400 1.363 . S
C1402 C1403 1.370 . S
C1402 C1406 1.524 . S
C1403 C1395 1.503 . S
C1403 C1402 1.370 . S
C1403 C1404 1.403 . S
C1404 C1403 1.403 . S
C1404 C1405 1.404 . S
C1404 C1407 1.539 . S
C1405 C1401 1.408 . S
C1405 C1404 1.404 . S
C1405 H1417 0.930 . S
C1406 C1402 1.524 . S
C1406 H1418 0.956 . S
C1406 H1419 0.961 . S
C1406 H1420 0.961 . S
C1407 C1404 1.539 . S
C1407 H1421 0.958 . S
C1407 H1422 0.961 . S
C1407 H1423 0.960 . S
H1408 C1392 0.931 . S
H1409 C1397 0.929 . S
H1410 C1398 0.960 . S
H1411 C1398 0.962 . S
H1412 C1398 0.960 . S
H1413 C1399 0.961 . S
H1414 C1399 0.961 . S
H1415 C1399 0.961 . S
H1416 C1400 0.931 . S
H1417 C1405 0.930 . S
H1418 C1406 0.956 . S
H1419 C1406 0.961 . S
H1420 C1406 0.961 . S
H1421 C1407 0.958 . S
H1422 C1407 0.961 . S
H1423 C1407 0.960 . S
C1424 C1425 1.391 . S
C1424 C1426 1.394 . S
C1424 H1440 0.931 . S
C1425 C1424 1.391 . S
C1425 C1429 1.376 . S
C1426 C1424 1.394 . S
C1426 C1427 1.369 . S
C1426 C1430 1.531 . S
C1427 C1426 1.369 . S
C1427 C1428 1.410 . S
C1427 C1435 1.503 . S
C1428 C1427 1.410 . S
C1428 C1429 1.392 . S
C1428 C1431 1.511 . S
C1429 C1425 1.376 . S
C1429 C1428 1.392 . S
C1429 H1441 0.929 . S
C1430 C1426 1.531 . S
C1430 H1442 0.960 . S
C1430 H1443 0.962 . S
C1430 H1444 0.960 . S
C1431 C1428 1.511 . S
C1431 H1445 0.961 . S
C1431 H1446 0.961 . S
C1431 H1447 0.961 . S
C1432 C1433 1.370 . S
C1432 C1434 1.363 . S
C1432 H1448 0.931 . S
C1433 C1432 1.370 . S
C1433 C1437 1.408 . S
C1434 C1432 1.363 . S
C1434 C1435 1.370 . S
C1434 C1438 1.524 . S
C1435 C1427 1.503 . S
C1435 C1434 1.370 . S
C1435 C1436 1.403 . S
C1436 C1435 1.403 . S
C1436 C1437 1.404 . S
C1436 C1439 1.539 . S
C1437 C1433 1.408 . S
C1437 C1436 1.404 . S
C1437 H1449 0.930 . S
C1438 C1434 1.524 . S
C1438 H1450 0.956 . S
C1438 H1451 0.961 . S
C1438 H1452 0.961 . S
C1439 C1436 1.539 . S
C1439 H1453 0.958 . S
C1439 H1454 0.961 . S
C1439 H1455 0.960 . S
H1440 C1424 0.931 . S
H1441 C1429 0.929 . S
H1442 C1430 0.960 . S
H1443 C1430 0.962 . S
H1444 C1430 0.960 . S
H1445 C1431 0.961 . S
H1446 C1431 0.961 . S
H1447 C1431 0.961 . S
H1448 C1432 0.931 . S
H1449 C1437 0.930 . S
H1450 C1438 0.956 . S
H1451 C1438 0.961 . S
H1452 C1438 0.961 . S
H1453 C1439 0.958 . S
H1454 C1439 0.961 . S
H1455 C1439 0.960 . S
C1456 C1457 1.391 . S
C1456 C1458 1.394 . S
C1456 H1472 0.931 . S
C1457 C1456 1.391 . S
C1457 C1461 1.376 . S
C1458 C1456 1.394 . S
C1458 C1459 1.369 . S
C1458 C1462 1.531 . S
C1459 C1458 1.369 . S
C1459 C1460 1.410 . S
C1459 C1467 1.503 . S
C1460 C1459 1.410 . S
C1460 C1461 1.392 . S
C1460 C1463 1.511 . S
C1461 C1457 1.376 . S
C1461 C1460 1.392 . S
C1461 H1473 0.929 . S
C1462 C1458 1.531 . S
C1462 H1474 0.960 . S
C1462 H1475 0.962 . S
C1462 H1476 0.960 . S
C1463 C1460 1.511 . S
C1463 H1477 0.961 . S
C1463 H1478 0.961 . S
C1463 H1479 0.961 . S
C1464 C1465 1.370 . S
C1464 C1466 1.363 . S
C1464 H1480 0.931 . S
C1465 C1464 1.370 . S
C1465 C1469 1.408 . S
C1466 C1464 1.363 . S
C1466 C1467 1.370 . S
C1466 C1470 1.524 . S
C1467 C1459 1.503 . S
C1467 C1466 1.370 . S
C1467 C1468 1.403 . S
C1468 C1467 1.403 . S
C1468 C1469 1.404 . S
C1468 C1471 1.539 . S
C1469 C1465 1.408 . S
C1469 C1468 1.404 . S
C1469 H1481 0.930 . S
C1470 C1466 1.524 . S
C1470 H1482 0.956 . S
C1470 H1483 0.961 . S
C1470 H1484 0.961 . S
C1471 C1468 1.539 . S
C1471 H1485 0.958 . S
C1471 H1486 0.961 . S
C1471 H1487 0.960 . S
H1472 C1456 0.931 . S
H1473 C1461 0.929 . S
H1474 C1462 0.960 . S
H1475 C1462 0.962 . S
H1476 C1462 0.960 . S
H1477 C1463 0.961 . S
H1478 C1463 0.961 . S
H1479 C1463 0.961 . S
H1480 C1464 0.931 . S
H1481 C1469 0.930 . S
H1482 C1470 0.956 . S
H1483 C1470 0.961 . S
H1484 C1470 0.961 . S
H1485 C1471 0.958 . S
H1486 C1471 0.961 . S
H1487 C1471 0.960 . S
C1488 C1489 1.391 . S
C1488 C1490 1.394 . S
C1488 H1504 0.931 . S
C1489 C1488 1.391 . S
C1489 C1493 1.376 . S
C1490 C1488 1.394 . S
C1490 C1491 1.369 . S
C1490 C1494 1.531 . S
C1491 C1490 1.369 . S
C1491 C1492 1.410 . S
C1491 C1499 1.503 . S
C1492 C1491 1.410 . S
C1492 C1493 1.392 . S
C1492 C1495 1.511 . S
C1493 C1489 1.376 . S
C1493 C1492 1.392 . S
C1493 H1505 0.929 . S
C1494 C1490 1.531 . S
C1494 H1506 0.960 . S
C1494 H1507 0.962 . S
C1494 H1508 0.960 . S
C1495 C1492 1.511 . S
C1495 H1509 0.961 . S
C1495 H1510 0.961 . S
C1495 H1511 0.961 . S
C1496 C1497 1.370 . S
C1496 C1498 1.363 . S
C1496 H1512 0.931 . S
C1497 C1496 1.370 . S
C1497 C1501 1.408 . S
C1498 C1496 1.363 . S
C1498 C1499 1.370 . S
C1498 C1502 1.524 . S
C1499 C1491 1.503 . S
C1499 C1498 1.370 . S
C1499 C1500 1.403 . S
C1500 C1499 1.403 . S
C1500 C1501 1.404 . S
C1500 C1503 1.539 . S
C1501 C1497 1.408 . S
C1501 C1500 1.404 . S
C1501 H1513 0.930 . S
C1502 C1498 1.524 . S
C1502 H1514 0.956 . S
C1502 H1515 0.961 . S
C1502 H1516 0.961 . S
C1503 C1500 1.539 . S
C1503 H1517 0.958 . S
C1503 H1518 0.961 . S
C1503 H1519 0.960 . S
H1504 C1488 0.931 . S
H1505 C1493 0.929 . S
H1506 C1494 0.960 . S
H1507 C1494 0.962 . S
H1508 C1494 0.960 . S
H1509 C1495 0.961 . S
H1510 C1495 0.961 . S
H1511 C1495 0.961 . S
H1512 C1496 0.931 . S
H1513 C1501 0.930 . S
H1514 C1502 0.956 . S
H1515 C1502 0.961 . S
H1516 C1502 0.961 . S
H1517 C1503 0.958 . S
H1518 C1503 0.961 . S
H1519 C1503 0.960 . S
C1520 C1521 1.391 . S
C1520 C1522 1.394 . S
C1520 H1536 0.931 . S
C1521 C1520 1.391 . S
C1521 C1525 1.376 . S
C1522 C1520 1.394 . S
C1522 C1523 1.369 . S
C1522 C1526 1.531 . S
C1523 C1522 1.369 . S
C1523 C1524 1.410 . S
C1523 C1531 1.503 . S
C1524 C1523 1.410 . S
C1524 C1525 1.392 . S
C1524 C1527 1.511 . S
C1525 C1521 1.376 . S
C1525 C1524 1.392 . S
C1525 H1537 0.929 . S
C1526 C1522 1.531 . S
C1526 H1538 0.960 . S
C1526 H1539 0.962 . S
C1526 H1540 0.960 . S
C1527 C1524 1.511 . S
C1527 H1541 0.961 . S
C1527 H1542 0.961 . S
C1527 H1543 0.961 . S
C1528 C1529 1.370 . S
C1528 C1530 1.363 . S
C1528 H1544 0.931 . S
C1529 C1528 1.370 . S
C1529 C1533 1.408 . S
C1530 C1528 1.363 . S
C1530 C1531 1.370 . S
C1530 C1534 1.524 . S
C1531 C1523 1.503 . S
C1531 C1530 1.370 . S
C1531 C1532 1.403 . S
C1532 C1531 1.403 . S
C1532 C1533 1.404 . S
C1532 C1535 1.539 . S
C1533 C1529 1.408 . S
C1533 C1532 1.404 . S
C1533 H1545 0.930 . S
C1534 C1530 1.524 . S
C1534 H1546 0.956 . S
C1534 H1547 0.961 . S
C1534 H1548 0.961 . S
C1535 C1532 1.539 . S
C1535 H1549 0.958 . S
C1535 H1550 0.961 . S
C1535 H1551 0.960 . S
H1536 C1520 0.931 . S
H1537 C1525 0.929 . S
H1538 C1526 0.960 . S
H1539 C1526 0.962 . S
H1540 C1526 0.960 . S
H1541 C1527 0.961 . S
H1542 C1527 0.961 . S
H1543 C1527 0.961 . S
H1544 C1528 0.931 . S
H1545 C1533 0.930 . S
H1546 C1534 0.956 . S
H1547 C1534 0.961 . S
H1548 C1534 0.961 . S
H1549 C1535 0.958 . S
H1550 C1535 0.961 . S
H1551 C1535 0.960 . S
C1552 C1553 1.391 . S
C1552 C1554 1.394 . S
C1552 H1568 0.931 . S
C1553 C1552 1.391 . S
C1553 C1557 1.376 . S
C1554 C1552 1.394 . S
C1554 C1555 1.369 . S
C1554 C1558 1.531 . S
C1555 C1554 1.369 . S
C1555 C1556 1.410 . S
C1555 C1563 1.503 . S
C1556 C1555 1.410 . S
C1556 C1557 1.392 . S
C1556 C1559 1.511 . S
C1557 C1553 1.376 . S
C1557 C1556 1.392 . S
C1557 H1569 0.929 . S
C1558 C1554 1.531 . S
C1558 H1570 0.960 . S
C1558 H1571 0.962 . S
C1558 H1572 0.960 . S
C1559 C1556 1.511 . S
C1559 H1573 0.961 . S
C1559 H1574 0.961 . S
C1559 H1575 0.961 . S
C1560 C1561 1.370 . S
C1560 C1562 1.363 . S
C1560 H1576 0.931 . S
C1561 C1560 1.370 . S
C1561 C1565 1.408 . S
C1562 C1560 1.363 . S
C1562 C1563 1.370 . S
C1562 C1566 1.524 . S
C1563 C1555 1.503 . S
C1563 C1562 1.370 . S
C1563 C1564 1.403 . S
C1564 C1563 1.403 . S
C1564 C1565 1.404 . S
C1564 C1567 1.539 . S
C1565 C1561 1.408 . S
C1565 C1564 1.404 . S
C1565 H1577 0.930 . S
C1566 C1562 1.524 . S
C1566 H1578 0.956 . S
C1566 H1579 0.961 . S
C1566 H1580 0.961 . S
C1567 C1564 1.539 . S
C1567 H1581 0.958 . S
C1567 H1582 0.961 . S
C1567 H1583 0.960 . S
H1568 C1552 0.931 . S
H1569 C1557 0.929 . S
H1570 C1558 0.960 . S
H1571 C1558 0.962 . S
H1572 C1558 0.960 . S
H1573 C1559 0.961 . S
H1574 C1559 0.961 . S
H1575 C1559 0.961 . S
H1576 C1560 0.931 . S
H1577 C1565 0.930 . S
H1578 C1566 0.956 . S
H1579 C1566 0.961 . S
H1580 C1566 0.961 . S
H1581 C1567 0.958 . S
H1582 C1567 0.961 . S
H1583 C1567 0.960 . S
C1584 C1585 1.391 . S
C1584 C1586 1.394 . S
C1584 H1600 0.931 . S
C1585 C1584 1.391 . S
C1585 C1589 1.376 . S
C1586 C1584 1.394 . S
C1586 C1587 1.369 . S
C1586 C1590 1.531 . S
C1587 C1586 1.369 . S
C1587 C1588 1.410 . S
C1587 C1595 1.503 . S
C1588 C1587 1.410 . S
C1588 C1589 1.392 . S
C1588 C1591 1.511 . S
C1589 C1585 1.376 . S
C1589 C1588 1.392 . S
C1589 H1601 0.929 . S
C1590 C1586 1.531 . S
C1590 H1602 0.960 . S
C1590 H1603 0.962 . S
C1590 H1604 0.960 . S
C1591 C1588 1.511 . S
C1591 H1605 0.961 . S
C1591 H1606 0.961 . S
C1591 H1607 0.961 . S
C1592 C1593 1.370 . S
C1592 C1594 1.363 . S
C1592 H1608 0.931 . S
C1593 C1592 1.370 . S
C1593 C1597 1.408 . S
C1594 C1592 1.363 . S
C1594 C1595 1.370 . S
C1594 C1598 1.524 . S
C1595 C1587 1.503 . S
C1595 C1594 1.370 . S
C1595 C1596 1.403 . S
C1596 C1595 1.403 . S
C1596 C1597 1.404 . S
C1596 C1599 1.539 . S
C1597 C1593 1.408 . S
C1597 C1596 1.404 . S
C1597 H1609 0.930 . S
C1598 C1594 1.524 . S
C1598 H1610 0.956 . S
C1598 H1611 0.961 . S
C1598 H1612 0.961 . S
C1599 C1596 1.539 . S
C1599 H1613 0.958 . S
C1599 H1614 0.961 . S
C1599 H1615 0.960 . S
H1600 C1584 0.931 . S
H1601 C1589 0.929 . S
H1602 C1590 0.960 . S
H1603 C1590 0.962 . S
H1604 C1590 0.960 . S
H1605 C1591 0.961 . S
H1606 C1591 0.961 . S
H1607 C1591 0.961 . S
H1608 C1592 0.931 . S
H1609 C1597 0.930 . S
H1610 C1598 0.956 . S
H1611 C1598 0.961 . S
H1612 C1598 0.961 . S
H1613 C1599 0.958 . S
H1614 C1599 0.961 . S
H1615 C1599 0.960 . S
C1616 C1617 1.391 . S
C1616 C1618 1.394 1_545 S
C1616 H1632 0.931 . S
C1617 C1616 1.391 . S
C1617 C1621 1.376 1_545 S
C1618 C1616 1.394 1_565 S
C1618 C1619 1.369 . S
C1618 C1622 1.531 1_565 S
C1619 C1618 1.369 . S
C1619 C1620 1.410 . S
C1619 C1627 1.503 . S
C1620 C1619 1.410 . S
C1620 C1621 1.392 . S
C1620 C1623 1.511 . S
C1621 C1617 1.376 1_565 S
C1621 C1620 1.392 . S
C1621 H1633 0.929 . S
C1622 C1618 1.531 1_545 S
C1622 H1634 0.960 1_545 S
C1622 H1635 0.962 1_545 S
C1622 H1636 0.960 . S
C1623 C1620 1.511 . S
C1623 H1637 0.961 . S
C1623 H1638 0.961 . S
C1623 H1639 0.961 . S
C1624 C1625 1.370 . S
C1624 C1626 1.363 . S
C1624 H1640 0.931 . S
C1625 C1624 1.370 . S
C1625 C1629 1.408 . S
C1626 C1624 1.363 . S
C1626 C1627 1.370 . S
C1626 C1630 1.524 . S
C1627 C1619 1.503 . S
C1627 C1626 1.370 . S
C1627 C1628 1.403 . S
C1628 C1627 1.403 . S
C1628 C1629 1.404 . S
C1628 C1631 1.539 . S
C1629 C1625 1.408 . S
C1629 C1628 1.404 . S
C1629 H1641 0.930 . S
C1630 C1626 1.524 . S
C1630 H1642 0.956 . S
C1630 H1643 0.961 . S
C1630 H1644 0.961 . S
C1631 C1628 1.539 . S
C1631 H1645 0.958 . S
C1631 H1646 0.961 . S
C1631 H1647 0.960 . S
H1632 C1616 0.931 . S
H1633 C1621 0.929 . S
H1634 C1622 0.960 1_565 S
H1635 C1622 0.962 1_565 S
H1636 C1622 0.960 . S
H1637 C1623 0.961 . S
H1638 C1623 0.961 . S
H1639 C1623 0.961 . S
H1640 C1624 0.931 . S
H1641 C1629 0.930 . S
H1642 C1630 0.956 . S
H1643 C1630 0.961 . S
H1644 C1630 0.961 . S
H1645 C1631 0.958 . S
H1646 C1631 0.961 . S
H1647 C1631 0.960 . S
C1648 C1649 1.391 . S
C1648 C1650 1.394 . S
C1648 H1664 0.931 . S
C1649 C1648 1.391 . S
C1649 C1653 1.376 . S
C1650 C1648 1.394 . S
C1650 C1651 1.369 . S
C1650 C1654 1.531 . S
C1651 C1650 1.369 . S
C1651 C1652 1.410 . S
C1651 C1659 1.503 . S
C1652 C1651 1.410 . S
C1652 C1653 1.392 . S
C1652 C1655 1.511 . S
C1653 C1649 1.376 . S
C1653 C1652 1.392 . S
C1653 H1665 0.929 . S
C1654 C1650 1.531 . S
C1654 H1666 0.960 . S
C1654 H1667 0.962 . S
C1654 H1668 0.960 . S
C1655 C1652 1.511 . S
C1655 H1669 0.961 . S
C1655 H1670 0.961 . S
C1655 H1671 0.961 . S
C1656 C1657 1.370 . S
C1656 C1658 1.363 . S
C1656 H1672 0.931 . S
C1657 C1656 1.370 . S
C1657 C1661 1.408 . S
C1658 C1656 1.363 . S
C1658 C1659 1.370 . S
C1658 C1662 1.524 . S
C1659 C1651 1.503 . S
C1659 C1658 1.370 . S
C1659 C1660 1.403 . S
C1660 C1659 1.403 . S
C1660 C1661 1.404 . S
C1660 C1663 1.539 . S
C1661 C1657 1.408 . S
C1661 C1660 1.404 . S
C1661 H1673 0.930 . S
C1662 C1658 1.524 . S
C1662 H1674 0.956 . S
C1662 H1675 0.961 . S
C1662 H1676 0.961 . S
C1663 C1660 1.539 . S
C1663 H1677 0.958 . S
C1663 H1678 0.961 . S
C1663 H1679 0.960 . S
H1664 C1648 0.931 . S
H1665 C1653 0.929 . S
H1666 C1654 0.960 . S
H1667 C1654 0.962 . S
H1668 C1654 0.960 . S
H1669 C1655 0.961 . S
H1670 C1655 0.961 . S
H1671 C1655 0.961 . S
H1672 C1656 0.931 . S
H1673 C1661 0.930 . S
H1674 C1662 0.956 . S
H1675 C1662 0.961 . S
H1676 C1662 0.961 . S
H1677 C1663 0.958 . S
H1678 C1663 0.961 . S
H1679 C1663 0.960 . S
C1680 C1681 1.391 . S
C1680 C1682 1.394 . S
C1680 H1696 0.931 . S
C1681 C1680 1.391 . S
C1681 C1685 1.376 . S
C1682 C1680 1.394 . S
C1682 C1683 1.369 . S
C1682 C1686 1.531 . S
C1683 C1682 1.369 . S
C1683 C1684 1.410 . S
C1683 C1691 1.503 . S
C1684 C1683 1.410 . S
C1684 C1685 1.392 . S
C1684 C1687 1.511 . S
C1685 C1681 1.376 . S
C1685 C1684 1.392 . S
C1685 H1697 0.929 . S
C1686 C1682 1.531 . S
C1686 H1698 0.960 . S
C1686 H1699 0.962 . S
C1686 H1700 0.960 . S
C1687 C1684 1.511 . S
C1687 H1701 0.961 . S
C1687 H1702 0.961 . S
C1687 H1703 0.961 . S
C1688 C1689 1.370 . S
C1688 C1690 1.363 1_655 S
C1688 H1704 0.931 . S
C1689 C1688 1.370 . S
C1689 C1693 1.416 . S
C1690 C1688 1.363 1_455 S
C1690 C1691 1.370 . S
C1690 C1694 1.524 . S
C1691 C1683 1.503 . S
C1691 C1690 1.370 . S
C1691 C1692 1.403 . S
C1692 C1691 1.403 . S
C1692 C1693 1.389 1_455 S
C1692 C1695 1.539 . S
C1693 C1689 1.416 . S
C1693 C1692 1.389 1_655 S
C1693 H1705 0.937 . S
C1694 C1690 1.524 . S
C1694 H1706 0.956 . S
C1694 H1707 0.961 . S
C1694 H1708 0.961 . S
C1695 C1692 1.539 . S
C1695 H1709 0.958 . S
C1695 H1710 0.961 . S
C1695 H1711 0.960 . S
H1696 C1680 0.931 . S
H1697 C1685 0.929 . S
H1698 C1686 0.960 . S
H1699 C1686 0.962 . S
H1700 C1686 0.960 . S
H1701 C1687 0.961 . S
H1702 C1687 0.961 . S
H1703 C1687 0.961 . S
H1704 C1688 0.931 . S
H1705 C1693 0.937 . S
H1706 C1694 0.956 . S
H1707 C1694 0.961 . S
H1708 C1694 0.961 . S
H1709 C1695 0.958 . S
H1710 C1695 0.961 . S
H1711 C1695 0.960 . S
C1712 C1713 1.391 1_545 S
C1712 C1714 1.394 . S
C1712 H1728 0.931 . S
C1713 C1712 1.391 1_565 S
C1713 C1717 1.376 . S
C1714 C1712 1.394 . S
C1714 C1715 1.369 . S
C1714 C1718 1.531 . S
C1715 C1714 1.369 . S
C1715 C1716 1.410 . S
C1715 C1723 1.503 . S
C1716 C1715 1.410 . S
C1716 C1717 1.392 1_545 S
C1716 C1719 1.511 1_545 S
C1717 C1713 1.376 . S
C1717 C1716 1.392 1_565 S
C1717 H1729 0.929 . S
C1718 C1714 1.531 . S
C1718 H1730 0.960 . S
C1718 H1731 0.962 . S
C1718 H1732 0.960 . S
C1719 C1716 1.511 1_565 S
C1719 H1733 0.961 . S
C1719 H1734 0.961 1_565 S
C1719 H1735 0.961 . S
C1720 C1721 1.370 1_655 S
C1720 C1722 1.363 . S
C1720 H1736 0.931 . S
C1721 C1720 1.370 1_455 S
C1721 C1725 1.408 . S
C1722 C1720 1.363 . S
C1722 C1723 1.370 . S
C1722 C1726 1.524 . S
C1723 C1715 1.503 . S
C1723 C1722 1.370 . S
C1723 C1724 1.403 . S
C1724 C1723 1.403 . S
C1724 C1725 1.404 1_655 S
C1724 C1727 1.539 . S
C1725 C1721 1.408 . S
C1725 C1724 1.404 1_455 S
C1725 H1737 0.930 . S
C1726 C1722 1.524 . S
C1726 H1738 0.956 . S
C1726 H1739 0.961 . S
C1726 H1740 0.961 . S
C1727 C1724 1.539 . S
C1727 H1741 0.958 . S
C1727 H1742 0.961 1_655 S
C1727 H1743 0.960 . S
H1728 C1712 0.931 . S
H1729 C1717 0.929 . S
H1730 C1718 0.960 . S
H1731 C1718 0.962 . S
H1732 C1718 0.960 . S
H1733 C1719 0.961 . S
H1734 C1719 0.961 1_545 S
H1735 C1719 0.961 . S
H1736 C1720 0.931 . S
H1737 C1725 0.930 . S
H1738 C1726 0.956 . S
H1739 C1726 0.961 . S
H1740 C1726 0.961 . S
H1741 C1727 0.958 . S
H1742 C1727 0.961 1_455 S
H1743 C1727 0.960 . S
C1744 C1745 1.391 . S
C1744 C1746 1.394 . S
C1744 H1760 0.931 . S
C1745 C1744 1.391 . S
C1745 C1749 1.376 . S
C1746 C1744 1.394 . S
C1746 C1747 1.369 . S
C1746 C1750 1.531 . S
C1747 C1746 1.369 . S
C1747 C1748 1.410 . S
C1747 C1755 1.503 . S
C1748 C1747 1.410 . S
C1748 C1749 1.392 . S
C1748 C1751 1.511 . S
C1749 C1745 1.376 . S
C1749 C1748 1.392 . S
C1749 H1761 0.929 . S
C1750 C1746 1.531 . S
C1750 H1762 0.960 . S
C1750 H1763 0.962 . S
C1750 H1764 0.960 . S
C1751 C1748 1.511 . S
C1751 H1765 0.961 . S
C1751 H1766 0.961 . S
C1751 H1767 0.961 . S
C1752 C1753 1.370 . S
C1752 C1754 1.363 . S
C1752 H1768 0.931 . S
C1753 C1752 1.370 . S
C1753 C1757 1.408 . S
C1754 C1752 1.363 . S
C1754 C1755 1.370 . S
C1754 C1758 1.524 . S
C1755 C1747 1.503 . S
C1755 C1754 1.370 . S
C1755 C1756 1.403 . S
C1756 C1755 1.403 . S
C1756 C1757 1.404 . S
C1756 C1759 1.539 . S
C1757 C1753 1.408 . S
C1757 C1756 1.404 . S
C1757 H1769 0.930 . S
C1758 C1754 1.524 . S
C1758 H1770 0.956 . S
C1758 H1771 0.961 . S
C1758 H1772 0.961 . S
C1759 C1756 1.539 . S
C1759 H1773 0.958 . S
C1759 H1774 0.961 . S
C1759 H1775 0.960 . S
H1760 C1744 0.931 . S
H1761 C1749 0.929 . S
H1762 C1750 0.960 . S
H1763 C1750 0.962 . S
H1764 C1750 0.960 . S
H1765 C1751 0.961 . S
H1766 C1751 0.961 . S
H1767 C1751 0.961 . S
H1768 C1752 0.931 . S
H1769 C1757 0.930 . S
H1770 C1758 0.956 . S
H1771 C1758 0.961 . S
H1772 C1758 0.961 . S
H1773 C1759 0.958 . S
H1774 C1759 0.961 . S
H1775 C1759 0.960 . S
C1776 C1777 1.391 1_655 S
C1776 C1778 1.394 . S
C1776 H1792 0.931 . S
C1777 C1776 1.391 1_455 S
C1777 C1781 1.376 . S
C1778 C1776 1.394 . S
C1778 C1779 1.369 . S
C1778 C1782 1.531 . S
C1779 C1778 1.369 . S
C1779 C1780 1.410 . S
C1779 C1787 1.503 . S
C1780 C1779 1.410 . S
C1780 C1781 1.392 1_655 S
C1780 C1783 1.511 1_655 S
C1781 C1777 1.376 . S
C1781 C1780 1.392 1_455 S
C1781 H1793 0.929 . S
C1782 C1778 1.531 . S
C1782 H1794 0.960 . S
C1782 H1795 0.962 . S
C1782 H1796 0.960 . S
C1783 C1780 1.511 1_455 S
C1783 H1797 0.961 . S
C1783 H1798 0.961 1_455 S
C1783 H1799 0.961 . S
C1784 C1785 1.370 . S
C1784 C1786 1.363 . S
C1784 H1800 0.931 . S
C1785 C1784 1.370 . S
C1785 C1789 1.408 . S
C1786 C1784 1.363 . S
C1786 C1787 1.370 . S
C1786 C1790 1.524 . S
C1787 C1779 1.503 . S
C1787 C1786 1.370 . S
C1787 C1788 1.403 . S
C1788 C1787 1.403 . S
C1788 C1789 1.404 . S
C1788 C1791 1.539 . S
C1789 C1785 1.408 . S
C1789 C1788 1.404 . S
C1789 H1801 0.930 . S
C1790 C1786 1.524 . S
C1790 H1802 0.956 . S
C1790 H1803 0.961 . S
C1790 H1804 0.961 . S
C1791 C1788 1.539 . S
C1791 H1805 0.958 . S
C1791 H1806 0.961 . S
C1791 H1807 0.960 . S
H1792 C1776 0.931 . S
H1793 C1781 0.929 . S
H1794 C1782 0.960 . S
H1795 C1782 0.962 . S
H1796 C1782 0.960 . S
H1797 C1783 0.961 . S
H1798 C1783 0.961 1_655 S
H1799 C1783 0.961 . S
H1800 C1784 0.931 . S
H1801 C1789 0.930 . S
H1802 C1790 0.956 . S
H1803 C1790 0.961 . S
H1804 C1790 0.961 . S
H1805 C1791 0.958 . S
H1806 C1791 0.961 . S
H1807 C1791 0.960 . S
C1808 C1809 1.391 . S
C1808 C1810 1.394 1_655 S
C1808 H1824 0.931 . S
C1809 C1808 1.391 . S
C1809 C1813 1.376 1_655 S
C1810 C1808 1.394 1_455 S
C1810 C1811 1.369 . S
C1810 C1814 1.531 . S
C1811 C1810 1.369 . S
C1811 C1812 1.410 . S
C1811 C1819 1.503 . S
C1812 C1811 1.410 . S
C1812 C1813 1.392 . S
C1812 C1815 1.511 . S
C1813 C1809 1.376 1_455 S
C1813 C1812 1.392 . S
C1813 H1825 0.929 . S
C1814 C1810 1.531 . S
C1814 H1826 0.960 . S
C1814 H1827 0.962 . S
C1814 H1828 0.960 1_455 S
C1815 C1812 1.511 . S
C1815 H1829 0.961 . S
C1815 H1830 0.961 . S
C1815 H1831 0.961 . S
C1816 C1817 1.370 1_565 S
C1816 C1818 1.363 . S
C1816 H1832 0.931 . S
C1817 C1816 1.370 1_545 S
C1817 C1821 1.408 . S
C1818 C1816 1.363 . S
C1818 C1819 1.370 . S
C1818 C1822 1.524 . S
C1819 C1811 1.503 . S
C1819 C1818 1.370 . S
C1819 C1820 1.418 . S
C1820 C1819 1.418 . S
C1820 C1821 1.393 1_565 S
C1820 C1823 1.535 1_565 S
C1821 C1817 1.408 . S
C1821 C1820 1.393 1_545 S
C1821 H1833 0.930 . S
C1822 C1818 1.524 . S
C1822 H1834 0.956 . S
C1822 H1835 0.961 . S
C1822 H1836 0.961 . S
C1823 C1820 1.535 1_545 S
C1823 H1837 0.958 . S
C1823 H1838 0.961 . S
C1823 H1839 0.960 1_545 S
H1824 C1808 0.931 . S
H1825 C1813 0.929 . S
H1826 C1814 0.960 . S
H1827 C1814 0.962 . S
H1828 C1814 0.960 1_655 S
H1829 C1815 0.961 . S
H1830 C1815 0.961 . S
H1831 C1815 0.961 . S
H1832 C1816 0.931 . S
H1833 C1821 0.930 . S
H1834 C1822 0.956 . S
H1835 C1822 0.961 . S
H1836 C1822 0.961 . S
H1837 C1823 0.958 . S
H1838 C1823 0.961 . S
H1839 C1823 0.960 1_565 S
C1840 C1841 1.391 . S
C1840 C1842 1.394 1_565 S
C1840 H1856 0.931 . S
C1841 C1840 1.391 . S
C1841 C1845 1.376 1_565 S
C1842 C1840 1.394 1_545 S
C1842 C1843 1.369 . S
C1842 C1846 1.531 1_545 S
C1843 C1842 1.369 . S
C1843 C1844 1.410 . S
C1843 C1851 1.503 . S
C1844 C1843 1.410 . S
C1844 C1845 1.392 . S
C1844 C1847 1.511 . S
C1845 C1841 1.376 1_545 S
C1845 C1844 1.392 . S
C1845 H1857 0.929 . S
C1846 C1842 1.531 1_565 S
C1846 H1858 0.960 1_565 S
C1846 H1859 0.962 . S
C1846 H1860 0.960 . S
C1847 C1844 1.511 . S
C1847 H1861 0.961 . S
C1847 H1862 0.961 . S
C1847 H1863 0.961 . S
C1848 C1849 1.370 . S
C1848 C1850 1.363 . S
C1848 H1864 0.931 . S
C1849 C1848 1.370 . S
C1849 C1853 1.408 . S
C1850 C1848 1.363 . S
C1850 C1851 1.370 . S
C1850 C1854 1.524 . S
C1851 C1843 1.503 . S
C1851 C1850 1.370 . S
C1851 C1852 1.403 . S
C1852 C1851 1.403 . S
C1852 C1853 1.404 . S
C1852 C1855 1.539 . S
C1853 C1849 1.408 . S
C1853 C1852 1.404 . S
C1853 H1865 0.930 . S
C1854 C1850 1.524 . S
C1854 H1866 0.956 . S
C1854 H1867 0.961 . S
C1854 H1868 0.961 . S
C1855 C1852 1.539 . S
C1855 H1869 0.958 . S
C1855 H1870 0.961 . S
C1855 H1871 0.960 . S
H1856 C1840 0.931 . S
H1857 C1845 0.929 . S
H1858 C1846 0.960 1_545 S
H1859 C1846 0.962 . S
H1860 C1846 0.960 . S
H1861 C1847 0.961 . S
H1862 C1847 0.961 . S
H1863 C1847 0.961 . S
H1864 C1848 0.931 . S
H1865 C1853 0.930 . S
H1866 C1854 0.956 . S
H1867 C1854 0.961 . S
H1868 C1854 0.961 . S
H1869 C1855 0.958 . S
H1870 C1855 0.961 . S
H1871 C1855 0.960 . S
C849 C410 1.833 . S
C857 C39 1.828 . S
C881 C251 1.822 . S
C889 C92 1.818 . S
C913 C304 1.825 . S
C921 C145 1.828 . S
C945 C198 1.800 . S
C953 C357 1.814 . S
C977 C834 1.804 . S
C985 C463 1.822 . S
C1009 C675 1.795 . S
C1017 C516 1.811 . S
C1041 C569 1.825 . S
C1049 C728 1.824 . S
C1073 C622 1.798 . S
C1081 C781 1.820 . S
C1105 C135 1.433 . S
C1113 C29 1.429 . S
C1137 C82 1.417 . S
C1145 C188 1.443 . S
C1169 C241 1.447 . S
C1177 C347 1.433 . S
C1201 C400 1.413 . S
C1209 C294 1.438 . S
C1233 C453 1.419 . S
C1241 C559 1.442 . S
C1265 C506 1.451 . S
C1273 C612 1.434 . S
C1297 C771 1.419 . S
C1305 C665 1.446 . S
C1329 C718 1.443 . S
C1337 C824 1.432 . S
C1361 C356 1.832 . S
C1369 C38 1.857 . S
C1393 C91 1.837 . S
C1401 C409 1.855 . S
C1425 C144 1.864 . S
C1433 C250 1.844 . S
C1457 C197 1.864 . S
C1465 C303 1.844 . S
C1489 C462 1.850 . S
C1497 C780 1.861 . S
C1521 C515 1.867 . S
C1529 C833 1.853 . S
C1553 C568 1.853 . S
C1561 C674 1.856 . S
C1585 C621 1.868 . S
C1593 C727 1.851 . S
C1617 C22 1.510 . S
C1625 C817 1.515 . S
C1649 C658 1.523 . S
C1657 C75 1.523 . S
C1681 C128 1.512 . S
C1689 C711 1.517 . S
C1713 C764 1.507 . S
C1721 C181 1.518 . S
C1745 C499 1.509 . S
C1753 C234 1.518 . S
C1777 C287 1.521 . S
C1785 C552 1.521 . S
C1809 C605 1.513 . S
C1817 C340 1.521 . S
C1841 C446 1.522 . S
C1849 C393 1.523 . S
