# Generated by pormake.
# Topology uow, (4)-cn, num edge types: 1
# Building blocks:
#     Node 0, Type 0, BuildingBlock: TATPOV_clean_sbu_0, # of connection points: 4
#     Node 1, Type 0, BuildingBlock: TATPOV_clean_sbu_0, # of connection points: 4
#     Node 2, Type 0, BuildingBlock: TATPOV_clean_sbu_0, # of connection points: 4
#     Node 3, Type 0, BuildingBlock: TATPOV_clean_sbu_0, # of connection points: 4
#     Node 4, Type 0, BuildingBlock: TATPOV_clean_sbu_0, # of connection points: 4
#     Node 5, Type 0, BuildingBlock: TATPOV_clean_sbu_0, # of connection points: 4
#     Node 6, Type 0, BuildingBlock: TATPOV_clean_sbu_0, # of connection points: 4
#     Node 7, Type 0, BuildingBlock: TATPOV_clean_sbu_0, # of connection points: 4
#     Node 8, Type 0, BuildingBlock: TATPOV_clean_sbu_0, # of connection points: 4
#     Node 9, Type 0, BuildingBlock: TATPOV_clean_sbu_0, # of connection points: 4
#     Node 10, Type 0, BuildingBlock: TATPOV_clean_sbu_0, # of connection points: 4
#     Node 11, Type 0, BuildingBlock: TATPOV_clean_sbu_0, # of connection points: 4
#     Node 12, Type 0, BuildingBlock: TATPOV_clean_sbu_0, # of connection points: 4
#     Node 13, Type 0, BuildingBlock: TATPOV_clean_sbu_0, # of connection points: 4
#     Node 14, Type 0, BuildingBlock: TATPOV_clean_sbu_0, # of connection points: 4
#     Node 15, Type 0, BuildingBlock: TATPOV_clean_sbu_0, # of connection points: 4
#     Node 16, Type 0, BuildingBlock: TATPOV_clean_sbu_0, # of connection points: 4
#     Node 17, Type 0, BuildingBlock: TATPOV_clean_sbu_0, # of connection points: 4
#     Node 18, Type 0, BuildingBlock: TATPOV_clean_sbu_0, # of connection points: 4
#     Node 19, Type 0, BuildingBlock: TATPOV_clean_sbu_0, # of connection points: 4
#     Node 20, Type 0, BuildingBlock: TATPOV_clean_sbu_0, # of connection points: 4
#     Node 21, Type 0, BuildingBlock: TATPOV_clean_sbu_0, # of connection points: 4
#     Node 22, Type 0, BuildingBlock: TATPOV_clean_sbu_0, # of connection points: 4
#     Node 23, Type 0, BuildingBlock: TATPOV_clean_sbu_0, # of connection points: 4
#     Node 24, Type 0, BuildingBlock: TATPOV_clean_sbu_0, # of connection points: 4
#     Node 25, Type 0, BuildingBlock: TATPOV_clean_sbu_0, # of connection points: 4
#     Node 26, Type 0, BuildingBlock: TATPOV_clean_sbu_0, # of connection points: 4
#     Node 27, Type 0, BuildingBlock: TATPOV_clean_sbu_0, # of connection points: 4
#     Node 28, Type 0, BuildingBlock: TATPOV_clean_sbu_0, # of connection points: 4
#     Node 29, Type 0, BuildingBlock: TATPOV_clean_sbu_0, # of connection points: 4
#     Node 30, Type 0, BuildingBlock: TATPOV_clean_sbu_0, # of connection points: 4
#     Node 31, Type 0, BuildingBlock: TATPOV_clean_sbu_0, # of connection points: 4
#     Edge 32, Type (0, 0), BuildingBlock: KIFKEQ_clean_linker_1, # of connection points: 2
#     Edge 33, Type (0, 0), BuildingBlock: KIFKEQ_clean_linker_1, # of connection points: 2
#     Edge 34, Type (0, 0), BuildingBlock: KIFKEQ_clean_linker_1, # of connection points: 2
#     Edge 35, Type (0, 0), BuildingBlock: KIFKEQ_clean_linker_1, # of connection points: 2
#     Edge 36, Type (0, 0), BuildingBlock: KIFKEQ_clean_linker_1, # of connection points: 2
#     Edge 37, Type (0, 0), BuildingBlock: KIFKEQ_clean_linker_1, # of connection points: 2
#     Edge 38, Type (0, 0), BuildingBlock: KIFKEQ_clean_linker_1, # of connection points: 2
#     Edge 39, Type (0, 0), BuildingBlock: KIFKEQ_clean_linker_1, # of connection points: 2
#     Edge 40, Type (0, 0), BuildingBlock: KIFKEQ_clean_linker_1, # of connection points: 2
#     Edge 41, Type (0, 0), BuildingBlock: KIFKEQ_clean_linker_1, # of connection points: 2
#     Edge 42, Type (0, 0), BuildingBlock: KIFKEQ_clean_linker_1, # of connection points: 2
#     Edge 43, Type (0, 0), BuildingBlock: KIFKEQ_clean_linker_1, # of connection points: 2
#     Edge 44, Type (0, 0), BuildingBlock: KIFKEQ_clean_linker_1, # of connection points: 2
#     Edge 45, Type (0, 0), BuildingBlock: KIFKEQ_clean_linker_1, # of connection points: 2
#     Edge 46, Type (0, 0), BuildingBlock: KIFKEQ_clean_linker_1, # of connection points: 2
#     Edge 47, Type (0, 0), BuildingBlock: KIFKEQ_clean_linker_1, # of connection points: 2
#     Edge 48, Type (0, 0), BuildingBlock: KIFKEQ_clean_linker_1, # of connection points: 2
#     Edge 49, Type (0, 0), BuildingBlock: KIFKEQ_clean_linker_1, # of connection points: 2
#     Edge 50, Type (0, 0), BuildingBlock: KIFKEQ_clean_linker_1, # of connection points: 2
#     Edge 51, Type (0, 0), BuildingBlock: KIFKEQ_clean_linker_1, # of connection points: 2
#     Edge 52, Type (0, 0), BuildingBlock: KIFKEQ_clean_linker_1, # of connection points: 2
#     Edge 53, Type (0, 0), BuildingBlock: KIFKEQ_clean_linker_1, # of connection points: 2
#     Edge 54, Type (0, 0), BuildingBlock: KIFKEQ_clean_linker_1, # of connection points: 2
#     Edge 55, Type (0, 0), BuildingBlock: KIFKEQ_clean_linker_1, # of connection points: 2
#     Edge 56, Type (0, 0), BuildingBlock: KIFKEQ_clean_linker_1, # of connection points: 2
#     Edge 57, Type (0, 0), BuildingBlock: KIFKEQ_clean_linker_1, # of connection points: 2
#     Edge 58, Type (0, 0), BuildingBlock: KIFKEQ_clean_linker_1, # of connection points: 2
#     Edge 59, Type (0, 0), BuildingBlock: KIFKEQ_clean_linker_1, # of connection points: 2
#     Edge 60, Type (0, 0), BuildingBlock: KIFKEQ_clean_linker_1, # of connection points: 2
#     Edge 61, Type (0, 0), BuildingBlock: KIFKEQ_clean_linker_1, # of connection points: 2
#     Edge 62, Type (0, 0), BuildingBlock: KIFKEQ_clean_linker_1, # of connection points: 2
#     Edge 63, Type (0, 0), BuildingBlock: KIFKEQ_clean_linker_1, # of connection points: 2
#     Edge 64, Type (0, 0), BuildingBlock: KIFKEQ_clean_linker_1, # of connection points: 2
#     Edge 65, Type (0, 0), BuildingBlock: KIFKEQ_clean_linker_1, # of connection points: 2
#     Edge 66, Type (0, 0), BuildingBlock: KIFKEQ_clean_linker_1, # of connection points: 2
#     Edge 67, Type (0, 0), BuildingBlock: KIFKEQ_clean_linker_1, # of connection points: 2
#     Edge 68, Type (0, 0), BuildingBlock: KIFKEQ_clean_linker_1, # of connection points: 2
#     Edge 69, Type (0, 0), BuildingBlock: KIFKEQ_clean_linker_1, # of connection points: 2
#     Edge 70, Type (0, 0), BuildingBlock: KIFKEQ_clean_linker_1, # of connection points: 2
#     Edge 71, Type (0, 0), BuildingBlock: KIFKEQ_clean_linker_1, # of connection points: 2
#     Edge 72, Type (0, 0), BuildingBlock: KIFKEQ_clean_linker_1, # of connection points: 2
#     Edge 73, Type (0, 0), BuildingBlock: KIFKEQ_clean_linker_1, # of connection points: 2
#     Edge 74, Type (0, 0), BuildingBlock: KIFKEQ_clean_linker_1, # of connection points: 2
#     Edge 75, Type (0, 0), BuildingBlock: KIFKEQ_clean_linker_1, # of connection points: 2
#     Edge 76, Type (0, 0), BuildingBlock: KIFKEQ_clean_linker_1, # of connection points: 2
#     Edge 77, Type (0, 0), BuildingBlock: KIFKEQ_clean_linker_1, # of connection points: 2
#     Edge 78, Type (0, 0), BuildingBlock: KIFKEQ_clean_linker_1, # of connection points: 2
#     Edge 79, Type (0, 0), BuildingBlock: KIFKEQ_clean_linker_1, # of connection points: 2
#     Edge 80, Type (0, 0), BuildingBlock: KIFKEQ_clean_linker_1, # of connection points: 2
#     Edge 81, Type (0, 0), BuildingBlock: KIFKEQ_clean_linker_1, # of connection points: 2
#     Edge 82, Type (0, 0), BuildingBlock: KIFKEQ_clean_linker_1, # of connection points: 2
#     Edge 83, Type (0, 0), BuildingBlock: KIFKEQ_clean_linker_1, # of connection points: 2
#     Edge 84, Type (0, 0), BuildingBlock: KIFKEQ_clean_linker_1, # of connection points: 2
#     Edge 85, Type (0, 0), BuildingBlock: KIFKEQ_clean_linker_1, # of connection points: 2
#     Edge 86, Type (0, 0), BuildingBlock: KIFKEQ_clean_linker_1, # of connection points: 2
#     Edge 87, Type (0, 0), BuildingBlock: KIFKEQ_clean_linker_1, # of connection points: 2
#     Edge 88, Type (0, 0), BuildingBlock: KIFKEQ_clean_linker_1, # of connection points: 2
#     Edge 89, Type (0, 0), BuildingBlock: KIFKEQ_clean_linker_1, # of connection points: 2
#     Edge 90, Type (0, 0), BuildingBlock: KIFKEQ_clean_linker_1, # of connection points: 2
#     Edge 91, Type (0, 0), BuildingBlock: KIFKEQ_clean_linker_1, # of connection points: 2
#     Edge 92, Type (0, 0), BuildingBlock: KIFKEQ_clean_linker_1, # of connection points: 2
#     Edge 93, Type (0, 0), BuildingBlock: KIFKEQ_clean_linker_1, # of connection points: 2
#     Edge 94, Type (0, 0), BuildingBlock: KIFKEQ_clean_linker_1, # of connection points: 2
#     Edge 95, Type (0, 0), BuildingBlock: KIFKEQ_clean_linker_1, # of connection points: 2
# Relax obj value: 0.174
# Max RMSD: 0.205
# Mean RMSD: 0.205
data_MOF--net-uow--node1-TATPOV_clean_sbu_0--edge1-KIFKEQ_clean_linker_1
_symmetry_space_group_name_H-M    P1
_symmetry_Int_Tables_number       1
_symmetry_cell_setting            triclinic
loop_
_symmetry_equiv_pos_as_xyz
'x, y, z'
_cell_length_a     61.362773
_cell_length_b     61.39755
_cell_length_c     43.09146
_cell_angle_alpha  90.002314
_cell_angle_beta   90.056374
_cell_angle_gamma 89.890565
loop_
_atom_site_label
_atom_site_type_symbol
_atom_site_fract_x
_atom_site_fract_y
_atom_site_fract_z
_atom_type_partial_charge
Zn0 Zn 0.00991 0.34564 0.30331 0.0
Zn1 Zn 0.02198 0.38456 0.30786 0.0
O2 O 0.98818 0.38559 0.30872 0.0
O3 O 0.9797 0.35366 0.28948 0.0
O4 O 0.02996 0.41597 0.30315 0.0
O5 O 0.03228 0.33683 0.2722 0.0
O6 O 0.03772 0.37209 0.26943 0.0
C7 C 0.97392 0.37244 0.29828 0.0
C8 C 0.02961 0.35564 0.36232 0.0
O9 O 0.03523 0.37319 0.34871 0.0
O10 O 0.01698 0.34235 0.34882 0.0
C11 C 0.02071 0.43199 0.31636 0.0
O12 O 0.0058 0.42841 0.33761 0.0
C13 C 0.04156 0.3529 0.25961 0.0
Zn14 Zn 0.91074 0.7813 0.51165 0.0
Zn15 Zn 0.86817 0.7892 0.51263 0.0
O16 O 0.87154 0.75574 0.51545 0.0
O17 O 0.90631 0.74891 0.50818 0.0
O18 O 0.83578 0.79246 0.50759 0.0
O19 O 0.91485 0.80018 0.47387 0.0
O20 O 0.87927 0.80452 0.47354 0.0
C21 C 0.8871 0.74211 0.5125 0.0
C22 C 0.89514 0.80485 0.56636 0.0
O23 O 0.87674 0.80539 0.55267 0.0
O24 O 0.91119 0.79498 0.55429 0.0
C25 C 0.82223 0.78505 0.52716 0.0
O26 O 0.82949 0.77617 0.55293 0.0
C27 C 0.89788 0.80818 0.4616 0.0
Zn28 Zn 0.51485 0.66693 0.74484 0.0
Zn29 Zn 0.49323 0.6319 0.76308 0.0
O30 O 0.5262 0.62544 0.77103 0.0
O31 O 0.54392 0.65354 0.75204 0.0
O32 O 0.47803 0.60308 0.7701 0.0
O33 O 0.50254 0.66609 0.70226 0.0
O34 O 0.4827 0.6386 0.71863 0.0
C35 C 0.54411 0.63498 0.76469 0.0
C36 C 0.484 0.67415 0.79616 0.0
O37 O 0.47989 0.65388 0.7936 0.0
O38 O 0.49825 0.68289 0.77885 0.0
C39 C 0.48733 0.58631 0.78129 0.0
O40 O 0.50731 0.58793 0.79197 0.0
C41 C 0.48787 0.65209 0.69745 0.0
Zn42 Zn 0.59207 0.21717 0.04358 0.0
Zn43 Zn 0.63075 0.1996 0.03765 0.0
O44 O 0.6358 0.23174 0.05184 0.0
O45 O 0.60348 0.24711 0.04944 0.0
O46 O 0.6613 0.1895 0.02824 0.0
O47 O 0.58256 0.20827 0.00134 0.0
O48 O 0.6153 0.1941 -0.00439 0.0
C49 C 0.62374 0.24861 0.05411 0.0
C50 C 0.60155 0.18229 0.08774 0.0
O51 O 0.61915 0.17981 0.07245 0.0
O52 O 0.58824 0.19729 0.08058 0.0
C53 C 0.67746 0.19619 0.04402 0.0
O54 O 0.67392 0.20829 0.06866 0.0
C55 C 0.59639 0.19833 0.98488 0.0
Zn56 Zn 0.08225 0.65857 0.20557 0.0
Zn57 Zn 0.06682 0.61797 0.20458 0.0
O58 O 0.03873 0.63517 0.19737 0.0
O59 O 0.05088 0.66886 0.19973 0.0
O60 O 0.05742 0.58697 0.21007 0.0
O61 O 0.09508 0.65577 0.24787 0.0
O62 O 0.08129 0.62277 0.24715 0.0
C63 C 0.03522 0.65561 0.1963 0.0
C64 C 0.09893 0.63268 0.15501 0.0
O65 O 0.08601 0.61819 0.16537 0.0
O66 O 0.1007 0.65086 0.16863 0.0
C67 C 0.04254 0.58311 0.22982 0.0
O68 O 0.0326 0.59953 0.24332 0.0
C69 C 0.09178 0.63772 0.26112 0.0
Zn70 Zn 0.5805 0.74079 0.51358 0.0
Zn71 Zn 0.61879 0.75714 0.49774 0.0
O72 O 0.62153 0.72438 0.48729 0.0
O73 O 0.58951 0.71101 0.49976 0.0
O74 O 0.6494 0.76847 0.494 0.0
O75 O 0.58337 0.74881 0.55817 0.0
O76 O 0.61233 0.76676 0.54258 0.0
C77 C 0.60851 0.70826 0.48905 0.0
C78 C 0.57925 0.7741 0.46447 0.0
O79 O 0.59999 0.7734 0.46587 0.0
O80 O 0.56782 0.76266 0.48276 0.0
C81 C 0.66412 0.76146 0.47584 0.0
O82 O 0.65923 0.74646 0.45524 0.0
C83 C 0.59879 0.76182 0.56376 0.0
Zn84 Zn 0.4555 0.35249 0.71224 0.0
Zn85 Zn 0.44767 0.39222 0.70944 0.0
O86 O 0.4812 0.38823 0.71354 0.0
O87 O 0.48527 0.35503 0.73131 0.0
O88 O 0.44637 0.42503 0.71074 0.0
O89 O 0.42926 0.34685 0.73825 0.0
O90 O 0.42842 0.38217 0.74631 0.0
C91 C 0.49343 0.37331 0.72457 0.0
C92 C 0.44106 0.36496 0.65236 0.0
O93 O 0.43548 0.38225 0.66675 0.0
O94 O 0.45235 0.35058 0.66598 0.0
C95 C 0.43356 0.43652 0.7272 0.0
O96 O 0.41771 0.42702 0.74252 0.0
C97 C 0.42135 0.36313 0.75223 0.0
Zn98 Zn 0.90094 0.232 0.91576 0.0
Zn99 Zn 0.86356 0.22294 0.92398 0.0
O100 O 0.86447 0.25665 0.91615 0.0
O101 O 0.89823 0.26278 0.92988 0.0
O102 O 0.83222 0.21776 0.9351 0.0
O103 O 0.91311 0.21018 0.94516 0.0
O104 O 0.8796 0.21063 0.96269 0.0
C105 C 0.87958 0.27003 0.92311 0.0
C106 C 0.88468 0.20928 0.86481 0.0
O107 O 0.87046 0.20435 0.88514 0.0
O108 O 0.89825 0.22424 0.87051 0.0
C109 C 0.82509 0.19918 0.94316 0.0
O110 O 0.83816 0.18223 0.94196 0.0
C111 C 0.89947 0.20484 0.9657 0.0
Zn112 Zn 0.92087 0.65241 0.71638 0.0
Zn113 Zn 0.92665 0.61043 0.70732 0.0
O114 O 0.95788 0.62236 0.70427 0.0
O115 O 0.9535 0.657 0.71572 0.0
O116 O 0.93042 0.57786 0.7042 0.0
O117 O 0.90509 0.64824 0.75586 0.0
O118 O 0.91265 0.61333 0.75117 0.0
C119 C 0.9659 0.6412 0.70891 0.0
C120 C 0.89997 0.63745 0.66107 0.0
O121 O 0.90793 0.61904 0.66888 0.0
O122 O 0.9033 0.65412 0.67765 0.0
C123 C 0.94633 0.56856 0.69069 0.0
O124 O 0.96092 0.58048 0.67629 0.0
C125 C 0.90439 0.6291 0.76647 0.0
Zn126 Zn 0.08119 0.19614 0.4796 0.0
Zn127 Zn 0.12373 0.2011 0.46929 0.0
O128 O 0.11214 0.23267 0.46873 0.0
O129 O 0.07772 0.22881 0.48202 0.0
O130 O 0.15635 0.20508 0.46581 0.0
O131 O 0.08571 0.17861 0.51762 0.0
O132 O 0.12074 0.18462 0.51114 0.0
C133 C 0.09366 0.24099 0.47522 0.0
C134 C 0.09599 0.17649 0.42239 0.0
O135 O 0.11468 0.18367 0.43028 0.0
O136 O 0.07948 0.18006 0.43925 0.0
C137 C 0.16936 0.19128 0.4778 0.0
O138 O 0.16141 0.17362 0.4907 0.0
C139 C 0.10516 0.17628 0.52663 0.0
Zn140 Zn 0.54854 0.33387 0.24277 0.0
Zn141 Zn 0.55338 0.37542 0.22732 0.0
O142 O 0.52429 0.36623 0.20665 0.0
O143 O 0.52003 0.33192 0.22006 0.0
O144 O 0.55447 0.40784 0.22045 0.0
O145 O 0.54873 0.34029 0.2881 0.0
O146 O 0.55644 0.37406 0.27508 0.0
C147 C 0.51327 0.34864 0.20581 0.0
C148 C 0.58698 0.3433 0.20477 0.0
O149 O 0.57966 0.36273 0.20425 0.0
O150 O 0.57705 0.32869 0.22002 0.0
C151 C 0.53751 0.41877 0.2272 0.0
O152 O 0.52002 0.40841 0.23665 0.0
C153 C 0.55364 0.35953 0.29578 0.0
Zn154 Zn 0.42803 0.81869 0.92356 0.0
Zn155 Zn 0.36482 0.80977 0.94243 0.0
O156 O 0.37172 0.78082 0.91879 0.0
O157 O 0.40036 0.80061 0.91898 0.0
O158 O 0.33565 0.80755 0.96339 0.0
O159 O 0.42586 0.82083 0.97059 0.0
O160 O 0.38952 0.81558 0.97689 0.0
C161 C 0.39178 0.78245 0.91237 0.0
C162 C 0.38279 0.8396 0.90618 0.0
O163 O 0.36295 0.83609 0.912 0.0
O164 O 0.39606 0.82559 0.91653 0.0
C165 C 0.32847 0.79019 0.97569 0.0
O166 O 0.34063 0.77256 0.97537 0.0
C167 C 0.40884 0.81918 0.98781 0.0
Zn168 Zn 0.99607 0.33029 0.77 0.0
Zn169 Zn 0.99153 0.37083 0.75575 0.0
O170 O 0.02351 0.36812 0.77162 0.0
O171 O 0.02844 0.33269 0.77343 0.0
O172 O 0.98864 0.4023 0.74328 0.0
O173 O 0.98217 0.32027 0.73057 0.0
O174 O 0.98301 0.3545 0.71562 0.0
C175 C 0.036 0.35175 0.77603 0.0
C176 C 0.96601 0.3524 0.80982 0.0
O177 O 0.96836 0.36763 0.79007 0.0
O178 O 0.97735 0.33522 0.80781 0.0
C179 C 0.97046 0.40874 0.73243 0.0
O180 O 0.95446 0.39467 0.72972 0.0
C181 C 0.97885 0.33455 0.70996 0.0
Zn182 Zn 0.418 0.21896 0.48113 0.0
Zn183 Zn 0.37607 0.21339 0.49506 0.0
O184 O 0.38191 0.24573 0.50683 0.0
O185 O 0.41628 0.25035 0.4938 0.0
O186 O 0.3438 0.20937 0.50097 0.0
O187 O 0.41322 0.21128 0.43671 0.0
O188 O 0.37916 0.20425 0.44913 0.0
C189 C 0.39863 0.25794 0.50446 0.0
C190 C 0.40995 0.18587 0.52832 0.0
O191 O 0.39008 0.19149 0.52508 0.0
O192 O 0.42463 0.19502 0.51226 0.0
C193 C 0.33035 0.22395 0.49235 0.0
O194 O 0.33778 0.24244 0.4813 0.0
C195 C 0.39446 0.20464 0.42919 0.0
Zn196 Zn 0.53235 0.66763 0.27393 0.0
Zn197 Zn 0.5298 0.62471 0.27097 0.0
O198 O 0.49875 0.63378 0.28543 0.0
O199 O 0.50057 0.66961 0.28389 0.0
O200 O 0.52788 0.59214 0.26543 0.0
O201 O 0.54234 0.67083 0.23072 0.0
O202 O 0.54011 0.63515 0.22749 0.0
C203 C 0.48974 0.6524 0.28843 0.0
C204 C 0.56187 0.64551 0.31565 0.0
O205 O 0.55329 0.62826 0.30476 0.0
O206 O 0.5554 0.66405 0.30661 0.0
C207 C 0.54226 0.5823 0.24943 0.0
O208 O 0.55824 0.59358 0.23712 0.0
C209 C 0.54473 0.65351 0.2153 0.0
Zn210 Zn 0.0847 0.76319 0.98452 0.0
Zn211 Zn 0.12493 0.77797 -0.00242 0.0
O212 O 0.12635 0.74482 0.00379 0.0
O213 O 0.09435 0.73192 0.99007 0.0
O214 O 0.15622 0.78692 0.00316 0.0
O215 O 0.08528 0.77764 0.94312 0.0
O216 O 0.11838 0.78948 0.95357 0.0
C217 C 0.11362 0.72873 -0.00044 0.0
C218 C 0.08709 0.79363 0.03661 0.0
O219 O 0.10752 0.79398 0.03141 0.0
O220 O 0.07454 0.78181 0.02043 0.0
C221 C 0.16891 0.77821 0.02294 0.0
O222 O 0.16111 0.7637 0.04237 0.0
C223 C 0.10199 0.7884 0.93547 0.0
Zn224 Zn 0.52374 0.85237 0.79973 0.0
Zn225 Zn 0.54123 0.88809 0.78384 0.0
O226 O 0.50812 0.89467 0.79054 0.0
O227 O 0.49337 0.86217 0.79286 0.0
O228 O 0.5508 0.91694 0.76677 0.0
O229 O 0.53809 0.83543 0.76627 0.0
O230 O 0.55025 0.86684 0.74896 0.0
C231 C 0.49125 0.88259 0.7914 0.0
C232 C 0.55425 0.86814 0.84489 0.0
O233 O 0.55899 0.88171 0.82357 0.0
O234 O 0.53837 0.85522 0.84146 0.0
C235 C 0.56654 0.92917 0.77457 0.0
O236 O 0.57973 0.9231 0.797 0.0
C237 C 0.54841 0.84626 0.74618 0.0
Zn238 Zn 0.41403 0.26958 0.98476 0.0
Zn239 Zn 0.37467 0.27902 0.00833 0.0
O240 O 0.37668 0.24537 0.01092 0.0
O241 O 0.40876 0.23762 0.99084 0.0
O242 O 0.34391 0.28593 0.02142 0.0
O243 O 0.40611 0.28275 0.94405 0.0
O244 O 0.37489 0.29293 0.96469 0.0
C245 C 0.39101 0.23142 0.00283 0.0
C246 C 0.41497 0.2972 0.03992 0.0
O247 O 0.39436 0.29467 0.03971 0.0
O248 O 0.42663 0.28852 0.019 0.0
C249 C 0.33166 0.27335 0.037 0.0
O250 O 0.33951 0.25485 0.04751 0.0
C251 C 0.38805 0.29255 0.94188 0.0
Zn252 Zn 0.96612 0.17332 0.23245 0.0
Zn253 Zn 0.96209 0.13028 0.23054 0.0
O254 O 0.99383 0.13485 0.24524 0.0
O255 O 0.99693 0.1705 0.24764 0.0
O256 O 0.96007 0.09781 0.22557 0.0
O257 O 0.96059 0.17625 0.18717 0.0
O258 O 0.95399 0.14101 0.18649 0.0
C259 C 0.00518 0.15175 0.25106 0.0
C260 C 0.93252 0.15623 0.27318 0.0
O261 O 0.93947 0.13773 0.26416 0.0
O262 O 0.94073 0.17358 0.2624 0.0
C263 C 0.96325 0.08468 0.24791 0.0
O264 O 0.96773 0.09249 0.27558 0.0
C265 C 0.95475 0.15935 0.17266 0.0
Zn266 Zn 0.07738 0.70985 0.51521 0.0
Zn267 Zn 0.11702 0.70008 0.53293 0.0
O268 O 0.11692 0.7336 0.52839 0.0
O269 O 0.08611 0.74051 0.50426 0.0
O270 O 0.14867 0.693 0.5388 0.0
O271 O 0.07656 0.68666 0.48246 0.0
O272 O 0.11118 0.68212 0.49369 0.0
C273 C 0.10409 0.74707 0.51516 0.0
C274 C 0.08078 0.69338 0.57846 0.0
O275 O 0.10059 0.68941 0.57162 0.0
O276 O 0.0684 0.70286 0.55915 0.0
C277 C 0.16234 0.70513 0.55256 0.0
O278 O 0.1554 0.72257 0.56725 0.0
C279 C 0.09466 0.67755 0.47707 0.0
Zn280 Zn 0.51949 0.16497 0.71913 0.0
Zn281 Zn 0.53801 0.12705 0.71575 0.0
O282 O 0.50646 0.12296 0.69852 0.0
O283 O 0.48985 0.15361 0.71019 0.0
O284 O 0.54947 0.0966 0.72035 0.0
O285 O 0.52806 0.17092 0.76283 0.0
O286 O 0.54351 0.13863 0.76018 0.0
C287 C 0.4892 0.13463 0.69889 0.0
C288 C 0.55406 0.16084 0.67221 0.0
O289 O 0.55724 0.14192 0.68343 0.0
O290 O 0.53906 0.17294 0.68288 0.0
C291 C 0.55149 0.08244 0.69907 0.0
O292 O 0.54605 0.08748 0.67045 0.0
C293 C 0.53892 0.15582 0.7754 0.0
Zn294 Zn 0.08276 0.29006 0.00104 0.0
Zn295 Zn 0.12594 0.28728 0.00573 0.0
O296 O 0.11621 0.25551 -0.00083 0.0
O297 O 0.08046 0.25742 -0.00318 0.0
O298 O 0.15832 0.28402 0.01125 0.0
O299 O 0.08068 0.30459 0.0421 0.0
O300 O 0.11633 0.30166 0.04691 0.0
C301 C 0.09778 0.24617 -0.00364 0.0
C302 C 0.10547 0.31439 0.9539 0.0
O303 O 0.1226 0.30686 0.9668 0.0
O304 O 0.08679 0.3094 0.96409 0.0
C305 C 0.17005 0.29936 0.02186 0.0
O306 O 0.16089 0.31811 0.02869 0.0
C307 C 0.09794 0.30785 0.05744 0.0
Zn308 Zn 0.93569 0.83904 0.19126 0.0
Zn309 Zn 0.93924 0.88177 0.1897 0.0
O310 O 0.97014 0.87136 0.17774 0.0
O311 O 0.9678 0.83577 0.18272 0.0
O312 O 0.94218 0.91434 0.19227 0.0
O313 O 0.92431 0.83863 0.23407 0.0
O314 O 0.92868 0.87423 0.23432 0.0
C315 C 0.97896 0.85256 0.17669 0.0
C316 C 0.90843 0.85904 0.14485 0.0
O317 O 0.9169 0.87678 0.15432 0.0
O318 O 0.91394 0.84104 0.15686 0.0
C319 C 0.95549 0.92227 0.21185 0.0
O320 O 0.96724 0.90894 0.2289 0.0
C321 C 0.92303 0.85669 0.24795 0.0
Zn322 Zn 0.39642 0.74807 0.48132 0.0
Zn323 Zn 0.36148 0.72585 0.48679 0.0
O324 O 0.35238 0.75802 0.47819 0.0
O325 O 0.38223 0.77715 0.48374 0.0
O326 O 0.33283 0.71258 0.49838 0.0
O327 O 0.41082 0.73569 0.51853 0.0
O328 O 0.38053 0.71713 0.52432 0.0
C329 C 0.36194 0.77645 0.47895 0.0
C330 C 0.38856 0.71693 0.43097 0.0
O331 O 0.37247 0.71068 0.44736 0.0
O332 O 0.40011 0.73291 0.43976 0.0
C333 C 0.31667 0.71176 0.48002 0.0
O334 O 0.31907 0.71832 0.4512 0.0
C335 C 0.39969 0.72193 0.5334 0.0
Zn336 Zn 0.45545 0.13693 0.18461 0.0
Zn337 Zn 0.44544 0.09925 0.19148 0.0
O338 O 0.47955 0.10018 0.18929 0.0
O339 O 0.48547 0.13415 0.20215 0.0
O340 O 0.43882 0.0677 0.20031 0.0
O341 O 0.43162 0.14876 0.2109 0.0
O342 O 0.43033 0.11523 0.22831 0.0
C343 C 0.49274 0.11525 0.19704 0.0
C344 C 0.43673 0.12062 0.13031 0.0
O345 O 0.43048 0.10613 0.14948 0.0
O346 O 0.45064 0.13462 0.13868 0.0
C347 C 0.45097 0.05234 0.19066 0.0
O348 O 0.46788 0.057 0.17323 0.0
C349 C 0.42456 0.13516 0.23041 0.0
Zn350 Zn 0.59739 0.7015 0.94618 0.0
Zn351 Zn 0.63812 0.70706 0.96392 0.0
O352 O 0.62788 0.73864 0.95418 0.0
O353 O 0.59297 0.7338 0.94482 0.0
O354 O 0.66865 0.71136 0.9799 0.0
O355 O 0.58974 0.68482 0.98431 0.0
O356 O 0.62276 0.69241 0.001 0.0
C357 C 0.60906 0.74645 0.94817 0.0
C358 C 0.62805 0.68011 0.90645 0.0
O359 O 0.64211 0.68668 0.92606 0.0
O360 O 0.60818 0.68522 0.90919 0.0
C361 C 0.67838 0.69627 -0.00533 0.0
O362 O 0.66841 0.67758 -0.00111 0.0
C363 C 0.60408 0.68387 0.00534 0.0
Zn364 Zn 0.03914 0.84273 0.68408 0.0
Zn365 Zn 0.04569 0.88279 0.68692 0.0
O366 O 0.01196 0.87967 0.68395 0.0
O367 O 0.00791 0.84541 0.69722 0.0
O368 O 0.05083 0.91464 0.69478 0.0
O369 O 0.06205 0.83471 0.71504 0.0
O370 O 0.06068 0.86964 0.72564 0.0
C371 C -0.0004 0.8638 0.69125 0.0
C372 C 0.05812 0.8592 0.62873 0.0
O373 O 0.06159 0.87577 0.64581 0.0
O374 O 0.04674 0.84356 0.63879 0.0
C375 C 0.03728 0.92987 0.68953 0.0
O376 O 0.01862 0.92534 0.67604 0.0
C377 C 0.06741 0.85053 0.73212 0.0
Zn378 Zn 0.91061 0.26711 0.44973 0.0
Zn379 Zn 0.87208 0.27365 0.46881 0.0
O380 O 0.8718 0.24197 0.4515 0.0
O381 O 0.9068 0.23481 0.44848 0.0
O382 O 0.84228 0.27792 0.48709 0.0
O383 O 0.92484 0.28128 0.48617 0.0
O384 O 0.89195 0.28078 0.50628 0.0
C385 C 0.88726 0.22849 0.44644 0.0
C386 C 0.88707 0.29743 0.41186 0.0
O387 O 0.87362 0.29678 0.43427 0.0
O388 O 0.90348 0.28488 0.41169 0.0
C389 C 0.82553 0.28088 0.47028 0.0
O390 O 0.82755 0.28045 0.43993 0.0
C391 C 0.91231 0.28451 0.50897 0.0
Zn392 Zn 0.43468 0.81084 0.27883 0.0
Zn393 Zn 0.43859 0.85427 0.27834 0.0
O394 O 0.46652 0.84424 0.30128 0.0
O395 O 0.46381 0.80846 0.30032 0.0
O396 O 0.44252 0.88655 0.27292 0.0
O397 O 0.43326 0.80879 0.23268 0.0
O398 O 0.4345 0.84461 0.23281 0.0
C399 C 0.47419 0.82547 0.30782 0.0
C400 C 0.40021 0.83435 0.31176 0.0
O401 O 0.41109 0.85131 0.30489 0.0
O402 O 0.40678 0.81573 0.30306 0.0
C403 C 0.42714 0.89733 0.26041 0.0
O404 O 0.40899 0.88722 0.25309 0.0
C405 C 0.43287 0.82666 0.21814 0.0
Zn406 Zn 0.91736 0.72844 -0.00185 0.0
Zn407 Zn 0.87939 0.7158 0.02245 0.0
O408 O 0.87665 0.74875 0.01388 0.0
O409 O 0.90634 0.7588 0.98935 0.0
O410 O 0.84886 0.70754 0.0348 0.0
O411 O 0.91605 0.70443 0.96635 0.0
O412 O 0.88399 0.69554 0.98522 0.0
C413 C 0.88786 0.76349 0.00056 0.0
C414 C 0.91974 0.7131 0.06238 0.0
O415 O 0.89957 0.70862 0.05928 0.0
O416 O 0.93015 0.722 0.04038 0.0
C417 C 0.83556 0.72064 0.04761 0.0
O418 O 0.84246 0.7399 0.0565 0.0
C419 C 0.89931 0.69242 0.96584 0.0
Zn420 Zn 0.05749 0.16699 0.78934 0.0
Zn421 Zn 0.05153 0.12399 0.7901 0.0
O422 O 0.02009 0.13558 0.78666 0.0
O423 O 0.025 0.17102 0.78442 0.0
O424 O 0.04757 0.09169 0.78498 0.0
O425 O 0.07691 0.16623 0.75245 0.0
O426 O 0.07149 0.13085 0.7527 0.0
C427 C 0.01232 0.15477 0.7842 0.0
C428 C 0.07282 0.14587 0.84539 0.0
O429 O 0.06543 0.12839 0.83343 0.0
O430 O 0.07131 0.16382 0.83112 0.0
C431 C 0.06373 0.07995 0.7771 0.0
O432 O 0.08313 0.08887 0.77533 0.0
C433 C 0.08038 0.14765 0.74085 0.0
Zn434 Zn 0.59252 0.30857 0.55735 0.0
Zn435 Zn 0.63162 0.31693 0.555 0.0
O436 O 0.62893 0.28317 0.5578 0.0
O437 O 0.59523 0.2777 0.54302 0.0
O438 O 0.66379 0.32042 0.54788 0.0
O439 O 0.58326 0.33146 0.52748 0.0
O440 O 0.61814 0.3324 0.51645 0.0
C441 C 0.61377 0.27015 0.54987 0.0
C442 C 0.60811 0.3273 0.61357 0.0
O443 O 0.62439 0.33216 0.59661 0.0
O444 O 0.59316 0.31523 0.60295 0.0
C445 C 0.67735 0.30875 0.56279 0.0
O446 O 0.6702 0.296 0.58505 0.0
C447 C 0.59858 0.33809 0.51039 0.0
H448 H 0.06024 0.31469 0.24169 0.0
H449 H 0.05609 0.38293 0.21761 0.0
H450 H 0.08051 0.30758 0.19422 0.0
H451 H 0.07642 0.3757 0.16989 0.0
H452 H 0.06914 0.33922 0.07288 0.0
H453 H 0.06174 0.3537 0.12429 0.0
H454 H 0.11487 0.31563 0.16177 0.0
H455 H 0.12254 0.30123 0.10967 0.0
C456 C 0.06396 0.32823 0.22649 0.0
C457 C 0.05622 0.34929 0.23301 0.0
C458 C 0.07582 0.32419 0.19952 0.0
C459 C 0.07996 0.34109 0.17844 0.0
C460 C 0.07336 0.3624 0.18582 0.0
C461 C 0.0617 0.3665 0.21303 0.0
C462 C 0.07955 0.33429 0.09198 0.0
C463 C 0.09619 0.31891 0.08756 0.0
C464 C 0.07546 0.34275 0.12134 0.0
C465 C 0.08772 0.33573 0.14694 0.0
C466 C 0.1052 0.32124 0.1423 0.0
C467 C 0.10959 0.31305 0.11263 0.0
H468 H 0.93769 0.88134 0.29661 0.0
H469 H 0.89118 0.83166 0.27163 0.0
H470 H 0.9293 0.87537 0.35175 0.0
H471 H 0.88267 0.82589 0.32606 0.0
H472 H 0.935 0.82287 0.43368 0.0
H473 H 0.93807 0.84134 0.38384 0.0
H474 H 0.86795 0.84216 0.37532 0.0
H475 H 0.86477 0.82358 0.42517 0.0
C476 C 0.92524 0.86966 0.30291 0.0
C477 C 0.91521 0.85677 0.28014 0.0
C478 C 0.92053 0.86617 0.33431 0.0
C479 C 0.9054 0.85012 0.34309 0.0
C480 C 0.89423 0.83851 0.32 0.0
C481 C 0.89921 0.84169 0.28887 0.0
C482 C 0.92021 0.82724 0.42141 0.0
C483 C 0.89965 0.82138 0.43307 0.0
C484 C 0.92198 0.83807 0.39305 0.0
C485 C 0.90324 0.84312 0.37576 0.0
C486 C 0.88265 0.83834 0.38819 0.0
C487 C 0.88086 0.82764 0.41665 0.0
H488 H 0.4443 0.64473 0.69139 0.0
H489 H 0.50136 0.66518 0.64068 0.0
H490 H 0.421 0.65947 0.65035 0.0
H491 H 0.47824 0.67913 0.59924 0.0
H492 H 0.38746 0.6828 0.55861 0.0
H493 H 0.40845 0.66065 0.59539 0.0
H494 H 0.45617 0.71209 0.60248 0.0
H495 H 0.43566 0.73381 0.56565 0.0
C496 C 0.45185 0.65154 0.67085 0.0
C497 C 0.47455 0.65421 0.66929 0.0
C498 C 0.43852 0.66003 0.64744 0.0
C499 C 0.44783 0.67105 0.62215 0.0
C500 C 0.47062 0.67135 0.61901 0.0
C501 C 0.48387 0.66319 0.64252 0.0
C502 C 0.4023 0.68941 0.56841 0.0
C503 C 0.41007 0.70993 0.55907 0.0
C504 C 0.41433 0.67671 0.58929 0.0
C505 C 0.43424 0.6844 0.60107 0.0
C506 C 0.44129 0.70539 0.59293 0.0
C507 C 0.4294 0.71796 0.5721 0.0
H508 H 0.57784 0.14246 0.79947 0.0
H509 H 0.51834 0.17629 0.82257 0.0
H510 H 0.5932 0.15233 0.84988 0.0
H511 H 0.53283 0.18488 0.87356 0.0
H512 H 0.57063 0.22047 0.94512 0.0
H513 H 0.55757 0.20884 0.89467 0.0
H514 H 0.59368 0.14855 0.90405 0.0
H515 H 0.60793 0.16115 0.95398 0.0
C516 C 0.5679 0.15156 0.81571 0.0
C517 C 0.54705 0.15886 0.80719 0.0
C518 C 0.57664 0.15718 0.84462 0.0
C519 C 0.56446 0.16982 0.86569 0.0
C520 C 0.54305 0.17586 0.85761 0.0
C521 C 0.53459 0.17074 0.82852 0.0
C522 C 0.57591 0.20482 0.9362 0.0
C523 C 0.59015 0.19163 0.95336 0.0
C524 C 0.56823 0.19799 0.90742 0.0
C525 C 0.57408 0.17746 0.89547 0.0
C526 C 0.58888 0.16449 0.91238 0.0
C527 C 0.59702 0.17163 0.94098 0.0
H528 H 0.07523 0.6089 0.30325 0.0
H529 H 0.12201 0.66095 0.29315 0.0
H530 H 0.07942 0.61066 0.35963 0.0
H531 H 0.12614 0.66269 0.34917 0.0
H532 H 0.06219 0.65957 0.44238 0.0
H533 H 0.06583 0.64186 0.39221 0.0
H534 H 0.13594 0.64516 0.39987 0.0
H535 H 0.13235 0.66303 0.45025 0.0
C536 C 0.08689 0.62023 0.313 0.0
C537 C 0.09797 0.63511 0.29394 0.0
C538 C 0.08924 0.62126 0.34522 0.0
C539 C 0.10292 0.63695 0.35873 0.0
C540 C 0.11559 0.65032 0.33944 0.0
C541 C 0.11306 0.64947 0.30734 0.0
C542 C 0.0784 0.65609 0.43372 0.0
C543 C 0.09697 0.66313 0.4499 0.0
C544 C 0.08049 0.6457 0.40512 0.0
C545 C 0.10118 0.6423 0.39207 0.0
C546 C 0.1198 0.64775 0.40937 0.0
C547 C 0.11772 0.65798 0.43816 0.0
H548 H 0.60733 0.80463 0.57327 0.0
H549 H 0.58979 0.74528 0.62059 0.0
H550 H 0.59794 0.82565 0.61934 0.0
H551 H 0.58191 0.76594 0.6675 0.0
H552 H 0.53532 0.80803 0.72151 0.0
H553 H 0.55208 0.78757 0.67994 0.0
H554 H 0.60199 0.83692 0.6713 0.0
H555 H 0.58422 0.85809 0.71226 0.0
C556 C 0.60229 0.79605 0.59403 0.0
C557 C 0.59892 0.77346 0.59345 0.0
C558 C 0.59694 0.80807 0.62047 0.0
C559 C 0.58856 0.79756 0.6469 0.0
C560 C 0.58749 0.77465 0.64717 0.0
C561 C 0.59225 0.76276 0.6205 0.0
C562 C 0.54986 0.81453 0.71071 0.0
C563 C 0.55848 0.83462 0.72004 0.0
C564 C 0.55969 0.80266 0.68709 0.0
C565 C 0.57872 0.81032 0.6726 0.0
C566 C 0.58732 0.83056 0.68185 0.0
C567 C 0.57717 0.8427 0.70524 0.0
H568 H 0.3962 0.27836 0.88403 0.0
H569 H 0.36931 0.33273 0.93472 0.0
H570 H 0.39475 0.29932 0.83638 0.0
H571 H 0.36814 0.35422 0.88652 0.0
H572 H 0.41845 0.38348 0.80846 0.0
H573 H 0.40079 0.36831 0.85454 0.0
H574 H 0.37104 0.31849 0.79792 0.0
H575 H 0.38917 0.33323 0.75226 0.0
C576 C 0.38947 0.29468 0.88472 0.0
C577 C 0.38297 0.30402 0.91287 0.0
C578 C 0.38845 0.30667 0.85741 0.0
C579 C 0.38126 0.32842 0.85773 0.0
C580 C 0.37369 0.33747 0.88569 0.0
C581 C 0.37428 0.3252 0.91311 0.0
C582 C 0.40741 0.36985 0.80578 0.0
C583 C 0.40554 0.35913 0.77716 0.0
C584 C 0.39723 0.36121 0.83209 0.0
C585 C 0.38497 0.34193 0.82981 0.0
C586 C 0.38074 0.33312 0.80036 0.0
C587 C 0.39112 0.34153 0.77428 0.0
H588 H 0.94082 0.19144 0.97826 0.0
H589 H 0.87555 0.19155 0.01612 0.0
H590 H 0.95465 0.176 0.02634 0.0
H591 H 0.88966 0.17595 0.06451 0.0
H592 H 0.92489 0.13489 0.14077 0.0
H593 H 0.911 0.1419 0.08815 0.0
H594 H 0.95575 0.19572 0.07908 0.0
H595 H 0.96929 0.18901 0.13129 0.0
C596 C 0.92935 0.18793 -0.00332 0.0
C597 C 0.90711 0.19309 -0.00641 0.0
C598 C 0.93732 0.17904 0.02416 0.0
C599 C 0.92323 0.17498 0.04907 0.0
C600 C 0.9008 0.17885 0.04547 0.0
C601 C 0.89278 0.18792 0.01792 0.0
C602 C 0.93193 0.14797 0.12723 0.0
C603 C 0.94809 0.16147 0.14 0.0
C604 C 0.92391 0.15204 0.09735 0.0
C605 C 0.93236 0.16931 0.07971 0.0
C606 C 0.94911 0.18218 0.09212 0.0
C607 C 0.95678 0.1784 0.12202 0.0
H608 H 0.92316 0.60515 0.81251 0.0
H609 H 0.86911 0.64796 0.79251 0.0
H610 H 0.91873 0.61246 0.86803 0.0
H611 H 0.86455 0.65516 0.84757 0.0
H612 H 0.93204 0.67476 0.93151 0.0
H613 H 0.9288 0.64957 0.88833 0.0
H614 H 0.85937 0.6453 0.90361 0.0
H615 H 0.86261 0.67067 0.94719 0.0
C616 C 0.90965 0.6152 0.82012 0.0
C617 C 0.89667 0.62629 0.79844 0.0
C618 C 0.9072 0.61951 0.85181 0.0
C619 C 0.89159 0.63472 0.86201 0.0
C620 C 0.87671 0.64335 0.84048 0.0
C621 C 0.87935 0.63929 0.80891 0.0
C622 C 0.91612 0.66818 0.92604 0.0
C623 C 0.89752 0.67504 0.9423 0.0
C624 C 0.91431 0.65346 0.90158 0.0
C625 C 0.89382 0.64543 0.89263 0.0
C626 C 0.87536 0.65125 0.91006 0.0
C627 C 0.87721 0.66582 0.93487 0.0
H628 H 0.14033 0.18018 0.56552 0.0
H629 H 0.07913 0.14644 0.55406 0.0
H630 H 0.14271 0.16674 0.61897 0.0
H631 H 0.08135 0.13329 0.60692 0.0
H632 H 0.08415 0.11253 0.70195 0.0
H633 H 0.09857 0.11289 0.64913 0.0
H634 H 0.11957 0.17943 0.66193 0.0
H635 H 0.10561 0.17897 0.7145 0.0
C636 C 0.12773 0.16944 0.57414 0.0
C637 C 0.10927 0.16479 0.55604 0.0
C638 C 0.12907 0.16176 0.60466 0.0
C639 C 0.11211 0.14916 0.61725 0.0
C640 C 0.0948 0.1428 0.59796 0.0
C641 C 0.09336 0.1506 0.56773 0.0
C642 C 0.09241 0.127 0.69374 0.0
C643 C 0.09317 0.14595 0.71198 0.0
C644 C 0.10068 0.12719 0.66353 0.0
C645 C 0.10986 0.1463 0.65121 0.0
C646 C 0.11269 0.16441 0.6707 0.0
C647 C 0.1044 0.16424 0.70077 0.0
H648 H 0.55984 0.3572 0.49605 0.0
H649 H 0.6247 0.34634 0.46008 0.0
H650 H 0.54794 0.3698 0.44525 0.0
H651 H 0.61262 0.35897 0.40903 0.0
H652 H 0.58371 0.38748 0.32028 0.0
H653 H 0.59509 0.38957 0.37489 0.0
H654 H 0.54448 0.34392 0.3994 0.0
H655 H 0.53347 0.34158 0.34527 0.0
C656 C 0.5717 0.35796 0.47748 0.0
C657 C 0.59309 0.35027 0.48185 0.0
C658 C 0.56486 0.36523 0.44844 0.0
C659 C 0.57927 0.36503 0.4232 0.0
C660 C 0.6012 0.35935 0.42819 0.0
C661 C 0.60808 0.35202 0.45736 0.0
C662 C 0.57472 0.37837 0.33757 0.0
C663 C 0.55781 0.36427 0.32871 0.0
C664 C 0.5813 0.37948 0.36866 0.0
C665 C 0.57066 0.36692 0.39126 0.0
C666 C 0.55282 0.35398 0.38253 0.0
C667 C 0.54658 0.35253 0.35154 0.0
H668 H 0.417 0.85942 0.18148 0.0
H669 H 0.44154 0.7934 0.17841 0.0
H670 H 0.41033 0.85811 0.12535 0.0
H671 H 0.43522 0.79235 0.12253 0.0
H672 H 0.44627 0.81228 0.02005 0.0
H673 H 0.45193 0.81498 0.07585 0.0
H674 H 0.38451 0.83309 0.08819 0.0
H675 H 0.37858 0.8301 0.032 0.0
C676 C 0.42112 0.84474 0.16879 0.0
C677 C 0.42981 0.82652 0.18422 0.0
C678 C 0.41714 0.84396 0.13686 0.0
C679 C 0.42224 0.82512 0.11988 0.0
C680 C 0.43122 0.80706 0.13522 0.0
C681 C 0.4348 0.80768 0.16713 0.0
C682 C 0.43262 0.8169 0.03456 0.0
C683 C 0.41195 0.82096 0.02166 0.0
C684 C 0.43588 0.81836 0.06647 0.0
C685 C 0.41866 0.82425 0.08609 0.0
C686 C 0.39804 0.82864 0.07334 0.0
C687 C 0.39464 0.82679 0.04134 0.0
H688 H 0.9591 0.29609 0.69642 0.0
H689 H 0.97629 0.35821 0.65611 0.0
H690 H 0.94212 0.2852 0.64776 0.0
H691 H 0.95936 0.34706 0.6071 0.0
H692 H 0.95185 0.30362 0.51779 0.0
H693 H 0.96739 0.31694 0.56631 0.0
H694 H 0.90908 0.29772 0.61504 0.0
H695 H 0.89332 0.2845 0.56638 0.0
C696 C 0.95934 0.3074 0.67714 0.0
C697 C 0.96911 0.328 0.68005 0.0
C698 C 0.94945 0.3012 0.64939 0.0
C699 C 0.94938 0.31534 0.62385 0.0
C700 C 0.95929 0.33587 0.62654 0.0
C701 C 0.96892 0.34223 0.65452 0.0
C702 C 0.94229 0.30227 0.53882 0.0
C703 C 0.9214 0.29289 0.53834 0.0
C704 C 0.95114 0.31005 0.5665 0.0
C705 C 0.93941 0.30833 0.59429 0.0
C706 C 0.91847 0.29911 0.59386 0.0
C707 C 0.90946 0.29161 0.56606 0.0
H708 H 0.40311 0.17375 0.23424 0.0
H709 H 0.41655 0.11498 0.28611 0.0
H710 H 0.38851 0.19078 0.28078 0.0
H711 H 0.40192 0.13225 0.33293 0.0
H712 H 0.36893 0.17034 0.41161 0.0
H713 H 0.36925 0.15204 0.36084 0.0
H714 H 0.41329 0.20108 0.32601 0.0
H715 H 0.41327 0.21892 0.37639 0.0
C716 C 0.40252 0.16429 0.25545 0.0
C717 C 0.41147 0.14321 0.25676 0.0
C718 C 0.39409 0.17405 0.28202 0.0
C719 C 0.39442 0.16294 0.31044 0.0
C720 C 0.40142 0.14112 0.31121 0.0
C721 C 0.40989 0.13129 0.28449 0.0
C722 C 0.37821 0.17741 0.39277 0.0
C723 C 0.39116 0.19594 0.39776 0.0
C724 C 0.37848 0.16691 0.36391 0.0
C725 C 0.39126 0.17519 0.33961 0.0
C726 C 0.40309 0.19448 0.34423 0.0
C727 C 0.40318 0.20465 0.37308 0.0
H728 H 0.56471 0.68851 0.18986 0.0
H729 H 0.54742 0.62158 0.17062 0.0
H730 H 0.58189 0.69132 0.13947 0.0
H731 H 0.56472 0.62462 0.11939 0.0
H732 H 0.56843 0.65928 0.01918 0.0
H733 H 0.55614 0.64803 0.0705 0.0
H734 H 0.61455 0.67497 0.11102 0.0
H735 H 0.62694 0.68632 0.05968 0.0
C736 C 0.56453 0.67436 0.17484 0.0
C737 C 0.55456 0.65484 0.18415 0.0
C738 C 0.57464 0.67593 0.14611 0.0
C739 C 0.57486 0.6581 0.12581 0.0
C740 C 0.56481 0.63855 0.13482 0.0
C741 C 0.5549 0.63685 0.16398 0.0
C742 C 0.57884 0.66248 0.03896 0.0
C743 C 0.59845 0.67408 0.03552 0.0
C744 C 0.57188 0.65585 0.06826 0.0
C745 C 0.58431 0.66085 0.0946 0.0
C746 C 0.60459 0.67114 0.09098 0.0
C747 C 0.61167 0.67761 0.06164 0.0
H748 H 0.0682 0.87526 0.78472 0.0
H749 H 0.09381 0.81596 0.74471 0.0
H750 H 0.08182 0.86401 0.83565 0.0
H751 H 0.10769 0.80501 0.79551 0.0
H752 H 0.13557 0.79734 0.89543 0.0
H753 H 0.1329 0.81691 0.84562 0.0
H754 H 0.06445 0.82827 0.86223 0.0
H755 H 0.06689 0.80836 0.91092 0.0
C756 C 0.07734 0.8602 0.7866 0.0
C757 C 0.07961 0.84627 0.76096 0.0
C758 C 0.08513 0.85381 0.81567 0.0
C759 C 0.09568 0.83365 0.81931 0.0
C760 C 0.09975 0.8207 0.79315 0.0
C761 C 0.09163 0.82689 0.76421 0.0
C762 C 0.12007 0.80422 0.88839 0.0
C763 C 0.10137 0.80115 0.90663 0.0
C764 C 0.11857 0.81541 0.86013 0.0
C765 C 0.09853 0.82423 0.85048 0.0
C766 C 0.08014 0.82189 0.86944 0.0
C767 C 0.08149 0.81029 0.89707 0.0
H768 H 0.0113 0.33097 0.40702 0.0
H769 H 0.07116 0.36352 0.38276 0.0
H770 H 0.03046 0.30928 0.44506 0.0
H771 H 0.09067 0.34194 0.42176 0.0
H772 H 0.11419 0.26886 0.43562 0.0
H773 H 0.10075 0.30426 0.41882 0.0
H774 H 0.05109 0.3021 0.48987 0.0
H775 H 0.06391 0.26614 0.50545 0.0
C776 C 0.02848 0.33407 0.41079 0.0
C777 C 0.03982 0.3486 0.39163 0.0
C778 C 0.03955 0.3217 0.43283 0.0
C779 C 0.06229 0.32351 0.43618 0.0
C780 C 0.07323 0.33985 0.41936 0.0
C781 C 0.06204 0.35238 0.39727 0.0
C782 C 0.10082 0.27626 0.44822 0.0
C783 C 0.08971 0.26455 0.47125 0.0
C784 C 0.09316 0.29668 0.43874 0.0
C785 C 0.07444 0.30585 0.45247 0.0
C786 C 0.06512 0.29524 0.47816 0.0
C787 C 0.07249 0.27467 0.48718 0.0
H788 H 0.88633 0.8475 0.57974 0.0
H789 H 0.91378 0.78858 0.61776 0.0
H790 H 0.90362 0.86869 0.62134 0.0
H791 H 0.93089 0.80924 0.65887 0.0
H792 H 0.96815 0.84235 0.72339 0.0
H793 H 0.93236 0.83278 0.70302 0.0
H794 H 0.94244 0.87655 0.62585 0.0
H795 H 0.97768 0.88682 0.64712 0.0
C796 C 0.89524 0.83903 0.5978 0.0
C797 C 0.89893 0.81651 0.59564 0.0
C798 C 0.90527 0.85113 0.62144 0.0
C799 C 0.91886 0.84076 0.64331 0.0
C800 C 0.9204 0.81788 0.6428 0.0
C801 C 0.91069 0.80595 0.61909 0.0
C802 C 0.9622 0.8507 0.70291 0.0
C803 C 0.97584 0.86489 0.68637 0.0
C804 C 0.94175 0.84514 0.69113 0.0
C805 C 0.93489 0.85324 0.66217 0.0
C806 C 0.94719 0.86988 0.64811 0.0
C807 C 0.9675 0.87576 0.66027 0.0
H808 H 0.43579 0.7788 0.91312 0.0
H809 H 0.37769 0.74519 0.88329 0.0
H810 H 0.45824 0.7508 0.88949 0.0
H811 H 0.40033 0.71726 0.8584 0.0
H812 H 0.48983 0.71737 0.80719 0.0
H813 H 0.46731 0.74158 0.83769 0.0
H814 H 0.42656 0.68746 0.86459 0.0
H815 H 0.449 0.66301 0.83294 0.0
C816 C 0.42779 0.76541 0.90139 0.0
C817 C 0.40497 0.76436 0.89964 0.0
C818 C 0.44069 0.74935 0.88774 0.0
C819 C 0.43113 0.73194 0.87154 0.0
C820 C 0.40823 0.73038 0.87083 0.0
C821 C 0.39526 0.74643 0.88489 0.0
C822 C 0.4762 0.71047 0.81976 0.0
C823 C 0.47125 0.68819 0.81754 0.0
C824 C 0.46331 0.72441 0.83749 0.0
C825 C 0.44513 0.71651 0.85377 0.0
C826 C 0.44033 0.69412 0.85211 0.0
C827 C 0.4533 0.68008 0.8342 0.0
H828 H 0.60707 0.13795 0.09079 0.0
H829 H 0.58164 0.19313 0.14112 0.0
H830 H 0.5883 0.11324 0.12676 0.0
H831 H 0.56306 0.16901 0.17655 0.0
H832 H 0.52485 0.13145 0.2337 0.0
H833 H 0.56105 0.14143 0.21536 0.0
H834 H 0.54931 0.106 0.13033 0.0
H835 H 0.51371 0.09509 0.14958 0.0
C836 C 0.59812 0.14474 0.11018 0.0
C837 C 0.5955 0.16737 0.11307 0.0
C838 C 0.5873 0.13064 0.13065 0.0
C839 C 0.57402 0.13906 0.15448 0.0
C840 C 0.5733 0.16177 0.15887 0.0
C841 C 0.5838 0.17571 0.13832 0.0
C842 C 0.53057 0.12481 0.21187 0.0
C843 C 0.51643 0.11289 0.19275 0.0
C844 C 0.55122 0.13066 0.2012 0.0
C845 C 0.55771 0.12529 0.17083 0.0
C846 C 0.54484 0.11058 0.15374 0.0
C847 C 0.52435 0.10429 0.16478 0.0
H848 H 0.07647 0.62682 0.10215 0.0
H849 H 0.14133 0.63685 0.13756 0.0
H850 H 0.08681 0.6429 0.05332 0.0
H851 H 0.15276 0.651 0.08736 0.0
H852 H 0.14445 0.71871 0.04248 0.0
H853 H 0.14739 0.68528 0.07119 0.0
H854 H 0.10135 0.65475 0.00857 0.0
H855 H 0.0972 0.68928 0.98134 0.0
C856 C 0.09342 0.63113 0.09864 0.0
C857 C 0.10799 0.63111 0.12364 0.0
C858 C 0.09949 0.64049 0.07042 0.0
C859 C 0.12046 0.64953 0.06662 0.0
C860 C 0.13612 0.64547 0.08989 0.0
C861 C 0.12977 0.63691 0.11854 0.0
C862 C 0.13534 0.70472 0.03436 0.0
C863 C 0.12004 0.70681 0.01037 0.0
C864 C 0.13715 0.68522 0.05076 0.0
C865 C 0.124 0.66715 0.04313 0.0
C866 C 0.11101 0.66848 0.01619 0.0
C867 C 0.10873 0.68824 0.00034 0.0
H868 H 0.49004 0.85296 0.35234 0.0
H869 H 0.50349 0.7923 0.30536 0.0
H870 H 0.51952 0.84522 0.38928 0.0
H871 H 0.53317 0.78489 0.34167 0.0
H872 H 0.59259 0.78307 0.40524 0.0
H873 H 0.57083 0.80019 0.36396 0.0
H874 H 0.51904 0.81226 0.42947 0.0
H875 H 0.54038 0.79473 0.47029 0.0
C876 C 0.49971 0.83834 0.34935 0.0
C877 C 0.49439 0.82313 0.32621 0.0
C878 C 0.5165 0.8339 0.37049 0.0
C879 C 0.52856 0.81447 0.36826 0.0
C880 C 0.52426 0.80008 0.34372 0.0
C881 C 0.50719 0.80425 0.32309 0.0
C882 C 0.57675 0.78981 0.41086 0.0
C883 C 0.56805 0.78745 0.44082 0.0
C884 C 0.56433 0.79954 0.38731 0.0
C885 C 0.54332 0.80757 0.39363 0.0
C886 C 0.53528 0.80642 0.42406 0.0
C887 C 0.54742 0.79626 0.44734 0.0
H888 H 0.42347 0.29184 0.48501 0.0
H889 H 0.37403 0.27468 0.55182 0.0
H890 H 0.43013 0.32582 0.51255 0.0
H891 H 0.38124 0.30835 0.58016 0.0
H892 H 0.39917 0.3682 0.63126 0.0
H893 H 0.38406 0.34806 0.58696 0.0
H894 H 0.4492 0.32826 0.56102 0.0
H895 H 0.46393 0.34821 0.60476 0.0
C896 C 0.4137 0.29557 0.50526 0.0
C897 C 0.39856 0.28043 0.51669 0.0
C898 C 0.41753 0.31503 0.52106 0.0
C899 C 0.40661 0.31959 0.54898 0.0
C900 C 0.38991 0.30543 0.55869 0.0
C901 C 0.38583 0.28604 0.54255 0.0
C902 C 0.4102 0.36032 0.61515 0.0
C903 C 0.43267 0.35967 0.62127 0.0
C904 C 0.40157 0.34858 0.59006 0.0
C905 C 0.41537 0.33634 0.57061 0.0
C906 C 0.43804 0.33763 0.5752 0.0
C907 C 0.44655 0.34905 0.60034 0.0
H908 H 0.99132 0.19326 0.77539 0.0
H909 H 0.97926 0.12479 0.79063 0.0
H910 H 0.95324 0.20107 0.78269 0.0
H911 H 0.94039 0.13252 0.79688 0.0
H912 H 0.89313 0.16631 0.86934 0.0
H913 H 0.92024 0.14815 0.83761 0.0
H914 H 0.9164 0.20048 0.77064 0.0
H915 H 0.89049 0.21938 0.80402 0.0
C916 C 0.98041 0.17975 0.77957 0.0
C917 C 0.98846 0.15848 0.78317 0.0
C918 C 0.95831 0.18417 0.78333 0.0
C919 C 0.9435 0.16745 0.79062 0.0
C920 C 0.95131 0.14586 0.79178 0.0
C921 C 0.97359 0.14143 0.78813 0.0
C922 C 0.89722 0.17334 0.84701 0.0
C923 C 0.89013 0.19439 0.83933 0.0
C924 C 0.91292 0.16294 0.82873 0.0
C925 C 0.92134 0.17334 0.80219 0.0
C926 C 0.91101 0.19247 0.79166 0.0
C927 C 0.89585 0.20316 0.81044 0.0
H928 H 0.91167 0.62192 0.60396 0.0
H929 H 0.86412 0.66176 0.65096 0.0
H930 H 0.90238 0.63962 0.55476 0.0
H931 H 0.85516 0.67972 0.60275 0.0
H932 H 0.84854 0.72144 0.52563 0.0
H933 H 0.84462 0.68622 0.55113 0.0
H934 H 0.91392 0.67526 0.54166 0.0
H935 H 0.91759 0.70972 0.51516 0.0
C936 C 0.89851 0.6337 0.60348 0.0
C937 C 0.88886 0.64083 0.63118 0.0
C938 C 0.89334 0.64405 0.5754 0.0
C939 C 0.87851 0.66163 0.57483 0.0
C940 C 0.86668 0.66635 0.60197 0.0
C941 C 0.87188 0.65611 0.62985 0.0
C942 C 0.86279 0.71114 0.52803 0.0
C943 C 0.8835 0.71873 0.51935 0.0
C944 C 0.86056 0.69095 0.54275 0.0
C945 C 0.87905 0.67814 0.54946 0.0
C946 C 0.89926 0.68455 0.53709 0.0
C947 C 0.90144 0.70458 0.52209 0.0
H948 H 0.02443 0.11541 0.27619 0.0
H949 H 0.03526 0.18385 0.25884 0.0
H950 H 0.05561 0.11495 0.31148 0.0
H951 H 0.06584 0.18353 0.2944 0.0
H952 H 0.11504 0.18452 0.36602 0.0
H953 H 0.10094 0.17248 0.31557 0.0
H954 H 0.05441 0.13123 0.3625 0.0
H955 H 0.06853 0.14307 0.41216 0.0
C956 C 0.03382 0.13018 0.27918 0.0
C957 C 0.02699 0.14982 0.26549 0.0
C958 C 0.05166 0.12993 0.29944 0.0
C959 C 0.06292 0.14931 0.30632 0.0
C960 C 0.05762 0.16828 0.28969 0.0
C961 C 0.03985 0.16853 0.26952 0.0
C962 C 0.1024 0.17223 0.36533 0.0
C963 C 0.09254 0.165 0.39281 0.0
C964 C 0.09425 0.16542 0.33652 0.0
C965 C 0.0763 0.15116 0.33497 0.0
C966 C 0.06829 0.1421 0.36264 0.0
C967 C 0.07625 0.14905 0.39122 0.0
H968 H 0.60808 0.2893 0.04427 0.0
H969 H 0.6576 0.25407 0.09482 0.0
H970 H 0.61096 0.3193 0.08035 0.0
H971 H 0.66096 0.28454 0.131 0.0
H972 H 0.61202 0.30696 0.21002 0.0
H973 H 0.63324 0.29024 0.16926 0.0
H974 H 0.625 0.34775 0.11252 0.0
H975 H 0.60309 0.36439 0.15353 0.0
C976 C 0.62033 0.28843 0.06236 0.0
C977 C 0.63207 0.26911 0.06743 0.0
C978 C 0.62215 0.30578 0.08304 0.0
C979 C 0.63568 0.30406 0.1093 0.0
C980 C 0.64996 0.28611 0.11145 0.0
C981 C 0.64815 0.2687 0.09061 0.0
C982 C 0.61528 0.31634 0.18924 0.0
C983 C 0.60526 0.33665 0.18452 0.0
C984 C 0.62775 0.30684 0.16587 0.0
C985 C 0.6304 0.3174 0.13715 0.0
C986 C 0.62285 0.33898 0.13411 0.0
C987 C 0.61034 0.34855 0.15764 0.0
H988 H 0.36581 0.85861 0.854 0.0
H989 H 0.41792 0.86346 0.92083 0.0
H990 H 0.38553 0.8834 0.81925 0.0
H991 H 0.43736 0.8881 0.88698 0.0
H992 H 0.47952 0.91708 0.82769 0.0
H993 H 0.44422 0.91983 0.85362 0.0
H994 H 0.41858 0.87023 0.79263 0.0
H995 H 0.45356 0.86769 0.76693 0.0
C996 C 0.381 0.86574 0.86175 0.0
C997 C 0.3907 0.85888 0.88958 0.0
C998 C 0.39226 0.87992 0.84196 0.0
C999 C 0.41315 0.88753 0.85011 0.0
C1000 C 0.4213 0.88277 0.87988 0.0
C1001 C 0.4103 0.86838 0.89922 0.0
C1002 C 0.46593 0.90775 0.8187 0.0
C1003 C 0.4693 0.89166 0.7961 0.0
C1004 C 0.44573 0.90926 0.83361 0.0
C1005 C 0.42889 0.89463 0.826 0.0
C1006 C 0.43121 0.88158 0.7994 0.0
C1007 C 0.45136 0.87999 0.78471 0.0
H1008 H 0.8643 0.28808 0.87001 0.0
H1009 H 0.89314 0.30402 0.95835 0.0
H1010 H 0.88028 0.32056 0.8474 0.0
H1011 H 0.90833 0.33721 0.93625 0.0
H1012 H 0.9693 0.33916 0.86921 0.0
H1013 H 0.93954 0.33029 0.90368 0.0
H1014 H 0.89364 0.35769 0.83815 0.0
H1015 H 0.92401 0.36675 0.80344 0.0
C1016 C 0.87275 0.29936 0.88514 0.0
C1017 C 0.87802 0.29334 0.91564 0.0
C1018 C 0.88201 0.31806 0.87215 0.0
C1019 C 0.8964 0.33098 0.88975 0.0
C1020 C 0.8979 0.32717 0.92187 0.0
C1021 C 0.88904 0.30827 0.93464 0.0
C1022 C 0.95293 0.34405 0.86273 0.0
C1023 C 0.94885 0.35333 0.83362 0.0
C1024 C 0.93578 0.33916 0.88262 0.0
C1025 C 0.91405 0.34307 0.8736 0.0
C1026 C 0.91015 0.35435 0.84567 0.0
C1027 C 0.9275 0.35961 0.82589 0.0
H1028 H 0.44804 0.15081 0.70353 0.0
H1029 H 0.48747 0.10646 0.64968 0.0
H1030 H 0.42313 0.15485 0.66028 0.0
H1031 H 0.46206 0.10999 0.60639 0.0
H1032 H 0.44903 0.16524 0.53324 0.0
H1033 H 0.46196 0.14271 0.57544 0.0
H1034 H 0.39845 0.14587 0.61854 0.0
H1035 H 0.3855 0.169 0.57605 0.0
C1036 C 0.4508 0.14107 0.68293 0.0
C1037 C 0.47011 0.12894 0.67959 0.0
C1038 C 0.43641 0.14332 0.65805 0.0
C1039 C 0.44105 0.13338 0.62942 0.0
C1040 C 0.45842 0.11838 0.62788 0.0
C1041 C 0.47288 0.11617 0.65283 0.0
C1042 C 0.43766 0.16087 0.55141 0.0
C1043 C 0.41638 0.16934 0.55164 0.0
C1044 C 0.445 0.14761 0.57549 0.0
C1045 C 0.43128 0.14248 0.60057 0.0
C1046 C 0.40948 0.14967 0.59971 0.0
C1047 C 0.40207 0.16292 0.57539 0.0
H1048 H 0.64322 0.69894 0.451 0.0
H1049 H 0.58491 0.67068 0.48993 0.0
H1050 H 0.64232 0.67223 0.40924 0.0
H1051 H 0.58339 0.64489 0.44777 0.0
H1052 H 0.5679 0.61482 0.36134 0.0
H1053 H 0.59057 0.61923 0.40779 0.0
H1054 H 0.61661 0.67891 0.3695 0.0
H1055 H 0.59454 0.67421 0.32375 0.0
C1056 C 0.63068 0.68655 0.45135 0.0
C1057 C 0.61347 0.68762 0.47277 0.0
C1058 C 0.63011 0.67126 0.42732 0.0
C1059 C 0.61211 0.65721 0.42414 0.0
C1060 C 0.59729 0.65569 0.44892 0.0
C1061 C 0.59802 0.67075 0.4731 0.0
C1062 C 0.57909 0.62841 0.36261 0.0
C1063 C 0.57901 0.64457 0.33957 0.0
C1064 C 0.59206 0.63097 0.38917 0.0
C1065 C 0.60511 0.64968 0.39285 0.0
C1066 C 0.60692 0.66425 0.36778 0.0
C1067 C 0.59394 0.66177 0.34157 0.0
H1068 H 0.09933 0.79949 0.09729 0.0
H1069 H 0.05231 0.81961 0.02847 0.0
H1070 H 0.07847 0.81908 0.13744 0.0
H1071 H 0.03202 0.83951 0.06788 0.0
H1072 H 0.00174 0.88013 0.13901 0.0
H1073 H 0.03403 0.87085 0.10847 0.0
H1074 H 0.03867 0.80914 0.156 0.0
H1075 H 0.00633 0.81823 0.18623 0.0
C1076 C 0.08493 0.80861 0.09069 0.0
C1077 C 0.07723 0.80799 0.06003 0.0
C1078 C 0.07304 0.81977 0.11353 0.0
C1079 C 0.05374 0.8309 0.10566 0.0
C1080 C 0.04699 0.83136 0.07454 0.0
C1081 C 0.05848 0.81982 0.05205 0.0
C1082 C 0.01008 0.86492 0.14368 0.0
C1083 C 0.0013 0.84972 0.16456 0.0
C1084 C 0.02853 0.85961 0.12619 0.0
C1085 C 0.03868 0.83921 0.12973 0.0
C1086 C 0.03124 0.82502 0.15293 0.0
C1087 C 0.01263 0.83016 0.17005 0.0
H1088 H 0.6393 0.77832 0.93487 0.0
H1089 H 0.57071 0.76806 0.95161 0.0
H1090 H 0.6316 0.81615 0.91998 0.0
H1091 H 0.56299 0.80498 0.93632 0.0
H1092 H 0.54545 0.86651 0.9065 0.0
H1093 H 0.56448 0.84284 0.94302 0.0
H1094 H 0.61497 0.83195 0.87483 0.0
H1095 H 0.59662 0.85685 0.83948 0.0
C1096 C 0.62269 0.78425 0.93596 0.0
C1097 C 0.60557 0.77012 0.94387 0.0
C1098 C 0.61826 0.80588 0.92736 0.0
C1099 C 0.59666 0.81374 0.92682 0.0
C1100 C 0.57987 0.79986 0.93687 0.0
C1101 C 0.58427 0.77842 0.94526 0.0
C1102 C 0.5613 0.86009 0.9002 0.0
C1103 C 0.56953 0.86328 0.87022 0.0
C1104 C 0.57208 0.84625 0.92087 0.0
C1105 C 0.59076 0.83468 0.91136 0.0
C1106 C 0.60058 0.8404 0.88299 0.0
C1107 C 0.59008 0.85478 0.86265 0.0
H1108 H 0.50201 0.37429 0.15636 0.0
H1109 H 0.48106 0.31825 0.20905 0.0
H1110 H 0.47438 0.36632 0.11701 0.0
H1111 H 0.45348 0.31043 0.1699 0.0
H1112 H 0.39955 0.30621 0.09826 0.0
H1113 H 0.41949 0.32358 0.14095 0.0
H1114 H 0.47442 0.33388 0.08019 0.0
H1115 H 0.45476 0.31648 0.03789 0.0
C1116 C 0.49114 0.36064 0.15997 0.0
C1117 C 0.4939 0.34671 0.18556 0.0
C1118 C 0.4754 0.35604 0.1374 0.0
C1119 C 0.46193 0.33765 0.1403 0.0
C1120 C 0.46354 0.32478 0.16713 0.0
C1121 C 0.47944 0.32919 0.18944 0.0
C1122 C 0.41575 0.31251 0.09397 0.0
C1123 C 0.4257 0.30978 0.06486 0.0
C1124 C 0.42713 0.3224 0.11837 0.0
C1125 C 0.44847 0.3301 0.11384 0.0
C1126 C 0.45791 0.32835 0.08428 0.0
C1127 C 0.44672 0.31818 0.06013 0.0
H1128 H 0.91305 0.19248 0.44759 0.0
H1129 H 0.85293 0.21732 0.40926 0.0
H1130 H 0.91532 0.16596 0.40604 0.0
H1131 H 0.85502 0.19044 0.36762 0.0
H1132 H 0.90278 0.18838 0.28058 0.0
H1133 H 0.88237 0.1968 0.32715 0.0
H1134 H 0.90497 0.13701 0.36934 0.0
H1135 H 0.92557 0.12855 0.32209 0.0
C1136 C 0.89972 0.19153 0.43112 0.0
C1137 C 0.88319 0.20739 0.43106 0.0
C1138 C 0.90095 0.1762 0.40728 0.0
C1139 C 0.88571 0.17657 0.38292 0.0
C1140 C 0.86727 0.19011 0.38573 0.0
C1141 C 0.86599 0.20542 0.40973 0.0
C1142 C 0.90285 0.17669 0.29942 0.0
C1143 C 0.91608 0.15806 0.29802 0.0
C1144 C 0.89092 0.18137 0.32608 0.0
C1145 C 0.89218 0.16767 0.35218 0.0
C1146 C 0.90379 0.14794 0.34968 0.0
C1147 C 0.91555 0.14309 0.32266 0.0
H1148 H 0.05046 0.71469 0.61188 0.0
H1149 H 0.08914 0.65592 0.61118 0.0
H1150 H 0.02849 0.7003 0.65373 0.0
H1151 H 0.06692 0.6412 0.6537 0.0
H1152 H 0.99414 0.61651 0.6746 0.0
H1153 H 0.02854 0.62865 0.65244 0.0
H1154 H 0.02486 0.68771 0.70671 0.0
H1155 H 0.99011 0.67587 0.72812 0.0
C1156 C 0.05461 0.69887 0.62137 0.0
C1157 C 0.07129 0.6863 0.60815 0.0
C1158 C 0.04213 0.69065 0.6456 0.0
C1159 C 0.04587 0.66952 0.65702 0.0
C1160 C 0.06359 0.65748 0.64524 0.0
C1161 C 0.07637 0.66592 0.6211 0.0
C1162 C 0.001 0.63177 0.68252 0.0
C1163 C 0.98914 0.64553 0.7024 0.0
C1164 C 0.02082 0.63869 0.66996 0.0
C1165 C 0.02917 0.65938 0.6773 0.0
C1166 C 0.01857 0.6719 0.70006 0.0
C1167 C 0.99867 0.66512 0.71233 0.0
H1168 H 0.59385 0.23748 0.51823 0.0
H1169 H 0.63703 0.24985 0.59531 0.0
H1170 H 0.58472 0.20207 0.54015 0.0
H1171 H 0.62724 0.21486 0.61794 0.0
H1172 H 0.5979 0.15541 0.66143 0.0
H1173 H 0.61971 0.17465 0.62212 0.0
H1174 H 0.56077 0.20362 0.58555 0.0
H1175 H 0.53949 0.18485 0.62442 0.0
C1176 C 0.60209 0.2322 0.53918 0.0
C1177 C 0.61565 0.24656 0.55555 0.0
C1178 C 0.59682 0.21197 0.5518 0.0
C1179 C 0.60462 0.20608 0.58132 0.0
C1180 C 0.62083 0.21898 0.59525 0.0
C1181 C 0.62642 0.2391 0.5823 0.0
C1182 C 0.58973 0.1655 0.64438 0.0
C1183 C 0.56713 0.16897 0.64608 0.0
C1184 C 0.60215 0.17648 0.62197 0.0
C1185 C 0.59199 0.19058 0.60062 0.0
C1186 C 0.56916 0.19263 0.60119 0.0
C1187 C 0.55694 0.18209 0.62375 0.0
H1188 H 0.05262 0.38748 0.80609 0.0
H1189 H 0.06846 0.32156 0.77929 0.0
H1190 H 0.0809 0.38613 0.84588 0.0
H1191 H 0.09597 0.3199 0.81943 0.0
H1192 H 0.13257 0.31097 0.90345 0.0
H1193 H 0.12635 0.32802 0.85267 0.0
H1194 H 0.07383 0.36602 0.8922 0.0
H1195 H 0.08024 0.34928 0.94211 0.0
C1196 C 0.0627 0.37302 0.8078 0.0
C1197 C 0.05776 0.35432 0.79043 0.0
C1198 C 0.07885 0.37219 0.83075 0.0
C1199 C 0.0901 0.35261 0.83675 0.0
C1200 C 0.08755 0.33521 0.81585 0.0
C1201 C 0.07154 0.33608 0.79288 0.0
C1202 C 0.12033 0.32362 0.90133 0.0
C1203 C 0.10655 0.32854 0.92634 0.0
C1204 C 0.11668 0.33332 0.87229 0.0
C1205 C 0.09933 0.34814 0.8681 0.0
C1206 C 0.08742 0.35484 0.8943 0.0
C1207 C 0.09091 0.34504 0.92299 0.0
H1208 H 0.84824 0.78026 0.01815 0.0
H1209 H 0.91343 0.7993 -0.00778 0.0
H1210 H 0.84289 0.81541 0.04323 0.0
H1211 H 0.90875 0.83353 0.01868 0.0
H1212 H 0.9126 0.88002 0.0891 0.0
H1213 H 0.89759 0.86638 0.04021 0.0
H1214 H 0.85729 0.82137 0.09188 0.0
H1215 H 0.87174 0.83546 0.13975 0.0
C1216 C 0.86121 0.79218 0.017 0.0
C1217 C 0.88162 0.78663 0.00451 0.0
C1218 C 0.8582 0.81234 0.03152 0.0
C1219 C 0.87578 0.82691 0.03468 0.0
C1220 C 0.89484 0.82275 0.01743 0.0
C1221 C 0.89766 0.80284 0.00232 0.0
C1222 C 0.89966 0.86805 0.08979 0.0
C1223 C 0.8937 0.85829 0.11794 0.0
C1224 C 0.8912 0.86002 0.06179 0.0
C1225 C 0.87693 0.84202 0.0618 0.0
C1226 C 0.86838 0.83501 0.09044 0.0
C1227 C 0.87678 0.84301 0.11818 0.0
H1228 H 0.38274 0.6736 0.41722 0.0
H1229 H 0.41024 0.73326 0.38171 0.0
H1230 H 0.40077 0.65315 0.37548 0.0
H1231 H 0.42824 0.7132 0.34081 0.0
H1232 H 0.45857 0.67956 0.26675 0.0
H1233 H 0.42628 0.69172 0.29477 0.0
H1234 H 0.43931 0.64411 0.36634 0.0
H1235 H 0.47103 0.63127 0.33725 0.0
C1236 C 0.39213 0.68239 0.40003 0.0
C1237 C 0.3953 0.70497 0.40283 0.0
C1238 C 0.40256 0.67069 0.37631 0.0
C1239 C 0.41602 0.68148 0.35481 0.0
C1240 C 0.41778 0.70429 0.35654 0.0
C1241 C 0.40761 0.71584 0.38024 0.0
C1242 C 0.45396 0.67114 0.28784 0.0
C1243 C 0.46733 0.6547 0.30012 0.0
C1244 C 0.43558 0.67818 0.30402 0.0
C1245 C 0.43058 0.66934 0.33326 0.0
C1246 C 0.44265 0.65127 0.34388 0.0
C1247 C 0.46086 0.64391 0.32728 0.0
H1248 H 0.45504 0.13259 0.07614 0.0
H1249 H 0.39306 0.11844 0.1186 0.0
H1250 H 0.43689 0.15268 0.03536 0.0
H1251 H 0.37446 0.13854 0.07722 0.0
H1252 H 0.36849 0.21384 0.05127 0.0
H1253 H 0.37406 0.1777 0.07299 0.0
H1254 H 0.41311 0.16002 -0.00662 0.0
H1255 H 0.40833 0.19661 0.9725 0.0
C1256 C 0.43738 0.13291 0.0758 0.0
C1257 C 0.42546 0.1243 0.10064 0.0
C1258 C 0.42686 0.14441 0.05231 0.0
C1259 C 0.40416 0.14771 0.05334 0.0
C1260 C 0.39199 0.13665 0.07609 0.0
C1261 C 0.4026 0.12492 0.09958 0.0
C1262 C 0.37764 0.20199 0.03793 0.0
C1263 C 0.38852 0.20817 0.01072 0.0
C1264 C 0.38074 0.18114 0.05026 0.0
C1265 C 0.39456 0.16608 0.03533 0.0
C1266 C 0.40289 0.17142 0.00591 0.0
C1267 C 0.40014 0.19236 -0.00608 0.0
H1268 H 0.55118 0.61287 0.81847 0.0
H1269 H 0.5843 0.6395 0.73885 0.0
H1270 H 0.58473 0.6144 0.84799 0.0
H1271 H 0.61841 0.64004 0.76784 0.0
H1272 H 0.63433 0.69118 0.84681 0.0
H1273 H 0.62323 0.66823 0.80415 0.0
H1274 H 0.62121 0.61269 0.86586 0.0
H1275 H 0.63199 0.63628 0.90884 0.0
C1276 C 0.56596 0.61788 0.80674 0.0
C1277 C 0.56505 0.62684 0.77686 0.0
C1278 C 0.58539 0.61869 0.82365 0.0
C1279 C 0.60418 0.62829 0.81071 0.0
C1280 C 0.60405 0.63335 0.77888 0.0
C1281 C 0.58453 0.63297 0.76221 0.0
C1282 C 0.63288 0.67381 0.85077 0.0
C1283 C 0.63377 0.66547 0.88094 0.0
C1284 C 0.62642 0.66048 0.82626 0.0
C1285 C 0.62046 0.63864 0.83174 0.0
C1286 C 0.62506 0.62955 0.86102 0.0
C1287 C 0.63153 0.64298 0.88559 0.0
H1288 H 0.04009 0.8455 0.57533 0.0
H1289 H 0.10137 0.86438 0.61612 0.0
H1290 H 0.05907 0.82587 0.535 0.0
H1291 H 0.12087 0.84472 0.57518 0.0
H1292 H 0.12872 0.76839 0.55814 0.0
H1293 H 0.12338 0.80583 0.57424 0.0
H1294 H 0.08286 0.81729 0.49373 0.0
H1295 H 0.0874 0.77932 0.4785 0.0
C1296 C 0.05773 0.84635 0.57462 0.0
C1297 C 0.0693 0.85608 0.59894 0.0
C1298 C 0.06875 0.83512 0.55135 0.0
C1299 C 0.09161 0.83315 0.55221 0.0
C1300 C 0.10325 0.84553 0.5742 0.0
C1301 C 0.09212 0.85699 0.59747 0.0
C1302 C 0.11937 0.7791 0.54321 0.0
C1303 C 0.1078 0.77077 0.51774 0.0
C1304 C 0.11639 0.80075 0.55233 0.0
C1305 C 0.10198 0.81443 0.53588 0.0
C1306 C 0.09344 0.80697 0.5075 0.0
C1307 C 0.09608 0.78523 0.49872 0.0
H1308 H 0.87507 0.34025 0.41729 0.0
H1309 H 0.89591 0.29176 0.35125 0.0
H1310 H 0.88451 0.36907 0.38036 0.0
H1311 H 0.90548 0.31991 0.31481 0.0
H1312 H 0.93972 0.36066 0.26158 0.0
H1313 H 0.9042 0.35032 0.28197 0.0
H1314 H 0.92092 0.37987 0.36987 0.0
H1315 H 0.95553 0.39139 0.34869 0.0
C1316 C 0.88079 0.33576 0.39439 0.0
C1317 C 0.88533 0.31392 0.38723 0.0
C1318 C 0.8863 0.35224 0.37328 0.0
C1319 C 0.89634 0.34698 0.34483 0.0
C1320 C 0.89784 0.32487 0.33632 0.0
C1321 C 0.89255 0.30856 0.35739 0.0
C1322 C 0.93516 0.36607 0.28462 0.0
C1323 C 0.95055 0.37611 0.30399 0.0
C1324 C 0.91488 0.36001 0.29644 0.0
C1325 C 0.91024 0.36305 0.32814 0.0
C1326 C 0.92399 0.37679 0.34553 0.0
C1327 C 0.94401 0.38343 0.33337 0.0
H1328 H 0.36855 0.80409 0.31938 0.0
H1329 H 0.38874 0.86753 0.35143 0.0
H1330 H 0.34491 0.80039 0.36349 0.0
H1331 H 0.36421 0.86427 0.39581 0.0
H1332 H 0.37605 0.81846 0.48212 0.0
H1333 H 0.37233 0.84335 0.4393 0.0
H1334 H 0.31929 0.80478 0.40279 0.0
H1335 H 0.32398 0.77902 0.44519 0.0
C1336 C 0.36734 0.81762 0.33543 0.0
C1337 C 0.38121 0.83565 0.33274 0.0
C1338 C 0.35342 0.81569 0.36075 0.0
C1339 C 0.35313 0.83172 0.38416 0.0
C1340 C 0.36454 0.85127 0.37882 0.0
C1341 C 0.37858 0.85319 0.35335 0.0
C1342 C 0.36293 0.81576 0.46572 0.0
C1343 C 0.35136 0.79604 0.46573 0.0
C1344 C 0.36064 0.83023 0.44099 0.0
C1345 C 0.34658 0.82517 0.41619 0.0
C1346 C 0.33122 0.80841 0.42059 0.0
C1347 C 0.33377 0.79369 0.44512 0.0
H1348 H 0.02003 0.69722 0.20203 0.0
H1349 H 0.00122 0.63311 0.17065 0.0
H1350 H 0.98737 0.71255 0.17836 0.0
H1351 H 0.96891 0.64855 0.14609 0.0
H1352 H 0.91003 0.68134 0.10523 0.0
H1353 H 0.93391 0.66803 0.14687 0.0
H1354 H 0.98089 0.71786 0.12394 0.0
H1355 H 0.95718 0.73113 0.08323 0.0
C1356 C 0.00874 0.68634 0.19051 0.0
C1357 C 0.01344 0.66403 0.18763 0.0
C1358 C 0.99004 0.69513 0.17689 0.0
C1359 C 0.97578 0.68185 0.15975 0.0
C1360 C 0.9795 0.65925 0.1592 0.0
C1361 C 0.99812 0.6504 0.17312 0.0
C1362 C 0.92523 0.68971 0.10972 0.0
C1363 C 0.93188 0.70709 0.09076 0.0
C1364 C 0.93895 0.68203 0.13339 0.0
C1365 C 0.95936 0.69182 0.13868 0.0
C1366 C 0.96521 0.71007 0.1209 0.0
C1367 C 0.95168 0.71757 0.09726 0.0
H1368 H 0.13148 0.21715 0.98869 0.0
H1369 H 0.06123 0.2219 0.98654 0.0
H1370 H 0.12941 0.18163 0.9635 0.0
H1371 H 0.05919 0.18711 0.96055 0.0
H1372 H 0.05411 0.13351 0.9 0.0
H1373 H 0.06358 0.14921 0.95049 0.0
H1374 H 0.12173 0.177 0.91007 0.0
H1375 H 0.11237 0.16106 0.86054 0.0
C1376 C 0.11558 0.21042 0.98353 0.0
C1377 C 0.09655 0.22269 0.98863 0.0
C1378 C 0.11439 0.19005 0.96907 0.0
C1379 C 0.09419 0.1817 0.95916 0.0
C1380 C 0.07507 0.19286 0.96776 0.0
C1381 C 0.07625 0.21309 0.98238 0.0
C1382 C 0.0695 0.14194 0.90258 0.0
C1383 C 0.08243 0.14639 0.87655 0.0
C1384 C 0.07483 0.15115 0.93135 0.0
C1385 C 0.09306 0.16497 0.93419 0.0
C1386 C 0.10756 0.16654 0.90902 0.0
C1387 C 0.10219 0.15744 0.88043 0.0
H1388 H 0.61336 0.37006 0.6297 0.0
H1389 H 0.59303 0.30764 0.66497 0.0
H1390 H 0.59299 0.38824 0.67111 0.0
H1391 H 0.57241 0.32529 0.70538 0.0
H1392 H 0.52358 0.35214 0.76025 0.0
H1393 H 0.56181 0.34667 0.74701 0.0
H1394 H 0.55492 0.39249 0.67137 0.0
H1395 H 0.51738 0.39889 0.68598 0.0
C1396 C 0.6054 0.36023 0.6472 0.0
C1397 C 0.60432 0.33753 0.64395 0.0
C1398 C 0.59348 0.37061 0.67071 0.0
C1399 C 0.58035 0.35835 0.69107 0.0
C1400 C 0.58214 0.33549 0.69033 0.0
C1401 C 0.59394 0.32522 0.66695 0.0
C1402 C 0.53058 0.36169 0.74162 0.0
C1403 C 0.51739 0.37544 0.72354 0.0
C1404 C 0.55247 0.35849 0.73389 0.0
C1405 C 0.56131 0.36838 0.70726 0.0
C1406 C 0.54884 0.38441 0.69192 0.0
C1407 C 0.52711 0.38802 0.70017 0.0
H1408 H 0.00987 0.47089 0.34354 0.0
H1409 H 0.04014 0.44328 0.26203 0.0
H1410 H 0.01514 0.50738 0.32232 0.0
H1411 H 0.04435 0.47935 0.24015 0.0
H1412 H 0.06863 0.54758 0.22184 0.0
H1413 H 0.06403 0.51152 0.24398 0.0
H1414 H 0.00249 0.53156 0.28382 0.0
H1415 H 0.00776 0.56805 0.26288 0.0
C1416 C 0.01761 0.47263 0.3211 0.0
C1417 C 0.02472 0.45423 0.30459 0.0
C1418 C 0.02045 0.49352 0.30875 0.0
C1419 C 0.03014 0.4964 0.27941 0.0
C1420 C 0.03723 0.4779 0.26304 0.0
C1421 C 0.03473 0.45713 0.27557 0.0
C1422 C 0.05403 0.54423 0.2351 0.0
C1423 C 0.03854 0.56064 0.24059 0.0
C1424 C 0.05133 0.5235 0.24778 0.0
C1425 C 0.03288 0.51853 0.26581 0.0
C1426 C 0.01713 0.53487 0.27063 0.0
C1427 C 0.02001 0.55573 0.25834 0.0
H1428 H 0.80302 0.79397 0.47131 0.0
H1429 H 0.7883 0.77455 0.56539 0.0
H1430 H 0.76459 0.79041 0.45754 0.0
H1431 H 0.74987 0.77107 0.55153 0.0
H1432 H 0.68019 0.78673 0.52267 0.0
H1433 H 0.71822 0.79451 0.53447 0.0
H1434 H 0.73812 0.75885 0.45292 0.0
H1435 H 0.69999 0.75094 0.44098 0.0
C1436 C 0.79157 0.78915 0.48914 0.0
C1437 C 0.79872 0.7845 0.51947 0.0
C1438 C 0.7696 0.78699 0.48116 0.0
C1439 C 0.75427 0.78042 0.50343 0.0
C1440 C 0.76131 0.77634 0.53394 0.0
C1441 C 0.78333 0.77825 0.54185 0.0
C1442 C 0.69262 0.78072 0.507 0.0
C1443 C 0.68704 0.76809 0.48093 0.0
C1444 C 0.71441 0.78509 0.51392 0.0
C1445 C 0.73111 0.77715 0.49476 0.0
C1446 C 0.72555 0.76527 0.46801 0.0
C1447 C 0.70373 0.76069 0.46124 0.0
H1448 H 0.46995 0.45847 0.70896 0.0
H1449 H 0.40972 0.46681 0.75962 0.0
H1450 H 0.48131 0.49485 0.72433 0.0
H1451 H 0.4212 0.50352 0.77478 0.0
H1452 H 0.44566 0.57684 0.76256 0.0
H1453 H 0.4309 0.54098 0.74942 0.0
H1454 H 0.49148 0.51099 0.77736 0.0
H1455 H 0.50623 0.5466 0.79068 0.0
C1456 C 0.45898 0.46815 0.72305 0.0
C1457 C 0.43896 0.45965 0.73322 0.0
C1458 C 0.4656 0.48893 0.73204 0.0
C1459 C 0.45227 0.50183 0.75111 0.0
C1460 C 0.43179 0.49385 0.76013 0.0
C1461 C 0.42525 0.47286 0.75144 0.0
C1462 C 0.45571 0.56256 0.76634 0.0
C1463 C 0.47719 0.5646 0.77744 0.0
C1464 C 0.44723 0.54206 0.75885 0.0
C1465 C 0.46018 0.52331 0.76196 0.0
C1466 C 0.48128 0.52526 0.77428 0.0
C1467 C 0.48966 0.54566 0.78211 0.0
H1468 H 0.79797 0.23215 0.96077 0.0
H1469 H 0.80261 0.16192 0.95726 0.0
H1470 H 0.76291 0.22927 0.98684 0.0
H1471 H 0.76724 0.15913 0.98331 0.0
H1472 H 0.69103 0.17003 -0.00373 0.0
H1473 H 0.72707 0.16929 0.97209 0.0
H1474 H 0.75036 0.21557 0.03978 0.0
H1475 H 0.7145 0.21631 0.06407 0.0
C1476 C 0.79145 0.21608 0.96535 0.0
C1477 C 0.8031 0.19725 0.95698 0.0
C1478 C 0.77145 0.21446 0.98052 0.0
C1479 C 0.7625 0.19398 0.98737 0.0
C1480 C 0.77381 0.17511 0.97829 0.0
C1481 C 0.79402 0.17673 0.96343 0.0
C1482 C 0.70393 0.1798 0.00627 0.0
C1483 C 0.69986 0.19336 0.03195 0.0
C1484 C 0.72455 0.17932 -0.00754 0.0
C1485 C 0.74138 0.19257 0.00386 0.0
C1486 C 0.73756 0.20542 0.03028 0.0
C1487 C 0.71706 0.20572 0.04429 0.0
H1488 H 0.9332 0.42774 0.71064 0.0
H1489 H 0.00011 0.442 0.73446 0.0
H1490 H 0.92724 0.46593 0.69772 0.0
H1491 H 0.99401 0.48028 0.72193 0.0
H1492 H 0.98063 0.54385 0.67028 0.0
H1493 H 0.98647 0.50488 0.67802 0.0
H1494 H 0.9248 0.50048 0.72584 0.0
H1495 H 0.9188 0.53927 0.71777 0.0
C1496 C 0.94665 0.439 0.71309 0.0
C1497 C 0.96711 0.43183 0.72371 0.0
C1498 C 0.94319 0.46091 0.70581 0.0
C1499 C 0.96013 0.47614 0.70889 0.0
C1500 C 0.9807 0.46891 0.71899 0.0
C1501 C 0.98415 0.44699 0.72636 0.0
C1502 C 0.96823 0.53453 0.6822 0.0
C1503 C 0.94927 0.54469 0.69346 0.0
C1504 C 0.97165 0.51224 0.68681 0.0
C1505 C 0.95614 0.49961 0.70263 0.0
C1506 C 0.93696 0.50969 0.71326 0.0
C1507 C 0.93358 0.53197 0.70876 0.0
H1508 H 0.29693 0.25299 0.48521 0.0
H1509 H 0.31034 0.18452 0.49834 0.0
H1510 H 0.25806 0.2452 0.48227 0.0
H1511 H 0.27168 0.17655 0.494 0.0
H1512 H 0.19953 0.17105 0.51421 0.0
H1513 H 0.23804 0.17946 0.51928 0.0
H1514 H 0.2314 0.2297 0.44954 0.0
H1515 H 0.19255 0.22188 0.44559 0.0
C1516 C 0.29157 0.23627 0.4874 0.0
C1517 C 0.3067 0.21939 0.49208 0.0
C1518 C 0.26928 0.23175 0.48544 0.0
C1519 C 0.26163 0.21021 0.48772 0.0
C1520 C 0.27685 0.19338 0.49264 0.0
C1521 C 0.29908 0.19793 0.49501 0.0
C1522 C 0.2063 0.18384 0.49986 0.0
C1523 C 0.193 0.19578 0.47946 0.0
C1524 C 0.22846 0.18862 0.50267 0.0
C1525 C 0.23795 0.20526 0.48481 0.0
C1526 C 0.22463 0.21704 0.4641 0.0
C1527 C 0.20238 0.21244 0.46161 0.0
H1528 H 0.51562 0.5531 0.27858 0.0
H1529 H 0.56625 0.55763 0.20928 0.0
H1530 H 0.51438 0.51378 0.27142 0.0
H1531 H 0.56449 0.51842 0.20127 0.0
H1532 H 0.5729 0.44552 0.22161 0.0
H1533 H 0.57372 0.48506 0.22605 0.0
H1534 H 0.50364 0.48606 0.23611 0.0
H1535 H 0.50295 0.44649 0.2328 0.0
C1536 C 0.52635 0.54572 0.26161 0.0
C1537 C 0.54109 0.55848 0.2446 0.0
C1538 C 0.52555 0.52317 0.25733 0.0
C1539 C 0.53932 0.51287 0.23571 0.0
C1540 C 0.55389 0.52572 0.21846 0.0
C1541 C 0.55482 0.54824 0.22295 0.0
C1542 C 0.55766 0.4542 0.22454 0.0
C1543 C 0.53788 0.44286 0.22703 0.0
C1544 C 0.55811 0.47691 0.22696 0.0
C1545 C 0.53875 0.4888 0.23164 0.0
C1546 C 0.5189 0.47743 0.23317 0.0
C1547 C 0.51849 0.45473 0.23104 0.0
H1548 H 0.20141 0.75932 0.05741 0.0
H1549 H 0.19016 0.80635 0.98447 0.0
H1550 H 0.24068 0.76353 0.05066 0.0
H1551 H 0.22921 0.81016 0.97731 0.0
H1552 H 0.3005 0.82438 0.98367 0.0
H1553 H 0.26257 0.82315 9e-05 0.0
H1554 H 0.26743 0.7534 0.01159 0.0
H1555 H 0.30557 0.75469 -0.0041 0.0
C1556 C 0.20729 0.7707 0.04015 0.0
C1557 C 0.19264 0.78241 0.02136 0.0
C1558 C 0.2298 0.773 0.03615 0.0
C1559 C 0.23811 0.78709 0.01333 0.0
C1560 C 0.22341 0.79937 -0.00464 0.0
C1561 C 0.20097 0.79708 -0.00065 0.0
C1562 C 0.29355 0.80879 0.98999 0.0
C1563 C 0.306 0.78959 0.98817 0.0
C1564 C 0.27177 0.80809 -0.00071 0.0
C1565 C 0.26188 0.78816 0.00687 0.0
C1566 C 0.27458 0.76906 0.0062 0.0
C1567 C 0.29642 0.76977 -0.00299 0.0
H1568 H 0.59502 0.9621 0.78914 0.0
H1569 H 0.54252 0.94538 0.72661 0.0
H1570 H 0.59554 -0.00103 0.76776 0.0
H1571 H 0.54272 0.98211 0.70592 0.0
H1572 H 0.55438 0.04671 0.66105 0.0
H1573 H 0.56227 0.00918 0.67627 0.0
H1574 H 0.57123 0.03004 0.77119 0.0
H1575 H 0.5639 0.06741 0.75597 0.0
C1576 C 0.58375 0.9662 0.77068 0.0
C1577 C 0.56859 0.95086 0.75983 0.0
C1578 C 0.58397 0.98735 0.75852 0.0
C1579 C 0.56909 0.99354 0.73524 0.0
C1580 C 0.55459 0.97787 0.72354 0.0
C1581 C 0.55436 0.95681 0.73565 0.0
C1582 C 0.55833 0.04331 0.68507 0.0
C1583 C 0.55827 0.06002 0.70734 0.0
C1584 C 0.56277 0.0218 0.69382 0.0
C1585 C 0.56725 0.01658 0.72499 0.0
C1586 C 0.5681 0.03348 0.74694 0.0
C1587 C 0.56369 0.05492 0.73822 0.0
H1588 H 0.29958 0.24775 0.06169 0.0
H1589 H 0.31045 0.31025 0.01825 0.0
H1590 H 0.26037 0.25453 0.0611 0.0
H1591 H 0.27132 0.31683 0.01728 0.0
H1592 H 0.20015 0.32898 0.04214 0.0
H1593 H 0.23916 0.32329 0.04989 0.0
H1594 H 0.23239 0.25641 0.02031 0.0
H1595 H 0.19343 0.26196 0.01297 0.0
C1596 C 0.29364 0.26302 0.05231 0.0
C1597 C 0.30814 0.27839 0.03983 0.0
C1598 C 0.27118 0.26683 0.05177 0.0
C1599 C 0.26274 0.28613 0.0389 0.0
C1600 C 0.2773 0.30187 0.02758 0.0
C1601 C 0.29974 0.29804 0.02801 0.0
C1602 C 0.20697 0.31304 0.03738 0.0
C1603 C 0.19368 0.29595 0.02682 0.0
C1604 C 0.22933 0.30981 0.04174 0.0
C1605 C 0.23885 0.28939 0.03577 0.0
C1606 C 0.22551 0.27225 0.02555 0.0
C1607 C 0.20319 0.27549 0.02109 0.0
H1608 H 0.96703 0.05201 0.29079 0.0
H1609 H 0.95717 0.0635 0.19283 0.0
H1610 H 0.96519 0.01284 0.28179 0.0
H1611 H 0.9559 0.0244 0.18373 0.0
H1612 H 0.93115 0.9542 0.18411 0.0
H1613 H 0.93294 0.99333 0.19307 0.0
H1614 H 0.98558 0.98349 0.2583 0.0
H1615 H 0.98342 0.94432 0.24993 0.0
C1616 C 0.96456 0.04619 0.26733 0.0
C1617 C 0.9622 0.06089 0.24256 0.0
C1618 C 0.96365 0.02373 0.26212 0.0
C1619 C 0.96041 0.01546 0.23202 0.0
C1620 C 0.9581 0.0302 0.20727 0.0
C1621 C 0.95894 0.05263 0.21247 0.0
C1622 C 0.94314 0.96038 0.2003 0.0
C1623 C 0.95711 0.94612 0.21634 0.0
C1624 C 0.94424 0.98284 0.20534 0.0
C1625 C 0.95939 0.99157 0.22645 0.0
C1626 C 0.97349 0.9773 0.24225 0.0
C1627 C 0.97235 0.95484 0.23728 0.0
H1628 H 0.27908 0.70527 0.44721 0.0
H1629 H 0.30483 0.70626 0.54062 0.0
H1630 H 0.24242 0.70028 0.46794 0.0
H1631 H 0.26814 0.70135 0.56121 0.0
H1632 H 0.19657 0.72776 0.57746 0.0
H1633 H 0.23474 0.7259 0.56165 0.0
H1634 H 0.21948 0.6735 0.49851 0.0
H1635 H 0.1814 0.67522 0.51425 0.0
C1636 C 0.27697 0.70414 0.47211 0.0
C1637 C 0.29484 0.70628 0.49224 0.0
C1638 C 0.25599 0.70119 0.48397 0.0
C1639 C 0.25247 0.70052 0.51619 0.0
C1640 C 0.2704 0.70199 0.5363 0.0
C1641 C 0.2914 0.70469 0.52445 0.0
C1642 C 0.20142 0.71558 0.56064 0.0
C1643 C 0.1859 0.70179 0.54694 0.0
C1644 C 0.22328 0.71447 0.55165 0.0
C1645 C 0.22998 0.6997 0.52862 0.0
C1646 C 0.21468 0.68522 0.51602 0.0
C1647 C 0.1929 0.68616 0.52521 0.0
H1648 H 0.41623 0.03671 0.22357 0.0
H1649 H 0.47653 0.01658 0.18031 0.0
H1650 H 0.41031 -0.00048 0.24161 0.0
H1651 H 0.47047 0.9794 0.19819 0.0
H1652 H 0.46434 0.92164 0.26487 0.0
H1653 H 0.46974 0.95923 0.24823 0.0
H1654 H 0.40231 0.96292 0.21986 0.0
H1655 H 0.39682 0.9254 0.23668 0.0
C1656 C 0.42817 0.02435 0.21778 0.0
C1657 C 0.44686 0.02962 0.20051 0.0
C1658 C 0.42473 0.00303 0.22803 0.0
C1659 C 0.43997 0.98657 0.22143 0.0
C1660 C 0.45858 0.99181 0.20399 0.0
C1661 C 0.46196 0.01308 0.19356 0.0
C1662 C 0.45063 0.9305 0.25528 0.0
C1663 C 0.43016 0.92051 0.25205 0.0
C1664 C 0.45377 0.95198 0.24554 0.0
C1665 C 0.43647 0.96398 0.23259 0.0
C1666 C 0.4159 0.95414 0.22997 0.0
C1667 C 0.41279 0.93262 0.2395 0.0
H1668 H 0.81588 0.68281 0.02953 0.0
H1669 H 0.80178 0.7474 0.06412 0.0
H1670 H 0.7772 0.67676 0.02066 0.0
H1671 H 0.76297 0.74115 0.05569 0.0
H1672 H 0.70317 0.73312 0.99089 0.0
H1673 H 0.74041 0.73827 0.00894 0.0
H1674 H 0.74132 0.67245 0.04437 0.0
H1675 H 0.70411 0.66714 0.02585 0.0
C1676 C 0.8045 0.69557 0.03582 0.0
C1677 C 0.81196 0.71568 0.04723 0.0
C1678 C 0.78229 0.69205 0.03085 0.0
C1679 C 0.76703 0.70857 0.03715 0.0
C1680 C 0.77437 0.72825 0.05011 0.0
C1681 C 0.7966 0.73176 0.05516 0.0
C1682 C 0.71125 0.71976 0.00265 0.0
C1683 C 0.70071 0.69966 0.00672 0.0
C1684 C 0.73255 0.72278 0.01325 0.0
C1685 C 0.74382 0.70578 0.02814 0.0
C1686 C 0.73314 0.6858 0.03272 0.0
C1687 C 0.71181 0.68278 0.02217 0.0
H1688 H 0.02573 0.05667 0.77686 0.0
H1689 H 0.0939 0.05219 0.75244 0.0
H1690 H 0.01965 0.02042 0.75547 0.0
H1691 H 0.0877 0.01623 0.73042 0.0
H1692 H 0.07276 0.94357 0.7224 0.0
H1693 H 0.07913 0.97934 0.74479 0.0
H1694 H 0.01856 0.0024 0.70535 0.0
H1695 H 0.01188 0.96636 0.68352 0.0
C1696 C 0.03944 0.04793 0.76704 0.0
C1697 C 0.0603 0.05732 0.76637 0.0
C1698 C 0.03591 0.02723 0.75452 0.0
C1699 C 0.05316 0.01549 0.74102 0.0
C1700 C 0.0741 0.02473 0.74091 0.0
C1701 C 0.07764 0.04539 0.75349 0.0
C1702 C 0.06083 0.95628 0.71833 0.0
C1703 C 0.04178 0.95209 0.70119 0.0
C1704 C 0.06453 0.97683 0.73111 0.0
C1705 C 0.04932 0.99372 0.72698 0.0
C1706 C 0.03043 0.98964 0.7094 0.0
C1707 C 0.02669 0.96903 0.69666 0.0
H1708 H 0.70952 0.28237 0.58561 0.0
H1709 H 0.6968 0.33106 0.51541 0.0
H1710 H 0.74568 0.27633 0.56393 0.0
H1711 H 0.73314 0.32529 0.49413 0.0
H1712 H 0.78656 0.28834 0.44132 0.0
H1713 H 0.75153 0.29649 0.46529 0.0
H1714 H 0.78128 0.29279 0.55606 0.0
H1715 H 0.81624 0.28421 0.53216 0.0
C1716 C 0.71455 0.29204 0.56586 0.0
C1717 C 0.70021 0.3071 0.55212 0.0
C1718 C 0.73532 0.28861 0.55348 0.0
C1719 C 0.74221 0.30018 0.52711 0.0
C1720 C 0.72816 0.31583 0.5141 0.0
C1721 C 0.7074 0.31926 0.52647 0.0
C1722 C 0.78564 0.28923 0.46639 0.0
C1723 C 0.80419 0.28558 0.48481 0.0
C1724 C 0.76559 0.29408 0.48013 0.0
C1725 C 0.76364 0.2954 0.51259 0.0
C1726 C 0.78219 0.29169 0.53101 0.0
C1727 C 0.80224 0.28685 0.51728 0.0
loop_
_geom_bond_atom_site_label_1
_geom_bond_atom_site_label_2
_geom_bond_distance
_geom_bond_site_symmetry_2
_ccdc_geom_bond_type
Zn0 O3 2.031 . S
Zn0 O5 2.049 . S
Zn0 O10 2.067 . S
Zn1 O2 1.962 1_455 S
Zn1 O4 1.986 . S
Zn1 O6 1.996 . S
Zn1 O9 1.943 . S
O2 Zn1 1.962 1_655 S
O2 C7 1.254 . S
O3 Zn0 2.031 . S
O3 C7 1.269 1_455 S
O4 Zn1 1.986 . S
O4 C11 1.262 . S
O5 Zn0 2.049 . S
O5 C13 1.260 . S
O6 Zn1 1.996 . S
O6 C13 1.257 . S
C7 O2 1.254 . S
C7 O3 1.269 1_655 S
C8 O9 1.249 . S
C8 O10 1.270 . S
O9 Zn1 1.943 . S
O9 C8 1.249 . S
O10 Zn0 2.067 . S
O10 C8 1.270 . S
C11 O4 1.262 . S
C11 O12 1.232 . S
O12 C11 1.232 . S
C13 O5 1.260 . S
C13 O6 1.257 . S
Zn14 O17 2.031 . S
Zn14 O19 2.049 . S
Zn14 O24 2.067 . S
Zn15 O16 1.962 . S
Zn15 O18 1.986 . S
Zn15 O20 1.996 . S
Zn15 O23 1.943 . S
O16 Zn15 1.962 . S
O16 C21 1.254 . S
O17 Zn14 2.031 . S
O17 C21 1.269 . S
O18 Zn15 1.986 . S
O18 C25 1.262 . S
O19 Zn14 2.049 . S
O19 C27 1.260 . S
O20 Zn15 1.996 . S
O20 C27 1.257 . S
C21 O16 1.254 . S
C21 O17 1.269 . S
C22 O23 1.249 . S
C22 O24 1.270 . S
O23 Zn15 1.943 . S
O23 C22 1.249 . S
O24 Zn14 2.067 . S
O24 C22 1.270 . S
C25 O18 1.262 . S
C25 O26 1.232 . S
O26 C25 1.232 . S
C27 O19 1.260 . S
C27 O20 1.257 . S
Zn28 O31 2.031 . S
Zn28 O33 2.049 . S
Zn28 O38 2.067 . S
Zn29 O30 1.962 . S
Zn29 O32 1.986 . S
Zn29 O34 1.996 . S
Zn29 O37 1.943 . S
O30 Zn29 1.962 . S
O30 C35 1.254 . S
O31 Zn28 2.031 . S
O31 C35 1.269 . S
O32 Zn29 1.986 . S
O32 C39 1.262 . S
O33 Zn28 2.049 . S
O33 C41 1.260 . S
O34 Zn29 1.996 . S
O34 C41 1.257 . S
C35 O30 1.254 . S
C35 O31 1.269 . S
C36 O37 1.249 . S
C36 O38 1.270 . S
O37 Zn29 1.943 . S
O37 C36 1.249 . S
O38 Zn28 2.067 . S
O38 C36 1.270 . S
C39 O32 1.262 . S
C39 O40 1.232 . S
O40 C39 1.232 . S
C41 O33 1.260 . S
C41 O34 1.257 . S
Zn42 O45 2.031 . S
Zn42 O47 2.049 1_554 S
Zn42 O52 2.067 . S
Zn43 O44 1.962 . S
Zn43 O46 1.986 . S
Zn43 O48 1.996 1_554 S
Zn43 O51 1.943 . S
O44 Zn43 1.962 . S
O44 C49 1.254 . S
O45 Zn42 2.031 . S
O45 C49 1.269 . S
O46 Zn43 1.986 . S
O46 C53 1.262 . S
O47 Zn42 2.049 1_556 S
O47 C55 1.260 . S
O48 Zn43 1.996 1_556 S
O48 C55 1.257 . S
C49 O44 1.254 . S
C49 O45 1.269 . S
C50 O51 1.249 . S
C50 O52 1.270 . S
O51 Zn43 1.943 . S
O51 C50 1.249 . S
O52 Zn42 2.067 . S
O52 C50 1.270 . S
C53 O46 1.262 . S
C53 O54 1.232 . S
O54 C53 1.232 . S
C55 O47 1.260 . S
C55 O48 1.257 . S
Zn56 O59 2.031 . S
Zn56 O61 2.049 . S
Zn56 O66 2.067 . S
Zn57 O58 1.962 1_455 S
Zn57 O60 1.986 . S
Zn57 O62 1.996 . S
Zn57 O65 1.943 . S
O58 Zn57 1.962 1_655 S
O58 C63 1.254 . S
O59 Zn56 2.031 . S
O59 C63 1.269 1_455 S
O60 Zn57 1.986 . S
O60 C67 1.262 . S
O61 Zn56 2.049 . S
O61 C69 1.260 . S
O62 Zn57 1.996 . S
O62 C69 1.257 . S
C63 O58 1.254 . S
C63 O59 1.269 1_655 S
C64 O65 1.249 . S
C64 O66 1.270 . S
O65 Zn57 1.943 . S
O65 C64 1.249 . S
O66 Zn56 2.067 . S
O66 C64 1.270 . S
C67 O60 1.262 . S
C67 O68 1.232 . S
O68 C67 1.232 . S
C69 O61 1.260 . S
C69 O62 1.257 . S
Zn70 O73 2.031 . S
Zn70 O75 2.049 . S
Zn70 O80 2.067 . S
Zn71 O72 1.962 . S
Zn71 O74 1.986 . S
Zn71 O76 1.996 . S
Zn71 O79 1.943 . S
O72 Zn71 1.962 . S
O72 C77 1.254 . S
O73 Zn70 2.031 . S
O73 C77 1.269 . S
O74 Zn71 1.986 . S
O74 C81 1.262 . S
O75 Zn70 2.049 . S
O75 C83 1.260 . S
O76 Zn71 1.996 . S
O76 C83 1.257 . S
C77 O72 1.254 . S
C77 O73 1.269 . S
C78 O79 1.249 . S
C78 O80 1.270 . S
O79 Zn71 1.943 . S
O79 C78 1.249 . S
O80 Zn70 2.067 . S
O80 C78 1.270 . S
C81 O74 1.262 . S
C81 O82 1.232 . S
O82 C81 1.232 . S
C83 O75 1.260 . S
C83 O76 1.257 . S
Zn84 O87 2.031 . S
Zn84 O89 2.049 . S
Zn84 O94 2.067 . S
Zn85 O86 1.962 . S
Zn85 O88 1.986 . S
Zn85 O90 1.996 . S
Zn85 O93 1.943 . S
O86 Zn85 1.962 . S
O86 C91 1.254 . S
O87 Zn84 2.031 . S
O87 C91 1.269 . S
O88 Zn85 1.986 . S
O88 C95 1.262 . S
O89 Zn84 2.049 . S
O89 C97 1.260 . S
O90 Zn85 1.996 . S
O90 C97 1.257 . S
C91 O86 1.254 . S
C91 O87 1.269 . S
C92 O93 1.249 . S
C92 O94 1.270 . S
O93 Zn85 1.943 . S
O93 C92 1.249 . S
O94 Zn84 2.067 . S
O94 C92 1.270 . S
C95 O88 1.262 . S
C95 O96 1.232 . S
O96 C95 1.232 . S
C97 O89 1.260 . S
C97 O90 1.257 . S
Zn98 O101 2.031 . S
Zn98 O103 2.049 1_556 S
Zn98 O108 2.067 . S
Zn99 O100 1.962 . S
Zn99 O102 1.986 . S
Zn99 O104 1.996 1_556 S
Zn99 O107 1.943 . S
O100 Zn99 1.962 . S
O100 C105 1.254 . S
O101 Zn98 2.031 . S
O101 C105 1.269 . S
O102 Zn99 1.986 . S
O102 C109 1.262 . S
O103 Zn98 2.049 1_554 S
O103 C111 1.260 . S
O104 Zn99 1.996 1_554 S
O104 C111 1.257 . S
C105 O100 1.254 . S
C105 O101 1.269 . S
C106 O107 1.249 . S
C106 O108 1.270 . S
O107 Zn99 1.943 . S
O107 C106 1.249 . S
O108 Zn98 2.067 . S
O108 C106 1.270 . S
C109 O102 1.262 . S
C109 O110 1.232 . S
O110 C109 1.232 . S
C111 O103 1.260 . S
C111 O104 1.257 . S
Zn112 O115 2.031 . S
Zn112 O117 2.049 . S
Zn112 O122 2.067 . S
Zn113 O114 1.962 1_655 S
Zn113 O116 1.986 . S
Zn113 O118 1.996 . S
Zn113 O121 1.943 . S
O114 Zn113 1.962 1_455 S
O114 C119 1.254 . S
O115 Zn112 2.031 . S
O115 C119 1.269 1_655 S
O116 Zn113 1.986 . S
O116 C123 1.262 . S
O117 Zn112 2.049 . S
O117 C125 1.260 . S
O118 Zn113 1.996 . S
O118 C125 1.257 . S
C119 O114 1.254 . S
C119 O115 1.269 1_455 S
C120 O121 1.249 . S
C120 O122 1.270 . S
O121 Zn113 1.943 . S
O121 C120 1.249 . S
O122 Zn112 2.067 . S
O122 C120 1.270 . S
C123 O116 1.262 . S
C123 O124 1.232 . S
O124 C123 1.232 . S
C125 O117 1.260 . S
C125 O118 1.257 . S
Zn126 O129 2.031 . S
Zn126 O131 2.049 . S
Zn126 O136 2.067 . S
Zn127 O128 1.962 . S
Zn127 O130 1.986 . S
Zn127 O132 1.996 . S
Zn127 O135 1.943 . S
O128 Zn127 1.962 . S
O128 C133 1.254 . S
O129 Zn126 2.031 . S
O129 C133 1.269 . S
O130 Zn127 1.986 . S
O130 C137 1.262 . S
O131 Zn126 2.049 . S
O131 C139 1.260 . S
O132 Zn127 1.996 . S
O132 C139 1.257 . S
C133 O128 1.254 . S
C133 O129 1.269 . S
C134 O135 1.249 . S
C134 O136 1.270 . S
O135 Zn127 1.943 . S
O135 C134 1.249 . S
O136 Zn126 2.067 . S
O136 C134 1.270 . S
C137 O130 1.262 . S
C137 O138 1.232 . S
O138 C137 1.232 . S
C139 O131 1.260 . S
C139 O132 1.257 . S
Zn140 O143 2.031 . S
Zn140 O145 2.049 . S
Zn140 O150 2.067 . S
Zn141 O142 1.962 . S
Zn141 O144 1.986 . S
Zn141 O146 1.996 . S
Zn141 O149 1.943 . S
O142 Zn141 1.962 . S
O142 C147 1.254 . S
O143 Zn140 2.031 . S
O143 C147 1.269 . S
O144 Zn141 1.986 . S
O144 C151 1.262 . S
O145 Zn140 2.049 . S
O145 C153 1.260 . S
O146 Zn141 1.996 . S
O146 C153 1.257 . S
C147 O142 1.254 . S
C147 O143 1.269 . S
C148 O149 1.249 . S
C148 O150 1.270 . S
O149 Zn141 1.943 . S
O149 C148 1.249 . S
O150 Zn140 2.067 . S
O150 C148 1.270 . S
C151 O144 1.262 . S
C151 O152 1.232 . S
O152 C151 1.232 . S
C153 O145 1.260 . S
C153 O146 1.257 . S
Zn154 O157 2.031 . S
Zn154 O159 2.049 1_556 S
Zn154 O164 2.067 . S
Zn155 O156 1.962 . S
Zn155 O158 1.986 . S
Zn155 O160 1.996 1_556 S
Zn155 O163 1.943 . S
O156 Zn155 1.962 . S
O156 C161 1.254 . S
O157 Zn154 2.031 . S
O157 C161 1.269 . S
O158 Zn155 1.986 . S
O158 C165 1.262 . S
O159 Zn154 2.049 1_554 S
O159 C167 1.260 . S
O160 Zn155 1.996 1_554 S
O160 C167 1.257 . S
C161 O156 1.254 . S
C161 O157 1.269 . S
C162 O163 1.249 . S
C162 O164 1.270 . S
O163 Zn155 1.943 . S
O163 C162 1.249 . S
O164 Zn154 2.067 . S
O164 C162 1.270 . S
C165 O158 1.262 . S
C165 O166 1.232 . S
O166 C165 1.232 . S
C167 O159 1.260 . S
C167 O160 1.257 . S
Zn168 O171 2.031 . S
Zn168 O173 2.049 . S
Zn168 O178 2.067 . S
Zn169 O170 1.962 1_655 S
Zn169 O172 1.986 . S
Zn169 O174 1.996 . S
Zn169 O177 1.943 . S
O170 Zn169 1.962 1_455 S
O170 C175 1.254 . S
O171 Zn168 2.031 . S
O171 C175 1.269 1_655 S
O172 Zn169 1.986 . S
O172 C179 1.262 . S
O173 Zn168 2.049 . S
O173 C181 1.260 . S
O174 Zn169 1.996 . S
O174 C181 1.257 . S
C175 O170 1.254 . S
C175 O171 1.269 1_455 S
C176 O177 1.249 . S
C176 O178 1.270 . S
O177 Zn169 1.943 . S
O177 C176 1.249 . S
O178 Zn168 2.067 . S
O178 C176 1.270 . S
C179 O172 1.262 . S
C179 O180 1.232 . S
O180 C179 1.232 . S
C181 O173 1.260 . S
C181 O174 1.257 . S
Zn182 O185 2.031 . S
Zn182 O187 2.049 . S
Zn182 O192 2.067 . S
Zn183 O184 1.962 . S
Zn183 O186 1.986 . S
Zn183 O188 1.996 . S
Zn183 O191 1.943 . S
O184 Zn183 1.962 . S
O184 C189 1.254 . S
O185 Zn182 2.031 . S
O185 C189 1.269 . S
O186 Zn183 1.986 . S
O186 C193 1.262 . S
O187 Zn182 2.049 . S
O187 C195 1.260 . S
O188 Zn183 1.996 . S
O188 C195 1.257 . S
C189 O184 1.254 . S
C189 O185 1.269 . S
C190 O191 1.249 . S
C190 O192 1.270 . S
O191 Zn183 1.943 . S
O191 C190 1.249 . S
O192 Zn182 2.067 . S
O192 C190 1.270 . S
C193 O186 1.262 . S
C193 O194 1.232 . S
O194 C193 1.232 . S
C195 O187 1.260 . S
C195 O188 1.257 . S
Zn196 O199 2.031 . S
Zn196 O201 2.049 . S
Zn196 O206 2.067 . S
Zn197 O198 1.962 . S
Zn197 O200 1.986 . S
Zn197 O202 1.996 . S
Zn197 O205 1.943 . S
O198 Zn197 1.962 . S
O198 C203 1.254 . S
O199 Zn196 2.031 . S
O199 C203 1.269 . S
O200 Zn197 1.986 . S
O200 C207 1.262 . S
O201 Zn196 2.049 . S
O201 C209 1.260 . S
O202 Zn197 1.996 . S
O202 C209 1.257 . S
C203 O198 1.254 . S
C203 O199 1.269 . S
C204 O205 1.249 . S
C204 O206 1.270 . S
O205 Zn197 1.943 . S
O205 C204 1.249 . S
O206 Zn196 2.067 . S
O206 C204 1.270 . S
C207 O200 1.262 . S
C207 O208 1.232 . S
O208 C207 1.232 . S
C209 O201 1.260 . S
C209 O202 1.257 . S
Zn210 O213 2.031 . S
Zn210 O215 2.049 1_554 S
Zn210 O220 2.067 . S
Zn211 O212 1.962 . S
Zn211 O214 1.986 . S
Zn211 O216 1.996 1_554 S
Zn211 O219 1.943 . S
O212 Zn211 1.962 . S
O212 C217 1.254 . S
O213 Zn210 2.031 . S
O213 C217 1.269 . S
O214 Zn211 1.986 . S
O214 C221 1.262 . S
O215 Zn210 2.049 1_556 S
O215 C223 1.260 . S
O216 Zn211 1.996 1_556 S
O216 C223 1.257 . S
C217 O212 1.254 . S
C217 O213 1.269 . S
C218 O219 1.249 . S
C218 O220 1.270 . S
O219 Zn211 1.943 . S
O219 C218 1.249 . S
O220 Zn210 2.067 . S
O220 C218 1.270 . S
C221 O214 1.262 . S
C221 O222 1.232 . S
O222 C221 1.232 . S
C223 O215 1.260 . S
C223 O216 1.257 . S
Zn224 O227 2.031 . S
Zn224 O229 2.049 . S
Zn224 O234 2.067 . S
Zn225 O226 1.962 . S
Zn225 O228 1.986 . S
Zn225 O230 1.996 . S
Zn225 O233 1.943 . S
O226 Zn225 1.962 . S
O226 C231 1.254 . S
O227 Zn224 2.031 . S
O227 C231 1.269 . S
O228 Zn225 1.986 . S
O228 C235 1.262 . S
O229 Zn224 2.049 . S
O229 C237 1.260 . S
O230 Zn225 1.996 . S
O230 C237 1.257 . S
C231 O226 1.254 . S
C231 O227 1.269 . S
C232 O233 1.249 . S
C232 O234 1.270 . S
O233 Zn225 1.943 . S
O233 C232 1.249 . S
O234 Zn224 2.067 . S
O234 C232 1.270 . S
C235 O228 1.262 . S
C235 O236 1.232 . S
O236 C235 1.232 . S
C237 O229 1.260 . S
C237 O230 1.257 . S
Zn238 O241 2.031 . S
Zn238 O243 2.049 1_554 S
Zn238 O248 2.067 . S
Zn239 O240 1.962 . S
Zn239 O242 1.986 . S
Zn239 O244 1.996 1_554 S
Zn239 O247 1.943 . S
O240 Zn239 1.962 . S
O240 C245 1.254 . S
O241 Zn238 2.031 . S
O241 C245 1.269 . S
O242 Zn239 1.986 . S
O242 C249 1.262 . S
O243 Zn238 2.049 1_556 S
O243 C251 1.260 . S
O244 Zn239 1.996 1_556 S
O244 C251 1.257 . S
C245 O240 1.254 . S
C245 O241 1.269 . S
C246 O247 1.249 . S
C246 O248 1.270 . S
O247 Zn239 1.943 . S
O247 C246 1.249 . S
O248 Zn238 2.067 . S
O248 C246 1.270 . S
C249 O242 1.262 . S
C249 O250 1.232 . S
O250 C249 1.232 . S
C251 O243 1.260 . S
C251 O244 1.257 . S
Zn252 O255 2.031 . S
Zn252 O257 2.049 . S
Zn252 O262 2.067 . S
Zn253 O254 1.962 1_655 S
Zn253 O256 1.986 . S
Zn253 O258 1.996 . S
Zn253 O261 1.943 . S
O254 Zn253 1.962 1_455 S
O254 C259 1.254 . S
O255 Zn252 2.031 . S
O255 C259 1.269 1_655 S
O256 Zn253 1.986 . S
O256 C263 1.262 . S
O257 Zn252 2.049 . S
O257 C265 1.260 . S
O258 Zn253 1.996 . S
O258 C265 1.257 . S
C259 O254 1.254 . S
C259 O255 1.269 1_455 S
C260 O261 1.249 . S
C260 O262 1.270 . S
O261 Zn253 1.943 . S
O261 C260 1.249 . S
O262 Zn252 2.067 . S
O262 C260 1.270 . S
C263 O256 1.262 . S
C263 O264 1.232 . S
O264 C263 1.232 . S
C265 O257 1.260 . S
C265 O258 1.257 . S
Zn266 O269 2.031 . S
Zn266 O271 2.049 . S
Zn266 O276 2.067 . S
Zn267 O268 1.962 . S
Zn267 O270 1.986 . S
Zn267 O272 1.996 . S
Zn267 O275 1.943 . S
O268 Zn267 1.962 . S
O268 C273 1.254 . S
O269 Zn266 2.031 . S
O269 C273 1.269 . S
O270 Zn267 1.986 . S
O270 C277 1.262 . S
O271 Zn266 2.049 . S
O271 C279 1.260 . S
O272 Zn267 1.996 . S
O272 C279 1.257 . S
C273 O268 1.254 . S
C273 O269 1.269 . S
C274 O275 1.249 . S
C274 O276 1.270 . S
O275 Zn267 1.943 . S
O275 C274 1.249 . S
O276 Zn266 2.067 . S
O276 C274 1.270 . S
C277 O270 1.262 . S
C277 O278 1.232 . S
O278 C277 1.232 . S
C279 O271 1.260 . S
C279 O272 1.257 . S
Zn280 O283 2.031 . S
Zn280 O285 2.049 . S
Zn280 O290 2.067 . S
Zn281 O282 1.962 . S
Zn281 O284 1.986 . S
Zn281 O286 1.996 . S
Zn281 O289 1.943 . S
O282 Zn281 1.962 . S
O282 C287 1.254 . S
O283 Zn280 2.031 . S
O283 C287 1.269 . S
O284 Zn281 1.986 . S
O284 C291 1.262 . S
O285 Zn280 2.049 . S
O285 C293 1.260 . S
O286 Zn281 1.996 . S
O286 C293 1.257 . S
C287 O282 1.254 . S
C287 O283 1.269 . S
C288 O289 1.249 . S
C288 O290 1.270 . S
O289 Zn281 1.943 . S
O289 C288 1.249 . S
O290 Zn280 2.067 . S
O290 C288 1.270 . S
C291 O284 1.262 . S
C291 O292 1.232 . S
O292 C291 1.232 . S
C293 O285 1.260 . S
C293 O286 1.257 . S
Zn294 O297 2.031 . S
Zn294 O299 2.049 1_556 S
Zn294 O304 2.067 . S
Zn295 O296 1.962 . S
Zn295 O298 1.986 . S
Zn295 O300 1.996 1_556 S
Zn295 O303 1.943 . S
O296 Zn295 1.962 . S
O296 C301 1.254 . S
O297 Zn294 2.031 . S
O297 C301 1.269 . S
O298 Zn295 1.986 . S
O298 C305 1.262 . S
O299 Zn294 2.049 1_554 S
O299 C307 1.260 . S
O300 Zn295 1.996 1_554 S
O300 C307 1.257 . S
C301 O296 1.254 . S
C301 O297 1.269 . S
C302 O303 1.249 . S
C302 O304 1.270 . S
O303 Zn295 1.943 . S
O303 C302 1.249 . S
O304 Zn294 2.067 . S
O304 C302 1.270 . S
C305 O298 1.262 . S
C305 O306 1.232 . S
O306 C305 1.232 . S
C307 O299 1.260 . S
C307 O300 1.257 . S
Zn308 O311 2.031 . S
Zn308 O313 2.049 . S
Zn308 O318 2.067 . S
Zn309 O310 1.962 1_655 S
Zn309 O312 1.986 . S
Zn309 O314 1.996 . S
Zn309 O317 1.943 . S
O310 Zn309 1.962 1_455 S
O310 C315 1.254 . S
O311 Zn308 2.031 . S
O311 C315 1.269 1_655 S
O312 Zn309 1.986 . S
O312 C319 1.262 . S
O313 Zn308 2.049 . S
O313 C321 1.260 . S
O314 Zn309 1.996 . S
O314 C321 1.257 . S
C315 O310 1.254 . S
C315 O311 1.269 1_455 S
C316 O317 1.249 . S
C316 O318 1.270 . S
O317 Zn309 1.943 . S
O317 C316 1.249 . S
O318 Zn308 2.067 . S
O318 C316 1.270 . S
C319 O312 1.262 . S
C319 O320 1.232 . S
O320 C319 1.232 . S
C321 O313 1.260 . S
C321 O314 1.257 . S
Zn322 O325 2.031 . S
Zn322 O327 2.049 . S
Zn322 O332 2.067 . S
Zn323 O324 1.962 . S
Zn323 O326 1.986 . S
Zn323 O328 1.996 . S
Zn323 O331 1.943 . S
O324 Zn323 1.962 . S
O324 C329 1.254 . S
O325 Zn322 2.031 . S
O325 C329 1.269 . S
O326 Zn323 1.986 . S
O326 C333 1.262 . S
O327 Zn322 2.049 . S
O327 C335 1.260 . S
O328 Zn323 1.996 . S
O328 C335 1.257 . S
C329 O324 1.254 . S
C329 O325 1.269 . S
C330 O331 1.249 . S
C330 O332 1.270 . S
O331 Zn323 1.943 . S
O331 C330 1.249 . S
O332 Zn322 2.067 . S
O332 C330 1.270 . S
C333 O326 1.262 . S
C333 O334 1.232 . S
O334 C333 1.232 . S
C335 O327 1.260 . S
C335 O328 1.257 . S
Zn336 O339 2.031 . S
Zn336 O341 2.049 . S
Zn336 O346 2.067 . S
Zn337 O338 1.962 . S
Zn337 O340 1.986 . S
Zn337 O342 1.996 . S
Zn337 O345 1.943 . S
O338 Zn337 1.962 . S
O338 C343 1.254 . S
O339 Zn336 2.031 . S
O339 C343 1.269 . S
O340 Zn337 1.986 . S
O340 C347 1.262 . S
O341 Zn336 2.049 . S
O341 C349 1.260 . S
O342 Zn337 1.996 . S
O342 C349 1.257 . S
C343 O338 1.254 . S
C343 O339 1.269 . S
C344 O345 1.249 . S
C344 O346 1.270 . S
O345 Zn337 1.943 . S
O345 C344 1.249 . S
O346 Zn336 2.067 . S
O346 C344 1.270 . S
C347 O340 1.262 . S
C347 O348 1.232 . S
O348 C347 1.232 . S
C349 O341 1.260 . S
C349 O342 1.257 . S
Zn350 O353 2.031 . S
Zn350 O355 2.049 1_556 S
Zn350 O360 2.067 . S
Zn351 O352 1.962 . S
Zn351 O354 1.986 . S
Zn351 O356 1.996 1_556 S
Zn351 O359 1.943 . S
O352 Zn351 1.962 . S
O352 C357 1.254 . S
O353 Zn350 2.031 . S
O353 C357 1.269 . S
O354 Zn351 1.986 . S
O354 C361 1.262 . S
O355 Zn350 2.049 1_554 S
O355 C363 1.260 . S
O356 Zn351 1.996 1_554 S
O356 C363 1.257 . S
C357 O352 1.254 . S
C357 O353 1.269 . S
C358 O359 1.249 . S
C358 O360 1.270 . S
O359 Zn351 1.943 . S
O359 C358 1.249 . S
O360 Zn350 2.067 . S
O360 C358 1.270 . S
C361 O354 1.262 . S
C361 O362 1.232 . S
O362 C361 1.232 . S
C363 O355 1.260 . S
C363 O356 1.257 . S
Zn364 O367 2.031 . S
Zn364 O369 2.049 . S
Zn364 O374 2.067 . S
Zn365 O366 1.962 1_455 S
Zn365 O368 1.986 . S
Zn365 O370 1.996 . S
Zn365 O373 1.943 . S
O366 Zn365 1.962 1_655 S
O366 C371 1.254 . S
O367 Zn364 2.031 . S
O367 C371 1.269 1_455 S
O368 Zn365 1.986 . S
O368 C375 1.262 . S
O369 Zn364 2.049 . S
O369 C377 1.260 . S
O370 Zn365 1.996 . S
O370 C377 1.257 . S
C371 O366 1.254 . S
C371 O367 1.269 1_655 S
C372 O373 1.249 . S
C372 O374 1.270 . S
O373 Zn365 1.943 . S
O373 C372 1.249 . S
O374 Zn364 2.067 . S
O374 C372 1.270 . S
C375 O368 1.262 . S
C375 O376 1.232 . S
O376 C375 1.232 . S
C377 O369 1.260 . S
C377 O370 1.257 . S
Zn378 O381 2.031 . S
Zn378 O383 2.049 . S
Zn378 O388 2.067 . S
Zn379 O380 1.962 . S
Zn379 O382 1.986 . S
Zn379 O384 1.996 . S
Zn379 O387 1.943 . S
O380 Zn379 1.962 . S
O380 C385 1.254 . S
O381 Zn378 2.031 . S
O381 C385 1.269 . S
O382 Zn379 1.986 . S
O382 C389 1.262 . S
O383 Zn378 2.049 . S
O383 C391 1.260 . S
O384 Zn379 1.996 . S
O384 C391 1.257 . S
C385 O380 1.254 . S
C385 O381 1.269 . S
C386 O387 1.249 . S
C386 O388 1.270 . S
O387 Zn379 1.943 . S
O387 C386 1.249 . S
O388 Zn378 2.067 . S
O388 C386 1.270 . S
C389 O382 1.262 . S
C389 O390 1.232 . S
O390 C389 1.232 . S
C391 O383 1.260 . S
C391 O384 1.257 . S
Zn392 O395 2.031 . S
Zn392 O397 2.049 . S
Zn392 O402 2.067 . S
Zn393 O394 1.962 . S
Zn393 O396 1.986 . S
Zn393 O398 1.996 . S
Zn393 O401 1.943 . S
O394 Zn393 1.962 . S
O394 C399 1.254 . S
O395 Zn392 2.031 . S
O395 C399 1.269 . S
O396 Zn393 1.986 . S
O396 C403 1.262 . S
O397 Zn392 2.049 . S
O397 C405 1.260 . S
O398 Zn393 1.996 . S
O398 C405 1.257 . S
C399 O394 1.254 . S
C399 O395 1.269 . S
C400 O401 1.249 . S
C400 O402 1.270 . S
O401 Zn393 1.943 . S
O401 C400 1.249 . S
O402 Zn392 2.067 . S
O402 C400 1.270 . S
C403 O396 1.262 . S
C403 O404 1.232 . S
O404 C403 1.232 . S
C405 O397 1.260 . S
C405 O398 1.257 . S
Zn406 O409 2.031 . S
Zn406 O411 2.049 1_554 S
Zn406 O416 2.067 . S
Zn407 O408 1.962 . S
Zn407 O410 1.986 . S
Zn407 O412 1.996 1_554 S
Zn407 O415 1.943 . S
O408 Zn407 1.962 . S
O408 C413 1.254 . S
O409 Zn406 2.031 . S
O409 C413 1.269 . S
O410 Zn407 1.986 . S
O410 C417 1.262 . S
O411 Zn406 2.049 1_556 S
O411 C419 1.260 . S
O412 Zn407 1.996 1_556 S
O412 C419 1.257 . S
C413 O408 1.254 . S
C413 O409 1.269 . S
C414 O415 1.249 . S
C414 O416 1.270 . S
O415 Zn407 1.943 . S
O415 C414 1.249 . S
O416 Zn406 2.067 . S
O416 C414 1.270 . S
C417 O410 1.262 . S
C417 O418 1.232 . S
O418 C417 1.232 . S
C419 O411 1.260 . S
C419 O412 1.257 . S
Zn420 O423 2.031 . S
Zn420 O425 2.049 . S
Zn420 O430 2.067 . S
Zn421 O422 1.962 1_455 S
Zn421 O424 1.986 . S
Zn421 O426 1.996 . S
Zn421 O429 1.943 . S
O422 Zn421 1.962 1_655 S
O422 C427 1.254 . S
O423 Zn420 2.031 . S
O423 C427 1.269 1_455 S
O424 Zn421 1.986 . S
O424 C431 1.262 . S
O425 Zn420 2.049 . S
O425 C433 1.260 . S
O426 Zn421 1.996 . S
O426 C433 1.257 . S
C427 O422 1.254 . S
C427 O423 1.269 1_655 S
C428 O429 1.249 . S
C428 O430 1.270 . S
O429 Zn421 1.943 . S
O429 C428 1.249 . S
O430 Zn420 2.067 . S
O430 C428 1.270 . S
C431 O424 1.262 . S
C431 O432 1.232 . S
O432 C431 1.232 . S
C433 O425 1.260 . S
C433 O426 1.257 . S
Zn434 O437 2.031 . S
Zn434 O439 2.049 . S
Zn434 O444 2.067 . S
Zn435 O436 1.962 . S
Zn435 O438 1.986 . S
Zn435 O440 1.996 . S
Zn435 O443 1.943 . S
O436 Zn435 1.962 . S
O436 C441 1.254 . S
O437 Zn434 2.031 . S
O437 C441 1.269 . S
O438 Zn435 1.986 . S
O438 C445 1.262 . S
O439 Zn434 2.049 . S
O439 C447 1.260 . S
O440 Zn435 1.996 . S
O440 C447 1.257 . S
C441 O436 1.254 . S
C441 O437 1.269 . S
C442 O443 1.249 . S
C442 O444 1.270 . S
O443 Zn435 1.943 . S
O443 C442 1.249 . S
O444 Zn434 2.067 . S
O444 C442 1.270 . S
C445 O438 1.262 . S
C445 O446 1.232 . S
O446 C445 1.232 . S
C447 O439 1.260 . S
C447 O440 1.257 . S
H448 C456 0.950 . S
H449 C461 0.950 . S
H450 C458 0.950 . S
H451 C460 0.950 . S
H452 C462 0.950 . S
H453 C464 0.950 . S
H454 C466 0.950 . S
H455 C467 0.950 . S
C456 H448 0.950 . S
C456 C457 1.386 . S
C456 C458 1.391 . S
C457 C456 1.386 . S
C457 C461 1.393 . S
C458 H450 0.950 . S
C458 C456 1.391 . S
C458 C459 1.400 . S
C459 C458 1.400 . S
C459 C460 1.398 . S
C459 C465 1.491 . S
C460 H451 0.950 . S
C460 C459 1.398 . S
C460 C461 1.391 . S
C461 H449 0.950 . S
C461 C457 1.393 . S
C461 C460 1.391 . S
C462 H452 0.950 . S
C462 C463 1.386 . S
C462 C464 1.391 . S
C463 C462 1.386 . S
C463 C467 1.393 . S
C464 H453 0.950 . S
C464 C462 1.391 . S
C464 C465 1.400 . S
C465 C459 1.491 . S
C465 C464 1.400 . S
C465 C466 1.398 . S
C466 H454 0.950 . S
C466 C465 1.398 . S
C466 C467 1.391 . S
C467 H455 0.950 . S
C467 C463 1.393 . S
C467 C466 1.391 . S
H468 C476 0.950 . S
H469 C481 0.950 . S
H470 C478 0.950 . S
H471 C480 0.950 . S
H472 C482 0.950 . S
H473 C484 0.950 . S
H474 C486 0.950 . S
H475 C487 0.950 . S
C476 H468 0.950 . S
C476 C477 1.386 . S
C476 C478 1.391 . S
C477 C476 1.386 . S
C477 C481 1.393 . S
C478 H470 0.950 . S
C478 C476 1.391 . S
C478 C479 1.400 . S
C479 C478 1.400 . S
C479 C480 1.398 . S
C479 C485 1.491 . S
C480 H471 0.950 . S
C480 C479 1.398 . S
C480 C481 1.391 . S
C481 H469 0.950 . S
C481 C477 1.393 . S
C481 C480 1.391 . S
C482 H472 0.950 . S
C482 C483 1.386 . S
C482 C484 1.391 . S
C483 C482 1.386 . S
C483 C487 1.393 . S
C484 H473 0.950 . S
C484 C482 1.391 . S
C484 C485 1.400 . S
C485 C479 1.491 . S
C485 C484 1.400 . S
C485 C486 1.398 . S
C486 H474 0.950 . S
C486 C485 1.398 . S
C486 C487 1.391 . S
C487 H475 0.950 . S
C487 C483 1.393 . S
C487 C486 1.391 . S
H488 C496 0.950 . S
H489 C501 0.950 . S
H490 C498 0.950 . S
H491 C500 0.950 . S
H492 C502 0.950 . S
H493 C504 0.950 . S
H494 C506 0.950 . S
H495 C507 0.950 . S
C496 H488 0.950 . S
C496 C497 1.386 . S
C496 C498 1.391 . S
C497 C496 1.386 . S
C497 C501 1.393 . S
C498 H490 0.950 . S
C498 C496 1.391 . S
C498 C499 1.400 . S
C499 C498 1.400 . S
C499 C500 1.398 . S
C499 C505 1.491 . S
C500 H491 0.950 . S
C500 C499 1.398 . S
C500 C501 1.391 . S
C501 H489 0.950 . S
C501 C497 1.393 . S
C501 C500 1.391 . S
C502 H492 0.950 . S
C502 C503 1.386 . S
C502 C504 1.391 . S
C503 C502 1.386 . S
C503 C507 1.393 . S
C504 H493 0.950 . S
C504 C502 1.391 . S
C504 C505 1.400 . S
C505 C499 1.491 . S
C505 C504 1.400 . S
C505 C506 1.398 . S
C506 H494 0.950 . S
C506 C505 1.398 . S
C506 C507 1.391 . S
C507 H495 0.950 . S
C507 C503 1.393 . S
C507 C506 1.391 . S
H508 C516 0.950 . S
H509 C521 0.950 . S
H510 C518 0.950 . S
H511 C520 0.950 . S
H512 C522 0.950 . S
H513 C524 0.950 . S
H514 C526 0.950 . S
H515 C527 0.950 . S
C516 H508 0.950 . S
C516 C517 1.386 . S
C516 C518 1.391 . S
C517 C516 1.386 . S
C517 C521 1.393 . S
C518 H510 0.950 . S
C518 C516 1.391 . S
C518 C519 1.400 . S
C519 C518 1.400 . S
C519 C520 1.398 . S
C519 C525 1.491 . S
C520 H511 0.950 . S
C520 C519 1.398 . S
C520 C521 1.391 . S
C521 H509 0.950 . S
C521 C517 1.393 . S
C521 C520 1.391 . S
C522 H512 0.950 . S
C522 C523 1.386 . S
C522 C524 1.391 . S
C523 C522 1.386 . S
C523 C527 1.393 . S
C524 H513 0.950 . S
C524 C522 1.391 . S
C524 C525 1.400 . S
C525 C519 1.491 . S
C525 C524 1.400 . S
C525 C526 1.398 . S
C526 H514 0.950 . S
C526 C525 1.398 . S
C526 C527 1.391 . S
C527 H515 0.950 . S
C527 C523 1.393 . S
C527 C526 1.391 . S
H528 C536 0.950 . S
H529 C541 0.950 . S
H530 C538 0.950 . S
H531 C540 0.950 . S
H532 C542 0.950 . S
H533 C544 0.950 . S
H534 C546 0.950 . S
H535 C547 0.950 . S
C536 H528 0.950 . S
C536 C537 1.386 . S
C536 C538 1.391 . S
C537 C536 1.386 . S
C537 C541 1.393 . S
C538 H530 0.950 . S
C538 C536 1.391 . S
C538 C539 1.400 . S
C539 C538 1.400 . S
C539 C540 1.398 . S
C539 C545 1.491 . S
C540 H531 0.950 . S
C540 C539 1.398 . S
C540 C541 1.391 . S
C541 H529 0.950 . S
C541 C537 1.393 . S
C541 C540 1.391 . S
C542 H532 0.950 . S
C542 C543 1.386 . S
C542 C544 1.391 . S
C543 C542 1.386 . S
C543 C547 1.393 . S
C544 H533 0.950 . S
C544 C542 1.391 . S
C544 C545 1.400 . S
C545 C539 1.491 . S
C545 C544 1.400 . S
C545 C546 1.398 . S
C546 H534 0.950 . S
C546 C545 1.398 . S
C546 C547 1.391 . S
C547 H535 0.950 . S
C547 C543 1.393 . S
C547 C546 1.391 . S
H548 C556 0.950 . S
H549 C561 0.950 . S
H550 C558 0.950 . S
H551 C560 0.950 . S
H552 C562 0.950 . S
H553 C564 0.950 . S
H554 C566 0.950 . S
H555 C567 0.950 . S
C556 H548 0.950 . S
C556 C557 1.386 . S
C556 C558 1.391 . S
C557 C556 1.386 . S
C557 C561 1.393 . S
C558 H550 0.950 . S
C558 C556 1.391 . S
C558 C559 1.400 . S
C559 C558 1.400 . S
C559 C560 1.398 . S
C559 C565 1.491 . S
C560 H551 0.950 . S
C560 C559 1.398 . S
C560 C561 1.391 . S
C561 H549 0.950 . S
C561 C557 1.393 . S
C561 C560 1.391 . S
C562 H552 0.950 . S
C562 C563 1.386 . S
C562 C564 1.391 . S
C563 C562 1.386 . S
C563 C567 1.393 . S
C564 H553 0.950 . S
C564 C562 1.391 . S
C564 C565 1.400 . S
C565 C559 1.491 . S
C565 C564 1.400 . S
C565 C566 1.398 . S
C566 H554 0.950 . S
C566 C565 1.398 . S
C566 C567 1.391 . S
C567 H555 0.950 . S
C567 C563 1.393 . S
C567 C566 1.391 . S
H568 C576 0.950 . S
H569 C581 0.950 . S
H570 C578 0.950 . S
H571 C580 0.950 . S
H572 C582 0.950 . S
H573 C584 0.950 . S
H574 C586 0.950 . S
H575 C587 0.950 . S
C576 H568 0.950 . S
C576 C577 1.386 . S
C576 C578 1.391 . S
C577 C576 1.386 . S
C577 C581 1.393 . S
C578 H570 0.950 . S
C578 C576 1.391 . S
C578 C579 1.400 . S
C579 C578 1.400 . S
C579 C580 1.398 . S
C579 C585 1.491 . S
C580 H571 0.950 . S
C580 C579 1.398 . S
C580 C581 1.391 . S
C581 H569 0.950 . S
C581 C577 1.393 . S
C581 C580 1.391 . S
C582 H572 0.950 . S
C582 C583 1.386 . S
C582 C584 1.391 . S
C583 C582 1.386 . S
C583 C587 1.393 . S
C584 H573 0.950 . S
C584 C582 1.391 . S
C584 C585 1.400 . S
C585 C579 1.491 . S
C585 C584 1.400 . S
C585 C586 1.398 . S
C586 H574 0.950 . S
C586 C585 1.398 . S
C586 C587 1.391 . S
C587 H575 0.950 . S
C587 C583 1.393 . S
C587 C586 1.391 . S
H588 C596 0.950 . S
H589 C601 0.950 . S
H590 C598 0.950 . S
H591 C600 0.950 . S
H592 C602 0.950 . S
H593 C604 0.950 . S
H594 C606 0.950 . S
H595 C607 0.950 . S
C596 H588 0.950 . S
C596 C597 1.386 . S
C596 C598 1.391 . S
C597 C596 1.386 . S
C597 C601 1.393 . S
C598 H590 0.950 . S
C598 C596 1.391 . S
C598 C599 1.400 . S
C599 C598 1.400 . S
C599 C600 1.398 . S
C599 C605 1.491 . S
C600 H591 0.950 . S
C600 C599 1.398 . S
C600 C601 1.391 . S
C601 H589 0.950 . S
C601 C597 1.393 . S
C601 C600 1.391 . S
C602 H592 0.950 . S
C602 C603 1.386 . S
C602 C604 1.391 . S
C603 C602 1.386 . S
C603 C607 1.393 . S
C604 H593 0.950 . S
C604 C602 1.391 . S
C604 C605 1.400 . S
C605 C599 1.491 . S
C605 C604 1.400 . S
C605 C606 1.398 . S
C606 H594 0.950 . S
C606 C605 1.398 . S
C606 C607 1.391 . S
C607 H595 0.950 . S
C607 C603 1.393 . S
C607 C606 1.391 . S
H608 C616 0.950 . S
H609 C621 0.950 . S
H610 C618 0.950 . S
H611 C620 0.950 . S
H612 C622 0.950 . S
H613 C624 0.950 . S
H614 C626 0.950 . S
H615 C627 0.950 . S
C616 H608 0.950 . S
C616 C617 1.386 . S
C616 C618 1.391 . S
C617 C616 1.386 . S
C617 C621 1.393 . S
C618 H610 0.950 . S
C618 C616 1.391 . S
C618 C619 1.400 . S
C619 C618 1.400 . S
C619 C620 1.398 . S
C619 C625 1.491 . S
C620 H611 0.950 . S
C620 C619 1.398 . S
C620 C621 1.391 . S
C621 H609 0.950 . S
C621 C617 1.393 . S
C621 C620 1.391 . S
C622 H612 0.950 . S
C622 C623 1.386 . S
C622 C624 1.391 . S
C623 C622 1.386 . S
C623 C627 1.393 . S
C624 H613 0.950 . S
C624 C622 1.391 . S
C624 C625 1.400 . S
C625 C619 1.491 . S
C625 C624 1.400 . S
C625 C626 1.398 . S
C626 H614 0.950 . S
C626 C625 1.398 . S
C626 C627 1.391 . S
C627 H615 0.950 . S
C627 C623 1.393 . S
C627 C626 1.391 . S
H628 C636 0.950 . S
H629 C641 0.950 . S
H630 C638 0.950 . S
H631 C640 0.950 . S
H632 C642 0.950 . S
H633 C644 0.950 . S
H634 C646 0.950 . S
H635 C647 0.950 . S
C636 H628 0.950 . S
C636 C637 1.386 . S
C636 C638 1.391 . S
C637 C636 1.386 . S
C637 C641 1.393 . S
C638 H630 0.950 . S
C638 C636 1.391 . S
C638 C639 1.400 . S
C639 C638 1.400 . S
C639 C640 1.398 . S
C639 C645 1.491 . S
C640 H631 0.950 . S
C640 C639 1.398 . S
C640 C641 1.391 . S
C641 H629 0.950 . S
C641 C637 1.393 . S
C641 C640 1.391 . S
C642 H632 0.950 . S
C642 C643 1.386 . S
C642 C644 1.391 . S
C643 C642 1.386 . S
C643 C647 1.393 . S
C644 H633 0.950 . S
C644 C642 1.391 . S
C644 C645 1.400 . S
C645 C639 1.491 . S
C645 C644 1.400 . S
C645 C646 1.398 . S
C646 H634 0.950 . S
C646 C645 1.398 . S
C646 C647 1.391 . S
C647 H635 0.950 . S
C647 C643 1.393 . S
C647 C646 1.391 . S
H648 C656 0.950 . S
H649 C661 0.950 . S
H650 C658 0.950 . S
H651 C660 0.950 . S
H652 C662 0.950 . S
H653 C664 0.950 . S
H654 C666 0.950 . S
H655 C667 0.950 . S
C656 H648 0.950 . S
C656 C657 1.386 . S
C656 C658 1.391 . S
C657 C656 1.386 . S
C657 C661 1.393 . S
C658 H650 0.950 . S
C658 C656 1.391 . S
C658 C659 1.400 . S
C659 C658 1.400 . S
C659 C660 1.398 . S
C659 C665 1.491 . S
C660 H651 0.950 . S
C660 C659 1.398 . S
C660 C661 1.391 . S
C661 H649 0.950 . S
C661 C657 1.393 . S
C661 C660 1.391 . S
C662 H652 0.950 . S
C662 C663 1.386 . S
C662 C664 1.391 . S
C663 C662 1.386 . S
C663 C667 1.393 . S
C664 H653 0.950 . S
C664 C662 1.391 . S
C664 C665 1.400 . S
C665 C659 1.491 . S
C665 C664 1.400 . S
C665 C666 1.398 . S
C666 H654 0.950 . S
C666 C665 1.398 . S
C666 C667 1.391 . S
C667 H655 0.950 . S
C667 C663 1.393 . S
C667 C666 1.391 . S
H668 C676 0.950 . S
H669 C681 0.950 . S
H670 C678 0.950 . S
H671 C680 0.950 . S
H672 C682 0.950 . S
H673 C684 0.950 . S
H674 C686 0.950 . S
H675 C687 0.950 . S
C676 H668 0.950 . S
C676 C677 1.386 . S
C676 C678 1.391 . S
C677 C676 1.386 . S
C677 C681 1.393 . S
C678 H670 0.950 . S
C678 C676 1.391 . S
C678 C679 1.400 . S
C679 C678 1.400 . S
C679 C680 1.398 . S
C679 C685 1.491 . S
C680 H671 0.950 . S
C680 C679 1.398 . S
C680 C681 1.391 . S
C681 H669 0.950 . S
C681 C677 1.393 . S
C681 C680 1.391 . S
C682 H672 0.950 . S
C682 C683 1.386 . S
C682 C684 1.391 . S
C683 C682 1.386 . S
C683 C687 1.393 . S
C684 H673 0.950 . S
C684 C682 1.391 . S
C684 C685 1.400 . S
C685 C679 1.491 . S
C685 C684 1.400 . S
C685 C686 1.398 . S
C686 H674 0.950 . S
C686 C685 1.398 . S
C686 C687 1.391 . S
C687 H675 0.950 . S
C687 C683 1.393 . S
C687 C686 1.391 . S
H688 C696 0.950 . S
H689 C701 0.950 . S
H690 C698 0.950 . S
H691 C700 0.950 . S
H692 C702 0.950 . S
H693 C704 0.950 . S
H694 C706 0.950 . S
H695 C707 0.950 . S
C696 H688 0.950 . S
C696 C697 1.386 . S
C696 C698 1.391 . S
C697 C696 1.386 . S
C697 C701 1.393 . S
C698 H690 0.950 . S
C698 C696 1.391 . S
C698 C699 1.400 . S
C699 C698 1.400 . S
C699 C700 1.398 . S
C699 C705 1.491 . S
C700 H691 0.950 . S
C700 C699 1.398 . S
C700 C701 1.391 . S
C701 H689 0.950 . S
C701 C697 1.393 . S
C701 C700 1.391 . S
C702 H692 0.950 . S
C702 C703 1.386 . S
C702 C704 1.391 . S
C703 C702 1.386 . S
C703 C707 1.393 . S
C704 H693 0.950 . S
C704 C702 1.391 . S
C704 C705 1.400 . S
C705 C699 1.491 . S
C705 C704 1.400 . S
C705 C706 1.398 . S
C706 H694 0.950 . S
C706 C705 1.398 . S
C706 C707 1.391 . S
C707 H695 0.950 . S
C707 C703 1.393 . S
C707 C706 1.391 . S
H708 C716 0.950 . S
H709 C721 0.950 . S
H710 C718 0.950 . S
H711 C720 0.950 . S
H712 C722 0.950 . S
H713 C724 0.950 . S
H714 C726 0.950 . S
H715 C727 0.950 . S
C716 H708 0.950 . S
C716 C717 1.386 . S
C716 C718 1.391 . S
C717 C716 1.386 . S
C717 C721 1.393 . S
C718 H710 0.950 . S
C718 C716 1.391 . S
C718 C719 1.400 . S
C719 C718 1.400 . S
C719 C720 1.398 . S
C719 C725 1.491 . S
C720 H711 0.950 . S
C720 C719 1.398 . S
C720 C721 1.391 . S
C721 H709 0.950 . S
C721 C717 1.393 . S
C721 C720 1.391 . S
C722 H712 0.950 . S
C722 C723 1.386 . S
C722 C724 1.391 . S
C723 C722 1.386 . S
C723 C727 1.393 . S
C724 H713 0.950 . S
C724 C722 1.391 . S
C724 C725 1.400 . S
C725 C719 1.491 . S
C725 C724 1.400 . S
C725 C726 1.398 . S
C726 H714 0.950 . S
C726 C725 1.398 . S
C726 C727 1.391 . S
C727 H715 0.950 . S
C727 C723 1.393 . S
C727 C726 1.391 . S
H728 C736 0.950 . S
H729 C741 0.950 . S
H730 C738 0.950 . S
H731 C740 0.950 . S
H732 C742 0.950 . S
H733 C744 0.950 . S
H734 C746 0.950 . S
H735 C747 0.950 . S
C736 H728 0.950 . S
C736 C737 1.386 . S
C736 C738 1.391 . S
C737 C736 1.386 . S
C737 C741 1.393 . S
C738 H730 0.950 . S
C738 C736 1.391 . S
C738 C739 1.400 . S
C739 C738 1.400 . S
C739 C740 1.398 . S
C739 C745 1.491 . S
C740 H731 0.950 . S
C740 C739 1.398 . S
C740 C741 1.391 . S
C741 H729 0.950 . S
C741 C737 1.393 . S
C741 C740 1.391 . S
C742 H732 0.950 . S
C742 C743 1.386 . S
C742 C744 1.391 . S
C743 C742 1.386 . S
C743 C747 1.393 . S
C744 H733 0.950 . S
C744 C742 1.391 . S
C744 C745 1.400 . S
C745 C739 1.491 . S
C745 C744 1.400 . S
C745 C746 1.398 . S
C746 H734 0.950 . S
C746 C745 1.398 . S
C746 C747 1.391 . S
C747 H735 0.950 . S
C747 C743 1.393 . S
C747 C746 1.391 . S
H748 C756 0.950 . S
H749 C761 0.950 . S
H750 C758 0.950 . S
H751 C760 0.950 . S
H752 C762 0.950 . S
H753 C764 0.950 . S
H754 C766 0.950 . S
H755 C767 0.950 . S
C756 H748 0.950 . S
C756 C757 1.386 . S
C756 C758 1.391 . S
C757 C756 1.386 . S
C757 C761 1.393 . S
C758 H750 0.950 . S
C758 C756 1.391 . S
C758 C759 1.400 . S
C759 C758 1.400 . S
C759 C760 1.398 . S
C759 C765 1.491 . S
C760 H751 0.950 . S
C760 C759 1.398 . S
C760 C761 1.391 . S
C761 H749 0.950 . S
C761 C757 1.393 . S
C761 C760 1.391 . S
C762 H752 0.950 . S
C762 C763 1.386 . S
C762 C764 1.391 . S
C763 C762 1.386 . S
C763 C767 1.393 . S
C764 H753 0.950 . S
C764 C762 1.391 . S
C764 C765 1.400 . S
C765 C759 1.491 . S
C765 C764 1.400 . S
C765 C766 1.398 . S
C766 H754 0.950 . S
C766 C765 1.398 . S
C766 C767 1.391 . S
C767 H755 0.950 . S
C767 C763 1.393 . S
C767 C766 1.391 . S
H768 C776 0.950 . S
H769 C781 0.950 . S
H770 C778 0.950 . S
H771 C780 0.950 . S
H772 C782 0.950 . S
H773 C784 0.950 . S
H774 C786 0.950 . S
H775 C787 0.950 . S
C776 H768 0.950 . S
C776 C777 1.386 . S
C776 C778 1.391 . S
C777 C776 1.386 . S
C777 C781 1.393 . S
C778 H770 0.950 . S
C778 C776 1.391 . S
C778 C779 1.400 . S
C779 C778 1.400 . S
C779 C780 1.398 . S
C779 C785 1.491 . S
C780 H771 0.950 . S
C780 C779 1.398 . S
C780 C781 1.391 . S
C781 H769 0.950 . S
C781 C777 1.393 . S
C781 C780 1.391 . S
C782 H772 0.950 . S
C782 C783 1.386 . S
C782 C784 1.391 . S
C783 C782 1.386 . S
C783 C787 1.393 . S
C784 H773 0.950 . S
C784 C782 1.391 . S
C784 C785 1.400 . S
C785 C779 1.491 . S
C785 C784 1.400 . S
C785 C786 1.398 . S
C786 H774 0.950 . S
C786 C785 1.398 . S
C786 C787 1.391 . S
C787 H775 0.950 . S
C787 C783 1.393 . S
C787 C786 1.391 . S
H788 C796 0.950 . S
H789 C801 0.950 . S
H790 C798 0.950 . S
H791 C800 0.950 . S
H792 C802 0.950 . S
H793 C804 0.950 . S
H794 C806 0.950 . S
H795 C807 0.950 . S
C796 H788 0.950 . S
C796 C797 1.386 . S
C796 C798 1.391 . S
C797 C796 1.386 . S
C797 C801 1.393 . S
C798 H790 0.950 . S
C798 C796 1.391 . S
C798 C799 1.400 . S
C799 C798 1.400 . S
C799 C800 1.398 . S
C799 C805 1.491 . S
C800 H791 0.950 . S
C800 C799 1.398 . S
C800 C801 1.391 . S
C801 H789 0.950 . S
C801 C797 1.393 . S
C801 C800 1.391 . S
C802 H792 0.950 . S
C802 C803 1.386 . S
C802 C804 1.391 . S
C803 C802 1.386 . S
C803 C807 1.393 . S
C804 H793 0.950 . S
C804 C802 1.391 . S
C804 C805 1.400 . S
C805 C799 1.491 . S
C805 C804 1.400 . S
C805 C806 1.398 . S
C806 H794 0.950 . S
C806 C805 1.398 . S
C806 C807 1.391 . S
C807 H795 0.950 . S
C807 C803 1.393 . S
C807 C806 1.391 . S
H808 C816 0.950 . S
H809 C821 0.950 . S
H810 C818 0.950 . S
H811 C820 0.950 . S
H812 C822 0.950 . S
H813 C824 0.950 . S
H814 C826 0.950 . S
H815 C827 0.950 . S
C816 H808 0.950 . S
C816 C817 1.386 . S
C816 C818 1.391 . S
C817 C816 1.386 . S
C817 C821 1.393 . S
C818 H810 0.950 . S
C818 C816 1.391 . S
C818 C819 1.400 . S
C819 C818 1.400 . S
C819 C820 1.398 . S
C819 C825 1.491 . S
C820 H811 0.950 . S
C820 C819 1.398 . S
C820 C821 1.391 . S
C821 H809 0.950 . S
C821 C817 1.393 . S
C821 C820 1.391 . S
C822 H812 0.950 . S
C822 C823 1.386 . S
C822 C824 1.391 . S
C823 C822 1.386 . S
C823 C827 1.393 . S
C824 H813 0.950 . S
C824 C822 1.391 . S
C824 C825 1.400 . S
C825 C819 1.491 . S
C825 C824 1.400 . S
C825 C826 1.398 . S
C826 H814 0.950 . S
C826 C825 1.398 . S
C826 C827 1.391 . S
C827 H815 0.950 . S
C827 C823 1.393 . S
C827 C826 1.391 . S
H828 C836 0.950 . S
H829 C841 0.950 . S
H830 C838 0.950 . S
H831 C840 0.950 . S
H832 C842 0.950 . S
H833 C844 0.950 . S
H834 C846 0.950 . S
H835 C847 0.950 . S
C836 H828 0.950 . S
C836 C837 1.386 . S
C836 C838 1.391 . S
C837 C836 1.386 . S
C837 C841 1.393 . S
C838 H830 0.950 . S
C838 C836 1.391 . S
C838 C839 1.400 . S
C839 C838 1.400 . S
C839 C840 1.398 . S
C839 C845 1.491 . S
C840 H831 0.950 . S
C840 C839 1.398 . S
C840 C841 1.391 . S
C841 H829 0.950 . S
C841 C837 1.393 . S
C841 C840 1.391 . S
C842 H832 0.950 . S
C842 C843 1.386 . S
C842 C844 1.391 . S
C843 C842 1.386 . S
C843 C847 1.393 . S
C844 H833 0.950 . S
C844 C842 1.391 . S
C844 C845 1.400 . S
C845 C839 1.491 . S
C845 C844 1.400 . S
C845 C846 1.398 . S
C846 H834 0.950 . S
C846 C845 1.398 . S
C846 C847 1.391 . S
C847 H835 0.950 . S
C847 C843 1.393 . S
C847 C846 1.391 . S
H848 C856 0.950 . S
H849 C861 0.950 . S
H850 C858 0.950 . S
H851 C860 0.950 . S
H852 C862 0.950 . S
H853 C864 0.950 . S
H854 C866 0.950 . S
H855 C867 0.950 . S
C856 H848 0.950 . S
C856 C857 1.386 . S
C856 C858 1.391 . S
C857 C856 1.386 . S
C857 C861 1.393 . S
C858 H850 0.950 . S
C858 C856 1.391 . S
C858 C859 1.400 . S
C859 C858 1.400 . S
C859 C860 1.398 . S
C859 C865 1.491 . S
C860 H851 0.950 . S
C860 C859 1.398 . S
C860 C861 1.391 . S
C861 H849 0.950 . S
C861 C857 1.393 . S
C861 C860 1.391 . S
C862 H852 0.950 . S
C862 C863 1.386 . S
C862 C864 1.391 . S
C863 C862 1.386 . S
C863 C867 1.393 . S
C864 H853 0.950 . S
C864 C862 1.391 . S
C864 C865 1.400 . S
C865 C859 1.491 . S
C865 C864 1.400 . S
C865 C866 1.398 . S
C866 H854 0.950 . S
C866 C865 1.398 . S
C866 C867 1.391 . S
C867 H855 0.950 . S
C867 C863 1.393 . S
C867 C866 1.391 . S
H868 C876 0.950 . S
H869 C881 0.950 . S
H870 C878 0.950 . S
H871 C880 0.950 . S
H872 C882 0.950 . S
H873 C884 0.950 . S
H874 C886 0.950 . S
H875 C887 0.950 . S
C876 H868 0.950 . S
C876 C877 1.386 . S
C876 C878 1.391 . S
C877 C876 1.386 . S
C877 C881 1.393 . S
C878 H870 0.950 . S
C878 C876 1.391 . S
C878 C879 1.400 . S
C879 C878 1.400 . S
C879 C880 1.398 . S
C879 C885 1.491 . S
C880 H871 0.950 . S
C880 C879 1.398 . S
C880 C881 1.391 . S
C881 H869 0.950 . S
C881 C877 1.393 . S
C881 C880 1.391 . S
C882 H872 0.950 . S
C882 C883 1.386 . S
C882 C884 1.391 . S
C883 C882 1.386 . S
C883 C887 1.393 . S
C884 H873 0.950 . S
C884 C882 1.391 . S
C884 C885 1.400 . S
C885 C879 1.491 . S
C885 C884 1.400 . S
C885 C886 1.398 . S
C886 H874 0.950 . S
C886 C885 1.398 . S
C886 C887 1.391 . S
C887 H875 0.950 . S
C887 C883 1.393 . S
C887 C886 1.391 . S
H888 C896 0.950 . S
H889 C901 0.950 . S
H890 C898 0.950 . S
H891 C900 0.950 . S
H892 C902 0.950 . S
H893 C904 0.950 . S
H894 C906 0.950 . S
H895 C907 0.950 . S
C896 H888 0.950 . S
C896 C897 1.386 . S
C896 C898 1.391 . S
C897 C896 1.386 . S
C897 C901 1.393 . S
C898 H890 0.950 . S
C898 C896 1.391 . S
C898 C899 1.400 . S
C899 C898 1.400 . S
C899 C900 1.398 . S
C899 C905 1.491 . S
C900 H891 0.950 . S
C900 C899 1.398 . S
C900 C901 1.391 . S
C901 H889 0.950 . S
C901 C897 1.393 . S
C901 C900 1.391 . S
C902 H892 0.950 . S
C902 C903 1.386 . S
C902 C904 1.391 . S
C903 C902 1.386 . S
C903 C907 1.393 . S
C904 H893 0.950 . S
C904 C902 1.391 . S
C904 C905 1.400 . S
C905 C899 1.491 . S
C905 C904 1.400 . S
C905 C906 1.398 . S
C906 H894 0.950 . S
C906 C905 1.398 . S
C906 C907 1.391 . S
C907 H895 0.950 . S
C907 C903 1.393 . S
C907 C906 1.391 . S
H908 C916 0.950 . S
H909 C921 0.950 . S
H910 C918 0.950 . S
H911 C920 0.950 . S
H912 C922 0.950 . S
H913 C924 0.950 . S
H914 C926 0.950 . S
H915 C927 0.950 . S
C916 H908 0.950 . S
C916 C917 1.386 . S
C916 C918 1.391 . S
C917 C916 1.386 . S
C917 C921 1.393 . S
C918 H910 0.950 . S
C918 C916 1.391 . S
C918 C919 1.400 . S
C919 C918 1.400 . S
C919 C920 1.398 . S
C919 C925 1.491 . S
C920 H911 0.950 . S
C920 C919 1.398 . S
C920 C921 1.391 . S
C921 H909 0.950 . S
C921 C917 1.393 . S
C921 C920 1.391 . S
C922 H912 0.950 . S
C922 C923 1.386 . S
C922 C924 1.391 . S
C923 C922 1.386 . S
C923 C927 1.393 . S
C924 H913 0.950 . S
C924 C922 1.391 . S
C924 C925 1.400 . S
C925 C919 1.491 . S
C925 C924 1.400 . S
C925 C926 1.398 . S
C926 H914 0.950 . S
C926 C925 1.398 . S
C926 C927 1.391 . S
C927 H915 0.950 . S
C927 C923 1.393 . S
C927 C926 1.391 . S
H928 C936 0.950 . S
H929 C941 0.950 . S
H930 C938 0.950 . S
H931 C940 0.950 . S
H932 C942 0.950 . S
H933 C944 0.950 . S
H934 C946 0.950 . S
H935 C947 0.950 . S
C936 H928 0.950 . S
C936 C937 1.386 . S
C936 C938 1.391 . S
C937 C936 1.386 . S
C937 C941 1.393 . S
C938 H930 0.950 . S
C938 C936 1.391 . S
C938 C939 1.400 . S
C939 C938 1.400 . S
C939 C940 1.398 . S
C939 C945 1.491 . S
C940 H931 0.950 . S
C940 C939 1.398 . S
C940 C941 1.391 . S
C941 H929 0.950 . S
C941 C937 1.393 . S
C941 C940 1.391 . S
C942 H932 0.950 . S
C942 C943 1.386 . S
C942 C944 1.391 . S
C943 C942 1.386 . S
C943 C947 1.393 . S
C944 H933 0.950 . S
C944 C942 1.391 . S
C944 C945 1.400 . S
C945 C939 1.491 . S
C945 C944 1.400 . S
C945 C946 1.398 . S
C946 H934 0.950 . S
C946 C945 1.398 . S
C946 C947 1.391 . S
C947 H935 0.950 . S
C947 C943 1.393 . S
C947 C946 1.391 . S
H948 C956 0.950 . S
H949 C961 0.950 . S
H950 C958 0.950 . S
H951 C960 0.950 . S
H952 C962 0.950 . S
H953 C964 0.950 . S
H954 C966 0.950 . S
H955 C967 0.950 . S
C956 H948 0.950 . S
C956 C957 1.386 . S
C956 C958 1.391 . S
C957 C956 1.386 . S
C957 C961 1.393 . S
C958 H950 0.950 . S
C958 C956 1.391 . S
C958 C959 1.400 . S
C959 C958 1.400 . S
C959 C960 1.398 . S
C959 C965 1.491 . S
C960 H951 0.950 . S
C960 C959 1.398 . S
C960 C961 1.391 . S
C961 H949 0.950 . S
C961 C957 1.393 . S
C961 C960 1.391 . S
C962 H952 0.950 . S
C962 C963 1.386 . S
C962 C964 1.391 . S
C963 C962 1.386 . S
C963 C967 1.393 . S
C964 H953 0.950 . S
C964 C962 1.391 . S
C964 C965 1.400 . S
C965 C959 1.491 . S
C965 C964 1.400 . S
C965 C966 1.398 . S
C966 H954 0.950 . S
C966 C965 1.398 . S
C966 C967 1.391 . S
C967 H955 0.950 . S
C967 C963 1.393 . S
C967 C966 1.391 . S
H968 C976 0.950 . S
H969 C981 0.950 . S
H970 C978 0.950 . S
H971 C980 0.950 . S
H972 C982 0.950 . S
H973 C984 0.950 . S
H974 C986 0.950 . S
H975 C987 0.950 . S
C976 H968 0.950 . S
C976 C977 1.386 . S
C976 C978 1.391 . S
C977 C976 1.386 . S
C977 C981 1.393 . S
C978 H970 0.950 . S
C978 C976 1.391 . S
C978 C979 1.400 . S
C979 C978 1.400 . S
C979 C980 1.398 . S
C979 C985 1.491 . S
C980 H971 0.950 . S
C980 C979 1.398 . S
C980 C981 1.391 . S
C981 H969 0.950 . S
C981 C977 1.393 . S
C981 C980 1.391 . S
C982 H972 0.950 . S
C982 C983 1.386 . S
C982 C984 1.391 . S
C983 C982 1.386 . S
C983 C987 1.393 . S
C984 H973 0.950 . S
C984 C982 1.391 . S
C984 C985 1.400 . S
C985 C979 1.491 . S
C985 C984 1.400 . S
C985 C986 1.398 . S
C986 H974 0.950 . S
C986 C985 1.398 . S
C986 C987 1.391 . S
C987 H975 0.950 . S
C987 C983 1.393 . S
C987 C986 1.391 . S
H988 C996 0.950 . S
H989 C1001 0.950 . S
H990 C998 0.950 . S
H991 C1000 0.950 . S
H992 C1002 0.950 . S
H993 C1004 0.950 . S
H994 C1006 0.950 . S
H995 C1007 0.950 . S
C996 H988 0.950 . S
C996 C997 1.386 . S
C996 C998 1.391 . S
C997 C996 1.386 . S
C997 C1001 1.393 . S
C998 H990 0.950 . S
C998 C996 1.391 . S
C998 C999 1.400 . S
C999 C998 1.400 . S
C999 C1000 1.398 . S
C999 C1005 1.491 . S
C1000 H991 0.950 . S
C1000 C999 1.398 . S
C1000 C1001 1.391 . S
C1001 H989 0.950 . S
C1001 C997 1.393 . S
C1001 C1000 1.391 . S
C1002 H992 0.950 . S
C1002 C1003 1.386 . S
C1002 C1004 1.391 . S
C1003 C1002 1.386 . S
C1003 C1007 1.393 . S
C1004 H993 0.950 . S
C1004 C1002 1.391 . S
C1004 C1005 1.400 . S
C1005 C999 1.491 . S
C1005 C1004 1.400 . S
C1005 C1006 1.398 . S
C1006 H994 0.950 . S
C1006 C1005 1.398 . S
C1006 C1007 1.391 . S
C1007 H995 0.950 . S
C1007 C1003 1.393 . S
C1007 C1006 1.391 . S
H1008 C1016 0.950 . S
H1009 C1021 0.950 . S
H1010 C1018 0.950 . S
H1011 C1020 0.950 . S
H1012 C1022 0.950 . S
H1013 C1024 0.950 . S
H1014 C1026 0.950 . S
H1015 C1027 0.950 . S
C1016 H1008 0.950 . S
C1016 C1017 1.386 . S
C1016 C1018 1.391 . S
C1017 C1016 1.386 . S
C1017 C1021 1.393 . S
C1018 H1010 0.950 . S
C1018 C1016 1.391 . S
C1018 C1019 1.400 . S
C1019 C1018 1.400 . S
C1019 C1020 1.398 . S
C1019 C1025 1.491 . S
C1020 H1011 0.950 . S
C1020 C1019 1.398 . S
C1020 C1021 1.391 . S
C1021 H1009 0.950 . S
C1021 C1017 1.393 . S
C1021 C1020 1.391 . S
C1022 H1012 0.950 . S
C1022 C1023 1.386 . S
C1022 C1024 1.391 . S
C1023 C1022 1.386 . S
C1023 C1027 1.393 . S
C1024 H1013 0.950 . S
C1024 C1022 1.391 . S
C1024 C1025 1.400 . S
C1025 C1019 1.491 . S
C1025 C1024 1.400 . S
C1025 C1026 1.398 . S
C1026 H1014 0.950 . S
C1026 C1025 1.398 . S
C1026 C1027 1.391 . S
C1027 H1015 0.950 . S
C1027 C1023 1.393 . S
C1027 C1026 1.391 . S
H1028 C1036 0.950 . S
H1029 C1041 0.950 . S
H1030 C1038 0.950 . S
H1031 C1040 0.950 . S
H1032 C1042 0.950 . S
H1033 C1044 0.950 . S
H1034 C1046 0.950 . S
H1035 C1047 0.950 . S
C1036 H1028 0.950 . S
C1036 C1037 1.386 . S
C1036 C1038 1.391 . S
C1037 C1036 1.386 . S
C1037 C1041 1.393 . S
C1038 H1030 0.950 . S
C1038 C1036 1.391 . S
C1038 C1039 1.400 . S
C1039 C1038 1.400 . S
C1039 C1040 1.398 . S
C1039 C1045 1.491 . S
C1040 H1031 0.950 . S
C1040 C1039 1.398 . S
C1040 C1041 1.391 . S
C1041 H1029 0.950 . S
C1041 C1037 1.393 . S
C1041 C1040 1.391 . S
C1042 H1032 0.950 . S
C1042 C1043 1.386 . S
C1042 C1044 1.391 . S
C1043 C1042 1.386 . S
C1043 C1047 1.393 . S
C1044 H1033 0.950 . S
C1044 C1042 1.391 . S
C1044 C1045 1.400 . S
C1045 C1039 1.491 . S
C1045 C1044 1.400 . S
C1045 C1046 1.398 . S
C1046 H1034 0.950 . S
C1046 C1045 1.398 . S
C1046 C1047 1.391 . S
C1047 H1035 0.950 . S
C1047 C1043 1.393 . S
C1047 C1046 1.391 . S
H1048 C1056 0.950 . S
H1049 C1061 0.950 . S
H1050 C1058 0.950 . S
H1051 C1060 0.950 . S
H1052 C1062 0.950 . S
H1053 C1064 0.950 . S
H1054 C1066 0.950 . S
H1055 C1067 0.950 . S
C1056 H1048 0.950 . S
C1056 C1057 1.386 . S
C1056 C1058 1.391 . S
C1057 C1056 1.386 . S
C1057 C1061 1.393 . S
C1058 H1050 0.950 . S
C1058 C1056 1.391 . S
C1058 C1059 1.400 . S
C1059 C1058 1.400 . S
C1059 C1060 1.398 . S
C1059 C1065 1.491 . S
C1060 H1051 0.950 . S
C1060 C1059 1.398 . S
C1060 C1061 1.391 . S
C1061 H1049 0.950 . S
C1061 C1057 1.393 . S
C1061 C1060 1.391 . S
C1062 H1052 0.950 . S
C1062 C1063 1.386 . S
C1062 C1064 1.391 . S
C1063 C1062 1.386 . S
C1063 C1067 1.393 . S
C1064 H1053 0.950 . S
C1064 C1062 1.391 . S
C1064 C1065 1.400 . S
C1065 C1059 1.491 . S
C1065 C1064 1.400 . S
C1065 C1066 1.398 . S
C1066 H1054 0.950 . S
C1066 C1065 1.398 . S
C1066 C1067 1.391 . S
C1067 H1055 0.950 . S
C1067 C1063 1.393 . S
C1067 C1066 1.391 . S
H1068 C1076 0.950 . S
H1069 C1081 0.950 . S
H1070 C1078 0.950 . S
H1071 C1080 0.950 . S
H1072 C1082 0.950 . S
H1073 C1084 0.950 . S
H1074 C1086 0.950 . S
H1075 C1087 0.950 . S
C1076 H1068 0.950 . S
C1076 C1077 1.386 . S
C1076 C1078 1.391 . S
C1077 C1076 1.386 . S
C1077 C1081 1.393 . S
C1078 H1070 0.950 . S
C1078 C1076 1.391 . S
C1078 C1079 1.400 . S
C1079 C1078 1.400 . S
C1079 C1080 1.398 . S
C1079 C1085 1.491 . S
C1080 H1071 0.950 . S
C1080 C1079 1.398 . S
C1080 C1081 1.391 . S
C1081 H1069 0.950 . S
C1081 C1077 1.393 . S
C1081 C1080 1.391 . S
C1082 H1072 0.950 . S
C1082 C1083 1.386 . S
C1082 C1084 1.391 . S
C1083 C1082 1.386 . S
C1083 C1087 1.393 . S
C1084 H1073 0.950 . S
C1084 C1082 1.391 . S
C1084 C1085 1.400 . S
C1085 C1079 1.491 . S
C1085 C1084 1.400 . S
C1085 C1086 1.398 . S
C1086 H1074 0.950 . S
C1086 C1085 1.398 . S
C1086 C1087 1.391 . S
C1087 H1075 0.950 . S
C1087 C1083 1.393 . S
C1087 C1086 1.391 . S
H1088 C1096 0.950 . S
H1089 C1101 0.950 . S
H1090 C1098 0.950 . S
H1091 C1100 0.950 . S
H1092 C1102 0.950 . S
H1093 C1104 0.950 . S
H1094 C1106 0.950 . S
H1095 C1107 0.950 . S
C1096 H1088 0.950 . S
C1096 C1097 1.386 . S
C1096 C1098 1.391 . S
C1097 C1096 1.386 . S
C1097 C1101 1.393 . S
C1098 H1090 0.950 . S
C1098 C1096 1.391 . S
C1098 C1099 1.400 . S
C1099 C1098 1.400 . S
C1099 C1100 1.398 . S
C1099 C1105 1.491 . S
C1100 H1091 0.950 . S
C1100 C1099 1.398 . S
C1100 C1101 1.391 . S
C1101 H1089 0.950 . S
C1101 C1097 1.393 . S
C1101 C1100 1.391 . S
C1102 H1092 0.950 . S
C1102 C1103 1.386 . S
C1102 C1104 1.391 . S
C1103 C1102 1.386 . S
C1103 C1107 1.393 . S
C1104 H1093 0.950 . S
C1104 C1102 1.391 . S
C1104 C1105 1.400 . S
C1105 C1099 1.491 . S
C1105 C1104 1.400 . S
C1105 C1106 1.398 . S
C1106 H1094 0.950 . S
C1106 C1105 1.398 . S
C1106 C1107 1.391 . S
C1107 H1095 0.950 . S
C1107 C1103 1.393 . S
C1107 C1106 1.391 . S
H1108 C1116 0.950 . S
H1109 C1121 0.950 . S
H1110 C1118 0.950 . S
H1111 C1120 0.950 . S
H1112 C1122 0.950 . S
H1113 C1124 0.950 . S
H1114 C1126 0.950 . S
H1115 C1127 0.950 . S
C1116 H1108 0.950 . S
C1116 C1117 1.386 . S
C1116 C1118 1.391 . S
C1117 C1116 1.386 . S
C1117 C1121 1.393 . S
C1118 H1110 0.950 . S
C1118 C1116 1.391 . S
C1118 C1119 1.400 . S
C1119 C1118 1.400 . S
C1119 C1120 1.398 . S
C1119 C1125 1.491 . S
C1120 H1111 0.950 . S
C1120 C1119 1.398 . S
C1120 C1121 1.391 . S
C1121 H1109 0.950 . S
C1121 C1117 1.393 . S
C1121 C1120 1.391 . S
C1122 H1112 0.950 . S
C1122 C1123 1.386 . S
C1122 C1124 1.391 . S
C1123 C1122 1.386 . S
C1123 C1127 1.393 . S
C1124 H1113 0.950 . S
C1124 C1122 1.391 . S
C1124 C1125 1.400 . S
C1125 C1119 1.491 . S
C1125 C1124 1.400 . S
C1125 C1126 1.398 . S
C1126 H1114 0.950 . S
C1126 C1125 1.398 . S
C1126 C1127 1.391 . S
C1127 H1115 0.950 . S
C1127 C1123 1.393 . S
C1127 C1126 1.391 . S
H1128 C1136 0.950 . S
H1129 C1141 0.950 . S
H1130 C1138 0.950 . S
H1131 C1140 0.950 . S
H1132 C1142 0.950 . S
H1133 C1144 0.950 . S
H1134 C1146 0.950 . S
H1135 C1147 0.950 . S
C1136 H1128 0.950 . S
C1136 C1137 1.386 . S
C1136 C1138 1.391 . S
C1137 C1136 1.386 . S
C1137 C1141 1.393 . S
C1138 H1130 0.950 . S
C1138 C1136 1.391 . S
C1138 C1139 1.400 . S
C1139 C1138 1.400 . S
C1139 C1140 1.398 . S
C1139 C1145 1.491 . S
C1140 H1131 0.950 . S
C1140 C1139 1.398 . S
C1140 C1141 1.391 . S
C1141 H1129 0.950 . S
C1141 C1137 1.393 . S
C1141 C1140 1.391 . S
C1142 H1132 0.950 . S
C1142 C1143 1.386 . S
C1142 C1144 1.391 . S
C1143 C1142 1.386 . S
C1143 C1147 1.393 . S
C1144 H1133 0.950 . S
C1144 C1142 1.391 . S
C1144 C1145 1.400 . S
C1145 C1139 1.491 . S
C1145 C1144 1.400 . S
C1145 C1146 1.398 . S
C1146 H1134 0.950 . S
C1146 C1145 1.398 . S
C1146 C1147 1.391 . S
C1147 H1135 0.950 . S
C1147 C1143 1.393 . S
C1147 C1146 1.391 . S
H1148 C1156 0.950 . S
H1149 C1161 0.950 . S
H1150 C1158 0.950 . S
H1151 C1160 0.950 . S
H1152 C1162 0.950 . S
H1153 C1164 0.950 . S
H1154 C1166 0.950 . S
H1155 C1167 0.950 . S
C1156 H1148 0.950 . S
C1156 C1157 1.386 . S
C1156 C1158 1.391 . S
C1157 C1156 1.386 . S
C1157 C1161 1.393 . S
C1158 H1150 0.950 . S
C1158 C1156 1.391 . S
C1158 C1159 1.400 . S
C1159 C1158 1.400 . S
C1159 C1160 1.398 . S
C1159 C1165 1.491 . S
C1160 H1151 0.950 . S
C1160 C1159 1.398 . S
C1160 C1161 1.391 . S
C1161 H1149 0.950 . S
C1161 C1157 1.393 . S
C1161 C1160 1.391 . S
C1162 H1152 0.950 . S
C1162 C1163 1.386 . S
C1162 C1164 1.391 . S
C1163 C1162 1.386 . S
C1163 C1167 1.393 . S
C1164 H1153 0.950 . S
C1164 C1162 1.391 . S
C1164 C1165 1.400 . S
C1165 C1159 1.491 . S
C1165 C1164 1.400 . S
C1165 C1166 1.398 . S
C1166 H1154 0.950 . S
C1166 C1165 1.398 . S
C1166 C1167 1.391 . S
C1167 H1155 0.950 . S
C1167 C1163 1.393 . S
C1167 C1166 1.391 . S
H1168 C1176 0.950 . S
H1169 C1181 0.950 . S
H1170 C1178 0.950 . S
H1171 C1180 0.950 . S
H1172 C1182 0.950 . S
H1173 C1184 0.950 . S
H1174 C1186 0.950 . S
H1175 C1187 0.950 . S
C1176 H1168 0.950 . S
C1176 C1177 1.386 . S
C1176 C1178 1.391 . S
C1177 C1176 1.386 . S
C1177 C1181 1.393 . S
C1178 H1170 0.950 . S
C1178 C1176 1.391 . S
C1178 C1179 1.400 . S
C1179 C1178 1.400 . S
C1179 C1180 1.398 . S
C1179 C1185 1.491 . S
C1180 H1171 0.950 . S
C1180 C1179 1.398 . S
C1180 C1181 1.391 . S
C1181 H1169 0.950 . S
C1181 C1177 1.393 . S
C1181 C1180 1.391 . S
C1182 H1172 0.950 . S
C1182 C1183 1.386 . S
C1182 C1184 1.391 . S
C1183 C1182 1.386 . S
C1183 C1187 1.393 . S
C1184 H1173 0.950 . S
C1184 C1182 1.391 . S
C1184 C1185 1.400 . S
C1185 C1179 1.491 . S
C1185 C1184 1.400 . S
C1185 C1186 1.398 . S
C1186 H1174 0.950 . S
C1186 C1185 1.398 . S
C1186 C1187 1.391 . S
C1187 H1175 0.950 . S
C1187 C1183 1.393 . S
C1187 C1186 1.391 . S
H1188 C1196 0.950 . S
H1189 C1201 0.950 . S
H1190 C1198 0.950 . S
H1191 C1200 0.950 . S
H1192 C1202 0.950 . S
H1193 C1204 0.950 . S
H1194 C1206 0.950 . S
H1195 C1207 0.950 . S
C1196 H1188 0.950 . S
C1196 C1197 1.386 . S
C1196 C1198 1.391 . S
C1197 C1196 1.386 . S
C1197 C1201 1.393 . S
C1198 H1190 0.950 . S
C1198 C1196 1.391 . S
C1198 C1199 1.400 . S
C1199 C1198 1.400 . S
C1199 C1200 1.398 . S
C1199 C1205 1.491 . S
C1200 H1191 0.950 . S
C1200 C1199 1.398 . S
C1200 C1201 1.391 . S
C1201 H1189 0.950 . S
C1201 C1197 1.393 . S
C1201 C1200 1.391 . S
C1202 H1192 0.950 . S
C1202 C1203 1.386 . S
C1202 C1204 1.391 . S
C1203 C1202 1.386 . S
C1203 C1207 1.393 . S
C1204 H1193 0.950 . S
C1204 C1202 1.391 . S
C1204 C1205 1.400 . S
C1205 C1199 1.491 . S
C1205 C1204 1.400 . S
C1205 C1206 1.398 . S
C1206 H1194 0.950 . S
C1206 C1205 1.398 . S
C1206 C1207 1.391 . S
C1207 H1195 0.950 . S
C1207 C1203 1.393 . S
C1207 C1206 1.391 . S
H1208 C1216 0.950 . S
H1209 C1221 0.950 . S
H1210 C1218 0.950 . S
H1211 C1220 0.950 . S
H1212 C1222 0.950 . S
H1213 C1224 0.950 . S
H1214 C1226 0.950 . S
H1215 C1227 0.950 . S
C1216 H1208 0.950 . S
C1216 C1217 1.386 . S
C1216 C1218 1.391 . S
C1217 C1216 1.386 . S
C1217 C1221 1.393 . S
C1218 H1210 0.950 . S
C1218 C1216 1.391 . S
C1218 C1219 1.400 . S
C1219 C1218 1.400 . S
C1219 C1220 1.398 . S
C1219 C1225 1.491 . S
C1220 H1211 0.950 . S
C1220 C1219 1.398 . S
C1220 C1221 1.391 . S
C1221 H1209 0.950 . S
C1221 C1217 1.393 . S
C1221 C1220 1.391 . S
C1222 H1212 0.950 . S
C1222 C1223 1.386 . S
C1222 C1224 1.391 . S
C1223 C1222 1.386 . S
C1223 C1227 1.393 . S
C1224 H1213 0.950 . S
C1224 C1222 1.391 . S
C1224 C1225 1.400 . S
C1225 C1219 1.491 . S
C1225 C1224 1.400 . S
C1225 C1226 1.398 . S
C1226 H1214 0.950 . S
C1226 C1225 1.398 . S
C1226 C1227 1.391 . S
C1227 H1215 0.950 . S
C1227 C1223 1.393 . S
C1227 C1226 1.391 . S
H1228 C1236 0.950 . S
H1229 C1241 0.950 . S
H1230 C1238 0.950 . S
H1231 C1240 0.950 . S
H1232 C1242 0.950 . S
H1233 C1244 0.950 . S
H1234 C1246 0.950 . S
H1235 C1247 0.950 . S
C1236 H1228 0.950 . S
C1236 C1237 1.386 . S
C1236 C1238 1.391 . S
C1237 C1236 1.386 . S
C1237 C1241 1.393 . S
C1238 H1230 0.950 . S
C1238 C1236 1.391 . S
C1238 C1239 1.400 . S
C1239 C1238 1.400 . S
C1239 C1240 1.398 . S
C1239 C1245 1.491 . S
C1240 H1231 0.950 . S
C1240 C1239 1.398 . S
C1240 C1241 1.391 . S
C1241 H1229 0.950 . S
C1241 C1237 1.393 . S
C1241 C1240 1.391 . S
C1242 H1232 0.950 . S
C1242 C1243 1.386 . S
C1242 C1244 1.391 . S
C1243 C1242 1.386 . S
C1243 C1247 1.393 . S
C1244 H1233 0.950 . S
C1244 C1242 1.391 . S
C1244 C1245 1.400 . S
C1245 C1239 1.491 . S
C1245 C1244 1.400 . S
C1245 C1246 1.398 . S
C1246 H1234 0.950 . S
C1246 C1245 1.398 . S
C1246 C1247 1.391 . S
C1247 H1235 0.950 . S
C1247 C1243 1.393 . S
C1247 C1246 1.391 . S
H1248 C1256 0.950 . S
H1249 C1261 0.950 . S
H1250 C1258 0.950 . S
H1251 C1260 0.950 . S
H1252 C1262 0.950 . S
H1253 C1264 0.950 . S
H1254 C1266 0.950 . S
H1255 C1267 0.950 . S
C1256 H1248 0.950 . S
C1256 C1257 1.386 . S
C1256 C1258 1.391 . S
C1257 C1256 1.386 . S
C1257 C1261 1.393 . S
C1258 H1250 0.950 . S
C1258 C1256 1.391 . S
C1258 C1259 1.400 . S
C1259 C1258 1.400 . S
C1259 C1260 1.398 . S
C1259 C1265 1.491 . S
C1260 H1251 0.950 . S
C1260 C1259 1.398 . S
C1260 C1261 1.391 . S
C1261 H1249 0.950 . S
C1261 C1257 1.393 . S
C1261 C1260 1.391 . S
C1262 H1252 0.950 . S
C1262 C1263 1.386 . S
C1262 C1264 1.391 . S
C1263 C1262 1.386 . S
C1263 C1267 1.393 . S
C1264 H1253 0.950 . S
C1264 C1262 1.391 . S
C1264 C1265 1.400 . S
C1265 C1259 1.491 . S
C1265 C1264 1.400 . S
C1265 C1266 1.398 . S
C1266 H1254 0.950 . S
C1266 C1265 1.398 . S
C1266 C1267 1.391 . S
C1267 H1255 0.950 . S
C1267 C1263 1.393 . S
C1267 C1266 1.391 . S
H1268 C1276 0.950 . S
H1269 C1281 0.950 . S
H1270 C1278 0.950 . S
H1271 C1280 0.950 . S
H1272 C1282 0.950 . S
H1273 C1284 0.950 . S
H1274 C1286 0.950 . S
H1275 C1287 0.950 . S
C1276 H1268 0.950 . S
C1276 C1277 1.386 . S
C1276 C1278 1.391 . S
C1277 C1276 1.386 . S
C1277 C1281 1.393 . S
C1278 H1270 0.950 . S
C1278 C1276 1.391 . S
C1278 C1279 1.400 . S
C1279 C1278 1.400 . S
C1279 C1280 1.398 . S
C1279 C1285 1.491 . S
C1280 H1271 0.950 . S
C1280 C1279 1.398 . S
C1280 C1281 1.391 . S
C1281 H1269 0.950 . S
C1281 C1277 1.393 . S
C1281 C1280 1.391 . S
C1282 H1272 0.950 . S
C1282 C1283 1.386 . S
C1282 C1284 1.391 . S
C1283 C1282 1.386 . S
C1283 C1287 1.393 . S
C1284 H1273 0.950 . S
C1284 C1282 1.391 . S
C1284 C1285 1.400 . S
C1285 C1279 1.491 . S
C1285 C1284 1.400 . S
C1285 C1286 1.398 . S
C1286 H1274 0.950 . S
C1286 C1285 1.398 . S
C1286 C1287 1.391 . S
C1287 H1275 0.950 . S
C1287 C1283 1.393 . S
C1287 C1286 1.391 . S
H1288 C1296 0.950 . S
H1289 C1301 0.950 . S
H1290 C1298 0.950 . S
H1291 C1300 0.950 . S
H1292 C1302 0.950 . S
H1293 C1304 0.950 . S
H1294 C1306 0.950 . S
H1295 C1307 0.950 . S
C1296 H1288 0.950 . S
C1296 C1297 1.386 . S
C1296 C1298 1.391 . S
C1297 C1296 1.386 . S
C1297 C1301 1.393 . S
C1298 H1290 0.950 . S
C1298 C1296 1.391 . S
C1298 C1299 1.400 . S
C1299 C1298 1.400 . S
C1299 C1300 1.398 . S
C1299 C1305 1.491 . S
C1300 H1291 0.950 . S
C1300 C1299 1.398 . S
C1300 C1301 1.391 . S
C1301 H1289 0.950 . S
C1301 C1297 1.393 . S
C1301 C1300 1.391 . S
C1302 H1292 0.950 . S
C1302 C1303 1.386 . S
C1302 C1304 1.391 . S
C1303 C1302 1.386 . S
C1303 C1307 1.393 . S
C1304 H1293 0.950 . S
C1304 C1302 1.391 . S
C1304 C1305 1.400 . S
C1305 C1299 1.491 . S
C1305 C1304 1.400 . S
C1305 C1306 1.398 . S
C1306 H1294 0.950 . S
C1306 C1305 1.398 . S
C1306 C1307 1.391 . S
C1307 H1295 0.950 . S
C1307 C1303 1.393 . S
C1307 C1306 1.391 . S
H1308 C1316 0.950 . S
H1309 C1321 0.950 . S
H1310 C1318 0.950 . S
H1311 C1320 0.950 . S
H1312 C1322 0.950 . S
H1313 C1324 0.950 . S
H1314 C1326 0.950 . S
H1315 C1327 0.950 . S
C1316 H1308 0.950 . S
C1316 C1317 1.386 . S
C1316 C1318 1.391 . S
C1317 C1316 1.386 . S
C1317 C1321 1.393 . S
C1318 H1310 0.950 . S
C1318 C1316 1.391 . S
C1318 C1319 1.400 . S
C1319 C1318 1.400 . S
C1319 C1320 1.398 . S
C1319 C1325 1.491 . S
C1320 H1311 0.950 . S
C1320 C1319 1.398 . S
C1320 C1321 1.391 . S
C1321 H1309 0.950 . S
C1321 C1317 1.393 . S
C1321 C1320 1.391 . S
C1322 H1312 0.950 . S
C1322 C1323 1.386 . S
C1322 C1324 1.391 . S
C1323 C1322 1.386 . S
C1323 C1327 1.393 . S
C1324 H1313 0.950 . S
C1324 C1322 1.391 . S
C1324 C1325 1.400 . S
C1325 C1319 1.491 . S
C1325 C1324 1.400 . S
C1325 C1326 1.398 . S
C1326 H1314 0.950 . S
C1326 C1325 1.398 . S
C1326 C1327 1.391 . S
C1327 H1315 0.950 . S
C1327 C1323 1.393 . S
C1327 C1326 1.391 . S
H1328 C1336 0.950 . S
H1329 C1341 0.950 . S
H1330 C1338 0.950 . S
H1331 C1340 0.950 . S
H1332 C1342 0.950 . S
H1333 C1344 0.950 . S
H1334 C1346 0.950 . S
H1335 C1347 0.950 . S
C1336 H1328 0.950 . S
C1336 C1337 1.386 . S
C1336 C1338 1.391 . S
C1337 C1336 1.386 . S
C1337 C1341 1.393 . S
C1338 H1330 0.950 . S
C1338 C1336 1.391 . S
C1338 C1339 1.400 . S
C1339 C1338 1.400 . S
C1339 C1340 1.398 . S
C1339 C1345 1.491 . S
C1340 H1331 0.950 . S
C1340 C1339 1.398 . S
C1340 C1341 1.391 . S
C1341 H1329 0.950 . S
C1341 C1337 1.393 . S
C1341 C1340 1.391 . S
C1342 H1332 0.950 . S
C1342 C1343 1.386 . S
C1342 C1344 1.391 . S
C1343 C1342 1.386 . S
C1343 C1347 1.393 . S
C1344 H1333 0.950 . S
C1344 C1342 1.391 . S
C1344 C1345 1.400 . S
C1345 C1339 1.491 . S
C1345 C1344 1.400 . S
C1345 C1346 1.398 . S
C1346 H1334 0.950 . S
C1346 C1345 1.398 . S
C1346 C1347 1.391 . S
C1347 H1335 0.950 . S
C1347 C1343 1.393 . S
C1347 C1346 1.391 . S
H1348 C1356 0.950 . S
H1349 C1361 0.950 . S
H1350 C1358 0.950 . S
H1351 C1360 0.950 . S
H1352 C1362 0.950 . S
H1353 C1364 0.950 . S
H1354 C1366 0.950 . S
H1355 C1367 0.950 . S
C1356 H1348 0.950 . S
C1356 C1357 1.386 . S
C1356 C1358 1.391 . S
C1357 C1356 1.386 . S
C1357 C1361 1.393 . S
C1358 H1350 0.950 . S
C1358 C1356 1.391 . S
C1358 C1359 1.400 . S
C1359 C1358 1.400 . S
C1359 C1360 1.398 . S
C1359 C1365 1.491 . S
C1360 H1351 0.950 . S
C1360 C1359 1.398 . S
C1360 C1361 1.391 . S
C1361 H1349 0.950 . S
C1361 C1357 1.393 . S
C1361 C1360 1.391 . S
C1362 H1352 0.950 . S
C1362 C1363 1.386 . S
C1362 C1364 1.391 . S
C1363 C1362 1.386 . S
C1363 C1367 1.393 . S
C1364 H1353 0.950 . S
C1364 C1362 1.391 . S
C1364 C1365 1.400 . S
C1365 C1359 1.491 . S
C1365 C1364 1.400 . S
C1365 C1366 1.398 . S
C1366 H1354 0.950 . S
C1366 C1365 1.398 . S
C1366 C1367 1.391 . S
C1367 H1355 0.950 . S
C1367 C1363 1.393 . S
C1367 C1366 1.391 . S
H1368 C1376 0.950 . S
H1369 C1381 0.950 . S
H1370 C1378 0.950 . S
H1371 C1380 0.950 . S
H1372 C1382 0.950 . S
H1373 C1384 0.950 . S
H1374 C1386 0.950 . S
H1375 C1387 0.950 . S
C1376 H1368 0.950 . S
C1376 C1377 1.386 . S
C1376 C1378 1.391 . S
C1377 C1376 1.386 . S
C1377 C1381 1.393 . S
C1378 H1370 0.950 . S
C1378 C1376 1.391 . S
C1378 C1379 1.400 . S
C1379 C1378 1.400 . S
C1379 C1380 1.398 . S
C1379 C1385 1.491 . S
C1380 H1371 0.950 . S
C1380 C1379 1.398 . S
C1380 C1381 1.391 . S
C1381 H1369 0.950 . S
C1381 C1377 1.393 . S
C1381 C1380 1.391 . S
C1382 H1372 0.950 . S
C1382 C1383 1.386 . S
C1382 C1384 1.391 . S
C1383 C1382 1.386 . S
C1383 C1387 1.393 . S
C1384 H1373 0.950 . S
C1384 C1382 1.391 . S
C1384 C1385 1.400 . S
C1385 C1379 1.491 . S
C1385 C1384 1.400 . S
C1385 C1386 1.398 . S
C1386 H1374 0.950 . S
C1386 C1385 1.398 . S
C1386 C1387 1.391 . S
C1387 H1375 0.950 . S
C1387 C1383 1.393 . S
C1387 C1386 1.391 . S
H1388 C1396 0.950 . S
H1389 C1401 0.950 . S
H1390 C1398 0.950 . S
H1391 C1400 0.950 . S
H1392 C1402 0.950 . S
H1393 C1404 0.950 . S
H1394 C1406 0.950 . S
H1395 C1407 0.950 . S
C1396 H1388 0.950 . S
C1396 C1397 1.386 . S
C1396 C1398 1.391 . S
C1397 C1396 1.386 . S
C1397 C1401 1.393 . S
C1398 H1390 0.950 . S
C1398 C1396 1.391 . S
C1398 C1399 1.400 . S
C1399 C1398 1.400 . S
C1399 C1400 1.398 . S
C1399 C1405 1.491 . S
C1400 H1391 0.950 . S
C1400 C1399 1.398 . S
C1400 C1401 1.391 . S
C1401 H1389 0.950 . S
C1401 C1397 1.393 . S
C1401 C1400 1.391 . S
C1402 H1392 0.950 . S
C1402 C1403 1.386 . S
C1402 C1404 1.391 . S
C1403 C1402 1.386 . S
C1403 C1407 1.393 . S
C1404 H1393 0.950 . S
C1404 C1402 1.391 . S
C1404 C1405 1.400 . S
C1405 C1399 1.491 . S
C1405 C1404 1.400 . S
C1405 C1406 1.398 . S
C1406 H1394 0.950 . S
C1406 C1405 1.398 . S
C1406 C1407 1.391 . S
C1407 H1395 0.950 . S
C1407 C1403 1.393 . S
C1407 C1406 1.391 . S
H1408 C1416 0.950 1_655 S
H1409 C1421 0.950 . S
H1410 C1418 0.950 1_655 S
H1411 C1420 0.950 . S
H1412 C1422 0.950 . S
H1413 C1424 0.950 . S
H1414 C1426 0.950 1_655 S
H1415 C1427 0.950 1_655 S
C1416 H1408 0.950 1_455 S
C1416 C1417 1.386 . S
C1416 C1418 1.391 . S
C1417 C1416 1.386 . S
C1417 C1421 1.393 . S
C1418 H1410 0.950 1_455 S
C1418 C1416 1.391 . S
C1418 C1419 1.400 . S
C1419 C1418 1.400 . S
C1419 C1420 1.398 . S
C1419 C1425 1.491 . S
C1420 H1411 0.950 . S
C1420 C1419 1.398 . S
C1420 C1421 1.391 . S
C1421 H1409 0.950 . S
C1421 C1417 1.393 . S
C1421 C1420 1.391 . S
C1422 H1412 0.950 . S
C1422 C1423 1.386 . S
C1422 C1424 1.391 . S
C1423 C1422 1.386 . S
C1423 C1427 1.393 . S
C1424 H1413 0.950 . S
C1424 C1422 1.391 . S
C1424 C1425 1.400 . S
C1425 C1419 1.491 . S
C1425 C1424 1.400 . S
C1425 C1426 1.398 . S
C1426 H1414 0.950 1_455 S
C1426 C1425 1.398 . S
C1426 C1427 1.391 . S
C1427 H1415 0.950 1_455 S
C1427 C1423 1.393 . S
C1427 C1426 1.391 . S
H1428 C1436 0.950 . S
H1429 C1441 0.950 . S
H1430 C1438 0.950 . S
H1431 C1440 0.950 . S
H1432 C1442 0.950 . S
H1433 C1444 0.950 . S
H1434 C1446 0.950 . S
H1435 C1447 0.950 . S
C1436 H1428 0.950 . S
C1436 C1437 1.386 . S
C1436 C1438 1.391 . S
C1437 C1436 1.386 . S
C1437 C1441 1.393 . S
C1438 H1430 0.950 . S
C1438 C1436 1.391 . S
C1438 C1439 1.400 . S
C1439 C1438 1.400 . S
C1439 C1440 1.398 . S
C1439 C1445 1.491 . S
C1440 H1431 0.950 . S
C1440 C1439 1.398 . S
C1440 C1441 1.391 . S
C1441 H1429 0.950 . S
C1441 C1437 1.393 . S
C1441 C1440 1.391 . S
C1442 H1432 0.950 . S
C1442 C1443 1.386 . S
C1442 C1444 1.391 . S
C1443 C1442 1.386 . S
C1443 C1447 1.393 . S
C1444 H1433 0.950 . S
C1444 C1442 1.391 . S
C1444 C1445 1.400 . S
C1445 C1439 1.491 . S
C1445 C1444 1.400 . S
C1445 C1446 1.398 . S
C1446 H1434 0.950 . S
C1446 C1445 1.398 . S
C1446 C1447 1.391 . S
C1447 H1435 0.950 . S
C1447 C1443 1.393 . S
C1447 C1446 1.391 . S
H1448 C1456 0.950 . S
H1449 C1461 0.950 . S
H1450 C1458 0.950 . S
H1451 C1460 0.950 . S
H1452 C1462 0.950 . S
H1453 C1464 0.950 . S
H1454 C1466 0.950 . S
H1455 C1467 0.950 . S
C1456 H1448 0.950 . S
C1456 C1457 1.386 . S
C1456 C1458 1.391 . S
C1457 C1456 1.386 . S
C1457 C1461 1.393 . S
C1458 H1450 0.950 . S
C1458 C1456 1.391 . S
C1458 C1459 1.400 . S
C1459 C1458 1.400 . S
C1459 C1460 1.398 . S
C1459 C1465 1.491 . S
C1460 H1451 0.950 . S
C1460 C1459 1.398 . S
C1460 C1461 1.391 . S
C1461 H1449 0.950 . S
C1461 C1457 1.393 . S
C1461 C1460 1.391 . S
C1462 H1452 0.950 . S
C1462 C1463 1.386 . S
C1462 C1464 1.391 . S
C1463 C1462 1.386 . S
C1463 C1467 1.393 . S
C1464 H1453 0.950 . S
C1464 C1462 1.391 . S
C1464 C1465 1.400 . S
C1465 C1459 1.491 . S
C1465 C1464 1.400 . S
C1465 C1466 1.398 . S
C1466 H1454 0.950 . S
C1466 C1465 1.398 . S
C1466 C1467 1.391 . S
C1467 H1455 0.950 . S
C1467 C1463 1.393 . S
C1467 C1466 1.391 . S
H1468 C1476 0.950 1_554 S
H1469 C1481 0.950 . S
H1470 C1478 0.950 . S
H1471 C1480 0.950 . S
H1472 C1482 0.950 1_556 S
H1473 C1484 0.950 . S
H1474 C1486 0.950 . S
H1475 C1487 0.950 . S
C1476 H1468 0.950 1_556 S
C1476 C1477 1.386 . S
C1476 C1478 1.391 1_556 S
C1477 C1476 1.386 . S
C1477 C1481 1.393 . S
C1478 H1470 0.950 . S
C1478 C1476 1.391 1_554 S
C1478 C1479 1.400 1_554 S
C1479 C1478 1.400 1_556 S
C1479 C1480 1.398 . S
C1479 C1485 1.491 1_556 S
C1480 H1471 0.950 . S
C1480 C1479 1.398 . S
C1480 C1481 1.391 . S
C1481 H1469 0.950 . S
C1481 C1477 1.393 . S
C1481 C1480 1.391 . S
C1482 H1472 0.950 1_554 S
C1482 C1483 1.386 . S
C1482 C1484 1.391 1_554 S
C1483 C1482 1.386 . S
C1483 C1487 1.393 . S
C1484 H1473 0.950 . S
C1484 C1482 1.391 1_556 S
C1484 C1485 1.400 1_556 S
C1485 C1479 1.491 1_554 S
C1485 C1484 1.400 1_554 S
C1485 C1486 1.398 . S
C1486 H1474 0.950 . S
C1486 C1485 1.398 . S
C1486 C1487 1.391 . S
C1487 H1475 0.950 . S
C1487 C1483 1.393 . S
C1487 C1486 1.391 . S
H1488 C1496 0.950 . S
H1489 C1501 0.950 1_455 S
H1490 C1498 0.950 . S
H1491 C1500 0.950 1_455 S
H1492 C1502 0.916 1_455 S
H1493 C1504 0.950 1_455 S
H1494 C1506 0.950 . S
H1495 C1507 0.950 . S
C1496 H1488 0.950 . S
C1496 C1497 1.386 . S
C1496 C1498 1.391 . S
C1497 C1496 1.386 . S
C1497 C1501 1.393 . S
C1498 H1490 0.950 . S
C1498 C1496 1.391 . S
C1498 C1499 1.400 . S
C1499 C1498 1.400 . S
C1499 C1500 1.398 . S
C1499 C1505 1.491 . S
C1500 H1491 0.950 1_655 S
C1500 C1499 1.398 . S
C1500 C1501 1.391 . S
C1501 H1489 0.950 1_655 S
C1501 C1497 1.393 . S
C1501 C1500 1.391 . S
C1502 H1492 0.916 1_655 S
C1502 C1503 1.386 . S
C1502 C1504 1.391 . S
C1503 C1502 1.386 . S
C1503 C1507 1.393 . S
C1504 H1493 0.950 1_655 S
C1504 C1502 1.391 . S
C1504 C1505 1.400 . S
C1505 C1499 1.491 . S
C1505 C1504 1.400 . S
C1505 C1506 1.398 . S
C1506 H1494 0.950 . S
C1506 C1505 1.398 . S
C1506 C1507 1.391 . S
C1507 H1495 0.950 . S
C1507 C1503 1.393 . S
C1507 C1506 1.391 . S
H1508 C1516 0.950 . S
H1509 C1521 0.950 . S
H1510 C1518 0.950 . S
H1511 C1520 0.950 . S
H1512 C1522 0.950 . S
H1513 C1524 0.950 . S
H1514 C1526 0.950 . S
H1515 C1527 0.950 . S
C1516 H1508 0.950 . S
C1516 C1517 1.386 . S
C1516 C1518 1.391 . S
C1517 C1516 1.386 . S
C1517 C1521 1.393 . S
C1518 H1510 0.950 . S
C1518 C1516 1.391 . S
C1518 C1519 1.400 . S
C1519 C1518 1.400 . S
C1519 C1520 1.398 . S
C1519 C1525 1.491 . S
C1520 H1511 0.950 . S
C1520 C1519 1.398 . S
C1520 C1521 1.391 . S
C1521 H1509 0.950 . S
C1521 C1517 1.393 . S
C1521 C1520 1.391 . S
C1522 H1512 0.950 . S
C1522 C1523 1.386 . S
C1522 C1524 1.391 . S
C1523 C1522 1.386 . S
C1523 C1527 1.393 . S
C1524 H1513 0.950 . S
C1524 C1522 1.391 . S
C1524 C1525 1.400 . S
C1525 C1519 1.491 . S
C1525 C1524 1.400 . S
C1525 C1526 1.398 . S
C1526 H1514 0.950 . S
C1526 C1525 1.398 . S
C1526 C1527 1.391 . S
C1527 H1515 0.950 . S
C1527 C1523 1.393 . S
C1527 C1526 1.391 . S
H1528 C1536 0.950 . S
H1529 C1541 0.950 . S
H1530 C1538 0.950 . S
H1531 C1540 0.950 . S
H1532 C1542 0.950 . S
H1533 C1544 0.950 . S
H1534 C1546 0.950 . S
H1535 C1547 0.950 . S
C1536 H1528 0.950 . S
C1536 C1537 1.386 . S
C1536 C1538 1.391 . S
C1537 C1536 1.386 . S
C1537 C1541 1.393 . S
C1538 H1530 0.950 . S
C1538 C1536 1.391 . S
C1538 C1539 1.400 . S
C1539 C1538 1.400 . S
C1539 C1540 1.398 . S
C1539 C1545 1.491 . S
C1540 H1531 0.950 . S
C1540 C1539 1.398 . S
C1540 C1541 1.391 . S
C1541 H1529 0.950 . S
C1541 C1537 1.393 . S
C1541 C1540 1.391 . S
C1542 H1532 0.950 . S
C1542 C1543 1.386 . S
C1542 C1544 1.391 . S
C1543 C1542 1.386 . S
C1543 C1547 1.393 . S
C1544 H1533 0.950 . S
C1544 C1542 1.391 . S
C1544 C1545 1.400 . S
C1545 C1539 1.491 . S
C1545 C1544 1.400 . S
C1545 C1546 1.398 . S
C1546 H1534 0.950 . S
C1546 C1545 1.398 . S
C1546 C1547 1.391 . S
C1547 H1535 0.950 . S
C1547 C1543 1.393 . S
C1547 C1546 1.391 . S
H1548 C1556 0.950 . S
H1549 C1561 0.950 . S
H1550 C1558 0.950 . S
H1551 C1560 0.950 . S
H1552 C1562 0.950 . S
H1553 C1564 0.950 . S
H1554 C1566 0.950 . S
H1555 C1567 0.950 . S
C1556 H1548 0.950 . S
C1556 C1557 1.386 . S
C1556 C1558 1.391 . S
C1557 C1556 1.386 . S
C1557 C1561 1.393 . S
C1558 H1550 0.950 . S
C1558 C1556 1.391 . S
C1558 C1559 1.400 . S
C1559 C1558 1.400 . S
C1559 C1560 1.398 1_554 S
C1559 C1565 1.491 1_554 S
C1560 H1551 0.950 . S
C1560 C1559 1.398 1_556 S
C1560 C1561 1.391 1_556 S
C1561 H1549 0.950 . S
C1561 C1557 1.393 . S
C1561 C1560 1.391 1_554 S
C1562 H1552 0.950 . S
C1562 C1563 1.386 . S
C1562 C1564 1.391 . S
C1563 C1562 1.386 . S
C1563 C1567 1.393 . S
C1564 H1553 0.950 . S
C1564 C1562 1.391 . S
C1564 C1565 1.400 . S
C1565 C1559 1.491 1_556 S
C1565 C1564 1.400 . S
C1565 C1566 1.398 1_556 S
C1566 H1554 0.950 . S
C1566 C1565 1.398 1_554 S
C1566 C1567 1.391 1_554 S
C1567 H1555 0.950 . S
C1567 C1563 1.393 . S
C1567 C1566 1.391 1_556 S
H1568 C1576 0.950 . S
H1569 C1581 0.950 . S
H1570 C1578 0.950 . S
H1571 C1580 0.950 . S
H1572 C1582 0.950 . S
H1573 C1584 0.950 . S
H1574 C1586 0.950 . S
H1575 C1587 0.950 . S
C1576 H1568 0.950 . S
C1576 C1577 1.386 . S
C1576 C1578 1.391 . S
C1577 C1576 1.386 . S
C1577 C1581 1.393 . S
C1578 H1570 0.950 . S
C1578 C1576 1.391 . S
C1578 C1579 1.400 . S
C1579 C1578 1.400 . S
C1579 C1580 1.398 . S
C1579 C1585 1.491 1_565 S
C1580 H1571 0.950 . S
C1580 C1579 1.398 . S
C1580 C1581 1.391 . S
C1581 H1569 0.950 . S
C1581 C1577 1.393 . S
C1581 C1580 1.391 . S
C1582 H1572 0.950 . S
C1582 C1583 1.386 . S
C1582 C1584 1.391 . S
C1583 C1582 1.386 . S
C1583 C1587 1.393 . S
C1584 H1573 0.950 . S
C1584 C1582 1.391 . S
C1584 C1585 1.400 . S
C1585 C1579 1.491 1_545 S
C1585 C1584 1.400 . S
C1585 C1586 1.398 . S
C1586 H1574 0.950 . S
C1586 C1585 1.398 . S
C1586 C1587 1.391 . S
C1587 H1575 0.950 . S
C1587 C1583 1.393 . S
C1587 C1586 1.391 . S
H1588 C1596 0.950 . S
H1589 C1601 0.950 . S
H1590 C1598 0.950 . S
H1591 C1600 0.950 1_556 S
H1592 C1602 0.950 . S
H1593 C1604 0.950 . S
H1594 C1606 0.950 1_554 S
H1595 C1607 0.950 . S
C1596 H1588 0.950 . S
C1596 C1597 1.386 . S
C1596 C1598 1.391 . S
C1597 C1596 1.386 . S
C1597 C1601 1.393 . S
C1598 H1590 0.950 . S
C1598 C1596 1.391 . S
C1598 C1599 1.400 . S
C1599 C1598 1.400 . S
C1599 C1600 1.398 . S
C1599 C1605 1.491 1_554 S
C1600 H1591 0.950 1_554 S
C1600 C1599 1.398 . S
C1600 C1601 1.391 . S
C1601 H1589 0.950 . S
C1601 C1597 1.393 . S
C1601 C1600 1.391 . S
C1602 H1592 0.950 . S
C1602 C1603 1.386 . S
C1602 C1604 1.391 . S
C1603 C1602 1.386 . S
C1603 C1607 1.393 . S
C1604 H1593 0.950 . S
C1604 C1602 1.391 . S
C1604 C1605 1.400 . S
C1605 C1599 1.491 1_556 S
C1605 C1604 1.400 . S
C1605 C1606 1.398 . S
C1606 H1594 0.950 1_556 S
C1606 C1605 1.398 . S
C1606 C1607 1.391 . S
C1607 H1595 0.950 . S
C1607 C1603 1.393 . S
C1607 C1606 1.391 . S
H1608 C1616 0.950 1_455 S
H1609 C1621 0.950 . S
H1610 C1618 0.950 1_455 S
H1611 C1620 0.950 . S
H1612 C1622 0.950 . S
H1613 C1624 0.950 . S
H1614 C1626 0.950 1_455 S
H1615 C1627 0.950 1_455 S
C1616 H1608 0.950 1_655 S
C1616 C1617 1.386 . S
C1616 C1618 1.391 . S
C1617 C1616 1.386 . S
C1617 C1621 1.393 . S
C1618 H1610 0.950 1_655 S
C1618 C1616 1.391 . S
C1618 C1619 1.400 . S
C1619 C1618 1.400 . S
C1619 C1620 1.398 . S
C1619 C1625 1.491 1_545 S
C1620 H1611 0.950 . S
C1620 C1619 1.398 . S
C1620 C1621 1.391 . S
C1621 H1609 0.950 . S
C1621 C1617 1.393 . S
C1621 C1620 1.391 . S
C1622 H1612 0.950 . S
C1622 C1623 1.386 . S
C1622 C1624 1.391 . S
C1623 C1622 1.386 . S
C1623 C1627 1.393 . S
C1624 H1613 0.950 . S
C1624 C1622 1.391 . S
C1624 C1625 1.400 . S
C1625 C1619 1.491 1_565 S
C1625 C1624 1.400 . S
C1625 C1626 1.398 . S
C1626 H1614 0.950 1_655 S
C1626 C1625 1.398 . S
C1626 C1627 1.391 . S
C1627 H1615 0.950 1_655 S
C1627 C1623 1.393 . S
C1627 C1626 1.391 . S
H1628 C1636 0.950 . S
H1629 C1641 0.950 . S
H1630 C1638 0.950 . S
H1631 C1640 0.950 . S
H1632 C1642 0.950 . S
H1633 C1644 0.950 . S
H1634 C1646 0.950 . S
H1635 C1647 0.950 . S
C1636 H1628 0.950 . S
C1636 C1637 1.386 . S
C1636 C1638 1.391 . S
C1637 C1636 1.386 . S
C1637 C1641 1.393 . S
C1638 H1630 0.950 . S
C1638 C1636 1.391 . S
C1638 C1639 1.400 . S
C1639 C1638 1.400 . S
C1639 C1640 1.398 . S
C1639 C1645 1.491 . S
C1640 H1631 0.950 . S
C1640 C1639 1.398 . S
C1640 C1641 1.391 . S
C1641 H1629 0.950 . S
C1641 C1637 1.393 . S
C1641 C1640 1.391 . S
C1642 H1632 0.950 . S
C1642 C1643 1.386 . S
C1642 C1644 1.391 . S
C1643 C1642 1.386 . S
C1643 C1647 1.393 . S
C1644 H1633 0.950 . S
C1644 C1642 1.391 . S
C1644 C1645 1.400 . S
C1645 C1639 1.491 . S
C1645 C1644 1.400 . S
C1645 C1646 1.398 . S
C1646 H1634 0.950 . S
C1646 C1645 1.398 . S
C1646 C1647 1.391 . S
C1647 H1635 0.950 . S
C1647 C1643 1.393 . S
C1647 C1646 1.391 . S
H1648 C1656 0.950 . S
H1649 C1661 0.950 . S
H1650 C1658 0.950 . S
H1651 C1660 0.950 . S
H1652 C1662 0.950 . S
H1653 C1664 0.950 . S
H1654 C1666 0.950 . S
H1655 C1667 0.950 . S
C1656 H1648 0.950 . S
C1656 C1657 1.386 . S
C1656 C1658 1.391 . S
C1657 C1656 1.386 . S
C1657 C1661 1.393 . S
C1658 H1650 0.950 . S
C1658 C1656 1.391 . S
C1658 C1659 1.400 . S
C1659 C1658 1.400 . S
C1659 C1660 1.398 . S
C1659 C1665 1.491 1_545 S
C1660 H1651 0.950 . S
C1660 C1659 1.398 . S
C1660 C1661 1.391 . S
C1661 H1649 0.950 . S
C1661 C1657 1.393 . S
C1661 C1660 1.391 . S
C1662 H1652 0.950 . S
C1662 C1663 1.386 . S
C1662 C1664 1.391 . S
C1663 C1662 1.386 . S
C1663 C1667 1.393 . S
C1664 H1653 0.950 . S
C1664 C1662 1.391 . S
C1664 C1665 1.400 . S
C1665 C1659 1.491 1_565 S
C1665 C1664 1.400 . S
C1665 C1666 1.398 . S
C1666 H1654 0.950 . S
C1666 C1665 1.398 . S
C1666 C1667 1.391 . S
C1667 H1655 0.950 . S
C1667 C1663 1.393 . S
C1667 C1666 1.391 . S
H1668 C1676 0.950 . S
H1669 C1681 0.950 . S
H1670 C1678 0.950 . S
H1671 C1680 0.950 . S
H1672 C1682 0.950 . S
H1673 C1684 0.950 . S
H1674 C1686 0.950 . S
H1675 C1687 0.950 . S
C1676 H1668 0.950 . S
C1676 C1677 1.386 1_556 S
C1676 C1678 1.391 . S
C1677 C1676 1.386 1_554 S
C1677 C1681 1.393 . S
C1678 H1670 0.950 . S
C1678 C1676 1.391 . S
C1678 C1679 1.400 1_556 S
C1679 C1678 1.400 1_554 S
C1679 C1680 1.398 . S
C1679 C1685 1.491 1_554 S
C1680 H1671 0.950 . S
C1680 C1679 1.398 . S
C1680 C1681 1.391 . S
C1681 H1669 0.950 . S
C1681 C1677 1.393 . S
C1681 C1680 1.391 . S
C1682 H1672 0.950 . S
C1682 C1683 1.386 1_554 S
C1682 C1684 1.391 . S
C1683 C1682 1.386 1_556 S
C1683 C1687 1.393 . S
C1684 H1673 0.950 . S
C1684 C1682 1.391 . S
C1684 C1685 1.400 1_554 S
C1685 C1679 1.491 1_556 S
C1685 C1684 1.400 1_556 S
C1685 C1686 1.398 . S
C1686 H1674 0.950 . S
C1686 C1685 1.398 . S
C1686 C1687 1.391 . S
C1687 H1675 0.950 . S
C1687 C1683 1.393 . S
C1687 C1686 1.391 . S
H1688 C1696 0.950 1_655 S
H1689 C1701 0.950 . S
H1690 C1698 0.950 1_655 S
H1691 C1700 0.950 . S
H1692 C1702 0.950 . S
H1693 C1704 0.950 . S
H1694 C1706 0.950 1_655 S
H1695 C1707 0.950 1_655 S
C1696 H1688 0.950 1_455 S
C1696 C1697 1.386 . S
C1696 C1698 1.391 . S
C1697 C1696 1.386 . S
C1697 C1701 1.393 . S
C1698 H1690 0.950 1_455 S
C1698 C1696 1.391 . S
C1698 C1699 1.400 . S
C1699 C1698 1.400 . S
C1699 C1700 1.398 . S
C1699 C1705 1.491 1_545 S
C1700 H1691 0.950 . S
C1700 C1699 1.398 . S
C1700 C1701 1.391 . S
C1701 H1689 0.950 . S
C1701 C1697 1.393 . S
C1701 C1700 1.391 . S
C1702 H1692 0.950 . S
C1702 C1703 1.386 . S
C1702 C1704 1.391 . S
C1703 C1702 1.386 . S
C1703 C1707 1.393 . S
C1704 H1693 0.950 . S
C1704 C1702 1.391 . S
C1704 C1705 1.400 . S
C1705 C1699 1.491 1_565 S
C1705 C1704 1.400 . S
C1705 C1706 1.398 . S
C1706 H1694 0.950 1_455 S
C1706 C1705 1.398 . S
C1706 C1707 1.391 . S
C1707 H1695 0.950 1_455 S
C1707 C1703 1.393 . S
C1707 C1706 1.391 . S
H1708 C1716 0.950 . S
H1709 C1721 0.950 . S
H1710 C1718 0.950 . S
H1711 C1720 0.950 . S
H1712 C1722 0.950 . S
H1713 C1724 0.950 . S
H1714 C1726 0.950 . S
H1715 C1727 0.950 . S
C1716 H1708 0.950 . S
C1716 C1717 1.386 . S
C1716 C1718 1.391 . S
C1717 C1716 1.386 . S
C1717 C1721 1.393 . S
C1718 H1710 0.950 . S
C1718 C1716 1.391 . S
C1718 C1719 1.400 . S
C1719 C1718 1.400 . S
C1719 C1720 1.398 . S
C1719 C1725 1.491 . S
C1720 H1711 0.950 . S
C1720 C1719 1.398 . S
C1720 C1721 1.391 . S
C1721 H1709 0.950 . S
C1721 C1717 1.393 . S
C1721 C1720 1.391 . S
C1722 H1712 0.950 . S
C1722 C1723 1.386 . S
C1722 C1724 1.391 . S
C1723 C1722 1.386 . S
C1723 C1727 1.393 . S
C1724 H1713 0.950 . S
C1724 C1722 1.391 . S
C1724 C1725 1.400 . S
C1725 C1719 1.491 . S
C1725 C1724 1.400 . S
C1725 C1726 1.398 . S
C1726 H1714 0.950 . S
C1726 C1725 1.398 . S
C1726 C1727 1.391 . S
C1727 H1715 0.950 . S
C1727 C1723 1.393 . S
C1727 C1726 1.391 . S
C457 C13 1.355 . S
C463 C307 1.343 . S
C477 C321 1.350 . S
C483 C27 1.322 . S
C497 C41 1.319 . S
C503 C335 1.347 . S
C517 C293 1.316 . S
C523 C55 1.335 . S
C537 C69 1.350 . S
C543 C279 1.322 . S
C557 C83 1.322 . S
C563 C237 1.322 . S
C577 C251 1.353 . S
C583 C97 1.326 . S
C597 C111 1.333 . S
C603 C265 1.356 . S
C617 C125 1.327 . S
C623 C419 1.354 . S
C637 C139 1.328 . S
C643 C433 1.354 . S
C657 C447 1.342 . S
C663 C153 1.317 . S
C677 C405 1.325 . S
C683 C167 1.353 . S
C697 C181 1.335 . S
C703 C391 1.356 . S
C717 C349 1.342 . S
C723 C195 1.317 . S
C737 C209 1.355 . S
C743 C363 1.344 . S
C757 C377 1.356 . S
C763 C223 1.336 . S
C777 C8 1.002 . S
C783 C133 1.049 . S
C797 C22 1.030 . S
C803 C371 1.025 . S
C817 C161 1.040 . S
C823 C36 1.001 . S
C837 C50 1.030 . S
C843 C343 1.025 . S
C857 C64 1.000 . S
C863 C217 1.050 . S
C877 C399 1.037 . S
C883 C78 1.006 . S
C897 C189 1.051 . S
C903 C92 0.996 . S
C917 C427 1.042 . S
C923 C106 0.999 . S
C937 C120 1.034 . S
C943 C21 1.026 . S
C957 C259 1.048 . S
C963 C134 1.004 . S
C977 C49 1.031 . S
C983 C148 1.030 . S
C997 C162 1.010 . S
C1003 C231 1.034 . S
C1017 C105 1.051 . S
C1023 C176 0.992 . S
C1037 C287 1.030 . S
C1043 C190 1.018 . S
C1057 C77 1.049 . S
C1063 C204 0.992 . S
C1077 C218 1.003 . S
C1083 C315 1.038 . S
C1097 C357 1.026 . S
C1103 C232 1.034 . S
C1117 C147 1.027 . S
C1123 C246 1.033 . S
C1137 C385 1.037 . S
C1143 C260 1.023 . S
C1157 C274 0.999 . S
C1163 C119 1.042 . S
C1177 C441 1.051 . S
C1183 C288 0.997 . S
C1197 C175 1.028 . S
C1203 C302 1.033 . S
C1217 C413 1.039 . S
C1223 C316 1.002 . S
C1237 C330 1.027 . S
C1243 C203 1.026 . S
C1257 C344 1.033 . S
C1263 C245 1.025 . S
C1277 C35 1.050 . S
C1283 C358 0.998 . S
C1297 C372 1.027 . S
C1303 C273 1.026 . S
C1317 C386 0.998 . S
C1323 C7 1.050 . S
C1337 C400 0.992 . S
C1343 C329 1.051 . S
C1357 C63 1.025 . S
C1363 C414 1.029 . S
C1377 C301 1.048 . S
C1383 C428 0.992 . S
C1397 C442 0.995 . S
C1403 C91 1.045 . S
C1417 C11 1.261 . S
C1423 C67 1.260 . S
C1437 C25 1.251 . S
C1443 C81 1.263 . S
C1457 C95 1.254 . S
C1463 C39 1.264 . S
C1477 C109 1.258 . S
C1483 C53 1.263 . S
C1497 C179 1.259 . S
C1503 C123 1.263 . S
C1517 C193 1.251 . S
C1523 C137 1.258 . S
C1537 C207 1.256 . S
C1543 C151 1.252 . S
C1557 C221 1.253 . S
C1563 C165 1.255 . S
C1577 C235 1.258 . S
C1583 C291 1.251 . S
C1597 C249 1.263 . S
C1603 C305 1.258 . S
C1617 C263 1.261 . S
C1623 C319 1.261 . S
C1637 C333 1.260 . S
C1643 C277 1.251 . S
C1657 C347 1.261 . S
C1663 C403 1.261 . S
C1677 C417 1.264 . S
C1683 C361 1.255 . S
C1697 C431 1.256 . S
C1703 C375 1.253 . S
C1717 C445 1.250 . S
C1723 C389 1.261 . S
